# Generated by pormake.
# Topology wkh, (6)-cn, num edge types: 1
# Building blocks:
#     Node 0, Type 0, BuildingBlock: MIDCAF_clean_sbu_0, # of connection points: 6
#     Node 1, Type 0, BuildingBlock: MIDCAF_clean_sbu_0, # of connection points: 6
#     Node 2, Type 0, BuildingBlock: MIDCAF_clean_sbu_0, # of connection points: 6
#     Node 3, Type 0, BuildingBlock: MIDCAF_clean_sbu_0, # of connection points: 6
#     Node 4, Type 0, BuildingBlock: MIDCAF_clean_sbu_0, # of connection points: 6
#     Node 5, Type 0, BuildingBlock: MIDCAF_clean_sbu_0, # of connection points: 6
#     Node 6, Type 0, BuildingBlock: MIDCAF_clean_sbu_0, # of connection points: 6
#     Node 7, Type 0, BuildingBlock: MIDCAF_clean_sbu_0, # of connection points: 6
#     Node 8, Type 0, BuildingBlock: MIDCAF_clean_sbu_0, # of connection points: 6
#     Node 9, Type 0, BuildingBlock: MIDCAF_clean_sbu_0, # of connection points: 6
#     Node 10, Type 0, BuildingBlock: MIDCAF_clean_sbu_0, # of connection points: 6
#     Node 11, Type 0, BuildingBlock: MIDCAF_clean_sbu_0, # of connection points: 6
#     Edge 12, Type (0, 0), BuildingBlock: UVAHIK_clean_linker_0, # of connection points: 2
#     Edge 13, Type (0, 0), BuildingBlock: UVAHIK_clean_linker_0, # of connection points: 2
#     Edge 14, Type (0, 0), BuildingBlock: UVAHIK_clean_linker_0, # of connection points: 2
#     Edge 15, Type (0, 0), BuildingBlock: UVAHIK_clean_linker_0, # of connection points: 2
#     Edge 16, Type (0, 0), BuildingBlock: UVAHIK_clean_linker_0, # of connection points: 2
#     Edge 17, Type (0, 0), BuildingBlock: UVAHIK_clean_linker_0, # of connection points: 2
#     Edge 18, Type (0, 0), BuildingBlock: UVAHIK_clean_linker_0, # of connection points: 2
#     Edge 19, Type (0, 0), BuildingBlock: UVAHIK_clean_linker_0, # of connection points: 2
#     Edge 20, Type (0, 0), BuildingBlock: UVAHIK_clean_linker_0, # of connection points: 2
#     Edge 21, Type (0, 0), BuildingBlock: UVAHIK_clean_linker_0, # of connection points: 2
#     Edge 22, Type (0, 0), BuildingBlock: UVAHIK_clean_linker_0, # of connection points: 2
#     Edge 23, Type (0, 0), BuildingBlock: UVAHIK_clean_linker_0, # of connection points: 2
#     Edge 24, Type (0, 0), BuildingBlock: UVAHIK_clean_linker_0, # of connection points: 2
#     Edge 25, Type (0, 0), BuildingBlock: UVAHIK_clean_linker_0, # of connection points: 2
#     Edge 26, Type (0, 0), BuildingBlock: UVAHIK_clean_linker_0, # of connection points: 2
#     Edge 27, Type (0, 0), BuildingBlock: UVAHIK_clean_linker_0, # of connection points: 2
#     Edge 28, Type (0, 0), BuildingBlock: UVAHIK_clean_linker_0, # of connection points: 2
#     Edge 29, Type (0, 0), BuildingBlock: UVAHIK_clean_linker_0, # of connection points: 2
#     Edge 30, Type (0, 0), BuildingBlock: UVAHIK_clean_linker_0, # of connection points: 2
#     Edge 31, Type (0, 0), BuildingBlock: UVAHIK_clean_linker_0, # of connection points: 2
#     Edge 32, Type (0, 0), BuildingBlock: UVAHIK_clean_linker_0, # of connection points: 2
#     Edge 33, Type (0, 0), BuildingBlock: UVAHIK_clean_linker_0, # of connection points: 2
#     Edge 34, Type (0, 0), BuildingBlock: UVAHIK_clean_linker_0, # of connection points: 2
#     Edge 35, Type (0, 0), BuildingBlock: UVAHIK_clean_linker_0, # of connection points: 2
#     Edge 36, Type (0, 0), BuildingBlock: UVAHIK_clean_linker_0, # of connection points: 2
#     Edge 37, Type (0, 0), BuildingBlock: UVAHIK_clean_linker_0, # of connection points: 2
#     Edge 38, Type (0, 0), BuildingBlock: UVAHIK_clean_linker_0, # of connection points: 2
#     Edge 39, Type (0, 0), BuildingBlock: UVAHIK_clean_linker_0, # of connection points: 2
#     Edge 40, Type (0, 0), BuildingBlock: UVAHIK_clean_linker_0, # of connection points: 2
#     Edge 41, Type (0, 0), BuildingBlock: UVAHIK_clean_linker_0, # of connection points: 2
#     Edge 42, Type (0, 0), BuildingBlock: UVAHIK_clean_linker_0, # of connection points: 2
#     Edge 43, Type (0, 0), BuildingBlock: UVAHIK_clean_linker_0, # of connection points: 2
#     Edge 44, Type (0, 0), BuildingBlock: UVAHIK_clean_linker_0, # of connection points: 2
#     Edge 45, Type (0, 0), BuildingBlock: UVAHIK_clean_linker_0, # of connection points: 2
#     Edge 46, Type (0, 0), BuildingBlock: UVAHIK_clean_linker_0, # of connection points: 2
#     Edge 47, Type (0, 0), BuildingBlock: UVAHIK_clean_linker_0, # of connection points: 2
# Relax obj value: 0.395
# Max RMSD: 0.272
# Mean RMSD: 0.272
data_MOF--net-wkh--node1-MIDCAF_clean_sbu_0--edge1-UVAHIK_clean_linker_0
_symmetry_space_group_name_H-M    P1
_symmetry_Int_Tables_number       1
_symmetry_cell_setting            triclinic
loop_
_symmetry_equiv_pos_as_xyz
'x, y, z'
_cell_length_a     33.49565
_cell_length_b     33.506604
_cell_length_c     99.116655
_cell_angle_alpha  89.921257
_cell_angle_beta   89.861437
_cell_angle_gamma 120.30076
loop_
_atom_site_label
_atom_site_type_symbol
_atom_site_fract_x
_atom_site_fract_y
_atom_site_fract_z
_atom_type_partial_charge
Zn0 Zn 0.3105 0.37865 -0.00352 0.0
Zn1 Zn 0.24758 0.28044 0.03027 0.0
Zn2 Zn 0.2805 0.32418 0.01234 0.0
C3 C 0.32722 0.28124 0.02583 0.0
C4 C 0.18893 0.23508 0.01048 0.0
O5 O 0.21982 0.32466 0.00245 0.0
O6 O 0.26434 0.39749 -0.0035 0.0
C7 C 0.37251 0.41766 0.01649 0.0
O8 O 0.31232 0.28084 0.01384 0.0
O9 O 0.3105 0.29255 0.03555 0.0
O10 O 0.2067 0.22483 0.02009 0.0
O11 O 0.20683 0.27781 0.00687 0.0
O12 O 0.37182 0.42018 0.00383 0.0
O13 O 0.3357 0.38733 0.02278 0.0
O14 O 0.3158 0.29803 -0.00024 0.0
O15 O 0.30697 0.3345 0.98264 0.0
C16 C 0.31667 0.30496 0.987 0.0
O17 O 0.29385 0.36995 0.03006 0.0
O18 O 0.22241 0.32022 0.03563 0.0
C19 C 0.22432 0.36298 -0.00207 0.0
C20 C 0.25675 0.3604 0.03657 0.0
Zn21 Zn 0.96566 0.2853 0.19978 0.0
Zn22 Zn 0.95053 0.33757 0.15887 0.0
Zn23 Zn 0.95897 0.29892 0.17806 0.0
C24 C 0.01676 0.30945 0.15266 0.0
C25 C 0.97899 0.3976 0.18121 0.0
O26 O 0.89394 0.24335 0.18679 0.0
O27 O 0.9079 0.28594 0.20479 0.0
C28 C 0.98612 0.22863 0.18384 0.0
O29 O 0.01084 0.29633 0.16507 0.0
O30 O -0.00495 0.32797 0.14782 0.0
O31 O 0.97056 0.39687 0.16876 0.0
O32 O 0.97548 0.36217 0.18694 0.0
O33 O 0.96263 0.22318 0.19445 0.0
O34 O -0.00026 0.26573 0.17683 0.0
O35 O 0.03299 0.31701 0.18067 0.0
O36 O 0.02885 0.34153 0.2009 0.0
C37 C 0.05346 0.34214 0.19111 0.0
O38 O 0.8889 0.25 0.17132 0.0
O39 O 0.88447 0.29363 0.15539 0.0
C40 C 0.87982 0.25116 0.19801 0.0
C41 C 0.86608 0.25627 0.16201 0.0
Zn42 Zn 0.6389 0.96437 0.32089 0.0
Zn43 Zn 0.79856 0.00687 0.35625 0.0
Zn44 Zn 0.67475 0.96944 0.34175 0.0
C45 C 0.76534 0.06583 0.3566 0.0
C46 C 0.74083 0.94549 0.33508 0.0
O47 O 0.65104 0.89966 0.33311 0.0
O48 O 0.59459 0.89609 0.321 0.0
C49 C 0.60368 -0.0015 0.33799 0.0
O50 O 0.73199 0.02996 0.35103 0.0
O51 O 0.80558 0.07092 0.35622 0.0
O52 O 0.74252 0.95611 0.34725 0.0
O53 O 0.7027 0.93427 0.32917 0.0
O54 O 0.61889 0.0085 0.32611 0.0
O55 O 0.61251 0.97208 0.34502 0.0
O56 O 0.72387 0.03092 0.33045 0.0
O57 O 0.69849 0.99249 0.31135 0.0
C58 C 0.72874 0.02726 0.31773 0.0
O59 O 0.6792 0.95571 0.36259 0.0
O60 O 0.74794 0.9699 0.3706 0.0
C61 C 0.61329 0.8756 0.3265 0.0
C62 C 0.70476 0.95519 0.37208 0.0
Zn63 Zn 0.82802 0.77282 0.52581 0.0
Zn64 Zn 0.64022 0.59203 0.49676 0.0
Zn65 Zn 0.69622 0.66157 0.51109 0.0
C66 C 0.66552 0.67185 0.48207 0.0
C67 C 0.59515 0.59446 0.51966 0.0
O68 O 0.73769 0.63688 0.52155 0.0
O69 O 0.79632 0.7058 0.51877 0.0
C70 C 0.77807 0.75058 0.50047 0.0
O71 O 0.69565 0.68856 0.49149 0.0
O72 O 0.63272 0.6304 0.48262 0.0
O73 O 0.59661 0.56454 0.51228 0.0
O74 O 0.62827 0.6362 0.51924 0.0
O75 O 0.79798 0.73542 0.5081 0.0
O76 O 0.73401 0.72552 0.49921 0.0
O77 O 0.72676 0.7198 0.52453 0.0
O78 O 0.77797 0.78152 0.53567 0.0
C79 C 0.73578 0.75159 0.53312 0.0
O80 O 0.72174 0.61288 0.50826 0.0
O81 O 0.6801 0.56756 0.49162 0.0
C82 C 0.77754 0.66856 0.52558 0.0
C83 C 0.71456 0.58238 0.4993 0.0
Zn84 Zn 0.05158 0.67314 0.66073 0.0
Zn85 Zn 0.02478 0.758 0.69826 0.0
Zn86 Zn 0.03405 0.71567 0.67935 0.0
C87 C 0.96297 0.66732 0.70402 0.0
C88 C -0.00331 0.78728 0.67666 0.0
O89 O 0.11025 0.74274 0.67814 0.0
O90 O 0.11882 0.71055 0.65971 0.0
C91 C -0.00275 0.60674 0.6791 0.0
O92 O 0.97825 0.66313 0.69248 0.0
O93 O 0.98062 0.70624 0.70963 0.0
O94 O 0.00026 0.79222 0.68926 0.0
O95 O 0.00754 0.75984 0.67073 0.0
O96 O 0.02595 0.61318 0.66991 0.0
O97 O 0.992 0.64024 0.68323 0.0
O98 O 0.01043 0.73224 0.66074 0.0
O99 O 0.01307 0.68155 0.647 0.0
C100 C 0.00178 0.71164 0.64927 0.0
O101 O 0.10063 0.75498 0.69103 0.0
O102 O 0.08604 0.79635 0.70542 0.0
C103 C 0.13643 0.73837 0.66939 0.0
C104 C 0.11354 0.78474 0.7007 0.0
Zn105 Zn 0.26139 0.03582 0.86179 0.0
Zn106 Zn 0.38277 0.07555 0.83705 0.0
Zn107 Zn 0.3142 0.04156 0.84623 0.0
C108 C 0.31773 -0.00126 0.82149 0.0
C109 C 0.38335 0.00461 0.84834 0.0
O110 O 0.35753 0.08345 0.86258 0.0
O111 O 0.30321 0.09119 0.87248 0.0
C112 C 0.22475 0.04568 0.83833 0.0
O113 O 0.30597 0.98419 0.83373 0.0
O114 O 0.34928 0.04043 0.81982 0.0
O115 O 0.41209 0.04763 0.84865 0.0
O116 O 0.34086 0.99117 0.84537 0.0
O117 O 0.21431 0.0377 0.85065 0.0
O118 O 0.26409 0.05224 0.83418 0.0
O119 O 0.2874 0.96789 0.84957 0.0
O120 O 0.24962 0.97277 0.86726 0.0
C121 C 0.26212 0.94957 0.86014 0.0
O122 O 0.31964 0.09592 0.83208 0.0
O123 O 0.39276 0.13887 0.83797 0.0
C124 C 0.34515 0.10247 0.87148 0.0
C125 C 0.35727 0.13561 0.83238 0.0
Zn126 Zn 0.80258 0.78453 0.80282 0.0
Zn127 Zn 0.6272 0.67331 0.83667 0.0
Zn128 Zn 0.67546 0.70814 0.81807 0.0
C129 C 0.71821 0.69378 0.84191 0.0
C130 C 0.59069 0.61003 0.81678 0.0
O131 O 0.66785 0.71574 0.79723 0.0
O132 O 0.74072 0.77022 0.79204 0.0
C133 C 0.74672 0.79877 0.8223 0.0
O134 O 0.71834 0.68891 0.82912 0.0
O135 O 0.68559 0.69666 0.84741 0.0
O136 O 0.59643 0.6095 0.82934 0.0
O137 O 0.61265 0.64827 0.81032 0.0
O138 O 0.74781 0.78509 0.81061 0.0
O139 O 0.70764 0.77638 0.82841 0.0
O140 O 0.73479 0.70359 0.81133 0.0
O141 O 0.80488 0.72445 0.80489 0.0
C142 C 0.76303 0.69249 0.80621 0.0
O143 O 0.65864 0.7601 0.82665 0.0
O144 O 0.59227 0.70734 0.83523 0.0
C145 C 0.69722 0.74728 0.78937 0.0
C146 C 0.61815 0.74828 0.83121 0.0
Zn147 Zn 0.92736 0.62582 4e-05 0.0
Zn148 Zn 0.96767 0.78518 0.94679 0.0
Zn149 Zn 0.95015 0.67725 0.979 0.0
C150 C 0.0126 0.73398 0.95115 0.0
C151 C 0.98333 0.79014 0.97466 0.0
O152 O 0.8736 0.63825 0.98197 0.0
O153 O 0.8598 0.59315 -0.0004 0.0
C154 C 0.97678 0.6001 0.98164 0.0
O155 O 0.98167 0.71893 0.96062 0.0
O156 O 0.01335 0.7632 0.94279 0.0
O157 O 0.98515 0.81619 0.96506 0.0
O158 O 0.96949 0.74728 0.97199 0.0
O159 O 0.95701 0.59186 0.99302 0.0
O160 O 0.97882 0.63234 0.97414 0.0
O161 O 0.99077 0.71841 0.99553 0.0
O162 O 0.96098 0.67516 0.01361 0.0
C163 C 0.98948 0.71333 0.00827 0.0
O164 O 0.92938 0.70699 0.96295 0.0
O165 O 0.90225 0.73024 0.94649 0.0
C166 C 0.8449 0.60715 0.99013 0.0
C167 C 0.89625 0.69853 0.95472 0.0
Zn168 Zn 0.16339 0.95125 0.13215 0.0
Zn169 Zn 0.33355 0.94287 0.1632 0.0
Zn170 Zn 0.28774 0.95995 0.14797 0.0
C171 C 0.32462 0.00802 0.17593 0.0
C172 C 0.38433 0.9792 0.1414 0.0
O173 O 0.24452 0.89499 0.13645 0.0
O174 O 0.19018 0.91115 0.13869 0.0
C175 C 0.2091 0.96893 0.15843 0.0
O176 O 0.28963 0.98897 0.16798 0.0
O177 O 0.35731 -9e-05 0.17444 0.0
O178 O 0.37154 0.94186 0.14771 0.0
O179 O 0.35874 0.99727 0.14187 0.0
O180 O 0.19127 0.93848 0.1493 0.0
O181 O 0.25178 0.98438 0.16116 0.0
O182 O 0.26703 0.99261 0.133 0.0
O183 O 0.21724 0.00506 0.12164 0.0
C184 C 0.25869 0.01421 0.12382 0.0
O185 O 0.25916 0.88566 0.1493 0.0
O186 O 0.28032 0.88474 0.17023 0.0
C187 C 0.2068 0.89075 0.13187 0.0
C188 C 0.25488 0.86396 0.16031 0.0
Zn189 Zn 0.37354 0.32728 0.33491 0.0
Zn190 Zn 0.21233 0.16661 0.29666 0.0
Zn191 Zn 0.31909 0.28577 0.31764 0.0
C192 C 0.24456 0.26454 0.29105 0.0
C193 C 0.22711 0.20265 0.32397 0.0
O194 O 0.36489 0.25711 0.32014 0.0
O195 O 0.37938 0.27462 0.34158 0.0
C196 C 0.3986 0.38654 0.31472 0.0
O197 O 0.27219 0.27237 0.30092 0.0
O198 O 0.21472 0.22317 0.28756 0.0
O199 O 0.24546 0.19014 0.315 0.0
O200 O 0.25175 0.24396 0.32838 0.0
O201 O 0.42011 0.37329 0.32222 0.0
O202 O 0.35513 0.35962 0.31305 0.0
O203 O 0.28339 0.27781 0.33684 0.0
O204 O 0.33439 0.34466 0.34571 0.0
C205 C 0.29451 0.30933 0.34577 0.0
O206 O 0.34781 0.24814 0.30626 0.0
O207 O 0.27631 0.19469 0.30544 0.0
C208 C 0.37852 0.25091 0.33161 0.0
C209 C 0.31623 0.21242 0.30018 0.0
Zn210 Zn 0.01439 0.31949 0.46189 0.0
Zn211 Zn 0.05271 0.36999 0.50589 0.0
Zn212 Zn 0.02739 0.3333 0.48407 0.0
C213 C 0.97573 0.27825 0.50936 0.0
C214 C 0.02263 0.42001 0.48961 0.0
O215 O 0.08801 0.34502 0.47227 0.0
O216 O 0.07149 0.37562 0.45516 0.0
C217 C -0.00484 0.23662 0.47542 0.0
O218 O 0.97639 0.27655 0.49641 0.0
O219 O 0.00503 0.31402 0.51558 0.0
O220 O 0.03939 0.42043 0.50108 0.0
O221 O 0.01535 0.38841 0.4812 0.0
O222 O 0.01548 0.25678 0.46455 0.0
O223 O 0.9838 0.25898 0.48369 0.0
O224 O 0.95247 0.27851 0.48065 0.0
O225 O 0.95331 0.31766 0.46287 0.0
C226 C 0.9301 0.28625 0.4714 0.0
O227 O 0.09836 0.34609 0.48647 0.0
O228 O 0.11699 0.38195 0.5061 0.0
C229 C 0.10018 0.3679 0.46113 0.0
C230 C 0.12754 0.36602 0.49605 0.0
Zn231 Zn 0.67189 0.05494 0.66803 0.0
Zn232 Zn 0.79987 0.05681 0.62319 0.0
Zn233 Zn 0.70091 0.03367 0.6491 0.0
C234 C 0.70112 0.95778 0.63358 0.0
C235 C 0.81651 0.07014 0.64956 0.0
O236 O 0.76003 0.09745 0.6554 0.0
O237 O 0.71809 0.12172 0.66575 0.0
C238 C 0.60751 0.02928 0.64726 0.0
O239 O 0.68633 0.96514 0.64473 0.0
O240 O 0.73686 0.99059 0.62756 0.0
O241 O 0.84454 0.08355 0.63968 0.0
O242 O 0.77775 0.06863 0.64735 0.0
O243 O 0.60927 0.02987 0.66 0.0
O244 O 0.64345 0.03806 0.64032 0.0
O245 O 0.67743 0.97114 0.66014 0.0
O246 O 0.68776 0.013 0.67833 0.0
C247 C 0.6827 0.97654 0.6729 0.0
O248 O 0.67812 0.05356 0.63075 0.0
O249 O 0.73467 0.04266 0.62644 0.0
C250 C 0.75624 0.13002 0.66076 0.0
C251 C 0.71168 0.06112 0.62299 0.0
C252 C 0.76496 0.54088 0.99239 0.0
C253 C 0.79429 0.58804 0.98951 0.0
C254 C 0.71847 0.52354 0.99565 0.0
C255 C 0.6431 0.56229 0.0108 0.0
H256 H 0.5456 0.43828 0.002 0.0
C257 C 0.44698 0.48914 0.02036 0.0
C258 C 0.4188 0.44141 0.02264 0.0
C259 C 0.49489 0.50904 0.01873 0.0
C260 C 0.5726 0.4727 0.00476 0.0
H261 H 0.79732 0.65362 0.98697 0.0
H262 H 0.71541 0.62326 0.99259 0.0
H263 H 0.62187 0.46883 0.99185 0.0
H264 H 0.41923 0.378 0.02621 0.0
H265 H 0.50282 0.41265 0.02371 0.0
H266 H 0.59331 0.56619 0.02358 0.0
C267 C 0.72866 0.59973 0.99246 0.0
C268 C 0.61637 0.4904 -0.00115 0.0
C269 C 0.77536 0.61704 0.98903 0.0
C270 C 0.44012 0.41507 0.02487 0.0
C271 C 0.48796 0.43477 0.02305 0.0
C272 C 0.59917 0.54462 0.01668 0.0
C273 C 0.70002 0.55301 0.99626 0.0
C274 C 0.65235 0.53541 0.00181 0.0
C275 C 0.51549 0.48142 0.01916 0.0
C276 C 0.56336 0.49951 0.01378 0.0
H277 H 0.77872 0.51777 0.9929 0.0
H278 H 0.69784 0.48752 -0.00146 0.0
H279 H 0.67011 0.59672 0.01354 0.0
H280 H 0.4314 0.51002 0.01827 0.0
H281 H 0.51492 0.54505 0.01579 0.0
C282 C 0.18295 0.80486 0.17104 0.0
C283 C 0.21884 0.81602 0.16184 0.0
C284 C 0.15252 0.75891 0.17438 0.0
C285 C 0.11755 0.63822 0.16537 0.0
H286 H 0.08951 0.61711 0.20369 0.0
C287 C 0.0522 0.46318 0.18849 0.0
C288 C 0.00398 0.44233 0.18775 0.0
C289 C 0.07941 0.5111 0.18906 0.0
C290 C 0.09741 0.62288 0.19302 0.0
H291 H 0.25069 0.78961 0.14832 0.0
H292 H 0.19876 0.70888 0.15455 0.0
H293 H 0.13215 0.69626 0.19495 0.0
H294 H 0.94568 0.45322 0.18853 0.0
H295 H 0.99355 0.53757 0.19005 0.0
H296 H 0.08405 0.56468 0.16363 0.0
C297 C 0.19302 0.7351 0.15897 0.0
C298 C 0.12113 0.66787 0.18795 0.0
C299 C 0.22285 0.78113 0.15542 0.0
C300 C 0.98288 0.46898 0.1893 0.0
C301 C 0.01013 0.51693 0.19016 0.0
C302 C 0.09458 0.59344 0.17048 0.0
C303 C 0.1585 0.72371 0.16882 0.0
C304 C 0.1314 0.67597 0.17406 0.0
C305 C 0.05832 0.53807 0.18912 0.0
C306 C 0.08454 0.58569 0.1843 0.0
H307 H 0.17942 0.83181 0.17595 0.0
H308 H 0.1254 0.75112 0.18167 0.0
H309 H 0.12424 0.64319 0.15463 0.0
H310 H 0.06889 0.44303 0.18689 0.0
H311 H 0.1166 0.52712 0.18802 0.0
C312 C 0.41057 0.20262 0.32293 0.0
C313 C 0.3916 0.21557 0.3335 0.0
C314 C 0.42616 0.17163 0.32534 0.0
C315 C 0.46948 0.13244 0.35324 0.0
H316 H 0.46136 0.04196 0.32738 0.0
C317 C 0.53325 0.99196 0.34879 0.0
C318 C 0.57777 0.01929 0.34339 0.0
C319 C 0.50485 0.01103 0.35063 0.0
C320 C 0.46293 0.06647 0.33479 0.0
H321 H 0.37045 0.20386 0.35452 0.0
H322 H 0.39655 0.14912 0.35863 0.0
H323 H 0.41978 0.08342 0.32311 0.0
H324 H 0.62953 0.08811 0.33688 0.0
H325 H 0.58047 0.12166 0.34056 0.0
H326 H 0.5147 0.11702 0.36451 0.0
C327 C 0.40096 0.16395 0.34863 0.0
C328 C 0.43977 0.09054 0.33228 0.0
C329 C 0.38603 0.19524 0.34628 0.0
C330 C 0.59516 0.06654 0.34105 0.0
C331 C 0.56731 0.08569 0.34316 0.0
C332 C 0.49297 0.10868 0.35567 0.0
C333 C 0.42232 0.15278 0.33831 0.0
C334 C 0.4434 0.12426 0.34139 0.0
C335 C 0.52149 0.05763 0.34741 0.0
C336 C 0.49015 0.07598 0.34638 0.0
H337 H 0.41501 0.21778 0.31298 0.0
H338 H 0.44282 0.16387 0.31721 0.0
H339 H 0.47348 0.15873 0.36035 0.0
H340 H 0.51934 0.95537 0.35056 0.0
H341 H 0.46936 0.98904 0.35388 0.0
C342 C 0.20625 0.42023 0.48805 0.0
C343 C 0.17589 0.37857 0.49457 0.0
C344 C 0.25349 0.44282 0.49087 0.0
C345 C 0.32631 0.44992 0.51962 0.0
H346 H 0.426 0.53827 0.49679 0.0
C347 C 0.52145 0.5375 0.53022 0.0
C348 C 0.54966 0.5823 0.52509 0.0
C349 C 0.47352 0.51583 0.52902 0.0
C350 C 0.3982 0.51426 0.50333 0.0
H351 H 0.17049 0.32501 0.5079 0.0
H352 H 0.25355 0.36271 0.51216 0.0
H353 H 0.35018 0.48765 0.48699 0.0
H354 H 0.55036 0.64218 0.51657 0.0
H355 H 0.46634 0.6042 0.51443 0.0
H356 H 0.37516 0.47568 0.53584 0.0
C357 C 0.24097 0.37916 0.50534 0.0
C358 C 0.35485 0.48501 0.4977 0.0
C359 C 0.19361 0.35708 0.50273 0.0
C360 C 0.52925 0.60764 0.52065 0.0
C361 C 0.48126 0.5857 0.51923 0.0
C362 C 0.36983 0.47875 0.5252 0.0
C363 C 0.27098 0.42372 0.50017 0.0
C364 C 0.31828 0.45247 0.50578 0.0
C365 C 0.45344 0.53867 0.52255 0.0
C366 C 0.40608 0.51133 0.51712 0.0
H367 H 0.19293 0.43758 0.48186 0.0
H368 H 0.27534 0.47701 0.48667 0.0
H369 H 0.29876 0.42621 0.52626 0.0
H370 H 0.5366 0.51734 0.53365 0.0
H371 H 0.45282 0.47963 0.53174 0.0
C372 C 0.78522 0.20958 0.65316 0.0
C373 C 0.79354 0.17821 0.66016 0.0
C374 C 0.81242 0.2568 0.6555 0.0
C375 C 0.88043 0.33455 0.68302 0.0
H376 H 0.89978 0.42867 0.65678 0.0
C377 C 0.9876 0.53477 0.6889 0.0
C378 C 0.96717 0.55913 0.68365 0.0
C379 C 0.96432 0.48659 0.68829 0.0
C380 C 0.89405 0.40256 0.66423 0.0
H381 H 0.83819 0.17072 0.67437 0.0
H382 H 0.8872 0.25416 0.67832 0.0
H383 H 0.87281 0.34996 0.64927 0.0
H384 H 0.90573 0.55305 0.67456 0.0
H385 H 0.86505 0.46845 0.67326 0.0
H386 H 0.90338 0.38825 0.69789 0.0
C387 C 0.85912 0.24222 0.67116 0.0
C388 C 0.87883 0.35754 0.65993 0.0
C389 C 0.83169 0.19466 0.66877 0.0
C390 C 0.92163 0.53475 0.6789 0.0
C391 C 0.89869 0.48657 0.67802 0.0
C392 C 0.89651 0.37993 0.68728 0.0
C393 C 0.84849 0.27362 0.66497 0.0
C394 C 0.87095 0.32272 0.66929 0.0
C395 C 0.92085 0.46243 0.68211 0.0
C396 C 0.90256 0.41402 0.67794 0.0
H397 H 0.75551 0.1973 0.64658 0.0
H398 H 0.80277 0.27963 0.65063 0.0
H399 H 0.87406 0.30852 0.69055 0.0
H400 H 0.0231 0.55316 0.69235 0.0
H401 H 0.98209 0.46868 0.69145 0.0
C402 C 0.55604 0.76504 0.82563 0.0
C403 C 0.5997 0.7801 0.83131 0.0
C404 C 0.53404 0.79078 0.82717 0.0
C405 C 0.52687 0.87145 0.85056 0.0
H406 H 0.45685 0.8864 0.82189 0.0
C407 C 0.44344 0.98587 0.85555 0.0
C408 C 0.40122 0.97213 0.84904 0.0
C409 C 0.4658 0.96039 0.85411 0.0
C410 C 0.4756 0.88188 0.83007 0.0
H411 H 0.65525 0.8343 0.84285 0.0
H412 H 0.61627 0.87945 0.84583 0.0
H413 H 0.50329 0.85064 0.81705 0.0
H414 H 0.34822 0.91949 0.8364 0.0
H415 H 0.3873 0.87467 0.83386 0.0
H416 H 0.49894 0.90234 0.86361 0.0
C417 C 0.59923 0.84773 0.84007 0.0
C418 C 0.50253 0.86168 0.82727 0.0
C419 C 0.62176 0.82226 0.83827 0.0
C420 C 0.38057 0.93083 0.84161 0.0
C421 C 0.4033 0.90551 0.84002 0.0
C422 C 0.49983 0.89155 0.85338 0.0
C423 C 0.55474 0.83186 0.83469 0.0
C424 C 0.52849 0.85614 0.83748 0.0
C425 C 0.44681 0.92065 0.84599 0.0
C426 C 0.47379 0.89704 0.84317 0.0
H427 H 0.53828 0.73252 0.82025 0.0
H428 H 0.4998 0.77732 0.82297 0.0
H429 H 0.54569 0.86691 0.85872 0.0
H430 H 0.46023 0.01753 0.86136 0.0
H431 H 0.49923 0.9733 0.85881 0.0
C432 C 0.57394 0.53911 0.8041 0.0
C433 C 0.55774 0.56588 0.81036 0.0
C434 C 0.5448 0.49106 0.80279 0.0
C435 C 0.44889 0.39878 0.82182 0.0
H436 H 0.44185 0.31732 0.79307 0.0
C437 C 0.34217 0.20128 0.82935 0.0
C438 C 0.36373 0.17692 0.82505 0.0
C439 C 0.35911 0.24712 0.82506 0.0
C440 C 0.44357 0.33953 0.80124 0.0
H441 H 0.49809 0.56442 0.81927 0.0
H442 H 0.44696 0.48124 0.81665 0.0
H443 H 0.48547 0.40119 0.78959 0.0
H444 H 0.41819 0.18021 0.81246 0.0
H445 H 0.44745 0.25929 0.80497 0.0
H446 H 0.40915 0.33804 0.83373 0.0
C447 C 0.4821 0.49687 0.8129 0.0
C448 C 0.46855 0.38764 0.79921 0.0
C449 C 0.51113 0.54462 0.81421 0.0
C450 C 0.40046 0.19805 0.81576 0.0
C451 C 0.41729 0.24357 0.81147 0.0
C452 C 0.42438 0.35094 0.8239 0.0
C453 C 0.49918 0.46916 0.80783 0.0
C454 C 0.47142 0.41785 0.80948 0.0
C455 C 0.39804 0.26949 0.81644 0.0
C456 C 0.42131 0.32045 0.81367 0.0
H457 H 0.61012 0.55459 0.80136 0.0
H458 H 0.5591 0.47074 0.79887 0.0
H459 H 0.45138 0.42101 0.83009 0.0
H460 H 0.31443 0.18612 0.83671 0.0
H461 H 0.3428 0.26563 0.82894 0.0
C462 C 0.04114 0.58907 0.97227 0.0
C463 C -0.00333 0.5708 0.97789 0.0
C464 C 0.06326 0.56265 0.97233 0.0
C465 C 0.06878 0.47706 0.99327 0.0
H466 H 0.11424 0.43984 0.96268 0.0
C467 C 0.14755 0.35924 0.00123 0.0
C468 C 0.18592 0.3692 0.99314 0.0
C469 C 0.11993 0.37877 -0.00189 0.0
C470 C 0.10252 0.4504 0.97143 0.0
H471 H 0.93932 0.50962 0.98691 0.0
H472 H 0.97767 0.46447 0.98705 0.0
H473 H 0.08036 0.48863 0.95914 0.0
H474 H 0.22373 0.40486 0.97508 0.0
H475 H 0.17769 0.43944 0.96996 0.0
H476 H 0.09223 0.44088 0.0057 0.0
C477 C -0.00427 0.49898 0.98277 0.0
C478 C 0.083 0.4784 0.96932 0.0
C479 C 0.97372 0.52486 0.9826 0.0
C480 C 0.19412 0.39622 0.98147 0.0
C481 C 0.16733 0.4161 0.97849 0.0
C482 C 0.08918 0.44997 0.99543 0.0
C483 C 0.04121 0.51799 0.97809 0.0
C484 C 0.06561 0.4917 0.98021 0.0
C485 C 0.13058 0.40903 0.98695 0.0
C486 C 0.10628 0.4359 0.98454 0.0
H487 H 0.05986 0.62449 0.9687 0.0
H488 H 0.0984 0.578 0.9686 0.0
H489 H 0.05568 0.48694 0.00186 0.0
H490 H 0.14079 0.33911 0.01039 0.0
H491 H 0.09128 0.37139 0.00474 0.0
C492 C 0.45572 0.05499 0.13705 0.0
C493 C 0.43328 0.00652 0.13735 0.0
C494 C 0.50392 0.08122 0.1377 0.0
C495 C 0.59859 0.06911 0.15154 0.0
H496 H 0.67673 0.18861 0.13487 0.0
C497 C 0.78622 0.19535 0.16897 0.0
C498 C 0.81814 0.22134 0.15883 0.0
C499 C 0.73934 0.16743 0.16582 0.0
C500 C 0.65549 0.15504 0.13951 0.0
H501 H 0.4435 0.94753 0.13678 0.0
H502 H 0.52745 0.9933 0.13757 0.0
H503 H 0.59566 0.14338 0.12852 0.0
H504 H 0.82722 0.23674 0.13742 0.0
H505 H 0.74626 0.18676 0.13183 0.0
H506 H 0.65855 0.08037 0.16238 0.0
C507 C 0.50792 0.01103 0.13734 0.0
C508 C 0.60896 0.12939 0.13596 0.0
C509 C 0.45988 0.98488 0.13673 0.0
C510 C 0.80308 0.21733 0.14545 0.0
C511 C 0.75665 0.18907 0.14227 0.0
C512 C 0.64519 0.09468 0.15506 0.0
C513 C 0.53026 0.0593 0.13854 0.0
C514 C 0.58007 0.08608 0.14189 0.0
C515 C 0.72402 0.16475 0.15245 0.0
C516 C 0.67422 0.13782 0.14903 0.0
H517 H 0.43612 0.07262 0.13752 0.0
H518 H 0.52021 0.11842 0.13855 0.0
H519 H 0.57691 0.03627 0.15653 0.0
H520 H 0.797 0.19831 0.17938 0.0
H521 H 0.71499 0.14933 0.17391 0.0
C522 C 0.39843 0.45817 0.30707 0.0
C523 C 0.42287 0.43574 0.31055 0.0
C524 C 0.42128 0.50663 0.30655 0.0
C525 C 0.51518 0.60288 0.32379 0.0
H526 H 0.50884 0.68188 0.29634 0.0
C527 C 0.61591 0.80213 0.32867 0.0
C528 C 0.59334 0.82544 0.32423 0.0
C529 C 0.59687 0.75487 0.32609 0.0
C530 C 0.51049 0.66024 0.30418 0.0
H531 H 0.49114 0.44628 0.31483 0.0
H532 H 0.53031 0.53013 0.31408 0.0
H533 H 0.4712 0.59853 0.2925 0.0
H534 H 0.53266 0.81723 0.31382 0.0
H535 H 0.49926 0.73529 0.30963 0.0
H536 H 0.55289 0.66376 0.33571 0.0
C537 C 0.49361 0.5105 0.31194 0.0
C538 C 0.48908 0.61261 0.30193 0.0
C539 C 0.47107 0.46243 0.31232 0.0
C540 C 0.55121 0.80047 0.31731 0.0
C541 C 0.53216 0.75341 0.31479 0.0
C542 C 0.53602 0.6503 0.32612 0.0
C543 C 0.46867 0.53306 0.30959 0.0
C544 C 0.49136 0.58358 0.31171 0.0
C545 C 0.55479 0.72997 0.31906 0.0
C546 C 0.53391 0.67964 0.31637 0.0
H547 H 0.36133 0.43859 0.30564 0.0
H548 H 0.40138 0.5234 0.30465 0.0
H549 H 0.51685 0.58104 0.33158 0.0
H550 H 0.64844 0.82043 0.33402 0.0
H551 H 0.61547 0.73802 0.32944 0.0
C552 C 0.00493 0.47989 0.49733 0.0
C553 C 0.00642 0.45265 0.48681 0.0
C554 C 0.982 0.50442 0.49563 0.0
C555 C 0.88442 0.49378 0.47695 0.0
H556 H 0.91314 0.60436 0.49703 0.0
C557 C 0.75341 0.55547 0.48346 0.0
C558 C 0.74973 0.56954 0.49654 0.0
C559 C 0.78941 0.54786 0.48016 0.0
C560 C 0.9047 0.57343 0.49139 0.0
H561 H 0.98865 0.43287 0.46588 0.0
H562 H 0.94911 0.4768 0.46283 0.0
H563 H 0.97267 0.58369 0.49377 0.0
H564 H 0.7799 0.58542 0.51651 0.0
H565 H 0.8423 0.57066 0.51086 0.0
H566 H 0.81608 0.48262 0.47495 0.0
C567 C 0.96489 0.47822 0.47248 0.0
C568 C 0.93877 0.56174 0.48946 0.0
C569 C 0.98761 0.45325 0.47421 0.0
C570 C 0.78218 0.57497 0.50634 0.0
C571 C 0.81805 0.56691 0.50307 0.0
C572 C 0.85043 0.50557 0.47883 0.0
C573 C 0.96046 0.50268 0.48334 0.0
C574 C 0.92844 0.52086 0.48266 0.0
C575 C 0.82221 0.5537 0.4899 0.0
C576 C 0.85981 0.5446 0.48647 0.0
H577 H 0.01902 0.48014 0.50717 0.0
H578 H 0.9786 0.52222 0.50428 0.0
H579 H 0.87517 0.46179 0.4718 0.0
H580 H 0.72931 0.55176 0.47562 0.0
H581 H 0.79202 0.53818 0.46992 0.0
C582 C 0.54026 0.96174 0.63743 0.0
C583 C 0.56174 0.00847 0.64111 0.0
C584 C 0.49207 0.93428 0.63776 0.0
C585 C 0.40035 0.93376 0.65794 0.0
H586 H 0.3203 0.81981 0.63903 0.0
C587 C 0.20675 0.81642 0.6714 0.0
C588 C 0.18702 0.76875 0.66938 0.0
C589 C 0.25273 0.8467 0.66764 0.0
C590 C 0.34241 0.85129 0.64452 0.0
H591 H 0.55072 0.06477 0.6463 0.0
H592 H 0.46647 0.01777 0.64593 0.0
H593 H 0.39765 0.87227 0.63022 0.0
H594 H 0.20042 0.71478 0.66301 0.0
H595 H 0.28122 0.76722 0.65715 0.0
H596 H 0.34591 0.91255 0.6724 0.0
C597 C 0.48655 0.00168 0.64336 0.0
C598 C 0.38662 0.88151 0.63939 0.0
C599 C 0.53469 0.02884 0.64333 0.0
C600 C 0.21491 0.75153 0.6646 0.0
C601 C 0.26095 0.78162 0.66105 0.0
C602 C 0.35634 0.90359 0.66307 0.0
C603 C 0.46489 0.95351 0.64162 0.0
C604 C 0.41618 0.9231 0.64607 0.0
C605 C 0.27988 0.82969 0.66198 0.0
C606 C 0.32687 0.86182 0.65649 0.0
H607 H 0.56066 0.94523 0.63594 0.0
H608 H 0.47666 0.89736 0.63636 0.0
H609 H 0.42259 0.9648 0.66359 0.0
H610 H 0.18572 0.83054 0.67488 0.0
H611 H 0.26606 0.88351 0.66846 0.0
C612 C 0.34858 0.30434 0.96457 0.0
C613 C 0.33152 0.28227 0.97707 0.0
C614 C 0.36124 0.28392 0.95458 0.0
C615 C 0.34048 0.17378 0.94174 0.0
H616 H 0.44827 0.25351 0.91984 0.0
C617 C 0.38036 0.10724 0.89347 0.0
C618 C 0.37558 0.1305 0.88238 0.0
C619 C 0.38799 0.12672 0.90633 0.0
C620 C 0.41846 0.23076 0.92596 0.0
H621 H 0.3139 0.22109 0.98888 0.0
H622 H 0.33619 0.18454 0.97107 0.0
H623 H 0.43391 0.28302 0.94071 0.0
H624 H 0.37932 0.19365 0.87559 0.0
H625 H 0.39542 0.22905 0.89794 0.0
H626 H 0.32444 0.12198 0.9267 0.0
C627 C 0.33989 0.2181 0.9692 0.0
C628 C 0.41006 0.24757 0.93786 0.0
C629 C 0.32745 0.239 0.97938 0.0
C630 C 0.38407 0.17569 0.88398 0.0
C631 C 0.39274 0.19563 0.89678 0.0
C632 C 0.3492 0.15678 0.9299 0.0
C633 C 0.35729 0.24073 0.95674 0.0
C634 C 0.37021 0.21978 0.94564 0.0
C635 C 0.39193 0.17009 0.90815 0.0
C636 C 0.38764 0.18556 0.92175 0.0
H637 H 0.35214 0.33771 0.96243 0.0
H638 H 0.37339 0.30176 0.94501 0.0
H639 H 0.30919 0.15182 0.94741 0.0
H640 H 0.37273 0.07186 0.89247 0.0
H641 H 0.38741 0.10654 0.91496 0.0
C642 C 0.09576 0.32706 0.14576 0.0
C643 C 0.04791 0.30358 0.14349 0.0
C644 C 0.12625 0.33592 0.13493 0.0
C645 C 0.12947 0.36653 0.10046 0.0
H646 H 0.2316 0.34562 0.0943 0.0
C647 C 0.2121 0.38861 0.04851 0.0
C648 C 0.25405 0.38899 0.04733 0.0
C649 C 0.19414 0.38885 0.06119 0.0
C650 C 0.20412 0.3531 0.09599 0.0
H651 H 0.99397 0.26623 0.12881 0.0
H652 H 0.04696 0.28128 0.11002 0.0
H653 H 0.18537 0.31614 0.11486 0.0
H654 H 0.31406 0.39838 0.05817 0.0
H655 H 0.2848 0.40318 0.08036 0.0
H656 H 0.14826 0.40463 0.08203 0.0
C657 C 0.06106 0.29338 0.11999 0.0
C658 C 0.1773 0.33552 0.10772 0.0
C659 C 0.03084 0.28454 0.13074 0.0
C660 C 0.28164 0.39813 0.05882 0.0
C661 C 0.26407 0.39938 0.07157 0.0
C662 C 0.15684 0.38508 0.08895 0.0
C663 C 0.10889 0.3214 0.12183 0.0
C664 C 0.13916 0.34125 0.10987 0.0
C665 C 0.2185 0.39094 0.07298 0.0
C666 C 0.194 0.37777 0.08632 0.0
H667 H 0.10954 0.34238 0.15551 0.0
H668 H 0.1631 0.35751 0.13655 0.0
H669 H 0.10057 0.37203 0.10204 0.0
H670 H 0.19006 0.38129 0.03977 0.0
H671 H 0.1591 0.38241 0.06162 0.0
C672 C 0.83685 0.17114 0.20659 0.0
C673 C 0.84025 0.21449 0.20539 0.0
C674 C 0.81831 0.14496 0.21834 0.0
C675 C 0.76301 0.13995 0.25142 0.0
H676 H 0.86126 0.12273 0.26557 0.0
C677 C 0.76563 0.10466 0.30732 0.0
C678 C 0.76576 0.06344 0.30954 0.0
C679 C 0.78075 0.12754 0.29491 0.0
C680 C 0.83352 0.12728 0.26176 0.0
H681 H 0.81999 0.26076 0.21412 0.0
H682 H 0.78638 0.21467 0.23435 0.0
H683 H 0.8615 0.14128 0.24178 0.0
H684 H 0.78699 0.01698 0.30145 0.0
H685 H 0.81487 0.05745 0.28022 0.0
H686 H 0.73507 0.12601 0.27141 0.0
C687 C 0.79875 0.20106 0.22652 0.0
C688 C 0.83325 0.13725 0.24809 0.0
C689 C 0.81773 0.22741 0.21487 0.0
C690 C 0.78746 0.04932 0.3001 0.0
C691 C 0.8029 0.07226 0.28781 0.0
C692 C 0.76322 0.12988 0.26509 0.0
C693 C 0.80232 0.1616 0.22882 0.0
C694 C 0.79818 0.14406 0.24279 0.0
C695 C 0.79646 0.1095 0.28471 0.0
C696 C 0.79873 0.12389 0.27044 0.0
H697 H 0.85408 0.16048 0.1994 0.0
H698 H 0.82045 0.11402 0.21974 0.0
H699 H 0.73551 0.14489 0.24762 0.0
H700 H 0.74843 0.11577 0.31438 0.0
H701 H 0.77646 0.15693 0.29289 0.0
C702 C 0.6636 0.878 0.3821 0.0
C703 C 0.68234 0.92568 0.38367 0.0
C704 C 0.65361 0.84975 0.39338 0.0
C705 C 0.69734 0.85997 0.42738 0.0
H706 H 0.60077 0.73148 0.4304 0.0
C707 C 0.68263 0.74812 0.47317 0.0
C708 C 0.66789 0.70146 0.47087 0.0
C709 C 0.68198 0.77566 0.46274 0.0
C710 C 0.62824 0.76718 0.42961 0.0
H711 H 0.7026 0.98156 0.39784 0.0
H712 H 0.68298 0.93165 0.4178 0.0
H713 H 0.59775 0.779 0.41224 0.0
H714 H 0.64284 0.64706 0.45593 0.0
H715 H 0.64355 0.69573 0.43746 0.0
H716 H 0.72864 0.84806 0.44445 0.0
C717 C 0.67704 0.91622 0.40788 0.0
C718 C 0.62626 0.79443 0.41929 0.0
C719 C 0.68779 0.94464 0.39655 0.0
C720 C 0.65382 0.68294 0.45792 0.0
C721 C 0.65397 0.71069 0.44741 0.0
C722 C 0.69943 0.83272 0.43765 0.0
C723 C 0.66196 0.86893 0.40637 0.0
C724 C 0.66092 0.84104 0.41805 0.0
C725 C 0.66729 0.75714 0.44977 0.0
C726 C 0.66502 0.786 0.43884 0.0
H727 H 0.66019 0.8632 0.37215 0.0
H728 H 0.64271 0.81365 0.39187 0.0
H729 H 0.72523 0.89546 0.42647 0.0
H730 H 0.69301 0.7629 0.48314 0.0
H731 H 0.6918 0.8111 0.46495 0.0
C732 C 0.77347 0.68227 0.55004 0.0
C733 C 0.79179 0.66836 0.53953 0.0
C734 C 0.79088 0.68739 0.5631 0.0
C735 C 0.84963 0.64947 0.58598 0.0
H736 H 0.89971 0.76952 0.60305 0.0
C737 C 0.9253 0.67913 0.63881 0.0
C738 C 0.97104 0.71568 0.63963 0.0
C739 C 0.89776 0.67596 0.62789 0.0
C740 C 0.88562 0.73582 0.59842 0.0
H741 H 0.84046 0.64643 0.53429 0.0
H742 H 0.86969 0.65326 0.55738 0.0
H743 H 0.86121 0.75557 0.58109 0.0
H744 H 0.02372 0.77892 0.63029 0.0
H745 H 0.97522 0.77366 0.61101 0.0
H746 H 0.87425 0.62965 0.60313 0.0
C747 C 0.84266 0.66125 0.55545 0.0
C748 C 0.86346 0.72777 0.58594 0.0
C749 C 0.82605 0.65732 0.54231 0.0
C750 C 0.98822 0.75079 0.62986 0.0
C751 C 0.96052 0.74769 0.61888 0.0
C752 C 0.87105 0.65724 0.59852 0.0
C753 C 0.82591 0.67731 0.56589 0.0
C754 C 0.846 0.68474 0.57954 0.0
C755 C 0.91568 0.70921 0.61756 0.0
C756 C 0.88979 0.70065 0.60479 0.0
H757 H 0.74629 0.6899 0.54815 0.0
H758 H 0.77704 0.69924 0.57103 0.0
H759 H 0.83623 0.61598 0.58126 0.0
H760 H 0.91169 0.65162 0.64626 0.0
H761 H 0.86316 0.6463 0.6272 0.0
C762 C 0.31003 0.98966 0.79663 0.0
C763 C 0.29749 0.969 0.80947 0.0
C764 C 0.29231 0.96351 0.78501 0.0
C765 C 0.19918 0.85564 0.77093 0.0
H766 H 0.28822 0.88726 0.74183 0.0
C767 C 0.14853 0.7653 0.71917 0.0
C768 C 0.15412 0.79697 0.70901 0.0
C769 C 0.17073 0.78097 0.73158 0.0
C770 C 0.26309 0.8779 0.74988 0.0
H771 H 0.25449 0.90466 0.82015 0.0
H772 H 0.22352 0.85809 0.79951 0.0
H773 H 0.31419 0.92323 0.76389 0.0
H774 H 0.19058 0.86908 0.70324 0.0
H775 H 0.23247 0.89632 0.72455 0.0
H776 H 0.14802 0.81053 0.7567 0.0
C777 C 0.24748 0.89488 0.79861 0.0
C778 C 0.27779 0.89857 0.76249 0.0
C779 C 0.26536 0.92139 0.81039 0.0
C780 C 0.18676 0.84392 0.71078 0.0
C781 C 0.21001 0.8595 0.72306 0.0
C782 C 0.1845 0.83449 0.75829 0.0
C783 C 0.26165 0.91571 0.78578 0.0
C784 C 0.24593 0.88867 0.77306 0.0
C785 C 0.20007 0.82842 0.73382 0.0
C786 C 0.2163 0.84618 0.7476 0.0
H787 H 0.33376 0.02642 0.79548 0.0
H788 H 0.30279 0.98094 0.77533 0.0
H789 H 0.17376 0.84764 0.77881 0.0
H790 H 0.12248 0.7291 0.71818 0.0
H791 H 0.16277 0.75635 0.7397 0.0
C792 C 0.76047 0.65545 0.85067 0.0
C793 C 0.75231 0.69259 0.85096 0.0
C794 C 0.77851 0.64525 0.86209 0.0
C795 C 0.82894 0.69 0.89625 0.0
H796 H 0.7583 0.56091 0.90701 0.0
C797 C 0.81475 0.64922 0.95001 0.0
C798 C 0.85769 0.6521 0.95184 0.0
C799 C 0.79198 0.63392 0.93766 0.0
C800 C 0.77822 0.59692 0.90405 0.0
H801 H 0.76079 0.75094 0.86259 0.0
H802 H 0.79203 0.73373 0.88227 0.0
H803 H 0.74996 0.58382 0.88408 0.0
H804 H 0.90159 0.62654 0.9447 0.0
H805 H 0.86162 0.59904 0.92327 0.0
H806 H 0.8555 0.70329 0.91637 0.0
C807 C 0.78487 0.71213 0.87346 0.0
C808 C 0.77402 0.61011 0.89092 0.0
C809 C 0.76692 0.72214 0.86214 0.0
C810 C 0.8692 0.62594 0.94331 0.0
C811 C 0.84664 0.6107 0.9309 0.0
C812 C 0.83271 0.67692 0.90931 0.0
C813 C 0.78881 0.67228 0.87385 0.0
C814 C 0.79865 0.65703 0.88695 0.0
C815 C 0.81098 0.61926 0.92752 0.0
C816 C 0.80686 0.63051 0.91339 0.0
H817 H 0.74911 0.63201 0.84217 0.0
H818 H 0.78209 0.6149 0.86195 0.0
H819 H 0.84908 0.72624 0.89354 0.0
H820 H 0.80438 0.66801 0.95669 0.0
H821 H 0.76413 0.64037 0.93533 0.0
C822 C 0.06793 0.74993 0.01775 0.0
C823 C 0.02548 0.74847 0.01678 0.0
C824 C 0.09802 0.77367 0.02834 0.0
C825 C 0.12267 0.85676 0.05593 0.0
H826 H 0.15086 0.77576 0.0767 0.0
C827 C 0.153 0.87604 0.11272 0.0
C828 C 0.19139 0.875 0.11794 0.0
C829 C 0.14036 0.86504 0.09928 0.0
C830 C 0.14406 0.7991 0.07089 0.0
H831 H 0.98169 0.77214 0.02533 0.0
H832 H 0.03488 0.815 0.04371 0.0
H833 H 0.1174 0.75251 0.0542 0.0
H834 H 0.24503 0.85883 0.11336 0.0
H835 H 0.2218 0.83806 0.08978 0.0
H836 H 0.14763 0.90247 0.07285 0.0
C837 C 0.04508 0.79793 0.03635 0.0
C838 C 0.12504 0.78591 0.05802 0.0
C839 C 0.01468 0.77355 0.02588 0.0
C840 C 0.21558 0.86046 0.10957 0.0
C841 C 0.20237 0.84863 0.09611 0.0
C842 C 0.14164 0.86991 0.06879 0.0
C843 C 0.08612 0.79659 0.03799 0.0
C844 C 0.11308 0.81411 0.05057 0.0
C845 C 0.16521 0.85178 0.0908 0.0
C846 C 0.15129 0.84062 0.07653 0.0
H847 H 0.0763 0.73003 0.01089 0.0
H848 H 0.12953 0.77235 0.02933 0.0
H849 H 0.11424 0.8793 0.05033 0.0
H850 H 0.13266 0.8856 0.11897 0.0
H851 H 0.11077 0.86652 0.09553 0.0
C852 C 0.36986 0.07343 0.19159 0.0
C853 C 0.32681 0.03901 0.18675 0.0
C854 C 0.37236 0.10122 0.20238 0.0
C855 C 0.30146 0.13262 0.22418 0.0
H856 H 0.39519 0.15394 0.25072 0.0
C857 C 0.28567 0.1601 0.2804 0.0
C858 C 0.32274 0.19858 0.28662 0.0
C859 C 0.28963 0.14826 0.26724 0.0
C860 C 0.3694 0.14895 0.24329 0.0
H861 H 0.25257 0.00729 0.18902 0.0
H862 H 0.25672 0.05422 0.2083 0.0
H863 H 0.39468 0.1189 0.22919 0.0
H864 H 0.39393 0.25352 0.28416 0.0
H865 H 0.40154 0.23124 0.26109 0.0
H866 H 0.2746 0.16008 0.23882 0.0
C867 C 0.28867 0.06088 0.20356 0.0
C868 C 0.36908 0.12901 0.23092 0.0
C869 C 0.28621 0.03369 0.19258 0.0
C870 C 0.3647 0.22392 0.27957 0.0
C871 C 0.369 0.21136 0.26641 0.0
C872 C 0.3014 0.1519 0.23665 0.0
C873 C 0.33185 0.09445 0.20875 0.0
C874 C 0.33465 0.11988 0.2213 0.0
C875 C 0.33117 0.17386 0.26011 0.0
C876 C 0.33493 0.15948 0.24636 0.0
H877 H 0.40169 0.07876 0.18708 0.0
H878 H 0.40614 0.12754 0.20585 0.0
H879 H 0.27501 0.12695 0.21692 0.0
H880 H 0.2534 0.13884 0.28567 0.0
H881 H 0.26041 0.11846 0.26269 0.0
C882 C 0.24973 0.33764 0.35794 0.0
C883 C 0.26224 0.30393 0.35642 0.0
C884 C 0.22955 0.34023 0.36992 0.0
C885 C 0.18352 0.28794 0.40317 0.0
H886 H 0.25658 0.41573 0.41476 0.0
C887 C 0.15459 0.34113 0.45502 0.0
C888 C 0.14047 0.37388 0.45356 0.0
C889 C 0.17873 0.33456 0.44459 0.0
C890 C 0.23615 0.37992 0.41169 0.0
H891 H 0.26007 0.24377 0.36525 0.0
H892 H 0.22608 0.24926 0.3866 0.0
H893 H 0.26867 0.39398 0.39238 0.0
H894 H 0.14654 0.43029 0.44131 0.0
H895 H 0.18939 0.4196 0.42328 0.0
H896 H 0.15028 0.27426 0.42246 0.0
C897 C 0.23102 0.27312 0.37852 0.0
C898 C 0.24259 0.36753 0.39884 0.0
C899 C 0.25047 0.27001 0.36637 0.0
C900 C 0.15668 0.40449 0.44257 0.0
C901 C 0.18122 0.39832 0.43225 0.0
C902 C 0.17695 0.30041 0.41607 0.0
C903 C 0.22306 0.30998 0.38063 0.0
C904 C 0.21564 0.32172 0.39436 0.0
C905 C 0.18969 0.36134 0.43279 0.0
C906 C 0.20265 0.34673 0.42031 0.0
H907 H 0.25821 0.36366 0.35022 0.0
H908 H 0.22235 0.3681 0.37121 0.0
H909 H 0.16261 0.25235 0.39995 0.0
H910 H 0.14271 0.31727 0.46346 0.0
H911 H 0.18576 0.30642 0.44531 0.0
C912 C 0.95384 0.22565 0.52878 0.0
C913 C 0.93999 0.2408 0.51749 0.0
C914 C 0.92313 0.20348 0.53939 0.0
C915 C 0.82386 0.2026 0.55525 0.0
H916 H 0.82477 0.1092 0.57816 0.0
C917 C 0.70435 0.09393 0.60114 0.0
C918 C 0.7305 0.09695 0.61251 0.0
C919 C 0.72682 0.11774 0.5893 0.0
C920 C 0.82432 0.13536 0.57182 0.0
H921 H 0.88301 0.24241 0.50784 0.0
H922 H 0.82846 0.20266 0.5264 0.0
H923 H 0.86677 0.12937 0.55678 0.0
H924 H 0.79917 0.13105 0.62121 0.0
H925 H 0.8382 0.17165 0.60053 0.0
H926 H 0.78082 0.20788 0.57046 0.0
C927 C 0.86318 0.20828 0.5271 0.0
C928 C 0.84831 0.14692 0.55962 0.0
C929 C 0.89397 0.23015 0.51639 0.0
C930 C 0.77844 0.12788 0.61245 0.0
C931 C 0.80076 0.15113 0.60068 0.0
C932 C 0.79931 0.19054 0.56745 0.0
C933 C 0.87809 0.19648 0.53894 0.0
C934 C 0.84876 0.18097 0.55124 0.0
C935 C 0.77534 0.14429 0.58886 0.0
C936 C 0.79987 0.15719 0.57584 0.0
H937 H 0.98951 0.23425 0.52985 0.0
H938 H 0.93589 0.19514 0.54836 0.0
H939 H 0.82443 0.22974 0.54916 0.0
H940 H 0.66742 0.06998 0.60099 0.0
H941 H 0.70678 0.11209 0.58022 0.0
C942 C 0.70209 0.81059 0.77554 0.0
C943 C 0.68119 0.76291 0.77786 0.0
C944 C 0.69362 0.82705 0.76367 0.0
C945 C 0.62619 0.80754 0.73362 0.0
H946 H 0.74675 0.8792 0.71663 0.0
C947 C 0.65075 0.89574 0.68143 0.0
C948 C 0.68496 0.9426 0.6817 0.0
C949 C 0.64765 0.86647 0.69201 0.0
C950 C 0.71283 0.85931 0.7212 0.0
H951 H 0.63139 0.69489 0.77047 0.0
H952 H 0.61723 0.72408 0.7492 0.0
H953 H 0.7402 0.84348 0.7385 0.0
H954 H 0.74475 0.99525 0.69236 0.0
H955 H 0.73982 0.94475 0.71061 0.0
H956 H 0.59919 0.82547 0.71652 0.0
C957 C 0.64004 0.74843 0.75667 0.0
C958 C 0.70911 0.8389 0.73371 0.0
C959 C 0.64826 0.73182 0.76872 0.0
C960 C 0.71797 0.95912 0.69201 0.0
C961 C 0.7152 0.93009 0.70243 0.0
C962 C 0.62997 0.82853 0.72108 0.0
C963 C 0.66443 0.79608 0.75386 0.0
C964 C 0.66602 0.81371 0.74014 0.0
C965 C 0.67922 0.88379 0.70278 0.0
C966 C 0.67357 0.85547 0.7149 0.0
H967 H 0.72657 0.83521 0.78268 0.0
H968 H 0.71209 0.86398 0.76179 0.0
H969 H 0.59266 0.78821 0.73846 0.0
H970 H 0.62483 0.88255 0.67357 0.0
H971 H 0.6199 0.83078 0.69198 0.0
C972 C 0.29977 0.09181 0.11313 0.0
C973 C 0.2962 0.04879 0.11532 0.0
C974 C 0.32745 0.12042 0.10267 0.0
C975 C 0.33293 0.10957 0.07022 0.0
H976 H 0.44697 0.22618 0.06546 0.0
C977 C 0.34504 0.21748 0.0253 0.0
C978 C 0.35706 0.26222 0.02935 0.0
C979 C 0.35788 0.1911 0.03325 0.0
C980 C 0.41503 0.19352 0.06657 0.0
H981 H 0.3209 0.00304 0.1092 0.0
H982 H 0.36758 0.05227 0.0903 0.0
H983 H 0.43229 0.18326 0.08671 0.0
H984 H 0.39741 0.31695 0.04354 0.0
H985 H 0.41925 0.27179 0.0573 0.0
H986 H 0.31264 0.12107 0.051 0.0
C987 C 0.35025 0.0644 0.09695 0.0
C988 C 0.40699 0.16891 0.07869 0.0
C989 C 0.32351 0.03631 0.10768 0.0
C990 C 0.38765 0.28243 0.0402 0.0
C991 C 0.40018 0.25619 0.04815 0.0
C992 C 0.34042 0.13439 0.05828 0.0
C993 C 0.35093 0.10578 0.0941 0.0
C994 C 0.36527 0.12743 0.08068 0.0
C995 C 0.3824 0.20903 0.04541 0.0
C996 C 0.3808 0.17767 0.05643 0.0
H997 H 0.27902 0.10203 0.11898 0.0
H998 H 0.3272 0.15202 0.10053 0.0
H999 H 0.30022 0.07783 0.07168 0.0
H1000 H 0.32141 0.20107 0.01698 0.0
H1001 H 0.34497 0.15538 0.03051 0.0
C1002 C 0.12577 0.33807 0.19175 0.0
C1003 C 0.10335 0.36332 0.19381 0.0
C1004 C 0.16342 0.34644 0.19988 0.0
C1005 C 0.23073 0.41464 0.23074 0.0
H1006 H 0.20084 0.29221 0.24242 0.0
C1007 C 0.20598 0.30362 0.28088 0.0
C1008 C 0.24683 0.30292 0.28328 0.0
C1009 C 0.20379 0.32974 0.27026 0.0
C1010 C 0.20996 0.32672 0.23918 0.0
H1011 H 0.10707 0.4218 0.20426 0.0
H1012 H 0.17076 0.43549 0.21852 0.0
H1013 H 0.17397 0.30168 0.22075 0.0
H1014 H 0.31874 0.33234 0.27765 0.0
H1015 H 0.31432 0.37687 0.25855 0.0
H1016 H 0.26381 0.43816 0.25008 0.0
C1017 C 0.16042 0.40938 0.21079 0.0
C1018 C 0.19513 0.33246 0.22661 0.0
C1019 C 0.12357 0.40155 0.20252 0.0
C1020 C 0.28696 0.33267 0.27594 0.0
C1021 C 0.28452 0.35822 0.26509 0.0
C1022 C 0.24528 0.40867 0.24349 0.0
C1023 C 0.17838 0.37947 0.21036 0.0
C1024 C 0.20393 0.37624 0.2223 0.0
C1025 C 0.24216 0.3547 0.26175 0.0
C1026 C 0.23373 0.36434 0.24787 0.0
H1027 H 0.11111 0.30856 0.18506 0.0
H1028 H 0.17779 0.32404 0.19879 0.0
H1029 H 0.23897 0.44906 0.22776 0.0
H1030 H 0.17475 0.28103 0.2865 0.0
H1031 H 0.17077 0.32649 0.2678 0.0
C1032 C 0.79269 0.13727 0.37024 0.0
C1033 C 0.75683 0.09271 0.36692 0.0
C1034 C 0.79331 0.15671 0.38278 0.0
C1035 C 0.75836 0.11704 0.41734 0.0
H1036 H 0.81593 0.24821 0.42447 0.0
C1037 C 0.87525 0.20726 0.46319 0.0
C1038 C 0.88318 0.25104 0.46701 0.0
C1039 C 0.84325 0.18217 0.45302 0.0
C1040 C 0.79891 0.21129 0.42282 0.0
H1041 H 0.69094 0.03569 0.37362 0.0
H1042 H 0.69239 0.06931 0.39564 0.0
H1043 H 0.7899 0.21956 0.40181 0.0
H1044 H 0.85961 0.29992 0.46452 0.0
H1045 H 0.80178 0.25502 0.44749 0.0
H1046 H 0.76876 0.10895 0.43829 0.0
C1047 C 0.72022 0.08909 0.38855 0.0
C1048 C 0.7844 0.19494 0.40972 0.0
C1049 C 0.71915 0.07003 0.37586 0.0
C1050 C 0.854 0.26613 0.46185 0.0
C1051 C 0.82154 0.24078 0.45185 0.0
C1052 C 0.77304 0.13343 0.43048 0.0
C1053 C 0.75838 0.13176 0.39239 0.0
C1054 C 0.76525 0.14782 0.4067 0.0
C1055 C 0.8181 0.20012 0.4466 0.0
C1056 C 0.79478 0.18102 0.43334 0.0
H1057 H 0.82225 0.15554 0.36359 0.0
H1058 H 0.82326 0.18962 0.38534 0.0
H1059 H 0.74407 0.08054 0.41538 0.0
H1060 H 0.89771 0.19505 0.46678 0.0
H1061 H 0.84177 0.15106 0.44933 0.0
C1062 C 0.70161 0.79548 0.54317 0.0
C1063 C 0.69862 0.7529 0.54065 0.0
C1064 C 0.67223 0.79854 0.55258 0.0
C1065 C 0.63635 0.75824 0.58486 0.0
H1066 H 0.57502 0.82999 0.58375 0.0
C1067 C 0.65509 0.87165 0.62976 0.0
C1068 C 0.67054 0.917 0.62544 0.0
C1069 C 0.63259 0.83482 0.62063 0.0
C1070 C 0.59194 0.80974 0.5843 0.0
H1071 H 0.66106 0.67965 0.5452 0.0
H1072 H 0.61114 0.68551 0.56235 0.0
H1073 H 0.58413 0.79602 0.56302 0.0
H1074 H 0.6703 0.95936 0.60897 0.0
H1075 H 0.63272 0.89674 0.59318 0.0
H1076 H 0.65 0.77668 0.60559 0.0
C1077 C 0.63522 0.7161 0.55673 0.0
C1078 C 0.59657 0.78987 0.57243 0.0
C1079 C 0.66373 0.71281 0.54697 0.0
C1080 C 0.65952 0.92463 0.61242 0.0
C1081 C 0.63712 0.88829 0.6034 0.0
C1082 C 0.63296 0.77919 0.59664 0.0
C1083 C 0.64037 0.75928 0.55991 0.0
C1084 C 0.621 0.76607 0.57252 0.0
C1085 C 0.62517 0.84306 0.60713 0.0
C1086 C 0.61351 0.80788 0.59631 0.0
H1087 H 0.72822 0.82676 0.53836 0.0
H1088 H 0.67721 0.8323 0.55497 0.0
H1089 H 0.65556 0.74016 0.58515 0.0
H1090 H 0.66273 0.86506 0.63986 0.0
H1091 H 0.62308 0.80035 0.62396 0.0
C1092 C 0.91752 0.61163 0.72207 0.0
C1093 C 0.91861 0.63121 0.70949 0.0
C1094 C 0.87812 0.59441 0.73025 0.0
C1095 C 0.79342 0.62764 0.73765 0.0
H1096 H 0.75583 0.53353 0.76538 0.0
C1097 C 0.71562 0.64524 0.7869 0.0
C1098 C 0.74726 0.65226 0.79721 0.0
C1099 C 0.71593 0.62349 0.77487 0.0
C1100 C 0.7653 0.55951 0.75758 0.0
H1101 H 0.87906 0.64584 0.69515 0.0
H1102 H 0.81031 0.61628 0.70947 0.0
H1103 H 0.79583 0.52959 0.74516 0.0
H1104 H 0.79937 0.63668 0.80381 0.0
H1105 H 0.79806 0.59634 0.78324 0.0
H1106 H 0.76572 0.65927 0.75044 0.0
C1107 C 0.83938 0.61341 0.71297 0.0
C1108 C 0.78829 0.55734 0.74604 0.0
C1109 C 0.87845 0.62966 0.70469 0.0
C1110 C 0.77437 0.63138 0.79608 0.0
C1111 C 0.77374 0.60849 0.78424 0.0
C1112 C 0.77029 0.6297 0.74916 0.0
C1113 C 0.83966 0.59766 0.7261 0.0
C1114 C 0.80461 0.5926 0.73627 0.0
C1115 C 0.74679 0.60702 0.77318 0.0
C1116 C 0.75802 0.59688 0.75955 0.0
H1117 H 0.94852 0.61364 0.7261 0.0
H1118 H 0.87969 0.58293 0.74035 0.0
H1119 H 0.80592 0.65568 0.7304 0.0
H1120 H 0.69444 0.66106 0.78745 0.0
H1121 H 0.69457 0.62259 0.76655 0.0
C1122 C 0.04467 0.68816 0.9416 0.0
C1123 C 0.05048 0.72401 0.95013 0.0
C1124 C 0.08111 0.69403 0.93322 0.0
C1125 C 0.1995 0.78944 0.92085 0.0
H1126 H 0.13968 0.74487 0.88632 0.0
C1127 C 0.28111 0.89679 0.87263 0.0
C1128 C 0.24911 0.90321 0.86519 0.0
C1129 C 0.26571 0.86071 0.88212 0.0
C1130 C 0.15715 0.75787 0.89586 0.0
H1131 H 0.10057 0.79009 0.95843 0.0
H1132 H 0.16289 0.80146 0.9438 0.0
H1133 H 0.09905 0.70646 0.90665 0.0
H1134 H 0.17655 0.87597 0.86126 0.0
H1135 H 0.1496 0.81341 0.87743 0.0
H1136 H 0.25565 0.84414 0.90989 0.0
C1137 C 0.13115 0.76849 0.94329 0.0
C1138 C 0.13399 0.73508 0.90769 0.0
C1139 C 0.09519 0.76185 0.95191 0.0
C1140 C 0.20192 0.87093 0.86657 0.0
C1141 C 0.18654 0.83503 0.87597 0.0
C1142 C 0.22225 0.81298 0.90899 0.0
C1143 C 0.12334 0.73659 0.93291 0.0
C1144 C 0.15358 0.75199 0.92049 0.0
C1145 C 0.21801 0.83053 0.88435 0.0
C1146 C 0.20021 0.79898 0.89638 0.0
H1147 H 0.01055 0.65841 0.94008 0.0
H1148 H 0.07427 0.6671 0.92602 0.0
H1149 H 0.21705 0.80267 0.93036 0.0
H1150 H 0.31769 0.92203 0.872 0.0
H1151 H 0.29107 0.85815 0.88824 0.0
C1152 C 0.11022 0.16769 0.00935 0.0
C1153 C 0.15289 0.19574 0.00292 0.0
C1154 C 0.08561 0.11978 0.00724 0.0
C1155 C 0.08747 0.02444 0.98747 0.0
H1156 H 0.03159 0.95339 0.02009 0.0
C1157 C 0.04536 0.83941 0.98998 0.0
C1158 C -0.00252 0.81187 0.98798 0.0
C1159 C 0.06391 0.88385 0.99538 0.0
C1160 C 0.04734 0.97297 0.01096 0.0
H1161 H 0.20152 0.1962 0.98848 0.0
H1162 H 0.15957 0.11349 0.9848 0.0
H1163 H 0.06036 0.0366 0.01982 0.0
H1164 H 0.93122 0.80495 0.99264 0.0
H1165 H 0.96342 0.88147 0.00278 0.0
H1166 H 0.07597 0.96089 0.97887 0.0
C1167 C 0.14395 0.12775 0.99131 0.0
C1168 C 0.06324 0.02061 0.01068 0.0
C1169 C 0.16796 0.17568 0.99325 0.0
C1170 C 0.96827 0.82534 0.99413 0.0
C1171 C 0.98675 0.86957 -0.00026 0.0
C1172 C 0.07263 0.97726 0.98788 0.0
C1173 C 0.10367 0.09871 -0.00116 0.0
C1174 C 0.08366 0.04721 -0.00109 0.0
C1175 C 0.03463 0.9005 -0.0007 0.0
C1176 C 0.05263 0.95108 -0.00038 0.0
H1177 H 0.09833 0.18208 0.0171 0.0
H1178 H 0.05398 0.09909 0.01289 0.0
H1179 H 0.10178 0.0429 0.97811 0.0
H1180 H 0.0687 0.82999 0.98528 0.0
H1181 H 0.10103 0.9069 0.9951 0.0
C1182 C 0.20746 0.04088 0.16399 0.0
C1183 C 0.18457 0.99266 0.16276 0.0
C1184 C 0.18193 0.06288 0.16616 0.0
C1185 C 0.0778 0.0516 0.18011 0.0
H1186 H 0.08607 0.13622 0.15206 0.0
C1187 C 0.9786 0.15039 0.18479 0.0
C1188 C 0.00235 0.19648 0.18035 0.0
C1189 C -0.00477 0.1207 0.18158 0.0
C1190 C 0.08377 0.11325 0.1601 0.0
H1191 H 0.11812 0.92929 0.16352 0.0
H1192 H 0.07381 0.9678 0.16793 0.0
H1193 H 0.1295 0.09617 0.1498 0.0
H1194 H 0.06135 0.24751 0.16885 0.0
H1195 H 0.09191 0.19737 0.16407 0.0
H1196 H 0.03423 0.07014 0.19084 0.0
C1197 C 0.11107 0.98847 0.16694 0.0
C1198 C 0.10853 0.09025 0.15874 0.0
C1199 C 0.13636 0.96662 0.16443 0.0
C1200 C 0.04237 0.21217 0.17247 0.0
C1201 C 0.05959 0.18303 0.16956 0.0
C1202 C 0.05386 0.07545 0.18165 0.0
C1203 C 0.13356 0.03677 0.16749 0.0
C1204 C 0.10629 0.05989 0.16883 0.0
C1205 C 0.0365 0.13694 0.17413 0.0
C1206 C 0.05727 0.10734 0.17179 0.0
H1207 H 0.24458 0.06154 0.16264 0.0
H1208 H 0.1998 0.10028 0.16663 0.0
H1209 H 0.07537 0.02788 0.18795 0.0
H1210 H 0.94714 0.13726 0.19068 0.0
H1211 H 0.97587 0.08519 0.18502 0.0
C1212 C 0.14963 0.19148 0.33083 0.0
C1213 C 0.17721 0.17336 0.32657 0.0
C1214 C 0.10148 0.1627 0.33154 0.0
C1215 C 0.00812 0.05429 0.31694 0.0
H1216 H 0.93345 0.0651 0.34497 0.0
C1217 C 0.80568 0.93903 0.32496 0.0
C1218 C 0.78528 0.96579 0.32791 0.0
C1219 C 0.85392 0.96049 0.32332 0.0
C1220 C 0.95397 0.06175 0.33706 0.0
H1221 H 0.17695 0.1108 0.32073 0.0
H1222 H 0.09373 0.06097 0.32221 0.0
H1223 H 0.01745 0.11129 0.34634 0.0
H1224 H 0.79996 0.03556 0.33161 0.0
H1225 H 0.88134 0.07252 0.32751 0.0
H1226 H 0.9441 0.00494 0.30762 0.0
C1227 C 0.10865 0.09731 0.32456 0.0
C1228 C 0.00197 0.08835 0.33783 0.0
C1229 C 0.15634 0.12587 0.32379 0.0
C1230 C 0.81344 0.01403 0.32836 0.0
C1231 C 0.86074 0.03529 0.32648 0.0
C1232 C 0.95991 0.02755 0.31618 0.0
C1233 C 0.08054 0.11552 0.32809 0.0
C1234 C 0.02957 0.08553 0.32766 0.0
C1235 C 0.88177 0.00874 0.32472 0.0
C1236 C 0.93252 0.03193 0.32609 0.0
H1237 H 0.16498 0.22794 0.33305 0.0
H1238 H 0.08056 0.17771 0.33428 0.0
H1239 H 0.02856 0.05159 0.30889 0.0
H1240 H 0.78507 0.90164 0.32514 0.0
H1241 H 0.8696 0.9393 0.32202 0.0
C1242 C 0.94287 0.16278 0.48724 0.0
C1243 C 0.97903 0.18734 0.478 0.0
C1244 C 0.92714 0.11646 0.49004 0.0
C1245 C 0.9259 0.01326 0.47619 0.0
H1246 H 0.8712 0.96272 0.51116 0.0
C1247 C 0.84911 0.82123 0.49287 0.0
C1248 C 0.80273 0.80006 0.49705 0.0
C1249 C 0.87463 0.86882 0.49057 0.0
C1250 C 0.88637 0.97648 0.50136 0.0
H1251 H 0.02811 0.18309 0.4647 0.0
H1252 H 0.00147 0.10188 0.46988 0.0
H1253 H 0.9128 0.0462 0.50769 0.0
H1254 H 0.74668 0.81164 0.5024 0.0
H1255 H 0.79188 0.89558 0.49866 0.0
H1256 H 0.90021 0.94302 0.47009 0.0
C1257 C 0.98439 0.11823 0.47471 0.0
C1258 C 0.91002 0.02425 0.49932 0.0
C1259 C -0.00027 0.16473 0.47173 0.0
C1260 C 0.78214 0.82715 0.49894 0.0
C1261 C 0.80805 0.87502 0.49694 0.0
C1262 C 0.90305 0.96547 0.47834 0.0
C1263 C 0.94764 0.09342 0.48386 0.0
C1264 C 0.92875 0.04324 0.48656 0.0
C1265 C 0.8545 0.89615 0.49276 0.0
C1266 C 0.88198 0.94673 0.49082 0.0
H1267 H 0.92588 0.17907 0.49217 0.0
H1268 H 0.89802 0.09853 0.49684 0.0
H1269 H 0.93952 0.02637 0.46622 0.0
H1270 H 0.8657 0.8009 0.49146 0.0
H1271 H 0.91042 0.88445 0.4874 0.0
C1272 C 0.93706 0.79436 0.66367 0.0
C1273 C 0.98127 0.81518 0.66941 0.0
C1274 C 0.91487 0.8201 0.66198 0.0
C1275 C 0.91628 0.9194 0.67834 0.0
H1276 H 0.83887 0.91458 0.6487 0.0
C1277 C 0.86544 0.05568 0.66518 0.0
C1278 C 0.82181 0.03994 0.65936 0.0
C1279 C 0.87847 0.02416 0.66954 0.0
C1280 C 0.85967 0.91552 0.65718 0.0
H1281 H 0.03877 0.87926 0.67669 0.0
H1282 H 0.00104 0.92431 0.67335 0.0
H1283 H 0.87724 0.86902 0.64762 0.0
H1284 H 0.75659 0.97926 0.65502 0.0
H1285 H 0.77856 0.92421 0.66253 0.0
H1286 H 0.89998 0.96722 0.68767 0.0
C1287 C 0.9828 0.88822 0.67046 0.0
C1288 C 0.88178 0.88961 0.65651 0.0
C1289 C 0.00476 0.8627 0.67212 0.0
C1290 C 0.78978 0.99245 0.65953 0.0
C1291 C 0.80281 0.96084 0.66368 0.0
C1292 C 0.89443 0.94552 0.67896 0.0
C1293 C 0.93674 0.86666 0.6661 0.0
C1294 C 0.91104 0.89198 0.66696 0.0
C1295 C 0.84821 0.97644 0.66793 0.0
C1296 C 0.86639 0.94429 0.66831 0.0
H1297 H 0.9181 0.75753 0.66172 0.0
H1298 H 0.87946 0.80267 0.65846 0.0
H1299 H 0.93769 0.92102 0.68673 0.0
H1300 H 0.89105 0.09221 0.6651 0.0
H1301 H 0.9137 0.0372 0.67286 0.0
C1302 C 0.16289 0.06131 0.83184 0.0
C1303 C 0.18651 0.03741 0.82926 0.0
C1304 C 0.11525 0.04032 0.82953 0.0
C1305 C 0.01093 0.93178 0.81668 0.0
H1306 H 0.95014 0.95602 0.8463 0.0
C1307 C 0.82003 0.80704 0.83056 0.0
C1308 C 0.79159 0.82652 0.8292 0.0
C1309 C 0.86817 0.83509 0.83114 0.0
C1310 C 0.96662 0.94908 0.83794 0.0
H1311 H 0.17969 0.97467 0.82097 0.0
H1312 H 0.09691 0.93777 0.81698 0.0
H1313 H 0.03399 0.00213 0.84391 0.0
H1314 H 0.79136 0.89087 0.82834 0.0
H1315 H 0.87575 0.94028 0.83037 0.0
H1316 H 0.94321 0.87706 0.81121 0.0
C1317 C 0.11474 0.97293 0.82068 0.0
C1318 C 0.0148 0.97585 0.83643 0.0
C1319 C 0.16264 0.99438 0.82278 0.0
C1320 C 0.81218 0.87484 0.82977 0.0
C1321 C 0.86053 0.90308 0.83071 0.0
C1322 C 0.96285 0.9045 0.81835 0.0
C1323 C 0.08983 0.99446 0.82483 0.0
C1324 C 0.03788 0.9677 0.82577 0.0
C1325 C 0.88907 0.88342 0.8307 0.0
C1326 C 0.94018 0.91275 0.82903 0.0
H1327 H 0.18026 0.09427 0.837 0.0
H1328 H 0.09791 0.05896 0.83236 0.0
H1329 H 0.02689 0.92458 0.80825 0.0
H1330 H 0.80539 0.77002 0.82978 0.0
H1331 H 0.88922 0.81895 0.83125 0.0
loop_
_geom_bond_atom_site_label_1
_geom_bond_atom_site_label_2
_geom_bond_distance
_geom_bond_site_symmetry_2
_ccdc_geom_bond_type
Zn0 O6 1.920 . S
Zn0 O12 1.872 1_556 S
Zn0 O15 1.905 . S
Zn1 O9 1.905 . S
Zn1 O10 1.898 . S
Zn1 O18 1.920 . S
Zn2 O5 2.080 . S
Zn2 O8 2.114 . S
Zn2 O11 2.120 . S
Zn2 O13 2.120 . S
Zn2 O14 2.114 1_554 S
Zn2 O17 2.080 . S
C3 O8 1.166 . S
C3 O9 1.182 . S
C4 O10 1.167 . S
C4 O11 1.299 . S
O5 Zn2 2.080 . S
O5 C19 1.307 . S
O6 Zn0 1.920 . S
O6 C19 1.229 1_556 S
C7 O12 1.208 . S
C7 O13 1.299 . S
O8 Zn2 2.114 . S
O8 C3 1.166 . S
O9 Zn1 1.905 . S
O9 C3 1.182 . S
O10 Zn1 1.898 . S
O10 C4 1.167 . S
O11 Zn2 2.120 . S
O11 C4 1.299 . S
O12 Zn0 1.872 1_554 S
O12 C7 1.208 . S
O13 Zn2 2.120 . S
O13 C7 1.299 . S
O14 Zn2 2.114 1_556 S
O14 C16 1.166 . S
O15 Zn0 1.905 . S
O15 C16 1.182 . S
C16 O14 1.166 . S
C16 O15 1.182 . S
O17 Zn2 2.080 . S
O17 C20 1.305 . S
O18 Zn1 1.920 . S
O18 C20 1.234 . S
C19 O5 1.307 . S
C19 O6 1.229 1_554 S
C20 O17 1.305 . S
C20 O18 1.234 . S
Zn21 O27 1.915 1_455 S
Zn21 O33 1.901 . S
Zn21 O36 1.907 . S
Zn22 O30 1.905 . S
Zn22 O31 1.898 . S
Zn22 O39 1.920 . S
Zn23 O26 2.080 . S
Zn23 O29 2.114 1_655 S
Zn23 O32 2.120 . S
Zn23 O34 2.120 . S
Zn23 O35 2.114 1_655 S
Zn23 O38 2.080 . S
C24 O29 1.166 . S
C24 O30 1.182 1_455 S
C25 O31 1.167 . S
C25 O32 1.299 . S
O26 Zn23 2.080 . S
O26 C40 1.305 . S
O27 Zn21 1.915 1_655 S
O27 C40 1.234 . S
C28 O33 1.167 1_655 S
C28 O34 1.299 . S
O29 Zn23 2.114 1_455 S
O29 C24 1.166 . S
O30 Zn22 1.905 . S
O30 C24 1.182 1_655 S
O31 Zn22 1.898 . S
O31 C25 1.167 . S
O32 Zn23 2.120 . S
O32 C25 1.299 . S
O33 Zn21 1.901 . S
O33 C28 1.167 1_455 S
O34 Zn23 2.120 . S
O34 C28 1.299 . S
O35 Zn23 2.114 1_455 S
O35 C37 1.166 . S
O36 Zn21 1.907 . S
O36 C37 1.182 . S
C37 O35 1.166 . S
C37 O36 1.182 . S
O38 Zn23 2.080 . S
O38 C41 1.305 . S
O39 Zn22 1.920 . S
O39 C41 1.234 . S
C40 O26 1.305 . S
C40 O27 1.234 . S
C41 O38 1.305 . S
C41 O39 1.234 . S
Zn42 O48 1.920 . S
Zn42 O54 1.898 . S
Zn42 O57 1.905 . S
Zn43 O51 1.915 . S
Zn43 O52 1.897 . S
Zn43 O60 1.912 1_545 S
Zn44 O47 2.080 . S
Zn44 O50 2.114 1_565 S
Zn44 O53 2.120 . S
Zn44 O55 2.120 . S
Zn44 O56 2.114 1_565 S
Zn44 O59 2.080 . S
C45 O50 1.166 . S
C45 O51 1.182 . S
C46 O52 1.167 1_565 S
C46 O53 1.299 . S
O47 Zn44 2.080 . S
O47 C61 1.305 . S
O48 Zn42 1.920 . S
O48 C61 1.234 . S
C49 O54 1.167 . S
C49 O55 1.299 . S
O50 Zn44 2.114 1_545 S
O50 C45 1.166 . S
O51 Zn43 1.915 . S
O51 C45 1.182 . S
O52 Zn43 1.897 . S
O52 C46 1.167 1_545 S
O53 Zn44 2.120 . S
O53 C46 1.299 . S
O54 Zn42 1.898 . S
O54 C49 1.167 . S
O55 Zn44 2.120 . S
O55 C49 1.299 . S
O56 Zn44 2.114 1_545 S
O56 C58 1.166 . S
O57 Zn42 1.905 . S
O57 C58 1.182 1_565 S
C58 O56 1.166 . S
C58 O57 1.182 1_545 S
O59 Zn44 2.080 . S
O59 C62 1.305 . S
O60 Zn43 1.912 1_565 S
O60 C62 1.234 . S
C61 O47 1.305 . S
C61 O48 1.234 . S
C62 O59 1.305 . S
C62 O60 1.234 . S
Zn63 O69 1.920 . S
Zn63 O75 1.898 . S
Zn63 O78 1.905 . S
Zn64 O72 1.905 . S
Zn64 O73 1.898 . S
Zn64 O81 1.920 . S
Zn65 O68 2.080 . S
Zn65 O71 2.114 . S
Zn65 O74 2.120 . S
Zn65 O76 2.120 . S
Zn65 O77 2.114 . S
Zn65 O80 2.080 . S
C66 O71 1.166 . S
C66 O72 1.182 . S
C67 O73 1.167 . S
C67 O74 1.299 . S
O68 Zn65 2.080 . S
O68 C82 1.305 . S
O69 Zn63 1.920 . S
O69 C82 1.234 . S
C70 O75 1.167 . S
C70 O76 1.299 . S
O71 Zn65 2.114 . S
O71 C66 1.166 . S
O72 Zn64 1.905 . S
O72 C66 1.182 . S
O73 Zn64 1.898 . S
O73 C67 1.167 . S
O74 Zn65 2.120 . S
O74 C67 1.299 . S
O75 Zn63 1.898 . S
O75 C70 1.167 . S
O76 Zn65 2.120 . S
O76 C70 1.299 . S
O77 Zn65 2.114 . S
O77 C79 1.166 . S
O78 Zn63 1.905 . S
O78 C79 1.182 . S
C79 O77 1.166 . S
C79 O78 1.182 . S
O80 Zn65 2.080 . S
O80 C83 1.305 . S
O81 Zn64 1.920 . S
O81 C83 1.234 . S
C82 O68 1.305 . S
C82 O69 1.234 . S
C83 O80 1.305 . S
C83 O81 1.234 . S
Zn84 O90 1.920 . S
Zn84 O96 1.898 . S
Zn84 O99 1.905 . S
Zn85 O93 1.905 1_455 S
Zn85 O94 1.898 1_455 S
Zn85 O102 1.920 . S
Zn86 O89 2.080 . S
Zn86 O92 2.114 1_455 S
Zn86 O95 2.120 . S
Zn86 O97 2.120 . S
Zn86 O98 2.114 1_455 S
Zn86 O101 2.080 . S
C87 O92 1.166 . S
C87 O93 1.182 . S
C88 O94 1.167 1_455 S
C88 O95 1.299 . S
O89 Zn86 2.080 . S
O89 C103 1.305 . S
O90 Zn84 1.920 . S
O90 C103 1.234 . S
C91 O96 1.167 . S
C91 O97 1.299 . S
O92 Zn86 2.114 1_655 S
O92 C87 1.166 . S
O93 Zn85 1.905 1_655 S
O93 C87 1.182 . S
O94 Zn85 1.898 1_655 S
O94 C88 1.167 1_655 S
O95 Zn86 2.120 . S
O95 C88 1.299 . S
O96 Zn84 1.898 . S
O96 C91 1.167 . S
O97 Zn86 2.120 . S
O97 C91 1.299 . S
O98 Zn86 2.114 1_655 S
O98 C100 1.166 . S
O99 Zn84 1.905 . S
O99 C100 1.182 1_455 S
C100 O98 1.166 . S
C100 O99 1.182 1_655 S
O101 Zn86 2.080 . S
O101 C104 1.305 . S
O102 Zn85 1.920 . S
O102 C104 1.234 . S
C103 O89 1.305 . S
C103 O90 1.234 . S
C104 O101 1.305 . S
C104 O102 1.234 . S
Zn105 O111 1.920 . S
Zn105 O117 1.898 1_545 S
Zn105 O120 1.905 1_545 S
Zn106 O114 1.905 . S
Zn106 O115 1.898 . S
Zn106 O123 1.920 . S
Zn107 O110 2.080 . S
Zn107 O113 2.114 1_545 S
Zn107 O116 2.120 . S
Zn107 O118 2.120 . S
Zn107 O119 2.114 1_545 S
Zn107 O122 2.080 . S
C108 O113 1.166 . S
C108 O114 1.182 1_565 S
C109 O115 1.167 . S
C109 O116 1.299 . S
O110 Zn107 2.080 . S
O110 C124 1.305 . S
O111 Zn105 1.920 . S
O111 C124 1.234 . S
C112 O117 1.167 1_545 S
C112 O118 1.299 . S
O113 Zn107 2.114 1_565 S
O113 C108 1.166 . S
O114 Zn106 1.905 . S
O114 C108 1.182 1_545 S
O115 Zn106 1.898 . S
O115 C109 1.167 . S
O116 Zn107 2.120 . S
O116 C109 1.299 . S
O117 Zn105 1.898 1_565 S
O117 C112 1.167 1_565 S
O118 Zn107 2.120 . S
O118 C112 1.299 . S
O119 Zn107 2.114 1_565 S
O119 C121 1.166 . S
O120 Zn105 1.905 1_565 S
O120 C121 1.182 . S
C121 O119 1.166 . S
C121 O120 1.182 . S
O122 Zn107 2.080 . S
O122 C125 1.305 . S
O123 Zn106 1.920 . S
O123 C125 1.234 . S
C124 O110 1.305 . S
C124 O111 1.234 . S
C125 O122 1.305 . S
C125 O123 1.234 . S
Zn126 O132 1.920 . S
Zn126 O138 1.898 . S
Zn126 O141 1.905 . S
Zn127 O135 1.905 . S
Zn127 O136 1.898 . S
Zn127 O144 1.920 . S
Zn128 O131 2.080 . S
Zn128 O134 2.114 . S
Zn128 O137 2.120 . S
Zn128 O139 2.120 . S
Zn128 O140 2.114 . S
Zn128 O143 2.080 . S
C129 O134 1.166 . S
C129 O135 1.182 . S
C130 O136 1.167 . S
C130 O137 1.299 . S
O131 Zn128 2.080 . S
O131 C145 1.305 . S
O132 Zn126 1.920 . S
O132 C145 1.234 . S
C133 O138 1.167 . S
C133 O139 1.299 . S
O134 Zn128 2.114 . S
O134 C129 1.166 . S
O135 Zn127 1.905 . S
O135 C129 1.182 . S
O136 Zn127 1.898 . S
O136 C130 1.167 . S
O137 Zn128 2.120 . S
O137 C130 1.299 . S
O138 Zn126 1.898 . S
O138 C133 1.167 . S
O139 Zn128 2.120 . S
O139 C133 1.299 . S
O140 Zn128 2.114 . S
O140 C142 1.166 . S
O141 Zn126 1.905 . S
O141 C142 1.182 . S
C142 O140 1.166 . S
C142 O141 1.182 . S
O143 Zn128 2.080 . S
O143 C146 1.305 . S
O144 Zn127 1.920 . S
O144 C146 1.234 . S
C145 O131 1.305 . S
C145 O132 1.234 . S
C146 O143 1.305 . S
C146 O144 1.234 . S
Zn147 O153 1.920 . S
Zn147 O159 1.869 1_554 S
Zn147 O162 1.905 . S
Zn148 O156 1.911 . S
Zn148 O157 1.897 . S
Zn148 O165 1.915 1_455 S
Zn149 O152 2.080 . S
Zn149 O155 2.114 1_655 S
Zn149 O158 2.120 . S
Zn149 O160 2.120 . S
Zn149 O161 2.114 1_656 S
Zn149 O164 2.080 . S
C150 O155 1.166 . S
C150 O156 1.182 . S
C151 O157 1.167 1_655 S
C151 O158 1.299 . S
O152 Zn149 2.080 . S
O152 C166 1.309 . S
O153 Zn147 1.920 . S
O153 C166 1.226 1_554 S
C154 O159 1.213 . S
C154 O160 1.299 . S
O155 Zn149 2.114 1_455 S
O155 C150 1.166 . S
O156 Zn148 1.911 . S
O156 C150 1.182 . S
O157 Zn148 1.897 . S
O157 C151 1.167 1_455 S
O158 Zn149 2.120 . S
O158 C151 1.299 . S
O159 Zn147 1.869 1_556 S
O159 C154 1.213 . S
O160 Zn149 2.120 . S
O160 C154 1.299 . S
O161 Zn149 2.114 1_454 S
O161 C163 1.166 . S
O162 Zn147 1.905 . S
O162 C163 1.182 1_655 S
C163 O161 1.166 . S
C163 O162 1.182 1_455 S
O164 Zn149 2.080 . S
O164 C167 1.305 . S
O165 Zn148 1.915 1_655 S
O165 C167 1.234 . S
C166 O152 1.309 . S
C166 O153 1.226 1_556 S
C167 O164 1.305 . S
C167 O165 1.234 . S
Zn168 O174 1.911 1_545 S
Zn168 O180 1.902 . S
Zn168 O183 1.908 . S
Zn169 O177 1.905 . S
Zn169 O178 1.898 . S
Zn169 O186 1.920 . S
Zn170 O173 2.080 . S
Zn170 O176 2.114 1_565 S
Zn170 O179 2.120 . S
Zn170 O181 2.120 . S
Zn170 O182 2.114 1_565 S
Zn170 O185 2.080 . S
C171 O176 1.166 . S
C171 O177 1.182 1_545 S
C172 O178 1.167 . S
C172 O179 1.299 . S
O173 Zn170 2.080 . S
O173 C187 1.305 . S
O174 Zn168 1.911 1_565 S
O174 C187 1.234 . S
C175 O180 1.167 1_565 S
C175 O181 1.299 . S
O176 Zn170 2.114 1_545 S
O176 C171 1.166 . S
O177 Zn169 1.905 . S
O177 C171 1.182 1_565 S
O178 Zn169 1.898 . S
O178 C172 1.167 . S
O179 Zn170 2.120 . S
O179 C172 1.299 . S
O180 Zn168 1.902 . S
O180 C175 1.167 1_545 S
O181 Zn170 2.120 . S
O181 C175 1.299 . S
O182 Zn170 2.114 1_545 S
O182 C184 1.166 . S
O183 Zn168 1.908 . S
O183 C184 1.182 . S
C184 O182 1.166 . S
C184 O183 1.182 . S
O185 Zn170 2.080 . S
O185 C188 1.305 . S
O186 Zn169 1.920 . S
O186 C188 1.234 . S
C187 O173 1.305 . S
C187 O174 1.234 . S
C188 O185 1.305 . S
C188 O186 1.234 . S
Zn189 O195 1.920 . S
Zn189 O201 1.898 . S
Zn189 O204 1.905 . S
Zn190 O198 1.905 . S
Zn190 O199 1.898 . S
Zn190 O207 1.920 . S
Zn191 O194 2.080 . S
Zn191 O197 2.114 . S
Zn191 O200 2.120 . S
Zn191 O202 2.120 . S
Zn191 O203 2.114 . S
Zn191 O206 2.080 . S
C192 O197 1.166 . S
C192 O198 1.182 . S
C193 O199 1.167 . S
C193 O200 1.299 . S
O194 Zn191 2.080 . S
O194 C208 1.305 . S
O195 Zn189 1.920 . S
O195 C208 1.234 . S
C196 O201 1.167 . S
C196 O202 1.299 . S
O197 Zn191 2.114 . S
O197 C192 1.166 . S
O198 Zn190 1.905 . S
O198 C192 1.182 . S
O199 Zn190 1.898 . S
O199 C193 1.167 . S
O200 Zn191 2.120 . S
O200 C193 1.299 . S
O201 Zn189 1.898 . S
O201 C196 1.167 . S
O202 Zn191 2.120 . S
O202 C196 1.299 . S
O203 Zn191 2.114 . S
O203 C205 1.166 . S
O204 Zn189 1.905 . S
O204 C205 1.182 . S
C205 O203 1.166 . S
C205 O204 1.182 . S
O206 Zn191 2.080 . S
O206 C209 1.305 . S
O207 Zn190 1.920 . S
O207 C209 1.234 . S
C208 O194 1.305 . S
C208 O195 1.234 . S
C209 O206 1.305 . S
C209 O207 1.234 . S
Zn210 O216 1.920 . S
Zn210 O222 1.898 1_455 S
Zn210 O225 1.905 1_455 S
Zn211 O219 1.905 . S
Zn211 O220 1.898 . S
Zn211 O228 1.920 . S
Zn212 O215 2.080 . S
Zn212 O218 2.114 1_455 S
Zn212 O221 2.120 . S
Zn212 O223 2.120 . S
Zn212 O224 2.114 1_455 S
Zn212 O227 2.080 . S
C213 O218 1.166 . S
C213 O219 1.182 1_655 S
C214 O220 1.167 . S
C214 O221 1.299 . S
O215 Zn212 2.080 . S
O215 C229 1.305 . S
O216 Zn210 1.920 . S
O216 C229 1.234 . S
C217 O222 1.167 1_455 S
C217 O223 1.299 . S
O218 Zn212 2.114 1_655 S
O218 C213 1.166 . S
O219 Zn211 1.905 . S
O219 C213 1.182 1_455 S
O220 Zn211 1.898 . S
O220 C214 1.167 . S
O221 Zn212 2.120 . S
O221 C214 1.299 . S
O222 Zn210 1.898 1_655 S
O222 C217 1.167 1_655 S
O223 Zn212 2.120 . S
O223 C217 1.299 . S
O224 Zn212 2.114 1_655 S
O224 C226 1.166 . S
O225 Zn210 1.905 1_655 S
O225 C226 1.182 . S
C226 O224 1.166 . S
C226 O225 1.182 . S
O227 Zn212 2.080 . S
O227 C230 1.305 . S
O228 Zn211 1.920 . S
O228 C230 1.234 . S
C229 O215 1.305 . S
C229 O216 1.234 . S
C230 O227 1.305 . S
C230 O228 1.234 . S
Zn231 O237 1.920 . S
Zn231 O243 1.898 . S
Zn231 O246 1.905 . S
Zn232 O240 1.905 1_545 S
Zn232 O241 1.898 1_545 S
Zn232 O249 1.920 . S
Zn233 O236 2.080 . S
Zn233 O239 2.114 1_545 S
Zn233 O242 2.120 . S
Zn233 O244 2.120 . S
Zn233 O245 2.114 1_545 S
Zn233 O248 2.080 . S
C234 O239 1.166 . S
C234 O240 1.182 . S
C235 O241 1.167 1_545 S
C235 O242 1.299 . S
O236 Zn233 2.080 . S
O236 C250 1.305 . S
O237 Zn231 1.920 . S
O237 C250 1.234 . S
C238 O243 1.167 . S
C238 O244 1.299 . S
O239 Zn233 2.114 1_565 S
O239 C234 1.166 . S
O240 Zn232 1.905 1_565 S
O240 C234 1.182 . S
O241 Zn232 1.898 1_565 S
O241 C235 1.167 1_565 S
O242 Zn233 2.120 . S
O242 C235 1.299 . S
O243 Zn231 1.898 . S
O243 C238 1.167 . S
O244 Zn233 2.120 . S
O244 C238 1.299 . S
O245 Zn233 2.114 1_565 S
O245 C247 1.166 . S
O246 Zn231 1.905 . S
O246 C247 1.182 1_545 S
C247 O245 1.166 . S
C247 O246 1.182 1_565 S
O248 Zn233 2.080 . S
O248 C251 1.305 . S
O249 Zn232 1.920 . S
O249 C251 1.234 . S
C250 O236 1.305 . S
C250 O237 1.234 . S
C251 O248 1.305 . S
C251 O249 1.234 . S
C252 C253 1.365 . S
C252 C254 1.327 . S
C252 H277 0.950 . S
C253 C252 1.365 . S
C253 C269 1.326 1_556 S
C254 C252 1.327 . S
C254 C273 1.429 1_556 S
C254 H278 0.950 . S
C255 C272 1.574 . S
C255 C274 1.368 . S
C255 H279 0.949 . S
H256 C260 0.949 . S
C257 C258 1.349 . S
C257 C259 1.327 . S
C257 H280 0.950 . S
C258 C257 1.349 . S
C258 C270 1.349 . S
C259 C257 1.327 . S
C259 C275 1.429 . S
C259 H281 0.950 . S
C260 H256 0.949 . S
C260 C268 1.574 . S
C260 C276 1.368 . S
H261 C269 0.950 . S
H262 C267 0.950 . S
H263 C268 0.949 1_556 S
H264 C270 0.950 . S
H265 C271 0.950 . S
H266 C272 0.949 . S
C267 H262 0.950 . S
C267 C269 1.327 . S
C267 C273 1.429 . S
C268 C260 1.574 . S
C268 H263 0.949 1_554 S
C268 C274 1.368 . S
C269 C253 1.326 1_554 S
C269 H261 0.950 . S
C269 C267 1.327 . S
C270 C258 1.349 . S
C270 H264 0.950 . S
C270 C271 1.327 . S
C271 H265 0.950 . S
C271 C270 1.327 . S
C271 C275 1.429 . S
C272 C255 1.574 . S
C272 H266 0.949 . S
C272 C276 1.368 . S
C273 C254 1.429 1_554 S
C273 C267 1.429 . S
C273 C274 1.523 . S
C274 C255 1.368 . S
C274 C268 1.368 . S
C274 C273 1.523 . S
C275 C259 1.429 . S
C275 C271 1.429 . S
C275 C276 1.523 . S
C276 C260 1.368 . S
C276 C272 1.368 . S
C276 C275 1.523 . S
H277 C252 0.950 . S
H278 C254 0.950 . S
H279 C255 0.949 . S
H280 C257 0.950 . S
H281 C259 0.950 . S
C282 C283 1.349 . S
C282 C284 1.327 . S
C282 H307 0.950 . S
C283 C282 1.349 . S
C283 C299 1.349 . S
C284 C282 1.327 . S
C284 C303 1.429 . S
C284 H308 0.950 . S
C285 C302 1.574 . S
C285 C304 1.368 . S
C285 H309 0.949 . S
H286 C290 0.949 . S
C287 C288 1.349 . S
C287 C289 1.327 . S
C287 H310 0.950 . S
C288 C287 1.349 . S
C288 C300 1.349 . S
C289 C287 1.327 . S
C289 C305 1.429 . S
C289 H311 0.950 . S
C290 H286 0.949 . S
C290 C298 1.574 . S
C290 C306 1.368 . S
H291 C299 0.950 . S
H292 C297 0.950 . S
H293 C298 0.949 . S
H294 C300 0.950 1_655 S
H295 C301 0.950 . S
H296 C302 0.949 . S
C297 H292 0.950 . S
C297 C299 1.327 . S
C297 C303 1.429 . S
C298 C290 1.574 . S
C298 H293 0.949 . S
C298 C304 1.368 . S
C299 C283 1.349 . S
C299 H291 0.950 . S
C299 C297 1.327 . S
C300 C288 1.349 . S
C300 H294 0.950 1_455 S
C300 C301 1.327 . S
C301 H295 0.950 . S
C301 C300 1.327 . S
C301 C305 1.429 . S
C302 C285 1.574 . S
C302 H296 0.949 . S
C302 C306 1.368 . S
C303 C284 1.429 . S
C303 C297 1.429 . S
C303 C304 1.523 . S
C304 C285 1.368 . S
C304 C298 1.368 . S
C304 C303 1.523 . S
C305 C289 1.429 . S
C305 C301 1.429 . S
C305 C306 1.523 . S
C306 C290 1.368 . S
C306 C302 1.368 . S
C306 C305 1.523 . S
H307 C282 0.950 . S
H308 C284 0.950 . S
H309 C285 0.949 . S
H310 C287 0.950 . S
H311 C289 0.950 . S
C312 C313 1.349 . S
C312 C314 1.327 . S
C312 H337 0.950 . S
C313 C312 1.349 . S
C313 C329 1.349 . S
C314 C312 1.327 . S
C314 C333 1.429 . S
C314 H338 0.950 . S
C315 C332 1.574 . S
C315 C334 1.368 . S
C315 H339 0.949 . S
H316 C320 0.949 . S
C317 C318 1.349 . S
C317 C319 1.327 . S
C317 H340 0.950 . S
C318 C317 1.349 . S
C318 C330 1.349 . S
C319 C317 1.327 . S
C319 C335 1.429 . S
C319 H341 0.950 . S
C320 H316 0.949 . S
C320 C328 1.574 . S
C320 C336 1.368 . S
H321 C329 0.950 . S
H322 C327 0.950 . S
H323 C328 0.949 . S
H324 C330 0.950 . S
H325 C331 0.950 . S
H326 C332 0.949 . S
C327 H322 0.950 . S
C327 C329 1.327 . S
C327 C333 1.429 . S
C328 C320 1.574 . S
C328 H323 0.949 . S
C328 C334 1.368 . S
C329 C313 1.349 . S
C329 H321 0.950 . S
C329 C327 1.327 . S
C330 C318 1.349 . S
C330 H324 0.950 . S
C330 C331 1.327 . S
C331 H325 0.950 . S
C331 C330 1.327 . S
C331 C335 1.429 . S
C332 C315 1.574 . S
C332 H326 0.949 . S
C332 C336 1.368 . S
C333 C314 1.429 . S
C333 C327 1.429 . S
C333 C334 1.523 . S
C334 C315 1.368 . S
C334 C328 1.368 . S
C334 C333 1.523 . S
C335 C319 1.429 . S
C335 C331 1.429 . S
C335 C336 1.523 . S
C336 C320 1.368 . S
C336 C332 1.368 . S
C336 C335 1.523 . S
H337 C312 0.950 . S
H338 C314 0.950 . S
H339 C315 0.949 . S
H340 C317 0.950 . S
H341 C319 0.950 . S
C342 C343 1.349 . S
C342 C344 1.327 . S
C342 H367 0.950 . S
C343 C342 1.349 . S
C343 C359 1.349 . S
C344 C342 1.327 . S
C344 C363 1.429 . S
C344 H368 0.950 . S
C345 C362 1.574 . S
C345 C364 1.368 . S
C345 H369 0.949 . S
H346 C350 0.949 . S
C347 C348 1.349 . S
C347 C349 1.327 . S
C347 H370 0.950 . S
C348 C347 1.349 . S
C348 C360 1.349 . S
C349 C347 1.327 . S
C349 C365 1.429 . S
C349 H371 0.950 . S
C350 H346 0.949 . S
C350 C358 1.574 . S
C350 C366 1.368 . S
H351 C359 0.950 . S
H352 C357 0.950 . S
H353 C358 0.949 . S
H354 C360 0.950 . S
H355 C361 0.950 . S
H356 C362 0.949 . S
C357 H352 0.950 . S
C357 C359 1.327 . S
C357 C363 1.429 . S
C358 C350 1.574 . S
C358 H353 0.949 . S
C358 C364 1.368 . S
C359 C343 1.349 . S
C359 H351 0.950 . S
C359 C357 1.327 . S
C360 C348 1.349 . S
C360 H354 0.950 . S
C360 C361 1.327 . S
C361 H355 0.950 . S
C361 C360 1.327 . S
C361 C365 1.429 . S
C362 C345 1.574 . S
C362 H356 0.949 . S
C362 C366 1.368 . S
C363 C344 1.429 . S
C363 C357 1.429 . S
C363 C364 1.523 . S
C364 C345 1.368 . S
C364 C358 1.368 . S
C364 C363 1.523 . S
C365 C349 1.429 . S
C365 C361 1.429 . S
C365 C366 1.523 . S
C366 C350 1.368 . S
C366 C362 1.368 . S
C366 C365 1.523 . S
H367 C342 0.950 . S
H368 C344 0.950 . S
H369 C345 0.949 . S
H370 C347 0.950 . S
H371 C349 0.950 . S
C372 C373 1.349 . S
C372 C374 1.327 . S
C372 H397 0.950 . S
C373 C372 1.349 . S
C373 C389 1.349 . S
C374 C372 1.327 . S
C374 C393 1.429 . S
C374 H398 0.950 . S
C375 C392 1.574 . S
C375 C394 1.368 . S
C375 H399 0.949 . S
H376 C380 0.949 . S
C377 C378 1.349 . S
C377 C379 1.327 . S
C377 H400 0.950 1_655 S
C378 C377 1.349 . S
C378 C390 1.349 . S
C379 C377 1.327 . S
C379 C395 1.429 . S
C379 H401 0.950 . S
C380 H376 0.949 . S
C380 C388 1.574 . S
C380 C396 1.368 . S
H381 C389 0.950 . S
H382 C387 0.950 . S
H383 C388 0.949 . S
H384 C390 0.950 . S
H385 C391 0.950 . S
H386 C392 0.949 . S
C387 H382 0.950 . S
C387 C389 1.327 . S
C387 C393 1.429 . S
C388 C380 1.574 . S
C388 H383 0.949 . S
C388 C394 1.368 . S
C389 C373 1.349 . S
C389 H381 0.950 . S
C389 C387 1.327 . S
C390 C378 1.349 . S
C390 H384 0.950 . S
C390 C391 1.327 . S
C391 H385 0.950 . S
C391 C390 1.327 . S
C391 C395 1.429 . S
C392 C375 1.574 . S
C392 H386 0.949 . S
C392 C396 1.368 . S
C393 C374 1.429 . S
C393 C387 1.429 . S
C393 C394 1.523 . S
C394 C375 1.368 . S
C394 C388 1.368 . S
C394 C393 1.523 . S
C395 C379 1.429 . S
C395 C391 1.429 . S
C395 C396 1.523 . S
C396 C380 1.368 . S
C396 C392 1.368 . S
C396 C395 1.523 . S
H397 C372 0.950 . S
H398 C374 0.950 . S
H399 C375 0.949 . S
H400 C377 0.950 1_455 S
H401 C379 0.950 . S
C402 C403 1.349 . S
C402 C404 1.327 . S
C402 H427 0.950 . S
C403 C402 1.349 . S
C403 C419 1.349 . S
C404 C402 1.327 . S
C404 C423 1.429 . S
C404 H428 0.950 . S
C405 C422 1.574 . S
C405 C424 1.368 . S
C405 H429 0.949 . S
H406 C410 0.949 . S
C407 C408 1.349 . S
C407 C409 1.327 . S
C407 H430 0.950 . S
C408 C407 1.349 . S
C408 C420 1.349 . S
C409 C407 1.327 . S
C409 C425 1.429 . S
C409 H431 0.950 . S
C410 H406 0.949 . S
C410 C418 1.574 . S
C410 C426 1.368 . S
H411 C419 0.950 . S
H412 C417 0.950 . S
H413 C418 0.949 . S
H414 C420 0.950 . S
H415 C421 0.950 . S
H416 C422 0.949 . S
C417 H412 0.950 . S
C417 C419 1.327 . S
C417 C423 1.429 . S
C418 C410 1.574 . S
C418 H413 0.949 . S
C418 C424 1.368 . S
C419 C403 1.349 . S
C419 H411 0.950 . S
C419 C417 1.327 . S
C420 C408 1.349 . S
C420 H414 0.950 . S
C420 C421 1.327 . S
C421 H415 0.950 . S
C421 C420 1.327 . S
C421 C425 1.429 . S
C422 C405 1.574 . S
C422 H416 0.949 . S
C422 C426 1.368 . S
C423 C404 1.429 . S
C423 C417 1.429 . S
C423 C424 1.523 . S
C424 C405 1.368 . S
C424 C418 1.368 . S
C424 C423 1.523 . S
C425 C409 1.429 . S
C425 C421 1.429 . S
C425 C426 1.523 . S
C426 C410 1.368 . S
C426 C422 1.368 . S
C426 C425 1.523 . S
H427 C402 0.950 . S
H428 C404 0.950 . S
H429 C405 0.949 . S
H430 C407 0.950 . S
H431 C409 0.950 . S
C432 C433 1.349 . S
C432 C434 1.327 . S
C432 H457 0.950 . S
C433 C432 1.349 . S
C433 C449 1.349 . S
C434 C432 1.327 . S
C434 C453 1.429 . S
C434 H458 0.950 . S
C435 C452 1.574 . S
C435 C454 1.368 . S
C435 H459 0.949 . S
H436 C440 0.949 . S
C437 C438 1.349 . S
C437 C439 1.327 . S
C437 H460 0.950 . S
C438 C437 1.349 . S
C438 C450 1.349 . S
C439 C437 1.327 . S
C439 C455 1.429 . S
C439 H461 0.950 . S
C440 H436 0.949 . S
C440 C448 1.574 . S
C440 C456 1.368 . S
H441 C449 0.950 . S
H442 C447 0.950 . S
H443 C448 0.949 . S
H444 C450 0.950 . S
H445 C451 0.950 . S
H446 C452 0.949 . S
C447 H442 0.950 . S
C447 C449 1.327 . S
C447 C453 1.429 . S
C448 C440 1.574 . S
C448 H443 0.949 . S
C448 C454 1.368 . S
C449 C433 1.349 . S
C449 H441 0.950 . S
C449 C447 1.327 . S
C450 C438 1.349 . S
C450 H444 0.950 . S
C450 C451 1.327 . S
C451 H445 0.950 . S
C451 C450 1.327 . S
C451 C455 1.429 . S
C452 C435 1.574 . S
C452 H446 0.949 . S
C452 C456 1.368 . S
C453 C434 1.429 . S
C453 C447 1.429 . S
C453 C454 1.523 . S
C454 C435 1.368 . S
C454 C448 1.368 . S
C454 C453 1.523 . S
C455 C439 1.429 . S
C455 C451 1.429 . S
C455 C456 1.523 . S
C456 C440 1.368 . S
C456 C452 1.368 . S
C456 C455 1.523 . S
H457 C432 0.950 . S
H458 C434 0.950 . S
H459 C435 0.949 . S
H460 C437 0.950 . S
H461 C439 0.950 . S
C462 C463 1.349 . S
C462 C464 1.327 . S
C462 H487 0.950 . S
C463 C462 1.349 . S
C463 C479 1.349 . S
C464 C462 1.327 . S
C464 C483 1.429 . S
C464 H488 0.950 . S
C465 C482 1.574 . S
C465 C484 1.368 1_554 S
C465 H489 0.949 . S
H466 C470 0.949 . S
C467 C468 1.389 . S
C467 C469 1.327 . S
C467 H490 0.950 . S
C468 C467 1.389 . S
C468 C480 1.301 1_554 S
C469 C467 1.327 . S
C469 C485 1.429 1_554 S
C469 H491 0.950 . S
C470 H466 0.949 . S
C470 C478 1.574 . S
C470 C486 1.368 . S
H471 C479 0.903 1_654 S
H472 C477 0.950 1_554 S
H473 C478 0.949 . S
H474 C480 0.950 . S
H475 C481 0.950 . S
H476 C482 0.949 . S
C477 H472 0.950 1_556 S
C477 C479 1.327 . S
C477 C483 1.429 . S
C478 C470 1.574 . S
C478 H473 0.949 . S
C478 C484 1.368 . S
C479 C463 1.349 . S
C479 H471 0.903 1_456 S
C479 C477 1.327 . S
C480 C468 1.301 1_556 S
C480 H474 0.950 . S
C480 C481 1.327 . S
C481 H475 0.950 . S
C481 C480 1.327 . S
C481 C485 1.429 . S
C482 C465 1.574 . S
C482 H476 0.949 . S
C482 C486 1.368 1_554 S
C483 C464 1.429 . S
C483 C477 1.429 . S
C483 C484 1.523 . S
C484 C465 1.368 1_556 S
C484 C478 1.368 . S
C484 C483 1.523 . S
C485 C469 1.429 1_556 S
C485 C481 1.429 . S
C485 C486 1.523 . S
C486 C470 1.368 . S
C486 C482 1.368 1_556 S
C486 C485 1.523 . S
H487 C462 0.950 . S
H488 C464 0.950 . S
H489 C465 0.949 . S
H490 C467 0.950 . S
H491 C469 0.950 . S
C492 C493 1.349 . S
C492 C494 1.327 . S
C492 H517 0.950 . S
C493 C492 1.349 . S
C493 C509 1.349 . S
C494 C492 1.327 . S
C494 C513 1.429 . S
C494 H518 0.950 . S
C495 C512 1.574 . S
C495 C514 1.368 . S
C495 H519 0.949 . S
H496 C500 0.949 . S
C497 C498 1.349 . S
C497 C499 1.327 . S
C497 H520 0.950 . S
C498 C497 1.349 . S
C498 C510 1.349 . S
C499 C497 1.327 . S
C499 C515 1.429 . S
C499 H521 0.950 . S
C500 H496 0.949 . S
C500 C508 1.574 . S
C500 C516 1.368 . S
H501 C509 0.950 1_565 S
H502 C507 0.950 . S
H503 C508 0.949 . S
H504 C510 0.950 . S
H505 C511 0.950 . S
H506 C512 0.949 . S
C507 H502 0.950 . S
C507 C509 1.327 . S
C507 C513 1.429 . S
C508 C500 1.574 . S
C508 H503 0.949 . S
C508 C514 1.368 . S
C509 C493 1.349 . S
C509 H501 0.950 1_545 S
C509 C507 1.327 . S
C510 C498 1.349 . S
C510 H504 0.950 . S
C510 C511 1.327 . S
C511 H505 0.950 . S
C511 C510 1.327 . S
C511 C515 1.429 . S
C512 C495 1.574 . S
C512 H506 0.949 . S
C512 C516 1.368 . S
C513 C494 1.429 . S
C513 C507 1.429 . S
C513 C514 1.523 . S
C514 C495 1.368 . S
C514 C508 1.368 . S
C514 C513 1.523 . S
C515 C499 1.429 . S
C515 C511 1.429 . S
C515 C516 1.523 . S
C516 C500 1.368 . S
C516 C512 1.368 . S
C516 C515 1.523 . S
H517 C492 0.950 . S
H518 C494 0.950 . S
H519 C495 0.949 . S
H520 C497 0.950 . S
H521 C499 0.950 . S
C522 C523 1.349 . S
C522 C524 1.327 . S
C522 H547 0.950 . S
C523 C522 1.349 . S
C523 C539 1.349 . S
C524 C522 1.327 . S
C524 C543 1.429 . S
C524 H548 0.950 . S
C525 C542 1.574 . S
C525 C544 1.368 . S
C525 H549 0.949 . S
H526 C530 0.949 . S
C527 C528 1.349 . S
C527 C529 1.327 . S
C527 H550 0.950 . S
C528 C527 1.349 . S
C528 C540 1.349 . S
C529 C527 1.327 . S
C529 C545 1.429 . S
C529 H551 0.950 . S
C530 H526 0.949 . S
C530 C538 1.574 . S
C530 C546 1.368 . S
H531 C539 0.950 . S
H532 C537 0.950 . S
H533 C538 0.949 . S
H534 C540 0.950 . S
H535 C541 0.950 . S
H536 C542 0.949 . S
C537 H532 0.950 . S
C537 C539 1.327 . S
C537 C543 1.429 . S
C538 C530 1.574 . S
C538 H533 0.949 . S
C538 C544 1.368 . S
C539 C523 1.349 . S
C539 H531 0.950 . S
C539 C537 1.327 . S
C540 C528 1.349 . S
C540 H534 0.950 . S
C540 C541 1.327 . S
C541 H535 0.950 . S
C541 C540 1.327 . S
C541 C545 1.429 . S
C542 C525 1.574 . S
C542 H536 0.949 . S
C542 C546 1.368 . S
C543 C524 1.429 . S
C543 C537 1.429 . S
C543 C544 1.523 . S
C544 C525 1.368 . S
C544 C538 1.368 . S
C544 C543 1.523 . S
C545 C529 1.429 . S
C545 C541 1.429 . S
C545 C546 1.523 . S
C546 C530 1.368 . S
C546 C542 1.368 . S
C546 C545 1.523 . S
H547 C522 0.950 . S
H548 C524 0.950 . S
H549 C525 0.949 . S
H550 C527 0.950 . S
H551 C529 0.950 . S
C552 C553 1.349 . S
C552 C554 1.327 . S
C552 H577 0.950 . S
C553 C552 1.349 . S
C553 C569 1.349 . S
C554 C552 1.327 . S
C554 C573 1.429 . S
C554 H578 0.950 . S
C555 C572 1.574 . S
C555 C574 1.368 . S
C555 H579 0.949 . S
H556 C560 0.949 . S
C557 C558 1.349 . S
C557 C559 1.327 . S
C557 H580 0.950 . S
C558 C557 1.349 . S
C558 C570 1.349 . S
C559 C557 1.327 . S
C559 C575 1.429 . S
C559 H581 0.950 . S
C560 H556 0.949 . S
C560 C568 1.574 . S
C560 C576 1.368 . S
H561 C569 0.950 . S
H562 C567 0.950 . S
H563 C568 0.949 . S
H564 C570 0.950 . S
H565 C571 0.950 . S
H566 C572 0.949 . S
C567 H562 0.950 . S
C567 C569 1.327 . S
C567 C573 1.429 . S
C568 C560 1.574 . S
C568 H563 0.949 . S
C568 C574 1.368 . S
C569 C553 1.349 . S
C569 H561 0.950 . S
C569 C567 1.327 . S
C570 C558 1.349 . S
C570 H564 0.950 . S
C570 C571 1.327 . S
C571 H565 0.950 . S
C571 C570 1.327 . S
C571 C575 1.429 . S
C572 C555 1.574 . S
C572 H566 0.949 . S
C572 C576 1.368 . S
C573 C554 1.429 . S
C573 C567 1.429 . S
C573 C574 1.523 . S
C574 C555 1.368 . S
C574 C568 1.368 . S
C574 C573 1.523 . S
C575 C559 1.429 . S
C575 C571 1.429 . S
C575 C576 1.523 . S
C576 C560 1.368 . S
C576 C572 1.368 . S
C576 C575 1.523 . S
H577 C552 0.950 . S
H578 C554 0.950 . S
H579 C555 0.949 . S
H580 C557 0.950 . S
H581 C559 0.950 . S
C582 C583 1.349 . S
C582 C584 1.327 . S
C582 H607 0.950 . S
C583 C582 1.349 . S
C583 C599 1.349 1_565 S
C584 C582 1.327 . S
C584 C603 1.429 . S
C584 H608 0.950 . S
C585 C602 1.574 . S
C585 C604 1.368 . S
C585 H609 0.949 . S
H586 C590 0.949 . S
C587 C588 1.349 . S
C587 C589 1.327 . S
C587 H610 0.950 . S
C588 C587 1.349 . S
C588 C600 1.349 . S
C589 C587 1.327 . S
C589 C605 1.429 . S
C589 H611 0.950 . S
C590 H586 0.949 . S
C590 C598 1.574 . S
C590 C606 1.368 . S
H591 C599 0.950 . S
H592 C597 0.950 . S
H593 C598 0.949 . S
H594 C600 0.950 . S
H595 C601 0.950 . S
H596 C602 0.949 . S
C597 H592 0.950 . S
C597 C599 1.327 1_565 S
C597 C603 1.429 . S
C598 C590 1.574 . S
C598 H593 0.949 . S
C598 C604 1.368 . S
C599 C583 1.349 1_545 S
C599 H591 0.950 . S
C599 C597 1.327 1_545 S
C600 C588 1.349 . S
C600 H594 0.950 . S
C600 C601 1.327 . S
C601 H595 0.950 . S
C601 C600 1.327 . S
C601 C605 1.429 . S
C602 C585 1.574 . S
C602 H596 0.949 . S
C602 C606 1.368 . S
C603 C584 1.429 . S
C603 C597 1.429 . S
C603 C604 1.523 . S
C604 C585 1.368 . S
C604 C598 1.368 . S
C604 C603 1.523 . S
C605 C589 1.429 . S
C605 C601 1.429 . S
C605 C606 1.523 . S
C606 C590 1.368 . S
C606 C602 1.368 . S
C606 C605 1.523 . S
H607 C582 0.950 . S
H608 C584 0.950 . S
H609 C585 0.949 . S
H610 C587 0.950 . S
H611 C589 0.950 . S
C612 C613 1.349 . S
C612 C614 1.327 . S
C612 H637 0.950 . S
C613 C612 1.349 . S
C613 C629 1.349 . S
C614 C612 1.327 . S
C614 C633 1.429 . S
C614 H638 0.950 . S
C615 C632 1.574 . S
C615 C634 1.368 . S
C615 H639 0.949 . S
H616 C620 0.949 . S
C617 C618 1.349 . S
C617 C619 1.327 . S
C617 H640 0.950 . S
C618 C617 1.349 . S
C618 C630 1.349 . S
C619 C617 1.327 . S
C619 C635 1.429 . S
C619 H641 0.950 . S
C620 H616 0.949 . S
C620 C628 1.574 . S
C620 C636 1.368 . S
H621 C629 0.950 . S
H622 C627 0.950 . S
H623 C628 0.949 . S
H624 C630 0.950 . S
H625 C631 0.950 . S
H626 C632 0.949 . S
C627 H622 0.950 . S
C627 C629 1.327 . S
C627 C633 1.429 . S
C628 C620 1.574 . S
C628 H623 0.949 . S
C628 C634 1.368 . S
C629 C613 1.349 . S
C629 H621 0.950 . S
C629 C627 1.327 . S
C630 C618 1.349 . S
C630 H624 0.950 . S
C630 C631 1.327 . S
C631 H625 0.950 . S
C631 C630 1.327 . S
C631 C635 1.429 . S
C632 C615 1.574 . S
C632 H626 0.949 . S
C632 C636 1.368 . S
C633 C614 1.429 . S
C633 C627 1.429 . S
C633 C634 1.523 . S
C634 C615 1.368 . S
C634 C628 1.368 . S
C634 C633 1.523 . S
C635 C619 1.429 . S
C635 C631 1.429 . S
C635 C636 1.523 . S
C636 C620 1.368 . S
C636 C632 1.368 . S
C636 C635 1.523 . S
H637 C612 0.950 . S
H638 C614 0.950 . S
H639 C615 0.949 . S
H640 C617 0.950 . S
H641 C619 0.950 . S
C642 C643 1.349 . S
C642 C644 1.327 . S
C642 H667 0.950 . S
C643 C642 1.349 . S
C643 C659 1.349 . S
C644 C642 1.327 . S
C644 C663 1.429 . S
C644 H668 0.950 . S
C645 C662 1.574 . S
C645 C664 1.368 . S
C645 H669 0.949 . S
H646 C650 0.949 . S
C647 C648 1.349 . S
C647 C649 1.327 . S
C647 H670 0.950 . S
C648 C647 1.349 . S
C648 C660 1.349 . S
C649 C647 1.327 . S
C649 C665 1.429 . S
C649 H671 0.950 . S
C650 H646 0.949 . S
C650 C658 1.574 . S
C650 C666 1.368 . S
H651 C659 0.950 1_655 S
H652 C657 0.950 . S
H653 C658 0.949 . S
H654 C660 0.950 . S
H655 C661 0.950 . S
H656 C662 0.949 . S
C657 H652 0.950 . S
C657 C659 1.327 . S
C657 C663 1.429 . S
C658 C650 1.574 . S
C658 H653 0.949 . S
C658 C664 1.368 . S
C659 C643 1.349 . S
C659 H651 0.950 1_455 S
C659 C657 1.327 . S
C660 C648 1.349 . S
C660 H654 0.950 . S
C660 C661 1.327 . S
C661 H655 0.950 . S
C661 C660 1.327 . S
C661 C665 1.429 . S
C662 C645 1.574 . S
C662 H656 0.949 . S
C662 C666 1.368 . S
C663 C644 1.429 . S
C663 C657 1.429 . S
C663 C664 1.523 . S
C664 C645 1.368 . S
C664 C658 1.368 . S
C664 C663 1.523 . S
C665 C649 1.429 . S
C665 C661 1.429 . S
C665 C666 1.523 . S
C666 C650 1.368 . S
C666 C662 1.368 . S
C666 C665 1.523 . S
H667 C642 0.950 . S
H668 C644 0.950 . S
H669 C645 0.949 . S
H670 C647 0.950 . S
H671 C649 0.950 . S
C672 C673 1.349 . S
C672 C674 1.327 . S
C672 H697 0.950 . S
C673 C672 1.349 . S
C673 C689 1.349 . S
C674 C672 1.327 . S
C674 C693 1.429 . S
C674 H698 0.950 . S
C675 C692 1.574 . S
C675 C694 1.368 . S
C675 H699 0.949 . S
H676 C680 0.949 . S
C677 C678 1.349 . S
C677 C679 1.327 . S
C677 H700 0.950 . S
C678 C677 1.349 . S
C678 C690 1.349 . S
C679 C677 1.327 . S
C679 C695 1.429 . S
C679 H701 0.950 . S
C680 H676 0.949 . S
C680 C688 1.574 . S
C680 C696 1.368 . S
H681 C689 0.950 . S
H682 C687 0.950 . S
H683 C688 0.949 . S
H684 C690 0.950 1_565 S
H685 C691 0.950 . S
H686 C692 0.949 . S
C687 H682 0.950 . S
C687 C689 1.327 . S
C687 C693 1.429 . S
C688 C680 1.574 . S
C688 H683 0.949 . S
C688 C694 1.368 . S
C689 C673 1.349 . S
C689 H681 0.950 . S
C689 C687 1.327 . S
C690 C678 1.349 . S
C690 H684 0.950 1_545 S
C690 C691 1.327 . S
C691 H685 0.950 . S
C691 C690 1.327 . S
C691 C695 1.429 . S
C692 C675 1.574 . S
C692 H686 0.949 . S
C692 C696 1.368 . S
C693 C674 1.429 . S
C693 C687 1.429 . S
C693 C694 1.523 . S
C694 C675 1.368 . S
C694 C688 1.368 . S
C694 C693 1.523 . S
C695 C679 1.429 . S
C695 C691 1.429 . S
C695 C696 1.523 . S
C696 C680 1.368 . S
C696 C692 1.368 . S
C696 C695 1.523 . S
H697 C672 0.950 . S
H698 C674 0.950 . S
H699 C675 0.949 . S
H700 C677 0.950 . S
H701 C679 0.950 . S
C702 C703 1.349 . S
C702 C704 1.327 . S
C702 H727 0.950 . S
C703 C702 1.349 . S
C703 C719 1.349 . S
C704 C702 1.327 . S
C704 C723 1.429 . S
C704 H728 0.950 . S
C705 C722 1.574 . S
C705 C724 1.368 . S
C705 H729 0.949 . S
H706 C710 0.949 . S
C707 C708 1.349 . S
C707 C709 1.327 . S
C707 H730 0.950 . S
C708 C707 1.349 . S
C708 C720 1.349 . S
C709 C707 1.327 . S
C709 C725 1.429 . S
C709 H731 0.950 . S
C710 H706 0.949 . S
C710 C718 1.574 . S
C710 C726 1.368 . S
H711 C719 0.950 . S
H712 C717 0.950 . S
H713 C718 0.949 . S
H714 C720 0.950 . S
H715 C721 0.950 . S
H716 C722 0.949 . S
C717 H712 0.950 . S
C717 C719 1.327 . S
C717 C723 1.429 . S
C718 C710 1.574 . S
C718 H713 0.949 . S
C718 C724 1.368 . S
C719 C703 1.349 . S
C719 H711 0.950 . S
C719 C717 1.327 . S
C720 C708 1.349 . S
C720 H714 0.950 . S
C720 C721 1.327 . S
C721 H715 0.950 . S
C721 C720 1.327 . S
C721 C725 1.429 . S
C722 C705 1.574 . S
C722 H716 0.949 . S
C722 C726 1.368 . S
C723 C704 1.429 . S
C723 C717 1.429 . S
C723 C724 1.523 . S
C724 C705 1.368 . S
C724 C718 1.368 . S
C724 C723 1.523 . S
C725 C709 1.429 . S
C725 C721 1.429 . S
C725 C726 1.523 . S
C726 C710 1.368 . S
C726 C722 1.368 . S
C726 C725 1.523 . S
H727 C702 0.950 . S
H728 C704 0.950 . S
H729 C705 0.949 . S
H730 C707 0.950 . S
H731 C709 0.950 . S
C732 C733 1.349 . S
C732 C734 1.327 . S
C732 H757 0.950 . S
C733 C732 1.349 . S
C733 C749 1.349 . S
C734 C732 1.327 . S
C734 C753 1.429 . S
C734 H758 0.950 . S
C735 C752 1.574 . S
C735 C754 1.368 . S
C735 H759 0.949 . S
H736 C740 0.949 . S
C737 C738 1.349 . S
C737 C739 1.327 . S
C737 H760 0.950 . S
C738 C737 1.349 . S
C738 C750 1.349 . S
C739 C737 1.327 . S
C739 C755 1.429 . S
C739 H761 0.950 . S
C740 H736 0.949 . S
C740 C748 1.574 . S
C740 C756 1.368 . S
H741 C749 0.950 . S
H742 C747 0.950 . S
H743 C748 0.949 . S
H744 C750 0.950 . S
H745 C751 0.950 . S
H746 C752 0.949 . S
C747 H742 0.950 . S
C747 C749 1.327 . S
C747 C753 1.429 . S
C748 C740 1.574 . S
C748 H743 0.949 . S
C748 C754 1.368 . S
C749 C733 1.349 . S
C749 H741 0.950 . S
C749 C747 1.327 . S
C750 C738 1.349 . S
C750 H744 0.950 . S
C750 C751 1.327 . S
C751 H745 0.950 . S
C751 C750 1.327 . S
C751 C755 1.429 . S
C752 C735 1.574 . S
C752 H746 0.949 . S
C752 C756 1.368 . S
C753 C734 1.429 . S
C753 C747 1.429 . S
C753 C754 1.523 . S
C754 C735 1.368 . S
C754 C748 1.368 . S
C754 C753 1.523 . S
C755 C739 1.429 . S
C755 C751 1.429 . S
C755 C756 1.523 . S
C756 C740 1.368 . S
C756 C752 1.368 . S
C756 C755 1.523 . S
H757 C732 0.950 . S
H758 C734 0.950 . S
H759 C735 0.949 . S
H760 C737 0.950 . S
H761 C739 0.950 . S
C762 C763 1.349 . S
C762 C764 1.327 . S
C762 H787 0.950 1_565 S
C763 C762 1.349 . S
C763 C779 1.349 . S
C764 C762 1.327 . S
C764 C783 1.429 . S
C764 H788 0.950 . S
C765 C782 1.574 . S
C765 C784 1.368 . S
C765 H789 0.949 . S
H766 C770 0.949 . S
C767 C768 1.349 . S
C767 C769 1.327 . S
C767 H790 0.950 . S
C768 C767 1.349 . S
C768 C780 1.349 . S
C769 C767 1.327 . S
C769 C785 1.429 . S
C769 H791 0.950 . S
C770 H766 0.949 . S
C770 C778 1.574 . S
C770 C786 1.368 . S
H771 C779 0.950 . S
H772 C777 0.950 . S
H773 C778 0.949 . S
H774 C780 0.950 . S
H775 C781 0.950 . S
H776 C782 0.949 . S
C777 H772 0.950 . S
C777 C779 1.327 . S
C777 C783 1.429 . S
C778 C770 1.574 . S
C778 H773 0.949 . S
C778 C784 1.368 . S
C779 C763 1.349 . S
C779 H771 0.950 . S
C779 C777 1.327 . S
C780 C768 1.349 . S
C780 H774 0.950 . S
C780 C781 1.327 . S
C781 H775 0.950 . S
C781 C780 1.327 . S
C781 C785 1.429 . S
C782 C765 1.574 . S
C782 H776 0.949 . S
C782 C786 1.368 . S
C783 C764 1.429 . S
C783 C777 1.429 . S
C783 C784 1.523 . S
C784 C765 1.368 . S
C784 C778 1.368 . S
C784 C783 1.523 . S
C785 C769 1.429 . S
C785 C781 1.429 . S
C785 C786 1.523 . S
C786 C770 1.368 . S
C786 C782 1.368 . S
C786 C785 1.523 . S
H787 C762 0.950 1_545 S
H788 C764 0.950 . S
H789 C765 0.949 . S
H790 C767 0.950 . S
H791 C769 0.950 . S
C792 C793 1.349 . S
C792 C794 1.327 . S
C792 H817 0.950 . S
C793 C792 1.349 . S
C793 C809 1.349 . S
C794 C792 1.327 . S
C794 C813 1.429 . S
C794 H818 0.950 . S
C795 C812 1.574 . S
C795 C814 1.368 . S
C795 H819 0.949 . S
H796 C800 0.949 . S
C797 C798 1.349 . S
C797 C799 1.327 . S
C797 H820 0.950 . S
C798 C797 1.349 . S
C798 C810 1.349 . S
C799 C797 1.327 . S
C799 C815 1.429 . S
C799 H821 0.950 . S
C800 H796 0.949 . S
C800 C808 1.574 . S
C800 C816 1.368 . S
H801 C809 0.950 . S
H802 C807 0.950 . S
H803 C808 0.949 . S
H804 C810 0.950 . S
H805 C811 0.950 . S
H806 C812 0.949 . S
C807 H802 0.950 . S
C807 C809 1.327 . S
C807 C813 1.429 . S
C808 C800 1.574 . S
C808 H803 0.949 . S
C808 C814 1.368 . S
C809 C793 1.349 . S
C809 H801 0.950 . S
C809 C807 1.327 . S
C810 C798 1.349 . S
C810 H804 0.950 . S
C810 C811 1.327 . S
C811 H805 0.950 . S
C811 C810 1.327 . S
C811 C815 1.429 . S
C812 C795 1.574 . S
C812 H806 0.949 . S
C812 C816 1.368 . S
C813 C794 1.429 . S
C813 C807 1.429 . S
C813 C814 1.523 . S
C814 C795 1.368 . S
C814 C808 1.368 . S
C814 C813 1.523 . S
C815 C799 1.429 . S
C815 C811 1.429 . S
C815 C816 1.523 . S
C816 C800 1.368 . S
C816 C812 1.368 . S
C816 C815 1.523 . S
H817 C792 0.950 . S
H818 C794 0.950 . S
H819 C795 0.949 . S
H820 C797 0.950 . S
H821 C799 0.950 . S
C822 C823 1.349 . S
C822 C824 1.327 . S
C822 H847 0.950 . S
C823 C822 1.349 . S
C823 C839 1.349 . S
C824 C822 1.327 . S
C824 C843 1.429 . S
C824 H848 0.950 . S
C825 C842 1.574 . S
C825 C844 1.368 . S
C825 H849 0.949 . S
H826 C830 0.949 . S
C827 C828 1.349 . S
C827 C829 1.327 . S
C827 H850 0.950 . S
C828 C827 1.349 . S
C828 C840 1.349 . S
C829 C827 1.327 . S
C829 C845 1.429 . S
C829 H851 0.950 . S
C830 H826 0.949 . S
C830 C838 1.574 . S
C830 C846 1.368 . S
H831 C839 0.950 . S
H832 C837 0.950 . S
H833 C838 0.949 . S
H834 C840 0.950 . S
H835 C841 0.950 . S
H836 C842 0.949 . S
C837 H832 0.950 . S
C837 C839 1.327 . S
C837 C843 1.429 . S
C838 C830 1.574 . S
C838 H833 0.949 . S
C838 C844 1.368 . S
C839 C823 1.349 . S
C839 H831 0.950 . S
C839 C837 1.327 . S
C840 C828 1.349 . S
C840 H834 0.950 . S
C840 C841 1.327 . S
C841 H835 0.950 . S
C841 C840 1.327 . S
C841 C845 1.429 . S
C842 C825 1.574 . S
C842 H836 0.949 . S
C842 C846 1.368 . S
C843 C824 1.429 . S
C843 C837 1.429 . S
C843 C844 1.523 . S
C844 C825 1.368 . S
C844 C838 1.368 . S
C844 C843 1.523 . S
C845 C829 1.429 . S
C845 C841 1.429 . S
C845 C846 1.523 . S
C846 C830 1.368 . S
C846 C842 1.368 . S
C846 C845 1.523 . S
H847 C822 0.950 . S
H848 C824 0.950 . S
H849 C825 0.949 . S
H850 C827 0.950 . S
H851 C829 0.950 . S
C852 C853 1.349 . S
C852 C854 1.327 . S
C852 H877 0.950 . S
C853 C852 1.349 . S
C853 C869 1.349 . S
C854 C852 1.327 . S
C854 C873 1.429 . S
C854 H878 0.950 . S
C855 C872 1.574 . S
C855 C874 1.368 . S
C855 H879 0.949 . S
H856 C860 0.949 . S
C857 C858 1.349 . S
C857 C859 1.327 . S
C857 H880 0.950 . S
C858 C857 1.349 . S
C858 C870 1.349 . S
C859 C857 1.327 . S
C859 C875 1.429 . S
C859 H881 0.950 . S
C860 H856 0.949 . S
C860 C868 1.574 . S
C860 C876 1.368 . S
H861 C869 0.950 . S
H862 C867 0.950 . S
H863 C868 0.949 . S
H864 C870 0.950 . S
H865 C871 0.950 . S
H866 C872 0.949 . S
C867 H862 0.950 . S
C867 C869 1.327 . S
C867 C873 1.429 . S
C868 C860 1.574 . S
C868 H863 0.949 . S
C868 C874 1.368 . S
C869 C853 1.349 . S
C869 H861 0.950 . S
C869 C867 1.327 . S
C870 C858 1.349 . S
C870 H864 0.950 . S
C870 C871 1.327 . S
C871 H865 0.950 . S
C871 C870 1.327 . S
C871 C875 1.429 . S
C872 C855 1.574 . S
C872 H866 0.949 . S
C872 C876 1.368 . S
C873 C854 1.429 . S
C873 C867 1.429 . S
C873 C874 1.523 . S
C874 C855 1.368 . S
C874 C868 1.368 . S
C874 C873 1.523 . S
C875 C859 1.429 . S
C875 C871 1.429 . S
C875 C876 1.523 . S
C876 C860 1.368 . S
C876 C872 1.368 . S
C876 C875 1.523 . S
H877 C852 0.950 . S
H878 C854 0.950 . S
H879 C855 0.949 . S
H880 C857 0.950 . S
H881 C859 0.950 . S
C882 C883 1.349 . S
C882 C884 1.327 . S
C882 H907 0.950 . S
C883 C882 1.349 . S
C883 C899 1.349 . S
C884 C882 1.327 . S
C884 C903 1.429 . S
C884 H908 0.950 . S
C885 C902 1.574 . S
C885 C904 1.368 . S
C885 H909 0.949 . S
H886 C890 0.949 . S
C887 C888 1.349 . S
C887 C889 1.327 . S
C887 H910 0.950 . S
C888 C887 1.349 . S
C888 C900 1.349 . S
C889 C887 1.327 . S
C889 C905 1.429 . S
C889 H911 0.950 . S
C890 H886 0.949 . S
C890 C898 1.574 . S
C890 C906 1.368 . S
H891 C899 0.950 . S
H892 C897 0.950 . S
H893 C898 0.949 . S
H894 C900 0.950 . S
H895 C901 0.950 . S
H896 C902 0.949 . S
C897 H892 0.950 . S
C897 C899 1.327 . S
C897 C903 1.429 . S
C898 C890 1.574 . S
C898 H893 0.949 . S
C898 C904 1.368 . S
C899 C883 1.349 . S
C899 H891 0.950 . S
C899 C897 1.327 . S
C900 C888 1.349 . S
C900 H894 0.950 . S
C900 C901 1.327 . S
C901 H895 0.950 . S
C901 C900 1.327 . S
C901 C905 1.429 . S
C902 C885 1.574 . S
C902 H896 0.949 . S
C902 C906 1.368 . S
C903 C884 1.429 . S
C903 C897 1.429 . S
C903 C904 1.523 . S
C904 C885 1.368 . S
C904 C898 1.368 . S
C904 C903 1.523 . S
C905 C889 1.429 . S
C905 C901 1.429 . S
C905 C906 1.523 . S
C906 C890 1.368 . S
C906 C902 1.368 . S
C906 C905 1.523 . S
H907 C882 0.950 . S
H908 C884 0.950 . S
H909 C885 0.949 . S
H910 C887 0.950 . S
H911 C889 0.950 . S
C912 C913 1.349 . S
C912 C914 1.327 . S
C912 H937 0.950 . S
C913 C912 1.349 . S
C913 C929 1.349 . S
C914 C912 1.327 . S
C914 C933 1.429 . S
C914 H938 0.950 . S
C915 C932 1.574 . S
C915 C934 1.368 . S
C915 H939 0.949 . S
H916 C920 0.949 . S
C917 C918 1.349 . S
C917 C919 1.327 . S
C917 H940 0.950 . S
C918 C917 1.349 . S
C918 C930 1.349 . S
C919 C917 1.327 . S
C919 C935 1.429 . S
C919 H941 0.950 . S
C920 H916 0.949 . S
C920 C928 1.574 . S
C920 C936 1.368 . S
H921 C929 0.950 . S
H922 C927 0.950 . S
H923 C928 0.949 . S
H924 C930 0.950 . S
H925 C931 0.950 . S
H926 C932 0.949 . S
C927 H922 0.950 . S
C927 C929 1.327 . S
C927 C933 1.429 . S
C928 C920 1.574 . S
C928 H923 0.949 . S
C928 C934 1.368 . S
C929 C913 1.349 . S
C929 H921 0.950 . S
C929 C927 1.327 . S
C930 C918 1.349 . S
C930 H924 0.950 . S
C930 C931 1.327 . S
C931 H925 0.950 . S
C931 C930 1.327 . S
C931 C935 1.429 . S
C932 C915 1.574 . S
C932 H926 0.949 . S
C932 C936 1.368 . S
C933 C914 1.429 . S
C933 C927 1.429 . S
C933 C934 1.523 . S
C934 C915 1.368 . S
C934 C928 1.368 . S
C934 C933 1.523 . S
C935 C919 1.429 . S
C935 C931 1.429 . S
C935 C936 1.523 . S
C936 C920 1.368 . S
C936 C932 1.368 . S
C936 C935 1.523 . S
H937 C912 0.950 . S
H938 C914 0.950 . S
H939 C915 0.949 . S
H940 C917 0.950 . S
H941 C919 0.950 . S
C942 C943 1.349 . S
C942 C944 1.327 . S
C942 H967 0.950 . S
C943 C942 1.349 . S
C943 C959 1.349 . S
C944 C942 1.327 . S
C944 C963 1.429 . S
C944 H968 0.950 . S
C945 C962 1.574 . S
C945 C964 1.368 . S
C945 H969 0.949 . S
H946 C950 0.949 . S
C947 C948 1.349 . S
C947 C949 1.327 . S
C947 H970 0.950 . S
C948 C947 1.349 . S
C948 C960 1.349 . S
C949 C947 1.327 . S
C949 C965 1.429 . S
C949 H971 0.950 . S
C950 H946 0.949 . S
C950 C958 1.574 . S
C950 C966 1.368 . S
H951 C959 0.950 . S
H952 C957 0.950 . S
H953 C958 0.949 . S
H954 C960 0.950 1_545 S
H955 C961 0.950 . S
H956 C962 0.949 . S
C957 H952 0.950 . S
C957 C959 1.327 . S
C957 C963 1.429 . S
C958 C950 1.574 . S
C958 H953 0.949 . S
C958 C964 1.368 . S
C959 C943 1.349 . S
C959 H951 0.950 . S
C959 C957 1.327 . S
C960 C948 1.349 . S
C960 H954 0.950 1_565 S
C960 C961 1.327 . S
C961 H955 0.950 . S
C961 C960 1.327 . S
C961 C965 1.429 . S
C962 C945 1.574 . S
C962 H956 0.949 . S
C962 C966 1.368 . S
C963 C944 1.429 . S
C963 C957 1.429 . S
C963 C964 1.523 . S
C964 C945 1.368 . S
C964 C958 1.368 . S
C964 C963 1.523 . S
C965 C949 1.429 . S
C965 C961 1.429 . S
C965 C966 1.523 . S
C966 C950 1.368 . S
C966 C962 1.368 . S
C966 C965 1.523 . S
H967 C942 0.950 . S
H968 C944 0.950 . S
H969 C945 0.949 . S
H970 C947 0.950 . S
H971 C949 0.950 . S
C972 C973 1.349 . S
C972 C974 1.327 . S
C972 H997 0.950 . S
C973 C972 1.349 . S
C973 C989 1.349 . S
C974 C972 1.327 . S
C974 C993 1.429 . S
C974 H998 0.950 . S
C975 C992 1.574 . S
C975 C994 1.368 . S
C975 H999 0.949 . S
H976 C980 0.949 . S
C977 C978 1.349 . S
C977 C979 1.327 . S
C977 H1000 0.950 . S
C978 C977 1.349 . S
C978 C990 1.349 . S
C979 C977 1.327 . S
C979 C995 1.429 . S
C979 H1001 0.950 . S
C980 H976 0.949 . S
C980 C988 1.574 . S
C980 C996 1.368 . S
H981 C989 0.950 . S
H982 C987 0.950 . S
H983 C988 0.949 . S
H984 C990 0.950 . S
H985 C991 0.950 . S
H986 C992 0.949 . S
C987 H982 0.950 . S
C987 C989 1.327 . S
C987 C993 1.429 . S
C988 C980 1.574 . S
C988 H983 0.949 . S
C988 C994 1.368 . S
C989 C973 1.349 . S
C989 H981 0.950 . S
C989 C987 1.327 . S
C990 C978 1.349 . S
C990 H984 0.950 . S
C990 C991 1.327 . S
C991 H985 0.950 . S
C991 C990 1.327 . S
C991 C995 1.429 . S
C992 C975 1.574 . S
C992 H986 0.949 . S
C992 C996 1.368 . S
C993 C974 1.429 . S
C993 C987 1.429 . S
C993 C994 1.523 . S
C994 C975 1.368 . S
C994 C988 1.368 . S
C994 C993 1.523 . S
C995 C979 1.429 . S
C995 C991 1.429 . S
C995 C996 1.523 . S
C996 C980 1.368 . S
C996 C992 1.368 . S
C996 C995 1.523 . S
H997 C972 0.950 . S
H998 C974 0.950 . S
H999 C975 0.949 . S
H1000 C977 0.950 . S
H1001 C979 0.950 . S
C1002 C1003 1.349 . S
C1002 C1004 1.327 . S
C1002 H1027 0.950 . S
C1003 C1002 1.349 . S
C1003 C1019 1.349 . S
C1004 C1002 1.327 . S
C1004 C1023 1.429 . S
C1004 H1028 0.950 . S
C1005 C1022 1.574 . S
C1005 C1024 1.368 . S
C1005 H1029 0.949 . S
H1006 C1010 0.949 . S
C1007 C1008 1.349 . S
C1007 C1009 1.327 . S
C1007 H1030 0.950 . S
C1008 C1007 1.349 . S
C1008 C1020 1.349 . S
C1009 C1007 1.327 . S
C1009 C1025 1.429 . S
C1009 H1031 0.950 . S
C1010 H1006 0.949 . S
C1010 C1018 1.574 . S
C1010 C1026 1.368 . S
H1011 C1019 0.950 . S
H1012 C1017 0.950 . S
H1013 C1018 0.949 . S
H1014 C1020 0.950 . S
H1015 C1021 0.950 . S
H1016 C1022 0.949 . S
C1017 H1012 0.950 . S
C1017 C1019 1.327 . S
C1017 C1023 1.429 . S
C1018 C1010 1.574 . S
C1018 H1013 0.949 . S
C1018 C1024 1.368 . S
C1019 C1003 1.349 . S
C1019 H1011 0.950 . S
C1019 C1017 1.327 . S
C1020 C1008 1.349 . S
C1020 H1014 0.950 . S
C1020 C1021 1.327 . S
C1021 H1015 0.950 . S
C1021 C1020 1.327 . S
C1021 C1025 1.429 . S
C1022 C1005 1.574 . S
C1022 H1016 0.949 . S
C1022 C1026 1.368 . S
C1023 C1004 1.429 . S
C1023 C1017 1.429 . S
C1023 C1024 1.523 . S
C1024 C1005 1.368 . S
C1024 C1018 1.368 . S
C1024 C1023 1.523 . S
C1025 C1009 1.429 . S
C1025 C1021 1.429 . S
C1025 C1026 1.523 . S
C1026 C1010 1.368 . S
C1026 C1022 1.368 . S
C1026 C1025 1.523 . S
H1027 C1002 0.950 . S
H1028 C1004 0.950 . S
H1029 C1005 0.949 . S
H1030 C1007 0.950 . S
H1031 C1009 0.950 . S
C1032 C1033 1.349 . S
C1032 C1034 1.327 . S
C1032 H1057 0.950 . S
C1033 C1032 1.349 . S
C1033 C1049 1.349 . S
C1034 C1032 1.327 . S
C1034 C1053 1.429 . S
C1034 H1058 0.950 . S
C1035 C1052 1.574 . S
C1035 C1054 1.368 . S
C1035 H1059 0.949 . S
H1036 C1040 0.949 . S
C1037 C1038 1.349 . S
C1037 C1039 1.327 . S
C1037 H1060 0.950 . S
C1038 C1037 1.349 . S
C1038 C1050 1.349 . S
C1039 C1037 1.327 . S
C1039 C1055 1.429 . S
C1039 H1061 0.950 . S
C1040 H1036 0.949 . S
C1040 C1048 1.574 . S
C1040 C1056 1.368 . S
H1041 C1049 0.950 . S
H1042 C1047 0.950 . S
H1043 C1048 0.949 . S
H1044 C1050 0.950 . S
H1045 C1051 0.950 . S
H1046 C1052 0.949 . S
C1047 H1042 0.950 . S
C1047 C1049 1.327 . S
C1047 C1053 1.429 . S
C1048 C1040 1.574 . S
C1048 H1043 0.949 . S
C1048 C1054 1.368 . S
C1049 C1033 1.349 . S
C1049 H1041 0.950 . S
C1049 C1047 1.327 . S
C1050 C1038 1.349 . S
C1050 H1044 0.950 . S
C1050 C1051 1.327 . S
C1051 H1045 0.950 . S
C1051 C1050 1.327 . S
C1051 C1055 1.429 . S
C1052 C1035 1.574 . S
C1052 H1046 0.949 . S
C1052 C1056 1.368 . S
C1053 C1034 1.429 . S
C1053 C1047 1.429 . S
C1053 C1054 1.523 . S
C1054 C1035 1.368 . S
C1054 C1048 1.368 . S
C1054 C1053 1.523 . S
C1055 C1039 1.429 . S
C1055 C1051 1.429 . S
C1055 C1056 1.523 . S
C1056 C1040 1.368 . S
C1056 C1052 1.368 . S
C1056 C1055 1.523 . S
H1057 C1032 0.950 . S
H1058 C1034 0.950 . S
H1059 C1035 0.949 . S
H1060 C1037 0.950 . S
H1061 C1039 0.950 . S
C1062 C1063 1.349 . S
C1062 C1064 1.327 . S
C1062 H1087 0.950 . S
C1063 C1062 1.349 . S
C1063 C1079 1.349 . S
C1064 C1062 1.327 . S
C1064 C1083 1.429 . S
C1064 H1088 0.950 . S
C1065 C1082 1.574 . S
C1065 C1084 1.368 . S
C1065 H1089 0.949 . S
H1066 C1070 0.949 . S
C1067 C1068 1.349 . S
C1067 C1069 1.327 . S
C1067 H1090 0.950 . S
C1068 C1067 1.349 . S
C1068 C1080 1.349 . S
C1069 C1067 1.327 . S
C1069 C1085 1.429 . S
C1069 H1091 0.950 . S
C1070 H1066 0.949 . S
C1070 C1078 1.574 . S
C1070 C1086 1.368 . S
H1071 C1079 0.950 . S
H1072 C1077 0.950 . S
H1073 C1078 0.949 . S
H1074 C1080 0.950 . S
H1075 C1081 0.950 . S
H1076 C1082 0.949 . S
C1077 H1072 0.950 . S
C1077 C1079 1.327 . S
C1077 C1083 1.429 . S
C1078 C1070 1.574 . S
C1078 H1073 0.949 . S
C1078 C1084 1.368 . S
C1079 C1063 1.349 . S
C1079 H1071 0.950 . S
C1079 C1077 1.327 . S
C1080 C1068 1.349 . S
C1080 H1074 0.950 . S
C1080 C1081 1.327 . S
C1081 H1075 0.950 . S
C1081 C1080 1.327 . S
C1081 C1085 1.429 . S
C1082 C1065 1.574 . S
C1082 H1076 0.949 . S
C1082 C1086 1.368 . S
C1083 C1064 1.429 . S
C1083 C1077 1.429 . S
C1083 C1084 1.523 . S
C1084 C1065 1.368 . S
C1084 C1078 1.368 . S
C1084 C1083 1.523 . S
C1085 C1069 1.429 . S
C1085 C1081 1.429 . S
C1085 C1086 1.523 . S
C1086 C1070 1.368 . S
C1086 C1082 1.368 . S
C1086 C1085 1.523 . S
H1087 C1062 0.950 . S
H1088 C1064 0.950 . S
H1089 C1065 0.949 . S
H1090 C1067 0.950 . S
H1091 C1069 0.950 . S
C1092 C1093 1.349 . S
C1092 C1094 1.327 . S
C1092 H1117 0.950 . S
C1093 C1092 1.349 . S
C1093 C1109 1.349 . S
C1094 C1092 1.327 . S
C1094 C1113 1.429 . S
C1094 H1118 0.950 . S
C1095 C1112 1.574 . S
C1095 C1114 1.368 . S
C1095 H1119 0.949 . S
H1096 C1100 0.949 . S
C1097 C1098 1.349 . S
C1097 C1099 1.327 . S
C1097 H1120 0.950 . S
C1098 C1097 1.349 . S
C1098 C1110 1.349 . S
C1099 C1097 1.327 . S
C1099 C1115 1.429 . S
C1099 H1121 0.950 . S
C1100 H1096 0.949 . S
C1100 C1108 1.574 . S
C1100 C1116 1.368 . S
H1101 C1109 0.950 . S
H1102 C1107 0.950 . S
H1103 C1108 0.949 . S
H1104 C1110 0.950 . S
H1105 C1111 0.950 . S
H1106 C1112 0.949 . S
C1107 H1102 0.950 . S
C1107 C1109 1.327 . S
C1107 C1113 1.429 . S
C1108 C1100 1.574 . S
C1108 H1103 0.949 . S
C1108 C1114 1.368 . S
C1109 C1093 1.349 . S
C1109 H1101 0.950 . S
C1109 C1107 1.327 . S
C1110 C1098 1.349 . S
C1110 H1104 0.950 . S
C1110 C1111 1.327 . S
C1111 H1105 0.950 . S
C1111 C1110 1.327 . S
C1111 C1115 1.429 . S
C1112 C1095 1.574 . S
C1112 H1106 0.949 . S
C1112 C1116 1.368 . S
C1113 C1094 1.429 . S
C1113 C1107 1.429 . S
C1113 C1114 1.523 . S
C1114 C1095 1.368 . S
C1114 C1108 1.368 . S
C1114 C1113 1.523 . S
C1115 C1099 1.429 . S
C1115 C1111 1.429 . S
C1115 C1116 1.523 . S
C1116 C1100 1.368 . S
C1116 C1112 1.368 . S
C1116 C1115 1.523 . S
H1117 C1092 0.950 . S
H1118 C1094 0.950 . S
H1119 C1095 0.949 . S
H1120 C1097 0.950 . S
H1121 C1099 0.950 . S
C1122 C1123 1.349 . S
C1122 C1124 1.327 . S
C1122 H1147 0.950 . S
C1123 C1122 1.349 . S
C1123 C1139 1.349 . S
C1124 C1122 1.327 . S
C1124 C1143 1.429 . S
C1124 H1148 0.950 . S
C1125 C1142 1.574 . S
C1125 C1144 1.368 . S
C1125 H1149 0.949 . S
H1126 C1130 0.949 . S
C1127 C1128 1.349 . S
C1127 C1129 1.327 . S
C1127 H1150 0.950 . S
C1128 C1127 1.349 . S
C1128 C1140 1.349 . S
C1129 C1127 1.327 . S
C1129 C1145 1.429 . S
C1129 H1151 0.950 . S
C1130 H1126 0.949 . S
C1130 C1138 1.574 . S
C1130 C1146 1.368 . S
H1131 C1139 0.950 . S
H1132 C1137 0.950 . S
H1133 C1138 0.949 . S
H1134 C1140 0.950 . S
H1135 C1141 0.950 . S
H1136 C1142 0.949 . S
C1137 H1132 0.950 . S
C1137 C1139 1.327 . S
C1137 C1143 1.429 . S
C1138 C1130 1.574 . S
C1138 H1133 0.949 . S
C1138 C1144 1.368 . S
C1139 C1123 1.349 . S
C1139 H1131 0.950 . S
C1139 C1137 1.327 . S
C1140 C1128 1.349 . S
C1140 H1134 0.950 . S
C1140 C1141 1.327 . S
C1141 H1135 0.950 . S
C1141 C1140 1.327 . S
C1141 C1145 1.429 . S
C1142 C1125 1.574 . S
C1142 H1136 0.949 . S
C1142 C1146 1.368 . S
C1143 C1124 1.429 . S
C1143 C1137 1.429 . S
C1143 C1144 1.523 . S
C1144 C1125 1.368 . S
C1144 C1138 1.368 . S
C1144 C1143 1.523 . S
C1145 C1129 1.429 . S
C1145 C1141 1.429 . S
C1145 C1146 1.523 . S
C1146 C1130 1.368 . S
C1146 C1142 1.368 . S
C1146 C1145 1.523 . S
H1147 C1122 0.950 . S
H1148 C1124 0.950 . S
H1149 C1125 0.949 . S
H1150 C1127 0.950 . S
H1151 C1129 0.950 . S
C1152 C1153 1.349 . S
C1152 C1154 1.327 . S
C1152 H1177 0.950 . S
C1153 C1152 1.349 . S
C1153 C1169 1.349 1_554 S
C1154 C1152 1.327 . S
C1154 C1173 1.429 . S
C1154 H1178 0.950 . S
C1155 C1172 1.574 1_545 S
C1155 C1174 1.368 1_556 S
C1155 H1179 0.949 . S
H1156 C1160 0.949 . S
C1157 C1158 1.349 1_455 S
C1157 C1159 1.327 . S
C1157 H1180 0.950 . S
C1158 C1157 1.349 1_655 S
C1158 C1170 1.349 1_556 S
C1159 C1157 1.327 . S
C1159 C1175 1.429 . S
C1159 H1181 0.950 . S
C1160 H1156 0.949 . S
C1160 C1168 1.574 1_565 S
C1160 C1176 1.368 1_554 S
H1161 C1169 0.950 . S
H1162 C1167 0.950 . S
H1163 C1168 0.949 . S
H1164 C1170 0.950 . S
H1165 C1171 0.950 1_655 S
H1166 C1172 0.949 . S
C1167 H1162 0.950 . S
C1167 C1169 1.327 . S
C1167 C1173 1.429 1_556 S
C1168 C1160 1.574 1_545 S
C1168 H1163 0.949 . S
C1168 C1174 1.368 . S
C1169 C1153 1.349 1_556 S
C1169 H1161 0.950 . S
C1169 C1167 1.327 . S
C1170 C1158 1.349 1_554 S
C1170 H1164 0.950 . S
C1170 C1171 1.327 1_655 S
C1171 H1165 0.950 1_455 S
C1171 C1170 1.327 1_455 S
C1171 C1175 1.429 1_554 S
C1172 C1155 1.574 1_565 S
C1172 H1166 0.949 . S
C1172 C1176 1.368 . S
C1173 C1154 1.429 . S
C1173 C1167 1.429 1_554 S
C1173 C1174 1.523 . S
C1174 C1155 1.368 1_554 S
C1174 C1168 1.368 . S
C1174 C1173 1.523 . S
C1175 C1159 1.429 . S
C1175 C1171 1.429 1_556 S
C1175 C1176 1.523 . S
C1176 C1160 1.368 1_556 S
C1176 C1172 1.368 . S
C1176 C1175 1.523 . S
H1177 C1152 0.950 . S
H1178 C1154 0.950 . S
H1179 C1155 0.949 . S
H1180 C1157 0.950 . S
H1181 C1159 0.950 . S
C1182 C1183 1.349 1_545 S
C1182 C1184 1.327 . S
C1182 H1207 0.950 . S
C1183 C1182 1.349 1_565 S
C1183 C1199 1.349 . S
C1184 C1182 1.327 . S
C1184 C1203 1.429 . S
C1184 H1208 0.950 . S
C1185 C1202 1.574 . S
C1185 C1204 1.368 . S
C1185 H1209 0.949 . S
H1186 C1190 0.949 . S
C1187 C1188 1.349 . S
C1187 C1189 1.319 1_655 S
C1187 H1210 0.950 . S
C1188 C1187 1.349 . S
C1188 C1200 1.349 1_655 S
C1189 C1187 1.319 1_455 S
C1189 C1205 1.436 . S
C1189 H1211 0.951 1_455 S
C1190 H1186 0.949 . S
C1190 C1198 1.574 . S
C1190 C1206 1.368 . S
H1191 C1199 0.950 . S
H1192 C1197 0.950 . S
H1193 C1198 0.949 . S
H1194 C1200 0.950 . S
H1195 C1201 0.950 . S
H1196 C1202 0.949 . S
C1197 H1192 0.950 . S
C1197 C1199 1.327 . S
C1197 C1203 1.429 1_565 S
C1198 C1190 1.574 . S
C1198 H1193 0.949 . S
C1198 C1204 1.368 . S
C1199 C1183 1.349 . S
C1199 H1191 0.950 . S
C1199 C1197 1.327 . S
C1200 C1188 1.349 1_455 S
C1200 H1194 0.950 . S
C1200 C1201 1.327 . S
C1201 H1195 0.950 . S
C1201 C1200 1.327 . S
C1201 C1205 1.429 . S
C1202 C1185 1.574 . S
C1202 H1196 0.949 . S
C1202 C1206 1.368 . S
C1203 C1184 1.429 . S
C1203 C1197 1.429 1_545 S
C1203 C1204 1.523 . S
C1204 C1185 1.368 . S
C1204 C1198 1.368 . S
C1204 C1203 1.523 . S
C1205 C1189 1.436 . S
C1205 C1201 1.429 . S
C1205 C1206 1.523 . S
C1206 C1190 1.368 . S
C1206 C1202 1.368 . S
C1206 C1205 1.523 . S
H1207 C1182 0.950 . S
H1208 C1184 0.950 . S
H1209 C1185 0.949 . S
H1210 C1187 0.950 . S
H1211 C1189 0.951 1_655 S
C1212 C1213 1.349 . S
C1212 C1214 1.327 . S
C1212 H1237 0.950 . S
C1213 C1212 1.349 . S
C1213 C1229 1.349 . S
C1214 C1212 1.327 . S
C1214 C1233 1.429 . S
C1214 H1238 0.950 . S
C1215 C1232 1.574 1_455 S
C1215 C1234 1.368 . S
C1215 H1239 0.949 . S
H1216 C1220 0.949 . S
C1217 C1218 1.349 . S
C1217 C1219 1.327 1_565 S
C1217 H1240 0.950 . S
C1218 C1217 1.349 . S
C1218 C1230 1.349 1_565 S
C1219 C1217 1.327 1_545 S
C1219 C1235 1.429 . S
C1219 H1241 0.950 . S
C1220 H1216 0.949 . S
C1220 C1228 1.574 1_655 S
C1220 C1236 1.368 . S
H1221 C1229 0.950 . S
H1222 C1227 0.950 . S
H1223 C1228 0.949 . S
H1224 C1230 0.950 . S
H1225 C1231 0.950 . S
H1226 C1232 0.949 . S
C1227 H1222 0.950 . S
C1227 C1229 1.327 . S
C1227 C1233 1.429 . S
C1228 C1220 1.574 1_455 S
C1228 H1223 0.949 . S
C1228 C1234 1.368 . S
C1229 C1213 1.349 . S
C1229 H1221 0.950 . S
C1229 C1227 1.327 . S
C1230 C1218 1.349 1_545 S
C1230 H1224 0.950 . S
C1230 C1231 1.327 . S
C1231 H1225 0.950 . S
C1231 C1230 1.327 . S
C1231 C1235 1.429 . S
C1232 C1215 1.574 1_655 S
C1232 H1226 0.949 . S
C1232 C1236 1.368 . S
C1233 C1214 1.429 . S
C1233 C1227 1.429 . S
C1233 C1234 1.523 . S
C1234 C1215 1.368 . S
C1234 C1228 1.368 . S
C1234 C1233 1.523 . S
C1235 C1219 1.429 . S
C1235 C1231 1.429 . S
C1235 C1236 1.523 . S
C1236 C1220 1.368 . S
C1236 C1232 1.368 . S
C1236 C1235 1.523 . S
H1237 C1212 0.950 . S
H1238 C1214 0.950 . S
H1239 C1215 0.949 . S
H1240 C1217 0.950 . S
H1241 C1219 0.950 . S
C1242 C1243 1.349 1_655 S
C1242 C1244 1.327 . S
C1242 H1267 0.950 . S
C1243 C1242 1.349 1_455 S
C1243 C1259 1.349 . S
C1244 C1242 1.327 . S
C1244 C1263 1.429 . S
C1244 H1268 0.950 . S
C1245 C1262 1.574 1_545 S
C1245 C1264 1.368 . S
C1245 H1269 0.949 . S
H1246 C1250 0.949 . S
C1247 C1248 1.349 . S
C1247 C1249 1.327 . S
C1247 H1270 0.950 . S
C1248 C1247 1.349 . S
C1248 C1260 1.349 . S
C1249 C1247 1.327 . S
C1249 C1265 1.429 . S
C1249 H1271 0.950 . S
C1250 H1246 0.949 . S
C1250 C1258 1.574 1_565 S
C1250 C1266 1.368 . S
H1251 C1259 0.950 . S
H1252 C1257 0.950 . S
H1253 C1258 0.949 . S
H1254 C1260 0.950 . S
H1255 C1261 0.950 . S
H1256 C1262 0.949 . S
C1257 H1252 0.950 . S
C1257 C1259 1.327 1_655 S
C1257 C1263 1.429 . S
C1258 C1250 1.574 1_545 S
C1258 H1253 0.949 . S
C1258 C1264 1.368 . S
C1259 C1243 1.349 . S
C1259 H1251 0.950 . S
C1259 C1257 1.327 1_455 S
C1260 C1248 1.349 . S
C1260 H1254 0.950 . S
C1260 C1261 1.327 . S
C1261 H1255 0.950 . S
C1261 C1260 1.327 . S
C1261 C1265 1.429 . S
C1262 C1245 1.574 1_565 S
C1262 H1256 0.949 . S
C1262 C1266 1.368 . S
C1263 C1244 1.429 . S
C1263 C1257 1.429 . S
C1263 C1264 1.523 . S
C1264 C1245 1.368 . S
C1264 C1258 1.368 . S
C1264 C1263 1.523 . S
C1265 C1249 1.429 . S
C1265 C1261 1.429 . S
C1265 C1266 1.523 . S
C1266 C1250 1.368 . S
C1266 C1262 1.368 . S
C1266 C1265 1.523 . S
H1267 C1242 0.950 . S
H1268 C1244 0.950 . S
H1269 C1245 0.949 . S
H1270 C1247 0.950 . S
H1271 C1249 0.950 . S
C1272 C1273 1.349 1_655 S
C1272 C1274 1.327 . S
C1272 H1297 0.950 . S
C1273 C1272 1.349 1_455 S
C1273 C1289 1.349 . S
C1274 C1272 1.327 . S
C1274 C1293 1.429 . S
C1274 H1298 0.950 . S
C1275 C1292 1.574 . S
C1275 C1294 1.368 . S
C1275 H1299 0.949 . S
H1276 C1280 0.949 . S
C1277 C1278 1.349 . S
C1277 C1279 1.327 1_545 S
C1277 H1300 0.950 . S
C1278 C1277 1.349 . S
C1278 C1290 1.349 1_545 S
C1279 C1277 1.327 1_565 S
C1279 C1295 1.429 . S
C1279 H1301 0.948 . S
C1280 H1276 0.949 . S
C1280 C1288 1.574 . S
C1280 C1296 1.368 . S
H1281 C1289 0.950 . S
H1282 C1287 0.950 . S
H1283 C1288 0.949 . S
H1284 C1290 0.950 . S
H1285 C1291 0.950 . S
H1286 C1292 0.949 . S
C1287 H1282 0.950 . S
C1287 C1289 1.327 1_655 S
C1287 C1293 1.429 . S
C1288 C1280 1.574 . S
C1288 H1283 0.949 . S
C1288 C1294 1.368 . S
C1289 C1273 1.349 . S
C1289 H1281 0.950 . S
C1289 C1287 1.327 1_455 S
C1290 C1278 1.349 1_565 S
C1290 H1284 0.950 . S
C1290 C1291 1.327 . S
C1291 H1285 0.950 . S
C1291 C1290 1.327 . S
C1291 C1295 1.429 . S
C1292 C1275 1.574 . S
C1292 H1286 0.949 . S
C1292 C1296 1.368 . S
C1293 C1274 1.429 . S
C1293 C1287 1.429 . S
C1293 C1294 1.523 . S
C1294 C1275 1.368 . S
C1294 C1288 1.368 . S
C1294 C1293 1.523 . S
C1295 C1279 1.429 . S
C1295 C1291 1.429 . S
C1295 C1296 1.523 . S
C1296 C1280 1.368 . S
C1296 C1292 1.368 . S
C1296 C1295 1.523 . S
H1297 C1272 0.950 . S
H1298 C1274 0.950 . S
H1299 C1275 0.949 . S
H1300 C1277 0.950 . S
H1301 C1279 0.948 . S
C1302 C1303 1.349 . S
C1302 C1304 1.327 1_545 S
C1302 H1327 0.950 . S
C1303 C1302 1.349 . S
C1303 C1319 1.349 1_545 S
C1304 C1302 1.327 1_565 S
C1304 C1323 1.429 . S
C1304 H1328 0.950 . S
C1305 C1322 1.574 1_455 S
C1305 C1324 1.368 . S
C1305 H1329 0.949 . S
H1306 C1310 0.949 . S
C1307 C1308 1.349 . S
C1307 C1309 1.327 . S
C1307 H1330 0.950 . S
C1308 C1307 1.349 . S
C1308 C1320 1.349 . S
C1309 C1307 1.327 . S
C1309 C1325 1.429 . S
C1309 H1331 0.950 . S
C1310 H1306 0.949 . S
C1310 C1318 1.574 1_655 S
C1310 C1326 1.368 . S
H1311 C1319 0.950 . S
H1312 C1317 0.950 . S
H1313 C1318 0.949 . S
H1314 C1320 0.950 . S
H1315 C1321 0.950 . S
H1316 C1322 0.949 . S
C1317 H1312 0.950 . S
C1317 C1319 1.327 . S
C1317 C1323 1.429 . S
C1318 C1310 1.574 1_455 S
C1318 H1313 0.949 . S
C1318 C1324 1.368 . S
C1319 C1303 1.349 1_565 S
C1319 H1311 0.950 . S
C1319 C1317 1.327 . S
C1320 C1308 1.349 . S
C1320 H1314 0.950 . S
C1320 C1321 1.327 . S
C1321 H1315 0.950 . S
C1321 C1320 1.327 . S
C1321 C1325 1.429 . S
C1322 C1305 1.574 1_655 S
C1322 H1316 0.949 . S
C1322 C1326 1.368 . S
C1323 C1304 1.429 . S
C1323 C1317 1.429 . S
C1323 C1324 1.523 . S
C1324 C1305 1.368 . S
C1324 C1318 1.368 . S
C1324 C1323 1.523 . S
C1325 C1309 1.429 . S
C1325 C1321 1.429 . S
C1325 C1326 1.523 . S
C1326 C1310 1.368 . S
C1326 C1322 1.368 . S
C1326 C1325 1.523 . S
H1327 C1302 0.950 . S
H1328 C1304 0.950 . S
H1329 C1305 0.949 . S
H1330 C1307 0.950 . S
H1331 C1309 0.950 . S
C253 C166 1.748 . S
C258 C7 1.622 . S
C283 C188 1.749 . S
C288 C25 1.622 1_455 S
C313 C208 1.749 . S
C318 C49 1.622 1_545 S
C343 C230 1.749 . S
C348 C67 1.622 . S
C373 C250 1.749 . S
C378 C91 1.622 1_655 S
C403 C146 1.749 . S
C408 C109 1.622 1_565 S
C433 C130 1.622 . S
C438 C125 1.749 . S
C463 C154 1.622 1_455 S
C468 C19 1.748 . S
C493 C172 1.622 1_545 S
C498 C41 1.749 . S
C523 C196 1.622 . S
C528 C61 1.749 . S
C553 C214 1.622 1_655 S
C558 C83 1.749 . S
C583 C238 1.622 1_565 S
C588 C103 1.749 . S
C613 C16 1.108 . S
C618 C124 1.008 . S
C643 C24 1.108 . S
C648 C20 1.008 . S
C673 C40 1.008 . S
C678 C58 1.108 . S
C703 C62 1.008 . S
C708 C66 1.108 . S
C733 C82 1.008 . S
C738 C100 1.108 . S
C763 C108 1.108 . S
C768 C104 1.007 . S
C793 C129 1.108 . S
C798 C167 1.007 . S
C823 C163 1.108 . S
C828 C187 1.008 . S
C853 C171 1.108 . S
C858 C209 1.008 . S
C883 C205 1.108 . S
C888 C229 1.007 . S
C913 C213 1.108 . S
C918 C251 1.008 . S
C943 C145 1.008 . S
C948 C247 1.108 . S
C973 C184 0.741 . S
C978 C3 0.741 . S
C1003 C37 0.741 . S
C1008 C192 0.741 . S
C1033 C45 0.741 . S
C1038 C226 0.741 . S
C1063 C79 0.741 . S
C1068 C234 0.741 . S
C1093 C87 0.741 . S
C1098 C142 0.741 . S
C1123 C150 0.741 . S
C1128 C121 0.741 . S
C1153 C4 0.661 . S
C1158 C151 0.661 . S
C1183 C175 0.661 . S
C1188 C28 0.661 . S
C1213 C193 0.661 . S
C1218 C46 0.661 . S
C1243 C217 0.661 . S
C1248 C70 0.661 . S
C1273 C88 0.661 . S
C1278 C235 0.661 . S
C1303 C112 0.661 . S
C1308 C133 0.661 . S
