# Generated by pormake.
# Topology zfd, (5)-cn, num edge types: 1
# Building blocks:
#     Node 0, Type 0, BuildingBlock: XOMCOT_clean_sbu_0, # of connection points: 5
#     Node 1, Type 0, BuildingBlock: XOMCOT_clean_sbu_0, # of connection points: 5
#     Node 2, Type 0, BuildingBlock: XOMCOT_clean_sbu_0, # of connection points: 5
#     Node 3, Type 0, BuildingBlock: XOMCOT_clean_sbu_0, # of connection points: 5
#     Node 4, Type 0, BuildingBlock: XOMCOT_clean_sbu_0, # of connection points: 5
#     Node 5, Type 0, BuildingBlock: XOMCOT_clean_sbu_0, # of connection points: 5
#     Node 6, Type 0, BuildingBlock: XOMCOT_clean_sbu_0, # of connection points: 5
#     Node 7, Type 0, BuildingBlock: XOMCOT_clean_sbu_0, # of connection points: 5
#     Node 8, Type 0, BuildingBlock: XOMCOT_clean_sbu_0, # of connection points: 5
#     Node 9, Type 0, BuildingBlock: XOMCOT_clean_sbu_0, # of connection points: 5
#     Node 10, Type 0, BuildingBlock: XOMCOT_clean_sbu_0, # of connection points: 5
#     Node 11, Type 0, BuildingBlock: XOMCOT_clean_sbu_0, # of connection points: 5
#     Node 12, Type 0, BuildingBlock: XOMCOT_clean_sbu_0, # of connection points: 5
#     Node 13, Type 0, BuildingBlock: XOMCOT_clean_sbu_0, # of connection points: 5
#     Node 14, Type 0, BuildingBlock: XOMCOT_clean_sbu_0, # of connection points: 5
#     Node 15, Type 0, BuildingBlock: XOMCOT_clean_sbu_0, # of connection points: 5
#     Edge 16, Type (0, 0), BuildingBlock: OJICUG_clean_linker_0, # of connection points: 2
#     Edge 17, Type (0, 0), BuildingBlock: OJICUG_clean_linker_0, # of connection points: 2
#     Edge 18, Type (0, 0), BuildingBlock: OJICUG_clean_linker_0, # of connection points: 2
#     Edge 19, Type (0, 0), BuildingBlock: OJICUG_clean_linker_0, # of connection points: 2
#     Edge 20, Type (0, 0), BuildingBlock: OJICUG_clean_linker_0, # of connection points: 2
#     Edge 21, Type (0, 0), BuildingBlock: OJICUG_clean_linker_0, # of connection points: 2
#     Edge 22, Type (0, 0), BuildingBlock: OJICUG_clean_linker_0, # of connection points: 2
#     Edge 23, Type (0, 0), BuildingBlock: OJICUG_clean_linker_0, # of connection points: 2
#     Edge 24, Type (0, 0), BuildingBlock: OJICUG_clean_linker_0, # of connection points: 2
#     Edge 25, Type (0, 0), BuildingBlock: OJICUG_clean_linker_0, # of connection points: 2
#     Edge 26, Type (0, 0), BuildingBlock: OJICUG_clean_linker_0, # of connection points: 2
#     Edge 27, Type (0, 0), BuildingBlock: OJICUG_clean_linker_0, # of connection points: 2
#     Edge 28, Type (0, 0), BuildingBlock: OJICUG_clean_linker_0, # of connection points: 2
#     Edge 29, Type (0, 0), BuildingBlock: OJICUG_clean_linker_0, # of connection points: 2
#     Edge 30, Type (0, 0), BuildingBlock: OJICUG_clean_linker_0, # of connection points: 2
#     Edge 31, Type (0, 0), BuildingBlock: OJICUG_clean_linker_0, # of connection points: 2
#     Edge 32, Type (0, 0), BuildingBlock: OJICUG_clean_linker_0, # of connection points: 2
#     Edge 33, Type (0, 0), BuildingBlock: OJICUG_clean_linker_0, # of connection points: 2
#     Edge 34, Type (0, 0), BuildingBlock: OJICUG_clean_linker_0, # of connection points: 2
#     Edge 35, Type (0, 0), BuildingBlock: OJICUG_clean_linker_0, # of connection points: 2
#     Edge 36, Type (0, 0), BuildingBlock: OJICUG_clean_linker_0, # of connection points: 2
#     Edge 37, Type (0, 0), BuildingBlock: OJICUG_clean_linker_0, # of connection points: 2
#     Edge 38, Type (0, 0), BuildingBlock: OJICUG_clean_linker_0, # of connection points: 2
#     Edge 39, Type (0, 0), BuildingBlock: OJICUG_clean_linker_0, # of connection points: 2
#     Edge 40, Type (0, 0), BuildingBlock: OJICUG_clean_linker_0, # of connection points: 2
#     Edge 41, Type (0, 0), BuildingBlock: OJICUG_clean_linker_0, # of connection points: 2
#     Edge 42, Type (0, 0), BuildingBlock: OJICUG_clean_linker_0, # of connection points: 2
#     Edge 43, Type (0, 0), BuildingBlock: OJICUG_clean_linker_0, # of connection points: 2
#     Edge 44, Type (0, 0), BuildingBlock: OJICUG_clean_linker_0, # of connection points: 2
#     Edge 45, Type (0, 0), BuildingBlock: OJICUG_clean_linker_0, # of connection points: 2
#     Edge 46, Type (0, 0), BuildingBlock: OJICUG_clean_linker_0, # of connection points: 2
#     Edge 47, Type (0, 0), BuildingBlock: OJICUG_clean_linker_0, # of connection points: 2
#     Edge 48, Type (0, 0), BuildingBlock: OJICUG_clean_linker_0, # of connection points: 2
#     Edge 49, Type (0, 0), BuildingBlock: OJICUG_clean_linker_0, # of connection points: 2
#     Edge 50, Type (0, 0), BuildingBlock: OJICUG_clean_linker_0, # of connection points: 2
#     Edge 51, Type (0, 0), BuildingBlock: OJICUG_clean_linker_0, # of connection points: 2
#     Edge 52, Type (0, 0), BuildingBlock: OJICUG_clean_linker_0, # of connection points: 2
#     Edge 53, Type (0, 0), BuildingBlock: OJICUG_clean_linker_0, # of connection points: 2
#     Edge 54, Type (0, 0), BuildingBlock: OJICUG_clean_linker_0, # of connection points: 2
#     Edge 55, Type (0, 0), BuildingBlock: OJICUG_clean_linker_0, # of connection points: 2
# Relax obj value: 0.314
# Max RMSD: 0.228
# Mean RMSD: 0.228
data_MOF--net-zfd--node1-XOMCOT_clean_sbu_0--edge1-OJICUG_clean_linker_0
_symmetry_space_group_name_H-M    P1
_symmetry_Int_Tables_number       1
_symmetry_cell_setting            triclinic
loop_
_symmetry_equiv_pos_as_xyz
'x, y, z'
_cell_length_a     50.736472
_cell_length_b     50.596769
_cell_length_c     14.317756
_cell_angle_alpha  90.188934
_cell_angle_beta   90.122701
_cell_angle_gamma 90.173004
loop_
_atom_site_label
_atom_site_type_symbol
_atom_site_fract_x
_atom_site_fract_y
_atom_site_fract_z
_atom_type_partial_charge
Co0 Co 0.12627 0.22733 0.04561 0.0
C1 C 0.14544 0.21859 0.2351 0.0
C2 C 0.11643 0.19019 0.19423 0.0
C3 C 0.11845 0.18998 0.29021 0.0
N4 N 0.13299 0.20867 0.15997 0.0
N5 N 0.13615 0.2086 0.31566 0.0
H6 H 0.15982 0.23408 0.23217 0.0
H7 H 0.10174 0.17978 0.15336 0.0
C8 C 0.08275 0.24323 0.18654 0.0
O9 O 0.10193 0.252 0.23981 0.0
N10 N 0.11901 0.24602 0.93219 0.0
C11 C 0.13647 0.25418 0.86704 0.0
C12 C 0.12412 0.27183 0.80835 0.0
C13 C 0.09669 0.25897 0.91347 0.0
N14 N 0.09942 0.27518 0.83997 0.0
C15 C 0.16879 0.26199 0.09214 0.0
C16 C 0.14126 0.30889 0.08776 0.0
C17 C 0.16897 0.30989 0.08334 0.0
C18 C 0.18255 0.28592 0.08936 0.0
C19 C 0.12806 0.28424 0.09077 0.0
N20 N 0.1418 0.26092 0.09118 0.0
H21 H 0.18021 0.24403 0.09093 0.0
H22 H 0.10683 0.28404 0.08514 0.0
H23 H 0.15699 0.24855 0.8641 0.0
H24 H 0.07873 0.2569 0.95332 0.0
O25 O 0.15864 0.21342 0.98962 0.0
O26 O 0.12124 0.19264 0.9775 0.0
O27 O 0.0883 0.23496 0.1023 0.0
C28 C 0.1463 0.19324 0.95578 0.0
H29 H 0.10688 0.17796 0.33724 0.0
H30 H 0.13257 0.28163 0.74831 0.0
H31 H 0.12982 0.32686 0.08282 0.0
H32 H 0.20389 0.28549 0.08838 0.0
Co33 Co 0.82611 0.12721 1.03987 0.0
C34 C 0.82491 0.17619 0.14452 0.0
C35 C 0.84154 0.14478 0.22627 0.0
C36 C 0.83671 0.16595 0.28379 0.0
N37 N 0.83376 0.15118 0.13942 0.0
N38 N 0.82574 0.18544 0.23252 0.0
H39 H 0.81667 0.1869 0.08605 0.0
H40 H 0.84932 0.12586 0.24733 0.0
C41 C 0.81078 0.0829 0.19016 0.0
O42 O 0.78624 0.09083 0.19018 0.0
N43 N 0.81778 0.10292 0.94128 0.0
C44 C 0.82427 0.10324 0.84991 0.0
C45 C 0.80925 0.08448 0.80446 0.0
C46 C 0.79917 0.08423 0.94985 0.0
N47 N 0.79338 0.07288 0.86781 0.0
C48 C 0.77529 0.14111 0.97285 0.0
C49 C 0.75258 0.15651 0.13891 0.0
C50 C 0.74041 0.16401 0.05477 0.0
C51 C 0.75163 0.15509 0.97149 0.0
C52 C 0.77642 0.14226 0.13734 0.0
N53 N 0.78803 0.13507 0.05455 0.0
H54 H 0.78447 0.13734 0.90634 0.0
H55 H 0.78646 0.1391 0.20289 0.0
H56 H 0.83831 0.11637 0.81749 0.0
H57 H 0.78922 0.07968 1.01431 0.0
O58 O 0.83227 0.15585 0.94928 0.0
O59 O 0.86374 0.12981 0.99453 0.0
O60 O 0.82769 0.09447 0.13473 0.0
C61 C 0.85697 0.15002 0.94276 0.0
H62 H 0.84169 0.16721 0.35725 0.0
H63 H 0.81049 0.07921 0.73125 0.0
H64 H 0.74482 0.1632 0.20527 0.0
H65 H 0.74297 0.16013 0.90468 0.0
Co66 Co 0.94705 0.81655 0.98932 0.0
C67 C 0.89705 0.82521 0.07705 0.0
C68 C 0.9284 0.8339 0.17376 0.0
C69 C 0.90464 0.83811 0.21695 0.0
N70 N 0.92335 0.8263 0.08554 0.0
N71 N 0.88506 0.83292 0.15527 0.0
H72 H 0.88662 0.82094 1.0128 0.0
H73 H 0.94773 0.83734 0.20328 0.0
C74 C 0.99445 0.79759 0.11444 0.0
O75 O 0.99087 0.77395 0.07892 0.0
N76 N 0.97017 0.8055 0.88975 0.0
C77 C 0.97552 0.81843 0.80968 0.0
C78 C 0.98599 0.80082 0.74668 0.0
C79 C 0.97796 0.78044 0.8742 0.0
N80 N 0.98695 0.77681 0.78727 0.0
C81 C 0.92345 0.76767 0.9363 0.0
C82 C 0.91831 0.74548 0.11096 0.0
C83 C 0.90573 0.73306 1.0346 0.0
C84 C 0.9091 0.7443 0.94631 0.0
C85 C 0.93323 0.76877 0.09748 0.0
N86 N 0.93563 0.77974 1.01057 0.0
H87 H 0.92404 0.77663 0.86796 0.0
H88 H 0.94155 0.77871 0.15764 0.0
H89 H 0.97161 0.83903 0.79616 0.0
H90 H 0.976 0.76453 0.92348 0.0
O91 O 0.91991 0.82462 0.89543 0.0
O92 O 0.94762 0.85441 0.94438 0.0
O93 O 0.97877 0.81637 0.08737 0.0
C94 C 0.92724 0.84905 0.89123 0.0
H95 H 0.90199 0.84738 0.28459 0.0
H96 H 0.99319 0.80554 0.67757 0.0
H97 H 0.91605 0.73769 0.18084 0.0
H98 H 0.89932 0.73602 0.88553 0.0
Co99 Co 0.2272 0.94091 1.01497 0.0
C100 C 0.23345 0.90056 0.15497 0.0
C101 C 0.21297 0.93413 0.21067 0.0
C102 C 0.22003 0.91791 0.28315 0.0
N103 N 0.22168 0.92326 0.1307 0.0
N104 N 0.23336 0.89702 0.24802 0.0
H105 H 0.24315 0.88764 0.10556 0.0
H106 H 0.20301 0.95292 0.21654 0.0
C107 C 0.24686 0.99419 0.10887 0.0
O108 O 0.26955 0.99117 0.06655 0.0
N109 N 0.23339 0.95866 0.89679 0.0
C110 C 0.21868 0.95704 0.81818 0.0
C111 C 0.23404 0.96359 0.74285 0.0
C112 C 0.25704 0.96739 0.86753 0.0
N113 N 0.25849 0.96942 0.77393 0.0
C114 C 0.27494 0.91807 0.95379 0.0
C115 C 0.30446 0.92204 0.11484 0.0
C116 C 0.3142 0.90662 1.04017 0.0
C117 C 0.29918 0.90546 0.9585 0.0
C118 C 0.27998 0.93521 0.10627 0.0
N119 N 0.26525 0.93286 1.02628 0.0
H120 H 0.26335 0.91501 0.89134 0.0
H121 H 0.27212 0.94561 0.16607 0.0
H122 H 0.19841 0.95067 0.81382 0.0
H123 H 0.27352 0.97054 0.91361 0.0
O124 O 0.21891 0.90813 0.94737 0.0
O125 O 0.18866 0.93689 0.98129 0.0
O126 O 0.22828 0.97711 0.09152 0.0
C127 C 0.19438 0.91431 0.94095 0.0
H128 H 0.21498 0.92091 0.35581 0.0
H129 H 0.22743 0.96423 0.67104 0.0
H130 H 0.31524 0.92327 0.18006 0.0
H131 H 0.30525 0.89339 0.89979 0.0
Co132 Co 0.12122 0.81427 0.55926 0.0
C133 C 0.17218 0.82514 0.47947 0.0
C134 C 0.14123 0.83708 0.38573 0.0
C135 C 0.16486 0.83826 0.33937 0.0
N136 N 0.14595 0.82855 0.47307 0.0
N137 N 0.18407 0.83021 0.39813 0.0
H138 H 0.18231 0.81792 0.54085 0.0
H139 H 0.12205 0.84129 0.35657 0.0
C140 C 0.08268 0.79641 0.39541 0.0
O141 O 0.09377 0.77307 0.39743 0.0
N142 N 0.09668 0.79894 0.64566 0.0
C143 C 0.09463 0.80253 0.73872 0.0
C144 C 0.07991 0.78211 0.77473 0.0
C145 C 0.08322 0.77661 0.62708 0.0
N146 N 0.07313 0.76559 0.70419 0.0
C147 C 0.14203 0.76429 0.61144 0.0
C148 C 0.16418 0.74973 0.44365 0.0
C149 C 0.17122 0.73562 0.52448 0.0
C150 C 0.15906 0.74274 0.60823 0.0
C151 C 0.14631 0.77099 0.44941 0.0
N152 N 0.13562 0.77854 0.53333 0.0
H153 H 0.13584 0.7708 0.67969 0.0
H154 H 0.14262 0.78239 0.38713 0.0
H155 H 0.10371 0.81823 0.77874 0.0
H156 H 0.08174 0.76776 0.55899 0.0
O157 O 0.14609 0.8217 0.6613 0.0
O158 O 0.11685 0.85043 0.61692 0.0
O159 O 0.09101 0.8143 0.45432 0.0
C160 C 0.1367 0.84521 0.67248 0.0
H161 H 0.16787 0.84523 0.26876 0.0
H162 H 0.07378 0.7802 0.84678 0.0
H163 H 0.17319 0.74509 0.37713 0.0
H164 H 0.16434 0.73315 0.67314 0.0
Co165 Co 0.23998 0.11563 0.57392 0.0
C166 C 0.22307 0.16982 0.54076 0.0
C167 C 0.21923 0.14649 0.41585 0.0
C168 C 0.20893 0.17116 0.40032 0.0
N169 N 0.22773 0.14563 0.5047 0.0
N170 N 0.2107 0.18548 0.48005 0.0
H171 H 0.22581 0.17532 0.61305 0.0
H172 H 0.21871 0.12995 0.36796 0.0
C173 C 0.25309 0.08204 0.39133 0.0
O174 O 0.27693 0.09211 0.39198 0.0
N175 N 0.253 0.0861 0.64361 0.0
C176 C 0.24968 0.08018 0.73455 0.0
C177 C 0.26717 0.06054 0.75757 0.0
C178 C 0.27243 0.07021 0.61347 0.0
N179 N 0.28162 0.05457 0.68124 0.0
C180 C 0.29189 0.1293 0.63173 0.0
C181 C 0.30677 0.1577 0.47657 0.0
C182 C 0.32172 0.16043 0.55892 0.0
C183 C 0.31442 0.14517 0.63583 0.0
C184 C 0.28414 0.14151 0.47534 0.0
N185 N 0.27655 0.12766 0.55296 0.0
H186 H 0.28565 0.12015 0.69591 0.0
H187 H 0.27201 0.1415 0.41337 0.0
H188 H 0.23587 0.08946 0.78152 0.0
H189 H 0.28012 0.07003 0.54361 0.0
O190 O 0.23542 0.13574 0.69029 0.0
O191 O 0.20367 0.11226 0.62929 0.0
O192 O 0.23653 0.08995 0.45506 0.0
C193 C 0.21085 0.12889 0.69489 0.0
H194 H 0.1974 0.17671 0.33975 0.0
H195 H 0.26807 0.05028 0.82376 0.0
H196 H 0.31144 0.16931 0.41539 0.0
H197 H 0.32531 0.14645 0.70086 0.0
Co198 Co 0.94307 0.24361 0.5703 0.0
C199 C 0.8943 0.24326 0.46627 0.0
C200 C 0.9251 0.22385 0.38935 0.0
C201 C 0.90416 0.22811 0.33053 0.0
N202 N 0.91898 0.23382 0.47376 0.0
N203 N 0.88515 0.24087 0.37867 0.0
H204 H 0.88396 0.25331 0.52203 0.0
H205 H 0.9438 0.2152 0.37042 0.0
C206 C 0.98738 0.2563 0.4183 0.0
O207 O 0.98143 0.28147 0.42007 0.0
N208 N 0.96728 0.25409 0.66707 0.0
C209 C 0.96612 0.24984 0.76 0.0
C210 C 0.98629 0.26364 0.80212 0.0
C211 C 0.98777 0.27054 0.65453 0.0
N212 N 0.99975 0.27665 0.73534 0.0
C213 C 0.92918 0.29658 0.61993 0.0
C214 C 0.9165 0.31487 0.44434 0.0
C215 C 0.90864 0.32998 0.52211 0.0
C216 C 0.91609 0.32079 0.6106 0.0
C217 C 0.9296 0.29067 0.45671 0.0
N218 N 0.93551 0.28132 0.54408 0.0
H219 H 0.93217 0.28914 0.68968 0.0
H220 H 0.93332 0.27871 0.39556 0.0
H221 H 0.9518 0.23774 0.79565 0.0
H222 H 0.99389 0.27812 0.58791 0.0
O223 O 0.91467 0.23875 0.66292 0.0
O224 O 0.94105 0.2068 0.6232 0.0
O225 O 0.97517 0.24009 0.47447 0.0
C226 C 0.92083 0.21409 0.67373 0.0
H227 H 0.90278 0.22184 0.2583 0.0
H228 H 0.99147 0.26305 0.87548 0.0
H229 H 0.9115 0.32102 0.37417 0.0
H230 H 0.91009 0.3311 0.67337 0.0
Co231 Co 0.82752 0.94096 0.56463 0.0
C232 C 0.82982 0.91486 0.3827 0.0
C233 C 0.86517 0.93679 0.41057 0.0
C234 C 0.86672 0.92603 0.3222 0.0
N235 N 0.8421 0.92928 0.44865 0.0
N236 N 0.84427 0.91243 0.30551 0.0
H237 H 0.81053 0.90625 0.38819 0.0
H238 H 0.87981 0.94905 0.44469 0.0
C239 C 0.81708 0.9844 0.41463 0.0
O240 O 0.80878 0.96529 0.35993 0.0
N241 N 0.81209 0.95227 0.67981 0.0
C242 C 0.80323 0.93644 0.74901 0.0
C243 C 0.78577 0.95042 0.80336 0.0
C244 C 0.79971 0.9753 0.69219 0.0
N245 N 0.78319 0.97456 0.76547 0.0
C246 C 0.78869 0.90113 0.54109 0.0
C247 C 0.74435 0.93235 0.53292 0.0
C248 C 0.74133 0.90496 0.54782 0.0
C249 C 0.76398 0.88948 0.54885 0.0
C250 C 0.76995 0.94353 0.52612 0.0
N251 N 0.79193 0.9279 0.53157 0.0
H252 H 0.80546 0.88814 0.54347 0.0
H253 H 0.77201 0.96476 0.52196 0.0
H254 H 0.80781 0.91571 0.75673 0.0
H255 H 0.80224 0.99225 0.64732 0.0
O256 O 0.83916 0.90836 0.6257 0.0
O257 O 0.86403 0.94317 0.62269 0.0
O258 O 0.82313 0.97882 0.50117 0.0
C259 C 0.86124 0.91872 0.65074 0.0
H260 H 0.88366 0.92671 0.27638 0.0
H261 H 0.77552 0.94341 0.86476 0.0
H262 H 0.72724 0.94508 0.53101 0.0
H263 H 0.7627 0.86823 0.55717 0.0
Co264 Co 0.61912 0.74459 0.49965 0.0
C265 C 0.66009 0.74394 0.64189 0.0
C266 C 0.62688 0.72002 0.6809 0.0
C267 C 0.64313 0.72285 0.75711 0.0
N268 N 0.63743 0.73355 0.60939 0.0
N269 N 0.66374 0.73833 0.73283 0.0
H270 H 0.6728 0.75665 0.60115 0.0
H271 H 0.60813 0.7098 0.67909 0.0
C272 C 0.56787 0.76388 0.60566 0.0
O273 O 0.5714 0.7874 0.56959 0.0
N274 N 0.60061 0.75623 0.38824 0.0
C275 C 0.59807 0.74323 0.3062 0.0
C276 C 0.58955 0.76058 0.2393 0.0
C277 C 0.59287 0.78115 0.36957 0.0
N278 N 0.5867 0.78462 0.27904 0.0
C279 C 0.64434 0.79292 0.45631 0.0
C280 C 0.64132 0.81857 0.6259 0.0
C281 C 0.65593 0.8304 0.55319 0.0
C282 C 0.65678 0.81723 0.46748 0.0
C283 C 0.62816 0.79417 0.61068 0.0
N284 N 0.62983 0.78152 0.5261 0.0
H285 H 0.64669 0.78298 0.39004 0.0
H286 H 0.61799 0.78483 0.66814 0.0
H287 H 0.60219 0.72259 0.2941 0.0
H288 H 0.59256 0.79689 0.4204 0.0
O289 O 0.65026 0.73637 0.4234 0.0
O290 O 0.61957 0.70725 0.44917 0.0
O291 O 0.58408 0.74522 0.58165 0.0
C292 C 0.64192 0.71268 0.40747 0.0
H293 H 0.6401 0.71393 0.82485 0.0
H294 H 0.58464 0.75548 0.16788 0.0
H295 H 0.64058 0.82776 0.69424 0.0
H296 H 0.66834 0.82491 0.41005 0.0
Co297 Co 0.34308 0.62429 0.53192 0.0
C298 C 0.35483 0.63899 0.72476 0.0
C299 C 0.38155 0.61012 0.672 0.0
C300 C 0.38339 0.61031 0.76811 0.0
N301 N 0.36317 0.62781 0.64522 0.0
N302 N 0.36577 0.62788 0.80081 0.0
H303 H 0.33976 0.65379 0.72831 0.0
H304 H 0.39091 0.59607 0.62573 0.0
C305 C 0.32589 0.57935 0.66505 0.0
O306 O 0.31825 0.59838 0.72093 0.0
N307 N 0.32313 0.62032 0.4183 0.0
C308 C 0.316 0.63966 0.35823 0.0
C309 C 0.29743 0.62977 0.29696 0.0
C310 C 0.30867 0.59925 0.39377 0.0
N311 N 0.29251 0.60467 0.32177 0.0
C312 C 0.31028 0.66648 0.59325 0.0
C313 C 0.26294 0.64001 0.57396 0.0
C314 C 0.2628 0.66779 0.57427 0.0
C315 C 0.28685 0.68082 0.58862 0.0
C316 C 0.28701 0.62626 0.57897 0.0
N317 N 0.3106 0.6395 0.58496 0.0
H318 H 0.3285 0.67751 0.59685 0.0
H319 H 0.28663 0.60513 0.56848 0.0
H320 H 0.32294 0.65986 0.36046 0.0
H321 H 0.30948 0.58037 0.42892 0.0
O322 O 0.35724 0.65769 0.48447 0.0
O323 O 0.37683 0.62038 0.45772 0.0
O324 O 0.33424 0.58545 0.58114 0.0
C325 C 0.37653 0.64597 0.4436 0.0
H326 H 0.39578 0.59773 0.81045 0.0
H327 H 0.28801 0.64015 0.24 0.0
H328 H 0.24486 0.62901 0.563 0.0
H329 H 0.28778 0.7022 0.59189 0.0
Co330 Co 0.43304 0.33401 0.55101 0.0
C331 C 0.38924 0.33119 0.67755 0.0
C332 C 0.42235 0.35044 0.74236 0.0
C333 C 0.40443 0.3439 0.81029 0.0
N334 N 0.41287 0.34208 0.65952 0.0
N335 N 0.38392 0.33122 0.76944 0.0
H336 H 0.37713 0.3216 0.62507 0.0
H337 H 0.44146 0.3594 0.75362 0.0
C338 C 0.48296 0.31442 0.66526 0.0
O339 O 0.47843 0.29037 0.63501 0.0
N340 N 0.45326 0.3249 0.44128 0.0
C341 C 0.45465 0.33734 0.35815 0.0
C342 C 0.46564 0.32039 0.29388 0.0
C343 C 0.46381 0.30095 0.42601 0.0
N344 N 0.47088 0.29728 0.33682 0.0
C345 C 0.4108 0.28577 0.49043 0.0
C346 C 0.41007 0.25797 0.65543 0.0
C347 C 0.39734 0.24705 0.57639 0.0
C348 C 0.39829 0.26137 0.4933 0.0
C349 C 0.423 0.28272 0.64915 0.0
N350 N 0.42332 0.2964 0.56667 0.0
H351 H 0.40978 0.2966 0.42568 0.0
H352 H 0.43143 0.29143 0.71152 0.0
H353 H 0.44787 0.35711 0.34358 0.0
H354 H 0.46478 0.28567 0.47769 0.0
O355 O 0.40241 0.34213 0.47216 0.0
O356 O 0.43147 0.37207 0.50868 0.0
O357 O 0.46763 0.33334 0.63655 0.0
C358 C 0.40971 0.36639 0.46317 0.0
H359 H 0.40622 0.34849 0.88393 0.0
H360 H 0.47018 0.32512 0.22202 0.0
H361 H 0.40954 0.24782 0.72185 0.0
H362 H 0.38814 0.25452 0.43111 0.0
Co363 Co 0.73653 0.44006 0.53654 0.0
C364 C 0.72579 0.40519 0.69346 0.0
C365 C 0.74703 0.43987 0.73426 0.0
C366 C 0.74998 0.4215 0.80339 0.0
N367 N 0.7321 0.42957 0.6644 0.0
N368 N 0.73727 0.39951 0.77601 0.0
H369 H 0.71487 0.39109 0.65161 0.0
H370 H 0.75809 0.45809 0.73105 0.0
C371 C 0.72639 0.49357 0.62647 0.0
O372 O 0.70165 0.48591 0.62343 0.0
N373 N 0.7422 0.45033 0.41066 0.0
C374 C 0.75317 0.43556 0.34242 0.0
C375 C 0.74424 0.44466 0.25741 0.0
C376 C 0.72686 0.4678 0.36749 0.0
N377 N 0.72715 0.46441 0.27438 0.0
C378 C 0.7769 0.40246 0.56015 0.0
C379 C 0.82041 0.43315 0.5199 0.0
C380 C 0.82356 0.40563 0.53073 0.0
C381 C 0.80144 0.39061 0.55326 0.0
C382 C 0.79494 0.44451 0.52744 0.0
N383 N 0.77349 0.42896 0.54625 0.0
H384 H 0.76033 0.38965 0.57246 0.0
H385 H 0.79233 0.46537 0.51428 0.0
H386 H 0.76512 0.4182 0.35381 0.0
H387 H 0.71468 0.4819 0.40444 0.0
O388 O 0.72297 0.40631 0.48696 0.0
O389 O 0.69745 0.44016 0.50919 0.0
O390 O 0.74385 0.47846 0.58708 0.0
C391 C 0.69974 0.41616 0.47575 0.0
H392 H 0.76191 0.42353 0.86577 0.0
H393 H 0.7492 0.43694 0.1891 0.0
H394 H 0.83712 0.44548 0.50212 0.0
H395 H 0.80293 0.36942 0.5627 0.0
Co396 Co 0.61282 0.32474 0.10135 0.0
C397 C 0.66288 0.33223 1.01169 0.0
C398 C 0.63144 0.34684 0.92511 0.0
C399 C 0.65433 0.34685 0.87431 0.0
N400 N 0.63695 0.33741 1.01071 0.0
N401 N 0.6738 0.33722 0.92872 0.0
H402 H 0.67347 0.32415 0.07072 0.0
H403 H 0.6122 0.3527 0.90036 0.0
C404 C 0.57105 0.30978 0.94356 0.0
O405 O 0.57976 0.28545 0.946 0.0
N406 N 0.58863 0.3111 0.19198 0.0
C407 C 0.58704 0.31566 0.28458 0.0
C408 C 0.57004 0.29736 0.32233 0.0
C409 C 0.573 0.29015 0.17556 0.0
N410 N 0.56145 0.28119 0.25326 0.0
C411 C 0.63096 0.27342 0.14833 0.0
C412 C 0.64826 0.25729 0.97519 0.0
C413 C 0.65612 0.24267 0.05407 0.0
C414 C 0.64646 0.25079 0.14095 0.0
C415 C 0.63252 0.28001 0.98563 0.0
N416 N 0.62411 0.28818 0.07198 0.0
H417 H 0.6264 0.28025 0.21788 0.0
H418 H 0.62853 0.2918 0.92449 0.0
H419 H 0.59741 0.33093 0.32273 0.0
H420 H 0.57036 0.28112 0.10824 0.0
O421 O 0.6397 0.32989 0.19883 0.0
O422 O 0.61232 0.36102 0.16121 0.0
O423 O 0.58136 0.32704 1.00108 0.0
C424 C 0.63248 0.35402 0.21281 0.0
H425 H 0.65679 0.35437 0.80412 0.0
H426 H 0.56331 0.29704 0.39403 0.0
H427 H 0.65503 0.25189 0.9061 0.0
H428 H 0.65241 0.24099 0.20464 0.0
Co429 Co 0.73395 0.6284 1.02931 0.0
C430 C 0.73901 0.6837 0.96616 0.0
C431 C 0.73812 0.65649 0.8511 0.0
C432 C 0.74078 0.68153 0.81689 0.0
N433 N 0.73695 0.6578 0.94483 0.0
N434 N 0.74073 0.69887 0.88898 0.0
H435 H 0.73737 0.69162 1.03612 0.0
H436 H 0.73642 0.63874 0.80942 0.0
C437 C 0.7475 0.58129 0.89727 0.0
O438 O 0.76701 0.5764 0.95503 0.0
N439 N 0.72989 0.59901 0.11219 0.0
C440 C 0.73211 0.59801 0.20619 0.0
C441 C 0.72206 0.57425 0.23626 0.0
C442 C 0.71716 0.57668 0.08792 0.0
N443 N 0.71264 0.5612 0.16125 0.0
C444 C 0.78411 0.63379 0.11932 0.0
C445 C 0.8124 0.64364 0.95893 0.0
C446 C 0.82284 0.65263 1.04459 0.0
C447 C 0.80895 0.64585 0.12572 0.0
C448 C 0.78762 0.63108 0.95579 0.0
N449 N 0.77282 0.6279 1.03495 0.0
H450 H 0.77299 0.63202 0.1826 0.0
H451 H 0.7794 0.62638 0.88822 0.0
H452 H 0.73936 0.61363 0.25094 0.0
H453 H 0.71043 0.57172 1.01855 0.0
O454 O 0.72906 0.65277 0.13485 0.0
O455 O 0.69586 0.63706 0.05562 0.0
O456 O 0.73237 0.60151 0.91489 0.0
C457 C 0.70374 0.65179 0.12588 0.0
H458 H 0.73966 0.68668 0.74363 0.0
H459 H 0.72239 0.56673 0.30697 0.0
H460 H 0.82217 0.64802 0.89367 0.0
H461 H 0.81633 0.65131 0.19411 0.0
Co462 Co 0.44633 0.7474 0.06599 0.0
C463 C 0.39563 0.72274 1.02273 0.0
C464 C 0.41981 0.72507 0.90028 0.0
C465 C 0.39784 0.71017 0.88055 0.0
N466 N 0.41861 0.73251 0.99038 0.0
N467 N 0.3832 0.70796 0.9589 0.0
H468 H 0.38938 0.72329 0.09469 0.0
H469 H 0.43642 0.72808 0.85443 0.0
C470 C 0.48086 0.76484 0.89087 0.0
O471 O 0.46978 0.78818 0.89479 0.0
N472 N 0.47358 0.76289 0.14238 0.0
C473 C 0.47833 0.75916 0.23412 0.0
C474 C 0.49465 0.77902 0.2652 0.0
C475 C 0.48718 0.78482 0.11951 0.0
N476 N 0.49987 0.79534 0.19309 0.0
C477 C 0.42747 0.79789 0.12363 0.0
C478 C 0.40223 0.8126 0.9615 0.0
C479 C 0.39793 0.82774 1.0428 0.0
C480 C 0.41148 0.82032 0.12372 0.0
C481 C 0.41867 0.79018 0.96423 0.0
N482 N 0.43132 0.78294 1.04482 0.0
H483 H 0.43548 0.79169 0.18984 0.0
H484 H 0.42029 0.7782 0.90204 0.0
H485 H 0.47019 0.74363 0.27686 0.0
H486 H 0.48726 0.79362 0.05128 0.0
O487 O 0.42548 0.74013 0.17874 0.0
O488 O 0.45253 0.7112 0.11986 0.0
O489 O 0.47337 0.74702 0.95096 0.0
C490 C 0.43479 0.71634 0.18356 0.0
H491 H 0.39512 0.69826 0.81821 0.0
H492 H 0.50305 0.78061 0.33461 0.0
H493 H 0.39192 0.81715 0.89728 0.0
H494 H 0.40908 0.83122 0.18834 0.0
Co495 Co 0.31806 0.4462 0.07271 0.0
C496 C 0.31941 0.39367 0.99397 0.0
C497 C 0.33615 0.42187 0.89862 0.0
C498 C 0.33274 0.39822 0.85284 0.0
N499 N 0.32742 0.41897 0.98663 0.0
N500 N 0.32168 0.38077 0.91253 0.0
H501 H 0.31089 0.38514 0.05626 0.0
H502 H 0.34359 0.43998 0.86864 0.0
C503 C 0.30645 0.48626 0.90555 0.0
O504 O 0.28144 0.47969 0.90663 0.0
N505 N 0.30792 0.47333 0.15975 0.0
C506 C 0.31144 0.47406 0.25323 0.0
C507 C 0.29744 0.49493 0.28874 0.0
C508 C 0.2918 0.49363 0.14021 0.0
N509 N 0.28504 0.50705 0.21748 0.0
C510 C 0.26569 0.43305 0.12785 0.0
C511 C 0.24947 0.41071 0.96153 0.0
C512 C 0.23588 0.40374 1.0435 0.0
C513 C 0.24353 0.41643 0.12638 0.0
C514 C 0.27144 0.42778 0.96575 0.0
N515 N 0.28039 0.4377 0.04935 0.0
H516 H 0.27262 0.43959 0.19532 0.0
H517 H 0.28274 0.43056 0.90274 0.0
H518 H 0.32297 0.46039 0.29394 0.0
H519 H 0.28488 0.49854 0.07129 0.0
O520 O 0.32236 0.42082 0.17539 0.0
O521 O 0.35475 0.44545 0.12651 0.0
O522 O 0.32229 0.47544 0.96622 0.0
C523 C 0.34706 0.42688 0.18392 0.0
H524 H 0.33875 0.39388 0.78191 0.0
H525 H 0.29742 0.50148 0.36082 0.0
H526 H 0.24417 0.40184 0.89514 0.0
H527 H 0.23405 0.41171 0.19195 0.0
C528 C 0.20543 0.33544 1.00421 0.0
C529 C 0.18408 0.33512 0.0671 0.0
H530 H 0.23809 0.35683 0.94729 0.0
C531 C 0.17841 0.35856 0.11619 0.0
H532 H 0.21022 0.31797 0.96383 0.0
C533 C 0.19447 0.38118 0.10614 0.0
C534 C 0.21646 0.38111 0.04572 0.0
H535 H 0.16215 0.35914 0.16501 0.0
H536 H 0.18991 0.3986 0.14703 0.0
C537 C 0.22129 0.35799 0.99361 0.0
C538 C 0.676 0.19963 0.1122 0.0
C539 C 0.67629 0.22096 0.0487 0.0
H540 H 0.6958 0.16517 0.16459 0.0
C541 C 0.69744 0.22259 0.98555 0.0
H542 H 0.65994 0.19731 0.16115 0.0
C543 C 0.71782 0.20396 0.98709 0.0
C544 C 0.71786 0.18309 0.05208 0.0
H545 H 0.69889 0.23889 0.937 0.0
H546 H 0.73407 0.20644 0.93897 0.0
C547 C 0.69659 0.1811 0.11435 0.0
C548 C 0.86643 0.67017 0.98159 0.0
C549 C 0.84622 0.67114 0.04889 0.0
H550 H 0.90119 0.6884 0.92539 0.0
C551 C 0.84755 0.69139 0.11702 0.0
H552 H 0.86662 0.65477 0.92895 0.0
C553 C 0.86772 0.71048 0.11577 0.0
C554 C 0.88708 0.71019 0.04577 0.0
H555 H 0.83228 0.69343 0.16916 0.0
H556 H 0.86726 0.72634 0.16673 0.0
C557 C 0.88645 0.68943 0.97988 0.0
C558 C 0.362 0.85379 0.12465 0.0
C559 C 0.37821 0.8499 0.04568 0.0
H560 H 0.32948 0.87477 0.18552 0.0
C561 C 0.37479 0.86688 0.96909 0.0
H562 H 0.36366 0.84098 0.18476 0.0
C563 C 0.35519 0.88641 0.97 0.0
C564 C 0.33824 0.88951 0.04728 0.0
H565 H 0.3871 0.86494 0.90779 0.0
H566 H 0.35281 0.89868 0.90873 0.0
C567 C 0.34236 0.87333 0.1255 0.0
C568 C 0.21725 0.72159 0.48094 0.0
C569 C 0.19331 0.71598 0.52605 0.0
H570 H 0.25766 0.71091 0.46054 0.0
C571 C 0.19188 0.69311 0.58203 0.0
H572 H 0.21925 0.73909 0.43814 0.0
C573 C 0.21405 0.67695 0.59551 0.0
C574 C 0.23835 0.68341 0.55431 0.0
H575 H 0.17372 0.68806 0.61748 0.0
H576 H 0.21242 0.66 0.64112 0.0
C577 C 0.23944 0.7056 0.49509 0.0
C578 C 0.36371 0.21737 0.65374 0.0
C579 C 0.38102 0.22229 0.57923 0.0
H580 H 0.33134 0.19439 0.70525 0.0
C581 C 0.38004 0.20518 0.50118 0.0
H582 H 0.36357 0.23024 0.7143 0.0
C583 C 0.36127 0.18484 0.49522 0.0
C584 C 0.34319 0.18068 0.56782 0.0
H585 H 0.39335 0.208 0.443 0.0
H586 H 0.36072 0.17255 0.43315 0.0
C587 C 0.34509 0.19683 0.64815 0.0
C588 C 0.86993 0.39321 0.5776 0.0
C589 C 0.84878 0.39118 0.51453 0.0
H590 H 0.9058 0.37594 0.62858 0.0
C591 C 0.84939 0.371 0.44676 0.0
H592 H 0.86983 0.4083 0.63143 0.0
C593 C 0.86964 0.35224 0.4457 0.0
C594 C 0.89 0.35298 0.51272 0.0
H595 H 0.83317 0.36873 0.39799 0.0
H596 H 0.86822 0.33611 0.39607 0.0
C597 C 0.89033 0.37435 0.57665 0.0
C598 C 0.69573 0.89199 0.49322 0.0
C599 C 0.71536 0.89145 0.56235 0.0
H600 H 0.66104 0.87335 0.43711 0.0
C601 C 0.71221 0.87384 0.63778 0.0
H602 H 0.69762 0.90513 0.43404 0.0
C603 C 0.69127 0.85564 0.63985 0.0
C604 C 0.67303 0.8544 0.56603 0.0
H605 H 0.72702 0.87298 0.69231 0.0
H606 H 0.69068 0.84112 0.69523 0.0
C607 C 0.67485 0.87363 0.4949 0.0
C608 C 1.02983 0.23079 0.3755 0.0
C609 C 1.00937 0.24821 0.35075 0.0
H610 H 0.06854 0.21569 0.34382 0.0
C611 C 1.01211 0.26133 0.26365 0.0
H612 H 1.02911 0.22069 0.442 0.0
C613 C 0.03457 0.25792 0.20551 0.0
C614 C 0.05563 0.24155 0.23251 0.0
H615 H 0.99712 0.27517 0.24158 0.0
H616 H 0.03616 0.26948 0.14222 0.0
C617 C 0.05259 0.2279 0.31838 0.0
C618 C 0.80668 0.03432 0.40009 0.0
C619 C 0.82016 1.01165 0.36868 0.0
H620 H 0.79324 0.07384 0.36971 0.0
C621 C 0.83288 1.01389 0.28062 0.0
H622 H 0.79599 0.0336 0.46544 0.0
C623 C 0.83182 0.03736 0.22581 0.0
C624 C 0.81725 0.05958 0.25508 0.0
H625 H 0.84305 0.9969 0.25211 0.0
H626 H 0.84108 0.03745 0.15774 0.0
C627 C 0.80501 0.05754 0.34413 0.0
C628 C 0.05815 0.78108 0.25004 0.0
C629 C 0.06062 0.80021 0.32183 0.0
H630 H 0.03707 0.76565 0.13249 0.0
C631 C 0.04126 0.82049 0.3214 0.0
H632 H 0.07229 0.76516 0.24474 0.0
C633 C 1.02015 0.82081 0.25378 0.0
C634 C 1.01757 0.80082 0.18416 0.0
H635 H 0.04196 0.83573 0.37459 0.0
H636 H 1.00547 0.83625 0.25789 0.0
C637 C 0.03748 0.78135 0.18407 0.0
C638 C 0.22818 0.04032 0.32215 0.0
C639 C 0.24746 0.0607 0.3161 0.0
H640 H 0.2123 1.0037 0.26396 0.0
C641 C 0.26432 0.05931 0.23764 0.0
H642 H 0.21483 0.04006 0.381 0.0
C643 C 0.26293 0.03862 0.17125 0.0
C644 C 0.24453 1.01768 0.17785 0.0
H645 H 0.27941 0.07422 0.22785 0.0
H646 H 0.27702 0.03889 0.11455 0.0
C647 C 0.22673 1.01925 0.25434 0.0
C648 C 0.04417 0.73703 0.79319 0.0
C649 C 0.05243 0.74624 0.70582 0.0
H650 H 1.01332 0.7403 0.89227 0.0
C651 C 0.0334 0.74756 0.6343 0.0
H652 H 0.05849 0.73314 0.84759 0.0
C653 C 1.00742 0.75249 0.65972 0.0
C654 C 1.00144 0.75434 0.75499 0.0
H655 H 0.03899 0.75172 0.56295 0.0
H656 H 0.99398 0.7602 0.60771 0.0
C657 C 1.01811 0.7414 0.8188 0.0
C658 C 0.27582 0.98798 0.62836 0.0
C659 C 0.27992 0.98086 0.72198 0.0
H660 H 0.27578 1.02056 0.5351 0.0
C661 C 0.30052 0.99363 0.77078 0.0
H662 H 0.26239 0.977 0.58402 0.0
C663 C 0.30791 1.0189 0.74304 0.0
C664 C 0.29493 1.03008 0.66657 0.0
H665 H 0.30699 0.98699 0.83868 0.0
H666 H 0.31851 1.03135 0.79209 0.0
C667 C 0.28396 1.01293 0.5995 0.0
C668 C 0.04499 0.28224 0.67901 0.0
C669 C 1.02541 0.28808 0.74538 0.0
H670 H 0.08588 0.27409 0.65885 0.0
C671 C 0.03268 0.29967 0.83056 0.0
H672 H 0.03992 0.27371 0.61189 0.0
C673 C 0.05909 0.30033 0.85632 0.0
C674 C 0.07804 0.28886 0.79769 0.0
H675 H 1.01786 0.30511 0.88137 0.0
H676 H 0.06418 0.3058 0.92734 0.0
C677 C 0.0714 0.28268 0.70532 0.0
C678 C 0.76732 0.04363 0.76733 0.0
C679 C 0.77813 0.04939 0.85506 0.0
H680 H 0.75829 1.01291 0.67007 0.0
C681 C 0.779 1.02955 0.92357 0.0
H682 H 0.76541 0.05889 0.71493 0.0
C683 C 0.77512 1.00334 0.89772 0.0
C684 C 0.7706 0.99727 0.80366 0.0
H685 H 0.78658 0.0336 0.99289 0.0
H686 H 0.78033 0.988 0.94693 0.0
C687 C 0.76297 1.01744 0.74223 0.0
C688 C 0.54259 0.74067 0.74475 0.0
C689 C 0.54478 0.76063 0.67532 0.0
H690 H 0.52149 0.7257 0.86633 0.0
C691 C 0.52481 0.78003 0.67661 0.0
H692 H 0.55737 0.72532 0.7481 0.0
C693 C 0.50442 0.78023 0.74366 0.0
C694 C 0.50235 0.76108 0.81518 0.0
H695 H 0.52502 0.79578 0.62555 0.0
H696 H 0.49024 0.79614 0.73968 0.0
C697 C 0.52181 0.7409 0.81332 0.0
C698 C 0.33732 0.52376 0.84513 0.0
C699 C 0.31484 0.50749 0.83432 0.0
H700 H 0.35863 0.55848 0.79999 0.0
C701 C 0.29845 0.51326 0.75632 0.0
H702 H 0.35043 0.52062 0.90379 0.0
C703 C 0.30353 0.53475 0.69496 0.0
C704 C 0.32535 0.55167 0.7079 0.0
H705 H 0.28085 0.50159 0.74412 0.0
H706 H 0.28934 0.53908 0.64055 0.0
C707 C 0.3422 0.54552 0.7842 0.0
C708 C 0.54825 0.29839 0.79074 0.0
C709 C 0.54974 0.31547 0.86899 0.0
H710 H 0.52767 0.28517 0.66849 0.0
C711 C 0.5296 0.33489 0.87491 0.0
H712 H 0.56306 0.28327 0.78084 0.0
C713 C 0.50848 0.33605 0.80749 0.0
C714 C 0.50676 0.31787 0.73168 0.0
H715 H 0.52947 0.34845 0.93353 0.0
H716 H 0.49296 0.35042 0.81725 0.0
C717 C 0.52758 0.29952 0.72483 0.0
C718 C 0.71772 0.55746 0.77575 0.0
C719 C 0.74252 0.56113 0.81854 0.0
H720 H 0.69336 0.53401 0.68362 0.0
C721 C 0.76267 0.54327 0.79086 0.0
H722 H 0.70151 0.57028 0.79453 0.0
C723 C 0.75814 0.52244 0.72564 0.0
C724 C 0.73306 0.51811 0.68573 0.0
H725 H 0.78214 0.54504 0.82135 0.0
H726 H 0.77412 0.50907 0.70945 0.0
C727 C 0.71307 0.53636 0.71164 0.0
C728 C 0.52879 0.25677 0.34183 0.0
C729 C 0.53789 0.26558 0.25523 0.0
H730 H 0.49756 0.25978 0.43867 0.0
C731 C 0.5193 0.26942 0.18337 0.0
H732 H 0.54263 0.25151 0.39637 0.0
C733 C 0.49346 0.2752 0.20779 0.0
C734 C 0.48683 0.27598 0.30265 0.0
H735 H 0.52542 0.27394 0.11285 0.0
H736 H 0.48053 0.28359 0.15554 0.0
C737 C 0.50283 0.26197 0.36604 0.0
C738 C 0.72608 0.51774 0.10803 0.0
C739 C 0.7079 0.5336 0.15595 0.0
H740 H 0.74659 0.48102 0.10958 0.0
C741 C 0.68945 0.52207 0.21533 0.0
H742 H 0.74014 0.52652 0.06038 0.0
C743 C 0.69229 0.49571 0.23968 0.0
C744 C 0.71475 0.48184 0.2099 0.0
H745 H 0.67492 0.53412 0.25065 0.0
H746 H 0.6798 0.48777 0.29409 0.0
C747 C 0.7296 0.49166 0.13535 0.0
C748 C 0.55606 0.82134 0.29985 0.0
C749 C 0.57251 0.80658 0.24035 0.0
H750 H 0.51577 0.83041 0.32681 0.0
C751 C 0.56625 0.8061 0.14478 0.0
H752 H 0.56113 0.82472 0.37229 0.0
C753 C 0.5401 0.8099 0.11852 0.0
C754 C 0.52133 0.81373 0.18927 0.0
H755 H 0.57962 0.79729 0.09481 0.0
H756 H 0.53418 0.80345 0.04939 0.0
C757 C 0.52991 0.82501 0.27353 0.0
C758 C 0.28369 0.57841 0.18364 0.0
C759 C 0.27682 0.58538 0.27501 0.0
H760 H 0.29161 0.54618 0.09181 0.0
C761 C 0.26257 0.56748 0.32992 0.0
H762 H 0.29439 0.59219 0.14002 0.0
C763 C 0.26124 0.54109 0.30327 0.0
C764 C 0.2739 0.53292 0.22135 0.0
H765 H 0.25665 0.57291 0.40005 0.0
H766 H 0.25393 0.52667 0.35268 0.0
C767 C 0.28224 0.55199 0.15654 0.0
C768 C 0.18902 0.22743 0.46407 0.0
C769 C 0.19011 0.20286 0.50777 0.0
H770 H 0.16671 0.25116 0.37102 0.0
C771 C 0.16623 0.19055 0.53233 0.0
H772 H 0.20695 0.2384 0.45035 0.0
C773 C 0.14404 0.19581 0.47818 0.0
C774 C 0.14615 0.21476 0.40729 0.0
H775 H 0.16646 0.17242 0.57239 0.0
H776 H 0.12783 0.1819 0.47989 0.0
C777 C 0.16613 0.23407 0.41612 0.0
C778 C 0.8361 0.23151 0.2075 0.0
C779 C 0.8232 0.21238 0.26164 0.0
H780 H 0.86885 0.25804 0.20883 0.0
C781 C 0.82017 0.21735 0.3575 0.0
H782 H 0.83717 0.22946 0.13231 0.0
C783 C 0.83845 0.23378 0.4016 0.0
C784 C 0.85869 0.24481 0.34754 0.0
H785 H 0.8086 0.20402 0.40006 0.0
H786 H 0.84031 0.23257 0.47681 0.0
C787 C 0.85438 0.24795 0.25142 0.0
C788 C 0.83369 0.86641 0.27231 0.0
C789 C 0.84092 0.89161 0.23932 0.0
H790 H 0.84337 0.82543 0.26649 0.0
C791 C 0.85199 0.89406 0.15057 0.0
H792 H 0.82431 0.86394 0.33955 0.0
C793 C 0.86152 0.8716 0.10638 0.0
C794 C 0.86123 0.84747 0.15481 0.0
H795 H 0.85682 0.91335 0.12275 0.0
H796 H 0.87403 0.87418 0.04585 0.0
C797 C 0.84424 0.84416 0.23013 0.0
C798 C 0.23547 0.84888 0.24916 0.0
C799 C 0.23933 0.873 0.29645 0.0
H800 H 0.21288 0.81329 0.2513 0.0
C801 C 0.23836 0.87295 0.39447 0.0
H802 H 0.23802 0.84734 0.17438 0.0
C803 C 0.22425 0.85298 0.43878 0.0
C804 C 0.21159 0.8339 0.38331 0.0
H805 H 0.24337 0.89056 0.43391 0.0
H806 H 0.21829 0.85609 0.51057 0.0
C807 C 0.22126 0.82904 0.29344 0.0
C808 C 0.91778 0.89576 0.81974 0.0
C809 C 0.91234 0.86833 0.82809 0.0
H810 H 0.90666 0.93339 0.75797 0.0
C811 C 0.89103 0.85853 0.77472 0.0
H812 H 0.93389 0.90436 0.85923 0.0
C813 C 0.87564 0.87495 0.71742 0.0
C814 C 0.88049 0.90234 0.7092 0.0
H815 H 0.88581 0.83778 0.77762 0.0
H816 H 0.85944 0.86589 0.67958 0.0
C817 C 0.90213 0.9125 0.76108 0.0
C818 C 0.14106 0.89025 0.76181 0.0
C819 C 0.14886 0.86373 0.74576 0.0
H820 H 0.14852 0.92709 0.8361 0.0
C821 C 0.16997 0.85433 0.80066 0.0
H822 H 0.12498 0.89849 0.72164 0.0
C823 C 0.18326 0.87053 0.86569 0.0
C824 C 0.17621 0.89714 0.88071 0.0
H825 H 0.17684 0.83422 0.79225 0.0
H826 H 0.19976 0.86214 0.90338 0.0
C827 C 0.15449 0.90668 0.8284 0.0
C828 C 0.16485 0.14142 0.76331 0.0
C829 C 0.19279 0.14209 0.7665 0.0
H830 H 0.12802 0.15644 0.81951 0.0
C831 C 0.20425 0.15812 0.83651 0.0
H832 H 0.15503 0.12967 0.71028 0.0
C833 C 0.18893 0.17342 0.8981 0.0
C834 C 0.16114 0.17358 0.89409 0.0
H835 H 0.22549 0.15949 0.84268 0.0
H836 H 0.19917 0.18573 0.94854 0.0
C837 C 0.14927 0.15686 0.82629 0.0
C838 C 0.86635 0.19049 0.84297 0.0
C839 C 0.87491 0.16569 0.87641 0.0
H840 H 0.87344 0.22439 0.75667 0.0
C841 C 0.8994 0.15658 0.84142 0.0
H842 H 0.84779 0.19856 0.86686 0.0
C843 C 0.91432 0.17163 0.77521 0.0
C844 C 0.90552 0.19655 0.74248 0.0
H845 H 0.90687 0.13762 0.86396 0.0
H846 H 0.93285 0.1638 0.75023 0.0
C847 C 0.88126 0.20551 0.77872 0.0
C848 C 0.7338 0.73784 0.79367 0.0
C849 C 0.73055 0.72522 0.88013 0.0
H850 H 0.71324 0.75068 0.67224 0.0
C851 C 0.70801 0.73155 0.93256 0.0
H852 H 0.75184 0.73511 0.75453 0.0
C853 C 0.68564 0.74035 0.88574 0.0
C854 C 0.68664 0.74392 0.78862 0.0
H855 H 0.70556 0.72426 1.003 0.0
H856 H 0.667 0.74047 0.92239 0.0
C857 C 0.71144 0.7464 0.7459 0.0
C858 C 0.34021 0.65379 0.91176 0.0
C859 C 0.36152 0.6366 0.89502 0.0
H860 H 0.33175 0.69442 0.94102 0.0
C861 C 0.3834 0.63834 0.9545 0.0
H862 H 0.32179 0.65121 0.8745 0.0
C863 C 0.38803 0.66216 1.00056 0.0
C864 C 0.37108 0.68353 0.98297 0.0
H865 H 0.39942 0.62435 0.94924 0.0
H866 H 0.40745 0.66567 1.02975 0.0
C867 C 0.3456 0.67843 0.95087 0.0
C868 C 0.33778 0.33793 0.95458 0.0
C869 C 0.32067 0.35283 0.89873 0.0
H870 H 0.37474 0.31791 0.95121 0.0
C871 C 0.31596 0.34396 0.80736 0.0
H872 H 0.34018 0.34265 1.02795 0.0
C873 C 0.33592 0.33005 0.76249 0.0
C874 C 0.35923 0.32483 0.81237 0.0
H875 H 0.30118 0.3536 0.76484 0.0
H876 H 0.33535 0.32894 0.68704 0.0
C877 C 0.35788 0.32405 0.91029 0.0
C878 C 0.73177 0.37635 0.92365 0.0
C879 C 0.73464 0.37537 0.82635 0.0
H880 H 0.70899 0.36216 1.03771 0.0
C881 C 0.72722 0.35233 0.77798 0.0
H882 H 0.73832 0.39337 0.96344 0.0
C883 C 0.71008 0.33469 0.82042 0.0
C884 C 0.70112 0.34027 0.9106 0.0
H885 H 0.73088 0.35033 0.70383 0.0
H886 H 0.70014 0.31999 0.77782 0.0
C887 C 0.71508 0.3583 0.96651 0.0
C888 C 0.39043 0.42036 0.28006 0.0
C889 C 0.36415 0.41311 0.25734 0.0
H890 H 0.42543 0.41218 0.36291 0.0
C891 C 0.35341 0.39164 0.30733 0.0
H892 H 0.39963 0.43674 0.24406 0.0
C893 C 0.36807 0.3777 0.37474 0.0
C894 C 0.39433 0.38449 0.39737 0.0
H895 H 0.33342 0.38513 0.29347 0.0
H896 H 0.35867 0.3611 0.4089 0.0
C897 C 0.40523 0.40636 0.34924 0.0
C898 C 0.68258 0.37371 0.40372 0.0
C899 C 0.67933 0.40113 0.41706 0.0
H900 H 0.67099 0.33823 0.33287 0.0
C901 C 0.659 0.41329 0.36439 0.0
H902 H 0.69787 0.36332 0.44154 0.0
C903 C 0.64318 0.3985 0.29953 0.0
C904 C 0.64716 0.37106 0.28509 0.0
H905 H 0.65597 0.4344 0.37056 0.0
H906 H 0.62832 0.40871 0.25916 0.0
C907 C 0.66698 0.35915 0.34007 0.0
C908 C 0.69782 0.68683 0.25079 0.0
C909 C 0.68631 0.66672 0.19542 0.0
H910 H 0.6935 0.71615 0.35806 0.0
C911 C 0.65943 0.66088 0.21323 0.0
H912 H 0.7183 0.69217 0.24082 0.0
C913 C 0.64493 0.6747 0.28381 0.0
C914 C 0.65672 0.69505 0.33815 0.0
H915 H 0.64967 0.64546 0.17346 0.0
H916 H 0.62436 0.66984 0.29431 0.0
C917 C 0.68343 0.70069 0.31934 0.0
C918 C 0.4109 0.65185 0.30895 0.0
C919 C 0.39503 0.66221 0.38167 0.0
H920 H 0.43604 0.6602 0.18972 0.0
C921 C 0.39459 0.69002 0.39066 0.0
H922 H 0.41174 0.63069 0.29812 0.0
C923 C 0.40832 0.70676 0.32907 0.0
C924 C 0.42346 0.69681 0.25447 0.0
H925 H 0.3829 0.6992 0.44495 0.0
H926 H 0.40647 0.7279 0.33909 0.0
C927 C 0.42491 0.66889 0.24639 0.0
loop_
_geom_bond_atom_site_label_1
_geom_bond_atom_site_label_2
_geom_bond_distance
_geom_bond_site_symmetry_2
_ccdc_geom_bond_type
Co0 N4 2.148 1_556 S
Co0 N10 2.128 . S
Co0 N20 2.194 1_556 S
Co0 O25 2.351 . S
Co0 O26 2.155 . S
Co0 O27 2.096 1_556 S
C1 N4 1.301 . S
C1 N5 1.328 . S
C1 H6 0.930 . S
C2 C3 1.333 . S
C2 N4 1.317 . S
C2 H7 0.930 . S
C3 C2 1.333 . S
C3 N5 1.350 . S
C3 H29 0.931 . S
N4 Co0 2.148 1_554 S
N4 C1 1.301 . S
N4 C2 1.317 . S
N5 C1 1.328 . S
N5 C3 1.350 . S
H6 C1 0.930 . S
H7 C2 0.930 . S
C8 O9 1.224 . S
C8 O27 1.247 . S
O9 C8 1.224 . S
N10 Co0 2.128 . S
N10 C11 1.355 . S
N10 C13 1.311 . S
C11 N10 1.355 . S
C11 C12 1.363 . S
C11 H23 0.929 . S
C12 C11 1.363 . S
C12 N14 1.375 . S
C12 H30 0.931 . S
C13 N10 1.311 . S
C13 N14 1.347 . S
C13 H24 0.929 . S
N14 C12 1.375 . S
N14 C13 1.347 . S
C15 C18 1.365 . S
C15 N20 1.328 1_556 S
C15 H21 0.929 . S
C16 C17 1.362 . S
C16 C19 1.378 . S
C16 H31 0.929 . S
C17 C16 1.362 . S
C17 C18 1.366 1_554 S
C18 C15 1.365 . S
C18 C17 1.366 1_556 S
C18 H32 0.930 . S
C19 C16 1.378 . S
C19 N20 1.315 . S
C19 H22 0.930 . S
N20 Co0 2.194 1_554 S
N20 C15 1.328 1_554 S
N20 C19 1.315 . S
H21 C15 0.929 . S
H22 C19 0.930 . S
H23 C11 0.929 . S
H24 C13 0.929 . S
O25 Co0 2.351 . S
O25 C28 1.244 . S
O26 Co0 2.155 . S
O26 C28 1.240 . S
O27 Co0 2.096 1_554 S
O27 C8 1.247 . S
C28 O25 1.244 . S
C28 O26 1.240 . S
H29 C3 0.931 . S
H30 C12 0.931 . S
H31 C16 0.929 . S
H32 C18 0.930 . S
Co33 N37 2.148 1_556 S
Co33 N43 2.128 . S
Co33 N53 2.194 1_556 S
Co33 O58 2.351 . S
Co33 O59 2.155 . S
Co33 O60 2.096 1_556 S
C34 N37 1.301 . S
C34 N38 1.328 . S
C34 H39 0.930 . S
C35 C36 1.333 . S
C35 N37 1.317 . S
C35 H40 0.930 . S
C36 C35 1.333 . S
C36 N38 1.350 . S
C36 H62 0.931 . S
N37 Co33 2.148 1_554 S
N37 C34 1.301 . S
N37 C35 1.317 . S
N38 C34 1.328 . S
N38 C36 1.350 . S
H39 C34 0.930 . S
H40 C35 0.930 . S
C41 O42 1.224 . S
C41 O60 1.247 . S
O42 C41 1.224 . S
N43 Co33 2.128 . S
N43 C44 1.355 . S
N43 C46 1.311 . S
C44 N43 1.355 . S
C44 C45 1.363 . S
C44 H56 0.929 . S
C45 C44 1.363 . S
C45 N47 1.375 . S
C45 H63 0.931 . S
C46 N43 1.311 . S
C46 N47 1.347 . S
C46 H57 0.929 . S
N47 C45 1.375 . S
N47 C46 1.347 . S
C48 C51 1.365 . S
C48 N53 1.328 1_556 S
C48 H54 0.929 . S
C49 C50 1.362 . S
C49 C52 1.378 . S
C49 H64 0.929 . S
C50 C49 1.362 . S
C50 C51 1.366 1_554 S
C51 C48 1.365 . S
C51 C50 1.366 1_556 S
C51 H65 0.930 . S
C52 C49 1.378 . S
C52 N53 1.315 . S
C52 H55 0.930 . S
N53 Co33 2.194 1_554 S
N53 C48 1.328 1_554 S
N53 C52 1.315 . S
H54 C48 0.929 . S
H55 C52 0.930 . S
H56 C44 0.929 . S
H57 C46 0.929 . S
O58 Co33 2.351 . S
O58 C61 1.244 . S
O59 Co33 2.155 . S
O59 C61 1.240 . S
O60 Co33 2.096 1_554 S
O60 C41 1.247 . S
C61 O58 1.244 . S
C61 O59 1.240 . S
H62 C36 0.931 . S
H63 C45 0.931 . S
H64 C49 0.929 . S
H65 C51 0.930 . S
Co66 N70 2.148 1_556 S
Co66 N76 2.128 . S
Co66 N86 2.194 1_556 S
Co66 O91 2.351 . S
Co66 O92 2.155 . S
Co66 O93 2.096 1_556 S
C67 N70 1.301 . S
C67 N71 1.328 . S
C67 H72 0.930 . S
C68 C69 1.333 . S
C68 N70 1.317 . S
C68 H73 0.930 . S
C69 C68 1.333 . S
C69 N71 1.350 . S
C69 H95 0.931 . S
N70 Co66 2.148 1_554 S
N70 C67 1.301 . S
N70 C68 1.317 . S
N71 C67 1.328 . S
N71 C69 1.350 . S
H72 C67 0.930 . S
H73 C68 0.930 . S
C74 O75 1.224 . S
C74 O93 1.247 . S
O75 C74 1.224 . S
N76 Co66 2.128 . S
N76 C77 1.355 . S
N76 C79 1.311 . S
C77 N76 1.355 . S
C77 C78 1.363 . S
C77 H89 0.929 . S
C78 C77 1.363 . S
C78 N80 1.375 . S
C78 H96 0.931 . S
C79 N76 1.311 . S
C79 N80 1.347 . S
C79 H90 0.929 . S
N80 C78 1.375 . S
N80 C79 1.347 . S
C81 C84 1.365 . S
C81 N86 1.328 1_556 S
C81 H87 0.929 . S
C82 C83 1.362 . S
C82 C85 1.378 . S
C82 H97 0.929 . S
C83 C82 1.362 . S
C83 C84 1.366 1_554 S
C84 C81 1.365 . S
C84 C83 1.366 1_556 S
C84 H98 0.930 . S
C85 C82 1.378 . S
C85 N86 1.315 . S
C85 H88 0.930 . S
N86 Co66 2.194 1_554 S
N86 C81 1.328 1_554 S
N86 C85 1.315 . S
H87 C81 0.929 . S
H88 C85 0.930 . S
H89 C77 0.929 . S
H90 C79 0.929 . S
O91 Co66 2.351 . S
O91 C94 1.244 . S
O92 Co66 2.155 . S
O92 C94 1.240 . S
O93 Co66 2.096 1_554 S
O93 C74 1.247 . S
C94 O91 1.244 . S
C94 O92 1.240 . S
H95 C69 0.931 . S
H96 C78 0.931 . S
H97 C82 0.929 . S
H98 C84 0.930 . S
Co99 N103 2.148 1_556 S
Co99 N109 2.128 . S
Co99 N119 2.194 1_556 S
Co99 O124 2.351 . S
Co99 O125 2.155 . S
Co99 O126 2.096 1_556 S
C100 N103 1.301 . S
C100 N104 1.328 . S
C100 H105 0.930 . S
C101 C102 1.333 . S
C101 N103 1.317 . S
C101 H106 0.930 . S
C102 C101 1.333 . S
C102 N104 1.350 . S
C102 H128 0.931 . S
N103 Co99 2.148 1_554 S
N103 C100 1.301 . S
N103 C101 1.317 . S
N104 C100 1.328 . S
N104 C102 1.350 . S
H105 C100 0.930 . S
H106 C101 0.930 . S
C107 O108 1.224 . S
C107 O126 1.247 . S
O108 C107 1.224 . S
N109 Co99 2.128 . S
N109 C110 1.355 . S
N109 C112 1.311 . S
C110 N109 1.355 . S
C110 C111 1.363 . S
C110 H122 0.929 . S
C111 C110 1.363 . S
C111 N113 1.375 . S
C111 H129 0.931 . S
C112 N109 1.311 . S
C112 N113 1.347 . S
C112 H123 0.929 . S
N113 C111 1.375 . S
N113 C112 1.347 . S
C114 C117 1.365 . S
C114 N119 1.328 1_556 S
C114 H120 0.929 . S
C115 C116 1.362 . S
C115 C118 1.378 . S
C115 H130 0.929 . S
C116 C115 1.362 . S
C116 C117 1.366 1_554 S
C117 C114 1.365 . S
C117 C116 1.366 1_556 S
C117 H131 0.930 . S
C118 C115 1.378 . S
C118 N119 1.315 . S
C118 H121 0.930 . S
N119 Co99 2.194 1_554 S
N119 C114 1.328 1_554 S
N119 C118 1.315 . S
H120 C114 0.929 . S
H121 C118 0.930 . S
H122 C110 0.929 . S
H123 C112 0.929 . S
O124 Co99 2.351 . S
O124 C127 1.244 . S
O125 Co99 2.155 . S
O125 C127 1.240 . S
O126 Co99 2.096 1_554 S
O126 C107 1.247 . S
C127 O124 1.244 . S
C127 O125 1.240 . S
H128 C102 0.931 . S
H129 C111 0.931 . S
H130 C115 0.929 . S
H131 C117 0.930 . S
Co132 N136 2.148 . S
Co132 N142 2.128 . S
Co132 N152 2.194 . S
Co132 O157 2.351 . S
Co132 O158 2.155 . S
Co132 O159 2.096 . S
C133 N136 1.301 . S
C133 N137 1.328 . S
C133 H138 0.930 . S
C134 C135 1.333 . S
C134 N136 1.317 . S
C134 H139 0.930 . S
C135 C134 1.333 . S
C135 N137 1.350 . S
C135 H161 0.931 . S
N136 Co132 2.148 . S
N136 C133 1.301 . S
N136 C134 1.317 . S
N137 C133 1.328 . S
N137 C135 1.350 . S
H138 C133 0.930 . S
H139 C134 0.930 . S
C140 O141 1.224 . S
C140 O159 1.247 . S
O141 C140 1.224 . S
N142 Co132 2.128 . S
N142 C143 1.355 . S
N142 C145 1.311 . S
C143 N142 1.355 . S
C143 C144 1.363 . S
C143 H155 0.929 . S
C144 C143 1.363 . S
C144 N146 1.375 . S
C144 H162 0.931 . S
C145 N142 1.311 . S
C145 N146 1.347 . S
C145 H156 0.929 . S
N146 C144 1.375 . S
N146 C145 1.347 . S
C147 C150 1.365 . S
C147 N152 1.328 . S
C147 H153 0.929 . S
C148 C149 1.362 . S
C148 C151 1.378 . S
C148 H163 0.929 . S
C149 C148 1.362 . S
C149 C150 1.366 . S
C150 C147 1.365 . S
C150 C149 1.366 . S
C150 H164 0.930 . S
C151 C148 1.378 . S
C151 N152 1.315 . S
C151 H154 0.930 . S
N152 Co132 2.194 . S
N152 C147 1.328 . S
N152 C151 1.315 . S
H153 C147 0.929 . S
H154 C151 0.930 . S
H155 C143 0.929 . S
H156 C145 0.929 . S
O157 Co132 2.351 . S
O157 C160 1.244 . S
O158 Co132 2.155 . S
O158 C160 1.240 . S
O159 Co132 2.096 . S
O159 C140 1.247 . S
C160 O157 1.244 . S
C160 O158 1.240 . S
H161 C135 0.931 . S
H162 C144 0.931 . S
H163 C148 0.929 . S
H164 C150 0.930 . S
Co165 N169 2.148 . S
Co165 N175 2.128 . S
Co165 N185 2.194 . S
Co165 O190 2.351 . S
Co165 O191 2.155 . S
Co165 O192 2.096 . S
C166 N169 1.301 . S
C166 N170 1.328 . S
C166 H171 0.930 . S
C167 C168 1.333 . S
C167 N169 1.317 . S
C167 H172 0.930 . S
C168 C167 1.333 . S
C168 N170 1.350 . S
C168 H194 0.931 . S
N169 Co165 2.148 . S
N169 C166 1.301 . S
N169 C167 1.317 . S
N170 C166 1.328 . S
N170 C168 1.350 . S
H171 C166 0.930 . S
H172 C167 0.930 . S
C173 O174 1.224 . S
C173 O192 1.247 . S
O174 C173 1.224 . S
N175 Co165 2.128 . S
N175 C176 1.355 . S
N175 C178 1.311 . S
C176 N175 1.355 . S
C176 C177 1.363 . S
C176 H188 0.929 . S
C177 C176 1.363 . S
C177 N179 1.375 . S
C177 H195 0.931 . S
C178 N175 1.311 . S
C178 N179 1.347 . S
C178 H189 0.929 . S
N179 C177 1.375 . S
N179 C178 1.347 . S
C180 C183 1.365 . S
C180 N185 1.328 . S
C180 H186 0.929 . S
C181 C182 1.362 . S
C181 C184 1.378 . S
C181 H196 0.929 . S
C182 C181 1.362 . S
C182 C183 1.366 . S
C183 C180 1.365 . S
C183 C182 1.366 . S
C183 H197 0.930 . S
C184 C181 1.378 . S
C184 N185 1.315 . S
C184 H187 0.930 . S
N185 Co165 2.194 . S
N185 C180 1.328 . S
N185 C184 1.315 . S
H186 C180 0.929 . S
H187 C184 0.930 . S
H188 C176 0.929 . S
H189 C178 0.929 . S
O190 Co165 2.351 . S
O190 C193 1.244 . S
O191 Co165 2.155 . S
O191 C193 1.240 . S
O192 Co165 2.096 . S
O192 C173 1.247 . S
C193 O190 1.244 . S
C193 O191 1.240 . S
H194 C168 0.931 . S
H195 C177 0.931 . S
H196 C181 0.929 . S
H197 C183 0.930 . S
Co198 N202 2.148 . S
Co198 N208 2.128 . S
Co198 N218 2.194 . S
Co198 O223 2.351 . S
Co198 O224 2.155 . S
Co198 O225 2.096 . S
C199 N202 1.301 . S
C199 N203 1.328 . S
C199 H204 0.930 . S
C200 C201 1.333 . S
C200 N202 1.317 . S
C200 H205 0.930 . S
C201 C200 1.333 . S
C201 N203 1.350 . S
C201 H227 0.931 . S
N202 Co198 2.148 . S
N202 C199 1.301 . S
N202 C200 1.317 . S
N203 C199 1.328 . S
N203 C201 1.350 . S
H204 C199 0.930 . S
H205 C200 0.930 . S
C206 O207 1.224 . S
C206 O225 1.247 . S
O207 C206 1.224 . S
N208 Co198 2.128 . S
N208 C209 1.355 . S
N208 C211 1.311 . S
C209 N208 1.355 . S
C209 C210 1.363 . S
C209 H221 0.929 . S
C210 C209 1.363 . S
C210 N212 1.375 . S
C210 H228 0.931 . S
C211 N208 1.311 . S
C211 N212 1.347 . S
C211 H222 0.929 . S
N212 C210 1.375 . S
N212 C211 1.347 . S
C213 C216 1.365 . S
C213 N218 1.328 . S
C213 H219 0.929 . S
C214 C215 1.362 . S
C214 C217 1.378 . S
C214 H229 0.929 . S
C215 C214 1.362 . S
C215 C216 1.366 . S
C216 C213 1.365 . S
C216 C215 1.366 . S
C216 H230 0.930 . S
C217 C214 1.378 . S
C217 N218 1.315 . S
C217 H220 0.930 . S
N218 Co198 2.194 . S
N218 C213 1.328 . S
N218 C217 1.315 . S
H219 C213 0.929 . S
H220 C217 0.930 . S
H221 C209 0.929 . S
H222 C211 0.929 . S
O223 Co198 2.351 . S
O223 C226 1.244 . S
O224 Co198 2.155 . S
O224 C226 1.240 . S
O225 Co198 2.096 . S
O225 C206 1.247 . S
C226 O223 1.244 . S
C226 O224 1.240 . S
H227 C201 0.931 . S
H228 C210 0.931 . S
H229 C214 0.929 . S
H230 C216 0.930 . S
Co231 N235 2.148 . S
Co231 N241 2.128 . S
Co231 N251 2.194 . S
Co231 O256 2.351 . S
Co231 O257 2.155 . S
Co231 O258 2.096 . S
C232 N235 1.301 . S
C232 N236 1.328 . S
C232 H237 0.930 . S
C233 C234 1.333 . S
C233 N235 1.317 . S
C233 H238 0.930 . S
C234 C233 1.333 . S
C234 N236 1.350 . S
C234 H260 0.931 . S
N235 Co231 2.148 . S
N235 C232 1.301 . S
N235 C233 1.317 . S
N236 C232 1.328 . S
N236 C234 1.350 . S
H237 C232 0.930 . S
H238 C233 0.930 . S
C239 O240 1.224 . S
C239 O258 1.247 . S
O240 C239 1.224 . S
N241 Co231 2.128 . S
N241 C242 1.355 . S
N241 C244 1.311 . S
C242 N241 1.355 . S
C242 C243 1.363 . S
C242 H254 0.929 . S
C243 C242 1.363 . S
C243 N245 1.375 . S
C243 H261 0.931 . S
C244 N241 1.311 . S
C244 N245 1.347 . S
C244 H255 0.929 . S
N245 C243 1.375 . S
N245 C244 1.347 . S
C246 C249 1.365 . S
C246 N251 1.328 . S
C246 H252 0.929 . S
C247 C248 1.362 . S
C247 C250 1.378 . S
C247 H262 0.929 . S
C248 C247 1.362 . S
C248 C249 1.366 . S
C249 C246 1.365 . S
C249 C248 1.366 . S
C249 H263 0.930 . S
C250 C247 1.378 . S
C250 N251 1.315 . S
C250 H253 0.930 . S
N251 Co231 2.194 . S
N251 C246 1.328 . S
N251 C250 1.315 . S
H252 C246 0.929 . S
H253 C250 0.930 . S
H254 C242 0.929 . S
H255 C244 0.929 . S
O256 Co231 2.351 . S
O256 C259 1.244 . S
O257 Co231 2.155 . S
O257 C259 1.240 . S
O258 Co231 2.096 . S
O258 C239 1.247 . S
C259 O256 1.244 . S
C259 O257 1.240 . S
H260 C234 0.931 . S
H261 C243 0.931 . S
H262 C247 0.929 . S
H263 C249 0.930 . S
Co264 N268 2.148 . S
Co264 N274 2.128 . S
Co264 N284 2.194 . S
Co264 O289 2.351 . S
Co264 O290 2.155 . S
Co264 O291 2.096 . S
C265 N268 1.301 . S
C265 N269 1.328 . S
C265 H270 0.930 . S
C266 C267 1.333 . S
C266 N268 1.317 . S
C266 H271 0.930 . S
C267 C266 1.333 . S
C267 N269 1.350 . S
C267 H293 0.931 . S
N268 Co264 2.148 . S
N268 C265 1.301 . S
N268 C266 1.317 . S
N269 C265 1.328 . S
N269 C267 1.350 . S
H270 C265 0.930 . S
H271 C266 0.930 . S
C272 O273 1.224 . S
C272 O291 1.247 . S
O273 C272 1.224 . S
N274 Co264 2.128 . S
N274 C275 1.355 . S
N274 C277 1.311 . S
C275 N274 1.355 . S
C275 C276 1.363 . S
C275 H287 0.929 . S
C276 C275 1.363 . S
C276 N278 1.375 . S
C276 H294 0.931 . S
C277 N274 1.311 . S
C277 N278 1.347 . S
C277 H288 0.929 . S
N278 C276 1.375 . S
N278 C277 1.347 . S
C279 C282 1.365 . S
C279 N284 1.328 . S
C279 H285 0.929 . S
C280 C281 1.362 . S
C280 C283 1.378 . S
C280 H295 0.929 . S
C281 C280 1.362 . S
C281 C282 1.366 . S
C282 C279 1.365 . S
C282 C281 1.366 . S
C282 H296 0.930 . S
C283 C280 1.378 . S
C283 N284 1.315 . S
C283 H286 0.930 . S
N284 Co264 2.194 . S
N284 C279 1.328 . S
N284 C283 1.315 . S
H285 C279 0.929 . S
H286 C283 0.930 . S
H287 C275 0.929 . S
H288 C277 0.929 . S
O289 Co264 2.351 . S
O289 C292 1.244 . S
O290 Co264 2.155 . S
O290 C292 1.240 . S
O291 Co264 2.096 . S
O291 C272 1.247 . S
C292 O289 1.244 . S
C292 O290 1.240 . S
H293 C267 0.931 . S
H294 C276 0.931 . S
H295 C280 0.929 . S
H296 C282 0.930 . S
Co297 N301 2.148 . S
Co297 N307 2.128 . S
Co297 N317 2.194 . S
Co297 O322 2.351 . S
Co297 O323 2.155 . S
Co297 O324 2.096 . S
C298 N301 1.301 . S
C298 N302 1.328 . S
C298 H303 0.930 . S
C299 C300 1.333 . S
C299 N301 1.317 . S
C299 H304 0.930 . S
C300 C299 1.333 . S
C300 N302 1.350 . S
C300 H326 0.931 . S
N301 Co297 2.148 . S
N301 C298 1.301 . S
N301 C299 1.317 . S
N302 C298 1.328 . S
N302 C300 1.350 . S
H303 C298 0.930 . S
H304 C299 0.930 . S
C305 O306 1.224 . S
C305 O324 1.247 . S
O306 C305 1.224 . S
N307 Co297 2.128 . S
N307 C308 1.355 . S
N307 C310 1.311 . S
C308 N307 1.355 . S
C308 C309 1.363 . S
C308 H320 0.929 . S
C309 C308 1.363 . S
C309 N311 1.375 . S
C309 H327 0.931 . S
C310 N307 1.311 . S
C310 N311 1.347 . S
C310 H321 0.929 . S
N311 C309 1.375 . S
N311 C310 1.347 . S
C312 C315 1.365 . S
C312 N317 1.328 . S
C312 H318 0.929 . S
C313 C314 1.362 . S
C313 C316 1.378 . S
C313 H328 0.929 . S
C314 C313 1.362 . S
C314 C315 1.366 . S
C315 C312 1.365 . S
C315 C314 1.366 . S
C315 H329 0.930 . S
C316 C313 1.378 . S
C316 N317 1.315 . S
C316 H319 0.930 . S
N317 Co297 2.194 . S
N317 C312 1.328 . S
N317 C316 1.315 . S
H318 C312 0.929 . S
H319 C316 0.930 . S
H320 C308 0.929 . S
H321 C310 0.929 . S
O322 Co297 2.351 . S
O322 C325 1.244 . S
O323 Co297 2.155 . S
O323 C325 1.240 . S
O324 Co297 2.096 . S
O324 C305 1.247 . S
C325 O322 1.244 . S
C325 O323 1.240 . S
H326 C300 0.931 . S
H327 C309 0.931 . S
H328 C313 0.929 . S
H329 C315 0.930 . S
Co330 N334 2.148 . S
Co330 N340 2.128 . S
Co330 N350 2.194 . S
Co330 O355 2.351 . S
Co330 O356 2.155 . S
Co330 O357 2.096 . S
C331 N334 1.301 . S
C331 N335 1.328 . S
C331 H336 0.930 . S
C332 C333 1.333 . S
C332 N334 1.317 . S
C332 H337 0.930 . S
C333 C332 1.333 . S
C333 N335 1.350 . S
C333 H359 0.931 . S
N334 Co330 2.148 . S
N334 C331 1.301 . S
N334 C332 1.317 . S
N335 C331 1.328 . S
N335 C333 1.350 . S
H336 C331 0.930 . S
H337 C332 0.930 . S
C338 O339 1.224 . S
C338 O357 1.247 . S
O339 C338 1.224 . S
N340 Co330 2.128 . S
N340 C341 1.355 . S
N340 C343 1.311 . S
C341 N340 1.355 . S
C341 C342 1.363 . S
C341 H353 0.929 . S
C342 C341 1.363 . S
C342 N344 1.375 . S
C342 H360 0.931 . S
C343 N340 1.311 . S
C343 N344 1.347 . S
C343 H354 0.929 . S
N344 C342 1.375 . S
N344 C343 1.347 . S
C345 C348 1.365 . S
C345 N350 1.328 . S
C345 H351 0.929 . S
C346 C347 1.362 . S
C346 C349 1.378 . S
C346 H361 0.929 . S
C347 C346 1.362 . S
C347 C348 1.366 . S
C348 C345 1.365 . S
C348 C347 1.366 . S
C348 H362 0.930 . S
C349 C346 1.378 . S
C349 N350 1.315 . S
C349 H352 0.930 . S
N350 Co330 2.194 . S
N350 C345 1.328 . S
N350 C349 1.315 . S
H351 C345 0.929 . S
H352 C349 0.930 . S
H353 C341 0.929 . S
H354 C343 0.929 . S
O355 Co330 2.351 . S
O355 C358 1.244 . S
O356 Co330 2.155 . S
O356 C358 1.240 . S
O357 Co330 2.096 . S
O357 C338 1.247 . S
C358 O355 1.244 . S
C358 O356 1.240 . S
H359 C333 0.931 . S
H360 C342 0.931 . S
H361 C346 0.929 . S
H362 C348 0.930 . S
Co363 N367 2.148 . S
Co363 N373 2.128 . S
Co363 N383 2.194 . S
Co363 O388 2.351 . S
Co363 O389 2.155 . S
Co363 O390 2.096 . S
C364 N367 1.301 . S
C364 N368 1.328 . S
C364 H369 0.930 . S
C365 C366 1.333 . S
C365 N367 1.317 . S
C365 H370 0.930 . S
C366 C365 1.333 . S
C366 N368 1.350 . S
C366 H392 0.931 . S
N367 Co363 2.148 . S
N367 C364 1.301 . S
N367 C365 1.317 . S
N368 C364 1.328 . S
N368 C366 1.350 . S
H369 C364 0.930 . S
H370 C365 0.930 . S
C371 O372 1.224 . S
C371 O390 1.247 . S
O372 C371 1.224 . S
N373 Co363 2.128 . S
N373 C374 1.355 . S
N373 C376 1.311 . S
C374 N373 1.355 . S
C374 C375 1.363 . S
C374 H386 0.929 . S
C375 C374 1.363 . S
C375 N377 1.375 . S
C375 H393 0.931 . S
C376 N373 1.311 . S
C376 N377 1.347 . S
C376 H387 0.929 . S
N377 C375 1.375 . S
N377 C376 1.347 . S
C378 C381 1.365 . S
C378 N383 1.328 . S
C378 H384 0.929 . S
C379 C380 1.362 . S
C379 C382 1.378 . S
C379 H394 0.929 . S
C380 C379 1.362 . S
C380 C381 1.366 . S
C381 C378 1.365 . S
C381 C380 1.366 . S
C381 H395 0.930 . S
C382 C379 1.378 . S
C382 N383 1.315 . S
C382 H385 0.930 . S
N383 Co363 2.194 . S
N383 C378 1.328 . S
N383 C382 1.315 . S
H384 C378 0.929 . S
H385 C382 0.930 . S
H386 C374 0.929 . S
H387 C376 0.929 . S
O388 Co363 2.351 . S
O388 C391 1.244 . S
O389 Co363 2.155 . S
O389 C391 1.240 . S
O390 Co363 2.096 . S
O390 C371 1.247 . S
C391 O388 1.244 . S
C391 O389 1.240 . S
H392 C366 0.931 . S
H393 C375 0.931 . S
H394 C379 0.929 . S
H395 C381 0.930 . S
Co396 N400 2.148 1_554 S
Co396 N406 2.128 . S
Co396 N416 2.194 1_554 S
Co396 O421 2.351 . S
Co396 O422 2.155 . S
Co396 O423 2.096 1_554 S
C397 N400 1.301 . S
C397 N401 1.328 . S
C397 H402 0.930 . S
C398 C399 1.333 . S
C398 N400 1.317 . S
C398 H403 0.930 . S
C399 C398 1.333 . S
C399 N401 1.350 . S
C399 H425 0.931 . S
N400 Co396 2.148 1_556 S
N400 C397 1.301 . S
N400 C398 1.317 . S
N401 C397 1.328 . S
N401 C399 1.350 . S
H402 C397 0.930 . S
H403 C398 0.930 . S
C404 O405 1.224 . S
C404 O423 1.247 . S
O405 C404 1.224 . S
N406 Co396 2.128 . S
N406 C407 1.355 . S
N406 C409 1.311 . S
C407 N406 1.355 . S
C407 C408 1.363 . S
C407 H419 0.929 . S
C408 C407 1.363 . S
C408 N410 1.375 . S
C408 H426 0.931 . S
C409 N406 1.311 . S
C409 N410 1.347 . S
C409 H420 0.929 . S
N410 C408 1.375 . S
N410 C409 1.347 . S
C411 C414 1.365 . S
C411 N416 1.328 1_554 S
C411 H417 0.929 . S
C412 C413 1.362 . S
C412 C415 1.378 . S
C412 H427 0.929 . S
C413 C412 1.362 . S
C413 C414 1.366 1_556 S
C414 C411 1.365 . S
C414 C413 1.366 1_554 S
C414 H428 0.930 . S
C415 C412 1.378 . S
C415 N416 1.315 . S
C415 H418 0.930 . S
N416 Co396 2.194 1_556 S
N416 C411 1.328 1_556 S
N416 C415 1.315 . S
H417 C411 0.929 . S
H418 C415 0.930 . S
H419 C407 0.929 . S
H420 C409 0.929 . S
O421 Co396 2.351 . S
O421 C424 1.244 . S
O422 Co396 2.155 . S
O422 C424 1.240 . S
O423 Co396 2.096 1_556 S
O423 C404 1.247 . S
C424 O421 1.244 . S
C424 O422 1.240 . S
H425 C399 0.931 . S
H426 C408 0.931 . S
H427 C412 0.929 . S
H428 C414 0.930 . S
Co429 N433 2.148 1_554 S
Co429 N439 2.128 . S
Co429 N449 2.194 1_554 S
Co429 O454 2.351 . S
Co429 O455 2.155 . S
Co429 O456 2.096 1_554 S
C430 N433 1.301 . S
C430 N434 1.328 . S
C430 H435 0.930 . S
C431 C432 1.333 . S
C431 N433 1.317 . S
C431 H436 0.930 . S
C432 C431 1.333 . S
C432 N434 1.350 . S
C432 H458 0.931 . S
N433 Co429 2.148 1_556 S
N433 C430 1.301 . S
N433 C431 1.317 . S
N434 C430 1.328 . S
N434 C432 1.350 . S
H435 C430 0.930 . S
H436 C431 0.930 . S
C437 O438 1.224 . S
C437 O456 1.247 . S
O438 C437 1.224 . S
N439 Co429 2.128 . S
N439 C440 1.355 . S
N439 C442 1.311 . S
C440 N439 1.355 . S
C440 C441 1.363 . S
C440 H452 0.929 . S
C441 C440 1.363 . S
C441 N443 1.375 . S
C441 H459 0.931 . S
C442 N439 1.311 . S
C442 N443 1.347 . S
C442 H453 0.929 . S
N443 C441 1.375 . S
N443 C442 1.347 . S
C444 C447 1.365 . S
C444 N449 1.328 1_554 S
C444 H450 0.929 . S
C445 C446 1.362 . S
C445 C448 1.378 . S
C445 H460 0.929 . S
C446 C445 1.362 . S
C446 C447 1.366 1_556 S
C447 C444 1.365 . S
C447 C446 1.366 1_554 S
C447 H461 0.930 . S
C448 C445 1.378 . S
C448 N449 1.315 . S
C448 H451 0.930 . S
N449 Co429 2.194 1_556 S
N449 C444 1.328 1_556 S
N449 C448 1.315 . S
H450 C444 0.929 . S
H451 C448 0.930 . S
H452 C440 0.929 . S
H453 C442 0.929 . S
O454 Co429 2.351 . S
O454 C457 1.244 . S
O455 Co429 2.155 . S
O455 C457 1.240 . S
O456 Co429 2.096 1_556 S
O456 C437 1.247 . S
C457 O454 1.244 . S
C457 O455 1.240 . S
H458 C432 0.931 . S
H459 C441 0.931 . S
H460 C445 0.929 . S
H461 C447 0.930 . S
Co462 N466 2.148 1_554 S
Co462 N472 2.128 . S
Co462 N482 2.194 1_554 S
Co462 O487 2.351 . S
Co462 O488 2.155 . S
Co462 O489 2.096 1_554 S
C463 N466 1.301 . S
C463 N467 1.328 . S
C463 H468 0.930 . S
C464 C465 1.333 . S
C464 N466 1.317 . S
C464 H469 0.930 . S
C465 C464 1.333 . S
C465 N467 1.350 . S
C465 H491 0.931 . S
N466 Co462 2.148 1_556 S
N466 C463 1.301 . S
N466 C464 1.317 . S
N467 C463 1.328 . S
N467 C465 1.350 . S
H468 C463 0.930 . S
H469 C464 0.930 . S
C470 O471 1.224 . S
C470 O489 1.247 . S
O471 C470 1.224 . S
N472 Co462 2.128 . S
N472 C473 1.355 . S
N472 C475 1.311 . S
C473 N472 1.355 . S
C473 C474 1.363 . S
C473 H485 0.929 . S
C474 C473 1.363 . S
C474 N476 1.375 . S
C474 H492 0.931 . S
C475 N472 1.311 . S
C475 N476 1.347 . S
C475 H486 0.929 . S
N476 C474 1.375 . S
N476 C475 1.347 . S
C477 C480 1.365 . S
C477 N482 1.328 1_554 S
C477 H483 0.929 . S
C478 C479 1.362 . S
C478 C481 1.378 . S
C478 H493 0.929 . S
C479 C478 1.362 . S
C479 C480 1.366 1_556 S
C480 C477 1.365 . S
C480 C479 1.366 1_554 S
C480 H494 0.930 . S
C481 C478 1.378 . S
C481 N482 1.315 . S
C481 H484 0.930 . S
N482 Co462 2.194 1_556 S
N482 C477 1.328 1_556 S
N482 C481 1.315 . S
H483 C477 0.929 . S
H484 C481 0.930 . S
H485 C473 0.929 . S
H486 C475 0.929 . S
O487 Co462 2.351 . S
O487 C490 1.244 . S
O488 Co462 2.155 . S
O488 C490 1.240 . S
O489 Co462 2.096 1_556 S
O489 C470 1.247 . S
C490 O487 1.244 . S
C490 O488 1.240 . S
H491 C465 0.931 . S
H492 C474 0.931 . S
H493 C478 0.929 . S
H494 C480 0.930 . S
Co495 N499 2.148 1_554 S
Co495 N505 2.128 . S
Co495 N515 2.194 1_554 S
Co495 O520 2.351 . S
Co495 O521 2.155 . S
Co495 O522 2.096 1_554 S
C496 N499 1.301 . S
C496 N500 1.328 . S
C496 H501 0.930 . S
C497 C498 1.333 . S
C497 N499 1.317 . S
C497 H502 0.930 . S
C498 C497 1.333 . S
C498 N500 1.350 . S
C498 H524 0.931 . S
N499 Co495 2.148 1_556 S
N499 C496 1.301 . S
N499 C497 1.317 . S
N500 C496 1.328 . S
N500 C498 1.350 . S
H501 C496 0.930 . S
H502 C497 0.930 . S
C503 O504 1.224 . S
C503 O522 1.247 . S
O504 C503 1.224 . S
N505 Co495 2.128 . S
N505 C506 1.355 . S
N505 C508 1.311 . S
C506 N505 1.355 . S
C506 C507 1.363 . S
C506 H518 0.929 . S
C507 C506 1.363 . S
C507 N509 1.375 . S
C507 H525 0.931 . S
C508 N505 1.311 . S
C508 N509 1.347 . S
C508 H519 0.929 . S
N509 C507 1.375 . S
N509 C508 1.347 . S
C510 C513 1.365 . S
C510 N515 1.328 1_554 S
C510 H516 0.929 . S
C511 C512 1.362 . S
C511 C514 1.378 . S
C511 H526 0.929 . S
C512 C511 1.362 . S
C512 C513 1.366 1_556 S
C513 C510 1.365 . S
C513 C512 1.366 1_554 S
C513 H527 0.930 . S
C514 C511 1.378 . S
C514 N515 1.315 . S
C514 H517 0.930 . S
N515 Co495 2.194 1_556 S
N515 C510 1.328 1_556 S
N515 C514 1.315 . S
H516 C510 0.929 . S
H517 C514 0.930 . S
H518 C506 0.929 . S
H519 C508 0.929 . S
O520 Co495 2.351 . S
O520 C523 1.244 . S
O521 Co495 2.155 . S
O521 C523 1.240 . S
O522 Co495 2.096 1_556 S
O522 C503 1.247 . S
C523 O520 1.244 . S
C523 O521 1.240 . S
H524 C498 0.931 . S
H525 C507 0.931 . S
H526 C511 0.929 . S
H527 C513 0.930 . S
C528 C529 1.387 1_556 S
C528 H532 0.950 . S
C528 C537 1.390 . S
C529 C528 1.387 1_554 S
C529 C531 1.387 . S
H530 C537 0.950 . S
C531 C529 1.387 . S
C531 C533 1.390 . S
C531 H535 0.950 . S
H532 C528 0.950 . S
C533 C531 1.390 . S
C533 C534 1.387 1_554 S
C533 H536 0.950 . S
C534 C533 1.387 1_556 S
C534 C537 1.387 . S
H535 C531 0.950 . S
H536 C533 0.950 . S
C537 C528 1.390 . S
C537 H530 0.950 . S
C537 C534 1.387 . S
C538 C539 1.387 1_554 S
C538 H542 0.950 . S
C538 C547 1.390 . S
C539 C538 1.387 1_556 S
C539 C541 1.387 . S
H540 C547 0.950 . S
C541 C539 1.387 . S
C541 C543 1.390 . S
C541 H545 0.950 . S
H542 C538 0.950 . S
C543 C541 1.390 . S
C543 C544 1.387 1_556 S
C543 H546 0.950 . S
C544 C543 1.387 1_554 S
C544 C547 1.387 . S
H545 C541 0.950 . S
H546 C543 0.950 . S
C547 C538 1.390 . S
C547 H540 0.950 . S
C547 C544 1.387 . S
C548 C549 1.387 . S
C548 H552 0.950 . S
C548 C557 1.390 . S
C549 C548 1.387 . S
C549 C551 1.387 1_556 S
H550 C557 0.950 . S
C551 C549 1.387 1_554 S
C551 C553 1.390 . S
C551 H555 0.950 . S
H552 C548 0.950 . S
C553 C551 1.390 . S
C553 C554 1.387 . S
C553 H556 0.950 . S
C554 C553 1.387 . S
C554 C557 1.387 1_554 S
H555 C551 0.950 . S
H556 C553 0.950 . S
C557 C548 1.390 . S
C557 H550 0.950 . S
C557 C554 1.387 1_556 S
C558 C559 1.387 1_554 S
C558 H562 0.950 . S
C558 C567 1.390 . S
C559 C558 1.387 1_556 S
C559 C561 1.387 . S
H560 C567 0.950 . S
C561 C559 1.387 . S
C561 C563 1.390 . S
C561 H565 0.950 . S
H562 C558 0.950 . S
C563 C561 1.390 . S
C563 C564 1.387 1_556 S
C563 H566 0.950 . S
C564 C563 1.387 1_554 S
C564 C567 1.387 . S
H565 C561 0.950 . S
H566 C563 0.950 . S
C567 C558 1.390 . S
C567 H560 0.950 . S
C567 C564 1.387 . S
C568 C569 1.387 . S
C568 H572 0.950 . S
C568 C577 1.390 . S
C569 C568 1.387 . S
C569 C571 1.387 . S
H570 C577 0.950 . S
C571 C569 1.387 . S
C571 C573 1.390 . S
C571 H575 0.950 . S
H572 C568 0.950 . S
C573 C571 1.390 . S
C573 C574 1.387 . S
C573 H576 0.950 . S
C574 C573 1.387 . S
C574 C577 1.387 . S
H575 C571 0.950 . S
H576 C573 0.950 . S
C577 C568 1.390 . S
C577 H570 0.950 . S
C577 C574 1.387 . S
C578 C579 1.387 . S
C578 H582 0.950 . S
C578 C587 1.390 . S
C579 C578 1.387 . S
C579 C581 1.387 . S
H580 C587 0.950 . S
C581 C579 1.387 . S
C581 C583 1.390 . S
C581 H585 0.950 . S
H582 C578 0.950 . S
C583 C581 1.390 . S
C583 C584 1.387 . S
C583 H586 0.950 . S
C584 C583 1.387 . S
C584 C587 1.387 . S
H585 C581 0.950 . S
H586 C583 0.950 . S
C587 C578 1.390 . S
C587 H580 0.950 . S
C587 C584 1.387 . S
C588 C589 1.387 . S
C588 H592 0.950 . S
C588 C597 1.390 . S
C589 C588 1.387 . S
C589 C591 1.387 . S
H590 C597 0.950 . S
C591 C589 1.387 . S
C591 C593 1.390 . S
C591 H595 0.950 . S
H592 C588 0.950 . S
C593 C591 1.390 . S
C593 C594 1.387 . S
C593 H596 0.950 . S
C594 C593 1.387 . S
C594 C597 1.387 . S
H595 C591 0.950 . S
H596 C593 0.950 . S
C597 C588 1.390 . S
C597 H590 0.950 . S
C597 C594 1.387 . S
C598 C599 1.387 . S
C598 H602 0.950 . S
C598 C607 1.390 . S
C599 C598 1.387 . S
C599 C601 1.387 . S
H600 C607 0.950 . S
C601 C599 1.387 . S
C601 C603 1.390 . S
C601 H605 0.950 . S
H602 C598 0.950 . S
C603 C601 1.390 . S
C603 C604 1.387 . S
C603 H606 0.950 . S
C604 C603 1.387 . S
C604 C607 1.387 . S
H605 C601 0.950 . S
H606 C603 0.950 . S
C607 C598 1.390 . S
C607 H600 0.950 . S
C607 C604 1.387 . S
C608 C609 1.387 . S
C608 H612 0.950 . S
C608 C617 1.390 1_655 S
C609 C608 1.387 . S
C609 C611 1.387 . S
H610 C617 0.950 . S
C611 C609 1.387 . S
C611 C613 1.390 1_655 S
C611 H615 0.950 . S
H612 C608 0.950 . S
C613 C611 1.390 1_455 S
C613 C614 1.387 . S
C613 H616 0.950 . S
C614 C613 1.387 . S
C614 C617 1.387 . S
H615 C611 0.950 . S
H616 C613 0.950 . S
C617 C608 1.390 1_455 S
C617 H610 0.950 . S
C617 C614 1.387 . S
C618 C619 1.387 . S
C618 H622 0.950 . S
C618 C627 1.390 1_565 S
C619 C618 1.387 . S
C619 C621 1.387 . S
H620 C627 0.950 . S
C621 C619 1.387 . S
C621 C623 1.390 1_565 S
C621 H625 0.950 . S
H622 C618 0.950 . S
C623 C621 1.390 1_545 S
C623 C624 1.387 . S
C623 H626 0.950 . S
C624 C623 1.387 . S
C624 C627 1.387 . S
H625 C621 0.950 . S
H626 C623 0.950 . S
C627 C618 1.390 1_545 S
C627 H620 0.950 . S
C627 C624 1.387 . S
C628 C629 1.387 . S
C628 H632 0.950 . S
C628 C637 1.390 1_455 S
C629 C628 1.387 . S
C629 C631 1.387 . S
H630 C637 0.950 . S
C631 C629 1.387 . S
C631 C633 1.390 1_455 S
C631 H635 0.950 . S
H632 C628 0.950 . S
C633 C631 1.390 1_655 S
C633 C634 1.387 . S
C633 H636 0.950 . S
C634 C633 1.387 . S
C634 C637 1.387 . S
H635 C631 0.950 . S
H636 C633 0.950 . S
C637 C628 1.390 1_655 S
C637 H630 0.950 . S
C637 C634 1.387 . S
C638 C639 1.387 . S
C638 H642 0.950 . S
C638 C647 1.390 1_545 S
C639 C638 1.387 . S
C639 C641 1.387 . S
H640 C647 0.950 . S
C641 C639 1.387 . S
C641 C643 1.390 1_545 S
C641 H645 0.950 . S
H642 C638 0.950 . S
C643 C641 1.390 1_565 S
C643 C644 1.387 . S
C643 H646 0.950 . S
C644 C643 1.387 . S
C644 C647 1.387 . S
H645 C641 0.950 . S
H646 C643 0.950 . S
C647 C638 1.390 1_565 S
C647 H640 0.950 . S
C647 C644 1.387 . S
C648 C649 1.387 . S
C648 H652 0.950 . S
C648 C657 1.390 1_455 S
C649 C648 1.387 . S
C649 C651 1.387 . S
H650 C657 0.950 . S
C651 C649 1.387 . S
C651 C653 1.390 1_455 S
C651 H655 0.950 . S
H652 C648 0.950 . S
C653 C651 1.390 1_655 S
C653 C654 1.387 . S
C653 H656 0.950 . S
C654 C653 1.387 . S
C654 C657 1.387 . S
H655 C651 0.950 . S
H656 C653 0.950 . S
C657 C648 1.390 1_655 S
C657 H650 0.950 . S
C657 C654 1.387 . S
C658 C659 1.387 . S
C658 H662 0.950 . S
C658 C667 1.390 1_565 S
C659 C658 1.387 . S
C659 C661 1.387 . S
H660 C667 0.950 . S
C661 C659 1.387 . S
C661 C663 1.390 1_565 S
C661 H665 0.950 . S
H662 C658 0.950 . S
C663 C661 1.390 1_545 S
C663 C664 1.387 . S
C663 H666 0.950 . S
C664 C663 1.387 . S
C664 C667 1.387 . S
H665 C661 0.950 . S
H666 C663 0.950 . S
C667 C658 1.390 1_545 S
C667 H660 0.950 . S
C667 C664 1.387 . S
C668 C669 1.387 . S
C668 H672 0.950 . S
C668 C677 1.390 1_655 S
C669 C668 1.387 . S
C669 C671 1.387 . S
H670 C677 0.950 . S
C671 C669 1.387 . S
C671 C673 1.390 1_655 S
C671 H675 0.950 . S
H672 C668 0.950 . S
C673 C671 1.390 1_455 S
C673 C674 1.387 . S
C673 H676 0.950 . S
C674 C673 1.387 . S
C674 C677 1.387 . S
H675 C671 0.950 . S
H676 C673 0.950 . S
C677 C668 1.390 1_455 S
C677 H670 0.950 . S
C677 C674 1.387 . S
C678 C679 1.387 . S
C678 H682 0.950 . S
C678 C687 1.390 1_545 S
C679 C678 1.387 . S
C679 C681 1.387 . S
H680 C687 0.950 . S
C681 C679 1.387 . S
C681 C683 1.390 1_545 S
C681 H685 0.950 . S
H682 C678 0.950 . S
C683 C681 1.390 1_565 S
C683 C684 1.387 . S
C683 H686 0.950 . S
C684 C683 1.387 . S
C684 C687 1.387 . S
H685 C681 0.950 . S
H686 C683 0.950 . S
C687 C678 1.390 1_565 S
C687 H680 0.950 . S
C687 C684 1.387 . S
C688 C689 1.387 . S
C688 H692 0.950 . S
C688 C697 1.390 . S
C689 C688 1.387 . S
C689 C691 1.387 . S
H690 C697 0.950 . S
C691 C689 1.387 . S
C691 C693 1.390 . S
C691 H695 0.950 . S
H692 C688 0.950 . S
C693 C691 1.390 . S
C693 C694 1.387 . S
C693 H696 0.950 . S
C694 C693 1.387 . S
C694 C697 1.387 . S
H695 C691 0.950 . S
H696 C693 0.950 . S
C697 C688 1.390 . S
C697 H690 0.950 . S
C697 C694 1.387 . S
C698 C699 1.387 . S
C698 H702 0.950 . S
C698 C707 1.390 . S
C699 C698 1.387 . S
C699 C701 1.387 . S
H700 C707 0.950 . S
C701 C699 1.387 . S
C701 C703 1.390 . S
C701 H705 0.950 . S
H702 C698 0.950 . S
C703 C701 1.390 . S
C703 C704 1.387 . S
C703 H706 0.950 . S
C704 C703 1.387 . S
C704 C707 1.387 . S
H705 C701 0.950 . S
H706 C703 0.950 . S
C707 C698 1.390 . S
C707 H700 0.950 . S
C707 C704 1.387 . S
C708 C709 1.387 . S
C708 H712 0.950 . S
C708 C717 1.390 . S
C709 C708 1.387 . S
C709 C711 1.387 . S
H710 C717 0.950 . S
C711 C709 1.387 . S
C711 C713 1.390 . S
C711 H715 0.950 . S
H712 C708 0.950 . S
C713 C711 1.390 . S
C713 C714 1.387 . S
C713 H716 0.950 . S
C714 C713 1.387 . S
C714 C717 1.387 . S
H715 C711 0.950 . S
H716 C713 0.950 . S
C717 C708 1.390 . S
C717 H710 0.950 . S
C717 C714 1.387 . S
C718 C719 1.387 . S
C718 H722 0.950 . S
C718 C727 1.390 . S
C719 C718 1.387 . S
C719 C721 1.387 . S
H720 C727 0.950 . S
C721 C719 1.387 . S
C721 C723 1.390 . S
C721 H725 0.950 . S
H722 C718 0.950 . S
C723 C721 1.390 . S
C723 C724 1.387 . S
C723 H726 0.950 . S
C724 C723 1.387 . S
C724 C727 1.387 . S
H725 C721 0.950 . S
H726 C723 0.950 . S
C727 C718 1.390 . S
C727 H720 0.950 . S
C727 C724 1.387 . S
C728 C729 1.387 . S
C728 H732 0.950 . S
C728 C737 1.390 . S
C729 C728 1.387 . S
C729 C731 1.387 . S
H730 C737 0.950 . S
C731 C729 1.387 . S
C731 C733 1.390 . S
C731 H735 0.950 . S
H732 C728 0.950 . S
C733 C731 1.390 . S
C733 C734 1.387 . S
C733 H736 0.950 . S
C734 C733 1.387 . S
C734 C737 1.387 . S
H735 C731 0.950 . S
H736 C733 0.950 . S
C737 C728 1.390 . S
C737 H730 0.950 . S
C737 C734 1.387 . S
C738 C739 1.387 . S
C738 H742 0.950 . S
C738 C747 1.390 . S
C739 C738 1.387 . S
C739 C741 1.387 . S
H740 C747 0.950 . S
C741 C739 1.387 . S
C741 C743 1.390 . S
C741 H745 0.950 . S
H742 C738 0.950 . S
C743 C741 1.390 . S
C743 C744 1.387 . S
C743 H746 0.950 . S
C744 C743 1.387 . S
C744 C747 1.387 . S
H745 C741 0.950 . S
H746 C743 0.950 . S
C747 C738 1.390 . S
C747 H740 0.950 . S
C747 C744 1.387 . S
C748 C749 1.387 . S
C748 H752 0.950 . S
C748 C757 1.390 . S
C749 C748 1.387 . S
C749 C751 1.387 . S
H750 C757 0.950 . S
C751 C749 1.387 . S
C751 C753 1.390 . S
C751 H755 0.950 . S
H752 C748 0.950 . S
C753 C751 1.390 . S
C753 C754 1.387 . S
C753 H756 0.950 . S
C754 C753 1.387 . S
C754 C757 1.387 . S
H755 C751 0.950 . S
H756 C753 0.950 . S
C757 C748 1.390 . S
C757 H750 0.950 . S
C757 C754 1.387 . S
C758 C759 1.387 . S
C758 H762 0.950 . S
C758 C767 1.390 . S
C759 C758 1.387 . S
C759 C761 1.387 . S
H760 C767 0.950 . S
C761 C759 1.387 . S
C761 C763 1.390 . S
C761 H765 0.950 . S
H762 C758 0.950 . S
C763 C761 1.390 . S
C763 C764 1.387 . S
C763 H766 0.950 . S
C764 C763 1.387 . S
C764 C767 1.387 . S
H765 C761 0.950 . S
H766 C763 0.950 . S
C767 C758 1.390 . S
C767 H760 0.950 . S
C767 C764 1.387 . S
C768 C769 1.387 . S
C768 H772 0.950 . S
C768 C777 1.390 . S
C769 C768 1.387 . S
C769 C771 1.387 . S
H770 C777 0.950 . S
C771 C769 1.387 . S
C771 C773 1.390 . S
C771 H775 0.950 . S
H772 C768 0.950 . S
C773 C771 1.390 . S
C773 C774 1.387 . S
C773 H776 0.950 . S
C774 C773 1.387 . S
C774 C777 1.387 . S
H775 C771 0.950 . S
H776 C773 0.950 . S
C777 C768 1.390 . S
C777 H770 0.950 . S
C777 C774 1.387 . S
C778 C779 1.387 . S
C778 H782 0.950 . S
C778 C787 1.390 . S
C779 C778 1.387 . S
C779 C781 1.387 . S
H780 C787 0.950 . S
C781 C779 1.387 . S
C781 C783 1.390 . S
C781 H785 0.950 . S
H782 C778 0.950 . S
C783 C781 1.390 . S
C783 C784 1.387 . S
C783 H786 0.950 . S
C784 C783 1.387 . S
C784 C787 1.387 . S
H785 C781 0.950 . S
H786 C783 0.950 . S
C787 C778 1.390 . S
C787 H780 0.950 . S
C787 C784 1.387 . S
C788 C789 1.387 . S
C788 H792 0.950 . S
C788 C797 1.390 . S
C789 C788 1.387 . S
C789 C791 1.387 . S
H790 C797 0.950 . S
C791 C789 1.387 . S
C791 C793 1.390 . S
C791 H795 0.950 . S
H792 C788 0.950 . S
C793 C791 1.390 . S
C793 C794 1.387 . S
C793 H796 0.950 . S
C794 C793 1.387 . S
C794 C797 1.387 . S
H795 C791 0.950 . S
H796 C793 0.950 . S
C797 C788 1.390 . S
C797 H790 0.950 . S
C797 C794 1.387 . S
C798 C799 1.387 . S
C798 H802 0.950 . S
C798 C807 1.390 . S
C799 C798 1.387 . S
C799 C801 1.387 . S
H800 C807 0.950 . S
C801 C799 1.387 . S
C801 C803 1.390 . S
C801 H805 0.950 . S
H802 C798 0.950 . S
C803 C801 1.390 . S
C803 C804 1.387 . S
C803 H806 0.950 . S
C804 C803 1.387 . S
C804 C807 1.387 . S
H805 C801 0.950 . S
H806 C803 0.950 . S
C807 C798 1.390 . S
C807 H800 0.950 . S
C807 C804 1.387 . S
C808 C809 1.387 . S
C808 H812 0.950 . S
C808 C817 1.390 . S
C809 C808 1.387 . S
C809 C811 1.387 . S
H810 C817 0.950 . S
C811 C809 1.387 . S
C811 C813 1.390 . S
C811 H815 0.950 . S
H812 C808 0.950 . S
C813 C811 1.390 . S
C813 C814 1.387 . S
C813 H816 0.950 . S
C814 C813 1.387 . S
C814 C817 1.387 . S
H815 C811 0.950 . S
H816 C813 0.950 . S
C817 C808 1.390 . S
C817 H810 0.950 . S
C817 C814 1.387 . S
C818 C819 1.387 . S
C818 H822 0.950 . S
C818 C827 1.390 . S
C819 C818 1.387 . S
C819 C821 1.387 . S
H820 C827 0.950 . S
C821 C819 1.387 . S
C821 C823 1.390 . S
C821 H825 0.950 . S
H822 C818 0.950 . S
C823 C821 1.390 . S
C823 C824 1.387 . S
C823 H826 0.950 . S
C824 C823 1.387 . S
C824 C827 1.387 . S
H825 C821 0.950 . S
H826 C823 0.950 . S
C827 C818 1.390 . S
C827 H820 0.950 . S
C827 C824 1.387 . S
C828 C829 1.387 . S
C828 H832 0.950 . S
C828 C837 1.390 . S
C829 C828 1.387 . S
C829 C831 1.387 . S
H830 C837 0.950 . S
C831 C829 1.387 . S
C831 C833 1.390 . S
C831 H835 0.950 . S
H832 C828 0.950 . S
C833 C831 1.390 . S
C833 C834 1.387 . S
C833 H836 0.950 . S
C834 C833 1.387 . S
C834 C837 1.387 . S
H835 C831 0.950 . S
H836 C833 0.950 . S
C837 C828 1.390 . S
C837 H830 0.950 . S
C837 C834 1.387 . S
C838 C839 1.387 . S
C838 H842 0.950 . S
C838 C847 1.390 . S
C839 C838 1.387 . S
C839 C841 1.387 . S
H840 C847 0.950 . S
C841 C839 1.387 . S
C841 C843 1.390 . S
C841 H845 0.950 . S
H842 C838 0.950 . S
C843 C841 1.390 . S
C843 C844 1.387 . S
C843 H846 0.950 . S
C844 C843 1.387 . S
C844 C847 1.387 . S
H845 C841 0.950 . S
H846 C843 0.950 . S
C847 C838 1.390 . S
C847 H840 0.950 . S
C847 C844 1.387 . S
C848 C849 1.387 . S
C848 H852 0.950 . S
C848 C857 1.390 . S
C849 C848 1.387 . S
C849 C851 1.387 . S
H850 C857 0.950 . S
C851 C849 1.387 . S
C851 C853 1.390 . S
C851 H855 0.950 . S
H852 C848 0.950 . S
C853 C851 1.390 . S
C853 C854 1.387 . S
C853 H856 0.950 . S
C854 C853 1.387 . S
C854 C857 1.387 . S
H855 C851 0.950 . S
H856 C853 0.950 . S
C857 C848 1.390 . S
C857 H850 0.950 . S
C857 C854 1.387 . S
C858 C859 1.387 . S
C858 H862 0.950 . S
C858 C867 1.390 . S
C859 C858 1.387 . S
C859 C861 1.387 . S
H860 C867 0.950 . S
C861 C859 1.387 . S
C861 C863 1.390 . S
C861 H865 0.950 . S
H862 C858 0.950 . S
C863 C861 1.390 . S
C863 C864 1.387 . S
C863 H866 0.950 . S
C864 C863 1.387 . S
C864 C867 1.387 . S
H865 C861 0.950 . S
H866 C863 0.950 . S
C867 C858 1.390 . S
C867 H860 0.950 . S
C867 C864 1.387 . S
C868 C869 1.387 . S
C868 H872 0.950 . S
C868 C877 1.390 . S
C869 C868 1.387 . S
C869 C871 1.387 . S
H870 C877 0.950 . S
C871 C869 1.387 . S
C871 C873 1.390 . S
C871 H875 0.950 . S
H872 C868 0.950 . S
C873 C871 1.390 . S
C873 C874 1.387 . S
C873 H876 0.950 . S
C874 C873 1.387 . S
C874 C877 1.387 . S
H875 C871 0.950 . S
H876 C873 0.950 . S
C877 C868 1.390 . S
C877 H870 0.950 . S
C877 C874 1.387 . S
C878 C879 1.387 . S
C878 H882 0.950 . S
C878 C887 1.390 . S
C879 C878 1.387 . S
C879 C881 1.387 . S
H880 C887 0.950 . S
C881 C879 1.387 . S
C881 C883 1.390 . S
C881 H885 0.950 . S
H882 C878 0.950 . S
C883 C881 1.390 . S
C883 C884 1.387 . S
C883 H886 0.950 . S
C884 C883 1.387 . S
C884 C887 1.387 . S
H885 C881 0.950 . S
H886 C883 0.950 . S
C887 C878 1.390 . S
C887 H880 0.950 . S
C887 C884 1.387 . S
C888 C889 1.387 . S
C888 H892 0.950 . S
C888 C897 1.390 . S
C889 C888 1.387 . S
C889 C891 1.387 . S
H890 C897 0.950 . S
C891 C889 1.387 . S
C891 C893 1.390 . S
C891 H895 0.950 . S
H892 C888 0.950 . S
C893 C891 1.390 . S
C893 C894 1.387 . S
C893 H896 0.950 . S
C894 C893 1.387 . S
C894 C897 1.387 . S
H895 C891 0.950 . S
H896 C893 0.950 . S
C897 C888 1.390 . S
C897 H890 0.950 . S
C897 C894 1.387 . S
C898 C899 1.387 . S
C898 H902 0.950 . S
C898 C907 1.390 . S
C899 C898 1.387 . S
C899 C901 1.387 . S
H900 C907 0.950 . S
C901 C899 1.387 . S
C901 C903 1.390 . S
C901 H905 0.950 . S
H902 C898 0.950 . S
C903 C901 1.390 . S
C903 C904 1.387 . S
C903 H906 0.950 . S
C904 C903 1.387 . S
C904 C907 1.387 . S
H905 C901 0.950 . S
H906 C903 0.950 . S
C907 C898 1.390 . S
C907 H900 0.950 . S
C907 C904 1.387 . S
C908 C909 1.387 . S
C908 H912 0.950 . S
C908 C917 1.390 . S
C909 C908 1.387 . S
C909 C911 1.387 . S
H910 C917 0.950 . S
C911 C909 1.387 . S
C911 C913 1.390 . S
C911 H915 0.950 . S
H912 C908 0.950 . S
C913 C911 1.390 . S
C913 C914 1.387 . S
C913 H916 0.950 . S
C914 C913 1.387 . S
C914 C917 1.387 . S
H915 C911 0.950 . S
H916 C913 0.950 . S
C917 C908 1.390 . S
C917 H910 0.950 . S
C917 C914 1.387 . S
C918 C919 1.387 . S
C918 H922 0.950 . S
C918 C927 1.390 . S
C919 C918 1.387 . S
C919 C921 1.387 . S
H920 C927 0.950 . S
C921 C919 1.387 . S
C921 C923 1.390 . S
C921 H925 0.950 . S
H922 C918 0.950 . S
C923 C921 1.390 . S
C923 C924 1.387 . S
C923 H926 0.950 . S
C924 C923 1.387 . S
C924 C927 1.387 . S
H925 C921 0.950 . S
H926 C923 0.950 . S
C927 C918 1.390 . S
C927 H920 0.950 . S
C927 C924 1.387 . S
C529 C17 1.323 . S
C534 C512 1.326 . S
C539 C413 1.323 . S
C544 C50 1.326 . S
C549 C446 1.325 . S
C554 C83 1.323 . S
C559 C479 1.323 . S
C564 C116 1.326 . S
C569 C149 1.326 . S
C574 C314 1.323 . S
C579 C347 1.326 . S
C584 C182 1.323 . S
C589 C380 1.326 . S
C594 C215 1.323 . S
C599 C248 1.326 . S
C604 C281 1.323 . S
C609 C206 2.020 . S
C614 C8 2.020 . S
C619 C239 2.018 . S
C624 C41 2.018 . S
C629 C140 2.018 . S
C634 C74 2.018 . S
C639 C173 2.020 . S
C644 C107 2.020 . S
C649 N146 0.865 . S
C654 N80 0.865 . S
C659 N113 0.865 . S
C664 N179 0.865 . S
C669 N212 0.865 . S
C674 N14 0.865 . S
C679 N47 0.868 . S
C684 N245 0.868 . S
C689 C272 2.020 . S
C694 C470 2.020 . S
C699 C503 2.020 . S
C704 C305 2.020 . S
C709 C404 2.018 . S
C714 C338 2.018 . S
C719 C437 2.018 . S
C724 C371 2.018 . S
C729 N410 0.868 . S
C734 N344 0.868 . S
C739 N443 0.868 . S
C744 N377 0.868 . S
C749 N278 0.868 . S
C754 N476 0.868 . S
C759 N311 0.865 . S
C764 N509 0.865 . S
C769 N170 0.884 . S
C774 N5 0.881 . S
C779 N38 0.880 . S
C784 N203 0.882 . S
C789 N236 0.882 . S
C794 N71 0.884 . S
C799 N104 0.880 . S
C804 N137 0.884 . S
C809 C94 2.307 . S
C814 C259 2.307 . S
C819 C160 2.306 . S
C824 C127 2.307 . S
C829 C193 2.307 . S
C834 C28 2.307 . S
C839 C61 2.306 . S
C844 C226 2.307 . S
C849 N434 0.883 . S
C854 N269 0.880 . S
C859 N302 0.881 . S
C864 N467 0.884 . S
C869 N500 0.880 . S
C874 N335 0.883 . S
C879 N368 0.883 . S
C884 N401 0.880 . S
C889 C523 2.307 . S
C894 C358 2.307 . S
C899 C391 2.307 . S
C904 C424 2.307 . S
C909 C457 2.307 . S
C914 C292 2.307 . S
C919 C325 2.307 . S
C924 C490 2.307 . S
