# Generated by pormake.
# Topology wiu, (6)-cn, num edge types: 1
# Building blocks:
#     Node 0, Type 0, BuildingBlock: GEDQOX_clean_sbu_0, # of connection points: 6
#     Node 1, Type 0, BuildingBlock: GEDQOX_clean_sbu_0, # of connection points: 6
#     Node 2, Type 0, BuildingBlock: GEDQOX_clean_sbu_0, # of connection points: 6
#     Node 3, Type 0, BuildingBlock: GEDQOX_clean_sbu_0, # of connection points: 6
#     Node 4, Type 0, BuildingBlock: GEDQOX_clean_sbu_0, # of connection points: 6
#     Node 5, Type 0, BuildingBlock: GEDQOX_clean_sbu_0, # of connection points: 6
#     Node 6, Type 0, BuildingBlock: GEDQOX_clean_sbu_0, # of connection points: 6
#     Node 7, Type 0, BuildingBlock: GEDQOX_clean_sbu_0, # of connection points: 6
#     Node 8, Type 0, BuildingBlock: GEDQOX_clean_sbu_0, # of connection points: 6
#     Node 9, Type 0, BuildingBlock: GEDQOX_clean_sbu_0, # of connection points: 6
#     Node 10, Type 0, BuildingBlock: GEDQOX_clean_sbu_0, # of connection points: 6
#     Node 11, Type 0, BuildingBlock: GEDQOX_clean_sbu_0, # of connection points: 6
#     Node 12, Type 0, BuildingBlock: GEDQOX_clean_sbu_0, # of connection points: 6
#     Node 13, Type 0, BuildingBlock: GEDQOX_clean_sbu_0, # of connection points: 6
#     Node 14, Type 0, BuildingBlock: GEDQOX_clean_sbu_0, # of connection points: 6
#     Node 15, Type 0, BuildingBlock: GEDQOX_clean_sbu_0, # of connection points: 6
#     Edge 16, Type (0, 0), BuildingBlock: MIFKUJ_clean_linker_0, # of connection points: 2
#     Edge 17, Type (0, 0), BuildingBlock: MIFKUJ_clean_linker_0, # of connection points: 2
#     Edge 18, Type (0, 0), BuildingBlock: MIFKUJ_clean_linker_0, # of connection points: 2
#     Edge 19, Type (0, 0), BuildingBlock: MIFKUJ_clean_linker_0, # of connection points: 2
#     Edge 20, Type (0, 0), BuildingBlock: MIFKUJ_clean_linker_0, # of connection points: 2
#     Edge 21, Type (0, 0), BuildingBlock: MIFKUJ_clean_linker_0, # of connection points: 2
#     Edge 22, Type (0, 0), BuildingBlock: MIFKUJ_clean_linker_0, # of connection points: 2
#     Edge 23, Type (0, 0), BuildingBlock: MIFKUJ_clean_linker_0, # of connection points: 2
#     Edge 24, Type (0, 0), BuildingBlock: MIFKUJ_clean_linker_0, # of connection points: 2
#     Edge 25, Type (0, 0), BuildingBlock: MIFKUJ_clean_linker_0, # of connection points: 2
#     Edge 26, Type (0, 0), BuildingBlock: MIFKUJ_clean_linker_0, # of connection points: 2
#     Edge 27, Type (0, 0), BuildingBlock: MIFKUJ_clean_linker_0, # of connection points: 2
#     Edge 28, Type (0, 0), BuildingBlock: MIFKUJ_clean_linker_0, # of connection points: 2
#     Edge 29, Type (0, 0), BuildingBlock: MIFKUJ_clean_linker_0, # of connection points: 2
#     Edge 30, Type (0, 0), BuildingBlock: MIFKUJ_clean_linker_0, # of connection points: 2
#     Edge 31, Type (0, 0), BuildingBlock: MIFKUJ_clean_linker_0, # of connection points: 2
#     Edge 32, Type (0, 0), BuildingBlock: MIFKUJ_clean_linker_0, # of connection points: 2
#     Edge 33, Type (0, 0), BuildingBlock: MIFKUJ_clean_linker_0, # of connection points: 2
#     Edge 34, Type (0, 0), BuildingBlock: MIFKUJ_clean_linker_0, # of connection points: 2
#     Edge 35, Type (0, 0), BuildingBlock: MIFKUJ_clean_linker_0, # of connection points: 2
#     Edge 36, Type (0, 0), BuildingBlock: MIFKUJ_clean_linker_0, # of connection points: 2
#     Edge 37, Type (0, 0), BuildingBlock: MIFKUJ_clean_linker_0, # of connection points: 2
#     Edge 38, Type (0, 0), BuildingBlock: MIFKUJ_clean_linker_0, # of connection points: 2
#     Edge 39, Type (0, 0), BuildingBlock: MIFKUJ_clean_linker_0, # of connection points: 2
#     Edge 40, Type (0, 0), BuildingBlock: MIFKUJ_clean_linker_0, # of connection points: 2
#     Edge 41, Type (0, 0), BuildingBlock: MIFKUJ_clean_linker_0, # of connection points: 2
#     Edge 42, Type (0, 0), BuildingBlock: MIFKUJ_clean_linker_0, # of connection points: 2
#     Edge 43, Type (0, 0), BuildingBlock: MIFKUJ_clean_linker_0, # of connection points: 2
#     Edge 44, Type (0, 0), BuildingBlock: MIFKUJ_clean_linker_0, # of connection points: 2
#     Edge 45, Type (0, 0), BuildingBlock: MIFKUJ_clean_linker_0, # of connection points: 2
#     Edge 46, Type (0, 0), BuildingBlock: MIFKUJ_clean_linker_0, # of connection points: 2
#     Edge 47, Type (0, 0), BuildingBlock: MIFKUJ_clean_linker_0, # of connection points: 2
#     Edge 48, Type (0, 0), BuildingBlock: MIFKUJ_clean_linker_0, # of connection points: 2
#     Edge 49, Type (0, 0), BuildingBlock: MIFKUJ_clean_linker_0, # of connection points: 2
#     Edge 50, Type (0, 0), BuildingBlock: MIFKUJ_clean_linker_0, # of connection points: 2
#     Edge 51, Type (0, 0), BuildingBlock: MIFKUJ_clean_linker_0, # of connection points: 2
#     Edge 52, Type (0, 0), BuildingBlock: MIFKUJ_clean_linker_0, # of connection points: 2
#     Edge 53, Type (0, 0), BuildingBlock: MIFKUJ_clean_linker_0, # of connection points: 2
#     Edge 54, Type (0, 0), BuildingBlock: MIFKUJ_clean_linker_0, # of connection points: 2
#     Edge 55, Type (0, 0), BuildingBlock: MIFKUJ_clean_linker_0, # of connection points: 2
#     Edge 56, Type (0, 0), BuildingBlock: MIFKUJ_clean_linker_0, # of connection points: 2
#     Edge 57, Type (0, 0), BuildingBlock: MIFKUJ_clean_linker_0, # of connection points: 2
#     Edge 58, Type (0, 0), BuildingBlock: MIFKUJ_clean_linker_0, # of connection points: 2
#     Edge 59, Type (0, 0), BuildingBlock: MIFKUJ_clean_linker_0, # of connection points: 2
#     Edge 60, Type (0, 0), BuildingBlock: MIFKUJ_clean_linker_0, # of connection points: 2
#     Edge 61, Type (0, 0), BuildingBlock: MIFKUJ_clean_linker_0, # of connection points: 2
#     Edge 62, Type (0, 0), BuildingBlock: MIFKUJ_clean_linker_0, # of connection points: 2
#     Edge 63, Type (0, 0), BuildingBlock: MIFKUJ_clean_linker_0, # of connection points: 2
# Relax obj value: 0.215
# Max RMSD: 0.298
# Mean RMSD: 0.263
data_MOF--net-wiu--node1-GEDQOX_clean_sbu_0--edge1-MIFKUJ_clean_linker_0
_symmetry_space_group_name_H-M    P1
_symmetry_Int_Tables_number       1
_symmetry_cell_setting            triclinic
loop_
_symmetry_equiv_pos_as_xyz
'x, y, z'
_cell_length_a     37.547557
_cell_length_b     36.327341
_cell_length_c     105.77036
_cell_angle_alpha  80.376529
_cell_angle_beta   81.563533
_cell_angle_gamma 80.57865
loop_
_atom_site_label
_atom_site_type_symbol
_atom_site_fract_x
_atom_site_fract_y
_atom_site_fract_z
_atom_type_partial_charge
Nd0 Nd 0.34792 0.02528 0.11435 0.0
Nd1 Nd 0.3032 0.07204 0.09554 0.0
C2 C 0.37077 -0.01034 0.13659 0.0
C3 C 0.36855 -0.00341 0.15035 0.0
C4 C 0.3415 0.98372 0.16001 0.0
C5 C 0.3409 -0.01113 0.17298 0.0
C6 C 0.36747 0.00684 0.17675 0.0
C7 C 0.39431 0.01989 0.16702 0.0
C8 C 0.3949 0.01477 0.1541 0.0
C9 C 0.38429 0.0771 0.09816 0.0
C10 C 0.30031 0.10749 0.12107 0.0
C11 C 0.26971 0.1087 0.07586 0.0
C12 C 0.26829 0.1039 0.06241 0.0
C13 C 0.30001 0.09758 0.05371 0.0
C14 C 0.29758 0.091 0.04123 0.0
C15 C 0.26352 0.08999 0.03738 0.0
C16 C 0.23195 0.09641 0.0461 0.0
C17 C 0.23433 0.1035 0.05847 0.0
C18 C 0.26376 0.02853 0.11446 0.0
C19 C 0.36887 0.00804 0.08442 0.0
O20 O 0.34165 0.98308 0.13236 0.0
O21 O 0.38988 0.01056 0.12782 0.0
O22 O 0.39895 0.04285 0.10188 0.0
O23 O 0.35195 0.08353 0.10336 0.0
O24 O 0.31573 0.07326 0.1256 0.0
O25 O 0.29709 0.11677 0.10868 0.0
O26 O 0.29967 0.11758 0.07873 0.0
O27 O 0.25583 0.0834 0.0846 0.0
O28 O 0.25462 0.06388 0.1104 0.0
O29 O 0.29442 0.01575 0.10859 0.0
O30 O 0.34348 0.03698 0.08196 0.0
O31 O 0.3738 -0.00619 0.09664 0.0
H32 H 0.32096 0.96923 0.1576 0.0
H33 H 0.31998 0.97791 0.18011 0.0
H34 H 0.41495 0.0344 0.16934 0.0
H35 H 0.41637 0.02493 0.14704 0.0
H36 H 0.3266 0.09727 0.05658 0.0
H37 H 0.32228 0.08603 0.03465 0.0
H38 H 0.20536 0.0963 0.04328 0.0
H39 H 0.20958 0.10819 0.06505 0.0
Nd40 Nd 0.63606 0.56389 0.35665 0.0
Nd41 Nd 0.6078 0.53203 0.33688 0.0
C42 C 0.6761 0.57463 0.37389 0.0
C43 C 0.676 0.5783 0.38758 0.0
C44 C 0.68152 0.54601 0.39686 0.0
C45 C 0.68673 0.54938 0.40938 0.0
C46 C 0.68662 0.58504 0.41286 0.0
C47 C 0.67969 0.61739 0.40374 0.0
C48 C 0.67462 0.61404 0.39119 0.0
C49 C 0.57658 0.6086 0.34808 0.0
C50 C 0.55658 0.53244 0.36389 0.0
C51 C 0.592 0.50665 0.31677 0.0
C52 C 0.59636 0.51432 0.30255 0.0
C53 C 0.5661 0.51664 0.29598 0.0
C54 C 0.57055 0.51819 0.28256 0.0
C55 C 0.60547 0.51688 0.27551 0.0
C56 C 0.63548 0.51662 0.28209 0.0
C57 C 0.63095 0.51557 0.29546 0.0
C58 C 0.64282 0.47961 0.35488 0.0
C59 C 0.66674 0.59281 0.32643 0.0
O60 O 0.67341 0.54133 0.37124 0.0
O61 O 0.6589 0.6024 0.36652 0.0
O62 O 0.58328 0.60387 0.36003 0.0
O63 O 0.60181 0.59169 0.34095 0.0
O64 O 0.5866 0.53633 0.36864 0.0
O65 O 0.55623 0.53528 0.35128 0.0
O66 O 0.56881 0.53028 0.32311 0.0
O67 O 0.62179 0.49431 0.32216 0.0
O68 O 0.6115 0.47757 0.3516 0.0
O69 O 0.65444 0.50932 0.34891 0.0
O70 O 0.64359 0.57281 0.32341 0.0
O71 O 0.67122 0.59191 0.33867 0.0
H72 H 0.68302 0.51801 0.39437 0.0
H73 H 0.69161 0.52401 0.41627 0.0
H74 H 0.67984 0.64522 0.40613 0.0
H75 H 0.67095 0.63936 0.3842 0.0
H76 H 0.53916 0.5159 0.30126 0.0
H77 H 0.54674 0.51927 0.27777 0.0
H78 H 0.66281 0.51524 0.27703 0.0
H79 H 0.65482 0.51407 0.30027 0.0
Nd80 Nd 0.16813 0.86313 0.58986 0.0
Nd81 Nd 0.21424 0.83389 0.56694 0.0
C82 C 0.14185 0.89169 0.61128 0.0
C83 C 0.1489 0.89588 0.62426 0.0
C84 C 0.17791 0.9137 0.62608 0.0
C85 C 0.18149 0.92107 0.63835 0.0
C86 C 0.15566 0.91151 0.64891 0.0
C87 C 0.12717 0.89296 0.64713 0.0
C88 C 0.12391 0.88512 0.63491 0.0
C89 C 0.13137 0.82651 0.57655 0.0
C90 C 0.21788 0.77931 0.59427 0.0
C91 C 0.24693 0.81344 0.54462 0.0
C92 C 0.2512 0.82818 0.5307 0.0
C93 C 0.22654 0.85783 0.52526 0.0
C94 C 0.23301 0.87314 0.51218 0.0
C95 C 0.26431 0.85912 0.50433 0.0
C96 C 0.28862 0.82911 0.50988 0.0
C97 C 0.28209 0.81387 0.5229 0.0
C98 C 0.25095 0.86742 0.58164 0.0
C99 C 0.14837 0.90645 0.56189 0.0
O100 O 0.16002 0.90991 0.60132 0.0
O101 O 0.1364 0.85844 0.60938 0.0
O102 O 0.11663 0.85507 0.58231 0.0
O103 O 0.16379 0.81555 0.5789 0.0
O104 O 0.20355 0.81019 0.59936 0.0
O105 O 0.22055 0.77924 0.58163 0.0
O106 O 0.21518 0.80458 0.54997 0.0
O107 O 0.26189 0.83063 0.5519 0.0
O108 O 0.26433 0.83737 0.57656 0.0
O109 O 0.21944 0.88009 0.57852 0.0
O110 O 0.17318 0.88083 0.55688 0.0
O111 O 0.14451 0.9088 0.57435 0.0
H112 H 0.19715 0.92311 0.618 0.0
H113 H 0.20352 0.93569 0.63947 0.0
H114 H 0.10709 0.88506 0.65516 0.0
H115 H 0.10113 0.87169 0.63371 0.0
H116 H 0.2026 0.86943 0.53114 0.0
H117 H 0.21351 0.89594 0.50822 0.0
H118 H 0.31329 0.81798 0.50425 0.0
H119 H 0.30167 0.7913 0.52696 0.0
Nd120 Nd 0.81351 0.50586 0.83935 0.0
Nd121 Nd 0.88472 0.53611 0.83983 0.0
C122 C 0.76193 0.46969 0.8349 0.0
C123 C 0.75814 0.44269 0.82644 0.0
C124 C 0.78229 0.4386 0.81514 0.0
C125 C 0.77955 0.4111 0.80765 0.0
C126 C 0.75292 0.38698 0.81144 0.0
C127 C 0.72872 0.39139 0.82274 0.0
C128 C 0.7313 0.41906 0.83015 0.0
C129 C 0.80329 0.57592 0.84676 0.0
C130 C 0.85888 0.53813 0.81185 0.0
C131 C 0.93935 0.5672 0.84515 0.0
C132 C 0.96263 0.56532 0.85563 0.0
C133 C 0.95045 0.58372 0.86651 0.0
C134 C 0.97366 0.5833 0.87586 0.0
C135 C 0.00975 0.56457 0.87459 0.0
C136 C 0.02161 0.54585 0.86376 0.0
C137 C -0.00149 0.54637 0.85442 0.0
C138 C 0.8931 0.46476 0.83352 0.0
C139 C 0.84129 0.49542 0.86716 0.0
O140 O 0.78349 0.45676 0.84377 0.0
O141 O 0.76587 0.5041 0.8294 0.0
O142 O 0.78131 0.55126 0.85072 0.0
O143 O 0.82758 0.56537 0.83793 0.0
O144 O 0.83841 0.51303 0.81812 0.0
O145 O 0.87661 0.55654 0.81821 0.0
O146 O 0.90523 0.58245 0.84685 0.0
O147 O 0.9438 0.53792 0.83912 0.0
O148 O 0.91455 0.4893 0.82846 0.0
O149 O 0.86987 0.47728 0.84221 0.0
O150 O 0.86616 0.51711 0.86166 0.0
O151 O 0.82009 0.48351 0.86031 0.0
H152 H 0.80358 0.45621 0.81223 0.0
H153 H 0.79883 0.40806 0.79907 0.0
H154 H 0.70773 0.37346 0.82583 0.0
H155 H 0.7126 0.42167 0.8389 0.0
H156 H 0.92314 0.59892 0.86774 0.0
H157 H 0.96349 0.59847 0.88393 0.0
H158 H 0.04886 0.53055 0.86247 0.0
H159 H 0.00895 0.5321 0.84614 0.0
Nd160 Nd 0.68128 0.90144 0.95235 0.0
Nd161 Nd 0.63346 0.94673 0.93359 0.0
C162 C 0.71801 0.86579 0.97138 0.0
C163 C 0.71985 0.86602 0.98511 0.0
C164 C 0.6894 0.87901 0.99342 0.0
C165 C 0.69297 0.88146 1.00623 0.0
C166 C 0.72708 0.87116 1.01086 0.0
C167 C 0.75731 0.85802 1.00243 0.0
C168 C 0.75366 0.85538 0.98971 0.0
C169 C 0.71708 0.94641 0.93276 0.0
C170 C 0.61431 0.96457 0.96354 0.0
C171 C 0.61074 0.98194 0.91135 0.0
C172 C 0.61486 0.97545 0.89755 0.0
C173 C 0.64899 0.96565 0.89049 0.0
C174 C 0.65163 0.95943 0.87755 0.0
C175 C 0.62025 0.96245 0.87131 0.0
C176 C 0.58622 0.97215 0.87848 0.0
C177 C 0.58362 0.97857 0.89135 0.0
C178 C 0.59855 0.89709 0.95099 0.0
C179 C 0.68186 0.86432 0.92715 0.0
O180 O 0.68986 0.85387 0.96826 0.0
O181 O 0.72748 0.89544 0.96362 0.0
O182 O 0.72824 0.91138 0.93665 0.0
O183 O 0.68671 0.95765 0.93904 0.0
O184 O 0.64032 0.93609 0.96595 0.0
O185 O 0.60844 0.9783 0.95135 0.0
O186 O 0.63871 -0.01008 0.91594 0.0
O187 O 0.59233 0.95931 0.91973 0.0
O188 O 0.58278 0.93007 0.94627 0.0
O189 O 0.63086 0.88982 0.9457 0.0
O190 O 0.66367 0.8973 0.92276 0.0
O191 O 0.68887 0.85644 0.93922 0.0
H192 H 0.6631 0.88771 0.98996 0.0
H193 H 0.66911 0.89146 1.01249 0.0
H194 H 0.78413 0.8507 1.00553 0.0
H195 H 0.77752 0.8458 0.98335 0.0
H196 H 0.67366 0.96263 0.89497 0.0
H197 H 0.67834 0.95179 0.87249 0.0
H198 H 0.56138 0.97547 0.87408 0.0
H199 H 0.55695 -0.01391 0.89649 0.0
Nd200 Nd 0.37886 0.43194 0.71043 0.0
Nd201 Nd 0.36731 0.38394 0.69273 0.0
C202 C 0.38357 0.47031 0.72911 0.0
C203 C 0.37334 0.46976 0.74313 0.0
C204 C 0.39369 0.44559 0.75213 0.0
C205 C 0.38478 0.44737 0.76534 0.0
C206 C 0.35541 0.47327 0.76974 0.0
C207 C 0.33471 0.49686 0.76075 0.0
C208 C 0.34371 0.49525 0.74758 0.0
C209 C 0.34868 0.47237 0.68912 0.0
C210 C 0.32243 0.36872 0.72113 0.0
C211 C 0.35312 0.35511 0.67296 0.0
C212 C 0.35304 0.36324 0.65892 0.0
C213 C 0.35039 0.4003 0.65234 0.0
C214 C 0.34768 0.40719 0.63907 0.0
C215 C 0.34779 0.37708 0.63222 0.0
C216 C 0.35116 0.34003 0.6389 0.0
C217 C 0.3538 0.33323 0.65212 0.0
C218 C 0.40863 0.34516 0.71153 0.0
C219 C 0.44022 0.42718 0.68605 0.0
O220 O 0.40962 0.4446 0.72517 0.0
O221 O 0.35682 0.47756 0.72202 0.0
O222 O 0.37507 0.48111 0.69405 0.0
O223 O 0.33821 0.44224 0.69545 0.0
O224 O 0.34307 0.39136 0.72414 0.0
O225 O 0.32295 0.36472 0.70893 0.0
O226 O 0.32876 0.37605 0.67986 0.0
O227 O 0.38478 0.34795 0.67727 0.0
O228 O 0.38413 0.33119 0.7071 0.0
O229 O 0.41168 0.37777 0.70564 0.0
O230 O 0.41556 0.41345 0.6811 0.0
O231 O 0.43453 0.4327 0.69826 0.0
H232 H 0.41678 0.42573 0.749 0.0
H233 H 0.40107 0.42874 0.77209 0.0
H234 H 0.31232 0.51754 0.76386 0.0
H235 H 0.32784 0.51455 0.74085 0.0
H236 H 0.34979 0.42385 0.65749 0.0
H237 H 0.34523 0.436 0.6342 0.0
H238 H 0.35055 0.31624 0.63402 0.0
H239 H 0.35559 0.30449 0.65709 0.0
Nd240 Nd 0.78209 0.12709 0.48018 0.0
Nd241 Nd 0.83394 0.09849 0.45816 0.0
C242 C 0.74417 0.15643 0.50025 0.0
C243 C 0.73453 0.14218 0.51421 0.0
C244 C 0.75691 0.14565 0.5234 0.0
C245 C 0.74861 0.13152 0.53648 0.0
C246 C 0.71754 0.11366 0.5408 0.0
C247 C 0.69481 0.11073 0.53164 0.0
C248 C 0.70317 0.12483 0.51853 0.0
C249 C 0.7571 0.07483 0.46826 0.0
C250 C 0.8453 0.05646 0.48715 0.0
C251 C 0.86449 0.06976 0.43723 0.0
C252 C 0.85816 0.06787 0.42402 0.0
C253 C 0.82288 0.07158 0.42059 0.0
C254 C 0.81777 0.0657 0.40828 0.0
C255 C 0.84793 0.0564 0.39921 0.0
C256 C 0.88316 0.05467 0.40255 0.0
C257 C 0.88818 0.06014 0.41486 0.0
C258 C 0.86709 0.13439 0.47284 0.0
C259 C 0.78241 0.18056 0.45177 0.0
O260 O 0.77839 0.15961 0.49641 0.0
O261 O 0.72913 0.14355 0.4918 0.0
O262 O 0.75274 0.0749 0.48067 0.0
O263 O 0.77394 0.10148 0.46292 0.0
O264 O 0.82439 0.08615 0.49113 0.0
O265 O 0.84644 0.05019 0.47511 0.0
O266 O 0.84393 0.05189 0.44658 0.0
O267 O 0.87046 0.10229 0.43964 0.0
O268 O 0.88261 0.10534 0.46746 0.0
O269 O 0.83524 0.14536 0.46978 0.0
O270 O 0.80745 0.15429 0.44719 0.0
O271 O 0.76851 0.17718 0.46412 0.0
H272 H 0.78104 0.15925 0.52049 0.0
H273 H 0.76642 0.13501 0.54323 0.0
H274 H 0.67081 0.09695 0.53456 0.0
H275 H 0.68515 0.12183 0.51177 0.0
H276 H 0.79936 0.07817 0.4275 0.0
H277 H 0.7903 0.06726 0.40603 0.0
H278 H 0.90697 0.04863 0.39569 0.0
H279 H 0.9156 0.05757 0.41732 0.0
Nd280 Nd 0.11801 0.4417 0.20704 0.0
Nd281 Nd 0.18654 0.47661 0.20631 0.0
C282 C 0.06563 0.40724 0.20176 0.0
C283 C 0.04074 0.41012 0.19168 0.0
C284 C 0.05034 0.3898 0.18116 0.0
C285 C 0.02587 0.39107 0.17216 0.0
C286 C 0.991 0.41259 0.17343 0.0
C287 C 0.9816 0.43302 0.18393 0.0
C288 C 0.00598 0.4317 0.19291 0.0
C289 C 0.10618 0.5113 0.21481 0.0
C290 C 0.15243 0.4917 0.17977 0.0
C291 C 0.23887 0.51196 0.21054 0.0
C292 C 0.24262 0.53618 0.21992 0.0
C293 C 0.21167 0.55372 0.22691 0.0
C294 C 0.21518 0.57837 0.23531 0.0
C295 C 0.24977 0.58575 0.23696 0.0
C296 C 0.28074 0.56726 0.23014 0.0
C297 C 0.27715 0.54276 0.22167 0.0
C298 C 0.19811 0.40903 0.19703 0.0
C299 C 0.14698 0.43988 0.23441 0.0
O300 O 0.10035 0.39564 0.19889 0.0
O301 O 0.05995 0.43405 0.20895 0.0
O302 O 0.08722 0.48453 0.21986 0.0
O303 O 0.12842 0.50201 0.20537 0.0
O304 O 0.13167 0.4657 0.18524 0.0
O305 O 0.17289 0.50507 0.18651 0.0
O306 O 0.21546 0.52633 0.20239 0.0
O307 O 0.23681 0.4765 0.21509 0.0
O308 O 0.21562 0.43704 0.19225 0.0
O309 O 0.17676 0.41588 0.20706 0.0
O310 O 0.16524 0.46658 0.2279 0.0
O311 O 0.12991 0.4202 0.22826 0.0
H312 H 0.0767 0.37261 0.17992 0.0
H313 H 0.03442 0.37523 0.16416 0.0
H314 H 0.95492 0.44938 0.18543 0.0
H315 H 0.99727 0.44728 0.20098 0.0
H316 H 0.18473 0.54885 0.2257 0.0
H317 H 0.19067 0.59224 0.24027 0.0
H318 H 0.3078 0.57166 0.23135 0.0
H319 H 0.30132 0.52922 0.21639 0.0
Nd320 Nd 0.85678 0.5314 0.61392 0.0
Nd321 Nd 0.8084 0.5806 0.59636 0.0
C322 C 0.87869 0.49265 0.63577 0.0
C323 C 0.87599 0.50042 0.64938 0.0
C324 C 0.86237 0.47492 0.65978 0.0
C325 C 0.86064 0.48142 0.67263 0.0
C326 C 0.87274 0.51354 0.67548 0.0
C327 C 0.88593 0.5393 0.66503 0.0
C328 C 0.8874 0.53294 0.6522 0.0
C329 C 0.89175 0.58416 0.5979 0.0
C330 C 0.80775 0.61105 0.62274 0.0
C331 C 0.77095 0.61976 0.57803 0.0
C332 C 0.7707 0.624 0.56404 0.0
C333 C 0.80282 0.61746 0.55561 0.0
C334 C 0.8012 0.61832 0.54244 0.0
C335 C 0.7674 0.62553 0.53756 0.0
C336 C 0.73544 0.63262 0.54609 0.0
C337 C 0.73714 0.63193 0.55919 0.0
C338 C 0.77366 0.53108 0.61465 0.0
C339 C 0.87463 0.51988 0.58357 0.0
O340 O 0.84873 0.48847 0.63155 0.0
O341 O 0.89945 0.51185 0.62699 0.0
O342 O 0.90749 0.55045 0.60187 0.0
O343 O 0.85933 0.59044 0.60326 0.0
O344 O 0.827 0.57786 0.62619 0.0
O345 O 0.79999 0.62153 0.61083 0.0
O346 O 0.79712 0.63228 0.58225 0.0
O347 O 0.76364 0.58731 0.58439 0.0
O348 O 0.76191 0.56651 0.61186 0.0
O349 O 0.80386 0.5219 0.60793 0.0
O350 O 0.85055 0.55059 0.58193 0.0
O351 O 0.87883 0.50188 0.59548 0.0
H352 H 0.85334 0.44966 0.65796 0.0
H353 H 0.85056 0.46075 0.68035 0.0
H354 H 0.89492 0.56466 0.66677 0.0
H355 H 0.89766 0.55352 0.64448 0.0
H356 H 0.82898 0.61109 0.55924 0.0
H357 H 0.82631 0.61308 0.53611 0.0
H358 H 0.70893 0.63748 0.54274 0.0
H359 H 0.71207 0.6366 0.56562 0.0
Nd360 Nd 0.1274 0.08081 0.85344 0.0
Nd361 Nd 0.11391 0.03301 0.83643 0.0
C362 C 0.14409 0.11048 0.87262 0.0
C363 C 0.14876 0.1027 0.88637 0.0
C364 C 0.16119 0.06625 0.89233 0.0
C365 C 0.17022 0.06071 0.90495 0.0
C366 C 0.16703 0.09156 0.9117 0.0
C367 C 0.15284 0.1276 0.90587 0.0
C368 C 0.14385 0.13309 0.89331 0.0
C369 C 0.08535 0.12105 0.83502 0.0
C370 C 0.0529 0.04028 0.86073 0.0
C371 C 0.10821 -0.00697 0.8183 0.0
C372 C 0.11638 -0.00672 0.80429 0.0
C373 C 0.10988 0.02641 0.79547 0.0
C374 C 0.11791 0.02535 0.78218 0.0
C375 C 0.13296 -0.00871 0.77759 0.0
C376 C 0.1398 0.95841 0.78648 0.0
C377 C 0.13148 0.95941 0.7997 0.0
C378 C 0.14387 -0.00749 0.85787 0.0
C379 C 0.17045 0.09523 0.82475 0.0
O380 O 0.16802 0.09174 0.8649 0.0
O381 O 0.11105 0.11479 0.86955 0.0
O382 O 0.11096 0.13384 0.83921 0.0
O383 O 0.08194 0.08837 0.8408 0.0
O384 O 0.07808 0.0539 0.86546 0.0
O385 O 0.05831 0.03362 0.84866 0.0
O386 O 0.08196 0.01816 0.82247 0.0
O387 O 0.13633 -0.01234 0.82468 0.0
O388 O 0.11643 0.98487 0.85326 0.0
O389 O 0.15534 0.02174 0.8512 0.0
O390 O 0.14881 0.0731 0.82206 0.0
O391 O 0.17118 0.09904 0.83688 0.0
H392 H 0.1651 0.04241 0.88709 0.0
H393 H 0.18115 0.03265 0.9092 0.0
H394 H 0.14943 0.15174 0.91094 0.0
H395 H 0.1342 0.16135 0.88884 0.0
H396 H 0.0986 0.05297 0.79883 0.0
H397 H 0.11261 0.05112 0.77551 0.0
H398 H 0.15092 0.9317 0.78319 0.0
H399 H 0.13672 0.93362 0.80638 0.0
Nd400 Nd 0.68091 0.37251 0.08841 0.0
Nd401 Nd 0.72513 0.33974 0.06602 0.0
C402 C 0.65736 0.40419 0.10937 0.0
C403 C 0.66587 0.40649 0.12237 0.0
C404 C 0.65636 0.37936 0.13291 0.0
C405 C 0.65881 0.38481 0.14547 0.0
C406 C 0.67037 0.41772 0.14778 0.0
C407 C 0.68178 0.44384 0.13717 0.0
C408 C 0.6795 0.43828 0.12459 0.0
C409 C 0.64607 0.32448 0.07892 0.0
C410 C 0.73277 0.2904 0.09424 0.0
C411 C 0.75559 0.31619 0.04395 0.0
C412 C 0.76037 0.33159 0.03003 0.0
C413 C 0.73115 0.35105 1.02355 0.0
C414 C 0.73712 0.36674 1.0105 0.0
C415 C 0.77244 0.36363 1.00372 0.0
C416 C 0.80148 0.3439 1.01024 0.0
C417 C 0.79547 0.328 1.02322 0.0
C418 C 0.76302 0.37757 0.0789 0.0
C419 C 0.6541 0.4064 0.06047 0.0
O420 O 0.67712 0.42029 0.09937 0.0
O421 O 0.64818 0.37249 0.1075 0.0
O422 O 0.63015 0.35544 0.08307 0.0
O423 O 0.67944 0.31919 0.08017 0.0
O424 O 0.71759 0.32203 0.09873 0.0
O425 O 0.73471 0.28784 0.08176 0.0
O426 O 0.72304 0.31011 0.04939 0.0
O427 O 0.77293 0.33066 0.05129 0.0
O428 O 0.77617 0.34736 0.0739 0.0
O429 O 0.73093 0.3892 0.07604 0.0
O430 O 0.68104 0.38221 0.05576 0.0
O431 O 0.65043 0.41134 0.07271 0.0
H432 H 0.64581 0.35447 0.13154 0.0
H433 H 0.6506 0.36374 0.15342 0.0
H434 H 0.69049 0.46967 0.1386 0.0
H435 H 0.68678 0.4598 0.11665 0.0
H436 H 0.70381 0.35455 0.02859 0.0
H437 H 0.71421 0.38201 1.00578 0.0
H438 H 0.82891 0.34053 1.00528 0.0
H439 H 0.81843 0.31315 0.028 0.0
Nd440 Nd 0.31775 -0.00127 0.34102 0.0
Nd441 Nd 0.38863 0.03001 0.34119 0.0
C442 C 0.26762 0.96106 0.33643 0.0
C443 C 0.26753 0.93263 0.32808 0.0
C444 C 0.30034 0.91218 0.32332 0.0
C445 C 0.30017 0.8833 0.31614 0.0
C446 C 0.26714 0.87437 0.3135 0.0
C447 C 0.23438 0.89594 0.31796 0.0
C448 C 0.2346 0.92469 0.32523 0.0
C449 C 0.30682 0.06764 0.34923 0.0
C450 C 0.36173 0.03293 0.31329 0.0
C451 C 0.44272 0.06175 0.34663 0.0
C452 C 0.46527 0.06078 0.35718 0.0
C453 C 0.45136 0.05433 0.37033 0.0
C454 C 0.47383 0.05281 0.38002 0.0
C455 C 0.51083 0.0576 0.37681 0.0
C456 C 0.52436 0.06435 0.3636 0.0
C457 C 0.50194 0.06585 0.35397 0.0
C458 C 0.39634 0.95856 0.33492 0.0
C459 C 0.34698 -0.01241 0.36858 0.0
O460 O 0.28748 0.95005 0.34591 0.0
O461 O 0.27131 -0.00478 0.33063 0.0
O462 O 0.28565 0.04209 0.35304 0.0
O463 O 0.33071 0.0585 0.34005 0.0
O464 O 0.34086 0.00812 0.31953 0.0
O465 O 0.38037 0.05052 0.3196 0.0
O466 O 0.40845 0.07667 0.3482 0.0
O467 O 0.44768 0.03177 0.34093 0.0
O468 O 0.41723 0.98316 0.3293 0.0
O469 O 0.37422 0.97129 0.34377 0.0
O470 O 0.37079 0.01044 0.36303 0.0
O471 O 0.32623 0.97488 0.36176 0.0
H472 H 0.32609 0.91808 0.32537 0.0
H473 H 0.32596 0.86747 0.31294 0.0
H474 H 0.20847 0.89072 0.31583 0.0
H475 H 0.20904 0.94044 0.32876 0.0
H476 H 0.4232 0.05025 0.3731 0.0
H477 H 0.4623 0.04723 0.39003 0.0
H478 H 0.55233 0.06894 0.36065 0.0
H479 H 0.51337 0.07098 0.34392 0.0
Nd480 Nd 0.18578 0.38547 0.45553 0.0
Nd481 Nd 0.14361 0.44155 0.43394 0.0
C482 C 0.20256 0.33646 0.47583 0.0
C483 C 0.21627 0.33969 0.48797 0.0
C484 C 0.19191 0.35048 0.49859 0.0
C485 C 0.20482 0.35694 0.50962 0.0
C486 C 0.24237 0.35253 0.51035 0.0
C487 C 0.26674 0.34039 0.49995 0.0
C488 C 0.25382 0.33399 0.48888 0.0
C489 C 0.22726 0.44221 0.44412 0.0
C490 C 0.12058 0.45393 0.46459 0.0
C491 C 0.12651 0.47994 0.41139 0.0
C492 C 0.13125 0.47272 0.39766 0.0
C493 C 0.13864 0.50157 0.38742 0.0
C494 C 0.14002 0.49599 0.37448 0.0
C495 C 0.13369 0.46145 0.37139 0.0
C496 C 0.12695 0.4324 0.38169 0.0
C497 C 0.12595 0.43786 0.3946 0.0
C498 C 0.10621 0.38833 0.44871 0.0
C499 C 0.19622 0.36137 0.42698 0.0
O500 O 0.16929 0.35297 0.47445 0.0
O501 O 0.22505 0.34106 0.46513 0.0
O502 O 0.23625 0.41626 0.45355 0.0
O503 O 0.19596 0.43859 0.44193 0.0
O504 O 0.14266 0.42222 0.46735 0.0
O505 O 0.11982 0.4715 0.45236 0.0
O506 O 0.15519 0.48428 0.41645 0.0
O507 O 0.10476 0.46012 0.41954 0.0
O508 O 0.09076 0.4215 0.44407 0.0
O509 O 0.13966 0.38315 0.44451 0.0
O510 O 0.1793 0.39533 0.4228 0.0
O511 O 0.19862 0.34926 0.43935 0.0
H512 H 0.16278 0.35466 0.49831 0.0
H513 H 0.18534 0.36548 0.51759 0.0
H514 H 0.29584 0.33684 0.50022 0.0
H515 H 0.2733 0.32542 0.48092 0.0
H516 H 0.14265 0.52878 0.38943 0.0
H517 H 0.14505 0.51919 0.36689 0.0
H518 H 0.12245 0.40528 0.37979 0.0
H519 H 0.12039 0.41486 0.40222 0.0
Nd520 Nd 0.86934 0.93749 0.21198 0.0
Nd521 Nd 0.85632 0.88809 0.19486 0.0
C522 C 0.87517 0.97887 0.2297 0.0
C523 C 0.86713 0.97976 0.24364 0.0
C524 C 0.86942 0.9466 0.25263 0.0
C525 C 0.8621 0.94864 0.26587 0.0
C526 C 0.85205 0.98382 0.27026 0.0
C527 C 0.84922 0.01681 0.26117 0.0
C528 C 0.85676 0.01476 0.24798 0.0
C529 C 0.83978 0.9758 0.19028 0.0
C530 C 0.81324 0.87417 0.22366 0.0
C531 C 0.83972 0.8586 0.17564 0.0
C532 C 0.83687 0.86672 0.16176 0.0
C533 C 0.83107 0.90389 0.15536 0.0
C534 C 0.82478 0.91075 0.1424 0.0
C535 C 0.82437 0.8805 0.13568 0.0
C536 C 0.83125 0.84337 0.1421 0.0
C537 C 0.83744 0.83659 0.15502 0.0
C538 C 0.8968 0.84979 0.21387 0.0
C539 C 0.93162 0.92729 0.18794 0.0
O540 O 0.9012 0.95311 0.2258 0.0
O541 O 0.84705 0.98387 0.22333 0.0
O542 O 0.86713 0.98448 0.19466 0.0
O543 O 0.82849 0.94696 0.1972 0.0
O544 O 0.83334 0.89792 0.22635 0.0
O545 O 0.81364 0.86896 0.21159 0.0
O546 O 0.81594 0.87876 0.18299 0.0
O547 O 0.87234 0.85262 0.17918 0.0
O548 O 0.87242 0.83583 0.20939 0.0
O549 O 0.90058 0.88199 0.2078 0.0
O550 O 0.90634 0.91419 0.18309 0.0
O551 O 0.92567 0.93464 0.19997 0.0
H552 H 0.87701 0.91926 0.24943 0.0
H553 H 0.86422 0.92277 0.27267 0.0
H554 H 0.84204 0.04432 0.26426 0.0
H555 H 0.85478 0.0406 0.24115 0.0
H556 H 0.83061 0.92752 0.16045 0.0
H557 H 0.81994 0.93964 0.13768 0.0
H558 H 0.83058 0.81947 0.13728 0.0
H559 H 0.84166 0.80775 0.15986 0.0
Nd560 Nd 0.28568 0.63033 0.98006 0.0
Nd561 Nd 0.32531 0.59639 0.95676 0.0
C562 C 0.26289 0.65469 1.0026 0.0
C563 C 0.25427 0.63826 1.01637 0.0
C564 C 0.27792 0.63934 0.0254 0.0
C565 C 0.26962 0.62499 0.03847 0.0
C566 C 0.2373 0.60935 0.04287 0.0
C567 C 0.21374 0.60812 0.0338 0.0
C568 C 0.22207 0.62242 1.02073 0.0
C569 C 0.24406 0.59131 0.969 0.0
C570 C 0.35345 0.55932 0.98451 0.0
C571 C 0.34662 0.56269 0.93616 0.0
C572 C 0.3363 0.55443 0.92425 0.0
C573 C 0.31022 0.57874 0.91742 0.0
C574 C 0.30391 0.57162 0.9054 0.0
C575 C 0.32399 0.54044 0.90008 0.0
C576 C 0.34883 0.51542 0.90724 0.0
C577 C 0.35487 0.52236 0.91924 0.0
C578 C 0.36577 0.6377 0.96665 0.0
C579 C 0.27616 0.68039 0.9521 0.0
O580 O 0.29704 0.65038 0.99763 0.0
O581 O 0.24105 0.65115 0.99447 0.0
O582 O 0.23142 0.62077 0.97449 0.0
O583 O 0.27727 0.581 0.97051 0.0
O584 O 0.32777 0.58384 0.98969 0.0
O585 O 0.35608 0.55596 0.97214 0.0
O586 O 0.33171 0.54567 0.94708 0.0
O587 O 0.3507 0.59759 0.93655 0.0
O588 O 0.37915 0.60792 0.96137 0.0
O589 O 0.33236 0.6472 0.96555 0.0
O590 O 0.2873 0.648 0.94752 0.0
O591 O 0.27825 0.6827 0.96437 0.0
H592 H 0.30285 0.6515 1.02237 0.0
H593 H 0.28867 0.62605 0.04511 0.0
H594 H 0.18835 0.59687 0.03683 0.0
H595 H 0.20301 0.62134 1.01409 0.0
H596 H 0.29559 0.60365 0.9212 0.0
H597 H 0.28467 0.59132 0.90002 0.0
H598 H 0.36427 0.49095 0.9034 0.0
H599 H 0.37496 0.50327 0.92444 0.0
Nd600 Nd 0.61553 0.94144 0.70582 0.0
Nd601 Nd 0.68352 0.97734 0.70624 0.0
C602 C 0.56649 0.90378 0.69994 0.0
C603 C 0.54118 0.90622 0.69004 0.0
C604 C 0.55369 0.89721 0.67755 0.0
C605 C 0.52912 0.89751 0.66868 0.0
C606 C 0.49129 0.90672 0.67204 0.0
C607 C 0.47901 0.9163 0.68448 0.0
C608 C 0.50352 0.91588 0.69334 0.0
C609 C 0.60153 0.01324 0.71168 0.0
C610 C 0.65642 0.98471 0.67831 0.0
C611 C 0.73209 0.01702 0.71084 0.0
C612 C 0.73436 0.04316 0.71978 0.0
C613 C 0.70902 0.046 0.73086 0.0
C614 C 0.71078 0.07219 0.73899 0.0
C615 C 0.73755 0.09627 0.73602 0.0
C616 C 0.76286 0.09322 0.72491 0.0
C617 C 0.7613 0.0668 0.71689 0.0
C618 C 0.69882 0.90597 0.69981 0.0
C619 C 0.63951 0.94352 0.73379 0.0
O620 O 0.6015 0.89609 0.69644 0.0
O621 O 0.55886 0.92845 0.70798 0.0
O622 O 0.58091 -0.01236 0.71644 0.0
O623 O 0.62626 0.00168 0.70325 0.0
O624 O 0.63074 0.96439 0.68409 0.0
O625 O 0.67925 -0.00449 0.68481 0.0
O626 O 0.70929 0.02935 0.70234 0.0
O627 O 0.73104 0.98166 0.71583 0.0
O628 O 0.71821 0.93273 0.69532 0.0
O629 O 0.67357 0.91599 0.70843 0.0
O630 O 0.65813 0.97003 0.7274 0.0
O631 O 0.62383 0.9229 0.72753 0.0
H632 H 0.58246 0.88935 0.67466 0.0
H633 H 0.53982 0.88955 0.65929 0.0
H634 H 0.45031 0.92426 0.68742 0.0
H635 H 0.49286 0.92281 0.70287 0.0
H636 H 0.68765 0.02838 0.73314 0.0
H637 H 0.6907 0.07424 0.7474 0.0
H638 H 0.78393 0.11122 0.72245 0.0
H639 H 0.78093 0.0651 0.70833 0.0
H640 H 0.43789 0.07772 0.07822 0.0
H641 H 0.4835 0.12061 0.07321 0.0
H642 H 0.42915 0.18271 0.10364 0.0
H643 H 0.38203 0.1416 0.10803 0.0
H644 H 0.45671 0.22864 0.08688 0.0
H645 H 0.50296 0.10717 0.10689 0.0
H646 H 0.51804 0.0379 0.11023 0.0
H647 H 0.59059 0.04309 0.07481 0.0
H648 H 0.57546 0.11242 0.07113 0.0
H649 H 0.60561 0.29899 0.10061 0.0
H650 H 0.56507 0.2513 0.10328 0.0
H651 H 0.6009 0.23107 0.06403 0.0
H652 H 0.64235 0.27865 0.06143 0.0
H653 H 0.58445 0.16468 0.0843 0.0
H654 H 0.53873 0.29634 0.06947 0.0
H655 H 0.52657 0.36298 0.07267 0.0
H656 H 0.45204 0.33556 0.10652 0.0
H657 H 0.4654 0.26834 0.104 0.0
C658 C 0.43524 0.10133 0.08352 0.0
C659 C 0.4069 0.10663 0.09349 0.0
C660 C 0.46138 0.12553 0.08073 0.0
C661 C 0.46046 0.15408 0.08826 0.0
C662 C 0.43065 0.16077 0.09771 0.0
C663 C 0.40374 0.13736 0.10022 0.0
C664 C 0.49164 0.17522 0.08689 0.0
C665 C 0.48456 0.21453 0.08642 0.0
C666 C 0.52812 0.15677 0.0864 0.0
C667 C 0.53752 0.11502 0.08861 0.0
C668 C 0.52184 0.09355 0.09974 0.0
C669 C 0.53043 0.05426 0.1017 0.0
C670 C 0.55508 0.03609 0.09269 0.0
C671 C 0.57134 0.0572 0.08174 0.0
C672 C 0.56275 0.0965 0.07971 0.0
C673 C 0.60519 0.28382 0.09265 0.0
C674 C 0.62594 0.29273 0.08071 0.0
C675 C 0.58243 0.2565 0.09422 0.0
C676 C 0.57974 0.23847 0.08377 0.0
C677 C 0.60276 0.24502 0.07215 0.0
C678 C 0.62598 0.27223 0.07063 0.0
C679 C 0.54917 0.21755 0.08438 0.0
C680 C 0.55648 0.17848 0.08466 0.0
C681 C 0.51281 0.23595 0.08554 0.0
C682 C 0.50351 0.27693 0.08661 0.0
C683 C 0.52027 0.30426 0.07775 0.0
C684 C 0.51324 0.34223 0.07946 0.0
C685 C 0.48858 0.35351 0.0898 0.0
C686 C 0.47113 0.3268 0.0985 0.0
C687 C 0.4786 0.2887 0.09697 0.0
H688 H 0.48293 0.38296 0.09104 0.0
H689 H 0.56172 0.00567 0.09423 0.0
H690 H 0.56376 0.63117 0.32297 0.0
H691 H 0.51788 0.68274 0.31504 0.0
H692 H 0.47629 0.69815 0.35438 0.0
H693 H 0.52115 0.64638 0.36228 0.0
H694 H 0.42244 0.71252 0.33957 0.0
H695 H 0.54642 0.74537 0.33663 0.0
H696 H 0.61164 0.73706 0.32811 0.0
H697 H 0.58418 0.76201 0.28929 0.0
H698 H 0.51878 0.77008 0.2976 0.0
H699 H 0.38198 0.8971 0.35205 0.0
H700 H 0.39728 0.83148 0.34878 0.0
H701 H 0.43207 0.86647 0.30836 0.0
H702 H 0.41971 0.93247 0.31202 0.0
H703 H 0.4817 0.8213 0.31654 0.0
H704 H 0.35519 0.80395 0.32096 0.0
H705 H 0.29058 0.80745 0.33036 0.0
H706 H 0.32215 0.75242 0.36695 0.0
H707 H 0.38673 0.74812 0.35783 0.0
C708 C 0.5443 0.64518 0.32988 0.0
C709 C 0.54641 0.63563 0.34321 0.0
C710 C 0.51815 0.67451 0.32536 0.0
C711 C 0.49421 0.69471 0.33412 0.0
C712 C 0.49459 0.68305 0.34744 0.0
C713 C 0.52048 0.65373 0.35195 0.0
C714 C 0.47216 0.73095 0.32976 0.0
C715 C 0.43508 0.73643 0.33441 0.0
C716 C 0.48855 0.76169 0.32268 0.0
C717 C 0.52781 0.75796 0.31772 0.0
C718 C 0.55434 0.74902 0.32628 0.0
C719 C 0.5913 0.74431 0.32149 0.0
C720 C 0.60202 0.7489 0.30817 0.0
C721 C 0.57582 0.75839 0.2996 0.0
C722 C 0.53882 0.76305 0.30434 0.0
C723 C 0.39241 0.89069 0.34243 0.0
C724 C 0.4005 0.91951 0.33234 0.0
C725 C 0.40051 0.85304 0.34048 0.0
C726 C 0.41545 0.84355 0.32825 0.0
C727 C 0.42077 0.87282 0.31791 0.0
C728 C 0.41391 0.91049 0.31999 0.0
C729 C 0.4317 0.8039 0.32693 0.0
C730 C 0.46803 0.79759 0.3212 0.0
C731 C 0.41456 0.77247 0.33313 0.0
C732 C 0.37577 0.77617 0.33873 0.0
C733 C 0.34832 0.79307 0.33105 0.0
C734 C 0.31174 0.79505 0.3363 0.0
C735 C 0.30233 0.78059 0.34923 0.0
C736 C 0.32946 0.76376 0.35694 0.0
C737 C 0.36602 0.76135 0.35172 0.0
H738 H 0.27399 0.78223 0.35326 0.0
H739 H 0.63061 0.74518 0.30447 0.0
H740 H 0.14303 0.75203 0.57326 0.0
H741 H 0.09818 0.71763 0.56746 0.0
H742 H 0.02699 0.82243 0.55933 0.0
H743 H 0.07123 0.85656 0.56532 0.0
H744 H -0.00143 0.77568 0.5792 0.0
H745 H 0.05108 0.76767 0.53618 0.0
H746 H 0.09857 0.75604 0.51799 0.0
H747 H 0.11844 0.63898 0.534 0.0
H748 H 0.07173 0.65007 0.55246 0.0
H749 H 0.8649 0.65618 0.58783 0.0
H750 H 0.90027 0.70425 0.57534 0.0
H751 H -0.00176 0.62345 0.57676 0.0
H752 H 0.96305 0.5754 0.58862 0.0
H753 H 0.00349 0.66922 0.55486 0.0
H754 H 0.96724 0.68289 0.60043 0.0
H755 H 0.92195 0.69264 0.61942 0.0
H756 H 0.8748 0.79756 0.59911 0.0
H757 H 0.9196 0.78814 0.57994 0.0
C758 C 0.11834 0.7677 0.56981 0.0
C759 C 0.10997 0.80665 0.57005 0.0
C760 C 0.09285 0.74815 0.5664 0.0
C761 C 0.05912 0.76752 0.56307 0.0
C762 C 0.05274 0.80696 0.56193 0.0
C763 C 0.07792 0.82636 0.56544 0.0
C764 C 0.02811 0.7465 0.56384 0.0
C765 C -0.00086 0.75313 0.57358 0.0
C766 C 0.02926 0.71663 0.55671 0.0
C767 C 0.05807 0.70985 0.54579 0.0
C768 C 0.06595 0.73957 0.53593 0.0
C769 C 0.09268 0.73304 0.52555 0.0
C770 C 0.11159 0.69681 0.52486 0.0
C771 C 0.10383 0.66704 0.53456 0.0
C772 C 0.07721 0.67345 0.54499 0.0
C773 C 0.89389 0.64872 0.58527 0.0
C774 C 0.91148 0.6125 0.58944 0.0
C775 C 0.91403 0.67606 0.57812 0.0
C776 C 0.95202 0.66762 0.57534 0.0
C777 C 0.96901 0.63068 0.57879 0.0
C778 C 0.94891 0.60334 0.58572 0.0
C779 C 0.97506 0.69765 0.57052 0.0
C780 C 0.00247 0.69265 0.56011 0.0
C781 C 0.97305 0.72875 0.57717 0.0
C782 C 0.94639 0.73459 0.58872 0.0
C783 C 0.94708 0.70793 0.6 0.0
C784 C 0.92152 0.71339 0.61079 0.0
C785 C 0.89543 0.74563 0.61045 0.0
C786 C 0.89495 0.77255 0.59934 0.0
C787 C 0.9204 0.76716 0.58851 0.0
H788 H 0.87565 0.74981 0.61881 0.0
H789 H 0.13218 0.69178 0.5168 0.0
H790 H 0.01341 0.11296 0.83908 0.0
H791 H 0.96234 0.16283 0.8348 0.0
H792 H 0.03756 0.23756 0.81499 0.0
H793 H 0.08869 0.18817 0.81953 0.0
H794 H 0.95996 0.22909 0.8456 0.0
H795 H 0.9933 0.30035 0.79222 0.0
H796 H 0.01265 0.28114 0.7707 0.0
H797 H 0.97111 0.1762 0.78377 0.0
H798 H 0.95123 0.19481 0.80533 0.0
H799 H 0.9473 0.43333 0.81714 0.0
H800 H 0.9616 0.36744 0.81401 0.0
H801 H 0.86528 0.34236 0.83966 0.0
H802 H 0.85152 0.4086 0.84319 0.0
H803 H 0.93298 0.3157 0.8056 0.0
H804 H 0.88624 0.25594 0.85747 0.0
H805 H 0.87051 0.27538 0.87912 0.0
H806 H 0.94565 0.35596 0.8691 0.0
H807 H 0.96206 0.33668 0.84745 0.0
C808 C 0.01896 0.13965 0.83346 0.0
C809 C 0.05492 0.14705 0.82974 0.0
C810 C 0.98977 0.16805 0.83104 0.0
C811 C 0.99619 0.20379 0.82458 0.0
C812 C 0.03201 0.21003 0.81987 0.0
C813 C 0.06119 0.18193 0.82252 0.0
C814 C 0.967 0.23649 0.8248 0.0
C815 C 0.95305 0.24751 0.83685 0.0
C816 C 0.95847 0.26059 0.81338 0.0
C817 C 0.9707 0.24906 0.80043 0.0
C818 C 0.98805 0.27327 0.7905 0.0
C819 C -0.00083 0.26246 0.77828 0.0
C820 C 0.99298 0.22754 0.77586 0.0
C821 C 0.97586 0.20326 0.78566 0.0
C822 C 0.96475 0.21389 0.79789 0.0
C823 C 0.92896 0.41388 0.82203 0.0
C824 C 0.89875 0.42581 0.83063 0.0
C825 C 0.93697 0.37624 0.82014 0.0
C826 C 0.91481 0.34978 0.82673 0.0
C827 C 0.88309 0.36218 0.83463 0.0
C828 C 0.87526 0.39993 0.83665 0.0
C829 C 0.92787 0.30909 0.82638 0.0
C830 C 0.93874 0.29661 0.81433 0.0
C831 C 0.93418 0.28372 0.8378 0.0
C832 C 0.92493 0.29525 0.85082 0.0
C833 C 0.8994 0.27777 0.85991 0.0
C834 C 0.89038 0.28874 0.87218 0.0
C835 C 0.90695 0.31701 0.87546 0.0
C836 C 0.93273 0.33419 0.86652 0.0
C837 C 0.94189 0.32326 0.85426 0.0
H838 H 0.89987 0.32551 0.88495 0.0
H839 H 0.00161 0.21924 0.76639 0.0
H840 H 0.62504 0.82578 0.96147 0.0
H841 H 0.58871 0.77612 0.97182 0.0
H842 H 0.49056 0.85567 0.96854 0.0
H843 H 0.52644 0.90558 0.95902 0.0
H844 H 0.48577 0.79863 0.99091 0.0
H845 H 0.52204 0.81503 0.94396 0.0
H846 H 0.56898 0.81903 0.92502 0.0
H847 H 0.62069 0.70782 0.9385 0.0
H848 H 0.57433 0.70349 0.95765 0.0
H849 H 0.34817 0.70937 0.9729 0.0
H850 H 0.39123 0.74906 0.97688 0.0
H851 H 0.47832 0.6564 0.97363 0.0
H852 H 0.4359 0.6167 0.97012 0.0
H853 H 0.49504 0.71339 0.95814 0.0
H854 H 0.44813 0.69249 1.0029 0.0
H855 H 0.40092 0.69038 1.02173 0.0
H856 H 0.36778 0.80963 1.0126 0.0
H857 H 0.41434 0.8123 0.99356 0.0
C858 C 0.59578 0.83281 0.96341 0.0
C859 C 0.57831 0.86905 0.95922 0.0
C860 C 0.57517 0.80462 0.96938 0.0
C861 C 0.53705 0.81247 0.97094 0.0
C862 C 0.51993 0.84938 0.96769 0.0
C863 C 0.54047 0.87765 0.96202 0.0
C864 C 0.51485 0.78174 0.97322 0.0
C865 C 0.48767 0.77979 0.98383 0.0
C866 C 0.51793 0.75705 0.96401 0.0
C867 C 0.54503 0.75912 0.95229 0.0
C868 C 0.54353 0.79152 0.94291 0.0
C869 C 0.57003 0.79386 0.93215 0.0
C870 C 0.59788 0.76375 0.93058 0.0
C871 C 0.59915 0.73116 0.93974 0.0
C872 C 0.57279 0.72875 0.95055 0.0
C873 C 0.37637 0.69736 0.97344 0.0
C874 C 0.38899 0.66035 0.97103 0.0
C875 C 0.40086 0.71986 0.97578 0.0
C876 C 0.43795 0.70531 0.97579 0.0
C877 C 0.44983 0.66777 0.97401 0.0
C878 C 0.42556 0.64534 0.97182 0.0
C879 C 0.46529 0.73013 0.97585 0.0
C880 C 0.49339 0.73131 0.96551 0.0
C881 C 0.46278 0.75403 0.98531 0.0
C882 C 0.43471 0.75255 0.99676 0.0
C883 C 0.43064 0.71821 1.00485 0.0
C884 C 0.40398 0.71692 1.01557 0.0
C885 C 0.38134 0.74984 1.01836 0.0
C886 C 0.38535 0.78414 1.01044 0.0
C887 C 0.41192 0.78557 0.99969 0.0
H888 H 0.36072 0.74879 0.02666 0.0
H889 H 0.61843 0.76564 0.92226 0.0
H890 H 0.54663 0.04209 0.72842 0.0
H891 H 0.53347 0.10636 0.7334 0.0
H892 H 0.63222 0.13313 0.70962 0.0
H893 H 0.64438 0.06907 0.70403 0.0
H894 H 0.56087 0.15535 0.74355 0.0
H895 H 0.61535 0.22102 0.69344 0.0
H896 H 0.63382 0.20521 0.67137 0.0
H897 H 0.55604 0.12742 0.67789 0.0
H898 H 0.53692 0.14312 0.69993 0.0
H899 H 0.47845 0.35842 0.71057 0.0
H900 H 0.53038 0.31171 0.71653 0.0
H901 H 0.45758 0.23089 0.73276 0.0
H902 H 0.4057 0.27712 0.72653 0.0
H903 H 0.53897 0.24747 0.70427 0.0
H904 H 0.50093 0.1672 0.75643 0.0
H905 H 0.47852 0.18258 0.77827 0.0
H906 H 0.51431 0.29111 0.76764 0.0
H907 H 0.53734 0.27636 0.74578 0.0
C908 C 0.56566 0.0616 0.72432 0.0
C909 C 0.59608 0.05095 0.71562 0.0
C910 C 0.55838 0.09822 0.7273 0.0
C911 C 0.58155 0.1248 0.72173 0.0
C912 C 0.61361 0.11329 0.71385 0.0
C913 C 0.62055 0.07673 0.71066 0.0
C914 C 0.56886 0.16519 0.72275 0.0
C915 C 0.55614 0.17569 0.735 0.0
C916 C 0.56417 0.1922 0.71159 0.0
C917 C 0.57514 0.18284 0.69835 0.0
C918 C 0.60221 0.20059 0.69013 0.0
C919 C 0.61277 0.19166 0.67764 0.0
C920 C 0.59623 0.1652 0.67325 0.0
C921 C 0.56893 0.14779 0.68132 0.0
C922 C 0.55823 0.15669 0.6938 0.0
C923 C 0.47345 0.33107 0.71578 0.0
C924 C 0.43824 0.32094 0.71789 0.0
C925 C 0.50311 0.30454 0.71923 0.0
C926 C 0.49778 0.26795 0.7251 0.0
C927 C 0.46222 0.25914 0.72838 0.0
C928 C 0.43265 0.28539 0.72471 0.0
C929 C 0.52846 0.23675 0.72504 0.0
C930 C 0.54479 0.22791 0.71292 0.0
C931 C 0.53559 0.21117 0.7363 0.0
C932 C 0.52101 0.22056 0.74941 0.0
C933 C 0.50429 0.19427 0.75874 0.0
C934 C 0.49143 0.20289 0.77115 0.0
C935 C 0.49516 0.23772 0.77436 0.0
C936 C 0.5115 0.26411 0.76515 0.0
C937 C 0.52438 0.25565 0.75273 0.0
H938 H 0.48517 0.24433 0.78397 0.0
H939 H 0.60448 0.15828 0.66359 0.0
H940 H 0.13167 0.3154 0.45828 0.0
H941 H 0.09497 0.26756 0.47007 0.0
H942 H -0.0012 0.35095 0.4697 0.0
H943 H 0.0353 0.39871 0.4584 0.0
H944 H 0.99315 0.30081 0.49119 0.0
H945 H 0.02573 0.29831 0.44499 0.0
H946 H 0.06973 0.29341 0.42537 0.0
H947 H 0.11756 0.18403 0.44227 0.0
H948 H 0.07409 0.18856 0.46207 0.0
H949 H 0.85166 0.20938 0.47584 0.0
H950 H 0.89572 0.24868 0.47937 0.0
H951 H 0.97604 0.14969 0.48466 0.0
H952 H 0.93285 0.1108 0.48091 0.0
H953 H 0.99599 0.20079 0.46423 0.0
H954 H 0.94989 0.19912 0.50853 0.0
H955 H 0.90438 0.20624 0.52759 0.0
H956 H 0.87917 0.32457 0.51402 0.0
H957 H 0.92392 0.31805 0.49471 0.0
C958 C 0.10284 0.32352 0.46098 0.0
C959 C 0.08606 0.36037 0.45719 0.0
C960 C 0.08195 0.29631 0.46773 0.0
C961 C 0.04404 0.3056 0.47053 0.0
C962 C 0.02793 0.34312 0.46762 0.0
C963 C 0.04878 0.37028 0.46102 0.0
C964 C 0.02026 0.27595 0.47459 0.0
C965 C 0.99368 0.27881 0.48536 0.0
C966 C 0.02137 0.24704 0.46703 0.0
C967 C 0.04699 0.24396 0.45505 0.0
C968 C 0.04575 0.2733 0.44453 0.0
C969 C 0.07058 0.2706 0.43339 0.0
C970 C 0.09651 0.23848 0.43259 0.0
C971 C 0.09753 0.20893 0.44292 0.0
C972 C 0.0728 0.21154 0.4541 0.0
C973 C 0.87835 0.19601 0.47816 0.0
C974 C 0.8891 0.15725 0.47792 0.0
C975 C 0.90342 0.21838 0.48024 0.0
C976 C 0.93918 0.202 0.4822 0.0
C977 C 0.94864 0.16283 0.48313 0.0
C978 C 0.9239 0.14069 0.48096 0.0
C979 C 0.96833 0.22579 0.48077 0.0
C980 C 0.99583 0.22203 0.47035 0.0
C981 C 0.96756 0.25401 0.48857 0.0
C982 C 0.9401 0.25799 0.50007 0.0
C983 C 0.93433 0.22659 0.50951 0.0
C984 C 0.9087 0.23053 0.52038 0.0
C985 C 0.88882 0.26582 0.522 0.0
C986 C 0.89453 0.29723 0.51274 0.0
C987 C 0.92004 0.29342 0.50183 0.0
H988 H 0.86906 0.26883 0.53044 0.0
H989 H 0.11576 0.23647 0.42397 0.0
H990 H 0.13159 0.57563 0.20207 0.0
H991 H 0.10922 0.64009 0.20662 0.0
H992 H 0.04351 0.59577 0.24098 0.0
H993 H 0.06542 0.53165 0.23647 0.0
H994 H 0.00696 0.63861 0.21916 0.0
H995 H 0.09729 0.65003 0.24705 0.0
H996 H 0.15938 0.64993 0.25218 0.0
H997 H 0.1804 0.72919 0.21799 0.0
H998 H 0.118 0.73047 0.2129 0.0
H999 H 0.89094 0.79202 0.2334 0.0
H1000 H 0.93915 0.73998 0.23869 0.0
H1001 H 0.01682 0.79785 0.21168 0.0
H1002 H 0.96919 0.85098 0.20707 0.0
H1003 H 0.05169 0.75025 0.22931 0.0
H1004 H 0.96693 0.74433 0.20081 0.0
H1005 H 0.90622 0.74984 0.19382 0.0
H1006 H 0.87872 0.66097 0.22416 0.0
H1007 H 0.93911 0.6554 0.23148 0.0
C1008 C 0.11314 0.57973 0.21077 0.0
C1009 C 0.0992 0.54901 0.21872 0.0
C1010 C 0.10076 0.61643 0.21343 0.0
C1011 C 0.07468 0.62248 0.22409 0.0
C1012 C 0.06371 0.59152 0.23272 0.0
C1013 C 0.0759 0.555 0.23005 0.0
C1014 C 0.05225 0.65961 0.22449 0.0
C1015 C 0.01652 0.66284 0.22163 0.0
C1016 C 0.06557 0.69162 0.22686 0.0
C1017 C 0.10335 0.68991 0.22956 0.0
C1018 C 0.1154 0.66707 0.2406 0.0
C1019 C 0.15052 0.66699 0.24352 0.0
C1020 C 0.17403 0.68918 0.23535 0.0
C1021 C 0.16225 0.71187 0.22429 0.0
C1022 C 0.12693 0.71248 0.22143 0.0
C1023 C 0.91866 0.79421 0.22907 0.0
C1024 C 0.92651 0.82481 0.21971 0.0
C1025 C 0.94613 0.76459 0.23205 0.0
C1026 C 0.98116 0.76459 0.2252 0.0
C1027 C 0.9899 0.79719 0.21697 0.0
C1028 C 0.96264 0.82742 0.21431 0.0
C1029 C 0.00581 0.72862 0.22465 0.0
C1030 C 0.042 0.72584 0.22706 0.0
C1031 C 0.99346 0.69712 0.22131 0.0
C1032 C 0.9574 0.69971 0.21677 0.0
C1033 C 0.94787 0.72609 0.20603 0.0
C1034 C 0.91352 0.72923 0.20201 0.0
C1035 C 0.8886 0.70582 0.20856 0.0
C1036 C 0.89804 0.67912 0.21911 0.0
C1037 C 0.93233 0.67595 0.2232 0.0
H1038 H 0.86199 0.70832 0.20545 0.0
H1039 H 0.20124 0.68901 0.23762 0.0
H1040 H 0.44419 -0.01395 0.08174 0.0
H1041 H 0.48568 0.98053 0.06156 0.0
H1042 H 0.39364 0.00219 0.04005 0.0
H1043 H 0.3526 0.008 0.06002 0.0
H1044 H 0.43946 0.95059 0.02998 0.0
H1045 H 0.45161 0.07009 0.03988 0.0
H1046 H 0.4662 0.12174 0.04976 0.0
H1047 H 0.57614 0.06661 0.051 0.0
H1048 H 0.5621 0.01433 0.04129 0.0
H1049 H 0.53929 -0.01154 0.96612 0.0
H1050 H 0.49773 -0.0055 0.98624 0.0
H1051 H 0.58933 0.96902 1.00801 0.0
H1052 H 0.6305 0.96294 0.98808 0.0
H1053 H 0.54351 0.02263 1.0178 0.0
H1054 H 0.5286 0.90237 1.00738 0.0
H1055 H 0.51298 0.85661 0.99506 0.0
H1056 H 0.40587 0.91901 0.99325 0.0
H1057 H 0.42086 0.96511 1.00561 0.0
C1058 C 0.43271 -0.01139 0.07277 0.0
C1059 C 0.3946 -0.0034 0.07275 0.0
C1060 C 0.45664 -0.01386 0.06108 0.0
C1061 C 0.44339 -0.00877 0.04894 0.0
C1062 C 0.40527 -0.00203 0.04905 0.0
C1063 C 0.38154 0.00104 0.06063 0.0
C1064 C 0.46854 -0.01064 0.03618 0.0
C1065 C 0.46193 0.96682 0.02735 0.0
C1066 C 0.49863 0.00978 0.03244 0.0
C1067 C 0.50567 0.03807 0.04 0.0
C1068 C 0.47865 0.06849 0.04256 0.0
C1069 C 0.48692 0.09805 0.04802 0.0
C1070 C 0.52213 0.09751 0.05094 0.0
C1071 C 0.5489 0.06698 0.04873 0.0
C1072 C 0.54078 0.03736 0.04327 0.0
C1073 C 0.55069 0.98509 0.97514 0.0
C1074 C 0.5887 0.97588 0.97524 0.0
C1075 C 0.5267 -0.01212 0.98678 0.0
C1076 C 0.5398 0.98178 0.99897 0.0
C1077 C 0.57785 0.97391 0.99896 0.0
C1078 C 0.60164 0.97064 0.98741 0.0
C1079 C 0.51458 0.9837 1.01171 0.0
C1080 C 0.52116 0.00624 1.02051 0.0
C1081 C 0.48425 0.96366 1.01536 0.0
C1082 C 0.47599 0.93738 1.00728 0.0
C1083 C 0.50189 0.90659 1.0042 0.0
C1084 C 0.49307 0.8805 0.99726 0.0
C1085 C 0.45846 0.88499 0.99334 0.0
C1086 C 0.43266 0.91563 0.99629 0.0
C1087 C 0.44127 0.94169 1.00328 0.0
H1088 H 0.45149 0.86469 0.98806 0.0
H1089 H 0.52874 0.12088 0.05486 0.0
H1090 H 0.73459 0.61658 0.32323 0.0
H1091 H 0.75896 0.66393 0.30624 0.0
H1092 H 0.65724 0.68449 0.29003 0.0
H1093 H 0.63453 0.63501 0.30623 0.0
H1094 H 0.69996 0.69214 0.27138 0.0
H1095 H 0.69352 0.7473 0.30949 0.0
H1096 H 0.70422 0.75241 0.33154 0.0
H1097 H 0.81945 0.74033 0.31976 0.0
H1098 H 0.80942 0.73467 0.29767 0.0
H1099 H 0.78352 0.88578 0.24859 0.0
H1100 H 0.75698 0.84061 0.26594 0.0
H1101 H 0.78167 0.75533 0.2408 0.0
H1102 H 0.80496 0.80107 0.22333 0.0
H1103 H 0.77422 0.78332 0.28045 0.0
H1104 H 0.73432 0.68459 0.24826 0.0
H1105 H 0.711 0.68941 0.22732 0.0
H1106 H 0.66667 0.80533 0.22925 0.0
H1107 H 0.68933 0.80107 0.25026 0.0
C1108 C 0.71762 0.63101 0.31596 0.0
C1109 C 0.6827 0.62145 0.31608 0.0
C1110 C 0.7314 0.65873 0.30626 0.0
C1111 C 0.71007 0.67915 0.2967 0.0
C1112 C 0.67498 0.66954 0.29699 0.0
C1113 C 0.66179 0.64101 0.30637 0.0
C1114 C 0.72406 0.70969 0.28627 0.0
C1115 C 0.7161 0.71199 0.27351 0.0
C1116 C 0.74452 0.73698 0.28869 0.0
C1117 C 0.75072 0.74015 0.30196 0.0
C1118 C 0.72114 0.74546 0.31163 0.0
C1119 C 0.72709 0.7485 0.32413 0.0
C1120 C 0.7625 0.74659 0.32706 0.0
C1121 C 0.79204 0.74173 0.31748 0.0
C1122 C 0.78624 0.73863 0.30497 0.0
C1123 C 0.78248 0.85761 0.2467 0.0
C1124 C 0.79553 0.84765 0.23437 0.0
C1125 C 0.76753 0.83143 0.25672 0.0
C1126 C 0.76601 0.79406 0.25485 0.0
C1127 C 0.78047 0.78398 0.24261 0.0
C1128 C 0.79417 0.81038 0.23252 0.0
C1129 C 0.75013 0.76556 0.26561 0.0
C1130 C 0.75788 0.76355 0.27839 0.0
C1131 C 0.72769 0.73985 0.26338 0.0
C1132 C 0.71387 0.74259 0.25077 0.0
C1133 C 0.71949 0.71106 0.24423 0.0
C1134 C 0.70641 0.71371 0.23235 0.0
C1135 C 0.68747 0.74769 0.22694 0.0
C1136 C 0.68146 0.77907 0.23343 0.0
C1137 C 0.69445 0.77657 0.24531 0.0
H1138 H 0.67739 0.74969 0.21774 0.0
H1139 H 0.76705 0.74896 0.33674 0.0
H1140 H 0.07833 0.93251 0.57074 0.0
H1141 H 0.02709 0.95426 0.55848 0.0
H1142 H 0.09955 0.94978 0.52291 0.0
H1143 H 0.15068 0.92471 0.53533 0.0
H1144 H 0.0009 0.00629 0.54438 0.0
H1145 H 0.05878 0.93713 0.49798 0.0
H1146 H 0.10074 0.88079 0.49242 0.0
H1147 H 0.08145 0.82565 0.53149 0.0
H1148 H 0.03863 0.88112 0.53718 0.0
H1149 H 0.88378 0.091 0.49997 0.0
H1150 H 0.93571 0.06532 0.51132 0.0
H1151 H 0.92479 0.95328 0.50524 0.0
H1152 H 0.87546 0.98051 0.49193 0.0
H1153 H 0.989 0.94915 0.50607 0.0
H1154 H 0.89605 -0.00372 0.53666 0.0
H1155 H 0.84658 0.04126 0.54592 0.0
H1156 H 0.9219 0.11884 0.5453 0.0
H1157 H 0.97176 0.0745 0.53591 0.0
C1158 C 0.0836 0.93658 0.56029 0.0
C1159 C 0.11893 0.92682 0.55408 0.0
C1160 C 0.05397 0.94907 0.55321 0.0
C1161 C 0.05861 0.95322 0.53961 0.0
C1162 C 0.0944 0.94571 0.53335 0.0
C1163 C 0.12396 0.9319 0.54048 0.0
C1164 C 0.02603 0.96497 0.53215 0.0
C1165 C -0.0015 -0.00643 0.53603 0.0
C1166 C 0.02121 0.94764 0.52153 0.0
C1167 C 0.04579 0.91352 0.51803 0.0
C1168 C 0.06322 0.91285 0.50535 0.0
C1169 C 0.08715 0.88104 0.50218 0.0
C1170 C 0.09377 0.84967 0.5116 0.0
C1171 C 0.07624 0.8499 0.52419 0.0
C1172 C 0.05211 0.88151 0.52739 0.0
C1173 C 0.89244 0.06085 0.50095 0.0
C1174 C 0.87506 0.03789 0.49507 0.0
C1175 C 0.92207 0.04588 0.50774 0.0
C1176 C 0.93386 0.00677 0.50989 0.0
C1177 C 0.91652 0.98351 0.50397 0.0
C1178 C 0.88794 -0.00101 0.49644 0.0
C1179 C 0.96424 -0.00901 0.51818 0.0
C1180 C 0.99131 0.96166 0.51448 0.0
C1181 C 0.96733 0.00563 0.52959 0.0
C1182 C 0.9376 0.03214 0.5355 0.0
C1183 C 0.90204 0.02297 0.53847 0.0
C1184 C 0.87394 0.04835 0.54374 0.0
C1185 C 0.88109 0.0829 0.54618 0.0
C1186 C 0.9164 0.09206 0.54341 0.0
C1187 C 0.94462 0.06678 0.53814 0.0
H1188 H 0.85927 0.10254 0.55023 0.0
H1189 H 0.11249 0.8252 0.50914 0.0
H1190 H 0.74538 0.31341 0.82051 0.0
H1191 H 0.74188 0.26344 0.80802 0.0
H1192 H 0.75248 0.34194 0.77273 0.0
H1193 H 0.75571 0.39224 0.7852 0.0
H1194 H 0.69747 0.29706 0.77392 0.0
H1195 H 0.8239 0.28151 0.78006 0.0
H1196 H 0.87494 0.27426 0.79298 0.0
H1197 H 0.84221 0.17157 0.81444 0.0
H1198 H 0.79072 0.17842 0.80175 0.0
H1199 H 0.7443 0.17044 0.72823 0.0
H1200 H 0.74612 0.2184 0.74174 0.0
H1201 H 0.73474 0.13571 0.77591 0.0
H1202 H 0.73339 0.08731 0.76237 0.0
H1203 H 0.78878 0.1814 0.77593 0.0
H1204 H 0.66345 0.19567 0.76936 0.0
H1205 H 0.6133 0.20211 0.7561 0.0
H1206 H 0.64392 0.30665 0.73546 0.0
H1207 H 0.69456 0.30061 0.74848 0.0
C1208 C 0.74671 0.3201 0.81009 0.0
C1209 C 0.75081 0.35674 0.80382 0.0
C1210 C 0.74492 0.29148 0.80297 0.0
C1211 C 0.74711 0.29897 0.78945 0.0
C1212 C 0.75075 0.33561 0.78316 0.0
C1213 C 0.75286 0.3642 0.79028 0.0
C1214 C 0.74595 0.26839 0.78189 0.0
C1215 C 0.71764 0.27196 0.77424 0.0
C1216 C 0.77182 0.23527 0.78257 0.0
C1217 C 0.8032 0.2307 0.79005 0.0
C1218 C 0.82744 0.25751 0.78759 0.0
C1219 C 0.85648 0.25345 0.79486 0.0
C1220 C 0.86169 0.22259 0.80456 0.0
C1221 C 0.83807 0.19553 0.80694 0.0
C1222 C 0.80899 0.19945 0.7997 0.0
C1223 C 0.74244 0.16242 0.73862 0.0
C1224 C 0.73863 0.12519 0.74427 0.0
C1225 C 0.74327 0.18987 0.74632 0.0
C1226 C 0.74033 0.18063 0.75982 0.0
C1227 C 0.73701 0.14338 0.76551 0.0
C1228 C 0.73593 0.1159 0.75779 0.0
C1229 C 0.74043 0.21018 0.76793 0.0
C1230 C 0.76851 0.20642 0.77567 0.0
C1231 C 0.71432 0.24308 0.76736 0.0
C1232 C 0.68304 0.24752 0.75983 0.0
C1233 C 0.6596 0.21997 0.76196 0.0
C1234 C 0.63107 0.22354 0.75449 0.0
C1235 C 0.62556 0.25468 0.74491 0.0
C1236 C 0.64829 0.28251 0.74287 0.0
C1237 C 0.67688 0.27906 0.75031 0.0
H1238 H 0.60372 0.25722 0.73904 0.0
H1239 H 0.884 0.21964 0.81024 0.0
H1240 H 0.31774 0.36642 0.74753 0.0
H1241 H 0.29182 0.32095 0.76472 0.0
H1242 H 0.25806 0.26621 0.73626 0.0
H1243 H 0.28344 0.31211 0.719 0.0
H1244 H 0.20665 0.26676 0.75644 0.0
H1245 H 0.33602 0.229 0.75194 0.0
H1246 H 0.39979 0.23952 0.75063 0.0
H1247 H 0.37927 0.26944 0.78888 0.0
H1248 H 0.31525 0.25926 0.79041 0.0
H1249 H 0.17331 0.09756 0.79837 0.0
H1250 H 0.19889 0.14274 0.78097 0.0
H1251 H 0.23509 0.1971 0.80903 0.0
H1252 H 0.21027 0.15142 0.82646 0.0
H1253 H 0.28528 0.19658 0.78892 0.0
H1254 H 0.15565 0.23404 0.79341 0.0
H1255 H 0.09183 0.22373 0.79457 0.0
H1256 H 0.11281 0.1944 0.75624 0.0
H1257 H 0.17684 0.20428 0.75487 0.0
C1258 C 0.30446 0.34503 0.74487 0.0
C1259 C 0.30289 0.34329 0.73174 0.0
C1260 C 0.28981 0.31863 0.75478 0.0
C1261 C 0.27336 0.28922 0.75195 0.0
C1262 C 0.27059 0.28826 0.73886 0.0
C1263 C 0.28519 0.31473 0.72893 0.0
C1264 C 0.25994 0.25918 0.76254 0.0
C1265 C 0.22411 0.25116 0.76341 0.0
C1266 C 0.28207 0.23881 0.77194 0.0
C1267 C 0.32078 0.24371 0.77124 0.0
C1268 C 0.34509 0.23791 0.76006 0.0
C1269 C 0.38126 0.24382 0.75927 0.0
C1270 C 0.39348 0.25539 0.76962 0.0
C1271 C 0.3697 0.26059 0.78085 0.0
C1272 C 0.33349 0.25466 0.7817 0.0
C1273 C 0.18707 0.11881 0.80089 0.0
C1274 C 0.18955 0.12048 0.81396 0.0
C1275 C 0.20149 0.14507 0.79086 0.0
C1276 C 0.21851 0.17432 0.79352 0.0
C1277 C 0.2221 0.17521 0.80655 0.0
C1278 C 0.20782 0.14885 0.81658 0.0
C1279 C 0.23193 0.20416 0.78285 0.0
C1280 C 0.26779 0.21216 0.78195 0.0
C1281 C 0.20981 0.22449 0.77343 0.0
C1282 C 0.17111 0.21956 0.77409 0.0
C1283 C 0.14667 0.22528 0.78525 0.0
C1284 C 0.11048 0.21951 0.78594 0.0
C1285 C 0.09836 0.20824 0.77551 0.0
C1286 C 0.12229 0.20306 0.76431 0.0
C1287 C 0.15851 0.20881 0.76356 0.0
H1288 H 0.07044 0.20348 0.77611 0.0
H1289 H 0.42136 0.26035 0.76893 0.0
H1290 H 0.31715 0.85018 0.29372 0.0
H1291 H 0.31569 0.79895 0.28174 0.0
H1292 H 0.21504 0.7749 0.30462 0.0
H1293 H 0.217 0.82512 0.3171 0.0
H1294 H 0.26061 0.71062 0.30054 0.0
H1295 H 0.21502 0.82646 0.27476 0.0
H1296 H 0.21902 0.89168 0.2641 0.0
H1297 H 0.31599 0.85305 0.24019 0.0
H1298 H 0.31293 0.78762 0.25087 0.0
H1299 H 0.20929 0.59752 0.26001 0.0
H1300 H 0.2115 0.64617 0.27305 0.0
H1301 H 0.30296 0.68274 0.24701 0.0
H1302 H 0.29822 0.63677 0.2332 0.0
H1303 H 0.26167 0.74111 0.25298 0.0
H1304 H 0.30913 0.6259 0.27886 0.0
H1305 H 0.30735 0.56077 0.29001 0.0
H1306 H 0.20938 0.59767 0.31376 0.0
H1307 H 0.21043 0.66298 0.30268 0.0
C1308 C 0.29482 0.83392 0.29635 0.0
C1309 C 0.26678 0.84254 0.30626 0.0
C1310 C 0.29394 0.80469 0.2894 0.0
C1311 C 0.26489 0.78357 0.29212 0.0
C1312 C 0.23754 0.79109 0.30228 0.0
C1313 C 0.23846 0.82024 0.30928 0.0
C1314 C 0.26247 0.75444 0.28411 0.0
C1315 C 0.26048 0.71728 0.29015 0.0
C1316 C 0.26298 0.76309 0.27054 0.0
C1317 C 0.26389 0.80216 0.26368 0.0
C1318 C 0.23725 0.83188 0.26725 0.0
C1319 C 0.23937 0.86889 0.26122 0.0
C1320 C 0.26779 0.87652 0.2515 0.0
C1321 C 0.29401 0.8471 0.24773 0.0
C1322 C 0.29207 0.81003 0.25376 0.0
C1323 C 0.22956 0.61623 0.25697 0.0
C1324 C 0.25335 0.61329 0.24551 0.0
C1325 C 0.23125 0.6437 0.26457 0.0
C1326 C 0.25792 0.66779 0.26121 0.0
C1327 C 0.28216 0.6645 0.24987 0.0
C1328 C 0.27976 0.63775 0.24206 0.0
C1329 C 0.26023 0.69685 0.26935 0.0
C1330 C 0.26201 0.73419 0.26334 0.0
C1331 C 0.25979 0.68829 0.28296 0.0
C1332 C 0.25975 0.64926 0.28989 0.0
C1333 C 0.28719 0.62009 0.28645 0.0
C1334 C 0.28629 0.58316 0.29275 0.0
C1335 C 0.25822 0.57508 0.30257 0.0
C1336 C 0.23109 0.60397 0.30615 0.0
C1337 C 0.23187 0.64096 0.29989 0.0
H1338 H 0.25752 0.54645 0.30741 0.0
H1339 H 0.26947 0.90522 0.24688 0.0
H1340 H 0.07534 0.52324 0.46855 0.0
H1341 H 0.0335 0.53655 0.48821 0.0
H1342 H 0.06327 0.42249 0.50634 0.0
H1343 H 0.10385 0.40922 0.48731 0.0
H1344 H 0.99367 0.43818 0.51129 0.0
H1345 H 0.09423 0.50113 0.51402 0.0
H1346 H 0.13788 0.54679 0.50786 0.0
H1347 H 0.04993 0.63858 0.50849 0.0
H1348 H 0.00565 0.59343 0.5144 0.0
H1349 H 0.92206 0.45339 0.57858 0.0
H1350 H 0.96256 0.44287 0.55844 0.0
H1351 H 0.92618 0.55634 0.54124 0.0
H1352 H 0.88635 0.56679 0.56088 0.0
H1353 H 0.99777 0.54247 0.53555 0.0
H1354 H 0.89745 0.47871 0.53317 0.0
H1355 H 0.85442 0.43256 0.53984 0.0
H1356 H 0.94311 0.34155 0.53893 0.0
H1357 H 0.98678 0.38721 0.53249 0.0
C1358 C 0.073 0.50108 0.47673 0.0
C1359 C 0.09388 0.46522 0.4761 0.0
C1360 C 0.04904 0.50872 0.48807 0.0
C1361 C 0.04487 0.48059 0.49905 0.0
C1362 C 0.06536 0.44495 0.49823 0.0
C1363 C 0.08918 0.43752 0.48715 0.0
C1364 C 0.01944 0.4869 0.5114 0.0
C1365 C 0.99501 0.4609 0.5166 0.0
C1366 C 0.02009 0.5167 0.5185 0.0
C1367 C 0.04657 0.54386 0.51444 0.0
C1368 C 0.08414 0.53103 0.51264 0.0
C1369 C 0.10901 0.55683 0.50924 0.0
C1370 C 0.09668 0.59556 0.50773 0.0
C1371 C 0.05943 0.60857 0.5096 0.0
C1372 C 0.03443 0.58289 0.51296 0.0
C1373 C 0.92256 0.476 0.5705 0.0
C1374 C 0.90005 0.5108 0.57154 0.0
C1375 C 0.94579 0.46998 0.55889 0.0
C1376 C 0.94772 0.49875 0.54804 0.0
C1377 C 0.9257 0.53346 0.54925 0.0
C1378 C 0.90237 0.53924 0.56063 0.0
C1379 C 0.97231 0.49358 0.53544 0.0
C1380 C 0.99648 0.5198 0.5302 0.0
C1381 C 0.97156 0.4639 0.52833 0.0
C1382 C 0.94544 0.43642 0.53252 0.0
C1383 C 0.90784 0.44888 0.53456 0.0
C1384 C 0.88331 0.4228 0.53826 0.0
C1385 C 0.89603 0.38415 0.53985 0.0
C1386 C 0.93331 0.3715 0.53774 0.0
C1387 C 0.95796 0.39748 0.53407 0.0
H1388 H 0.87699 0.364 0.54267 0.0
H1389 H 0.11598 0.61549 0.50516 0.0
H1390 H 0.58285 0.43267 0.0686 0.0
H1391 H 0.53229 0.45398 0.05565 0.0
H1392 H 0.60572 0.439 1.02096 0.0
H1393 H 0.65631 0.41688 0.03391 0.0
H1394 H 0.563 0.50479 1.01741 0.0
H1395 H 0.54282 0.37953 0.03113 0.0
H1396 H 0.52834 0.31829 0.04296 0.0
H1397 H 0.43108 0.37364 0.06251 0.0
H1398 H 0.44511 0.43531 0.05089 0.0
H1399 H 0.42253 0.52768 0.97572 0.0
H1400 H 0.47381 0.50293 0.98809 0.0
H1401 H 0.40507 0.52327 1.02331 0.0
H1402 H 0.35376 0.54864 1.01097 0.0
H1403 H 0.44613 0.45323 0.02595 0.0
H1404 H 0.47459 0.5815 1.01171 0.0
H1405 H 0.49076 0.63794 0.9969 0.0
H1406 H 0.57423 0.56898 0.97555 0.0
H1407 H 0.5592 0.51224 0.99049 0.0
C1408 C 0.58845 0.43429 0.0582 0.0
C1409 C 0.62409 0.42353 0.05234 0.0
C1410 C 0.55922 0.44601 0.05078 0.0
C1411 C 0.5647 0.4479 0.03724 0.0
C1412 C 0.6004 0.43778 0.03136 0.0
C1413 C 0.62951 0.42532 0.03879 0.0
C1414 C 0.53381 0.4625 0.02921 0.0
C1415 C 0.53768 0.49298 1.01924 0.0
C1416 C 0.50022 0.44785 0.0315 0.0
C1417 C 0.4952 0.41212 0.04021 0.0
C1418 C 0.51882 0.37879 0.03819 0.0
C1419 C 0.51043 0.34394 0.04472 0.0
C1420 C 0.47846 0.34206 0.05328 0.0
C1421 C 0.45556 0.37512 0.05573 0.0
C1422 C 0.46379 0.41003 0.04921 0.0
C1423 C 0.41806 0.52649 0.98612 0.0
C1424 C 0.38353 0.53982 0.9923 0.0
C1425 C 0.44773 0.51277 0.9932 0.0
C1426 C 0.44382 0.51153 1.0067 0.0
C1427 C 0.40917 0.52399 1.01292 0.0
C1428 C 0.37963 0.53832 1.00583 0.0
C1429 C 0.4752 0.49578 1.0144 0.0
C1430 C 0.47142 0.46506 0.02427 0.0
C1431 C 0.50916 0.50954 1.01184 0.0
C1432 C 0.51546 0.54272 1.00208 0.0
C1433 C 0.496 0.57837 1.00374 0.0
C1434 C 0.50521 0.61042 0.9954 0.0
C1435 C 0.53341 0.60705 0.98526 0.0
C1436 C 0.55238 0.57157 0.9834 0.0
C1437 C 0.54366 0.53949 0.99183 0.0
H1438 H 0.54066 0.63195 0.97886 0.0
H1439 H 0.47164 0.31499 0.05814 0.0
H1440 H 0.27351 0.1816 0.11444 0.0
H1441 H 0.2528 0.2293 0.12862 0.0
H1442 H 0.27654 0.14669 0.16172 0.0
H1443 H 0.29743 0.09835 0.14754 0.0
H1444 H 0.20772 0.19562 0.16526 0.0
H1445 H 0.33517 0.20517 0.15108 0.0
H1446 H 0.38834 0.21049 0.13448 0.0
H1447 H 0.33405 0.31444 0.11593 0.0
H1448 H 0.2803 0.3093 0.13228 0.0
H1449 H 0.19702 0.33459 0.20751 0.0
H1450 H 0.21128 0.28013 0.19567 0.0
H1451 H 0.21766 0.35587 0.15956 0.0
H1452 H 0.20571 0.40964 0.17134 0.0
H1453 H 0.27312 0.30674 0.15854 0.0
H1454 H 0.14644 0.3 0.17101 0.0
H1455 H 0.08982 0.2965 0.18599 0.0
H1456 H 0.13686 0.19082 0.20585 0.0
H1457 H 0.19399 0.19394 0.19108 0.0
C1458 C 0.27432 0.17338 0.12474 0.0
C1459 C 0.28738 0.13613 0.12984 0.0
C1460 C 0.26243 0.20076 0.13283 0.0
C1461 C 0.26335 0.19161 0.14621 0.0
C1462 C 0.2756 0.15431 0.15141 0.0
C1463 C 0.28771 0.12681 0.14329 0.0
C1464 C 0.25276 0.2216 0.15458 0.0
C1465 C 0.22228 0.21969 0.16398 0.0
C1466 C 0.27114 0.25346 0.15261 0.0
C1467 C 0.30372 0.25686 0.1429 0.0
C1468 C 0.33453 0.22909 0.14343 0.0
C1469 C 0.36476 0.23205 0.13406 0.0
C1470 C 0.36459 0.26279 0.12416 0.0
C1471 C 0.33419 0.29067 0.12362 0.0
C1472 C 0.30386 0.28778 0.13294 0.0
C1473 C 0.20098 0.33936 0.19705 0.0
C1474 C 0.20058 0.3761 0.19032 0.0
C1475 C 0.20905 0.30831 0.19027 0.0
C1476 C 0.21573 0.31373 0.17666 0.0
C1477 C 0.21326 0.35073 0.17002 0.0
C1478 C 0.20619 0.38149 0.17676 0.0
C1479 C 0.22752 0.28136 0.16924 0.0
C1480 C 0.25843 0.28273 0.15997 0.0
C1481 C 0.209 0.24946 0.17118 0.0
C1482 C 0.17464 0.24741 0.18003 0.0
C1483 C 0.14482 0.27615 0.17863 0.0
C1484 C 0.11262 0.27422 0.18708 0.0
C1485 C 0.10979 0.24351 0.19689 0.0
C1486 C 0.13912 0.21462 0.19825 0.0
C1487 C 0.17141 0.21644 0.18985 0.0
H1488 H 0.08484 0.24206 0.20342 0.0
H1489 H 0.38801 0.26502 0.11692 0.0
H1490 H 0.49016 0.53034 0.3566 0.0
H1491 H 0.43322 0.52072 0.37008 0.0
H1492 H 0.48606 0.51104 0.40426 0.0
H1493 H 0.54391 0.52044 0.39068 0.0
H1494 H 0.44248 0.45694 0.40654 0.0
H1495 H 0.42852 0.5908 0.39396 0.0
H1496 H 0.42901 0.64974 0.37854 0.0
H1497 H 0.34461 0.62064 0.36034 0.0
H1498 H 0.34411 0.56112 0.37549 0.0
H1499 H 0.2864 0.46252 0.45129 0.0
H1500 H 0.33939 0.48365 0.4375 0.0
H1501 H 0.28576 0.48838 0.40379 0.0
H1502 H 0.23196 0.46743 0.41775 0.0
H1503 H 0.32892 0.5464 0.40103 0.0
H1504 H 0.34441 0.41232 0.41251 0.0
H1505 H 0.34429 0.35217 0.42729 0.0
H1506 H 0.426 0.381 0.44686 0.0
H1507 H 0.42621 0.44164 0.43231 0.0
C1508 C 0.48997 0.52619 0.36698 0.0
C1509 C 0.52198 0.52624 0.3725 0.0
C1510 C 0.45706 0.52092 0.37472 0.0
C1511 C 0.45486 0.51567 0.38825 0.0
C1512 C 0.48682 0.51521 0.39385 0.0
C1513 C 0.51995 0.52066 0.38607 0.0
C1514 C 0.41939 0.50984 0.39644 0.0
C1515 C 0.41786 0.4769 0.40547 0.0
C1516 C 0.3867 0.53516 0.3948 0.0
C1517 C 0.3865 0.57128 0.38581 0.0
C1518 C 0.41024 0.59681 0.38661 0.0
C1519 C 0.41051 0.63035 0.37792 0.0
C1520 C 0.3869 0.6389 0.36845 0.0
C1521 C 0.36291 0.61396 0.36768 0.0
C1522 C 0.36261 0.58032 0.37632 0.0
C1523 C 0.2854 0.469 0.44096 0.0
C1524 C 0.25482 0.46341 0.43565 0.0
C1525 C 0.31594 0.48084 0.43305 0.0
C1526 C 0.31715 0.48695 0.41953 0.0
C1527 C 0.2857 0.48379 0.41418 0.0
C1528 C 0.2548 0.47205 0.42217 0.0
C1529 C 0.35221 0.49366 0.4112 0.0
C1530 C 0.35362 0.5266 0.40212 0.0
C1531 C 0.38486 0.46828 0.4127 0.0
C1532 C 0.38507 0.43169 0.4214 0.0
C1533 C 0.36217 0.40596 0.42002 0.0
C1534 C 0.3621 0.37176 0.42835 0.0
C1535 C 0.38506 0.36281 0.43803 0.0
C1536 C 0.4082 0.388 0.43937 0.0
C1537 C 0.40832 0.42228 0.43108 0.0
H1538 H 0.38497 0.33631 0.44447 0.0
H1539 H 0.38716 0.66488 0.36173 0.0
H1540 H 0.24459 0.70814 0.58814 0.0
H1541 H 0.2627 0.65056 0.60287 0.0
H1542 H 0.23763 0.71316 0.63504 0.0
H1543 H 0.21903 0.77041 0.62049 0.0
H1544 H 0.31413 0.62972 0.61812 0.0
H1545 H 0.20808 0.65924 0.66232 0.0
H1546 H 0.14536 0.69138 0.66672 0.0
H1547 H 0.12236 0.67471 0.62966 0.0
H1548 H 0.18477 0.64204 0.62511 0.0
H1549 H 0.37256 0.53576 0.67607 0.0
H1550 H 0.34689 0.58061 0.65896 0.0
H1551 H 0.26135 0.51367 0.6601 0.0
H1552 H 0.28718 0.468 0.67769 0.0
H1553 H 0.23495 0.59008 0.65831 0.0
H1554 H 0.32943 0.51411 0.6352 0.0
H1555 H 0.39144 0.4803 0.63074 0.0
H1556 H 0.43493 0.58491 0.62452 0.0
H1557 H 0.37331 0.61935 0.62913 0.0
C1558 C 0.24289 0.70969 0.59835 0.0
C1559 C 0.23008 0.74412 0.60307 0.0
C1560 C 0.25332 0.67663 0.60679 0.0
C1561 C 0.25106 0.67704 0.62018 0.0
C1562 C 0.23892 0.71158 0.62484 0.0
C1563 C 0.22845 0.74453 0.61645 0.0
C1564 C 0.26193 0.64175 0.62926 0.0
C1565 C 0.29665 0.62102 0.62685 0.0
C1566 C 0.23904 0.62949 0.64059 0.0
C1567 C 0.2012 0.64842 0.64335 0.0
C1568 C 0.18957 0.66223 0.65515 0.0
C1569 C 0.15409 0.68059 0.65765 0.0
C1570 C 0.12992 0.68516 0.64846 0.0
C1571 C 0.14114 0.67126 0.63676 0.0
C1572 C 0.17658 0.65285 0.6342 0.0
C1573 C 0.34828 0.53023 0.67274 0.0
C1574 C 0.33194 0.49812 0.67834 0.0
C1575 C 0.33368 0.55603 0.66283 0.0
C1576 C 0.30236 0.55056 0.65803 0.0
C1577 C 0.28563 0.51856 0.66359 0.0
C1578 C 0.30042 0.4924 0.67362 0.0
C1579 C 0.28754 0.579 0.64737 0.0
C1580 C 0.25217 0.5985 0.64948 0.0
C1581 C 0.30966 0.58985 0.63568 0.0
C1582 C 0.3467 0.56932 0.63256 0.0
C1583 C 0.35221 0.52991 0.63292 0.0
C1584 C 0.38729 0.51063 0.63037 0.0
C1585 C 0.41707 0.53044 0.62736 0.0
C1586 C 0.41183 0.5696 0.62684 0.0
C1587 C 0.37682 0.58904 0.6294 0.0
H1588 H 0.4442 0.51543 0.62542 0.0
H1589 H 0.10248 0.69943 0.65042 0.0
H1590 H 0.08338 0.56865 0.87036 0.0
H1591 H 0.1246 0.56894 0.88617 0.0
H1592 H 0.03543 0.56262 0.91679 0.0
H1593 H 0.99401 0.56164 0.90106 0.0
H1594 H 0.07646 0.61504 0.91937 0.0
H1595 H 0.10081 0.48505 0.91176 0.0
H1596 H 0.11815 0.43388 0.89841 0.0
H1597 H 0.22077 0.47323 0.88474 0.0
H1598 H 0.20377 0.52479 0.89792 0.0
H1599 H 0.17326 0.58141 0.97282 0.0
H1600 H 0.13567 0.57237 0.95687 0.0
H1601 H 0.22978 0.56863 0.92807 0.0
H1602 H 0.26746 0.57659 0.94425 0.0
H1603 H 0.18795 0.52187 0.92388 0.0
H1604 H 0.1665 0.65054 0.93055 0.0
H1605 H 0.15195 0.7032 0.94328 0.0
H1606 H 0.04668 0.67054 0.95724 0.0
H1607 H 0.06083 0.61731 0.94472 0.0
C1608 C 0.07245 0.56675 0.88046 0.0
C1609 C 0.0351 0.56492 0.88434 0.0
C1610 C 0.0962 0.56702 0.88953 0.0
C1611 C 0.08339 0.56537 0.90276 0.0
C1612 C 0.04612 0.56392 0.90666 0.0
C1613 C 0.02235 0.56355 0.8976 0.0
C1614 C 0.10856 0.56601 0.91248 0.0
C1615 C 0.10052 0.59429 0.92046 0.0
C1616 C 0.14088 0.53993 0.91365 0.0
C1617 C 0.15094 0.50894 0.90573 0.0
C1618 C 0.12695 0.48293 0.90583 0.0
C1619 C 0.13673 0.45381 0.89832 0.0
C1620 C 0.17051 0.45029 0.89072 0.0
C1621 C 0.19461 0.4759 0.89062 0.0
C1622 C 0.18494 0.50505 0.89812 0.0
C1623 C 0.18609 0.57766 0.96317 0.0
C1624 C 0.22355 0.57889 0.95986 0.0
C1625 C 0.16448 0.57294 0.95398 0.0
C1626 C 0.17951 0.57067 0.94109 0.0
C1627 C 0.21733 0.57028 0.9379 0.0
C1628 C 0.23908 0.57438 0.9472 0.0
C1629 C 0.15547 0.57051 0.93093 0.0
C1630 C 0.16383 0.54256 0.92281 0.0
C1631 C 0.12373 0.59731 0.92946 0.0
C1632 C 0.11485 0.62974 0.93679 0.0
C1633 C 0.14031 0.65449 0.93638 0.0
C1634 C 0.13213 0.68445 0.94356 0.0
C1635 C 0.09843 0.69014 0.9511 0.0
C1636 C 0.07278 0.66604 0.95141 0.0
C1637 C 0.08086 0.636 0.94427 0.0
H1638 H 0.09212 0.71322 0.9567 0.0
H1639 H 0.17797 0.42764 0.88496 0.0
H1640 H 0.84559 0.60081 0.86139 0.0
H1641 H 0.82833 0.65399 0.87365 0.0
H1642 H 0.72821 0.68398 0.85652 0.0
H1643 H 0.74568 0.63087 0.84421 0.0
H1644 H 0.75886 0.74782 0.85979 0.0
H1645 H 0.72761 0.63013 0.88439 0.0
H1646 H 0.74139 0.56327 0.89379 0.0
H1647 H 0.81796 0.59167 0.91571 0.0
H1648 H 0.80508 0.65866 0.90627 0.0
H1649 H 0.65384 0.85612 0.90545 0.0
H1650 H 0.67598 0.80923 0.89095 0.0
H1651 H 0.76292 0.76267 0.91406 0.0
H1652 H 0.73942 0.808 0.92899 0.0
H1653 H 0.74085 0.70787 0.90723 0.0
H1654 H 0.7768 0.82312 0.88247 0.0
H1655 H 0.76624 0.89032 0.87305 0.0
H1656 H 0.68457 0.86772 0.85209 0.0
H1657 H 0.69473 0.8002 0.86143 0.0
C1658 C 0.82081 0.61984 0.85978 0.0
C1659 C 0.7975 0.61254 0.85155 0.0
C1660 C 0.81064 0.64987 0.86694 0.0
C1661 C 0.77684 0.67291 0.86606 0.0
C1662 C 0.75446 0.66679 0.8573 0.0
C1663 C 0.7645 0.63656 0.85025 0.0
C1664 C 0.76319 0.7008 0.87513 0.0
C1665 C 0.75472 0.73909 0.87016 0.0
C1666 C 0.75832 0.68957 0.88869 0.0
C1667 C 0.76562 0.64938 0.89453 0.0
C1668 C 0.74757 0.62209 0.89115 0.0
C1669 C 0.7552 0.58418 0.89648 0.0
C1670 C 0.78056 0.57324 0.90532 0.0
C1671 C 0.79833 0.6002 0.90885 0.0
C1672 C 0.79087 0.63814 0.90352 0.0
C1673 C 0.67764 0.83582 0.90744 0.0
C1674 C 0.69496 0.83585 0.91834 0.0
C1675 C 0.69053 0.80915 0.89907 0.0
C1676 C 0.72183 0.78277 0.90115 0.0
C1677 C 0.73883 0.78262 0.91215 0.0
C1678 C 0.7254 0.80864 0.92069 0.0
C1679 C 0.73678 0.75524 0.89195 0.0
C1680 C 0.74531 0.71685 0.89689 0.0
C1681 C 0.74223 0.76646 0.87838 0.0
C1682 C 0.73662 0.80671 0.87257 0.0
C1683 C 0.75667 0.83249 0.87582 0.0
C1684 C 0.75077 0.87057 0.8705 0.0
C1685 C 0.72492 0.88317 0.8619 0.0
C1686 C 0.70482 0.85775 0.85864 0.0
C1687 C 0.71075 0.81959 0.8639 0.0
H1688 H 0.72046 0.91262 0.85776 0.0
H1689 H 0.78632 0.54392 0.90948 0.0
H1690 H 0.49689 0.45306 0.69373 0.0
H1691 H 0.5549 0.46487 0.68129 0.0
H1692 H 0.52224 0.43123 0.64801 0.0
H1693 H 0.46383 0.41878 0.66054 0.0
H1694 H 0.5928 0.40204 0.65077 0.0
H1695 H 0.52219 0.52432 0.64979 0.0
H1696 H 0.48293 0.57735 0.65886 0.0
H1697 H 0.56645 0.58835 0.68114 0.0
H1698 H 0.60605 0.53502 0.67233 0.0
H1699 H 0.73481 0.48415 0.60644 0.0
H1700 H 0.67991 0.46056 0.61837 0.0
H1701 H 0.70005 0.50079 0.65244 0.0
H1702 H 0.75405 0.52532 0.64036 0.0
H1703 H 0.63423 0.52612 0.64826 0.0
H1704 H 0.70474 0.40274 0.64941 0.0
H1705 H 0.74362 0.34958 0.64028 0.0
H1706 H 0.66055 0.34083 0.61747 0.0
H1707 H 0.62133 0.39427 0.62635 0.0
C1708 C 0.50179 0.44823 0.68375 0.0
C1709 C 0.47533 0.43512 0.67816 0.0
C1710 C 0.53514 0.45512 0.67661 0.0
C1711 C 0.54307 0.44942 0.66361 0.0
C1712 C 0.51692 0.43593 0.658 0.0
C1713 C 0.48339 0.42899 0.66517 0.0
C1714 C 0.57856 0.45784 0.656 0.0
C1715 C 0.60165 0.42936 0.65007 0.0
C1716 C 0.59066 0.49322 0.65521 0.0
C1717 C 0.56697 0.52544 0.66048 0.0
C1718 C 0.53209 0.53786 0.65669 0.0
C1719 C 0.50979 0.56801 0.66178 0.0
C1720 C 0.52215 0.58615 0.6706 0.0
C1721 C 0.55689 0.57424 0.67432 0.0
C1722 C 0.57929 0.54408 0.66928 0.0
C1723 C 0.72836 0.48632 0.61664 0.0
C1724 C 0.7493 0.50557 0.62258 0.0
C1725 C 0.69671 0.47311 0.62346 0.0
C1726 C 0.68548 0.47871 0.6364 0.0
C1727 C 0.70777 0.49607 0.6425 0.0
C1728 C 0.73905 0.50959 0.63565 0.0
C1729 C 0.64907 0.47006 0.64323 0.0
C1730 C 0.62559 0.4987 0.64896 0.0
C1731 C 0.63671 0.43486 0.6438 0.0
C1732 C 0.66025 0.40276 0.63845 0.0
C1733 C 0.69488 0.38968 0.64237 0.0
C1734 C 0.71695 0.35945 0.63725 0.0
C1735 C 0.7046 0.34191 0.62827 0.0
C1736 C 0.6701 0.35448 0.62441 0.0
C1737 C 0.64793 0.38471 0.62949 0.0
H1738 H 0.72173 0.31851 0.62432 0.0
H1739 H 0.50484 0.60949 0.67452 0.0
H1740 H 0.81858 0.21119 0.42902 0.0
H1741 H 0.79653 0.26536 0.41355 0.0
H1742 H 0.69429 0.28012 0.43791 0.0
H1743 H 0.71659 0.22668 0.45368 0.0
H1744 H 0.69678 0.27366 0.4083 0.0
H1745 H 0.73329 0.34226 0.43866 0.0
H1746 H 0.77663 0.35731 0.45178 0.0
H1747 H 0.85036 0.38273 0.41749 0.0
H1748 H 0.80759 0.36736 0.40418 0.0
H1749 H 0.60718 0.436 0.37433 0.0
H1750 H 0.63203 0.38927 0.3913 0.0
H1751 H 0.74011 0.41436 0.37651 0.0
H1752 H 0.71465 0.46314 0.35979 0.0
H1753 H 0.73713 0.39971 0.40123 0.0
H1754 H 0.70384 0.3331 0.37058 0.0
H1755 H 0.66447 0.31529 0.35656 0.0
H1756 H 0.59009 0.28183 0.3898 0.0
H1757 H 0.62877 0.29993 0.40401 0.0
C1758 C 0.79149 0.22612 0.43116 0.0
C1759 C 0.76939 0.2145 0.44263 0.0
C1760 C 0.77897 0.25719 0.42231 0.0
C1761 C 0.74378 0.27695 0.42456 0.0
C1762 C 0.7216 0.26545 0.43598 0.0
C1763 C 0.73443 0.23492 0.445 0.0
C1764 C 0.72964 0.30836 0.4147 0.0
C1765 C 0.70514 0.30142 0.40687 0.0
C1766 C 0.74168 0.3441 0.41246 0.0
C1767 C 0.76746 0.35318 0.42045 0.0
C1768 C 0.75893 0.35062 0.43393 0.0
C1769 C 0.78333 0.35934 0.4414 0.0
C1770 C 0.81629 0.37083 0.43548 0.0
C1771 C 0.82485 0.37375 0.42207 0.0
C1772 C 0.80052 0.36508 0.41456 0.0
C1773 C 0.63627 0.43174 0.37469 0.0
C1774 C 0.65899 0.45299 0.36558 0.0
C1775 C 0.65058 0.40466 0.38439 0.0
C1776 C 0.68827 0.39695 0.38505 0.0
C1777 C 0.71099 0.41922 0.37622 0.0
C1778 C 0.69647 0.44711 0.36663 0.0
C1779 C 0.70355 0.3654 0.39482 0.0
C1780 C 0.72853 0.37209 0.4026 0.0
C1781 C 0.69245 0.32903 0.39687 0.0
C1782 C 0.66905 0.31821 0.38835 0.0
C1783 C 0.67895 0.32221 0.37489 0.0
C1784 C 0.65678 0.31202 0.36691 0.0
C1785 C 0.62475 0.29753 0.37228 0.0
C1786 C 0.61487 0.29311 0.38565 0.0
C1787 C 0.63693 0.3033 0.39367 0.0
H1788 H 0.60763 0.28964 0.36608 0.0
H1789 H 0.83515 0.37758 0.44127 0.0
H1790 H 0.82052 0.33722 0.08977 0.0
H1791 H 0.85068 0.35046 0.1069 0.0
H1792 H 0.77706 0.45411 0.10923 0.0
H1793 H 0.74586 0.44071 0.09179 0.0
H1794 H 0.85724 0.45769 0.10862 0.0
H1795 H 0.76377 0.38961 0.13247 0.0
H1796 H 0.72653 0.33786 0.13723 0.0
H1797 H 0.82191 0.2571 0.14287 0.0
H1798 H 0.86001 0.30814 0.13787 0.0
H1799 H 0.94182 0.47224 0.16388 0.0
H1800 H 0.8971 0.47245 0.14923 0.0
H1801 H 0.93502 0.35498 0.14671 0.0
H1802 H 0.97884 0.35417 0.16174 0.0
H1803 H 0.86377 0.366 0.14891 0.0
H1804 H 0.95746 0.42805 0.12213 0.0
H1805 H -0.00104 0.47578 0.11561 0.0
H1806 H 0.9076 0.5639 0.11402 0.0
H1807 H 0.86552 0.51667 0.12071 0.0
C1808 C 0.81042 0.36309 0.09384 0.0
C1809 C 0.7805 0.38797 0.08935 0.0
C1810 C 0.82783 0.37043 0.10372 0.0
C1811 C 0.81617 0.40311 0.10946 0.0
C1812 C 0.78656 0.4286 0.10496 0.0
C1813 C 0.76861 0.42093 0.09503 0.0
C1814 C 0.83582 0.40962 0.12003 0.0
C1815 C 0.85789 0.43834 0.11761 0.0
C1816 C 0.83778 0.38353 0.13157 0.0
C1817 C 0.81482 0.35278 0.13475 0.0
C1818 C 0.77689 0.36082 0.13464 0.0
C1819 C 0.7556 0.33162 0.13739 0.0
C1820 C 0.77181 0.29431 0.14038 0.0
C1821 C 0.80939 0.28605 0.14058 0.0
C1822 C 0.83086 0.3151 0.1378 0.0
C1823 C 0.94055 0.4463 0.16031 0.0
C1824 C 0.96427 0.41318 0.16406 0.0
C1825 C 0.91506 0.44658 0.15179 0.0
C1826 C 0.91265 0.41383 0.14668 0.0
C1827 C 0.93616 0.38071 0.15045 0.0
C1828 C 0.96162 0.3804 0.15898 0.0
C1829 C 0.88576 0.41381 0.13746 0.0
C1830 C 0.86252 0.38605 0.1401 0.0
C1831 C 0.88316 0.44043 0.12604 0.0
C1832 C 0.90836 0.46888 0.12209 0.0
C1833 C 0.94622 0.45764 0.12051 0.0
C1834 C 0.96985 0.48459 0.11676 0.0
C1835 C 0.95593 0.52286 0.11445 0.0
C1836 C 0.91834 0.53425 0.11585 0.0
C1837 C 0.89459 0.50741 0.11962 0.0
H1838 H 0.97426 0.54369 0.11154 0.0
H1839 H 0.75522 0.27182 0.14258 0.0
H1840 H 0.83486 0.61467 0.64519 0.0
H1841 H 0.8124 0.65946 0.66049 0.0
H1842 H 0.72548 0.70875 0.63765 0.0
H1843 H 0.74901 0.66566 0.62206 0.0
H1844 H 0.75104 0.76185 0.64358 0.0
H1845 H 0.7141 0.64829 0.66872 0.0
H1846 H 0.72374 0.58165 0.67876 0.0
H1847 H 0.80027 0.60671 0.70141 0.0
H1848 H 0.79133 0.67349 0.69142 0.0
H1849 H 0.65789 0.84715 0.70378 0.0
H1850 H 0.67197 0.78999 0.69316 0.0
H1851 H 0.77605 0.82258 0.67643 0.0
H1852 H 0.76185 0.87951 0.68647 0.0
H1853 H 0.73316 0.72702 0.69127 0.0
H1854 H 0.78352 0.82073 0.64489 0.0
H1855 H 0.77483 0.88811 0.63564 0.0
H1856 H 0.66634 0.90144 0.65552 0.0
H1857 H 0.67409 0.83393 0.66468 0.0
C1858 C 0.81092 0.63506 0.64348 0.0
C1859 C 0.79386 0.63685 0.63238 0.0
C1860 C 0.79786 0.66047 0.6523 0.0
C1861 C 0.76681 0.68736 0.65038 0.0
C1862 C 0.7495 0.68852 0.63938 0.0
C1863 C 0.76301 0.66382 0.63045 0.0
C1864 C 0.75328 0.71571 0.65935 0.0
C1865 C 0.74679 0.75394 0.65399 0.0
C1866 C 0.74746 0.70577 0.67299 0.0
C1867 C 0.75217 0.66586 0.67927 0.0
C1868 C 0.73305 0.63958 0.67582 0.0
C1869 C 0.73839 0.60178 0.6815 0.0
C1870 C 0.76263 0.58996 0.69071 0.0
C1871 C 0.78148 0.61594 0.69429 0.0
C1872 C 0.77622 0.65378 0.68864 0.0
C1873 C 0.68384 0.84176 0.69794 0.0
C1874 C 0.70833 0.86825 0.69568 0.0
C1875 C 0.692 0.80902 0.69199 0.0
C1876 C 0.72485 0.80241 0.68385 0.0
C1877 C 0.75038 0.82735 0.68253 0.0
C1878 C 0.74211 0.86 0.68826 0.0
C1879 C 0.73132 0.77257 0.6754 0.0
C1880 C 0.73673 0.73442 0.68084 0.0
C1881 C 0.73558 0.78234 0.66179 0.0
C1882 C 0.72953 0.8223 0.65554 0.0
C1883 C 0.75765 0.8379 0.64716 0.0
C1884 C 0.75292 0.87613 0.64196 0.0
C1885 C 0.72015 0.89903 0.64506 0.0
C1886 C 0.69177 0.88366 0.65318 0.0
C1887 C 0.69631 0.8454 0.65836 0.0
H1888 H 0.71682 0.92869 0.64117 0.0
H1889 H 0.76673 0.5607 0.69508 0.0
H1890 H 0.74535 0.00862 0.93646 0.0
H1891 H 0.80051 0.03115 0.92415 0.0
H1892 H 0.80126 0.95552 0.89668 0.0
H1893 H 0.7471 0.9326 0.90911 0.0
H1894 H 0.86441 0.9444 0.90471 0.0
H1895 H 0.78516 0.055 0.88913 0.0
H1896 H 0.73856 0.11087 0.8908 0.0
H1897 H 0.80616 0.15779 0.9115 0.0
H1898 H 0.85299 0.10191 0.91012 0.0
H1899 H 0.00183 0.00109 0.85556 0.0
H1900 H 0.94316 -0.00855 0.86801 0.0
H1901 H 0.96413 0.05521 0.89634 0.0
H1902 H 0.02344 0.06484 0.88389 0.0
H1903 H 0.89186 0.0745 0.88929 0.0
H1904 H 0.97205 0.96399 0.9039 0.0
H1905 H 0.01875 0.90859 0.90144 0.0
H1906 H 0.94834 0.86164 0.88188 0.0
H1907 H 0.90141 0.91708 0.88404 0.0
C1908 C 0.75646 -0.00188 0.92749 0.0
C1909 C 0.74154 0.96936 0.9236 0.0
C1910 C 0.78826 0.01073 0.92049 0.0
C1911 C 0.80551 -0.00505 0.90945 0.0
C1912 C 0.78894 0.96805 0.90517 0.0
C1913 C 0.7576 0.95529 0.91219 0.0
C1914 C 0.84231 0.0034 0.90299 0.0
C1915 C 0.87007 0.97292 0.90121 0.0
C1916 C 0.85057 0.04056 0.89874 0.0
C1917 C 0.82239 0.07406 0.89966 0.0
C1918 C 0.78994 0.07705 0.89415 0.0
C1919 C 0.76352 0.10877 0.89502 0.0
C1920 C 0.76934 0.13781 0.90129 0.0
C1921 C 0.80165 0.13524 0.90667 0.0
C1922 C 0.82815 0.10356 0.90584 0.0
C1923 C 0.99417 0.01305 0.86445 0.0
C1924 C 0.01763 0.03362 0.86872 0.0
C1925 C 0.96048 0.00748 0.87158 0.0
C1926 C 0.94908 0.02247 0.88317 0.0
C1927 C 0.97221 0.04339 0.88743 0.0
C1928 C 0.00626 0.04864 0.88035 0.0
C1929 C 0.91333 0.01546 0.89082 0.0
C1930 C 0.88599 0.04608 0.89286 0.0
C1931 C 0.90526 0.97841 0.89527 0.0
C1932 C 0.93333 0.94487 0.89403 0.0
C1933 C 0.96662 0.942 0.89898 0.0
C1934 C 0.99312 0.91057 0.89766 0.0
C1935 C 0.98655 0.88165 0.89148 0.0
C1936 C 0.95341 0.88408 0.88665 0.0
C1937 C 0.92684 0.91549 0.88793 0.0
H1938 H 0.00709 0.85733 0.89047 0.0
H1939 H 0.74886 0.16235 0.90194 0.0
H1940 H 0.87407 -0.00747 0.16624 0.0
H1941 H 0.85382 0.04197 0.14905 0.0
H1942 H 0.7509 0.06586 0.17246 0.0
H1943 H 0.77068 0.01454 0.18939 0.0
H1944 H 0.73773 0.07966 0.14914 0.0
H1945 H 0.82666 0.11654 0.17009 0.0
H1946 H 0.88482 0.11549 0.17844 0.0
H1947 H 0.94068 0.12134 0.13987 0.0
H1948 H 0.88307 0.12119 0.13132 0.0
H1949 H 0.70936 0.27664 0.12011 0.0
H1950 H 0.7248 0.21964 0.13539 0.0
H1951 H 0.79712 0.17029 0.10521 0.0
H1952 H 0.78071 0.2268 0.08966 0.0
H1953 H 0.82429 0.17067 0.13169 0.0
H1954 H 0.72899 0.13516 0.11165 0.0
H1955 H 0.66751 0.14604 0.10492 0.0
H1956 H 0.62025 0.14796 0.14435 0.0
H1957 H 0.6815 0.13774 0.15129 0.0
C1958 C 0.84668 0.0076 0.16753 0.0
C1959 C 0.82379 -0.00058 0.17908 0.0
C1960 C 0.83526 0.03635 0.15777 0.0
C1961 C 0.80115 0.05889 0.15951 0.0
C1962 C 0.77742 0.0493 0.17081 0.0
C1963 C 0.7886 0.01976 0.18048 0.0
C1964 C 0.79116 0.09325 0.14987 0.0
C1965 C 0.75674 0.09954 0.14545 0.0
C1966 C 0.81557 0.11983 0.14491 0.0
C1967 C 0.85055 0.11837 0.15008 0.0
C1968 C 0.85141 0.11703 0.16341 0.0
C1969 C 0.8843 0.11669 0.16817 0.0
C1970 C 0.91644 0.11825 0.15969 0.0
C1971 C 0.91578 0.12006 0.14643 0.0
C1972 C 0.88305 0.12001 0.14163 0.0
C1973 C 0.72861 0.25373 0.11668 0.0
C1974 C 0.74382 0.25637 0.10362 0.0
C1975 C 0.73728 0.22107 0.12545 0.0
C1976 C 0.762 0.19061 0.12146 0.0
C1977 C 0.77788 0.19341 0.1085 0.0
C1978 C 0.76849 0.22572 0.09963 0.0
C1979 C 0.77163 0.15617 0.13089 0.0
C1980 C 0.80574 0.15027 0.13534 0.0
C1981 C 0.74665 0.13068 0.13611 0.0
C1982 C 0.70984 0.13605 0.13197 0.0
C1983 C 0.7055 0.13822 0.11887 0.0
C1984 C 0.67069 0.14422 0.11502 0.0
C1985 C 0.63999 0.1478 0.1242 0.0
C1986 C 0.64405 0.14523 0.13725 0.0
C1987 C 0.67881 0.13931 0.14115 0.0
H1988 H 0.61307 0.15247 0.12119 0.0
H1989 H 0.94185 0.1181 0.1634 0.0
H1990 H 0.68282 0.0817 0.4734 0.0
H1991 H 0.64025 0.07437 0.45881 0.0
H1992 H 0.73048 0.03258 0.43223 0.0
H1993 H 0.77283 0.04133 0.44665 0.0
H1994 H 0.68964 0.08052 0.41905 0.0
H1995 H 0.6632 0.97648 0.45134 0.0
H1996 H 0.64633 0.94359 0.47323 0.0
H1997 H 0.54396 0.01629 0.47596 0.0
H1998 H 0.56041 0.04994 0.45414 0.0
H1999 H 0.58318 0.02718 0.37654 0.0
H2000 H 0.62372 0.02599 0.3927 0.0
H2001 H 0.53537 0.08139 0.41675 0.0
H2002 H 0.49455 0.08304 0.40053 0.0
H2003 H 0.57463 0.02587 0.43123 0.0
H2004 H 0.60323 0.12895 0.39819 0.0
H2005 H 0.62183 0.15979 0.37615 0.0
H2006 H 0.72292 0.08475 0.3747 0.0
H2007 H 0.70472 0.05312 0.39666 0.0
C2008 C 0.69343 0.06983 0.46463 0.0
C2009 C 0.7312 0.0617 0.46122 0.0
C2010 C 0.66902 0.0657 0.45623 0.0
C2011 C 0.68176 0.05261 0.44431 0.0
C2012 C 0.71958 0.04291 0.44125 0.0
C2013 C 0.7439 0.04764 0.44954 0.0
C2014 C 0.65625 0.05158 0.43465 0.0
C2015 C 0.66486 0.06787 0.42174 0.0
C2016 C 0.62317 0.03611 0.43803 0.0
C2017 C 0.6132 0.01597 0.45115 0.0
C2018 C 0.63721 -0.01436 0.45665 0.0
C2019 C 0.6277 0.96683 0.46903 0.0
C2020 C 0.59414 0.97791 0.47599 0.0
C2021 C 0.56997 0.00777 0.47056 0.0
C2022 C 0.57936 0.0267 0.45818 0.0
C2023 C 0.57227 0.03952 0.38519 0.0
C2024 C 0.53538 0.05559 0.38706 0.0
C2025 C 0.59563 0.03873 0.39448 0.0
C2026 C 0.58299 0.05413 0.40594 0.0
C2027 C 0.54601 0.06934 0.40801 0.0
C2028 C 0.52256 0.07015 0.39871 0.0
C2029 C 0.60832 0.05446 0.41569 0.0
C2030 C 0.59957 0.03824 0.42859 0.0
C2031 C 0.64157 0.06954 0.41228 0.0
C2032 C 0.65239 0.08837 0.39902 0.0
C2033 C 0.62926 0.11878 0.39312 0.0
C2034 C 0.63977 0.13646 0.38065 0.0
C2035 C 0.67347 0.12415 0.37401 0.0
C2036 C 0.69678 0.0942 0.37984 0.0
C2037 C 0.68638 0.0764 0.3923 0.0
H2038 H 0.68156 0.13789 0.36436 0.0
H2039 H 0.58683 0.96331 0.48558 0.0
H2040 H 0.23046 0.37765 0.4024 0.0
H2041 H 0.25933 0.33285 0.38771 0.0
H2042 H 0.22351 0.24112 0.41567 0.0
H2043 H 0.19721 0.28549 0.43062 0.0
H2044 H 0.2866 0.21806 0.40651 0.0
H2045 H 0.18162 0.28282 0.38486 0.0
H2046 H 0.14396 0.33933 0.37485 0.0
H2047 H 0.23682 0.36944 0.34864 0.0
H2048 H 0.27491 0.31279 0.35839 0.0
H2049 H 0.26597 0.07867 0.37174 0.0
H2050 H 0.25731 0.13305 0.38299 0.0
H2051 H 0.32989 0.18814 0.35304 0.0
H2052 H 0.339 0.1327 0.34155 0.0
H2053 H 0.26185 0.23477 0.36095 0.0
H2054 H 0.36073 0.15669 0.38006 0.0
H2055 H 0.39361 0.09684 0.38988 0.0
H2056 H 0.30849 0.08963 0.42169 0.0
H2057 H 0.27457 0.14888 0.4119 0.0
C2058 C 0.22873 0.3479 0.40534 0.0
C2059 C 0.21163 0.33502 0.41764 0.0
C2060 C 0.24505 0.32223 0.3969 0.0
C2061 C 0.24333 0.28331 0.4004 0.0
C2062 C 0.22566 0.27077 0.41267 0.0
C2063 C 0.2104 0.2962 0.42122 0.0
C2064 C 0.25989 0.25527 0.39152 0.0
C2065 C 0.28092 0.22178 0.39658 0.0
C2066 C 0.25399 0.26028 0.37836 0.0
C2067 C 0.23109 0.2939 0.37241 0.0
C2068 C 0.19397 0.30159 0.37698 0.0
C2069 C 0.17259 0.33361 0.37137 0.0
C2070 C 0.18814 0.35811 0.36122 0.0
C2071 C 0.22496 0.35054 0.35658 0.0
C2072 C 0.24638 0.31837 0.36207 0.0
C2073 C 0.2802 0.10226 0.36747 0.0
C2074 C 0.30311 0.10144 0.35571 0.0
C2075 C 0.27529 0.13334 0.37397 0.0
C2076 C 0.29311 0.16458 0.36892 0.0
C2077 C 0.31594 0.16422 0.35711 0.0
C2078 C 0.32121 0.13262 0.35059 0.0
C2079 C 0.28693 0.19725 0.37617 0.0
C2080 C 0.26802 0.2315 0.37082 0.0
C2081 C 0.29431 0.19269 0.38914 0.0
C2082 C 0.31501 0.15729 0.3952 0.0
C2083 C 0.34886 0.14223 0.3891 0.0
C2084 C 0.36767 0.10833 0.39465 0.0
C2085 C 0.35308 0.08934 0.40637 0.0
C2086 C 0.31971 0.10429 0.41259 0.0
C2087 C 0.30068 0.13806 0.40704 0.0
H2088 H 0.36769 0.06313 0.41066 0.0
H2089 H 0.1716 0.38262 0.35679 0.0
H2090 H 0.9911 0.94805 0.19569 0.0
H2091 H 0.05047 0.95495 0.1833 0.0
H2092 H 0.01487 0.92197 0.15044 0.0
H2093 H 0.95504 0.91535 0.16278 0.0
H2094 H 0.10514 0.90911 0.17151 0.0
H2095 H 0.05356 0.97508 0.12273 0.0
H2096 H 0.99694 0.00918 0.11467 0.0
H2097 H 0.96368 0.05114 0.15083 0.0
H2098 H 0.02056 0.01878 0.15886 0.0
H2099 H 0.25432 0.95208 0.1182 0.0
H2100 H 0.20129 0.92486 0.13088 0.0
H2101 H 0.15938 0.03235 0.14335 0.0
H2102 H 0.21163 0.05888 0.13128 0.0
H2103 H 0.10934 0.00089 0.13114 0.0
H2104 H 0.18983 0.9718 0.16429 0.0
H2105 H 0.24581 0.94155 0.17357 0.0
H2106 H 0.2208 0.83238 0.17056 0.0
H2107 H 0.16496 0.8621 0.16101 0.0
C2108 C 0.99574 0.94225 0.18582 0.0
C2109 C 0.96788 0.93152 0.18023 0.0
C2110 C 0.03001 0.94586 0.17877 0.0
C2111 C 0.03745 0.93911 0.16588 0.0
C2112 C 0.00993 0.92764 0.16033 0.0
C2113 C 0.97559 0.92396 0.1674 0.0
C2114 C 0.07302 0.94663 0.15808 0.0
C2115 C 0.10599 0.92883 0.1626 0.0
C2116 C 0.07455 0.97266 0.14648 0.0
C2117 C 0.04109 -0.00601 0.14146 0.0
C2118 C 0.03429 -0.00807 0.1289 0.0
C2119 C 0.00217 0.01108 0.12432 0.0
C2120 C 0.97667 0.03238 0.13222 0.0
C2121 C 0.98343 0.03488 0.14467 0.0
C2122 C 0.01565 0.0162 0.14923 0.0
C2123 C 0.23423 0.96945 0.12393 0.0
C2124 C 0.23713 0.00775 0.12362 0.0
C2125 C 0.20379 0.95403 0.13108 0.0
C2126 C 0.17592 0.97681 0.13791 0.0
C2127 C 0.18005 0.01432 0.13805 0.0
C2128 C 0.2102 0.0294 0.13113 0.0
C2129 C 0.14138 0.96322 0.14451 0.0
C2130 C 0.10851 0.98024 0.13983 0.0
C2131 C 0.14001 0.93703 0.15604 0.0
C2132 C 0.17353 0.91919 0.16175 0.0
C2133 C 0.1965 0.94137 0.16545 0.0
C2134 C 0.22815 0.92433 0.1708 0.0
C2135 C 0.23693 0.88507 0.17261 0.0
C2136 C 0.21402 0.86279 0.16911 0.0
C2137 C 0.18237 0.87972 0.16373 0.0
H2138 H 0.26142 0.87191 0.17676 0.0
H2139 H 0.95169 0.04696 0.12871 0.0
H2140 H 0.21202 -0.01247 0.86634 0.0
H2141 H 0.23815 0.93932 0.8832 0.0
H2142 H 0.13884 0.89 0.89032 0.0
H2143 H 0.11302 0.93745 0.87385 0.0
H2144 H 0.16115 0.89076 0.9125 0.0
H2145 H 0.21723 0.85296 0.87141 0.0
H2146 H 0.25434 0.86123 0.85013 0.0
H2147 H 0.34609 0.87275 0.86834 0.0
H2148 H 0.30935 0.86499 0.88972 0.0
H2149 H 0.26505 0.68581 0.92667 0.0
H2150 H 0.24583 0.74234 0.91179 0.0
H2151 H 0.24023 0.81052 0.94189 0.0
H2152 H 0.25878 0.75395 0.9569 0.0
H2153 H 0.27407 0.80417 0.90178 0.0
H2154 H 0.17634 0.88835 0.93727 0.0
H2155 H 0.13614 0.87781 0.9578 0.0
H2156 H 0.12293 0.76933 0.94967 0.0
H2157 H 0.16275 0.77929 0.92904 0.0
C2158 C 0.19579 0.96656 0.8716 0.0
C2159 C 0.1605 0.9663 0.86863 0.0
C2160 C 0.21078 0.93882 0.88121 0.0
C2161 C 0.19068 0.91046 0.88806 0.0
C2162 C 0.15511 0.91126 0.8853 0.0
C2163 C 0.14037 0.93853 0.87576 0.0
C2164 C 0.20608 0.87914 0.89788 0.0
C2165 C 0.18611 0.87215 0.91016 0.0
C2166 C 0.23841 0.85424 0.89495 0.0
C2167 C 0.26045 0.85884 0.88213 0.0
C2168 C 0.24524 0.85754 0.87086 0.0
C2169 C 0.26621 0.86208 0.85879 0.0
C2170 C 0.30252 0.86763 0.85788 0.0
C2171 C 0.31795 0.86854 0.86905 0.0
C2172 C 0.29707 0.86405 0.88115 0.0
C2173 C 0.2596 0.71277 0.93018 0.0
C2174 C 0.26338 0.71501 0.94309 0.0
C2175 C 0.24874 0.74528 0.92159 0.0
C2176 C 0.24122 0.78109 0.92561 0.0
C2177 C 0.24521 0.78342 0.93849 0.0
C2178 C 0.25594 0.75087 0.94711 0.0
C2179 C 0.22893 0.81562 0.91637 0.0
C2180 C 0.24946 0.82316 0.9042 0.0
C2181 C 0.19684 0.84085 0.91934 0.0
C2182 C 0.17283 0.83443 0.93169 0.0
C2183 C 0.16479 0.86227 0.93986 0.0
C2184 C 0.1421 0.85637 0.95152 0.0
C2185 C 0.12711 0.82282 0.95506 0.0
C2186 C 0.1347 0.79516 0.94694 0.0
C2187 C 0.15737 0.8009 0.93527 0.0
H2188 H 0.10953 0.8183 0.96408 0.0
H2189 H 0.31872 0.87113 0.84853 0.0
H2190 H 0.42318 0.88459 0.67754 0.0
H2191 H 0.37977 0.88309 0.66269 0.0
H2192 H 0.45547 0.92276 0.63054 0.0
H2193 H 0.49852 0.92617 0.64544 0.0
H2194 H 0.3896 0.957 0.62692 0.0
H2195 H 0.4406 0.82792 0.63816 0.0
H2196 H 0.45827 0.76919 0.65264 0.0
H2197 H 0.34652 0.76615 0.66841 0.0
H2198 H 0.32822 0.82517 0.65413 0.0
H2199 H 0.31606 0.89319 0.57686 0.0
H2200 H 0.35291 0.90531 0.59265 0.0
H2201 H 0.26716 0.88072 0.62332 0.0
H2202 H 0.23015 0.869 0.6074 0.0
H2203 H 0.33525 0.84065 0.62818 0.0
H2204 H 0.28452 0.96863 0.61572 0.0
H2205 H 0.26787 0.0263 0.60062 0.0
H2206 H 0.38059 0.03005 0.58643 0.0
H2207 H 0.39791 0.97204 0.60132 0.0
C2208 C 0.43061 0.89354 0.66734 0.0
C2209 C 0.46468 0.90555 0.6628 0.0
C2210 C 0.40576 0.89217 0.65879 0.0
C2211 C 0.4143 0.90223 0.64539 0.0
C2212 C 0.44807 0.91466 0.6408 0.0
C2213 C 0.47294 0.91622 0.64937 0.0
C2214 C 0.38809 0.89969 0.6362 0.0
C2215 C 0.37814 0.93135 0.62712 0.0
C2216 C 0.37217 0.86661 0.63655 0.0
C2217 C 0.38309 0.83119 0.64518 0.0
C2218 C 0.41983 0.8149 0.64479 0.0
C2219 C 0.42995 0.78153 0.65295 0.0
C2220 C 0.40355 0.76401 0.66146 0.0
C2221 C 0.36695 0.77978 0.66182 0.0
C2222 C 0.35668 0.81318 0.65369 0.0
C2223 C 0.30468 0.89155 0.58693 0.0
C2224 C 0.26978 0.8814 0.59087 0.0
C2225 C 0.32581 0.89832 0.59596 0.0
C2226 C 0.31284 0.89423 0.60922 0.0
C2227 C 0.27774 0.88437 0.61316 0.0
C2228 C 0.25635 0.87821 0.60406 0.0
C2229 C 0.33697 0.89784 0.61891 0.0
C2230 C 0.3466 0.86634 0.62806 0.0
C2231 C 0.35277 0.93092 0.61855 0.0
C2232 C 0.34248 0.96576 0.60956 0.0
C2233 C 0.30575 0.98154 0.6093 0.0
C2234 C 0.29619 0.01434 0.60079 0.0
C2235 C 0.32315 0.03178 0.59255 0.0
C2236 C 0.35973 0.01649 0.59281 0.0
C2237 C 0.36944 0.98366 0.60129 0.0
H2238 H 0.31569 0.05718 0.58597 0.0
H2239 H 0.41144 0.73816 0.66777 0.0
H2240 H 0.29282 0.12613 1.01453 0.0
H2241 H 0.28082 0.12054 0.9928 0.0
H2242 H 0.21496 0.03328 1.00897 0.0
H2243 H 0.22664 0.03898 0.03073 0.0
H2244 H 0.26146 0.02053 0.98504 0.0
H2245 H 0.17163 0.11379 1.0035 0.0
H2246 H 0.1507 0.17014 1.0142 0.0
H2247 H 0.20586 0.23795 0.98256 0.0
H2248 H 0.22765 0.1818 0.97176 0.0
H2249 H 0.15624 0.03637 0.93243 0.0
H2250 H 0.17709 0.03065 0.95369 0.0
H2251 H 0.22905 0.1302 0.94079 0.0
H2252 H 0.20826 0.1361 0.91967 0.0
H2253 H 0.18951 0.13451 0.96347 0.0
H2254 H 0.27847 0.04178 0.94462 0.0
H2255 H 0.29961 -0.01447 0.93387 0.0
H2256 H 0.24668 0.91689 0.96585 0.0
H2257 H 0.22482 0.97287 0.97673 0.0
C2258 C 0.27641 0.10527 1.01339 0.0
C2259 C 0.26039 0.08319 0.02424 0.0
C2260 C 0.26952 0.10216 1.00103 0.0
C2261 C 0.24684 0.07667 0.99936 0.0
C2262 C 0.23255 0.05305 1.01011 0.0
C2263 C 0.23903 0.0565 1.02249 0.0
C2264 C 0.2353 0.07722 0.98656 0.0
C2265 C 0.24545 0.04524 0.98033 0.0
C2266 C 0.21478 0.10969 0.98045 0.0
C2267 C 0.20163 0.14352 0.9869 0.0
C2268 C 0.1796 0.14064 0.99888 0.0
C2269 C 0.16752 0.17256 1.00496 0.0
C2270 C 0.17703 0.20759 0.99908 0.0
C2271 C 0.19857 0.21078 0.98711 0.0
C2272 C 0.21079 0.17893 0.98101 0.0
C2273 C 0.17238 0.05678 0.93413 0.0
C2274 C 0.18031 0.0869 0.92446 0.0
C2275 C 0.18433 0.05346 0.94625 0.0
C2276 C 0.20474 0.07994 0.94879 0.0
C2277 C 0.21316 0.1096 0.93906 0.0
C2278 C 0.20112 0.11302 0.92702 0.0
C2279 C 0.21612 0.07799 0.96174 0.0
C2280 C 0.20568 0.10974 0.96809 0.0
C2281 C 0.23641 0.04532 0.9679 0.0
C2282 C 0.2497 0.01159 0.96142 0.0
C2283 C 0.2711 0.01475 0.94931 0.0
C2284 C 0.28326 0.9829 0.94321 0.0
C2285 C 0.27441 0.94768 0.94915 0.0
C2286 C 0.25348 0.94421 0.96125 0.0
C2287 C 0.24123 0.97598 0.96739 0.0
H2288 H 0.28383 0.92306 0.94441 0.0
H2289 H 0.16764 0.23228 1.00379 0.0
H2290 H 0.71701 0.45119 0.15844 0.0
H2291 H 0.70749 0.47142 0.17976 0.0
H2292 H 0.60715 0.42378 0.18865 0.0
H2293 H 0.61542 0.40536 0.16721 0.0
H2294 H 0.59689 0.49144 0.19506 0.0
H2295 H 0.68492 0.38099 0.20188 0.0
H2296 H 0.74269 0.33946 0.1973 0.0
H2297 H 0.80248 0.42522 0.20305 0.0
H2298 H 0.74502 0.46749 0.2075 0.0
H2299 H 0.57003 0.47535 0.26344 0.0
H2300 H 0.58255 0.46336 0.24113 0.0
H2301 H 0.66766 0.53349 0.23392 0.0
H2302 H 0.65437 0.54712 0.25616 0.0
H2303 H 0.68781 0.45922 0.22625 0.0
H2304 H 0.59564 0.56756 0.22109 0.0
H2305 H 0.53604 0.60503 0.22654 0.0
H2306 H 0.48192 0.51752 0.21863 0.0
H2307 H 0.54122 0.47926 0.21332 0.0
C2308 C 0.69292 0.44507 0.16494 0.0
C2309 C 0.66704 0.42658 0.16112 0.0
C2310 C 0.68767 0.45635 0.17715 0.0
C2311 C 0.65669 0.44892 0.18581 0.0
C2312 C 0.63123 0.42983 0.18212 0.0
C2313 C 0.63628 0.41885 0.1699 0.0
C2314 C 0.65002 0.46196 0.1986 0.0
C2315 C 0.61667 0.48408 0.20191 0.0
C2316 C 0.67611 0.453 0.20744 0.0
C2317 C 0.71069 0.42756 0.20488 0.0
C2318 C 0.7104 0.39111 0.20207 0.0
C2319 C 0.74308 0.36741 0.19952 0.0
C2320 C 0.77623 0.37974 0.19984 0.0
C2321 C 0.77677 0.41574 0.20278 0.0
C2322 C 0.74416 0.43957 0.20533 0.0
C2323 C 0.59077 0.48913 0.25707 0.0
C2324 C 0.6111 0.51235 0.26163 0.0
C2325 C 0.59809 0.48192 0.24434 0.0
C2326 C 0.626 0.49755 0.23594 0.0
C2327 C 0.64611 0.52108 0.24033 0.0
C2328 C 0.63852 0.52871 0.25304 0.0
C2329 C 0.63465 0.48823 0.22268 0.0
C2330 C 0.66829 0.46682 0.21931 0.0
C2331 C 0.60861 0.49726 0.21386 0.0
C2332 C 0.57289 0.52042 0.2169 0.0
C2333 C 0.57103 0.55618 0.2206 0.0
C2334 C 0.5373 0.57758 0.22365 0.0
C2335 C 0.50521 0.56363 0.22296 0.0
C2336 C 0.5068 0.52828 0.21917 0.0
C2337 C 0.54047 0.50675 0.21613 0.0
H2338 H 0.47912 0.58024 0.22533 0.0
H2339 H 0.80151 0.36137 0.19786 0.0
H2340 H 0.29269 0.82257 0.48361 0.0
H2341 H 0.30935 0.85025 0.46129 0.0
H2342 H 0.27059 0.96149 0.4712 0.0
H2343 H 0.25418 0.93399 0.49366 0.0
H2344 H 0.24968 0.95531 0.44867 0.0
H2345 H 0.36094 0.93156 0.46666 0.0
H2346 H 0.40984 0.89508 0.47871 0.0
H2347 H 0.43321 0.81687 0.45131 0.0
H2348 H 0.38407 0.85257 0.43919 0.0
H2349 H 0.38441 0.00601 0.38671 0.0
H2350 H 0.3731 -0.00987 0.41031 0.0
H2351 H 0.28692 0.92935 0.40629 0.0
H2352 H 0.298 0.94468 0.3829 0.0
H2353 H 0.37425 0.92141 0.42676 0.0
H2354 H 0.21568 0.94997 0.42955 0.0
H2355 H 0.16927 -0.00766 0.41774 0.0
H2356 H 0.24443 0.07189 0.40437 0.0
H2357 H 0.29102 0.03027 0.41625 0.0
C2358 C 0.28791 0.85296 0.4811 0.0
C2359 C 0.27234 0.87601 0.49052 0.0
C2360 C 0.29745 0.86877 0.4683 0.0
C2361 C 0.29181 0.90803 0.46458 0.0
C2362 C 0.27532 0.93113 0.47384 0.0
C2363 C 0.26578 0.91532 0.48668 0.0
C2364 C 0.30307 0.92468 0.45099 0.0
C2365 C 0.27693 0.94795 0.4439 0.0
C2366 C 0.33898 0.91619 0.44483 0.0
C2367 C 0.36862 0.8946 0.45207 0.0
C2368 C 0.37632 0.90642 0.46325 0.0
C2369 C 0.40411 0.8859 0.47009 0.0
C2370 C 0.42457 0.85364 0.46579 0.0
C2371 C 0.41732 0.84186 0.45463 0.0
C2372 C 0.38953 0.86225 0.44776 0.0
C2373 C 0.36324 -0.01095 0.39085 0.0
C2374 C 0.34212 0.97672 0.38285 0.0
C2375 C 0.35683 0.97999 0.40434 0.0
C2376 C 0.32888 0.95893 0.41007 0.0
C2377 C 0.30832 0.94603 0.4021 0.0
C2378 C 0.31484 0.95477 0.38868 0.0
C2379 C 0.32043 0.95053 0.42435 0.0
C2380 C 0.34708 0.92891 0.43156 0.0
C2381 C 0.28525 0.96133 0.4307 0.0
C2382 C 0.25696 -0.01315 0.42374 0.0
C2383 C 0.22223 0.97661 0.42417 0.0
C2384 C 0.19588 0.00047 0.41744 0.0
C2385 C 0.2039 0.03474 0.41029 0.0
C2386 C 0.23824 0.0453 0.40988 0.0
C2387 C 0.26463 0.02157 0.41661 0.0
H2388 H 0.18349 0.05313 0.40507 0.0
H2389 H 0.44609 0.8378 0.4711 0.0
H2390 H 0.92459 0.53982 0.68619 0.0
H2391 H 0.92413 0.54921 0.70861 0.0
H2392 H 0.81953 0.51077 0.71857 0.0
H2393 H 0.81965 0.5017 0.69613 0.0
H2394 H 0.82079 0.57157 0.7299 0.0
H2395 H 0.89806 0.45396 0.72647 0.0
H2396 H 0.94969 0.41096 0.71742 0.0
H2397 H 0.02453 0.47854 0.72583 0.0
H2398 H 0.97327 0.52227 0.73478 0.0
H2399 H 0.81074 0.52232 0.79743 0.0
H2400 H 0.81579 0.52396 0.77421 0.0
H2401 H 0.91812 0.56676 0.76968 0.0
H2402 H 0.91332 0.56484 0.79333 0.0
H2403 H 0.92128 0.50913 0.75511 0.0
H2404 H 0.84257 0.62416 0.76026 0.0
H2405 H 0.79004 0.66508 0.76981 0.0
H2406 H 0.71698 0.60071 0.75847 0.0
H2407 H 0.76909 0.55903 0.74901 0.0
C2408 C 0.9013 0.53359 0.69311 0.0
C2409 C 0.87219 0.51984 0.68924 0.0
C2410 C 0.90123 0.5387 0.70601 0.0
C2411 C 0.87199 0.53034 0.71545 0.0
C2412 C 0.84256 0.51732 0.71157 0.0
C2413 C 0.84277 0.51187 0.6987 0.0
C2414 C 0.87206 0.53502 0.72934 0.0
C2415 C 0.84265 0.5576 0.73542 0.0
C2416 C 0.90096 0.51775 0.73658 0.0
C2417 C 0.93181 0.49165 0.73115 0.0
C2418 C 0.92551 0.45986 0.72628 0.0
C2419 C 0.95471 0.43531 0.72119 0.0
C2420 C 0.99036 0.44208 0.72101 0.0
C2421 C 0.99689 0.47338 0.72595 0.0
C2422 C 0.96778 0.49804 0.73104 0.0
C2423 C 0.83435 0.53242 0.79157 0.0
C2424 C 0.86163 0.54352 0.79737 0.0
C2425 C 0.83708 0.53349 0.77818 0.0
C2426 C 0.86715 0.54579 0.77003 0.0
C2427 C 0.89451 0.55724 0.77571 0.0
C2428 C 0.89164 0.55644 0.78924 0.0
C2429 C 0.86984 0.5454 0.7557 0.0
C2430 C 0.89967 0.52351 0.74954 0.0
C2431 C 0.84124 0.56317 0.74839 0.0
C2432 C 0.80978 0.58829 0.75401 0.0
C2433 C 0.81531 0.61855 0.75988 0.0
C2434 C 0.78561 0.64192 0.76527 0.0
C2435 C 0.7502 0.63546 0.76477 0.0
C2436 C 0.74443 0.60567 0.75886 0.0
C2437 C 0.77404 0.58219 0.75347 0.0
H2438 H 0.72724 0.65357 0.76895 0.0
H2439 H 0.01294 0.42303 0.71707 0.0
H2440 H 0.77112 0.93287 0.12537 0.0
H2441 H 0.75222 0.93951 0.10382 0.0
H2442 H 0.83649 0.84883 0.09439 0.0
H2443 H 0.85639 0.84307 0.11567 0.0
H2444 H 0.83183 0.90278 0.07441 0.0
H2445 H 0.7475 0.83457 0.10452 0.0
H2446 H 0.7022 0.82469 0.1237 0.0
H2447 H 0.63182 0.92254 0.10857 0.0
H2448 H 0.67697 0.93329 0.08937 0.0
H2449 H 0.76979 0.82338 0.02722 0.0
H2450 H 0.78341 0.83348 0.04812 0.0
H2451 H 0.7082 0.93694 0.0461 0.0
H2452 H 0.69533 0.92794 0.02484 0.0
H2453 H 0.70496 0.88643 0.07114 0.0
H2454 H 0.78903 0.94895 0.03954 0.0
H2455 H 0.8345 0.95428 1.02023 0.0
H2456 H 0.90591 0.86233 0.0383 0.0
H2457 H 0.86059 0.85605 0.05765 0.0
C2458 C 0.78609 0.91489 0.11861 0.0
C2459 C 0.81508 0.88722 0.12225 0.0
C2460 C 0.775 0.91845 0.10635 0.0
C2461 C 0.79254 0.89422 0.09759 0.0
C2462 C 0.82243 0.86769 0.10102 0.0
C2463 C 0.8336 0.86423 0.11322 0.0
C2464 C 0.77927 0.89535 0.08498 0.0
C2465 C 0.80412 0.89907 0.07372 0.0
C2466 C 0.74287 0.89133 0.08404 0.0
C2467 C 0.71581 0.88502 0.0956 0.0
C2468 C 0.72251 0.85418 0.10534 0.0
C2469 C 0.69684 0.84838 0.1162 0.0
C2470 C 0.66421 0.87305 0.11737 0.0
C2471 C 0.65715 0.90352 0.10767 0.0
C2472 C 0.68276 0.90947 0.09679 0.0
C2473 C 0.75621 0.84843 0.03115 0.0
C2474 C 0.73187 0.87514 0.02424 0.0
C2475 C 0.76389 0.854 0.04312 0.0
C2476 C 0.74713 0.88616 0.04851 0.0
C2477 C 0.72143 0.91199 0.04203 0.0
C2478 C 0.71399 0.90666 0.02993 0.0
C2479 C 0.75774 0.89306 0.06072 0.0
C2480 C 0.73245 0.89081 0.07186 0.0
C2481 C 0.79383 0.89799 0.0616 0.0
C2482 C 0.82127 0.90184 0.05001 0.0
C2483 C 0.81429 0.92966 0.03936 0.0
C2484 C 0.84006 0.93289 0.02841 0.0
C2485 C 0.87304 0.90861 0.02802 0.0
C2486 C 0.88034 0.8811 0.0386 0.0
C2487 C 0.85463 0.87772 0.04957 0.0
H2488 H 0.89296 0.91116 1.01954 0.0
H2489 H 0.64435 0.8685 0.12579 0.0
H2490 H 0.26287 0.54098 0.88869 0.0
H2491 H 0.26039 0.53087 0.86639 0.0
H2492 H 0.37754 0.51955 0.85921 0.0
H2493 H 0.38006 0.52925 0.88131 0.0
H2494 H 0.34313 0.56751 0.83998 0.0
H2495 H 0.33719 0.44518 0.86568 0.0
H2496 H 0.31135 0.39774 0.88242 0.0
H2497 H 0.21467 0.41351 0.86377 0.0
H2498 H 0.23934 0.46212 0.84719 0.0
H2499 H 0.4042 0.47694 0.78598 0.0
H2500 H 0.39126 0.48999 0.80825 0.0
H2501 H 0.27642 0.49391 0.80686 0.0
H2502 H 0.28925 0.48018 0.78458 0.0
H2503 H 0.29966 0.45502 0.82996 0.0
H2504 H 0.30763 0.57403 0.80338 0.0
H2505 H 0.33496 0.61929 0.78616 0.0
H2506 H 0.42882 0.60787 0.80607 0.0
H2507 H 0.40231 0.56205 0.82332 0.0
C2508 C 0.28793 0.53634 0.88229 0.0
C2509 C 0.32163 0.53542 0.88669 0.0
C2510 C 0.28653 0.53052 0.86963 0.0
C2511 C 0.31883 0.52435 0.86124 0.0
C2512 C 0.35236 0.52425 0.86557 0.0
C2513 C 0.35377 0.52953 0.8782 0.0
C2514 C 0.31841 0.51778 0.84787 0.0
C2515 C 0.33367 0.5429 0.83778 0.0
C2516 C 0.30517 0.48615 0.84505 0.0
C2517 C 0.28986 0.45785 0.85531 0.0
C2518 C 0.31012 0.43912 0.86528 0.0
C2519 C 0.2957 0.41192 0.87473 0.0
C2520 C 0.2613 0.40274 0.8742 0.0
C2521 C 0.24123 0.42078 0.86422 0.0
C2522 C 0.25534 0.44829 0.85483 0.0
C2523 C 0.37626 0.47991 0.79049 0.0
C2524 C 0.3477 0.47767 0.78356 0.0
C2525 C 0.36888 0.48771 0.80315 0.0
C2526 C 0.33286 0.49348 0.80907 0.0
C2527 C 0.30436 0.48979 0.80238 0.0
C2528 C 0.31171 0.48214 0.78968 0.0
C2529 C 0.32521 0.50422 0.82215 0.0
C2530 C 0.30843 0.48001 0.83216 0.0
C2531 C 0.33707 0.53665 0.82493 0.0
C2532 C 0.35307 0.56438 0.8146 0.0
C2533 C 0.33422 0.58094 0.80404 0.0
C2534 C 0.34955 0.60673 0.79428 0.0
C2535 C 0.38364 0.6164 0.79501 0.0
C2536 C 0.40243 0.60034 0.80552 0.0
C2537 C 0.38724 0.57448 0.8153 0.0
H2538 H 0.39546 0.63638 0.78744 0.0
H2539 H 0.25023 0.38159 0.8815 0.0
H2540 H 0.6026 0.00264 0.6624 0.0
H2541 H 0.60943 0.02454 0.63909 0.0
H2542 H 0.72602 0.01085 0.63876 0.0
H2543 H 0.71884 -0.00821 0.66211 0.0
H2544 H 0.70978 0.07075 0.62469 0.0
H2545 H 0.67401 0.94751 0.62565 0.0
H2546 H 0.63365 0.89895 0.63323 0.0
H2547 H 0.54427 0.97476 0.61822 0.0
H2548 H 0.58412 0.02386 0.61072 0.0
H2549 H 0.76506 0.07663 0.55773 0.0
H2550 H 0.75159 0.05386 0.58074 0.0
H2551 H 0.63741 0.09222 0.57869 0.0
H2552 H 0.65068 0.11547 0.55564 0.0
H2553 H 0.6485 0.02267 0.59363 0.0
H2554 H 0.6878 0.14363 0.59097 0.0
H2555 H 0.72936 0.19109 0.58375 0.0
H2556 H 0.81436 0.11686 0.60201 0.0
H2557 H 0.77344 0.06874 0.60919 0.0
C2558 C 0.62964 0.00424 0.6573 0.0
C2559 C 0.66016 -0.00429 0.66408 0.0
C2560 C 0.63363 0.01645 0.64392 0.0
C2561 C 0.66838 0.01891 0.63694 0.0
C2562 C 0.69884 0.0096 0.64378 0.0
C2563 C 0.69476 -0.00146 0.65717 0.0
C2564 C 0.67338 0.03247 0.62267 0.0
C2565 C 0.69675 0.0596 0.61794 0.0
C2566 C 0.6556 0.01923 0.61371 0.0
C2567 C 0.63192 -0.01059 0.61779 0.0
C2568 C 0.64571 0.95381 0.62406 0.0
C2569 C 0.62294 0.92622 0.62833 0.0
C2570 C 0.58637 0.93383 0.62626 0.0
C2571 C 0.57259 0.96894 0.61984 0.0
C2572 C 0.59527 -0.00337 0.61556 0.0
C2573 C 0.73707 0.08053 0.56215 0.0
C2574 C 0.70903 0.09831 0.55478 0.0
C2575 C 0.72938 0.06731 0.57534 0.0
C2576 C 0.6935 0.0717 0.58154 0.0
C2577 C 0.66531 0.08845 0.57415 0.0
C2578 C 0.67297 0.1017 0.56094 0.0
C2579 C 0.68571 0.05982 0.59577 0.0
C2580 C 0.66162 0.03343 0.60044 0.0
C2581 C 0.70312 0.07337 0.6047 0.0
C2582 C 0.72763 0.10247 0.60053 0.0
C2583 C 0.71542 0.13734 0.59338 0.0
C2584 C 0.73886 0.16437 0.5893 0.0
C2585 C 0.77451 0.15696 0.5924 0.0
C2586 C 0.78676 0.12255 0.59961 0.0
C2587 C 0.76344 0.09541 0.6037 0.0
H2588 H 0.79262 0.17792 0.58923 0.0
H2589 H 0.56873 0.9125 0.62961 0.0
H2590 H 0.08795 0.4245 0.36136 0.0
H2591 H 0.08809 0.41577 0.3389 0.0
H2592 H 0.17972 0.47673 0.32746 0.0
H2593 H 0.1797 0.48554 0.34988 0.0
H2594 H 0.13149 0.50152 0.31155 0.0
H2595 H 0.18775 0.3732 0.32705 0.0
H2596 H 0.19126 0.31108 0.3409 0.0
H2597 H 0.0861 0.29782 0.3325 0.0
H2598 H 0.08247 0.3592 0.31826 0.0
H2599 H 0.19046 0.46524 0.24849 0.0
H2600 H 0.18468 0.46521 0.27163 0.0
H2601 H 0.0923 0.40531 0.27691 0.0
H2602 H 0.09822 0.40489 0.25336 0.0
H2603 H 0.13356 0.37932 0.29626 0.0
H2604 H 0.08367 0.50051 0.27736 0.0
H2605 H 0.07798 0.56228 0.26348 0.0
H2606 H 0.16561 0.59281 0.27958 0.0
H2607 H 0.1732 0.53058 0.29306 0.0
C2608 C 0.10841 0.43576 0.3541 0.0
C2609 C 0.1338 0.45586 0.35756 0.0
C2610 C 0.10859 0.43053 0.34119 0.0
C2611 C 0.13422 0.44509 0.33132 0.0
C2612 C 0.15958 0.4651 0.33478 0.0
C2613 C 0.1594 0.47037 0.34766 0.0
C2614 C 0.13347 0.44173 0.31733 0.0
C2615 C 0.13264 0.47466 0.3082 0.0
C2616 C 0.13298 0.40707 0.31288 0.0
C2617 C 0.13467 0.37087 0.32173 0.0
C2618 C 0.1653 0.35711 0.32823 0.0
C2619 C 0.16737 0.32201 0.3361 0.0
C2620 C 0.13876 0.30079 0.33771 0.0
C2621 C 0.10818 0.31437 0.3313 0.0
C2622 C 0.10621 0.34915 0.32325 0.0
C2623 C 0.16887 0.45176 0.25448 0.0
C2624 C 0.14461 0.43526 0.24889 0.0
C2625 C 0.16551 0.45199 0.26783 0.0
C2626 C 0.13753 0.43609 0.27616 0.0
C2627 C 0.11403 0.41809 0.27075 0.0
C2628 C 0.11747 0.41775 0.25726 0.0
C2629 C 0.13309 0.43906 0.29039 0.0
C2630 C 0.13261 0.40621 0.29957 0.0
C2631 C 0.13215 0.47396 0.29492 0.0
C2632 C 0.12922 0.51057 0.28616 0.0
C2633 C 0.10229 0.52001 0.27775 0.0
C2634 C 0.09875 0.55514 0.26993 0.0
C2635 C 0.12155 0.58131 0.27061 0.0
C2636 C 0.14823 0.57233 0.27897 0.0
C2637 C 0.15226 0.53707 0.28666 0.0
H2638 H 0.1183 0.6087 0.26478 0.0
H2639 H 0.14038 0.27373 0.34386 0.0
H2640 H 0.74211 0.54367 0.42518 0.0
H2641 H 0.75961 0.55069 0.4459 0.0
H2642 H 0.67059 0.64115 0.45009 0.0
H2643 H 0.65308 0.63444 0.42926 0.0
H2644 H 0.73297 0.6589 0.45567 0.0
H2645 H 0.66624 0.55251 0.46713 0.0
H2646 H 0.65284 0.48971 0.46505 0.0
H2647 H 0.76023 0.44013 0.47347 0.0
H2648 H 0.77441 0.50275 0.47546 0.0
H2649 H 0.72177 0.6715 0.5218 0.0
H2650 H 0.71247 0.66424 0.50011 0.0
H2651 H 0.79895 0.56997 0.50016 0.0
H2652 H 0.80694 0.57562 0.52224 0.0
H2653 H 0.7425 0.55287 0.49183 0.0
H2654 H 0.80887 0.65753 0.48161 0.0
H2655 H 0.82376 0.71998 0.48336 0.0
H2656 H 0.71979 0.77246 0.47217 0.0
H2657 H 0.70406 0.71026 0.47053 0.0
C2658 C 0.72597 0.56471 0.4306 0.0
C2659 C 0.69607 0.58835 0.42567 0.0
C2660 C 0.73606 0.56874 0.44241 0.0
C2661 C 0.71616 0.59617 0.44957 0.0
C2662 C 0.6863 0.61983 0.44468 0.0
C2663 C 0.67632 0.61597 0.43282 0.0
C2664 C 0.7268 0.60058 0.46209 0.0
C2665 C 0.73466 0.63588 0.46365 0.0
C2666 C 0.73023 0.57011 0.4723 0.0
C2667 C 0.72148 0.53236 0.47133 0.0
C2668 C 0.68706 0.52825 0.46847 0.0
C2669 C 0.67931 0.49268 0.46732 0.0
C2670 C 0.7057 0.46096 0.46909 0.0
C2671 C 0.73984 0.46473 0.47209 0.0
C2672 C 0.74772 0.50024 0.47325 0.0
C2673 C 0.73881 0.64917 0.51722 0.0
C2674 C 0.76494 0.62399 0.5238 0.0
C2675 C 0.73378 0.64535 0.50473 0.0
C2676 C 0.75529 0.61682 0.49844 0.0
C2677 C 0.78211 0.59226 0.50483 0.0
C2678 C 0.78691 0.59579 0.5174 0.0
C2679 C 0.74824 0.61142 0.4855 0.0
C2680 C 0.74109 0.5759 0.48385 0.0
C2681 C 0.7457 0.64164 0.47517 0.0
C2682 C 0.7552 0.67917 0.47604 0.0
C2683 C 0.78909 0.68236 0.4796 0.0
C2684 C 0.79769 0.71772 0.48056 0.0
C2685 C 0.77271 0.75016 0.4779 0.0
C2686 C 0.73911 0.74731 0.47424 0.0
C2687 C 0.73036 0.71201 0.47327 0.0
H2688 H 0.77941 0.77751 0.47866 0.0
H2689 H 0.69967 0.43346 0.46818 0.0
H2690 H 0.21404 0.90041 0.66248 0.0
H2691 H 0.21554 0.91833 0.68377 0.0
H2692 H 0.10232 0.96625 0.68496 0.0
H2693 H 0.10064 0.94828 0.66378 0.0
H2694 H 0.14759 0.01225 0.69279 0.0
H2695 H 0.12033 0.88422 0.70089 0.0
H2696 H 0.13148 0.81694 0.69829 0.0
H2697 H 0.23455 0.80459 0.71271 0.0
H2698 H 0.22421 0.872 0.71522 0.0
H2699 H 0.08831 0.02041 0.75913 0.0
H2700 H 0.0981 0.01138 0.73642 0.0
H2701 H 0.20422 0.94873 0.74175 0.0
H2702 H 0.19421 0.95716 0.76454 0.0
H2703 H 0.16841 0.91154 0.72998 0.0
H2704 H 0.19351 0.03825 0.72395 0.0
H2705 H 0.1825 0.10546 0.72662 0.0
H2706 H 0.08523 0.12112 0.70832 0.0
H2707 H 0.09536 0.05384 0.70571 0.0
C2708 C 0.1896 0.91493 0.66729 0.0
C2709 C 0.15714 0.92269 0.6616 0.0
C2710 C 0.19046 0.92509 0.6794 0.0
C2711 C 0.159 0.9435 0.68589 0.0
C2712 C 0.12685 0.95211 0.68007 0.0
C2713 C 0.12585 0.94154 0.66806 0.0
C2714 C 0.15899 0.95246 0.699 0.0
C2715 C 0.15193 -0.00967 0.70097 0.0
C2716 C 0.16553 0.92378 0.70953 0.0
C2717 C 0.1717 0.88323 0.70809 0.0
C2718 C 0.14552 0.86724 0.70339 0.0
C2719 C 0.15166 0.82907 0.70196 0.0
C2720 C 0.18376 0.80653 0.70529 0.0
C2721 C 0.20973 0.8221 0.7101 0.0
C2722 C 0.20374 0.86028 0.71154 0.0
C2723 C 0.11398 0.00534 0.75538 0.0
C2724 C 0.14047 -0.0106 0.76357 0.0
C2725 C 0.11958 0.00022 0.74241 0.0
C2726 C 0.15203 0.97962 0.73736 0.0
C2727 C 0.17896 0.96464 0.74545 0.0
C2728 C 0.17322 0.96945 0.75845 0.0
C2729 C 0.15679 0.97152 0.72389 0.0
C2730 C 0.16461 0.93368 0.72183 0.0
C2731 C 0.15111 0.00031 0.71328 0.0
C2732 C 0.14507 0.0409 0.71472 0.0
C2733 C 0.16964 0.05596 0.72057 0.0
C2734 C 0.16357 0.09408 0.72206 0.0
C2735 C 0.13315 0.11753 0.71767 0.0
C2736 C 0.10878 0.10292 0.71173 0.0
C2737 C 0.11469 0.06479 0.71022 0.0
H2738 H 0.12849 0.14704 0.71884 0.0
H2739 H 0.18846 0.77698 0.70417 0.0
H2740 H 0.87977 0.5116 0.8854 0.0
H2741 H 0.86932 0.49369 0.90894 0.0
H2742 H 0.78027 0.4372 0.90468 0.0
H2743 H 0.7903 0.45482 0.88137 0.0
H2744 H 0.76224 0.48006 0.92394 0.0
H2745 H 0.8623 0.38735 0.91031 0.0
H2746 H 0.92361 0.36699 0.89962 0.0
H2747 H 0.97091 0.4219 0.92464 0.0
H2748 H 0.90979 0.44302 0.93537 0.0
H2749 H 0.73346 0.362 0.98389 0.0
H2750 H 0.74611 0.38852 0.96114 0.0
H2751 H 0.8393 0.43121 0.96962 0.0
H2752 H 0.8271 0.40414 0.99234 0.0
H2753 H 0.85709 0.40086 0.94855 0.0
H2754 H 0.7576 0.48983 0.96333 0.0
H2755 H 0.69642 0.51121 0.97389 0.0
H2756 H 0.64801 0.46537 0.94675 0.0
H2757 H 0.70893 0.44326 0.93613 0.0
C2758 C 0.85807 0.49523 0.88948 0.0
C2759 C 0.83609 0.48445 0.88143 0.0
C2760 C 0.85215 0.48498 0.90294 0.0
C2761 C 0.82411 0.46387 0.90859 0.0
C2762 C 0.802 0.45351 0.90057 0.0
C2763 C 0.80797 0.46351 0.88719 0.0
C2764 C 0.81755 0.45215 0.92281 0.0
C2765 C 0.78288 0.46251 0.92932 0.0
C2766 C 0.84474 0.4301 0.92991 0.0
C2767 C 0.88147 0.4171 0.92355 0.0
C2768 C 0.88576 0.3953 0.91347 0.0
C2769 C 0.92047 0.38359 0.90742 0.0
C2770 C 0.95113 0.39323 0.91143 0.0
C2771 C 0.94714 0.4145 0.92153 0.0
C2772 C 0.91247 0.42633 0.92761 0.0
C2773 C 0.75642 0.37737 0.98093 0.0
C2774 C 0.77925 0.38094 0.98994 0.0
C2775 C 0.76363 0.39261 0.9679 0.0
C2776 C 0.79345 0.41238 0.96362 0.0
C2777 C 0.81618 0.41609 0.97263 0.0
C2778 C 0.80919 0.40054 0.98563 0.0
C2779 C 0.80149 0.42827 0.94972 0.0
C2780 C 0.83645 0.41871 0.94325 0.0
C2781 C 0.77457 0.45121 0.94266 0.0
C2782 C 0.73787 0.4646 0.949 0.0
C2783 C 0.73392 0.48407 0.95967 0.0
C2784 C 0.69928 0.49636 0.96566 0.0
C2785 C 0.66834 0.48958 0.96102 0.0
C2786 C 0.67199 0.47058 0.95035 0.0
C2787 C 0.70657 0.4582 0.94433 0.0
H2788 H 0.64155 0.49913 0.96567 0.0
H2789 H 0.97798 0.38415 0.90673 0.0
H2790 H 0.30558 0.04341 0.29904 0.0
H2791 H 0.30752 0.04312 0.2759 0.0
H2792 H 0.42468 0.03162 0.27165 0.0
H2793 H 0.42245 0.03415 0.2949 0.0
H2794 H 0.40375 0.07212 0.2509 0.0
H2795 H 0.36997 0.95529 0.27439 0.0
H2796 H 0.33321 0.91439 0.29014 0.0
H2797 H 0.23972 0.95691 0.27024 0.0
H2798 H 0.27563 -0.00095 0.2546 0.0
H2799 H 0.42641 0.00279 0.19012 0.0
H2800 H 0.42673 0.01083 0.21256 0.0
H2801 H 0.30951 0.02937 0.21782 0.0
H2802 H 0.30894 0.02157 0.19532 0.0
H2803 H 0.33233 0.98442 0.23788 0.0
H2804 H 0.36375 0.10255 0.21516 0.0
H2805 H 0.39914 0.14438 0.19915 0.0
H2806 H 0.49556 0.09898 0.21708 0.0
H2807 H 0.46083 0.05649 0.2331 0.0
C2808 C 0.33178 0.04162 0.29313 0.0
C2809 C 0.36384 0.03906 0.29886 0.0
C2810 C 0.33293 0.04089 0.27985 0.0
C2811 C 0.36631 0.03598 0.27186 0.0
C2812 C 0.39844 0.03509 0.27747 0.0
C2813 C 0.39721 0.03676 0.2908 0.0
C2814 C 0.36749 0.03094 0.25786 0.0
C2815 C 0.38848 0.05248 0.24814 0.0
C2816 C 0.34703 0.006 0.25394 0.0
C2817 C 0.32545 0.98066 0.26339 0.0
C2818 C 0.34149 0.9562 0.27344 0.0
C2819 C 0.32076 0.93277 0.28235 0.0
C2820 C 0.2841 0.93307 0.28119 0.0
C2821 C 0.26809 0.9568 0.27114 0.0
C2822 C 0.2886 0.98053 0.26227 0.0
C2823 C 0.40057 0.00909 0.19594 0.0
C2824 C 0.36762 0.01166 0.19069 0.0
C2825 C 0.40083 0.0137 0.20888 0.0
C2826 C 0.36816 0.02131 0.21703 0.0
C2827 C 0.33522 0.02356 0.21186 0.0
C2828 C 0.33493 0.0189 0.19892 0.0
C2829 C 0.36819 0.02583 0.23098 0.0
C2830 C 0.34756 0.00406 0.24068 0.0
C2831 C 0.38883 0.05056 0.23485 0.0
C2832 C 0.40977 0.07606 0.22524 0.0
C2833 C 0.39256 0.10127 0.21562 0.0
C2834 C 0.41249 0.12514 0.20656 0.0
C2835 C 0.4496 0.12427 0.20708 0.0
C2836 C 0.46683 0.09958 0.21668 0.0
C2837 C 0.44703 0.07562 0.22576 0.0
H2838 H 0.46497 0.14278 0.20006 0.0
H2839 H 0.268 0.91496 0.28805 0.0
H2840 H 0.30186 0.43347 0.61969 0.0
H2841 H 0.2877 0.43941 0.59755 0.0
H2842 H 0.36597 0.34097 0.59143 0.0
H2843 H 0.38166 0.33607 0.61327 0.0
H2844 H 0.36686 0.39025 0.57014 0.0
H2845 H 0.27378 0.33596 0.60087 0.0
H2846 H 0.22639 0.3348 0.61968 0.0
H2847 H 0.16633 0.43573 0.60148 0.0
H2848 H 0.21364 0.43773 0.58263 0.0
H2849 H 0.29772 0.31227 0.52327 0.0
H2850 H 0.31876 0.3258 0.54259 0.0
H2851 H 0.23871 0.42558 0.54281 0.0
H2852 H 0.2176 0.41228 0.52347 0.0
H2853 H 0.23796 0.38413 0.56623 0.0
H2854 H 0.32875 0.43281 0.53407 0.0
H2855 H 0.37598 0.43139 0.51525 0.0
H2856 H 0.44036 0.33864 0.53602 0.0
H2857 H 0.39328 0.33915 0.55491 0.0
C2858 C 0.31675 0.41367 0.61353 0.0
C2859 C 0.34249 0.3839 0.61833 0.0
C2860 C 0.30834 0.41688 0.60091 0.0
C2861 C 0.32514 0.39009 0.59294 0.0
C2862 C 0.35242 0.36178 0.59744 0.0
C2863 C 0.36108 0.35878 0.60999 0.0
C2864 C 0.31279 0.38968 0.58028 0.0
C2865 C 0.33871 0.38875 0.56928 0.0
C2866 C 0.27591 0.38849 0.57911 0.0
C2867 C 0.24743 0.38724 0.59042 0.0
C2868 C 0.25059 0.35804 0.60093 0.0
C2869 C 0.22374 0.35721 0.61159 0.0
C2870 C 0.19343 0.38524 0.6118 0.0
C2871 C 0.18986 0.41409 0.60132 0.0
C2872 C 0.21668 0.41508 0.59065 0.0
C2873 C 0.28493 0.33735 0.52733 0.0
C2874 C 0.25593 0.36114 0.52187 0.0
C2875 C 0.297 0.34508 0.53836 0.0
C2876 C 0.28054 0.37692 0.54406 0.0
C2877 C 0.25178 0.40086 0.53857 0.0
C2878 C 0.23964 0.39311 0.52756 0.0
C2879 C 0.29212 0.38412 0.55612 0.0
C2880 C 0.26602 0.38624 0.56702 0.0
C2881 C 0.32886 0.3861 0.5572 0.0
C2882 C 0.35734 0.38586 0.54588 0.0
C2883 C 0.35285 0.41194 0.5346 0.0
C2884 C 0.37962 0.41132 0.52392 0.0
C2885 C 0.41111 0.3849 0.52443 0.0
C2886 C 0.41594 0.35908 0.53563 0.0
C2887 C 0.38924 0.35956 0.54634 0.0
H2888 H 0.4318 0.38447 0.51615 0.0
H2889 H 0.17266 0.38454 0.62006 0.0
H2890 H 0.88747 0.00065 0.38659 0.0
H2891 H 0.88282 -0.01214 0.36505 0.0
H2892 H 0.7921 0.07704 0.36153 0.0
H2893 H 0.79706 0.09081 0.38309 0.0
H2894 H 0.78334 0.00948 0.35234 0.0
H2895 H 0.869 0.09669 0.34707 0.0
H2896 H 0.92242 0.12123 0.35171 0.0
H2897 H 0.99182 0.0222 0.34101 0.0
H2898 H 0.93871 -0.00323 0.3365 0.0
H2899 H 0.79725 0.02757 0.28322 0.0
H2900 H 0.79153 0.03739 0.30581 0.0
H2901 H 0.88766 0.95633 0.3114 0.0
H2902 H 0.8939 0.94689 0.28877 0.0
H2903 H 0.89117 0.02263 0.3195 0.0
H2904 H 0.80558 0.9351 0.32484 0.0
H2905 H 0.75219 0.91021 0.32035 0.0
H2906 H 0.68266 0.00947 0.33079 0.0
H2907 H 0.73574 0.03524 0.33516 0.0
C2908 C 0.86669 0.01784 0.38122 0.0
C2909 C 0.84312 0.04729 0.38646 0.0
C2910 C 0.86391 0.01026 0.36896 0.0
C2911 C 0.83745 0.03184 0.36168 0.0
C2912 C 0.81275 0.06016 0.36703 0.0
C2913 C 0.81562 0.06795 0.37934 0.0
C2914 C 0.837 0.02558 0.34826 0.0
C2915 C 0.80662 0.01289 0.34506 0.0
C2916 C 0.86774 0.02939 0.33892 0.0
C2917 C 0.89981 0.04467 0.34157 0.0
C2918 C 0.89561 0.07999 0.34581 0.0
C2919 C 0.92584 0.09409 0.3484 0.0
C2920 C 0.96048 0.07325 0.34669 0.0
C2921 C 0.96497 0.0383 0.34235 0.0
C2922 C 0.93481 0.02404 0.33977 0.0
C2923 C 0.81699 0.01165 0.28931 0.0
C2924 C 0.84611 -0.01342 0.28424 0.0
C2925 C 0.81354 0.01708 0.30222 0.0
C2926 C 0.83912 -0.0025 0.31027 0.0
C2927 C 0.86762 0.97166 0.30533 0.0
C2928 C 0.871 0.9661 0.29244 0.0
C2929 C 0.83771 0.00591 0.32356 0.0
C2930 C 0.86779 0.01923 0.32672 0.0
C2931 C 0.80667 0.00269 0.33282 0.0
C2932 C 0.77471 -0.01271 0.33018 0.0
C2933 C 0.77896 0.9518 0.32606 0.0
C2934 C 0.74874 0.93749 0.32356 0.0
C2935 C 0.71407 0.9583 0.32525 0.0
C2936 C 0.70954 -0.00658 0.32946 0.0
C2937 C 0.73969 0.00788 0.33196 0.0
H2938 H 0.69071 0.94717 0.32331 0.0
H2939 H 0.98386 0.08422 0.34869 0.0
H2940 H 0.13119 0.45884 0.16101 0.0
H2941 H 0.14168 0.4775 0.13751 0.0
H2942 H 0.19055 0.57212 0.14312 0.0
H2943 H 0.18005 0.5539 0.16647 0.0
H2944 H 0.14672 0.59204 0.12426 0.0
H2945 H 0.24241 0.49243 0.13579 0.0
H2946 H 0.26755 0.42881 0.14559 0.0
H2947 H 0.21703 0.37942 0.11994 0.0
H2948 H 0.19091 0.44282 0.11015 0.0
H2949 H 0.24768 0.64011 0.06383 0.0
H2950 H 0.23068 0.61821 0.08669 0.0
H2951 H 0.187 0.5257 0.07672 0.0
H2952 H 0.20518 0.54666 0.05379 0.0
H2953 H 0.22412 0.50262 0.09743 0.0
H2954 H 0.1307 0.60395 0.08523 0.0
H2955 H 0.10643 0.66822 0.07572 0.0
H2956 H 0.15421 0.71486 0.10283 0.0
H2957 H 0.1792 0.65086 0.11239 0.0
C2958 C 0.14367 0.48393 0.15723 0.0
C2959 C 0.15486 0.5048 0.16563 0.0
C2960 C 0.14988 0.49442 0.14379 0.0
C2961 C 0.16729 0.52601 0.13852 0.0
C2962 C 0.17714 0.54763 0.14692 0.0
C2963 C 0.17119 0.53707 0.1603 0.0
C2964 C 0.17649 0.53611 0.12429 0.0
C2965 C 0.16384 0.57255 0.11842 0.0
C2966 C 0.19832 0.5105 0.11659 0.0
C2967 C 0.21434 0.47237 0.12234 0.0
C2968 C 0.23639 0.468 0.13231 0.0
C2969 C 0.25085 0.432 0.13786 0.0
C2970 C 0.24384 0.40012 0.1334 0.0
C2971 C 0.22239 0.40417 0.12338 0.0
C2972 C 0.20773 0.44014 0.11784 0.0
C2973 C 0.23493 0.61479 0.06646 0.0
C2974 C 0.22772 0.5953 0.05689 0.0
C2975 C 0.22485 0.6025 0.07957 0.0
C2976 C 0.20699 0.5706 0.08347 0.0
C2977 C 0.20053 0.55051 0.07398 0.0
C2978 C 0.21066 0.56277 0.06085 0.0
C2979 C 0.19461 0.55873 0.09741 0.0
C2980 C 0.20669 0.52198 0.10324 0.0
C2981 C 0.17237 0.58411 0.1051 0.0
C2982 C 0.15705 0.62262 0.09946 0.0
C2983 C 0.13622 0.62792 0.08911 0.0
C2984 C 0.12231 0.6643 0.08372 0.0
C2985 C 0.12884 0.69561 0.08865 0.0
C2986 C 0.1492 0.69059 0.09901 0.0
C2987 C 0.16321 0.65426 0.10443 0.0
H2988 H 0.11806 0.72375 0.08446 0.0
H2989 H 0.25508 0.37231 0.13771 0.0
H2990 H 0.57452 0.9284 0.86016 0.0
H2991 H 0.57592 0.9221 0.83745 0.0
H2992 H 0.67314 0.97483 0.82797 0.0
H2993 H 0.6713 0.98225 0.85065 0.0
H2994 H 0.62757 0.00453 0.81094 0.0
H2995 H 0.67569 0.8745 0.82635 0.0
H2996 H 0.67662 0.81231 0.84001 0.0
H2997 H 0.57034 0.80447 0.83121 0.0
H2998 H 0.56924 0.86615 0.81719 0.0
H2999 H 0.68501 0.96468 0.74806 0.0
H3000 H 0.67878 0.96524 0.77118 0.0
H3001 H 0.58099 0.91396 0.77602 0.0
H3002 H 0.58737 0.913 0.75249 0.0
H3003 H 0.62104 0.88453 0.79545 0.0
H3004 H 0.5791 0.00907 0.77654 0.0
H3005 H 0.58043 0.06896 0.76168 0.0
H3006 H 0.67323 0.08959 0.77736 0.0
H3007 H 0.67332 0.02921 0.79202 0.0
C3008 C 0.59624 0.93882 0.85328 0.0
C3009 C 0.62266 0.95614 0.8574 0.0
C3010 C 0.59725 0.93473 0.84022 0.0
C3011 C 0.6248 0.94767 0.83081 0.0
C3012 C 0.65151 0.96451 0.83492 0.0
C3013 C 0.65059 0.96849 0.848 0.0
C3014 C 0.62489 0.94526 0.81668 0.0
C3015 C 0.62667 0.97814 0.80757 0.0
C3016 C 0.62221 0.91132 0.81213 0.0
C3017 C 0.62219 0.87504 0.82089 0.0
C3018 C 0.6524 0.85962 0.82743 0.0
C3019 C 0.65302 0.82443 0.8352 0.0
C3020 C 0.62339 0.80467 0.83662 0.0
C3021 C 0.59321 0.81988 0.83016 0.0
C3022 C 0.59267 0.85482 0.82223 0.0
C3023 C 0.66205 0.95339 0.75396 0.0
C3024 C 0.63644 0.93916 0.74826 0.0
C3025 C 0.65846 0.95391 0.76728 0.0
C3026 C 0.62888 0.94062 0.77547 0.0
C3027 C 0.60394 0.9248 0.76996 0.0
C3028 C 0.60764 0.92411 0.75649 0.0
C3029 C 0.62455 0.94362 0.78968 0.0
C3030 C 0.6218 0.91099 0.79881 0.0
C3031 C 0.62619 0.97794 0.79423 0.0
C3032 C 0.6264 0.0143 0.78533 0.0
C3033 C 0.60009 0.02611 0.77673 0.0
C3034 C 0.60061 0.06017 0.76832 0.0
C3035 C 0.627 0.08299 0.76854 0.0
C3036 C 0.65295 0.07178 0.77715 0.0
C3037 C 0.65275 0.0376 0.7855 0.0
H3038 H 0.62731 0.1094 0.76205 0.0
H3039 H 0.62392 0.77747 0.84267 0.0
loop_
_geom_bond_atom_site_label_1
_geom_bond_atom_site_label_2
_geom_bond_distance
_geom_bond_site_symmetry_2
_ccdc_geom_bond_type
Nd0 C2 2.836 . S
Nd0 O20 2.500 . S
Nd0 O21 2.492 . S
Nd0 O22 2.487 . S
Nd0 O23 2.682 . S
Nd0 O24 2.410 . S
Nd0 O29 2.414 . S
Nd0 O31 2.424 . S
Nd1 C11 2.836 . S
Nd1 O23 2.414 . S
Nd1 O25 2.424 . S
Nd1 O26 2.500 . S
Nd1 O27 2.492 . S
Nd1 O28 2.487 . S
Nd1 O29 2.682 . S
Nd1 O30 2.410 . S
C2 Nd0 2.836 . S
C2 C3 1.498 . S
C2 O20 1.258 . S
C2 O21 1.239 . S
C3 C2 1.498 . S
C3 C4 1.366 . S
C3 C8 1.407 . S
C4 C3 1.366 . S
C4 C5 1.392 . S
C4 H32 0.930 . S
C5 C4 1.392 . S
C5 C6 1.398 . S
C5 H33 0.929 . S
C6 C5 1.398 . S
C6 C7 1.352 . S
C7 C6 1.352 . S
C7 C8 1.384 . S
C7 H34 0.930 . S
C8 C3 1.407 . S
C8 C7 1.384 . S
C8 H35 0.929 . S
C9 O22 1.241 . S
C9 O23 1.273 . S
C10 O24 1.251 . S
C10 O25 1.268 . S
C11 Nd1 2.836 . S
C11 C12 1.498 . S
C11 O26 1.258 . S
C11 O27 1.239 . S
C12 C11 1.498 . S
C12 C13 1.366 . S
C12 C17 1.407 . S
C13 C12 1.366 . S
C13 C14 1.392 . S
C13 H36 0.930 . S
C14 C13 1.392 . S
C14 C15 1.398 . S
C14 H37 0.929 . S
C15 C14 1.398 . S
C15 C16 1.352 . S
C16 C15 1.352 . S
C16 C17 1.384 . S
C16 H38 0.930 . S
C17 C12 1.407 . S
C17 C16 1.384 . S
C17 H39 0.929 . S
C18 O28 1.241 . S
C18 O29 1.273 . S
C19 O30 1.251 . S
C19 O31 1.268 . S
O20 Nd0 2.500 . S
O20 C2 1.258 . S
O21 Nd0 2.492 . S
O21 C2 1.239 . S
O22 Nd0 2.487 . S
O22 C9 1.241 . S
O23 Nd0 2.682 . S
O23 Nd1 2.414 . S
O23 C9 1.273 . S
O24 Nd0 2.410 . S
O24 C10 1.251 . S
O25 Nd1 2.424 . S
O25 C10 1.268 . S
O26 Nd1 2.500 . S
O26 C11 1.258 . S
O27 Nd1 2.492 . S
O27 C11 1.239 . S
O28 Nd1 2.487 . S
O28 C18 1.241 . S
O29 Nd0 2.414 . S
O29 Nd1 2.682 . S
O29 C18 1.273 . S
O30 Nd1 2.410 . S
O30 C19 1.251 . S
O31 Nd0 2.424 . S
O31 C19 1.268 . S
H32 C4 0.930 . S
H33 C5 0.929 . S
H34 C7 0.930 . S
H35 C8 0.929 . S
H36 C13 0.930 . S
H37 C14 0.929 . S
H38 C16 0.930 . S
H39 C17 0.929 . S
Nd40 C42 2.836 . S
Nd40 O60 2.500 . S
Nd40 O61 2.492 . S
Nd40 O62 2.487 . S
Nd40 O63 2.682 . S
Nd40 O64 2.410 . S
Nd40 O69 2.414 . S
Nd40 O71 2.424 . S
Nd41 C51 2.836 . S
Nd41 O63 2.414 . S
Nd41 O65 2.424 . S
Nd41 O66 2.500 . S
Nd41 O67 2.492 . S
Nd41 O68 2.487 . S
Nd41 O69 2.682 . S
Nd41 O70 2.410 . S
C42 Nd40 2.836 . S
C42 C43 1.498 . S
C42 O60 1.258 . S
C42 O61 1.239 . S
C43 C42 1.498 . S
C43 C44 1.366 . S
C43 C48 1.407 . S
C44 C43 1.366 . S
C44 C45 1.392 . S
C44 H72 0.930 . S
C45 C44 1.392 . S
C45 C46 1.398 . S
C45 H73 0.929 . S
C46 C45 1.398 . S
C46 C47 1.352 . S
C47 C46 1.352 . S
C47 C48 1.384 . S
C47 H74 0.930 . S
C48 C43 1.407 . S
C48 C47 1.384 . S
C48 H75 0.929 . S
C49 O62 1.241 . S
C49 O63 1.273 . S
C50 O64 1.251 . S
C50 O65 1.268 . S
C51 Nd41 2.836 . S
C51 C52 1.498 . S
C51 O66 1.258 . S
C51 O67 1.239 . S
C52 C51 1.498 . S
C52 C53 1.366 . S
C52 C57 1.407 . S
C53 C52 1.366 . S
C53 C54 1.392 . S
C53 H76 0.930 . S
C54 C53 1.392 . S
C54 C55 1.398 . S
C54 H77 0.929 . S
C55 C54 1.398 . S
C55 C56 1.352 . S
C56 C55 1.352 . S
C56 C57 1.384 . S
C56 H78 0.930 . S
C57 C52 1.407 . S
C57 C56 1.384 . S
C57 H79 0.929 . S
C58 O68 1.241 . S
C58 O69 1.273 . S
C59 O70 1.251 . S
C59 O71 1.268 . S
O60 Nd40 2.500 . S
O60 C42 1.258 . S
O61 Nd40 2.492 . S
O61 C42 1.239 . S
O62 Nd40 2.487 . S
O62 C49 1.241 . S
O63 Nd40 2.682 . S
O63 Nd41 2.414 . S
O63 C49 1.273 . S
O64 Nd40 2.410 . S
O64 C50 1.251 . S
O65 Nd41 2.424 . S
O65 C50 1.268 . S
O66 Nd41 2.500 . S
O66 C51 1.258 . S
O67 Nd41 2.492 . S
O67 C51 1.239 . S
O68 Nd41 2.487 . S
O68 C58 1.241 . S
O69 Nd40 2.414 . S
O69 Nd41 2.682 . S
O69 C58 1.273 . S
O70 Nd41 2.410 . S
O70 C59 1.251 . S
O71 Nd40 2.424 . S
O71 C59 1.268 . S
H72 C44 0.930 . S
H73 C45 0.929 . S
H74 C47 0.930 . S
H75 C48 0.929 . S
H76 C53 0.930 . S
H77 C54 0.929 . S
H78 C56 0.930 . S
H79 C57 0.929 . S
Nd80 C82 2.836 . S
Nd80 O100 2.500 . S
Nd80 O101 2.492 . S
Nd80 O102 2.487 . S
Nd80 O103 2.682 . S
Nd80 O104 2.410 . S
Nd80 O109 2.414 . S
Nd80 O111 2.424 . S
Nd81 C91 2.836 . S
Nd81 O103 2.414 . S
Nd81 O105 2.424 . S
Nd81 O106 2.500 . S
Nd81 O107 2.492 . S
Nd81 O108 2.487 . S
Nd81 O109 2.682 . S
Nd81 O110 2.410 . S
C82 Nd80 2.836 . S
C82 C83 1.498 . S
C82 O100 1.258 . S
C82 O101 1.239 . S
C83 C82 1.498 . S
C83 C84 1.366 . S
C83 C88 1.407 . S
C84 C83 1.366 . S
C84 C85 1.392 . S
C84 H112 0.930 . S
C85 C84 1.392 . S
C85 C86 1.398 . S
C85 H113 0.929 . S
C86 C85 1.398 . S
C86 C87 1.352 . S
C87 C86 1.352 . S
C87 C88 1.384 . S
C87 H114 0.930 . S
C88 C83 1.407 . S
C88 C87 1.384 . S
C88 H115 0.929 . S
C89 O102 1.241 . S
C89 O103 1.273 . S
C90 O104 1.251 . S
C90 O105 1.268 . S
C91 Nd81 2.836 . S
C91 C92 1.498 . S
C91 O106 1.258 . S
C91 O107 1.239 . S
C92 C91 1.498 . S
C92 C93 1.366 . S
C92 C97 1.407 . S
C93 C92 1.366 . S
C93 C94 1.392 . S
C93 H116 0.930 . S
C94 C93 1.392 . S
C94 C95 1.398 . S
C94 H117 0.929 . S
C95 C94 1.398 . S
C95 C96 1.352 . S
C96 C95 1.352 . S
C96 C97 1.384 . S
C96 H118 0.930 . S
C97 C92 1.407 . S
C97 C96 1.384 . S
C97 H119 0.929 . S
C98 O108 1.241 . S
C98 O109 1.273 . S
C99 O110 1.251 . S
C99 O111 1.268 . S
O100 Nd80 2.500 . S
O100 C82 1.258 . S
O101 Nd80 2.492 . S
O101 C82 1.239 . S
O102 Nd80 2.487 . S
O102 C89 1.241 . S
O103 Nd80 2.682 . S
O103 Nd81 2.414 . S
O103 C89 1.273 . S
O104 Nd80 2.410 . S
O104 C90 1.251 . S
O105 Nd81 2.424 . S
O105 C90 1.268 . S
O106 Nd81 2.500 . S
O106 C91 1.258 . S
O107 Nd81 2.492 . S
O107 C91 1.239 . S
O108 Nd81 2.487 . S
O108 C98 1.241 . S
O109 Nd80 2.414 . S
O109 Nd81 2.682 . S
O109 C98 1.273 . S
O110 Nd81 2.410 . S
O110 C99 1.251 . S
O111 Nd80 2.424 . S
O111 C99 1.268 . S
H112 C84 0.930 . S
H113 C85 0.929 . S
H114 C87 0.930 . S
H115 C88 0.929 . S
H116 C93 0.930 . S
H117 C94 0.929 . S
H118 C96 0.930 . S
H119 C97 0.929 . S
Nd120 C122 2.836 . S
Nd120 O140 2.500 . S
Nd120 O141 2.492 . S
Nd120 O142 2.487 . S
Nd120 O143 2.682 . S
Nd120 O144 2.410 . S
Nd120 O149 2.414 . S
Nd120 O151 2.424 . S
Nd121 C131 2.836 . S
Nd121 O143 2.414 . S
Nd121 O145 2.424 . S
Nd121 O146 2.500 . S
Nd121 O147 2.492 . S
Nd121 O148 2.487 . S
Nd121 O149 2.682 . S
Nd121 O150 2.410 . S
C122 Nd120 2.836 . S
C122 C123 1.498 . S
C122 O140 1.258 . S
C122 O141 1.239 . S
C123 C122 1.498 . S
C123 C124 1.366 . S
C123 C128 1.407 . S
C124 C123 1.366 . S
C124 C125 1.392 . S
C124 H152 0.930 . S
C125 C124 1.392 . S
C125 C126 1.398 . S
C125 H153 0.929 . S
C126 C125 1.398 . S
C126 C127 1.352 . S
C127 C126 1.352 . S
C127 C128 1.384 . S
C127 H154 0.930 . S
C128 C123 1.407 . S
C128 C127 1.384 . S
C128 H155 0.929 . S
C129 O142 1.241 . S
C129 O143 1.273 . S
C130 O144 1.251 . S
C130 O145 1.268 . S
C131 Nd121 2.836 . S
C131 C132 1.498 . S
C131 O146 1.258 . S
C131 O147 1.239 . S
C132 C131 1.498 . S
C132 C133 1.366 . S
C132 C137 1.407 1_655 S
C133 C132 1.366 . S
C133 C134 1.392 . S
C133 H156 0.930 . S
C134 C133 1.392 . S
C134 C135 1.398 1_655 S
C134 H157 0.929 . S
C135 C134 1.398 1_455 S
C135 C136 1.352 . S
C136 C135 1.352 . S
C136 C137 1.384 . S
C136 H158 0.930 . S
C137 C132 1.407 1_455 S
C137 C136 1.384 . S
C137 H159 0.929 . S
C138 O148 1.241 . S
C138 O149 1.273 . S
C139 O150 1.251 . S
C139 O151 1.268 . S
O140 Nd120 2.500 . S
O140 C122 1.258 . S
O141 Nd120 2.492 . S
O141 C122 1.239 . S
O142 Nd120 2.487 . S
O142 C129 1.241 . S
O143 Nd120 2.682 . S
O143 Nd121 2.414 . S
O143 C129 1.273 . S
O144 Nd120 2.410 . S
O144 C130 1.251 . S
O145 Nd121 2.424 . S
O145 C130 1.268 . S
O146 Nd121 2.500 . S
O146 C131 1.258 . S
O147 Nd121 2.492 . S
O147 C131 1.239 . S
O148 Nd121 2.487 . S
O148 C138 1.241 . S
O149 Nd120 2.414 . S
O149 Nd121 2.682 . S
O149 C138 1.273 . S
O150 Nd121 2.410 . S
O150 C139 1.251 . S
O151 Nd120 2.424 . S
O151 C139 1.268 . S
H152 C124 0.930 . S
H153 C125 0.929 . S
H154 C127 0.930 . S
H155 C128 0.929 . S
H156 C133 0.930 . S
H157 C134 0.929 . S
H158 C136 0.930 . S
H159 C137 0.929 . S
Nd160 C162 2.836 . S
Nd160 O180 2.500 . S
Nd160 O181 2.492 . S
Nd160 O182 2.487 . S
Nd160 O183 2.682 . S
Nd160 O184 2.410 . S
Nd160 O189 2.414 . S
Nd160 O191 2.424 . S
Nd161 C171 2.836 . S
Nd161 O183 2.414 . S
Nd161 O185 2.424 . S
Nd161 O186 2.500 . S
Nd161 O187 2.492 . S
Nd161 O188 2.487 . S
Nd161 O189 2.682 . S
Nd161 O190 2.410 . S
C162 Nd160 2.836 . S
C162 C163 1.498 . S
C162 O180 1.258 . S
C162 O181 1.239 . S
C163 C162 1.498 . S
C163 C164 1.366 . S
C163 C168 1.407 . S
C164 C163 1.366 . S
C164 C165 1.392 . S
C164 H192 0.930 . S
C165 C164 1.392 . S
C165 C166 1.398 . S
C165 H193 0.929 . S
C166 C165 1.398 . S
C166 C167 1.352 . S
C167 C166 1.352 . S
C167 C168 1.384 . S
C167 H194 0.930 . S
C168 C163 1.407 . S
C168 C167 1.384 . S
C168 H195 0.929 . S
C169 O182 1.241 . S
C169 O183 1.273 . S
C170 O184 1.251 . S
C170 O185 1.268 . S
C171 Nd161 2.836 . S
C171 C172 1.498 . S
C171 O186 1.258 . S
C171 O187 1.239 . S
C172 C171 1.498 . S
C172 C173 1.366 . S
C172 C177 1.407 . S
C173 C172 1.366 . S
C173 C174 1.392 . S
C173 H196 0.930 . S
C174 C173 1.392 . S
C174 C175 1.398 . S
C174 H197 0.929 . S
C175 C174 1.398 . S
C175 C176 1.352 . S
C176 C175 1.352 . S
C176 C177 1.384 . S
C176 H198 0.930 . S
C177 C172 1.407 . S
C177 C176 1.384 . S
C177 H199 0.929 . S
C178 O188 1.241 . S
C178 O189 1.273 . S
C179 O190 1.251 . S
C179 O191 1.268 . S
O180 Nd160 2.500 . S
O180 C162 1.258 . S
O181 Nd160 2.492 . S
O181 C162 1.239 . S
O182 Nd160 2.487 . S
O182 C169 1.241 . S
O183 Nd160 2.682 . S
O183 Nd161 2.414 . S
O183 C169 1.273 . S
O184 Nd160 2.410 . S
O184 C170 1.251 . S
O185 Nd161 2.424 . S
O185 C170 1.268 . S
O186 Nd161 2.500 . S
O186 C171 1.258 . S
O187 Nd161 2.492 . S
O187 C171 1.239 . S
O188 Nd161 2.487 . S
O188 C178 1.241 . S
O189 Nd160 2.414 . S
O189 Nd161 2.682 . S
O189 C178 1.273 . S
O190 Nd161 2.410 . S
O190 C179 1.251 . S
O191 Nd160 2.424 . S
O191 C179 1.268 . S
H192 C164 0.930 . S
H193 C165 0.929 . S
H194 C167 0.930 . S
H195 C168 0.929 . S
H196 C173 0.930 . S
H197 C174 0.929 . S
H198 C176 0.930 . S
H199 C177 0.929 . S
Nd200 C202 2.836 . S
Nd200 O220 2.500 . S
Nd200 O221 2.492 . S
Nd200 O222 2.487 . S
Nd200 O223 2.682 . S
Nd200 O224 2.410 . S
Nd200 O229 2.414 . S
Nd200 O231 2.424 . S
Nd201 C211 2.836 . S
Nd201 O223 2.414 . S
Nd201 O225 2.424 . S
Nd201 O226 2.500 . S
Nd201 O227 2.492 . S
Nd201 O228 2.487 . S
Nd201 O229 2.682 . S
Nd201 O230 2.410 . S
C202 Nd200 2.836 . S
C202 C203 1.498 . S
C202 O220 1.258 . S
C202 O221 1.239 . S
C203 C202 1.498 . S
C203 C204 1.366 . S
C203 C208 1.407 . S
C204 C203 1.366 . S
C204 C205 1.392 . S
C204 H232 0.930 . S
C205 C204 1.392 . S
C205 C206 1.398 . S
C205 H233 0.929 . S
C206 C205 1.398 . S
C206 C207 1.352 . S
C207 C206 1.352 . S
C207 C208 1.384 . S
C207 H234 0.930 . S
C208 C203 1.407 . S
C208 C207 1.384 . S
C208 H235 0.929 . S
C209 O222 1.241 . S
C209 O223 1.273 . S
C210 O224 1.251 . S
C210 O225 1.268 . S
C211 Nd201 2.836 . S
C211 C212 1.498 . S
C211 O226 1.258 . S
C211 O227 1.239 . S
C212 C211 1.498 . S
C212 C213 1.366 . S
C212 C217 1.407 . S
C213 C212 1.366 . S
C213 C214 1.392 . S
C213 H236 0.930 . S
C214 C213 1.392 . S
C214 C215 1.398 . S
C214 H237 0.929 . S
C215 C214 1.398 . S
C215 C216 1.352 . S
C216 C215 1.352 . S
C216 C217 1.384 . S
C216 H238 0.930 . S
C217 C212 1.407 . S
C217 C216 1.384 . S
C217 H239 0.929 . S
C218 O228 1.241 . S
C218 O229 1.273 . S
C219 O230 1.251 . S
C219 O231 1.268 . S
O220 Nd200 2.500 . S
O220 C202 1.258 . S
O221 Nd200 2.492 . S
O221 C202 1.239 . S
O222 Nd200 2.487 . S
O222 C209 1.241 . S
O223 Nd200 2.682 . S
O223 Nd201 2.414 . S
O223 C209 1.273 . S
O224 Nd200 2.410 . S
O224 C210 1.251 . S
O225 Nd201 2.424 . S
O225 C210 1.268 . S
O226 Nd201 2.500 . S
O226 C211 1.258 . S
O227 Nd201 2.492 . S
O227 C211 1.239 . S
O228 Nd201 2.487 . S
O228 C218 1.241 . S
O229 Nd200 2.414 . S
O229 Nd201 2.682 . S
O229 C218 1.273 . S
O230 Nd201 2.410 . S
O230 C219 1.251 . S
O231 Nd200 2.424 . S
O231 C219 1.268 . S
H232 C204 0.930 . S
H233 C205 0.929 . S
H234 C207 0.930 . S
H235 C208 0.929 . S
H236 C213 0.930 . S
H237 C214 0.929 . S
H238 C216 0.930 . S
H239 C217 0.929 . S
Nd240 C242 2.836 . S
Nd240 O260 2.500 . S
Nd240 O261 2.492 . S
Nd240 O262 2.487 . S
Nd240 O263 2.682 . S
Nd240 O264 2.410 . S
Nd240 O269 2.414 . S
Nd240 O271 2.424 . S
Nd241 C251 2.836 . S
Nd241 O263 2.414 . S
Nd241 O265 2.424 . S
Nd241 O266 2.500 . S
Nd241 O267 2.492 . S
Nd241 O268 2.487 . S
Nd241 O269 2.682 . S
Nd241 O270 2.410 . S
C242 Nd240 2.836 . S
C242 C243 1.498 . S
C242 O260 1.258 . S
C242 O261 1.239 . S
C243 C242 1.498 . S
C243 C244 1.366 . S
C243 C248 1.407 . S
C244 C243 1.366 . S
C244 C245 1.392 . S
C244 H272 0.930 . S
C245 C244 1.392 . S
C245 C246 1.398 . S
C245 H273 0.929 . S
C246 C245 1.398 . S
C246 C247 1.352 . S
C247 C246 1.352 . S
C247 C248 1.384 . S
C247 H274 0.930 . S
C248 C243 1.407 . S
C248 C247 1.384 . S
C248 H275 0.929 . S
C249 O262 1.241 . S
C249 O263 1.273 . S
C250 O264 1.251 . S
C250 O265 1.268 . S
C251 Nd241 2.836 . S
C251 C252 1.498 . S
C251 O266 1.258 . S
C251 O267 1.239 . S
C252 C251 1.498 . S
C252 C253 1.366 . S
C252 C257 1.407 . S
C253 C252 1.366 . S
C253 C254 1.392 . S
C253 H276 0.930 . S
C254 C253 1.392 . S
C254 C255 1.398 . S
C254 H277 0.929 . S
C255 C254 1.398 . S
C255 C256 1.352 . S
C256 C255 1.352 . S
C256 C257 1.384 . S
C256 H278 0.930 . S
C257 C252 1.407 . S
C257 C256 1.384 . S
C257 H279 0.929 . S
C258 O268 1.241 . S
C258 O269 1.273 . S
C259 O270 1.251 . S
C259 O271 1.268 . S
O260 Nd240 2.500 . S
O260 C242 1.258 . S
O261 Nd240 2.492 . S
O261 C242 1.239 . S
O262 Nd240 2.487 . S
O262 C249 1.241 . S
O263 Nd240 2.682 . S
O263 Nd241 2.414 . S
O263 C249 1.273 . S
O264 Nd240 2.410 . S
O264 C250 1.251 . S
O265 Nd241 2.424 . S
O265 C250 1.268 . S
O266 Nd241 2.500 . S
O266 C251 1.258 . S
O267 Nd241 2.492 . S
O267 C251 1.239 . S
O268 Nd241 2.487 . S
O268 C258 1.241 . S
O269 Nd240 2.414 . S
O269 Nd241 2.682 . S
O269 C258 1.273 . S
O270 Nd241 2.410 . S
O270 C259 1.251 . S
O271 Nd240 2.424 . S
O271 C259 1.268 . S
H272 C244 0.930 . S
H273 C245 0.929 . S
H274 C247 0.930 . S
H275 C248 0.929 . S
H276 C253 0.930 . S
H277 C254 0.929 . S
H278 C256 0.930 . S
H279 C257 0.929 . S
Nd280 C282 2.836 . S
Nd280 O300 2.500 . S
Nd280 O301 2.492 . S
Nd280 O302 2.487 . S
Nd280 O303 2.682 . S
Nd280 O304 2.410 . S
Nd280 O309 2.414 . S
Nd280 O311 2.424 . S
Nd281 C291 2.836 . S
Nd281 O303 2.414 . S
Nd281 O305 2.424 . S
Nd281 O306 2.500 . S
Nd281 O307 2.492 . S
Nd281 O308 2.487 . S
Nd281 O309 2.682 . S
Nd281 O310 2.410 . S
C282 Nd280 2.836 . S
C282 C283 1.498 . S
C282 O300 1.258 . S
C282 O301 1.239 . S
C283 C282 1.498 . S
C283 C284 1.366 . S
C283 C288 1.407 1_455 S
C284 C283 1.366 . S
C284 C285 1.392 . S
C284 H312 0.930 . S
C285 C284 1.392 . S
C285 C286 1.398 1_455 S
C285 H313 0.929 . S
C286 C285 1.398 1_655 S
C286 C287 1.352 . S
C287 C286 1.352 . S
C287 C288 1.384 . S
C287 H314 0.930 . S
C288 C283 1.407 1_655 S
C288 C287 1.384 . S
C288 H315 0.929 . S
C289 O302 1.241 . S
C289 O303 1.273 . S
C290 O304 1.251 . S
C290 O305 1.268 . S
C291 Nd281 2.836 . S
C291 C292 1.498 . S
C291 O306 1.258 . S
C291 O307 1.239 . S
C292 C291 1.498 . S
C292 C293 1.366 . S
C292 C297 1.407 . S
C293 C292 1.366 . S
C293 C294 1.392 . S
C293 H316 0.930 . S
C294 C293 1.392 . S
C294 C295 1.398 . S
C294 H317 0.929 . S
C295 C294 1.398 . S
C295 C296 1.352 . S
C296 C295 1.352 . S
C296 C297 1.384 . S
C296 H318 0.930 . S
C297 C292 1.407 . S
C297 C296 1.384 . S
C297 H319 0.929 . S
C298 O308 1.241 . S
C298 O309 1.273 . S
C299 O310 1.251 . S
C299 O311 1.268 . S
O300 Nd280 2.500 . S
O300 C282 1.258 . S
O301 Nd280 2.492 . S
O301 C282 1.239 . S
O302 Nd280 2.487 . S
O302 C289 1.241 . S
O303 Nd280 2.682 . S
O303 Nd281 2.414 . S
O303 C289 1.273 . S
O304 Nd280 2.410 . S
O304 C290 1.251 . S
O305 Nd281 2.424 . S
O305 C290 1.268 . S
O306 Nd281 2.500 . S
O306 C291 1.258 . S
O307 Nd281 2.492 . S
O307 C291 1.239 . S
O308 Nd281 2.487 . S
O308 C298 1.241 . S
O309 Nd280 2.414 . S
O309 Nd281 2.682 . S
O309 C298 1.273 . S
O310 Nd281 2.410 . S
O310 C299 1.251 . S
O311 Nd280 2.424 . S
O311 C299 1.268 . S
H312 C284 0.930 . S
H313 C285 0.929 . S
H314 C287 0.930 . S
H315 C288 0.929 . S
H316 C293 0.930 . S
H317 C294 0.929 . S
H318 C296 0.930 . S
H319 C297 0.929 . S
Nd320 C322 2.836 . S
Nd320 O340 2.500 . S
Nd320 O341 2.492 . S
Nd320 O342 2.487 . S
Nd320 O343 2.682 . S
Nd320 O344 2.410 . S
Nd320 O349 2.414 . S
Nd320 O351 2.424 . S
Nd321 C331 2.836 . S
Nd321 O343 2.414 . S
Nd321 O345 2.424 . S
Nd321 O346 2.500 . S
Nd321 O347 2.492 . S
Nd321 O348 2.487 . S
Nd321 O349 2.682 . S
Nd321 O350 2.410 . S
C322 Nd320 2.836 . S
C322 C323 1.498 . S
C322 O340 1.258 . S
C322 O341 1.239 . S
C323 C322 1.498 . S
C323 C324 1.366 . S
C323 C328 1.407 . S
C324 C323 1.366 . S
C324 C325 1.392 . S
C324 H352 0.930 . S
C325 C324 1.392 . S
C325 C326 1.398 . S
C325 H353 0.929 . S
C326 C325 1.398 . S
C326 C327 1.352 . S
C327 C326 1.352 . S
C327 C328 1.384 . S
C327 H354 0.930 . S
C328 C323 1.407 . S
C328 C327 1.384 . S
C328 H355 0.929 . S
C329 O342 1.241 . S
C329 O343 1.273 . S
C330 O344 1.251 . S
C330 O345 1.268 . S
C331 Nd321 2.836 . S
C331 C332 1.498 . S
C331 O346 1.258 . S
C331 O347 1.239 . S
C332 C331 1.498 . S
C332 C333 1.366 . S
C332 C337 1.407 . S
C333 C332 1.366 . S
C333 C334 1.392 . S
C333 H356 0.930 . S
C334 C333 1.392 . S
C334 C335 1.398 . S
C334 H357 0.929 . S
C335 C334 1.398 . S
C335 C336 1.352 . S
C336 C335 1.352 . S
C336 C337 1.384 . S
C336 H358 0.930 . S
C337 C332 1.407 . S
C337 C336 1.384 . S
C337 H359 0.929 . S
C338 O348 1.241 . S
C338 O349 1.273 . S
C339 O350 1.251 . S
C339 O351 1.268 . S
O340 Nd320 2.500 . S
O340 C322 1.258 . S
O341 Nd320 2.492 . S
O341 C322 1.239 . S
O342 Nd320 2.487 . S
O342 C329 1.241 . S
O343 Nd320 2.682 . S
O343 Nd321 2.414 . S
O343 C329 1.273 . S
O344 Nd320 2.410 . S
O344 C330 1.251 . S
O345 Nd321 2.424 . S
O345 C330 1.268 . S
O346 Nd321 2.500 . S
O346 C331 1.258 . S
O347 Nd321 2.492 . S
O347 C331 1.239 . S
O348 Nd321 2.487 . S
O348 C338 1.241 . S
O349 Nd320 2.414 . S
O349 Nd321 2.682 . S
O349 C338 1.273 . S
O350 Nd321 2.410 . S
O350 C339 1.251 . S
O351 Nd320 2.424 . S
O351 C339 1.268 . S
H352 C324 0.930 . S
H353 C325 0.929 . S
H354 C327 0.930 . S
H355 C328 0.929 . S
H356 C333 0.930 . S
H357 C334 0.929 . S
H358 C336 0.930 . S
H359 C337 0.929 . S
Nd360 C362 2.836 . S
Nd360 O380 2.500 . S
Nd360 O381 2.492 . S
Nd360 O382 2.487 . S
Nd360 O383 2.682 . S
Nd360 O384 2.410 . S
Nd360 O389 2.414 . S
Nd360 O391 2.424 . S
Nd361 C371 2.836 . S
Nd361 O383 2.414 . S
Nd361 O385 2.424 . S
Nd361 O386 2.500 . S
Nd361 O387 2.492 . S
Nd361 O388 2.487 1_545 S
Nd361 O389 2.682 . S
Nd361 O390 2.410 . S
C362 Nd360 2.836 . S
C362 C363 1.498 . S
C362 O380 1.258 . S
C362 O381 1.239 . S
C363 C362 1.498 . S
C363 C364 1.366 . S
C363 C368 1.407 . S
C364 C363 1.366 . S
C364 C365 1.392 . S
C364 H392 0.930 . S
C365 C364 1.392 . S
C365 C366 1.398 . S
C365 H393 0.929 . S
C366 C365 1.398 . S
C366 C367 1.352 . S
C367 C366 1.352 . S
C367 C368 1.384 . S
C367 H394 0.930 . S
C368 C363 1.407 . S
C368 C367 1.384 . S
C368 H395 0.929 . S
C369 O382 1.241 . S
C369 O383 1.273 . S
C370 O384 1.251 . S
C370 O385 1.268 . S
C371 Nd361 2.836 . S
C371 C372 1.498 . S
C371 O386 1.258 . S
C371 O387 1.239 . S
C372 C371 1.498 . S
C372 C373 1.366 . S
C372 C377 1.407 . S
C373 C372 1.366 . S
C373 C374 1.392 . S
C373 H396 0.930 . S
C374 C373 1.392 . S
C374 C375 1.398 . S
C374 H397 0.929 . S
C375 C374 1.398 . S
C375 C376 1.352 . S
C376 C375 1.352 . S
C376 C377 1.384 . S
C376 H398 0.930 1_545 S
C377 C372 1.407 . S
C377 C376 1.384 . S
C377 H399 0.929 1_545 S
C378 O388 1.241 . S
C378 O389 1.273 1_565 S
C379 O390 1.251 . S
C379 O391 1.268 . S
O380 Nd360 2.500 . S
O380 C362 1.258 . S
O381 Nd360 2.492 . S
O381 C362 1.239 . S
O382 Nd360 2.487 . S
O382 C369 1.241 . S
O383 Nd360 2.682 . S
O383 Nd361 2.414 . S
O383 C369 1.273 . S
O384 Nd360 2.410 . S
O384 C370 1.251 . S
O385 Nd361 2.424 . S
O385 C370 1.268 . S
O386 Nd361 2.500 . S
O386 C371 1.258 . S
O387 Nd361 2.492 . S
O387 C371 1.239 . S
O388 Nd361 2.487 1_565 S
O388 C378 1.241 . S
O389 Nd360 2.414 . S
O389 Nd361 2.682 . S
O389 C378 1.273 1_545 S
O390 Nd361 2.410 . S
O390 C379 1.251 . S
O391 Nd360 2.424 . S
O391 C379 1.268 . S
H392 C364 0.930 . S
H393 C365 0.929 . S
H394 C367 0.930 . S
H395 C368 0.929 . S
H396 C373 0.930 . S
H397 C374 0.929 . S
H398 C376 0.930 1_565 S
H399 C377 0.929 1_565 S
Nd400 C402 2.836 . S
Nd400 O420 2.500 . S
Nd400 O421 2.492 . S
Nd400 O422 2.487 . S
Nd400 O423 2.682 . S
Nd400 O424 2.410 . S
Nd400 O429 2.414 . S
Nd400 O431 2.424 . S
Nd401 C411 2.836 . S
Nd401 O423 2.414 . S
Nd401 O425 2.424 . S
Nd401 O426 2.500 . S
Nd401 O427 2.492 . S
Nd401 O428 2.487 . S
Nd401 O429 2.682 . S
Nd401 O430 2.410 . S
C402 Nd400 2.836 . S
C402 C403 1.498 . S
C402 O420 1.258 . S
C402 O421 1.239 . S
C403 C402 1.498 . S
C403 C404 1.366 . S
C403 C408 1.407 . S
C404 C403 1.366 . S
C404 C405 1.392 . S
C404 H432 0.930 . S
C405 C404 1.392 . S
C405 C406 1.398 . S
C405 H433 0.929 . S
C406 C405 1.398 . S
C406 C407 1.352 . S
C407 C406 1.352 . S
C407 C408 1.384 . S
C407 H434 0.930 . S
C408 C403 1.407 . S
C408 C407 1.384 . S
C408 H435 0.929 . S
C409 O422 1.241 . S
C409 O423 1.273 . S
C410 O424 1.251 . S
C410 O425 1.268 . S
C411 Nd401 2.836 . S
C411 C412 1.498 . S
C411 O426 1.258 . S
C411 O427 1.239 . S
C412 C411 1.498 . S
C412 C413 1.366 . S
C412 C417 1.407 . S
C413 C412 1.366 . S
C413 C414 1.392 1_554 S
C413 H436 0.930 . S
C414 C413 1.392 1_556 S
C414 C415 1.398 . S
C414 H437 0.929 . S
C415 C414 1.398 . S
C415 C416 1.352 . S
C416 C415 1.352 . S
C416 C417 1.384 1_556 S
C416 H438 0.930 . S
C417 C412 1.407 . S
C417 C416 1.384 1_554 S
C417 H439 0.929 . S
C418 O428 1.241 . S
C418 O429 1.273 . S
C419 O430 1.251 . S
C419 O431 1.268 . S
O420 Nd400 2.500 . S
O420 C402 1.258 . S
O421 Nd400 2.492 . S
O421 C402 1.239 . S
O422 Nd400 2.487 . S
O422 C409 1.241 . S
O423 Nd400 2.682 . S
O423 Nd401 2.414 . S
O423 C409 1.273 . S
O424 Nd400 2.410 . S
O424 C410 1.251 . S
O425 Nd401 2.424 . S
O425 C410 1.268 . S
O426 Nd401 2.500 . S
O426 C411 1.258 . S
O427 Nd401 2.492 . S
O427 C411 1.239 . S
O428 Nd401 2.487 . S
O428 C418 1.241 . S
O429 Nd400 2.414 . S
O429 Nd401 2.682 . S
O429 C418 1.273 . S
O430 Nd401 2.410 . S
O430 C419 1.251 . S
O431 Nd400 2.424 . S
O431 C419 1.268 . S
H432 C404 0.930 . S
H433 C405 0.929 . S
H434 C407 0.930 . S
H435 C408 0.929 . S
H436 C413 0.930 . S
H437 C414 0.929 . S
H438 C416 0.930 . S
H439 C417 0.929 . S
Nd440 C442 2.836 . S
Nd440 O460 2.500 . S
Nd440 O461 2.492 . S
Nd440 O462 2.487 1_565 S
Nd440 O463 2.682 1_565 S
Nd440 O464 2.410 . S
Nd440 O469 2.414 . S
Nd440 O471 2.424 . S
Nd441 C451 2.836 1_565 S
Nd441 O463 2.414 1_565 S
Nd441 O465 2.424 . S
Nd441 O466 2.500 1_565 S
Nd441 O467 2.492 . S
Nd441 O468 2.487 . S
Nd441 O469 2.682 . S
Nd441 O470 2.410 . S
C442 Nd440 2.836 . S
C442 C443 1.498 . S
C442 O460 1.258 . S
C442 O461 1.239 . S
C443 C442 1.498 . S
C443 C444 1.366 . S
C443 C448 1.407 . S
C444 C443 1.366 . S
C444 C445 1.392 . S
C444 H472 0.930 . S
C445 C444 1.392 . S
C445 C446 1.398 . S
C445 H473 0.929 . S
C446 C445 1.398 . S
C446 C447 1.352 . S
C447 C446 1.352 . S
C447 C448 1.384 . S
C447 H474 0.930 . S
C448 C443 1.407 . S
C448 C447 1.384 . S
C448 H475 0.929 . S
C449 O462 1.241 . S
C449 O463 1.273 . S
C450 O464 1.251 . S
C450 O465 1.268 . S
C451 Nd441 2.836 1_545 S
C451 C452 1.498 . S
C451 O466 1.258 . S
C451 O467 1.239 1_545 S
C452 C451 1.498 . S
C452 C453 1.366 . S
C452 C457 1.405 1_545 S
C453 C452 1.366 . S
C453 C454 1.392 . S
C453 H476 0.930 . S
C454 C453 1.392 . S
C454 C455 1.398 . S
C454 H477 0.929 . S
C455 C454 1.398 . S
C455 C456 1.352 . S
C456 C455 1.352 . S
C456 C457 1.380 1_545 S
C456 H478 0.929 . S
C457 C452 1.405 1_565 S
C457 C456 1.380 1_565 S
C457 H479 0.935 . S
C458 O468 1.241 . S
C458 O469 1.273 . S
C459 O470 1.251 . S
C459 O471 1.268 . S
O460 Nd440 2.500 . S
O460 C442 1.258 . S
O461 Nd440 2.492 . S
O461 C442 1.239 . S
O462 Nd440 2.487 1_545 S
O462 C449 1.241 . S
O463 Nd440 2.682 1_545 S
O463 Nd441 2.414 1_545 S
O463 C449 1.273 . S
O464 Nd440 2.410 . S
O464 C450 1.251 . S
O465 Nd441 2.424 . S
O465 C450 1.268 . S
O466 Nd441 2.500 1_545 S
O466 C451 1.258 . S
O467 Nd441 2.492 . S
O467 C451 1.239 1_565 S
O468 Nd441 2.487 . S
O468 C458 1.241 . S
O469 Nd440 2.414 . S
O469 Nd441 2.682 . S
O469 C458 1.273 . S
O470 Nd441 2.410 . S
O470 C459 1.251 . S
O471 Nd440 2.424 . S
O471 C459 1.268 . S
H472 C444 0.930 . S
H473 C445 0.929 . S
H474 C447 0.930 . S
H475 C448 0.929 . S
H476 C453 0.930 . S
H477 C454 0.929 . S
H478 C456 0.929 . S
H479 C457 0.935 . S
Nd480 C482 2.836 . S
Nd480 O500 2.500 . S
Nd480 O501 2.492 . S
Nd480 O502 2.487 . S
Nd480 O503 2.682 . S
Nd480 O504 2.410 . S
Nd480 O509 2.414 . S
Nd480 O511 2.424 . S
Nd481 C491 2.836 . S
Nd481 O503 2.414 . S
Nd481 O505 2.424 . S
Nd481 O506 2.500 . S
Nd481 O507 2.492 . S
Nd481 O508 2.487 . S
Nd481 O509 2.682 . S
Nd481 O510 2.410 . S
C482 Nd480 2.836 . S
C482 C483 1.498 . S
C482 O500 1.258 . S
C482 O501 1.239 . S
C483 C482 1.498 . S
C483 C484 1.366 . S
C483 C488 1.407 . S
C484 C483 1.366 . S
C484 C485 1.392 . S
C484 H512 0.930 . S
C485 C484 1.392 . S
C485 C486 1.398 . S
C485 H513 0.929 . S
C486 C485 1.398 . S
C486 C487 1.352 . S
C487 C486 1.352 . S
C487 C488 1.384 . S
C487 H514 0.930 . S
C488 C483 1.407 . S
C488 C487 1.384 . S
C488 H515 0.929 . S
C489 O502 1.241 . S
C489 O503 1.273 . S
C490 O504 1.251 . S
C490 O505 1.268 . S
C491 Nd481 2.836 . S
C491 C492 1.498 . S
C491 O506 1.258 . S
C491 O507 1.239 . S
C492 C491 1.498 . S
C492 C493 1.366 . S
C492 C497 1.407 . S
C493 C492 1.366 . S
C493 C494 1.392 . S
C493 H516 0.930 . S
C494 C493 1.392 . S
C494 C495 1.398 . S
C494 H517 0.929 . S
C495 C494 1.398 . S
C495 C496 1.352 . S
C496 C495 1.352 . S
C496 C497 1.384 . S
C496 H518 0.930 . S
C497 C492 1.407 . S
C497 C496 1.384 . S
C497 H519 0.929 . S
C498 O508 1.241 . S
C498 O509 1.273 . S
C499 O510 1.251 . S
C499 O511 1.268 . S
O500 Nd480 2.500 . S
O500 C482 1.258 . S
O501 Nd480 2.492 . S
O501 C482 1.239 . S
O502 Nd480 2.487 . S
O502 C489 1.241 . S
O503 Nd480 2.682 . S
O503 Nd481 2.414 . S
O503 C489 1.273 . S
O504 Nd480 2.410 . S
O504 C490 1.251 . S
O505 Nd481 2.424 . S
O505 C490 1.268 . S
O506 Nd481 2.500 . S
O506 C491 1.258 . S
O507 Nd481 2.492 . S
O507 C491 1.239 . S
O508 Nd481 2.487 . S
O508 C498 1.241 . S
O509 Nd480 2.414 . S
O509 Nd481 2.682 . S
O509 C498 1.273 . S
O510 Nd481 2.410 . S
O510 C499 1.251 . S
O511 Nd480 2.424 . S
O511 C499 1.268 . S
H512 C484 0.930 . S
H513 C485 0.929 . S
H514 C487 0.930 . S
H515 C488 0.929 . S
H516 C493 0.930 . S
H517 C494 0.929 . S
H518 C496 0.930 . S
H519 C497 0.929 . S
Nd520 C522 2.836 . S
Nd520 O540 2.500 . S
Nd520 O541 2.492 . S
Nd520 O542 2.487 1_565 S
Nd520 O543 2.682 . S
Nd520 O544 2.410 . S
Nd520 O549 2.414 . S
Nd520 O551 2.424 . S
Nd521 C531 2.836 . S
Nd521 O543 2.414 . S
Nd521 O545 2.424 . S
Nd521 O546 2.500 . S
Nd521 O547 2.492 . S
Nd521 O548 2.487 . S
Nd521 O549 2.682 . S
Nd521 O550 2.410 . S
C522 Nd520 2.836 . S
C522 C523 1.498 . S
C522 O540 1.258 . S
C522 O541 1.239 . S
C523 C522 1.498 . S
C523 C524 1.366 . S
C523 C528 1.407 . S
C524 C523 1.366 . S
C524 C525 1.392 . S
C524 H552 0.930 . S
C525 C524 1.392 . S
C525 C526 1.398 . S
C525 H553 0.929 . S
C526 C525 1.398 . S
C526 C527 1.352 . S
C527 C526 1.352 . S
C527 C528 1.384 . S
C527 H554 0.930 1_565 S
C528 C523 1.407 . S
C528 C527 1.384 . S
C528 H555 0.929 1_565 S
C529 O542 1.241 . S
C529 O543 1.273 1_545 S
C530 O544 1.251 . S
C530 O545 1.268 . S
C531 Nd521 2.836 . S
C531 C532 1.498 . S
C531 O546 1.258 . S
C531 O547 1.239 . S
C532 C531 1.498 . S
C532 C533 1.366 . S
C532 C537 1.407 . S
C533 C532 1.366 . S
C533 C534 1.392 . S
C533 H556 0.930 . S
C534 C533 1.392 . S
C534 C535 1.398 . S
C534 H557 0.929 . S
C535 C534 1.398 . S
C535 C536 1.352 . S
C536 C535 1.352 . S
C536 C537 1.384 . S
C536 H558 0.930 . S
C537 C532 1.407 . S
C537 C536 1.384 . S
C537 H559 0.929 . S
C538 O548 1.241 . S
C538 O549 1.273 . S
C539 O550 1.251 . S
C539 O551 1.268 . S
O540 Nd520 2.500 . S
O540 C522 1.258 . S
O541 Nd520 2.492 . S
O541 C522 1.239 . S
O542 Nd520 2.487 1_545 S
O542 C529 1.241 . S
O543 Nd520 2.682 . S
O543 Nd521 2.414 . S
O543 C529 1.273 1_565 S
O544 Nd520 2.410 . S
O544 C530 1.251 . S
O545 Nd521 2.424 . S
O545 C530 1.268 . S
O546 Nd521 2.500 . S
O546 C531 1.258 . S
O547 Nd521 2.492 . S
O547 C531 1.239 . S
O548 Nd521 2.487 . S
O548 C538 1.241 . S
O549 Nd520 2.414 . S
O549 Nd521 2.682 . S
O549 C538 1.273 . S
O550 Nd521 2.410 . S
O550 C539 1.251 . S
O551 Nd520 2.424 . S
O551 C539 1.268 . S
H552 C524 0.930 . S
H553 C525 0.929 . S
H554 C527 0.930 1_545 S
H555 C528 0.929 1_545 S
H556 C533 0.930 . S
H557 C534 0.929 . S
H558 C536 0.930 . S
H559 C537 0.929 . S
Nd560 C562 2.836 . S
Nd560 O580 2.500 . S
Nd560 O581 2.492 . S
Nd560 O582 2.487 . S
Nd560 O583 2.682 . S
Nd560 O584 2.410 . S
Nd560 O589 2.414 . S
Nd560 O591 2.424 . S
Nd561 C571 2.836 . S
Nd561 O583 2.414 . S
Nd561 O585 2.424 . S
Nd561 O586 2.500 . S
Nd561 O587 2.492 . S
Nd561 O588 2.487 . S
Nd561 O589 2.682 . S
Nd561 O590 2.410 . S
C562 Nd560 2.836 . S
C562 C563 1.498 . S
C562 O580 1.258 . S
C562 O581 1.239 . S
C563 C562 1.498 . S
C563 C564 1.366 . S
C563 C568 1.407 . S
C564 C563 1.366 . S
C564 C565 1.392 1_556 S
C564 H592 0.930 . S
C565 C564 1.392 1_554 S
C565 C566 1.398 . S
C565 H593 0.929 . S
C566 C565 1.398 . S
C566 C567 1.352 . S
C567 C566 1.352 . S
C567 C568 1.384 1_554 S
C567 H594 0.930 . S
C568 C563 1.407 . S
C568 C567 1.384 1_556 S
C568 H595 0.929 . S
C569 O582 1.241 . S
C569 O583 1.273 . S
C570 O584 1.251 . S
C570 O585 1.268 . S
C571 Nd561 2.836 . S
C571 C572 1.498 . S
C571 O586 1.258 . S
C571 O587 1.239 . S
C572 C571 1.498 . S
C572 C573 1.366 . S
C572 C577 1.407 . S
C573 C572 1.366 . S
C573 C574 1.392 . S
C573 H596 0.930 . S
C574 C573 1.392 . S
C574 C575 1.398 . S
C574 H597 0.929 . S
C575 C574 1.398 . S
C575 C576 1.352 . S
C576 C575 1.352 . S
C576 C577 1.384 . S
C576 H598 0.930 . S
C577 C572 1.407 . S
C577 C576 1.384 . S
C577 H599 0.929 . S
C578 O588 1.241 . S
C578 O589 1.273 . S
C579 O590 1.251 . S
C579 O591 1.268 . S
O580 Nd560 2.500 . S
O580 C562 1.258 . S
O581 Nd560 2.492 . S
O581 C562 1.239 . S
O582 Nd560 2.487 . S
O582 C569 1.241 . S
O583 Nd560 2.682 . S
O583 Nd561 2.414 . S
O583 C569 1.273 . S
O584 Nd560 2.410 . S
O584 C570 1.251 . S
O585 Nd561 2.424 . S
O585 C570 1.268 . S
O586 Nd561 2.500 . S
O586 C571 1.258 . S
O587 Nd561 2.492 . S
O587 C571 1.239 . S
O588 Nd561 2.487 . S
O588 C578 1.241 . S
O589 Nd560 2.414 . S
O589 Nd561 2.682 . S
O589 C578 1.273 . S
O590 Nd561 2.410 . S
O590 C579 1.251 . S
O591 Nd560 2.424 . S
O591 C579 1.268 . S
H592 C564 0.930 . S
H593 C565 0.929 . S
H594 C567 0.930 . S
H595 C568 0.929 . S
H596 C573 0.930 . S
H597 C574 0.929 . S
H598 C576 0.930 . S
H599 C577 0.929 . S
Nd600 C602 2.836 1_545 S
Nd600 O620 2.500 1_545 S
Nd600 O621 2.492 . S
Nd600 O622 2.487 . S
Nd600 O623 2.682 . S
Nd600 O624 2.410 . S
Nd600 O629 2.414 1_545 S
Nd600 O631 2.424 . S
Nd601 C611 2.836 . S
Nd601 O623 2.414 . S
Nd601 O625 2.424 . S
Nd601 O626 2.500 . S
Nd601 O627 2.492 . S
Nd601 O628 2.487 1_545 S
Nd601 O629 2.682 1_545 S
Nd601 O630 2.410 . S
C602 Nd600 2.836 1_565 S
C602 C603 1.498 . S
C602 O620 1.258 . S
C602 O621 1.239 1_565 S
C603 C602 1.498 . S
C603 C604 1.366 . S
C603 C608 1.405 1_565 S
C604 C603 1.366 . S
C604 C605 1.392 . S
C604 H632 0.930 . S
C605 C604 1.392 . S
C605 C606 1.398 . S
C605 H633 0.929 . S
C606 C605 1.398 . S
C606 C607 1.352 . S
C607 C606 1.352 . S
C607 C608 1.380 1_565 S
C607 H634 0.929 . S
C608 C603 1.405 1_545 S
C608 C607 1.380 1_545 S
C608 H635 0.935 . S
C609 O622 1.241 . S
C609 O623 1.273 . S
C610 O624 1.251 . S
C610 O625 1.268 . S
C611 Nd601 2.836 . S
C611 C612 1.498 . S
C611 O626 1.258 . S
C611 O627 1.239 . S
C612 C611 1.498 . S
C612 C613 1.366 . S
C612 C617 1.407 . S
C613 C612 1.366 . S
C613 C614 1.392 . S
C613 H636 0.930 . S
C614 C613 1.392 . S
C614 C615 1.398 . S
C614 H637 0.929 . S
C615 C614 1.398 . S
C615 C616 1.352 . S
C616 C615 1.352 . S
C616 C617 1.384 . S
C616 H638 0.930 . S
C617 C612 1.407 . S
C617 C616 1.384 . S
C617 H639 0.929 . S
C618 O628 1.241 . S
C618 O629 1.273 . S
C619 O630 1.251 . S
C619 O631 1.268 . S
O620 Nd600 2.500 1_565 S
O620 C602 1.258 . S
O621 Nd600 2.492 . S
O621 C602 1.239 1_545 S
O622 Nd600 2.487 . S
O622 C609 1.241 . S
O623 Nd600 2.682 . S
O623 Nd601 2.414 . S
O623 C609 1.273 . S
O624 Nd600 2.410 . S
O624 C610 1.251 . S
O625 Nd601 2.424 . S
O625 C610 1.268 . S
O626 Nd601 2.500 . S
O626 C611 1.258 . S
O627 Nd601 2.492 . S
O627 C611 1.239 . S
O628 Nd601 2.487 1_565 S
O628 C618 1.241 . S
O629 Nd600 2.414 1_565 S
O629 Nd601 2.682 1_565 S
O629 C618 1.273 . S
O630 Nd601 2.410 . S
O630 C619 1.251 . S
O631 Nd600 2.424 . S
O631 C619 1.268 . S
H632 C604 0.930 . S
H633 C605 0.929 . S
H634 C607 0.929 . S
H635 C608 0.935 . S
H636 C613 0.930 . S
H637 C614 0.929 . S
H638 C616 0.930 . S
H639 C617 0.929 . S
H640 C658 0.951 . S
H641 C660 0.951 . S
H642 C662 0.950 . S
H643 C663 0.950 . S
H644 C665 0.950 . S
H645 C668 0.950 . S
H646 C669 0.950 . S
H647 C671 0.950 . S
H648 C672 0.950 . S
H649 C673 0.951 . S
H650 C675 0.951 . S
H651 C677 0.950 . S
H652 C678 0.950 . S
H653 C680 0.950 . S
H654 C683 0.950 . S
H655 C684 0.950 . S
H656 C686 0.950 . S
H657 C687 0.950 . S
C658 H640 0.951 . S
C658 C659 1.366 . S
C658 C660 1.388 . S
C659 C658 1.366 . S
C659 C663 1.385 . S
C660 H641 0.951 . S
C660 C658 1.388 . S
C660 C661 1.366 . S
C661 C660 1.366 . S
C661 C662 1.414 . S
C661 C664 1.499 . S
C662 H642 0.950 . S
C662 C661 1.414 . S
C662 C663 1.374 . S
C663 H643 0.950 . S
C663 C659 1.385 . S
C663 C662 1.374 . S
C664 C661 1.499 . S
C664 C665 1.373 . S
C664 C666 1.389 . S
C665 H644 0.950 . S
C665 C664 1.373 . S
C665 C681 1.377 . S
C666 C664 1.389 . S
C666 C667 1.524 . S
C666 C680 1.377 . S
C667 C666 1.524 . S
C667 C668 1.397 . S
C667 C672 1.363 . S
C668 H645 0.950 . S
C668 C667 1.397 . S
C668 C669 1.334 . S
C669 H646 0.950 . S
C669 C668 1.334 . S
C669 C670 1.287 . S
C670 C669 1.287 . S
C670 C671 1.524 . S
C670 H689 0.913 . S
C671 H647 0.950 . S
C671 C670 1.524 . S
C671 C672 1.415 . S
C672 H648 0.950 . S
C672 C667 1.363 . S
C672 C671 1.415 . S
C673 H649 0.951 . S
C673 C674 1.366 . S
C673 C675 1.388 . S
C674 C673 1.366 . S
C674 C678 1.385 . S
C675 H650 0.951 . S
C675 C673 1.388 . S
C675 C676 1.366 . S
C676 C675 1.366 . S
C676 C677 1.414 . S
C676 C679 1.499 . S
C677 H651 0.950 . S
C677 C676 1.414 . S
C677 C678 1.374 . S
C678 H652 0.950 . S
C678 C674 1.385 . S
C678 C677 1.374 . S
C679 C676 1.499 . S
C679 C680 1.373 . S
C679 C681 1.389 . S
C680 H653 0.950 . S
C680 C666 1.377 . S
C680 C679 1.373 . S
C681 C665 1.377 . S
C681 C679 1.389 . S
C681 C682 1.524 . S
C682 C681 1.524 . S
C682 C683 1.397 . S
C682 C687 1.363 . S
C683 H654 0.950 . S
C683 C682 1.397 . S
C683 C684 1.334 . S
C684 H655 0.950 . S
C684 C683 1.334 . S
C684 C685 1.287 . S
C685 C684 1.287 . S
C685 C686 1.524 . S
C685 H688 0.999 . S
C686 H656 0.950 . S
C686 C685 1.524 . S
C686 C687 1.415 . S
C687 H657 0.950 . S
C687 C682 1.363 . S
C687 C686 1.415 . S
H688 C685 0.999 . S
H689 C670 0.913 . S
H690 C708 0.951 . S
H691 C710 0.951 . S
H692 C712 0.950 . S
H693 C713 0.950 . S
H694 C715 0.950 . S
H695 C718 0.950 . S
H696 C719 0.950 . S
H697 C721 0.950 . S
H698 C722 0.950 . S
H699 C723 0.951 . S
H700 C725 0.951 . S
H701 C727 0.950 . S
H702 C728 0.950 . S
H703 C730 0.950 . S
H704 C733 0.950 . S
H705 C734 0.950 . S
H706 C736 0.950 . S
H707 C737 0.950 . S
C708 H690 0.951 . S
C708 C709 1.366 . S
C708 C710 1.388 . S
C709 C708 1.366 . S
C709 C713 1.385 . S
C710 H691 0.951 . S
C710 C708 1.388 . S
C710 C711 1.366 . S
C711 C710 1.366 . S
C711 C712 1.414 . S
C711 C714 1.499 . S
C712 H692 0.950 . S
C712 C711 1.414 . S
C712 C713 1.374 . S
C713 H693 0.950 . S
C713 C709 1.385 . S
C713 C712 1.374 . S
C714 C711 1.499 . S
C714 C715 1.373 . S
C714 C716 1.389 . S
C715 H694 0.950 . S
C715 C714 1.373 . S
C715 C731 1.377 . S
C716 C714 1.389 . S
C716 C717 1.524 . S
C716 C730 1.377 . S
C717 C716 1.524 . S
C717 C718 1.397 . S
C717 C722 1.363 . S
C718 H695 0.950 . S
C718 C717 1.397 . S
C718 C719 1.334 . S
C719 H696 0.950 . S
C719 C718 1.334 . S
C719 C720 1.287 . S
C720 C719 1.287 . S
C720 C721 1.524 . S
C720 H739 0.913 . S
C721 H697 0.950 . S
C721 C720 1.524 . S
C721 C722 1.415 . S
C722 H698 0.950 . S
C722 C717 1.363 . S
C722 C721 1.415 . S
C723 H699 0.951 . S
C723 C724 1.366 . S
C723 C725 1.388 . S
C724 C723 1.366 . S
C724 C728 1.385 . S
C725 H700 0.951 . S
C725 C723 1.388 . S
C725 C726 1.366 . S
C726 C725 1.366 . S
C726 C727 1.414 . S
C726 C729 1.499 . S
C727 H701 0.950 . S
C727 C726 1.414 . S
C727 C728 1.374 . S
C728 H702 0.950 . S
C728 C724 1.385 . S
C728 C727 1.374 . S
C729 C726 1.499 . S
C729 C730 1.373 . S
C729 C731 1.389 . S
C730 H703 0.950 . S
C730 C716 1.377 . S
C730 C729 1.373 . S
C731 C715 1.377 . S
C731 C729 1.389 . S
C731 C732 1.524 . S
C732 C731 1.524 . S
C732 C733 1.397 . S
C732 C737 1.363 . S
C733 H704 0.950 . S
C733 C732 1.397 . S
C733 C734 1.334 . S
C734 H705 0.950 . S
C734 C733 1.334 . S
C734 C735 1.287 . S
C735 C734 1.287 . S
C735 C736 1.524 . S
C735 H738 0.999 . S
C736 H706 0.950 . S
C736 C735 1.524 . S
C736 C737 1.415 . S
C737 H707 0.950 . S
C737 C732 1.363 . S
C737 C736 1.415 . S
H738 C735 0.999 . S
H739 C720 0.913 . S
H740 C758 0.951 . S
H741 C760 0.951 . S
H742 C762 0.950 . S
H743 C763 0.950 . S
H744 C765 0.950 . S
H745 C768 0.950 . S
H746 C769 0.950 . S
H747 C771 0.950 . S
H748 C772 0.950 . S
H749 C773 0.951 . S
H750 C775 0.951 . S
H751 C777 0.950 . S
H752 C778 0.950 . S
H753 C780 0.950 . S
H754 C783 0.950 . S
H755 C784 0.950 . S
H756 C786 0.950 . S
H757 C787 0.950 . S
C758 H740 0.951 . S
C758 C759 1.366 . S
C758 C760 1.388 . S
C759 C758 1.366 . S
C759 C763 1.385 . S
C760 H741 0.951 . S
C760 C758 1.388 . S
C760 C761 1.366 . S
C761 C760 1.366 . S
C761 C762 1.414 . S
C761 C764 1.499 . S
C762 H742 0.950 . S
C762 C761 1.414 . S
C762 C763 1.374 . S
C763 H743 0.950 . S
C763 C759 1.385 . S
C763 C762 1.374 . S
C764 C761 1.499 . S
C764 C765 1.373 1_455 S
C764 C766 1.389 . S
C765 H744 0.950 . S
C765 C764 1.373 1_655 S
C765 C781 1.377 . S
C766 C764 1.389 . S
C766 C767 1.524 . S
C766 C780 1.377 . S
C767 C766 1.524 . S
C767 C768 1.397 . S
C767 C772 1.363 . S
C768 H745 0.950 . S
C768 C767 1.397 . S
C768 C769 1.334 . S
C769 H746 0.950 . S
C769 C768 1.334 . S
C769 C770 1.287 . S
C770 C769 1.287 . S
C770 C771 1.524 . S
C770 H789 0.913 . S
C771 H747 0.950 . S
C771 C770 1.524 . S
C771 C772 1.415 . S
C772 H748 0.950 . S
C772 C767 1.363 . S
C772 C771 1.415 . S
C773 H749 0.951 . S
C773 C774 1.366 . S
C773 C775 1.388 . S
C774 C773 1.366 . S
C774 C778 1.385 . S
C775 H750 0.951 . S
C775 C773 1.388 . S
C775 C776 1.366 . S
C776 C775 1.366 . S
C776 C777 1.414 . S
C776 C779 1.499 . S
C777 H751 0.950 . S
C777 C776 1.414 . S
C777 C778 1.374 . S
C778 H752 0.950 . S
C778 C774 1.385 . S
C778 C777 1.374 . S
C779 C776 1.499 . S
C779 C780 1.373 1_655 S
C779 C781 1.389 . S
C780 H753 0.950 . S
C780 C766 1.377 . S
C780 C779 1.373 1_455 S
C781 C765 1.377 . S
C781 C779 1.389 . S
C781 C782 1.524 . S
C782 C781 1.524 . S
C782 C783 1.397 . S
C782 C787 1.363 . S
C783 H754 0.950 . S
C783 C782 1.397 . S
C783 C784 1.334 . S
C784 H755 0.950 . S
C784 C783 1.334 . S
C784 C785 1.287 . S
C785 C784 1.287 . S
C785 C786 1.524 . S
C785 H788 0.999 . S
C786 H756 0.950 . S
C786 C785 1.524 . S
C786 C787 1.415 . S
C787 H757 0.950 . S
C787 C782 1.363 . S
C787 C786 1.415 . S
H788 C785 0.999 . S
H789 C770 0.913 . S
H790 C808 0.951 . S
H791 C810 0.951 . S
H792 C812 0.950 . S
H793 C813 0.950 . S
H794 C815 0.950 . S
H795 C818 0.950 . S
H796 C819 0.950 . S
H797 C821 0.950 . S
H798 C822 0.950 . S
H799 C823 0.951 . S
H800 C825 0.951 1_455 S
H801 C827 0.950 . S
H802 C828 0.950 . S
H803 C830 0.950 . S
H804 C833 0.950 . S
H805 C834 0.950 . S
H806 C836 0.950 . S
H807 C837 0.950 . S
C808 H790 0.951 . S
C808 C809 1.366 . S
C808 C810 1.388 . S
C809 C808 1.366 . S
C809 C813 1.385 . S
C810 H791 0.951 . S
C810 C808 1.388 . S
C810 C811 1.366 . S
C811 C810 1.366 . S
C811 C812 1.414 . S
C811 C814 1.499 . S
C812 H792 0.950 . S
C812 C811 1.414 . S
C812 C813 1.374 . S
C813 H793 0.950 . S
C813 C809 1.385 . S
C813 C812 1.374 . S
C814 C811 1.499 . S
C814 C815 1.373 . S
C814 C816 1.389 . S
C815 H794 0.950 . S
C815 C814 1.373 . S
C815 C831 1.377 . S
C816 C814 1.389 . S
C816 C817 1.524 . S
C816 C830 1.377 1_455 S
C817 C816 1.524 . S
C817 C818 1.397 . S
C817 C822 1.363 1_455 S
C818 H795 0.950 . S
C818 C817 1.397 . S
C818 C819 1.334 . S
C819 H796 0.950 . S
C819 C818 1.334 . S
C819 C820 1.287 . S
C820 C819 1.287 . S
C820 C821 1.524 1_455 S
C820 H839 0.913 . S
C821 H797 0.950 . S
C821 C820 1.524 1_655 S
C821 C822 1.415 . S
C822 H798 0.950 . S
C822 C817 1.363 1_655 S
C822 C821 1.415 . S
C823 H799 0.951 . S
C823 C824 1.366 . S
C823 C825 1.388 . S
C824 C823 1.366 . S
C824 C828 1.385 . S
C825 H800 0.951 1_655 S
C825 C823 1.388 . S
C825 C826 1.366 . S
C826 C825 1.366 . S
C826 C827 1.414 . S
C826 C829 1.499 . S
C827 H801 0.950 . S
C827 C826 1.414 . S
C827 C828 1.374 . S
C828 H802 0.950 . S
C828 C824 1.385 . S
C828 C827 1.374 . S
C829 C826 1.499 . S
C829 C830 1.373 . S
C829 C831 1.389 1_655 S
C830 H803 0.950 . S
C830 C816 1.377 1_655 S
C830 C829 1.373 . S
C831 C815 1.377 . S
C831 C829 1.389 1_455 S
C831 C832 1.524 . S
C832 C831 1.524 . S
C832 C833 1.397 1_455 S
C832 C837 1.363 . S
C833 H804 0.950 . S
C833 C832 1.397 1_655 S
C833 C834 1.334 . S
C834 H805 0.950 . S
C834 C833 1.334 . S
C834 C835 1.287 . S
C835 C834 1.287 . S
C835 C836 1.524 1_655 S
C835 H838 0.999 . S
C836 H806 0.950 . S
C836 C835 1.524 1_455 S
C836 C837 1.415 . S
C837 H807 0.950 . S
C837 C832 1.363 . S
C837 C836 1.415 . S
H838 C835 0.999 . S
H839 C820 0.913 . S
H840 C858 0.951 . S
H841 C860 0.951 . S
H842 C862 0.950 . S
H843 C863 0.950 . S
H844 C865 0.950 . S
H845 C868 0.950 . S
H846 C869 0.950 . S
H847 C871 0.950 . S
H848 C872 0.950 . S
H849 C873 0.951 . S
H850 C875 0.951 . S
H851 C877 0.950 . S
H852 C878 0.950 . S
H853 C880 0.950 . S
H854 C883 0.950 . S
H855 C884 0.950 . S
H856 C886 0.950 . S
H857 C887 0.950 . S
C858 H840 0.951 . S
C858 C859 1.366 . S
C858 C860 1.388 . S
C859 C858 1.366 . S
C859 C863 1.385 . S
C860 H841 0.951 . S
C860 C858 1.388 . S
C860 C861 1.366 . S
C861 C860 1.366 . S
C861 C862 1.414 . S
C861 C864 1.499 . S
C862 H842 0.950 . S
C862 C861 1.414 . S
C862 C863 1.374 . S
C863 H843 0.950 . S
C863 C859 1.385 . S
C863 C862 1.374 . S
C864 C861 1.499 . S
C864 C865 1.373 . S
C864 C866 1.389 . S
C865 H844 0.950 . S
C865 C864 1.373 . S
C865 C881 1.377 . S
C866 C864 1.389 . S
C866 C867 1.524 . S
C866 C880 1.377 . S
C867 C866 1.524 . S
C867 C868 1.397 . S
C867 C872 1.363 . S
C868 H845 0.950 . S
C868 C867 1.397 . S
C868 C869 1.334 . S
C869 H846 0.950 . S
C869 C868 1.334 . S
C869 C870 1.287 . S
C870 C869 1.287 . S
C870 C871 1.524 . S
C870 H889 0.913 . S
C871 H847 0.950 . S
C871 C870 1.524 . S
C871 C872 1.415 . S
C872 H848 0.950 . S
C872 C867 1.363 . S
C872 C871 1.415 . S
C873 H849 0.951 . S
C873 C874 1.366 . S
C873 C875 1.388 . S
C874 C873 1.366 . S
C874 C878 1.385 . S
C875 H850 0.951 . S
C875 C873 1.388 . S
C875 C876 1.366 . S
C876 C875 1.366 . S
C876 C877 1.414 . S
C876 C879 1.499 . S
C877 H851 0.950 . S
C877 C876 1.414 . S
C877 C878 1.374 . S
C878 H852 0.950 . S
C878 C874 1.385 . S
C878 C877 1.374 . S
C879 C876 1.499 . S
C879 C880 1.373 . S
C879 C881 1.389 . S
C880 H853 0.950 . S
C880 C866 1.377 . S
C880 C879 1.373 . S
C881 C865 1.377 . S
C881 C879 1.389 . S
C881 C882 1.524 . S
C882 C881 1.524 . S
C882 C883 1.397 . S
C882 C887 1.363 . S
C883 H854 0.950 . S
C883 C882 1.397 . S
C883 C884 1.334 . S
C884 H855 0.950 . S
C884 C883 1.334 . S
C884 C885 1.287 . S
C885 C884 1.287 . S
C885 C886 1.524 . S
C885 H888 0.999 . S
C886 H856 0.950 . S
C886 C885 1.524 . S
C886 C887 1.415 . S
C887 H857 0.950 . S
C887 C882 1.363 . S
C887 C886 1.415 . S
H888 C885 0.999 . S
H889 C870 0.913 . S
H890 C908 0.951 . S
H891 C910 0.951 . S
H892 C912 0.950 . S
H893 C913 0.950 . S
H894 C915 0.950 . S
H895 C918 0.950 . S
H896 C919 0.950 . S
H897 C921 0.950 . S
H898 C922 0.950 . S
H899 C923 0.951 . S
H900 C925 0.951 . S
H901 C927 0.950 . S
H902 C928 0.950 . S
H903 C930 0.950 . S
H904 C933 0.950 . S
H905 C934 0.950 . S
H906 C936 0.950 . S
H907 C937 0.950 . S
C908 H890 0.951 . S
C908 C909 1.366 . S
C908 C910 1.388 . S
C909 C908 1.366 . S
C909 C913 1.385 . S
C910 H891 0.951 . S
C910 C908 1.388 . S
C910 C911 1.366 . S
C911 C910 1.366 . S
C911 C912 1.414 . S
C911 C914 1.499 . S
C912 H892 0.950 . S
C912 C911 1.414 . S
C912 C913 1.374 . S
C913 H893 0.950 . S
C913 C909 1.385 . S
C913 C912 1.374 . S
C914 C911 1.499 . S
C914 C915 1.373 . S
C914 C916 1.389 . S
C915 H894 0.950 . S
C915 C914 1.373 . S
C915 C931 1.377 . S
C916 C914 1.389 . S
C916 C917 1.524 . S
C916 C930 1.377 . S
C917 C916 1.524 . S
C917 C918 1.397 . S
C917 C922 1.363 . S
C918 H895 0.950 . S
C918 C917 1.397 . S
C918 C919 1.334 . S
C919 H896 0.950 . S
C919 C918 1.334 . S
C919 C920 1.287 . S
C920 C919 1.287 . S
C920 C921 1.524 . S
C920 H939 0.913 . S
C921 H897 0.950 . S
C921 C920 1.524 . S
C921 C922 1.415 . S
C922 H898 0.950 . S
C922 C917 1.363 . S
C922 C921 1.415 . S
C923 H899 0.951 . S
C923 C924 1.366 . S
C923 C925 1.388 . S
C924 C923 1.366 . S
C924 C928 1.385 . S
C925 H900 0.951 . S
C925 C923 1.388 . S
C925 C926 1.366 . S
C926 C925 1.366 . S
C926 C927 1.414 . S
C926 C929 1.499 . S
C927 H901 0.950 . S
C927 C926 1.414 . S
C927 C928 1.374 . S
C928 H902 0.950 . S
C928 C924 1.385 . S
C928 C927 1.374 . S
C929 C926 1.499 . S
C929 C930 1.373 . S
C929 C931 1.389 . S
C930 H903 0.950 . S
C930 C916 1.377 . S
C930 C929 1.373 . S
C931 C915 1.377 . S
C931 C929 1.389 . S
C931 C932 1.524 . S
C932 C931 1.524 . S
C932 C933 1.397 . S
C932 C937 1.363 . S
C933 H904 0.950 . S
C933 C932 1.397 . S
C933 C934 1.334 . S
C934 H905 0.950 . S
C934 C933 1.334 . S
C934 C935 1.287 . S
C935 C934 1.287 . S
C935 C936 1.524 . S
C935 H938 0.999 . S
C936 H906 0.950 . S
C936 C935 1.524 . S
C936 C937 1.415 . S
C937 H907 0.950 . S
C937 C932 1.363 . S
C937 C936 1.415 . S
H938 C935 0.999 . S
H939 C920 0.913 . S
H940 C958 0.951 . S
H941 C960 0.951 . S
H942 C962 0.950 . S
H943 C963 0.950 . S
H944 C965 0.947 . S
H945 C968 0.950 . S
H946 C969 0.950 . S
H947 C971 0.950 . S
H948 C972 0.950 . S
H949 C973 0.951 . S
H950 C975 0.951 . S
H951 C977 0.950 . S
H952 C978 0.950 . S
H953 C980 0.950 . S
H954 C983 0.950 . S
H955 C984 0.950 . S
H956 C986 0.950 . S
H957 C987 0.950 . S
C958 H940 0.951 . S
C958 C959 1.366 . S
C958 C960 1.388 . S
C959 C958 1.366 . S
C959 C963 1.385 . S
C960 H941 0.951 . S
C960 C958 1.388 . S
C960 C961 1.366 . S
C961 C960 1.366 . S
C961 C962 1.414 . S
C961 C964 1.499 . S
C962 H942 0.950 . S
C962 C961 1.414 . S
C962 C963 1.374 . S
C963 H943 0.950 . S
C963 C959 1.385 . S
C963 C962 1.374 . S
C964 C961 1.499 . S
C964 C965 1.354 1_455 S
C964 C966 1.389 . S
C965 H944 0.947 . S
C965 C964 1.354 1_655 S
C965 C981 1.400 . S
C966 C964 1.389 . S
C966 C967 1.524 . S
C966 C980 1.377 . S
C967 C966 1.524 . S
C967 C968 1.397 . S
C967 C972 1.363 . S
C968 H945 0.950 . S
C968 C967 1.397 . S
C968 C969 1.334 . S
C969 H946 0.950 . S
C969 C968 1.334 . S
C969 C970 1.287 . S
C970 C969 1.287 . S
C970 C971 1.524 . S
C970 H989 0.913 . S
C971 H947 0.950 . S
C971 C970 1.524 . S
C971 C972 1.415 . S
C972 H948 0.950 . S
C972 C967 1.363 . S
C972 C971 1.415 . S
C973 H949 0.951 . S
C973 C974 1.366 . S
C973 C975 1.388 . S
C974 C973 1.366 . S
C974 C978 1.385 . S
C975 H950 0.951 . S
C975 C973 1.388 . S
C975 C976 1.366 . S
C976 C975 1.366 . S
C976 C977 1.414 . S
C976 C979 1.499 . S
C977 H951 0.950 . S
C977 C976 1.414 . S
C977 C978 1.374 . S
C978 H952 0.950 . S
C978 C974 1.385 . S
C978 C977 1.374 . S
C979 C976 1.499 . S
C979 C980 1.373 1_655 S
C979 C981 1.389 . S
C980 H953 0.950 . S
C980 C966 1.377 . S
C980 C979 1.373 1_455 S
C981 C965 1.400 . S
C981 C979 1.389 . S
C981 C982 1.524 . S
C982 C981 1.524 . S
C982 C983 1.397 . S
C982 C987 1.363 . S
C983 H954 0.950 . S
C983 C982 1.397 . S
C983 C984 1.334 . S
C984 H955 0.950 . S
C984 C983 1.334 . S
C984 C985 1.287 . S
C985 C984 1.287 . S
C985 C986 1.524 . S
C985 H988 0.999 . S
C986 H956 0.950 . S
C986 C985 1.524 . S
C986 C987 1.415 . S
C987 H957 0.950 . S
C987 C982 1.363 . S
C987 C986 1.415 . S
H988 C985 0.999 . S
H989 C970 0.913 . S
H990 C1008 0.951 . S
H991 C1010 0.951 . S
H992 C1012 0.950 1_655 S
H993 C1013 0.950 . S
H994 C1015 0.950 . S
H995 C1018 0.950 . S
H996 C1019 0.950 . S
H997 C1021 0.950 . S
H998 C1022 0.950 . S
H999 C1023 0.951 . S
H1000 C1025 0.951 . S
H1001 C1027 0.950 . S
H1002 C1028 0.950 . S
H1003 C1030 0.950 . S
H1004 C1033 0.950 . S
H1005 C1034 0.950 . S
H1006 C1036 0.950 . S
H1007 C1037 0.950 . S
C1008 H990 0.951 . S
C1008 C1009 1.366 . S
C1008 C1010 1.388 . S
C1009 C1008 1.366 . S
C1009 C1013 1.385 . S
C1010 H991 0.951 . S
C1010 C1008 1.388 . S
C1010 C1011 1.366 . S
C1011 C1010 1.366 . S
C1011 C1012 1.414 . S
C1011 C1014 1.499 . S
C1012 H992 0.950 1_455 S
C1012 C1011 1.414 . S
C1012 C1013 1.374 . S
C1013 H993 0.950 . S
C1013 C1009 1.385 . S
C1013 C1012 1.374 . S
C1014 C1011 1.499 . S
C1014 C1015 1.373 1_455 S
C1014 C1016 1.389 . S
C1015 H994 0.950 . S
C1015 C1014 1.373 1_655 S
C1015 C1031 1.377 . S
C1016 C1014 1.389 . S
C1016 C1017 1.524 . S
C1016 C1030 1.377 . S
C1017 C1016 1.524 . S
C1017 C1018 1.397 . S
C1017 C1022 1.363 . S
C1018 H995 0.950 . S
C1018 C1017 1.397 . S
C1018 C1019 1.334 . S
C1019 H996 0.950 . S
C1019 C1018 1.334 . S
C1019 C1020 1.287 . S
C1020 C1019 1.287 . S
C1020 C1021 1.524 . S
C1020 H1039 0.913 . S
C1021 H997 0.950 . S
C1021 C1020 1.524 . S
C1021 C1022 1.415 . S
C1022 H998 0.950 . S
C1022 C1017 1.363 . S
C1022 C1021 1.415 . S
C1023 H999 0.951 . S
C1023 C1024 1.366 . S
C1023 C1025 1.388 . S
C1024 C1023 1.366 . S
C1024 C1028 1.385 . S
C1025 H1000 0.951 . S
C1025 C1023 1.388 . S
C1025 C1026 1.366 . S
C1026 C1025 1.366 . S
C1026 C1027 1.414 . S
C1026 C1029 1.499 . S
C1027 H1001 0.950 . S
C1027 C1026 1.414 . S
C1027 C1028 1.374 . S
C1028 H1002 0.950 . S
C1028 C1024 1.385 . S
C1028 C1027 1.374 . S
C1029 C1026 1.499 . S
C1029 C1030 1.373 1_655 S
C1029 C1031 1.389 . S
C1030 H1003 0.950 . S
C1030 C1016 1.377 . S
C1030 C1029 1.373 1_455 S
C1031 C1015 1.377 . S
C1031 C1029 1.389 . S
C1031 C1032 1.524 . S
C1032 C1031 1.524 . S
C1032 C1033 1.397 . S
C1032 C1037 1.363 . S
C1033 H1004 0.950 . S
C1033 C1032 1.397 . S
C1033 C1034 1.334 . S
C1034 H1005 0.950 . S
C1034 C1033 1.334 . S
C1034 C1035 1.287 . S
C1035 C1034 1.287 . S
C1035 C1036 1.524 . S
C1035 H1038 0.999 . S
C1036 H1006 0.950 . S
C1036 C1035 1.524 . S
C1036 C1037 1.415 . S
C1037 H1007 0.950 . S
C1037 C1032 1.363 . S
C1037 C1036 1.415 . S
H1038 C1035 0.999 . S
H1039 C1020 0.913 . S
H1040 C1058 0.951 . S
H1041 C1060 0.951 1_565 S
H1042 C1062 0.950 . S
H1043 C1063 0.950 . S
H1044 C1065 0.950 . S
H1045 C1068 0.950 . S
H1046 C1069 0.950 . S
H1047 C1071 0.950 . S
H1048 C1072 0.950 . S
H1049 C1073 0.951 . S
H1050 C1075 0.951 1_545 S
H1051 C1077 0.950 . S
H1052 C1078 0.950 . S
H1053 C1080 0.950 . S
H1054 C1083 0.950 . S
H1055 C1084 0.950 . S
H1056 C1086 0.950 . S
H1057 C1087 0.950 . S
C1058 H1040 0.951 . S
C1058 C1059 1.366 . S
C1058 C1060 1.388 . S
C1059 C1058 1.366 . S
C1059 C1063 1.385 . S
C1060 H1041 0.951 1_545 S
C1060 C1058 1.388 . S
C1060 C1061 1.366 . S
C1061 C1060 1.366 . S
C1061 C1062 1.414 . S
C1061 C1064 1.499 . S
C1062 H1042 0.950 . S
C1062 C1061 1.414 . S
C1062 C1063 1.374 . S
C1063 H1043 0.950 . S
C1063 C1059 1.385 . S
C1063 C1062 1.374 . S
C1064 C1061 1.499 . S
C1064 C1065 1.373 1_545 S
C1064 C1066 1.389 . S
C1065 H1044 0.950 . S
C1065 C1064 1.373 1_565 S
C1065 C1081 1.377 1_554 S
C1066 C1064 1.389 . S
C1066 C1067 1.524 . S
C1066 C1080 1.377 1_554 S
C1067 C1066 1.524 . S
C1067 C1068 1.397 . S
C1067 C1072 1.363 . S
C1068 H1045 0.950 . S
C1068 C1067 1.397 . S
C1068 C1069 1.334 . S
C1069 H1046 0.950 . S
C1069 C1068 1.334 . S
C1069 C1070 1.287 . S
C1070 C1069 1.287 . S
C1070 C1071 1.524 . S
C1070 H1089 0.913 . S
C1071 H1047 0.950 . S
C1071 C1070 1.524 . S
C1071 C1072 1.415 . S
C1072 H1048 0.950 . S
C1072 C1067 1.363 . S
C1072 C1071 1.415 . S
C1073 H1049 0.951 . S
C1073 C1074 1.366 . S
C1073 C1075 1.388 . S
C1074 C1073 1.366 . S
C1074 C1078 1.385 . S
C1075 H1050 0.951 1_565 S
C1075 C1073 1.388 . S
C1075 C1076 1.366 . S
C1076 C1075 1.366 . S
C1076 C1077 1.414 . S
C1076 C1079 1.499 . S
C1077 H1051 0.950 . S
C1077 C1076 1.414 . S
C1077 C1078 1.374 . S
C1078 H1052 0.950 . S
C1078 C1074 1.385 . S
C1078 C1077 1.374 . S
C1079 C1076 1.499 . S
C1079 C1080 1.373 1_565 S
C1079 C1081 1.389 . S
C1080 H1053 0.950 . S
C1080 C1066 1.377 1_556 S
C1080 C1079 1.373 1_545 S
C1081 C1065 1.377 1_556 S
C1081 C1079 1.389 . S
C1081 C1082 1.524 . S
C1082 C1081 1.524 . S
C1082 C1083 1.397 . S
C1082 C1087 1.363 . S
C1083 H1054 0.950 . S
C1083 C1082 1.397 . S
C1083 C1084 1.334 . S
C1084 H1055 0.950 . S
C1084 C1083 1.334 . S
C1084 C1085 1.287 . S
C1085 C1084 1.287 . S
C1085 C1086 1.524 . S
C1085 H1088 0.999 . S
C1086 H1056 0.950 . S
C1086 C1085 1.524 . S
C1086 C1087 1.415 . S
C1087 H1057 0.950 . S
C1087 C1082 1.363 . S
C1087 C1086 1.415 . S
H1088 C1085 0.999 . S
H1089 C1070 0.913 . S
H1090 C1108 0.951 . S
H1091 C1110 0.951 . S
H1092 C1112 0.950 . S
H1093 C1113 0.950 . S
H1094 C1115 0.950 . S
H1095 C1118 0.950 . S
H1096 C1119 0.950 . S
H1097 C1121 0.950 . S
H1098 C1122 0.950 . S
H1099 C1123 0.951 . S
H1100 C1125 0.951 . S
H1101 C1127 0.950 . S
H1102 C1128 0.950 . S
H1103 C1130 0.950 . S
H1104 C1133 0.950 . S
H1105 C1134 0.950 . S
H1106 C1136 0.950 . S
H1107 C1137 0.950 . S
C1108 H1090 0.951 . S
C1108 C1109 1.366 . S
C1108 C1110 1.388 . S
C1109 C1108 1.366 . S
C1109 C1113 1.385 . S
C1110 H1091 0.951 . S
C1110 C1108 1.388 . S
C1110 C1111 1.366 . S
C1111 C1110 1.366 . S
C1111 C1112 1.414 . S
C1111 C1114 1.499 . S
C1112 H1092 0.950 . S
C1112 C1111 1.414 . S
C1112 C1113 1.374 . S
C1113 H1093 0.950 . S
C1113 C1109 1.385 . S
C1113 C1112 1.374 . S
C1114 C1111 1.499 . S
C1114 C1115 1.373 . S
C1114 C1116 1.389 . S
C1115 H1094 0.950 . S
C1115 C1114 1.373 . S
C1115 C1131 1.377 . S
C1116 C1114 1.389 . S
C1116 C1117 1.524 . S
C1116 C1130 1.377 . S
C1117 C1116 1.524 . S
C1117 C1118 1.397 . S
C1117 C1122 1.363 . S
C1118 H1095 0.950 . S
C1118 C1117 1.397 . S
C1118 C1119 1.334 . S
C1119 H1096 0.950 . S
C1119 C1118 1.334 . S
C1119 C1120 1.287 . S
C1120 C1119 1.287 . S
C1120 C1121 1.524 . S
C1120 H1139 0.913 . S
C1121 H1097 0.950 . S
C1121 C1120 1.524 . S
C1121 C1122 1.415 . S
C1122 H1098 0.950 . S
C1122 C1117 1.363 . S
C1122 C1121 1.415 . S
C1123 H1099 0.951 . S
C1123 C1124 1.366 . S
C1123 C1125 1.388 . S
C1124 C1123 1.366 . S
C1124 C1128 1.385 . S
C1125 H1100 0.951 . S
C1125 C1123 1.388 . S
C1125 C1126 1.366 . S
C1126 C1125 1.366 . S
C1126 C1127 1.414 . S
C1126 C1129 1.499 . S
C1127 H1101 0.950 . S
C1127 C1126 1.414 . S
C1127 C1128 1.374 . S
C1128 H1102 0.950 . S
C1128 C1124 1.385 . S
C1128 C1127 1.374 . S
C1129 C1126 1.499 . S
C1129 C1130 1.373 . S
C1129 C1131 1.389 . S
C1130 H1103 0.950 . S
C1130 C1116 1.377 . S
C1130 C1129 1.373 . S
C1131 C1115 1.377 . S
C1131 C1129 1.389 . S
C1131 C1132 1.524 . S
C1132 C1131 1.524 . S
C1132 C1133 1.397 . S
C1132 C1137 1.363 . S
C1133 H1104 0.950 . S
C1133 C1132 1.397 . S
C1133 C1134 1.334 . S
C1134 H1105 0.950 . S
C1134 C1133 1.334 . S
C1134 C1135 1.287 . S
C1135 C1134 1.287 . S
C1135 C1136 1.524 . S
C1135 H1138 0.999 . S
C1136 H1106 0.950 . S
C1136 C1135 1.524 . S
C1136 C1137 1.415 . S
C1137 H1107 0.950 . S
C1137 C1132 1.363 . S
C1137 C1136 1.415 . S
H1138 C1135 0.999 . S
H1139 C1120 0.913 . S
H1140 C1158 0.951 . S
H1141 C1160 0.951 . S
H1142 C1162 0.950 1_545 S
H1143 C1163 0.950 . S
H1144 C1165 0.950 . S
H1145 C1168 0.950 . S
H1146 C1169 0.950 . S
H1147 C1171 0.950 . S
H1148 C1172 0.950 1_655 S
H1149 C1173 0.951 . S
H1150 C1175 0.951 . S
H1151 C1177 0.950 1_565 S
H1152 C1178 0.950 . S
H1153 C1180 0.950 . S
H1154 C1183 0.950 . S
H1155 C1184 0.950 . S
H1156 C1186 0.950 . S
H1157 C1187 0.950 1_455 S
C1158 H1140 0.951 . S
C1158 C1159 1.366 . S
C1158 C1160 1.388 . S
C1159 C1158 1.366 . S
C1159 C1163 1.385 . S
C1160 H1141 0.951 . S
C1160 C1158 1.388 . S
C1160 C1161 1.366 . S
C1161 C1160 1.366 . S
C1161 C1162 1.414 . S
C1161 C1164 1.499 . S
C1162 H1142 0.950 1_565 S
C1162 C1161 1.414 . S
C1162 C1163 1.374 . S
C1163 H1143 0.950 . S
C1163 C1159 1.385 . S
C1163 C1162 1.374 . S
C1164 C1161 1.499 . S
C1164 C1165 1.373 1_565 S
C1164 C1166 1.389 . S
C1165 H1144 0.950 . S
C1165 C1164 1.373 1_545 S
C1165 C1181 1.377 1_455 S
C1166 C1164 1.389 . S
C1166 C1167 1.524 . S
C1166 C1180 1.377 1_455 S
C1167 C1166 1.524 . S
C1167 C1168 1.397 . S
C1167 C1172 1.363 . S
C1168 H1145 0.950 . S
C1168 C1167 1.397 . S
C1168 C1169 1.334 . S
C1169 H1146 0.950 . S
C1169 C1168 1.334 . S
C1169 C1170 1.287 . S
C1170 C1169 1.287 . S
C1170 C1171 1.524 . S
C1170 H1189 0.913 . S
C1171 H1147 0.950 . S
C1171 C1170 1.524 . S
C1171 C1172 1.415 . S
C1172 H1148 0.950 1_455 S
C1172 C1167 1.363 . S
C1172 C1171 1.415 . S
C1173 H1149 0.951 . S
C1173 C1174 1.366 . S
C1173 C1175 1.388 . S
C1174 C1173 1.366 . S
C1174 C1178 1.385 . S
C1175 H1150 0.951 . S
C1175 C1173 1.388 . S
C1175 C1176 1.366 . S
C1176 C1175 1.366 . S
C1176 C1177 1.414 . S
C1176 C1179 1.499 . S
C1177 H1151 0.950 1_545 S
C1177 C1176 1.414 . S
C1177 C1178 1.374 . S
C1178 H1152 0.950 . S
C1178 C1174 1.385 . S
C1178 C1177 1.374 . S
C1179 C1176 1.499 . S
C1179 C1180 1.373 1_545 S
C1179 C1181 1.389 . S
C1180 H1153 0.950 . S
C1180 C1166 1.377 1_655 S
C1180 C1179 1.373 1_565 S
C1181 C1165 1.377 1_655 S
C1181 C1179 1.389 . S
C1181 C1182 1.524 . S
C1182 C1181 1.524 . S
C1182 C1183 1.397 . S
C1182 C1187 1.363 . S
C1183 H1154 0.950 . S
C1183 C1182 1.397 . S
C1183 C1184 1.334 . S
C1184 H1155 0.950 . S
C1184 C1183 1.334 . S
C1184 C1185 1.287 . S
C1185 C1184 1.287 . S
C1185 C1186 1.524 . S
C1185 H1188 0.999 . S
C1186 H1156 0.950 . S
C1186 C1185 1.524 . S
C1186 C1187 1.415 . S
C1187 H1157 0.950 1_655 S
C1187 C1182 1.363 . S
C1187 C1186 1.415 . S
H1188 C1185 0.999 . S
H1189 C1170 0.913 . S
H1190 C1208 0.951 . S
H1191 C1210 0.951 . S
H1192 C1212 0.950 . S
H1193 C1213 0.950 . S
H1194 C1215 0.950 . S
H1195 C1218 0.950 . S
H1196 C1219 0.950 . S
H1197 C1221 0.950 . S
H1198 C1222 0.950 . S
H1199 C1223 0.951 . S
H1200 C1225 0.951 . S
H1201 C1227 0.950 . S
H1202 C1228 0.950 . S
H1203 C1230 0.950 . S
H1204 C1233 0.950 . S
H1205 C1234 0.950 . S
H1206 C1236 0.950 . S
H1207 C1237 0.950 . S
C1208 H1190 0.951 . S
C1208 C1209 1.366 . S
C1208 C1210 1.388 . S
C1209 C1208 1.366 . S
C1209 C1213 1.385 . S
C1210 H1191 0.951 . S
C1210 C1208 1.388 . S
C1210 C1211 1.366 . S
C1211 C1210 1.366 . S
C1211 C1212 1.414 . S
C1211 C1214 1.499 . S
C1212 H1192 0.950 . S
C1212 C1211 1.414 . S
C1212 C1213 1.374 . S
C1213 H1193 0.950 . S
C1213 C1209 1.385 . S
C1213 C1212 1.374 . S
C1214 C1211 1.499 . S
C1214 C1215 1.373 . S
C1214 C1216 1.389 . S
C1215 H1194 0.950 . S
C1215 C1214 1.373 . S
C1215 C1231 1.377 . S
C1216 C1214 1.389 . S
C1216 C1217 1.524 . S
C1216 C1230 1.377 . S
C1217 C1216 1.524 . S
C1217 C1218 1.397 . S
C1217 C1222 1.363 . S
C1218 H1195 0.950 . S
C1218 C1217 1.397 . S
C1218 C1219 1.334 . S
C1219 H1196 0.950 . S
C1219 C1218 1.334 . S
C1219 C1220 1.287 . S
C1220 C1219 1.287 . S
C1220 C1221 1.524 . S
C1220 H1239 0.913 . S
C1221 H1197 0.950 . S
C1221 C1220 1.524 . S
C1221 C1222 1.415 . S
C1222 H1198 0.950 . S
C1222 C1217 1.363 . S
C1222 C1221 1.415 . S
C1223 H1199 0.951 . S
C1223 C1224 1.366 . S
C1223 C1225 1.388 . S
C1224 C1223 1.366 . S
C1224 C1228 1.385 . S
C1225 H1200 0.951 . S
C1225 C1223 1.388 . S
C1225 C1226 1.366 . S
C1226 C1225 1.366 . S
C1226 C1227 1.414 . S
C1226 C1229 1.499 . S
C1227 H1201 0.950 . S
C1227 C1226 1.414 . S
C1227 C1228 1.374 . S
C1228 H1202 0.950 . S
C1228 C1224 1.385 . S
C1228 C1227 1.374 . S
C1229 C1226 1.499 . S
C1229 C1230 1.373 . S
C1229 C1231 1.389 . S
C1230 H1203 0.950 . S
C1230 C1216 1.377 . S
C1230 C1229 1.373 . S
C1231 C1215 1.377 . S
C1231 C1229 1.389 . S
C1231 C1232 1.524 . S
C1232 C1231 1.524 . S
C1232 C1233 1.397 . S
C1232 C1237 1.363 . S
C1233 H1204 0.950 . S
C1233 C1232 1.397 . S
C1233 C1234 1.334 . S
C1234 H1205 0.950 . S
C1234 C1233 1.334 . S
C1234 C1235 1.287 . S
C1235 C1234 1.287 . S
C1235 C1236 1.524 . S
C1235 H1238 0.999 . S
C1236 H1206 0.950 . S
C1236 C1235 1.524 . S
C1236 C1237 1.415 . S
C1237 H1207 0.950 . S
C1237 C1232 1.363 . S
C1237 C1236 1.415 . S
H1238 C1235 0.999 . S
H1239 C1220 0.913 . S
H1240 C1258 0.951 . S
H1241 C1260 0.951 . S
H1242 C1262 0.950 . S
H1243 C1263 0.950 . S
H1244 C1265 0.950 . S
H1245 C1268 0.950 . S
H1246 C1269 0.950 . S
H1247 C1271 0.950 . S
H1248 C1272 0.950 . S
H1249 C1273 0.951 . S
H1250 C1275 0.951 . S
H1251 C1277 0.950 . S
H1252 C1278 0.950 . S
H1253 C1280 0.950 . S
H1254 C1283 0.950 . S
H1255 C1284 0.950 . S
H1256 C1286 0.950 . S
H1257 C1287 0.950 . S
C1258 H1240 0.951 . S
C1258 C1259 1.366 . S
C1258 C1260 1.388 . S
C1259 C1258 1.366 . S
C1259 C1263 1.385 . S
C1260 H1241 0.951 . S
C1260 C1258 1.388 . S
C1260 C1261 1.366 . S
C1261 C1260 1.366 . S
C1261 C1262 1.414 . S
C1261 C1264 1.499 . S
C1262 H1242 0.950 . S
C1262 C1261 1.414 . S
C1262 C1263 1.374 . S
C1263 H1243 0.950 . S
C1263 C1259 1.385 . S
C1263 C1262 1.374 . S
C1264 C1261 1.499 . S
C1264 C1265 1.373 . S
C1264 C1266 1.389 . S
C1265 H1244 0.950 . S
C1265 C1264 1.373 . S
C1265 C1281 1.377 . S
C1266 C1264 1.389 . S
C1266 C1267 1.524 . S
C1266 C1280 1.377 . S
C1267 C1266 1.524 . S
C1267 C1268 1.397 . S
C1267 C1272 1.363 . S
C1268 H1245 0.950 . S
C1268 C1267 1.397 . S
C1268 C1269 1.334 . S
C1269 H1246 0.950 . S
C1269 C1268 1.334 . S
C1269 C1270 1.287 . S
C1270 C1269 1.287 . S
C1270 C1271 1.524 . S
C1270 H1289 0.913 . S
C1271 H1247 0.950 . S
C1271 C1270 1.524 . S
C1271 C1272 1.415 . S
C1272 H1248 0.950 . S
C1272 C1267 1.363 . S
C1272 C1271 1.415 . S
C1273 H1249 0.951 . S
C1273 C1274 1.366 . S
C1273 C1275 1.388 . S
C1274 C1273 1.366 . S
C1274 C1278 1.385 . S
C1275 H1250 0.951 . S
C1275 C1273 1.388 . S
C1275 C1276 1.366 . S
C1276 C1275 1.366 . S
C1276 C1277 1.414 . S
C1276 C1279 1.499 . S
C1277 H1251 0.950 . S
C1277 C1276 1.414 . S
C1277 C1278 1.374 . S
C1278 H1252 0.950 . S
C1278 C1274 1.385 . S
C1278 C1277 1.374 . S
C1279 C1276 1.499 . S
C1279 C1280 1.373 . S
C1279 C1281 1.389 . S
C1280 H1253 0.950 . S
C1280 C1266 1.377 . S
C1280 C1279 1.373 . S
C1281 C1265 1.377 . S
C1281 C1279 1.389 . S
C1281 C1282 1.524 . S
C1282 C1281 1.524 . S
C1282 C1283 1.397 . S
C1282 C1287 1.363 . S
C1283 H1254 0.950 . S
C1283 C1282 1.397 . S
C1283 C1284 1.334 . S
C1284 H1255 0.950 . S
C1284 C1283 1.334 . S
C1284 C1285 1.287 . S
C1285 C1284 1.287 . S
C1285 C1286 1.524 . S
C1285 H1288 0.999 . S
C1286 H1256 0.950 . S
C1286 C1285 1.524 . S
C1286 C1287 1.415 . S
C1287 H1257 0.950 . S
C1287 C1282 1.363 . S
C1287 C1286 1.415 . S
H1288 C1285 0.999 . S
H1289 C1270 0.913 . S
H1290 C1308 0.951 . S
H1291 C1310 0.951 . S
H1292 C1312 0.950 . S
H1293 C1313 0.950 . S
H1294 C1315 0.950 . S
H1295 C1318 0.950 . S
H1296 C1319 0.950 . S
H1297 C1321 0.950 . S
H1298 C1322 0.950 . S
H1299 C1323 0.951 . S
H1300 C1325 0.951 . S
H1301 C1327 0.950 . S
H1302 C1328 0.950 . S
H1303 C1330 0.950 . S
H1304 C1333 0.950 . S
H1305 C1334 0.950 . S
H1306 C1336 0.950 . S
H1307 C1337 0.950 . S
C1308 H1290 0.951 . S
C1308 C1309 1.366 . S
C1308 C1310 1.388 . S
C1309 C1308 1.366 . S
C1309 C1313 1.385 . S
C1310 H1291 0.951 . S
C1310 C1308 1.388 . S
C1310 C1311 1.366 . S
C1311 C1310 1.366 . S
C1311 C1312 1.414 . S
C1311 C1314 1.499 . S
C1312 H1292 0.950 . S
C1312 C1311 1.414 . S
C1312 C1313 1.374 . S
C1313 H1293 0.950 . S
C1313 C1309 1.385 . S
C1313 C1312 1.374 . S
C1314 C1311 1.499 . S
C1314 C1315 1.373 . S
C1314 C1316 1.389 . S
C1315 H1294 0.950 . S
C1315 C1314 1.373 . S
C1315 C1331 1.377 . S
C1316 C1314 1.389 . S
C1316 C1317 1.524 . S
C1316 C1330 1.377 . S
C1317 C1316 1.524 . S
C1317 C1318 1.397 . S
C1317 C1322 1.363 . S
C1318 H1295 0.950 . S
C1318 C1317 1.397 . S
C1318 C1319 1.334 . S
C1319 H1296 0.950 . S
C1319 C1318 1.334 . S
C1319 C1320 1.287 . S
C1320 C1319 1.287 . S
C1320 C1321 1.524 . S
C1320 H1339 0.913 . S
C1321 H1297 0.950 . S
C1321 C1320 1.524 . S
C1321 C1322 1.415 . S
C1322 H1298 0.950 . S
C1322 C1317 1.363 . S
C1322 C1321 1.415 . S
C1323 H1299 0.951 . S
C1323 C1324 1.366 . S
C1323 C1325 1.388 . S
C1324 C1323 1.366 . S
C1324 C1328 1.385 . S
C1325 H1300 0.951 . S
C1325 C1323 1.388 . S
C1325 C1326 1.366 . S
C1326 C1325 1.366 . S
C1326 C1327 1.414 . S
C1326 C1329 1.499 . S
C1327 H1301 0.950 . S
C1327 C1326 1.414 . S
C1327 C1328 1.374 . S
C1328 H1302 0.950 . S
C1328 C1324 1.385 . S
C1328 C1327 1.374 . S
C1329 C1326 1.499 . S
C1329 C1330 1.373 . S
C1329 C1331 1.389 . S
C1330 H1303 0.950 . S
C1330 C1316 1.377 . S
C1330 C1329 1.373 . S
C1331 C1315 1.377 . S
C1331 C1329 1.389 . S
C1331 C1332 1.524 . S
C1332 C1331 1.524 . S
C1332 C1333 1.397 . S
C1332 C1337 1.363 . S
C1333 H1304 0.950 . S
C1333 C1332 1.397 . S
C1333 C1334 1.334 . S
C1334 H1305 0.950 . S
C1334 C1333 1.334 . S
C1334 C1335 1.287 . S
C1335 C1334 1.287 . S
C1335 C1336 1.524 . S
C1335 H1338 0.999 . S
C1336 H1306 0.950 . S
C1336 C1335 1.524 . S
C1336 C1337 1.415 . S
C1337 H1307 0.950 . S
C1337 C1332 1.363 . S
C1337 C1336 1.415 . S
H1338 C1335 0.999 . S
H1339 C1320 0.913 . S
H1340 C1358 0.951 . S
H1341 C1360 0.951 . S
H1342 C1362 0.950 . S
H1343 C1363 0.950 . S
H1344 C1365 0.950 . S
H1345 C1368 0.950 . S
H1346 C1369 0.950 . S
H1347 C1371 0.950 . S
H1348 C1372 0.950 . S
H1349 C1373 0.951 . S
H1350 C1375 0.951 . S
H1351 C1377 0.950 . S
H1352 C1378 0.950 . S
H1353 C1380 0.950 . S
H1354 C1383 0.950 . S
H1355 C1384 0.950 . S
H1356 C1386 0.950 . S
H1357 C1387 0.950 . S
C1358 H1340 0.951 . S
C1358 C1359 1.366 . S
C1358 C1360 1.388 . S
C1359 C1358 1.366 . S
C1359 C1363 1.385 . S
C1360 H1341 0.951 . S
C1360 C1358 1.388 . S
C1360 C1361 1.366 . S
C1361 C1360 1.366 . S
C1361 C1362 1.414 . S
C1361 C1364 1.499 . S
C1362 H1342 0.950 . S
C1362 C1361 1.414 . S
C1362 C1363 1.374 . S
C1363 H1343 0.950 . S
C1363 C1359 1.385 . S
C1363 C1362 1.374 . S
C1364 C1361 1.499 . S
C1364 C1365 1.373 1_455 S
C1364 C1366 1.389 . S
C1365 H1344 0.950 . S
C1365 C1364 1.373 1_655 S
C1365 C1381 1.377 . S
C1366 C1364 1.389 . S
C1366 C1367 1.524 . S
C1366 C1380 1.377 . S
C1367 C1366 1.524 . S
C1367 C1368 1.397 . S
C1367 C1372 1.363 . S
C1368 H1345 0.950 . S
C1368 C1367 1.397 . S
C1368 C1369 1.334 . S
C1369 H1346 0.950 . S
C1369 C1368 1.334 . S
C1369 C1370 1.287 . S
C1370 C1369 1.287 . S
C1370 C1371 1.524 . S
C1370 H1389 0.913 . S
C1371 H1347 0.950 . S
C1371 C1370 1.524 . S
C1371 C1372 1.415 . S
C1372 H1348 0.950 . S
C1372 C1367 1.363 . S
C1372 C1371 1.415 . S
C1373 H1349 0.951 . S
C1373 C1374 1.366 . S
C1373 C1375 1.388 . S
C1374 C1373 1.366 . S
C1374 C1378 1.385 . S
C1375 H1350 0.951 . S
C1375 C1373 1.388 . S
C1375 C1376 1.366 . S
C1376 C1375 1.366 . S
C1376 C1377 1.414 . S
C1376 C1379 1.499 . S
C1377 H1351 0.950 . S
C1377 C1376 1.414 . S
C1377 C1378 1.374 . S
C1378 H1352 0.950 . S
C1378 C1374 1.385 . S
C1378 C1377 1.374 . S
C1379 C1376 1.499 . S
C1379 C1380 1.373 1_655 S
C1379 C1381 1.389 . S
C1380 H1353 0.950 . S
C1380 C1366 1.377 . S
C1380 C1379 1.373 1_455 S
C1381 C1365 1.377 . S
C1381 C1379 1.389 . S
C1381 C1382 1.524 . S
C1382 C1381 1.524 . S
C1382 C1383 1.397 . S
C1382 C1387 1.363 . S
C1383 H1354 0.950 . S
C1383 C1382 1.397 . S
C1383 C1384 1.334 . S
C1384 H1355 0.950 . S
C1384 C1383 1.334 . S
C1384 C1385 1.287 . S
C1385 C1384 1.287 . S
C1385 C1386 1.524 . S
C1385 H1388 0.999 . S
C1386 H1356 0.950 . S
C1386 C1385 1.524 . S
C1386 C1387 1.415 . S
C1387 H1357 0.950 . S
C1387 C1382 1.363 . S
C1387 C1386 1.415 . S
H1388 C1385 0.999 . S
H1389 C1370 0.913 . S
H1390 C1408 0.951 . S
H1391 C1410 0.951 . S
H1392 C1412 0.950 . S
H1393 C1413 0.950 . S
H1394 C1415 0.950 . S
H1395 C1418 0.950 . S
H1396 C1419 0.950 . S
H1397 C1421 0.950 . S
H1398 C1422 0.950 . S
H1399 C1423 0.951 . S
H1400 C1425 0.951 . S
H1401 C1427 0.950 . S
H1402 C1428 0.950 . S
H1403 C1430 0.950 . S
H1404 C1433 0.950 . S
H1405 C1434 0.950 . S
H1406 C1436 0.950 . S
H1407 C1437 0.950 . S
C1408 H1390 0.951 . S
C1408 C1409 1.366 . S
C1408 C1410 1.388 . S
C1409 C1408 1.366 . S
C1409 C1413 1.385 . S
C1410 H1391 0.951 . S
C1410 C1408 1.388 . S
C1410 C1411 1.366 . S
C1411 C1410 1.366 . S
C1411 C1412 1.414 . S
C1411 C1414 1.499 . S
C1412 H1392 0.950 . S
C1412 C1411 1.414 . S
C1412 C1413 1.374 . S
C1413 H1393 0.950 . S
C1413 C1409 1.385 . S
C1413 C1412 1.374 . S
C1414 C1411 1.499 . S
C1414 C1415 1.373 1_554 S
C1414 C1416 1.389 . S
C1415 H1394 0.950 . S
C1415 C1414 1.373 1_556 S
C1415 C1431 1.377 . S
C1416 C1414 1.389 . S
C1416 C1417 1.524 . S
C1416 C1430 1.377 . S
C1417 C1416 1.524 . S
C1417 C1418 1.397 . S
C1417 C1422 1.363 . S
C1418 H1395 0.950 . S
C1418 C1417 1.397 . S
C1418 C1419 1.334 . S
C1419 H1396 0.950 . S
C1419 C1418 1.334 . S
C1419 C1420 1.287 . S
C1420 C1419 1.287 . S
C1420 C1421 1.524 . S
C1420 H1439 0.913 . S
C1421 H1397 0.950 . S
C1421 C1420 1.524 . S
C1421 C1422 1.415 . S
C1422 H1398 0.950 . S
C1422 C1417 1.363 . S
C1422 C1421 1.415 . S
C1423 H1399 0.951 . S
C1423 C1424 1.366 . S
C1423 C1425 1.388 . S
C1424 C1423 1.366 . S
C1424 C1428 1.385 . S
C1425 H1400 0.951 . S
C1425 C1423 1.388 . S
C1425 C1426 1.366 . S
C1426 C1425 1.366 . S
C1426 C1427 1.414 . S
C1426 C1429 1.499 . S
C1427 H1401 0.950 . S
C1427 C1426 1.414 . S
C1427 C1428 1.374 . S
C1428 H1402 0.950 . S
C1428 C1424 1.385 . S
C1428 C1427 1.374 . S
C1429 C1426 1.499 . S
C1429 C1430 1.373 1_556 S
C1429 C1431 1.389 . S
C1430 H1403 0.950 . S
C1430 C1416 1.377 . S
C1430 C1429 1.373 1_554 S
C1431 C1415 1.377 . S
C1431 C1429 1.389 . S
C1431 C1432 1.524 . S
C1432 C1431 1.524 . S
C1432 C1433 1.397 . S
C1432 C1437 1.363 . S
C1433 H1404 0.950 . S
C1433 C1432 1.397 . S
C1433 C1434 1.334 . S
C1434 H1405 0.950 . S
C1434 C1433 1.334 . S
C1434 C1435 1.287 . S
C1435 C1434 1.287 . S
C1435 C1436 1.524 . S
C1435 H1438 0.999 . S
C1436 H1406 0.950 . S
C1436 C1435 1.524 . S
C1436 C1437 1.415 . S
C1437 H1407 0.950 . S
C1437 C1432 1.363 . S
C1437 C1436 1.415 . S
H1438 C1435 0.999 . S
H1439 C1420 0.913 . S
H1440 C1458 0.951 . S
H1441 C1460 0.951 . S
H1442 C1462 0.950 . S
H1443 C1463 0.950 . S
H1444 C1465 0.950 . S
H1445 C1468 0.950 . S
H1446 C1469 0.950 . S
H1447 C1471 0.950 . S
H1448 C1472 0.950 . S
H1449 C1473 0.951 . S
H1450 C1475 0.951 . S
H1451 C1477 0.950 . S
H1452 C1478 0.950 . S
H1453 C1480 0.950 . S
H1454 C1483 0.950 . S
H1455 C1484 0.950 . S
H1456 C1486 0.950 . S
H1457 C1487 0.950 . S
C1458 H1440 0.951 . S
C1458 C1459 1.366 . S
C1458 C1460 1.388 . S
C1459 C1458 1.366 . S
C1459 C1463 1.385 . S
C1460 H1441 0.951 . S
C1460 C1458 1.388 . S
C1460 C1461 1.366 . S
C1461 C1460 1.366 . S
C1461 C1462 1.414 . S
C1461 C1464 1.499 . S
C1462 H1442 0.950 . S
C1462 C1461 1.414 . S
C1462 C1463 1.374 . S
C1463 H1443 0.950 . S
C1463 C1459 1.385 . S
C1463 C1462 1.374 . S
C1464 C1461 1.499 . S
C1464 C1465 1.373 . S
C1464 C1466 1.389 . S
C1465 H1444 0.950 . S
C1465 C1464 1.373 . S
C1465 C1481 1.377 . S
C1466 C1464 1.389 . S
C1466 C1467 1.524 . S
C1466 C1480 1.377 . S
C1467 C1466 1.524 . S
C1467 C1468 1.397 . S
C1467 C1472 1.363 . S
C1468 H1445 0.950 . S
C1468 C1467 1.397 . S
C1468 C1469 1.334 . S
C1469 H1446 0.950 . S
C1469 C1468 1.334 . S
C1469 C1470 1.287 . S
C1470 C1469 1.287 . S
C1470 C1471 1.524 . S
C1470 H1489 0.913 . S
C1471 H1447 0.950 . S
C1471 C1470 1.524 . S
C1471 C1472 1.415 . S
C1472 H1448 0.950 . S
C1472 C1467 1.363 . S
C1472 C1471 1.415 . S
C1473 H1449 0.951 . S
C1473 C1474 1.366 . S
C1473 C1475 1.388 . S
C1474 C1473 1.366 . S
C1474 C1478 1.385 . S
C1475 H1450 0.951 . S
C1475 C1473 1.388 . S
C1475 C1476 1.366 . S
C1476 C1475 1.366 . S
C1476 C1477 1.414 . S
C1476 C1479 1.499 . S
C1477 H1451 0.950 . S
C1477 C1476 1.414 . S
C1477 C1478 1.374 . S
C1478 H1452 0.950 . S
C1478 C1474 1.385 . S
C1478 C1477 1.374 . S
C1479 C1476 1.499 . S
C1479 C1480 1.373 . S
C1479 C1481 1.389 . S
C1480 H1453 0.950 . S
C1480 C1466 1.377 . S
C1480 C1479 1.373 . S
C1481 C1465 1.377 . S
C1481 C1479 1.389 . S
C1481 C1482 1.524 . S
C1482 C1481 1.524 . S
C1482 C1483 1.397 . S
C1482 C1487 1.363 . S
C1483 H1454 0.950 . S
C1483 C1482 1.397 . S
C1483 C1484 1.334 . S
C1484 H1455 0.950 . S
C1484 C1483 1.334 . S
C1484 C1485 1.287 . S
C1485 C1484 1.287 . S
C1485 C1486 1.524 . S
C1485 H1488 0.999 . S
C1486 H1456 0.950 . S
C1486 C1485 1.524 . S
C1486 C1487 1.415 . S
C1487 H1457 0.950 . S
C1487 C1482 1.363 . S
C1487 C1486 1.415 . S
H1488 C1485 0.999 . S
H1489 C1470 0.913 . S
H1490 C1508 0.951 . S
H1491 C1510 0.951 . S
H1492 C1512 0.950 . S
H1493 C1513 0.950 . S
H1494 C1515 0.950 . S
H1495 C1518 0.950 . S
H1496 C1519 0.950 . S
H1497 C1521 0.950 . S
H1498 C1522 0.950 . S
H1499 C1523 0.951 . S
H1500 C1525 0.951 . S
H1501 C1527 0.950 . S
H1502 C1528 0.950 . S
H1503 C1530 0.950 . S
H1504 C1533 0.950 . S
H1505 C1534 0.950 . S
H1506 C1536 0.950 . S
H1507 C1537 0.950 . S
C1508 H1490 0.951 . S
C1508 C1509 1.366 . S
C1508 C1510 1.388 . S
C1509 C1508 1.366 . S
C1509 C1513 1.385 . S
C1510 H1491 0.951 . S
C1510 C1508 1.388 . S
C1510 C1511 1.366 . S
C1511 C1510 1.366 . S
C1511 C1512 1.414 . S
C1511 C1514 1.499 . S
C1512 H1492 0.950 . S
C1512 C1511 1.414 . S
C1512 C1513 1.374 . S
C1513 H1493 0.950 . S
C1513 C1509 1.385 . S
C1513 C1512 1.374 . S
C1514 C1511 1.499 . S
C1514 C1515 1.373 . S
C1514 C1516 1.389 . S
C1515 H1494 0.950 . S
C1515 C1514 1.373 . S
C1515 C1531 1.377 . S
C1516 C1514 1.389 . S
C1516 C1517 1.524 . S
C1516 C1530 1.377 . S
C1517 C1516 1.524 . S
C1517 C1518 1.397 . S
C1517 C1522 1.363 . S
C1518 H1495 0.950 . S
C1518 C1517 1.397 . S
C1518 C1519 1.334 . S
C1519 H1496 0.950 . S
C1519 C1518 1.334 . S
C1519 C1520 1.287 . S
C1520 C1519 1.287 . S
C1520 C1521 1.524 . S
C1520 H1539 0.913 . S
C1521 H1497 0.950 . S
C1521 C1520 1.524 . S
C1521 C1522 1.415 . S
C1522 H1498 0.950 . S
C1522 C1517 1.363 . S
C1522 C1521 1.415 . S
C1523 H1499 0.951 . S
C1523 C1524 1.366 . S
C1523 C1525 1.388 . S
C1524 C1523 1.366 . S
C1524 C1528 1.385 . S
C1525 H1500 0.951 . S
C1525 C1523 1.388 . S
C1525 C1526 1.366 . S
C1526 C1525 1.366 . S
C1526 C1527 1.414 . S
C1526 C1529 1.499 . S
C1527 H1501 0.950 . S
C1527 C1526 1.414 . S
C1527 C1528 1.374 . S
C1528 H1502 0.950 . S
C1528 C1524 1.385 . S
C1528 C1527 1.374 . S
C1529 C1526 1.499 . S
C1529 C1530 1.373 . S
C1529 C1531 1.389 . S
C1530 H1503 0.950 . S
C1530 C1516 1.377 . S
C1530 C1529 1.373 . S
C1531 C1515 1.377 . S
C1531 C1529 1.389 . S
C1531 C1532 1.524 . S
C1532 C1531 1.524 . S
C1532 C1533 1.397 . S
C1532 C1537 1.363 . S
C1533 H1504 0.950 . S
C1533 C1532 1.397 . S
C1533 C1534 1.334 . S
C1534 H1505 0.950 . S
C1534 C1533 1.334 . S
C1534 C1535 1.287 . S
C1535 C1534 1.287 . S
C1535 C1536 1.524 . S
C1535 H1538 0.999 . S
C1536 H1506 0.950 . S
C1536 C1535 1.524 . S
C1536 C1537 1.415 . S
C1537 H1507 0.950 . S
C1537 C1532 1.363 . S
C1537 C1536 1.415 . S
H1538 C1535 0.999 . S
H1539 C1520 0.913 . S
H1540 C1558 0.951 . S
H1541 C1560 0.951 . S
H1542 C1562 0.950 . S
H1543 C1563 0.950 . S
H1544 C1565 0.950 . S
H1545 C1568 0.950 . S
H1546 C1569 0.950 . S
H1547 C1571 0.950 . S
H1548 C1572 0.950 . S
H1549 C1573 0.951 . S
H1550 C1575 0.951 . S
H1551 C1577 0.950 . S
H1552 C1578 0.950 . S
H1553 C1580 0.950 . S
H1554 C1583 0.950 . S
H1555 C1584 0.950 . S
H1556 C1586 0.950 . S
H1557 C1587 0.950 . S
C1558 H1540 0.951 . S
C1558 C1559 1.366 . S
C1558 C1560 1.388 . S
C1559 C1558 1.366 . S
C1559 C1563 1.385 . S
C1560 H1541 0.951 . S
C1560 C1558 1.388 . S
C1560 C1561 1.366 . S
C1561 C1560 1.366 . S
C1561 C1562 1.414 . S
C1561 C1564 1.499 . S
C1562 H1542 0.950 . S
C1562 C1561 1.414 . S
C1562 C1563 1.374 . S
C1563 H1543 0.950 . S
C1563 C1559 1.385 . S
C1563 C1562 1.374 . S
C1564 C1561 1.499 . S
C1564 C1565 1.373 . S
C1564 C1566 1.389 . S
C1565 H1544 0.950 . S
C1565 C1564 1.373 . S
C1565 C1581 1.377 . S
C1566 C1564 1.389 . S
C1566 C1567 1.524 . S
C1566 C1580 1.377 . S
C1567 C1566 1.524 . S
C1567 C1568 1.397 . S
C1567 C1572 1.363 . S
C1568 H1545 0.950 . S
C1568 C1567 1.397 . S
C1568 C1569 1.334 . S
C1569 H1546 0.950 . S
C1569 C1568 1.334 . S
C1569 C1570 1.287 . S
C1570 C1569 1.287 . S
C1570 C1571 1.524 . S
C1570 H1589 0.913 . S
C1571 H1547 0.950 . S
C1571 C1570 1.524 . S
C1571 C1572 1.415 . S
C1572 H1548 0.950 . S
C1572 C1567 1.363 . S
C1572 C1571 1.415 . S
C1573 H1549 0.951 . S
C1573 C1574 1.366 . S
C1573 C1575 1.388 . S
C1574 C1573 1.366 . S
C1574 C1578 1.385 . S
C1575 H1550 0.951 . S
C1575 C1573 1.388 . S
C1575 C1576 1.366 . S
C1576 C1575 1.366 . S
C1576 C1577 1.414 . S
C1576 C1579 1.499 . S
C1577 H1551 0.950 . S
C1577 C1576 1.414 . S
C1577 C1578 1.374 . S
C1578 H1552 0.950 . S
C1578 C1574 1.385 . S
C1578 C1577 1.374 . S
C1579 C1576 1.499 . S
C1579 C1580 1.373 . S
C1579 C1581 1.389 . S
C1580 H1553 0.950 . S
C1580 C1566 1.377 . S
C1580 C1579 1.373 . S
C1581 C1565 1.377 . S
C1581 C1579 1.389 . S
C1581 C1582 1.524 . S
C1582 C1581 1.524 . S
C1582 C1583 1.397 . S
C1582 C1587 1.363 . S
C1583 H1554 0.950 . S
C1583 C1582 1.397 . S
C1583 C1584 1.334 . S
C1584 H1555 0.950 . S
C1584 C1583 1.334 . S
C1584 C1585 1.287 . S
C1585 C1584 1.287 . S
C1585 C1586 1.524 . S
C1585 H1588 0.999 . S
C1586 H1556 0.950 . S
C1586 C1585 1.524 . S
C1586 C1587 1.415 . S
C1587 H1557 0.950 . S
C1587 C1582 1.363 . S
C1587 C1586 1.415 . S
H1588 C1585 0.999 . S
H1589 C1570 0.913 . S
H1590 C1608 0.951 . S
H1591 C1610 0.951 . S
H1592 C1612 0.950 . S
H1593 C1613 0.950 . S
H1594 C1615 0.950 . S
H1595 C1618 0.950 . S
H1596 C1619 0.950 . S
H1597 C1621 0.950 . S
H1598 C1622 0.950 . S
H1599 C1623 0.951 . S
H1600 C1625 0.951 . S
H1601 C1627 0.950 . S
H1602 C1628 0.950 . S
H1603 C1630 0.950 . S
H1604 C1633 0.950 . S
H1605 C1634 0.950 . S
H1606 C1636 0.950 . S
H1607 C1637 0.950 . S
C1608 H1590 0.951 . S
C1608 C1609 1.366 . S
C1608 C1610 1.388 . S
C1609 C1608 1.366 . S
C1609 C1613 1.385 . S
C1610 H1591 0.951 . S
C1610 C1608 1.388 . S
C1610 C1611 1.366 . S
C1611 C1610 1.366 . S
C1611 C1612 1.414 . S
C1611 C1614 1.499 . S
C1612 H1592 0.950 . S
C1612 C1611 1.414 . S
C1612 C1613 1.374 . S
C1613 H1593 0.950 . S
C1613 C1609 1.385 . S
C1613 C1612 1.374 . S
C1614 C1611 1.499 . S
C1614 C1615 1.373 . S
C1614 C1616 1.389 . S
C1615 H1594 0.950 . S
C1615 C1614 1.373 . S
C1615 C1631 1.377 . S
C1616 C1614 1.389 . S
C1616 C1617 1.524 . S
C1616 C1630 1.377 . S
C1617 C1616 1.524 . S
C1617 C1618 1.397 . S
C1617 C1622 1.363 . S
C1618 H1595 0.950 . S
C1618 C1617 1.397 . S
C1618 C1619 1.334 . S
C1619 H1596 0.950 . S
C1619 C1618 1.334 . S
C1619 C1620 1.287 . S
C1620 C1619 1.287 . S
C1620 C1621 1.524 . S
C1620 H1639 0.913 . S
C1621 H1597 0.950 . S
C1621 C1620 1.524 . S
C1621 C1622 1.415 . S
C1622 H1598 0.950 . S
C1622 C1617 1.363 . S
C1622 C1621 1.415 . S
C1623 H1599 0.951 . S
C1623 C1624 1.366 . S
C1623 C1625 1.388 . S
C1624 C1623 1.366 . S
C1624 C1628 1.385 . S
C1625 H1600 0.951 . S
C1625 C1623 1.388 . S
C1625 C1626 1.366 . S
C1626 C1625 1.366 . S
C1626 C1627 1.414 . S
C1626 C1629 1.499 . S
C1627 H1601 0.950 . S
C1627 C1626 1.414 . S
C1627 C1628 1.374 . S
C1628 H1602 0.950 . S
C1628 C1624 1.385 . S
C1628 C1627 1.374 . S
C1629 C1626 1.499 . S
C1629 C1630 1.373 . S
C1629 C1631 1.389 . S
C1630 H1603 0.950 . S
C1630 C1616 1.377 . S
C1630 C1629 1.373 . S
C1631 C1615 1.377 . S
C1631 C1629 1.389 . S
C1631 C1632 1.524 . S
C1632 C1631 1.524 . S
C1632 C1633 1.397 . S
C1632 C1637 1.363 . S
C1633 H1604 0.950 . S
C1633 C1632 1.397 . S
C1633 C1634 1.334 . S
C1634 H1605 0.950 . S
C1634 C1633 1.334 . S
C1634 C1635 1.287 . S
C1635 C1634 1.287 . S
C1635 C1636 1.524 . S
C1635 H1638 0.999 . S
C1636 H1606 0.950 . S
C1636 C1635 1.524 . S
C1636 C1637 1.415 . S
C1637 H1607 0.950 . S
C1637 C1632 1.363 . S
C1637 C1636 1.415 . S
H1638 C1635 0.999 . S
H1639 C1620 0.913 . S
H1640 C1658 0.951 . S
H1641 C1660 0.951 . S
H1642 C1662 0.950 . S
H1643 C1663 0.950 . S
H1644 C1665 0.950 . S
H1645 C1668 0.950 . S
H1646 C1669 0.950 . S
H1647 C1671 0.950 . S
H1648 C1672 0.950 . S
H1649 C1673 0.951 . S
H1650 C1675 0.951 . S
H1651 C1677 0.950 . S
H1652 C1678 0.950 . S
H1653 C1680 0.950 . S
H1654 C1683 0.950 . S
H1655 C1684 0.950 . S
H1656 C1686 0.950 . S
H1657 C1687 0.950 . S
C1658 H1640 0.951 . S
C1658 C1659 1.366 . S
C1658 C1660 1.388 . S
C1659 C1658 1.366 . S
C1659 C1663 1.385 . S
C1660 H1641 0.951 . S
C1660 C1658 1.388 . S
C1660 C1661 1.366 . S
C1661 C1660 1.366 . S
C1661 C1662 1.414 . S
C1661 C1664 1.499 . S
C1662 H1642 0.950 . S
C1662 C1661 1.414 . S
C1662 C1663 1.374 . S
C1663 H1643 0.950 . S
C1663 C1659 1.385 . S
C1663 C1662 1.374 . S
C1664 C1661 1.499 . S
C1664 C1665 1.373 . S
C1664 C1666 1.389 . S
C1665 H1644 0.950 . S
C1665 C1664 1.373 . S
C1665 C1681 1.377 . S
C1666 C1664 1.389 . S
C1666 C1667 1.524 . S
C1666 C1680 1.377 . S
C1667 C1666 1.524 . S
C1667 C1668 1.397 . S
C1667 C1672 1.363 . S
C1668 H1645 0.950 . S
C1668 C1667 1.397 . S
C1668 C1669 1.334 . S
C1669 H1646 0.950 . S
C1669 C1668 1.334 . S
C1669 C1670 1.287 . S
C1670 C1669 1.287 . S
C1670 C1671 1.524 . S
C1670 H1689 0.913 . S
C1671 H1647 0.950 . S
C1671 C1670 1.524 . S
C1671 C1672 1.415 . S
C1672 H1648 0.950 . S
C1672 C1667 1.363 . S
C1672 C1671 1.415 . S
C1673 H1649 0.951 . S
C1673 C1674 1.366 . S
C1673 C1675 1.388 . S
C1674 C1673 1.366 . S
C1674 C1678 1.385 . S
C1675 H1650 0.951 . S
C1675 C1673 1.388 . S
C1675 C1676 1.366 . S
C1676 C1675 1.366 . S
C1676 C1677 1.414 . S
C1676 C1679 1.499 . S
C1677 H1651 0.950 . S
C1677 C1676 1.414 . S
C1677 C1678 1.374 . S
C1678 H1652 0.950 . S
C1678 C1674 1.385 . S
C1678 C1677 1.374 . S
C1679 C1676 1.499 . S
C1679 C1680 1.373 . S
C1679 C1681 1.389 . S
C1680 H1653 0.950 . S
C1680 C1666 1.377 . S
C1680 C1679 1.373 . S
C1681 C1665 1.377 . S
C1681 C1679 1.389 . S
C1681 C1682 1.524 . S
C1682 C1681 1.524 . S
C1682 C1683 1.397 . S
C1682 C1687 1.363 . S
C1683 H1654 0.950 . S
C1683 C1682 1.397 . S
C1683 C1684 1.334 . S
C1684 H1655 0.950 . S
C1684 C1683 1.334 . S
C1684 C1685 1.287 . S
C1685 C1684 1.287 . S
C1685 C1686 1.524 . S
C1685 H1688 0.999 . S
C1686 H1656 0.950 . S
C1686 C1685 1.524 . S
C1686 C1687 1.415 . S
C1687 H1657 0.950 . S
C1687 C1682 1.363 . S
C1687 C1686 1.415 . S
H1688 C1685 0.999 . S
H1689 C1670 0.913 . S
H1690 C1708 0.951 . S
H1691 C1710 0.951 . S
H1692 C1712 0.950 . S
H1693 C1713 0.950 . S
H1694 C1715 0.950 . S
H1695 C1718 0.950 . S
H1696 C1719 0.950 . S
H1697 C1721 0.950 . S
H1698 C1722 0.950 . S
H1699 C1723 0.951 . S
H1700 C1725 0.951 . S
H1701 C1727 0.950 . S
H1702 C1728 0.950 . S
H1703 C1730 0.950 . S
H1704 C1733 0.950 . S
H1705 C1734 0.950 . S
H1706 C1736 0.950 . S
H1707 C1737 0.950 . S
C1708 H1690 0.951 . S
C1708 C1709 1.366 . S
C1708 C1710 1.388 . S
C1709 C1708 1.366 . S
C1709 C1713 1.385 . S
C1710 H1691 0.951 . S
C1710 C1708 1.388 . S
C1710 C1711 1.366 . S
C1711 C1710 1.366 . S
C1711 C1712 1.414 . S
C1711 C1714 1.499 . S
C1712 H1692 0.950 . S
C1712 C1711 1.414 . S
C1712 C1713 1.374 . S
C1713 H1693 0.950 . S
C1713 C1709 1.385 . S
C1713 C1712 1.374 . S
C1714 C1711 1.499 . S
C1714 C1715 1.373 . S
C1714 C1716 1.389 . S
C1715 H1694 0.950 . S
C1715 C1714 1.373 . S
C1715 C1731 1.377 . S
C1716 C1714 1.389 . S
C1716 C1717 1.524 . S
C1716 C1730 1.377 . S
C1717 C1716 1.524 . S
C1717 C1718 1.397 . S
C1717 C1722 1.363 . S
C1718 H1695 0.950 . S
C1718 C1717 1.397 . S
C1718 C1719 1.334 . S
C1719 H1696 0.950 . S
C1719 C1718 1.334 . S
C1719 C1720 1.287 . S
C1720 C1719 1.287 . S
C1720 C1721 1.524 . S
C1720 H1739 0.913 . S
C1721 H1697 0.950 . S
C1721 C1720 1.524 . S
C1721 C1722 1.415 . S
C1722 H1698 0.950 . S
C1722 C1717 1.363 . S
C1722 C1721 1.415 . S
C1723 H1699 0.951 . S
C1723 C1724 1.366 . S
C1723 C1725 1.388 . S
C1724 C1723 1.366 . S
C1724 C1728 1.385 . S
C1725 H1700 0.951 . S
C1725 C1723 1.388 . S
C1725 C1726 1.366 . S
C1726 C1725 1.366 . S
C1726 C1727 1.414 . S
C1726 C1729 1.499 . S
C1727 H1701 0.950 . S
C1727 C1726 1.414 . S
C1727 C1728 1.374 . S
C1728 H1702 0.950 . S
C1728 C1724 1.385 . S
C1728 C1727 1.374 . S
C1729 C1726 1.499 . S
C1729 C1730 1.373 . S
C1729 C1731 1.389 . S
C1730 H1703 0.950 . S
C1730 C1716 1.377 . S
C1730 C1729 1.373 . S
C1731 C1715 1.377 . S
C1731 C1729 1.389 . S
C1731 C1732 1.524 . S
C1732 C1731 1.524 . S
C1732 C1733 1.397 . S
C1732 C1737 1.363 . S
C1733 H1704 0.950 . S
C1733 C1732 1.397 . S
C1733 C1734 1.334 . S
C1734 H1705 0.950 . S
C1734 C1733 1.334 . S
C1734 C1735 1.287 . S
C1735 C1734 1.287 . S
C1735 C1736 1.524 . S
C1735 H1738 0.999 . S
C1736 H1706 0.950 . S
C1736 C1735 1.524 . S
C1736 C1737 1.415 . S
C1737 H1707 0.950 . S
C1737 C1732 1.363 . S
C1737 C1736 1.415 . S
H1738 C1735 0.999 . S
H1739 C1720 0.913 . S
H1740 C1758 0.951 . S
H1741 C1760 0.951 . S
H1742 C1762 0.950 . S
H1743 C1763 0.950 . S
H1744 C1765 0.950 . S
H1745 C1768 0.950 . S
H1746 C1769 0.950 . S
H1747 C1771 0.950 . S
H1748 C1772 0.950 . S
H1749 C1773 0.951 . S
H1750 C1775 0.951 . S
H1751 C1777 0.950 . S
H1752 C1778 0.950 . S
H1753 C1780 0.950 . S
H1754 C1783 0.950 . S
H1755 C1784 0.950 . S
H1756 C1786 0.950 . S
H1757 C1787 0.950 . S
C1758 H1740 0.951 . S
C1758 C1759 1.366 . S
C1758 C1760 1.388 . S
C1759 C1758 1.366 . S
C1759 C1763 1.385 . S
C1760 H1741 0.951 . S
C1760 C1758 1.388 . S
C1760 C1761 1.366 . S
C1761 C1760 1.366 . S
C1761 C1762 1.414 . S
C1761 C1764 1.499 . S
C1762 H1742 0.950 . S
C1762 C1761 1.414 . S
C1762 C1763 1.374 . S
C1763 H1743 0.950 . S
C1763 C1759 1.385 . S
C1763 C1762 1.374 . S
C1764 C1761 1.499 . S
C1764 C1765 1.373 . S
C1764 C1766 1.389 . S
C1765 H1744 0.950 . S
C1765 C1764 1.373 . S
C1765 C1781 1.377 . S
C1766 C1764 1.389 . S
C1766 C1767 1.524 . S
C1766 C1780 1.377 . S
C1767 C1766 1.524 . S
C1767 C1768 1.397 . S
C1767 C1772 1.363 . S
C1768 H1745 0.950 . S
C1768 C1767 1.397 . S
C1768 C1769 1.334 . S
C1769 H1746 0.950 . S
C1769 C1768 1.334 . S
C1769 C1770 1.287 . S
C1770 C1769 1.287 . S
C1770 C1771 1.524 . S
C1770 H1789 0.913 . S
C1771 H1747 0.950 . S
C1771 C1770 1.524 . S
C1771 C1772 1.415 . S
C1772 H1748 0.950 . S
C1772 C1767 1.363 . S
C1772 C1771 1.415 . S
C1773 H1749 0.951 . S
C1773 C1774 1.366 . S
C1773 C1775 1.388 . S
C1774 C1773 1.366 . S
C1774 C1778 1.385 . S
C1775 H1750 0.951 . S
C1775 C1773 1.388 . S
C1775 C1776 1.366 . S
C1776 C1775 1.366 . S
C1776 C1777 1.414 . S
C1776 C1779 1.499 . S
C1777 H1751 0.950 . S
C1777 C1776 1.414 . S
C1777 C1778 1.374 . S
C1778 H1752 0.950 . S
C1778 C1774 1.385 . S
C1778 C1777 1.374 . S
C1779 C1776 1.499 . S
C1779 C1780 1.373 . S
C1779 C1781 1.389 . S
C1780 H1753 0.950 . S
C1780 C1766 1.377 . S
C1780 C1779 1.373 . S
C1781 C1765 1.377 . S
C1781 C1779 1.389 . S
C1781 C1782 1.524 . S
C1782 C1781 1.524 . S
C1782 C1783 1.397 . S
C1782 C1787 1.363 . S
C1783 H1754 0.950 . S
C1783 C1782 1.397 . S
C1783 C1784 1.334 . S
C1784 H1755 0.950 . S
C1784 C1783 1.334 . S
C1784 C1785 1.287 . S
C1785 C1784 1.287 . S
C1785 C1786 1.524 . S
C1785 H1788 0.999 . S
C1786 H1756 0.950 . S
C1786 C1785 1.524 . S
C1786 C1787 1.415 . S
C1787 H1757 0.950 . S
C1787 C1782 1.363 . S
C1787 C1786 1.415 . S
H1788 C1785 0.999 . S
H1789 C1770 0.913 . S
H1790 C1808 0.951 . S
H1791 C1810 0.951 . S
H1792 C1812 0.950 . S
H1793 C1813 0.950 . S
H1794 C1815 0.950 . S
H1795 C1818 0.950 . S
H1796 C1819 0.950 . S
H1797 C1821 0.950 . S
H1798 C1822 0.950 . S
H1799 C1823 0.951 . S
H1800 C1825 0.951 . S
H1801 C1827 0.950 . S
H1802 C1828 0.950 . S
H1803 C1830 0.950 . S
H1804 C1833 0.950 . S
H1805 C1834 0.950 . S
H1806 C1836 0.950 . S
H1807 C1837 0.950 . S
C1808 H1790 0.951 . S
C1808 C1809 1.366 . S
C1808 C1810 1.388 . S
C1809 C1808 1.366 . S
C1809 C1813 1.385 . S
C1810 H1791 0.951 . S
C1810 C1808 1.388 . S
C1810 C1811 1.366 . S
C1811 C1810 1.366 . S
C1811 C1812 1.414 . S
C1811 C1814 1.499 . S
C1812 H1792 0.950 . S
C1812 C1811 1.414 . S
C1812 C1813 1.374 . S
C1813 H1793 0.950 . S
C1813 C1809 1.385 . S
C1813 C1812 1.374 . S
C1814 C1811 1.499 . S
C1814 C1815 1.373 . S
C1814 C1816 1.389 . S
C1815 H1794 0.950 . S
C1815 C1814 1.373 . S
C1815 C1831 1.377 . S
C1816 C1814 1.389 . S
C1816 C1817 1.524 . S
C1816 C1830 1.377 . S
C1817 C1816 1.524 . S
C1817 C1818 1.397 . S
C1817 C1822 1.363 . S
C1818 H1795 0.950 . S
C1818 C1817 1.397 . S
C1818 C1819 1.334 . S
C1819 H1796 0.950 . S
C1819 C1818 1.334 . S
C1819 C1820 1.287 . S
C1820 C1819 1.287 . S
C1820 C1821 1.524 . S
C1820 H1839 0.913 . S
C1821 H1797 0.950 . S
C1821 C1820 1.524 . S
C1821 C1822 1.415 . S
C1822 H1798 0.950 . S
C1822 C1817 1.363 . S
C1822 C1821 1.415 . S
C1823 H1799 0.951 . S
C1823 C1824 1.366 . S
C1823 C1825 1.388 . S
C1824 C1823 1.366 . S
C1824 C1828 1.385 . S
C1825 H1800 0.951 . S
C1825 C1823 1.388 . S
C1825 C1826 1.366 . S
C1826 C1825 1.366 . S
C1826 C1827 1.414 . S
C1826 C1829 1.499 . S
C1827 H1801 0.950 . S
C1827 C1826 1.414 . S
C1827 C1828 1.374 . S
C1828 H1802 0.950 . S
C1828 C1824 1.385 . S
C1828 C1827 1.374 . S
C1829 C1826 1.499 . S
C1829 C1830 1.373 . S
C1829 C1831 1.389 . S
C1830 H1803 0.950 . S
C1830 C1816 1.377 . S
C1830 C1829 1.373 . S
C1831 C1815 1.377 . S
C1831 C1829 1.389 . S
C1831 C1832 1.524 . S
C1832 C1831 1.524 . S
C1832 C1833 1.397 . S
C1832 C1837 1.363 . S
C1833 H1804 0.950 . S
C1833 C1832 1.397 . S
C1833 C1834 1.334 . S
C1834 H1805 0.950 . S
C1834 C1833 1.334 . S
C1834 C1835 1.287 . S
C1835 C1834 1.287 . S
C1835 C1836 1.524 . S
C1835 H1838 0.999 . S
C1836 H1806 0.950 . S
C1836 C1835 1.524 . S
C1836 C1837 1.415 . S
C1837 H1807 0.950 . S
C1837 C1832 1.363 . S
C1837 C1836 1.415 . S
H1838 C1835 0.999 . S
H1839 C1820 0.913 . S
H1840 C1858 0.951 . S
H1841 C1860 0.951 . S
H1842 C1862 0.950 . S
H1843 C1863 0.950 . S
H1844 C1865 0.950 . S
H1845 C1868 0.950 . S
H1846 C1869 0.950 . S
H1847 C1871 0.950 . S
H1848 C1872 0.950 . S
H1849 C1873 0.951 . S
H1850 C1875 0.951 . S
H1851 C1877 0.950 . S
H1852 C1878 0.950 . S
H1853 C1880 0.950 . S
H1854 C1883 0.950 . S
H1855 C1884 0.950 . S
H1856 C1886 0.950 . S
H1857 C1887 0.950 . S
C1858 H1840 0.951 . S
C1858 C1859 1.366 . S
C1858 C1860 1.388 . S
C1859 C1858 1.366 . S
C1859 C1863 1.385 . S
C1860 H1841 0.951 . S
C1860 C1858 1.388 . S
C1860 C1861 1.366 . S
C1861 C1860 1.366 . S
C1861 C1862 1.414 . S
C1861 C1864 1.499 . S
C1862 H1842 0.950 . S
C1862 C1861 1.414 . S
C1862 C1863 1.374 . S
C1863 H1843 0.950 . S
C1863 C1859 1.385 . S
C1863 C1862 1.374 . S
C1864 C1861 1.499 . S
C1864 C1865 1.373 . S
C1864 C1866 1.389 . S
C1865 H1844 0.950 . S
C1865 C1864 1.373 . S
C1865 C1881 1.377 . S
C1866 C1864 1.389 . S
C1866 C1867 1.524 . S
C1866 C1880 1.377 . S
C1867 C1866 1.524 . S
C1867 C1868 1.397 . S
C1867 C1872 1.363 . S
C1868 H1845 0.950 . S
C1868 C1867 1.397 . S
C1868 C1869 1.334 . S
C1869 H1846 0.950 . S
C1869 C1868 1.334 . S
C1869 C1870 1.287 . S
C1870 C1869 1.287 . S
C1870 C1871 1.524 . S
C1870 H1889 0.913 . S
C1871 H1847 0.950 . S
C1871 C1870 1.524 . S
C1871 C1872 1.415 . S
C1872 H1848 0.950 . S
C1872 C1867 1.363 . S
C1872 C1871 1.415 . S
C1873 H1849 0.951 . S
C1873 C1874 1.366 . S
C1873 C1875 1.388 . S
C1874 C1873 1.366 . S
C1874 C1878 1.385 . S
C1875 H1850 0.951 . S
C1875 C1873 1.388 . S
C1875 C1876 1.366 . S
C1876 C1875 1.366 . S
C1876 C1877 1.414 . S
C1876 C1879 1.499 . S
C1877 H1851 0.950 . S
C1877 C1876 1.414 . S
C1877 C1878 1.374 . S
C1878 H1852 0.950 . S
C1878 C1874 1.385 . S
C1878 C1877 1.374 . S
C1879 C1876 1.499 . S
C1879 C1880 1.373 . S
C1879 C1881 1.389 . S
C1880 H1853 0.950 . S
C1880 C1866 1.377 . S
C1880 C1879 1.373 . S
C1881 C1865 1.377 . S
C1881 C1879 1.389 . S
C1881 C1882 1.524 . S
C1882 C1881 1.524 . S
C1882 C1883 1.397 . S
C1882 C1887 1.363 . S
C1883 H1854 0.950 . S
C1883 C1882 1.397 . S
C1883 C1884 1.334 . S
C1884 H1855 0.950 . S
C1884 C1883 1.334 . S
C1884 C1885 1.287 . S
C1885 C1884 1.287 . S
C1885 C1886 1.524 . S
C1885 H1888 0.999 . S
C1886 H1856 0.950 . S
C1886 C1885 1.524 . S
C1886 C1887 1.415 . S
C1887 H1857 0.950 . S
C1887 C1882 1.363 . S
C1887 C1886 1.415 . S
H1888 C1885 0.999 . S
H1889 C1870 0.913 . S
H1890 C1908 0.951 . S
H1891 C1910 0.951 1_545 S
H1892 C1912 0.950 . S
H1893 C1913 0.950 . S
H1894 C1915 0.950 . S
H1895 C1918 0.950 . S
H1896 C1919 0.950 . S
H1897 C1921 0.950 . S
H1898 C1922 0.950 . S
H1899 C1923 0.951 . S
H1900 C1925 0.951 . S
H1901 C1927 0.950 . S
H1902 C1928 0.950 . S
H1903 C1930 0.950 . S
H1904 C1933 0.950 . S
H1905 C1934 0.950 . S
H1906 C1936 0.950 1_455 S
H1907 C1937 0.950 . S
C1908 H1890 0.951 . S
C1908 C1909 1.366 . S
C1908 C1910 1.388 . S
C1909 C1908 1.366 . S
C1909 C1913 1.385 . S
C1910 H1891 0.951 1_565 S
C1910 C1908 1.388 . S
C1910 C1911 1.366 . S
C1911 C1910 1.366 . S
C1911 C1912 1.414 . S
C1911 C1914 1.499 . S
C1912 H1892 0.950 . S
C1912 C1911 1.414 . S
C1912 C1913 1.374 . S
C1913 H1893 0.950 . S
C1913 C1909 1.385 . S
C1913 C1912 1.374 . S
C1914 C1911 1.499 . S
C1914 C1915 1.373 . S
C1914 C1916 1.389 1_565 S
C1915 H1894 0.950 . S
C1915 C1914 1.373 . S
C1915 C1931 1.377 . S
C1916 C1914 1.389 1_545 S
C1916 C1917 1.524 . S
C1916 C1930 1.377 . S
C1917 C1916 1.524 . S
C1917 C1918 1.397 . S
C1917 C1922 1.363 . S
C1918 H1895 0.950 . S
C1918 C1917 1.397 . S
C1918 C1919 1.334 . S
C1919 H1896 0.950 . S
C1919 C1918 1.334 . S
C1919 C1920 1.287 . S
C1920 C1919 1.287 . S
C1920 C1921 1.524 . S
C1920 H1939 0.913 . S
C1921 H1897 0.950 . S
C1921 C1920 1.524 . S
C1921 C1922 1.415 . S
C1922 H1898 0.950 . S
C1922 C1917 1.363 . S
C1922 C1921 1.415 . S
C1923 H1899 0.951 . S
C1923 C1924 1.366 1_565 S
C1923 C1925 1.388 1_455 S
C1924 C1923 1.366 1_545 S
C1924 C1928 1.385 . S
C1925 H1900 0.951 . S
C1925 C1923 1.388 1_655 S
C1925 C1926 1.366 1_565 S
C1926 C1925 1.366 1_545 S
C1926 C1927 1.414 . S
C1926 C1929 1.499 1_545 S
C1927 H1901 0.950 . S
C1927 C1926 1.414 . S
C1927 C1928 1.374 1_655 S
C1928 H1902 0.950 . S
C1928 C1924 1.385 . S
C1928 C1927 1.374 1_455 S
C1929 C1926 1.499 1_565 S
C1929 C1930 1.373 1_565 S
C1929 C1931 1.389 . S
C1930 H1903 0.950 . S
C1930 C1916 1.377 . S
C1930 C1929 1.373 1_545 S
C1931 C1915 1.377 . S
C1931 C1929 1.389 . S
C1931 C1932 1.524 . S
C1932 C1931 1.524 . S
C1932 C1933 1.397 . S
C1932 C1937 1.363 . S
C1933 H1904 0.950 . S
C1933 C1932 1.397 . S
C1933 C1934 1.334 1_655 S
C1934 H1905 0.950 . S
C1934 C1933 1.334 1_455 S
C1934 C1935 1.287 . S
C1935 C1934 1.287 . S
C1935 C1936 1.524 1_455 S
C1935 H1938 0.999 . S
C1936 H1906 0.950 1_655 S
C1936 C1935 1.524 1_655 S
C1936 C1937 1.415 . S
C1937 H1907 0.950 . S
C1937 C1932 1.363 . S
C1937 C1936 1.415 . S
H1938 C1935 0.999 . S
H1939 C1920 0.913 . S
H1940 C1958 0.951 . S
H1941 C1960 0.951 . S
H1942 C1962 0.950 . S
H1943 C1963 0.950 . S
H1944 C1965 0.950 . S
H1945 C1968 0.950 . S
H1946 C1969 0.950 . S
H1947 C1971 0.950 . S
H1948 C1972 0.950 . S
H1949 C1973 0.951 . S
H1950 C1975 0.951 . S
H1951 C1977 0.950 . S
H1952 C1978 0.950 . S
H1953 C1980 0.950 . S
H1954 C1983 0.950 . S
H1955 C1984 0.950 . S
H1956 C1986 0.950 . S
H1957 C1987 0.950 . S
C1958 H1940 0.951 . S
C1958 C1959 1.366 . S
C1958 C1960 1.388 . S
C1959 C1958 1.366 . S
C1959 C1963 1.385 . S
C1960 H1941 0.951 . S
C1960 C1958 1.388 . S
C1960 C1961 1.366 . S
C1961 C1960 1.366 . S
C1961 C1962 1.414 . S
C1961 C1964 1.499 . S
C1962 H1942 0.950 . S
C1962 C1961 1.414 . S
C1962 C1963 1.374 . S
C1963 H1943 0.950 . S
C1963 C1959 1.385 . S
C1963 C1962 1.374 . S
C1964 C1961 1.499 . S
C1964 C1965 1.373 . S
C1964 C1966 1.389 . S
C1965 H1944 0.950 . S
C1965 C1964 1.373 . S
C1965 C1981 1.377 . S
C1966 C1964 1.389 . S
C1966 C1967 1.524 . S
C1966 C1980 1.377 . S
C1967 C1966 1.524 . S
C1967 C1968 1.397 . S
C1967 C1972 1.363 . S
C1968 H1945 0.950 . S
C1968 C1967 1.397 . S
C1968 C1969 1.334 . S
C1969 H1946 0.950 . S
C1969 C1968 1.334 . S
C1969 C1970 1.287 . S
C1970 C1969 1.287 . S
C1970 C1971 1.524 . S
C1970 H1989 0.913 . S
C1971 H1947 0.950 . S
C1971 C1970 1.524 . S
C1971 C1972 1.415 . S
C1972 H1948 0.950 . S
C1972 C1967 1.363 . S
C1972 C1971 1.415 . S
C1973 H1949 0.951 . S
C1973 C1974 1.366 . S
C1973 C1975 1.388 . S
C1974 C1973 1.366 . S
C1974 C1978 1.385 . S
C1975 H1950 0.951 . S
C1975 C1973 1.388 . S
C1975 C1976 1.366 . S
C1976 C1975 1.366 . S
C1976 C1977 1.414 . S
C1976 C1979 1.499 . S
C1977 H1951 0.950 . S
C1977 C1976 1.414 . S
C1977 C1978 1.374 . S
C1978 H1952 0.950 . S
C1978 C1974 1.385 . S
C1978 C1977 1.374 . S
C1979 C1976 1.499 . S
C1979 C1980 1.373 . S
C1979 C1981 1.389 . S
C1980 H1953 0.950 . S
C1980 C1966 1.377 . S
C1980 C1979 1.373 . S
C1981 C1965 1.377 . S
C1981 C1979 1.389 . S
C1981 C1982 1.524 . S
C1982 C1981 1.524 . S
C1982 C1983 1.397 . S
C1982 C1987 1.363 . S
C1983 H1954 0.950 . S
C1983 C1982 1.397 . S
C1983 C1984 1.334 . S
C1984 H1955 0.950 . S
C1984 C1983 1.334 . S
C1984 C1985 1.287 . S
C1985 C1984 1.287 . S
C1985 C1986 1.524 . S
C1985 H1988 0.999 . S
C1986 H1956 0.950 . S
C1986 C1985 1.524 . S
C1986 C1987 1.415 . S
C1987 H1957 0.950 . S
C1987 C1982 1.363 . S
C1987 C1986 1.415 . S
H1988 C1985 0.999 . S
H1989 C1970 0.913 . S
H1990 C2008 0.951 . S
H1991 C2010 0.951 . S
H1992 C2012 0.950 . S
H1993 C2013 0.950 . S
H1994 C2015 0.950 . S
H1995 C2018 0.950 . S
H1996 C2019 0.950 . S
H1997 C2021 0.950 . S
H1998 C2022 0.950 . S
H1999 C2023 0.951 . S
H2000 C2025 0.951 . S
H2001 C2027 0.950 . S
H2002 C2028 0.950 . S
H2003 C2030 0.950 . S
H2004 C2033 0.950 . S
H2005 C2034 0.950 . S
H2006 C2036 0.950 . S
H2007 C2037 0.950 . S
C2008 H1990 0.951 . S
C2008 C2009 1.366 . S
C2008 C2010 1.388 . S
C2009 C2008 1.366 . S
C2009 C2013 1.385 . S
C2010 H1991 0.951 . S
C2010 C2008 1.388 . S
C2010 C2011 1.366 . S
C2011 C2010 1.366 . S
C2011 C2012 1.414 . S
C2011 C2014 1.499 . S
C2012 H1992 0.950 . S
C2012 C2011 1.414 . S
C2012 C2013 1.374 . S
C2013 H1993 0.950 . S
C2013 C2009 1.385 . S
C2013 C2012 1.374 . S
C2014 C2011 1.499 . S
C2014 C2015 1.373 . S
C2014 C2016 1.389 . S
C2015 H1994 0.950 . S
C2015 C2014 1.373 . S
C2015 C2031 1.377 . S
C2016 C2014 1.389 . S
C2016 C2017 1.524 . S
C2016 C2030 1.377 . S
C2017 C2016 1.524 . S
C2017 C2018 1.397 . S
C2017 C2022 1.363 . S
C2018 H1995 0.950 . S
C2018 C2017 1.397 . S
C2018 C2019 1.334 . S
C2019 H1996 0.950 . S
C2019 C2018 1.334 . S
C2019 C2020 1.287 . S
C2020 C2019 1.287 . S
C2020 C2021 1.524 . S
C2020 H2039 0.913 . S
C2021 H1997 0.950 . S
C2021 C2020 1.524 . S
C2021 C2022 1.415 . S
C2022 H1998 0.950 . S
C2022 C2017 1.363 . S
C2022 C2021 1.415 . S
C2023 H1999 0.951 . S
C2023 C2024 1.366 . S
C2023 C2025 1.388 . S
C2024 C2023 1.366 . S
C2024 C2028 1.385 . S
C2025 H2000 0.951 . S
C2025 C2023 1.388 . S
C2025 C2026 1.366 . S
C2026 C2025 1.366 . S
C2026 C2027 1.414 . S
C2026 C2029 1.499 . S
C2027 H2001 0.950 . S
C2027 C2026 1.414 . S
C2027 C2028 1.374 . S
C2028 H2002 0.950 . S
C2028 C2024 1.385 . S
C2028 C2027 1.374 . S
C2029 C2026 1.499 . S
C2029 C2030 1.373 . S
C2029 C2031 1.389 . S
C2030 H2003 0.950 . S
C2030 C2016 1.377 . S
C2030 C2029 1.373 . S
C2031 C2015 1.377 . S
C2031 C2029 1.389 . S
C2031 C2032 1.524 . S
C2032 C2031 1.524 . S
C2032 C2033 1.397 . S
C2032 C2037 1.363 . S
C2033 H2004 0.950 . S
C2033 C2032 1.397 . S
C2033 C2034 1.334 . S
C2034 H2005 0.950 . S
C2034 C2033 1.334 . S
C2034 C2035 1.287 . S
C2035 C2034 1.287 . S
C2035 C2036 1.524 . S
C2035 H2038 0.999 . S
C2036 H2006 0.950 . S
C2036 C2035 1.524 . S
C2036 C2037 1.415 . S
C2037 H2007 0.950 . S
C2037 C2032 1.363 . S
C2037 C2036 1.415 . S
H2038 C2035 0.999 . S
H2039 C2020 0.913 . S
H2040 C2058 0.951 . S
H2041 C2060 0.951 . S
H2042 C2062 0.950 . S
H2043 C2063 0.950 . S
H2044 C2065 0.950 . S
H2045 C2068 0.950 . S
H2046 C2069 0.950 . S
H2047 C2071 0.950 . S
H2048 C2072 0.950 . S
H2049 C2073 0.951 . S
H2050 C2075 0.951 . S
H2051 C2077 0.950 . S
H2052 C2078 0.950 . S
H2053 C2080 0.950 . S
H2054 C2083 0.950 . S
H2055 C2084 0.950 . S
H2056 C2086 0.950 . S
H2057 C2087 0.950 . S
C2058 H2040 0.951 . S
C2058 C2059 1.366 . S
C2058 C2060 1.388 . S
C2059 C2058 1.366 . S
C2059 C2063 1.385 . S
C2060 H2041 0.951 . S
C2060 C2058 1.388 . S
C2060 C2061 1.366 . S
C2061 C2060 1.366 . S
C2061 C2062 1.414 . S
C2061 C2064 1.499 . S
C2062 H2042 0.950 . S
C2062 C2061 1.414 . S
C2062 C2063 1.374 . S
C2063 H2043 0.950 . S
C2063 C2059 1.385 . S
C2063 C2062 1.374 . S
C2064 C2061 1.499 . S
C2064 C2065 1.373 . S
C2064 C2066 1.389 . S
C2065 H2044 0.950 . S
C2065 C2064 1.373 . S
C2065 C2081 1.377 . S
C2066 C2064 1.389 . S
C2066 C2067 1.524 . S
C2066 C2080 1.377 . S
C2067 C2066 1.524 . S
C2067 C2068 1.397 . S
C2067 C2072 1.363 . S
C2068 H2045 0.950 . S
C2068 C2067 1.397 . S
C2068 C2069 1.334 . S
C2069 H2046 0.950 . S
C2069 C2068 1.334 . S
C2069 C2070 1.287 . S
C2070 C2069 1.287 . S
C2070 C2071 1.524 . S
C2070 H2089 0.913 . S
C2071 H2047 0.950 . S
C2071 C2070 1.524 . S
C2071 C2072 1.415 . S
C2072 H2048 0.950 . S
C2072 C2067 1.363 . S
C2072 C2071 1.415 . S
C2073 H2049 0.951 . S
C2073 C2074 1.366 . S
C2073 C2075 1.388 . S
C2074 C2073 1.366 . S
C2074 C2078 1.385 . S
C2075 H2050 0.951 . S
C2075 C2073 1.388 . S
C2075 C2076 1.366 . S
C2076 C2075 1.366 . S
C2076 C2077 1.414 . S
C2076 C2079 1.499 . S
C2077 H2051 0.950 . S
C2077 C2076 1.414 . S
C2077 C2078 1.374 . S
C2078 H2052 0.950 . S
C2078 C2074 1.385 . S
C2078 C2077 1.374 . S
C2079 C2076 1.499 . S
C2079 C2080 1.373 . S
C2079 C2081 1.389 . S
C2080 H2053 0.950 . S
C2080 C2066 1.377 . S
C2080 C2079 1.373 . S
C2081 C2065 1.377 . S
C2081 C2079 1.389 . S
C2081 C2082 1.524 . S
C2082 C2081 1.524 . S
C2082 C2083 1.397 . S
C2082 C2087 1.363 . S
C2083 H2054 0.950 . S
C2083 C2082 1.397 . S
C2083 C2084 1.334 . S
C2084 H2055 0.950 . S
C2084 C2083 1.334 . S
C2084 C2085 1.287 . S
C2085 C2084 1.287 . S
C2085 C2086 1.524 . S
C2085 H2088 0.999 . S
C2086 H2056 0.950 . S
C2086 C2085 1.524 . S
C2086 C2087 1.415 . S
C2087 H2057 0.950 . S
C2087 C2082 1.363 . S
C2087 C2086 1.415 . S
H2088 C2085 0.999 . S
H2089 C2070 0.913 . S
H2090 C2108 0.951 . S
H2091 C2110 0.950 1_455 S
H2092 C2112 0.950 . S
H2093 C2113 0.950 . S
H2094 C2115 0.950 . S
H2095 C2118 0.950 1_565 S
H2096 C2119 0.950 1_565 S
H2097 C2121 0.950 1_655 S
H2098 C2122 0.950 . S
H2099 C2123 0.951 . S
H2100 C2125 0.951 1_565 S
H2101 C2127 0.950 . S
H2102 C2128 0.950 . S
H2103 C2130 0.950 . S
H2104 C2133 0.950 . S
H2105 C2134 0.950 . S
H2106 C2136 0.950 . S
H2107 C2137 0.950 . S
C2108 H2090 0.951 . S
C2108 C2109 1.366 1_545 S
C2108 C2110 1.388 . S
C2109 C2108 1.366 1_565 S
C2109 C2113 1.385 . S
C2110 H2091 0.950 1_655 S
C2110 C2108 1.388 . S
C2110 C2111 1.366 1_645 S
C2111 C2110 1.366 1_465 S
C2111 C2112 1.414 . S
C2111 C2114 1.499 1_565 S
C2112 H2092 0.950 . S
C2112 C2111 1.414 . S
C2112 C2113 1.374 1_455 S
C2113 H2093 0.950 . S
C2113 C2109 1.385 . S
C2113 C2112 1.374 1_655 S
C2114 C2111 1.499 1_545 S
C2114 C2115 1.373 1_545 S
C2114 C2116 1.389 . S
C2115 H2094 0.950 . S
C2115 C2114 1.373 1_565 S
C2115 C2131 1.377 1_565 S
C2116 C2114 1.389 . S
C2116 C2117 1.524 . S
C2116 C2130 1.377 . S
C2117 C2116 1.524 . S
C2117 C2118 1.397 . S
C2117 C2122 1.363 . S
C2118 H2095 0.950 1_545 S
C2118 C2117 1.397 . S
C2118 C2119 1.334 1_455 S
C2119 H2096 0.950 1_545 S
C2119 C2118 1.334 1_655 S
C2119 C2120 1.287 . S
C2120 C2119 1.287 . S
C2120 C2121 1.524 1_655 S
C2120 H2139 0.913 . S
C2121 H2097 0.950 1_455 S
C2121 C2120 1.524 1_455 S
C2121 C2122 1.415 . S
C2122 H2098 0.950 . S
C2122 C2117 1.363 . S
C2122 C2121 1.415 . S
C2123 H2099 0.951 . S
C2123 C2124 1.366 . S
C2123 C2125 1.388 . S
C2124 C2123 1.366 . S
C2124 C2128 1.385 . S
C2125 H2100 0.951 1_545 S
C2125 C2123 1.388 . S
C2125 C2126 1.366 . S
C2126 C2125 1.366 . S
C2126 C2127 1.414 . S
C2126 C2129 1.499 . S
C2127 H2101 0.950 . S
C2127 C2126 1.414 . S
C2127 C2128 1.374 . S
C2128 H2102 0.950 . S
C2128 C2124 1.385 . S
C2128 C2127 1.374 . S
C2129 C2126 1.499 . S
C2129 C2130 1.373 . S
C2129 C2131 1.389 . S
C2130 H2103 0.950 . S
C2130 C2116 1.377 . S
C2130 C2129 1.373 . S
C2131 C2115 1.377 1_545 S
C2131 C2129 1.389 . S
C2131 C2132 1.524 1_545 S
C2132 C2131 1.524 1_565 S
C2132 C2133 1.397 1_565 S
C2132 C2137 1.363 . S
C2133 H2104 0.950 . S
C2133 C2132 1.397 1_545 S
C2133 C2134 1.334 . S
C2134 H2105 0.950 . S
C2134 C2133 1.334 . S
C2134 C2135 1.287 1_545 S
C2135 C2134 1.287 1_565 S
C2135 C2136 1.524 . S
C2135 H2138 0.999 . S
C2136 H2106 0.950 . S
C2136 C2135 1.524 . S
C2136 C2137 1.415 . S
C2137 H2107 0.950 . S
C2137 C2132 1.363 . S
C2137 C2136 1.415 . S
H2138 C2135 0.999 . S
H2139 C2120 0.913 . S
H2140 C2158 0.951 . S
H2141 C2160 0.951 . S
H2142 C2162 0.950 . S
H2143 C2163 0.950 . S
H2144 C2165 0.950 . S
H2145 C2168 0.950 . S
H2146 C2169 0.950 . S
H2147 C2171 0.950 . S
H2148 C2172 0.950 . S
H2149 C2173 0.951 . S
H2150 C2175 0.951 . S
H2151 C2177 0.950 . S
H2152 C2178 0.950 . S
H2153 C2180 0.950 . S
H2154 C2183 0.950 . S
H2155 C2184 0.950 . S
H2156 C2186 0.950 . S
H2157 C2187 0.950 . S
C2158 H2140 0.951 . S
C2158 C2159 1.366 . S
C2158 C2160 1.388 . S
C2159 C2158 1.366 . S
C2159 C2163 1.385 . S
C2160 H2141 0.951 . S
C2160 C2158 1.388 . S
C2160 C2161 1.366 . S
C2161 C2160 1.366 . S
C2161 C2162 1.414 . S
C2161 C2164 1.499 . S
C2162 H2142 0.950 . S
C2162 C2161 1.414 . S
C2162 C2163 1.374 . S
C2163 H2143 0.950 . S
C2163 C2159 1.385 . S
C2163 C2162 1.374 . S
C2164 C2161 1.499 . S
C2164 C2165 1.373 . S
C2164 C2166 1.389 . S
C2165 H2144 0.950 . S
C2165 C2164 1.373 . S
C2165 C2181 1.377 . S
C2166 C2164 1.389 . S
C2166 C2167 1.524 . S
C2166 C2180 1.377 . S
C2167 C2166 1.524 . S
C2167 C2168 1.397 . S
C2167 C2172 1.363 . S
C2168 H2145 0.950 . S
C2168 C2167 1.397 . S
C2168 C2169 1.334 . S
C2169 H2146 0.950 . S
C2169 C2168 1.334 . S
C2169 C2170 1.287 . S
C2170 C2169 1.287 . S
C2170 C2171 1.524 . S
C2170 H2189 0.913 . S
C2171 H2147 0.950 . S
C2171 C2170 1.524 . S
C2171 C2172 1.415 . S
C2172 H2148 0.950 . S
C2172 C2167 1.363 . S
C2172 C2171 1.415 . S
C2173 H2149 0.951 . S
C2173 C2174 1.366 . S
C2173 C2175 1.388 . S
C2174 C2173 1.366 . S
C2174 C2178 1.385 . S
C2175 H2150 0.951 . S
C2175 C2173 1.388 . S
C2175 C2176 1.366 . S
C2176 C2175 1.366 . S
C2176 C2177 1.414 . S
C2176 C2179 1.499 . S
C2177 H2151 0.950 . S
C2177 C2176 1.414 . S
C2177 C2178 1.374 . S
C2178 H2152 0.950 . S
C2178 C2174 1.385 . S
C2178 C2177 1.374 . S
C2179 C2176 1.499 . S
C2179 C2180 1.373 . S
C2179 C2181 1.389 . S
C2180 H2153 0.950 . S
C2180 C2166 1.377 . S
C2180 C2179 1.373 . S
C2181 C2165 1.377 . S
C2181 C2179 1.389 . S
C2181 C2182 1.524 . S
C2182 C2181 1.524 . S
C2182 C2183 1.397 . S
C2182 C2187 1.363 . S
C2183 H2154 0.950 . S
C2183 C2182 1.397 . S
C2183 C2184 1.334 . S
C2184 H2155 0.950 . S
C2184 C2183 1.334 . S
C2184 C2185 1.287 . S
C2185 C2184 1.287 . S
C2185 C2186 1.524 . S
C2185 H2188 0.999 . S
C2186 H2156 0.950 . S
C2186 C2185 1.524 . S
C2186 C2187 1.415 . S
C2187 H2157 0.950 . S
C2187 C2182 1.363 . S
C2187 C2186 1.415 . S
H2188 C2185 0.999 . S
H2189 C2170 0.913 . S
H2190 C2208 0.951 . S
H2191 C2210 0.951 . S
H2192 C2212 0.950 . S
H2193 C2213 0.950 . S
H2194 C2215 0.950 . S
H2195 C2218 0.950 . S
H2196 C2219 0.950 . S
H2197 C2221 0.950 . S
H2198 C2222 0.950 . S
H2199 C2223 0.951 . S
H2200 C2225 0.951 . S
H2201 C2227 0.950 . S
H2202 C2228 0.950 . S
H2203 C2230 0.950 . S
H2204 C2233 0.950 1_565 S
H2205 C2234 0.950 . S
H2206 C2236 0.950 . S
H2207 C2237 0.950 . S
C2208 H2190 0.951 . S
C2208 C2209 1.366 . S
C2208 C2210 1.388 . S
C2209 C2208 1.366 . S
C2209 C2213 1.385 . S
C2210 H2191 0.951 . S
C2210 C2208 1.388 . S
C2210 C2211 1.366 . S
C2211 C2210 1.366 . S
C2211 C2212 1.414 . S
C2211 C2214 1.499 . S
C2212 H2192 0.950 . S
C2212 C2211 1.414 . S
C2212 C2213 1.374 . S
C2213 H2193 0.950 . S
C2213 C2209 1.385 . S
C2213 C2212 1.374 . S
C2214 C2211 1.499 . S
C2214 C2215 1.373 . S
C2214 C2216 1.389 . S
C2215 H2194 0.950 . S
C2215 C2214 1.373 . S
C2215 C2231 1.377 . S
C2216 C2214 1.389 . S
C2216 C2217 1.524 . S
C2216 C2230 1.377 . S
C2217 C2216 1.524 . S
C2217 C2218 1.397 . S
C2217 C2222 1.363 . S
C2218 H2195 0.950 . S
C2218 C2217 1.397 . S
C2218 C2219 1.334 . S
C2219 H2196 0.950 . S
C2219 C2218 1.334 . S
C2219 C2220 1.287 . S
C2220 C2219 1.287 . S
C2220 C2221 1.524 . S
C2220 H2239 0.913 . S
C2221 H2197 0.950 . S
C2221 C2220 1.524 . S
C2221 C2222 1.415 . S
C2222 H2198 0.950 . S
C2222 C2217 1.363 . S
C2222 C2221 1.415 . S
C2223 H2199 0.951 . S
C2223 C2224 1.366 . S
C2223 C2225 1.388 . S
C2224 C2223 1.366 . S
C2224 C2228 1.385 . S
C2225 H2200 0.951 . S
C2225 C2223 1.388 . S
C2225 C2226 1.366 . S
C2226 C2225 1.366 . S
C2226 C2227 1.414 . S
C2226 C2229 1.499 . S
C2227 H2201 0.950 . S
C2227 C2226 1.414 . S
C2227 C2228 1.374 . S
C2228 H2202 0.950 . S
C2228 C2224 1.385 . S
C2228 C2227 1.374 . S
C2229 C2226 1.499 . S
C2229 C2230 1.373 . S
C2229 C2231 1.389 . S
C2230 H2203 0.950 . S
C2230 C2216 1.377 . S
C2230 C2229 1.373 . S
C2231 C2215 1.377 . S
C2231 C2229 1.389 . S
C2231 C2232 1.524 . S
C2232 C2231 1.524 . S
C2232 C2233 1.397 1_565 S
C2232 C2237 1.363 1_565 S
C2233 H2204 0.950 1_545 S
C2233 C2232 1.397 1_545 S
C2233 C2234 1.334 . S
C2234 H2205 0.950 . S
C2234 C2233 1.334 . S
C2234 C2235 1.287 . S
C2235 C2234 1.287 . S
C2235 C2236 1.524 . S
C2235 H2238 0.999 . S
C2236 H2206 0.950 . S
C2236 C2235 1.524 . S
C2236 C2237 1.415 . S
C2237 H2207 0.950 . S
C2237 C2232 1.363 1_545 S
C2237 C2236 1.415 . S
H2238 C2235 0.999 . S
H2239 C2220 0.913 . S
H2240 C2258 0.951 . S
H2241 C2260 0.951 . S
H2242 C2262 0.950 . S
H2243 C2263 0.950 1_554 S
H2244 C2265 0.950 . S
H2245 C2268 0.950 . S
H2246 C2269 1.041 . S
H2247 C2271 0.950 . S
H2248 C2272 0.950 . S
H2249 C2273 0.951 . S
H2250 C2275 0.951 . S
H2251 C2277 0.950 . S
H2252 C2278 0.950 . S
H2253 C2280 0.950 . S
H2254 C2283 0.950 . S
H2255 C2284 0.950 . S
H2256 C2286 0.950 . S
H2257 C2287 0.950 . S
C2258 H2240 0.951 . S
C2258 C2259 1.366 . S
C2258 C2260 1.388 . S
C2259 C2258 1.366 . S
C2259 C2263 1.385 . S
C2260 H2241 0.951 . S
C2260 C2258 1.388 . S
C2260 C2261 1.366 . S
C2261 C2260 1.366 . S
C2261 C2262 1.414 . S
C2261 C2264 1.499 . S
C2262 H2242 0.950 . S
C2262 C2261 1.414 . S
C2262 C2263 1.374 . S
C2263 H2243 0.950 1_556 S
C2263 C2259 1.385 . S
C2263 C2262 1.374 . S
C2264 C2261 1.499 . S
C2264 C2265 1.373 . S
C2264 C2266 1.389 . S
C2265 H2244 0.950 . S
C2265 C2264 1.373 . S
C2265 C2281 1.377 . S
C2266 C2264 1.389 . S
C2266 C2267 1.524 . S
C2266 C2280 1.377 . S
C2267 C2266 1.524 . S
C2267 C2268 1.397 . S
C2267 C2272 1.363 . S
C2268 H2245 0.950 . S
C2268 C2267 1.397 . S
C2268 C2269 1.334 . S
C2269 H2246 1.041 . S
C2269 C2268 1.334 . S
C2269 C2270 1.287 . S
C2270 C2269 1.287 . S
C2270 C2271 1.524 . S
C2270 H2289 0.913 . S
C2271 H2247 0.950 . S
C2271 C2270 1.524 . S
C2271 C2272 1.415 . S
C2272 H2248 0.950 . S
C2272 C2267 1.363 . S
C2272 C2271 1.415 . S
C2273 H2249 0.951 . S
C2273 C2274 1.366 . S
C2273 C2275 1.388 . S
C2274 C2273 1.366 . S
C2274 C2278 1.385 . S
C2275 H2250 0.951 . S
C2275 C2273 1.388 . S
C2275 C2276 1.366 . S
C2276 C2275 1.366 . S
C2276 C2277 1.414 . S
C2276 C2279 1.499 . S
C2277 H2251 0.950 . S
C2277 C2276 1.414 . S
C2277 C2278 1.374 . S
C2278 H2252 0.950 . S
C2278 C2274 1.385 . S
C2278 C2277 1.374 . S
C2279 C2276 1.499 . S
C2279 C2280 1.373 . S
C2279 C2281 1.389 . S
C2280 H2253 0.950 . S
C2280 C2266 1.377 . S
C2280 C2279 1.373 . S
C2281 C2265 1.377 . S
C2281 C2279 1.389 . S
C2281 C2282 1.524 . S
C2282 C2281 1.524 . S
C2282 C2283 1.397 . S
C2282 C2287 1.363 . S
C2283 H2254 0.950 . S
C2283 C2282 1.397 . S
C2283 C2284 1.334 . S
C2284 H2255 0.950 . S
C2284 C2283 1.334 . S
C2284 C2285 1.308 . S
C2285 C2284 1.308 . S
C2285 C2286 1.518 1_545 S
C2285 H2288 0.979 1_545 S
C2286 H2256 0.950 . S
C2286 C2285 1.518 1_565 S
C2286 C2287 1.415 1_565 S
C2287 H2257 0.950 . S
C2287 C2282 1.363 . S
C2287 C2286 1.415 1_545 S
H2288 C2285 0.979 1_565 S
H2289 C2270 0.913 . S
H2290 C2308 0.951 . S
H2291 C2310 0.951 . S
H2292 C2312 0.950 . S
H2293 C2313 0.950 . S
H2294 C2315 0.950 . S
H2295 C2318 0.950 . S
H2296 C2319 0.950 . S
H2297 C2321 0.950 . S
H2298 C2322 0.950 . S
H2299 C2323 0.951 . S
H2300 C2325 0.951 . S
H2301 C2327 0.950 . S
H2302 C2328 0.950 . S
H2303 C2330 0.950 . S
H2304 C2333 0.950 . S
H2305 C2334 0.950 . S
H2306 C2336 0.950 . S
H2307 C2337 0.950 . S
C2308 H2290 0.951 . S
C2308 C2309 1.366 . S
C2308 C2310 1.388 . S
C2309 C2308 1.366 . S
C2309 C2313 1.385 . S
C2310 H2291 0.951 . S
C2310 C2308 1.388 . S
C2310 C2311 1.366 . S
C2311 C2310 1.366 . S
C2311 C2312 1.414 . S
C2311 C2314 1.499 . S
C2312 H2292 0.950 . S
C2312 C2311 1.414 . S
C2312 C2313 1.374 . S
C2313 H2293 0.950 . S
C2313 C2309 1.385 . S
C2313 C2312 1.374 . S
C2314 C2311 1.499 . S
C2314 C2315 1.373 . S
C2314 C2316 1.389 . S
C2315 H2294 0.950 . S
C2315 C2314 1.373 . S
C2315 C2331 1.377 . S
C2316 C2314 1.389 . S
C2316 C2317 1.524 . S
C2316 C2330 1.377 . S
C2317 C2316 1.524 . S
C2317 C2318 1.397 . S
C2317 C2322 1.363 . S
C2318 H2295 0.950 . S
C2318 C2317 1.397 . S
C2318 C2319 1.334 . S
C2319 H2296 0.950 . S
C2319 C2318 1.334 . S
C2319 C2320 1.287 . S
C2320 C2319 1.287 . S
C2320 C2321 1.524 . S
C2320 H2339 0.913 . S
C2321 H2297 0.950 . S
C2321 C2320 1.524 . S
C2321 C2322 1.415 . S
C2322 H2298 0.950 . S
C2322 C2317 1.363 . S
C2322 C2321 1.415 . S
C2323 H2299 0.951 . S
C2323 C2324 1.366 . S
C2323 C2325 1.388 . S
C2324 C2323 1.366 . S
C2324 C2328 1.385 . S
C2325 H2300 0.951 . S
C2325 C2323 1.388 . S
C2325 C2326 1.366 . S
C2326 C2325 1.366 . S
C2326 C2327 1.414 . S
C2326 C2329 1.499 . S
C2327 H2301 0.950 . S
C2327 C2326 1.414 . S
C2327 C2328 1.374 . S
C2328 H2302 0.950 . S
C2328 C2324 1.385 . S
C2328 C2327 1.374 . S
C2329 C2326 1.499 . S
C2329 C2330 1.373 . S
C2329 C2331 1.389 . S
C2330 H2303 0.950 . S
C2330 C2316 1.377 . S
C2330 C2329 1.373 . S
C2331 C2315 1.377 . S
C2331 C2329 1.389 . S
C2331 C2332 1.524 . S
C2332 C2331 1.524 . S
C2332 C2333 1.397 . S
C2332 C2337 1.363 . S
C2333 H2304 0.950 . S
C2333 C2332 1.397 . S
C2333 C2334 1.334 . S
C2334 H2305 0.950 . S
C2334 C2333 1.334 . S
C2334 C2335 1.287 . S
C2335 C2334 1.287 . S
C2335 C2336 1.524 . S
C2335 H2338 0.999 . S
C2336 H2306 0.950 . S
C2336 C2335 1.524 . S
C2336 C2337 1.415 . S
C2337 H2307 0.950 . S
C2337 C2332 1.363 . S
C2337 C2336 1.415 . S
H2338 C2335 0.999 . S
H2339 C2320 0.913 . S
H2340 C2358 0.951 . S
H2341 C2360 0.951 . S
H2342 C2362 0.950 . S
H2343 C2363 0.950 . S
H2344 C2365 0.950 . S
H2345 C2368 0.950 . S
H2346 C2369 0.950 . S
H2347 C2371 0.950 . S
H2348 C2372 0.950 . S
H2349 C2373 0.951 . S
H2350 C2375 0.951 . S
H2351 C2377 0.950 . S
H2352 C2378 0.950 . S
H2353 C2380 0.950 . S
H2354 C2383 0.950 . S
H2355 C2384 0.950 . S
H2356 C2386 0.950 . S
H2357 C2387 0.950 . S
C2358 H2340 0.951 . S
C2358 C2359 1.366 . S
C2358 C2360 1.388 . S
C2359 C2358 1.366 . S
C2359 C2363 1.385 . S
C2360 H2341 0.951 . S
C2360 C2358 1.388 . S
C2360 C2361 1.366 . S
C2361 C2360 1.366 . S
C2361 C2362 1.414 . S
C2361 C2364 1.499 . S
C2362 H2342 0.950 . S
C2362 C2361 1.414 . S
C2362 C2363 1.374 . S
C2363 H2343 0.950 . S
C2363 C2359 1.385 . S
C2363 C2362 1.374 . S
C2364 C2361 1.499 . S
C2364 C2365 1.373 . S
C2364 C2366 1.389 . S
C2365 H2344 0.950 . S
C2365 C2364 1.373 . S
C2365 C2381 1.377 . S
C2366 C2364 1.389 . S
C2366 C2367 1.524 . S
C2366 C2380 1.377 . S
C2367 C2366 1.524 . S
C2367 C2368 1.397 . S
C2367 C2372 1.363 . S
C2368 H2345 0.950 . S
C2368 C2367 1.397 . S
C2368 C2369 1.334 . S
C2369 H2346 0.950 . S
C2369 C2368 1.334 . S
C2369 C2370 1.287 . S
C2370 C2369 1.287 . S
C2370 C2371 1.524 . S
C2370 H2389 0.913 . S
C2371 H2347 0.950 . S
C2371 C2370 1.524 . S
C2371 C2372 1.415 . S
C2372 H2348 0.950 . S
C2372 C2367 1.363 . S
C2372 C2371 1.415 . S
C2373 H2349 0.951 . S
C2373 C2374 1.366 . S
C2373 C2375 1.388 . S
C2374 C2373 1.366 . S
C2374 C2378 1.385 . S
C2375 H2350 0.951 . S
C2375 C2373 1.388 . S
C2375 C2376 1.366 . S
C2376 C2375 1.366 . S
C2376 C2377 1.414 . S
C2376 C2379 1.499 . S
C2377 H2351 0.950 . S
C2377 C2376 1.414 . S
C2377 C2378 1.374 . S
C2378 H2352 0.950 . S
C2378 C2374 1.385 . S
C2378 C2377 1.374 . S
C2379 C2376 1.499 . S
C2379 C2380 1.373 . S
C2379 C2381 1.389 . S
C2380 H2353 0.950 . S
C2380 C2366 1.377 . S
C2380 C2379 1.373 . S
C2381 C2365 1.377 . S
C2381 C2379 1.389 . S
C2381 C2382 1.524 . S
C2382 C2381 1.524 . S
C2382 C2383 1.397 . S
C2382 C2387 1.363 . S
C2383 H2354 0.950 . S
C2383 C2382 1.397 . S
C2383 C2384 1.334 . S
C2384 H2355 0.950 . S
C2384 C2383 1.334 . S
C2384 C2385 1.287 . S
C2385 C2384 1.287 . S
C2385 C2386 1.524 . S
C2385 H2388 0.999 . S
C2386 H2356 0.950 . S
C2386 C2385 1.524 . S
C2386 C2387 1.415 . S
C2387 H2357 0.950 . S
C2387 C2382 1.363 . S
C2387 C2386 1.415 . S
H2388 C2385 0.999 . S
H2389 C2370 0.913 . S
H2390 C2408 0.951 . S
H2391 C2410 0.951 . S
H2392 C2412 0.950 . S
H2393 C2413 0.950 . S
H2394 C2415 0.950 . S
H2395 C2418 0.950 . S
H2396 C2419 0.950 . S
H2397 C2421 0.950 . S
H2398 C2422 0.950 . S
H2399 C2423 0.951 . S
H2400 C2425 0.951 . S
H2401 C2427 0.950 . S
H2402 C2428 0.950 . S
H2403 C2430 0.950 . S
H2404 C2433 0.950 . S
H2405 C2434 0.950 . S
H2406 C2436 0.950 . S
H2407 C2437 0.950 . S
C2408 H2390 0.951 . S
C2408 C2409 1.366 . S
C2408 C2410 1.388 . S
C2409 C2408 1.366 . S
C2409 C2413 1.385 . S
C2410 H2391 0.951 . S
C2410 C2408 1.388 . S
C2410 C2411 1.366 . S
C2411 C2410 1.366 . S
C2411 C2412 1.414 . S
C2411 C2414 1.499 . S
C2412 H2392 0.950 . S
C2412 C2411 1.414 . S
C2412 C2413 1.374 . S
C2413 H2393 0.950 . S
C2413 C2409 1.385 . S
C2413 C2412 1.374 . S
C2414 C2411 1.499 . S
C2414 C2415 1.373 . S
C2414 C2416 1.389 . S
C2415 H2394 0.950 . S
C2415 C2414 1.373 . S
C2415 C2431 1.377 . S
C2416 C2414 1.389 . S
C2416 C2417 1.524 . S
C2416 C2430 1.377 . S
C2417 C2416 1.524 . S
C2417 C2418 1.397 . S
C2417 C2422 1.363 . S
C2418 H2395 0.950 . S
C2418 C2417 1.397 . S
C2418 C2419 1.334 . S
C2419 H2396 0.950 . S
C2419 C2418 1.334 . S
C2419 C2420 1.287 . S
C2420 C2419 1.287 . S
C2420 C2421 1.524 . S
C2420 H2439 0.913 . S
C2421 H2397 0.950 . S
C2421 C2420 1.524 . S
C2421 C2422 1.415 . S
C2422 H2398 0.950 . S
C2422 C2417 1.363 . S
C2422 C2421 1.415 . S
C2423 H2399 0.951 . S
C2423 C2424 1.366 . S
C2423 C2425 1.388 . S
C2424 C2423 1.366 . S
C2424 C2428 1.385 . S
C2425 H2400 0.951 . S
C2425 C2423 1.388 . S
C2425 C2426 1.366 . S
C2426 C2425 1.366 . S
C2426 C2427 1.414 . S
C2426 C2429 1.499 . S
C2427 H2401 0.950 . S
C2427 C2426 1.414 . S
C2427 C2428 1.374 . S
C2428 H2402 0.950 . S
C2428 C2424 1.385 . S
C2428 C2427 1.374 . S
C2429 C2426 1.499 . S
C2429 C2430 1.373 . S
C2429 C2431 1.389 . S
C2430 H2403 0.950 . S
C2430 C2416 1.377 . S
C2430 C2429 1.373 . S
C2431 C2415 1.377 . S
C2431 C2429 1.389 . S
C2431 C2432 1.524 . S
C2432 C2431 1.524 . S
C2432 C2433 1.397 . S
C2432 C2437 1.363 . S
C2433 H2404 0.950 . S
C2433 C2432 1.397 . S
C2433 C2434 1.334 . S
C2434 H2405 0.950 . S
C2434 C2433 1.334 . S
C2434 C2435 1.287 . S
C2435 C2434 1.287 . S
C2435 C2436 1.524 . S
C2435 H2438 0.999 . S
C2436 H2406 0.950 . S
C2436 C2435 1.524 . S
C2436 C2437 1.415 . S
C2437 H2407 0.950 . S
C2437 C2432 1.363 . S
C2437 C2436 1.415 . S
H2438 C2435 0.999 . S
H2439 C2420 0.913 . S
H2440 C2458 0.951 . S
H2441 C2460 0.951 . S
H2442 C2462 0.950 . S
H2443 C2463 0.950 . S
H2444 C2465 0.950 . S
H2445 C2468 0.950 . S
H2446 C2469 0.950 . S
H2447 C2471 0.950 . S
H2448 C2472 0.950 . S
H2449 C2473 0.951 1_556 S
H2450 C2475 0.951 . S
H2451 C2477 0.950 . S
H2452 C2478 0.950 . S
H2453 C2480 0.950 . S
H2454 C2483 0.950 . S
H2455 C2484 0.971 . S
H2456 C2486 0.932 1_556 S
H2457 C2487 0.950 . S
C2458 H2440 0.951 . S
C2458 C2459 1.366 . S
C2458 C2460 1.388 . S
C2459 C2458 1.366 . S
C2459 C2463 1.385 . S
C2460 H2441 0.951 . S
C2460 C2458 1.388 . S
C2460 C2461 1.366 . S
C2461 C2460 1.366 . S
C2461 C2462 1.414 . S
C2461 C2464 1.499 . S
C2462 H2442 0.950 . S
C2462 C2461 1.414 . S
C2462 C2463 1.374 . S
C2463 H2443 0.950 . S
C2463 C2459 1.385 . S
C2463 C2462 1.374 . S
C2464 C2461 1.499 . S
C2464 C2465 1.373 . S
C2464 C2466 1.389 . S
C2465 H2444 0.950 . S
C2465 C2464 1.373 . S
C2465 C2481 1.377 . S
C2466 C2464 1.389 . S
C2466 C2467 1.524 . S
C2466 C2480 1.377 . S
C2467 C2466 1.524 . S
C2467 C2468 1.397 . S
C2467 C2472 1.363 . S
C2468 H2445 0.950 . S
C2468 C2467 1.397 . S
C2468 C2469 1.334 . S
C2469 H2446 0.950 . S
C2469 C2468 1.334 . S
C2469 C2470 1.287 . S
C2470 C2469 1.287 . S
C2470 C2471 1.524 . S
C2470 H2489 0.913 . S
C2471 H2447 0.950 . S
C2471 C2470 1.524 . S
C2471 C2472 1.415 . S
C2472 H2448 0.950 . S
C2472 C2467 1.363 . S
C2472 C2471 1.415 . S
C2473 H2449 0.951 1_554 S
C2473 C2474 1.366 . S
C2473 C2475 1.388 . S
C2474 C2473 1.366 . S
C2474 C2478 1.385 . S
C2475 H2450 0.951 . S
C2475 C2473 1.388 . S
C2475 C2476 1.366 . S
C2476 C2475 1.366 . S
C2476 C2477 1.414 . S
C2476 C2479 1.499 . S
C2477 H2451 0.950 . S
C2477 C2476 1.414 . S
C2477 C2478 1.374 . S
C2478 H2452 0.950 . S
C2478 C2474 1.385 . S
C2478 C2477 1.374 . S
C2479 C2476 1.499 . S
C2479 C2480 1.373 . S
C2479 C2481 1.389 . S
C2480 H2453 0.950 . S
C2480 C2466 1.377 . S
C2480 C2479 1.373 . S
C2481 C2465 1.377 . S
C2481 C2479 1.389 . S
C2481 C2482 1.524 . S
C2482 C2481 1.524 . S
C2482 C2483 1.397 . S
C2482 C2487 1.363 . S
C2483 H2454 0.950 . S
C2483 C2482 1.397 . S
C2483 C2484 1.305 1_554 S
C2484 H2455 0.971 . S
C2484 C2483 1.305 1_556 S
C2484 C2485 1.296 . S
C2485 C2484 1.296 . S
C2485 C2486 1.524 1_556 S
C2485 H2488 0.999 . S
C2486 H2456 0.932 1_554 S
C2486 C2485 1.524 1_554 S
C2486 C2487 1.415 . S
C2487 H2457 0.950 . S
C2487 C2482 1.363 . S
C2487 C2486 1.415 . S
H2488 C2485 0.999 . S
H2489 C2470 0.913 . S
H2490 C2508 0.951 . S
H2491 C2510 0.951 . S
H2492 C2512 0.950 . S
H2493 C2513 0.950 . S
H2494 C2515 0.950 . S
H2495 C2518 0.950 . S
H2496 C2519 0.950 . S
H2497 C2521 0.950 . S
H2498 C2522 0.950 . S
H2499 C2523 0.951 . S
H2500 C2525 0.951 . S
H2501 C2527 0.950 . S
H2502 C2528 0.950 . S
H2503 C2530 0.950 . S
H2504 C2533 0.950 . S
H2505 C2534 0.950 . S
H2506 C2536 0.950 . S
H2507 C2537 0.950 . S
C2508 H2490 0.951 . S
C2508 C2509 1.366 . S
C2508 C2510 1.388 . S
C2509 C2508 1.366 . S
C2509 C2513 1.385 . S
C2510 H2491 0.951 . S
C2510 C2508 1.388 . S
C2510 C2511 1.366 . S
C2511 C2510 1.366 . S
C2511 C2512 1.414 . S
C2511 C2514 1.499 . S
C2512 H2492 0.950 . S
C2512 C2511 1.414 . S
C2512 C2513 1.374 . S
C2513 H2493 0.950 . S
C2513 C2509 1.385 . S
C2513 C2512 1.374 . S
C2514 C2511 1.499 . S
C2514 C2515 1.373 . S
C2514 C2516 1.389 . S
C2515 H2494 0.950 . S
C2515 C2514 1.373 . S
C2515 C2531 1.377 . S
C2516 C2514 1.389 . S
C2516 C2517 1.524 . S
C2516 C2530 1.377 . S
C2517 C2516 1.524 . S
C2517 C2518 1.397 . S
C2517 C2522 1.363 . S
C2518 H2495 0.950 . S
C2518 C2517 1.397 . S
C2518 C2519 1.334 . S
C2519 H2496 0.950 . S
C2519 C2518 1.334 . S
C2519 C2520 1.287 . S
C2520 C2519 1.287 . S
C2520 C2521 1.524 . S
C2520 H2539 0.913 . S
C2521 H2497 0.950 . S
C2521 C2520 1.524 . S
C2521 C2522 1.415 . S
C2522 H2498 0.950 . S
C2522 C2517 1.363 . S
C2522 C2521 1.415 . S
C2523 H2499 0.951 . S
C2523 C2524 1.366 . S
C2523 C2525 1.388 . S
C2524 C2523 1.366 . S
C2524 C2528 1.385 . S
C2525 H2500 0.951 . S
C2525 C2523 1.388 . S
C2525 C2526 1.366 . S
C2526 C2525 1.366 . S
C2526 C2527 1.414 . S
C2526 C2529 1.499 . S
C2527 H2501 0.950 . S
C2527 C2526 1.414 . S
C2527 C2528 1.374 . S
C2528 H2502 0.950 . S
C2528 C2524 1.385 . S
C2528 C2527 1.374 . S
C2529 C2526 1.499 . S
C2529 C2530 1.373 . S
C2529 C2531 1.389 . S
C2530 H2503 0.950 . S
C2530 C2516 1.377 . S
C2530 C2529 1.373 . S
C2531 C2515 1.377 . S
C2531 C2529 1.389 . S
C2531 C2532 1.524 . S
C2532 C2531 1.524 . S
C2532 C2533 1.397 . S
C2532 C2537 1.363 . S
C2533 H2504 0.950 . S
C2533 C2532 1.397 . S
C2533 C2534 1.334 . S
C2534 H2505 0.950 . S
C2534 C2533 1.334 . S
C2534 C2535 1.287 . S
C2535 C2534 1.287 . S
C2535 C2536 1.524 . S
C2535 H2538 0.999 . S
C2536 H2506 0.950 . S
C2536 C2535 1.524 . S
C2536 C2537 1.415 . S
C2537 H2507 0.950 . S
C2537 C2532 1.363 . S
C2537 C2536 1.415 . S
H2538 C2535 0.999 . S
H2539 C2520 0.913 . S
H2540 C2558 0.951 . S
H2541 C2560 0.951 . S
H2542 C2562 0.950 . S
H2543 C2563 0.950 . S
H2544 C2565 0.950 . S
H2545 C2568 0.950 . S
H2546 C2569 0.950 1_565 S
H2547 C2571 0.950 . S
H2548 C2572 0.950 . S
H2549 C2573 0.951 . S
H2550 C2575 0.951 . S
H2551 C2577 0.950 . S
H2552 C2578 0.950 . S
H2553 C2580 0.950 . S
H2554 C2583 0.950 . S
H2555 C2584 0.950 . S
H2556 C2586 0.950 . S
H2557 C2587 0.950 . S
C2558 H2540 0.951 . S
C2558 C2559 1.366 . S
C2558 C2560 1.388 . S
C2559 C2558 1.366 . S
C2559 C2563 1.385 . S
C2560 H2541 0.951 . S
C2560 C2558 1.388 . S
C2560 C2561 1.366 . S
C2561 C2560 1.366 . S
C2561 C2562 1.414 . S
C2561 C2564 1.499 . S
C2562 H2542 0.950 . S
C2562 C2561 1.414 . S
C2562 C2563 1.374 . S
C2563 H2543 0.950 . S
C2563 C2559 1.385 . S
C2563 C2562 1.374 . S
C2564 C2561 1.499 . S
C2564 C2565 1.373 . S
C2564 C2566 1.389 . S
C2565 H2544 0.950 . S
C2565 C2564 1.373 . S
C2565 C2581 1.377 . S
C2566 C2564 1.389 . S
C2566 C2567 1.524 . S
C2566 C2580 1.377 . S
C2567 C2566 1.524 . S
C2567 C2568 1.397 . S
C2567 C2572 1.363 . S
C2568 H2545 0.950 . S
C2568 C2567 1.397 . S
C2568 C2569 1.334 . S
C2569 H2546 0.950 1_545 S
C2569 C2568 1.334 . S
C2569 C2570 1.287 . S
C2570 C2569 1.287 . S
C2570 C2571 1.524 . S
C2570 H2589 0.913 . S
C2571 H2547 0.950 . S
C2571 C2570 1.524 . S
C2571 C2572 1.415 . S
C2572 H2548 0.950 . S
C2572 C2567 1.363 . S
C2572 C2571 1.415 . S
C2573 H2549 0.951 . S
C2573 C2574 1.366 . S
C2573 C2575 1.388 . S
C2574 C2573 1.366 . S
C2574 C2578 1.385 . S
C2575 H2550 0.951 . S
C2575 C2573 1.388 . S
C2575 C2576 1.366 . S
C2576 C2575 1.366 . S
C2576 C2577 1.414 . S
C2576 C2579 1.499 . S
C2577 H2551 0.950 . S
C2577 C2576 1.414 . S
C2577 C2578 1.374 . S
C2578 H2552 0.950 . S
C2578 C2574 1.385 . S
C2578 C2577 1.374 . S
C2579 C2576 1.499 . S
C2579 C2580 1.373 . S
C2579 C2581 1.389 . S
C2580 H2553 0.950 . S
C2580 C2566 1.377 . S
C2580 C2579 1.373 . S
C2581 C2565 1.377 . S
C2581 C2579 1.389 . S
C2581 C2582 1.524 . S
C2582 C2581 1.524 . S
C2582 C2583 1.397 . S
C2582 C2587 1.363 . S
C2583 H2554 0.950 . S
C2583 C2582 1.397 . S
C2583 C2584 1.334 . S
C2584 H2555 0.950 . S
C2584 C2583 1.334 . S
C2584 C2585 1.287 . S
C2585 C2584 1.287 . S
C2585 C2586 1.524 . S
C2585 H2588 0.999 . S
C2586 H2556 0.950 . S
C2586 C2585 1.524 . S
C2586 C2587 1.415 . S
C2587 H2557 0.950 . S
C2587 C2582 1.363 . S
C2587 C2586 1.415 . S
H2588 C2585 0.999 . S
H2589 C2570 0.913 . S
H2590 C2608 0.951 . S
H2591 C2610 0.951 . S
H2592 C2612 0.950 . S
H2593 C2613 0.950 . S
H2594 C2615 0.950 . S
H2595 C2618 0.950 . S
H2596 C2619 0.950 . S
H2597 C2621 0.950 . S
H2598 C2622 0.950 . S
H2599 C2623 0.951 . S
H2600 C2625 0.951 . S
H2601 C2627 0.950 . S
H2602 C2628 0.950 . S
H2603 C2630 0.950 . S
H2604 C2633 0.950 . S
H2605 C2634 0.950 . S
H2606 C2636 0.950 . S
H2607 C2637 0.950 . S
C2608 H2590 0.951 . S
C2608 C2609 1.366 . S
C2608 C2610 1.388 . S
C2609 C2608 1.366 . S
C2609 C2613 1.385 . S
C2610 H2591 0.951 . S
C2610 C2608 1.388 . S
C2610 C2611 1.366 . S
C2611 C2610 1.366 . S
C2611 C2612 1.414 . S
C2611 C2614 1.499 . S
C2612 H2592 0.950 . S
C2612 C2611 1.414 . S
C2612 C2613 1.374 . S
C2613 H2593 0.950 . S
C2613 C2609 1.385 . S
C2613 C2612 1.374 . S
C2614 C2611 1.499 . S
C2614 C2615 1.373 . S
C2614 C2616 1.389 . S
C2615 H2594 0.950 . S
C2615 C2614 1.373 . S
C2615 C2631 1.377 . S
C2616 C2614 1.389 . S
C2616 C2617 1.524 . S
C2616 C2630 1.377 . S
C2617 C2616 1.524 . S
C2617 C2618 1.397 . S
C2617 C2622 1.363 . S
C2618 H2595 0.950 . S
C2618 C2617 1.397 . S
C2618 C2619 1.334 . S
C2619 H2596 0.950 . S
C2619 C2618 1.334 . S
C2619 C2620 1.287 . S
C2620 C2619 1.287 . S
C2620 C2621 1.524 . S
C2620 H2639 0.913 . S
C2621 H2597 0.950 . S
C2621 C2620 1.524 . S
C2621 C2622 1.415 . S
C2622 H2598 0.950 . S
C2622 C2617 1.363 . S
C2622 C2621 1.415 . S
C2623 H2599 0.951 . S
C2623 C2624 1.366 . S
C2623 C2625 1.388 . S
C2624 C2623 1.366 . S
C2624 C2628 1.385 . S
C2625 H2600 0.951 . S
C2625 C2623 1.388 . S
C2625 C2626 1.366 . S
C2626 C2625 1.366 . S
C2626 C2627 1.414 . S
C2626 C2629 1.499 . S
C2627 H2601 0.950 . S
C2627 C2626 1.414 . S
C2627 C2628 1.374 . S
C2628 H2602 0.950 . S
C2628 C2624 1.385 . S
C2628 C2627 1.374 . S
C2629 C2626 1.499 . S
C2629 C2630 1.373 . S
C2629 C2631 1.389 . S
C2630 H2603 0.950 . S
C2630 C2616 1.377 . S
C2630 C2629 1.373 . S
C2631 C2615 1.377 . S
C2631 C2629 1.389 . S
C2631 C2632 1.524 . S
C2632 C2631 1.524 . S
C2632 C2633 1.397 . S
C2632 C2637 1.363 . S
C2633 H2604 0.950 . S
C2633 C2632 1.397 . S
C2633 C2634 1.334 . S
C2634 H2605 0.950 . S
C2634 C2633 1.334 . S
C2634 C2635 1.287 . S
C2635 C2634 1.287 . S
C2635 C2636 1.524 . S
C2635 H2638 0.999 . S
C2636 H2606 0.950 . S
C2636 C2635 1.524 . S
C2636 C2637 1.415 . S
C2637 H2607 0.950 . S
C2637 C2632 1.363 . S
C2637 C2636 1.415 . S
H2638 C2635 0.999 . S
H2639 C2620 0.913 . S
H2640 C2658 0.951 . S
H2641 C2660 0.951 . S
H2642 C2662 0.950 . S
H2643 C2663 0.950 . S
H2644 C2665 0.950 . S
H2645 C2668 0.950 . S
H2646 C2669 0.950 . S
H2647 C2671 0.950 . S
H2648 C2672 0.950 . S
H2649 C2673 0.951 . S
H2650 C2675 0.951 . S
H2651 C2677 0.950 . S
H2652 C2678 0.950 . S
H2653 C2680 0.950 . S
H2654 C2683 0.950 . S
H2655 C2684 0.950 . S
H2656 C2686 0.950 . S
H2657 C2687 0.950 . S
C2658 H2640 0.951 . S
C2658 C2659 1.366 . S
C2658 C2660 1.388 . S
C2659 C2658 1.366 . S
C2659 C2663 1.385 . S
C2660 H2641 0.951 . S
C2660 C2658 1.388 . S
C2660 C2661 1.366 . S
C2661 C2660 1.366 . S
C2661 C2662 1.414 . S
C2661 C2664 1.499 . S
C2662 H2642 0.950 . S
C2662 C2661 1.414 . S
C2662 C2663 1.374 . S
C2663 H2643 0.950 . S
C2663 C2659 1.385 . S
C2663 C2662 1.374 . S
C2664 C2661 1.499 . S
C2664 C2665 1.373 . S
C2664 C2666 1.389 . S
C2665 H2644 0.950 . S
C2665 C2664 1.373 . S
C2665 C2681 1.377 . S
C2666 C2664 1.389 . S
C2666 C2667 1.524 . S
C2666 C2680 1.377 . S
C2667 C2666 1.524 . S
C2667 C2668 1.397 . S
C2667 C2672 1.363 . S
C2668 H2645 0.950 . S
C2668 C2667 1.397 . S
C2668 C2669 1.334 . S
C2669 H2646 0.950 . S
C2669 C2668 1.334 . S
C2669 C2670 1.287 . S
C2670 C2669 1.287 . S
C2670 C2671 1.524 . S
C2670 H2689 0.913 . S
C2671 H2647 0.950 . S
C2671 C2670 1.524 . S
C2671 C2672 1.415 . S
C2672 H2648 0.950 . S
C2672 C2667 1.363 . S
C2672 C2671 1.415 . S
C2673 H2649 0.951 . S
C2673 C2674 1.366 . S
C2673 C2675 1.388 . S
C2674 C2673 1.366 . S
C2674 C2678 1.385 . S
C2675 H2650 0.951 . S
C2675 C2673 1.388 . S
C2675 C2676 1.366 . S
C2676 C2675 1.366 . S
C2676 C2677 1.414 . S
C2676 C2679 1.499 . S
C2677 H2651 0.950 . S
C2677 C2676 1.414 . S
C2677 C2678 1.374 . S
C2678 H2652 0.950 . S
C2678 C2674 1.385 . S
C2678 C2677 1.374 . S
C2679 C2676 1.499 . S
C2679 C2680 1.373 . S
C2679 C2681 1.389 . S
C2680 H2653 0.950 . S
C2680 C2666 1.377 . S
C2680 C2679 1.373 . S
C2681 C2665 1.377 . S
C2681 C2679 1.389 . S
C2681 C2682 1.524 . S
C2682 C2681 1.524 . S
C2682 C2683 1.397 . S
C2682 C2687 1.363 . S
C2683 H2654 0.950 . S
C2683 C2682 1.397 . S
C2683 C2684 1.334 . S
C2684 H2655 0.950 . S
C2684 C2683 1.334 . S
C2684 C2685 1.287 . S
C2685 C2684 1.287 . S
C2685 C2686 1.524 . S
C2685 H2688 0.999 . S
C2686 H2656 0.950 . S
C2686 C2685 1.524 . S
C2686 C2687 1.415 . S
C2687 H2657 0.950 . S
C2687 C2682 1.363 . S
C2687 C2686 1.415 . S
H2688 C2685 0.999 . S
H2689 C2670 0.913 . S
H2690 C2708 0.951 . S
H2691 C2710 0.951 . S
H2692 C2712 0.950 . S
H2693 C2713 0.950 . S
H2694 C2715 0.950 . S
H2695 C2718 0.950 . S
H2696 C2719 0.950 . S
H2697 C2721 0.950 . S
H2698 C2722 0.950 . S
H2699 C2723 0.951 . S
H2700 C2725 0.951 . S
H2701 C2727 0.950 . S
H2702 C2728 0.951 . S
H2703 C2730 0.950 . S
H2704 C2733 0.950 . S
H2705 C2734 0.950 . S
H2706 C2736 0.950 . S
H2707 C2737 0.950 . S
C2708 H2690 0.951 . S
C2708 C2709 1.366 . S
C2708 C2710 1.388 . S
C2709 C2708 1.366 . S
C2709 C2713 1.385 . S
C2710 H2691 0.951 . S
C2710 C2708 1.388 . S
C2710 C2711 1.366 . S
C2711 C2710 1.366 . S
C2711 C2712 1.414 . S
C2711 C2714 1.499 . S
C2712 H2692 0.950 . S
C2712 C2711 1.414 . S
C2712 C2713 1.374 . S
C2713 H2693 0.950 . S
C2713 C2709 1.385 . S
C2713 C2712 1.374 . S
C2714 C2711 1.499 . S
C2714 C2715 1.373 . S
C2714 C2716 1.389 . S
C2715 H2694 0.950 . S
C2715 C2714 1.373 . S
C2715 C2731 1.377 . S
C2716 C2714 1.389 . S
C2716 C2717 1.524 . S
C2716 C2730 1.377 . S
C2717 C2716 1.524 . S
C2717 C2718 1.397 . S
C2717 C2722 1.363 . S
C2718 H2695 0.950 . S
C2718 C2717 1.397 . S
C2718 C2719 1.334 . S
C2719 H2696 0.950 . S
C2719 C2718 1.334 . S
C2719 C2720 1.287 . S
C2720 C2719 1.287 . S
C2720 C2721 1.524 . S
C2720 H2739 0.913 . S
C2721 H2697 0.950 . S
C2721 C2720 1.524 . S
C2721 C2722 1.415 . S
C2722 H2698 0.950 . S
C2722 C2717 1.363 . S
C2722 C2721 1.415 . S
C2723 H2699 0.951 . S
C2723 C2724 1.366 . S
C2723 C2725 1.388 . S
C2724 C2723 1.366 . S
C2724 C2728 1.378 1_545 S
C2725 H2700 0.951 . S
C2725 C2723 1.388 . S
C2725 C2726 1.366 1_545 S
C2726 C2725 1.366 1_565 S
C2726 C2727 1.414 . S
C2726 C2729 1.499 . S
C2727 H2701 0.950 . S
C2727 C2726 1.414 . S
C2727 C2728 1.379 . S
C2728 H2702 0.951 . S
C2728 C2724 1.378 1_565 S
C2728 C2727 1.379 . S
C2729 C2726 1.499 . S
C2729 C2730 1.373 . S
C2729 C2731 1.389 . S
C2730 H2703 0.950 . S
C2730 C2716 1.377 . S
C2730 C2729 1.373 . S
C2731 C2715 1.377 . S
C2731 C2729 1.389 . S
C2731 C2732 1.524 1_565 S
C2732 C2731 1.524 1_545 S
C2732 C2733 1.397 . S
C2732 C2737 1.363 . S
C2733 H2704 0.950 . S
C2733 C2732 1.397 . S
C2733 C2734 1.334 . S
C2734 H2705 0.950 . S
C2734 C2733 1.334 . S
C2734 C2735 1.287 . S
C2735 C2734 1.287 . S
C2735 C2736 1.524 . S
C2735 H2738 0.999 . S
C2736 H2706 0.950 . S
C2736 C2735 1.524 . S
C2736 C2737 1.415 . S
C2737 H2707 0.950 . S
C2737 C2732 1.363 . S
C2737 C2736 1.415 . S
H2738 C2735 0.999 . S
H2739 C2720 0.913 . S
H2740 C2758 0.951 . S
H2741 C2760 0.951 . S
H2742 C2762 0.950 . S
H2743 C2763 0.950 . S
H2744 C2765 0.950 . S
H2745 C2768 0.950 . S
H2746 C2769 0.950 . S
H2747 C2771 0.950 . S
H2748 C2772 0.950 . S
H2749 C2773 0.951 . S
H2750 C2775 0.951 . S
H2751 C2777 0.950 . S
H2752 C2778 0.950 . S
H2753 C2780 0.950 . S
H2754 C2783 0.950 . S
H2755 C2784 0.950 . S
H2756 C2786 0.950 . S
H2757 C2787 0.950 . S
C2758 H2740 0.951 . S
C2758 C2759 1.366 . S
C2758 C2760 1.388 . S
C2759 C2758 1.366 . S
C2759 C2763 1.385 . S
C2760 H2741 0.951 . S
C2760 C2758 1.388 . S
C2760 C2761 1.366 . S
C2761 C2760 1.366 . S
C2761 C2762 1.414 . S
C2761 C2764 1.499 . S
C2762 H2742 0.950 . S
C2762 C2761 1.414 . S
C2762 C2763 1.374 . S
C2763 H2743 0.950 . S
C2763 C2759 1.385 . S
C2763 C2762 1.374 . S
C2764 C2761 1.499 . S
C2764 C2765 1.373 . S
C2764 C2766 1.389 . S
C2765 H2744 0.950 . S
C2765 C2764 1.373 . S
C2765 C2781 1.377 . S
C2766 C2764 1.389 . S
C2766 C2767 1.524 . S
C2766 C2780 1.377 . S
C2767 C2766 1.524 . S
C2767 C2768 1.397 . S
C2767 C2772 1.363 . S
C2768 H2745 0.950 . S
C2768 C2767 1.397 . S
C2768 C2769 1.334 . S
C2769 H2746 0.950 . S
C2769 C2768 1.334 . S
C2769 C2770 1.287 . S
C2770 C2769 1.287 . S
C2770 C2771 1.524 . S
C2770 H2789 0.913 . S
C2771 H2747 0.950 . S
C2771 C2770 1.524 . S
C2771 C2772 1.415 . S
C2772 H2748 0.950 . S
C2772 C2767 1.363 . S
C2772 C2771 1.415 . S
C2773 H2749 0.951 . S
C2773 C2774 1.366 . S
C2773 C2775 1.388 . S
C2774 C2773 1.366 . S
C2774 C2778 1.385 . S
C2775 H2750 0.951 . S
C2775 C2773 1.388 . S
C2775 C2776 1.366 . S
C2776 C2775 1.366 . S
C2776 C2777 1.414 . S
C2776 C2779 1.499 . S
C2777 H2751 0.950 . S
C2777 C2776 1.414 . S
C2777 C2778 1.374 . S
C2778 H2752 0.950 . S
C2778 C2774 1.385 . S
C2778 C2777 1.374 . S
C2779 C2776 1.499 . S
C2779 C2780 1.373 . S
C2779 C2781 1.389 . S
C2780 H2753 0.950 . S
C2780 C2766 1.377 . S
C2780 C2779 1.373 . S
C2781 C2765 1.377 . S
C2781 C2779 1.389 . S
C2781 C2782 1.524 . S
C2782 C2781 1.524 . S
C2782 C2783 1.397 . S
C2782 C2787 1.363 . S
C2783 H2754 0.950 . S
C2783 C2782 1.397 . S
C2783 C2784 1.334 . S
C2784 H2755 0.950 . S
C2784 C2783 1.334 . S
C2784 C2785 1.287 . S
C2785 C2784 1.287 . S
C2785 C2786 1.524 . S
C2785 H2788 0.999 . S
C2786 H2756 0.950 . S
C2786 C2785 1.524 . S
C2786 C2787 1.415 . S
C2787 H2757 0.950 . S
C2787 C2782 1.363 . S
C2787 C2786 1.415 . S
H2788 C2785 0.999 . S
H2789 C2770 0.913 . S
H2790 C2808 0.951 . S
H2791 C2810 0.951 . S
H2792 C2812 0.950 . S
H2793 C2813 0.950 . S
H2794 C2815 0.950 . S
H2795 C2818 0.950 . S
H2796 C2819 0.950 . S
H2797 C2821 0.950 . S
H2798 C2822 0.950 . S
H2799 C2823 0.951 . S
H2800 C2825 0.951 . S
H2801 C2827 0.950 . S
H2802 C2828 0.950 . S
H2803 C2830 0.950 . S
H2804 C2833 0.950 . S
H2805 C2834 0.950 . S
H2806 C2836 0.950 . S
H2807 C2837 0.950 . S
C2808 H2790 0.951 . S
C2808 C2809 1.366 1_545 S
C2808 C2810 1.388 . S
C2809 C2808 1.366 1_565 S
C2809 C2813 1.385 . S
C2810 H2791 0.951 . S
C2810 C2808 1.388 . S
C2810 C2811 1.366 . S
C2811 C2810 1.366 . S
C2811 C2812 1.414 1_545 S
C2811 C2814 1.499 . S
C2812 H2792 0.950 . S
C2812 C2811 1.414 1_565 S
C2812 C2813 1.374 . S
C2813 H2793 0.950 . S
C2813 C2809 1.385 . S
C2813 C2812 1.374 . S
C2814 C2811 1.499 . S
C2814 C2815 1.373 . S
C2814 C2816 1.389 . S
C2815 H2794 0.950 . S
C2815 C2814 1.373 . S
C2815 C2831 1.377 . S
C2816 C2814 1.389 . S
C2816 C2817 1.524 . S
C2816 C2830 1.377 . S
C2817 C2816 1.524 . S
C2817 C2818 1.397 1_545 S
C2817 C2822 1.363 . S
C2818 H2795 0.950 . S
C2818 C2817 1.397 1_565 S
C2818 C2819 1.334 . S
C2819 H2796 0.950 . S
C2819 C2818 1.334 . S
C2819 C2820 1.287 . S
C2820 C2819 1.287 . S
C2820 C2821 1.524 1_565 S
C2820 H2839 0.913 . S
C2821 H2797 0.950 . S
C2821 C2820 1.524 1_545 S
C2821 C2822 1.415 . S
C2822 H2798 0.950 . S
C2822 C2817 1.363 . S
C2822 C2821 1.415 . S
C2823 H2799 0.951 . S
C2823 C2824 1.366 . S
C2823 C2825 1.388 . S
C2824 C2823 1.366 . S
C2824 C2828 1.385 . S
C2825 H2800 0.951 . S
C2825 C2823 1.388 . S
C2825 C2826 1.366 . S
C2826 C2825 1.366 . S
C2826 C2827 1.414 . S
C2826 C2829 1.499 . S
C2827 H2801 0.950 . S
C2827 C2826 1.414 . S
C2827 C2828 1.374 . S
C2828 H2802 0.950 . S
C2828 C2824 1.385 . S
C2828 C2827 1.374 . S
C2829 C2826 1.499 . S
C2829 C2830 1.373 . S
C2829 C2831 1.389 . S
C2830 H2803 0.950 . S
C2830 C2816 1.377 . S
C2830 C2829 1.373 . S
C2831 C2815 1.377 . S
C2831 C2829 1.389 . S
C2831 C2832 1.524 . S
C2832 C2831 1.524 . S
C2832 C2833 1.397 . S
C2832 C2837 1.363 . S
C2833 H2804 0.950 . S
C2833 C2832 1.397 . S
C2833 C2834 1.334 . S
C2834 H2805 0.950 . S
C2834 C2833 1.334 . S
C2834 C2835 1.287 . S
C2835 C2834 1.287 . S
C2835 C2836 1.524 . S
C2835 H2838 0.999 . S
C2836 H2806 0.950 . S
C2836 C2835 1.524 . S
C2836 C2837 1.415 . S
C2837 H2807 0.950 . S
C2837 C2832 1.363 . S
C2837 C2836 1.415 . S
H2838 C2835 0.999 . S
H2839 C2820 0.913 . S
H2840 C2858 0.951 . S
H2841 C2860 0.951 . S
H2842 C2862 0.950 . S
H2843 C2863 0.950 . S
H2844 C2865 0.950 . S
H2845 C2868 0.950 . S
H2846 C2869 0.950 . S
H2847 C2871 0.950 . S
H2848 C2872 0.950 . S
H2849 C2873 0.951 . S
H2850 C2875 0.951 . S
H2851 C2877 0.950 . S
H2852 C2878 0.950 . S
H2853 C2880 0.950 . S
H2854 C2883 0.950 . S
H2855 C2884 0.950 . S
H2856 C2886 0.950 . S
H2857 C2887 0.950 . S
C2858 H2840 0.951 . S
C2858 C2859 1.366 . S
C2858 C2860 1.388 . S
C2859 C2858 1.366 . S
C2859 C2863 1.385 . S
C2860 H2841 0.951 . S
C2860 C2858 1.388 . S
C2860 C2861 1.366 . S
C2861 C2860 1.366 . S
C2861 C2862 1.414 . S
C2861 C2864 1.499 . S
C2862 H2842 0.950 . S
C2862 C2861 1.414 . S
C2862 C2863 1.374 . S
C2863 H2843 0.950 . S
C2863 C2859 1.385 . S
C2863 C2862 1.374 . S
C2864 C2861 1.499 . S
C2864 C2865 1.373 . S
C2864 C2866 1.389 . S
C2865 H2844 0.950 . S
C2865 C2864 1.373 . S
C2865 C2881 1.377 . S
C2866 C2864 1.389 . S
C2866 C2867 1.524 . S
C2866 C2880 1.377 . S
C2867 C2866 1.524 . S
C2867 C2868 1.397 . S
C2867 C2872 1.363 . S
C2868 H2845 0.950 . S
C2868 C2867 1.397 . S
C2868 C2869 1.334 . S
C2869 H2846 0.950 . S
C2869 C2868 1.334 . S
C2869 C2870 1.287 . S
C2870 C2869 1.287 . S
C2870 C2871 1.524 . S
C2870 H2889 0.913 . S
C2871 H2847 0.950 . S
C2871 C2870 1.524 . S
C2871 C2872 1.415 . S
C2872 H2848 0.950 . S
C2872 C2867 1.363 . S
C2872 C2871 1.415 . S
C2873 H2849 0.951 . S
C2873 C2874 1.366 . S
C2873 C2875 1.388 . S
C2874 C2873 1.366 . S
C2874 C2878 1.385 . S
C2875 H2850 0.951 . S
C2875 C2873 1.388 . S
C2875 C2876 1.366 . S
C2876 C2875 1.366 . S
C2876 C2877 1.414 . S
C2876 C2879 1.499 . S
C2877 H2851 0.950 . S
C2877 C2876 1.414 . S
C2877 C2878 1.374 . S
C2878 H2852 0.950 . S
C2878 C2874 1.385 . S
C2878 C2877 1.374 . S
C2879 C2876 1.499 . S
C2879 C2880 1.373 . S
C2879 C2881 1.389 . S
C2880 H2853 0.950 . S
C2880 C2866 1.377 . S
C2880 C2879 1.373 . S
C2881 C2865 1.377 . S
C2881 C2879 1.389 . S
C2881 C2882 1.524 . S
C2882 C2881 1.524 . S
C2882 C2883 1.397 . S
C2882 C2887 1.363 . S
C2883 H2854 0.950 . S
C2883 C2882 1.397 . S
C2883 C2884 1.334 . S
C2884 H2855 0.950 . S
C2884 C2883 1.334 . S
C2884 C2885 1.287 . S
C2885 C2884 1.287 . S
C2885 C2886 1.524 . S
C2885 H2888 0.999 . S
C2886 H2856 0.950 . S
C2886 C2885 1.524 . S
C2886 C2887 1.415 . S
C2887 H2857 0.950 . S
C2887 C2882 1.363 . S
C2887 C2886 1.415 . S
H2888 C2885 0.999 . S
H2889 C2870 0.913 . S
H2890 C2908 0.951 . S
H2891 C2910 0.951 . S
H2892 C2912 0.950 . S
H2893 C2913 0.950 . S
H2894 C2915 0.950 . S
H2895 C2918 0.950 . S
H2896 C2919 0.950 . S
H2897 C2921 0.950 . S
H2898 C2922 0.950 . S
H2899 C2923 0.951 1_545 S
H2900 C2925 0.951 . S
H2901 C2927 0.950 . S
H2902 C2928 0.950 . S
H2903 C2930 0.950 . S
H2904 C2933 0.950 . S
H2905 C2934 0.950 . S
H2906 C2936 0.950 . S
H2907 C2937 0.950 . S
C2908 H2890 0.951 . S
C2908 C2909 1.366 . S
C2908 C2910 1.388 . S
C2909 C2908 1.366 . S
C2909 C2913 1.385 . S
C2910 H2891 0.951 . S
C2910 C2908 1.388 . S
C2910 C2911 1.366 . S
C2911 C2910 1.366 . S
C2911 C2912 1.414 . S
C2911 C2914 1.499 . S
C2912 H2892 0.950 . S
C2912 C2911 1.414 . S
C2912 C2913 1.374 . S
C2913 H2893 0.950 . S
C2913 C2909 1.385 . S
C2913 C2912 1.374 . S
C2914 C2911 1.499 . S
C2914 C2915 1.373 . S
C2914 C2916 1.389 . S
C2915 H2894 0.950 . S
C2915 C2914 1.373 . S
C2915 C2931 1.377 . S
C2916 C2914 1.389 . S
C2916 C2917 1.524 . S
C2916 C2930 1.377 . S
C2917 C2916 1.524 . S
C2917 C2918 1.397 . S
C2917 C2922 1.363 . S
C2918 H2895 0.950 . S
C2918 C2917 1.397 . S
C2918 C2919 1.334 . S
C2919 H2896 0.950 . S
C2919 C2918 1.334 . S
C2919 C2920 1.287 . S
C2920 C2919 1.287 . S
C2920 C2921 1.524 1_655 S
C2920 H2939 0.913 1_655 S
C2921 H2897 0.950 . S
C2921 C2920 1.524 1_455 S
C2921 C2922 1.415 1_455 S
C2922 H2898 0.950 . S
C2922 C2917 1.363 . S
C2922 C2921 1.415 1_655 S
C2923 H2899 0.951 1_565 S
C2923 C2924 1.366 . S
C2923 C2925 1.388 1_565 S
C2924 C2923 1.366 . S
C2924 C2928 1.385 . S
C2925 H2900 0.951 . S
C2925 C2923 1.388 1_545 S
C2925 C2926 1.366 . S
C2926 C2925 1.366 . S
C2926 C2927 1.414 1_545 S
C2926 C2929 1.499 . S
C2927 H2901 0.950 . S
C2927 C2926 1.414 1_565 S
C2927 C2928 1.374 . S
C2928 H2902 0.950 . S
C2928 C2924 1.385 . S
C2928 C2927 1.374 . S
C2929 C2926 1.499 . S
C2929 C2930 1.373 . S
C2929 C2931 1.389 . S
C2930 H2903 0.950 . S
C2930 C2916 1.377 . S
C2930 C2929 1.373 . S
C2931 C2915 1.377 . S
C2931 C2929 1.389 . S
C2931 C2932 1.524 . S
C2932 C2931 1.524 . S
C2932 C2933 1.397 1_545 S
C2932 C2937 1.363 . S
C2933 H2904 0.950 . S
C2933 C2932 1.397 1_565 S
C2933 C2934 1.334 . S
C2934 H2905 0.950 . S
C2934 C2933 1.334 . S
C2934 C2935 1.287 . S
C2935 C2934 1.287 . S
C2935 C2936 1.524 1_565 S
C2935 H2938 0.999 . S
C2936 H2906 0.950 . S
C2936 C2935 1.524 1_545 S
C2936 C2937 1.415 . S
C2937 H2907 0.950 . S
C2937 C2932 1.363 . S
C2937 C2936 1.415 . S
H2938 C2935 0.999 . S
H2939 C2920 0.913 1_455 S
H2940 C2958 0.951 . S
H2941 C2960 0.951 . S
H2942 C2962 0.950 . S
H2943 C2963 0.950 . S
H2944 C2965 0.950 . S
H2945 C2968 0.950 . S
H2946 C2969 0.950 . S
H2947 C2971 0.950 . S
H2948 C2972 0.950 . S
H2949 C2973 0.951 . S
H2950 C2975 0.951 . S
H2951 C2977 0.950 . S
H2952 C2978 0.950 . S
H2953 C2980 0.950 . S
H2954 C2983 0.950 . S
H2955 C2984 0.950 . S
H2956 C2986 0.950 . S
H2957 C2987 0.950 . S
C2958 H2940 0.951 . S
C2958 C2959 1.366 . S
C2958 C2960 1.388 . S
C2959 C2958 1.366 . S
C2959 C2963 1.385 . S
C2960 H2941 0.951 . S
C2960 C2958 1.388 . S
C2960 C2961 1.366 . S
C2961 C2960 1.366 . S
C2961 C2962 1.414 . S
C2961 C2964 1.499 . S
C2962 H2942 0.950 . S
C2962 C2961 1.414 . S
C2962 C2963 1.374 . S
C2963 H2943 0.950 . S
C2963 C2959 1.385 . S
C2963 C2962 1.374 . S
C2964 C2961 1.499 . S
C2964 C2965 1.373 . S
C2964 C2966 1.389 . S
C2965 H2944 0.950 . S
C2965 C2964 1.373 . S
C2965 C2981 1.377 . S
C2966 C2964 1.389 . S
C2966 C2967 1.524 . S
C2966 C2980 1.377 . S
C2967 C2966 1.524 . S
C2967 C2968 1.397 . S
C2967 C2972 1.363 . S
C2968 H2945 0.950 . S
C2968 C2967 1.397 . S
C2968 C2969 1.334 . S
C2969 H2946 0.950 . S
C2969 C2968 1.334 . S
C2969 C2970 1.287 . S
C2970 C2969 1.287 . S
C2970 C2971 1.524 . S
C2970 H2989 0.913 . S
C2971 H2947 0.950 . S
C2971 C2970 1.524 . S
C2971 C2972 1.415 . S
C2972 H2948 0.950 . S
C2972 C2967 1.363 . S
C2972 C2971 1.415 . S
C2973 H2949 0.951 . S
C2973 C2974 1.366 . S
C2973 C2975 1.388 . S
C2974 C2973 1.366 . S
C2974 C2978 1.385 . S
C2975 H2950 0.951 . S
C2975 C2973 1.388 . S
C2975 C2976 1.366 . S
C2976 C2975 1.366 . S
C2976 C2977 1.414 . S
C2976 C2979 1.499 . S
C2977 H2951 0.950 . S
C2977 C2976 1.414 . S
C2977 C2978 1.374 . S
C2978 H2952 0.950 . S
C2978 C2974 1.385 . S
C2978 C2977 1.374 . S
C2979 C2976 1.499 . S
C2979 C2980 1.373 . S
C2979 C2981 1.389 . S
C2980 H2953 0.950 . S
C2980 C2966 1.377 . S
C2980 C2979 1.373 . S
C2981 C2965 1.377 . S
C2981 C2979 1.389 . S
C2981 C2982 1.524 . S
C2982 C2981 1.524 . S
C2982 C2983 1.397 . S
C2982 C2987 1.363 . S
C2983 H2954 0.950 . S
C2983 C2982 1.397 . S
C2983 C2984 1.334 . S
C2984 H2955 0.950 . S
C2984 C2983 1.334 . S
C2984 C2985 1.287 . S
C2985 C2984 1.287 . S
C2985 C2986 1.524 . S
C2985 H2988 0.999 . S
C2986 H2956 0.950 . S
C2986 C2985 1.524 . S
C2986 C2987 1.415 . S
C2987 H2957 0.950 . S
C2987 C2982 1.363 . S
C2987 C2986 1.415 . S
H2988 C2985 0.999 . S
H2989 C2970 0.913 . S
H2990 C3008 0.951 . S
H2991 C3010 0.951 . S
H2992 C3012 0.950 . S
H2993 C3013 0.950 . S
H2994 C3015 0.939 1_545 S
H2995 C3018 0.950 . S
H2996 C3019 0.950 . S
H2997 C3021 0.950 . S
H2998 C3022 0.950 . S
H2999 C3023 0.951 . S
H3000 C3025 0.951 . S
H3001 C3027 0.950 . S
H3002 C3028 0.956 1_545 S
H3003 C3030 0.950 . S
H3004 C3033 0.950 . S
H3005 C3034 0.950 . S
H3006 C3036 0.950 . S
H3007 C3037 0.950 . S
C3008 H2990 0.951 . S
C3008 C3009 1.366 . S
C3008 C3010 1.388 . S
C3009 C3008 1.366 . S
C3009 C3013 1.385 . S
C3010 H2991 0.951 . S
C3010 C3008 1.388 . S
C3010 C3011 1.366 . S
C3011 C3010 1.366 . S
C3011 C3012 1.414 . S
C3011 C3014 1.499 . S
C3012 H2992 0.950 . S
C3012 C3011 1.414 . S
C3012 C3013 1.374 . S
C3013 H2993 0.950 . S
C3013 C3009 1.385 . S
C3013 C3012 1.374 . S
C3014 C3011 1.499 . S
C3014 C3015 1.373 . S
C3014 C3016 1.389 . S
C3015 H2994 0.939 1_565 S
C3015 C3014 1.373 . S
C3015 C3031 1.377 . S
C3016 C3014 1.389 . S
C3016 C3017 1.524 . S
C3016 C3030 1.377 . S
C3017 C3016 1.524 . S
C3017 C3018 1.397 . S
C3017 C3022 1.363 . S
C3018 H2995 0.950 . S
C3018 C3017 1.397 . S
C3018 C3019 1.334 . S
C3019 H2996 0.950 . S
C3019 C3018 1.334 . S
C3019 C3020 1.287 . S
C3020 C3019 1.287 . S
C3020 C3021 1.524 . S
C3020 H3039 0.913 . S
C3021 H2997 0.950 . S
C3021 C3020 1.524 . S
C3021 C3022 1.415 . S
C3022 H2998 0.950 . S
C3022 C3017 1.363 . S
C3022 C3021 1.415 . S
C3023 H2999 0.951 . S
C3023 C3024 1.366 . S
C3023 C3025 1.388 1_545 S
C3024 C3023 1.366 . S
C3024 C3028 1.382 1_545 S
C3025 H3000 0.951 . S
C3025 C3023 1.388 1_565 S
C3025 C3026 1.366 . S
C3026 C3025 1.366 . S
C3026 C3027 1.414 . S
C3026 C3029 1.499 . S
C3027 H3001 0.950 . S
C3027 C3026 1.414 . S
C3027 C3028 1.375 . S
C3028 H3002 0.956 1_565 S
C3028 C3024 1.382 1_565 S
C3028 C3027 1.375 . S
C3029 C3026 1.499 . S
C3029 C3030 1.373 . S
C3029 C3031 1.389 . S
C3030 H3003 0.950 . S
C3030 C3016 1.377 . S
C3030 C3029 1.373 . S
C3031 C3015 1.377 . S
C3031 C3029 1.389 . S
C3031 C3032 1.524 1_565 S
C3032 C3031 1.524 1_545 S
C3032 C3033 1.397 . S
C3032 C3037 1.363 . S
C3033 H3004 0.950 . S
C3033 C3032 1.397 . S
C3033 C3034 1.334 . S
C3034 H3005 0.950 . S
C3034 C3033 1.334 . S
C3034 C3035 1.287 . S
C3035 C3034 1.287 . S
C3035 C3036 1.524 . S
C3035 H3038 0.999 . S
C3036 H3006 0.950 . S
C3036 C3035 1.524 . S
C3036 C3037 1.415 . S
C3037 H3007 0.950 . S
C3037 C3032 1.363 . S
C3037 C3036 1.415 . S
H3038 C3035 0.999 . S
H3039 C3020 0.913 . S
C659 C9 0.502 . S
C674 C409 0.516 . S
C709 C49 0.865 . S
C724 C458 0.583 . S
C759 C89 0.514 . S
C774 C329 0.501 . S
C809 C369 0.864 . S
C824 C138 0.584 . S
C859 C178 0.503 . S
C874 C578 0.515 . S
C909 C609 0.584 . S
C924 C218 0.864 . S
C959 C498 0.502 . S
C974 C258 0.513 . S
C1009 C289 0.583 . S
C1024 C538 0.867 . S
C1059 C19 3.518 . S
C1074 C170 3.518 . S
C1109 C59 2.923 . S
C1124 C530 2.923 . S
C1159 C99 2.340 . S
C1174 C250 2.340 . S
C1209 C126 1.486 . S
C1224 C615 1.486 . S
C1259 C210 2.923 . S
C1274 C379 2.923 . S
C1309 C446 1.485 . S
C1324 C295 1.485 . S
C1359 C490 3.518 . S
C1374 C339 3.518 . S
C1409 C419 2.339 . S
C1424 C570 2.339 . S
C1459 C10 1.375 . S
C1474 C298 1.385 . S
C1509 C50 1.652 . S
C1524 C489 1.658 . S
C1559 C90 1.428 . S
C1574 C209 1.425 . S
C1609 C135 0.577 . S
C1624 C569 0.598 . S
C1659 C129 1.385 . S
C1674 C179 1.374 . S
C1709 C219 1.652 . S
C1724 C338 1.658 . S
C1759 C259 1.428 . S
C1774 C58 1.425 . S
C1809 C418 0.596 . S
C1824 C286 0.576 . S
C1859 C330 1.374 . S
C1874 C618 1.385 . S
C1909 C169 1.657 . S
C1924 C370 1.651 . S
C1959 C529 1.426 . S
C1974 C410 1.428 . S
C2009 C249 0.596 . S
C2024 C455 0.577 . S
C2059 C499 1.375 . S
C2074 C449 1.385 . S
C2109 C539 1.651 . S
C2124 C18 1.657 . S
C2159 C378 1.425 . S
C2174 C579 1.428 . S
C2209 C606 0.576 . S
C2224 C98 0.595 . S
C2259 C15 1.552 1_556 S
C2274 C366 1.527 . S
C2309 C406 1.600 . S
C2324 C55 1.625 . S
C2359 C95 1.822 . S
C2374 C459 1.804 . S
C2409 C326 2.378 . S
C2424 C130 2.362 . S
C2459 C535 1.527 . S
C2474 C166 1.553 1_554 S
C2509 C575 1.601 . S
C2524 C206 1.625 . S
C2559 C610 1.804 . S
C2574 C246 1.821 . S
C2609 C495 2.378 . S
C2624 C299 2.361 . S
C2659 C46 1.526 . S
C2674 C335 1.552 . S
C2709 C86 1.600 . S
C2724 C375 1.624 . S
C2759 C139 1.803 . S
C2774 C415 1.820 . S
C2809 C450 2.361 . S
C2824 C6 2.378 . S
C2859 C215 1.527 . S
C2874 C486 1.553 . S
C2909 C255 1.600 . S
C2924 C526 1.624 . S
C2959 C290 1.803 . S
C2974 C566 1.821 . S
C3009 C175 2.378 . S
C3024 C619 2.361 . S
