# Generated by pormake.
# Topology unn, (4)-cn, num edge types: 1
# Building blocks:
#     Node 0, Type 0, BuildingBlock: KOZSID_clean_sbu_0, # of connection points: 4
#     Node 1, Type 0, BuildingBlock: KOZSID_clean_sbu_0, # of connection points: 4
#     Node 2, Type 0, BuildingBlock: KOZSID_clean_sbu_0, # of connection points: 4
#     Node 3, Type 0, BuildingBlock: KOZSID_clean_sbu_0, # of connection points: 4
#     Node 4, Type 0, BuildingBlock: KOZSID_clean_sbu_0, # of connection points: 4
#     Node 5, Type 0, BuildingBlock: KOZSID_clean_sbu_0, # of connection points: 4
#     Node 6, Type 0, BuildingBlock: KOZSID_clean_sbu_0, # of connection points: 4
#     Node 7, Type 0, BuildingBlock: KOZSID_clean_sbu_0, # of connection points: 4
#     Node 8, Type 0, BuildingBlock: KOZSID_clean_sbu_0, # of connection points: 4
#     Node 9, Type 0, BuildingBlock: KOZSID_clean_sbu_0, # of connection points: 4
#     Node 10, Type 0, BuildingBlock: KOZSID_clean_sbu_0, # of connection points: 4
#     Node 11, Type 0, BuildingBlock: KOZSID_clean_sbu_0, # of connection points: 4
#     Node 12, Type 0, BuildingBlock: KOZSID_clean_sbu_0, # of connection points: 4
#     Node 13, Type 0, BuildingBlock: KOZSID_clean_sbu_0, # of connection points: 4
#     Node 14, Type 0, BuildingBlock: KOZSID_clean_sbu_0, # of connection points: 4
#     Node 15, Type 0, BuildingBlock: KOZSID_clean_sbu_0, # of connection points: 4
#     Node 16, Type 0, BuildingBlock: KOZSID_clean_sbu_0, # of connection points: 4
#     Node 17, Type 0, BuildingBlock: KOZSID_clean_sbu_0, # of connection points: 4
#     Edge 18, Type (0, 0), BuildingBlock: TEMPAE_clean_linker_10, # of connection points: 2
#     Edge 19, Type (0, 0), BuildingBlock: TEMPAE_clean_linker_10, # of connection points: 2
#     Edge 20, Type (0, 0), BuildingBlock: TEMPAE_clean_linker_10, # of connection points: 2
#     Edge 21, Type (0, 0), BuildingBlock: TEMPAE_clean_linker_10, # of connection points: 2
#     Edge 22, Type (0, 0), BuildingBlock: TEMPAE_clean_linker_10, # of connection points: 2
#     Edge 23, Type (0, 0), BuildingBlock: TEMPAE_clean_linker_10, # of connection points: 2
#     Edge 24, Type (0, 0), BuildingBlock: TEMPAE_clean_linker_10, # of connection points: 2
#     Edge 25, Type (0, 0), BuildingBlock: TEMPAE_clean_linker_10, # of connection points: 2
#     Edge 26, Type (0, 0), BuildingBlock: TEMPAE_clean_linker_10, # of connection points: 2
#     Edge 27, Type (0, 0), BuildingBlock: TEMPAE_clean_linker_10, # of connection points: 2
#     Edge 28, Type (0, 0), BuildingBlock: TEMPAE_clean_linker_10, # of connection points: 2
#     Edge 29, Type (0, 0), BuildingBlock: TEMPAE_clean_linker_10, # of connection points: 2
#     Edge 30, Type (0, 0), BuildingBlock: TEMPAE_clean_linker_10, # of connection points: 2
#     Edge 31, Type (0, 0), BuildingBlock: TEMPAE_clean_linker_10, # of connection points: 2
#     Edge 32, Type (0, 0), BuildingBlock: TEMPAE_clean_linker_10, # of connection points: 2
#     Edge 33, Type (0, 0), BuildingBlock: TEMPAE_clean_linker_10, # of connection points: 2
#     Edge 34, Type (0, 0), BuildingBlock: TEMPAE_clean_linker_10, # of connection points: 2
#     Edge 35, Type (0, 0), BuildingBlock: TEMPAE_clean_linker_10, # of connection points: 2
#     Edge 36, Type (0, 0), BuildingBlock: TEMPAE_clean_linker_10, # of connection points: 2
#     Edge 37, Type (0, 0), BuildingBlock: TEMPAE_clean_linker_10, # of connection points: 2
#     Edge 38, Type (0, 0), BuildingBlock: TEMPAE_clean_linker_10, # of connection points: 2
#     Edge 39, Type (0, 0), BuildingBlock: TEMPAE_clean_linker_10, # of connection points: 2
#     Edge 40, Type (0, 0), BuildingBlock: TEMPAE_clean_linker_10, # of connection points: 2
#     Edge 41, Type (0, 0), BuildingBlock: TEMPAE_clean_linker_10, # of connection points: 2
#     Edge 42, Type (0, 0), BuildingBlock: TEMPAE_clean_linker_10, # of connection points: 2
#     Edge 43, Type (0, 0), BuildingBlock: TEMPAE_clean_linker_10, # of connection points: 2
#     Edge 44, Type (0, 0), BuildingBlock: TEMPAE_clean_linker_10, # of connection points: 2
#     Edge 45, Type (0, 0), BuildingBlock: TEMPAE_clean_linker_10, # of connection points: 2
#     Edge 46, Type (0, 0), BuildingBlock: TEMPAE_clean_linker_10, # of connection points: 2
#     Edge 47, Type (0, 0), BuildingBlock: TEMPAE_clean_linker_10, # of connection points: 2
#     Edge 48, Type (0, 0), BuildingBlock: TEMPAE_clean_linker_10, # of connection points: 2
#     Edge 49, Type (0, 0), BuildingBlock: TEMPAE_clean_linker_10, # of connection points: 2
#     Edge 50, Type (0, 0), BuildingBlock: TEMPAE_clean_linker_10, # of connection points: 2
#     Edge 51, Type (0, 0), BuildingBlock: TEMPAE_clean_linker_10, # of connection points: 2
#     Edge 52, Type (0, 0), BuildingBlock: TEMPAE_clean_linker_10, # of connection points: 2
#     Edge 53, Type (0, 0), BuildingBlock: TEMPAE_clean_linker_10, # of connection points: 2
# Relax obj value: 0.035
# Max RMSD: 0.228
# Mean RMSD: 0.203
data_MOF--net-unn--node1-KOZSID_clean_sbu_0--edge1-TEMPAE_clean_linker_10
_symmetry_space_group_name_H-M    P1
_symmetry_Int_Tables_number       1
_symmetry_cell_setting            triclinic
loop_
_symmetry_equiv_pos_as_xyz
'x, y, z'
_cell_length_a     55.405053
_cell_length_b     55.410467
_cell_length_c     51.218244
_cell_angle_alpha  89.988279
_cell_angle_beta   90.05019
_cell_angle_gamma 119.98302
loop_
_atom_site_label
_atom_site_type_symbol
_atom_site_fract_x
_atom_site_fract_y
_atom_site_fract_z
_atom_type_partial_charge
C0 C 0.9992 0.71918 0.326 0.0
C1 C 1.00133 0.74216 0.33894 0.0
C2 C 0.01396 0.76424 0.32209 0.0
C3 C 0.01879 0.75366 0.29975 0.0
N4 N 0.00937 0.72605 0.30108 0.0
Co5 Co 0.01569 0.70423 0.27335 0.0
N6 N 0.02786 0.73444 0.24655 0.0
C7 C 0.03433 0.76083 0.25154 0.0
C8 C 0.04153 0.77711 0.22949 0.0
C9 C 0.03954 0.75992 0.20928 0.0
C10 C 0.03118 0.73398 0.22007 0.0
N11 N 0.02324 0.68283 0.24612 0.0
C12 C 0.02769 0.68688 0.21988 0.0
C13 C 0.03092 0.66585 0.20865 0.0
C14 C 0.02889 0.64836 0.22837 0.0
C15 C 0.02428 0.65939 0.25048 0.0
N16 N 1.00239 0.67317 0.29959 0.0
C17 C 0.00455 0.65014 0.29687 0.0
C18 C 0.99447 0.63235 0.31773 0.0
C19 C 0.98576 0.64502 0.33515 0.0
C20 C 0.99104 0.67004 0.32393 0.0
N21 N 0.97714 0.68912 0.26013 0.0
C22 C 0.92627 0.673 0.23365 0.0
C23 C 0.93708 0.65481 0.23574 0.0
C24 C 0.96226 0.66311 0.24927 0.0
C25 C 0.94091 0.69867 0.24656 0.0
C26 C 0.96609 0.70636 0.2592 0.0
N27 N 0.05459 0.72086 0.28649 0.0
C28 C 0.08574 0.73856 0.32367 0.0
C29 C 0.10784 0.75715 0.30787 0.0
C30 C 0.1033 0.75552 0.28078 0.0
C31 C 0.07679 0.73682 0.27048 0.0
C32 C 0.05954 0.7208 0.31273 0.0
H33 H 0.07404 0.73639 0.24961 0.0
H34 H 0.04311 0.70834 0.32607 0.0
H35 H 0.97007 0.64879 0.25012 0.0
H36 H 0.97697 0.72691 0.26737 0.0
C37 C 0.03038 0.76845 0.27657 0.0
C38 C 0.9895 0.69196 0.33897 0.0
C39 C 0.02922 0.71031 0.20488 0.0
C40 C 0.0156 0.64558 0.27427 0.0
H41 H 0.99504 0.74301 0.35876 0.0
H42 H 0.01906 0.78552 0.32574 0.0
H43 H 0.04699 0.79875 0.22816 0.0
H44 H 0.04409 0.76587 0.18897 0.0
H45 H 0.03382 0.66296 0.18825 0.0
H46 H 0.02913 0.62902 0.22655 0.0
H47 H 0.99398 0.6127 0.32019 0.0
H48 H 0.97779 0.63728 0.35447 0.0
H49 H 0.92676 0.63462 0.22634 0.0
H50 H 0.93332 0.71327 0.2467 0.0
H51 H 0.08816 0.73879 0.34468 0.0
H52 H 0.11998 0.76894 0.26765 0.0
C53 C 0.28842 0.29965 0.21829 0.0
C54 C 0.26828 0.27599 0.20559 0.0
C55 C 0.25977 0.2543 0.22278 0.0
C56 C 0.27498 0.26579 0.24509 0.0
N57 N 0.29215 0.29356 0.24339 0.0
Co58 Co 0.31977 0.31681 0.27098 0.0
N59 N 0.30315 0.28672 0.2981 0.0
C60 C 0.28468 0.25979 0.29323 0.0
C61 C 0.2767 0.24356 0.31532 0.0
C62 C 0.29116 0.26133 0.33544 0.0
C63 C 0.30721 0.28755 0.32455 0.0
N64 N 0.34791 0.33991 0.29826 0.0
C65 C 0.34848 0.33632 0.32458 0.0
C66 C 0.37171 0.35868 0.33586 0.0
C67 C 0.38647 0.37648 0.31609 0.0
C68 C 0.3714 0.36433 0.29392 0.0
N69 N 0.33636 0.34751 0.24426 0.0
C70 C 0.36089 0.37136 0.24682 0.0
C71 C 0.36793 0.38865 0.22563 0.0
C72 C 0.34683 0.37477 0.20815 0.0
C73 C 0.32791 0.34961 0.21968 0.0
N74 N 0.2946 0.33018 0.28327 0.0
C75 C 0.25764 0.34611 0.30549 0.0
C76 C 0.2858 0.36585 0.30041 0.0
C77 C 0.30387 0.35748 0.28944 0.0
C78 C 0.2487 0.31838 0.29861 0.0
C79 C 0.26712 0.31106 0.28736 0.0
N80 N 0.34386 0.30193 0.25865 0.0
C81 C 0.35813 0.28409 0.22222 0.0
C82 C 0.36288 0.26678 0.23873 0.0
C83 C 0.36031 0.26931 0.26572 0.0
C84 C 0.35152 0.28752 0.27527 0.0
C85 C 0.34866 0.30131 0.23245 0.0
H86 H 0.34949 0.28866 0.2961 0.0
H87 H 0.34368 0.31267 0.21866 0.0
H88 H 0.32536 0.37305 0.28629 0.0
H89 H 0.259 0.2895 0.28266 0.0
C90 C 0.27301 0.25145 0.26829 0.0
C91 C 0.30506 0.32677 0.20488 0.0
C92 C 0.32797 0.31196 0.33962 0.0
C93 C 0.37623 0.37741 0.26978 0.0
H94 H 0.26112 0.27444 0.18567 0.0
H95 H 0.24448 0.23266 0.21932 0.0
H96 H 0.2617 0.22154 0.31674 0.0
H97 H 0.29035 0.25558 0.35575 0.0
H98 H 0.37734 0.36216 0.35629 0.0
H99 H 0.40522 0.39659 0.31786 0.0
H100 H 0.38642 0.40882 0.22305 0.0
H101 H 0.34627 0.38193 0.18864 0.0
H102 H 0.294 0.38768 0.30481 0.0
H103 H 0.22764 0.30191 0.30247 0.0
H104 H 0.36009 0.28314 0.20125 0.0
H105 H 0.36452 0.2569 0.27933 0.0
C106 C 0.72018 0.99711 0.21949 0.0
C107 C 0.7425 0.99857 0.20585 0.0
C108 C 0.7651 0.01073 0.22218 0.0
C109 C 0.75545 0.01595 0.24494 0.0
N110 N 0.72796 0.00722 0.24431 0.0
Co111 Co 0.70736 0.01413 0.27281 0.0
N112 N 0.73816 0.02545 0.29881 0.0
C113 C 0.76426 0.03145 0.29314 0.0
C114 C 0.78101 0.03815 0.31486 0.0
C115 C 0.76441 0.03629 0.33556 0.0
C116 C 0.73837 0.02858 0.32534 0.0
N117 N 0.68716 0.02218 0.3008 0.0
C118 C 0.69189 0.02618 0.32696 0.0
C119 C 0.67242 0.03131 0.33891 0.0
C120 C 0.6548 0.03032 0.31971 0.0
C121 C 0.66447 0.02474 0.29717 0.0
N122 N 0.67579 1.00194 0.24734 0.0
C123 C 0.65347 0.00522 0.25072 0.0
C124 C 0.6352 0.99582 0.23017 0.0
C125 C 0.64682 0.98642 0.21225 0.0
C126 C 0.67173 0.99065 0.22288 0.0
N127 N 0.6916 0.97535 0.28569 0.0
C128 C 0.67493 0.92428 0.31209 0.0
C129 C 0.65725 0.93574 0.31052 0.0
C130 C 0.66581 0.96101 0.29705 0.0
C131 C 0.70035 0.93841 0.29868 0.0
C132 C 0.70831 0.96367 0.28606 0.0
N133 N 0.7246 0.05324 0.26015 0.0
C134 C 0.74249 0.08511 0.22352 0.0
C135 C 0.76109 0.10687 0.23969 0.0
C136 C 0.75943 0.10176 0.26667 0.0
C137 C 0.74065 0.07508 0.27651 0.0
C138 C 0.72464 0.05868 0.23401 0.0
H139 H 0.7402 0.07192 0.29731 0.0
H140 H 0.71209 0.04247 0.22047 0.0
H141 H 0.65191 0.96935 0.29667 0.0
H142 H 0.72868 0.97414 0.27749 0.0
C143 C 0.77104 0.0273 0.26782 0.0
C144 C 0.69278 0.98823 0.20723 0.0
C145 C 0.71493 0.02617 0.34113 0.0
C146 C 0.65004 0.01673 0.27362 0.0
H147 H 0.7426 0.99219 0.1859 0.0
H148 H 0.78609 0.01527 0.21793 0.0
H149 H 0.80251 0.04305 0.31567 0.0
H150 H 0.77074 0.04032 0.35582 0.0
H151 H 0.67092 0.03509 0.35942 0.0
H152 H 0.63635 0.03211 0.32211 0.0
H153 H 0.61596 0.99625 0.2282 0.0
H154 H 0.6385 0.97872 0.193 0.0
H155 H 0.63729 0.92587 0.32033 0.0
H156 H 0.71454 0.93033 0.29814 0.0
H157 H 0.74275 0.08801 0.20258 0.0
H158 H 0.77289 0.11815 0.28005 0.0
C159 C 0.96432 0.20339 0.74388 0.0
C160 C 0.95509 0.17615 0.73591 0.0
C161 C 0.97165 0.16782 0.748 0.0
C162 C 0.99027 0.19041 0.76228 0.0
N163 N 0.98681 0.21271 0.75987 0.0
Co164 Co 0.01075 0.25004 0.7761 0.0
N165 N 0.04032 0.24087 0.78527 0.0
C166 C 0.0372 0.21514 0.78534 0.0
C167 C 0.06035 0.21445 0.79357 0.0
C168 C 0.07939 0.24142 0.79937 0.0
C169 C 0.06676 0.25722 0.79419 0.0
N170 N 0.03479 0.28726 0.79255 0.0
C171 C 0.06174 0.29976 0.80096 0.0
C172 C 0.06967 0.32553 0.81204 0.0
C173 C 0.04678 0.32889 0.81124 0.0
C174 C 0.0262 0.30519 0.79957 0.0
N175 N 0.9809 0.25881 0.76685 0.0
C176 C 0.97833 0.27982 0.77703 0.0
C177 C 0.95528 0.28038 0.76797 0.0
C178 C 0.94231 0.25814 0.75125 0.0
C179 C 0.95823 0.24521 0.75097 0.0
N180 N 0.99264 0.23599 0.81027 0.0
C181 C 0.96761 0.23492 0.85834 0.0
C182 C 0.95137 0.22267 0.83597 0.0
C183 C 0.96423 0.22295 0.81229 0.0
C184 C 0.99626 0.24448 0.85671 0.0
C185 C 0.00828 0.24462 0.83263 0.0
N186 N 0.02863 0.26536 0.74219 0.0
C187 C 0.04174 0.30152 0.70995 0.0
C188 C 0.0506 0.28795 0.6928 0.0
C189 C 0.04909 0.26307 0.7012 0.0
C190 C 0.03781 0.25197 0.72596 0.0
C191 C 0.03115 0.29012 0.73435 0.0
H192 H 0.03617 0.23251 0.73183 0.0
H193 H 0.02458 0.3014 0.74669 0.0
H194 H 0.95127 0.21466 0.79521 0.0
H195 H 0.03059 0.25401 0.83189 0.0
C196 C 0.01345 0.19261 0.77496 0.0
C197 C 0.94959 0.21854 0.73759 0.0
C198 C 0.07952 0.28689 0.80099 0.0
C199 C 0.99963 0.30023 0.79251 0.0
H200 H 0.93801 0.16344 0.72287 0.0
H201 H 0.97081 0.14798 0.74588 0.0
H202 H 0.06317 0.19652 0.79492 0.0
H203 H 0.09994 0.24834 0.80726 0.0
H204 H 0.08972 0.34012 0.82035 0.0
H205 H 0.04545 0.34668 0.81803 0.0
H206 H 0.94889 0.29542 0.77262 0.0
H207 H 0.92304 0.25182 0.74084 0.0
H208 H 0.92901 0.21408 0.83643 0.0
H209 H 0.00973 0.25381 0.87345 0.0
H210 H 0.04297 0.32101 0.70453 0.0
H211 H 0.05584 0.25195 0.68852 0.0
C212 C 0.81012 0.75993 0.74292 0.0
C213 C 0.83714 0.77713 0.734 0.0
C214 C 0.84582 0.80294 0.74412 0.0
C215 C 0.82371 0.80018 0.75842 0.0
N216 N 0.80136 0.77428 0.75794 0.0
Co217 Co 0.76493 0.76199 0.7758 0.0
N218 N 0.77486 0.80132 0.78353 0.0
C219 C 0.80011 0.82415 0.7803 0.0
C220 C 0.80084 0.8486 0.78627 0.0
C221 C 0.77447 0.84088 0.79419 0.0
C222 C 0.75915 0.81197 0.79286 0.0
N223 N 0.72878 0.74993 0.79419 0.0
C224 C 0.71761 0.76507 0.80407 0.0
C225 C 0.69301 0.74809 0.81733 0.0
C226 C 0.68883 0.72156 0.81614 0.0
C227 C 0.71103 0.72376 0.80228 0.0
N228 N 0.7552 0.7228 0.76763 0.0
C229 C 0.73425 0.69976 0.77863 0.0
C230 C 0.73294 0.67561 0.77018 0.0
C231 C 0.75465 0.68392 0.753 0.0
C232 C 0.76804 0.71276 0.7519 0.0
N233 N 0.78082 0.75927 0.80951 0.0
C234 C 0.78144 0.73589 0.85813 0.0
C235 C 0.79224 0.7301 0.83569 0.0
C236 C 0.79233 0.7425 0.81175 0.0
C237 C 0.77437 0.75688 0.85618 0.0
C238 C 0.77435 0.76836 0.83184 0.0
N239 N 0.74771 0.76325 0.74245 0.0
C240 C 0.70838 0.74048 0.71323 0.0
C241 C 0.72104 0.76208 0.69501 0.0
C242 C 0.74772 0.78442 0.70108 0.0
C243 C 0.76063 0.78465 0.72493 0.0
C244 C 0.72186 0.74149 0.73652 0.0
H245 H 0.78101 0.80205 0.72911 0.0
H246 H 0.71117 0.72422 0.74962 0.0
H247 H 0.79939 0.73644 0.7947 0.0
H248 H 0.76672 0.78275 0.83102 0.0
C249 C 0.82197 0.82218 0.76936 0.0
C250 C 0.79454 0.72984 0.73803 0.0
C251 C 0.73109 0.79568 0.80394 0.0
C252 C 0.71501 0.70162 0.79498 0.0
H253 H 0.84941 0.7716 0.72154 0.0
H254 H 0.86559 0.8217 0.74074 0.0
H255 H 0.81837 0.86957 0.78474 0.0
H256 H 0.76752 0.85491 0.80093 0.0
H257 H 0.67991 0.75438 0.82746 0.0
H258 H 0.67165 0.70291 0.82443 0.0
H259 H 0.7179 0.65447 0.77569 0.0
H260 H 0.76042 0.67038 0.74293 0.0
H261 H 0.79875 0.71465 0.83605 0.0
H262 H 0.7674 0.76342 0.8731 0.0
H263 H 0.6882 0.72239 0.70939 0.0
H264 H 0.75843 0.80169 0.68768 0.0
C265 C 0.20589 0.956 0.7912 0.0
C266 C 0.17703 0.94257 0.79332 0.0
C267 C 0.16923 0.96142 0.78622 0.0
C268 C 0.19357 0.98508 0.77988 0.0
N269 N 0.21635 0.98238 0.78203 0.0
Co270 Co 0.25543 0.01171 0.77367 0.0
N271 N 0.24272 0.03571 0.75632 0.0
C272 C 0.21728 0.03302 0.75873 0.0
C273 C 0.21456 0.05325 0.74596 0.0
C274 C 0.2399 0.06993 0.73473 0.0
C275 C 0.2567 0.05871 0.74112 0.0
N276 N 0.29434 0.04114 0.76488 0.0
C277 C 0.3039 0.06322 0.74818 0.0
C278 C 0.3328 0.0782 0.74806 0.0
C279 C 0.34157 0.06552 0.76567 0.0
C280 C 0.31765 0.04341 0.77543 0.0
N281 N 0.26794 0.98777 0.79165 0.0
C282 C 0.29425 0.99638 0.79945 0.0
C283 C 0.29679 0.97641 0.81305 0.0
C284 C 0.27035 0.95394 0.8144 0.0
C285 C 0.25306 0.96143 0.80147 0.0
N286 N 0.25357 0.99321 0.74024 0.0
C287 C 0.25463 0.9688 0.69215 0.0
C288 C 0.27616 0.9771 0.71038 0.0
C289 C 0.27521 0.98903 0.73399 0.0
C290 C 0.23235 0.97311 0.6986 0.0
C291 C 0.23216 0.98524 0.7228 0.0
N292 N 0.25873 0.03046 0.80733 0.0
C293 C 0.26207 0.02755 0.85408 0.0
C294 C 0.2817 0.05607 0.85545 0.0
C295 C 0.28666 0.07199 0.83271 0.0
C296 C 0.2746 0.05887 0.80899 0.0
C297 C 0.25064 0.01525 0.82994 0.0
H298 H 0.28008 0.07157 0.79167 0.0
H299 H 0.23718 0.99303 0.82945 0.0
H300 H 0.2925 0.99528 0.74701 0.0
H301 H 0.21488 0.98834 0.72731 0.0
C302 C 0.19549 0.00933 0.76997 0.0
C303 C 0.22244 0.94421 0.80171 0.0
C304 C 0.28624 0.07176 0.73385 0.0
C305 C 0.3162 0.02248 0.79184 0.0
H306 H 0.16313 0.92162 0.8002 0.0
H307 H 0.14829 0.95821 0.78563 0.0
H308 H 0.19615 0.05524 0.74443 0.0
H309 H 0.24535 0.08844 0.72341 0.0
H310 H 0.34619 0.09654 0.73668 0.0
H311 H 0.36287 0.07134 0.77028 0.0
H312 H 0.31561 0.97798 0.82104 0.0
H313 H 0.26431 0.93454 0.82443 0.0
H314 H 0.29423 0.97506 0.70628 0.0
H315 H 0.21514 0.96705 0.68519 0.0
H316 H 0.25713 0.01433 0.87112 0.0
H317 H 0.30085 0.09428 0.83295 0.0
C318 C 0.66699 0.05474 0.66035 0.0
C319 C 0.67357 0.07928 0.67339 0.0
C320 C 0.68716 0.10061 0.656 0.0
C321 C 0.68858 0.08827 0.63335 0.0
N322 N 0.67617 0.06027 0.63495 0.0
Co323 Co 0.67988 0.0363 0.60754 0.0
N324 N 0.69566 0.06672 0.58069 0.0
C325 C 0.70518 0.09383 0.5856 0.0
C326 C 0.71482 0.11026 0.56371 0.0
C327 C 0.71129 0.0924 0.54364 0.0
C328 C 0.69962 0.06595 0.55439 0.0
N329 N 0.68432 0.01248 0.58062 0.0
C330 C 0.6898 0.01637 0.55449 0.0
C331 C 0.68965 0.99344 0.54335 0.0
C332 C 0.68434 0.97481 0.56299 0.0
C333 C 0.68125 0.9871 0.58496 0.0
N334 N 0.66329 0.00531 0.63381 0.0
C335 C 0.66027 0.97981 0.63066 0.0
C336 C 0.64492 0.96135 0.64994 0.0
C337 C 0.63841 0.97625 0.66687 0.0
C338 C 0.65099 0.00335 0.6574 0.0
N339 N 0.64214 0.02493 0.59404 0.0
C340 C 0.59004 0.01113 0.57118 0.0
C341 C 0.59733 0.9906 0.57644 0.0
C342 C 0.62335 0.99791 0.58763 0.0
C343 C 0.60958 0.03863 0.57815 0.0
C344 C 0.63499 0.04494 0.58969 0.0
N345 N 0.71805 0.04911 0.62109 0.0
C346 C 0.74856 0.06796 0.65848 0.0
C347 C 0.77134 0.08436 0.64241 0.0
C348 C 0.76763 0.08033 0.61533 0.0
C349 C 0.74084 0.06245 0.60507 0.0
C350 C 0.72245 0.05007 0.6475 0.0
H351 H 0.73838 0.06091 0.58414 0.0
H352 H 0.70561 0.03858 0.66076 0.0
H353 H 0.62824 0.98164 0.5908 0.0
H354 H 0.64911 0.06634 0.59454 0.0
C355 C 0.70189 0.10235 0.61038 0.0
C356 C 0.65507 0.0272 0.67362 0.0
C357 C 0.69527 0.04127 0.53943 0.0
C358 C 0.67008 0.97324 0.60835 0.0
H359 H 0.6704 0.08204 0.69371 0.0
H360 H 0.6959 0.12264 0.65976 0.0
H361 H 0.72296 0.1325 0.56238 0.0
H362 H 0.71709 0.09821 0.52347 0.0
H363 H 0.69233 0.99003 0.52303 0.0
H364 H 0.68135 0.95403 0.56115 0.0
H365 H 0.63901 0.9396 0.65144 0.0
H366 H 0.6269 0.96837 0.68489 0.0
H367 H 0.58308 0.9689 0.57204 0.0
H368 H 0.60577 0.05563 0.57422 0.0
H369 H 0.75068 0.06967 0.67954 0.0
H370 H 0.7849 0.09209 0.60216 0.0
C371 C 0.95185 0.63151 0.55078 0.0
C372 C 0.93134 0.60882 0.53723 0.0
C373 C 0.92136 0.58641 0.55373 0.0
C374 C 0.93613 0.59654 0.57649 0.0
N375 N 0.95439 0.62415 0.57574 0.0
Co376 Co 0.98172 0.64542 0.60424 0.0
N377 N 0.963 0.61459 0.63037 0.0
C378 C 0.94333 0.58829 0.62474 0.0
C379 C 0.93374 0.5715 0.64644 0.0
C380 C 0.94835 0.58826 0.66711 0.0
C381 C 0.9661 0.61445 0.6569 0.0
N382 N 0.0098 0.6663 0.63229 0.0
C383 C 0.00952 0.66153 0.65845 0.0
C384 C 0.03365 0.68194 0.67038 0.0
C385 C 0.04962 0.69999 0.65119 0.0
C386 C 0.03444 0.68975 0.62868 0.0
N387 N 1.00022 0.67702 0.57864 0.0
C388 C 0.0253 0.70001 0.58213 0.0
C389 C 0.03364 0.7182 0.56154 0.0
C390 C 0.01283 0.70583 0.54349 0.0
C391 C 0.99278 0.68059 0.55407 0.0
N392 N 0.95784 0.66022 0.61696 0.0
C393 C 0.92237 0.67638 0.64194 0.0
C394 C 0.95136 0.6947 0.64019 0.0
C395 C 0.96862 0.68634 0.62748 0.0
C396 C 0.91174 0.65044 0.62959 0.0
C397 C 0.92958 0.64278 0.61762 0.0
N398 N 0.00447 0.62915 0.59156 0.0
C399 C 0.01906 0.61219 0.55467 0.0
C400 C 0.02259 0.59363 0.57055 0.0
C401 C 0.01904 0.5949 0.59758 0.0
C402 C 0.01061 0.61319 0.6077 0.0
C403 C 0.01009 0.62959 0.56543 0.0
H404 H 0.00778 0.61331 0.62851 0.0
H405 H 0.00625 0.64209 0.55202 0.0
H406 H 0.99074 0.70074 0.62691 0.0
H407 H 0.92022 0.62215 0.60966 0.0
C408 C 0.93238 0.58121 0.59943 0.0
C409 C 0.96987 0.6589 0.5383 0.0
C410 C 0.98719 0.63788 0.67273 0.0
C411 C 0.04028 0.70409 0.60513 0.0
H412 H 0.92481 0.60835 0.51723 0.0
H413 H 0.90532 0.56521 0.54957 0.0
H414 H 0.91759 0.54982 0.64724 0.0
H415 H 0.94644 0.58191 0.68734 0.0
H416 H 0.03902 0.68388 0.69089 0.0
H417 H 0.06933 0.71908 0.6536 0.0
H418 H 0.05286 0.73787 0.55965 0.0
H419 H 0.01321 0.71393 0.52419 0.0
H420 H 0.9609 0.71506 0.64925 0.0
H421 H 0.88959 0.63569 0.62934 0.0
H422 H 0.02169 0.61225 0.53371 0.0
H423 H 0.02227 0.58151 0.61079 0.0
C424 C 0.39895 0.35753 0.66001 0.0
C425 C 0.41931 0.35492 0.6734 0.0
C426 C 0.42881 0.34212 0.65679 0.0
C427 C 0.41394 0.33772 0.63412 0.0
N428 N 0.39605 0.34752 0.63506 0.0
Co429 Co 0.36879 0.34213 0.60675 0.0
N430 N 0.38689 0.32947 0.58043 0.0
C431 C 0.4058 0.32175 0.58601 0.0
C432 C 0.4148 0.31401 0.56426 0.0
C433 C 0.40057 0.31689 0.54364 0.0
C434 C 0.38358 0.32624 0.55393 0.0
N435 N 0.34106 0.33609 0.57875 0.0
C436 C 0.34141 0.33206 0.55252 0.0
C437 C 0.31737 0.32866 0.54066 0.0
C438 C 0.30147 0.33071 0.55995 0.0
C439 C 0.31657 0.33518 0.58245 0.0
N440 N 0.3506 0.35527 0.63263 0.0
C441 C 0.3255 0.35324 0.62943 0.0
C442 C 0.31732 0.36295 0.65024 0.0
C443 C 0.33825 0.37121 0.66813 0.0
C444 C 0.35822 0.36608 0.65723 0.0
N445 N 0.39325 0.38084 0.59454 0.0
C446 C 0.42941 0.43396 0.57233 0.0
C447 C 0.4009 0.42462 0.57663 0.0
C448 C 0.38324 0.39808 0.58761 0.0
C449 C 0.43907 0.41595 0.57997 0.0
C450 C 0.42102 0.39007 0.59118 0.0
N451 N 0.34545 0.30303 0.61899 0.0
C452 C 0.33123 0.27081 0.65536 0.0
C453 C 0.32735 0.24902 0.63888 0.0
C454 C 0.33034 0.25425 0.61192 0.0
C455 C 0.33864 0.28113 0.60237 0.0
C456 C 0.3403 0.29745 0.64513 0.0
H457 H 0.341 0.28441 0.58156 0.0
H458 H 0.34465 0.31368 0.65889 0.0
H459 H 0.36147 0.3914 0.59016 0.0
H460 H 0.42969 0.37723 0.59643 0.0
C461 C 0.41696 0.32553 0.61124 0.0
C462 C 0.38132 0.36731 0.67265 0.0
C463 C 0.36328 0.33 0.53821 0.0
C464 C 0.31058 0.34302 0.6063 0.0
H465 H 0.42599 0.36088 0.69338 0.0
H466 H 0.44454 0.3365 0.66086 0.0
H467 H 0.43042 0.30774 0.56337 0.0
H468 H 0.40231 0.31242 0.52338 0.0
H469 H 0.31192 0.32514 0.52016 0.0
H470 H 0.28177 0.33013 0.55766 0.0
H471 H 0.29819 0.36355 0.65232 0.0
H472 H 0.33802 0.37883 0.68751 0.0
H473 H 0.39212 0.43761 0.5716 0.0
H474 H 0.46046 0.42125 0.57672 0.0
H475 H 0.32889 0.26775 0.67629 0.0
H476 H 0.32682 0.23782 0.59834 0.0
C477 C 0.73299 0.59176 0.12736 0.0
C478 C 0.74395 0.5746 0.13313 0.0
C479 C 0.72362 0.54794 0.12779 0.0
C480 C 0.70142 0.55017 0.11917 0.0
N481 N 0.70642 0.57658 0.11838 0.0
Co482 Co 0.67873 0.58803 0.10856 0.0
N483 N 0.6535 0.55118 0.09223 0.0
C484 C 0.65426 0.52758 0.09647 0.0
C485 C 0.63355 0.50481 0.08388 0.0
C486 C 0.61858 0.51453 0.07092 0.0
C487 C 0.63119 0.54291 0.07624 0.0
N488 N 0.6508 0.59911 0.09854 0.0
C489 C 0.62896 0.58706 0.08155 0.0
C490 C 0.61501 0.602 0.08058 0.0
C491 C 0.62814 0.62365 0.09794 0.0
C492 C 0.64949 0.62093 0.10842 0.0
N493 N 0.70396 0.62467 0.12543 0.0
C494 C 0.69659 0.64354 0.1324 0.0
C495 C 0.71784 0.66665 0.14422 0.0
C496 C 0.73983 0.66184 0.14516 0.0
C497 C 0.73074 0.63587 0.134 0.0
N498 N 0.69778 0.60287 0.07501 0.0
C499 C 0.72371 0.62645 0.02695 0.0
C500 C 0.71607 0.64092 0.0443 0.0
C501 C 0.70328 0.62892 0.06787 0.0
C502 C 0.71779 0.59948 0.03414 0.0
C503 C 0.70496 0.58813 0.0584 0.0
N504 N 0.65953 0.57448 0.14234 0.0
C505 C 0.66216 0.58162 0.18897 0.0
C506 C 0.63366 0.57293 0.19002 0.0
C507 C 0.61791 0.56196 0.16716 0.0
C508 C 0.63116 0.56255 0.14367 0.0
C509 C 0.6746 0.58201 0.16505 0.0
H510 H 0.61861 0.55531 0.12624 0.0
H511 H 0.69683 0.59061 0.16477 0.0
H512 H 0.69758 0.64092 0.08017 0.0
H513 H 0.70074 0.56751 0.06367 0.0
C514 C 0.67661 0.52829 0.10955 0.0
C515 C 0.74722 0.62159 0.13394 0.0
C516 C 0.61973 0.56048 0.06768 0.0
C517 C 0.67086 0.64033 0.12457 0.0
H518 H 0.76416 0.58044 0.14127 0.0
H519 H 0.72493 0.52918 0.12985 0.0
H520 H 0.63007 0.48378 0.0837 0.0
H521 H 0.60013 0.50191 0.05934 0.0
H522 H 0.59708 0.59763 0.06877 0.0
H523 H 0.6232 0.63989 0.10184 0.0
H524 H 0.7176 0.68507 0.15086 0.0
H525 H 0.7601 0.6757 0.1535 0.0
H526 H 0.71944 0.66143 0.03951 0.0
H527 H 0.72324 0.58742 1.0213 0.0
H528 H 0.67525 0.59 0.20608 0.0
H529 H 0.59566 0.55411 0.16714 0.0
C530 C 0.43163 0.14839 0.13145 0.0
C531 C 0.44774 0.17698 0.13548 0.0
C532 C 0.47207 0.18577 0.12214 0.0
C533 C 0.46945 0.16227 0.1106 0.0
N534 N 0.44506 0.13911 0.11584 0.0
Co535 Co 0.43264 0.10137 0.10131 0.0
N536 N 0.47147 0.11165 0.09153 0.0
C537 C 0.49315 0.13785 0.0897 0.0
C538 C 0.51728 0.13919 0.08146 0.0
C539 C 0.51046 0.11215 0.07744 0.0
C540 C 0.48234 0.09567 0.08356 0.0
N541 N 0.42036 0.06379 0.08625 0.0
C542 C 0.43543 0.05181 0.07831 0.0
C543 C 0.41804 0.02543 0.06816 0.0
C544 C 0.39143 0.02113 0.0691 0.0
C545 C 0.3939 0.04493 0.0799 0.0
N546 N 0.39398 0.09151 0.11136 0.0
C547 C 0.37048 0.0695 0.10228 0.0
C548 C 0.34683 0.0676 0.11291 0.0
C549 C 0.35603 0.08995 0.12952 0.0
C550 C 0.38489 0.10448 0.12799 0.0
N551 N 0.42682 0.11337 0.06675 0.0
C552 C 0.40268 0.11284 1.01822 0.0
C553 C 0.39761 0.12457 0.04039 0.0
C554 C 0.41022 0.12504 0.06431 0.0
C555 C 0.4228 0.10461 1.0204 0.0
C556 C 0.4346 0.10508 0.04469 0.0
N557 N 0.43703 0.08811 0.13565 0.0
C558 C 0.41619 0.05297 0.16904 0.0
C559 C 0.43873 0.06815 0.18571 0.0
C560 C 0.46107 0.09337 0.17653 0.0
C561 C 0.45971 0.10313 0.1514 0.0
C562 C 0.41584 0.06309 0.14431 0.0
H563 H 0.47669 0.12287 0.14484 0.0
H564 H 0.3979 0.05061 0.1324 0.0
H565 H 0.40472 0.13285 0.08121 0.0
H566 H 0.44841 0.09672 0.04577 0.0
C567 C 0.49073 0.16049 0.09796 0.0
C568 C 0.40296 0.13141 0.14107 0.0
C569 C 0.46618 0.06562 0.07794 0.0
C570 C 0.37179 0.04905 0.0872 0.0
H571 H 0.4424 0.19027 0.14658 0.0
H572 H 0.48982 0.20668 0.1215 0.0
H573 H 0.53747 0.15761 0.07874 0.0
H574 H 0.52448 0.10558 0.06986 0.0
H575 H 0.42399 0.01097 0.06046 0.0
H576 H 0.3725 1.00263 0.06307 0.0
H577 H 0.32549 0.05135 0.10972 0.0
H578 H 0.34294 0.09497 0.1413 0.0
H579 H 0.38263 0.13168 0.03984 0.0
H580 H 0.42851 0.09657 1.00369 0.0
H581 H 0.3987 0.03321 0.17515 0.0
H582 H 0.47899 0.10571 0.18886 0.0
C583 C 0.87847 0.29454 0.13411 0.0
C584 C 0.84997 0.28168 0.13885 0.0
C585 C 0.84046 0.29696 0.12614 0.0
C586 C 0.86347 0.31808 0.11424 0.0
N587 N 0.88701 0.31727 0.11865 0.0
Co588 Co 0.9242 0.34305 0.10324 0.0
N589 N 0.91291 0.37106 0.09408 0.0
C590 C 0.8865 0.36609 0.09322 0.0
C591 C 0.88436 0.38851 0.0852 0.0
C592 C 0.91105 0.40896 0.08028 0.0
C593 C 0.92817 0.39784 0.08566 0.0
N594 N 0.96117 0.36881 0.08724 0.0
C595 C 0.97234 0.39567 0.07889 0.0
C596 C 0.99842 0.40498 0.06792 0.0
C597 C 1.00335 0.38307 0.06875 0.0
C598 C 0.9802 0.36164 0.0803 0.0
N599 N 0.93506 0.31481 0.1127 0.0
C600 C 0.95711 0.31382 0.10302 0.0
C601 C 0.95971 0.29228 0.11319 0.0
C602 C 0.93776 0.27871 0.13015 0.0
C603 C 0.92277 0.29262 0.12928 0.0
N604 N 0.91141 0.32493 0.06885 0.0
C605 C 0.91144 0.30107 1.02029 0.0
C606 C 0.90035 0.28445 0.04266 0.0
C607 C 0.90011 0.29669 0.06658 0.0
C608 C 0.91922 0.32932 1.02233 0.0
C609 C 0.91896 0.34076 0.04663 0.0
N610 N 0.93831 0.36092 0.13744 0.0
C611 C 0.97438 0.37536 0.17004 0.0
C612 C 0.95901 0.3814 0.18772 0.0
C613 C 0.93328 0.37801 0.17941 0.0
C614 C 0.92318 0.36753 0.15414 0.0
C615 C 0.96389 0.36546 0.14523 0.0
H616 H 0.90302 0.36424 0.1483 0.0
H617 H 0.97644 0.36078 0.13263 0.0
H618 H 0.89284 0.28351 0.0836 0.0
H619 H 0.92691 0.36286 0.04758 0.0
C620 C 0.86444 0.34092 0.10194 0.0
C621 C 0.89601 0.28317 0.14291 0.0
C622 C 0.95795 0.41209 0.07889 0.0
C623 C 0.97685 0.3357 0.08755 0.0
H624 H 0.83718 0.26293 0.14998 0.0
H625 H 0.81941 0.29346 0.12612 0.0
H626 H 0.86561 0.38984 0.08315 0.0
H627 H 0.91694 0.42933 0.07256 0.0
H628 H 0.01222 0.42532 0.0597 0.0
H629 H 0.02182 0.38296 0.06208 0.0
H630 H 0.9761 0.28753 0.10941 0.0
H631 H 0.93324 0.26057 0.14167 0.0
H632 H 0.8936 0.26244 0.04227 0.0
H633 H 0.92673 0.34292 1.00549 0.0
H634 H 0.99446 0.37798 0.17549 0.0
H635 H 0.92075 0.38253 0.19255 0.0
C636 C 0.33243 0.38726 0.99325 0.0
C637 C 0.33398 0.40973 1.0067 0.0
C638 C 0.34617 0.43218 0.99023 0.0
C639 C 0.3513 0.42229 0.96758 0.0
N640 N 0.3425 0.39479 0.96838 0.0
Co641 Co 0.349 0.37383 0.93991 0.0
N642 N 0.36026 0.40444 0.9137 0.0
C643 C 0.36631 0.43059 0.91925 0.0
C644 C 0.37302 0.44725 0.8975 0.0
C645 C 0.37118 0.43057 0.87688 0.0
C646 C 0.3634 0.40456 0.88717 0.0
N647 N 0.3567 0.35328 0.91192 0.0
C648 C 0.36094 0.35798 0.88575 0.0
C649 C 0.36515 0.33785 0.87387 0.0
C650 C 0.36372 0.32013 0.89313 0.0
C651 C 0.35862 0.33024 0.91562 0.0
N652 N 0.33679 0.34247 0.96564 0.0
C653 C 0.33971 0.31994 0.96231 0.0
C654 C 0.33042 0.30188 0.983 0.0
C655 C 0.32144 0.31384 1.00095 0.0
C656 C 0.32575 0.33872 0.99019 0.0
N657 N 0.31017 0.35818 0.9273 0.0
C658 C 0.25897 0.3416 0.9012 0.0
C659 C 0.27036 0.32386 0.90264 0.0
C660 C 0.29568 0.33237 0.91599 0.0
C661 C 0.2732 0.36701 0.91464 0.0
C662 C 0.29855 0.37495 0.92706 0.0
N663 N 0.38815 0.39089 0.95229 0.0
C664 C 0.42045 0.40869 0.9886 0.0
C665 C 0.44216 0.4268 0.97216 0.0
C666 C 0.43677 0.42497 0.94524 0.0
C667 C 0.40988 0.40647 0.93569 0.0
C668 C 0.39381 0.39113 0.97839 0.0
H669 H 0.4065 0.40584 0.91492 0.0
H670 H 0.37765 0.37896 0.99211 0.0
H671 H 0.30393 0.3184 0.91631 0.0
H672 H 0.30912 0.39533 0.93561 0.0
C673 C 0.36243 0.43761 0.94456 0.0
C674 C 0.32342 0.35993 1.0057 0.0
C675 C 0.36168 0.38135 0.87144 0.0
C676 C 0.35068 0.31607 0.93929 0.0
H677 H 0.32759 0.41003 0.0266 0.0
H678 H 0.35073 0.45321 0.9943 0.0
H679 H 0.37807 0.46879 0.89663 0.0
H680 H 0.37543 0.43688 0.85663 0.0
H681 H 0.3685 0.33588 0.85336 0.0
H682 H 0.36488 0.30131 0.89079 0.0
H683 H 0.33061 0.28253 0.98501 0.0
H684 H 0.31389 0.30572 1.02028 0.0
H685 H 0.26041 0.3039 0.89283 0.0
H686 H 0.26517 0.38123 0.91531 0.0
H687 H 0.4236 0.40916 1.00952 0.0
H688 H 0.45311 0.43809 0.93168 0.0
C689 C 0.62317 0.96768 0.8866 0.0
C690 C 0.60479 0.94415 0.87245 0.0
C691 C 0.59489 0.92196 0.88911 0.0
C692 C 0.60789 0.93276 0.91244 0.0
N693 N 0.62506 0.96063 0.91193 0.0
Co694 Co 0.65231 0.98205 0.94055 0.0
N695 N 0.63441 0.95078 0.96634 0.0
C696 C 0.61512 0.92441 0.96057 0.0
C697 C 0.60594 0.90734 0.98209 0.0
C698 C 0.62042 0.92402 1.00284 0.0
C699 C 0.6377 0.95041 0.9928 0.0
N700 N 0.68049 0.00306 0.9685 0.0
C701 C 0.68069 0.99778 0.99448 0.0
C702 C 0.70464 0.0184 1.00648 0.0
C703 C 0.71989 0.03727 0.98754 0.0
C704 C 0.70452 0.02723 0.9651 0.0
N705 N 0.66967 0.01414 0.91553 0.0
C706 C 0.69314 0.03857 0.91992 0.0
C707 C 0.69844 0.05832 0.90127 0.0
C708 C 0.67742 0.04543 0.88347 0.0
C709 C 0.66087 0.01808 0.89181 0.0
N710 N 0.6278 0.99575 0.95404 0.0
C711 C 0.59191 0.01087 0.9798 0.0
C712 C 0.62085 0.02937 0.97823 0.0
C713 C 0.63826 0.02157 0.96512 0.0
C714 C 0.58151 0.98515 0.967 0.0
C715 C 0.59959 0.97799 0.95462 0.0
N716 N 0.67583 0.96696 0.92711 0.0
C717 C 0.69053 0.95111 0.88947 0.0
C718 C 0.69346 0.93168 0.90462 0.0
C719 C 0.68999 0.93226 0.93174 0.0
C720 C 0.68183 0.95044 0.9426 0.0
C721 C 0.6819 0.96849 0.901 0.0
H722 H 0.679 0.94995 0.96345 0.0
H723 H 0.67867 0.98189 0.88819 0.0
H724 H 0.66027 0.03625 0.96471 0.0
H725 H 0.59052 0.95755 0.9462 0.0
C726 C 0.60446 0.91739 0.93524 0.0
C727 C 0.64046 0.99567 0.87457 0.0
C728 C 0.65865 0.97383 1.00863 0.0
C729 C 0.70891 0.0427 0.9424 0.0
H730 H 0.59986 0.94255 0.85191 0.0
H731 H 0.58054 0.90033 0.88449 0.0
H732 H 0.59021 0.88549 0.98273 0.0
H733 H 0.61882 0.91747 0.02298 0.0
H734 H 0.71018 0.02008 0.02693 0.0
H735 H 0.73903 0.05688 0.9902 0.0
H736 H 0.71556 0.07959 0.90066 0.0
H737 H 0.67535 0.05478 0.86568 0.0
H738 H 0.6303 0.04951 0.98771 0.0
H739 H 0.55941 0.97025 0.96663 0.0
H740 H 0.69332 0.95188 0.8685 0.0
H741 H 0.69297 0.91836 0.94446 0.0
C742 C 0.04878 0.66178 0.88409 0.0
C743 C 0.07127 0.66376 0.87035 0.0
C744 C 0.09391 0.67633 0.88661 0.0
C745 C 0.08412 0.68126 0.90941 0.0
N746 N 0.05649 0.67194 0.90893 0.0
Co747 Co 0.0357 0.67851 0.93753 0.0
N748 N 0.06689 0.69095 0.96333 0.0
C749 C 0.09308 0.69737 0.95749 0.0
C750 C 0.11014 0.70482 0.97903 0.0
C751 C 0.09367 0.70302 0.99982 0.0
C752 C 0.06738 0.69457 0.98983 0.0
N753 N 0.0153 0.68628 0.9656 0.0
C754 C 0.02039 0.69103 0.99169 0.0
C755 C 1.00044 0.6954 1.00367 0.0
C756 C 0.9822 0.69324 0.9846 0.0
C757 C 0.99197 0.68771 0.9621 0.0
N758 N 1.00371 0.66509 0.9123 0.0
C759 C 0.98083 0.66734 0.91592 0.0
C760 C 0.96233 0.65724 0.89557 0.0
C761 C 0.97438 0.64847 0.87751 0.0
C762 C 0.99976 0.65374 0.88784 0.0
N763 N 0.02105 0.64005 0.95088 0.0
C764 C 0.00602 0.58958 0.97772 0.0
C765 C 0.98773 0.60033 0.97629 0.0
C766 C 0.99549 0.62531 0.9626 0.0
C767 C 0.03119 0.60406 0.96398 0.0
C768 C 0.03833 0.62902 0.95116 0.0
N769 N 0.0519 0.71734 0.92431 0.0
C770 C 0.06873 0.74829 0.88698 0.0
C771 C 0.08766 0.77052 0.90253 0.0
C772 C 0.08659 0.76611 0.92963 0.0
C773 C 0.06818 0.73963 0.94013 0.0
C774 C 0.0512 0.72216 0.89813 0.0
H775 H 0.06825 0.73698 0.96098 0.0
H776 H 0.03838 0.70567 0.88497 0.0
H777 H 0.98114 0.63311 0.96232 0.0
H778 H 0.05855 0.63979 0.94231 0.0
C779 C 0.09977 0.69309 0.93217 0.0
C780 C 0.02121 0.65231 0.87188 0.0
C781 C 0.04403 0.69218 1.00581 0.0
C782 C 0.97722 0.67879 0.93876 0.0
H783 H 0.07145 0.65748 0.85038 0.0
H784 H 0.11504 0.68139 0.88224 0.0
H785 H 0.13181 0.71025 0.97967 0.0
H786 H 0.10026 0.70765 1.01998 0.0
H787 H 0.99899 0.69937 0.02414 0.0
H788 H 0.9633 0.6942 0.98709 0.0
H789 H 0.94268 0.65687 0.8938 0.0
H790 H 0.96599 0.64053 0.85833 0.0
H791 H 0.96791 0.59014 0.98635 0.0
H792 H 0.0458 0.5965 0.96334 0.0
H793 H 0.06848 0.75055 0.86599 0.0
H794 H 0.10023 0.78286 0.94261 0.0
C795 C 0.29487 0.87809 0.41657 0.0
C796 C 0.28232 0.84935 0.41382 0.0
C797 C 0.30194 0.84233 0.42019 0.0
C798 C 0.32515 0.86698 0.42676 0.0
N799 N 0.32145 0.88921 0.42543 0.0
Co800 Co 0.34987 0.92847 0.43432 0.0
N801 N 0.37496 0.91663 0.45082 0.0
C802 C 0.37318 0.89164 0.44779 0.0
C803 C 0.39393 0.8895 0.4602 0.0
C804 C 0.41001 0.91476 0.47183 0.0
C805 C 0.39795 0.93092 0.46601 0.0
N806 N 0.37847 0.96759 0.44351 0.0
C807 C 0.40078 0.97752 0.45998 0.0
C808 C 0.41496 0.00642 0.46054 0.0
C809 C 0.40154 0.01482 0.44344 0.0
C810 C 0.37981 0.9907 0.43352 0.0
N811 N 0.32478 0.94012 0.41731 0.0
C812 C 0.33241 0.96638 0.41011 0.0
C813 C 0.31175 0.96832 0.39714 0.0
C814 C 0.28985 0.94156 0.39559 0.0
C815 C 0.29836 0.92469 0.40776 0.0
N816 N 0.3315 0.92534 0.4681 0.0
C817 C 0.30936 0.92551 0.51754 0.0
C818 C 0.31671 0.94733 0.49996 0.0
C819 C 0.3274 0.94675 0.47553 0.0
C820 C 0.31244 0.90292 0.50955 0.0
C821 C 0.32378 0.90334 0.48476 0.0
N822 N 0.36854 0.93307 0.40038 0.0
C823 C 0.36533 0.93716 0.35377 0.0
C824 C 0.39377 0.95713 0.35244 0.0
C825 C 0.40983 0.96202 0.37508 0.0
C826 C 0.3969 0.94943 0.3987 0.0
C827 C 0.35322 0.92522 0.37782 0.0
H828 H 0.4097 0.95483 0.41595 0.0
H829 H 0.33105 0.91144 0.37832 0.0
H830 H 0.33288 0.96417 0.46289 0.0
H831 H 0.32673 0.88619 0.47927 0.0
C832 C 0.34984 0.86961 0.43629 0.0
C833 C 0.282 0.89402 0.40703 0.0
C834 C 0.41025 0.96028 0.4737 0.0
C835 C 0.3583 0.98876 0.41764 0.0
H836 H 0.26142 0.83501 0.40705 0.0
H837 H 0.2995 0.82169 0.42022 0.0
H838 H 0.39666 0.87149 0.46122 0.0
H839 H 0.42871 0.92059 0.48301 0.0
H840 H 0.43324 0.02005 0.47191 0.0
H841 H 0.4066 0.036 0.43929 0.0
H842 H 0.3125 0.98697 0.3897 0.0
H843 H 0.27017 0.93507 0.38591 0.0
H844 H 0.31436 0.96501 0.50515 0.0
H845 H 0.30695 0.88556 0.52261 0.0
H846 H 0.35202 0.93228 0.3368 0.0
H847 H 0.43206 0.97648 0.37486 0.0
C848 C 0.14496 0.42575 0.41172 0.0
C849 C 0.17309 0.44256 0.40584 0.0
C850 C 0.18159 0.46777 0.41728 0.0
C851 C 0.15844 0.46497 0.42967 0.0
N852 N 0.13569 0.4396 0.42681 0.0
Co853 Co 0.09874 0.42678 0.44366 0.0
N854 N 0.10852 0.46577 0.45251 0.0
C855 C 0.13405 0.48852 0.45082 0.0
C856 C 0.1347 0.51282 0.45729 0.0
C857 C 0.10796 0.50503 0.46397 0.0
C858 C 0.0925 0.4762 0.4615 0.0
N859 N 0.06206 0.41416 0.46116 0.0
C860 C 0.05052 0.42898 0.47094 0.0
C861 C 0.02552 0.4116 0.48344 0.0
C862 C 0.02147 0.38513 0.48184 0.0
C863 C 0.04415 0.38776 0.46852 0.0
N864 N 0.08923 0.38795 0.43437 0.0
C865 C 0.06793 0.36453 0.44444 0.0
C866 C 0.06617 0.34072 0.43444 0.0
C867 C 0.08793 0.34965 0.41721 0.0
C868 C 0.102 0.37856 0.41779 0.0
N869 N 0.11359 0.42282 0.47748 0.0
C870 C 0.11541 0.39931 0.52559 0.0
C871 C 0.10687 0.41922 0.52417 0.0
C872 C 0.10636 0.43086 0.50004 0.0
C873 C 0.12635 0.39422 0.50291 0.0
C874 C 0.12575 0.40659 0.47921 0.0
N875 N 0.0826 0.42928 0.41012 0.0
C876 C 0.04398 0.40766 0.38001 0.0
C877 C 0.05724 0.42973 0.36236 0.0
C878 C 0.0839 0.45169 0.36913 0.0
C879 C 0.09616 0.45113 0.39316 0.0
C880 C 0.05682 0.40785 0.40345 0.0
H881 H 0.11654 0.46824 0.39798 0.0
H882 H 0.04568 0.39023 0.41605 0.0
H883 H 0.09782 0.44452 0.49952 0.0
H884 H 0.13307 0.40112 0.46195 0.0
C885 C 0.15646 0.48665 0.4411 0.0
C886 C 0.12859 0.39631 0.40408 0.0
C887 C 0.06396 0.4596 0.47147 0.0
C888 C 0.04829 0.36585 0.46069 0.0
H889 H 0.18634 0.43719 0.39473 0.0
H890 H 0.20205 0.48615 0.41618 0.0
H891 H 0.15246 0.53374 0.45701 0.0
H892 H 0.10085 0.51892 0.47078 0.0
H893 H 0.01203 0.41756 0.49332 0.0
H894 H 1.00402 0.36623 0.48943 0.0
H895 H 0.05055 0.31938 0.43867 0.0
H896 H 0.09299 0.33637 0.40579 0.0
H897 H 0.09862 0.42425 0.54116 0.0
H898 H 0.13414 0.37977 0.5032 0.0
H899 H 0.02381 0.3898 0.3756 0.0
H900 H 0.09509 0.46926 0.35613 0.0
C901 C 0.53986 0.6265 0.46579 0.0
C902 C 0.51133 0.614 0.47022 0.0
C903 C 0.50248 0.63012 0.45807 0.0
C904 C 0.52587 0.65134 0.44677 0.0
N905 N 0.54906 0.64982 0.45103 0.0
Co906 Co 0.58658 0.67547 0.43608 0.0
N907 N 0.5761 0.70421 0.42745 0.0
C908 C 0.54989 0.69983 0.4267 0.0
C909 C 0.54829 0.72267 0.41912 0.0
C910 C 0.57515 0.74281 0.41436 0.0
C911 C 0.5918 0.73109 0.41939 0.0
N912 N 0.62388 0.7011 0.42053 0.0
C913 C 0.63551 0.72811 0.41251 0.0
C914 C 0.66165 0.73722 0.40174 0.0
C915 C 0.66615 0.71503 0.40234 0.0
C916 C 0.6427 0.69365 0.41356 0.0
N917 N 0.59666 0.6465 0.44499 0.0
C918 C 0.6187 0.64539 0.43542 0.0
C919 C 0.62081 0.62344 0.44521 0.0
C920 C 0.59854 0.60968 0.46177 0.0
C921 C 0.58382 0.62387 0.46103 0.0
N922 N 0.57393 0.65817 0.40137 0.0
C923 C 0.57457 0.63534 0.35246 0.0
C924 C 0.56289 0.6182 0.37443 0.0
C925 C 0.56234 0.62995 0.39854 0.0
C926 C 0.58253 0.66358 0.35501 0.0
C927 C 0.58195 0.67451 0.37948 0.0
N928 N 0.60055 0.69254 0.47059 0.0
C929 C 0.63633 0.70604 0.50335 0.0
C930 C 0.62121 0.71245 0.52101 0.0
C931 C 0.59575 0.70965 0.51262 0.0
C932 C 0.58565 0.69944 0.48729 0.0
C933 C 0.62586 0.69643 0.47848 0.0
H934 H 0.5657 0.69665 0.48138 0.0
H935 H 0.63826 0.69154 0.46587 0.0
H936 H 0.55464 0.61639 0.41527 0.0
H937 H 0.59009 0.69661 0.38084 0.0
C938 C 0.52748 0.67471 0.43502 0.0
C939 C 0.55677 0.61424 0.47418 0.0
C940 C 0.62156 0.74493 0.41258 0.0
C941 C 0.63884 0.66743 0.4204 0.0
H942 H 0.49807 0.59494 0.48074 0.0
H943 H 0.48159 0.62705 0.45797 0.0
H944 H 0.52979 0.72447 0.41721 0.0
H945 H 0.58143 0.7634 0.40695 0.0
H946 H 0.67577 0.7576 0.3938 0.0
H947 H 0.68452 0.71469 0.39571 0.0
H948 H 0.63708 0.61851 0.44143 0.0
H949 H 0.59366 0.59123 0.47294 0.0
H950 H 0.55594 0.59616 0.3736 0.0
H951 H 0.59049 0.67757 0.33845 0.0
H952 H 0.65623 0.70824 0.50883 0.0
H953 H 0.58341 0.71448 0.52573 0.0
C954 C 0.05804 0.71351 0.16478 0.0
C955 C 0.03378 0.71177 0.1754 0.0
C956 C 0.06117 0.71122 0.13754 0.0
C957 C 0.03977 0.70753 0.11988 0.0
C958 C 0.01568 0.70689 0.13046 0.0
C959 C 0.01296 0.7089 0.15788 0.0
C960 C 0.08717 0.71193 0.12773 0.0
C961 C 0.99238 0.70345 0.1128 0.0
C962 C 0.05671 0.72305 0.04621 0.0
C963 C 0.04593 0.69633 0.03527 0.0
C964 C 0.05506 0.72701 0.07343 0.0
C965 C 0.04232 0.70373 0.0906 0.0
C966 C 0.03185 0.67671 0.07959 0.0
C967 C 0.03359 0.67337 0.05227 0.0
C968 C 0.06638 0.7562 0.08373 0.0
C969 C 0.0183 0.65114 0.09667 0.0
H970 H 0.07433 0.71579 0.17802 0.0
H971 H 0.99412 0.70748 0.16571 0.0
H972 H 0.08155 0.69183 0.11814 0.0
H973 H 0.09755 0.72852 0.11283 0.0
H974 H 0.10226 0.71567 0.14367 0.0
H975 H 0.9758 0.70493 0.12362 0.0
H976 H 1.00067 0.71962 0.09731 0.0
H977 H 0.98293 0.68288 0.10295 0.0
H978 H 0.06576 0.74091 0.03326 0.0
H979 H 0.02472 0.65263 0.04405 0.0
H980 H 0.08203 0.76052 0.09924 0.0
H981 H 0.04928 0.75826 0.0927 0.0
H982 H 0.07624 0.77218 0.06818 0.0
H983 H 0.03273 0.65297 0.11259 0.0
H984 H 0.01222 0.63173 0.08553 0.0
H985 H 0.99941 0.64938 0.10598 0.0
C986 C 0.34069 0.37137 0.05276 0.0
C987 C 0.3188 0.35595 0.03513 0.0
C988 C 0.33742 0.36643 0.08008 0.0
C989 C 0.31165 0.3453 0.0905 0.0
C990 C 0.2894 0.32985 0.07273 0.0
C991 C 0.2932 0.33536 0.0455 0.0
C992 C 0.36184 0.38366 0.09783 0.0
C993 C 0.26158 0.30706 0.08245 0.0
C994 C 0.31276 0.31522 0.1585 0.0
C995 C 0.30398 0.3294 0.17531 0.0
C996 C 0.31482 0.31975 0.1311 0.0
C997 C 0.30817 0.33917 0.11978 0.0
C998 C 0.29881 0.35316 0.1367 0.0
C999 C 0.29679 0.3481 0.16402 0.0
C1000 C 0.32474 0.3041 0.11427 0.0
C1001 C 0.29153 0.37409 0.12601 0.0
H1002 H 0.36067 0.38707 0.04508 0.0
H1003 H 0.2762 0.32314 0.03215 0.0
H1004 H 0.35581 0.39395 0.113 0.0
H1005 H 0.36805 0.36996 0.10807 0.0
H1006 H 0.38015 0.3999 0.08702 0.0
H1007 H 0.24617 0.29723 0.06642 0.0
H1008 H 0.26422 0.29073 0.09237 0.0
H1009 H 0.25304 0.31558 0.09707 0.0
H1010 H 0.31873 0.30101 0.16692 0.0
H1011 H 0.29024 0.35938 0.17674 0.0
H1012 H 0.34474 0.31901 0.10481 0.0
H1013 H 0.30945 0.29288 0.09847 0.0
H1014 H 0.32786 0.2888 0.12566 0.0
H1015 H 0.31019 0.39161 0.11679 0.0
H1016 H 0.28377 0.38263 0.14139 0.0
H1017 H 0.27536 0.36432 0.11062 0.0
C1018 C 0.66846 0.95847 0.16717 0.0
C1019 C 0.68872 0.98408 0.17781 0.0
C1020 C 0.6627 0.9551 0.13997 0.0
C1021 C 0.67749 0.97784 0.12256 0.0
C1022 C 0.69829 0.00365 0.13325 0.0
C1023 C 0.70354 0.00644 0.16053 0.0
C1024 C 0.64037 0.9272 0.1299 0.0
C1025 C 0.71478 0.02858 0.11587 0.0
C1026 C 0.68046 0.96512 0.04865 0.0
C1027 C 0.66108 0.97173 0.03799 0.0
C1028 C 0.68562 0.96655 0.0759 0.0
C1029 C 0.67113 0.97482 0.09335 0.0
C1030 C 0.65103 0.98088 0.08263 0.0
C1031 C 0.64635 0.97935 0.05526 0.0
C1032 C 0.70723 0.9599 0.08596 0.0
C1033 C 0.63487 0.98967 0.10006 0.0
H1034 H 0.65669 0.94112 0.18028 0.0
H1035 H 0.71896 0.02642 0.16847 0.0
H1036 H 0.62354 0.92944 0.12052 0.0
H1037 H 0.64914 0.91944 0.11477 0.0
H1038 H 0.63112 0.91138 0.14566 0.0
H1039 H 0.73073 0.04693 0.12689 0.0
H1040 H 0.72535 0.02336 0.10033 0.0
H1041 H 0.70052 0.03437 0.10609 0.0
H1042 H 0.69219 0.95955 0.03548 0.0
H1043 H 0.63161 0.98483 0.04725 0.0
H1044 H 0.69801 0.94347 0.10115 0.0
H1045 H 0.72455 0.97868 0.09525 0.0
H1046 H 0.71596 0.95275 0.0702 0.0
H1047 H 0.62414 0.97394 0.11562 0.0
H1048 H 0.61911 0.99242 0.08908 0.0
H1049 H 0.6494 0.00964 0.10982 0.0
C1050 C 0.68286 0.04433 0.492 0.0
C1051 C 0.70095 0.04266 0.51021 0.0
C1052 C 0.68644 0.04282 0.46469 0.0
C1053 C 0.70858 0.03933 0.45498 0.0
C1054 C 0.72734 0.03844 0.47338 0.0
C1055 C 0.72349 0.04039 0.5005 0.0
C1056 C 0.66608 0.04438 0.44618 0.0
C1057 C 0.75115 0.03461 0.46444 0.0
C1058 C 0.69984 0.00617 0.38665 0.0
C1059 C 0.71621 0.02925 0.37063 0.0
C1060 C 0.69762 0.00908 0.41393 0.0
C1061 C 0.71167 0.03586 0.42582 0.0
C1062 C 0.72844 0.05923 0.40965 0.0
C1063 C 0.73052 0.05566 0.38245 0.0
C1064 C 0.67973 0.9834 0.42999 0.0
C1065 C 0.74362 0.08823 0.42097 0.0
H1066 H 0.66545 0.04616 0.49916 0.0
H1067 H 0.73776 0.03931 0.51431 0.0
H1068 H 0.67744 0.06091 0.43142 0.0
H1069 H 0.65426 0.02438 0.4355 0.0
H1070 H 0.65103 0.04875 0.45647 0.0
H1071 H 0.76437 0.03501 0.48095 0.0
H1072 H 0.74284 0.01438 0.45411 0.0
H1073 H 0.76441 0.05121 0.45037 0.0
H1074 H 0.68825 0.98577 0.37768 0.0
H1075 H 0.74268 0.07371 0.37019 0.0
H1076 H 0.66209 0.98479 0.43858 0.0
H1077 H 0.69204 0.982 0.44642 0.0
H1078 H 0.6712 0.96398 0.41825 0.0
H1079 H 0.72837 0.0935 0.42934 0.0
H1080 H 0.75637 0.10418 0.40614 0.0
H1081 H 0.75746 0.08925 0.43712 0.0
C1082 C 0.9641 0.6823 0.49761 0.0
C1083 C 0.96988 0.66253 0.50876 0.0
C1084 C 0.96641 0.68757 0.47031 0.0
C1085 C 0.97466 0.67273 0.45326 0.0
C1086 C 0.98008 0.6524 0.46446 0.0
C1087 C 0.97773 0.64766 0.49183 0.0
C1088 C 0.96045 0.70946 0.45974 0.0
C1089 C 0.98885 0.63586 0.44752 0.0
C1090 C 0.95915 0.669 0.37909 0.0
C1091 C 0.98503 0.68866 0.36845 0.0
C1092 C 0.95542 0.66386 0.40638 0.0
C1093 C 0.97805 0.6787 0.42394 0.0
C1094 C 1.00412 0.69895 0.41325 0.0
C1095 C 0.00728 0.70356 0.38587 0.0
C1096 C 0.92726 0.64206 0.41639 0.0
C1097 C 0.02896 0.71548 0.43075 0.0
H1098 H 0.95823 0.69409 0.5104 0.0
H1099 H 0.98259 0.63259 0.50013 0.0
H1100 H 0.9794 0.72629 0.45024 0.0
H1101 H 0.94393 0.70025 0.44461 0.0
H1102 H 0.95369 0.71882 0.47525 0.0
H1103 H 0.99144 0.62021 0.45887 0.0
H1104 H 0.97315 0.62493 0.43196 0.0
H1105 H 0.00888 0.65014 0.43775 0.0
H1106 H 0.94186 0.65718 0.36591 0.0
H1107 H 0.02745 0.71853 0.37797 0.0
H1108 H 0.91964 0.65133 0.43115 0.0
H1109 H 0.92905 0.62517 0.42622 0.0
H1110 H 0.91155 0.63277 0.40053 0.0
H1111 H 0.02377 0.72639 0.44599 0.0
H1112 H 0.04748 0.73114 0.41975 0.0
H1113 H 0.03446 0.7012 0.44091 0.0
C1114 C 0.34748 0.29941 0.4975 0.0
C1115 C 0.36076 0.32614 0.50874 0.0
C1116 C 0.34159 0.29534 0.47033 0.0
C1117 C 0.34916 0.31853 0.45356 0.0
C1118 C 0.36301 0.34561 0.46488 0.0
C1119 C 0.36835 0.34902 0.49214 0.0
C1120 C 0.32656 0.26606 0.45967 0.0
C1121 C 0.37188 0.37111 0.4482 0.0
C1122 C 0.35598 0.31168 0.3791 0.0
C1123 C 0.33181 0.31058 0.36898 0.0
C1124 C 0.36169 0.31397 0.40627 0.0
C1125 C 0.34256 0.31459 0.42436 0.0
C1126 C 0.31749 0.3122 0.41428 0.0
C1127 C 0.31251 0.31036 0.38691 0.0
C1128 C 0.38875 0.31661 0.41557 0.0
C1129 C 0.29609 0.31221 0.43244 0.0
H1130 H 0.34095 0.28153 0.51017 0.0
H1131 H 0.37812 0.36971 0.50062 0.0
H1132 H 0.30637 0.26159 0.45103 0.0
H1133 H 0.33898 0.26387 0.44383 0.0
H1134 H 0.32252 0.25024 0.47494 0.0
H1135 H 0.38343 0.39074 0.45955 0.0
H1136 H 0.38532 0.37146 0.43199 0.0
H1137 H 0.35328 0.37042 0.4393 0.0
H1138 H 0.37099 0.31167 0.36554 0.0
H1139 H 0.29376 0.30946 0.37947 0.0
H1140 H 0.38461 0.30014 0.4301 0.0
H1141 H 0.40144 0.33698 0.42546 0.0
H1142 H 0.40115 0.31505 0.39931 0.0
H1143 H 0.29024 0.29595 0.44764 0.0
H1144 H 0.27695 0.30843 0.42194 0.0
H1145 H 0.30507 0.33257 0.44261 0.0
C1146 C 0.93714 0.25077 0.88002 0.0
C1147 C 0.95548 0.24026 0.8823 0.0
C1148 C 0.92801 0.25907 0.90213 0.0
C1149 C 0.93721 0.2567 0.92733 0.0
C1150 C 0.95488 0.24514 0.92986 0.0
C1151 C 0.96389 0.23722 0.90738 0.0
C1152 C 0.90945 0.27153 0.8984 0.0
C1153 C 0.96496 0.24189 0.95631 0.0
C1154 C 0.94112 0.30639 0.98096 0.0
C1155 C 0.917 0.28974 0.99575 0.0
C1156 C 0.94766 0.29599 0.95864 0.0
C1157 C 0.92992 0.26802 0.9508 0.0
C1158 C 0.90549 0.25106 0.96548 0.0
C1159 C 0.89929 0.2621 0.98765 0.0
C1160 C 0.97386 0.31495 0.9436 0.0
C1161 C 0.88602 0.22112 0.9579 0.0
H1162 H 0.93084 0.25368 0.86077 0.0
H1163 H 0.97784 0.22892 0.90942 0.0
H1164 H 0.89077 0.26079 0.91104 0.0
H1165 H 0.92083 0.29378 0.90429 0.0
H1166 H 0.90255 0.27018 0.87781 0.0
H1167 H 0.97685 0.23066 0.9552 0.0
H1168 H 0.9786 0.26273 0.96501 0.0
H1169 H 0.94705 0.2304 0.9697 0.0
H1170 H 0.95544 0.32753 0.98718 0.0
H1171 H 0.88047 0.24901 0.99861 0.0
H1172 H 0.9687 0.31605 0.92286 0.0
H1173 H 0.98819 0.3064 0.94395 0.0
H1174 H 0.98501 0.33642 0.9517 0.0
H1175 H 0.87825 0.22009 0.93773 0.0
H1176 H 0.86787 0.21062 0.97126 0.0
H1177 H 0.89741 0.20938 0.95805 0.0
C1178 C 0.72769 0.62555 0.97777 0.0
C1179 C 0.73701 0.63991 1.00154 0.0
C1180 C 0.73681 0.63967 0.95367 0.0
C1181 C 0.75559 0.66886 0.95329 0.0
C1182 C 0.76627 0.68305 0.97722 0.0
C1183 C 0.75703 0.66843 1.00091 0.0
C1184 C 0.72518 0.6236 0.92865 0.0
C1185 C 0.78625 0.71408 0.97795 0.0
C1186 C 0.79232 0.70799 0.89075 0.0
C1187 C 0.77536 0.71882 0.88262 0.0
C1188 C 0.78587 0.69117 0.91328 0.0
C1189 C 0.76202 0.68514 0.92832 0.0
C1190 C 0.74478 0.69587 0.92016 0.0
C1191 C 0.7515 0.71227 0.89747 0.0
C1192 C 0.8047 0.68 0.92111 0.0
C1193 C 0.71923 0.6902 0.93556 0.0
H1194 H 0.71219 0.60358 0.97798 0.0
H1195 H 0.76479 0.67965 1.01913 0.0
H1196 H 0.71057 0.62947 0.91977 0.0
H1197 H 0.74214 0.62888 0.91436 0.0
H1198 H 0.71383 0.60072 0.93195 0.0
H1199 H 0.79439 0.72162 0.99791 0.0
H1200 H 0.80411 0.71973 0.96469 0.0
H1201 H 0.77548 0.72522 0.97097 0.0
H1202 H 0.81086 0.71287 0.87968 0.0
H1203 H 0.73765 0.71966 0.89117 0.0
H1204 H 0.79237 0.65703 0.92339 0.0
H1205 H 0.81443 0.68879 0.9403 0.0
H1206 H 0.82149 0.68515 0.90661 0.0
H1207 H 0.70482 0.66742 0.93716 0.0
H1208 H 0.70783 0.69983 0.92653 0.0
H1209 H 0.72534 0.69845 0.95569 0.0
C1210 C 0.3763 0.12508 0.98517 0.0
C1211 C 0.38566 0.10705 0.99377 0.0
C1212 C 0.35912 0.11879 0.96293 0.0
C1213 C 0.35115 0.09396 0.94873 0.0
C1214 C 0.3607 0.07583 0.95715 0.0
C1215 C 0.37758 0.08246 0.97952 0.0
C1216 C 0.34936 0.13866 0.95471 0.0
C1217 C 0.35287 0.04918 0.94262 0.0
C1218 C 0.28697 0.06057 0.90454 0.0
C1219 C 0.29886 0.06832 0.87957 0.0
C1220 C 0.30358 0.06967 0.92723 0.0
C1221 C 0.33291 0.08675 0.92502 0.0
C1222 C 0.34493 0.09531 0.89991 0.0
C1223 C 0.32782 0.08609 0.87759 0.0
C1224 C 0.28981 0.06027 0.95357 0.0
C1225 C 0.37606 0.11322 0.89653 0.0
H1226 H 0.38249 0.14422 0.99576 0.0
H1227 H 0.38394 0.06791 0.98617 0.0
H1228 H 0.35651 0.14616 0.93456 0.0
H1229 H 0.32625 0.12771 0.9545 0.0
H1230 H 0.35715 0.15698 0.96789 0.0
H1231 H 0.36254 0.03764 0.95128 0.0
H1232 H 0.32991 0.0354 0.94275 0.0
H1233 H 0.35946 0.05386 0.92192 0.0
H1234 H 0.26463 0.04706 0.90634 0.0
H1235 H 0.33735 0.09185 0.85844 0.0
H1236 H 0.29652 0.07846 0.96669 0.0
H1237 H 0.29636 0.04633 0.9628 0.0
H1238 H 0.26671 0.04891 0.95216 0.0
H1239 H 0.38422 0.13213 0.90891 0.0
H1240 H 0.382 0.11975 0.87593 0.0
H1241 H 0.38639 0.10149 0.90299 0.0
C1242 C 0.24965 0.96471 0.64292 0.0
C1243 C 0.25663 0.95677 0.66651 0.0
C1244 C 0.25545 0.95666 0.61862 0.0
C1245 C 0.26877 0.94045 0.61778 0.0
C1246 C 0.27448 0.93116 0.64151 0.0
C1247 C 0.26814 0.93918 0.66543 0.0
C1248 C 0.24857 0.96669 0.59384 0.0
C1249 C 0.28874 0.91399 0.64172 0.0
C1250 C 0.27335 0.90737 0.55349 0.0
C1251 C 0.29958 0.92755 0.54415 0.0
C1252 C 0.26291 0.91122 0.57734 0.0
C1253 C 0.27927 0.9356 0.59241 0.0
C1254 C 0.30613 0.95555 0.58333 0.0
C1255 C 0.31579 0.9514 0.55932 0.0
C1256 C 0.23408 0.88959 0.58608 0.0
C1257 C 0.32462 0.98155 0.59885 0.0
H1258 H 0.24084 0.97831 0.64337 0.0
H1259 H 0.27302 0.93227 0.68346 0.0
H1260 H 0.26812 0.98255 0.58435 0.0
H1261 H 0.23766 0.9492 0.57986 0.0
H1262 H 0.2353 0.97612 0.59757 0.0
H1263 H 0.28963 0.90644 0.6616 0.0
H1264 H 0.2778 0.89576 0.62856 0.0
H1265 H 0.31035 0.92676 0.63433 0.0
H1266 H 0.26062 0.88909 0.54168 0.0
H1267 H 0.33611 0.96702 0.5522 0.0
H1268 H 0.22061 0.89909 0.58732 0.0
H1269 H 0.23494 0.88196 0.60589 0.0
H1270 H 0.22424 0.87151 0.57256 0.0
H1271 H 0.31435 0.99422 0.60107 0.0
H1272 H 0.34525 0.99462 0.58948 0.0
H1273 H 0.32799 0.97584 0.61875 0.0
C1274 C 0.08729 0.30675 0.65747 0.0
C1275 C 0.06074 0.30016 0.66635 0.0
C1276 C 0.09831 0.32199 0.63417 0.0
C1277 C 0.08227 0.33052 0.61924 0.0
C1278 C 0.05497 0.32277 0.62763 0.0
C1279 C 0.04467 0.30788 0.65105 0.0
C1280 C 0.12751 0.32989 0.62605 0.0
C1281 C 0.03687 0.33093 0.61226 0.0
C1282 C 0.11496 0.3943 0.57466 0.0
C1283 C 0.11031 0.38218 0.54975 0.0
C1284 C 0.10718 0.37784 0.59744 0.0
C1285 C 0.09409 0.34842 0.5954 0.0
C1286 C 0.0902 0.33614 0.57036 0.0
C1287 C 0.09842 0.35311 0.54792 0.0
C1288 C 0.11206 0.39191 0.62369 0.0
C1289 C 0.07606 0.30492 0.56715 0.0
H1290 H 0.09989 0.30106 0.66934 0.0
H1291 H 0.02407 0.30269 0.65774 0.0
H1292 H 0.12765 0.3235 0.60555 0.0
H1293 H 0.14106 0.35286 0.62694 0.0
H1294 H 0.13661 0.32021 0.63874 0.0
H1295 H 0.01558 0.3219 0.62058 0.0
H1296 H 0.04657 0.35395 0.61203 0.0
H1297 H 0.03512 0.32394 0.5917 0.0
H1298 H 0.12434 0.41671 0.57633 0.0
H1299 H 0.09431 0.34343 0.52882 0.0
H1300 H 0.12285 0.38454 0.63698 0.0
H1301 H 0.09175 0.38634 0.63276 0.0
H1302 H 0.12467 0.41497 0.62216 0.0
H1303 H 0.08589 0.29617 0.58003 0.0
H1304 H 0.07688 0.29874 0.54668 0.0
H1305 H 0.05389 0.29537 0.57306 0.0
C1306 C 0.63952 0.704 0.56255 0.0
C1307 C 0.63231 0.72097 0.54806 0.0
C1308 C 0.65345 0.71279 0.58662 0.0
C1309 C 0.66082 0.73949 0.59652 0.0
C1310 C 0.65302 0.75653 0.58225 0.0
C1311 C 0.63869 0.74699 0.55826 0.0
C1312 C 0.66079 0.69364 0.60123 0.0
C1313 C 0.6606 0.78517 0.59192 0.0
C1314 C 0.67722 0.74885 0.6694 0.0
C1315 C 0.70632 0.76026 0.6698 0.0
C1316 C 0.66232 0.74313 0.64579 0.0
C1317 C 0.67675 0.74927 0.62172 0.0
C1318 C 0.70627 0.76235 0.62194 0.0
C1319 C 0.72067 0.76762 0.64591 0.0
C1320 C 0.63093 0.72917 0.64665 0.0
C1321 C 0.72258 0.76957 0.5968 0.0
H1322 H 0.63462 0.68386 0.55474 0.0
H1323 H 0.63351 0.76032 0.54696 0.0
H1324 H 0.68375 0.70352 0.60302 0.0
H1325 H 0.65215 0.69001 0.6213 0.0
H1326 H 0.65272 0.67317 0.59137 0.0
H1327 H 0.652 0.79535 0.57926 0.0
H1328 H 0.6528 0.78394 0.6121 0.0
H1329 H 0.68361 0.79854 0.59259 0.0
H1330 H 0.66588 0.74366 0.68768 0.0
H1331 H 0.74307 0.77633 0.64584 0.0
H1332 H 0.62171 0.7077 0.63877 0.0
H1333 H 0.62354 0.74055 0.63419 0.0
H1334 H 0.62299 0.72796 0.6668 0.0
H1335 H 0.71829 0.75015 0.58662 0.0
H1336 H 0.7454 0.7824 0.60017 0.0
H1337 H 0.71599 0.78109 0.58358 0.0
C1338 C 0.34416 0.37655 0.82465 0.0
C1339 C 0.36629 0.3835 0.84206 0.0
C1340 C 0.34737 0.37505 0.79727 0.0
C1341 C 0.37336 0.38046 0.78667 0.0
C1342 C 0.39593 0.38811 0.80425 0.0
C1343 C 0.39215 0.38958 0.83149 0.0
C1344 C 0.32263 0.36698 0.77969 0.0
C1345 C 0.424 0.39406 0.79435 0.0
C1346 C 0.37354 0.34878 0.71931 0.0
C1347 C 0.38176 0.37137 0.70213 0.0
C1348 C 0.37108 0.35151 0.7466 0.0
C1349 C 0.37675 0.37748 0.75744 0.0
C1350 C 0.38543 0.40045 0.74015 0.0
C1351 C 0.38784 0.39715 0.71295 0.0
C1352 C 0.3619 0.32634 0.76383 0.0
C1353 C 0.3917 0.42853 0.75035 0.0
H1354 H 0.32404 0.37154 0.83254 0.0
H1355 H 0.40933 0.39471 0.84474 0.0
H1356 H 0.32813 0.38287 0.76419 0.0
H1357 H 0.31673 0.34693 0.76987 0.0
H1358 H 0.30428 0.36472 0.79057 0.0
H1359 H 0.43974 0.4007 0.81022 0.0
H1360 H 0.42204 0.37511 0.78497 0.0
H1361 H 0.4317 0.41063 0.77927 0.0
H1362 H 0.36839 0.32867 0.71125 0.0
H1363 H 0.39393 0.41468 0.69993 0.0
H1364 H 0.34187 0.32095 0.77341 0.0
H1365 H 0.37744 0.33107 0.77954 0.0
H1366 H 0.35915 0.3079 0.75275 0.0
H1367 H 0.3988 0.44451 0.73468 0.0
H1368 H 0.40806 0.43577 0.76563 0.0
H1369 H 0.37278 0.42679 0.75957 0.0
C1370 C 0.66462 0.00961 0.71643 0.0
C1371 C 0.65329 0.02414 0.70349 0.0
C1372 C 0.66064 0.00346 0.74343 0.0
C1373 C 0.64794 0.01503 0.75945 0.0
C1374 C 0.63806 0.03141 0.74674 0.0
C1375 C 0.63951 0.0344 0.71911 0.0
C1376 C 0.66985 0.98394 0.75409 0.0
C1377 C 0.62595 0.04625 0.76182 0.0
C1378 C 0.61788 0.9915 0.82945 0.0
C1379 C 0.64187 1.00018 0.84487 0.0
C1380 C 0.61933 0.99496 0.80188 0.0
C1381 C 0.64564 0.01037 0.78908 0.0
C1382 C 0.66996 0.02064 0.80496 0.0
C1383 C 0.66772 0.01397 0.83186 0.0
C1384 C 0.59222 0.98154 0.78695 0.0
C1385 C 0.69886 0.03918 0.79421 0.0
H1386 H 0.67599 1.00196 0.70519 0.0
H1387 H 0.62992 0.04509 0.70982 0.0
H1388 H 0.69287 0.99533 0.7561 0.0
H1389 H 0.66028 0.97473 0.7732 0.0
H1390 H 0.66444 0.96663 0.74012 0.0
H1391 H 0.63314 0.06721 0.75333 0.0
H1392 H 0.60292 0.03441 0.75997 0.0
H1393 H 0.63168 0.04883 0.7828 0.0
H1394 H 0.59766 0.98147 0.83885 0.0
H1395 H 0.68667 0.02041 0.8429 0.0
H1396 H 0.59491 0.97867 0.76594 0.0
H1397 H 0.58232 0.99459 0.78892 0.0
H1398 H 0.57752 0.96084 0.79544 0.0
H1399 H 0.70961 0.02693 0.79214 0.0
H1400 H 0.71137 0.05628 0.8082 0.0
H1401 H 0.69889 0.04866 0.77514 0.0
C1402 C 0.99714 0.62262 0.83158 0.0
C1403 C 0.01711 0.6483 0.84238 0.0
C1404 C 0.99141 0.6193 0.80435 0.0
C1405 C 0.00595 0.64216 0.78699 0.0
C1406 C 0.02645 0.66805 0.79782 0.0
C1407 C 0.03167 0.67079 0.82513 0.0
C1408 C 0.96939 0.5913 0.79419 0.0
C1409 C 0.04271 0.69312 0.78054 0.0
C1410 C 0.00926 0.62965 0.71295 0.0
C1411 C 0.98963 0.63588 0.70218 0.0
C1412 C 0.01443 0.63119 0.74023 0.0
C1413 C 0.99966 0.63914 0.75769 0.0
C1414 C 0.97931 0.6448 0.74687 0.0
C1415 C 0.97464 0.64319 0.71946 0.0
C1416 C 0.03632 0.62496 0.75033 0.0
C1417 C 0.96283 0.65324 0.76427 0.0
H1418 H 0.98558 0.60513 0.84461 0.0
H1419 H 0.04688 0.69082 0.83314 0.0
H1420 H 0.95244 0.59329 0.78473 0.0
H1421 H 0.97842 0.58378 0.77911 0.0
H1422 H 0.96023 0.57543 0.80992 0.0
H1423 H 0.05843 0.71154 0.79164 0.0
H1424 H 0.05353 0.68819 0.76501 0.0
H1425 H 0.02826 0.69864 0.77074 0.0
H1426 H 0.0212 0.62429 0.69982 0.0
H1427 H 0.95969 0.64837 0.71144 0.0
H1428 H 0.02726 0.60846 0.76546 0.0
H1429 H 0.05341 0.64385 0.7597 0.0
H1430 H 0.04531 0.6181 0.73457 0.0
H1431 H 0.95222 0.63743 0.77979 0.0
H1432 H 0.94693 0.65572 0.75325 0.0
H1433 H 0.97713 0.67325 0.77407 0.0
C1434 C 0.56288 0.59723 0.31899 0.0
C1435 C 0.58065 0.62455 0.32788 0.0
C1436 C 0.56952 0.58669 0.29674 0.0
C1437 C 0.59447 0.60383 0.28282 0.0
C1438 C 0.61232 0.63146 0.29151 0.0
C1439 C 0.60532 0.64136 0.31388 0.0
C1440 C 0.54992 0.5571 0.28821 0.0
C1441 C 0.63909 0.65057 0.27731 0.0
C1442 C 0.62872 0.57363 0.23905 0.0
C1443 C 0.62122 0.57785 0.21398 0.0
C1444 C 0.61931 0.58098 0.26162 0.0
C1445 C 0.60214 0.5931 0.25919 0.0
C1446 C 0.59384 0.59666 0.23397 0.0
C1447 C 0.60338 0.58896 0.21177 0.0
C1448 C 0.62846 0.57653 0.28808 0.0
C1449 C 0.5758 0.60972 0.23036 0.0
H1450 H 0.54367 0.58403 0.32938 0.0
H1451 H 0.61966 0.66223 0.32075 0.0
H1452 H 0.54275 0.55689 0.26794 0.0
H1453 H 0.561 0.54506 0.2882 0.0
H1454 H 0.5314 0.54638 0.3011 0.0
H1455 H 0.65036 0.67171 0.28612 0.0
H1456 H 0.65304 0.64157 0.2776 0.0
H1457 H 0.63463 0.65258 0.25655 0.0
H1458 H 0.64226 0.56484 0.24104 0.0
H1459 H 0.59779 0.59277 0.19255 0.0
H1460 H 0.61012 0.56479 0.30095 0.0
H1461 H 0.64211 0.59696 0.29751 0.0
H1462 H 0.64005 0.565 0.28682 0.0
H1463 H 0.55672 0.59877 0.24248 0.0
H1464 H 0.56954 0.60927 0.20967 0.0
H1465 H 0.58731 0.63173 0.23699 0.0
C1466 C 0.45762 0.05032 0.22094 0.0
C1467 C 0.43769 0.05714 0.21248 0.0
C1468 C 0.45375 0.03526 0.2443 0.0
C1469 C 0.42952 0.02707 0.25962 0.0
C1470 C 0.41012 0.03523 0.25171 0.0
C1471 C 0.41437 0.04998 0.22826 0.0
C1472 C 0.47492 0.027 0.25195 0.0
C1473 C 0.38421 0.0274 0.26748 0.0
C1474 C 0.39809 0.96275 0.30342 0.0
C1475 C 0.4058 0.97453 0.32844 0.0
C1476 C 0.4068 0.97949 0.28084 0.0
C1477 C 0.42346 0.00886 0.28319 0.0
C1478 C 0.43214 0.02078 0.30833 0.0
C1479 C 0.42329 0.00353 0.33057 0.0
C1480 C 0.39724 0.96581 0.25446 0.0
C1481 C 0.44965 0.05193 0.31186 0.0
H1482 H 0.47549 0.05554 0.20865 0.0
H1483 H 0.39894 0.05525 0.22178 0.0
H1484 H 0.48148 0.03286 0.27254 0.0
H1485 H 0.46537 0.00403 0.25053 0.0
H1486 H 0.49368 0.03687 0.23928 0.0
H1487 H 0.37219 0.03693 0.25963 0.0
H1488 H 0.37052 0.00442 0.26749 0.0
H1489 H 0.38981 0.03407 0.28808 0.0
H1490 H 0.38484 0.94038 0.3015 0.0
H1491 H 0.42906 0.01296 0.34976 0.0
H1492 H 0.41527 0.97306 0.24105 0.0
H1493 H 0.3827 0.97185 0.24569 0.0
H1494 H 0.38646 0.94272 0.25571 0.0
H1495 H 0.46803 0.0606 0.29876 0.0
H1496 H 0.45698 0.05776 0.3323 0.0
H1497 H 0.43722 0.06185 0.30646 0.0
C1498 C 0.05774 0.43594 0.31329 0.0
C1499 C 0.04308 0.42866 0.33701 0.0
C1500 C 0.04365 0.43096 0.28916 0.0
C1501 C 0.01416 0.41825 0.28861 0.0
C1502 C 0.99947 0.41231 0.31252 0.0
C1503 C 0.01405 0.41774 0.33628 0.0
C1504 C 0.06025 0.438 0.26419 0.0
C1505 C 0.96811 0.39875 0.31305 0.0
C1506 C 0.97673 0.41617 0.22477 0.0
C1507 C 0.97006 0.38999 0.21476 0.0
C1508 C 0.99101 0.42573 0.24878 0.0
C1509 C 0.99847 0.40856 0.26327 0.0
C1510 C 0.99085 0.38173 0.25354 0.0
C1511 C 0.97698 0.37292 0.22944 0.0
C1512 C 0.99889 0.45452 0.25825 0.0
C1513 C 0.99779 0.36242 0.26839 0.0
H1514 H 0.08008 0.4443 0.31349 0.0
H1515 H 1.00249 0.41262 0.35444 0.0
H1516 H 0.05592 0.4185 0.25415 0.0
H1517 H 0.05396 0.4496 0.25076 0.0
H1518 H 0.08303 0.45069 0.26779 0.0
H1519 H 0.95999 0.39775 0.33308 0.0
H1520 H 0.96108 0.41026 0.30034 0.0
H1521 H 0.95871 0.37721 0.30528 0.0
H1522 H 0.97178 0.42958 0.21331 0.0
H1523 H 0.9719 0.35269 0.22174 0.0
H1524 H 0.02193 0.46763 0.25911 0.0
H1525 H 0.99093 0.45348 0.27833 0.0
H1526 H 0.99065 0.46487 0.24536 0.0
H1527 H 0.02072 0.37209 0.27037 0.0
H1528 H 0.98961 0.3419 0.2586 0.0
H1529 H 0.98898 0.35892 0.28838 0.0
C1530 C 0.25934 0.869 0.36533 0.0
C1531 C 0.25686 0.8792 0.38967 0.0
C1532 C 0.23565 0.85061 0.35067 0.0
C1533 C 0.20864 0.84242 0.3603 0.0
C1534 C 0.20613 0.85392 0.38426 0.0
C1535 C 0.23024 0.87199 0.39874 0.0
C1536 C 0.23956 0.83881 0.32551 0.0
C1537 C 0.17789 0.84628 0.39513 0.0
C1538 C 0.14657 0.80703 0.31312 0.0
C1539 C 0.13471 0.7788 0.31998 0.0
C1540 C 0.17039 0.82793 0.32612 0.0
C1541 C 0.18315 0.82052 0.34619 0.0
C1542 C 0.17162 0.79196 0.35273 0.0
C1543 C 0.14749 0.77159 0.3398 0.0
C1544 C 0.18156 0.85803 0.31874 0.0
C1545 C 0.18472 0.78288 0.37354 0.0
H1546 H 0.27991 0.8744 0.35838 0.0
H1547 H 0.22825 0.87967 0.41762 0.0
H1548 H 0.23104 0.81604 0.32772 0.0
H1549 H 0.22791 0.84181 0.30943 0.0
H1550 H 0.26184 0.84856 0.31983 0.0
H1551 H 0.17945 0.85902 0.41247 0.0
H1552 H 0.16513 0.84904 0.38 0.0
H1553 H 0.16669 0.82399 0.40087 0.0
H1554 H 0.13664 0.81288 0.29813 0.0
H1555 H 0.13857 0.74986 0.34519 0.0
H1556 H 0.20363 0.86755 0.31252 0.0
H1557 H 0.18106 0.86989 0.33599 0.0
H1558 H 0.16941 0.86044 0.30272 0.0
H1559 H 0.2069 0.79049 0.36873 0.0
H1560 H 0.17387 0.75987 0.37574 0.0
H1561 H 0.18427 0.79218 0.39258 0.0
C1562 C 0.24699 0.37574 0.33636 0.0
C1563 C 0.23768 0.35372 0.31828 0.0
C1564 C 0.22821 0.38196 0.3493 0.0
C1565 C 0.19912 0.36543 0.34474 0.0
C1566 C 0.18955 0.34334 0.32648 0.0
C1567 C 0.2088 0.33813 0.31323 0.0
C1568 C 0.23954 0.40617 0.3681 0.0
C1569 C 0.1588 0.32482 0.32118 0.0
C1570 C 0.15112 0.36662 0.39811 0.0
C1571 C 0.1426 0.38448 0.3874 0.0
C1572 C 0.16859 0.35944 0.38411 0.0
C1573 C 0.17872 0.37116 0.35908 0.0
C1574 C 0.16976 0.38885 0.34803 0.0
C1575 C 0.15158 0.39495 0.36213 0.0
C1576 C 0.17685 0.33991 0.39647 0.0
C1577 C 0.18043 0.40246 0.3218 0.0
H1578 H 0.26898 0.38791 0.34091 0.0
H1579 H 0.20097 0.32162 0.29885 0.0
H1580 H 0.23167 0.42045 0.36288 0.0
H1581 H 0.23216 0.39846 0.38815 0.0
H1582 H 0.26268 0.41819 0.36825 0.0
H1583 H 0.15456 0.30795 0.30704 0.0
H1584 H 0.14772 0.3152 0.33968 0.0
H1585 H 0.14989 0.33736 0.31336 0.0
H1586 H 0.14493 0.35902 0.41787 0.0
H1587 H 0.14553 0.4092 0.35396 0.0
H1588 H 0.19947 0.35135 0.40093 0.0
H1589 H 0.17301 0.32289 0.38269 0.0
H1590 H 0.16525 0.33055 0.41483 0.0
H1591 H 0.20338 0.41625 0.32273 0.0
H1592 H 0.17093 0.41506 0.31556 0.0
H1593 H 0.17609 0.38646 0.30669 0.0
C1594 C 0.68889 0.89514 0.33978 0.0
C1595 C 0.66772 0.89839 0.32785 0.0
C1596 C 0.68298 0.8708 0.35364 0.0
C1597 C 0.65506 0.84904 0.35655 0.0
C1598 C 0.63347 0.85234 0.34525 0.0
C1599 C 0.64002 0.87671 0.33094 0.0
C1600 C 0.70679 0.86829 0.36503 0.0
C1601 C 0.60334 0.82997 0.34817 0.0
C1602 C 0.63873 0.77452 0.37183 0.0
C1603 C 0.63411 0.7727 0.39889 0.0
C1604 C 0.64622 0.79933 0.35799 0.0
C1605 C 0.64853 0.82287 0.37131 0.0
C1606 C 0.64434 0.82123 0.39875 0.0
C1607 C 0.63745 0.79634 0.41217 0.0
C1608 C 0.65103 0.80012 0.32893 0.0
C1609 C 0.64609 0.84545 0.41382 0.0
H1610 H 0.71034 0.91179 0.3385 0.0
H1611 H 0.62333 0.8785 0.32183 0.0
H1612 H 0.70454 0.86595 0.38654 0.0
H1613 H 0.70632 0.84936 0.35728 0.0
H1614 H 0.72741 0.88667 0.36051 0.0
H1615 H 0.58887 0.8361 0.33935 0.0
H1616 H 0.59985 0.81048 0.3387 0.0
H1617 H 0.5981 0.82526 0.36914 0.0
H1618 H 0.63562 0.75619 0.36134 0.0
H1619 H 0.63343 0.79489 0.43299 0.0
H1620 H 0.67163 0.81823 0.32389 0.0
H1621 H 0.63498 0.80279 0.31847 0.0
H1622 H 0.65022 0.78082 0.32172 0.0
H1623 H 0.66668 0.86436 0.41075 0.0
H1624 H 0.6429 0.84117 0.4351 0.0
H1625 H 0.63004 0.8502 0.40653 0.0
C1626 C 0.7755 0.14771 0.20925 0.0
C1627 C 0.78277 0.13405 0.22812 0.0
C1628 C 0.79588 0.17233 0.19698 0.0
C1629 C 0.8245 0.18342 0.20312 0.0
C1630 C 0.83194 0.16973 0.22221 0.0
C1631 C 0.81104 0.14548 0.23465 0.0
C1632 C 0.78674 0.18642 0.17726 0.0
C1633 C 0.86209 0.1803 0.22903 0.0
C1634 C 0.87473 0.23135 0.15041 0.0
C1635 C 0.88287 0.25794 0.16036 0.0
C1636 C 0.85704 0.20702 0.16472 0.0
C1637 C 0.84644 0.20914 0.18932 0.0
C1638 C 0.85541 0.23602 0.19981 0.0
C1639 C 0.87363 0.25997 0.18535 0.0
C1640 C 0.84864 0.17897 0.15289 0.0
C1641 C 0.84439 0.23953 0.22561 0.0
H1642 H 0.75374 0.13912 0.20412 0.0
H1643 H 0.81692 0.13488 0.24891 0.0
H1644 H 0.79497 0.20855 0.18277 0.0
H1645 H 0.79539 0.18625 0.15778 0.0
H1646 H 0.7637 0.17609 0.17562 0.0
H1647 H 0.86453 0.16753 0.2444 0.0
H1648 H 0.87357 0.18013 0.21134 0.0
H1649 H 0.872 0.20218 0.2359 0.0
H1650 H 0.8811 0.22951 0.13085 0.0
H1651 H 0.87938 0.28044 0.19291 0.0
H1652 H 0.82636 0.16849 0.14713 0.0
H1653 H 0.85098 0.16541 0.16742 0.0
H1654 H 0.86122 0.18076 0.13536 0.0
H1655 H 0.82171 0.23179 0.22385 0.0
H1656 H 0.85489 0.26164 0.23202 0.0
H1657 H 0.84711 0.22699 0.24097 0.0
C1658 C 0.79828 0.63638 0.13402 0.0
C1659 C 0.77506 0.6339 0.1474 0.0
C1660 C 0.82316 0.64294 0.1473 0.0
C1661 C 0.82518 0.64768 0.17465 0.0
C1662 C 0.80208 0.64624 0.18806 0.0
C1663 C 0.77725 0.639 0.17438 0.0
C1664 C 0.84691 0.64372 0.13218 0.0
C1665 C 0.80335 0.65169 0.21703 0.0
C1666 C 0.87835 0.63848 0.21529 0.0
C1667 C 0.90049 0.66603 0.21787 0.0
C1668 C 0.85404 0.63218 0.201 0.0
C1669 C 0.8513 0.6539 0.18926 0.0
C1670 C 0.87352 0.68166 0.19163 0.0
C1671 C 0.89781 0.68728 0.20543 0.0
C1672 C 0.83115 0.60219 0.19858 0.0
C1673 C 0.87157 0.70558 0.17978 0.0
H1674 H 0.7965 0.63192 0.11328 0.0
H1675 H 0.75919 0.63647 0.18495 0.0
H1676 H 0.86616 0.66412 0.13489 0.0
H1677 H 0.85122 0.62748 0.13974 0.0
H1678 H 0.84235 0.64018 0.11096 0.0
H1679 H 0.7844 0.65159 0.22426 0.0
H1680 H 0.80563 0.63555 0.22775 0.0
H1681 H 0.82185 0.67215 0.22172 0.0
H1682 H 0.87972 0.62174 0.22479 0.0
H1683 H 0.91483 0.70859 0.2063 0.0
H1684 H 0.82608 0.59659 0.1777 0.0
H1685 H 0.81195 0.59935 0.20817 0.0
H1686 H 0.83695 0.58755 0.20759 0.0
H1687 H 0.86895 0.70289 0.15831 0.0
H1688 H 0.89031 0.72608 0.18391 0.0
H1689 H 0.85298 0.7058 0.18751 0.0
C1690 C 0.38933 0.2526 0.20816 0.0
C1691 C 0.36886 0.24533 0.22747 0.0
C1692 C 0.39364 0.23229 0.19584 0.0
C1693 C 0.3766 0.20373 0.20238 0.0
C1694 C 0.356 0.19629 0.222 0.0
C1695 C 0.3526 0.21714 0.23447 0.0
C1696 C 0.41631 0.24142 0.17556 0.0
C1697 C 0.33694 0.16618 0.22926 0.0
C1698 C 0.37294 0.15311 0.14945 0.0
C1699 C 0.39177 0.14517 0.1588 0.0
C1700 C 0.36667 0.17089 0.16406 0.0
C1701 C 0.38018 0.18181 0.18832 0.0
C1702 C 0.39859 0.17316 0.19817 0.0
C1703 C 0.40394 0.15483 0.18344 0.0
C1704 C 0.34648 0.17898 0.15292 0.0
C1705 C 0.41395 0.18455 0.22357 0.0
H1706 H 0.40201 0.27431 0.20265 0.0
H1707 H 0.33645 0.21127 0.24906 0.0
H1708 H 0.43046 0.23334 0.18057 0.0
H1709 H 0.40696 0.23264 0.15626 0.0
H1710 H 0.42884 0.26446 0.17379 0.0
H1711 H 0.3223 0.16377 0.24519 0.0
H1712 H 0.32466 0.15444 0.21192 0.0
H1713 H 0.34935 0.15652 0.23555 0.0
H1714 H 0.36405 0.14645 0.13014 0.0
H1715 H 0.41894 0.14922 0.19052 0.0
H1716 H 0.35792 0.20123 0.14707 0.0
H1717 H 0.33096 0.17656 0.16789 0.0
H1718 H 0.33526 0.16625 0.13557 0.0
H1719 H 0.42862 0.20725 0.22153 0.0
H1720 H 0.42598 0.17431 0.2295 0.0
H1721 H 0.39915 0.1818 0.23941 0.0
C1722 C 0.8228 0.10587 0.65199 0.0
C1723 C 0.79795 0.1066 0.65415 0.0
C1724 C 0.8473 0.12571 0.66495 0.0
C1725 C 0.84723 0.14729 0.67989 0.0
C1726 C 0.82237 0.14864 0.68121 0.0
C1727 C 0.79803 0.12813 0.66869 0.0
C1728 C 0.87304 0.12299 0.66339 0.0
C1729 C 0.82132 0.17154 0.69622 0.0
C1730 C 0.89988 0.1794 0.73571 0.0
C1731 C 0.92192 0.20299 0.72391 0.0
C1732 C 0.87555 0.16133 0.7217 0.0
C1733 C 0.87257 0.16736 0.69537 0.0
C1734 C 0.89409 0.19217 0.68389 0.0
C1735 C 0.91863 0.20951 0.69819 0.0
C1736 C 0.85356 0.13508 0.73479 0.0
C1737 C 0.89153 0.20001 0.65624 0.0
H1738 H 0.82279 0.08921 0.6409 0.0
H1739 H 0.7789 0.12886 0.67028 0.0
H1740 H 0.8908 0.14252 0.65571 0.0
H1741 H 0.8789 0.11967 0.68325 0.0
H1742 H 0.86994 0.10541 0.6507 0.0
H1743 H 0.80126 0.17119 0.69341 0.0
H1744 H 0.8241 0.16932 0.71736 0.0
H1745 H 0.83861 0.19218 0.69004 0.0
H1746 H 0.90238 0.17433 0.75561 0.0
H1747 H 0.93559 0.22772 0.68901 0.0
H1748 H 0.851 0.11659 0.72396 0.0
H1749 H 0.83317 0.1343 0.73437 0.0
H1750 H 0.85887 0.13351 0.75541 0.0
H1751 H 0.89187 0.18473 0.64248 0.0
H1752 H 0.90869 0.22114 0.651 0.0
H1753 H 0.87133 0.19935 0.65354 0.0
C1754 C 0.87946 0.66249 0.66971 0.0
C1755 C 0.90315 0.68349 0.6568 0.0
C1756 C 0.86054 0.66824 0.68284 0.0
C1757 C 0.86544 0.69587 0.68387 0.0
C1758 C 0.88955 0.71733 0.67145 0.0
C1759 C 0.90793 0.7109 0.658 0.0
C1760 C 0.83518 0.6446 0.69563 0.0
C1761 C 0.89592 0.74717 0.67232 0.0
C1762 C 0.80553 0.70988 0.69849 0.0
C1763 C 0.80964 0.7169 0.72504 0.0
C1764 C 0.82306 0.70239 0.685 0.0
C1765 C 0.84557 0.70232 0.69826 0.0
C1766 C 0.84925 0.70872 0.7253 0.0
C1767 C 0.83119 0.71574 0.73834 0.0
C1768 C 0.81795 0.69526 0.65636 0.0
C1769 C 0.87296 0.70922 0.7403 0.0
H1770 H 0.87566 0.64133 0.66979 0.0
H1771 H 0.92584 0.7274 0.64808 0.0
H1772 H 0.83567 0.64831 0.71695 0.0
H1773 H 0.81599 0.6436 0.68786 0.0
H1774 H 0.83378 0.62412 0.69239 0.0
H1775 H 0.9158 0.7616 0.66235 0.0
H1776 H 0.87882 0.7489 0.66288 0.0
H1777 H 0.8972 0.75398 0.6929 0.0
H1778 H 0.78914 0.71113 0.6881 0.0
H1779 H 0.83464 0.72158 0.75878 0.0
H1780 H 0.81617 0.6747 0.65267 0.0
H1781 H 0.83589 0.71093 0.6448 0.0
H1782 H 0.79872 0.69467 0.64923 0.0
H1783 H 0.87218 0.68891 0.73845 0.0
H1784 H 0.8725 0.71378 0.76136 0.0
H1785 H 0.89312 0.72534 0.73197 0.0
C1786 C 0.31542 0.12395 0.72776 0.0
C1787 C 0.29818 0.09745 0.71699 0.0
C1788 C 0.32207 0.14843 0.71371 0.0
C1789 C 0.31045 0.14652 0.68855 0.0
C1790 C 0.29373 0.11978 0.67729 0.0
C1791 C 0.28811 0.09569 0.69148 0.0
C1792 C 0.34057 0.17635 0.72632 0.0
C1793 C 0.28029 0.11648 0.6509 0.0
C1794 C 0.30019 0.2074 0.66818 0.0
C1795 C 0.32179 0.22174 0.65012 0.0
C1796 C 0.29592 0.18267 0.68025 0.0
C1797 C 0.31419 0.17227 0.67485 0.0
C1798 C 0.33606 0.18672 0.65661 0.0
C1799 C 0.33936 0.21099 0.64426 0.0
C1800 C 0.27188 0.16773 0.69898 0.0
C1801 C 0.3565 0.17697 0.6507 0.0
H1802 H 0.32274 0.12554 0.74766 0.0
H1803 H 0.27436 0.07528 0.68325 0.0
H1804 H 0.35694 0.19053 0.71247 0.0
H1805 H 0.32801 0.18617 0.73157 0.0
H1806 H 0.35076 0.1745 0.7443 0.0
H1807 H 0.26939 0.0945 0.6441 0.0
H1808 H 0.26494 0.12376 0.65197 0.0
H1809 H 0.29612 0.12954 0.63616 0.0
H1810 H 0.28654 0.21556 0.67282 0.0
H1811 H 0.35637 0.22217 0.63064 0.0
H1812 H 0.2799 0.16788 0.71886 0.0
H1813 H 0.25877 0.14561 0.69306 0.0
H1814 H 0.25856 0.17745 0.69989 0.0
H1815 H 0.36746 0.17707 0.66888 0.0
H1816 H 0.37226 0.19032 0.63597 0.0
H1817 H 0.34531 0.15523 0.64339 0.0
C1818 C 0.20172 0.8928 0.81108 0.0
C1819 C 0.20799 0.91938 0.81946 0.0
C1820 C 0.18399 0.86881 0.82582 0.0
C1821 C 0.17187 0.87138 0.84935 0.0
C1822 C 0.17912 0.89839 0.85832 0.0
C1823 C 0.19718 0.92197 0.8434 0.0
C1824 C 0.17733 0.84059 0.81566 0.0
C1825 C 0.16666 0.90235 0.88302 0.0
C1826 C 0.10158 0.80945 0.86984 0.0
C1827 C 0.10902 0.79739 0.89016 0.0
C1828 C 0.1217 0.83354 0.8567 0.0
C1829 C 0.15025 0.84589 0.86363 0.0
C1830 C 0.1579 0.83393 0.88426 0.0
C1831 C 0.13725 0.81005 0.89736 0.0
C1832 C 0.11236 0.84573 0.83525 0.0
C1833 C 0.18801 0.84604 0.89214 0.0
H1834 H 0.20988 0.89072 0.79251 0.0
H1835 H 0.20184 0.94251 0.84982 0.0
H1836 H 0.18039 0.82848 0.83126 0.0
H1837 H 0.15513 0.82869 0.80967 0.0
H1838 H 0.19045 0.8422 0.79863 0.0
H1839 H 0.17579 0.92469 0.88828 0.0
H1840 H 0.14385 0.89321 0.88044 0.0
H1841 H 0.16985 0.8913 0.89953 0.0
H1842 H 0.07987 0.80001 0.86419 0.0
H1843 H 0.14334 0.80072 0.91274 0.0
H1844 H 0.12217 0.84532 0.81651 0.0
H1845 H 0.11922 0.86785 0.83964 0.0
H1846 H 0.08937 0.83422 0.83266 0.0
H1847 H 0.20032 0.84557 0.87527 0.0
H1848 H 0.19062 0.83451 0.90863 0.0
H1849 H 0.19688 0.86818 0.89791 0.0
C1850 C 0.10903 0.30477 0.84169 0.0
C1851 C 0.10733 0.30035 0.81461 0.0
C1852 C 0.13392 0.3126 0.85552 0.0
C1853 C 0.15762 0.31539 0.84214 0.0
C1854 C 0.15613 0.31154 0.81467 0.0
C1855 C 0.13117 0.30437 0.80126 0.0
C1856 C 0.13459 0.31713 0.88462 0.0
C1857 C 0.18053 0.31375 0.79956 0.0
C1858 C 0.22975 0.35569 0.87385 0.0
C1859 C 0.23307 0.33447 0.88554 0.0
C1860 C 0.20539 0.34983 0.86006 0.0
C1861 C 0.18374 0.3219 0.85691 0.0
C1862 C 0.18711 0.30026 0.86794 0.0
C1863 C 0.21146 0.30676 0.88226 0.0
C1864 C 0.20274 0.37367 0.849 0.0
C1865 C 0.16486 0.27012 0.86469 0.0
H1866 H 0.09053 0.30112 0.85221 0.0
H1867 H 0.12979 0.30047 0.78042 0.0
H1868 H 0.13717 0.30094 0.89491 0.0
H1869 H 0.15269 0.33765 0.88989 0.0
H1870 H 0.11526 0.31626 0.89181 0.0
H1871 H 0.1764 0.311 0.77823 0.0
H1872 H 0.19936 0.33431 0.803 0.0
H1873 H 0.18531 0.29761 0.80649 0.0
H1874 H 0.24635 0.37715 0.87525 0.0
H1875 H 0.21329 0.29003 0.89119 0.0
H1876 H 0.18367 0.37293 0.85672 0.0
H1877 H 0.20057 0.37174 0.82746 0.0
H1878 H 0.22099 0.3943 0.85381 0.0
H1879 H 0.14531 0.26639 0.8742 0.0
H1880 H 0.17109 0.25562 0.87326 0.0
H1881 H 0.1602 0.26513 0.84366 0.0
C1882 C 0.7006 0.81664 0.81325 0.0
C1883 C 0.72106 0.81054 0.82157 0.0
C1884 C 0.69459 0.83468 0.8278 0.0
C1885 C 0.70967 0.84727 0.85107 0.0
C1886 C 0.72964 0.84024 0.85995 0.0
C1887 C 0.73493 0.8219 0.84523 0.0
C1888 C 0.67284 0.84112 0.81772 0.0
C1889 C 0.74644 0.85316 0.88439 0.0
C1890 C 0.71792 0.91762 0.87134 0.0
C1891 C 0.69872 0.91027 0.8919 0.0
C1892 C 0.72179 0.89745 0.85814 0.0
C1893 C 0.70581 0.86895 0.86527 0.0
C1894 C 0.68647 0.86139 0.88608 0.0
C1895 C 0.68332 0.88207 0.89921 0.0
C1896 C 0.743 0.90668 0.83644 0.0
C1897 C 0.66874 0.83134 0.89421 0.0
H1898 H 0.69003 0.8081 0.79488 0.0
H1899 H 0.75094 0.81739 0.85157 0.0
H1900 H 0.65782 0.83817 0.83343 0.0
H1901 H 0.68298 0.86326 0.81156 0.0
H1902 H 0.66117 0.8278 0.80082 0.0
H1903 H 0.75991 0.84429 0.88956 0.0
H1904 H 0.75987 0.87596 0.88154 0.0
H1905 H 0.73244 0.85006 0.90108 0.0
H1906 H 0.7301 0.9393 0.86561 0.0
H1907 H 0.66812 0.87602 0.91476 0.0
H1908 H 0.73257 0.89653 0.81786 0.0
H1909 H 0.7585 0.90011 0.84077 0.0
H1910 H 0.75421 0.92963 0.83359 0.0
H1911 H 0.65589 0.81879 0.87745 0.0
H1912 H 0.65468 0.82878 0.91074 0.0
H1913 H 0.68219 0.82269 0.90002 0.0
C1914 C 0.43953 0.47364 0.54082 0.0
C1915 C 0.44901 0.46168 0.55956 0.0
C1916 C 0.45805 0.49878 0.52793 0.0
C1917 C 0.48707 0.51228 0.53324 0.0
C1918 C 0.49679 0.50052 0.55216 0.0
C1919 C 0.47778 0.47588 0.56532 0.0
C1920 C 0.44652 0.51081 0.50838 0.0
C1921 C 0.52748 0.51376 0.55829 0.0
C1922 C 0.53565 0.56217 0.48051 0.0
C1923 C 0.54297 0.58841 0.4909 0.0
C1924 C 0.51839 0.53739 0.49444 0.0
C1925 C 0.50722 0.53863 0.51902 0.0
C1926 C 0.51492 0.56514 0.52974 0.0
C1927 C 0.5329 0.58958 0.51574 0.0
C1928 C 0.51147 0.50979 0.48245 0.0
C1929 C 0.50313 0.5677 0.55546 0.0
H1930 H 0.41764 0.46312 0.53572 0.0
H1931 H 0.4857 0.46778 0.5802 0.0
H1932 H 0.45345 0.53282 0.51335 0.0
H1933 H 0.45467 0.5107 0.48864 0.0
H1934 H 0.42338 0.49896 0.50762 0.0
H1935 H 0.53191 0.50166 0.57291 0.0
H1936 H 0.53926 0.51554 0.54019 0.0
H1937 H 0.53547 0.53516 0.5659 0.0
H1938 H 0.54261 0.56095 0.46104 0.0
H1939 H 0.53799 0.60974 0.52364 0.0
H1940 H 0.489 0.49791 0.47741 0.0
H1941 H 0.51552 0.49712 0.49668 0.0
H1942 H 0.52375 0.51238 0.46448 0.0
H1943 H 0.48013 0.55774 0.55391 0.0
H1944 H 0.51169 0.58975 0.5615 0.0
H1945 H 0.50764 0.55659 0.57102 0.0
C1946 C 0.54965 0.9822 0.54028 0.0
C1947 C 0.56278 0.00431 0.55822 0.0
C1948 C 0.52461 0.97617 0.52757 0.0
C1949 C 0.51239 0.99298 0.53225 0.0
C1950 C 0.52542 0.0153 0.55024 0.0
C1951 C 0.55002 0.02039 0.5632 0.0
C1952 C 0.51126 0.95181 0.50897 0.0
C1953 C 0.51351 0.03407 0.55562 0.0
C1954 C 0.46235 0.99082 0.47931 0.0
C1955 C 0.43618 0.97276 0.49025 0.0
C1956 C 0.48721 0.99851 0.49316 0.0
C1957 C 0.48605 0.98718 0.51831 0.0
C1958 C 0.4596 0.96942 0.52965 0.0
C1959 C 0.43509 0.96271 0.51564 0.0
C1960 C 0.51478 0.01803 0.48046 0.0
C1961 C 0.45713 0.95628 0.55605 0.0
H1962 H 0.55914 0.96973 0.53569 0.0
H1963 H 0.55915 0.03708 0.57739 0.0
H1964 H 0.48927 0.93756 0.51466 0.0
H1965 H 0.51104 0.95934 0.48895 0.0
H1966 H 0.52238 0.93978 0.50849 0.0
H1967 H 0.5265 0.05107 0.56951 0.0
H1968 H 0.51173 0.04349 0.53711 0.0
H1969 H 0.49221 0.02174 0.56381 0.0
H1970 H 0.46343 0.9981 0.45947 0.0
H1971 H 0.41494 0.94831 0.52398 0.0
H1972 H 0.52594 0.00661 0.47584 0.0
H1973 H 0.52815 0.03516 0.49406 0.0
H1974 H 0.51219 0.02722 0.46213 0.0
H1975 H 0.4661 0.94231 0.55513 0.0
H1976 H 0.43516 0.94394 0.56269 0.0
H1977 H 0.4692 0.97252 0.57085 0.0
C1978 C 0.06626 0.48472 0.51307 0.0
C1979 C 0.05322 0.47392 0.48896 0.0
C1980 C 0.06044 0.50271 0.52777 0.0
C1981 C 0.04072 0.50986 0.51842 0.0
C1982 C 0.02638 0.49773 0.49473 0.0
C1983 C 0.03295 0.48009 0.4802 0.0
C1984 C 0.07652 0.51522 0.55263 0.0
C1985 C 0.00487 0.50428 0.48417 0.0
C1986 C 0.01305 0.54419 0.56573 0.0
C1987 C 0.02854 0.57241 0.55854 0.0
C1988 C 0.01664 0.52364 0.55285 0.0
C1989 C 0.03652 0.53139 0.5325 0.0
C1990 C 0.05267 0.55995 0.52562 0.0
C1991 C 0.04833 0.57996 0.53851 0.0
C1992 C 0.99869 0.49351 0.56066 0.0
C1993 C 0.07449 0.5694 0.50447 0.0
H1994 H 0.0821 0.48014 0.51978 0.0
H1995 H 0.02299 0.47194 0.46151 0.0
H1996 H 0.09014 0.53804 0.55011 0.0
H1997 H 0.06205 0.51198 0.56894 0.0
H1998 H 0.08973 0.50617 0.55818 0.0
H1999 H 0.99361 0.49114 0.46704 0.0
H2000 H 0.98947 0.50115 0.49955 0.0
H2001 H 0.01516 0.52648 0.4782 0.0
H2002 H 0.99742 0.53803 0.58088 0.0
H2003 H 0.06053 0.60168 0.53288 0.0
H2004 H 0.01197 0.48474 0.56667 0.0
H2005 H 0.98614 0.48117 0.54367 0.0
H2006 H 0.98433 0.49083 0.57695 0.0
H2007 H 0.08975 0.56259 0.50914 0.0
H2008 H 0.08593 0.59239 0.50195 0.0
H2009 H 0.06456 0.55961 0.48562 0.0
C2010 C 0.48103 0.47654 0.9771 0.0
C2011 C 0.46959 0.44823 0.9834 0.0
C2012 C 0.50551 0.49726 0.98936 0.0
C2013 C 0.51941 0.48956 1.008 0.0
C2014 C 0.50832 0.46089 1.01386 0.0
C2015 C 0.48345 0.4407 1.0018 0.0
C2016 C 0.51609 0.52748 0.98289 0.0
C2017 C 0.52264 0.45152 0.03309 0.0
C2018 C 0.59613 0.53841 0.02525 0.0
C2019 C 0.59434 0.54735 0.05045 0.0
C2020 C 0.57201 0.52035 1.01089 0.0
C2021 C 0.54527 0.5113 1.02171 0.0
C2022 C 0.5434 0.52162 0.04655 0.0
C2023 C 0.56787 0.53912 0.06075 0.0
C2024 C 0.57522 0.50959 0.98482 0.0
C2025 C 0.51548 0.51312 0.05872 0.0
H2026 H 0.47024 0.48258 0.9632 0.0
H2027 H 0.4748 0.4189 1.00675 0.0
H2028 H 0.51612 0.53881 1.00078 0.0
H2029 H 0.53791 0.53741 0.97585 0.0
H2030 H 0.50319 0.5301 0.96777 0.0
H2031 H 0.51232 0.42846 0.03443 0.0
H2032 H 0.54471 0.45982 0.02733 0.0
H2033 H 0.52268 0.45991 0.05276 0.0
H2034 H 0.61651 0.54426 1.01743 0.0
H2035 H 0.56626 0.5453 0.08045 0.0
H2036 H 0.56252 0.51249 0.96974 0.0
H2037 H 0.56747 0.48689 0.98629 0.0
H2038 H 0.59726 0.52013 0.97821 0.0
H2039 H 0.50179 0.51567 0.0445 0.0
H2040 H 0.51748 0.52549 0.07649 0.0
H2041 H 0.50503 0.49078 0.0642 0.0
C2042 C 0.54863 0.99664 1.00722 0.0
C2043 C 0.5727 0.01779 0.99492 0.0
C2044 C 0.53003 1.00248 1.02088 0.0
C2045 C 0.5357 0.03031 0.02309 0.0
C2046 C 0.56015 0.05187 1.01125 0.0
C2047 C 0.57811 0.04537 0.99718 0.0
C2048 C 0.50415 0.97873 0.03286 0.0
C2049 C 0.56735 0.08191 1.01339 0.0
C2050 C 0.47752 0.04663 0.03789 0.0
C2051 C 0.48097 0.05241 0.06475 0.0
C2052 C 0.49451 0.03855 0.02432 0.0
C2053 C 0.51607 0.03687 0.03771 0.0
C2054 C 0.51924 0.04218 0.06497 0.0
C2055 C 0.50156 0.04964 0.07814 0.0
C2056 C 0.48988 0.0326 0.99545 0.0
C2057 C 0.54211 0.04115 0.08006 0.0
H2058 H 0.54428 0.97531 1.00647 0.0
H2059 H 0.59624 0.06203 0.98767 0.0
H2060 H 0.50439 0.98155 0.05432 0.0
H2061 H 0.48536 0.97863 0.02519 0.0
H2062 H 0.50221 0.95814 0.02879 0.0
H2063 H 0.58766 0.0964 1.00411 0.0
H2064 H 0.55089 0.0847 1.00394 0.0
H2065 H 0.56822 0.08778 0.03423 0.0
H2066 H 0.46209 0.04933 0.0273 0.0
H2067 H 0.50463 0.05458 0.09879 0.0
H2068 H 0.48776 0.01202 0.99101 0.0
H2069 H 0.50818 0.04851 0.98444 0.0
H2070 H 0.47099 0.0327 0.98831 0.0
H2071 H 0.54071 0.02062 0.07741 0.0
H2072 H 0.54125 0.04483 0.10127 0.0
H2073 H 0.5627 0.0572 0.07243 0.0
C2074 C 0.97227 0.54187 0.99702 0.0
C2075 C 0.99969 0.56404 0.99365 0.0
C2076 C 0.96655 0.51779 1.01144 0.0
C2077 C 0.98871 0.51532 1.02257 0.0
C2078 C 0.01633 0.53759 1.01939 0.0
C2079 C 0.02141 0.56162 1.00542 0.0
C2080 C 0.9367 0.49485 1.01465 0.0
C2081 C 0.0407 0.53597 0.0306 0.0
C2082 C 0.97288 0.46323 0.07837 0.0
C2083 C 0.97005 0.43977 0.06514 0.0
C2084 C 0.97908 0.4879 0.06488 0.0
C2085 C 0.98305 0.48948 0.03742 0.0
C2086 C 0.98131 0.46616 0.02414 0.0
C2087 C 0.97451 0.44157 0.03806 0.0
C2088 C 0.98027 0.51189 0.07991 0.0
C2089 C 0.98592 0.46692 0.99506 0.0
H2090 H 0.95518 0.54303 0.98804 0.0
H2091 H 0.04265 0.57866 1.00391 0.0
H2092 H 0.93368 0.4755 1.00525 0.0
H2093 H 0.93174 0.49019 0.03568 0.0
H2094 H 0.92171 0.50036 1.00594 0.0
H2095 H 0.06102 0.55469 0.02591 0.0
H2096 H 0.0387 0.53371 0.05213 0.0
H2097 H 0.04078 0.5173 0.02287 0.0
H2098 H 0.96895 0.46178 0.09921 0.0
H2099 H 0.97176 0.42335 0.02761 0.0
H2100 H 0.96371 0.51596 0.0728 0.0
H2101 H 1.00052 0.53113 0.07659 0.0
H2102 H 0.97746 0.50774 0.10123 0.0
H2103 H 0.96942 0.46894 0.9847 0.0
H2104 H 0.98568 0.44788 0.98789 0.0
H2105 H 0.0062 0.48537 0.98983 0.0
loop_
_geom_bond_atom_site_label_1
_geom_bond_atom_site_label_2
_geom_bond_distance
_geom_bond_site_symmetry_2
_ccdc_geom_bond_type
C0 C1 1.448 1_655 S
C0 N4 1.376 1_655 S
C0 C38 1.389 . S
C1 C0 1.448 1_455 S
C1 C2 1.338 . S
C1 H41 0.950 1_455 S
C2 C1 1.338 . S
C2 C3 1.439 . S
C2 H42 0.950 . S
C3 C2 1.439 . S
C3 N4 1.374 . S
C3 C37 1.395 . S
N4 C0 1.376 1_455 S
N4 C3 1.374 . S
N4 Co5 2.008 . S
Co5 N4 2.008 . S
Co5 N6 1.995 . S
Co5 N11 2.008 . S
Co5 N16 1.995 1_455 S
Co5 N21 2.282 1_455 S
Co5 N27 2.282 . S
N6 Co5 1.995 . S
N6 C7 1.376 . S
N6 C10 1.383 . S
C7 N6 1.376 . S
C7 C8 1.446 . S
C7 C37 1.391 . S
C8 C7 1.446 . S
C8 C9 1.339 . S
C8 H43 0.949 . S
C9 C8 1.339 . S
C9 C10 1.439 . S
C9 H44 0.950 . S
C10 N6 1.383 . S
C10 C9 1.439 . S
C10 C39 1.392 . S
N11 Co5 2.008 . S
N11 C12 1.376 . S
N11 C15 1.374 . S
C12 N11 1.376 . S
C12 C13 1.443 . S
C12 C39 1.389 . S
C13 C12 1.443 . S
C13 C14 1.340 . S
C13 H45 0.951 . S
C14 C13 1.340 . S
C14 C15 1.439 . S
C14 H46 0.950 . S
C15 N11 1.374 . S
C15 C14 1.439 . S
C15 C40 1.395 . S
N16 Co5 1.995 1_655 S
N16 C17 1.376 . S
N16 C20 1.383 . S
C17 N16 1.376 . S
C17 C18 1.446 . S
C17 C40 1.381 1_655 S
C18 C17 1.446 . S
C18 C19 1.339 . S
C18 H47 0.949 . S
C19 C18 1.339 . S
C19 C20 1.439 . S
C19 H48 0.950 . S
C20 N16 1.383 . S
C20 C19 1.439 . S
C20 C38 1.392 . S
N21 Co5 2.282 1_655 S
N21 C24 1.332 . S
N21 C26 1.332 . S
C22 C23 1.386 . S
C22 C25 1.388 . S
C23 C22 1.386 . S
C23 C24 1.382 . S
C23 H49 0.950 . S
C24 N21 1.332 . S
C24 C23 1.382 . S
C24 H35 0.952 . S
C25 C22 1.388 . S
C25 C26 1.382 . S
C25 H50 0.950 . S
C26 N21 1.332 . S
C26 C25 1.382 . S
C26 H36 0.948 . S
N27 Co5 2.282 . S
N27 C31 1.332 . S
N27 C32 1.332 . S
C28 C29 1.388 . S
C28 C32 1.382 . S
C28 H51 0.950 . S
C29 C28 1.388 . S
C29 C30 1.386 . S
C30 C29 1.386 . S
C30 C31 1.382 . S
C30 H52 0.950 . S
C31 N27 1.332 . S
C31 C30 1.382 . S
C31 H33 0.952 . S
C32 N27 1.332 . S
C32 C28 1.382 . S
C32 H34 0.948 . S
H33 C31 0.952 . S
H34 C32 0.948 . S
H35 C24 0.952 . S
H36 C26 0.948 . S
C37 C3 1.395 . S
C37 C7 1.391 . S
C38 C0 1.389 . S
C38 C20 1.392 . S
C39 C10 1.392 . S
C39 C12 1.389 . S
C40 C15 1.395 . S
C40 C17 1.381 1_455 S
H41 C1 0.950 1_655 S
H42 C2 0.950 . S
H43 C8 0.949 . S
H44 C9 0.950 . S
H45 C13 0.951 . S
H46 C14 0.950 . S
H47 C18 0.949 . S
H48 C19 0.950 . S
H49 C23 0.950 . S
H50 C25 0.950 . S
H51 C28 0.950 . S
H52 C30 0.950 . S
C53 C54 1.443 . S
C53 N57 1.376 . S
C53 C91 1.389 . S
C54 C53 1.443 . S
C54 C55 1.340 . S
C54 H94 0.951 . S
C55 C54 1.340 . S
C55 C56 1.439 . S
C55 H95 0.950 . S
C56 C55 1.439 . S
C56 N57 1.374 . S
C56 C90 1.395 . S
N57 C53 1.376 . S
N57 C56 1.374 . S
N57 Co58 2.008 . S
Co58 N57 2.008 . S
Co58 N59 1.995 . S
Co58 N64 2.008 . S
Co58 N69 1.995 . S
Co58 N74 2.282 . S
Co58 N80 2.282 . S
N59 Co58 1.995 . S
N59 C60 1.376 . S
N59 C63 1.383 . S
C60 N59 1.376 . S
C60 C61 1.446 . S
C60 C90 1.391 . S
C61 C60 1.446 . S
C61 C62 1.339 . S
C61 H96 0.949 . S
C62 C61 1.339 . S
C62 C63 1.439 . S
C62 H97 0.950 . S
C63 N59 1.383 . S
C63 C62 1.439 . S
C63 C92 1.392 . S
N64 Co58 2.008 . S
N64 C65 1.376 . S
N64 C68 1.374 . S
C65 N64 1.376 . S
C65 C66 1.443 . S
C65 C92 1.389 . S
C66 C65 1.443 . S
C66 C67 1.340 . S
C66 H98 0.951 . S
C67 C66 1.340 . S
C67 C68 1.439 . S
C67 H99 0.950 . S
C68 N64 1.374 . S
C68 C67 1.439 . S
C68 C93 1.395 . S
N69 Co58 1.995 . S
N69 C70 1.376 . S
N69 C73 1.383 . S
C70 N69 1.376 . S
C70 C71 1.446 . S
C70 C93 1.391 . S
C71 C70 1.446 . S
C71 C72 1.339 . S
C71 H100 0.949 . S
C72 C71 1.339 . S
C72 C73 1.439 . S
C72 H101 0.950 . S
C73 N69 1.383 . S
C73 C72 1.439 . S
C73 C91 1.392 . S
N74 Co58 2.282 . S
N74 C77 1.332 . S
N74 C79 1.332 . S
C75 C76 1.386 . S
C75 C78 1.388 . S
C76 C75 1.386 . S
C76 C77 1.382 . S
C76 H102 0.950 . S
C77 N74 1.332 . S
C77 C76 1.382 . S
C77 H88 0.952 . S
C78 C75 1.388 . S
C78 C79 1.382 . S
C78 H103 0.950 . S
C79 N74 1.332 . S
C79 C78 1.382 . S
C79 H89 0.948 . S
N80 Co58 2.282 . S
N80 C84 1.332 . S
N80 C85 1.332 . S
C81 C82 1.388 . S
C81 C85 1.382 . S
C81 H104 0.950 . S
C82 C81 1.388 . S
C82 C83 1.386 . S
C83 C82 1.386 . S
C83 C84 1.382 . S
C83 H105 0.950 . S
C84 N80 1.332 . S
C84 C83 1.382 . S
C84 H86 0.952 . S
C85 N80 1.332 . S
C85 C81 1.382 . S
C85 H87 0.948 . S
H86 C84 0.952 . S
H87 C85 0.948 . S
H88 C77 0.952 . S
H89 C79 0.948 . S
C90 C56 1.395 . S
C90 C60 1.391 . S
C91 C53 1.389 . S
C91 C73 1.392 . S
C92 C63 1.392 . S
C92 C65 1.389 . S
C93 C68 1.395 . S
C93 C70 1.391 . S
H94 C54 0.951 . S
H95 C55 0.950 . S
H96 C61 0.949 . S
H97 C62 0.950 . S
H98 C66 0.951 . S
H99 C67 0.950 . S
H100 C71 0.949 . S
H101 C72 0.950 . S
H102 C76 0.950 . S
H103 C78 0.950 . S
H104 C81 0.950 . S
H105 C83 0.950 . S
C106 C107 1.448 1_565 S
C106 N110 1.376 1_565 S
C106 C144 1.389 . S
C107 C106 1.448 1_545 S
C107 C108 1.338 . S
C107 H147 0.950 1_545 S
C108 C107 1.338 . S
C108 C109 1.439 . S
C108 H148 0.950 . S
C109 C108 1.439 . S
C109 N110 1.374 . S
C109 C143 1.395 . S
N110 C106 1.376 1_545 S
N110 C109 1.374 . S
N110 Co111 2.008 . S
Co111 N110 2.008 . S
Co111 N112 1.995 . S
Co111 N117 2.008 . S
Co111 N122 1.995 1_545 S
Co111 N127 2.282 1_545 S
Co111 N133 2.282 . S
N112 Co111 1.995 . S
N112 C113 1.376 . S
N112 C116 1.383 . S
C113 N112 1.376 . S
C113 C114 1.446 . S
C113 C143 1.391 . S
C114 C113 1.446 . S
C114 C115 1.339 . S
C114 H149 0.949 . S
C115 C114 1.339 . S
C115 C116 1.439 . S
C115 H150 0.950 . S
C116 N112 1.383 . S
C116 C115 1.439 . S
C116 C145 1.392 . S
N117 Co111 2.008 . S
N117 C118 1.376 . S
N117 C121 1.374 . S
C118 N117 1.376 . S
C118 C119 1.443 . S
C118 C145 1.389 . S
C119 C118 1.443 . S
C119 C120 1.340 . S
C119 H151 0.951 . S
C120 C119 1.340 . S
C120 C121 1.439 . S
C120 H152 0.950 . S
C121 N117 1.374 . S
C121 C120 1.439 . S
C121 C146 1.395 . S
N122 Co111 1.995 1_565 S
N122 C123 1.376 . S
N122 C126 1.383 . S
C123 N122 1.376 . S
C123 C124 1.446 . S
C123 C146 1.381 1_565 S
C124 C123 1.446 . S
C124 C125 1.339 . S
C124 H153 0.949 . S
C125 C124 1.339 . S
C125 C126 1.439 . S
C125 H154 0.950 . S
C126 N122 1.383 . S
C126 C125 1.439 . S
C126 C144 1.392 . S
N127 Co111 2.282 1_565 S
N127 C130 1.332 . S
N127 C132 1.332 . S
C128 C129 1.386 . S
C128 C131 1.388 . S
C129 C128 1.386 . S
C129 C130 1.382 . S
C129 H155 0.950 . S
C130 N127 1.332 . S
C130 C129 1.382 . S
C130 H141 0.952 . S
C131 C128 1.388 . S
C131 C132 1.382 . S
C131 H156 0.950 . S
C132 N127 1.332 . S
C132 C131 1.382 . S
C132 H142 0.948 . S
N133 Co111 2.282 . S
N133 C137 1.332 . S
N133 C138 1.332 . S
C134 C135 1.388 . S
C134 C138 1.382 . S
C134 H157 0.950 . S
C135 C134 1.388 . S
C135 C136 1.386 . S
C136 C135 1.386 . S
C136 C137 1.382 . S
C136 H158 0.950 . S
C137 N133 1.332 . S
C137 C136 1.382 . S
C137 H139 0.952 . S
C138 N133 1.332 . S
C138 C134 1.382 . S
C138 H140 0.948 . S
H139 C137 0.952 . S
H140 C138 0.948 . S
H141 C130 0.952 . S
H142 C132 0.948 . S
C143 C109 1.395 . S
C143 C113 1.391 . S
C144 C106 1.389 . S
C144 C126 1.392 . S
C145 C116 1.392 . S
C145 C118 1.389 . S
C146 C121 1.395 . S
C146 C123 1.381 1_545 S
H147 C107 0.950 1_565 S
H148 C108 0.950 . S
H149 C114 0.949 . S
H150 C115 0.950 . S
H151 C119 0.951 . S
H152 C120 0.950 . S
H153 C124 0.949 . S
H154 C125 0.950 . S
H155 C129 0.950 . S
H156 C131 0.950 . S
H157 C134 0.950 . S
H158 C136 0.950 . S
C159 C160 1.443 . S
C159 N163 1.376 . S
C159 C197 1.389 . S
C160 C159 1.443 . S
C160 C161 1.340 . S
C160 H200 0.951 . S
C161 C160 1.340 . S
C161 C162 1.439 . S
C161 H201 0.950 . S
C162 C161 1.439 . S
C162 N163 1.374 . S
C162 C196 1.395 1_655 S
N163 C159 1.376 . S
N163 C162 1.374 . S
N163 Co164 2.008 1_655 S
Co164 N163 2.008 1_455 S
Co164 N165 1.995 . S
Co164 N170 2.008 . S
Co164 N175 1.995 1_455 S
Co164 N180 2.282 1_455 S
Co164 N186 2.282 . S
N165 Co164 1.995 . S
N165 C166 1.376 . S
N165 C169 1.383 . S
C166 N165 1.376 . S
C166 C167 1.446 . S
C166 C196 1.391 . S
C167 C166 1.446 . S
C167 C168 1.339 . S
C167 H202 0.949 . S
C168 C167 1.339 . S
C168 C169 1.439 . S
C168 H203 0.950 . S
C169 N165 1.383 . S
C169 C168 1.439 . S
C169 C198 1.392 . S
N170 Co164 2.008 . S
N170 C171 1.376 . S
N170 C174 1.374 . S
C171 N170 1.376 . S
C171 C172 1.443 . S
C171 C198 1.389 . S
C172 C171 1.443 . S
C172 C173 1.340 . S
C172 H204 0.951 . S
C173 C172 1.340 . S
C173 C174 1.439 . S
C173 H205 0.950 . S
C174 N170 1.374 . S
C174 C173 1.439 . S
C174 C199 1.395 . S
N175 Co164 1.995 1_655 S
N175 C176 1.376 . S
N175 C179 1.383 . S
C176 N175 1.376 . S
C176 C177 1.446 . S
C176 C199 1.391 1_655 S
C177 C176 1.446 . S
C177 C178 1.339 . S
C177 H206 0.949 . S
C178 C177 1.339 . S
C178 C179 1.439 . S
C178 H207 0.950 . S
C179 N175 1.383 . S
C179 C178 1.439 . S
C179 C197 1.392 . S
N180 Co164 2.282 1_655 S
N180 C183 1.332 . S
N180 C185 1.332 . S
C181 C182 1.386 . S
C181 C184 1.388 . S
C182 C181 1.386 . S
C182 C183 1.382 . S
C182 H208 0.950 . S
C183 N180 1.332 . S
C183 C182 1.382 . S
C183 H194 0.952 . S
C184 C181 1.388 . S
C184 C185 1.382 . S
C184 H209 0.950 . S
C185 N180 1.332 . S
C185 C184 1.382 . S
C185 H195 0.948 1_655 S
N186 Co164 2.282 . S
N186 C190 1.332 . S
N186 C191 1.332 . S
C187 C188 1.388 . S
C187 C191 1.382 . S
C187 H210 0.950 . S
C188 C187 1.388 . S
C188 C189 1.386 . S
C189 C188 1.386 . S
C189 C190 1.382 . S
C189 H211 0.950 . S
C190 N186 1.332 . S
C190 C189 1.382 . S
C190 H192 0.952 . S
C191 N186 1.332 . S
C191 C187 1.382 . S
C191 H193 0.948 . S
H192 C190 0.952 . S
H193 C191 0.948 . S
H194 C183 0.952 . S
H195 C185 0.948 1_455 S
C196 C162 1.395 1_455 S
C196 C166 1.391 . S
C197 C159 1.389 . S
C197 C179 1.392 . S
C198 C169 1.392 . S
C198 C171 1.389 . S
C199 C174 1.395 . S
C199 C176 1.391 1_455 S
H200 C160 0.951 . S
H201 C161 0.950 . S
H202 C167 0.949 . S
H203 C168 0.950 . S
H204 C172 0.951 . S
H205 C173 0.950 . S
H206 C177 0.949 . S
H207 C178 0.950 . S
H208 C182 0.950 . S
H209 C184 0.950 . S
H210 C187 0.950 . S
H211 C189 0.950 . S
C212 C213 1.443 . S
C212 N216 1.376 . S
C212 C250 1.389 . S
C213 C212 1.443 . S
C213 C214 1.340 . S
C213 H253 0.951 . S
C214 C213 1.340 . S
C214 C215 1.439 . S
C214 H254 0.950 . S
C215 C214 1.439 . S
C215 N216 1.374 . S
C215 C249 1.395 . S
N216 C212 1.376 . S
N216 C215 1.374 . S
N216 Co217 2.008 . S
Co217 N216 2.008 . S
Co217 N218 1.995 . S
Co217 N223 2.008 . S
Co217 N228 1.995 . S
Co217 N233 2.282 . S
Co217 N239 2.282 . S
N218 Co217 1.995 . S
N218 C219 1.376 . S
N218 C222 1.383 . S
C219 N218 1.376 . S
C219 C220 1.446 . S
C219 C249 1.391 . S
C220 C219 1.446 . S
C220 C221 1.339 . S
C220 H255 0.949 . S
C221 C220 1.339 . S
C221 C222 1.439 . S
C221 H256 0.950 . S
C222 N218 1.383 . S
C222 C221 1.439 . S
C222 C251 1.392 . S
N223 Co217 2.008 . S
N223 C224 1.376 . S
N223 C227 1.374 . S
C224 N223 1.376 . S
C224 C225 1.443 . S
C224 C251 1.389 . S
C225 C224 1.443 . S
C225 C226 1.340 . S
C225 H257 0.951 . S
C226 C225 1.340 . S
C226 C227 1.439 . S
C226 H258 0.950 . S
C227 N223 1.374 . S
C227 C226 1.439 . S
C227 C252 1.395 . S
N228 Co217 1.995 . S
N228 C229 1.376 . S
N228 C232 1.383 . S
C229 N228 1.376 . S
C229 C230 1.446 . S
C229 C252 1.391 . S
C230 C229 1.446 . S
C230 C231 1.339 . S
C230 H259 0.949 . S
C231 C230 1.339 . S
C231 C232 1.439 . S
C231 H260 0.950 . S
C232 N228 1.383 . S
C232 C231 1.439 . S
C232 C250 1.392 . S
N233 Co217 2.282 . S
N233 C236 1.332 . S
N233 C238 1.332 . S
C234 C235 1.386 . S
C234 C237 1.388 . S
C235 C234 1.386 . S
C235 C236 1.382 . S
C235 H261 0.950 . S
C236 N233 1.332 . S
C236 C235 1.382 . S
C236 H247 0.952 . S
C237 C234 1.388 . S
C237 C238 1.382 . S
C237 H262 0.950 . S
C238 N233 1.332 . S
C238 C237 1.382 . S
C238 H248 0.948 . S
N239 Co217 2.282 . S
N239 C243 1.332 . S
N239 C244 1.332 . S
C240 C241 1.388 . S
C240 C244 1.382 . S
C240 H263 0.950 . S
C241 C240 1.388 . S
C241 C242 1.386 . S
C242 C241 1.386 . S
C242 C243 1.382 . S
C242 H264 0.950 . S
C243 N239 1.332 . S
C243 C242 1.382 . S
C243 H245 0.952 . S
C244 N239 1.332 . S
C244 C240 1.382 . S
C244 H246 0.948 . S
H245 C243 0.952 . S
H246 C244 0.948 . S
H247 C236 0.952 . S
H248 C238 0.948 . S
C249 C215 1.395 . S
C249 C219 1.391 . S
C250 C212 1.389 . S
C250 C232 1.392 . S
C251 C222 1.392 . S
C251 C224 1.389 . S
C252 C227 1.395 . S
C252 C229 1.391 . S
H253 C213 0.951 . S
H254 C214 0.950 . S
H255 C220 0.949 . S
H256 C221 0.950 . S
H257 C225 0.951 . S
H258 C226 0.950 . S
H259 C230 0.949 . S
H260 C231 0.950 . S
H261 C235 0.950 . S
H262 C237 0.950 . S
H263 C240 0.950 . S
H264 C242 0.950 . S
C265 C266 1.443 . S
C265 N269 1.376 . S
C265 C303 1.389 . S
C266 C265 1.443 . S
C266 C267 1.340 . S
C266 H306 0.951 . S
C267 C266 1.340 . S
C267 C268 1.439 . S
C267 H307 0.950 . S
C268 C267 1.439 . S
C268 N269 1.374 . S
C268 C302 1.395 1_565 S
N269 C265 1.376 . S
N269 C268 1.374 . S
N269 Co270 2.008 1_565 S
Co270 N269 2.008 1_545 S
Co270 N271 1.995 . S
Co270 N276 2.008 . S
Co270 N281 1.995 1_545 S
Co270 N286 2.282 1_545 S
Co270 N292 2.282 . S
N271 Co270 1.995 . S
N271 C272 1.376 . S
N271 C275 1.383 . S
C272 N271 1.376 . S
C272 C273 1.446 . S
C272 C302 1.391 . S
C273 C272 1.446 . S
C273 C274 1.339 . S
C273 H308 0.949 . S
C274 C273 1.339 . S
C274 C275 1.439 . S
C274 H309 0.950 . S
C275 N271 1.383 . S
C275 C274 1.439 . S
C275 C304 1.392 . S
N276 Co270 2.008 . S
N276 C277 1.376 . S
N276 C280 1.374 . S
C277 N276 1.376 . S
C277 C278 1.443 . S
C277 C304 1.389 . S
C278 C277 1.443 . S
C278 C279 1.340 . S
C278 H310 0.951 . S
C279 C278 1.340 . S
C279 C280 1.439 . S
C279 H311 0.950 . S
C280 N276 1.374 . S
C280 C279 1.439 . S
C280 C305 1.395 . S
N281 Co270 1.995 1_565 S
N281 C282 1.376 . S
N281 C285 1.383 . S
C282 N281 1.376 . S
C282 C283 1.446 . S
C282 C305 1.391 1_565 S
C283 C282 1.446 . S
C283 C284 1.339 . S
C283 H312 0.949 . S
C284 C283 1.339 . S
C284 C285 1.439 . S
C284 H313 0.950 . S
C285 N281 1.383 . S
C285 C284 1.439 . S
C285 C303 1.392 . S
N286 Co270 2.282 1_565 S
N286 C289 1.332 . S
N286 C291 1.332 . S
C287 C288 1.386 . S
C287 C290 1.388 . S
C288 C287 1.386 . S
C288 C289 1.382 . S
C288 H314 0.950 . S
C289 N286 1.332 . S
C289 C288 1.382 . S
C289 H300 0.952 . S
C290 C287 1.388 . S
C290 C291 1.382 . S
C290 H315 0.950 . S
C291 N286 1.332 . S
C291 C290 1.382 . S
C291 H301 0.948 1_565 S
N292 Co270 2.282 . S
N292 C296 1.332 . S
N292 C297 1.332 . S
C293 C294 1.388 . S
C293 C297 1.382 . S
C293 H316 0.950 . S
C294 C293 1.388 . S
C294 C295 1.386 . S
C295 C294 1.386 . S
C295 C296 1.382 . S
C295 H317 0.950 . S
C296 N292 1.332 . S
C296 C295 1.382 . S
C296 H298 0.952 . S
C297 N292 1.332 . S
C297 C293 1.382 . S
C297 H299 0.948 . S
H298 C296 0.952 . S
H299 C297 0.948 . S
H300 C289 0.952 . S
H301 C291 0.948 1_545 S
C302 C268 1.395 1_545 S
C302 C272 1.391 . S
C303 C265 1.389 . S
C303 C285 1.392 . S
C304 C275 1.392 . S
C304 C277 1.389 . S
C305 C280 1.395 . S
C305 C282 1.391 1_545 S
H306 C266 0.951 . S
H307 C267 0.950 . S
H308 C273 0.949 . S
H309 C274 0.950 . S
H310 C278 0.951 . S
H311 C279 0.950 . S
H312 C283 0.949 . S
H313 C284 0.950 . S
H314 C288 0.950 . S
H315 C290 0.950 . S
H316 C293 0.950 . S
H317 C295 0.950 . S
C318 C319 1.443 . S
C318 N322 1.376 . S
C318 C356 1.389 . S
C319 C318 1.443 . S
C319 C320 1.340 . S
C319 H359 0.951 . S
C320 C319 1.340 . S
C320 C321 1.439 . S
C320 H360 0.950 . S
C321 C320 1.439 . S
C321 N322 1.374 . S
C321 C355 1.395 . S
N322 C318 1.376 . S
N322 C321 1.374 . S
N322 Co323 2.008 . S
Co323 N322 2.008 . S
Co323 N324 1.995 . S
Co323 N329 2.008 . S
Co323 N334 1.995 . S
Co323 N339 2.282 . S
Co323 N345 2.282 . S
N324 Co323 1.995 . S
N324 C325 1.376 . S
N324 C328 1.383 . S
C325 N324 1.376 . S
C325 C326 1.446 . S
C325 C355 1.391 . S
C326 C325 1.446 . S
C326 C327 1.339 . S
C326 H361 0.949 . S
C327 C326 1.339 . S
C327 C328 1.439 . S
C327 H362 0.950 . S
C328 N324 1.383 . S
C328 C327 1.439 . S
C328 C357 1.392 . S
N329 Co323 2.008 . S
N329 C330 1.376 . S
N329 C333 1.374 . S
C330 N329 1.376 . S
C330 C331 1.443 . S
C330 C357 1.389 . S
C331 C330 1.443 . S
C331 C332 1.340 1_545 S
C331 H363 0.951 . S
C332 C331 1.340 1_565 S
C332 C333 1.439 1_565 S
C332 H364 0.950 . S
C333 N329 1.374 . S
C333 C332 1.439 1_545 S
C333 C358 1.395 1_545 S
N334 Co323 1.995 . S
N334 C335 1.376 . S
N334 C338 1.383 . S
C335 N334 1.376 . S
C335 C336 1.446 1_545 S
C335 C358 1.391 1_545 S
C336 C335 1.446 1_565 S
C336 C337 1.339 1_565 S
C336 H365 0.949 . S
C337 C336 1.339 1_545 S
C337 C338 1.439 . S
C337 H366 0.950 . S
C338 N334 1.383 . S
C338 C337 1.439 . S
C338 C356 1.392 . S
N339 Co323 2.282 . S
N339 C342 1.332 . S
N339 C344 1.332 . S
C340 C341 1.386 1_545 S
C340 C343 1.388 . S
C341 C340 1.386 1_565 S
C341 C342 1.382 1_565 S
C341 H367 0.950 . S
C342 N339 1.332 . S
C342 C341 1.382 1_545 S
C342 H353 0.952 . S
C343 C340 1.388 . S
C343 C344 1.382 . S
C343 H368 0.950 . S
C344 N339 1.332 . S
C344 C343 1.382 . S
C344 H354 0.948 . S
N345 Co323 2.282 . S
N345 C349 1.332 . S
N345 C350 1.332 . S
C346 C347 1.388 . S
C346 C350 1.382 . S
C346 H369 0.950 . S
C347 C346 1.388 . S
C347 C348 1.386 . S
C348 C347 1.386 . S
C348 C349 1.382 . S
C348 H370 0.950 . S
C349 N345 1.332 . S
C349 C348 1.382 . S
C349 H351 0.952 . S
C350 N345 1.332 . S
C350 C346 1.382 . S
C350 H352 0.948 . S
H351 C349 0.952 . S
H352 C350 0.948 . S
H353 C342 0.952 . S
H354 C344 0.948 . S
C355 C321 1.395 . S
C355 C325 1.391 . S
C356 C318 1.389 . S
C356 C338 1.392 . S
C357 C328 1.392 . S
C357 C330 1.389 . S
C358 C333 1.395 1_565 S
C358 C335 1.391 1_565 S
H359 C319 0.951 . S
H360 C320 0.950 . S
H361 C326 0.949 . S
H362 C327 0.950 . S
H363 C331 0.951 . S
H364 C332 0.950 . S
H365 C336 0.949 . S
H366 C337 0.950 . S
H367 C341 0.950 . S
H368 C343 0.950 . S
H369 C346 0.950 . S
H370 C348 0.950 . S
C371 C372 1.443 . S
C371 N375 1.376 . S
C371 C409 1.389 . S
C372 C371 1.443 . S
C372 C373 1.340 . S
C372 H412 0.951 . S
C373 C372 1.340 . S
C373 C374 1.439 . S
C373 H413 0.950 . S
C374 C373 1.439 . S
C374 N375 1.374 . S
C374 C408 1.395 . S
N375 C371 1.376 . S
N375 C374 1.374 . S
N375 Co376 2.008 . S
Co376 N375 2.008 . S
Co376 N377 1.995 . S
Co376 N382 2.008 . S
Co376 N387 1.995 . S
Co376 N392 2.282 . S
Co376 N398 2.282 . S
N377 Co376 1.995 . S
N377 C378 1.376 . S
N377 C381 1.383 . S
C378 N377 1.376 . S
C378 C379 1.446 . S
C378 C408 1.391 . S
C379 C378 1.446 . S
C379 C380 1.339 . S
C379 H414 0.949 . S
C380 C379 1.339 . S
C380 C381 1.439 . S
C380 H415 0.950 . S
C381 N377 1.383 . S
C381 C380 1.439 . S
C381 C410 1.392 . S
N382 Co376 2.008 . S
N382 C383 1.376 . S
N382 C386 1.374 1_655 S
C383 N382 1.376 . S
C383 C384 1.443 1_655 S
C383 C410 1.389 . S
C384 C383 1.443 1_455 S
C384 C385 1.340 . S
C384 H416 0.951 . S
C385 C384 1.340 . S
C385 C386 1.439 . S
C385 H417 0.950 . S
C386 N382 1.374 1_455 S
C386 C385 1.439 . S
C386 C411 1.395 . S
N387 Co376 1.995 . S
N387 C388 1.376 . S
N387 C391 1.383 . S
C388 N387 1.376 . S
C388 C389 1.446 1_655 S
C388 C411 1.391 1_655 S
C389 C388 1.446 1_455 S
C389 C390 1.339 1_455 S
C389 H418 0.949 . S
C390 C389 1.339 1_655 S
C390 C391 1.439 . S
C390 H419 0.950 . S
C391 N387 1.383 . S
C391 C390 1.439 . S
C391 C409 1.392 . S
N392 Co376 2.282 . S
N392 C395 1.332 . S
N392 C397 1.332 . S
C393 C394 1.386 . S
C393 C396 1.388 . S
C394 C393 1.386 . S
C394 C395 1.382 . S
C394 H420 0.950 . S
C395 N392 1.332 . S
C395 C394 1.382 . S
C395 H406 0.952 . S
C396 C393 1.388 . S
C396 C397 1.382 . S
C396 H421 0.950 . S
C397 N392 1.332 . S
C397 C396 1.382 . S
C397 H407 0.948 . S
N398 Co376 2.282 . S
N398 C402 1.332 . S
N398 C403 1.332 1_655 S
C399 C400 1.388 . S
C399 C403 1.382 . S
C399 H422 0.950 . S
C400 C399 1.388 . S
C400 C401 1.386 1_455 S
C401 C400 1.386 1_655 S
C401 C402 1.382 . S
C401 H423 0.950 . S
C402 N398 1.332 . S
C402 C401 1.382 . S
C402 H404 0.952 . S
C403 N398 1.332 1_455 S
C403 C399 1.382 . S
C403 H405 0.948 . S
H404 C402 0.952 . S
H405 C403 0.948 . S
H406 C395 0.952 . S
H407 C397 0.948 . S
C408 C374 1.395 . S
C408 C378 1.391 . S
C409 C371 1.389 . S
C409 C391 1.392 . S
C410 C381 1.392 . S
C410 C383 1.389 . S
C411 C386 1.395 . S
C411 C388 1.391 1_455 S
H412 C372 0.951 . S
H413 C373 0.950 . S
H414 C379 0.949 . S
H415 C380 0.950 . S
H416 C384 0.951 . S
H417 C385 0.950 . S
H418 C389 0.949 . S
H419 C390 0.950 . S
H420 C394 0.950 . S
H421 C396 0.950 . S
H422 C399 0.950 . S
H423 C401 0.950 . S
C424 C425 1.443 . S
C424 N428 1.376 . S
C424 C462 1.389 . S
C425 C424 1.443 . S
C425 C426 1.340 . S
C425 H465 0.951 . S
C426 C425 1.340 . S
C426 C427 1.439 . S
C426 H466 0.950 . S
C427 C426 1.439 . S
C427 N428 1.374 . S
C427 C461 1.395 . S
N428 C424 1.376 . S
N428 C427 1.374 . S
N428 Co429 2.008 . S
Co429 N428 2.008 . S
Co429 N430 1.995 . S
Co429 N435 2.008 . S
Co429 N440 1.995 . S
Co429 N445 2.282 . S
Co429 N451 2.282 . S
N430 Co429 1.995 . S
N430 C431 1.376 . S
N430 C434 1.383 . S
C431 N430 1.376 . S
C431 C432 1.446 . S
C431 C461 1.391 . S
C432 C431 1.446 . S
C432 C433 1.339 . S
C432 H467 0.949 . S
C433 C432 1.339 . S
C433 C434 1.439 . S
C433 H468 0.950 . S
C434 N430 1.383 . S
C434 C433 1.439 . S
C434 C463 1.392 . S
N435 Co429 2.008 . S
N435 C436 1.376 . S
N435 C439 1.374 . S
C436 N435 1.376 . S
C436 C437 1.443 . S
C436 C463 1.389 . S
C437 C436 1.443 . S
C437 C438 1.340 . S
C437 H469 0.951 . S
C438 C437 1.340 . S
C438 C439 1.439 . S
C438 H470 0.950 . S
C439 N435 1.374 . S
C439 C438 1.439 . S
C439 C464 1.395 . S
N440 Co429 1.995 . S
N440 C441 1.376 . S
N440 C444 1.383 . S
C441 N440 1.376 . S
C441 C442 1.446 . S
C441 C464 1.391 . S
C442 C441 1.446 . S
C442 C443 1.339 . S
C442 H471 0.949 . S
C443 C442 1.339 . S
C443 C444 1.439 . S
C443 H472 0.950 . S
C444 N440 1.383 . S
C444 C443 1.439 . S
C444 C462 1.392 . S
N445 Co429 2.282 . S
N445 C448 1.332 . S
N445 C450 1.332 . S
C446 C447 1.386 . S
C446 C449 1.388 . S
C447 C446 1.386 . S
C447 C448 1.382 . S
C447 H473 0.950 . S
C448 N445 1.332 . S
C448 C447 1.382 . S
C448 H459 0.952 . S
C449 C446 1.388 . S
C449 C450 1.382 . S
C449 H474 0.950 . S
C450 N445 1.332 . S
C450 C449 1.382 . S
C450 H460 0.948 . S
N451 Co429 2.282 . S
N451 C455 1.332 . S
N451 C456 1.332 . S
C452 C453 1.388 . S
C452 C456 1.382 . S
C452 H475 0.950 . S
C453 C452 1.388 . S
C453 C454 1.386 . S
C454 C453 1.386 . S
C454 C455 1.382 . S
C454 H476 0.950 . S
C455 N451 1.332 . S
C455 C454 1.382 . S
C455 H457 0.952 . S
C456 N451 1.332 . S
C456 C452 1.382 . S
C456 H458 0.948 . S
H457 C455 0.952 . S
H458 C456 0.948 . S
H459 C448 0.952 . S
H460 C450 0.948 . S
C461 C427 1.395 . S
C461 C431 1.391 . S
C462 C424 1.389 . S
C462 C444 1.392 . S
C463 C434 1.392 . S
C463 C436 1.389 . S
C464 C439 1.395 . S
C464 C441 1.391 . S
H465 C425 0.951 . S
H466 C426 0.950 . S
H467 C432 0.949 . S
H468 C433 0.950 . S
H469 C437 0.951 . S
H470 C438 0.950 . S
H471 C442 0.949 . S
H472 C443 0.950 . S
H473 C447 0.950 . S
H474 C449 0.950 . S
H475 C452 0.950 . S
H476 C454 0.950 . S
C477 C478 1.443 . S
C477 N481 1.376 . S
C477 C515 1.389 . S
C478 C477 1.443 . S
C478 C479 1.340 . S
C478 H518 0.951 . S
C479 C478 1.340 . S
C479 C480 1.439 . S
C479 H519 0.950 . S
C480 C479 1.439 . S
C480 N481 1.374 . S
C480 C514 1.395 . S
N481 C477 1.376 . S
N481 C480 1.374 . S
N481 Co482 2.008 . S
Co482 N481 2.008 . S
Co482 N483 1.995 . S
Co482 N488 2.008 . S
Co482 N493 1.995 . S
Co482 N498 2.282 . S
Co482 N504 2.282 . S
N483 Co482 1.995 . S
N483 C484 1.376 . S
N483 C487 1.383 . S
C484 N483 1.376 . S
C484 C485 1.446 . S
C484 C514 1.391 . S
C485 C484 1.446 . S
C485 C486 1.339 . S
C485 H520 0.949 . S
C486 C485 1.339 . S
C486 C487 1.439 . S
C486 H521 0.950 . S
C487 N483 1.383 . S
C487 C486 1.439 . S
C487 C516 1.392 . S
N488 Co482 2.008 . S
N488 C489 1.376 . S
N488 C492 1.374 . S
C489 N488 1.376 . S
C489 C490 1.443 . S
C489 C516 1.389 . S
C490 C489 1.443 . S
C490 C491 1.340 . S
C490 H522 0.951 . S
C491 C490 1.340 . S
C491 C492 1.439 . S
C491 H523 0.950 . S
C492 N488 1.374 . S
C492 C491 1.439 . S
C492 C517 1.395 . S
N493 Co482 1.995 . S
N493 C494 1.376 . S
N493 C497 1.383 . S
C494 N493 1.376 . S
C494 C495 1.446 . S
C494 C517 1.391 . S
C495 C494 1.446 . S
C495 C496 1.339 . S
C495 H524 0.949 . S
C496 C495 1.339 . S
C496 C497 1.439 . S
C496 H525 0.950 . S
C497 N493 1.383 . S
C497 C496 1.439 . S
C497 C515 1.392 . S
N498 Co482 2.282 . S
N498 C501 1.332 . S
N498 C503 1.332 . S
C499 C500 1.386 1_556 S
C499 C502 1.388 1_556 S
C500 C499 1.386 1_554 S
C500 C501 1.382 . S
C500 H526 0.950 1_554 S
C501 N498 1.332 . S
C501 C500 1.382 . S
C501 H512 0.952 . S
C502 C499 1.388 1_554 S
C502 C503 1.382 . S
C502 H527 0.950 1_554 S
C503 N498 1.332 . S
C503 C502 1.382 . S
C503 H513 0.948 . S
N504 Co482 2.282 . S
N504 C508 1.332 . S
N504 C509 1.332 . S
C505 C506 1.388 . S
C505 C509 1.382 . S
C505 H528 0.950 . S
C506 C505 1.388 . S
C506 C507 1.386 . S
C507 C506 1.386 . S
C507 C508 1.382 . S
C507 H529 0.950 . S
C508 N504 1.332 . S
C508 C507 1.382 . S
C508 H510 0.952 . S
C509 N504 1.332 . S
C509 C505 1.382 . S
C509 H511 0.948 . S
H510 C508 0.952 . S
H511 C509 0.948 . S
H512 C501 0.952 . S
H513 C503 0.948 . S
C514 C480 1.395 . S
C514 C484 1.391 . S
C515 C477 1.389 . S
C515 C497 1.392 . S
C516 C487 1.392 . S
C516 C489 1.389 . S
C517 C492 1.395 . S
C517 C494 1.391 . S
H518 C478 0.951 . S
H519 C479 0.950 . S
H520 C485 0.949 . S
H521 C486 0.950 . S
H522 C490 0.951 . S
H523 C491 0.950 . S
H524 C495 0.949 . S
H525 C496 0.950 . S
H526 C500 0.950 1_556 S
H527 C502 0.950 1_556 S
H528 C505 0.950 . S
H529 C507 0.950 . S
C530 C531 1.443 . S
C530 N534 1.376 . S
C530 C568 1.389 . S
C531 C530 1.443 . S
C531 C532 1.340 . S
C531 H571 0.951 . S
C532 C531 1.340 . S
C532 C533 1.439 . S
C532 H572 0.950 . S
C533 C532 1.439 . S
C533 N534 1.374 . S
C533 C567 1.395 . S
N534 C530 1.376 . S
N534 C533 1.374 . S
N534 Co535 2.008 . S
Co535 N534 2.008 . S
Co535 N536 1.995 . S
Co535 N541 2.008 . S
Co535 N546 1.995 . S
Co535 N551 2.282 . S
Co535 N557 2.282 . S
N536 Co535 1.995 . S
N536 C537 1.376 . S
N536 C540 1.383 . S
C537 N536 1.376 . S
C537 C538 1.446 . S
C537 C567 1.391 . S
C538 C537 1.446 . S
C538 C539 1.339 . S
C538 H573 0.949 . S
C539 C538 1.339 . S
C539 C540 1.439 . S
C539 H574 0.950 . S
C540 N536 1.383 . S
C540 C539 1.439 . S
C540 C569 1.392 . S
N541 Co535 2.008 . S
N541 C542 1.376 . S
N541 C545 1.374 . S
C542 N541 1.376 . S
C542 C543 1.443 . S
C542 C569 1.389 . S
C543 C542 1.443 . S
C543 C544 1.340 . S
C543 H575 0.951 1_545 S
C544 C543 1.340 . S
C544 C545 1.439 . S
C544 H576 0.950 1_545 S
C545 N541 1.374 . S
C545 C544 1.439 . S
C545 C570 1.395 . S
N546 Co535 1.995 . S
N546 C547 1.376 . S
N546 C550 1.383 . S
C547 N546 1.376 . S
C547 C548 1.446 . S
C547 C570 1.391 . S
C548 C547 1.446 . S
C548 C549 1.339 . S
C548 H577 0.949 . S
C549 C548 1.339 . S
C549 C550 1.439 . S
C549 H578 0.950 . S
C550 N546 1.383 . S
C550 C549 1.439 . S
C550 C568 1.392 . S
N551 Co535 2.282 . S
N551 C554 1.332 . S
N551 C556 1.332 . S
C552 C553 1.386 1_556 S
C552 C555 1.388 1_556 S
C553 C552 1.386 1_554 S
C553 C554 1.382 . S
C553 H579 0.950 1_554 S
C554 N551 1.332 . S
C554 C553 1.382 . S
C554 H565 0.952 . S
C555 C552 1.388 1_554 S
C555 C556 1.382 . S
C555 H580 0.950 1_554 S
C556 N551 1.332 . S
C556 C555 1.382 . S
C556 H566 0.948 . S
N557 Co535 2.282 . S
N557 C561 1.332 . S
N557 C562 1.332 . S
C558 C559 1.388 . S
C558 C562 1.382 . S
C558 H581 0.950 . S
C559 C558 1.388 . S
C559 C560 1.386 . S
C560 C559 1.386 . S
C560 C561 1.382 . S
C560 H582 0.950 . S
C561 N557 1.332 . S
C561 C560 1.382 . S
C561 H563 0.952 . S
C562 N557 1.332 . S
C562 C558 1.382 . S
C562 H564 0.948 . S
H563 C561 0.952 . S
H564 C562 0.948 . S
H565 C554 0.952 . S
H566 C556 0.948 . S
C567 C533 1.395 . S
C567 C537 1.391 . S
C568 C530 1.389 . S
C568 C550 1.392 . S
C569 C540 1.392 . S
C569 C542 1.389 . S
C570 C545 1.395 . S
C570 C547 1.391 . S
H571 C531 0.951 . S
H572 C532 0.950 . S
H573 C538 0.949 . S
H574 C539 0.950 . S
H575 C543 0.951 1_565 S
H576 C544 0.950 1_565 S
H577 C548 0.949 . S
H578 C549 0.950 . S
H579 C553 0.950 1_556 S
H580 C555 0.950 1_556 S
H581 C558 0.950 . S
H582 C560 0.950 . S
C583 C584 1.443 . S
C583 N587 1.376 . S
C583 C621 1.389 . S
C584 C583 1.443 . S
C584 C585 1.340 . S
C584 H624 0.951 . S
C585 C584 1.340 . S
C585 C586 1.439 . S
C585 H625 0.950 . S
C586 C585 1.439 . S
C586 N587 1.374 . S
C586 C620 1.395 . S
N587 C583 1.376 . S
N587 C586 1.374 . S
N587 Co588 2.008 . S
Co588 N587 2.008 . S
Co588 N589 1.995 . S
Co588 N594 2.008 . S
Co588 N599 1.995 . S
Co588 N604 2.282 . S
Co588 N610 2.282 . S
N589 Co588 1.995 . S
N589 C590 1.376 . S
N589 C593 1.383 . S
C590 N589 1.376 . S
C590 C591 1.446 . S
C590 C620 1.391 . S
C591 C590 1.446 . S
C591 C592 1.339 . S
C591 H626 0.949 . S
C592 C591 1.339 . S
C592 C593 1.439 . S
C592 H627 0.950 . S
C593 N589 1.383 . S
C593 C592 1.439 . S
C593 C622 1.392 . S
N594 Co588 2.008 . S
N594 C595 1.376 . S
N594 C598 1.374 . S
C595 N594 1.376 . S
C595 C596 1.443 1_655 S
C595 C622 1.389 . S
C596 C595 1.443 1_455 S
C596 C597 1.340 . S
C596 H628 0.951 . S
C597 C596 1.340 . S
C597 C598 1.439 1_455 S
C597 H629 0.950 . S
C598 N594 1.374 . S
C598 C597 1.439 1_655 S
C598 C623 1.395 . S
N599 Co588 1.995 . S
N599 C600 1.376 . S
N599 C603 1.383 . S
C600 N599 1.376 . S
C600 C601 1.446 . S
C600 C623 1.391 . S
C601 C600 1.446 . S
C601 C602 1.339 . S
C601 H630 0.949 . S
C602 C601 1.339 . S
C602 C603 1.439 . S
C602 H631 0.950 . S
C603 N599 1.383 . S
C603 C602 1.439 . S
C603 C621 1.392 . S
N604 Co588 2.282 . S
N604 C607 1.332 . S
N604 C609 1.332 . S
C605 C606 1.386 1_556 S
C605 C608 1.388 1_556 S
C606 C605 1.386 1_554 S
C606 C607 1.382 . S
C606 H632 0.950 1_554 S
C607 N604 1.332 . S
C607 C606 1.382 . S
C607 H618 0.952 . S
C608 C605 1.388 1_554 S
C608 C609 1.382 . S
C608 H633 0.950 1_554 S
C609 N604 1.332 . S
C609 C608 1.382 . S
C609 H619 0.948 . S
N610 Co588 2.282 . S
N610 C614 1.332 . S
N610 C615 1.332 . S
C611 C612 1.388 . S
C611 C615 1.382 . S
C611 H634 0.950 . S
C612 C611 1.388 . S
C612 C613 1.386 . S
C613 C612 1.386 . S
C613 C614 1.382 . S
C613 H635 0.950 . S
C614 N610 1.332 . S
C614 C613 1.382 . S
C614 H616 0.952 . S
C615 N610 1.332 . S
C615 C611 1.382 . S
C615 H617 0.948 . S
H616 C614 0.952 . S
H617 C615 0.948 . S
H618 C607 0.952 . S
H619 C609 0.948 . S
C620 C586 1.395 . S
C620 C590 1.391 . S
C621 C583 1.389 . S
C621 C603 1.392 . S
C622 C593 1.392 . S
C622 C595 1.389 . S
C623 C598 1.395 . S
C623 C600 1.391 . S
H624 C584 0.951 . S
H625 C585 0.950 . S
H626 C591 0.949 . S
H627 C592 0.950 . S
H628 C596 0.951 . S
H629 C597 0.950 . S
H630 C601 0.949 . S
H631 C602 0.950 . S
H632 C606 0.950 1_556 S
H633 C608 0.950 1_556 S
H634 C611 0.950 . S
H635 C613 0.950 . S
C636 C637 1.443 . S
C636 N640 1.376 . S
C636 C674 1.389 . S
C637 C636 1.443 . S
C637 C638 1.340 . S
C637 H677 0.951 . S
C638 C637 1.340 . S
C638 C639 1.439 . S
C638 H678 0.950 . S
C639 C638 1.439 . S
C639 N640 1.374 . S
C639 C673 1.395 . S
N640 C636 1.376 . S
N640 C639 1.374 . S
N640 Co641 2.008 . S
Co641 N640 2.008 . S
Co641 N642 1.995 . S
Co641 N647 2.008 . S
Co641 N652 1.995 . S
Co641 N657 2.282 . S
Co641 N663 2.282 . S
N642 Co641 1.995 . S
N642 C643 1.376 . S
N642 C646 1.383 . S
C643 N642 1.376 . S
C643 C644 1.446 . S
C643 C673 1.391 . S
C644 C643 1.446 . S
C644 C645 1.339 . S
C644 H679 0.949 . S
C645 C644 1.339 . S
C645 C646 1.439 . S
C645 H680 0.950 . S
C646 N642 1.383 . S
C646 C645 1.439 . S
C646 C675 1.392 . S
N647 Co641 2.008 . S
N647 C648 1.376 . S
N647 C651 1.374 . S
C648 N647 1.376 . S
C648 C649 1.443 . S
C648 C675 1.389 . S
C649 C648 1.443 . S
C649 C650 1.340 . S
C649 H681 0.951 . S
C650 C649 1.340 . S
C650 C651 1.439 . S
C650 H682 0.950 . S
C651 N647 1.374 . S
C651 C650 1.439 . S
C651 C676 1.395 . S
N652 Co641 1.995 . S
N652 C653 1.376 . S
N652 C656 1.383 . S
C653 N652 1.376 . S
C653 C654 1.446 . S
C653 C676 1.391 . S
C654 C653 1.446 . S
C654 C655 1.339 . S
C654 H683 0.949 . S
C655 C654 1.339 . S
C655 C656 1.439 . S
C655 H684 0.950 . S
C656 N652 1.383 . S
C656 C655 1.439 . S
C656 C674 1.392 . S
N657 Co641 2.282 . S
N657 C660 1.332 . S
N657 C662 1.332 . S
C658 C659 1.386 . S
C658 C661 1.388 . S
C659 C658 1.386 . S
C659 C660 1.382 . S
C659 H685 0.950 . S
C660 N657 1.332 . S
C660 C659 1.382 . S
C660 H671 0.952 . S
C661 C658 1.388 . S
C661 C662 1.382 . S
C661 H686 0.950 . S
C662 N657 1.332 . S
C662 C661 1.382 . S
C662 H672 0.948 . S
N663 Co641 2.282 . S
N663 C667 1.332 . S
N663 C668 1.332 . S
C664 C665 1.388 . S
C664 C668 1.382 . S
C664 H687 0.950 . S
C665 C664 1.388 . S
C665 C666 1.386 . S
C666 C665 1.386 . S
C666 C667 1.382 . S
C666 H688 0.950 . S
C667 N663 1.332 . S
C667 C666 1.382 . S
C667 H669 0.952 . S
C668 N663 1.332 . S
C668 C664 1.382 . S
C668 H670 0.948 . S
H669 C667 0.952 . S
H670 C668 0.948 . S
H671 C660 0.952 . S
H672 C662 0.948 . S
C673 C639 1.395 . S
C673 C643 1.391 . S
C674 C636 1.389 . S
C674 C656 1.392 . S
C675 C646 1.392 . S
C675 C648 1.389 . S
C676 C651 1.395 . S
C676 C653 1.391 . S
H677 C637 0.951 . S
H678 C638 0.950 . S
H679 C644 0.949 . S
H680 C645 0.950 . S
H681 C649 0.951 . S
H682 C650 0.950 . S
H683 C654 0.949 . S
H684 C655 0.950 . S
H685 C659 0.950 . S
H686 C661 0.950 . S
H687 C664 0.950 . S
H688 C666 0.950 . S
C689 C690 1.443 . S
C689 N693 1.376 . S
C689 C727 1.389 . S
C690 C689 1.443 . S
C690 C691 1.340 . S
C690 H730 0.951 . S
C691 C690 1.340 . S
C691 C692 1.439 . S
C691 H731 0.950 . S
C692 C691 1.439 . S
C692 N693 1.374 . S
C692 C726 1.395 . S
N693 C689 1.376 . S
N693 C692 1.374 . S
N693 Co694 2.008 . S
Co694 N693 2.008 . S
Co694 N695 1.995 . S
Co694 N700 2.008 . S
Co694 N705 1.995 . S
Co694 N710 2.282 . S
Co694 N716 2.282 . S
N695 Co694 1.995 . S
N695 C696 1.376 . S
N695 C699 1.383 . S
C696 N695 1.376 . S
C696 C697 1.446 . S
C696 C726 1.391 . S
C697 C696 1.446 . S
C697 C698 1.339 . S
C697 H732 0.949 . S
C698 C697 1.339 . S
C698 C699 1.439 . S
C698 H733 0.950 . S
C699 N695 1.383 . S
C699 C698 1.439 . S
C699 C728 1.392 . S
N700 Co694 2.008 . S
N700 C701 1.376 . S
N700 C704 1.374 1_565 S
C701 N700 1.376 . S
C701 C702 1.443 . S
C701 C728 1.389 . S
C702 C701 1.443 . S
C702 C703 1.340 1_565 S
C702 H734 0.951 . S
C703 C702 1.340 1_545 S
C703 C704 1.439 . S
C703 H735 0.950 . S
C704 N700 1.374 1_545 S
C704 C703 1.439 . S
C704 C729 1.395 . S
N705 Co694 1.995 . S
N705 C706 1.376 1_565 S
N705 C709 1.383 . S
C706 N705 1.376 1_545 S
C706 C707 1.446 . S
C706 C729 1.391 . S
C707 C706 1.446 . S
C707 C708 1.339 . S
C707 H736 0.949 . S
C708 C707 1.339 . S
C708 C709 1.439 1_545 S
C708 H737 0.950 . S
C709 N705 1.383 . S
C709 C708 1.439 1_565 S
C709 C727 1.392 . S
N710 Co694 2.282 . S
N710 C713 1.332 1_565 S
N710 C715 1.332 . S
C711 C712 1.386 . S
C711 C714 1.388 1_545 S
C712 C711 1.386 . S
C712 C713 1.382 . S
C712 H738 0.950 . S
C713 N710 1.332 1_545 S
C713 C712 1.382 . S
C713 H724 0.952 . S
C714 C711 1.388 1_565 S
C714 C715 1.382 . S
C714 H739 0.950 . S
C715 N710 1.332 . S
C715 C714 1.382 . S
C715 H725 0.948 . S
N716 Co694 2.282 . S
N716 C720 1.332 . S
N716 C721 1.332 . S
C717 C718 1.388 . S
C717 C721 1.382 . S
C717 H740 0.950 . S
C718 C717 1.388 . S
C718 C719 1.386 . S
C719 C718 1.386 . S
C719 C720 1.382 . S
C719 H741 0.950 . S
C720 N716 1.332 . S
C720 C719 1.382 . S
C720 H722 0.952 . S
C721 N716 1.332 . S
C721 C717 1.382 . S
C721 H723 0.948 . S
H722 C720 0.952 . S
H723 C721 0.948 . S
H724 C713 0.952 . S
H725 C715 0.948 . S
C726 C692 1.395 . S
C726 C696 1.391 . S
C727 C689 1.389 . S
C727 C709 1.392 . S
C728 C699 1.392 . S
C728 C701 1.389 . S
C729 C704 1.395 . S
C729 C706 1.391 . S
H730 C690 0.951 . S
H731 C691 0.950 . S
H732 C697 0.949 . S
H733 C698 0.950 . S
H734 C702 0.951 . S
H735 C703 0.950 . S
H736 C707 0.949 . S
H737 C708 0.950 . S
H738 C712 0.950 . S
H739 C714 0.950 . S
H740 C717 0.950 . S
H741 C719 0.950 . S
C742 C743 1.443 . S
C742 N746 1.376 . S
C742 C780 1.389 . S
C743 C742 1.443 . S
C743 C744 1.340 . S
C743 H783 0.951 . S
C744 C743 1.340 . S
C744 C745 1.439 . S
C744 H784 0.950 . S
C745 C744 1.439 . S
C745 N746 1.374 . S
C745 C779 1.395 . S
N746 C742 1.376 . S
N746 C745 1.374 . S
N746 Co747 2.008 . S
Co747 N746 2.008 . S
Co747 N748 1.995 . S
Co747 N753 2.008 . S
Co747 N758 1.995 . S
Co747 N763 2.282 . S
Co747 N769 2.282 . S
N748 Co747 1.995 . S
N748 C749 1.376 . S
N748 C752 1.383 . S
C749 N748 1.376 . S
C749 C750 1.446 . S
C749 C779 1.391 . S
C750 C749 1.446 . S
C750 C751 1.339 . S
C750 H785 0.949 . S
C751 C750 1.339 . S
C751 C752 1.439 . S
C751 H786 0.950 . S
C752 N748 1.383 . S
C752 C751 1.439 . S
C752 C781 1.392 . S
N753 Co747 2.008 . S
N753 C754 1.376 . S
N753 C757 1.374 . S
C754 N753 1.376 . S
C754 C755 1.443 . S
C754 C781 1.389 . S
C755 C754 1.443 . S
C755 C756 1.340 1_455 S
C755 H787 0.951 . S
C756 C755 1.340 1_655 S
C756 C757 1.439 1_655 S
C756 H788 0.950 . S
C757 N753 1.374 . S
C757 C756 1.439 1_455 S
C757 C782 1.395 1_455 S
N758 Co747 1.995 . S
N758 C759 1.376 . S
N758 C762 1.383 . S
C759 N758 1.376 . S
C759 C760 1.446 1_455 S
C759 C782 1.391 1_455 S
C760 C759 1.446 1_655 S
C760 C761 1.339 1_655 S
C760 H789 0.949 . S
C761 C760 1.339 1_455 S
C761 C762 1.439 . S
C761 H790 0.950 . S
C762 N758 1.383 . S
C762 C761 1.439 . S
C762 C780 1.392 . S
N763 Co747 2.282 . S
N763 C766 1.332 . S
N763 C768 1.332 . S
C764 C765 1.386 1_455 S
C764 C767 1.388 . S
C765 C764 1.386 1_655 S
C765 C766 1.382 1_655 S
C765 H791 0.950 . S
C766 N763 1.332 . S
C766 C765 1.382 1_455 S
C766 H777 0.952 . S
C767 C764 1.388 . S
C767 C768 1.382 . S
C767 H792 0.950 . S
C768 N763 1.332 . S
C768 C767 1.382 . S
C768 H778 0.948 . S
N769 Co747 2.282 . S
N769 C773 1.332 . S
N769 C774 1.332 . S
C770 C771 1.388 . S
C770 C774 1.382 . S
C770 H793 0.950 . S
C771 C770 1.388 . S
C771 C772 1.386 . S
C772 C771 1.386 . S
C772 C773 1.382 . S
C772 H794 0.950 . S
C773 N769 1.332 . S
C773 C772 1.382 . S
C773 H775 0.952 . S
C774 N769 1.332 . S
C774 C770 1.382 . S
C774 H776 0.948 . S
H775 C773 0.952 . S
H776 C774 0.948 . S
H777 C766 0.952 . S
H778 C768 0.948 . S
C779 C745 1.395 . S
C779 C749 1.391 . S
C780 C742 1.389 . S
C780 C762 1.392 . S
C781 C752 1.392 . S
C781 C754 1.389 . S
C782 C757 1.395 1_655 S
C782 C759 1.391 1_655 S
H783 C743 0.951 . S
H784 C744 0.950 . S
H785 C750 0.949 . S
H786 C751 0.950 . S
H787 C755 0.951 . S
H788 C756 0.950 . S
H789 C760 0.949 . S
H790 C761 0.950 . S
H791 C765 0.950 . S
H792 C767 0.950 . S
H793 C770 0.950 . S
H794 C772 0.950 . S
C795 C796 1.443 . S
C795 N799 1.376 . S
C795 C833 1.389 . S
C796 C795 1.443 . S
C796 C797 1.340 . S
C796 H836 0.951 . S
C797 C796 1.340 . S
C797 C798 1.439 . S
C797 H837 0.950 . S
C798 C797 1.439 . S
C798 N799 1.374 . S
C798 C832 1.395 . S
N799 C795 1.376 . S
N799 C798 1.374 . S
N799 Co800 2.008 . S
Co800 N799 2.008 . S
Co800 N801 1.995 . S
Co800 N806 2.008 . S
Co800 N811 1.995 . S
Co800 N816 2.282 . S
Co800 N822 2.282 . S
N801 Co800 1.995 . S
N801 C802 1.376 . S
N801 C805 1.383 . S
C802 N801 1.376 . S
C802 C803 1.446 . S
C802 C832 1.391 . S
C803 C802 1.446 . S
C803 C804 1.339 . S
C803 H838 0.949 . S
C804 C803 1.339 . S
C804 C805 1.439 . S
C804 H839 0.950 . S
C805 N801 1.383 . S
C805 C804 1.439 . S
C805 C834 1.392 . S
N806 Co800 2.008 . S
N806 C807 1.376 . S
N806 C810 1.374 . S
C807 N806 1.376 . S
C807 C808 1.443 1_565 S
C807 C834 1.389 . S
C808 C807 1.443 1_545 S
C808 C809 1.340 . S
C808 H840 0.951 . S
C809 C808 1.340 . S
C809 C810 1.439 1_545 S
C809 H841 0.950 . S
C810 N806 1.374 . S
C810 C809 1.439 1_565 S
C810 C835 1.395 . S
N811 Co800 1.995 . S
N811 C812 1.376 . S
N811 C815 1.383 . S
C812 N811 1.376 . S
C812 C813 1.446 . S
C812 C835 1.391 . S
C813 C812 1.446 . S
C813 C814 1.339 . S
C813 H842 0.949 . S
C814 C813 1.339 . S
C814 C815 1.439 . S
C814 H843 0.950 . S
C815 N811 1.383 . S
C815 C814 1.439 . S
C815 C833 1.392 . S
N816 Co800 2.282 . S
N816 C819 1.332 . S
N816 C821 1.332 . S
C817 C818 1.386 . S
C817 C820 1.388 . S
C818 C817 1.386 . S
C818 C819 1.382 . S
C818 H844 0.950 . S
C819 N816 1.332 . S
C819 C818 1.382 . S
C819 H830 0.952 . S
C820 C817 1.388 . S
C820 C821 1.382 . S
C820 H845 0.950 . S
C821 N816 1.332 . S
C821 C820 1.382 . S
C821 H831 0.948 . S
N822 Co800 2.282 . S
N822 C826 1.332 . S
N822 C827 1.332 . S
C823 C824 1.388 . S
C823 C827 1.382 . S
C823 H846 0.950 . S
C824 C823 1.388 . S
C824 C825 1.386 . S
C825 C824 1.386 . S
C825 C826 1.382 . S
C825 H847 0.950 . S
C826 N822 1.332 . S
C826 C825 1.382 . S
C826 H828 0.952 . S
C827 N822 1.332 . S
C827 C823 1.382 . S
C827 H829 0.948 . S
H828 C826 0.952 . S
H829 C827 0.948 . S
H830 C819 0.952 . S
H831 C821 0.948 . S
C832 C798 1.395 . S
C832 C802 1.391 . S
C833 C795 1.389 . S
C833 C815 1.392 . S
C834 C805 1.392 . S
C834 C807 1.389 . S
C835 C810 1.395 . S
C835 C812 1.391 . S
H836 C796 0.951 . S
H837 C797 0.950 . S
H838 C803 0.949 . S
H839 C804 0.950 . S
H840 C808 0.951 . S
H841 C809 0.950 . S
H842 C813 0.949 . S
H843 C814 0.950 . S
H844 C818 0.950 . S
H845 C820 0.950 . S
H846 C823 0.950 . S
H847 C825 0.950 . S
C848 C849 1.443 . S
C848 N852 1.376 . S
C848 C886 1.389 . S
C849 C848 1.443 . S
C849 C850 1.340 . S
C849 H889 0.951 . S
C850 C849 1.340 . S
C850 C851 1.439 . S
C850 H890 0.950 . S
C851 C850 1.439 . S
C851 N852 1.374 . S
C851 C885 1.395 . S
N852 C848 1.376 . S
N852 C851 1.374 . S
N852 Co853 2.008 . S
Co853 N852 2.008 . S
Co853 N854 1.995 . S
Co853 N859 2.008 . S
Co853 N864 1.995 . S
Co853 N869 2.282 . S
Co853 N875 2.282 . S
N854 Co853 1.995 . S
N854 C855 1.376 . S
N854 C858 1.383 . S
C855 N854 1.376 . S
C855 C856 1.446 . S
C855 C885 1.391 . S
C856 C855 1.446 . S
C856 C857 1.339 . S
C856 H891 0.949 . S
C857 C856 1.339 . S
C857 C858 1.439 . S
C857 H892 0.950 . S
C858 N854 1.383 . S
C858 C857 1.439 . S
C858 C887 1.392 . S
N859 Co853 2.008 . S
N859 C860 1.376 . S
N859 C863 1.374 . S
C860 N859 1.376 . S
C860 C861 1.443 . S
C860 C887 1.389 . S
C861 C860 1.443 . S
C861 C862 1.340 . S
C861 H893 0.951 1_455 S
C862 C861 1.340 . S
C862 C863 1.439 . S
C862 H894 0.950 1_455 S
C863 N859 1.374 . S
C863 C862 1.439 . S
C863 C888 1.395 . S
N864 Co853 1.995 . S
N864 C865 1.376 . S
N864 C868 1.383 . S
C865 N864 1.376 . S
C865 C866 1.446 . S
C865 C888 1.391 . S
C866 C865 1.446 . S
C866 C867 1.339 . S
C866 H895 0.949 . S
C867 C866 1.339 . S
C867 C868 1.439 . S
C867 H896 0.950 . S
C868 N864 1.383 . S
C868 C867 1.439 . S
C868 C886 1.392 . S
N869 Co853 2.282 . S
N869 C872 1.332 . S
N869 C874 1.332 . S
C870 C871 1.386 . S
C870 C873 1.388 . S
C871 C870 1.386 . S
C871 C872 1.382 . S
C871 H897 0.950 . S
C872 N869 1.332 . S
C872 C871 1.382 . S
C872 H883 0.952 . S
C873 C870 1.388 . S
C873 C874 1.382 . S
C873 H898 0.950 . S
C874 N869 1.332 . S
C874 C873 1.382 . S
C874 H884 0.948 . S
N875 Co853 2.282 . S
N875 C879 1.332 . S
N875 C880 1.332 . S
C876 C877 1.388 . S
C876 C880 1.382 . S
C876 H899 0.950 . S
C877 C876 1.388 . S
C877 C878 1.386 . S
C878 C877 1.386 . S
C878 C879 1.382 . S
C878 H900 0.950 . S
C879 N875 1.332 . S
C879 C878 1.382 . S
C879 H881 0.952 . S
C880 N875 1.332 . S
C880 C876 1.382 . S
C880 H882 0.948 . S
H881 C879 0.952 . S
H882 C880 0.948 . S
H883 C872 0.952 . S
H884 C874 0.948 . S
C885 C851 1.395 . S
C885 C855 1.391 . S
C886 C848 1.389 . S
C886 C868 1.392 . S
C887 C858 1.392 . S
C887 C860 1.389 . S
C888 C863 1.395 . S
C888 C865 1.391 . S
H889 C849 0.951 . S
H890 C850 0.950 . S
H891 C856 0.949 . S
H892 C857 0.950 . S
H893 C861 0.951 1_655 S
H894 C862 0.950 1_655 S
H895 C866 0.949 . S
H896 C867 0.950 . S
H897 C871 0.950 . S
H898 C873 0.950 . S
H899 C876 0.950 . S
H900 C878 0.950 . S
C901 C902 1.443 . S
C901 N905 1.376 . S
C901 C939 1.389 . S
C902 C901 1.443 . S
C902 C903 1.340 . S
C902 H942 0.951 . S
C903 C902 1.340 . S
C903 C904 1.439 . S
C903 H943 0.950 . S
C904 C903 1.439 . S
C904 N905 1.374 . S
C904 C938 1.395 . S
N905 C901 1.376 . S
N905 C904 1.374 . S
N905 Co906 2.008 . S
Co906 N905 2.008 . S
Co906 N907 1.995 . S
Co906 N912 2.008 . S
Co906 N917 1.995 . S
Co906 N922 2.282 . S
Co906 N928 2.282 . S
N907 Co906 1.995 . S
N907 C908 1.376 . S
N907 C911 1.383 . S
C908 N907 1.376 . S
C908 C909 1.446 . S
C908 C938 1.391 . S
C909 C908 1.446 . S
C909 C910 1.339 . S
C909 H944 0.949 . S
C910 C909 1.339 . S
C910 C911 1.439 . S
C910 H945 0.950 . S
C911 N907 1.383 . S
C911 C910 1.439 . S
C911 C940 1.392 . S
N912 Co906 2.008 . S
N912 C913 1.376 . S
N912 C916 1.374 . S
C913 N912 1.376 . S
C913 C914 1.443 . S
C913 C940 1.389 . S
C914 C913 1.443 . S
C914 C915 1.340 . S
C914 H946 0.951 . S
C915 C914 1.340 . S
C915 C916 1.439 . S
C915 H947 0.950 . S
C916 N912 1.374 . S
C916 C915 1.439 . S
C916 C941 1.395 . S
N917 Co906 1.995 . S
N917 C918 1.376 . S
N917 C921 1.383 . S
C918 N917 1.376 . S
C918 C919 1.446 . S
C918 C941 1.391 . S
C919 C918 1.446 . S
C919 C920 1.339 . S
C919 H948 0.949 . S
C920 C919 1.339 . S
C920 C921 1.439 . S
C920 H949 0.950 . S
C921 N917 1.383 . S
C921 C920 1.439 . S
C921 C939 1.392 . S
N922 Co906 2.282 . S
N922 C925 1.332 . S
N922 C927 1.332 . S
C923 C924 1.386 . S
C923 C926 1.388 . S
C924 C923 1.386 . S
C924 C925 1.382 . S
C924 H950 0.950 . S
C925 N922 1.332 . S
C925 C924 1.382 . S
C925 H936 0.952 . S
C926 C923 1.388 . S
C926 C927 1.382 . S
C926 H951 0.950 . S
C927 N922 1.332 . S
C927 C926 1.382 . S
C927 H937 0.948 . S
N928 Co906 2.282 . S
N928 C932 1.332 . S
N928 C933 1.332 . S
C929 C930 1.388 . S
C929 C933 1.382 . S
C929 H952 0.950 . S
C930 C929 1.388 . S
C930 C931 1.386 . S
C931 C930 1.386 . S
C931 C932 1.382 . S
C931 H953 0.950 . S
C932 N928 1.332 . S
C932 C931 1.382 . S
C932 H934 0.952 . S
C933 N928 1.332 . S
C933 C929 1.382 . S
C933 H935 0.948 . S
H934 C932 0.952 . S
H935 C933 0.948 . S
H936 C925 0.952 . S
H937 C927 0.948 . S
C938 C904 1.395 . S
C938 C908 1.391 . S
C939 C901 1.389 . S
C939 C921 1.392 . S
C940 C911 1.392 . S
C940 C913 1.389 . S
C941 C916 1.395 . S
C941 C918 1.391 . S
H942 C902 0.951 . S
H943 C903 0.950 . S
H944 C909 0.949 . S
H945 C910 0.950 . S
H946 C914 0.951 . S
H947 C915 0.950 . S
H948 C919 0.949 . S
H949 C920 0.950 . S
H950 C924 0.950 . S
H951 C926 0.950 . S
H952 C929 0.950 . S
H953 C931 0.950 . S
C954 C955 1.391 . S
C954 C956 1.394 . S
C954 H970 0.931 . S
C955 C954 1.391 . S
C955 C959 1.376 . S
C956 C954 1.394 . S
C956 C957 1.369 . S
C956 C960 1.531 . S
C957 C956 1.369 . S
C957 C958 1.410 . S
C957 C965 1.503 . S
C958 C957 1.410 . S
C958 C959 1.392 . S
C958 C961 1.511 . S
C959 C955 1.376 . S
C959 C958 1.392 . S
C959 H971 0.929 . S
C960 C956 1.531 . S
C960 H972 0.960 . S
C960 H973 0.962 . S
C960 H974 0.960 . S
C961 C958 1.511 . S
C961 H975 0.961 . S
C961 H976 0.961 . S
C961 H977 0.961 1_455 S
C962 C963 1.370 . S
C962 C964 1.363 . S
C962 H978 0.931 . S
C963 C962 1.370 . S
C963 C967 1.408 . S
C964 C962 1.363 . S
C964 C965 1.370 . S
C964 C968 1.524 . S
C965 C957 1.503 . S
C965 C964 1.370 . S
C965 C966 1.403 . S
C966 C965 1.403 . S
C966 C967 1.404 . S
C966 C969 1.539 1_455 S
C967 C963 1.408 . S
C967 C966 1.404 . S
C967 H979 0.930 . S
C968 C964 1.524 . S
C968 H980 0.956 . S
C968 H981 0.961 . S
C968 H982 0.961 . S
C969 C966 1.539 1_655 S
C969 H983 0.958 . S
C969 H984 0.961 . S
C969 H985 0.960 . S
H970 C954 0.931 . S
H971 C959 0.929 . S
H972 C960 0.960 . S
H973 C960 0.962 . S
H974 C960 0.960 . S
H975 C961 0.961 . S
H976 C961 0.961 . S
H977 C961 0.961 1_655 S
H978 C962 0.931 . S
H979 C967 0.930 . S
H980 C968 0.956 . S
H981 C968 0.961 . S
H982 C968 0.961 . S
H983 C969 0.958 . S
H984 C969 0.961 . S
H985 C969 0.960 . S
C986 C987 1.391 . S
C986 C988 1.394 . S
C986 H1002 0.931 . S
C987 C986 1.391 . S
C987 C991 1.376 . S
C988 C986 1.394 . S
C988 C989 1.369 . S
C988 C992 1.531 . S
C989 C988 1.369 . S
C989 C990 1.410 . S
C989 C997 1.503 . S
C990 C989 1.410 . S
C990 C991 1.392 . S
C990 C993 1.511 . S
C991 C987 1.376 . S
C991 C990 1.392 . S
C991 H1003 0.929 . S
C992 C988 1.531 . S
C992 H1004 0.960 . S
C992 H1005 0.962 . S
C992 H1006 0.960 . S
C993 C990 1.511 . S
C993 H1007 0.961 . S
C993 H1008 0.961 . S
C993 H1009 0.961 . S
C994 C995 1.370 . S
C994 C996 1.363 . S
C994 H1010 0.931 . S
C995 C994 1.370 . S
C995 C999 1.408 . S
C996 C994 1.363 . S
C996 C997 1.370 . S
C996 C1000 1.524 . S
C997 C989 1.503 . S
C997 C996 1.370 . S
C997 C998 1.403 . S
C998 C997 1.403 . S
C998 C999 1.404 . S
C998 C1001 1.539 . S
C999 C995 1.408 . S
C999 C998 1.404 . S
C999 H1011 0.930 . S
C1000 C996 1.524 . S
C1000 H1012 0.956 . S
C1000 H1013 0.961 . S
C1000 H1014 0.961 . S
C1001 C998 1.539 . S
C1001 H1015 0.958 . S
C1001 H1016 0.961 . S
C1001 H1017 0.960 . S
H1002 C986 0.931 . S
H1003 C991 0.929 . S
H1004 C992 0.960 . S
H1005 C992 0.962 . S
H1006 C992 0.960 . S
H1007 C993 0.961 . S
H1008 C993 0.961 . S
H1009 C993 0.961 . S
H1010 C994 0.931 . S
H1011 C999 0.930 . S
H1012 C1000 0.956 . S
H1013 C1000 0.961 . S
H1014 C1000 0.961 . S
H1015 C1001 0.958 . S
H1016 C1001 0.961 . S
H1017 C1001 0.960 . S
C1018 C1019 1.391 . S
C1018 C1020 1.394 . S
C1018 H1034 0.931 . S
C1019 C1018 1.391 . S
C1019 C1023 1.376 1_565 S
C1020 C1018 1.394 . S
C1020 C1021 1.369 . S
C1020 C1024 1.531 . S
C1021 C1020 1.369 . S
C1021 C1022 1.374 1_565 S
C1021 C1029 1.503 . S
C1022 C1021 1.374 1_545 S
C1022 C1023 1.390 . S
C1022 C1025 1.549 . S
C1023 C1019 1.376 1_545 S
C1023 C1022 1.390 . S
C1023 H1035 0.929 . S
C1024 C1020 1.531 . S
C1024 H1036 0.960 . S
C1024 H1037 0.962 . S
C1024 H1038 0.960 . S
C1025 C1022 1.549 . S
C1025 H1039 0.961 . S
C1025 H1040 0.961 . S
C1025 H1041 0.961 . S
C1026 C1027 1.370 . S
C1026 C1028 1.363 . S
C1026 H1042 0.931 . S
C1027 C1026 1.370 . S
C1027 C1031 1.408 . S
C1028 C1026 1.363 . S
C1028 C1029 1.370 . S
C1028 C1032 1.524 . S
C1029 C1021 1.503 . S
C1029 C1028 1.370 . S
C1029 C1030 1.403 . S
C1030 C1029 1.403 . S
C1030 C1031 1.404 . S
C1030 C1033 1.539 . S
C1031 C1027 1.408 . S
C1031 C1030 1.404 . S
C1031 H1043 0.930 . S
C1032 C1028 1.524 . S
C1032 H1044 0.956 . S
C1032 H1045 0.961 . S
C1032 H1046 0.961 . S
C1033 C1030 1.539 . S
C1033 H1047 0.958 . S
C1033 H1048 0.961 . S
C1033 H1049 0.960 . S
H1034 C1018 0.931 . S
H1035 C1023 0.929 . S
H1036 C1024 0.960 . S
H1037 C1024 0.962 . S
H1038 C1024 0.960 . S
H1039 C1025 0.961 . S
H1040 C1025 0.961 . S
H1041 C1025 0.961 . S
H1042 C1026 0.931 . S
H1043 C1031 0.930 . S
H1044 C1032 0.956 . S
H1045 C1032 0.961 . S
H1046 C1032 0.961 . S
H1047 C1033 0.958 . S
H1048 C1033 0.961 . S
H1049 C1033 0.960 . S
C1050 C1051 1.391 . S
C1050 C1052 1.394 . S
C1050 H1066 0.931 . S
C1051 C1050 1.391 . S
C1051 C1055 1.376 . S
C1052 C1050 1.394 . S
C1052 C1053 1.369 . S
C1052 C1056 1.531 . S
C1053 C1052 1.369 . S
C1053 C1054 1.410 . S
C1053 C1061 1.503 . S
C1054 C1053 1.410 . S
C1054 C1055 1.392 . S
C1054 C1057 1.511 . S
C1055 C1051 1.376 . S
C1055 C1054 1.392 . S
C1055 H1067 0.929 . S
C1056 C1052 1.531 . S
C1056 H1068 0.960 . S
C1056 H1069 0.962 . S
C1056 H1070 0.960 . S
C1057 C1054 1.511 . S
C1057 H1071 0.961 1_545 S
C1057 H1072 0.961 . S
C1057 H1073 0.961 . S
C1058 C1059 1.370 . S
C1058 C1060 1.363 . S
C1058 H1074 0.931 . S
C1059 C1058 1.370 . S
C1059 C1063 1.408 . S
C1060 C1058 1.363 . S
C1060 C1061 1.370 . S
C1060 C1064 1.524 . S
C1061 C1053 1.503 . S
C1061 C1060 1.370 . S
C1061 C1062 1.403 . S
C1062 C1061 1.403 . S
C1062 C1063 1.404 . S
C1062 C1065 1.539 . S
C1063 C1059 1.408 . S
C1063 C1062 1.404 . S
C1063 H1075 0.930 . S
C1064 C1060 1.524 . S
C1064 H1076 0.956 . S
C1064 H1077 0.961 . S
C1064 H1078 0.961 . S
C1065 C1062 1.539 . S
C1065 H1079 0.958 . S
C1065 H1080 0.961 . S
C1065 H1081 0.960 . S
H1066 C1050 0.931 . S
H1067 C1055 0.929 . S
H1068 C1056 0.960 . S
H1069 C1056 0.962 . S
H1070 C1056 0.960 . S
H1071 C1057 0.961 1_565 S
H1072 C1057 0.961 . S
H1073 C1057 0.961 . S
H1074 C1058 0.931 . S
H1075 C1063 0.930 . S
H1076 C1064 0.956 . S
H1077 C1064 0.961 . S
H1078 C1064 0.961 . S
H1079 C1065 0.958 . S
H1080 C1065 0.961 . S
H1081 C1065 0.960 . S
C1082 C1083 1.391 . S
C1082 C1084 1.394 . S
C1082 H1098 0.931 . S
C1083 C1082 1.391 . S
C1083 C1087 1.376 . S
C1084 C1082 1.394 . S
C1084 C1085 1.369 . S
C1084 C1088 1.531 . S
C1085 C1084 1.369 . S
C1085 C1086 1.410 . S
C1085 C1093 1.503 . S
C1086 C1085 1.410 . S
C1086 C1087 1.392 . S
C1086 C1089 1.511 1_655 S
C1087 C1083 1.376 . S
C1087 C1086 1.392 . S
C1087 H1099 0.929 . S
C1088 C1084 1.531 . S
C1088 H1100 0.960 . S
C1088 H1101 0.962 . S
C1088 H1102 0.960 . S
C1089 C1086 1.511 1_455 S
C1089 H1103 0.961 . S
C1089 H1104 0.961 . S
C1089 H1105 0.961 . S
C1090 C1091 1.370 . S
C1090 C1092 1.363 . S
C1090 H1106 0.931 . S
C1091 C1090 1.370 . S
C1091 C1095 1.408 1_655 S
C1092 C1090 1.363 . S
C1092 C1093 1.370 . S
C1092 C1096 1.524 . S
C1093 C1085 1.503 . S
C1093 C1092 1.370 . S
C1093 C1094 1.403 . S
C1094 C1093 1.403 . S
C1094 C1095 1.404 1_655 S
C1094 C1097 1.539 1_655 S
C1095 C1091 1.408 1_455 S
C1095 C1094 1.404 1_455 S
C1095 H1107 0.930 . S
C1096 C1092 1.524 . S
C1096 H1108 0.956 . S
C1096 H1109 0.961 . S
C1096 H1110 0.961 . S
C1097 C1094 1.539 1_455 S
C1097 H1111 0.958 . S
C1097 H1112 0.961 . S
C1097 H1113 0.960 . S
H1098 C1082 0.931 . S
H1099 C1087 0.929 . S
H1100 C1088 0.960 . S
H1101 C1088 0.962 . S
H1102 C1088 0.960 . S
H1103 C1089 0.961 . S
H1104 C1089 0.961 . S
H1105 C1089 0.961 . S
H1106 C1090 0.931 . S
H1107 C1095 0.930 . S
H1108 C1096 0.956 . S
H1109 C1096 0.961 . S
H1110 C1096 0.961 . S
H1111 C1097 0.958 . S
H1112 C1097 0.961 . S
H1113 C1097 0.960 . S
C1114 C1115 1.391 . S
C1114 C1116 1.394 . S
C1114 H1130 0.931 . S
C1115 C1114 1.391 . S
C1115 C1119 1.376 . S
C1116 C1114 1.394 . S
C1116 C1117 1.369 . S
C1116 C1120 1.531 . S
C1117 C1116 1.369 . S
C1117 C1118 1.410 . S
C1117 C1125 1.503 . S
C1118 C1117 1.410 . S
C1118 C1119 1.392 . S
C1118 C1121 1.511 . S
C1119 C1115 1.376 . S
C1119 C1118 1.392 . S
C1119 H1131 0.929 . S
C1120 C1116 1.531 . S
C1120 H1132 0.960 . S
C1120 H1133 0.962 . S
C1120 H1134 0.960 . S
C1121 C1118 1.511 . S
C1121 H1135 0.961 . S
C1121 H1136 0.961 . S
C1121 H1137 0.961 . S
C1122 C1123 1.370 . S
C1122 C1124 1.363 . S
C1122 H1138 0.931 . S
C1123 C1122 1.370 . S
C1123 C1127 1.408 . S
C1124 C1122 1.363 . S
C1124 C1125 1.370 . S
C1124 C1128 1.524 . S
C1125 C1117 1.503 . S
C1125 C1124 1.370 . S
C1125 C1126 1.403 . S
C1126 C1125 1.403 . S
C1126 C1127 1.404 . S
C1126 C1129 1.539 . S
C1127 C1123 1.408 . S
C1127 C1126 1.404 . S
C1127 H1139 0.930 . S
C1128 C1124 1.524 . S
C1128 H1140 0.956 . S
C1128 H1141 0.961 . S
C1128 H1142 0.961 . S
C1129 C1126 1.539 . S
C1129 H1143 0.958 . S
C1129 H1144 0.961 . S
C1129 H1145 0.960 . S
H1130 C1114 0.931 . S
H1131 C1119 0.929 . S
H1132 C1120 0.960 . S
H1133 C1120 0.962 . S
H1134 C1120 0.960 . S
H1135 C1121 0.961 . S
H1136 C1121 0.961 . S
H1137 C1121 0.961 . S
H1138 C1122 0.931 . S
H1139 C1127 0.930 . S
H1140 C1128 0.956 . S
H1141 C1128 0.961 . S
H1142 C1128 0.961 . S
H1143 C1129 0.958 . S
H1144 C1129 0.961 . S
H1145 C1129 0.960 . S
C1146 C1147 1.391 . S
C1146 C1148 1.394 . S
C1146 H1162 0.931 . S
C1147 C1146 1.391 . S
C1147 C1151 1.376 . S
C1148 C1146 1.394 . S
C1148 C1149 1.369 . S
C1148 C1152 1.531 . S
C1149 C1148 1.369 . S
C1149 C1150 1.410 . S
C1149 C1157 1.503 . S
C1150 C1149 1.410 . S
C1150 C1151 1.392 . S
C1150 C1153 1.511 . S
C1151 C1147 1.376 . S
C1151 C1150 1.392 . S
C1151 H1163 0.929 1_655 S
C1152 C1148 1.531 . S
C1152 H1164 0.960 . S
C1152 H1165 0.962 . S
C1152 H1166 0.960 . S
C1153 C1150 1.511 . S
C1153 H1167 0.961 1_655 S
C1153 H1168 0.961 . S
C1153 H1169 0.961 . S
C1154 C1155 1.370 . S
C1154 C1156 1.363 . S
C1154 H1170 0.931 . S
C1155 C1154 1.370 . S
C1155 C1159 1.408 . S
C1156 C1154 1.363 . S
C1156 C1157 1.370 . S
C1156 C1160 1.524 . S
C1157 C1149 1.503 . S
C1157 C1156 1.370 . S
C1157 C1158 1.403 . S
C1158 C1157 1.403 . S
C1158 C1159 1.404 . S
C1158 C1161 1.539 . S
C1159 C1155 1.408 . S
C1159 C1158 1.404 . S
C1159 H1171 0.930 . S
C1160 C1156 1.524 . S
C1160 H1172 0.956 . S
C1160 H1173 0.961 . S
C1160 H1174 0.961 . S
C1161 C1158 1.539 . S
C1161 H1175 0.958 . S
C1161 H1176 0.961 . S
C1161 H1177 0.960 . S
H1162 C1146 0.931 . S
H1163 C1151 0.929 1_455 S
H1164 C1152 0.960 . S
H1165 C1152 0.962 . S
H1166 C1152 0.960 . S
H1167 C1153 0.961 1_455 S
H1168 C1153 0.961 . S
H1169 C1153 0.961 . S
H1170 C1154 0.931 . S
H1171 C1159 0.930 . S
H1172 C1160 0.956 . S
H1173 C1160 0.961 . S
H1174 C1160 0.961 . S
H1175 C1161 0.958 . S
H1176 C1161 0.961 . S
H1177 C1161 0.960 . S
C1178 C1179 1.391 . S
C1178 C1180 1.394 . S
C1178 H1194 0.931 . S
C1179 C1178 1.391 . S
C1179 C1183 1.376 . S
C1180 C1178 1.394 . S
C1180 C1181 1.369 . S
C1180 C1184 1.531 . S
C1181 C1180 1.369 . S
C1181 C1182 1.410 . S
C1181 C1189 1.503 . S
C1182 C1181 1.410 . S
C1182 C1183 1.392 . S
C1182 C1185 1.511 . S
C1183 C1179 1.376 . S
C1183 C1182 1.392 . S
C1183 H1195 0.929 . S
C1184 C1180 1.531 . S
C1184 H1196 0.960 . S
C1184 H1197 0.962 . S
C1184 H1198 0.960 . S
C1185 C1182 1.511 . S
C1185 H1199 0.961 . S
C1185 H1200 0.961 . S
C1185 H1201 0.961 . S
C1186 C1187 1.370 . S
C1186 C1188 1.363 . S
C1186 H1202 0.931 . S
C1187 C1186 1.370 . S
C1187 C1191 1.408 . S
C1188 C1186 1.363 . S
C1188 C1189 1.370 . S
C1188 C1192 1.524 . S
C1189 C1181 1.503 . S
C1189 C1188 1.370 . S
C1189 C1190 1.403 . S
C1190 C1189 1.403 . S
C1190 C1191 1.404 . S
C1190 C1193 1.539 . S
C1191 C1187 1.408 . S
C1191 C1190 1.404 . S
C1191 H1203 0.930 . S
C1192 C1188 1.524 . S
C1192 H1204 0.956 . S
C1192 H1205 0.961 . S
C1192 H1206 0.961 . S
C1193 C1190 1.539 . S
C1193 H1207 0.958 . S
C1193 H1208 0.961 . S
C1193 H1209 0.960 . S
H1194 C1178 0.931 . S
H1195 C1183 0.929 . S
H1196 C1184 0.960 . S
H1197 C1184 0.962 . S
H1198 C1184 0.960 . S
H1199 C1185 0.961 . S
H1200 C1185 0.961 . S
H1201 C1185 0.961 . S
H1202 C1186 0.931 . S
H1203 C1191 0.930 . S
H1204 C1192 0.956 . S
H1205 C1192 0.961 . S
H1206 C1192 0.961 . S
H1207 C1193 0.958 . S
H1208 C1193 0.961 . S
H1209 C1193 0.960 . S
C1210 C1211 1.391 . S
C1210 C1212 1.394 . S
C1210 H1226 0.931 . S
C1211 C1210 1.391 . S
C1211 C1215 1.376 . S
C1212 C1210 1.394 . S
C1212 C1213 1.369 . S
C1212 C1216 1.531 . S
C1213 C1212 1.369 . S
C1213 C1214 1.410 . S
C1213 C1221 1.503 . S
C1214 C1213 1.410 . S
C1214 C1215 1.392 . S
C1214 C1217 1.511 . S
C1215 C1211 1.376 . S
C1215 C1214 1.392 . S
C1215 H1227 0.929 . S
C1216 C1212 1.531 . S
C1216 H1228 0.960 . S
C1216 H1229 0.962 . S
C1216 H1230 0.960 . S
C1217 C1214 1.511 . S
C1217 H1231 0.961 . S
C1217 H1232 0.961 . S
C1217 H1233 0.961 . S
C1218 C1219 1.370 . S
C1218 C1220 1.363 . S
C1218 H1234 0.931 . S
C1219 C1218 1.370 . S
C1219 C1223 1.408 . S
C1220 C1218 1.363 . S
C1220 C1221 1.370 . S
C1220 C1224 1.524 . S
C1221 C1213 1.503 . S
C1221 C1220 1.370 . S
C1221 C1222 1.403 . S
C1222 C1221 1.403 . S
C1222 C1223 1.404 . S
C1222 C1225 1.539 . S
C1223 C1219 1.408 . S
C1223 C1222 1.404 . S
C1223 H1235 0.930 . S
C1224 C1220 1.524 . S
C1224 H1236 0.956 . S
C1224 H1237 0.961 . S
C1224 H1238 0.961 . S
C1225 C1222 1.539 . S
C1225 H1239 0.958 . S
C1225 H1240 0.961 . S
C1225 H1241 0.960 . S
H1226 C1210 0.931 . S
H1227 C1215 0.929 . S
H1228 C1216 0.960 . S
H1229 C1216 0.962 . S
H1230 C1216 0.960 . S
H1231 C1217 0.961 . S
H1232 C1217 0.961 . S
H1233 C1217 0.961 . S
H1234 C1218 0.931 . S
H1235 C1223 0.930 . S
H1236 C1224 0.956 . S
H1237 C1224 0.961 . S
H1238 C1224 0.961 . S
H1239 C1225 0.958 . S
H1240 C1225 0.961 . S
H1241 C1225 0.960 . S
C1242 C1243 1.391 . S
C1242 C1244 1.394 . S
C1242 H1258 0.931 1_565 S
C1243 C1242 1.391 . S
C1243 C1247 1.376 . S
C1244 C1242 1.394 . S
C1244 C1245 1.369 . S
C1244 C1248 1.531 . S
C1245 C1244 1.369 . S
C1245 C1246 1.410 . S
C1245 C1253 1.503 . S
C1246 C1245 1.410 . S
C1246 C1247 1.392 . S
C1246 C1249 1.511 . S
C1247 C1243 1.376 . S
C1247 C1246 1.392 . S
C1247 H1259 0.929 . S
C1248 C1244 1.531 . S
C1248 H1260 0.960 . S
C1248 H1261 0.962 . S
C1248 H1262 0.960 1_565 S
C1249 C1246 1.511 . S
C1249 H1263 0.961 . S
C1249 H1264 0.961 . S
C1249 H1265 0.961 . S
C1250 C1251 1.370 . S
C1250 C1252 1.363 . S
C1250 H1266 0.931 . S
C1251 C1250 1.370 . S
C1251 C1255 1.408 . S
C1252 C1250 1.363 . S
C1252 C1253 1.370 . S
C1252 C1256 1.524 . S
C1253 C1245 1.503 . S
C1253 C1252 1.370 . S
C1253 C1254 1.403 . S
C1254 C1253 1.403 . S
C1254 C1255 1.404 . S
C1254 C1257 1.539 . S
C1255 C1251 1.408 . S
C1255 C1254 1.404 . S
C1255 H1267 0.930 . S
C1256 C1252 1.524 . S
C1256 H1268 0.956 . S
C1256 H1269 0.961 . S
C1256 H1270 0.961 . S
C1257 C1254 1.539 . S
C1257 H1271 0.958 1_565 S
C1257 H1272 0.961 . S
C1257 H1273 0.960 . S
H1258 C1242 0.931 1_545 S
H1259 C1247 0.929 . S
H1260 C1248 0.960 . S
H1261 C1248 0.962 . S
H1262 C1248 0.960 1_545 S
H1263 C1249 0.961 . S
H1264 C1249 0.961 . S
H1265 C1249 0.961 . S
H1266 C1250 0.931 . S
H1267 C1255 0.930 . S
H1268 C1256 0.956 . S
H1269 C1256 0.961 . S
H1270 C1256 0.961 . S
H1271 C1257 0.958 1_545 S
H1272 C1257 0.961 . S
H1273 C1257 0.960 . S
C1274 C1275 1.391 . S
C1274 C1276 1.394 . S
C1274 H1290 0.931 . S
C1275 C1274 1.391 . S
C1275 C1279 1.376 . S
C1276 C1274 1.394 . S
C1276 C1277 1.369 . S
C1276 C1280 1.531 . S
C1277 C1276 1.369 . S
C1277 C1278 1.410 . S
C1277 C1285 1.503 . S
C1278 C1277 1.410 . S
C1278 C1279 1.392 . S
C1278 C1281 1.511 . S
C1279 C1275 1.376 . S
C1279 C1278 1.392 . S
C1279 H1291 0.929 . S
C1280 C1276 1.531 . S
C1280 H1292 0.960 . S
C1280 H1293 0.962 . S
C1280 H1294 0.960 . S
C1281 C1278 1.511 . S
C1281 H1295 0.961 . S
C1281 H1296 0.961 . S
C1281 H1297 0.974 . S
C1282 C1283 1.370 . S
C1282 C1284 1.363 . S
C1282 H1298 0.931 . S
C1283 C1282 1.370 . S
C1283 C1287 1.408 . S
C1284 C1282 1.363 . S
C1284 C1285 1.370 . S
C1284 C1288 1.524 . S
C1285 C1277 1.503 . S
C1285 C1284 1.370 . S
C1285 C1286 1.403 . S
C1286 C1285 1.403 . S
C1286 C1287 1.404 . S
C1286 C1289 1.539 . S
C1287 C1283 1.408 . S
C1287 C1286 1.404 . S
C1287 H1299 0.930 . S
C1288 C1284 1.524 . S
C1288 H1300 0.956 . S
C1288 H1301 0.961 . S
C1288 H1302 0.961 . S
C1289 C1286 1.539 . S
C1289 H1303 0.958 . S
C1289 H1304 0.961 . S
C1289 H1305 0.960 . S
H1290 C1274 0.931 . S
H1291 C1279 0.929 . S
H1292 C1280 0.960 . S
H1293 C1280 0.962 . S
H1294 C1280 0.960 . S
H1295 C1281 0.961 . S
H1296 C1281 0.961 . S
H1297 C1281 0.974 . S
H1298 C1282 0.931 . S
H1299 C1287 0.930 . S
H1300 C1288 0.956 . S
H1301 C1288 0.961 . S
H1302 C1288 0.961 . S
H1303 C1289 0.958 . S
H1304 C1289 0.961 . S
H1305 C1289 0.960 . S
C1306 C1307 1.391 . S
C1306 C1308 1.394 . S
C1306 H1322 0.931 . S
C1307 C1306 1.391 . S
C1307 C1311 1.376 . S
C1308 C1306 1.394 . S
C1308 C1309 1.369 . S
C1308 C1312 1.531 . S
C1309 C1308 1.369 . S
C1309 C1310 1.410 . S
C1309 C1317 1.503 . S
C1310 C1309 1.410 . S
C1310 C1311 1.392 . S
C1310 C1313 1.511 . S
C1311 C1307 1.376 . S
C1311 C1310 1.392 . S
C1311 H1323 0.929 . S
C1312 C1308 1.531 . S
C1312 H1324 0.960 . S
C1312 H1325 0.962 . S
C1312 H1326 0.960 . S
C1313 C1310 1.511 . S
C1313 H1327 0.961 . S
C1313 H1328 0.961 . S
C1313 H1329 0.961 . S
C1314 C1315 1.370 . S
C1314 C1316 1.363 . S
C1314 H1330 0.931 . S
C1315 C1314 1.370 . S
C1315 C1319 1.408 . S
C1316 C1314 1.363 . S
C1316 C1317 1.370 . S
C1316 C1320 1.524 . S
C1317 C1309 1.503 . S
C1317 C1316 1.370 . S
C1317 C1318 1.403 . S
C1318 C1317 1.403 . S
C1318 C1319 1.404 . S
C1318 C1321 1.539 . S
C1319 C1315 1.408 . S
C1319 C1318 1.404 . S
C1319 H1331 0.930 . S
C1320 C1316 1.524 . S
C1320 H1332 0.956 . S
C1320 H1333 0.961 . S
C1320 H1334 0.961 . S
C1321 C1318 1.539 . S
C1321 H1335 0.958 . S
C1321 H1336 0.961 . S
C1321 H1337 0.960 . S
H1322 C1306 0.931 . S
H1323 C1311 0.929 . S
H1324 C1312 0.960 . S
H1325 C1312 0.962 . S
H1326 C1312 0.960 . S
H1327 C1313 0.961 . S
H1328 C1313 0.961 . S
H1329 C1313 0.961 . S
H1330 C1314 0.931 . S
H1331 C1319 0.930 . S
H1332 C1320 0.956 . S
H1333 C1320 0.961 . S
H1334 C1320 0.961 . S
H1335 C1321 0.958 . S
H1336 C1321 0.961 . S
H1337 C1321 0.960 . S
C1338 C1339 1.391 . S
C1338 C1340 1.394 . S
C1338 H1354 0.931 . S
C1339 C1338 1.391 . S
C1339 C1343 1.376 . S
C1340 C1338 1.394 . S
C1340 C1341 1.369 . S
C1340 C1344 1.531 . S
C1341 C1340 1.369 . S
C1341 C1342 1.410 . S
C1341 C1349 1.503 . S
C1342 C1341 1.410 . S
C1342 C1343 1.392 . S
C1342 C1345 1.511 . S
C1343 C1339 1.376 . S
C1343 C1342 1.392 . S
C1343 H1355 0.929 . S
C1344 C1340 1.531 . S
C1344 H1356 0.960 . S
C1344 H1357 0.962 . S
C1344 H1358 0.960 . S
C1345 C1342 1.511 . S
C1345 H1359 0.961 . S
C1345 H1360 0.961 . S
C1345 H1361 0.961 . S
C1346 C1347 1.370 . S
C1346 C1348 1.363 . S
C1346 H1362 0.931 . S
C1347 C1346 1.370 . S
C1347 C1351 1.408 . S
C1348 C1346 1.363 . S
C1348 C1349 1.370 . S
C1348 C1352 1.524 . S
C1349 C1341 1.503 . S
C1349 C1348 1.370 . S
C1349 C1350 1.403 . S
C1350 C1349 1.403 . S
C1350 C1351 1.404 . S
C1350 C1353 1.539 . S
C1351 C1347 1.408 . S
C1351 C1350 1.404 . S
C1351 H1363 0.930 . S
C1352 C1348 1.524 . S
C1352 H1364 0.956 . S
C1352 H1365 0.961 . S
C1352 H1366 0.961 . S
C1353 C1350 1.539 . S
C1353 H1367 0.958 . S
C1353 H1368 0.961 . S
C1353 H1369 0.960 . S
H1354 C1338 0.931 . S
H1355 C1343 0.929 . S
H1356 C1344 0.960 . S
H1357 C1344 0.962 . S
H1358 C1344 0.960 . S
H1359 C1345 0.961 . S
H1360 C1345 0.961 . S
H1361 C1345 0.961 . S
H1362 C1346 0.931 . S
H1363 C1351 0.930 . S
H1364 C1352 0.956 . S
H1365 C1352 0.961 . S
H1366 C1352 0.961 . S
H1367 C1353 0.958 . S
H1368 C1353 0.961 . S
H1369 C1353 0.960 . S
C1370 C1371 1.391 . S
C1370 C1372 1.394 . S
C1370 H1386 0.931 . S
C1371 C1370 1.391 . S
C1371 C1375 1.376 . S
C1372 C1370 1.394 . S
C1372 C1373 1.369 . S
C1372 C1376 1.531 1_545 S
C1373 C1372 1.369 . S
C1373 C1374 1.410 . S
C1373 C1381 1.503 . S
C1374 C1373 1.410 . S
C1374 C1375 1.392 . S
C1374 C1377 1.511 . S
C1375 C1371 1.376 . S
C1375 C1374 1.392 . S
C1375 H1387 0.929 . S
C1376 C1372 1.531 1_565 S
C1376 H1388 0.960 . S
C1376 H1389 0.962 . S
C1376 H1390 0.960 . S
C1377 C1374 1.511 . S
C1377 H1391 0.961 . S
C1377 H1392 0.961 . S
C1377 H1393 0.961 . S
C1378 C1379 1.370 . S
C1378 C1380 1.363 . S
C1378 H1394 0.931 . S
C1379 C1378 1.370 . S
C1379 C1383 1.408 . S
C1380 C1378 1.363 . S
C1380 C1381 1.370 1_565 S
C1380 C1384 1.524 . S
C1381 C1373 1.503 . S
C1381 C1380 1.370 1_545 S
C1381 C1382 1.403 . S
C1382 C1381 1.403 . S
C1382 C1383 1.404 1_545 S
C1382 C1385 1.539 . S
C1383 C1379 1.408 . S
C1383 C1382 1.404 1_565 S
C1383 H1395 0.930 . S
C1384 C1380 1.524 . S
C1384 H1396 0.956 . S
C1384 H1397 0.961 . S
C1384 H1398 0.961 . S
C1385 C1382 1.539 . S
C1385 H1399 0.958 . S
C1385 H1400 0.961 . S
C1385 H1401 0.960 . S
H1386 C1370 0.931 . S
H1387 C1375 0.929 . S
H1388 C1376 0.960 . S
H1389 C1376 0.962 . S
H1390 C1376 0.960 . S
H1391 C1377 0.961 . S
H1392 C1377 0.961 . S
H1393 C1377 0.961 . S
H1394 C1378 0.931 . S
H1395 C1383 0.930 . S
H1396 C1384 0.956 . S
H1397 C1384 0.961 . S
H1398 C1384 0.961 . S
H1399 C1385 0.958 . S
H1400 C1385 0.961 . S
H1401 C1385 0.960 . S
C1402 C1403 1.391 . S
C1402 C1404 1.394 . S
C1402 H1418 0.931 . S
C1403 C1402 1.391 . S
C1403 C1407 1.376 . S
C1404 C1402 1.394 . S
C1404 C1405 1.369 . S
C1404 C1408 1.531 . S
C1405 C1404 1.369 . S
C1405 C1406 1.410 . S
C1405 C1413 1.503 1_455 S
C1406 C1405 1.410 . S
C1406 C1407 1.392 . S
C1406 C1409 1.483 1_455 S
C1407 C1403 1.376 . S
C1407 C1406 1.392 . S
C1407 H1419 0.929 . S
C1408 C1404 1.531 . S
C1408 H1420 0.960 1_455 S
C1408 H1421 0.962 . S
C1408 H1422 0.960 . S
C1409 C1406 1.483 1_655 S
C1409 H1423 0.958 1_655 S
C1409 H1424 0.960 1_655 S
C1409 H1425 0.995 . S
C1410 C1411 1.370 1_455 S
C1410 C1412 1.363 . S
C1410 H1426 0.931 . S
C1411 C1410 1.370 1_655 S
C1411 C1415 1.408 . S
C1412 C1410 1.363 . S
C1412 C1413 1.370 1_455 S
C1412 C1416 1.524 . S
C1413 C1405 1.503 1_655 S
C1413 C1412 1.370 1_655 S
C1413 C1414 1.403 . S
C1414 C1413 1.403 . S
C1414 C1415 1.404 . S
C1414 C1417 1.539 . S
C1415 C1411 1.408 . S
C1415 C1414 1.404 . S
C1415 H1427 0.930 . S
C1416 C1412 1.524 . S
C1416 H1428 0.956 . S
C1416 H1429 0.961 . S
C1416 H1430 0.961 . S
C1417 C1414 1.539 . S
C1417 H1431 0.958 . S
C1417 H1432 0.961 . S
C1417 H1433 0.960 . S
H1418 C1402 0.931 . S
H1419 C1407 0.929 . S
H1420 C1408 0.960 1_655 S
H1421 C1408 0.962 . S
H1422 C1408 0.960 . S
H1423 C1409 0.958 1_455 S
H1424 C1409 0.960 1_455 S
H1425 C1409 0.995 . S
H1426 C1410 0.931 . S
H1427 C1415 0.930 . S
H1428 C1416 0.956 . S
H1429 C1416 0.961 . S
H1430 C1416 0.961 . S
H1431 C1417 0.958 . S
H1432 C1417 0.961 . S
H1433 C1417 0.960 . S
C1434 C1435 1.391 . S
C1434 C1436 1.394 . S
C1434 H1450 0.931 . S
C1435 C1434 1.391 . S
C1435 C1439 1.376 . S
C1436 C1434 1.394 . S
C1436 C1437 1.369 . S
C1436 C1440 1.531 . S
C1437 C1436 1.369 . S
C1437 C1438 1.410 . S
C1437 C1445 1.503 . S
C1438 C1437 1.410 . S
C1438 C1439 1.392 . S
C1438 C1441 1.511 . S
C1439 C1435 1.376 . S
C1439 C1438 1.392 . S
C1439 H1451 0.929 . S
C1440 C1436 1.531 . S
C1440 H1452 0.960 . S
C1440 H1453 0.962 . S
C1440 H1454 0.960 . S
C1441 C1438 1.511 . S
C1441 H1455 0.961 . S
C1441 H1456 0.961 . S
C1441 H1457 0.961 . S
C1442 C1443 1.370 . S
C1442 C1444 1.363 . S
C1442 H1458 0.931 . S
C1443 C1442 1.370 . S
C1443 C1447 1.408 . S
C1444 C1442 1.363 . S
C1444 C1445 1.370 . S
C1444 C1448 1.524 . S
C1445 C1437 1.503 . S
C1445 C1444 1.370 . S
C1445 C1446 1.403 . S
C1446 C1445 1.403 . S
C1446 C1447 1.404 . S
C1446 C1449 1.539 . S
C1447 C1443 1.408 . S
C1447 C1446 1.404 . S
C1447 H1459 0.930 . S
C1448 C1444 1.524 . S
C1448 H1460 0.956 . S
C1448 H1461 0.961 . S
C1448 H1462 0.961 . S
C1449 C1446 1.539 . S
C1449 H1463 0.958 . S
C1449 H1464 0.961 . S
C1449 H1465 0.960 . S
H1450 C1434 0.931 . S
H1451 C1439 0.929 . S
H1452 C1440 0.960 . S
H1453 C1440 0.962 . S
H1454 C1440 0.960 . S
H1455 C1441 0.961 . S
H1456 C1441 0.961 . S
H1457 C1441 0.961 . S
H1458 C1442 0.931 . S
H1459 C1447 0.930 . S
H1460 C1448 0.956 . S
H1461 C1448 0.961 . S
H1462 C1448 0.961 . S
H1463 C1449 0.958 . S
H1464 C1449 0.961 . S
H1465 C1449 0.960 . S
C1466 C1467 1.391 . S
C1466 C1468 1.394 . S
C1466 H1482 0.931 . S
C1467 C1466 1.391 . S
C1467 C1471 1.376 . S
C1468 C1466 1.394 . S
C1468 C1469 1.369 . S
C1468 C1472 1.531 . S
C1469 C1468 1.369 . S
C1469 C1470 1.410 . S
C1469 C1477 1.482 1_545 S
C1470 C1469 1.410 . S
C1470 C1471 1.392 . S
C1470 C1473 1.519 . S
C1471 C1467 1.376 . S
C1471 C1470 1.392 . S
C1471 H1483 0.929 . S
C1472 C1468 1.531 . S
C1472 H1484 0.960 . S
C1472 H1485 0.962 . S
C1472 H1486 0.960 . S
C1473 C1470 1.519 . S
C1473 H1487 0.961 1_545 S
C1473 H1488 0.926 1_545 S
C1473 H1489 0.988 . S
C1474 C1475 1.370 . S
C1474 C1476 1.363 . S
C1474 H1490 0.931 . S
C1475 C1474 1.370 . S
C1475 C1479 1.408 . S
C1476 C1474 1.363 . S
C1476 C1477 1.404 . S
C1476 C1480 1.524 . S
C1477 C1469 1.482 1_565 S
C1477 C1476 1.404 . S
C1477 C1478 1.391 1_565 S
C1478 C1477 1.391 1_545 S
C1478 C1479 1.404 1_545 S
C1478 C1481 1.539 . S
C1479 C1475 1.408 . S
C1479 C1478 1.404 1_565 S
C1479 H1491 0.930 . S
C1480 C1476 1.524 . S
C1480 H1492 0.956 . S
C1480 H1493 0.961 . S
C1480 H1494 0.961 . S
C1481 C1478 1.539 . S
C1481 H1495 0.958 . S
C1481 H1496 0.961 . S
C1481 H1497 0.960 . S
H1482 C1466 0.931 . S
H1483 C1471 0.929 . S
H1484 C1472 0.960 . S
H1485 C1472 0.962 . S
H1486 C1472 0.960 . S
H1487 C1473 0.961 1_565 S
H1488 C1473 0.926 1_565 S
H1489 C1473 0.988 . S
H1490 C1474 0.931 . S
H1491 C1479 0.930 . S
H1492 C1480 0.956 . S
H1493 C1480 0.961 . S
H1494 C1480 0.961 . S
H1495 C1481 0.958 . S
H1496 C1481 0.961 . S
H1497 C1481 0.960 . S
C1498 C1499 1.391 . S
C1498 C1500 1.394 . S
C1498 H1514 0.931 . S
C1499 C1498 1.391 . S
C1499 C1503 1.376 . S
C1500 C1498 1.394 . S
C1500 C1501 1.369 . S
C1500 C1504 1.531 . S
C1501 C1500 1.369 . S
C1501 C1502 1.410 . S
C1501 C1509 1.503 1_455 S
C1502 C1501 1.410 . S
C1502 C1503 1.392 . S
C1502 C1505 1.511 1_455 S
C1503 C1499 1.376 . S
C1503 C1502 1.392 . S
C1503 H1515 0.929 . S
C1504 C1500 1.531 . S
C1504 H1516 0.960 . S
C1504 H1517 0.962 . S
C1504 H1518 0.960 . S
C1505 C1502 1.511 1_655 S
C1505 H1519 0.961 . S
C1505 H1520 0.961 . S
C1505 H1521 0.961 . S
C1506 C1507 1.370 . S
C1506 C1508 1.363 . S
C1506 H1522 0.931 . S
C1507 C1506 1.370 . S
C1507 C1511 1.408 . S
C1508 C1506 1.363 . S
C1508 C1509 1.370 . S
C1508 C1512 1.524 1_655 S
C1509 C1501 1.503 1_655 S
C1509 C1508 1.370 . S
C1509 C1510 1.403 . S
C1510 C1509 1.403 . S
C1510 C1511 1.404 . S
C1510 C1513 1.539 . S
C1511 C1507 1.408 . S
C1511 C1510 1.404 . S
C1511 H1523 0.930 . S
C1512 C1508 1.524 1_455 S
C1512 H1524 0.956 . S
C1512 H1525 0.961 . S
C1512 H1526 0.961 . S
C1513 C1510 1.539 . S
C1513 H1527 0.958 . S
C1513 H1528 0.961 . S
C1513 H1529 0.960 . S
H1514 C1498 0.931 . S
H1515 C1503 0.929 . S
H1516 C1504 0.960 . S
H1517 C1504 0.962 . S
H1518 C1504 0.960 . S
H1519 C1505 0.961 . S
H1520 C1505 0.961 . S
H1521 C1505 0.961 . S
H1522 C1506 0.931 . S
H1523 C1511 0.930 . S
H1524 C1512 0.956 . S
H1525 C1512 0.961 . S
H1526 C1512 0.961 . S
H1527 C1513 0.958 . S
H1528 C1513 0.961 . S
H1529 C1513 0.960 . S
C1530 C1531 1.391 . S
C1530 C1532 1.394 . S
C1530 H1546 0.931 . S
C1531 C1530 1.391 . S
C1531 C1535 1.376 . S
C1532 C1530 1.394 . S
C1532 C1533 1.369 . S
C1532 C1536 1.531 . S
C1533 C1532 1.369 . S
C1533 C1534 1.410 . S
C1533 C1541 1.503 . S
C1534 C1533 1.410 . S
C1534 C1535 1.392 . S
C1534 C1537 1.511 . S
C1535 C1531 1.376 . S
C1535 C1534 1.392 . S
C1535 H1547 0.929 . S
C1536 C1532 1.531 . S
C1536 H1548 0.960 . S
C1536 H1549 0.962 . S
C1536 H1550 0.960 . S
C1537 C1534 1.511 . S
C1537 H1551 0.961 . S
C1537 H1552 0.961 . S
C1537 H1553 0.961 . S
C1538 C1539 1.370 . S
C1538 C1540 1.363 . S
C1538 H1554 0.931 . S
C1539 C1538 1.370 . S
C1539 C1543 1.408 . S
C1540 C1538 1.363 . S
C1540 C1541 1.370 . S
C1540 C1544 1.524 . S
C1541 C1533 1.503 . S
C1541 C1540 1.370 . S
C1541 C1542 1.403 . S
C1542 C1541 1.403 . S
C1542 C1543 1.404 . S
C1542 C1545 1.539 . S
C1543 C1539 1.408 . S
C1543 C1542 1.404 . S
C1543 H1555 0.930 . S
C1544 C1540 1.524 . S
C1544 H1556 0.956 . S
C1544 H1557 0.961 . S
C1544 H1558 0.961 . S
C1545 C1542 1.539 . S
C1545 H1559 0.958 . S
C1545 H1560 0.961 . S
C1545 H1561 0.960 . S
H1546 C1530 0.931 . S
H1547 C1535 0.929 . S
H1548 C1536 0.960 . S
H1549 C1536 0.962 . S
H1550 C1536 0.960 . S
H1551 C1537 0.961 . S
H1552 C1537 0.961 . S
H1553 C1537 0.961 . S
H1554 C1538 0.931 . S
H1555 C1543 0.930 . S
H1556 C1544 0.956 . S
H1557 C1544 0.961 . S
H1558 C1544 0.961 . S
H1559 C1545 0.958 . S
H1560 C1545 0.961 . S
H1561 C1545 0.960 . S
C1562 C1563 1.391 . S
C1562 C1564 1.394 . S
C1562 H1578 0.931 . S
C1563 C1562 1.391 . S
C1563 C1567 1.376 . S
C1564 C1562 1.394 . S
C1564 C1565 1.369 . S
C1564 C1568 1.531 . S
C1565 C1564 1.369 . S
C1565 C1566 1.410 . S
C1565 C1573 1.503 . S
C1566 C1565 1.410 . S
C1566 C1567 1.392 . S
C1566 C1569 1.511 . S
C1567 C1563 1.376 . S
C1567 C1566 1.392 . S
C1567 H1579 0.929 . S
C1568 C1564 1.531 . S
C1568 H1580 0.960 . S
C1568 H1581 0.962 . S
C1568 H1582 0.960 . S
C1569 C1566 1.511 . S
C1569 H1583 0.961 . S
C1569 H1584 0.961 . S
C1569 H1585 0.961 . S
C1570 C1571 1.370 . S
C1570 C1572 1.363 . S
C1570 H1586 0.931 . S
C1571 C1570 1.370 . S
C1571 C1575 1.408 . S
C1572 C1570 1.363 . S
C1572 C1573 1.370 . S
C1572 C1576 1.524 . S
C1573 C1565 1.503 . S
C1573 C1572 1.370 . S
C1573 C1574 1.403 . S
C1574 C1573 1.403 . S
C1574 C1575 1.404 . S
C1574 C1577 1.539 . S
C1575 C1571 1.408 . S
C1575 C1574 1.404 . S
C1575 H1587 0.930 . S
C1576 C1572 1.524 . S
C1576 H1588 0.956 . S
C1576 H1589 0.961 . S
C1576 H1590 0.961 . S
C1577 C1574 1.539 . S
C1577 H1591 0.958 . S
C1577 H1592 0.961 . S
C1577 H1593 0.960 . S
H1578 C1562 0.931 . S
H1579 C1567 0.929 . S
H1580 C1568 0.960 . S
H1581 C1568 0.962 . S
H1582 C1568 0.960 . S
H1583 C1569 0.961 . S
H1584 C1569 0.961 . S
H1585 C1569 0.961 . S
H1586 C1570 0.931 . S
H1587 C1575 0.930 . S
H1588 C1576 0.956 . S
H1589 C1576 0.961 . S
H1590 C1576 0.961 . S
H1591 C1577 0.958 . S
H1592 C1577 0.961 . S
H1593 C1577 0.960 . S
C1594 C1595 1.391 . S
C1594 C1596 1.394 . S
C1594 H1610 0.931 . S
C1595 C1594 1.391 . S
C1595 C1599 1.376 . S
C1596 C1594 1.394 . S
C1596 C1597 1.369 . S
C1596 C1600 1.531 . S
C1597 C1596 1.369 . S
C1597 C1598 1.410 . S
C1597 C1605 1.503 . S
C1598 C1597 1.410 . S
C1598 C1599 1.392 . S
C1598 C1601 1.511 . S
C1599 C1595 1.376 . S
C1599 C1598 1.392 . S
C1599 H1611 0.929 . S
C1600 C1596 1.531 . S
C1600 H1612 0.960 . S
C1600 H1613 0.962 . S
C1600 H1614 0.960 . S
C1601 C1598 1.511 . S
C1601 H1615 0.961 . S
C1601 H1616 0.961 . S
C1601 H1617 0.961 . S
C1602 C1603 1.370 . S
C1602 C1604 1.363 . S
C1602 H1618 0.931 . S
C1603 C1602 1.370 . S
C1603 C1607 1.408 . S
C1604 C1602 1.363 . S
C1604 C1605 1.370 . S
C1604 C1608 1.524 . S
C1605 C1597 1.503 . S
C1605 C1604 1.370 . S
C1605 C1606 1.403 . S
C1606 C1605 1.403 . S
C1606 C1607 1.404 . S
C1606 C1609 1.539 . S
C1607 C1603 1.408 . S
C1607 C1606 1.404 . S
C1607 H1619 0.930 . S
C1608 C1604 1.524 . S
C1608 H1620 0.956 . S
C1608 H1621 0.961 . S
C1608 H1622 0.961 . S
C1609 C1606 1.539 . S
C1609 H1623 0.958 . S
C1609 H1624 0.961 . S
C1609 H1625 0.960 . S
H1610 C1594 0.931 . S
H1611 C1599 0.929 . S
H1612 C1600 0.960 . S
H1613 C1600 0.962 . S
H1614 C1600 0.960 . S
H1615 C1601 0.961 . S
H1616 C1601 0.961 . S
H1617 C1601 0.961 . S
H1618 C1602 0.931 . S
H1619 C1607 0.930 . S
H1620 C1608 0.956 . S
H1621 C1608 0.961 . S
H1622 C1608 0.961 . S
H1623 C1609 0.958 . S
H1624 C1609 0.961 . S
H1625 C1609 0.960 . S
C1626 C1627 1.391 . S
C1626 C1628 1.394 . S
C1626 H1642 0.931 . S
C1627 C1626 1.391 . S
C1627 C1631 1.376 . S
C1628 C1626 1.394 . S
C1628 C1629 1.369 . S
C1628 C1632 1.531 . S
C1629 C1628 1.369 . S
C1629 C1630 1.410 . S
C1629 C1637 1.503 . S
C1630 C1629 1.410 . S
C1630 C1631 1.392 . S
C1630 C1633 1.511 . S
C1631 C1627 1.376 . S
C1631 C1630 1.392 . S
C1631 H1643 0.929 . S
C1632 C1628 1.531 . S
C1632 H1644 0.960 . S
C1632 H1645 0.962 . S
C1632 H1646 0.960 . S
C1633 C1630 1.511 . S
C1633 H1647 0.961 . S
C1633 H1648 0.961 . S
C1633 H1649 0.961 . S
C1634 C1635 1.370 . S
C1634 C1636 1.363 . S
C1634 H1650 0.931 . S
C1635 C1634 1.370 . S
C1635 C1639 1.408 . S
C1636 C1634 1.363 . S
C1636 C1637 1.370 . S
C1636 C1640 1.524 . S
C1637 C1629 1.503 . S
C1637 C1636 1.370 . S
C1637 C1638 1.403 . S
C1638 C1637 1.403 . S
C1638 C1639 1.404 . S
C1638 C1641 1.539 . S
C1639 C1635 1.408 . S
C1639 C1638 1.404 . S
C1639 H1651 0.930 . S
C1640 C1636 1.524 . S
C1640 H1652 0.956 . S
C1640 H1653 0.961 . S
C1640 H1654 0.961 . S
C1641 C1638 1.539 . S
C1641 H1655 0.958 . S
C1641 H1656 0.961 . S
C1641 H1657 0.960 . S
H1642 C1626 0.931 . S
H1643 C1631 0.929 . S
H1644 C1632 0.960 . S
H1645 C1632 0.962 . S
H1646 C1632 0.960 . S
H1647 C1633 0.961 . S
H1648 C1633 0.961 . S
H1649 C1633 0.961 . S
H1650 C1634 0.931 . S
H1651 C1639 0.930 . S
H1652 C1640 0.956 . S
H1653 C1640 0.961 . S
H1654 C1640 0.961 . S
H1655 C1641 0.958 . S
H1656 C1641 0.961 . S
H1657 C1641 0.960 . S
C1658 C1659 1.391 . S
C1658 C1660 1.394 . S
C1658 H1674 0.931 . S
C1659 C1658 1.391 . S
C1659 C1663 1.376 . S
C1660 C1658 1.394 . S
C1660 C1661 1.369 . S
C1660 C1664 1.531 . S
C1661 C1660 1.369 . S
C1661 C1662 1.410 . S
C1661 C1669 1.503 . S
C1662 C1661 1.410 . S
C1662 C1663 1.392 . S
C1662 C1665 1.511 . S
C1663 C1659 1.376 . S
C1663 C1662 1.392 . S
C1663 H1675 0.929 . S
C1664 C1660 1.531 . S
C1664 H1676 0.960 . S
C1664 H1677 0.962 . S
C1664 H1678 0.960 . S
C1665 C1662 1.511 . S
C1665 H1679 0.961 . S
C1665 H1680 0.961 . S
C1665 H1681 0.961 . S
C1666 C1667 1.370 . S
C1666 C1668 1.363 . S
C1666 H1682 0.931 . S
C1667 C1666 1.370 . S
C1667 C1671 1.408 . S
C1668 C1666 1.363 . S
C1668 C1669 1.370 . S
C1668 C1672 1.524 . S
C1669 C1661 1.503 . S
C1669 C1668 1.370 . S
C1669 C1670 1.403 . S
C1670 C1669 1.403 . S
C1670 C1671 1.404 . S
C1670 C1673 1.539 . S
C1671 C1667 1.408 . S
C1671 C1670 1.404 . S
C1671 H1683 0.930 . S
C1672 C1668 1.524 . S
C1672 H1684 0.956 . S
C1672 H1685 0.961 . S
C1672 H1686 0.961 . S
C1673 C1670 1.539 . S
C1673 H1687 0.958 . S
C1673 H1688 0.961 . S
C1673 H1689 0.960 . S
H1674 C1658 0.931 . S
H1675 C1663 0.929 . S
H1676 C1664 0.960 . S
H1677 C1664 0.962 . S
H1678 C1664 0.960 . S
H1679 C1665 0.961 . S
H1680 C1665 0.961 . S
H1681 C1665 0.961 . S
H1682 C1666 0.931 . S
H1683 C1671 0.930 . S
H1684 C1672 0.956 . S
H1685 C1672 0.961 . S
H1686 C1672 0.961 . S
H1687 C1673 0.958 . S
H1688 C1673 0.961 . S
H1689 C1673 0.960 . S
C1690 C1691 1.391 . S
C1690 C1692 1.394 . S
C1690 H1706 0.931 . S
C1691 C1690 1.391 . S
C1691 C1695 1.376 . S
C1692 C1690 1.394 . S
C1692 C1693 1.369 . S
C1692 C1696 1.531 . S
C1693 C1692 1.369 . S
C1693 C1694 1.410 . S
C1693 C1701 1.503 . S
C1694 C1693 1.410 . S
C1694 C1695 1.392 . S
C1694 C1697 1.511 . S
C1695 C1691 1.376 . S
C1695 C1694 1.392 . S
C1695 H1707 0.929 . S
C1696 C1692 1.531 . S
C1696 H1708 0.960 . S
C1696 H1709 0.962 . S
C1696 H1710 0.960 . S
C1697 C1694 1.511 . S
C1697 H1711 0.961 . S
C1697 H1712 0.961 . S
C1697 H1713 0.961 . S
C1698 C1699 1.370 . S
C1698 C1700 1.363 . S
C1698 H1714 0.931 . S
C1699 C1698 1.370 . S
C1699 C1703 1.408 . S
C1700 C1698 1.363 . S
C1700 C1701 1.370 . S
C1700 C1704 1.524 . S
C1701 C1693 1.503 . S
C1701 C1700 1.370 . S
C1701 C1702 1.403 . S
C1702 C1701 1.403 . S
C1702 C1703 1.404 . S
C1702 C1705 1.539 . S
C1703 C1699 1.408 . S
C1703 C1702 1.404 . S
C1703 H1715 0.930 . S
C1704 C1700 1.524 . S
C1704 H1716 0.956 . S
C1704 H1717 0.961 . S
C1704 H1718 0.961 . S
C1705 C1702 1.539 . S
C1705 H1719 0.958 . S
C1705 H1720 0.961 . S
C1705 H1721 0.960 . S
H1706 C1690 0.931 . S
H1707 C1695 0.929 . S
H1708 C1696 0.960 . S
H1709 C1696 0.962 . S
H1710 C1696 0.960 . S
H1711 C1697 0.961 . S
H1712 C1697 0.961 . S
H1713 C1697 0.961 . S
H1714 C1698 0.931 . S
H1715 C1703 0.930 . S
H1716 C1704 0.956 . S
H1717 C1704 0.961 . S
H1718 C1704 0.961 . S
H1719 C1705 0.958 . S
H1720 C1705 0.961 . S
H1721 C1705 0.960 . S
C1722 C1723 1.391 . S
C1722 C1724 1.394 . S
C1722 H1738 0.931 . S
C1723 C1722 1.391 . S
C1723 C1727 1.376 . S
C1724 C1722 1.394 . S
C1724 C1725 1.369 . S
C1724 C1728 1.531 . S
C1725 C1724 1.369 . S
C1725 C1726 1.410 . S
C1725 C1733 1.503 . S
C1726 C1725 1.410 . S
C1726 C1727 1.392 . S
C1726 C1729 1.511 . S
C1727 C1723 1.376 . S
C1727 C1726 1.392 . S
C1727 H1739 0.929 . S
C1728 C1724 1.531 . S
C1728 H1740 0.960 . S
C1728 H1741 0.962 . S
C1728 H1742 0.960 . S
C1729 C1726 1.511 . S
C1729 H1743 0.961 . S
C1729 H1744 0.961 . S
C1729 H1745 0.961 . S
C1730 C1731 1.370 . S
C1730 C1732 1.363 . S
C1730 H1746 0.931 . S
C1731 C1730 1.370 . S
C1731 C1735 1.408 . S
C1732 C1730 1.363 . S
C1732 C1733 1.370 . S
C1732 C1736 1.524 . S
C1733 C1725 1.503 . S
C1733 C1732 1.370 . S
C1733 C1734 1.403 . S
C1734 C1733 1.403 . S
C1734 C1735 1.404 . S
C1734 C1737 1.539 . S
C1735 C1731 1.408 . S
C1735 C1734 1.404 . S
C1735 H1747 0.930 . S
C1736 C1732 1.524 . S
C1736 H1748 0.956 . S
C1736 H1749 0.961 . S
C1736 H1750 0.961 . S
C1737 C1734 1.539 . S
C1737 H1751 0.958 . S
C1737 H1752 0.961 . S
C1737 H1753 0.960 . S
H1738 C1722 0.931 . S
H1739 C1727 0.929 . S
H1740 C1728 0.960 . S
H1741 C1728 0.962 . S
H1742 C1728 0.960 . S
H1743 C1729 0.961 . S
H1744 C1729 0.961 . S
H1745 C1729 0.961 . S
H1746 C1730 0.931 . S
H1747 C1735 0.930 . S
H1748 C1736 0.956 . S
H1749 C1736 0.961 . S
H1750 C1736 0.961 . S
H1751 C1737 0.958 . S
H1752 C1737 0.961 . S
H1753 C1737 0.960 . S
C1754 C1755 1.391 . S
C1754 C1756 1.394 . S
C1754 H1770 0.931 . S
C1755 C1754 1.391 . S
C1755 C1759 1.376 . S
C1756 C1754 1.394 . S
C1756 C1757 1.369 . S
C1756 C1760 1.531 . S
C1757 C1756 1.369 . S
C1757 C1758 1.410 . S
C1757 C1765 1.503 . S
C1758 C1757 1.410 . S
C1758 C1759 1.392 . S
C1758 C1761 1.511 . S
C1759 C1755 1.376 . S
C1759 C1758 1.392 . S
C1759 H1771 0.929 . S
C1760 C1756 1.531 . S
C1760 H1772 0.960 . S
C1760 H1773 0.962 . S
C1760 H1774 0.960 . S
C1761 C1758 1.511 . S
C1761 H1775 0.961 . S
C1761 H1776 0.961 . S
C1761 H1777 0.961 . S
C1762 C1763 1.370 . S
C1762 C1764 1.363 . S
C1762 H1778 0.931 . S
C1763 C1762 1.370 . S
C1763 C1767 1.408 . S
C1764 C1762 1.363 . S
C1764 C1765 1.370 . S
C1764 C1768 1.524 . S
C1765 C1757 1.503 . S
C1765 C1764 1.370 . S
C1765 C1766 1.403 . S
C1766 C1765 1.403 . S
C1766 C1767 1.404 . S
C1766 C1769 1.539 . S
C1767 C1763 1.408 . S
C1767 C1766 1.404 . S
C1767 H1779 0.930 . S
C1768 C1764 1.524 . S
C1768 H1780 0.956 . S
C1768 H1781 0.961 . S
C1768 H1782 0.961 . S
C1769 C1766 1.539 . S
C1769 H1783 0.958 . S
C1769 H1784 0.961 . S
C1769 H1785 0.960 . S
H1770 C1754 0.931 . S
H1771 C1759 0.929 . S
H1772 C1760 0.960 . S
H1773 C1760 0.962 . S
H1774 C1760 0.960 . S
H1775 C1761 0.961 . S
H1776 C1761 0.961 . S
H1777 C1761 0.961 . S
H1778 C1762 0.931 . S
H1779 C1767 0.930 . S
H1780 C1768 0.956 . S
H1781 C1768 0.961 . S
H1782 C1768 0.961 . S
H1783 C1769 0.958 . S
H1784 C1769 0.961 . S
H1785 C1769 0.960 . S
C1786 C1787 1.391 . S
C1786 C1788 1.394 . S
C1786 H1802 0.931 . S
C1787 C1786 1.391 . S
C1787 C1791 1.376 . S
C1788 C1786 1.394 . S
C1788 C1789 1.369 . S
C1788 C1792 1.531 . S
C1789 C1788 1.369 . S
C1789 C1790 1.410 . S
C1789 C1797 1.503 . S
C1790 C1789 1.410 . S
C1790 C1791 1.392 . S
C1790 C1793 1.511 . S
C1791 C1787 1.376 . S
C1791 C1790 1.392 . S
C1791 H1803 0.929 . S
C1792 C1788 1.531 . S
C1792 H1804 0.960 . S
C1792 H1805 0.962 . S
C1792 H1806 0.960 . S
C1793 C1790 1.511 . S
C1793 H1807 0.961 . S
C1793 H1808 0.961 . S
C1793 H1809 0.961 . S
C1794 C1795 1.370 . S
C1794 C1796 1.363 . S
C1794 H1810 0.931 . S
C1795 C1794 1.370 . S
C1795 C1799 1.408 . S
C1796 C1794 1.363 . S
C1796 C1797 1.370 . S
C1796 C1800 1.524 . S
C1797 C1789 1.503 . S
C1797 C1796 1.370 . S
C1797 C1798 1.403 . S
C1798 C1797 1.403 . S
C1798 C1799 1.404 . S
C1798 C1801 1.539 . S
C1799 C1795 1.408 . S
C1799 C1798 1.404 . S
C1799 H1811 0.930 . S
C1800 C1796 1.524 . S
C1800 H1812 0.956 . S
C1800 H1813 0.961 . S
C1800 H1814 0.961 . S
C1801 C1798 1.539 . S
C1801 H1815 0.958 . S
C1801 H1816 0.961 . S
C1801 H1817 0.960 . S
H1802 C1786 0.931 . S
H1803 C1791 0.929 . S
H1804 C1792 0.960 . S
H1805 C1792 0.962 . S
H1806 C1792 0.960 . S
H1807 C1793 0.961 . S
H1808 C1793 0.961 . S
H1809 C1793 0.961 . S
H1810 C1794 0.931 . S
H1811 C1799 0.930 . S
H1812 C1800 0.956 . S
H1813 C1800 0.961 . S
H1814 C1800 0.961 . S
H1815 C1801 0.958 . S
H1816 C1801 0.961 . S
H1817 C1801 0.960 . S
C1818 C1819 1.391 . S
C1818 C1820 1.394 . S
C1818 H1834 0.931 . S
C1819 C1818 1.391 . S
C1819 C1823 1.376 . S
C1820 C1818 1.394 . S
C1820 C1821 1.369 . S
C1820 C1824 1.531 . S
C1821 C1820 1.369 . S
C1821 C1822 1.410 . S
C1821 C1829 1.503 . S
C1822 C1821 1.410 . S
C1822 C1823 1.392 . S
C1822 C1825 1.511 . S
C1823 C1819 1.376 . S
C1823 C1822 1.392 . S
C1823 H1835 0.929 . S
C1824 C1820 1.531 . S
C1824 H1836 0.960 . S
C1824 H1837 0.962 . S
C1824 H1838 0.960 . S
C1825 C1822 1.511 . S
C1825 H1839 0.961 . S
C1825 H1840 0.961 . S
C1825 H1841 0.961 . S
C1826 C1827 1.370 . S
C1826 C1828 1.363 . S
C1826 H1842 0.931 . S
C1827 C1826 1.370 . S
C1827 C1831 1.408 . S
C1828 C1826 1.363 . S
C1828 C1829 1.370 . S
C1828 C1832 1.524 . S
C1829 C1821 1.503 . S
C1829 C1828 1.370 . S
C1829 C1830 1.403 . S
C1830 C1829 1.403 . S
C1830 C1831 1.404 . S
C1830 C1833 1.539 . S
C1831 C1827 1.408 . S
C1831 C1830 1.404 . S
C1831 H1843 0.930 . S
C1832 C1828 1.524 . S
C1832 H1844 0.956 . S
C1832 H1845 0.961 . S
C1832 H1846 0.961 . S
C1833 C1830 1.539 . S
C1833 H1847 0.958 . S
C1833 H1848 0.961 . S
C1833 H1849 0.960 . S
H1834 C1818 0.931 . S
H1835 C1823 0.929 . S
H1836 C1824 0.960 . S
H1837 C1824 0.962 . S
H1838 C1824 0.960 . S
H1839 C1825 0.961 . S
H1840 C1825 0.961 . S
H1841 C1825 0.961 . S
H1842 C1826 0.931 . S
H1843 C1831 0.930 . S
H1844 C1832 0.956 . S
H1845 C1832 0.961 . S
H1846 C1832 0.961 . S
H1847 C1833 0.958 . S
H1848 C1833 0.961 . S
H1849 C1833 0.960 . S
C1850 C1851 1.391 . S
C1850 C1852 1.394 . S
C1850 H1866 0.931 . S
C1851 C1850 1.391 . S
C1851 C1855 1.376 . S
C1852 C1850 1.394 . S
C1852 C1853 1.369 . S
C1852 C1856 1.531 . S
C1853 C1852 1.369 . S
C1853 C1854 1.410 . S
C1853 C1861 1.503 . S
C1854 C1853 1.410 . S
C1854 C1855 1.392 . S
C1854 C1857 1.511 . S
C1855 C1851 1.376 . S
C1855 C1854 1.392 . S
C1855 H1867 0.929 . S
C1856 C1852 1.531 . S
C1856 H1868 0.960 . S
C1856 H1869 0.962 . S
C1856 H1870 0.960 . S
C1857 C1854 1.511 . S
C1857 H1871 0.961 . S
C1857 H1872 0.961 . S
C1857 H1873 0.961 . S
C1858 C1859 1.370 . S
C1858 C1860 1.363 . S
C1858 H1874 0.931 . S
C1859 C1858 1.370 . S
C1859 C1863 1.408 . S
C1860 C1858 1.363 . S
C1860 C1861 1.370 . S
C1860 C1864 1.524 . S
C1861 C1853 1.503 . S
C1861 C1860 1.370 . S
C1861 C1862 1.403 . S
C1862 C1861 1.403 . S
C1862 C1863 1.404 . S
C1862 C1865 1.539 . S
C1863 C1859 1.408 . S
C1863 C1862 1.404 . S
C1863 H1875 0.930 . S
C1864 C1860 1.524 . S
C1864 H1876 0.956 . S
C1864 H1877 0.961 . S
C1864 H1878 0.961 . S
C1865 C1862 1.539 . S
C1865 H1879 0.958 . S
C1865 H1880 0.961 . S
C1865 H1881 0.960 . S
H1866 C1850 0.931 . S
H1867 C1855 0.929 . S
H1868 C1856 0.960 . S
H1869 C1856 0.962 . S
H1870 C1856 0.960 . S
H1871 C1857 0.961 . S
H1872 C1857 0.961 . S
H1873 C1857 0.961 . S
H1874 C1858 0.931 . S
H1875 C1863 0.930 . S
H1876 C1864 0.956 . S
H1877 C1864 0.961 . S
H1878 C1864 0.961 . S
H1879 C1865 0.958 . S
H1880 C1865 0.961 . S
H1881 C1865 0.960 . S
C1882 C1883 1.391 . S
C1882 C1884 1.394 . S
C1882 H1898 0.931 . S
C1883 C1882 1.391 . S
C1883 C1887 1.376 . S
C1884 C1882 1.394 . S
C1884 C1885 1.369 . S
C1884 C1888 1.531 . S
C1885 C1884 1.369 . S
C1885 C1886 1.410 . S
C1885 C1893 1.503 . S
C1886 C1885 1.410 . S
C1886 C1887 1.392 . S
C1886 C1889 1.511 . S
C1887 C1883 1.376 . S
C1887 C1886 1.392 . S
C1887 H1899 0.929 . S
C1888 C1884 1.531 . S
C1888 H1900 0.960 . S
C1888 H1901 0.962 . S
C1888 H1902 0.960 . S
C1889 C1886 1.511 . S
C1889 H1903 0.961 . S
C1889 H1904 0.961 . S
C1889 H1905 0.961 . S
C1890 C1891 1.370 . S
C1890 C1892 1.363 . S
C1890 H1906 0.931 . S
C1891 C1890 1.370 . S
C1891 C1895 1.408 . S
C1892 C1890 1.363 . S
C1892 C1893 1.370 . S
C1892 C1896 1.524 . S
C1893 C1885 1.503 . S
C1893 C1892 1.370 . S
C1893 C1894 1.403 . S
C1894 C1893 1.403 . S
C1894 C1895 1.404 . S
C1894 C1897 1.539 . S
C1895 C1891 1.408 . S
C1895 C1894 1.404 . S
C1895 H1907 0.930 . S
C1896 C1892 1.524 . S
C1896 H1908 0.956 . S
C1896 H1909 0.961 . S
C1896 H1910 0.961 . S
C1897 C1894 1.539 . S
C1897 H1911 0.958 . S
C1897 H1912 0.961 . S
C1897 H1913 0.960 . S
H1898 C1882 0.931 . S
H1899 C1887 0.929 . S
H1900 C1888 0.960 . S
H1901 C1888 0.962 . S
H1902 C1888 0.960 . S
H1903 C1889 0.961 . S
H1904 C1889 0.961 . S
H1905 C1889 0.961 . S
H1906 C1890 0.931 . S
H1907 C1895 0.930 . S
H1908 C1896 0.956 . S
H1909 C1896 0.961 . S
H1910 C1896 0.961 . S
H1911 C1897 0.958 . S
H1912 C1897 0.961 . S
H1913 C1897 0.960 . S
C1914 C1915 1.391 . S
C1914 C1916 1.394 . S
C1914 H1930 0.931 . S
C1915 C1914 1.391 . S
C1915 C1919 1.376 . S
C1916 C1914 1.394 . S
C1916 C1917 1.369 . S
C1916 C1920 1.531 . S
C1917 C1916 1.369 . S
C1917 C1918 1.410 . S
C1917 C1925 1.503 . S
C1918 C1917 1.410 . S
C1918 C1919 1.392 . S
C1918 C1921 1.511 . S
C1919 C1915 1.376 . S
C1919 C1918 1.392 . S
C1919 H1931 0.929 . S
C1920 C1916 1.531 . S
C1920 H1932 0.960 . S
C1920 H1933 0.962 . S
C1920 H1934 0.960 . S
C1921 C1918 1.511 . S
C1921 H1935 0.961 . S
C1921 H1936 0.961 . S
C1921 H1937 0.961 . S
C1922 C1923 1.370 . S
C1922 C1924 1.363 . S
C1922 H1938 0.931 . S
C1923 C1922 1.370 . S
C1923 C1927 1.408 . S
C1924 C1922 1.363 . S
C1924 C1925 1.370 . S
C1924 C1928 1.524 . S
C1925 C1917 1.503 . S
C1925 C1924 1.370 . S
C1925 C1926 1.403 . S
C1926 C1925 1.403 . S
C1926 C1927 1.404 . S
C1926 C1929 1.539 . S
C1927 C1923 1.408 . S
C1927 C1926 1.404 . S
C1927 H1939 0.930 . S
C1928 C1924 1.524 . S
C1928 H1940 0.956 . S
C1928 H1941 0.961 . S
C1928 H1942 0.961 . S
C1929 C1926 1.539 . S
C1929 H1943 0.958 . S
C1929 H1944 0.961 . S
C1929 H1945 0.960 . S
H1930 C1914 0.931 . S
H1931 C1919 0.929 . S
H1932 C1920 0.960 . S
H1933 C1920 0.962 . S
H1934 C1920 0.960 . S
H1935 C1921 0.961 . S
H1936 C1921 0.961 . S
H1937 C1921 0.961 . S
H1938 C1922 0.931 . S
H1939 C1927 0.930 . S
H1940 C1928 0.956 . S
H1941 C1928 0.961 . S
H1942 C1928 0.961 . S
H1943 C1929 0.958 . S
H1944 C1929 0.961 . S
H1945 C1929 0.960 . S
C1946 C1947 1.386 1_565 S
C1946 C1948 1.394 . S
C1946 H1962 0.931 . S
C1947 C1946 1.386 1_545 S
C1947 C1951 1.383 . S
C1948 C1946 1.394 . S
C1948 C1949 1.369 . S
C1948 C1952 1.531 . S
C1949 C1948 1.369 . S
C1949 C1950 1.410 . S
C1949 C1957 1.503 . S
C1950 C1949 1.410 . S
C1950 C1951 1.392 1_565 S
C1950 C1953 1.511 1_565 S
C1951 C1947 1.383 . S
C1951 C1950 1.392 1_545 S
C1951 H1963 0.929 . S
C1952 C1948 1.531 . S
C1952 H1964 0.960 . S
C1952 H1965 0.962 . S
C1952 H1966 0.960 . S
C1953 C1950 1.511 1_545 S
C1953 H1967 0.961 . S
C1953 H1968 0.961 . S
C1953 H1969 0.961 1_545 S
C1954 C1955 1.370 . S
C1954 C1956 1.353 . S
C1954 H1970 0.931 1_565 S
C1955 C1954 1.370 . S
C1955 C1959 1.408 . S
C1956 C1954 1.353 . S
C1956 C1957 1.401 . S
C1956 C1960 1.505 1_565 S
C1957 C1949 1.503 . S
C1957 C1956 1.401 . S
C1957 C1958 1.403 . S
C1958 C1957 1.403 . S
C1958 C1959 1.404 . S
C1958 C1961 1.539 . S
C1959 C1955 1.408 . S
C1959 C1958 1.404 . S
C1959 H1971 0.930 . S
C1960 C1956 1.505 1_545 S
C1960 H1972 0.956 . S
C1960 H1973 0.961 . S
C1960 H1974 0.961 . S
C1961 C1958 1.539 . S
C1961 H1975 0.958 . S
C1961 H1976 0.961 . S
C1961 H1977 0.960 . S
H1962 C1946 0.931 . S
H1963 C1951 0.929 . S
H1964 C1952 0.960 . S
H1965 C1952 0.962 . S
H1966 C1952 0.960 . S
H1967 C1953 0.961 . S
H1968 C1953 0.961 . S
H1969 C1953 0.961 1_565 S
H1970 C1954 0.931 1_545 S
H1971 C1959 0.930 . S
H1972 C1960 0.956 . S
H1973 C1960 0.961 . S
H1974 C1960 0.961 . S
H1975 C1961 0.958 . S
H1976 C1961 0.961 . S
H1977 C1961 0.960 . S
C1978 C1979 1.391 . S
C1978 C1980 1.394 . S
C1978 H1994 0.931 . S
C1979 C1978 1.391 . S
C1979 C1983 1.376 . S
C1980 C1978 1.394 . S
C1980 C1981 1.369 . S
C1980 C1984 1.531 . S
C1981 C1980 1.369 . S
C1981 C1982 1.410 . S
C1981 C1989 1.503 . S
C1982 C1981 1.410 . S
C1982 C1983 1.392 . S
C1982 C1985 1.511 1_455 S
C1983 C1979 1.376 . S
C1983 C1982 1.392 . S
C1983 H1995 0.929 . S
C1984 C1980 1.531 . S
C1984 H1996 0.960 . S
C1984 H1997 0.962 . S
C1984 H1998 0.960 . S
C1985 C1982 1.511 1_655 S
C1985 H1999 0.961 . S
C1985 H2000 0.961 . S
C1985 H2001 0.961 . S
C1986 C1987 1.370 . S
C1986 C1988 1.363 . S
C1986 H2002 0.931 . S
C1987 C1986 1.370 . S
C1987 C1991 1.408 . S
C1988 C1986 1.363 . S
C1988 C1989 1.370 . S
C1988 C1992 1.524 . S
C1989 C1981 1.503 . S
C1989 C1988 1.370 . S
C1989 C1990 1.403 . S
C1990 C1989 1.403 . S
C1990 C1991 1.404 . S
C1990 C1993 1.539 . S
C1991 C1987 1.408 . S
C1991 C1990 1.404 . S
C1991 H2003 0.930 . S
C1992 C1988 1.524 . S
C1992 H2004 0.956 . S
C1992 H2005 0.961 . S
C1992 H2006 0.961 . S
C1993 C1990 1.539 . S
C1993 H2007 0.958 . S
C1993 H2008 0.961 . S
C1993 H2009 0.960 . S
H1994 C1978 0.931 . S
H1995 C1983 0.929 . S
H1996 C1984 0.960 . S
H1997 C1984 0.962 . S
H1998 C1984 0.960 . S
H1999 C1985 0.961 . S
H2000 C1985 0.961 . S
H2001 C1985 0.961 . S
H2002 C1986 0.931 . S
H2003 C1991 0.930 . S
H2004 C1992 0.956 . S
H2005 C1992 0.961 . S
H2006 C1992 0.961 . S
H2007 C1993 0.958 . S
H2008 C1993 0.961 . S
H2009 C1993 0.960 . S
C2010 C2011 1.391 . S
C2010 C2012 1.394 1_556 S
C2010 H2026 0.931 . S
C2011 C2010 1.391 . S
C2011 C2015 1.376 . S
C2012 C2010 1.394 1_554 S
C2012 C2013 1.369 . S
C2012 C2016 1.531 . S
C2013 C2012 1.369 . S
C2013 C2014 1.410 1_554 S
C2013 C2021 1.503 . S
C2014 C2013 1.410 1_556 S
C2014 C2015 1.392 . S
C2014 C2017 1.511 . S
C2015 C2011 1.376 . S
C2015 C2014 1.392 . S
C2015 H2027 0.929 . S
C2016 C2012 1.531 . S
C2016 H2028 0.960 . S
C2016 H2029 0.962 . S
C2016 H2030 0.960 . S
C2017 C2014 1.511 . S
C2017 H2031 0.961 . S
C2017 H2032 0.961 . S
C2017 H2033 0.961 . S
C2018 C2019 1.370 . S
C2018 C2020 1.363 . S
C2018 H2034 0.931 . S
C2019 C2018 1.370 . S
C2019 C2023 1.408 . S
C2020 C2018 1.363 . S
C2020 C2021 1.370 . S
C2020 C2024 1.524 1_554 S
C2021 C2013 1.503 . S
C2021 C2020 1.370 . S
C2021 C2022 1.403 . S
C2022 C2021 1.403 . S
C2022 C2023 1.404 . S
C2022 C2025 1.539 . S
C2023 C2019 1.408 . S
C2023 C2022 1.404 . S
C2023 H2035 0.930 . S
C2024 C2020 1.524 1_556 S
C2024 H2036 0.956 . S
C2024 H2037 0.961 . S
C2024 H2038 0.961 . S
C2025 C2022 1.539 . S
C2025 H2039 0.958 . S
C2025 H2040 0.961 . S
C2025 H2041 0.960 . S
H2026 C2010 0.931 . S
H2027 C2015 0.929 . S
H2028 C2016 0.960 . S
H2029 C2016 0.962 . S
H2030 C2016 0.960 . S
H2031 C2017 0.961 . S
H2032 C2017 0.961 . S
H2033 C2017 0.961 . S
H2034 C2018 0.931 . S
H2035 C2023 0.930 . S
H2036 C2024 0.956 . S
H2037 C2024 0.961 . S
H2038 C2024 0.961 . S
H2039 C2025 0.958 . S
H2040 C2025 0.961 . S
H2041 C2025 0.960 . S
C2042 C2043 1.391 1_565 S
C2042 C2044 1.394 1_566 S
C2042 H2058 0.931 . S
C2043 C2042 1.391 1_545 S
C2043 C2047 1.376 . S
C2044 C2042 1.394 1_544 S
C2044 C2045 1.369 . S
C2044 C2048 1.531 1_545 S
C2045 C2044 1.369 . S
C2045 C2046 1.410 1_554 S
C2045 C2053 1.503 . S
C2046 C2045 1.410 1_556 S
C2046 C2047 1.392 . S
C2046 C2049 1.511 . S
C2047 C2043 1.376 . S
C2047 C2046 1.392 . S
C2047 H2059 0.929 . S
C2048 C2044 1.531 1_565 S
C2048 H2060 0.960 . S
C2048 H2061 0.962 . S
C2048 H2062 0.960 . S
C2049 C2046 1.511 . S
C2049 H2063 0.961 . S
C2049 H2064 0.961 . S
C2049 H2065 0.961 . S
C2050 C2051 1.370 . S
C2050 C2052 1.363 . S
C2050 H2066 0.931 . S
C2051 C2050 1.370 . S
C2051 C2055 1.408 . S
C2052 C2050 1.363 . S
C2052 C2053 1.370 . S
C2052 C2056 1.524 1_554 S
C2053 C2045 1.503 . S
C2053 C2052 1.370 . S
C2053 C2054 1.403 . S
C2054 C2053 1.403 . S
C2054 C2055 1.404 . S
C2054 C2057 1.539 . S
C2055 C2051 1.408 . S
C2055 C2054 1.404 . S
C2055 H2067 0.930 . S
C2056 C2052 1.524 1_556 S
C2056 H2068 0.956 1_545 S
C2056 H2069 0.961 . S
C2056 H2070 0.961 . S
C2057 C2054 1.539 . S
C2057 H2071 0.958 . S
C2057 H2072 0.961 . S
C2057 H2073 0.960 . S
H2058 C2042 0.931 . S
H2059 C2047 0.929 . S
H2060 C2048 0.960 . S
H2061 C2048 0.962 . S
H2062 C2048 0.960 . S
H2063 C2049 0.961 . S
H2064 C2049 0.961 . S
H2065 C2049 0.961 . S
H2066 C2050 0.931 . S
H2067 C2055 0.930 . S
H2068 C2056 0.956 1_565 S
H2069 C2056 0.961 . S
H2070 C2056 0.961 . S
H2071 C2057 0.958 . S
H2072 C2057 0.961 . S
H2073 C2057 0.960 . S
C2074 C2075 1.391 1_655 S
C2074 C2076 1.394 . S
C2074 H2090 0.931 . S
C2075 C2074 1.391 1_455 S
C2075 C2079 1.376 . S
C2076 C2074 1.394 . S
C2076 C2077 1.369 . S
C2076 C2080 1.531 . S
C2077 C2076 1.369 . S
C2077 C2078 1.410 1_655 S
C2077 C2085 1.503 1_556 S
C2078 C2077 1.410 1_455 S
C2078 C2079 1.392 . S
C2078 C2081 1.511 1_556 S
C2079 C2075 1.376 . S
C2079 C2078 1.392 . S
C2079 H2091 0.929 . S
C2080 C2076 1.531 . S
C2080 H2092 0.960 . S
C2080 H2093 0.962 . S
C2080 H2094 0.960 . S
C2081 C2078 1.511 1_554 S
C2081 H2095 0.961 . S
C2081 H2096 0.961 . S
C2081 H2097 0.961 . S
C2082 C2083 1.370 . S
C2082 C2084 1.363 . S
C2082 H2098 0.931 . S
C2083 C2082 1.370 . S
C2083 C2087 1.408 . S
C2084 C2082 1.363 . S
C2084 C2085 1.370 . S
C2084 C2088 1.524 . S
C2085 C2077 1.503 1_554 S
C2085 C2084 1.370 . S
C2085 C2086 1.401 . S
C2086 C2085 1.401 . S
C2086 C2087 1.402 . S
C2086 C2089 1.543 1_654 S
C2087 C2083 1.408 . S
C2087 C2086 1.402 . S
C2087 H2099 0.930 . S
C2088 C2084 1.524 . S
C2088 H2100 0.956 . S
C2088 H2101 0.961 . S
C2088 H2102 0.961 . S
C2089 C2086 1.543 1_456 S
C2089 H2103 0.958 1_455 S
C2089 H2104 0.961 . S
C2089 H2105 0.960 . S
H2090 C2074 0.931 . S
H2091 C2079 0.929 . S
H2092 C2080 0.960 . S
H2093 C2080 0.962 . S
H2094 C2080 0.960 . S
H2095 C2081 0.961 . S
H2096 C2081 0.961 . S
H2097 C2081 0.961 . S
H2098 C2082 0.931 . S
H2099 C2087 0.930 . S
H2100 C2088 0.956 . S
H2101 C2088 0.961 . S
H2102 C2088 0.961 . S
H2103 C2089 0.958 1_655 S
H2104 C2089 0.961 . S
H2105 C2089 0.960 . S
C955 C39 2.498 . S
C963 C781 2.504 1_554 S
C987 C674 2.522 1_554 S
C995 C91 2.511 . S
C1019 C144 2.498 . S
C1027 C728 2.510 1_554 S
C1051 C357 2.498 . S
C1059 C145 2.511 . S
C1083 C409 2.497 . S
C1091 C38 2.519 . S
C1115 C463 2.488 . S
C1123 C92 2.510 . S
C1147 C181 1.662 . S
C1155 C605 1.632 . S
C1179 C499 1.626 . S
C1187 C234 1.641 . S
C1211 C552 1.657 . S
C1219 C294 1.618 . S
C1243 C287 1.619 . S
C1251 C817 1.643 . S
C1275 C188 1.659 . S
C1283 C870 1.626 . S
C1307 C930 1.590 . S
C1315 C241 1.644 . S
C1339 C675 2.500 . S
C1347 C462 2.519 . S
C1371 C356 2.513 . S
C1379 C727 2.511 . S
C1403 C780 2.498 . S
C1411 C410 2.512 . S
C1435 C923 1.667 . S
C1443 C506 1.615 . S
C1467 C559 1.650 . S
C1475 C824 1.617 . S
C1499 C877 1.604 . S
C1507 C612 1.636 . S
C1531 C833 1.576 . S
C1539 C29 1.584 . S
C1563 C75 1.588 . S
C1571 C886 1.575 . S
C1595 C128 1.585 . S
C1603 C940 1.578 . S
C1627 C135 1.575 . S
C1635 C621 1.582 . S
C1659 C515 1.577 . S
C1667 C22 1.577 . S
C1691 C82 1.575 . S
C1699 C568 1.582 . S
C1723 C347 1.568 . S
C1731 C197 1.584 . S
C1755 C393 1.575 . S
C1763 C250 1.577 . S
C1787 C304 1.589 . S
C1795 C453 1.577 . S
C1819 C303 1.580 . S
C1827 C771 1.579 . S
C1851 C198 1.570 . S
C1859 C658 1.585 . S
C1883 C251 1.591 . S
C1891 C718 1.578 . S
C1915 C446 1.588 . S
C1923 C939 1.575 . S
C1947 C340 1.586 . S
C1955 C834 1.580 . S
C1979 C887 1.574 . S
C1987 C400 1.582 . S
C2011 C665 1.587 . S
C2019 C516 1.578 . S
C2043 C711 1.584 . S
C2051 C569 1.578 . S
C2075 C764 1.567 . S
C2083 C622 1.587 . S
