# Generated by pormake.
# Topology wld, (5)-cn, num edge types: 1
# Building blocks:
#     Node 0, Type 0, BuildingBlock: BEQFEK_clean_sbu_0, # of connection points: 5
#     Node 1, Type 0, BuildingBlock: BEQFEK_clean_sbu_0, # of connection points: 5
#     Node 2, Type 0, BuildingBlock: BEQFEK_clean_sbu_0, # of connection points: 5
#     Node 3, Type 0, BuildingBlock: BEQFEK_clean_sbu_0, # of connection points: 5
#     Node 4, Type 0, BuildingBlock: BEQFEK_clean_sbu_0, # of connection points: 5
#     Node 5, Type 0, BuildingBlock: BEQFEK_clean_sbu_0, # of connection points: 5
#     Node 6, Type 0, BuildingBlock: BEQFEK_clean_sbu_0, # of connection points: 5
#     Node 7, Type 0, BuildingBlock: BEQFEK_clean_sbu_0, # of connection points: 5
#     Node 8, Type 0, BuildingBlock: BEQFEK_clean_sbu_0, # of connection points: 5
#     Node 9, Type 0, BuildingBlock: BEQFEK_clean_sbu_0, # of connection points: 5
#     Node 10, Type 0, BuildingBlock: BEQFEK_clean_sbu_0, # of connection points: 5
#     Node 11, Type 0, BuildingBlock: BEQFEK_clean_sbu_0, # of connection points: 5
#     Edge 12, Type (0, 0), BuildingBlock: TEMPAE_clean_linker_10, # of connection points: 2
#     Edge 13, Type (0, 0), BuildingBlock: TEMPAE_clean_linker_10, # of connection points: 2
#     Edge 14, Type (0, 0), BuildingBlock: TEMPAE_clean_linker_10, # of connection points: 2
#     Edge 15, Type (0, 0), BuildingBlock: TEMPAE_clean_linker_10, # of connection points: 2
#     Edge 16, Type (0, 0), BuildingBlock: TEMPAE_clean_linker_10, # of connection points: 2
#     Edge 17, Type (0, 0), BuildingBlock: TEMPAE_clean_linker_10, # of connection points: 2
#     Edge 18, Type (0, 0), BuildingBlock: TEMPAE_clean_linker_10, # of connection points: 2
#     Edge 19, Type (0, 0), BuildingBlock: TEMPAE_clean_linker_10, # of connection points: 2
#     Edge 20, Type (0, 0), BuildingBlock: TEMPAE_clean_linker_10, # of connection points: 2
#     Edge 21, Type (0, 0), BuildingBlock: TEMPAE_clean_linker_10, # of connection points: 2
#     Edge 22, Type (0, 0), BuildingBlock: TEMPAE_clean_linker_10, # of connection points: 2
#     Edge 23, Type (0, 0), BuildingBlock: TEMPAE_clean_linker_10, # of connection points: 2
#     Edge 24, Type (0, 0), BuildingBlock: TEMPAE_clean_linker_10, # of connection points: 2
#     Edge 25, Type (0, 0), BuildingBlock: TEMPAE_clean_linker_10, # of connection points: 2
#     Edge 26, Type (0, 0), BuildingBlock: TEMPAE_clean_linker_10, # of connection points: 2
#     Edge 27, Type (0, 0), BuildingBlock: TEMPAE_clean_linker_10, # of connection points: 2
#     Edge 28, Type (0, 0), BuildingBlock: TEMPAE_clean_linker_10, # of connection points: 2
#     Edge 29, Type (0, 0), BuildingBlock: TEMPAE_clean_linker_10, # of connection points: 2
#     Edge 30, Type (0, 0), BuildingBlock: TEMPAE_clean_linker_10, # of connection points: 2
#     Edge 31, Type (0, 0), BuildingBlock: TEMPAE_clean_linker_10, # of connection points: 2
#     Edge 32, Type (0, 0), BuildingBlock: TEMPAE_clean_linker_10, # of connection points: 2
#     Edge 33, Type (0, 0), BuildingBlock: TEMPAE_clean_linker_10, # of connection points: 2
#     Edge 34, Type (0, 0), BuildingBlock: TEMPAE_clean_linker_10, # of connection points: 2
#     Edge 35, Type (0, 0), BuildingBlock: TEMPAE_clean_linker_10, # of connection points: 2
#     Edge 36, Type (0, 0), BuildingBlock: TEMPAE_clean_linker_10, # of connection points: 2
#     Edge 37, Type (0, 0), BuildingBlock: TEMPAE_clean_linker_10, # of connection points: 2
#     Edge 38, Type (0, 0), BuildingBlock: TEMPAE_clean_linker_10, # of connection points: 2
#     Edge 39, Type (0, 0), BuildingBlock: TEMPAE_clean_linker_10, # of connection points: 2
#     Edge 40, Type (0, 0), BuildingBlock: TEMPAE_clean_linker_10, # of connection points: 2
#     Edge 41, Type (0, 0), BuildingBlock: TEMPAE_clean_linker_10, # of connection points: 2
# Relax obj value: 0.307
# Max RMSD: 0.212
# Mean RMSD: 0.212
data_MOF--net-wld--node1-BEQFEK_clean_sbu_0--edge1-TEMPAE_clean_linker_10
_symmetry_space_group_name_H-M    P1
_symmetry_Int_Tables_number       1
_symmetry_cell_setting            triclinic
loop_
_symmetry_equiv_pos_as_xyz
'x, y, z'
_cell_length_a     40.372097
_cell_length_b     40.366224
_cell_length_c     42.198147
_cell_angle_alpha  90.021219
_cell_angle_beta   89.975244
_cell_angle_gamma 119.98159
loop_
_atom_site_label
_atom_site_type_symbol
_atom_site_fract_x
_atom_site_fract_y
_atom_site_fract_z
_atom_type_partial_charge
Co0 Co 0.37867 0.25951 0.11002 0.0
Co1 Co 0.40026 0.21502 0.15899 0.0
C2 C 0.45252 0.29936 0.14073 0.0
O3 O 0.4321 0.30001 0.11801 0.0
O4 O 0.44171 0.26939 0.15739 0.0
C5 C 0.36738 0.29733 0.0551 0.0
O6 O 0.40293 0.30873 0.04706 0.0
C7 C 0.45553 0.19106 0.16913 0.0
C8 C 0.4294 0.145 0.20479 0.0
C9 C 0.46054 0.1636 0.18462 0.0
N10 N 0.42248 0.1881 0.17884 0.0
N11 N 0.40716 0.1609 0.20055 0.0
C12 C 0.48185 0.22058 0.14583 0.0
H13 H 0.49139 0.24941 0.15566 0.0
H14 H 0.4662 0.21784 0.12348 0.0
H15 H 0.50784 0.21882 0.14087 0.0
C16 C 0.3638 0.19288 0.06974 0.0
N17 N 0.37523 0.21311 0.09693 0.0
N18 N 0.38372 0.19423 0.11776 0.0
C19 C 0.37791 0.16139 0.10443 0.0
C20 C 0.36553 0.15969 0.07362 0.0
C21 C 0.35159 0.2052 0.04072 0.0
H22 H 0.37562 0.23283 0.03233 0.0
H23 H 0.34288 0.18375 0.02143 0.0
H24 H 0.32737 0.20971 0.04672 0.0
O25 O 0.35003 0.25178 0.14988 0.0
O26 O 0.35763 0.21366 0.18357 0.0
H27 H 0.36494 0.10272 0.10912 0.0
H28 H 0.41179 0.13837 0.12207 0.0
C29 C 0.38133 0.13066 0.12139 0.0
H30 H 0.37052 0.12771 0.14595 0.0
H31 H 0.38091 0.1522 0.21153 0.0
O32 O 0.35322 0.27676 0.0796 0.0
C33 C 0.34227 0.23349 0.17592 0.0
Co34 Co 0.74524 0.11932 0.11659 0.0
Co35 Co 0.78125 0.18955 0.16269 0.0
C36 C 0.6977 0.14913 0.1441 0.0
O37 O 0.70005 0.12482 0.12643 0.0
O38 O 0.72678 0.17495 0.15861 0.0
C39 C 0.70456 0.06884 0.06472 0.0
O40 O 0.68562 0.08746 0.06359 0.0
C41 C 0.80164 0.2679 0.17173 0.0
C42 C 0.84312 0.28821 0.21116 0.0
C43 C 0.82535 0.30011 0.18947 0.0
N44 N 0.80517 0.23851 0.18237 0.0
N45 N 0.82969 0.25058 0.20619 0.0
C46 C 0.77925 0.26572 0.14269 0.0
H47 H 0.77348 0.24064 0.12798 0.0
H48 H 0.79489 0.29218 0.12835 0.0
H49 H 0.7514 0.26254 0.14992 0.0
C50 C 0.8087 0.17388 0.0757 0.0
N51 N 0.78764 0.16517 0.10238 0.0
N52 N 0.80401 0.19409 0.12225 0.0
C53 C 0.83616 0.22213 0.10881 0.0
C54 C 0.83989 0.21036 0.07887 0.0
C55 C 0.79962 0.14727 0.04824 0.0
H56 H 0.80115 0.1218 0.05598 0.0
H57 H 0.76999 0.13737 0.04014 0.0
H58 H 0.81967 0.16127 0.02821 0.0
O59 O 0.76018 0.10212 0.15471 0.0
O60 O 0.78459 0.15041 0.18918 0.0
H61 H 0.86715 0.25188 0.15058 0.0
H62 H 0.89359 0.26997 0.11415 0.0
C63 C 0.86496 0.25789 0.1253 0.0
H64 H 0.85589 0.27962 0.12371 0.0
H65 H 0.83815 0.23353 0.21834 0.0
O66 O 0.731 0.07845 0.08503 0.0
C67 C 0.77505 0.1162 0.18147 0.0
Co68 Co 0.88373 0.63383 0.11723 0.0
Co69 Co 0.81678 0.60214 0.16689 0.0
C70 C 0.85755 0.55926 0.1471 0.0
O71 O 0.87827 0.58283 0.12578 0.0
O72 O 0.83461 0.56498 0.16366 0.0
C73 C 0.93449 0.64497 0.06496 0.0
O74 O 0.91805 0.60749 0.06497 0.0
C75 C 0.74072 0.54023 0.17642 0.0
C76 C 0.71753 0.5579 0.2162 0.0
C77 C 0.70794 0.52872 0.19434 0.0
N78 N 0.76822 0.57428 0.18714 0.0
N79 N 0.75445 0.58465 0.21118 0.0
C80 C 0.74504 0.52148 0.14725 0.0
H81 H 0.7688 0.54248 0.13226 0.0
H82 H 0.71823 0.50802 0.13319 0.0
H83 H 0.75178 0.49904 0.15433 0.0
C84 C 0.82641 0.64112 0.0789 0.0
N85 N 0.83719 0.63015 0.10522 0.0
N86 N 0.80975 0.61838 0.12647 0.0
C87 C 0.7806 0.62155 0.11432 0.0
C88 C 0.7901 0.63573 0.0838 0.0
C89 C 0.85091 0.65731 0.05009 0.0
H90 H 0.86203 0.6383 0.04274 0.0
H91 H 0.83479 0.66053 0.03018 0.0
H92 H 0.87579 0.68566 0.056 0.0
O93 O 0.90246 0.66563 0.15588 0.0
O94 O 0.85581 0.64585 0.19181 0.0
H95 H 0.73255 0.63039 0.12191 0.0
H96 H 0.72454 0.58372 0.13212 0.0
C97 C 0.74588 0.61469 0.13251 0.0
H98 H 0.75364 0.62395 0.15745 0.0
H99 H 0.76978 0.6104 0.22347 0.0
O100 O 0.92343 0.66126 0.08464 0.0
C101 C 0.89006 0.66867 0.18288 0.0
Co102 Co 0.25832 0.3806 0.38851 0.0
Co103 Co 0.21554 0.40037 0.33634 0.0
C104 C 0.30023 0.45189 0.35373 0.0
O105 O 0.30029 0.43236 0.37739 0.0
O106 O 0.2703 0.44106 0.33703 0.0
C107 C 0.30606 0.37071 0.43499 0.0
O108 O 0.33278 0.40563 0.42768 0.0
C109 C 0.19394 0.45651 0.32233 0.0
C110 C 0.14512 0.42798 0.28944 0.0
C111 C 0.16574 0.46084 0.30743 0.0
N112 N 0.18948 0.42228 0.31449 0.0
N113 N 0.16072 0.40556 0.29427 0.0
C114 C 0.22476 0.48411 0.34413 0.0
H115 H 0.25299 0.49263 0.33347 0.0
H116 H 0.22296 0.46993 0.3671 0.0
H117 H 0.22356 0.51061 0.34805 0.0
C118 C 0.19324 0.37097 0.42728 0.0
N119 N 0.21352 0.38077 0.40015 0.0
N120 N 0.19443 0.38703 0.37798 0.0
C121 C 0.16092 0.38078 0.39023 0.0
C122 C 0.15915 0.37054 0.42185 0.0
C123 C 0.20484 0.35864 0.45666 0.0
H124 H 0.20371 0.33103 0.45204 0.0
H125 H 0.23481 0.38003 0.46274 0.0
H126 H 0.18581 0.35498 0.47694 0.0
O127 O 0.24739 0.34683 0.3515 0.0
O128 O 0.21293 0.35525 0.31473 0.0
H129 H 0.12621 0.36937 0.3488 0.0
H130 H 0.10345 0.37192 0.38488 0.0
C131 C 0.13093 0.38408 0.37193 0.0
H132 H 0.14089 0.41469 0.36763 0.0
H133 H 0.15045 0.37811 0.28514 0.0
O134 O 0.2734 0.35656 0.42201 0.0
C135 C 0.22982 0.3378 0.32506 0.0
Co136 Co 0.63289 0.88213 0.37849 0.0
Co137 Co 0.60254 0.81558 0.32847 0.0
C138 C 0.55877 0.85564 0.34774 0.0
O139 O 0.58186 0.87625 0.36937 0.0
O140 O 0.56501 0.833 0.33124 0.0
C141 C 0.64266 0.9317 0.43139 0.0
O142 O 0.60511 0.91399 0.4318 0.0
C143 C 0.54112 0.73938 0.31815 0.0
C144 C 0.55976 0.71675 0.27863 0.0
C145 C 0.53012 0.7068 0.30007 0.0
N146 N 0.57532 0.76712 0.3079 0.0
N147 N 0.58628 0.75367 0.28401 0.0
C148 C 0.52171 0.74327 0.34705 0.0
H149 H 0.54234 0.7669 0.36236 0.0
H150 H 0.50802 0.71629 0.3609 0.0
H151 H 0.49935 0.75001 0.33966 0.0
C152 C 0.64025 0.82487 0.41691 0.0
N153 N 0.62951 0.83568 0.39047 0.0
N154 N 0.61824 0.8084 0.36911 0.0
C155 C 0.62151 0.77932 0.38131 0.0
C156 C 0.63524 0.7887 0.41198 0.0
C157 C 0.65587 0.84922 0.44586 0.0
H158 H 0.63633 0.85969 0.45322 0.0
H159 H 0.65935 0.8332 0.46572 0.0
H160 H 0.68399 0.87452 0.44013 0.0
O161 O 0.66524 0.90144 0.34019 0.0
O162 O 0.64651 0.85516 0.30403 0.0
H163 H 0.63076 0.7315 0.37389 0.0
H164 H 0.58422 0.72337 0.36306 0.0
C165 C 0.61517 0.74481 0.36307 0.0
H166 H 0.62486 0.75281 0.33826 0.0
H167 H 0.61224 0.76924 0.27206 0.0
O168 O 0.65947 0.92175 0.41128 0.0
C169 C 0.66889 0.88942 0.31322 0.0
Co170 Co 0.1215 0.7448 0.37884 0.0
Co171 Co 0.19057 0.78101 0.33159 0.0
C172 C 0.15063 0.6973 0.35044 0.0
O173 O 0.12675 0.6995 0.36878 0.0
O174 O 0.17591 0.72647 0.33564 0.0
C175 C 0.07104 0.70482 0.43131 0.0
O176 O 0.08909 0.68533 0.43276 0.0
C177 C 0.26846 0.80068 0.32126 0.0
C178 C 0.28851 0.84257 0.28213 0.0
C179 C 0.30045 0.82432 0.30328 0.0
N180 N 0.23914 0.80472 0.31128 0.0
N181 N 0.25104 0.82946 0.28761 0.0
C182 C 0.26662 0.77823 0.35016 0.0
H183 H 0.24187 0.77267 0.36523 0.0
H184 H 0.29334 0.79375 0.3642 0.0
H185 H 0.26319 0.75033 0.34279 0.0
C186 C 0.17674 0.80873 0.41904 0.0
N187 N 0.16764 0.78739 0.3925 0.0
N188 N 0.1957 0.80422 0.3719 0.0
C189 C 0.22334 0.83726 0.38449 0.0
C190 C 0.21232 0.84103 0.41479 0.0
C191 C 0.15012 0.80016 0.44644 0.0
H192 H 0.12377 0.79957 0.43811 0.0
H193 H 0.14178 0.77143 0.45597 0.0
H194 H 0.16329 0.82176 0.46556 0.0
O195 O 0.10362 0.75954 0.34092 0.0
O196 O 0.15109 0.78421 0.3057 0.0
H197 H 0.25269 0.8685 0.34275 0.0
H198 H 0.274 0.89336 0.3793 0.0
C199 C 0.2593 0.86503 0.3676 0.0
H200 H 0.27933 0.8538 0.36752 0.0
H201 H 0.23399 0.8383 0.27594 0.0
O202 O 0.08101 0.73102 0.41072 0.0
C203 C 0.11703 0.77444 0.31402 0.0
Co204 Co 0.62391 0.74342 0.89011 0.0
Co205 Co 0.59846 0.7821 0.83877 0.0
C206 C 0.54909 0.69918 0.86062 0.0
O207 O 0.57207 0.70058 0.88184 0.0
O208 O 0.55702 0.72809 0.84345 0.0
C209 C 0.63381 0.71053 0.94798 0.0
O210 O 0.59974 0.70408 0.95634 0.0
C211 C 0.5403 0.80147 0.82798 0.0
C212 C 0.55861 0.83873 0.78581 0.0
C213 C 0.52975 0.82216 0.80836 0.0
N214 N 0.57345 0.80529 0.81753 0.0
N215 N 0.58427 0.82741 0.79213 0.0
C216 C 0.52156 0.7817 0.85837 0.0
H217 H 0.54185 0.77823 0.87373 0.0
H218 H 0.51042 0.79804 0.87133 0.0
H219 H 0.49727 0.75285 0.85307 0.0
C220 C 0.63735 0.81199 0.92688 0.0
N221 N 0.62524 0.78945 0.90098 0.0
N222 N 0.61668 0.80668 0.87865 0.0
C223 C 0.62353 0.84096 0.88948 0.0
C224 C 0.63651 0.84525 0.92045 0.0
C225 C 0.65239 0.80328 0.95621 0.0
H226 H 0.67327 0.79422 0.94966 0.0
H227 H 0.62837 0.7794 0.96906 0.0
H228 H 0.66649 0.82843 0.97218 0.0
O229 O 0.65429 0.75196 0.85166 0.0
O230 O 0.64092 0.78214 0.8142 0.0
H231 H 0.62671 0.86957 0.84576 0.0
H232 H 0.63274 0.89801 0.88063 0.0
C233 C 0.61731 0.86879 0.87057 0.0
H234 H 0.58642 0.85946 0.87056 0.0
H235 H 0.60934 0.83526 0.77948 0.0
O236 O 0.64844 0.72735 0.92202 0.0
C237 C 0.66003 0.7668 0.82418 0.0
Co238 Co 0.25618 0.88246 0.88081 0.0
Co239 Co 0.21432 0.8129 0.83415 0.0
C240 C 0.29849 0.84868 0.85129 0.0
O241 O 0.29831 0.87179 0.87173 0.0
O242 O 0.26849 0.82621 0.83587 0.0
C243 C 0.2921 0.92922 0.93674 0.0
O244 O 0.29791 0.90159 0.94636 0.0
C245 C 0.19074 0.73345 0.82568 0.0
C246 C 0.14597 0.71293 0.78884 0.0
C247 C 0.16408 0.70081 0.80992 0.0
N248 N 0.18784 0.76328 0.81518 0.0
N249 N 0.16143 0.75105 0.79277 0.0
C250 C 0.21902 0.73688 0.85035 0.0
H251 H 0.21626 0.75149 0.87162 0.0
H252 H 0.21574 0.70888 0.85704 0.0
H253 H 0.24833 0.7549 0.84087 0.0
C254 C 0.19007 0.8314 0.9219 0.0
N255 N 0.21122 0.83877 0.89532 0.0
N256 N 0.19308 0.81026 0.87526 0.0
C257 C 0.15965 0.78402 0.88839 0.0
C258 C 0.15682 0.79646 0.91837 0.0
C259 C 0.19962 0.85885 0.94881 0.0
H260 H 0.2087 0.88781 0.93948 0.0
H261 H 0.22363 0.86012 0.96256 0.0
H262 H 0.17485 0.85 0.96491 0.0
O263 O 0.24356 0.90103 0.84189 0.0
O264 O 0.21251 0.8528 0.80798 0.0
H265 H 0.12635 0.75387 0.84774 0.0
H266 H 0.103 0.73363 0.88499 0.0
C267 C 0.13082 0.74778 0.87247 0.0
H268 H 0.14167 0.72745 0.87221 0.0
H269 H 0.15303 0.76839 0.781 0.0
O270 O 0.27488 0.92582 0.91073 0.0
C271 C 0.22659 0.88789 0.81557 0.0
Co272 Co 0.11361 0.36999 0.88227 0.0
Co273 Co 0.18522 0.4052 0.83707 0.0
C274 C 0.14543 0.44867 0.85623 0.0
O275 O 0.12053 0.42146 0.8731 0.0
O276 O 0.17143 0.44571 0.84167 0.0
C277 C 0.06855 0.35949 0.93834 0.0
O278 O 0.09591 0.39386 0.94629 0.0
C279 C 0.26343 0.46287 0.8237 0.0
C280 C 0.28601 0.43233 0.79572 0.0
C281 C 0.29689 0.46646 0.81137 0.0
N282 N 0.23439 0.42783 0.81693 0.0
N283 N 0.24782 0.40998 0.7994 0.0
C284 C 0.25855 0.49236 0.84122 0.0
H285 H 0.23883 0.49832 0.82737 0.0
H286 H 0.24545 0.48101 0.86474 0.0
H287 H 0.28566 0.51979 0.84398 0.0
C288 C 0.16716 0.35876 0.92337 0.0
N289 N 0.15895 0.37202 0.8969 0.0
N290 N 0.18891 0.38663 0.87794 0.0
C291 C 0.21731 0.38376 0.8922 0.0
C292 C 0.2045 0.36631 0.92132 0.0
C293 C 0.13942 0.33789 0.9495 0.0
H294 H 0.11139 0.3166 0.9394 0.0
H295 H 0.13538 0.35864 0.96379 0.0
H296 H 0.14998 0.32322 0.96534 0.0
O297 O 0.09633 0.33873 0.84382 0.0
O298 O 0.14541 0.36338 0.8102 0.0
H299 H 0.25088 0.3813 0.8541 0.0
H300 H 0.27221 0.38616 0.89248 0.0
C301 C 0.25527 0.39498 0.87763 0.0
H302 H 0.27177 0.42643 0.87481 0.0
H303 H 0.23144 0.38174 0.79169 0.0
O304 O 0.07127 0.3444 0.9128 0.0
C305 C 0.11093 0.33876 0.81713 0.0
Co306 Co 0.74404 0.62321 0.6059 0.0
Co307 Co 0.78428 0.59783 0.65588 0.0
C308 C 0.70166 0.54732 0.63346 0.0
O309 O 0.70242 0.5703 0.61252 0.0
O310 O 0.73068 0.55584 0.65066 0.0
C311 C 0.71102 0.63356 0.54846 0.0
O312 O 0.7057 0.60002 0.53969 0.0
C313 C 0.80466 0.54024 0.66576 0.0
C314 C 0.84101 0.55786 0.70848 0.0
C315 C 0.82497 0.5294 0.68556 0.0
N316 N 0.80816 0.57315 0.67649 0.0
N317 N 0.82978 0.58359 0.70217 0.0
C318 C 0.78522 0.52184 0.63519 0.0
H319 H 0.78253 0.54254 0.61974 0.0
H320 H 0.80133 0.51026 0.62249 0.0
H321 H 0.75606 0.49792 0.6402 0.0
C322 C 0.81382 0.64013 0.56885 0.0
N323 N 0.79126 0.62689 0.59471 0.0
N324 N 0.80878 0.61788 0.61645 0.0
C325 C 0.84322 0.62561 0.60536 0.0
C326 C 0.84737 0.63964 0.57477 0.0
C327 C 0.80459 0.65532 0.53989 0.0
H328 H 0.79455 0.6753 0.54691 0.0
H329 H 0.78126 0.6312 0.52668 0.0
H330 H 0.82979 0.67045 0.5241 0.0
O331 O 0.74978 0.6508 0.64578 0.0
O332 O 0.78292 0.63858 0.68151 0.0
H333 H 0.87199 0.62747 0.64864 0.0
H334 H 0.90036 0.63471 0.61349 0.0
C335 C 0.87117 0.61888 0.62357 0.0
H336 H 0.8619 0.58801 0.62282 0.0
H337 H 0.83714 0.60832 0.71516 0.0
O338 O 0.72727 0.64794 0.57467 0.0
C339 C 0.76533 0.65601 0.67293 0.0
Co340 Co 0.37184 0.11551 0.61172 0.0
Co341 Co 0.40717 0.18541 0.65888 0.0
C342 C 0.44976 0.14504 0.63847 0.0
O343 O 0.42272 0.12091 0.62102 0.0
O344 O 0.44692 0.17077 0.65361 0.0
C345 C 0.36256 0.06622 0.55896 0.0
O346 O 0.40011 0.08513 0.55791 0.0
C347 C 0.46628 0.2618 0.67648 0.0
C348 C 0.43431 0.28616 0.69973 0.0
C349 C 0.46986 0.2958 0.68743 0.0
N350 N 0.43 0.23369 0.6806 0.0
N351 N 0.41128 0.24814 0.69557 0.0
C352 C 0.49657 0.25612 0.66133 0.0
H353 H 0.49923 0.23414 0.67499 0.0
H354 H 0.48803 0.24567 0.6367 0.0
H355 H 0.52493 0.28255 0.66139 0.0
C356 C 0.36251 0.17086 0.5722 0.0
N357 N 0.3752 0.1618 0.59852 0.0
N358 N 0.38942 0.19101 0.61822 0.0
C359 C 0.38667 0.21985 0.60468 0.0
C360 C 0.36925 0.20794 0.57532 0.0
C361 C 0.34138 0.14325 0.54603 0.0
H362 H 0.31748 0.11666 0.55616 0.0
H363 H 0.361 0.1356 0.53386 0.0
H364 H 0.32974 0.15527 0.52853 0.0
O365 O 0.33993 0.09704 0.64979 0.0
O366 O 0.36466 0.14485 0.68465 0.0
H367 H 0.38448 0.25633 0.64031 0.0
H368 H 0.4001 0.27905 0.60215 0.0
C369 C 0.40147 0.25866 0.61895 0.0
H370 H 0.43172 0.27037 0.62569 0.0
H371 H 0.38209 0.23276 0.70065 0.0
O372 O 0.34549 0.07525 0.57953 0.0
C373 C 0.33984 0.11072 0.67691 0.0
Co374 Co 0.88022 0.25248 0.61483 0.0
Co375 Co 0.81211 0.21164 0.66293 0.0
C376 C 0.84856 0.29598 0.64522 0.0
O377 O 0.87101 0.29535 0.62436 0.0
O378 O 0.82621 0.26618 0.66096 0.0
C379 C 0.9312 0.29508 0.56309 0.0
O380 O 0.91172 0.31311 0.56131 0.0
C381 C 0.73285 0.18837 0.67157 0.0
C382 C 0.71237 0.1441 0.70884 0.0
C383 C 0.70021 0.16182 0.68738 0.0
N384 N 0.76273 0.18577 0.68238 0.0
N385 N 0.75053 0.15967 0.70504 0.0
C386 C 0.73612 0.21606 0.64639 0.0
H387 H 0.74858 0.21129 0.62461 0.0
H388 H 0.70832 0.21396 0.64085 0.0
H389 H 0.75586 0.24559 0.65464 0.0
C390 C 0.82728 0.18789 0.57418 0.0
N391 N 0.83566 0.2084 0.60115 0.0
N392 N 0.80806 0.18995 0.62186 0.0
C393 C 0.78151 0.15657 0.60888 0.0
C394 C 0.79271 0.15433 0.57823 0.0
C395 C 0.85366 0.19878 0.54635 0.0
H396 H 0.88084 0.2006 0.5539 0.0
H397 H 0.86046 0.22749 0.5378 0.0
H398 H 0.84106 0.1778 0.52674 0.0
O399 O 0.89955 0.23972 0.65324 0.0
O400 O 0.85244 0.20951 0.68826 0.0
H401 H 0.75332 0.12383 0.65036 0.0
H402 H 0.73295 0.099 0.61364 0.0
C403 C 0.74628 0.12715 0.62562 0.0
H404 H 0.72491 0.1367 0.62591 0.0
H405 H 0.76788 0.15144 0.71701 0.0
O406 O 0.92167 0.26861 0.58337 0.0
C407 C 0.88723 0.22316 0.67983 0.0
C408 C 0.65947 0.18063 0.15565 0.0
C409 C 0.66049 0.14721 0.14875 0.0
C410 C 0.62475 0.17955 0.16137 0.0
C411 C 0.59022 0.14397 0.16109 0.0
C412 C 0.59104 0.11 0.15438 0.0
C413 C 0.6262 0.11209 0.14782 0.0
C414 C 0.62506 0.21657 0.16758 0.0
C415 C 0.55493 0.07147 0.15467 0.0
C416 C 0.50937 0.14755 0.20407 0.0
C417 C 0.49054 0.15349 0.17877 0.0
C418 C 0.54066 0.14207 0.1986 0.0
C419 C 0.55338 0.14291 0.16713 0.0
C420 C 0.53278 0.14642 0.14148 0.0
C421 C 0.50113 0.15087 0.14764 0.0
C422 C 0.56117 0.13719 0.22653 0.0
C423 C 0.54548 0.14779 0.10759 0.0
H424 H 0.6859 0.20783 0.15626 0.0
H425 H 0.62698 0.08613 0.14288 0.0
H426 H 0.60644 0.22009 0.15017 0.0
H427 H 0.61337 0.21593 0.1915 0.0
H428 H 0.65426 0.2419 0.16605 0.0
H429 H 0.56051 0.04774 0.14938 0.0
H430 H 0.541 0.06634 0.17823 0.0
H431 H 0.53433 0.07089 0.13698 0.0
H432 H 0.5006 0.1487 0.22815 0.0
H433 H 0.48536 0.15361 0.12801 0.0
H434 H 0.58947 0.16336 0.22947 0.0
H435 H 0.56632 0.11298 0.2224 0.0
H436 H 0.54482 0.13201 0.24892 0.0
H437 H 0.57362 0.17399 0.10396 0.0
H438 H 0.52482 0.148 0.09032 0.0
H439 H 0.54923 0.12294 0.1024 0.0
C440 C 0.87026 0.37075 0.18818 0.0
C441 C 0.83313 0.33967 0.18455 0.0
C442 C 0.87835 0.40828 0.18198 0.0
C443 C 0.84859 0.41466 0.17181 0.0
C444 C 0.81096 0.38339 0.16859 0.0
C445 C 0.80363 0.3464 0.17549 0.0
C446 C 0.91862 0.44105 0.1864 0.0
C447 C 0.77835 0.38899 0.15796 0.0
C448 C 0.85121 0.50867 0.18415 0.0
C449 C 0.85972 0.52447 0.15361 0.0
C450 C 0.84965 0.47396 0.19076 0.0
C451 C 0.85596 0.45409 0.16605 0.0
C452 C 0.8659 0.4705 0.13537 0.0
C453 C 0.86808 0.50585 0.12957 0.0
C454 C 0.83973 0.45785 0.22394 0.0
C455 C 0.87229 0.44982 0.10835 0.0
H456 H 0.89311 0.36567 0.1954 0.0
H457 H 0.77459 0.32277 0.17399 0.0
H458 H 0.92946 0.45696 0.16382 0.0
H459 H 0.91886 0.46144 0.20416 0.0
H460 H 0.93854 0.43124 0.19436 0.0
H461 H 0.75126 0.36143 0.15488 0.0
H462 H 0.77348 0.40646 0.17563 0.0
H463 H 0.78561 0.40476 0.13515 0.0
H464 H 0.84527 0.52331 0.20294 0.0
H465 H 0.87461 0.51802 0.10594 0.0
H466 H 0.86029 0.44907 0.23219 0.0
H467 H 0.8109 0.43197 0.22403 0.0
H468 H 0.83977 0.47873 0.24112 0.0
H469 H 0.89324 0.44098 0.11524 0.0
H470 H 0.88276 0.46771 0.08664 0.0
H471 H 0.84504 0.42342 0.10267 0.0
C472 C 0.666 0.46005 0.17909 0.0
C473 C 0.66962 0.49481 0.18916 0.0
C474 C 0.63028 0.42891 0.17101 0.0
C475 C 0.59709 0.43211 0.1742 0.0
C476 C 0.60028 0.46649 0.18589 0.0
C477 C 0.63658 0.49753 0.19313 0.0
C478 C 0.62815 0.39276 0.15867 0.0
C479 C 0.56541 0.47059 0.19041 0.0
C480 C 0.50915 0.36303 0.12679 0.0
C481 C 0.48897 0.33405 0.14907 0.0
C482 C 0.54431 0.39536 0.1347 0.0
C483 C 0.55906 0.39909 0.16579 0.0
C484 C 0.53825 0.37038 0.18857 0.0
C485 C 0.50372 0.33806 0.17984 0.0
C486 C 0.56611 0.42508 0.10962 0.0
C487 C 0.55259 0.37362 0.22213 0.0
H488 H 0.69115 0.45711 0.17737 0.0
H489 H 0.63919 0.52423 0.20119 0.0
H490 H 0.61027 0.36847 0.17465 0.0
H491 H 0.61434 0.3856 0.13499 0.0
H492 H 0.6568 0.39539 0.15662 0.0
H493 H 0.57261 0.49869 0.20083 0.0
H494 H 0.55106 0.46748 0.16729 0.0
H495 H 0.54455 0.44756 0.20613 0.0
H496 H 0.49792 0.36001 0.10298 0.0
H497 H 0.48804 0.31597 0.19732 0.0
H498 H 0.59424 0.42715 0.10554 0.0
H499 H 0.57179 0.45358 0.11775 0.0
H500 H 0.55043 0.41832 0.08675 0.0
H501 H 0.5799 0.37331 0.22214 0.0
H502 H 0.53182 0.34995 0.23747 0.0
H503 H 0.55844 0.4012 0.2327 0.0
C504 C 0.14821 0.50886 0.28848 0.0
C505 C 0.15562 0.49079 0.31353 0.0
C506 C 0.14256 0.54003 0.2942 0.0
C507 C 0.14471 0.55337 0.32565 0.0
C508 C 0.14974 0.53352 0.35111 0.0
C509 C 0.15437 0.50202 0.34474 0.0
C510 C 0.13609 0.55976 0.26651 0.0
C511 C 0.15254 0.54687 0.38496 0.0
C512 C 0.18199 0.65942 0.33692 0.0
C513 C 0.14877 0.66018 0.34522 0.0
C514 C 0.18096 0.62484 0.33063 0.0
C515 C 0.1456 0.59012 0.3318 0.0
C516 C 0.1118 0.59066 0.33986 0.0
C517 C 0.11388 0.62572 0.34693 0.0
C518 C 0.21785 0.62548 0.32299 0.0
C519 C 0.07347 0.55433 0.34058 0.0
H520 H 0.1483 0.49958 0.26438 0.0
H521 H 0.15835 0.48689 0.36425 0.0
H522 H 0.11189 0.56468 0.27147 0.0
H523 H 0.16191 0.58814 0.26275 0.0
H524 H 0.13003 0.54295 0.24427 0.0
H525 H 0.15395 0.52677 0.40216 0.0
H526 H 0.17863 0.5753 0.38777 0.0
H527 H 0.12768 0.55027 0.39102 0.0
H528 H 0.20902 0.68597 0.33564 0.0
H529 H 0.08805 0.62626 0.35295 0.0
H530 H 0.2161 0.61335 0.29905 0.0
H531 H 0.22253 0.60738 0.34014 0.0
H532 H 0.24303 0.65483 0.3237 0.0
H533 H 0.06755 0.53993 0.31718 0.0
H534 H 0.04977 0.55974 0.34649 0.0
H535 H 0.0738 0.53421 0.3583 0.0
C536 C 0.46116 0.66448 0.31427 0.0
C537 C 0.4962 0.66834 0.30476 0.0
C538 C 0.42998 0.62863 0.322 0.0
C539 C 0.43344 0.59557 0.31908 0.0
C540 C 0.4681 0.59899 0.30787 0.0
C541 C 0.49916 0.63542 0.30093 0.0
C542 C 0.39352 0.62627 0.33383 0.0
C543 C 0.47252 0.56427 0.30364 0.0
C544 C 0.3643 0.50824 0.36706 0.0
C545 C 0.33533 0.48774 0.34485 0.0
C546 C 0.39672 0.5432 0.35889 0.0
C547 C 0.40055 0.55748 0.32761 0.0
C548 C 0.37195 0.53625 0.30487 0.0
C549 C 0.33953 0.5019 0.31385 0.0
C550 C 0.42632 0.5654 0.38394 0.0
C551 C 0.3753 0.55008 0.27113 0.0
H552 H 0.45807 0.68955 0.31586 0.0
H553 H 0.52608 0.63821 0.29329 0.0
H554 H 0.36945 0.60798 0.31781 0.0
H555 H 0.38627 0.61279 0.35764 0.0
H556 H 0.39582 0.65481 0.33543 0.0
H557 H 0.50068 0.5716 0.29328 0.0
H558 H 0.46953 0.55019 0.32688 0.0
H559 H 0.44957 0.54314 0.28801 0.0
H560 H 0.36115 0.49749 0.39106 0.0
H561 H 0.31743 0.486 0.29644 0.0
H562 H 0.42809 0.59344 0.38781 0.0
H563 H 0.45493 0.57129 0.37592 0.0
H564 H 0.41965 0.54992 0.40691 0.0
H565 H 0.37451 0.57715 0.27067 0.0
H566 H 0.35192 0.52889 0.2558 0.0
H567 H 0.4031 0.55623 0.26085 0.0
C568 C 0.50472 0.86546 0.36455 0.0
C569 C 0.52406 0.85772 0.34073 0.0
C570 C 0.4695 0.86331 0.3582 0.0
C571 C 0.45398 0.85408 0.32719 0.0
C572 C 0.47457 0.84839 0.30274 0.0
C573 C 0.50912 0.84986 0.30989 0.0
C574 C 0.44802 0.86899 0.38496 0.0
C575 C 0.45943 0.83927 0.26924 0.0
C576 C 0.34651 0.80204 0.31632 0.0
C577 C 0.33996 0.83182 0.30782 0.0
C578 C 0.38338 0.80913 0.32334 0.0
C579 C 0.41472 0.84681 0.3208 0.0
C580 C 0.40855 0.87685 0.31101 0.0
C581 C 0.37113 0.86899 0.30469 0.0
C582 C 0.38874 0.77623 0.33355 0.0
C583 C 0.44141 0.91721 0.3073 0.0
H584 H 0.51624 0.87148 0.3884 0.0
H585 H 0.52432 0.8444 0.29129 0.0
H586 H 0.43947 0.8902 0.37817 0.0
H587 H 0.42141 0.84162 0.3899 0.0
H588 H 0.46521 0.8788 0.40706 0.0
H589 H 0.48084 0.83981 0.25238 0.0
H590 H 0.43362 0.81042 0.26847 0.0
H591 H 0.45081 0.86 0.26107 0.0
H592 H 0.32278 0.77301 0.31744 0.0
H593 H 0.36618 0.89205 0.2979 0.0
H594 H 0.4038 0.78281 0.35668 0.0
H595 H 0.40681 0.77197 0.31607 0.0
H596 H 0.36115 0.74901 0.33585 0.0
H597 H 0.45655 0.92769 0.33023 0.0
H598 H 0.43183 0.93722 0.29911 0.0
H599 H 0.46241 0.91777 0.29003 0.0
C600 C 0.3632 0.85951 0.86677 0.0
C601 C 0.3342 0.84837 0.84409 0.0
C602 C 0.39622 0.85735 0.86018 0.0
C603 C 0.40066 0.84468 0.82996 0.0
C604 C 0.3721 0.83485 0.80662 0.0
C605 C 0.33905 0.83635 0.8141 0.0
C606 C 0.42572 0.86731 0.88589 0.0
C607 C 0.37608 0.82202 0.77391 0.0
C608 C 0.49938 0.86315 0.8057 0.0
C609 C 0.49619 0.82755 0.81187 0.0
C610 C 0.46843 0.8692 0.81122 0.0
C611 C 0.43371 0.83899 0.82342 0.0
C612 C 0.43012 0.80275 0.82886 0.0
C613 C 0.46112 0.79732 0.82242 0.0
C614 C 0.47295 0.90792 0.80426 0.0
C615 C 0.39362 0.76972 0.84181 0.0
H616 H 0.35952 0.86877 0.88997 0.0
H617 H 0.31695 0.8282 0.7963 0.0
H618 H 0.4276 0.84159 0.89212 0.0
H619 H 0.45433 0.88934 0.87729 0.0
H620 H 0.4188 0.87812 0.90766 0.0
H621 H 0.35297 0.8187 0.75765 0.0
H622 H 0.40407 0.84291 0.76342 0.0
H623 H 0.37524 0.79418 0.77546 0.0
H624 H 0.52632 0.88649 0.79721 0.0
H625 H 0.45776 0.76923 0.82569 0.0
H626 H 0.46953 0.92072 0.82641 0.0
H627 H 0.45027 0.90486 0.78766 0.0
H628 H 0.50128 0.92795 0.79375 0.0
H629 H 0.38598 0.77806 0.86454 0.0
H630 H 0.39606 0.74384 0.84591 0.0
H631 H 0.36972 0.76224 0.82507 0.0
C632 C 0.10872 0.48288 0.84825 0.0
C633 C 0.14379 0.48416 0.85233 0.0
C634 C 0.10744 0.51631 0.84128 0.0
C635 C 0.14203 0.5517 0.83879 0.0
C636 C 0.17737 0.55317 0.84401 0.0
C637 C 0.17777 0.51938 0.85068 0.0
C638 C 0.06924 0.51364 0.8358 0.0
C639 C 0.21489 0.5904 0.8422 0.0
C640 C 0.15186 0.63663 0.79216 0.0
C641 C 0.15376 0.66089 0.81664 0.0
C642 C 0.14602 0.59998 0.79888 0.0
C643 C 0.14179 0.58748 0.83079 0.0
C644 C 0.14125 0.61109 0.85535 0.0
C645 C 0.14696 0.64741 0.84791 0.0
C646 C 0.14634 0.57545 0.77202 0.0
C647 C 0.13669 0.59887 0.88964 0.0
H648 H 0.08241 0.45558 0.84943 0.0
H649 H 0.20477 0.52057 0.8548 0.0
H650 H 0.06592 0.53363 0.85175 0.0
H651 H 0.06772 0.52226 0.81112 0.0
H652 H 0.04494 0.48426 0.83979 0.0
H653 H 0.23982 0.58666 0.84734 0.0
H654 H 0.21857 0.60298 0.8182 0.0
H655 H 0.2149 0.61126 0.85934 0.0
H656 H 0.15655 0.64693 0.76793 0.0
H657 H 0.14717 0.66581 0.86673 0.0
H658 H 0.1214 0.5461 0.77382 0.0
H659 H 0.1725 0.57305 0.77355 0.0
H660 H 0.14581 0.58747 0.74846 0.0
H661 H 0.11161 0.5698 0.89256 0.0
H662 H 0.13316 0.61887 0.90548 0.0
H663 H 0.16231 0.59762 0.89739 0.0
C664 C 0.48202 0.66388 0.84085 0.0
C665 C 0.51324 0.66303 0.85445 0.0
C666 C 0.44814 0.63 0.83374 0.0
C667 C 0.44588 0.59436 0.83936 0.0
C668 C 0.47757 0.59326 0.85254 0.0
C669 C 0.51074 0.62768 0.86041 0.0
C670 C 0.41459 0.63241 0.82059 0.0
C671 C 0.47654 0.55581 0.85803 0.0
C672 C 0.34586 0.51057 0.84986 0.0
C673 C 0.33641 0.49658 0.81881 0.0
C674 C 0.38174 0.54184 0.85703 0.0
C675 C 0.40953 0.55842 0.83283 0.0
C676 C 0.40127 0.54233 0.80198 0.0
C677 C 0.36457 0.51158 0.79526 0.0
C678 C 0.38914 0.55831 0.89013 0.0
C679 C 0.43068 0.55848 0.77584 0.0
H680 H 0.48391 0.69112 0.83603 0.0
H681 H 0.53509 0.62695 0.87043 0.0
H682 H 0.4066 0.61854 0.79697 0.0
H683 H 0.3894 0.61679 0.83633 0.0
H684 H 0.42084 0.6624 0.81819 0.0
H685 H 0.50423 0.55997 0.86703 0.0
H686 H 0.45384 0.53823 0.87539 0.0
H687 H 0.46942 0.53927 0.83561 0.0
H688 H 0.32471 0.49767 0.8685 0.0
H689 H 0.35753 0.50008 0.77143 0.0
H690 H 0.39388 0.58786 0.88934 0.0
H691 H 0.41539 0.56005 0.90003 0.0
H692 H 0.36495 0.54109 0.90649 0.0
H693 H 0.43565 0.58713 0.76895 0.0
H694 H 0.4215 0.53989 0.75449 0.0
H695 H 0.45838 0.56217 0.78422 0.0
C696 C 0.86512 0.4982 0.68923 0.0
C697 C 0.82992 0.49555 0.68233 0.0
C698 C 0.87072 0.46689 0.68423 0.0
C699 C 0.84045 0.43234 0.67185 0.0
C700 C 0.80459 0.42928 0.66569 0.0
C701 C 0.7996 0.46067 0.67156 0.0
C702 C 0.90905 0.47084 0.69191 0.0
C703 C 0.77151 0.39296 0.65255 0.0
C704 C 0.86052 0.36099 0.62949 0.0
C705 C 0.84866 0.33195 0.65224 0.0
C706 C 0.85878 0.3943 0.63577 0.0
C707 C 0.84573 0.39895 0.66573 0.0
C708 C 0.83514 0.37034 0.68916 0.0
C709 C 0.8363 0.33702 0.682 0.0
C710 C 0.8696 0.42387 0.60999 0.0
C711 C 0.82184 0.37454 0.72161 0.0
H712 H 0.88851 0.525 0.69792 0.0
H713 H 0.77177 0.45773 0.66773 0.0
H714 H 0.90531 0.44808 0.70871 0.0
H715 H 0.92214 0.46714 0.67007 0.0
H716 H 0.92914 0.49911 0.70249 0.0
H717 H 0.74591 0.39577 0.64799 0.0
H718 H 0.78006 0.38512 0.63002 0.0
H719 H 0.76346 0.36903 0.66938 0.0
H720 H 0.87004 0.35716 0.60646 0.0
H721 H 0.82757 0.31488 0.69984 0.0
H722 H 0.89168 0.45238 0.61874 0.0
H723 H 0.84422 0.42612 0.60327 0.0
H724 H 0.88068 0.41677 0.58848 0.0
H725 H 0.84277 0.40244 0.7322 0.0
H726 H 0.81791 0.35132 0.73801 0.0
H727 H 0.79423 0.3741 0.71957 0.0
C728 C 0.6674 0.48091 0.65485 0.0
C729 C 0.66592 0.51107 0.63975 0.0
C730 C 0.63389 0.44705 0.66274 0.0
C731 C 0.59794 0.44366 0.65621 0.0
C732 C 0.59617 0.47417 0.64131 0.0
C733 C 0.63025 0.50738 0.63285 0.0
C734 C 0.637 0.41476 0.67781 0.0
C735 C 0.55834 0.47185 0.63461 0.0
C736 C 0.51546 0.3425 0.64839 0.0
C737 C 0.50059 0.33479 0.67925 0.0
C738 C 0.54661 0.37811 0.64041 0.0
C739 C 0.56239 0.40729 0.66357 0.0
C740 C 0.54575 0.40059 0.69418 0.0
C741 C 0.51494 0.3642 0.70173 0.0
C742 C 0.56362 0.38389 0.60759 0.0
C743 C 0.56123 0.43143 0.7192 0.0
H744 H 0.69486 0.48369 0.66044 0.0
H745 H 0.62898 0.53089 0.62166 0.0
H746 H 0.62284 0.40776 0.70133 0.0
H747 H 0.62204 0.38867 0.66293 0.0
H748 H 0.66717 0.42184 0.68092 0.0
H749 H 0.56193 0.49867 0.62407 0.0
H750 H 0.54122 0.44791 0.61809 0.0
H751 H 0.54164 0.46584 0.65686 0.0
H752 H 0.50317 0.32031 0.6305 0.0
H753 H 0.50279 0.35845 0.72536 0.0
H754 H 0.5934 0.38942 0.60925 0.0
H755 H 0.56486 0.40923 0.59619 0.0
H756 H 0.54706 0.35865 0.59204 0.0
H757 H 0.59017 0.43763 0.72649 0.0
H758 H 0.54266 0.42302 0.74055 0.0
H759 H 0.56412 0.4583 0.70951 0.0
C760 C 0.64727 0.1445 0.64887 0.0
C761 C 0.66027 0.15118 0.68028 0.0
C762 C 0.6111 0.13891 0.64101 0.0
C763 C 0.58715 0.13938 0.66528 0.0
C764 C 0.59909 0.14331 0.69733 0.0
C765 C 0.63562 0.14908 0.70448 0.0
C766 C 0.59951 0.13471 0.60657 0.0
C767 C 0.57415 0.14349 0.7239 0.0
C768 C 0.52028 0.1766 0.64462 0.0
C769 C 0.48492 0.14285 0.64245 0.0
C770 C 0.55372 0.17572 0.65169 0.0
C771 C 0.55174 0.14011 0.65682 0.0
C772 C 0.51621 0.10576 0.65379 0.0
C773 C 0.48315 0.10753 0.64639 0.0
C774 C 0.59112 0.213 0.65406 0.0
C775 C 0.513 0.0673 0.65919 0.0
H776 H 0.66595 0.14487 0.63025 0.0
H777 H 0.64554 0.15366 0.72882 0.0
H778 H 0.57035 0.10989 0.6033 0.0
H779 H 0.59879 0.16059 0.59877 0.0
H780 H 0.6196 0.13098 0.591 0.0
H781 H 0.58561 0.14246 0.74759 0.0
H782 H 0.57212 0.16987 0.72247 0.0
H783 H 0.54473 0.11878 0.72164 0.0
H784 H 0.52183 0.20381 0.6407 0.0
H785 H 0.45572 0.0814 0.64485 0.0
H786 H 0.61223 0.21295 0.63725 0.0
H787 H 0.60313 0.21631 0.67825 0.0
H788 H 0.5878 0.23817 0.64886 0.0
H789 H 0.53327 0.06396 0.64361 0.0
H790 H 0.48363 0.04325 0.65465 0.0
H791 H 0.52089 0.06534 0.68402 0.0
C792 C 0.3838 0.12048 0.04061 0.0
C793 C 0.35559 0.12847 0.05085 0.0
C794 C 0.37445 0.08884 0.02115 0.0
C795 C 0.3358 0.06422 0.01251 0.0
C796 C 0.30723 0.07243 0.02276 0.0
C797 C 0.31758 0.1048 0.04164 0.0
C798 C 0.40582 0.08153 0.01015 0.0
C799 C 0.26564 0.04647 0.01453 0.0
C800 C 0.31226 0.99825 0.9417 0.0
C801 C 0.30431 0.9638 0.9562 0.0
C802 C 0.32318 0.03133 0.9597 0.0
C803 C 0.32521 0.02961 0.99308 0.0
C804 C 0.31703 0.99483 0.00789 0.0
C805 C 0.30715 0.96239 0.98919 0.0
C806 C 0.33264 0.06811 0.943 0.0
C807 C 0.31813 0.99173 0.04349 0.0
H808 H 0.41316 0.1389 0.04809 0.0
H809 H 0.29586 0.11096 0.0501 0.0
H810 H 0.40103 0.05395 0.01988 0.0
H811 H 0.40536 0.07919 0.98393 0.0
H812 H 0.43462 0.10452 0.01763 0.0
H813 H 0.24701 0.05696 0.02433 0.0
H814 H 0.26196 0.04392 0.98844 0.0
H815 H 0.25583 0.01733 0.02393 0.0
H816 H 0.31035 0.99946 0.91613 0.0
H817 H 0.30068 0.93568 0.00045 0.0
H818 H 0.36195 0.09088 0.94944 0.0
H819 H 0.31269 0.07792 0.95074 0.0
H820 H 0.33087 0.06491 0.9168 0.0
H821 H 0.34715 0.01211 0.05247 0.0
H822 H 0.31036 0.96245 0.05132 0.0
H823 H 0.29804 0.99956 0.05456 0.0
C824 C 0.89653 0.21696 0.04996 0.0
C825 C 0.87205 0.23112 0.05689 0.0
C826 C 0.92893 0.23795 0.03091 0.0
C827 C 0.93631 0.27345 0.01811 0.0
C828 C 0.9111 0.28744 0.02469 0.0
C829 C 0.87945 0.26625 0.04442 0.0
C830 C 0.95557 0.2225 0.02492 0.0
C831 C 0.91758 0.32474 0.01093 0.0
C832 C 0.03695 0.34548 0.99142 0.0
C833 C 0.03481 0.33804 0.95885 0.0
C834 C 0.00517 0.32435 0.01112 0.0
C835 C 0.97031 0.29587 0.99769 0.0
C836 C 0.96788 0.28873 0.96471 0.0
C837 C 0.00032 0.3096 0.94574 0.0
C838 C 0.00899 0.33215 0.04632 0.0
C839 C 0.93096 0.2592 0.94944 0.0
H840 H 0.8908 0.18993 0.06013 0.0
H841 H 0.86035 0.27702 0.05009 0.0
H842 H 0.9575 0.21842 -0.00087 0.0
H843 H 0.98478 0.24339 0.03324 0.0
H844 H 0.94605 0.19478 0.03709 0.0
H845 H 0.89458 0.33092 0.01757 0.0
H846 H 0.94532 0.34864 0.01929 0.0
H847 H 0.91906 0.32397 0.9847 0.0
H848 H 0.0637 0.36727 0.00161 0.0
H849 H 0.99853 0.304 0.92049 0.0
H850 H 0.00187 0.30559 0.05944 0.0
H851 H 0.98845 0.3412 0.05406 0.0
H852 H 0.0383 0.35474 0.05308 0.0
H853 H 0.92188 0.23052 0.95946 0.0
H854 H 0.93361 0.2579 0.92333 0.0
H855 H 0.90794 0.26583 0.95466 0.0
C856 C 0.78151 0.68416 0.05432 0.0
C857 C 0.7676 0.64599 0.06281 0.0
C858 C 0.75908 0.69466 0.03625 0.0
C859 C 0.72234 0.66606 0.02605 0.0
C860 C 0.70851 0.62732 0.03427 0.0
C861 C 0.73123 0.61781 0.05296 0.0
C862 C 0.77447 0.73632 0.02841 0.0
C863 C 0.66986 0.59598 0.02322 0.0
C864 C 0.65008 0.69512 0.00105 0.0
C865 C 0.65538 0.69817 0.96817 0.0
C866 C 0.6719 0.68489 0.02032 0.0
C867 C 0.69876 0.67661 0.00614 0.0
C868 C 0.70349 0.67878 0.97286 0.0
C869 C 0.68207 0.69001 0.95431 0.0
C870 C 0.66673 0.68361 0.05582 0.0
C871 C 0.73119 0.66927 0.95684 0.0
H872 H 0.80955 0.70584 0.06249 0.0
H873 H 0.72068 0.58832 0.05984 0.0
H874 H 0.77673 0.74043 0.00235 0.0
H875 H 0.75447 0.74562 0.03713 0.0
H876 H 0.80308 0.75508 0.03903 0.0
H877 H 0.66367 0.56723 0.03127 0.0
H878 H 0.64708 0.60122 0.03225 0.0
H879 H 0.66847 0.59596 0.99695 0.0
H880 H 0.62962 0.70169 0.01176 0.0
H881 H 0.68593 0.69201 0.92881 0.0
H882 H 0.69427 0.70386 0.06732 0.0
H883 H 0.65816 0.65463 0.06488 0.0
H884 H 0.64481 0.69107 0.0631 0.0
H885 H 0.76076 0.68929 0.96491 0.0
H886 H 0.73031 0.67093 0.9306 0.0
H887 H 0.72456 0.64 0.96352 0.0
C888 C 0.97423 0.3331 0.5183 0.0
C889 C 0.96473 0.30594 0.54242 0.0
C890 C 0.00628 0.34379 0.4989 0.0
C891 C 0.02944 0.32707 0.50392 0.0
C892 C 0.02007 0.29974 0.52828 0.0
C893 C 0.98777 0.2894 0.54714 0.0
C894 C 0.01528 0.37283 0.47295 0.0
C895 C 0.04419 0.28142 0.53443 0.0
C896 C 0.09093 0.32714 0.43593 0.0
C897 C 0.1266 0.35841 0.44369 0.0
C898 C 0.05902 0.31661 0.45535 0.0
C899 C 0.06316 0.33768 0.48335 0.0
C900 C 0.09946 0.36878 0.49165 0.0
C901 C 0.13085 0.37884 0.47161 0.0
C902 C 0.02082 0.28328 0.44571 0.0
C903 C 0.10502 0.39166 0.52147 0.0
H904 H 0.95656 0.34597 0.51448 0.0
H905 H 0.98074 0.26846 0.5658 0.0
H906 H 0.04435 0.39773 0.47648 0.0
H907 H 0.01517 0.36009 0.44962 0.0
H908 H 0.99446 0.3832 0.47218 0.0
H909 H 0.03336 0.26113 0.55467 0.0
H910 H 0.04476 0.26576 0.51302 0.0
H911 H 0.07413 0.30379 0.53948 0.0
H912 H 0.08798 0.31122 0.4144 0.0
H913 H 0.15859 0.40305 0.47743 0.0
H914 H 0.99969 0.29297 0.4427 0.0
H915 H 0.00984 0.26121 0.4646 0.0
H916 H 0.02252 0.26987 0.42323 0.0
H917 H 0.08693 0.40518 0.52057 0.0
H918 H 0.13526 0.41442 0.52486 0.0
H919 H 0.09581 0.3725 0.54242 0.0
C920 C 0.61751 0.72981 0.44279 0.0
C921 C 0.64556 0.76632 0.43307 0.0
C922 C 0.62711 0.70726 0.46164 0.0
C923 C 0.66581 0.72141 0.47016 0.0
C924 C 0.69427 0.75828 0.46008 0.0
C925 C 0.68368 0.78052 0.44185 0.0
C926 C 0.5959 0.66845 0.47252 0.0
C927 C 0.7359 0.774 0.46823 0.0
C928 C 0.68974 0.68129 0.54206 0.0
C929 C 0.69843 0.65496 0.52825 0.0
C930 C 0.67833 0.70253 0.52344 0.0
C931 C 0.67648 0.69796 0.49015 0.0
C932 C 0.68527 0.67143 0.47602 0.0
C933 C 0.69571 0.64982 0.49534 0.0
C934 C 0.66829 0.72987 0.53941 0.0
C935 C 0.68434 0.66643 0.44051 0.0
H936 H 0.58806 0.71904 0.43569 0.0
H937 H 0.70527 0.80866 0.43379 0.0
H938 H 0.60146 0.64587 0.46352 0.0
H939 H 0.59567 0.66696 0.49878 0.0
H940 H 0.56715 0.66205 0.4643 0.0
H941 H 0.75456 0.80272 0.45775 0.0
H942 H 0.73974 0.77614 0.49432 0.0
H943 H 0.74557 0.75425 0.45958 0.0
H944 H 0.6915 0.68504 0.56757 0.0
H945 H 0.70268 0.62964 0.48465 0.0
H946 H 0.639 0.72299 0.53253 0.0
H947 H 0.68817 0.75955 0.53148 0.0
H948 H 0.6697 0.72887 0.56566 0.0
H949 H 0.65538 0.65764 0.43128 0.0
H950 H 0.69212 0.64473 0.43328 0.0
H951 H 0.70451 0.69409 0.42913 0.0
C952 C 0.30002 0.01337 0.53914 0.0
C953 C 0.34009 0.03381 0.53723 0.0
C954 C 0.27823 0.98181 0.51949 0.0
C955 C 0.29695 0.97047 0.49733 0.0
C956 C 0.33734 0.99115 0.49503 0.0
C957 C 0.35846 0.0226 0.51504 0.0
C958 C 0.2352 0.96045 0.52258 0.0
C959 C 0.35823 0.97991 0.47154 0.0
C960 C 0.24464 0.86864 0.46615 0.0
C961 C 0.23252 0.87376 0.43646 0.0
C962 C 0.26549 0.89991 0.48638 0.0
C963 C 0.27423 0.93695 0.4765 0.0
C964 C 0.26135 0.94202 0.44667 0.0
C965 C 0.24043 0.91022 0.42704 0.0
C966 C 0.27854 0.8934 0.51812 0.0
C967 C 0.27001 0.98104 0.43537 0.0
H968 H 0.28556 0.02185 0.55619 0.0
H969 H 0.38939 0.03824 0.51341 0.0
H970 H 0.22195 0.96058 0.49959 0.0
H971 H 0.22489 0.93013 0.5288 0.0
H972 H 0.22506 0.97305 0.54094 0.0
H973 H 0.38972 0.99918 0.47252 0.0
H974 H 0.35175 0.95023 0.47628 0.0
H975 H 0.34829 0.98045 0.44714 0.0
H976 H 0.2383 0.84025 0.47327 0.0
H977 H 0.23049 0.91383 0.40413 0.0
H978 H 0.26756 0.904 0.53741 0.0
H979 H 0.31022 0.90981 0.51943 0.0
H980 H 0.26873 0.86272 0.52247 0.0
H981 H 0.25852 0.99367 0.45244 0.0
H982 H 0.25764 0.97998 0.41162 0.0
H983 H 0.30141 0.00049 0.43417 0.0
C984 C 0.71426 0.01573 0.04569 0.0
C985 C 0.69509 0.03657 0.04299 0.0
C986 C 0.7052 0.98451 0.02583 0.0
C987 C 0.67641 0.974 0.0026 0.0
C988 C 0.65716 0.99506 -0.00048 0.0
C989 C 0.6667 0.02611 0.01982 0.0
C990 C 0.72627 0.96265 0.02984 0.0
C991 C 0.62642 0.9847 0.97485 0.0
C992 C 0.67637 0.91456 0.93301 0.0
C993 C 0.64733 0.87802 0.94171 0.0
C994 C 0.68603 0.94618 0.95255 0.0
C995 C 0.66639 0.94083 0.98159 0.0
C996 C 0.63746 0.90374 0.9907 0.0
C997 C 0.62828 0.87267 0.97057 0.0
C998 C 0.71711 0.98528 0.94212 0.0
C999 C 0.61613 0.89692 0.0216 0.0
H1000 H 0.73625 0.0236 0.06353 0.0
H1001 H 0.65182 0.04211 0.01755 0.0
H1002 H 0.70569 0.93226 0.03538 0.0
H1003 H 0.74082 0.96312 0.0074 0.0
H1004 H 0.74797 0.97459 0.04903 0.0
H1005 H 0.61448 0.00424 0.9753 0.0
H1006 H 0.63816 0.98566 0.95088 0.0
H1007 H 0.60278 0.95503 0.97879 0.0
H1008 H 0.69147 0.91833 0.91085 0.0
H1009 H 0.60589 0.84422 0.97717 0.0
H1010 H 0.74051 0.99729 0.95986 0.0
H1011 H 0.70557 0.00507 0.94062 0.0
H1012 H 0.72933 0.98456 0.9187 0.0
H1013 H 0.63655 0.90675 0.04171 0.0
H1014 H 0.59463 0.86628 0.02524 0.0
H1015 H 0.6013 0.9138 0.02217 0.0
C1016 C 0.98558 0.7084 0.04477 0.0
C1017 C 0.96654 0.66831 0.04313 0.0
C1018 C 0.01683 0.73096 0.02502 0.0
C1019 C 0.02924 0.71302 0.00299 0.0
C1020 C 0.00994 0.67261 0.00096 0.0
C1021 C 0.97884 0.65072 0.0211 0.0
C1022 C 0.03675 0.77399 0.02788 0.0
C1023 C 0.02226 0.6525 0.9776 0.0
C1024 C 0.08789 0.76886 0.93175 0.0
C1025 C 0.12467 0.77745 0.94082 0.0
C1026 C 0.05656 0.74828 0.95194 0.0
C1027 C 0.06241 0.73649 0.982 0.0
C1028 C 0.09985 0.74635 0.99167 0.0
C1029 C 0.13063 0.76681 0.97088 0.0
C1030 C 0.01712 0.73843 0.94083 0.0
C1031 C 0.10724 0.73456 0.02364 0.0
H1032 H 0.9763 0.72226 0.06173 0.0
H1033 H 0.96428 0.61979 0.01964 0.0
H1034 H 0.06727 0.78544 0.03408 0.0
H1035 H 0.03602 0.78676 0.0048 0.0
H1036 H 0.02347 0.78348 0.04615 0.0
H1037 H 0.00399 0.62089 0.97876 0.0
H1038 H 0.02118 0.66198 0.95313 0.0
H1039 H 0.0523 0.66019 0.98231 0.0
H1040 H 0.08362 0.77779 0.90861 0.0
H1041 H 0.15926 0.77375 0.97779 0.0
H1042 H 0.00389 0.74915 0.95804 0.0
H1043 H 0.9985 0.70691 0.93955 0.0
H1044 H 0.01765 0.7507 0.91715 0.0
H1045 H 0.09569 0.74485 0.04271 0.0
H1046 H 0.13819 0.7459 0.02806 0.0
H1047 H 0.09222 0.7029 0.02525 0.0
C1048 C 0.21799 0.31779 0.94464 0.0
C1049 C 0.22558 0.35555 0.94353 0.0
C1050 C 0.24085 0.30799 0.96292 0.0
C1051 C 0.27163 0.33671 0.98066 0.0
C1052 C 0.27873 0.3748 0.98007 0.0
C1053 C 0.25576 0.38384 0.96119 0.0
C1054 C 0.23269 0.26719 0.96265 0.0
C1055 C 0.31088 0.40606 -0.00098 0.0
C1056 C 0.30988 0.30461 0.04899 0.0
C1057 C 0.34342 0.30795 0.03596 0.0
C1058 C 0.28649 0.31424 0.03135 0.0
C1059 C 0.29651 0.32693 -0.00027 0.0
C1060 C 0.33024 0.33024 0.98635 0.0
C1061 C 0.3535 0.32101 0.00475 0.0
C1062 C 0.25111 0.31095 0.04661 0.0
C1063 C 0.34153 0.34319 0.95253 0.0
H1064 H 0.19487 0.29621 0.93044 0.0
H1065 H 0.26163 0.41312 0.95984 0.0
H1066 H 0.25796 0.26621 0.9535 0.0
H1067 H 0.22737 0.25562 0.98712 0.0
H1068 H 0.20754 0.24829 0.94775 0.0
H1069 H 0.31157 0.43384 0.99696 0.0
H1070 H 0.30789 0.39789 0.02441 0.0
H1071 H 0.3387 0.40998 0.99077 0.0
H1072 H 0.30204 0.29478 0.07319 0.0
H1073 H 0.37926 0.32344 0.99452 0.0
H1074 H 0.22531 0.29037 0.03321 0.0
H1075 H 0.25233 0.33902 0.04588 0.0
H1076 H 0.24775 0.30132 0.07166 0.0
H1077 H 0.31835 0.32375 0.93622 0.0
H1078 H 0.36837 0.34381 0.94556 0.0
H1079 H 0.3455 0.37223 0.94929 0.0
C1080 C 0.02754 0.66767 0.47612 0.0
C1081 C 0.03878 0.6961 0.45287 0.0
C1082 C 0.99642 0.65876 0.49615 0.0
C1083 C 0.97606 0.6787 0.49273 0.0
C1084 C 0.98739 0.70755 0.46944 0.0
C1085 C 0.01865 0.71596 0.44985 0.0
C1086 C 0.98519 0.62793 0.52088 0.0
C1087 C 0.96632 0.72938 0.46508 0.0
C1088 C 0.87452 0.63195 0.52423 0.0
C1089 C 0.87998 0.65083 0.5532 0.0
C1090 C 0.90559 0.64086 0.50418 0.0
C1091 C 0.9428 0.66934 0.51347 0.0
C1092 C 0.94824 0.68898 0.54251 0.0
C1093 C 0.91662 0.67957 0.562 0.0
C1094 C 0.89868 0.61953 0.47327 0.0
C1095 C 0.98745 0.71962 0.55313 0.0
H1096 H 0.04298 0.65225 0.47864 0.0
H1097 H 0.02712 0.738 0.43195 0.0
H1098 H 0.9861 0.63979 0.5448 0.0
H1099 H 0.95538 0.60468 0.51674 0.0
H1100 H 0.00424 0.61543 0.52073 0.0
H1101 H 0.97888 0.75108 0.44593 0.0
H1102 H 0.9359 0.70927 0.45928 0.0
H1103 H 0.96681 0.74404 0.48746 0.0
H1104 H 0.84601 0.60976 0.51758 0.0
H1105 H 0.9205 0.69447 0.58428 0.0
H1106 H 0.91484 0.60396 0.47297 0.0
H1107 H 0.90928 0.64001 0.4532 0.0
H1108 H 0.86791 0.59864 0.46935 0.0
H1109 H 0.0067 0.70749 0.55512 0.0
H1110 H 0.98672 0.73221 0.57636 0.0
H1111 H 1.00011 0.74284 0.53525 0.0
C1112 C 0.36956 0.23544 0.52221 0.0
C1113 C 0.35766 0.22926 0.55386 0.0
C1114 C 0.36081 0.25796 0.50238 0.0
C1115 C 0.33992 0.27472 0.5147 0.0
C1116 C 0.32729 0.26789 0.54656 0.0
C1117 C 0.33611 0.24498 0.56569 0.0
C1118 C 0.37436 0.26428 0.46841 0.0
C1119 C 0.30502 0.28526 0.5606 0.0
C1120 C 0.34862 0.36244 0.47349 0.0
C1121 C 0.31446 0.3466 0.45616 0.0
C1122 C 0.35725 0.33937 0.49275 0.0
C1123 C 0.33129 0.29951 0.49436 0.0
C1124 C 0.29678 0.28338 0.47693 0.0
C1125 C 0.28867 0.30714 0.45822 0.0
C1126 C 0.39411 0.35763 0.51138 0.0
C1127 C 0.26853 0.24097 0.47787 0.0
H1128 H 0.38636 0.22332 0.51321 0.0
H1129 H 0.32664 0.23977 0.59016 0.0
H1130 H 0.34974 0.25532 0.45215 0.0
H1131 H 0.3943 0.29517 0.46424 0.0
H1132 H 0.38917 0.2482 0.46223 0.0
H1133 H 0.29724 0.27701 0.58578 0.0
H1134 H 0.32216 0.31691 0.55913 0.0
H1135 H 0.27842 0.27613 0.54686 0.0
H1136 H 0.36863 0.39289 0.47207 0.0
H1137 H 0.26227 0.29458 0.44477 0.0
H1138 H 0.41184 0.34493 0.50433 0.0
H1139 H 0.38785 0.35187 0.53704 0.0
H1140 H 0.41106 0.38907 0.50776 0.0
H1141 H 0.28262 0.22478 0.47002 0.0
H1142 H 0.24324 0.23286 0.46256 0.0
H1143 H 0.25852 0.23194 0.50252 0.0
C1144 C 0.76018 0.12775 0.52669 0.0
C1145 C 0.77321 0.12223 0.55582 0.0
C1146 C 0.73961 0.09694 0.50596 0.0
C1147 C 0.73199 0.0599 0.51476 0.0
C1148 C 0.7459 0.05448 0.54395 0.0
C1149 C 0.76659 0.08585 0.56407 0.0
C1150 C 0.72552 0.10387 0.47491 0.0
C1151 C 0.7384 0.01547 0.55414 0.0
C1152 C 0.6474 0.97433 0.4764 0.0
C1153 C 0.66545 0.96388 0.45329 0.0
C1154 C 0.66875 0.00546 0.49666 0.0
C1155 C 0.70905 0.02671 0.49362 0.0
C1156 C 0.72746 0.01622 0.47045 0.0
C1157 C 0.70545 0.98486 0.45063 0.0
C1158 C 0.64818 0.01569 0.52128 0.0
C1159 C 0.77038 0.03828 0.46645 0.0
H1160 H 0.7655 0.15605 0.52046 0.0
H1161 H 0.77724 0.08191 0.58652 0.0
H1162 H 0.73608 0.09382 0.45491 0.0
H1163 H 0.69381 0.08724 0.47422 0.0
H1164 H 0.73493 0.13457 0.47118 0.0
H1165 H 0.75169 0.01625 0.57739 0.0
H1166 H 0.70714 0.99551 0.55592 0.0
H1167 H 0.74969 0.00361 0.53615 0.0
H1168 H 0.61653 0.95824 0.47864 0.0
H1169 H 0.71967 0.97704 0.43281 0.0
H1170 H 0.65405 0.04531 0.51731 0.0
H1171 H 0.65894 0.01481 0.54528 0.0
H1172 H 0.61674 0.99604 0.52081 0.0
H1173 H 0.78001 0.06863 0.46092 0.0
H1174 H 0.78026 0.02642 0.44726 0.0
H1175 H 0.78447 0.0379 0.4889 0.0
C1176 C 0.25587 0.29416 0.31611 0.0
C1177 C 0.23336 0.30939 0.30518 0.0
C1178 C 0.26703 0.27408 0.29585 0.0
C1179 C 0.25458 0.26812 0.264 0.0
C1180 C 0.22828 0.27947 0.25378 0.0
C1181 C 0.21829 0.30047 0.27442 0.0
C1182 C 0.29565 0.26322 0.30772 0.0
C1183 C 0.21322 0.2723 0.22029 0.0
C1184 C 0.32935 0.27874 0.20474 0.0
C1185 C 0.31934 0.24074 0.19896 0.0
C1186 C 0.30819 0.28776 0.22562 0.0
C1187 C 0.27533 0.2579 0.24042 0.0
C1188 C 0.26451 0.21925 0.23418 0.0
C1189 C 0.28717 0.21106 0.2138 0.0
C1190 C 0.32157 0.3294 0.23225 0.0
C1191 C 0.22896 0.18678 0.24874 0.0
H1192 H 0.26717 0.30017 0.34003 0.0
H1193 H 0.20031 0.31146 0.26591 0.0
H1194 H 0.28784 0.23397 0.29997 0.0
H1195 H 0.32421 0.2832 0.2976 0.0
H1196 H 0.29806 0.26462 0.33397 0.0
H1197 H 0.187 0.27459 0.21819 0.0
H1198 H 0.23528 0.29378 0.20426 0.0
H1199 H 0.20674 0.24356 0.21205 0.0
H1200 H 0.35436 0.30161 0.19319 0.0
H1201 H 0.27926 0.18166 0.20884 0.0
H1202 H 0.32689 0.33527 0.258 0.0
H1203 H 0.2991 0.33615 0.22534 0.0
H1204 H 0.34822 0.34902 0.21925 0.0
H1205 H 0.23149 0.18777 0.27493 0.0
H1206 H 0.22358 0.1584 0.2404 0.0
H1207 H 0.2038 0.18977 0.24281 0.0
C1208 C 0.78902 0.06494 0.19595 0.0
C1209 C 0.77585 0.08978 0.2049 0.0
C1210 C 0.78039 0.03259 0.2142 0.0
C1211 C 0.75662 0.02419 0.24111 0.0
C1212 C 0.74555 0.05073 0.25141 0.0
C1213 C 0.75592 0.08366 0.23337 0.0
C1214 C 0.79435 0.00605 0.20334 0.0
C1215 C 0.71971 0.0426 0.27973 0.0
C1216 C 0.6831 0.92209 0.26131 0.0
C1217 C 0.69606 0.91818 0.29101 0.0
C1218 C 0.70382 0.95589 0.2438 0.0
C1219 C 0.73886 0.98572 0.25597 0.0
C1220 C 0.75399 0.98002 0.28433 0.0
C1221 C 0.73194 0.94656 0.30193 0.0
C1222 C 0.68637 0.96101 0.21386 0.0
C1223 C 0.79206 0.01028 0.29728 0.0
H1224 H 0.80445 0.06982 0.17381 0.0
H1225 H 0.74534 0.10268 0.23993 0.0
H1226 H 0.8029 0.99481 0.22386 0.0
H1227 H 0.77096 0.98128 0.19075 0.0
H1228 H 0.81902 0.0206 0.18688 0.0
H1229 H 0.71565 0.06715 0.28569 0.0
H1230 H 0.69128 0.01733 0.27471 0.0
H1231 H 0.73154 0.03568 0.30077 0.0
H1232 H 0.6551 0.9003 0.25315 0.0
H1233 H 0.74189 0.94339 0.32499 0.0
H1234 H 0.70716 0.97023 0.19406 0.0
H1235 H 0.67896 0.98377 0.21754 0.0
H1236 H 0.66006 0.93435 0.20673 0.0
H1237 H 0.81331 0.02385 0.27794 0.0
H1238 H 0.80351 0.99825 0.31502 0.0
H1239 H 0.78866 0.033 0.309 0.0
C1240 C 0.92249 0.68217 0.23482 0.0
C1241 C 0.91843 0.69564 0.2054 0.0
C1242 C 0.95616 0.70287 0.25246 0.0
C1243 C 0.98566 0.73839 0.24074 0.0
C1244 C 0.97971 0.75399 0.21277 0.0
C1245 C 0.94641 0.73196 0.19499 0.0
C1246 C 0.96156 0.68491 0.28197 0.0
C1247 C 0.00959 0.79256 0.20036 0.0
C1248 C 0.06493 0.78767 0.30081 0.0
C1249 C 0.09005 0.77514 0.29114 0.0
C1250 C 0.03242 0.77916 0.28284 0.0
C1251 C 0.02417 0.75612 0.25547 0.0
C1252 C 0.05095 0.7457 0.2445 0.0
C1253 C 0.08402 0.75597 0.26229 0.0
C1254 C 0.00562 0.79245 0.29443 0.0
C1255 C 0.04298 0.72063 0.21567 0.0
H1256 H 0.90098 0.65384 0.24257 0.0
H1257 H 0.94311 0.7423 0.17215 0.0
H1258 H 0.98455 0.67792 0.27786 0.0
H1259 H 0.9706 0.70523 0.3021 0.0
H1260 H 0.93507 0.65828 0.28883 0.0
H1261 H 0.99726 0.80419 0.18308 0.0
H1262 H 0.02299 0.81334 0.22004 0.0
H1263 H 0.03249 0.78984 0.18824 0.0
H1264 H 0.06977 0.80255 0.32323 0.0
H1265 H 0.1033 0.74591 0.25514 0.0
H1266 H 0.98111 0.76865 0.30693 0.0
H1267 H 0.99402 0.8012 0.27429 0.0
H1268 H 0.02008 0.81683 0.31118 0.0
H1269 H 0.01783 0.69199 0.22031 0.0
H1270 H 0.06764 0.71692 0.20931 0.0
H1271 H 0.03594 0.73293 0.19501 0.0
C1272 C 0.78612 0.70948 0.71218 0.0
C1273 C 0.75713 0.67837 0.69578 0.0
C1274 C 0.77718 0.73178 0.73228 0.0
C1275 C 0.73838 0.72157 0.7367 0.0
C1276 C 0.7092 0.68994 0.72013 0.0
C1277 C 0.71905 0.66918 0.69954 0.0
C1278 C 0.80903 0.76607 0.74878 0.0
C1279 C 0.66737 0.67719 0.72481 0.0
C1280 C 0.69999 0.73722 0.81287 0.0
C1281 C 0.68666 0.76182 0.80316 0.0
C1282 C 0.71956 0.72612 0.79206 0.0
C1283 C 0.72715 0.74083 0.76089 0.0
C1284 C 0.71722 0.76859 0.75181 0.0
C1285 C 0.69647 0.77836 0.77294 0.0
C1286 C 0.72854 0.69565 0.80256 0.0
C1287 C 0.72627 0.78603 0.71912 0.0
H1288 H 0.81563 0.71683 0.70871 0.0
H1289 H 0.69673 0.64505 0.68668 0.0
H1290 H 0.80555 0.79144 0.74543 0.0
H1291 H 0.80787 0.76062 0.77462 0.0
H1292 H 0.83766 0.77289 0.73989 0.0
H1293 H 0.64833 0.65184 0.71016 0.0
H1294 H 0.65946 0.66992 0.75009 0.0
H1295 H 0.66189 0.70072 0.7186 0.0
H1296 H 0.69301 0.72446 0.83627 0.0
H1297 H 0.6869 0.79788 0.76542 0.0
H1298 H 0.75833 0.70378 0.79641 0.0
H1299 H 0.70935 0.6685 0.79003 0.0
H1300 H 0.72456 0.69024 0.82848 0.0
H1301 H 0.75519 0.79243 0.7115 0.0
H1302 H 0.72477 0.81275 0.71816 0.0
H1303 H 0.70535 0.76545 0.70191 0.0
C1304 C 0.21911 0.94349 0.80166 0.0
C1305 C 0.22836 0.91578 0.79236 0.0
C1306 C 0.22961 0.97597 0.78294 0.0
C1307 C 0.25141 0.9815 0.75517 0.0
C1308 C 0.25889 0.95243 0.74482 0.0
C1309 C 0.24662 0.9195 0.76336 0.0
C1310 C 0.21948 0.00538 0.79396 0.0
C1311 C 0.28269 0.9575 0.71566 0.0
C1312 C 0.27623 0.05658 0.6919 0.0
C1313 C 0.31356 0.08388 0.70072 0.0
C1314 C 0.25402 0.02458 0.71102 0.0
C1315 C 0.27026 0.01914 0.73882 0.0
C1316 C 0.30701 0.04803 0.74889 0.0
C1317 C 0.32803 0.08047 0.72987 0.0
C1318 C 0.2143 0.99537 0.70028 0.0
C1319 C 0.32564 0.04309 0.77816 0.0
H1320 H 0.20505 0.9405 0.82425 0.0
H1321 H 0.25426 0.89826 0.75656 0.0
H1322 H 0.24484 0.02972 0.80511 0.0
H1323 H 0.21079 0.0168 0.77366 0.0
H1324 H 0.19596 0.99328 0.81167 0.0
H1325 H 0.28445 0.93152 0.71012 0.0
H1326 H 0.2706 0.9645 0.69484 0.0
H1327 H 0.31213 0.98178 0.71932 0.0
H1328 H 0.2651 0.05937 0.66928 0.0
H1329 H 0.35709 0.10139 0.73643 0.0
H1330 H 0.19427 0.98461 0.72067 0.0
H1331 H 0.21488 0.97058 0.68955 0.0
H1332 H 0.20308 0.00738 0.68231 0.0
H1333 H 0.30642 0.03597 0.79891 0.0
H1334 H 0.35325 0.06918 0.78376 0.0
H1335 H 0.33102 0.01894 0.77456 0.0
C1336 C 0.07991 0.32807 0.7647 0.0
C1337 C 0.08481 0.31281 0.79285 0.0
C1338 C 0.04745 0.30672 0.74578 0.0
C1339 C 0.02014 0.26888 0.75487 0.0
C1340 C 0.02721 0.25211 0.78153 0.0
C1341 C 0.05912 0.27462 0.80067 0.0
C1342 C 0.04071 0.32593 0.7178 0.0
C1343 C 0.99979 0.21134 0.79114 0.0
C1344 C 0.91881 0.24127 0.73227 0.0
C1345 C 0.91585 0.22508 0.70238 0.0
C1346 C 0.95207 0.25398 0.75047 0.0
C1347 C 0.98233 0.24911 0.73881 0.0
C1348 C 0.97767 0.22921 0.71006 0.0
C1349 C 0.94476 0.21816 0.6918 0.0
C1350 C 0.95611 0.27562 0.78078 0.0
C1351 C 0.00843 0.22183 0.69756 0.0
H1352 H 0.09955 0.35782 0.75902 0.0
H1353 H 0.06301 0.26294 0.82259 0.0
H1354 H 0.03432 0.30805 0.69625 0.0
H1355 H 0.01552 0.32932 0.72256 0.0
H1356 H 0.06572 0.3546 0.71284 0.0
H1357 H 0.01324 0.20029 0.80787 0.0
H1358 H 0.97454 0.20983 0.80298 0.0
H1359 H 0.98943 0.19237 0.77007 0.0
H1360 H 0.89663 0.24706 0.74015 0.0
H1361 H 0.94234 0.20562 0.66858 0.0
H1362 H 0.97915 0.30583 0.77797 0.0
H1363 H 0.96441 0.26327 0.80062 0.0
H1364 H 0.92927 0.27524 0.78732 0.0
H1365 H 0.03187 0.2485 0.68714 0.0
H1366 H 0.99727 0.1994 0.67891 0.0
H1367 H 0.02083 0.21292 0.71697 0.0
loop_
_geom_bond_atom_site_label_1
_geom_bond_atom_site_label_2
_geom_bond_distance
_geom_bond_site_symmetry_2
_ccdc_geom_bond_type
Co0 O3 1.970 . S
Co0 N17 1.989 . S
Co0 O25 1.967 . S
Co0 O32 1.920 . S
Co1 O4 1.966 . S
Co1 N10 2.022 . S
Co1 N18 1.993 . S
Co1 O26 1.941 . S
C2 O3 1.258 . S
C2 O4 1.263 . S
O3 Co0 1.970 . S
O3 C2 1.258 . S
O4 Co1 1.966 . S
O4 C2 1.263 . S
C5 O6 1.235 . S
C5 O32 1.289 . S
O6 C5 1.235 . S
C7 C9 1.400 . S
C7 N10 1.351 . S
C7 C12 1.501 . S
C8 C9 1.387 . S
C8 N11 1.341 . S
C9 C7 1.400 . S
C9 C8 1.387 . S
N10 Co1 2.022 . S
N10 C7 1.351 . S
N10 N11 1.365 . S
N11 C8 1.341 . S
N11 N10 1.365 . S
N11 H31 0.862 . S
C12 C7 1.501 . S
C12 H13 0.961 . S
C12 H14 0.961 . S
C12 H15 0.960 . S
H13 C12 0.961 . S
H14 C12 0.961 . S
H15 C12 0.960 . S
C16 N17 1.342 . S
C16 C20 1.401 . S
C16 C21 1.499 . S
N17 Co0 1.989 . S
N17 C16 1.342 . S
N17 N18 1.388 . S
N18 Co1 1.993 . S
N18 N17 1.388 . S
N18 C19 1.346 . S
C19 N18 1.346 . S
C19 C20 1.396 . S
C19 C29 1.510 . S
C20 C16 1.401 . S
C20 C19 1.396 . S
C21 C16 1.499 . S
C21 H22 0.959 . S
C21 H23 0.960 . S
C21 H24 0.961 . S
H22 C21 0.959 . S
H23 C21 0.960 . S
H24 C21 0.961 . S
O25 Co0 1.967 . S
O25 C33 1.258 . S
O26 Co1 1.941 . S
O26 C33 1.266 . S
H27 C29 0.959 . S
H28 C29 0.961 . S
C29 C19 1.510 . S
C29 H27 0.959 . S
C29 H28 0.961 . S
C29 H30 0.960 . S
H30 C29 0.960 . S
H31 N11 0.862 . S
O32 Co0 1.920 . S
O32 C5 1.289 . S
C33 O25 1.258 . S
C33 O26 1.266 . S
Co34 O37 1.970 . S
Co34 N51 1.989 . S
Co34 O59 1.967 . S
Co34 O66 1.920 . S
Co35 O38 1.966 . S
Co35 N44 2.022 . S
Co35 N52 1.993 . S
Co35 O60 1.941 . S
C36 O37 1.258 . S
C36 O38 1.263 . S
O37 Co34 1.970 . S
O37 C36 1.258 . S
O38 Co35 1.966 . S
O38 C36 1.263 . S
C39 O40 1.235 . S
C39 O66 1.289 . S
O40 C39 1.235 . S
C41 C43 1.400 . S
C41 N44 1.351 . S
C41 C46 1.501 . S
C42 C43 1.387 . S
C42 N45 1.341 . S
C43 C41 1.400 . S
C43 C42 1.387 . S
N44 Co35 2.022 . S
N44 C41 1.351 . S
N44 N45 1.365 . S
N45 C42 1.341 . S
N45 N44 1.365 . S
N45 H65 0.862 . S
C46 C41 1.501 . S
C46 H47 0.961 . S
C46 H48 0.961 . S
C46 H49 0.960 . S
H47 C46 0.961 . S
H48 C46 0.961 . S
H49 C46 0.960 . S
C50 N51 1.342 . S
C50 C54 1.401 . S
C50 C55 1.499 . S
N51 Co34 1.989 . S
N51 C50 1.342 . S
N51 N52 1.388 . S
N52 Co35 1.993 . S
N52 N51 1.388 . S
N52 C53 1.346 . S
C53 N52 1.346 . S
C53 C54 1.396 . S
C53 C63 1.510 . S
C54 C50 1.401 . S
C54 C53 1.396 . S
C55 C50 1.499 . S
C55 H56 0.959 . S
C55 H57 0.960 . S
C55 H58 0.961 . S
H56 C55 0.959 . S
H57 C55 0.960 . S
H58 C55 0.961 . S
O59 Co34 1.967 . S
O59 C67 1.258 . S
O60 Co35 1.941 . S
O60 C67 1.266 . S
H61 C63 0.959 . S
H62 C63 0.961 . S
C63 C53 1.510 . S
C63 H61 0.959 . S
C63 H62 0.961 . S
C63 H64 0.960 . S
H64 C63 0.960 . S
H65 N45 0.862 . S
O66 Co34 1.920 . S
O66 C39 1.289 . S
C67 O59 1.258 . S
C67 O60 1.266 . S
Co68 O71 1.970 . S
Co68 N85 1.989 . S
Co68 O93 1.967 . S
Co68 O100 1.920 . S
Co69 O72 1.966 . S
Co69 N78 2.022 . S
Co69 N86 1.993 . S
Co69 O94 1.941 . S
C70 O71 1.258 . S
C70 O72 1.263 . S
O71 Co68 1.970 . S
O71 C70 1.258 . S
O72 Co69 1.966 . S
O72 C70 1.263 . S
C73 O74 1.235 . S
C73 O100 1.289 . S
O74 C73 1.235 . S
C75 C77 1.400 . S
C75 N78 1.351 . S
C75 C80 1.501 . S
C76 C77 1.387 . S
C76 N79 1.341 . S
C77 C75 1.400 . S
C77 C76 1.387 . S
N78 Co69 2.022 . S
N78 C75 1.351 . S
N78 N79 1.365 . S
N79 C76 1.341 . S
N79 N78 1.365 . S
N79 H99 0.862 . S
C80 C75 1.501 . S
C80 H81 0.961 . S
C80 H82 0.961 . S
C80 H83 0.960 . S
H81 C80 0.961 . S
H82 C80 0.961 . S
H83 C80 0.960 . S
C84 N85 1.342 . S
C84 C88 1.401 . S
C84 C89 1.499 . S
N85 Co68 1.989 . S
N85 C84 1.342 . S
N85 N86 1.388 . S
N86 Co69 1.993 . S
N86 N85 1.388 . S
N86 C87 1.346 . S
C87 N86 1.346 . S
C87 C88 1.396 . S
C87 C97 1.510 . S
C88 C84 1.401 . S
C88 C87 1.396 . S
C89 C84 1.499 . S
C89 H90 0.959 . S
C89 H91 0.960 . S
C89 H92 0.961 . S
H90 C89 0.959 . S
H91 C89 0.960 . S
H92 C89 0.961 . S
O93 Co68 1.967 . S
O93 C101 1.258 . S
O94 Co69 1.941 . S
O94 C101 1.266 . S
H95 C97 0.959 . S
H96 C97 0.961 . S
C97 C87 1.510 . S
C97 H95 0.959 . S
C97 H96 0.961 . S
C97 H98 0.960 . S
H98 C97 0.960 . S
H99 N79 0.862 . S
O100 Co68 1.920 . S
O100 C73 1.289 . S
C101 O93 1.258 . S
C101 O94 1.266 . S
Co102 O105 1.970 . S
Co102 N119 1.989 . S
Co102 O127 1.967 . S
Co102 O134 1.920 . S
Co103 O106 1.966 . S
Co103 N112 2.022 . S
Co103 N120 1.993 . S
Co103 O128 1.941 . S
C104 O105 1.258 . S
C104 O106 1.263 . S
O105 Co102 1.970 . S
O105 C104 1.258 . S
O106 Co103 1.966 . S
O106 C104 1.263 . S
C107 O108 1.235 . S
C107 O134 1.289 . S
O108 C107 1.235 . S
C109 C111 1.400 . S
C109 N112 1.351 . S
C109 C114 1.501 . S
C110 C111 1.387 . S
C110 N113 1.341 . S
C111 C109 1.400 . S
C111 C110 1.387 . S
N112 Co103 2.022 . S
N112 C109 1.351 . S
N112 N113 1.365 . S
N113 C110 1.341 . S
N113 N112 1.365 . S
N113 H133 0.862 . S
C114 C109 1.501 . S
C114 H115 0.961 . S
C114 H116 0.961 . S
C114 H117 0.960 . S
H115 C114 0.961 . S
H116 C114 0.961 . S
H117 C114 0.960 . S
C118 N119 1.342 . S
C118 C122 1.401 . S
C118 C123 1.499 . S
N119 Co102 1.989 . S
N119 C118 1.342 . S
N119 N120 1.388 . S
N120 Co103 1.993 . S
N120 N119 1.388 . S
N120 C121 1.346 . S
C121 N120 1.346 . S
C121 C122 1.396 . S
C121 C131 1.510 . S
C122 C118 1.401 . S
C122 C121 1.396 . S
C123 C118 1.499 . S
C123 H124 0.959 . S
C123 H125 0.960 . S
C123 H126 0.961 . S
H124 C123 0.959 . S
H125 C123 0.960 . S
H126 C123 0.961 . S
O127 Co102 1.967 . S
O127 C135 1.258 . S
O128 Co103 1.941 . S
O128 C135 1.266 . S
H129 C131 0.959 . S
H130 C131 0.961 . S
C131 C121 1.510 . S
C131 H129 0.959 . S
C131 H130 0.961 . S
C131 H132 0.960 . S
H132 C131 0.960 . S
H133 N113 0.862 . S
O134 Co102 1.920 . S
O134 C107 1.289 . S
C135 O127 1.258 . S
C135 O128 1.266 . S
Co136 O139 1.970 . S
Co136 N153 1.989 . S
Co136 O161 1.967 . S
Co136 O168 1.920 . S
Co137 O140 1.966 . S
Co137 N146 2.022 . S
Co137 N154 1.993 . S
Co137 O162 1.941 . S
C138 O139 1.258 . S
C138 O140 1.263 . S
O139 Co136 1.970 . S
O139 C138 1.258 . S
O140 Co137 1.966 . S
O140 C138 1.263 . S
C141 O142 1.235 . S
C141 O168 1.289 . S
O142 C141 1.235 . S
C143 C145 1.400 . S
C143 N146 1.351 . S
C143 C148 1.501 . S
C144 C145 1.387 . S
C144 N147 1.341 . S
C145 C143 1.400 . S
C145 C144 1.387 . S
N146 Co137 2.022 . S
N146 C143 1.351 . S
N146 N147 1.365 . S
N147 C144 1.341 . S
N147 N146 1.365 . S
N147 H167 0.862 . S
C148 C143 1.501 . S
C148 H149 0.961 . S
C148 H150 0.961 . S
C148 H151 0.960 . S
H149 C148 0.961 . S
H150 C148 0.961 . S
H151 C148 0.960 . S
C152 N153 1.342 . S
C152 C156 1.401 . S
C152 C157 1.499 . S
N153 Co136 1.989 . S
N153 C152 1.342 . S
N153 N154 1.388 . S
N154 Co137 1.993 . S
N154 N153 1.388 . S
N154 C155 1.346 . S
C155 N154 1.346 . S
C155 C156 1.396 . S
C155 C165 1.510 . S
C156 C152 1.401 . S
C156 C155 1.396 . S
C157 C152 1.499 . S
C157 H158 0.959 . S
C157 H159 0.960 . S
C157 H160 0.961 . S
H158 C157 0.959 . S
H159 C157 0.960 . S
H160 C157 0.961 . S
O161 Co136 1.967 . S
O161 C169 1.258 . S
O162 Co137 1.941 . S
O162 C169 1.266 . S
H163 C165 0.959 . S
H164 C165 0.961 . S
C165 C155 1.510 . S
C165 H163 0.959 . S
C165 H164 0.961 . S
C165 H166 0.960 . S
H166 C165 0.960 . S
H167 N147 0.862 . S
O168 Co136 1.920 . S
O168 C141 1.289 . S
C169 O161 1.258 . S
C169 O162 1.266 . S
Co170 O173 1.970 . S
Co170 N187 1.989 . S
Co170 O195 1.967 . S
Co170 O202 1.920 . S
Co171 O174 1.966 . S
Co171 N180 2.022 . S
Co171 N188 1.993 . S
Co171 O196 1.941 . S
C172 O173 1.258 . S
C172 O174 1.263 . S
O173 Co170 1.970 . S
O173 C172 1.258 . S
O174 Co171 1.966 . S
O174 C172 1.263 . S
C175 O176 1.235 . S
C175 O202 1.289 . S
O176 C175 1.235 . S
C177 C179 1.400 . S
C177 N180 1.351 . S
C177 C182 1.501 . S
C178 C179 1.387 . S
C178 N181 1.341 . S
C179 C177 1.400 . S
C179 C178 1.387 . S
N180 Co171 2.022 . S
N180 C177 1.351 . S
N180 N181 1.365 . S
N181 C178 1.341 . S
N181 N180 1.365 . S
N181 H201 0.862 . S
C182 C177 1.501 . S
C182 H183 0.961 . S
C182 H184 0.961 . S
C182 H185 0.960 . S
H183 C182 0.961 . S
H184 C182 0.961 . S
H185 C182 0.960 . S
C186 N187 1.342 . S
C186 C190 1.401 . S
C186 C191 1.499 . S
N187 Co170 1.989 . S
N187 C186 1.342 . S
N187 N188 1.388 . S
N188 Co171 1.993 . S
N188 N187 1.388 . S
N188 C189 1.346 . S
C189 N188 1.346 . S
C189 C190 1.396 . S
C189 C199 1.510 . S
C190 C186 1.401 . S
C190 C189 1.396 . S
C191 C186 1.499 . S
C191 H192 0.959 . S
C191 H193 0.960 . S
C191 H194 0.961 . S
H192 C191 0.959 . S
H193 C191 0.960 . S
H194 C191 0.961 . S
O195 Co170 1.967 . S
O195 C203 1.258 . S
O196 Co171 1.941 . S
O196 C203 1.266 . S
H197 C199 0.959 . S
H198 C199 0.961 . S
C199 C189 1.510 . S
C199 H197 0.959 . S
C199 H198 0.961 . S
C199 H200 0.960 . S
H200 C199 0.960 . S
H201 N181 0.862 . S
O202 Co170 1.920 . S
O202 C175 1.289 . S
C203 O195 1.258 . S
C203 O196 1.266 . S
Co204 O207 1.970 . S
Co204 N221 1.989 . S
Co204 O229 1.967 . S
Co204 O236 1.920 . S
Co205 O208 1.966 . S
Co205 N214 2.022 . S
Co205 N222 1.993 . S
Co205 O230 1.941 . S
C206 O207 1.258 . S
C206 O208 1.263 . S
O207 Co204 1.970 . S
O207 C206 1.258 . S
O208 Co205 1.966 . S
O208 C206 1.263 . S
C209 O210 1.235 . S
C209 O236 1.289 . S
O210 C209 1.235 . S
C211 C213 1.400 . S
C211 N214 1.351 . S
C211 C216 1.501 . S
C212 C213 1.387 . S
C212 N215 1.341 . S
C213 C211 1.400 . S
C213 C212 1.387 . S
N214 Co205 2.022 . S
N214 C211 1.351 . S
N214 N215 1.365 . S
N215 C212 1.341 . S
N215 N214 1.365 . S
N215 H235 0.862 . S
C216 C211 1.501 . S
C216 H217 0.961 . S
C216 H218 0.961 . S
C216 H219 0.960 . S
H217 C216 0.961 . S
H218 C216 0.961 . S
H219 C216 0.960 . S
C220 N221 1.342 . S
C220 C224 1.401 . S
C220 C225 1.499 . S
N221 Co204 1.989 . S
N221 C220 1.342 . S
N221 N222 1.388 . S
N222 Co205 1.993 . S
N222 N221 1.388 . S
N222 C223 1.346 . S
C223 N222 1.346 . S
C223 C224 1.396 . S
C223 C233 1.510 . S
C224 C220 1.401 . S
C224 C223 1.396 . S
C225 C220 1.499 . S
C225 H226 0.959 . S
C225 H227 0.960 . S
C225 H228 0.961 . S
H226 C225 0.959 . S
H227 C225 0.960 . S
H228 C225 0.961 . S
O229 Co204 1.967 . S
O229 C237 1.258 . S
O230 Co205 1.941 . S
O230 C237 1.266 . S
H231 C233 0.959 . S
H232 C233 0.961 . S
C233 C223 1.510 . S
C233 H231 0.959 . S
C233 H232 0.961 . S
C233 H234 0.960 . S
H234 C233 0.960 . S
H235 N215 0.862 . S
O236 Co204 1.920 . S
O236 C209 1.289 . S
C237 O229 1.258 . S
C237 O230 1.266 . S
Co238 O241 1.970 . S
Co238 N255 1.989 . S
Co238 O263 1.967 . S
Co238 O270 1.920 . S
Co239 O242 1.966 . S
Co239 N248 2.022 . S
Co239 N256 1.993 . S
Co239 O264 1.941 . S
C240 O241 1.258 . S
C240 O242 1.263 . S
O241 Co238 1.970 . S
O241 C240 1.258 . S
O242 Co239 1.966 . S
O242 C240 1.263 . S
C243 O244 1.235 . S
C243 O270 1.289 . S
O244 C243 1.235 . S
C245 C247 1.400 . S
C245 N248 1.351 . S
C245 C250 1.501 . S
C246 C247 1.387 . S
C246 N249 1.341 . S
C247 C245 1.400 . S
C247 C246 1.387 . S
N248 Co239 2.022 . S
N248 C245 1.351 . S
N248 N249 1.365 . S
N249 C246 1.341 . S
N249 N248 1.365 . S
N249 H269 0.862 . S
C250 C245 1.501 . S
C250 H251 0.961 . S
C250 H252 0.961 . S
C250 H253 0.960 . S
H251 C250 0.961 . S
H252 C250 0.961 . S
H253 C250 0.960 . S
C254 N255 1.342 . S
C254 C258 1.401 . S
C254 C259 1.499 . S
N255 Co238 1.989 . S
N255 C254 1.342 . S
N255 N256 1.388 . S
N256 Co239 1.993 . S
N256 N255 1.388 . S
N256 C257 1.346 . S
C257 N256 1.346 . S
C257 C258 1.396 . S
C257 C267 1.510 . S
C258 C254 1.401 . S
C258 C257 1.396 . S
C259 C254 1.499 . S
C259 H260 0.959 . S
C259 H261 0.960 . S
C259 H262 0.961 . S
H260 C259 0.959 . S
H261 C259 0.960 . S
H262 C259 0.961 . S
O263 Co238 1.967 . S
O263 C271 1.258 . S
O264 Co239 1.941 . S
O264 C271 1.266 . S
H265 C267 0.959 . S
H266 C267 0.961 . S
C267 C257 1.510 . S
C267 H265 0.959 . S
C267 H266 0.961 . S
C267 H268 0.960 . S
H268 C267 0.960 . S
H269 N249 0.862 . S
O270 Co238 1.920 . S
O270 C243 1.289 . S
C271 O263 1.258 . S
C271 O264 1.266 . S
Co272 O275 1.970 . S
Co272 N289 1.989 . S
Co272 O297 1.967 . S
Co272 O304 1.920 . S
Co273 O276 1.966 . S
Co273 N282 2.022 . S
Co273 N290 1.993 . S
Co273 O298 1.941 . S
C274 O275 1.258 . S
C274 O276 1.263 . S
O275 Co272 1.970 . S
O275 C274 1.258 . S
O276 Co273 1.966 . S
O276 C274 1.263 . S
C277 O278 1.235 . S
C277 O304 1.289 . S
O278 C277 1.235 . S
C279 C281 1.400 . S
C279 N282 1.351 . S
C279 C284 1.501 . S
C280 C281 1.387 . S
C280 N283 1.341 . S
C281 C279 1.400 . S
C281 C280 1.387 . S
N282 Co273 2.022 . S
N282 C279 1.351 . S
N282 N283 1.365 . S
N283 C280 1.341 . S
N283 N282 1.365 . S
N283 H303 0.862 . S
C284 C279 1.501 . S
C284 H285 0.961 . S
C284 H286 0.961 . S
C284 H287 0.960 . S
H285 C284 0.961 . S
H286 C284 0.961 . S
H287 C284 0.960 . S
C288 N289 1.342 . S
C288 C292 1.401 . S
C288 C293 1.499 . S
N289 Co272 1.989 . S
N289 C288 1.342 . S
N289 N290 1.388 . S
N290 Co273 1.993 . S
N290 N289 1.388 . S
N290 C291 1.346 . S
C291 N290 1.346 . S
C291 C292 1.396 . S
C291 C301 1.510 . S
C292 C288 1.401 . S
C292 C291 1.396 . S
C293 C288 1.499 . S
C293 H294 0.959 . S
C293 H295 0.960 . S
C293 H296 0.961 . S
H294 C293 0.959 . S
H295 C293 0.960 . S
H296 C293 0.961 . S
O297 Co272 1.967 . S
O297 C305 1.258 . S
O298 Co273 1.941 . S
O298 C305 1.266 . S
H299 C301 0.959 . S
H300 C301 0.961 . S
C301 C291 1.510 . S
C301 H299 0.959 . S
C301 H300 0.961 . S
C301 H302 0.960 . S
H302 C301 0.960 . S
H303 N283 0.862 . S
O304 Co272 1.920 . S
O304 C277 1.289 . S
C305 O297 1.258 . S
C305 O298 1.266 . S
Co306 O309 1.970 . S
Co306 N323 1.989 . S
Co306 O331 1.967 . S
Co306 O338 1.920 . S
Co307 O310 1.966 . S
Co307 N316 2.022 . S
Co307 N324 1.993 . S
Co307 O332 1.941 . S
C308 O309 1.258 . S
C308 O310 1.263 . S
O309 Co306 1.970 . S
O309 C308 1.258 . S
O310 Co307 1.966 . S
O310 C308 1.263 . S
C311 O312 1.235 . S
C311 O338 1.289 . S
O312 C311 1.235 . S
C313 C315 1.400 . S
C313 N316 1.351 . S
C313 C318 1.501 . S
C314 C315 1.387 . S
C314 N317 1.341 . S
C315 C313 1.400 . S
C315 C314 1.387 . S
N316 Co307 2.022 . S
N316 C313 1.351 . S
N316 N317 1.365 . S
N317 C314 1.341 . S
N317 N316 1.365 . S
N317 H337 0.862 . S
C318 C313 1.501 . S
C318 H319 0.961 . S
C318 H320 0.961 . S
C318 H321 0.960 . S
H319 C318 0.961 . S
H320 C318 0.961 . S
H321 C318 0.960 . S
C322 N323 1.342 . S
C322 C326 1.401 . S
C322 C327 1.499 . S
N323 Co306 1.989 . S
N323 C322 1.342 . S
N323 N324 1.388 . S
N324 Co307 1.993 . S
N324 N323 1.388 . S
N324 C325 1.346 . S
C325 N324 1.346 . S
C325 C326 1.396 . S
C325 C335 1.510 . S
C326 C322 1.401 . S
C326 C325 1.396 . S
C327 C322 1.499 . S
C327 H328 0.959 . S
C327 H329 0.960 . S
C327 H330 0.961 . S
H328 C327 0.959 . S
H329 C327 0.960 . S
H330 C327 0.961 . S
O331 Co306 1.967 . S
O331 C339 1.258 . S
O332 Co307 1.941 . S
O332 C339 1.266 . S
H333 C335 0.959 . S
H334 C335 0.961 . S
C335 C325 1.510 . S
C335 H333 0.959 . S
C335 H334 0.961 . S
C335 H336 0.960 . S
H336 C335 0.960 . S
H337 N317 0.862 . S
O338 Co306 1.920 . S
O338 C311 1.289 . S
C339 O331 1.258 . S
C339 O332 1.266 . S
Co340 O343 1.970 . S
Co340 N357 1.989 . S
Co340 O365 1.967 . S
Co340 O372 1.920 . S
Co341 O344 1.966 . S
Co341 N350 2.022 . S
Co341 N358 1.993 . S
Co341 O366 1.941 . S
C342 O343 1.258 . S
C342 O344 1.263 . S
O343 Co340 1.970 . S
O343 C342 1.258 . S
O344 Co341 1.966 . S
O344 C342 1.263 . S
C345 O346 1.235 . S
C345 O372 1.289 . S
O346 C345 1.235 . S
C347 C349 1.400 . S
C347 N350 1.351 . S
C347 C352 1.501 . S
C348 C349 1.387 . S
C348 N351 1.341 . S
C349 C347 1.400 . S
C349 C348 1.387 . S
N350 Co341 2.022 . S
N350 C347 1.351 . S
N350 N351 1.365 . S
N351 C348 1.341 . S
N351 N350 1.365 . S
N351 H371 0.862 . S
C352 C347 1.501 . S
C352 H353 0.961 . S
C352 H354 0.961 . S
C352 H355 0.960 . S
H353 C352 0.961 . S
H354 C352 0.961 . S
H355 C352 0.960 . S
C356 N357 1.342 . S
C356 C360 1.401 . S
C356 C361 1.499 . S
N357 Co340 1.989 . S
N357 C356 1.342 . S
N357 N358 1.388 . S
N358 Co341 1.993 . S
N358 N357 1.388 . S
N358 C359 1.346 . S
C359 N358 1.346 . S
C359 C360 1.396 . S
C359 C369 1.510 . S
C360 C356 1.401 . S
C360 C359 1.396 . S
C361 C356 1.499 . S
C361 H362 0.959 . S
C361 H363 0.960 . S
C361 H364 0.961 . S
H362 C361 0.959 . S
H363 C361 0.960 . S
H364 C361 0.961 . S
O365 Co340 1.967 . S
O365 C373 1.258 . S
O366 Co341 1.941 . S
O366 C373 1.266 . S
H367 C369 0.959 . S
H368 C369 0.961 . S
C369 C359 1.510 . S
C369 H367 0.959 . S
C369 H368 0.961 . S
C369 H370 0.960 . S
H370 C369 0.960 . S
H371 N351 0.862 . S
O372 Co340 1.920 . S
O372 C345 1.289 . S
C373 O365 1.258 . S
C373 O366 1.266 . S
Co374 O377 1.970 . S
Co374 N391 1.989 . S
Co374 O399 1.967 . S
Co374 O406 1.920 . S
Co375 O378 1.966 . S
Co375 N384 2.022 . S
Co375 N392 1.993 . S
Co375 O400 1.941 . S
C376 O377 1.258 . S
C376 O378 1.263 . S
O377 Co374 1.970 . S
O377 C376 1.258 . S
O378 Co375 1.966 . S
O378 C376 1.263 . S
C379 O380 1.235 . S
C379 O406 1.289 . S
O380 C379 1.235 . S
C381 C383 1.400 . S
C381 N384 1.351 . S
C381 C386 1.501 . S
C382 C383 1.387 . S
C382 N385 1.341 . S
C383 C381 1.400 . S
C383 C382 1.387 . S
N384 Co375 2.022 . S
N384 C381 1.351 . S
N384 N385 1.365 . S
N385 C382 1.341 . S
N385 N384 1.365 . S
N385 H405 0.862 . S
C386 C381 1.501 . S
C386 H387 0.961 . S
C386 H388 0.961 . S
C386 H389 0.960 . S
H387 C386 0.961 . S
H388 C386 0.961 . S
H389 C386 0.960 . S
C390 N391 1.342 . S
C390 C394 1.401 . S
C390 C395 1.499 . S
N391 Co374 1.989 . S
N391 C390 1.342 . S
N391 N392 1.388 . S
N392 Co375 1.993 . S
N392 N391 1.388 . S
N392 C393 1.346 . S
C393 N392 1.346 . S
C393 C394 1.396 . S
C393 C403 1.510 . S
C394 C390 1.401 . S
C394 C393 1.396 . S
C395 C390 1.499 . S
C395 H396 0.959 . S
C395 H397 0.960 . S
C395 H398 0.961 . S
H396 C395 0.959 . S
H397 C395 0.960 . S
H398 C395 0.961 . S
O399 Co374 1.967 . S
O399 C407 1.258 . S
O400 Co375 1.941 . S
O400 C407 1.266 . S
H401 C403 0.959 . S
H402 C403 0.961 . S
C403 C393 1.510 . S
C403 H401 0.959 . S
C403 H402 0.961 . S
C403 H404 0.960 . S
H404 C403 0.960 . S
H405 N385 0.862 . S
O406 Co374 1.920 . S
O406 C379 1.289 . S
C407 O399 1.258 . S
C407 O400 1.266 . S
C408 C409 1.391 . S
C408 C410 1.394 . S
C408 H424 0.931 . S
C409 C408 1.391 . S
C409 C413 1.376 . S
C410 C408 1.394 . S
C410 C411 1.369 . S
C410 C414 1.531 . S
C411 C410 1.369 . S
C411 C412 1.410 . S
C411 C419 1.503 . S
C412 C411 1.410 . S
C412 C413 1.392 . S
C412 C415 1.511 . S
C413 C409 1.376 . S
C413 C412 1.392 . S
C413 H425 0.929 . S
C414 C410 1.531 . S
C414 H426 0.960 . S
C414 H427 0.962 . S
C414 H428 0.960 . S
C415 C412 1.511 . S
C415 H429 0.961 . S
C415 H430 0.961 . S
C415 H431 0.961 . S
C416 C417 1.370 . S
C416 C418 1.363 . S
C416 H432 0.931 . S
C417 C416 1.370 . S
C417 C421 1.408 . S
C418 C416 1.363 . S
C418 C419 1.370 . S
C418 C422 1.524 . S
C419 C411 1.503 . S
C419 C418 1.370 . S
C419 C420 1.403 . S
C420 C419 1.403 . S
C420 C421 1.404 . S
C420 C423 1.539 . S
C421 C417 1.408 . S
C421 C420 1.404 . S
C421 H433 0.930 . S
C422 C418 1.524 . S
C422 H434 0.956 . S
C422 H435 0.961 . S
C422 H436 0.961 . S
C423 C420 1.539 . S
C423 H437 0.958 . S
C423 H438 0.961 . S
C423 H439 0.960 . S
H424 C408 0.931 . S
H425 C413 0.929 . S
H426 C414 0.960 . S
H427 C414 0.962 . S
H428 C414 0.960 . S
H429 C415 0.961 . S
H430 C415 0.961 . S
H431 C415 0.961 . S
H432 C416 0.931 . S
H433 C421 0.930 . S
H434 C422 0.956 . S
H435 C422 0.961 . S
H436 C422 0.961 . S
H437 C423 0.958 . S
H438 C423 0.961 . S
H439 C423 0.960 . S
C440 C441 1.391 . S
C440 C442 1.394 . S
C440 H456 0.931 . S
C441 C440 1.391 . S
C441 C445 1.376 . S
C442 C440 1.394 . S
C442 C443 1.369 . S
C442 C446 1.531 . S
C443 C442 1.369 . S
C443 C444 1.410 . S
C443 C451 1.503 . S
C444 C443 1.410 . S
C444 C445 1.392 . S
C444 C447 1.511 . S
C445 C441 1.376 . S
C445 C444 1.392 . S
C445 H457 0.929 . S
C446 C442 1.531 . S
C446 H458 0.960 . S
C446 H459 0.962 . S
C446 H460 0.960 . S
C447 C444 1.511 . S
C447 H461 0.961 . S
C447 H462 0.961 . S
C447 H463 0.961 . S
C448 C449 1.370 . S
C448 C450 1.363 . S
C448 H464 0.931 . S
C449 C448 1.370 . S
C449 C453 1.408 . S
C450 C448 1.363 . S
C450 C451 1.370 . S
C450 C454 1.524 . S
C451 C443 1.503 . S
C451 C450 1.370 . S
C451 C452 1.403 . S
C452 C451 1.403 . S
C452 C453 1.404 . S
C452 C455 1.539 . S
C453 C449 1.408 . S
C453 C452 1.404 . S
C453 H465 0.930 . S
C454 C450 1.524 . S
C454 H466 0.956 . S
C454 H467 0.961 . S
C454 H468 0.961 . S
C455 C452 1.539 . S
C455 H469 0.958 . S
C455 H470 0.961 . S
C455 H471 0.960 . S
H456 C440 0.931 . S
H457 C445 0.929 . S
H458 C446 0.960 . S
H459 C446 0.962 . S
H460 C446 0.960 . S
H461 C447 0.961 . S
H462 C447 0.961 . S
H463 C447 0.961 . S
H464 C448 0.931 . S
H465 C453 0.930 . S
H466 C454 0.956 . S
H467 C454 0.961 . S
H468 C454 0.961 . S
H469 C455 0.958 . S
H470 C455 0.961 . S
H471 C455 0.960 . S
C472 C473 1.391 . S
C472 C474 1.394 . S
C472 H488 0.931 . S
C473 C472 1.391 . S
C473 C477 1.376 . S
C474 C472 1.394 . S
C474 C475 1.369 . S
C474 C478 1.531 . S
C475 C474 1.369 . S
C475 C476 1.410 . S
C475 C483 1.503 . S
C476 C475 1.410 . S
C476 C477 1.392 . S
C476 C479 1.511 . S
C477 C473 1.376 . S
C477 C476 1.392 . S
C477 H489 0.929 . S
C478 C474 1.531 . S
C478 H490 0.960 . S
C478 H491 0.962 . S
C478 H492 0.960 . S
C479 C476 1.511 . S
C479 H493 0.961 . S
C479 H494 0.961 . S
C479 H495 0.961 . S
C480 C481 1.370 . S
C480 C482 1.363 . S
C480 H496 0.931 . S
C481 C480 1.370 . S
C481 C485 1.408 . S
C482 C480 1.363 . S
C482 C483 1.370 . S
C482 C486 1.524 . S
C483 C475 1.503 . S
C483 C482 1.370 . S
C483 C484 1.403 . S
C484 C483 1.403 . S
C484 C485 1.404 . S
C484 C487 1.539 . S
C485 C481 1.408 . S
C485 C484 1.404 . S
C485 H497 0.930 . S
C486 C482 1.524 . S
C486 H498 0.956 . S
C486 H499 0.961 . S
C486 H500 0.961 . S
C487 C484 1.539 . S
C487 H501 0.958 . S
C487 H502 0.961 . S
C487 H503 0.960 . S
H488 C472 0.931 . S
H489 C477 0.929 . S
H490 C478 0.960 . S
H491 C478 0.962 . S
H492 C478 0.960 . S
H493 C479 0.961 . S
H494 C479 0.961 . S
H495 C479 0.961 . S
H496 C480 0.931 . S
H497 C485 0.930 . S
H498 C486 0.956 . S
H499 C486 0.961 . S
H500 C486 0.961 . S
H501 C487 0.958 . S
H502 C487 0.961 . S
H503 C487 0.960 . S
C504 C505 1.391 . S
C504 C506 1.394 . S
C504 H520 0.931 . S
C505 C504 1.391 . S
C505 C509 1.376 . S
C506 C504 1.394 . S
C506 C507 1.369 . S
C506 C510 1.531 . S
C507 C506 1.369 . S
C507 C508 1.410 . S
C507 C515 1.503 . S
C508 C507 1.410 . S
C508 C509 1.392 . S
C508 C511 1.511 . S
C509 C505 1.376 . S
C509 C508 1.392 . S
C509 H521 0.929 . S
C510 C506 1.531 . S
C510 H522 0.960 . S
C510 H523 0.962 . S
C510 H524 0.960 . S
C511 C508 1.511 . S
C511 H525 0.961 . S
C511 H526 0.961 . S
C511 H527 0.961 . S
C512 C513 1.370 . S
C512 C514 1.363 . S
C512 H528 0.931 . S
C513 C512 1.370 . S
C513 C517 1.408 . S
C514 C512 1.363 . S
C514 C515 1.370 . S
C514 C518 1.524 . S
C515 C507 1.503 . S
C515 C514 1.370 . S
C515 C516 1.403 . S
C516 C515 1.403 . S
C516 C517 1.404 . S
C516 C519 1.539 . S
C517 C513 1.408 . S
C517 C516 1.404 . S
C517 H529 0.930 . S
C518 C514 1.524 . S
C518 H530 0.956 . S
C518 H531 0.961 . S
C518 H532 0.961 . S
C519 C516 1.539 . S
C519 H533 0.958 . S
C519 H534 0.961 . S
C519 H535 0.960 . S
H520 C504 0.931 . S
H521 C509 0.929 . S
H522 C510 0.960 . S
H523 C510 0.962 . S
H524 C510 0.960 . S
H525 C511 0.961 . S
H526 C511 0.961 . S
H527 C511 0.961 . S
H528 C512 0.931 . S
H529 C517 0.930 . S
H530 C518 0.956 . S
H531 C518 0.961 . S
H532 C518 0.961 . S
H533 C519 0.958 . S
H534 C519 0.961 . S
H535 C519 0.960 . S
C536 C537 1.391 . S
C536 C538 1.394 . S
C536 H552 0.931 . S
C537 C536 1.391 . S
C537 C541 1.376 . S
C538 C536 1.394 . S
C538 C539 1.369 . S
C538 C542 1.531 . S
C539 C538 1.369 . S
C539 C540 1.410 . S
C539 C547 1.503 . S
C540 C539 1.410 . S
C540 C541 1.392 . S
C540 C543 1.511 . S
C541 C537 1.376 . S
C541 C540 1.392 . S
C541 H553 0.929 . S
C542 C538 1.531 . S
C542 H554 0.960 . S
C542 H555 0.962 . S
C542 H556 0.960 . S
C543 C540 1.511 . S
C543 H557 0.961 . S
C543 H558 0.961 . S
C543 H559 0.961 . S
C544 C545 1.370 . S
C544 C546 1.363 . S
C544 H560 0.931 . S
C545 C544 1.370 . S
C545 C549 1.408 . S
C546 C544 1.363 . S
C546 C547 1.370 . S
C546 C550 1.524 . S
C547 C539 1.503 . S
C547 C546 1.370 . S
C547 C548 1.403 . S
C548 C547 1.403 . S
C548 C549 1.404 . S
C548 C551 1.539 . S
C549 C545 1.408 . S
C549 C548 1.404 . S
C549 H561 0.930 . S
C550 C546 1.524 . S
C550 H562 0.956 . S
C550 H563 0.961 . S
C550 H564 0.961 . S
C551 C548 1.539 . S
C551 H565 0.958 . S
C551 H566 0.961 . S
C551 H567 0.960 . S
H552 C536 0.931 . S
H553 C541 0.929 . S
H554 C542 0.960 . S
H555 C542 0.962 . S
H556 C542 0.960 . S
H557 C543 0.961 . S
H558 C543 0.961 . S
H559 C543 0.961 . S
H560 C544 0.931 . S
H561 C549 0.930 . S
H562 C550 0.956 . S
H563 C550 0.961 . S
H564 C550 0.961 . S
H565 C551 0.958 . S
H566 C551 0.961 . S
H567 C551 0.960 . S
C568 C569 1.391 . S
C568 C570 1.394 . S
C568 H584 0.931 . S
C569 C568 1.391 . S
C569 C573 1.376 . S
C570 C568 1.394 . S
C570 C571 1.369 . S
C570 C574 1.531 . S
C571 C570 1.369 . S
C571 C572 1.410 . S
C571 C579 1.503 . S
C572 C571 1.410 . S
C572 C573 1.392 . S
C572 C575 1.511 . S
C573 C569 1.376 . S
C573 C572 1.392 . S
C573 H585 0.929 . S
C574 C570 1.531 . S
C574 H586 0.960 . S
C574 H587 0.962 . S
C574 H588 0.960 . S
C575 C572 1.511 . S
C575 H589 0.961 . S
C575 H590 0.961 . S
C575 H591 0.961 . S
C576 C577 1.370 . S
C576 C578 1.363 . S
C576 H592 0.931 . S
C577 C576 1.370 . S
C577 C581 1.408 . S
C578 C576 1.363 . S
C578 C579 1.370 . S
C578 C582 1.524 . S
C579 C571 1.503 . S
C579 C578 1.370 . S
C579 C580 1.403 . S
C580 C579 1.403 . S
C580 C581 1.404 . S
C580 C583 1.539 . S
C581 C577 1.408 . S
C581 C580 1.404 . S
C581 H593 0.930 . S
C582 C578 1.524 . S
C582 H594 0.956 . S
C582 H595 0.961 . S
C582 H596 0.961 . S
C583 C580 1.539 . S
C583 H597 0.958 . S
C583 H598 0.961 . S
C583 H599 0.960 . S
H584 C568 0.931 . S
H585 C573 0.929 . S
H586 C574 0.960 . S
H587 C574 0.962 . S
H588 C574 0.960 . S
H589 C575 0.961 . S
H590 C575 0.961 . S
H591 C575 0.961 . S
H592 C576 0.931 . S
H593 C581 0.930 . S
H594 C582 0.956 . S
H595 C582 0.961 . S
H596 C582 0.961 . S
H597 C583 0.958 . S
H598 C583 0.961 . S
H599 C583 0.960 . S
C600 C601 1.391 . S
C600 C602 1.394 . S
C600 H616 0.931 . S
C601 C600 1.391 . S
C601 C605 1.376 . S
C602 C600 1.394 . S
C602 C603 1.369 . S
C602 C606 1.531 . S
C603 C602 1.369 . S
C603 C604 1.410 . S
C603 C611 1.503 . S
C604 C603 1.410 . S
C604 C605 1.392 . S
C604 C607 1.511 . S
C605 C601 1.376 . S
C605 C604 1.392 . S
C605 H617 0.929 . S
C606 C602 1.531 . S
C606 H618 0.960 . S
C606 H619 0.962 . S
C606 H620 0.960 . S
C607 C604 1.511 . S
C607 H621 0.961 . S
C607 H622 0.961 . S
C607 H623 0.961 . S
C608 C609 1.370 . S
C608 C610 1.363 . S
C608 H624 0.931 . S
C609 C608 1.370 . S
C609 C613 1.408 . S
C610 C608 1.363 . S
C610 C611 1.370 . S
C610 C614 1.524 . S
C611 C603 1.503 . S
C611 C610 1.370 . S
C611 C612 1.403 . S
C612 C611 1.403 . S
C612 C613 1.404 . S
C612 C615 1.539 . S
C613 C609 1.408 . S
C613 C612 1.404 . S
C613 H625 0.930 . S
C614 C610 1.524 . S
C614 H626 0.956 . S
C614 H627 0.961 . S
C614 H628 0.961 . S
C615 C612 1.539 . S
C615 H629 0.958 . S
C615 H630 0.961 . S
C615 H631 0.960 . S
H616 C600 0.931 . S
H617 C605 0.929 . S
H618 C606 0.960 . S
H619 C606 0.962 . S
H620 C606 0.960 . S
H621 C607 0.961 . S
H622 C607 0.961 . S
H623 C607 0.961 . S
H624 C608 0.931 . S
H625 C613 0.930 . S
H626 C614 0.956 . S
H627 C614 0.961 . S
H628 C614 0.961 . S
H629 C615 0.958 . S
H630 C615 0.961 . S
H631 C615 0.960 . S
C632 C633 1.391 . S
C632 C634 1.394 . S
C632 H648 0.931 . S
C633 C632 1.391 . S
C633 C637 1.376 . S
C634 C632 1.394 . S
C634 C635 1.369 . S
C634 C638 1.531 . S
C635 C634 1.369 . S
C635 C636 1.410 . S
C635 C643 1.503 . S
C636 C635 1.410 . S
C636 C637 1.392 . S
C636 C639 1.511 . S
C637 C633 1.376 . S
C637 C636 1.392 . S
C637 H649 0.929 . S
C638 C634 1.531 . S
C638 H650 0.960 . S
C638 H651 0.962 . S
C638 H652 0.960 . S
C639 C636 1.511 . S
C639 H653 0.961 . S
C639 H654 0.961 . S
C639 H655 0.961 . S
C640 C641 1.370 . S
C640 C642 1.363 . S
C640 H656 0.931 . S
C641 C640 1.370 . S
C641 C645 1.408 . S
C642 C640 1.363 . S
C642 C643 1.370 . S
C642 C646 1.524 . S
C643 C635 1.503 . S
C643 C642 1.370 . S
C643 C644 1.403 . S
C644 C643 1.403 . S
C644 C645 1.404 . S
C644 C647 1.539 . S
C645 C641 1.408 . S
C645 C644 1.404 . S
C645 H657 0.930 . S
C646 C642 1.524 . S
C646 H658 0.956 . S
C646 H659 0.961 . S
C646 H660 0.961 . S
C647 C644 1.539 . S
C647 H661 0.958 . S
C647 H662 0.961 . S
C647 H663 0.960 . S
H648 C632 0.931 . S
H649 C637 0.929 . S
H650 C638 0.960 . S
H651 C638 0.962 . S
H652 C638 0.960 . S
H653 C639 0.961 . S
H654 C639 0.961 . S
H655 C639 0.961 . S
H656 C640 0.931 . S
H657 C645 0.930 . S
H658 C646 0.956 . S
H659 C646 0.961 . S
H660 C646 0.961 . S
H661 C647 0.958 . S
H662 C647 0.961 . S
H663 C647 0.960 . S
C664 C665 1.391 . S
C664 C666 1.394 . S
C664 H680 0.931 . S
C665 C664 1.391 . S
C665 C669 1.376 . S
C666 C664 1.394 . S
C666 C667 1.369 . S
C666 C670 1.531 . S
C667 C666 1.369 . S
C667 C668 1.410 . S
C667 C675 1.503 . S
C668 C667 1.410 . S
C668 C669 1.392 . S
C668 C671 1.511 . S
C669 C665 1.376 . S
C669 C668 1.392 . S
C669 H681 0.929 . S
C670 C666 1.531 . S
C670 H682 0.960 . S
C670 H683 0.962 . S
C670 H684 0.960 . S
C671 C668 1.511 . S
C671 H685 0.961 . S
C671 H686 0.961 . S
C671 H687 0.961 . S
C672 C673 1.370 . S
C672 C674 1.363 . S
C672 H688 0.931 . S
C673 C672 1.370 . S
C673 C677 1.408 . S
C674 C672 1.363 . S
C674 C675 1.370 . S
C674 C678 1.524 . S
C675 C667 1.503 . S
C675 C674 1.370 . S
C675 C676 1.403 . S
C676 C675 1.403 . S
C676 C677 1.404 . S
C676 C679 1.539 . S
C677 C673 1.408 . S
C677 C676 1.404 . S
C677 H689 0.930 . S
C678 C674 1.524 . S
C678 H690 0.956 . S
C678 H691 0.961 . S
C678 H692 0.961 . S
C679 C676 1.539 . S
C679 H693 0.958 . S
C679 H694 0.961 . S
C679 H695 0.960 . S
H680 C664 0.931 . S
H681 C669 0.929 . S
H682 C670 0.960 . S
H683 C670 0.962 . S
H684 C670 0.960 . S
H685 C671 0.961 . S
H686 C671 0.961 . S
H687 C671 0.961 . S
H688 C672 0.931 . S
H689 C677 0.930 . S
H690 C678 0.956 . S
H691 C678 0.961 . S
H692 C678 0.961 . S
H693 C679 0.958 . S
H694 C679 0.961 . S
H695 C679 0.960 . S
C696 C697 1.391 . S
C696 C698 1.394 . S
C696 H712 0.931 . S
C697 C696 1.391 . S
C697 C701 1.376 . S
C698 C696 1.394 . S
C698 C699 1.369 . S
C698 C702 1.531 . S
C699 C698 1.369 . S
C699 C700 1.410 . S
C699 C707 1.503 . S
C700 C699 1.410 . S
C700 C701 1.392 . S
C700 C703 1.511 . S
C701 C697 1.376 . S
C701 C700 1.392 . S
C701 H713 0.929 . S
C702 C698 1.531 . S
C702 H714 0.960 . S
C702 H715 0.962 . S
C702 H716 0.960 . S
C703 C700 1.511 . S
C703 H717 0.961 . S
C703 H718 0.961 . S
C703 H719 0.961 . S
C704 C705 1.370 . S
C704 C706 1.363 . S
C704 H720 0.931 . S
C705 C704 1.370 . S
C705 C709 1.408 . S
C706 C704 1.363 . S
C706 C707 1.370 . S
C706 C710 1.524 . S
C707 C699 1.503 . S
C707 C706 1.370 . S
C707 C708 1.403 . S
C708 C707 1.403 . S
C708 C709 1.404 . S
C708 C711 1.539 . S
C709 C705 1.408 . S
C709 C708 1.404 . S
C709 H721 0.930 . S
C710 C706 1.524 . S
C710 H722 0.956 . S
C710 H723 0.961 . S
C710 H724 0.961 . S
C711 C708 1.539 . S
C711 H725 0.958 . S
C711 H726 0.961 . S
C711 H727 0.960 . S
H712 C696 0.931 . S
H713 C701 0.929 . S
H714 C702 0.960 . S
H715 C702 0.962 . S
H716 C702 0.960 . S
H717 C703 0.961 . S
H718 C703 0.961 . S
H719 C703 0.961 . S
H720 C704 0.931 . S
H721 C709 0.930 . S
H722 C710 0.956 . S
H723 C710 0.961 . S
H724 C710 0.961 . S
H725 C711 0.958 . S
H726 C711 0.961 . S
H727 C711 0.960 . S
C728 C729 1.391 . S
C728 C730 1.394 . S
C728 H744 0.931 . S
C729 C728 1.391 . S
C729 C733 1.376 . S
C730 C728 1.394 . S
C730 C731 1.369 . S
C730 C734 1.531 . S
C731 C730 1.369 . S
C731 C732 1.410 . S
C731 C739 1.503 . S
C732 C731 1.410 . S
C732 C733 1.392 . S
C732 C735 1.511 . S
C733 C729 1.376 . S
C733 C732 1.392 . S
C733 H745 0.929 . S
C734 C730 1.531 . S
C734 H746 0.960 . S
C734 H747 0.962 . S
C734 H748 0.960 . S
C735 C732 1.511 . S
C735 H749 0.961 . S
C735 H750 0.961 . S
C735 H751 0.961 . S
C736 C737 1.370 . S
C736 C738 1.363 . S
C736 H752 0.931 . S
C737 C736 1.370 . S
C737 C741 1.408 . S
C738 C736 1.363 . S
C738 C739 1.370 . S
C738 C742 1.524 . S
C739 C731 1.503 . S
C739 C738 1.370 . S
C739 C740 1.403 . S
C740 C739 1.403 . S
C740 C741 1.404 . S
C740 C743 1.539 . S
C741 C737 1.408 . S
C741 C740 1.404 . S
C741 H753 0.930 . S
C742 C738 1.524 . S
C742 H754 0.956 . S
C742 H755 0.961 . S
C742 H756 0.961 . S
C743 C740 1.539 . S
C743 H757 0.958 . S
C743 H758 0.961 . S
C743 H759 0.960 . S
H744 C728 0.931 . S
H745 C733 0.929 . S
H746 C734 0.960 . S
H747 C734 0.962 . S
H748 C734 0.960 . S
H749 C735 0.961 . S
H750 C735 0.961 . S
H751 C735 0.961 . S
H752 C736 0.931 . S
H753 C741 0.930 . S
H754 C742 0.956 . S
H755 C742 0.961 . S
H756 C742 0.961 . S
H757 C743 0.958 . S
H758 C743 0.961 . S
H759 C743 0.960 . S
C760 C761 1.391 . S
C760 C762 1.394 . S
C760 H776 0.931 . S
C761 C760 1.391 . S
C761 C765 1.376 . S
C762 C760 1.394 . S
C762 C763 1.369 . S
C762 C766 1.531 . S
C763 C762 1.369 . S
C763 C764 1.410 . S
C763 C771 1.503 . S
C764 C763 1.410 . S
C764 C765 1.392 . S
C764 C767 1.511 . S
C765 C761 1.376 . S
C765 C764 1.392 . S
C765 H777 0.929 . S
C766 C762 1.531 . S
C766 H778 0.960 . S
C766 H779 0.962 . S
C766 H780 0.960 . S
C767 C764 1.511 . S
C767 H781 0.961 . S
C767 H782 0.961 . S
C767 H783 0.961 . S
C768 C769 1.370 . S
C768 C770 1.363 . S
C768 H784 0.931 . S
C769 C768 1.370 . S
C769 C773 1.408 . S
C770 C768 1.363 . S
C770 C771 1.370 . S
C770 C774 1.524 . S
C771 C763 1.503 . S
C771 C770 1.370 . S
C771 C772 1.403 . S
C772 C771 1.403 . S
C772 C773 1.404 . S
C772 C775 1.539 . S
C773 C769 1.408 . S
C773 C772 1.404 . S
C773 H785 0.930 . S
C774 C770 1.524 . S
C774 H786 0.956 . S
C774 H787 0.961 . S
C774 H788 0.961 . S
C775 C772 1.539 . S
C775 H789 0.958 . S
C775 H790 0.961 . S
C775 H791 0.960 . S
H776 C760 0.931 . S
H777 C765 0.929 . S
H778 C766 0.960 . S
H779 C766 0.962 . S
H780 C766 0.960 . S
H781 C767 0.961 . S
H782 C767 0.961 . S
H783 C767 0.961 . S
H784 C768 0.931 . S
H785 C773 0.930 . S
H786 C774 0.956 . S
H787 C774 0.961 . S
H788 C774 0.961 . S
H789 C775 0.958 . S
H790 C775 0.961 . S
H791 C775 0.960 . S
C792 C793 1.391 . S
C792 C794 1.394 . S
C792 H808 0.931 . S
C793 C792 1.391 . S
C793 C797 1.376 . S
C794 C792 1.394 . S
C794 C795 1.369 . S
C794 C798 1.531 . S
C795 C794 1.369 . S
C795 C796 1.410 . S
C795 C803 1.503 1_554 S
C796 C795 1.410 . S
C796 C797 1.392 . S
C796 C799 1.511 . S
C797 C793 1.376 . S
C797 C796 1.392 . S
C797 H809 0.929 . S
C798 C794 1.531 . S
C798 H810 0.960 1_545 S
C798 H811 0.962 . S
C798 H812 0.960 . S
C799 C796 1.511 . S
C799 H813 0.961 . S
C799 H814 0.961 1_554 S
C799 H815 0.961 . S
C800 C801 1.370 . S
C800 C802 1.363 1_565 S
C800 H816 0.931 1_565 S
C801 C800 1.370 . S
C801 C805 1.408 . S
C802 C800 1.363 1_545 S
C802 C803 1.370 . S
C802 C806 1.524 . S
C803 C795 1.503 1_556 S
C803 C802 1.370 . S
C803 C804 1.403 1_546 S
C804 C803 1.403 1_564 S
C804 C805 1.404 1_554 S
C804 C807 1.539 . S
C805 C801 1.408 . S
C805 C804 1.404 1_556 S
C805 H817 0.930 . S
C806 C802 1.524 . S
C806 H818 0.956 . S
C806 H819 0.961 . S
C806 H820 0.961 . S
C807 C804 1.539 . S
C807 H821 0.958 . S
C807 H822 0.961 . S
C807 H823 0.960 . S
H808 C792 0.931 . S
H809 C797 0.929 . S
H810 C798 0.960 1_565 S
H811 C798 0.962 . S
H812 C798 0.960 . S
H813 C799 0.961 . S
H814 C799 0.961 1_556 S
H815 C799 0.961 . S
H816 C800 0.931 1_545 S
H817 C805 0.930 . S
H818 C806 0.956 . S
H819 C806 0.961 . S
H820 C806 0.961 . S
H821 C807 0.958 . S
H822 C807 0.961 . S
H823 C807 0.960 . S
C824 C825 1.391 . S
C824 C826 1.394 . S
C824 H840 0.931 . S
C825 C824 1.391 . S
C825 C829 1.376 . S
C826 C824 1.394 . S
C826 C827 1.369 . S
C826 C830 1.531 . S
C827 C826 1.369 . S
C827 C828 1.410 . S
C827 C835 1.503 1_554 S
C828 C827 1.410 . S
C828 C829 1.392 . S
C828 C831 1.511 . S
C829 C825 1.376 . S
C829 C828 1.392 . S
C829 H841 0.929 . S
C830 C826 1.531 . S
C830 H842 0.960 . S
C830 H843 0.962 1_655 S
C830 H844 0.960 . S
C831 C828 1.511 . S
C831 H845 0.961 . S
C831 H846 0.961 1_554 S
C831 H847 0.961 1_554 S
C832 C833 1.370 . S
C832 C834 1.373 . S
C832 H848 0.931 . S
C833 C832 1.370 . S
C833 C837 1.408 . S
C834 C832 1.373 . S
C834 C835 1.374 1_455 S
C834 C838 1.511 1_556 S
C835 C827 1.503 1_556 S
C835 C834 1.374 1_655 S
C835 C836 1.403 . S
C836 C835 1.403 . S
C836 C837 1.404 1_655 S
C836 C839 1.539 . S
C837 C833 1.408 . S
C837 C836 1.404 1_455 S
C837 H849 0.930 1_455 S
C838 C834 1.511 1_554 S
C838 H850 0.956 . S
C838 H851 0.961 . S
C838 H852 0.961 . S
C839 C836 1.539 . S
C839 H853 0.958 . S
C839 H854 0.961 . S
C839 H855 0.960 . S
H840 C824 0.931 . S
H841 C829 0.929 . S
H842 C830 0.960 . S
H843 C830 0.962 1_455 S
H844 C830 0.960 . S
H845 C831 0.961 . S
H846 C831 0.961 1_556 S
H847 C831 0.961 1_556 S
H848 C832 0.931 . S
H849 C837 0.930 1_655 S
H850 C838 0.956 . S
H851 C838 0.961 . S
H852 C838 0.961 . S
H853 C839 0.958 . S
H854 C839 0.961 . S
H855 C839 0.960 . S
C856 C857 1.391 . S
C856 C858 1.394 . S
C856 H872 0.931 . S
C857 C856 1.391 . S
C857 C861 1.376 . S
C858 C856 1.394 . S
C858 C859 1.369 . S
C858 C862 1.531 . S
C859 C858 1.369 . S
C859 C860 1.410 . S
C859 C867 1.503 1_554 S
C860 C859 1.410 . S
C860 C861 1.392 . S
C860 C863 1.511 . S
C861 C857 1.376 . S
C861 C860 1.392 . S
C861 H873 0.929 . S
C862 C858 1.531 . S
C862 H874 0.960 1_554 S
C862 H875 0.962 . S
C862 H876 0.960 . S
C863 C860 1.511 . S
C863 H877 0.961 . S
C863 H878 0.961 . S
C863 H879 0.987 . S
C864 C865 1.370 . S
C864 C866 1.354 1_556 S
C864 H880 0.931 . S
C865 C864 1.370 . S
C865 C869 1.408 . S
C866 C864 1.354 1_554 S
C866 C867 1.367 1_554 S
C866 C870 1.537 . S
C867 C859 1.503 1_556 S
C867 C866 1.367 1_556 S
C867 C868 1.403 . S
C868 C867 1.403 . S
C868 C869 1.404 . S
C868 C871 1.539 . S
C869 C865 1.408 . S
C869 C868 1.404 . S
C869 H881 0.930 . S
C870 C866 1.537 . S
C870 H882 0.956 . S
C870 H883 0.961 . S
C870 H884 0.961 . S
C871 C868 1.539 . S
C871 H885 0.958 . S
C871 H886 0.961 . S
C871 H887 0.960 . S
H872 C856 0.931 . S
H873 C861 0.929 . S
H874 C862 0.960 1_556 S
H875 C862 0.962 . S
H876 C862 0.960 . S
H877 C863 0.961 . S
H878 C863 0.961 . S
H879 C863 0.987 . S
H880 C864 0.931 . S
H881 C869 0.930 . S
H882 C870 0.956 . S
H883 C870 0.961 . S
H884 C870 0.961 . S
H885 C871 0.958 . S
H886 C871 0.961 . S
H887 C871 0.960 . S
C888 C889 1.391 . S
C888 C890 1.394 . S
C888 H904 0.931 . S
C889 C888 1.391 . S
C889 C893 1.376 . S
C890 C888 1.394 . S
C890 C891 1.369 1_655 S
C890 C894 1.531 . S
C891 C890 1.369 1_455 S
C891 C892 1.410 . S
C891 C899 1.503 . S
C892 C891 1.410 . S
C892 C893 1.392 1_455 S
C892 C895 1.511 . S
C893 C889 1.376 . S
C893 C892 1.392 1_655 S
C893 H905 0.929 . S
C894 C890 1.531 . S
C894 H906 0.960 1_655 S
C894 H907 0.962 . S
C894 H908 0.960 . S
C895 C892 1.511 . S
C895 H909 0.961 . S
C895 H910 0.961 . S
C895 H911 0.961 . S
C896 C897 1.370 . S
C896 C898 1.363 . S
C896 H912 0.931 . S
C897 C896 1.370 . S
C897 C901 1.408 . S
C898 C896 1.363 . S
C898 C899 1.370 . S
C898 C902 1.524 1_455 S
C899 C891 1.503 . S
C899 C898 1.370 . S
C899 C900 1.403 . S
C900 C899 1.403 . S
C900 C901 1.404 . S
C900 C903 1.539 . S
C901 C897 1.408 . S
C901 C900 1.404 . S
C901 H913 0.930 . S
C902 C898 1.524 1_655 S
C902 H914 0.956 . S
C902 H915 0.961 . S
C902 H916 0.961 . S
C903 C900 1.539 . S
C903 H917 0.958 . S
C903 H918 0.961 . S
C903 H919 0.960 . S
H904 C888 0.931 . S
H905 C893 0.929 . S
H906 C894 0.960 1_455 S
H907 C894 0.962 . S
H908 C894 0.960 . S
H909 C895 0.961 . S
H910 C895 0.961 . S
H911 C895 0.961 . S
H912 C896 0.931 . S
H913 C901 0.930 . S
H914 C902 0.956 . S
H915 C902 0.961 . S
H916 C902 0.961 . S
H917 C903 0.958 . S
H918 C903 0.961 . S
H919 C903 0.960 . S
C920 C921 1.391 . S
C920 C922 1.394 . S
C920 H936 0.931 . S
C921 C920 1.391 . S
C921 C925 1.376 . S
C922 C920 1.394 . S
C922 C923 1.369 . S
C922 C926 1.531 . S
C923 C922 1.369 . S
C923 C924 1.410 . S
C923 C931 1.503 . S
C924 C923 1.410 . S
C924 C925 1.392 . S
C924 C927 1.511 . S
C925 C921 1.376 . S
C925 C924 1.392 . S
C925 H937 0.929 . S
C926 C922 1.531 . S
C926 H938 0.960 . S
C926 H939 0.962 . S
C926 H940 0.960 . S
C927 C924 1.511 . S
C927 H941 0.961 . S
C927 H942 0.961 . S
C927 H943 0.961 . S
C928 C929 1.370 . S
C928 C930 1.363 . S
C928 H944 0.931 . S
C929 C928 1.370 . S
C929 C933 1.408 . S
C930 C928 1.363 . S
C930 C931 1.370 . S
C930 C934 1.524 . S
C931 C923 1.503 . S
C931 C930 1.370 . S
C931 C932 1.403 . S
C932 C931 1.403 . S
C932 C933 1.404 . S
C932 C935 1.539 . S
C933 C929 1.408 . S
C933 C932 1.404 . S
C933 H945 0.930 . S
C934 C930 1.524 . S
C934 H946 0.956 . S
C934 H947 0.961 . S
C934 H948 0.961 . S
C935 C932 1.539 . S
C935 H949 0.958 . S
C935 H950 0.961 . S
C935 H951 0.960 . S
H936 C920 0.931 . S
H937 C925 0.929 . S
H938 C926 0.960 . S
H939 C926 0.962 . S
H940 C926 0.960 . S
H941 C927 0.961 . S
H942 C927 0.961 . S
H943 C927 0.961 . S
H944 C928 0.931 . S
H945 C933 0.930 . S
H946 C934 0.956 . S
H947 C934 0.961 . S
H948 C934 0.961 . S
H949 C935 0.958 . S
H950 C935 0.961 . S
H951 C935 0.960 . S
C952 C953 1.391 . S
C952 C954 1.394 . S
C952 H968 0.931 . S
C953 C952 1.391 . S
C953 C957 1.376 . S
C954 C952 1.394 . S
C954 C955 1.369 1_545 S
C954 C958 1.531 . S
C955 C954 1.369 1_565 S
C955 C956 1.410 . S
C955 C963 1.503 . S
C956 C955 1.410 . S
C956 C957 1.392 1_565 S
C956 C959 1.511 . S
C957 C953 1.376 . S
C957 C956 1.392 1_545 S
C957 H969 0.929 . S
C958 C954 1.531 . S
C958 H970 0.960 . S
C958 H971 0.962 . S
C958 H972 0.960 . S
C959 C956 1.511 . S
C959 H973 0.961 . S
C959 H974 0.961 . S
C959 H975 0.961 . S
C960 C961 1.370 . S
C960 C962 1.363 . S
C960 H976 0.931 . S
C961 C960 1.370 . S
C961 C965 1.408 . S
C962 C960 1.363 . S
C962 C963 1.370 . S
C962 C966 1.524 . S
C963 C955 1.503 . S
C963 C962 1.370 . S
C963 C964 1.403 . S
C964 C963 1.403 . S
C964 C965 1.404 . S
C964 C967 1.539 1_565 S
C965 C961 1.408 . S
C965 C964 1.404 . S
C965 H977 0.930 . S
C966 C962 1.524 . S
C966 H978 0.956 . S
C966 H979 0.961 . S
C966 H980 0.961 . S
C967 C964 1.539 1_545 S
C967 H981 0.958 . S
C967 H982 0.961 . S
C967 H983 0.960 . S
H968 C952 0.931 . S
H969 C957 0.929 . S
H970 C958 0.960 . S
H971 C958 0.962 . S
H972 C958 0.960 . S
H973 C959 0.961 . S
H974 C959 0.961 . S
H975 C959 0.961 . S
H976 C960 0.931 . S
H977 C965 0.930 . S
H978 C966 0.956 . S
H979 C966 0.961 . S
H980 C966 0.961 . S
H981 C967 0.958 . S
H982 C967 0.961 . S
H983 C967 0.960 . S
C984 C985 1.391 . S
C984 C986 1.394 1_545 S
C984 H1000 0.931 . S
C985 C984 1.391 . S
C985 C989 1.376 . S
C986 C984 1.394 1_565 S
C986 C987 1.369 . S
C986 C990 1.531 . S
C987 C986 1.369 . S
C987 C988 1.410 1_565 S
C987 C995 1.503 1_554 S
C988 C987 1.410 1_545 S
C988 C989 1.392 . S
C988 C991 1.505 1_554 S
C989 C985 1.376 . S
C989 C988 1.392 . S
C989 H1001 0.929 . S
C990 C986 1.531 . S
C990 H1002 0.960 . S
C990 H1003 0.962 . S
C990 H1004 0.960 . S
C991 C988 1.505 1_556 S
C991 H1005 0.981 . S
C991 H1006 0.953 1_545 S
C991 H1007 0.955 1_545 S
C992 C993 1.370 . S
C992 C994 1.363 . S
C992 H1008 0.931 . S
C993 C992 1.370 . S
C993 C997 1.408 . S
C994 C992 1.363 . S
C994 C995 1.370 . S
C994 C998 1.524 1_565 S
C995 C987 1.503 1_556 S
C995 C994 1.370 . S
C995 C996 1.403 . S
C996 C995 1.403 . S
C996 C997 1.404 . S
C996 C999 1.539 1_556 S
C997 C993 1.408 . S
C997 C996 1.404 . S
C997 H1009 0.930 . S
C998 C994 1.524 1_545 S
C998 H1010 0.956 . S
C998 H1011 0.961 . S
C998 H1012 0.961 . S
C999 C996 1.539 1_554 S
C999 H1013 0.958 . S
C999 H1014 0.961 . S
C999 H1015 0.960 . S
H1000 C984 0.931 . S
H1001 C989 0.929 . S
H1002 C990 0.960 . S
H1003 C990 0.962 . S
H1004 C990 0.960 . S
H1005 C991 0.981 . S
H1006 C991 0.953 1_565 S
H1007 C991 0.955 1_565 S
H1008 C992 0.931 . S
H1009 C997 0.930 . S
H1010 C998 0.956 . S
H1011 C998 0.961 . S
H1012 C998 0.961 . S
H1013 C999 0.958 . S
H1014 C999 0.961 . S
H1015 C999 0.960 . S
C1016 C1017 1.391 . S
C1016 C1018 1.394 1_655 S
C1016 H1032 0.931 . S
C1017 C1016 1.391 . S
C1017 C1021 1.376 . S
C1018 C1016 1.394 1_455 S
C1018 C1019 1.369 . S
C1018 C1022 1.531 . S
C1019 C1018 1.369 . S
C1019 C1020 1.410 . S
C1019 C1027 1.503 1_554 S
C1020 C1019 1.410 . S
C1020 C1021 1.392 1_455 S
C1020 C1023 1.511 . S
C1021 C1017 1.376 . S
C1021 C1020 1.392 1_655 S
C1021 H1033 0.929 . S
C1022 C1018 1.531 . S
C1022 H1034 0.960 . S
C1022 H1035 0.954 1_454 S
C1022 H1036 0.960 . S
C1023 C1020 1.511 . S
C1023 H1037 0.961 . S
C1023 H1038 0.961 1_554 S
C1023 H1039 0.961 . S
C1024 C1025 1.370 . S
C1024 C1026 1.363 . S
C1024 H1040 0.931 . S
C1025 C1024 1.370 . S
C1025 C1029 1.408 . S
C1026 C1024 1.363 . S
C1026 C1027 1.370 . S
C1026 C1030 1.524 1_455 S
C1027 C1019 1.503 1_556 S
C1027 C1026 1.370 . S
C1027 C1028 1.403 . S
C1028 C1027 1.403 . S
C1028 C1029 1.404 . S
C1028 C1031 1.539 1_556 S
C1029 C1025 1.408 . S
C1029 C1028 1.404 . S
C1029 H1041 0.930 . S
C1030 C1026 1.524 1_655 S
C1030 H1042 0.956 . S
C1030 H1043 0.961 . S
C1030 H1044 0.961 . S
C1031 C1028 1.539 1_554 S
C1031 H1045 0.958 . S
C1031 H1046 0.961 . S
C1031 H1047 0.960 . S
H1032 C1016 0.931 . S
H1033 C1021 0.929 . S
H1034 C1022 0.960 . S
H1035 C1022 0.954 1_656 S
H1036 C1022 0.960 . S
H1037 C1023 0.961 . S
H1038 C1023 0.961 1_556 S
H1039 C1023 0.961 . S
H1040 C1024 0.931 . S
H1041 C1029 0.930 . S
H1042 C1030 0.956 . S
H1043 C1030 0.961 . S
H1044 C1030 0.961 . S
H1045 C1031 0.958 . S
H1046 C1031 0.961 . S
H1047 C1031 0.960 . S
C1048 C1049 1.391 . S
C1048 C1050 1.394 . S
C1048 H1064 0.931 . S
C1049 C1048 1.391 . S
C1049 C1053 1.376 . S
C1050 C1048 1.394 . S
C1050 C1051 1.369 . S
C1050 C1054 1.531 . S
C1051 C1050 1.369 . S
C1051 C1052 1.410 . S
C1051 C1059 1.479 1_556 S
C1052 C1051 1.410 . S
C1052 C1053 1.392 . S
C1052 C1055 1.511 . S
C1053 C1049 1.376 . S
C1053 C1052 1.392 . S
C1053 H1065 0.929 . S
C1054 C1050 1.531 . S
C1054 H1066 0.960 . S
C1054 H1067 0.962 . S
C1054 H1068 0.960 . S
C1055 C1052 1.511 . S
C1055 H1069 0.961 . S
C1055 H1070 0.961 1_556 S
C1055 H1071 0.961 . S
C1056 C1057 1.370 . S
C1056 C1058 1.363 . S
C1056 H1072 0.931 . S
C1057 C1056 1.370 . S
C1057 C1061 1.408 . S
C1058 C1056 1.363 . S
C1058 C1059 1.398 . S
C1058 C1062 1.524 . S
C1059 C1051 1.479 1_554 S
C1059 C1058 1.398 . S
C1059 C1060 1.400 1_554 S
C1060 C1059 1.400 1_556 S
C1060 C1061 1.404 1_556 S
C1060 C1063 1.539 . S
C1061 C1057 1.408 . S
C1061 C1060 1.404 1_554 S
C1061 H1073 0.930 . S
C1062 C1058 1.524 . S
C1062 H1074 0.956 . S
C1062 H1075 0.961 . S
C1062 H1076 0.961 . S
C1063 C1060 1.539 . S
C1063 H1077 0.958 . S
C1063 H1078 0.961 . S
C1063 H1079 0.960 . S
H1064 C1048 0.931 . S
H1065 C1053 0.929 . S
H1066 C1054 0.960 . S
H1067 C1054 0.962 . S
H1068 C1054 0.960 . S
H1069 C1055 0.961 . S
H1070 C1055 0.961 1_554 S
H1071 C1055 0.961 . S
H1072 C1056 0.931 . S
H1073 C1061 0.930 . S
H1074 C1062 0.956 . S
H1075 C1062 0.961 . S
H1076 C1062 0.961 . S
H1077 C1063 0.958 . S
H1078 C1063 0.961 . S
H1079 C1063 0.960 . S
C1080 C1081 1.391 . S
C1080 C1082 1.394 . S
C1080 H1096 0.931 . S
C1081 C1080 1.391 . S
C1081 C1085 1.376 . S
C1082 C1080 1.394 . S
C1082 C1083 1.369 1_455 S
C1082 C1086 1.531 . S
C1083 C1082 1.369 1_655 S
C1083 C1084 1.410 . S
C1083 C1091 1.503 . S
C1084 C1083 1.410 . S
C1084 C1085 1.392 1_655 S
C1084 C1087 1.511 . S
C1085 C1081 1.376 . S
C1085 C1084 1.392 1_455 S
C1085 H1097 0.929 . S
C1086 C1082 1.531 . S
C1086 H1098 0.960 . S
C1086 H1099 0.962 . S
C1086 H1100 0.960 . S
C1087 C1084 1.511 . S
C1087 H1101 0.961 . S
C1087 H1102 0.961 . S
C1087 H1103 0.961 . S
C1088 C1089 1.370 . S
C1088 C1090 1.363 . S
C1088 H1104 0.931 . S
C1089 C1088 1.370 . S
C1089 C1093 1.408 . S
C1090 C1088 1.363 . S
C1090 C1091 1.370 . S
C1090 C1094 1.524 . S
C1091 C1083 1.503 . S
C1091 C1090 1.370 . S
C1091 C1092 1.403 . S
C1092 C1091 1.403 . S
C1092 C1093 1.404 . S
C1092 C1095 1.541 . S
C1093 C1089 1.408 . S
C1093 C1092 1.404 . S
C1093 H1105 0.930 . S
C1094 C1090 1.524 . S
C1094 H1106 0.956 . S
C1094 H1107 0.961 . S
C1094 H1108 0.961 . S
C1095 C1092 1.541 . S
C1095 H1109 0.954 1_655 S
C1095 H1110 0.965 . S
C1095 H1111 0.959 1_655 S
H1096 C1080 0.931 . S
H1097 C1085 0.929 . S
H1098 C1086 0.960 . S
H1099 C1086 0.962 . S
H1100 C1086 0.960 . S
H1101 C1087 0.961 . S
H1102 C1087 0.961 . S
H1103 C1087 0.961 . S
H1104 C1088 0.931 . S
H1105 C1093 0.930 . S
H1106 C1094 0.956 . S
H1107 C1094 0.961 . S
H1108 C1094 0.961 . S
H1109 C1095 0.954 1_455 S
H1110 C1095 0.965 . S
H1111 C1095 0.959 1_455 S
C1112 C1113 1.391 . S
C1112 C1114 1.394 . S
C1112 H1128 0.931 . S
C1113 C1112 1.391 . S
C1113 C1117 1.376 . S
C1114 C1112 1.394 . S
C1114 C1115 1.369 . S
C1114 C1118 1.531 . S
C1115 C1114 1.369 . S
C1115 C1116 1.410 . S
C1115 C1123 1.503 . S
C1116 C1115 1.410 . S
C1116 C1117 1.392 . S
C1116 C1119 1.511 . S
C1117 C1113 1.376 . S
C1117 C1116 1.392 . S
C1117 H1129 0.929 . S
C1118 C1114 1.531 . S
C1118 H1130 0.960 . S
C1118 H1131 0.962 . S
C1118 H1132 0.960 . S
C1119 C1116 1.511 . S
C1119 H1133 0.961 . S
C1119 H1134 0.961 . S
C1119 H1135 0.961 . S
C1120 C1121 1.370 . S
C1120 C1122 1.363 . S
C1120 H1136 0.931 . S
C1121 C1120 1.370 . S
C1121 C1125 1.408 . S
C1122 C1120 1.363 . S
C1122 C1123 1.370 . S
C1122 C1126 1.524 . S
C1123 C1115 1.503 . S
C1123 C1122 1.370 . S
C1123 C1124 1.403 . S
C1124 C1123 1.403 . S
C1124 C1125 1.404 . S
C1124 C1127 1.539 . S
C1125 C1121 1.408 . S
C1125 C1124 1.404 . S
C1125 H1137 0.930 . S
C1126 C1122 1.524 . S
C1126 H1138 0.956 . S
C1126 H1139 0.961 . S
C1126 H1140 0.961 . S
C1127 C1124 1.539 . S
C1127 H1141 0.958 . S
C1127 H1142 0.961 . S
C1127 H1143 0.960 . S
H1128 C1112 0.931 . S
H1129 C1117 0.929 . S
H1130 C1118 0.960 . S
H1131 C1118 0.962 . S
H1132 C1118 0.960 . S
H1133 C1119 0.961 . S
H1134 C1119 0.961 . S
H1135 C1119 0.961 . S
H1136 C1120 0.931 . S
H1137 C1125 0.930 . S
H1138 C1126 0.956 . S
H1139 C1126 0.961 . S
H1140 C1126 0.961 . S
H1141 C1127 0.958 . S
H1142 C1127 0.961 . S
H1143 C1127 0.960 . S
C1144 C1145 1.391 . S
C1144 C1146 1.394 . S
C1144 H1160 0.931 . S
C1145 C1144 1.391 . S
C1145 C1149 1.376 . S
C1146 C1144 1.394 . S
C1146 C1147 1.369 . S
C1146 C1150 1.531 . S
C1147 C1146 1.369 . S
C1147 C1148 1.410 . S
C1147 C1155 1.503 . S
C1148 C1147 1.410 . S
C1148 C1149 1.392 . S
C1148 C1151 1.511 1_545 S
C1149 C1145 1.376 . S
C1149 C1148 1.392 . S
C1149 H1161 0.929 . S
C1150 C1146 1.531 . S
C1150 H1162 0.960 . S
C1150 H1163 0.962 . S
C1150 H1164 0.960 . S
C1151 C1148 1.511 1_565 S
C1151 H1165 0.961 . S
C1151 H1166 0.961 . S
C1151 H1167 0.961 . S
C1152 C1153 1.370 . S
C1152 C1154 1.363 . S
C1152 H1168 0.931 . S
C1153 C1152 1.370 . S
C1153 C1157 1.408 . S
C1154 C1152 1.363 . S
C1154 C1155 1.370 1_565 S
C1154 C1158 1.524 1_565 S
C1155 C1147 1.503 . S
C1155 C1154 1.370 1_545 S
C1155 C1156 1.401 1_545 S
C1156 C1155 1.401 1_565 S
C1156 C1157 1.405 . S
C1156 C1159 1.540 1_565 S
C1157 C1153 1.408 . S
C1157 C1156 1.405 . S
C1157 H1169 0.930 . S
C1158 C1154 1.524 1_545 S
C1158 H1170 0.956 . S
C1158 H1171 0.961 . S
C1158 H1172 0.961 1_545 S
C1159 C1156 1.540 1_545 S
C1159 H1173 0.958 . S
C1159 H1174 0.961 1_545 S
C1159 H1175 0.960 . S
H1160 C1144 0.931 . S
H1161 C1149 0.929 . S
H1162 C1150 0.960 . S
H1163 C1150 0.962 . S
H1164 C1150 0.960 . S
H1165 C1151 0.961 . S
H1166 C1151 0.961 . S
H1167 C1151 0.961 . S
H1168 C1152 0.931 . S
H1169 C1157 0.930 . S
H1170 C1158 0.956 . S
H1171 C1158 0.961 . S
H1172 C1158 0.961 1_565 S
H1173 C1159 0.958 . S
H1174 C1159 0.961 1_565 S
H1175 C1159 0.960 . S
C1176 C1177 1.391 . S
C1176 C1178 1.394 . S
C1176 H1192 0.931 . S
C1177 C1176 1.391 . S
C1177 C1181 1.376 . S
C1178 C1176 1.394 . S
C1178 C1179 1.369 . S
C1178 C1182 1.531 . S
C1179 C1178 1.369 . S
C1179 C1180 1.410 . S
C1179 C1187 1.503 . S
C1180 C1179 1.410 . S
C1180 C1181 1.392 . S
C1180 C1183 1.511 . S
C1181 C1177 1.376 . S
C1181 C1180 1.392 . S
C1181 H1193 0.929 . S
C1182 C1178 1.531 . S
C1182 H1194 0.960 . S
C1182 H1195 0.962 . S
C1182 H1196 0.960 . S
C1183 C1180 1.511 . S
C1183 H1197 0.961 . S
C1183 H1198 0.961 . S
C1183 H1199 0.961 . S
C1184 C1185 1.370 . S
C1184 C1186 1.363 . S
C1184 H1200 0.931 . S
C1185 C1184 1.370 . S
C1185 C1189 1.408 . S
C1186 C1184 1.363 . S
C1186 C1187 1.370 . S
C1186 C1190 1.524 . S
C1187 C1179 1.503 . S
C1187 C1186 1.370 . S
C1187 C1188 1.403 . S
C1188 C1187 1.403 . S
C1188 C1189 1.404 . S
C1188 C1191 1.539 . S
C1189 C1185 1.408 . S
C1189 C1188 1.404 . S
C1189 H1201 0.930 . S
C1190 C1186 1.524 . S
C1190 H1202 0.956 . S
C1190 H1203 0.961 . S
C1190 H1204 0.961 . S
C1191 C1188 1.539 . S
C1191 H1205 0.958 . S
C1191 H1206 0.961 . S
C1191 H1207 0.960 . S
H1192 C1176 0.931 . S
H1193 C1181 0.929 . S
H1194 C1182 0.960 . S
H1195 C1182 0.962 . S
H1196 C1182 0.960 . S
H1197 C1183 0.961 . S
H1198 C1183 0.961 . S
H1199 C1183 0.961 . S
H1200 C1184 0.931 . S
H1201 C1189 0.930 . S
H1202 C1190 0.956 . S
H1203 C1190 0.961 . S
H1204 C1190 0.961 . S
H1205 C1191 0.958 . S
H1206 C1191 0.961 . S
H1207 C1191 0.960 . S
C1208 C1209 1.391 . S
C1208 C1210 1.394 . S
C1208 H1224 0.931 . S
C1209 C1208 1.391 . S
C1209 C1213 1.376 . S
C1210 C1208 1.394 . S
C1210 C1211 1.369 . S
C1210 C1214 1.531 1_545 S
C1211 C1210 1.369 . S
C1211 C1212 1.410 . S
C1211 C1219 1.503 1_545 S
C1212 C1211 1.410 . S
C1212 C1213 1.392 . S
C1212 C1215 1.511 . S
C1213 C1209 1.376 . S
C1213 C1212 1.392 . S
C1213 H1225 0.929 . S
C1214 C1210 1.531 1_565 S
C1214 H1226 0.960 . S
C1214 H1227 0.962 . S
C1214 H1228 0.960 . S
C1215 C1212 1.511 . S
C1215 H1229 0.961 . S
C1215 H1230 0.961 . S
C1215 H1231 0.961 . S
C1216 C1217 1.370 . S
C1216 C1218 1.363 . S
C1216 H1232 0.931 . S
C1217 C1216 1.370 . S
C1217 C1221 1.408 . S
C1218 C1216 1.363 . S
C1218 C1219 1.370 . S
C1218 C1222 1.524 . S
C1219 C1211 1.503 1_565 S
C1219 C1218 1.370 . S
C1219 C1220 1.403 . S
C1220 C1219 1.403 . S
C1220 C1221 1.404 . S
C1220 C1223 1.539 . S
C1221 C1217 1.408 . S
C1221 C1220 1.404 . S
C1221 H1233 0.930 . S
C1222 C1218 1.524 . S
C1222 H1234 0.956 . S
C1222 H1235 0.961 1_565 S
C1222 H1236 0.961 . S
C1223 C1220 1.539 . S
C1223 H1237 0.958 . S
C1223 H1238 0.961 . S
C1223 H1239 0.960 1_565 S
H1224 C1208 0.931 . S
H1225 C1213 0.929 . S
H1226 C1214 0.960 . S
H1227 C1214 0.962 . S
H1228 C1214 0.960 . S
H1229 C1215 0.961 . S
H1230 C1215 0.961 . S
H1231 C1215 0.961 . S
H1232 C1216 0.931 . S
H1233 C1221 0.930 . S
H1234 C1222 0.956 . S
H1235 C1222 0.961 1_545 S
H1236 C1222 0.961 . S
H1237 C1223 0.958 . S
H1238 C1223 0.961 . S
H1239 C1223 0.960 1_545 S
C1240 C1241 1.391 . S
C1240 C1242 1.394 . S
C1240 H1256 0.931 . S
C1241 C1240 1.391 . S
C1241 C1245 1.376 . S
C1242 C1240 1.394 . S
C1242 C1243 1.369 . S
C1242 C1246 1.531 . S
C1243 C1242 1.369 . S
C1243 C1244 1.410 . S
C1243 C1251 1.503 1_655 S
C1244 C1243 1.410 . S
C1244 C1245 1.392 . S
C1244 C1247 1.511 . S
C1245 C1241 1.376 . S
C1245 C1244 1.392 . S
C1245 H1257 0.929 . S
C1246 C1242 1.531 . S
C1246 H1258 0.960 1_655 S
C1246 H1259 0.962 . S
C1246 H1260 0.960 . S
C1247 C1244 1.511 . S
C1247 H1261 0.961 . S
C1247 H1262 0.961 . S
C1247 H1263 0.961 . S
C1248 C1249 1.370 . S
C1248 C1250 1.363 . S
C1248 H1264 0.931 . S
C1249 C1248 1.370 . S
C1249 C1253 1.408 . S
C1250 C1248 1.363 . S
C1250 C1251 1.370 . S
C1250 C1254 1.524 1_455 S
C1251 C1243 1.503 1_455 S
C1251 C1250 1.370 . S
C1251 C1252 1.403 . S
C1252 C1251 1.403 . S
C1252 C1253 1.404 . S
C1252 C1255 1.539 . S
C1253 C1249 1.408 . S
C1253 C1252 1.404 . S
C1253 H1265 0.930 . S
C1254 C1250 1.524 1_655 S
C1254 H1266 0.956 . S
C1254 H1267 0.961 . S
C1254 H1268 0.961 . S
C1255 C1252 1.539 . S
C1255 H1269 0.958 . S
C1255 H1270 0.961 . S
C1255 H1271 0.960 . S
H1256 C1240 0.931 . S
H1257 C1245 0.929 . S
H1258 C1246 0.960 1_455 S
H1259 C1246 0.962 . S
H1260 C1246 0.960 . S
H1261 C1247 0.961 . S
H1262 C1247 0.961 . S
H1263 C1247 0.961 . S
H1264 C1248 0.931 . S
H1265 C1253 0.930 . S
H1266 C1254 0.956 . S
H1267 C1254 0.961 . S
H1268 C1254 0.961 . S
H1269 C1255 0.958 . S
H1270 C1255 0.961 . S
H1271 C1255 0.960 . S
C1272 C1273 1.391 . S
C1272 C1274 1.394 . S
C1272 H1288 0.931 . S
C1273 C1272 1.391 . S
C1273 C1277 1.376 . S
C1274 C1272 1.394 . S
C1274 C1275 1.369 . S
C1274 C1278 1.531 . S
C1275 C1274 1.369 . S
C1275 C1276 1.410 . S
C1275 C1283 1.503 . S
C1276 C1275 1.410 . S
C1276 C1277 1.392 . S
C1276 C1279 1.511 . S
C1277 C1273 1.376 . S
C1277 C1276 1.392 . S
C1277 H1289 0.929 . S
C1278 C1274 1.531 . S
C1278 H1290 0.960 . S
C1278 H1291 0.962 . S
C1278 H1292 0.960 . S
C1279 C1276 1.511 . S
C1279 H1293 0.961 . S
C1279 H1294 0.961 . S
C1279 H1295 0.961 . S
C1280 C1281 1.370 . S
C1280 C1282 1.363 . S
C1280 H1296 0.931 . S
C1281 C1280 1.370 . S
C1281 C1285 1.408 . S
C1282 C1280 1.363 . S
C1282 C1283 1.370 . S
C1282 C1286 1.524 . S
C1283 C1275 1.503 . S
C1283 C1282 1.370 . S
C1283 C1284 1.403 . S
C1284 C1283 1.403 . S
C1284 C1285 1.404 . S
C1284 C1287 1.539 . S
C1285 C1281 1.408 . S
C1285 C1284 1.404 . S
C1285 H1297 0.930 . S
C1286 C1282 1.524 . S
C1286 H1298 0.956 . S
C1286 H1299 0.961 . S
C1286 H1300 0.961 . S
C1287 C1284 1.539 . S
C1287 H1301 0.958 . S
C1287 H1302 0.961 . S
C1287 H1303 0.960 . S
H1288 C1272 0.931 . S
H1289 C1277 0.929 . S
H1290 C1278 0.960 . S
H1291 C1278 0.962 . S
H1292 C1278 0.960 . S
H1293 C1279 0.961 . S
H1294 C1279 0.961 . S
H1295 C1279 0.961 . S
H1296 C1280 0.931 . S
H1297 C1285 0.930 . S
H1298 C1286 0.956 . S
H1299 C1286 0.961 . S
H1300 C1286 0.961 . S
H1301 C1287 0.958 . S
H1302 C1287 0.961 . S
H1303 C1287 0.960 . S
C1304 C1305 1.391 . S
C1304 C1306 1.394 . S
C1304 H1320 0.931 . S
C1305 C1304 1.391 . S
C1305 C1309 1.376 . S
C1306 C1304 1.394 . S
C1306 C1307 1.369 . S
C1306 C1310 1.531 . S
C1307 C1306 1.369 . S
C1307 C1308 1.410 . S
C1307 C1315 1.503 1_565 S
C1308 C1307 1.410 . S
C1308 C1309 1.392 . S
C1308 C1311 1.511 . S
C1309 C1305 1.376 . S
C1309 C1308 1.392 . S
C1309 H1321 0.929 . S
C1310 C1306 1.531 . S
C1310 H1322 0.947 1_565 S
C1310 H1323 0.962 . S
C1310 H1324 0.960 . S
C1311 C1308 1.511 . S
C1311 H1325 0.961 . S
C1311 H1326 0.961 1_565 S
C1311 H1327 0.961 1_565 S
C1312 C1313 1.370 . S
C1312 C1314 1.363 . S
C1312 H1328 0.931 . S
C1313 C1312 1.370 . S
C1313 C1317 1.408 . S
C1314 C1312 1.363 . S
C1314 C1315 1.370 . S
C1314 C1318 1.524 1_545 S
C1315 C1307 1.503 1_545 S
C1315 C1314 1.370 . S
C1315 C1316 1.403 . S
C1316 C1315 1.403 . S
C1316 C1317 1.404 . S
C1316 C1319 1.539 . S
C1317 C1313 1.408 . S
C1317 C1316 1.404 . S
C1317 H1329 0.930 . S
C1318 C1314 1.524 1_565 S
C1318 H1330 0.956 . S
C1318 H1331 0.961 . S
C1318 H1332 0.961 . S
C1319 C1316 1.539 . S
C1319 H1333 0.958 . S
C1319 H1334 0.961 . S
C1319 H1335 0.960 . S
H1320 C1304 0.931 . S
H1321 C1309 0.929 . S
H1322 C1310 0.947 1_545 S
H1323 C1310 0.962 . S
H1324 C1310 0.960 . S
H1325 C1311 0.961 . S
H1326 C1311 0.961 1_545 S
H1327 C1311 0.961 1_545 S
H1328 C1312 0.931 . S
H1329 C1317 0.930 . S
H1330 C1318 0.956 . S
H1331 C1318 0.961 . S
H1332 C1318 0.961 . S
H1333 C1319 0.958 . S
H1334 C1319 0.961 . S
H1335 C1319 0.960 . S
C1336 C1337 1.391 . S
C1336 C1338 1.394 . S
C1336 H1352 0.931 . S
C1337 C1336 1.391 . S
C1337 C1341 1.376 . S
C1338 C1336 1.394 . S
C1338 C1339 1.369 . S
C1338 C1342 1.531 . S
C1339 C1338 1.369 . S
C1339 C1340 1.410 . S
C1339 C1347 1.503 1_455 S
C1340 C1339 1.410 . S
C1340 C1341 1.392 . S
C1340 C1343 1.511 1_455 S
C1341 C1337 1.376 . S
C1341 C1340 1.392 . S
C1341 H1353 0.929 . S
C1342 C1338 1.531 . S
C1342 H1354 0.960 . S
C1342 H1355 0.962 . S
C1342 H1356 0.960 . S
C1343 C1340 1.511 1_655 S
C1343 H1357 0.961 . S
C1343 H1358 0.961 . S
C1343 H1359 0.961 . S
C1344 C1345 1.370 . S
C1344 C1346 1.363 . S
C1344 H1360 0.931 . S
C1345 C1344 1.370 . S
C1345 C1349 1.408 . S
C1346 C1344 1.363 . S
C1346 C1347 1.370 . S
C1346 C1350 1.524 . S
C1347 C1339 1.503 1_655 S
C1347 C1346 1.370 . S
C1347 C1348 1.403 . S
C1348 C1347 1.403 . S
C1348 C1349 1.404 . S
C1348 C1351 1.539 . S
C1349 C1345 1.408 . S
C1349 C1348 1.404 . S
C1349 H1361 0.930 . S
C1350 C1346 1.524 . S
C1350 H1362 0.956 . S
C1350 H1363 0.961 . S
C1350 H1364 0.961 . S
C1351 C1348 1.539 . S
C1351 H1365 0.958 1_655 S
C1351 H1366 0.961 . S
C1351 H1367 0.960 1_655 S
H1352 C1336 0.931 . S
H1353 C1341 0.929 . S
H1354 C1342 0.960 . S
H1355 C1342 0.962 . S
H1356 C1342 0.960 . S
H1357 C1343 0.961 . S
H1358 C1343 0.961 . S
H1359 C1343 0.961 . S
H1360 C1344 0.931 . S
H1361 C1349 0.930 . S
H1362 C1350 0.956 . S
H1363 C1350 0.961 . S
H1364 C1350 0.961 . S
H1365 C1351 0.958 1_455 S
H1366 C1351 0.961 . S
H1367 C1351 0.960 1_455 S
C409 C36 1.623 . S
C417 C9 1.625 . S
C441 C43 1.616 . S
C449 C70 1.627 . S
C473 C77 1.628 . S
C481 C2 1.618 . S
C505 C111 1.627 . S
C513 C172 1.626 . S
C537 C145 1.632 . S
C545 C104 1.619 . S
C569 C138 1.628 . S
C577 C179 1.628 . S
C601 C240 1.612 . S
C609 C213 1.628 . S
C633 C274 1.631 . S
C641 C247 1.626 . S
C665 C206 1.610 . S
C673 C281 1.631 . S
C697 C315 1.628 . S
C705 C376 1.618 . S
C729 C308 1.611 . S
C737 C349 1.631 . S
C761 C383 1.631 . S
C769 C342 1.621 . S
C793 C20 1.402 . S
C801 C243 1.359 . S
C825 C54 1.355 . S
C833 C277 1.380 . S
C857 C88 1.350 . S
C865 C209 1.379 . S
C889 C379 1.384 . S
C897 C122 1.367 . S
C921 C156 1.400 . S
C929 C311 1.355 . S
C953 C345 1.332 . S
C961 C190 1.385 . S
C985 C39 1.387 . S
C993 C224 1.368 . S
C1017 C73 1.393 . S
C1025 C258 1.368 . S
C1049 C292 1.394 . S
C1057 C5 1.355 . S
C1081 C175 1.352 . S
C1089 C326 1.387 . S
C1113 C360 1.379 . S
C1121 C107 1.371 . S
C1145 C394 1.380 . S
C1153 C141 1.371 . S
C1177 C135 1.693 . S
C1185 C33 1.710 . S
C1209 C67 1.713 . S
C1217 C169 1.703 . S
C1241 C101 1.674 . S
C1249 C203 1.713 . S
C1273 C339 1.685 . S
C1281 C237 1.713 . S
C1305 C271 1.679 . S
C1313 C373 1.713 . S
C1337 C305 1.718 . S
C1345 C407 1.704 . S
