# Generated by pormake.
# Topology mok, (4)-cn, num edge types: 1
# Building blocks:
#     Node 0, Type 0, BuildingBlock: GALJAG_clean_sbu_0, # of connection points: 4
#     Node 1, Type 0, BuildingBlock: GALJAG_clean_sbu_0, # of connection points: 4
#     Node 2, Type 0, BuildingBlock: GALJAG_clean_sbu_0, # of connection points: 4
#     Node 3, Type 0, BuildingBlock: GALJAG_clean_sbu_0, # of connection points: 4
#     Node 4, Type 0, BuildingBlock: GALJAG_clean_sbu_0, # of connection points: 4
#     Node 5, Type 0, BuildingBlock: GALJAG_clean_sbu_0, # of connection points: 4
#     Node 6, Type 0, BuildingBlock: GALJAG_clean_sbu_0, # of connection points: 4
#     Node 7, Type 0, BuildingBlock: GALJAG_clean_sbu_0, # of connection points: 4
#     Edge 8, Type (0, 0), BuildingBlock: CIFDUS_clean_linker_0, # of connection points: 2
#     Edge 9, Type (0, 0), BuildingBlock: CIFDUS_clean_linker_0, # of connection points: 2
#     Edge 10, Type (0, 0), BuildingBlock: CIFDUS_clean_linker_0, # of connection points: 2
#     Edge 11, Type (0, 0), BuildingBlock: CIFDUS_clean_linker_0, # of connection points: 2
#     Edge 12, Type (0, 0), BuildingBlock: CIFDUS_clean_linker_0, # of connection points: 2
#     Edge 13, Type (0, 0), BuildingBlock: CIFDUS_clean_linker_0, # of connection points: 2
#     Edge 14, Type (0, 0), BuildingBlock: CIFDUS_clean_linker_0, # of connection points: 2
#     Edge 15, Type (0, 0), BuildingBlock: CIFDUS_clean_linker_0, # of connection points: 2
#     Edge 16, Type (0, 0), BuildingBlock: CIFDUS_clean_linker_0, # of connection points: 2
#     Edge 17, Type (0, 0), BuildingBlock: CIFDUS_clean_linker_0, # of connection points: 2
#     Edge 18, Type (0, 0), BuildingBlock: CIFDUS_clean_linker_0, # of connection points: 2
#     Edge 19, Type (0, 0), BuildingBlock: CIFDUS_clean_linker_0, # of connection points: 2
#     Edge 20, Type (0, 0), BuildingBlock: CIFDUS_clean_linker_0, # of connection points: 2
#     Edge 21, Type (0, 0), BuildingBlock: CIFDUS_clean_linker_0, # of connection points: 2
#     Edge 22, Type (0, 0), BuildingBlock: CIFDUS_clean_linker_0, # of connection points: 2
#     Edge 23, Type (0, 0), BuildingBlock: CIFDUS_clean_linker_0, # of connection points: 2
# Relax obj value: 0.070
# Max RMSD: 0.103
# Mean RMSD: 0.103
data_MOF--net-mok--node1-GALJAG_clean_sbu_0--edge1-CIFDUS_clean_linker_0
_symmetry_space_group_name_H-M    P1
_symmetry_Int_Tables_number       1
_symmetry_cell_setting            triclinic
loop_
_symmetry_equiv_pos_as_xyz
'x, y, z'
_cell_length_a     47.979522
_cell_length_b     12.182798
_cell_length_c     24.994304
_cell_angle_alpha  90.01313
_cell_angle_beta   89.975413
_cell_angle_gamma 90.011247
loop_
_atom_site_label
_atom_site_type_symbol
_atom_site_fract_x
_atom_site_fract_y
_atom_site_fract_z
_atom_type_partial_charge
In0 In 0.61442 0.29082 0.00776 0.0
O1 O 0.60332 0.41558 0.94285 0.0
O2 O 0.61446 0.25277 0.91956 0.0
C3 C 0.60593 0.38314 0.10375 0.0
C4 C 0.57226 0.14727 0.01217 0.0
C5 C 0.67042 0.28283 0.00837 0.0
O6 O 0.6027 0.43656 0.06069 0.0
O7 O 0.61342 0.28454 0.09789 0.0
O8 O 0.6557 0.19665 0.01103 0.0
O9 O 0.65681 0.37124 0.00576 0.0
C10 C 0.60701 0.34756 0.90513 0.0
O11 O 0.59746 0.11635 0.01479 0.0
O12 O 0.56871 0.2496 0.00782 0.0
In13 In 0.38684 0.67256 0.99548 0.0
O14 O 0.40398 0.84767 0.99628 0.0
O15 O 0.43259 0.71421 0.00117 0.0
C16 C 0.33093 0.69311 0.99251 0.0
C17 C 0.39633 0.58631 0.89865 0.0
C18 C 0.39219 0.58266 0.09257 0.0
O19 O 0.34679 0.77594 0.99485 0.0
O20 O 0.34334 0.60204 0.9914 0.0
O21 O 0.39624 0.52832 0.05022 0.0
O22 O 0.38554 0.68187 0.08568 0.0
C23 C 0.4291 0.81679 1e-05 0.0
O24 O 0.3989 0.53095 0.94108 0.0
O25 O 0.38916 0.68505 0.9053 0.0
In26 In 0.60701 0.64783 0.5069 0.0
O27 O 0.59911 0.52206 0.57282 0.0
O28 O 0.60715 0.68858 0.59485 0.0
C29 C 0.60122 0.55305 0.41088 0.0
C30 C 0.56099 0.77143 0.50182 0.0
C31 C 0.66267 0.6718 0.50474 0.0
O32 O 0.5989 0.49853 0.45387 0.0
O33 O 0.60631 0.65401 0.41689 0.0
O34 O 0.64646 0.75384 0.5019 0.0
O35 O 0.65066 0.58004 0.50864 0.0
C36 C 0.60186 0.59196 0.61004 0.0
O37 O 0.58516 0.81362 0.49945 0.0
O38 O 0.56043 0.66823 0.50659 0.0
In39 In 0.38858 0.3212 0.49642 0.0
O40 O 0.41118 0.15609 0.49706 0.0
O41 O 0.4354 0.30236 0.49198 0.0
C42 C 0.33371 0.27221 0.49933 0.0
C43 C 0.39542 0.41386 0.59269 0.0
C44 C 0.39189 0.41226 0.3992 0.0
O45 O 0.35216 0.19816 0.49729 0.0
O46 O 0.34307 0.36879 0.50006 0.0
O47 O 0.39352 0.46844 0.44155 0.0
O48 O 0.38858 0.31046 0.40608 0.0
C49 C 0.43517 0.19892 0.49393 0.0
O50 O 0.39569 0.46928 0.55 0.0
O51 O 0.39166 0.31209 0.58661 0.0
In52 In 0.11187 0.83186 -0.00027 0.0
O53 O 0.09582 0.65656 0.00044 0.0
O54 O 0.06605 0.78721 -0.00024 0.0
C55 C 0.16777 0.82031 -0.00144 0.0
C56 C 0.10492 0.89821 0.89736 0.0
C57 C 0.10552 0.89795 0.10233 0.0
O58 O 0.15254 0.7354 -0.00177 0.0
O59 O 0.15471 0.91029 -0.00037 0.0
O60 O 0.10129 0.96322 0.06351 0.0
O61 O 0.11267 0.80224 0.08882 0.0
C62 C 0.0704 0.68476 0.00019 0.0
O63 O 0.10094 0.96347 0.93631 0.0
O64 O 0.11209 0.80244 0.91066 0.0
In65 In 0.89096 0.17305 -0.00135 0.0
O66 O 0.90277 0.03105 0.944 0.0
O67 O 0.89175 0.18401 0.90841 0.0
C68 C 0.89884 0.08784 0.09622 0.0
C69 C 0.93131 0.32612 -0.00134 0.0
C70 C 0.83481 0.18249 -0.00086 0.0
O71 O 0.90341 0.03329 0.05412 0.0
O72 O 0.89072 0.18515 0.08881 0.0
O73 O 0.84965 0.26835 -0.00057 0.0
O74 O 0.84832 0.09391 -0.00172 0.0
C75 C 0.89916 0.08562 0.90159 0.0
O76 O 0.90574 0.35158 0.99748 0.0
O77 O 0.93621 0.22438 -0.00021 0.0
In78 In 0.11195 0.22425 0.49999 0.0
O79 O 0.1036 0.08859 0.56301 0.0
O80 O 0.11074 0.25259 0.58917 0.0
C81 C 0.10639 0.15425 0.39772 0.0
C82 C 0.06791 0.35955 0.49898 0.0
C83 C 0.16733 0.25987 0.50095 0.0
O84 O 0.10391 0.08844 0.43686 0.0
O85 O 0.11166 0.25205 0.41076 0.0
O86 O 0.14975 0.33722 0.50103 0.0
O87 O 0.15692 0.16463 0.50034 0.0
C88 C 0.10561 0.15467 0.60215 0.0
O89 O 0.09278 0.39444 0.49918 0.0
O90 O 0.06535 0.2562 0.49936 0.0
In91 In 0.88153 0.82989 0.49891 0.0
O92 O 0.89838 0.65377 0.49836 0.0
O93 O 0.92722 0.78683 0.49777 0.0
C94 C 0.82548 0.80918 0.49977 0.0
C95 C 0.89098 0.91783 0.59553 0.0
C96 C 0.88954 0.91969 0.40228 0.0
O97 O 0.84144 0.72658 0.49967 0.0
O98 O 0.83783 0.90036 0.49948 0.0
O99 O 0.89113 0.97497 0.4449 0.0
O100 O 0.88381 0.81939 0.40851 0.0
C101 C 0.92361 0.68427 0.49783 0.0
O102 O 0.8932 0.97274 0.55291 0.0
O103 O 0.88384 0.81894 0.5893 0.0
H104 H 0.8005 0.36048 0.00225 0.0
H105 H 0.80003 0.00632 -0.00093 0.0
H106 H 0.74924 0.00547 0.00228 0.0
H107 H 0.70476 0.10512 0.006 0.0
H108 H 0.70516 0.45927 0.00856 0.0
H109 H 0.75598 0.4602 0.00575 0.0
C110 C 0.78925 0.28324 0.00222 0.0
C111 C 0.80401 0.18378 0.00044 0.0
C112 C 0.75998 0.2832 0.00407 0.0
C113 C 0.78917 0.0842 0.00042 0.0
C114 C 0.7601 0.0835 0.00229 0.0
C115 C 0.716 0.18238 0.00606 0.0
C116 C 0.70122 0.2818 0.00754 0.0
C117 C 0.74527 0.18246 0.00419 0.0
C118 C 0.71605 0.38142 0.00743 0.0
C119 C 0.74513 0.38215 0.0058 0.0
H120 H 0.20026 0.63852 0.99232 0.0
H121 H 0.20426 0.9917 0.00242 0.0
H122 H 0.25515 0.98441 0.00086 0.0
H123 H 0.29866 0.87716 0.99718 0.0
H124 H 0.29422 0.52391 0.9869 0.0
H125 H 0.24348 0.5319 0.98783 0.0
C126 C 0.21227 0.71385 0.99419 0.0
C127 C 0.19853 0.81536 0.99756 0.0
C128 C 0.24149 0.70912 0.99318 0.0
C129 C 0.21437 0.91237 -0.00016 0.0
C130 C 0.24347 0.90834 -0.00106 0.0
C131 C 0.28655 0.8021 0.99504 0.0
C132 C 0.30019 0.70023 0.99202 0.0
C133 C 0.25728 0.80713 0.99567 0.0
C134 C 0.28424 0.60352 0.98928 0.0
C135 C 0.2552 0.60788 0.98984 0.0
H136 H 0.79369 0.62422 0.50266 0.0
H137 H 0.78825 0.97759 0.49785 0.0
H138 H 0.73747 0.96717 0.49864 0.0
H139 H 0.69437 0.85757 0.50091 0.0
H140 H 0.69999 0.5042 0.50632 0.0
H141 H 0.75071 0.51485 0.50504 0.0
C142 C 0.78137 0.69884 0.50175 0.0
C143 C 0.79473 0.80135 0.50018 0.0
C144 C 0.75213 0.69238 0.50232 0.0
C145 C 0.77849 0.89746 0.49908 0.0
C146 C 0.74942 0.89169 0.49952 0.0
C147 C 0.70672 0.78304 0.50175 0.0
C148 C 0.69341 0.68042 0.50369 0.0
C149 C 0.73599 0.7896 0.50115 0.0
C150 C 0.7097 0.58442 0.50486 0.0
C151 C 0.73874 0.59029 0.50412 0.0
H152 H 0.20876 0.10718 0.49926 0.0
H153 H 0.19414 0.45669 0.50377 0.0
H154 H 0.24428 0.49041 0.50419 0.0
H155 H 0.2921 0.42136 0.5027 0.0
H156 H 0.30737 0.07251 0.49777 0.0
H157 H 0.25707 0.03765 0.49815 0.0
C158 C 0.21657 0.19069 0.50036 0.0
C159 C 0.19775 0.27934 0.50144 0.0
C160 C 0.24548 0.20954 0.50052 0.0
C161 C 0.20817 0.38705 0.50287 0.0
C162 C 0.23684 0.40643 0.50312 0.0
C163 C 0.28446 0.33757 0.50177 0.0
C164 C 0.30343 0.24959 0.50019 0.0
C165 C 0.25565 0.31838 0.50187 0.0
C166 C 0.29318 0.14161 0.49899 0.0
C167 C 0.26444 0.12171 0.49919 0.0
H168 H 0.60341 0.27566 0.19832 0.0
H169 H 0.59986 0.59984 0.12909 0.0
H170 H 0.59687 0.68068 0.21854 0.0
H171 H 0.59769 0.65927 0.31615 0.0
H172 H 0.60051 0.33502 0.38541 0.0
H173 H 0.60116 0.25369 0.29588 0.0
C174 C 0.60186 0.36402 0.20281 0.0
C175 C 0.60213 0.43191 0.15729 0.0
C176 C 0.60007 0.40964 0.25421 0.0
C177 C 0.59977 0.54603 0.16359 0.0
C178 C 0.59812 0.5922 0.21467 0.0
C179 C 0.5983 0.57073 0.31165 0.0
C180 C 0.59932 0.50312 0.35723 0.0
C181 C 0.59863 0.52483 0.26022 0.0
C182 C 0.59979 0.38865 0.35088 0.0
C183 C 0.60023 0.34223 0.29975 0.0
H184 H 0.39116 0.6897 0.18715 0.0
H185 H 0.39796 0.36626 0.11788 0.0
H186 H 0.39901 0.28488 0.20726 0.0
H187 H 0.39643 0.30573 0.30473 0.0
H188 H 0.39049 0.62956 0.37389 0.0
H189 H 0.39074 0.71114 0.28458 0.0
C190 C 0.39295 0.60141 0.19165 0.0
C191 C 0.39429 0.53385 0.14621 0.0
C192 C 0.39363 0.55549 0.24296 0.0
C193 C 0.39686 0.41978 0.15243 0.0
C194 C 0.39741 0.37327 0.20344 0.0
C195 C 0.39525 0.39417 0.3002 0.0
C196 C 0.39324 0.46165 0.3456 0.0
C197 C 0.39554 0.44033 0.24891 0.0
C198 C 0.392 0.57607 0.33938 0.0
C199 C 0.3921 0.62268 0.28841 0.0
H200 H 0.39655 0.69366 0.80397 0.0
H201 H 0.40401 0.37081 0.87358 0.0
H202 H 0.40572 0.28913 0.78435 0.0
H203 H 0.40219 0.30889 0.687 0.0
H204 H 0.39505 0.63174 0.61731 0.0
H205 H 0.39627 0.7144 0.70639 0.0
C206 C 0.39874 0.60549 0.79957 0.0
C207 C 0.39988 0.53812 0.8451 0.0
C208 C 0.39963 0.55926 0.7483 0.0
C209 C 0.40299 0.42421 0.83899 0.0
C210 C 0.4039 0.37749 0.78806 0.0
C211 C 0.40105 0.39738 0.69135 0.0
C212 C 0.39824 0.46419 0.6459 0.0
C213 C 0.40176 0.44411 0.74251 0.0
C214 C 0.3971 0.57871 0.65187 0.0
C215 C 0.39775 0.62594 0.70272 0.0
H216 H 0.60152 0.55074 0.86144 0.0
H217 H 0.60503 0.20668 0.82103 0.0
H218 H 0.60199 0.25129 0.72607 0.0
H219 H 0.60065 0.38837 0.65416 0.0
H220 H 0.59919 0.73278 0.69429 0.0
H221 H 0.59897 0.68786 0.78946 0.0
C222 C 0.6014 0.48568 0.83181 0.0
C223 C 0.60359 0.3758 0.84814 0.0
C224 C 0.60012 0.51195 0.77716 0.0
C225 C 0.60352 0.29212 0.80938 0.0
C226 C 0.60178 0.31745 0.75507 0.0
C227 C 0.60006 0.45342 0.68378 0.0
C228 C 0.60002 0.56353 0.6673 0.0
C229 C 0.60042 0.42711 0.73845 0.0
C230 C 0.59936 0.64719 0.70604 0.0
C231 C 0.59924 0.62167 0.76047 0.0
H232 H 0.1014 0.10385 0.1457 0.0
H233 H 0.1048 0.76093 0.18805 0.0
H234 H 0.10401 0.80807 0.28285 0.0
H235 H 0.10439 0.94729 0.35462 0.0
H236 H 0.10268 0.29034 0.31204 0.0
H237 H 0.10068 0.24281 0.21742 0.0
C238 C 0.10173 0.03957 0.17571 0.0
C239 C 0.10321 0.92915 0.15964 0.0
C240 C 0.10171 0.06727 0.23051 0.0
C241 C 0.10378 0.84679 0.19916 0.0
C242 C 0.10333 0.87358 0.25355 0.0
C243 C 0.10339 0.01145 0.32462 0.0
C244 C 0.10377 0.12211 0.34057 0.0
C245 C 0.10262 0.98361 0.26983 0.0
C246 C 0.10256 0.20433 0.30103 0.0
C247 C 0.1014 0.17733 0.24674 0.0
H248 H 0.89848 0.81285 0.30903 0.0
H249 H 0.88934 0.13672 0.37673 0.0
H250 H 0.89288 0.21802 0.28761 0.0
H251 H 0.89613 0.19597 0.19039 0.0
H252 H 0.90619 0.8726 0.12257 0.0
H253 H 0.90507 0.79187 0.21211 0.0
C254 C 0.89738 0.90124 0.3042 0.0
C255 C 0.89338 0.96882 0.34907 0.0
C256 C 0.89961 0.94726 0.25302 0.0
C257 C 0.89234 0.0832 0.3426 0.0
C258 C 0.89432 0.12964 0.29173 0.0
C259 C 0.89828 0.10789 0.19527 0.0
C260 C 0.90098 0.04009 0.15012 0.0
C261 C 0.8976 0.06231 0.24666 0.0
C262 C 0.90403 0.92632 0.15686 0.0
C263 C 0.90329 0.88015 0.20796 0.0
H264 H 0.8966 0.80942 0.68932 0.0
H265 H 0.89579 0.13439 0.62065 0.0
H266 H 0.89999 0.2152 0.70978 0.0
H267 H 0.90088 0.19332 0.80724 0.0
H268 H 0.90256 0.86855 0.87601 0.0
H269 H 0.90132 0.78742 0.78655 0.0
C270 C 0.89748 0.8979 0.69392 0.0
C271 C 0.89554 0.96605 0.64876 0.0
C272 C 0.90001 0.9436 0.74513 0.0
C273 C 0.8971 0.08042 0.655 0.0
C274 C 0.89946 0.12661 0.70587 0.0
C275 C 0.9012 0.10479 0.80257 0.0
C276 C 0.9015 0.03684 0.84794 0.0
C277 C 0.90047 0.05898 0.75121 0.0
C278 C 0.90226 0.92239 0.84153 0.0
C279 C 0.90144 0.87603 0.79047 0.0
H280 H 0.10041 0.10414 0.85414 0.0
H281 H 0.10413 0.76131 0.8116 0.0
H282 H 0.10323 0.80852 0.71685 0.0
H283 H 0.10361 0.94775 0.64517 0.0
H284 H 0.10147 0.29075 0.68784 0.0
H285 H 0.09943 0.24315 0.78245 0.0
C286 C 0.10077 0.0399 0.8241 0.0
C287 C 0.1024 0.92949 0.8401 0.0
C288 C 0.10068 0.06763 0.7693 0.0
C289 C 0.103 0.84717 0.80054 0.0
C290 C 0.1025 0.87399 0.74618 0.0
C291 C 0.10249 0.01188 0.67519 0.0
C292 C 0.10279 0.12255 0.65927 0.0
C293 C 0.10169 0.98401 0.72996 0.0
C294 C 0.10142 0.20474 0.69882 0.0
C295 C 0.10024 0.1777 0.75311 0.0
H296 H 0.48368 0.7652 0.01047 0.0
H297 H 0.42766 0.04079 0.99594 0.0
H298 H 0.4672 0.16731 -0.00039 0.0
H299 H 0.51755 0.19894 0.00558 0.0
H300 H 0.57364 0.92349 0.01972 0.0
H301 H 0.53403 0.79701 0.01776 0.0
C302 C 0.48011 0.85299 0.00814 0.0
C303 C 0.45281 0.89372 0.00279 0.0
C304 C 0.50289 0.92494 0.01023 0.0
C305 C 0.44849 0.00754 -2e-05 0.0
C306 C 0.47107 0.07981 0.00208 0.0
C307 C 0.52113 0.11121 0.00838 0.0
C308 C 0.54847 0.07046 0.0127 0.0
C309 C 0.49833 0.03932 0.00702 0.0
C310 C 0.55278 0.95674 0.01634 0.0
C311 C 0.53016 0.8845 0.01516 0.0
H312 H 0.55587 0.99318 0.49238 0.0
H313 H 0.50785 0.695 0.50675 0.0
H314 H 0.46468 0.80035 0.50485 0.0
H315 H 0.44043 0.97733 0.50024 0.0
H316 H 0.48828 0.2759 0.48619 0.0
H317 H 0.53152 0.17045 0.4867 0.0
C318 C 0.53595 0.95142 0.495 0.0
C319 C 0.53508 0.83662 0.49977 0.0
C320 C 0.51113 0.01253 0.49397 0.0
C321 C 0.50911 0.78346 0.50309 0.0
C322 C 0.48438 0.84356 0.50202 0.0
C323 C 0.46032 0.01919 0.49719 0.0
C324 C 0.46115 0.13407 0.49327 0.0
C325 C 0.48513 0.95813 0.49764 0.0
C326 C 0.48708 0.18734 0.48932 0.0
C327 C 0.51184 0.12717 0.48963 0.0
H328 H 0.01481 0.72666 -0.00192 0.0
H329 H 0.0745 0.46173 0.00244 0.0
H330 H 0.03662 0.32784 0.0024 0.0
H331 H 0.98672 0.28608 0.00102 0.0
H332 H 0.92677 0.54992 0.99649 0.0
H333 H 0.96464 0.68455 0.99668 0.0
C334 C 0.01951 0.63961 -0.00096 0.0
C335 C 0.04741 0.60411 0.00026 0.0
C336 C 0.99763 0.56309 -0.00105 0.0
C337 C 0.0532 0.49112 0.00147 0.0
C338 C 0.03156 0.41453 0.00145 0.0
C339 C 0.98191 0.37306 7e-05 0.0
C340 C 0.954 0.40808 -0.00125 0.0
C341 C 0.00373 0.44962 0.00017 0.0
C342 C 0.9481 0.52097 0.99753 0.0
C343 C 0.96974 0.5979 0.99764 0.0
H344 H 0.01302 0.3037 0.49907 0.0
H345 H 0.06846 0.58285 0.49744 0.0
H346 H 0.02859 0.70715 0.4966 0.0
H347 H 0.97825 0.73674 0.49671 0.0
H348 H 0.92231 0.45938 0.49852 0.0
H349 H 0.96219 0.33379 0.49886 0.0
C350 C 0.01635 0.39175 0.49852 0.0
C351 C 0.04365 0.43407 0.49836 0.0
C352 C 0.9933 0.46285 0.49807 0.0
C353 C 0.04766 0.54825 0.49762 0.0
C354 C 0.02488 0.61938 0.49713 0.0
C355 C 0.97474 0.64878 0.49715 0.0
C356 C 0.94739 0.60731 0.49762 0.0
C357 C 0.99766 0.57757 0.49741 0.0
C358 C 0.94319 0.49322 0.49816 0.0
C359 C 0.96597 0.4215 0.49837 0.0
loop_
_geom_bond_atom_site_label_1
_geom_bond_atom_site_label_2
_geom_bond_distance
_geom_bond_site_symmetry_2
_ccdc_geom_bond_type
In0 O1 2.294 1_554 S
In0 O2 2.326 1_554 S
In0 O6 2.266 . S
In0 O7 2.326 . S
In0 O8 2.266 . S
In0 O9 2.326 . S
In0 O11 2.294 1_554 S
In0 O12 2.326 1_554 S
O1 In0 2.294 1_556 S
O1 C10 1.240 . S
O2 In0 2.326 1_556 S
O2 C10 1.252 . S
C3 O6 1.252 . S
C3 O7 1.260 . S
C4 O11 1.240 . S
C4 O12 1.252 . S
C5 O8 1.252 . S
C5 O9 1.260 . S
O6 In0 2.266 . S
O6 C3 1.252 . S
O7 In0 2.326 . S
O7 C3 1.260 . S
O8 In0 2.266 . S
O8 C5 1.252 . S
O9 In0 2.326 . S
O9 C5 1.260 . S
C10 O1 1.240 . S
C10 O2 1.252 . S
O11 In0 2.294 1_556 S
O11 C4 1.240 . S
O12 In0 2.326 1_556 S
O12 C4 1.252 . S
In13 O14 2.294 1_554 S
In13 O15 2.326 1_554 S
In13 O19 2.266 . S
In13 O20 2.326 . S
In13 O21 2.266 . S
In13 O22 2.326 . S
In13 O24 2.294 1_554 S
In13 O25 2.326 1_554 S
O14 In13 2.294 1_556 S
O14 C23 1.240 . S
O15 In13 2.326 1_556 S
O15 C23 1.252 . S
C16 O19 1.252 . S
C16 O20 1.260 . S
C17 O24 1.240 . S
C17 O25 1.252 . S
C18 O21 1.252 . S
C18 O22 1.260 . S
O19 In13 2.266 . S
O19 C16 1.252 . S
O20 In13 2.326 . S
O20 C16 1.260 . S
O21 In13 2.266 . S
O21 C18 1.252 . S
O22 In13 2.326 . S
O22 C18 1.260 . S
C23 O14 1.240 . S
C23 O15 1.252 . S
O24 In13 2.294 1_556 S
O24 C17 1.240 . S
O25 In13 2.326 1_556 S
O25 C17 1.252 . S
In26 O27 2.294 . S
In26 O28 2.326 . S
In26 O32 2.266 . S
In26 O33 2.326 . S
In26 O34 2.266 . S
In26 O35 2.326 . S
In26 O37 2.294 . S
In26 O38 2.326 . S
O27 In26 2.294 . S
O27 C36 1.240 . S
O28 In26 2.326 . S
O28 C36 1.252 . S
C29 O32 1.252 . S
C29 O33 1.260 . S
C30 O37 1.240 . S
C30 O38 1.252 . S
C31 O34 1.252 . S
C31 O35 1.260 . S
O32 In26 2.266 . S
O32 C29 1.252 . S
O33 In26 2.326 . S
O33 C29 1.260 . S
O34 In26 2.266 . S
O34 C31 1.252 . S
O35 In26 2.326 . S
O35 C31 1.260 . S
C36 O27 1.240 . S
C36 O28 1.252 . S
O37 In26 2.294 . S
O37 C30 1.240 . S
O38 In26 2.326 . S
O38 C30 1.252 . S
In39 O40 2.294 . S
In39 O41 2.326 . S
In39 O45 2.266 . S
In39 O46 2.326 . S
In39 O47 2.266 . S
In39 O48 2.326 . S
In39 O50 2.294 . S
In39 O51 2.326 . S
O40 In39 2.294 . S
O40 C49 1.240 . S
O41 In39 2.326 . S
O41 C49 1.252 . S
C42 O45 1.252 . S
C42 O46 1.260 . S
C43 O50 1.240 . S
C43 O51 1.252 . S
C44 O47 1.252 . S
C44 O48 1.260 . S
O45 In39 2.266 . S
O45 C42 1.252 . S
O46 In39 2.326 . S
O46 C42 1.260 . S
O47 In39 2.266 . S
O47 C44 1.252 . S
O48 In39 2.326 . S
O48 C44 1.260 . S
C49 O40 1.240 . S
C49 O41 1.252 . S
O50 In39 2.294 . S
O50 C43 1.240 . S
O51 In39 2.326 . S
O51 C43 1.252 . S
In52 O53 2.294 1_554 S
In52 O54 2.326 1_554 S
In52 O58 2.266 . S
In52 O59 2.326 . S
In52 O60 2.266 . S
In52 O61 2.326 . S
In52 O63 2.294 1_554 S
In52 O64 2.326 1_554 S
O53 In52 2.294 1_556 S
O53 C62 1.240 . S
O54 In52 2.326 1_556 S
O54 C62 1.252 . S
C55 O58 1.252 . S
C55 O59 1.260 . S
C56 O63 1.240 . S
C56 O64 1.252 . S
C57 O60 1.252 . S
C57 O61 1.260 . S
O58 In52 2.266 . S
O58 C55 1.252 . S
O59 In52 2.326 . S
O59 C55 1.260 . S
O60 In52 2.266 . S
O60 C57 1.252 . S
O61 In52 2.326 . S
O61 C57 1.260 . S
C62 O53 1.240 . S
C62 O54 1.252 . S
O63 In52 2.294 1_556 S
O63 C56 1.240 . S
O64 In52 2.326 1_556 S
O64 C56 1.252 . S
In65 O66 2.294 1_554 S
In65 O67 2.326 1_554 S
In65 O71 2.266 . S
In65 O72 2.326 . S
In65 O73 2.266 . S
In65 O74 2.326 . S
In65 O76 2.294 1_554 S
In65 O77 2.326 1_554 S
O66 In65 2.294 1_556 S
O66 C75 1.240 . S
O67 In65 2.326 1_556 S
O67 C75 1.252 . S
C68 O71 1.252 . S
C68 O72 1.260 . S
C69 O76 1.240 . S
C69 O77 1.252 . S
C70 O73 1.252 . S
C70 O74 1.260 . S
O71 In65 2.266 . S
O71 C68 1.252 . S
O72 In65 2.326 . S
O72 C68 1.260 . S
O73 In65 2.266 . S
O73 C70 1.252 . S
O74 In65 2.326 . S
O74 C70 1.260 . S
C75 O66 1.240 . S
C75 O67 1.252 . S
O76 In65 2.294 1_556 S
O76 C69 1.240 . S
O77 In65 2.326 1_556 S
O77 C69 1.252 . S
In78 O79 2.294 . S
In78 O80 2.326 . S
In78 O84 2.266 . S
In78 O85 2.326 . S
In78 O86 2.266 . S
In78 O87 2.326 . S
In78 O89 2.294 . S
In78 O90 2.326 . S
O79 In78 2.294 . S
O79 C88 1.240 . S
O80 In78 2.326 . S
O80 C88 1.252 . S
C81 O84 1.252 . S
C81 O85 1.260 . S
C82 O89 1.240 . S
C82 O90 1.252 . S
C83 O86 1.252 . S
C83 O87 1.260 . S
O84 In78 2.266 . S
O84 C81 1.252 . S
O85 In78 2.326 . S
O85 C81 1.260 . S
O86 In78 2.266 . S
O86 C83 1.252 . S
O87 In78 2.326 . S
O87 C83 1.260 . S
C88 O79 1.240 . S
C88 O80 1.252 . S
O89 In78 2.294 . S
O89 C82 1.240 . S
O90 In78 2.326 . S
O90 C82 1.252 . S
In91 O92 2.294 . S
In91 O93 2.326 . S
In91 O97 2.266 . S
In91 O98 2.326 . S
In91 O99 2.266 . S
In91 O100 2.326 . S
In91 O102 2.294 . S
In91 O103 2.326 . S
O92 In91 2.294 . S
O92 C101 1.240 . S
O93 In91 2.326 . S
O93 C101 1.252 . S
C94 O97 1.252 . S
C94 O98 1.260 . S
C95 O102 1.240 . S
C95 O103 1.252 . S
C96 O99 1.252 . S
C96 O100 1.260 . S
O97 In91 2.266 . S
O97 C94 1.252 . S
O98 In91 2.326 . S
O98 C94 1.260 . S
O99 In91 2.266 . S
O99 C96 1.252 . S
O100 In91 2.326 . S
O100 C96 1.260 . S
C101 O92 1.240 . S
C101 O93 1.252 . S
O102 In91 2.294 . S
O102 C95 1.240 . S
O103 In91 2.326 . S
O103 C95 1.252 . S
H104 C110 0.930 . S
H105 C113 0.930 . S
H106 C114 0.930 . S
H107 C115 0.930 . S
H108 C118 0.930 . S
H109 C119 0.930 . S
C110 H104 0.930 . S
C110 C111 1.355 . S
C110 C112 1.415 . S
C111 C110 1.355 . S
C111 C113 1.419 . S
C112 C110 1.415 . S
C112 C117 1.425 . S
C112 C119 1.409 . S
C113 H105 0.930 . S
C113 C111 1.419 . S
C113 C114 1.362 . S
C114 H106 0.930 . S
C114 C113 1.362 . S
C114 C117 1.409 . S
C115 H107 0.930 . S
C115 C116 1.355 . S
C115 C117 1.415 . S
C116 C115 1.355 . S
C116 C118 1.419 . S
C117 C112 1.425 . S
C117 C114 1.409 . S
C117 C115 1.415 . S
C118 H108 0.930 . S
C118 C116 1.419 . S
C118 C119 1.362 . S
C119 H109 0.930 . S
C119 C112 1.409 . S
C119 C118 1.362 . S
H120 C126 0.930 . S
H121 C129 0.930 . S
H122 C130 0.930 . S
H123 C131 0.930 . S
H124 C134 0.930 . S
H125 C135 0.930 . S
C126 H120 0.930 . S
C126 C127 1.355 . S
C126 C128 1.415 . S
C127 C126 1.355 . S
C127 C129 1.419 . S
C128 C126 1.415 . S
C128 C133 1.425 . S
C128 C135 1.409 . S
C129 H121 0.930 . S
C129 C127 1.419 . S
C129 C130 1.362 . S
C130 H122 0.930 . S
C130 C129 1.362 . S
C130 C133 1.409 . S
C131 H123 0.930 . S
C131 C132 1.355 . S
C131 C133 1.415 . S
C132 C131 1.355 . S
C132 C134 1.419 . S
C133 C128 1.425 . S
C133 C130 1.409 . S
C133 C131 1.415 . S
C134 H124 0.930 . S
C134 C132 1.419 . S
C134 C135 1.362 . S
C135 H125 0.930 . S
C135 C128 1.409 . S
C135 C134 1.362 . S
H136 C142 0.930 . S
H137 C145 0.930 . S
H138 C146 0.930 . S
H139 C147 0.930 . S
H140 C150 0.930 . S
H141 C151 0.930 . S
C142 H136 0.930 . S
C142 C143 1.355 . S
C142 C144 1.415 . S
C143 C142 1.355 . S
C143 C145 1.419 . S
C144 C142 1.415 . S
C144 C149 1.425 . S
C144 C151 1.409 . S
C145 H137 0.930 . S
C145 C143 1.419 . S
C145 C146 1.362 . S
C146 H138 0.930 . S
C146 C145 1.362 . S
C146 C149 1.409 . S
C147 H139 0.930 . S
C147 C148 1.355 . S
C147 C149 1.415 . S
C148 C147 1.355 . S
C148 C150 1.419 . S
C149 C144 1.425 . S
C149 C146 1.409 . S
C149 C147 1.415 . S
C150 H140 0.930 . S
C150 C148 1.419 . S
C150 C151 1.362 . S
C151 H141 0.930 . S
C151 C144 1.409 . S
C151 C150 1.362 . S
H152 C158 0.930 . S
H153 C161 0.930 . S
H154 C162 0.930 . S
H155 C163 0.930 . S
H156 C166 0.930 . S
H157 C167 0.930 . S
C158 H152 0.930 . S
C158 C159 1.355 . S
C158 C160 1.415 . S
C159 C158 1.355 . S
C159 C161 1.419 . S
C160 C158 1.415 . S
C160 C165 1.425 . S
C160 C167 1.409 . S
C161 H153 0.930 . S
C161 C159 1.419 . S
C161 C162 1.362 . S
C162 H154 0.930 . S
C162 C161 1.362 . S
C162 C165 1.409 . S
C163 H155 0.930 . S
C163 C164 1.355 . S
C163 C165 1.415 . S
C164 C163 1.355 . S
C164 C166 1.419 . S
C165 C160 1.425 . S
C165 C162 1.409 . S
C165 C163 1.415 . S
C166 H156 0.930 . S
C166 C164 1.419 . S
C166 C167 1.362 . S
C167 H157 0.930 . S
C167 C160 1.409 . S
C167 C166 1.362 . S
H168 C174 0.930 . S
H169 C177 0.930 . S
H170 C178 0.930 . S
H171 C179 0.930 . S
H172 C182 0.930 . S
H173 C183 0.930 . S
C174 H168 0.930 . S
C174 C175 1.355 . S
C174 C176 1.415 . S
C175 C174 1.355 . S
C175 C177 1.419 . S
C176 C174 1.415 . S
C176 C181 1.425 . S
C176 C183 1.409 . S
C177 H169 0.930 . S
C177 C175 1.419 . S
C177 C178 1.362 . S
C178 H170 0.930 . S
C178 C177 1.362 . S
C178 C181 1.409 . S
C179 H171 0.930 . S
C179 C180 1.355 . S
C179 C181 1.415 . S
C180 C179 1.355 . S
C180 C182 1.419 . S
C181 C176 1.425 . S
C181 C178 1.409 . S
C181 C179 1.415 . S
C182 H172 0.930 . S
C182 C180 1.419 . S
C182 C183 1.362 . S
C183 H173 0.930 . S
C183 C176 1.409 . S
C183 C182 1.362 . S
H184 C190 0.930 . S
H185 C193 0.930 . S
H186 C194 0.930 . S
H187 C195 0.930 . S
H188 C198 0.930 . S
H189 C199 0.930 . S
C190 H184 0.930 . S
C190 C191 1.355 . S
C190 C192 1.415 . S
C191 C190 1.355 . S
C191 C193 1.419 . S
C192 C190 1.415 . S
C192 C197 1.425 . S
C192 C199 1.409 . S
C193 H185 0.930 . S
C193 C191 1.419 . S
C193 C194 1.362 . S
C194 H186 0.930 . S
C194 C193 1.362 . S
C194 C197 1.409 . S
C195 H187 0.930 . S
C195 C196 1.355 . S
C195 C197 1.415 . S
C196 C195 1.355 . S
C196 C198 1.419 . S
C197 C192 1.425 . S
C197 C194 1.409 . S
C197 C195 1.415 . S
C198 H188 0.930 . S
C198 C196 1.419 . S
C198 C199 1.362 . S
C199 H189 0.930 . S
C199 C192 1.409 . S
C199 C198 1.362 . S
H200 C206 0.930 . S
H201 C209 0.930 . S
H202 C210 0.930 . S
H203 C211 0.930 . S
H204 C214 0.930 . S
H205 C215 0.930 . S
C206 H200 0.930 . S
C206 C207 1.355 . S
C206 C208 1.415 . S
C207 C206 1.355 . S
C207 C209 1.419 . S
C208 C206 1.415 . S
C208 C213 1.425 . S
C208 C215 1.409 . S
C209 H201 0.930 . S
C209 C207 1.419 . S
C209 C210 1.362 . S
C210 H202 0.930 . S
C210 C209 1.362 . S
C210 C213 1.409 . S
C211 H203 0.930 . S
C211 C212 1.355 . S
C211 C213 1.415 . S
C212 C211 1.355 . S
C212 C214 1.419 . S
C213 C208 1.425 . S
C213 C210 1.409 . S
C213 C211 1.415 . S
C214 H204 0.930 . S
C214 C212 1.419 . S
C214 C215 1.362 . S
C215 H205 0.930 . S
C215 C208 1.409 . S
C215 C214 1.362 . S
H216 C222 0.930 . S
H217 C225 0.930 . S
H218 C226 0.930 . S
H219 C227 0.930 . S
H220 C230 0.930 . S
H221 C231 0.930 . S
C222 H216 0.930 . S
C222 C223 1.355 . S
C222 C224 1.415 . S
C223 C222 1.355 . S
C223 C225 1.419 . S
C224 C222 1.415 . S
C224 C229 1.425 . S
C224 C231 1.409 . S
C225 H217 0.930 . S
C225 C223 1.419 . S
C225 C226 1.362 . S
C226 H218 0.930 . S
C226 C225 1.362 . S
C226 C229 1.409 . S
C227 H219 0.930 . S
C227 C228 1.355 . S
C227 C229 1.415 . S
C228 C227 1.355 . S
C228 C230 1.419 . S
C229 C224 1.425 . S
C229 C226 1.409 . S
C229 C227 1.415 . S
C230 H220 0.930 . S
C230 C228 1.419 . S
C230 C231 1.362 . S
C231 H221 0.930 . S
C231 C224 1.409 . S
C231 C230 1.362 . S
H232 C238 0.930 . S
H233 C241 0.930 . S
H234 C242 0.930 . S
H235 C243 0.930 . S
H236 C246 0.930 . S
H237 C247 0.930 . S
C238 H232 0.930 . S
C238 C239 1.355 1_545 S
C238 C240 1.415 . S
C239 C238 1.355 1_565 S
C239 C241 1.419 . S
C240 C238 1.415 . S
C240 C245 1.425 1_545 S
C240 C247 1.409 . S
C241 H233 0.930 . S
C241 C239 1.419 . S
C241 C242 1.362 . S
C242 H234 0.930 . S
C242 C241 1.362 . S
C242 C245 1.409 . S
C243 H235 0.930 . S
C243 C244 1.355 1_565 S
C243 C245 1.415 . S
C244 C243 1.355 1_545 S
C244 C246 1.419 . S
C245 C240 1.425 1_565 S
C245 C242 1.409 . S
C245 C243 1.415 . S
C246 H236 0.930 . S
C246 C244 1.419 . S
C246 C247 1.362 . S
C247 H237 0.930 . S
C247 C240 1.409 . S
C247 C246 1.362 . S
H248 C254 0.930 . S
H249 C257 0.930 . S
H250 C258 0.930 . S
H251 C259 0.930 . S
H252 C262 0.930 . S
H253 C263 0.930 . S
C254 H248 0.930 . S
C254 C255 1.355 . S
C254 C256 1.415 1_565 S
C255 C254 1.355 . S
C255 C257 1.419 . S
C256 C254 1.415 1_545 S
C256 C261 1.425 1_545 S
C256 C263 1.409 . S
C257 H249 0.930 . S
C257 C255 1.419 . S
C257 C258 1.362 . S
C258 H250 0.930 . S
C258 C257 1.362 . S
C258 C261 1.409 . S
C259 H251 0.930 . S
C259 C260 1.355 . S
C259 C261 1.415 1_545 S
C260 C259 1.355 . S
C260 C262 1.419 . S
C261 C256 1.425 1_565 S
C261 C258 1.409 . S
C261 C259 1.415 1_565 S
C262 H252 0.930 . S
C262 C260 1.419 . S
C262 C263 1.362 . S
C263 H253 0.930 . S
C263 C256 1.409 . S
C263 C262 1.362 . S
H264 C270 0.930 . S
H265 C273 0.930 . S
H266 C274 0.930 . S
H267 C275 0.930 . S
H268 C278 0.930 . S
H269 C279 0.930 . S
C270 H264 0.930 . S
C270 C271 1.355 . S
C270 C272 1.415 . S
C271 C270 1.355 . S
C271 C273 1.419 1_565 S
C272 C270 1.415 . S
C272 C277 1.425 1_565 S
C272 C279 1.409 . S
C273 H265 0.930 . S
C273 C271 1.419 1_545 S
C273 C274 1.362 . S
C274 H266 0.930 . S
C274 C273 1.362 . S
C274 C277 1.409 . S
C275 H267 0.930 . S
C275 C276 1.355 . S
C275 C277 1.415 . S
C276 C275 1.355 . S
C276 C278 1.419 1_545 S
C277 C272 1.425 1_545 S
C277 C274 1.409 . S
C277 C275 1.415 . S
C278 H268 0.930 . S
C278 C276 1.419 1_565 S
C278 C279 1.362 . S
C279 H269 0.930 . S
C279 C272 1.409 . S
C279 C278 1.362 . S
H280 C286 0.930 . S
H281 C289 0.930 . S
H282 C290 0.930 . S
H283 C291 0.930 . S
H284 C294 0.930 . S
H285 C295 0.930 . S
C286 H280 0.930 . S
C286 C287 1.355 1_545 S
C286 C288 1.415 . S
C287 C286 1.355 1_565 S
C287 C289 1.419 . S
C288 C286 1.415 . S
C288 C293 1.425 1_545 S
C288 C295 1.409 . S
C289 H281 0.930 . S
C289 C287 1.419 . S
C289 C290 1.362 . S
C290 H282 0.930 . S
C290 C289 1.362 . S
C290 C293 1.409 . S
C291 H283 0.930 . S
C291 C292 1.355 1_565 S
C291 C293 1.415 . S
C292 C291 1.355 1_545 S
C292 C294 1.419 . S
C293 C288 1.425 1_565 S
C293 C290 1.409 . S
C293 C291 1.415 . S
C294 H284 0.930 . S
C294 C292 1.419 . S
C294 C295 1.362 . S
C295 H285 0.930 . S
C295 C288 1.409 . S
C295 C294 1.362 . S
H296 C302 0.930 . S
H297 C305 0.930 1_545 S
H298 C306 0.930 . S
H299 C307 0.930 . S
H300 C310 0.930 1_565 S
H301 C311 0.930 . S
C302 H296 0.930 . S
C302 C303 1.355 1_554 S
C302 C304 1.414 1_554 S
C303 C302 1.355 1_556 S
C303 C305 1.419 . S
C304 C302 1.414 1_556 S
C304 C309 1.430 1_565 S
C304 C311 1.406 1_556 S
C305 H297 0.930 1_565 S
C305 C303 1.419 . S
C305 C306 1.362 1_565 S
C306 H298 0.930 . S
C306 C305 1.362 1_545 S
C306 C309 1.409 . S
C307 H299 0.930 . S
C307 C308 1.355 . S
C307 C309 1.415 . S
C308 C307 1.355 . S
C308 C310 1.419 1_556 S
C309 C304 1.430 1_545 S
C309 C306 1.409 . S
C309 C307 1.415 . S
C310 H300 0.930 1_545 S
C310 C308 1.419 1_554 S
C310 C311 1.362 1_545 S
C311 H301 0.930 . S
C311 C304 1.406 1_554 S
C311 C310 1.362 1_565 S
H312 C318 0.930 . S
H313 C321 0.930 . S
H314 C322 0.930 . S
H315 C323 0.930 . S
H316 C326 0.930 . S
H317 C327 0.930 . S
C318 H312 0.930 . S
C318 C319 1.355 . S
C318 C320 1.415 . S
C319 C318 1.355 . S
C319 C321 1.419 . S
C320 C318 1.415 . S
C320 C325 1.425 1_565 S
C320 C327 1.409 1_565 S
C321 H313 0.930 . S
C321 C319 1.419 . S
C321 C322 1.362 . S
C322 H314 0.930 . S
C322 C321 1.362 . S
C322 C325 1.409 1_565 S
C323 H315 0.930 . S
C323 C324 1.355 . S
C323 C325 1.415 . S
C324 C323 1.355 . S
C324 C326 1.419 . S
C325 C320 1.425 1_545 S
C325 C322 1.409 1_545 S
C325 C323 1.415 . S
C326 H316 0.930 . S
C326 C324 1.419 . S
C326 C327 1.362 . S
C327 H317 0.930 . S
C327 C320 1.409 1_545 S
C327 C326 1.362 . S
H328 C334 0.930 . S
H329 C337 0.930 . S
H330 C338 0.930 . S
H331 C339 0.930 . S
H332 C342 0.930 . S
H333 C343 0.930 . S
C334 H328 0.930 . S
C334 C335 1.355 . S
C334 C336 1.415 1_455 S
C335 C334 1.355 . S
C335 C337 1.419 . S
C336 C334 1.415 1_655 S
C336 C341 1.425 1_655 S
C336 C343 1.409 . S
C337 H329 0.930 . S
C337 C335 1.419 . S
C337 C338 1.362 . S
C338 H330 0.930 . S
C338 C337 1.362 . S
C338 C341 1.409 . S
C339 H331 0.930 . S
C339 C340 1.355 . S
C339 C341 1.415 1_655 S
C340 C339 1.355 . S
C340 C342 1.419 . S
C341 C336 1.425 1_455 S
C341 C338 1.409 . S
C341 C339 1.415 1_455 S
C342 H332 0.930 . S
C342 C340 1.419 . S
C342 C343 1.362 . S
C343 H333 0.930 . S
C343 C336 1.409 . S
C343 C342 1.362 . S
H344 C350 0.930 . S
H345 C353 0.930 . S
H346 C354 0.930 . S
H347 C355 0.930 . S
H348 C358 0.930 . S
H349 C359 0.930 . S
C350 H344 0.930 . S
C350 C351 1.355 . S
C350 C352 1.415 1_455 S
C351 C350 1.355 . S
C351 C353 1.419 . S
C352 C350 1.415 1_655 S
C352 C357 1.425 1_655 S
C352 C359 1.409 . S
C353 H345 0.930 . S
C353 C351 1.419 . S
C353 C354 1.362 . S
C354 H346 0.930 . S
C354 C353 1.362 . S
C354 C357 1.409 . S
C355 H347 0.930 . S
C355 C356 1.355 . S
C355 C357 1.415 1_655 S
C356 C355 1.355 . S
C356 C358 1.419 . S
C357 C352 1.425 1_455 S
C357 C354 1.409 . S
C357 C355 1.415 1_455 S
C358 H348 0.930 . S
C358 C356 1.419 . S
C358 C359 1.362 . S
C359 H349 0.930 . S
C359 C352 1.409 . S
C359 C358 1.362 . S
C111 C70 1.505 . S
C116 C5 1.502 . S
C127 C55 1.505 . S
C132 C16 1.502 . S
C143 C94 1.511 . S
C148 C31 1.502 . S
C159 C83 1.510 . S
C164 C42 1.518 . S
C175 C3 1.423 . S
C180 C29 1.422 . S
C191 C18 1.433 . S
C196 C44 1.432 . S
C207 C17 1.472 . S
C212 C43 1.465 . S
C223 C10 1.458 . S
C228 C36 1.459 . S
C239 C57 1.412 . S
C244 C81 1.412 . S
C255 C96 1.425 . S
C260 C68 1.427 . S
C271 C95 1.462 . S
C276 C75 1.474 . S
C287 C56 1.468 . S
C292 C88 1.454 . S
C303 C23 1.507 . S
C308 C4 1.507 . S
C319 C30 1.511 . S
C324 C49 1.506 . S
C335 C62 1.506 . S
C340 C69 1.508 . S
C351 C82 1.506 . S
C356 C101 1.507 . S
