# Generated by pormake.
# Topology kfi, (4)-cn, num edge types: 1
# Building blocks:
#     Node 0, Type 0, BuildingBlock: CEKHIL_clean_sbu_0, # of connection points: 4
#     Node 1, Type 0, BuildingBlock: CEKHIL_clean_sbu_0, # of connection points: 4
#     Node 2, Type 0, BuildingBlock: CEKHIL_clean_sbu_0, # of connection points: 4
#     Node 3, Type 0, BuildingBlock: CEKHIL_clean_sbu_0, # of connection points: 4
#     Node 4, Type 0, BuildingBlock: CEKHIL_clean_sbu_0, # of connection points: 4
#     Node 5, Type 0, BuildingBlock: CEKHIL_clean_sbu_0, # of connection points: 4
#     Node 6, Type 0, BuildingBlock: CEKHIL_clean_sbu_0, # of connection points: 4
#     Node 7, Type 0, BuildingBlock: CEKHIL_clean_sbu_0, # of connection points: 4
#     Node 8, Type 0, BuildingBlock: CEKHIL_clean_sbu_0, # of connection points: 4
#     Node 9, Type 0, BuildingBlock: CEKHIL_clean_sbu_0, # of connection points: 4
#     Node 10, Type 0, BuildingBlock: CEKHIL_clean_sbu_0, # of connection points: 4
#     Node 11, Type 0, BuildingBlock: CEKHIL_clean_sbu_0, # of connection points: 4
#     Node 12, Type 0, BuildingBlock: CEKHIL_clean_sbu_0, # of connection points: 4
#     Node 13, Type 0, BuildingBlock: CEKHIL_clean_sbu_0, # of connection points: 4
#     Node 14, Type 0, BuildingBlock: CEKHIL_clean_sbu_0, # of connection points: 4
#     Node 15, Type 0, BuildingBlock: CEKHIL_clean_sbu_0, # of connection points: 4
#     Node 16, Type 0, BuildingBlock: CEKHIL_clean_sbu_0, # of connection points: 4
#     Node 17, Type 0, BuildingBlock: CEKHIL_clean_sbu_0, # of connection points: 4
#     Node 18, Type 0, BuildingBlock: CEKHIL_clean_sbu_0, # of connection points: 4
#     Node 19, Type 0, BuildingBlock: CEKHIL_clean_sbu_0, # of connection points: 4
#     Node 20, Type 0, BuildingBlock: CEKHIL_clean_sbu_0, # of connection points: 4
#     Node 21, Type 0, BuildingBlock: CEKHIL_clean_sbu_0, # of connection points: 4
#     Node 22, Type 0, BuildingBlock: CEKHIL_clean_sbu_0, # of connection points: 4
#     Node 23, Type 0, BuildingBlock: CEKHIL_clean_sbu_0, # of connection points: 4
#     Node 24, Type 0, BuildingBlock: CEKHIL_clean_sbu_0, # of connection points: 4
#     Node 25, Type 0, BuildingBlock: CEKHIL_clean_sbu_0, # of connection points: 4
#     Node 26, Type 0, BuildingBlock: CEKHIL_clean_sbu_0, # of connection points: 4
#     Node 27, Type 0, BuildingBlock: CEKHIL_clean_sbu_0, # of connection points: 4
#     Node 28, Type 0, BuildingBlock: CEKHIL_clean_sbu_0, # of connection points: 4
#     Node 29, Type 0, BuildingBlock: CEKHIL_clean_sbu_0, # of connection points: 4
#     Node 30, Type 0, BuildingBlock: CEKHIL_clean_sbu_0, # of connection points: 4
#     Node 31, Type 0, BuildingBlock: CEKHIL_clean_sbu_0, # of connection points: 4
#     Node 32, Type 0, BuildingBlock: CEKHIL_clean_sbu_0, # of connection points: 4
#     Node 33, Type 0, BuildingBlock: CEKHIL_clean_sbu_0, # of connection points: 4
#     Node 34, Type 0, BuildingBlock: CEKHIL_clean_sbu_0, # of connection points: 4
#     Node 35, Type 0, BuildingBlock: CEKHIL_clean_sbu_0, # of connection points: 4
#     Node 36, Type 0, BuildingBlock: CEKHIL_clean_sbu_0, # of connection points: 4
#     Node 37, Type 0, BuildingBlock: CEKHIL_clean_sbu_0, # of connection points: 4
#     Node 38, Type 0, BuildingBlock: CEKHIL_clean_sbu_0, # of connection points: 4
#     Node 39, Type 0, BuildingBlock: CEKHIL_clean_sbu_0, # of connection points: 4
#     Node 40, Type 0, BuildingBlock: CEKHIL_clean_sbu_0, # of connection points: 4
#     Node 41, Type 0, BuildingBlock: CEKHIL_clean_sbu_0, # of connection points: 4
#     Node 42, Type 0, BuildingBlock: CEKHIL_clean_sbu_0, # of connection points: 4
#     Node 43, Type 0, BuildingBlock: CEKHIL_clean_sbu_0, # of connection points: 4
#     Node 44, Type 0, BuildingBlock: CEKHIL_clean_sbu_0, # of connection points: 4
#     Node 45, Type 0, BuildingBlock: CEKHIL_clean_sbu_0, # of connection points: 4
#     Node 46, Type 0, BuildingBlock: CEKHIL_clean_sbu_0, # of connection points: 4
#     Node 47, Type 0, BuildingBlock: CEKHIL_clean_sbu_0, # of connection points: 4
#     Node 48, Type 0, BuildingBlock: CEKHIL_clean_sbu_0, # of connection points: 4
#     Node 49, Type 0, BuildingBlock: CEKHIL_clean_sbu_0, # of connection points: 4
#     Node 50, Type 0, BuildingBlock: CEKHIL_clean_sbu_0, # of connection points: 4
#     Node 51, Type 0, BuildingBlock: CEKHIL_clean_sbu_0, # of connection points: 4
#     Node 52, Type 0, BuildingBlock: CEKHIL_clean_sbu_0, # of connection points: 4
#     Node 53, Type 0, BuildingBlock: CEKHIL_clean_sbu_0, # of connection points: 4
#     Node 54, Type 0, BuildingBlock: CEKHIL_clean_sbu_0, # of connection points: 4
#     Node 55, Type 0, BuildingBlock: CEKHIL_clean_sbu_0, # of connection points: 4
#     Node 56, Type 0, BuildingBlock: CEKHIL_clean_sbu_0, # of connection points: 4
#     Node 57, Type 0, BuildingBlock: CEKHIL_clean_sbu_0, # of connection points: 4
#     Node 58, Type 0, BuildingBlock: CEKHIL_clean_sbu_0, # of connection points: 4
#     Node 59, Type 0, BuildingBlock: CEKHIL_clean_sbu_0, # of connection points: 4
#     Node 60, Type 0, BuildingBlock: CEKHIL_clean_sbu_0, # of connection points: 4
#     Node 61, Type 0, BuildingBlock: CEKHIL_clean_sbu_0, # of connection points: 4
#     Node 62, Type 0, BuildingBlock: CEKHIL_clean_sbu_0, # of connection points: 4
#     Node 63, Type 0, BuildingBlock: CEKHIL_clean_sbu_0, # of connection points: 4
#     Node 64, Type 0, BuildingBlock: CEKHIL_clean_sbu_0, # of connection points: 4
#     Node 65, Type 0, BuildingBlock: CEKHIL_clean_sbu_0, # of connection points: 4
#     Node 66, Type 0, BuildingBlock: CEKHIL_clean_sbu_0, # of connection points: 4
#     Node 67, Type 0, BuildingBlock: CEKHIL_clean_sbu_0, # of connection points: 4
#     Node 68, Type 0, BuildingBlock: CEKHIL_clean_sbu_0, # of connection points: 4
#     Node 69, Type 0, BuildingBlock: CEKHIL_clean_sbu_0, # of connection points: 4
#     Node 70, Type 0, BuildingBlock: CEKHIL_clean_sbu_0, # of connection points: 4
#     Node 71, Type 0, BuildingBlock: CEKHIL_clean_sbu_0, # of connection points: 4
#     Node 72, Type 0, BuildingBlock: CEKHIL_clean_sbu_0, # of connection points: 4
#     Node 73, Type 0, BuildingBlock: CEKHIL_clean_sbu_0, # of connection points: 4
#     Node 74, Type 0, BuildingBlock: CEKHIL_clean_sbu_0, # of connection points: 4
#     Node 75, Type 0, BuildingBlock: CEKHIL_clean_sbu_0, # of connection points: 4
#     Node 76, Type 0, BuildingBlock: CEKHIL_clean_sbu_0, # of connection points: 4
#     Node 77, Type 0, BuildingBlock: CEKHIL_clean_sbu_0, # of connection points: 4
#     Node 78, Type 0, BuildingBlock: CEKHIL_clean_sbu_0, # of connection points: 4
#     Node 79, Type 0, BuildingBlock: CEKHIL_clean_sbu_0, # of connection points: 4
#     Node 80, Type 0, BuildingBlock: CEKHIL_clean_sbu_0, # of connection points: 4
#     Node 81, Type 0, BuildingBlock: CEKHIL_clean_sbu_0, # of connection points: 4
#     Node 82, Type 0, BuildingBlock: CEKHIL_clean_sbu_0, # of connection points: 4
#     Node 83, Type 0, BuildingBlock: CEKHIL_clean_sbu_0, # of connection points: 4
#     Node 84, Type 0, BuildingBlock: CEKHIL_clean_sbu_0, # of connection points: 4
#     Node 85, Type 0, BuildingBlock: CEKHIL_clean_sbu_0, # of connection points: 4
#     Node 86, Type 0, BuildingBlock: CEKHIL_clean_sbu_0, # of connection points: 4
#     Node 87, Type 0, BuildingBlock: CEKHIL_clean_sbu_0, # of connection points: 4
#     Node 88, Type 0, BuildingBlock: CEKHIL_clean_sbu_0, # of connection points: 4
#     Node 89, Type 0, BuildingBlock: CEKHIL_clean_sbu_0, # of connection points: 4
#     Node 90, Type 0, BuildingBlock: CEKHIL_clean_sbu_0, # of connection points: 4
#     Node 91, Type 0, BuildingBlock: CEKHIL_clean_sbu_0, # of connection points: 4
#     Node 92, Type 0, BuildingBlock: CEKHIL_clean_sbu_0, # of connection points: 4
#     Node 93, Type 0, BuildingBlock: CEKHIL_clean_sbu_0, # of connection points: 4
#     Node 94, Type 0, BuildingBlock: CEKHIL_clean_sbu_0, # of connection points: 4
#     Node 95, Type 0, BuildingBlock: CEKHIL_clean_sbu_0, # of connection points: 4
#     Edge 96, Type (0, 0), BuildingBlock: TEMPAE_clean_linker_10, # of connection points: 2
#     Edge 97, Type (0, 0), BuildingBlock: TEMPAE_clean_linker_10, # of connection points: 2
#     Edge 98, Type (0, 0), BuildingBlock: TEMPAE_clean_linker_10, # of connection points: 2
#     Edge 99, Type (0, 0), BuildingBlock: TEMPAE_clean_linker_10, # of connection points: 2
#     Edge 100, Type (0, 0), BuildingBlock: TEMPAE_clean_linker_10, # of connection points: 2
#     Edge 101, Type (0, 0), BuildingBlock: TEMPAE_clean_linker_10, # of connection points: 2
#     Edge 102, Type (0, 0), BuildingBlock: TEMPAE_clean_linker_10, # of connection points: 2
#     Edge 103, Type (0, 0), BuildingBlock: TEMPAE_clean_linker_10, # of connection points: 2
#     Edge 104, Type (0, 0), BuildingBlock: TEMPAE_clean_linker_10, # of connection points: 2
#     Edge 105, Type (0, 0), BuildingBlock: TEMPAE_clean_linker_10, # of connection points: 2
#     Edge 106, Type (0, 0), BuildingBlock: TEMPAE_clean_linker_10, # of connection points: 2
#     Edge 107, Type (0, 0), BuildingBlock: TEMPAE_clean_linker_10, # of connection points: 2
#     Edge 108, Type (0, 0), BuildingBlock: TEMPAE_clean_linker_10, # of connection points: 2
#     Edge 109, Type (0, 0), BuildingBlock: TEMPAE_clean_linker_10, # of connection points: 2
#     Edge 110, Type (0, 0), BuildingBlock: TEMPAE_clean_linker_10, # of connection points: 2
#     Edge 111, Type (0, 0), BuildingBlock: TEMPAE_clean_linker_10, # of connection points: 2
#     Edge 112, Type (0, 0), BuildingBlock: TEMPAE_clean_linker_10, # of connection points: 2
#     Edge 113, Type (0, 0), BuildingBlock: TEMPAE_clean_linker_10, # of connection points: 2
#     Edge 114, Type (0, 0), BuildingBlock: TEMPAE_clean_linker_10, # of connection points: 2
#     Edge 115, Type (0, 0), BuildingBlock: TEMPAE_clean_linker_10, # of connection points: 2
#     Edge 116, Type (0, 0), BuildingBlock: TEMPAE_clean_linker_10, # of connection points: 2
#     Edge 117, Type (0, 0), BuildingBlock: TEMPAE_clean_linker_10, # of connection points: 2
#     Edge 118, Type (0, 0), BuildingBlock: TEMPAE_clean_linker_10, # of connection points: 2
#     Edge 119, Type (0, 0), BuildingBlock: TEMPAE_clean_linker_10, # of connection points: 2
#     Edge 120, Type (0, 0), BuildingBlock: TEMPAE_clean_linker_10, # of connection points: 2
#     Edge 121, Type (0, 0), BuildingBlock: TEMPAE_clean_linker_10, # of connection points: 2
#     Edge 122, Type (0, 0), BuildingBlock: TEMPAE_clean_linker_10, # of connection points: 2
#     Edge 123, Type (0, 0), BuildingBlock: TEMPAE_clean_linker_10, # of connection points: 2
#     Edge 124, Type (0, 0), BuildingBlock: TEMPAE_clean_linker_10, # of connection points: 2
#     Edge 125, Type (0, 0), BuildingBlock: TEMPAE_clean_linker_10, # of connection points: 2
#     Edge 126, Type (0, 0), BuildingBlock: TEMPAE_clean_linker_10, # of connection points: 2
#     Edge 127, Type (0, 0), BuildingBlock: TEMPAE_clean_linker_10, # of connection points: 2
#     Edge 128, Type (0, 0), BuildingBlock: TEMPAE_clean_linker_10, # of connection points: 2
#     Edge 129, Type (0, 0), BuildingBlock: TEMPAE_clean_linker_10, # of connection points: 2
#     Edge 130, Type (0, 0), BuildingBlock: TEMPAE_clean_linker_10, # of connection points: 2
#     Edge 131, Type (0, 0), BuildingBlock: TEMPAE_clean_linker_10, # of connection points: 2
#     Edge 132, Type (0, 0), BuildingBlock: TEMPAE_clean_linker_10, # of connection points: 2
#     Edge 133, Type (0, 0), BuildingBlock: TEMPAE_clean_linker_10, # of connection points: 2
#     Edge 134, Type (0, 0), BuildingBlock: TEMPAE_clean_linker_10, # of connection points: 2
#     Edge 135, Type (0, 0), BuildingBlock: TEMPAE_clean_linker_10, # of connection points: 2
#     Edge 136, Type (0, 0), BuildingBlock: TEMPAE_clean_linker_10, # of connection points: 2
#     Edge 137, Type (0, 0), BuildingBlock: TEMPAE_clean_linker_10, # of connection points: 2
#     Edge 138, Type (0, 0), BuildingBlock: TEMPAE_clean_linker_10, # of connection points: 2
#     Edge 139, Type (0, 0), BuildingBlock: TEMPAE_clean_linker_10, # of connection points: 2
#     Edge 140, Type (0, 0), BuildingBlock: TEMPAE_clean_linker_10, # of connection points: 2
#     Edge 141, Type (0, 0), BuildingBlock: TEMPAE_clean_linker_10, # of connection points: 2
#     Edge 142, Type (0, 0), BuildingBlock: TEMPAE_clean_linker_10, # of connection points: 2
#     Edge 143, Type (0, 0), BuildingBlock: TEMPAE_clean_linker_10, # of connection points: 2
#     Edge 144, Type (0, 0), BuildingBlock: TEMPAE_clean_linker_10, # of connection points: 2
#     Edge 145, Type (0, 0), BuildingBlock: TEMPAE_clean_linker_10, # of connection points: 2
#     Edge 146, Type (0, 0), BuildingBlock: TEMPAE_clean_linker_10, # of connection points: 2
#     Edge 147, Type (0, 0), BuildingBlock: TEMPAE_clean_linker_10, # of connection points: 2
#     Edge 148, Type (0, 0), BuildingBlock: TEMPAE_clean_linker_10, # of connection points: 2
#     Edge 149, Type (0, 0), BuildingBlock: TEMPAE_clean_linker_10, # of connection points: 2
#     Edge 150, Type (0, 0), BuildingBlock: TEMPAE_clean_linker_10, # of connection points: 2
#     Edge 151, Type (0, 0), BuildingBlock: TEMPAE_clean_linker_10, # of connection points: 2
#     Edge 152, Type (0, 0), BuildingBlock: TEMPAE_clean_linker_10, # of connection points: 2
#     Edge 153, Type (0, 0), BuildingBlock: TEMPAE_clean_linker_10, # of connection points: 2
#     Edge 154, Type (0, 0), BuildingBlock: TEMPAE_clean_linker_10, # of connection points: 2
#     Edge 155, Type (0, 0), BuildingBlock: TEMPAE_clean_linker_10, # of connection points: 2
#     Edge 156, Type (0, 0), BuildingBlock: TEMPAE_clean_linker_10, # of connection points: 2
#     Edge 157, Type (0, 0), BuildingBlock: TEMPAE_clean_linker_10, # of connection points: 2
#     Edge 158, Type (0, 0), BuildingBlock: TEMPAE_clean_linker_10, # of connection points: 2
#     Edge 159, Type (0, 0), BuildingBlock: TEMPAE_clean_linker_10, # of connection points: 2
#     Edge 160, Type (0, 0), BuildingBlock: TEMPAE_clean_linker_10, # of connection points: 2
#     Edge 161, Type (0, 0), BuildingBlock: TEMPAE_clean_linker_10, # of connection points: 2
#     Edge 162, Type (0, 0), BuildingBlock: TEMPAE_clean_linker_10, # of connection points: 2
#     Edge 163, Type (0, 0), BuildingBlock: TEMPAE_clean_linker_10, # of connection points: 2
#     Edge 164, Type (0, 0), BuildingBlock: TEMPAE_clean_linker_10, # of connection points: 2
#     Edge 165, Type (0, 0), BuildingBlock: TEMPAE_clean_linker_10, # of connection points: 2
#     Edge 166, Type (0, 0), BuildingBlock: TEMPAE_clean_linker_10, # of connection points: 2
#     Edge 167, Type (0, 0), BuildingBlock: TEMPAE_clean_linker_10, # of connection points: 2
#     Edge 168, Type (0, 0), BuildingBlock: TEMPAE_clean_linker_10, # of connection points: 2
#     Edge 169, Type (0, 0), BuildingBlock: TEMPAE_clean_linker_10, # of connection points: 2
#     Edge 170, Type (0, 0), BuildingBlock: TEMPAE_clean_linker_10, # of connection points: 2
#     Edge 171, Type (0, 0), BuildingBlock: TEMPAE_clean_linker_10, # of connection points: 2
#     Edge 172, Type (0, 0), BuildingBlock: TEMPAE_clean_linker_10, # of connection points: 2
#     Edge 173, Type (0, 0), BuildingBlock: TEMPAE_clean_linker_10, # of connection points: 2
#     Edge 174, Type (0, 0), BuildingBlock: TEMPAE_clean_linker_10, # of connection points: 2
#     Edge 175, Type (0, 0), BuildingBlock: TEMPAE_clean_linker_10, # of connection points: 2
#     Edge 176, Type (0, 0), BuildingBlock: TEMPAE_clean_linker_10, # of connection points: 2
#     Edge 177, Type (0, 0), BuildingBlock: TEMPAE_clean_linker_10, # of connection points: 2
#     Edge 178, Type (0, 0), BuildingBlock: TEMPAE_clean_linker_10, # of connection points: 2
#     Edge 179, Type (0, 0), BuildingBlock: TEMPAE_clean_linker_10, # of connection points: 2
#     Edge 180, Type (0, 0), BuildingBlock: TEMPAE_clean_linker_10, # of connection points: 2
#     Edge 181, Type (0, 0), BuildingBlock: TEMPAE_clean_linker_10, # of connection points: 2
#     Edge 182, Type (0, 0), BuildingBlock: TEMPAE_clean_linker_10, # of connection points: 2
#     Edge 183, Type (0, 0), BuildingBlock: TEMPAE_clean_linker_10, # of connection points: 2
#     Edge 184, Type (0, 0), BuildingBlock: TEMPAE_clean_linker_10, # of connection points: 2
#     Edge 185, Type (0, 0), BuildingBlock: TEMPAE_clean_linker_10, # of connection points: 2
#     Edge 186, Type (0, 0), BuildingBlock: TEMPAE_clean_linker_10, # of connection points: 2
#     Edge 187, Type (0, 0), BuildingBlock: TEMPAE_clean_linker_10, # of connection points: 2
#     Edge 188, Type (0, 0), BuildingBlock: TEMPAE_clean_linker_10, # of connection points: 2
#     Edge 189, Type (0, 0), BuildingBlock: TEMPAE_clean_linker_10, # of connection points: 2
#     Edge 190, Type (0, 0), BuildingBlock: TEMPAE_clean_linker_10, # of connection points: 2
#     Edge 191, Type (0, 0), BuildingBlock: TEMPAE_clean_linker_10, # of connection points: 2
#     Edge 192, Type (0, 0), BuildingBlock: TEMPAE_clean_linker_10, # of connection points: 2
#     Edge 193, Type (0, 0), BuildingBlock: TEMPAE_clean_linker_10, # of connection points: 2
#     Edge 194, Type (0, 0), BuildingBlock: TEMPAE_clean_linker_10, # of connection points: 2
#     Edge 195, Type (0, 0), BuildingBlock: TEMPAE_clean_linker_10, # of connection points: 2
#     Edge 196, Type (0, 0), BuildingBlock: TEMPAE_clean_linker_10, # of connection points: 2
#     Edge 197, Type (0, 0), BuildingBlock: TEMPAE_clean_linker_10, # of connection points: 2
#     Edge 198, Type (0, 0), BuildingBlock: TEMPAE_clean_linker_10, # of connection points: 2
#     Edge 199, Type (0, 0), BuildingBlock: TEMPAE_clean_linker_10, # of connection points: 2
#     Edge 200, Type (0, 0), BuildingBlock: TEMPAE_clean_linker_10, # of connection points: 2
#     Edge 201, Type (0, 0), BuildingBlock: TEMPAE_clean_linker_10, # of connection points: 2
#     Edge 202, Type (0, 0), BuildingBlock: TEMPAE_clean_linker_10, # of connection points: 2
#     Edge 203, Type (0, 0), BuildingBlock: TEMPAE_clean_linker_10, # of connection points: 2
#     Edge 204, Type (0, 0), BuildingBlock: TEMPAE_clean_linker_10, # of connection points: 2
#     Edge 205, Type (0, 0), BuildingBlock: TEMPAE_clean_linker_10, # of connection points: 2
#     Edge 206, Type (0, 0), BuildingBlock: TEMPAE_clean_linker_10, # of connection points: 2
#     Edge 207, Type (0, 0), BuildingBlock: TEMPAE_clean_linker_10, # of connection points: 2
#     Edge 208, Type (0, 0), BuildingBlock: TEMPAE_clean_linker_10, # of connection points: 2
#     Edge 209, Type (0, 0), BuildingBlock: TEMPAE_clean_linker_10, # of connection points: 2
#     Edge 210, Type (0, 0), BuildingBlock: TEMPAE_clean_linker_10, # of connection points: 2
#     Edge 211, Type (0, 0), BuildingBlock: TEMPAE_clean_linker_10, # of connection points: 2
#     Edge 212, Type (0, 0), BuildingBlock: TEMPAE_clean_linker_10, # of connection points: 2
#     Edge 213, Type (0, 0), BuildingBlock: TEMPAE_clean_linker_10, # of connection points: 2
#     Edge 214, Type (0, 0), BuildingBlock: TEMPAE_clean_linker_10, # of connection points: 2
#     Edge 215, Type (0, 0), BuildingBlock: TEMPAE_clean_linker_10, # of connection points: 2
#     Edge 216, Type (0, 0), BuildingBlock: TEMPAE_clean_linker_10, # of connection points: 2
#     Edge 217, Type (0, 0), BuildingBlock: TEMPAE_clean_linker_10, # of connection points: 2
#     Edge 218, Type (0, 0), BuildingBlock: TEMPAE_clean_linker_10, # of connection points: 2
#     Edge 219, Type (0, 0), BuildingBlock: TEMPAE_clean_linker_10, # of connection points: 2
#     Edge 220, Type (0, 0), BuildingBlock: TEMPAE_clean_linker_10, # of connection points: 2
#     Edge 221, Type (0, 0), BuildingBlock: TEMPAE_clean_linker_10, # of connection points: 2
#     Edge 222, Type (0, 0), BuildingBlock: TEMPAE_clean_linker_10, # of connection points: 2
#     Edge 223, Type (0, 0), BuildingBlock: TEMPAE_clean_linker_10, # of connection points: 2
#     Edge 224, Type (0, 0), BuildingBlock: TEMPAE_clean_linker_10, # of connection points: 2
#     Edge 225, Type (0, 0), BuildingBlock: TEMPAE_clean_linker_10, # of connection points: 2
#     Edge 226, Type (0, 0), BuildingBlock: TEMPAE_clean_linker_10, # of connection points: 2
#     Edge 227, Type (0, 0), BuildingBlock: TEMPAE_clean_linker_10, # of connection points: 2
#     Edge 228, Type (0, 0), BuildingBlock: TEMPAE_clean_linker_10, # of connection points: 2
#     Edge 229, Type (0, 0), BuildingBlock: TEMPAE_clean_linker_10, # of connection points: 2
#     Edge 230, Type (0, 0), BuildingBlock: TEMPAE_clean_linker_10, # of connection points: 2
#     Edge 231, Type (0, 0), BuildingBlock: TEMPAE_clean_linker_10, # of connection points: 2
#     Edge 232, Type (0, 0), BuildingBlock: TEMPAE_clean_linker_10, # of connection points: 2
#     Edge 233, Type (0, 0), BuildingBlock: TEMPAE_clean_linker_10, # of connection points: 2
#     Edge 234, Type (0, 0), BuildingBlock: TEMPAE_clean_linker_10, # of connection points: 2
#     Edge 235, Type (0, 0), BuildingBlock: TEMPAE_clean_linker_10, # of connection points: 2
#     Edge 236, Type (0, 0), BuildingBlock: TEMPAE_clean_linker_10, # of connection points: 2
#     Edge 237, Type (0, 0), BuildingBlock: TEMPAE_clean_linker_10, # of connection points: 2
#     Edge 238, Type (0, 0), BuildingBlock: TEMPAE_clean_linker_10, # of connection points: 2
#     Edge 239, Type (0, 0), BuildingBlock: TEMPAE_clean_linker_10, # of connection points: 2
#     Edge 240, Type (0, 0), BuildingBlock: TEMPAE_clean_linker_10, # of connection points: 2
#     Edge 241, Type (0, 0), BuildingBlock: TEMPAE_clean_linker_10, # of connection points: 2
#     Edge 242, Type (0, 0), BuildingBlock: TEMPAE_clean_linker_10, # of connection points: 2
#     Edge 243, Type (0, 0), BuildingBlock: TEMPAE_clean_linker_10, # of connection points: 2
#     Edge 244, Type (0, 0), BuildingBlock: TEMPAE_clean_linker_10, # of connection points: 2
#     Edge 245, Type (0, 0), BuildingBlock: TEMPAE_clean_linker_10, # of connection points: 2
#     Edge 246, Type (0, 0), BuildingBlock: TEMPAE_clean_linker_10, # of connection points: 2
#     Edge 247, Type (0, 0), BuildingBlock: TEMPAE_clean_linker_10, # of connection points: 2
#     Edge 248, Type (0, 0), BuildingBlock: TEMPAE_clean_linker_10, # of connection points: 2
#     Edge 249, Type (0, 0), BuildingBlock: TEMPAE_clean_linker_10, # of connection points: 2
#     Edge 250, Type (0, 0), BuildingBlock: TEMPAE_clean_linker_10, # of connection points: 2
#     Edge 251, Type (0, 0), BuildingBlock: TEMPAE_clean_linker_10, # of connection points: 2
#     Edge 252, Type (0, 0), BuildingBlock: TEMPAE_clean_linker_10, # of connection points: 2
#     Edge 253, Type (0, 0), BuildingBlock: TEMPAE_clean_linker_10, # of connection points: 2
#     Edge 254, Type (0, 0), BuildingBlock: TEMPAE_clean_linker_10, # of connection points: 2
#     Edge 255, Type (0, 0), BuildingBlock: TEMPAE_clean_linker_10, # of connection points: 2
#     Edge 256, Type (0, 0), BuildingBlock: TEMPAE_clean_linker_10, # of connection points: 2
#     Edge 257, Type (0, 0), BuildingBlock: TEMPAE_clean_linker_10, # of connection points: 2
#     Edge 258, Type (0, 0), BuildingBlock: TEMPAE_clean_linker_10, # of connection points: 2
#     Edge 259, Type (0, 0), BuildingBlock: TEMPAE_clean_linker_10, # of connection points: 2
#     Edge 260, Type (0, 0), BuildingBlock: TEMPAE_clean_linker_10, # of connection points: 2
#     Edge 261, Type (0, 0), BuildingBlock: TEMPAE_clean_linker_10, # of connection points: 2
#     Edge 262, Type (0, 0), BuildingBlock: TEMPAE_clean_linker_10, # of connection points: 2
#     Edge 263, Type (0, 0), BuildingBlock: TEMPAE_clean_linker_10, # of connection points: 2
#     Edge 264, Type (0, 0), BuildingBlock: TEMPAE_clean_linker_10, # of connection points: 2
#     Edge 265, Type (0, 0), BuildingBlock: TEMPAE_clean_linker_10, # of connection points: 2
#     Edge 266, Type (0, 0), BuildingBlock: TEMPAE_clean_linker_10, # of connection points: 2
#     Edge 267, Type (0, 0), BuildingBlock: TEMPAE_clean_linker_10, # of connection points: 2
#     Edge 268, Type (0, 0), BuildingBlock: TEMPAE_clean_linker_10, # of connection points: 2
#     Edge 269, Type (0, 0), BuildingBlock: TEMPAE_clean_linker_10, # of connection points: 2
#     Edge 270, Type (0, 0), BuildingBlock: TEMPAE_clean_linker_10, # of connection points: 2
#     Edge 271, Type (0, 0), BuildingBlock: TEMPAE_clean_linker_10, # of connection points: 2
#     Edge 272, Type (0, 0), BuildingBlock: TEMPAE_clean_linker_10, # of connection points: 2
#     Edge 273, Type (0, 0), BuildingBlock: TEMPAE_clean_linker_10, # of connection points: 2
#     Edge 274, Type (0, 0), BuildingBlock: TEMPAE_clean_linker_10, # of connection points: 2
#     Edge 275, Type (0, 0), BuildingBlock: TEMPAE_clean_linker_10, # of connection points: 2
#     Edge 276, Type (0, 0), BuildingBlock: TEMPAE_clean_linker_10, # of connection points: 2
#     Edge 277, Type (0, 0), BuildingBlock: TEMPAE_clean_linker_10, # of connection points: 2
#     Edge 278, Type (0, 0), BuildingBlock: TEMPAE_clean_linker_10, # of connection points: 2
#     Edge 279, Type (0, 0), BuildingBlock: TEMPAE_clean_linker_10, # of connection points: 2
#     Edge 280, Type (0, 0), BuildingBlock: TEMPAE_clean_linker_10, # of connection points: 2
#     Edge 281, Type (0, 0), BuildingBlock: TEMPAE_clean_linker_10, # of connection points: 2
#     Edge 282, Type (0, 0), BuildingBlock: TEMPAE_clean_linker_10, # of connection points: 2
#     Edge 283, Type (0, 0), BuildingBlock: TEMPAE_clean_linker_10, # of connection points: 2
#     Edge 284, Type (0, 0), BuildingBlock: TEMPAE_clean_linker_10, # of connection points: 2
#     Edge 285, Type (0, 0), BuildingBlock: TEMPAE_clean_linker_10, # of connection points: 2
#     Edge 286, Type (0, 0), BuildingBlock: TEMPAE_clean_linker_10, # of connection points: 2
#     Edge 287, Type (0, 0), BuildingBlock: TEMPAE_clean_linker_10, # of connection points: 2
# Relax obj value: 0.163
# Max RMSD: 0.098
# Mean RMSD: 0.098
data_MOF--net-kfi--node1-CEKHIL_clean_sbu_0--edge1-TEMPAE_clean_linker_10
_symmetry_space_group_name_H-M    P1
_symmetry_Int_Tables_number       1
_symmetry_cell_setting            triclinic
loop_
_symmetry_equiv_pos_as_xyz
'x, y, z'
_cell_length_a     88.878443
_cell_length_b     88.847828
_cell_length_c     88.854997
_cell_angle_alpha  90.008735
_cell_angle_beta   90.004313
_cell_angle_gamma 89.989785
loop_
_atom_site_label
_atom_site_type_symbol
_atom_site_fract_x
_atom_site_fract_y
_atom_site_fract_z
_atom_type_partial_charge
Co0 Co 0.08096 0.19477 0.31857 0.0
O1 O 0.06265 0.18632 0.31044 0.0
O2 O 0.06371 0.20404 0.32798 0.0
C3 C 0.09308 0.17268 0.32221 0.0
O4 O 0.09714 0.20623 0.33009 0.0
Co5 Co 0.11214 0.191 0.30345 0.0
O6 O 0.12026 0.1999 0.32224 0.0
C7 C 0.09059 0.21364 0.29166 0.0
C8 C 0.05556 0.19538 0.31947 0.0
C9 C 0.11155 0.2069 0.33121 0.0
O10 O 0.08108 0.21055 0.30216 0.0
O11 O 0.10308 0.20666 0.28994 0.0
O12 O 0.08354 0.17759 0.33216 0.0
O13 O 0.09421 0.18059 0.31009 0.0
Co14 Co 0.80093 0.08677 0.32353 0.0
O15 O 0.81081 0.06924 0.31523 0.0
O16 O 0.7931 0.06872 0.3328 0.0
C17 C 0.82185 0.10083 0.32729 0.0
O18 O 0.78828 0.10217 0.3351 0.0
Co19 Co 0.80218 0.11801 0.30768 0.0
O20 O 0.7933 0.12551 0.32669 0.0
C21 C 0.78191 0.09433 0.29598 0.0
C22 C 0.80235 0.06139 0.32419 0.0
C23 C 0.78695 0.1166 0.33595 0.0
O24 O 0.78522 0.08561 0.30708 0.0
O25 O 0.78806 0.10719 0.29385 0.0
O26 O 0.81805 0.09056 0.33699 0.0
O27 O 0.81383 0.10126 0.31519 0.0
Co28 Co 0.92041 0.80942 0.32273 0.0
O29 O 0.93945 0.81884 0.3182 0.0
O30 O 0.93649 0.79864 0.33257 0.0
C31 C 0.90765 0.83088 0.32759 0.0
O32 O 0.90313 0.79681 0.33069 0.0
Co33 Co 0.89154 0.81505 0.3041 0.0
O34 O 0.88115 0.80346 0.32023 0.0
C35 C 0.91537 0.79537 0.29192 0.0
C36 C 0.9455 0.80839 0.32644 0.0
C37 C 0.88874 0.79578 0.32968 0.0
O38 O 0.92231 0.79578 0.30462 0.0
O39 O 0.90375 0.8034 0.28902 0.0
O40 O 0.91599 0.8248 0.33797 0.0
O41 O 0.90816 0.82454 0.31455 0.0
Co42 Co 0.199 0.91586 0.32223 0.0
O43 O 0.18832 0.93343 0.31509 0.0
O44 O 0.2077 0.93388 0.33078 0.0
C45 C 0.17845 0.90173 0.32738 0.0
O46 O 0.21249 0.9004 0.33269 0.0
Co47 Co 0.19663 0.88476 0.3062 0.0
O48 O 0.20684 0.87714 0.32449 0.0
C49 C 0.21641 0.90836 0.29358 0.0
C50 C 0.19761 0.94128 0.3232 0.0
C51 C 0.2138 0.88597 0.33338 0.0
O52 O 0.21349 0.91715 0.30472 0.0
O53 O 0.21023 0.89547 0.29178 0.0
O54 O 0.18291 0.9119 0.33691 0.0
O55 O 0.18557 0.90143 0.31474 0.0
Co56 Co 0.07793 0.80672 0.67954 0.0
O57 O 0.05939 0.8164 0.68543 0.0
O58 O 0.06102 0.79658 0.67036 0.0
C59 C 0.09081 0.82812 0.67458 0.0
O60 O 0.09455 0.79399 0.67029 0.0
Co61 Co 0.1078 0.81143 0.69683 0.0
O62 O 0.11709 0.80016 0.67983 0.0
C63 C 0.08425 0.79194 0.70976 0.0
C64 C 0.0526 0.80634 0.67728 0.0
C65 C 0.10897 0.7928 0.67056 0.0
O66 O 0.07675 0.79265 0.69738 0.0
O67 O 0.09609 0.79976 0.71227 0.0
O68 O 0.08181 0.82248 0.6645 0.0
O69 O 0.09087 0.8214 0.68743 0.0
Co70 Co 0.1969 0.08272 0.68466 0.0
O71 O 0.18725 0.06479 0.69226 0.0
O72 O 0.20556 0.06506 0.67532 0.0
C73 C 0.17564 0.09604 0.6804 0.0
O74 O 0.20944 0.09866 0.67378 0.0
Co75 Co 0.19402 0.11362 0.70064 0.0
O76 O 0.20308 0.12172 0.68194 0.0
C77 C 0.21491 0.09063 0.71277 0.0
C78 C 0.19621 0.05731 0.68347 0.0
C79 C 0.21015 0.11312 0.6729 0.0
O80 O 0.21202 0.08176 0.70167 0.0
O81 O 0.2084 0.10335 0.71468 0.0
O82 O 0.18038 0.08636 0.6705 0.0
O83 O 0.18309 0.09649 0.69286 0.0
Co84 Co 0.92432 0.19707 0.68169 0.0
O85 O 0.94277 0.18819 0.68888 0.0
O86 O 0.94139 0.20668 0.67218 0.0
C87 C 0.91189 0.17533 0.67743 0.0
O88 O 0.90759 0.20898 0.67142 0.0
Co89 Co 0.89423 0.1925 0.69891 0.0
O90 O 0.88512 0.20284 0.68127 0.0
C91 C 0.91749 0.21271 0.71125 0.0
C92 C 0.94969 0.19762 0.68013 0.0
C93 C 0.89313 0.20988 0.67166 0.0
O94 O 0.92483 0.21207 0.69878 0.0
O95 O 0.90595 0.20456 0.71406 0.0
O96 O 0.92119 0.1805 0.66741 0.0
O97 O 0.9114 0.18259 0.68997 0.0
Co98 Co 0.80397 0.91955 0.68044 0.0
O99 O 0.81513 0.93714 0.68654 0.0
O100 O 0.79477 0.93745 0.67213 0.0
C101 C 0.82406 0.90533 0.67424 0.0
O102 O 0.78991 0.90394 0.6712 0.0
Co103 Co 0.80737 0.8892 0.69743 0.0
O104 O 0.79515 0.88103 0.68055 0.0
C105 C 0.79024 0.91393 0.7113 0.0
C106 C 0.80535 0.94491 0.67896 0.0
C107 C 0.78807 0.88956 0.67143 0.0
O108 O 0.79066 0.92124 0.6988 0.0
O109 O 0.7975 0.90168 0.71352 0.0
O110 O 0.81889 0.91517 0.66473 0.0
O111 O 0.81792 0.90538 0.68738 0.0
Co112 Co 0.32205 0.08659 0.19949 0.0
O113 O 0.31419 0.0693 0.18888 0.0
O114 O 0.33025 0.06833 0.20794 0.0
C115 C 0.32716 0.10055 0.17882 0.0
O116 O 0.33327 0.10157 0.21286 0.0
Co117 Co 0.30718 0.11822 0.1977 0.0
O118 O 0.32579 0.12517 0.20779 0.0
C119 C 0.29402 0.09489 0.2175 0.0
C120 C 0.32229 0.06119 0.19797 0.0
C121 C 0.33446 0.11593 0.21448 0.0
O122 O 0.30482 0.08576 0.21432 0.0
O123 O 0.29258 0.10789 0.21146 0.0
O124 O 0.33649 0.09012 0.18312 0.0
O125 O 0.31472 0.10131 0.18626 0.0
Co126 Co 0.92031 0.32028 0.19418 0.0
O127 O 0.93913 0.31569 0.18437 0.0
O128 O 0.93664 0.33023 0.20451 0.0
C129 C 0.90713 0.32492 0.17292 0.0
O130 O 0.90323 0.32826 0.20712 0.0
Co131 Co 0.89141 0.30147 0.18918 0.0
O132 O 0.88119 0.31777 0.20069 0.0
C133 C 0.91572 0.28951 0.2084 0.0
C134 C 0.94543 0.32402 0.1946 0.0
C135 C 0.88885 0.32724 0.20827 0.0
O136 O 0.92255 0.30227 0.20788 0.0
O137 O 0.90398 0.28651 0.20058 0.0
O138 O 0.91553 0.33539 0.17876 0.0
O139 O 0.90781 0.31195 0.17938 0.0
Co140 Co 0.68072 0.91671 0.19678 0.0
O141 O 0.68806 0.93485 0.18734 0.0
O142 O 0.67103 0.93412 0.20554 0.0
C143 C 0.67693 0.90363 0.17528 0.0
O144 O 0.67007 0.90057 0.2092 0.0
Co145 Co 0.69697 0.886 0.1938 0.0
O146 O 0.6786 0.87756 0.20322 0.0
C147 C 0.70866 0.90899 0.21501 0.0
C148 C 0.67909 0.9421 0.19631 0.0
C149 C 0.66948 0.88612 0.21022 0.0
O150 O 0.69756 0.91782 0.21204 0.0
O151 O 0.71073 0.89633 0.20843 0.0
O152 O 0.66678 0.91299 0.18009 0.0
O153 O 0.68928 0.90322 0.18291 0.0
Co154 Co 0.07899 0.68262 0.19581 0.0
O155 O 0.06081 0.69101 0.18731 0.0
O156 O 0.06154 0.67344 0.20499 0.0
C157 C 0.09118 0.67888 0.17378 0.0
O158 O 0.09511 0.67092 0.20726 0.0
Co159 Co 0.11031 0.69761 0.19201 0.0
O160 O 0.11821 0.67858 0.20056 0.0
C161 C 0.08882 0.7095 0.21464 0.0
C162 C 0.05354 0.6821 0.19633 0.0
C163 C 0.10954 0.66965 0.20766 0.0
O164 O 0.07927 0.69903 0.2116 0.0
O165 O 0.1013 0.71117 0.20763 0.0
O166 O 0.08152 0.66902 0.17859 0.0
O167 O 0.09235 0.69099 0.18169 0.0
Co168 Co 0.32211 0.91341 0.80107 0.0
O169 O 0.31531 0.93132 0.81125 0.0
O170 O 0.33214 0.93086 0.79283 0.0
C171 C 0.3259 0.89911 0.82175 0.0
O172 O 0.33206 0.8973 0.7881 0.0
Co173 Co 0.30363 0.88372 0.80313 0.0
O174 O 0.32091 0.87491 0.79202 0.0
C175 C 0.29213 0.90926 0.7855 0.0
C176 C 0.32432 0.93867 0.80241 0.0
C177 C 0.33109 0.88298 0.78593 0.0
O178 O 0.30514 0.91558 0.78608 0.0
O179 O 0.28878 0.89741 0.79299 0.0
O180 O 0.33605 0.90879 0.81759 0.0
O181 O 0.31344 0.89956 0.81432 0.0
Co182 Co 0.08008 0.32233 0.80837 0.0
O183 O 0.06139 0.31555 0.81712 0.0
O184 O 0.06335 0.3327 0.79911 0.0
C185 C 0.09286 0.32541 0.83018 0.0
O186 O 0.09694 0.33241 0.79663 0.0
Co187 Co 0.10976 0.30431 0.81205 0.0
O188 O 0.11928 0.32183 0.80184 0.0
C189 C 0.08596 0.29312 0.79177 0.0
C190 C 0.05477 0.32476 0.80789 0.0
C191 C 0.11134 0.33182 0.79528 0.0
O192 O 0.0789 0.30572 0.79287 0.0
O193 O 0.09753 0.28983 0.79971 0.0
O194 O 0.08392 0.33595 0.82536 0.0
O195 O 0.09282 0.31313 0.82247 0.0
Co196 Co 0.67936 0.08648 0.80222 0.0
O197 O 0.68735 0.06884 0.812 0.0
O198 O 0.6702 0.06858 0.79389 0.0
C199 C 0.67518 0.1002 0.82325 0.0
O200 O 0.66833 0.10223 0.78961 0.0
Co201 Co 0.69615 0.11716 0.8045 0.0
O202 O 0.67805 0.12518 0.79415 0.0
C203 C 0.70865 0.09268 0.78594 0.0
C204 C 0.67863 0.06108 0.8032 0.0
C205 C 0.66836 0.11664 0.78789 0.0
O206 O 0.69613 0.08547 0.78691 0.0
O207 O 0.71143 0.10469 0.79343 0.0
O208 O 0.6655 0.09006 0.81906 0.0
O209 O 0.68749 0.10059 0.81558 0.0
Co210 Co 0.92314 0.68093 0.80801 0.0
O211 O 0.94143 0.68814 0.81725 0.0
O212 O 0.94036 0.67093 0.79923 0.0
C213 C 0.90984 0.67757 0.82946 0.0
O214 O 0.90681 0.67049 0.79581 0.0
Co215 Co 0.89303 0.69839 0.8109 0.0
O216 O 0.88415 0.68066 0.80048 0.0
C217 C 0.91703 0.70993 0.79106 0.0
C218 C 0.94852 0.67908 0.80823 0.0
C219 C 0.89244 0.67082 0.79411 0.0
O220 O 0.92438 0.69752 0.79249 0.0
O221 O 0.90519 0.71302 0.79866 0.0
O222 O 0.91915 0.66724 0.8249 0.0
O223 O 0.90983 0.68986 0.82176 0.0
Co224 Co 0.19924 0.32051 0.08492 0.0
O225 O 0.18856 0.31322 0.06737 0.0
O226 O 0.20803 0.32878 0.06684 0.0
C227 C 0.17868 0.32593 0.099 0.0
O228 O 0.2128 0.33114 0.10017 0.0
Co229 Co 0.19688 0.30509 0.11631 0.0
O230 O 0.20757 0.32324 0.12361 0.0
C231 C 0.2165 0.29189 0.09288 0.0
C232 C 0.19795 0.32117 0.05947 0.0
C233 C 0.21442 0.33197 0.11456 0.0
O234 O 0.21365 0.30289 0.08389 0.0
O235 O 0.21034 0.29038 0.10581 0.0
O236 O 0.18318 0.3353 0.08869 0.0
O237 O 0.18578 0.31329 0.09949 0.0
Co238 Co 0.19396 0.67828 0.92078 0.0
O239 O 0.18372 0.68254 0.93945 0.0
O240 O 0.20463 0.66911 0.93741 0.0
C241 C 0.1732 0.67233 0.90737 0.0
O242 O 0.20737 0.6709 0.90371 0.0
Co243 Co 0.18793 0.69695 0.89189 0.0
O244 O 0.1998 0.68087 0.88174 0.0
C245 C 0.20653 0.70982 0.91617 0.0
C246 C 0.1943 0.67491 0.94602 0.0
C247 C 0.20803 0.67183 0.88926 0.0
O248 O 0.20663 0.69703 0.92298 0.0
O249 O 0.19859 0.71247 0.90444 0.0
O250 O 0.17948 0.66227 0.91596 0.0
O251 O 0.17882 0.68567 0.90812 0.0
Co252 Co 0.32375 0.19692 0.91521 0.0
O253 O 0.31609 0.18658 0.93278 0.0
O254 O 0.33209 0.20572 0.93321 0.0
C255 C 0.32881 0.17609 0.90142 0.0
O256 O 0.33484 0.21011 0.90005 0.0
Co257 Co 0.3089 0.19483 0.88363 0.0
O258 O 0.32753 0.20477 0.87647 0.0
C259 C 0.2957 0.21486 0.90676 0.0
C260 C 0.32424 0.19587 0.94061 0.0
C261 C 0.33613 0.21158 0.8857 0.0
O262 O 0.30646 0.21173 0.91596 0.0
O263 O 0.29432 0.20872 0.89379 0.0
O264 O 0.33819 0.18053 0.91174 0.0
O265 O 0.31635 0.1835 0.90068 0.0
Co266 Co 0.80323 0.31837 0.91738 0.0
O267 O 0.81385 0.31078 0.9348 0.0
O268 O 0.79444 0.32641 0.93556 0.0
C269 C 0.82374 0.32402 0.90337 0.0
O270 O 0.7898 0.32925 0.9022 0.0
Co271 Co 0.80562 0.3031 0.88596 0.0
O272 O 0.7955 0.32163 0.87877 0.0
C273 C 0.78581 0.28988 0.90913 0.0
C274 C 0.80448 0.31863 0.94281 0.0
C275 C 0.78854 0.33032 0.88779 0.0
O276 O 0.78873 0.30082 0.91817 0.0
O277 O 0.79202 0.28837 0.89622 0.0
O278 O 0.81926 0.33321 0.91384 0.0
O279 O 0.81671 0.31133 0.90277 0.0
Co280 Co 0.67874 0.80512 0.91784 0.0
O281 O 0.68795 0.8141 0.93542 0.0
O282 O 0.66958 0.79725 0.93589 0.0
C283 C 0.67557 0.82659 0.90444 0.0
O284 O 0.66613 0.7934 0.90259 0.0
Co285 Co 0.69333 0.8064 0.88603 0.0
O286 O 0.67373 0.79847 0.87902 0.0
C287 C 0.70487 0.78486 0.9087 0.0
C288 C 0.67876 0.80588 0.94329 0.0
C289 C 0.66462 0.79232 0.88821 0.0
O290 O 0.69444 0.7886 0.91805 0.0
O291 O 0.70671 0.79117 0.89588 0.0
O292 O 0.66601 0.82297 0.9149 0.0
O293 O 0.68723 0.818 0.90339 0.0
Co294 Co 0.80622 0.67893 0.08283 0.0
O295 O 0.81608 0.68545 0.0646 0.0
O296 O 0.79627 0.67034 0.06547 0.0
C297 C 0.82752 0.67356 0.09562 0.0
O298 O 0.79335 0.66903 0.09909 0.0
Co299 Co 0.81078 0.6947 0.11363 0.0
O300 O 0.80087 0.67653 0.122 0.0
C301 C 0.78976 0.70781 0.09128 0.0
C302 C 0.80615 0.67751 0.05741 0.0
C303 C 0.79298 0.66806 0.11355 0.0
O304 O 0.79218 0.69685 0.08212 0.0
O305 O 0.79652 0.70925 0.10393 0.0
O306 O 0.82193 0.66376 0.0863 0.0
O307 O 0.82078 0.68639 0.09617 0.0
Co308 Co 0.31906 0.80654 0.08188 0.0
O309 O 0.3102 0.81498 0.06394 0.0
O310 O 0.32809 0.79756 0.06432 0.0
C311 C 0.32259 0.8286 0.09398 0.0
O312 O 0.33128 0.7952 0.0976 0.0
Co313 Co 0.30481 0.80971 0.1135 0.0
O314 O 0.32397 0.80108 0.12102 0.0
C315 C 0.29254 0.78739 0.09192 0.0
C316 C 0.31915 0.80611 0.05652 0.0
C317 C 0.33285 0.7944 0.11197 0.0
O318 O 0.30293 0.79052 0.08233 0.0
O319 O 0.291 0.79428 0.1045 0.0
O320 O 0.33238 0.82395 0.08417 0.0
O321 O 0.31067 0.82044 0.09547 0.0
Co322 Co 0.6774 0.19801 0.0854 0.0
O323 O 0.68169 0.18768 0.06682 0.0
O324 O 0.66738 0.20802 0.06888 0.0
C325 C 0.67272 0.17703 0.09902 0.0
O326 O 0.66978 0.21139 0.10238 0.0
Co327 Co 0.69672 0.1934 0.11398 0.0
O328 O 0.68064 0.20509 0.1243 0.0
C329 C 0.70835 0.21217 0.08918 0.0
C330 C 0.6734 0.19779 0.06032 0.0
C331 C 0.67109 0.21268 0.11675 0.0
O332 O 0.69549 0.21147 0.08256 0.0
O333 O 0.71151 0.20464 0.10107 0.0
O334 O 0.6622 0.18287 0.09067 0.0
O335 O 0.68576 0.18332 0.09807 0.0
Co336 Co 0.91382 0.80106 0.6796 0.0
O337 O 0.93158 0.81081 0.68747 0.0
O338 O 0.93157 0.79311 0.66988 0.0
C339 C 0.89999 0.82222 0.67628 0.0
O340 O 0.89819 0.7885 0.66836 0.0
Co341 Co 0.88281 0.80256 0.69566 0.0
O342 O 0.87493 0.79354 0.67684 0.0
C343 C 0.90654 0.7821 0.70717 0.0
C344 C 0.93918 0.80231 0.67831 0.0
C345 C 0.88379 0.78711 0.66759 0.0
O346 O 0.91521 0.78539 0.69603 0.0
O347 O 0.89371 0.78829 0.70935 0.0
O348 O 0.90979 0.81816 0.66621 0.0
O349 O 0.89972 0.81413 0.68834 0.0
Co350 Co 0.19401 0.91821 0.68073 0.0
O351 O 0.18416 0.93591 0.68882 0.0
O352 O 0.2031 0.93617 0.67262 0.0
C353 C 0.17291 0.9048 0.67557 0.0
O354 O 0.20682 0.90297 0.66932 0.0
Co355 Co 0.19129 0.88641 0.69517 0.0
O356 O 0.20157 0.87937 0.67667 0.0
C357 C 0.21219 0.90879 0.7083 0.0
C358 C 0.19359 0.94369 0.68077 0.0
C359 C 0.20835 0.88861 0.66807 0.0
O360 O 0.20907 0.9183 0.69782 0.0
O361 O 0.2057 0.89599 0.7096 0.0
O362 O 0.17739 0.91527 0.66636 0.0
O363 O 0.18038 0.90379 0.68797 0.0
Co364 Co 0.08861 0.20232 0.68 0.0
O365 O 0.07104 0.19189 0.68753 0.0
O366 O 0.07061 0.21083 0.67132 0.0
C367 C 0.10262 0.18154 0.67542 0.0
O368 O 0.10386 0.21555 0.66898 0.0
Co369 Co 0.11996 0.20061 0.69544 0.0
O370 O 0.12733 0.21056 0.67691 0.0
C371 C 0.09632 0.22033 0.70819 0.0
C372 C 0.0632 0.201 0.6792 0.0
C373 C 0.11823 0.21716 0.66802 0.0
O374 O 0.08745 0.21725 0.69715 0.0
O375 O 0.10927 0.21425 0.70989 0.0
O376 O 0.09243 0.18577 0.6658 0.0
O377 O 0.10313 0.18912 0.68778 0.0
Co378 Co 0.80912 0.08377 0.68266 0.0
O379 O 0.81773 0.06572 0.6913 0.0
O380 O 0.80103 0.06625 0.67278 0.0
C381 C 0.83084 0.09694 0.68022 0.0
O382 O 0.79771 0.09947 0.6705 0.0
Co383 Co 0.81084 0.11528 0.69787 0.0
O384 O 0.80238 0.1229 0.67869 0.0
C385 C 0.78848 0.09279 0.70843 0.0
C386 C 0.80944 0.05836 0.68174 0.0
C387 C 0.7963 0.11384 0.66939 0.0
O388 O 0.79243 0.08337 0.69813 0.0
O389 O 0.79492 0.10552 0.71051 0.0
O390 O 0.8271 0.08695 0.6702 0.0
O391 O 0.82212 0.0977 0.6918 0.0
Co392 Co 0.9167 0.19895 0.32023 0.0
O393 O 0.93453 0.18852 0.3135 0.0
O394 O 0.93443 0.20847 0.32849 0.0
C395 C 0.90352 0.17798 0.32592 0.0
O396 O 0.90101 0.21236 0.33034 0.0
Co397 Co 0.88558 0.19528 0.30509 0.0
O398 O 0.87775 0.20568 0.32322 0.0
C399 C 0.90845 0.21512 0.29115 0.0
C400 C 0.9421 0.19831 0.32128 0.0
C401 C 0.8866 0.21329 0.33154 0.0
O402 O 0.91757 0.21276 0.30217 0.0
O403 O 0.89561 0.20869 0.28996 0.0
O404 O 0.91309 0.18344 0.33555 0.0
O405 O 0.90287 0.18469 0.31308 0.0
Co406 Co 0.80515 0.92226 0.32106 0.0
O407 O 0.815 0.94054 0.31455 0.0
O408 O 0.79584 0.93956 0.33042 0.0
C409 C 0.82615 0.90854 0.32565 0.0
O410 O 0.79238 0.90588 0.33083 0.0
Co411 Co 0.80865 0.89234 0.30313 0.0
O412 O 0.79785 0.88339 0.32056 0.0
C413 C 0.78966 0.91661 0.29104 0.0
C414 C 0.80546 0.94771 0.32301 0.0
C415 C 0.79103 0.89145 0.33028 0.0
O416 O 0.79049 0.92366 0.30368 0.0
O417 O 0.79737 0.90481 0.28805 0.0
O418 O 0.82143 0.91825 0.33555 0.0
O419 O 0.81908 0.90867 0.31298 0.0
Co420 Co 0.08388 0.80288 0.32444 0.0
O421 O 0.0656 0.81256 0.31806 0.0
O422 O 0.0668 0.79371 0.33436 0.0
C423 C 0.0971 0.82418 0.32858 0.0
O424 O 0.10053 0.79025 0.33392 0.0
Co425 Co 0.11341 0.80672 0.30628 0.0
O426 O 0.12284 0.79594 0.32348 0.0
C427 C 0.08897 0.78774 0.2943 0.0
C428 C 0.0586 0.80322 0.32682 0.0
C429 C 0.11495 0.78897 0.33323 0.0
O430 O 0.08218 0.78829 0.30708 0.0
O431 O 0.10071 0.79553 0.29127 0.0
O432 O 0.08811 0.81903 0.3389 0.0
O433 O 0.0969 0.81711 0.31591 0.0
Co434 Co 0.19515 0.08033 0.32137 0.0
O435 O 0.18575 0.06243 0.3133 0.0
O436 O 0.20321 0.06265 0.3311 0.0
C437 C 0.174 0.0942 0.32459 0.0
O438 O 0.20736 0.09612 0.3327 0.0
Co439 Co 0.19354 0.111 0.3044 0.0
O440 O 0.20377 0.11905 0.32259 0.0
C441 C 0.21244 0.08643 0.29265 0.0
C442 C 0.19427 0.05491 0.3225 0.0
C443 C 0.20947 0.11046 0.33257 0.0
O444 O 0.21111 0.07924 0.30517 0.0
O445 O 0.20496 0.09836 0.28956 0.0
O446 O 0.17773 0.08414 0.33453 0.0
O447 O 0.18215 0.09442 0.3126 0.0
Co448 Co 0.68349 0.92228 0.80753 0.0
O449 O 0.68983 0.94082 0.81697 0.0
O450 O 0.6749 0.93925 0.79704 0.0
C451 C 0.67796 0.91001 0.82912 0.0
O452 O 0.67371 0.90583 0.79492 0.0
Co453 Co 0.69885 0.89144 0.81281 0.0
O454 O 0.68105 0.88288 0.80239 0.0
C455 C 0.71228 0.9132 0.79133 0.0
C456 C 0.68187 0.94764 0.80677 0.0
C457 C 0.67273 0.8914 0.79441 0.0
O458 O 0.7015 0.92262 0.7936 0.0
O459 O 0.71348 0.90064 0.79831 0.0
O460 O 0.66822 0.91919 0.82319 0.0
O461 O 0.69082 0.90924 0.82247 0.0
Co462 Co 0.08734 0.67997 0.80052 0.0
O463 O 0.06992 0.68695 0.81154 0.0
O464 O 0.06921 0.67168 0.79184 0.0
C465 C 0.10158 0.67434 0.82091 0.0
O466 O 0.10249 0.66961 0.78665 0.0
Co467 Co 0.11861 0.69539 0.80269 0.0
O468 O 0.12595 0.67707 0.79232 0.0
C469 C 0.09492 0.7089 0.78357 0.0
C470 C 0.06195 0.67903 0.80219 0.0
C471 C 0.11688 0.66855 0.78521 0.0
O472 O 0.086 0.69783 0.78642 0.0
O473 O 0.10798 0.71029 0.7895 0.0
O474 O 0.09138 0.66495 0.81624 0.0
O475 O 0.10196 0.6871 0.81399 0.0
Co476 Co 0.32168 0.07707 0.80792 0.0
O477 O 0.31702 0.05827 0.81775 0.0
O478 O 0.33108 0.06064 0.79726 0.0
C479 C 0.32716 0.09019 0.829 0.0
O480 O 0.32963 0.09409 0.79494 0.0
Co481 Co 0.30334 0.10619 0.81354 0.0
O482 O 0.31967 0.11622 0.80192 0.0
C483 C 0.2907 0.08232 0.79422 0.0
C484 C 0.32498 0.0519 0.80727 0.0
C485 C 0.32886 0.1085 0.79405 0.0
O486 O 0.30332 0.0752 0.79462 0.0
O487 O 0.28802 0.09408 0.80212 0.0
O488 O 0.33727 0.08153 0.82292 0.0
O489 O 0.31397 0.08967 0.82298 0.0
Co490 Co 0.91605 0.32378 0.80308 0.0
O491 O 0.93432 0.31784 0.81317 0.0
O492 O 0.93328 0.33284 0.79328 0.0
C493 C 0.90312 0.32884 0.82437 0.0
O494 O 0.89957 0.33311 0.79 0.0
Co495 Co 0.88576 0.30717 0.80753 0.0
O496 O 0.87686 0.32496 0.79743 0.0
C497 C 0.90868 0.29447 0.78688 0.0
C498 C 0.9414 0.326 0.80335 0.0
C499 C 0.88509 0.33363 0.78952 0.0
O500 O 0.91743 0.30579 0.78919 0.0
O501 O 0.89605 0.2927 0.79359 0.0
O502 O 0.91209 0.33891 0.81869 0.0
O503 O 0.9029 0.31599 0.81765 0.0
Co504 Co 0.67881 0.08096 0.19722 0.0
O505 O 0.68523 0.06308 0.1866 0.0
O506 O 0.66953 0.0634 0.20599 0.0
C507 C 0.6742 0.09556 0.17686 0.0
O508 O 0.66905 0.09674 0.21066 0.0
Co509 Co 0.69672 0.11099 0.19506 0.0
O510 O 0.67946 0.11942 0.20653 0.0
C511 C 0.70878 0.086 0.21307 0.0
C512 C 0.67689 0.05563 0.19602 0.0
C513 C 0.66966 0.11105 0.21284 0.0
O514 O 0.69618 0.07896 0.21181 0.0
O515 O 0.71178 0.09813 0.2059 0.0
O516 O 0.66431 0.08566 0.18114 0.0
O517 O 0.68688 0.09512 0.18389 0.0
Co518 Co 0.91449 0.68356 0.20103 0.0
O519 O 0.93215 0.69058 0.19042 0.0
O520 O 0.93245 0.67545 0.21024 0.0
C521 C 0.90075 0.67765 0.18038 0.0
O522 O 0.89902 0.6732 0.21455 0.0
Co523 Co 0.88324 0.69891 0.19796 0.0
O524 O 0.87571 0.68057 0.20814 0.0
C525 C 0.90638 0.71261 0.21756 0.0
C526 C 0.93993 0.6828 0.20004 0.0
C527 C 0.88459 0.67209 0.21553 0.0
O528 O 0.91536 0.70152 0.21504 0.0
O529 O 0.89349 0.71397 0.21127 0.0
O530 O 0.91095 0.66838 0.18533 0.0
O531 O 0.90016 0.69048 0.18715 0.0
Co532 Co 0.31958 0.92236 0.19443 0.0
O533 O 0.31178 0.94034 0.18503 0.0
O534 O 0.32944 0.93988 0.20265 0.0
C535 C 0.32284 0.90852 0.1733 0.0
O536 O 0.33059 0.90635 0.20663 0.0
Co537 Co 0.30206 0.89202 0.19255 0.0
O538 O 0.32011 0.88362 0.20275 0.0
C539 C 0.29065 0.91666 0.21151 0.0
C540 C 0.32097 0.94773 0.19367 0.0
C541 C 0.33021 0.89198 0.20857 0.0
O542 O 0.3033 0.92361 0.21027 0.0
O543 O 0.28737 0.90483 0.20397 0.0
O544 O 0.33285 0.91847 0.17714 0.0
O545 O 0.31074 0.90845 0.1813 0.0
Co546 Co 0.084 0.32339 0.19799 0.0
O547 O 0.06585 0.31646 0.18837 0.0
O548 O 0.06672 0.3332 0.20687 0.0
C549 C 0.09731 0.32729 0.17666 0.0
O550 O 0.10029 0.33351 0.21054 0.0
Co551 Co 0.11403 0.30596 0.19485 0.0
O552 O 0.12294 0.3235 0.20554 0.0
C553 C 0.08964 0.29368 0.21372 0.0
C554 C 0.05868 0.32533 0.19751 0.0
C555 C 0.11468 0.3332 0.21214 0.0
O556 O 0.08256 0.3063 0.21294 0.0
O557 O 0.10151 0.29081 0.20607 0.0
O558 O 0.08807 0.33754 0.18152 0.0
O559 O 0.09733 0.31481 0.18405 0.0
Co560 Co 0.80427 0.68096 0.91839 0.0
O561 O 0.81385 0.6886 0.93637 0.0
O562 O 0.79604 0.67115 0.93596 0.0
C563 C 0.82541 0.67749 0.90455 0.0
O564 O 0.79179 0.67012 0.90247 0.0
Co565 Co 0.80619 0.69814 0.8879 0.0
O566 O 0.79609 0.68 0.87956 0.0
C567 C 0.787 0.7098 0.91238 0.0
C568 C 0.80518 0.67946 0.94379 0.0
C569 C 0.78995 0.67025 0.8881 0.0
O570 O 0.78859 0.6974 0.91971 0.0
O571 O 0.79431 0.71284 0.90033 0.0
O572 O 0.82139 0.6675 0.91446 0.0
O573 O 0.81749 0.68965 0.90441 0.0
Co574 Co 0.804 0.32003 0.08182 0.0
O575 O 0.81347 0.31037 0.06472 0.0
O576 O 0.79655 0.32864 0.06336 0.0
C577 C 0.82509 0.32371 0.0957 0.0
O578 O 0.79186 0.3331 0.09632 0.0
Co579 Co 0.80446 0.30652 0.11412 0.0
O580 O 0.79606 0.32623 0.12026 0.0
C581 C 0.78372 0.29401 0.09123 0.0
C582 C 0.80541 0.31933 0.05642 0.0
C583 C 0.79024 0.33506 0.11058 0.0
O584 O 0.78757 0.30422 0.08167 0.0
O585 O 0.78973 0.29262 0.10425 0.0
O586 O 0.82171 0.33292 0.08485 0.0
O587 O 0.81652 0.31204 0.09688 0.0
Co588 Co 0.68162 0.80252 0.08234 0.0
O589 O 0.68818 0.81326 0.06459 0.0
O590 O 0.67269 0.79372 0.06456 0.0
C591 C 0.67663 0.82295 0.09673 0.0
O592 O 0.67177 0.78899 0.09807 0.0
Co593 Co 0.69915 0.80506 0.11259 0.0
O594 O 0.68194 0.79338 0.12083 0.0
C595 C 0.71189 0.78749 0.08761 0.0
C596 C 0.68001 0.80385 0.05695 0.0
C597 C 0.67226 0.78693 0.11242 0.0
O598 O 0.69925 0.78822 0.08059 0.0
O599 O 0.71464 0.79482 0.09971 0.0
O600 O 0.66688 0.81848 0.08676 0.0
O601 O 0.68936 0.816 0.09654 0.0
Co602 Co 0.19629 0.68017 0.08487 0.0
O603 O 0.18682 0.68697 0.06652 0.0
O604 O 0.205 0.66995 0.06774 0.0
C605 C 0.17504 0.67673 0.09852 0.0
O606 O 0.20871 0.67016 0.10138 0.0
Co607 Co 0.19349 0.69854 0.11462 0.0
O608 O 0.2042 0.68115 0.12375 0.0
C609 C 0.21254 0.70974 0.0899 0.0
C610 C 0.19579 0.67779 0.05951 0.0
C611 C 0.21052 0.67105 0.11575 0.0
O612 O 0.2116 0.69692 0.08321 0.0
O613 O 0.20485 0.71312 0.10161 0.0
O614 O 0.1794 0.66648 0.08902 0.0
O615 O 0.18269 0.68906 0.09831 0.0
Co616 Co 0.32106 0.19411 0.07943 0.0
O617 O 0.31432 0.18459 0.06115 0.0
O618 O 0.33083 0.20327 0.06227 0.0
C619 C 0.32522 0.17283 0.0927 0.0
O620 O 0.33088 0.20659 0.09598 0.0
Co621 Co 0.30324 0.19034 0.10926 0.0
O622 O 0.32079 0.2008 0.11844 0.0
C623 C 0.29127 0.20977 0.08515 0.0
C624 C 0.32308 0.19392 0.0541 0.0
C625 C 0.33045 0.20775 0.11042 0.0
O626 O 0.30388 0.20894 0.07807 0.0
O627 O 0.28829 0.20198 0.09691 0.0
O628 O 0.33541 0.17781 0.08346 0.0
O629 O 0.3126 0.17999 0.09259 0.0
Co630 Co 0.19712 0.31918 0.92031 0.0
O631 O 0.18748 0.3114 0.9382 0.0
O632 O 0.20549 0.32863 0.93805 0.0
C633 C 0.17603 0.32314 0.90653 0.0
O634 O 0.20968 0.33008 0.90446 0.0
Co635 Co 0.19484 0.30218 0.88972 0.0
O636 O 0.2055 0.32007 0.88157 0.0
C637 C 0.21378 0.29004 0.91408 0.0
C638 C 0.19626 0.32031 0.94576 0.0
C639 C 0.21165 0.32985 0.89009 0.0
O640 O 0.21259 0.30251 0.92137 0.0
O641 O 0.20626 0.28712 0.90214 0.0
O642 O 0.18016 0.33292 0.91659 0.0
O643 O 0.18376 0.31086 0.90627 0.0
Co644 Co 0.67878 0.19469 0.92196 0.0
O645 O 0.68467 0.18564 0.94077 0.0
O646 O 0.66845 0.20447 0.93842 0.0
C647 C 0.67491 0.17311 0.90912 0.0
O648 O 0.66966 0.2068 0.90482 0.0
Co649 Co 0.69737 0.19006 0.89276 0.0
O650 O 0.68033 0.20061 0.88276 0.0
C651 C 0.70895 0.20972 0.91689 0.0
C652 C 0.67573 0.19528 0.94717 0.0
C653 C 0.67049 0.20775 0.89039 0.0
O654 O 0.69609 0.20935 0.92355 0.0
O655 O 0.71215 0.20159 0.90542 0.0
O656 O 0.66442 0.17843 0.91783 0.0
O657 O 0.68757 0.18017 0.90947 0.0
Co658 Co 0.31603 0.80282 0.91784 0.0
O659 O 0.30945 0.81315 0.93575 0.0
O660 O 0.32422 0.79303 0.93542 0.0
C661 C 0.32202 0.82374 0.90482 0.0
O662 O 0.32598 0.7895 0.90204 0.0
Co663 Co 0.30089 0.80693 0.88677 0.0
O664 O 0.3191 0.79672 0.87886 0.0
C665 C 0.28688 0.78687 0.9094 0.0
C666 C 0.31718 0.80323 0.94319 0.0
C667 C 0.32732 0.7889 0.88764 0.0
O668 O 0.29785 0.78918 0.91858 0.0
O669 O 0.28575 0.79337 0.89659 0.0
O670 O 0.33154 0.81811 0.91439 0.0
O671 O 0.30905 0.81727 0.90413 0.0
Co672 Co 0.57969 0.69625 0.82157 0.0
O673 O 0.5621 0.68569 0.8143 0.0
O674 O 0.56177 0.7047 0.83046 0.0
C675 C 0.59416 0.67577 0.82612 0.0
O676 O 0.59504 0.70957 0.83217 0.0
Co677 Co 0.6104 0.69457 0.80475 0.0
O678 O 0.61808 0.7061 0.82233 0.0
C679 C 0.58568 0.7126 0.79212 0.0
C680 C 0.55431 0.69486 0.82263 0.0
C681 C 0.6093 0.71207 0.83199 0.0
O682 O 0.57823 0.71119 0.80447 0.0
O683 O 0.59791 0.70548 0.78942 0.0
O684 O 0.58396 0.67981 0.83582 0.0
O685 O 0.59417 0.68317 0.81365 0.0
Co686 Co 0.30065 0.58242 0.82397 0.0
O687 O 0.31089 0.5638 0.81964 0.0
O688 O 0.29073 0.56594 0.83419 0.0
C689 C 0.32166 0.59598 0.82836 0.0
O690 O 0.28745 0.59951 0.83165 0.0
Co691 Co 0.30526 0.61087 0.80437 0.0
O692 O 0.29387 0.62131 0.8206 0.0
C693 C 0.28681 0.58581 0.79294 0.0
C694 C 0.30089 0.55734 0.8281 0.0
C695 C 0.28634 0.61389 0.8303 0.0
O696 O 0.28703 0.57956 0.806 0.0
O697 O 0.29455 0.59748 0.78959 0.0
O698 O 0.31596 0.58771 0.839 0.0
O699 O 0.31525 0.59496 0.81539 0.0
Co700 Co 0.42218 0.30761 0.82083 0.0
O701 O 0.43996 0.31718 0.81277 0.0
O702 O 0.43992 0.29953 0.83042 0.0
C703 C 0.40814 0.32858 0.82441 0.0
O704 O 0.4065 0.29524 0.83207 0.0
Co705 Co 0.39158 0.30921 0.80377 0.0
O706 O 0.3836 0.29883 0.8219 0.0
C707 C 0.41601 0.29012 0.79214 0.0
C708 C 0.44757 0.30858 0.82184 0.0
C709 C 0.39217 0.2931 0.83188 0.0
O710 O 0.4233 0.29172 0.80455 0.0
O711 O 0.40404 0.2975 0.789 0.0
O712 O 0.41833 0.32483 0.83421 0.0
O713 O 0.40799 0.32063 0.81227 0.0
Co714 Co 0.69641 0.41946 0.82145 0.0
O715 O 0.68659 0.43787 0.81544 0.0
O716 O 0.70669 0.43651 0.83016 0.0
C717 C 0.67513 0.40682 0.82709 0.0
O718 O 0.70927 0.40301 0.83093 0.0
Co719 Co 0.69142 0.38891 0.80548 0.0
O720 O 0.70134 0.38023 0.8235 0.0
C721 C 0.71225 0.41128 0.79212 0.0
C722 C 0.69671 0.44478 0.8234 0.0
C723 C 0.70942 0.38856 0.83192 0.0
O724 O 0.71009 0.42032 0.80325 0.0
O725 O 0.70543 0.39866 0.79071 0.0
O726 O 0.68103 0.41596 0.83688 0.0
O727 O 0.68158 0.40635 0.8141 0.0
Co728 Co 0.58126 0.30587 0.18064 0.0
O729 O 0.56239 0.31553 0.18532 0.0
O730 O 0.5649 0.29536 0.17086 0.0
C731 C 0.59417 0.32727 0.17585 0.0
O732 O 0.59853 0.29308 0.17269 0.0
Co733 Co 0.61006 0.31139 0.19951 0.0
O734 O 0.62043 0.30006 0.18319 0.0
C735 C 0.58613 0.29167 0.21142 0.0
C736 C 0.55608 0.30522 0.17711 0.0
C737 C 0.61295 0.29225 0.17376 0.0
O738 O 0.57923 0.29221 0.1987 0.0
O739 O 0.59778 0.29961 0.21442 0.0
O740 O 0.58579 0.32128 0.16545 0.0
O741 O 0.5936 0.32087 0.18886 0.0
Co742 Co 0.69844 0.58409 0.18442 0.0
O743 O 0.68785 0.56654 0.19181 0.0
O744 O 0.70706 0.56601 0.17594 0.0
C745 C 0.67778 0.5982 0.17937 0.0
O746 O 0.71182 0.59935 0.17358 0.0
Co747 Co 0.69642 0.61543 0.19981 0.0
O748 O 0.70623 0.62279 0.18118 0.0
C749 C 0.71616 0.59196 0.2128 0.0
C750 C 0.69708 0.55864 0.18367 0.0
C751 C 0.71314 0.61375 0.17246 0.0
O752 O 0.7131 0.58297 0.20184 0.0
O753 O 0.71009 0.60494 0.21435 0.0
O754 O 0.68222 0.58797 0.16987 0.0
O755 O 0.68508 0.59861 0.1919 0.0
Co756 Co 0.4185 0.69991 0.17987 0.0
O757 O 0.43592 0.69037 0.18884 0.0
O758 O 0.43668 0.70763 0.17085 0.0
C759 C 0.40465 0.67881 0.17623 0.0
O760 O 0.40347 0.71222 0.16758 0.0
Co761 Co 0.38671 0.69886 0.1946 0.0
O762 O 0.37984 0.70768 0.17533 0.0
C763 C 0.40978 0.71979 0.20643 0.0
C764 C 0.44393 0.69865 0.17982 0.0
C765 C 0.38912 0.71377 0.16627 0.0
O766 O 0.41906 0.71607 0.19593 0.0
O767 O 0.39687 0.71366 0.20821 0.0
O768 O 0.41518 0.68241 0.16675 0.0
O769 O 0.40382 0.68713 0.1881 0.0
Co770 Co 0.30815 0.42018 0.17958 0.0
O771 O 0.31753 0.4386 0.18615 0.0
O772 O 0.29911 0.43712 0.16937 0.0
C773 C 0.32949 0.40685 0.17599 0.0
O774 O 0.29584 0.40359 0.16974 0.0
Co775 Co 0.31141 0.39053 0.19767 0.0
O776 O 0.30111 0.38116 0.18012 0.0
C777 C 0.29203 0.41491 0.20919 0.0
C778 C 0.30831 0.44545 0.17712 0.0
C779 C 0.29448 0.38918 0.17024 0.0
O780 O 0.29306 0.42184 0.19651 0.0
O781 O 0.29968 0.40311 0.21238 0.0
O782 O 0.32467 0.41593 0.16557 0.0
O783 O 0.32211 0.4071 0.18848 0.0
Co784 Co 0.82232 0.58684 0.6992 0.0
O785 O 0.81349 0.56926 0.68982 0.0
O786 O 0.83147 0.56877 0.70708 0.0
C787 C 0.82574 0.60041 0.67786 0.0
O788 O 0.83451 0.60207 0.71142 0.0
Co789 Co 0.80757 0.61859 0.6979 0.0
O790 O 0.8267 0.62567 0.70685 0.0
C791 C 0.79555 0.59548 0.71876 0.0
C792 C 0.82257 0.56137 0.69816 0.0
C793 C 0.83576 0.61643 0.713 0.0
O794 O 0.80624 0.58631 0.71531 0.0
O795 O 0.79375 0.60834 0.71249 0.0
O796 O 0.83537 0.59006 0.68163 0.0
O797 O 0.81394 0.60135 0.68627 0.0
Co798 Co 0.4242 0.81994 0.69508 0.0
O799 O 0.44291 0.815 0.68529 0.0
O800 O 0.44076 0.82937 0.70558 0.0
C801 C 0.41124 0.82519 0.67387 0.0
O802 O 0.40712 0.82812 0.70794 0.0
Co803 Co 0.39504 0.80162 0.68944 0.0
O804 O 0.38504 0.81858 0.70015 0.0
C805 C 0.41872 0.78922 0.7092 0.0
C806 C 0.44941 0.82305 0.6956 0.0
C807 C 0.39266 0.82765 0.70825 0.0
O808 O 0.42594 0.80176 0.7086 0.0
O809 O 0.40696 0.78649 0.70132 0.0
O810 O 0.41987 0.83537 0.67987 0.0
O811 O 0.41166 0.81209 0.68009 0.0
Co812 Co 0.18134 0.41553 0.69968 0.0
O813 O 0.1893 0.43294 0.68932 0.0
O814 O 0.17332 0.43375 0.70844 0.0
C815 C 0.17609 0.40193 0.67876 0.0
O816 O 0.17007 0.40043 0.71289 0.0
Co817 Co 0.19586 0.38375 0.6973 0.0
O818 O 0.17729 0.37681 0.70747 0.0
C819 C 0.20928 0.40662 0.71751 0.0
C820 C 0.18129 0.44098 0.69855 0.0
C821 C 0.16878 0.38606 0.71436 0.0
O822 O 0.19862 0.41595 0.71448 0.0
O823 O 0.21055 0.3937 0.71124 0.0
O824 O 0.16685 0.41235 0.68326 0.0
O825 O 0.18852 0.40095 0.68618 0.0
Co826 Co 0.57745 0.18069 0.69554 0.0
O827 O 0.55885 0.18585 0.68559 0.0
O828 O 0.5607 0.17129 0.70577 0.0
C829 C 0.59067 0.1756 0.67443 0.0
O830 O 0.5943 0.17222 0.70853 0.0
Co831 Co 0.60683 0.19884 0.69049 0.0
O832 O 0.61655 0.18206 0.70172 0.0
C833 C 0.58273 0.21146 0.70951 0.0
C834 C 0.55219 0.17778 0.69579 0.0
C835 C 0.60874 0.17279 0.7094 0.0
O836 O 0.57568 0.19881 0.70916 0.0
O837 O 0.59449 0.21417 0.70164 0.0
O838 O 0.5819 0.16539 0.68018 0.0
O839 O 0.59024 0.18861 0.68082 0.0
Co840 Co 0.82236 0.41474 0.30248 0.0
O841 O 0.81564 0.433 0.31213 0.0
O842 O 0.83268 0.43188 0.29395 0.0
C843 C 0.82573 0.40092 0.32361 0.0
O844 O 0.83228 0.39827 0.28994 0.0
Co845 Co 0.80378 0.38515 0.30497 0.0
O846 O 0.8212 0.37595 0.2944 0.0
C847 C 0.79288 0.41006 0.28593 0.0
C848 C 0.82485 0.44004 0.30323 0.0
C849 C 0.83133 0.38391 0.28811 0.0
O850 O 0.80568 0.4167 0.28716 0.0
O851 O 0.78939 0.39823 0.2934 0.0
O852 O 0.83602 0.41038 0.31931 0.0
O853 O 0.81338 0.40125 0.31598 0.0
Co854 Co 0.58143 0.8211 0.30455 0.0
O855 O 0.56301 0.81479 0.31412 0.0
O856 O 0.56447 0.83095 0.29516 0.0
C857 C 0.59459 0.82548 0.32588 0.0
O858 O 0.59802 0.83056 0.29192 0.0
Co859 Co 0.61117 0.80333 0.3086 0.0
O860 O 0.62048 0.82039 0.29747 0.0
C861 C 0.58699 0.79097 0.28951 0.0
C862 C 0.55615 0.82356 0.30466 0.0
C863 C 0.61242 0.82999 0.29048 0.0
O864 O 0.57995 0.80363 0.29003 0.0
O865 O 0.59873 0.78812 0.29737 0.0
O866 O 0.58553 0.83568 0.32062 0.0
O867 O 0.59448 0.81275 0.3189 0.0
Co868 Co 0.18025 0.58675 0.30302 0.0
O869 O 0.18813 0.56925 0.3134 0.0
O870 O 0.17212 0.5686 0.2943 0.0
C871 C 0.1751 0.60066 0.32381 0.0
O872 O 0.16893 0.60175 0.28976 0.0
Co873 Co 0.19483 0.61849 0.30492 0.0
O874 O 0.17624 0.62542 0.29475 0.0
C875 C 0.20833 0.59532 0.28518 0.0
C876 C 0.18013 0.56128 0.30409 0.0
C877 C 0.16762 0.6161 0.2881 0.0
O878 O 0.19757 0.58611 0.28822 0.0
O879 O 0.20961 0.60832 0.29127 0.0
O880 O 0.16582 0.5902 0.31948 0.0
O881 O 0.18752 0.60145 0.31635 0.0
Co882 Co 0.42049 0.18215 0.30938 0.0
O883 O 0.43858 0.18956 0.31889 0.0
O884 O 0.43799 0.17382 0.29954 0.0
C885 C 0.40802 0.17699 0.33094 0.0
O886 O 0.40453 0.17137 0.29692 0.0
Co887 Co 0.38924 0.19701 0.31367 0.0
O888 O 0.38136 0.17855 0.30388 0.0
C889 C 0.41093 0.2101 0.29195 0.0
C890 C 0.44591 0.18153 0.30912 0.0
C891 C 0.39012 0.17008 0.29633 0.0
O892 O 0.42051 0.19958 0.29475 0.0
O893 O 0.39831 0.21136 0.2988 0.0
O894 O 0.41765 0.16737 0.32556 0.0
O895 O 0.407 0.18959 0.32385 0.0
Co896 Co 0.69782 0.82139 0.58102 0.0
O897 O 0.68877 0.81385 0.56277 0.0
O898 O 0.70692 0.83093 0.56368 0.0
C899 C 0.67612 0.82528 0.59362 0.0
O900 O 0.70978 0.83225 0.5974 0.0
Co901 Co 0.69411 0.80528 0.61177 0.0
O902 O 0.70267 0.82407 0.62023 0.0
C903 C 0.71579 0.79344 0.58933 0.0
C904 C 0.69786 0.82276 0.5556 0.0
C905 C 0.71 0.83313 0.61188 0.0
O906 O 0.71309 0.80453 0.5804 0.0
O907 O 0.70892 0.79145 0.60185 0.0
O908 O 0.68106 0.83536 0.58425 0.0
O909 O 0.6837 0.81293 0.59426 0.0
Co910 Co 0.69427 0.18318 0.4244 0.0
O911 O 0.68423 0.18914 0.44269 0.0
O912 O 0.70381 0.1737 0.44146 0.0
C913 C 0.6732 0.17872 0.41093 0.0
O914 O 0.70719 0.17383 0.40797 0.0
Co915 Co 0.69062 0.20096 0.39464 0.0
O916 O 0.70139 0.1836 0.38542 0.0
C917 C 0.70972 0.2132 0.41887 0.0
C918 C 0.69397 0.18078 0.44966 0.0
C919 C 0.70845 0.17412 0.39356 0.0
O920 O 0.70861 0.20073 0.42614 0.0
O921 O 0.70228 0.21603 0.40685 0.0
O922 O 0.67839 0.16846 0.42 0.0
O923 O 0.68011 0.19147 0.41118 0.0
Co924 Co 0.82146 0.6985 0.41345 0.0
O925 O 0.81472 0.68787 0.4312 0.0
O926 O 0.8296 0.70788 0.4313 0.0
C927 C 0.82751 0.67784 0.3998 0.0
O928 O 0.83142 0.71213 0.39785 0.0
Co929 Co 0.80595 0.69495 0.38225 0.0
O930 O 0.82375 0.70594 0.37456 0.0
C931 C 0.7924 0.71487 0.40527 0.0
C932 C 0.82247 0.69761 0.43888 0.0
C933 C 0.83216 0.71343 0.38342 0.0
O934 O 0.80341 0.71233 0.41435 0.0
O935 O 0.79105 0.70849 0.39243 0.0
O936 O 0.8368 0.68295 0.40989 0.0
O937 O 0.81461 0.68446 0.39924 0.0
Co938 Co 0.30774 0.82049 0.42106 0.0
O939 O 0.31809 0.81528 0.43939 0.0
O940 O 0.29773 0.82966 0.43802 0.0
C941 C 0.3285 0.82602 0.40749 0.0
O942 O 0.2944 0.82904 0.40457 0.0
Co943 Co 0.31226 0.80261 0.3915 0.0
O944 O 0.30079 0.81942 0.38211 0.0
C945 C 0.29381 0.78963 0.41582 0.0
C946 C 0.30797 0.82326 0.44628 0.0
C947 C 0.29327 0.82863 0.39014 0.0
O948 O 0.29431 0.80222 0.42296 0.0
O949 O 0.30139 0.78705 0.40383 0.0
O950 O 0.32277 0.83601 0.41653 0.0
O951 O 0.32234 0.81288 0.40788 0.0
Co952 Co 0.17993 0.30411 0.41366 0.0
O953 O 0.18781 0.31455 0.43106 0.0
O954 O 0.17137 0.29582 0.4318 0.0
C955 C 0.17537 0.32487 0.39958 0.0
O956 O 0.1686 0.2909 0.39865 0.0
Co957 Co 0.19491 0.30551 0.38206 0.0
O958 O 0.17631 0.29544 0.37503 0.0
C959 C 0.2075 0.28537 0.40545 0.0
C960 C 0.17944 0.30561 0.43906 0.0
C961 C 0.1675 0.28902 0.38432 0.0
O962 O 0.19685 0.2889 0.41463 0.0
O963 O 0.20906 0.29133 0.39242 0.0
O964 O 0.16587 0.32079 0.40994 0.0
O965 O 0.18764 0.31716 0.39894 0.0
Co966 Co 0.30177 0.1813 0.58378 0.0
O967 O 0.31191 0.1875 0.5656 0.0
O968 O 0.29197 0.17256 0.56642 0.0
C969 C 0.32293 0.17593 0.59679 0.0
O970 O 0.28865 0.17166 0.6 0.0
Co971 Co 0.30606 0.19734 0.61442 0.0
O972 O 0.29598 0.17933 0.62291 0.0
C973 C 0.28572 0.2106 0.59155 0.0
C974 C 0.30204 0.1795 0.5584 0.0
C975 C 0.28814 0.1708 0.61446 0.0
O976 O 0.28794 0.19936 0.58267 0.0
O977 O 0.2924 0.21213 0.60423 0.0
O978 O 0.31731 0.16606 0.58756 0.0
O979 O 0.31626 0.18881 0.59717 0.0
Co980 Co 0.8234 0.30399 0.58624 0.0
O981 O 0.81661 0.31441 0.56835 0.0
O982 O 0.8324 0.29511 0.56853 0.0
C983 C 0.82806 0.32469 0.60042 0.0
O984 O 0.83353 0.29071 0.602 0.0
Co985 Co 0.80626 0.30643 0.61669 0.0
O986 O 0.82376 0.29516 0.62491 0.0
C987 C 0.79354 0.28833 0.59202 0.0
C988 C 0.82489 0.305 0.56081 0.0
C989 C 0.8333 0.2887 0.61636 0.0
O990 O 0.80601 0.28936 0.58472 0.0
O991 O 0.79087 0.29562 0.60415 0.0
O992 O 0.83786 0.32027 0.59048 0.0
O993 O 0.81549 0.31747 0.60038 0.0
Co994 Co 0.18047 0.69981 0.58533 0.0
O995 O 0.18959 0.69072 0.56776 0.0
O996 O 0.17149 0.70785 0.56721 0.0
C997 C 0.17703 0.67827 0.59857 0.0
O998 O 0.16805 0.71171 0.60067 0.0
Co999 Co 0.1951 0.69807 0.61713 0.0
O1000 O 0.17575 0.70652 0.6242 0.0
C1001 C 0.20692 0.71958 0.59456 0.0
C1002 C 0.18058 0.69908 0.55983 0.0
C1003 C 0.1667 0.71286 0.61508 0.0
O1004 O 0.19641 0.71607 0.58521 0.0
O1005 O 0.2087 0.71315 0.60733 0.0
O1006 O 0.1675 0.68213 0.58817 0.0
O1007 O 0.18878 0.68671 0.59971 0.0
Co1008 Co 0.41735 0.30077 0.17965 0.0
O1009 O 0.43534 0.3106 0.18686 0.0
O1010 O 0.43485 0.2922 0.17002 0.0
C1011 C 0.40354 0.32179 0.17559 0.0
O1012 O 0.40132 0.28804 0.16925 0.0
Co1013 Co 0.38705 0.3033 0.19706 0.0
O1014 O 0.37857 0.29248 0.17941 0.0
C1015 C 0.41197 0.28534 0.20949 0.0
C1016 C 0.44271 0.30163 0.17796 0.0
C1017 C 0.38695 0.28618 0.16961 0.0
O1018 O 0.41878 0.28575 0.1967 0.0
O1019 O 0.40011 0.29299 0.21237 0.0
O1020 O 0.41336 0.31744 0.16566 0.0
O1021 O 0.40348 0.31427 0.188 0.0
Co1022 Co 0.69624 0.41956 0.17919 0.0
O1023 O 0.68709 0.43667 0.18915 0.0
O1024 O 0.70358 0.43807 0.1705 0.0
C1025 C 0.675 0.40577 0.17596 0.0
O1026 O 0.70802 0.40498 0.16587 0.0
Co1027 Co 0.69581 0.38726 0.1928 0.0
O1028 O 0.70372 0.38109 0.17292 0.0
C1029 C 0.71717 0.40995 0.20461 0.0
C1030 C 0.69501 0.445 0.18009 0.0
C1031 C 0.70947 0.39068 0.16395 0.0
O1032 O 0.71306 0.41958 0.19458 0.0
O1033 O 0.71109 0.39698 0.20618 0.0
O1034 O 0.67819 0.41664 0.1667 0.0
O1035 O 0.68382 0.40457 0.18743 0.0
Co1036 Co 0.583 0.696 0.18122 0.0
O1037 O 0.56477 0.68634 0.1881 0.0
O1038 O 0.5656 0.70605 0.17285 0.0
C1039 C 0.5955 0.67456 0.17573 0.0
O1040 O 0.59922 0.70864 0.17097 0.0
Co1041 Co 0.61392 0.69132 0.19661 0.0
O1042 O 0.62214 0.70089 0.1782 0.0
C1043 C 0.59193 0.71255 0.20994 0.0
C1044 C 0.55755 0.69629 0.1802 0.0
C1045 C 0.61366 0.70879 0.16975 0.0
O1046 O 0.58267 0.71016 0.19906 0.0
O1047 O 0.60453 0.70569 0.21129 0.0
O1048 O 0.58604 0.68017 0.1661 0.0
O1049 O 0.59634 0.68133 0.18853 0.0
Co1050 Co 0.30576 0.58391 0.18044 0.0
O1051 O 0.31609 0.5655 0.18545 0.0
O1052 O 0.296 0.56707 0.17073 0.0
C1053 C 0.32672 0.5975 0.1757 0.0
O1054 O 0.29242 0.60051 0.17205 0.0
Co1055 Co 0.3099 0.61325 0.19876 0.0
O1056 O 0.29835 0.62289 0.18215 0.0
C1057 C 0.29116 0.58871 0.21101 0.0
C1058 C 0.30617 0.55873 0.17714 0.0
C1059 C 0.29098 0.6149 0.17279 0.0
O1060 O 0.292 0.58163 0.1984 0.0
O1061 O 0.29863 0.60071 0.21384 0.0
O1062 O 0.32114 0.58879 0.16534 0.0
O1063 O 0.32019 0.59693 0.18863 0.0
Co1064 Co 0.41541 0.69638 0.81936 0.0
O1065 O 0.4331 0.68656 0.81136 0.0
O1066 O 0.43324 0.70429 0.82893 0.0
C1067 C 0.40133 0.67547 0.82303 0.0
O1068 O 0.39982 0.70895 0.8307 0.0
Co1069 Co 0.38443 0.69504 0.80308 0.0
O1070 O 0.37664 0.70366 0.82209 0.0
C1071 C 0.40817 0.71539 0.7917 0.0
C1072 C 0.44078 0.69505 0.82046 0.0
C1073 C 0.38538 0.71009 0.83146 0.0
O1074 O 0.41675 0.71206 0.80289 0.0
O1075 O 0.39534 0.70926 0.78941 0.0
O1076 O 0.41148 0.67933 0.83283 0.0
O1077 O 0.40109 0.68339 0.81085 0.0
Co1078 Co 0.30466 0.41888 0.82486 0.0
O1079 O 0.31345 0.43763 0.81838 0.0
O1080 O 0.29508 0.43549 0.83514 0.0
C1081 C 0.32656 0.4064 0.82827 0.0
O1082 O 0.29278 0.40191 0.83463 0.0
Co1083 Co 0.30887 0.38925 0.80698 0.0
O1084 O 0.2983 0.37957 0.82419 0.0
C1085 C 0.2891 0.41318 0.79515 0.0
C1086 C 0.30402 0.44415 0.82746 0.0
C1087 C 0.29148 0.3875 0.83402 0.0
O1088 O 0.28959 0.42007 0.80788 0.0
O1089 O 0.29721 0.40166 0.79208 0.0
O1090 O 0.32138 0.41514 0.83881 0.0
O1091 O 0.31904 0.40632 0.81587 0.0
Co1092 Co 0.58641 0.30294 0.82025 0.0
O1093 O 0.56897 0.31401 0.81344 0.0
O1094 O 0.56834 0.29415 0.82851 0.0
C1095 C 0.60069 0.32321 0.82606 0.0
O1096 O 0.60165 0.28899 0.83035 0.0
Co1097 Co 0.61756 0.30533 0.80452 0.0
O1098 O 0.62504 0.29473 0.82266 0.0
C1099 C 0.59377 0.28635 0.79107 0.0
C1100 C 0.56104 0.30454 0.82126 0.0
C1101 C 0.61606 0.28755 0.83121 0.0
O1102 O 0.585 0.28903 0.80229 0.0
O1103 O 0.60677 0.29236 0.78955 0.0
O1104 O 0.59048 0.3185 0.83543 0.0
O1105 O 0.60098 0.31646 0.8132 0.0
Co1106 Co 0.69583 0.58345 0.82172 0.0
O1107 O 0.68666 0.56504 0.81486 0.0
O1108 O 0.70497 0.56644 0.83176 0.0
C1109 C 0.67426 0.59644 0.82535 0.0
O1110 O 0.70798 0.60006 0.83176 0.0
Co1111 Co 0.69232 0.61316 0.80383 0.0
O1112 O 0.70316 0.62245 0.82107 0.0
C1113 C 0.71222 0.58923 0.79233 0.0
C1114 C 0.69589 0.55814 0.82384 0.0
C1115 C 0.70966 0.61443 0.83104 0.0
O1116 O 0.71105 0.58214 0.8049 0.0
O1117 O 0.70444 0.60094 0.78914 0.0
O1118 O 0.67918 0.58733 0.83568 0.0
O1119 O 0.68171 0.59645 0.8129 0.0
Co1120 Co 0.18326 0.42209 0.30381 0.0
O1121 O 0.19111 0.44018 0.31299 0.0
O1122 O 0.17411 0.43967 0.29476 0.0
C1123 C 0.17898 0.40941 0.32547 0.0
O1124 O 0.17219 0.406 0.29165 0.0
Co1125 Co 0.19868 0.39095 0.30754 0.0
O1126 O 0.17996 0.38293 0.29844 0.0
C1127 C 0.2109 0.41306 0.28569 0.0
C1128 C 0.18236 0.44756 0.30391 0.0
C1129 C 0.17115 0.39154 0.29112 0.0
O1130 O 0.20018 0.42239 0.28857 0.0
O1131 O 0.21256 0.40048 0.29252 0.0
O1132 O 0.16915 0.41904 0.32051 0.0
O1133 O 0.19135 0.40859 0.31794 0.0
Co1134 Co 0.58482 0.18246 0.30558 0.0
O1135 O 0.56731 0.19137 0.31495 0.0
O1136 O 0.56677 0.17341 0.29764 0.0
C1137 C 0.59838 0.1788 0.32682 0.0
O1138 O 0.60001 0.17018 0.29346 0.0
Co1139 Co 0.61652 0.19723 0.3069 0.0
O1140 O 0.62357 0.17783 0.29849 0.0
C1141 C 0.59349 0.20931 0.28607 0.0
C1142 C 0.55942 0.18233 0.30658 0.0
C1143 C 0.61438 0.16876 0.29227 0.0
O1144 O 0.58437 0.19858 0.28951 0.0
O1145 O 0.60635 0.21111 0.29232 0.0
O1146 O 0.58792 0.1693 0.32304 0.0
O1147 O 0.59934 0.1907 0.31854 0.0
Co1148 Co 0.82351 0.57852 0.30705 0.0
O1149 O 0.81902 0.55967 0.31679 0.0
O1150 O 0.83302 0.56216 0.29629 0.0
C1151 C 0.82889 0.59154 0.32821 0.0
O1152 O 0.83128 0.59582 0.2942 0.0
Co1153 Co 0.80471 0.60731 0.31307 0.0
O1154 O 0.8211 0.61765 0.30184 0.0
C1155 C 0.79233 0.58337 0.29369 0.0
C1156 C 0.82699 0.55335 0.3063 0.0
C1157 C 0.8304 0.61027 0.29377 0.0
O1158 O 0.80512 0.57655 0.2938 0.0
O1159 O 0.78949 0.59496 0.30177 0.0
O1160 O 0.83911 0.58305 0.32205 0.0
O1161 O 0.81571 0.59089 0.32221 0.0
Co1162 Co 0.41754 0.82574 0.30307 0.0
O1163 O 0.43545 0.8194 0.31361 0.0
O1164 O 0.43502 0.835 0.29413 0.0
C1165 C 0.40325 0.83036 0.32361 0.0
O1166 O 0.40164 0.83541 0.28968 0.0
Co1167 Co 0.38748 0.80796 0.30556 0.0
O1168 O 0.37892 0.82528 0.29426 0.0
C1169 C 0.41242 0.79567 0.28753 0.0
C1170 C 0.44283 0.82772 0.30412 0.0
C1171 C 0.38729 0.83492 0.28772 0.0
O1172 O 0.41947 0.80827 0.28863 0.0
O1173 O 0.40027 0.79279 0.29472 0.0
O1174 O 0.413 0.8403 0.31913 0.0
O1175 O 0.40354 0.81768 0.31656 0.0
Co1176 Co 0.18377 0.57997 0.69298 0.0
O1177 O 0.19151 0.56155 0.68438 0.0
O1178 O 0.17451 0.56279 0.70259 0.0
C1179 C 0.1796 0.59214 0.67102 0.0
O1180 O 0.17276 0.59641 0.70462 0.0
Co1181 Co 0.19945 0.61087 0.68851 0.0
O1182 O 0.18098 0.61931 0.69782 0.0
C1183 C 0.21195 0.58889 0.7103 0.0
C1184 C 0.18275 0.55454 0.69375 0.0
C1185 C 0.17194 0.61088 0.70508 0.0
O1186 O 0.20067 0.58002 0.70824 0.0
O1187 O 0.21391 0.60103 0.70278 0.0
O1188 O 0.1697 0.58268 0.67616 0.0
O1189 O 0.19196 0.59304 0.67854 0.0
Co1190 Co 0.41336 0.17938 0.70022 0.0
O1191 O 0.4311 0.18733 0.69049 0.0
O1192 O 0.43114 0.16977 0.7082 0.0
C1193 C 0.39942 0.1758 0.67921 0.0
O1194 O 0.39774 0.1681 0.71277 0.0
Co1195 Co 0.38237 0.19563 0.6988 0.0
O1196 O 0.37453 0.17683 0.70782 0.0
C1197 C 0.40605 0.20694 0.71931 0.0
C1198 C 0.43874 0.17822 0.69901 0.0
C1199 C 0.38333 0.16747 0.71418 0.0
O1200 O 0.41468 0.19579 0.71595 0.0
O1201 O 0.39325 0.20924 0.71312 0.0
O1202 O 0.4095 0.16595 0.68311 0.0
O1203 O 0.3991 0.18794 0.68719 0.0
Co1204 Co 0.81899 0.42232 0.69625 0.0
O1205 O 0.81368 0.44076 0.68604 0.0
O1206 O 0.82815 0.43934 0.70629 0.0
C1207 C 0.82439 0.40881 0.67533 0.0
O1208 O 0.82758 0.40569 0.7095 0.0
Co1209 Co 0.80103 0.3928 0.69154 0.0
O1210 O 0.81781 0.38332 0.70297 0.0
C1211 C 0.78824 0.41692 0.71039 0.0
C1212 C 0.82162 0.44767 0.69618 0.0
C1213 C 0.82705 0.39125 0.71056 0.0
O1214 O 0.8008 0.42411 0.70982 0.0
O1215 O 0.78561 0.405 0.70272 0.0
O1216 O 0.83441 0.41783 0.68104 0.0
O1217 O 0.81132 0.40921 0.68159 0.0
Co1218 Co 0.58814 0.82252 0.69944 0.0
O1219 O 0.5704 0.81439 0.68988 0.0
O1220 O 0.57039 0.83214 0.70742 0.0
C1221 C 0.60192 0.82586 0.6783 0.0
O1222 O 0.60372 0.83402 0.71182 0.0
Co1223 Co 0.61923 0.80652 0.69811 0.0
O1224 O 0.627 0.82538 0.70708 0.0
C1225 C 0.59561 0.79513 0.71864 0.0
C1226 C 0.56278 0.82356 0.69836 0.0
C1227 C 0.61812 0.83475 0.71332 0.0
O1228 O 0.58696 0.80626 0.7153 0.0
O1229 O 0.60842 0.79287 0.71245 0.0
O1230 O 0.59186 0.83575 0.68217 0.0
O1231 O 0.60237 0.81385 0.68646 0.0
Co1232 Co 0.30314 0.17835 0.41944 0.0
O1233 O 0.31258 0.18642 0.43729 0.0
O1234 O 0.29462 0.1691 0.43716 0.0
C1235 C 0.32436 0.17435 0.4059 0.0
O1236 O 0.29081 0.16711 0.40367 0.0
Co1237 Co 0.30551 0.1948 0.38858 0.0
O1238 O 0.29511 0.17667 0.38063 0.0
C1239 C 0.28673 0.20746 0.41279 0.0
C1240 C 0.30372 0.17758 0.44485 0.0
C1241 C 0.28898 0.16701 0.38929 0.0
O1242 O 0.28764 0.195 0.42014 0.0
O1243 O 0.29438 0.21016 0.40087 0.0
O1244 O 0.32021 0.16465 0.41604 0.0
O1245 O 0.31653 0.18656 0.4054 0.0
Co1246 Co 0.30633 0.82342 0.58496 0.0
O1247 O 0.31604 0.81544 0.56726 0.0
O1248 O 0.2983 0.833 0.56722 0.0
C1249 C 0.32727 0.82704 0.59897 0.0
O1250 O 0.29383 0.83461 0.60054 0.0
Co1251 Co 0.30778 0.80662 0.61565 0.0
O1252 O 0.29734 0.82475 0.62357 0.0
C1253 C 0.28898 0.79469 0.59108 0.0
C1254 C 0.30747 0.82451 0.55963 0.0
C1255 C 0.29157 0.83458 0.61484 0.0
O1256 O 0.29058 0.80706 0.58373 0.0
O1257 O 0.2962 0.79171 0.6032 0.0
O1258 O 0.32343 0.83687 0.58884 0.0
O1259 O 0.31933 0.81488 0.59919 0.0
Co1260 Co 0.18232 0.31002 0.57786 0.0
O1261 O 0.18923 0.3193 0.5595 0.0
O1262 O 0.17241 0.3009 0.56075 0.0
C1263 C 0.17843 0.3314 0.59109 0.0
O1264 O 0.17227 0.2978 0.59443 0.0
Co1265 Co 0.20019 0.31363 0.60768 0.0
O1266 O 0.18253 0.30337 0.61687 0.0
C1267 C 0.21182 0.29383 0.58373 0.0
C1268 C 0.18032 0.31005 0.55252 0.0
C1269 C 0.17272 0.29661 0.60886 0.0
O1270 O 0.19925 0.29487 0.57661 0.0
O1271 O 0.21496 0.30164 0.59543 0.0
O1272 O 0.16822 0.32657 0.58179 0.0
O1273 O 0.19095 0.32408 0.59099 0.0
Co1274 Co 0.69776 0.18066 0.58839 0.0
O1275 O 0.68798 0.18948 0.57106 0.0
O1276 O 0.70576 0.17197 0.57022 0.0
C1277 C 0.67673 0.17631 0.60207 0.0
O1278 O 0.71041 0.16857 0.60321 0.0
Co1279 Co 0.69644 0.19478 0.62035 0.0
O1280 O 0.70604 0.1758 0.62701 0.0
C1281 C 0.71697 0.20759 0.5974 0.0
C1282 C 0.69649 0.18068 0.56304 0.0
C1283 C 0.71228 0.16709 0.61749 0.0
O1284 O 0.71347 0.19713 0.58799 0.0
O1285 O 0.71087 0.20898 0.61038 0.0
O1286 O 0.6807 0.16702 0.5915 0.0
O1287 O 0.68472 0.1884 0.60315 0.0
Co1288 Co 0.81932 0.69403 0.57775 0.0
O1289 O 0.8126 0.68464 0.55936 0.0
O1290 O 0.8294 0.70303 0.56068 0.0
C1291 C 0.823 0.6727 0.59116 0.0
O1292 O 0.82921 0.70638 0.59432 0.0
Co1293 Co 0.80125 0.69069 0.60747 0.0
O1294 O 0.81877 0.70111 0.61674 0.0
C1295 C 0.78986 0.71039 0.5833 0.0
C1296 C 0.82156 0.69385 0.55241 0.0
C1297 C 0.82863 0.70779 0.60872 0.0
O1298 O 0.80244 0.70919 0.57623 0.0
O1299 O 0.78664 0.70273 0.59508 0.0
O1300 O 0.83334 0.67747 0.58196 0.0
O1301 O 0.81051 0.68007 0.59091 0.0
Co1302 Co 0.69759 0.82247 0.41665 0.0
O1303 O 0.68729 0.81603 0.43471 0.0
O1304 O 0.70684 0.8315 0.43411 0.0
C1305 C 0.67688 0.82736 0.40265 0.0
O1306 O 0.71081 0.83225 0.40067 0.0
Co1307 Co 0.69458 0.80505 0.3864 0.0
O1308 O 0.70611 0.82225 0.37791 0.0
C1309 C 0.71249 0.79221 0.4111 0.0
C1310 C 0.69694 0.82423 0.44203 0.0
C1311 C 0.71269 0.83185 0.38631 0.0
O1312 O 0.71191 0.80484 0.41817 0.0
O1313 O 0.70498 0.78952 0.3991 0.0
O1314 O 0.68154 0.83718 0.41248 0.0
O1315 O 0.68387 0.81465 0.40273 0.0
Co1316 Co 0.18408 0.69639 0.42062 0.0
O1317 O 0.19033 0.6865 0.43899 0.0
O1318 O 0.17568 0.70663 0.4379 0.0
C1319 C 0.17823 0.67509 0.40788 0.0
O1320 O 0.17445 0.70941 0.40431 0.0
Co1321 Co 0.19964 0.6914 0.38982 0.0
O1322 O 0.18176 0.70178 0.38138 0.0
C1323 C 0.21328 0.71222 0.41205 0.0
C1324 C 0.18259 0.69667 0.44608 0.0
C1325 C 0.17348 0.70985 0.38986 0.0
O1326 O 0.20231 0.71005 0.42127 0.0
O1327 O 0.21452 0.70539 0.39941 0.0
O1328 O 0.16859 0.68096 0.4172 0.0
O1329 O 0.19119 0.68156 0.40732 0.0
Co1330 Co 0.82057 0.30543 0.4217 0.0
O1331 O 0.81333 0.31466 0.44002 0.0
O1332 O 0.83029 0.2964 0.43898 0.0
C1333 C 0.8244 0.32701 0.4088 0.0
O1334 O 0.83113 0.29323 0.40529 0.0
Co1335 Co 0.80414 0.30899 0.39106 0.0
O1336 O 0.82263 0.29994 0.38247 0.0
C1337 C 0.79249 0.2875 0.41379 0.0
C1338 C 0.82228 0.30554 0.44713 0.0
C1339 C 0.83175 0.29268 0.39081 0.0
O1340 O 0.80363 0.29025 0.42265 0.0
O1341 O 0.79042 0.29425 0.40123 0.0
O1342 O 0.83457 0.32211 0.4181 0.0
O1343 O 0.81201 0.31948 0.40842 0.0
C1344 C 0.1095 0.22901 0.34863 0.0
C1345 C 0.1183 0.21758 0.34215 0.0
C1346 C 0.11614 0.24063 0.35707 0.0
C1347 C 0.13192 0.24074 0.3592 0.0
C1348 C 0.14072 0.22874 0.3535 0.0
C1349 C 0.13383 0.21735 0.345 0.0
C1350 C 0.10636 0.25322 0.36293 0.0
C1351 C 0.15756 0.22832 0.35572 0.0
C1352 C 0.15322 0.27753 0.36297 0.0
C1353 C 0.15667 0.27779 0.37837 0.0
C1354 C 0.14463 0.26585 0.35673 0.0
C1355 C 0.13945 0.25403 0.36609 0.0
C1356 C 0.14232 0.25455 0.38175 0.0
C1357 C 0.15084 0.26647 0.38773 0.0
C1358 C 0.14161 0.26585 0.34 0.0
C1359 C 0.13702 0.24215 0.39209 0.0
H1360 H 0.0975 0.22932 0.34651 0.0
H1361 H 0.14071 0.2085 0.34018 0.0
H1362 H 0.10893 0.25557 0.37492 0.0
H1363 H 0.10874 0.26367 0.35651 0.0
H1364 H 0.09418 0.25062 0.36187 0.0
H1365 H 0.16257 0.21752 0.35188 0.0
H1366 H 0.16285 0.23764 0.34931 0.0
H1367 H 0.1604 0.22999 0.36776 0.0
H1368 H 0.15755 0.28629 0.35567 0.0
H1369 H 0.15349 0.26654 0.39964 0.0
H1370 H 0.12941 0.26443 0.3378 0.0
H1371 H 0.14751 0.25622 0.33467 0.0
H1372 H 0.14546 0.27639 0.33449 0.0
H1373 H 0.12488 0.23987 0.3903 0.0
H1374 H 0.13886 0.24494 0.40414 0.0
H1375 H 0.1432 0.23162 0.38946 0.0
C1376 C 0.71926 0.1618 0.37055 0.0
C1377 C 0.71925 0.16366 0.38624 0.0
C1378 C 0.73014 0.15284 0.3634 0.0
C1379 C 0.74141 0.14567 0.37211 0.0
C1380 C 0.74121 0.14711 0.38797 0.0
C1381 C 0.7301 0.15602 0.39484 0.0
C1382 C 0.72984 0.15143 0.34647 0.0
C1383 C 0.75308 0.13974 0.39763 0.0
C1384 C 0.76413 0.11504 0.35251 0.0
C1385 C 0.77644 0.12329 0.34706 0.0
C1386 C 0.75282 0.12205 0.3611 0.0
C1387 C 0.75397 0.13759 0.36446 0.0
C1388 C 0.7668 0.14574 0.3597 0.0
C1389 C 0.77782 0.13853 0.35099 0.0
C1390 C 0.73928 0.11299 0.36592 0.0
C1391 C 0.76861 0.16227 0.36325 0.0
H1392 H 0.71086 0.16752 0.36381 0.0
H1393 H 0.73023 0.15738 0.40697 0.0
H1394 H 0.73998 0.15688 0.34162 0.0
H1395 H 0.73013 0.1394 0.34313 0.0
H1396 H 0.71971 0.15675 0.34144 0.0
H1397 H 0.7507 0.14098 0.40984 0.0
H1398 H 0.75396 0.12758 0.39493 0.0
H1399 H 0.7642 0.14488 0.39522 0.0
H1400 H 0.76294 0.1033 0.34945 0.0
H1401 H 0.78736 0.14494 0.34694 0.0
H1402 H 0.72918 0.11704 0.35979 0.0
H1403 H 0.7371 0.11456 0.37811 0.0
H1404 H 0.7407 0.10078 0.36361 0.0
H1405 H 0.75977 0.16882 0.35736 0.0
H1406 H 0.77978 0.16667 0.35978 0.0
H1407 H 0.76718 0.16425 0.3755 0.0
C1408 C 0.84598 0.72431 0.36145 0.0
C1409 C 0.84216 0.72502 0.37676 0.0
C1410 C 0.85412 0.73594 0.35454 0.0
C1411 C 0.85839 0.7487 0.36307 0.0
C1412 C 0.8549 0.74933 0.37861 0.0
C1413 C 0.84691 0.73743 0.3853 0.0
C1414 C 0.85786 0.7347 0.338 0.0
C1415 C 0.85917 0.7628 0.38805 0.0
C1416 C 0.88926 0.77329 0.34667 0.0
C1417 C 0.88094 0.78447 0.3392 0.0
C1418 C 0.88209 0.76177 0.35476 0.0
C1419 C 0.8662 0.76149 0.35556 0.0
C1420 C 0.85773 0.77301 0.3485 0.0
C1421 C 0.86519 0.78431 0.34032 0.0
C1422 C 0.89152 0.74962 0.362 0.0
C1423 C 0.84076 0.7732 0.34928 0.0
H1424 H 0.84244 0.71472 0.35479 0.0
H1425 H 0.84391 0.73812 0.3971 0.0
H1426 H 0.85213 0.74381 0.33168 0.0
H1427 H 0.87014 0.73613 0.33626 0.0
H1428 H 0.8544 0.72371 0.33315 0.0
H1429 H 0.85618 0.76129 0.40009 0.0
H1430 H 0.87144 0.76494 0.38721 0.0
H1431 H 0.85335 0.77297 0.38373 0.0
H1432 H 0.90143 0.77325 0.34585 0.0
H1433 H 0.85866 0.79294 0.33469 0.0
H1434 H 0.88907 0.73863 0.3566 0.0
H1435 H 0.88862 0.74853 0.37409 0.0
H1436 H 0.90377 0.75189 0.36101 0.0
H1437 H 0.83617 0.7632 0.34338 0.0
H1438 H 0.83589 0.78347 0.34406 0.0
H1439 H 0.83699 0.77257 0.36116 0.0
C1440 C 0.23738 0.88724 0.34886 0.0
C1441 C 0.22473 0.87915 0.34398 0.0
C1442 C 0.24882 0.88016 0.35719 0.0
C1443 C 0.24745 0.86471 0.36089 0.0
C1444 C 0.23435 0.85672 0.35664 0.0
C1445 C 0.22321 0.86401 0.34816 0.0
C1446 C 0.26267 0.88902 0.36145 0.0
C1447 C 0.23231 0.84031 0.36058 0.0
C1448 C 0.28193 0.84015 0.36697 0.0
C1449 C 0.28224 0.83877 0.3827 0.0
C1450 C 0.27099 0.849 0.35978 0.0
C1451 C 0.26 0.85658 0.36849 0.0
C1452 C 0.26047 0.85557 0.38438 0.0
C1453 C 0.27162 0.84674 0.39129 0.0
C1454 C 0.27095 0.84992 0.3428 0.0
C1455 C 0.2489 0.86339 0.39406 0.0
H1456 H 0.23867 0.89892 0.34559 0.0
H1457 H 0.21339 0.85772 0.34455 0.0
H1458 H 0.265 0.88784 0.37366 0.0
H1459 H 0.27257 0.88449 0.35533 0.0
H1460 H 0.26153 0.90117 0.35873 0.0
H1461 H 0.22101 0.83603 0.35738 0.0
H1462 H 0.24094 0.83346 0.3547 0.0
H1463 H 0.2339 0.83858 0.37284 0.0
H1464 H 0.29014 0.83417 0.36022 0.0
H1465 H 0.27173 0.84577 0.40345 0.0
H1466 H 0.27086 0.86185 0.33913 0.0
H1467 H 0.26059 0.84458 0.33833 0.0
H1468 H 0.28085 0.84423 0.33772 0.0
H1469 H 0.24829 0.87551 0.39115 0.0
H1470 H 0.25141 0.86231 0.40626 0.0
H1471 H 0.23762 0.85849 0.39188 0.0
C1472 C 0.15006 0.73559 0.61301 0.0
C1473 C 0.15541 0.72338 0.62148 0.0
C1474 C 0.14146 0.74705 0.61976 0.0
C1475 C 0.13798 0.74616 0.6353 0.0
C1476 C 0.14261 0.73342 0.64367 0.0
C1477 C 0.15132 0.72224 0.6367 0.0
C1478 C 0.13679 0.76047 0.61046 0.0
C1479 C 0.13892 0.73189 0.6602 0.0
C1480 C 0.132 0.78148 0.65872 0.0
C1481 C 0.1163 0.78169 0.66041 0.0
C1482 C 0.13913 0.77029 0.65011 0.0
C1483 C 0.13039 0.75893 0.64311 0.0
C1484 C 0.11452 0.75932 0.64441 0.0
C1485 C 0.10767 0.77072 0.65297 0.0
C1486 C 0.15607 0.77039 0.64886 0.0
C1487 C 0.10482 0.74737 0.63722 0.0
H1488 H 0.15324 0.73662 0.60128 0.0
H1489 H 0.1553 0.71279 0.6433 0.0
H1490 H 0.12461 0.76278 0.61193 0.0
H1491 H 0.14297 0.7706 0.61437 0.0
H1492 H 0.13914 0.75883 0.59829 0.0
H1493 H 0.14225 0.72074 0.66478 0.0
H1494 H 0.14488 0.74076 0.66666 0.0
H1495 H 0.12669 0.73349 0.66207 0.0
H1496 H 0.13877 0.78994 0.66431 0.0
H1497 H 0.09554 0.77074 0.6542 0.0
H1498 H 0.15951 0.76989 0.63686 0.0
H1499 H 0.16076 0.76029 0.6545 0.0
H1500 H 0.16116 0.78056 0.65406 0.0
H1501 H 0.10756 0.74625 0.62509 0.0
H1502 H 0.09262 0.74986 0.63836 0.0
H1503 H 0.10713 0.73633 0.64257 0.0
C1504 C 0.2656 0.15374 0.61326 0.0
C1505 C 0.27728 0.1603 0.62165 0.0
C1506 C 0.25445 0.14495 0.62026 0.0
C1507 C 0.25505 0.14255 0.636 0.0
C1508 C 0.26715 0.14862 0.64442 0.0
C1509 C 0.27806 0.15744 0.63717 0.0
C1510 C 0.24173 0.13871 0.61089 0.0
C1511 C 0.2683 0.14621 0.66121 0.0
C1512 C 0.21963 0.13565 0.65886 0.0
C1513 C 0.2206 0.12018 0.6619 0.0
C1514 C 0.23042 0.14292 0.64992 0.0
C1515 C 0.24259 0.13456 0.64392 0.0
C1516 C 0.24332 0.11883 0.64641 0.0
C1517 C 0.23227 0.11181 0.65532 0.0
C1518 C 0.22911 0.15968 0.64738 0.0
C1519 C 0.25613 0.10953 0.64024 0.0
H1520 H 0.26487 0.15587 0.60127 0.0
H1521 H 0.2871 0.16232 0.64376 0.0
H1522 H 0.24041 0.12647 0.61296 0.0
H1523 H 0.23102 0.1442 0.61422 0.0
H1524 H 0.24351 0.14055 0.59866 0.0
H1525 H 0.27892 0.15081 0.66595 0.0
H1526 H 0.25869 0.15175 0.66693 0.0
H1527 H 0.2677 0.13402 0.66387 0.0
H1528 H 0.21058 0.1422 0.66376 0.0
H1529 H 0.23315 0.09986 0.65761 0.0
H1530 H 0.22987 0.16229 0.6352 0.0
H1531 H 0.23859 0.16553 0.65304 0.0
H1532 H 0.21839 0.16433 0.65181 0.0
H1533 H 0.25756 0.11166 0.62802 0.0
H1534 H 0.25436 0.09728 0.64201 0.0
H1535 H 0.26677 0.11286 0.64586 0.0
C1536 C 0.84659 0.27791 0.63876 0.0
C1537 C 0.84387 0.27771 0.6232 0.0
C1538 C 0.85554 0.26686 0.64564 0.0
C1539 C 0.86178 0.25515 0.63681 0.0
C1540 C 0.8594 0.25506 0.62105 0.0
C1541 C 0.85057 0.2664 0.61442 0.0
C1542 C 0.85799 0.26751 0.66245 0.0
C1543 C 0.86574 0.2427 0.61127 0.0
C1544 C 0.89341 0.23254 0.65482 0.0
C1545 C 0.88548 0.22047 0.66123 0.0
C1546 C 0.88593 0.2437 0.64646 0.0
C1547 C 0.87018 0.24266 0.64426 0.0
C1548 C 0.86226 0.23011 0.65007 0.0
C1549 C 0.86997 0.21924 0.65856 0.0
C1550 C 0.89477 0.25697 0.64058 0.0
C1551 C 0.84551 0.22843 0.64777 0.0
H1552 H 0.84157 0.28666 0.64563 0.0
H1553 H 0.84847 0.26609 0.6024 0.0
H1554 H 0.8527 0.25759 0.66787 0.0
H1555 H 0.8702 0.26709 0.66503 0.0
H1556 H 0.85318 0.27786 0.66756 0.0
H1557 H 0.86361 0.24471 0.59911 0.0
H1558 H 0.87804 0.24163 0.61306 0.0
H1559 H 0.86059 0.23178 0.61446 0.0
H1560 H 0.90538 0.23364 0.65687 0.0
H1561 H 0.86378 0.20988 0.66334 0.0
H1562 H 0.89114 0.26735 0.64648 0.0
H1563 H 0.89253 0.25864 0.62841 0.0
H1564 H 0.90708 0.25555 0.64223 0.0
H1565 H 0.8395 0.23754 0.65384 0.0
H1566 H 0.84124 0.21743 0.6519 0.0
H1567 H 0.84267 0.22953 0.63565 0.0
C1568 C 0.76583 0.89144 0.65404 0.0
C1569 C 0.77688 0.88262 0.66112 0.0
C1570 C 0.75458 0.8848 0.6451 0.0
C1571 C 0.75445 0.86899 0.64307 0.0
C1572 C 0.76584 0.8601 0.6498 0.0
C1573 C 0.77685 0.867 0.65878 0.0
C1574 C 0.74258 0.89464 0.6382 0.0
C1575 C 0.76622 0.84322 0.64778 0.0
C1576 C 0.71855 0.84743 0.63461 0.0
C1577 C 0.72027 0.84405 0.61928 0.0
C1578 C 0.72923 0.85616 0.64231 0.0
C1579 C 0.74206 0.86154 0.63454 0.0
C1580 C 0.74353 0.85876 0.61891 0.0
C1581 C 0.73257 0.85012 0.61144 0.0
C1582 C 0.7271 0.85906 0.65892 0.0
C1583 C 0.75706 0.86425 0.61023 0.0
H1584 H 0.76572 0.90351 0.6558 0.0
H1585 H 0.78541 0.8601 0.66406 0.0
H1586 H 0.74184 0.89259 0.62591 0.0
H1587 H 0.73146 0.89176 0.6431 0.0
H1588 H 0.74475 0.90681 0.64011 0.0
H1589 H 0.77628 0.83802 0.65308 0.0
H1590 H 0.75601 0.83814 0.65285 0.0
H1591 H 0.76617 0.84034 0.63563 0.0
H1592 H 0.709 0.84294 0.64073 0.0
H1593 H 0.73402 0.84755 0.59961 0.0
H1594 H 0.72839 0.87123 0.6614 0.0
H1595 H 0.73589 0.85299 0.66539 0.0
H1596 H 0.7159 0.8553 0.66298 0.0
H1597 H 0.75892 0.87642 0.6123 0.0
H1598 H 0.75585 0.86239 0.59793 0.0
H1599 H 0.76725 0.85821 0.61417 0.0
C1600 C 0.34885 0.13745 0.22549 0.0
C1601 C 0.34529 0.12207 0.22561 0.0
C1602 C 0.35744 0.14394 0.23704 0.0
C1603 C 0.36253 0.13486 0.2491 0.0
C1604 C 0.35958 0.11919 0.24896 0.0
C1605 C 0.35104 0.11296 0.23718 0.0
C1606 C 0.3605 0.16066 0.23664 0.0
C1607 C 0.36481 0.10915 0.26162 0.0
C1608 C 0.39228 0.15279 0.27407 0.0
C1609 C 0.3834 0.15936 0.28538 0.0
C1610 C 0.38574 0.14421 0.26251 0.0
C1611 C 0.36996 0.14207 0.26229 0.0
C1612 C 0.36105 0.14798 0.27411 0.0
C1613 C 0.36786 0.15658 0.28548 0.0
C1614 C 0.39562 0.13809 0.25011 0.0
C1615 C 0.3442 0.14581 0.2744 0.0
H1616 H 0.3446 0.14456 0.21653 0.0
H1617 H 0.34833 0.10107 0.2374 0.0
H1618 H 0.35455 0.16624 0.24609 0.0
H1619 H 0.3727 0.16285 0.2381 0.0
H1620 H 0.35676 0.16591 0.22593 0.0
H1621 H 0.36297 0.09704 0.2591 0.0
H1622 H 0.37694 0.11098 0.26393 0.0
H1623 H 0.35858 0.11202 0.27206 0.0
H1624 H 0.4043 0.15483 0.27388 0.0
H1625 H 0.36091 0.16146 0.29423 0.0
H1626 H 0.39325 0.14422 0.2395 0.0
H1627 H 0.39313 0.12603 0.24808 0.0
H1628 H 0.40778 0.1393 0.25275 0.0
H1629 H 0.33903 0.15194 0.26482 0.0
H1630 H 0.33906 0.14998 0.28501 0.0
H1631 H 0.34136 0.13373 0.27305 0.0
C1632 C 0.88925 0.34319 0.23151 0.0
C1633 C 0.88109 0.33679 0.21958 0.0
C1634 C 0.882 0.35141 0.24289 0.0
C1635 C 0.86623 0.35351 0.24223 0.0
C1636 C 0.85798 0.34746 0.22999 0.0
C1637 C 0.86549 0.33906 0.21888 0.0
C1638 C 0.89116 0.35747 0.25586 0.0
C1639 C 0.84118 0.34968 0.22874 0.0
C1640 C 0.84386 0.36082 0.27794 0.0
C1641 C 0.84156 0.37642 0.27725 0.0
C1642 C 0.85224 0.3533 0.26685 0.0
C1643 C 0.85825 0.36154 0.25461 0.0
C1644 C 0.85627 0.37735 0.25401 0.0
C1645 C 0.84806 0.38462 0.26542 0.0
C1646 C 0.85437 0.33648 0.26807 0.0
C1647 C 0.86235 0.3865 0.24106 0.0
H1648 H 0.90129 0.34141 0.23221 0.0
H1649 H 0.85912 0.33425 0.20966 0.0
H1650 H 0.88943 0.36979 0.25698 0.0
H1651 H 0.88734 0.35222 0.26653 0.0
H1652 H 0.90338 0.35526 0.25448 0.0
H1653 H 0.83656 0.34501 0.2181 0.0
H1654 H 0.83547 0.34411 0.23834 0.0
H1655 H 0.83841 0.36184 0.22931 0.0
H1656 H 0.83895 0.35442 0.28709 0.0
H1657 H 0.84622 0.39666 0.26472 0.0
H1658 H 0.8665 0.33362 0.26738 0.0
H1659 H 0.84867 0.3308 0.25852 0.0
H1660 H 0.84978 0.33188 0.27874 0.0
H1661 H 0.87462 0.38459 0.23981 0.0
H1662 H 0.86033 0.39876 0.24255 0.0
H1663 H 0.85693 0.38284 0.23042 0.0
C1664 C 0.65311 0.88755 0.23317 0.0
C1665 C 0.65889 0.87915 0.2211 0.0
C1666 C 0.64471 0.88062 0.24465 0.0
C1667 C 0.64183 0.86496 0.24393 0.0
C1668 C 0.64702 0.85657 0.2314 0.0
C1669 C 0.65556 0.86374 0.22021 0.0
C1670 C 0.63948 0.88993 0.25787 0.0
C1671 C 0.64396 0.83991 0.23005 0.0
C1672 C 0.63545 0.84208 0.27952 0.0
C1673 C 0.61979 0.84011 0.2794 0.0
C1674 C 0.64269 0.85058 0.26833 0.0
C1675 C 0.6341 0.85712 0.25659 0.0
C1676 C 0.61826 0.85552 0.25662 0.0
C1677 C 0.61128 0.84713 0.26807 0.0
C1678 C 0.65959 0.85223 0.26884 0.0
C1679 C 0.60871 0.86219 0.24424 0.0
H1680 H 0.65569 0.89944 0.23402 0.0
H1681 H 0.65987 0.85718 0.21086 0.0
H1682 H 0.62725 0.88833 0.25974 0.0
H1683 H 0.64533 0.88613 0.26823 0.0
H1684 H 0.64173 0.90212 0.25626 0.0
H1685 H 0.6478 0.83524 0.21911 0.0
H1686 H 0.64982 0.8338 0.23923 0.0
H1687 H 0.63174 0.83765 0.23129 0.0
H1688 H 0.64211 0.83681 0.28827 0.0
H1689 H 0.59918 0.84563 0.26782 0.0
H1690 H 0.66276 0.86429 0.26821 0.0
H1691 H 0.66468 0.84652 0.25897 0.0
H1692 H 0.66452 0.84733 0.27924 0.0
H1693 H 0.6111 0.87439 0.24302 0.0
H1694 H 0.59648 0.8607 0.24636 0.0
H1695 H 0.61156 0.85676 0.23337 0.0
C1696 C 0.13194 0.65555 0.21736 0.0
C1697 C 0.11646 0.65858 0.21811 0.0
C1698 C 0.13913 0.64696 0.2285 0.0
C1699 C 0.13067 0.64133 0.24078 0.0
C1700 C 0.11491 0.64361 0.24117 0.0
C1701 C 0.10797 0.65216 0.2298 0.0
C1702 C 0.15593 0.64462 0.22754 0.0
C1703 C 0.10549 0.63778 0.25405 0.0
C1704 C 0.15041 0.61275 0.26589 0.0
C1705 C 0.1566 0.62209 0.27704 0.0
C1706 C 0.14149 0.61873 0.25426 0.0
C1707 C 0.13861 0.6344 0.25384 0.0
C1708 C 0.1442 0.64375 0.26547 0.0
C1709 C 0.15315 0.6375 0.27688 0.0
C1710 C 0.13573 0.6084 0.24207 0.0
C1711 C 0.14124 0.6605 0.26556 0.0
H1712 H 0.13858 0.6603 0.2083 0.0
H1713 H 0.09601 0.65441 0.2305 0.0
H1714 H 0.16156 0.651 0.23669 0.0
H1715 H 0.15874 0.63256 0.22912 0.0
H1716 H 0.16062 0.64842 0.2166 0.0
H1717 H 0.09324 0.63887 0.25179 0.0
H1718 H 0.10811 0.62579 0.25633 0.0
H1719 H 0.10819 0.64422 0.26441 0.0
H1720 H 0.15302 0.60083 0.26589 0.0
H1721 H 0.15774 0.6448 0.28551 0.0
H1722 H 0.14154 0.61099 0.23133 0.0
H1723 H 0.12353 0.61022 0.24021 0.0
H1724 H 0.13764 0.59635 0.2448 0.0
H1725 H 0.14679 0.6658 0.25572 0.0
H1726 H 0.14547 0.66601 0.27595 0.0
H1727 H 0.12899 0.66272 0.26458 0.0
C1728 C 0.35038 0.88424 0.76527 0.0
C1729 C 0.34162 0.87563 0.77521 0.0
C1730 C 0.35936 0.87733 0.75423 0.0
C1731 C 0.35971 0.86143 0.75318 0.0
C1732 C 0.35127 0.85268 0.76346 0.0
C1733 C 0.3423 0.85986 0.77429 0.0
C1734 C 0.36814 0.88705 0.74341 0.0
C1735 C 0.35148 0.83569 0.76286 0.0
C1736 C 0.36963 0.8416 0.71659 0.0
C1737 C 0.38459 0.83731 0.71919 0.0
C1738 C 0.3616 0.84999 0.72732 0.0
C1739 C 0.36858 0.85386 0.74112 0.0
C1740 C 0.38376 0.84977 0.7437 0.0
C1741 C 0.39163 0.84169 0.73263 0.0
C1742 C 0.34553 0.85441 0.72402 0.0
C1743 C 0.39151 0.85344 0.75837 0.0
H1744 H 0.3499 0.89642 0.76583 0.0
H1745 H 0.33567 0.85308 0.78196 0.0
H1746 H 0.38022 0.88393 0.74366 0.0
H1747 H 0.36407 0.88512 0.73176 0.0
H1748 H 0.3671 0.89923 0.74604 0.0
H1749 H 0.34485 0.83051 0.77211 0.0
H1750 H 0.34678 0.83179 0.75196 0.0
H1751 H 0.36322 0.83151 0.76354 0.0
H1752 H 0.36419 0.83836 0.70616 0.0
H1753 H 0.40316 0.8383 0.73475 0.0
H1754 H 0.344 0.86668 0.72573 0.0
H1755 H 0.33785 0.84857 0.73194 0.0
H1756 H 0.34213 0.85153 0.71233 0.0
H1757 H 0.39077 0.86568 0.76071 0.0
H1758 H 0.40355 0.85009 0.75834 0.0
H1759 H 0.38576 0.84753 0.76774 0.0
C1760 C 0.15323 0.38866 0.73781 0.0
C1761 C 0.15806 0.37989 0.72559 0.0
C1762 C 0.14481 0.38227 0.74959 0.0
C1763 C 0.14096 0.36681 0.74903 0.0
C1764 C 0.14517 0.35811 0.73636 0.0
C1765 C 0.15373 0.36472 0.72486 0.0
C1766 C 0.14062 0.3919 0.76295 0.0
C1767 C 0.14107 0.34165 0.73518 0.0
C1768 C 0.13455 0.34371 0.78443 0.0
C1769 C 0.11882 0.34231 0.78461 0.0
C1770 C 0.14184 0.35224 0.77331 0.0
C1771 C 0.13324 0.35943 0.76197 0.0
C1772 C 0.11735 0.35856 0.76242 0.0
C1773 C 0.11033 0.35009 0.77378 0.0
C1774 C 0.15881 0.35308 0.77335 0.0
C1775 C 0.10778 0.36596 0.75049 0.0
H1776 H 0.1566 0.40036 0.73851 0.0
H1777 H 0.1573 0.35789 0.7154 0.0
H1778 H 0.12841 0.39093 0.76535 0.0
H1779 H 0.14671 0.38787 0.77307 0.0
H1780 H 0.14341 0.40396 0.76116 0.0
H1781 H 0.14427 0.33674 0.72413 0.0
H1782 H 0.14685 0.33522 0.74419 0.0
H1783 H 0.12879 0.34014 0.73681 0.0
H1784 H 0.14121 0.33786 0.79281 0.0
H1785 H 0.09818 0.34907 0.77377 0.0
H1786 H 0.16256 0.36497 0.77255 0.0
H1787 H 0.16334 0.34706 0.76339 0.0
H1788 H 0.16378 0.34801 0.78365 0.0
H1789 H 0.11099 0.37795 0.74913 0.0
H1790 H 0.09558 0.36536 0.75317 0.0
H1791 H 0.10971 0.36033 0.73951 0.0
C1792 C 0.63213 0.16068 0.7196 0.0
C1793 C 0.61652 0.16289 0.72041 0.0
C1794 C 0.63975 0.15213 0.7305 0.0
C1795 C 0.63161 0.14578 0.74265 0.0
C1796 C 0.61582 0.14767 0.74336 0.0
C1797 C 0.60845 0.15611 0.73219 0.0
C1798 C 0.65658 0.1502 0.7292 0.0
C1799 C 0.60675 0.14122 0.7562 0.0
C1800 C 0.65113 0.11523 0.76554 0.0
C1801 C 0.65751 0.12364 0.77728 0.0
C1802 C 0.64239 0.1222 0.75433 0.0
C1803 C 0.6398 0.13792 0.75501 0.0
C1804 C 0.64564 0.14634 0.76722 0.0
C1805 C 0.6545 0.13913 0.77813 0.0
C1806 C 0.63647 0.11287 0.74143 0.0
C1807 C 0.64292 0.16307 0.76853 0.0
H1808 H 0.63846 0.16575 0.71048 0.0
H1809 H 0.5964 0.15778 0.73297 0.0
H1810 H 0.66222 0.15588 0.73879 0.0
H1811 H 0.65959 0.13809 0.72976 0.0
H1812 H 0.6611 0.15496 0.71856 0.0
H1813 H 0.59447 0.14296 0.75468 0.0
H1814 H 0.60896 0.12899 0.75734 0.0
H1815 H 0.61023 0.14662 0.76691 0.0
H1816 H 0.65348 0.10328 0.76474 0.0
H1817 H 0.65928 0.1457 0.78723 0.0
H1818 H 0.64189 0.11651 0.73079 0.0
H1819 H 0.62418 0.11461 0.7401 0.0
H1820 H 0.63864 0.10066 0.74303 0.0
H1821 H 0.64843 0.16898 0.75902 0.0
H1822 H 0.64734 0.16777 0.77923 0.0
H1823 H 0.6307 0.16552 0.76784 0.0
C1824 C 0.89419 0.65291 0.77234 0.0
C1825 C 0.88538 0.66026 0.78323 0.0
C1826 C 0.8875 0.64443 0.76078 0.0
C1827 C 0.87165 0.64309 0.76018 0.0
C1828 C 0.86275 0.64983 0.77157 0.0
C1829 C 0.86971 0.6584 0.78289 0.0
C1830 C 0.89737 0.63751 0.74881 0.0
C1831 C 0.84581 0.64849 0.77148 0.0
C1832 C 0.85103 0.63779 0.72315 0.0
C1833 C 0.84693 0.62255 0.7238 0.0
C1834 C 0.85969 0.64441 0.73458 0.0
C1835 C 0.86421 0.63565 0.7471 0.0
C1836 C 0.86072 0.6201 0.7475 0.0
C1837 C 0.8522 0.61371 0.73579 0.0
C1838 C 0.86341 0.66096 0.73356 0.0
C1839 C 0.86526 0.6104 0.76069 0.0
H1840 H 0.9063 0.6543 0.77245 0.0
H1841 H 0.86281 0.66391 0.79131 0.0
H1842 H 0.8945 0.62547 0.74719 0.0
H1843 H 0.89538 0.64329 0.73792 0.0
H1844 H 0.90952 0.6384 0.75161 0.0
H1845 H 0.84062 0.6533 0.78179 0.0
H1846 H 0.84118 0.65447 0.76155 0.0
H1847 H 0.84244 0.6365 0.77052 0.0
H1848 H 0.84711 0.64467 0.71387 0.0
H1849 H 0.84901 0.60195 0.73644 0.0
H1850 H 0.87563 0.66277 0.73535 0.0
H1851 H 0.85737 0.66718 0.74255 0.0
H1852 H 0.86021 0.66587 0.72252 0.0
H1853 H 0.8774 0.61185 0.76321 0.0
H1854 H 0.863 0.59828 0.75863 0.0
H1855 H 0.85892 0.61396 0.77084 0.0
C1856 C 0.23782 0.34764 0.11237 0.0
C1857 C 0.22559 0.34258 0.12098 0.0
C1858 C 0.24948 0.35607 0.11897 0.0
C1859 C 0.24877 0.35968 0.13449 0.0
C1860 C 0.23609 0.35521 0.14303 0.0
C1861 C 0.22472 0.34665 0.13621 0.0
C1862 C 0.26286 0.36055 0.10951 0.0
C1863 C 0.23475 0.35905 0.15954 0.0
C1864 C 0.28386 0.36606 0.15801 0.0
C1865 C 0.28386 0.38176 0.15967 0.0
C1866 C 0.2729 0.35879 0.14924 0.0
C1867 C 0.26155 0.36741 0.14209 0.0
C1868 C 0.26182 0.38329 0.14325 0.0
C1869 C 0.27301 0.39028 0.15195 0.0
C1870 C 0.27314 0.34184 0.14811 0.0
C1871 C 0.24986 0.39287 0.13589 0.0
H1872 H 0.23862 0.34446 0.10062 0.0
H1873 H 0.21524 0.34291 0.14291 0.0
H1874 H 0.26512 0.37277 0.11069 0.0
H1875 H 0.27302 0.3545 0.11353 0.0
H1876 H 0.26118 0.35791 0.09741 0.0
H1877 H 0.22371 0.35565 0.16433 0.0
H1878 H 0.24378 0.35328 0.16595 0.0
H1879 H 0.23622 0.37133 0.16126 0.0
H1880 H 0.29227 0.35939 0.1638 0.0
H1881 H 0.27288 0.40242 0.15316 0.0
H1882 H 0.27248 0.33828 0.13616 0.0
H1883 H 0.26318 0.33711 0.15396 0.0
H1884 H 0.28344 0.33689 0.1532 0.0
H1885 H 0.24865 0.38984 0.12384 0.0
H1886 H 0.25241 0.40508 0.13672 0.0
H1887 H 0.23886 0.39073 0.14138 0.0
C1888 C 0.23168 0.65641 0.88873 0.0
C1889 C 0.21928 0.66255 0.88109 0.0
C1890 C 0.24283 0.64828 0.881 0.0
C1891 C 0.24146 0.64601 0.86529 0.0
C1892 C 0.22881 0.65188 0.85757 0.0
C1893 C 0.21794 0.66016 0.86553 0.0
C1894 C 0.25623 0.64236 0.88962 0.0
C1895 C 0.2268 0.6495 0.84086 0.0
C1896 C 0.2762 0.6377 0.84164 0.0
C1897 C 0.2753 0.62203 0.83987 0.0
C1898 C 0.26544 0.6456 0.85014 0.0
C1899 C 0.25335 0.63768 0.85685 0.0
C1900 C 0.25245 0.62185 0.85523 0.0
C1901 C 0.26349 0.61421 0.84687 0.0
C1902 C 0.26694 0.66244 0.85181 0.0
C1903 C 0.23965 0.61301 0.86206 0.0
H1904 H 0.23287 0.65827 0.90073 0.0
H1905 H 0.20835 0.66475 0.85955 0.0
H1906 H 0.25711 0.62999 0.88821 0.0
H1907 H 0.26672 0.64735 0.88505 0.0
H1908 H 0.25556 0.64496 0.90183 0.0
H1909 H 0.21606 0.6543 0.83664 0.0
H1910 H 0.23624 0.6548 0.83466 0.0
H1911 H 0.22702 0.63729 0.83823 0.0
H1912 H 0.28533 0.64383 0.83637 0.0
H1913 H 0.26264 0.60212 0.8455 0.0
H1914 H 0.26704 0.66555 0.8639 0.0
H1915 H 0.2571 0.6681 0.84661 0.0
H1916 H 0.27735 0.66684 0.84646 0.0
H1917 H 0.23919 0.61494 0.87438 0.0
H1918 H 0.24071 0.60072 0.85997 0.0
H1919 H 0.2288 0.61694 0.85729 0.0
C1920 C 0.39432 0.27128 0.84964 0.0
C1921 C 0.38543 0.28239 0.84276 0.0
C1922 C 0.38772 0.25968 0.85812 0.0
C1923 C 0.37189 0.25929 0.85989 0.0
C1924 C 0.36298 0.27098 0.85373 0.0
C1925 C 0.36984 0.28232 0.84517 0.0
C1926 C 0.3976 0.2474 0.86446 0.0
C1927 C 0.34608 0.27112 0.85557 0.0
C1928 C 0.35079 0.22248 0.86429 0.0
C1929 C 0.34699 0.22269 0.87961 0.0
C1930 C 0.35952 0.23398 0.85791 0.0
C1931 C 0.36444 0.24609 0.86703 0.0
C1932 C 0.36122 0.24605 0.88263 0.0
C1933 C 0.35259 0.2343 0.88876 0.0
C1934 C 0.36292 0.23347 0.84127 0.0
C1935 C 0.36621 0.25879 0.89269 0.0
H1936 H 0.40637 0.27121 0.84779 0.0
H1937 H 0.36291 0.29094 0.84002 0.0
H1938 H 0.39485 0.24531 0.87646 0.0
H1939 H 0.39549 0.23676 0.85827 0.0
H1940 H 0.40975 0.25018 0.86355 0.0
H1941 H 0.34094 0.28168 0.85129 0.0
H1942 H 0.34112 0.2615 0.84935 0.0
H1943 H 0.34302 0.26977 0.8676 0.0
H1944 H 0.34665 0.21348 0.85717 0.0
H1945 H 0.34968 0.23459 0.9006 0.0
H1946 H 0.37514 0.23506 0.83929 0.0
H1947 H 0.35696 0.24281 0.83549 0.0
H1948 H 0.35939 0.22268 0.83603 0.0
H1949 H 0.37836 0.26114 0.89107 0.0
H1950 H 0.36417 0.25634 0.90478 0.0
H1951 H 0.35998 0.26918 0.88965 0.0
C1952 C 0.71952 0.36572 0.84504 0.0
C1953 C 0.72019 0.38128 0.84243 0.0
C1954 C 0.73044 0.35844 0.85383 0.0
C1955 C 0.74239 0.36691 0.86012 0.0
C1956 C 0.74281 0.38269 0.85806 0.0
C1957 C 0.73168 0.3897 0.84928 0.0
C1958 C 0.72951 0.3416 0.85589 0.0
C1959 C 0.75537 0.3921 0.86457 0.0
C1960 C 0.76599 0.34724 0.88999 0.0
C1961 C 0.7777 0.34122 0.88126 0.0
C1962 C 0.75462 0.35605 0.88338 0.0
C1963 C 0.75506 0.35899 0.86772 0.0
C1964 C 0.76724 0.35355 0.85902 0.0
C1965 C 0.77836 0.34471 0.86587 0.0
C1966 C 0.74181 0.36166 0.89302 0.0
C1967 C 0.76825 0.35658 0.84232 0.0
H1968 H 0.71062 0.35912 0.83995 0.0
H1969 H 0.7323 0.40174 0.84739 0.0
H1970 H 0.73911 0.33612 0.85007 0.0
H1971 H 0.73033 0.33866 0.86799 0.0
H1972 H 0.71889 0.33684 0.85133 0.0
H1973 H 0.7533 0.40435 0.86319 0.0
H1974 H 0.75685 0.38961 0.87671 0.0
H1975 H 0.76611 0.38923 0.85886 0.0
H1976 H 0.76536 0.34458 0.90188 0.0
H1977 H 0.78745 0.34025 0.85906 0.0
H1978 H 0.73126 0.35588 0.8897 0.0
H1979 H 0.74005 0.37389 0.89125 0.0
H1980 H 0.74381 0.3596 0.90519 0.0
H1981 H 0.75875 0.35099 0.83645 0.0
H1982 H 0.77895 0.35243 0.83737 0.0
H1983 H 0.76731 0.36883 0.84008 0.0
C1984 C 0.60647 0.73375 0.84989 0.0
C1985 C 0.61573 0.72313 0.84273 0.0
C1986 C 0.61267 0.74535 0.85871 0.0
C1987 C 0.62847 0.74623 0.86053 0.0
C1988 C 0.63779 0.73511 0.85393 0.0
C1989 C 0.63133 0.72376 0.84507 0.0
C1990 C 0.60236 0.75702 0.8655 0.0
C1991 C 0.65469 0.73552 0.85577 0.0
C1992 C 0.64898 0.78309 0.86673 0.0
C1993 C 0.65308 0.78202 0.88194 0.0
C1994 C 0.64017 0.77194 0.85986 0.0
C1995 C 0.63547 0.7593 0.86835 0.0
C1996 C 0.6388 0.75859 0.88392 0.0
C1997 C 0.6475 0.77002 0.89056 0.0
C1998 C 0.63665 0.77326 0.84328 0.0
C1999 C 0.63402 0.7453 0.89335 0.0
H2000 H 0.59441 0.73339 0.84813 0.0
H2001 H 0.63856 0.71552 0.83972 0.0
H2002 H 0.60492 0.7586 0.87761 0.0
H2003 H 0.60423 0.76801 0.85986 0.0
H2004 H 0.59031 0.75394 0.8643 0.0
H2005 H 0.66023 0.72543 0.85088 0.0
H2006 H 0.65928 0.74567 0.85014 0.0
H2007 H 0.6577 0.73627 0.86786 0.0
H2008 H 0.65311 0.79241 0.86002 0.0
H2009 H 0.65065 0.76907 0.90231 0.0
H2010 H 0.62449 0.77128 0.84124 0.0
H2011 H 0.64297 0.76455 0.83696 0.0
H2012 H 0.6397 0.78448 0.83869 0.0
H2013 H 0.62199 0.74263 0.89141 0.0
H2014 H 0.63578 0.74732 0.90557 0.0
H2015 H 0.64065 0.73525 0.89001 0.0
C2016 C 0.78301 0.65457 0.13622 0.0
C2017 C 0.78207 0.65762 0.12075 0.0
C2018 C 0.7719 0.64608 0.14357 0.0
C2019 C 0.75945 0.64056 0.13529 0.0
C2020 C 0.75874 0.64305 0.11957 0.0
C2021 C 0.77008 0.6515 0.11247 0.0
C2022 C 0.77319 0.64355 0.16033 0.0
C2023 C 0.74564 0.63739 0.11035 0.0
C2024 C 0.73518 0.61117 0.15489 0.0
C2025 C 0.724 0.62019 0.1615 0.0
C2026 C 0.74655 0.61755 0.14591 0.0
C2027 C 0.74667 0.63329 0.14337 0.0
C2028 C 0.73503 0.64233 0.14942 0.0
C2029 C 0.72389 0.63569 0.15842 0.0
C2030 C 0.75876 0.60754 0.13966 0.0
C2031 C 0.73464 0.65913 0.14686 0.0
H2032 H 0.7923 0.6591 0.14271 0.0
H2033 H 0.76923 0.65378 0.10052 0.0
H2034 H 0.76401 0.64964 0.16621 0.0
H2035 H 0.77191 0.63141 0.16298 0.0
H2036 H 0.78413 0.64751 0.1649 0.0
H2037 H 0.74745 0.63898 0.09808 0.0
H2038 H 0.74366 0.62526 0.11258 0.0
H2039 H 0.73527 0.64351 0.11365 0.0
H2040 H 0.73539 0.5992 0.1572 0.0
H2041 H 0.71524 0.64275 0.16333 0.0
H2042 H 0.76963 0.61028 0.14517 0.0
H2043 H 0.7602 0.60954 0.12742 0.0
H2044 H 0.75634 0.59541 0.14149 0.0
H2045 H 0.74453 0.66444 0.15234 0.0
H2046 H 0.72427 0.6644 0.15144 0.0
H2047 H 0.73534 0.66166 0.13465 0.0
C2048 C 0.35131 0.77324 0.10898 0.0
C2049 C 0.3443 0.78396 0.11825 0.0
C2050 C 0.36035 0.7618 0.11512 0.0
C2051 C 0.3625 0.76113 0.13088 0.0
C2052 C 0.35624 0.77246 0.14019 0.0
C2053 C 0.34719 0.7837 0.13377 0.0
C2054 C 0.36684 0.74995 0.10482 0.0
C2055 C 0.35844 0.77227 0.15704 0.0
C2056 C 0.36774 0.724 0.15117 0.0
C2057 C 0.38303 0.72449 0.15502 0.0
C2058 C 0.36112 0.73549 0.14262 0.0
C2059 C 0.36997 0.74786 0.13789 0.0
C2060 C 0.3856 0.74801 0.14098 0.0
C2061 C 0.39197 0.73627 0.14946 0.0
C2062 C 0.34445 0.73476 0.13935 0.0
C2063 C 0.39541 0.76099 0.13612 0.0
H2064 H 0.34919 0.77332 0.09697 0.0
H2065 H 0.34197 0.79201 0.14102 0.0
H2066 H 0.37889 0.74799 0.10742 0.0
H2067 H 0.36084 0.73915 0.10661 0.0
H2068 H 0.36579 0.7531 0.09276 0.0
H2069 H 0.35405 0.78263 0.16251 0.0
H2070 H 0.35252 0.76242 0.16191 0.0
H2071 H 0.37055 0.7711 0.15983 0.0
H2072 H 0.36078 0.71486 0.15528 0.0
H2073 H 0.40379 0.73677 0.15242 0.0
H2074 H 0.34233 0.73662 0.12719 0.0
H2075 H 0.33856 0.74383 0.1456 0.0
H2076 H 0.33945 0.72379 0.14264 0.0
H2077 H 0.39339 0.76379 0.12412 0.0
H2078 H 0.40757 0.75853 0.13769 0.0
H2079 H 0.39252 0.77112 0.14284 0.0
C2080 C 0.65996 0.22346 0.14037 0.0
C2081 C 0.66172 0.22403 0.12469 0.0
C2082 C 0.65166 0.23451 0.14807 0.0
C2083 C 0.64515 0.24658 0.13992 0.0
C2084 C 0.64681 0.24717 0.12409 0.0
C2085 C 0.65496 0.23584 0.11666 0.0
C2086 C 0.64994 0.23333 0.16493 0.0
C2087 C 0.64022 0.25995 0.11502 0.0
C2088 C 0.61337 0.2687 0.15823 0.0
C2089 C 0.62107 0.28106 0.16436 0.0
C2090 C 0.62104 0.25744 0.15021 0.0
C2091 C 0.63677 0.25867 0.14802 0.0
C2092 C 0.64455 0.27131 0.15383 0.0
C2093 C 0.63664 0.28228 0.16204 0.0
C2094 C 0.61236 0.24404 0.14438 0.0
C2095 C 0.66128 0.27318 0.15151 0.0
H2096 H 0.66506 0.21434 0.14667 0.0
H2097 H 0.65634 0.23645 0.10455 0.0
H2098 H 0.65519 0.24323 0.17043 0.0
H2099 H 0.63784 0.23337 0.168 0.0
H2100 H 0.6552 0.22296 0.16953 0.0
H2101 H 0.64242 0.25871 0.10278 0.0
H2102 H 0.62788 0.26056 0.11681 0.0
H2103 H 0.64505 0.2708 0.11887 0.0
H2104 H 0.60136 0.26759 0.16006 0.0
H2105 H 0.64267 0.29183 0.16665 0.0
H2106 H 0.61678 0.23357 0.14958 0.0
H2107 H 0.61389 0.24296 0.13204 0.0
H2108 H 0.60014 0.24486 0.14684 0.0
H2109 H 0.66739 0.26381 0.15703 0.0
H2110 H 0.66553 0.28399 0.15613 0.0
H2111 H 0.66398 0.2727 0.13933 0.0
C2112 C 0.88587 0.76462 0.65065 0.0
C2113 C 0.8772 0.77643 0.65656 0.0
C2114 C 0.87925 0.75323 0.64189 0.0
C2115 C 0.86362 0.75378 0.6388 0.0
C2116 C 0.85498 0.76609 0.64409 0.0
C2117 C 0.86185 0.77719 0.65298 0.0
C2118 C 0.88882 0.74024 0.63655 0.0
C2119 C 0.83835 0.76726 0.64081 0.0
C2120 C 0.84608 0.72996 0.60785 0.0
C2121 C 0.83899 0.71856 0.6162 0.0
C2122 C 0.8545 0.74128 0.61499 0.0
C2123 C 0.85605 0.7411 0.63084 0.0
C2124 C 0.84952 0.72924 0.63926 0.0
C2125 C 0.841 0.71818 0.63185 0.0
C2126 C 0.86117 0.7538 0.60563 0.0
C2127 C 0.85111 0.7285 0.65616 0.0
H2128 H 0.89773 0.76388 0.65343 0.0
H2129 H 0.85509 0.78634 0.65739 0.0
H2130 H 0.88522 0.72976 0.64232 0.0
H2131 H 0.88728 0.73844 0.6243 0.0
H2132 H 0.90097 0.74207 0.63885 0.0
H2133 H 0.8335 0.7781 0.64471 0.0
H2134 H 0.83627 0.76613 0.62855 0.0
H2135 H 0.83229 0.75794 0.6465 0.0
H2136 H 0.84455 0.7304 0.59575 0.0
H2137 H 0.83568 0.70936 0.63839 0.0
H2138 H 0.87328 0.75521 0.60827 0.0
H2139 H 0.85549 0.76457 0.60841 0.0
H2140 H 0.85994 0.7517 0.59337 0.0
H2141 H 0.86314 0.7293 0.65941 0.0
H2142 H 0.84637 0.71795 0.66091 0.0
H2143 H 0.8452 0.73819 0.66137 0.0
C2144 C 0.23158 0.8916 0.65238 0.0
C2145 C 0.21966 0.88254 0.65742 0.0
C2146 C 0.24362 0.88539 0.64422 0.0
C2147 C 0.24363 0.86981 0.64089 0.0
C2148 C 0.2312 0.86081 0.64518 0.0
C2149 C 0.21942 0.86726 0.65346 0.0
C2150 C 0.2567 0.89533 0.6399 0.0
C2151 C 0.23065 0.84419 0.64162 0.0
C2152 C 0.26996 0.85247 0.612 0.0
C2153 C 0.28062 0.8454 0.62128 0.0
C2154 C 0.25814 0.86097 0.61817 0.0
C2155 C 0.25706 0.86258 0.63397 0.0
C2156 C 0.26828 0.8562 0.64334 0.0
C2157 C 0.27986 0.84763 0.63689 0.0
C2158 C 0.24637 0.86753 0.60782 0.0
C2159 C 0.26767 0.85787 0.66025 0.0
H2160 H 0.23189 0.90341 0.65543 0.0
H2161 H 0.21018 0.86022 0.65719 0.0
H2162 H 0.26674 0.89213 0.6466 0.0
H2163 H 0.25961 0.89375 0.62786 0.0
H2164 H 0.25428 0.90744 0.6419 0.0
H2165 H 0.21964 0.83908 0.64458 0.0
H2166 H 0.2328 0.84229 0.62947 0.0
H2167 H 0.23961 0.83825 0.64797 0.0
H2168 H 0.27041 0.85079 0.59992 0.0
H2169 H 0.28812 0.84234 0.64414 0.0
H2170 H 0.24432 0.87954 0.61056 0.0
H2171 H 0.23558 0.86147 0.60943 0.0
H2172 H 0.24965 0.86665 0.59578 0.0
H2173 H 0.26633 0.86988 0.66338 0.0
H2174 H 0.27793 0.8534 0.66581 0.0
H2175 H 0.25776 0.85172 0.6647 0.0
C2176 C 0.13982 0.2274 0.65316 0.0
C2177 C 0.12454 0.22808 0.65707 0.0
C2178 C 0.14646 0.2386 0.64423 0.0
C2179 C 0.13767 0.25091 0.63922 0.0
C2180 C 0.12212 0.2514 0.64266 0.0
C2181 C 0.11571 0.23991 0.65147 0.0
C2182 C 0.16303 0.23751 0.64061 0.0
C2183 C 0.1124 0.26438 0.6376 0.0
C2184 C 0.16036 0.28641 0.63207 0.0
C2185 C 0.16224 0.286 0.6164 0.0
C2186 C 0.15179 0.27544 0.63955 0.0
C2187 C 0.14507 0.26365 0.63119 0.0
C2188 C 0.14641 0.26349 0.61532 0.0
C2189 C 0.15491 0.27471 0.6081 0.0
C2190 C 0.15044 0.27614 0.65648 0.0
C2191 C 0.1395 0.25107 0.60601 0.0
H2192 H 0.1467 0.21822 0.65732 0.0
H2193 H 0.10391 0.24057 0.65449 0.0
H2194 H 0.16485 0.23865 0.62831 0.0
H2195 H 0.16917 0.24685 0.64617 0.0
H2196 H 0.16801 0.22668 0.6444 0.0
H2197 H 0.1003 0.26249 0.64012 0.0
H2198 H 0.11606 0.27483 0.64338 0.0
H2199 H 0.1137 0.26628 0.62533 0.0
H2200 H 0.16584 0.29515 0.63857 0.0
H2201 H 0.1563 0.27426 0.59599 0.0
H2202 H 0.15646 0.26646 0.66157 0.0
H2203 H 0.13847 0.2753 0.6599 0.0
H2204 H 0.15522 0.2867 0.66118 0.0
H2205 H 0.14526 0.24027 0.60853 0.0
H2206 H 0.1404 0.25329 0.59374 0.0
H2207 H 0.12745 0.24961 0.60895 0.0
C2208 C 0.7746 0.11066 0.65169 0.0
C2209 C 0.78554 0.12002 0.65823 0.0
C2210 C 0.76263 0.11673 0.64335 0.0
C2211 C 0.76166 0.1325 0.64138 0.0
C2212 C 0.77323 0.14189 0.64704 0.0
C2213 C 0.78499 0.13555 0.65544 0.0
C2214 C 0.75052 0.10635 0.6375 0.0
C2215 C 0.77275 0.15875 0.64494 0.0
C2216 C 0.7349 0.15075 0.61346 0.0
C2217 C 0.72357 0.15614 0.62307 0.0
C2218 C 0.74713 0.14248 0.61914 0.0
C2219 C 0.74793 0.1394 0.63474 0.0
C2220 C 0.73604 0.14398 0.64432 0.0
C2221 C 0.72405 0.15236 0.63838 0.0
C2222 C 0.75959 0.13781 0.60858 0.0
C2223 C 0.73633 0.14069 0.66099 0.0
H2224 H 0.7749 0.09865 0.65377 0.0
H2225 H 0.79346 0.14285 0.66031 0.0
H2226 H 0.7401 0.10796 0.64419 0.0
H2227 H 0.74777 0.10903 0.62562 0.0
H2228 H 0.75387 0.09432 0.63824 0.0
H2229 H 0.78332 0.16428 0.64868 0.0
H2230 H 0.77078 0.16159 0.63295 0.0
H2231 H 0.76327 0.16352 0.65152 0.0
H2232 H 0.73466 0.15365 0.60162 0.0
H2233 H 0.71527 0.15634 0.64585 0.0
H2234 H 0.76259 0.12582 0.61035 0.0
H2235 H 0.76979 0.14459 0.61096 0.0
H2236 H 0.75645 0.13944 0.59658 0.0
H2237 H 0.73844 0.12854 0.66297 0.0
H2238 H 0.72564 0.14386 0.66664 0.0
H2239 H 0.74566 0.14703 0.66635 0.0
C2240 C 0.86452 0.22413 0.34537 0.0
C2241 C 0.87999 0.22438 0.34219 0.0
C2242 C 0.85784 0.23527 0.35436 0.0
C2243 C 0.86678 0.24707 0.36025 0.0
C2244 C 0.88247 0.24716 0.3575 0.0
C2245 C 0.8889 0.23578 0.34856 0.0
C2246 C 0.84108 0.23466 0.35715 0.0
C2247 C 0.89238 0.25956 0.36354 0.0
C2248 C 0.84515 0.28312 0.36792 0.0
C2249 C 0.84242 0.28211 0.38345 0.0
C2250 C 0.85363 0.27214 0.36038 0.0
C2251 C 0.85947 0.25973 0.36851 0.0
C2252 C 0.85734 0.25898 0.38429 0.0
C2253 C 0.8489 0.27021 0.39158 0.0
C2254 C 0.85581 0.27349 0.34357 0.0
C2255 C 0.86335 0.24593 0.39335 0.0
H2256 H 0.85755 0.21531 0.34063 0.0
H2257 H 0.90086 0.23612 0.34617 0.0
H2258 H 0.83874 0.23527 0.3694 0.0
H2259 H 0.83557 0.2445 0.35181 0.0
H2260 H 0.83589 0.22424 0.3526 0.0
H2261 H 0.9045 0.25741 0.36137 0.0
H2262 H 0.88925 0.2704 0.35819 0.0
H2263 H 0.89068 0.26088 0.37584 0.0
H2264 H 0.84034 0.29235 0.36155 0.0
H2265 H 0.84685 0.2693 0.40357 0.0
H2266 H 0.84969 0.26426 0.3378 0.0
H2267 H 0.86789 0.27233 0.34066 0.0
H2268 H 0.85164 0.28441 0.33912 0.0
H2269 H 0.8573 0.23549 0.39014 0.0
H2270 H 0.86198 0.24769 0.40565 0.0
H2271 H 0.87545 0.24411 0.39088 0.0
C2272 C 0.76836 0.8919 0.3471 0.0
C2273 C 0.78035 0.88389 0.34064 0.0
C2274 C 0.75721 0.88448 0.35552 0.0
C2275 C 0.7582 0.86873 0.35772 0.0
C2276 C 0.77065 0.86071 0.35183 0.0
C2277 C 0.78149 0.86836 0.34327 0.0
C2278 C 0.74405 0.8934 0.3615 0.0
C2279 C 0.77227 0.84395 0.35414 0.0
C2280 C 0.73496 0.84914 0.3879 0.0
C2281 C 0.72358 0.84237 0.37927 0.0
C2282 C 0.74614 0.85803 0.38111 0.0
C2283 C 0.74581 0.8604 0.36536 0.0
C2284 C 0.73401 0.85409 0.35669 0.0
C2285 C 0.72312 0.84507 0.36372 0.0
C2286 C 0.75861 0.86442 0.39071 0.0
C2287 C 0.73311 0.85654 0.33989 0.0
H2288 H 0.76735 0.90389 0.34507 0.0
H2289 H 0.79079 0.86211 0.33845 0.0
H2290 H 0.73358 0.88976 0.35574 0.0
H2291 H 0.74251 0.89123 0.3737 0.0
H2292 H 0.74547 0.9057 0.35977 0.0
H2293 H 0.78318 0.8396 0.34985 0.0
H2294 H 0.77134 0.84115 0.36627 0.0
H2295 H 0.76303 0.83798 0.34822 0.0
H2296 H 0.73544 0.84706 0.39991 0.0
H2297 H 0.7143 0.84001 0.35699 0.0
H2298 H 0.75965 0.87672 0.38886 0.0
H2299 H 0.76949 0.85925 0.38741 0.0
H2300 H 0.75675 0.86234 0.4029 0.0
H2301 H 0.73353 0.86875 0.33729 0.0
H2302 H 0.72268 0.85175 0.33495 0.0
H2303 H 0.74293 0.8512 0.33432 0.0
C2304 C 0.15756 0.73319 0.39098 0.0
C2305 C 0.16318 0.72094 0.38272 0.0
C2306 C 0.14897 0.7445 0.38399 0.0
C2307 C 0.14576 0.74346 0.36842 0.0
C2308 C 0.15091 0.73083 0.36016 0.0
C2309 C 0.15962 0.71979 0.36737 0.0
C2310 C 0.14379 0.75783 0.39317 0.0
C2311 C 0.14755 0.72918 0.34358 0.0
C2312 C 0.11445 0.76683 0.35079 0.0
C2313 C 0.12264 0.77817 0.34344 0.0
C2314 C 0.12178 0.75563 0.35925 0.0
C2315 C 0.13766 0.75587 0.36054 0.0
C2316 C 0.14592 0.76763 0.35364 0.0
C2317 C 0.13834 0.77856 0.34512 0.0
C2318 C 0.11257 0.74324 0.36633 0.0
C2319 C 0.16285 0.76843 0.35491 0.0
H2320 H 0.16029 0.73422 0.40282 0.0
H2321 H 0.16378 0.71031 0.36092 0.0
H2322 H 0.14928 0.76822 0.38895 0.0
H2323 H 0.13147 0.7594 0.39194 0.0
H2324 H 0.14647 0.75656 0.40532 0.0
H2325 H 0.15155 0.71825 0.33899 0.0
H2326 H 0.13527 0.7301 0.34156 0.0
H2327 H 0.15307 0.7384 0.33722 0.0
H2328 H 0.10233 0.76637 0.34953 0.0
H2329 H 0.14476 0.78734 0.33959 0.0
H2330 H 0.11524 0.74227 0.37849 0.0
H2331 H 0.11548 0.73231 0.36103 0.0
H2332 H 0.10029 0.74514 0.36506 0.0
H2333 H 0.16629 0.76805 0.36691 0.0
H2334 H 0.16751 0.77881 0.34974 0.0
H2335 H 0.16797 0.75853 0.34927 0.0
C2336 C 0.21967 0.13274 0.34645 0.0
C2337 C 0.22004 0.11722 0.34359 0.0
C2338 C 0.23077 0.13968 0.35529 0.0
C2339 C 0.24269 0.13093 0.36125 0.0
C2340 C 0.2428 0.11516 0.35894 0.0
C2341 C 0.23141 0.10847 0.35022 0.0
C2342 C 0.23007 0.15649 0.35772 0.0
C2343 C 0.25536 0.10546 0.36499 0.0
C2344 C 0.27875 0.15305 0.36708 0.0
C2345 C 0.27828 0.1561 0.38256 0.0
C2346 C 0.2676 0.14425 0.36015 0.0
C2347 C 0.25555 0.13853 0.36887 0.0
C2348 C 0.25532 0.14106 0.3846 0.0
C2349 C 0.26675 0.14973 0.39128 0.0
C2350 C 0.26842 0.14159 0.34338 0.0
C2351 C 0.24261 0.13527 0.39426 0.0
H2352 H 0.21086 0.13956 0.34148 0.0
H2353 H 0.23183 0.09648 0.34801 0.0
H2354 H 0.23119 0.15916 0.36987 0.0
H2355 H 0.2396 0.16198 0.3518 0.0
H2356 H 0.2194 0.16145 0.35349 0.0
H2357 H 0.25307 0.09326 0.36347 0.0
H2358 H 0.26599 0.10826 0.35908 0.0
H2359 H 0.25717 0.10772 0.37714 0.0
H2360 H 0.28768 0.15781 0.36027 0.0
H2361 H 0.26625 0.15209 0.40324 0.0
H2362 H 0.25899 0.14752 0.33773 0.0
H2363 H 0.26723 0.12942 0.34087 0.0
H2364 H 0.27917 0.14567 0.33846 0.0
H2365 H 0.23206 0.14124 0.39127 0.0
H2366 H 0.2448 0.13695 0.40646 0.0
H2367 H 0.24072 0.12311 0.39217 0.0
C2368 C 0.65632 0.89312 0.77151 0.0
C2369 C 0.66249 0.88443 0.78319 0.0
C2370 C 0.64795 0.88642 0.75989 0.0
C2371 C 0.64555 0.87067 0.76002 0.0
C2372 C 0.65117 0.86194 0.77212 0.0
C2373 C 0.65962 0.8689 0.78351 0.0
C2374 C 0.64221 0.8961 0.74716 0.0
C2375 C 0.6487 0.84514 0.77277 0.0
C2376 C 0.61581 0.85212 0.73546 0.0
C2377 C 0.62467 0.84577 0.72402 0.0
C2378 C 0.62236 0.8607 0.74702 0.0
C2379 C 0.63811 0.86311 0.74705 0.0
C2380 C 0.64697 0.85744 0.73508 0.0
C2381 C 0.64016 0.84879 0.72377 0.0
C2382 C 0.61254 0.86653 0.7596 0.0
C2383 C 0.66377 0.85996 0.73456 0.0
H2384 H 0.65848 0.90512 0.77111 0.0
H2385 H 0.66421 0.86211 0.79254 0.0
H2386 H 0.64816 0.89307 0.73661 0.0
H2387 H 0.63005 0.89404 0.74526 0.0
H2388 H 0.64392 0.90829 0.74934 0.0
H2389 H 0.65282 0.84015 0.78347 0.0
H2390 H 0.63655 0.84251 0.77155 0.0
H2391 H 0.65466 0.83964 0.76328 0.0
H2392 H 0.60384 0.8498 0.73579 0.0
H2393 H 0.64708 0.84405 0.7149 0.0
H2394 H 0.61468 0.87867 0.76154 0.0
H2395 H 0.61535 0.86053 0.77019 0.0
H2396 H 0.60038 0.86491 0.75723 0.0
H2397 H 0.66636 0.87211 0.73579 0.0
H2398 H 0.66885 0.85584 0.7239 0.0
H2399 H 0.6692 0.85401 0.74409 0.0
C2400 C 0.15846 0.63363 0.71493 0.0
C2401 C 0.16108 0.61806 0.71557 0.0
C2402 C 0.14977 0.64091 0.72594 0.0
C2403 C 0.14363 0.63246 0.73798 0.0
C2404 C 0.14561 0.61666 0.73831 0.0
C2405 C 0.15425 0.60963 0.72707 0.0
C2406 C 0.14777 0.65777 0.72506 0.0
C2407 C 0.13927 0.60726 0.75097 0.0
C2408 C 0.13867 0.65448 0.77425 0.0
C2409 C 0.12326 0.65793 0.77398 0.0
C2410 C 0.14528 0.64575 0.76288 0.0
C2411 C 0.13632 0.6404 0.75084 0.0
C2412 C 0.12067 0.64337 0.75075 0.0
C2413 C 0.1143 0.65204 0.76237 0.0
C2414 C 0.16199 0.64268 0.76351 0.0
C2415 C 0.11075 0.63789 0.73809 0.0
H2416 H 0.16354 0.64023 0.70602 0.0
H2417 H 0.15619 0.5976 0.7277 0.0
H2418 H 0.13571 0.66077 0.72622 0.0
H2419 H 0.15389 0.66321 0.73449 0.0
H2420 H 0.15206 0.66248 0.7143 0.0
H2421 H 0.14045 0.595 0.74879 0.0
H2422 H 0.14526 0.60998 0.76158 0.0
H2423 H 0.1272 0.60988 0.75274 0.0
H2424 H 0.14567 0.65884 0.78323 0.0
H2425 H 0.1024 0.65467 0.76204 0.0
H2426 H 0.16766 0.64827 0.75389 0.0
H2427 H 0.16417 0.63042 0.76251 0.0
H2428 H 0.16718 0.6468 0.77411 0.0
H2429 H 0.11397 0.64365 0.72749 0.0
H2430 H 0.09864 0.64008 0.74029 0.0
H2431 H 0.11237 0.62564 0.73629 0.0
C2432 C 0.34018 0.13196 0.78313 0.0
C2433 C 0.33844 0.11628 0.78278 0.0
C2434 C 0.34849 0.13947 0.77198 0.0
C2435 C 0.35506 0.13113 0.76009 0.0
C2436 C 0.35361 0.11528 0.75983 0.0
C2437 C 0.3454 0.10804 0.77122 0.0
C2438 C 0.34996 0.15639 0.77275 0.0
C2439 C 0.36032 0.106 0.74727 0.0
C2440 C 0.36126 0.15305 0.72397 0.0
C2441 C 0.37663 0.15653 0.72484 0.0
C2442 C 0.35424 0.14433 0.73509 0.0
C2443 C 0.36274 0.13911 0.74751 0.0
C2444 C 0.37838 0.1421 0.74819 0.0
C2445 C 0.38517 0.1507 0.73678 0.0
C2446 C 0.33759 0.14114 0.73381 0.0
C2447 C 0.3878 0.1368 0.7613 0.0
H2448 H 0.33495 0.13841 0.79207 0.0
H2449 H 0.34409 0.09592 0.7708 0.0
H2450 H 0.36198 0.15969 0.77216 0.0
H2451 H 0.3442 0.16156 0.76295 0.0
H2452 H 0.34501 0.16112 0.78321 0.0
H2453 H 0.35888 0.09372 0.74913 0.0
H2454 H 0.35489 0.10904 0.73644 0.0
H2455 H 0.3725 0.10846 0.74611 0.0
H2456 H 0.35461 0.15741 0.71472 0.0
H2457 H 0.39703 0.15342 0.73759 0.0
H2458 H 0.3315 0.14683 0.7431 0.0
H2459 H 0.33545 0.12889 0.7349 0.0
H2460 H 0.33284 0.14508 0.72294 0.0
H2461 H 0.38401 0.14251 0.77174 0.0
H2462 H 0.39996 0.13918 0.75965 0.0
H2463 H 0.38632 0.12453 0.76303 0.0
C2464 C 0.86218 0.34693 0.77983 0.0
C2465 C 0.87761 0.34379 0.77853 0.0
C2466 C 0.85461 0.35542 0.76886 0.0
C2467 C 0.86259 0.3608 0.75616 0.0
C2468 C 0.87824 0.35801 0.75496 0.0
C2469 C 0.88558 0.34962 0.7662 0.0
C2470 C 0.83797 0.35833 0.7707 0.0
C2471 C 0.88713 0.36345 0.74154 0.0
C2472 C 0.83892 0.36791 0.7212 0.0
C2473 C 0.83701 0.38359 0.72163 0.0
C2474 C 0.84758 0.36043 0.73212 0.0
C2475 C 0.85438 0.36878 0.74388 0.0
C2476 C 0.85275 0.38463 0.74422 0.0
C2477 C 0.84417 0.39185 0.73306 0.0
C2478 C 0.84919 0.34353 0.73123 0.0
C2479 C 0.8597 0.39392 0.75663 0.0
H2480 H 0.85594 0.34258 0.78936 0.0
H2481 H 0.89748 0.34721 0.76505 0.0
H2482 H 0.83562 0.37057 0.76986 0.0
H2483 H 0.83167 0.3527 0.76151 0.0
H2484 H 0.8336 0.35417 0.78165 0.0
H2485 H 0.89934 0.36103 0.74265 0.0
H2486 H 0.88289 0.35792 0.73118 0.0
H2487 H 0.88561 0.37576 0.74006 0.0
H2488 H 0.83355 0.36143 0.71237 0.0
H2489 H 0.84274 0.40395 0.73354 0.0
H2490 H 0.84383 0.33826 0.7412 0.0
H2491 H 0.86126 0.34035 0.73139 0.0
H2492 H 0.84394 0.33879 0.72092 0.0
H2493 H 0.85469 0.39069 0.76761 0.0
H2494 H 0.85797 0.40618 0.75492 0.0
H2495 H 0.87195 0.39166 0.75736 0.0
C2496 C 0.65722 0.13367 0.22409 0.0
C2497 C 0.65922 0.11801 0.22385 0.0
C2498 C 0.64852 0.1406 0.23529 0.0
C2499 C 0.64176 0.13169 0.24664 0.0
C2500 C 0.64328 0.11584 0.24618 0.0
C2501 C 0.65193 0.10917 0.23473 0.0
C2502 C 0.647 0.15753 0.23525 0.0
C2503 C 0.63633 0.10597 0.25813 0.0
C2504 C 0.63582 0.15305 0.28306 0.0
C2505 C 0.62063 0.15723 0.28195 0.0
C2506 C 0.6426 0.14401 0.27205 0.0
C2507 C 0.63405 0.13916 0.2595 0.0
C2508 C 0.61853 0.14266 0.25872 0.0
C2509 C 0.61197 0.15159 0.27002 0.0
C2510 C 0.65913 0.14031 0.27345 0.0
C2511 C 0.60905 0.13775 0.2455 0.0
H2512 H 0.66268 0.14057 0.21564 0.0
H2513 H 0.65343 0.09706 0.23466 0.0
H2514 H 0.63496 0.16079 0.23591 0.0
H2515 H 0.6527 0.16229 0.24529 0.0
H2516 H 0.65198 0.16272 0.22503 0.0
H2517 H 0.6374 0.09381 0.25543 0.0
H2518 H 0.64193 0.10812 0.26908 0.0
H2519 H 0.62424 0.10872 0.25956 0.0
H2520 H 0.64255 0.15724 0.29234 0.0
H2521 H 0.60024 0.1548 0.26904 0.0
H2522 H 0.66552 0.1463 0.26455 0.0
H2523 H 0.66101 0.12808 0.2718 0.0
H2524 H 0.66379 0.14362 0.28457 0.0
H2525 H 0.61261 0.14401 0.2353 0.0
H2526 H 0.59688 0.13985 0.2474 0.0
H2527 H 0.61072 0.1256 0.24317 0.0
C2528 C 0.86261 0.65753 0.22541 0.0
C2529 C 0.8779 0.66135 0.22645 0.0
C2530 C 0.85569 0.64848 0.23634 0.0
C2531 C 0.86421 0.64321 0.24874 0.0
C2532 C 0.87974 0.64667 0.24966 0.0
C2533 C 0.88643 0.65563 0.23845 0.0
C2534 C 0.83916 0.64487 0.23481 0.0
C2535 C 0.88917 0.64133 0.26274 0.0
C2536 C 0.84138 0.63429 0.28379 0.0
C2537 C 0.84 0.61858 0.2829 0.0
C2538 C 0.84966 0.64238 0.27303 0.0
C2539 C 0.85663 0.63461 0.26098 0.0
C2540 C 0.8556 0.61873 0.26021 0.0
C2541 C 0.84737 0.6109 0.27121 0.0
C2542 C 0.85064 0.6593 0.27435 0.0
C2543 C 0.86277 0.61004 0.24748 0.0
H2544 H 0.85595 0.66178 0.21612 0.0
H2545 H 0.89823 0.65856 0.23938 0.0
H2546 H 0.83738 0.63252 0.23539 0.0
H2547 H 0.83283 0.64999 0.24429 0.0
H2548 H 0.83434 0.6491 0.22408 0.0
H2549 H 0.90124 0.64429 0.2614 0.0
H2550 H 0.88496 0.64648 0.27332 0.0
H2551 H 0.8882 0.62895 0.26401 0.0
H2552 H 0.83585 0.64033 0.29283 0.0
H2553 H 0.84637 0.59877 0.27038 0.0
H2554 H 0.84483 0.66462 0.26466 0.0
H2555 H 0.86257 0.66296 0.27399 0.0
H2556 H 0.84546 0.66354 0.2849 0.0
H2557 H 0.85737 0.61322 0.23667 0.0
H2558 H 0.86169 0.59767 0.24898 0.0
H2559 H 0.87487 0.61292 0.24656 0.0
C2560 C 0.34773 0.89336 0.23062 0.0
C2561 C 0.34113 0.88492 0.21902 0.0
C2562 C 0.3564 0.88636 0.24186 0.0
C2563 C 0.3587 0.8706 0.24133 0.0
C2564 C 0.35274 0.86216 0.22919 0.0
C2565 C 0.34393 0.8694 0.21826 0.0
C2566 C 0.36243 0.89572 0.2547 0.0
C2567 C 0.35518 0.84538 0.22804 0.0
C2568 C 0.38891 0.85176 0.26514 0.0
C2569 C 0.38028 0.84528 0.27668 0.0
C2570 C 0.38211 0.86034 0.25371 0.0
C2571 C 0.36635 0.86268 0.25397 0.0
C2572 C 0.3577 0.85671 0.26595 0.0
C2573 C 0.36474 0.84799 0.27707 0.0
C2574 C 0.39169 0.86638 0.24105 0.0
C2575 C 0.3409 0.85916 0.26678 0.0
H2576 H 0.34554 0.90534 0.23135 0.0
H2577 H 0.33898 0.86282 0.20925 0.0
H2578 H 0.35661 0.89251 0.26527 0.0
H2579 H 0.3746 0.89352 0.25636 0.0
H2580 H 0.36077 0.90797 0.25281 0.0
H2581 H 0.35097 0.84071 0.21724 0.0
H2582 H 0.36732 0.84268 0.22911 0.0
H2583 H 0.34925 0.83963 0.23741 0.0
H2584 H 0.40091 0.84966 0.26469 0.0
H2585 H 0.35801 0.84314 0.28602 0.0
H2586 H 0.38974 0.87862 0.23958 0.0
H2587 H 0.38848 0.8608 0.23035 0.0
H2588 H 0.40389 0.86447 0.24303 0.0
H2589 H 0.33827 0.87134 0.26596 0.0
H2590 H 0.33598 0.85472 0.27738 0.0
H2591 H 0.33534 0.85349 0.25715 0.0
C2592 C 0.15492 0.39259 0.26802 0.0
C2593 C 0.1604 0.38449 0.28043 0.0
C2594 C 0.14648 0.38543 0.25669 0.0
C2595 C 0.1433 0.36986 0.2579 0.0
C2596 C 0.14814 0.36183 0.27079 0.0
C2597 C 0.15669 0.36921 0.28183 0.0
C2598 C 0.1416 0.39438 0.2431 0.0
C2599 C 0.14477 0.34527 0.27265 0.0
C2600 C 0.11313 0.35132 0.23378 0.0
C2601 C 0.12183 0.3438 0.22293 0.0
C2602 C 0.11991 0.36016 0.24502 0.0
C2603 C 0.13576 0.36168 0.24532 0.0
C2604 C 0.14455 0.35464 0.23404 0.0
C2605 C 0.13751 0.34573 0.22305 0.0
C2606 C 0.11015 0.36739 0.2569 0.0
C2607 C 0.16148 0.35615 0.23384 0.0
H2608 H 0.15778 0.40438 0.26679 0.0
H2609 H 0.16076 0.36288 0.29144 0.0
H2610 H 0.14769 0.39027 0.233 0.0
H2611 H 0.12941 0.39277 0.24098 0.0
H2612 H 0.14387 0.4066 0.24442 0.0
H2613 H 0.14829 0.34095 0.28384 0.0
H2614 H 0.13256 0.34315 0.2712 0.0
H2615 H 0.15075 0.33875 0.26383 0.0
H2616 H 0.10102 0.34988 0.23384 0.0
H2617 H 0.14433 0.34008 0.21466 0.0
H2618 H 0.11271 0.37958 0.25781 0.0
H2619 H 0.1126 0.36226 0.26801 0.0
H2620 H 0.09796 0.36602 0.25449 0.0
H2621 H 0.16474 0.3682 0.23413 0.0
H2622 H 0.16659 0.35086 0.22373 0.0
H2623 H 0.1663 0.35074 0.24401 0.0
C2624 C 0.76597 0.65563 0.88918 0.0
C2625 C 0.779 0.65973 0.88127 0.0
C2626 C 0.75437 0.64753 0.8821 0.0
C2627 C 0.75603 0.64311 0.86687 0.0
C2628 C 0.76952 0.64653 0.8591 0.0
C2629 C 0.78075 0.65498 0.86633 0.0
C2630 C 0.74006 0.64436 0.89068 0.0
C2631 C 0.7719 0.64169 0.84299 0.0
C2632 C 0.73054 0.61309 0.85004 0.0
C2633 C 0.72055 0.62179 0.8414 0.0
C2634 C 0.74195 0.61986 0.85865 0.0
C2635 C 0.74334 0.63573 0.85875 0.0
C2636 C 0.73296 0.6446 0.85053 0.0
C2637 C 0.72175 0.63753 0.84192 0.0
C2638 C 0.75286 0.61001 0.86718 0.0
C2639 C 0.73394 0.66157 0.85049 0.0
H2640 H 0.76449 0.65943 0.90067 0.0
H2641 H 0.79084 0.65808 0.86021 0.0
H2642 H 0.73061 0.65067 0.8855 0.0
H2643 H 0.7372 0.63223 0.89006 0.0
H2644 H 0.74092 0.64767 0.90271 0.0
H2645 H 0.78351 0.64406 0.839 0.0
H2646 H 0.76966 0.62947 0.84177 0.0
H2647 H 0.76386 0.64771 0.83557 0.0
H2648 H 0.72978 0.60092 0.84972 0.0
H2649 H 0.71406 0.64438 0.83537 0.0
H2650 H 0.75335 0.61347 0.87917 0.0
H2651 H 0.76433 0.6114 0.86246 0.0
H2652 H 0.74976 0.59791 0.86663 0.0
H2653 H 0.73401 0.6659 0.86221 0.0
H2654 H 0.72444 0.66686 0.84433 0.0
H2655 H 0.74462 0.66516 0.84513 0.0
C2656 C 0.76911 0.35336 0.1064 0.0
C2657 C 0.7798 0.34689 0.11608 0.0
C2658 C 0.7575 0.36251 0.11205 0.0
C2659 C 0.75662 0.3653 0.12771 0.0
C2660 C 0.768 0.35969 0.13735 0.0
C2661 C 0.77942 0.35056 0.13143 0.0
C2662 C 0.74565 0.36838 0.10138 0.0
C2663 C 0.76762 0.36255 0.15411 0.0
C2664 C 0.73112 0.39425 0.14616 0.0
C2665 C 0.7198 0.38498 0.15214 0.0
C2666 C 0.74278 0.38819 0.13734 0.0
C2667 C 0.74305 0.37253 0.13439 0.0
C2668 C 0.73103 0.36336 0.13941 0.0
C2669 C 0.71959 0.36968 0.14823 0.0
C2670 C 0.75531 0.39836 0.13209 0.0
C2671 C 0.73077 0.34664 0.13634 0.0
H2672 H 0.7693 0.35064 0.09451 0.0
H2673 H 0.78774 0.34579 0.13898 0.0
H2674 H 0.73509 0.36191 0.10296 0.0
H2675 H 0.74308 0.38036 0.10378 0.0
H2676 H 0.74917 0.36732 0.08943 0.0
H2677 H 0.77803 0.35864 0.15982 0.0
H2678 H 0.76613 0.37473 0.15642 0.0
H2679 H 0.75787 0.35658 0.15914 0.0
H2680 H 0.73139 0.40609 0.1491 0.0
H2681 H 0.71079 0.36247 0.15262 0.0
H2682 H 0.75832 0.39592 0.12022 0.0
H2683 H 0.76549 0.3963 0.13903 0.0
H2684 H 0.75225 0.41045 0.13308 0.0
H2685 H 0.73273 0.34439 0.12422 0.0
H2686 H 0.71992 0.34139 0.13967 0.0
H2687 H 0.73995 0.34108 0.14272 0.0
C2688 C 0.65959 0.77618 0.13516 0.0
C2689 C 0.66171 0.77607 0.11951 0.0
C2690 C 0.65067 0.76527 0.14228 0.0
C2691 C 0.64378 0.75383 0.13358 0.0
C2692 C 0.64549 0.75389 0.11773 0.0
C2693 C 0.65437 0.76506 0.11087 0.0
C2694 C 0.64898 0.76575 0.15919 0.0
C2695 C 0.63839 0.74185 0.10808 0.0
C2696 C 0.63614 0.71787 0.15536 0.0
C2697 C 0.62086 0.71941 0.15903 0.0
C2698 C 0.64354 0.72865 0.1465 0.0
C2699 C 0.63554 0.7414 0.14128 0.0
C2700 C 0.61997 0.74274 0.14443 0.0
C2701 C 0.6128 0.7317 0.1532 0.0
C2702 C 0.6601 0.72668 0.14324 0.0
C2703 C 0.61105 0.7562 0.13912 0.0
H2704 H 0.66508 0.78472 0.14193 0.0
H2705 H 0.65597 0.76485 0.09878 0.0
H2706 H 0.6369 0.76556 0.16232 0.0
H2707 H 0.65429 0.75563 0.16424 0.0
H2708 H 0.65425 0.77591 0.16421 0.0
H2709 H 0.63988 0.74407 0.09587 0.0
H2710 H 0.64352 0.73078 0.11076 0.0
H2711 H 0.62619 0.74096 0.11054 0.0
H2712 H 0.64243 0.70834 0.15965 0.0
H2713 H 0.601 0.73302 0.15597 0.0
H2714 H 0.66661 0.7356 0.14906 0.0
H2715 H 0.66227 0.72786 0.131 0.0
H2716 H 0.66439 0.71555 0.147 0.0
H2717 H 0.61509 0.76645 0.145 0.0
H2718 H 0.59882 0.75492 0.14132 0.0
H2719 H 0.61277 0.75801 0.12689 0.0
C2720 C 0.28002 0.63788 0.16057 0.0
C2721 C 0.27959 0.6223 0.16306 0.0
C2722 C 0.2688 0.6451 0.15208 0.0
C2723 C 0.25671 0.63658 0.14614 0.0
C2724 C 0.25632 0.62081 0.14841 0.0
C2725 C 0.26782 0.61385 0.15673 0.0
C2726 C 0.26976 0.6619 0.14969 0.0
C2727 C 0.24352 0.61136 0.14245 0.0
C2728 C 0.22074 0.65852 0.13882 0.0
C2729 C 0.2214 0.66082 0.12321 0.0
C2730 C 0.23189 0.65022 0.14633 0.0
C2731 C 0.24417 0.64428 0.13808 0.0
C2732 C 0.24471 0.64622 0.12227 0.0
C2733 C 0.23325 0.65436 0.11501 0.0
C2734 C 0.23073 0.64814 0.16316 0.0
C2735 C 0.25769 0.64021 0.11311 0.0
H2736 H 0.28912 0.64448 0.16532 0.0
H2737 H 0.26733 0.60182 0.15866 0.0
H2738 H 0.26908 0.66454 0.1375 0.0
H2739 H 0.26009 0.66751 0.15525 0.0
H2740 H 0.28033 0.66675 0.15426 0.0
H2741 H 0.24517 0.59917 0.1447 0.0
H2742 H 0.23281 0.61498 0.14775 0.0
H2743 H 0.2423 0.61302 0.13014 0.0
H2744 H 0.21157 0.66339 0.14523 0.0
H2745 H 0.23392 0.65619 0.10296 0.0
H2746 H 0.24017 0.65405 0.16879 0.0
H2747 H 0.23165 0.63603 0.16608 0.0
H2748 H 0.21997 0.65256 0.16775 0.0
H2749 H 0.26825 0.64587 0.11662 0.0
H2750 H 0.25608 0.64203 0.10084 0.0
H2751 H 0.25917 0.62799 0.11518 0.0
C2752 C 0.34737 0.23033 0.10989 0.0
C2753 C 0.34081 0.21846 0.11799 0.0
C2754 C 0.35584 0.24151 0.11722 0.0
C2755 C 0.35799 0.24067 0.13299 0.0
C2756 C 0.35196 0.22835 0.14111 0.0
C2757 C 0.34335 0.21747 0.13354 0.0
C2758 C 0.36195 0.25454 0.10819 0.0
C2759 C 0.35421 0.2269 0.15789 0.0
C2760 C 0.3884 0.2639 0.1523 0.0
C2761 C 0.37988 0.27543 0.15895 0.0
C2762 C 0.3815 0.25266 0.14354 0.0
C2763 C 0.36574 0.2531 0.14119 0.0
C2764 C 0.3572 0.26507 0.14734 0.0
C2765 C 0.36434 0.276 0.15623 0.0
C2766 C 0.39097 0.24001 0.13732 0.0
C2767 C 0.34041 0.2661 0.14488 0.0
H2768 H 0.34541 0.23125 0.09789 0.0
H2769 H 0.33844 0.20827 0.13987 0.0
H2770 H 0.35631 0.2651 0.11175 0.0
H2771 H 0.37416 0.25596 0.11032 0.0
H2772 H 0.36017 0.25303 0.0959 0.0
H2773 H 0.3498 0.21608 0.16235 0.0
H2774 H 0.36634 0.22773 0.16071 0.0
H2775 H 0.34838 0.23627 0.16374 0.0
H2776 H 0.4004 0.26331 0.15441 0.0
H2777 H 0.35769 0.28493 0.16121 0.0
H2778 H 0.38909 0.23881 0.12504 0.0
H2779 H 0.38759 0.22924 0.14265 0.0
H2780 H 0.40318 0.24179 0.13935 0.0
H2781 H 0.3378 0.26552 0.13268 0.0
H2782 H 0.33558 0.27666 0.14952 0.0
H2783 H 0.33476 0.25641 0.15036 0.0
C2784 C 0.28106 0.36435 0.84641 0.0
C2785 C 0.28065 0.38 0.84431 0.0
C2786 C 0.27 0.35698 0.85498 0.0
C2787 C 0.25809 0.36541 0.86142 0.0
C2788 C 0.25784 0.38125 0.8597 0.0
C2789 C 0.26918 0.38836 0.85127 0.0
C2790 C 0.27083 0.3401 0.85678 0.0
C2791 C 0.24526 0.39063 0.86621 0.0
C2792 C 0.22191 0.34353 0.86772 0.0
C2793 C 0.22255 0.34045 0.88319 0.0
C2794 C 0.23312 0.3521 0.86063 0.0
C2795 C 0.24545 0.35752 0.86915 0.0
C2796 C 0.24596 0.35483 0.88485 0.0
C2797 C 0.23443 0.34643 0.89171 0.0
C2798 C 0.23199 0.35498 0.84391 0.0
C2799 C 0.25899 0.36028 0.89429 0.0
H2800 H 0.28992 0.35781 0.84117 0.0
H2801 H 0.2687 0.40044 0.84966 0.0
H2802 H 0.27004 0.33701 0.86885 0.0
H2803 H 0.26117 0.33478 0.85093 0.0
H2804 H 0.2814 0.33535 0.85211 0.0
H2805 H 0.24721 0.40288 0.86471 0.0
H2806 H 0.23449 0.3876 0.86066 0.0
H2807 H 0.24394 0.38825 0.8784 0.0
H2808 H 0.21271 0.33904 0.86107 0.0
H2809 H 0.23509 0.34399 0.90365 0.0
H2810 H 0.24135 0.34921 0.838 0.0
H2811 H 0.23306 0.3672 0.84156 0.0
H2812 H 0.22118 0.35092 0.83912 0.0
H2813 H 0.26946 0.35455 0.89064 0.0
H2814 H 0.25727 0.35805 0.90648 0.0
H2815 H 0.26071 0.37253 0.89266 0.0
C2816 C 0.65274 0.22968 0.89055 0.0
C2817 C 0.66036 0.21842 0.88248 0.0
C2818 C 0.64437 0.24083 0.88311 0.0
C2819 C 0.64342 0.24063 0.86721 0.0
C2820 C 0.6505 0.22892 0.85904 0.0
C2821 C 0.65896 0.21801 0.86675 0.0
C2822 C 0.63709 0.25319 0.89222 0.0
C2823 C 0.64958 0.22818 0.84208 0.0
C2824 C 0.61391 0.26414 0.84688 0.0
C2825 C 0.62256 0.27628 0.84167 0.0
C2826 C 0.62046 0.25254 0.85544 0.0
C2827 C 0.63597 0.25323 0.85903 0.0
C2828 C 0.6446 0.26576 0.85431 0.0
C2829 C 0.63783 0.27706 0.84562 0.0
C2830 C 0.61091 0.23931 0.86017 0.0
C2831 C 0.66112 0.26705 0.85811 0.0
H2832 H 0.65377 0.23014 0.9027 0.0
H2833 H 0.66467 0.20929 0.86042 0.0
H2834 H 0.64262 0.26409 0.88965 0.0
H2835 H 0.62505 0.25434 0.88915 0.0
H2836 H 0.63791 0.25112 0.90452 0.0
H2837 H 0.65465 0.21771 0.83751 0.0
H2838 H 0.63768 0.22883 0.83837 0.0
H2839 H 0.65555 0.23796 0.83713 0.0
H2840 H 0.60213 0.2634 0.8438 0.0
H2841 H 0.64457 0.28646 0.84175 0.0
H2842 H 0.61183 0.2375 0.87249 0.0
H2843 H 0.61507 0.22894 0.85459 0.0
H2844 H 0.59887 0.24087 0.85722 0.0
H2845 H 0.6628 0.26597 0.87044 0.0
H2846 H 0.66602 0.27791 0.85435 0.0
H2847 H 0.66743 0.25775 0.85267 0.0
C2848 C 0.34119 0.77834 0.86547 0.0
C2849 C 0.33804 0.77796 0.88094 0.0
C2850 C 0.35024 0.7673 0.85872 0.0
C2851 C 0.35623 0.7555 0.86761 0.0
C2852 C 0.35357 0.75535 0.88331 0.0
C2853 C 0.34455 0.7666 0.8898 0.0
C2854 C 0.35293 0.76796 0.84194 0.0
C2855 C 0.35974 0.74295 0.89316 0.0
C2856 C 0.36306 0.71954 0.84572 0.0
C2857 C 0.37852 0.72045 0.84261 0.0
C2858 C 0.35584 0.7305 0.85446 0.0
C2859 C 0.36423 0.74278 0.86019 0.0
C2860 C 0.37997 0.74337 0.85776 0.0
C2861 C 0.38695 0.73215 0.84905 0.0
C2862 C 0.33907 0.72932 0.85696 0.0
C2863 C 0.38929 0.75628 0.86369 0.0
H2864 H 0.33636 0.78714 0.85854 0.0
H2865 H 0.34221 0.7662 0.90177 0.0
H2866 H 0.36515 0.76724 0.8395 0.0
H2867 H 0.34744 0.7582 0.83642 0.0
H2868 H 0.34844 0.77845 0.83683 0.0
H2869 H 0.35787 0.7452 0.90531 0.0
H2870 H 0.3542 0.73215 0.89022 0.0
H2871 H 0.37197 0.74149 0.89118 0.0
H2872 H 0.35648 0.71044 0.84094 0.0
H2873 H 0.39889 0.73297 0.84669 0.0
H2874 H 0.33327 0.73861 0.85095 0.0
H2875 H 0.33639 0.73049 0.8691 0.0
H2876 H 0.33442 0.71845 0.85287 0.0
H2877 H 0.38627 0.76674 0.85758 0.0
H2878 H 0.40155 0.75426 0.86228 0.0
H2879 H 0.3869 0.75822 0.87578 0.0
C2880 C 0.07298 0.22919 0.27588 0.0
C2881 C 0.08751 0.22629 0.28132 0.0
C2882 C 0.0705 0.24052 0.26506 0.0
C2883 C 0.08279 0.24932 0.25994 0.0
C2884 C 0.09731 0.24688 0.26603 0.0
C2885 C 0.0995 0.23529 0.27647 0.0
C2886 C 0.05493 0.24262 0.25865 0.0
C2887 C 0.11067 0.25622 0.26119 0.0
C2888 C 0.08664 0.26692 0.22145 0.0
C2889 C 0.08474 0.28222 0.22473 0.0
C2890 C 0.0846 0.25591 0.23257 0.0
C2891 C 0.081 0.26036 0.24745 0.0
C2892 C 0.07811 0.27573 0.25059 0.0
C2893 C 0.07985 0.2865 0.23911 0.0
C2894 C 0.0874 0.23962 0.22863 0.0
C2895 C 0.07445 0.28098 0.26632 0.0
H2896 H 0.0637 0.22221 0.27962 0.0
H2897 H 0.11071 0.23323 0.28085 0.0
H2898 H 0.0517 0.25467 0.25882 0.0
H2899 H 0.05483 0.23892 0.24673 0.0
H2900 H 0.04634 0.23604 0.26492 0.0
H2901 H 0.12088 0.25377 0.26798 0.0
H2902 H 0.11328 0.25393 0.24919 0.0
H2903 H 0.10804 0.26838 0.2622 0.0
H2904 H 0.09025 0.26358 0.21028 0.0
H2905 H 0.07843 0.29834 0.24168 0.0
H2906 H 0.07856 0.23232 0.23356 0.0
H2907 H 0.09836 0.23601 0.23341 0.0
H2908 H 0.08771 0.23778 0.21627 0.0
H2909 H 0.066 0.27351 0.27165 0.0
H2910 H 0.07012 0.29272 0.26644 0.0
H2911 H 0.08479 0.28054 0.27331 0.0
C2912 C 0.76905 0.07473 0.2802 0.0
C2913 C 0.77021 0.08967 0.28515 0.0
C2914 C 0.75892 0.07081 0.26866 0.0
C2915 C 0.74957 0.08205 0.26226 0.0
C2916 C 0.75019 0.09696 0.26788 0.0
C2917 C 0.76061 0.1006 0.2791 0.0
C2918 C 0.75876 0.05486 0.26282 0.0
C2919 C 0.74019 0.10924 0.26168 0.0
C2920 C 0.73508 0.08375 0.22245 0.0
C2921 C 0.7197 0.08112 0.22462 0.0
C2922 C 0.74529 0.08245 0.23441 0.0
C2923 C 0.7399 0.07885 0.24896 0.0
C2924 C 0.72457 0.07495 0.25093 0.0
C2925 C 0.71464 0.07598 0.23865 0.0
C2926 C 0.76162 0.08627 0.23171 0.0
C2927 C 0.71832 0.07116 0.26626 0.0
H2928 H 0.77653 0.06628 0.28486 0.0
H2929 H 0.76135 0.11212 0.28309 0.0
H2930 H 0.74706 0.05071 0.26161 0.0
H2931 H 0.76399 0.05457 0.25149 0.0
H2932 H 0.76507 0.04707 0.2703 0.0
H2933 H 0.74114 0.11988 0.26819 0.0
H2934 H 0.74329 0.1116 0.24982 0.0
H2935 H 0.72825 0.10558 0.26178 0.0
H2936 H 0.73904 0.08754 0.21154 0.0
H2937 H 0.70273 0.07397 0.24038 0.0
H2938 H 0.76908 0.07819 0.23762 0.0
H2939 H 0.76402 0.09766 0.23626 0.0
H2940 H 0.76447 0.08622 0.21953 0.0
H2941 H 0.72606 0.06361 0.2725 0.0
H2942 H 0.7071 0.06571 0.26548 0.0
H2943 H 0.71714 0.08167 0.27291 0.0
C2944 C 0.89941 0.7307 0.2377 0.0
C2945 C 0.91064 0.72415 0.22878 0.0
C2946 C 0.90285 0.74198 0.24816 0.0
C2947 C 0.91785 0.74717 0.24948 0.0
C2948 C 0.92932 0.74049 0.24062 0.0
C2949 C 0.9256 0.72888 0.23048 0.0
C2950 C 0.89031 0.74849 0.25764 0.0
C2951 C 0.94537 0.74594 0.24149 0.0
C2952 C 0.91738 0.78662 0.26532 0.0
C2953 C 0.91966 0.78387 0.28068 0.0
C2954 C 0.9183 0.77492 0.25475 0.0
C2955 C 0.92111 0.76004 0.25973 0.0
C2956 C 0.92451 0.75741 0.27509 0.0
C2957 C 0.92392 0.76942 0.28537 0.0
C2958 C 0.91505 0.77831 0.23842 0.0
C2959 C 0.92733 0.74171 0.28094 0.0
H2960 H 0.88787 0.72692 0.23656 0.0
H2961 H 0.93428 0.72384 0.22355 0.0
H2962 H 0.89336 0.74798 0.26974 0.0
H2963 H 0.88859 0.7605 0.25471 0.0
H2964 H 0.87949 0.74244 0.25601 0.0
H2965 H 0.95314 0.73883 0.23475 0.0
H2966 H 0.946 0.75767 0.23724 0.0
H2967 H 0.9493 0.74609 0.25333 0.0
H2968 H 0.91424 0.79782 0.26164 0.0
H2969 H 0.92562 0.76724 0.29726 0.0
H2970 H 0.90356 0.77436 0.23556 0.0
H2971 H 0.92307 0.77228 0.23099 0.0
H2972 H 0.91572 0.79056 0.23598 0.0
H2973 H 0.91652 0.73547 0.28132 0.0
H2974 H 0.93221 0.74183 0.29245 0.0
H2975 H 0.93501 0.73544 0.27337 0.0
C2976 C 0.22994 0.92787 0.27821 0.0
C2977 C 0.228 0.91282 0.28253 0.0
C2978 C 0.24036 0.93175 0.26692 0.0
C2979 C 0.2492 0.92033 0.26015 0.0
C2980 C 0.24773 0.90524 0.26504 0.0
C2981 C 0.23704 0.90167 0.27602 0.0
C2982 C 0.24145 0.94791 0.26182 0.0
C2983 C 0.25716 0.89274 0.2584 0.0
C2984 C 0.26438 0.91972 0.2206 0.0
C2985 C 0.27984 0.92142 0.22317 0.0
C2986 C 0.25402 0.921 0.23241 0.0
C2987 C 0.2593 0.92363 0.24721 0.0
C2988 C 0.27478 0.92659 0.24964 0.0
C2989 C 0.28489 0.9256 0.23751 0.0
C2990 C 0.23757 0.91819 0.22923 0.0
C2991 C 0.2809 0.92931 0.26525 0.0
H2992 H 0.22294 0.9365 0.28325 0.0
H2993 H 0.23575 0.89005 0.27954 0.0
H2994 H 0.25337 0.95155 0.26125 0.0
H2995 H 0.2367 0.94895 0.25032 0.0
H2996 H 0.23522 0.95566 0.26941 0.0
H2997 H 0.25549 0.88186 0.26433 0.0
H2998 H 0.2542 0.89116 0.24637 0.0
H2999 H 0.26927 0.89572 0.25892 0.0
H3000 H 0.26046 0.91667 0.20945 0.0
H3001 H 0.29685 0.92689 0.23952 0.0
H3002 H 0.23042 0.92636 0.23541 0.0
H3003 H 0.23449 0.90674 0.23317 0.0
H3004 H 0.23497 0.91897 0.21703 0.0
H3005 H 0.27346 0.93697 0.2717 0.0
H3006 H 0.29242 0.93416 0.26494 0.0
H3007 H 0.28138 0.91845 0.27141 0.0
C3008 C 0.10133 0.72671 0.76302 0.0
C3009 C 0.09037 0.72036 0.77239 0.0
C3010 C 0.09766 0.73799 0.75265 0.0
C3011 C 0.08269 0.74341 0.75189 0.0
C3012 C 0.07147 0.73689 0.76117 0.0
C3013 C 0.07542 0.72526 0.77121 0.0
C3014 C 0.10993 0.74432 0.74271 0.0
C3015 C 0.05548 0.74257 0.7609 0.0
C3016 C 0.08316 0.78296 0.73633 0.0
C3017 C 0.08026 0.78037 0.72104 0.0
C3018 C 0.08248 0.77119 0.74683 0.0
C3019 C 0.07927 0.75639 0.74184 0.0
C3020 C 0.07526 0.75393 0.7266 0.0
C3021 C 0.07564 0.76602 0.71639 0.0
C3022 C 0.08638 0.77441 0.76305 0.0
C3023 C 0.07198 0.73833 0.72075 0.0
H3024 H 0.11286 0.72278 0.76375 0.0
H3025 H 0.06693 0.72038 0.77849 0.0
H3026 H 0.1064 0.74392 0.73074 0.0
H3027 H 0.11197 0.75628 0.74562 0.0
H3028 H 0.12069 0.73807 0.74389 0.0
H3029 H 0.04784 0.73548 0.7678 0.0
H3030 H 0.05514 0.75425 0.76532 0.0
H3031 H 0.05116 0.74293 0.74919 0.0
H3032 H 0.08659 0.79409 0.73998 0.0
H3033 H 0.07347 0.76396 0.70456 0.0
H3034 H 0.0979 0.77022 0.76546 0.0
H3035 H 0.07853 0.76847 0.77073 0.0
H3036 H 0.08604 0.78664 0.7656 0.0
H3037 H 0.08267 0.73192 0.71991 0.0
H3038 H 0.06667 0.73861 0.70943 0.0
H3039 H 0.0645 0.73211 0.72856 0.0
C3040 C 0.26403 0.08061 0.78566 0.0
C3041 C 0.27932 0.078 0.78287 0.0
C3042 C 0.25337 0.0796 0.77406 0.0
C3043 C 0.2582 0.07635 0.75922 0.0
C3044 C 0.27347 0.07264 0.75656 0.0
C3045 C 0.28384 0.07334 0.76849 0.0
C3046 C 0.23712 0.08321 0.77748 0.0
C3047 C 0.27916 0.06932 0.7409 0.0
C3048 C 0.22831 0.07151 0.72873 0.0
C3049 C 0.22666 0.08639 0.72375 0.0
C3050 C 0.23872 0.0679 0.74014 0.0
C3051 C 0.24787 0.0794 0.74635 0.0
C3052 C 0.24667 0.09429 0.74081 0.0
C3053 C 0.23595 0.09763 0.72975 0.0
C3054 C 0.23947 0.05197 0.74596 0.0
C3055 C 0.25646 0.10684 0.7468 0.0
H3056 H 0.26047 0.08407 0.79681 0.0
H3057 H 0.29568 0.07138 0.76627 0.0
H3058 H 0.23441 0.09462 0.77319 0.0
H3059 H 0.22953 0.07512 0.77176 0.0
H3060 H 0.23477 0.08296 0.78976 0.0
H3061 H 0.29058 0.06424 0.74106 0.0
H3062 H 0.27141 0.06163 0.73487 0.0
H3063 H 0.27968 0.07997 0.73439 0.0
H3064 H 0.22108 0.06283 0.72413 0.0
H3065 H 0.23482 0.10911 0.72576 0.0
H3066 H 0.23523 0.05164 0.7577 0.0
H3067 H 0.25128 0.04794 0.74619 0.0
H3068 H 0.23265 0.0441 0.73904 0.0
H3069 H 0.2537 0.109 0.75878 0.0
H3070 H 0.25495 0.1175 0.74043 0.0
H3071 H 0.26849 0.10356 0.74625 0.0
C3072 C 0.90143 0.27663 0.76665 0.0
C3073 C 0.91281 0.28321 0.77535 0.0
C3074 C 0.90474 0.26563 0.75588 0.0
C3075 C 0.91978 0.26073 0.754 0.0
C3076 C 0.9314 0.26746 0.76262 0.0
C3077 C 0.9278 0.27881 0.77308 0.0
C3078 C 0.89202 0.25905 0.74668 0.0
C3079 C 0.94751 0.26231 0.76116 0.0
C3080 C 0.91959 0.22144 0.73781 0.0
C3081 C 0.92147 0.22436 0.72243 0.0
C3082 C 0.92053 0.23307 0.74844 0.0
C3083 C 0.92292 0.24803 0.74352 0.0
C3084 C 0.92582 0.25088 0.72809 0.0
C3085 C 0.92524 0.23893 0.71773 0.0
C3086 C 0.91781 0.22947 0.76483 0.0
C3087 C 0.92815 0.26668 0.72232 0.0
H3088 H 0.88986 0.28019 0.76821 0.0
H3089 H 0.9366 0.28389 0.77983 0.0
H3090 H 0.8947 0.25975 0.7345 0.0
H3091 H 0.89057 0.24698 0.74951 0.0
H3092 H 0.88117 0.26492 0.74871 0.0
H3093 H 0.95536 0.26945 0.76777 0.0
H3094 H 0.94849 0.25052 0.76518 0.0
H3095 H 0.95106 0.26242 0.74919 0.0
H3096 H 0.91683 0.21013 0.74147 0.0
H3097 H 0.92662 0.24122 0.70582 0.0
H3098 H 0.90636 0.23324 0.76806 0.0
H3099 H 0.92596 0.23553 0.77208 0.0
H3100 H 0.91871 0.21721 0.76712 0.0
H3101 H 0.91723 0.27273 0.72239 0.0
H3102 H 0.93263 0.26677 0.71064 0.0
H3103 H 0.93598 0.273 0.72969 0.0
C3104 C 0.72921 0.93067 0.77687 0.0
C3105 C 0.72336 0.91623 0.77932 0.0
C3106 C 0.74037 0.93311 0.76587 0.0
C3107 C 0.74536 0.92089 0.75689 0.0
C3108 C 0.73897 0.90644 0.75898 0.0
C3109 C 0.72824 0.90427 0.77029 0.0
C3110 C 0.74716 0.94858 0.7642 0.0
C3111 C 0.74362 0.89317 0.7494 0.0
C3112 C 0.76545 0.92432 0.71942 0.0
C3113 C 0.77977 0.9189 0.72321 0.0
C3114 C 0.75428 0.92609 0.73048 0.0
C3115 C 0.75769 0.92273 0.74569 0.0
C3116 C 0.77256 0.91863 0.7497 0.0
C3117 C 0.78336 0.91652 0.73838 0.0
C3118 C 0.73852 0.93019 0.72566 0.0
C3119 C 0.7768 0.91538 0.76583 0.0
H3120 H 0.72543 0.93992 0.78388 0.0
H3121 H 0.72353 0.89313 0.77201 0.0
H3122 H 0.75919 0.94821 0.76753 0.0
H3123 H 0.74675 0.95226 0.75228 0.0
H3124 H 0.74132 0.95709 0.77125 0.0
H3125 H 0.73673 0.88299 0.75171 0.0
H3126 H 0.74256 0.89601 0.73729 0.0
H3127 H 0.75559 0.89038 0.75157 0.0
H3128 H 0.76263 0.9261 0.70768 0.0
H3129 H 0.79449 0.91249 0.74134 0.0
H3130 H 0.73353 0.9386 0.73341 0.0
H3131 H 0.73132 0.91999 0.72606 0.0
H3132 H 0.73823 0.93477 0.71402 0.0
H3133 H 0.77208 0.92407 0.77346 0.0
H3134 H 0.78919 0.91493 0.7674 0.0
H3135 H 0.77202 0.90436 0.76924 0.0
C3136 C 0.22133 0.08349 0.26631 0.0
C3137 C 0.22407 0.08183 0.28174 0.0
C3138 C 0.23305 0.08238 0.25582 0.0
C3139 C 0.24794 0.08001 0.26096 0.0
C3140 C 0.25059 0.07716 0.27643 0.0
C3141 C 0.23854 0.07795 0.28666 0.0
C3142 C 0.22965 0.08508 0.23939 0.0
C3143 C 0.26629 0.07473 0.2824 0.0
C3144 C 0.27867 0.07556 0.23132 0.0
C3145 C 0.28295 0.0906 0.22915 0.0
C3146 C 0.26747 0.07177 0.24188 0.0
C3147 C 0.26073 0.08327 0.25064 0.0
C3148 C 0.26554 0.09836 0.2489 0.0
C3149 C 0.27643 0.10184 0.23808 0.0
C3150 C 0.26247 0.0556 0.24324 0.0
C3151 C 0.25891 0.11096 0.25823 0.0
H3152 H 0.21009 0.08633 0.26249 0.0
H3153 H 0.24068 0.07674 0.29861 0.0
H3154 H 0.23345 0.09654 0.2362 0.0
H3155 H 0.23581 0.07692 0.23222 0.0
H3156 H 0.21743 0.08417 0.23694 0.0
H3157 H 0.2662 0.07005 0.29399 0.0
H3158 H 0.27275 0.06704 0.27499 0.0
H3159 H 0.27232 0.08567 0.28263 0.0
H3160 H 0.2837 0.06684 0.22442 0.0
H3161 H 0.2799 0.11346 0.23663 0.0
H3162 H 0.25082 0.05449 0.23888 0.0
H3163 H 0.26229 0.05206 0.25521 0.0
H3164 H 0.26986 0.04782 0.23683 0.0
H3165 H 0.24684 0.1124 0.25539 0.0
H3166 H 0.26473 0.12186 0.25633 0.0
H3167 H 0.2596 0.10816 0.27038 0.0
C3168 C 0.91824 0.26293 0.21704 0.0
C3169 C 0.92032 0.27831 0.21981 0.0
C3170 C 0.91944 0.25235 0.2287 0.0
C3171 C 0.92231 0.25735 0.24356 0.0
C3172 C 0.92551 0.27275 0.2462 0.0
C3173 C 0.92465 0.28304 0.23422 0.0
C3174 C 0.91639 0.23598 0.2253 0.0
C3175 C 0.92839 0.27861 0.26188 0.0
C3176 C 0.9011 0.23508 0.27304 0.0
C3177 C 0.91248 0.22631 0.27952 0.0
C3178 C 0.90432 0.24555 0.26172 0.0
C3179 C 0.91927 0.24705 0.25643 0.0
C3180 C 0.93089 0.23834 0.26303 0.0
C3181 C 0.92738 0.22818 0.27468 0.0
C3182 C 0.89162 0.25487 0.2553 0.0
C3183 C 0.94689 0.23939 0.25745 0.0
H3184 H 0.91503 0.25923 0.20586 0.0
H3185 H 0.92619 0.29495 0.23642 0.0
H3186 H 0.92454 0.22865 0.23127 0.0
H3187 H 0.90496 0.23297 0.2293 0.0
H3188 H 0.91703 0.23357 0.21304 0.0
H3189 H 0.93312 0.29018 0.26174 0.0
H3190 H 0.91762 0.27884 0.26821 0.0
H3191 H 0.93621 0.27113 0.26808 0.0
H3192 H 0.8896 0.23382 0.27691 0.0
H3193 H 0.93619 0.22138 0.27967 0.0
H3194 H 0.88986 0.25192 0.24329 0.0
H3195 H 0.89451 0.26701 0.25579 0.0
H3196 H 0.88086 0.2531 0.26141 0.0
H3197 H 0.94749 0.23521 0.2457 0.0
H3198 H 0.95479 0.23271 0.26448 0.0
H3199 H 0.95069 0.25128 0.25733 0.0
C3200 C 0.78095 0.91912 0.26452 0.0
C3201 C 0.77818 0.92116 0.27991 0.0
C3202 C 0.7693 0.92032 0.25395 0.0
C3203 C 0.75444 0.92318 0.25895 0.0
C3204 C 0.75179 0.92636 0.27435 0.0
C3205 C 0.76377 0.92547 0.28466 0.0
C3206 C 0.77271 0.91726 0.23759 0.0
C3207 C 0.73612 0.92928 0.28019 0.0
C3208 C 0.72404 0.92813 0.22903 0.0
C3209 C 0.71943 0.91318 0.22696 0.0
C3210 C 0.73524 0.93174 0.23966 0.0
C3211 C 0.74162 0.92016 0.24859 0.0
C3212 C 0.7364 0.90518 0.24699 0.0
C3213 C 0.72553 0.90187 0.23608 0.0
C3214 C 0.74069 0.94777 0.24086 0.0
C3215 C 0.74259 0.89252 0.25652 0.0
H3216 H 0.79213 0.91595 0.26082 0.0
H3217 H 0.76159 0.92699 0.29657 0.0
H3218 H 0.76858 0.90588 0.23454 0.0
H3219 H 0.76684 0.92549 0.23026 0.0
H3220 H 0.78497 0.91777 0.2352 0.0
H3221 H 0.73627 0.93411 0.29172 0.0
H3222 H 0.72991 0.93704 0.27264 0.0
H3223 H 0.7298 0.91851 0.28052 0.0
H3224 H 0.71934 0.93688 0.22195 0.0
H3225 H 0.7218 0.89033 0.23466 0.0
H3226 H 0.75238 0.9485 0.23651 0.0
H3227 H 0.74095 0.95144 0.25279 0.0
H3228 H 0.73353 0.95568 0.23435 0.0
H3229 H 0.75461 0.89065 0.25374 0.0
H3230 H 0.73642 0.88179 0.25475 0.0
H3231 H 0.74196 0.89552 0.26863 0.0
C3232 C 0.07138 0.72557 0.23005 0.0
C3233 C 0.08582 0.71987 0.22728 0.0
C3234 C 0.06903 0.73649 0.24132 0.0
C3235 C 0.08135 0.74145 0.25015 0.0
C3236 C 0.09578 0.73508 0.24784 0.0
C3237 C 0.09785 0.72454 0.23633 0.0
C3238 C 0.05356 0.74319 0.24329 0.0
C3239 C 0.10918 0.73974 0.25722 0.0
C3240 C 0.08588 0.77994 0.26755 0.0
C3241 C 0.08392 0.77676 0.28287 0.0
C3242 C 0.08364 0.76881 0.25659 0.0
C3243 C 0.07974 0.75403 0.2611 0.0
C3244 C 0.07675 0.75102 0.27648 0.0
C3245 C 0.07872 0.7625 0.28719 0.0
C3246 C 0.08656 0.77261 0.24029 0.0
C3247 C 0.07276 0.73539 0.28179 0.0
H3248 H 0.06208 0.72197 0.22303 0.0
H3249 H 0.10899 0.71996 0.23434 0.0
H3250 H 0.05028 0.74322 0.25533 0.0
H3251 H 0.05367 0.75507 0.23945 0.0
H3252 H 0.04488 0.73699 0.23676 0.0
H3253 H 0.11927 0.73276 0.25486 0.0
H3254 H 0.11201 0.75168 0.25488 0.0
H3255 H 0.10647 0.73885 0.26938 0.0
H3256 H 0.0897 0.79102 0.26417 0.0
H3257 H 0.07722 0.76001 0.29904 0.0
H3258 H 0.07765 0.7678 0.23299 0.0
H3259 H 0.09744 0.76762 0.23674 0.0
H3260 H 0.08709 0.78496 0.23839 0.0
H3261 H 0.06425 0.73018 0.2743 0.0
H3262 H 0.06837 0.73542 0.2935 0.0
H3263 H 0.08296 0.7282 0.28143 0.0
C3264 C 0.23332 0.9002 0.72436 0.0
C3265 C 0.22453 0.91211 0.71895 0.0
C3266 C 0.24485 0.90265 0.73478 0.0
C3267 C 0.2475 0.91739 0.74024 0.0
C3268 C 0.23888 0.92958 0.7346 0.0
C3269 C 0.22756 0.92681 0.72384 0.0
C3270 C 0.25398 0.88935 0.7402 0.0
C3271 C 0.24121 0.94539 0.74033 0.0
C3272 C 0.26546 0.91396 0.77846 0.0
C3273 C 0.28076 0.91495 0.77482 0.0
C3274 C 0.25435 0.91642 0.76754 0.0
C3275 C 0.25868 0.91951 0.75252 0.0
C3276 C 0.27409 0.92171 0.74906 0.0
C3277 C 0.28498 0.91955 0.76034 0.0
C3278 C 0.23804 0.91439 0.77182 0.0
C3279 C 0.27921 0.92487 0.73319 0.0
H3280 H 0.23121 0.88885 0.72038 0.0
H3281 H 0.22077 0.93604 0.71965 0.0
H3282 H 0.26618 0.89168 0.73891 0.0
H3283 H 0.25179 0.8874 0.75233 0.0
H3284 H 0.25126 0.87886 0.73396 0.0
H3285 H 0.23489 0.95381 0.7336 0.0
H3286 H 0.23737 0.9461 0.75219 0.0
H3287 H 0.25333 0.94837 0.74019 0.0
H3288 H 0.26218 0.91061 0.78973 0.0
H3289 H 0.29682 0.92032 0.75751 0.0
H3290 H 0.234 0.90333 0.76764 0.0
H3291 H 0.23096 0.92323 0.76657 0.0
H3292 H 0.23639 0.91474 0.78421 0.0
H3293 H 0.27856 0.91434 0.72649 0.0
H3294 H 0.29099 0.92903 0.73284 0.0
H3295 H 0.2718 0.93328 0.72769 0.0
C3296 C 0.07665 0.23348 0.72368 0.0
C3297 C 0.09173 0.23177 0.71936 0.0
C3298 C 0.07262 0.24364 0.73517 0.0
C3299 C 0.08392 0.25247 0.74216 0.0
C3300 C 0.09904 0.25123 0.73728 0.0
C3301 C 0.10276 0.2408 0.72609 0.0
C3302 C 0.05644 0.24447 0.74023 0.0
C3303 C 0.11141 0.26066 0.74417 0.0
C3304 C 0.07773 0.28765 0.76546 0.0
C3305 C 0.08173 0.2824 0.77979 0.0
C3306 C 0.0772 0.27777 0.7531 0.0
C3307 C 0.08044 0.26231 0.75527 0.0
C3308 C 0.08295 0.25678 0.77001 0.0
C3309 C 0.08378 0.26693 0.78206 0.0
C3310 C 0.07461 0.28415 0.73758 0.0
C3311 C 0.08606 0.24033 0.77289 0.0
H3312 H 0.0681 0.22649 0.71849 0.0
H3313 H 0.1144 0.23967 0.7226 0.0
H3314 H 0.05544 0.23961 0.75168 0.0
H3315 H 0.05264 0.25634 0.7409 0.0
H3316 H 0.04879 0.23821 0.73257 0.0
H3317 H 0.12233 0.25921 0.73826 0.0
H3318 H 0.1083 0.27275 0.74387 0.0
H3319 H 0.11297 0.25748 0.75614 0.0
H3320 H 0.07619 0.29962 0.76367 0.0
H3321 H 0.0867 0.26284 0.79318 0.0
H3322 H 0.06707 0.27676 0.73091 0.0
H3323 H 0.08552 0.28481 0.73154 0.0
H3324 H 0.06966 0.29563 0.73803 0.0
H3325 H 0.07805 0.23315 0.76654 0.0
H3326 H 0.08525 0.23748 0.78504 0.0
H3327 H 0.09757 0.23752 0.76896 0.0
C3328 C 0.71581 0.08144 0.76112 0.0
C3329 C 0.7201 0.08767 0.77497 0.0
C3330 C 0.72644 0.07924 0.7496 0.0
C3331 C 0.74169 0.08312 0.75216 0.0
C3332 C 0.74623 0.08811 0.7666 0.0
C3333 C 0.73535 0.0905 0.77776 0.0
C3334 C 0.72112 0.074 0.73435 0.0
C3335 C 0.76242 0.09204 0.76994 0.0
C3336 C 0.77339 0.07504 0.72443 0.0
C3337 C 0.77547 0.08935 0.71813 0.0
C3338 C 0.762 0.07254 0.73516 0.0
C3339 C 0.75237 0.08457 0.73934 0.0
C3340 C 0.75388 0.09874 0.73222 0.0
C3341 C 0.76551 0.10098 0.72185 0.0
C3342 C 0.76083 0.05733 0.74261 0.0
C3343 C 0.74367 0.11179 0.73605 0.0
H3344 H 0.70402 0.07922 0.75892 0.0
H3345 H 0.73873 0.09508 0.78856 0.0
H3346 H 0.7207 0.08376 0.72656 0.0
H3347 H 0.72903 0.06566 0.72949 0.0
H3348 H 0.70971 0.06892 0.73489 0.0
H3349 H 0.76446 0.09352 0.78219 0.0
H3350 H 0.77007 0.08316 0.76564 0.0
H3351 H 0.76538 0.10271 0.76415 0.0
H3352 H 0.78112 0.06605 0.72153 0.0
H3353 H 0.76697 0.112 0.71679 0.0
H3354 H 0.74893 0.05361 0.74322 0.0
H3355 H 0.76508 0.05815 0.75432 0.0
H3356 H 0.76749 0.04864 0.73658 0.0
H3357 H 0.73171 0.10828 0.7354 0.0
H3358 H 0.74537 0.12154 0.72841 0.0
H3359 H 0.74586 0.11554 0.74776 0.0
C3360 C 0.91875 0.73601 0.781 0.0
C3361 C 0.92128 0.72058 0.77903 0.0
C3362 C 0.91958 0.74599 0.76882 0.0
C3363 C 0.9226 0.74032 0.75423 0.0
C3364 C 0.92631 0.72492 0.75238 0.0
C3365 C 0.92576 0.71523 0.76488 0.0
C3366 C 0.91595 0.7624 0.77137 0.0
C3367 C 0.92946 0.71838 0.73703 0.0
C3368 C 0.90037 0.76106 0.72444 0.0
C3369 C 0.91128 0.77043 0.71802 0.0
C3370 C 0.90415 0.75068 0.73567 0.0
C3371 C 0.91918 0.74988 0.7409 0.0
C3372 C 0.93038 0.75899 0.73413 0.0
C3373 C 0.92631 0.76909 0.7226 0.0
C3374 C 0.89189 0.74093 0.7423 0.0
C3375 C 0.94647 0.75862 0.73954 0.0
H3376 H 0.91545 0.74019 0.79199 0.0
H3377 H 0.92767 0.70327 0.76331 0.0
H3378 H 0.92393 0.7697 0.76514 0.0
H3379 H 0.90448 0.76483 0.76708 0.0
H3380 H 0.91633 0.76544 0.78349 0.0
H3381 H 0.93475 0.70708 0.73778 0.0
H3382 H 0.91872 0.71729 0.73075 0.0
H3383 H 0.93692 0.7259 0.73042 0.0
H3384 H 0.88877 0.76194 0.72076 0.0
H3385 H 0.93475 0.77638 0.71766 0.0
H3386 H 0.88988 0.74421 0.75418 0.0
H3387 H 0.89537 0.72894 0.74224 0.0
H3388 H 0.88111 0.74197 0.73606 0.0
H3389 H 0.94712 0.76374 0.75091 0.0
H3390 H 0.95413 0.76491 0.73191 0.0
H3391 H 0.95052 0.74685 0.74053 0.0
C3392 C 0.23716 0.27447 0.09987 0.0
C3393 C 0.22802 0.28068 0.08862 0.0
C3394 C 0.2478 0.26337 0.09651 0.0
C3395 C 0.24913 0.25803 0.08155 0.0
C3396 C 0.24014 0.26445 0.07004 0.0
C3397 C 0.22978 0.27589 0.07369 0.0
C3398 C 0.25739 0.25712 0.10909 0.0
C3399 C 0.24106 0.25886 0.05403 0.0
C3400 C 0.28496 0.23562 0.07612 0.0
C3401 C 0.28017 0.22129 0.08064 0.0
C3402 C 0.27472 0.24764 0.07516 0.0
C3403 C 0.25933 0.2451 0.07849 0.0
C3404 C 0.25427 0.2303 0.08155 0.0
C3405 C 0.26479 0.21861 0.08281 0.0
C3406 C 0.28062 0.26325 0.07202 0.0
C3407 C 0.23792 0.22703 0.08476 0.0
H3408 H 0.23599 0.27834 0.11139 0.0
H3409 H 0.2227 0.28068 0.06499 0.0
H3410 H 0.25452 0.24513 0.11103 0.0
H3411 H 0.26947 0.25763 0.10597 0.0
H3412 H 0.2558 0.26334 0.11982 0.0
H3413 H 0.23452 0.26605 0.04616 0.0
H3414 H 0.25292 0.25844 0.0502 0.0
H3415 H 0.23656 0.24723 0.05345 0.0
H3416 H 0.29687 0.23772 0.07448 0.0
H3417 H 0.26105 0.20748 0.08613 0.0
H3418 H 0.28108 0.26968 0.08272 0.0
H3419 H 0.27304 0.26942 0.06427 0.0
H3420 H 0.2921 0.26298 0.06709 0.0
H3421 H 0.235 0.23123 0.09615 0.0
H3422 H 0.23544 0.21478 0.08433 0.0
H3423 H 0.23055 0.23291 0.07657 0.0
C3424 C 0.21403 0.73675 0.91863 0.0
C3425 C 0.21742 0.72151 0.92077 0.0
C3426 C 0.22523 0.74781 0.91986 0.0
C3427 C 0.24026 0.74343 0.92283 0.0
C3428 C 0.24352 0.72817 0.92609 0.0
C3429 C 0.23199 0.71739 0.92521 0.0
C3430 C 0.22118 0.76402 0.91677 0.0
C3431 C 0.25942 0.72296 0.92904 0.0
C3432 C 0.26912 0.76669 0.90182 0.0
C3433 C 0.27532 0.77556 0.91328 0.0
C3434 C 0.25807 0.75592 0.90494 0.0
C3435 C 0.25272 0.75424 0.91986 0.0
C3436 C 0.25896 0.76313 0.93154 0.0
C3437 C 0.27039 0.77357 0.92814 0.0
C3438 C 0.25203 0.74641 0.89218 0.0
C3439 C 0.25329 0.76191 0.94749 0.0
H3440 H 0.20272 0.73998 0.91535 0.0
H3441 H 0.23467 0.70559 0.9268 0.0
H3442 H 0.22683 0.77161 0.92491 0.0
H3443 H 0.22508 0.76716 0.90533 0.0
H3444 H 0.20884 0.76593 0.91737 0.0
H3445 H 0.25974 0.71138 0.93376 0.0
H3446 H 0.26581 0.72301 0.91831 0.0
H3447 H 0.26525 0.73068 0.93692 0.0
H3448 H 0.27308 0.76806 0.89035 0.0
H3449 H 0.27516 0.78046 0.937 0.0
H3450 H 0.23994 0.74893 0.89039 0.0
H3451 H 0.25296 0.73429 0.89504 0.0
H3452 H 0.25811 0.74844 0.88145 0.0
H3453 H 0.24133 0.76546 0.94795 0.0
H3454 H 0.25987 0.769 0.95541 0.0
H3455 H 0.25376 0.75005 0.95138 0.0
C3456 C 0.2397 0.28384 0.92301 0.0
C3457 C 0.22535 0.279 0.9186 0.0
C3458 C 0.25173 0.27361 0.92395 0.0
C3459 C 0.24921 0.25819 0.92072 0.0
C3460 C 0.2344 0.2531 0.91774 0.0
C3461 C 0.2227 0.26361 0.9165 0.0
C3462 C 0.26735 0.27954 0.927 0.0
C3463 C 0.23112 0.23672 0.91463 0.0
C3464 C 0.27847 0.23564 0.89956 0.0
C3465 C 0.2846 0.22654 0.91088 0.0
C3466 C 0.26746 0.24641 0.90282 0.0
C3467 C 0.26212 0.24792 0.91776 0.0
C3468 C 0.26848 0.239 0.92935 0.0
C3469 C 0.27981 0.2285 0.9258 0.0
C3470 C 0.26128 0.25593 0.89014 0.0
C3471 C 0.2629 0.24011 0.94535 0.0
H3472 H 0.24178 0.29576 0.92458 0.0
H3473 H 0.21156 0.25984 0.91325 0.0
H3474 H 0.27353 0.27202 0.9348 0.0
H3475 H 0.27375 0.27991 0.91628 0.0
H3476 H 0.26709 0.29106 0.93184 0.0
H3477 H 0.21887 0.23426 0.91505 0.0
H3478 H 0.23534 0.23373 0.90327 0.0
H3479 H 0.23698 0.22941 0.92289 0.0
H3480 H 0.28233 0.23433 0.88805 0.0
H3481 H 0.28454 0.22146 0.93457 0.0
H3482 H 0.26182 0.26804 0.89317 0.0
H3483 H 0.24928 0.25309 0.88821 0.0
H3484 H 0.2675 0.25422 0.87944 0.0
H3485 H 0.26255 0.25202 0.94906 0.0
H3486 H 0.27004 0.23361 0.95329 0.0
H3487 H 0.25124 0.23569 0.94598 0.0
C3488 C 0.71566 0.23568 0.92528 0.0
C3489 C 0.72019 0.22105 0.9215 0.0
C3490 C 0.72623 0.24741 0.92619 0.0
C3491 C 0.74165 0.2443 0.92358 0.0
C3492 C 0.74637 0.22925 0.92131 0.0
C3493 C 0.73555 0.21783 0.92008 0.0
C3494 C 0.72069 0.26331 0.92847 0.0
C3495 C 0.76273 0.22536 0.91888 0.0
C3496 C 0.76533 0.27228 0.90195 0.0
C3497 C 0.77413 0.27879 0.9133 0.0
C3498 C 0.75437 0.2615 0.90531 0.0
C3499 C 0.75235 0.25679 0.9204 0.0
C3500 C 0.76104 0.26345 0.93199 0.0
C3501 C 0.77175 0.27455 0.92832 0.0
C3502 C 0.74512 0.25497 0.89261 0.0
C3503 C 0.7594 0.25851 0.94815 0.0
H3504 H 0.70377 0.23819 0.92634 0.0
H3505 H 0.73908 0.20647 0.91733 0.0
H3506 H 0.72815 0.26956 0.93628 0.0
H3507 H 0.72085 0.26931 0.91752 0.0
H3508 H 0.70902 0.26358 0.93294 0.0
H3509 H 0.76481 0.21308 0.91993 0.0
H3510 H 0.76619 0.22896 0.90744 0.0
H3511 H 0.76996 0.23139 0.92709 0.0
H3512 H 0.76697 0.27572 0.89035 0.0
H3513 H 0.77855 0.27957 0.93712 0.0
H3514 H 0.73295 0.25595 0.8952 0.0
H3515 H 0.74772 0.24282 0.89132 0.0
H3516 H 0.74733 0.26065 0.8817 0.0
H3517 H 0.7474 0.25873 0.95159 0.0
H3518 H 0.76597 0.26571 0.95598 0.0
H3519 H 0.76336 0.24672 0.94931 0.0
C3520 C 0.72107 0.77081 0.92712 0.0
C3521 C 0.71526 0.77247 0.91255 0.0
C3522 C 0.73241 0.76015 0.93013 0.0
C3523 C 0.73775 0.75081 0.91835 0.0
C3524 C 0.73118 0.75187 0.90386 0.0
C3525 C 0.72017 0.76279 0.90112 0.0
C3526 C 0.73924 0.75948 0.94566 0.0
C3527 C 0.73625 0.74192 0.89103 0.0
C3528 C 0.77735 0.73603 0.91435 0.0
C3529 C 0.77532 0.72064 0.91713 0.0
C3530 C 0.76547 0.74625 0.91614 0.0
C3531 C 0.7511 0.74089 0.92045 0.0
C3532 C 0.74926 0.72553 0.92431 0.0
C3533 C 0.76147 0.71558 0.92274 0.0
C3534 C 0.76804 0.7626 0.91226 0.0
C3535 C 0.73411 0.71933 0.92883 0.0
H3536 H 0.71729 0.77833 0.93596 0.0
H3537 H 0.71552 0.76392 0.88989 0.0
H3538 H 0.74032 0.74765 0.94951 0.0
H3539 H 0.75073 0.76434 0.94533 0.0
H3540 H 0.73248 0.76585 0.95403 0.0
H3541 H 0.729 0.74316 0.88092 0.0
H3542 H 0.74797 0.74483 0.88785 0.0
H3543 H 0.73618 0.72993 0.89454 0.0
H3544 H 0.78812 0.74 0.9102 0.0
H3545 H 0.75986 0.70367 0.92488 0.0
H3546 H 0.76284 0.77002 0.92085 0.0
H3547 H 0.76264 0.76516 0.90129 0.0
H3548 H 0.7802 0.76535 0.91139 0.0
H3549 H 0.7284 0.72696 0.93688 0.0
H3550 H 0.73507 0.70798 0.93398 0.0
H3551 H 0.72685 0.71845 0.9187 0.0
C3552 C 0.77556 0.72406 0.07297 0.0
C3553 C 0.77794 0.71895 0.0877 0.0
C3554 C 0.76478 0.73529 0.06995 0.0
C3555 C 0.75596 0.74113 0.08189 0.0
C3556 C 0.75795 0.73549 0.09666 0.0
C3557 C 0.76903 0.72464 0.0994 0.0
C3558 C 0.76319 0.74126 0.05413 0.0
C3559 C 0.74855 0.74109 0.10969 0.0
C3560 C 0.73866 0.77982 0.08452 0.0
C3561 C 0.72336 0.77655 0.0826 0.0
C3562 C 0.74963 0.76862 0.08273 0.0
C3563 C 0.74513 0.75369 0.07944 0.0
C3564 C 0.72978 0.75058 0.07642 0.0
C3565 C 0.71907 0.76213 0.07787 0.0
C3566 C 0.76591 0.77252 0.0856 0.0
C3567 C 0.72446 0.73479 0.07311 0.0
H3568 H 0.78247 0.71966 0.06392 0.0
H3569 H 0.77068 0.72052 0.11076 0.0
H3570 H 0.75123 0.74112 0.05058 0.0
H3571 H 0.767 0.75315 0.05378 0.0
H3572 H 0.76992 0.73467 0.04591 0.0
H3573 H 0.75072 0.73469 0.12021 0.0
H3574 H 0.75104 0.75313 0.11183 0.0
H3575 H 0.73641 0.7402 0.10693 0.0
H3576 H 0.74201 0.79103 0.08802 0.0
H3577 H 0.70723 0.75957 0.07645 0.0
H3578 H 0.7733 0.76712 0.07712 0.0
H3579 H 0.76929 0.76824 0.09684 0.0
H3580 H 0.76785 0.78487 0.08537 0.0
H3581 H 0.73204 0.72913 0.06498 0.0
H3582 H 0.71282 0.73467 0.06854 0.0
H3583 H 0.72461 0.72812 0.08366 0.0
C3584 C 0.22103 0.73619 0.08642 0.0
C3585 C 0.22392 0.72076 0.08489 0.0
C3586 C 0.23252 0.74682 0.08452 0.0
C3587 C 0.24734 0.74187 0.08143 0.0
C3588 C 0.2501 0.72637 0.07883 0.0
C3589 C 0.23827 0.71598 0.08044 0.0
C3590 C 0.229 0.76327 0.087 0.0
C3591 C 0.26575 0.7206 0.07568 0.0
C3592 C 0.27687 0.7721 0.07403 0.0
C3593 C 0.28196 0.77497 0.08869 0.0
C3594 C 0.26584 0.76106 0.07131 0.0
C3595 C 0.2601 0.75253 0.08351 0.0
C3596 C 0.26581 0.75493 0.09819 0.0
C3597 C 0.27652 0.76622 0.10061 0.0
C3598 C 0.25986 0.75899 0.05556 0.0
C3599 C 0.26028 0.74587 0.11149 0.0
H3600 H 0.20988 0.73991 0.08969 0.0
H3601 H 0.24053 0.70405 0.0793 0.0
H3602 H 0.23353 0.76686 0.09807 0.0
H3603 H 0.23443 0.7703 0.07823 0.0
H3604 H 0.2167 0.76549 0.08688 0.0
H3605 H 0.26562 0.70884 0.07142 0.0
H3606 H 0.27158 0.72784 0.06736 0.0
H3607 H 0.27243 0.72089 0.08623 0.0
H3608 H 0.28107 0.77889 0.0648 0.0
H3609 H 0.28061 0.76826 0.11193 0.0
H3610 H 0.24807 0.76308 0.05503 0.0
H3611 H 0.25972 0.7469 0.05246 0.0
H3612 H 0.26661 0.76525 0.0471 0.0
H3613 H 0.24828 0.74852 0.11368 0.0
H3614 H 0.26681 0.74823 0.12189 0.0
H3615 H 0.26103 0.73365 0.10901 0.0
C3616 C 0.71482 0.23706 0.07769 0.0
C3617 C 0.71955 0.22336 0.08397 0.0
C3618 C 0.72498 0.24904 0.07579 0.0
C3619 C 0.74023 0.24714 0.08001 0.0
C3620 C 0.7453 0.23285 0.08494 0.0
C3621 C 0.73486 0.22119 0.08703 0.0
C3622 C 0.71908 0.26409 0.07059 0.0
C3623 C 0.76153 0.2302 0.0892 0.0
C3624 C 0.77028 0.27701 0.07305 0.0
C3625 C 0.77153 0.28335 0.08744 0.0
C3626 C 0.75979 0.26546 0.0702 0.0
C3627 C 0.75021 0.26047 0.08194 0.0
C3628 C 0.75091 0.26753 0.09621 0.0
C3629 C 0.76165 0.27874 0.09881 0.0
C3630 C 0.75951 0.2581 0.0549 0.0
C3631 C 0.74069 0.26284 0.10898 0.0
H3632 H 0.70298 0.23881 0.07531 0.0
H3633 H 0.73861 0.21054 0.09167 0.0
H3634 H 0.71804 0.27172 0.08043 0.0
H3635 H 0.72696 0.26943 0.06252 0.0
H3636 H 0.70784 0.26307 0.06519 0.0
H3637 H 0.76412 0.21803 0.09044 0.0
H3638 H 0.76917 0.23509 0.08063 0.0
H3639 H 0.76394 0.23586 0.10007 0.0
H3640 H 0.77797 0.28054 0.06426 0.0
H3641 H 0.76247 0.28379 0.1099 0.0
H3642 H 0.74778 0.25687 0.0508 0.0
H3643 H 0.76438 0.24663 0.05574 0.0
H3644 H 0.76608 0.26458 0.04646 0.0
H3645 H 0.72878 0.26289 0.10523 0.0
H3646 H 0.74177 0.27035 0.11892 0.0
H3647 H 0.74347 0.2512 0.11252 0.0
C3648 C 0.57586 0.77966 0.73158 0.0
C3649 C 0.59086 0.7844 0.7304 0.0
C3650 C 0.57178 0.76824 0.74178 0.0
C3651 C 0.58293 0.76176 0.75118 0.0
C3652 C 0.59791 0.76717 0.75053 0.0
C3653 C 0.60171 0.77827 0.74003 0.0
C3654 C 0.55577 0.76261 0.74197 0.0
C3655 C 0.6101 0.76087 0.76059 0.0
C3656 C 0.57625 0.73836 0.78615 0.0
C3657 C 0.58113 0.72422 0.78116 0.0
C3658 C 0.57556 0.75064 0.7762 0.0
C3659 C 0.57954 0.74856 0.7609 0.0
C3660 C 0.58291 0.73392 0.75556 0.0
C3661 C 0.58388 0.72197 0.7658 0.0
C3662 C 0.57203 0.76606 0.78239 0.0
C3663 C 0.5868 0.73111 0.73926 0.0
H3664 H 0.56748 0.78438 0.72408 0.0
H3665 H 0.61327 0.78209 0.73925 0.0
H3666 H 0.55535 0.75119 0.73693 0.0
H3667 H 0.55156 0.76166 0.75368 0.0
H3668 H 0.5481 0.77008 0.7355 0.0
H3669 H 0.6208 0.76725 0.75963 0.0
H3670 H 0.6064 0.76108 0.77252 0.0
H3671 H 0.61232 0.74897 0.75755 0.0
H3672 H 0.57417 0.74014 0.79805 0.0
H3673 H 0.5875 0.71098 0.7619 0.0
H3674 H 0.56464 0.77242 0.77461 0.0
H3675 H 0.58265 0.77252 0.7836 0.0
H3676 H 0.56652 0.76542 0.7936 0.0
H3677 H 0.57885 0.73711 0.73173 0.0
H3678 H 0.58661 0.71893 0.73644 0.0
H3679 H 0.59825 0.7355 0.73692 0.0
C3680 C 0.23213 0.59711 0.72796 0.0
C3681 C 0.22294 0.58552 0.72242 0.0
C3682 C 0.24229 0.59459 0.73972 0.0
C3683 C 0.24355 0.58002 0.74604 0.0
C3684 C 0.23451 0.56816 0.74039 0.0
C3685 C 0.22417 0.57109 0.72873 0.0
C3686 C 0.25154 0.60764 0.74552 0.0
C3687 C 0.23578 0.55242 0.74665 0.0
C3688 C 0.28038 0.57724 0.76707 0.0
C3689 C 0.27579 0.58063 0.78175 0.0
C3690 C 0.26977 0.57532 0.75553 0.0
C3691 C 0.2543 0.57757 0.75866 0.0
C3692 C 0.24959 0.58011 0.77369 0.0
C3693 C 0.26043 0.58138 0.78512 0.0
C3694 C 0.27522 0.57207 0.73978 0.0
C3695 C 0.23329 0.58301 0.77748 0.0
H3696 H 0.23121 0.60834 0.72328 0.0
H3697 H 0.21715 0.56206 0.72448 0.0
H3698 H 0.24958 0.60918 0.75776 0.0
H3699 H 0.2637 0.60527 0.74396 0.0
H3700 H 0.24885 0.61837 0.73969 0.0
H3701 H 0.22851 0.5443 0.74053 0.0
H3702 H 0.24762 0.54852 0.74598 0.0
H3703 H 0.23256 0.55237 0.7587 0.0
H3704 H 0.2923 0.57665 0.76453 0.0
H3705 H 0.25694 0.58419 0.79648 0.0
H3706 H 0.27491 0.58256 0.73302 0.0
H3707 H 0.26781 0.56373 0.73416 0.0
H3708 H 0.28694 0.56772 0.73973 0.0
H3709 H 0.22999 0.59425 0.77314 0.0
H3710 H 0.23123 0.58279 0.78981 0.0
H3711 H 0.2259 0.57458 0.77201 0.0
C3712 C 0.39987 0.22398 0.74055 0.0
C3713 C 0.41079 0.21763 0.73112 0.0
C3714 C 0.40366 0.23505 0.75108 0.0
C3715 C 0.41871 0.24021 0.752 0.0
C3716 C 0.42992 0.23349 0.74286 0.0
C3717 C 0.42585 0.22211 0.7326 0.0
C3718 C 0.39138 0.24163 0.76084 0.0
C3719 C 0.44603 0.23881 0.74337 0.0
C3720 C 0.41815 0.28023 0.76605 0.0
C3721 C 0.42049 0.27817 0.7815 0.0
C3722 C 0.41912 0.2681 0.75601 0.0
C3723 C 0.42211 0.25349 0.76164 0.0
C3724 C 0.42567 0.25157 0.77706 0.0
C3725 C 0.42497 0.26401 0.78682 0.0
C3726 C 0.41564 0.27073 0.73959 0.0
C3727 C 0.4288 0.23619 0.78355 0.0
H3728 H 0.38826 0.22036 0.73957 0.0
H3729 H 0.4343 0.21722 0.72528 0.0
H3730 H 0.39482 0.24146 0.77284 0.0
H3731 H 0.38942 0.25355 0.75767 0.0
H3732 H 0.38059 0.23543 0.75971 0.0
H3733 H 0.4537 0.23114 0.73716 0.0
H3734 H 0.44679 0.25017 0.73824 0.0
H3735 H 0.44999 0.2398 0.75517 0.0
H3736 H 0.41486 0.29122 0.76189 0.0
H3737 H 0.42674 0.26239 0.79879 0.0
H3738 H 0.40419 0.26646 0.73704 0.0
H3739 H 0.42369 0.26453 0.73233 0.0
H3740 H 0.41606 0.28287 0.73661 0.0
H3741 H 0.41806 0.22992 0.78461 0.0
H3742 H 0.43408 0.2369 0.79486 0.0
H3743 H 0.43626 0.22959 0.77602 0.0
C3744 C 0.73265 0.40344 0.77476 0.0
C3745 C 0.72374 0.41501 0.78069 0.0
C3746 C 0.74338 0.40632 0.76359 0.0
C3747 C 0.74498 0.4211 0.75785 0.0
C3748 C 0.73612 0.43292 0.76391 0.0
C3749 C 0.72573 0.42976 0.77546 0.0
C3750 C 0.75285 0.39344 0.75778 0.0
C3751 C 0.73726 0.44874 0.75784 0.0
C3752 C 0.78129 0.42615 0.73601 0.0
C3753 C 0.77682 0.42143 0.72163 0.0
C3754 C 0.77082 0.42716 0.74783 0.0
C3755 C 0.7555 0.42374 0.74505 0.0
C3756 C 0.75076 0.4204 0.7302 0.0
C3757 C 0.76152 0.41904 0.71872 0.0
C3758 C 0.77642 0.4305 0.76351 0.0
C3759 C 0.73448 0.41711 0.72665 0.0
H3760 H 0.73129 0.39206 0.77895 0.0
H3761 H 0.7188 0.43871 0.78003 0.0
H3762 H 0.75011 0.39124 0.74581 0.0
H3763 H 0.76497 0.3964 0.75836 0.0
H3764 H 0.75102 0.3829 0.76425 0.0
H3765 H 0.73044 0.45684 0.76448 0.0
H3766 H 0.74914 0.45255 0.75781 0.0
H3767 H 0.73329 0.44894 0.74601 0.0
H3768 H 0.79314 0.42792 0.73832 0.0
H3769 H 0.75801 0.41554 0.70757 0.0
H3770 H 0.77654 0.41993 0.77017 0.0
H3771 H 0.76883 0.43851 0.76935 0.0
H3772 H 0.78799 0.43524 0.76344 0.0
H3773 H 0.73147 0.40581 0.73102 0.0
H3774 H 0.73226 0.41728 0.71434 0.0
H3775 H 0.727 0.42542 0.73221 0.0
C3776 C 0.57448 0.22541 0.27275 0.0
C3777 C 0.58927 0.22011 0.27416 0.0
C3778 C 0.57096 0.2369 0.26241 0.0
C3779 C 0.58245 0.24289 0.25311 0.0
C3780 C 0.59721 0.23694 0.254 0.0
C3781 C 0.60046 0.22578 0.26463 0.0
C3782 C 0.55516 0.2431 0.26196 0.0
C3783 C 0.60973 0.2427 0.24404 0.0
C3784 C 0.57659 0.26599 0.21774 0.0
C3785 C 0.58167 0.28014 0.22256 0.0
C3786 C 0.57565 0.25385 0.22784 0.0
C3787 C 0.57961 0.25605 0.24313 0.0
C3788 C 0.5833 0.27067 0.24828 0.0
C3789 C 0.58449 0.2825 0.2379 0.0
C3790 C 0.5718 0.23843 0.22184 0.0
C3791 C 0.58721 0.2736 0.26456 0.0
H3792 H 0.56583 0.22106 0.28017 0.0
H3793 H 0.61187 0.22154 0.26557 0.0
H3794 H 0.55513 0.25468 0.26664 0.0
H3795 H 0.55106 0.24385 0.2502 0.0
H3796 H 0.54718 0.23612 0.26859 0.0
H3797 H 0.62022 0.23599 0.24525 0.0
H3798 H 0.60621 0.24246 0.23207 0.0
H3799 H 0.6123 0.25457 0.24696 0.0
H3800 H 0.57444 0.2641 0.20588 0.0
H3801 H 0.58825 0.29347 0.24169 0.0
H3802 H 0.5641 0.23242 0.2296 0.0
H3803 H 0.58225 0.23165 0.22094 0.0
H3804 H 0.56651 0.23902 0.21053 0.0
H3805 H 0.57902 0.26799 0.27212 0.0
H3806 H 0.5874 0.28583 0.26719 0.0
H3807 H 0.59849 0.26887 0.26704 0.0
C3808 C 0.76557 0.58127 0.2855 0.0
C3809 C 0.78087 0.57891 0.28248 0.0
C3810 C 0.75477 0.58021 0.27404 0.0
C3811 C 0.75945 0.57714 0.25911 0.0
C3812 C 0.77473 0.5736 0.25623 0.0
C3813 C 0.78525 0.57437 0.26802 0.0
C3814 C 0.73854 0.58363 0.27769 0.0
C3815 C 0.78024 0.57046 0.24048 0.0
C3816 C 0.72939 0.57267 0.22874 0.0
C3817 C 0.72773 0.58761 0.22393 0.0
C3818 C 0.73982 0.56893 0.24009 0.0
C3819 C 0.74899 0.58035 0.24641 0.0
C3820 C 0.74774 0.59532 0.24108 0.0
C3821 C 0.73702 0.59878 0.23007 0.0
C3822 C 0.74063 0.55292 0.24568 0.0
C3823 C 0.75754 0.60781 0.2472 0.0
H3824 H 0.76212 0.58461 0.29672 0.0
H3825 H 0.79708 0.57258 0.26562 0.0
H3826 H 0.73569 0.59509 0.27363 0.0
H3827 H 0.73094 0.57558 0.27192 0.0
H3828 H 0.73633 0.58316 0.28999 0.0
H3829 H 0.79168 0.56541 0.24047 0.0
H3830 H 0.77245 0.56279 0.23446 0.0
H3831 H 0.78066 0.58117 0.23407 0.0
H3832 H 0.72218 0.56403 0.22402 0.0
H3833 H 0.73592 0.6103 0.22621 0.0
H3834 H 0.73646 0.55242 0.25744 0.0
H3835 H 0.75245 0.54891 0.24578 0.0
H3836 H 0.73378 0.54513 0.23869 0.0
H3837 H 0.7549 0.60972 0.25925 0.0
H3838 H 0.75591 0.61857 0.24105 0.0
H3839 H 0.76958 0.60459 0.24646 0.0
C3840 C 0.42814 0.73328 0.22314 0.0
C3841 C 0.41372 0.73207 0.21688 0.0
C3842 C 0.43113 0.74391 0.23453 0.0
C3843 C 0.41949 0.75366 0.23942 0.0
C3844 C 0.4052 0.75302 0.23241 0.0
C3845 C 0.40246 0.74213 0.22137 0.0
C3846 C 0.44644 0.74413 0.24184 0.0
C3847 C 0.39254 0.76342 0.23699 0.0
C3848 C 0.41439 0.76916 0.27859 0.0
C3849 C 0.41755 0.78445 0.27636 0.0
C3850 C 0.41648 0.75867 0.26699 0.0
C3851 C 0.42149 0.76367 0.2527 0.0
C3852 C 0.42581 0.77889 0.25076 0.0
C3853 C 0.42391 0.78911 0.26269 0.0
C3854 C 0.41211 0.74247 0.26967 0.0
C3855 C 0.4311 0.7847 0.2357 0.0
H3856 H 0.43684 0.72546 0.21967 0.0
H3857 H 0.39135 0.74133 0.21637 0.0
H3858 H 0.4506 0.75584 0.24307 0.0
H3859 H 0.4456 0.73926 0.25331 0.0
H3860 H 0.45483 0.73751 0.23535 0.0
H3861 H 0.38261 0.76241 0.22946 0.0
H3862 H 0.38893 0.76075 0.24864 0.0
H3863 H 0.39641 0.77529 0.23689 0.0
H3864 H 0.40969 0.76549 0.28923 0.0
H3865 H 0.42638 0.80093 0.26093 0.0
H3866 H 0.42064 0.73475 0.26484 0.0
H3867 H 0.40124 0.74011 0.26399 0.0
H3868 H 0.41081 0.73994 0.28185 0.0
H3869 H 0.43909 0.77672 0.23039 0.0
H3870 H 0.43661 0.79588 0.23671 0.0
H3871 H 0.42129 0.78583 0.22806 0.0
C3872 C 0.28318 0.41763 0.23565 0.0
C3873 C 0.28062 0.41983 0.22025 0.0
C3874 C 0.27161 0.41964 0.24618 0.0
C3875 C 0.25701 0.42354 0.24114 0.0
C3876 C 0.25462 0.4268 0.22571 0.0
C3877 C 0.26653 0.42506 0.21544 0.0
C3878 C 0.27476 0.41643 0.26257 0.0
C3879 C 0.2392 0.43082 0.21983 0.0
C3880 C 0.22673 0.40467 0.26433 0.0
C3881 C 0.22163 0.41645 0.27347 0.0
C3882 C 0.23767 0.40708 0.25327 0.0
C3883 C 0.24399 0.42161 0.25152 0.0
C3884 C 0.23859 0.4337 0.26042 0.0
C3885 C 0.22729 0.43101 0.27122 0.0
C3886 C 0.24281 0.39392 0.24379 0.0
C3887 C 0.24521 0.44927 0.25905 0.0
H3888 H 0.29413 0.41378 0.23942 0.0
H3889 H 0.26451 0.42674 0.20353 0.0
H3890 H 0.26958 0.42517 0.26983 0.0
H3891 H 0.26971 0.40545 0.2657 0.0
H3892 H 0.28702 0.41595 0.26498 0.0
H3893 H 0.2397 0.43549 0.20824 0.0
H3894 H 0.23208 0.42056 0.21963 0.0
H3895 H 0.23361 0.43912 0.22729 0.0
H3896 H 0.22219 0.39345 0.2659 0.0
H3897 H 0.22334 0.44012 0.27831 0.0
H3898 H 0.25466 0.39112 0.24655 0.0
H3899 H 0.24238 0.39689 0.23167 0.0
H3900 H 0.23583 0.38372 0.24564 0.0
H3901 H 0.2569 0.44919 0.26343 0.0
H3902 H 0.23863 0.45776 0.26545 0.0
H3903 H 0.24575 0.45277 0.24708 0.0
C3904 C 0.73806 0.57964 0.78673 0.0
C3905 C 0.72406 0.58474 0.78154 0.0
C3906 C 0.75039 0.57847 0.77688 0.0
C3907 C 0.74853 0.58219 0.76149 0.0
C3908 C 0.73404 0.58591 0.756 0.0
C3909 C 0.72203 0.58735 0.76612 0.0
C3910 C 0.76565 0.57457 0.78323 0.0
C3911 C 0.73146 0.58957 0.7396 0.0
C3912 C 0.77912 0.60265 0.74015 0.0
C3913 C 0.78478 0.59136 0.73073 0.0
C3914 C 0.76789 0.59954 0.75074 0.0
C3915 C 0.76189 0.58481 0.75172 0.0
C3916 C 0.76791 0.5732 0.74259 0.0
C3917 C 0.77946 0.57658 0.73227 0.0
C3918 C 0.76207 0.61221 0.76049 0.0
C3919 C 0.76168 0.55742 0.74317 0.0
H3920 H 0.73968 0.57765 0.79865 0.0
H3921 H 0.71115 0.59109 0.76205 0.0
H3922 H 0.77174 0.5667 0.7757 0.0
H3923 H 0.77251 0.58498 0.78411 0.0
H3924 H 0.7648 0.56945 0.79461 0.0
H3925 H 0.71929 0.58985 0.73673 0.0
H3926 H 0.73636 0.60077 0.73703 0.0
H3927 H 0.73712 0.5812 0.73228 0.0
H3928 H 0.78339 0.61404 0.73912 0.0
H3929 H 0.78381 0.56785 0.72494 0.0
H3930 H 0.76212 0.6088 0.77251 0.0
H3931 H 0.75027 0.61483 0.75737 0.0
H3932 H 0.76887 0.62263 0.75929 0.0
H3933 H 0.76056 0.55354 0.75499 0.0
H3934 H 0.76884 0.5493 0.73691 0.0
H3935 H 0.75026 0.55731 0.73813 0.0
C3936 C 0.41982 0.76275 0.71845 0.0
C3937 C 0.42291 0.77803 0.72078 0.0
C3938 C 0.42063 0.7524 0.73034 0.0
C3939 C 0.42422 0.75756 0.74499 0.0
C3940 C 0.4285 0.77276 0.74716 0.0
C3941 C 0.42794 0.78281 0.73496 0.0
C3942 C 0.41641 0.7362 0.72744 0.0
C3943 C 0.43224 0.77877 0.7626 0.0
C3944 C 0.40216 0.73688 0.77495 0.0
C3945 C 0.41296 0.7271 0.78094 0.0
C3946 C 0.40594 0.74733 0.76379 0.0
C3947 C 0.42084 0.74777 0.75817 0.0
C3948 C 0.43195 0.73821 0.76448 0.0
C3949 C 0.4279 0.72807 0.77597 0.0
C3950 C 0.39381 0.75757 0.75768 0.0
C3951 C 0.44788 0.73818 0.75862 0.0
H3952 H 0.4161 0.75899 0.70745 0.0
H3953 H 0.4303 0.79464 0.73683 0.0
H3954 H 0.42429 0.72848 0.73329 0.0
H3955 H 0.40497 0.73403 0.73194 0.0
H3956 H 0.41642 0.73348 0.71524 0.0
H3957 H 0.43787 0.78992 0.76202 0.0
H3958 H 0.4217 0.78003 0.76918 0.0
H3959 H 0.43961 0.77084 0.76881 0.0
H3960 H 0.39064 0.73627 0.77893 0.0
H3961 H 0.43624 0.72045 0.78058 0.0
H3962 H 0.39141 0.75463 0.74579 0.0
H3963 H 0.39766 0.76945 0.75791 0.0
H3964 H 0.38317 0.75672 0.76418 0.0
H3965 H 0.44804 0.73331 0.74712 0.0
H3966 H 0.45554 0.73146 0.76588 0.0
H3967 H 0.45229 0.74982 0.75778 0.0
C3968 C 0.28106 0.41627 0.76851 0.0
C3969 C 0.27777 0.41768 0.78386 0.0
C3970 C 0.26971 0.41759 0.75763 0.0
C3971 C 0.25465 0.41992 0.76227 0.0
C3972 C 0.25146 0.42244 0.77769 0.0
C3973 C 0.26313 0.42146 0.78832 0.0
C3974 C 0.27369 0.41525 0.74127 0.0
C3975 C 0.23554 0.42476 0.78314 0.0
C3976 C 0.22473 0.42541 0.73197 0.0
C3977 C 0.22033 0.41048 0.72934 0.0
C3978 C 0.23577 0.42881 0.74283 0.0
C3979 C 0.24222 0.41702 0.75142 0.0
C3980 C 0.23734 0.40202 0.74916 0.0
C3981 C 0.22661 0.39893 0.73805 0.0
C3982 C 0.24089 0.44488 0.74474 0.0
C3983 C 0.24365 0.38912 0.75829 0.0
H3984 H 0.29243 0.41352 0.76504 0.0
H3985 H 0.26057 0.4225 0.80021 0.0
H3986 H 0.26997 0.40388 0.73768 0.0
H3987 H 0.26782 0.4236 0.73408 0.0
H3988 H 0.286 0.41616 0.73928 0.0
H3989 H 0.23521 0.42904 0.79489 0.0
H3990 H 0.22942 0.43275 0.77576 0.0
H3991 H 0.22945 0.41387 0.78275 0.0
H3992 H 0.21988 0.43436 0.72524 0.0
H3993 H 0.22306 0.3874 0.73623 0.0
H3994 H 0.25275 0.44594 0.74098 0.0
H3995 H 0.24053 0.44819 0.75677 0.0
H3996 H 0.2339 0.45288 0.73814 0.0
H3997 H 0.25579 0.38771 0.75577 0.0
H3998 H 0.23785 0.37831 0.75588 0.0
H3999 H 0.2426 0.39156 0.77049 0.0
C4000 C 0.60005 0.26614 0.77284 0.0
C4001 C 0.58911 0.27523 0.77962 0.0
C4002 C 0.5962 0.25565 0.76174 0.0
C4003 C 0.58104 0.25447 0.75697 0.0
C4004 C 0.56986 0.26352 0.76386 0.0
C4005 C 0.57401 0.27369 0.77529 0.0
C4006 C 0.60845 0.24597 0.75499 0.0
C4007 C 0.55366 0.2628 0.75884 0.0
C4008 C 0.58061 0.23816 0.71779 0.0
C4009 C 0.5784 0.22285 0.72082 0.0
C4010 C 0.57987 0.2489 0.72933 0.0
C4011 C 0.57734 0.24412 0.74432 0.0
C4012 C 0.57392 0.22882 0.74724 0.0
C4013 C 0.57432 0.21836 0.73538 0.0
C4014 C 0.58311 0.26517 0.72566 0.0
C4015 C 0.57137 0.22319 0.76306 0.0
H4016 H 0.6117 0.26715 0.77633 0.0
H4017 H 0.56554 0.28074 0.78052 0.0
H4018 H 0.6053 0.2339 0.75571 0.0
H4019 H 0.60986 0.24875 0.7429 0.0
H4020 H 0.61946 0.24754 0.7607 0.0
H4021 H 0.54616 0.26969 0.7661 0.0
H4022 H 0.55276 0.26695 0.7471 0.0
H4023 H 0.54959 0.251 0.7589 0.0
H4024 H 0.58361 0.24166 0.70649 0.0
H4025 H 0.57268 0.2065 0.73776 0.0
H4026 H 0.59473 0.26799 0.72923 0.0
H4027 H 0.57532 0.27273 0.73183 0.0
H4028 H 0.58209 0.26746 0.71341 0.0
H4029 H 0.58232 0.22272 0.76906 0.0
H4030 H 0.56633 0.21175 0.76318 0.0
H4031 H 0.56394 0.23094 0.76942 0.0
C4032 C 0.78703 0.42165 0.26091 0.0
C4033 C 0.78201 0.41538 0.2745 0.0
C4034 C 0.77702 0.42394 0.24887 0.0
C4035 C 0.76165 0.42009 0.2506 0.0
C4036 C 0.75634 0.41512 0.26478 0.0
C4037 C 0.7666 0.41268 0.2765 0.0
C4038 C 0.78315 0.42922 0.23394 0.0
C4039 C 0.73999 0.4112 0.26724 0.0
C4040 C 0.73141 0.42789 0.22119 0.0
C4041 C 0.72977 0.41355 0.21482 0.0
C4042 C 0.74223 0.43051 0.23249 0.0
C4043 C 0.7517 0.41856 0.23721 0.0
C4044 C 0.75068 0.40437 0.23003 0.0
C4045 C 0.73964 0.40202 0.21906 0.0
C4046 C 0.74291 0.44575 0.23993 0.0
C4047 C 0.76075 0.39139 0.23445 0.0
H4048 H 0.79893 0.42379 0.25932 0.0
H4049 H 0.76264 0.40807 0.28708 0.0
H4050 H 0.78408 0.41946 0.22619 0.0
H4051 H 0.77547 0.4375 0.22864 0.0
H4052 H 0.79447 0.43438 0.23513 0.0
H4053 H 0.73729 0.40975 0.27936 0.0
H4054 H 0.73259 0.42007 0.26251 0.0
H4055 H 0.73735 0.40052 0.26132 0.0
H4056 H 0.72375 0.43681 0.21792 0.0
H4057 H 0.73853 0.39098 0.21396 0.0
H4058 H 0.75474 0.4495 0.24128 0.0
H4059 H 0.73792 0.44498 0.25135 0.0
H4060 H 0.73663 0.4544 0.23345 0.0
H4061 H 0.77271 0.39496 0.23441 0.0
H4062 H 0.75949 0.38159 0.22678 0.0
H4063 H 0.75796 0.38769 0.24605 0.0
C4064 C 0.58379 0.76421 0.28179 0.0
C4065 C 0.58241 0.77954 0.27834 0.0
C4066 C 0.58236 0.7532 0.27057 0.0
C4067 C 0.57999 0.75766 0.25545 0.0
C4068 C 0.57761 0.77307 0.25208 0.0
C4069 C 0.57866 0.78384 0.26364 0.0
C4070 C 0.58453 0.73687 0.27474 0.0
C4071 C 0.57533 0.77836 0.2361 0.0
C4072 C 0.60022 0.7328 0.22735 0.0
C4073 C 0.58843 0.72438 0.22113 0.0
C4074 C 0.59748 0.74399 0.2381 0.0
C4075 C 0.58259 0.7466 0.24311 0.0
C4076 C 0.57056 0.73823 0.2368 0.0
C4077 C 0.57361 0.72733 0.22569 0.0
C4078 C 0.61062 0.75289 0.24424 0.0
C4079 C 0.55459 0.74047 0.24209 0.0
H4080 H 0.58655 0.76087 0.2932 0.0
H4081 H 0.57768 0.7957 0.26094 0.0
H4082 H 0.57607 0.7297 0.26901 0.0
H4083 H 0.59582 0.73309 0.271 0.0
H4084 H 0.58367 0.73505 0.28708 0.0
H4085 H 0.5713 0.79019 0.23562 0.0
H4086 H 0.58617 0.77763 0.22995 0.0
H4087 H 0.56715 0.77107 0.23013 0.0
H4088 H 0.61168 0.73073 0.22368 0.0
H4089 H 0.56448 0.72082 0.2209 0.0
H4090 H 0.61208 0.75043 0.25639 0.0
H4091 H 0.60842 0.76513 0.24313 0.0
H4092 H 0.62132 0.75022 0.23836 0.0
H4093 H 0.55366 0.73706 0.25407 0.0
H4094 H 0.54642 0.73379 0.23539 0.0
H4095 H 0.55143 0.75253 0.24144 0.0
C4096 C 0.26571 0.57871 0.21749 0.0
C4097 C 0.2798 0.584 0.22222 0.0
C4098 C 0.25364 0.57764 0.22767 0.0
C4099 C 0.25587 0.58163 0.24294 0.0
C4100 C 0.27048 0.58549 0.24801 0.0
C4101 C 0.28222 0.58683 0.23755 0.0
C4102 C 0.23824 0.57364 0.22175 0.0
C4103 C 0.27346 0.58942 0.26427 0.0
C4104 C 0.22538 0.60239 0.26424 0.0
C4105 C 0.21962 0.59118 0.2737 0.0
C4106 C 0.23669 0.59919 0.25376 0.0
C4107 C 0.24272 0.58445 0.25295 0.0
C4108 C 0.23673 0.57295 0.26225 0.0
C4109 C 0.22507 0.57642 0.27242 0.0
C4110 C 0.24244 0.61172 0.2438 0.0
C4111 C 0.24305 0.5572 0.26191 0.0
H4112 H 0.26377 0.57656 0.20564 0.0
H4113 H 0.29316 0.59075 0.24127 0.0
H4114 H 0.23233 0.56589 0.22955 0.0
H4115 H 0.23136 0.58403 0.22085 0.0
H4116 H 0.23882 0.56832 0.21044 0.0
H4117 H 0.28569 0.58963 0.26685 0.0
H4118 H 0.26873 0.60072 0.26674 0.0
H4119 H 0.26788 0.58124 0.27187 0.0
H4120 H 0.22102 0.61376 0.26505 0.0
H4121 H 0.22064 0.56775 0.27977 0.0
H4122 H 0.24221 0.60818 0.23183 0.0
H4123 H 0.2543 0.61431 0.24672 0.0
H4124 H 0.23572 0.6222 0.24499 0.0
H4125 H 0.2438 0.55302 0.25017 0.0
H4126 H 0.23614 0.54921 0.26861 0.0
H4127 H 0.25464 0.55728 0.26655 0.0
C4128 C 0.40184 0.22645 0.27119 0.0
C4129 C 0.41396 0.22076 0.27952 0.0
C4130 C 0.40412 0.23654 0.25932 0.0
C4131 C 0.41889 0.24142 0.25588 0.0
C4132 C 0.43124 0.23564 0.26415 0.0
C4133 C 0.42865 0.22519 0.27579 0.0
C4134 C 0.39063 0.24213 0.25059 0.0
C4135 C 0.4471 0.24082 0.26101 0.0
C4136 C 0.42092 0.25992 0.21748 0.0
C4137 C 0.41717 0.27478 0.2212 0.0
C4138 C 0.42267 0.24898 0.22879 0.0
C4139 C 0.42098 0.25316 0.24409 0.0
C4140 C 0.41866 0.26847 0.24786 0.0
C4141 C 0.41654 0.27905 0.23636 0.0
C4142 C 0.4249 0.23276 0.22426 0.0
C4143 C 0.4172 0.27349 0.26403 0.0
H4144 H 0.39049 0.22285 0.27384 0.0
H4145 H 0.43804 0.22079 0.28222 0.0
H4146 H 0.38921 0.25441 0.25241 0.0
H4147 H 0.39237 0.24033 0.23835 0.0
H4148 H 0.38006 0.2364 0.25398 0.0
H4149 H 0.45555 0.23447 0.26768 0.0
H4150 H 0.44976 0.23956 0.24888 0.0
H4151 H 0.44813 0.25296 0.26377 0.0
H4152 H 0.42135 0.25661 0.20574 0.0
H4153 H 0.4138 0.2906 0.23922 0.0
H4154 H 0.41415 0.22658 0.22569 0.0
H4155 H 0.4334 0.22723 0.23153 0.0
H4156 H 0.42849 0.2317 0.21232 0.0
H4157 H 0.40611 0.26991 0.26851 0.0
H4158 H 0.41806 0.28592 0.26515 0.0
H4159 H 0.42601 0.26819 0.27111 0.0
C4160 C 0.76362 0.71994 0.58089 0.0
C4161 C 0.77907 0.7222 0.57875 0.0
C4162 C 0.75341 0.73189 0.57951 0.0
C4163 C 0.75885 0.74654 0.57636 0.0
C4164 C 0.77432 0.74867 0.57314 0.0
C4165 C 0.78425 0.7364 0.57422 0.0
C4166 C 0.73696 0.72904 0.58262 0.0
C4167 C 0.78062 0.76411 0.56993 0.0
C4168 C 0.72973 0.77755 0.57058 0.0
C4169 C 0.72769 0.78252 0.58541 0.0
C4170 C 0.74013 0.76604 0.56727 0.0
C4171 C 0.74886 0.75973 0.57904 0.0
C4172 C 0.74733 0.76533 0.59388 0.0
C4173 C 0.73665 0.7765 0.5969 0.0
C4174 C 0.74126 0.76019 0.55137 0.0
C4175 C 0.75666 0.75921 0.60672 0.0
H4176 H 0.75958 0.70892 0.58423 0.0
H4177 H 0.79621 0.73819 0.57262 0.0
H4178 H 0.73402 0.73355 0.59389 0.0
H4179 H 0.72981 0.73491 0.57423 0.0
H4180 H 0.73421 0.71684 0.58243 0.0
H4181 H 0.79216 0.76354 0.56518 0.0
H4182 H 0.77329 0.77035 0.56199 0.0
H4183 H 0.78105 0.77066 0.58056 0.0
H4184 H 0.72276 0.78218 0.5617 0.0
H4185 H 0.73522 0.7805 0.60834 0.0
H4186 H 0.73657 0.74862 0.55088 0.0
H4187 H 0.75319 0.75951 0.54778 0.0
H4188 H 0.735 0.76736 0.54326 0.0
H4189 H 0.75353 0.74732 0.60889 0.0
H4190 H 0.75504 0.7657 0.61728 0.0
H4191 H 0.76878 0.75941 0.60374 0.0
C4192 C 0.77593 0.2742 0.43241 0.0
C4193 C 0.78164 0.27559 0.41777 0.0
C4194 C 0.76433 0.26389 0.43559 0.0
C4195 C 0.75868 0.25457 0.42393 0.0
C4196 C 0.76507 0.25541 0.40936 0.0
C4197 C 0.77631 0.26604 0.40643 0.0
C4198 C 0.75763 0.26349 0.45119 0.0
C4199 C 0.75969 0.24544 0.39667 0.0
C4200 C 0.73517 0.21936 0.42909 0.0
C4201 C 0.72125 0.22426 0.4235 0.0
C4202 C 0.74734 0.22939 0.4304 0.0
C4203 C 0.74537 0.24468 0.42635 0.0
C4204 C 0.73092 0.24991 0.42211 0.0
C4205 C 0.71909 0.23959 0.42053 0.0
C4206 C 0.76257 0.2233 0.43479 0.0
C4207 C 0.72823 0.2662 0.41808 0.0
H4208 H 0.78004 0.28165 0.44116 0.0
H4209 H 0.78088 0.26698 0.39515 0.0
H4210 H 0.74612 0.26831 0.45086 0.0
H4211 H 0.75663 0.25173 0.45525 0.0
H4212 H 0.76443 0.27004 0.45939 0.0
H4213 H 0.76677 0.24655 0.38643 0.0
H4214 H 0.75972 0.23348 0.40025 0.0
H4215 H 0.74794 0.24843 0.39367 0.0
H4216 H 0.7369 0.2075 0.43135 0.0
H4217 H 0.70827 0.24344 0.41639 0.0
H4218 H 0.76836 0.23104 0.44269 0.0
H4219 H 0.7697 0.22234 0.42457 0.0
H4220 H 0.76174 0.212 0.44007 0.0
H4221 H 0.7336 0.27375 0.42645 0.0
H4222 H 0.71604 0.26891 0.41746 0.0
H4223 H 0.73336 0.26863 0.40696 0.0
C4224 C 0.77527 0.73558 0.39778 0.0
C4225 C 0.78115 0.72646 0.40921 0.0
C4226 C 0.7644 0.74653 0.40088 0.0
C4227 C 0.75891 0.74817 0.41575 0.0
C4228 C 0.76493 0.73912 0.42744 0.0
C4229 C 0.77618 0.72847 0.42405 0.0
C4230 C 0.7586 0.75619 0.38813 0.0
C4231 C 0.75913 0.74033 0.44335 0.0
C4232 C 0.73789 0.78493 0.42063 0.0
C4233 C 0.72346 0.78068 0.41592 0.0
C4234 C 0.74946 0.77421 0.42184 0.0
C4235 C 0.74636 0.7589 0.41859 0.0
C4236 C 0.73142 0.75442 0.41534 0.0
C4237 C 0.72019 0.7654 0.41382 0.0
C4238 C 0.76525 0.77951 0.42514 0.0
C4239 C 0.72753 0.73818 0.41222 0.0
H4240 H 0.77929 0.73422 0.38634 0.0
H4241 H 0.78073 0.72141 0.4329 0.0
H4242 H 0.74654 0.75371 0.3861 0.0
H4243 H 0.7595 0.76828 0.39112 0.0
H4244 H 0.76487 0.75426 0.37748 0.0
H4245 H 0.76587 0.73348 0.45135 0.0
H4246 H 0.75923 0.75222 0.44715 0.0
H4247 H 0.74729 0.73642 0.44376 0.0
H4248 H 0.74044 0.79675 0.42222 0.0
H4249 H 0.70897 0.76209 0.41034 0.0
H4250 H 0.77184 0.77962 0.41452 0.0
H4251 H 0.77101 0.77176 0.43304 0.0
H4252 H 0.76538 0.79105 0.42997 0.0
H4253 H 0.73169 0.73501 0.40088 0.0
H4254 H 0.71519 0.7362 0.41257 0.0
H4255 H 0.73305 0.73065 0.42051 0.0
C4256 C 0.22999 0.72614 0.43019 0.0
C4257 C 0.22467 0.72385 0.41552 0.0
C4258 C 0.24142 0.73676 0.43309 0.0
C4259 C 0.24726 0.7455 0.42108 0.0
C4260 C 0.24145 0.74356 0.40637 0.0
C4261 C 0.23041 0.73264 0.40376 0.0
C4262 C 0.24757 0.73826 0.44884 0.0
C4263 C 0.24702 0.7529 0.39329 0.0
C4264 C 0.2684 0.78233 0.42531 0.0
C4265 C 0.28282 0.77807 0.42054 0.0
C4266 C 0.25681 0.77164 0.42661 0.0
C4267 C 0.25987 0.75631 0.42345 0.0
C4268 C 0.27478 0.75181 0.42006 0.0
C4269 C 0.28602 0.76278 0.41839 0.0
C4270 C 0.24105 0.77699 0.42998 0.0
C4271 C 0.27864 0.73554 0.41706 0.0
H4272 H 0.22557 0.71932 0.43929 0.0
H4273 H 0.22614 0.73105 0.39243 0.0
H4274 H 0.25949 0.73454 0.44902 0.0
H4275 H 0.24739 0.7502 0.45247 0.0
H4276 H 0.24113 0.73143 0.4571 0.0
H4277 H 0.24054 0.75076 0.38282 0.0
H4278 H 0.24623 0.76506 0.39604 0.0
H4279 H 0.25903 0.75033 0.39108 0.0
H4280 H 0.26587 0.79417 0.42689 0.0
H4281 H 0.29721 0.75944 0.41485 0.0
H4282 H 0.23543 0.76944 0.43818 0.0
H4283 H 0.2343 0.77677 0.41947 0.0
H4284 H 0.24093 0.78865 0.4345 0.0
H4285 H 0.27327 0.72811 0.42554 0.0
H4286 H 0.29098 0.73357 0.4172 0.0
H4287 H 0.27426 0.73223 0.40584 0.0
C4288 C 0.27866 0.23414 0.41521 0.0
C4289 C 0.2755 0.21884 0.41729 0.0
C4290 C 0.26732 0.24502 0.41651 0.0
C4291 C 0.25237 0.24043 0.41954 0.0
C4292 C 0.24934 0.2251 0.42277 0.0
C4293 C 0.26103 0.21447 0.42176 0.0
C4294 C 0.27114 0.26129 0.41338 0.0
C4295 C 0.23356 0.21971 0.4259 0.0
C4296 C 0.2229 0.27125 0.42455 0.0
C4297 C 0.21818 0.27332 0.40963 0.0
C4298 C 0.23382 0.26033 0.42814 0.0
C4299 C 0.23981 0.25111 0.41657 0.0
C4300 C 0.23451 0.25276 0.40163 0.0
C4301 C 0.22393 0.26394 0.39834 0.0
C4302 C 0.23936 0.25907 0.44414 0.0
C4303 C 0.24032 0.24297 0.38899 0.0
H4304 H 0.28991 0.23754 0.41194 0.0
H4305 H 0.25856 0.20262 0.42334 0.0
H4306 H 0.26697 0.26441 0.40203 0.0
H4307 H 0.26556 0.26879 0.42165 0.0
H4308 H 0.28346 0.26334 0.41375 0.0
H4309 H 0.23346 0.20819 0.43078 0.0
H4310 H 0.22765 0.22746 0.4337 0.0
H4311 H 0.2271 0.2195 0.41521 0.0
H4312 H 0.21845 0.2785 0.4333 0.0
H4313 H 0.22011 0.26533 0.38683 0.0
H4314 H 0.25115 0.26313 0.44476 0.0
H4315 H 0.23935 0.24715 0.44786 0.0
H4316 H 0.23242 0.2658 0.45207 0.0
H4317 H 0.25241 0.24536 0.38702 0.0
H4318 H 0.23414 0.24486 0.37829 0.0
H4319 H 0.23934 0.2309 0.39206 0.0
C4320 C 0.23814 0.28464 0.58085 0.0
C4321 C 0.22267 0.28202 0.57936 0.0
C4322 C 0.24851 0.2728 0.57972 0.0
C4323 C 0.24323 0.25792 0.57754 0.0
C4324 C 0.22769 0.25538 0.57498 0.0
C4325 C 0.21759 0.26754 0.57573 0.0
C4326 C 0.26501 0.27607 0.58206 0.0
C4327 C 0.22154 0.23969 0.57289 0.0
C4328 C 0.27199 0.2264 0.5725 0.0
C4329 C 0.27439 0.22209 0.58749 0.0
C4330 C 0.26174 0.23797 0.56895 0.0
C4331 C 0.25348 0.24503 0.58064 0.0
C4332 C 0.2555 0.24024 0.5957 0.0
C4333 C 0.26603 0.229 0.59894 0.0
C4334 C 0.26011 0.24298 0.5528 0.0
C4335 C 0.24669 0.24718 0.6085 0.0
H4336 H 0.24208 0.29588 0.58351 0.0
H4337 H 0.20561 0.26549 0.57466 0.0
H4338 H 0.2684 0.27239 0.5935 0.0
H4339 H 0.27197 0.26975 0.57384 0.0
H4340 H 0.26755 0.28827 0.58095 0.0
H4341 H 0.2098 0.23982 0.5686 0.0
H4342 H 0.22864 0.23312 0.565 0.0
H4343 H 0.22165 0.23374 0.58387 0.0
H4344 H 0.27846 0.22109 0.56363 0.0
H4345 H 0.26769 0.22553 0.61053 0.0
H4346 H 0.26438 0.25465 0.55163 0.0
H4347 H 0.24809 0.24309 0.54946 0.0
H4348 H 0.26642 0.2356 0.54492 0.0
H4349 H 0.24982 0.2592 0.60976 0.0
H4350 H 0.24878 0.2414 0.61939 0.0
H4351 H 0.23445 0.24673 0.60605 0.0
C4352 C 0.78675 0.26292 0.58205 0.0
C4353 C 0.78222 0.27711 0.58726 0.0
C4354 C 0.77634 0.25107 0.5808 0.0
C4355 C 0.76105 0.25363 0.58454 0.0
C4356 C 0.75624 0.26834 0.58835 0.0
C4357 C 0.76692 0.27985 0.58987 0.0
C4358 C 0.78197 0.23554 0.57685 0.0
C4359 C 0.73999 0.27168 0.59203 0.0
C4360 C 0.7307 0.22382 0.57874 0.0
C4361 C 0.72898 0.2184 0.59346 0.0
C4362 C 0.74136 0.23509 0.57546 0.0
C4363 C 0.75068 0.24072 0.58712 0.0
C4364 C 0.74943 0.23468 0.60182 0.0
C4365 C 0.7385 0.22376 0.60483 0.0
C4366 C 0.74218 0.24141 0.55973 0.0
C4367 C 0.75937 0.24007 0.61453 0.0
H4368 H 0.79859 0.26076 0.58007 0.0
H4369 H 0.76338 0.29088 0.59373 0.0
H4370 H 0.78254 0.22862 0.58723 0.0
H4371 H 0.77417 0.22983 0.56896 0.0
H4372 H 0.79337 0.23589 0.57172 0.0
H4373 H 0.73769 0.28396 0.5923 0.0
H4374 H 0.73241 0.26634 0.58367 0.0
H4375 H 0.73721 0.26692 0.60323 0.0
H4376 H 0.72331 0.2197 0.56994 0.0
H4377 H 0.73735 0.21941 0.61617 0.0
H4378 H 0.75401 0.24184 0.55578 0.0
H4379 H 0.73785 0.25312 0.55974 0.0
H4380 H 0.73545 0.2347 0.5516 0.0
H4381 H 0.77138 0.23951 0.61116 0.0
H4382 H 0.75784 0.23331 0.62494 0.0
H4383 H 0.75676 0.25199 0.61715 0.0
C4384 C 0.27949 0.76842 0.58898 0.0
C4385 C 0.27736 0.7838 0.58629 0.0
C4386 C 0.26766 0.75815 0.58715 0.0
C4387 C 0.25325 0.76346 0.58293 0.0
C4388 C 0.25131 0.77884 0.57917 0.0
C4389 C 0.26347 0.78883 0.58075 0.0
C4390 C 0.27034 0.74179 0.5909 0.0
C4391 C 0.23611 0.78499 0.57476 0.0
C4392 C 0.22318 0.73361 0.57621 0.0
C4393 C 0.21744 0.73187 0.59079 0.0
C4394 C 0.23455 0.74424 0.57322 0.0
C4395 C 0.23996 0.75349 0.58505 0.0
C4396 C 0.23348 0.75233 0.59956 0.0
C4397 C 0.22245 0.74143 0.60228 0.0
C4398 C 0.24131 0.74501 0.55767 0.0
C4399 C 0.23862 0.76219 0.61244 0.0
H4400 H 0.29029 0.76448 0.59307 0.0
H4401 H 0.26179 0.80074 0.57869 0.0
H4402 H 0.26504 0.73913 0.6019 0.0
H4403 H 0.2651 0.73439 0.58231 0.0
H4404 H 0.28252 0.73908 0.59165 0.0
H4405 H 0.23699 0.79638 0.56968 0.0
H4406 H 0.23039 0.77739 0.56668 0.0
H4407 H 0.22889 0.78577 0.58493 0.0
H4408 H 0.21932 0.72618 0.56733 0.0
H4409 H 0.21784 0.74024 0.61352 0.0
H4410 H 0.25282 0.74019 0.55793 0.0
H4411 H 0.24232 0.75686 0.55387 0.0
H4412 H 0.23455 0.73864 0.5493 0.0
H4413 H 0.25037 0.75927 0.61552 0.0
H4414 H 0.23145 0.76086 0.62259 0.0
H4415 H 0.2385 0.7742 0.60902 0.0
C4416 C 0.03148 0.19802 0.33365 0.0
C4417 C 0.03897 0.19593 0.31995 0.0
C4418 C 0.01568 0.19826 0.33431 0.0
C4419 C 0.00723 0.19701 0.32084 0.0
C4420 C 0.01482 0.19525 0.30692 0.0
C4421 C 0.03061 0.19442 0.30669 0.0
C4422 C 0.00804 0.19959 0.34942 0.0
C4423 C 0.00627 0.19442 0.29225 0.0
C4424 C 0.96638 0.18426 0.32167 0.0
C4425 C 0.9587 0.19802 0.32161 0.0
C4426 C 0.98217 0.18377 0.32185 0.0
C4427 C 0.99046 0.19738 0.32131 0.0
C4428 C 0.98271 0.21132 0.32104 0.0
C4429 C 0.9669 0.21147 0.32151 0.0
C4430 C 0.98999 0.1687 0.32269 0.0
C4431 C 0.9911 0.22606 0.3199 0.0
H4432 H 0.03798 0.19909 0.34392 0.0
H4433 H 0.03644 0.19295 0.29607 0.0
H4434 H 0.0011 0.20996 0.34982 0.0
H4435 H 1.00033 0.18991 0.35114 0.0
H4436 H 0.01622 0.19992 0.35887 0.0
H4437 H 0.01389 0.19393 0.28235 0.0
H4438 H 0.99896 0.18431 0.29214 0.0
H4439 H 0.99884 0.20439 0.29109 0.0
H4440 H 0.96 0.17385 0.32185 0.0
H4441 H 0.96093 0.22212 0.3213 0.0
H4442 H 0.99792 0.16855 0.33234 0.0
H4443 H 0.99669 0.16679 0.31234 0.0
H4444 H 0.98192 0.15924 0.32399 0.0
H4445 H 0.99865 0.22746 0.32974 0.0
H4446 H 0.98339 0.23588 0.31937 0.0
H4447 H 0.99829 0.22605 0.30969 0.0
C4448 C 0.8174 0.9728 0.31818 0.0
C4449 C 0.80527 0.9644 0.32376 0.0
C4450 C 0.81723 0.98863 0.31852 0.0
C4451 C 0.80449 0.99626 0.32433 0.0
C4452 C 0.7922 0.98782 0.32997 0.0
C4453 C 0.7928 0.972 0.32975 0.0
C4454 C 0.83068 0.99718 0.31265 0.0
C4455 C 0.77829 0.9955 0.33601 0.0
C4456 C 0.80791 0.0371 0.33704 0.0
C4457 C 0.80293 0.04483 0.32426 0.0
C4458 C 0.80873 0.02129 0.33713 0.0
C4459 C 0.80394 0.01306 0.32432 0.0
C4460 C 0.79863 0.02092 0.31148 0.0
C4461 C 0.79845 0.03674 0.31152 0.0
C4462 C 0.81488 0.0134 0.35087 0.0
C4463 C 0.793 0.01261 0.29777 0.0
H4464 H 0.8271 0.96701 0.31359 0.0
H4465 H 0.78334 0.96558 0.33401 0.0
H4466 H 0.82733 0.00421 0.3029 0.0
H4467 H 0.835 0.0049 0.32147 0.0
H4468 H 0.83995 0.98959 0.30908 0.0
H4469 H 0.76965 0.98733 0.33987 0.0
H4470 H 0.78131 0.00292 0.34558 0.0
H4471 H 0.77328 0.00274 0.32715 0.0
H4472 H 0.81143 0.04345 0.34685 0.0
H4473 H 0.79451 0.04281 0.30169 0.0
H4474 H 0.8246 0.00624 0.34765 0.0
H4475 H 0.80619 0.00586 0.35571 0.0
H4476 H 0.81857 0.02144 0.3597 0.0
H4477 H 0.80219 0.00573 0.29288 0.0
H4478 H 0.78869 0.02037 0.28896 0.0
H4479 H 0.78384 0.00477 0.30102 0.0
C4480 C 0.96898 0.79314 0.32788 0.0
C4481 C 0.96196 0.80725 0.32816 0.0
C4482 C 0.98474 0.79192 0.32825 0.0
C4483 C 0.9936 0.80511 0.32954 0.0
C4484 C 0.98647 0.81935 0.3305 0.0
C4485 C 0.97073 0.82026 0.32946 0.0
C4486 C 0.9919 0.7766 0.32659 0.0
C4487 C 0.99547 0.83363 0.33241 0.0
C4488 C 0.03461 0.80079 0.34133 0.0
C4489 C 0.04204 0.80318 0.32764 0.0
C4490 C 0.01882 0.80155 0.34219 0.0
C4491 C 0.01033 0.80414 0.32893 0.0
C4492 C 0.01785 0.80607 0.31501 0.0
C4493 C 0.03362 0.80587 0.3146 0.0
C4494 C 0.01125 0.79997 0.35731 0.0
C4495 C 0.00924 0.80831 0.30052 0.0
H4496 H 0.96216 0.78308 0.32672 0.0
H4497 H 0.96525 0.83117 0.32978 0.0
H4498 H 0.99879 0.7763 0.31618 0.0
H4499 H 0.99957 0.77434 0.33617 0.0
H4500 H 0.98342 0.76743 0.32602 0.0
H4501 H 0.98818 0.84356 0.33457 0.0
H4502 H 0.00351 0.83242 0.3419 0.0
H4503 H 0.00217 0.83582 0.32211 0.0
H4504 H 0.04117 0.79882 0.35143 0.0
H4505 H 0.0394 0.80758 0.30399 0.0
H4506 H 0.00327 0.79038 0.35715 0.0
H4507 H 0.00462 0.81026 0.35979 0.0
H4508 H 0.01947 0.79817 0.36657 0.0
H4509 H 0.0009 0.79913 0.29903 0.0
H4510 H 0.01674 0.80855 0.29053 0.0
H4511 H 0.0029 0.81906 0.30097 0.0
C4512 C 0.19275 0.03009 0.30943 0.0
C4513 C 0.1942 0.03828 0.32282 0.0
C4514 C 0.19343 0.01428 0.30945 0.0
C4515 C 0.19495 0.00648 0.32328 0.0
C4516 C 0.19599 0.01474 0.33689 0.0
C4517 C 0.19593 0.03056 0.33646 0.0
C4518 C 0.19285 0.00595 0.29465 0.0
C4519 C 0.19706 0.00688 0.35191 0.0
C4520 C 0.18301 0.96529 0.32335 0.0
C4521 C 0.19692 0.95789 0.32351 0.0
C4522 C 0.18219 0.98109 0.32367 0.0
C4523 C 0.19563 0.98968 0.32349 0.0
C4524 C 0.20972 0.9822 0.32338 0.0
C4525 C 0.21019 0.96639 0.32371 0.0
C4526 C 0.16696 0.98859 0.32435 0.0
C4527 C 0.22429 0.9909 0.32262 0.0
H4528 H 0.19157 0.03609 0.29887 0.0
H4529 H 0.19696 0.03692 0.34683 0.0
H4530 H 0.20302 0.99881 0.29341 0.0
H4531 H 0.18295 0.99837 0.29438 0.0
H4532 H 0.19219 0.01371 0.28486 0.0
H4533 H 0.19685 0.01491 0.36149 0.0
H4534 H 0.18757 0.99885 0.3532 0.0
H4535 H 0.20761 1.00025 0.35252 0.0
H4536 H 0.17274 0.95869 0.32328 0.0
H4537 H 0.22095 0.96064 0.32368 0.0
H4538 H 0.16513 0.99548 0.31411 0.0
H4539 H 0.16645 0.99631 0.33416 0.0
H4540 H 0.15764 0.98031 0.32528 0.0
H4541 H 0.22427 0.99834 0.31259 0.0
H4542 H 0.23427 0.98339 0.322 0.0
H4543 H 0.22545 0.99822 0.33266 0.0
C4544 C 0.02757 0.81902 0.6766 0.0
C4545 C 0.03603 0.80573 0.67644 0.0
C4546 C 0.01177 0.8186 0.67619 0.0
C4547 C 0.00427 0.80452 0.67626 0.0
C4548 C 0.01282 0.79105 0.67622 0.0
C4549 C 0.02861 0.79182 0.67601 0.0
C4550 C 0.0031 0.83321 0.67568 0.0
C4551 C 0.00529 0.77583 0.67685 0.0
C4552 C 0.96407 0.80458 0.69102 0.0
C4553 C 0.95577 0.80289 0.67774 0.0
C4554 C 0.97988 0.80478 0.69073 0.0
C4555 C 0.98751 0.8039 0.67675 0.0
C4556 C 0.9791 0.80249 0.66327 0.0
C4557 C 0.96332 0.80167 0.66396 0.0
C4558 C 0.98841 0.80573 0.7054 0.0
C4559 C 0.98676 0.80207 0.64811 0.0
H4560 H 0.03333 0.82978 0.67684 0.0
H4561 H 0.03518 0.78154 0.67605 0.0
H4562 H 0.99511 0.83311 0.66608 0.0
H4563 H 0.99637 0.83451 0.68611 0.0
H4564 H 0.01062 0.84314 0.67455 0.0
H4565 H 0.01355 0.76644 0.677 0.0
H4566 H 0.99819 0.77506 0.6871 0.0
H4567 H 0.99777 0.77434 0.66701 0.0
H4568 H 0.9582 0.80537 0.70168 0.0
H4569 H 0.95685 0.80046 0.65368 0.0
H4570 H 0.99509 0.81626 0.70577 0.0
H4571 H 0.99643 0.7962 0.70628 0.0
H4572 H 0.98081 0.8055 0.71533 0.0
H4573 H 0.99387 0.81224 0.64667 0.0
H4574 H 0.97858 0.80154 0.63867 0.0
H4575 H 0.9943 0.79216 0.64739 0.0
C4576 C 0.19519 0.03315 0.6692 0.0
C4577 C 0.19589 0.04073 0.68299 0.0
C4578 C 0.19435 0.01735 0.66866 0.0
C4579 C 0.19491 0.00896 0.68222 0.0
C4580 C 0.19601 0.01663 0.69617 0.0
C4581 C 0.19613 0.03245 0.69639 0.0
C4582 C 0.19263 0.00966 0.65361 0.0
C4583 C 0.19727 0.00814 0.71083 0.0
C4584 C 0.18057 0.96853 0.68351 0.0
C4585 C 0.19382 0.96034 0.68113 0.0
C4586 C 0.1807 0.98437 0.68359 0.0
C4587 C 0.19451 0.99216 0.68182 0.0
C4588 C 0.20797 0.98387 0.67972 0.0
C4589 C 0.20741 0.96808 0.67912 0.0
C4590 C 0.16604 0.99277 0.68538 0.0
C4591 C 0.223 0.99168 0.67832 0.0
H4592 H 0.19488 0.03962 0.65885 0.0
H4593 H 0.1968 0.03837 0.70704 0.0
H4594 H 0.20248 0.00231 0.65141 0.0
H4595 H 0.18251 0.00234 0.6537 0.0
H4596 H 0.19159 0.01783 0.6442 0.0
H4597 H 0.19877 0.01578 0.72062 0.0
H4598 H 0.18702 0.00127 0.71269 0.0
H4599 H 0.20696 1.00027 0.71037 0.0
H4600 H 0.17003 0.96256 0.68498 0.0
H4601 H 0.2177 0.96175 0.67743 0.0
H4602 H 0.16444 1.00061 0.67579 0.0
H4603 H 0.1663 0.99965 0.69579 0.0
H4604 H 0.15621 0.98507 0.68595 0.0
H4605 H 0.22306 0.99905 0.66825 0.0
H4606 H 0.23248 0.98359 0.67738 0.0
H4607 H 0.22493 0.99899 0.68826 0.0
C4608 C 0.97388 0.19964 0.66595 0.0
C4609 C 0.96627 0.19827 0.67967 0.0
C4610 C 0.9897 0.19974 0.66544 0.0
C4611 C 0.99803 0.19915 0.67904 0.0
C4612 C 0.99031 0.19816 0.69296 0.0
C4613 C 0.97452 0.19739 0.69307 0.0
C4614 C 0.9975 0.20022 0.65036 0.0
C4615 C 0.9987 0.19811 0.70774 0.0
C4616 C 0.03904 0.18666 0.67956 0.0
C4617 C 0.0466 0.20047 0.67894 0.0
C4618 C 0.02323 0.18604 0.67915 0.0
C4619 C 0.01482 0.1996 0.67876 0.0
C4620 C 0.02246 0.21359 0.6784 0.0
C4621 C 0.03827 0.21384 0.67818 0.0
C4622 C 0.01555 0.17089 0.679 0.0
C4623 C 0.01395 0.2283 0.67859 0.0
H4624 H 0.96746 0.20019 0.65559 0.0
H4625 H 0.96858 0.19646 0.70369 0.0
H4626 H 0.00439 0.21058 0.64943 0.0
H4627 H 0.00527 0.1905 0.64929 0.0
H4628 H 0.98941 0.19996 0.64083 0.0
H4629 H 0.99098 0.19812 0.71757 0.0
H4630 H 0.00602 0.18803 0.70846 0.0
H4631 H 0.0061 0.20814 0.70846 0.0
H4632 H 0.0455 0.17633 0.68004 0.0
H4633 H 0.04414 0.22453 0.67785 0.0
H4634 H 0.00777 0.17015 0.66926 0.0
H4635 H 0.00869 0.16949 0.68933 0.0
H4636 H 0.02371 0.16144 0.67834 0.0
H4637 H 0.0066 0.22913 0.66854 0.0
H4638 H 0.02158 0.2382 0.67876 0.0
H4639 H 0.00656 0.22878 0.68864 0.0
C4640 C 0.81055 0.03328 0.69436 0.0
C4641 C 0.80936 0.04176 0.68114 0.0
C4642 C 0.80969 0.01748 0.69397 0.0
C4643 C 0.8082 0.01001 0.67995 0.0
C4644 C 0.80739 0.01857 0.66652 0.0
C4645 C 0.80767 0.03436 0.66732 0.0
C4646 C 0.81008 0.00881 0.70857 0.0
C4647 C 0.80634 0.01106 0.65131 0.0
C4648 C 0.81998 0.96885 0.67889 0.0
C4649 C 0.80604 0.96151 0.67859 0.0
C4650 C 0.82085 0.98464 0.67894 0.0
C4651 C 0.80745 0.99326 0.67932 0.0
C4652 C 0.79332 0.98584 0.67918 0.0
C4653 C 0.7928 0.97004 0.67852 0.0
C4654 C 0.83612 0.99209 0.67853 0.0
C4655 C 0.77878 0.99459 0.68007 0.0
H4656 H 0.8117 0.03903 0.70507 0.0
H4657 H 0.80684 0.04094 0.65707 0.0
H4658 H 0.79986 0.00171 0.70956 0.0
H4659 H 0.81993 0.00115 0.70874 0.0
H4660 H 0.81071 0.01633 0.71855 0.0
H4661 H 0.80659 0.01931 0.64192 0.0
H4662 H 0.81582 0.00305 0.64986 0.0
H4663 H 0.79578 0.00447 0.65053 0.0
H4664 H 0.83023 0.96223 0.67886 0.0
H4665 H 0.78201 0.96434 0.67846 0.0
H4666 H 0.83793 0.99867 0.68898 0.0
H4667 H 0.8367 1.0001 0.66896 0.0
H4668 H 0.84541 0.9838 0.6774 0.0
H4669 H 0.77873 0.00168 0.69035 0.0
H4670 H 0.76876 0.98711 0.68031 0.0
H4671 H 0.77778 0.00226 0.67028 0.0
C4672 C 0.33501 0.972 0.19536 0.0
C4673 C 0.32134 0.96433 0.19373 0.0
C4674 C 0.33546 0.98781 0.19553 0.0
C4675 C 0.32185 0.99609 0.19473 0.0
C4676 C 0.30799 0.98833 0.19333 0.0
C4677 C 0.30795 0.97254 0.19252 0.0
C4678 C 0.3505 0.99566 0.19646 0.0
C4679 C 0.2932 0.99668 0.19302 0.0
C4680 C 0.3226 0.036 0.21031 0.0
C4681 C 0.32229 0.04461 0.19712 0.0
C4682 C 0.32218 0.0202 0.20971 0.0
C4683 C 0.32208 0.01286 0.19554 0.0
C4684 C 0.32211 0.02156 0.18217 0.0
C4685 C 0.32188 0.03735 0.18314 0.0
C4686 C 0.32157 0.01138 0.22422 0.0
C4687 C 0.32256 0.0142 0.16687 0.0
H4688 H 0.34537 0.96562 0.19621 0.0
H4689 H 0.29736 0.96656 0.19144 0.0
H4690 H 0.35167 0.00376 0.18703 0.0
H4691 H 0.35125 0.00219 0.20707 0.0
H4692 H 0.36007 0.98762 0.19606 0.0
H4693 H 0.2834 0.98894 0.19241 0.0
H4694 H 0.2921 0.00373 0.20327 0.0
H4695 H 0.29281 0.00436 0.18319 0.0
H4696 H 0.32277 0.04165 0.22113 0.0
H4697 H 0.32175 0.04405 0.17293 0.0
H4698 H 0.33164 0.00407 0.22521 0.0
H4699 H 0.31156 0.00391 0.22423 0.0
H4700 H 0.32105 0.0188 0.23427 0.0
H4701 H 0.33237 0.0065 0.16614 0.0
H4702 H 0.32332 0.02256 0.1576 0.0
H4703 H 0.31231 0.00729 0.16514 0.0
C4704 C 0.97037 0.32636 0.18198 0.0
C4705 C 0.96192 0.3258 0.19526 0.0
C4706 C 0.98613 0.32741 0.18244 0.0
C4707 C 0.99362 0.32725 0.19652 0.0
C4708 C 0.98509 0.3267 0.20998 0.0
C4709 C 0.9693 0.32627 0.20918 0.0
C4710 C 0.99478 0.32852 0.16785 0.0
C4711 C 0.99263 0.32594 0.22519 0.0
C4712 C 0.03381 0.31269 0.1957 0.0
C4713 C 0.04211 0.32595 0.19754 0.0
C4714 C 0.01802 0.31292 0.19579 0.0
C4715 C 0.01038 0.32685 0.19711 0.0
C4716 C 0.01876 0.34033 0.19876 0.0
C4717 C 0.03456 0.33967 0.19929 0.0
C4718 C 0.00954 0.29824 0.19457 0.0
C4719 C 0.01105 0.35544 0.19963 0.0
H4720 H 0.96463 0.32609 0.17122 0.0
H4721 H 0.96274 0.32568 0.21945 0.0
H4722 H 0.00274 0.33813 0.16829 0.0
H4723 H 0.00153 0.31816 0.16614 0.0
H4724 H 0.98723 0.33 0.15799 0.0
H4725 H 0.98438 0.32576 0.23458 0.0
H4726 H 0.99967 0.31564 0.22586 0.0
H4727 H 1.00022 0.33571 0.22674 0.0
H4728 H 0.03969 0.30206 0.1945 0.0
H4729 H 0.04103 0.34993 0.2006 0.0
H4730 H 0.0029 0.29803 0.184 0.0
H4731 H 0.00148 0.29717 0.20405 0.0
H4732 H 0.01716 0.28833 0.19466 0.0
H4733 H 0.00405 0.3572 0.18943 0.0
H4734 H 0.01919 0.36488 0.20058 0.0
H4735 H 0.00338 0.3558 0.20947 0.0
C4736 C 0.66455 0.96611 0.19757 0.0
C4737 C 0.67838 0.95869 0.19621 0.0
C4738 C 0.66374 0.98191 0.19711 0.0
C4739 C 0.67716 0.99045 0.19594 0.0
C4740 C 0.69119 0.98294 0.19491 0.0
C4741 C 0.69159 0.96713 0.19473 0.0
C4742 C 0.64853 0.98945 0.19767 0.0
C4743 C 0.7058 0.99158 0.19423 0.0
C4744 C 0.67675 0.03108 0.1823 0.0
C4745 C 0.67639 0.03902 0.19591 0.0
C4746 C 0.67651 0.01526 0.18212 0.0
C4747 C 0.67658 0.00723 0.19591 0.0
C4748 C 0.67641 0.01526 0.20969 0.0
C4749 C 0.676 0.03107 0.20951 0.0
C4750 C 0.67613 0.00714 0.1672 0.0
C4751 C 0.67706 0.00717 0.22462 0.0
H4752 H 0.65432 0.95953 0.1986 0.0
H4753 H 0.7023 0.96135 0.19382 0.0
H4754 H 0.64768 0.99661 0.20786 0.0
H4755 H 0.64713 0.99693 0.18777 0.0
H4756 H 0.63915 0.98119 0.19782 0.0
H4757 H 0.71578 0.98404 0.1942 0.0
H4758 H 0.70613 0.99863 0.18394 0.0
H4759 H 0.70664 0.99928 0.20403 0.0
H4760 H 0.67697 0.03727 0.17178 0.0
H4761 H 0.6759 0.03723 0.22004 0.0
H4762 H 0.66657 0.99912 0.16694 0.0
H4763 H 0.68658 1.00049 0.16571 0.0
H4764 H 0.67503 0.01502 0.15755 0.0
H4765 H 0.66721 0.99961 0.22585 0.0
H4766 H 0.67723 0.01508 0.23431 0.0
H4767 H 0.68729 1.00003 0.22512 0.0
C4768 C 0.0289 0.69553 0.19528 0.0
C4769 C 0.03692 0.68205 0.1969 0.0
C4770 C 0.01311 0.69576 0.19612 0.0
C4771 C 0.00513 0.68207 0.19801 0.0
C4772 C 0.01322 0.66838 0.19936 0.0
C4773 C 0.02904 0.66859 0.19911 0.0
C4774 C 0.00499 0.71065 0.1952 0.0
C4775 C 0.00515 0.6535 0.20085 0.0
C4776 C 0.96492 0.68253 0.21288 0.0
C4777 C 0.95655 0.68246 0.19952 0.0
C4778 C 0.98073 0.68267 0.21256 0.0
C4779 C 0.98834 0.6821 0.19854 0.0
C4780 C 0.97987 0.68167 0.18503 0.0
C4781 C 0.96407 0.68219 0.18568 0.0
C4782 C 0.9893 0.68372 0.22719 0.0
C4783 C 0.98749 0.68051 0.16989 0.0
H4784 H 0.03502 0.70597 0.19372 0.0
H4785 H 0.03525 0.65815 0.20027 0.0
H4786 H 0.99758 0.71086 0.18516 0.0
H4787 H 0.99769 0.71215 0.20523 0.0
H4788 H 0.01287 0.72033 0.19452 0.0
H4789 H 0.01306 0.64382 0.20112 0.0
H4790 H 0.99834 0.65336 0.2113 0.0
H4791 H 0.99728 0.65197 0.19127 0.0
H4792 H 0.95908 0.68288 0.22359 0.0
H4793 H 0.95757 0.68203 0.17535 0.0
H4794 H 0.99686 0.69366 0.22698 0.0
H4795 H 0.99649 0.67363 0.22867 0.0
H4796 H 0.98171 0.68468 0.23708 0.0
H4797 H 0.99453 0.69062 0.16787 0.0
H4798 H 0.97929 0.67945 0.16051 0.0
H4799 H 0.99509 0.6706 0.16969 0.0
C4800 C 0.31216 0.96369 0.80555 0.0
C4801 C 0.3252 0.95524 0.80295 0.0
C4802 C 0.31264 0.97947 0.80584 0.0
C4803 C 0.32661 0.98694 0.80411 0.0
C4804 C 0.33988 0.9784 0.80176 0.0
C4805 C 0.33896 0.96263 0.80088 0.0
C4806 C 0.29816 0.98815 0.80783 0.0
C4807 C 0.35506 0.98591 0.80042 0.0
C4808 C 0.3262 0.02813 0.79244 0.0
C4809 C 0.32642 0.03539 0.80642 0.0
C4810 C 0.32631 0.01235 0.7915 0.0
C4811 C 0.32727 0.00368 0.80485 0.0
C4812 C 0.32814 0.01104 0.81898 0.0
C4813 C 0.32737 0.02681 0.81961 0.0
C4814 C 0.32481 0.00495 0.77627 0.0
C4815 C 0.32971 0.00224 0.83343 0.0
H4816 H 0.3015 0.95793 0.807 0.0
H4817 H 0.34905 0.95604 0.79898 0.0
H4818 H 0.29854 0.99471 0.81844 0.0
H4819 H 0.29675 0.9963 0.79847 0.0
H4820 H 0.28815 0.98066 0.80816 0.0
H4821 H 0.36434 0.97764 0.79912 0.0
H4822 H 0.35518 0.99361 0.7906 0.0
H4823 H 0.35725 0.99284 0.81058 0.0
H4824 H 0.3253 0.03479 0.78225 0.0
H4825 H 0.32764 0.03247 0.83042 0.0
H4826 H 0.31443 0.99801 0.77597 0.0
H4827 H 0.33443 0.99728 0.77421 0.0
H4828 H 0.3243 0.0133 0.76697 0.0
H4829 H 0.31935 0.99561 0.8355 0.0
H4830 H 0.33169 0.00967 0.84329 0.0
H4831 H 0.33918 0.99415 0.83253 0.0
C4832 C 0.02955 0.31257 0.80871 0.0
C4833 C 0.0382 0.32563 0.80699 0.0
C4834 C 0.0138 0.31303 0.80748 0.0
C4835 C 0.00649 0.32701 0.80507 0.0
C4836 C 0.01521 0.34028 0.80356 0.0
C4837 C 0.031 0.33938 0.80422 0.0
C4838 C 0.005 0.29854 0.80862 0.0
C4839 C 0.00785 0.35546 0.80155 0.0
C4840 C 0.96625 0.32691 0.79023 0.0
C4841 C 0.95796 0.32719 0.80363 0.0
C4842 C 0.98208 0.32684 0.7905 0.0
C4843 C 0.98973 0.3277 0.80448 0.0
C4844 C 0.98132 0.3286 0.818 0.0
C4845 C 0.96554 0.328 0.81742 0.0
C4846 C 0.9906 0.3253 0.77589 0.0
C4847 C 0.98899 0.33006 0.8331 0.0
H4848 H 0.03515 0.30191 0.81068 0.0
H4849 H 0.03771 0.34949 0.80296 0.0
H4850 H 0.99761 0.29884 0.81867 0.0
H4851 H 0.99763 0.29721 0.79862 0.0
H4852 H 0.01244 0.28852 0.80947 0.0
H4853 H 0.0162 0.36474 0.80089 0.0
H4854 H 0.00096 0.35555 0.79115 0.0
H4855 H 1.00013 0.35771 0.81111 0.0
H4856 H 0.96036 0.32612 0.77958 0.0
H4857 H 0.9591 0.32832 0.82778 0.0
H4858 H 0.99748 0.31488 0.77612 0.0
H4859 H 0.99845 0.33488 0.77444 0.0
H4860 H 0.98299 0.32484 0.76598 0.0
H4861 H 0.99543 0.31967 0.8356 0.0
H4862 H 0.98084 0.33201 0.84238 0.0
H4863 H 0.99714 0.33953 0.83288 0.0
C4864 C 0.6654 0.03631 0.80161 0.0
C4865 C 0.67874 0.04448 0.80351 0.0
C4866 C 0.66541 0.0205 0.80232 0.0
C4867 C 0.67918 0.01271 0.80435 0.0
C4868 C 0.69273 0.02096 0.80589 0.0
C4869 C 0.69229 0.03676 0.80576 0.0
C4870 C 0.65066 0.01215 0.80119 0.0
C4871 C 0.70772 0.01311 0.8075 0.0
C4872 C 0.68018 0.97263 0.81945 0.0
C4873 C 0.68092 0.96421 0.80615 0.0
C4874 C 0.67912 0.98841 0.81901 0.0
C4875 C 0.67947 0.99593 0.80495 0.0
C4876 C 0.68044 0.98743 0.79149 0.0
C4877 C 0.68084 0.97163 0.79225 0.0
C4878 C 0.67755 0.99701 0.83358 0.0
C4879 C 0.68143 0.99501 0.77631 0.0
H4880 H 0.65491 0.04232 0.79997 0.0
H4881 H 0.70263 0.0431 0.80708 0.0
H4882 H 0.65077 0.00459 0.79126 0.0
H4883 H 0.64908 0.00496 0.81128 0.0
H4884 H 0.64089 0.01989 0.8002 0.0
H4885 H 0.71729 0.02116 0.80772 0.0
H4886 H 0.70793 0.00642 0.81803 0.0
H4887 H 0.70941 0.00515 0.79802 0.0
H4888 H 0.68012 0.96685 0.83019 0.0
H4889 H 0.68154 0.96509 0.78197 0.0
H4890 H 0.66754 0.00447 0.83308 0.0
H4891 H 0.68752 0.00431 0.83532 0.0
H4892 H 0.67641 0.98943 0.84346 0.0
H4893 H 0.67127 0.00198 0.77433 0.0
H4894 H 0.68252 0.98679 0.76696 0.0
H4895 H 0.69128 0.00268 0.77606 0.0
C4896 C 0.97276 0.66511 0.80517 0.0
C4897 C 0.96513 0.67866 0.80772 0.0
C4898 C 0.98857 0.66466 0.80466 0.0
C4899 C 0.99688 0.67821 0.80608 0.0
C4900 C 0.98915 0.69197 0.80838 0.0
C4901 C 0.97338 0.69197 0.80948 0.0
C4902 C 0.99638 0.6497 0.80276 0.0
C4903 C 0.99751 0.70674 0.80938 0.0
C4904 C 0.03826 0.678 0.81723 0.0
C4905 C 0.04538 0.67855 0.80318 0.0
C4906 C 0.02249 0.6774 0.81832 0.0
C4907 C 0.01364 0.67805 0.80506 0.0
C4908 C 0.02084 0.67885 0.79085 0.0
C4909 C 0.03663 0.67876 0.79007 0.0
C4910 C 0.01531 0.67599 0.83365 0.0
C4911 C 0.01185 0.68015 0.77648 0.0
H4912 H 0.96635 0.6548 0.80389 0.0
H4913 H 0.96745 0.70249 0.81128 0.0
H4914 H 0.00283 0.64958 0.79208 0.0
H4915 H 0.00456 0.64796 0.81205 0.0
H4916 H 0.98834 0.64013 0.80266 0.0
H4917 H 0.98978 0.7165 0.81054 0.0
H4918 H 0.00524 0.70662 0.81917 0.0
H4919 H 0.00449 0.70836 0.79916 0.0
H4920 H 0.04506 0.67771 0.82736 0.0
H4921 H 0.04217 0.67932 0.77921 0.0
H4922 H 0.00759 0.66617 0.83385 0.0
H4923 H 0.00847 0.68613 0.83611 0.0
H4924 H 0.02378 0.67461 0.84275 0.0
H4925 H 0.0045 0.67016 0.7751 0.0
H4926 H 0.01916 0.68114 0.76638 0.0
H4927 H 0.00442 0.69017 0.77703 0.0
C4928 C 0.21085 0.32142 0.03453 0.0
C4929 C 0.19746 0.32128 0.04284 0.0
C4930 C 0.21062 0.32107 0.01871 0.0
C4931 C 0.19665 0.32123 0.01102 0.0
C4932 C 0.18308 0.32145 0.01942 0.0
C4933 C 0.18365 0.32114 0.03524 0.0
C4934 C 0.22533 0.32025 0.01025 0.0
C4935 C 0.16797 0.32219 0.01169 0.0
C4936 C 0.19774 0.33424 0.97015 0.0
C4937 C 0.19607 0.32063 0.96239 0.0
C4938 C 0.19751 0.33466 0.98598 0.0
C4939 C 0.19625 0.32105 0.99421 0.0
C4940 C 0.19481 0.30724 0.98636 0.0
C4941 C 0.19442 0.30724 0.97054 0.0
C4942 C 0.19849 0.34968 0.99388 0.0
C4943 C 0.19403 0.29243 0.99465 0.0
H4944 H 0.22153 0.32138 0.04043 0.0
H4945 H 0.1733 0.32114 0.04168 0.0
H4946 H 0.22536 0.31026 0.00274 0.0
H4947 H 0.22665 0.33033 0.003 0.0
H4948 H 0.23518 0.31954 0.01791 0.0
H4949 H 0.15853 0.32311 0.01983 0.0
H4950 H 0.1676 0.33203 0.004 0.0
H4951 H 0.16623 0.31198 0.00472 0.0
H4952 H 0.19892 0.34461 0.96383 0.0
H4953 H 0.19327 0.29668 0.96451 0.0
H4954 H 0.20892 0.35024 1.00069 0.0
H4955 H 0.18886 0.35099 0.00173 0.0
H4956 H 0.19845 0.35926 0.98585 0.0
H4957 H 0.20406 0.29114 0.00199 0.0
H4958 H 0.19349 0.28265 0.98687 0.0
H4959 H 0.18399 0.29218 0.00205 0.0
C4960 C 0.20861 0.67456 0.97021 0.0
C4961 C 0.19485 0.6736 0.96258 0.0
C4962 C 0.20912 0.67486 0.98603 0.0
C4963 C 0.19559 0.67358 0.99439 0.0
C4964 C 0.18173 0.67194 0.98667 0.0
C4965 C 0.1815 0.6723 0.97086 0.0
C4966 C 0.22406 0.67717 0.99379 0.0
C4967 C 0.16711 0.67 0.9951 0.0
C4968 C 0.19864 0.66284 0.03583 0.0
C4969 C 0.19578 0.67664 0.04292 0.0
C4970 C 0.19839 0.66161 0.02004 0.0
C4971 C 0.19582 0.67461 0.01116 0.0
C4972 C 0.19327 0.68864 0.01832 0.0
C4973 C 0.19298 0.68941 0.03412 0.0
C4974 C 0.20059 0.64636 0.01288 0.0
C4975 C 0.19099 0.70286 0.00931 0.0
H4976 H 0.21892 0.67575 0.96379 0.0
H4977 H 0.17086 0.67149 0.96494 0.0
H4978 H 0.22374 0.68773 1.00044 0.0
H4979 H 0.22627 0.66784 0.00177 0.0
H4980 H 0.23355 0.67783 0.98568 0.0
H4981 H 0.15755 0.66745 0.98746 0.0
H4982 H 0.16816 0.66076 0.00345 0.0
H4983 H 0.16445 0.68043 0.00142 0.0
H4984 H 0.20071 0.65294 0.04265 0.0
H4985 H 0.19092 0.70012 0.0396 0.0
H4986 H 0.21063 0.64651 0.00547 0.0
H4987 H 0.19075 0.64359 0.0057 0.0
H4988 H 0.20204 0.63729 0.02137 0.0
H4989 H 0.20053 0.70448 0.00141 0.0
H4990 H 0.19005 0.71299 0.01658 0.0
H4991 H 0.18061 0.70194 0.00245 0.0
C4992 C 0.31028 0.19269 0.02925 0.0
C4993 C 0.3236 0.19423 0.03752 0.0
C4994 C 0.3104 0.19322 0.01346 0.0
C4995 C 0.32428 0.19468 0.00576 0.0
C4996 C 0.33782 0.19594 0.0141 0.0
C4997 C 0.33728 0.19604 0.02992 0.0
C4998 C 0.29566 0.19246 0.00504 0.0
C4999 C 0.35289 0.19696 0.00633 0.0
C5000 C 0.32431 0.18176 0.9649 0.0
C5001 C 0.32437 0.19551 0.95721 0.0
C5002 C 0.32474 0.18131 0.98071 0.0
C5003 C 0.32457 0.19496 0.98898 0.0
C5004 C 0.32434 0.20888 0.9812 0.0
C5005 C 0.32457 0.20898 0.96539 0.0
C5006 C 0.32552 0.16626 0.98855 0.0
C5007 C 0.32354 0.22366 0.98956 0.0
H5008 H 0.29968 0.19143 0.03517 0.0
H5009 H 0.34758 0.19713 0.03637 0.0
H5010 H 0.29452 0.20239 0.99755 0.0
H5011 H 0.2954 0.1823 0.9978 0.0
H5012 H 0.28582 0.19211 0.01274 0.0
H5013 H 0.3624 0.19715 0.01443 0.0
H5014 H 0.35436 0.18722 0.99864 0.0
H5015 H 0.35341 0.20729 0.99935 0.0
H5016 H 0.32428 0.17135 0.95853 0.0
H5017 H 0.32449 0.21961 0.9594 0.0
H5018 H 0.31527 0.16451 0.99544 0.0
H5019 H 0.33529 0.16601 0.99633 0.0
H5020 H 0.32657 0.15676 0.98049 0.0
H5021 H 0.31348 0.22379 0.99696 0.0
H5022 H 0.32294 0.23346 0.98182 0.0
H5023 H 0.33354 0.22499 0.99689 0.0
C5024 C 0.81881 0.31778 0.96699 0.0
C5025 C 0.80499 0.31847 0.95943 0.0
C5026 C 0.81943 0.31793 0.98281 0.0
C5027 C 0.80589 0.31815 0.99123 0.0
C5028 C 0.79189 0.31844 0.98358 0.0
C5029 C 0.79163 0.31891 0.96777 0.0
C5030 C 0.83458 0.31817 0.9905 0.0
C5031 C 0.77719 0.31815 0.99209 0.0
C5032 C 0.80741 0.30528 0.03213 0.0
C5033 C 0.80613 0.31898 0.03982 0.0
C5034 C 0.80721 0.3048 0.0163 0.0
C5035 C 0.80632 0.31841 0.00802 0.0
C5036 C 0.80552 0.33231 0.0158 0.0
C5037 C 0.80511 0.33239 0.03161 0.0
C5038 C 0.80753 0.28973 0.00846 0.0
C5039 C 0.80509 0.3471 0.00744 0.0
H5040 H 0.82914 0.31752 0.96052 0.0
H5041 H 0.78094 0.31928 0.96191 0.0
H5042 H 0.83544 0.32826 0.99782 0.0
H5043 H 0.83583 0.30816 0.99784 0.0
H5044 H 0.84404 0.31833 0.98233 0.0
H5045 H 0.76731 0.31742 0.98446 0.0
H5046 H 0.77696 0.30839 0.99988 0.0
H5047 H 0.77608 0.32846 0.99903 0.0
H5048 H 0.80805 0.29489 0.03851 0.0
H5049 H 0.80422 0.343 0.03758 0.0
H5050 H 0.81744 0.28901 1.00092 0.0
H5051 H 0.79735 0.28847 0.00133 0.0
H5052 H 0.80796 0.28019 0.01654 0.0
H5053 H 0.81469 0.34779 0.99949 0.0
H5054 H 0.80556 0.35693 0.01516 0.0
H5055 H 0.79462 0.34787 1.0007 0.0
C5056 C 0.67872 0.79102 0.03198 0.0
C5057 C 0.67944 0.80437 0.04033 0.0
C5058 C 0.67888 0.7913 0.01616 0.0
C5059 C 0.67915 0.8053 0.00853 0.0
C5060 C 0.67951 0.81884 0.01696 0.0
C5061 C 0.67997 0.8182 0.03277 0.0
C5062 C 0.67903 0.7766 0.00763 0.0
C5063 C 0.67925 0.834 0.0093 0.0
C5064 C 0.69247 0.80718 0.9678 0.0
C5065 C 0.67887 0.80611 0.95992 0.0
C5066 C 0.69276 0.80671 0.98362 0.0
C5067 C 0.67905 0.80577 0.99173 0.0
C5068 C 0.66525 0.80511 0.98377 0.0
C5069 C 0.66535 0.80497 0.96795 0.0
C5070 C 0.70774 0.80687 0.99163 0.0
C5071 C 0.65037 0.80467 0.99195 0.0
H5072 H 0.67848 0.78032 0.03784 0.0
H5073 H 0.68045 0.82853 0.03924 0.0
H5074 H 0.66884 0.77569 1.0005 0.0
H5075 H 0.68892 0.77622 1.00001 0.0
H5076 H 0.67946 0.76669 0.01524 0.0
H5077 H 0.67883 0.84345 0.01748 0.0
H5078 H 0.68941 0.83537 0.00219 0.0
H5079 H 0.66933 0.83479 0.00176 0.0
H5080 H 0.70293 0.80791 0.96156 0.0
H5081 H 0.65482 0.80424 0.96183 0.0
H5082 H 0.70878 0.79675 0.99887 0.0
H5083 H 0.70849 0.81685 0.99909 0.0
H5084 H 0.71737 0.80711 0.98367 0.0
H5085 H 0.64955 0.79422 0.99873 0.0
H5086 H 0.64064 0.80509 0.98411 0.0
H5087 H 0.64957 0.8143 0.99987 0.0
C5088 C 0.79226 0.67715 0.03298 0.0
C5089 C 0.80594 0.67699 0.04079 0.0
C5090 C 0.79194 0.67757 0.01716 0.0
C5091 C 0.80563 0.67718 0.00899 0.0
C5092 C 0.81947 0.67653 0.01689 0.0
C5093 C 0.81946 0.67678 0.0327 0.0
C5094 C 0.77698 0.67882 0.00921 0.0
C5095 C 0.83429 0.67555 0.00864 0.0
C5096 C 0.8035 0.66508 0.96789 0.0
C5097 C 0.80542 0.67882 0.9604 0.0
C5098 C 0.80385 0.66433 0.9837 0.0
C5099 C 0.80551 0.67773 0.99219 0.0
C5100 C 0.80714 0.69167 0.98463 0.0
C5101 C 0.80739 0.692 0.96881 0.0
C5102 C 0.80265 0.64917 0.99129 0.0
C5103 C 0.8084 0.70628 0.99323 0.0
H5104 H 0.7818 0.67748 0.03926 0.0
H5105 H 0.83004 0.67656 0.03877 0.0
H5106 H 0.77683 0.68908 0.00208 0.0
H5107 H 0.7753 0.66904 0.00165 0.0
H5108 H 0.76739 0.67937 0.01721 0.0
H5109 H 0.84396 0.67407 0.01643 0.0
H5110 H 0.8341 0.66596 1.00063 0.0
H5111 H 0.83614 0.68592 0.00195 0.0
H5112 H 0.80206 0.65487 0.96136 0.0
H5113 H 0.80873 0.70265 0.963 0.0
H5114 H 0.79246 0.64879 0.99848 0.0
H5115 H 0.81251 0.64737 0.99874 0.0
H5116 H 0.80207 0.63977 0.98306 0.0
H5117 H 0.79865 0.70753 0.00094 0.0
H5118 H 0.80881 0.71622 0.98566 0.0
H5119 H 0.8187 0.70622 1.00027 0.0
C5120 C 0.33243 0.80357 0.03195 0.0
C5121 C 0.31901 0.80559 0.03995 0.0
C5122 C 0.33247 0.80331 0.01614 0.0
C5123 C 0.31868 0.80449 0.00823 0.0
C5124 C 0.30505 0.80617 0.01633 0.0
C5125 C 0.30542 0.80701 0.03211 0.0
C5126 C 0.34728 0.80204 0.00791 0.0
C5127 C 0.29007 0.80692 0.00835 0.0
C5128 C 0.31806 0.81727 0.96742 0.0
C5129 C 0.31782 0.8035 0.95976 0.0
C5130 C 0.31872 0.81775 0.9832 0.0
C5131 C 0.31851 0.80412 0.99148 0.0
C5132 C 0.31801 0.79018 0.98375 0.0
C5133 C 0.31798 0.79004 0.96794 0.0
C5134 C 0.31977 0.83281 0.99099 0.0
C5135 C 0.31723 0.77544 0.99217 0.0
H5136 H 0.34294 0.80256 0.03805 0.0
H5137 H 0.29503 0.8084 0.03835 0.0
H5138 H 0.34745 0.79167 0.00097 0.0
H5139 H 0.34866 0.81172 1.00015 0.0
H5140 H 0.35704 0.80176 0.01573 0.0
H5141 H 0.28046 0.8074 0.01633 0.0
H5142 H 0.28964 0.81702 0.00102 0.0
H5143 H 0.28866 0.79693 0.00098 0.0
H5144 H 0.31804 0.82767 0.96105 0.0
H5145 H 0.31765 0.7794 0.96197 0.0
H5146 H 0.32974 0.83303 0.99851 0.0
H5147 H 0.3097 0.83463 0.99814 0.0
H5148 H 0.32065 0.84229 0.98289 0.0
H5149 H 0.32736 0.77404 0.99932 0.0
H5150 H 0.31639 0.76562 0.98448 0.0
H5151 H 0.30732 0.77543 0.99977 0.0
C5152 C 0.66059 0.19945 0.97052 0.0
C5153 C 0.6744 0.19609 0.9637 0.0
C5154 C 0.65924 0.19987 0.98628 0.0
C5155 C 0.67214 0.19749 0.99535 0.0
C5156 C 0.68619 0.19451 0.98843 0.0
C5157 C 0.68708 0.19354 0.97269 0.0
C5158 C 0.64397 0.20253 0.99323 0.0
C5159 C 0.70032 0.19241 0.99764 0.0
C5160 C 0.6725 0.21148 0.03584 0.0
C5161 C 0.6716 0.19793 0.04383 0.0
C5162 C 0.67252 0.21156 0.02002 0.0
C5163 C 0.671 0.1978 0.01208 0.0
C5164 C 0.66931 0.18418 0.02019 0.0
C5165 C 0.66996 0.18438 0.03597 0.0
C5166 C 0.67491 0.22625 0.01183 0.0
C5167 C 0.66711 0.16934 0.01219 0.0
H5168 H 0.65078 0.20134 0.96352 0.0
H5169 H 0.69779 0.1911 0.96738 0.0
H5170 H 0.64096 0.19291 1.0006 0.0
H5171 H 0.64423 0.21274 1.00041 0.0
H5172 H 0.63502 0.20394 0.98462 0.0
H5173 H 0.71051 0.19121 0.99049 0.0
H5174 H 0.70193 0.20216 0.00529 0.0
H5175 H 0.69928 0.18223 0.00478 0.0
H5176 H 0.67394 0.22194 0.04197 0.0
H5177 H 0.66919 0.17391 0.0422 0.0
H5178 H 0.66572 0.2282 0.00362 0.0
H5179 H 0.68558 0.22573 0.00536 0.0
H5180 H 0.67545 0.23601 0.01963 0.0
H5181 H 0.65797 0.17031 0.00373 0.0
H5182 H 0.6643 0.16008 0.0201 0.0
H5183 H 0.67754 0.16626 0.00606 0.0
C5184 C 0.46564 0.69346 0.80757 0.0
C5185 C 0.45736 0.69448 0.82093 0.0
C5186 C 0.48145 0.69356 0.80779 0.0
C5187 C 0.48913 0.69402 0.82177 0.0
C5188 C 0.48075 0.69462 0.83533 0.0
C5189 C 0.46495 0.69519 0.83472 0.0
C5190 C 0.48993 0.69351 0.79307 0.0
C5191 C 0.48845 0.69458 0.85047 0.0
C5192 C 0.52994 0.68087 0.82169 0.0
C5193 C 0.5377 0.69454 0.82272 0.0
C5194 C 0.51412 0.68049 0.82175 0.0
C5195 C 0.50591 0.69417 0.8222 0.0
C5196 C 0.51377 0.70803 0.82298 0.0
C5197 C 0.52956 0.70802 0.82354 0.0
C5198 C 0.50619 0.66547 0.82148 0.0
C5199 C 0.5055 0.72288 0.82291 0.0
H5200 H 0.45973 0.69307 0.7969 0.0
H5201 H 0.4585 0.69587 0.84506 0.0
H5202 H 0.49742 0.70349 0.79247 0.0
H5203 H 0.49719 0.68339 0.79234 0.0
H5204 H 0.48229 0.69366 0.78318 0.0
H5205 H 0.4803 0.69408 0.85994 0.0
H5206 H 0.49616 0.68478 0.8513 0.0
H5207 H 0.49539 0.70487 0.85176 0.0
H5208 H 0.53625 0.67044 0.82114 0.0
H5209 H 0.53559 0.71862 0.82417 0.0
H5210 H 0.49938 0.66443 0.81108 0.0
H5211 H 0.49833 0.66464 0.83115 0.0
H5212 H 0.51419 0.65587 0.82197 0.0
H5213 H 0.49817 0.72362 0.81282 0.0
H5214 H 0.51329 0.73266 0.82292 0.0
H5215 H 0.4981 0.7237 0.83293 0.0
C5216 C 0.28737 0.5328 0.82984 0.0
C5217 C 0.30089 0.54087 0.8301 0.0
C5218 C 0.28739 0.51697 0.83004 0.0
C5219 C 0.30124 0.50913 0.83112 0.0
C5220 C 0.31487 0.51733 0.83215 0.0
C5221 C 0.31454 0.5331 0.8313 0.0
C5222 C 0.27267 0.50866 0.82838 0.0
C5223 C 0.32983 0.50944 0.83384 0.0
C5224 C 0.30031 0.46774 0.84232 0.0
C5225 C 0.30316 0.46069 0.82851 0.0
C5226 C 0.29983 0.48353 0.84341 0.0
C5227 C 0.30161 0.49238 0.83025 0.0
C5228 C 0.30407 0.48522 0.81622 0.0
C5229 C 0.30513 0.46947 0.81558 0.0
C5230 C 0.29775 0.49074 0.85865 0.0
C5231 C 0.30552 0.49418 0.80185 0.0
H5232 H 0.27683 0.53884 0.82875 0.0
H5233 H 0.325 0.53939 0.83158 0.0
H5234 H 0.2728 0.502 0.81781 0.0
H5235 H 0.27114 0.50061 0.83779 0.0
H5236 H 0.26286 0.5164 0.8281 0.0
H5237 H 0.33915 0.51745 0.83612 0.0
H5238 H 0.3293 0.50114 0.84316 0.0
H5239 H 0.33249 0.50315 0.82339 0.0
H5240 H 0.29888 0.46092 0.85233 0.0
H5241 H 0.30717 0.46398 0.80487 0.0
H5242 H 0.2875 0.49786 0.85868 0.0
H5243 H 0.30744 0.49822 0.86113 0.0
H5244 H 0.29678 0.48228 0.8678 0.0
H5245 H 0.29566 0.50174 0.80051 0.0
H5246 H 0.30634 0.48685 0.79175 0.0
H5247 H 0.31569 0.50139 0.80234 0.0
C5248 C 0.5372 0.31937 0.82191 0.0
C5249 C 0.54446 0.30538 0.82166 0.0
C5250 C 0.52142 0.32031 0.82242 0.0
C5251 C 0.51272 0.30695 0.82202 0.0
C5252 C 0.52006 0.29279 0.82147 0.0
C5253 C 0.53586 0.29218 0.82162 0.0
C5254 C 0.51406 0.33559 0.82356 0.0
C5255 C 0.51123 0.27831 0.82046 0.0
C5256 C 0.47205 0.30659 0.83549 0.0
C5257 C 0.46418 0.30865 0.82199 0.0
C5258 C 0.48786 0.30645 0.83573 0.0
C5259 C 0.49595 0.30776 0.82204 0.0
C5260 C 0.48799 0.30964 0.80835 0.0
C5261 C 0.4722 0.31037 0.80853 0.0
C5262 C 0.49591 0.30499 0.85062 0.0
C5263 C 0.49614 0.31052 0.79346 0.0
H5264 H 0.54388 0.32957 0.82205 0.0
H5265 H 0.5415 0.28136 0.82127 0.0
H5266 H 0.50702 0.3377 0.81348 0.0
H5267 H 0.5065 0.33594 0.8335 0.0
H5268 H 0.52243 0.34482 0.82457 0.0
H5269 H 0.51864 0.26829 0.81949 0.0
H5270 H 0.50405 0.27697 0.83058 0.0
H5271 H 0.50364 0.27865 0.81055 0.0
H5272 H 0.46582 0.30534 0.84591 0.0
H5273 H 0.46608 0.3118 0.79807 0.0
H5274 H 0.50402 0.31437 0.85202 0.0
H5275 H 0.50244 0.29436 0.8509 0.0
H5276 H 0.488 0.30505 0.86031 0.0
H5277 H 0.50382 0.32035 0.79335 0.0
H5278 H 0.48827 0.31151 0.78379 0.0
H5279 H 0.50316 0.30031 0.79187 0.0
C5280 C 0.68336 0.46936 0.82522 0.0
C5281 C 0.6969 0.46134 0.82455 0.0
C5282 C 0.68332 0.48514 0.8261 0.0
C5283 C 0.69714 0.49307 0.82564 0.0
C5284 C 0.71086 0.48497 0.82488 0.0
C5285 C 0.71057 0.46916 0.82465 0.0
C5286 C 0.66848 0.49331 0.82743 0.0
C5287 C 0.72578 0.49301 0.8238 0.0
C5288 C 0.69466 0.53323 0.81119 0.0
C5289 C 0.69642 0.54157 0.82444 0.0
C5290 C 0.69533 0.51745 0.81138 0.0
C5291 C 0.69716 0.50984 0.82526 0.0
C5292 C 0.69875 0.51825 0.83873 0.0
C5293 C 0.69868 0.53407 0.8381 0.0
C5294 C 0.69415 0.50895 0.79671 0.0
C5295 C 0.70017 0.51055 0.8538 0.0
H5296 H 0.67279 0.46326 0.82527 0.0
H5297 H 0.72104 0.46291 0.82401 0.0
H5298 H 0.66879 0.50123 0.83709 0.0
H5299 H 0.66643 0.50008 0.81714 0.0
H5300 H 0.65888 0.48546 0.82898 0.0
H5301 H 0.73542 0.48506 0.82333 0.0
H5302 H 0.72598 0.50014 0.81356 0.0
H5303 H 0.72733 0.50057 0.8336 0.0
H5304 H 0.69309 0.53908 0.80059 0.0
H5305 H 0.69995 0.54057 0.84835 0.0
H5306 H 0.68383 0.50194 0.79667 0.0
H5307 H 0.70388 0.50123 0.79545 0.0
H5308 H 0.69379 0.51658 0.78681 0.0
H5309 H 0.69027 0.50319 0.85573 0.0
H5310 H 0.701 0.51871 0.86324 0.0
H5311 H 0.71028 0.50324 0.85396 0.0
C5312 C 0.46778 0.30461 0.19017 0.0
C5313 C 0.4593 0.30196 0.17715 0.0
C5314 C 0.48358 0.30464 0.1897 0.0
C5315 C 0.49105 0.3026 0.17576 0.0
C5316 C 0.48249 0.30019 0.16252 0.0
C5317 C 0.4667 0.29959 0.16344 0.0
C5318 C 0.49227 0.30671 0.20416 0.0
C5319 C 0.48998 0.29853 0.14736 0.0
C5320 C 0.53108 0.31769 0.17457 0.0
C5321 C 0.53956 0.30444 0.17561 0.0
C5322 C 0.51529 0.3172 0.17395 0.0
C5323 C 0.50781 0.30316 0.17507 0.0
C5324 C 0.51638 0.28974 0.17612 0.0
C5325 C 0.53218 0.29053 0.17608 0.0
C5326 C 0.50663 0.33171 0.17225 0.0
C5327 C 0.50887 0.2746 0.17789 0.0
H5328 H 0.46204 0.3063 0.2008 0.0
H5329 H 0.46011 0.29764 0.15335 0.0
H5330 H 0.50032 0.29728 0.20568 0.0
H5331 H 0.49894 0.31724 0.20365 0.0
H5332 H 0.48479 0.30723 0.21416 0.0
H5333 H 0.4817 0.29719 0.13809 0.0
H5334 H 0.49702 0.30857 0.14501 0.0
H5335 H 0.49756 0.28862 0.14738 0.0
H5336 H 0.53682 0.32845 0.17414 0.0
H5337 H 0.53877 0.2803 0.17707 0.0
H5338 H 0.50007 0.33397 0.18262 0.0
H5339 H 0.49848 0.33078 0.16282 0.0
H5340 H 0.51413 0.34148 0.17011 0.0
H5341 H 0.50198 0.27453 0.18831 0.0
H5342 H 0.51713 0.26524 0.1785 0.0
H5343 H 0.50113 0.27247 0.16833 0.0
C5344 C 0.69359 0.46901 0.19468 0.0
C5345 C 0.69454 0.46161 0.18079 0.0
C5346 C 0.69399 0.48482 0.19552 0.0
C5347 C 0.69474 0.49342 0.1821 0.0
C5348 C 0.69524 0.48594 0.16802 0.0
C5349 C 0.69546 0.47013 0.16756 0.0
C5350 C 0.69401 0.49231 0.21078 0.0
C5351 C 0.69551 0.49464 0.15342 0.0
C5352 C 0.68258 0.53453 0.18409 0.0
C5353 C 0.69644 0.54201 0.18341 0.0
C5354 C 0.68183 0.51873 0.18347 0.0
C5355 C 0.69531 0.51021 0.18276 0.0
C5356 C 0.70935 0.51776 0.18247 0.0
C5357 C 0.70973 0.53358 0.18248 0.0
C5358 C 0.66663 0.51116 0.18325 0.0
C5359 C 0.72399 0.50914 0.18227 0.0
H5360 H 0.69305 0.46241 0.20493 0.0
H5361 H 0.6961 0.46439 0.1568 0.0
H5362 H 0.70423 0.49937 0.212 0.0
H5363 H 0.68415 0.49987 0.21186 0.0
H5364 H 0.69373 0.48402 0.22013 0.0
H5365 H 0.69483 0.48715 0.14343 0.0
H5366 H 0.68595 0.50267 0.15306 0.0
H5367 H 0.70601 0.50133 0.15265 0.0
H5368 H 0.6723 0.54107 0.18471 0.0
H5369 H 0.72046 0.53938 0.18211 0.0
H5370 H 0.66546 0.5036 0.19311 0.0
H5371 H 0.66557 0.50408 0.17301 0.0
H5372 H 0.65723 0.5194 0.18342 0.0
H5373 H 0.72434 0.50111 0.19183 0.0
H5374 H 0.73394 0.51668 0.183 0.0
H5375 H 0.72485 0.50245 0.17177 0.0
C5376 C 0.53322 0.71035 0.17961 0.0
C5377 C 0.54093 0.69661 0.17984 0.0
C5378 C 0.5174 0.71079 0.17992 0.0
C5379 C 0.50913 0.69715 0.17982 0.0
C5380 C 0.51693 0.68324 0.17969 0.0
C5381 C 0.53275 0.68314 0.18002 0.0
C5382 C 0.50956 0.72585 0.18062 0.0
C5383 C 0.50858 0.66845 0.17903 0.0
C5384 C 0.46845 0.69634 0.19336 0.0
C5385 C 0.46054 0.69804 0.17983 0.0
C5386 C 0.48428 0.69634 0.19356 0.0
C5387 C 0.49234 0.69743 0.17984 0.0
C5388 C 0.48433 0.69878 0.16611 0.0
C5389 C 0.46853 0.69939 0.16631 0.0
C5390 C 0.49236 0.69543 0.20848 0.0
C5391 C 0.49244 0.69943 0.15119 0.0
H5392 H 0.53957 0.72077 0.17964 0.0
H5393 H 0.53873 0.67251 0.1801 0.0
H5394 H 0.5024 0.72741 0.17051 0.0
H5395 H 0.50204 0.72626 0.19058 0.0
H5396 H 0.51762 0.73538 0.1813 0.0
H5397 H 0.51632 0.65866 0.17825 0.0
H5398 H 0.50149 0.6671 0.1892 0.0
H5399 H 0.50095 0.66832 0.16914 0.0
H5400 H 0.46226 0.69545 0.20383 0.0
H5401 H 0.46238 0.70061 0.15584 0.0
H5402 H 0.50007 0.70517 0.20973 0.0
H5403 H 0.49935 0.6851 0.20893 0.0
H5404 H 0.48445 0.69531 0.21816 0.0
H5405 H 0.49969 0.70957 0.15071 0.0
H5406 H 0.48455 0.69972 0.1415 0.0
H5407 H 0.4999 0.68947 0.14998 0.0
C5408 C 0.30527 0.46931 0.16256 0.0
C5409 C 0.30786 0.46202 0.17629 0.0
C5410 C 0.30506 0.48512 0.16171 0.0
C5411 C 0.30684 0.49373 0.17502 0.0
C5412 C 0.30908 0.48633 0.18896 0.0
C5413 C 0.30988 0.47056 0.18937 0.0
C5414 C 0.30321 0.49259 0.14657 0.0
C5415 C 0.3105 0.49505 0.20349 0.0
C5416 C 0.31989 0.53445 0.1745 0.0
C5417 C 0.30623 0.54222 0.17551 0.0
C5418 C 0.3202 0.51867 0.17361 0.0
C5419 C 0.30655 0.51049 0.17443 0.0
C5420 C 0.2927 0.51834 0.17544 0.0
C5421 C 0.2927 0.53416 0.17566 0.0
C5422 C 0.33516 0.51076 0.17199 0.0
C5423 C 0.27795 0.51005 0.1769 0.0
H5424 H 0.30379 0.46266 0.15244 0.0
H5425 H 0.31171 0.46487 0.20001 0.0
H5426 H 0.29293 0.49967 0.1465 0.0
H5427 H 0.31291 0.50015 0.14437 0.0
H5428 H 0.3024 0.48429 0.13725 0.0
H5429 H 0.31127 0.48756 0.21347 0.0
H5430 H 0.32068 0.50226 0.20316 0.0
H5431 H 0.30065 0.50261 0.20491 0.0
H5432 H 0.33035 0.54073 0.17428 0.0
H5433 H 0.28215 0.54022 0.1766 0.0
H5434 H 0.33473 0.50266 0.16249 0.0
H5435 H 0.33764 0.50424 0.18234 0.0
H5436 H 0.34455 0.51878 0.17002 0.0
H5437 H 0.27638 0.50227 0.16726 0.0
H5438 H 0.26817 0.51782 0.1774 0.0
H5439 H 0.27806 0.5031 0.18728 0.0
C5440 C 0.83626 0.53685 0.6992 0.0
C5441 C 0.8227 0.54474 0.69767 0.0
C5442 C 0.83659 0.52104 0.69867 0.0
C5443 C 0.82294 0.51292 0.69721 0.0
C5444 C 0.80917 0.52088 0.69595 0.0
C5445 C 0.80925 0.53671 0.69589 0.0
C5446 C 0.85155 0.51303 0.69949 0.0
C5447 C 0.79433 0.51269 0.69491 0.0
C5448 C 0.82276 0.47246 0.68299 0.0
C5449 C 0.82263 0.46428 0.69647 0.0
C5450 C 0.8233 0.48827 0.68307 0.0
C5451 C 0.82306 0.4961 0.69697 0.0
C5452 C 0.82277 0.48785 0.71062 0.0
C5453 C 0.82286 0.47202 0.7102 0.0
C5454 C 0.82416 0.4966 0.66828 0.0
C5455 C 0.82198 0.49573 0.72565 0.0
H5456 H 0.84667 0.54308 0.70048 0.0
H5457 H 0.79874 0.54283 0.69486 0.0
H5458 H 0.85196 0.50576 0.70962 0.0
H5459 H 0.85294 0.5056 0.68954 0.0
H5460 H 0.86117 0.521 0.69991 0.0
H5461 H 0.78459 0.52052 0.69472 0.0
H5462 H 0.79402 0.50571 0.68457 0.0
H5463 H 0.79305 0.50495 0.70464 0.0
H5464 H 0.82266 0.46646 0.67236 0.0
H5465 H 0.82258 0.46569 0.72063 0.0
H5466 H 0.83394 0.50436 0.66832 0.0
H5467 H 0.81392 0.50355 0.66671 0.0
H5468 H 0.82523 0.48884 0.65853 0.0
H5469 H 0.83197 0.50304 0.7272 0.0
H5470 H 0.82142 0.48768 0.73521 0.0
H5471 H 0.81191 0.5031 0.72604 0.0
C5472 C 0.53854 0.83766 0.69975 0.0
C5473 C 0.54619 0.824 0.69796 0.0
C5474 C 0.52275 0.83825 0.69924 0.0
C5475 C 0.51444 0.82475 0.69751 0.0
C5476 C 0.52217 0.81087 0.69603 0.0
C5477 C 0.53797 0.81071 0.69596 0.0
C5478 C 0.51497 0.85332 0.70032 0.0
C5479 C 0.51375 0.79617 0.69468 0.0
C5480 C 0.47347 0.82451 0.71001 0.0
C5481 C 0.46594 0.82444 0.69617 0.0
C5482 C 0.48927 0.82455 0.71064 0.0
C5483 C 0.49768 0.82512 0.69709 0.0
C5484 C 0.49006 0.82562 0.6831 0.0
C5485 C 0.47427 0.82496 0.68281 0.0
C5486 C 0.49696 0.82348 0.72575 0.0
C5487 C 0.49856 0.82677 0.66844 0.0
H5488 H 0.54494 0.84795 0.70121 0.0
H5489 H 0.54392 0.80012 0.69474 0.0
H5490 H 0.50774 0.85507 0.69028 0.0
H5491 H 0.50753 0.8536 0.71033 0.0
H5492 H 0.52308 0.8628 0.70112 0.0
H5493 H 0.52142 0.7863 0.69446 0.0
H5494 H 0.50586 0.79489 0.70427 0.0
H5495 H 0.50692 0.79612 0.68423 0.0
H5496 H 0.467 0.82394 0.72034 0.0
H5497 H 0.46842 0.82498 0.6721 0.0
H5498 H 0.5045 0.83328 0.72745 0.0
H5499 H 0.50408 0.81323 0.72613 0.0
H5500 H 0.4888 0.82304 0.73521 0.0
H5501 H 0.5065 0.8364 0.66883 0.0
H5502 H 0.49094 0.82825 0.65864 0.0
H5503 H 0.50534 0.81644 0.66664 0.0
C5504 C 0.19578 0.52969 0.69326 0.0
C5505 C 0.18241 0.53794 0.69451 0.0
C5506 C 0.19573 0.51391 0.69431 0.0
C5507 C 0.18189 0.50617 0.69598 0.0
C5508 C 0.16831 0.51449 0.69695 0.0
C5509 C 0.16878 0.53031 0.69654 0.0
C5510 C 0.21051 0.50553 0.69382 0.0
C5511 C 0.15327 0.50669 0.69819 0.0
C5512 C 0.18157 0.465 0.68399 0.0
C5513 C 0.18135 0.45759 0.6979 0.0
C5514 C 0.18136 0.4808 0.6832 0.0
C5515 C 0.18162 0.48938 0.69665 0.0
C5516 C 0.18172 0.48189 0.71074 0.0
C5517 C 0.18125 0.46607 0.71118 0.0
C5518 C 0.1807 0.48832 0.66797 0.0
C5519 C 0.18258 0.49056 0.72532 0.0
H5520 H 0.20635 0.53563 0.69185 0.0
H5521 H 0.15843 0.53672 0.69741 0.0
H5522 H 0.21163 0.49829 0.70393 0.0
H5523 H 0.21084 0.49804 0.68385 0.0
H5524 H 0.22032 0.51326 0.69331 0.0
H5525 H 0.14373 0.51477 0.69817 0.0
H5526 H 0.15182 0.49875 0.68865 0.0
H5527 H 0.15278 0.49998 0.70869 0.0
H5528 H 0.18153 0.45841 0.67372 0.0
H5529 H 0.18123 0.46031 0.72194 0.0
H5530 H 0.19096 0.49517 0.66614 0.0
H5531 H 0.17092 0.49608 0.66749 0.0
H5532 H 0.17972 0.48005 0.65864 0.0
H5533 H 0.19263 0.49797 0.72526 0.0
H5534 H 0.18322 0.48303 0.73529 0.0
H5535 H 0.17257 0.49791 0.72653 0.0
C5536 C 0.46361 0.19092 0.69641 0.0
C5537 C 0.45533 0.17768 0.69848 0.0
C5538 C 0.47942 0.19067 0.69634 0.0
C5539 C 0.48709 0.17674 0.69774 0.0
C5540 C 0.47871 0.16329 0.69951 0.0
C5541 C 0.46292 0.16397 0.70018 0.0
C5542 C 0.48792 0.20532 0.69496 0.0
C5543 C 0.48641 0.14818 0.70049 0.0
C5544 C 0.52727 0.17627 0.68296 0.0
C5545 C 0.53563 0.17664 0.69632 0.0
C5546 C 0.51147 0.17577 0.68327 0.0
C5547 C 0.50386 0.17629 0.69728 0.0
C5548 C 0.5123 0.17674 0.71081 0.0
C5549 C 0.5281 0.17661 0.71017 0.0
C5550 C 0.50294 0.17473 0.66862 0.0
C5551 C 0.50464 0.17784 0.72594 0.0
H5552 H 0.45772 0.20155 0.69526 0.0
H5553 H 0.45648 0.15372 0.70168 0.0
H5554 H 0.49584 0.20656 0.70454 0.0
H5555 H 0.49471 0.20534 0.6845 0.0
H5556 H 0.48029 0.21523 0.69477 0.0
H5557 H 0.47825 0.13873 0.70125 0.0
H5558 H 0.49362 0.14643 0.69044 0.0
H5559 H 0.49385 0.1478 0.7105 0.0
H5560 H 0.53312 0.17622 0.67225 0.0
H5561 H 0.53458 0.17707 0.7205 0.0
H5562 H 0.49621 0.1851 0.66688 0.0
H5563 H 0.49495 0.16513 0.66898 0.0
H5564 H 0.51054 0.17325 0.6588 0.0
H5565 H 0.49753 0.1881 0.72633 0.0
H5566 H 0.51282 0.17828 0.73538 0.0
H5567 H 0.49709 0.16805 0.72766 0.0
C5568 C 0.81313 0.46534 0.30603 0.0
C5569 C 0.82598 0.45661 0.30337 0.0
C5570 C 0.81387 0.48113 0.30594 0.0
C5571 C 0.82792 0.48834 0.30373 0.0
C5572 C 0.84098 0.47953 0.30127 0.0
C5573 C 0.83979 0.46375 0.30081 0.0
C5574 C 0.79958 0.49008 0.30808 0.0
C5575 C 0.85624 0.48675 0.29943 0.0
C5576 C 0.82786 0.52945 0.2916 0.0
C5577 C 0.82848 0.53684 0.30551 0.0
C5578 C 0.82776 0.51364 0.29082 0.0
C5579 C 0.82888 0.50509 0.30424 0.0
C5580 C 0.8302 0.51258 0.31826 0.0
C5581 C 0.82965 0.52837 0.31874 0.0
C5582 C 0.82579 0.50611 0.27572 0.0
C5583 C 0.83197 0.50392 0.33277 0.0
H5584 H 0.80241 0.45981 0.30785 0.0
H5585 H 0.84974 0.45697 0.29885 0.0
H5586 H 0.80028 0.49677 0.3186 0.0
H5587 H 0.79813 0.49814 0.29865 0.0
H5588 H 0.78946 0.48278 0.3087 0.0
H5589 H 0.86534 0.47831 0.29796 0.0
H5590 H 0.85622 0.49436 0.28953 0.0
H5591 H 0.85885 0.49374 0.30945 0.0
H5592 H 0.82678 0.53603 0.28138 0.0
H5593 H 0.83021 0.53412 0.32949 0.0
H5594 H 0.81522 0.49945 0.2757 0.0
H5595 H 0.83516 0.49817 0.27358 0.0
H5596 H 0.82532 0.51436 0.26633 0.0
H5597 H 0.82153 0.49753 0.33519 0.0
H5598 H 0.83436 0.51141 0.34249 0.0
H5599 H 0.84125 0.49562 0.33173 0.0
C5600 C 0.53081 0.81181 0.30645 0.0
C5601 C 0.53961 0.82473 0.3045 0.0
C5602 C 0.51504 0.81261 0.30607 0.0
C5603 C 0.50791 0.82678 0.30437 0.0
C5604 C 0.5168 0.83992 0.30271 0.0
C5605 C 0.53257 0.83869 0.30246 0.0
C5606 C 0.50601 0.79826 0.30729 0.0
C5607 C 0.50966 0.85529 0.30145 0.0
C5608 C 0.46739 0.82806 0.29063 0.0
C5609 C 0.45941 0.82825 0.30422 0.0
C5610 C 0.48318 0.8275 0.2905 0.0
C5611 C 0.49117 0.82778 0.3043 0.0
C5612 C 0.48312 0.82853 0.31805 0.0
C5613 C 0.46731 0.82841 0.31785 0.0
C5614 C 0.49129 0.82611 0.27563 0.0
C5615 C 0.4912 0.82941 0.33297 0.0
H5616 H 0.5363 0.80101 0.30789 0.0
H5617 H 0.53943 0.84869 0.30107 0.0
H5618 H 0.49894 0.79852 0.31757 0.0
H5619 H 0.4983 0.79724 0.29751 0.0
H5620 H 0.51328 0.7881 0.30773 0.0
H5621 H 0.51816 0.86443 0.30089 0.0
H5622 H 0.50253 0.85586 0.29123 0.0
H5623 H 0.50223 0.85732 0.31128 0.0
H5624 H 0.46123 0.82777 0.28009 0.0
H5625 H 0.4611 0.82864 0.32835 0.0
H5626 H 0.49812 0.81565 0.27551 0.0
H5627 H 0.49915 0.83568 0.2741 0.0
H5628 H 0.48341 0.82584 0.26593 0.0
H5629 H 0.49753 0.81884 0.335 0.0
H5630 H 0.48333 0.83121 0.34252 0.0
H5631 H 0.4995 0.83874 0.3328 0.0
C5632 C 0.19535 0.4724 0.30528 0.0
C5633 C 0.18197 0.46419 0.30393 0.0
C5634 C 0.19523 0.48823 0.30512 0.0
C5635 C 0.18133 0.496 0.30426 0.0
C5636 C 0.16775 0.48769 0.30322 0.0
C5637 C 0.16827 0.47187 0.30273 0.0
C5638 C 0.21 0.49662 0.30562 0.0
C5639 C 0.15266 0.49549 0.30284 0.0
C5640 C 0.18115 0.53673 0.31785 0.0
C5641 C 0.18045 0.54464 0.30424 0.0
C5642 C 0.1811 0.52089 0.31805 0.0
C5643 C 0.18101 0.51282 0.30428 0.0
C5644 C 0.18067 0.52083 0.2905 0.0
C5645 C 0.18007 0.53664 0.29066 0.0
C5646 C 0.18092 0.5128 0.33299 0.0
C5647 C 0.18115 0.51272 0.27557 0.0
H5648 H 0.20596 0.46643 0.30608 0.0
H5649 H 0.15792 0.46548 0.30181 0.0
H5650 H 0.21086 0.50427 0.29579 0.0
H5651 H 0.21055 0.50369 0.31588 0.0
H5652 H 0.21984 0.4889 0.30556 0.0
H5653 H 0.14314 0.48739 0.30286 0.0
H5654 H 0.15153 0.50304 0.31273 0.0
H5655 H 0.15179 0.50261 0.29263 0.0
H5656 H 0.18134 0.54294 0.32836 0.0
H5657 H 0.17969 0.54278 0.28012 0.0
H5658 H 0.19122 0.50586 0.33422 0.0
H5659 H 0.17115 0.50504 0.33349 0.0
H5660 H 0.18027 0.52071 0.34265 0.0
H5661 H 0.19118 0.5053 0.27508 0.0
H5662 H 0.18155 0.52063 0.26589 0.0
H5663 H 0.1711 0.50544 0.27432 0.0
C5664 C 0.53481 0.1957 0.30872 0.0
C5665 C 0.54282 0.18222 0.30712 0.0
C5666 C 0.51899 0.19576 0.30874 0.0
C5667 C 0.51106 0.18196 0.30777 0.0
C5668 C 0.51917 0.16829 0.30648 0.0
C5669 C 0.53496 0.16862 0.30585 0.0
C5670 C 0.51077 0.21062 0.30956 0.0
C5671 C 0.51119 0.1533 0.30596 0.0
C5672 C 0.47073 0.18183 0.32221 0.0
C5673 C 0.46251 0.18144 0.30877 0.0
C5674 C 0.48654 0.18168 0.32205 0.0
C5675 C 0.49428 0.1818 0.30811 0.0
C5676 C 0.48597 0.1817 0.29449 0.0
C5677 C 0.47017 0.18121 0.295 0.0
C5678 C 0.49496 0.18122 0.33681 0.0
C5679 C 0.49375 0.18238 0.2794 0.0
H5680 H 0.54092 0.20623 0.30954 0.0
H5681 H 0.5412 0.15819 0.30471 0.0
H5682 H 0.503 0.21171 0.29984 0.0
H5683 H 0.50384 0.2111 0.31992 0.0
H5684 H 0.51859 0.22037 0.30955 0.0
H5685 H 0.51916 0.14367 0.30569 0.0
H5686 H 0.50379 0.15207 0.31596 0.0
H5687 H 0.50389 0.15269 0.29586 0.0
H5688 H 0.46478 0.18192 0.33286 0.0
H5689 H 0.46377 0.18107 0.2846 0.0
H5690 H 0.50198 0.19146 0.33805 0.0
H5691 H 0.50267 0.17139 0.33699 0.0
H5692 H 0.48727 0.18046 0.34664 0.0
H5693 H 0.50119 0.19239 0.27891 0.0
H5694 H 0.48564 0.18294 0.2699 0.0
H5695 H 0.50097 0.17232 0.27787 0.0
C5696 C 0.68356 0.82451 0.46676 0.0
C5697 C 0.69706 0.82475 0.45864 0.0
C5698 C 0.68359 0.82486 0.48258 0.0
C5699 C 0.69747 0.82479 0.49044 0.0
C5700 C 0.71114 0.82484 0.48224 0.0
C5701 C 0.71076 0.82513 0.46643 0.0
C5702 C 0.66877 0.82536 0.49087 0.0
C5703 C 0.72617 0.82417 0.49014 0.0
C5704 C 0.69942 0.83712 0.53148 0.0
C5705 C 0.69798 0.82335 0.53901 0.0
C5706 C 0.69896 0.83781 0.51567 0.0
C5707 C 0.69769 0.82432 0.50723 0.0
C5708 C 0.69664 0.81035 0.51484 0.0
C5709 C 0.69647 0.81007 0.53065 0.0
C5710 C 0.69956 0.85296 0.50802 0.0
C5711 C 0.69586 0.79567 0.5063 0.0
H5712 H 0.67296 0.82431 0.46071 0.0
H5713 H 0.72121 0.82515 0.46013 0.0
H5714 H 0.66732 0.81496 0.49761 0.0
H5715 H 0.66865 0.83499 0.49883 0.0
H5716 H 0.65904 0.82645 0.48311 0.0
H5717 H 0.73575 0.82392 0.48211 0.0
H5718 H 0.72752 0.83406 0.49764 0.0
H5719 H 0.72672 0.81397 0.49733 0.0
H5720 H 0.70046 0.84739 0.53798 0.0
H5721 H 0.69549 0.79941 0.53651 0.0
H5722 H 0.68954 0.85441 0.5007 0.0
H5723 H 0.70962 0.85366 0.50069 0.0
H5724 H 0.69993 0.8624 0.51621 0.0
H5725 H 0.68547 0.79529 0.49941 0.0
H5726 H 0.69595 0.78575 0.51391 0.0
H5727 H 0.70554 0.79479 0.49846 0.0
C5728 C 0.70795 0.17965 0.47395 0.0
C5729 C 0.69422 0.17996 0.46623 0.0
C5730 C 0.70836 0.17994 0.48975 0.0
C5731 C 0.6947 0.17992 0.49798 0.0
C5732 C 0.6808 0.17977 0.49017 0.0
C5733 C 0.68073 0.18012 0.47437 0.0
C5734 C 0.7234 0.18062 0.49763 0.0
C5735 C 0.666 0.17918 0.49851 0.0
C5736 C 0.697 0.16689 0.53866 0.0
C5737 C 0.69573 0.18052 0.54647 0.0
C5738 C 0.69631 0.16649 0.52288 0.0
C5739 C 0.69495 0.18013 0.51474 0.0
C5740 C 0.69392 0.19396 0.52262 0.0
C5741 C 0.694 0.19396 0.53844 0.0
C5742 C 0.69688 0.15147 0.51494 0.0
C5743 C 0.69301 0.20878 0.51435 0.0
H5744 H 0.71837 0.17972 0.46761 0.0
H5745 H 0.67012 0.1803 0.46836 0.0
H5746 H 0.72388 0.19072 0.50497 0.0
H5747 H 0.72486 0.17064 0.50497 0.0
H5748 H 0.73295 0.18107 0.48958 0.0
H5749 H 0.65624 0.17822 0.49076 0.0
H5750 H 0.6659 0.16943 0.50631 0.0
H5751 H 0.66459 0.18948 0.50542 0.0
H5752 H 0.69824 0.15649 0.54493 0.0
H5753 H 0.69317 0.2045 0.54452 0.0
H5754 H 0.70702 0.15085 0.5077 0.0
H5755 H 0.68693 0.15022 0.50749 0.0
H5756 H 0.69713 0.14188 0.52295 0.0
H5757 H 0.70276 0.20994 0.50664 0.0
H5758 H 0.69288 0.21856 0.52214 0.0
H5759 H 0.68269 0.20915 0.50735 0.0
C5760 C 0.80896 0.69261 0.52742 0.0
C5761 C 0.82218 0.69434 0.53581 0.0
C5762 C 0.80915 0.6935 0.51164 0.0
C5763 C 0.82302 0.69554 0.50405 0.0
C5764 C 0.83647 0.69699 0.5125 0.0
C5765 C 0.83584 0.6967 0.52832 0.0
C5766 C 0.79449 0.69249 0.50312 0.0
C5767 C 0.85154 0.69861 0.50484 0.0
C5768 C 0.82344 0.68326 0.46299 0.0
C5769 C 0.82299 0.6971 0.45548 0.0
C5770 C 0.82398 0.6826 0.47879 0.0
C5771 C 0.82339 0.69611 0.48726 0.0
C5772 C 0.82275 0.71013 0.47967 0.0
C5773 C 0.82287 0.71046 0.46385 0.0
C5774 C 0.82522 0.66746 0.48641 0.0
C5775 C 0.82153 0.72475 0.48825 0.0
H5776 H 0.79836 0.69095 0.53325 0.0
H5777 H 0.84608 0.69796 0.53484 0.0
H5778 H 0.79311 0.70251 0.4958 0.0
H5779 H 0.79455 0.68246 0.49569 0.0
H5780 H 0.78461 0.69172 0.51075 0.0
H5781 H 0.861 0.69895 0.51301 0.0
H5782 H 0.85336 0.68905 0.497 0.0
H5783 H 0.85178 0.70907 0.49804 0.0
H5784 H 0.82366 0.67293 0.45649 0.0
H5785 H 0.8224 0.72116 0.45802 0.0
H5786 H 0.81496 0.66524 0.49315 0.0
H5787 H 0.83491 0.66742 0.49428 0.0
H5788 H 0.82667 0.65814 0.47821 0.0
H5789 H 0.81138 0.72454 0.49553 0.0
H5790 H 0.8208 0.73466 0.48066 0.0
H5791 H 0.8314 0.72618 0.49574 0.0
C5792 C 0.32147 0.82529 0.47076 0.0
C5793 C 0.30789 0.82454 0.46282 0.0
C5794 C 0.3216 0.82609 0.48655 0.0
C5795 C 0.30783 0.82547 0.49455 0.0
C5796 C 0.29407 0.82461 0.48653 0.0
C5797 C 0.29426 0.82446 0.47072 0.0
C5798 C 0.33646 0.82755 0.49465 0.0
C5799 C 0.27919 0.82339 0.49464 0.0
C5800 C 0.30995 0.81151 0.53493 0.0
C5801 C 0.3078 0.82484 0.54305 0.0
C5802 C 0.30969 0.81151 0.51913 0.0
C5803 C 0.30785 0.82529 0.51131 0.0
C5804 C 0.30603 0.83885 0.51951 0.0
C5805 C 0.30571 0.83841 0.53531 0.0
C5806 C 0.31113 0.79675 0.51083 0.0
C5807 C 0.30459 0.85382 0.5116 0.0
H5808 H 0.332 0.82545 0.46461 0.0
H5809 H 0.28377 0.82372 0.46454 0.0
H5810 H 0.33614 0.8373 0.50245 0.0
H5811 H 0.33857 0.81736 0.50153 0.0
H5812 H 0.34603 0.82905 0.48674 0.0
H5813 H 0.26953 0.82261 0.48674 0.0
H5814 H 0.2792 0.81326 0.50195 0.0
H5815 H 0.27749 0.83329 0.50204 0.0
H5816 H 0.3114 0.801 0.54096 0.0
H5817 H 0.30414 0.84873 0.54163 0.0
H5818 H 0.32137 0.79685 0.5037 0.0
H5819 H 0.30134 0.79517 0.50324 0.0
H5820 H 0.31179 0.78698 0.5186 0.0
H5821 H 0.31437 0.85558 0.50404 0.0
H5822 H 0.30394 0.86338 0.51962 0.0
H5823 H 0.29435 0.85392 0.50447 0.0
C5824 C 0.17761 0.2932 0.46417 0.0
C5825 C 0.17924 0.30637 0.45566 0.0
C5826 C 0.17778 0.29366 0.47997 0.0
C5827 C 0.17899 0.30771 0.48743 0.0
C5828 C 0.18026 0.32109 0.47884 0.0
C5829 C 0.18068 0.32023 0.46304 0.0
C5830 C 0.17697 0.27909 0.48868 0.0
C5831 C 0.18107 0.33633 0.48632 0.0
C5832 C 0.16609 0.30896 0.52831 0.0
C5833 C 0.17984 0.3095 0.53595 0.0
C5834 C 0.16561 0.30875 0.51249 0.0
C5835 C 0.17925 0.30837 0.5042 0.0
C5836 C 0.19317 0.30855 0.51197 0.0
C5837 C 0.19329 0.30946 0.52775 0.0
C5838 C 0.15056 0.30916 0.50464 0.0
C5839 C 0.20794 0.30754 0.50363 0.0
H5840 H 0.17662 0.28247 0.45844 0.0
H5841 H 0.18181 0.33043 0.45645 0.0
H5842 H 0.18694 0.27806 0.49614 0.0
H5843 H 0.16686 0.27902 0.49599 0.0
H5844 H 0.17654 0.26909 0.48119 0.0
H5845 H 0.18107 0.34569 0.47803 0.0
H5846 H 0.17135 0.33781 0.49403 0.0
H5847 H 0.19142 0.33714 0.49323 0.0
H5848 H 0.1557 0.30909 0.53472 0.0
H5849 H 0.20393 0.30973 0.53372 0.0
H5850 H 0.14895 0.29876 0.49792 0.0
H5851 H 0.15016 0.3188 0.4967 0.0
H5852 H 0.14105 0.3102 0.51269 0.0
H5853 H 0.20806 0.29735 0.4964 0.0
H5854 H 0.21774 0.30705 0.51139 0.0
H5855 H 0.20931 0.31742 0.49614 0.0
C5856 C 0.31593 0.17785 0.53409 0.0
C5857 C 0.30221 0.17854 0.54182 0.0
C5858 C 0.31633 0.17707 0.5183 0.0
C5859 C 0.3027 0.17765 0.51004 0.0
C5860 C 0.28881 0.17855 0.51785 0.0
C5861 C 0.28873 0.17866 0.53367 0.0
C5862 C 0.33132 0.17556 0.51046 0.0
C5863 C 0.27407 0.17976 0.50948 0.0
C5864 C 0.30565 0.19097 0.46944 0.0
C5865 C 0.30366 0.17752 0.46147 0.0
C5866 C 0.30503 0.19123 0.48524 0.0
C5867 C 0.303 0.17759 0.49326 0.0
C5868 C 0.30132 0.16391 0.48522 0.0
C5869 C 0.30135 0.1641 0.4694 0.0
C5870 C 0.30632 0.20611 0.49333 0.0
C5871 C 0.29969 0.14907 0.49333 0.0
H5872 H 0.32635 0.17766 0.54042 0.0
H5873 H 0.27813 0.17935 0.53968 0.0
H5874 H 0.33118 0.16568 0.50282 0.0
H5875 H 0.33349 0.18564 0.50344 0.0
H5876 H 0.34078 0.17425 0.51854 0.0
H5877 H 0.2643 0.18078 0.51721 0.0
H5878 H 0.27428 0.18973 0.50197 0.0
H5879 H 0.2724 0.16972 0.50226 0.0
H5880 H 0.30727 0.20138 0.46328 0.0
H5881 H 0.29989 0.15368 0.46321 0.0
H5882 H 0.31644 0.20614 0.50064 0.0
H5883 H 0.29641 0.20781 0.50074 0.0
H5884 H 0.30711 0.21577 0.48542 0.0
H5885 H 0.30933 0.14739 0.50109 0.0
H5886 H 0.29917 0.13938 0.48543 0.0
H5887 H 0.28932 0.1491 0.50026 0.0
C5888 C 0.80982 0.30654 0.47224 0.0
C5889 C 0.82304 0.30541 0.46373 0.0
C5890 C 0.81025 0.30617 0.48805 0.0
C5891 C 0.82432 0.30532 0.49553 0.0
C5892 C 0.83773 0.30448 0.48693 0.0
C5893 C 0.8369 0.30419 0.47112 0.0
C5894 C 0.79565 0.30647 0.49673 0.0
C5895 C 0.85297 0.30414 0.49443 0.0
C5896 C 0.82459 0.31877 0.53627 0.0
C5897 C 0.82525 0.30515 0.54417 0.0
C5898 C 0.82477 0.31902 0.52044 0.0
C5899 C 0.82495 0.30527 0.51234 0.0
C5900 C 0.82542 0.29147 0.52032 0.0
C5901 C 0.82588 0.29159 0.53614 0.0
C5902 C 0.82481 0.33398 0.5124 0.0
C5903 C 0.82504 0.27656 0.51217 0.0
H5904 H 0.79908 0.30733 0.46649 0.0
H5905 H 0.84713 0.30343 0.46451 0.0
H5906 H 0.79506 0.29663 0.5044 0.0
H5907 H 0.79511 0.31673 0.50381 0.0
H5908 H 0.78566 0.3063 0.48921 0.0
H5909 H 0.86233 0.30419 0.48615 0.0
H5910 H 0.85422 0.31404 0.50195 0.0
H5911 H 0.85402 0.29394 0.50154 0.0
H5912 H 0.82419 0.32927 0.54249 0.0
H5913 H 0.82623 0.28104 0.54226 0.0
H5914 H 0.81432 0.33529 0.50578 0.0
H5915 H 0.83435 0.33447 0.50434 0.0
H5916 H 0.82575 0.34361 0.52031 0.0
H5917 H 0.8148 0.27589 0.50505 0.0
H5918 H 0.82508 0.26684 0.52004 0.0
H5919 H 0.83489 0.27556 0.50458 0.0
C5920 C 0.1943 0.69669 0.53541 0.0
C5921 C 0.18075 0.69872 0.54319 0.0
C5922 C 0.19469 0.69667 0.51958 0.0
C5923 C 0.1811 0.69812 0.51135 0.0
C5924 C 0.16733 0.69989 0.51922 0.0
C5925 C 0.16737 0.70048 0.53504 0.0
C5926 C 0.20966 0.69532 0.51167 0.0
C5927 C 0.15254 0.70094 0.51093 0.0
C5928 C 0.18193 0.71083 0.47037 0.0
C5929 C 0.18194 0.69705 0.46271 0.0
C5930 C 0.18192 0.71135 0.4862 0.0
C5931 C 0.18128 0.69776 0.49454 0.0
C5932 C 0.18091 0.68382 0.48679 0.0
C5933 C 0.18157 0.68363 0.47097 0.0
C5934 C 0.1829 0.72642 0.49399 0.0
C5935 C 0.17968 0.6691 0.49519 0.0
H5936 H 0.20468 0.69547 0.54171 0.0
H5937 H 0.15686 0.70195 0.54106 0.0
H5938 H 0.20993 0.68491 0.50479 0.0
H5939 H 0.21124 0.70495 0.50388 0.0
H5940 H 0.21925 0.69504 0.51969 0.0
H5941 H 0.14278 0.70163 0.51871 0.0
H5942 H 0.15246 0.71101 0.50357 0.0
H5943 H 0.15109 0.69096 0.50356 0.0
H5944 H 0.18237 0.72122 0.46398 0.0
H5945 H 0.18148 0.67297 0.46503 0.0
H5946 H 0.19278 0.72662 0.50162 0.0
H5947 H 0.17276 0.72827 0.50102 0.0
H5948 H 0.1839 0.73589 0.48589 0.0
H5949 H 0.18972 0.66746 0.50241 0.0
H5950 H 0.17868 0.65931 0.48748 0.0
H5951 H 0.16971 0.66932 0.50271 0.0
C5952 C 0.14836 0.10131 0.33399 0.0
C5953 C 0.16191 0.10538 0.32704 0.0
C5954 C 0.13628 0.11157 0.33484 0.0
C5955 C 0.13805 0.12635 0.32908 0.0
C5956 C 0.15206 0.1307 0.32285 0.0
C5957 C 0.16367 0.12008 0.32163 0.0
C5958 C 0.12142 0.10635 0.34117 0.0
C5959 C 0.15465 0.14646 0.31702 0.0
C5960 C 0.10601 0.14964 0.31317 0.0
C5961 C 0.10314 0.15976 0.32489 0.0
C5962 C 0.11662 0.13807 0.31482 0.0
C5963 C 0.12505 0.13697 0.32831 0.0
C5964 C 0.12195 0.14701 0.34034 0.0
C5965 C 0.11081 0.15816 0.33857 0.0
C5966 C 0.11922 0.12736 0.30187 0.0
C5967 C 0.131 0.14658 0.3547 0.0
H5968 H 0.14695 0.08991 0.3381 0.0
H5969 H 0.17417 0.12333 0.31637 0.0
H5970 H 0.11731 0.11434 0.34983 0.0
H5971 H 0.1129 0.10609 0.33204 0.0
H5972 H 0.12219 0.09495 0.34624 0.0
H5973 H 0.16666 0.14853 0.31421 0.0
H5974 H 0.14783 0.14831 0.30673 0.0
H5975 H 0.15102 0.15488 0.3255 0.0
H5976 H 0.10001 0.15088 0.30261 0.0
H5977 H 0.1087 0.16613 0.34756 0.0
H5978 H 0.11931 0.11555 0.30594 0.0
H5979 H 0.13035 0.12964 0.29671 0.0
H5980 H 0.11047 0.12848 0.29301 0.0
H5981 H 0.1315 0.13497 0.35924 0.0
H5982 H 0.12629 0.15414 0.36347 0.0
H5983 H 0.14273 0.15013 0.35229 0.0
C5984 C 0.89159 0.154 0.31831 0.0
C5985 C 0.89348 0.1652 0.32922 0.0
C5986 C 0.88077 0.14266 0.32008 0.0
C5987 C 0.87119 0.14287 0.33282 0.0
C5988 C 0.8734 0.15391 0.34415 0.0
C5989 C 0.88472 0.16487 0.3423 0.0
C5990 C 0.87911 0.1309 0.30792 0.0
C5991 C 0.8632 0.15479 0.35769 0.0
C5992 C 0.83299 0.1263 0.32368 0.0
C5993 C 0.83392 0.11194 0.33013 0.0
C5994 C 0.84466 0.13678 0.32536 0.0
C5995 C 0.85789 0.13264 0.33322 0.0
C5996 C 0.85877 0.11825 0.34007 0.0
C5997 C 0.84665 0.10814 0.33863 0.0
C5998 C 0.84302 0.15213 0.31822 0.0
C5999 C 0.87281 0.11326 0.34821 0.0
H6000 H 0.89843 0.15428 0.30821 0.0
H6001 H 0.88611 0.17367 0.35064 0.0
H6002 H 0.87836 0.1195 0.31296 0.0
H6003 H 0.86855 0.1329 0.30157 0.0
H6004 H 0.88865 0.1311 0.29985 0.0
H6005 H 0.86748 0.16278 0.3663 0.0
H6006 H 0.85186 0.15858 0.35406 0.0
H6007 H 0.86185 0.14354 0.36293 0.0
H6008 H 0.82313 0.12937 0.31723 0.0
H6009 H 0.84741 0.09701 0.34358 0.0
H6010 H 0.85084 0.15311 0.30854 0.0
H6011 H 0.84604 0.16107 0.3264 0.0
H6012 H 0.8314 0.15422 0.31412 0.0
H6013 H 0.88212 0.11195 0.33999 0.0
H6014 H 0.87119 0.10238 0.35415 0.0
H6015 H 0.87637 0.12189 0.3565 0.0
C6016 C 0.89628 0.85505 0.31955 0.0
C6017 C 0.89741 0.84365 0.33036 0.0
C6018 C 0.88543 0.86644 0.32083 0.0
C6019 C 0.87503 0.86609 0.33291 0.0
C6020 C 0.87642 0.85481 0.34413 0.0
C6021 C 0.88779 0.84382 0.34284 0.0
C6022 C 0.88466 0.87845 0.30883 0.0
C6023 C 0.86532 0.85374 0.35693 0.0
C6024 C 0.85029 0.90085 0.33817 0.0
C6025 C 0.83807 0.89734 0.32883 0.0
C6026 C 0.86231 0.89065 0.33998 0.0
C6027 C 0.8618 0.87646 0.33268 0.0
C6028 C 0.84906 0.87262 0.32392 0.0
C6029 C 0.83752 0.88319 0.32189 0.0
C6030 C 0.87586 0.89534 0.34908 0.0
C6031 C 0.84779 0.85748 0.31628 0.0
H6032 H 0.90378 0.85491 0.30992 0.0
H6033 H 0.88857 0.83487 0.35109 0.0
H6034 H 0.87453 0.87667 0.30175 0.0
H6035 H 0.88366 0.88976 0.31404 0.0
H6036 H 0.89471 0.87833 0.3014 0.0
H6037 H 0.86891 0.84547 0.36559 0.0
H6038 H 0.86379 0.86487 0.36238 0.0
H6039 H 0.8542 0.85023 0.35246 0.0
H6040 H 0.85077 0.91181 0.3435 0.0
H6041 H 0.82806 0.88034 0.31477 0.0
H6042 H 0.88569 0.89664 0.34148 0.0
H6043 H 0.87878 0.88655 0.35743 0.0
H6044 H 0.874 0.90615 0.35508 0.0
H6045 H 0.8562 0.85669 0.30709 0.0
H6046 H 0.83644 0.85559 0.31139 0.0
H6047 H 0.85023 0.8483 0.32439 0.0
C6048 C 0.10973 0.84735 0.31954 0.0
C6049 C 0.10744 0.8369 0.33109 0.0
C6050 C 0.12046 0.85883 0.32097 0.0
C6051 C 0.12957 0.85949 0.33404 0.0
C6052 C 0.12703 0.84915 0.34593 0.0
C6053 C 0.11578 0.83809 0.34441 0.0
C6054 C 0.12246 0.86987 0.3082 0.0
C6055 C 0.1368 0.84915 0.35982 0.0
C6056 C 0.16783 0.87593 0.32518 0.0
C6057 C 0.16658 0.8906 0.33082 0.0
C6058 C 0.15625 0.86542 0.32712 0.0
C6059 C 0.14275 0.86986 0.33432 0.0
C6060 C 0.14154 0.88458 0.34038 0.0
C6061 C 0.15362 0.89472 0.33878 0.0
C6062 C 0.15826 0.84972 0.32091 0.0
C6063 C 0.12719 0.88989 0.34774 0.0
H6064 H 0.10318 0.84646 0.30928 0.0
H6065 H 0.11407 0.82988 0.35327 0.0
H6066 H 0.12294 0.88155 0.31258 0.0
H6067 H 0.13325 0.8676 0.30235 0.0
H6068 H 0.11321 0.8691 0.29982 0.0
H6069 H 0.13237 0.84152 0.36869 0.0
H6070 H 0.14831 0.8454 0.35676 0.0
H6071 H 0.13776 0.86066 0.36453 0.0
H6072 H 0.17785 0.87266 0.31909 0.0
H6073 H 0.15261 0.90611 0.34305 0.0
H6074 H 0.15089 0.84816 0.31095 0.0
H6075 H 0.15493 0.8412 0.32941 0.0
H6076 H 0.17007 0.84749 0.31744 0.0
H6077 H 0.1182 0.89075 0.33911 0.0
H6078 H 0.12854 0.90105 0.3532 0.0
H6079 H 0.12334 0.88166 0.3563 0.0
C6080 C 0.16189 0.8791 0.67718 0.0
C6081 C 0.16083 0.89393 0.67191 0.0
C6082 C 0.15011 0.86882 0.67515 0.0
C6083 C 0.13662 0.87359 0.66815 0.0
C6084 C 0.13562 0.88844 0.66237 0.0
C6085 C 0.14786 0.89839 0.66412 0.0
C6086 C 0.15189 0.85299 0.68112 0.0
C6087 C 0.12133 0.89408 0.65514 0.0
C6088 C 0.10912 0.84212 0.65827 0.0
C6089 C 0.10095 0.84097 0.6717 0.0
C6090 C 0.12041 0.85313 0.65659 0.0
C6091 C 0.12322 0.86344 0.66847 0.0
C6092 C 0.11424 0.86286 0.68162 0.0
C6093 C 0.10343 0.85147 0.68318 0.0
C6094 C 0.12997 0.85309 0.64256 0.0
C6095 C 0.11654 0.87382 0.69442 0.0
H6096 H 0.17192 0.87552 0.68308 0.0
H6097 H 0.14698 0.90988 0.6601 0.0
H6098 H 0.14453 0.85141 0.69108 0.0
H6099 H 0.14839 0.84466 0.6725 0.0
H6100 H 0.16367 0.85052 0.68451 0.0
H6101 H 0.12289 0.90525 0.64974 0.0
H6102 H 0.11725 0.88599 0.64656 0.0
H6103 H 0.11243 0.89509 0.66383 0.0
H6104 H 0.10729 0.83388 0.64945 0.0
H6105 H 0.09703 0.85062 0.69354 0.0
H6106 H 0.14142 0.84898 0.64539 0.0
H6107 H 0.13119 0.86465 0.63802 0.0
H6108 H 0.12521 0.84572 0.63365 0.0
H6109 H 0.12736 0.87136 0.70014 0.0
H6110 H 0.10737 0.87315 0.7029 0.0
H6111 H 0.11714 0.88552 0.69009 0.0
C6112 C 0.16246 0.11405 0.6632 0.0
C6113 C 0.16358 0.10702 0.67726 0.0
C6114 C 0.15216 0.12587 0.66084 0.0
C6115 C 0.14248 0.13036 0.67271 0.0
C6116 C 0.14306 0.12264 0.68666 0.0
C6117 C 0.1538 0.11128 0.68885 0.0
C6118 C 0.15226 0.13409 0.64599 0.0
C6119 C 0.13269 0.12675 0.69948 0.0
C6120 C 0.12811 0.17023 0.67759 0.0
C6121 C 0.11321 0.16903 0.67262 0.0
C6122 C 0.13803 0.15798 0.67667 0.0
C6123 C 0.13274 0.14397 0.67122 0.0
C6124 C 0.11779 0.14281 0.66576 0.0
C6125 C 0.10825 0.15547 0.66629 0.0
C6126 C 0.154 0.1599 0.68216 0.0
C6127 C 0.11159 0.12799 0.66024 0.0
H6128 H 0.17017 0.11085 0.6543 0.0
H6129 H 0.15464 0.10578 0.69971 0.0
H6130 H 0.14067 0.13513 0.64147 0.0
H6131 H 0.15661 0.14567 0.6477 0.0
H6132 H 0.15941 0.12837 0.63748 0.0
H6133 H 0.13332 0.11852 0.70888 0.0
H6134 H 0.13573 0.13802 0.70391 0.0
H6135 H 0.12087 0.12736 0.69548 0.0
H6136 H 0.132 0.18072 0.68241 0.0
H6137 H 0.09667 0.15451 0.66258 0.0
H6138 H 0.16205 0.15519 0.67385 0.0
H6139 H 0.15555 0.15365 0.69285 0.0
H6140 H 0.15688 0.1719 0.68416 0.0
H6141 H 0.11931 0.12282 0.65192 0.0
H6142 H 0.1003 0.12927 0.65502 0.0
H6143 H 0.11065 0.12007 0.66985 0.0
C6144 C 0.90406 0.14882 0.6813 0.0
C6145 C 0.90154 0.16277 0.67447 0.0
C6146 C 0.89324 0.13733 0.68048 0.0
C6147 C 0.87941 0.14006 0.673 0.0
C6148 C 0.87708 0.15403 0.66564 0.0
C6149 C 0.88826 0.16521 0.66638 0.0
C6150 C 0.89628 0.12256 0.68831 0.0
C6151 C 0.86244 0.15751 0.65778 0.0
C6152 C 0.85286 0.10708 0.66553 0.0
C6153 C 0.84328 0.10787 0.67805 0.0
C6154 C 0.86465 0.11751 0.66363 0.0
C6155 C 0.86682 0.12903 0.67445 0.0
C6156 C 0.85708 0.12992 0.68703 0.0
C6157 C 0.84552 0.11932 0.6887 0.0
C6158 C 0.87487 0.11614 0.65014 0.0
C6159 C 0.8589 0.14206 0.6988 0.0
H6160 H 0.91434 0.14706 0.68764 0.0
H6161 H 0.88631 0.17612 0.66127 0.0
H6162 H 0.88895 0.12158 0.69837 0.0
H6163 H 0.89357 0.11299 0.68076 0.0
H6164 H 0.90819 0.12154 0.69197 0.0
H6165 H 0.86294 0.16827 0.65142 0.0
H6166 H 0.85942 0.14831 0.6499 0.0
H6167 H 0.85328 0.15833 0.66622 0.0
H6168 H 0.8512 0.09827 0.65726 0.0
H6169 H 0.83819 0.12004 0.69842 0.0
H6170 H 0.88664 0.11437 0.65392 0.0
H6171 H 0.87467 0.12672 0.64353 0.0
H6172 H 0.87161 0.10667 0.64266 0.0
H6173 H 0.87006 0.14102 0.70428 0.0
H6174 H 0.85008 0.14148 0.70764 0.0
H6175 H 0.85841 0.15333 0.69344 0.0
C6176 C 0.88838 0.84251 0.66028 0.0
C6177 C 0.88922 0.83478 0.67402 0.0
C6178 C 0.87809 0.8544 0.65824 0.0
C6179 C 0.86852 0.85869 0.67026 0.0
C6180 C 0.86938 0.8509 0.68414 0.0
C6181 C 0.87966 0.83905 0.68582 0.0
C6182 C 0.87746 0.86239 0.64327 0.0
C6183 C 0.85945 0.85513 0.69729 0.0
C6184 C 0.8508 0.89741 0.67401 0.0
C6185 C 0.8358 0.89433 0.67042 0.0
C6186 C 0.86183 0.88611 0.67305 0.0
C6187 C 0.85764 0.87138 0.66859 0.0
C6188 C 0.84257 0.86847 0.66425 0.0
C6189 C 0.8318 0.88002 0.66523 0.0
C6190 C 0.87776 0.88973 0.67772 0.0
C6191 C 0.8376 0.85294 0.65947 0.0
H6192 H 0.89571 0.83923 0.6511 0.0
H6193 H 0.88025 0.83317 0.69649 0.0
H6194 H 0.86595 0.86158 0.6385 0.0
H6195 H 0.87996 0.87453 0.64482 0.0
H6196 H 0.88556 0.85764 0.63502 0.0
H6197 H 0.86148 0.84792 0.7073 0.0
H6198 H 0.86147 0.86703 0.70049 0.0
H6199 H 0.84744 0.85414 0.69405 0.0
H6200 H 0.85379 0.90849 0.67817 0.0
H6201 H 0.82014 0.87768 0.66256 0.0
H6202 H 0.88588 0.8854 0.66928 0.0
H6203 H 0.88029 0.88409 0.68857 0.0
H6204 H 0.87957 0.90202 0.67913 0.0
H6205 H 0.84537 0.84833 0.65085 0.0
H6206 H 0.82599 0.85293 0.65485 0.0
H6207 H 0.83796 0.84525 0.6693 0.0
C6208 C 0.34183 0.15993 0.11145 0.0
C6209 C 0.32809 0.1608 0.10378 0.0
C6210 C 0.34377 0.14974 0.12344 0.0
C6211 C 0.33182 0.13995 0.12746 0.0
C6212 C 0.31825 0.14028 0.11911 0.0
C6213 C 0.31645 0.15089 0.10757 0.0
C6214 C 0.35822 0.15009 0.13233 0.0
C6215 C 0.30537 0.12979 0.12272 0.0
C6216 C 0.33734 0.10602 0.15314 0.0
C6217 C 0.33034 0.11105 0.16634 0.0
C6218 C 0.33841 0.11546 0.14044 0.0
C6219 C 0.33278 0.13038 0.14122 0.0
C6220 C 0.32662 0.13574 0.15491 0.0
C6221 C 0.32522 0.12593 0.16718 0.0
C6222 C 0.34469 0.10918 0.12597 0.0
C6223 C 0.32092 0.15169 0.15642 0.0
H6224 H 0.35075 0.16775 0.10861 0.0
H6225 H 0.30585 0.15155 0.10157 0.0
H6226 H 0.35594 0.15461 0.14375 0.0
H6227 H 0.36278 0.13856 0.13376 0.0
H6228 H 0.36693 0.15723 0.1269 0.0
H6229 H 0.29636 0.13023 0.11406 0.0
H6230 H 0.30947 0.11803 0.12364 0.0
H6231 H 0.30039 0.1329 0.13374 0.0
H6232 H 0.3412 0.09447 0.15245 0.0
H6233 H 0.31991 0.12988 0.17742 0.0
H6234 H 0.35318 0.11694 0.12113 0.0
H6235 H 0.33548 0.10808 0.1176 0.0
H6236 H 0.34994 0.09795 0.12759 0.0
H6237 H 0.32937 0.15977 0.15204 0.0
H6238 H 0.31831 0.15465 0.16828 0.0
H6239 H 0.31053 0.15308 0.14963 0.0
C6240 C 0.88811 0.34061 0.15919 0.0
C6241 C 0.89677 0.32748 0.16019 0.0
C6242 C 0.87676 0.34198 0.1482 0.0
C6243 C 0.87439 0.33012 0.13777 0.0
C6244 C 0.8838 0.31727 0.13824 0.0
C6245 C 0.89468 0.316 0.1496 0.0
C6246 C 0.86672 0.35568 0.14835 0.0
C6247 C 0.88197 0.30452 0.12714 0.0
C6248 C 0.83608 0.32099 0.12137 0.0
C6249 C 0.83722 0.32672 0.10672 0.0
C6250 C 0.84775 0.32287 0.13183 0.0
C6251 C 0.86117 0.33023 0.12741 0.0
C6252 C 0.86228 0.33636 0.11271 0.0
C6253 C 0.85017 0.33473 0.1026 0.0
C6254 C 0.84588 0.3165 0.14748 0.0
C6255 C 0.87651 0.34397 0.10744 0.0
H6256 H 0.88965 0.34942 0.16749 0.0
H6257 H 0.90145 0.30587 0.15034 0.0
H6258 H 0.86562 0.36045 0.13688 0.0
H6259 H 0.85528 0.35237 0.15211 0.0
H6260 H 0.871 0.36457 0.15603 0.0
H6261 H 0.89134 0.29627 0.12785 0.0
H6262 H 0.87126 0.29852 0.12938 0.0
H6263 H 0.88142 0.30896 0.11548 0.0
H6264 H 0.82605 0.31493 0.1247 0.0
H6265 H 0.85111 0.33913 0.09126 0.0
H6266 H 0.84896 0.32506 0.15605 0.0
H6267 H 0.85354 0.30676 0.14899 0.0
H6268 H 0.83418 0.31269 0.14967 0.0
H6269 H 0.88009 0.35269 0.11562 0.0
H6270 H 0.87513 0.34929 0.09621 0.0
H6271 H 0.8857 0.33554 0.10675 0.0
C6272 C 0.66079 0.88568 0.16075 0.0
C6273 C 0.67446 0.89333 0.1625 0.0
C6274 C 0.65914 0.87451 0.14962 0.0
C6275 C 0.67129 0.87135 0.13976 0.0
C6276 C 0.68479 0.87973 0.14101 0.0
C6277 C 0.68631 0.89038 0.15256 0.0
C6278 C 0.64476 0.86551 0.149 0.0
C6279 C 0.69787 0.87708 0.13049 0.0
C6280 C 0.67851 0.83288 0.12282 0.0
C6281 C 0.67342 0.83472 0.10802 0.0
C6282 C 0.67687 0.84437 0.13351 0.0
C6283 C 0.67062 0.85836 0.12912 0.0
C6284 C 0.66514 0.86019 0.11424 0.0
C6285 C 0.66635 0.8482 0.10391 0.0
C6286 C 0.68239 0.8417 0.14937 0.0
C6287 C 0.65885 0.87505 0.10897 0.0
H6288 H 0.65168 0.88788 0.16857 0.0
H6289 H 0.69685 0.89639 0.15389 0.0
H6290 H 0.64038 0.86502 0.13733 0.0
H6291 H 0.64708 0.85377 0.15258 0.0
H6292 H 0.63591 0.87026 0.15644 0.0
H6293 H 0.70676 0.88578 0.13173 0.0
H6294 H 0.70295 0.86592 0.13283 0.0
H6295 H 0.69396 0.877 0.11863 0.0
H6296 H 0.68391 0.82245 0.12605 0.0
H6297 H 0.66254 0.84967 0.09242 0.0
H6298 H 0.67382 0.84542 0.15765 0.0
H6299 H 0.69272 0.84841 0.1514 0.0
H6300 H 0.68504 0.82966 0.15147 0.0
H6301 H 0.65019 0.87923 0.11693 0.0
H6302 H 0.65379 0.87425 0.09756 0.0
H6303 H 0.668 0.88354 0.10866 0.0
C6304 C 0.16345 0.68084 0.12371 0.0
C6305 C 0.16263 0.67437 0.10936 0.0
C6306 C 0.15147 0.6796 0.13392 0.0
C6307 C 0.13807 0.67221 0.12947 0.0
C6308 C 0.13727 0.66542 0.11504 0.0
C6309 C 0.1497 0.66635 0.10524 0.0
C6310 C 0.15304 0.68658 0.14934 0.0
C6311 C 0.12306 0.65782 0.1097 0.0
C6312 C 0.11025 0.6628 0.16077 0.0
C6313 C 0.10161 0.67598 0.16122 0.0
C6314 C 0.12192 0.66114 0.15018 0.0
C6315 C 0.12462 0.67273 0.13954 0.0
C6316 C 0.11526 0.68564 0.13945 0.0
C6317 C 0.10409 0.68724 0.1505 0.0
C6318 C 0.13193 0.64744 0.151 0.0
C6319 C 0.11743 0.69808 0.12807 0.0
H6320 H 0.17348 0.68692 0.12699 0.0
H6321 H 0.14903 0.66142 0.0941 0.0
H6322 H 0.14545 0.69645 0.15028 0.0
H6323 H 0.14966 0.67841 0.15816 0.0
H6324 H 0.16473 0.69036 0.15165 0.0
H6325 H 0.12457 0.6522 0.09863 0.0
H6326 H 0.11925 0.64934 0.11802 0.0
H6327 H 0.11396 0.66631 0.10865 0.0
H6328 H 0.10846 0.65422 0.16926 0.0
H6329 H 0.09739 0.69744 0.1509 0.0
H6330 H 0.14331 0.65087 0.15484 0.0
H6331 H 0.13323 0.64226 0.13972 0.0
H6332 H 0.1275 0.63883 0.15891 0.0
H6333 H 0.12808 0.70413 0.13045 0.0
H6334 H 0.10806 0.70635 0.1283 0.0
H6335 H 0.11831 0.69332 0.11656 0.0
C6336 C 0.33739 0.8915 0.84633 0.0
C6337 C 0.32841 0.888 0.83385 0.0
C6338 C 0.33848 0.88152 0.85859 0.0
C6339 C 0.33076 0.86757 0.85808 0.0
C6340 C 0.32241 0.86367 0.84507 0.0
C6341 C 0.32114 0.87403 0.83325 0.0
C6342 C 0.34718 0.88625 0.87238 0.0
C6343 C 0.31435 0.84875 0.84385 0.0
C6344 C 0.33861 0.83548 0.8854 0.0
C6345 C 0.32575 0.83611 0.89448 0.0
C6346 C 0.34078 0.84603 0.87378 0.0
C6347 C 0.33004 0.85763 0.87157 0.0
C6348 C 0.31757 0.85879 0.88142 0.0
C6349 C 0.31543 0.84783 0.89256 0.0
C6350 C 0.35398 0.84414 0.86327 0.0
C6351 C 0.30605 0.87118 0.87975 0.0
H6352 H 0.34298 0.90234 0.84682 0.0
H6353 H 0.31434 0.87121 0.82354 0.0
H6354 H 0.33925 0.88816 0.88184 0.0
H6355 H 0.35504 0.87722 0.87591 0.0
H6356 H 0.35369 0.89675 0.87048 0.0
H6357 H 0.3099 0.84672 0.83235 0.0
H6358 H 0.32204 0.83939 0.84688 0.0
H6359 H 0.30479 0.84849 0.85187 0.0
H6360 H 0.34646 0.82624 0.88681 0.0
H6361 H 0.30549 0.84826 0.89963 0.0
H6362 H 0.35986 0.85502 0.86159 0.0
H6363 H 0.34986 0.84038 0.8521 0.0
H6364 H 0.36219 0.83572 0.86751 0.0
H6365 H 0.3117 0.88227 0.87868 0.0
H6366 H 0.29817 0.87163 0.88945 0.0
H6367 H 0.29939 0.86934 0.86935 0.0
C6368 C 0.15085 0.33394 0.8998 0.0
C6369 C 0.1638 0.32599 0.89558 0.0
C6370 C 0.13862 0.33543 0.88981 0.0
C6371 C 0.13964 0.32928 0.87511 0.0
C6372 C 0.15306 0.32195 0.87061 0.0
C6373 C 0.16483 0.32013 0.88098 0.0
C6374 C 0.12437 0.34292 0.89521 0.0
C6375 C 0.15486 0.31564 0.85492 0.0
C6376 C 0.10575 0.31567 0.85296 0.0
C6377 C 0.10347 0.32748 0.84278 0.0
C6378 C 0.11686 0.31658 0.86414 0.0
C6379 C 0.12637 0.32935 0.86477 0.0
C6380 C 0.12392 0.34147 0.85467 0.0
C6381 C 0.1123 0.34049 0.84392 0.0
C6382 C 0.11874 0.30359 0.87495 0.0
C6383 C 0.13411 0.35505 0.85461 0.0
H6384 H 0.15001 0.3384 0.91112 0.0
H6385 H 0.17487 0.31412 0.87762 0.0
H6386 H 0.12083 0.35184 0.88724 0.0
H6387 H 0.11517 0.33449 0.89566 0.0
H6388 H 0.1257 0.34797 0.90657 0.0
H6389 H 0.16656 0.31185 0.85267 0.0
H6390 H 0.14721 0.3059 0.85339 0.0
H6391 H 0.15173 0.32423 0.84641 0.0
H6392 H 0.09888 0.30562 0.85206 0.0
H6393 H 0.11066 0.34952 0.83588 0.0
H6394 H 0.11944 0.30778 0.88669 0.0
H6395 H 0.1294 0.29758 0.87247 0.0
H6396 H 0.10933 0.2954 0.87416 0.0
H6397 H 0.13519 0.35977 0.86611 0.0
H6398 H 0.12996 0.36403 0.84695 0.0
H6399 H 0.14553 0.35163 0.85091 0.0
C6400 C 0.68375 0.15044 0.89547 0.0
C6401 C 0.67233 0.16096 0.89813 0.0
C6402 C 0.68245 0.13978 0.8839 0.0
C6403 C 0.66967 0.14003 0.87438 0.0
C6404 C 0.65791 0.15044 0.87726 0.0
C6405 C 0.65929 0.16066 0.8893 0.0
C6406 C 0.69505 0.12863 0.88153 0.0
C6407 C 0.64434 0.1514 0.86711 0.0
C6408 C 0.67853 0.12527 0.83532 0.0
C6409 C 0.67236 0.11078 0.83577 0.0
C6410 C 0.67691 0.1352 0.84748 0.0
C6411 C 0.66942 0.13033 0.86068 0.0
C6412 C 0.66288 0.11578 0.86108 0.0
C6413 C 0.66422 0.10625 0.84849 0.0
C6414 C 0.68365 0.15077 0.84637 0.0
C6415 C 0.65516 0.11 0.87506 0.0
H6416 H 0.69382 0.1507 0.90235 0.0
H6417 H 0.65057 0.16897 0.89125 0.0
H6418 H 0.69047 0.11707 0.88032 0.0
H6419 H 0.70114 0.13136 0.87098 0.0
H6420 H 0.70327 0.12872 0.89095 0.0
H6421 H 0.63558 0.15908 0.87166 0.0
H6422 H 0.64785 0.15559 0.85588 0.0
H6423 H 0.63931 0.1401 0.86542 0.0
H6424 H 0.68469 0.12886 0.82543 0.0
H6425 H 0.65952 0.095 0.84887 0.0
H6426 H 0.69342 0.15168 0.85408 0.0
H6427 H 0.67531 0.15938 0.84987 0.0
H6428 H 0.68752 0.15342 0.83478 0.0
H6429 H 0.66356 0.10879 0.88423 0.0
H6430 H 0.64968 0.09893 0.87319 0.0
H6431 H 0.64656 0.11815 0.87899 0.0
C6432 C 0.8963 0.68692 0.85204 0.0
C6433 C 0.89895 0.67526 0.84178 0.0
C6434 C 0.885 0.68572 0.863 0.0
C6435 C 0.87566 0.6728 0.8633 0.0
C6436 C 0.87846 0.66085 0.85307 0.0
C6437 C 0.89027 0.66213 0.84257 0.0
C6438 C 0.88275 0.69852 0.87395 0.0
C6439 C 0.86846 0.64713 0.85265 0.0
C6440 C 0.85084 0.66722 0.89793 0.0
C6441 C 0.8378 0.67501 0.89369 0.0
C6442 C 0.86321 0.66612 0.88807 0.0
C6443 C 0.86227 0.6725 0.87347 0.0
C6444 C 0.84878 0.67967 0.86892 0.0
C6445 C 0.83685 0.6811 0.87918 0.0
C6446 C 0.87752 0.65878 0.89353 0.0
C6447 C 0.84706 0.68621 0.85333 0.0
H6448 H 0.90305 0.69707 0.85141 0.0
H6449 H 0.8922 0.65321 0.83446 0.0
H6450 H 0.87202 0.70438 0.87142 0.0
H6451 H 0.88197 0.69416 0.88562 0.0
H6452 H 0.89202 0.70688 0.8734 0.0
H6453 H 0.8728 0.63837 0.84485 0.0
H6454 H 0.86735 0.64218 0.86404 0.0
H6455 H 0.85702 0.65046 0.84892 0.0
H6456 H 0.85162 0.66258 0.90919 0.0
H6457 H 0.82674 0.68701 0.87581 0.0
H6458 H 0.88658 0.66735 0.89419 0.0
H6459 H 0.88129 0.65003 0.88547 0.0
H6460 H 0.87615 0.65354 0.9048 0.0
H6461 H 0.85456 0.6961 0.85206 0.0
H6462 H 0.83532 0.68983 0.85099 0.0
H6463 H 0.85044 0.67781 0.84471 0.0
C6464 C 0.15351 0.3368 0.1057 0.0
C6465 C 0.1668 0.32954 0.11008 0.0
C6466 C 0.14141 0.33836 0.11584 0.0
C6467 C 0.14292 0.333 0.13081 0.0
C6468 C 0.15673 0.32656 0.13547 0.0
C6469 C 0.16834 0.32461 0.12497 0.0
C6470 C 0.12675 0.34488 0.1103 0.0
C6471 C 0.15906 0.32113 0.15141 0.0
C6472 C 0.11546 0.34327 0.16216 0.0
C6473 C 0.10766 0.32968 0.1639 0.0
C6474 C 0.12669 0.34478 0.15107 0.0
C6475 C 0.12977 0.33258 0.14124 0.0
C6476 C 0.12121 0.31918 0.14246 0.0
C6477 C 0.1105 0.31779 0.15396 0.0
C6478 C 0.13585 0.35906 0.15048 0.0
C6479 C 0.12379 0.30603 0.13198 0.0
H6480 H 0.15227 0.3405 0.09414 0.0
H6481 H 0.17861 0.31906 0.12844 0.0
H6482 H 0.11815 0.33584 0.10981 0.0
H6483 H 0.12254 0.35358 0.11819 0.0
H6484 H 0.12785 0.34994 0.09892 0.0
H6485 H 0.17102 0.3183 0.15372 0.0
H6486 H 0.15537 0.32983 0.15957 0.0
H6487 H 0.15216 0.31093 0.15342 0.0
H6488 H 0.11334 0.3524 0.16996 0.0
H6489 H 0.10437 0.30732 0.15526 0.0
H6490 H 0.13659 0.36333 0.13878 0.0
H6491 H 0.14749 0.35665 0.1543 0.0
H6492 H 0.13106 0.36804 0.15776 0.0
H6493 H 0.12406 0.30992 0.12012 0.0
H6494 H 0.11493 0.29729 0.13313 0.0
H6495 H 0.13484 0.30079 0.13447 0.0
C6496 C 0.14878 0.67825 0.89537 0.0
C6497 C 0.16137 0.66884 0.89631 0.0
C6498 C 0.13841 0.6768 0.88356 0.0
C6499 C 0.14101 0.66605 0.87207 0.0
C6500 C 0.15348 0.65614 0.87327 0.0
C6501 C 0.16344 0.65753 0.88553 0.0
C6502 C 0.12511 0.68736 0.88296 0.0
C6503 C 0.1569 0.6448 0.8611 0.0
C6504 C 0.10893 0.66 0.84417 0.0
C6505 C 0.1123 0.67084 0.83321 0.0
C6506 C 0.11843 0.65787 0.85669 0.0
C6507 C 0.13173 0.66658 0.85807 0.0
C6508 C 0.13553 0.67694 0.84658 0.0
C6509 C 0.1257 0.67906 0.83442 0.0
C6510 C 0.11386 0.64688 0.86879 0.0
C6511 C 0.14973 0.68625 0.8474 0.0
H6512 H 0.14725 0.68702 0.90372 0.0
H6513 H 0.17335 0.65044 0.88616 0.0
H6514 H 0.12673 0.69562 0.87374 0.0
H6515 H 0.11462 0.68103 0.88053 0.0
H6516 H 0.12361 0.69365 0.89367 0.0
H6517 H 0.16579 0.63673 0.86457 0.0
H6518 H 0.14663 0.63842 0.85801 0.0
H6519 H 0.16078 0.6508 0.85085 0.0
H6520 H 0.09856 0.65364 0.84329 0.0
H6521 H 0.12847 0.68736 0.82592 0.0
H6522 H 0.1109 0.65314 0.87919 0.0
H6523 H 0.12335 0.63929 0.87162 0.0
H6524 H 0.10403 0.63994 0.86539 0.0
H6525 H 0.14886 0.69443 0.8568 0.0
H6526 H 0.15185 0.69259 0.83684 0.0
H6527 H 0.15959 0.67894 0.84972 0.0
C6528 C 0.34049 0.15111 0.89531 0.0
C6529 C 0.33206 0.16366 0.89082 0.0
C6530 C 0.34189 0.13846 0.88583 0.0
C6531 C 0.33503 0.13861 0.87142 0.0
C6532 C 0.32733 0.15169 0.86654 0.0
C6533 C 0.32574 0.16392 0.87638 0.0
C6534 C 0.34992 0.12465 0.89157 0.0
C6535 C 0.32018 0.15254 0.85113 0.0
C6536 C 0.34366 0.10976 0.84082 0.0
C6537 C 0.3305 0.10108 0.84109 0.0
C6538 C 0.34566 0.12173 0.85104 0.0
C6539 C 0.33441 0.12473 0.86197 0.0
C6540 C 0.32159 0.11531 0.86281 0.0
C6541 C 0.31967 0.10379 0.85219 0.0
C6542 C 0.35928 0.13173 0.84949 0.0
C6543 C 0.3095 0.11782 0.87449 0.0
H6544 H 0.34533 0.15087 0.9065 0.0
H6545 H 0.31935 0.17366 0.87279 0.0
H6546 H 0.34161 0.11555 0.89354 0.0
H6547 H 0.35807 0.12047 0.8831 0.0
H6548 H 0.356 0.12686 0.90227 0.0
H6549 H 0.31623 0.16408 0.84839 0.0
H6550 H 0.32829 0.14889 0.84236 0.0
H6551 H 0.31039 0.14481 0.85062 0.0
H6552 H 0.35195 0.10775 0.8321 0.0
H6553 H 0.30952 0.09702 0.85241 0.0
H6554 H 0.36461 0.13368 0.8606 0.0
H6555 H 0.35575 0.14286 0.84505 0.0
H6556 H 0.3678 0.12689 0.84172 0.0
H6557 H 0.31459 0.11913 0.88582 0.0
H6558 H 0.30127 0.10841 0.87485 0.0
H6559 H 0.30331 0.12836 0.87192 0.0
C6560 C 0.89266 0.32062 0.84881 0.0
C6561 C 0.89343 0.33158 0.83753 0.0
C6562 C 0.88215 0.32172 0.86051 0.0
C6563 C 0.87174 0.3338 0.86061 0.0
C6564 C 0.87287 0.34525 0.84953 0.0
C6565 C 0.8839 0.3441 0.83819 0.0
C6566 C 0.88164 0.30947 0.87228 0.0
C6567 C 0.86179 0.35809 0.849 0.0
C6568 C 0.83465 0.3217 0.87768 0.0
C6569 C 0.83534 0.328 0.89211 0.0
C6570 C 0.84596 0.32439 0.86703 0.0
C6571 C 0.85862 0.33317 0.87106 0.0
C6572 C 0.85923 0.33991 0.88551 0.0
C6573 C 0.84744 0.33743 0.89582 0.0
C6574 C 0.84459 0.31731 0.85162 0.0
C6575 C 0.87269 0.34905 0.89037 0.0
H6576 H 0.90011 0.31096 0.84829 0.0
H6577 H 0.88443 0.35247 0.82933 0.0
H6578 H 0.88075 0.31442 0.88371 0.0
H6579 H 0.87154 0.30235 0.87047 0.0
H6580 H 0.89175 0.30212 0.87186 0.0
H6581 H 0.86539 0.36707 0.84107 0.0
H6582 H 0.85067 0.35378 0.84529 0.0
H6583 H 0.86025 0.36309 0.86033 0.0
H6584 H 0.82529 0.31452 0.87467 0.0
H6585 H 0.84802 0.34227 0.907 0.0
H6586 H 0.85307 0.30822 0.85042 0.0
H6587 H 0.84687 0.32577 0.84272 0.0
H6588 H 0.83327 0.3124 0.84966 0.0
H6589 H 0.88257 0.34151 0.89159 0.0
H6590 H 0.87076 0.35486 0.90127 0.0
H6591 H 0.87558 0.35756 0.88171 0.0
C6592 C 0.66131 0.89136 0.84211 0.0
C6593 C 0.67452 0.89993 0.84184 0.0
C6594 C 0.65937 0.87985 0.85286 0.0
C6595 C 0.67074 0.87724 0.86376 0.0
C6596 C 0.68361 0.88663 0.86407 0.0
C6597 C 0.68546 0.89766 0.85294 0.0
C6598 C 0.64568 0.86987 0.85188 0.0
C6599 C 0.69584 0.88453 0.87568 0.0
C6600 C 0.66479 0.85189 0.89793 0.0
C6601 C 0.67297 0.83908 0.89371 0.0
C6602 C 0.66352 0.86432 0.88815 0.0
C6603 C 0.67024 0.86369 0.87369 0.0
C6604 C 0.6778 0.85042 0.86913 0.0
C6605 C 0.67929 0.83842 0.87927 0.0
C6606 C 0.65567 0.87837 0.89356 0.0
C6607 C 0.6848 0.84906 0.8537 0.0
H6608 H 0.65295 0.893 0.83338 0.0
H6609 H 0.69567 0.90434 0.85271 0.0
H6610 H 0.64909 0.85858 0.84777 0.0
H6611 H 0.64053 0.86831 0.86315 0.0
H6612 H 0.63705 0.87448 0.8441 0.0
H6613 H 0.70405 0.89396 0.87563 0.0
H6614 H 0.6909 0.88359 0.88711 0.0
H6615 H 0.70202 0.87393 0.87338 0.0
H6616 H 0.65993 0.85246 0.9091 0.0
H6617 H 0.68549 0.8285 0.87587 0.0
H6618 H 0.6473 0.88222 0.88514 0.0
H6619 H 0.66404 0.88754 0.89493 0.0
H6620 H 0.64987 0.87662 0.9045 0.0
H6621 H 0.67659 0.85238 0.8449 0.0
H6622 H 0.68875 0.83744 0.8513 0.0
H6623 H 0.69456 0.85679 0.85282 0.0
C6624 C 0.8521 0.6802 0.10684 0.0
C6625 C 0.83994 0.67024 0.10606 0.0
C6626 C 0.86284 0.67903 0.11834 0.0
C6627 C 0.86106 0.66797 0.12968 0.0
C6628 C 0.84908 0.65746 0.12858 0.0
C6629 C 0.83872 0.65862 0.11663 0.0
C6630 C 0.87559 0.69025 0.11883 0.0
C6631 C 0.84655 0.64573 0.14059 0.0
C6632 C 0.89386 0.66328 0.15701 0.0
C6633 C 0.89009 0.67381 0.16815 0.0
C6634 C 0.88431 0.66082 0.14459 0.0
C6635 C 0.87054 0.66881 0.14352 0.0
C6636 C 0.86637 0.67883 0.1552 0.0
C6637 C 0.87627 0.68135 0.16723 0.0
C6638 C 0.88928 0.65025 0.13226 0.0
C6639 C 0.85166 0.68734 0.15474 0.0
H6640 H 0.85294 0.68922 0.09866 0.0
H6641 H 0.82913 0.6511 0.11614 0.0
H6642 H 0.8737 0.69832 0.12817 0.0
H6643 H 0.88643 0.68445 0.12102 0.0
H6644 H 0.87658 0.69671 0.10818 0.0
H6645 H 0.83811 0.6372 0.13709 0.0
H6646 H 0.85722 0.63993 0.14344 0.0
H6647 H 0.84245 0.65131 0.15099 0.0
H6648 H 0.90456 0.65746 0.15767 0.0
H6649 H 0.87321 0.68938 0.17587 0.0
H6650 H 0.89175 0.65681 0.12193 0.0
H6651 H 0.88016 0.64221 0.12945 0.0
H6652 H 0.89951 0.6438 0.13543 0.0
H6653 H 0.85192 0.69568 0.14545 0.0
H6654 H 0.84937 0.69342 0.16543 0.0
H6655 H 0.84219 0.67953 0.15249 0.0
C6656 C 0.31339 0.85214 0.10576 0.0
C6657 C 0.32507 0.84179 0.10369 0.0
C6658 C 0.31475 0.86397 0.11612 0.0
C6659 C 0.32788 0.86509 0.12509 0.0
C6660 C 0.33989 0.85483 0.12277 0.0
C6661 C 0.33843 0.84342 0.11187 0.0
C6662 C 0.30186 0.8749 0.11789 0.0
C6663 C 0.35385 0.85529 0.13243 0.0
C6664 C 0.33301 0.901 0.14808 0.0
C6665 C 0.32543 0.89721 0.16138 0.0
C6666 C 0.33421 0.89057 0.13619 0.0
C6667 C 0.32818 0.8759 0.13793 0.0
C6668 C 0.32126 0.87184 0.15169 0.0
C6669 C 0.31969 0.88263 0.16309 0.0
C6670 C 0.34126 0.89548 0.12154 0.0
C6671 C 0.3151 0.8562 0.15426 0.0
H6672 H 0.30307 0.85085 0.09937 0.0
H6673 H 0.34738 0.83525 0.11036 0.0
H6674 H 0.29612 0.87289 0.12878 0.0
H6675 H 0.30609 0.88665 0.11799 0.0
H6676 H 0.29343 0.87375 0.10872 0.0
H6677 H 0.36274 0.84758 0.12822 0.0
H6678 H 0.35847 0.86687 0.13294 0.0
H6679 H 0.3509 0.85196 0.1441 0.0
H6680 H 0.33738 0.91231 0.14672 0.0
H6681 H 0.31394 0.8796 0.17339 0.0
H6682 H 0.33253 0.89569 0.11261 0.0
H6683 H 0.35001 0.88735 0.11796 0.0
H6684 H 0.3464 0.90685 0.12235 0.0
H6685 H 0.30512 0.85437 0.14699 0.0
H6686 H 0.31171 0.85435 0.16615 0.0
H6687 H 0.32362 0.84761 0.15115 0.0
C6688 C 0.68147 0.15304 0.11028 0.0
C6689 C 0.67025 0.16403 0.10904 0.0
C6690 C 0.68013 0.14114 0.12055 0.0
C6691 C 0.66752 0.14053 0.13029 0.0
C6692 C 0.65595 0.15145 0.12884 0.0
C6693 C 0.65734 0.16296 0.11802 0.0
C6694 C 0.69252 0.12954 0.12137 0.0
C6695 C 0.64258 0.1515 0.1393 0.0
C6696 C 0.66234 0.10426 0.15273 0.0
C6697 C 0.67099 0.10736 0.16555 0.0
C6698 C 0.6607 0.11508 0.14125 0.0
C6699 C 0.66743 0.12946 0.14292 0.0
C6700 C 0.67541 0.13286 0.15629 0.0
C6701 C 0.67735 0.12169 0.16725 0.0
C6702 C 0.65248 0.11086 0.127 0.0
C6703 C 0.68239 0.14816 0.15881 0.0
H6704 H 0.6914 0.15382 0.10322 0.0
H6705 H 0.64873 0.17156 0.11713 0.0
H6706 H 0.69894 0.131 0.13198 0.0
H6707 H 0.68771 0.11802 0.12146 0.0
H6708 H 0.7005 0.13047 0.11179 0.0
H6709 H 0.63388 0.15976 0.13577 0.0
H6710 H 0.63739 0.14016 0.13985 0.0
H6711 H 0.64637 0.15441 0.15084 0.0
H6712 H 0.65748 0.09315 0.15136 0.0
H6713 H 0.68395 0.1242 0.17717 0.0
H6714 H 0.66062 0.11028 0.11755 0.0
H6715 H 0.64402 0.11956 0.12408 0.0
H6716 H 0.64672 0.09981 0.12798 0.0
H6717 H 0.69202 0.14971 0.15102 0.0
H6718 H 0.68654 0.14959 0.17052 0.0
H6719 H 0.67411 0.15718 0.15638 0.0
C6720 C 0.62048 0.66647 0.82444 0.0
C6721 C 0.60565 0.66415 0.82921 0.0
C6722 C 0.6314 0.65517 0.8259 0.0
C6723 C 0.62723 0.64091 0.83167 0.0
C6724 C 0.61231 0.6386 0.83684 0.0
C6725 C 0.60173 0.65038 0.8358 0.0
C6726 C 0.64727 0.65834 0.82072 0.0
C6727 C 0.60728 0.62345 0.84264 0.0
C6728 C 0.65166 0.60975 0.81569 0.0
C6729 C 0.66139 0.60669 0.82769 0.0
C6730 C 0.63989 0.62017 0.8172 0.0
C6731 C 0.63819 0.6282 0.83088 0.0
C6732 C 0.64788 0.62496 0.84314 0.0
C6733 C 0.65923 0.61402 0.84148 0.0
C6734 C 0.62958 0.62292 0.80398 0.0
C6735 C 0.6468 0.63362 0.85772 0.0
H6736 H 0.62358 0.67712 0.81942 0.0
H6737 H 0.59021 0.64855 0.83937 0.0
H6738 H 0.65549 0.65461 0.82935 0.0
H6739 H 0.64964 0.65194 0.81027 0.0
H6740 H 0.64913 0.67049 0.81841 0.0
H6741 H 0.59576 0.62383 0.84746 0.0
H6742 H 0.6074 0.61519 0.83326 0.0
H6743 H 0.61516 0.61925 0.85136 0.0
H6744 H 0.65327 0.60398 0.80505 0.0
H6745 H 0.66687 0.61173 0.85071 0.0
H6746 H 0.63173 0.63428 0.79926 0.0
H6747 H 0.61765 0.62259 0.80764 0.0
H6748 H 0.63122 0.6145 0.79488 0.0
H6749 H 0.65 0.64552 0.85571 0.0
H6750 H 0.65428 0.62892 0.86656 0.0
H6751 H 0.63506 0.63361 0.86196 0.0
C6752 C 0.34648 0.60568 0.82033 0.0
C6753 C 0.33456 0.60611 0.8306 0.0
C6754 C 0.35813 0.6163 0.82096 0.0
C6755 C 0.3575 0.62802 0.83175 0.0
C6756 C 0.34564 0.62825 0.84244 0.0
C6757 C 0.33438 0.61711 0.84187 0.0
C6758 C 0.37075 0.61535 0.80962 0.0
C6759 C 0.3443 0.64078 0.85382 0.0
C6760 C 0.39259 0.65227 0.83656 0.0
C6761 C 0.3899 0.66372 0.82604 0.0
C6762 C 0.38203 0.64066 0.83882 0.0
C6763 C 0.36832 0.6408 0.83066 0.0
C6764 C 0.36535 0.6527 0.82049 0.0
C6765 C 0.37626 0.66385 0.81814 0.0
C6766 C 0.38577 0.62799 0.84948 0.0
C6767 C 0.35076 0.65349 0.81179 0.0
H6768 H 0.34657 0.59711 0.81163 0.0
H6769 H 0.325 0.61751 0.84967 0.0
H6770 H 0.36971 0.62469 0.8014 0.0
H6771 H 0.38181 0.61657 0.8153 0.0
H6772 H 0.37064 0.60454 0.80334 0.0
H6773 H 0.33534 0.63855 0.86225 0.0
H6774 H 0.35513 0.64245 0.8598 0.0
H6775 H 0.34164 0.65146 0.84792 0.0
H6776 H 0.40315 0.65211 0.84266 0.0
H6777 H 0.37404 0.67271 0.81008 0.0
H6778 H 0.38683 0.61732 0.84306 0.0
H6779 H 0.37658 0.62642 0.85777 0.0
H6780 H 0.39645 0.63 0.85565 0.0
H6781 H 0.35019 0.64405 0.80364 0.0
H6782 H 0.34957 0.66422 0.80549 0.0
H6783 H 0.34104 0.65232 0.81955 0.0
C6784 C 0.38203 0.33841 0.82162 0.0
C6785 C 0.39659 0.3402 0.82739 0.0
C6786 C 0.37098 0.34947 0.82376 0.0
C6787 C 0.37471 0.36299 0.83133 0.0
C6788 C 0.38938 0.36481 0.83735 0.0
C6789 C 0.40008 0.35324 0.83555 0.0
C6790 C 0.35537 0.3468 0.81756 0.0
C6791 C 0.39396 0.37923 0.84507 0.0
C6792 C 0.35017 0.39538 0.81833 0.0
C6793 C 0.33987 0.39668 0.83017 0.0
C6794 C 0.36218 0.38516 0.81907 0.0
C6795 C 0.36357 0.37555 0.83172 0.0
C6796 C 0.35336 0.37708 0.8439 0.0
C6797 C 0.34174 0.38784 0.84308 0.0
C6798 C 0.37304 0.38426 0.80602 0.0
C6799 C 0.35412 0.36674 0.85735 0.0
H6800 H 0.37922 0.32831 0.81543 0.0
H6801 H 0.41136 0.35467 0.83996 0.0
H6802 H 0.34677 0.34924 0.82628 0.0
H6803 H 0.35328 0.35451 0.80797 0.0
H6804 H 0.35381 0.33505 0.81358 0.0
H6805 H 0.40541 0.3785 0.85003 0.0
H6806 H 0.39378 0.38859 0.83681 0.0
H6807 H 0.38584 0.38212 0.8541 0.0
H6808 H 0.34874 0.40229 0.80838 0.0
H6809 H 0.33364 0.38876 0.85216 0.0
H6810 H 0.37124 0.37359 0.7998 0.0
H6811 H 0.38482 0.38425 0.81017 0.0
H6812 H 0.3716 0.39377 0.79804 0.0
H6813 H 0.35111 0.35514 0.85382 0.0
H6814 H 0.34633 0.37028 0.86646 0.0
H6815 H 0.36573 0.36632 0.86191 0.0
C6816 C 0.6257 0.33532 0.82266 0.0
C6817 C 0.61162 0.33521 0.82974 0.0
C6818 C 0.63581 0.34723 0.82479 0.0
C6819 C 0.63158 0.35962 0.83389 0.0
C6820 C 0.61756 0.35935 0.8415 0.0
C6821 C 0.60779 0.34702 0.83948 0.0
C6822 C 0.65079 0.34683 0.81676 0.0
C6823 C 0.61251 0.37245 0.85106 0.0
C6824 C 0.66341 0.38683 0.84301 0.0
C6825 C 0.66267 0.39651 0.8306 0.0
C6826 C 0.6529 0.3751 0.84473 0.0
C6827 C 0.64122 0.37335 0.83398 0.0
C6828 C 0.6399 0.38384 0.82205 0.0
C6829 C 0.65081 0.3951 0.82035 0.0
C6830 C 0.65495 0.36396 0.85738 0.0
C6831 C 0.62745 0.38267 0.81054 0.0
H6832 H 0.62878 0.32615 0.81525 0.0
H6833 H 0.59688 0.34698 0.84493 0.0
H6834 H 0.65092 0.35543 0.80771 0.0
H6835 H 0.66005 0.34957 0.82468 0.0
H6836 H 0.65309 0.33566 0.81162 0.0
H6837 H 0.60215 0.36982 0.85754 0.0
H6838 H 0.62151 0.37579 0.85903 0.0
H6839 H 0.61022 0.38229 0.84372 0.0
H6840 H 0.67275 0.38783 0.8508 0.0
H6841 H 0.65029 0.40263 0.81076 0.0
H6842 H 0.65909 0.35314 0.85271 0.0
H6843 H 0.64407 0.36164 0.86304 0.0
H6844 H 0.66316 0.368 0.86589 0.0
H6845 H 0.62942 0.37272 0.80325 0.0
H6846 H 0.6268 0.39282 0.80326 0.0
H6847 H 0.61643 0.38107 0.81618 0.0
C6848 C 0.64974 0.39867 0.16546 0.0
C6849 C 0.66293 0.39463 0.1731 0.0
C6850 C 0.63773 0.3884 0.16399 0.0
C6851 C 0.6392 0.37365 0.16991 0.0
C6852 C 0.65286 0.36933 0.17689 0.0
C6853 C 0.6644 0.37994 0.17863 0.0
C6854 C 0.62325 0.39356 0.1568 0.0
C6855 C 0.65511 0.35363 0.18301 0.0
C6856 C 0.60648 0.35069 0.18474 0.0
C6857 C 0.60429 0.34018 0.1732 0.0
C6858 C 0.61709 0.36228 0.1833 0.0
C6859 C 0.62614 0.36308 0.17021 0.0
C6860 C 0.62367 0.35272 0.15831 0.0
C6861 C 0.61257 0.3415 0.15986 0.0
C6862 C 0.61905 0.37328 0.19612 0.0
C6863 C 0.63334 0.35291 0.14435 0.0
H6864 H 0.64854 0.41005 0.16121 0.0
H6865 H 0.6746 0.37667 0.18441 0.0
H6866 H 0.61955 0.38542 0.14809 0.0
H6867 H 0.61427 0.39404 0.16546 0.0
H6868 H 0.62434 0.40486 0.15156 0.0
H6869 H 0.66694 0.35156 0.18649 0.0
H6870 H 0.64773 0.35188 0.19292 0.0
H6871 H 0.65194 0.34512 0.17443 0.0
H6872 H 0.59998 0.34973 0.19502 0.0
H6873 H 0.61096 0.33327 0.15099 0.0
H6874 H 0.6193 0.385 0.19181 0.0
H6875 H 0.62993 0.37115 0.20184 0.0
H6876 H 0.6099 0.37233 0.20459 0.0
H6877 H 0.63412 0.36447 0.1397 0.0
H6878 H 0.62895 0.34528 0.13548 0.0
H6879 H 0.64492 0.34931 0.14731 0.0
C6880 C 0.61743 0.66378 0.16196 0.0
C6881 C 0.60566 0.66195 0.17225 0.0
C6882 C 0.62897 0.65297 0.16088 0.0
C6883 C 0.62848 0.63995 0.17013 0.0
C6884 C 0.61599 0.63767 0.17977 0.0
C6885 C 0.60488 0.64884 0.18092 0.0
C6886 C 0.64221 0.65602 0.15071 0.0
C6887 C 0.61481 0.62387 0.18961 0.0
C6888 C 0.6553 0.60682 0.16442 0.0
C6889 C 0.66573 0.60926 0.17602 0.0
C6890 C 0.64325 0.61688 0.16206 0.0
C6891 C 0.64181 0.62979 0.17134 0.0
C6892 C 0.65268 0.63256 0.18266 0.0
C6893 C 0.66437 0.62221 0.18494 0.0
C6894 C 0.63179 0.61344 0.15002 0.0
C6895 C 0.65175 0.64627 0.19267 0.0
H6896 H 0.61812 0.67409 0.15546 0.0
H6897 H 0.59578 0.64755 0.18895 0.0
H6898 H 0.65221 0.6588 0.15766 0.0
H6899 H 0.64504 0.64589 0.144 0.0
H6900 H 0.64004 0.66556 0.14292 0.0
H6901 H 0.60351 0.62278 0.19484 0.0
H6902 H 0.61718 0.61356 0.18298 0.0
H6903 H 0.62332 0.6245 0.19873 0.0
H6904 H 0.65627 0.59682 0.15751 0.0
H6905 H 0.67242 0.62426 0.19386 0.0
H6906 H 0.63024 0.62332 0.14255 0.0
H6907 H 0.62075 0.61105 0.15534 0.0
H6908 H 0.63508 0.60359 0.14305 0.0
H6909 H 0.65071 0.65662 0.18576 0.0
H6910 H 0.66176 0.64742 0.20008 0.0
H6911 H 0.64158 0.64555 0.19987 0.0
C6912 C 0.39757 0.65368 0.16545 0.0
C6913 C 0.39352 0.66677 0.17327 0.0
C6914 C 0.38734 0.64165 0.16393 0.0
C6915 C 0.37263 0.64301 0.16994 0.0
C6916 C 0.36829 0.65658 0.17708 0.0
C6917 C 0.37886 0.66815 0.1789 0.0
C6918 C 0.39253 0.62723 0.15661 0.0
C6919 C 0.35261 0.65872 0.18328 0.0
C6920 C 0.34068 0.61619 0.15982 0.0
C6921 C 0.33948 0.6078 0.17311 0.0
C6922 C 0.35178 0.62741 0.15832 0.0
C6923 C 0.36214 0.62989 0.17022 0.0
C6924 C 0.36147 0.62074 0.18325 0.0
C6925 C 0.34998 0.61002 0.18464 0.0
C6926 C 0.35184 0.63718 0.14444 0.0
C6927 C 0.3725 0.62269 0.19604 0.0
H6928 H 0.40892 0.65257 0.16114 0.0
H6929 H 0.37561 0.67828 0.18481 0.0
H6930 H 0.39314 0.6182 0.16521 0.0
H6931 H 0.38436 0.62354 0.14793 0.0
H6932 H 0.40378 0.62843 0.15129 0.0
H6933 H 0.3505 0.67053 0.18683 0.0
H6934 H 0.34408 0.65554 0.17473 0.0
H6935 H 0.35096 0.65129 0.19318 0.0
H6936 H 0.33245 0.61454 0.15096 0.0
H6937 H 0.34911 0.60343 0.19488 0.0
H6938 H 0.36336 0.63806 0.13973 0.0
H6939 H 0.34819 0.64873 0.14751 0.0
H6940 H 0.34418 0.63282 0.13558 0.0
H6941 H 0.38419 0.62306 0.19168 0.0
H6942 H 0.37164 0.61348 0.20445 0.0
H6943 H 0.37031 0.63353 0.20184 0.0
C6944 C 0.39709 0.34707 0.1649 0.0
C6945 C 0.39277 0.33418 0.1729 0.0
C6946 C 0.38737 0.35954 0.16376 0.0
C6947 C 0.37285 0.35884 0.17033 0.0
C6948 C 0.3682 0.34548 0.17768 0.0
C6949 C 0.37831 0.33345 0.17912 0.0
C6950 C 0.39292 0.37371 0.15622 0.0
C6951 C 0.35267 0.34404 0.18443 0.0
C6952 C 0.3521 0.39317 0.18498 0.0
C6953 C 0.34165 0.39584 0.17351 0.0
C6954 C 0.36294 0.38177 0.18361 0.0
C6955 C 0.3629 0.37238 0.17072 0.0
C6956 C 0.35249 0.37522 0.15895 0.0
C6957 C 0.34212 0.38712 0.16039 0.0
C6958 C 0.3741 0.37946 0.19622 0.0
C6959 C 0.35173 0.36517 0.14528 0.0
H6960 H 0.40832 0.34766 0.16017 0.0
H6961 H 0.37489 0.32345 0.18518 0.0
H6962 H 0.38473 0.3776 0.14765 0.0
H6963 H 0.39397 0.3828 0.16473 0.0
H6964 H 0.40403 0.37209 0.15072 0.0
H6965 H 0.35021 0.33236 0.18815 0.0
H6966 H 0.35165 0.35162 0.1943 0.0
H6967 H 0.34399 0.34751 0.17614 0.0
H6968 H 0.35172 0.39997 0.19511 0.0
H6969 H 0.33387 0.38908 0.15162 0.0
H6970 H 0.38568 0.3785 0.19165 0.0
H6971 H 0.37154 0.3688 0.20219 0.0
H6972 H 0.37382 0.3888 0.20453 0.0
H6973 H 0.36304 0.36383 0.14019 0.0
H6974 H 0.3439 0.36961 0.1366 0.0
H6975 H 0.34784 0.35381 0.1487 0.0
C6976 C 0.81385 0.65099 0.60619 0.0
C6977 C 0.82562 0.66073 0.60239 0.0
C6978 C 0.81547 0.64038 0.61778 0.0
C6979 C 0.82901 0.63989 0.62619 0.0
C6980 C 0.84106 0.64956 0.6222 0.0
C6981 C 0.8393 0.65972 0.61015 0.0
C6982 C 0.80247 0.63002 0.62134 0.0
C6983 C 0.85548 0.64977 0.63116 0.0
C6984 C 0.82283 0.62565 0.66599 0.0
C6985 C 0.82814 0.61083 0.6651 0.0
C6986 C 0.8239 0.63547 0.65367 0.0
C6987 C 0.8299 0.63018 0.63988 0.0
C6988 C 0.83558 0.61528 0.639 0.0
C6989 C 0.83486 0.60585 0.65173 0.0
C6990 C 0.81815 0.65139 0.65529 0.0
C6991 C 0.84168 0.60906 0.62442 0.0
H6992 H 0.80328 0.65175 0.60014 0.0
H6993 H 0.84834 0.66741 0.60732 0.0
H6994 H 0.80645 0.61821 0.62218 0.0
H6995 H 0.79754 0.63311 0.63238 0.0
H6996 H 0.79346 0.63061 0.61269 0.0
H6997 H 0.8642 0.65703 0.62591 0.0
H6998 H 0.85316 0.65403 0.64266 0.0
H6999 H 0.86006 0.63822 0.63235 0.0
H7000 H 0.81775 0.62959 0.67635 0.0
H7001 H 0.83888 0.59435 0.651 0.0
H7002 H 0.8078 0.65284 0.64848 0.0
H7003 H 0.82661 0.65951 0.65101 0.0
H7004 H 0.8155 0.65426 0.66717 0.0
H7005 H 0.83245 0.60835 0.61604 0.0
H7006 H 0.84666 0.59768 0.62586 0.0
H7007 H 0.85036 0.61668 0.61972 0.0
C7008 C 0.35218 0.83818 0.60603 0.0
C7009 C 0.33951 0.82965 0.60993 0.0
C7010 C 0.36449 0.83942 0.61594 0.0
C7011 C 0.36385 0.83233 0.63021 0.0
C7012 C 0.35068 0.82444 0.63448 0.0
C7013 C 0.3388 0.82298 0.62419 0.0
C7014 C 0.37844 0.84763 0.61083 0.0
C7015 C 0.34932 0.81706 0.64974 0.0
C7016 C 0.39831 0.81745 0.65042 0.0
C7017 C 0.40055 0.82833 0.66159 0.0
C7018 C 0.38702 0.81917 0.63954 0.0
C7019 C 0.37734 0.83182 0.64019 0.0
C7020 C 0.37982 0.84307 0.65124 0.0
C7021 C 0.39159 0.8413 0.66171 0.0
C7022 C 0.38506 0.80708 0.62774 0.0
C7023 C 0.36951 0.8565 0.65258 0.0
H7024 H 0.35276 0.84331 0.59497 0.0
H7025 H 0.32894 0.81654 0.62733 0.0
H7026 H 0.38205 0.8559 0.61945 0.0
H7027 H 0.38777 0.83945 0.6094 0.0
H7028 H 0.3767 0.85361 0.59999 0.0
H7029 H 0.33774 0.81291 0.65196 0.0
H7030 H 0.35717 0.80738 0.65043 0.0
H7031 H 0.35249 0.82511 0.65875 0.0
H7032 H 0.4053 0.80744 0.65034 0.0
H7033 H 0.39322 0.8496 0.6705 0.0
H7034 H 0.38407 0.81221 0.6164 0.0
H7035 H 0.37452 0.80076 0.62993 0.0
H7036 H 0.39457 0.79897 0.62766 0.0
H7037 H 0.36793 0.86196 0.64148 0.0
H7038 H 0.37385 0.86498 0.66068 0.0
H7039 H 0.35827 0.85269 0.65648 0.0
C7040 C 0.16171 0.34419 0.60984 0.0
C7041 C 0.17557 0.34325 0.60239 0.0
C7042 C 0.15971 0.35414 0.62202 0.0
C7043 C 0.17173 0.36365 0.62648 0.0
C7044 C 0.18545 0.36328 0.61836 0.0
C7045 C 0.18728 0.35289 0.60662 0.0
C7046 C 0.14509 0.35384 0.63064 0.0
C7047 C 0.19842 0.37347 0.62244 0.0
C7048 C 0.16623 0.39713 0.65279 0.0
C7049 C 0.17289 0.39173 0.66602 0.0
C7050 C 0.16527 0.38798 0.63988 0.0
C7051 C 0.17066 0.37296 0.64043 0.0
C7052 C 0.17646 0.36722 0.65413 0.0
C7053 C 0.17777 0.37675 0.66664 0.0
C7054 C 0.15937 0.39466 0.62542 0.0
C7055 C 0.18189 0.35116 0.6554 0.0
H7056 H 0.15271 0.33658 0.60668 0.0
H7057 H 0.19799 0.35218 0.6008 0.0
H7058 H 0.14709 0.34905 0.64201 0.0
H7059 H 0.14068 0.36541 0.63223 0.0
H7060 H 0.13638 0.34695 0.6249 0.0
H7061 H 0.20759 0.37306 0.61395 0.0
H7062 H 0.1945 0.38527 0.62353 0.0
H7063 H 0.20313 0.37005 0.63349 0.0
H7064 H 0.16257 0.40876 0.65228 0.0
H7065 H 0.18282 0.37251 0.67689 0.0
H7066 H 0.15086 0.38713 0.62026 0.0
H7067 H 0.16875 0.39579 0.61726 0.0
H7068 H 0.15425 0.40593 0.62719 0.0
H7069 H 0.17341 0.3433 0.6507 0.0
H7070 H 0.18424 0.34791 0.66725 0.0
H7071 H 0.19238 0.34974 0.64879 0.0
C7072 C 0.66435 0.17943 0.62705 0.0
C7073 C 0.66418 0.1732 0.61257 0.0
C7074 C 0.65214 0.17754 0.63688 0.0
C7075 C 0.63922 0.16962 0.63195 0.0
C7076 C 0.63914 0.16295 0.61746 0.0
C7077 C 0.65175 0.16464 0.608 0.0
C7078 C 0.65289 0.18451 0.65237 0.0
C7079 C 0.62548 0.15472 0.61165 0.0
C7080 C 0.61057 0.15971 0.66234 0.0
C7081 C 0.60153 0.17262 0.66225 0.0
C7082 C 0.62263 0.15823 0.65216 0.0
C7083 C 0.62537 0.16975 0.64145 0.0
C7084 C 0.6156 0.18233 0.64077 0.0
C7085 C 0.60398 0.18373 0.65135 0.0
C7086 C 0.633 0.14485 0.65351 0.0
C7087 C 0.61782 0.1947 0.62932 0.0
H7088 H 0.674 0.18591 0.6307 0.0
H7089 H 0.65158 0.15985 0.59678 0.0
H7090 H 0.6449 0.19408 0.65306 0.0
H7091 H 0.64952 0.17618 0.66105 0.0
H7092 H 0.66433 0.18872 0.65511 0.0
H7093 H 0.62769 0.149 0.60075 0.0
H7094 H 0.62162 0.14624 0.61994 0.0
H7095 H 0.61613 0.16285 0.61003 0.0
H7096 H 0.60878 0.15124 0.67094 0.0
H7097 H 0.59694 0.1937 0.65129 0.0
H7098 H 0.64403 0.14861 0.65797 0.0
H7099 H 0.63507 0.13974 0.64231 0.0
H7100 H 0.6284 0.1361 0.66116 0.0
H7101 H 0.62821 0.20108 0.63202 0.0
H7102 H 0.60823 0.20271 0.62911 0.0
H7103 H 0.61925 0.18985 0.6179 0.0
C7104 C 0.83995 0.33911 0.38874 0.0
C7105 C 0.82716 0.33923 0.39794 0.0
C7106 C 0.8414 0.34942 0.37679 0.0
C7107 C 0.83 0.36034 0.37437 0.0
C7108 C 0.81751 0.36097 0.38425 0.0
C7109 C 0.81609 0.3502 0.39571 0.0
C7110 C 0.85462 0.34803 0.36624 0.0
C7111 C 0.80532 0.37267 0.38239 0.0
C7112 C 0.83656 0.39415 0.34873 0.0
C7113 C 0.828 0.39016 0.3361 0.0
C7114 C 0.83759 0.38445 0.36123 0.0
C7115 C 0.83032 0.37026 0.36081 0.0
C7116 C 0.82232 0.36592 0.34772 0.0
C7117 C 0.82103 0.37603 0.33566 0.0
C7118 C 0.84585 0.38968 0.37512 0.0
C7119 C 0.8148 0.35072 0.34657 0.0
H7120 H 0.84837 0.33043 0.39036 0.0
H7121 H 0.80619 0.35023 0.40285 0.0
H7122 H 0.8506 0.34426 0.35503 0.0
H7123 H 0.86015 0.3591 0.36465 0.0
H7124 H 0.86311 0.33984 0.37037 0.0
H7125 H 0.79738 0.37279 0.39204 0.0
H7126 H 0.81036 0.38404 0.3812 0.0
H7127 H 0.79883 0.37035 0.37198 0.0
H7128 H 0.84189 0.40511 0.34911 0.0
H7129 H 0.81453 0.37285 0.32585 0.0
H7130 H 0.85427 0.38117 0.37865 0.0
H7131 H 0.83775 0.39099 0.38453 0.0
H7132 H 0.85168 0.4006 0.37333 0.0
H7133 H 0.8228 0.34167 0.34972 0.0
H7134 H 0.81049 0.34843 0.33506 0.0
H7135 H 0.80521 0.35017 0.35455 0.0
C7136 C 0.66639 0.82508 0.37682 0.0
C7137 C 0.66491 0.83049 0.39155 0.0
C7138 C 0.65466 0.8265 0.36637 0.0
C7139 C 0.64081 0.83292 0.37092 0.0
C7140 C 0.63936 0.83878 0.38571 0.0
C7141 C 0.65156 0.83773 0.39579 0.0
C7142 C 0.65693 0.82055 0.3506 0.0
C7143 C 0.62467 0.84532 0.39115 0.0
C7144 C 0.61289 0.84197 0.3396 0.0
C7145 C 0.60515 0.82829 0.3384 0.0
C7146 C 0.62427 0.8439 0.35046 0.0
C7147 C 0.62758 0.83203 0.36061 0.0
C7148 C 0.61911 0.81853 0.35993 0.0
C7149 C 0.60823 0.81672 0.34864 0.0
C7150 C 0.63333 0.85825 0.35048 0.0
C7151 C 0.62193 0.80574 0.37076 0.0
H7152 H 0.67671 0.81955 0.37347 0.0
H7153 H 0.65037 0.8418 0.40723 0.0
H7154 H 0.65011 0.81022 0.34899 0.0
H7155 H 0.65308 0.82893 0.34218 0.0
H7156 H 0.66889 0.81776 0.34829 0.0
H7157 H 0.62578 0.85072 0.40237 0.0
H7158 H 0.62033 0.85374 0.38303 0.0
H7159 H 0.61615 0.83621 0.39195 0.0
H7160 H 0.61059 0.85085 0.33156 0.0
H7161 H 0.60215 0.80617 0.34775 0.0
H7162 H 0.64497 0.85579 0.34668 0.0
H7163 H 0.63412 0.86294 0.36202 0.0
H7164 H 0.62844 0.86693 0.34293 0.0
H7165 H 0.63302 0.80055 0.36834 0.0
H7166 H 0.61317 0.79686 0.36996 0.0
H7167 H 0.62227 0.80999 0.3825 0.0
C7168 C 0.18567 0.65182 0.39438 0.0
C7169 C 0.17461 0.6626 0.39751 0.0
C7170 C 0.18348 0.64087 0.38322 0.0
C7171 C 0.1701 0.64102 0.37455 0.0
C7172 C 0.15865 0.6516 0.37801 0.0
C7173 C 0.16096 0.66217 0.38963 0.0
C7174 C 0.19585 0.62961 0.38022 0.0
C7175 C 0.1444 0.65241 0.36883 0.0
C7176 C 0.17737 0.62614 0.33523 0.0
C7177 C 0.17177 0.61143 0.33609 0.0
C7178 C 0.17589 0.6362 0.34731 0.0
C7179 C 0.16909 0.63128 0.36086 0.0
C7180 C 0.16292 0.61658 0.36163 0.0
C7181 C 0.16414 0.60687 0.34912 0.0
C7182 C 0.18227 0.65188 0.34579 0.0
C7183 C 0.15585 0.61078 0.37594 0.0
H7184 H 0.19621 0.65213 0.40053 0.0
H7185 H 0.15248 0.67064 0.39194 0.0
H7186 H 0.19114 0.61807 0.3794 0.0
H7187 H 0.20132 0.63221 0.3693 0.0
H7188 H 0.20461 0.62974 0.38914 0.0
H7189 H 0.13584 0.65986 0.37409 0.0
H7190 H 0.14706 0.65686 0.35747 0.0
H7191 H 0.13947 0.64105 0.36731 0.0
H7192 H 0.18315 0.62978 0.32514 0.0
H7193 H 0.15987 0.59547 0.34984 0.0
H7194 H 0.19246 0.65297 0.35292 0.0
H7195 H 0.174 0.66036 0.34974 0.0
H7196 H 0.18542 0.65456 0.33398 0.0
H7197 H 0.16473 0.60922 0.38458 0.0
H7198 H 0.15003 0.59985 0.37421 0.0
H7199 H 0.14767 0.61905 0.38046 0.0
C7200 C 0.3497 0.16369 0.3995 0.0
C7201 C 0.33674 0.17154 0.39513 0.0
C7202 C 0.36215 0.16253 0.38975 0.0
C7203 C 0.36137 0.16896 0.37516 0.0
C7204 C 0.34792 0.17609 0.37045 0.0
C7205 C 0.3359 0.17752 0.38057 0.0
C7206 C 0.37639 0.15516 0.39534 0.0
C7207 C 0.34639 0.18273 0.35487 0.0
C7208 C 0.39505 0.18475 0.35436 0.0
C7209 C 0.39779 0.17362 0.34356 0.0
C7210 C 0.38395 0.18283 0.3654 0.0
C7211 C 0.37494 0.16968 0.36528 0.0
C7212 C 0.37799 0.15816 0.35466 0.0
C7213 C 0.38957 0.16018 0.34402 0.0
C7214 C 0.38139 0.19524 0.37674 0.0
C7215 C 0.3684 0.14417 0.35386 0.0
H7216 H 0.35038 0.15911 0.41079 0.0
H7217 H 0.32584 0.18345 0.37708 0.0
H7218 H 0.38056 0.14681 0.38705 0.0
H7219 H 0.38528 0.16383 0.39666 0.0
H7220 H 0.37474 0.14945 0.40634 0.0
H7221 H 0.33466 0.18623 0.35236 0.0
H7222 H 0.35378 0.19274 0.35384 0.0
H7223 H 0.35004 0.17447 0.34625 0.0
H7224 H 0.40146 0.19514 0.35398 0.0
H7225 H 0.39158 0.15167 0.3355 0.0
H7226 H 0.38053 0.1905 0.38826 0.0
H7227 H 0.37062 0.20104 0.37424 0.0
H7228 H 0.39056 0.20374 0.37657 0.0
H7229 H 0.36694 0.13918 0.3652 0.0
H7230 H 0.37329 0.13555 0.34625 0.0
H7231 H 0.35704 0.1472 0.34964 0.0
C7232 C 0.6641 0.84064 0.61382 0.0
C7233 C 0.66376 0.82813 0.60425 0.0
C7234 C 0.65365 0.84206 0.62563 0.0
C7235 C 0.64238 0.83092 0.62754 0.0
C7236 C 0.6415 0.81877 0.61725 0.0
C7237 C 0.65241 0.81736 0.60593 0.0
C7238 C 0.65528 0.85491 0.63662 0.0
C7239 C 0.62944 0.80687 0.61859 0.0
C7240 C 0.62663 0.82104 0.66596 0.0
C7241 C 0.61263 0.82829 0.66579 0.0
C7242 C 0.63669 0.82248 0.65389 0.0
C7243 C 0.63248 0.83099 0.64109 0.0
C7244 C 0.61844 0.83856 0.64095 0.0
C7245 C 0.60875 0.83729 0.65343 0.0
C7246 C 0.65171 0.81454 0.65471 0.0
C7247 C 0.61338 0.84743 0.62739 0.0
H7248 H 0.67308 0.84882 0.61261 0.0
H7249 H 0.65222 0.80768 0.5985 0.0
H7250 H 0.64432 0.86061 0.63837 0.0
H7251 H 0.65895 0.85045 0.64769 0.0
H7252 H 0.66365 0.86337 0.63277 0.0
H7253 H 0.62916 0.79932 0.60863 0.0
H7254 H 0.63152 0.79992 0.62875 0.0
H7255 H 0.61822 0.81219 0.61992 0.0
H7256 H 0.62974 0.81419 0.67554 0.0
H7257 H 0.59789 0.84286 0.65325 0.0
H7258 H 0.66094 0.82246 0.65189 0.0
H7259 H 0.65203 0.80528 0.64633 0.0
H7260 H 0.6539 0.8097 0.66603 0.0
H7261 H 0.62209 0.85575 0.62413 0.0
H7262 H 0.60262 0.85346 0.62942 0.0
H7263 H 0.61185 0.8397 0.61769 0.0
C7264 C 0.6238 0.18154 0.3383 0.0
C7265 C 0.60909 0.17595 0.33923 0.0
C7266 C 0.63395 0.1798 0.35026 0.0
C7267 C 0.6291 0.17282 0.36374 0.0
C7268 C 0.61433 0.16686 0.36464 0.0
C7269 C 0.60456 0.16828 0.35224 0.0
C7270 C 0.64972 0.18592 0.34863 0.0
C7271 C 0.6086 0.15971 0.37893 0.0
C7272 C 0.65985 0.16273 0.39194 0.0
C7273 C 0.66076 0.17608 0.40027 0.0
C7274 C 0.64924 0.16122 0.38025 0.0
C7275 C 0.63909 0.17317 0.37723 0.0
C7276 C 0.63945 0.18627 0.38631 0.0
C7277 C 0.65046 0.18767 0.39752 0.0
C7278 C 0.64952 0.14727 0.37058 0.0
C7279 C 0.62861 0.19912 0.38379 0.0
H7280 H 0.62741 0.18734 0.32822 0.0
H7281 H 0.59316 0.16401 0.35299 0.0
H7282 H 0.65114 0.19589 0.35601 0.0
H7283 H 0.65809 0.17737 0.35221 0.0
H7284 H 0.65226 0.18933 0.33687 0.0
H7285 H 0.59735 0.15447 0.37741 0.0
H7286 H 0.61658 0.151 0.38298 0.0
H7287 H 0.60776 0.1684 0.38786 0.0
H7288 H 0.66796 0.15385 0.39398 0.0
H7289 H 0.65115 0.19796 0.40404 0.0
H7290 H 0.65365 0.15023 0.35917 0.0
H7291 H 0.63802 0.1426 0.36926 0.0
H7292 H 0.65695 0.1384 0.37531 0.0
H7293 H 0.63127 0.2048 0.37299 0.0
H7294 H 0.62915 0.20762 0.39294 0.0
H7295 H 0.61691 0.19484 0.38299 0.0
C7296 C 0.82133 0.60479 0.35153 0.0
C7297 C 0.8321 0.60246 0.34029 0.0
C7298 C 0.82292 0.61645 0.36204 0.0
C7299 C 0.83533 0.62639 0.36093 0.0
C7300 C 0.84655 0.62375 0.34988 0.0
C7301 C 0.84489 0.61164 0.33978 0.0
C7302 C 0.81088 0.61859 0.37384 0.0
C7303 C 0.85974 0.63428 0.34807 0.0
C7304 C 0.82492 0.6653 0.3749 0.0
C7305 C 0.83133 0.6655 0.3893 0.0
C7306 C 0.82706 0.65305 0.36518 0.0
C7307 C 0.83542 0.64042 0.37016 0.0
C7308 C 0.84237 0.64078 0.38452 0.0
C7309 C 0.84041 0.65345 0.39386 0.0
C7310 C 0.81979 0.65337 0.34982 0.0
C7311 C 0.85111 0.62744 0.39037 0.0
H7312 H 0.81145 0.59763 0.35192 0.0
H7313 H 0.85312 0.60993 0.33093 0.0
H7314 H 0.81604 0.62029 0.38508 0.0
H7315 H 0.80419 0.6288 0.37119 0.0
H7316 H 0.80309 0.60883 0.37444 0.0
H7317 H 0.86842 0.62963 0.34037 0.0
H7318 H 0.85572 0.64515 0.34339 0.0
H7319 H 0.86501 0.63671 0.35911 0.0
H7320 H 0.81802 0.67466 0.37126 0.0
H7321 H 0.84532 0.65357 0.40503 0.0
H7322 H 0.81034 0.64521 0.34949 0.0
H7323 H 0.82799 0.64997 0.34104 0.0
H7324 H 0.81531 0.66469 0.34695 0.0
H7325 H 0.84324 0.61801 0.3926 0.0
H7326 H 0.85722 0.6301 0.40095 0.0
H7327 H 0.85932 0.62348 0.38185 0.0
C7328 C 0.39629 0.84096 0.3488 0.0
C7329 C 0.39219 0.83321 0.3357 0.0
C7330 C 0.38638 0.84181 0.36115 0.0
C7331 C 0.37191 0.83516 0.36011 0.0
C7332 C 0.36743 0.82821 0.34648 0.0
C7333 C 0.37772 0.82707 0.33458 0.0
C7334 C 0.39174 0.84897 0.37558 0.0
C7335 C 0.35197 0.82139 0.34467 0.0
C7336 C 0.35145 0.81841 0.39356 0.0
C7337 C 0.34061 0.8294 0.39666 0.0
C7338 C 0.36231 0.82063 0.38234 0.0
C7339 C 0.36198 0.83395 0.37359 0.0
C7340 C 0.35124 0.84528 0.37692 0.0
C7341 C 0.34079 0.84296 0.38862 0.0
C7342 C 0.37379 0.80842 0.37947 0.0
C7343 C 0.3502 0.85943 0.36759 0.0
H7344 H 0.40753 0.84562 0.3497 0.0
H7345 H 0.37447 0.82117 0.32442 0.0
H7346 H 0.38325 0.85703 0.37991 0.0
H7347 H 0.39323 0.84012 0.38427 0.0
H7348 H 0.40261 0.85496 0.37412 0.0
H7349 H 0.34958 0.81823 0.33281 0.0
H7350 H 0.35106 0.81114 0.35173 0.0
H7351 H 0.3432 0.8294 0.34852 0.0
H7352 H 0.35133 0.80795 0.39985 0.0
H7353 H 0.33228 0.85139 0.39094 0.0
H7354 H 0.38526 0.81332 0.37879 0.0
H7355 H 0.37141 0.8029 0.36853 0.0
H7356 H 0.3737 0.79966 0.3884 0.0
H7357 H 0.36142 0.86473 0.36638 0.0
H7358 H 0.3423 0.86777 0.37253 0.0
H7359 H 0.34622 0.85652 0.35611 0.0
C7360 C 0.162 0.39135 0.33885 0.0
C7361 C 0.17586 0.39878 0.33784 0.0
C7362 C 0.15984 0.37965 0.34933 0.0
C7363 C 0.17168 0.3757 0.35929 0.0
C7364 C 0.18536 0.38387 0.35883 0.0
C7365 C 0.18738 0.39509 0.34792 0.0
C7366 C 0.14527 0.37094 0.34912 0.0
C7367 C 0.19814 0.38035 0.36948 0.0
C7368 C 0.16564 0.35067 0.39365 0.0
C7369 C 0.17246 0.33727 0.38889 0.0
C7370 C 0.16482 0.36323 0.384 0.0
C7371 C 0.17052 0.36213 0.36913 0.0
C7372 C 0.17652 0.34826 0.36404 0.0
C7373 C 0.17767 0.33613 0.37406 0.0
C7374 C 0.15869 0.37789 0.38999 0.0
C7375 C 0.1823 0.34641 0.34816 0.0
H7376 H 0.15317 0.3941 0.3309 0.0
H7377 H 0.19808 0.4009 0.34714 0.0
H7378 H 0.14741 0.35941 0.34482 0.0
H7379 H 0.14066 0.3698 0.36066 0.0
H7380 H 0.13666 0.37636 0.34185 0.0
H7381 H 0.20723 0.38891 0.36892 0.0
H7382 H 0.19395 0.3797 0.38123 0.0
H7383 H 0.20303 0.36922 0.36662 0.0
H7384 H 0.16171 0.35159 0.40517 0.0
H7385 H 0.18284 0.32575 0.3703 0.0
H7386 H 0.1503 0.38269 0.3821 0.0
H7387 H 0.168 0.38616 0.39099 0.0
H7388 H 0.15337 0.37653 0.40122 0.0
H7389 H 0.17394 0.35072 0.33995 0.0
H7390 H 0.18482 0.33446 0.34542 0.0
H7391 H 0.19276 0.35306 0.34671 0.0
C7392 C 0.3743 0.18014 0.66751 0.0
C7393 C 0.38838 0.17308 0.66703 0.0
C7394 C 0.36389 0.17839 0.65578 0.0
C7395 C 0.36784 0.16976 0.64297 0.0
C7396 C 0.38195 0.16235 0.64254 0.0
C7397 C 0.39199 0.16391 0.6547 0.0
C7398 C 0.34882 0.18618 0.65692 0.0
C7399 C 0.38673 0.15336 0.62894 0.0
C7400 C 0.33548 0.16021 0.61647 0.0
C7401 C 0.33561 0.17278 0.60697 0.0
C7402 C 0.3463 0.15868 0.62796 0.0
C7403 C 0.35766 0.16977 0.62961 0.0
C7404 C 0.35832 0.18193 0.61933 0.0
C7405 C 0.34711 0.18344 0.60834 0.0
C7406 C 0.34494 0.14578 0.63891 0.0
C7407 C 0.37044 0.1938 0.6204 0.0
H7408 H 0.37138 0.18711 0.67707 0.0
H7409 H 0.40291 0.15848 0.65429 0.0
H7410 H 0.34822 0.19542 0.64855 0.0
H7411 H 0.33959 0.17817 0.65433 0.0
H7412 H 0.34684 0.19101 0.66828 0.0
H7413 H 0.39748 0.14727 0.63084 0.0
H7414 H 0.37792 0.14509 0.62584 0.0
H7415 H 0.38818 0.16104 0.6192 0.0
H7416 H 0.32642 0.1521 0.61551 0.0
H7417 H 0.34717 0.19315 0.60094 0.0
H7418 H 0.3413 0.15017 0.65003 0.0
H7419 H 0.35599 0.14022 0.64056 0.0
H7420 H 0.33665 0.13724 0.63511 0.0
H7421 H 0.36859 0.20078 0.63058 0.0
H7422 H 0.37054 0.20134 0.61042 0.0
H7423 H 0.38168 0.18846 0.62149 0.0
C7424 C 0.8412 0.3899 0.66277 0.0
C7425 C 0.82766 0.39798 0.66313 0.0
C7426 C 0.84338 0.37819 0.65229 0.0
C7427 C 0.83193 0.37485 0.64168 0.0
C7428 C 0.81861 0.38362 0.64153 0.0
C7429 C 0.81654 0.39486 0.65242 0.0
C7430 C 0.85753 0.36885 0.65314 0.0
C7431 C 0.80626 0.38076 0.6302 0.0
C7432 C 0.8386 0.35 0.60723 0.0
C7433 C 0.83096 0.33685 0.61143 0.0
C7434 C 0.83949 0.36238 0.61713 0.0
C7435 C 0.83302 0.36135 0.63169 0.0
C7436 C 0.82616 0.3477 0.63624 0.0
C7437 C 0.82498 0.33576 0.62597 0.0
C7438 C 0.84655 0.37683 0.61169 0.0
C7439 C 0.81951 0.34588 0.65178 0.0
H7440 H 0.84974 0.39221 0.67118 0.0
H7441 H 0.80609 0.40116 0.65267 0.0
H7442 H 0.85467 0.35735 0.65711 0.0
H7443 H 0.86271 0.36768 0.64185 0.0
H7444 H 0.86595 0.37377 0.66097 0.0
H7445 H 0.7975 0.38969 0.63042 0.0
H7446 H 0.81101 0.3801 0.61867 0.0
H7447 H 0.80079 0.36981 0.63263 0.0
H7448 H 0.84314 0.3509 0.59595 0.0
H7449 H 0.81918 0.32557 0.62931 0.0
H7450 H 0.85473 0.38114 0.62006 0.0
H7451 H 0.83768 0.38552 0.61035 0.0
H7452 H 0.85238 0.37538 0.60072 0.0
H7453 H 0.82762 0.34972 0.66047 0.0
H7454 H 0.81636 0.33402 0.6542 0.0
H7455 H 0.80928 0.35296 0.65281 0.0
C7456 C 0.16307 0.61102 0.65825 0.0
C7457 C 0.17649 0.60277 0.65866 0.0
C7458 C 0.16122 0.62295 0.64797 0.0
C7459 C 0.17289 0.62632 0.63761 0.0
C7460 C 0.18604 0.6173 0.63742 0.0
C7461 C 0.1878 0.60585 0.64814 0.0
C7462 C 0.14723 0.63253 0.64887 0.0
C7463 C 0.19859 0.62019 0.62634 0.0
C7464 C 0.16689 0.65251 0.6041 0.0
C7465 C 0.1745 0.66546 0.60891 0.0
C7466 C 0.16588 0.63973 0.61344 0.0
C7467 C 0.17223 0.64014 0.62807 0.0
C7468 C 0.17918 0.65353 0.63323 0.0
C7469 C 0.18046 0.6659 0.62351 0.0
C7470 C 0.1587 0.62558 0.60739 0.0
C7471 C 0.18573 0.65465 0.64888 0.0
H7472 H 0.15443 0.60877 0.66657 0.0
H7473 H 0.19817 0.59943 0.64849 0.0
H7474 H 0.15023 0.6438 0.65336 0.0
H7475 H 0.14233 0.63425 0.63752 0.0
H7476 H 0.13854 0.62749 0.6563 0.0
H7477 H 0.20711 0.61104 0.62638 0.0
H7478 H 0.19402 0.62136 0.61478 0.0
H7479 H 0.20432 0.63091 0.62921 0.0
H7480 H 0.16234 0.65212 0.59278 0.0
H7481 H 0.18622 0.67593 0.62735 0.0
H7482 H 0.1502 0.62122 0.61541 0.0
H7483 H 0.16742 0.61674 0.60607 0.0
H7484 H 0.15321 0.62744 0.59631 0.0
H7485 H 0.17742 0.65076 0.65735 0.0
H7486 H 0.18919 0.66632 0.65173 0.0
H7487 H 0.19573 0.64724 0.64979 0.0
loop_
_geom_bond_atom_site_label_1
_geom_bond_atom_site_label_2
_geom_bond_distance
_geom_bond_site_symmetry_2
_ccdc_geom_bond_type
Co0 O1 2.216 . S
Co0 O2 2.091 . S
Co0 O4 2.004 . S
Co0 O10 2.021 . S
Co0 O12 2.137 . S
Co0 O13 2.244 . S
O1 Co0 2.216 . S
O1 C8 1.247 . S
O2 Co0 2.091 . S
O2 C8 1.261 . S
C3 O12 1.247 . S
C3 O13 1.272 . S
O4 Co0 2.004 . S
O4 C9 1.259 . S
Co5 O6 2.061 . S
Co5 O11 2.052 . S
Co5 O13 2.135 . S
O6 Co5 2.061 . S
O6 C9 1.235 . S
C7 O10 1.238 . S
C7 O11 1.241 . S
C8 O1 1.247 . S
C8 O2 1.261 . S
C9 O4 1.259 . S
C9 O6 1.235 . S
O10 Co0 2.021 . S
O10 C7 1.238 . S
O11 Co5 2.052 . S
O11 C7 1.241 . S
O12 Co0 2.137 . S
O12 C3 1.247 . S
O13 Co0 2.244 . S
O13 C3 1.272 . S
O13 Co5 2.135 . S
Co14 O15 2.216 . S
Co14 O16 2.091 . S
Co14 O18 2.004 . S
Co14 O24 2.021 . S
Co14 O26 2.137 . S
Co14 O27 2.244 . S
O15 Co14 2.216 . S
O15 C22 1.247 . S
O16 Co14 2.091 . S
O16 C22 1.261 . S
C17 O26 1.247 . S
C17 O27 1.272 . S
O18 Co14 2.004 . S
O18 C23 1.259 . S
Co19 O20 2.061 . S
Co19 O25 2.052 . S
Co19 O27 2.135 . S
O20 Co19 2.061 . S
O20 C23 1.235 . S
C21 O24 1.238 . S
C21 O25 1.241 . S
C22 O15 1.247 . S
C22 O16 1.261 . S
C23 O18 1.259 . S
C23 O20 1.235 . S
O24 Co14 2.021 . S
O24 C21 1.238 . S
O25 Co19 2.052 . S
O25 C21 1.241 . S
O26 Co14 2.137 . S
O26 C17 1.247 . S
O27 Co14 2.244 . S
O27 C17 1.272 . S
O27 Co19 2.135 . S
Co28 O29 2.216 . S
Co28 O30 2.091 . S
Co28 O32 2.004 . S
Co28 O38 2.021 . S
Co28 O40 2.137 . S
Co28 O41 2.244 . S
O29 Co28 2.216 . S
O29 C36 1.247 . S
O30 Co28 2.091 . S
O30 C36 1.261 . S
C31 O40 1.247 . S
C31 O41 1.272 . S
O32 Co28 2.004 . S
O32 C37 1.259 . S
Co33 O34 2.061 . S
Co33 O39 2.052 . S
Co33 O41 2.135 . S
O34 Co33 2.061 . S
O34 C37 1.235 . S
C35 O38 1.238 . S
C35 O39 1.241 . S
C36 O29 1.247 . S
C36 O30 1.261 . S
C37 O32 1.259 . S
C37 O34 1.235 . S
O38 Co28 2.021 . S
O38 C35 1.238 . S
O39 Co33 2.052 . S
O39 C35 1.241 . S
O40 Co28 2.137 . S
O40 C31 1.247 . S
O41 Co28 2.244 . S
O41 C31 1.272 . S
O41 Co33 2.135 . S
Co42 O43 2.216 . S
Co42 O44 2.091 . S
Co42 O46 2.004 . S
Co42 O52 2.021 . S
Co42 O54 2.137 . S
Co42 O55 2.244 . S
O43 Co42 2.216 . S
O43 C50 1.247 . S
O44 Co42 2.091 . S
O44 C50 1.261 . S
C45 O54 1.247 . S
C45 O55 1.272 . S
O46 Co42 2.004 . S
O46 C51 1.259 . S
Co47 O48 2.061 . S
Co47 O53 2.052 . S
Co47 O55 2.135 . S
O48 Co47 2.061 . S
O48 C51 1.235 . S
C49 O52 1.238 . S
C49 O53 1.241 . S
C50 O43 1.247 . S
C50 O44 1.261 . S
C51 O46 1.259 . S
C51 O48 1.235 . S
O52 Co42 2.021 . S
O52 C49 1.238 . S
O53 Co47 2.052 . S
O53 C49 1.241 . S
O54 Co42 2.137 . S
O54 C45 1.247 . S
O55 Co42 2.244 . S
O55 C45 1.272 . S
O55 Co47 2.135 . S
Co56 O57 2.216 . S
Co56 O58 2.091 . S
Co56 O60 2.004 . S
Co56 O66 2.021 . S
Co56 O68 2.137 . S
Co56 O69 2.244 . S
O57 Co56 2.216 . S
O57 C64 1.247 . S
O58 Co56 2.091 . S
O58 C64 1.261 . S
C59 O68 1.247 . S
C59 O69 1.272 . S
O60 Co56 2.004 . S
O60 C65 1.259 . S
Co61 O62 2.061 . S
Co61 O67 2.052 . S
Co61 O69 2.135 . S
O62 Co61 2.061 . S
O62 C65 1.235 . S
C63 O66 1.238 . S
C63 O67 1.241 . S
C64 O57 1.247 . S
C64 O58 1.261 . S
C65 O60 1.259 . S
C65 O62 1.235 . S
O66 Co56 2.021 . S
O66 C63 1.238 . S
O67 Co61 2.052 . S
O67 C63 1.241 . S
O68 Co56 2.137 . S
O68 C59 1.247 . S
O69 Co56 2.244 . S
O69 C59 1.272 . S
O69 Co61 2.135 . S
Co70 O71 2.216 . S
Co70 O72 2.091 . S
Co70 O74 2.004 . S
Co70 O80 2.021 . S
Co70 O82 2.137 . S
Co70 O83 2.244 . S
O71 Co70 2.216 . S
O71 C78 1.247 . S
O72 Co70 2.091 . S
O72 C78 1.261 . S
C73 O82 1.247 . S
C73 O83 1.272 . S
O74 Co70 2.004 . S
O74 C79 1.259 . S
Co75 O76 2.061 . S
Co75 O81 2.052 . S
Co75 O83 2.135 . S
O76 Co75 2.061 . S
O76 C79 1.235 . S
C77 O80 1.238 . S
C77 O81 1.241 . S
C78 O71 1.247 . S
C78 O72 1.261 . S
C79 O74 1.259 . S
C79 O76 1.235 . S
O80 Co70 2.021 . S
O80 C77 1.238 . S
O81 Co75 2.052 . S
O81 C77 1.241 . S
O82 Co70 2.137 . S
O82 C73 1.247 . S
O83 Co70 2.244 . S
O83 C73 1.272 . S
O83 Co75 2.135 . S
Co84 O85 2.216 . S
Co84 O86 2.091 . S
Co84 O88 2.004 . S
Co84 O94 2.021 . S
Co84 O96 2.137 . S
Co84 O97 2.244 . S
O85 Co84 2.216 . S
O85 C92 1.247 . S
O86 Co84 2.091 . S
O86 C92 1.261 . S
C87 O96 1.247 . S
C87 O97 1.272 . S
O88 Co84 2.004 . S
O88 C93 1.259 . S
Co89 O90 2.061 . S
Co89 O95 2.052 . S
Co89 O97 2.135 . S
O90 Co89 2.061 . S
O90 C93 1.235 . S
C91 O94 1.238 . S
C91 O95 1.241 . S
C92 O85 1.247 . S
C92 O86 1.261 . S
C93 O88 1.259 . S
C93 O90 1.235 . S
O94 Co84 2.021 . S
O94 C91 1.238 . S
O95 Co89 2.052 . S
O95 C91 1.241 . S
O96 Co84 2.137 . S
O96 C87 1.247 . S
O97 Co84 2.244 . S
O97 C87 1.272 . S
O97 Co89 2.135 . S
Co98 O99 2.216 . S
Co98 O100 2.091 . S
Co98 O102 2.004 . S
Co98 O108 2.021 . S
Co98 O110 2.137 . S
Co98 O111 2.244 . S
O99 Co98 2.216 . S
O99 C106 1.247 . S
O100 Co98 2.091 . S
O100 C106 1.261 . S
C101 O110 1.247 . S
C101 O111 1.272 . S
O102 Co98 2.004 . S
O102 C107 1.259 . S
Co103 O104 2.061 . S
Co103 O109 2.052 . S
Co103 O111 2.135 . S
O104 Co103 2.061 . S
O104 C107 1.235 . S
C105 O108 1.238 . S
C105 O109 1.241 . S
C106 O99 1.247 . S
C106 O100 1.261 . S
C107 O102 1.259 . S
C107 O104 1.235 . S
O108 Co98 2.021 . S
O108 C105 1.238 . S
O109 Co103 2.052 . S
O109 C105 1.241 . S
O110 Co98 2.137 . S
O110 C101 1.247 . S
O111 Co98 2.244 . S
O111 C101 1.272 . S
O111 Co103 2.135 . S
Co112 O113 2.216 . S
Co112 O114 2.091 . S
Co112 O116 2.004 . S
Co112 O122 2.021 . S
Co112 O124 2.137 . S
Co112 O125 2.244 . S
O113 Co112 2.216 . S
O113 C120 1.247 . S
O114 Co112 2.091 . S
O114 C120 1.261 . S
C115 O124 1.247 . S
C115 O125 1.272 . S
O116 Co112 2.004 . S
O116 C121 1.259 . S
Co117 O118 2.061 . S
Co117 O123 2.052 . S
Co117 O125 2.135 . S
O118 Co117 2.061 . S
O118 C121 1.235 . S
C119 O122 1.238 . S
C119 O123 1.241 . S
C120 O113 1.247 . S
C120 O114 1.261 . S
C121 O116 1.259 . S
C121 O118 1.235 . S
O122 Co112 2.021 . S
O122 C119 1.238 . S
O123 Co117 2.052 . S
O123 C119 1.241 . S
O124 Co112 2.137 . S
O124 C115 1.247 . S
O125 Co112 2.244 . S
O125 C115 1.272 . S
O125 Co117 2.135 . S
Co126 O127 2.216 . S
Co126 O128 2.091 . S
Co126 O130 2.004 . S
Co126 O136 2.021 . S
Co126 O138 2.137 . S
Co126 O139 2.244 . S
O127 Co126 2.216 . S
O127 C134 1.247 . S
O128 Co126 2.091 . S
O128 C134 1.261 . S
C129 O138 1.247 . S
C129 O139 1.272 . S
O130 Co126 2.004 . S
O130 C135 1.259 . S
Co131 O132 2.061 . S
Co131 O137 2.052 . S
Co131 O139 2.135 . S
O132 Co131 2.061 . S
O132 C135 1.235 . S
C133 O136 1.238 . S
C133 O137 1.241 . S
C134 O127 1.247 . S
C134 O128 1.261 . S
C135 O130 1.259 . S
C135 O132 1.235 . S
O136 Co126 2.021 . S
O136 C133 1.238 . S
O137 Co131 2.052 . S
O137 C133 1.241 . S
O138 Co126 2.137 . S
O138 C129 1.247 . S
O139 Co126 2.244 . S
O139 C129 1.272 . S
O139 Co131 2.135 . S
Co140 O141 2.216 . S
Co140 O142 2.091 . S
Co140 O144 2.004 . S
Co140 O150 2.021 . S
Co140 O152 2.137 . S
Co140 O153 2.244 . S
O141 Co140 2.216 . S
O141 C148 1.247 . S
O142 Co140 2.091 . S
O142 C148 1.261 . S
C143 O152 1.247 . S
C143 O153 1.272 . S
O144 Co140 2.004 . S
O144 C149 1.259 . S
Co145 O146 2.061 . S
Co145 O151 2.052 . S
Co145 O153 2.135 . S
O146 Co145 2.061 . S
O146 C149 1.235 . S
C147 O150 1.238 . S
C147 O151 1.241 . S
C148 O141 1.247 . S
C148 O142 1.261 . S
C149 O144 1.259 . S
C149 O146 1.235 . S
O150 Co140 2.021 . S
O150 C147 1.238 . S
O151 Co145 2.052 . S
O151 C147 1.241 . S
O152 Co140 2.137 . S
O152 C143 1.247 . S
O153 Co140 2.244 . S
O153 C143 1.272 . S
O153 Co145 2.135 . S
Co154 O155 2.216 . S
Co154 O156 2.091 . S
Co154 O158 2.004 . S
Co154 O164 2.021 . S
Co154 O166 2.137 . S
Co154 O167 2.244 . S
O155 Co154 2.216 . S
O155 C162 1.247 . S
O156 Co154 2.091 . S
O156 C162 1.261 . S
C157 O166 1.247 . S
C157 O167 1.272 . S
O158 Co154 2.004 . S
O158 C163 1.259 . S
Co159 O160 2.061 . S
Co159 O165 2.052 . S
Co159 O167 2.135 . S
O160 Co159 2.061 . S
O160 C163 1.235 . S
C161 O164 1.238 . S
C161 O165 1.241 . S
C162 O155 1.247 . S
C162 O156 1.261 . S
C163 O158 1.259 . S
C163 O160 1.235 . S
O164 Co154 2.021 . S
O164 C161 1.238 . S
O165 Co159 2.052 . S
O165 C161 1.241 . S
O166 Co154 2.137 . S
O166 C157 1.247 . S
O167 Co154 2.244 . S
O167 C157 1.272 . S
O167 Co159 2.135 . S
Co168 O169 2.216 . S
Co168 O170 2.091 . S
Co168 O172 2.004 . S
Co168 O178 2.021 . S
Co168 O180 2.137 . S
Co168 O181 2.244 . S
O169 Co168 2.216 . S
O169 C176 1.247 . S
O170 Co168 2.091 . S
O170 C176 1.261 . S
C171 O180 1.247 . S
C171 O181 1.272 . S
O172 Co168 2.004 . S
O172 C177 1.259 . S
Co173 O174 2.061 . S
Co173 O179 2.052 . S
Co173 O181 2.135 . S
O174 Co173 2.061 . S
O174 C177 1.235 . S
C175 O178 1.238 . S
C175 O179 1.241 . S
C176 O169 1.247 . S
C176 O170 1.261 . S
C177 O172 1.259 . S
C177 O174 1.235 . S
O178 Co168 2.021 . S
O178 C175 1.238 . S
O179 Co173 2.052 . S
O179 C175 1.241 . S
O180 Co168 2.137 . S
O180 C171 1.247 . S
O181 Co168 2.244 . S
O181 C171 1.272 . S
O181 Co173 2.135 . S
Co182 O183 2.216 . S
Co182 O184 2.091 . S
Co182 O186 2.004 . S
Co182 O192 2.021 . S
Co182 O194 2.137 . S
Co182 O195 2.244 . S
O183 Co182 2.216 . S
O183 C190 1.247 . S
O184 Co182 2.091 . S
O184 C190 1.261 . S
C185 O194 1.247 . S
C185 O195 1.272 . S
O186 Co182 2.004 . S
O186 C191 1.259 . S
Co187 O188 2.061 . S
Co187 O193 2.052 . S
Co187 O195 2.135 . S
O188 Co187 2.061 . S
O188 C191 1.235 . S
C189 O192 1.238 . S
C189 O193 1.241 . S
C190 O183 1.247 . S
C190 O184 1.261 . S
C191 O186 1.259 . S
C191 O188 1.235 . S
O192 Co182 2.021 . S
O192 C189 1.238 . S
O193 Co187 2.052 . S
O193 C189 1.241 . S
O194 Co182 2.137 . S
O194 C185 1.247 . S
O195 Co182 2.244 . S
O195 C185 1.272 . S
O195 Co187 2.135 . S
Co196 O197 2.216 . S
Co196 O198 2.091 . S
Co196 O200 2.004 . S
Co196 O206 2.021 . S
Co196 O208 2.137 . S
Co196 O209 2.244 . S
O197 Co196 2.216 . S
O197 C204 1.247 . S
O198 Co196 2.091 . S
O198 C204 1.261 . S
C199 O208 1.247 . S
C199 O209 1.272 . S
O200 Co196 2.004 . S
O200 C205 1.259 . S
Co201 O202 2.061 . S
Co201 O207 2.052 . S
Co201 O209 2.135 . S
O202 Co201 2.061 . S
O202 C205 1.235 . S
C203 O206 1.238 . S
C203 O207 1.241 . S
C204 O197 1.247 . S
C204 O198 1.261 . S
C205 O200 1.259 . S
C205 O202 1.235 . S
O206 Co196 2.021 . S
O206 C203 1.238 . S
O207 Co201 2.052 . S
O207 C203 1.241 . S
O208 Co196 2.137 . S
O208 C199 1.247 . S
O209 Co196 2.244 . S
O209 C199 1.272 . S
O209 Co201 2.135 . S
Co210 O211 2.216 . S
Co210 O212 2.091 . S
Co210 O214 2.004 . S
Co210 O220 2.021 . S
Co210 O222 2.137 . S
Co210 O223 2.244 . S
O211 Co210 2.216 . S
O211 C218 1.247 . S
O212 Co210 2.091 . S
O212 C218 1.261 . S
C213 O222 1.247 . S
C213 O223 1.272 . S
O214 Co210 2.004 . S
O214 C219 1.259 . S
Co215 O216 2.061 . S
Co215 O221 2.052 . S
Co215 O223 2.135 . S
O216 Co215 2.061 . S
O216 C219 1.235 . S
C217 O220 1.238 . S
C217 O221 1.241 . S
C218 O211 1.247 . S
C218 O212 1.261 . S
C219 O214 1.259 . S
C219 O216 1.235 . S
O220 Co210 2.021 . S
O220 C217 1.238 . S
O221 Co215 2.052 . S
O221 C217 1.241 . S
O222 Co210 2.137 . S
O222 C213 1.247 . S
O223 Co210 2.244 . S
O223 C213 1.272 . S
O223 Co215 2.135 . S
Co224 O225 2.216 . S
Co224 O226 2.091 . S
Co224 O228 2.004 . S
Co224 O234 2.021 . S
Co224 O236 2.137 . S
Co224 O237 2.244 . S
O225 Co224 2.216 . S
O225 C232 1.247 . S
O226 Co224 2.091 . S
O226 C232 1.261 . S
C227 O236 1.247 . S
C227 O237 1.272 . S
O228 Co224 2.004 . S
O228 C233 1.259 . S
Co229 O230 2.061 . S
Co229 O235 2.052 . S
Co229 O237 2.135 . S
O230 Co229 2.061 . S
O230 C233 1.235 . S
C231 O234 1.238 . S
C231 O235 1.241 . S
C232 O225 1.247 . S
C232 O226 1.261 . S
C233 O228 1.259 . S
C233 O230 1.235 . S
O234 Co224 2.021 . S
O234 C231 1.238 . S
O235 Co229 2.052 . S
O235 C231 1.241 . S
O236 Co224 2.137 . S
O236 C227 1.247 . S
O237 Co224 2.244 . S
O237 C227 1.272 . S
O237 Co229 2.135 . S
Co238 O239 2.216 . S
Co238 O240 2.091 . S
Co238 O242 2.004 . S
Co238 O248 2.021 . S
Co238 O250 2.137 . S
Co238 O251 2.244 . S
O239 Co238 2.216 . S
O239 C246 1.247 . S
O240 Co238 2.091 . S
O240 C246 1.261 . S
C241 O250 1.247 . S
C241 O251 1.272 . S
O242 Co238 2.004 . S
O242 C247 1.259 . S
Co243 O244 2.061 . S
Co243 O249 2.052 . S
Co243 O251 2.135 . S
O244 Co243 2.061 . S
O244 C247 1.235 . S
C245 O248 1.238 . S
C245 O249 1.241 . S
C246 O239 1.247 . S
C246 O240 1.261 . S
C247 O242 1.259 . S
C247 O244 1.235 . S
O248 Co238 2.021 . S
O248 C245 1.238 . S
O249 Co243 2.052 . S
O249 C245 1.241 . S
O250 Co238 2.137 . S
O250 C241 1.247 . S
O251 Co238 2.244 . S
O251 C241 1.272 . S
O251 Co243 2.135 . S
Co252 O253 2.216 . S
Co252 O254 2.091 . S
Co252 O256 2.004 . S
Co252 O262 2.021 . S
Co252 O264 2.137 . S
Co252 O265 2.244 . S
O253 Co252 2.216 . S
O253 C260 1.247 . S
O254 Co252 2.091 . S
O254 C260 1.261 . S
C255 O264 1.247 . S
C255 O265 1.272 . S
O256 Co252 2.004 . S
O256 C261 1.259 . S
Co257 O258 2.061 . S
Co257 O263 2.052 . S
Co257 O265 2.135 . S
O258 Co257 2.061 . S
O258 C261 1.235 . S
C259 O262 1.238 . S
C259 O263 1.241 . S
C260 O253 1.247 . S
C260 O254 1.261 . S
C261 O256 1.259 . S
C261 O258 1.235 . S
O262 Co252 2.021 . S
O262 C259 1.238 . S
O263 Co257 2.052 . S
O263 C259 1.241 . S
O264 Co252 2.137 . S
O264 C255 1.247 . S
O265 Co252 2.244 . S
O265 C255 1.272 . S
O265 Co257 2.135 . S
Co266 O267 2.216 . S
Co266 O268 2.091 . S
Co266 O270 2.004 . S
Co266 O276 2.021 . S
Co266 O278 2.137 . S
Co266 O279 2.244 . S
O267 Co266 2.216 . S
O267 C274 1.247 . S
O268 Co266 2.091 . S
O268 C274 1.261 . S
C269 O278 1.247 . S
C269 O279 1.272 . S
O270 Co266 2.004 . S
O270 C275 1.259 . S
Co271 O272 2.061 . S
Co271 O277 2.052 . S
Co271 O279 2.135 . S
O272 Co271 2.061 . S
O272 C275 1.235 . S
C273 O276 1.238 . S
C273 O277 1.241 . S
C274 O267 1.247 . S
C274 O268 1.261 . S
C275 O270 1.259 . S
C275 O272 1.235 . S
O276 Co266 2.021 . S
O276 C273 1.238 . S
O277 Co271 2.052 . S
O277 C273 1.241 . S
O278 Co266 2.137 . S
O278 C269 1.247 . S
O279 Co266 2.244 . S
O279 C269 1.272 . S
O279 Co271 2.135 . S
Co280 O281 2.216 . S
Co280 O282 2.091 . S
Co280 O284 2.004 . S
Co280 O290 2.021 . S
Co280 O292 2.137 . S
Co280 O293 2.244 . S
O281 Co280 2.216 . S
O281 C288 1.247 . S
O282 Co280 2.091 . S
O282 C288 1.261 . S
C283 O292 1.247 . S
C283 O293 1.272 . S
O284 Co280 2.004 . S
O284 C289 1.259 . S
Co285 O286 2.061 . S
Co285 O291 2.052 . S
Co285 O293 2.135 . S
O286 Co285 2.061 . S
O286 C289 1.235 . S
C287 O290 1.238 . S
C287 O291 1.241 . S
C288 O281 1.247 . S
C288 O282 1.261 . S
C289 O284 1.259 . S
C289 O286 1.235 . S
O290 Co280 2.021 . S
O290 C287 1.238 . S
O291 Co285 2.052 . S
O291 C287 1.241 . S
O292 Co280 2.137 . S
O292 C283 1.247 . S
O293 Co280 2.244 . S
O293 C283 1.272 . S
O293 Co285 2.135 . S
Co294 O295 2.216 . S
Co294 O296 2.091 . S
Co294 O298 2.004 . S
Co294 O304 2.021 . S
Co294 O306 2.137 . S
Co294 O307 2.244 . S
O295 Co294 2.216 . S
O295 C302 1.247 . S
O296 Co294 2.091 . S
O296 C302 1.261 . S
C297 O306 1.247 . S
C297 O307 1.272 . S
O298 Co294 2.004 . S
O298 C303 1.259 . S
Co299 O300 2.061 . S
Co299 O305 2.052 . S
Co299 O307 2.135 . S
O300 Co299 2.061 . S
O300 C303 1.235 . S
C301 O304 1.238 . S
C301 O305 1.241 . S
C302 O295 1.247 . S
C302 O296 1.261 . S
C303 O298 1.259 . S
C303 O300 1.235 . S
O304 Co294 2.021 . S
O304 C301 1.238 . S
O305 Co299 2.052 . S
O305 C301 1.241 . S
O306 Co294 2.137 . S
O306 C297 1.247 . S
O307 Co294 2.244 . S
O307 C297 1.272 . S
O307 Co299 2.135 . S
Co308 O309 2.216 . S
Co308 O310 2.091 . S
Co308 O312 2.004 . S
Co308 O318 2.021 . S
Co308 O320 2.137 . S
Co308 O321 2.244 . S
O309 Co308 2.216 . S
O309 C316 1.247 . S
O310 Co308 2.091 . S
O310 C316 1.261 . S
C311 O320 1.247 . S
C311 O321 1.272 . S
O312 Co308 2.004 . S
O312 C317 1.259 . S
Co313 O314 2.061 . S
Co313 O319 2.052 . S
Co313 O321 2.135 . S
O314 Co313 2.061 . S
O314 C317 1.235 . S
C315 O318 1.238 . S
C315 O319 1.241 . S
C316 O309 1.247 . S
C316 O310 1.261 . S
C317 O312 1.259 . S
C317 O314 1.235 . S
O318 Co308 2.021 . S
O318 C315 1.238 . S
O319 Co313 2.052 . S
O319 C315 1.241 . S
O320 Co308 2.137 . S
O320 C311 1.247 . S
O321 Co308 2.244 . S
O321 C311 1.272 . S
O321 Co313 2.135 . S
Co322 O323 2.216 . S
Co322 O324 2.091 . S
Co322 O326 2.004 . S
Co322 O332 2.021 . S
Co322 O334 2.137 . S
Co322 O335 2.244 . S
O323 Co322 2.216 . S
O323 C330 1.247 . S
O324 Co322 2.091 . S
O324 C330 1.261 . S
C325 O334 1.247 . S
C325 O335 1.272 . S
O326 Co322 2.004 . S
O326 C331 1.259 . S
Co327 O328 2.061 . S
Co327 O333 2.052 . S
Co327 O335 2.135 . S
O328 Co327 2.061 . S
O328 C331 1.235 . S
C329 O332 1.238 . S
C329 O333 1.241 . S
C330 O323 1.247 . S
C330 O324 1.261 . S
C331 O326 1.259 . S
C331 O328 1.235 . S
O332 Co322 2.021 . S
O332 C329 1.238 . S
O333 Co327 2.052 . S
O333 C329 1.241 . S
O334 Co322 2.137 . S
O334 C325 1.247 . S
O335 Co322 2.244 . S
O335 C325 1.272 . S
O335 Co327 2.135 . S
Co336 O337 2.216 . S
Co336 O338 2.091 . S
Co336 O340 2.004 . S
Co336 O346 2.021 . S
Co336 O348 2.137 . S
Co336 O349 2.244 . S
O337 Co336 2.216 . S
O337 C344 1.247 . S
O338 Co336 2.091 . S
O338 C344 1.261 . S
C339 O348 1.247 . S
C339 O349 1.272 . S
O340 Co336 2.004 . S
O340 C345 1.259 . S
Co341 O342 2.061 . S
Co341 O347 2.052 . S
Co341 O349 2.135 . S
O342 Co341 2.061 . S
O342 C345 1.235 . S
C343 O346 1.238 . S
C343 O347 1.241 . S
C344 O337 1.247 . S
C344 O338 1.261 . S
C345 O340 1.259 . S
C345 O342 1.235 . S
O346 Co336 2.021 . S
O346 C343 1.238 . S
O347 Co341 2.052 . S
O347 C343 1.241 . S
O348 Co336 2.137 . S
O348 C339 1.247 . S
O349 Co336 2.244 . S
O349 C339 1.272 . S
O349 Co341 2.135 . S
Co350 O351 2.216 . S
Co350 O352 2.091 . S
Co350 O354 2.004 . S
Co350 O360 2.021 . S
Co350 O362 2.137 . S
Co350 O363 2.244 . S
O351 Co350 2.216 . S
O351 C358 1.247 . S
O352 Co350 2.091 . S
O352 C358 1.261 . S
C353 O362 1.247 . S
C353 O363 1.272 . S
O354 Co350 2.004 . S
O354 C359 1.259 . S
Co355 O356 2.061 . S
Co355 O361 2.052 . S
Co355 O363 2.135 . S
O356 Co355 2.061 . S
O356 C359 1.235 . S
C357 O360 1.238 . S
C357 O361 1.241 . S
C358 O351 1.247 . S
C358 O352 1.261 . S
C359 O354 1.259 . S
C359 O356 1.235 . S
O360 Co350 2.021 . S
O360 C357 1.238 . S
O361 Co355 2.052 . S
O361 C357 1.241 . S
O362 Co350 2.137 . S
O362 C353 1.247 . S
O363 Co350 2.244 . S
O363 C353 1.272 . S
O363 Co355 2.135 . S
Co364 O365 2.216 . S
Co364 O366 2.091 . S
Co364 O368 2.004 . S
Co364 O374 2.021 . S
Co364 O376 2.137 . S
Co364 O377 2.244 . S
O365 Co364 2.216 . S
O365 C372 1.247 . S
O366 Co364 2.091 . S
O366 C372 1.261 . S
C367 O376 1.247 . S
C367 O377 1.272 . S
O368 Co364 2.004 . S
O368 C373 1.259 . S
Co369 O370 2.061 . S
Co369 O375 2.052 . S
Co369 O377 2.135 . S
O370 Co369 2.061 . S
O370 C373 1.235 . S
C371 O374 1.238 . S
C371 O375 1.241 . S
C372 O365 1.247 . S
C372 O366 1.261 . S
C373 O368 1.259 . S
C373 O370 1.235 . S
O374 Co364 2.021 . S
O374 C371 1.238 . S
O375 Co369 2.052 . S
O375 C371 1.241 . S
O376 Co364 2.137 . S
O376 C367 1.247 . S
O377 Co364 2.244 . S
O377 C367 1.272 . S
O377 Co369 2.135 . S
Co378 O379 2.216 . S
Co378 O380 2.091 . S
Co378 O382 2.004 . S
Co378 O388 2.021 . S
Co378 O390 2.137 . S
Co378 O391 2.244 . S
O379 Co378 2.216 . S
O379 C386 1.247 . S
O380 Co378 2.091 . S
O380 C386 1.261 . S
C381 O390 1.247 . S
C381 O391 1.272 . S
O382 Co378 2.004 . S
O382 C387 1.259 . S
Co383 O384 2.061 . S
Co383 O389 2.052 . S
Co383 O391 2.135 . S
O384 Co383 2.061 . S
O384 C387 1.235 . S
C385 O388 1.238 . S
C385 O389 1.241 . S
C386 O379 1.247 . S
C386 O380 1.261 . S
C387 O382 1.259 . S
C387 O384 1.235 . S
O388 Co378 2.021 . S
O388 C385 1.238 . S
O389 Co383 2.052 . S
O389 C385 1.241 . S
O390 Co378 2.137 . S
O390 C381 1.247 . S
O391 Co378 2.244 . S
O391 C381 1.272 . S
O391 Co383 2.135 . S
Co392 O393 2.216 . S
Co392 O394 2.091 . S
Co392 O396 2.004 . S
Co392 O402 2.021 . S
Co392 O404 2.137 . S
Co392 O405 2.244 . S
O393 Co392 2.216 . S
O393 C400 1.247 . S
O394 Co392 2.091 . S
O394 C400 1.261 . S
C395 O404 1.247 . S
C395 O405 1.272 . S
O396 Co392 2.004 . S
O396 C401 1.259 . S
Co397 O398 2.061 . S
Co397 O403 2.052 . S
Co397 O405 2.135 . S
O398 Co397 2.061 . S
O398 C401 1.235 . S
C399 O402 1.238 . S
C399 O403 1.241 . S
C400 O393 1.247 . S
C400 O394 1.261 . S
C401 O396 1.259 . S
C401 O398 1.235 . S
O402 Co392 2.021 . S
O402 C399 1.238 . S
O403 Co397 2.052 . S
O403 C399 1.241 . S
O404 Co392 2.137 . S
O404 C395 1.247 . S
O405 Co392 2.244 . S
O405 C395 1.272 . S
O405 Co397 2.135 . S
Co406 O407 2.216 . S
Co406 O408 2.091 . S
Co406 O410 2.004 . S
Co406 O416 2.021 . S
Co406 O418 2.137 . S
Co406 O419 2.244 . S
O407 Co406 2.216 . S
O407 C414 1.247 . S
O408 Co406 2.091 . S
O408 C414 1.261 . S
C409 O418 1.247 . S
C409 O419 1.272 . S
O410 Co406 2.004 . S
O410 C415 1.259 . S
Co411 O412 2.061 . S
Co411 O417 2.052 . S
Co411 O419 2.135 . S
O412 Co411 2.061 . S
O412 C415 1.235 . S
C413 O416 1.238 . S
C413 O417 1.241 . S
C414 O407 1.247 . S
C414 O408 1.261 . S
C415 O410 1.259 . S
C415 O412 1.235 . S
O416 Co406 2.021 . S
O416 C413 1.238 . S
O417 Co411 2.052 . S
O417 C413 1.241 . S
O418 Co406 2.137 . S
O418 C409 1.247 . S
O419 Co406 2.244 . S
O419 C409 1.272 . S
O419 Co411 2.135 . S
Co420 O421 2.216 . S
Co420 O422 2.091 . S
Co420 O424 2.004 . S
Co420 O430 2.021 . S
Co420 O432 2.137 . S
Co420 O433 2.244 . S
O421 Co420 2.216 . S
O421 C428 1.247 . S
O422 Co420 2.091 . S
O422 C428 1.261 . S
C423 O432 1.247 . S
C423 O433 1.272 . S
O424 Co420 2.004 . S
O424 C429 1.259 . S
Co425 O426 2.061 . S
Co425 O431 2.052 . S
Co425 O433 2.135 . S
O426 Co425 2.061 . S
O426 C429 1.235 . S
C427 O430 1.238 . S
C427 O431 1.241 . S
C428 O421 1.247 . S
C428 O422 1.261 . S
C429 O424 1.259 . S
C429 O426 1.235 . S
O430 Co420 2.021 . S
O430 C427 1.238 . S
O431 Co425 2.052 . S
O431 C427 1.241 . S
O432 Co420 2.137 . S
O432 C423 1.247 . S
O433 Co420 2.244 . S
O433 C423 1.272 . S
O433 Co425 2.135 . S
Co434 O435 2.216 . S
Co434 O436 2.091 . S
Co434 O438 2.004 . S
Co434 O444 2.021 . S
Co434 O446 2.137 . S
Co434 O447 2.244 . S
O435 Co434 2.216 . S
O435 C442 1.247 . S
O436 Co434 2.091 . S
O436 C442 1.261 . S
C437 O446 1.247 . S
C437 O447 1.272 . S
O438 Co434 2.004 . S
O438 C443 1.259 . S
Co439 O440 2.061 . S
Co439 O445 2.052 . S
Co439 O447 2.135 . S
O440 Co439 2.061 . S
O440 C443 1.235 . S
C441 O444 1.238 . S
C441 O445 1.241 . S
C442 O435 1.247 . S
C442 O436 1.261 . S
C443 O438 1.259 . S
C443 O440 1.235 . S
O444 Co434 2.021 . S
O444 C441 1.238 . S
O445 Co439 2.052 . S
O445 C441 1.241 . S
O446 Co434 2.137 . S
O446 C437 1.247 . S
O447 Co434 2.244 . S
O447 C437 1.272 . S
O447 Co439 2.135 . S
Co448 O449 2.216 . S
Co448 O450 2.091 . S
Co448 O452 2.004 . S
Co448 O458 2.021 . S
Co448 O460 2.137 . S
Co448 O461 2.244 . S
O449 Co448 2.216 . S
O449 C456 1.247 . S
O450 Co448 2.091 . S
O450 C456 1.261 . S
C451 O460 1.247 . S
C451 O461 1.272 . S
O452 Co448 2.004 . S
O452 C457 1.259 . S
Co453 O454 2.061 . S
Co453 O459 2.052 . S
Co453 O461 2.135 . S
O454 Co453 2.061 . S
O454 C457 1.235 . S
C455 O458 1.238 . S
C455 O459 1.241 . S
C456 O449 1.247 . S
C456 O450 1.261 . S
C457 O452 1.259 . S
C457 O454 1.235 . S
O458 Co448 2.021 . S
O458 C455 1.238 . S
O459 Co453 2.052 . S
O459 C455 1.241 . S
O460 Co448 2.137 . S
O460 C451 1.247 . S
O461 Co448 2.244 . S
O461 C451 1.272 . S
O461 Co453 2.135 . S
Co462 O463 2.216 . S
Co462 O464 2.091 . S
Co462 O466 2.004 . S
Co462 O472 2.021 . S
Co462 O474 2.137 . S
Co462 O475 2.244 . S
O463 Co462 2.216 . S
O463 C470 1.247 . S
O464 Co462 2.091 . S
O464 C470 1.261 . S
C465 O474 1.247 . S
C465 O475 1.272 . S
O466 Co462 2.004 . S
O466 C471 1.259 . S
Co467 O468 2.061 . S
Co467 O473 2.052 . S
Co467 O475 2.135 . S
O468 Co467 2.061 . S
O468 C471 1.235 . S
C469 O472 1.238 . S
C469 O473 1.241 . S
C470 O463 1.247 . S
C470 O464 1.261 . S
C471 O466 1.259 . S
C471 O468 1.235 . S
O472 Co462 2.021 . S
O472 C469 1.238 . S
O473 Co467 2.052 . S
O473 C469 1.241 . S
O474 Co462 2.137 . S
O474 C465 1.247 . S
O475 Co462 2.244 . S
O475 C465 1.272 . S
O475 Co467 2.135 . S
Co476 O477 2.216 . S
Co476 O478 2.091 . S
Co476 O480 2.004 . S
Co476 O486 2.021 . S
Co476 O488 2.137 . S
Co476 O489 2.244 . S
O477 Co476 2.216 . S
O477 C484 1.247 . S
O478 Co476 2.091 . S
O478 C484 1.261 . S
C479 O488 1.247 . S
C479 O489 1.272 . S
O480 Co476 2.004 . S
O480 C485 1.259 . S
Co481 O482 2.061 . S
Co481 O487 2.052 . S
Co481 O489 2.135 . S
O482 Co481 2.061 . S
O482 C485 1.235 . S
C483 O486 1.238 . S
C483 O487 1.241 . S
C484 O477 1.247 . S
C484 O478 1.261 . S
C485 O480 1.259 . S
C485 O482 1.235 . S
O486 Co476 2.021 . S
O486 C483 1.238 . S
O487 Co481 2.052 . S
O487 C483 1.241 . S
O488 Co476 2.137 . S
O488 C479 1.247 . S
O489 Co476 2.244 . S
O489 C479 1.272 . S
O489 Co481 2.135 . S
Co490 O491 2.216 . S
Co490 O492 2.091 . S
Co490 O494 2.004 . S
Co490 O500 2.021 . S
Co490 O502 2.137 . S
Co490 O503 2.244 . S
O491 Co490 2.216 . S
O491 C498 1.247 . S
O492 Co490 2.091 . S
O492 C498 1.261 . S
C493 O502 1.247 . S
C493 O503 1.272 . S
O494 Co490 2.004 . S
O494 C499 1.259 . S
Co495 O496 2.061 . S
Co495 O501 2.052 . S
Co495 O503 2.135 . S
O496 Co495 2.061 . S
O496 C499 1.235 . S
C497 O500 1.238 . S
C497 O501 1.241 . S
C498 O491 1.247 . S
C498 O492 1.261 . S
C499 O494 1.259 . S
C499 O496 1.235 . S
O500 Co490 2.021 . S
O500 C497 1.238 . S
O501 Co495 2.052 . S
O501 C497 1.241 . S
O502 Co490 2.137 . S
O502 C493 1.247 . S
O503 Co490 2.244 . S
O503 C493 1.272 . S
O503 Co495 2.135 . S
Co504 O505 2.216 . S
Co504 O506 2.091 . S
Co504 O508 2.004 . S
Co504 O514 2.021 . S
Co504 O516 2.137 . S
Co504 O517 2.244 . S
O505 Co504 2.216 . S
O505 C512 1.247 . S
O506 Co504 2.091 . S
O506 C512 1.261 . S
C507 O516 1.247 . S
C507 O517 1.272 . S
O508 Co504 2.004 . S
O508 C513 1.259 . S
Co509 O510 2.061 . S
Co509 O515 2.052 . S
Co509 O517 2.135 . S
O510 Co509 2.061 . S
O510 C513 1.235 . S
C511 O514 1.238 . S
C511 O515 1.241 . S
C512 O505 1.247 . S
C512 O506 1.261 . S
C513 O508 1.259 . S
C513 O510 1.235 . S
O514 Co504 2.021 . S
O514 C511 1.238 . S
O515 Co509 2.052 . S
O515 C511 1.241 . S
O516 Co504 2.137 . S
O516 C507 1.247 . S
O517 Co504 2.244 . S
O517 C507 1.272 . S
O517 Co509 2.135 . S
Co518 O519 2.216 . S
Co518 O520 2.091 . S
Co518 O522 2.004 . S
Co518 O528 2.021 . S
Co518 O530 2.137 . S
Co518 O531 2.244 . S
O519 Co518 2.216 . S
O519 C526 1.247 . S
O520 Co518 2.091 . S
O520 C526 1.261 . S
C521 O530 1.247 . S
C521 O531 1.272 . S
O522 Co518 2.004 . S
O522 C527 1.259 . S
Co523 O524 2.061 . S
Co523 O529 2.052 . S
Co523 O531 2.135 . S
O524 Co523 2.061 . S
O524 C527 1.235 . S
C525 O528 1.238 . S
C525 O529 1.241 . S
C526 O519 1.247 . S
C526 O520 1.261 . S
C527 O522 1.259 . S
C527 O524 1.235 . S
O528 Co518 2.021 . S
O528 C525 1.238 . S
O529 Co523 2.052 . S
O529 C525 1.241 . S
O530 Co518 2.137 . S
O530 C521 1.247 . S
O531 Co518 2.244 . S
O531 C521 1.272 . S
O531 Co523 2.135 . S
Co532 O533 2.216 . S
Co532 O534 2.091 . S
Co532 O536 2.004 . S
Co532 O542 2.021 . S
Co532 O544 2.137 . S
Co532 O545 2.244 . S
O533 Co532 2.216 . S
O533 C540 1.247 . S
O534 Co532 2.091 . S
O534 C540 1.261 . S
C535 O544 1.247 . S
C535 O545 1.272 . S
O536 Co532 2.004 . S
O536 C541 1.259 . S
Co537 O538 2.061 . S
Co537 O543 2.052 . S
Co537 O545 2.135 . S
O538 Co537 2.061 . S
O538 C541 1.235 . S
C539 O542 1.238 . S
C539 O543 1.241 . S
C540 O533 1.247 . S
C540 O534 1.261 . S
C541 O536 1.259 . S
C541 O538 1.235 . S
O542 Co532 2.021 . S
O542 C539 1.238 . S
O543 Co537 2.052 . S
O543 C539 1.241 . S
O544 Co532 2.137 . S
O544 C535 1.247 . S
O545 Co532 2.244 . S
O545 C535 1.272 . S
O545 Co537 2.135 . S
Co546 O547 2.216 . S
Co546 O548 2.091 . S
Co546 O550 2.004 . S
Co546 O556 2.021 . S
Co546 O558 2.137 . S
Co546 O559 2.244 . S
O547 Co546 2.216 . S
O547 C554 1.247 . S
O548 Co546 2.091 . S
O548 C554 1.261 . S
C549 O558 1.247 . S
C549 O559 1.272 . S
O550 Co546 2.004 . S
O550 C555 1.259 . S
Co551 O552 2.061 . S
Co551 O557 2.052 . S
Co551 O559 2.135 . S
O552 Co551 2.061 . S
O552 C555 1.235 . S
C553 O556 1.238 . S
C553 O557 1.241 . S
C554 O547 1.247 . S
C554 O548 1.261 . S
C555 O550 1.259 . S
C555 O552 1.235 . S
O556 Co546 2.021 . S
O556 C553 1.238 . S
O557 Co551 2.052 . S
O557 C553 1.241 . S
O558 Co546 2.137 . S
O558 C549 1.247 . S
O559 Co546 2.244 . S
O559 C549 1.272 . S
O559 Co551 2.135 . S
Co560 O561 2.216 . S
Co560 O562 2.091 . S
Co560 O564 2.004 . S
Co560 O570 2.021 . S
Co560 O572 2.137 . S
Co560 O573 2.244 . S
O561 Co560 2.216 . S
O561 C568 1.247 . S
O562 Co560 2.091 . S
O562 C568 1.261 . S
C563 O572 1.247 . S
C563 O573 1.272 . S
O564 Co560 2.004 . S
O564 C569 1.259 . S
Co565 O566 2.061 . S
Co565 O571 2.052 . S
Co565 O573 2.135 . S
O566 Co565 2.061 . S
O566 C569 1.235 . S
C567 O570 1.238 . S
C567 O571 1.241 . S
C568 O561 1.247 . S
C568 O562 1.261 . S
C569 O564 1.259 . S
C569 O566 1.235 . S
O570 Co560 2.021 . S
O570 C567 1.238 . S
O571 Co565 2.052 . S
O571 C567 1.241 . S
O572 Co560 2.137 . S
O572 C563 1.247 . S
O573 Co560 2.244 . S
O573 C563 1.272 . S
O573 Co565 2.135 . S
Co574 O575 2.216 . S
Co574 O576 2.091 . S
Co574 O578 2.004 . S
Co574 O584 2.021 . S
Co574 O586 2.137 . S
Co574 O587 2.244 . S
O575 Co574 2.216 . S
O575 C582 1.247 . S
O576 Co574 2.091 . S
O576 C582 1.261 . S
C577 O586 1.247 . S
C577 O587 1.272 . S
O578 Co574 2.004 . S
O578 C583 1.259 . S
Co579 O580 2.061 . S
Co579 O585 2.052 . S
Co579 O587 2.135 . S
O580 Co579 2.061 . S
O580 C583 1.235 . S
C581 O584 1.238 . S
C581 O585 1.241 . S
C582 O575 1.247 . S
C582 O576 1.261 . S
C583 O578 1.259 . S
C583 O580 1.235 . S
O584 Co574 2.021 . S
O584 C581 1.238 . S
O585 Co579 2.052 . S
O585 C581 1.241 . S
O586 Co574 2.137 . S
O586 C577 1.247 . S
O587 Co574 2.244 . S
O587 C577 1.272 . S
O587 Co579 2.135 . S
Co588 O589 2.216 . S
Co588 O590 2.091 . S
Co588 O592 2.004 . S
Co588 O598 2.021 . S
Co588 O600 2.137 . S
Co588 O601 2.244 . S
O589 Co588 2.216 . S
O589 C596 1.247 . S
O590 Co588 2.091 . S
O590 C596 1.261 . S
C591 O600 1.247 . S
C591 O601 1.272 . S
O592 Co588 2.004 . S
O592 C597 1.259 . S
Co593 O594 2.061 . S
Co593 O599 2.052 . S
Co593 O601 2.135 . S
O594 Co593 2.061 . S
O594 C597 1.235 . S
C595 O598 1.238 . S
C595 O599 1.241 . S
C596 O589 1.247 . S
C596 O590 1.261 . S
C597 O592 1.259 . S
C597 O594 1.235 . S
O598 Co588 2.021 . S
O598 C595 1.238 . S
O599 Co593 2.052 . S
O599 C595 1.241 . S
O600 Co588 2.137 . S
O600 C591 1.247 . S
O601 Co588 2.244 . S
O601 C591 1.272 . S
O601 Co593 2.135 . S
Co602 O603 2.216 . S
Co602 O604 2.091 . S
Co602 O606 2.004 . S
Co602 O612 2.021 . S
Co602 O614 2.137 . S
Co602 O615 2.244 . S
O603 Co602 2.216 . S
O603 C610 1.247 . S
O604 Co602 2.091 . S
O604 C610 1.261 . S
C605 O614 1.247 . S
C605 O615 1.272 . S
O606 Co602 2.004 . S
O606 C611 1.259 . S
Co607 O608 2.061 . S
Co607 O613 2.052 . S
Co607 O615 2.135 . S
O608 Co607 2.061 . S
O608 C611 1.235 . S
C609 O612 1.238 . S
C609 O613 1.241 . S
C610 O603 1.247 . S
C610 O604 1.261 . S
C611 O606 1.259 . S
C611 O608 1.235 . S
O612 Co602 2.021 . S
O612 C609 1.238 . S
O613 Co607 2.052 . S
O613 C609 1.241 . S
O614 Co602 2.137 . S
O614 C605 1.247 . S
O615 Co602 2.244 . S
O615 C605 1.272 . S
O615 Co607 2.135 . S
Co616 O617 2.216 . S
Co616 O618 2.091 . S
Co616 O620 2.004 . S
Co616 O626 2.021 . S
Co616 O628 2.137 . S
Co616 O629 2.244 . S
O617 Co616 2.216 . S
O617 C624 1.247 . S
O618 Co616 2.091 . S
O618 C624 1.261 . S
C619 O628 1.247 . S
C619 O629 1.272 . S
O620 Co616 2.004 . S
O620 C625 1.259 . S
Co621 O622 2.061 . S
Co621 O627 2.052 . S
Co621 O629 2.135 . S
O622 Co621 2.061 . S
O622 C625 1.235 . S
C623 O626 1.238 . S
C623 O627 1.241 . S
C624 O617 1.247 . S
C624 O618 1.261 . S
C625 O620 1.259 . S
C625 O622 1.235 . S
O626 Co616 2.021 . S
O626 C623 1.238 . S
O627 Co621 2.052 . S
O627 C623 1.241 . S
O628 Co616 2.137 . S
O628 C619 1.247 . S
O629 Co616 2.244 . S
O629 C619 1.272 . S
O629 Co621 2.135 . S
Co630 O631 2.216 . S
Co630 O632 2.091 . S
Co630 O634 2.004 . S
Co630 O640 2.021 . S
Co630 O642 2.137 . S
Co630 O643 2.244 . S
O631 Co630 2.216 . S
O631 C638 1.247 . S
O632 Co630 2.091 . S
O632 C638 1.261 . S
C633 O642 1.247 . S
C633 O643 1.272 . S
O634 Co630 2.004 . S
O634 C639 1.259 . S
Co635 O636 2.061 . S
Co635 O641 2.052 . S
Co635 O643 2.135 . S
O636 Co635 2.061 . S
O636 C639 1.235 . S
C637 O640 1.238 . S
C637 O641 1.241 . S
C638 O631 1.247 . S
C638 O632 1.261 . S
C639 O634 1.259 . S
C639 O636 1.235 . S
O640 Co630 2.021 . S
O640 C637 1.238 . S
O641 Co635 2.052 . S
O641 C637 1.241 . S
O642 Co630 2.137 . S
O642 C633 1.247 . S
O643 Co630 2.244 . S
O643 C633 1.272 . S
O643 Co635 2.135 . S
Co644 O645 2.216 . S
Co644 O646 2.091 . S
Co644 O648 2.004 . S
Co644 O654 2.021 . S
Co644 O656 2.137 . S
Co644 O657 2.244 . S
O645 Co644 2.216 . S
O645 C652 1.247 . S
O646 Co644 2.091 . S
O646 C652 1.261 . S
C647 O656 1.247 . S
C647 O657 1.272 . S
O648 Co644 2.004 . S
O648 C653 1.259 . S
Co649 O650 2.061 . S
Co649 O655 2.052 . S
Co649 O657 2.135 . S
O650 Co649 2.061 . S
O650 C653 1.235 . S
C651 O654 1.238 . S
C651 O655 1.241 . S
C652 O645 1.247 . S
C652 O646 1.261 . S
C653 O648 1.259 . S
C653 O650 1.235 . S
O654 Co644 2.021 . S
O654 C651 1.238 . S
O655 Co649 2.052 . S
O655 C651 1.241 . S
O656 Co644 2.137 . S
O656 C647 1.247 . S
O657 Co644 2.244 . S
O657 C647 1.272 . S
O657 Co649 2.135 . S
Co658 O659 2.216 . S
Co658 O660 2.091 . S
Co658 O662 2.004 . S
Co658 O668 2.021 . S
Co658 O670 2.137 . S
Co658 O671 2.244 . S
O659 Co658 2.216 . S
O659 C666 1.247 . S
O660 Co658 2.091 . S
O660 C666 1.261 . S
C661 O670 1.247 . S
C661 O671 1.272 . S
O662 Co658 2.004 . S
O662 C667 1.259 . S
Co663 O664 2.061 . S
Co663 O669 2.052 . S
Co663 O671 2.135 . S
O664 Co663 2.061 . S
O664 C667 1.235 . S
C665 O668 1.238 . S
C665 O669 1.241 . S
C666 O659 1.247 . S
C666 O660 1.261 . S
C667 O662 1.259 . S
C667 O664 1.235 . S
O668 Co658 2.021 . S
O668 C665 1.238 . S
O669 Co663 2.052 . S
O669 C665 1.241 . S
O670 Co658 2.137 . S
O670 C661 1.247 . S
O671 Co658 2.244 . S
O671 C661 1.272 . S
O671 Co663 2.135 . S
Co672 O673 2.216 . S
Co672 O674 2.091 . S
Co672 O676 2.004 . S
Co672 O682 2.021 . S
Co672 O684 2.137 . S
Co672 O685 2.244 . S
O673 Co672 2.216 . S
O673 C680 1.247 . S
O674 Co672 2.091 . S
O674 C680 1.261 . S
C675 O684 1.247 . S
C675 O685 1.272 . S
O676 Co672 2.004 . S
O676 C681 1.259 . S
Co677 O678 2.061 . S
Co677 O683 2.052 . S
Co677 O685 2.135 . S
O678 Co677 2.061 . S
O678 C681 1.235 . S
C679 O682 1.238 . S
C679 O683 1.241 . S
C680 O673 1.247 . S
C680 O674 1.261 . S
C681 O676 1.259 . S
C681 O678 1.235 . S
O682 Co672 2.021 . S
O682 C679 1.238 . S
O683 Co677 2.052 . S
O683 C679 1.241 . S
O684 Co672 2.137 . S
O684 C675 1.247 . S
O685 Co672 2.244 . S
O685 C675 1.272 . S
O685 Co677 2.135 . S
Co686 O687 2.216 . S
Co686 O688 2.091 . S
Co686 O690 2.004 . S
Co686 O696 2.021 . S
Co686 O698 2.137 . S
Co686 O699 2.244 . S
O687 Co686 2.216 . S
O687 C694 1.247 . S
O688 Co686 2.091 . S
O688 C694 1.261 . S
C689 O698 1.247 . S
C689 O699 1.272 . S
O690 Co686 2.004 . S
O690 C695 1.259 . S
Co691 O692 2.061 . S
Co691 O697 2.052 . S
Co691 O699 2.135 . S
O692 Co691 2.061 . S
O692 C695 1.235 . S
C693 O696 1.238 . S
C693 O697 1.241 . S
C694 O687 1.247 . S
C694 O688 1.261 . S
C695 O690 1.259 . S
C695 O692 1.235 . S
O696 Co686 2.021 . S
O696 C693 1.238 . S
O697 Co691 2.052 . S
O697 C693 1.241 . S
O698 Co686 2.137 . S
O698 C689 1.247 . S
O699 Co686 2.244 . S
O699 C689 1.272 . S
O699 Co691 2.135 . S
Co700 O701 2.216 . S
Co700 O702 2.091 . S
Co700 O704 2.004 . S
Co700 O710 2.021 . S
Co700 O712 2.137 . S
Co700 O713 2.244 . S
O701 Co700 2.216 . S
O701 C708 1.247 . S
O702 Co700 2.091 . S
O702 C708 1.261 . S
C703 O712 1.247 . S
C703 O713 1.272 . S
O704 Co700 2.004 . S
O704 C709 1.259 . S
Co705 O706 2.061 . S
Co705 O711 2.052 . S
Co705 O713 2.135 . S
O706 Co705 2.061 . S
O706 C709 1.235 . S
C707 O710 1.238 . S
C707 O711 1.241 . S
C708 O701 1.247 . S
C708 O702 1.261 . S
C709 O704 1.259 . S
C709 O706 1.235 . S
O710 Co700 2.021 . S
O710 C707 1.238 . S
O711 Co705 2.052 . S
O711 C707 1.241 . S
O712 Co700 2.137 . S
O712 C703 1.247 . S
O713 Co700 2.244 . S
O713 C703 1.272 . S
O713 Co705 2.135 . S
Co714 O715 2.216 . S
Co714 O716 2.091 . S
Co714 O718 2.004 . S
Co714 O724 2.021 . S
Co714 O726 2.137 . S
Co714 O727 2.244 . S
O715 Co714 2.216 . S
O715 C722 1.247 . S
O716 Co714 2.091 . S
O716 C722 1.261 . S
C717 O726 1.247 . S
C717 O727 1.272 . S
O718 Co714 2.004 . S
O718 C723 1.259 . S
Co719 O720 2.061 . S
Co719 O725 2.052 . S
Co719 O727 2.135 . S
O720 Co719 2.061 . S
O720 C723 1.235 . S
C721 O724 1.238 . S
C721 O725 1.241 . S
C722 O715 1.247 . S
C722 O716 1.261 . S
C723 O718 1.259 . S
C723 O720 1.235 . S
O724 Co714 2.021 . S
O724 C721 1.238 . S
O725 Co719 2.052 . S
O725 C721 1.241 . S
O726 Co714 2.137 . S
O726 C717 1.247 . S
O727 Co714 2.244 . S
O727 C717 1.272 . S
O727 Co719 2.135 . S
Co728 O729 2.216 . S
Co728 O730 2.091 . S
Co728 O732 2.004 . S
Co728 O738 2.021 . S
Co728 O740 2.137 . S
Co728 O741 2.244 . S
O729 Co728 2.216 . S
O729 C736 1.247 . S
O730 Co728 2.091 . S
O730 C736 1.261 . S
C731 O740 1.247 . S
C731 O741 1.272 . S
O732 Co728 2.004 . S
O732 C737 1.259 . S
Co733 O734 2.061 . S
Co733 O739 2.052 . S
Co733 O741 2.135 . S
O734 Co733 2.061 . S
O734 C737 1.235 . S
C735 O738 1.238 . S
C735 O739 1.241 . S
C736 O729 1.247 . S
C736 O730 1.261 . S
C737 O732 1.259 . S
C737 O734 1.235 . S
O738 Co728 2.021 . S
O738 C735 1.238 . S
O739 Co733 2.052 . S
O739 C735 1.241 . S
O740 Co728 2.137 . S
O740 C731 1.247 . S
O741 Co728 2.244 . S
O741 C731 1.272 . S
O741 Co733 2.135 . S
Co742 O743 2.216 . S
Co742 O744 2.091 . S
Co742 O746 2.004 . S
Co742 O752 2.021 . S
Co742 O754 2.137 . S
Co742 O755 2.244 . S
O743 Co742 2.216 . S
O743 C750 1.247 . S
O744 Co742 2.091 . S
O744 C750 1.261 . S
C745 O754 1.247 . S
C745 O755 1.272 . S
O746 Co742 2.004 . S
O746 C751 1.259 . S
Co747 O748 2.061 . S
Co747 O753 2.052 . S
Co747 O755 2.135 . S
O748 Co747 2.061 . S
O748 C751 1.235 . S
C749 O752 1.238 . S
C749 O753 1.241 . S
C750 O743 1.247 . S
C750 O744 1.261 . S
C751 O746 1.259 . S
C751 O748 1.235 . S
O752 Co742 2.021 . S
O752 C749 1.238 . S
O753 Co747 2.052 . S
O753 C749 1.241 . S
O754 Co742 2.137 . S
O754 C745 1.247 . S
O755 Co742 2.244 . S
O755 C745 1.272 . S
O755 Co747 2.135 . S
Co756 O757 2.216 . S
Co756 O758 2.091 . S
Co756 O760 2.004 . S
Co756 O766 2.021 . S
Co756 O768 2.137 . S
Co756 O769 2.244 . S
O757 Co756 2.216 . S
O757 C764 1.247 . S
O758 Co756 2.091 . S
O758 C764 1.261 . S
C759 O768 1.247 . S
C759 O769 1.272 . S
O760 Co756 2.004 . S
O760 C765 1.259 . S
Co761 O762 2.061 . S
Co761 O767 2.052 . S
Co761 O769 2.135 . S
O762 Co761 2.061 . S
O762 C765 1.235 . S
C763 O766 1.238 . S
C763 O767 1.241 . S
C764 O757 1.247 . S
C764 O758 1.261 . S
C765 O760 1.259 . S
C765 O762 1.235 . S
O766 Co756 2.021 . S
O766 C763 1.238 . S
O767 Co761 2.052 . S
O767 C763 1.241 . S
O768 Co756 2.137 . S
O768 C759 1.247 . S
O769 Co756 2.244 . S
O769 C759 1.272 . S
O769 Co761 2.135 . S
Co770 O771 2.216 . S
Co770 O772 2.091 . S
Co770 O774 2.004 . S
Co770 O780 2.021 . S
Co770 O782 2.137 . S
Co770 O783 2.244 . S
O771 Co770 2.216 . S
O771 C778 1.247 . S
O772 Co770 2.091 . S
O772 C778 1.261 . S
C773 O782 1.247 . S
C773 O783 1.272 . S
O774 Co770 2.004 . S
O774 C779 1.259 . S
Co775 O776 2.061 . S
Co775 O781 2.052 . S
Co775 O783 2.135 . S
O776 Co775 2.061 . S
O776 C779 1.235 . S
C777 O780 1.238 . S
C777 O781 1.241 . S
C778 O771 1.247 . S
C778 O772 1.261 . S
C779 O774 1.259 . S
C779 O776 1.235 . S
O780 Co770 2.021 . S
O780 C777 1.238 . S
O781 Co775 2.052 . S
O781 C777 1.241 . S
O782 Co770 2.137 . S
O782 C773 1.247 . S
O783 Co770 2.244 . S
O783 C773 1.272 . S
O783 Co775 2.135 . S
Co784 O785 2.216 . S
Co784 O786 2.091 . S
Co784 O788 2.004 . S
Co784 O794 2.021 . S
Co784 O796 2.137 . S
Co784 O797 2.244 . S
O785 Co784 2.216 . S
O785 C792 1.247 . S
O786 Co784 2.091 . S
O786 C792 1.261 . S
C787 O796 1.247 . S
C787 O797 1.272 . S
O788 Co784 2.004 . S
O788 C793 1.259 . S
Co789 O790 2.061 . S
Co789 O795 2.052 . S
Co789 O797 2.135 . S
O790 Co789 2.061 . S
O790 C793 1.235 . S
C791 O794 1.238 . S
C791 O795 1.241 . S
C792 O785 1.247 . S
C792 O786 1.261 . S
C793 O788 1.259 . S
C793 O790 1.235 . S
O794 Co784 2.021 . S
O794 C791 1.238 . S
O795 Co789 2.052 . S
O795 C791 1.241 . S
O796 Co784 2.137 . S
O796 C787 1.247 . S
O797 Co784 2.244 . S
O797 C787 1.272 . S
O797 Co789 2.135 . S
Co798 O799 2.216 . S
Co798 O800 2.091 . S
Co798 O802 2.004 . S
Co798 O808 2.021 . S
Co798 O810 2.137 . S
Co798 O811 2.244 . S
O799 Co798 2.216 . S
O799 C806 1.247 . S
O800 Co798 2.091 . S
O800 C806 1.261 . S
C801 O810 1.247 . S
C801 O811 1.272 . S
O802 Co798 2.004 . S
O802 C807 1.259 . S
Co803 O804 2.061 . S
Co803 O809 2.052 . S
Co803 O811 2.135 . S
O804 Co803 2.061 . S
O804 C807 1.235 . S
C805 O808 1.238 . S
C805 O809 1.241 . S
C806 O799 1.247 . S
C806 O800 1.261 . S
C807 O802 1.259 . S
C807 O804 1.235 . S
O808 Co798 2.021 . S
O808 C805 1.238 . S
O809 Co803 2.052 . S
O809 C805 1.241 . S
O810 Co798 2.137 . S
O810 C801 1.247 . S
O811 Co798 2.244 . S
O811 C801 1.272 . S
O811 Co803 2.135 . S
Co812 O813 2.216 . S
Co812 O814 2.091 . S
Co812 O816 2.004 . S
Co812 O822 2.021 . S
Co812 O824 2.137 . S
Co812 O825 2.244 . S
O813 Co812 2.216 . S
O813 C820 1.247 . S
O814 Co812 2.091 . S
O814 C820 1.261 . S
C815 O824 1.247 . S
C815 O825 1.272 . S
O816 Co812 2.004 . S
O816 C821 1.259 . S
Co817 O818 2.061 . S
Co817 O823 2.052 . S
Co817 O825 2.135 . S
O818 Co817 2.061 . S
O818 C821 1.235 . S
C819 O822 1.238 . S
C819 O823 1.241 . S
C820 O813 1.247 . S
C820 O814 1.261 . S
C821 O816 1.259 . S
C821 O818 1.235 . S
O822 Co812 2.021 . S
O822 C819 1.238 . S
O823 Co817 2.052 . S
O823 C819 1.241 . S
O824 Co812 2.137 . S
O824 C815 1.247 . S
O825 Co812 2.244 . S
O825 C815 1.272 . S
O825 Co817 2.135 . S
Co826 O827 2.216 . S
Co826 O828 2.091 . S
Co826 O830 2.004 . S
Co826 O836 2.021 . S
Co826 O838 2.137 . S
Co826 O839 2.244 . S
O827 Co826 2.216 . S
O827 C834 1.247 . S
O828 Co826 2.091 . S
O828 C834 1.261 . S
C829 O838 1.247 . S
C829 O839 1.272 . S
O830 Co826 2.004 . S
O830 C835 1.259 . S
Co831 O832 2.061 . S
Co831 O837 2.052 . S
Co831 O839 2.135 . S
O832 Co831 2.061 . S
O832 C835 1.235 . S
C833 O836 1.238 . S
C833 O837 1.241 . S
C834 O827 1.247 . S
C834 O828 1.261 . S
C835 O830 1.259 . S
C835 O832 1.235 . S
O836 Co826 2.021 . S
O836 C833 1.238 . S
O837 Co831 2.052 . S
O837 C833 1.241 . S
O838 Co826 2.137 . S
O838 C829 1.247 . S
O839 Co826 2.244 . S
O839 C829 1.272 . S
O839 Co831 2.135 . S
Co840 O841 2.216 . S
Co840 O842 2.091 . S
Co840 O844 2.004 . S
Co840 O850 2.021 . S
Co840 O852 2.137 . S
Co840 O853 2.244 . S
O841 Co840 2.216 . S
O841 C848 1.247 . S
O842 Co840 2.091 . S
O842 C848 1.261 . S
C843 O852 1.247 . S
C843 O853 1.272 . S
O844 Co840 2.004 . S
O844 C849 1.259 . S
Co845 O846 2.061 . S
Co845 O851 2.052 . S
Co845 O853 2.135 . S
O846 Co845 2.061 . S
O846 C849 1.235 . S
C847 O850 1.238 . S
C847 O851 1.241 . S
C848 O841 1.247 . S
C848 O842 1.261 . S
C849 O844 1.259 . S
C849 O846 1.235 . S
O850 Co840 2.021 . S
O850 C847 1.238 . S
O851 Co845 2.052 . S
O851 C847 1.241 . S
O852 Co840 2.137 . S
O852 C843 1.247 . S
O853 Co840 2.244 . S
O853 C843 1.272 . S
O853 Co845 2.135 . S
Co854 O855 2.216 . S
Co854 O856 2.091 . S
Co854 O858 2.004 . S
Co854 O864 2.021 . S
Co854 O866 2.137 . S
Co854 O867 2.244 . S
O855 Co854 2.216 . S
O855 C862 1.247 . S
O856 Co854 2.091 . S
O856 C862 1.261 . S
C857 O866 1.247 . S
C857 O867 1.272 . S
O858 Co854 2.004 . S
O858 C863 1.259 . S
Co859 O860 2.061 . S
Co859 O865 2.052 . S
Co859 O867 2.135 . S
O860 Co859 2.061 . S
O860 C863 1.235 . S
C861 O864 1.238 . S
C861 O865 1.241 . S
C862 O855 1.247 . S
C862 O856 1.261 . S
C863 O858 1.259 . S
C863 O860 1.235 . S
O864 Co854 2.021 . S
O864 C861 1.238 . S
O865 Co859 2.052 . S
O865 C861 1.241 . S
O866 Co854 2.137 . S
O866 C857 1.247 . S
O867 Co854 2.244 . S
O867 C857 1.272 . S
O867 Co859 2.135 . S
Co868 O869 2.216 . S
Co868 O870 2.091 . S
Co868 O872 2.004 . S
Co868 O878 2.021 . S
Co868 O880 2.137 . S
Co868 O881 2.244 . S
O869 Co868 2.216 . S
O869 C876 1.247 . S
O870 Co868 2.091 . S
O870 C876 1.261 . S
C871 O880 1.247 . S
C871 O881 1.272 . S
O872 Co868 2.004 . S
O872 C877 1.259 . S
Co873 O874 2.061 . S
Co873 O879 2.052 . S
Co873 O881 2.135 . S
O874 Co873 2.061 . S
O874 C877 1.235 . S
C875 O878 1.238 . S
C875 O879 1.241 . S
C876 O869 1.247 . S
C876 O870 1.261 . S
C877 O872 1.259 . S
C877 O874 1.235 . S
O878 Co868 2.021 . S
O878 C875 1.238 . S
O879 Co873 2.052 . S
O879 C875 1.241 . S
O880 Co868 2.137 . S
O880 C871 1.247 . S
O881 Co868 2.244 . S
O881 C871 1.272 . S
O881 Co873 2.135 . S
Co882 O883 2.216 . S
Co882 O884 2.091 . S
Co882 O886 2.004 . S
Co882 O892 2.021 . S
Co882 O894 2.137 . S
Co882 O895 2.244 . S
O883 Co882 2.216 . S
O883 C890 1.247 . S
O884 Co882 2.091 . S
O884 C890 1.261 . S
C885 O894 1.247 . S
C885 O895 1.272 . S
O886 Co882 2.004 . S
O886 C891 1.259 . S
Co887 O888 2.061 . S
Co887 O893 2.052 . S
Co887 O895 2.135 . S
O888 Co887 2.061 . S
O888 C891 1.235 . S
C889 O892 1.238 . S
C889 O893 1.241 . S
C890 O883 1.247 . S
C890 O884 1.261 . S
C891 O886 1.259 . S
C891 O888 1.235 . S
O892 Co882 2.021 . S
O892 C889 1.238 . S
O893 Co887 2.052 . S
O893 C889 1.241 . S
O894 Co882 2.137 . S
O894 C885 1.247 . S
O895 Co882 2.244 . S
O895 C885 1.272 . S
O895 Co887 2.135 . S
Co896 O897 2.216 . S
Co896 O898 2.091 . S
Co896 O900 2.004 . S
Co896 O906 2.021 . S
Co896 O908 2.137 . S
Co896 O909 2.244 . S
O897 Co896 2.216 . S
O897 C904 1.247 . S
O898 Co896 2.091 . S
O898 C904 1.261 . S
C899 O908 1.247 . S
C899 O909 1.272 . S
O900 Co896 2.004 . S
O900 C905 1.259 . S
Co901 O902 2.061 . S
Co901 O907 2.052 . S
Co901 O909 2.135 . S
O902 Co901 2.061 . S
O902 C905 1.235 . S
C903 O906 1.238 . S
C903 O907 1.241 . S
C904 O897 1.247 . S
C904 O898 1.261 . S
C905 O900 1.259 . S
C905 O902 1.235 . S
O906 Co896 2.021 . S
O906 C903 1.238 . S
O907 Co901 2.052 . S
O907 C903 1.241 . S
O908 Co896 2.137 . S
O908 C899 1.247 . S
O909 Co896 2.244 . S
O909 C899 1.272 . S
O909 Co901 2.135 . S
Co910 O911 2.216 . S
Co910 O912 2.091 . S
Co910 O914 2.004 . S
Co910 O920 2.021 . S
Co910 O922 2.137 . S
Co910 O923 2.244 . S
O911 Co910 2.216 . S
O911 C918 1.247 . S
O912 Co910 2.091 . S
O912 C918 1.261 . S
C913 O922 1.247 . S
C913 O923 1.272 . S
O914 Co910 2.004 . S
O914 C919 1.259 . S
Co915 O916 2.061 . S
Co915 O921 2.052 . S
Co915 O923 2.135 . S
O916 Co915 2.061 . S
O916 C919 1.235 . S
C917 O920 1.238 . S
C917 O921 1.241 . S
C918 O911 1.247 . S
C918 O912 1.261 . S
C919 O914 1.259 . S
C919 O916 1.235 . S
O920 Co910 2.021 . S
O920 C917 1.238 . S
O921 Co915 2.052 . S
O921 C917 1.241 . S
O922 Co910 2.137 . S
O922 C913 1.247 . S
O923 Co910 2.244 . S
O923 C913 1.272 . S
O923 Co915 2.135 . S
Co924 O925 2.216 . S
Co924 O926 2.091 . S
Co924 O928 2.004 . S
Co924 O934 2.021 . S
Co924 O936 2.137 . S
Co924 O937 2.244 . S
O925 Co924 2.216 . S
O925 C932 1.247 . S
O926 Co924 2.091 . S
O926 C932 1.261 . S
C927 O936 1.247 . S
C927 O937 1.272 . S
O928 Co924 2.004 . S
O928 C933 1.259 . S
Co929 O930 2.061 . S
Co929 O935 2.052 . S
Co929 O937 2.135 . S
O930 Co929 2.061 . S
O930 C933 1.235 . S
C931 O934 1.238 . S
C931 O935 1.241 . S
C932 O925 1.247 . S
C932 O926 1.261 . S
C933 O928 1.259 . S
C933 O930 1.235 . S
O934 Co924 2.021 . S
O934 C931 1.238 . S
O935 Co929 2.052 . S
O935 C931 1.241 . S
O936 Co924 2.137 . S
O936 C927 1.247 . S
O937 Co924 2.244 . S
O937 C927 1.272 . S
O937 Co929 2.135 . S
Co938 O939 2.216 . S
Co938 O940 2.091 . S
Co938 O942 2.004 . S
Co938 O948 2.021 . S
Co938 O950 2.137 . S
Co938 O951 2.244 . S
O939 Co938 2.216 . S
O939 C946 1.247 . S
O940 Co938 2.091 . S
O940 C946 1.261 . S
C941 O950 1.247 . S
C941 O951 1.272 . S
O942 Co938 2.004 . S
O942 C947 1.259 . S
Co943 O944 2.061 . S
Co943 O949 2.052 . S
Co943 O951 2.135 . S
O944 Co943 2.061 . S
O944 C947 1.235 . S
C945 O948 1.238 . S
C945 O949 1.241 . S
C946 O939 1.247 . S
C946 O940 1.261 . S
C947 O942 1.259 . S
C947 O944 1.235 . S
O948 Co938 2.021 . S
O948 C945 1.238 . S
O949 Co943 2.052 . S
O949 C945 1.241 . S
O950 Co938 2.137 . S
O950 C941 1.247 . S
O951 Co938 2.244 . S
O951 C941 1.272 . S
O951 Co943 2.135 . S
Co952 O953 2.216 . S
Co952 O954 2.091 . S
Co952 O956 2.004 . S
Co952 O962 2.021 . S
Co952 O964 2.137 . S
Co952 O965 2.244 . S
O953 Co952 2.216 . S
O953 C960 1.247 . S
O954 Co952 2.091 . S
O954 C960 1.261 . S
C955 O964 1.247 . S
C955 O965 1.272 . S
O956 Co952 2.004 . S
O956 C961 1.259 . S
Co957 O958 2.061 . S
Co957 O963 2.052 . S
Co957 O965 2.135 . S
O958 Co957 2.061 . S
O958 C961 1.235 . S
C959 O962 1.238 . S
C959 O963 1.241 . S
C960 O953 1.247 . S
C960 O954 1.261 . S
C961 O956 1.259 . S
C961 O958 1.235 . S
O962 Co952 2.021 . S
O962 C959 1.238 . S
O963 Co957 2.052 . S
O963 C959 1.241 . S
O964 Co952 2.137 . S
O964 C955 1.247 . S
O965 Co952 2.244 . S
O965 C955 1.272 . S
O965 Co957 2.135 . S
Co966 O967 2.216 . S
Co966 O968 2.091 . S
Co966 O970 2.004 . S
Co966 O976 2.021 . S
Co966 O978 2.137 . S
Co966 O979 2.244 . S
O967 Co966 2.216 . S
O967 C974 1.247 . S
O968 Co966 2.091 . S
O968 C974 1.261 . S
C969 O978 1.247 . S
C969 O979 1.272 . S
O970 Co966 2.004 . S
O970 C975 1.259 . S
Co971 O972 2.061 . S
Co971 O977 2.052 . S
Co971 O979 2.135 . S
O972 Co971 2.061 . S
O972 C975 1.235 . S
C973 O976 1.238 . S
C973 O977 1.241 . S
C974 O967 1.247 . S
C974 O968 1.261 . S
C975 O970 1.259 . S
C975 O972 1.235 . S
O976 Co966 2.021 . S
O976 C973 1.238 . S
O977 Co971 2.052 . S
O977 C973 1.241 . S
O978 Co966 2.137 . S
O978 C969 1.247 . S
O979 Co966 2.244 . S
O979 C969 1.272 . S
O979 Co971 2.135 . S
Co980 O981 2.216 . S
Co980 O982 2.091 . S
Co980 O984 2.004 . S
Co980 O990 2.021 . S
Co980 O992 2.137 . S
Co980 O993 2.244 . S
O981 Co980 2.216 . S
O981 C988 1.247 . S
O982 Co980 2.091 . S
O982 C988 1.261 . S
C983 O992 1.247 . S
C983 O993 1.272 . S
O984 Co980 2.004 . S
O984 C989 1.259 . S
Co985 O986 2.061 . S
Co985 O991 2.052 . S
Co985 O993 2.135 . S
O986 Co985 2.061 . S
O986 C989 1.235 . S
C987 O990 1.238 . S
C987 O991 1.241 . S
C988 O981 1.247 . S
C988 O982 1.261 . S
C989 O984 1.259 . S
C989 O986 1.235 . S
O990 Co980 2.021 . S
O990 C987 1.238 . S
O991 Co985 2.052 . S
O991 C987 1.241 . S
O992 Co980 2.137 . S
O992 C983 1.247 . S
O993 Co980 2.244 . S
O993 C983 1.272 . S
O993 Co985 2.135 . S
Co994 O995 2.216 . S
Co994 O996 2.091 . S
Co994 O998 2.004 . S
Co994 O1004 2.021 . S
Co994 O1006 2.137 . S
Co994 O1007 2.244 . S
O995 Co994 2.216 . S
O995 C1002 1.247 . S
O996 Co994 2.091 . S
O996 C1002 1.261 . S
C997 O1006 1.247 . S
C997 O1007 1.272 . S
O998 Co994 2.004 . S
O998 C1003 1.259 . S
Co999 O1000 2.061 . S
Co999 O1005 2.052 . S
Co999 O1007 2.135 . S
O1000 Co999 2.061 . S
O1000 C1003 1.235 . S
C1001 O1004 1.238 . S
C1001 O1005 1.241 . S
C1002 O995 1.247 . S
C1002 O996 1.261 . S
C1003 O998 1.259 . S
C1003 O1000 1.235 . S
O1004 Co994 2.021 . S
O1004 C1001 1.238 . S
O1005 Co999 2.052 . S
O1005 C1001 1.241 . S
O1006 Co994 2.137 . S
O1006 C997 1.247 . S
O1007 Co994 2.244 . S
O1007 C997 1.272 . S
O1007 Co999 2.135 . S
Co1008 O1009 2.216 . S
Co1008 O1010 2.091 . S
Co1008 O1012 2.004 . S
Co1008 O1018 2.021 . S
Co1008 O1020 2.137 . S
Co1008 O1021 2.244 . S
O1009 Co1008 2.216 . S
O1009 C1016 1.247 . S
O1010 Co1008 2.091 . S
O1010 C1016 1.261 . S
C1011 O1020 1.247 . S
C1011 O1021 1.272 . S
O1012 Co1008 2.004 . S
O1012 C1017 1.259 . S
Co1013 O1014 2.061 . S
Co1013 O1019 2.052 . S
Co1013 O1021 2.135 . S
O1014 Co1013 2.061 . S
O1014 C1017 1.235 . S
C1015 O1018 1.238 . S
C1015 O1019 1.241 . S
C1016 O1009 1.247 . S
C1016 O1010 1.261 . S
C1017 O1012 1.259 . S
C1017 O1014 1.235 . S
O1018 Co1008 2.021 . S
O1018 C1015 1.238 . S
O1019 Co1013 2.052 . S
O1019 C1015 1.241 . S
O1020 Co1008 2.137 . S
O1020 C1011 1.247 . S
O1021 Co1008 2.244 . S
O1021 C1011 1.272 . S
O1021 Co1013 2.135 . S
Co1022 O1023 2.216 . S
Co1022 O1024 2.091 . S
Co1022 O1026 2.004 . S
Co1022 O1032 2.021 . S
Co1022 O1034 2.137 . S
Co1022 O1035 2.244 . S
O1023 Co1022 2.216 . S
O1023 C1030 1.247 . S
O1024 Co1022 2.091 . S
O1024 C1030 1.261 . S
C1025 O1034 1.247 . S
C1025 O1035 1.272 . S
O1026 Co1022 2.004 . S
O1026 C1031 1.259 . S
Co1027 O1028 2.061 . S
Co1027 O1033 2.052 . S
Co1027 O1035 2.135 . S
O1028 Co1027 2.061 . S
O1028 C1031 1.235 . S
C1029 O1032 1.238 . S
C1029 O1033 1.241 . S
C1030 O1023 1.247 . S
C1030 O1024 1.261 . S
C1031 O1026 1.259 . S
C1031 O1028 1.235 . S
O1032 Co1022 2.021 . S
O1032 C1029 1.238 . S
O1033 Co1027 2.052 . S
O1033 C1029 1.241 . S
O1034 Co1022 2.137 . S
O1034 C1025 1.247 . S
O1035 Co1022 2.244 . S
O1035 C1025 1.272 . S
O1035 Co1027 2.135 . S
Co1036 O1037 2.216 . S
Co1036 O1038 2.091 . S
Co1036 O1040 2.004 . S
Co1036 O1046 2.021 . S
Co1036 O1048 2.137 . S
Co1036 O1049 2.244 . S
O1037 Co1036 2.216 . S
O1037 C1044 1.247 . S
O1038 Co1036 2.091 . S
O1038 C1044 1.261 . S
C1039 O1048 1.247 . S
C1039 O1049 1.272 . S
O1040 Co1036 2.004 . S
O1040 C1045 1.259 . S
Co1041 O1042 2.061 . S
Co1041 O1047 2.052 . S
Co1041 O1049 2.135 . S
O1042 Co1041 2.061 . S
O1042 C1045 1.235 . S
C1043 O1046 1.238 . S
C1043 O1047 1.241 . S
C1044 O1037 1.247 . S
C1044 O1038 1.261 . S
C1045 O1040 1.259 . S
C1045 O1042 1.235 . S
O1046 Co1036 2.021 . S
O1046 C1043 1.238 . S
O1047 Co1041 2.052 . S
O1047 C1043 1.241 . S
O1048 Co1036 2.137 . S
O1048 C1039 1.247 . S
O1049 Co1036 2.244 . S
O1049 C1039 1.272 . S
O1049 Co1041 2.135 . S
Co1050 O1051 2.216 . S
Co1050 O1052 2.091 . S
Co1050 O1054 2.004 . S
Co1050 O1060 2.021 . S
Co1050 O1062 2.137 . S
Co1050 O1063 2.244 . S
O1051 Co1050 2.216 . S
O1051 C1058 1.247 . S
O1052 Co1050 2.091 . S
O1052 C1058 1.261 . S
C1053 O1062 1.247 . S
C1053 O1063 1.272 . S
O1054 Co1050 2.004 . S
O1054 C1059 1.259 . S
Co1055 O1056 2.061 . S
Co1055 O1061 2.052 . S
Co1055 O1063 2.135 . S
O1056 Co1055 2.061 . S
O1056 C1059 1.235 . S
C1057 O1060 1.238 . S
C1057 O1061 1.241 . S
C1058 O1051 1.247 . S
C1058 O1052 1.261 . S
C1059 O1054 1.259 . S
C1059 O1056 1.235 . S
O1060 Co1050 2.021 . S
O1060 C1057 1.238 . S
O1061 Co1055 2.052 . S
O1061 C1057 1.241 . S
O1062 Co1050 2.137 . S
O1062 C1053 1.247 . S
O1063 Co1050 2.244 . S
O1063 C1053 1.272 . S
O1063 Co1055 2.135 . S
Co1064 O1065 2.216 . S
Co1064 O1066 2.091 . S
Co1064 O1068 2.004 . S
Co1064 O1074 2.021 . S
Co1064 O1076 2.137 . S
Co1064 O1077 2.244 . S
O1065 Co1064 2.216 . S
O1065 C1072 1.247 . S
O1066 Co1064 2.091 . S
O1066 C1072 1.261 . S
C1067 O1076 1.247 . S
C1067 O1077 1.272 . S
O1068 Co1064 2.004 . S
O1068 C1073 1.259 . S
Co1069 O1070 2.061 . S
Co1069 O1075 2.052 . S
Co1069 O1077 2.135 . S
O1070 Co1069 2.061 . S
O1070 C1073 1.235 . S
C1071 O1074 1.238 . S
C1071 O1075 1.241 . S
C1072 O1065 1.247 . S
C1072 O1066 1.261 . S
C1073 O1068 1.259 . S
C1073 O1070 1.235 . S
O1074 Co1064 2.021 . S
O1074 C1071 1.238 . S
O1075 Co1069 2.052 . S
O1075 C1071 1.241 . S
O1076 Co1064 2.137 . S
O1076 C1067 1.247 . S
O1077 Co1064 2.244 . S
O1077 C1067 1.272 . S
O1077 Co1069 2.135 . S
Co1078 O1079 2.216 . S
Co1078 O1080 2.091 . S
Co1078 O1082 2.004 . S
Co1078 O1088 2.021 . S
Co1078 O1090 2.137 . S
Co1078 O1091 2.244 . S
O1079 Co1078 2.216 . S
O1079 C1086 1.247 . S
O1080 Co1078 2.091 . S
O1080 C1086 1.261 . S
C1081 O1090 1.247 . S
C1081 O1091 1.272 . S
O1082 Co1078 2.004 . S
O1082 C1087 1.259 . S
Co1083 O1084 2.061 . S
Co1083 O1089 2.052 . S
Co1083 O1091 2.135 . S
O1084 Co1083 2.061 . S
O1084 C1087 1.235 . S
C1085 O1088 1.238 . S
C1085 O1089 1.241 . S
C1086 O1079 1.247 . S
C1086 O1080 1.261 . S
C1087 O1082 1.259 . S
C1087 O1084 1.235 . S
O1088 Co1078 2.021 . S
O1088 C1085 1.238 . S
O1089 Co1083 2.052 . S
O1089 C1085 1.241 . S
O1090 Co1078 2.137 . S
O1090 C1081 1.247 . S
O1091 Co1078 2.244 . S
O1091 C1081 1.272 . S
O1091 Co1083 2.135 . S
Co1092 O1093 2.216 . S
Co1092 O1094 2.091 . S
Co1092 O1096 2.004 . S
Co1092 O1102 2.021 . S
Co1092 O1104 2.137 . S
Co1092 O1105 2.244 . S
O1093 Co1092 2.216 . S
O1093 C1100 1.247 . S
O1094 Co1092 2.091 . S
O1094 C1100 1.261 . S
C1095 O1104 1.247 . S
C1095 O1105 1.272 . S
O1096 Co1092 2.004 . S
O1096 C1101 1.259 . S
Co1097 O1098 2.061 . S
Co1097 O1103 2.052 . S
Co1097 O1105 2.135 . S
O1098 Co1097 2.061 . S
O1098 C1101 1.235 . S
C1099 O1102 1.238 . S
C1099 O1103 1.241 . S
C1100 O1093 1.247 . S
C1100 O1094 1.261 . S
C1101 O1096 1.259 . S
C1101 O1098 1.235 . S
O1102 Co1092 2.021 . S
O1102 C1099 1.238 . S
O1103 Co1097 2.052 . S
O1103 C1099 1.241 . S
O1104 Co1092 2.137 . S
O1104 C1095 1.247 . S
O1105 Co1092 2.244 . S
O1105 C1095 1.272 . S
O1105 Co1097 2.135 . S
Co1106 O1107 2.216 . S
Co1106 O1108 2.091 . S
Co1106 O1110 2.004 . S
Co1106 O1116 2.021 . S
Co1106 O1118 2.137 . S
Co1106 O1119 2.244 . S
O1107 Co1106 2.216 . S
O1107 C1114 1.247 . S
O1108 Co1106 2.091 . S
O1108 C1114 1.261 . S
C1109 O1118 1.247 . S
C1109 O1119 1.272 . S
O1110 Co1106 2.004 . S
O1110 C1115 1.259 . S
Co1111 O1112 2.061 . S
Co1111 O1117 2.052 . S
Co1111 O1119 2.135 . S
O1112 Co1111 2.061 . S
O1112 C1115 1.235 . S
C1113 O1116 1.238 . S
C1113 O1117 1.241 . S
C1114 O1107 1.247 . S
C1114 O1108 1.261 . S
C1115 O1110 1.259 . S
C1115 O1112 1.235 . S
O1116 Co1106 2.021 . S
O1116 C1113 1.238 . S
O1117 Co1111 2.052 . S
O1117 C1113 1.241 . S
O1118 Co1106 2.137 . S
O1118 C1109 1.247 . S
O1119 Co1106 2.244 . S
O1119 C1109 1.272 . S
O1119 Co1111 2.135 . S
Co1120 O1121 2.216 . S
Co1120 O1122 2.091 . S
Co1120 O1124 2.004 . S
Co1120 O1130 2.021 . S
Co1120 O1132 2.137 . S
Co1120 O1133 2.244 . S
O1121 Co1120 2.216 . S
O1121 C1128 1.247 . S
O1122 Co1120 2.091 . S
O1122 C1128 1.261 . S
C1123 O1132 1.247 . S
C1123 O1133 1.272 . S
O1124 Co1120 2.004 . S
O1124 C1129 1.259 . S
Co1125 O1126 2.061 . S
Co1125 O1131 2.052 . S
Co1125 O1133 2.135 . S
O1126 Co1125 2.061 . S
O1126 C1129 1.235 . S
C1127 O1130 1.238 . S
C1127 O1131 1.241 . S
C1128 O1121 1.247 . S
C1128 O1122 1.261 . S
C1129 O1124 1.259 . S
C1129 O1126 1.235 . S
O1130 Co1120 2.021 . S
O1130 C1127 1.238 . S
O1131 Co1125 2.052 . S
O1131 C1127 1.241 . S
O1132 Co1120 2.137 . S
O1132 C1123 1.247 . S
O1133 Co1120 2.244 . S
O1133 C1123 1.272 . S
O1133 Co1125 2.135 . S
Co1134 O1135 2.216 . S
Co1134 O1136 2.091 . S
Co1134 O1138 2.004 . S
Co1134 O1144 2.021 . S
Co1134 O1146 2.137 . S
Co1134 O1147 2.244 . S
O1135 Co1134 2.216 . S
O1135 C1142 1.247 . S
O1136 Co1134 2.091 . S
O1136 C1142 1.261 . S
C1137 O1146 1.247 . S
C1137 O1147 1.272 . S
O1138 Co1134 2.004 . S
O1138 C1143 1.259 . S
Co1139 O1140 2.061 . S
Co1139 O1145 2.052 . S
Co1139 O1147 2.135 . S
O1140 Co1139 2.061 . S
O1140 C1143 1.235 . S
C1141 O1144 1.238 . S
C1141 O1145 1.241 . S
C1142 O1135 1.247 . S
C1142 O1136 1.261 . S
C1143 O1138 1.259 . S
C1143 O1140 1.235 . S
O1144 Co1134 2.021 . S
O1144 C1141 1.238 . S
O1145 Co1139 2.052 . S
O1145 C1141 1.241 . S
O1146 Co1134 2.137 . S
O1146 C1137 1.247 . S
O1147 Co1134 2.244 . S
O1147 C1137 1.272 . S
O1147 Co1139 2.135 . S
Co1148 O1149 2.216 . S
Co1148 O1150 2.091 . S
Co1148 O1152 2.004 . S
Co1148 O1158 2.021 . S
Co1148 O1160 2.137 . S
Co1148 O1161 2.244 . S
O1149 Co1148 2.216 . S
O1149 C1156 1.247 . S
O1150 Co1148 2.091 . S
O1150 C1156 1.261 . S
C1151 O1160 1.247 . S
C1151 O1161 1.272 . S
O1152 Co1148 2.004 . S
O1152 C1157 1.259 . S
Co1153 O1154 2.061 . S
Co1153 O1159 2.052 . S
Co1153 O1161 2.135 . S
O1154 Co1153 2.061 . S
O1154 C1157 1.235 . S
C1155 O1158 1.238 . S
C1155 O1159 1.241 . S
C1156 O1149 1.247 . S
C1156 O1150 1.261 . S
C1157 O1152 1.259 . S
C1157 O1154 1.235 . S
O1158 Co1148 2.021 . S
O1158 C1155 1.238 . S
O1159 Co1153 2.052 . S
O1159 C1155 1.241 . S
O1160 Co1148 2.137 . S
O1160 C1151 1.247 . S
O1161 Co1148 2.244 . S
O1161 C1151 1.272 . S
O1161 Co1153 2.135 . S
Co1162 O1163 2.216 . S
Co1162 O1164 2.091 . S
Co1162 O1166 2.004 . S
Co1162 O1172 2.021 . S
Co1162 O1174 2.137 . S
Co1162 O1175 2.244 . S
O1163 Co1162 2.216 . S
O1163 C1170 1.247 . S
O1164 Co1162 2.091 . S
O1164 C1170 1.261 . S
C1165 O1174 1.247 . S
C1165 O1175 1.272 . S
O1166 Co1162 2.004 . S
O1166 C1171 1.259 . S
Co1167 O1168 2.061 . S
Co1167 O1173 2.052 . S
Co1167 O1175 2.135 . S
O1168 Co1167 2.061 . S
O1168 C1171 1.235 . S
C1169 O1172 1.238 . S
C1169 O1173 1.241 . S
C1170 O1163 1.247 . S
C1170 O1164 1.261 . S
C1171 O1166 1.259 . S
C1171 O1168 1.235 . S
O1172 Co1162 2.021 . S
O1172 C1169 1.238 . S
O1173 Co1167 2.052 . S
O1173 C1169 1.241 . S
O1174 Co1162 2.137 . S
O1174 C1165 1.247 . S
O1175 Co1162 2.244 . S
O1175 C1165 1.272 . S
O1175 Co1167 2.135 . S
Co1176 O1177 2.216 . S
Co1176 O1178 2.091 . S
Co1176 O1180 2.004 . S
Co1176 O1186 2.021 . S
Co1176 O1188 2.137 . S
Co1176 O1189 2.244 . S
O1177 Co1176 2.216 . S
O1177 C1184 1.247 . S
O1178 Co1176 2.091 . S
O1178 C1184 1.261 . S
C1179 O1188 1.247 . S
C1179 O1189 1.272 . S
O1180 Co1176 2.004 . S
O1180 C1185 1.259 . S
Co1181 O1182 2.061 . S
Co1181 O1187 2.052 . S
Co1181 O1189 2.135 . S
O1182 Co1181 2.061 . S
O1182 C1185 1.235 . S
C1183 O1186 1.238 . S
C1183 O1187 1.241 . S
C1184 O1177 1.247 . S
C1184 O1178 1.261 . S
C1185 O1180 1.259 . S
C1185 O1182 1.235 . S
O1186 Co1176 2.021 . S
O1186 C1183 1.238 . S
O1187 Co1181 2.052 . S
O1187 C1183 1.241 . S
O1188 Co1176 2.137 . S
O1188 C1179 1.247 . S
O1189 Co1176 2.244 . S
O1189 C1179 1.272 . S
O1189 Co1181 2.135 . S
Co1190 O1191 2.216 . S
Co1190 O1192 2.091 . S
Co1190 O1194 2.004 . S
Co1190 O1200 2.021 . S
Co1190 O1202 2.137 . S
Co1190 O1203 2.244 . S
O1191 Co1190 2.216 . S
O1191 C1198 1.247 . S
O1192 Co1190 2.091 . S
O1192 C1198 1.261 . S
C1193 O1202 1.247 . S
C1193 O1203 1.272 . S
O1194 Co1190 2.004 . S
O1194 C1199 1.259 . S
Co1195 O1196 2.061 . S
Co1195 O1201 2.052 . S
Co1195 O1203 2.135 . S
O1196 Co1195 2.061 . S
O1196 C1199 1.235 . S
C1197 O1200 1.238 . S
C1197 O1201 1.241 . S
C1198 O1191 1.247 . S
C1198 O1192 1.261 . S
C1199 O1194 1.259 . S
C1199 O1196 1.235 . S
O1200 Co1190 2.021 . S
O1200 C1197 1.238 . S
O1201 Co1195 2.052 . S
O1201 C1197 1.241 . S
O1202 Co1190 2.137 . S
O1202 C1193 1.247 . S
O1203 Co1190 2.244 . S
O1203 C1193 1.272 . S
O1203 Co1195 2.135 . S
Co1204 O1205 2.216 . S
Co1204 O1206 2.091 . S
Co1204 O1208 2.004 . S
Co1204 O1214 2.021 . S
Co1204 O1216 2.137 . S
Co1204 O1217 2.244 . S
O1205 Co1204 2.216 . S
O1205 C1212 1.247 . S
O1206 Co1204 2.091 . S
O1206 C1212 1.261 . S
C1207 O1216 1.247 . S
C1207 O1217 1.272 . S
O1208 Co1204 2.004 . S
O1208 C1213 1.259 . S
Co1209 O1210 2.061 . S
Co1209 O1215 2.052 . S
Co1209 O1217 2.135 . S
O1210 Co1209 2.061 . S
O1210 C1213 1.235 . S
C1211 O1214 1.238 . S
C1211 O1215 1.241 . S
C1212 O1205 1.247 . S
C1212 O1206 1.261 . S
C1213 O1208 1.259 . S
C1213 O1210 1.235 . S
O1214 Co1204 2.021 . S
O1214 C1211 1.238 . S
O1215 Co1209 2.052 . S
O1215 C1211 1.241 . S
O1216 Co1204 2.137 . S
O1216 C1207 1.247 . S
O1217 Co1204 2.244 . S
O1217 C1207 1.272 . S
O1217 Co1209 2.135 . S
Co1218 O1219 2.216 . S
Co1218 O1220 2.091 . S
Co1218 O1222 2.004 . S
Co1218 O1228 2.021 . S
Co1218 O1230 2.137 . S
Co1218 O1231 2.244 . S
O1219 Co1218 2.216 . S
O1219 C1226 1.247 . S
O1220 Co1218 2.091 . S
O1220 C1226 1.261 . S
C1221 O1230 1.247 . S
C1221 O1231 1.272 . S
O1222 Co1218 2.004 . S
O1222 C1227 1.259 . S
Co1223 O1224 2.061 . S
Co1223 O1229 2.052 . S
Co1223 O1231 2.135 . S
O1224 Co1223 2.061 . S
O1224 C1227 1.235 . S
C1225 O1228 1.238 . S
C1225 O1229 1.241 . S
C1226 O1219 1.247 . S
C1226 O1220 1.261 . S
C1227 O1222 1.259 . S
C1227 O1224 1.235 . S
O1228 Co1218 2.021 . S
O1228 C1225 1.238 . S
O1229 Co1223 2.052 . S
O1229 C1225 1.241 . S
O1230 Co1218 2.137 . S
O1230 C1221 1.247 . S
O1231 Co1218 2.244 . S
O1231 C1221 1.272 . S
O1231 Co1223 2.135 . S
Co1232 O1233 2.216 . S
Co1232 O1234 2.091 . S
Co1232 O1236 2.004 . S
Co1232 O1242 2.021 . S
Co1232 O1244 2.137 . S
Co1232 O1245 2.244 . S
O1233 Co1232 2.216 . S
O1233 C1240 1.247 . S
O1234 Co1232 2.091 . S
O1234 C1240 1.261 . S
C1235 O1244 1.247 . S
C1235 O1245 1.272 . S
O1236 Co1232 2.004 . S
O1236 C1241 1.259 . S
Co1237 O1238 2.061 . S
Co1237 O1243 2.052 . S
Co1237 O1245 2.135 . S
O1238 Co1237 2.061 . S
O1238 C1241 1.235 . S
C1239 O1242 1.238 . S
C1239 O1243 1.241 . S
C1240 O1233 1.247 . S
C1240 O1234 1.261 . S
C1241 O1236 1.259 . S
C1241 O1238 1.235 . S
O1242 Co1232 2.021 . S
O1242 C1239 1.238 . S
O1243 Co1237 2.052 . S
O1243 C1239 1.241 . S
O1244 Co1232 2.137 . S
O1244 C1235 1.247 . S
O1245 Co1232 2.244 . S
O1245 C1235 1.272 . S
O1245 Co1237 2.135 . S
Co1246 O1247 2.216 . S
Co1246 O1248 2.091 . S
Co1246 O1250 2.004 . S
Co1246 O1256 2.021 . S
Co1246 O1258 2.137 . S
Co1246 O1259 2.244 . S
O1247 Co1246 2.216 . S
O1247 C1254 1.247 . S
O1248 Co1246 2.091 . S
O1248 C1254 1.261 . S
C1249 O1258 1.247 . S
C1249 O1259 1.272 . S
O1250 Co1246 2.004 . S
O1250 C1255 1.259 . S
Co1251 O1252 2.061 . S
Co1251 O1257 2.052 . S
Co1251 O1259 2.135 . S
O1252 Co1251 2.061 . S
O1252 C1255 1.235 . S
C1253 O1256 1.238 . S
C1253 O1257 1.241 . S
C1254 O1247 1.247 . S
C1254 O1248 1.261 . S
C1255 O1250 1.259 . S
C1255 O1252 1.235 . S
O1256 Co1246 2.021 . S
O1256 C1253 1.238 . S
O1257 Co1251 2.052 . S
O1257 C1253 1.241 . S
O1258 Co1246 2.137 . S
O1258 C1249 1.247 . S
O1259 Co1246 2.244 . S
O1259 C1249 1.272 . S
O1259 Co1251 2.135 . S
Co1260 O1261 2.216 . S
Co1260 O1262 2.091 . S
Co1260 O1264 2.004 . S
Co1260 O1270 2.021 . S
Co1260 O1272 2.137 . S
Co1260 O1273 2.244 . S
O1261 Co1260 2.216 . S
O1261 C1268 1.247 . S
O1262 Co1260 2.091 . S
O1262 C1268 1.261 . S
C1263 O1272 1.247 . S
C1263 O1273 1.272 . S
O1264 Co1260 2.004 . S
O1264 C1269 1.259 . S
Co1265 O1266 2.061 . S
Co1265 O1271 2.052 . S
Co1265 O1273 2.135 . S
O1266 Co1265 2.061 . S
O1266 C1269 1.235 . S
C1267 O1270 1.238 . S
C1267 O1271 1.241 . S
C1268 O1261 1.247 . S
C1268 O1262 1.261 . S
C1269 O1264 1.259 . S
C1269 O1266 1.235 . S
O1270 Co1260 2.021 . S
O1270 C1267 1.238 . S
O1271 Co1265 2.052 . S
O1271 C1267 1.241 . S
O1272 Co1260 2.137 . S
O1272 C1263 1.247 . S
O1273 Co1260 2.244 . S
O1273 C1263 1.272 . S
O1273 Co1265 2.135 . S
Co1274 O1275 2.216 . S
Co1274 O1276 2.091 . S
Co1274 O1278 2.004 . S
Co1274 O1284 2.021 . S
Co1274 O1286 2.137 . S
Co1274 O1287 2.244 . S
O1275 Co1274 2.216 . S
O1275 C1282 1.247 . S
O1276 Co1274 2.091 . S
O1276 C1282 1.261 . S
C1277 O1286 1.247 . S
C1277 O1287 1.272 . S
O1278 Co1274 2.004 . S
O1278 C1283 1.259 . S
Co1279 O1280 2.061 . S
Co1279 O1285 2.052 . S
Co1279 O1287 2.135 . S
O1280 Co1279 2.061 . S
O1280 C1283 1.235 . S
C1281 O1284 1.238 . S
C1281 O1285 1.241 . S
C1282 O1275 1.247 . S
C1282 O1276 1.261 . S
C1283 O1278 1.259 . S
C1283 O1280 1.235 . S
O1284 Co1274 2.021 . S
O1284 C1281 1.238 . S
O1285 Co1279 2.052 . S
O1285 C1281 1.241 . S
O1286 Co1274 2.137 . S
O1286 C1277 1.247 . S
O1287 Co1274 2.244 . S
O1287 C1277 1.272 . S
O1287 Co1279 2.135 . S
Co1288 O1289 2.216 . S
Co1288 O1290 2.091 . S
Co1288 O1292 2.004 . S
Co1288 O1298 2.021 . S
Co1288 O1300 2.137 . S
Co1288 O1301 2.244 . S
O1289 Co1288 2.216 . S
O1289 C1296 1.247 . S
O1290 Co1288 2.091 . S
O1290 C1296 1.261 . S
C1291 O1300 1.247 . S
C1291 O1301 1.272 . S
O1292 Co1288 2.004 . S
O1292 C1297 1.259 . S
Co1293 O1294 2.061 . S
Co1293 O1299 2.052 . S
Co1293 O1301 2.135 . S
O1294 Co1293 2.061 . S
O1294 C1297 1.235 . S
C1295 O1298 1.238 . S
C1295 O1299 1.241 . S
C1296 O1289 1.247 . S
C1296 O1290 1.261 . S
C1297 O1292 1.259 . S
C1297 O1294 1.235 . S
O1298 Co1288 2.021 . S
O1298 C1295 1.238 . S
O1299 Co1293 2.052 . S
O1299 C1295 1.241 . S
O1300 Co1288 2.137 . S
O1300 C1291 1.247 . S
O1301 Co1288 2.244 . S
O1301 C1291 1.272 . S
O1301 Co1293 2.135 . S
Co1302 O1303 2.216 . S
Co1302 O1304 2.091 . S
Co1302 O1306 2.004 . S
Co1302 O1312 2.021 . S
Co1302 O1314 2.137 . S
Co1302 O1315 2.244 . S
O1303 Co1302 2.216 . S
O1303 C1310 1.247 . S
O1304 Co1302 2.091 . S
O1304 C1310 1.261 . S
C1305 O1314 1.247 . S
C1305 O1315 1.272 . S
O1306 Co1302 2.004 . S
O1306 C1311 1.259 . S
Co1307 O1308 2.061 . S
Co1307 O1313 2.052 . S
Co1307 O1315 2.135 . S
O1308 Co1307 2.061 . S
O1308 C1311 1.235 . S
C1309 O1312 1.238 . S
C1309 O1313 1.241 . S
C1310 O1303 1.247 . S
C1310 O1304 1.261 . S
C1311 O1306 1.259 . S
C1311 O1308 1.235 . S
O1312 Co1302 2.021 . S
O1312 C1309 1.238 . S
O1313 Co1307 2.052 . S
O1313 C1309 1.241 . S
O1314 Co1302 2.137 . S
O1314 C1305 1.247 . S
O1315 Co1302 2.244 . S
O1315 C1305 1.272 . S
O1315 Co1307 2.135 . S
Co1316 O1317 2.216 . S
Co1316 O1318 2.091 . S
Co1316 O1320 2.004 . S
Co1316 O1326 2.021 . S
Co1316 O1328 2.137 . S
Co1316 O1329 2.244 . S
O1317 Co1316 2.216 . S
O1317 C1324 1.247 . S
O1318 Co1316 2.091 . S
O1318 C1324 1.261 . S
C1319 O1328 1.247 . S
C1319 O1329 1.272 . S
O1320 Co1316 2.004 . S
O1320 C1325 1.259 . S
Co1321 O1322 2.061 . S
Co1321 O1327 2.052 . S
Co1321 O1329 2.135 . S
O1322 Co1321 2.061 . S
O1322 C1325 1.235 . S
C1323 O1326 1.238 . S
C1323 O1327 1.241 . S
C1324 O1317 1.247 . S
C1324 O1318 1.261 . S
C1325 O1320 1.259 . S
C1325 O1322 1.235 . S
O1326 Co1316 2.021 . S
O1326 C1323 1.238 . S
O1327 Co1321 2.052 . S
O1327 C1323 1.241 . S
O1328 Co1316 2.137 . S
O1328 C1319 1.247 . S
O1329 Co1316 2.244 . S
O1329 C1319 1.272 . S
O1329 Co1321 2.135 . S
Co1330 O1331 2.216 . S
Co1330 O1332 2.091 . S
Co1330 O1334 2.004 . S
Co1330 O1340 2.021 . S
Co1330 O1342 2.137 . S
Co1330 O1343 2.244 . S
O1331 Co1330 2.216 . S
O1331 C1338 1.247 . S
O1332 Co1330 2.091 . S
O1332 C1338 1.261 . S
C1333 O1342 1.247 . S
C1333 O1343 1.272 . S
O1334 Co1330 2.004 . S
O1334 C1339 1.259 . S
Co1335 O1336 2.061 . S
Co1335 O1341 2.052 . S
Co1335 O1343 2.135 . S
O1336 Co1335 2.061 . S
O1336 C1339 1.235 . S
C1337 O1340 1.238 . S
C1337 O1341 1.241 . S
C1338 O1331 1.247 . S
C1338 O1332 1.261 . S
C1339 O1334 1.259 . S
C1339 O1336 1.235 . S
O1340 Co1330 2.021 . S
O1340 C1337 1.238 . S
O1341 Co1335 2.052 . S
O1341 C1337 1.241 . S
O1342 Co1330 2.137 . S
O1342 C1333 1.247 . S
O1343 Co1330 2.244 . S
O1343 C1333 1.272 . S
O1343 Co1335 2.135 . S
C1344 C1345 1.391 . S
C1344 C1346 1.394 . S
C1344 H1360 0.931 . S
C1345 C1344 1.391 . S
C1345 C1349 1.376 . S
C1346 C1344 1.394 . S
C1346 C1347 1.369 . S
C1346 C1350 1.531 . S
C1347 C1346 1.369 . S
C1347 C1348 1.410 . S
C1347 C1355 1.503 . S
C1348 C1347 1.410 . S
C1348 C1349 1.392 . S
C1348 C1351 1.511 . S
C1349 C1345 1.376 . S
C1349 C1348 1.392 . S
C1349 H1361 0.929 . S
C1350 C1346 1.531 . S
C1350 H1362 0.960 . S
C1350 H1363 0.962 . S
C1350 H1364 0.960 . S
C1351 C1348 1.511 . S
C1351 H1365 0.961 . S
C1351 H1366 0.961 . S
C1351 H1367 0.961 . S
C1352 C1353 1.370 . S
C1352 C1354 1.363 . S
C1352 H1368 0.931 . S
C1353 C1352 1.370 . S
C1353 C1357 1.408 . S
C1354 C1352 1.363 . S
C1354 C1355 1.370 . S
C1354 C1358 1.524 . S
C1355 C1347 1.503 . S
C1355 C1354 1.370 . S
C1355 C1356 1.403 . S
C1356 C1355 1.403 . S
C1356 C1357 1.404 . S
C1356 C1359 1.539 . S
C1357 C1353 1.408 . S
C1357 C1356 1.404 . S
C1357 H1369 0.930 . S
C1358 C1354 1.524 . S
C1358 H1370 0.956 . S
C1358 H1371 0.961 . S
C1358 H1372 0.961 . S
C1359 C1356 1.539 . S
C1359 H1373 0.958 . S
C1359 H1374 0.961 . S
C1359 H1375 0.960 . S
H1360 C1344 0.931 . S
H1361 C1349 0.929 . S
H1362 C1350 0.960 . S
H1363 C1350 0.962 . S
H1364 C1350 0.960 . S
H1365 C1351 0.961 . S
H1366 C1351 0.961 . S
H1367 C1351 0.961 . S
H1368 C1352 0.931 . S
H1369 C1357 0.930 . S
H1370 C1358 0.956 . S
H1371 C1358 0.961 . S
H1372 C1358 0.961 . S
H1373 C1359 0.958 . S
H1374 C1359 0.961 . S
H1375 C1359 0.960 . S
C1376 C1377 1.391 . S
C1376 C1378 1.394 . S
C1376 H1392 0.931 . S
C1377 C1376 1.391 . S
C1377 C1381 1.376 . S
C1378 C1376 1.394 . S
C1378 C1379 1.369 . S
C1378 C1382 1.531 . S
C1379 C1378 1.369 . S
C1379 C1380 1.410 . S
C1379 C1387 1.503 . S
C1380 C1379 1.410 . S
C1380 C1381 1.392 . S
C1380 C1383 1.511 . S
C1381 C1377 1.376 . S
C1381 C1380 1.392 . S
C1381 H1393 0.929 . S
C1382 C1378 1.531 . S
C1382 H1394 0.960 . S
C1382 H1395 0.962 . S
C1382 H1396 0.960 . S
C1383 C1380 1.511 . S
C1383 H1397 0.961 . S
C1383 H1398 0.961 . S
C1383 H1399 0.961 . S
C1384 C1385 1.370 . S
C1384 C1386 1.363 . S
C1384 H1400 0.931 . S
C1385 C1384 1.370 . S
C1385 C1389 1.408 . S
C1386 C1384 1.363 . S
C1386 C1387 1.370 . S
C1386 C1390 1.524 . S
C1387 C1379 1.503 . S
C1387 C1386 1.370 . S
C1387 C1388 1.403 . S
C1388 C1387 1.403 . S
C1388 C1389 1.404 . S
C1388 C1391 1.539 . S
C1389 C1385 1.408 . S
C1389 C1388 1.404 . S
C1389 H1401 0.930 . S
C1390 C1386 1.524 . S
C1390 H1402 0.956 . S
C1390 H1403 0.961 . S
C1390 H1404 0.961 . S
C1391 C1388 1.539 . S
C1391 H1405 0.958 . S
C1391 H1406 0.961 . S
C1391 H1407 0.960 . S
H1392 C1376 0.931 . S
H1393 C1381 0.929 . S
H1394 C1382 0.960 . S
H1395 C1382 0.962 . S
H1396 C1382 0.960 . S
H1397 C1383 0.961 . S
H1398 C1383 0.961 . S
H1399 C1383 0.961 . S
H1400 C1384 0.931 . S
H1401 C1389 0.930 . S
H1402 C1390 0.956 . S
H1403 C1390 0.961 . S
H1404 C1390 0.961 . S
H1405 C1391 0.958 . S
H1406 C1391 0.961 . S
H1407 C1391 0.960 . S
C1408 C1409 1.391 . S
C1408 C1410 1.394 . S
C1408 H1424 0.931 . S
C1409 C1408 1.391 . S
C1409 C1413 1.376 . S
C1410 C1408 1.394 . S
C1410 C1411 1.369 . S
C1410 C1414 1.531 . S
C1411 C1410 1.369 . S
C1411 C1412 1.410 . S
C1411 C1419 1.503 . S
C1412 C1411 1.410 . S
C1412 C1413 1.392 . S
C1412 C1415 1.511 . S
C1413 C1409 1.376 . S
C1413 C1412 1.392 . S
C1413 H1425 0.929 . S
C1414 C1410 1.531 . S
C1414 H1426 0.960 . S
C1414 H1427 0.962 . S
C1414 H1428 0.960 . S
C1415 C1412 1.511 . S
C1415 H1429 0.961 . S
C1415 H1430 0.961 . S
C1415 H1431 0.961 . S
C1416 C1417 1.370 . S
C1416 C1418 1.363 . S
C1416 H1432 0.931 . S
C1417 C1416 1.370 . S
C1417 C1421 1.408 . S
C1418 C1416 1.363 . S
C1418 C1419 1.370 . S
C1418 C1422 1.524 . S
C1419 C1411 1.503 . S
C1419 C1418 1.370 . S
C1419 C1420 1.403 . S
C1420 C1419 1.403 . S
C1420 C1421 1.404 . S
C1420 C1423 1.539 . S
C1421 C1417 1.408 . S
C1421 C1420 1.404 . S
C1421 H1433 0.930 . S
C1422 C1418 1.524 . S
C1422 H1434 0.956 . S
C1422 H1435 0.961 . S
C1422 H1436 0.961 . S
C1423 C1420 1.539 . S
C1423 H1437 0.958 . S
C1423 H1438 0.961 . S
C1423 H1439 0.960 . S
H1424 C1408 0.931 . S
H1425 C1413 0.929 . S
H1426 C1414 0.960 . S
H1427 C1414 0.962 . S
H1428 C1414 0.960 . S
H1429 C1415 0.961 . S
H1430 C1415 0.961 . S
H1431 C1415 0.961 . S
H1432 C1416 0.931 . S
H1433 C1421 0.930 . S
H1434 C1422 0.956 . S
H1435 C1422 0.961 . S
H1436 C1422 0.961 . S
H1437 C1423 0.958 . S
H1438 C1423 0.961 . S
H1439 C1423 0.960 . S
C1440 C1441 1.391 . S
C1440 C1442 1.394 . S
C1440 H1456 0.931 . S
C1441 C1440 1.391 . S
C1441 C1445 1.376 . S
C1442 C1440 1.394 . S
C1442 C1443 1.369 . S
C1442 C1446 1.531 . S
C1443 C1442 1.369 . S
C1443 C1444 1.410 . S
C1443 C1451 1.503 . S
C1444 C1443 1.410 . S
C1444 C1445 1.392 . S
C1444 C1447 1.511 . S
C1445 C1441 1.376 . S
C1445 C1444 1.392 . S
C1445 H1457 0.929 . S
C1446 C1442 1.531 . S
C1446 H1458 0.960 . S
C1446 H1459 0.962 . S
C1446 H1460 0.960 . S
C1447 C1444 1.511 . S
C1447 H1461 0.961 . S
C1447 H1462 0.961 . S
C1447 H1463 0.961 . S
C1448 C1449 1.370 . S
C1448 C1450 1.363 . S
C1448 H1464 0.931 . S
C1449 C1448 1.370 . S
C1449 C1453 1.408 . S
C1450 C1448 1.363 . S
C1450 C1451 1.370 . S
C1450 C1454 1.524 . S
C1451 C1443 1.503 . S
C1451 C1450 1.370 . S
C1451 C1452 1.403 . S
C1452 C1451 1.403 . S
C1452 C1453 1.404 . S
C1452 C1455 1.539 . S
C1453 C1449 1.408 . S
C1453 C1452 1.404 . S
C1453 H1465 0.930 . S
C1454 C1450 1.524 . S
C1454 H1466 0.956 . S
C1454 H1467 0.961 . S
C1454 H1468 0.961 . S
C1455 C1452 1.539 . S
C1455 H1469 0.958 . S
C1455 H1470 0.961 . S
C1455 H1471 0.960 . S
H1456 C1440 0.931 . S
H1457 C1445 0.929 . S
H1458 C1446 0.960 . S
H1459 C1446 0.962 . S
H1460 C1446 0.960 . S
H1461 C1447 0.961 . S
H1462 C1447 0.961 . S
H1463 C1447 0.961 . S
H1464 C1448 0.931 . S
H1465 C1453 0.930 . S
H1466 C1454 0.956 . S
H1467 C1454 0.961 . S
H1468 C1454 0.961 . S
H1469 C1455 0.958 . S
H1470 C1455 0.961 . S
H1471 C1455 0.960 . S
C1472 C1473 1.391 . S
C1472 C1474 1.394 . S
C1472 H1488 0.931 . S
C1473 C1472 1.391 . S
C1473 C1477 1.376 . S
C1474 C1472 1.394 . S
C1474 C1475 1.369 . S
C1474 C1478 1.531 . S
C1475 C1474 1.369 . S
C1475 C1476 1.410 . S
C1475 C1483 1.503 . S
C1476 C1475 1.410 . S
C1476 C1477 1.392 . S
C1476 C1479 1.511 . S
C1477 C1473 1.376 . S
C1477 C1476 1.392 . S
C1477 H1489 0.929 . S
C1478 C1474 1.531 . S
C1478 H1490 0.960 . S
C1478 H1491 0.962 . S
C1478 H1492 0.960 . S
C1479 C1476 1.511 . S
C1479 H1493 0.961 . S
C1479 H1494 0.961 . S
C1479 H1495 0.961 . S
C1480 C1481 1.370 . S
C1480 C1482 1.363 . S
C1480 H1496 0.931 . S
C1481 C1480 1.370 . S
C1481 C1485 1.408 . S
C1482 C1480 1.363 . S
C1482 C1483 1.370 . S
C1482 C1486 1.524 . S
C1483 C1475 1.503 . S
C1483 C1482 1.370 . S
C1483 C1484 1.403 . S
C1484 C1483 1.403 . S
C1484 C1485 1.404 . S
C1484 C1487 1.539 . S
C1485 C1481 1.408 . S
C1485 C1484 1.404 . S
C1485 H1497 0.930 . S
C1486 C1482 1.524 . S
C1486 H1498 0.956 . S
C1486 H1499 0.961 . S
C1486 H1500 0.961 . S
C1487 C1484 1.539 . S
C1487 H1501 0.958 . S
C1487 H1502 0.961 . S
C1487 H1503 0.960 . S
H1488 C1472 0.931 . S
H1489 C1477 0.929 . S
H1490 C1478 0.960 . S
H1491 C1478 0.962 . S
H1492 C1478 0.960 . S
H1493 C1479 0.961 . S
H1494 C1479 0.961 . S
H1495 C1479 0.961 . S
H1496 C1480 0.931 . S
H1497 C1485 0.930 . S
H1498 C1486 0.956 . S
H1499 C1486 0.961 . S
H1500 C1486 0.961 . S
H1501 C1487 0.958 . S
H1502 C1487 0.961 . S
H1503 C1487 0.960 . S
C1504 C1505 1.391 . S
C1504 C1506 1.394 . S
C1504 H1520 0.931 . S
C1505 C1504 1.391 . S
C1505 C1509 1.376 . S
C1506 C1504 1.394 . S
C1506 C1507 1.369 . S
C1506 C1510 1.531 . S
C1507 C1506 1.369 . S
C1507 C1508 1.410 . S
C1507 C1515 1.503 . S
C1508 C1507 1.410 . S
C1508 C1509 1.392 . S
C1508 C1511 1.511 . S
C1509 C1505 1.376 . S
C1509 C1508 1.392 . S
C1509 H1521 0.929 . S
C1510 C1506 1.531 . S
C1510 H1522 0.960 . S
C1510 H1523 0.962 . S
C1510 H1524 0.960 . S
C1511 C1508 1.511 . S
C1511 H1525 0.961 . S
C1511 H1526 0.961 . S
C1511 H1527 0.961 . S
C1512 C1513 1.370 . S
C1512 C1514 1.363 . S
C1512 H1528 0.931 . S
C1513 C1512 1.370 . S
C1513 C1517 1.408 . S
C1514 C1512 1.363 . S
C1514 C1515 1.370 . S
C1514 C1518 1.524 . S
C1515 C1507 1.503 . S
C1515 C1514 1.370 . S
C1515 C1516 1.403 . S
C1516 C1515 1.403 . S
C1516 C1517 1.404 . S
C1516 C1519 1.539 . S
C1517 C1513 1.408 . S
C1517 C1516 1.404 . S
C1517 H1529 0.930 . S
C1518 C1514 1.524 . S
C1518 H1530 0.956 . S
C1518 H1531 0.961 . S
C1518 H1532 0.961 . S
C1519 C1516 1.539 . S
C1519 H1533 0.958 . S
C1519 H1534 0.961 . S
C1519 H1535 0.960 . S
H1520 C1504 0.931 . S
H1521 C1509 0.929 . S
H1522 C1510 0.960 . S
H1523 C1510 0.962 . S
H1524 C1510 0.960 . S
H1525 C1511 0.961 . S
H1526 C1511 0.961 . S
H1527 C1511 0.961 . S
H1528 C1512 0.931 . S
H1529 C1517 0.930 . S
H1530 C1518 0.956 . S
H1531 C1518 0.961 . S
H1532 C1518 0.961 . S
H1533 C1519 0.958 . S
H1534 C1519 0.961 . S
H1535 C1519 0.960 . S
C1536 C1537 1.391 . S
C1536 C1538 1.394 . S
C1536 H1552 0.931 . S
C1537 C1536 1.391 . S
C1537 C1541 1.376 . S
C1538 C1536 1.394 . S
C1538 C1539 1.369 . S
C1538 C1542 1.531 . S
C1539 C1538 1.369 . S
C1539 C1540 1.410 . S
C1539 C1547 1.503 . S
C1540 C1539 1.410 . S
C1540 C1541 1.392 . S
C1540 C1543 1.511 . S
C1541 C1537 1.376 . S
C1541 C1540 1.392 . S
C1541 H1553 0.929 . S
C1542 C1538 1.531 . S
C1542 H1554 0.960 . S
C1542 H1555 0.962 . S
C1542 H1556 0.960 . S
C1543 C1540 1.511 . S
C1543 H1557 0.961 . S
C1543 H1558 0.961 . S
C1543 H1559 0.961 . S
C1544 C1545 1.370 . S
C1544 C1546 1.363 . S
C1544 H1560 0.931 . S
C1545 C1544 1.370 . S
C1545 C1549 1.408 . S
C1546 C1544 1.363 . S
C1546 C1547 1.370 . S
C1546 C1550 1.524 . S
C1547 C1539 1.503 . S
C1547 C1546 1.370 . S
C1547 C1548 1.403 . S
C1548 C1547 1.403 . S
C1548 C1549 1.404 . S
C1548 C1551 1.539 . S
C1549 C1545 1.408 . S
C1549 C1548 1.404 . S
C1549 H1561 0.930 . S
C1550 C1546 1.524 . S
C1550 H1562 0.956 . S
C1550 H1563 0.961 . S
C1550 H1564 0.961 . S
C1551 C1548 1.539 . S
C1551 H1565 0.958 . S
C1551 H1566 0.961 . S
C1551 H1567 0.960 . S
H1552 C1536 0.931 . S
H1553 C1541 0.929 . S
H1554 C1542 0.960 . S
H1555 C1542 0.962 . S
H1556 C1542 0.960 . S
H1557 C1543 0.961 . S
H1558 C1543 0.961 . S
H1559 C1543 0.961 . S
H1560 C1544 0.931 . S
H1561 C1549 0.930 . S
H1562 C1550 0.956 . S
H1563 C1550 0.961 . S
H1564 C1550 0.961 . S
H1565 C1551 0.958 . S
H1566 C1551 0.961 . S
H1567 C1551 0.960 . S
C1568 C1569 1.391 . S
C1568 C1570 1.394 . S
C1568 H1584 0.931 . S
C1569 C1568 1.391 . S
C1569 C1573 1.376 . S
C1570 C1568 1.394 . S
C1570 C1571 1.369 . S
C1570 C1574 1.531 . S
C1571 C1570 1.369 . S
C1571 C1572 1.410 . S
C1571 C1579 1.503 . S
C1572 C1571 1.410 . S
C1572 C1573 1.392 . S
C1572 C1575 1.511 . S
C1573 C1569 1.376 . S
C1573 C1572 1.392 . S
C1573 H1585 0.929 . S
C1574 C1570 1.531 . S
C1574 H1586 0.960 . S
C1574 H1587 0.962 . S
C1574 H1588 0.960 . S
C1575 C1572 1.511 . S
C1575 H1589 0.961 . S
C1575 H1590 0.961 . S
C1575 H1591 0.961 . S
C1576 C1577 1.370 . S
C1576 C1578 1.363 . S
C1576 H1592 0.931 . S
C1577 C1576 1.370 . S
C1577 C1581 1.408 . S
C1578 C1576 1.363 . S
C1578 C1579 1.370 . S
C1578 C1582 1.524 . S
C1579 C1571 1.503 . S
C1579 C1578 1.370 . S
C1579 C1580 1.403 . S
C1580 C1579 1.403 . S
C1580 C1581 1.404 . S
C1580 C1583 1.539 . S
C1581 C1577 1.408 . S
C1581 C1580 1.404 . S
C1581 H1593 0.930 . S
C1582 C1578 1.524 . S
C1582 H1594 0.956 . S
C1582 H1595 0.961 . S
C1582 H1596 0.961 . S
C1583 C1580 1.539 . S
C1583 H1597 0.958 . S
C1583 H1598 0.961 . S
C1583 H1599 0.960 . S
H1584 C1568 0.931 . S
H1585 C1573 0.929 . S
H1586 C1574 0.960 . S
H1587 C1574 0.962 . S
H1588 C1574 0.960 . S
H1589 C1575 0.961 . S
H1590 C1575 0.961 . S
H1591 C1575 0.961 . S
H1592 C1576 0.931 . S
H1593 C1581 0.930 . S
H1594 C1582 0.956 . S
H1595 C1582 0.961 . S
H1596 C1582 0.961 . S
H1597 C1583 0.958 . S
H1598 C1583 0.961 . S
H1599 C1583 0.960 . S
C1600 C1601 1.391 . S
C1600 C1602 1.394 . S
C1600 H1616 0.931 . S
C1601 C1600 1.391 . S
C1601 C1605 1.376 . S
C1602 C1600 1.394 . S
C1602 C1603 1.369 . S
C1602 C1606 1.531 . S
C1603 C1602 1.369 . S
C1603 C1604 1.410 . S
C1603 C1611 1.503 . S
C1604 C1603 1.410 . S
C1604 C1605 1.392 . S
C1604 C1607 1.511 . S
C1605 C1601 1.376 . S
C1605 C1604 1.392 . S
C1605 H1617 0.929 . S
C1606 C1602 1.531 . S
C1606 H1618 0.960 . S
C1606 H1619 0.962 . S
C1606 H1620 0.960 . S
C1607 C1604 1.511 . S
C1607 H1621 0.961 . S
C1607 H1622 0.961 . S
C1607 H1623 0.961 . S
C1608 C1609 1.370 . S
C1608 C1610 1.363 . S
C1608 H1624 0.931 . S
C1609 C1608 1.370 . S
C1609 C1613 1.408 . S
C1610 C1608 1.363 . S
C1610 C1611 1.370 . S
C1610 C1614 1.524 . S
C1611 C1603 1.503 . S
C1611 C1610 1.370 . S
C1611 C1612 1.403 . S
C1612 C1611 1.403 . S
C1612 C1613 1.404 . S
C1612 C1615 1.539 . S
C1613 C1609 1.408 . S
C1613 C1612 1.404 . S
C1613 H1625 0.930 . S
C1614 C1610 1.524 . S
C1614 H1626 0.956 . S
C1614 H1627 0.961 . S
C1614 H1628 0.961 . S
C1615 C1612 1.539 . S
C1615 H1629 0.958 . S
C1615 H1630 0.961 . S
C1615 H1631 0.960 . S
H1616 C1600 0.931 . S
H1617 C1605 0.929 . S
H1618 C1606 0.960 . S
H1619 C1606 0.962 . S
H1620 C1606 0.960 . S
H1621 C1607 0.961 . S
H1622 C1607 0.961 . S
H1623 C1607 0.961 . S
H1624 C1608 0.931 . S
H1625 C1613 0.930 . S
H1626 C1614 0.956 . S
H1627 C1614 0.961 . S
H1628 C1614 0.961 . S
H1629 C1615 0.958 . S
H1630 C1615 0.961 . S
H1631 C1615 0.960 . S
C1632 C1633 1.391 . S
C1632 C1634 1.394 . S
C1632 H1648 0.931 . S
C1633 C1632 1.391 . S
C1633 C1637 1.376 . S
C1634 C1632 1.394 . S
C1634 C1635 1.369 . S
C1634 C1638 1.531 . S
C1635 C1634 1.369 . S
C1635 C1636 1.410 . S
C1635 C1643 1.503 . S
C1636 C1635 1.410 . S
C1636 C1637 1.392 . S
C1636 C1639 1.511 . S
C1637 C1633 1.376 . S
C1637 C1636 1.392 . S
C1637 H1649 0.929 . S
C1638 C1634 1.531 . S
C1638 H1650 0.960 . S
C1638 H1651 0.962 . S
C1638 H1652 0.960 . S
C1639 C1636 1.511 . S
C1639 H1653 0.961 . S
C1639 H1654 0.961 . S
C1639 H1655 0.961 . S
C1640 C1641 1.370 . S
C1640 C1642 1.363 . S
C1640 H1656 0.931 . S
C1641 C1640 1.370 . S
C1641 C1645 1.408 . S
C1642 C1640 1.363 . S
C1642 C1643 1.370 . S
C1642 C1646 1.524 . S
C1643 C1635 1.503 . S
C1643 C1642 1.370 . S
C1643 C1644 1.403 . S
C1644 C1643 1.403 . S
C1644 C1645 1.404 . S
C1644 C1647 1.539 . S
C1645 C1641 1.408 . S
C1645 C1644 1.404 . S
C1645 H1657 0.930 . S
C1646 C1642 1.524 . S
C1646 H1658 0.956 . S
C1646 H1659 0.961 . S
C1646 H1660 0.961 . S
C1647 C1644 1.539 . S
C1647 H1661 0.958 . S
C1647 H1662 0.961 . S
C1647 H1663 0.960 . S
H1648 C1632 0.931 . S
H1649 C1637 0.929 . S
H1650 C1638 0.960 . S
H1651 C1638 0.962 . S
H1652 C1638 0.960 . S
H1653 C1639 0.961 . S
H1654 C1639 0.961 . S
H1655 C1639 0.961 . S
H1656 C1640 0.931 . S
H1657 C1645 0.930 . S
H1658 C1646 0.956 . S
H1659 C1646 0.961 . S
H1660 C1646 0.961 . S
H1661 C1647 0.958 . S
H1662 C1647 0.961 . S
H1663 C1647 0.960 . S
C1664 C1665 1.391 . S
C1664 C1666 1.394 . S
C1664 H1680 0.931 . S
C1665 C1664 1.391 . S
C1665 C1669 1.376 . S
C1666 C1664 1.394 . S
C1666 C1667 1.369 . S
C1666 C1670 1.531 . S
C1667 C1666 1.369 . S
C1667 C1668 1.410 . S
C1667 C1675 1.503 . S
C1668 C1667 1.410 . S
C1668 C1669 1.392 . S
C1668 C1671 1.511 . S
C1669 C1665 1.376 . S
C1669 C1668 1.392 . S
C1669 H1681 0.929 . S
C1670 C1666 1.531 . S
C1670 H1682 0.960 . S
C1670 H1683 0.962 . S
C1670 H1684 0.960 . S
C1671 C1668 1.511 . S
C1671 H1685 0.961 . S
C1671 H1686 0.961 . S
C1671 H1687 0.961 . S
C1672 C1673 1.370 . S
C1672 C1674 1.363 . S
C1672 H1688 0.931 . S
C1673 C1672 1.370 . S
C1673 C1677 1.408 . S
C1674 C1672 1.363 . S
C1674 C1675 1.370 . S
C1674 C1678 1.524 . S
C1675 C1667 1.503 . S
C1675 C1674 1.370 . S
C1675 C1676 1.403 . S
C1676 C1675 1.403 . S
C1676 C1677 1.404 . S
C1676 C1679 1.539 . S
C1677 C1673 1.408 . S
C1677 C1676 1.404 . S
C1677 H1689 0.930 . S
C1678 C1674 1.524 . S
C1678 H1690 0.956 . S
C1678 H1691 0.961 . S
C1678 H1692 0.961 . S
C1679 C1676 1.539 . S
C1679 H1693 0.958 . S
C1679 H1694 0.961 . S
C1679 H1695 0.960 . S
H1680 C1664 0.931 . S
H1681 C1669 0.929 . S
H1682 C1670 0.960 . S
H1683 C1670 0.962 . S
H1684 C1670 0.960 . S
H1685 C1671 0.961 . S
H1686 C1671 0.961 . S
H1687 C1671 0.961 . S
H1688 C1672 0.931 . S
H1689 C1677 0.930 . S
H1690 C1678 0.956 . S
H1691 C1678 0.961 . S
H1692 C1678 0.961 . S
H1693 C1679 0.958 . S
H1694 C1679 0.961 . S
H1695 C1679 0.960 . S
C1696 C1697 1.391 . S
C1696 C1698 1.394 . S
C1696 H1712 0.931 . S
C1697 C1696 1.391 . S
C1697 C1701 1.376 . S
C1698 C1696 1.394 . S
C1698 C1699 1.369 . S
C1698 C1702 1.531 . S
C1699 C1698 1.369 . S
C1699 C1700 1.410 . S
C1699 C1707 1.503 . S
C1700 C1699 1.410 . S
C1700 C1701 1.392 . S
C1700 C1703 1.511 . S
C1701 C1697 1.376 . S
C1701 C1700 1.392 . S
C1701 H1713 0.929 . S
C1702 C1698 1.531 . S
C1702 H1714 0.960 . S
C1702 H1715 0.962 . S
C1702 H1716 0.960 . S
C1703 C1700 1.511 . S
C1703 H1717 0.961 . S
C1703 H1718 0.961 . S
C1703 H1719 0.961 . S
C1704 C1705 1.370 . S
C1704 C1706 1.363 . S
C1704 H1720 0.931 . S
C1705 C1704 1.370 . S
C1705 C1709 1.408 . S
C1706 C1704 1.363 . S
C1706 C1707 1.370 . S
C1706 C1710 1.524 . S
C1707 C1699 1.503 . S
C1707 C1706 1.370 . S
C1707 C1708 1.403 . S
C1708 C1707 1.403 . S
C1708 C1709 1.404 . S
C1708 C1711 1.539 . S
C1709 C1705 1.408 . S
C1709 C1708 1.404 . S
C1709 H1721 0.930 . S
C1710 C1706 1.524 . S
C1710 H1722 0.956 . S
C1710 H1723 0.961 . S
C1710 H1724 0.961 . S
C1711 C1708 1.539 . S
C1711 H1725 0.958 . S
C1711 H1726 0.961 . S
C1711 H1727 0.960 . S
H1712 C1696 0.931 . S
H1713 C1701 0.929 . S
H1714 C1702 0.960 . S
H1715 C1702 0.962 . S
H1716 C1702 0.960 . S
H1717 C1703 0.961 . S
H1718 C1703 0.961 . S
H1719 C1703 0.961 . S
H1720 C1704 0.931 . S
H1721 C1709 0.930 . S
H1722 C1710 0.956 . S
H1723 C1710 0.961 . S
H1724 C1710 0.961 . S
H1725 C1711 0.958 . S
H1726 C1711 0.961 . S
H1727 C1711 0.960 . S
C1728 C1729 1.391 . S
C1728 C1730 1.394 . S
C1728 H1744 0.931 . S
C1729 C1728 1.391 . S
C1729 C1733 1.376 . S
C1730 C1728 1.394 . S
C1730 C1731 1.369 . S
C1730 C1734 1.531 . S
C1731 C1730 1.369 . S
C1731 C1732 1.410 . S
C1731 C1739 1.503 . S
C1732 C1731 1.410 . S
C1732 C1733 1.392 . S
C1732 C1735 1.511 . S
C1733 C1729 1.376 . S
C1733 C1732 1.392 . S
C1733 H1745 0.929 . S
C1734 C1730 1.531 . S
C1734 H1746 0.960 . S
C1734 H1747 0.962 . S
C1734 H1748 0.960 . S
C1735 C1732 1.511 . S
C1735 H1749 0.961 . S
C1735 H1750 0.961 . S
C1735 H1751 0.961 . S
C1736 C1737 1.370 . S
C1736 C1738 1.363 . S
C1736 H1752 0.931 . S
C1737 C1736 1.370 . S
C1737 C1741 1.408 . S
C1738 C1736 1.363 . S
C1738 C1739 1.370 . S
C1738 C1742 1.524 . S
C1739 C1731 1.503 . S
C1739 C1738 1.370 . S
C1739 C1740 1.403 . S
C1740 C1739 1.403 . S
C1740 C1741 1.404 . S
C1740 C1743 1.539 . S
C1741 C1737 1.408 . S
C1741 C1740 1.404 . S
C1741 H1753 0.930 . S
C1742 C1738 1.524 . S
C1742 H1754 0.956 . S
C1742 H1755 0.961 . S
C1742 H1756 0.961 . S
C1743 C1740 1.539 . S
C1743 H1757 0.958 . S
C1743 H1758 0.961 . S
C1743 H1759 0.960 . S
H1744 C1728 0.931 . S
H1745 C1733 0.929 . S
H1746 C1734 0.960 . S
H1747 C1734 0.962 . S
H1748 C1734 0.960 . S
H1749 C1735 0.961 . S
H1750 C1735 0.961 . S
H1751 C1735 0.961 . S
H1752 C1736 0.931 . S
H1753 C1741 0.930 . S
H1754 C1742 0.956 . S
H1755 C1742 0.961 . S
H1756 C1742 0.961 . S
H1757 C1743 0.958 . S
H1758 C1743 0.961 . S
H1759 C1743 0.960 . S
C1760 C1761 1.391 . S
C1760 C1762 1.394 . S
C1760 H1776 0.931 . S
C1761 C1760 1.391 . S
C1761 C1765 1.376 . S
C1762 C1760 1.394 . S
C1762 C1763 1.369 . S
C1762 C1766 1.531 . S
C1763 C1762 1.369 . S
C1763 C1764 1.410 . S
C1763 C1771 1.503 . S
C1764 C1763 1.410 . S
C1764 C1765 1.392 . S
C1764 C1767 1.511 . S
C1765 C1761 1.376 . S
C1765 C1764 1.392 . S
C1765 H1777 0.929 . S
C1766 C1762 1.531 . S
C1766 H1778 0.960 . S
C1766 H1779 0.962 . S
C1766 H1780 0.960 . S
C1767 C1764 1.511 . S
C1767 H1781 0.961 . S
C1767 H1782 0.961 . S
C1767 H1783 0.961 . S
C1768 C1769 1.370 . S
C1768 C1770 1.363 . S
C1768 H1784 0.931 . S
C1769 C1768 1.370 . S
C1769 C1773 1.408 . S
C1770 C1768 1.363 . S
C1770 C1771 1.370 . S
C1770 C1774 1.524 . S
C1771 C1763 1.503 . S
C1771 C1770 1.370 . S
C1771 C1772 1.403 . S
C1772 C1771 1.403 . S
C1772 C1773 1.404 . S
C1772 C1775 1.539 . S
C1773 C1769 1.408 . S
C1773 C1772 1.404 . S
C1773 H1785 0.930 . S
C1774 C1770 1.524 . S
C1774 H1786 0.956 . S
C1774 H1787 0.961 . S
C1774 H1788 0.961 . S
C1775 C1772 1.539 . S
C1775 H1789 0.958 . S
C1775 H1790 0.961 . S
C1775 H1791 0.960 . S
H1776 C1760 0.931 . S
H1777 C1765 0.929 . S
H1778 C1766 0.960 . S
H1779 C1766 0.962 . S
H1780 C1766 0.960 . S
H1781 C1767 0.961 . S
H1782 C1767 0.961 . S
H1783 C1767 0.961 . S
H1784 C1768 0.931 . S
H1785 C1773 0.930 . S
H1786 C1774 0.956 . S
H1787 C1774 0.961 . S
H1788 C1774 0.961 . S
H1789 C1775 0.958 . S
H1790 C1775 0.961 . S
H1791 C1775 0.960 . S
C1792 C1793 1.391 . S
C1792 C1794 1.394 . S
C1792 H1808 0.931 . S
C1793 C1792 1.391 . S
C1793 C1797 1.376 . S
C1794 C1792 1.394 . S
C1794 C1795 1.369 . S
C1794 C1798 1.531 . S
C1795 C1794 1.369 . S
C1795 C1796 1.410 . S
C1795 C1803 1.503 . S
C1796 C1795 1.410 . S
C1796 C1797 1.392 . S
C1796 C1799 1.511 . S
C1797 C1793 1.376 . S
C1797 C1796 1.392 . S
C1797 H1809 0.929 . S
C1798 C1794 1.531 . S
C1798 H1810 0.960 . S
C1798 H1811 0.962 . S
C1798 H1812 0.960 . S
C1799 C1796 1.511 . S
C1799 H1813 0.961 . S
C1799 H1814 0.961 . S
C1799 H1815 0.961 . S
C1800 C1801 1.370 . S
C1800 C1802 1.363 . S
C1800 H1816 0.931 . S
C1801 C1800 1.370 . S
C1801 C1805 1.408 . S
C1802 C1800 1.363 . S
C1802 C1803 1.370 . S
C1802 C1806 1.524 . S
C1803 C1795 1.503 . S
C1803 C1802 1.370 . S
C1803 C1804 1.403 . S
C1804 C1803 1.403 . S
C1804 C1805 1.404 . S
C1804 C1807 1.539 . S
C1805 C1801 1.408 . S
C1805 C1804 1.404 . S
C1805 H1817 0.930 . S
C1806 C1802 1.524 . S
C1806 H1818 0.956 . S
C1806 H1819 0.961 . S
C1806 H1820 0.961 . S
C1807 C1804 1.539 . S
C1807 H1821 0.958 . S
C1807 H1822 0.961 . S
C1807 H1823 0.960 . S
H1808 C1792 0.931 . S
H1809 C1797 0.929 . S
H1810 C1798 0.960 . S
H1811 C1798 0.962 . S
H1812 C1798 0.960 . S
H1813 C1799 0.961 . S
H1814 C1799 0.961 . S
H1815 C1799 0.961 . S
H1816 C1800 0.931 . S
H1817 C1805 0.930 . S
H1818 C1806 0.956 . S
H1819 C1806 0.961 . S
H1820 C1806 0.961 . S
H1821 C1807 0.958 . S
H1822 C1807 0.961 . S
H1823 C1807 0.960 . S
C1824 C1825 1.391 . S
C1824 C1826 1.394 . S
C1824 H1840 0.931 . S
C1825 C1824 1.391 . S
C1825 C1829 1.376 . S
C1826 C1824 1.394 . S
C1826 C1827 1.369 . S
C1826 C1830 1.531 . S
C1827 C1826 1.369 . S
C1827 C1828 1.410 . S
C1827 C1835 1.503 . S
C1828 C1827 1.410 . S
C1828 C1829 1.392 . S
C1828 C1831 1.511 . S
C1829 C1825 1.376 . S
C1829 C1828 1.392 . S
C1829 H1841 0.929 . S
C1830 C1826 1.531 . S
C1830 H1842 0.960 . S
C1830 H1843 0.962 . S
C1830 H1844 0.960 . S
C1831 C1828 1.511 . S
C1831 H1845 0.961 . S
C1831 H1846 0.961 . S
C1831 H1847 0.961 . S
C1832 C1833 1.370 . S
C1832 C1834 1.363 . S
C1832 H1848 0.931 . S
C1833 C1832 1.370 . S
C1833 C1837 1.408 . S
C1834 C1832 1.363 . S
C1834 C1835 1.370 . S
C1834 C1838 1.524 . S
C1835 C1827 1.503 . S
C1835 C1834 1.370 . S
C1835 C1836 1.403 . S
C1836 C1835 1.403 . S
C1836 C1837 1.404 . S
C1836 C1839 1.539 . S
C1837 C1833 1.408 . S
C1837 C1836 1.404 . S
C1837 H1849 0.930 . S
C1838 C1834 1.524 . S
C1838 H1850 0.956 . S
C1838 H1851 0.961 . S
C1838 H1852 0.961 . S
C1839 C1836 1.539 . S
C1839 H1853 0.958 . S
C1839 H1854 0.961 . S
C1839 H1855 0.960 . S
H1840 C1824 0.931 . S
H1841 C1829 0.929 . S
H1842 C1830 0.960 . S
H1843 C1830 0.962 . S
H1844 C1830 0.960 . S
H1845 C1831 0.961 . S
H1846 C1831 0.961 . S
H1847 C1831 0.961 . S
H1848 C1832 0.931 . S
H1849 C1837 0.930 . S
H1850 C1838 0.956 . S
H1851 C1838 0.961 . S
H1852 C1838 0.961 . S
H1853 C1839 0.958 . S
H1854 C1839 0.961 . S
H1855 C1839 0.960 . S
C1856 C1857 1.391 . S
C1856 C1858 1.394 . S
C1856 H1872 0.931 . S
C1857 C1856 1.391 . S
C1857 C1861 1.376 . S
C1858 C1856 1.394 . S
C1858 C1859 1.369 . S
C1858 C1862 1.531 . S
C1859 C1858 1.369 . S
C1859 C1860 1.410 . S
C1859 C1867 1.503 . S
C1860 C1859 1.410 . S
C1860 C1861 1.392 . S
C1860 C1863 1.511 . S
C1861 C1857 1.376 . S
C1861 C1860 1.392 . S
C1861 H1873 0.929 . S
C1862 C1858 1.531 . S
C1862 H1874 0.960 . S
C1862 H1875 0.962 . S
C1862 H1876 0.960 . S
C1863 C1860 1.511 . S
C1863 H1877 0.961 . S
C1863 H1878 0.961 . S
C1863 H1879 0.961 . S
C1864 C1865 1.370 . S
C1864 C1866 1.363 . S
C1864 H1880 0.931 . S
C1865 C1864 1.370 . S
C1865 C1869 1.408 . S
C1866 C1864 1.363 . S
C1866 C1867 1.370 . S
C1866 C1870 1.524 . S
C1867 C1859 1.503 . S
C1867 C1866 1.370 . S
C1867 C1868 1.403 . S
C1868 C1867 1.403 . S
C1868 C1869 1.404 . S
C1868 C1871 1.539 . S
C1869 C1865 1.408 . S
C1869 C1868 1.404 . S
C1869 H1881 0.930 . S
C1870 C1866 1.524 . S
C1870 H1882 0.956 . S
C1870 H1883 0.961 . S
C1870 H1884 0.961 . S
C1871 C1868 1.539 . S
C1871 H1885 0.958 . S
C1871 H1886 0.961 . S
C1871 H1887 0.960 . S
H1872 C1856 0.931 . S
H1873 C1861 0.929 . S
H1874 C1862 0.960 . S
H1875 C1862 0.962 . S
H1876 C1862 0.960 . S
H1877 C1863 0.961 . S
H1878 C1863 0.961 . S
H1879 C1863 0.961 . S
H1880 C1864 0.931 . S
H1881 C1869 0.930 . S
H1882 C1870 0.956 . S
H1883 C1870 0.961 . S
H1884 C1870 0.961 . S
H1885 C1871 0.958 . S
H1886 C1871 0.961 . S
H1887 C1871 0.960 . S
C1888 C1889 1.391 . S
C1888 C1890 1.394 . S
C1888 H1904 0.931 . S
C1889 C1888 1.391 . S
C1889 C1893 1.376 . S
C1890 C1888 1.394 . S
C1890 C1891 1.369 . S
C1890 C1894 1.531 . S
C1891 C1890 1.369 . S
C1891 C1892 1.410 . S
C1891 C1899 1.503 . S
C1892 C1891 1.410 . S
C1892 C1893 1.392 . S
C1892 C1895 1.511 . S
C1893 C1889 1.376 . S
C1893 C1892 1.392 . S
C1893 H1905 0.929 . S
C1894 C1890 1.531 . S
C1894 H1906 0.960 . S
C1894 H1907 0.962 . S
C1894 H1908 0.960 . S
C1895 C1892 1.511 . S
C1895 H1909 0.961 . S
C1895 H1910 0.961 . S
C1895 H1911 0.961 . S
C1896 C1897 1.370 . S
C1896 C1898 1.363 . S
C1896 H1912 0.931 . S
C1897 C1896 1.370 . S
C1897 C1901 1.408 . S
C1898 C1896 1.363 . S
C1898 C1899 1.370 . S
C1898 C1902 1.524 . S
C1899 C1891 1.503 . S
C1899 C1898 1.370 . S
C1899 C1900 1.403 . S
C1900 C1899 1.403 . S
C1900 C1901 1.404 . S
C1900 C1903 1.539 . S
C1901 C1897 1.408 . S
C1901 C1900 1.404 . S
C1901 H1913 0.930 . S
C1902 C1898 1.524 . S
C1902 H1914 0.956 . S
C1902 H1915 0.961 . S
C1902 H1916 0.961 . S
C1903 C1900 1.539 . S
C1903 H1917 0.958 . S
C1903 H1918 0.961 . S
C1903 H1919 0.960 . S
H1904 C1888 0.931 . S
H1905 C1893 0.929 . S
H1906 C1894 0.960 . S
H1907 C1894 0.962 . S
H1908 C1894 0.960 . S
H1909 C1895 0.961 . S
H1910 C1895 0.961 . S
H1911 C1895 0.961 . S
H1912 C1896 0.931 . S
H1913 C1901 0.930 . S
H1914 C1902 0.956 . S
H1915 C1902 0.961 . S
H1916 C1902 0.961 . S
H1917 C1903 0.958 . S
H1918 C1903 0.961 . S
H1919 C1903 0.960 . S
C1920 C1921 1.391 . S
C1920 C1922 1.394 . S
C1920 H1936 0.931 . S
C1921 C1920 1.391 . S
C1921 C1925 1.376 . S
C1922 C1920 1.394 . S
C1922 C1923 1.369 . S
C1922 C1926 1.531 . S
C1923 C1922 1.369 . S
C1923 C1924 1.410 . S
C1923 C1931 1.503 . S
C1924 C1923 1.410 . S
C1924 C1925 1.392 . S
C1924 C1927 1.511 . S
C1925 C1921 1.376 . S
C1925 C1924 1.392 . S
C1925 H1937 0.929 . S
C1926 C1922 1.531 . S
C1926 H1938 0.960 . S
C1926 H1939 0.962 . S
C1926 H1940 0.960 . S
C1927 C1924 1.511 . S
C1927 H1941 0.961 . S
C1927 H1942 0.961 . S
C1927 H1943 0.961 . S
C1928 C1929 1.370 . S
C1928 C1930 1.363 . S
C1928 H1944 0.931 . S
C1929 C1928 1.370 . S
C1929 C1933 1.408 . S
C1930 C1928 1.363 . S
C1930 C1931 1.370 . S
C1930 C1934 1.524 . S
C1931 C1923 1.503 . S
C1931 C1930 1.370 . S
C1931 C1932 1.403 . S
C1932 C1931 1.403 . S
C1932 C1933 1.404 . S
C1932 C1935 1.539 . S
C1933 C1929 1.408 . S
C1933 C1932 1.404 . S
C1933 H1945 0.930 . S
C1934 C1930 1.524 . S
C1934 H1946 0.956 . S
C1934 H1947 0.961 . S
C1934 H1948 0.961 . S
C1935 C1932 1.539 . S
C1935 H1949 0.958 . S
C1935 H1950 0.961 . S
C1935 H1951 0.960 . S
H1936 C1920 0.931 . S
H1937 C1925 0.929 . S
H1938 C1926 0.960 . S
H1939 C1926 0.962 . S
H1940 C1926 0.960 . S
H1941 C1927 0.961 . S
H1942 C1927 0.961 . S
H1943 C1927 0.961 . S
H1944 C1928 0.931 . S
H1945 C1933 0.930 . S
H1946 C1934 0.956 . S
H1947 C1934 0.961 . S
H1948 C1934 0.961 . S
H1949 C1935 0.958 . S
H1950 C1935 0.961 . S
H1951 C1935 0.960 . S
C1952 C1953 1.391 . S
C1952 C1954 1.394 . S
C1952 H1968 0.931 . S
C1953 C1952 1.391 . S
C1953 C1957 1.376 . S
C1954 C1952 1.394 . S
C1954 C1955 1.369 . S
C1954 C1958 1.531 . S
C1955 C1954 1.369 . S
C1955 C1956 1.410 . S
C1955 C1963 1.503 . S
C1956 C1955 1.410 . S
C1956 C1957 1.392 . S
C1956 C1959 1.511 . S
C1957 C1953 1.376 . S
C1957 C1956 1.392 . S
C1957 H1969 0.929 . S
C1958 C1954 1.531 . S
C1958 H1970 0.960 . S
C1958 H1971 0.962 . S
C1958 H1972 0.960 . S
C1959 C1956 1.511 . S
C1959 H1973 0.961 . S
C1959 H1974 0.961 . S
C1959 H1975 0.961 . S
C1960 C1961 1.370 . S
C1960 C1962 1.363 . S
C1960 H1976 0.931 . S
C1961 C1960 1.370 . S
C1961 C1965 1.408 . S
C1962 C1960 1.363 . S
C1962 C1963 1.370 . S
C1962 C1966 1.524 . S
C1963 C1955 1.503 . S
C1963 C1962 1.370 . S
C1963 C1964 1.403 . S
C1964 C1963 1.403 . S
C1964 C1965 1.404 . S
C1964 C1967 1.539 . S
C1965 C1961 1.408 . S
C1965 C1964 1.404 . S
C1965 H1977 0.930 . S
C1966 C1962 1.524 . S
C1966 H1978 0.956 . S
C1966 H1979 0.961 . S
C1966 H1980 0.961 . S
C1967 C1964 1.539 . S
C1967 H1981 0.958 . S
C1967 H1982 0.961 . S
C1967 H1983 0.960 . S
H1968 C1952 0.931 . S
H1969 C1957 0.929 . S
H1970 C1958 0.960 . S
H1971 C1958 0.962 . S
H1972 C1958 0.960 . S
H1973 C1959 0.961 . S
H1974 C1959 0.961 . S
H1975 C1959 0.961 . S
H1976 C1960 0.931 . S
H1977 C1965 0.930 . S
H1978 C1966 0.956 . S
H1979 C1966 0.961 . S
H1980 C1966 0.961 . S
H1981 C1967 0.958 . S
H1982 C1967 0.961 . S
H1983 C1967 0.960 . S
C1984 C1985 1.391 . S
C1984 C1986 1.394 . S
C1984 H2000 0.931 . S
C1985 C1984 1.391 . S
C1985 C1989 1.376 . S
C1986 C1984 1.394 . S
C1986 C1987 1.369 . S
C1986 C1990 1.531 . S
C1987 C1986 1.369 . S
C1987 C1988 1.410 . S
C1987 C1995 1.503 . S
C1988 C1987 1.410 . S
C1988 C1989 1.392 . S
C1988 C1991 1.511 . S
C1989 C1985 1.376 . S
C1989 C1988 1.392 . S
C1989 H2001 0.929 . S
C1990 C1986 1.531 . S
C1990 H2002 0.960 . S
C1990 H2003 0.962 . S
C1990 H2004 0.960 . S
C1991 C1988 1.511 . S
C1991 H2005 0.961 . S
C1991 H2006 0.961 . S
C1991 H2007 0.961 . S
C1992 C1993 1.370 . S
C1992 C1994 1.363 . S
C1992 H2008 0.931 . S
C1993 C1992 1.370 . S
C1993 C1997 1.408 . S
C1994 C1992 1.363 . S
C1994 C1995 1.370 . S
C1994 C1998 1.524 . S
C1995 C1987 1.503 . S
C1995 C1994 1.370 . S
C1995 C1996 1.403 . S
C1996 C1995 1.403 . S
C1996 C1997 1.404 . S
C1996 C1999 1.539 . S
C1997 C1993 1.408 . S
C1997 C1996 1.404 . S
C1997 H2009 0.930 . S
C1998 C1994 1.524 . S
C1998 H2010 0.956 . S
C1998 H2011 0.961 . S
C1998 H2012 0.961 . S
C1999 C1996 1.539 . S
C1999 H2013 0.958 . S
C1999 H2014 0.961 . S
C1999 H2015 0.960 . S
H2000 C1984 0.931 . S
H2001 C1989 0.929 . S
H2002 C1990 0.960 . S
H2003 C1990 0.962 . S
H2004 C1990 0.960 . S
H2005 C1991 0.961 . S
H2006 C1991 0.961 . S
H2007 C1991 0.961 . S
H2008 C1992 0.931 . S
H2009 C1997 0.930 . S
H2010 C1998 0.956 . S
H2011 C1998 0.961 . S
H2012 C1998 0.961 . S
H2013 C1999 0.958 . S
H2014 C1999 0.961 . S
H2015 C1999 0.960 . S
C2016 C2017 1.391 . S
C2016 C2018 1.394 . S
C2016 H2032 0.931 . S
C2017 C2016 1.391 . S
C2017 C2021 1.376 . S
C2018 C2016 1.394 . S
C2018 C2019 1.369 . S
C2018 C2022 1.531 . S
C2019 C2018 1.369 . S
C2019 C2020 1.410 . S
C2019 C2027 1.503 . S
C2020 C2019 1.410 . S
C2020 C2021 1.392 . S
C2020 C2023 1.511 . S
C2021 C2017 1.376 . S
C2021 C2020 1.392 . S
C2021 H2033 0.929 . S
C2022 C2018 1.531 . S
C2022 H2034 0.960 . S
C2022 H2035 0.962 . S
C2022 H2036 0.960 . S
C2023 C2020 1.511 . S
C2023 H2037 0.961 . S
C2023 H2038 0.961 . S
C2023 H2039 0.961 . S
C2024 C2025 1.370 . S
C2024 C2026 1.363 . S
C2024 H2040 0.931 . S
C2025 C2024 1.370 . S
C2025 C2029 1.408 . S
C2026 C2024 1.363 . S
C2026 C2027 1.370 . S
C2026 C2030 1.524 . S
C2027 C2019 1.503 . S
C2027 C2026 1.370 . S
C2027 C2028 1.403 . S
C2028 C2027 1.403 . S
C2028 C2029 1.404 . S
C2028 C2031 1.539 . S
C2029 C2025 1.408 . S
C2029 C2028 1.404 . S
C2029 H2041 0.930 . S
C2030 C2026 1.524 . S
C2030 H2042 0.956 . S
C2030 H2043 0.961 . S
C2030 H2044 0.961 . S
C2031 C2028 1.539 . S
C2031 H2045 0.958 . S
C2031 H2046 0.961 . S
C2031 H2047 0.960 . S
H2032 C2016 0.931 . S
H2033 C2021 0.929 . S
H2034 C2022 0.960 . S
H2035 C2022 0.962 . S
H2036 C2022 0.960 . S
H2037 C2023 0.961 . S
H2038 C2023 0.961 . S
H2039 C2023 0.961 . S
H2040 C2024 0.931 . S
H2041 C2029 0.930 . S
H2042 C2030 0.956 . S
H2043 C2030 0.961 . S
H2044 C2030 0.961 . S
H2045 C2031 0.958 . S
H2046 C2031 0.961 . S
H2047 C2031 0.960 . S
C2048 C2049 1.391 . S
C2048 C2050 1.394 . S
C2048 H2064 0.931 . S
C2049 C2048 1.391 . S
C2049 C2053 1.376 . S
C2050 C2048 1.394 . S
C2050 C2051 1.369 . S
C2050 C2054 1.531 . S
C2051 C2050 1.369 . S
C2051 C2052 1.410 . S
C2051 C2059 1.503 . S
C2052 C2051 1.410 . S
C2052 C2053 1.392 . S
C2052 C2055 1.511 . S
C2053 C2049 1.376 . S
C2053 C2052 1.392 . S
C2053 H2065 0.929 . S
C2054 C2050 1.531 . S
C2054 H2066 0.960 . S
C2054 H2067 0.962 . S
C2054 H2068 0.960 . S
C2055 C2052 1.511 . S
C2055 H2069 0.961 . S
C2055 H2070 0.961 . S
C2055 H2071 0.961 . S
C2056 C2057 1.370 . S
C2056 C2058 1.363 . S
C2056 H2072 0.931 . S
C2057 C2056 1.370 . S
C2057 C2061 1.408 . S
C2058 C2056 1.363 . S
C2058 C2059 1.370 . S
C2058 C2062 1.524 . S
C2059 C2051 1.503 . S
C2059 C2058 1.370 . S
C2059 C2060 1.403 . S
C2060 C2059 1.403 . S
C2060 C2061 1.404 . S
C2060 C2063 1.539 . S
C2061 C2057 1.408 . S
C2061 C2060 1.404 . S
C2061 H2073 0.930 . S
C2062 C2058 1.524 . S
C2062 H2074 0.956 . S
C2062 H2075 0.961 . S
C2062 H2076 0.961 . S
C2063 C2060 1.539 . S
C2063 H2077 0.958 . S
C2063 H2078 0.961 . S
C2063 H2079 0.960 . S
H2064 C2048 0.931 . S
H2065 C2053 0.929 . S
H2066 C2054 0.960 . S
H2067 C2054 0.962 . S
H2068 C2054 0.960 . S
H2069 C2055 0.961 . S
H2070 C2055 0.961 . S
H2071 C2055 0.961 . S
H2072 C2056 0.931 . S
H2073 C2061 0.930 . S
H2074 C2062 0.956 . S
H2075 C2062 0.961 . S
H2076 C2062 0.961 . S
H2077 C2063 0.958 . S
H2078 C2063 0.961 . S
H2079 C2063 0.960 . S
C2080 C2081 1.391 . S
C2080 C2082 1.394 . S
C2080 H2096 0.931 . S
C2081 C2080 1.391 . S
C2081 C2085 1.376 . S
C2082 C2080 1.394 . S
C2082 C2083 1.369 . S
C2082 C2086 1.531 . S
C2083 C2082 1.369 . S
C2083 C2084 1.410 . S
C2083 C2091 1.503 . S
C2084 C2083 1.410 . S
C2084 C2085 1.392 . S
C2084 C2087 1.511 . S
C2085 C2081 1.376 . S
C2085 C2084 1.392 . S
C2085 H2097 0.929 . S
C2086 C2082 1.531 . S
C2086 H2098 0.960 . S
C2086 H2099 0.962 . S
C2086 H2100 0.960 . S
C2087 C2084 1.511 . S
C2087 H2101 0.961 . S
C2087 H2102 0.961 . S
C2087 H2103 0.961 . S
C2088 C2089 1.370 . S
C2088 C2090 1.363 . S
C2088 H2104 0.931 . S
C2089 C2088 1.370 . S
C2089 C2093 1.408 . S
C2090 C2088 1.363 . S
C2090 C2091 1.370 . S
C2090 C2094 1.524 . S
C2091 C2083 1.503 . S
C2091 C2090 1.370 . S
C2091 C2092 1.403 . S
C2092 C2091 1.403 . S
C2092 C2093 1.404 . S
C2092 C2095 1.539 . S
C2093 C2089 1.408 . S
C2093 C2092 1.404 . S
C2093 H2105 0.930 . S
C2094 C2090 1.524 . S
C2094 H2106 0.956 . S
C2094 H2107 0.961 . S
C2094 H2108 0.961 . S
C2095 C2092 1.539 . S
C2095 H2109 0.958 . S
C2095 H2110 0.961 . S
C2095 H2111 0.960 . S
H2096 C2080 0.931 . S
H2097 C2085 0.929 . S
H2098 C2086 0.960 . S
H2099 C2086 0.962 . S
H2100 C2086 0.960 . S
H2101 C2087 0.961 . S
H2102 C2087 0.961 . S
H2103 C2087 0.961 . S
H2104 C2088 0.931 . S
H2105 C2093 0.930 . S
H2106 C2094 0.956 . S
H2107 C2094 0.961 . S
H2108 C2094 0.961 . S
H2109 C2095 0.958 . S
H2110 C2095 0.961 . S
H2111 C2095 0.960 . S
C2112 C2113 1.391 . S
C2112 C2114 1.394 . S
C2112 H2128 0.931 . S
C2113 C2112 1.391 . S
C2113 C2117 1.376 . S
C2114 C2112 1.394 . S
C2114 C2115 1.369 . S
C2114 C2118 1.531 . S
C2115 C2114 1.369 . S
C2115 C2116 1.410 . S
C2115 C2123 1.503 . S
C2116 C2115 1.410 . S
C2116 C2117 1.392 . S
C2116 C2119 1.511 . S
C2117 C2113 1.376 . S
C2117 C2116 1.392 . S
C2117 H2129 0.929 . S
C2118 C2114 1.531 . S
C2118 H2130 0.960 . S
C2118 H2131 0.962 . S
C2118 H2132 0.960 . S
C2119 C2116 1.511 . S
C2119 H2133 0.961 . S
C2119 H2134 0.961 . S
C2119 H2135 0.961 . S
C2120 C2121 1.370 . S
C2120 C2122 1.363 . S
C2120 H2136 0.931 . S
C2121 C2120 1.370 . S
C2121 C2125 1.408 . S
C2122 C2120 1.363 . S
C2122 C2123 1.370 . S
C2122 C2126 1.524 . S
C2123 C2115 1.503 . S
C2123 C2122 1.370 . S
C2123 C2124 1.403 . S
C2124 C2123 1.403 . S
C2124 C2125 1.404 . S
C2124 C2127 1.539 . S
C2125 C2121 1.408 . S
C2125 C2124 1.404 . S
C2125 H2137 0.930 . S
C2126 C2122 1.524 . S
C2126 H2138 0.956 . S
C2126 H2139 0.961 . S
C2126 H2140 0.961 . S
C2127 C2124 1.539 . S
C2127 H2141 0.958 . S
C2127 H2142 0.961 . S
C2127 H2143 0.960 . S
H2128 C2112 0.931 . S
H2129 C2117 0.929 . S
H2130 C2118 0.960 . S
H2131 C2118 0.962 . S
H2132 C2118 0.960 . S
H2133 C2119 0.961 . S
H2134 C2119 0.961 . S
H2135 C2119 0.961 . S
H2136 C2120 0.931 . S
H2137 C2125 0.930 . S
H2138 C2126 0.956 . S
H2139 C2126 0.961 . S
H2140 C2126 0.961 . S
H2141 C2127 0.958 . S
H2142 C2127 0.961 . S
H2143 C2127 0.960 . S
C2144 C2145 1.391 . S
C2144 C2146 1.394 . S
C2144 H2160 0.931 . S
C2145 C2144 1.391 . S
C2145 C2149 1.376 . S
C2146 C2144 1.394 . S
C2146 C2147 1.369 . S
C2146 C2150 1.531 . S
C2147 C2146 1.369 . S
C2147 C2148 1.410 . S
C2147 C2155 1.503 . S
C2148 C2147 1.410 . S
C2148 C2149 1.392 . S
C2148 C2151 1.511 . S
C2149 C2145 1.376 . S
C2149 C2148 1.392 . S
C2149 H2161 0.929 . S
C2150 C2146 1.531 . S
C2150 H2162 0.960 . S
C2150 H2163 0.962 . S
C2150 H2164 0.960 . S
C2151 C2148 1.511 . S
C2151 H2165 0.961 . S
C2151 H2166 0.961 . S
C2151 H2167 0.961 . S
C2152 C2153 1.370 . S
C2152 C2154 1.363 . S
C2152 H2168 0.931 . S
C2153 C2152 1.370 . S
C2153 C2157 1.408 . S
C2154 C2152 1.363 . S
C2154 C2155 1.370 . S
C2154 C2158 1.524 . S
C2155 C2147 1.503 . S
C2155 C2154 1.370 . S
C2155 C2156 1.403 . S
C2156 C2155 1.403 . S
C2156 C2157 1.404 . S
C2156 C2159 1.539 . S
C2157 C2153 1.408 . S
C2157 C2156 1.404 . S
C2157 H2169 0.930 . S
C2158 C2154 1.524 . S
C2158 H2170 0.956 . S
C2158 H2171 0.961 . S
C2158 H2172 0.961 . S
C2159 C2156 1.539 . S
C2159 H2173 0.958 . S
C2159 H2174 0.961 . S
C2159 H2175 0.960 . S
H2160 C2144 0.931 . S
H2161 C2149 0.929 . S
H2162 C2150 0.960 . S
H2163 C2150 0.962 . S
H2164 C2150 0.960 . S
H2165 C2151 0.961 . S
H2166 C2151 0.961 . S
H2167 C2151 0.961 . S
H2168 C2152 0.931 . S
H2169 C2157 0.930 . S
H2170 C2158 0.956 . S
H2171 C2158 0.961 . S
H2172 C2158 0.961 . S
H2173 C2159 0.958 . S
H2174 C2159 0.961 . S
H2175 C2159 0.960 . S
C2176 C2177 1.391 . S
C2176 C2178 1.394 . S
C2176 H2192 0.931 . S
C2177 C2176 1.391 . S
C2177 C2181 1.376 . S
C2178 C2176 1.394 . S
C2178 C2179 1.369 . S
C2178 C2182 1.531 . S
C2179 C2178 1.369 . S
C2179 C2180 1.410 . S
C2179 C2187 1.503 . S
C2180 C2179 1.410 . S
C2180 C2181 1.392 . S
C2180 C2183 1.511 . S
C2181 C2177 1.376 . S
C2181 C2180 1.392 . S
C2181 H2193 0.929 . S
C2182 C2178 1.531 . S
C2182 H2194 0.960 . S
C2182 H2195 0.962 . S
C2182 H2196 0.960 . S
C2183 C2180 1.511 . S
C2183 H2197 0.961 . S
C2183 H2198 0.961 . S
C2183 H2199 0.961 . S
C2184 C2185 1.370 . S
C2184 C2186 1.363 . S
C2184 H2200 0.931 . S
C2185 C2184 1.370 . S
C2185 C2189 1.408 . S
C2186 C2184 1.363 . S
C2186 C2187 1.370 . S
C2186 C2190 1.524 . S
C2187 C2179 1.503 . S
C2187 C2186 1.370 . S
C2187 C2188 1.403 . S
C2188 C2187 1.403 . S
C2188 C2189 1.404 . S
C2188 C2191 1.539 . S
C2189 C2185 1.408 . S
C2189 C2188 1.404 . S
C2189 H2201 0.930 . S
C2190 C2186 1.524 . S
C2190 H2202 0.956 . S
C2190 H2203 0.961 . S
C2190 H2204 0.961 . S
C2191 C2188 1.539 . S
C2191 H2205 0.958 . S
C2191 H2206 0.961 . S
C2191 H2207 0.960 . S
H2192 C2176 0.931 . S
H2193 C2181 0.929 . S
H2194 C2182 0.960 . S
H2195 C2182 0.962 . S
H2196 C2182 0.960 . S
H2197 C2183 0.961 . S
H2198 C2183 0.961 . S
H2199 C2183 0.961 . S
H2200 C2184 0.931 . S
H2201 C2189 0.930 . S
H2202 C2190 0.956 . S
H2203 C2190 0.961 . S
H2204 C2190 0.961 . S
H2205 C2191 0.958 . S
H2206 C2191 0.961 . S
H2207 C2191 0.960 . S
C2208 C2209 1.391 . S
C2208 C2210 1.394 . S
C2208 H2224 0.931 . S
C2209 C2208 1.391 . S
C2209 C2213 1.376 . S
C2210 C2208 1.394 . S
C2210 C2211 1.369 . S
C2210 C2214 1.531 . S
C2211 C2210 1.369 . S
C2211 C2212 1.410 . S
C2211 C2219 1.503 . S
C2212 C2211 1.410 . S
C2212 C2213 1.392 . S
C2212 C2215 1.511 . S
C2213 C2209 1.376 . S
C2213 C2212 1.392 . S
C2213 H2225 0.929 . S
C2214 C2210 1.531 . S
C2214 H2226 0.960 . S
C2214 H2227 0.962 . S
C2214 H2228 0.960 . S
C2215 C2212 1.511 . S
C2215 H2229 0.961 . S
C2215 H2230 0.961 . S
C2215 H2231 0.961 . S
C2216 C2217 1.370 . S
C2216 C2218 1.363 . S
C2216 H2232 0.931 . S
C2217 C2216 1.370 . S
C2217 C2221 1.408 . S
C2218 C2216 1.363 . S
C2218 C2219 1.370 . S
C2218 C2222 1.524 . S
C2219 C2211 1.503 . S
C2219 C2218 1.370 . S
C2219 C2220 1.403 . S
C2220 C2219 1.403 . S
C2220 C2221 1.404 . S
C2220 C2223 1.539 . S
C2221 C2217 1.408 . S
C2221 C2220 1.404 . S
C2221 H2233 0.930 . S
C2222 C2218 1.524 . S
C2222 H2234 0.956 . S
C2222 H2235 0.961 . S
C2222 H2236 0.961 . S
C2223 C2220 1.539 . S
C2223 H2237 0.958 . S
C2223 H2238 0.961 . S
C2223 H2239 0.960 . S
H2224 C2208 0.931 . S
H2225 C2213 0.929 . S
H2226 C2214 0.960 . S
H2227 C2214 0.962 . S
H2228 C2214 0.960 . S
H2229 C2215 0.961 . S
H2230 C2215 0.961 . S
H2231 C2215 0.961 . S
H2232 C2216 0.931 . S
H2233 C2221 0.930 . S
H2234 C2222 0.956 . S
H2235 C2222 0.961 . S
H2236 C2222 0.961 . S
H2237 C2223 0.958 . S
H2238 C2223 0.961 . S
H2239 C2223 0.960 . S
C2240 C2241 1.391 . S
C2240 C2242 1.394 . S
C2240 H2256 0.931 . S
C2241 C2240 1.391 . S
C2241 C2245 1.376 . S
C2242 C2240 1.394 . S
C2242 C2243 1.369 . S
C2242 C2246 1.531 . S
C2243 C2242 1.369 . S
C2243 C2244 1.410 . S
C2243 C2251 1.503 . S
C2244 C2243 1.410 . S
C2244 C2245 1.392 . S
C2244 C2247 1.511 . S
C2245 C2241 1.376 . S
C2245 C2244 1.392 . S
C2245 H2257 0.929 . S
C2246 C2242 1.531 . S
C2246 H2258 0.960 . S
C2246 H2259 0.962 . S
C2246 H2260 0.960 . S
C2247 C2244 1.511 . S
C2247 H2261 0.961 . S
C2247 H2262 0.961 . S
C2247 H2263 0.961 . S
C2248 C2249 1.370 . S
C2248 C2250 1.363 . S
C2248 H2264 0.931 . S
C2249 C2248 1.370 . S
C2249 C2253 1.408 . S
C2250 C2248 1.363 . S
C2250 C2251 1.370 . S
C2250 C2254 1.524 . S
C2251 C2243 1.503 . S
C2251 C2250 1.370 . S
C2251 C2252 1.403 . S
C2252 C2251 1.403 . S
C2252 C2253 1.404 . S
C2252 C2255 1.539 . S
C2253 C2249 1.408 . S
C2253 C2252 1.404 . S
C2253 H2265 0.930 . S
C2254 C2250 1.524 . S
C2254 H2266 0.956 . S
C2254 H2267 0.961 . S
C2254 H2268 0.961 . S
C2255 C2252 1.539 . S
C2255 H2269 0.958 . S
C2255 H2270 0.961 . S
C2255 H2271 0.960 . S
H2256 C2240 0.931 . S
H2257 C2245 0.929 . S
H2258 C2246 0.960 . S
H2259 C2246 0.962 . S
H2260 C2246 0.960 . S
H2261 C2247 0.961 . S
H2262 C2247 0.961 . S
H2263 C2247 0.961 . S
H2264 C2248 0.931 . S
H2265 C2253 0.930 . S
H2266 C2254 0.956 . S
H2267 C2254 0.961 . S
H2268 C2254 0.961 . S
H2269 C2255 0.958 . S
H2270 C2255 0.961 . S
H2271 C2255 0.960 . S
C2272 C2273 1.391 . S
C2272 C2274 1.394 . S
C2272 H2288 0.931 . S
C2273 C2272 1.391 . S
C2273 C2277 1.376 . S
C2274 C2272 1.394 . S
C2274 C2275 1.369 . S
C2274 C2278 1.531 . S
C2275 C2274 1.369 . S
C2275 C2276 1.410 . S
C2275 C2283 1.503 . S
C2276 C2275 1.410 . S
C2276 C2277 1.392 . S
C2276 C2279 1.511 . S
C2277 C2273 1.376 . S
C2277 C2276 1.392 . S
C2277 H2289 0.929 . S
C2278 C2274 1.531 . S
C2278 H2290 0.960 . S
C2278 H2291 0.962 . S
C2278 H2292 0.960 . S
C2279 C2276 1.511 . S
C2279 H2293 0.961 . S
C2279 H2294 0.961 . S
C2279 H2295 0.961 . S
C2280 C2281 1.370 . S
C2280 C2282 1.363 . S
C2280 H2296 0.931 . S
C2281 C2280 1.370 . S
C2281 C2285 1.408 . S
C2282 C2280 1.363 . S
C2282 C2283 1.370 . S
C2282 C2286 1.524 . S
C2283 C2275 1.503 . S
C2283 C2282 1.370 . S
C2283 C2284 1.403 . S
C2284 C2283 1.403 . S
C2284 C2285 1.404 . S
C2284 C2287 1.539 . S
C2285 C2281 1.408 . S
C2285 C2284 1.404 . S
C2285 H2297 0.930 . S
C2286 C2282 1.524 . S
C2286 H2298 0.956 . S
C2286 H2299 0.961 . S
C2286 H2300 0.961 . S
C2287 C2284 1.539 . S
C2287 H2301 0.958 . S
C2287 H2302 0.961 . S
C2287 H2303 0.960 . S
H2288 C2272 0.931 . S
H2289 C2277 0.929 . S
H2290 C2278 0.960 . S
H2291 C2278 0.962 . S
H2292 C2278 0.960 . S
H2293 C2279 0.961 . S
H2294 C2279 0.961 . S
H2295 C2279 0.961 . S
H2296 C2280 0.931 . S
H2297 C2285 0.930 . S
H2298 C2286 0.956 . S
H2299 C2286 0.961 . S
H2300 C2286 0.961 . S
H2301 C2287 0.958 . S
H2302 C2287 0.961 . S
H2303 C2287 0.960 . S
C2304 C2305 1.391 . S
C2304 C2306 1.394 . S
C2304 H2320 0.931 . S
C2305 C2304 1.391 . S
C2305 C2309 1.376 . S
C2306 C2304 1.394 . S
C2306 C2307 1.369 . S
C2306 C2310 1.531 . S
C2307 C2306 1.369 . S
C2307 C2308 1.410 . S
C2307 C2315 1.503 . S
C2308 C2307 1.410 . S
C2308 C2309 1.392 . S
C2308 C2311 1.511 . S
C2309 C2305 1.376 . S
C2309 C2308 1.392 . S
C2309 H2321 0.929 . S
C2310 C2306 1.531 . S
C2310 H2322 0.960 . S
C2310 H2323 0.962 . S
C2310 H2324 0.960 . S
C2311 C2308 1.511 . S
C2311 H2325 0.961 . S
C2311 H2326 0.961 . S
C2311 H2327 0.961 . S
C2312 C2313 1.370 . S
C2312 C2314 1.363 . S
C2312 H2328 0.931 . S
C2313 C2312 1.370 . S
C2313 C2317 1.408 . S
C2314 C2312 1.363 . S
C2314 C2315 1.370 . S
C2314 C2318 1.524 . S
C2315 C2307 1.503 . S
C2315 C2314 1.370 . S
C2315 C2316 1.403 . S
C2316 C2315 1.403 . S
C2316 C2317 1.404 . S
C2316 C2319 1.539 . S
C2317 C2313 1.408 . S
C2317 C2316 1.404 . S
C2317 H2329 0.930 . S
C2318 C2314 1.524 . S
C2318 H2330 0.956 . S
C2318 H2331 0.961 . S
C2318 H2332 0.961 . S
C2319 C2316 1.539 . S
C2319 H2333 0.958 . S
C2319 H2334 0.961 . S
C2319 H2335 0.960 . S
H2320 C2304 0.931 . S
H2321 C2309 0.929 . S
H2322 C2310 0.960 . S
H2323 C2310 0.962 . S
H2324 C2310 0.960 . S
H2325 C2311 0.961 . S
H2326 C2311 0.961 . S
H2327 C2311 0.961 . S
H2328 C2312 0.931 . S
H2329 C2317 0.930 . S
H2330 C2318 0.956 . S
H2331 C2318 0.961 . S
H2332 C2318 0.961 . S
H2333 C2319 0.958 . S
H2334 C2319 0.961 . S
H2335 C2319 0.960 . S
C2336 C2337 1.391 . S
C2336 C2338 1.394 . S
C2336 H2352 0.931 . S
C2337 C2336 1.391 . S
C2337 C2341 1.376 . S
C2338 C2336 1.394 . S
C2338 C2339 1.369 . S
C2338 C2342 1.531 . S
C2339 C2338 1.369 . S
C2339 C2340 1.410 . S
C2339 C2347 1.503 . S
C2340 C2339 1.410 . S
C2340 C2341 1.392 . S
C2340 C2343 1.511 . S
C2341 C2337 1.376 . S
C2341 C2340 1.392 . S
C2341 H2353 0.929 . S
C2342 C2338 1.531 . S
C2342 H2354 0.960 . S
C2342 H2355 0.962 . S
C2342 H2356 0.960 . S
C2343 C2340 1.511 . S
C2343 H2357 0.961 . S
C2343 H2358 0.961 . S
C2343 H2359 0.961 . S
C2344 C2345 1.370 . S
C2344 C2346 1.363 . S
C2344 H2360 0.931 . S
C2345 C2344 1.370 . S
C2345 C2349 1.408 . S
C2346 C2344 1.363 . S
C2346 C2347 1.370 . S
C2346 C2350 1.524 . S
C2347 C2339 1.503 . S
C2347 C2346 1.370 . S
C2347 C2348 1.403 . S
C2348 C2347 1.403 . S
C2348 C2349 1.404 . S
C2348 C2351 1.539 . S
C2349 C2345 1.408 . S
C2349 C2348 1.404 . S
C2349 H2361 0.930 . S
C2350 C2346 1.524 . S
C2350 H2362 0.956 . S
C2350 H2363 0.961 . S
C2350 H2364 0.961 . S
C2351 C2348 1.539 . S
C2351 H2365 0.958 . S
C2351 H2366 0.961 . S
C2351 H2367 0.960 . S
H2352 C2336 0.931 . S
H2353 C2341 0.929 . S
H2354 C2342 0.960 . S
H2355 C2342 0.962 . S
H2356 C2342 0.960 . S
H2357 C2343 0.961 . S
H2358 C2343 0.961 . S
H2359 C2343 0.961 . S
H2360 C2344 0.931 . S
H2361 C2349 0.930 . S
H2362 C2350 0.956 . S
H2363 C2350 0.961 . S
H2364 C2350 0.961 . S
H2365 C2351 0.958 . S
H2366 C2351 0.961 . S
H2367 C2351 0.960 . S
C2368 C2369 1.391 . S
C2368 C2370 1.394 . S
C2368 H2384 0.931 . S
C2369 C2368 1.391 . S
C2369 C2373 1.376 . S
C2370 C2368 1.394 . S
C2370 C2371 1.369 . S
C2370 C2374 1.531 . S
C2371 C2370 1.369 . S
C2371 C2372 1.410 . S
C2371 C2379 1.503 . S
C2372 C2371 1.410 . S
C2372 C2373 1.392 . S
C2372 C2375 1.511 . S
C2373 C2369 1.376 . S
C2373 C2372 1.392 . S
C2373 H2385 0.929 . S
C2374 C2370 1.531 . S
C2374 H2386 0.960 . S
C2374 H2387 0.962 . S
C2374 H2388 0.960 . S
C2375 C2372 1.511 . S
C2375 H2389 0.961 . S
C2375 H2390 0.961 . S
C2375 H2391 0.961 . S
C2376 C2377 1.370 . S
C2376 C2378 1.363 . S
C2376 H2392 0.931 . S
C2377 C2376 1.370 . S
C2377 C2381 1.408 . S
C2378 C2376 1.363 . S
C2378 C2379 1.370 . S
C2378 C2382 1.524 . S
C2379 C2371 1.503 . S
C2379 C2378 1.370 . S
C2379 C2380 1.403 . S
C2380 C2379 1.403 . S
C2380 C2381 1.404 . S
C2380 C2383 1.539 . S
C2381 C2377 1.408 . S
C2381 C2380 1.404 . S
C2381 H2393 0.930 . S
C2382 C2378 1.524 . S
C2382 H2394 0.956 . S
C2382 H2395 0.961 . S
C2382 H2396 0.961 . S
C2383 C2380 1.539 . S
C2383 H2397 0.958 . S
C2383 H2398 0.961 . S
C2383 H2399 0.960 . S
H2384 C2368 0.931 . S
H2385 C2373 0.929 . S
H2386 C2374 0.960 . S
H2387 C2374 0.962 . S
H2388 C2374 0.960 . S
H2389 C2375 0.961 . S
H2390 C2375 0.961 . S
H2391 C2375 0.961 . S
H2392 C2376 0.931 . S
H2393 C2381 0.930 . S
H2394 C2382 0.956 . S
H2395 C2382 0.961 . S
H2396 C2382 0.961 . S
H2397 C2383 0.958 . S
H2398 C2383 0.961 . S
H2399 C2383 0.960 . S
C2400 C2401 1.391 . S
C2400 C2402 1.394 . S
C2400 H2416 0.931 . S
C2401 C2400 1.391 . S
C2401 C2405 1.376 . S
C2402 C2400 1.394 . S
C2402 C2403 1.369 . S
C2402 C2406 1.531 . S
C2403 C2402 1.369 . S
C2403 C2404 1.410 . S
C2403 C2411 1.503 . S
C2404 C2403 1.410 . S
C2404 C2405 1.392 . S
C2404 C2407 1.511 . S
C2405 C2401 1.376 . S
C2405 C2404 1.392 . S
C2405 H2417 0.929 . S
C2406 C2402 1.531 . S
C2406 H2418 0.960 . S
C2406 H2419 0.962 . S
C2406 H2420 0.960 . S
C2407 C2404 1.511 . S
C2407 H2421 0.961 . S
C2407 H2422 0.961 . S
C2407 H2423 0.961 . S
C2408 C2409 1.370 . S
C2408 C2410 1.363 . S
C2408 H2424 0.931 . S
C2409 C2408 1.370 . S
C2409 C2413 1.408 . S
C2410 C2408 1.363 . S
C2410 C2411 1.370 . S
C2410 C2414 1.524 . S
C2411 C2403 1.503 . S
C2411 C2410 1.370 . S
C2411 C2412 1.403 . S
C2412 C2411 1.403 . S
C2412 C2413 1.404 . S
C2412 C2415 1.539 . S
C2413 C2409 1.408 . S
C2413 C2412 1.404 . S
C2413 H2425 0.930 . S
C2414 C2410 1.524 . S
C2414 H2426 0.956 . S
C2414 H2427 0.961 . S
C2414 H2428 0.961 . S
C2415 C2412 1.539 . S
C2415 H2429 0.958 . S
C2415 H2430 0.961 . S
C2415 H2431 0.960 . S
H2416 C2400 0.931 . S
H2417 C2405 0.929 . S
H2418 C2406 0.960 . S
H2419 C2406 0.962 . S
H2420 C2406 0.960 . S
H2421 C2407 0.961 . S
H2422 C2407 0.961 . S
H2423 C2407 0.961 . S
H2424 C2408 0.931 . S
H2425 C2413 0.930 . S
H2426 C2414 0.956 . S
H2427 C2414 0.961 . S
H2428 C2414 0.961 . S
H2429 C2415 0.958 . S
H2430 C2415 0.961 . S
H2431 C2415 0.960 . S
C2432 C2433 1.391 . S
C2432 C2434 1.394 . S
C2432 H2448 0.931 . S
C2433 C2432 1.391 . S
C2433 C2437 1.376 . S
C2434 C2432 1.394 . S
C2434 C2435 1.369 . S
C2434 C2438 1.531 . S
C2435 C2434 1.369 . S
C2435 C2436 1.410 . S
C2435 C2443 1.503 . S
C2436 C2435 1.410 . S
C2436 C2437 1.392 . S
C2436 C2439 1.511 . S
C2437 C2433 1.376 . S
C2437 C2436 1.392 . S
C2437 H2449 0.929 . S
C2438 C2434 1.531 . S
C2438 H2450 0.960 . S
C2438 H2451 0.962 . S
C2438 H2452 0.960 . S
C2439 C2436 1.511 . S
C2439 H2453 0.961 . S
C2439 H2454 0.961 . S
C2439 H2455 0.961 . S
C2440 C2441 1.370 . S
C2440 C2442 1.363 . S
C2440 H2456 0.931 . S
C2441 C2440 1.370 . S
C2441 C2445 1.408 . S
C2442 C2440 1.363 . S
C2442 C2443 1.370 . S
C2442 C2446 1.524 . S
C2443 C2435 1.503 . S
C2443 C2442 1.370 . S
C2443 C2444 1.403 . S
C2444 C2443 1.403 . S
C2444 C2445 1.404 . S
C2444 C2447 1.539 . S
C2445 C2441 1.408 . S
C2445 C2444 1.404 . S
C2445 H2457 0.930 . S
C2446 C2442 1.524 . S
C2446 H2458 0.956 . S
C2446 H2459 0.961 . S
C2446 H2460 0.961 . S
C2447 C2444 1.539 . S
C2447 H2461 0.958 . S
C2447 H2462 0.961 . S
C2447 H2463 0.960 . S
H2448 C2432 0.931 . S
H2449 C2437 0.929 . S
H2450 C2438 0.960 . S
H2451 C2438 0.962 . S
H2452 C2438 0.960 . S
H2453 C2439 0.961 . S
H2454 C2439 0.961 . S
H2455 C2439 0.961 . S
H2456 C2440 0.931 . S
H2457 C2445 0.930 . S
H2458 C2446 0.956 . S
H2459 C2446 0.961 . S
H2460 C2446 0.961 . S
H2461 C2447 0.958 . S
H2462 C2447 0.961 . S
H2463 C2447 0.960 . S
C2464 C2465 1.391 . S
C2464 C2466 1.394 . S
C2464 H2480 0.931 . S
C2465 C2464 1.391 . S
C2465 C2469 1.376 . S
C2466 C2464 1.394 . S
C2466 C2467 1.369 . S
C2466 C2470 1.531 . S
C2467 C2466 1.369 . S
C2467 C2468 1.410 . S
C2467 C2475 1.503 . S
C2468 C2467 1.410 . S
C2468 C2469 1.392 . S
C2468 C2471 1.511 . S
C2469 C2465 1.376 . S
C2469 C2468 1.392 . S
C2469 H2481 0.929 . S
C2470 C2466 1.531 . S
C2470 H2482 0.960 . S
C2470 H2483 0.962 . S
C2470 H2484 0.960 . S
C2471 C2468 1.511 . S
C2471 H2485 0.961 . S
C2471 H2486 0.961 . S
C2471 H2487 0.961 . S
C2472 C2473 1.370 . S
C2472 C2474 1.363 . S
C2472 H2488 0.931 . S
C2473 C2472 1.370 . S
C2473 C2477 1.408 . S
C2474 C2472 1.363 . S
C2474 C2475 1.370 . S
C2474 C2478 1.524 . S
C2475 C2467 1.503 . S
C2475 C2474 1.370 . S
C2475 C2476 1.403 . S
C2476 C2475 1.403 . S
C2476 C2477 1.404 . S
C2476 C2479 1.539 . S
C2477 C2473 1.408 . S
C2477 C2476 1.404 . S
C2477 H2489 0.930 . S
C2478 C2474 1.524 . S
C2478 H2490 0.956 . S
C2478 H2491 0.961 . S
C2478 H2492 0.961 . S
C2479 C2476 1.539 . S
C2479 H2493 0.958 . S
C2479 H2494 0.961 . S
C2479 H2495 0.960 . S
H2480 C2464 0.931 . S
H2481 C2469 0.929 . S
H2482 C2470 0.960 . S
H2483 C2470 0.962 . S
H2484 C2470 0.960 . S
H2485 C2471 0.961 . S
H2486 C2471 0.961 . S
H2487 C2471 0.961 . S
H2488 C2472 0.931 . S
H2489 C2477 0.930 . S
H2490 C2478 0.956 . S
H2491 C2478 0.961 . S
H2492 C2478 0.961 . S
H2493 C2479 0.958 . S
H2494 C2479 0.961 . S
H2495 C2479 0.960 . S
C2496 C2497 1.391 . S
C2496 C2498 1.394 . S
C2496 H2512 0.931 . S
C2497 C2496 1.391 . S
C2497 C2501 1.376 . S
C2498 C2496 1.394 . S
C2498 C2499 1.369 . S
C2498 C2502 1.531 . S
C2499 C2498 1.369 . S
C2499 C2500 1.410 . S
C2499 C2507 1.503 . S
C2500 C2499 1.410 . S
C2500 C2501 1.392 . S
C2500 C2503 1.511 . S
C2501 C2497 1.376 . S
C2501 C2500 1.392 . S
C2501 H2513 0.929 . S
C2502 C2498 1.531 . S
C2502 H2514 0.960 . S
C2502 H2515 0.962 . S
C2502 H2516 0.960 . S
C2503 C2500 1.511 . S
C2503 H2517 0.961 . S
C2503 H2518 0.961 . S
C2503 H2519 0.961 . S
C2504 C2505 1.370 . S
C2504 C2506 1.363 . S
C2504 H2520 0.931 . S
C2505 C2504 1.370 . S
C2505 C2509 1.408 . S
C2506 C2504 1.363 . S
C2506 C2507 1.370 . S
C2506 C2510 1.524 . S
C2507 C2499 1.503 . S
C2507 C2506 1.370 . S
C2507 C2508 1.403 . S
C2508 C2507 1.403 . S
C2508 C2509 1.404 . S
C2508 C2511 1.539 . S
C2509 C2505 1.408 . S
C2509 C2508 1.404 . S
C2509 H2521 0.930 . S
C2510 C2506 1.524 . S
C2510 H2522 0.956 . S
C2510 H2523 0.961 . S
C2510 H2524 0.961 . S
C2511 C2508 1.539 . S
C2511 H2525 0.958 . S
C2511 H2526 0.961 . S
C2511 H2527 0.960 . S
H2512 C2496 0.931 . S
H2513 C2501 0.929 . S
H2514 C2502 0.960 . S
H2515 C2502 0.962 . S
H2516 C2502 0.960 . S
H2517 C2503 0.961 . S
H2518 C2503 0.961 . S
H2519 C2503 0.961 . S
H2520 C2504 0.931 . S
H2521 C2509 0.930 . S
H2522 C2510 0.956 . S
H2523 C2510 0.961 . S
H2524 C2510 0.961 . S
H2525 C2511 0.958 . S
H2526 C2511 0.961 . S
H2527 C2511 0.960 . S
C2528 C2529 1.391 . S
C2528 C2530 1.394 . S
C2528 H2544 0.931 . S
C2529 C2528 1.391 . S
C2529 C2533 1.376 . S
C2530 C2528 1.394 . S
C2530 C2531 1.369 . S
C2530 C2534 1.531 . S
C2531 C2530 1.369 . S
C2531 C2532 1.410 . S
C2531 C2539 1.503 . S
C2532 C2531 1.410 . S
C2532 C2533 1.392 . S
C2532 C2535 1.511 . S
C2533 C2529 1.376 . S
C2533 C2532 1.392 . S
C2533 H2545 0.929 . S
C2534 C2530 1.531 . S
C2534 H2546 0.960 . S
C2534 H2547 0.962 . S
C2534 H2548 0.960 . S
C2535 C2532 1.511 . S
C2535 H2549 0.961 . S
C2535 H2550 0.961 . S
C2535 H2551 0.961 . S
C2536 C2537 1.370 . S
C2536 C2538 1.363 . S
C2536 H2552 0.931 . S
C2537 C2536 1.370 . S
C2537 C2541 1.408 . S
C2538 C2536 1.363 . S
C2538 C2539 1.370 . S
C2538 C2542 1.524 . S
C2539 C2531 1.503 . S
C2539 C2538 1.370 . S
C2539 C2540 1.403 . S
C2540 C2539 1.403 . S
C2540 C2541 1.404 . S
C2540 C2543 1.539 . S
C2541 C2537 1.408 . S
C2541 C2540 1.404 . S
C2541 H2553 0.930 . S
C2542 C2538 1.524 . S
C2542 H2554 0.956 . S
C2542 H2555 0.961 . S
C2542 H2556 0.961 . S
C2543 C2540 1.539 . S
C2543 H2557 0.958 . S
C2543 H2558 0.961 . S
C2543 H2559 0.960 . S
H2544 C2528 0.931 . S
H2545 C2533 0.929 . S
H2546 C2534 0.960 . S
H2547 C2534 0.962 . S
H2548 C2534 0.960 . S
H2549 C2535 0.961 . S
H2550 C2535 0.961 . S
H2551 C2535 0.961 . S
H2552 C2536 0.931 . S
H2553 C2541 0.930 . S
H2554 C2542 0.956 . S
H2555 C2542 0.961 . S
H2556 C2542 0.961 . S
H2557 C2543 0.958 . S
H2558 C2543 0.961 . S
H2559 C2543 0.960 . S
C2560 C2561 1.391 . S
C2560 C2562 1.394 . S
C2560 H2576 0.931 . S
C2561 C2560 1.391 . S
C2561 C2565 1.376 . S
C2562 C2560 1.394 . S
C2562 C2563 1.369 . S
C2562 C2566 1.531 . S
C2563 C2562 1.369 . S
C2563 C2564 1.410 . S
C2563 C2571 1.503 . S
C2564 C2563 1.410 . S
C2564 C2565 1.392 . S
C2564 C2567 1.511 . S
C2565 C2561 1.376 . S
C2565 C2564 1.392 . S
C2565 H2577 0.929 . S
C2566 C2562 1.531 . S
C2566 H2578 0.960 . S
C2566 H2579 0.962 . S
C2566 H2580 0.960 . S
C2567 C2564 1.511 . S
C2567 H2581 0.961 . S
C2567 H2582 0.961 . S
C2567 H2583 0.961 . S
C2568 C2569 1.370 . S
C2568 C2570 1.363 . S
C2568 H2584 0.931 . S
C2569 C2568 1.370 . S
C2569 C2573 1.408 . S
C2570 C2568 1.363 . S
C2570 C2571 1.370 . S
C2570 C2574 1.524 . S
C2571 C2563 1.503 . S
C2571 C2570 1.370 . S
C2571 C2572 1.403 . S
C2572 C2571 1.403 . S
C2572 C2573 1.404 . S
C2572 C2575 1.539 . S
C2573 C2569 1.408 . S
C2573 C2572 1.404 . S
C2573 H2585 0.930 . S
C2574 C2570 1.524 . S
C2574 H2586 0.956 . S
C2574 H2587 0.961 . S
C2574 H2588 0.961 . S
C2575 C2572 1.539 . S
C2575 H2589 0.958 . S
C2575 H2590 0.961 . S
C2575 H2591 0.960 . S
H2576 C2560 0.931 . S
H2577 C2565 0.929 . S
H2578 C2566 0.960 . S
H2579 C2566 0.962 . S
H2580 C2566 0.960 . S
H2581 C2567 0.961 . S
H2582 C2567 0.961 . S
H2583 C2567 0.961 . S
H2584 C2568 0.931 . S
H2585 C2573 0.930 . S
H2586 C2574 0.956 . S
H2587 C2574 0.961 . S
H2588 C2574 0.961 . S
H2589 C2575 0.958 . S
H2590 C2575 0.961 . S
H2591 C2575 0.960 . S
C2592 C2593 1.391 . S
C2592 C2594 1.394 . S
C2592 H2608 0.931 . S
C2593 C2592 1.391 . S
C2593 C2597 1.376 . S
C2594 C2592 1.394 . S
C2594 C2595 1.369 . S
C2594 C2598 1.531 . S
C2595 C2594 1.369 . S
C2595 C2596 1.410 . S
C2595 C2603 1.503 . S
C2596 C2595 1.410 . S
C2596 C2597 1.392 . S
C2596 C2599 1.511 . S
C2597 C2593 1.376 . S
C2597 C2596 1.392 . S
C2597 H2609 0.929 . S
C2598 C2594 1.531 . S
C2598 H2610 0.960 . S
C2598 H2611 0.962 . S
C2598 H2612 0.960 . S
C2599 C2596 1.511 . S
C2599 H2613 0.961 . S
C2599 H2614 0.961 . S
C2599 H2615 0.961 . S
C2600 C2601 1.370 . S
C2600 C2602 1.363 . S
C2600 H2616 0.931 . S
C2601 C2600 1.370 . S
C2601 C2605 1.408 . S
C2602 C2600 1.363 . S
C2602 C2603 1.370 . S
C2602 C2606 1.524 . S
C2603 C2595 1.503 . S
C2603 C2602 1.370 . S
C2603 C2604 1.403 . S
C2604 C2603 1.403 . S
C2604 C2605 1.404 . S
C2604 C2607 1.539 . S
C2605 C2601 1.408 . S
C2605 C2604 1.404 . S
C2605 H2617 0.930 . S
C2606 C2602 1.524 . S
C2606 H2618 0.956 . S
C2606 H2619 0.961 . S
C2606 H2620 0.961 . S
C2607 C2604 1.539 . S
C2607 H2621 0.958 . S
C2607 H2622 0.961 . S
C2607 H2623 0.960 . S
H2608 C2592 0.931 . S
H2609 C2597 0.929 . S
H2610 C2598 0.960 . S
H2611 C2598 0.962 . S
H2612 C2598 0.960 . S
H2613 C2599 0.961 . S
H2614 C2599 0.961 . S
H2615 C2599 0.961 . S
H2616 C2600 0.931 . S
H2617 C2605 0.930 . S
H2618 C2606 0.956 . S
H2619 C2606 0.961 . S
H2620 C2606 0.961 . S
H2621 C2607 0.958 . S
H2622 C2607 0.961 . S
H2623 C2607 0.960 . S
C2624 C2625 1.391 . S
C2624 C2626 1.394 . S
C2624 H2640 0.931 . S
C2625 C2624 1.391 . S
C2625 C2629 1.376 . S
C2626 C2624 1.394 . S
C2626 C2627 1.369 . S
C2626 C2630 1.531 . S
C2627 C2626 1.369 . S
C2627 C2628 1.410 . S
C2627 C2635 1.503 . S
C2628 C2627 1.410 . S
C2628 C2629 1.392 . S
C2628 C2631 1.511 . S
C2629 C2625 1.376 . S
C2629 C2628 1.392 . S
C2629 H2641 0.929 . S
C2630 C2626 1.531 . S
C2630 H2642 0.960 . S
C2630 H2643 0.962 . S
C2630 H2644 0.960 . S
C2631 C2628 1.511 . S
C2631 H2645 0.961 . S
C2631 H2646 0.961 . S
C2631 H2647 0.961 . S
C2632 C2633 1.370 . S
C2632 C2634 1.363 . S
C2632 H2648 0.931 . S
C2633 C2632 1.370 . S
C2633 C2637 1.408 . S
C2634 C2632 1.363 . S
C2634 C2635 1.370 . S
C2634 C2638 1.524 . S
C2635 C2627 1.503 . S
C2635 C2634 1.370 . S
C2635 C2636 1.403 . S
C2636 C2635 1.403 . S
C2636 C2637 1.404 . S
C2636 C2639 1.539 . S
C2637 C2633 1.408 . S
C2637 C2636 1.404 . S
C2637 H2649 0.930 . S
C2638 C2634 1.524 . S
C2638 H2650 0.956 . S
C2638 H2651 0.961 . S
C2638 H2652 0.961 . S
C2639 C2636 1.539 . S
C2639 H2653 0.958 . S
C2639 H2654 0.961 . S
C2639 H2655 0.960 . S
H2640 C2624 0.931 . S
H2641 C2629 0.929 . S
H2642 C2630 0.960 . S
H2643 C2630 0.962 . S
H2644 C2630 0.960 . S
H2645 C2631 0.961 . S
H2646 C2631 0.961 . S
H2647 C2631 0.961 . S
H2648 C2632 0.931 . S
H2649 C2637 0.930 . S
H2650 C2638 0.956 . S
H2651 C2638 0.961 . S
H2652 C2638 0.961 . S
H2653 C2639 0.958 . S
H2654 C2639 0.961 . S
H2655 C2639 0.960 . S
C2656 C2657 1.391 . S
C2656 C2658 1.394 . S
C2656 H2672 0.931 . S
C2657 C2656 1.391 . S
C2657 C2661 1.376 . S
C2658 C2656 1.394 . S
C2658 C2659 1.369 . S
C2658 C2662 1.531 . S
C2659 C2658 1.369 . S
C2659 C2660 1.410 . S
C2659 C2667 1.503 . S
C2660 C2659 1.410 . S
C2660 C2661 1.392 . S
C2660 C2663 1.511 . S
C2661 C2657 1.376 . S
C2661 C2660 1.392 . S
C2661 H2673 0.929 . S
C2662 C2658 1.531 . S
C2662 H2674 0.960 . S
C2662 H2675 0.962 . S
C2662 H2676 0.960 . S
C2663 C2660 1.511 . S
C2663 H2677 0.961 . S
C2663 H2678 0.961 . S
C2663 H2679 0.961 . S
C2664 C2665 1.370 . S
C2664 C2666 1.363 . S
C2664 H2680 0.931 . S
C2665 C2664 1.370 . S
C2665 C2669 1.408 . S
C2666 C2664 1.363 . S
C2666 C2667 1.370 . S
C2666 C2670 1.524 . S
C2667 C2659 1.503 . S
C2667 C2666 1.370 . S
C2667 C2668 1.403 . S
C2668 C2667 1.403 . S
C2668 C2669 1.404 . S
C2668 C2671 1.539 . S
C2669 C2665 1.408 . S
C2669 C2668 1.404 . S
C2669 H2681 0.930 . S
C2670 C2666 1.524 . S
C2670 H2682 0.956 . S
C2670 H2683 0.961 . S
C2670 H2684 0.961 . S
C2671 C2668 1.539 . S
C2671 H2685 0.958 . S
C2671 H2686 0.961 . S
C2671 H2687 0.960 . S
H2672 C2656 0.931 . S
H2673 C2661 0.929 . S
H2674 C2662 0.960 . S
H2675 C2662 0.962 . S
H2676 C2662 0.960 . S
H2677 C2663 0.961 . S
H2678 C2663 0.961 . S
H2679 C2663 0.961 . S
H2680 C2664 0.931 . S
H2681 C2669 0.930 . S
H2682 C2670 0.956 . S
H2683 C2670 0.961 . S
H2684 C2670 0.961 . S
H2685 C2671 0.958 . S
H2686 C2671 0.961 . S
H2687 C2671 0.960 . S
C2688 C2689 1.391 . S
C2688 C2690 1.394 . S
C2688 H2704 0.931 . S
C2689 C2688 1.391 . S
C2689 C2693 1.376 . S
C2690 C2688 1.394 . S
C2690 C2691 1.369 . S
C2690 C2694 1.531 . S
C2691 C2690 1.369 . S
C2691 C2692 1.410 . S
C2691 C2699 1.503 . S
C2692 C2691 1.410 . S
C2692 C2693 1.392 . S
C2692 C2695 1.511 . S
C2693 C2689 1.376 . S
C2693 C2692 1.392 . S
C2693 H2705 0.929 . S
C2694 C2690 1.531 . S
C2694 H2706 0.960 . S
C2694 H2707 0.962 . S
C2694 H2708 0.960 . S
C2695 C2692 1.511 . S
C2695 H2709 0.961 . S
C2695 H2710 0.961 . S
C2695 H2711 0.961 . S
C2696 C2697 1.370 . S
C2696 C2698 1.363 . S
C2696 H2712 0.931 . S
C2697 C2696 1.370 . S
C2697 C2701 1.408 . S
C2698 C2696 1.363 . S
C2698 C2699 1.370 . S
C2698 C2702 1.524 . S
C2699 C2691 1.503 . S
C2699 C2698 1.370 . S
C2699 C2700 1.403 . S
C2700 C2699 1.403 . S
C2700 C2701 1.404 . S
C2700 C2703 1.539 . S
C2701 C2697 1.408 . S
C2701 C2700 1.404 . S
C2701 H2713 0.930 . S
C2702 C2698 1.524 . S
C2702 H2714 0.956 . S
C2702 H2715 0.961 . S
C2702 H2716 0.961 . S
C2703 C2700 1.539 . S
C2703 H2717 0.958 . S
C2703 H2718 0.961 . S
C2703 H2719 0.960 . S
H2704 C2688 0.931 . S
H2705 C2693 0.929 . S
H2706 C2694 0.960 . S
H2707 C2694 0.962 . S
H2708 C2694 0.960 . S
H2709 C2695 0.961 . S
H2710 C2695 0.961 . S
H2711 C2695 0.961 . S
H2712 C2696 0.931 . S
H2713 C2701 0.930 . S
H2714 C2702 0.956 . S
H2715 C2702 0.961 . S
H2716 C2702 0.961 . S
H2717 C2703 0.958 . S
H2718 C2703 0.961 . S
H2719 C2703 0.960 . S
C2720 C2721 1.391 . S
C2720 C2722 1.394 . S
C2720 H2736 0.931 . S
C2721 C2720 1.391 . S
C2721 C2725 1.376 . S
C2722 C2720 1.394 . S
C2722 C2723 1.369 . S
C2722 C2726 1.531 . S
C2723 C2722 1.369 . S
C2723 C2724 1.410 . S
C2723 C2731 1.503 . S
C2724 C2723 1.410 . S
C2724 C2725 1.392 . S
C2724 C2727 1.511 . S
C2725 C2721 1.376 . S
C2725 C2724 1.392 . S
C2725 H2737 0.929 . S
C2726 C2722 1.531 . S
C2726 H2738 0.960 . S
C2726 H2739 0.962 . S
C2726 H2740 0.960 . S
C2727 C2724 1.511 . S
C2727 H2741 0.961 . S
C2727 H2742 0.961 . S
C2727 H2743 0.961 . S
C2728 C2729 1.370 . S
C2728 C2730 1.363 . S
C2728 H2744 0.931 . S
C2729 C2728 1.370 . S
C2729 C2733 1.408 . S
C2730 C2728 1.363 . S
C2730 C2731 1.370 . S
C2730 C2734 1.524 . S
C2731 C2723 1.503 . S
C2731 C2730 1.370 . S
C2731 C2732 1.403 . S
C2732 C2731 1.403 . S
C2732 C2733 1.404 . S
C2732 C2735 1.539 . S
C2733 C2729 1.408 . S
C2733 C2732 1.404 . S
C2733 H2745 0.930 . S
C2734 C2730 1.524 . S
C2734 H2746 0.956 . S
C2734 H2747 0.961 . S
C2734 H2748 0.961 . S
C2735 C2732 1.539 . S
C2735 H2749 0.958 . S
C2735 H2750 0.961 . S
C2735 H2751 0.960 . S
H2736 C2720 0.931 . S
H2737 C2725 0.929 . S
H2738 C2726 0.960 . S
H2739 C2726 0.962 . S
H2740 C2726 0.960 . S
H2741 C2727 0.961 . S
H2742 C2727 0.961 . S
H2743 C2727 0.961 . S
H2744 C2728 0.931 . S
H2745 C2733 0.930 . S
H2746 C2734 0.956 . S
H2747 C2734 0.961 . S
H2748 C2734 0.961 . S
H2749 C2735 0.958 . S
H2750 C2735 0.961 . S
H2751 C2735 0.960 . S
C2752 C2753 1.391 . S
C2752 C2754 1.394 . S
C2752 H2768 0.931 . S
C2753 C2752 1.391 . S
C2753 C2757 1.376 . S
C2754 C2752 1.394 . S
C2754 C2755 1.369 . S
C2754 C2758 1.531 . S
C2755 C2754 1.369 . S
C2755 C2756 1.410 . S
C2755 C2763 1.503 . S
C2756 C2755 1.410 . S
C2756 C2757 1.392 . S
C2756 C2759 1.511 . S
C2757 C2753 1.376 . S
C2757 C2756 1.392 . S
C2757 H2769 0.929 . S
C2758 C2754 1.531 . S
C2758 H2770 0.960 . S
C2758 H2771 0.962 . S
C2758 H2772 0.960 . S
C2759 C2756 1.511 . S
C2759 H2773 0.961 . S
C2759 H2774 0.961 . S
C2759 H2775 0.961 . S
C2760 C2761 1.370 . S
C2760 C2762 1.363 . S
C2760 H2776 0.931 . S
C2761 C2760 1.370 . S
C2761 C2765 1.408 . S
C2762 C2760 1.363 . S
C2762 C2763 1.370 . S
C2762 C2766 1.524 . S
C2763 C2755 1.503 . S
C2763 C2762 1.370 . S
C2763 C2764 1.403 . S
C2764 C2763 1.403 . S
C2764 C2765 1.404 . S
C2764 C2767 1.539 . S
C2765 C2761 1.408 . S
C2765 C2764 1.404 . S
C2765 H2777 0.930 . S
C2766 C2762 1.524 . S
C2766 H2778 0.956 . S
C2766 H2779 0.961 . S
C2766 H2780 0.961 . S
C2767 C2764 1.539 . S
C2767 H2781 0.958 . S
C2767 H2782 0.961 . S
C2767 H2783 0.960 . S
H2768 C2752 0.931 . S
H2769 C2757 0.929 . S
H2770 C2758 0.960 . S
H2771 C2758 0.962 . S
H2772 C2758 0.960 . S
H2773 C2759 0.961 . S
H2774 C2759 0.961 . S
H2775 C2759 0.961 . S
H2776 C2760 0.931 . S
H2777 C2765 0.930 . S
H2778 C2766 0.956 . S
H2779 C2766 0.961 . S
H2780 C2766 0.961 . S
H2781 C2767 0.958 . S
H2782 C2767 0.961 . S
H2783 C2767 0.960 . S
C2784 C2785 1.391 . S
C2784 C2786 1.394 . S
C2784 H2800 0.931 . S
C2785 C2784 1.391 . S
C2785 C2789 1.376 . S
C2786 C2784 1.394 . S
C2786 C2787 1.369 . S
C2786 C2790 1.531 . S
C2787 C2786 1.369 . S
C2787 C2788 1.410 . S
C2787 C2795 1.503 . S
C2788 C2787 1.410 . S
C2788 C2789 1.392 . S
C2788 C2791 1.511 . S
C2789 C2785 1.376 . S
C2789 C2788 1.392 . S
C2789 H2801 0.929 . S
C2790 C2786 1.531 . S
C2790 H2802 0.960 . S
C2790 H2803 0.962 . S
C2790 H2804 0.960 . S
C2791 C2788 1.511 . S
C2791 H2805 0.961 . S
C2791 H2806 0.961 . S
C2791 H2807 0.961 . S
C2792 C2793 1.370 . S
C2792 C2794 1.363 . S
C2792 H2808 0.931 . S
C2793 C2792 1.370 . S
C2793 C2797 1.408 . S
C2794 C2792 1.363 . S
C2794 C2795 1.370 . S
C2794 C2798 1.524 . S
C2795 C2787 1.503 . S
C2795 C2794 1.370 . S
C2795 C2796 1.403 . S
C2796 C2795 1.403 . S
C2796 C2797 1.404 . S
C2796 C2799 1.539 . S
C2797 C2793 1.408 . S
C2797 C2796 1.404 . S
C2797 H2809 0.930 . S
C2798 C2794 1.524 . S
C2798 H2810 0.956 . S
C2798 H2811 0.961 . S
C2798 H2812 0.961 . S
C2799 C2796 1.539 . S
C2799 H2813 0.958 . S
C2799 H2814 0.961 . S
C2799 H2815 0.960 . S
H2800 C2784 0.931 . S
H2801 C2789 0.929 . S
H2802 C2790 0.960 . S
H2803 C2790 0.962 . S
H2804 C2790 0.960 . S
H2805 C2791 0.961 . S
H2806 C2791 0.961 . S
H2807 C2791 0.961 . S
H2808 C2792 0.931 . S
H2809 C2797 0.930 . S
H2810 C2798 0.956 . S
H2811 C2798 0.961 . S
H2812 C2798 0.961 . S
H2813 C2799 0.958 . S
H2814 C2799 0.961 . S
H2815 C2799 0.960 . S
C2816 C2817 1.391 . S
C2816 C2818 1.394 . S
C2816 H2832 0.931 . S
C2817 C2816 1.391 . S
C2817 C2821 1.376 . S
C2818 C2816 1.394 . S
C2818 C2819 1.369 . S
C2818 C2822 1.531 . S
C2819 C2818 1.369 . S
C2819 C2820 1.410 . S
C2819 C2827 1.503 . S
C2820 C2819 1.410 . S
C2820 C2821 1.392 . S
C2820 C2823 1.511 . S
C2821 C2817 1.376 . S
C2821 C2820 1.392 . S
C2821 H2833 0.929 . S
C2822 C2818 1.531 . S
C2822 H2834 0.960 . S
C2822 H2835 0.962 . S
C2822 H2836 0.960 . S
C2823 C2820 1.511 . S
C2823 H2837 0.961 . S
C2823 H2838 0.961 . S
C2823 H2839 0.961 . S
C2824 C2825 1.370 . S
C2824 C2826 1.363 . S
C2824 H2840 0.931 . S
C2825 C2824 1.370 . S
C2825 C2829 1.408 . S
C2826 C2824 1.363 . S
C2826 C2827 1.370 . S
C2826 C2830 1.524 . S
C2827 C2819 1.503 . S
C2827 C2826 1.370 . S
C2827 C2828 1.403 . S
C2828 C2827 1.403 . S
C2828 C2829 1.404 . S
C2828 C2831 1.539 . S
C2829 C2825 1.408 . S
C2829 C2828 1.404 . S
C2829 H2841 0.930 . S
C2830 C2826 1.524 . S
C2830 H2842 0.956 . S
C2830 H2843 0.961 . S
C2830 H2844 0.961 . S
C2831 C2828 1.539 . S
C2831 H2845 0.958 . S
C2831 H2846 0.961 . S
C2831 H2847 0.960 . S
H2832 C2816 0.931 . S
H2833 C2821 0.929 . S
H2834 C2822 0.960 . S
H2835 C2822 0.962 . S
H2836 C2822 0.960 . S
H2837 C2823 0.961 . S
H2838 C2823 0.961 . S
H2839 C2823 0.961 . S
H2840 C2824 0.931 . S
H2841 C2829 0.930 . S
H2842 C2830 0.956 . S
H2843 C2830 0.961 . S
H2844 C2830 0.961 . S
H2845 C2831 0.958 . S
H2846 C2831 0.961 . S
H2847 C2831 0.960 . S
C2848 C2849 1.391 . S
C2848 C2850 1.394 . S
C2848 H2864 0.931 . S
C2849 C2848 1.391 . S
C2849 C2853 1.376 . S
C2850 C2848 1.394 . S
C2850 C2851 1.369 . S
C2850 C2854 1.531 . S
C2851 C2850 1.369 . S
C2851 C2852 1.410 . S
C2851 C2859 1.503 . S
C2852 C2851 1.410 . S
C2852 C2853 1.392 . S
C2852 C2855 1.511 . S
C2853 C2849 1.376 . S
C2853 C2852 1.392 . S
C2853 H2865 0.929 . S
C2854 C2850 1.531 . S
C2854 H2866 0.960 . S
C2854 H2867 0.962 . S
C2854 H2868 0.960 . S
C2855 C2852 1.511 . S
C2855 H2869 0.961 . S
C2855 H2870 0.961 . S
C2855 H2871 0.961 . S
C2856 C2857 1.370 . S
C2856 C2858 1.363 . S
C2856 H2872 0.931 . S
C2857 C2856 1.370 . S
C2857 C2861 1.408 . S
C2858 C2856 1.363 . S
C2858 C2859 1.370 . S
C2858 C2862 1.524 . S
C2859 C2851 1.503 . S
C2859 C2858 1.370 . S
C2859 C2860 1.403 . S
C2860 C2859 1.403 . S
C2860 C2861 1.404 . S
C2860 C2863 1.539 . S
C2861 C2857 1.408 . S
C2861 C2860 1.404 . S
C2861 H2873 0.930 . S
C2862 C2858 1.524 . S
C2862 H2874 0.956 . S
C2862 H2875 0.961 . S
C2862 H2876 0.961 . S
C2863 C2860 1.539 . S
C2863 H2877 0.958 . S
C2863 H2878 0.961 . S
C2863 H2879 0.960 . S
H2864 C2848 0.931 . S
H2865 C2853 0.929 . S
H2866 C2854 0.960 . S
H2867 C2854 0.962 . S
H2868 C2854 0.960 . S
H2869 C2855 0.961 . S
H2870 C2855 0.961 . S
H2871 C2855 0.961 . S
H2872 C2856 0.931 . S
H2873 C2861 0.930 . S
H2874 C2862 0.956 . S
H2875 C2862 0.961 . S
H2876 C2862 0.961 . S
H2877 C2863 0.958 . S
H2878 C2863 0.961 . S
H2879 C2863 0.960 . S
C2880 C2881 1.391 . S
C2880 C2882 1.394 . S
C2880 H2896 0.931 . S
C2881 C2880 1.391 . S
C2881 C2885 1.376 . S
C2882 C2880 1.394 . S
C2882 C2883 1.369 . S
C2882 C2886 1.531 . S
C2883 C2882 1.369 . S
C2883 C2884 1.410 . S
C2883 C2891 1.503 . S
C2884 C2883 1.410 . S
C2884 C2885 1.392 . S
C2884 C2887 1.511 . S
C2885 C2881 1.376 . S
C2885 C2884 1.392 . S
C2885 H2897 0.929 . S
C2886 C2882 1.531 . S
C2886 H2898 0.960 . S
C2886 H2899 0.962 . S
C2886 H2900 0.960 . S
C2887 C2884 1.511 . S
C2887 H2901 0.961 . S
C2887 H2902 0.961 . S
C2887 H2903 0.961 . S
C2888 C2889 1.370 . S
C2888 C2890 1.363 . S
C2888 H2904 0.931 . S
C2889 C2888 1.370 . S
C2889 C2893 1.408 . S
C2890 C2888 1.363 . S
C2890 C2891 1.370 . S
C2890 C2894 1.524 . S
C2891 C2883 1.503 . S
C2891 C2890 1.370 . S
C2891 C2892 1.403 . S
C2892 C2891 1.403 . S
C2892 C2893 1.404 . S
C2892 C2895 1.539 . S
C2893 C2889 1.408 . S
C2893 C2892 1.404 . S
C2893 H2905 0.930 . S
C2894 C2890 1.524 . S
C2894 H2906 0.956 . S
C2894 H2907 0.961 . S
C2894 H2908 0.961 . S
C2895 C2892 1.539 . S
C2895 H2909 0.958 . S
C2895 H2910 0.961 . S
C2895 H2911 0.960 . S
H2896 C2880 0.931 . S
H2897 C2885 0.929 . S
H2898 C2886 0.960 . S
H2899 C2886 0.962 . S
H2900 C2886 0.960 . S
H2901 C2887 0.961 . S
H2902 C2887 0.961 . S
H2903 C2887 0.961 . S
H2904 C2888 0.931 . S
H2905 C2893 0.930 . S
H2906 C2894 0.956 . S
H2907 C2894 0.961 . S
H2908 C2894 0.961 . S
H2909 C2895 0.958 . S
H2910 C2895 0.961 . S
H2911 C2895 0.960 . S
C2912 C2913 1.391 . S
C2912 C2914 1.394 . S
C2912 H2928 0.931 . S
C2913 C2912 1.391 . S
C2913 C2917 1.376 . S
C2914 C2912 1.394 . S
C2914 C2915 1.369 . S
C2914 C2918 1.531 . S
C2915 C2914 1.369 . S
C2915 C2916 1.410 . S
C2915 C2923 1.503 . S
C2916 C2915 1.410 . S
C2916 C2917 1.392 . S
C2916 C2919 1.511 . S
C2917 C2913 1.376 . S
C2917 C2916 1.392 . S
C2917 H2929 0.929 . S
C2918 C2914 1.531 . S
C2918 H2930 0.960 . S
C2918 H2931 0.962 . S
C2918 H2932 0.960 . S
C2919 C2916 1.511 . S
C2919 H2933 0.961 . S
C2919 H2934 0.961 . S
C2919 H2935 0.961 . S
C2920 C2921 1.370 . S
C2920 C2922 1.363 . S
C2920 H2936 0.931 . S
C2921 C2920 1.370 . S
C2921 C2925 1.408 . S
C2922 C2920 1.363 . S
C2922 C2923 1.370 . S
C2922 C2926 1.524 . S
C2923 C2915 1.503 . S
C2923 C2922 1.370 . S
C2923 C2924 1.403 . S
C2924 C2923 1.403 . S
C2924 C2925 1.404 . S
C2924 C2927 1.539 . S
C2925 C2921 1.408 . S
C2925 C2924 1.404 . S
C2925 H2937 0.930 . S
C2926 C2922 1.524 . S
C2926 H2938 0.956 . S
C2926 H2939 0.961 . S
C2926 H2940 0.961 . S
C2927 C2924 1.539 . S
C2927 H2941 0.958 . S
C2927 H2942 0.961 . S
C2927 H2943 0.960 . S
H2928 C2912 0.931 . S
H2929 C2917 0.929 . S
H2930 C2918 0.960 . S
H2931 C2918 0.962 . S
H2932 C2918 0.960 . S
H2933 C2919 0.961 . S
H2934 C2919 0.961 . S
H2935 C2919 0.961 . S
H2936 C2920 0.931 . S
H2937 C2925 0.930 . S
H2938 C2926 0.956 . S
H2939 C2926 0.961 . S
H2940 C2926 0.961 . S
H2941 C2927 0.958 . S
H2942 C2927 0.961 . S
H2943 C2927 0.960 . S
C2944 C2945 1.391 . S
C2944 C2946 1.394 . S
C2944 H2960 0.931 . S
C2945 C2944 1.391 . S
C2945 C2949 1.376 . S
C2946 C2944 1.394 . S
C2946 C2947 1.369 . S
C2946 C2950 1.531 . S
C2947 C2946 1.369 . S
C2947 C2948 1.410 . S
C2947 C2955 1.503 . S
C2948 C2947 1.410 . S
C2948 C2949 1.392 . S
C2948 C2951 1.511 . S
C2949 C2945 1.376 . S
C2949 C2948 1.392 . S
C2949 H2961 0.929 . S
C2950 C2946 1.531 . S
C2950 H2962 0.960 . S
C2950 H2963 0.962 . S
C2950 H2964 0.960 . S
C2951 C2948 1.511 . S
C2951 H2965 0.961 . S
C2951 H2966 0.961 . S
C2951 H2967 0.961 . S
C2952 C2953 1.370 . S
C2952 C2954 1.363 . S
C2952 H2968 0.931 . S
C2953 C2952 1.370 . S
C2953 C2957 1.408 . S
C2954 C2952 1.363 . S
C2954 C2955 1.370 . S
C2954 C2958 1.524 . S
C2955 C2947 1.503 . S
C2955 C2954 1.370 . S
C2955 C2956 1.403 . S
C2956 C2955 1.403 . S
C2956 C2957 1.404 . S
C2956 C2959 1.539 . S
C2957 C2953 1.408 . S
C2957 C2956 1.404 . S
C2957 H2969 0.930 . S
C2958 C2954 1.524 . S
C2958 H2970 0.956 . S
C2958 H2971 0.961 . S
C2958 H2972 0.961 . S
C2959 C2956 1.539 . S
C2959 H2973 0.958 . S
C2959 H2974 0.961 . S
C2959 H2975 0.960 . S
H2960 C2944 0.931 . S
H2961 C2949 0.929 . S
H2962 C2950 0.960 . S
H2963 C2950 0.962 . S
H2964 C2950 0.960 . S
H2965 C2951 0.961 . S
H2966 C2951 0.961 . S
H2967 C2951 0.961 . S
H2968 C2952 0.931 . S
H2969 C2957 0.930 . S
H2970 C2958 0.956 . S
H2971 C2958 0.961 . S
H2972 C2958 0.961 . S
H2973 C2959 0.958 . S
H2974 C2959 0.961 . S
H2975 C2959 0.960 . S
C2976 C2977 1.391 . S
C2976 C2978 1.394 . S
C2976 H2992 0.931 . S
C2977 C2976 1.391 . S
C2977 C2981 1.376 . S
C2978 C2976 1.394 . S
C2978 C2979 1.369 . S
C2978 C2982 1.531 . S
C2979 C2978 1.369 . S
C2979 C2980 1.410 . S
C2979 C2987 1.503 . S
C2980 C2979 1.410 . S
C2980 C2981 1.392 . S
C2980 C2983 1.511 . S
C2981 C2977 1.376 . S
C2981 C2980 1.392 . S
C2981 H2993 0.929 . S
C2982 C2978 1.531 . S
C2982 H2994 0.960 . S
C2982 H2995 0.962 . S
C2982 H2996 0.960 . S
C2983 C2980 1.511 . S
C2983 H2997 0.961 . S
C2983 H2998 0.961 . S
C2983 H2999 0.961 . S
C2984 C2985 1.370 . S
C2984 C2986 1.363 . S
C2984 H3000 0.931 . S
C2985 C2984 1.370 . S
C2985 C2989 1.408 . S
C2986 C2984 1.363 . S
C2986 C2987 1.370 . S
C2986 C2990 1.524 . S
C2987 C2979 1.503 . S
C2987 C2986 1.370 . S
C2987 C2988 1.403 . S
C2988 C2987 1.403 . S
C2988 C2989 1.404 . S
C2988 C2991 1.539 . S
C2989 C2985 1.408 . S
C2989 C2988 1.404 . S
C2989 H3001 0.930 . S
C2990 C2986 1.524 . S
C2990 H3002 0.956 . S
C2990 H3003 0.961 . S
C2990 H3004 0.961 . S
C2991 C2988 1.539 . S
C2991 H3005 0.958 . S
C2991 H3006 0.961 . S
C2991 H3007 0.960 . S
H2992 C2976 0.931 . S
H2993 C2981 0.929 . S
H2994 C2982 0.960 . S
H2995 C2982 0.962 . S
H2996 C2982 0.960 . S
H2997 C2983 0.961 . S
H2998 C2983 0.961 . S
H2999 C2983 0.961 . S
H3000 C2984 0.931 . S
H3001 C2989 0.930 . S
H3002 C2990 0.956 . S
H3003 C2990 0.961 . S
H3004 C2990 0.961 . S
H3005 C2991 0.958 . S
H3006 C2991 0.961 . S
H3007 C2991 0.960 . S
C3008 C3009 1.391 . S
C3008 C3010 1.394 . S
C3008 H3024 0.931 . S
C3009 C3008 1.391 . S
C3009 C3013 1.376 . S
C3010 C3008 1.394 . S
C3010 C3011 1.369 . S
C3010 C3014 1.531 . S
C3011 C3010 1.369 . S
C3011 C3012 1.410 . S
C3011 C3019 1.503 . S
C3012 C3011 1.410 . S
C3012 C3013 1.392 . S
C3012 C3015 1.511 . S
C3013 C3009 1.376 . S
C3013 C3012 1.392 . S
C3013 H3025 0.929 . S
C3014 C3010 1.531 . S
C3014 H3026 0.960 . S
C3014 H3027 0.962 . S
C3014 H3028 0.960 . S
C3015 C3012 1.511 . S
C3015 H3029 0.961 . S
C3015 H3030 0.961 . S
C3015 H3031 0.961 . S
C3016 C3017 1.370 . S
C3016 C3018 1.363 . S
C3016 H3032 0.931 . S
C3017 C3016 1.370 . S
C3017 C3021 1.408 . S
C3018 C3016 1.363 . S
C3018 C3019 1.370 . S
C3018 C3022 1.524 . S
C3019 C3011 1.503 . S
C3019 C3018 1.370 . S
C3019 C3020 1.403 . S
C3020 C3019 1.403 . S
C3020 C3021 1.404 . S
C3020 C3023 1.539 . S
C3021 C3017 1.408 . S
C3021 C3020 1.404 . S
C3021 H3033 0.930 . S
C3022 C3018 1.524 . S
C3022 H3034 0.956 . S
C3022 H3035 0.961 . S
C3022 H3036 0.961 . S
C3023 C3020 1.539 . S
C3023 H3037 0.958 . S
C3023 H3038 0.961 . S
C3023 H3039 0.960 . S
H3024 C3008 0.931 . S
H3025 C3013 0.929 . S
H3026 C3014 0.960 . S
H3027 C3014 0.962 . S
H3028 C3014 0.960 . S
H3029 C3015 0.961 . S
H3030 C3015 0.961 . S
H3031 C3015 0.961 . S
H3032 C3016 0.931 . S
H3033 C3021 0.930 . S
H3034 C3022 0.956 . S
H3035 C3022 0.961 . S
H3036 C3022 0.961 . S
H3037 C3023 0.958 . S
H3038 C3023 0.961 . S
H3039 C3023 0.960 . S
C3040 C3041 1.391 . S
C3040 C3042 1.394 . S
C3040 H3056 0.931 . S
C3041 C3040 1.391 . S
C3041 C3045 1.376 . S
C3042 C3040 1.394 . S
C3042 C3043 1.369 . S
C3042 C3046 1.531 . S
C3043 C3042 1.369 . S
C3043 C3044 1.410 . S
C3043 C3051 1.503 . S
C3044 C3043 1.410 . S
C3044 C3045 1.392 . S
C3044 C3047 1.511 . S
C3045 C3041 1.376 . S
C3045 C3044 1.392 . S
C3045 H3057 0.929 . S
C3046 C3042 1.531 . S
C3046 H3058 0.960 . S
C3046 H3059 0.962 . S
C3046 H3060 0.960 . S
C3047 C3044 1.511 . S
C3047 H3061 0.961 . S
C3047 H3062 0.961 . S
C3047 H3063 0.961 . S
C3048 C3049 1.370 . S
C3048 C3050 1.363 . S
C3048 H3064 0.931 . S
C3049 C3048 1.370 . S
C3049 C3053 1.408 . S
C3050 C3048 1.363 . S
C3050 C3051 1.370 . S
C3050 C3054 1.524 . S
C3051 C3043 1.503 . S
C3051 C3050 1.370 . S
C3051 C3052 1.403 . S
C3052 C3051 1.403 . S
C3052 C3053 1.404 . S
C3052 C3055 1.539 . S
C3053 C3049 1.408 . S
C3053 C3052 1.404 . S
C3053 H3065 0.930 . S
C3054 C3050 1.524 . S
C3054 H3066 0.956 . S
C3054 H3067 0.961 . S
C3054 H3068 0.961 . S
C3055 C3052 1.539 . S
C3055 H3069 0.958 . S
C3055 H3070 0.961 . S
C3055 H3071 0.960 . S
H3056 C3040 0.931 . S
H3057 C3045 0.929 . S
H3058 C3046 0.960 . S
H3059 C3046 0.962 . S
H3060 C3046 0.960 . S
H3061 C3047 0.961 . S
H3062 C3047 0.961 . S
H3063 C3047 0.961 . S
H3064 C3048 0.931 . S
H3065 C3053 0.930 . S
H3066 C3054 0.956 . S
H3067 C3054 0.961 . S
H3068 C3054 0.961 . S
H3069 C3055 0.958 . S
H3070 C3055 0.961 . S
H3071 C3055 0.960 . S
C3072 C3073 1.391 . S
C3072 C3074 1.394 . S
C3072 H3088 0.931 . S
C3073 C3072 1.391 . S
C3073 C3077 1.376 . S
C3074 C3072 1.394 . S
C3074 C3075 1.369 . S
C3074 C3078 1.531 . S
C3075 C3074 1.369 . S
C3075 C3076 1.410 . S
C3075 C3083 1.503 . S
C3076 C3075 1.410 . S
C3076 C3077 1.392 . S
C3076 C3079 1.511 . S
C3077 C3073 1.376 . S
C3077 C3076 1.392 . S
C3077 H3089 0.929 . S
C3078 C3074 1.531 . S
C3078 H3090 0.960 . S
C3078 H3091 0.962 . S
C3078 H3092 0.960 . S
C3079 C3076 1.511 . S
C3079 H3093 0.961 . S
C3079 H3094 0.961 . S
C3079 H3095 0.961 . S
C3080 C3081 1.370 . S
C3080 C3082 1.363 . S
C3080 H3096 0.931 . S
C3081 C3080 1.370 . S
C3081 C3085 1.408 . S
C3082 C3080 1.363 . S
C3082 C3083 1.370 . S
C3082 C3086 1.524 . S
C3083 C3075 1.503 . S
C3083 C3082 1.370 . S
C3083 C3084 1.403 . S
C3084 C3083 1.403 . S
C3084 C3085 1.404 . S
C3084 C3087 1.539 . S
C3085 C3081 1.408 . S
C3085 C3084 1.404 . S
C3085 H3097 0.930 . S
C3086 C3082 1.524 . S
C3086 H3098 0.956 . S
C3086 H3099 0.961 . S
C3086 H3100 0.961 . S
C3087 C3084 1.539 . S
C3087 H3101 0.958 . S
C3087 H3102 0.961 . S
C3087 H3103 0.960 . S
H3088 C3072 0.931 . S
H3089 C3077 0.929 . S
H3090 C3078 0.960 . S
H3091 C3078 0.962 . S
H3092 C3078 0.960 . S
H3093 C3079 0.961 . S
H3094 C3079 0.961 . S
H3095 C3079 0.961 . S
H3096 C3080 0.931 . S
H3097 C3085 0.930 . S
H3098 C3086 0.956 . S
H3099 C3086 0.961 . S
H3100 C3086 0.961 . S
H3101 C3087 0.958 . S
H3102 C3087 0.961 . S
H3103 C3087 0.960 . S
C3104 C3105 1.391 . S
C3104 C3106 1.394 . S
C3104 H3120 0.931 . S
C3105 C3104 1.391 . S
C3105 C3109 1.376 . S
C3106 C3104 1.394 . S
C3106 C3107 1.369 . S
C3106 C3110 1.531 . S
C3107 C3106 1.369 . S
C3107 C3108 1.410 . S
C3107 C3115 1.503 . S
C3108 C3107 1.410 . S
C3108 C3109 1.392 . S
C3108 C3111 1.511 . S
C3109 C3105 1.376 . S
C3109 C3108 1.392 . S
C3109 H3121 0.929 . S
C3110 C3106 1.531 . S
C3110 H3122 0.960 . S
C3110 H3123 0.962 . S
C3110 H3124 0.960 . S
C3111 C3108 1.511 . S
C3111 H3125 0.961 . S
C3111 H3126 0.961 . S
C3111 H3127 0.961 . S
C3112 C3113 1.370 . S
C3112 C3114 1.363 . S
C3112 H3128 0.931 . S
C3113 C3112 1.370 . S
C3113 C3117 1.408 . S
C3114 C3112 1.363 . S
C3114 C3115 1.370 . S
C3114 C3118 1.524 . S
C3115 C3107 1.503 . S
C3115 C3114 1.370 . S
C3115 C3116 1.403 . S
C3116 C3115 1.403 . S
C3116 C3117 1.404 . S
C3116 C3119 1.539 . S
C3117 C3113 1.408 . S
C3117 C3116 1.404 . S
C3117 H3129 0.930 . S
C3118 C3114 1.524 . S
C3118 H3130 0.956 . S
C3118 H3131 0.961 . S
C3118 H3132 0.961 . S
C3119 C3116 1.539 . S
C3119 H3133 0.958 . S
C3119 H3134 0.961 . S
C3119 H3135 0.960 . S
H3120 C3104 0.931 . S
H3121 C3109 0.929 . S
H3122 C3110 0.960 . S
H3123 C3110 0.962 . S
H3124 C3110 0.960 . S
H3125 C3111 0.961 . S
H3126 C3111 0.961 . S
H3127 C3111 0.961 . S
H3128 C3112 0.931 . S
H3129 C3117 0.930 . S
H3130 C3118 0.956 . S
H3131 C3118 0.961 . S
H3132 C3118 0.961 . S
H3133 C3119 0.958 . S
H3134 C3119 0.961 . S
H3135 C3119 0.960 . S
C3136 C3137 1.391 . S
C3136 C3138 1.394 . S
C3136 H3152 0.931 . S
C3137 C3136 1.391 . S
C3137 C3141 1.376 . S
C3138 C3136 1.394 . S
C3138 C3139 1.369 . S
C3138 C3142 1.531 . S
C3139 C3138 1.369 . S
C3139 C3140 1.410 . S
C3139 C3147 1.503 . S
C3140 C3139 1.410 . S
C3140 C3141 1.392 . S
C3140 C3143 1.511 . S
C3141 C3137 1.376 . S
C3141 C3140 1.392 . S
C3141 H3153 0.929 . S
C3142 C3138 1.531 . S
C3142 H3154 0.960 . S
C3142 H3155 0.962 . S
C3142 H3156 0.960 . S
C3143 C3140 1.511 . S
C3143 H3157 0.961 . S
C3143 H3158 0.961 . S
C3143 H3159 0.961 . S
C3144 C3145 1.370 . S
C3144 C3146 1.363 . S
C3144 H3160 0.931 . S
C3145 C3144 1.370 . S
C3145 C3149 1.408 . S
C3146 C3144 1.363 . S
C3146 C3147 1.370 . S
C3146 C3150 1.524 . S
C3147 C3139 1.503 . S
C3147 C3146 1.370 . S
C3147 C3148 1.403 . S
C3148 C3147 1.403 . S
C3148 C3149 1.404 . S
C3148 C3151 1.539 . S
C3149 C3145 1.408 . S
C3149 C3148 1.404 . S
C3149 H3161 0.930 . S
C3150 C3146 1.524 . S
C3150 H3162 0.956 . S
C3150 H3163 0.961 . S
C3150 H3164 0.961 . S
C3151 C3148 1.539 . S
C3151 H3165 0.958 . S
C3151 H3166 0.961 . S
C3151 H3167 0.960 . S
H3152 C3136 0.931 . S
H3153 C3141 0.929 . S
H3154 C3142 0.960 . S
H3155 C3142 0.962 . S
H3156 C3142 0.960 . S
H3157 C3143 0.961 . S
H3158 C3143 0.961 . S
H3159 C3143 0.961 . S
H3160 C3144 0.931 . S
H3161 C3149 0.930 . S
H3162 C3150 0.956 . S
H3163 C3150 0.961 . S
H3164 C3150 0.961 . S
H3165 C3151 0.958 . S
H3166 C3151 0.961 . S
H3167 C3151 0.960 . S
C3168 C3169 1.391 . S
C3168 C3170 1.394 . S
C3168 H3184 0.931 . S
C3169 C3168 1.391 . S
C3169 C3173 1.376 . S
C3170 C3168 1.394 . S
C3170 C3171 1.369 . S
C3170 C3174 1.531 . S
C3171 C3170 1.369 . S
C3171 C3172 1.410 . S
C3171 C3179 1.503 . S
C3172 C3171 1.410 . S
C3172 C3173 1.392 . S
C3172 C3175 1.511 . S
C3173 C3169 1.376 . S
C3173 C3172 1.392 . S
C3173 H3185 0.929 . S
C3174 C3170 1.531 . S
C3174 H3186 0.960 . S
C3174 H3187 0.962 . S
C3174 H3188 0.960 . S
C3175 C3172 1.511 . S
C3175 H3189 0.961 . S
C3175 H3190 0.961 . S
C3175 H3191 0.961 . S
C3176 C3177 1.370 . S
C3176 C3178 1.363 . S
C3176 H3192 0.931 . S
C3177 C3176 1.370 . S
C3177 C3181 1.408 . S
C3178 C3176 1.363 . S
C3178 C3179 1.370 . S
C3178 C3182 1.524 . S
C3179 C3171 1.503 . S
C3179 C3178 1.370 . S
C3179 C3180 1.403 . S
C3180 C3179 1.403 . S
C3180 C3181 1.404 . S
C3180 C3183 1.539 . S
C3181 C3177 1.408 . S
C3181 C3180 1.404 . S
C3181 H3193 0.930 . S
C3182 C3178 1.524 . S
C3182 H3194 0.956 . S
C3182 H3195 0.961 . S
C3182 H3196 0.961 . S
C3183 C3180 1.539 . S
C3183 H3197 0.958 . S
C3183 H3198 0.961 . S
C3183 H3199 0.960 . S
H3184 C3168 0.931 . S
H3185 C3173 0.929 . S
H3186 C3174 0.960 . S
H3187 C3174 0.962 . S
H3188 C3174 0.960 . S
H3189 C3175 0.961 . S
H3190 C3175 0.961 . S
H3191 C3175 0.961 . S
H3192 C3176 0.931 . S
H3193 C3181 0.930 . S
H3194 C3182 0.956 . S
H3195 C3182 0.961 . S
H3196 C3182 0.961 . S
H3197 C3183 0.958 . S
H3198 C3183 0.961 . S
H3199 C3183 0.960 . S
C3200 C3201 1.391 . S
C3200 C3202 1.394 . S
C3200 H3216 0.931 . S
C3201 C3200 1.391 . S
C3201 C3205 1.376 . S
C3202 C3200 1.394 . S
C3202 C3203 1.369 . S
C3202 C3206 1.531 . S
C3203 C3202 1.369 . S
C3203 C3204 1.410 . S
C3203 C3211 1.503 . S
C3204 C3203 1.410 . S
C3204 C3205 1.392 . S
C3204 C3207 1.511 . S
C3205 C3201 1.376 . S
C3205 C3204 1.392 . S
C3205 H3217 0.929 . S
C3206 C3202 1.531 . S
C3206 H3218 0.960 . S
C3206 H3219 0.962 . S
C3206 H3220 0.960 . S
C3207 C3204 1.511 . S
C3207 H3221 0.961 . S
C3207 H3222 0.961 . S
C3207 H3223 0.961 . S
C3208 C3209 1.370 . S
C3208 C3210 1.363 . S
C3208 H3224 0.931 . S
C3209 C3208 1.370 . S
C3209 C3213 1.408 . S
C3210 C3208 1.363 . S
C3210 C3211 1.370 . S
C3210 C3214 1.524 . S
C3211 C3203 1.503 . S
C3211 C3210 1.370 . S
C3211 C3212 1.403 . S
C3212 C3211 1.403 . S
C3212 C3213 1.404 . S
C3212 C3215 1.539 . S
C3213 C3209 1.408 . S
C3213 C3212 1.404 . S
C3213 H3225 0.930 . S
C3214 C3210 1.524 . S
C3214 H3226 0.956 . S
C3214 H3227 0.961 . S
C3214 H3228 0.961 . S
C3215 C3212 1.539 . S
C3215 H3229 0.958 . S
C3215 H3230 0.961 . S
C3215 H3231 0.960 . S
H3216 C3200 0.931 . S
H3217 C3205 0.929 . S
H3218 C3206 0.960 . S
H3219 C3206 0.962 . S
H3220 C3206 0.960 . S
H3221 C3207 0.961 . S
H3222 C3207 0.961 . S
H3223 C3207 0.961 . S
H3224 C3208 0.931 . S
H3225 C3213 0.930 . S
H3226 C3214 0.956 . S
H3227 C3214 0.961 . S
H3228 C3214 0.961 . S
H3229 C3215 0.958 . S
H3230 C3215 0.961 . S
H3231 C3215 0.960 . S
C3232 C3233 1.391 . S
C3232 C3234 1.394 . S
C3232 H3248 0.931 . S
C3233 C3232 1.391 . S
C3233 C3237 1.376 . S
C3234 C3232 1.394 . S
C3234 C3235 1.369 . S
C3234 C3238 1.531 . S
C3235 C3234 1.369 . S
C3235 C3236 1.410 . S
C3235 C3243 1.503 . S
C3236 C3235 1.410 . S
C3236 C3237 1.392 . S
C3236 C3239 1.511 . S
C3237 C3233 1.376 . S
C3237 C3236 1.392 . S
C3237 H3249 0.929 . S
C3238 C3234 1.531 . S
C3238 H3250 0.960 . S
C3238 H3251 0.962 . S
C3238 H3252 0.960 . S
C3239 C3236 1.511 . S
C3239 H3253 0.961 . S
C3239 H3254 0.961 . S
C3239 H3255 0.961 . S
C3240 C3241 1.370 . S
C3240 C3242 1.363 . S
C3240 H3256 0.931 . S
C3241 C3240 1.370 . S
C3241 C3245 1.408 . S
C3242 C3240 1.363 . S
C3242 C3243 1.370 . S
C3242 C3246 1.524 . S
C3243 C3235 1.503 . S
C3243 C3242 1.370 . S
C3243 C3244 1.403 . S
C3244 C3243 1.403 . S
C3244 C3245 1.404 . S
C3244 C3247 1.539 . S
C3245 C3241 1.408 . S
C3245 C3244 1.404 . S
C3245 H3257 0.930 . S
C3246 C3242 1.524 . S
C3246 H3258 0.956 . S
C3246 H3259 0.961 . S
C3246 H3260 0.961 . S
C3247 C3244 1.539 . S
C3247 H3261 0.958 . S
C3247 H3262 0.961 . S
C3247 H3263 0.960 . S
H3248 C3232 0.931 . S
H3249 C3237 0.929 . S
H3250 C3238 0.960 . S
H3251 C3238 0.962 . S
H3252 C3238 0.960 . S
H3253 C3239 0.961 . S
H3254 C3239 0.961 . S
H3255 C3239 0.961 . S
H3256 C3240 0.931 . S
H3257 C3245 0.930 . S
H3258 C3246 0.956 . S
H3259 C3246 0.961 . S
H3260 C3246 0.961 . S
H3261 C3247 0.958 . S
H3262 C3247 0.961 . S
H3263 C3247 0.960 . S
C3264 C3265 1.391 . S
C3264 C3266 1.394 . S
C3264 H3280 0.931 . S
C3265 C3264 1.391 . S
C3265 C3269 1.376 . S
C3266 C3264 1.394 . S
C3266 C3267 1.369 . S
C3266 C3270 1.531 . S
C3267 C3266 1.369 . S
C3267 C3268 1.410 . S
C3267 C3275 1.503 . S
C3268 C3267 1.410 . S
C3268 C3269 1.392 . S
C3268 C3271 1.511 . S
C3269 C3265 1.376 . S
C3269 C3268 1.392 . S
C3269 H3281 0.929 . S
C3270 C3266 1.531 . S
C3270 H3282 0.960 . S
C3270 H3283 0.962 . S
C3270 H3284 0.960 . S
C3271 C3268 1.511 . S
C3271 H3285 0.961 . S
C3271 H3286 0.961 . S
C3271 H3287 0.961 . S
C3272 C3273 1.370 . S
C3272 C3274 1.363 . S
C3272 H3288 0.931 . S
C3273 C3272 1.370 . S
C3273 C3277 1.408 . S
C3274 C3272 1.363 . S
C3274 C3275 1.370 . S
C3274 C3278 1.524 . S
C3275 C3267 1.503 . S
C3275 C3274 1.370 . S
C3275 C3276 1.403 . S
C3276 C3275 1.403 . S
C3276 C3277 1.404 . S
C3276 C3279 1.539 . S
C3277 C3273 1.408 . S
C3277 C3276 1.404 . S
C3277 H3289 0.930 . S
C3278 C3274 1.524 . S
C3278 H3290 0.956 . S
C3278 H3291 0.961 . S
C3278 H3292 0.961 . S
C3279 C3276 1.539 . S
C3279 H3293 0.958 . S
C3279 H3294 0.961 . S
C3279 H3295 0.960 . S
H3280 C3264 0.931 . S
H3281 C3269 0.929 . S
H3282 C3270 0.960 . S
H3283 C3270 0.962 . S
H3284 C3270 0.960 . S
H3285 C3271 0.961 . S
H3286 C3271 0.961 . S
H3287 C3271 0.961 . S
H3288 C3272 0.931 . S
H3289 C3277 0.930 . S
H3290 C3278 0.956 . S
H3291 C3278 0.961 . S
H3292 C3278 0.961 . S
H3293 C3279 0.958 . S
H3294 C3279 0.961 . S
H3295 C3279 0.960 . S
C3296 C3297 1.391 . S
C3296 C3298 1.394 . S
C3296 H3312 0.931 . S
C3297 C3296 1.391 . S
C3297 C3301 1.376 . S
C3298 C3296 1.394 . S
C3298 C3299 1.369 . S
C3298 C3302 1.531 . S
C3299 C3298 1.369 . S
C3299 C3300 1.410 . S
C3299 C3307 1.503 . S
C3300 C3299 1.410 . S
C3300 C3301 1.392 . S
C3300 C3303 1.511 . S
C3301 C3297 1.376 . S
C3301 C3300 1.392 . S
C3301 H3313 0.929 . S
C3302 C3298 1.531 . S
C3302 H3314 0.960 . S
C3302 H3315 0.962 . S
C3302 H3316 0.960 . S
C3303 C3300 1.511 . S
C3303 H3317 0.961 . S
C3303 H3318 0.961 . S
C3303 H3319 0.961 . S
C3304 C3305 1.370 . S
C3304 C3306 1.363 . S
C3304 H3320 0.931 . S
C3305 C3304 1.370 . S
C3305 C3309 1.408 . S
C3306 C3304 1.363 . S
C3306 C3307 1.370 . S
C3306 C3310 1.524 . S
C3307 C3299 1.503 . S
C3307 C3306 1.370 . S
C3307 C3308 1.403 . S
C3308 C3307 1.403 . S
C3308 C3309 1.404 . S
C3308 C3311 1.539 . S
C3309 C3305 1.408 . S
C3309 C3308 1.404 . S
C3309 H3321 0.930 . S
C3310 C3306 1.524 . S
C3310 H3322 0.956 . S
C3310 H3323 0.961 . S
C3310 H3324 0.961 . S
C3311 C3308 1.539 . S
C3311 H3325 0.958 . S
C3311 H3326 0.961 . S
C3311 H3327 0.960 . S
H3312 C3296 0.931 . S
H3313 C3301 0.929 . S
H3314 C3302 0.960 . S
H3315 C3302 0.962 . S
H3316 C3302 0.960 . S
H3317 C3303 0.961 . S
H3318 C3303 0.961 . S
H3319 C3303 0.961 . S
H3320 C3304 0.931 . S
H3321 C3309 0.930 . S
H3322 C3310 0.956 . S
H3323 C3310 0.961 . S
H3324 C3310 0.961 . S
H3325 C3311 0.958 . S
H3326 C3311 0.961 . S
H3327 C3311 0.960 . S
C3328 C3329 1.391 . S
C3328 C3330 1.394 . S
C3328 H3344 0.931 . S
C3329 C3328 1.391 . S
C3329 C3333 1.376 . S
C3330 C3328 1.394 . S
C3330 C3331 1.369 . S
C3330 C3334 1.531 . S
C3331 C3330 1.369 . S
C3331 C3332 1.410 . S
C3331 C3339 1.503 . S
C3332 C3331 1.410 . S
C3332 C3333 1.392 . S
C3332 C3335 1.511 . S
C3333 C3329 1.376 . S
C3333 C3332 1.392 . S
C3333 H3345 0.929 . S
C3334 C3330 1.531 . S
C3334 H3346 0.960 . S
C3334 H3347 0.962 . S
C3334 H3348 0.960 . S
C3335 C3332 1.511 . S
C3335 H3349 0.961 . S
C3335 H3350 0.961 . S
C3335 H3351 0.961 . S
C3336 C3337 1.370 . S
C3336 C3338 1.363 . S
C3336 H3352 0.931 . S
C3337 C3336 1.370 . S
C3337 C3341 1.408 . S
C3338 C3336 1.363 . S
C3338 C3339 1.370 . S
C3338 C3342 1.524 . S
C3339 C3331 1.503 . S
C3339 C3338 1.370 . S
C3339 C3340 1.403 . S
C3340 C3339 1.403 . S
C3340 C3341 1.404 . S
C3340 C3343 1.539 . S
C3341 C3337 1.408 . S
C3341 C3340 1.404 . S
C3341 H3353 0.930 . S
C3342 C3338 1.524 . S
C3342 H3354 0.956 . S
C3342 H3355 0.961 . S
C3342 H3356 0.961 . S
C3343 C3340 1.539 . S
C3343 H3357 0.958 . S
C3343 H3358 0.961 . S
C3343 H3359 0.960 . S
H3344 C3328 0.931 . S
H3345 C3333 0.929 . S
H3346 C3334 0.960 . S
H3347 C3334 0.962 . S
H3348 C3334 0.960 . S
H3349 C3335 0.961 . S
H3350 C3335 0.961 . S
H3351 C3335 0.961 . S
H3352 C3336 0.931 . S
H3353 C3341 0.930 . S
H3354 C3342 0.956 . S
H3355 C3342 0.961 . S
H3356 C3342 0.961 . S
H3357 C3343 0.958 . S
H3358 C3343 0.961 . S
H3359 C3343 0.960 . S
C3360 C3361 1.391 . S
C3360 C3362 1.394 . S
C3360 H3376 0.931 . S
C3361 C3360 1.391 . S
C3361 C3365 1.376 . S
C3362 C3360 1.394 . S
C3362 C3363 1.369 . S
C3362 C3366 1.531 . S
C3363 C3362 1.369 . S
C3363 C3364 1.410 . S
C3363 C3371 1.503 . S
C3364 C3363 1.410 . S
C3364 C3365 1.392 . S
C3364 C3367 1.511 . S
C3365 C3361 1.376 . S
C3365 C3364 1.392 . S
C3365 H3377 0.929 . S
C3366 C3362 1.531 . S
C3366 H3378 0.960 . S
C3366 H3379 0.962 . S
C3366 H3380 0.960 . S
C3367 C3364 1.511 . S
C3367 H3381 0.961 . S
C3367 H3382 0.961 . S
C3367 H3383 0.961 . S
C3368 C3369 1.370 . S
C3368 C3370 1.363 . S
C3368 H3384 0.931 . S
C3369 C3368 1.370 . S
C3369 C3373 1.408 . S
C3370 C3368 1.363 . S
C3370 C3371 1.370 . S
C3370 C3374 1.524 . S
C3371 C3363 1.503 . S
C3371 C3370 1.370 . S
C3371 C3372 1.403 . S
C3372 C3371 1.403 . S
C3372 C3373 1.404 . S
C3372 C3375 1.539 . S
C3373 C3369 1.408 . S
C3373 C3372 1.404 . S
C3373 H3385 0.930 . S
C3374 C3370 1.524 . S
C3374 H3386 0.956 . S
C3374 H3387 0.961 . S
C3374 H3388 0.961 . S
C3375 C3372 1.539 . S
C3375 H3389 0.958 . S
C3375 H3390 0.961 . S
C3375 H3391 0.960 . S
H3376 C3360 0.931 . S
H3377 C3365 0.929 . S
H3378 C3366 0.960 . S
H3379 C3366 0.962 . S
H3380 C3366 0.960 . S
H3381 C3367 0.961 . S
H3382 C3367 0.961 . S
H3383 C3367 0.961 . S
H3384 C3368 0.931 . S
H3385 C3373 0.930 . S
H3386 C3374 0.956 . S
H3387 C3374 0.961 . S
H3388 C3374 0.961 . S
H3389 C3375 0.958 . S
H3390 C3375 0.961 . S
H3391 C3375 0.960 . S
C3392 C3393 1.391 . S
C3392 C3394 1.394 . S
C3392 H3408 0.931 . S
C3393 C3392 1.391 . S
C3393 C3397 1.376 . S
C3394 C3392 1.394 . S
C3394 C3395 1.369 . S
C3394 C3398 1.531 . S
C3395 C3394 1.369 . S
C3395 C3396 1.410 . S
C3395 C3403 1.503 . S
C3396 C3395 1.410 . S
C3396 C3397 1.392 . S
C3396 C3399 1.511 . S
C3397 C3393 1.376 . S
C3397 C3396 1.392 . S
C3397 H3409 0.929 . S
C3398 C3394 1.531 . S
C3398 H3410 0.960 . S
C3398 H3411 0.962 . S
C3398 H3412 0.960 . S
C3399 C3396 1.511 . S
C3399 H3413 0.961 . S
C3399 H3414 0.961 . S
C3399 H3415 0.961 . S
C3400 C3401 1.370 . S
C3400 C3402 1.363 . S
C3400 H3416 0.931 . S
C3401 C3400 1.370 . S
C3401 C3405 1.408 . S
C3402 C3400 1.363 . S
C3402 C3403 1.370 . S
C3402 C3406 1.524 . S
C3403 C3395 1.503 . S
C3403 C3402 1.370 . S
C3403 C3404 1.403 . S
C3404 C3403 1.403 . S
C3404 C3405 1.404 . S
C3404 C3407 1.539 . S
C3405 C3401 1.408 . S
C3405 C3404 1.404 . S
C3405 H3417 0.930 . S
C3406 C3402 1.524 . S
C3406 H3418 0.956 . S
C3406 H3419 0.961 . S
C3406 H3420 0.961 . S
C3407 C3404 1.539 . S
C3407 H3421 0.958 . S
C3407 H3422 0.961 . S
C3407 H3423 0.960 . S
H3408 C3392 0.931 . S
H3409 C3397 0.929 . S
H3410 C3398 0.960 . S
H3411 C3398 0.962 . S
H3412 C3398 0.960 . S
H3413 C3399 0.961 . S
H3414 C3399 0.961 . S
H3415 C3399 0.961 . S
H3416 C3400 0.931 . S
H3417 C3405 0.930 . S
H3418 C3406 0.956 . S
H3419 C3406 0.961 . S
H3420 C3406 0.961 . S
H3421 C3407 0.958 . S
H3422 C3407 0.961 . S
H3423 C3407 0.960 . S
C3424 C3425 1.391 . S
C3424 C3426 1.394 . S
C3424 H3440 0.931 . S
C3425 C3424 1.391 . S
C3425 C3429 1.376 . S
C3426 C3424 1.394 . S
C3426 C3427 1.369 . S
C3426 C3430 1.531 . S
C3427 C3426 1.369 . S
C3427 C3428 1.410 . S
C3427 C3435 1.503 . S
C3428 C3427 1.410 . S
C3428 C3429 1.392 . S
C3428 C3431 1.511 . S
C3429 C3425 1.376 . S
C3429 C3428 1.392 . S
C3429 H3441 0.929 . S
C3430 C3426 1.531 . S
C3430 H3442 0.960 . S
C3430 H3443 0.962 . S
C3430 H3444 0.960 . S
C3431 C3428 1.511 . S
C3431 H3445 0.961 . S
C3431 H3446 0.961 . S
C3431 H3447 0.961 . S
C3432 C3433 1.370 . S
C3432 C3434 1.363 . S
C3432 H3448 0.931 . S
C3433 C3432 1.370 . S
C3433 C3437 1.408 . S
C3434 C3432 1.363 . S
C3434 C3435 1.370 . S
C3434 C3438 1.524 . S
C3435 C3427 1.503 . S
C3435 C3434 1.370 . S
C3435 C3436 1.403 . S
C3436 C3435 1.403 . S
C3436 C3437 1.404 . S
C3436 C3439 1.539 . S
C3437 C3433 1.408 . S
C3437 C3436 1.404 . S
C3437 H3449 0.930 . S
C3438 C3434 1.524 . S
C3438 H3450 0.956 . S
C3438 H3451 0.961 . S
C3438 H3452 0.961 . S
C3439 C3436 1.539 . S
C3439 H3453 0.958 . S
C3439 H3454 0.961 . S
C3439 H3455 0.960 . S
H3440 C3424 0.931 . S
H3441 C3429 0.929 . S
H3442 C3430 0.960 . S
H3443 C3430 0.962 . S
H3444 C3430 0.960 . S
H3445 C3431 0.961 . S
H3446 C3431 0.961 . S
H3447 C3431 0.961 . S
H3448 C3432 0.931 . S
H3449 C3437 0.930 . S
H3450 C3438 0.956 . S
H3451 C3438 0.961 . S
H3452 C3438 0.961 . S
H3453 C3439 0.958 . S
H3454 C3439 0.961 . S
H3455 C3439 0.960 . S
C3456 C3457 1.391 . S
C3456 C3458 1.394 . S
C3456 H3472 0.931 . S
C3457 C3456 1.391 . S
C3457 C3461 1.376 . S
C3458 C3456 1.394 . S
C3458 C3459 1.369 . S
C3458 C3462 1.531 . S
C3459 C3458 1.369 . S
C3459 C3460 1.410 . S
C3459 C3467 1.503 . S
C3460 C3459 1.410 . S
C3460 C3461 1.392 . S
C3460 C3463 1.511 . S
C3461 C3457 1.376 . S
C3461 C3460 1.392 . S
C3461 H3473 0.929 . S
C3462 C3458 1.531 . S
C3462 H3474 0.960 . S
C3462 H3475 0.962 . S
C3462 H3476 0.960 . S
C3463 C3460 1.511 . S
C3463 H3477 0.961 . S
C3463 H3478 0.961 . S
C3463 H3479 0.961 . S
C3464 C3465 1.370 . S
C3464 C3466 1.363 . S
C3464 H3480 0.931 . S
C3465 C3464 1.370 . S
C3465 C3469 1.408 . S
C3466 C3464 1.363 . S
C3466 C3467 1.370 . S
C3466 C3470 1.524 . S
C3467 C3459 1.503 . S
C3467 C3466 1.370 . S
C3467 C3468 1.403 . S
C3468 C3467 1.403 . S
C3468 C3469 1.404 . S
C3468 C3471 1.539 . S
C3469 C3465 1.408 . S
C3469 C3468 1.404 . S
C3469 H3481 0.930 . S
C3470 C3466 1.524 . S
C3470 H3482 0.956 . S
C3470 H3483 0.961 . S
C3470 H3484 0.961 . S
C3471 C3468 1.539 . S
C3471 H3485 0.958 . S
C3471 H3486 0.961 . S
C3471 H3487 0.960 . S
H3472 C3456 0.931 . S
H3473 C3461 0.929 . S
H3474 C3462 0.960 . S
H3475 C3462 0.962 . S
H3476 C3462 0.960 . S
H3477 C3463 0.961 . S
H3478 C3463 0.961 . S
H3479 C3463 0.961 . S
H3480 C3464 0.931 . S
H3481 C3469 0.930 . S
H3482 C3470 0.956 . S
H3483 C3470 0.961 . S
H3484 C3470 0.961 . S
H3485 C3471 0.958 . S
H3486 C3471 0.961 . S
H3487 C3471 0.960 . S
C3488 C3489 1.391 . S
C3488 C3490 1.394 . S
C3488 H3504 0.931 . S
C3489 C3488 1.391 . S
C3489 C3493 1.376 . S
C3490 C3488 1.394 . S
C3490 C3491 1.369 . S
C3490 C3494 1.531 . S
C3491 C3490 1.369 . S
C3491 C3492 1.410 . S
C3491 C3499 1.503 . S
C3492 C3491 1.410 . S
C3492 C3493 1.392 . S
C3492 C3495 1.511 . S
C3493 C3489 1.376 . S
C3493 C3492 1.392 . S
C3493 H3505 0.929 . S
C3494 C3490 1.531 . S
C3494 H3506 0.960 . S
C3494 H3507 0.962 . S
C3494 H3508 0.960 . S
C3495 C3492 1.511 . S
C3495 H3509 0.961 . S
C3495 H3510 0.961 . S
C3495 H3511 0.961 . S
C3496 C3497 1.370 . S
C3496 C3498 1.363 . S
C3496 H3512 0.931 . S
C3497 C3496 1.370 . S
C3497 C3501 1.408 . S
C3498 C3496 1.363 . S
C3498 C3499 1.370 . S
C3498 C3502 1.524 . S
C3499 C3491 1.503 . S
C3499 C3498 1.370 . S
C3499 C3500 1.403 . S
C3500 C3499 1.403 . S
C3500 C3501 1.404 . S
C3500 C3503 1.539 . S
C3501 C3497 1.408 . S
C3501 C3500 1.404 . S
C3501 H3513 0.930 . S
C3502 C3498 1.524 . S
C3502 H3514 0.956 . S
C3502 H3515 0.961 . S
C3502 H3516 0.961 . S
C3503 C3500 1.539 . S
C3503 H3517 0.958 . S
C3503 H3518 0.961 . S
C3503 H3519 0.960 . S
H3504 C3488 0.931 . S
H3505 C3493 0.929 . S
H3506 C3494 0.960 . S
H3507 C3494 0.962 . S
H3508 C3494 0.960 . S
H3509 C3495 0.961 . S
H3510 C3495 0.961 . S
H3511 C3495 0.961 . S
H3512 C3496 0.931 . S
H3513 C3501 0.930 . S
H3514 C3502 0.956 . S
H3515 C3502 0.961 . S
H3516 C3502 0.961 . S
H3517 C3503 0.958 . S
H3518 C3503 0.961 . S
H3519 C3503 0.960 . S
C3520 C3521 1.391 . S
C3520 C3522 1.394 . S
C3520 H3536 0.931 . S
C3521 C3520 1.391 . S
C3521 C3525 1.376 . S
C3522 C3520 1.394 . S
C3522 C3523 1.369 . S
C3522 C3526 1.531 . S
C3523 C3522 1.369 . S
C3523 C3524 1.410 . S
C3523 C3531 1.503 . S
C3524 C3523 1.410 . S
C3524 C3525 1.392 . S
C3524 C3527 1.511 . S
C3525 C3521 1.376 . S
C3525 C3524 1.392 . S
C3525 H3537 0.929 . S
C3526 C3522 1.531 . S
C3526 H3538 0.960 . S
C3526 H3539 0.962 . S
C3526 H3540 0.960 . S
C3527 C3524 1.511 . S
C3527 H3541 0.961 . S
C3527 H3542 0.961 . S
C3527 H3543 0.961 . S
C3528 C3529 1.370 . S
C3528 C3530 1.363 . S
C3528 H3544 0.931 . S
C3529 C3528 1.370 . S
C3529 C3533 1.408 . S
C3530 C3528 1.363 . S
C3530 C3531 1.370 . S
C3530 C3534 1.524 . S
C3531 C3523 1.503 . S
C3531 C3530 1.370 . S
C3531 C3532 1.403 . S
C3532 C3531 1.403 . S
C3532 C3533 1.404 . S
C3532 C3535 1.539 . S
C3533 C3529 1.408 . S
C3533 C3532 1.404 . S
C3533 H3545 0.930 . S
C3534 C3530 1.524 . S
C3534 H3546 0.956 . S
C3534 H3547 0.961 . S
C3534 H3548 0.961 . S
C3535 C3532 1.539 . S
C3535 H3549 0.958 . S
C3535 H3550 0.961 . S
C3535 H3551 0.960 . S
H3536 C3520 0.931 . S
H3537 C3525 0.929 . S
H3538 C3526 0.960 . S
H3539 C3526 0.962 . S
H3540 C3526 0.960 . S
H3541 C3527 0.961 . S
H3542 C3527 0.961 . S
H3543 C3527 0.961 . S
H3544 C3528 0.931 . S
H3545 C3533 0.930 . S
H3546 C3534 0.956 . S
H3547 C3534 0.961 . S
H3548 C3534 0.961 . S
H3549 C3535 0.958 . S
H3550 C3535 0.961 . S
H3551 C3535 0.960 . S
C3552 C3553 1.391 . S
C3552 C3554 1.394 . S
C3552 H3568 0.931 . S
C3553 C3552 1.391 . S
C3553 C3557 1.376 . S
C3554 C3552 1.394 . S
C3554 C3555 1.369 . S
C3554 C3558 1.531 . S
C3555 C3554 1.369 . S
C3555 C3556 1.410 . S
C3555 C3563 1.503 . S
C3556 C3555 1.410 . S
C3556 C3557 1.392 . S
C3556 C3559 1.511 . S
C3557 C3553 1.376 . S
C3557 C3556 1.392 . S
C3557 H3569 0.929 . S
C3558 C3554 1.531 . S
C3558 H3570 0.960 . S
C3558 H3571 0.962 . S
C3558 H3572 0.960 . S
C3559 C3556 1.511 . S
C3559 H3573 0.961 . S
C3559 H3574 0.961 . S
C3559 H3575 0.961 . S
C3560 C3561 1.370 . S
C3560 C3562 1.363 . S
C3560 H3576 0.931 . S
C3561 C3560 1.370 . S
C3561 C3565 1.408 . S
C3562 C3560 1.363 . S
C3562 C3563 1.370 . S
C3562 C3566 1.524 . S
C3563 C3555 1.503 . S
C3563 C3562 1.370 . S
C3563 C3564 1.403 . S
C3564 C3563 1.403 . S
C3564 C3565 1.404 . S
C3564 C3567 1.539 . S
C3565 C3561 1.408 . S
C3565 C3564 1.404 . S
C3565 H3577 0.930 . S
C3566 C3562 1.524 . S
C3566 H3578 0.956 . S
C3566 H3579 0.961 . S
C3566 H3580 0.961 . S
C3567 C3564 1.539 . S
C3567 H3581 0.958 . S
C3567 H3582 0.961 . S
C3567 H3583 0.960 . S
H3568 C3552 0.931 . S
H3569 C3557 0.929 . S
H3570 C3558 0.960 . S
H3571 C3558 0.962 . S
H3572 C3558 0.960 . S
H3573 C3559 0.961 . S
H3574 C3559 0.961 . S
H3575 C3559 0.961 . S
H3576 C3560 0.931 . S
H3577 C3565 0.930 . S
H3578 C3566 0.956 . S
H3579 C3566 0.961 . S
H3580 C3566 0.961 . S
H3581 C3567 0.958 . S
H3582 C3567 0.961 . S
H3583 C3567 0.960 . S
C3584 C3585 1.391 . S
C3584 C3586 1.394 . S
C3584 H3600 0.931 . S
C3585 C3584 1.391 . S
C3585 C3589 1.376 . S
C3586 C3584 1.394 . S
C3586 C3587 1.369 . S
C3586 C3590 1.531 . S
C3587 C3586 1.369 . S
C3587 C3588 1.410 . S
C3587 C3595 1.503 . S
C3588 C3587 1.410 . S
C3588 C3589 1.392 . S
C3588 C3591 1.511 . S
C3589 C3585 1.376 . S
C3589 C3588 1.392 . S
C3589 H3601 0.929 . S
C3590 C3586 1.531 . S
C3590 H3602 0.960 . S
C3590 H3603 0.962 . S
C3590 H3604 0.960 . S
C3591 C3588 1.511 . S
C3591 H3605 0.961 . S
C3591 H3606 0.961 . S
C3591 H3607 0.961 . S
C3592 C3593 1.370 . S
C3592 C3594 1.363 . S
C3592 H3608 0.931 . S
C3593 C3592 1.370 . S
C3593 C3597 1.408 . S
C3594 C3592 1.363 . S
C3594 C3595 1.370 . S
C3594 C3598 1.524 . S
C3595 C3587 1.503 . S
C3595 C3594 1.370 . S
C3595 C3596 1.403 . S
C3596 C3595 1.403 . S
C3596 C3597 1.404 . S
C3596 C3599 1.539 . S
C3597 C3593 1.408 . S
C3597 C3596 1.404 . S
C3597 H3609 0.930 . S
C3598 C3594 1.524 . S
C3598 H3610 0.956 . S
C3598 H3611 0.961 . S
C3598 H3612 0.961 . S
C3599 C3596 1.539 . S
C3599 H3613 0.958 . S
C3599 H3614 0.961 . S
C3599 H3615 0.960 . S
H3600 C3584 0.931 . S
H3601 C3589 0.929 . S
H3602 C3590 0.960 . S
H3603 C3590 0.962 . S
H3604 C3590 0.960 . S
H3605 C3591 0.961 . S
H3606 C3591 0.961 . S
H3607 C3591 0.961 . S
H3608 C3592 0.931 . S
H3609 C3597 0.930 . S
H3610 C3598 0.956 . S
H3611 C3598 0.961 . S
H3612 C3598 0.961 . S
H3613 C3599 0.958 . S
H3614 C3599 0.961 . S
H3615 C3599 0.960 . S
C3616 C3617 1.391 . S
C3616 C3618 1.394 . S
C3616 H3632 0.931 . S
C3617 C3616 1.391 . S
C3617 C3621 1.376 . S
C3618 C3616 1.394 . S
C3618 C3619 1.369 . S
C3618 C3622 1.531 . S
C3619 C3618 1.369 . S
C3619 C3620 1.410 . S
C3619 C3627 1.503 . S
C3620 C3619 1.410 . S
C3620 C3621 1.392 . S
C3620 C3623 1.511 . S
C3621 C3617 1.376 . S
C3621 C3620 1.392 . S
C3621 H3633 0.929 . S
C3622 C3618 1.531 . S
C3622 H3634 0.960 . S
C3622 H3635 0.962 . S
C3622 H3636 0.960 . S
C3623 C3620 1.511 . S
C3623 H3637 0.961 . S
C3623 H3638 0.961 . S
C3623 H3639 0.961 . S
C3624 C3625 1.370 . S
C3624 C3626 1.363 . S
C3624 H3640 0.931 . S
C3625 C3624 1.370 . S
C3625 C3629 1.408 . S
C3626 C3624 1.363 . S
C3626 C3627 1.370 . S
C3626 C3630 1.524 . S
C3627 C3619 1.503 . S
C3627 C3626 1.370 . S
C3627 C3628 1.403 . S
C3628 C3627 1.403 . S
C3628 C3629 1.404 . S
C3628 C3631 1.539 . S
C3629 C3625 1.408 . S
C3629 C3628 1.404 . S
C3629 H3641 0.930 . S
C3630 C3626 1.524 . S
C3630 H3642 0.956 . S
C3630 H3643 0.961 . S
C3630 H3644 0.961 . S
C3631 C3628 1.539 . S
C3631 H3645 0.958 . S
C3631 H3646 0.961 . S
C3631 H3647 0.960 . S
H3632 C3616 0.931 . S
H3633 C3621 0.929 . S
H3634 C3622 0.960 . S
H3635 C3622 0.962 . S
H3636 C3622 0.960 . S
H3637 C3623 0.961 . S
H3638 C3623 0.961 . S
H3639 C3623 0.961 . S
H3640 C3624 0.931 . S
H3641 C3629 0.930 . S
H3642 C3630 0.956 . S
H3643 C3630 0.961 . S
H3644 C3630 0.961 . S
H3645 C3631 0.958 . S
H3646 C3631 0.961 . S
H3647 C3631 0.960 . S
C3648 C3649 1.391 . S
C3648 C3650 1.394 . S
C3648 H3664 0.931 . S
C3649 C3648 1.391 . S
C3649 C3653 1.376 . S
C3650 C3648 1.394 . S
C3650 C3651 1.369 . S
C3650 C3654 1.531 . S
C3651 C3650 1.369 . S
C3651 C3652 1.410 . S
C3651 C3659 1.503 . S
C3652 C3651 1.410 . S
C3652 C3653 1.392 . S
C3652 C3655 1.511 . S
C3653 C3649 1.376 . S
C3653 C3652 1.392 . S
C3653 H3665 0.929 . S
C3654 C3650 1.531 . S
C3654 H3666 0.960 . S
C3654 H3667 0.962 . S
C3654 H3668 0.960 . S
C3655 C3652 1.511 . S
C3655 H3669 0.961 . S
C3655 H3670 0.961 . S
C3655 H3671 0.961 . S
C3656 C3657 1.370 . S
C3656 C3658 1.363 . S
C3656 H3672 0.931 . S
C3657 C3656 1.370 . S
C3657 C3661 1.408 . S
C3658 C3656 1.363 . S
C3658 C3659 1.370 . S
C3658 C3662 1.524 . S
C3659 C3651 1.503 . S
C3659 C3658 1.370 . S
C3659 C3660 1.403 . S
C3660 C3659 1.403 . S
C3660 C3661 1.404 . S
C3660 C3663 1.539 . S
C3661 C3657 1.408 . S
C3661 C3660 1.404 . S
C3661 H3673 0.930 . S
C3662 C3658 1.524 . S
C3662 H3674 0.956 . S
C3662 H3675 0.961 . S
C3662 H3676 0.961 . S
C3663 C3660 1.539 . S
C3663 H3677 0.958 . S
C3663 H3678 0.961 . S
C3663 H3679 0.960 . S
H3664 C3648 0.931 . S
H3665 C3653 0.929 . S
H3666 C3654 0.960 . S
H3667 C3654 0.962 . S
H3668 C3654 0.960 . S
H3669 C3655 0.961 . S
H3670 C3655 0.961 . S
H3671 C3655 0.961 . S
H3672 C3656 0.931 . S
H3673 C3661 0.930 . S
H3674 C3662 0.956 . S
H3675 C3662 0.961 . S
H3676 C3662 0.961 . S
H3677 C3663 0.958 . S
H3678 C3663 0.961 . S
H3679 C3663 0.960 . S
C3680 C3681 1.391 . S
C3680 C3682 1.394 . S
C3680 H3696 0.931 . S
C3681 C3680 1.391 . S
C3681 C3685 1.376 . S
C3682 C3680 1.394 . S
C3682 C3683 1.369 . S
C3682 C3686 1.531 . S
C3683 C3682 1.369 . S
C3683 C3684 1.410 . S
C3683 C3691 1.503 . S
C3684 C3683 1.410 . S
C3684 C3685 1.392 . S
C3684 C3687 1.511 . S
C3685 C3681 1.376 . S
C3685 C3684 1.392 . S
C3685 H3697 0.929 . S
C3686 C3682 1.531 . S
C3686 H3698 0.960 . S
C3686 H3699 0.962 . S
C3686 H3700 0.960 . S
C3687 C3684 1.511 . S
C3687 H3701 0.961 . S
C3687 H3702 0.961 . S
C3687 H3703 0.961 . S
C3688 C3689 1.370 . S
C3688 C3690 1.363 . S
C3688 H3704 0.931 . S
C3689 C3688 1.370 . S
C3689 C3693 1.408 . S
C3690 C3688 1.363 . S
C3690 C3691 1.370 . S
C3690 C3694 1.524 . S
C3691 C3683 1.503 . S
C3691 C3690 1.370 . S
C3691 C3692 1.403 . S
C3692 C3691 1.403 . S
C3692 C3693 1.404 . S
C3692 C3695 1.539 . S
C3693 C3689 1.408 . S
C3693 C3692 1.404 . S
C3693 H3705 0.930 . S
C3694 C3690 1.524 . S
C3694 H3706 0.956 . S
C3694 H3707 0.961 . S
C3694 H3708 0.961 . S
C3695 C3692 1.539 . S
C3695 H3709 0.958 . S
C3695 H3710 0.961 . S
C3695 H3711 0.960 . S
H3696 C3680 0.931 . S
H3697 C3685 0.929 . S
H3698 C3686 0.960 . S
H3699 C3686 0.962 . S
H3700 C3686 0.960 . S
H3701 C3687 0.961 . S
H3702 C3687 0.961 . S
H3703 C3687 0.961 . S
H3704 C3688 0.931 . S
H3705 C3693 0.930 . S
H3706 C3694 0.956 . S
H3707 C3694 0.961 . S
H3708 C3694 0.961 . S
H3709 C3695 0.958 . S
H3710 C3695 0.961 . S
H3711 C3695 0.960 . S
C3712 C3713 1.391 . S
C3712 C3714 1.394 . S
C3712 H3728 0.931 . S
C3713 C3712 1.391 . S
C3713 C3717 1.376 . S
C3714 C3712 1.394 . S
C3714 C3715 1.369 . S
C3714 C3718 1.531 . S
C3715 C3714 1.369 . S
C3715 C3716 1.410 . S
C3715 C3723 1.503 . S
C3716 C3715 1.410 . S
C3716 C3717 1.392 . S
C3716 C3719 1.511 . S
C3717 C3713 1.376 . S
C3717 C3716 1.392 . S
C3717 H3729 0.929 . S
C3718 C3714 1.531 . S
C3718 H3730 0.960 . S
C3718 H3731 0.962 . S
C3718 H3732 0.960 . S
C3719 C3716 1.511 . S
C3719 H3733 0.961 . S
C3719 H3734 0.961 . S
C3719 H3735 0.961 . S
C3720 C3721 1.370 . S
C3720 C3722 1.363 . S
C3720 H3736 0.931 . S
C3721 C3720 1.370 . S
C3721 C3725 1.408 . S
C3722 C3720 1.363 . S
C3722 C3723 1.370 . S
C3722 C3726 1.524 . S
C3723 C3715 1.503 . S
C3723 C3722 1.370 . S
C3723 C3724 1.403 . S
C3724 C3723 1.403 . S
C3724 C3725 1.404 . S
C3724 C3727 1.539 . S
C3725 C3721 1.408 . S
C3725 C3724 1.404 . S
C3725 H3737 0.930 . S
C3726 C3722 1.524 . S
C3726 H3738 0.956 . S
C3726 H3739 0.961 . S
C3726 H3740 0.961 . S
C3727 C3724 1.539 . S
C3727 H3741 0.958 . S
C3727 H3742 0.961 . S
C3727 H3743 0.960 . S
H3728 C3712 0.931 . S
H3729 C3717 0.929 . S
H3730 C3718 0.960 . S
H3731 C3718 0.962 . S
H3732 C3718 0.960 . S
H3733 C3719 0.961 . S
H3734 C3719 0.961 . S
H3735 C3719 0.961 . S
H3736 C3720 0.931 . S
H3737 C3725 0.930 . S
H3738 C3726 0.956 . S
H3739 C3726 0.961 . S
H3740 C3726 0.961 . S
H3741 C3727 0.958 . S
H3742 C3727 0.961 . S
H3743 C3727 0.960 . S
C3744 C3745 1.391 . S
C3744 C3746 1.394 . S
C3744 H3760 0.931 . S
C3745 C3744 1.391 . S
C3745 C3749 1.376 . S
C3746 C3744 1.394 . S
C3746 C3747 1.369 . S
C3746 C3750 1.531 . S
C3747 C3746 1.369 . S
C3747 C3748 1.410 . S
C3747 C3755 1.503 . S
C3748 C3747 1.410 . S
C3748 C3749 1.392 . S
C3748 C3751 1.511 . S
C3749 C3745 1.376 . S
C3749 C3748 1.392 . S
C3749 H3761 0.929 . S
C3750 C3746 1.531 . S
C3750 H3762 0.960 . S
C3750 H3763 0.962 . S
C3750 H3764 0.960 . S
C3751 C3748 1.511 . S
C3751 H3765 0.961 . S
C3751 H3766 0.961 . S
C3751 H3767 0.961 . S
C3752 C3753 1.370 . S
C3752 C3754 1.363 . S
C3752 H3768 0.931 . S
C3753 C3752 1.370 . S
C3753 C3757 1.408 . S
C3754 C3752 1.363 . S
C3754 C3755 1.370 . S
C3754 C3758 1.524 . S
C3755 C3747 1.503 . S
C3755 C3754 1.370 . S
C3755 C3756 1.403 . S
C3756 C3755 1.403 . S
C3756 C3757 1.404 . S
C3756 C3759 1.539 . S
C3757 C3753 1.408 . S
C3757 C3756 1.404 . S
C3757 H3769 0.930 . S
C3758 C3754 1.524 . S
C3758 H3770 0.956 . S
C3758 H3771 0.961 . S
C3758 H3772 0.961 . S
C3759 C3756 1.539 . S
C3759 H3773 0.958 . S
C3759 H3774 0.961 . S
C3759 H3775 0.960 . S
H3760 C3744 0.931 . S
H3761 C3749 0.929 . S
H3762 C3750 0.960 . S
H3763 C3750 0.962 . S
H3764 C3750 0.960 . S
H3765 C3751 0.961 . S
H3766 C3751 0.961 . S
H3767 C3751 0.961 . S
H3768 C3752 0.931 . S
H3769 C3757 0.930 . S
H3770 C3758 0.956 . S
H3771 C3758 0.961 . S
H3772 C3758 0.961 . S
H3773 C3759 0.958 . S
H3774 C3759 0.961 . S
H3775 C3759 0.960 . S
C3776 C3777 1.391 . S
C3776 C3778 1.394 . S
C3776 H3792 0.931 . S
C3777 C3776 1.391 . S
C3777 C3781 1.376 . S
C3778 C3776 1.394 . S
C3778 C3779 1.369 . S
C3778 C3782 1.531 . S
C3779 C3778 1.369 . S
C3779 C3780 1.410 . S
C3779 C3787 1.503 . S
C3780 C3779 1.410 . S
C3780 C3781 1.392 . S
C3780 C3783 1.511 . S
C3781 C3777 1.376 . S
C3781 C3780 1.392 . S
C3781 H3793 0.929 . S
C3782 C3778 1.531 . S
C3782 H3794 0.960 . S
C3782 H3795 0.962 . S
C3782 H3796 0.960 . S
C3783 C3780 1.511 . S
C3783 H3797 0.961 . S
C3783 H3798 0.961 . S
C3783 H3799 0.961 . S
C3784 C3785 1.370 . S
C3784 C3786 1.363 . S
C3784 H3800 0.931 . S
C3785 C3784 1.370 . S
C3785 C3789 1.408 . S
C3786 C3784 1.363 . S
C3786 C3787 1.370 . S
C3786 C3790 1.524 . S
C3787 C3779 1.503 . S
C3787 C3786 1.370 . S
C3787 C3788 1.403 . S
C3788 C3787 1.403 . S
C3788 C3789 1.404 . S
C3788 C3791 1.539 . S
C3789 C3785 1.408 . S
C3789 C3788 1.404 . S
C3789 H3801 0.930 . S
C3790 C3786 1.524 . S
C3790 H3802 0.956 . S
C3790 H3803 0.961 . S
C3790 H3804 0.961 . S
C3791 C3788 1.539 . S
C3791 H3805 0.958 . S
C3791 H3806 0.961 . S
C3791 H3807 0.960 . S
H3792 C3776 0.931 . S
H3793 C3781 0.929 . S
H3794 C3782 0.960 . S
H3795 C3782 0.962 . S
H3796 C3782 0.960 . S
H3797 C3783 0.961 . S
H3798 C3783 0.961 . S
H3799 C3783 0.961 . S
H3800 C3784 0.931 . S
H3801 C3789 0.930 . S
H3802 C3790 0.956 . S
H3803 C3790 0.961 . S
H3804 C3790 0.961 . S
H3805 C3791 0.958 . S
H3806 C3791 0.961 . S
H3807 C3791 0.960 . S
C3808 C3809 1.391 . S
C3808 C3810 1.394 . S
C3808 H3824 0.931 . S
C3809 C3808 1.391 . S
C3809 C3813 1.376 . S
C3810 C3808 1.394 . S
C3810 C3811 1.369 . S
C3810 C3814 1.531 . S
C3811 C3810 1.369 . S
C3811 C3812 1.410 . S
C3811 C3819 1.503 . S
C3812 C3811 1.410 . S
C3812 C3813 1.392 . S
C3812 C3815 1.511 . S
C3813 C3809 1.376 . S
C3813 C3812 1.392 . S
C3813 H3825 0.929 . S
C3814 C3810 1.531 . S
C3814 H3826 0.960 . S
C3814 H3827 0.962 . S
C3814 H3828 0.960 . S
C3815 C3812 1.511 . S
C3815 H3829 0.961 . S
C3815 H3830 0.961 . S
C3815 H3831 0.961 . S
C3816 C3817 1.370 . S
C3816 C3818 1.363 . S
C3816 H3832 0.931 . S
C3817 C3816 1.370 . S
C3817 C3821 1.408 . S
C3818 C3816 1.363 . S
C3818 C3819 1.370 . S
C3818 C3822 1.524 . S
C3819 C3811 1.503 . S
C3819 C3818 1.370 . S
C3819 C3820 1.403 . S
C3820 C3819 1.403 . S
C3820 C3821 1.404 . S
C3820 C3823 1.539 . S
C3821 C3817 1.408 . S
C3821 C3820 1.404 . S
C3821 H3833 0.930 . S
C3822 C3818 1.524 . S
C3822 H3834 0.956 . S
C3822 H3835 0.961 . S
C3822 H3836 0.961 . S
C3823 C3820 1.539 . S
C3823 H3837 0.958 . S
C3823 H3838 0.961 . S
C3823 H3839 0.960 . S
H3824 C3808 0.931 . S
H3825 C3813 0.929 . S
H3826 C3814 0.960 . S
H3827 C3814 0.962 . S
H3828 C3814 0.960 . S
H3829 C3815 0.961 . S
H3830 C3815 0.961 . S
H3831 C3815 0.961 . S
H3832 C3816 0.931 . S
H3833 C3821 0.930 . S
H3834 C3822 0.956 . S
H3835 C3822 0.961 . S
H3836 C3822 0.961 . S
H3837 C3823 0.958 . S
H3838 C3823 0.961 . S
H3839 C3823 0.960 . S
C3840 C3841 1.391 . S
C3840 C3842 1.394 . S
C3840 H3856 0.931 . S
C3841 C3840 1.391 . S
C3841 C3845 1.376 . S
C3842 C3840 1.394 . S
C3842 C3843 1.369 . S
C3842 C3846 1.531 . S
C3843 C3842 1.369 . S
C3843 C3844 1.410 . S
C3843 C3851 1.503 . S
C3844 C3843 1.410 . S
C3844 C3845 1.392 . S
C3844 C3847 1.511 . S
C3845 C3841 1.376 . S
C3845 C3844 1.392 . S
C3845 H3857 0.929 . S
C3846 C3842 1.531 . S
C3846 H3858 0.960 . S
C3846 H3859 0.962 . S
C3846 H3860 0.960 . S
C3847 C3844 1.511 . S
C3847 H3861 0.961 . S
C3847 H3862 0.961 . S
C3847 H3863 0.961 . S
C3848 C3849 1.370 . S
C3848 C3850 1.363 . S
C3848 H3864 0.931 . S
C3849 C3848 1.370 . S
C3849 C3853 1.408 . S
C3850 C3848 1.363 . S
C3850 C3851 1.370 . S
C3850 C3854 1.524 . S
C3851 C3843 1.503 . S
C3851 C3850 1.370 . S
C3851 C3852 1.403 . S
C3852 C3851 1.403 . S
C3852 C3853 1.404 . S
C3852 C3855 1.539 . S
C3853 C3849 1.408 . S
C3853 C3852 1.404 . S
C3853 H3865 0.930 . S
C3854 C3850 1.524 . S
C3854 H3866 0.956 . S
C3854 H3867 0.961 . S
C3854 H3868 0.961 . S
C3855 C3852 1.539 . S
C3855 H3869 0.958 . S
C3855 H3870 0.961 . S
C3855 H3871 0.960 . S
H3856 C3840 0.931 . S
H3857 C3845 0.929 . S
H3858 C3846 0.960 . S
H3859 C3846 0.962 . S
H3860 C3846 0.960 . S
H3861 C3847 0.961 . S
H3862 C3847 0.961 . S
H3863 C3847 0.961 . S
H3864 C3848 0.931 . S
H3865 C3853 0.930 . S
H3866 C3854 0.956 . S
H3867 C3854 0.961 . S
H3868 C3854 0.961 . S
H3869 C3855 0.958 . S
H3870 C3855 0.961 . S
H3871 C3855 0.960 . S
C3872 C3873 1.391 . S
C3872 C3874 1.394 . S
C3872 H3888 0.931 . S
C3873 C3872 1.391 . S
C3873 C3877 1.376 . S
C3874 C3872 1.394 . S
C3874 C3875 1.369 . S
C3874 C3878 1.531 . S
C3875 C3874 1.369 . S
C3875 C3876 1.410 . S
C3875 C3883 1.503 . S
C3876 C3875 1.410 . S
C3876 C3877 1.392 . S
C3876 C3879 1.511 . S
C3877 C3873 1.376 . S
C3877 C3876 1.392 . S
C3877 H3889 0.929 . S
C3878 C3874 1.531 . S
C3878 H3890 0.960 . S
C3878 H3891 0.962 . S
C3878 H3892 0.960 . S
C3879 C3876 1.511 . S
C3879 H3893 0.961 . S
C3879 H3894 0.961 . S
C3879 H3895 0.961 . S
C3880 C3881 1.370 . S
C3880 C3882 1.363 . S
C3880 H3896 0.931 . S
C3881 C3880 1.370 . S
C3881 C3885 1.408 . S
C3882 C3880 1.363 . S
C3882 C3883 1.370 . S
C3882 C3886 1.524 . S
C3883 C3875 1.503 . S
C3883 C3882 1.370 . S
C3883 C3884 1.403 . S
C3884 C3883 1.403 . S
C3884 C3885 1.404 . S
C3884 C3887 1.539 . S
C3885 C3881 1.408 . S
C3885 C3884 1.404 . S
C3885 H3897 0.930 . S
C3886 C3882 1.524 . S
C3886 H3898 0.956 . S
C3886 H3899 0.961 . S
C3886 H3900 0.961 . S
C3887 C3884 1.539 . S
C3887 H3901 0.958 . S
C3887 H3902 0.961 . S
C3887 H3903 0.960 . S
H3888 C3872 0.931 . S
H3889 C3877 0.929 . S
H3890 C3878 0.960 . S
H3891 C3878 0.962 . S
H3892 C3878 0.960 . S
H3893 C3879 0.961 . S
H3894 C3879 0.961 . S
H3895 C3879 0.961 . S
H3896 C3880 0.931 . S
H3897 C3885 0.930 . S
H3898 C3886 0.956 . S
H3899 C3886 0.961 . S
H3900 C3886 0.961 . S
H3901 C3887 0.958 . S
H3902 C3887 0.961 . S
H3903 C3887 0.960 . S
C3904 C3905 1.391 . S
C3904 C3906 1.394 . S
C3904 H3920 0.931 . S
C3905 C3904 1.391 . S
C3905 C3909 1.376 . S
C3906 C3904 1.394 . S
C3906 C3907 1.369 . S
C3906 C3910 1.531 . S
C3907 C3906 1.369 . S
C3907 C3908 1.410 . S
C3907 C3915 1.503 . S
C3908 C3907 1.410 . S
C3908 C3909 1.392 . S
C3908 C3911 1.511 . S
C3909 C3905 1.376 . S
C3909 C3908 1.392 . S
C3909 H3921 0.929 . S
C3910 C3906 1.531 . S
C3910 H3922 0.960 . S
C3910 H3923 0.962 . S
C3910 H3924 0.960 . S
C3911 C3908 1.511 . S
C3911 H3925 0.961 . S
C3911 H3926 0.961 . S
C3911 H3927 0.961 . S
C3912 C3913 1.370 . S
C3912 C3914 1.363 . S
C3912 H3928 0.931 . S
C3913 C3912 1.370 . S
C3913 C3917 1.408 . S
C3914 C3912 1.363 . S
C3914 C3915 1.370 . S
C3914 C3918 1.524 . S
C3915 C3907 1.503 . S
C3915 C3914 1.370 . S
C3915 C3916 1.403 . S
C3916 C3915 1.403 . S
C3916 C3917 1.404 . S
C3916 C3919 1.539 . S
C3917 C3913 1.408 . S
C3917 C3916 1.404 . S
C3917 H3929 0.930 . S
C3918 C3914 1.524 . S
C3918 H3930 0.956 . S
C3918 H3931 0.961 . S
C3918 H3932 0.961 . S
C3919 C3916 1.539 . S
C3919 H3933 0.958 . S
C3919 H3934 0.961 . S
C3919 H3935 0.960 . S
H3920 C3904 0.931 . S
H3921 C3909 0.929 . S
H3922 C3910 0.960 . S
H3923 C3910 0.962 . S
H3924 C3910 0.960 . S
H3925 C3911 0.961 . S
H3926 C3911 0.961 . S
H3927 C3911 0.961 . S
H3928 C3912 0.931 . S
H3929 C3917 0.930 . S
H3930 C3918 0.956 . S
H3931 C3918 0.961 . S
H3932 C3918 0.961 . S
H3933 C3919 0.958 . S
H3934 C3919 0.961 . S
H3935 C3919 0.960 . S
C3936 C3937 1.391 . S
C3936 C3938 1.394 . S
C3936 H3952 0.931 . S
C3937 C3936 1.391 . S
C3937 C3941 1.376 . S
C3938 C3936 1.394 . S
C3938 C3939 1.369 . S
C3938 C3942 1.531 . S
C3939 C3938 1.369 . S
C3939 C3940 1.410 . S
C3939 C3947 1.503 . S
C3940 C3939 1.410 . S
C3940 C3941 1.392 . S
C3940 C3943 1.511 . S
C3941 C3937 1.376 . S
C3941 C3940 1.392 . S
C3941 H3953 0.929 . S
C3942 C3938 1.531 . S
C3942 H3954 0.960 . S
C3942 H3955 0.962 . S
C3942 H3956 0.960 . S
C3943 C3940 1.511 . S
C3943 H3957 0.961 . S
C3943 H3958 0.961 . S
C3943 H3959 0.961 . S
C3944 C3945 1.370 . S
C3944 C3946 1.363 . S
C3944 H3960 0.931 . S
C3945 C3944 1.370 . S
C3945 C3949 1.408 . S
C3946 C3944 1.363 . S
C3946 C3947 1.370 . S
C3946 C3950 1.524 . S
C3947 C3939 1.503 . S
C3947 C3946 1.370 . S
C3947 C3948 1.403 . S
C3948 C3947 1.403 . S
C3948 C3949 1.404 . S
C3948 C3951 1.539 . S
C3949 C3945 1.408 . S
C3949 C3948 1.404 . S
C3949 H3961 0.930 . S
C3950 C3946 1.524 . S
C3950 H3962 0.956 . S
C3950 H3963 0.961 . S
C3950 H3964 0.961 . S
C3951 C3948 1.539 . S
C3951 H3965 0.958 . S
C3951 H3966 0.961 . S
C3951 H3967 0.960 . S
H3952 C3936 0.931 . S
H3953 C3941 0.929 . S
H3954 C3942 0.960 . S
H3955 C3942 0.962 . S
H3956 C3942 0.960 . S
H3957 C3943 0.961 . S
H3958 C3943 0.961 . S
H3959 C3943 0.961 . S
H3960 C3944 0.931 . S
H3961 C3949 0.930 . S
H3962 C3950 0.956 . S
H3963 C3950 0.961 . S
H3964 C3950 0.961 . S
H3965 C3951 0.958 . S
H3966 C3951 0.961 . S
H3967 C3951 0.960 . S
C3968 C3969 1.391 . S
C3968 C3970 1.394 . S
C3968 H3984 0.931 . S
C3969 C3968 1.391 . S
C3969 C3973 1.376 . S
C3970 C3968 1.394 . S
C3970 C3971 1.369 . S
C3970 C3974 1.531 . S
C3971 C3970 1.369 . S
C3971 C3972 1.410 . S
C3971 C3979 1.503 . S
C3972 C3971 1.410 . S
C3972 C3973 1.392 . S
C3972 C3975 1.511 . S
C3973 C3969 1.376 . S
C3973 C3972 1.392 . S
C3973 H3985 0.929 . S
C3974 C3970 1.531 . S
C3974 H3986 0.960 . S
C3974 H3987 0.962 . S
C3974 H3988 0.960 . S
C3975 C3972 1.511 . S
C3975 H3989 0.961 . S
C3975 H3990 0.961 . S
C3975 H3991 0.961 . S
C3976 C3977 1.370 . S
C3976 C3978 1.363 . S
C3976 H3992 0.931 . S
C3977 C3976 1.370 . S
C3977 C3981 1.408 . S
C3978 C3976 1.363 . S
C3978 C3979 1.370 . S
C3978 C3982 1.524 . S
C3979 C3971 1.503 . S
C3979 C3978 1.370 . S
C3979 C3980 1.403 . S
C3980 C3979 1.403 . S
C3980 C3981 1.404 . S
C3980 C3983 1.539 . S
C3981 C3977 1.408 . S
C3981 C3980 1.404 . S
C3981 H3993 0.930 . S
C3982 C3978 1.524 . S
C3982 H3994 0.956 . S
C3982 H3995 0.961 . S
C3982 H3996 0.961 . S
C3983 C3980 1.539 . S
C3983 H3997 0.958 . S
C3983 H3998 0.961 . S
C3983 H3999 0.960 . S
H3984 C3968 0.931 . S
H3985 C3973 0.929 . S
H3986 C3974 0.960 . S
H3987 C3974 0.962 . S
H3988 C3974 0.960 . S
H3989 C3975 0.961 . S
H3990 C3975 0.961 . S
H3991 C3975 0.961 . S
H3992 C3976 0.931 . S
H3993 C3981 0.930 . S
H3994 C3982 0.956 . S
H3995 C3982 0.961 . S
H3996 C3982 0.961 . S
H3997 C3983 0.958 . S
H3998 C3983 0.961 . S
H3999 C3983 0.960 . S
C4000 C4001 1.391 . S
C4000 C4002 1.394 . S
C4000 H4016 0.931 . S
C4001 C4000 1.391 . S
C4001 C4005 1.376 . S
C4002 C4000 1.394 . S
C4002 C4003 1.369 . S
C4002 C4006 1.531 . S
C4003 C4002 1.369 . S
C4003 C4004 1.410 . S
C4003 C4011 1.503 . S
C4004 C4003 1.410 . S
C4004 C4005 1.392 . S
C4004 C4007 1.511 . S
C4005 C4001 1.376 . S
C4005 C4004 1.392 . S
C4005 H4017 0.929 . S
C4006 C4002 1.531 . S
C4006 H4018 0.960 . S
C4006 H4019 0.962 . S
C4006 H4020 0.960 . S
C4007 C4004 1.511 . S
C4007 H4021 0.961 . S
C4007 H4022 0.961 . S
C4007 H4023 0.961 . S
C4008 C4009 1.370 . S
C4008 C4010 1.363 . S
C4008 H4024 0.931 . S
C4009 C4008 1.370 . S
C4009 C4013 1.408 . S
C4010 C4008 1.363 . S
C4010 C4011 1.370 . S
C4010 C4014 1.524 . S
C4011 C4003 1.503 . S
C4011 C4010 1.370 . S
C4011 C4012 1.403 . S
C4012 C4011 1.403 . S
C4012 C4013 1.404 . S
C4012 C4015 1.539 . S
C4013 C4009 1.408 . S
C4013 C4012 1.404 . S
C4013 H4025 0.930 . S
C4014 C4010 1.524 . S
C4014 H4026 0.956 . S
C4014 H4027 0.961 . S
C4014 H4028 0.961 . S
C4015 C4012 1.539 . S
C4015 H4029 0.958 . S
C4015 H4030 0.961 . S
C4015 H4031 0.960 . S
H4016 C4000 0.931 . S
H4017 C4005 0.929 . S
H4018 C4006 0.960 . S
H4019 C4006 0.962 . S
H4020 C4006 0.960 . S
H4021 C4007 0.961 . S
H4022 C4007 0.961 . S
H4023 C4007 0.961 . S
H4024 C4008 0.931 . S
H4025 C4013 0.930 . S
H4026 C4014 0.956 . S
H4027 C4014 0.961 . S
H4028 C4014 0.961 . S
H4029 C4015 0.958 . S
H4030 C4015 0.961 . S
H4031 C4015 0.960 . S
C4032 C4033 1.391 . S
C4032 C4034 1.394 . S
C4032 H4048 0.931 . S
C4033 C4032 1.391 . S
C4033 C4037 1.376 . S
C4034 C4032 1.394 . S
C4034 C4035 1.369 . S
C4034 C4038 1.531 . S
C4035 C4034 1.369 . S
C4035 C4036 1.410 . S
C4035 C4043 1.503 . S
C4036 C4035 1.410 . S
C4036 C4037 1.392 . S
C4036 C4039 1.511 . S
C4037 C4033 1.376 . S
C4037 C4036 1.392 . S
C4037 H4049 0.929 . S
C4038 C4034 1.531 . S
C4038 H4050 0.960 . S
C4038 H4051 0.962 . S
C4038 H4052 0.960 . S
C4039 C4036 1.511 . S
C4039 H4053 0.961 . S
C4039 H4054 0.961 . S
C4039 H4055 0.961 . S
C4040 C4041 1.370 . S
C4040 C4042 1.363 . S
C4040 H4056 0.931 . S
C4041 C4040 1.370 . S
C4041 C4045 1.408 . S
C4042 C4040 1.363 . S
C4042 C4043 1.370 . S
C4042 C4046 1.524 . S
C4043 C4035 1.503 . S
C4043 C4042 1.370 . S
C4043 C4044 1.403 . S
C4044 C4043 1.403 . S
C4044 C4045 1.404 . S
C4044 C4047 1.539 . S
C4045 C4041 1.408 . S
C4045 C4044 1.404 . S
C4045 H4057 0.930 . S
C4046 C4042 1.524 . S
C4046 H4058 0.956 . S
C4046 H4059 0.961 . S
C4046 H4060 0.961 . S
C4047 C4044 1.539 . S
C4047 H4061 0.958 . S
C4047 H4062 0.961 . S
C4047 H4063 0.960 . S
H4048 C4032 0.931 . S
H4049 C4037 0.929 . S
H4050 C4038 0.960 . S
H4051 C4038 0.962 . S
H4052 C4038 0.960 . S
H4053 C4039 0.961 . S
H4054 C4039 0.961 . S
H4055 C4039 0.961 . S
H4056 C4040 0.931 . S
H4057 C4045 0.930 . S
H4058 C4046 0.956 . S
H4059 C4046 0.961 . S
H4060 C4046 0.961 . S
H4061 C4047 0.958 . S
H4062 C4047 0.961 . S
H4063 C4047 0.960 . S
C4064 C4065 1.391 . S
C4064 C4066 1.394 . S
C4064 H4080 0.931 . S
C4065 C4064 1.391 . S
C4065 C4069 1.376 . S
C4066 C4064 1.394 . S
C4066 C4067 1.369 . S
C4066 C4070 1.531 . S
C4067 C4066 1.369 . S
C4067 C4068 1.410 . S
C4067 C4075 1.503 . S
C4068 C4067 1.410 . S
C4068 C4069 1.392 . S
C4068 C4071 1.511 . S
C4069 C4065 1.376 . S
C4069 C4068 1.392 . S
C4069 H4081 0.929 . S
C4070 C4066 1.531 . S
C4070 H4082 0.960 . S
C4070 H4083 0.962 . S
C4070 H4084 0.960 . S
C4071 C4068 1.511 . S
C4071 H4085 0.961 . S
C4071 H4086 0.961 . S
C4071 H4087 0.961 . S
C4072 C4073 1.370 . S
C4072 C4074 1.363 . S
C4072 H4088 0.931 . S
C4073 C4072 1.370 . S
C4073 C4077 1.408 . S
C4074 C4072 1.363 . S
C4074 C4075 1.370 . S
C4074 C4078 1.524 . S
C4075 C4067 1.503 . S
C4075 C4074 1.370 . S
C4075 C4076 1.403 . S
C4076 C4075 1.403 . S
C4076 C4077 1.404 . S
C4076 C4079 1.539 . S
C4077 C4073 1.408 . S
C4077 C4076 1.404 . S
C4077 H4089 0.930 . S
C4078 C4074 1.524 . S
C4078 H4090 0.956 . S
C4078 H4091 0.961 . S
C4078 H4092 0.961 . S
C4079 C4076 1.539 . S
C4079 H4093 0.958 . S
C4079 H4094 0.961 . S
C4079 H4095 0.960 . S
H4080 C4064 0.931 . S
H4081 C4069 0.929 . S
H4082 C4070 0.960 . S
H4083 C4070 0.962 . S
H4084 C4070 0.960 . S
H4085 C4071 0.961 . S
H4086 C4071 0.961 . S
H4087 C4071 0.961 . S
H4088 C4072 0.931 . S
H4089 C4077 0.930 . S
H4090 C4078 0.956 . S
H4091 C4078 0.961 . S
H4092 C4078 0.961 . S
H4093 C4079 0.958 . S
H4094 C4079 0.961 . S
H4095 C4079 0.960 . S
C4096 C4097 1.391 . S
C4096 C4098 1.394 . S
C4096 H4112 0.931 . S
C4097 C4096 1.391 . S
C4097 C4101 1.376 . S
C4098 C4096 1.394 . S
C4098 C4099 1.369 . S
C4098 C4102 1.531 . S
C4099 C4098 1.369 . S
C4099 C4100 1.410 . S
C4099 C4107 1.503 . S
C4100 C4099 1.410 . S
C4100 C4101 1.392 . S
C4100 C4103 1.511 . S
C4101 C4097 1.376 . S
C4101 C4100 1.392 . S
C4101 H4113 0.929 . S
C4102 C4098 1.531 . S
C4102 H4114 0.960 . S
C4102 H4115 0.962 . S
C4102 H4116 0.960 . S
C4103 C4100 1.511 . S
C4103 H4117 0.961 . S
C4103 H4118 0.961 . S
C4103 H4119 0.961 . S
C4104 C4105 1.370 . S
C4104 C4106 1.363 . S
C4104 H4120 0.931 . S
C4105 C4104 1.370 . S
C4105 C4109 1.408 . S
C4106 C4104 1.363 . S
C4106 C4107 1.370 . S
C4106 C4110 1.524 . S
C4107 C4099 1.503 . S
C4107 C4106 1.370 . S
C4107 C4108 1.403 . S
C4108 C4107 1.403 . S
C4108 C4109 1.404 . S
C4108 C4111 1.539 . S
C4109 C4105 1.408 . S
C4109 C4108 1.404 . S
C4109 H4121 0.930 . S
C4110 C4106 1.524 . S
C4110 H4122 0.956 . S
C4110 H4123 0.961 . S
C4110 H4124 0.961 . S
C4111 C4108 1.539 . S
C4111 H4125 0.958 . S
C4111 H4126 0.961 . S
C4111 H4127 0.960 . S
H4112 C4096 0.931 . S
H4113 C4101 0.929 . S
H4114 C4102 0.960 . S
H4115 C4102 0.962 . S
H4116 C4102 0.960 . S
H4117 C4103 0.961 . S
H4118 C4103 0.961 . S
H4119 C4103 0.961 . S
H4120 C4104 0.931 . S
H4121 C4109 0.930 . S
H4122 C4110 0.956 . S
H4123 C4110 0.961 . S
H4124 C4110 0.961 . S
H4125 C4111 0.958 . S
H4126 C4111 0.961 . S
H4127 C4111 0.960 . S
C4128 C4129 1.391 . S
C4128 C4130 1.394 . S
C4128 H4144 0.931 . S
C4129 C4128 1.391 . S
C4129 C4133 1.376 . S
C4130 C4128 1.394 . S
C4130 C4131 1.369 . S
C4130 C4134 1.531 . S
C4131 C4130 1.369 . S
C4131 C4132 1.410 . S
C4131 C4139 1.503 . S
C4132 C4131 1.410 . S
C4132 C4133 1.392 . S
C4132 C4135 1.511 . S
C4133 C4129 1.376 . S
C4133 C4132 1.392 . S
C4133 H4145 0.929 . S
C4134 C4130 1.531 . S
C4134 H4146 0.960 . S
C4134 H4147 0.962 . S
C4134 H4148 0.960 . S
C4135 C4132 1.511 . S
C4135 H4149 0.961 . S
C4135 H4150 0.961 . S
C4135 H4151 0.961 . S
C4136 C4137 1.370 . S
C4136 C4138 1.363 . S
C4136 H4152 0.931 . S
C4137 C4136 1.370 . S
C4137 C4141 1.408 . S
C4138 C4136 1.363 . S
C4138 C4139 1.370 . S
C4138 C4142 1.524 . S
C4139 C4131 1.503 . S
C4139 C4138 1.370 . S
C4139 C4140 1.403 . S
C4140 C4139 1.403 . S
C4140 C4141 1.404 . S
C4140 C4143 1.539 . S
C4141 C4137 1.408 . S
C4141 C4140 1.404 . S
C4141 H4153 0.930 . S
C4142 C4138 1.524 . S
C4142 H4154 0.956 . S
C4142 H4155 0.961 . S
C4142 H4156 0.961 . S
C4143 C4140 1.539 . S
C4143 H4157 0.958 . S
C4143 H4158 0.961 . S
C4143 H4159 0.960 . S
H4144 C4128 0.931 . S
H4145 C4133 0.929 . S
H4146 C4134 0.960 . S
H4147 C4134 0.962 . S
H4148 C4134 0.960 . S
H4149 C4135 0.961 . S
H4150 C4135 0.961 . S
H4151 C4135 0.961 . S
H4152 C4136 0.931 . S
H4153 C4141 0.930 . S
H4154 C4142 0.956 . S
H4155 C4142 0.961 . S
H4156 C4142 0.961 . S
H4157 C4143 0.958 . S
H4158 C4143 0.961 . S
H4159 C4143 0.960 . S
C4160 C4161 1.391 . S
C4160 C4162 1.394 . S
C4160 H4176 0.931 . S
C4161 C4160 1.391 . S
C4161 C4165 1.376 . S
C4162 C4160 1.394 . S
C4162 C4163 1.369 . S
C4162 C4166 1.531 . S
C4163 C4162 1.369 . S
C4163 C4164 1.410 . S
C4163 C4171 1.503 . S
C4164 C4163 1.410 . S
C4164 C4165 1.392 . S
C4164 C4167 1.511 . S
C4165 C4161 1.376 . S
C4165 C4164 1.392 . S
C4165 H4177 0.929 . S
C4166 C4162 1.531 . S
C4166 H4178 0.960 . S
C4166 H4179 0.962 . S
C4166 H4180 0.960 . S
C4167 C4164 1.511 . S
C4167 H4181 0.961 . S
C4167 H4182 0.961 . S
C4167 H4183 0.961 . S
C4168 C4169 1.370 . S
C4168 C4170 1.363 . S
C4168 H4184 0.931 . S
C4169 C4168 1.370 . S
C4169 C4173 1.408 . S
C4170 C4168 1.363 . S
C4170 C4171 1.370 . S
C4170 C4174 1.524 . S
C4171 C4163 1.503 . S
C4171 C4170 1.370 . S
C4171 C4172 1.403 . S
C4172 C4171 1.403 . S
C4172 C4173 1.404 . S
C4172 C4175 1.539 . S
C4173 C4169 1.408 . S
C4173 C4172 1.404 . S
C4173 H4185 0.930 . S
C4174 C4170 1.524 . S
C4174 H4186 0.956 . S
C4174 H4187 0.961 . S
C4174 H4188 0.961 . S
C4175 C4172 1.539 . S
C4175 H4189 0.958 . S
C4175 H4190 0.961 . S
C4175 H4191 0.960 . S
H4176 C4160 0.931 . S
H4177 C4165 0.929 . S
H4178 C4166 0.960 . S
H4179 C4166 0.962 . S
H4180 C4166 0.960 . S
H4181 C4167 0.961 . S
H4182 C4167 0.961 . S
H4183 C4167 0.961 . S
H4184 C4168 0.931 . S
H4185 C4173 0.930 . S
H4186 C4174 0.956 . S
H4187 C4174 0.961 . S
H4188 C4174 0.961 . S
H4189 C4175 0.958 . S
H4190 C4175 0.961 . S
H4191 C4175 0.960 . S
C4192 C4193 1.391 . S
C4192 C4194 1.394 . S
C4192 H4208 0.931 . S
C4193 C4192 1.391 . S
C4193 C4197 1.376 . S
C4194 C4192 1.394 . S
C4194 C4195 1.369 . S
C4194 C4198 1.531 . S
C4195 C4194 1.369 . S
C4195 C4196 1.410 . S
C4195 C4203 1.503 . S
C4196 C4195 1.410 . S
C4196 C4197 1.392 . S
C4196 C4199 1.511 . S
C4197 C4193 1.376 . S
C4197 C4196 1.392 . S
C4197 H4209 0.929 . S
C4198 C4194 1.531 . S
C4198 H4210 0.960 . S
C4198 H4211 0.962 . S
C4198 H4212 0.960 . S
C4199 C4196 1.511 . S
C4199 H4213 0.961 . S
C4199 H4214 0.961 . S
C4199 H4215 0.961 . S
C4200 C4201 1.370 . S
C4200 C4202 1.363 . S
C4200 H4216 0.931 . S
C4201 C4200 1.370 . S
C4201 C4205 1.408 . S
C4202 C4200 1.363 . S
C4202 C4203 1.370 . S
C4202 C4206 1.524 . S
C4203 C4195 1.503 . S
C4203 C4202 1.370 . S
C4203 C4204 1.403 . S
C4204 C4203 1.403 . S
C4204 C4205 1.404 . S
C4204 C4207 1.539 . S
C4205 C4201 1.408 . S
C4205 C4204 1.404 . S
C4205 H4217 0.930 . S
C4206 C4202 1.524 . S
C4206 H4218 0.956 . S
C4206 H4219 0.961 . S
C4206 H4220 0.961 . S
C4207 C4204 1.539 . S
C4207 H4221 0.958 . S
C4207 H4222 0.961 . S
C4207 H4223 0.960 . S
H4208 C4192 0.931 . S
H4209 C4197 0.929 . S
H4210 C4198 0.960 . S
H4211 C4198 0.962 . S
H4212 C4198 0.960 . S
H4213 C4199 0.961 . S
H4214 C4199 0.961 . S
H4215 C4199 0.961 . S
H4216 C4200 0.931 . S
H4217 C4205 0.930 . S
H4218 C4206 0.956 . S
H4219 C4206 0.961 . S
H4220 C4206 0.961 . S
H4221 C4207 0.958 . S
H4222 C4207 0.961 . S
H4223 C4207 0.960 . S
C4224 C4225 1.391 . S
C4224 C4226 1.394 . S
C4224 H4240 0.931 . S
C4225 C4224 1.391 . S
C4225 C4229 1.376 . S
C4226 C4224 1.394 . S
C4226 C4227 1.369 . S
C4226 C4230 1.531 . S
C4227 C4226 1.369 . S
C4227 C4228 1.410 . S
C4227 C4235 1.503 . S
C4228 C4227 1.410 . S
C4228 C4229 1.392 . S
C4228 C4231 1.511 . S
C4229 C4225 1.376 . S
C4229 C4228 1.392 . S
C4229 H4241 0.929 . S
C4230 C4226 1.531 . S
C4230 H4242 0.960 . S
C4230 H4243 0.962 . S
C4230 H4244 0.960 . S
C4231 C4228 1.511 . S
C4231 H4245 0.961 . S
C4231 H4246 0.961 . S
C4231 H4247 0.961 . S
C4232 C4233 1.370 . S
C4232 C4234 1.363 . S
C4232 H4248 0.931 . S
C4233 C4232 1.370 . S
C4233 C4237 1.408 . S
C4234 C4232 1.363 . S
C4234 C4235 1.370 . S
C4234 C4238 1.524 . S
C4235 C4227 1.503 . S
C4235 C4234 1.370 . S
C4235 C4236 1.403 . S
C4236 C4235 1.403 . S
C4236 C4237 1.404 . S
C4236 C4239 1.539 . S
C4237 C4233 1.408 . S
C4237 C4236 1.404 . S
C4237 H4249 0.930 . S
C4238 C4234 1.524 . S
C4238 H4250 0.956 . S
C4238 H4251 0.961 . S
C4238 H4252 0.961 . S
C4239 C4236 1.539 . S
C4239 H4253 0.958 . S
C4239 H4254 0.961 . S
C4239 H4255 0.960 . S
H4240 C4224 0.931 . S
H4241 C4229 0.929 . S
H4242 C4230 0.960 . S
H4243 C4230 0.962 . S
H4244 C4230 0.960 . S
H4245 C4231 0.961 . S
H4246 C4231 0.961 . S
H4247 C4231 0.961 . S
H4248 C4232 0.931 . S
H4249 C4237 0.930 . S
H4250 C4238 0.956 . S
H4251 C4238 0.961 . S
H4252 C4238 0.961 . S
H4253 C4239 0.958 . S
H4254 C4239 0.961 . S
H4255 C4239 0.960 . S
C4256 C4257 1.391 . S
C4256 C4258 1.394 . S
C4256 H4272 0.931 . S
C4257 C4256 1.391 . S
C4257 C4261 1.376 . S
C4258 C4256 1.394 . S
C4258 C4259 1.369 . S
C4258 C4262 1.531 . S
C4259 C4258 1.369 . S
C4259 C4260 1.410 . S
C4259 C4267 1.503 . S
C4260 C4259 1.410 . S
C4260 C4261 1.392 . S
C4260 C4263 1.511 . S
C4261 C4257 1.376 . S
C4261 C4260 1.392 . S
C4261 H4273 0.929 . S
C4262 C4258 1.531 . S
C4262 H4274 0.960 . S
C4262 H4275 0.962 . S
C4262 H4276 0.960 . S
C4263 C4260 1.511 . S
C4263 H4277 0.961 . S
C4263 H4278 0.961 . S
C4263 H4279 0.961 . S
C4264 C4265 1.370 . S
C4264 C4266 1.363 . S
C4264 H4280 0.931 . S
C4265 C4264 1.370 . S
C4265 C4269 1.408 . S
C4266 C4264 1.363 . S
C4266 C4267 1.370 . S
C4266 C4270 1.524 . S
C4267 C4259 1.503 . S
C4267 C4266 1.370 . S
C4267 C4268 1.403 . S
C4268 C4267 1.403 . S
C4268 C4269 1.404 . S
C4268 C4271 1.539 . S
C4269 C4265 1.408 . S
C4269 C4268 1.404 . S
C4269 H4281 0.930 . S
C4270 C4266 1.524 . S
C4270 H4282 0.956 . S
C4270 H4283 0.961 . S
C4270 H4284 0.961 . S
C4271 C4268 1.539 . S
C4271 H4285 0.958 . S
C4271 H4286 0.961 . S
C4271 H4287 0.960 . S
H4272 C4256 0.931 . S
H4273 C4261 0.929 . S
H4274 C4262 0.960 . S
H4275 C4262 0.962 . S
H4276 C4262 0.960 . S
H4277 C4263 0.961 . S
H4278 C4263 0.961 . S
H4279 C4263 0.961 . S
H4280 C4264 0.931 . S
H4281 C4269 0.930 . S
H4282 C4270 0.956 . S
H4283 C4270 0.961 . S
H4284 C4270 0.961 . S
H4285 C4271 0.958 . S
H4286 C4271 0.961 . S
H4287 C4271 0.960 . S
C4288 C4289 1.391 . S
C4288 C4290 1.394 . S
C4288 H4304 0.931 . S
C4289 C4288 1.391 . S
C4289 C4293 1.376 . S
C4290 C4288 1.394 . S
C4290 C4291 1.369 . S
C4290 C4294 1.531 . S
C4291 C4290 1.369 . S
C4291 C4292 1.410 . S
C4291 C4299 1.503 . S
C4292 C4291 1.410 . S
C4292 C4293 1.392 . S
C4292 C4295 1.511 . S
C4293 C4289 1.376 . S
C4293 C4292 1.392 . S
C4293 H4305 0.929 . S
C4294 C4290 1.531 . S
C4294 H4306 0.960 . S
C4294 H4307 0.962 . S
C4294 H4308 0.960 . S
C4295 C4292 1.511 . S
C4295 H4309 0.961 . S
C4295 H4310 0.961 . S
C4295 H4311 0.961 . S
C4296 C4297 1.370 . S
C4296 C4298 1.363 . S
C4296 H4312 0.931 . S
C4297 C4296 1.370 . S
C4297 C4301 1.408 . S
C4298 C4296 1.363 . S
C4298 C4299 1.370 . S
C4298 C4302 1.524 . S
C4299 C4291 1.503 . S
C4299 C4298 1.370 . S
C4299 C4300 1.403 . S
C4300 C4299 1.403 . S
C4300 C4301 1.404 . S
C4300 C4303 1.539 . S
C4301 C4297 1.408 . S
C4301 C4300 1.404 . S
C4301 H4313 0.930 . S
C4302 C4298 1.524 . S
C4302 H4314 0.956 . S
C4302 H4315 0.961 . S
C4302 H4316 0.961 . S
C4303 C4300 1.539 . S
C4303 H4317 0.958 . S
C4303 H4318 0.961 . S
C4303 H4319 0.960 . S
H4304 C4288 0.931 . S
H4305 C4293 0.929 . S
H4306 C4294 0.960 . S
H4307 C4294 0.962 . S
H4308 C4294 0.960 . S
H4309 C4295 0.961 . S
H4310 C4295 0.961 . S
H4311 C4295 0.961 . S
H4312 C4296 0.931 . S
H4313 C4301 0.930 . S
H4314 C4302 0.956 . S
H4315 C4302 0.961 . S
H4316 C4302 0.961 . S
H4317 C4303 0.958 . S
H4318 C4303 0.961 . S
H4319 C4303 0.960 . S
C4320 C4321 1.391 . S
C4320 C4322 1.394 . S
C4320 H4336 0.931 . S
C4321 C4320 1.391 . S
C4321 C4325 1.376 . S
C4322 C4320 1.394 . S
C4322 C4323 1.369 . S
C4322 C4326 1.531 . S
C4323 C4322 1.369 . S
C4323 C4324 1.410 . S
C4323 C4331 1.503 . S
C4324 C4323 1.410 . S
C4324 C4325 1.392 . S
C4324 C4327 1.511 . S
C4325 C4321 1.376 . S
C4325 C4324 1.392 . S
C4325 H4337 0.929 . S
C4326 C4322 1.531 . S
C4326 H4338 0.960 . S
C4326 H4339 0.962 . S
C4326 H4340 0.960 . S
C4327 C4324 1.511 . S
C4327 H4341 0.961 . S
C4327 H4342 0.961 . S
C4327 H4343 0.961 . S
C4328 C4329 1.370 . S
C4328 C4330 1.363 . S
C4328 H4344 0.931 . S
C4329 C4328 1.370 . S
C4329 C4333 1.408 . S
C4330 C4328 1.363 . S
C4330 C4331 1.370 . S
C4330 C4334 1.524 . S
C4331 C4323 1.503 . S
C4331 C4330 1.370 . S
C4331 C4332 1.403 . S
C4332 C4331 1.403 . S
C4332 C4333 1.404 . S
C4332 C4335 1.539 . S
C4333 C4329 1.408 . S
C4333 C4332 1.404 . S
C4333 H4345 0.930 . S
C4334 C4330 1.524 . S
C4334 H4346 0.956 . S
C4334 H4347 0.961 . S
C4334 H4348 0.961 . S
C4335 C4332 1.539 . S
C4335 H4349 0.958 . S
C4335 H4350 0.961 . S
C4335 H4351 0.960 . S
H4336 C4320 0.931 . S
H4337 C4325 0.929 . S
H4338 C4326 0.960 . S
H4339 C4326 0.962 . S
H4340 C4326 0.960 . S
H4341 C4327 0.961 . S
H4342 C4327 0.961 . S
H4343 C4327 0.961 . S
H4344 C4328 0.931 . S
H4345 C4333 0.930 . S
H4346 C4334 0.956 . S
H4347 C4334 0.961 . S
H4348 C4334 0.961 . S
H4349 C4335 0.958 . S
H4350 C4335 0.961 . S
H4351 C4335 0.960 . S
C4352 C4353 1.391 . S
C4352 C4354 1.394 . S
C4352 H4368 0.931 . S
C4353 C4352 1.391 . S
C4353 C4357 1.376 . S
C4354 C4352 1.394 . S
C4354 C4355 1.369 . S
C4354 C4358 1.531 . S
C4355 C4354 1.369 . S
C4355 C4356 1.410 . S
C4355 C4363 1.503 . S
C4356 C4355 1.410 . S
C4356 C4357 1.392 . S
C4356 C4359 1.511 . S
C4357 C4353 1.376 . S
C4357 C4356 1.392 . S
C4357 H4369 0.929 . S
C4358 C4354 1.531 . S
C4358 H4370 0.960 . S
C4358 H4371 0.962 . S
C4358 H4372 0.960 . S
C4359 C4356 1.511 . S
C4359 H4373 0.961 . S
C4359 H4374 0.961 . S
C4359 H4375 0.961 . S
C4360 C4361 1.370 . S
C4360 C4362 1.363 . S
C4360 H4376 0.931 . S
C4361 C4360 1.370 . S
C4361 C4365 1.408 . S
C4362 C4360 1.363 . S
C4362 C4363 1.370 . S
C4362 C4366 1.524 . S
C4363 C4355 1.503 . S
C4363 C4362 1.370 . S
C4363 C4364 1.403 . S
C4364 C4363 1.403 . S
C4364 C4365 1.404 . S
C4364 C4367 1.539 . S
C4365 C4361 1.408 . S
C4365 C4364 1.404 . S
C4365 H4377 0.930 . S
C4366 C4362 1.524 . S
C4366 H4378 0.956 . S
C4366 H4379 0.961 . S
C4366 H4380 0.961 . S
C4367 C4364 1.539 . S
C4367 H4381 0.958 . S
C4367 H4382 0.961 . S
C4367 H4383 0.960 . S
H4368 C4352 0.931 . S
H4369 C4357 0.929 . S
H4370 C4358 0.960 . S
H4371 C4358 0.962 . S
H4372 C4358 0.960 . S
H4373 C4359 0.961 . S
H4374 C4359 0.961 . S
H4375 C4359 0.961 . S
H4376 C4360 0.931 . S
H4377 C4365 0.930 . S
H4378 C4366 0.956 . S
H4379 C4366 0.961 . S
H4380 C4366 0.961 . S
H4381 C4367 0.958 . S
H4382 C4367 0.961 . S
H4383 C4367 0.960 . S
C4384 C4385 1.391 . S
C4384 C4386 1.394 . S
C4384 H4400 0.931 . S
C4385 C4384 1.391 . S
C4385 C4389 1.376 . S
C4386 C4384 1.394 . S
C4386 C4387 1.369 . S
C4386 C4390 1.531 . S
C4387 C4386 1.369 . S
C4387 C4388 1.410 . S
C4387 C4395 1.503 . S
C4388 C4387 1.410 . S
C4388 C4389 1.392 . S
C4388 C4391 1.511 . S
C4389 C4385 1.376 . S
C4389 C4388 1.392 . S
C4389 H4401 0.929 . S
C4390 C4386 1.531 . S
C4390 H4402 0.960 . S
C4390 H4403 0.962 . S
C4390 H4404 0.960 . S
C4391 C4388 1.511 . S
C4391 H4405 0.961 . S
C4391 H4406 0.961 . S
C4391 H4407 0.961 . S
C4392 C4393 1.370 . S
C4392 C4394 1.363 . S
C4392 H4408 0.931 . S
C4393 C4392 1.370 . S
C4393 C4397 1.408 . S
C4394 C4392 1.363 . S
C4394 C4395 1.370 . S
C4394 C4398 1.524 . S
C4395 C4387 1.503 . S
C4395 C4394 1.370 . S
C4395 C4396 1.403 . S
C4396 C4395 1.403 . S
C4396 C4397 1.404 . S
C4396 C4399 1.539 . S
C4397 C4393 1.408 . S
C4397 C4396 1.404 . S
C4397 H4409 0.930 . S
C4398 C4394 1.524 . S
C4398 H4410 0.956 . S
C4398 H4411 0.961 . S
C4398 H4412 0.961 . S
C4399 C4396 1.539 . S
C4399 H4413 0.958 . S
C4399 H4414 0.961 . S
C4399 H4415 0.960 . S
H4400 C4384 0.931 . S
H4401 C4389 0.929 . S
H4402 C4390 0.960 . S
H4403 C4390 0.962 . S
H4404 C4390 0.960 . S
H4405 C4391 0.961 . S
H4406 C4391 0.961 . S
H4407 C4391 0.961 . S
H4408 C4392 0.931 . S
H4409 C4397 0.930 . S
H4410 C4398 0.956 . S
H4411 C4398 0.961 . S
H4412 C4398 0.961 . S
H4413 C4399 0.958 . S
H4414 C4399 0.961 . S
H4415 C4399 0.960 . S
C4416 C4417 1.391 . S
C4416 C4418 1.394 . S
C4416 H4432 0.931 . S
C4417 C4416 1.391 . S
C4417 C4421 1.376 . S
C4418 C4416 1.394 . S
C4418 C4419 1.369 . S
C4418 C4422 1.531 . S
C4419 C4418 1.369 . S
C4419 C4420 1.410 . S
C4419 C4427 1.503 1_455 S
C4420 C4419 1.410 . S
C4420 C4421 1.392 . S
C4420 C4423 1.511 . S
C4421 C4417 1.376 . S
C4421 C4420 1.392 . S
C4421 H4433 0.929 . S
C4422 C4418 1.531 . S
C4422 H4434 0.960 1_455 S
C4422 H4435 0.962 . S
C4422 H4436 0.960 . S
C4423 C4420 1.511 . S
C4423 H4437 0.961 . S
C4423 H4438 0.961 1_455 S
C4423 H4439 0.961 . S
C4424 C4425 1.370 . S
C4424 C4426 1.363 . S
C4424 H4440 0.931 . S
C4425 C4424 1.370 . S
C4425 C4429 1.408 . S
C4426 C4424 1.363 . S
C4426 C4427 1.370 . S
C4426 C4430 1.524 . S
C4427 C4419 1.503 1_655 S
C4427 C4426 1.370 . S
C4427 C4428 1.403 . S
C4428 C4427 1.403 . S
C4428 C4429 1.404 . S
C4428 C4431 1.539 . S
C4429 C4425 1.408 . S
C4429 C4428 1.404 . S
C4429 H4441 0.930 . S
C4430 C4426 1.524 . S
C4430 H4442 0.982 . S
C4430 H4443 0.919 1_655 S
C4430 H4444 0.961 . S
C4431 C4428 1.539 . S
C4431 H4445 0.958 . S
C4431 H4446 0.961 . S
C4431 H4447 0.967 . S
H4432 C4416 0.931 . S
H4433 C4421 0.929 . S
H4434 C4422 0.960 1_655 S
H4435 C4422 0.962 . S
H4436 C4422 0.960 . S
H4437 C4423 0.961 . S
H4438 C4423 0.961 1_655 S
H4439 C4423 0.961 . S
H4440 C4424 0.931 . S
H4441 C4429 0.930 . S
H4442 C4430 0.982 . S
H4443 C4430 0.919 1_455 S
H4444 C4430 0.961 . S
H4445 C4431 0.958 . S
H4446 C4431 0.961 . S
H4447 C4431 0.967 . S
C4448 C4449 1.391 . S
C4448 C4450 1.394 . S
C4448 H4464 0.931 . S
C4449 C4448 1.391 . S
C4449 C4453 1.376 . S
C4450 C4448 1.394 . S
C4450 C4451 1.369 . S
C4450 C4454 1.531 . S
C4451 C4450 1.369 . S
C4451 C4452 1.410 . S
C4451 C4459 1.503 1_565 S
C4452 C4451 1.410 . S
C4452 C4453 1.392 . S
C4452 C4455 1.511 . S
C4453 C4449 1.376 . S
C4453 C4452 1.392 . S
C4453 H4465 0.929 . S
C4454 C4450 1.531 . S
C4454 H4466 0.960 1_565 S
C4454 H4467 0.962 . S
C4454 H4468 0.960 . S
C4455 C4452 1.511 . S
C4455 H4469 0.961 . S
C4455 H4470 0.961 1_565 S
C4455 H4471 0.961 . S
C4456 C4457 1.370 . S
C4456 C4458 1.363 . S
C4456 H4472 0.931 . S
C4457 C4456 1.370 . S
C4457 C4461 1.408 . S
C4458 C4456 1.363 . S
C4458 C4459 1.370 . S
C4458 C4462 1.524 . S
C4459 C4451 1.503 1_545 S
C4459 C4458 1.370 . S
C4459 C4460 1.403 . S
C4460 C4459 1.403 . S
C4460 C4461 1.404 . S
C4460 C4463 1.539 . S
C4461 C4457 1.408 . S
C4461 C4460 1.404 . S
C4461 H4473 0.930 . S
C4462 C4458 1.524 . S
C4462 H4474 0.982 . S
C4462 H4475 0.919 1_545 S
C4462 H4476 0.961 . S
C4463 C4460 1.539 . S
C4463 H4477 0.958 . S
C4463 H4478 0.961 . S
C4463 H4479 0.967 . S
H4464 C4448 0.931 . S
H4465 C4453 0.929 . S
H4466 C4454 0.960 1_545 S
H4467 C4454 0.962 . S
H4468 C4454 0.960 . S
H4469 C4455 0.961 . S
H4470 C4455 0.961 1_545 S
H4471 C4455 0.961 . S
H4472 C4456 0.931 . S
H4473 C4461 0.930 . S
H4474 C4462 0.982 . S
H4475 C4462 0.919 1_565 S
H4476 C4462 0.961 . S
H4477 C4463 0.958 . S
H4478 C4463 0.961 . S
H4479 C4463 0.967 . S
C4480 C4481 1.391 . S
C4480 C4482 1.394 . S
C4480 H4496 0.931 . S
C4481 C4480 1.391 . S
C4481 C4485 1.376 . S
C4482 C4480 1.394 . S
C4482 C4483 1.369 . S
C4482 C4486 1.531 . S
C4483 C4482 1.369 . S
C4483 C4484 1.410 . S
C4483 C4491 1.503 1_655 S
C4484 C4483 1.410 . S
C4484 C4485 1.392 . S
C4484 C4487 1.511 . S
C4485 C4481 1.376 . S
C4485 C4484 1.392 . S
C4485 H4497 0.929 . S
C4486 C4482 1.531 . S
C4486 H4498 0.960 1_655 S
C4486 H4499 0.962 . S
C4486 H4500 0.960 . S
C4487 C4484 1.511 . S
C4487 H4501 0.961 . S
C4487 H4502 0.961 1_655 S
C4487 H4503 0.961 . S
C4488 C4489 1.370 . S
C4488 C4490 1.363 . S
C4488 H4504 0.931 . S
C4489 C4488 1.370 . S
C4489 C4493 1.408 . S
C4490 C4488 1.363 . S
C4490 C4491 1.370 . S
C4490 C4494 1.524 . S
C4491 C4483 1.503 1_455 S
C4491 C4490 1.370 . S
C4491 C4492 1.403 . S
C4492 C4491 1.403 . S
C4492 C4493 1.404 . S
C4492 C4495 1.539 . S
C4493 C4489 1.408 . S
C4493 C4492 1.404 . S
C4493 H4505 0.930 . S
C4494 C4490 1.524 . S
C4494 H4506 0.982 . S
C4494 H4507 0.919 1_455 S
C4494 H4508 0.961 . S
C4495 C4492 1.539 . S
C4495 H4509 0.958 . S
C4495 H4510 0.961 . S
C4495 H4511 0.967 . S
H4496 C4480 0.931 . S
H4497 C4485 0.929 . S
H4498 C4486 0.960 1_455 S
H4499 C4486 0.962 . S
H4500 C4486 0.960 . S
H4501 C4487 0.961 . S
H4502 C4487 0.961 1_455 S
H4503 C4487 0.961 . S
H4504 C4488 0.931 . S
H4505 C4493 0.930 . S
H4506 C4494 0.982 . S
H4507 C4494 0.919 1_655 S
H4508 C4494 0.961 . S
H4509 C4495 0.958 . S
H4510 C4495 0.961 . S
H4511 C4495 0.967 . S
C4512 C4513 1.391 . S
C4512 C4514 1.394 . S
C4512 H4528 0.931 . S
C4513 C4512 1.391 . S
C4513 C4517 1.376 . S
C4514 C4512 1.394 . S
C4514 C4515 1.369 . S
C4514 C4518 1.531 . S
C4515 C4514 1.369 . S
C4515 C4516 1.410 . S
C4515 C4523 1.503 1_545 S
C4516 C4515 1.410 . S
C4516 C4517 1.392 . S
C4516 C4519 1.511 . S
C4517 C4513 1.376 . S
C4517 C4516 1.392 . S
C4517 H4529 0.929 . S
C4518 C4514 1.531 . S
C4518 H4530 0.960 1_545 S
C4518 H4531 0.962 . S
C4518 H4532 0.960 . S
C4519 C4516 1.511 . S
C4519 H4533 0.961 . S
C4519 H4534 0.961 1_545 S
C4519 H4535 0.961 . S
C4520 C4521 1.370 . S
C4520 C4522 1.363 . S
C4520 H4536 0.931 . S
C4521 C4520 1.370 . S
C4521 C4525 1.408 . S
C4522 C4520 1.363 . S
C4522 C4523 1.370 . S
C4522 C4526 1.524 . S
C4523 C4515 1.503 1_565 S
C4523 C4522 1.370 . S
C4523 C4524 1.403 . S
C4524 C4523 1.403 . S
C4524 C4525 1.404 . S
C4524 C4527 1.539 . S
C4525 C4521 1.408 . S
C4525 C4524 1.404 . S
C4525 H4537 0.930 . S
C4526 C4522 1.524 . S
C4526 H4538 0.982 . S
C4526 H4539 0.919 1_565 S
C4526 H4540 0.961 . S
C4527 C4524 1.539 . S
C4527 H4541 0.958 . S
C4527 H4542 0.961 . S
C4527 H4543 0.967 . S
H4528 C4512 0.931 . S
H4529 C4517 0.929 . S
H4530 C4518 0.960 1_565 S
H4531 C4518 0.962 . S
H4532 C4518 0.960 . S
H4533 C4519 0.961 . S
H4534 C4519 0.961 1_565 S
H4535 C4519 0.961 . S
H4536 C4520 0.931 . S
H4537 C4525 0.930 . S
H4538 C4526 0.982 . S
H4539 C4526 0.919 1_545 S
H4540 C4526 0.961 . S
H4541 C4527 0.958 . S
H4542 C4527 0.961 . S
H4543 C4527 0.967 . S
C4544 C4545 1.391 . S
C4544 C4546 1.394 . S
C4544 H4560 0.931 . S
C4545 C4544 1.391 . S
C4545 C4549 1.376 . S
C4546 C4544 1.394 . S
C4546 C4547 1.369 . S
C4546 C4550 1.531 . S
C4547 C4546 1.369 . S
C4547 C4548 1.410 . S
C4547 C4555 1.503 1_455 S
C4548 C4547 1.410 . S
C4548 C4549 1.392 . S
C4548 C4551 1.511 . S
C4549 C4545 1.376 . S
C4549 C4548 1.392 . S
C4549 H4561 0.929 . S
C4550 C4546 1.531 . S
C4550 H4562 0.960 1_455 S
C4550 H4563 0.962 . S
C4550 H4564 0.960 . S
C4551 C4548 1.511 . S
C4551 H4565 0.961 . S
C4551 H4566 0.961 1_455 S
C4551 H4567 0.961 . S
C4552 C4553 1.370 . S
C4552 C4554 1.363 . S
C4552 H4568 0.931 . S
C4553 C4552 1.370 . S
C4553 C4557 1.408 . S
C4554 C4552 1.363 . S
C4554 C4555 1.370 . S
C4554 C4558 1.524 . S
C4555 C4547 1.503 1_655 S
C4555 C4554 1.370 . S
C4555 C4556 1.403 . S
C4556 C4555 1.403 . S
C4556 C4557 1.404 . S
C4556 C4559 1.539 . S
C4557 C4553 1.408 . S
C4557 C4556 1.404 . S
C4557 H4569 0.930 . S
C4558 C4554 1.524 . S
C4558 H4570 0.982 . S
C4558 H4571 0.919 1_655 S
C4558 H4572 0.961 . S
C4559 C4556 1.539 . S
C4559 H4573 0.958 . S
C4559 H4574 0.961 . S
C4559 H4575 0.967 . S
H4560 C4544 0.931 . S
H4561 C4549 0.929 . S
H4562 C4550 0.960 1_655 S
H4563 C4550 0.962 . S
H4564 C4550 0.960 . S
H4565 C4551 0.961 . S
H4566 C4551 0.961 1_655 S
H4567 C4551 0.961 . S
H4568 C4552 0.931 . S
H4569 C4557 0.930 . S
H4570 C4558 0.982 . S
H4571 C4558 0.919 1_455 S
H4572 C4558 0.961 . S
H4573 C4559 0.958 . S
H4574 C4559 0.961 . S
H4575 C4559 0.967 . S
C4576 C4577 1.391 . S
C4576 C4578 1.394 . S
C4576 H4592 0.931 . S
C4577 C4576 1.391 . S
C4577 C4581 1.376 . S
C4578 C4576 1.394 . S
C4578 C4579 1.369 . S
C4578 C4582 1.531 . S
C4579 C4578 1.369 . S
C4579 C4580 1.410 . S
C4579 C4587 1.503 1_545 S
C4580 C4579 1.410 . S
C4580 C4581 1.392 . S
C4580 C4583 1.511 . S
C4581 C4577 1.376 . S
C4581 C4580 1.392 . S
C4581 H4593 0.929 . S
C4582 C4578 1.531 . S
C4582 H4594 0.960 1_545 S
C4582 H4595 0.962 . S
C4582 H4596 0.960 . S
C4583 C4580 1.511 . S
C4583 H4597 0.961 . S
C4583 H4598 0.961 1_545 S
C4583 H4599 0.961 . S
C4584 C4585 1.370 . S
C4584 C4586 1.363 . S
C4584 H4600 0.931 . S
C4585 C4584 1.370 . S
C4585 C4589 1.408 . S
C4586 C4584 1.363 . S
C4586 C4587 1.370 . S
C4586 C4590 1.524 . S
C4587 C4579 1.503 1_565 S
C4587 C4586 1.370 . S
C4587 C4588 1.403 . S
C4588 C4587 1.403 . S
C4588 C4589 1.404 . S
C4588 C4591 1.539 . S
C4589 C4585 1.408 . S
C4589 C4588 1.404 . S
C4589 H4601 0.930 . S
C4590 C4586 1.524 . S
C4590 H4602 0.982 . S
C4590 H4603 0.919 1_565 S
C4590 H4604 0.961 . S
C4591 C4588 1.539 . S
C4591 H4605 0.958 . S
C4591 H4606 0.961 . S
C4591 H4607 0.967 . S
H4592 C4576 0.931 . S
H4593 C4581 0.929 . S
H4594 C4582 0.960 1_565 S
H4595 C4582 0.962 . S
H4596 C4582 0.960 . S
H4597 C4583 0.961 . S
H4598 C4583 0.961 1_565 S
H4599 C4583 0.961 . S
H4600 C4584 0.931 . S
H4601 C4589 0.930 . S
H4602 C4590 0.982 . S
H4603 C4590 0.919 1_545 S
H4604 C4590 0.961 . S
H4605 C4591 0.958 . S
H4606 C4591 0.961 . S
H4607 C4591 0.967 . S
C4608 C4609 1.391 . S
C4608 C4610 1.394 . S
C4608 H4624 0.931 . S
C4609 C4608 1.391 . S
C4609 C4613 1.376 . S
C4610 C4608 1.394 . S
C4610 C4611 1.369 . S
C4610 C4614 1.531 . S
C4611 C4610 1.369 . S
C4611 C4612 1.410 . S
C4611 C4619 1.503 1_655 S
C4612 C4611 1.410 . S
C4612 C4613 1.392 . S
C4612 C4615 1.511 . S
C4613 C4609 1.376 . S
C4613 C4612 1.392 . S
C4613 H4625 0.929 . S
C4614 C4610 1.531 . S
C4614 H4626 0.960 1_655 S
C4614 H4627 0.962 . S
C4614 H4628 0.960 . S
C4615 C4612 1.511 . S
C4615 H4629 0.961 . S
C4615 H4630 0.961 1_655 S
C4615 H4631 0.961 . S
C4616 C4617 1.370 . S
C4616 C4618 1.363 . S
C4616 H4632 0.931 . S
C4617 C4616 1.370 . S
C4617 C4621 1.408 . S
C4618 C4616 1.363 . S
C4618 C4619 1.370 . S
C4618 C4622 1.524 . S
C4619 C4611 1.503 1_455 S
C4619 C4618 1.370 . S
C4619 C4620 1.403 . S
C4620 C4619 1.403 . S
C4620 C4621 1.404 . S
C4620 C4623 1.539 . S
C4621 C4617 1.408 . S
C4621 C4620 1.404 . S
C4621 H4633 0.930 . S
C4622 C4618 1.524 . S
C4622 H4634 0.982 . S
C4622 H4635 0.919 1_455 S
C4622 H4636 0.961 . S
C4623 C4620 1.539 . S
C4623 H4637 0.958 . S
C4623 H4638 0.961 . S
C4623 H4639 0.967 . S
H4624 C4608 0.931 . S
H4625 C4613 0.929 . S
H4626 C4614 0.960 1_455 S
H4627 C4614 0.962 . S
H4628 C4614 0.960 . S
H4629 C4615 0.961 . S
H4630 C4615 0.961 1_455 S
H4631 C4615 0.961 . S
H4632 C4616 0.931 . S
H4633 C4621 0.930 . S
H4634 C4622 0.982 . S
H4635 C4622 0.919 1_655 S
H4636 C4622 0.961 . S
H4637 C4623 0.958 . S
H4638 C4623 0.961 . S
H4639 C4623 0.967 . S
C4640 C4641 1.391 . S
C4640 C4642 1.394 . S
C4640 H4656 0.931 . S
C4641 C4640 1.391 . S
C4641 C4645 1.376 . S
C4642 C4640 1.394 . S
C4642 C4643 1.369 . S
C4642 C4646 1.531 . S
C4643 C4642 1.369 . S
C4643 C4644 1.410 . S
C4643 C4651 1.503 1_545 S
C4644 C4643 1.410 . S
C4644 C4645 1.392 . S
C4644 C4647 1.511 . S
C4645 C4641 1.376 . S
C4645 C4644 1.392 . S
C4645 H4657 0.929 . S
C4646 C4642 1.531 . S
C4646 H4658 0.960 1_545 S
C4646 H4659 0.962 . S
C4646 H4660 0.960 . S
C4647 C4644 1.511 . S
C4647 H4661 0.961 . S
C4647 H4662 0.961 1_545 S
C4647 H4663 0.961 . S
C4648 C4649 1.370 . S
C4648 C4650 1.363 . S
C4648 H4664 0.931 . S
C4649 C4648 1.370 . S
C4649 C4653 1.408 . S
C4650 C4648 1.363 . S
C4650 C4651 1.370 . S
C4650 C4654 1.524 . S
C4651 C4643 1.503 1_565 S
C4651 C4650 1.370 . S
C4651 C4652 1.403 . S
C4652 C4651 1.403 . S
C4652 C4653 1.404 . S
C4652 C4655 1.539 . S
C4653 C4649 1.408 . S
C4653 C4652 1.404 . S
C4653 H4665 0.930 . S
C4654 C4650 1.524 . S
C4654 H4666 0.982 . S
C4654 H4667 0.919 1_565 S
C4654 H4668 0.961 . S
C4655 C4652 1.539 . S
C4655 H4669 0.958 . S
C4655 H4670 0.961 . S
C4655 H4671 0.967 . S
H4656 C4640 0.931 . S
H4657 C4645 0.929 . S
H4658 C4646 0.960 1_565 S
H4659 C4646 0.962 . S
H4660 C4646 0.960 . S
H4661 C4647 0.961 . S
H4662 C4647 0.961 1_565 S
H4663 C4647 0.961 . S
H4664 C4648 0.931 . S
H4665 C4653 0.930 . S
H4666 C4654 0.982 . S
H4667 C4654 0.919 1_545 S
H4668 C4654 0.961 . S
H4669 C4655 0.958 . S
H4670 C4655 0.961 . S
H4671 C4655 0.967 . S
C4672 C4673 1.391 . S
C4672 C4674 1.394 . S
C4672 H4688 0.931 . S
C4673 C4672 1.391 . S
C4673 C4677 1.376 . S
C4674 C4672 1.394 . S
C4674 C4675 1.369 . S
C4674 C4678 1.531 . S
C4675 C4674 1.369 . S
C4675 C4676 1.410 . S
C4675 C4683 1.503 1_565 S
C4676 C4675 1.410 . S
C4676 C4677 1.392 . S
C4676 C4679 1.511 . S
C4677 C4673 1.376 . S
C4677 C4676 1.392 . S
C4677 H4689 0.929 . S
C4678 C4674 1.531 . S
C4678 H4690 0.960 1_565 S
C4678 H4691 0.962 . S
C4678 H4692 0.960 . S
C4679 C4676 1.511 . S
C4679 H4693 0.961 . S
C4679 H4694 0.961 1_565 S
C4679 H4695 0.961 . S
C4680 C4681 1.370 . S
C4680 C4682 1.363 . S
C4680 H4696 0.931 . S
C4681 C4680 1.370 . S
C4681 C4685 1.408 . S
C4682 C4680 1.363 . S
C4682 C4683 1.370 . S
C4682 C4686 1.524 . S
C4683 C4675 1.503 1_545 S
C4683 C4682 1.370 . S
C4683 C4684 1.403 . S
C4684 C4683 1.403 . S
C4684 C4685 1.404 . S
C4684 C4687 1.539 . S
C4685 C4681 1.408 . S
C4685 C4684 1.404 . S
C4685 H4697 0.930 . S
C4686 C4682 1.524 . S
C4686 H4698 0.982 . S
C4686 H4699 0.919 1_545 S
C4686 H4700 0.961 . S
C4687 C4684 1.539 . S
C4687 H4701 0.958 . S
C4687 H4702 0.961 . S
C4687 H4703 0.967 . S
H4688 C4672 0.931 . S
H4689 C4677 0.929 . S
H4690 C4678 0.960 1_545 S
H4691 C4678 0.962 . S
H4692 C4678 0.960 . S
H4693 C4679 0.961 . S
H4694 C4679 0.961 1_545 S
H4695 C4679 0.961 . S
H4696 C4680 0.931 . S
H4697 C4685 0.930 . S
H4698 C4686 0.982 . S
H4699 C4686 0.919 1_565 S
H4700 C4686 0.961 . S
H4701 C4687 0.958 . S
H4702 C4687 0.961 . S
H4703 C4687 0.967 . S
C4704 C4705 1.391 . S
C4704 C4706 1.394 . S
C4704 H4720 0.931 . S
C4705 C4704 1.391 . S
C4705 C4709 1.376 . S
C4706 C4704 1.394 . S
C4706 C4707 1.369 . S
C4706 C4710 1.531 . S
C4707 C4706 1.369 . S
C4707 C4708 1.410 . S
C4707 C4715 1.503 1_655 S
C4708 C4707 1.410 . S
C4708 C4709 1.392 . S
C4708 C4711 1.511 . S
C4709 C4705 1.376 . S
C4709 C4708 1.392 . S
C4709 H4721 0.929 . S
C4710 C4706 1.531 . S
C4710 H4722 0.960 1_655 S
C4710 H4723 0.962 . S
C4710 H4724 0.960 . S
C4711 C4708 1.511 . S
C4711 H4725 0.961 . S
C4711 H4726 0.961 1_655 S
C4711 H4727 0.961 . S
C4712 C4713 1.370 . S
C4712 C4714 1.363 . S
C4712 H4728 0.931 . S
C4713 C4712 1.370 . S
C4713 C4717 1.408 . S
C4714 C4712 1.363 . S
C4714 C4715 1.370 . S
C4714 C4718 1.524 . S
C4715 C4707 1.503 1_455 S
C4715 C4714 1.370 . S
C4715 C4716 1.403 . S
C4716 C4715 1.403 . S
C4716 C4717 1.404 . S
C4716 C4719 1.539 . S
C4717 C4713 1.408 . S
C4717 C4716 1.404 . S
C4717 H4729 0.930 . S
C4718 C4714 1.524 . S
C4718 H4730 0.982 . S
C4718 H4731 0.919 1_455 S
C4718 H4732 0.961 . S
C4719 C4716 1.539 . S
C4719 H4733 0.958 . S
C4719 H4734 0.961 . S
C4719 H4735 0.967 . S
H4720 C4704 0.931 . S
H4721 C4709 0.929 . S
H4722 C4710 0.960 1_455 S
H4723 C4710 0.962 . S
H4724 C4710 0.960 . S
H4725 C4711 0.961 . S
H4726 C4711 0.961 1_455 S
H4727 C4711 0.961 . S
H4728 C4712 0.931 . S
H4729 C4717 0.930 . S
H4730 C4718 0.982 . S
H4731 C4718 0.919 1_655 S
H4732 C4718 0.961 . S
H4733 C4719 0.958 . S
H4734 C4719 0.961 . S
H4735 C4719 0.967 . S
C4736 C4737 1.391 . S
C4736 C4738 1.394 . S
C4736 H4752 0.931 . S
C4737 C4736 1.391 . S
C4737 C4741 1.376 . S
C4738 C4736 1.394 . S
C4738 C4739 1.369 . S
C4738 C4742 1.531 . S
C4739 C4738 1.369 . S
C4739 C4740 1.410 . S
C4739 C4747 1.503 1_565 S
C4740 C4739 1.410 . S
C4740 C4741 1.392 . S
C4740 C4743 1.511 . S
C4741 C4737 1.376 . S
C4741 C4740 1.392 . S
C4741 H4753 0.929 . S
C4742 C4738 1.531 . S
C4742 H4754 0.960 1_565 S
C4742 H4755 0.962 . S
C4742 H4756 0.960 . S
C4743 C4740 1.511 . S
C4743 H4757 0.961 . S
C4743 H4758 0.961 1_565 S
C4743 H4759 0.961 . S
C4744 C4745 1.370 . S
C4744 C4746 1.363 . S
C4744 H4760 0.931 . S
C4745 C4744 1.370 . S
C4745 C4749 1.408 . S
C4746 C4744 1.363 . S
C4746 C4747 1.370 . S
C4746 C4750 1.524 . S
C4747 C4739 1.503 1_545 S
C4747 C4746 1.370 . S
C4747 C4748 1.403 . S
C4748 C4747 1.403 . S
C4748 C4749 1.404 . S
C4748 C4751 1.539 . S
C4749 C4745 1.408 . S
C4749 C4748 1.404 . S
C4749 H4761 0.930 . S
C4750 C4746 1.524 . S
C4750 H4762 0.982 . S
C4750 H4763 0.919 1_545 S
C4750 H4764 0.961 . S
C4751 C4748 1.539 . S
C4751 H4765 0.958 . S
C4751 H4766 0.961 . S
C4751 H4767 0.967 . S
H4752 C4736 0.931 . S
H4753 C4741 0.929 . S
H4754 C4742 0.960 1_545 S
H4755 C4742 0.962 . S
H4756 C4742 0.960 . S
H4757 C4743 0.961 . S
H4758 C4743 0.961 1_545 S
H4759 C4743 0.961 . S
H4760 C4744 0.931 . S
H4761 C4749 0.930 . S
H4762 C4750 0.982 . S
H4763 C4750 0.919 1_565 S
H4764 C4750 0.961 . S
H4765 C4751 0.958 . S
H4766 C4751 0.961 . S
H4767 C4751 0.967 . S
C4768 C4769 1.391 . S
C4768 C4770 1.394 . S
C4768 H4784 0.931 . S
C4769 C4768 1.391 . S
C4769 C4773 1.376 . S
C4770 C4768 1.394 . S
C4770 C4771 1.369 . S
C4770 C4774 1.531 . S
C4771 C4770 1.369 . S
C4771 C4772 1.410 . S
C4771 C4779 1.503 1_455 S
C4772 C4771 1.410 . S
C4772 C4773 1.392 . S
C4772 C4775 1.511 . S
C4773 C4769 1.376 . S
C4773 C4772 1.392 . S
C4773 H4785 0.929 . S
C4774 C4770 1.531 . S
C4774 H4786 0.960 1_455 S
C4774 H4787 0.962 . S
C4774 H4788 0.960 . S
C4775 C4772 1.511 . S
C4775 H4789 0.961 . S
C4775 H4790 0.961 1_455 S
C4775 H4791 0.961 . S
C4776 C4777 1.370 . S
C4776 C4778 1.363 . S
C4776 H4792 0.931 . S
C4777 C4776 1.370 . S
C4777 C4781 1.408 . S
C4778 C4776 1.363 . S
C4778 C4779 1.370 . S
C4778 C4782 1.524 . S
C4779 C4771 1.503 1_655 S
C4779 C4778 1.370 . S
C4779 C4780 1.403 . S
C4780 C4779 1.403 . S
C4780 C4781 1.404 . S
C4780 C4783 1.539 . S
C4781 C4777 1.408 . S
C4781 C4780 1.404 . S
C4781 H4793 0.930 . S
C4782 C4778 1.524 . S
C4782 H4794 0.982 . S
C4782 H4795 0.919 1_655 S
C4782 H4796 0.961 . S
C4783 C4780 1.539 . S
C4783 H4797 0.958 . S
C4783 H4798 0.961 . S
C4783 H4799 0.967 . S
H4784 C4768 0.931 . S
H4785 C4773 0.929 . S
H4786 C4774 0.960 1_655 S
H4787 C4774 0.962 . S
H4788 C4774 0.960 . S
H4789 C4775 0.961 . S
H4790 C4775 0.961 1_655 S
H4791 C4775 0.961 . S
H4792 C4776 0.931 . S
H4793 C4781 0.930 . S
H4794 C4782 0.982 . S
H4795 C4782 0.919 1_455 S
H4796 C4782 0.961 . S
H4797 C4783 0.958 . S
H4798 C4783 0.961 . S
H4799 C4783 0.967 . S
C4800 C4801 1.391 . S
C4800 C4802 1.394 . S
C4800 H4816 0.931 . S
C4801 C4800 1.391 . S
C4801 C4805 1.376 . S
C4802 C4800 1.394 . S
C4802 C4803 1.369 . S
C4802 C4806 1.531 . S
C4803 C4802 1.369 . S
C4803 C4804 1.410 . S
C4803 C4811 1.503 1_565 S
C4804 C4803 1.410 . S
C4804 C4805 1.392 . S
C4804 C4807 1.511 . S
C4805 C4801 1.376 . S
C4805 C4804 1.392 . S
C4805 H4817 0.929 . S
C4806 C4802 1.531 . S
C4806 H4818 0.960 1_565 S
C4806 H4819 0.962 . S
C4806 H4820 0.960 . S
C4807 C4804 1.511 . S
C4807 H4821 0.961 . S
C4807 H4822 0.961 1_565 S
C4807 H4823 0.961 . S
C4808 C4809 1.370 . S
C4808 C4810 1.363 . S
C4808 H4824 0.931 . S
C4809 C4808 1.370 . S
C4809 C4813 1.408 . S
C4810 C4808 1.363 . S
C4810 C4811 1.370 . S
C4810 C4814 1.524 . S
C4811 C4803 1.503 1_545 S
C4811 C4810 1.370 . S
C4811 C4812 1.403 . S
C4812 C4811 1.403 . S
C4812 C4813 1.404 . S
C4812 C4815 1.539 . S
C4813 C4809 1.408 . S
C4813 C4812 1.404 . S
C4813 H4825 0.930 . S
C4814 C4810 1.524 . S
C4814 H4826 0.982 . S
C4814 H4827 0.919 1_545 S
C4814 H4828 0.961 . S
C4815 C4812 1.539 . S
C4815 H4829 0.958 . S
C4815 H4830 0.961 . S
C4815 H4831 0.967 . S
H4816 C4800 0.931 . S
H4817 C4805 0.929 . S
H4818 C4806 0.960 1_545 S
H4819 C4806 0.962 . S
H4820 C4806 0.960 . S
H4821 C4807 0.961 . S
H4822 C4807 0.961 1_545 S
H4823 C4807 0.961 . S
H4824 C4808 0.931 . S
H4825 C4813 0.930 . S
H4826 C4814 0.982 . S
H4827 C4814 0.919 1_565 S
H4828 C4814 0.961 . S
H4829 C4815 0.958 . S
H4830 C4815 0.961 . S
H4831 C4815 0.967 . S
C4832 C4833 1.391 . S
C4832 C4834 1.394 . S
C4832 H4848 0.931 . S
C4833 C4832 1.391 . S
C4833 C4837 1.376 . S
C4834 C4832 1.394 . S
C4834 C4835 1.369 . S
C4834 C4838 1.531 . S
C4835 C4834 1.369 . S
C4835 C4836 1.410 . S
C4835 C4843 1.503 1_455 S
C4836 C4835 1.410 . S
C4836 C4837 1.392 . S
C4836 C4839 1.511 . S
C4837 C4833 1.376 . S
C4837 C4836 1.392 . S
C4837 H4849 0.929 . S
C4838 C4834 1.531 . S
C4838 H4850 0.960 1_455 S
C4838 H4851 0.962 . S
C4838 H4852 0.960 . S
C4839 C4836 1.511 . S
C4839 H4853 0.961 . S
C4839 H4854 0.961 1_455 S
C4839 H4855 0.961 . S
C4840 C4841 1.370 . S
C4840 C4842 1.363 . S
C4840 H4856 0.931 . S
C4841 C4840 1.370 . S
C4841 C4845 1.408 . S
C4842 C4840 1.363 . S
C4842 C4843 1.370 . S
C4842 C4846 1.524 . S
C4843 C4835 1.503 1_655 S
C4843 C4842 1.370 . S
C4843 C4844 1.403 . S
C4844 C4843 1.403 . S
C4844 C4845 1.404 . S
C4844 C4847 1.539 . S
C4845 C4841 1.408 . S
C4845 C4844 1.404 . S
C4845 H4857 0.930 . S
C4846 C4842 1.524 . S
C4846 H4858 0.982 . S
C4846 H4859 0.919 1_655 S
C4846 H4860 0.961 . S
C4847 C4844 1.539 . S
C4847 H4861 0.958 . S
C4847 H4862 0.961 . S
C4847 H4863 0.967 . S
H4848 C4832 0.931 . S
H4849 C4837 0.929 . S
H4850 C4838 0.960 1_655 S
H4851 C4838 0.962 . S
H4852 C4838 0.960 . S
H4853 C4839 0.961 . S
H4854 C4839 0.961 1_655 S
H4855 C4839 0.961 . S
H4856 C4840 0.931 . S
H4857 C4845 0.930 . S
H4858 C4846 0.982 . S
H4859 C4846 0.919 1_455 S
H4860 C4846 0.961 . S
H4861 C4847 0.958 . S
H4862 C4847 0.961 . S
H4863 C4847 0.967 . S
C4864 C4865 1.391 . S
C4864 C4866 1.394 . S
C4864 H4880 0.931 . S
C4865 C4864 1.391 . S
C4865 C4869 1.376 . S
C4866 C4864 1.394 . S
C4866 C4867 1.369 . S
C4866 C4870 1.531 . S
C4867 C4866 1.369 . S
C4867 C4868 1.410 . S
C4867 C4875 1.503 1_545 S
C4868 C4867 1.410 . S
C4868 C4869 1.392 . S
C4868 C4871 1.511 . S
C4869 C4865 1.376 . S
C4869 C4868 1.392 . S
C4869 H4881 0.929 . S
C4870 C4866 1.531 . S
C4870 H4882 0.960 1_545 S
C4870 H4883 0.962 . S
C4870 H4884 0.960 . S
C4871 C4868 1.511 . S
C4871 H4885 0.961 . S
C4871 H4886 0.961 1_545 S
C4871 H4887 0.961 . S
C4872 C4873 1.370 . S
C4872 C4874 1.363 . S
C4872 H4888 0.931 . S
C4873 C4872 1.370 . S
C4873 C4877 1.408 . S
C4874 C4872 1.363 . S
C4874 C4875 1.370 . S
C4874 C4878 1.524 . S
C4875 C4867 1.503 1_565 S
C4875 C4874 1.370 . S
C4875 C4876 1.403 . S
C4876 C4875 1.403 . S
C4876 C4877 1.404 . S
C4876 C4879 1.539 . S
C4877 C4873 1.408 . S
C4877 C4876 1.404 . S
C4877 H4889 0.930 . S
C4878 C4874 1.524 . S
C4878 H4890 0.982 . S
C4878 H4891 0.919 1_565 S
C4878 H4892 0.961 . S
C4879 C4876 1.539 . S
C4879 H4893 0.958 . S
C4879 H4894 0.961 . S
C4879 H4895 0.967 . S
H4880 C4864 0.931 . S
H4881 C4869 0.929 . S
H4882 C4870 0.960 1_565 S
H4883 C4870 0.962 . S
H4884 C4870 0.960 . S
H4885 C4871 0.961 . S
H4886 C4871 0.961 1_565 S
H4887 C4871 0.961 . S
H4888 C4872 0.931 . S
H4889 C4877 0.930 . S
H4890 C4878 0.982 . S
H4891 C4878 0.919 1_545 S
H4892 C4878 0.961 . S
H4893 C4879 0.958 . S
H4894 C4879 0.961 . S
H4895 C4879 0.967 . S
C4896 C4897 1.391 . S
C4896 C4898 1.394 . S
C4896 H4912 0.931 . S
C4897 C4896 1.391 . S
C4897 C4901 1.376 . S
C4898 C4896 1.394 . S
C4898 C4899 1.369 . S
C4898 C4902 1.531 . S
C4899 C4898 1.369 . S
C4899 C4900 1.410 . S
C4899 C4907 1.503 1_655 S
C4900 C4899 1.410 . S
C4900 C4901 1.392 . S
C4900 C4903 1.511 . S
C4901 C4897 1.376 . S
C4901 C4900 1.392 . S
C4901 H4913 0.929 . S
C4902 C4898 1.531 . S
C4902 H4914 0.960 1_655 S
C4902 H4915 0.962 . S
C4902 H4916 0.960 . S
C4903 C4900 1.511 . S
C4903 H4917 0.961 . S
C4903 H4918 0.961 1_655 S
C4903 H4919 0.961 . S
C4904 C4905 1.370 . S
C4904 C4906 1.363 . S
C4904 H4920 0.931 . S
C4905 C4904 1.370 . S
C4905 C4909 1.408 . S
C4906 C4904 1.363 . S
C4906 C4907 1.370 . S
C4906 C4910 1.524 . S
C4907 C4899 1.503 1_455 S
C4907 C4906 1.370 . S
C4907 C4908 1.403 . S
C4908 C4907 1.403 . S
C4908 C4909 1.404 . S
C4908 C4911 1.539 . S
C4909 C4905 1.408 . S
C4909 C4908 1.404 . S
C4909 H4921 0.930 . S
C4910 C4906 1.524 . S
C4910 H4922 0.982 . S
C4910 H4923 0.919 1_455 S
C4910 H4924 0.961 . S
C4911 C4908 1.539 . S
C4911 H4925 0.958 . S
C4911 H4926 0.961 . S
C4911 H4927 0.967 . S
H4912 C4896 0.931 . S
H4913 C4901 0.929 . S
H4914 C4902 0.960 1_455 S
H4915 C4902 0.962 . S
H4916 C4902 0.960 . S
H4917 C4903 0.961 . S
H4918 C4903 0.961 1_455 S
H4919 C4903 0.961 . S
H4920 C4904 0.931 . S
H4921 C4909 0.930 . S
H4922 C4910 0.982 . S
H4923 C4910 0.919 1_655 S
H4924 C4910 0.961 . S
H4925 C4911 0.958 . S
H4926 C4911 0.961 . S
H4927 C4911 0.967 . S
C4928 C4929 1.391 . S
C4928 C4930 1.394 . S
C4928 H4944 0.931 . S
C4929 C4928 1.391 . S
C4929 C4933 1.376 . S
C4930 C4928 1.394 . S
C4930 C4931 1.369 . S
C4930 C4934 1.531 . S
C4931 C4930 1.369 . S
C4931 C4932 1.410 . S
C4931 C4939 1.503 1_554 S
C4932 C4931 1.410 . S
C4932 C4933 1.392 . S
C4932 C4935 1.511 . S
C4933 C4929 1.376 . S
C4933 C4932 1.392 . S
C4933 H4945 0.929 . S
C4934 C4930 1.531 . S
C4934 H4946 0.960 1_554 S
C4934 H4947 0.962 . S
C4934 H4948 0.960 . S
C4935 C4932 1.511 . S
C4935 H4949 0.961 . S
C4935 H4950 0.961 1_554 S
C4935 H4951 0.961 . S
C4936 C4937 1.370 . S
C4936 C4938 1.363 . S
C4936 H4952 0.931 . S
C4937 C4936 1.370 . S
C4937 C4941 1.408 . S
C4938 C4936 1.363 . S
C4938 C4939 1.370 . S
C4938 C4942 1.524 . S
C4939 C4931 1.503 1_556 S
C4939 C4938 1.370 . S
C4939 C4940 1.403 . S
C4940 C4939 1.403 . S
C4940 C4941 1.404 . S
C4940 C4943 1.539 . S
C4941 C4937 1.408 . S
C4941 C4940 1.404 . S
C4941 H4953 0.930 . S
C4942 C4938 1.524 . S
C4942 H4954 0.982 . S
C4942 H4955 0.919 1_556 S
C4942 H4956 0.961 . S
C4943 C4940 1.539 . S
C4943 H4957 0.958 . S
C4943 H4958 0.961 . S
C4943 H4959 0.967 . S
H4944 C4928 0.931 . S
H4945 C4933 0.929 . S
H4946 C4934 0.960 1_556 S
H4947 C4934 0.962 . S
H4948 C4934 0.960 . S
H4949 C4935 0.961 . S
H4950 C4935 0.961 1_556 S
H4951 C4935 0.961 . S
H4952 C4936 0.931 . S
H4953 C4941 0.930 . S
H4954 C4942 0.982 . S
H4955 C4942 0.919 1_554 S
H4956 C4942 0.961 . S
H4957 C4943 0.958 . S
H4958 C4943 0.961 . S
H4959 C4943 0.967 . S
C4960 C4961 1.391 . S
C4960 C4962 1.394 . S
C4960 H4976 0.931 . S
C4961 C4960 1.391 . S
C4961 C4965 1.376 . S
C4962 C4960 1.394 . S
C4962 C4963 1.369 . S
C4962 C4966 1.531 . S
C4963 C4962 1.369 . S
C4963 C4964 1.410 . S
C4963 C4971 1.503 1_556 S
C4964 C4963 1.410 . S
C4964 C4965 1.392 . S
C4964 C4967 1.511 . S
C4965 C4961 1.376 . S
C4965 C4964 1.392 . S
C4965 H4977 0.929 . S
C4966 C4962 1.531 . S
C4966 H4978 0.960 1_556 S
C4966 H4979 0.962 . S
C4966 H4980 0.960 . S
C4967 C4964 1.511 . S
C4967 H4981 0.961 . S
C4967 H4982 0.961 1_556 S
C4967 H4983 0.961 . S
C4968 C4969 1.370 . S
C4968 C4970 1.363 . S
C4968 H4984 0.931 . S
C4969 C4968 1.370 . S
C4969 C4973 1.408 . S
C4970 C4968 1.363 . S
C4970 C4971 1.370 . S
C4970 C4974 1.524 . S
C4971 C4963 1.503 1_554 S
C4971 C4970 1.370 . S
C4971 C4972 1.403 . S
C4972 C4971 1.403 . S
C4972 C4973 1.404 . S
C4972 C4975 1.539 . S
C4973 C4969 1.408 . S
C4973 C4972 1.404 . S
C4973 H4985 0.930 . S
C4974 C4970 1.524 . S
C4974 H4986 0.982 . S
C4974 H4987 0.919 1_554 S
C4974 H4988 0.961 . S
C4975 C4972 1.539 . S
C4975 H4989 0.958 . S
C4975 H4990 0.961 . S
C4975 H4991 0.967 . S
H4976 C4960 0.931 . S
H4977 C4965 0.929 . S
H4978 C4966 0.960 1_554 S
H4979 C4966 0.962 . S
H4980 C4966 0.960 . S
H4981 C4967 0.961 . S
H4982 C4967 0.961 1_554 S
H4983 C4967 0.961 . S
H4984 C4968 0.931 . S
H4985 C4973 0.930 . S
H4986 C4974 0.982 . S
H4987 C4974 0.919 1_556 S
H4988 C4974 0.961 . S
H4989 C4975 0.958 . S
H4990 C4975 0.961 . S
H4991 C4975 0.967 . S
C4992 C4993 1.391 . S
C4992 C4994 1.394 . S
C4992 H5008 0.931 . S
C4993 C4992 1.391 . S
C4993 C4997 1.376 . S
C4994 C4992 1.394 . S
C4994 C4995 1.369 . S
C4994 C4998 1.531 . S
C4995 C4994 1.369 . S
C4995 C4996 1.410 . S
C4995 C5003 1.503 1_554 S
C4996 C4995 1.410 . S
C4996 C4997 1.392 . S
C4996 C4999 1.511 . S
C4997 C4993 1.376 . S
C4997 C4996 1.392 . S
C4997 H5009 0.929 . S
C4998 C4994 1.531 . S
C4998 H5010 0.960 1_554 S
C4998 H5011 0.962 . S
C4998 H5012 0.960 . S
C4999 C4996 1.511 . S
C4999 H5013 0.961 . S
C4999 H5014 0.961 1_554 S
C4999 H5015 0.961 . S
C5000 C5001 1.370 . S
C5000 C5002 1.363 . S
C5000 H5016 0.931 . S
C5001 C5000 1.370 . S
C5001 C5005 1.408 . S
C5002 C5000 1.363 . S
C5002 C5003 1.370 . S
C5002 C5006 1.524 . S
C5003 C4995 1.503 1_556 S
C5003 C5002 1.370 . S
C5003 C5004 1.403 . S
C5004 C5003 1.403 . S
C5004 C5005 1.404 . S
C5004 C5007 1.539 . S
C5005 C5001 1.408 . S
C5005 C5004 1.404 . S
C5005 H5017 0.930 . S
C5006 C5002 1.524 . S
C5006 H5018 0.982 . S
C5006 H5019 0.919 1_556 S
C5006 H5020 0.961 . S
C5007 C5004 1.539 . S
C5007 H5021 0.958 . S
C5007 H5022 0.961 . S
C5007 H5023 0.967 . S
H5008 C4992 0.931 . S
H5009 C4997 0.929 . S
H5010 C4998 0.960 1_556 S
H5011 C4998 0.962 . S
H5012 C4998 0.960 . S
H5013 C4999 0.961 . S
H5014 C4999 0.961 1_556 S
H5015 C4999 0.961 . S
H5016 C5000 0.931 . S
H5017 C5005 0.930 . S
H5018 C5006 0.982 . S
H5019 C5006 0.919 1_554 S
H5020 C5006 0.961 . S
H5021 C5007 0.958 . S
H5022 C5007 0.961 . S
H5023 C5007 0.967 . S
C5024 C5025 1.391 . S
C5024 C5026 1.394 . S
C5024 H5040 0.931 . S
C5025 C5024 1.391 . S
C5025 C5029 1.376 . S
C5026 C5024 1.394 . S
C5026 C5027 1.369 . S
C5026 C5030 1.531 . S
C5027 C5026 1.369 . S
C5027 C5028 1.410 . S
C5027 C5035 1.503 1_556 S
C5028 C5027 1.410 . S
C5028 C5029 1.392 . S
C5028 C5031 1.511 . S
C5029 C5025 1.376 . S
C5029 C5028 1.392 . S
C5029 H5041 0.929 . S
C5030 C5026 1.531 . S
C5030 H5042 0.960 1_556 S
C5030 H5043 0.962 . S
C5030 H5044 0.960 . S
C5031 C5028 1.511 . S
C5031 H5045 0.961 . S
C5031 H5046 0.961 1_556 S
C5031 H5047 0.961 . S
C5032 C5033 1.370 . S
C5032 C5034 1.363 . S
C5032 H5048 0.931 . S
C5033 C5032 1.370 . S
C5033 C5037 1.408 . S
C5034 C5032 1.363 . S
C5034 C5035 1.370 . S
C5034 C5038 1.524 . S
C5035 C5027 1.503 1_554 S
C5035 C5034 1.370 . S
C5035 C5036 1.403 . S
C5036 C5035 1.403 . S
C5036 C5037 1.404 . S
C5036 C5039 1.539 . S
C5037 C5033 1.408 . S
C5037 C5036 1.404 . S
C5037 H5049 0.930 . S
C5038 C5034 1.524 . S
C5038 H5050 0.982 . S
C5038 H5051 0.919 1_554 S
C5038 H5052 0.961 . S
C5039 C5036 1.539 . S
C5039 H5053 0.958 . S
C5039 H5054 0.961 . S
C5039 H5055 0.967 . S
H5040 C5024 0.931 . S
H5041 C5029 0.929 . S
H5042 C5030 0.960 1_554 S
H5043 C5030 0.962 . S
H5044 C5030 0.960 . S
H5045 C5031 0.961 . S
H5046 C5031 0.961 1_554 S
H5047 C5031 0.961 . S
H5048 C5032 0.931 . S
H5049 C5037 0.930 . S
H5050 C5038 0.982 . S
H5051 C5038 0.919 1_556 S
H5052 C5038 0.961 . S
H5053 C5039 0.958 . S
H5054 C5039 0.961 . S
H5055 C5039 0.967 . S
C5056 C5057 1.391 . S
C5056 C5058 1.394 . S
C5056 H5072 0.931 . S
C5057 C5056 1.391 . S
C5057 C5061 1.376 . S
C5058 C5056 1.394 . S
C5058 C5059 1.369 . S
C5058 C5062 1.531 . S
C5059 C5058 1.369 . S
C5059 C5060 1.410 . S
C5059 C5067 1.503 1_554 S
C5060 C5059 1.410 . S
C5060 C5061 1.392 . S
C5060 C5063 1.511 . S
C5061 C5057 1.376 . S
C5061 C5060 1.392 . S
C5061 H5073 0.929 . S
C5062 C5058 1.531 . S
C5062 H5074 0.960 1_554 S
C5062 H5075 0.962 . S
C5062 H5076 0.960 . S
C5063 C5060 1.511 . S
C5063 H5077 0.961 . S
C5063 H5078 0.961 1_554 S
C5063 H5079 0.961 . S
C5064 C5065 1.370 . S
C5064 C5066 1.363 . S
C5064 H5080 0.931 . S
C5065 C5064 1.370 . S
C5065 C5069 1.408 . S
C5066 C5064 1.363 . S
C5066 C5067 1.370 . S
C5066 C5070 1.524 . S
C5067 C5059 1.503 1_556 S
C5067 C5066 1.370 . S
C5067 C5068 1.403 . S
C5068 C5067 1.403 . S
C5068 C5069 1.404 . S
C5068 C5071 1.539 . S
C5069 C5065 1.408 . S
C5069 C5068 1.404 . S
C5069 H5081 0.930 . S
C5070 C5066 1.524 . S
C5070 H5082 0.982 . S
C5070 H5083 0.919 1_556 S
C5070 H5084 0.961 . S
C5071 C5068 1.539 . S
C5071 H5085 0.958 . S
C5071 H5086 0.961 . S
C5071 H5087 0.967 . S
H5072 C5056 0.931 . S
H5073 C5061 0.929 . S
H5074 C5062 0.960 1_556 S
H5075 C5062 0.962 . S
H5076 C5062 0.960 . S
H5077 C5063 0.961 . S
H5078 C5063 0.961 1_556 S
H5079 C5063 0.961 . S
H5080 C5064 0.931 . S
H5081 C5069 0.930 . S
H5082 C5070 0.982 . S
H5083 C5070 0.919 1_554 S
H5084 C5070 0.961 . S
H5085 C5071 0.958 . S
H5086 C5071 0.961 . S
H5087 C5071 0.967 . S
C5088 C5089 1.391 . S
C5088 C5090 1.394 . S
C5088 H5104 0.931 . S
C5089 C5088 1.391 . S
C5089 C5093 1.376 . S
C5090 C5088 1.394 . S
C5090 C5091 1.369 . S
C5090 C5094 1.531 . S
C5091 C5090 1.369 . S
C5091 C5092 1.410 . S
C5091 C5099 1.503 1_554 S
C5092 C5091 1.410 . S
C5092 C5093 1.392 . S
C5092 C5095 1.511 . S
C5093 C5089 1.376 . S
C5093 C5092 1.392 . S
C5093 H5105 0.929 . S
C5094 C5090 1.531 . S
C5094 H5106 0.960 1_554 S
C5094 H5107 0.962 . S
C5094 H5108 0.960 . S
C5095 C5092 1.511 . S
C5095 H5109 0.961 . S
C5095 H5110 0.961 1_554 S
C5095 H5111 0.961 . S
C5096 C5097 1.370 . S
C5096 C5098 1.363 . S
C5096 H5112 0.931 . S
C5097 C5096 1.370 . S
C5097 C5101 1.408 . S
C5098 C5096 1.363 . S
C5098 C5099 1.370 . S
C5098 C5102 1.524 . S
C5099 C5091 1.503 1_556 S
C5099 C5098 1.370 . S
C5099 C5100 1.403 . S
C5100 C5099 1.403 . S
C5100 C5101 1.404 . S
C5100 C5103 1.539 . S
C5101 C5097 1.408 . S
C5101 C5100 1.404 . S
C5101 H5113 0.930 . S
C5102 C5098 1.524 . S
C5102 H5114 0.982 . S
C5102 H5115 0.919 1_556 S
C5102 H5116 0.961 . S
C5103 C5100 1.539 . S
C5103 H5117 0.958 . S
C5103 H5118 0.961 . S
C5103 H5119 0.967 . S
H5104 C5088 0.931 . S
H5105 C5093 0.929 . S
H5106 C5094 0.960 1_556 S
H5107 C5094 0.962 . S
H5108 C5094 0.960 . S
H5109 C5095 0.961 . S
H5110 C5095 0.961 1_556 S
H5111 C5095 0.961 . S
H5112 C5096 0.931 . S
H5113 C5101 0.930 . S
H5114 C5102 0.982 . S
H5115 C5102 0.919 1_554 S
H5116 C5102 0.961 . S
H5117 C5103 0.958 . S
H5118 C5103 0.961 . S
H5119 C5103 0.967 . S
C5120 C5121 1.391 . S
C5120 C5122 1.394 . S
C5120 H5136 0.931 . S
C5121 C5120 1.391 . S
C5121 C5125 1.376 . S
C5122 C5120 1.394 . S
C5122 C5123 1.369 . S
C5122 C5126 1.531 . S
C5123 C5122 1.369 . S
C5123 C5124 1.410 . S
C5123 C5131 1.503 1_554 S
C5124 C5123 1.410 . S
C5124 C5125 1.392 . S
C5124 C5127 1.511 . S
C5125 C5121 1.376 . S
C5125 C5124 1.392 . S
C5125 H5137 0.929 . S
C5126 C5122 1.531 . S
C5126 H5138 0.960 1_554 S
C5126 H5139 0.962 . S
C5126 H5140 0.960 . S
C5127 C5124 1.511 . S
C5127 H5141 0.961 . S
C5127 H5142 0.961 1_554 S
C5127 H5143 0.961 . S
C5128 C5129 1.370 . S
C5128 C5130 1.363 . S
C5128 H5144 0.931 . S
C5129 C5128 1.370 . S
C5129 C5133 1.408 . S
C5130 C5128 1.363 . S
C5130 C5131 1.370 . S
C5130 C5134 1.524 . S
C5131 C5123 1.503 1_556 S
C5131 C5130 1.370 . S
C5131 C5132 1.403 . S
C5132 C5131 1.403 . S
C5132 C5133 1.404 . S
C5132 C5135 1.539 . S
C5133 C5129 1.408 . S
C5133 C5132 1.404 . S
C5133 H5145 0.930 . S
C5134 C5130 1.524 . S
C5134 H5146 0.982 . S
C5134 H5147 0.919 1_556 S
C5134 H5148 0.961 . S
C5135 C5132 1.539 . S
C5135 H5149 0.958 . S
C5135 H5150 0.961 . S
C5135 H5151 0.967 . S
H5136 C5120 0.931 . S
H5137 C5125 0.929 . S
H5138 C5126 0.960 1_556 S
H5139 C5126 0.962 . S
H5140 C5126 0.960 . S
H5141 C5127 0.961 . S
H5142 C5127 0.961 1_556 S
H5143 C5127 0.961 . S
H5144 C5128 0.931 . S
H5145 C5133 0.930 . S
H5146 C5134 0.982 . S
H5147 C5134 0.919 1_554 S
H5148 C5134 0.961 . S
H5149 C5135 0.958 . S
H5150 C5135 0.961 . S
H5151 C5135 0.967 . S
C5152 C5153 1.391 . S
C5152 C5154 1.394 . S
C5152 H5168 0.931 . S
C5153 C5152 1.391 . S
C5153 C5157 1.376 . S
C5154 C5152 1.394 . S
C5154 C5155 1.369 . S
C5154 C5158 1.531 . S
C5155 C5154 1.369 . S
C5155 C5156 1.410 . S
C5155 C5163 1.503 1_556 S
C5156 C5155 1.410 . S
C5156 C5157 1.392 . S
C5156 C5159 1.511 . S
C5157 C5153 1.376 . S
C5157 C5156 1.392 . S
C5157 H5169 0.929 . S
C5158 C5154 1.531 . S
C5158 H5170 0.960 1_556 S
C5158 H5171 0.962 . S
C5158 H5172 0.960 . S
C5159 C5156 1.511 . S
C5159 H5173 0.961 . S
C5159 H5174 0.961 1_556 S
C5159 H5175 0.961 . S
C5160 C5161 1.370 . S
C5160 C5162 1.363 . S
C5160 H5176 0.931 . S
C5161 C5160 1.370 . S
C5161 C5165 1.408 . S
C5162 C5160 1.363 . S
C5162 C5163 1.370 . S
C5162 C5166 1.524 . S
C5163 C5155 1.503 1_554 S
C5163 C5162 1.370 . S
C5163 C5164 1.403 . S
C5164 C5163 1.403 . S
C5164 C5165 1.404 . S
C5164 C5167 1.539 . S
C5165 C5161 1.408 . S
C5165 C5164 1.404 . S
C5165 H5177 0.930 . S
C5166 C5162 1.524 . S
C5166 H5178 0.982 . S
C5166 H5179 0.919 1_554 S
C5166 H5180 0.961 . S
C5167 C5164 1.539 . S
C5167 H5181 0.958 . S
C5167 H5182 0.961 . S
C5167 H5183 0.967 . S
H5168 C5152 0.931 . S
H5169 C5157 0.929 . S
H5170 C5158 0.960 1_554 S
H5171 C5158 0.962 . S
H5172 C5158 0.960 . S
H5173 C5159 0.961 . S
H5174 C5159 0.961 1_554 S
H5175 C5159 0.961 . S
H5176 C5160 0.931 . S
H5177 C5165 0.930 . S
H5178 C5166 0.982 . S
H5179 C5166 0.919 1_556 S
H5180 C5166 0.961 . S
H5181 C5167 0.958 . S
H5182 C5167 0.961 . S
H5183 C5167 0.967 . S
C5184 C5185 1.391 . S
C5184 C5186 1.394 . S
C5184 H5200 0.931 . S
C5185 C5184 1.391 . S
C5185 C5189 1.376 . S
C5186 C5184 1.394 . S
C5186 C5187 1.369 . S
C5186 C5190 1.531 . S
C5187 C5186 1.369 . S
C5187 C5188 1.410 . S
C5187 C5195 1.503 . S
C5188 C5187 1.410 . S
C5188 C5189 1.392 . S
C5188 C5191 1.511 . S
C5189 C5185 1.376 . S
C5189 C5188 1.392 . S
C5189 H5201 0.929 . S
C5190 C5186 1.531 . S
C5190 H5202 0.960 . S
C5190 H5203 0.962 . S
C5190 H5204 0.960 . S
C5191 C5188 1.511 . S
C5191 H5205 0.961 . S
C5191 H5206 0.961 . S
C5191 H5207 0.961 . S
C5192 C5193 1.370 . S
C5192 C5194 1.363 . S
C5192 H5208 0.931 . S
C5193 C5192 1.370 . S
C5193 C5197 1.408 . S
C5194 C5192 1.363 . S
C5194 C5195 1.370 . S
C5194 C5198 1.524 . S
C5195 C5187 1.503 . S
C5195 C5194 1.370 . S
C5195 C5196 1.403 . S
C5196 C5195 1.403 . S
C5196 C5197 1.404 . S
C5196 C5199 1.539 . S
C5197 C5193 1.408 . S
C5197 C5196 1.404 . S
C5197 H5209 0.930 . S
C5198 C5194 1.524 . S
C5198 H5210 0.956 . S
C5198 H5211 0.961 . S
C5198 H5212 0.961 . S
C5199 C5196 1.539 . S
C5199 H5213 0.958 . S
C5199 H5214 0.961 . S
C5199 H5215 0.960 . S
H5200 C5184 0.931 . S
H5201 C5189 0.929 . S
H5202 C5190 0.960 . S
H5203 C5190 0.962 . S
H5204 C5190 0.960 . S
H5205 C5191 0.961 . S
H5206 C5191 0.961 . S
H5207 C5191 0.961 . S
H5208 C5192 0.931 . S
H5209 C5197 0.930 . S
H5210 C5198 0.956 . S
H5211 C5198 0.961 . S
H5212 C5198 0.961 . S
H5213 C5199 0.958 . S
H5214 C5199 0.961 . S
H5215 C5199 0.960 . S
C5216 C5217 1.391 . S
C5216 C5218 1.394 . S
C5216 H5232 0.931 . S
C5217 C5216 1.391 . S
C5217 C5221 1.376 . S
C5218 C5216 1.394 . S
C5218 C5219 1.369 . S
C5218 C5222 1.531 . S
C5219 C5218 1.369 . S
C5219 C5220 1.410 . S
C5219 C5227 1.503 . S
C5220 C5219 1.410 . S
C5220 C5221 1.392 . S
C5220 C5223 1.511 . S
C5221 C5217 1.376 . S
C5221 C5220 1.392 . S
C5221 H5233 0.929 . S
C5222 C5218 1.531 . S
C5222 H5234 0.960 . S
C5222 H5235 0.962 . S
C5222 H5236 0.960 . S
C5223 C5220 1.511 . S
C5223 H5237 0.961 . S
C5223 H5238 0.961 . S
C5223 H5239 0.961 . S
C5224 C5225 1.370 . S
C5224 C5226 1.363 . S
C5224 H5240 0.931 . S
C5225 C5224 1.370 . S
C5225 C5229 1.408 . S
C5226 C5224 1.363 . S
C5226 C5227 1.370 . S
C5226 C5230 1.524 . S
C5227 C5219 1.503 . S
C5227 C5226 1.370 . S
C5227 C5228 1.403 . S
C5228 C5227 1.403 . S
C5228 C5229 1.404 . S
C5228 C5231 1.539 . S
C5229 C5225 1.408 . S
C5229 C5228 1.404 . S
C5229 H5241 0.930 . S
C5230 C5226 1.524 . S
C5230 H5242 0.956 . S
C5230 H5243 0.961 . S
C5230 H5244 0.961 . S
C5231 C5228 1.539 . S
C5231 H5245 0.958 . S
C5231 H5246 0.961 . S
C5231 H5247 0.960 . S
H5232 C5216 0.931 . S
H5233 C5221 0.929 . S
H5234 C5222 0.960 . S
H5235 C5222 0.962 . S
H5236 C5222 0.960 . S
H5237 C5223 0.961 . S
H5238 C5223 0.961 . S
H5239 C5223 0.961 . S
H5240 C5224 0.931 . S
H5241 C5229 0.930 . S
H5242 C5230 0.956 . S
H5243 C5230 0.961 . S
H5244 C5230 0.961 . S
H5245 C5231 0.958 . S
H5246 C5231 0.961 . S
H5247 C5231 0.960 . S
C5248 C5249 1.391 . S
C5248 C5250 1.394 . S
C5248 H5264 0.931 . S
C5249 C5248 1.391 . S
C5249 C5253 1.376 . S
C5250 C5248 1.394 . S
C5250 C5251 1.369 . S
C5250 C5254 1.531 . S
C5251 C5250 1.369 . S
C5251 C5252 1.410 . S
C5251 C5259 1.503 . S
C5252 C5251 1.410 . S
C5252 C5253 1.392 . S
C5252 C5255 1.511 . S
C5253 C5249 1.376 . S
C5253 C5252 1.392 . S
C5253 H5265 0.929 . S
C5254 C5250 1.531 . S
C5254 H5266 0.960 . S
C5254 H5267 0.962 . S
C5254 H5268 0.960 . S
C5255 C5252 1.511 . S
C5255 H5269 0.961 . S
C5255 H5270 0.961 . S
C5255 H5271 0.961 . S
C5256 C5257 1.370 . S
C5256 C5258 1.363 . S
C5256 H5272 0.931 . S
C5257 C5256 1.370 . S
C5257 C5261 1.408 . S
C5258 C5256 1.363 . S
C5258 C5259 1.370 . S
C5258 C5262 1.524 . S
C5259 C5251 1.503 . S
C5259 C5258 1.370 . S
C5259 C5260 1.403 . S
C5260 C5259 1.403 . S
C5260 C5261 1.404 . S
C5260 C5263 1.539 . S
C5261 C5257 1.408 . S
C5261 C5260 1.404 . S
C5261 H5273 0.930 . S
C5262 C5258 1.524 . S
C5262 H5274 0.956 . S
C5262 H5275 0.961 . S
C5262 H5276 0.961 . S
C5263 C5260 1.539 . S
C5263 H5277 0.958 . S
C5263 H5278 0.961 . S
C5263 H5279 0.960 . S
H5264 C5248 0.931 . S
H5265 C5253 0.929 . S
H5266 C5254 0.960 . S
H5267 C5254 0.962 . S
H5268 C5254 0.960 . S
H5269 C5255 0.961 . S
H5270 C5255 0.961 . S
H5271 C5255 0.961 . S
H5272 C5256 0.931 . S
H5273 C5261 0.930 . S
H5274 C5262 0.956 . S
H5275 C5262 0.961 . S
H5276 C5262 0.961 . S
H5277 C5263 0.958 . S
H5278 C5263 0.961 . S
H5279 C5263 0.960 . S
C5280 C5281 1.391 . S
C5280 C5282 1.394 . S
C5280 H5296 0.931 . S
C5281 C5280 1.391 . S
C5281 C5285 1.376 . S
C5282 C5280 1.394 . S
C5282 C5283 1.369 . S
C5282 C5286 1.531 . S
C5283 C5282 1.369 . S
C5283 C5284 1.410 . S
C5283 C5291 1.503 . S
C5284 C5283 1.410 . S
C5284 C5285 1.392 . S
C5284 C5287 1.511 . S
C5285 C5281 1.376 . S
C5285 C5284 1.392 . S
C5285 H5297 0.929 . S
C5286 C5282 1.531 . S
C5286 H5298 0.960 . S
C5286 H5299 0.962 . S
C5286 H5300 0.960 . S
C5287 C5284 1.511 . S
C5287 H5301 0.961 . S
C5287 H5302 0.961 . S
C5287 H5303 0.961 . S
C5288 C5289 1.370 . S
C5288 C5290 1.363 . S
C5288 H5304 0.931 . S
C5289 C5288 1.370 . S
C5289 C5293 1.408 . S
C5290 C5288 1.363 . S
C5290 C5291 1.370 . S
C5290 C5294 1.524 . S
C5291 C5283 1.503 . S
C5291 C5290 1.370 . S
C5291 C5292 1.403 . S
C5292 C5291 1.403 . S
C5292 C5293 1.404 . S
C5292 C5295 1.539 . S
C5293 C5289 1.408 . S
C5293 C5292 1.404 . S
C5293 H5305 0.930 . S
C5294 C5290 1.524 . S
C5294 H5306 0.956 . S
C5294 H5307 0.961 . S
C5294 H5308 0.961 . S
C5295 C5292 1.539 . S
C5295 H5309 0.958 . S
C5295 H5310 0.961 . S
C5295 H5311 0.960 . S
H5296 C5280 0.931 . S
H5297 C5285 0.929 . S
H5298 C5286 0.960 . S
H5299 C5286 0.962 . S
H5300 C5286 0.960 . S
H5301 C5287 0.961 . S
H5302 C5287 0.961 . S
H5303 C5287 0.961 . S
H5304 C5288 0.931 . S
H5305 C5293 0.930 . S
H5306 C5294 0.956 . S
H5307 C5294 0.961 . S
H5308 C5294 0.961 . S
H5309 C5295 0.958 . S
H5310 C5295 0.961 . S
H5311 C5295 0.960 . S
C5312 C5313 1.391 . S
C5312 C5314 1.394 . S
C5312 H5328 0.931 . S
C5313 C5312 1.391 . S
C5313 C5317 1.376 . S
C5314 C5312 1.394 . S
C5314 C5315 1.369 . S
C5314 C5318 1.531 . S
C5315 C5314 1.369 . S
C5315 C5316 1.410 . S
C5315 C5323 1.503 . S
C5316 C5315 1.410 . S
C5316 C5317 1.392 . S
C5316 C5319 1.511 . S
C5317 C5313 1.376 . S
C5317 C5316 1.392 . S
C5317 H5329 0.929 . S
C5318 C5314 1.531 . S
C5318 H5330 0.960 . S
C5318 H5331 0.962 . S
C5318 H5332 0.960 . S
C5319 C5316 1.511 . S
C5319 H5333 0.961 . S
C5319 H5334 0.961 . S
C5319 H5335 0.961 . S
C5320 C5321 1.370 . S
C5320 C5322 1.363 . S
C5320 H5336 0.931 . S
C5321 C5320 1.370 . S
C5321 C5325 1.408 . S
C5322 C5320 1.363 . S
C5322 C5323 1.370 . S
C5322 C5326 1.524 . S
C5323 C5315 1.503 . S
C5323 C5322 1.370 . S
C5323 C5324 1.403 . S
C5324 C5323 1.403 . S
C5324 C5325 1.404 . S
C5324 C5327 1.539 . S
C5325 C5321 1.408 . S
C5325 C5324 1.404 . S
C5325 H5337 0.930 . S
C5326 C5322 1.524 . S
C5326 H5338 0.956 . S
C5326 H5339 0.961 . S
C5326 H5340 0.961 . S
C5327 C5324 1.539 . S
C5327 H5341 0.958 . S
C5327 H5342 0.961 . S
C5327 H5343 0.960 . S
H5328 C5312 0.931 . S
H5329 C5317 0.929 . S
H5330 C5318 0.960 . S
H5331 C5318 0.962 . S
H5332 C5318 0.960 . S
H5333 C5319 0.961 . S
H5334 C5319 0.961 . S
H5335 C5319 0.961 . S
H5336 C5320 0.931 . S
H5337 C5325 0.930 . S
H5338 C5326 0.956 . S
H5339 C5326 0.961 . S
H5340 C5326 0.961 . S
H5341 C5327 0.958 . S
H5342 C5327 0.961 . S
H5343 C5327 0.960 . S
C5344 C5345 1.391 . S
C5344 C5346 1.394 . S
C5344 H5360 0.931 . S
C5345 C5344 1.391 . S
C5345 C5349 1.376 . S
C5346 C5344 1.394 . S
C5346 C5347 1.369 . S
C5346 C5350 1.531 . S
C5347 C5346 1.369 . S
C5347 C5348 1.410 . S
C5347 C5355 1.503 . S
C5348 C5347 1.410 . S
C5348 C5349 1.392 . S
C5348 C5351 1.511 . S
C5349 C5345 1.376 . S
C5349 C5348 1.392 . S
C5349 H5361 0.929 . S
C5350 C5346 1.531 . S
C5350 H5362 0.960 . S
C5350 H5363 0.962 . S
C5350 H5364 0.960 . S
C5351 C5348 1.511 . S
C5351 H5365 0.961 . S
C5351 H5366 0.961 . S
C5351 H5367 0.961 . S
C5352 C5353 1.370 . S
C5352 C5354 1.363 . S
C5352 H5368 0.931 . S
C5353 C5352 1.370 . S
C5353 C5357 1.408 . S
C5354 C5352 1.363 . S
C5354 C5355 1.370 . S
C5354 C5358 1.524 . S
C5355 C5347 1.503 . S
C5355 C5354 1.370 . S
C5355 C5356 1.403 . S
C5356 C5355 1.403 . S
C5356 C5357 1.404 . S
C5356 C5359 1.539 . S
C5357 C5353 1.408 . S
C5357 C5356 1.404 . S
C5357 H5369 0.930 . S
C5358 C5354 1.524 . S
C5358 H5370 0.956 . S
C5358 H5371 0.961 . S
C5358 H5372 0.961 . S
C5359 C5356 1.539 . S
C5359 H5373 0.958 . S
C5359 H5374 0.961 . S
C5359 H5375 0.960 . S
H5360 C5344 0.931 . S
H5361 C5349 0.929 . S
H5362 C5350 0.960 . S
H5363 C5350 0.962 . S
H5364 C5350 0.960 . S
H5365 C5351 0.961 . S
H5366 C5351 0.961 . S
H5367 C5351 0.961 . S
H5368 C5352 0.931 . S
H5369 C5357 0.930 . S
H5370 C5358 0.956 . S
H5371 C5358 0.961 . S
H5372 C5358 0.961 . S
H5373 C5359 0.958 . S
H5374 C5359 0.961 . S
H5375 C5359 0.960 . S
C5376 C5377 1.391 . S
C5376 C5378 1.394 . S
C5376 H5392 0.931 . S
C5377 C5376 1.391 . S
C5377 C5381 1.376 . S
C5378 C5376 1.394 . S
C5378 C5379 1.369 . S
C5378 C5382 1.531 . S
C5379 C5378 1.369 . S
C5379 C5380 1.410 . S
C5379 C5387 1.503 . S
C5380 C5379 1.410 . S
C5380 C5381 1.392 . S
C5380 C5383 1.511 . S
C5381 C5377 1.376 . S
C5381 C5380 1.392 . S
C5381 H5393 0.929 . S
C5382 C5378 1.531 . S
C5382 H5394 0.960 . S
C5382 H5395 0.962 . S
C5382 H5396 0.960 . S
C5383 C5380 1.511 . S
C5383 H5397 0.961 . S
C5383 H5398 0.961 . S
C5383 H5399 0.961 . S
C5384 C5385 1.370 . S
C5384 C5386 1.363 . S
C5384 H5400 0.931 . S
C5385 C5384 1.370 . S
C5385 C5389 1.408 . S
C5386 C5384 1.363 . S
C5386 C5387 1.370 . S
C5386 C5390 1.524 . S
C5387 C5379 1.503 . S
C5387 C5386 1.370 . S
C5387 C5388 1.403 . S
C5388 C5387 1.403 . S
C5388 C5389 1.404 . S
C5388 C5391 1.539 . S
C5389 C5385 1.408 . S
C5389 C5388 1.404 . S
C5389 H5401 0.930 . S
C5390 C5386 1.524 . S
C5390 H5402 0.956 . S
C5390 H5403 0.961 . S
C5390 H5404 0.961 . S
C5391 C5388 1.539 . S
C5391 H5405 0.958 . S
C5391 H5406 0.961 . S
C5391 H5407 0.960 . S
H5392 C5376 0.931 . S
H5393 C5381 0.929 . S
H5394 C5382 0.960 . S
H5395 C5382 0.962 . S
H5396 C5382 0.960 . S
H5397 C5383 0.961 . S
H5398 C5383 0.961 . S
H5399 C5383 0.961 . S
H5400 C5384 0.931 . S
H5401 C5389 0.930 . S
H5402 C5390 0.956 . S
H5403 C5390 0.961 . S
H5404 C5390 0.961 . S
H5405 C5391 0.958 . S
H5406 C5391 0.961 . S
H5407 C5391 0.960 . S
C5408 C5409 1.391 . S
C5408 C5410 1.394 . S
C5408 H5424 0.931 . S
C5409 C5408 1.391 . S
C5409 C5413 1.376 . S
C5410 C5408 1.394 . S
C5410 C5411 1.369 . S
C5410 C5414 1.531 . S
C5411 C5410 1.369 . S
C5411 C5412 1.410 . S
C5411 C5419 1.503 . S
C5412 C5411 1.410 . S
C5412 C5413 1.392 . S
C5412 C5415 1.511 . S
C5413 C5409 1.376 . S
C5413 C5412 1.392 . S
C5413 H5425 0.929 . S
C5414 C5410 1.531 . S
C5414 H5426 0.960 . S
C5414 H5427 0.962 . S
C5414 H5428 0.960 . S
C5415 C5412 1.511 . S
C5415 H5429 0.961 . S
C5415 H5430 0.961 . S
C5415 H5431 0.961 . S
C5416 C5417 1.370 . S
C5416 C5418 1.363 . S
C5416 H5432 0.931 . S
C5417 C5416 1.370 . S
C5417 C5421 1.408 . S
C5418 C5416 1.363 . S
C5418 C5419 1.370 . S
C5418 C5422 1.524 . S
C5419 C5411 1.503 . S
C5419 C5418 1.370 . S
C5419 C5420 1.403 . S
C5420 C5419 1.403 . S
C5420 C5421 1.404 . S
C5420 C5423 1.539 . S
C5421 C5417 1.408 . S
C5421 C5420 1.404 . S
C5421 H5433 0.930 . S
C5422 C5418 1.524 . S
C5422 H5434 0.956 . S
C5422 H5435 0.961 . S
C5422 H5436 0.961 . S
C5423 C5420 1.539 . S
C5423 H5437 0.958 . S
C5423 H5438 0.961 . S
C5423 H5439 0.960 . S
H5424 C5408 0.931 . S
H5425 C5413 0.929 . S
H5426 C5414 0.960 . S
H5427 C5414 0.962 . S
H5428 C5414 0.960 . S
H5429 C5415 0.961 . S
H5430 C5415 0.961 . S
H5431 C5415 0.961 . S
H5432 C5416 0.931 . S
H5433 C5421 0.930 . S
H5434 C5422 0.956 . S
H5435 C5422 0.961 . S
H5436 C5422 0.961 . S
H5437 C5423 0.958 . S
H5438 C5423 0.961 . S
H5439 C5423 0.960 . S
C5440 C5441 1.391 . S
C5440 C5442 1.394 . S
C5440 H5456 0.931 . S
C5441 C5440 1.391 . S
C5441 C5445 1.376 . S
C5442 C5440 1.394 . S
C5442 C5443 1.369 . S
C5442 C5446 1.531 . S
C5443 C5442 1.369 . S
C5443 C5444 1.410 . S
C5443 C5451 1.503 . S
C5444 C5443 1.410 . S
C5444 C5445 1.392 . S
C5444 C5447 1.511 . S
C5445 C5441 1.376 . S
C5445 C5444 1.392 . S
C5445 H5457 0.929 . S
C5446 C5442 1.531 . S
C5446 H5458 0.960 . S
C5446 H5459 0.962 . S
C5446 H5460 0.960 . S
C5447 C5444 1.511 . S
C5447 H5461 0.961 . S
C5447 H5462 0.961 . S
C5447 H5463 0.961 . S
C5448 C5449 1.370 . S
C5448 C5450 1.363 . S
C5448 H5464 0.931 . S
C5449 C5448 1.370 . S
C5449 C5453 1.408 . S
C5450 C5448 1.363 . S
C5450 C5451 1.370 . S
C5450 C5454 1.524 . S
C5451 C5443 1.503 . S
C5451 C5450 1.370 . S
C5451 C5452 1.403 . S
C5452 C5451 1.403 . S
C5452 C5453 1.404 . S
C5452 C5455 1.539 . S
C5453 C5449 1.408 . S
C5453 C5452 1.404 . S
C5453 H5465 0.930 . S
C5454 C5450 1.524 . S
C5454 H5466 0.956 . S
C5454 H5467 0.961 . S
C5454 H5468 0.961 . S
C5455 C5452 1.539 . S
C5455 H5469 0.958 . S
C5455 H5470 0.961 . S
C5455 H5471 0.960 . S
H5456 C5440 0.931 . S
H5457 C5445 0.929 . S
H5458 C5446 0.960 . S
H5459 C5446 0.962 . S
H5460 C5446 0.960 . S
H5461 C5447 0.961 . S
H5462 C5447 0.961 . S
H5463 C5447 0.961 . S
H5464 C5448 0.931 . S
H5465 C5453 0.930 . S
H5466 C5454 0.956 . S
H5467 C5454 0.961 . S
H5468 C5454 0.961 . S
H5469 C5455 0.958 . S
H5470 C5455 0.961 . S
H5471 C5455 0.960 . S
C5472 C5473 1.391 . S
C5472 C5474 1.394 . S
C5472 H5488 0.931 . S
C5473 C5472 1.391 . S
C5473 C5477 1.376 . S
C5474 C5472 1.394 . S
C5474 C5475 1.369 . S
C5474 C5478 1.531 . S
C5475 C5474 1.369 . S
C5475 C5476 1.410 . S
C5475 C5483 1.503 . S
C5476 C5475 1.410 . S
C5476 C5477 1.392 . S
C5476 C5479 1.511 . S
C5477 C5473 1.376 . S
C5477 C5476 1.392 . S
C5477 H5489 0.929 . S
C5478 C5474 1.531 . S
C5478 H5490 0.960 . S
C5478 H5491 0.962 . S
C5478 H5492 0.960 . S
C5479 C5476 1.511 . S
C5479 H5493 0.961 . S
C5479 H5494 0.961 . S
C5479 H5495 0.961 . S
C5480 C5481 1.370 . S
C5480 C5482 1.363 . S
C5480 H5496 0.931 . S
C5481 C5480 1.370 . S
C5481 C5485 1.408 . S
C5482 C5480 1.363 . S
C5482 C5483 1.370 . S
C5482 C5486 1.524 . S
C5483 C5475 1.503 . S
C5483 C5482 1.370 . S
C5483 C5484 1.403 . S
C5484 C5483 1.403 . S
C5484 C5485 1.404 . S
C5484 C5487 1.539 . S
C5485 C5481 1.408 . S
C5485 C5484 1.404 . S
C5485 H5497 0.930 . S
C5486 C5482 1.524 . S
C5486 H5498 0.956 . S
C5486 H5499 0.961 . S
C5486 H5500 0.961 . S
C5487 C5484 1.539 . S
C5487 H5501 0.958 . S
C5487 H5502 0.961 . S
C5487 H5503 0.960 . S
H5488 C5472 0.931 . S
H5489 C5477 0.929 . S
H5490 C5478 0.960 . S
H5491 C5478 0.962 . S
H5492 C5478 0.960 . S
H5493 C5479 0.961 . S
H5494 C5479 0.961 . S
H5495 C5479 0.961 . S
H5496 C5480 0.931 . S
H5497 C5485 0.930 . S
H5498 C5486 0.956 . S
H5499 C5486 0.961 . S
H5500 C5486 0.961 . S
H5501 C5487 0.958 . S
H5502 C5487 0.961 . S
H5503 C5487 0.960 . S
C5504 C5505 1.391 . S
C5504 C5506 1.394 . S
C5504 H5520 0.931 . S
C5505 C5504 1.391 . S
C5505 C5509 1.376 . S
C5506 C5504 1.394 . S
C5506 C5507 1.369 . S
C5506 C5510 1.531 . S
C5507 C5506 1.369 . S
C5507 C5508 1.410 . S
C5507 C5515 1.503 . S
C5508 C5507 1.410 . S
C5508 C5509 1.392 . S
C5508 C5511 1.511 . S
C5509 C5505 1.376 . S
C5509 C5508 1.392 . S
C5509 H5521 0.929 . S
C5510 C5506 1.531 . S
C5510 H5522 0.960 . S
C5510 H5523 0.962 . S
C5510 H5524 0.960 . S
C5511 C5508 1.511 . S
C5511 H5525 0.961 . S
C5511 H5526 0.961 . S
C5511 H5527 0.961 . S
C5512 C5513 1.370 . S
C5512 C5514 1.363 . S
C5512 H5528 0.931 . S
C5513 C5512 1.370 . S
C5513 C5517 1.408 . S
C5514 C5512 1.363 . S
C5514 C5515 1.370 . S
C5514 C5518 1.524 . S
C5515 C5507 1.503 . S
C5515 C5514 1.370 . S
C5515 C5516 1.403 . S
C5516 C5515 1.403 . S
C5516 C5517 1.404 . S
C5516 C5519 1.539 . S
C5517 C5513 1.408 . S
C5517 C5516 1.404 . S
C5517 H5529 0.930 . S
C5518 C5514 1.524 . S
C5518 H5530 0.956 . S
C5518 H5531 0.961 . S
C5518 H5532 0.961 . S
C5519 C5516 1.539 . S
C5519 H5533 0.958 . S
C5519 H5534 0.961 . S
C5519 H5535 0.960 . S
H5520 C5504 0.931 . S
H5521 C5509 0.929 . S
H5522 C5510 0.960 . S
H5523 C5510 0.962 . S
H5524 C5510 0.960 . S
H5525 C5511 0.961 . S
H5526 C5511 0.961 . S
H5527 C5511 0.961 . S
H5528 C5512 0.931 . S
H5529 C5517 0.930 . S
H5530 C5518 0.956 . S
H5531 C5518 0.961 . S
H5532 C5518 0.961 . S
H5533 C5519 0.958 . S
H5534 C5519 0.961 . S
H5535 C5519 0.960 . S
C5536 C5537 1.391 . S
C5536 C5538 1.394 . S
C5536 H5552 0.931 . S
C5537 C5536 1.391 . S
C5537 C5541 1.376 . S
C5538 C5536 1.394 . S
C5538 C5539 1.369 . S
C5538 C5542 1.531 . S
C5539 C5538 1.369 . S
C5539 C5540 1.410 . S
C5539 C5547 1.503 . S
C5540 C5539 1.410 . S
C5540 C5541 1.392 . S
C5540 C5543 1.511 . S
C5541 C5537 1.376 . S
C5541 C5540 1.392 . S
C5541 H5553 0.929 . S
C5542 C5538 1.531 . S
C5542 H5554 0.960 . S
C5542 H5555 0.962 . S
C5542 H5556 0.960 . S
C5543 C5540 1.511 . S
C5543 H5557 0.961 . S
C5543 H5558 0.961 . S
C5543 H5559 0.961 . S
C5544 C5545 1.370 . S
C5544 C5546 1.363 . S
C5544 H5560 0.931 . S
C5545 C5544 1.370 . S
C5545 C5549 1.408 . S
C5546 C5544 1.363 . S
C5546 C5547 1.370 . S
C5546 C5550 1.524 . S
C5547 C5539 1.503 . S
C5547 C5546 1.370 . S
C5547 C5548 1.403 . S
C5548 C5547 1.403 . S
C5548 C5549 1.404 . S
C5548 C5551 1.539 . S
C5549 C5545 1.408 . S
C5549 C5548 1.404 . S
C5549 H5561 0.930 . S
C5550 C5546 1.524 . S
C5550 H5562 0.956 . S
C5550 H5563 0.961 . S
C5550 H5564 0.961 . S
C5551 C5548 1.539 . S
C5551 H5565 0.958 . S
C5551 H5566 0.961 . S
C5551 H5567 0.960 . S
H5552 C5536 0.931 . S
H5553 C5541 0.929 . S
H5554 C5542 0.960 . S
H5555 C5542 0.962 . S
H5556 C5542 0.960 . S
H5557 C5543 0.961 . S
H5558 C5543 0.961 . S
H5559 C5543 0.961 . S
H5560 C5544 0.931 . S
H5561 C5549 0.930 . S
H5562 C5550 0.956 . S
H5563 C5550 0.961 . S
H5564 C5550 0.961 . S
H5565 C5551 0.958 . S
H5566 C5551 0.961 . S
H5567 C5551 0.960 . S
C5568 C5569 1.391 . S
C5568 C5570 1.394 . S
C5568 H5584 0.931 . S
C5569 C5568 1.391 . S
C5569 C5573 1.376 . S
C5570 C5568 1.394 . S
C5570 C5571 1.369 . S
C5570 C5574 1.531 . S
C5571 C5570 1.369 . S
C5571 C5572 1.410 . S
C5571 C5579 1.503 . S
C5572 C5571 1.410 . S
C5572 C5573 1.392 . S
C5572 C5575 1.511 . S
C5573 C5569 1.376 . S
C5573 C5572 1.392 . S
C5573 H5585 0.929 . S
C5574 C5570 1.531 . S
C5574 H5586 0.960 . S
C5574 H5587 0.962 . S
C5574 H5588 0.960 . S
C5575 C5572 1.511 . S
C5575 H5589 0.961 . S
C5575 H5590 0.961 . S
C5575 H5591 0.961 . S
C5576 C5577 1.370 . S
C5576 C5578 1.363 . S
C5576 H5592 0.931 . S
C5577 C5576 1.370 . S
C5577 C5581 1.408 . S
C5578 C5576 1.363 . S
C5578 C5579 1.370 . S
C5578 C5582 1.524 . S
C5579 C5571 1.503 . S
C5579 C5578 1.370 . S
C5579 C5580 1.403 . S
C5580 C5579 1.403 . S
C5580 C5581 1.404 . S
C5580 C5583 1.539 . S
C5581 C5577 1.408 . S
C5581 C5580 1.404 . S
C5581 H5593 0.930 . S
C5582 C5578 1.524 . S
C5582 H5594 0.956 . S
C5582 H5595 0.961 . S
C5582 H5596 0.961 . S
C5583 C5580 1.539 . S
C5583 H5597 0.958 . S
C5583 H5598 0.961 . S
C5583 H5599 0.960 . S
H5584 C5568 0.931 . S
H5585 C5573 0.929 . S
H5586 C5574 0.960 . S
H5587 C5574 0.962 . S
H5588 C5574 0.960 . S
H5589 C5575 0.961 . S
H5590 C5575 0.961 . S
H5591 C5575 0.961 . S
H5592 C5576 0.931 . S
H5593 C5581 0.930 . S
H5594 C5582 0.956 . S
H5595 C5582 0.961 . S
H5596 C5582 0.961 . S
H5597 C5583 0.958 . S
H5598 C5583 0.961 . S
H5599 C5583 0.960 . S
C5600 C5601 1.391 . S
C5600 C5602 1.394 . S
C5600 H5616 0.931 . S
C5601 C5600 1.391 . S
C5601 C5605 1.376 . S
C5602 C5600 1.394 . S
C5602 C5603 1.369 . S
C5602 C5606 1.531 . S
C5603 C5602 1.369 . S
C5603 C5604 1.410 . S
C5603 C5611 1.503 . S
C5604 C5603 1.410 . S
C5604 C5605 1.392 . S
C5604 C5607 1.511 . S
C5605 C5601 1.376 . S
C5605 C5604 1.392 . S
C5605 H5617 0.929 . S
C5606 C5602 1.531 . S
C5606 H5618 0.960 . S
C5606 H5619 0.962 . S
C5606 H5620 0.960 . S
C5607 C5604 1.511 . S
C5607 H5621 0.961 . S
C5607 H5622 0.961 . S
C5607 H5623 0.961 . S
C5608 C5609 1.370 . S
C5608 C5610 1.363 . S
C5608 H5624 0.931 . S
C5609 C5608 1.370 . S
C5609 C5613 1.408 . S
C5610 C5608 1.363 . S
C5610 C5611 1.370 . S
C5610 C5614 1.524 . S
C5611 C5603 1.503 . S
C5611 C5610 1.370 . S
C5611 C5612 1.403 . S
C5612 C5611 1.403 . S
C5612 C5613 1.404 . S
C5612 C5615 1.539 . S
C5613 C5609 1.408 . S
C5613 C5612 1.404 . S
C5613 H5625 0.930 . S
C5614 C5610 1.524 . S
C5614 H5626 0.956 . S
C5614 H5627 0.961 . S
C5614 H5628 0.961 . S
C5615 C5612 1.539 . S
C5615 H5629 0.958 . S
C5615 H5630 0.961 . S
C5615 H5631 0.960 . S
H5616 C5600 0.931 . S
H5617 C5605 0.929 . S
H5618 C5606 0.960 . S
H5619 C5606 0.962 . S
H5620 C5606 0.960 . S
H5621 C5607 0.961 . S
H5622 C5607 0.961 . S
H5623 C5607 0.961 . S
H5624 C5608 0.931 . S
H5625 C5613 0.930 . S
H5626 C5614 0.956 . S
H5627 C5614 0.961 . S
H5628 C5614 0.961 . S
H5629 C5615 0.958 . S
H5630 C5615 0.961 . S
H5631 C5615 0.960 . S
C5632 C5633 1.391 . S
C5632 C5634 1.394 . S
C5632 H5648 0.931 . S
C5633 C5632 1.391 . S
C5633 C5637 1.376 . S
C5634 C5632 1.394 . S
C5634 C5635 1.369 . S
C5634 C5638 1.531 . S
C5635 C5634 1.369 . S
C5635 C5636 1.410 . S
C5635 C5643 1.503 . S
C5636 C5635 1.410 . S
C5636 C5637 1.392 . S
C5636 C5639 1.511 . S
C5637 C5633 1.376 . S
C5637 C5636 1.392 . S
C5637 H5649 0.929 . S
C5638 C5634 1.531 . S
C5638 H5650 0.960 . S
C5638 H5651 0.962 . S
C5638 H5652 0.960 . S
C5639 C5636 1.511 . S
C5639 H5653 0.961 . S
C5639 H5654 0.961 . S
C5639 H5655 0.961 . S
C5640 C5641 1.370 . S
C5640 C5642 1.363 . S
C5640 H5656 0.931 . S
C5641 C5640 1.370 . S
C5641 C5645 1.408 . S
C5642 C5640 1.363 . S
C5642 C5643 1.370 . S
C5642 C5646 1.524 . S
C5643 C5635 1.503 . S
C5643 C5642 1.370 . S
C5643 C5644 1.403 . S
C5644 C5643 1.403 . S
C5644 C5645 1.404 . S
C5644 C5647 1.539 . S
C5645 C5641 1.408 . S
C5645 C5644 1.404 . S
C5645 H5657 0.930 . S
C5646 C5642 1.524 . S
C5646 H5658 0.956 . S
C5646 H5659 0.961 . S
C5646 H5660 0.961 . S
C5647 C5644 1.539 . S
C5647 H5661 0.958 . S
C5647 H5662 0.961 . S
C5647 H5663 0.960 . S
H5648 C5632 0.931 . S
H5649 C5637 0.929 . S
H5650 C5638 0.960 . S
H5651 C5638 0.962 . S
H5652 C5638 0.960 . S
H5653 C5639 0.961 . S
H5654 C5639 0.961 . S
H5655 C5639 0.961 . S
H5656 C5640 0.931 . S
H5657 C5645 0.930 . S
H5658 C5646 0.956 . S
H5659 C5646 0.961 . S
H5660 C5646 0.961 . S
H5661 C5647 0.958 . S
H5662 C5647 0.961 . S
H5663 C5647 0.960 . S
C5664 C5665 1.391 . S
C5664 C5666 1.394 . S
C5664 H5680 0.931 . S
C5665 C5664 1.391 . S
C5665 C5669 1.376 . S
C5666 C5664 1.394 . S
C5666 C5667 1.369 . S
C5666 C5670 1.531 . S
C5667 C5666 1.369 . S
C5667 C5668 1.410 . S
C5667 C5675 1.503 . S
C5668 C5667 1.410 . S
C5668 C5669 1.392 . S
C5668 C5671 1.511 . S
C5669 C5665 1.376 . S
C5669 C5668 1.392 . S
C5669 H5681 0.929 . S
C5670 C5666 1.531 . S
C5670 H5682 0.960 . S
C5670 H5683 0.962 . S
C5670 H5684 0.960 . S
C5671 C5668 1.511 . S
C5671 H5685 0.961 . S
C5671 H5686 0.961 . S
C5671 H5687 0.961 . S
C5672 C5673 1.370 . S
C5672 C5674 1.363 . S
C5672 H5688 0.931 . S
C5673 C5672 1.370 . S
C5673 C5677 1.408 . S
C5674 C5672 1.363 . S
C5674 C5675 1.370 . S
C5674 C5678 1.524 . S
C5675 C5667 1.503 . S
C5675 C5674 1.370 . S
C5675 C5676 1.403 . S
C5676 C5675 1.403 . S
C5676 C5677 1.404 . S
C5676 C5679 1.539 . S
C5677 C5673 1.408 . S
C5677 C5676 1.404 . S
C5677 H5689 0.930 . S
C5678 C5674 1.524 . S
C5678 H5690 0.956 . S
C5678 H5691 0.961 . S
C5678 H5692 0.961 . S
C5679 C5676 1.539 . S
C5679 H5693 0.958 . S
C5679 H5694 0.961 . S
C5679 H5695 0.960 . S
H5680 C5664 0.931 . S
H5681 C5669 0.929 . S
H5682 C5670 0.960 . S
H5683 C5670 0.962 . S
H5684 C5670 0.960 . S
H5685 C5671 0.961 . S
H5686 C5671 0.961 . S
H5687 C5671 0.961 . S
H5688 C5672 0.931 . S
H5689 C5677 0.930 . S
H5690 C5678 0.956 . S
H5691 C5678 0.961 . S
H5692 C5678 0.961 . S
H5693 C5679 0.958 . S
H5694 C5679 0.961 . S
H5695 C5679 0.960 . S
C5696 C5697 1.391 . S
C5696 C5698 1.394 . S
C5696 H5712 0.931 . S
C5697 C5696 1.391 . S
C5697 C5701 1.376 . S
C5698 C5696 1.394 . S
C5698 C5699 1.369 . S
C5698 C5702 1.531 . S
C5699 C5698 1.369 . S
C5699 C5700 1.410 . S
C5699 C5707 1.503 . S
C5700 C5699 1.410 . S
C5700 C5701 1.392 . S
C5700 C5703 1.511 . S
C5701 C5697 1.376 . S
C5701 C5700 1.392 . S
C5701 H5713 0.929 . S
C5702 C5698 1.531 . S
C5702 H5714 0.960 . S
C5702 H5715 0.962 . S
C5702 H5716 0.960 . S
C5703 C5700 1.511 . S
C5703 H5717 0.961 . S
C5703 H5718 0.961 . S
C5703 H5719 0.961 . S
C5704 C5705 1.370 . S
C5704 C5706 1.363 . S
C5704 H5720 0.931 . S
C5705 C5704 1.370 . S
C5705 C5709 1.408 . S
C5706 C5704 1.363 . S
C5706 C5707 1.370 . S
C5706 C5710 1.524 . S
C5707 C5699 1.503 . S
C5707 C5706 1.370 . S
C5707 C5708 1.403 . S
C5708 C5707 1.403 . S
C5708 C5709 1.404 . S
C5708 C5711 1.539 . S
C5709 C5705 1.408 . S
C5709 C5708 1.404 . S
C5709 H5721 0.930 . S
C5710 C5706 1.524 . S
C5710 H5722 0.956 . S
C5710 H5723 0.961 . S
C5710 H5724 0.961 . S
C5711 C5708 1.539 . S
C5711 H5725 0.958 . S
C5711 H5726 0.961 . S
C5711 H5727 0.960 . S
H5712 C5696 0.931 . S
H5713 C5701 0.929 . S
H5714 C5702 0.960 . S
H5715 C5702 0.962 . S
H5716 C5702 0.960 . S
H5717 C5703 0.961 . S
H5718 C5703 0.961 . S
H5719 C5703 0.961 . S
H5720 C5704 0.931 . S
H5721 C5709 0.930 . S
H5722 C5710 0.956 . S
H5723 C5710 0.961 . S
H5724 C5710 0.961 . S
H5725 C5711 0.958 . S
H5726 C5711 0.961 . S
H5727 C5711 0.960 . S
C5728 C5729 1.391 . S
C5728 C5730 1.394 . S
C5728 H5744 0.931 . S
C5729 C5728 1.391 . S
C5729 C5733 1.376 . S
C5730 C5728 1.394 . S
C5730 C5731 1.369 . S
C5730 C5734 1.531 . S
C5731 C5730 1.369 . S
C5731 C5732 1.410 . S
C5731 C5739 1.503 . S
C5732 C5731 1.410 . S
C5732 C5733 1.392 . S
C5732 C5735 1.511 . S
C5733 C5729 1.376 . S
C5733 C5732 1.392 . S
C5733 H5745 0.929 . S
C5734 C5730 1.531 . S
C5734 H5746 0.960 . S
C5734 H5747 0.962 . S
C5734 H5748 0.960 . S
C5735 C5732 1.511 . S
C5735 H5749 0.961 . S
C5735 H5750 0.961 . S
C5735 H5751 0.961 . S
C5736 C5737 1.370 . S
C5736 C5738 1.363 . S
C5736 H5752 0.931 . S
C5737 C5736 1.370 . S
C5737 C5741 1.408 . S
C5738 C5736 1.363 . S
C5738 C5739 1.370 . S
C5738 C5742 1.524 . S
C5739 C5731 1.503 . S
C5739 C5738 1.370 . S
C5739 C5740 1.403 . S
C5740 C5739 1.403 . S
C5740 C5741 1.404 . S
C5740 C5743 1.539 . S
C5741 C5737 1.408 . S
C5741 C5740 1.404 . S
C5741 H5753 0.930 . S
C5742 C5738 1.524 . S
C5742 H5754 0.956 . S
C5742 H5755 0.961 . S
C5742 H5756 0.961 . S
C5743 C5740 1.539 . S
C5743 H5757 0.958 . S
C5743 H5758 0.961 . S
C5743 H5759 0.960 . S
H5744 C5728 0.931 . S
H5745 C5733 0.929 . S
H5746 C5734 0.960 . S
H5747 C5734 0.962 . S
H5748 C5734 0.960 . S
H5749 C5735 0.961 . S
H5750 C5735 0.961 . S
H5751 C5735 0.961 . S
H5752 C5736 0.931 . S
H5753 C5741 0.930 . S
H5754 C5742 0.956 . S
H5755 C5742 0.961 . S
H5756 C5742 0.961 . S
H5757 C5743 0.958 . S
H5758 C5743 0.961 . S
H5759 C5743 0.960 . S
C5760 C5761 1.391 . S
C5760 C5762 1.394 . S
C5760 H5776 0.931 . S
C5761 C5760 1.391 . S
C5761 C5765 1.376 . S
C5762 C5760 1.394 . S
C5762 C5763 1.369 . S
C5762 C5766 1.531 . S
C5763 C5762 1.369 . S
C5763 C5764 1.410 . S
C5763 C5771 1.503 . S
C5764 C5763 1.410 . S
C5764 C5765 1.392 . S
C5764 C5767 1.511 . S
C5765 C5761 1.376 . S
C5765 C5764 1.392 . S
C5765 H5777 0.929 . S
C5766 C5762 1.531 . S
C5766 H5778 0.960 . S
C5766 H5779 0.962 . S
C5766 H5780 0.960 . S
C5767 C5764 1.511 . S
C5767 H5781 0.961 . S
C5767 H5782 0.961 . S
C5767 H5783 0.961 . S
C5768 C5769 1.370 . S
C5768 C5770 1.363 . S
C5768 H5784 0.931 . S
C5769 C5768 1.370 . S
C5769 C5773 1.408 . S
C5770 C5768 1.363 . S
C5770 C5771 1.370 . S
C5770 C5774 1.524 . S
C5771 C5763 1.503 . S
C5771 C5770 1.370 . S
C5771 C5772 1.403 . S
C5772 C5771 1.403 . S
C5772 C5773 1.404 . S
C5772 C5775 1.539 . S
C5773 C5769 1.408 . S
C5773 C5772 1.404 . S
C5773 H5785 0.930 . S
C5774 C5770 1.524 . S
C5774 H5786 0.956 . S
C5774 H5787 0.961 . S
C5774 H5788 0.961 . S
C5775 C5772 1.539 . S
C5775 H5789 0.958 . S
C5775 H5790 0.961 . S
C5775 H5791 0.960 . S
H5776 C5760 0.931 . S
H5777 C5765 0.929 . S
H5778 C5766 0.960 . S
H5779 C5766 0.962 . S
H5780 C5766 0.960 . S
H5781 C5767 0.961 . S
H5782 C5767 0.961 . S
H5783 C5767 0.961 . S
H5784 C5768 0.931 . S
H5785 C5773 0.930 . S
H5786 C5774 0.956 . S
H5787 C5774 0.961 . S
H5788 C5774 0.961 . S
H5789 C5775 0.958 . S
H5790 C5775 0.961 . S
H5791 C5775 0.960 . S
C5792 C5793 1.391 . S
C5792 C5794 1.394 . S
C5792 H5808 0.931 . S
C5793 C5792 1.391 . S
C5793 C5797 1.376 . S
C5794 C5792 1.394 . S
C5794 C5795 1.369 . S
C5794 C5798 1.531 . S
C5795 C5794 1.369 . S
C5795 C5796 1.410 . S
C5795 C5803 1.503 . S
C5796 C5795 1.410 . S
C5796 C5797 1.392 . S
C5796 C5799 1.511 . S
C5797 C5793 1.376 . S
C5797 C5796 1.392 . S
C5797 H5809 0.929 . S
C5798 C5794 1.531 . S
C5798 H5810 0.960 . S
C5798 H5811 0.962 . S
C5798 H5812 0.960 . S
C5799 C5796 1.511 . S
C5799 H5813 0.961 . S
C5799 H5814 0.961 . S
C5799 H5815 0.961 . S
C5800 C5801 1.370 . S
C5800 C5802 1.363 . S
C5800 H5816 0.931 . S
C5801 C5800 1.370 . S
C5801 C5805 1.408 . S
C5802 C5800 1.363 . S
C5802 C5803 1.370 . S
C5802 C5806 1.524 . S
C5803 C5795 1.503 . S
C5803 C5802 1.370 . S
C5803 C5804 1.403 . S
C5804 C5803 1.403 . S
C5804 C5805 1.404 . S
C5804 C5807 1.539 . S
C5805 C5801 1.408 . S
C5805 C5804 1.404 . S
C5805 H5817 0.930 . S
C5806 C5802 1.524 . S
C5806 H5818 0.956 . S
C5806 H5819 0.961 . S
C5806 H5820 0.961 . S
C5807 C5804 1.539 . S
C5807 H5821 0.958 . S
C5807 H5822 0.961 . S
C5807 H5823 0.960 . S
H5808 C5792 0.931 . S
H5809 C5797 0.929 . S
H5810 C5798 0.960 . S
H5811 C5798 0.962 . S
H5812 C5798 0.960 . S
H5813 C5799 0.961 . S
H5814 C5799 0.961 . S
H5815 C5799 0.961 . S
H5816 C5800 0.931 . S
H5817 C5805 0.930 . S
H5818 C5806 0.956 . S
H5819 C5806 0.961 . S
H5820 C5806 0.961 . S
H5821 C5807 0.958 . S
H5822 C5807 0.961 . S
H5823 C5807 0.960 . S
C5824 C5825 1.391 . S
C5824 C5826 1.394 . S
C5824 H5840 0.931 . S
C5825 C5824 1.391 . S
C5825 C5829 1.376 . S
C5826 C5824 1.394 . S
C5826 C5827 1.369 . S
C5826 C5830 1.531 . S
C5827 C5826 1.369 . S
C5827 C5828 1.410 . S
C5827 C5835 1.503 . S
C5828 C5827 1.410 . S
C5828 C5829 1.392 . S
C5828 C5831 1.511 . S
C5829 C5825 1.376 . S
C5829 C5828 1.392 . S
C5829 H5841 0.929 . S
C5830 C5826 1.531 . S
C5830 H5842 0.960 . S
C5830 H5843 0.962 . S
C5830 H5844 0.960 . S
C5831 C5828 1.511 . S
C5831 H5845 0.961 . S
C5831 H5846 0.961 . S
C5831 H5847 0.961 . S
C5832 C5833 1.370 . S
C5832 C5834 1.363 . S
C5832 H5848 0.931 . S
C5833 C5832 1.370 . S
C5833 C5837 1.408 . S
C5834 C5832 1.363 . S
C5834 C5835 1.370 . S
C5834 C5838 1.524 . S
C5835 C5827 1.503 . S
C5835 C5834 1.370 . S
C5835 C5836 1.403 . S
C5836 C5835 1.403 . S
C5836 C5837 1.404 . S
C5836 C5839 1.539 . S
C5837 C5833 1.408 . S
C5837 C5836 1.404 . S
C5837 H5849 0.930 . S
C5838 C5834 1.524 . S
C5838 H5850 0.956 . S
C5838 H5851 0.961 . S
C5838 H5852 0.961 . S
C5839 C5836 1.539 . S
C5839 H5853 0.958 . S
C5839 H5854 0.961 . S
C5839 H5855 0.960 . S
H5840 C5824 0.931 . S
H5841 C5829 0.929 . S
H5842 C5830 0.960 . S
H5843 C5830 0.962 . S
H5844 C5830 0.960 . S
H5845 C5831 0.961 . S
H5846 C5831 0.961 . S
H5847 C5831 0.961 . S
H5848 C5832 0.931 . S
H5849 C5837 0.930 . S
H5850 C5838 0.956 . S
H5851 C5838 0.961 . S
H5852 C5838 0.961 . S
H5853 C5839 0.958 . S
H5854 C5839 0.961 . S
H5855 C5839 0.960 . S
C5856 C5857 1.391 . S
C5856 C5858 1.394 . S
C5856 H5872 0.931 . S
C5857 C5856 1.391 . S
C5857 C5861 1.376 . S
C5858 C5856 1.394 . S
C5858 C5859 1.369 . S
C5858 C5862 1.531 . S
C5859 C5858 1.369 . S
C5859 C5860 1.410 . S
C5859 C5867 1.503 . S
C5860 C5859 1.410 . S
C5860 C5861 1.392 . S
C5860 C5863 1.511 . S
C5861 C5857 1.376 . S
C5861 C5860 1.392 . S
C5861 H5873 0.929 . S
C5862 C5858 1.531 . S
C5862 H5874 0.960 . S
C5862 H5875 0.962 . S
C5862 H5876 0.960 . S
C5863 C5860 1.511 . S
C5863 H5877 0.961 . S
C5863 H5878 0.961 . S
C5863 H5879 0.961 . S
C5864 C5865 1.370 . S
C5864 C5866 1.363 . S
C5864 H5880 0.931 . S
C5865 C5864 1.370 . S
C5865 C5869 1.408 . S
C5866 C5864 1.363 . S
C5866 C5867 1.370 . S
C5866 C5870 1.524 . S
C5867 C5859 1.503 . S
C5867 C5866 1.370 . S
C5867 C5868 1.403 . S
C5868 C5867 1.403 . S
C5868 C5869 1.404 . S
C5868 C5871 1.539 . S
C5869 C5865 1.408 . S
C5869 C5868 1.404 . S
C5869 H5881 0.930 . S
C5870 C5866 1.524 . S
C5870 H5882 0.956 . S
C5870 H5883 0.961 . S
C5870 H5884 0.961 . S
C5871 C5868 1.539 . S
C5871 H5885 0.958 . S
C5871 H5886 0.961 . S
C5871 H5887 0.960 . S
H5872 C5856 0.931 . S
H5873 C5861 0.929 . S
H5874 C5862 0.960 . S
H5875 C5862 0.962 . S
H5876 C5862 0.960 . S
H5877 C5863 0.961 . S
H5878 C5863 0.961 . S
H5879 C5863 0.961 . S
H5880 C5864 0.931 . S
H5881 C5869 0.930 . S
H5882 C5870 0.956 . S
H5883 C5870 0.961 . S
H5884 C5870 0.961 . S
H5885 C5871 0.958 . S
H5886 C5871 0.961 . S
H5887 C5871 0.960 . S
C5888 C5889 1.391 . S
C5888 C5890 1.394 . S
C5888 H5904 0.931 . S
C5889 C5888 1.391 . S
C5889 C5893 1.376 . S
C5890 C5888 1.394 . S
C5890 C5891 1.369 . S
C5890 C5894 1.531 . S
C5891 C5890 1.369 . S
C5891 C5892 1.410 . S
C5891 C5899 1.503 . S
C5892 C5891 1.410 . S
C5892 C5893 1.392 . S
C5892 C5895 1.511 . S
C5893 C5889 1.376 . S
C5893 C5892 1.392 . S
C5893 H5905 0.929 . S
C5894 C5890 1.531 . S
C5894 H5906 0.960 . S
C5894 H5907 0.962 . S
C5894 H5908 0.960 . S
C5895 C5892 1.511 . S
C5895 H5909 0.961 . S
C5895 H5910 0.961 . S
C5895 H5911 0.961 . S
C5896 C5897 1.370 . S
C5896 C5898 1.363 . S
C5896 H5912 0.931 . S
C5897 C5896 1.370 . S
C5897 C5901 1.408 . S
C5898 C5896 1.363 . S
C5898 C5899 1.370 . S
C5898 C5902 1.524 . S
C5899 C5891 1.503 . S
C5899 C5898 1.370 . S
C5899 C5900 1.403 . S
C5900 C5899 1.403 . S
C5900 C5901 1.404 . S
C5900 C5903 1.539 . S
C5901 C5897 1.408 . S
C5901 C5900 1.404 . S
C5901 H5913 0.930 . S
C5902 C5898 1.524 . S
C5902 H5914 0.956 . S
C5902 H5915 0.961 . S
C5902 H5916 0.961 . S
C5903 C5900 1.539 . S
C5903 H5917 0.958 . S
C5903 H5918 0.961 . S
C5903 H5919 0.960 . S
H5904 C5888 0.931 . S
H5905 C5893 0.929 . S
H5906 C5894 0.960 . S
H5907 C5894 0.962 . S
H5908 C5894 0.960 . S
H5909 C5895 0.961 . S
H5910 C5895 0.961 . S
H5911 C5895 0.961 . S
H5912 C5896 0.931 . S
H5913 C5901 0.930 . S
H5914 C5902 0.956 . S
H5915 C5902 0.961 . S
H5916 C5902 0.961 . S
H5917 C5903 0.958 . S
H5918 C5903 0.961 . S
H5919 C5903 0.960 . S
C5920 C5921 1.391 . S
C5920 C5922 1.394 . S
C5920 H5936 0.931 . S
C5921 C5920 1.391 . S
C5921 C5925 1.376 . S
C5922 C5920 1.394 . S
C5922 C5923 1.369 . S
C5922 C5926 1.531 . S
C5923 C5922 1.369 . S
C5923 C5924 1.410 . S
C5923 C5931 1.503 . S
C5924 C5923 1.410 . S
C5924 C5925 1.392 . S
C5924 C5927 1.511 . S
C5925 C5921 1.376 . S
C5925 C5924 1.392 . S
C5925 H5937 0.929 . S
C5926 C5922 1.531 . S
C5926 H5938 0.960 . S
C5926 H5939 0.962 . S
C5926 H5940 0.960 . S
C5927 C5924 1.511 . S
C5927 H5941 0.961 . S
C5927 H5942 0.961 . S
C5927 H5943 0.961 . S
C5928 C5929 1.370 . S
C5928 C5930 1.363 . S
C5928 H5944 0.931 . S
C5929 C5928 1.370 . S
C5929 C5933 1.408 . S
C5930 C5928 1.363 . S
C5930 C5931 1.370 . S
C5930 C5934 1.524 . S
C5931 C5923 1.503 . S
C5931 C5930 1.370 . S
C5931 C5932 1.403 . S
C5932 C5931 1.403 . S
C5932 C5933 1.404 . S
C5932 C5935 1.539 . S
C5933 C5929 1.408 . S
C5933 C5932 1.404 . S
C5933 H5945 0.930 . S
C5934 C5930 1.524 . S
C5934 H5946 0.956 . S
C5934 H5947 0.961 . S
C5934 H5948 0.961 . S
C5935 C5932 1.539 . S
C5935 H5949 0.958 . S
C5935 H5950 0.961 . S
C5935 H5951 0.960 . S
H5936 C5920 0.931 . S
H5937 C5925 0.929 . S
H5938 C5926 0.960 . S
H5939 C5926 0.962 . S
H5940 C5926 0.960 . S
H5941 C5927 0.961 . S
H5942 C5927 0.961 . S
H5943 C5927 0.961 . S
H5944 C5928 0.931 . S
H5945 C5933 0.930 . S
H5946 C5934 0.956 . S
H5947 C5934 0.961 . S
H5948 C5934 0.961 . S
H5949 C5935 0.958 . S
H5950 C5935 0.961 . S
H5951 C5935 0.960 . S
C5952 C5953 1.391 . S
C5952 C5954 1.394 . S
C5952 H5968 0.931 . S
C5953 C5952 1.391 . S
C5953 C5957 1.376 . S
C5954 C5952 1.394 . S
C5954 C5955 1.369 . S
C5954 C5958 1.531 . S
C5955 C5954 1.369 . S
C5955 C5956 1.410 . S
C5955 C5963 1.503 . S
C5956 C5955 1.410 . S
C5956 C5957 1.392 . S
C5956 C5959 1.511 . S
C5957 C5953 1.376 . S
C5957 C5956 1.392 . S
C5957 H5969 0.929 . S
C5958 C5954 1.531 . S
C5958 H5970 0.960 . S
C5958 H5971 0.962 . S
C5958 H5972 0.960 . S
C5959 C5956 1.511 . S
C5959 H5973 0.961 . S
C5959 H5974 0.961 . S
C5959 H5975 0.961 . S
C5960 C5961 1.370 . S
C5960 C5962 1.363 . S
C5960 H5976 0.931 . S
C5961 C5960 1.370 . S
C5961 C5965 1.408 . S
C5962 C5960 1.363 . S
C5962 C5963 1.370 . S
C5962 C5966 1.524 . S
C5963 C5955 1.503 . S
C5963 C5962 1.370 . S
C5963 C5964 1.403 . S
C5964 C5963 1.403 . S
C5964 C5965 1.404 . S
C5964 C5967 1.539 . S
C5965 C5961 1.408 . S
C5965 C5964 1.404 . S
C5965 H5977 0.930 . S
C5966 C5962 1.524 . S
C5966 H5978 0.956 . S
C5966 H5979 0.961 . S
C5966 H5980 0.961 . S
C5967 C5964 1.539 . S
C5967 H5981 0.958 . S
C5967 H5982 0.961 . S
C5967 H5983 0.960 . S
H5968 C5952 0.931 . S
H5969 C5957 0.929 . S
H5970 C5958 0.960 . S
H5971 C5958 0.962 . S
H5972 C5958 0.960 . S
H5973 C5959 0.961 . S
H5974 C5959 0.961 . S
H5975 C5959 0.961 . S
H5976 C5960 0.931 . S
H5977 C5965 0.930 . S
H5978 C5966 0.956 . S
H5979 C5966 0.961 . S
H5980 C5966 0.961 . S
H5981 C5967 0.958 . S
H5982 C5967 0.961 . S
H5983 C5967 0.960 . S
C5984 C5985 1.391 . S
C5984 C5986 1.394 . S
C5984 H6000 0.931 . S
C5985 C5984 1.391 . S
C5985 C5989 1.376 . S
C5986 C5984 1.394 . S
C5986 C5987 1.369 . S
C5986 C5990 1.531 . S
C5987 C5986 1.369 . S
C5987 C5988 1.410 . S
C5987 C5995 1.503 . S
C5988 C5987 1.410 . S
C5988 C5989 1.392 . S
C5988 C5991 1.511 . S
C5989 C5985 1.376 . S
C5989 C5988 1.392 . S
C5989 H6001 0.929 . S
C5990 C5986 1.531 . S
C5990 H6002 0.960 . S
C5990 H6003 0.962 . S
C5990 H6004 0.960 . S
C5991 C5988 1.511 . S
C5991 H6005 0.961 . S
C5991 H6006 0.961 . S
C5991 H6007 0.961 . S
C5992 C5993 1.370 . S
C5992 C5994 1.363 . S
C5992 H6008 0.931 . S
C5993 C5992 1.370 . S
C5993 C5997 1.408 . S
C5994 C5992 1.363 . S
C5994 C5995 1.370 . S
C5994 C5998 1.524 . S
C5995 C5987 1.503 . S
C5995 C5994 1.370 . S
C5995 C5996 1.403 . S
C5996 C5995 1.403 . S
C5996 C5997 1.404 . S
C5996 C5999 1.539 . S
C5997 C5993 1.408 . S
C5997 C5996 1.404 . S
C5997 H6009 0.930 . S
C5998 C5994 1.524 . S
C5998 H6010 0.956 . S
C5998 H6011 0.961 . S
C5998 H6012 0.961 . S
C5999 C5996 1.539 . S
C5999 H6013 0.958 . S
C5999 H6014 0.961 . S
C5999 H6015 0.960 . S
H6000 C5984 0.931 . S
H6001 C5989 0.929 . S
H6002 C5990 0.960 . S
H6003 C5990 0.962 . S
H6004 C5990 0.960 . S
H6005 C5991 0.961 . S
H6006 C5991 0.961 . S
H6007 C5991 0.961 . S
H6008 C5992 0.931 . S
H6009 C5997 0.930 . S
H6010 C5998 0.956 . S
H6011 C5998 0.961 . S
H6012 C5998 0.961 . S
H6013 C5999 0.958 . S
H6014 C5999 0.961 . S
H6015 C5999 0.960 . S
C6016 C6017 1.391 . S
C6016 C6018 1.394 . S
C6016 H6032 0.931 . S
C6017 C6016 1.391 . S
C6017 C6021 1.376 . S
C6018 C6016 1.394 . S
C6018 C6019 1.369 . S
C6018 C6022 1.531 . S
C6019 C6018 1.369 . S
C6019 C6020 1.410 . S
C6019 C6027 1.503 . S
C6020 C6019 1.410 . S
C6020 C6021 1.392 . S
C6020 C6023 1.511 . S
C6021 C6017 1.376 . S
C6021 C6020 1.392 . S
C6021 H6033 0.929 . S
C6022 C6018 1.531 . S
C6022 H6034 0.960 . S
C6022 H6035 0.962 . S
C6022 H6036 0.960 . S
C6023 C6020 1.511 . S
C6023 H6037 0.961 . S
C6023 H6038 0.961 . S
C6023 H6039 0.961 . S
C6024 C6025 1.370 . S
C6024 C6026 1.363 . S
C6024 H6040 0.931 . S
C6025 C6024 1.370 . S
C6025 C6029 1.408 . S
C6026 C6024 1.363 . S
C6026 C6027 1.370 . S
C6026 C6030 1.524 . S
C6027 C6019 1.503 . S
C6027 C6026 1.370 . S
C6027 C6028 1.403 . S
C6028 C6027 1.403 . S
C6028 C6029 1.404 . S
C6028 C6031 1.539 . S
C6029 C6025 1.408 . S
C6029 C6028 1.404 . S
C6029 H6041 0.930 . S
C6030 C6026 1.524 . S
C6030 H6042 0.956 . S
C6030 H6043 0.961 . S
C6030 H6044 0.961 . S
C6031 C6028 1.539 . S
C6031 H6045 0.958 . S
C6031 H6046 0.961 . S
C6031 H6047 0.960 . S
H6032 C6016 0.931 . S
H6033 C6021 0.929 . S
H6034 C6022 0.960 . S
H6035 C6022 0.962 . S
H6036 C6022 0.960 . S
H6037 C6023 0.961 . S
H6038 C6023 0.961 . S
H6039 C6023 0.961 . S
H6040 C6024 0.931 . S
H6041 C6029 0.930 . S
H6042 C6030 0.956 . S
H6043 C6030 0.961 . S
H6044 C6030 0.961 . S
H6045 C6031 0.958 . S
H6046 C6031 0.961 . S
H6047 C6031 0.960 . S
C6048 C6049 1.391 . S
C6048 C6050 1.394 . S
C6048 H6064 0.931 . S
C6049 C6048 1.391 . S
C6049 C6053 1.376 . S
C6050 C6048 1.394 . S
C6050 C6051 1.369 . S
C6050 C6054 1.531 . S
C6051 C6050 1.369 . S
C6051 C6052 1.410 . S
C6051 C6059 1.503 . S
C6052 C6051 1.410 . S
C6052 C6053 1.392 . S
C6052 C6055 1.511 . S
C6053 C6049 1.376 . S
C6053 C6052 1.392 . S
C6053 H6065 0.929 . S
C6054 C6050 1.531 . S
C6054 H6066 0.960 . S
C6054 H6067 0.962 . S
C6054 H6068 0.960 . S
C6055 C6052 1.511 . S
C6055 H6069 0.961 . S
C6055 H6070 0.961 . S
C6055 H6071 0.961 . S
C6056 C6057 1.370 . S
C6056 C6058 1.363 . S
C6056 H6072 0.931 . S
C6057 C6056 1.370 . S
C6057 C6061 1.408 . S
C6058 C6056 1.363 . S
C6058 C6059 1.370 . S
C6058 C6062 1.524 . S
C6059 C6051 1.503 . S
C6059 C6058 1.370 . S
C6059 C6060 1.403 . S
C6060 C6059 1.403 . S
C6060 C6061 1.404 . S
C6060 C6063 1.539 . S
C6061 C6057 1.408 . S
C6061 C6060 1.404 . S
C6061 H6073 0.930 . S
C6062 C6058 1.524 . S
C6062 H6074 0.956 . S
C6062 H6075 0.961 . S
C6062 H6076 0.961 . S
C6063 C6060 1.539 . S
C6063 H6077 0.958 . S
C6063 H6078 0.961 . S
C6063 H6079 0.960 . S
H6064 C6048 0.931 . S
H6065 C6053 0.929 . S
H6066 C6054 0.960 . S
H6067 C6054 0.962 . S
H6068 C6054 0.960 . S
H6069 C6055 0.961 . S
H6070 C6055 0.961 . S
H6071 C6055 0.961 . S
H6072 C6056 0.931 . S
H6073 C6061 0.930 . S
H6074 C6062 0.956 . S
H6075 C6062 0.961 . S
H6076 C6062 0.961 . S
H6077 C6063 0.958 . S
H6078 C6063 0.961 . S
H6079 C6063 0.960 . S
C6080 C6081 1.391 . S
C6080 C6082 1.394 . S
C6080 H6096 0.931 . S
C6081 C6080 1.391 . S
C6081 C6085 1.376 . S
C6082 C6080 1.394 . S
C6082 C6083 1.369 . S
C6082 C6086 1.531 . S
C6083 C6082 1.369 . S
C6083 C6084 1.410 . S
C6083 C6091 1.503 . S
C6084 C6083 1.410 . S
C6084 C6085 1.392 . S
C6084 C6087 1.511 . S
C6085 C6081 1.376 . S
C6085 C6084 1.392 . S
C6085 H6097 0.929 . S
C6086 C6082 1.531 . S
C6086 H6098 0.960 . S
C6086 H6099 0.962 . S
C6086 H6100 0.960 . S
C6087 C6084 1.511 . S
C6087 H6101 0.961 . S
C6087 H6102 0.961 . S
C6087 H6103 0.961 . S
C6088 C6089 1.370 . S
C6088 C6090 1.363 . S
C6088 H6104 0.931 . S
C6089 C6088 1.370 . S
C6089 C6093 1.408 . S
C6090 C6088 1.363 . S
C6090 C6091 1.370 . S
C6090 C6094 1.524 . S
C6091 C6083 1.503 . S
C6091 C6090 1.370 . S
C6091 C6092 1.403 . S
C6092 C6091 1.403 . S
C6092 C6093 1.404 . S
C6092 C6095 1.539 . S
C6093 C6089 1.408 . S
C6093 C6092 1.404 . S
C6093 H6105 0.930 . S
C6094 C6090 1.524 . S
C6094 H6106 0.956 . S
C6094 H6107 0.961 . S
C6094 H6108 0.961 . S
C6095 C6092 1.539 . S
C6095 H6109 0.958 . S
C6095 H6110 0.961 . S
C6095 H6111 0.960 . S
H6096 C6080 0.931 . S
H6097 C6085 0.929 . S
H6098 C6086 0.960 . S
H6099 C6086 0.962 . S
H6100 C6086 0.960 . S
H6101 C6087 0.961 . S
H6102 C6087 0.961 . S
H6103 C6087 0.961 . S
H6104 C6088 0.931 . S
H6105 C6093 0.930 . S
H6106 C6094 0.956 . S
H6107 C6094 0.961 . S
H6108 C6094 0.961 . S
H6109 C6095 0.958 . S
H6110 C6095 0.961 . S
H6111 C6095 0.960 . S
C6112 C6113 1.391 . S
C6112 C6114 1.394 . S
C6112 H6128 0.931 . S
C6113 C6112 1.391 . S
C6113 C6117 1.376 . S
C6114 C6112 1.394 . S
C6114 C6115 1.369 . S
C6114 C6118 1.531 . S
C6115 C6114 1.369 . S
C6115 C6116 1.410 . S
C6115 C6123 1.503 . S
C6116 C6115 1.410 . S
C6116 C6117 1.392 . S
C6116 C6119 1.511 . S
C6117 C6113 1.376 . S
C6117 C6116 1.392 . S
C6117 H6129 0.929 . S
C6118 C6114 1.531 . S
C6118 H6130 0.960 . S
C6118 H6131 0.962 . S
C6118 H6132 0.960 . S
C6119 C6116 1.511 . S
C6119 H6133 0.961 . S
C6119 H6134 0.961 . S
C6119 H6135 0.961 . S
C6120 C6121 1.370 . S
C6120 C6122 1.363 . S
C6120 H6136 0.931 . S
C6121 C6120 1.370 . S
C6121 C6125 1.408 . S
C6122 C6120 1.363 . S
C6122 C6123 1.370 . S
C6122 C6126 1.524 . S
C6123 C6115 1.503 . S
C6123 C6122 1.370 . S
C6123 C6124 1.403 . S
C6124 C6123 1.403 . S
C6124 C6125 1.404 . S
C6124 C6127 1.539 . S
C6125 C6121 1.408 . S
C6125 C6124 1.404 . S
C6125 H6137 0.930 . S
C6126 C6122 1.524 . S
C6126 H6138 0.956 . S
C6126 H6139 0.961 . S
C6126 H6140 0.961 . S
C6127 C6124 1.539 . S
C6127 H6141 0.958 . S
C6127 H6142 0.961 . S
C6127 H6143 0.960 . S
H6128 C6112 0.931 . S
H6129 C6117 0.929 . S
H6130 C6118 0.960 . S
H6131 C6118 0.962 . S
H6132 C6118 0.960 . S
H6133 C6119 0.961 . S
H6134 C6119 0.961 . S
H6135 C6119 0.961 . S
H6136 C6120 0.931 . S
H6137 C6125 0.930 . S
H6138 C6126 0.956 . S
H6139 C6126 0.961 . S
H6140 C6126 0.961 . S
H6141 C6127 0.958 . S
H6142 C6127 0.961 . S
H6143 C6127 0.960 . S
C6144 C6145 1.391 . S
C6144 C6146 1.394 . S
C6144 H6160 0.931 . S
C6145 C6144 1.391 . S
C6145 C6149 1.376 . S
C6146 C6144 1.394 . S
C6146 C6147 1.369 . S
C6146 C6150 1.531 . S
C6147 C6146 1.369 . S
C6147 C6148 1.410 . S
C6147 C6155 1.503 . S
C6148 C6147 1.410 . S
C6148 C6149 1.392 . S
C6148 C6151 1.511 . S
C6149 C6145 1.376 . S
C6149 C6148 1.392 . S
C6149 H6161 0.929 . S
C6150 C6146 1.531 . S
C6150 H6162 0.960 . S
C6150 H6163 0.962 . S
C6150 H6164 0.960 . S
C6151 C6148 1.511 . S
C6151 H6165 0.961 . S
C6151 H6166 0.961 . S
C6151 H6167 0.961 . S
C6152 C6153 1.370 . S
C6152 C6154 1.363 . S
C6152 H6168 0.931 . S
C6153 C6152 1.370 . S
C6153 C6157 1.408 . S
C6154 C6152 1.363 . S
C6154 C6155 1.370 . S
C6154 C6158 1.524 . S
C6155 C6147 1.503 . S
C6155 C6154 1.370 . S
C6155 C6156 1.403 . S
C6156 C6155 1.403 . S
C6156 C6157 1.404 . S
C6156 C6159 1.539 . S
C6157 C6153 1.408 . S
C6157 C6156 1.404 . S
C6157 H6169 0.930 . S
C6158 C6154 1.524 . S
C6158 H6170 0.956 . S
C6158 H6171 0.961 . S
C6158 H6172 0.961 . S
C6159 C6156 1.539 . S
C6159 H6173 0.958 . S
C6159 H6174 0.961 . S
C6159 H6175 0.960 . S
H6160 C6144 0.931 . S
H6161 C6149 0.929 . S
H6162 C6150 0.960 . S
H6163 C6150 0.962 . S
H6164 C6150 0.960 . S
H6165 C6151 0.961 . S
H6166 C6151 0.961 . S
H6167 C6151 0.961 . S
H6168 C6152 0.931 . S
H6169 C6157 0.930 . S
H6170 C6158 0.956 . S
H6171 C6158 0.961 . S
H6172 C6158 0.961 . S
H6173 C6159 0.958 . S
H6174 C6159 0.961 . S
H6175 C6159 0.960 . S
C6176 C6177 1.391 . S
C6176 C6178 1.394 . S
C6176 H6192 0.931 . S
C6177 C6176 1.391 . S
C6177 C6181 1.376 . S
C6178 C6176 1.394 . S
C6178 C6179 1.369 . S
C6178 C6182 1.531 . S
C6179 C6178 1.369 . S
C6179 C6180 1.410 . S
C6179 C6187 1.503 . S
C6180 C6179 1.410 . S
C6180 C6181 1.392 . S
C6180 C6183 1.511 . S
C6181 C6177 1.376 . S
C6181 C6180 1.392 . S
C6181 H6193 0.929 . S
C6182 C6178 1.531 . S
C6182 H6194 0.960 . S
C6182 H6195 0.962 . S
C6182 H6196 0.960 . S
C6183 C6180 1.511 . S
C6183 H6197 0.961 . S
C6183 H6198 0.961 . S
C6183 H6199 0.961 . S
C6184 C6185 1.370 . S
C6184 C6186 1.363 . S
C6184 H6200 0.931 . S
C6185 C6184 1.370 . S
C6185 C6189 1.408 . S
C6186 C6184 1.363 . S
C6186 C6187 1.370 . S
C6186 C6190 1.524 . S
C6187 C6179 1.503 . S
C6187 C6186 1.370 . S
C6187 C6188 1.403 . S
C6188 C6187 1.403 . S
C6188 C6189 1.404 . S
C6188 C6191 1.539 . S
C6189 C6185 1.408 . S
C6189 C6188 1.404 . S
C6189 H6201 0.930 . S
C6190 C6186 1.524 . S
C6190 H6202 0.956 . S
C6190 H6203 0.961 . S
C6190 H6204 0.961 . S
C6191 C6188 1.539 . S
C6191 H6205 0.958 . S
C6191 H6206 0.961 . S
C6191 H6207 0.960 . S
H6192 C6176 0.931 . S
H6193 C6181 0.929 . S
H6194 C6182 0.960 . S
H6195 C6182 0.962 . S
H6196 C6182 0.960 . S
H6197 C6183 0.961 . S
H6198 C6183 0.961 . S
H6199 C6183 0.961 . S
H6200 C6184 0.931 . S
H6201 C6189 0.930 . S
H6202 C6190 0.956 . S
H6203 C6190 0.961 . S
H6204 C6190 0.961 . S
H6205 C6191 0.958 . S
H6206 C6191 0.961 . S
H6207 C6191 0.960 . S
C6208 C6209 1.391 . S
C6208 C6210 1.394 . S
C6208 H6224 0.931 . S
C6209 C6208 1.391 . S
C6209 C6213 1.376 . S
C6210 C6208 1.394 . S
C6210 C6211 1.369 . S
C6210 C6214 1.531 . S
C6211 C6210 1.369 . S
C6211 C6212 1.410 . S
C6211 C6219 1.503 . S
C6212 C6211 1.410 . S
C6212 C6213 1.392 . S
C6212 C6215 1.511 . S
C6213 C6209 1.376 . S
C6213 C6212 1.392 . S
C6213 H6225 0.929 . S
C6214 C6210 1.531 . S
C6214 H6226 0.960 . S
C6214 H6227 0.962 . S
C6214 H6228 0.960 . S
C6215 C6212 1.511 . S
C6215 H6229 0.961 . S
C6215 H6230 0.961 . S
C6215 H6231 0.961 . S
C6216 C6217 1.370 . S
C6216 C6218 1.363 . S
C6216 H6232 0.931 . S
C6217 C6216 1.370 . S
C6217 C6221 1.408 . S
C6218 C6216 1.363 . S
C6218 C6219 1.370 . S
C6218 C6222 1.524 . S
C6219 C6211 1.503 . S
C6219 C6218 1.370 . S
C6219 C6220 1.403 . S
C6220 C6219 1.403 . S
C6220 C6221 1.404 . S
C6220 C6223 1.539 . S
C6221 C6217 1.408 . S
C6221 C6220 1.404 . S
C6221 H6233 0.930 . S
C6222 C6218 1.524 . S
C6222 H6234 0.956 . S
C6222 H6235 0.961 . S
C6222 H6236 0.961 . S
C6223 C6220 1.539 . S
C6223 H6237 0.958 . S
C6223 H6238 0.961 . S
C6223 H6239 0.960 . S
H6224 C6208 0.931 . S
H6225 C6213 0.929 . S
H6226 C6214 0.960 . S
H6227 C6214 0.962 . S
H6228 C6214 0.960 . S
H6229 C6215 0.961 . S
H6230 C6215 0.961 . S
H6231 C6215 0.961 . S
H6232 C6216 0.931 . S
H6233 C6221 0.930 . S
H6234 C6222 0.956 . S
H6235 C6222 0.961 . S
H6236 C6222 0.961 . S
H6237 C6223 0.958 . S
H6238 C6223 0.961 . S
H6239 C6223 0.960 . S
C6240 C6241 1.391 . S
C6240 C6242 1.394 . S
C6240 H6256 0.931 . S
C6241 C6240 1.391 . S
C6241 C6245 1.376 . S
C6242 C6240 1.394 . S
C6242 C6243 1.369 . S
C6242 C6246 1.531 . S
C6243 C6242 1.369 . S
C6243 C6244 1.410 . S
C6243 C6251 1.503 . S
C6244 C6243 1.410 . S
C6244 C6245 1.392 . S
C6244 C6247 1.511 . S
C6245 C6241 1.376 . S
C6245 C6244 1.392 . S
C6245 H6257 0.929 . S
C6246 C6242 1.531 . S
C6246 H6258 0.960 . S
C6246 H6259 0.962 . S
C6246 H6260 0.960 . S
C6247 C6244 1.511 . S
C6247 H6261 0.961 . S
C6247 H6262 0.961 . S
C6247 H6263 0.961 . S
C6248 C6249 1.370 . S
C6248 C6250 1.363 . S
C6248 H6264 0.931 . S
C6249 C6248 1.370 . S
C6249 C6253 1.408 . S
C6250 C6248 1.363 . S
C6250 C6251 1.370 . S
C6250 C6254 1.524 . S
C6251 C6243 1.503 . S
C6251 C6250 1.370 . S
C6251 C6252 1.403 . S
C6252 C6251 1.403 . S
C6252 C6253 1.404 . S
C6252 C6255 1.539 . S
C6253 C6249 1.408 . S
C6253 C6252 1.404 . S
C6253 H6265 0.930 . S
C6254 C6250 1.524 . S
C6254 H6266 0.956 . S
C6254 H6267 0.961 . S
C6254 H6268 0.961 . S
C6255 C6252 1.539 . S
C6255 H6269 0.958 . S
C6255 H6270 0.961 . S
C6255 H6271 0.960 . S
H6256 C6240 0.931 . S
H6257 C6245 0.929 . S
H6258 C6246 0.960 . S
H6259 C6246 0.962 . S
H6260 C6246 0.960 . S
H6261 C6247 0.961 . S
H6262 C6247 0.961 . S
H6263 C6247 0.961 . S
H6264 C6248 0.931 . S
H6265 C6253 0.930 . S
H6266 C6254 0.956 . S
H6267 C6254 0.961 . S
H6268 C6254 0.961 . S
H6269 C6255 0.958 . S
H6270 C6255 0.961 . S
H6271 C6255 0.960 . S
C6272 C6273 1.391 . S
C6272 C6274 1.394 . S
C6272 H6288 0.931 . S
C6273 C6272 1.391 . S
C6273 C6277 1.376 . S
C6274 C6272 1.394 . S
C6274 C6275 1.369 . S
C6274 C6278 1.531 . S
C6275 C6274 1.369 . S
C6275 C6276 1.410 . S
C6275 C6283 1.503 . S
C6276 C6275 1.410 . S
C6276 C6277 1.392 . S
C6276 C6279 1.511 . S
C6277 C6273 1.376 . S
C6277 C6276 1.392 . S
C6277 H6289 0.929 . S
C6278 C6274 1.531 . S
C6278 H6290 0.960 . S
C6278 H6291 0.962 . S
C6278 H6292 0.960 . S
C6279 C6276 1.511 . S
C6279 H6293 0.961 . S
C6279 H6294 0.961 . S
C6279 H6295 0.961 . S
C6280 C6281 1.370 . S
C6280 C6282 1.363 . S
C6280 H6296 0.931 . S
C6281 C6280 1.370 . S
C6281 C6285 1.408 . S
C6282 C6280 1.363 . S
C6282 C6283 1.370 . S
C6282 C6286 1.524 . S
C6283 C6275 1.503 . S
C6283 C6282 1.370 . S
C6283 C6284 1.403 . S
C6284 C6283 1.403 . S
C6284 C6285 1.404 . S
C6284 C6287 1.539 . S
C6285 C6281 1.408 . S
C6285 C6284 1.404 . S
C6285 H6297 0.930 . S
C6286 C6282 1.524 . S
C6286 H6298 0.956 . S
C6286 H6299 0.961 . S
C6286 H6300 0.961 . S
C6287 C6284 1.539 . S
C6287 H6301 0.958 . S
C6287 H6302 0.961 . S
C6287 H6303 0.960 . S
H6288 C6272 0.931 . S
H6289 C6277 0.929 . S
H6290 C6278 0.960 . S
H6291 C6278 0.962 . S
H6292 C6278 0.960 . S
H6293 C6279 0.961 . S
H6294 C6279 0.961 . S
H6295 C6279 0.961 . S
H6296 C6280 0.931 . S
H6297 C6285 0.930 . S
H6298 C6286 0.956 . S
H6299 C6286 0.961 . S
H6300 C6286 0.961 . S
H6301 C6287 0.958 . S
H6302 C6287 0.961 . S
H6303 C6287 0.960 . S
C6304 C6305 1.391 . S
C6304 C6306 1.394 . S
C6304 H6320 0.931 . S
C6305 C6304 1.391 . S
C6305 C6309 1.376 . S
C6306 C6304 1.394 . S
C6306 C6307 1.369 . S
C6306 C6310 1.531 . S
C6307 C6306 1.369 . S
C6307 C6308 1.410 . S
C6307 C6315 1.503 . S
C6308 C6307 1.410 . S
C6308 C6309 1.392 . S
C6308 C6311 1.511 . S
C6309 C6305 1.376 . S
C6309 C6308 1.392 . S
C6309 H6321 0.929 . S
C6310 C6306 1.531 . S
C6310 H6322 0.960 . S
C6310 H6323 0.962 . S
C6310 H6324 0.960 . S
C6311 C6308 1.511 . S
C6311 H6325 0.961 . S
C6311 H6326 0.961 . S
C6311 H6327 0.961 . S
C6312 C6313 1.370 . S
C6312 C6314 1.363 . S
C6312 H6328 0.931 . S
C6313 C6312 1.370 . S
C6313 C6317 1.408 . S
C6314 C6312 1.363 . S
C6314 C6315 1.370 . S
C6314 C6318 1.524 . S
C6315 C6307 1.503 . S
C6315 C6314 1.370 . S
C6315 C6316 1.403 . S
C6316 C6315 1.403 . S
C6316 C6317 1.404 . S
C6316 C6319 1.539 . S
C6317 C6313 1.408 . S
C6317 C6316 1.404 . S
C6317 H6329 0.930 . S
C6318 C6314 1.524 . S
C6318 H6330 0.956 . S
C6318 H6331 0.961 . S
C6318 H6332 0.961 . S
C6319 C6316 1.539 . S
C6319 H6333 0.958 . S
C6319 H6334 0.961 . S
C6319 H6335 0.960 . S
H6320 C6304 0.931 . S
H6321 C6309 0.929 . S
H6322 C6310 0.960 . S
H6323 C6310 0.962 . S
H6324 C6310 0.960 . S
H6325 C6311 0.961 . S
H6326 C6311 0.961 . S
H6327 C6311 0.961 . S
H6328 C6312 0.931 . S
H6329 C6317 0.930 . S
H6330 C6318 0.956 . S
H6331 C6318 0.961 . S
H6332 C6318 0.961 . S
H6333 C6319 0.958 . S
H6334 C6319 0.961 . S
H6335 C6319 0.960 . S
C6336 C6337 1.391 . S
C6336 C6338 1.394 . S
C6336 H6352 0.931 . S
C6337 C6336 1.391 . S
C6337 C6341 1.376 . S
C6338 C6336 1.394 . S
C6338 C6339 1.369 . S
C6338 C6342 1.531 . S
C6339 C6338 1.369 . S
C6339 C6340 1.410 . S
C6339 C6347 1.503 . S
C6340 C6339 1.410 . S
C6340 C6341 1.392 . S
C6340 C6343 1.511 . S
C6341 C6337 1.376 . S
C6341 C6340 1.392 . S
C6341 H6353 0.929 . S
C6342 C6338 1.531 . S
C6342 H6354 0.960 . S
C6342 H6355 0.962 . S
C6342 H6356 0.960 . S
C6343 C6340 1.511 . S
C6343 H6357 0.961 . S
C6343 H6358 0.961 . S
C6343 H6359 0.961 . S
C6344 C6345 1.370 . S
C6344 C6346 1.363 . S
C6344 H6360 0.931 . S
C6345 C6344 1.370 . S
C6345 C6349 1.408 . S
C6346 C6344 1.363 . S
C6346 C6347 1.370 . S
C6346 C6350 1.524 . S
C6347 C6339 1.503 . S
C6347 C6346 1.370 . S
C6347 C6348 1.403 . S
C6348 C6347 1.403 . S
C6348 C6349 1.404 . S
C6348 C6351 1.539 . S
C6349 C6345 1.408 . S
C6349 C6348 1.404 . S
C6349 H6361 0.930 . S
C6350 C6346 1.524 . S
C6350 H6362 0.956 . S
C6350 H6363 0.961 . S
C6350 H6364 0.961 . S
C6351 C6348 1.539 . S
C6351 H6365 0.958 . S
C6351 H6366 0.961 . S
C6351 H6367 0.960 . S
H6352 C6336 0.931 . S
H6353 C6341 0.929 . S
H6354 C6342 0.960 . S
H6355 C6342 0.962 . S
H6356 C6342 0.960 . S
H6357 C6343 0.961 . S
H6358 C6343 0.961 . S
H6359 C6343 0.961 . S
H6360 C6344 0.931 . S
H6361 C6349 0.930 . S
H6362 C6350 0.956 . S
H6363 C6350 0.961 . S
H6364 C6350 0.961 . S
H6365 C6351 0.958 . S
H6366 C6351 0.961 . S
H6367 C6351 0.960 . S
C6368 C6369 1.391 . S
C6368 C6370 1.394 . S
C6368 H6384 0.931 . S
C6369 C6368 1.391 . S
C6369 C6373 1.376 . S
C6370 C6368 1.394 . S
C6370 C6371 1.369 . S
C6370 C6374 1.531 . S
C6371 C6370 1.369 . S
C6371 C6372 1.410 . S
C6371 C6379 1.503 . S
C6372 C6371 1.410 . S
C6372 C6373 1.392 . S
C6372 C6375 1.511 . S
C6373 C6369 1.376 . S
C6373 C6372 1.392 . S
C6373 H6385 0.929 . S
C6374 C6370 1.531 . S
C6374 H6386 0.960 . S
C6374 H6387 0.962 . S
C6374 H6388 0.960 . S
C6375 C6372 1.511 . S
C6375 H6389 0.961 . S
C6375 H6390 0.961 . S
C6375 H6391 0.961 . S
C6376 C6377 1.370 . S
C6376 C6378 1.363 . S
C6376 H6392 0.931 . S
C6377 C6376 1.370 . S
C6377 C6381 1.408 . S
C6378 C6376 1.363 . S
C6378 C6379 1.370 . S
C6378 C6382 1.524 . S
C6379 C6371 1.503 . S
C6379 C6378 1.370 . S
C6379 C6380 1.403 . S
C6380 C6379 1.403 . S
C6380 C6381 1.404 . S
C6380 C6383 1.539 . S
C6381 C6377 1.408 . S
C6381 C6380 1.404 . S
C6381 H6393 0.930 . S
C6382 C6378 1.524 . S
C6382 H6394 0.956 . S
C6382 H6395 0.961 . S
C6382 H6396 0.961 . S
C6383 C6380 1.539 . S
C6383 H6397 0.958 . S
C6383 H6398 0.961 . S
C6383 H6399 0.960 . S
H6384 C6368 0.931 . S
H6385 C6373 0.929 . S
H6386 C6374 0.960 . S
H6387 C6374 0.962 . S
H6388 C6374 0.960 . S
H6389 C6375 0.961 . S
H6390 C6375 0.961 . S
H6391 C6375 0.961 . S
H6392 C6376 0.931 . S
H6393 C6381 0.930 . S
H6394 C6382 0.956 . S
H6395 C6382 0.961 . S
H6396 C6382 0.961 . S
H6397 C6383 0.958 . S
H6398 C6383 0.961 . S
H6399 C6383 0.960 . S
C6400 C6401 1.391 . S
C6400 C6402 1.394 . S
C6400 H6416 0.931 . S
C6401 C6400 1.391 . S
C6401 C6405 1.376 . S
C6402 C6400 1.394 . S
C6402 C6403 1.369 . S
C6402 C6406 1.531 . S
C6403 C6402 1.369 . S
C6403 C6404 1.410 . S
C6403 C6411 1.503 . S
C6404 C6403 1.410 . S
C6404 C6405 1.392 . S
C6404 C6407 1.511 . S
C6405 C6401 1.376 . S
C6405 C6404 1.392 . S
C6405 H6417 0.929 . S
C6406 C6402 1.531 . S
C6406 H6418 0.960 . S
C6406 H6419 0.962 . S
C6406 H6420 0.960 . S
C6407 C6404 1.511 . S
C6407 H6421 0.961 . S
C6407 H6422 0.961 . S
C6407 H6423 0.961 . S
C6408 C6409 1.370 . S
C6408 C6410 1.363 . S
C6408 H6424 0.931 . S
C6409 C6408 1.370 . S
C6409 C6413 1.408 . S
C6410 C6408 1.363 . S
C6410 C6411 1.370 . S
C6410 C6414 1.524 . S
C6411 C6403 1.503 . S
C6411 C6410 1.370 . S
C6411 C6412 1.403 . S
C6412 C6411 1.403 . S
C6412 C6413 1.404 . S
C6412 C6415 1.539 . S
C6413 C6409 1.408 . S
C6413 C6412 1.404 . S
C6413 H6425 0.930 . S
C6414 C6410 1.524 . S
C6414 H6426 0.956 . S
C6414 H6427 0.961 . S
C6414 H6428 0.961 . S
C6415 C6412 1.539 . S
C6415 H6429 0.958 . S
C6415 H6430 0.961 . S
C6415 H6431 0.960 . S
H6416 C6400 0.931 . S
H6417 C6405 0.929 . S
H6418 C6406 0.960 . S
H6419 C6406 0.962 . S
H6420 C6406 0.960 . S
H6421 C6407 0.961 . S
H6422 C6407 0.961 . S
H6423 C6407 0.961 . S
H6424 C6408 0.931 . S
H6425 C6413 0.930 . S
H6426 C6414 0.956 . S
H6427 C6414 0.961 . S
H6428 C6414 0.961 . S
H6429 C6415 0.958 . S
H6430 C6415 0.961 . S
H6431 C6415 0.960 . S
C6432 C6433 1.391 . S
C6432 C6434 1.394 . S
C6432 H6448 0.931 . S
C6433 C6432 1.391 . S
C6433 C6437 1.376 . S
C6434 C6432 1.394 . S
C6434 C6435 1.369 . S
C6434 C6438 1.531 . S
C6435 C6434 1.369 . S
C6435 C6436 1.410 . S
C6435 C6443 1.503 . S
C6436 C6435 1.410 . S
C6436 C6437 1.392 . S
C6436 C6439 1.511 . S
C6437 C6433 1.376 . S
C6437 C6436 1.392 . S
C6437 H6449 0.929 . S
C6438 C6434 1.531 . S
C6438 H6450 0.960 . S
C6438 H6451 0.962 . S
C6438 H6452 0.960 . S
C6439 C6436 1.511 . S
C6439 H6453 0.961 . S
C6439 H6454 0.961 . S
C6439 H6455 0.961 . S
C6440 C6441 1.370 . S
C6440 C6442 1.363 . S
C6440 H6456 0.931 . S
C6441 C6440 1.370 . S
C6441 C6445 1.408 . S
C6442 C6440 1.363 . S
C6442 C6443 1.370 . S
C6442 C6446 1.524 . S
C6443 C6435 1.503 . S
C6443 C6442 1.370 . S
C6443 C6444 1.403 . S
C6444 C6443 1.403 . S
C6444 C6445 1.404 . S
C6444 C6447 1.539 . S
C6445 C6441 1.408 . S
C6445 C6444 1.404 . S
C6445 H6457 0.930 . S
C6446 C6442 1.524 . S
C6446 H6458 0.956 . S
C6446 H6459 0.961 . S
C6446 H6460 0.961 . S
C6447 C6444 1.539 . S
C6447 H6461 0.958 . S
C6447 H6462 0.961 . S
C6447 H6463 0.960 . S
H6448 C6432 0.931 . S
H6449 C6437 0.929 . S
H6450 C6438 0.960 . S
H6451 C6438 0.962 . S
H6452 C6438 0.960 . S
H6453 C6439 0.961 . S
H6454 C6439 0.961 . S
H6455 C6439 0.961 . S
H6456 C6440 0.931 . S
H6457 C6445 0.930 . S
H6458 C6446 0.956 . S
H6459 C6446 0.961 . S
H6460 C6446 0.961 . S
H6461 C6447 0.958 . S
H6462 C6447 0.961 . S
H6463 C6447 0.960 . S
C6464 C6465 1.391 . S
C6464 C6466 1.394 . S
C6464 H6480 0.931 . S
C6465 C6464 1.391 . S
C6465 C6469 1.376 . S
C6466 C6464 1.394 . S
C6466 C6467 1.369 . S
C6466 C6470 1.531 . S
C6467 C6466 1.369 . S
C6467 C6468 1.410 . S
C6467 C6475 1.503 . S
C6468 C6467 1.410 . S
C6468 C6469 1.392 . S
C6468 C6471 1.511 . S
C6469 C6465 1.376 . S
C6469 C6468 1.392 . S
C6469 H6481 0.929 . S
C6470 C6466 1.531 . S
C6470 H6482 0.960 . S
C6470 H6483 0.962 . S
C6470 H6484 0.960 . S
C6471 C6468 1.511 . S
C6471 H6485 0.961 . S
C6471 H6486 0.961 . S
C6471 H6487 0.961 . S
C6472 C6473 1.370 . S
C6472 C6474 1.363 . S
C6472 H6488 0.931 . S
C6473 C6472 1.370 . S
C6473 C6477 1.408 . S
C6474 C6472 1.363 . S
C6474 C6475 1.370 . S
C6474 C6478 1.524 . S
C6475 C6467 1.503 . S
C6475 C6474 1.370 . S
C6475 C6476 1.403 . S
C6476 C6475 1.403 . S
C6476 C6477 1.404 . S
C6476 C6479 1.539 . S
C6477 C6473 1.408 . S
C6477 C6476 1.404 . S
C6477 H6489 0.930 . S
C6478 C6474 1.524 . S
C6478 H6490 0.956 . S
C6478 H6491 0.961 . S
C6478 H6492 0.961 . S
C6479 C6476 1.539 . S
C6479 H6493 0.958 . S
C6479 H6494 0.961 . S
C6479 H6495 0.960 . S
H6480 C6464 0.931 . S
H6481 C6469 0.929 . S
H6482 C6470 0.960 . S
H6483 C6470 0.962 . S
H6484 C6470 0.960 . S
H6485 C6471 0.961 . S
H6486 C6471 0.961 . S
H6487 C6471 0.961 . S
H6488 C6472 0.931 . S
H6489 C6477 0.930 . S
H6490 C6478 0.956 . S
H6491 C6478 0.961 . S
H6492 C6478 0.961 . S
H6493 C6479 0.958 . S
H6494 C6479 0.961 . S
H6495 C6479 0.960 . S
C6496 C6497 1.391 . S
C6496 C6498 1.394 . S
C6496 H6512 0.931 . S
C6497 C6496 1.391 . S
C6497 C6501 1.376 . S
C6498 C6496 1.394 . S
C6498 C6499 1.369 . S
C6498 C6502 1.531 . S
C6499 C6498 1.369 . S
C6499 C6500 1.410 . S
C6499 C6507 1.503 . S
C6500 C6499 1.410 . S
C6500 C6501 1.392 . S
C6500 C6503 1.511 . S
C6501 C6497 1.376 . S
C6501 C6500 1.392 . S
C6501 H6513 0.929 . S
C6502 C6498 1.531 . S
C6502 H6514 0.960 . S
C6502 H6515 0.962 . S
C6502 H6516 0.960 . S
C6503 C6500 1.511 . S
C6503 H6517 0.961 . S
C6503 H6518 0.961 . S
C6503 H6519 0.961 . S
C6504 C6505 1.370 . S
C6504 C6506 1.363 . S
C6504 H6520 0.931 . S
C6505 C6504 1.370 . S
C6505 C6509 1.408 . S
C6506 C6504 1.363 . S
C6506 C6507 1.370 . S
C6506 C6510 1.524 . S
C6507 C6499 1.503 . S
C6507 C6506 1.370 . S
C6507 C6508 1.403 . S
C6508 C6507 1.403 . S
C6508 C6509 1.404 . S
C6508 C6511 1.539 . S
C6509 C6505 1.408 . S
C6509 C6508 1.404 . S
C6509 H6521 0.930 . S
C6510 C6506 1.524 . S
C6510 H6522 0.956 . S
C6510 H6523 0.961 . S
C6510 H6524 0.961 . S
C6511 C6508 1.539 . S
C6511 H6525 0.958 . S
C6511 H6526 0.961 . S
C6511 H6527 0.960 . S
H6512 C6496 0.931 . S
H6513 C6501 0.929 . S
H6514 C6502 0.960 . S
H6515 C6502 0.962 . S
H6516 C6502 0.960 . S
H6517 C6503 0.961 . S
H6518 C6503 0.961 . S
H6519 C6503 0.961 . S
H6520 C6504 0.931 . S
H6521 C6509 0.930 . S
H6522 C6510 0.956 . S
H6523 C6510 0.961 . S
H6524 C6510 0.961 . S
H6525 C6511 0.958 . S
H6526 C6511 0.961 . S
H6527 C6511 0.960 . S
C6528 C6529 1.391 . S
C6528 C6530 1.394 . S
C6528 H6544 0.931 . S
C6529 C6528 1.391 . S
C6529 C6533 1.376 . S
C6530 C6528 1.394 . S
C6530 C6531 1.369 . S
C6530 C6534 1.531 . S
C6531 C6530 1.369 . S
C6531 C6532 1.410 . S
C6531 C6539 1.503 . S
C6532 C6531 1.410 . S
C6532 C6533 1.392 . S
C6532 C6535 1.511 . S
C6533 C6529 1.376 . S
C6533 C6532 1.392 . S
C6533 H6545 0.929 . S
C6534 C6530 1.531 . S
C6534 H6546 0.960 . S
C6534 H6547 0.962 . S
C6534 H6548 0.960 . S
C6535 C6532 1.511 . S
C6535 H6549 0.961 . S
C6535 H6550 0.961 . S
C6535 H6551 0.961 . S
C6536 C6537 1.370 . S
C6536 C6538 1.363 . S
C6536 H6552 0.931 . S
C6537 C6536 1.370 . S
C6537 C6541 1.408 . S
C6538 C6536 1.363 . S
C6538 C6539 1.370 . S
C6538 C6542 1.524 . S
C6539 C6531 1.503 . S
C6539 C6538 1.370 . S
C6539 C6540 1.403 . S
C6540 C6539 1.403 . S
C6540 C6541 1.404 . S
C6540 C6543 1.539 . S
C6541 C6537 1.408 . S
C6541 C6540 1.404 . S
C6541 H6553 0.930 . S
C6542 C6538 1.524 . S
C6542 H6554 0.956 . S
C6542 H6555 0.961 . S
C6542 H6556 0.961 . S
C6543 C6540 1.539 . S
C6543 H6557 0.958 . S
C6543 H6558 0.961 . S
C6543 H6559 0.960 . S
H6544 C6528 0.931 . S
H6545 C6533 0.929 . S
H6546 C6534 0.960 . S
H6547 C6534 0.962 . S
H6548 C6534 0.960 . S
H6549 C6535 0.961 . S
H6550 C6535 0.961 . S
H6551 C6535 0.961 . S
H6552 C6536 0.931 . S
H6553 C6541 0.930 . S
H6554 C6542 0.956 . S
H6555 C6542 0.961 . S
H6556 C6542 0.961 . S
H6557 C6543 0.958 . S
H6558 C6543 0.961 . S
H6559 C6543 0.960 . S
C6560 C6561 1.391 . S
C6560 C6562 1.394 . S
C6560 H6576 0.931 . S
C6561 C6560 1.391 . S
C6561 C6565 1.376 . S
C6562 C6560 1.394 . S
C6562 C6563 1.369 . S
C6562 C6566 1.531 . S
C6563 C6562 1.369 . S
C6563 C6564 1.410 . S
C6563 C6571 1.503 . S
C6564 C6563 1.410 . S
C6564 C6565 1.392 . S
C6564 C6567 1.511 . S
C6565 C6561 1.376 . S
C6565 C6564 1.392 . S
C6565 H6577 0.929 . S
C6566 C6562 1.531 . S
C6566 H6578 0.960 . S
C6566 H6579 0.962 . S
C6566 H6580 0.960 . S
C6567 C6564 1.511 . S
C6567 H6581 0.961 . S
C6567 H6582 0.961 . S
C6567 H6583 0.961 . S
C6568 C6569 1.370 . S
C6568 C6570 1.363 . S
C6568 H6584 0.931 . S
C6569 C6568 1.370 . S
C6569 C6573 1.408 . S
C6570 C6568 1.363 . S
C6570 C6571 1.370 . S
C6570 C6574 1.524 . S
C6571 C6563 1.503 . S
C6571 C6570 1.370 . S
C6571 C6572 1.403 . S
C6572 C6571 1.403 . S
C6572 C6573 1.404 . S
C6572 C6575 1.539 . S
C6573 C6569 1.408 . S
C6573 C6572 1.404 . S
C6573 H6585 0.930 . S
C6574 C6570 1.524 . S
C6574 H6586 0.956 . S
C6574 H6587 0.961 . S
C6574 H6588 0.961 . S
C6575 C6572 1.539 . S
C6575 H6589 0.958 . S
C6575 H6590 0.961 . S
C6575 H6591 0.960 . S
H6576 C6560 0.931 . S
H6577 C6565 0.929 . S
H6578 C6566 0.960 . S
H6579 C6566 0.962 . S
H6580 C6566 0.960 . S
H6581 C6567 0.961 . S
H6582 C6567 0.961 . S
H6583 C6567 0.961 . S
H6584 C6568 0.931 . S
H6585 C6573 0.930 . S
H6586 C6574 0.956 . S
H6587 C6574 0.961 . S
H6588 C6574 0.961 . S
H6589 C6575 0.958 . S
H6590 C6575 0.961 . S
H6591 C6575 0.960 . S
C6592 C6593 1.391 . S
C6592 C6594 1.394 . S
C6592 H6608 0.931 . S
C6593 C6592 1.391 . S
C6593 C6597 1.376 . S
C6594 C6592 1.394 . S
C6594 C6595 1.369 . S
C6594 C6598 1.531 . S
C6595 C6594 1.369 . S
C6595 C6596 1.410 . S
C6595 C6603 1.503 . S
C6596 C6595 1.410 . S
C6596 C6597 1.392 . S
C6596 C6599 1.511 . S
C6597 C6593 1.376 . S
C6597 C6596 1.392 . S
C6597 H6609 0.929 . S
C6598 C6594 1.531 . S
C6598 H6610 0.960 . S
C6598 H6611 0.962 . S
C6598 H6612 0.960 . S
C6599 C6596 1.511 . S
C6599 H6613 0.961 . S
C6599 H6614 0.961 . S
C6599 H6615 0.961 . S
C6600 C6601 1.370 . S
C6600 C6602 1.363 . S
C6600 H6616 0.931 . S
C6601 C6600 1.370 . S
C6601 C6605 1.408 . S
C6602 C6600 1.363 . S
C6602 C6603 1.370 . S
C6602 C6606 1.524 . S
C6603 C6595 1.503 . S
C6603 C6602 1.370 . S
C6603 C6604 1.403 . S
C6604 C6603 1.403 . S
C6604 C6605 1.404 . S
C6604 C6607 1.539 . S
C6605 C6601 1.408 . S
C6605 C6604 1.404 . S
C6605 H6617 0.930 . S
C6606 C6602 1.524 . S
C6606 H6618 0.956 . S
C6606 H6619 0.961 . S
C6606 H6620 0.961 . S
C6607 C6604 1.539 . S
C6607 H6621 0.958 . S
C6607 H6622 0.961 . S
C6607 H6623 0.960 . S
H6608 C6592 0.931 . S
H6609 C6597 0.929 . S
H6610 C6598 0.960 . S
H6611 C6598 0.962 . S
H6612 C6598 0.960 . S
H6613 C6599 0.961 . S
H6614 C6599 0.961 . S
H6615 C6599 0.961 . S
H6616 C6600 0.931 . S
H6617 C6605 0.930 . S
H6618 C6606 0.956 . S
H6619 C6606 0.961 . S
H6620 C6606 0.961 . S
H6621 C6607 0.958 . S
H6622 C6607 0.961 . S
H6623 C6607 0.960 . S
C6624 C6625 1.391 . S
C6624 C6626 1.394 . S
C6624 H6640 0.931 . S
C6625 C6624 1.391 . S
C6625 C6629 1.376 . S
C6626 C6624 1.394 . S
C6626 C6627 1.369 . S
C6626 C6630 1.531 . S
C6627 C6626 1.369 . S
C6627 C6628 1.410 . S
C6627 C6635 1.503 . S
C6628 C6627 1.410 . S
C6628 C6629 1.392 . S
C6628 C6631 1.511 . S
C6629 C6625 1.376 . S
C6629 C6628 1.392 . S
C6629 H6641 0.929 . S
C6630 C6626 1.531 . S
C6630 H6642 0.960 . S
C6630 H6643 0.962 . S
C6630 H6644 0.960 . S
C6631 C6628 1.511 . S
C6631 H6645 0.961 . S
C6631 H6646 0.961 . S
C6631 H6647 0.961 . S
C6632 C6633 1.370 . S
C6632 C6634 1.363 . S
C6632 H6648 0.931 . S
C6633 C6632 1.370 . S
C6633 C6637 1.408 . S
C6634 C6632 1.363 . S
C6634 C6635 1.370 . S
C6634 C6638 1.524 . S
C6635 C6627 1.503 . S
C6635 C6634 1.370 . S
C6635 C6636 1.403 . S
C6636 C6635 1.403 . S
C6636 C6637 1.404 . S
C6636 C6639 1.539 . S
C6637 C6633 1.408 . S
C6637 C6636 1.404 . S
C6637 H6649 0.930 . S
C6638 C6634 1.524 . S
C6638 H6650 0.956 . S
C6638 H6651 0.961 . S
C6638 H6652 0.961 . S
C6639 C6636 1.539 . S
C6639 H6653 0.958 . S
C6639 H6654 0.961 . S
C6639 H6655 0.960 . S
H6640 C6624 0.931 . S
H6641 C6629 0.929 . S
H6642 C6630 0.960 . S
H6643 C6630 0.962 . S
H6644 C6630 0.960 . S
H6645 C6631 0.961 . S
H6646 C6631 0.961 . S
H6647 C6631 0.961 . S
H6648 C6632 0.931 . S
H6649 C6637 0.930 . S
H6650 C6638 0.956 . S
H6651 C6638 0.961 . S
H6652 C6638 0.961 . S
H6653 C6639 0.958 . S
H6654 C6639 0.961 . S
H6655 C6639 0.960 . S
C6656 C6657 1.391 . S
C6656 C6658 1.394 . S
C6656 H6672 0.931 . S
C6657 C6656 1.391 . S
C6657 C6661 1.376 . S
C6658 C6656 1.394 . S
C6658 C6659 1.369 . S
C6658 C6662 1.531 . S
C6659 C6658 1.369 . S
C6659 C6660 1.410 . S
C6659 C6667 1.503 . S
C6660 C6659 1.410 . S
C6660 C6661 1.392 . S
C6660 C6663 1.511 . S
C6661 C6657 1.376 . S
C6661 C6660 1.392 . S
C6661 H6673 0.929 . S
C6662 C6658 1.531 . S
C6662 H6674 0.960 . S
C6662 H6675 0.962 . S
C6662 H6676 0.960 . S
C6663 C6660 1.511 . S
C6663 H6677 0.961 . S
C6663 H6678 0.961 . S
C6663 H6679 0.961 . S
C6664 C6665 1.370 . S
C6664 C6666 1.363 . S
C6664 H6680 0.931 . S
C6665 C6664 1.370 . S
C6665 C6669 1.408 . S
C6666 C6664 1.363 . S
C6666 C6667 1.370 . S
C6666 C6670 1.524 . S
C6667 C6659 1.503 . S
C6667 C6666 1.370 . S
C6667 C6668 1.403 . S
C6668 C6667 1.403 . S
C6668 C6669 1.404 . S
C6668 C6671 1.539 . S
C6669 C6665 1.408 . S
C6669 C6668 1.404 . S
C6669 H6681 0.930 . S
C6670 C6666 1.524 . S
C6670 H6682 0.956 . S
C6670 H6683 0.961 . S
C6670 H6684 0.961 . S
C6671 C6668 1.539 . S
C6671 H6685 0.958 . S
C6671 H6686 0.961 . S
C6671 H6687 0.960 . S
H6672 C6656 0.931 . S
H6673 C6661 0.929 . S
H6674 C6662 0.960 . S
H6675 C6662 0.962 . S
H6676 C6662 0.960 . S
H6677 C6663 0.961 . S
H6678 C6663 0.961 . S
H6679 C6663 0.961 . S
H6680 C6664 0.931 . S
H6681 C6669 0.930 . S
H6682 C6670 0.956 . S
H6683 C6670 0.961 . S
H6684 C6670 0.961 . S
H6685 C6671 0.958 . S
H6686 C6671 0.961 . S
H6687 C6671 0.960 . S
C6688 C6689 1.391 . S
C6688 C6690 1.394 . S
C6688 H6704 0.931 . S
C6689 C6688 1.391 . S
C6689 C6693 1.376 . S
C6690 C6688 1.394 . S
C6690 C6691 1.369 . S
C6690 C6694 1.531 . S
C6691 C6690 1.369 . S
C6691 C6692 1.410 . S
C6691 C6699 1.503 . S
C6692 C6691 1.410 . S
C6692 C6693 1.392 . S
C6692 C6695 1.511 . S
C6693 C6689 1.376 . S
C6693 C6692 1.392 . S
C6693 H6705 0.929 . S
C6694 C6690 1.531 . S
C6694 H6706 0.960 . S
C6694 H6707 0.962 . S
C6694 H6708 0.960 . S
C6695 C6692 1.511 . S
C6695 H6709 0.961 . S
C6695 H6710 0.961 . S
C6695 H6711 0.961 . S
C6696 C6697 1.370 . S
C6696 C6698 1.363 . S
C6696 H6712 0.931 . S
C6697 C6696 1.370 . S
C6697 C6701 1.408 . S
C6698 C6696 1.363 . S
C6698 C6699 1.370 . S
C6698 C6702 1.524 . S
C6699 C6691 1.503 . S
C6699 C6698 1.370 . S
C6699 C6700 1.403 . S
C6700 C6699 1.403 . S
C6700 C6701 1.404 . S
C6700 C6703 1.539 . S
C6701 C6697 1.408 . S
C6701 C6700 1.404 . S
C6701 H6713 0.930 . S
C6702 C6698 1.524 . S
C6702 H6714 0.956 . S
C6702 H6715 0.961 . S
C6702 H6716 0.961 . S
C6703 C6700 1.539 . S
C6703 H6717 0.958 . S
C6703 H6718 0.961 . S
C6703 H6719 0.960 . S
H6704 C6688 0.931 . S
H6705 C6693 0.929 . S
H6706 C6694 0.960 . S
H6707 C6694 0.962 . S
H6708 C6694 0.960 . S
H6709 C6695 0.961 . S
H6710 C6695 0.961 . S
H6711 C6695 0.961 . S
H6712 C6696 0.931 . S
H6713 C6701 0.930 . S
H6714 C6702 0.956 . S
H6715 C6702 0.961 . S
H6716 C6702 0.961 . S
H6717 C6703 0.958 . S
H6718 C6703 0.961 . S
H6719 C6703 0.960 . S
C6720 C6721 1.391 . S
C6720 C6722 1.394 . S
C6720 H6736 0.931 . S
C6721 C6720 1.391 . S
C6721 C6725 1.376 . S
C6722 C6720 1.394 . S
C6722 C6723 1.369 . S
C6722 C6726 1.531 . S
C6723 C6722 1.369 . S
C6723 C6724 1.410 . S
C6723 C6731 1.503 . S
C6724 C6723 1.410 . S
C6724 C6725 1.392 . S
C6724 C6727 1.511 . S
C6725 C6721 1.376 . S
C6725 C6724 1.392 . S
C6725 H6737 0.929 . S
C6726 C6722 1.531 . S
C6726 H6738 0.960 . S
C6726 H6739 0.962 . S
C6726 H6740 0.960 . S
C6727 C6724 1.511 . S
C6727 H6741 0.961 . S
C6727 H6742 0.961 . S
C6727 H6743 0.961 . S
C6728 C6729 1.370 . S
C6728 C6730 1.363 . S
C6728 H6744 0.931 . S
C6729 C6728 1.370 . S
C6729 C6733 1.408 . S
C6730 C6728 1.363 . S
C6730 C6731 1.370 . S
C6730 C6734 1.524 . S
C6731 C6723 1.503 . S
C6731 C6730 1.370 . S
C6731 C6732 1.403 . S
C6732 C6731 1.403 . S
C6732 C6733 1.404 . S
C6732 C6735 1.539 . S
C6733 C6729 1.408 . S
C6733 C6732 1.404 . S
C6733 H6745 0.930 . S
C6734 C6730 1.524 . S
C6734 H6746 0.956 . S
C6734 H6747 0.961 . S
C6734 H6748 0.961 . S
C6735 C6732 1.539 . S
C6735 H6749 0.958 . S
C6735 H6750 0.961 . S
C6735 H6751 0.960 . S
H6736 C6720 0.931 . S
H6737 C6725 0.929 . S
H6738 C6726 0.960 . S
H6739 C6726 0.962 . S
H6740 C6726 0.960 . S
H6741 C6727 0.961 . S
H6742 C6727 0.961 . S
H6743 C6727 0.961 . S
H6744 C6728 0.931 . S
H6745 C6733 0.930 . S
H6746 C6734 0.956 . S
H6747 C6734 0.961 . S
H6748 C6734 0.961 . S
H6749 C6735 0.958 . S
H6750 C6735 0.961 . S
H6751 C6735 0.960 . S
C6752 C6753 1.391 . S
C6752 C6754 1.394 . S
C6752 H6768 0.931 . S
C6753 C6752 1.391 . S
C6753 C6757 1.376 . S
C6754 C6752 1.394 . S
C6754 C6755 1.369 . S
C6754 C6758 1.531 . S
C6755 C6754 1.369 . S
C6755 C6756 1.410 . S
C6755 C6763 1.503 . S
C6756 C6755 1.410 . S
C6756 C6757 1.392 . S
C6756 C6759 1.511 . S
C6757 C6753 1.376 . S
C6757 C6756 1.392 . S
C6757 H6769 0.929 . S
C6758 C6754 1.531 . S
C6758 H6770 0.960 . S
C6758 H6771 0.962 . S
C6758 H6772 0.960 . S
C6759 C6756 1.511 . S
C6759 H6773 0.961 . S
C6759 H6774 0.961 . S
C6759 H6775 0.961 . S
C6760 C6761 1.370 . S
C6760 C6762 1.363 . S
C6760 H6776 0.931 . S
C6761 C6760 1.370 . S
C6761 C6765 1.408 . S
C6762 C6760 1.363 . S
C6762 C6763 1.370 . S
C6762 C6766 1.524 . S
C6763 C6755 1.503 . S
C6763 C6762 1.370 . S
C6763 C6764 1.403 . S
C6764 C6763 1.403 . S
C6764 C6765 1.404 . S
C6764 C6767 1.539 . S
C6765 C6761 1.408 . S
C6765 C6764 1.404 . S
C6765 H6777 0.930 . S
C6766 C6762 1.524 . S
C6766 H6778 0.956 . S
C6766 H6779 0.961 . S
C6766 H6780 0.961 . S
C6767 C6764 1.539 . S
C6767 H6781 0.958 . S
C6767 H6782 0.961 . S
C6767 H6783 0.960 . S
H6768 C6752 0.931 . S
H6769 C6757 0.929 . S
H6770 C6758 0.960 . S
H6771 C6758 0.962 . S
H6772 C6758 0.960 . S
H6773 C6759 0.961 . S
H6774 C6759 0.961 . S
H6775 C6759 0.961 . S
H6776 C6760 0.931 . S
H6777 C6765 0.930 . S
H6778 C6766 0.956 . S
H6779 C6766 0.961 . S
H6780 C6766 0.961 . S
H6781 C6767 0.958 . S
H6782 C6767 0.961 . S
H6783 C6767 0.960 . S
C6784 C6785 1.391 . S
C6784 C6786 1.394 . S
C6784 H6800 0.931 . S
C6785 C6784 1.391 . S
C6785 C6789 1.376 . S
C6786 C6784 1.394 . S
C6786 C6787 1.369 . S
C6786 C6790 1.531 . S
C6787 C6786 1.369 . S
C6787 C6788 1.410 . S
C6787 C6795 1.503 . S
C6788 C6787 1.410 . S
C6788 C6789 1.392 . S
C6788 C6791 1.511 . S
C6789 C6785 1.376 . S
C6789 C6788 1.392 . S
C6789 H6801 0.929 . S
C6790 C6786 1.531 . S
C6790 H6802 0.960 . S
C6790 H6803 0.962 . S
C6790 H6804 0.960 . S
C6791 C6788 1.511 . S
C6791 H6805 0.961 . S
C6791 H6806 0.961 . S
C6791 H6807 0.961 . S
C6792 C6793 1.370 . S
C6792 C6794 1.363 . S
C6792 H6808 0.931 . S
C6793 C6792 1.370 . S
C6793 C6797 1.408 . S
C6794 C6792 1.363 . S
C6794 C6795 1.370 . S
C6794 C6798 1.524 . S
C6795 C6787 1.503 . S
C6795 C6794 1.370 . S
C6795 C6796 1.403 . S
C6796 C6795 1.403 . S
C6796 C6797 1.404 . S
C6796 C6799 1.539 . S
C6797 C6793 1.408 . S
C6797 C6796 1.404 . S
C6797 H6809 0.930 . S
C6798 C6794 1.524 . S
C6798 H6810 0.956 . S
C6798 H6811 0.961 . S
C6798 H6812 0.961 . S
C6799 C6796 1.539 . S
C6799 H6813 0.958 . S
C6799 H6814 0.961 . S
C6799 H6815 0.960 . S
H6800 C6784 0.931 . S
H6801 C6789 0.929 . S
H6802 C6790 0.960 . S
H6803 C6790 0.962 . S
H6804 C6790 0.960 . S
H6805 C6791 0.961 . S
H6806 C6791 0.961 . S
H6807 C6791 0.961 . S
H6808 C6792 0.931 . S
H6809 C6797 0.930 . S
H6810 C6798 0.956 . S
H6811 C6798 0.961 . S
H6812 C6798 0.961 . S
H6813 C6799 0.958 . S
H6814 C6799 0.961 . S
H6815 C6799 0.960 . S
C6816 C6817 1.391 . S
C6816 C6818 1.394 . S
C6816 H6832 0.931 . S
C6817 C6816 1.391 . S
C6817 C6821 1.376 . S
C6818 C6816 1.394 . S
C6818 C6819 1.369 . S
C6818 C6822 1.531 . S
C6819 C6818 1.369 . S
C6819 C6820 1.410 . S
C6819 C6827 1.503 . S
C6820 C6819 1.410 . S
C6820 C6821 1.392 . S
C6820 C6823 1.511 . S
C6821 C6817 1.376 . S
C6821 C6820 1.392 . S
C6821 H6833 0.929 . S
C6822 C6818 1.531 . S
C6822 H6834 0.960 . S
C6822 H6835 0.962 . S
C6822 H6836 0.960 . S
C6823 C6820 1.511 . S
C6823 H6837 0.961 . S
C6823 H6838 0.961 . S
C6823 H6839 0.961 . S
C6824 C6825 1.370 . S
C6824 C6826 1.363 . S
C6824 H6840 0.931 . S
C6825 C6824 1.370 . S
C6825 C6829 1.408 . S
C6826 C6824 1.363 . S
C6826 C6827 1.370 . S
C6826 C6830 1.524 . S
C6827 C6819 1.503 . S
C6827 C6826 1.370 . S
C6827 C6828 1.403 . S
C6828 C6827 1.403 . S
C6828 C6829 1.404 . S
C6828 C6831 1.539 . S
C6829 C6825 1.408 . S
C6829 C6828 1.404 . S
C6829 H6841 0.930 . S
C6830 C6826 1.524 . S
C6830 H6842 0.956 . S
C6830 H6843 0.961 . S
C6830 H6844 0.961 . S
C6831 C6828 1.539 . S
C6831 H6845 0.958 . S
C6831 H6846 0.961 . S
C6831 H6847 0.960 . S
H6832 C6816 0.931 . S
H6833 C6821 0.929 . S
H6834 C6822 0.960 . S
H6835 C6822 0.962 . S
H6836 C6822 0.960 . S
H6837 C6823 0.961 . S
H6838 C6823 0.961 . S
H6839 C6823 0.961 . S
H6840 C6824 0.931 . S
H6841 C6829 0.930 . S
H6842 C6830 0.956 . S
H6843 C6830 0.961 . S
H6844 C6830 0.961 . S
H6845 C6831 0.958 . S
H6846 C6831 0.961 . S
H6847 C6831 0.960 . S
C6848 C6849 1.391 . S
C6848 C6850 1.394 . S
C6848 H6864 0.931 . S
C6849 C6848 1.391 . S
C6849 C6853 1.376 . S
C6850 C6848 1.394 . S
C6850 C6851 1.369 . S
C6850 C6854 1.531 . S
C6851 C6850 1.369 . S
C6851 C6852 1.410 . S
C6851 C6859 1.503 . S
C6852 C6851 1.410 . S
C6852 C6853 1.392 . S
C6852 C6855 1.511 . S
C6853 C6849 1.376 . S
C6853 C6852 1.392 . S
C6853 H6865 0.929 . S
C6854 C6850 1.531 . S
C6854 H6866 0.960 . S
C6854 H6867 0.962 . S
C6854 H6868 0.960 . S
C6855 C6852 1.511 . S
C6855 H6869 0.961 . S
C6855 H6870 0.961 . S
C6855 H6871 0.961 . S
C6856 C6857 1.370 . S
C6856 C6858 1.363 . S
C6856 H6872 0.931 . S
C6857 C6856 1.370 . S
C6857 C6861 1.408 . S
C6858 C6856 1.363 . S
C6858 C6859 1.370 . S
C6858 C6862 1.524 . S
C6859 C6851 1.503 . S
C6859 C6858 1.370 . S
C6859 C6860 1.403 . S
C6860 C6859 1.403 . S
C6860 C6861 1.404 . S
C6860 C6863 1.539 . S
C6861 C6857 1.408 . S
C6861 C6860 1.404 . S
C6861 H6873 0.930 . S
C6862 C6858 1.524 . S
C6862 H6874 0.956 . S
C6862 H6875 0.961 . S
C6862 H6876 0.961 . S
C6863 C6860 1.539 . S
C6863 H6877 0.958 . S
C6863 H6878 0.961 . S
C6863 H6879 0.960 . S
H6864 C6848 0.931 . S
H6865 C6853 0.929 . S
H6866 C6854 0.960 . S
H6867 C6854 0.962 . S
H6868 C6854 0.960 . S
H6869 C6855 0.961 . S
H6870 C6855 0.961 . S
H6871 C6855 0.961 . S
H6872 C6856 0.931 . S
H6873 C6861 0.930 . S
H6874 C6862 0.956 . S
H6875 C6862 0.961 . S
H6876 C6862 0.961 . S
H6877 C6863 0.958 . S
H6878 C6863 0.961 . S
H6879 C6863 0.960 . S
C6880 C6881 1.391 . S
C6880 C6882 1.394 . S
C6880 H6896 0.931 . S
C6881 C6880 1.391 . S
C6881 C6885 1.376 . S
C6882 C6880 1.394 . S
C6882 C6883 1.369 . S
C6882 C6886 1.531 . S
C6883 C6882 1.369 . S
C6883 C6884 1.410 . S
C6883 C6891 1.503 . S
C6884 C6883 1.410 . S
C6884 C6885 1.392 . S
C6884 C6887 1.511 . S
C6885 C6881 1.376 . S
C6885 C6884 1.392 . S
C6885 H6897 0.929 . S
C6886 C6882 1.531 . S
C6886 H6898 0.960 . S
C6886 H6899 0.962 . S
C6886 H6900 0.960 . S
C6887 C6884 1.511 . S
C6887 H6901 0.961 . S
C6887 H6902 0.961 . S
C6887 H6903 0.961 . S
C6888 C6889 1.370 . S
C6888 C6890 1.363 . S
C6888 H6904 0.931 . S
C6889 C6888 1.370 . S
C6889 C6893 1.408 . S
C6890 C6888 1.363 . S
C6890 C6891 1.370 . S
C6890 C6894 1.524 . S
C6891 C6883 1.503 . S
C6891 C6890 1.370 . S
C6891 C6892 1.403 . S
C6892 C6891 1.403 . S
C6892 C6893 1.404 . S
C6892 C6895 1.539 . S
C6893 C6889 1.408 . S
C6893 C6892 1.404 . S
C6893 H6905 0.930 . S
C6894 C6890 1.524 . S
C6894 H6906 0.956 . S
C6894 H6907 0.961 . S
C6894 H6908 0.961 . S
C6895 C6892 1.539 . S
C6895 H6909 0.958 . S
C6895 H6910 0.961 . S
C6895 H6911 0.960 . S
H6896 C6880 0.931 . S
H6897 C6885 0.929 . S
H6898 C6886 0.960 . S
H6899 C6886 0.962 . S
H6900 C6886 0.960 . S
H6901 C6887 0.961 . S
H6902 C6887 0.961 . S
H6903 C6887 0.961 . S
H6904 C6888 0.931 . S
H6905 C6893 0.930 . S
H6906 C6894 0.956 . S
H6907 C6894 0.961 . S
H6908 C6894 0.961 . S
H6909 C6895 0.958 . S
H6910 C6895 0.961 . S
H6911 C6895 0.960 . S
C6912 C6913 1.391 . S
C6912 C6914 1.394 . S
C6912 H6928 0.931 . S
C6913 C6912 1.391 . S
C6913 C6917 1.376 . S
C6914 C6912 1.394 . S
C6914 C6915 1.369 . S
C6914 C6918 1.531 . S
C6915 C6914 1.369 . S
C6915 C6916 1.410 . S
C6915 C6923 1.503 . S
C6916 C6915 1.410 . S
C6916 C6917 1.392 . S
C6916 C6919 1.511 . S
C6917 C6913 1.376 . S
C6917 C6916 1.392 . S
C6917 H6929 0.929 . S
C6918 C6914 1.531 . S
C6918 H6930 0.960 . S
C6918 H6931 0.962 . S
C6918 H6932 0.960 . S
C6919 C6916 1.511 . S
C6919 H6933 0.961 . S
C6919 H6934 0.961 . S
C6919 H6935 0.961 . S
C6920 C6921 1.370 . S
C6920 C6922 1.363 . S
C6920 H6936 0.931 . S
C6921 C6920 1.370 . S
C6921 C6925 1.408 . S
C6922 C6920 1.363 . S
C6922 C6923 1.370 . S
C6922 C6926 1.524 . S
C6923 C6915 1.503 . S
C6923 C6922 1.370 . S
C6923 C6924 1.403 . S
C6924 C6923 1.403 . S
C6924 C6925 1.404 . S
C6924 C6927 1.539 . S
C6925 C6921 1.408 . S
C6925 C6924 1.404 . S
C6925 H6937 0.930 . S
C6926 C6922 1.524 . S
C6926 H6938 0.956 . S
C6926 H6939 0.961 . S
C6926 H6940 0.961 . S
C6927 C6924 1.539 . S
C6927 H6941 0.958 . S
C6927 H6942 0.961 . S
C6927 H6943 0.960 . S
H6928 C6912 0.931 . S
H6929 C6917 0.929 . S
H6930 C6918 0.960 . S
H6931 C6918 0.962 . S
H6932 C6918 0.960 . S
H6933 C6919 0.961 . S
H6934 C6919 0.961 . S
H6935 C6919 0.961 . S
H6936 C6920 0.931 . S
H6937 C6925 0.930 . S
H6938 C6926 0.956 . S
H6939 C6926 0.961 . S
H6940 C6926 0.961 . S
H6941 C6927 0.958 . S
H6942 C6927 0.961 . S
H6943 C6927 0.960 . S
C6944 C6945 1.391 . S
C6944 C6946 1.394 . S
C6944 H6960 0.931 . S
C6945 C6944 1.391 . S
C6945 C6949 1.376 . S
C6946 C6944 1.394 . S
C6946 C6947 1.369 . S
C6946 C6950 1.531 . S
C6947 C6946 1.369 . S
C6947 C6948 1.410 . S
C6947 C6955 1.503 . S
C6948 C6947 1.410 . S
C6948 C6949 1.392 . S
C6948 C6951 1.511 . S
C6949 C6945 1.376 . S
C6949 C6948 1.392 . S
C6949 H6961 0.929 . S
C6950 C6946 1.531 . S
C6950 H6962 0.960 . S
C6950 H6963 0.962 . S
C6950 H6964 0.960 . S
C6951 C6948 1.511 . S
C6951 H6965 0.961 . S
C6951 H6966 0.961 . S
C6951 H6967 0.961 . S
C6952 C6953 1.370 . S
C6952 C6954 1.363 . S
C6952 H6968 0.931 . S
C6953 C6952 1.370 . S
C6953 C6957 1.408 . S
C6954 C6952 1.363 . S
C6954 C6955 1.370 . S
C6954 C6958 1.524 . S
C6955 C6947 1.503 . S
C6955 C6954 1.370 . S
C6955 C6956 1.403 . S
C6956 C6955 1.403 . S
C6956 C6957 1.404 . S
C6956 C6959 1.539 . S
C6957 C6953 1.408 . S
C6957 C6956 1.404 . S
C6957 H6969 0.930 . S
C6958 C6954 1.524 . S
C6958 H6970 0.956 . S
C6958 H6971 0.961 . S
C6958 H6972 0.961 . S
C6959 C6956 1.539 . S
C6959 H6973 0.958 . S
C6959 H6974 0.961 . S
C6959 H6975 0.960 . S
H6960 C6944 0.931 . S
H6961 C6949 0.929 . S
H6962 C6950 0.960 . S
H6963 C6950 0.962 . S
H6964 C6950 0.960 . S
H6965 C6951 0.961 . S
H6966 C6951 0.961 . S
H6967 C6951 0.961 . S
H6968 C6952 0.931 . S
H6969 C6957 0.930 . S
H6970 C6958 0.956 . S
H6971 C6958 0.961 . S
H6972 C6958 0.961 . S
H6973 C6959 0.958 . S
H6974 C6959 0.961 . S
H6975 C6959 0.960 . S
C6976 C6977 1.391 . S
C6976 C6978 1.394 . S
C6976 H6992 0.931 . S
C6977 C6976 1.391 . S
C6977 C6981 1.376 . S
C6978 C6976 1.394 . S
C6978 C6979 1.369 . S
C6978 C6982 1.531 . S
C6979 C6978 1.369 . S
C6979 C6980 1.410 . S
C6979 C6987 1.503 . S
C6980 C6979 1.410 . S
C6980 C6981 1.392 . S
C6980 C6983 1.511 . S
C6981 C6977 1.376 . S
C6981 C6980 1.392 . S
C6981 H6993 0.929 . S
C6982 C6978 1.531 . S
C6982 H6994 0.960 . S
C6982 H6995 0.962 . S
C6982 H6996 0.960 . S
C6983 C6980 1.511 . S
C6983 H6997 0.961 . S
C6983 H6998 0.961 . S
C6983 H6999 0.961 . S
C6984 C6985 1.370 . S
C6984 C6986 1.363 . S
C6984 H7000 0.931 . S
C6985 C6984 1.370 . S
C6985 C6989 1.408 . S
C6986 C6984 1.363 . S
C6986 C6987 1.370 . S
C6986 C6990 1.524 . S
C6987 C6979 1.503 . S
C6987 C6986 1.370 . S
C6987 C6988 1.403 . S
C6988 C6987 1.403 . S
C6988 C6989 1.404 . S
C6988 C6991 1.539 . S
C6989 C6985 1.408 . S
C6989 C6988 1.404 . S
C6989 H7001 0.930 . S
C6990 C6986 1.524 . S
C6990 H7002 0.956 . S
C6990 H7003 0.961 . S
C6990 H7004 0.961 . S
C6991 C6988 1.539 . S
C6991 H7005 0.958 . S
C6991 H7006 0.961 . S
C6991 H7007 0.960 . S
H6992 C6976 0.931 . S
H6993 C6981 0.929 . S
H6994 C6982 0.960 . S
H6995 C6982 0.962 . S
H6996 C6982 0.960 . S
H6997 C6983 0.961 . S
H6998 C6983 0.961 . S
H6999 C6983 0.961 . S
H7000 C6984 0.931 . S
H7001 C6989 0.930 . S
H7002 C6990 0.956 . S
H7003 C6990 0.961 . S
H7004 C6990 0.961 . S
H7005 C6991 0.958 . S
H7006 C6991 0.961 . S
H7007 C6991 0.960 . S
C7008 C7009 1.391 . S
C7008 C7010 1.394 . S
C7008 H7024 0.931 . S
C7009 C7008 1.391 . S
C7009 C7013 1.376 . S
C7010 C7008 1.394 . S
C7010 C7011 1.369 . S
C7010 C7014 1.531 . S
C7011 C7010 1.369 . S
C7011 C7012 1.410 . S
C7011 C7019 1.503 . S
C7012 C7011 1.410 . S
C7012 C7013 1.392 . S
C7012 C7015 1.511 . S
C7013 C7009 1.376 . S
C7013 C7012 1.392 . S
C7013 H7025 0.929 . S
C7014 C7010 1.531 . S
C7014 H7026 0.960 . S
C7014 H7027 0.962 . S
C7014 H7028 0.960 . S
C7015 C7012 1.511 . S
C7015 H7029 0.961 . S
C7015 H7030 0.961 . S
C7015 H7031 0.961 . S
C7016 C7017 1.370 . S
C7016 C7018 1.363 . S
C7016 H7032 0.931 . S
C7017 C7016 1.370 . S
C7017 C7021 1.408 . S
C7018 C7016 1.363 . S
C7018 C7019 1.370 . S
C7018 C7022 1.524 . S
C7019 C7011 1.503 . S
C7019 C7018 1.370 . S
C7019 C7020 1.403 . S
C7020 C7019 1.403 . S
C7020 C7021 1.404 . S
C7020 C7023 1.539 . S
C7021 C7017 1.408 . S
C7021 C7020 1.404 . S
C7021 H7033 0.930 . S
C7022 C7018 1.524 . S
C7022 H7034 0.956 . S
C7022 H7035 0.961 . S
C7022 H7036 0.961 . S
C7023 C7020 1.539 . S
C7023 H7037 0.958 . S
C7023 H7038 0.961 . S
C7023 H7039 0.960 . S
H7024 C7008 0.931 . S
H7025 C7013 0.929 . S
H7026 C7014 0.960 . S
H7027 C7014 0.962 . S
H7028 C7014 0.960 . S
H7029 C7015 0.961 . S
H7030 C7015 0.961 . S
H7031 C7015 0.961 . S
H7032 C7016 0.931 . S
H7033 C7021 0.930 . S
H7034 C7022 0.956 . S
H7035 C7022 0.961 . S
H7036 C7022 0.961 . S
H7037 C7023 0.958 . S
H7038 C7023 0.961 . S
H7039 C7023 0.960 . S
C7040 C7041 1.391 . S
C7040 C7042 1.394 . S
C7040 H7056 0.931 . S
C7041 C7040 1.391 . S
C7041 C7045 1.376 . S
C7042 C7040 1.394 . S
C7042 C7043 1.369 . S
C7042 C7046 1.531 . S
C7043 C7042 1.369 . S
C7043 C7044 1.410 . S
C7043 C7051 1.503 . S
C7044 C7043 1.410 . S
C7044 C7045 1.392 . S
C7044 C7047 1.511 . S
C7045 C7041 1.376 . S
C7045 C7044 1.392 . S
C7045 H7057 0.929 . S
C7046 C7042 1.531 . S
C7046 H7058 0.960 . S
C7046 H7059 0.962 . S
C7046 H7060 0.960 . S
C7047 C7044 1.511 . S
C7047 H7061 0.961 . S
C7047 H7062 0.961 . S
C7047 H7063 0.961 . S
C7048 C7049 1.370 . S
C7048 C7050 1.363 . S
C7048 H7064 0.931 . S
C7049 C7048 1.370 . S
C7049 C7053 1.408 . S
C7050 C7048 1.363 . S
C7050 C7051 1.370 . S
C7050 C7054 1.524 . S
C7051 C7043 1.503 . S
C7051 C7050 1.370 . S
C7051 C7052 1.403 . S
C7052 C7051 1.403 . S
C7052 C7053 1.404 . S
C7052 C7055 1.539 . S
C7053 C7049 1.408 . S
C7053 C7052 1.404 . S
C7053 H7065 0.930 . S
C7054 C7050 1.524 . S
C7054 H7066 0.956 . S
C7054 H7067 0.961 . S
C7054 H7068 0.961 . S
C7055 C7052 1.539 . S
C7055 H7069 0.958 . S
C7055 H7070 0.961 . S
C7055 H7071 0.960 . S
H7056 C7040 0.931 . S
H7057 C7045 0.929 . S
H7058 C7046 0.960 . S
H7059 C7046 0.962 . S
H7060 C7046 0.960 . S
H7061 C7047 0.961 . S
H7062 C7047 0.961 . S
H7063 C7047 0.961 . S
H7064 C7048 0.931 . S
H7065 C7053 0.930 . S
H7066 C7054 0.956 . S
H7067 C7054 0.961 . S
H7068 C7054 0.961 . S
H7069 C7055 0.958 . S
H7070 C7055 0.961 . S
H7071 C7055 0.960 . S
C7072 C7073 1.391 . S
C7072 C7074 1.394 . S
C7072 H7088 0.931 . S
C7073 C7072 1.391 . S
C7073 C7077 1.376 . S
C7074 C7072 1.394 . S
C7074 C7075 1.369 . S
C7074 C7078 1.531 . S
C7075 C7074 1.369 . S
C7075 C7076 1.410 . S
C7075 C7083 1.503 . S
C7076 C7075 1.410 . S
C7076 C7077 1.392 . S
C7076 C7079 1.511 . S
C7077 C7073 1.376 . S
C7077 C7076 1.392 . S
C7077 H7089 0.929 . S
C7078 C7074 1.531 . S
C7078 H7090 0.960 . S
C7078 H7091 0.962 . S
C7078 H7092 0.960 . S
C7079 C7076 1.511 . S
C7079 H7093 0.961 . S
C7079 H7094 0.961 . S
C7079 H7095 0.961 . S
C7080 C7081 1.370 . S
C7080 C7082 1.363 . S
C7080 H7096 0.931 . S
C7081 C7080 1.370 . S
C7081 C7085 1.408 . S
C7082 C7080 1.363 . S
C7082 C7083 1.370 . S
C7082 C7086 1.524 . S
C7083 C7075 1.503 . S
C7083 C7082 1.370 . S
C7083 C7084 1.403 . S
C7084 C7083 1.403 . S
C7084 C7085 1.404 . S
C7084 C7087 1.539 . S
C7085 C7081 1.408 . S
C7085 C7084 1.404 . S
C7085 H7097 0.930 . S
C7086 C7082 1.524 . S
C7086 H7098 0.956 . S
C7086 H7099 0.961 . S
C7086 H7100 0.961 . S
C7087 C7084 1.539 . S
C7087 H7101 0.958 . S
C7087 H7102 0.961 . S
C7087 H7103 0.960 . S
H7088 C7072 0.931 . S
H7089 C7077 0.929 . S
H7090 C7078 0.960 . S
H7091 C7078 0.962 . S
H7092 C7078 0.960 . S
H7093 C7079 0.961 . S
H7094 C7079 0.961 . S
H7095 C7079 0.961 . S
H7096 C7080 0.931 . S
H7097 C7085 0.930 . S
H7098 C7086 0.956 . S
H7099 C7086 0.961 . S
H7100 C7086 0.961 . S
H7101 C7087 0.958 . S
H7102 C7087 0.961 . S
H7103 C7087 0.960 . S
C7104 C7105 1.391 . S
C7104 C7106 1.394 . S
C7104 H7120 0.931 . S
C7105 C7104 1.391 . S
C7105 C7109 1.376 . S
C7106 C7104 1.394 . S
C7106 C7107 1.369 . S
C7106 C7110 1.531 . S
C7107 C7106 1.369 . S
C7107 C7108 1.410 . S
C7107 C7115 1.503 . S
C7108 C7107 1.410 . S
C7108 C7109 1.392 . S
C7108 C7111 1.511 . S
C7109 C7105 1.376 . S
C7109 C7108 1.392 . S
C7109 H7121 0.929 . S
C7110 C7106 1.531 . S
C7110 H7122 0.960 . S
C7110 H7123 0.962 . S
C7110 H7124 0.960 . S
C7111 C7108 1.511 . S
C7111 H7125 0.961 . S
C7111 H7126 0.961 . S
C7111 H7127 0.961 . S
C7112 C7113 1.370 . S
C7112 C7114 1.363 . S
C7112 H7128 0.931 . S
C7113 C7112 1.370 . S
C7113 C7117 1.408 . S
C7114 C7112 1.363 . S
C7114 C7115 1.370 . S
C7114 C7118 1.524 . S
C7115 C7107 1.503 . S
C7115 C7114 1.370 . S
C7115 C7116 1.403 . S
C7116 C7115 1.403 . S
C7116 C7117 1.404 . S
C7116 C7119 1.539 . S
C7117 C7113 1.408 . S
C7117 C7116 1.404 . S
C7117 H7129 0.930 . S
C7118 C7114 1.524 . S
C7118 H7130 0.956 . S
C7118 H7131 0.961 . S
C7118 H7132 0.961 . S
C7119 C7116 1.539 . S
C7119 H7133 0.958 . S
C7119 H7134 0.961 . S
C7119 H7135 0.960 . S
H7120 C7104 0.931 . S
H7121 C7109 0.929 . S
H7122 C7110 0.960 . S
H7123 C7110 0.962 . S
H7124 C7110 0.960 . S
H7125 C7111 0.961 . S
H7126 C7111 0.961 . S
H7127 C7111 0.961 . S
H7128 C7112 0.931 . S
H7129 C7117 0.930 . S
H7130 C7118 0.956 . S
H7131 C7118 0.961 . S
H7132 C7118 0.961 . S
H7133 C7119 0.958 . S
H7134 C7119 0.961 . S
H7135 C7119 0.960 . S
C7136 C7137 1.391 . S
C7136 C7138 1.394 . S
C7136 H7152 0.931 . S
C7137 C7136 1.391 . S
C7137 C7141 1.376 . S
C7138 C7136 1.394 . S
C7138 C7139 1.369 . S
C7138 C7142 1.531 . S
C7139 C7138 1.369 . S
C7139 C7140 1.410 . S
C7139 C7147 1.503 . S
C7140 C7139 1.410 . S
C7140 C7141 1.392 . S
C7140 C7143 1.511 . S
C7141 C7137 1.376 . S
C7141 C7140 1.392 . S
C7141 H7153 0.929 . S
C7142 C7138 1.531 . S
C7142 H7154 0.960 . S
C7142 H7155 0.962 . S
C7142 H7156 0.960 . S
C7143 C7140 1.511 . S
C7143 H7157 0.961 . S
C7143 H7158 0.961 . S
C7143 H7159 0.961 . S
C7144 C7145 1.370 . S
C7144 C7146 1.363 . S
C7144 H7160 0.931 . S
C7145 C7144 1.370 . S
C7145 C7149 1.408 . S
C7146 C7144 1.363 . S
C7146 C7147 1.370 . S
C7146 C7150 1.524 . S
C7147 C7139 1.503 . S
C7147 C7146 1.370 . S
C7147 C7148 1.403 . S
C7148 C7147 1.403 . S
C7148 C7149 1.404 . S
C7148 C7151 1.539 . S
C7149 C7145 1.408 . S
C7149 C7148 1.404 . S
C7149 H7161 0.930 . S
C7150 C7146 1.524 . S
C7150 H7162 0.956 . S
C7150 H7163 0.961 . S
C7150 H7164 0.961 . S
C7151 C7148 1.539 . S
C7151 H7165 0.958 . S
C7151 H7166 0.961 . S
C7151 H7167 0.960 . S
H7152 C7136 0.931 . S
H7153 C7141 0.929 . S
H7154 C7142 0.960 . S
H7155 C7142 0.962 . S
H7156 C7142 0.960 . S
H7157 C7143 0.961 . S
H7158 C7143 0.961 . S
H7159 C7143 0.961 . S
H7160 C7144 0.931 . S
H7161 C7149 0.930 . S
H7162 C7150 0.956 . S
H7163 C7150 0.961 . S
H7164 C7150 0.961 . S
H7165 C7151 0.958 . S
H7166 C7151 0.961 . S
H7167 C7151 0.960 . S
C7168 C7169 1.391 . S
C7168 C7170 1.394 . S
C7168 H7184 0.931 . S
C7169 C7168 1.391 . S
C7169 C7173 1.376 . S
C7170 C7168 1.394 . S
C7170 C7171 1.369 . S
C7170 C7174 1.531 . S
C7171 C7170 1.369 . S
C7171 C7172 1.410 . S
C7171 C7179 1.503 . S
C7172 C7171 1.410 . S
C7172 C7173 1.392 . S
C7172 C7175 1.511 . S
C7173 C7169 1.376 . S
C7173 C7172 1.392 . S
C7173 H7185 0.929 . S
C7174 C7170 1.531 . S
C7174 H7186 0.960 . S
C7174 H7187 0.962 . S
C7174 H7188 0.960 . S
C7175 C7172 1.511 . S
C7175 H7189 0.961 . S
C7175 H7190 0.961 . S
C7175 H7191 0.961 . S
C7176 C7177 1.370 . S
C7176 C7178 1.363 . S
C7176 H7192 0.931 . S
C7177 C7176 1.370 . S
C7177 C7181 1.408 . S
C7178 C7176 1.363 . S
C7178 C7179 1.370 . S
C7178 C7182 1.524 . S
C7179 C7171 1.503 . S
C7179 C7178 1.370 . S
C7179 C7180 1.403 . S
C7180 C7179 1.403 . S
C7180 C7181 1.404 . S
C7180 C7183 1.539 . S
C7181 C7177 1.408 . S
C7181 C7180 1.404 . S
C7181 H7193 0.930 . S
C7182 C7178 1.524 . S
C7182 H7194 0.956 . S
C7182 H7195 0.961 . S
C7182 H7196 0.961 . S
C7183 C7180 1.539 . S
C7183 H7197 0.958 . S
C7183 H7198 0.961 . S
C7183 H7199 0.960 . S
H7184 C7168 0.931 . S
H7185 C7173 0.929 . S
H7186 C7174 0.960 . S
H7187 C7174 0.962 . S
H7188 C7174 0.960 . S
H7189 C7175 0.961 . S
H7190 C7175 0.961 . S
H7191 C7175 0.961 . S
H7192 C7176 0.931 . S
H7193 C7181 0.930 . S
H7194 C7182 0.956 . S
H7195 C7182 0.961 . S
H7196 C7182 0.961 . S
H7197 C7183 0.958 . S
H7198 C7183 0.961 . S
H7199 C7183 0.960 . S
C7200 C7201 1.391 . S
C7200 C7202 1.394 . S
C7200 H7216 0.931 . S
C7201 C7200 1.391 . S
C7201 C7205 1.376 . S
C7202 C7200 1.394 . S
C7202 C7203 1.369 . S
C7202 C7206 1.531 . S
C7203 C7202 1.369 . S
C7203 C7204 1.410 . S
C7203 C7211 1.503 . S
C7204 C7203 1.410 . S
C7204 C7205 1.392 . S
C7204 C7207 1.511 . S
C7205 C7201 1.376 . S
C7205 C7204 1.392 . S
C7205 H7217 0.929 . S
C7206 C7202 1.531 . S
C7206 H7218 0.960 . S
C7206 H7219 0.962 . S
C7206 H7220 0.960 . S
C7207 C7204 1.511 . S
C7207 H7221 0.961 . S
C7207 H7222 0.961 . S
C7207 H7223 0.961 . S
C7208 C7209 1.370 . S
C7208 C7210 1.363 . S
C7208 H7224 0.931 . S
C7209 C7208 1.370 . S
C7209 C7213 1.408 . S
C7210 C7208 1.363 . S
C7210 C7211 1.370 . S
C7210 C7214 1.524 . S
C7211 C7203 1.503 . S
C7211 C7210 1.370 . S
C7211 C7212 1.403 . S
C7212 C7211 1.403 . S
C7212 C7213 1.404 . S
C7212 C7215 1.539 . S
C7213 C7209 1.408 . S
C7213 C7212 1.404 . S
C7213 H7225 0.930 . S
C7214 C7210 1.524 . S
C7214 H7226 0.956 . S
C7214 H7227 0.961 . S
C7214 H7228 0.961 . S
C7215 C7212 1.539 . S
C7215 H7229 0.958 . S
C7215 H7230 0.961 . S
C7215 H7231 0.960 . S
H7216 C7200 0.931 . S
H7217 C7205 0.929 . S
H7218 C7206 0.960 . S
H7219 C7206 0.962 . S
H7220 C7206 0.960 . S
H7221 C7207 0.961 . S
H7222 C7207 0.961 . S
H7223 C7207 0.961 . S
H7224 C7208 0.931 . S
H7225 C7213 0.930 . S
H7226 C7214 0.956 . S
H7227 C7214 0.961 . S
H7228 C7214 0.961 . S
H7229 C7215 0.958 . S
H7230 C7215 0.961 . S
H7231 C7215 0.960 . S
C7232 C7233 1.391 . S
C7232 C7234 1.394 . S
C7232 H7248 0.931 . S
C7233 C7232 1.391 . S
C7233 C7237 1.376 . S
C7234 C7232 1.394 . S
C7234 C7235 1.369 . S
C7234 C7238 1.531 . S
C7235 C7234 1.369 . S
C7235 C7236 1.410 . S
C7235 C7243 1.503 . S
C7236 C7235 1.410 . S
C7236 C7237 1.392 . S
C7236 C7239 1.511 . S
C7237 C7233 1.376 . S
C7237 C7236 1.392 . S
C7237 H7249 0.929 . S
C7238 C7234 1.531 . S
C7238 H7250 0.960 . S
C7238 H7251 0.962 . S
C7238 H7252 0.960 . S
C7239 C7236 1.511 . S
C7239 H7253 0.961 . S
C7239 H7254 0.961 . S
C7239 H7255 0.961 . S
C7240 C7241 1.370 . S
C7240 C7242 1.363 . S
C7240 H7256 0.931 . S
C7241 C7240 1.370 . S
C7241 C7245 1.408 . S
C7242 C7240 1.363 . S
C7242 C7243 1.370 . S
C7242 C7246 1.524 . S
C7243 C7235 1.503 . S
C7243 C7242 1.370 . S
C7243 C7244 1.403 . S
C7244 C7243 1.403 . S
C7244 C7245 1.404 . S
C7244 C7247 1.539 . S
C7245 C7241 1.408 . S
C7245 C7244 1.404 . S
C7245 H7257 0.930 . S
C7246 C7242 1.524 . S
C7246 H7258 0.956 . S
C7246 H7259 0.961 . S
C7246 H7260 0.961 . S
C7247 C7244 1.539 . S
C7247 H7261 0.958 . S
C7247 H7262 0.961 . S
C7247 H7263 0.960 . S
H7248 C7232 0.931 . S
H7249 C7237 0.929 . S
H7250 C7238 0.960 . S
H7251 C7238 0.962 . S
H7252 C7238 0.960 . S
H7253 C7239 0.961 . S
H7254 C7239 0.961 . S
H7255 C7239 0.961 . S
H7256 C7240 0.931 . S
H7257 C7245 0.930 . S
H7258 C7246 0.956 . S
H7259 C7246 0.961 . S
H7260 C7246 0.961 . S
H7261 C7247 0.958 . S
H7262 C7247 0.961 . S
H7263 C7247 0.960 . S
C7264 C7265 1.391 . S
C7264 C7266 1.394 . S
C7264 H7280 0.931 . S
C7265 C7264 1.391 . S
C7265 C7269 1.376 . S
C7266 C7264 1.394 . S
C7266 C7267 1.369 . S
C7266 C7270 1.531 . S
C7267 C7266 1.369 . S
C7267 C7268 1.410 . S
C7267 C7275 1.503 . S
C7268 C7267 1.410 . S
C7268 C7269 1.392 . S
C7268 C7271 1.511 . S
C7269 C7265 1.376 . S
C7269 C7268 1.392 . S
C7269 H7281 0.929 . S
C7270 C7266 1.531 . S
C7270 H7282 0.960 . S
C7270 H7283 0.962 . S
C7270 H7284 0.960 . S
C7271 C7268 1.511 . S
C7271 H7285 0.961 . S
C7271 H7286 0.961 . S
C7271 H7287 0.961 . S
C7272 C7273 1.370 . S
C7272 C7274 1.363 . S
C7272 H7288 0.931 . S
C7273 C7272 1.370 . S
C7273 C7277 1.408 . S
C7274 C7272 1.363 . S
C7274 C7275 1.370 . S
C7274 C7278 1.524 . S
C7275 C7267 1.503 . S
C7275 C7274 1.370 . S
C7275 C7276 1.403 . S
C7276 C7275 1.403 . S
C7276 C7277 1.404 . S
C7276 C7279 1.539 . S
C7277 C7273 1.408 . S
C7277 C7276 1.404 . S
C7277 H7289 0.930 . S
C7278 C7274 1.524 . S
C7278 H7290 0.956 . S
C7278 H7291 0.961 . S
C7278 H7292 0.961 . S
C7279 C7276 1.539 . S
C7279 H7293 0.958 . S
C7279 H7294 0.961 . S
C7279 H7295 0.960 . S
H7280 C7264 0.931 . S
H7281 C7269 0.929 . S
H7282 C7270 0.960 . S
H7283 C7270 0.962 . S
H7284 C7270 0.960 . S
H7285 C7271 0.961 . S
H7286 C7271 0.961 . S
H7287 C7271 0.961 . S
H7288 C7272 0.931 . S
H7289 C7277 0.930 . S
H7290 C7278 0.956 . S
H7291 C7278 0.961 . S
H7292 C7278 0.961 . S
H7293 C7279 0.958 . S
H7294 C7279 0.961 . S
H7295 C7279 0.960 . S
C7296 C7297 1.391 . S
C7296 C7298 1.394 . S
C7296 H7312 0.931 . S
C7297 C7296 1.391 . S
C7297 C7301 1.376 . S
C7298 C7296 1.394 . S
C7298 C7299 1.369 . S
C7298 C7302 1.531 . S
C7299 C7298 1.369 . S
C7299 C7300 1.410 . S
C7299 C7307 1.503 . S
C7300 C7299 1.410 . S
C7300 C7301 1.392 . S
C7300 C7303 1.511 . S
C7301 C7297 1.376 . S
C7301 C7300 1.392 . S
C7301 H7313 0.929 . S
C7302 C7298 1.531 . S
C7302 H7314 0.960 . S
C7302 H7315 0.962 . S
C7302 H7316 0.960 . S
C7303 C7300 1.511 . S
C7303 H7317 0.961 . S
C7303 H7318 0.961 . S
C7303 H7319 0.961 . S
C7304 C7305 1.370 . S
C7304 C7306 1.363 . S
C7304 H7320 0.931 . S
C7305 C7304 1.370 . S
C7305 C7309 1.408 . S
C7306 C7304 1.363 . S
C7306 C7307 1.370 . S
C7306 C7310 1.524 . S
C7307 C7299 1.503 . S
C7307 C7306 1.370 . S
C7307 C7308 1.403 . S
C7308 C7307 1.403 . S
C7308 C7309 1.404 . S
C7308 C7311 1.539 . S
C7309 C7305 1.408 . S
C7309 C7308 1.404 . S
C7309 H7321 0.930 . S
C7310 C7306 1.524 . S
C7310 H7322 0.956 . S
C7310 H7323 0.961 . S
C7310 H7324 0.961 . S
C7311 C7308 1.539 . S
C7311 H7325 0.958 . S
C7311 H7326 0.961 . S
C7311 H7327 0.960 . S
H7312 C7296 0.931 . S
H7313 C7301 0.929 . S
H7314 C7302 0.960 . S
H7315 C7302 0.962 . S
H7316 C7302 0.960 . S
H7317 C7303 0.961 . S
H7318 C7303 0.961 . S
H7319 C7303 0.961 . S
H7320 C7304 0.931 . S
H7321 C7309 0.930 . S
H7322 C7310 0.956 . S
H7323 C7310 0.961 . S
H7324 C7310 0.961 . S
H7325 C7311 0.958 . S
H7326 C7311 0.961 . S
H7327 C7311 0.960 . S
C7328 C7329 1.391 . S
C7328 C7330 1.394 . S
C7328 H7344 0.931 . S
C7329 C7328 1.391 . S
C7329 C7333 1.376 . S
C7330 C7328 1.394 . S
C7330 C7331 1.369 . S
C7330 C7334 1.531 . S
C7331 C7330 1.369 . S
C7331 C7332 1.410 . S
C7331 C7339 1.503 . S
C7332 C7331 1.410 . S
C7332 C7333 1.392 . S
C7332 C7335 1.511 . S
C7333 C7329 1.376 . S
C7333 C7332 1.392 . S
C7333 H7345 0.929 . S
C7334 C7330 1.531 . S
C7334 H7346 0.960 . S
C7334 H7347 0.962 . S
C7334 H7348 0.960 . S
C7335 C7332 1.511 . S
C7335 H7349 0.961 . S
C7335 H7350 0.961 . S
C7335 H7351 0.961 . S
C7336 C7337 1.370 . S
C7336 C7338 1.363 . S
C7336 H7352 0.931 . S
C7337 C7336 1.370 . S
C7337 C7341 1.408 . S
C7338 C7336 1.363 . S
C7338 C7339 1.370 . S
C7338 C7342 1.524 . S
C7339 C7331 1.503 . S
C7339 C7338 1.370 . S
C7339 C7340 1.403 . S
C7340 C7339 1.403 . S
C7340 C7341 1.404 . S
C7340 C7343 1.539 . S
C7341 C7337 1.408 . S
C7341 C7340 1.404 . S
C7341 H7353 0.930 . S
C7342 C7338 1.524 . S
C7342 H7354 0.956 . S
C7342 H7355 0.961 . S
C7342 H7356 0.961 . S
C7343 C7340 1.539 . S
C7343 H7357 0.958 . S
C7343 H7358 0.961 . S
C7343 H7359 0.960 . S
H7344 C7328 0.931 . S
H7345 C7333 0.929 . S
H7346 C7334 0.960 . S
H7347 C7334 0.962 . S
H7348 C7334 0.960 . S
H7349 C7335 0.961 . S
H7350 C7335 0.961 . S
H7351 C7335 0.961 . S
H7352 C7336 0.931 . S
H7353 C7341 0.930 . S
H7354 C7342 0.956 . S
H7355 C7342 0.961 . S
H7356 C7342 0.961 . S
H7357 C7343 0.958 . S
H7358 C7343 0.961 . S
H7359 C7343 0.960 . S
C7360 C7361 1.391 . S
C7360 C7362 1.394 . S
C7360 H7376 0.931 . S
C7361 C7360 1.391 . S
C7361 C7365 1.376 . S
C7362 C7360 1.394 . S
C7362 C7363 1.369 . S
C7362 C7366 1.531 . S
C7363 C7362 1.369 . S
C7363 C7364 1.410 . S
C7363 C7371 1.503 . S
C7364 C7363 1.410 . S
C7364 C7365 1.392 . S
C7364 C7367 1.511 . S
C7365 C7361 1.376 . S
C7365 C7364 1.392 . S
C7365 H7377 0.929 . S
C7366 C7362 1.531 . S
C7366 H7378 0.960 . S
C7366 H7379 0.962 . S
C7366 H7380 0.960 . S
C7367 C7364 1.511 . S
C7367 H7381 0.961 . S
C7367 H7382 0.961 . S
C7367 H7383 0.961 . S
C7368 C7369 1.370 . S
C7368 C7370 1.363 . S
C7368 H7384 0.931 . S
C7369 C7368 1.370 . S
C7369 C7373 1.408 . S
C7370 C7368 1.363 . S
C7370 C7371 1.370 . S
C7370 C7374 1.524 . S
C7371 C7363 1.503 . S
C7371 C7370 1.370 . S
C7371 C7372 1.403 . S
C7372 C7371 1.403 . S
C7372 C7373 1.404 . S
C7372 C7375 1.539 . S
C7373 C7369 1.408 . S
C7373 C7372 1.404 . S
C7373 H7385 0.930 . S
C7374 C7370 1.524 . S
C7374 H7386 0.956 . S
C7374 H7387 0.961 . S
C7374 H7388 0.961 . S
C7375 C7372 1.539 . S
C7375 H7389 0.958 . S
C7375 H7390 0.961 . S
C7375 H7391 0.960 . S
H7376 C7360 0.931 . S
H7377 C7365 0.929 . S
H7378 C7366 0.960 . S
H7379 C7366 0.962 . S
H7380 C7366 0.960 . S
H7381 C7367 0.961 . S
H7382 C7367 0.961 . S
H7383 C7367 0.961 . S
H7384 C7368 0.931 . S
H7385 C7373 0.930 . S
H7386 C7374 0.956 . S
H7387 C7374 0.961 . S
H7388 C7374 0.961 . S
H7389 C7375 0.958 . S
H7390 C7375 0.961 . S
H7391 C7375 0.960 . S
C7392 C7393 1.391 . S
C7392 C7394 1.394 . S
C7392 H7408 0.931 . S
C7393 C7392 1.391 . S
C7393 C7397 1.376 . S
C7394 C7392 1.394 . S
C7394 C7395 1.369 . S
C7394 C7398 1.531 . S
C7395 C7394 1.369 . S
C7395 C7396 1.410 . S
C7395 C7403 1.503 . S
C7396 C7395 1.410 . S
C7396 C7397 1.392 . S
C7396 C7399 1.511 . S
C7397 C7393 1.376 . S
C7397 C7396 1.392 . S
C7397 H7409 0.929 . S
C7398 C7394 1.531 . S
C7398 H7410 0.960 . S
C7398 H7411 0.962 . S
C7398 H7412 0.960 . S
C7399 C7396 1.511 . S
C7399 H7413 0.961 . S
C7399 H7414 0.961 . S
C7399 H7415 0.961 . S
C7400 C7401 1.370 . S
C7400 C7402 1.363 . S
C7400 H7416 0.931 . S
C7401 C7400 1.370 . S
C7401 C7405 1.408 . S
C7402 C7400 1.363 . S
C7402 C7403 1.370 . S
C7402 C7406 1.524 . S
C7403 C7395 1.503 . S
C7403 C7402 1.370 . S
C7403 C7404 1.403 . S
C7404 C7403 1.403 . S
C7404 C7405 1.404 . S
C7404 C7407 1.539 . S
C7405 C7401 1.408 . S
C7405 C7404 1.404 . S
C7405 H7417 0.930 . S
C7406 C7402 1.524 . S
C7406 H7418 0.956 . S
C7406 H7419 0.961 . S
C7406 H7420 0.961 . S
C7407 C7404 1.539 . S
C7407 H7421 0.958 . S
C7407 H7422 0.961 . S
C7407 H7423 0.960 . S
H7408 C7392 0.931 . S
H7409 C7397 0.929 . S
H7410 C7398 0.960 . S
H7411 C7398 0.962 . S
H7412 C7398 0.960 . S
H7413 C7399 0.961 . S
H7414 C7399 0.961 . S
H7415 C7399 0.961 . S
H7416 C7400 0.931 . S
H7417 C7405 0.930 . S
H7418 C7406 0.956 . S
H7419 C7406 0.961 . S
H7420 C7406 0.961 . S
H7421 C7407 0.958 . S
H7422 C7407 0.961 . S
H7423 C7407 0.960 . S
C7424 C7425 1.391 . S
C7424 C7426 1.394 . S
C7424 H7440 0.931 . S
C7425 C7424 1.391 . S
C7425 C7429 1.376 . S
C7426 C7424 1.394 . S
C7426 C7427 1.369 . S
C7426 C7430 1.531 . S
C7427 C7426 1.369 . S
C7427 C7428 1.410 . S
C7427 C7435 1.503 . S
C7428 C7427 1.410 . S
C7428 C7429 1.392 . S
C7428 C7431 1.511 . S
C7429 C7425 1.376 . S
C7429 C7428 1.392 . S
C7429 H7441 0.929 . S
C7430 C7426 1.531 . S
C7430 H7442 0.960 . S
C7430 H7443 0.962 . S
C7430 H7444 0.960 . S
C7431 C7428 1.511 . S
C7431 H7445 0.961 . S
C7431 H7446 0.961 . S
C7431 H7447 0.961 . S
C7432 C7433 1.370 . S
C7432 C7434 1.363 . S
C7432 H7448 0.931 . S
C7433 C7432 1.370 . S
C7433 C7437 1.408 . S
C7434 C7432 1.363 . S
C7434 C7435 1.370 . S
C7434 C7438 1.524 . S
C7435 C7427 1.503 . S
C7435 C7434 1.370 . S
C7435 C7436 1.403 . S
C7436 C7435 1.403 . S
C7436 C7437 1.404 . S
C7436 C7439 1.539 . S
C7437 C7433 1.408 . S
C7437 C7436 1.404 . S
C7437 H7449 0.930 . S
C7438 C7434 1.524 . S
C7438 H7450 0.956 . S
C7438 H7451 0.961 . S
C7438 H7452 0.961 . S
C7439 C7436 1.539 . S
C7439 H7453 0.958 . S
C7439 H7454 0.961 . S
C7439 H7455 0.960 . S
H7440 C7424 0.931 . S
H7441 C7429 0.929 . S
H7442 C7430 0.960 . S
H7443 C7430 0.962 . S
H7444 C7430 0.960 . S
H7445 C7431 0.961 . S
H7446 C7431 0.961 . S
H7447 C7431 0.961 . S
H7448 C7432 0.931 . S
H7449 C7437 0.930 . S
H7450 C7438 0.956 . S
H7451 C7438 0.961 . S
H7452 C7438 0.961 . S
H7453 C7439 0.958 . S
H7454 C7439 0.961 . S
H7455 C7439 0.960 . S
C7456 C7457 1.391 . S
C7456 C7458 1.394 . S
C7456 H7472 0.931 . S
C7457 C7456 1.391 . S
C7457 C7461 1.376 . S
C7458 C7456 1.394 . S
C7458 C7459 1.369 . S
C7458 C7462 1.531 . S
C7459 C7458 1.369 . S
C7459 C7460 1.410 . S
C7459 C7467 1.503 . S
C7460 C7459 1.410 . S
C7460 C7461 1.392 . S
C7460 C7463 1.511 . S
C7461 C7457 1.376 . S
C7461 C7460 1.392 . S
C7461 H7473 0.929 . S
C7462 C7458 1.531 . S
C7462 H7474 0.960 . S
C7462 H7475 0.962 . S
C7462 H7476 0.960 . S
C7463 C7460 1.511 . S
C7463 H7477 0.961 . S
C7463 H7478 0.961 . S
C7463 H7479 0.961 . S
C7464 C7465 1.370 . S
C7464 C7466 1.363 . S
C7464 H7480 0.931 . S
C7465 C7464 1.370 . S
C7465 C7469 1.408 . S
C7466 C7464 1.363 . S
C7466 C7467 1.370 . S
C7466 C7470 1.524 . S
C7467 C7459 1.503 . S
C7467 C7466 1.370 . S
C7467 C7468 1.403 . S
C7468 C7467 1.403 . S
C7468 C7469 1.404 . S
C7468 C7471 1.539 . S
C7469 C7465 1.408 . S
C7469 C7468 1.404 . S
C7469 H7481 0.930 . S
C7470 C7466 1.524 . S
C7470 H7482 0.956 . S
C7470 H7483 0.961 . S
C7470 H7484 0.961 . S
C7471 C7468 1.539 . S
C7471 H7485 0.958 . S
C7471 H7486 0.961 . S
C7471 H7487 0.960 . S
H7472 C7456 0.931 . S
H7473 C7461 0.929 . S
H7474 C7462 0.960 . S
H7475 C7462 0.962 . S
H7476 C7462 0.960 . S
H7477 C7463 0.961 . S
H7478 C7463 0.961 . S
H7479 C7463 0.961 . S
H7480 C7464 0.931 . S
H7481 C7469 0.930 . S
H7482 C7470 0.956 . S
H7483 C7470 0.961 . S
H7484 C7470 0.961 . S
H7485 C7471 0.958 . S
H7486 C7471 0.961 . S
H7487 C7471 0.960 . S
C1345 C9 1.662 . S
C1353 C961 1.662 . S
C1377 C919 1.635 . S
C1385 C23 1.652 . S
C1409 C933 1.634 . S
C1417 C37 1.649 . S
C1441 C51 1.658 . S
C1449 C947 1.662 . S
C1473 C1003 1.667 . S
C1481 C65 1.659 . S
C1505 C975 1.653 . S
C1513 C79 1.651 . S
C1537 C989 1.634 . S
C1545 C93 1.651 . S
C1569 C107 1.668 . S
C1577 C905 1.661 . S
C1601 C121 1.641 . S
C1609 C891 1.648 . S
C1633 C135 1.668 . S
C1641 C849 1.660 . S
C1665 C149 1.653 . S
C1673 C863 1.651 . S
C1697 C163 1.634 . S
C1705 C877 1.649 . S
C1729 C177 1.645 . S
C1737 C807 1.649 . S
C1761 C821 1.667 . S
C1769 C191 1.662 . S
C1793 C835 1.635 . S
C1801 C205 1.652 . S
C1825 C219 1.648 . S
C1833 C793 1.649 . S
C1857 C233 1.667 . S
C1865 C779 1.658 . S
C1889 C247 1.667 . S
C1897 C695 1.658 . S
C1921 C709 1.663 . S
C1929 C261 1.662 . S
C1953 C723 1.635 . S
C1961 C275 1.652 . S
C1985 C681 1.654 . S
C1993 C289 1.651 . S
C2017 C303 1.640 . S
C2025 C751 1.648 . S
C2049 C317 1.644 . S
C2057 C765 1.648 . S
C2081 C331 1.656 . S
C2089 C737 1.661 . S
C2113 C345 1.634 . S
C2121 C1297 1.650 . S
C2145 C359 1.634 . S
C2153 C1255 1.648 . S
C2177 C373 1.666 . S
C2185 C1269 1.660 . S
C2209 C387 1.651 . S
C2217 C1283 1.658 . S
C2241 C401 1.668 . S
C2249 C1339 1.661 . S
C2273 C415 1.636 . S
C2281 C1311 1.651 . S
C2305 C1325 1.634 . S
C2313 C429 1.648 . S
C2337 C443 1.667 . S
C2345 C1241 1.662 . S
C2369 C457 1.636 . S
C2377 C1227 1.651 . S
C2401 C1185 1.657 . S
C2409 C471 1.655 . S
C2433 C485 1.668 . S
C2441 C1199 1.661 . S
C2465 C499 1.663 . S
C2473 C1213 1.658 . S
C2497 C513 1.660 . S
C2505 C1143 1.656 . S
C2529 C527 1.664 . S
C2537 C1157 1.662 . S
C2561 C541 1.634 . S
C2569 C1171 1.649 . S
C2593 C1129 1.645 . S
C2601 C555 1.656 . S
C2625 C569 1.642 . S
C2633 C1115 1.649 . S
C2657 C583 1.637 . S
C2665 C1031 1.651 . S
C2689 C597 1.663 . S
C2697 C1045 1.662 . S
C2721 C1059 1.667 . S
C2729 C611 1.662 . S
C2753 C625 1.651 . S
C2761 C1017 1.658 . S
C2785 C1087 1.667 . S
C2793 C639 1.662 . S
C2817 C653 1.640 . S
C2825 C1101 1.653 . S
C2849 C667 1.651 . S
C2857 C1073 1.652 . S
C2881 C7 1.452 . S
C2889 C553 1.456 . S
C2913 C21 1.469 . S
C2921 C511 1.463 . S
C2945 C525 1.466 . S
C2953 C35 1.465 . S
C2977 C49 1.473 . S
C2985 C539 1.465 . S
C3009 C469 1.475 . S
C3017 C63 1.468 . S
C3041 C483 1.431 . S
C3049 C77 1.449 . S
C3073 C497 1.449 . S
C3081 C91 1.458 . S
C3105 C455 1.465 . S
C3113 C105 1.461 . S
C3137 C441 1.432 . S
C3145 C119 1.450 . S
C3169 C133 1.480 . S
C3177 C399 1.470 . S
C3201 C413 1.430 . S
C3209 C147 1.449 . S
C3233 C161 1.446 . S
C3241 C427 1.454 . S
C3265 C357 1.454 . S
C3273 C175 1.461 . S
C3297 C371 1.445 . S
C3305 C189 1.453 . S
C3329 C203 1.433 . S
C3337 C385 1.449 . S
C3361 C217 1.481 . S
C3369 C343 1.470 . S
C3393 C231 1.455 . S
C3401 C623 1.461 . S
C3425 C245 1.481 . S
C3433 C665 1.470 . S
C3457 C637 1.481 . S
C3465 C259 1.469 . S
C3489 C651 1.474 . S
C3497 C273 1.466 . S
C3521 C287 1.472 . S
C3529 C567 1.465 . S
C3553 C301 1.469 . S
C3561 C595 1.463 . S
C3585 C609 1.430 . S
C3593 C315 1.449 . S
C3617 C329 1.430 . S
C3625 C581 1.449 . S
C3649 C1225 1.461 . S
C3657 C679 1.460 . S
C3681 C1183 1.441 . S
C3689 C693 1.455 . S
C3713 C1197 1.466 . S
C3721 C707 1.465 . S
C3745 C721 1.438 . S
C3753 C1211 1.453 . S
C3777 C1141 1.454 . S
C3785 C735 1.457 . S
C3809 C1155 1.431 . S
C3817 C749 1.450 . S
C3841 C763 1.450 . S
C3849 C1169 1.455 . S
C3873 C777 1.481 . S
C3881 C1127 1.470 . S
C3905 C1113 1.481 . S
C3913 C791 1.469 . S
C3937 C805 1.476 . S
C3945 C1071 1.469 . S
C3969 C1085 1.433 . S
C3977 C819 1.449 . S
C4001 C1099 1.458 . S
C4009 C833 1.462 . S
C4033 C847 1.430 . S
C4041 C1029 1.449 . S
C4065 C861 1.481 . S
C4073 C1043 1.470 . S
C4097 C1057 1.474 . S
C4105 C875 1.465 . S
C4129 C889 1.465 . S
C4137 C1015 1.465 . S
C4161 C1295 1.430 . S
C4169 C903 1.449 . S
C4193 C1337 1.442 . S
C4201 C917 1.452 . S
C4225 C931 1.437 . S
C4233 C1309 1.453 . S
C4257 C1323 1.465 . S
C4265 C945 1.462 . S
C4289 C1239 1.434 . S
C4297 C959 1.451 . S
C4321 C1267 1.434 . S
C4329 C973 1.450 . S
C4353 C987 1.432 . S
C4361 C1281 1.450 . S
C4385 C1253 1.432 . S
C4393 C1001 1.449 . S
C4417 C8 1.215 . S
C4425 C400 1.229 . S
C4449 C414 1.222 . S
C4457 C22 1.231 . S
C4481 C36 1.249 . S
C4489 C428 1.244 . S
C4513 C442 1.215 . S
C4521 C50 1.229 . S
C4545 C64 1.242 . S
C4553 C344 1.239 . S
C4577 C78 1.218 . S
C4585 C358 1.230 . S
C4609 C92 1.218 . S
C4617 C372 1.230 . S
C4641 C386 1.215 . S
C4649 C106 1.229 . S
C4673 C540 1.252 . S
C4681 C120 1.244 . S
C4705 C134 1.244 . S
C4713 C554 1.240 . S
C4737 C148 1.215 . S
C4745 C512 1.229 . S
C4769 C162 1.247 . S
C4777 C526 1.242 . S
C4801 C176 1.253 . S
C4809 C484 1.245 . S
C4833 C190 1.253 . S
C4841 C498 1.245 . S
C4865 C204 1.221 . S
C4873 C456 1.233 . S
C4897 C218 1.220 . S
C4905 C470 1.232 . S
C4929 C232 1.226 . S
C4937 C638 1.235 . S
C4961 C246 1.248 . S
C4969 C610 1.244 . S
C4993 C624 1.215 . S
C5001 C260 1.230 . S
C5025 C274 1.222 . S
C5033 C582 1.231 . S
C5057 C596 1.224 . S
C5065 C288 1.234 . S
C5089 C302 1.230 . S
C5097 C568 1.237 . S
C5121 C316 1.219 . S
C5129 C666 1.232 . S
C5153 C652 1.246 . S
C5161 C330 1.243 . S
C5185 C1072 1.217 . S
C5193 C680 1.231 . S
C5217 C694 1.246 . S
C5225 C1086 1.243 . S
C5249 C1100 1.244 . S
C5257 C708 1.240 . S
C5281 C722 1.238 . S
C5289 C1114 1.237 . S
C5313 C1016 1.221 . S
C5321 C736 1.231 . S
C5345 C1030 1.218 . S
C5353 C750 1.230 . S
C5377 C1044 1.224 . S
C5385 C764 1.234 . S
C5409 C778 1.217 . S
C5417 C1058 1.231 . S
C5441 C792 1.216 . S
C5449 C1212 1.230 . S
C5473 C1226 1.248 . S
C5481 C806 1.244 . S
C5505 C1184 1.216 . S
C5513 C820 1.230 . S
C5537 C1198 1.222 . S
C5545 C834 1.231 . S
C5569 C848 1.245 . S
C5577 C1156 1.240 . S
C5601 C862 1.253 . S
C5609 C1170 1.245 . S
C5633 C1128 1.216 . S
C5641 C876 1.230 . S
C5665 C1142 1.220 . S
C5673 C890 1.230 . S
C5697 C1310 1.230 . S
C5705 C904 1.234 . S
C5729 C918 1.243 . S
C5737 C1282 1.242 . S
C5761 C1296 1.215 . S
C5769 C932 1.230 . S
C5793 C946 1.222 . S
C5801 C1254 1.231 . S
C5825 C960 1.224 . S
C5833 C1268 1.234 . S
C5857 C974 1.224 . S
C5865 C1240 1.232 . S
C5889 C1338 1.217 . S
C5897 C988 1.230 . S
C5921 C1002 1.244 . S
C5929 C1324 1.240 . S
C5953 C437 1.282 . S
C5961 C3 1.292 . S
C5985 C395 1.304 . S
C5993 C17 1.301 . S
C6017 C31 1.288 . S
C6025 C409 1.294 . S
C6049 C423 1.304 . S
C6057 C45 1.301 . S
C6081 C353 1.303 . S
C6089 C59 1.302 . S
C6113 C73 1.308 . S
C6121 C367 1.304 . S
C6145 C87 1.295 . S
C6153 C381 1.297 . S
C6177 C339 1.279 . S
C6185 C101 1.291 . S
C6209 C619 1.279 . S
C6217 C115 1.292 . S
C6241 C129 1.301 . S
C6249 C577 1.301 . S
C6273 C143 1.309 . S
C6281 C591 1.304 . S
C6305 C605 1.300 . S
C6313 C157 1.301 . S
C6337 C171 1.307 . S
C6345 C661 1.302 . S
C6369 C633 1.283 . S
C6377 C185 1.292 . S
C6401 C647 1.307 . S
C6409 C199 1.302 . S
C6433 C213 1.288 . S
C6441 C563 1.294 . S
C6465 C227 1.296 . S
C6473 C549 1.297 . S
C6497 C241 1.296 . S
C6505 C465 1.297 . S
C6529 C255 1.308 . S
C6537 C479 1.303 . S
C6561 C493 1.305 . S
C6569 C269 1.301 . S
C6593 C451 1.283 . S
C6601 C283 1.294 . S
C6625 C297 1.291 . S
C6633 C521 1.295 . S
C6657 C311 1.283 . S
C6665 C535 1.292 . S
C6689 C325 1.285 . S
C6697 C507 1.293 . S
C6721 C675 1.289 . S
C6729 C1109 1.296 . S
C6753 C689 1.293 . S
C6761 C1067 1.296 . S
C6785 C703 1.290 . S
C6793 C1081 1.297 . S
C6817 C1095 1.309 . S
C6825 C717 1.304 . S
C6849 C1025 1.292 . S
C6857 C731 1.295 . S
C6881 C1039 1.293 . S
C6889 C745 1.298 . S
C6913 C759 1.297 . S
C6921 C1053 1.298 . S
C6945 C1011 1.280 . S
C6953 C773 1.291 . S
C6977 C1291 1.306 . S
C6985 C787 1.302 . S
C7009 C1249 1.287 . S
C7017 C801 1.294 . S
C7041 C1263 1.281 . S
C7049 C815 1.293 . S
C7073 C1277 1.301 . S
C7081 C829 1.301 . S
C7105 C1333 1.286 . S
C7113 C843 1.295 . S
C7137 C1305 1.299 . S
C7145 C857 1.300 . S
C7169 C1319 1.307 . S
C7177 C871 1.302 . S
C7201 C1235 1.287 . S
C7209 C885 1.293 . S
C7233 C899 1.295 . S
C7241 C1221 1.299 . S
C7265 C1137 1.294 . S
C7273 C913 1.298 . S
C7297 C1151 1.300 . S
C7305 C927 1.299 . S
C7329 C1165 1.283 . S
C7337 C941 1.292 . S
C7361 C1123 1.286 . S
C7369 C955 1.295 . S
C7393 C1193 1.307 . S
C7401 C969 1.303 . S
C7425 C1207 1.282 . S
C7433 C983 1.293 . S
C7457 C1179 1.287 . S
C7465 C997 1.295 . S
