# Generated by pormake.
# Topology wmi, (6)-cn, num edge types: 1
# Building blocks:
#     Node 0, Type 0, BuildingBlock: FUNLAD_clean_sbu_0, # of connection points: 6
#     Node 1, Type 0, BuildingBlock: FUNLAD_clean_sbu_0, # of connection points: 6
#     Node 2, Type 0, BuildingBlock: FUNLAD_clean_sbu_0, # of connection points: 6
#     Node 3, Type 0, BuildingBlock: FUNLAD_clean_sbu_0, # of connection points: 6
#     Node 4, Type 0, BuildingBlock: FUNLAD_clean_sbu_0, # of connection points: 6
#     Node 5, Type 0, BuildingBlock: FUNLAD_clean_sbu_0, # of connection points: 6
#     Node 6, Type 0, BuildingBlock: FUNLAD_clean_sbu_0, # of connection points: 6
#     Node 7, Type 0, BuildingBlock: FUNLAD_clean_sbu_0, # of connection points: 6
#     Node 8, Type 0, BuildingBlock: FUNLAD_clean_sbu_0, # of connection points: 6
#     Node 9, Type 0, BuildingBlock: FUNLAD_clean_sbu_0, # of connection points: 6
#     Node 10, Type 0, BuildingBlock: FUNLAD_clean_sbu_0, # of connection points: 6
#     Node 11, Type 0, BuildingBlock: FUNLAD_clean_sbu_0, # of connection points: 6
#     Node 12, Type 0, BuildingBlock: FUNLAD_clean_sbu_0, # of connection points: 6
#     Node 13, Type 0, BuildingBlock: FUNLAD_clean_sbu_0, # of connection points: 6
#     Node 14, Type 0, BuildingBlock: FUNLAD_clean_sbu_0, # of connection points: 6
#     Node 15, Type 0, BuildingBlock: FUNLAD_clean_sbu_0, # of connection points: 6
#     Node 16, Type 0, BuildingBlock: FUNLAD_clean_sbu_0, # of connection points: 6
#     Node 17, Type 0, BuildingBlock: FUNLAD_clean_sbu_0, # of connection points: 6
#     Edge 18, Type (0, 0), BuildingBlock: XIVTED_clean_linker_0, # of connection points: 2
#     Edge 19, Type (0, 0), BuildingBlock: XIVTED_clean_linker_0, # of connection points: 2
#     Edge 20, Type (0, 0), BuildingBlock: XIVTED_clean_linker_0, # of connection points: 2
#     Edge 21, Type (0, 0), BuildingBlock: XIVTED_clean_linker_0, # of connection points: 2
#     Edge 22, Type (0, 0), BuildingBlock: XIVTED_clean_linker_0, # of connection points: 2
#     Edge 23, Type (0, 0), BuildingBlock: XIVTED_clean_linker_0, # of connection points: 2
#     Edge 24, Type (0, 0), BuildingBlock: XIVTED_clean_linker_0, # of connection points: 2
#     Edge 25, Type (0, 0), BuildingBlock: XIVTED_clean_linker_0, # of connection points: 2
#     Edge 26, Type (0, 0), BuildingBlock: XIVTED_clean_linker_0, # of connection points: 2
#     Edge 27, Type (0, 0), BuildingBlock: XIVTED_clean_linker_0, # of connection points: 2
#     Edge 28, Type (0, 0), BuildingBlock: XIVTED_clean_linker_0, # of connection points: 2
#     Edge 29, Type (0, 0), BuildingBlock: XIVTED_clean_linker_0, # of connection points: 2
#     Edge 30, Type (0, 0), BuildingBlock: XIVTED_clean_linker_0, # of connection points: 2
#     Edge 31, Type (0, 0), BuildingBlock: XIVTED_clean_linker_0, # of connection points: 2
#     Edge 32, Type (0, 0), BuildingBlock: XIVTED_clean_linker_0, # of connection points: 2
#     Edge 33, Type (0, 0), BuildingBlock: XIVTED_clean_linker_0, # of connection points: 2
#     Edge 34, Type (0, 0), BuildingBlock: XIVTED_clean_linker_0, # of connection points: 2
#     Edge 35, Type (0, 0), BuildingBlock: XIVTED_clean_linker_0, # of connection points: 2
#     Edge 36, Type (0, 0), BuildingBlock: XIVTED_clean_linker_0, # of connection points: 2
#     Edge 37, Type (0, 0), BuildingBlock: XIVTED_clean_linker_0, # of connection points: 2
#     Edge 38, Type (0, 0), BuildingBlock: XIVTED_clean_linker_0, # of connection points: 2
#     Edge 39, Type (0, 0), BuildingBlock: XIVTED_clean_linker_0, # of connection points: 2
#     Edge 40, Type (0, 0), BuildingBlock: XIVTED_clean_linker_0, # of connection points: 2
#     Edge 41, Type (0, 0), BuildingBlock: XIVTED_clean_linker_0, # of connection points: 2
#     Edge 42, Type (0, 0), BuildingBlock: XIVTED_clean_linker_0, # of connection points: 2
#     Edge 43, Type (0, 0), BuildingBlock: XIVTED_clean_linker_0, # of connection points: 2
#     Edge 44, Type (0, 0), BuildingBlock: XIVTED_clean_linker_0, # of connection points: 2
#     Edge 45, Type (0, 0), BuildingBlock: XIVTED_clean_linker_0, # of connection points: 2
#     Edge 46, Type (0, 0), BuildingBlock: XIVTED_clean_linker_0, # of connection points: 2
#     Edge 47, Type (0, 0), BuildingBlock: XIVTED_clean_linker_0, # of connection points: 2
#     Edge 48, Type (0, 0), BuildingBlock: XIVTED_clean_linker_0, # of connection points: 2
#     Edge 49, Type (0, 0), BuildingBlock: XIVTED_clean_linker_0, # of connection points: 2
#     Edge 50, Type (0, 0), BuildingBlock: XIVTED_clean_linker_0, # of connection points: 2
#     Edge 51, Type (0, 0), BuildingBlock: XIVTED_clean_linker_0, # of connection points: 2
#     Edge 52, Type (0, 0), BuildingBlock: XIVTED_clean_linker_0, # of connection points: 2
#     Edge 53, Type (0, 0), BuildingBlock: XIVTED_clean_linker_0, # of connection points: 2
#     Edge 54, Type (0, 0), BuildingBlock: XIVTED_clean_linker_0, # of connection points: 2
#     Edge 55, Type (0, 0), BuildingBlock: XIVTED_clean_linker_0, # of connection points: 2
#     Edge 56, Type (0, 0), BuildingBlock: XIVTED_clean_linker_0, # of connection points: 2
#     Edge 57, Type (0, 0), BuildingBlock: XIVTED_clean_linker_0, # of connection points: 2
#     Edge 58, Type (0, 0), BuildingBlock: XIVTED_clean_linker_0, # of connection points: 2
#     Edge 59, Type (0, 0), BuildingBlock: XIVTED_clean_linker_0, # of connection points: 2
#     Edge 60, Type (0, 0), BuildingBlock: XIVTED_clean_linker_0, # of connection points: 2
#     Edge 61, Type (0, 0), BuildingBlock: XIVTED_clean_linker_0, # of connection points: 2
#     Edge 62, Type (0, 0), BuildingBlock: XIVTED_clean_linker_0, # of connection points: 2
#     Edge 63, Type (0, 0), BuildingBlock: XIVTED_clean_linker_0, # of connection points: 2
#     Edge 64, Type (0, 0), BuildingBlock: XIVTED_clean_linker_0, # of connection points: 2
#     Edge 65, Type (0, 0), BuildingBlock: XIVTED_clean_linker_0, # of connection points: 2
#     Edge 66, Type (0, 0), BuildingBlock: XIVTED_clean_linker_0, # of connection points: 2
#     Edge 67, Type (0, 0), BuildingBlock: XIVTED_clean_linker_0, # of connection points: 2
#     Edge 68, Type (0, 0), BuildingBlock: XIVTED_clean_linker_0, # of connection points: 2
#     Edge 69, Type (0, 0), BuildingBlock: XIVTED_clean_linker_0, # of connection points: 2
#     Edge 70, Type (0, 0), BuildingBlock: XIVTED_clean_linker_0, # of connection points: 2
#     Edge 71, Type (0, 0), BuildingBlock: XIVTED_clean_linker_0, # of connection points: 2
# Relax obj value: 0.160
# Max RMSD: 0.212
# Mean RMSD: 0.212
data_MOF--net-wmi--node1-FUNLAD_clean_sbu_0--edge1-XIVTED_clean_linker_0
_symmetry_space_group_name_H-M    P1
_symmetry_Int_Tables_number       1
_symmetry_cell_setting            triclinic
loop_
_symmetry_equiv_pos_as_xyz
'x, y, z'
_cell_length_a     28.076091
_cell_length_b     28.074385
_cell_length_c     130.71961
_cell_angle_alpha  89.987377
_cell_angle_beta   90.011974
_cell_angle_gamma 120.05032
loop_
_atom_site_label
_atom_site_type_symbol
_atom_site_fract_x
_atom_site_fract_y
_atom_site_fract_z
_atom_type_partial_charge
C0 C 0.32903 0.95327 0.08934 0.0
N1 N 0.42943 0.03258 0.11444 0.0
C2 C 0.3822 0.02802 0.11823 0.0
C3 C 0.37197 0.02305 0.1287 0.0
C4 C 0.41113 0.02391 0.13551 0.0
C5 C 0.46018 0.02972 0.1314 0.0
C6 C 0.4684 0.03372 0.12079 0.0
Zn7 Zn 0.43652 0.03516 0.09879 0.0
C8 C 0.46944 0.95865 0.09053 0.0
N9 N 0.441 0.03774 0.06609 0.0
C10 C 0.39948 0.03806 0.06078 0.0
C11 C 0.48342 0.03717 0.06116 0.0
C12 C 0.4848 0.0363 0.05048 0.0
C13 C 0.44204 0.03585 0.04481 0.0
C14 C 0.39918 0.03712 0.05011 0.0
Zn15 Zn 0.43738 0.03617 0.08174 0.0
O16 O 0.35335 0.97267 0.09779 0.0
C17 C 0.41245 0.11873 0.09005 0.0
O18 O 0.35429 0.97444 0.08105 0.0
H19 H 0.51597 0.03679 0.06553 0.0
H20 H 0.35174 0.02743 0.11309 0.0
H21 H 0.36623 0.03869 0.06484 0.0
O22 O 0.41597 0.09762 0.0984 0.0
O23 O 0.41715 0.09882 0.08164 0.0
H24 H 0.50572 0.03744 0.11763 0.0
O25 O 0.52101 0.0958 0.08261 0.0
O26 O 0.52074 0.09531 0.09943 0.0
O27 O 0.46042 0.97563 0.08214 0.0
O28 O 0.4601 0.97509 0.09896 0.0
C29 C 0.54684 0.11213 0.09103 0.0
H30 H 0.333 0.01744 0.13138 0.0
H31 H 0.49204 0.03141 0.13631 0.0
H32 H 0.51838 0.0348 0.04671 0.0
H33 H 0.36582 0.0377 0.04606 0.0
C34 C 0.11589 0.41754 0.08949 0.0
N35 N 0.03446 0.43554 0.11449 0.0
C36 C 0.04032 0.39379 0.11836 0.0
C37 C 0.04561 0.3892 0.12885 0.0
C38 C 0.04371 0.42722 0.13558 0.0
C39 C 0.0365 0.46945 0.13139 0.0
C40 C 0.03226 0.47305 0.12077 0.0
Zn41 Zn 0.03171 0.43943 0.09884 0.0
C42 C 0.10509 0.54969 0.09047 0.0
N43 N 0.02824 0.44019 0.06609 0.0
C44 C 0.03723 0.40368 0.06081 0.0
C45 C 0.01875 0.4772 0.06111 0.0
C46 C 0.01778 0.47818 0.05042 0.0
C47 C 0.02793 0.44156 0.04473 0.0
C48 C 0.03802 0.40415 0.05014 0.0
Zn49 Zn 0.03016 0.43883 0.08178 0.0
O50 O 0.09563 0.42099 0.09794 0.0
C51 C 0.95066 0.33034 0.09017 0.0
O52 O 0.09467 0.42156 0.08121 0.0
H53 H 0.01185 0.50607 0.06541 0.0
H54 H 0.04173 0.36415 0.11328 0.0
H55 H 0.04429 0.37424 0.06488 0.0
O56 O 0.9709 0.35574 0.0985 0.0
O57 O 0.97042 0.35483 0.08173 0.0
H58 H 0.02752 0.50592 0.11754 0.0
O59 O 0.96765 0.45869 0.08264 0.0
O60 O 0.96997 0.46111 0.09945 0.0
O61 O 0.08781 0.52355 0.08209 0.0
O62 O 0.09017 0.52374 0.09891 0.0
C63 C 0.9515 0.46835 0.09106 0.0
H64 H 0.05231 0.35664 0.13158 0.0
H65 H 0.03396 0.49934 0.13624 0.0
H66 H 0.00871 0.50715 0.0467 0.0
H67 H 0.0473 0.3758 0.04623 0.0
C68 C 0.65486 0.74083 0.08909 0.0
N69 N 0.63414 0.64053 0.11417 0.0
C70 C 0.67661 0.68779 0.11801 0.0
C71 C 0.6815 0.69784 0.1285 0.0
C72 C 0.643 0.65846 0.13526 0.0
C73 C 0.60004 0.60934 0.1311 0.0
C74 C 0.59619 0.60132 0.12048 0.0
Zn75 Zn 0.62959 0.63358 0.09852 0.0
C76 C 0.51991 0.60055 0.09034 0.0
N77 N 0.6269 0.62888 0.0658 0.0
C78 C 0.66862 0.67038 0.06045 0.0
C79 C 0.58377 0.58635 0.06091 0.0
C80 C 0.58125 0.58481 0.05022 0.0
C81 C 0.62345 0.62751 0.04451 0.0
C82 C 0.66771 0.67052 0.04978 0.0
Zn83 Zn 0.62926 0.63254 0.08146 0.0
O84 O 0.65021 0.71659 0.09754 0.0
C85 C 0.737 0.65784 0.08972 0.0
O86 O 0.65055 0.71554 0.0808 0.0
H87 H 0.55094 0.55383 0.0653 0.0
H88 H 0.70658 0.71846 0.11291 0.0
H89 H 0.7026 0.70373 0.06448 0.0
O90 O 0.71256 0.6544 0.09809 0.0
O91 O 0.71218 0.65296 0.08132 0.0
H92 H 0.56274 0.56398 0.11728 0.0
O93 O 0.6054 0.54899 0.08232 0.0
O94 O 0.60568 0.54942 0.09914 0.0
O95 O 0.5456 0.60937 0.08192 0.0
O96 O 0.54598 0.60993 0.09874 0.0
C97 C 0.5963 0.52327 0.09075 0.0
H98 H 0.71467 0.73685 0.13121 0.0
H99 H 0.56975 0.57728 0.13596 0.0
H100 H 0.54607 0.55112 0.04649 0.0
H101 H 0.70157 0.70384 0.0457 0.0
C102 C 0.94726 0.33295 0.92331 0.0
N103 N 0.02501 0.4315 0.898 0.0
C104 C 0.01744 0.38336 0.89403 0.0
C105 C 0.01054 0.37357 0.88354 0.0
C106 C 0.01266 0.41413 0.87701 0.0
C107 C 0.02212 0.46417 0.88121 0.0
C108 C 0.02767 0.47185 0.89183 0.0
Zn109 Zn 0.03003 0.43879 0.91364 0.0
C110 C 0.95735 0.47568 0.92247 0.0
N111 N 0.03748 0.44501 0.94637 0.0
C112 C 0.02892 0.39996 0.95176 0.0
C113 C 0.04731 0.49193 0.95123 0.0
C114 C 0.04891 0.49475 0.96191 0.0
C115 C 0.03896 0.4484 0.96772 0.0
C116 C 0.02875 0.4005 0.96243 0.0
Zn117 Zn 0.03349 0.44056 0.93069 0.0
O118 O 0.96657 0.35653 0.91481 0.0
C119 C 0.11217 0.41149 0.92194 0.0
O120 O 0.96918 0.35847 0.93154 0.0
H121 H 0.05377 0.52731 0.94684 0.0
H122 H 0.01631 0.35209 0.89901 0.0
H123 H 0.0215 0.3631 0.94779 0.0
O124 O 0.09102 0.41607 0.91367 0.0
O125 O 0.0933 0.41666 0.93044 0.0
H126 H 0.03365 0.50978 0.89514 0.0
O127 O 0.09575 0.52339 0.92952 0.0
O128 O 0.09143 0.52183 0.91273 0.0
O129 O 0.9757 0.46696 0.93072 0.0
O130 O 0.97134 0.46474 0.91392 0.0
C131 C 0.11081 0.5484 0.92099 0.0
H132 H 0.00412 0.33481 0.88054 0.0
H133 H 0.02403 0.49637 0.87636 0.0
H134 H 0.05812 0.5331 0.96552 0.0
H135 H 0.01966 0.36317 0.96645 0.0
C136 C 0.73347 0.65504 0.92335 0.0
N137 N 0.63415 0.63073 0.89791 0.0
C138 C 0.68206 0.67171 0.89393 0.0
C139 C 0.69201 0.67444 0.88344 0.0
C140 C 0.65184 0.63541 0.87693 0.0
C141 C 0.60202 0.5944 0.88114 0.0
C142 C 0.59418 0.59245 0.89175 0.0
Zn143 Zn 0.62654 0.62859 0.91355 0.0
C144 C 0.59312 0.51977 0.92241 0.0
N145 N 0.61986 0.62944 0.94624 0.0
C146 C 0.66072 0.67168 0.9516 0.0
C147 C 0.57694 0.58661 0.95111 0.0
C148 C 0.5743 0.58493 0.96179 0.0
C149 C 0.61619 0.62777 0.96753 0.0
C150 C 0.6597 0.67168 0.96228 0.0
Zn151 Zn 0.62472 0.63 0.93059 0.0
O152 O 0.70943 0.64933 0.91484 0.0
C153 C 0.65024 0.73692 0.92174 0.0
O154 O 0.70796 0.65164 0.93157 0.0
H155 H 0.54481 0.55345 0.94671 0.0
H156 H 0.71303 0.7023 0.8989 0.0
H157 H 0.69459 0.70522 0.94758 0.0
O158 O 0.64739 0.71184 0.91348 0.0
O159 O 0.64488 0.71277 0.93024 0.0
H160 H 0.55644 0.56017 0.89506 0.0
O161 O 0.54072 0.6054 0.92939 0.0
O162 O 0.54282 0.60482 0.91258 0.0
O163 O 0.60207 0.54682 0.93066 0.0
O164 O 0.6025 0.54451 0.91386 0.0
C165 C 0.5158 0.59566 0.92086 0.0
H166 H 0.73059 0.70711 0.88044 0.0
H167 H 0.5701 0.56362 0.87631 0.0
H168 H 0.53962 0.55061 0.9655 0.0
H169 H 0.69327 0.70522 0.96637 0.0
C170 C 0.40835 0.11677 0.92364 0.0
N171 N 0.43028 0.03999 0.89825 0.0
C172 C 0.38768 0.0449 0.89454 0.0
C173 C 0.38235 0.05044 0.88408 0.0
C174 C 0.42051 0.04978 0.87721 0.0
C175 C 0.46375 0.04372 0.88124 0.0
C176 C 0.46805 0.03917 0.89184 0.0
Zn177 Zn 0.43463 0.036 0.91389 0.0
C178 C 0.54361 0.11223 0.92238 0.0
N179 N 0.43585 0.03066 0.94658 0.0
C180 C 0.39405 0.02949 0.95205 0.0
C181 C 0.47903 0.03077 0.95134 0.0
C182 C 0.48144 0.03005 0.96201 0.0
C183 C 0.43897 0.02913 0.96785 0.0
C184 C 0.39478 0.0287 0.96272 0.0
Zn185 Zn 0.43374 0.03377 0.93094 0.0
O186 O 0.4138 0.09808 0.91516 0.0
C187 C 0.32661 0.95203 0.92249 0.0
O188 O 0.41224 0.09519 0.9319 0.0
H189 H 0.51181 0.03161 0.94685 0.0
H190 H 0.35781 0.04519 0.89971 0.0
H191 H 0.36022 0.02964 0.94812 0.0
O192 O 0.35154 0.97352 0.91417 0.0
O193 O 0.35104 0.97135 0.93094 0.0
H194 H 0.50159 0.03515 0.89494 0.0
O195 O 0.4579 0.97423 0.92978 0.0
O196 O 0.45852 0.976 0.91296 0.0
O197 O 0.51696 0.09439 0.93069 0.0
O198 O 0.51856 0.09631 0.91387 0.0
C199 C 0.46749 0.95847 0.9213 0.0
H200 H 0.34901 0.05622 0.88147 0.0
H201 H 0.49381 0.04216 0.87629 0.0
H202 H 0.51596 0.02973 0.96563 0.0
H203 H 0.36153 0.02878 0.9669 0.0
C204 C -0.00798 0.28487 0.42227 0.0
N205 N 0.09181 0.35903 0.44757 0.0
C206 C 0.04769 0.36008 0.45161 0.0
C207 C 0.03705 0.35281 0.46207 0.0
C208 C 0.07184 0.34393 0.46852 0.0
C209 C 0.11784 0.34415 0.46419 0.0
C210 C 0.12709 0.35178 0.45363 0.0
Zn211 Zn 0.0994 0.36418 0.43195 0.0
C212 C 0.13118 0.28753 0.42317 0.0
N213 N 0.10594 0.37106 0.39928 0.0
C214 C 0.06495 0.37208 0.39391 0.0
C215 C 0.14869 0.37083 0.39443 0.0
C216 C 0.15095 0.37092 0.38375 0.0
C217 C 0.10875 0.37114 0.378 0.0
C218 C 0.06554 0.37213 0.38323 0.0
Zn219 Zn 0.10134 0.36746 0.41492 0.0
O220 O 0.01588 0.30359 0.43078 0.0
C221 C 0.07739 0.44995 0.42362 0.0
O222 O 0.01798 0.30621 0.41404 0.0
H223 H 0.18079 0.36984 0.39884 0.0
H224 H 0.01996 0.36568 0.44668 0.0
H225 H 0.03142 0.3724 0.39792 0.0
O226 O 0.08084 0.42819 0.4319 0.0
O227 O 0.08173 0.43044 0.41513 0.0
H228 H 0.16179 0.35084 0.45026 0.0
O229 O 0.18544 0.42653 0.41607 0.0
O230 O 0.18359 0.42261 0.43287 0.0
O231 O 0.12339 0.30648 0.41492 0.0
O232 O 0.12127 0.30254 0.4317 0.0
C233 C 0.21051 0.44087 0.4246 0.0
H234 H 0.00175 0.35411 0.46506 0.0
H235 H 0.14558 0.33708 0.46885 0.0
H236 H 0.18474 0.36955 0.38004 0.0
H237 H 0.03258 0.37316 0.37912 0.0
C238 C 0.77887 0.74769 0.42228 0.0
N239 N 0.70046 0.76891 0.4475 0.0
C240 C 0.70669 0.7274 0.45138 0.0
C241 C 0.71241 0.72314 0.46187 0.0
C242 C 0.71053 0.76122 0.46859 0.0
C243 C 0.70303 0.80324 0.46439 0.0
C244 C 0.69838 0.80652 0.45377 0.0
Zn245 Zn 0.69646 0.77207 0.43184 0.0
C246 C 0.77099 0.88148 0.42319 0.0
N247 N 0.69125 0.77144 0.39915 0.0
C248 C 0.69097 0.72962 0.39384 0.0
C249 C 0.69053 0.8138 0.39423 0.0
C250 C 0.68987 0.81533 0.38355 0.0
C251 C 0.68985 0.77282 0.37787 0.0
C252 C 0.69025 0.72948 0.38317 0.0
Zn253 Zn 0.69433 0.77047 0.41479 0.0
O254 O 0.75979 0.75297 0.43073 0.0
C255 C 0.61394 0.66292 0.42342 0.0
O256 O 0.75697 0.75065 0.414 0.0
H257 H 0.69066 0.8466 0.39859 0.0
H258 H 0.70793 0.69762 0.44632 0.0
H259 H 0.69178 0.69646 0.3979 0.0
O260 O 0.63511 0.68838 0.4317 0.0
O261 O 0.63301 0.68716 0.41494 0.0
H262 H 0.69332 0.83919 0.45053 0.0
O263 O 0.6336 0.79289 0.41578 0.0
O264 O 0.63529 0.79424 0.43259 0.0
O265 O 0.75373 0.85444 0.41491 0.0
O266 O 0.75548 0.85655 0.43172 0.0
C267 C 0.61745 0.80239 0.42422 0.0
H268 H 0.71932 0.69073 0.46461 0.0
H269 H 0.70047 0.83316 0.46922 0.0
H270 H 0.68891 0.84921 0.37978 0.0
H271 H 0.69104 0.69625 0.37912 0.0
C272 C 0.31886 0.07231 0.42234 0.0
N273 N 0.29477 0.97319 0.44765 0.0
C274 C 0.34008 0.01726 0.45169 0.0
C275 C 0.34358 0.02788 0.46216 0.0
C276 C 0.29985 -0.00686 0.46861 0.0
C277 C 0.25392 0.9472 0.46428 0.0
C278 C 0.25222 0.93795 0.45373 0.0
Zn279 Zn 0.29171 0.96551 0.43203 0.0
C280 C 0.18252 0.93318 0.42351 0.0
N281 N 0.28999 0.95817 0.39933 0.0
C282 C 0.33182 -0.00075 0.39394 0.0
C283 C 0.24691 0.91532 0.3945 0.0
C284 C 0.24451 0.91305 0.38381 0.0
C285 C 0.28677 0.95533 0.37804 0.0
C286 C 0.33103 -0.00135 0.38326 0.0
Zn287 Zn 0.29165 0.96283 0.41499 0.0
O288 O 0.31453 0.04888 0.43087 0.0
C289 C 0.39885 0.9876 0.4235 0.0
O290 O 0.31353 0.046 0.41413 0.0
H291 H 0.21397 0.88314 0.39892 0.0
H292 H 0.3734 0.04499 0.44675 0.0
H293 H 0.36576 0.03287 0.39792 0.0
O294 O 0.3742 0.98439 0.43183 0.0
O295 O 0.37437 0.9828 0.41507 0.0
H296 H 0.21645 0.90329 0.45036 0.0
O297 O 0.26704 0.87897 0.41613 0.0
O298 O 0.26609 0.88124 0.43294 0.0
O299 O 0.20837 0.94039 0.41516 0.0
O300 O 0.20835 0.94362 0.43195 0.0
C301 C 0.25704 0.85414 0.42468 0.0
H302 H 0.38028 0.06312 0.46515 0.0
H303 H 0.21905 0.9195 0.46894 0.0
H304 H 0.20931 0.87915 0.38013 0.0
H305 H 0.36493 0.03169 0.37913 0.0
C306 C 0.6146 0.66357 0.25686 0.0
N307 N 0.68925 0.76253 0.23136 0.0
C308 C 0.68234 0.7145 0.22745 0.0
C309 C 0.67505 0.70411 0.21698 0.0
C310 C 0.67614 0.74398 0.2104 0.0
C311 C 0.68499 0.79395 0.21452 0.0
C312 C 0.69092 0.80222 0.22512 0.0
Zn313 Zn 0.69477 0.77054 0.24699 0.0
C314 C 0.61917 0.80357 0.25583 0.0
N315 N 0.70241 0.77732 0.27966 0.0
C316 C 0.70371 0.73642 0.28502 0.0
C317 C 0.70208 0.81998 0.28454 0.0
C318 C 0.70224 0.82216 0.29522 0.0
C319 C 0.70264 0.77998 0.30095 0.0
C320 C 0.70385 0.73695 0.29569 0.0
Zn321 Zn 0.69818 0.77236 0.26404 0.0
O322 O 0.63269 0.68761 0.24835 0.0
C323 C 0.77954 0.74704 0.25522 0.0
O324 O 0.63686 0.68918 0.26507 0.0
H325 H 0.70088 0.85201 0.28014 0.0
H326 H 0.68203 0.68377 0.23247 0.0
H327 H 0.70408 0.70295 0.281 0.0
O328 O 0.7573 0.74992 0.24696 0.0
O329 O 0.76083 0.7524 0.26372 0.0
H330 H 0.69639 0.84008 0.22837 0.0
O331 O 0.75747 0.8563 0.26281 0.0
O332 O 0.75468 0.8543 0.246 0.0
O333 O 0.63741 0.79474 0.26407 0.0
O334 O 0.63457 0.79433 0.24727 0.0
C335 C 0.77263 0.88126 0.25428 0.0
H336 H 0.66912 0.66543 0.21404 0.0
H337 H 0.68611 0.82563 0.20963 0.0
H338 H 0.70073 0.85583 0.29894 0.0
H339 H 0.70504 0.70402 0.29978 0.0
C340 C 0.40053 0.98818 0.25701 0.0
N341 N 0.30304 0.96678 0.23146 0.0
C342 C 0.35136 0.00788 0.22763 0.0
C343 C 0.36222 0.01119 0.21718 0.0
C344 C 0.32255 0.97264 0.21053 0.0
C345 C 0.27225 0.93158 0.21457 0.0
C346 C 0.26349 0.92903 0.22516 0.0
Zn347 Zn 0.29454 0.96351 0.24708 0.0
C348 C 0.2597 0.85365 0.25564 0.0
N349 N 0.28639 0.96216 0.27978 0.0
C350 C 0.32735 0.00428 0.28515 0.0
C351 C 0.24326 0.91951 0.28465 0.0
C352 C 0.24043 0.91802 0.29533 0.0
C353 C 0.28233 0.96087 0.30107 0.0
C354 C 0.32613 0.00447 0.29582 0.0
Zn355 Zn 0.29172 0.96342 0.26414 0.0
O356 O 0.37714 0.98359 0.24848 0.0
C357 C 0.31882 0.07138 0.25554 0.0
O358 O 0.37453 0.98405 0.26521 0.0
H359 H 0.21106 0.88646 0.28024 0.0
H360 H 0.382 0.03806 0.23271 0.0
H361 H 0.3614 0.03768 0.28114 0.0
O362 O 0.31598 0.04677 0.24721 0.0
O363 O 0.31289 0.04655 0.26397 0.0
H364 H 0.22542 0.89663 0.22835 0.0
O365 O 0.2082 0.93998 0.26284 0.0
O366 O 0.21098 0.9404 0.24603 0.0
O367 O 0.26802 0.87976 0.26399 0.0
O368 O 0.27003 0.8794 0.24719 0.0
C369 C 0.1837 0.93108 0.25428 0.0
H370 H 0.40116 0.04388 0.2143 0.0
H371 H 0.24071 0.90119 0.20963 0.0
H372 H 0.20557 0.8839 0.29905 0.0
H373 H 0.35973 0.03798 0.29991 0.0
C374 C 0.07714 0.45002 0.25692 0.0
N375 N 0.09867 0.37327 0.23148 0.0
C376 C 0.05778 0.38047 0.22756 0.0
C377 C 0.05467 0.38754 0.21709 0.0
C378 C 0.09325 0.38601 0.21051 0.0
C379 C 0.13415 0.37689 0.21466 0.0
C380 C 0.13648 0.37113 0.22527 0.0
Zn381 Zn 0.10157 0.36834 0.24711 0.0
C382 C 0.2114 0.44317 0.25569 0.0
N383 N 0.10233 0.36194 0.27979 0.0
C384 C 0.06023 0.361 0.2851 0.0
C385 C 0.14482 0.36143 0.2847 0.0
C386 C 0.14619 0.36034 0.29538 0.0
C387 C 0.10337 0.35966 0.30107 0.0
C388 C 0.05991 0.35984 0.29578 0.0
Zn389 Zn 0.10136 0.36575 0.26415 0.0
O390 O 0.08188 0.43117 0.2484 0.0
C391 C -0.00663 0.28502 0.25552 0.0
O392 O 0.08096 0.42809 0.26513 0.0
H393 H 0.17786 0.36209 0.28033 0.0
H394 H 0.02758 0.38123 0.23258 0.0
H395 H 0.02696 0.36167 0.28106 0.0
O396 O 0.01818 0.3067 0.24721 0.0
O397 O 0.01812 0.30387 0.26397 0.0
H398 H 0.16871 0.36548 0.22853 0.0
O399 O 0.12452 0.30548 0.26298 0.0
O400 O 0.12435 0.30763 0.24616 0.0
O401 O 0.18517 0.42562 0.26404 0.0
O402 O 0.18571 0.4277 0.24723 0.0
C403 C 0.13353 0.28977 0.25444 0.0
H404 H 0.02208 0.39369 0.21413 0.0
H405 H 0.16458 0.37545 0.20978 0.0
H406 H 0.18018 0.35958 0.29914 0.0
H407 H 0.02644 0.36015 0.29983 0.0
C408 C 0.66088 0.61888 0.75547 0.0
N409 N 0.75998 0.69502 0.78087 0.0
C410 C 0.71239 0.68932 0.78472 0.0
C411 C 0.70209 0.68332 0.7952 0.0
C412 C 0.7416 0.68441 0.80194 0.0
C413 C 0.791 0.69141 0.79778 0.0
C414 C 0.79923 0.69632 0.78716 0.0
Zn415 Zn 0.76776 0.69957 0.76524 0.0
C416 C 0.80113 0.62389 0.75658 0.0
N417 N 0.77419 0.70595 0.73254 0.0
C418 C 0.73294 0.70707 0.72728 0.0
C419 C 0.81648 0.70539 0.72757 0.0
C420 C 0.81789 0.70515 0.71687 0.0
C421 C 0.7753 0.70535 0.71125 0.0
C422 C 0.73269 0.7068 0.71661 0.0
Zn423 Zn 0.76985 0.70248 0.74819 0.0
O424 O 0.68482 0.63731 0.76398 0.0
C425 C 0.74434 0.78411 0.75686 0.0
O426 O 0.68657 0.6409 0.74726 0.0
H427 H 0.8488 0.70435 0.73189 0.0
H428 H 0.68174 0.68873 0.77964 0.0
H429 H 0.69976 0.70763 0.73138 0.0
O430 O 0.74706 0.76201 0.76514 0.0
O431 O 0.74988 0.76522 0.74839 0.0
H432 H 0.83686 0.70098 0.78396 0.0
O433 O 0.85385 0.76188 0.74933 0.0
O434 O 0.85157 0.75959 0.76615 0.0
O435 O 0.7924 0.6418 0.74828 0.0
O436 O 0.7916 0.63947 0.76509 0.0
C437 C 0.87869 0.77724 0.75787 0.0
H438 H 0.66286 0.67683 0.79791 0.0
H439 H 0.82317 0.69338 0.80263 0.0
H440 H 0.85128 0.70351 0.71306 0.0
H441 H 0.69949 0.70789 0.7126 0.0
C442 C 0.4476 0.08344 0.75611 0.0
N443 N 0.36771 0.10311 0.78119 0.0
C444 C 0.37483 0.06226 0.78516 0.0
C445 C 0.38227 0.0596 0.79563 0.0
C446 C 0.38117 0.09857 0.80216 0.0
C447 C 0.37184 0.13927 0.79797 0.0
C448 C 0.36573 0.14116 0.78736 0.0
Zn449 Zn 0.3637 0.10572 0.76553 0.0
C450 C 0.43653 0.21549 0.75688 0.0
N451 N 0.35861 0.10459 0.73278 0.0
C452 C 0.36783 0.06825 0.72749 0.0
C453 C 0.34851 0.14121 0.7278 0.0
C454 C 0.34723 0.14202 0.71712 0.0
C455 C 0.35773 0.10568 0.71142 0.0
C456 C 0.36832 0.06858 0.71682 0.0
Zn457 Zn 0.36142 0.10405 0.74847 0.0
O458 O 0.42742 0.08702 0.76456 0.0
C459 C 0.28244 -0.00396 0.75709 0.0
O460 O 0.42629 0.08732 0.74783 0.0
H461 H 0.34145 0.16996 0.73212 0.0
H462 H 0.37551 0.03189 0.78018 0.0
H463 H 0.37539 0.03914 0.73155 0.0
O464 O 0.30266 0.02199 0.76538 0.0
O465 O 0.3022 0.01996 0.74861 0.0
H466 H 0.36015 0.17336 0.78405 0.0
O467 O 0.29844 0.12327 0.74938 0.0
O468 O 0.30218 0.12764 0.76618 0.0
O469 O 0.41865 0.18888 0.74857 0.0
O470 O 0.42229 0.19002 0.76537 0.0
C471 C 0.28287 0.13373 0.75779 0.0
H472 H 0.38859 0.02718 0.79862 0.0
H473 H 0.3707 0.16997 0.80282 0.0
H474 H 0.33773 0.17072 0.71341 0.0
H475 H 0.37784 0.04043 0.7129 0.0
C476 C 0.9865 0.40601 0.75588 0.0
N477 N 0.96552 0.30584 0.78099 0.0
C478 C 0.00785 0.35314 0.78486 0.0
C479 C 0.01234 0.36324 0.79534 0.0
C480 C 0.97361 0.32385 0.80207 0.0
C481 C 0.93088 0.27465 0.79789 0.0
C482 C 0.92741 0.26661 0.78727 0.0
Zn483 Zn 0.96119 0.29881 0.76536 0.0
C484 C 0.85155 0.26573 0.75713 0.0
N485 N 0.95865 0.29378 0.73265 0.0
C486 C 0.00022 0.33523 0.72727 0.0
C487 C 0.91564 0.25095 0.72779 0.0
C488 C 0.9131 0.249 0.71711 0.0
C489 C 0.95516 0.29161 0.71136 0.0
C490 C -0.00071 0.33497 0.71659 0.0
Zn491 Zn 0.96097 0.29773 0.7483 0.0
O492 O 0.98206 0.38193 0.76434 0.0
C493 C 0.06869 0.32315 0.75659 0.0
O494 O 0.98195 0.38057 0.7476 0.0
H495 H 0.88292 0.21847 0.73221 0.0
H496 H 0.03796 0.3838 0.77978 0.0
H497 H 0.03413 0.36881 0.73127 0.0
O498 O 0.04409 0.31932 0.76496 0.0
O499 O 0.044 0.31858 0.74819 0.0
H500 H 0.89408 0.22925 0.78405 0.0
O501 O 0.93736 0.21419 0.74921 0.0
O502 O 0.93712 0.2147 0.76603 0.0
O503 O 0.87729 0.27431 0.74873 0.0
O504 O 0.87757 0.27535 0.76554 0.0
C505 C 0.928 0.18851 0.75765 0.0
H506 H 0.04535 0.4023 0.79807 0.0
H507 H 0.90045 0.24258 0.80273 0.0
H508 H 0.87801 0.21506 0.71341 0.0
H509 H 0.03303 0.36825 0.71248 0.0
C510 C 0.28126 0.00169 0.58967 0.0
N511 N 0.35831 0.10249 0.56468 0.0
C512 C 0.35921 0.05842 0.56058 0.0
C513 C 0.35233 0.04832 0.5501 0.0
C514 C 0.34391 0.08357 0.54369 0.0
C515 C 0.3443 0.12954 0.54808 0.0
C516 C 0.35157 0.13825 0.55866 0.0
Zn517 Zn 0.36277 0.10891 0.58032 0.0
C518 C 0.28826 0.14312 0.58921 0.0
N519 N 0.36887 0.11286 0.61306 0.0
C520 C 0.36036 0.06754 0.61835 0.0
C521 C 0.37813 0.15933 0.61802 0.0
C522 C 0.37921 0.16143 0.6287 0.0
C523 C 0.36931 0.1148 0.63441 0.0
C524 C 0.35967 0.06736 0.62903 0.0
Zn525 Zn 0.36583 0.10959 0.59737 0.0
O526 O 0.30107 0.02567 0.58121 0.0
C527 C 0.44643 0.08337 0.58864 0.0
O528 O 0.30221 0.02715 0.59795 0.0
H529 H 0.38455 0.19492 0.6137 0.0
H530 H 0.36434 0.03026 0.56547 0.0
H531 H 0.3534 0.03104 0.6143 0.0
O532 O 0.42582 0.0889 0.58039 0.0
O533 O 0.42646 0.08674 0.59715 0.0
H534 H 0.35073 0.17291 0.56208 0.0
O535 O 0.42735 0.19276 0.59641 0.0
O536 O 0.42234 0.1928 0.57963 0.0
O537 O 0.30727 0.13502 0.59743 0.0
O538 O 0.30219 0.13228 0.58065 0.0
C539 C 0.44168 0.21867 0.58797 0.0
H540 H 0.35351 0.01305 0.54706 0.0
H541 H 0.33761 0.15764 0.54345 0.0
H542 H 0.388 0.19946 0.6324 0.0
H543 H 0.35066 0.02985 0.63296 0.0
C544 C 0.06903 0.32689 0.59018 0.0
N545 N 0.96938 0.30009 0.56482 0.0
C546 C 0.01343 0.34523 0.56073 0.0
C547 C 0.02409 0.34821 0.55028 0.0
C548 C -0.01061 0.30417 0.54388 0.0
C549 C 0.94346 0.25842 0.54825 0.0
C550 C 0.9342 0.25721 0.5588 0.0
Zn551 Zn 0.96172 0.2982 0.58043 0.0
C552 C 0.93038 0.19003 0.58934 0.0
N553 N 0.95479 0.29928 0.61311 0.0
C554 C -0.00452 0.34187 0.61843 0.0
C555 C 0.91213 0.25636 0.61802 0.0
C556 C 0.90956 0.25501 0.6287 0.0
C557 C 0.95123 0.29827 0.6344 0.0
C558 C -0.0055 0.34221 0.62911 0.0
Zn559 Zn 0.95948 0.29964 0.59747 0.0
O560 O 0.04526 0.32162 0.58165 0.0
C561 C 0.98311 0.40584 0.5886 0.0
O562 O 0.04295 0.32223 0.59839 0.0
H563 H 0.88014 0.22293 0.61365 0.0
H564 H 0.04109 0.37884 0.56563 0.0
H565 H 0.02913 0.37547 0.61439 0.0
O566 O 0.97998 0.38059 0.58035 0.0
O567 O 0.97872 0.38213 0.59711 0.0
H568 H 0.89955 0.22159 0.56221 0.0
O569 O 0.87524 0.2741 0.59627 0.0
O570 O 0.8774 0.27198 0.57946 0.0
O571 O 0.93782 0.21674 0.59759 0.0
O572 O 0.94028 0.21491 0.58081 0.0
C573 C 0.85031 0.26325 0.58772 0.0
H574 H 0.05933 0.38479 0.54724 0.0
H575 H 0.9158 0.22334 0.54363 0.0
H576 H 0.87506 0.22064 0.63244 0.0
H577 H 0.02791 0.37606 0.63317 0.0
C578 C 0.74351 0.78679 0.58998 0.0
N579 N 0.76522 0.70939 0.56464 0.0
C580 C 0.72442 0.71668 0.5607 0.0
C581 C 0.72127 0.72344 0.55021 0.0
C582 C 0.75969 0.7215 0.54365 0.0
C583 C 0.80048 0.7123 0.54783 0.0
C584 C 0.80286 0.70686 0.55844 0.0
Zn585 Zn 0.76819 0.70492 0.58029 0.0
C586 C 0.87766 0.77977 0.5889 0.0
N587 N 0.76858 0.69936 0.613 0.0
C588 C 0.72706 0.69899 0.61843 0.0
C589 C 0.81129 0.69875 0.6178 0.0
C590 C 0.81355 0.69817 0.62847 0.0
C591 C 0.77142 0.69817 0.63428 0.0
C592 C 0.72765 0.69837 0.6291 0.0
Zn593 Zn 0.76714 0.70266 0.59735 0.0
O594 O 0.7487 0.76794 0.5815 0.0
C595 C 0.65951 0.6222 0.58875 0.0
O596 O 0.74695 0.76495 0.59824 0.0
H597 H 0.84386 0.69895 0.61334 0.0
H598 H 0.69434 0.71774 0.5657 0.0
H599 H 0.6936 0.69971 0.61447 0.0
O600 O 0.68465 0.64351 0.58044 0.0
O601 O 0.68402 0.6412 0.59721 0.0
H602 H 0.83501 0.70114 0.56173 0.0
O603 O 0.78982 0.64218 0.59627 0.0
O604 O 0.79066 0.64387 0.57946 0.0
O605 O 0.8509 0.76231 0.5972 0.0
O606 O 0.85251 0.76418 0.5804 0.0
C607 C 0.79909 0.62604 0.58781 0.0
H608 H 0.68876 0.72965 0.54723 0.0
H609 H 0.8308 0.71056 0.54296 0.0
H610 H 0.84772 0.69731 0.63213 0.0
H611 H 0.69467 0.69913 0.63326 0.0
H612 H 0.5073 0.92689 0.10695 0.0
H613 H 0.64475 0.79442 0.07247 0.0
H614 H 0.5017 0.92279 0.07392 0.0
H615 H 0.65193 0.79972 0.10548 0.0
H616 H 0.60508 0.85426 0.07277 0.0
H617 H 0.56743 0.88747 0.10652 0.0
C618 C 0.51811 0.91703 0.09961 0.0
C619 C 0.49906 0.92771 0.09046 0.0
C620 C 0.61623 0.84311 0.07995 0.0
C621 C 0.56888 0.88379 0.08991 0.0
C622 C 0.63952 0.80944 0.07977 0.0
C623 C 0.6503 0.79087 0.08898 0.0
C624 C 0.60359 0.85803 0.08938 0.0
C625 C 0.6432 0.81215 0.0982 0.0
C626 C 0.55301 0.89516 0.09937 0.0
C627 C 0.51503 0.91481 0.08117 0.0
N628 N 0.61916 0.84369 0.09818 0.0
N629 N 0.54901 0.8935 0.08114 0.0
H630 H 0.27467 0.89024 0.07268 0.0
H631 H 0.13795 0.61917 0.10692 0.0
H632 H 0.26992 0.89122 0.10571 0.0
H633 H 0.13929 0.61816 0.07387 0.0
H634 H 0.17901 0.71898 0.10658 0.0
H635 H 0.21279 0.79092 0.0729 0.0
C636 C 0.2594 0.86986 0.07997 0.0
C637 C 0.27858 0.89887 0.0892 0.0
C638 C 0.1703 0.69693 0.0994 0.0
C639 C 0.209 0.78516 0.08951 0.0
C640 C 0.14743 0.63998 0.09959 0.0
C641 C 0.13567 0.61033 0.09041 0.0
C642 C 0.18164 0.72446 0.08997 0.0
C643 C 0.14812 0.63941 0.08114 0.0
C644 C 0.22451 0.81299 0.0801 0.0
C645 C 0.257 0.87034 0.09841 0.0
N646 N 0.17055 0.6949 0.08116 0.0
N647 N 0.22422 0.81483 0.09834 0.0
H648 H 0.17912 0.42708 0.07284 0.0
H649 H 0.45103 0.56456 0.10687 0.0
H650 H 0.17884 0.42279 0.10587 0.0
H651 H 0.451 0.56777 0.07383 0.0
H652 H 0.35123 0.50566 0.10663 0.0
H653 H 0.27865 0.46631 0.07301 0.0
C654 C 0.19974 0.43295 0.08012 0.0
C655 C 0.17084 0.42295 0.08936 0.0
C656 C 0.37306 0.51928 0.09943 0.0
C657 C 0.2847 0.46907 0.08961 0.0
C658 C 0.42998 0.55346 0.09957 0.0
C659 C 0.45934 0.57148 0.09036 0.0
C660 C 0.3453 0.5031 0.09003 0.0
C661 C 0.42998 0.55521 0.08112 0.0
C662 C 0.2567 0.45593 0.08022 0.0
C663 C 0.19964 0.43083 0.09856 0.0
N664 N 0.37454 0.52194 0.08119 0.0
N665 N 0.25522 0.45451 0.09846 0.0
H666 H 0.92248 0.50643 0.93942 0.0
H667 H 0.7972 0.65902 0.90721 0.0
H668 H 0.92482 0.51535 0.90642 0.0
H669 H 0.78305 0.6395 0.94003 0.0
H670 H 0.85889 0.62149 0.90712 0.0
H671 H 0.88139 0.56501 0.93999 0.0
C672 C 0.91384 0.52023 0.93229 0.0
C673 C 0.92661 0.50551 0.92285 0.0
C674 C 0.84304 0.62627 0.91437 0.0
C675 C 0.88061 0.57355 0.92347 0.0
C676 C 0.80825 0.64827 0.91444 0.0
C677 C 0.7839 0.65116 0.92362 0.0
C678 C 0.85335 0.60698 0.92353 0.0
C679 C 0.80025 0.63726 0.93276 0.0
C680 C 0.89086 0.55414 0.93263 0.0
C681 C 0.91509 0.52516 0.91386 0.0
N682 N 0.83314 0.61468 0.93246 0.0
N683 N 0.89269 0.55817 0.9144 0.0
H684 H 0.40478 0.17632 0.90742 0.0
H685 H 0.56373 0.4544 0.93938 0.0
H686 H 0.42373 0.18211 0.94027 0.0
H687 H 0.55239 0.44747 0.9064 0.0
H688 H 0.50342 0.35494 0.94004 0.0
H689 H 0.44411 0.27583 0.90724 0.0
C690 C 0.41575 0.1983 0.91463 0.0
C691 C 0.41237 0.1711 0.92385 0.0
C692 C 0.51417 0.37515 0.93266 0.0
C693 C 0.4586 0.28495 0.92365 0.0
C694 C 0.54912 0.43189 0.93226 0.0
C695 C 0.56352 0.45924 0.92281 0.0
C696 C 0.49345 0.3455 0.92353 0.0
C697 C 0.54283 0.42801 0.91385 0.0
C698 C 0.43879 0.25523 0.91451 0.0
C699 C 0.42646 0.20153 0.93296 0.0
N700 N 0.5088 0.37274 0.91444 0.0
N701 N 0.45013 0.25712 0.93261 0.0
H702 H 0.60945 0.14996 0.93927 0.0
H703 H 0.887 0.27016 0.90711 0.0
H704 H 0.61545 0.1437 0.90629 0.0
H705 H 0.88173 0.2839 0.93995 0.0
H706 H 0.78748 0.20989 0.90699 0.0
H707 H 0.70904 0.19049 0.93984 0.0
C708 C 0.63178 0.15773 0.93213 0.0
C709 C 0.60413 0.14383 0.92271 0.0
C710 C 0.80819 0.22534 0.91424 0.0
C711 C 0.71805 0.18914 0.92333 0.0
C712 C 0.86512 0.25931 0.91434 0.0
C713 C 0.89248 0.28318 0.92354 0.0
C714 C 0.77863 0.21544 0.9234 0.0
C715 C 0.86217 0.26711 0.93267 0.0
C716 C 0.6886 0.18033 0.93248 0.0
C717 C 0.63514 0.15428 0.91372 0.0
N718 N 0.8066 0.23507 0.93235 0.0
N719 N 0.69051 0.17632 0.91426 0.0
H720 H 0.32165 0.13537 0.43852 0.0
H721 H 0.16115 0.25169 0.40627 0.0
H722 H 0.3036 0.12203 0.40566 0.0
H723 H 0.17099 0.25553 0.43927 0.0
H724 H 0.22204 0.21328 0.40572 0.0
H725 H 0.28105 0.19439 0.43861 0.0
C726 C 0.31065 0.14614 0.43128 0.0
C727 C 0.3146 0.1225 0.42209 0.0
C728 C 0.21081 0.22243 0.41308 0.0
C729 C 0.2669 0.18877 0.42219 0.0
C730 C 0.17551 0.24377 0.41341 0.0
C731 C 0.16059 0.25643 0.42284 0.0
C732 C 0.23137 0.21367 0.42224 0.0
C733 C 0.18097 0.24587 0.43184 0.0
C734 C 0.28685 0.17933 0.43136 0.0
C735 C 0.30041 0.13853 0.41295 0.0
N736 N 0.2154 0.22513 0.43131 0.0
N737 N 0.27602 0.16976 0.41325 0.0
H738 H 0.92852 0.22501 0.43845 0.0
H739 H 0.80687 0.94733 0.40626 0.0
H740 H 0.94187 0.21983 0.40561 0.0
H741 H 0.80226 0.95354 0.43925 0.0
H742 H 0.84687 0.04693 0.40569 0.0
H743 H 0.86754 0.12558 0.43856 0.0
C744 C 0.9174 0.20321 0.43122 0.0
C745 C 0.94145 0.23058 0.42203 0.0
C746 C 0.83716 0.02653 0.41305 0.0
C747 C 0.87286 0.11673 0.42214 0.0
C748 C 0.81485 0.9697 0.4134 0.0
C749 C 0.80169 0.9421 0.42283 0.0
C750 C 0.8464 0.05605 0.4222 0.0
C751 C 0.81231 0.97317 0.43181 0.0
C752 C 0.88304 0.1463 0.43131 0.0
C753 C 0.92499 0.20031 0.41289 0.0
N754 N 0.83409 0.02853 0.43127 0.0
N755 N 0.89258 0.14474 0.4132 0.0
H756 H 0.11297 0.89734 0.43994 0.0
H757 H 0.84242 0.75852 0.40559 0.0
H758 H 0.11437 0.90026 0.40689 0.0
H759 H 0.8412 0.75099 0.4386 0.0
H760 H 0.94206 0.79863 0.40583 0.0
H761 H 0.01331 0.83755 0.43956 0.0
C762 C 0.09225 0.88604 0.4326 0.0
C763 C 0.12198 0.90416 0.42344 0.0
C764 C 0.91988 0.78731 0.41302 0.0
C765 C 0.00812 0.83472 0.42294 0.0
C766 C 0.86286 0.76378 0.41288 0.0
C767 C 0.83366 0.75276 0.42211 0.0
C768 C 0.94762 0.79994 0.42244 0.0
C769 C 0.86225 0.75992 0.43131 0.0
C770 C 0.03542 0.85131 0.43239 0.0
C771 C 0.09304 0.88759 0.41415 0.0
N772 N 0.91787 0.78419 0.43126 0.0
N773 N 0.03768 0.85379 0.41415 0.0
H774 H 0.46474 -0.00744 0.24093 0.0
H775 H 0.58212 0.8317 0.2728 0.0
H776 H 0.44848 0.97046 0.2737 0.0
H777 H 0.5878 0.84464 0.23984 0.0
H778 H 0.54232 0.89138 0.2735 0.0
H779 H 0.52454 0.95285 0.24078 0.0
C780 C 0.47498 0.98079 0.24814 0.0
C781 C 0.45047 0.98352 0.25731 0.0
C782 C 0.55219 0.8811 0.26612 0.0
C783 C 0.51766 0.93684 0.25715 0.0
C784 C 0.57436 0.84653 0.2657 0.0
C785 C 0.58789 0.83279 0.25624 0.0
C786 C 0.54349 0.90214 0.25701 0.0
C787 C 0.5775 0.85371 0.2473 0.0
C788 C 0.50865 0.95754 0.24803 0.0
C789 C 0.46578 0.96833 0.26642 0.0
N790 N 0.55593 0.88741 0.24791 0.0
N791 N 0.49754 0.94453 0.26609 0.0
H792 H 0.22197 0.78375 0.23926 0.0
H793 H 0.08948 0.51356 0.2737 0.0
H794 H 0.22776 0.78572 0.27229 0.0
H795 H 0.07783 0.51196 0.24074 0.0
H796 H 0.12832 0.61306 0.27349 0.0
H797 H 0.16275 0.68401 0.23973 0.0
C798 C 0.21136 0.76315 0.24661 0.0
C799 C 0.23023 0.79306 0.25575 0.0
C800 C 0.11636 0.59082 0.26631 0.0
C801 C 0.16149 0.67905 0.25635 0.0
C802 C 0.09356 0.53386 0.26644 0.0
C803 C 0.08171 0.50462 0.2572 0.0
C804 C 0.12745 0.61846 0.2569 0.0
C805 C 0.08741 0.53304 0.24803 0.0
C806 C 0.17697 0.70626 0.24688 0.0
C807 C 0.21453 0.76426 0.26505 0.0
N808 N 0.11098 0.58861 0.2481 0.0
N809 N 0.1811 0.70882 0.26511 0.0
H810 H 0.55152 0.61218 0.27369 0.0
H811 H 0.28125 0.4748 0.23932 0.0
H812 H 0.55277 0.6016 0.24073 0.0
H813 H 0.27937 0.47878 0.27235 0.0
H814 H 0.38085 0.51464 0.23979 0.0
H815 H 0.45202 0.55128 0.27352 0.0
C816 C 0.53115 0.59577 0.26644 0.0
C817 C 0.56027 0.61315 0.25719 0.0
C818 C 0.35866 0.5068 0.24693 0.0
C819 C 0.44645 0.54479 0.25693 0.0
C820 C 0.30185 0.4847 0.24667 0.0
C821 C 0.272 0.47393 0.25581 0.0
C822 C 0.38588 0.51842 0.2564 0.0
C823 C 0.30079 0.48685 0.26511 0.0
C824 C 0.4742 0.56148 0.26634 0.0
C825 C 0.53177 0.59015 0.24804 0.0
N826 N 0.35618 0.50851 0.26517 0.0
N827 N 0.4762 0.55805 0.24812 0.0
H828 H 0.832 0.58846 0.73974 0.0
H829 H 0.98683 0.46687 0.77224 0.0
H830 H 0.84013 0.59149 0.77275 0.0
H831 H 0.97318 0.45764 0.7393 0.0
H832 H 0.94709 0.52664 0.77235 0.0
H833 H 0.89208 0.54911 0.73931 0.0
C834 C 0.84585 0.58021 0.74691 0.0
C835 C 0.83063 0.59285 0.7563 0.0
C836 C 0.95366 0.51231 0.76508 0.0
C837 C 0.90044 0.54893 0.75585 0.0
C838 C 0.97695 0.47866 0.765 0.0
C839 C 0.98197 0.45606 0.75576 0.0
C840 C 0.93526 0.52323 0.75587 0.0
C841 C 0.96915 0.47334 0.74662 0.0
C842 C 0.88067 0.55831 0.74665 0.0
C843 C 0.85036 0.58187 0.76534 0.0
N844 N 0.94525 0.50502 0.74691 0.0
N845 N 0.88429 0.56052 0.76489 0.0
H846 H 0.60919 0.55553 0.73868 0.0
H847 H 0.46906 0.28582 0.77319 0.0
H848 H 0.59891 0.55741 0.77163 0.0
H849 H 0.47096 0.28309 0.74015 0.0
H850 H 0.51015 0.38556 0.77266 0.0
H851 H 0.54712 0.4562 0.73889 0.0
C852 C 0.59264 0.53536 0.74594 0.0
C853 C 0.61034 0.56459 0.75518 0.0
C854 C 0.50154 0.36317 0.76553 0.0
C855 C 0.54057 0.45092 0.75548 0.0
C856 C 0.47867 0.30624 0.76582 0.0
C857 C 0.46706 0.27612 0.7567 0.0
C858 C 0.51311 0.39024 0.75604 0.0
C859 C 0.47967 0.30473 0.74738 0.0
C860 C 0.55765 0.47849 0.74606 0.0
C861 C 0.58718 0.53633 0.76434 0.0
N862 N 0.50216 0.36024 0.74729 0.0
N863 N 0.55436 0.48083 0.76428 0.0
H864 H 0.511 0.0933 0.73947 0.0
H865 H 0.78245 0.22962 0.77363 0.0
H866 H 0.51027 0.08817 0.7725 0.0
H867 H 0.78288 0.23318 0.74059 0.0
H868 H 0.68263 0.17087 0.77334 0.0
H869 H 0.6105 0.13229 0.73968 0.0
C870 C 0.53152 0.09894 0.74676 0.0
C871 C 0.50251 0.08878 0.75599 0.0
C872 C 0.70457 0.18454 0.76616 0.0
C873 C 0.61633 0.13463 0.75628 0.0
C874 C 0.7615 0.21863 0.76632 0.0
C875 C 0.79099 0.23671 0.75712 0.0
C876 C 0.67693 0.16852 0.75673 0.0
C877 C 0.76176 0.22057 0.74787 0.0
C878 C 0.58846 0.12178 0.74688 0.0
C879 C 0.53116 0.09636 0.7652 0.0
N880 N 0.7063 0.18739 0.74791 0.0
N881 N 0.58673 0.11991 0.76512 0.0
H882 H 0.13288 0.33095 0.57404 0.0
H883 H 0.25376 0.17408 0.60618 0.0
H884 H 0.11865 0.31147 0.60687 0.0
H885 H 0.25569 0.18284 0.57318 0.0
H886 H 0.21425 0.23406 0.60678 0.0
H887 H 0.19329 0.29195 0.57394 0.0
C888 C 0.14371 0.31996 0.58127 0.0
C889 C 0.11954 0.32315 0.59045 0.0
C890 C 0.22326 0.22282 0.59941 0.0
C891 C 0.18747 0.27725 0.59034 0.0
C892 C 0.24528 0.18808 0.59905 0.0
C893 C 0.25757 0.17299 0.5896 0.0
C894 C 0.21349 0.24269 0.59026 0.0
C895 C 0.2463 0.19292 0.58062 0.0
C896 C 0.17773 0.29708 0.58118 0.0
C897 C 0.13563 0.30894 0.59959 0.0
N898 N 0.22489 0.22678 0.58118 0.0
N899 N 0.16772 0.28548 0.59928 0.0
H900 H 0.7422 0.84754 0.57377 0.0
H901 H 0.89957 0.12405 0.60624 0.0
H902 H 0.75825 0.85156 0.60666 0.0
H903 H 0.89225 0.11842 0.57322 0.0
H904 H 0.83907 0.02456 0.60671 0.0
H905 H 0.78261 0.94718 0.57372 0.0
C906 C 0.75277 0.86917 0.58101 0.0
C907 C 0.74826 0.84142 0.59021 0.0
C908 C 0.85079 0.04507 0.59936 0.0
C909 C 0.79572 0.95537 0.59017 0.0
C910 C 0.88585 0.1018 0.59908 0.0
C911 C 0.90133 0.12953 0.58967 0.0
C912 C 0.83103 0.01584 0.59017 0.0
C913 C 0.8818 0.09867 0.58064 0.0
C914 C 0.77644 0.92617 0.58097 0.0
C915 C 0.76189 0.87143 0.59937 0.0
N916 N 0.84757 0.04342 0.58112 0.0
N917 N 0.78616 0.92706 0.59911 0.0
H918 H 0.22091 0.94061 0.5733 0.0
H919 H 0.94393 0.81521 0.60576 0.0
H920 H 0.21622 0.94993 0.60624 0.0
H921 H 0.9492 0.81232 0.57275 0.0
H922 H 0.04358 0.85577 0.60621 0.0
H923 H 0.12148 0.87963 0.57319 0.0
C924 C 0.19921 0.92864 0.58054 0.0
C925 C 0.2267 0.95151 0.58978 0.0
C926 C 0.02296 0.84631 0.59886 0.0
C927 C 0.1129 0.88291 0.58966 0.0
C928 C 0.9661 0.82369 0.5986 0.0
C929 C 0.93824 0.81082 0.5892 0.0
C930 C 0.05224 0.8562 0.58967 0.0
C931 C 0.96905 0.82211 0.58017 0.0
C932 C 0.14231 0.89426 0.58045 0.0
C933 C 0.19657 0.934 0.59892 0.0
N934 N 0.02446 0.8442 0.58063 0.0
N935 N 0.14103 0.90158 0.59862 0.0
H936 H 0.35405 0.97576 0.03215 0.0
H937 H 0.52832 0.08728 0.9804 0.0
H938 H 0.52893 0.09007 0.03154 0.0
H939 H 0.3539 0.97112 0.98125 0.0
H940 H 0.52995 0.08778 0.9991 0.0
H941 H 0.35357 0.97332 0.01349 0.0
C942 C 0.39235 0.0006 0.02809 0.0
C943 C 0.44158 0.03339 0.03344 0.0
C944 C 0.49133 0.06212 0.99519 0.0
C945 C 0.44143 0.03029 0.01202 0.0
C946 C 0.49042 0.06155 0.98451 0.0
C947 C 0.44087 0.02914 0.97922 0.0
C948 C 0.44234 0.03003 1.00066 0.0
C949 C 0.39291 -0.00266 0.98498 0.0
C950 C 0.3921 -0.00108 0.01743 0.0
C951 C 0.49011 0.06383 0.02775 0.0
N952 N 0.39486 -0.00138 0.99537 0.0
N953 N 0.48878 0.06166 0.01736 0.0
H954 H 0.00975 0.50837 0.98045 0.0
H955 H -0.00038 0.35516 0.03137 0.0
H956 H 0.06683 0.39102 0.98135 0.0
H957 H 0.05695 0.52977 0.03173 0.0
H958 H 0.00475 0.35849 0.01276 0.0
H959 H 0.00852 0.50849 0.99912 0.0
C960 C 0.0225 0.48296 0.98448 0.0
C961 C 0.03844 0.44958 0.97916 0.0
C962 C 0.01614 0.39593 0.01697 0.0
C963 C 0.03473 0.44817 1.00059 0.0
C964 C 0.01368 0.39434 0.02763 0.0
C965 C 0.02843 0.44242 0.03329 0.0
C966 C 0.032 0.44551 0.01187 0.0
C967 C 0.0443 0.49135 0.02781 0.0
C968 C 0.02131 0.48287 0.99516 0.0
C969 C 0.05293 0.4165 0.98498 0.0
N970 N 0.04532 0.49155 0.01741 0.0
N971 N 0.05018 0.41624 0.99536 0.0
H972 H 0.58549 0.53898 0.9802 0.0
H973 H 0.65135 0.71522 0.03177 0.0
H974 H 0.64442 0.71352 0.98084 0.0
H975 H 0.59018 0.54025 0.03131 0.0
H976 H 0.6487 0.71512 0.01311 0.0
H977 H 0.58545 0.53815 0.99889 0.0
C978 C 0.59802 0.57708 0.98426 0.0
C979 C 0.61501 0.62642 0.97891 0.0
C980 C 0.6358 0.6767 0.01708 0.0
C981 C 0.6157 0.62585 1.00035 0.0
C982 C 0.63763 0.67678 0.02775 0.0
C983 C 0.62118 0.62769 0.03314 0.0
C984 C 0.61744 0.62718 0.01171 0.0
C985 C 0.60275 0.57898 0.0275 0.0
C986 C 0.59831 0.57662 0.99494 0.0
C987 C 0.6317 0.67465 0.98461 0.0
N988 N 0.60152 0.57999 0.0171 0.0
N989 N 0.63164 0.67314 0.99501 0.0
H990 H 0.19684 0.4258 0.36502 0.0
H991 H 0.01686 0.30168 0.31418 0.0
H992 H 0.02173 0.31232 0.36506 0.0
H993 H 0.19152 0.41711 0.31391 0.0
H994 H 0.01833 0.30415 0.33284 0.0
H995 H 0.19634 0.42176 0.34633 0.0
C996 C 0.15833 0.39982 0.36111 0.0
C997 C 0.10923 0.36943 0.36663 0.0
C998 C 0.05639 0.3289 0.32871 0.0
C999 C 0.1083 0.36495 0.34522 0.0
C1000 C 0.05553 0.32772 0.31804 0.0
C1001 C 0.10412 0.35939 0.31244 0.0
C1002 C 0.10619 0.36203 0.33387 0.0
C1003 C 0.15317 0.39156 0.31789 0.0
C1004 C 0.15803 0.39775 0.35043 0.0
C1005 C 0.06044 0.33709 0.36113 0.0
N1006 N 0.15292 0.39217 0.32829 0.0
N1007 N 0.06124 0.33569 0.35074 0.0
H1008 H 0.63286 0.68642 0.36469 0.0
H1009 H 0.75681 0.86787 0.314 0.0
H1010 H 0.74718 0.86134 0.3651 0.0
H1011 H 0.64396 0.69262 0.31382 0.0
H1012 H 0.75257 0.8669 0.33269 0.0
H1013 H 0.63571 0.68833 0.34603 0.0
C1014 C 0.65875 0.72524 0.36086 0.0
C1015 C 0.68997 0.77377 0.36649 0.0
C1016 C 0.72875 0.82866 0.32856 0.0
C1017 C 0.69303 0.77635 0.34507 0.0
C1018 C 0.73094 0.82922 0.31788 0.0
C1019 C 0.7008 0.78022 0.31231 0.0
C1020 C 0.69608 0.77875 0.33373 0.0
C1021 C 0.66855 0.73126 0.31778 0.0
C1022 C 0.66013 0.72634 0.35019 0.0
C1023 C 0.72196 0.82302 0.36108 0.0
N1024 N 0.66705 0.7318 0.32816 0.0
N1025 N 0.72277 0.82301 0.35068 0.0
H1026 H 0.31037 0.04726 0.31418 0.0
H1027 H 0.25321 0.86718 0.36506 0.0
H1028 H 0.25109 0.87263 0.31393 0.0
H1029 H 0.31485 0.04225 0.36507 0.0
H1030 H 0.2499 0.86766 0.34637 0.0
H1031 H 0.31073 0.04568 0.33285 0.0
C1032 C 0.29759 0.00857 0.31805 0.0
C1033 C 0.28087 0.96003 0.31245 0.0
C1034 C 0.26414 0.90597 0.35046 0.0
C1035 C 0.28069 0.95783 0.33389 0.0
C1036 C 0.26578 0.90568 0.36114 0.0
C1037 C 0.28446 0.95478 0.36667 0.0
C1038 C 0.28119 0.95569 0.34524 0.0
C1039 C 0.30093 0.00354 0.36115 0.0
C1040 C 0.29754 0.00765 0.32872 0.0
C1041 C 0.26377 0.91095 0.31791 0.0
N1042 N 0.29889 0.00274 0.35076 0.0
N1043 N 0.26427 0.91115 0.32831 0.0
H1044 H 0.68692 0.64629 0.69862 0.0
H1045 H 0.86102 0.75561 0.64681 0.0
H1046 H 0.86213 0.75907 0.69794 0.0
H1047 H 0.68609 0.64164 0.64771 0.0
H1048 H 0.86275 0.75646 0.6655 0.0
H1049 H 0.68615 0.64399 0.67996 0.0
C1050 C 0.72524 0.67086 0.69455 0.0
C1051 C 0.77465 0.70315 0.69988 0.0
C1052 C 0.824 0.73121 0.66161 0.0
C1053 C 0.77415 0.70017 0.67845 0.0
C1054 C 0.82302 0.73044 0.65093 0.0
C1055 C 0.7733 0.69851 0.64565 0.0
C1056 C 0.77493 0.69981 0.66709 0.0
C1057 C 0.72523 0.66745 0.65143 0.0
C1058 C 0.72481 0.66924 0.68388 0.0
C1059 C 0.82317 0.73321 0.69417 0.0
N1060 N 0.72726 0.6689 0.66182 0.0
N1061 N 0.82167 0.73109 0.68377 0.0
H1062 H 0.33903 0.17353 0.64724 0.0
H1063 H 0.33016 0.01957 0.69802 0.0
H1064 H 0.39717 0.057 0.64795 0.0
H1065 H 0.38603 0.19388 0.69847 0.0
H1066 H 0.33515 0.02319 0.6794 0.0
H1067 H 0.33749 0.17287 0.66591 0.0
C1068 C 0.35194 0.14813 0.65123 0.0
C1069 C 0.36834 0.11526 0.64585 0.0
C1070 C 0.34624 0.06049 0.68363 0.0
C1071 C 0.36426 0.11294 0.66728 0.0
C1072 C 0.34385 0.05874 0.69429 0.0
C1073 C 0.35819 0.10665 0.69998 0.0
C1074 C 0.36162 0.11004 0.67856 0.0
C1075 C 0.37364 0.15556 0.69453 0.0
C1076 C 0.35056 0.14758 0.66191 0.0
C1077 C 0.38296 0.08212 0.65162 0.0
N1078 N 0.3746 0.1559 0.68413 0.0
N1079 N 0.38006 0.08142 0.662 0.0
H1080 H 0.97849 0.38439 0.64755 0.0
H1081 H 0.92243 0.20384 0.69832 0.0
H1082 H 0.9214 0.2102 0.64722 0.0
H1083 H 0.98255 0.37863 0.69846 0.0
H1084 H 0.91947 0.20468 0.67963 0.0
H1085 H 0.97876 0.3826 0.66621 0.0
C1086 C 0.96619 0.34577 0.65139 0.0
C1087 C 0.95005 0.2974 0.64578 0.0
C1088 C 0.9333 0.24285 0.68375 0.0
C1089 C 0.94975 0.29494 0.66721 0.0
C1090 C 0.93472 0.24235 0.69443 0.0
C1091 C 0.95288 0.29126 0.69999 0.0
C1092 C 0.95004 0.2926 0.67856 0.0
C1093 C 0.96903 0.34006 0.69451 0.0
C1094 C 0.96608 0.34472 0.66207 0.0
C1095 C 0.93358 0.24839 0.65121 0.0
N1096 N 0.96721 0.33947 0.68412 0.0
N1097 N 0.93399 0.24845 0.66162 0.0
H1098 H 0.41011 0.9742 0.2012 0.0
H1099 H 0.3536 0.06089 0.14693 0.0
H1100 H 0.26233 0.9797 0.19479 0.0
H1101 H 0.44282 0.97306 0.1499 0.0
H1102 H 0.32976 0.04456 0.165 0.0
H1103 H 0.43248 0.98606 0.18288 0.0
C1104 C 0.38232 0.97767 0.1959 0.0
C1105 C 0.33429 0.9759 0.19945 0.0
C1106 C 0.35446 0.02882 0.16167 0.0
C1107 C 0.36006 0.9905 0.17863 0.0
C1108 C 0.368 0.03786 0.15131 0.0
C1109 C 0.39981 0.01771 0.14674 0.0
C1110 C 0.37375 0.00048 0.16761 0.0
C1111 C 0.41872 0.98993 0.15303 0.0
C1112 C 0.39501 0.9843 0.18549 0.0
C1113 C 0.29953 0.9805 0.19232 0.0
N1114 N 0.40555 0.98229 0.16315 0.0
N1115 N 0.31341 0.98823 0.18224 0.0
H1116 H 0.09318 0.51089 0.1498 0.0
H1117 H 0.08858 0.3188 0.19496 0.0
H1118 H 0.00958 0.33363 0.14718 0.0
H1119 H 0.09014 0.47062 0.2009 0.0
H1120 H 0.07663 0.32958 0.17664 0.0
H1121 H 0.1069 0.50225 0.16804 0.0
C1122 C 0.07727 0.47016 0.15301 0.0
C1123 C 0.05038 0.42296 0.14682 0.0
C1124 C 0.0798 0.36057 0.18197 0.0
C1125 C 0.06777 0.41321 0.16765 0.0
C1126 C 0.087 0.35464 0.19237 0.0
C1127 C 0.09016 0.39382 0.19939 0.0
C1128 C 0.07685 0.40654 0.17858 0.0
C1129 C 0.0875 0.43939 0.1957 0.0
C1130 C 0.08558 0.46539 0.16342 0.0
C1131 C 0.03177 0.37141 0.15149 0.0
N1132 N 0.08124 0.44468 0.18552 0.0
N1133 N 0.04122 0.36798 0.16158 0.0
H1134 H 0.59083 0.65657 0.20086 0.0
H1135 H 0.73696 0.7165 0.14684 0.0
H1136 H 0.74401 0.80536 0.1948 0.0
H1137 H 0.55966 0.62584 0.14951 0.0
H1138 H 0.74343 0.73971 0.16493 0.0
H1139 H 0.58137 0.63512 0.1825 0.0
C1140 C 0.62228 0.68478 0.19563 0.0
C1141 C 0.66821 0.73282 0.19928 0.0
C1142 C 0.70317 0.71484 0.16152 0.0
C1143 C 0.65824 0.7081 0.17842 0.0
C1144 C 0.69926 0.70166 0.15116 0.0
C1145 C 0.64754 0.66958 0.1465 0.0
C1146 C 0.65518 0.69493 0.16739 0.0
C1147 C 0.60048 0.65012 0.15271 0.0
C1148 C 0.61682 0.67261 0.18519 0.0
C1149 C 0.70785 0.76814 0.19224 0.0
N1150 N 0.60544 0.66295 0.16284 0.0
N1151 N 0.70229 0.75476 0.18214 0.0
H1152 H 0.081 0.47661 0.86156 0.0
H1153 H 0.88948 0.29111 0.81614 0.0
H1154 H 0.92764 0.32734 0.86727 0.0
H1155 H 0.06691 0.38258 0.81379 0.0
H1156 H 0.8976 0.31358 0.83436 0.0
H1157 H 0.07078 0.45425 0.84322 0.0
C1158 C 0.04493 0.4395 0.85892 0.0
C1159 C 0.00515 0.40364 0.86588 0.0
C1160 C 0.93461 0.32861 0.82981 0.0
C1161 C -0.00691 0.37804 0.84505 0.0
C1162 C 0.93014 0.31546 0.81941 0.0
C1163 C 0.97755 0.33507 0.8133 0.0
C1164 C 0.98673 0.3624 0.83412 0.0
C1165 C 0.02901 0.36752 0.81804 0.0
C1166 C 0.03932 0.42658 0.8485 0.0
C1167 C 0.95932 0.35582 0.86211 0.0
N1168 N 0.03217 0.38049 0.82813 0.0
N1169 N 0.95436 0.34446 0.85193 0.0
H1170 H 0.58875 0.6394 0.86141 0.0
H1171 H 0.77522 0.63426 0.81613 0.0
H1172 H 0.73942 0.63853 0.86727 0.0
H1173 H 0.68217 0.71839 0.81358 0.0
H1174 H 0.75299 0.62052 0.83437 0.0
H1175 H 0.61099 0.65093 0.84306 0.0
C1176 C 0.62616 0.64103 0.85879 0.0
C1177 C 0.66243 0.63819 0.8658 0.0
C1178 C 0.73755 0.64195 0.82976 0.0
C1179 C 0.68789 0.651 0.84496 0.0
C1180 C 0.75054 0.65026 0.81935 0.0
C1181 C 0.73041 0.67736 0.81318 0.0
C1182 C 0.7034 0.65992 0.83402 0.0
C1183 C 0.69761 0.69605 0.81787 0.0
C1184 C 0.63901 0.64799 0.84838 0.0
C1185 C 0.71063 0.64091 0.86208 0.0
N1186 N 0.68481 0.68658 0.82797 0.0
N1187 N 0.7219 0.64692 0.85189 0.0
H1188 H 0.46776 0.09836 0.81151 0.0
H1189 H 0.32568 0.01323 0.86588 0.0
H1190 H 0.31417 0.09222 0.81791 0.0
H1191 H 0.50277 0.10075 0.86276 0.0
H1192 H 0.31776 0.02943 0.84782 0.0
H1193 H 0.47883 0.08761 0.82985 0.0
C1194 C 0.43656 0.09502 0.81681 0.0
C1195 C 0.39004 0.09623 0.81326 0.0
C1196 C 0.3583 0.04516 0.85112 0.0
C1197 C 0.40185 0.0829 0.83411 0.0
C1198 C 0.36304 0.0362 0.86147 0.0
C1199 C 0.41513 0.05623 0.866 0.0
C1200 C 0.40582 0.07332 0.84513 0.0
C1201 C 0.46171 0.08394 0.85967 0.0
C1202 C 0.44294 0.08902 0.82724 0.0
C1203 C 0.35076 0.09182 0.82039 0.0
N1204 N 0.45594 0.09149 0.84956 0.0
N1205 N 0.35722 0.08469 0.83048 0.0
H1206 H 0.09028 0.34449 0.53473 0.0
H1207 H 0.97099 0.28335 0.47769 0.0
H1208 H 0.91715 0.26817 0.52766 0.0
H1209 H 0.14409 0.38117 0.48473 0.0
H1210 H 0.95063 0.27088 0.49595 0.0
H1211 H 0.11066 0.35167 0.51648 0.0
C1212 C 0.05648 0.32942 0.52935 0.0
C1213 C 0.00186 0.30617 0.53277 0.0
C1214 C -0.00692 0.29502 0.49351 0.0
C1215 C 0.02504 0.31358 0.51179 0.0
C1216 C 0.00478 0.30245 0.48307 0.0
C1217 C 0.05939 0.33389 0.47964 0.0
C1218 C 0.03623 0.31895 0.50062 0.0
C1219 C 0.10144 0.35635 0.487 0.0
C1220 C 0.0682 0.33329 0.51891 0.0
C1221 C 0.95981 0.28608 0.52541 0.0
N1222 N 0.08896 0.34861 0.49714 0.0
N1223 N 0.9723 0.29043 0.51527 0.0
H1224 H 0.7596 0.84509 0.4828 0.0
H1225 H 0.75525 0.65402 0.52815 0.0
H1226 H 0.67709 0.66786 0.48024 0.0
H1227 H 0.75632 0.80574 0.53392 0.0
H1228 H 0.7435 0.66441 0.50981 0.0
H1229 H 0.77317 0.83677 0.50105 0.0
C1230 C 0.74391 0.80443 0.48602 0.0
C1231 C 0.71734 0.75715 0.47984 0.0
C1232 C 0.7465 0.69546 0.5151 0.0
C1233 C 0.73457 0.74778 0.5007 0.0
C1234 C 0.75359 0.68976 0.52552 0.0
C1235 C 0.75657 0.72902 0.53251 0.0
C1236 C 0.74348 0.74129 0.51166 0.0
C1237 C 0.75381 0.77443 0.52875 0.0
C1238 C 0.75212 0.79985 0.49644 0.0
C1239 C 0.69903 0.7057 0.48454 0.0
N1240 N 0.74767 0.77951 0.51857 0.0
N1241 N 0.70838 0.70246 0.49464 0.0
H1242 H 0.26392 0.92066 0.48479 0.0
H1243 H 0.38185 0.15643 0.52756 0.0
H1244 H 0.34123 0.09404 0.47785 0.0
H1245 H 0.28335 0.98311 0.53439 0.0
H1246 H 0.36787 0.13463 0.50931 0.0
H1247 H 0.27111 0.94273 0.50301 0.0
C1248 C 0.28202 0.96333 0.48707 0.0
C1249 C 0.3023 0.00552 0.47974 0.0
C1250 C 0.3492 0.1014 0.51481 0.0
C1251 C 0.31132 0.03118 0.50063 0.0
C1252 C 0.35694 0.11386 0.52524 0.0
C1253 C 0.33415 0.07156 0.53255 0.0
C1254 C 0.31853 0.04622 0.51164 0.0
C1255 C 0.30273 0.01706 0.52905 0.0
C1256 C 0.28637 0.97594 0.49749 0.0
C1257 C 0.32601 0.06015 0.4832 0.0
N1258 N 0.29608 0.00599 0.51887 0.0
N1259 N 0.33004 0.07137 0.49338 0.0
H1260 H 0.56693 0.45578 0.07411 0.0
H1261 H 0.41626 0.17949 0.10673 0.0
H1262 H 0.5567 0.45271 0.1071 0.0
H1263 H 0.4234 0.18438 0.07372 0.0
H1264 H 0.45608 0.27914 0.10698 0.0
H1265 H 0.50811 0.35624 0.07385 0.0
C1266 C 0.55284 0.43411 0.08132 0.0
C1267 C 0.56714 0.46263 0.09066 0.0
C1268 C 0.44804 0.25829 0.09968 0.0
C1269 C 0.49875 0.34847 0.09038 0.0
C1270 C 0.42472 0.20126 0.09952 0.0
C1271 C 0.41771 0.17369 0.09019 0.0
C1272 C 0.46449 0.28776 0.09045 0.0
C1273 C 0.42893 0.20401 0.08109 0.0
C1274 C 0.51871 0.37724 0.08115 0.0
C1275 C 0.54715 0.43234 0.09974 0.0
N1276 N 0.4528 0.2596 0.08146 0.0
N1277 N 0.51396 0.37681 0.09937 0.0
H1278 H 0.61422 0.14973 0.07437 0.0
H1279 H 0.89049 0.27278 0.10687 0.0
H1280 H 0.61751 0.1421 0.10736 0.0
H1281 H 0.88531 0.27471 0.07386 0.0
H1282 H 0.79083 0.21305 0.10715 0.0
H1283 H 0.71355 0.18899 0.07406 0.0
C1284 C 0.63591 0.15693 0.08157 0.0
C1285 C 0.6075 0.143 0.09092 0.0
C1286 C 0.81161 0.22572 0.09984 0.0
C1287 C 0.72141 0.18705 0.09059 0.0
C1288 C 0.86866 0.25936 0.09966 0.0
C1289 C 0.89614 0.27997 0.09032 0.0
C1290 C 0.78205 0.21281 0.09063 0.0
C1291 C 0.86576 0.26064 0.08124 0.0
C1292 C 0.69264 0.17879 0.08137 0.0
C1293 C 0.6378 0.15274 0.09998 0.0
N1294 N 0.81014 0.22907 0.08163 0.0
N1295 N 0.6932 0.17424 0.09959 0.0
H1296 H 0.79501 0.65568 0.10637 0.0
H1297 H 0.90977 0.49344 0.0744 0.0
H1298 H 0.78985 0.6441 0.0734 0.0
H1299 H 0.92339 0.5112 0.10727 0.0
H1300 H 0.87074 0.55362 0.0739 0.0
H1301 H 0.85274 0.6136 0.10676 0.0
C1302 C 0.80731 0.64579 0.09919 0.0
C1303 C 0.78639 0.6521 0.08984 0.0
C1304 C 0.88215 0.54434 0.08123 0.0
C1305 C 0.85117 0.60272 0.09027 0.0
C1306 C 0.90385 0.50939 0.08154 0.0
C1307 C 0.91959 0.49698 0.09091 0.0
C1308 C 0.8759 0.567 0.09035 0.0
C1309 C 0.91138 0.51928 0.09989 0.0
C1310 C 0.83979 0.62117 0.09943 0.0
C1311 C 0.80422 0.63913 0.08079 0.0
N1312 N 0.89009 0.55329 0.09939 0.0
N1313 N 0.83467 0.61395 0.08124 0.0
H1314 H 0.44783 0.5588 0.90414 0.0
H1315 H 0.17528 0.41409 0.93812 0.0
H1316 H 0.44574 0.56178 0.93718 0.0
H1317 H 0.17428 0.42079 0.90511 0.0
H1318 H 0.27472 0.45313 0.93771 0.0
H1319 H 0.34793 0.49881 0.9042 0.0
C1320 C 0.42633 0.54742 0.9114 0.0
C1321 C 0.45514 0.56576 0.92067 0.0
C1322 C 0.25264 0.44522 0.93054 0.0
C1323 C 0.34114 0.49609 0.92079 0.0
C1324 C 0.1957 0.42228 0.93077 0.0
C1325 C 0.16657 0.41549 0.92165 0.0
C1326 C 0.28051 0.46155 0.92115 0.0
C1327 C 0.1952 0.42625 0.91235 0.0
C1328 C 0.36939 0.51266 0.91143 0.0
C1329 C 0.42522 0.54907 0.92984 0.0
N1330 N 0.25084 0.44989 0.91234 0.0
N1331 N 0.36989 0.51517 0.92967 0.0
H1332 H 0.49848 0.92111 0.93783 0.0
H1333 H 0.64264 0.79048 0.90485 0.0
H1334 H 0.50548 0.92679 0.90481 0.0
H1335 H 0.64329 0.79511 0.93788 0.0
H1336 H 0.60317 0.85058 0.90459 0.0
H1337 H 0.55699 0.88016 0.93789 0.0
C1338 C 0.51179 0.91316 0.93057 0.0
C1339 C 0.49667 0.92703 0.92129 0.0
C1340 C 0.61287 0.83924 0.91189 0.0
C1341 C 0.5647 0.88094 0.92132 0.0
C1342 C 0.63599 0.80537 0.91205 0.0
C1343 C 0.64507 0.78666 0.92141 0.0
C1344 C 0.5987 0.85425 0.92115 0.0
C1345 C 0.63609 0.80771 0.93048 0.0
C1346 C 0.54577 0.8903 0.93062 0.0
C1347 C 0.51571 0.91627 0.91214 0.0
N1348 N 0.61236 0.83952 0.93012 0.0
N1349 N 0.54873 0.89376 0.91238 0.0
H1350 H 0.2687 0.8878 0.93875 0.0
H1351 H 0.14032 0.61677 0.90437 0.0
H1352 H 0.27268 0.89016 0.90571 0.0
H1353 H 0.1504 0.61783 0.93736 0.0
H1354 H 0.17954 0.71651 0.90462 0.0
H1355 H 0.20989 0.78814 0.93827 0.0
C1356 C 0.25596 0.86758 0.93139 0.0
C1357 C 0.27686 0.89717 0.92226 0.0
C1358 C 0.17324 0.69486 0.9118 0.0
C1359 C 0.21087 0.78313 0.92167 0.0
C1360 C 0.1515 0.63803 0.91166 0.0
C1361 C 0.14242 0.60897 0.92086 0.0
C1362 C 0.18585 0.72271 0.92121 0.0
C1363 C 0.15701 0.63856 0.93008 0.0
C1364 C 0.2229 0.81055 0.93112 0.0
C1365 C 0.25837 0.86885 0.91295 0.0
N1366 N 0.17791 0.69379 0.93001 0.0
N1367 N 0.22732 0.81315 0.91289 0.0
H1368 H 0.22049 0.78616 0.4414 0.0
H1369 H 0.08112 0.51337 0.40741 0.0
H1370 H 0.22437 0.78413 0.40837 0.0
H1371 H 0.08751 0.51247 0.44042 0.0
H1372 H 0.11901 0.61266 0.40781 0.0
H1373 H 0.16239 0.68599 0.44134 0.0
C1374 C 0.20965 0.76463 0.43414 0.0
C1375 C 0.22773 0.79351 0.42488 0.0
C1376 C 0.11133 0.59064 0.41498 0.0
C1377 C 0.16031 0.67922 0.42475 0.0
C1378 C 0.08911 0.53379 0.41476 0.0
C1379 C 0.08236 0.50476 0.42389 0.0
C1380 C 0.12702 0.61851 0.42438 0.0
C1381 C 0.09288 0.53335 0.43318 0.0
C1382 C 0.17602 0.70753 0.43411 0.0
C1383 C 0.21181 0.76357 0.4157 0.0
N1384 N 0.11575 0.5889 0.43319 0.0
N1385 N 0.17902 0.70808 0.41588 0.0
H1386 H 0.55086 0.60296 0.40719 0.0
H1387 H 0.27867 0.47118 0.44127 0.0
H1388 H 0.55206 0.60916 0.44021 0.0
H1389 H 0.28034 0.47763 0.40825 0.0
H1390 H 0.37861 0.51169 0.44115 0.0
H1391 H 0.45155 0.54155 0.4076 0.0
C1392 C 0.53051 0.59022 0.41454 0.0
C1393 C 0.55961 0.61237 0.42367 0.0
C1394 C 0.35705 0.50423 0.43394 0.0
C1395 C 0.44586 0.54332 0.42418 0.0
C1396 C 0.30008 0.48168 0.43401 0.0
C1397 C 0.27116 0.4715 0.42476 0.0
C1398 C 0.3852 0.51656 0.42457 0.0
C1399 C 0.30095 0.48522 0.41557 0.0
C1400 C 0.47365 0.55562 0.41477 0.0
C1401 C 0.53112 0.59385 0.43297 0.0
N1402 N 0.35632 0.50704 0.41571 0.0
N1403 N 0.47555 0.56126 0.43298 0.0
H1404 H 0.57846 0.83092 0.4076 0.0
H1405 H 0.45511 0.98312 0.44023 0.0
H1406 H 0.58704 0.84221 0.44058 0.0
H1407 H 0.4541 0.97738 0.40721 0.0
H1408 H 0.51443 0.94282 0.44049 0.0
H1409 H 0.53846 0.89028 0.40735 0.0
C1410 C 0.57128 0.84531 0.41481 0.0
C1411 C 0.58577 0.83124 0.42414 0.0
C1412 C 0.50202 0.95128 0.43319 0.0
C1413 C 0.54092 0.90027 0.42388 0.0
C1414 C 0.4686 0.97486 0.43302 0.0
C1415 C 0.44846 0.9823 0.42368 0.0
C1416 C 0.51512 0.935 0.42395 0.0
C1417 C 0.46782 0.97143 0.41459 0.0
C1418 C 0.54901 0.87978 0.41465 0.0
C1419 C 0.57602 0.85161 0.43322 0.0
N1420 N 0.49919 0.94724 0.41496 0.0
N1421 N 0.55414 0.88513 0.43286 0.0
H1422 H 0.843 0.74993 0.27135 0.0
H1423 H 0.11613 0.89516 0.23749 0.0
H1424 H 0.84219 0.7585 0.23836 0.0
H1425 H 0.1133 0.89792 0.27053 0.0
H1426 H 0.01608 0.83592 0.23747 0.0
H1427 H 0.9425 0.78942 0.27094 0.0
C1428 C 0.86351 0.7587 0.264 0.0
C1429 C 0.8344 0.75216 0.25489 0.0
C1430 C 0.03744 0.84959 0.24472 0.0
C1431 C 0.94836 0.79871 0.25439 0.0
C1432 C 0.09445 0.88391 0.24473 0.0
C1433 C 0.12308 0.90189 0.25402 0.0
C1434 C 0.00898 0.83309 0.25406 0.0
C1435 C 0.09294 0.88542 0.26317 0.0
C1436 C 0.92046 0.78187 0.26377 0.0
C1437 C 0.86311 0.76367 0.24559 0.0
N1438 N 0.03757 0.85192 0.26295 0.0
N1439 N 0.91876 0.78749 0.24558 0.0
H1440 H 0.31393 0.13007 0.2718 0.0
H1441 H 0.17083 0.25914 0.23773 0.0
H1442 H 0.30999 0.12486 0.23877 0.0
H1443 H 0.16578 0.25209 0.27075 0.0
H1444 H 0.23066 0.21912 0.23784 0.0
H1445 H 0.27414 0.18976 0.2714 0.0
C1446 C 0.30615 0.14269 0.26445 0.0
C1447 C 0.31399 0.1213 0.25531 0.0
C1448 C 0.21636 0.2263 0.24505 0.0
C1449 C 0.2671 0.18833 0.25481 0.0
C1450 C 0.18168 0.24852 0.24499 0.0
C1451 C 0.16289 0.25855 0.25424 0.0
C1452 C 0.23238 0.21415 0.25442 0.0
C1453 C 0.1789 0.2447 0.26343 0.0
C1454 C 0.2828 0.17629 0.26423 0.0
C1455 C 0.30374 0.13962 0.24602 0.0
N1456 N 0.21275 0.22327 0.26328 0.0
N1457 N 0.27969 0.17121 0.24601 0.0
H1458 H 0.8031 0.94951 0.2376 0.0
H1459 H 0.93427 0.22147 0.27177 0.0
H1460 H 0.80993 0.951 0.27063 0.0
H1461 H 0.93952 0.22306 0.23874 0.0
H1462 H 0.87358 0.12205 0.27134 0.0
H1463 H 0.84354 0.04947 0.23775 0.0
C1464 C 0.81371 0.97088 0.24488 0.0
C1465 C 0.80359 0.9419 0.25411 0.0
C1466 C 0.88728 0.14425 0.26418 0.0
C1467 C 0.84852 0.05594 0.25434 0.0
C1468 C 0.92146 0.20117 0.26441 0.0
C1469 C 0.94314 0.23044 0.25529 0.0
C1470 C 0.87493 0.11656 0.25475 0.0
C1471 C 0.92456 0.202 0.24598 0.0
C1472 C 0.8362 0.02785 0.24496 0.0
C1473 C 0.81744 0.97166 0.26331 0.0
N1474 N 0.89239 0.14638 0.24595 0.0
N1475 N 0.83916 0.02701 0.26319 0.0
H1476 H 0.7502 0.84474 0.77371 0.0
H1477 H 0.89764 0.12082 0.74103 0.0
H1478 H 0.75292 0.84971 0.74068 0.0
H1479 H 0.88924 0.11816 0.77404 0.0
H1480 H 0.83875 0.02131 0.74083 0.0
H1481 H 0.78987 0.94438 0.77403 0.0
C1482 C 0.75764 0.86652 0.76652 0.0
C1483 C 0.74948 0.839 0.75715 0.0
C1484 C 0.84976 0.04239 0.74813 0.0
C1485 C 0.79607 0.95303 0.75748 0.0
C1486 C 0.88395 0.09924 0.74826 0.0
C1487 C 0.89877 0.12787 0.75758 0.0
C1488 C 0.8303 0.01373 0.75739 0.0
C1489 C 0.87926 0.0977 0.76669 0.0
C1490 C 0.78087 0.92355 0.76671 0.0
C1491 C 0.75941 0.86932 0.74808 0.0
N1492 N 0.84602 0.04217 0.76636 0.0
N1493 N 0.78324 0.92489 0.74848 0.0
H1494 H 0.21957 0.93655 0.74079 0.0
H1495 H 0.94648 0.80817 0.77461 0.0
H1496 H 0.21988 0.94217 0.77381 0.0
H1497 H 0.94894 0.81353 0.74157 0.0
H1498 H 0.04632 0.84788 0.77459 0.0
H1499 H 0.12005 0.8764 0.7411 0.0
C1500 C 0.19899 0.92389 0.74812 0.0
C1501 C 0.22796 0.94561 0.75728 0.0
C1502 C 0.02496 0.84038 0.76735 0.0
C1503 C 0.11393 0.87803 0.75767 0.0
C1504 C 0.96805 0.81831 0.76736 0.0
C1505 C 0.93935 0.80797 0.75808 0.0
C1506 C 0.05331 0.85209 0.758 0.0
C1507 C 0.96937 0.82123 0.74892 0.0
C1508 C 0.14199 0.89004 0.74829 0.0
C1509 C 0.19909 0.92723 0.76655 0.0
N1510 N 0.02468 0.84257 0.74911 0.0
N1511 N 0.14344 0.89539 0.76651 0.0
H1512 H 0.23083 0.14747 0.74142 0.0
H1513 H 0.13074 0.32541 0.74024 0.0
H1514 H 0.26369 0.18636 0.77353 0.0
H1515 H 0.11823 0.30607 0.77307 0.0
H1516 H 0.18978 0.28498 0.73994 0.0
H1517 H 0.19055 0.20621 0.74045 0.0
C1518 C 0.22941 0.16834 0.74829 0.0
C1519 C 0.25066 0.162 0.75757 0.0
C1520 C 0.17391 0.28916 0.74721 0.0
C1521 C 0.20718 0.23208 0.75641 0.0
C1522 C 0.14118 0.3135 0.74741 0.0
C1523 C 0.11811 0.31751 0.75665 0.0
C1524 C 0.18272 0.26798 0.75631 0.0
C1525 C 0.13412 0.30264 0.76573 0.0
C1526 C 0.20745 0.20301 0.74768 0.0
C1527 C 0.2475 0.18984 0.76622 0.0
N1528 N 0.16453 0.2774 0.76531 0.0
N1529 N 0.2262 0.22374 0.76542 0.0
H1530 H 0.50929 0.08599 0.60487 0.0
H1531 H 0.78242 0.22614 0.57099 0.0
H1532 H 0.50891 0.09292 0.57186 0.0
H1533 H 0.78012 0.22987 0.60402 0.0
H1534 H 0.68234 0.16751 0.57103 0.0
H1535 H 0.60855 0.1236 0.60451 0.0
C1536 C 0.5298 0.09398 0.59753 0.0
C1537 C 0.50092 0.08756 0.58839 0.0
C1538 C 0.7038 0.18121 0.57826 0.0
C1539 C 0.61467 0.13192 0.58795 0.0
C1540 C 0.76085 0.21515 0.57824 0.0
C1541 C 0.78964 0.2334 0.58751 0.0
C1542 C 0.67539 0.16534 0.58761 0.0
C1543 C 0.75962 0.21723 0.59668 0.0
C1544 C 0.58664 0.11607 0.59733 0.0
C1545 C 0.52965 0.09809 0.57911 0.0
N1546 N 0.70417 0.18415 0.59649 0.0
N1547 N 0.58519 0.12083 0.57913 0.0
H1548 H 0.97595 0.4595 0.57169 0.0
H1549 H 0.82801 0.58712 0.60438 0.0
H1550 H 0.97461 0.4631 0.60472 0.0
H1551 H 0.83793 0.59489 0.57138 0.0
H1552 H 0.88662 0.54631 0.60455 0.0
H1553 H 0.93574 0.51894 0.57135 0.0
C1554 C 0.96867 0.47402 0.57888 0.0
C1555 C 0.9774 0.45521 0.58826 0.0
C1556 C 0.87601 0.55687 0.59726 0.0
C1557 C 0.93023 0.52202 0.58791 0.0
C1558 C 0.84196 0.57962 0.59715 0.0
C1559 C 0.82772 0.59412 0.58784 0.0
C1560 C 0.89588 0.54826 0.58801 0.0
C1561 C 0.84749 0.5839 0.57873 0.0
C1562 C 0.94516 0.50751 0.57867 0.0
C1563 C 0.96768 0.4758 0.59731 0.0
N1564 N 0.8806 0.56151 0.57904 0.0
N1565 N 0.94357 0.50723 0.59691 0.0
H1566 H 0.48088 0.28635 0.60458 0.0
H1567 H 0.60336 0.56186 0.57196 0.0
H1568 H 0.4706 0.28888 0.57162 0.0
H1569 H 0.60269 0.55711 0.60499 0.0
H1570 H 0.54367 0.4622 0.57169 0.0
H1571 H 0.52004 0.3857 0.60484 0.0
C1572 C 0.48751 0.30788 0.59738 0.0
C1573 C 0.47281 0.27928 0.58805 0.0
C1574 C 0.55575 0.48308 0.579 0.0
C1575 C 0.51668 0.3931 0.58832 0.0
C1576 C 0.58938 0.54012 0.57917 0.0
C1577 C 0.60927 0.56768 0.58852 0.0
C1578 C 0.54223 0.45367 0.58824 0.0
C1579 C 0.58924 0.53744 0.5976 0.0
C1580 C 0.50926 0.3646 0.59754 0.0
C1581 C 0.4818 0.30934 0.57898 0.0
N1582 N 0.55775 0.48184 0.59723 0.0
N1583 N 0.50324 0.36471 0.57934 0.0
loop_
_geom_bond_atom_site_label_1
_geom_bond_atom_site_label_2
_geom_bond_distance
_geom_bond_site_symmetry_2
_ccdc_geom_bond_type
C0 O16 1.251 . S
C0 O18 1.254 . S
N1 C2 1.333 . S
N1 C6 1.307 . S
N1 Zn7 2.020 . S
C2 N1 1.333 . S
C2 C3 1.379 . S
C2 H20 0.951 . S
C3 C2 1.379 . S
C3 C4 1.390 . S
C3 H30 0.949 1_545 S
C4 C3 1.390 . S
C4 C5 1.357 . S
C5 C4 1.357 . S
C5 C6 1.370 . S
C5 H31 0.950 . S
C6 N1 1.307 . S
C6 C5 1.370 . S
C6 H24 0.948 . S
Zn7 N1 2.020 . S
Zn7 O16 2.039 1_545 S
Zn7 O22 2.034 . S
Zn7 O26 2.025 . S
Zn7 O28 2.024 1_545 S
C8 O27 1.246 . S
C8 O28 1.249 . S
N9 C10 1.307 . S
N9 C11 1.333 . S
N9 Zn15 2.020 . S
C10 N9 1.307 . S
C10 C14 1.370 . S
C10 H21 0.948 . S
C11 N9 1.333 . S
C11 C12 1.379 . S
C11 H19 0.952 . S
C12 C11 1.379 . S
C12 C13 1.390 . S
C12 H32 0.949 . S
C13 C12 1.390 . S
C13 C14 1.357 . S
C14 C10 1.370 . S
C14 C13 1.357 . S
C14 H33 0.950 . S
Zn15 N9 2.020 . S
Zn15 O18 2.025 1_545 S
Zn15 O23 2.024 . S
Zn15 O25 2.039 . S
Zn15 O27 2.034 1_545 S
O16 C0 1.251 . S
O16 Zn7 2.039 1_565 S
C17 O22 1.246 . S
C17 O23 1.249 . S
O18 C0 1.254 . S
O18 Zn15 2.025 1_565 S
H19 C11 0.952 . S
H20 C2 0.951 . S
H21 C10 0.948 . S
O22 Zn7 2.034 . S
O22 C17 1.246 . S
O23 Zn15 2.024 . S
O23 C17 1.249 . S
H24 C6 0.948 . S
O25 Zn15 2.039 . S
O25 C29 1.251 . S
O26 Zn7 2.025 . S
O26 C29 1.254 . S
O27 C8 1.246 . S
O27 Zn15 2.034 1_565 S
O28 Zn7 2.024 1_565 S
O28 C8 1.249 . S
C29 O25 1.251 . S
C29 O26 1.254 . S
H30 C3 0.949 1_565 S
H31 C5 0.950 . S
H32 C12 0.949 . S
H33 C14 0.950 . S
C34 O50 1.251 . S
C34 O52 1.254 . S
N35 C36 1.333 . S
N35 C40 1.307 . S
N35 Zn41 2.020 . S
C36 N35 1.333 . S
C36 C37 1.379 . S
C36 H54 0.952 . S
C37 C36 1.379 . S
C37 C38 1.390 . S
C37 H64 0.949 . S
C38 C37 1.390 . S
C38 C39 1.357 . S
C39 C38 1.357 . S
C39 C40 1.370 . S
C39 H65 0.950 . S
C40 N35 1.307 . S
C40 C39 1.370 . S
C40 H58 0.948 . S
Zn41 N35 2.020 . S
Zn41 O50 2.039 . S
Zn41 O56 2.034 1_455 S
Zn41 O60 2.025 1_455 S
Zn41 O62 2.024 . S
C42 O61 1.246 . S
C42 O62 1.249 . S
N43 C44 1.307 . S
N43 C45 1.333 . S
N43 Zn49 2.020 . S
C44 N43 1.307 . S
C44 C48 1.370 . S
C44 H55 0.948 . S
C45 N43 1.333 . S
C45 C46 1.379 . S
C45 H53 0.952 . S
C46 C45 1.379 . S
C46 C47 1.390 . S
C46 H66 0.949 . S
C47 C46 1.390 . S
C47 C48 1.357 . S
C48 C44 1.370 . S
C48 C47 1.357 . S
C48 H67 0.950 . S
Zn49 N43 2.020 . S
Zn49 O52 2.025 . S
Zn49 O57 2.024 1_455 S
Zn49 O59 2.039 1_455 S
Zn49 O61 2.034 . S
O50 C34 1.251 . S
O50 Zn41 2.039 . S
C51 O56 1.246 . S
C51 O57 1.249 . S
O52 C34 1.254 . S
O52 Zn49 2.025 . S
H53 C45 0.952 . S
H54 C36 0.952 . S
H55 C44 0.948 . S
O56 Zn41 2.034 1_655 S
O56 C51 1.246 . S
O57 Zn49 2.024 1_655 S
O57 C51 1.249 . S
H58 C40 0.948 . S
O59 Zn49 2.039 1_655 S
O59 C63 1.251 . S
O60 Zn41 2.025 1_655 S
O60 C63 1.254 . S
O61 C42 1.246 . S
O61 Zn49 2.034 . S
O62 Zn41 2.024 . S
O62 C42 1.249 . S
C63 O59 1.251 . S
C63 O60 1.254 . S
H64 C37 0.949 . S
H65 C39 0.950 . S
H66 C46 0.949 . S
H67 C48 0.950 . S
C68 O84 1.251 . S
C68 O86 1.254 . S
N69 C70 1.333 . S
N69 C74 1.307 . S
N69 Zn75 2.020 . S
C70 N69 1.333 . S
C70 C71 1.379 . S
C70 H88 0.952 . S
C71 C70 1.379 . S
C71 C72 1.390 . S
C71 H98 0.949 . S
C72 C71 1.390 . S
C72 C73 1.357 . S
C73 C72 1.357 . S
C73 C74 1.370 . S
C73 H99 0.950 . S
C74 N69 1.307 . S
C74 C73 1.370 . S
C74 H92 0.948 . S
Zn75 N69 2.020 . S
Zn75 O84 2.039 . S
Zn75 O90 2.034 . S
Zn75 O94 2.025 . S
Zn75 O96 2.024 . S
C76 O95 1.246 . S
C76 O96 1.249 . S
N77 C78 1.307 . S
N77 C79 1.333 . S
N77 Zn83 2.020 . S
C78 N77 1.307 . S
C78 C82 1.370 . S
C78 H89 0.948 . S
C79 N77 1.333 . S
C79 C80 1.379 . S
C79 H87 0.952 . S
C80 C79 1.379 . S
C80 C81 1.390 . S
C80 H100 0.949 . S
C81 C80 1.390 . S
C81 C82 1.357 . S
C82 C78 1.370 . S
C82 C81 1.357 . S
C82 H101 0.950 . S
Zn83 N77 2.020 . S
Zn83 O86 2.025 . S
Zn83 O91 2.024 . S
Zn83 O93 2.039 . S
Zn83 O95 2.034 . S
O84 C68 1.251 . S
O84 Zn75 2.039 . S
C85 O90 1.246 . S
C85 O91 1.249 . S
O86 C68 1.254 . S
O86 Zn83 2.025 . S
H87 C79 0.952 . S
H88 C70 0.952 . S
H89 C78 0.948 . S
O90 Zn75 2.034 . S
O90 C85 1.246 . S
O91 Zn83 2.024 . S
O91 C85 1.249 . S
H92 C74 0.948 . S
O93 Zn83 2.039 . S
O93 C97 1.251 . S
O94 Zn75 2.025 . S
O94 C97 1.254 . S
O95 C76 1.246 . S
O95 Zn83 2.034 . S
O96 Zn75 2.024 . S
O96 C76 1.249 . S
C97 O93 1.251 . S
C97 O94 1.254 . S
H98 C71 0.949 . S
H99 C73 0.950 . S
H100 C80 0.949 . S
H101 C82 0.950 . S
C102 O118 1.251 . S
C102 O120 1.254 . S
N103 C104 1.333 . S
N103 C108 1.307 . S
N103 Zn109 2.020 . S
C104 N103 1.333 . S
C104 C105 1.379 . S
C104 H122 0.951 . S
C105 C104 1.379 . S
C105 C106 1.390 . S
C105 H132 0.949 1_455 S
C106 C105 1.390 . S
C106 C107 1.357 . S
C107 C106 1.357 . S
C107 C108 1.370 . S
C107 H133 0.950 . S
C108 N103 1.307 . S
C108 C107 1.370 . S
C108 H126 0.948 . S
Zn109 N103 2.020 . S
Zn109 O118 2.039 1_455 S
Zn109 O124 2.034 . S
Zn109 O128 2.025 . S
Zn109 O130 2.024 1_455 S
C110 O129 1.246 . S
C110 O130 1.249 . S
N111 C112 1.307 . S
N111 C113 1.333 . S
N111 Zn117 2.020 . S
C112 N111 1.307 . S
C112 C116 1.370 . S
C112 H123 0.948 . S
C113 N111 1.333 . S
C113 C114 1.379 . S
C113 H121 0.952 . S
C114 C113 1.379 . S
C114 C115 1.390 . S
C114 H134 0.949 . S
C115 C114 1.390 . S
C115 C116 1.357 . S
C116 C112 1.370 . S
C116 C115 1.357 . S
C116 H135 0.950 . S
Zn117 N111 2.020 . S
Zn117 O120 2.025 1_455 S
Zn117 O125 2.024 . S
Zn117 O127 2.039 . S
Zn117 O129 2.034 1_455 S
O118 C102 1.251 . S
O118 Zn109 2.039 1_655 S
C119 O124 1.246 . S
C119 O125 1.249 . S
O120 C102 1.254 . S
O120 Zn117 2.025 1_655 S
H121 C113 0.952 . S
H122 C104 0.951 . S
H123 C112 0.948 . S
O124 Zn109 2.034 . S
O124 C119 1.246 . S
O125 Zn117 2.024 . S
O125 C119 1.249 . S
H126 C108 0.948 . S
O127 Zn117 2.039 . S
O127 C131 1.251 . S
O128 Zn109 2.025 . S
O128 C131 1.254 . S
O129 C110 1.246 . S
O129 Zn117 2.034 1_655 S
O130 Zn109 2.024 1_655 S
O130 C110 1.249 . S
C131 O127 1.251 . S
C131 O128 1.254 . S
H132 C105 0.949 1_655 S
H133 C107 0.950 . S
H134 C114 0.949 . S
H135 C116 0.950 . S
C136 O152 1.251 . S
C136 O154 1.254 . S
N137 C138 1.333 . S
N137 C142 1.307 . S
N137 Zn143 2.020 . S
C138 N137 1.333 . S
C138 C139 1.379 . S
C138 H156 0.952 . S
C139 C138 1.379 . S
C139 C140 1.390 . S
C139 H166 0.949 . S
C140 C139 1.390 . S
C140 C141 1.357 . S
C141 C140 1.357 . S
C141 C142 1.370 . S
C141 H167 0.950 . S
C142 N137 1.307 . S
C142 C141 1.370 . S
C142 H160 0.948 . S
Zn143 N137 2.020 . S
Zn143 O152 2.039 . S
Zn143 O158 2.034 . S
Zn143 O162 2.025 . S
Zn143 O164 2.024 . S
C144 O163 1.246 . S
C144 O164 1.249 . S
N145 C146 1.307 . S
N145 C147 1.333 . S
N145 Zn151 2.020 . S
C146 N145 1.307 . S
C146 C150 1.370 . S
C146 H157 0.948 . S
C147 N145 1.333 . S
C147 C148 1.379 . S
C147 H155 0.952 . S
C148 C147 1.379 . S
C148 C149 1.390 . S
C148 H168 0.949 . S
C149 C148 1.390 . S
C149 C150 1.357 . S
C150 C146 1.370 . S
C150 C149 1.357 . S
C150 H169 0.950 . S
Zn151 N145 2.020 . S
Zn151 O154 2.025 . S
Zn151 O159 2.024 . S
Zn151 O161 2.039 . S
Zn151 O163 2.034 . S
O152 C136 1.251 . S
O152 Zn143 2.039 . S
C153 O158 1.246 . S
C153 O159 1.249 . S
O154 C136 1.254 . S
O154 Zn151 2.025 . S
H155 C147 0.952 . S
H156 C138 0.952 . S
H157 C146 0.948 . S
O158 Zn143 2.034 . S
O158 C153 1.246 . S
O159 Zn151 2.024 . S
O159 C153 1.249 . S
H160 C142 0.948 . S
O161 Zn151 2.039 . S
O161 C165 1.251 . S
O162 Zn143 2.025 . S
O162 C165 1.254 . S
O163 C144 1.246 . S
O163 Zn151 2.034 . S
O164 Zn143 2.024 . S
O164 C144 1.249 . S
C165 O161 1.251 . S
C165 O162 1.254 . S
H166 C139 0.949 . S
H167 C141 0.950 . S
H168 C148 0.949 . S
H169 C150 0.950 . S
C170 O186 1.251 . S
C170 O188 1.254 . S
N171 C172 1.333 . S
N171 C176 1.307 . S
N171 Zn177 2.020 . S
C172 N171 1.333 . S
C172 C173 1.379 . S
C172 H190 0.952 . S
C173 C172 1.379 . S
C173 C174 1.390 . S
C173 H200 0.949 . S
C174 C173 1.390 . S
C174 C175 1.357 . S
C175 C174 1.357 . S
C175 C176 1.370 . S
C175 H201 0.950 . S
C176 N171 1.307 . S
C176 C175 1.370 . S
C176 H194 0.948 . S
Zn177 N171 2.020 . S
Zn177 O186 2.039 . S
Zn177 O192 2.034 1_545 S
Zn177 O196 2.025 1_545 S
Zn177 O198 2.024 . S
C178 O197 1.246 . S
C178 O198 1.249 . S
N179 C180 1.307 . S
N179 C181 1.333 . S
N179 Zn185 2.020 . S
C180 N179 1.307 . S
C180 C184 1.370 . S
C180 H191 0.948 . S
C181 N179 1.333 . S
C181 C182 1.379 . S
C181 H189 0.952 . S
C182 C181 1.379 . S
C182 C183 1.390 . S
C182 H202 0.949 . S
C183 C182 1.390 . S
C183 C184 1.357 . S
C184 C180 1.370 . S
C184 C183 1.357 . S
C184 H203 0.950 . S
Zn185 N179 2.020 . S
Zn185 O188 2.025 . S
Zn185 O193 2.024 1_545 S
Zn185 O195 2.039 1_545 S
Zn185 O197 2.034 . S
O186 C170 1.251 . S
O186 Zn177 2.039 . S
C187 O192 1.246 . S
C187 O193 1.249 . S
O188 C170 1.254 . S
O188 Zn185 2.025 . S
H189 C181 0.952 . S
H190 C172 0.952 . S
H191 C180 0.948 . S
O192 Zn177 2.034 1_565 S
O192 C187 1.246 . S
O193 Zn185 2.024 1_565 S
O193 C187 1.249 . S
H194 C176 0.948 . S
O195 Zn185 2.039 1_565 S
O195 C199 1.251 . S
O196 Zn177 2.025 1_565 S
O196 C199 1.254 . S
O197 C178 1.246 . S
O197 Zn185 2.034 . S
O198 Zn177 2.024 . S
O198 C178 1.249 . S
C199 O195 1.251 . S
C199 O196 1.254 . S
H200 C173 0.949 . S
H201 C175 0.950 . S
H202 C182 0.949 . S
H203 C184 0.950 . S
C204 O220 1.251 . S
C204 O222 1.254 . S
N205 C206 1.333 . S
N205 C210 1.307 . S
N205 Zn211 2.020 . S
C206 N205 1.333 . S
C206 C207 1.379 . S
C206 H224 0.952 . S
C207 C206 1.379 . S
C207 C208 1.390 . S
C207 H234 0.949 . S
C208 C207 1.390 . S
C208 C209 1.357 . S
C209 C208 1.357 . S
C209 C210 1.370 . S
C209 H235 0.950 . S
C210 N205 1.307 . S
C210 C209 1.370 . S
C210 H228 0.948 . S
Zn211 N205 2.020 . S
Zn211 O220 2.039 . S
Zn211 O226 2.034 . S
Zn211 O230 2.025 . S
Zn211 O232 2.024 . S
C212 O231 1.246 . S
C212 O232 1.249 . S
N213 C214 1.307 . S
N213 C215 1.333 . S
N213 Zn219 2.020 . S
C214 N213 1.307 . S
C214 C218 1.370 . S
C214 H225 0.948 . S
C215 N213 1.333 . S
C215 C216 1.379 . S
C215 H223 0.952 . S
C216 C215 1.379 . S
C216 C217 1.390 . S
C216 H236 0.949 . S
C217 C216 1.390 . S
C217 C218 1.357 . S
C218 C214 1.370 . S
C218 C217 1.357 . S
C218 H237 0.950 . S
Zn219 N213 2.020 . S
Zn219 O222 2.025 . S
Zn219 O227 2.024 . S
Zn219 O229 2.039 . S
Zn219 O231 2.034 . S
O220 C204 1.251 . S
O220 Zn211 2.039 . S
C221 O226 1.246 . S
C221 O227 1.249 . S
O222 C204 1.254 . S
O222 Zn219 2.025 . S
H223 C215 0.952 . S
H224 C206 0.952 . S
H225 C214 0.948 . S
O226 Zn211 2.034 . S
O226 C221 1.246 . S
O227 Zn219 2.024 . S
O227 C221 1.249 . S
H228 C210 0.948 . S
O229 Zn219 2.039 . S
O229 C233 1.251 . S
O230 Zn211 2.025 . S
O230 C233 1.254 . S
O231 C212 1.246 . S
O231 Zn219 2.034 . S
O232 Zn211 2.024 . S
O232 C212 1.249 . S
C233 O229 1.251 . S
C233 O230 1.254 . S
H234 C207 0.949 . S
H235 C209 0.950 . S
H236 C216 0.949 . S
H237 C218 0.950 . S
C238 O254 1.251 . S
C238 O256 1.254 . S
N239 C240 1.333 . S
N239 C244 1.307 . S
N239 Zn245 2.020 . S
C240 N239 1.333 . S
C240 C241 1.379 . S
C240 H258 0.952 . S
C241 C240 1.379 . S
C241 C242 1.390 . S
C241 H268 0.949 . S
C242 C241 1.390 . S
C242 C243 1.357 . S
C243 C242 1.357 . S
C243 C244 1.370 . S
C243 H269 0.950 . S
C244 N239 1.307 . S
C244 C243 1.370 . S
C244 H262 0.948 . S
Zn245 N239 2.020 . S
Zn245 O254 2.039 . S
Zn245 O260 2.034 . S
Zn245 O264 2.025 . S
Zn245 O266 2.024 . S
C246 O265 1.246 . S
C246 O266 1.249 . S
N247 C248 1.307 . S
N247 C249 1.333 . S
N247 Zn253 2.020 . S
C248 N247 1.307 . S
C248 C252 1.370 . S
C248 H259 0.948 . S
C249 N247 1.333 . S
C249 C250 1.379 . S
C249 H257 0.952 . S
C250 C249 1.379 . S
C250 C251 1.390 . S
C250 H270 0.949 . S
C251 C250 1.390 . S
C251 C252 1.357 . S
C252 C248 1.370 . S
C252 C251 1.357 . S
C252 H271 0.950 . S
Zn253 N247 2.020 . S
Zn253 O256 2.025 . S
Zn253 O261 2.024 . S
Zn253 O263 2.039 . S
Zn253 O265 2.034 . S
O254 C238 1.251 . S
O254 Zn245 2.039 . S
C255 O260 1.246 . S
C255 O261 1.249 . S
O256 C238 1.254 . S
O256 Zn253 2.025 . S
H257 C249 0.952 . S
H258 C240 0.952 . S
H259 C248 0.948 . S
O260 Zn245 2.034 . S
O260 C255 1.246 . S
O261 Zn253 2.024 . S
O261 C255 1.249 . S
H262 C244 0.948 . S
O263 Zn253 2.039 . S
O263 C267 1.251 . S
O264 Zn245 2.025 . S
O264 C267 1.254 . S
O265 C246 1.246 . S
O265 Zn253 2.034 . S
O266 Zn245 2.024 . S
O266 C246 1.249 . S
C267 O263 1.251 . S
C267 O264 1.254 . S
H268 C241 0.949 . S
H269 C243 0.950 . S
H270 C250 0.949 . S
H271 C252 0.950 . S
C272 O288 1.251 1_545 S
C272 O290 1.254 1_545 S
N273 C274 1.333 . S
N273 C278 1.307 . S
N273 Zn279 2.020 . S
C274 N273 1.333 . S
C274 C275 1.379 . S
C274 H292 0.952 . S
C275 C274 1.379 . S
C275 C276 1.390 . S
C275 H302 0.949 1_565 S
C276 C275 1.390 . S
C276 C277 1.357 . S
C277 C276 1.357 . S
C277 C278 1.370 . S
C277 H303 0.950 . S
C278 N273 1.307 . S
C278 C277 1.370 . S
C278 H296 0.948 . S
Zn279 N273 2.020 . S
Zn279 O288 2.039 . S
Zn279 O294 2.034 . S
Zn279 O298 2.025 . S
Zn279 O300 2.024 . S
C280 O299 1.246 . S
C280 O300 1.249 . S
N281 C282 1.307 . S
N281 C283 1.333 . S
N281 Zn287 2.020 . S
C282 N281 1.307 . S
C282 C286 1.370 . S
C282 H293 0.948 . S
C283 N281 1.333 . S
C283 C284 1.379 . S
C283 H291 0.952 . S
C284 C283 1.379 . S
C284 C285 1.390 . S
C284 H304 0.949 . S
C285 C284 1.390 . S
C285 C286 1.357 . S
C286 C282 1.370 . S
C286 C285 1.357 . S
C286 H305 0.950 . S
Zn287 N281 2.020 . S
Zn287 O290 2.025 . S
Zn287 O295 2.024 . S
Zn287 O297 2.039 . S
Zn287 O299 2.034 . S
O288 C272 1.251 1_565 S
O288 Zn279 2.039 . S
C289 O294 1.246 . S
C289 O295 1.249 . S
O290 C272 1.254 1_565 S
O290 Zn287 2.025 . S
H291 C283 0.952 . S
H292 C274 0.952 . S
H293 C282 0.948 . S
O294 Zn279 2.034 . S
O294 C289 1.246 . S
O295 Zn287 2.024 . S
O295 C289 1.249 . S
H296 C278 0.948 . S
O297 Zn287 2.039 . S
O297 C301 1.251 . S
O298 Zn279 2.025 . S
O298 C301 1.254 . S
O299 C280 1.246 . S
O299 Zn287 2.034 . S
O300 Zn279 2.024 . S
O300 C280 1.249 . S
C301 O297 1.251 . S
C301 O298 1.254 . S
H302 C275 0.949 1_545 S
H303 C277 0.950 . S
H304 C284 0.949 . S
H305 C286 0.950 . S
C306 O322 1.251 . S
C306 O324 1.254 . S
N307 C308 1.333 . S
N307 C312 1.307 . S
N307 Zn313 2.020 . S
C308 N307 1.333 . S
C308 C309 1.379 . S
C308 H326 0.952 . S
C309 C308 1.379 . S
C309 C310 1.390 . S
C309 H336 0.949 . S
C310 C309 1.390 . S
C310 C311 1.357 . S
C311 C310 1.357 . S
C311 C312 1.370 . S
C311 H337 0.950 . S
C312 N307 1.307 . S
C312 C311 1.370 . S
C312 H330 0.948 . S
Zn313 N307 2.020 . S
Zn313 O322 2.039 . S
Zn313 O328 2.034 . S
Zn313 O332 2.025 . S
Zn313 O334 2.024 . S
C314 O333 1.246 . S
C314 O334 1.249 . S
N315 C316 1.307 . S
N315 C317 1.333 . S
N315 Zn321 2.020 . S
C316 N315 1.307 . S
C316 C320 1.370 . S
C316 H327 0.948 . S
C317 N315 1.333 . S
C317 C318 1.379 . S
C317 H325 0.952 . S
C318 C317 1.379 . S
C318 C319 1.390 . S
C318 H338 0.949 . S
C319 C318 1.390 . S
C319 C320 1.357 . S
C320 C316 1.370 . S
C320 C319 1.357 . S
C320 H339 0.950 . S
Zn321 N315 2.020 . S
Zn321 O324 2.025 . S
Zn321 O329 2.024 . S
Zn321 O331 2.039 . S
Zn321 O333 2.034 . S
O322 C306 1.251 . S
O322 Zn313 2.039 . S
C323 O328 1.246 . S
C323 O329 1.249 . S
O324 C306 1.254 . S
O324 Zn321 2.025 . S
H325 C317 0.952 . S
H326 C308 0.952 . S
H327 C316 0.948 . S
O328 Zn313 2.034 . S
O328 C323 1.246 . S
O329 Zn321 2.024 . S
O329 C323 1.249 . S
H330 C312 0.948 . S
O331 Zn321 2.039 . S
O331 C335 1.251 . S
O332 Zn313 2.025 . S
O332 C335 1.254 . S
O333 C314 1.246 . S
O333 Zn321 2.034 . S
O334 Zn313 2.024 . S
O334 C314 1.249 . S
C335 O331 1.251 . S
C335 O332 1.254 . S
H336 C309 0.949 . S
H337 C311 0.950 . S
H338 C318 0.949 . S
H339 C320 0.950 . S
C340 O356 1.251 . S
C340 O358 1.254 . S
N341 C342 1.333 . S
N341 C346 1.307 . S
N341 Zn347 2.020 . S
C342 N341 1.333 . S
C342 C343 1.379 . S
C342 H360 0.952 . S
C343 C342 1.379 . S
C343 C344 1.390 . S
C343 H370 0.949 . S
C344 C343 1.390 . S
C344 C345 1.357 . S
C345 C344 1.357 . S
C345 C346 1.370 . S
C345 H371 0.950 . S
C346 N341 1.307 . S
C346 C345 1.370 . S
C346 H364 0.948 . S
Zn347 N341 2.020 . S
Zn347 O356 2.039 . S
Zn347 O362 2.034 . S
Zn347 O366 2.025 . S
Zn347 O368 2.024 . S
C348 O367 1.246 . S
C348 O368 1.249 . S
N349 C350 1.307 . S
N349 C351 1.333 . S
N349 Zn355 2.020 . S
C350 N349 1.307 . S
C350 C354 1.370 . S
C350 H361 0.948 . S
C351 N349 1.333 . S
C351 C352 1.379 . S
C351 H359 0.952 . S
C352 C351 1.379 . S
C352 C353 1.390 . S
C352 H372 0.949 . S
C353 C352 1.390 . S
C353 C354 1.357 . S
C354 C350 1.370 . S
C354 C353 1.357 . S
C354 H373 0.950 . S
Zn355 N349 2.020 . S
Zn355 O358 2.025 . S
Zn355 O363 2.024 . S
Zn355 O365 2.039 . S
Zn355 O367 2.034 . S
O356 C340 1.251 . S
O356 Zn347 2.039 . S
C357 O362 1.246 1_545 S
C357 O363 1.249 1_545 S
O358 C340 1.254 . S
O358 Zn355 2.025 . S
H359 C351 0.952 . S
H360 C342 0.952 . S
H361 C350 0.948 . S
O362 Zn347 2.034 . S
O362 C357 1.246 1_565 S
O363 Zn355 2.024 . S
O363 C357 1.249 1_565 S
H364 C346 0.948 . S
O365 Zn355 2.039 . S
O365 C369 1.251 . S
O366 Zn347 2.025 . S
O366 C369 1.254 . S
O367 C348 1.246 . S
O367 Zn355 2.034 . S
O368 Zn347 2.024 . S
O368 C348 1.249 . S
C369 O365 1.251 . S
C369 O366 1.254 . S
H370 C343 0.949 . S
H371 C345 0.950 . S
H372 C352 0.949 . S
H373 C354 0.950 . S
C374 O390 1.251 . S
C374 O392 1.254 . S
N375 C376 1.333 . S
N375 C380 1.307 . S
N375 Zn381 2.020 . S
C376 N375 1.333 . S
C376 C377 1.379 . S
C376 H394 0.952 . S
C377 C376 1.379 . S
C377 C378 1.390 . S
C377 H404 0.949 . S
C378 C377 1.390 . S
C378 C379 1.357 . S
C379 C378 1.357 . S
C379 C380 1.370 . S
C379 H405 0.950 . S
C380 N375 1.307 . S
C380 C379 1.370 . S
C380 H398 0.948 . S
Zn381 N375 2.020 . S
Zn381 O390 2.039 . S
Zn381 O396 2.034 . S
Zn381 O400 2.025 . S
Zn381 O402 2.024 . S
C382 O401 1.246 . S
C382 O402 1.249 . S
N383 C384 1.307 . S
N383 C385 1.333 . S
N383 Zn389 2.020 . S
C384 N383 1.307 . S
C384 C388 1.370 . S
C384 H395 0.948 . S
C385 N383 1.333 . S
C385 C386 1.379 . S
C385 H393 0.952 . S
C386 C385 1.379 . S
C386 C387 1.390 . S
C386 H406 0.949 . S
C387 C386 1.390 . S
C387 C388 1.357 . S
C388 C384 1.370 . S
C388 C387 1.357 . S
C388 H407 0.950 . S
Zn389 N383 2.020 . S
Zn389 O392 2.025 . S
Zn389 O397 2.024 . S
Zn389 O399 2.039 . S
Zn389 O401 2.034 . S
O390 C374 1.251 . S
O390 Zn381 2.039 . S
C391 O396 1.246 . S
C391 O397 1.249 . S
O392 C374 1.254 . S
O392 Zn389 2.025 . S
H393 C385 0.952 . S
H394 C376 0.952 . S
H395 C384 0.948 . S
O396 Zn381 2.034 . S
O396 C391 1.246 . S
O397 Zn389 2.024 . S
O397 C391 1.249 . S
H398 C380 0.948 . S
O399 Zn389 2.039 . S
O399 C403 1.251 . S
O400 Zn381 2.025 . S
O400 C403 1.254 . S
O401 C382 1.246 . S
O401 Zn389 2.034 . S
O402 Zn381 2.024 . S
O402 C382 1.249 . S
C403 O399 1.251 . S
C403 O400 1.254 . S
H404 C377 0.949 . S
H405 C379 0.950 . S
H406 C386 0.949 . S
H407 C388 0.950 . S
C408 O424 1.251 . S
C408 O426 1.254 . S
N409 C410 1.333 . S
N409 C414 1.307 . S
N409 Zn415 2.020 . S
C410 N409 1.333 . S
C410 C411 1.379 . S
C410 H428 0.952 . S
C411 C410 1.379 . S
C411 C412 1.390 . S
C411 H438 0.949 . S
C412 C411 1.390 . S
C412 C413 1.357 . S
C413 C412 1.357 . S
C413 C414 1.370 . S
C413 H439 0.950 . S
C414 N409 1.307 . S
C414 C413 1.370 . S
C414 H432 0.948 . S
Zn415 N409 2.020 . S
Zn415 O424 2.039 . S
Zn415 O430 2.034 . S
Zn415 O434 2.025 . S
Zn415 O436 2.024 . S
C416 O435 1.246 . S
C416 O436 1.249 . S
N417 C418 1.307 . S
N417 C419 1.333 . S
N417 Zn423 2.020 . S
C418 N417 1.307 . S
C418 C422 1.370 . S
C418 H429 0.948 . S
C419 N417 1.333 . S
C419 C420 1.379 . S
C419 H427 0.952 . S
C420 C419 1.379 . S
C420 C421 1.390 . S
C420 H440 0.949 . S
C421 C420 1.390 . S
C421 C422 1.357 . S
C422 C418 1.370 . S
C422 C421 1.357 . S
C422 H441 0.950 . S
Zn423 N417 2.020 . S
Zn423 O426 2.025 . S
Zn423 O431 2.024 . S
Zn423 O433 2.039 . S
Zn423 O435 2.034 . S
O424 C408 1.251 . S
O424 Zn415 2.039 . S
C425 O430 1.246 . S
C425 O431 1.249 . S
O426 C408 1.254 . S
O426 Zn423 2.025 . S
H427 C419 0.952 . S
H428 C410 0.952 . S
H429 C418 0.948 . S
O430 Zn415 2.034 . S
O430 C425 1.246 . S
O431 Zn423 2.024 . S
O431 C425 1.249 . S
H432 C414 0.948 . S
O433 Zn423 2.039 . S
O433 C437 1.251 . S
O434 Zn415 2.025 . S
O434 C437 1.254 . S
O435 C416 1.246 . S
O435 Zn423 2.034 . S
O436 Zn415 2.024 . S
O436 C416 1.249 . S
C437 O433 1.251 . S
C437 O434 1.254 . S
H438 C411 0.949 . S
H439 C413 0.950 . S
H440 C420 0.949 . S
H441 C422 0.950 . S
C442 O458 1.251 . S
C442 O460 1.254 . S
N443 C444 1.333 . S
N443 C448 1.307 . S
N443 Zn449 2.020 . S
C444 N443 1.333 . S
C444 C445 1.379 . S
C444 H462 0.952 . S
C445 C444 1.379 . S
C445 C446 1.390 . S
C445 H472 0.949 . S
C446 C445 1.390 . S
C446 C447 1.357 . S
C447 C446 1.357 . S
C447 C448 1.370 . S
C447 H473 0.950 . S
C448 N443 1.307 . S
C448 C447 1.370 . S
C448 H466 0.948 . S
Zn449 N443 2.020 . S
Zn449 O458 2.039 . S
Zn449 O464 2.034 . S
Zn449 O468 2.025 . S
Zn449 O470 2.024 . S
C450 O469 1.246 . S
C450 O470 1.249 . S
N451 C452 1.307 . S
N451 C453 1.333 . S
N451 Zn457 2.020 . S
C452 N451 1.307 . S
C452 C456 1.370 . S
C452 H463 0.948 . S
C453 N451 1.333 . S
C453 C454 1.379 . S
C453 H461 0.952 . S
C454 C453 1.379 . S
C454 C455 1.390 . S
C454 H474 0.949 . S
C455 C454 1.390 . S
C455 C456 1.357 . S
C456 C452 1.370 . S
C456 C455 1.357 . S
C456 H475 0.950 . S
Zn457 N451 2.020 . S
Zn457 O460 2.025 . S
Zn457 O465 2.024 . S
Zn457 O467 2.039 . S
Zn457 O469 2.034 . S
O458 C442 1.251 . S
O458 Zn449 2.039 . S
C459 O464 1.246 . S
C459 O465 1.249 . S
O460 C442 1.254 . S
O460 Zn457 2.025 . S
H461 C453 0.952 . S
H462 C444 0.952 . S
H463 C452 0.948 . S
O464 Zn449 2.034 . S
O464 C459 1.246 . S
O465 Zn457 2.024 . S
O465 C459 1.249 . S
H466 C448 0.948 . S
O467 Zn457 2.039 . S
O467 C471 1.251 . S
O468 Zn449 2.025 . S
O468 C471 1.254 . S
O469 C450 1.246 . S
O469 Zn457 2.034 . S
O470 Zn449 2.024 . S
O470 C450 1.249 . S
C471 O467 1.251 . S
C471 O468 1.254 . S
H472 C445 0.949 . S
H473 C447 0.950 . S
H474 C454 0.949 . S
H475 C456 0.950 . S
C476 O492 1.251 . S
C476 O494 1.254 . S
N477 C478 1.333 . S
N477 C482 1.307 . S
N477 Zn483 2.020 . S
C478 N477 1.333 . S
C478 C479 1.379 . S
C478 H496 0.952 . S
C479 C478 1.379 . S
C479 C480 1.390 . S
C479 H506 0.949 . S
C480 C479 1.390 . S
C480 C481 1.357 . S
C481 C480 1.357 . S
C481 C482 1.370 . S
C481 H507 0.950 . S
C482 N477 1.307 . S
C482 C481 1.370 . S
C482 H500 0.948 . S
Zn483 N477 2.020 . S
Zn483 O492 2.039 . S
Zn483 O498 2.034 . S
Zn483 O502 2.025 . S
Zn483 O504 2.024 . S
C484 O503 1.246 . S
C484 O504 1.249 . S
N485 C486 1.307 . S
N485 C487 1.333 . S
N485 Zn491 2.020 . S
C486 N485 1.307 . S
C486 C490 1.370 . S
C486 H497 0.948 . S
C487 N485 1.333 . S
C487 C488 1.379 . S
C487 H495 0.952 . S
C488 C487 1.379 . S
C488 C489 1.390 . S
C488 H508 0.949 . S
C489 C488 1.390 . S
C489 C490 1.357 . S
C490 C486 1.370 . S
C490 C489 1.357 . S
C490 H509 0.950 . S
Zn491 N485 2.020 . S
Zn491 O494 2.025 . S
Zn491 O499 2.024 . S
Zn491 O501 2.039 . S
Zn491 O503 2.034 . S
O492 C476 1.251 . S
O492 Zn483 2.039 . S
C493 O498 1.246 1_455 S
C493 O499 1.249 1_455 S
O494 C476 1.254 . S
O494 Zn491 2.025 . S
H495 C487 0.952 . S
H496 C478 0.952 . S
H497 C486 0.948 . S
O498 Zn483 2.034 . S
O498 C493 1.246 1_655 S
O499 Zn491 2.024 . S
O499 C493 1.249 1_655 S
H500 C482 0.948 . S
O501 Zn491 2.039 . S
O501 C505 1.251 . S
O502 Zn483 2.025 . S
O502 C505 1.254 . S
O503 C484 1.246 . S
O503 Zn491 2.034 . S
O504 Zn483 2.024 . S
O504 C484 1.249 . S
C505 O501 1.251 . S
C505 O502 1.254 . S
H506 C479 0.949 . S
H507 C481 0.950 . S
H508 C488 0.949 . S
H509 C490 0.950 . S
C510 O526 1.251 . S
C510 O528 1.254 . S
N511 C512 1.333 . S
N511 C516 1.307 . S
N511 Zn517 2.020 . S
C512 N511 1.333 . S
C512 C513 1.379 . S
C512 H530 0.952 . S
C513 C512 1.379 . S
C513 C514 1.390 . S
C513 H540 0.949 . S
C514 C513 1.390 . S
C514 C515 1.357 . S
C515 C514 1.357 . S
C515 C516 1.370 . S
C515 H541 0.950 . S
C516 N511 1.307 . S
C516 C515 1.370 . S
C516 H534 0.948 . S
Zn517 N511 2.020 . S
Zn517 O526 2.039 . S
Zn517 O532 2.034 . S
Zn517 O536 2.025 . S
Zn517 O538 2.024 . S
C518 O537 1.246 . S
C518 O538 1.249 . S
N519 C520 1.307 . S
N519 C521 1.333 . S
N519 Zn525 2.020 . S
C520 N519 1.307 . S
C520 C524 1.370 . S
C520 H531 0.948 . S
C521 N519 1.333 . S
C521 C522 1.379 . S
C521 H529 0.952 . S
C522 C521 1.379 . S
C522 C523 1.390 . S
C522 H542 0.949 . S
C523 C522 1.390 . S
C523 C524 1.357 . S
C524 C520 1.370 . S
C524 C523 1.357 . S
C524 H543 0.950 . S
Zn525 N519 2.020 . S
Zn525 O528 2.025 . S
Zn525 O533 2.024 . S
Zn525 O535 2.039 . S
Zn525 O537 2.034 . S
O526 C510 1.251 . S
O526 Zn517 2.039 . S
C527 O532 1.246 . S
C527 O533 1.249 . S
O528 C510 1.254 . S
O528 Zn525 2.025 . S
H529 C521 0.952 . S
H530 C512 0.952 . S
H531 C520 0.948 . S
O532 Zn517 2.034 . S
O532 C527 1.246 . S
O533 Zn525 2.024 . S
O533 C527 1.249 . S
H534 C516 0.948 . S
O535 Zn525 2.039 . S
O535 C539 1.251 . S
O536 Zn517 2.025 . S
O536 C539 1.254 . S
O537 C518 1.246 . S
O537 Zn525 2.034 . S
O538 Zn517 2.024 . S
O538 C518 1.249 . S
C539 O535 1.251 . S
C539 O536 1.254 . S
H540 C513 0.949 . S
H541 C515 0.950 . S
H542 C522 0.949 . S
H543 C524 0.950 . S
C544 O560 1.251 1_455 S
C544 O562 1.254 1_455 S
N545 C546 1.333 . S
N545 C550 1.307 . S
N545 Zn551 2.020 . S
C546 N545 1.333 . S
C546 C547 1.379 . S
C546 H564 0.952 . S
C547 C546 1.379 . S
C547 C548 1.390 . S
C547 H574 0.949 1_655 S
C548 C547 1.390 . S
C548 C549 1.357 . S
C549 C548 1.357 . S
C549 C550 1.370 . S
C549 H575 0.950 . S
C550 N545 1.307 . S
C550 C549 1.370 . S
C550 H568 0.948 . S
Zn551 N545 2.020 . S
Zn551 O560 2.039 . S
Zn551 O566 2.034 . S
Zn551 O570 2.025 . S
Zn551 O572 2.024 . S
C552 O571 1.246 . S
C552 O572 1.249 . S
N553 C554 1.307 . S
N553 C555 1.333 . S
N553 Zn559 2.020 . S
C554 N553 1.307 . S
C554 C558 1.370 . S
C554 H565 0.948 . S
C555 N553 1.333 . S
C555 C556 1.379 . S
C555 H563 0.952 . S
C556 C555 1.379 . S
C556 C557 1.390 . S
C556 H576 0.949 . S
C557 C556 1.390 . S
C557 C558 1.357 . S
C558 C554 1.370 . S
C558 C557 1.357 . S
C558 H577 0.950 . S
Zn559 N553 2.020 . S
Zn559 O562 2.025 . S
Zn559 O567 2.024 . S
Zn559 O569 2.039 . S
Zn559 O571 2.034 . S
O560 C544 1.251 1_655 S
O560 Zn551 2.039 . S
C561 O566 1.246 . S
C561 O567 1.249 . S
O562 C544 1.254 1_655 S
O562 Zn559 2.025 . S
H563 C555 0.952 . S
H564 C546 0.952 . S
H565 C554 0.948 . S
O566 Zn551 2.034 . S
O566 C561 1.246 . S
O567 Zn559 2.024 . S
O567 C561 1.249 . S
H568 C550 0.948 . S
O569 Zn559 2.039 . S
O569 C573 1.251 . S
O570 Zn551 2.025 . S
O570 C573 1.254 . S
O571 C552 1.246 . S
O571 Zn559 2.034 . S
O572 Zn551 2.024 . S
O572 C552 1.249 . S
C573 O569 1.251 . S
C573 O570 1.254 . S
H574 C547 0.949 1_455 S
H575 C549 0.950 . S
H576 C556 0.949 . S
H577 C558 0.950 . S
C578 O594 1.251 . S
C578 O596 1.254 . S
N579 C580 1.333 . S
N579 C584 1.307 . S
N579 Zn585 2.020 . S
C580 N579 1.333 . S
C580 C581 1.379 . S
C580 H598 0.952 . S
C581 C580 1.379 . S
C581 C582 1.390 . S
C581 H608 0.949 . S
C582 C581 1.390 . S
C582 C583 1.357 . S
C583 C582 1.357 . S
C583 C584 1.370 . S
C583 H609 0.950 . S
C584 N579 1.307 . S
C584 C583 1.370 . S
C584 H602 0.948 . S
Zn585 N579 2.020 . S
Zn585 O594 2.039 . S
Zn585 O600 2.034 . S
Zn585 O604 2.025 . S
Zn585 O606 2.024 . S
C586 O605 1.246 . S
C586 O606 1.249 . S
N587 C588 1.307 . S
N587 C589 1.333 . S
N587 Zn593 2.020 . S
C588 N587 1.307 . S
C588 C592 1.370 . S
C588 H599 0.948 . S
C589 N587 1.333 . S
C589 C590 1.379 . S
C589 H597 0.952 . S
C590 C589 1.379 . S
C590 C591 1.390 . S
C590 H610 0.949 . S
C591 C590 1.390 . S
C591 C592 1.357 . S
C592 C588 1.370 . S
C592 C591 1.357 . S
C592 H611 0.950 . S
Zn593 N587 2.020 . S
Zn593 O596 2.025 . S
Zn593 O601 2.024 . S
Zn593 O603 2.039 . S
Zn593 O605 2.034 . S
O594 C578 1.251 . S
O594 Zn585 2.039 . S
C595 O600 1.246 . S
C595 O601 1.249 . S
O596 C578 1.254 . S
O596 Zn593 2.025 . S
H597 C589 0.952 . S
H598 C580 0.952 . S
H599 C588 0.948 . S
O600 Zn585 2.034 . S
O600 C595 1.246 . S
O601 Zn593 2.024 . S
O601 C595 1.249 . S
H602 C584 0.948 . S
O603 Zn593 2.039 . S
O603 C607 1.251 . S
O604 Zn585 2.025 . S
O604 C607 1.254 . S
O605 C586 1.246 . S
O605 Zn593 2.034 . S
O606 Zn585 2.024 . S
O606 C586 1.249 . S
C607 O603 1.251 . S
C607 O604 1.254 . S
H608 C581 0.949 . S
H609 C583 0.950 . S
H610 C590 0.949 . S
H611 C592 0.950 . S
H612 C618 0.930 . S
H613 C622 0.930 . S
H614 C627 0.929 . S
H615 C625 0.929 . S
H616 C620 0.929 . S
H617 C626 0.929 . S
C618 H612 0.930 . S
C618 C619 1.367 . S
C618 C626 1.378 . S
C619 C618 1.367 . S
C619 C627 1.433 . S
C620 H616 0.929 . S
C620 C622 1.378 . S
C620 C624 1.350 . S
C621 C624 1.463 . S
C621 C626 1.350 . S
C621 N629 1.427 . S
C622 H613 0.930 . S
C622 C620 1.378 . S
C622 C623 1.367 . S
C623 C622 1.367 . S
C623 C625 1.433 . S
C624 C620 1.350 . S
C624 C621 1.463 . S
C624 N628 1.427 . S
C625 H615 0.929 . S
C625 C623 1.433 . S
C625 N628 1.384 . S
C626 H617 0.929 . S
C626 C618 1.378 . S
C626 C621 1.350 . S
C627 H614 0.929 . S
C627 C619 1.433 . S
C627 N629 1.384 . S
N628 C624 1.427 . S
N628 C625 1.384 . S
N629 C621 1.427 . S
N629 C627 1.384 . S
H630 C636 0.930 . S
H631 C640 0.930 . S
H632 C645 0.929 . S
H633 C643 0.929 . S
H634 C638 0.929 . S
H635 C644 0.929 . S
C636 H630 0.930 . S
C636 C637 1.367 . S
C636 C644 1.378 . S
C637 C636 1.367 . S
C637 C645 1.433 . S
C638 H634 0.929 . S
C638 C640 1.378 . S
C638 C642 1.350 . S
C639 C642 1.463 . S
C639 C644 1.350 . S
C639 N647 1.427 . S
C640 H631 0.930 . S
C640 C638 1.378 . S
C640 C641 1.367 . S
C641 C640 1.367 . S
C641 C643 1.433 . S
C642 C638 1.350 . S
C642 C639 1.463 . S
C642 N646 1.427 . S
C643 H633 0.929 . S
C643 C641 1.433 . S
C643 N646 1.384 . S
C644 H635 0.929 . S
C644 C636 1.378 . S
C644 C639 1.350 . S
C645 H632 0.929 . S
C645 C637 1.433 . S
C645 N647 1.384 . S
N646 C642 1.427 . S
N646 C643 1.384 . S
N647 C639 1.427 . S
N647 C645 1.384 . S
H648 C654 0.930 . S
H649 C658 0.930 . S
H650 C663 0.929 . S
H651 C661 0.929 . S
H652 C656 0.929 . S
H653 C662 0.929 . S
C654 H648 0.930 . S
C654 C655 1.367 . S
C654 C662 1.378 . S
C655 C654 1.367 . S
C655 C663 1.433 . S
C656 H652 0.929 . S
C656 C658 1.378 . S
C656 C660 1.350 . S
C657 C660 1.463 . S
C657 C662 1.350 . S
C657 N665 1.427 . S
C658 H649 0.930 . S
C658 C656 1.378 . S
C658 C659 1.367 . S
C659 C658 1.367 . S
C659 C661 1.433 . S
C660 C656 1.350 . S
C660 C657 1.463 . S
C660 N664 1.427 . S
C661 H651 0.929 . S
C661 C659 1.433 . S
C661 N664 1.384 . S
C662 H653 0.929 . S
C662 C654 1.378 . S
C662 C657 1.350 . S
C663 H650 0.929 . S
C663 C655 1.433 . S
C663 N665 1.384 . S
N664 C660 1.427 . S
N664 C661 1.384 . S
N665 C657 1.427 . S
N665 C663 1.384 . S
H666 C672 0.930 . S
H667 C676 0.930 . S
H668 C681 0.929 . S
H669 C679 0.929 . S
H670 C674 0.929 . S
H671 C680 0.929 . S
C672 H666 0.930 . S
C672 C673 1.367 . S
C672 C680 1.378 . S
C673 C672 1.367 . S
C673 C681 1.433 . S
C674 H670 0.929 . S
C674 C676 1.378 . S
C674 C678 1.350 . S
C675 C678 1.463 . S
C675 C680 1.350 . S
C675 N683 1.427 . S
C676 H667 0.930 . S
C676 C674 1.378 . S
C676 C677 1.367 . S
C677 C676 1.367 . S
C677 C679 1.433 . S
C678 C674 1.350 . S
C678 C675 1.463 . S
C678 N682 1.427 . S
C679 H669 0.929 . S
C679 C677 1.433 . S
C679 N682 1.384 . S
C680 H671 0.929 . S
C680 C672 1.378 . S
C680 C675 1.350 . S
C681 H668 0.929 . S
C681 C673 1.433 . S
C681 N683 1.384 . S
N682 C678 1.427 . S
N682 C679 1.384 . S
N683 C675 1.427 . S
N683 C681 1.384 . S
H684 C690 0.930 . S
H685 C694 0.930 . S
H686 C699 0.929 . S
H687 C697 0.929 . S
H688 C692 0.929 . S
H689 C698 0.929 . S
C690 H684 0.930 . S
C690 C691 1.367 . S
C690 C698 1.378 . S
C691 C690 1.367 . S
C691 C699 1.433 . S
C692 H688 0.929 . S
C692 C694 1.378 . S
C692 C696 1.350 . S
C693 C696 1.463 . S
C693 C698 1.350 . S
C693 N701 1.427 . S
C694 H685 0.930 . S
C694 C692 1.378 . S
C694 C695 1.367 . S
C695 C694 1.367 . S
C695 C697 1.433 . S
C696 C692 1.350 . S
C696 C693 1.463 . S
C696 N700 1.427 . S
C697 H687 0.929 . S
C697 C695 1.433 . S
C697 N700 1.384 . S
C698 H689 0.929 . S
C698 C690 1.378 . S
C698 C693 1.350 . S
C699 H686 0.929 . S
C699 C691 1.433 . S
C699 N701 1.384 . S
N700 C696 1.427 . S
N700 C697 1.384 . S
N701 C693 1.427 . S
N701 C699 1.384 . S
H702 C708 0.930 . S
H703 C712 0.930 . S
H704 C717 0.929 . S
H705 C715 0.929 . S
H706 C710 0.929 . S
H707 C716 0.929 . S
C708 H702 0.930 . S
C708 C709 1.367 . S
C708 C716 1.378 . S
C709 C708 1.367 . S
C709 C717 1.433 . S
C710 H706 0.929 . S
C710 C712 1.378 . S
C710 C714 1.350 . S
C711 C714 1.463 . S
C711 C716 1.350 . S
C711 N719 1.427 . S
C712 H703 0.930 . S
C712 C710 1.378 . S
C712 C713 1.367 . S
C713 C712 1.367 . S
C713 C715 1.433 . S
C714 C710 1.350 . S
C714 C711 1.463 . S
C714 N718 1.427 . S
C715 H705 0.929 . S
C715 C713 1.433 . S
C715 N718 1.384 . S
C716 H707 0.929 . S
C716 C708 1.378 . S
C716 C711 1.350 . S
C717 H704 0.929 . S
C717 C709 1.433 . S
C717 N719 1.384 . S
N718 C714 1.427 . S
N718 C715 1.384 . S
N719 C711 1.427 . S
N719 C717 1.384 . S
H720 C726 0.930 . S
H721 C730 0.930 . S
H722 C735 0.929 . S
H723 C733 0.929 . S
H724 C728 0.929 . S
H725 C734 0.929 . S
C726 H720 0.930 . S
C726 C727 1.367 . S
C726 C734 1.378 . S
C727 C726 1.367 . S
C727 C735 1.433 . S
C728 H724 0.929 . S
C728 C730 1.378 . S
C728 C732 1.350 . S
C729 C732 1.463 . S
C729 C734 1.350 . S
C729 N737 1.427 . S
C730 H721 0.930 . S
C730 C728 1.378 . S
C730 C731 1.367 . S
C731 C730 1.367 . S
C731 C733 1.433 . S
C732 C728 1.350 . S
C732 C729 1.463 . S
C732 N736 1.427 . S
C733 H723 0.929 . S
C733 C731 1.433 . S
C733 N736 1.384 . S
C734 H725 0.929 . S
C734 C726 1.378 . S
C734 C729 1.350 . S
C735 H722 0.929 . S
C735 C727 1.433 . S
C735 N737 1.384 . S
N736 C732 1.427 . S
N736 C733 1.384 . S
N737 C729 1.427 . S
N737 C735 1.384 . S
H738 C744 0.930 . S
H739 C748 0.924 1_565 S
H740 C753 0.929 . S
H741 C751 0.929 . S
H742 C746 0.929 . S
H743 C752 0.929 . S
C744 H738 0.930 . S
C744 C745 1.367 1_655 S
C744 C752 1.378 . S
C745 C744 1.367 1_455 S
C745 C753 1.433 . S
C746 H742 0.929 . S
C746 C748 1.383 . S
C746 C750 1.350 . S
C747 C750 1.463 . S
C747 C752 1.350 . S
C747 N755 1.427 1_655 S
C748 H739 0.924 1_545 S
C748 C746 1.383 . S
C748 C749 1.369 1_545 S
C749 C748 1.369 1_565 S
C749 C751 1.433 1_565 S
C750 C746 1.350 . S
C750 C747 1.463 . S
C750 N754 1.427 . S
C751 H741 0.929 . S
C751 C749 1.433 1_545 S
C751 N754 1.384 . S
C752 H743 0.929 . S
C752 C744 1.378 . S
C752 C747 1.350 . S
C753 H740 0.929 . S
C753 C745 1.433 . S
C753 N755 1.384 . S
N754 C750 1.427 . S
N754 C751 1.384 . S
N755 C747 1.427 1_455 S
N755 C753 1.384 . S
H756 C762 0.930 . S
H757 C766 0.930 . S
H758 C771 0.929 . S
H759 C769 0.929 . S
H760 C764 0.929 . S
H761 C770 0.929 . S
C762 H756 0.930 . S
C762 C763 1.367 . S
C762 C770 1.378 . S
C763 C762 1.367 . S
C763 C771 1.433 . S
C764 H760 0.929 . S
C764 C766 1.378 . S
C764 C768 1.350 . S
C765 C768 1.463 . S
C765 C770 1.350 1_655 S
C765 N773 1.427 1_655 S
C766 H757 0.930 . S
C766 C764 1.378 . S
C766 C767 1.367 . S
C767 C766 1.367 . S
C767 C769 1.433 . S
C768 C764 1.350 . S
C768 C765 1.463 . S
C768 N772 1.427 . S
C769 H759 0.929 . S
C769 C767 1.433 . S
C769 N772 1.384 . S
C770 H761 0.929 . S
C770 C762 1.378 . S
C770 C765 1.350 1_455 S
C771 H758 0.929 . S
C771 C763 1.433 . S
C771 N773 1.384 . S
N772 C768 1.427 . S
N772 C769 1.384 . S
N773 C765 1.427 1_455 S
N773 C771 1.384 . S
H774 C780 0.930 1_545 S
H775 C784 0.930 . S
H776 C789 0.929 . S
H777 C787 0.929 . S
H778 C782 0.929 . S
H779 C788 0.929 . S
C780 H774 0.930 1_565 S
C780 C781 1.367 . S
C780 C788 1.378 . S
C781 C780 1.367 . S
C781 C789 1.433 . S
C782 H778 0.929 . S
C782 C784 1.378 . S
C782 C786 1.350 . S
C783 C786 1.463 . S
C783 C788 1.350 . S
C783 N791 1.427 . S
C784 H775 0.930 . S
C784 C782 1.378 . S
C784 C785 1.367 . S
C785 C784 1.367 . S
C785 C787 1.433 . S
C786 C782 1.350 . S
C786 C783 1.463 . S
C786 N790 1.427 . S
C787 H777 0.929 . S
C787 C785 1.433 . S
C787 N790 1.384 . S
C788 H779 0.929 . S
C788 C780 1.378 . S
C788 C783 1.350 . S
C789 H776 0.929 . S
C789 C781 1.433 . S
C789 N791 1.384 . S
N790 C786 1.427 . S
N790 C787 1.384 . S
N791 C783 1.427 . S
N791 C789 1.384 . S
H792 C798 0.930 . S
H793 C802 0.930 . S
H794 C807 0.929 . S
H795 C805 0.929 . S
H796 C800 0.929 . S
H797 C806 0.929 . S
C798 H792 0.930 . S
C798 C799 1.367 . S
C798 C806 1.378 . S
C799 C798 1.367 . S
C799 C807 1.433 . S
C800 H796 0.929 . S
C800 C802 1.378 . S
C800 C804 1.350 . S
C801 C804 1.463 . S
C801 C806 1.350 . S
C801 N809 1.427 . S
C802 H793 0.930 . S
C802 C800 1.378 . S
C802 C803 1.367 . S
C803 C802 1.367 . S
C803 C805 1.433 . S
C804 C800 1.350 . S
C804 C801 1.463 . S
C804 N808 1.427 . S
C805 H795 0.929 . S
C805 C803 1.433 . S
C805 N808 1.384 . S
C806 H797 0.929 . S
C806 C798 1.378 . S
C806 C801 1.350 . S
C807 H794 0.929 . S
C807 C799 1.433 . S
C807 N809 1.384 . S
N808 C804 1.427 . S
N808 C805 1.384 . S
N809 C801 1.427 . S
N809 C807 1.384 . S
H810 C816 0.930 . S
H811 C820 0.930 . S
H812 C825 0.929 . S
H813 C823 0.929 . S
H814 C818 0.929 . S
H815 C824 0.929 . S
C816 H810 0.930 . S
C816 C817 1.367 . S
C816 C824 1.378 . S
C817 C816 1.367 . S
C817 C825 1.433 . S
C818 H814 0.929 . S
C818 C820 1.378 . S
C818 C822 1.350 . S
C819 C822 1.463 . S
C819 C824 1.350 . S
C819 N827 1.427 . S
C820 H811 0.930 . S
C820 C818 1.378 . S
C820 C821 1.367 . S
C821 C820 1.367 . S
C821 C823 1.433 . S
C822 C818 1.350 . S
C822 C819 1.463 . S
C822 N826 1.427 . S
C823 H813 0.929 . S
C823 C821 1.433 . S
C823 N826 1.384 . S
C824 H815 0.929 . S
C824 C816 1.378 . S
C824 C819 1.350 . S
C825 H812 0.929 . S
C825 C817 1.433 . S
C825 N827 1.384 . S
N826 C822 1.427 . S
N826 C823 1.384 . S
N827 C819 1.427 . S
N827 C825 1.384 . S
H828 C834 0.930 . S
H829 C838 0.930 . S
H830 C843 0.929 . S
H831 C841 0.929 . S
H832 C836 0.929 . S
H833 C842 0.929 . S
C834 H828 0.930 . S
C834 C835 1.367 . S
C834 C842 1.378 . S
C835 C834 1.367 . S
C835 C843 1.433 . S
C836 H832 0.929 . S
C836 C838 1.378 . S
C836 C840 1.350 . S
C837 C840 1.463 . S
C837 C842 1.350 . S
C837 N845 1.427 . S
C838 H829 0.930 . S
C838 C836 1.378 . S
C838 C839 1.367 . S
C839 C838 1.367 . S
C839 C841 1.433 . S
C840 C836 1.350 . S
C840 C837 1.463 . S
C840 N844 1.427 . S
C841 H831 0.929 . S
C841 C839 1.433 . S
C841 N844 1.384 . S
C842 H833 0.929 . S
C842 C834 1.378 . S
C842 C837 1.350 . S
C843 H830 0.929 . S
C843 C835 1.433 . S
C843 N845 1.384 . S
N844 C840 1.427 . S
N844 C841 1.384 . S
N845 C837 1.427 . S
N845 C843 1.384 . S
H846 C852 0.930 . S
H847 C856 0.930 . S
H848 C861 0.929 . S
H849 C859 0.929 . S
H850 C854 0.929 . S
H851 C860 0.929 . S
C852 H846 0.930 . S
C852 C853 1.367 . S
C852 C860 1.378 . S
C853 C852 1.367 . S
C853 C861 1.433 . S
C854 H850 0.929 . S
C854 C856 1.378 . S
C854 C858 1.350 . S
C855 C858 1.463 . S
C855 C860 1.350 . S
C855 N863 1.427 . S
C856 H847 0.930 . S
C856 C854 1.378 . S
C856 C857 1.367 . S
C857 C856 1.367 . S
C857 C859 1.433 . S
C858 C854 1.350 . S
C858 C855 1.463 . S
C858 N862 1.427 . S
C859 H849 0.929 . S
C859 C857 1.433 . S
C859 N862 1.384 . S
C860 H851 0.929 . S
C860 C852 1.378 . S
C860 C855 1.350 . S
C861 H848 0.929 . S
C861 C853 1.433 . S
C861 N863 1.384 . S
N862 C858 1.427 . S
N862 C859 1.384 . S
N863 C855 1.427 . S
N863 C861 1.384 . S
H864 C870 0.930 . S
H865 C874 0.930 . S
H866 C879 0.929 . S
H867 C877 0.929 . S
H868 C872 0.929 . S
H869 C878 0.929 . S
C870 H864 0.930 . S
C870 C871 1.367 . S
C870 C878 1.378 . S
C871 C870 1.367 . S
C871 C879 1.433 . S
C872 H868 0.929 . S
C872 C874 1.378 . S
C872 C876 1.350 . S
C873 C876 1.463 . S
C873 C878 1.350 . S
C873 N881 1.427 . S
C874 H865 0.930 . S
C874 C872 1.378 . S
C874 C875 1.367 . S
C875 C874 1.367 . S
C875 C877 1.433 . S
C876 C872 1.350 . S
C876 C873 1.463 . S
C876 N880 1.427 . S
C877 H867 0.929 . S
C877 C875 1.433 . S
C877 N880 1.384 . S
C878 H869 0.929 . S
C878 C870 1.378 . S
C878 C873 1.350 . S
C879 H866 0.929 . S
C879 C871 1.433 . S
C879 N881 1.384 . S
N880 C876 1.427 . S
N880 C877 1.384 . S
N881 C873 1.427 . S
N881 C879 1.384 . S
H882 C888 0.930 . S
H883 C892 0.930 . S
H884 C897 0.929 . S
H885 C895 0.929 . S
H886 C890 0.929 . S
H887 C896 0.929 . S
C888 H882 0.930 . S
C888 C889 1.367 . S
C888 C896 1.378 . S
C889 C888 1.367 . S
C889 C897 1.433 . S
C890 H886 0.929 . S
C890 C892 1.378 . S
C890 C894 1.350 . S
C891 C894 1.463 . S
C891 C896 1.350 . S
C891 N899 1.427 . S
C892 H883 0.930 . S
C892 C890 1.378 . S
C892 C893 1.367 . S
C893 C892 1.367 . S
C893 C895 1.433 . S
C894 C890 1.350 . S
C894 C891 1.463 . S
C894 N898 1.427 . S
C895 H885 0.929 . S
C895 C893 1.433 . S
C895 N898 1.384 . S
C896 H887 0.929 . S
C896 C888 1.378 . S
C896 C891 1.350 . S
C897 H884 0.929 . S
C897 C889 1.433 . S
C897 N899 1.384 . S
N898 C894 1.427 . S
N898 C895 1.384 . S
N899 C891 1.427 . S
N899 C897 1.384 . S
H900 C906 0.930 . S
H901 C910 0.930 . S
H902 C915 0.929 . S
H903 C913 0.929 . S
H904 C908 0.929 . S
H905 C914 0.929 . S
C906 H900 0.930 . S
C906 C907 1.367 . S
C906 C914 1.378 . S
C907 C906 1.367 . S
C907 C915 1.433 . S
C908 H904 0.929 . S
C908 C910 1.378 . S
C908 C912 1.350 1_545 S
C909 C912 1.463 . S
C909 C914 1.350 . S
C909 N917 1.427 . S
C910 H901 0.930 . S
C910 C908 1.378 . S
C910 C911 1.367 . S
C911 C910 1.367 . S
C911 C913 1.433 . S
C912 C908 1.350 1_565 S
C912 C909 1.463 . S
C912 N916 1.427 1_565 S
C913 H903 0.929 . S
C913 C911 1.433 . S
C913 N916 1.384 . S
C914 H905 0.929 . S
C914 C906 1.378 . S
C914 C909 1.350 . S
C915 H902 0.929 . S
C915 C907 1.433 . S
C915 N917 1.384 . S
N916 C912 1.427 1_545 S
N916 C913 1.384 . S
N917 C909 1.427 . S
N917 C915 1.384 . S
H918 C924 0.930 . S
H919 C928 0.929 1_655 S
H920 C933 0.929 . S
H921 C931 0.929 1_655 S
H922 C926 0.929 . S
H923 C932 0.929 . S
C924 H918 0.930 . S
C924 C925 1.367 . S
C924 C932 1.378 1_545 S
C925 C924 1.367 . S
C925 C933 1.433 . S
C926 H922 0.929 . S
C926 C928 1.378 . S
C926 C930 1.350 . S
C927 C930 1.463 . S
C927 C932 1.350 . S
C927 N935 1.427 . S
C928 H919 0.929 1_455 S
C928 C926 1.378 . S
C928 C929 1.367 1_455 S
C929 C928 1.367 1_655 S
C929 C931 1.433 1_655 S
C930 C926 1.350 . S
C930 C927 1.463 . S
C930 N934 1.427 . S
C931 H921 0.929 1_455 S
C931 C929 1.433 1_455 S
C931 N934 1.384 . S
C932 H923 0.929 . S
C932 C924 1.378 1_565 S
C932 C927 1.350 . S
C933 H920 0.929 . S
C933 C925 1.433 . S
C933 N935 1.384 1_545 S
N934 C930 1.427 . S
N934 C931 1.384 . S
N935 C927 1.427 . S
N935 C933 1.384 1_565 S
H936 C942 0.931 1_565 S
H937 C946 0.930 . S
H938 C951 0.929 . S
H939 C949 0.929 . S
H940 C944 0.929 . S
H941 C950 0.929 . S
C942 H936 0.931 1_545 S
C942 C943 1.366 . S
C942 C950 1.378 1_545 S
C943 C942 1.366 . S
C943 C951 1.433 . S
C944 H940 0.929 . S
C944 C946 1.378 . S
C944 C948 1.350 . S
C945 C948 1.463 1_554 S
C945 C950 1.350 1_545 S
C945 N953 1.427 . S
C946 H937 0.930 . S
C946 C944 1.378 . S
C946 C947 1.367 . S
C947 C946 1.367 . S
C947 C949 1.433 1_545 S
C948 C944 1.350 . S
C948 C945 1.463 1_556 S
C948 N952 1.427 1_545 S
C949 H939 0.929 . S
C949 C947 1.433 1_565 S
C949 N952 1.384 . S
C950 H941 0.929 . S
C950 C942 1.378 1_565 S
C950 C945 1.350 1_565 S
C951 H938 0.929 . S
C951 C943 1.433 . S
C951 N953 1.384 . S
N952 C948 1.427 1_565 S
N952 C949 1.384 . S
N953 C945 1.427 . S
N953 C951 1.384 . S
H954 C960 0.930 . S
H955 C964 0.930 . S
H956 C969 0.929 . S
H957 C967 0.929 . S
H958 C962 0.929 . S
H959 C968 0.929 . S
C960 H954 0.930 . S
C960 C961 1.367 . S
C960 C968 1.378 . S
C961 C960 1.367 . S
C961 C969 1.433 . S
C962 H958 0.929 . S
C962 C964 1.378 . S
C962 C966 1.350 . S
C963 C966 1.463 1_556 S
C963 C968 1.350 . S
C963 N971 1.427 . S
C964 H955 0.930 . S
C964 C962 1.378 . S
C964 C965 1.367 . S
C965 C964 1.367 . S
C965 C967 1.433 . S
C966 C962 1.350 . S
C966 C963 1.463 1_554 S
C966 N970 1.427 . S
C967 H957 0.929 . S
C967 C965 1.433 . S
C967 N970 1.384 . S
C968 H959 0.929 . S
C968 C960 1.378 . S
C968 C963 1.350 . S
C969 H956 0.929 . S
C969 C961 1.433 . S
C969 N971 1.384 . S
N970 C966 1.427 . S
N970 C967 1.384 . S
N971 C963 1.427 . S
N971 C969 1.384 . S
H972 C978 0.930 . S
H973 C982 0.930 . S
H974 C987 0.929 . S
H975 C985 0.929 . S
H976 C980 0.929 . S
H977 C986 0.929 . S
C978 H972 0.930 . S
C978 C979 1.367 . S
C978 C986 1.378 . S
C979 C978 1.367 . S
C979 C987 1.433 . S
C980 H976 0.929 . S
C980 C982 1.378 . S
C980 C984 1.350 . S
C981 C984 1.463 1_556 S
C981 C986 1.350 . S
C981 N989 1.427 . S
C982 H973 0.930 . S
C982 C980 1.378 . S
C982 C983 1.367 . S
C983 C982 1.367 . S
C983 C985 1.433 . S
C984 C980 1.350 . S
C984 C981 1.463 1_554 S
C984 N988 1.427 . S
C985 H975 0.929 . S
C985 C983 1.433 . S
C985 N988 1.384 . S
C986 H977 0.929 . S
C986 C978 1.378 . S
C986 C981 1.350 . S
C987 H974 0.929 . S
C987 C979 1.433 . S
C987 N989 1.384 . S
N988 C984 1.427 . S
N988 C985 1.384 . S
N989 C981 1.427 . S
N989 C987 1.384 . S
H990 C996 0.930 . S
H991 C1000 0.930 . S
H992 C1005 0.929 . S
H993 C1003 0.929 . S
H994 C998 0.929 . S
H995 C1004 0.929 . S
C996 H990 0.930 . S
C996 C997 1.367 . S
C996 C1004 1.378 . S
C997 C996 1.367 . S
C997 C1005 1.433 . S
C998 H994 0.929 . S
C998 C1000 1.378 . S
C998 C1002 1.350 . S
C999 C1002 1.463 . S
C999 C1004 1.350 . S
C999 N1007 1.427 . S
C1000 H991 0.930 . S
C1000 C998 1.378 . S
C1000 C1001 1.367 . S
C1001 C1000 1.367 . S
C1001 C1003 1.433 . S
C1002 C998 1.350 . S
C1002 C999 1.463 . S
C1002 N1006 1.427 . S
C1003 H993 0.929 . S
C1003 C1001 1.433 . S
C1003 N1006 1.384 . S
C1004 H995 0.929 . S
C1004 C996 1.378 . S
C1004 C999 1.350 . S
C1005 H992 0.929 . S
C1005 C997 1.433 . S
C1005 N1007 1.384 . S
N1006 C1002 1.427 . S
N1006 C1003 1.384 . S
N1007 C999 1.427 . S
N1007 C1005 1.384 . S
H1008 C1014 0.930 . S
H1009 C1018 0.930 . S
H1010 C1023 0.929 . S
H1011 C1021 0.929 . S
H1012 C1016 0.929 . S
H1013 C1022 0.929 . S
C1014 H1008 0.930 . S
C1014 C1015 1.367 . S
C1014 C1022 1.378 . S
C1015 C1014 1.367 . S
C1015 C1023 1.433 . S
C1016 H1012 0.929 . S
C1016 C1018 1.378 . S
C1016 C1020 1.350 . S
C1017 C1020 1.463 . S
C1017 C1022 1.350 . S
C1017 N1025 1.427 . S
C1018 H1009 0.930 . S
C1018 C1016 1.378 . S
C1018 C1019 1.367 . S
C1019 C1018 1.367 . S
C1019 C1021 1.433 . S
C1020 C1016 1.350 . S
C1020 C1017 1.463 . S
C1020 N1024 1.427 . S
C1021 H1011 0.929 . S
C1021 C1019 1.433 . S
C1021 N1024 1.384 . S
C1022 H1013 0.929 . S
C1022 C1014 1.378 . S
C1022 C1017 1.350 . S
C1023 H1010 0.929 . S
C1023 C1015 1.433 . S
C1023 N1025 1.384 . S
N1024 C1020 1.427 . S
N1024 C1021 1.384 . S
N1025 C1017 1.427 . S
N1025 C1023 1.384 . S
H1026 C1032 0.930 . S
H1027 C1036 0.930 . S
H1028 C1041 0.929 . S
H1029 C1039 0.929 . S
H1030 C1034 0.929 . S
H1031 C1040 0.929 . S
C1032 H1026 0.930 . S
C1032 C1033 1.367 . S
C1032 C1040 1.378 . S
C1033 C1032 1.367 . S
C1033 C1041 1.433 . S
C1034 H1030 0.929 . S
C1034 C1036 1.378 . S
C1034 C1038 1.350 . S
C1035 C1038 1.463 . S
C1035 C1040 1.350 . S
C1035 N1043 1.427 . S
C1036 H1027 0.930 . S
C1036 C1034 1.378 . S
C1036 C1037 1.367 . S
C1037 C1036 1.367 . S
C1037 C1039 1.433 . S
C1038 C1034 1.350 . S
C1038 C1035 1.463 . S
C1038 N1042 1.427 . S
C1039 H1029 0.929 . S
C1039 C1037 1.433 . S
C1039 N1042 1.384 . S
C1040 H1031 0.929 . S
C1040 C1032 1.378 . S
C1040 C1035 1.350 . S
C1041 H1028 0.929 . S
C1041 C1033 1.433 . S
C1041 N1043 1.384 . S
N1042 C1038 1.427 . S
N1042 C1039 1.384 . S
N1043 C1035 1.427 . S
N1043 C1041 1.384 . S
H1044 C1050 0.930 . S
H1045 C1054 0.930 . S
H1046 C1059 0.929 . S
H1047 C1057 0.929 . S
H1048 C1052 0.929 . S
H1049 C1058 0.929 . S
C1050 H1044 0.930 . S
C1050 C1051 1.367 . S
C1050 C1058 1.378 . S
C1051 C1050 1.367 . S
C1051 C1059 1.433 . S
C1052 H1048 0.929 . S
C1052 C1054 1.378 . S
C1052 C1056 1.350 . S
C1053 C1056 1.463 . S
C1053 C1058 1.350 . S
C1053 N1061 1.427 . S
C1054 H1045 0.930 . S
C1054 C1052 1.378 . S
C1054 C1055 1.367 . S
C1055 C1054 1.367 . S
C1055 C1057 1.433 . S
C1056 C1052 1.350 . S
C1056 C1053 1.463 . S
C1056 N1060 1.427 . S
C1057 H1047 0.929 . S
C1057 C1055 1.433 . S
C1057 N1060 1.384 . S
C1058 H1049 0.929 . S
C1058 C1050 1.378 . S
C1058 C1053 1.350 . S
C1059 H1046 0.929 . S
C1059 C1051 1.433 . S
C1059 N1061 1.384 . S
N1060 C1056 1.427 . S
N1060 C1057 1.384 . S
N1061 C1053 1.427 . S
N1061 C1059 1.384 . S
H1062 C1068 0.930 . S
H1063 C1072 0.930 . S
H1064 C1077 0.929 . S
H1065 C1075 0.929 . S
H1066 C1070 0.929 . S
H1067 C1076 0.929 . S
C1068 H1062 0.930 . S
C1068 C1069 1.367 . S
C1068 C1076 1.378 . S
C1069 C1068 1.367 . S
C1069 C1077 1.433 . S
C1070 H1066 0.929 . S
C1070 C1072 1.378 . S
C1070 C1074 1.350 . S
C1071 C1074 1.463 . S
C1071 C1076 1.350 . S
C1071 N1079 1.427 . S
C1072 H1063 0.930 . S
C1072 C1070 1.378 . S
C1072 C1073 1.367 . S
C1073 C1072 1.367 . S
C1073 C1075 1.433 . S
C1074 C1070 1.350 . S
C1074 C1071 1.463 . S
C1074 N1078 1.427 . S
C1075 H1065 0.929 . S
C1075 C1073 1.433 . S
C1075 N1078 1.384 . S
C1076 H1067 0.929 . S
C1076 C1068 1.378 . S
C1076 C1071 1.350 . S
C1077 H1064 0.929 . S
C1077 C1069 1.433 . S
C1077 N1079 1.384 . S
N1078 C1074 1.427 . S
N1078 C1075 1.384 . S
N1079 C1071 1.427 . S
N1079 C1077 1.384 . S
H1080 C1086 0.930 . S
H1081 C1090 0.930 . S
H1082 C1095 0.929 . S
H1083 C1093 0.929 . S
H1084 C1088 0.929 . S
H1085 C1094 0.929 . S
C1086 H1080 0.930 . S
C1086 C1087 1.367 . S
C1086 C1094 1.378 . S
C1087 C1086 1.367 . S
C1087 C1095 1.433 . S
C1088 H1084 0.929 . S
C1088 C1090 1.378 . S
C1088 C1092 1.350 . S
C1089 C1092 1.463 . S
C1089 C1094 1.350 . S
C1089 N1097 1.427 . S
C1090 H1081 0.930 . S
C1090 C1088 1.378 . S
C1090 C1091 1.367 . S
C1091 C1090 1.367 . S
C1091 C1093 1.433 . S
C1092 C1088 1.350 . S
C1092 C1089 1.463 . S
C1092 N1096 1.427 . S
C1093 H1083 0.929 . S
C1093 C1091 1.433 . S
C1093 N1096 1.384 . S
C1094 H1085 0.929 . S
C1094 C1086 1.378 . S
C1094 C1089 1.350 . S
C1095 H1082 0.929 . S
C1095 C1087 1.433 . S
C1095 N1097 1.384 . S
N1096 C1092 1.427 . S
N1096 C1093 1.384 . S
N1097 C1089 1.427 . S
N1097 C1095 1.384 . S
H1098 C1104 0.930 . S
H1099 C1108 0.930 . S
H1100 C1113 0.929 . S
H1101 C1111 0.932 1_545 S
H1102 C1106 0.929 . S
H1103 C1112 0.929 . S
C1104 H1098 0.930 . S
C1104 C1105 1.367 . S
C1104 C1112 1.378 . S
C1105 C1104 1.367 . S
C1105 C1113 1.433 . S
C1106 H1102 0.929 . S
C1106 C1108 1.378 1_565 S
C1106 C1110 1.350 . S
C1107 C1110 1.463 . S
C1107 C1112 1.350 . S
C1107 N1115 1.427 . S
C1108 H1099 0.930 . S
C1108 C1106 1.378 1_545 S
C1108 C1109 1.367 . S
C1109 C1108 1.367 . S
C1109 C1111 1.430 1_545 S
C1110 C1106 1.350 . S
C1110 C1107 1.463 . S
C1110 N1114 1.427 . S
C1111 H1101 0.932 1_565 S
C1111 C1109 1.430 1_565 S
C1111 N1114 1.384 . S
C1112 H1103 0.929 . S
C1112 C1104 1.378 . S
C1112 C1107 1.350 . S
C1113 H1100 0.929 . S
C1113 C1105 1.433 . S
C1113 N1115 1.384 . S
N1114 C1110 1.427 . S
N1114 C1111 1.384 . S
N1115 C1107 1.427 . S
N1115 C1113 1.384 . S
H1116 C1122 0.930 . S
H1117 C1126 0.930 . S
H1118 C1131 0.929 . S
H1119 C1129 0.929 . S
H1120 C1124 0.929 . S
H1121 C1130 0.929 . S
C1122 H1116 0.930 . S
C1122 C1123 1.367 . S
C1122 C1130 1.378 . S
C1123 C1122 1.367 . S
C1123 C1131 1.433 . S
C1124 H1120 0.929 . S
C1124 C1126 1.378 . S
C1124 C1128 1.350 . S
C1125 C1128 1.463 . S
C1125 C1130 1.350 . S
C1125 N1133 1.427 . S
C1126 H1117 0.930 . S
C1126 C1124 1.378 . S
C1126 C1127 1.367 . S
C1127 C1126 1.367 . S
C1127 C1129 1.433 . S
C1128 C1124 1.350 . S
C1128 C1125 1.463 . S
C1128 N1132 1.427 . S
C1129 H1119 0.929 . S
C1129 C1127 1.433 . S
C1129 N1132 1.384 . S
C1130 H1121 0.929 . S
C1130 C1122 1.378 . S
C1130 C1125 1.350 . S
C1131 H1118 0.929 . S
C1131 C1123 1.433 . S
C1131 N1133 1.384 . S
N1132 C1128 1.427 . S
N1132 C1129 1.384 . S
N1133 C1125 1.427 . S
N1133 C1131 1.384 . S
H1134 C1140 0.930 . S
H1135 C1144 0.930 . S
H1136 C1149 0.929 . S
H1137 C1147 0.929 . S
H1138 C1142 0.929 . S
H1139 C1148 0.929 . S
C1140 H1134 0.930 . S
C1140 C1141 1.367 . S
C1140 C1148 1.378 . S
C1141 C1140 1.367 . S
C1141 C1149 1.433 . S
C1142 H1138 0.929 . S
C1142 C1144 1.378 . S
C1142 C1146 1.350 . S
C1143 C1146 1.463 . S
C1143 C1148 1.350 . S
C1143 N1151 1.427 . S
C1144 H1135 0.930 . S
C1144 C1142 1.378 . S
C1144 C1145 1.367 . S
C1145 C1144 1.367 . S
C1145 C1147 1.433 . S
C1146 C1142 1.350 . S
C1146 C1143 1.463 . S
C1146 N1150 1.427 . S
C1147 H1137 0.929 . S
C1147 C1145 1.433 . S
C1147 N1150 1.384 . S
C1148 H1139 0.929 . S
C1148 C1140 1.378 . S
C1148 C1143 1.350 . S
C1149 H1136 0.929 . S
C1149 C1141 1.433 . S
C1149 N1151 1.384 . S
N1150 C1146 1.427 . S
N1150 C1147 1.384 . S
N1151 C1143 1.427 . S
N1151 C1149 1.384 . S
H1152 C1158 0.930 . S
H1153 C1162 0.930 . S
H1154 C1167 0.929 . S
H1155 C1165 0.929 1_455 S
H1156 C1160 0.929 . S
H1157 C1166 0.929 . S
C1158 H1152 0.930 . S
C1158 C1159 1.367 . S
C1158 C1166 1.378 . S
C1159 C1158 1.367 . S
C1159 C1167 1.433 1_455 S
C1160 H1156 0.929 . S
C1160 C1162 1.378 . S
C1160 C1164 1.350 . S
C1161 C1164 1.463 . S
C1161 C1166 1.350 1_655 S
C1161 N1169 1.427 . S
C1162 H1153 0.930 . S
C1162 C1160 1.378 . S
C1162 C1163 1.367 . S
C1163 C1162 1.367 . S
C1163 C1165 1.433 . S
C1164 C1160 1.350 . S
C1164 C1161 1.463 . S
C1164 N1168 1.427 . S
C1165 H1155 0.929 1_655 S
C1165 C1163 1.433 . S
C1165 N1168 1.384 . S
C1166 H1157 0.929 . S
C1166 C1158 1.378 . S
C1166 C1161 1.350 1_455 S
C1167 H1154 0.929 . S
C1167 C1159 1.433 1_655 S
C1167 N1169 1.384 . S
N1168 C1164 1.427 . S
N1168 C1165 1.384 . S
N1169 C1161 1.427 . S
N1169 C1167 1.384 . S
H1170 C1176 0.930 . S
H1171 C1180 0.930 . S
H1172 C1185 0.929 . S
H1173 C1183 0.929 . S
H1174 C1178 0.929 . S
H1175 C1184 0.929 . S
C1176 H1170 0.930 . S
C1176 C1177 1.367 . S
C1176 C1184 1.378 . S
C1177 C1176 1.367 . S
C1177 C1185 1.433 . S
C1178 H1174 0.929 . S
C1178 C1180 1.378 . S
C1178 C1182 1.350 . S
C1179 C1182 1.463 . S
C1179 C1184 1.350 . S
C1179 N1187 1.427 . S
C1180 H1171 0.930 . S
C1180 C1178 1.378 . S
C1180 C1181 1.367 . S
C1181 C1180 1.367 . S
C1181 C1183 1.433 . S
C1182 C1178 1.350 . S
C1182 C1179 1.463 . S
C1182 N1186 1.427 . S
C1183 H1173 0.929 . S
C1183 C1181 1.433 . S
C1183 N1186 1.384 . S
C1184 H1175 0.929 . S
C1184 C1176 1.378 . S
C1184 C1179 1.350 . S
C1185 H1172 0.929 . S
C1185 C1177 1.433 . S
C1185 N1187 1.384 . S
N1186 C1182 1.427 . S
N1186 C1183 1.384 . S
N1187 C1179 1.427 . S
N1187 C1185 1.384 . S
H1188 C1194 0.930 . S
H1189 C1198 0.930 . S
H1190 C1203 0.929 . S
H1191 C1201 0.929 . S
H1192 C1196 0.929 . S
H1193 C1202 0.929 . S
C1194 H1188 0.930 . S
C1194 C1195 1.367 . S
C1194 C1202 1.378 . S
C1195 C1194 1.367 . S
C1195 C1203 1.433 . S
C1196 H1192 0.929 . S
C1196 C1198 1.378 . S
C1196 C1200 1.350 . S
C1197 C1200 1.463 . S
C1197 C1202 1.350 . S
C1197 N1205 1.427 . S
C1198 H1189 0.930 . S
C1198 C1196 1.378 . S
C1198 C1199 1.367 . S
C1199 C1198 1.367 . S
C1199 C1201 1.433 . S
C1200 C1196 1.350 . S
C1200 C1197 1.463 . S
C1200 N1204 1.427 . S
C1201 H1191 0.929 . S
C1201 C1199 1.433 . S
C1201 N1204 1.384 . S
C1202 H1193 0.929 . S
C1202 C1194 1.378 . S
C1202 C1197 1.350 . S
C1203 H1190 0.929 . S
C1203 C1195 1.433 . S
C1203 N1205 1.384 . S
N1204 C1200 1.427 . S
N1204 C1201 1.384 . S
N1205 C1197 1.427 . S
N1205 C1203 1.384 . S
H1206 C1212 0.930 . S
H1207 C1216 0.930 . S
H1208 C1221 0.929 . S
H1209 C1219 0.929 . S
H1210 C1214 0.929 1_655 S
H1211 C1220 0.929 . S
C1212 H1206 0.930 . S
C1212 C1213 1.367 1_455 S
C1212 C1220 1.378 . S
C1213 C1212 1.367 1_655 S
C1213 C1221 1.433 . S
C1214 H1210 0.929 1_455 S
C1214 C1216 1.378 . S
C1214 C1218 1.350 . S
C1215 C1218 1.463 . S
C1215 C1220 1.350 . S
C1215 N1223 1.427 1_455 S
C1216 H1207 0.930 . S
C1216 C1214 1.378 . S
C1216 C1217 1.367 . S
C1217 C1216 1.367 . S
C1217 C1219 1.433 . S
C1218 C1214 1.350 . S
C1218 C1215 1.463 . S
C1218 N1222 1.427 . S
C1219 H1209 0.929 . S
C1219 C1217 1.433 . S
C1219 N1222 1.384 . S
C1220 H1211 0.929 . S
C1220 C1212 1.378 . S
C1220 C1215 1.350 . S
C1221 H1208 0.929 . S
C1221 C1213 1.433 . S
C1221 N1223 1.384 . S
N1222 C1218 1.427 . S
N1222 C1219 1.384 . S
N1223 C1215 1.427 1_655 S
N1223 C1221 1.384 . S
H1224 C1230 0.930 . S
H1225 C1234 0.930 . S
H1226 C1239 0.929 . S
H1227 C1237 0.929 . S
H1228 C1232 0.929 . S
H1229 C1238 0.929 . S
C1230 H1224 0.930 . S
C1230 C1231 1.367 . S
C1230 C1238 1.378 . S
C1231 C1230 1.367 . S
C1231 C1239 1.433 . S
C1232 H1228 0.929 . S
C1232 C1234 1.378 . S
C1232 C1236 1.350 . S
C1233 C1236 1.463 . S
C1233 C1238 1.350 . S
C1233 N1241 1.427 . S
C1234 H1225 0.930 . S
C1234 C1232 1.378 . S
C1234 C1235 1.367 . S
C1235 C1234 1.367 . S
C1235 C1237 1.433 . S
C1236 C1232 1.350 . S
C1236 C1233 1.463 . S
C1236 N1240 1.427 . S
C1237 H1227 0.929 . S
C1237 C1235 1.433 . S
C1237 N1240 1.384 . S
C1238 H1229 0.929 . S
C1238 C1230 1.378 . S
C1238 C1233 1.350 . S
C1239 H1226 0.929 . S
C1239 C1231 1.433 . S
C1239 N1241 1.384 . S
N1240 C1236 1.427 . S
N1240 C1237 1.384 . S
N1241 C1233 1.427 . S
N1241 C1239 1.384 . S
H1242 C1248 0.930 . S
H1243 C1252 0.930 . S
H1244 C1257 0.929 . S
H1245 C1255 0.929 . S
H1246 C1250 0.929 . S
H1247 C1256 0.929 . S
C1248 H1242 0.930 . S
C1248 C1249 1.367 . S
C1248 C1256 1.378 . S
C1249 C1248 1.367 . S
C1249 C1257 1.433 1_565 S
C1250 H1246 0.929 . S
C1250 C1252 1.378 . S
C1250 C1254 1.350 . S
C1251 C1254 1.463 . S
C1251 C1256 1.350 1_545 S
C1251 N1259 1.427 . S
C1252 H1243 0.930 . S
C1252 C1250 1.378 . S
C1252 C1253 1.367 . S
C1253 C1252 1.367 . S
C1253 C1255 1.433 . S
C1254 C1250 1.350 . S
C1254 C1251 1.463 . S
C1254 N1258 1.427 . S
C1255 H1245 0.929 . S
C1255 C1253 1.433 . S
C1255 N1258 1.384 . S
C1256 H1247 0.929 . S
C1256 C1248 1.378 . S
C1256 C1251 1.350 1_565 S
C1257 H1244 0.929 . S
C1257 C1249 1.433 1_545 S
C1257 N1259 1.384 . S
N1258 C1254 1.427 . S
N1258 C1255 1.384 . S
N1259 C1251 1.427 . S
N1259 C1257 1.384 . S
H1260 C1266 0.930 . S
H1261 C1270 0.930 . S
H1262 C1275 0.929 . S
H1263 C1273 0.929 . S
H1264 C1268 0.929 . S
H1265 C1274 0.929 . S
C1266 H1260 0.930 . S
C1266 C1267 1.367 . S
C1266 C1274 1.378 . S
C1267 C1266 1.367 . S
C1267 C1275 1.433 . S
C1268 H1264 0.929 . S
C1268 C1270 1.378 . S
C1268 C1272 1.350 . S
C1269 C1272 1.463 . S
C1269 C1274 1.350 . S
C1269 N1277 1.427 . S
C1270 H1261 0.930 . S
C1270 C1268 1.378 . S
C1270 C1271 1.367 . S
C1271 C1270 1.367 . S
C1271 C1273 1.433 . S
C1272 C1268 1.350 . S
C1272 C1269 1.463 . S
C1272 N1276 1.427 . S
C1273 H1263 0.929 . S
C1273 C1271 1.433 . S
C1273 N1276 1.384 . S
C1274 H1265 0.929 . S
C1274 C1266 1.378 . S
C1274 C1269 1.350 . S
C1275 H1262 0.929 . S
C1275 C1267 1.433 . S
C1275 N1277 1.384 . S
N1276 C1272 1.427 . S
N1276 C1273 1.384 . S
N1277 C1269 1.427 . S
N1277 C1275 1.384 . S
H1278 C1284 0.930 . S
H1279 C1288 0.930 . S
H1280 C1293 0.929 . S
H1281 C1291 0.929 . S
H1282 C1286 0.929 . S
H1283 C1292 0.929 . S
C1284 H1278 0.930 . S
C1284 C1285 1.367 . S
C1284 C1292 1.378 . S
C1285 C1284 1.367 . S
C1285 C1293 1.433 . S
C1286 H1282 0.929 . S
C1286 C1288 1.378 . S
C1286 C1290 1.350 . S
C1287 C1290 1.463 . S
C1287 C1292 1.350 . S
C1287 N1295 1.427 . S
C1288 H1279 0.930 . S
C1288 C1286 1.378 . S
C1288 C1289 1.367 . S
C1289 C1288 1.367 . S
C1289 C1291 1.433 . S
C1290 C1286 1.350 . S
C1290 C1287 1.463 . S
C1290 N1294 1.427 . S
C1291 H1281 0.929 . S
C1291 C1289 1.433 . S
C1291 N1294 1.384 . S
C1292 H1283 0.929 . S
C1292 C1284 1.378 . S
C1292 C1287 1.350 . S
C1293 H1280 0.929 . S
C1293 C1285 1.433 . S
C1293 N1295 1.384 . S
N1294 C1290 1.427 . S
N1294 C1291 1.384 . S
N1295 C1287 1.427 . S
N1295 C1293 1.384 . S
H1296 C1302 0.930 . S
H1297 C1306 0.930 . S
H1298 C1311 0.929 . S
H1299 C1309 0.929 . S
H1300 C1304 0.929 . S
H1301 C1310 0.929 . S
C1302 H1296 0.930 . S
C1302 C1303 1.367 . S
C1302 C1310 1.378 . S
C1303 C1302 1.367 . S
C1303 C1311 1.433 . S
C1304 H1300 0.929 . S
C1304 C1306 1.378 . S
C1304 C1308 1.350 . S
C1305 C1308 1.463 . S
C1305 C1310 1.350 . S
C1305 N1313 1.427 . S
C1306 H1297 0.930 . S
C1306 C1304 1.378 . S
C1306 C1307 1.367 . S
C1307 C1306 1.367 . S
C1307 C1309 1.433 . S
C1308 C1304 1.350 . S
C1308 C1305 1.463 . S
C1308 N1312 1.427 . S
C1309 H1299 0.929 . S
C1309 C1307 1.433 . S
C1309 N1312 1.384 . S
C1310 H1301 0.929 . S
C1310 C1302 1.378 . S
C1310 C1305 1.350 . S
C1311 H1298 0.929 . S
C1311 C1303 1.433 . S
C1311 N1313 1.384 . S
N1312 C1308 1.427 . S
N1312 C1309 1.384 . S
N1313 C1305 1.427 . S
N1313 C1311 1.384 . S
H1314 C1320 0.930 . S
H1315 C1324 0.930 . S
H1316 C1329 0.929 . S
H1317 C1327 0.929 . S
H1318 C1322 0.929 . S
H1319 C1328 0.929 . S
C1320 H1314 0.930 . S
C1320 C1321 1.367 . S
C1320 C1328 1.378 . S
C1321 C1320 1.367 . S
C1321 C1329 1.433 . S
C1322 H1318 0.929 . S
C1322 C1324 1.378 . S
C1322 C1326 1.350 . S
C1323 C1326 1.463 . S
C1323 C1328 1.350 . S
C1323 N1331 1.427 . S
C1324 H1315 0.930 . S
C1324 C1322 1.378 . S
C1324 C1325 1.367 . S
C1325 C1324 1.367 . S
C1325 C1327 1.433 . S
C1326 C1322 1.350 . S
C1326 C1323 1.463 . S
C1326 N1330 1.427 . S
C1327 H1317 0.929 . S
C1327 C1325 1.433 . S
C1327 N1330 1.384 . S
C1328 H1319 0.929 . S
C1328 C1320 1.378 . S
C1328 C1323 1.350 . S
C1329 H1316 0.929 . S
C1329 C1321 1.433 . S
C1329 N1331 1.384 . S
N1330 C1326 1.427 . S
N1330 C1327 1.384 . S
N1331 C1323 1.427 . S
N1331 C1329 1.384 . S
H1332 C1338 0.930 . S
H1333 C1342 0.930 . S
H1334 C1347 0.929 . S
H1335 C1345 0.929 . S
H1336 C1340 0.929 . S
H1337 C1346 0.929 . S
C1338 H1332 0.930 . S
C1338 C1339 1.367 . S
C1338 C1346 1.378 . S
C1339 C1338 1.367 . S
C1339 C1347 1.433 . S
C1340 H1336 0.929 . S
C1340 C1342 1.378 . S
C1340 C1344 1.350 . S
C1341 C1344 1.463 . S
C1341 C1346 1.350 . S
C1341 N1349 1.427 . S
C1342 H1333 0.930 . S
C1342 C1340 1.378 . S
C1342 C1343 1.367 . S
C1343 C1342 1.367 . S
C1343 C1345 1.433 . S
C1344 C1340 1.350 . S
C1344 C1341 1.463 . S
C1344 N1348 1.427 . S
C1345 H1335 0.929 . S
C1345 C1343 1.433 . S
C1345 N1348 1.384 . S
C1346 H1337 0.929 . S
C1346 C1338 1.378 . S
C1346 C1341 1.350 . S
C1347 H1334 0.929 . S
C1347 C1339 1.433 . S
C1347 N1349 1.384 . S
N1348 C1344 1.427 . S
N1348 C1345 1.384 . S
N1349 C1341 1.427 . S
N1349 C1347 1.384 . S
H1350 C1356 0.930 . S
H1351 C1360 0.930 . S
H1352 C1365 0.929 . S
H1353 C1363 0.929 . S
H1354 C1358 0.929 . S
H1355 C1364 0.929 . S
C1356 H1350 0.930 . S
C1356 C1357 1.367 . S
C1356 C1364 1.378 . S
C1357 C1356 1.367 . S
C1357 C1365 1.433 . S
C1358 H1354 0.929 . S
C1358 C1360 1.378 . S
C1358 C1362 1.350 . S
C1359 C1362 1.463 . S
C1359 C1364 1.350 . S
C1359 N1367 1.427 . S
C1360 H1351 0.930 . S
C1360 C1358 1.378 . S
C1360 C1361 1.367 . S
C1361 C1360 1.367 . S
C1361 C1363 1.433 . S
C1362 C1358 1.350 . S
C1362 C1359 1.463 . S
C1362 N1366 1.427 . S
C1363 H1353 0.929 . S
C1363 C1361 1.433 . S
C1363 N1366 1.384 . S
C1364 H1355 0.929 . S
C1364 C1356 1.378 . S
C1364 C1359 1.350 . S
C1365 H1352 0.929 . S
C1365 C1357 1.433 . S
C1365 N1367 1.384 . S
N1366 C1362 1.427 . S
N1366 C1363 1.384 . S
N1367 C1359 1.427 . S
N1367 C1365 1.384 . S
H1368 C1374 0.930 . S
H1369 C1378 0.930 . S
H1370 C1383 0.929 . S
H1371 C1381 0.929 . S
H1372 C1376 0.929 . S
H1373 C1382 0.929 . S
C1374 H1368 0.930 . S
C1374 C1375 1.367 . S
C1374 C1382 1.378 . S
C1375 C1374 1.367 . S
C1375 C1383 1.433 . S
C1376 H1372 0.929 . S
C1376 C1378 1.378 . S
C1376 C1380 1.350 . S
C1377 C1380 1.463 . S
C1377 C1382 1.350 . S
C1377 N1385 1.427 . S
C1378 H1369 0.930 . S
C1378 C1376 1.378 . S
C1378 C1379 1.367 . S
C1379 C1378 1.367 . S
C1379 C1381 1.433 . S
C1380 C1376 1.350 . S
C1380 C1377 1.463 . S
C1380 N1384 1.427 . S
C1381 H1371 0.929 . S
C1381 C1379 1.433 . S
C1381 N1384 1.384 . S
C1382 H1373 0.929 . S
C1382 C1374 1.378 . S
C1382 C1377 1.350 . S
C1383 H1370 0.929 . S
C1383 C1375 1.433 . S
C1383 N1385 1.384 . S
N1384 C1380 1.427 . S
N1384 C1381 1.384 . S
N1385 C1377 1.427 . S
N1385 C1383 1.384 . S
H1386 C1392 0.930 . S
H1387 C1396 0.930 . S
H1388 C1401 0.929 . S
H1389 C1399 0.929 . S
H1390 C1394 0.929 . S
H1391 C1400 0.929 . S
C1392 H1386 0.930 . S
C1392 C1393 1.367 . S
C1392 C1400 1.378 . S
C1393 C1392 1.367 . S
C1393 C1401 1.433 . S
C1394 H1390 0.929 . S
C1394 C1396 1.378 . S
C1394 C1398 1.350 . S
C1395 C1398 1.463 . S
C1395 C1400 1.350 . S
C1395 N1403 1.427 . S
C1396 H1387 0.930 . S
C1396 C1394 1.378 . S
C1396 C1397 1.367 . S
C1397 C1396 1.367 . S
C1397 C1399 1.433 . S
C1398 C1394 1.350 . S
C1398 C1395 1.463 . S
C1398 N1402 1.427 . S
C1399 H1389 0.929 . S
C1399 C1397 1.433 . S
C1399 N1402 1.384 . S
C1400 H1391 0.929 . S
C1400 C1392 1.378 . S
C1400 C1395 1.350 . S
C1401 H1388 0.929 . S
C1401 C1393 1.433 . S
C1401 N1403 1.384 . S
N1402 C1398 1.427 . S
N1402 C1399 1.384 . S
N1403 C1395 1.427 . S
N1403 C1401 1.384 . S
H1404 C1410 0.930 . S
H1405 C1414 0.930 1_545 S
H1406 C1419 0.929 . S
H1407 C1417 0.929 . S
H1408 C1412 0.929 . S
H1409 C1418 0.929 . S
C1410 H1404 0.930 . S
C1410 C1411 1.367 . S
C1410 C1418 1.378 . S
C1411 C1410 1.367 . S
C1411 C1419 1.433 . S
C1412 H1408 0.929 . S
C1412 C1414 1.378 . S
C1412 C1416 1.350 . S
C1413 C1416 1.463 . S
C1413 C1418 1.350 . S
C1413 N1421 1.427 . S
C1414 H1405 0.930 1_565 S
C1414 C1412 1.378 . S
C1414 C1415 1.367 . S
C1415 C1414 1.367 . S
C1415 C1417 1.433 . S
C1416 C1412 1.350 . S
C1416 C1413 1.463 . S
C1416 N1420 1.427 . S
C1417 H1407 0.929 . S
C1417 C1415 1.433 . S
C1417 N1420 1.384 . S
C1418 H1409 0.929 . S
C1418 C1410 1.378 . S
C1418 C1413 1.350 . S
C1419 H1406 0.929 . S
C1419 C1411 1.433 . S
C1419 N1421 1.384 . S
N1420 C1416 1.427 . S
N1420 C1417 1.384 . S
N1421 C1413 1.427 . S
N1421 C1419 1.384 . S
H1422 C1428 0.930 . S
H1423 C1432 0.930 . S
H1424 C1437 0.929 . S
H1425 C1435 0.929 . S
H1426 C1430 0.929 . S
H1427 C1436 0.929 . S
C1428 H1422 0.930 . S
C1428 C1429 1.367 . S
C1428 C1436 1.378 . S
C1429 C1428 1.367 . S
C1429 C1437 1.433 . S
C1430 H1426 0.929 . S
C1430 C1432 1.378 1_655 S
C1430 C1434 1.350 . S
C1431 C1434 1.463 . S
C1431 C1436 1.350 . S
C1431 N1439 1.427 . S
C1432 H1423 0.930 . S
C1432 C1430 1.378 1_455 S
C1432 C1433 1.367 . S
C1433 C1432 1.367 . S
C1433 C1435 1.433 . S
C1434 C1430 1.350 . S
C1434 C1431 1.463 . S
C1434 N1438 1.427 1_655 S
C1435 H1425 0.929 . S
C1435 C1433 1.433 . S
C1435 N1438 1.384 . S
C1436 H1427 0.929 . S
C1436 C1428 1.378 . S
C1436 C1431 1.350 . S
C1437 H1424 0.929 . S
C1437 C1429 1.433 . S
C1437 N1439 1.384 . S
N1438 C1434 1.427 1_455 S
N1438 C1435 1.384 . S
N1439 C1431 1.427 . S
N1439 C1437 1.384 . S
H1440 C1446 0.930 . S
H1441 C1450 0.930 . S
H1442 C1455 0.929 . S
H1443 C1453 0.929 . S
H1444 C1448 0.929 . S
H1445 C1454 0.929 . S
C1446 H1440 0.930 . S
C1446 C1447 1.367 . S
C1446 C1454 1.378 . S
C1447 C1446 1.367 . S
C1447 C1455 1.433 . S
C1448 H1444 0.929 . S
C1448 C1450 1.378 . S
C1448 C1452 1.350 . S
C1449 C1452 1.463 . S
C1449 C1454 1.350 . S
C1449 N1457 1.427 . S
C1450 H1441 0.930 . S
C1450 C1448 1.378 . S
C1450 C1451 1.367 . S
C1451 C1450 1.367 . S
C1451 C1453 1.433 . S
C1452 C1448 1.350 . S
C1452 C1449 1.463 . S
C1452 N1456 1.427 . S
C1453 H1443 0.929 . S
C1453 C1451 1.433 . S
C1453 N1456 1.384 . S
C1454 H1445 0.929 . S
C1454 C1446 1.378 . S
C1454 C1449 1.350 . S
C1455 H1442 0.929 . S
C1455 C1447 1.433 . S
C1455 N1457 1.384 . S
N1456 C1452 1.427 . S
N1456 C1453 1.384 . S
N1457 C1449 1.427 . S
N1457 C1455 1.384 . S
H1458 C1464 0.930 1_565 S
H1459 C1468 0.931 . S
H1460 C1473 0.929 . S
H1461 C1471 0.929 . S
H1462 C1466 0.929 . S
H1463 C1472 0.929 . S
C1464 H1458 0.930 1_545 S
C1464 C1465 1.367 1_545 S
C1464 C1472 1.378 . S
C1465 C1464 1.367 1_565 S
C1465 C1473 1.433 1_565 S
C1466 H1462 0.929 . S
C1466 C1468 1.378 1_655 S
C1466 C1470 1.350 . S
C1467 C1470 1.463 . S
C1467 C1472 1.350 . S
C1467 N1475 1.427 . S
C1468 H1459 0.931 . S
C1468 C1466 1.378 1_455 S
C1468 C1469 1.366 . S
C1469 C1468 1.366 . S
C1469 C1471 1.433 . S
C1470 C1466 1.350 . S
C1470 C1467 1.463 . S
C1470 N1474 1.427 . S
C1471 H1461 0.929 . S
C1471 C1469 1.433 . S
C1471 N1474 1.384 1_455 S
C1472 H1463 0.929 . S
C1472 C1464 1.378 . S
C1472 C1467 1.350 . S
C1473 H1460 0.929 . S
C1473 C1465 1.433 1_545 S
C1473 N1475 1.384 . S
N1474 C1470 1.427 . S
N1474 C1471 1.384 1_655 S
N1475 C1467 1.427 . S
N1475 C1473 1.384 . S
H1476 C1482 0.930 . S
H1477 C1486 0.930 . S
H1478 C1491 0.929 . S
H1479 C1489 0.929 . S
H1480 C1484 0.929 1_565 S
H1481 C1490 0.929 . S
C1482 H1476 0.930 . S
C1482 C1483 1.367 . S
C1482 C1490 1.378 . S
C1483 C1482 1.367 . S
C1483 C1491 1.433 . S
C1484 H1480 0.929 1_545 S
C1484 C1486 1.378 . S
C1484 C1488 1.350 1_545 S
C1485 C1488 1.463 . S
C1485 C1490 1.350 . S
C1485 N1493 1.427 . S
C1486 H1477 0.930 . S
C1486 C1484 1.378 . S
C1486 C1487 1.367 . S
C1487 C1486 1.367 . S
C1487 C1489 1.433 . S
C1488 C1484 1.350 1_565 S
C1488 C1485 1.463 . S
C1488 N1492 1.427 1_565 S
C1489 H1479 0.929 . S
C1489 C1487 1.433 . S
C1489 N1492 1.384 . S
C1490 H1481 0.929 . S
C1490 C1482 1.378 . S
C1490 C1485 1.350 . S
C1491 H1478 0.929 . S
C1491 C1483 1.433 . S
C1491 N1493 1.384 . S
N1492 C1488 1.427 1_545 S
N1492 C1489 1.384 . S
N1493 C1485 1.427 . S
N1493 C1491 1.384 . S
H1494 C1500 0.930 . S
H1495 C1504 0.930 1_655 S
H1496 C1509 0.929 . S
H1497 C1507 0.929 . S
H1498 C1502 0.929 . S
H1499 C1508 0.929 . S
C1500 H1494 0.930 . S
C1500 C1501 1.367 . S
C1500 C1508 1.378 1_545 S
C1501 C1500 1.367 . S
C1501 C1509 1.433 . S
C1502 H1498 0.929 . S
C1502 C1504 1.378 . S
C1502 C1506 1.350 . S
C1503 C1506 1.463 . S
C1503 C1508 1.350 . S
C1503 N1511 1.427 . S
C1504 H1495 0.930 1_455 S
C1504 C1502 1.378 . S
C1504 C1505 1.367 1_455 S
C1505 C1504 1.367 1_655 S
C1505 C1507 1.433 1_655 S
C1506 C1502 1.350 . S
C1506 C1503 1.463 . S
C1506 N1510 1.427 . S
C1507 H1497 0.929 . S
C1507 C1505 1.433 1_455 S
C1507 N1510 1.384 . S
C1508 H1499 0.929 . S
C1508 C1500 1.378 1_565 S
C1508 C1503 1.350 . S
C1509 H1496 0.929 . S
C1509 C1501 1.433 . S
C1509 N1511 1.384 1_545 S
N1510 C1506 1.427 . S
N1510 C1507 1.384 . S
N1511 C1503 1.427 . S
N1511 C1509 1.384 1_565 S
H1512 C1518 0.930 . S
H1513 C1522 0.930 . S
H1514 C1527 0.929 . S
H1515 C1525 0.929 . S
H1516 C1520 0.929 . S
H1517 C1526 0.929 . S
C1518 H1512 0.930 . S
C1518 C1519 1.367 . S
C1518 C1526 1.378 . S
C1519 C1518 1.367 . S
C1519 C1527 1.433 . S
C1520 H1516 0.929 . S
C1520 C1522 1.378 . S
C1520 C1524 1.350 . S
C1521 C1524 1.463 . S
C1521 C1526 1.350 . S
C1521 N1529 1.427 . S
C1522 H1513 0.930 . S
C1522 C1520 1.378 . S
C1522 C1523 1.367 . S
C1523 C1522 1.367 . S
C1523 C1525 1.433 . S
C1524 C1520 1.350 . S
C1524 C1521 1.463 . S
C1524 N1528 1.427 . S
C1525 H1515 0.929 . S
C1525 C1523 1.433 . S
C1525 N1528 1.384 . S
C1526 H1517 0.929 . S
C1526 C1518 1.378 . S
C1526 C1521 1.350 . S
C1527 H1514 0.929 . S
C1527 C1519 1.433 . S
C1527 N1529 1.384 . S
N1528 C1524 1.427 . S
N1528 C1525 1.384 . S
N1529 C1521 1.427 . S
N1529 C1527 1.384 . S
H1530 C1536 0.930 . S
H1531 C1540 0.930 . S
H1532 C1545 0.929 . S
H1533 C1543 0.929 . S
H1534 C1538 0.929 . S
H1535 C1544 0.929 . S
C1536 H1530 0.930 . S
C1536 C1537 1.367 . S
C1536 C1544 1.378 . S
C1537 C1536 1.367 . S
C1537 C1545 1.433 . S
C1538 H1534 0.929 . S
C1538 C1540 1.378 . S
C1538 C1542 1.350 . S
C1539 C1542 1.463 . S
C1539 C1544 1.350 . S
C1539 N1547 1.427 . S
C1540 H1531 0.930 . S
C1540 C1538 1.378 . S
C1540 C1541 1.367 . S
C1541 C1540 1.367 . S
C1541 C1543 1.433 . S
C1542 C1538 1.350 . S
C1542 C1539 1.463 . S
C1542 N1546 1.427 . S
C1543 H1533 0.929 . S
C1543 C1541 1.433 . S
C1543 N1546 1.384 . S
C1544 H1535 0.929 . S
C1544 C1536 1.378 . S
C1544 C1539 1.350 . S
C1545 H1532 0.929 . S
C1545 C1537 1.433 . S
C1545 N1547 1.384 . S
N1546 C1542 1.427 . S
N1546 C1543 1.384 . S
N1547 C1539 1.427 . S
N1547 C1545 1.384 . S
H1548 C1554 0.930 . S
H1549 C1558 0.930 . S
H1550 C1563 0.929 . S
H1551 C1561 0.929 . S
H1552 C1556 0.929 . S
H1553 C1562 0.929 . S
C1554 H1548 0.930 . S
C1554 C1555 1.367 . S
C1554 C1562 1.378 . S
C1555 C1554 1.367 . S
C1555 C1563 1.433 . S
C1556 H1552 0.929 . S
C1556 C1558 1.378 . S
C1556 C1560 1.350 . S
C1557 C1560 1.463 . S
C1557 C1562 1.350 . S
C1557 N1565 1.427 . S
C1558 H1549 0.930 . S
C1558 C1556 1.378 . S
C1558 C1559 1.367 . S
C1559 C1558 1.367 . S
C1559 C1561 1.433 . S
C1560 C1556 1.350 . S
C1560 C1557 1.463 . S
C1560 N1564 1.427 . S
C1561 H1551 0.929 . S
C1561 C1559 1.433 . S
C1561 N1564 1.384 . S
C1562 H1553 0.929 . S
C1562 C1554 1.378 . S
C1562 C1557 1.350 . S
C1563 H1550 0.929 . S
C1563 C1555 1.433 . S
C1563 N1565 1.384 . S
N1564 C1560 1.427 . S
N1564 C1561 1.384 . S
N1565 C1557 1.427 . S
N1565 C1563 1.384 . S
H1566 C1572 0.930 . S
H1567 C1576 0.930 . S
H1568 C1581 0.929 . S
H1569 C1579 0.929 . S
H1570 C1574 0.929 . S
H1571 C1580 0.929 . S
C1572 H1566 0.930 . S
C1572 C1573 1.367 . S
C1572 C1580 1.378 . S
C1573 C1572 1.367 . S
C1573 C1581 1.433 . S
C1574 H1570 0.929 . S
C1574 C1576 1.378 . S
C1574 C1578 1.350 . S
C1575 C1578 1.463 . S
C1575 C1580 1.350 . S
C1575 N1583 1.427 . S
C1576 H1567 0.930 . S
C1576 C1574 1.378 . S
C1576 C1577 1.367 . S
C1577 C1576 1.367 . S
C1577 C1579 1.433 . S
C1578 C1574 1.350 . S
C1578 C1575 1.463 . S
C1578 N1582 1.427 . S
C1579 H1569 0.929 . S
C1579 C1577 1.433 . S
C1579 N1582 1.384 . S
C1580 H1571 0.929 . S
C1580 C1572 1.378 . S
C1580 C1575 1.350 . S
C1581 H1568 0.929 . S
C1581 C1573 1.433 . S
C1581 N1583 1.384 . S
N1582 C1578 1.427 . S
N1582 C1579 1.384 . S
N1583 C1575 1.427 . S
N1583 C1581 1.384 . S
C619 C8 0.872 . S
C623 C68 0.866 . S
C637 C0 0.865 . S
C641 C42 0.872 . S
C655 C34 0.866 . S
C659 C76 0.872 . S
C673 C110 0.872 . S
C677 C136 0.860 . S
C691 C170 0.869 . S
C695 C144 0.874 . S
C709 C178 0.873 . S
C713 C102 0.866 . S
C727 C272 0.871 . S
C731 C212 0.874 . S
C745 C204 0.873 . S
C749 C246 0.874 . S
C763 C280 0.873 . S
C767 C238 0.872 . S
C781 C340 0.874 . S
C785 C314 0.874 . S
C799 C348 0.873 . S
C803 C374 0.872 . S
C817 C306 0.868 . S
C821 C382 0.872 . S
C835 C416 0.872 . S
C839 C476 0.859 . S
C853 C408 0.860 . S
C857 C450 0.871 . S
C871 C442 0.858 . S
C875 C484 0.871 . S
C889 C544 0.867 . S
C893 C518 0.873 . S
C907 C578 0.867 . S
C911 C552 0.873 . S
C925 C510 0.864 . S
C929 C586 0.873 . S
C943 C13 1.607 . S
C947 C183 1.608 . S
C961 C115 1.611 . S
C965 C47 1.607 . S
C979 C149 1.609 . S
C983 C81 1.606 . S
C997 C217 1.613 . S
C1001 C387 1.611 . S
C1015 C251 1.611 . S
C1019 C319 1.612 . S
C1033 C353 1.610 . S
C1037 C285 1.613 . S
C1051 C421 1.606 . S
C1055 C591 1.609 . S
C1069 C523 1.612 . S
C1073 C455 1.608 . S
C1087 C557 1.611 . S
C1091 C489 1.612 . S
C1105 C344 1.834 . S
C1109 C4 1.833 . S
C1123 C38 1.840 . S
C1127 C378 1.839 . S
C1141 C310 1.833 . S
C1145 C72 1.833 . S
C1159 C106 1.840 . S
C1163 C480 1.840 . S
C1177 C140 1.837 . S
C1181 C412 1.838 . S
C1195 C446 1.833 . S
C1199 C174 1.833 . S
C1213 C548 1.833 . S
C1217 C208 1.833 . S
C1231 C242 1.840 . S
C1235 C582 1.840 . S
C1249 C276 1.841 . S
C1253 C514 1.841 . S
C1267 C97 1.173 . S
C1271 C17 1.166 . S
C1285 C29 1.174 . S
C1289 C51 1.168 . S
C1303 C85 1.166 . S
C1307 C63 1.173 . S
C1321 C165 1.175 . S
C1325 C119 1.167 . S
C1339 C199 1.173 . S
C1343 C153 1.167 . S
C1357 C187 1.169 . S
C1361 C131 1.175 . S
C1375 C301 1.176 . S
C1379 C221 1.161 . S
C1393 C255 1.169 . S
C1397 C233 1.175 . S
C1411 C267 1.174 . S
C1415 C289 1.169 . S
C1429 C323 1.160 . S
C1433 C369 1.175 . S
C1447 C357 1.162 . S
C1451 C403 1.175 . S
C1465 C335 1.175 . S
C1469 C391 1.167 . S
C1483 C425 1.165 . S
C1487 C505 1.174 . S
C1501 C459 1.165 . S
C1505 C437 1.176 . S
C1519 C471 1.174 . S
C1523 C493 1.160 . S
C1537 C527 1.169 . S
C1541 C573 1.175 . S
C1555 C561 1.166 . S
C1559 C607 1.173 . S
C1573 C539 1.174 . S
C1577 C595 1.169 . S
