# Generated by pormake.
# Topology wfy, (7)-cn, num edge types: 1
# Building blocks:
#     Node 0, Type 0, BuildingBlock: HICVOG_clean_sbu_0, # of connection points: 7
#     Node 1, Type 0, BuildingBlock: HICVOG_clean_sbu_0, # of connection points: 7
#     Node 2, Type 0, BuildingBlock: HICVOG_clean_sbu_0, # of connection points: 7
#     Node 3, Type 0, BuildingBlock: HICVOG_clean_sbu_0, # of connection points: 7
#     Node 4, Type 0, BuildingBlock: HICVOG_clean_sbu_0, # of connection points: 7
#     Node 5, Type 0, BuildingBlock: HICVOG_clean_sbu_0, # of connection points: 7
#     Node 6, Type 0, BuildingBlock: HICVOG_clean_sbu_0, # of connection points: 7
#     Node 7, Type 0, BuildingBlock: HICVOG_clean_sbu_0, # of connection points: 7
#     Edge 8, Type (0, 0), BuildingBlock: TEMPAE_clean_linker_10, # of connection points: 2
#     Edge 9, Type (0, 0), BuildingBlock: TEMPAE_clean_linker_10, # of connection points: 2
#     Edge 10, Type (0, 0), BuildingBlock: TEMPAE_clean_linker_10, # of connection points: 2
#     Edge 11, Type (0, 0), BuildingBlock: TEMPAE_clean_linker_10, # of connection points: 2
#     Edge 12, Type (0, 0), BuildingBlock: TEMPAE_clean_linker_10, # of connection points: 2
#     Edge 13, Type (0, 0), BuildingBlock: TEMPAE_clean_linker_10, # of connection points: 2
#     Edge 14, Type (0, 0), BuildingBlock: TEMPAE_clean_linker_10, # of connection points: 2
#     Edge 15, Type (0, 0), BuildingBlock: TEMPAE_clean_linker_10, # of connection points: 2
#     Edge 16, Type (0, 0), BuildingBlock: TEMPAE_clean_linker_10, # of connection points: 2
#     Edge 17, Type (0, 0), BuildingBlock: TEMPAE_clean_linker_10, # of connection points: 2
#     Edge 18, Type (0, 0), BuildingBlock: TEMPAE_clean_linker_10, # of connection points: 2
#     Edge 19, Type (0, 0), BuildingBlock: TEMPAE_clean_linker_10, # of connection points: 2
#     Edge 20, Type (0, 0), BuildingBlock: TEMPAE_clean_linker_10, # of connection points: 2
#     Edge 21, Type (0, 0), BuildingBlock: TEMPAE_clean_linker_10, # of connection points: 2
#     Edge 22, Type (0, 0), BuildingBlock: TEMPAE_clean_linker_10, # of connection points: 2
#     Edge 23, Type (0, 0), BuildingBlock: TEMPAE_clean_linker_10, # of connection points: 2
#     Edge 24, Type (0, 0), BuildingBlock: TEMPAE_clean_linker_10, # of connection points: 2
#     Edge 25, Type (0, 0), BuildingBlock: TEMPAE_clean_linker_10, # of connection points: 2
#     Edge 26, Type (0, 0), BuildingBlock: TEMPAE_clean_linker_10, # of connection points: 2
#     Edge 27, Type (0, 0), BuildingBlock: TEMPAE_clean_linker_10, # of connection points: 2
#     Edge 28, Type (0, 0), BuildingBlock: TEMPAE_clean_linker_10, # of connection points: 2
#     Edge 29, Type (0, 0), BuildingBlock: TEMPAE_clean_linker_10, # of connection points: 2
#     Edge 30, Type (0, 0), BuildingBlock: TEMPAE_clean_linker_10, # of connection points: 2
#     Edge 31, Type (0, 0), BuildingBlock: TEMPAE_clean_linker_10, # of connection points: 2
#     Edge 32, Type (0, 0), BuildingBlock: TEMPAE_clean_linker_10, # of connection points: 2
#     Edge 33, Type (0, 0), BuildingBlock: TEMPAE_clean_linker_10, # of connection points: 2
#     Edge 34, Type (0, 0), BuildingBlock: TEMPAE_clean_linker_10, # of connection points: 2
#     Edge 35, Type (0, 0), BuildingBlock: TEMPAE_clean_linker_10, # of connection points: 2
# Relax obj value: 0.129
# Max RMSD: 0.240
# Mean RMSD: 0.240
data_MOF--net-wfy--node1-HICVOG_clean_sbu_0--edge1-TEMPAE_clean_linker_10
_symmetry_space_group_name_H-M    P1
_symmetry_Int_Tables_number       1
_symmetry_cell_setting            triclinic
loop_
_symmetry_equiv_pos_as_xyz
'x, y, z'
_cell_length_a     39.004675
_cell_length_b     38.997819
_cell_length_c     24.985457
_cell_angle_alpha  89.991744
_cell_angle_beta   90.035999
_cell_angle_gamma 90.073607
loop_
_atom_site_label
_atom_site_type_symbol
_atom_site_fract_x
_atom_site_fract_y
_atom_site_fract_z
_atom_type_partial_charge
Zn0 Zn 0.33003 0.09304 0.08756 0.0
C1 C 0.30148 0.18935 0.07206 0.0
N2 N 0.33398 0.19478 0.08817 0.0
C3 C 0.34873 0.16394 0.08266 0.0
N4 N 0.32624 0.14029 0.0653 0.0
N5 N 0.29663 0.15619 0.05748 0.0
C6 C 0.19426 0.15956 0.04333 0.0
O7 O 0.20016 0.13704 0.08134 0.0
O8 O 0.37713 0.07209 0.07662 0.0
Zn9 Zn 0.26238 0.13836 1.00742 0.0
N10 N 0.32261 0.09294 0.16406 0.0
C11 C 0.29834 0.1184 0.24184 0.0
C12 C 0.30397 0.11849 0.18682 0.0
C13 C 0.33604 0.06726 0.19424 0.0
N14 N 0.31106 0.09236 0.27185 0.0
C15 C 0.32995 0.06673 0.24962 0.0
O16 O 0.25074 0.08704 0.01661 0.0
C17 C 0.26609 0.05987 0.03223 0.0
O18 O 0.29511 0.06106 0.05549 0.0
H19 H 0.29363 0.1388 0.16257 0.0
H20 H 0.35021 0.04688 0.17492 0.0
C21 C 0.27721 0.16804 0.90048 0.0
C22 C 0.29497 0.16833 0.85089 0.0
C23 C 0.32423 0.11753 0.87761 0.0
C24 C 0.30663 0.1174 0.92593 0.0
N25 N 0.28341 0.14239 0.93655 0.0
N26 N 0.31798 0.14274 0.84157 0.0
H27 H 0.25921 0.18795 0.91101 0.0
C28 C 0.3953 0.07156 0.03444 0.0
O29 O 0.38436 0.08724 0.99115 0.0
O30 O 0.21739 0.16521 1.00842 0.0
H31 H 0.3116 0.09761 0.95522 0.0
H32 H 0.28354 0.13859 0.26046 0.0
H33 H 0.34281 0.09777 0.86875 0.0
Zn34 Zn 0.13725 0.75559 0.02219 0.0
C35 C 0.16522 0.67033 0.94602 0.0
N36 N 0.19552 0.68634 0.94093 0.0
C37 C 0.18887 0.7185 0.95732 0.0
N38 N 0.15561 0.72191 0.97189 0.0
N39 N 0.1407 0.69177 0.96378 0.0
C40 C 0.06615 0.62407 0.99886 0.0
O41 O 0.07627 0.63742 0.04449 0.0
O42 O 0.16426 0.80063 0.02293 0.0
Zn43 Zn 0.09322 0.68686 0.94212 0.0
N44 N 0.14077 0.73413 0.09287 0.0
C45 C 0.11565 0.69321 0.15156 0.0
C46 C 0.11554 0.71109 0.10342 0.0
C47 C 0.16656 0.73995 0.12889 0.0
N48 N 0.14105 0.69903 0.1875 0.0
C49 C 0.1668 0.72192 0.17823 0.0
O50 O 0.06107 0.72246 0.97185 0.0
C51 C 0.05939 0.75158 0.99468 0.0
O52 O 0.08619 0.76714 0.01138 0.0
H53 H 0.0956 0.70646 0.07423 0.0
H54 H 0.18669 0.75781 0.11853 0.0
C55 C 0.0639 0.68039 0.83899 0.0
C56 C 0.06302 0.68076 0.78282 0.0
C57 C 0.11957 0.7032 0.78173 0.0
C58 C 0.12008 0.7033 0.83752 0.0
N59 N 0.09243 0.69144 0.86504 0.0
N60 N 0.09115 0.69193 0.75567 0.0
H61 H 0.04238 0.6709 0.86199 0.0
C62 C 0.16092 0.82351 0.9869 0.0
O63 O 0.1405 0.81756 0.94611 0.0
O64 O 0.07205 0.63998 0.95542 0.0
H65 H 0.1426 0.71212 0.8585 0.0
H66 H 0.09572 0.67474 0.16033 0.0
H67 H 0.14158 0.71206 0.75929 0.0
Zn68 Zn 0.6877 0.92386 0.08417 0.0
C69 C 0.71668 0.82758 0.06726 0.0
N70 N 0.68471 0.82193 0.08547 0.0
C71 C 0.66963 0.85268 0.08104 0.0
N72 N 0.69141 0.8765 0.06207 0.0
N73 N 0.7209 0.86077 0.05245 0.0
C74 C 0.82297 0.85634 0.03588 0.0
O75 O 0.81775 0.87821 0.07501 0.0
O76 O 0.6407 0.9452 0.07381 0.0
Zn77 Zn 0.75468 0.87889 1.00197 0.0
N78 N 0.69537 0.92401 0.16062 0.0
C79 C 0.71946 0.89849 0.23855 0.0
C80 C 0.71364 0.89824 0.18356 0.0
C81 C 0.68242 0.95002 0.19062 0.0
N82 N 0.70722 0.92485 0.26836 0.0
C83 C 0.68865 0.95067 0.24595 0.0
O84 O 0.76671 0.92994 0.01206 0.0
C85 C 0.75148 0.95699 0.02833 0.0
O86 O 0.72261 0.95574 0.05194 0.0
H87 H 0.7236 0.87766 0.15945 0.0
H88 H 0.66848 0.97053 0.17116 0.0
C89 C 0.73922 0.85007 0.89508 0.0
C90 C 0.72115 0.84985 0.84579 0.0
C91 C 0.6916 0.90023 0.87336 0.0
C92 C 0.70955 0.90034 0.92145 0.0
N93 N 0.73303 0.87548 0.93151 0.0
N94 N 0.69781 0.87521 0.83698 0.0
H95 H 0.75743 0.83022 0.90509 0.0
C96 C 0.62304 0.94773 0.03123 0.0
O97 O 0.63436 0.93381 0.98676 0.0
O98 O 0.79949 0.85169 1.00116 0.0
H99 H 0.70464 0.91998 0.95099 0.0
H100 H 0.73401 0.87816 0.2573 0.0
H101 H 0.67279 0.91986 0.86497 0.0
Zn102 Zn 0.92648 0.32745 0.94442 0.0
C103 C 0.82891 0.30081 0.95895 0.0
N104 N 0.82431 0.33351 0.94313 0.0
C105 C 0.85567 0.34733 0.94767 0.0
N106 N 0.87878 0.32414 0.96418 0.0
N107 N 0.86209 0.29501 0.97257 0.0
C108 C 0.85676 0.19344 0.98914 0.0
O109 O 0.87903 0.19907 0.95069 0.0
O110 O 0.94694 0.37499 0.95424 0.0
Zn111 Zn 0.87904 0.26135 0.0243 0.0
N112 N 0.92821 0.31778 0.86866 0.0
C113 C 0.9059 0.28747 0.79373 0.0
C114 C 0.90566 0.29464 0.84828 0.0
C115 C 0.9515 0.33378 0.83676 0.0
N116 N 0.92947 0.30296 0.76196 0.0
C117 C 0.95248 0.326 0.78183 0.0
O118 O 0.93035 0.24904 0.01702 0.0
C119 C 0.95796 0.26435 1.00317 0.0
O120 O 0.95758 0.29334 0.97983 0.0
H121 H 0.88757 0.28203 0.87418 0.0
H122 H 0.9698 0.35128 0.85451 0.0
C123 C 0.84915 0.27718 0.13073 0.0
C124 C 0.8484 0.2959 0.17945 0.0
C125 C 0.89814 0.32638 0.15109 0.0
C126 C 0.89874 0.30784 0.10362 0.0
N127 N 0.8745 0.28356 0.09422 0.0
N128 N 0.87323 0.31997 0.18755 0.0
H129 H 0.82979 0.25832 0.12119 0.0
C130 C 0.94194 0.39603 0.99228 0.0
O131 O 0.92083 0.38783 0.03119 0.0
O132 O 0.85168 0.21665 0.02412 0.0
H133 H 0.91829 0.31293 0.07399 0.0
H134 H 0.88792 0.26928 0.7769 0.0
H135 H 0.91731 0.34581 0.15896 0.0
Zn136 Zn 0.82543 0.58848 0.57443 0.0
C137 C 0.79742 0.68733 0.56785 0.0
N138 N 0.83009 0.69326 0.58235 0.0
C139 C 0.84469 0.66218 0.57952 0.0
N140 N 0.82202 0.63792 0.56408 0.0
N141 N 0.79252 0.65386 0.55545 0.0
C142 C 0.69315 0.66169 0.53631 0.0
O143 O 0.69918 0.64092 0.5766 0.0
O144 O 0.87354 0.56847 0.56764 0.0
Zn145 Zn 0.76029 0.63763 0.50118 0.0
N146 N 0.8094 0.58017 0.64644 0.0
C147 C 0.76725 0.59132 0.71289 0.0
C148 C 0.78052 0.59686 0.66192 0.0
C149 C 0.82547 0.55768 0.67966 0.0
N150 N 0.78295 0.56859 0.74586 0.0
C151 C 0.81183 0.55154 0.73078 0.0
O152 O 0.74702 0.58661 0.50653 0.0
C153 C 0.76399 0.55882 0.51187 0.0
O154 O 0.79451 0.55864 0.52985 0.0
H155 H 0.76762 0.61385 0.63447 0.0
H156 H 0.84784 0.54398 0.66566 0.0
C157 C 0.77671 0.66755 0.39493 0.0
C158 C 0.7966 0.66938 0.34736 0.0
C159 C 0.83023 0.62269 0.37936 0.0
C160 C 0.81062 0.6211 0.42567 0.0
N161 N 0.78416 0.64324 0.43266 0.0
N162 N 0.82276 0.64653 0.34168 0.0
H163 H 0.75604 0.68523 0.40273 0.0
C164 C 0.8982 0.57804 0.53787 0.0
O165 O 0.89415 0.60462 0.50618 0.0
O166 O 0.71584 0.66521 0.50006 0.0
H167 H 0.81663 0.6025 0.45628 0.0
H168 H 0.74427 0.60443 0.72578 0.0
H169 H 0.85136 0.60517 0.37339 0.0
Zn170 Zn 0.6377 0.25466 0.52199 0.0
C171 C 0.66586 0.16903 0.44575 0.0
N172 N 0.69638 0.18471 0.44178 0.0
C173 C 0.68997 0.21674 0.45902 0.0
N174 N 0.65661 0.22036 0.47304 0.0
N175 N 0.64143 0.19053 0.46347 0.0
C176 C 0.57114 0.1223 0.49552 0.0
O177 O 0.58684 0.13361 0.53859 0.0
O178 O 0.66428 0.29986 0.51962 0.0
Zn179 Zn 0.59461 0.18605 0.43878 0.0
N180 N 0.64095 0.23468 0.5938 0.0
C181 C 0.61486 0.19533 0.65402 0.0
C182 C 0.61538 0.21216 0.605 0.0
C183 C 0.66654 0.24095 0.63002 0.0
N184 N 0.64002 0.20163 0.69016 0.0
C185 C 0.66617 0.22397 0.68032 0.0
O186 O 0.56265 0.22249 0.4655 0.0
C187 C 0.56033 0.25114 0.48954 0.0
O188 O 0.58662 0.2658 0.50981 0.0
H189 H 0.59562 0.20715 0.57564 0.0
H190 H 0.68692 0.25839 0.61912 0.0
C191 C 0.5698 0.17816 0.33192 0.0
C192 C 0.56937 0.18384 0.27647 0.0
C193 C 0.62196 0.21408 0.28341 0.0
C194 C 0.62191 0.20901 0.33861 0.0
N195 N 0.59584 0.19126 0.36181 0.0
N196 N 0.59547 0.20187 0.25373 0.0
H197 H 0.54891 0.16486 0.35151 0.0
C198 C 0.65778 0.3224 0.48411 0.0
O199 O 0.63453 0.31567 0.4475 0.0
O200 O 0.57248 0.13966 0.45252 0.0
H201 H 0.64241 0.21931 0.3627 0.0
H202 H 0.59463 0.1773 0.66334 0.0
H203 H 0.64251 0.22822 0.26445 0.0
Zn204 Zn 0.18745 0.42435 0.59107 0.0
C205 C 0.21591 0.32834 0.57286 0.0
N206 N 0.1836 0.32277 0.58965 0.0
C207 C 0.16881 0.35367 0.58496 0.0
N208 N 0.19107 0.37743 0.56733 0.0
N209 N 0.22056 0.36155 0.55865 0.0
C210 C 0.32529 0.36252 0.48687 0.0
O211 O 0.32038 0.38818 0.45364 0.0
O212 O 0.14033 0.44518 0.58109 0.0
Zn213 Zn 0.25545 0.37939 0.51029 0.0
N214 N 0.19461 0.42363 0.66769 0.0
C215 C 0.21702 0.39689 0.74583 0.0
C216 C 0.21232 0.39744 0.69057 0.0
C217 C 0.18125 0.44931 0.69795 0.0
N218 N 0.20426 0.42286 0.77596 0.0
C219 C 0.1863 0.44915 0.75364 0.0
O220 O 0.26648 0.43077 0.52001 0.0
C221 C 0.25117 0.45785 0.53603 0.0
O222 O 0.22223 0.45659 0.55945 0.0
H223 H 0.22265 0.37711 0.66625 0.0
H224 H 0.1678 0.47012 0.67847 0.0
C225 C 0.242 0.34935 0.40244 0.0
C226 C 0.2248 0.34944 0.3523 0.0
C227 C 0.19654 0.401 0.37782 0.0
C228 C 0.21348 0.40073 0.42672 0.0
N229 N 0.23593 0.3752 0.43825 0.0
N230 N 0.20259 0.37558 0.34212 0.0
H231 H 0.25936 0.32898 0.41351 0.0
C232 C 0.12455 0.45146 0.53769 0.0
O233 O 0.13847 0.44253 0.49191 0.0
O234 O 0.30037 0.3528 0.51613 0.0
H235 H 0.20855 0.42065 0.45578 0.0
H236 H 0.23106 0.37621 0.76458 0.0
H237 H 0.17858 0.42121 0.36827 0.0
Zn238 Zn 0.37856 0.76231 0.52283 0.0
C239 C 0.35158 0.84701 0.44445 0.0
N240 N 0.32113 0.83137 0.43901 0.0
C241 C 0.32721 0.79933 0.45651 0.0
N242 N 0.36036 0.79563 0.47183 0.0
N243 N 0.37566 0.82552 0.46328 0.0
C244 C 0.44666 0.89446 0.49725 0.0
O245 O 0.4329 0.88247 0.54143 0.0
O246 O 0.3517 0.71731 0.52393 0.0
Zn247 Zn 0.4231 0.83029 0.44171 0.0
N248 N 0.37464 0.78423 0.59299 0.0
C249 C 0.39877 0.82616 0.65099 0.0
C250 C 0.39937 0.80786 0.60324 0.0
C251 C 0.34892 0.77816 0.62895 0.0
N252 N 0.37342 0.82011 0.68687 0.0
C253 C 0.34819 0.79659 0.67788 0.0
O254 O 0.45509 0.79517 0.47298 0.0
C255 C 0.45662 0.76626 0.49651 0.0
O256 O 0.42972 0.75082 0.51304 0.0
H257 H 0.41928 0.81266 0.57408 0.0
H258 H 0.32917 0.7598 0.61886 0.0
C259 C 0.45018 0.83694 0.33584 0.0
C260 C 0.45121 0.8314 0.28033 0.0
C261 C 0.39853 0.80113 0.28571 0.0
C262 C 0.39792 0.8062 0.34087 0.0
N263 N 0.42374 0.82387 0.36491 0.0
N264 N 0.4253 0.81344 0.25685 0.0
H265 H 0.47072 0.85037 0.35612 0.0
C266 C 0.35583 0.69403 0.48876 0.0
O267 O 0.37698 0.69957 0.44879 0.0
O268 O 0.44409 0.87736 0.45413 0.0
H269 H 0.37702 0.79609 0.36421 0.0
H270 H 0.41829 0.84512 0.6595 0.0
H271 H 0.37817 0.78706 0.26609 0.0
C272 C 0.37295 0.02229 0.27774 0.0
C273 C 0.34044 0.03729 0.28294 0.0
C274 C 0.38153 0.9927 0.30697 0.0
C275 C 0.35664 0.97747 0.34067 0.0
C276 C 0.32428 0.99335 0.34736 0.0
C277 C 0.31679 0.02332 0.31893 0.0
C278 C 0.4168 0.97729 0.30092 0.0
C279 C 0.29692 0.97784 0.38271 0.0
C280 C 0.35071 0.882 0.36223 0.0
C281 C 0.35902 0.87923 0.41648 0.0
C282 C 0.35236 0.91361 0.33593 0.0
C283 C 0.36245 0.94319 0.36486 0.0
C284 C 0.37266 0.94014 0.4191 0.0
C285 C 0.37043 0.90806 0.44453 0.0
C286 C 0.34075 0.91573 0.27833 0.0
C287 C 0.38458 0.97091 0.45074 0.0
H288 H 0.39152 0.03359 0.25069 0.0
H289 H 0.29169 0.03496 0.32297 0.0
H290 H 0.42871 0.97374 0.34089 0.0
H291 H 0.41484 0.95158 0.28214 0.0
H292 H 0.43395 0.99353 0.27604 0.0
H293 H 0.27349 0.99396 0.38471 0.0
H294 H 0.28964 0.95215 0.36725 0.0
H295 H 0.30691 0.97429 0.42392 0.0
H296 H 0.34156 0.85956 0.34087 0.0
H297 H 0.37591 0.90586 0.48688 0.0
H298 H 0.35982 0.92986 0.25389 0.0
H299 H 0.31623 0.93009 0.27613 0.0
H300 H 0.33676 0.88998 0.26031 0.0
H301 H 0.40974 0.97962 0.43507 0.0
H302 H 0.3874 0.96503 0.494 0.0
H303 H 0.36639 0.99257 0.44636 0.0
C304 C 0.99953 0.68134 0.77036 0.0
C305 C 0.03191 0.6706 0.7529 0.0
C306 C 0.97014 0.6749 0.73968 0.0
C307 C 0.97317 0.65691 0.69067 0.0
C308 C 1.00556 0.64454 0.67412 0.0
C309 C 0.03469 0.65191 0.70516 0.0
C310 C 0.93607 0.68868 0.75861 0.0
C311 C 0.00937 0.62384 0.62348 0.0
C312 C 0.88658 0.62986 0.63638 0.0
C313 C 0.87954 0.65647 0.60057 0.0
C314 C 0.91839 0.62768 0.66244 0.0
C315 C 0.94285 0.65408 0.6549 0.0
C316 C 0.93622 0.68056 0.61754 0.0
C317 C 0.90473 0.68126 0.59058 0.0
C318 C 0.92463 0.5982 0.70031 0.0
C319 C 0.9614 0.70946 0.60864 0.0
H320 H 0.99732 0.69615 0.8069 0.0
H321 H 0.0597 0.64322 0.69202 0.0
H322 H 0.926 0.70741 0.72908 0.0
H323 H 0.91714 0.66753 0.76168 0.0
H324 H 0.93798 0.70154 0.79818 0.0
H325 H 0.03646 0.61672 0.61554 0.0
H326 H 0.99385 0.60006 0.62671 0.0
H327 H 0.99946 0.63843 0.58865 0.0
H328 H 0.86686 0.61155 0.64588 0.0
H329 H 0.89914 0.70216 0.56331 0.0
H330 H 0.91535 0.60527 0.74079 0.0
H331 H 0.95225 0.5917 0.70324 0.0
H332 H 0.91035 0.575 0.68723 0.0
H333 H 0.96387 0.72478 0.64589 0.0
H334 H 0.95333 0.72682 0.57571 0.0
H335 H 0.98714 0.6991 0.59907 0.0
C336 C 0.66762 0.13507 0.36249 0.0
C337 C 0.65892 0.13707 0.41667 0.0
C338 C 0.66626 0.10383 0.33508 0.0
C339 C 0.65638 0.07376 0.36291 0.0
C340 C 0.64605 0.07596 0.41718 0.0
C341 C 0.64772 0.10774 0.44363 0.0
C342 C 0.67789 0.10265 0.27746 0.0
C343 C 0.63455 0.04462 0.44782 0.0
C344 C 0.64593 0.99532 0.27418 0.0
C345 C 0.67844 0.98027 0.27912 0.0
C346 C 0.63743 0.0248 0.30371 0.0
C347 C 0.66239 0.03987 0.33752 0.0
C348 C 0.69483 0.02405 0.34371 0.0
C349 C 0.70225 0.9942 0.31494 0.0
C350 C 0.60212 0.04019 0.29806 0.0
C351 C 0.72224 0.03939 0.37918 0.0
H352 H 0.67679 0.15783 0.34202 0.0
H353 H 0.64204 0.10929 0.48597 0.0
H354 H 0.70264 0.08873 0.27487 0.0
H355 H 0.65905 0.08852 0.25255 0.0
H356 H 0.68144 0.12869 0.26026 0.0
H357 H 0.63246 0.04968 0.49141 0.0
H358 H 0.60909 0.03632 0.43272 0.0
H359 H 0.65256 0.02297 0.44181 0.0
H360 H 0.62725 0.98407 0.24722 0.0
H361 H 0.72736 0.98252 0.31875 0.0
H362 H 0.60401 0.06629 0.28065 0.0
H363 H 0.59009 0.04282 0.33809 0.0
H364 H 0.58511 0.0244 0.27223 0.0
H365 H 0.72926 0.06529 0.36433 0.0
H366 H 0.7458 0.02343 0.38054 0.0
H367 H 0.71241 0.0424 0.42056 0.0
C368 C 0.99393 0.37204 0.75256 0.0
C369 C 0.98019 0.33893 0.74671 0.0
C370 C 0.02271 0.38238 0.72269 0.0
C371 C 0.03837 0.35874 0.68735 0.0
C372 C 0.02335 0.32607 0.67921 0.0
C373 C 0.99428 0.31676 0.70858 0.0
C374 C 0.03725 0.4179 0.73073 0.0
C375 C 0.03927 0.29997 0.64206 0.0
C376 C 0.10827 0.3741 0.58516 0.0
C377 C 0.13676 0.36163 0.61296 0.0
C378 C 0.07623 0.37673 0.61056 0.0
C379 C 0.07279 0.36558 0.66428 0.0
C380 C 0.10214 0.35481 0.69316 0.0
C381 C 0.13376 0.35292 0.66701 0.0
C382 C 0.04575 0.38964 0.57924 0.0
C383 C 0.0997 0.34246 0.75034 0.0
H384 H 0.98253 0.38966 0.78097 0.0
H385 H 0.98371 0.29121 0.70375 0.0
H386 H 0.06126 0.41629 0.7544 0.0
H387 H 0.04377 0.42979 0.69168 0.0
H388 H 0.01907 0.43491 0.75228 0.0
H389 H 0.02328 0.27652 0.63792 0.0
H390 H 0.04314 0.31121 0.60174 0.0
H391 H 0.06482 0.29236 0.65758 0.0
H392 H 0.11071 0.38021 0.54302 0.0
H393 H 0.15597 0.34315 0.68823 0.0
H394 H 0.03448 0.41218 0.5998 0.0
H395 H 0.02558 0.3696 0.57729 0.0
H396 H 0.05274 0.39716 0.53778 0.0
H397 H 0.08538 0.36113 0.77516 0.0
H398 H 0.12536 0.33839 0.76863 0.0
H399 H 0.08544 0.31782 0.75151 0.0
C400 C 0.86134 0.52066 0.77383 0.0
C401 C 0.82591 0.52473 0.76627 0.0
C402 C 0.87415 0.49433 0.80675 0.0
C403 C 0.85092 0.47114 0.83105 0.0
C404 C 0.81515 0.47559 0.82394 0.0
C405 C 0.80315 0.50257 0.79225 0.0
C406 C 0.91238 0.49096 0.81452 0.0
C407 C 0.7894 0.45122 0.84855 0.0
C408 C 0.86702 0.37862 0.86388 0.0
C409 C 0.86435 0.37916 0.91963 0.0
C410 C 0.86681 0.4091 0.83431 0.0
C411 C 0.86315 0.44077 0.86141 0.0
C412 C 0.8635 0.44154 0.91811 0.0
C413 C 0.86347 0.41052 0.94667 0.0
C414 C 0.86653 0.40696 0.77399 0.0
C415 C 0.86085 0.47493 0.94832 0.0
H416 H 0.87896 0.53815 0.75436 0.0
H417 H 0.77578 0.50565 0.78627 0.0
H418 H 0.91863 0.48572 0.85708 0.0
H419 H 0.922 0.46902 0.79063 0.0
H420 H 0.9263 0.51443 0.80162 0.0
H421 H 0.76252 0.45843 0.83918 0.0
H422 H 0.79393 0.42481 0.83361 0.0
H423 H 0.79248 0.45071 0.89267 0.0
H424 H 0.8666 0.35427 0.84306 0.0
H425 H 0.86075 0.41074 0.98984 0.0
H426 H 0.88282 0.42728 0.75619 0.0
H427 H 0.83996 0.41086 0.75928 0.0
H428 H 0.87568 0.38162 0.75953 0.0
H429 H 0.88026 0.4934 0.93333 0.0
H430 H 0.86457 0.47141 0.99205 0.0
H431 H 0.83522 0.48647 0.94161 0.0
C432 C 0.526 0.14092 0.24447 0.0
C433 C 0.53937 0.17431 0.24382 0.0
C434 C 0.49625 0.13278 0.2152 0.0
C435 C 0.47907 0.159 0.18659 0.0
C436 C 0.49302 0.19255 0.18522 0.0
C437 C 0.52331 0.19961 0.21317 0.0
C438 C 0.48287 0.09644 0.21566 0.0
C439 C 0.47529 0.2214 0.15581 0.0
C440 C 0.41056 0.14824 0.08037 0.0
C441 C 0.38108 0.15587 0.10981 0.0
C442 C 0.44269 0.14623 0.10568 0.0
C443 C 0.44512 0.15269 0.16138 0.0
C444 C 0.41498 0.15876 0.19149 0.0
C445 C 0.38334 0.16048 0.16518 0.0
C446 C 0.47419 0.13892 0.07254 0.0
C447 C 0.41638 0.16624 0.25076 0.0
H448 H 0.53882 0.12128 0.26776 0.0
H449 H 0.53372 0.22542 0.21293 0.0
H450 H 0.45781 0.09546 0.23658 0.0
H451 H 0.47853 0.08739 0.17408 0.0
H452 H 0.50081 0.07851 0.2359 0.0
H453 H 0.48984 0.24587 0.15807 0.0
H454 H 0.47182 0.21455 0.11306 0.0
H455 H 0.44942 0.2256 0.17306 0.0
H456 H 0.40871 0.14552 0.03731 0.0
H457 H 0.36046 0.16703 0.18759 0.0
H458 H 0.48603 0.11457 0.08616 0.0
H459 H 0.49358 0.15947 0.07796 0.0
H460 H 0.46821 0.13679 0.02922 0.0
H461 H 0.4322 0.14684 0.27177 0.0
H462 H 0.39046 0.16661 0.2692 0.0
H463 H 0.4286 0.19162 0.25731 0.0
C464 C 0.19768 0.49027 0.82736 0.0
C465 C 0.17546 0.47834 0.78746 0.0
C466 C 0.19031 0.52017 0.85612 0.0
C467 C 0.15953 0.5382 0.84555 0.0
C468 C 0.13573 0.52488 0.80811 0.0
C469 C 0.14417 0.49524 0.7789 0.0
C470 C 0.21647 0.53355 0.89558 0.0
C471 C 0.10205 0.54264 0.7975 0.0
C472 C 0.14397 0.60984 0.94558 0.0
C473 C 0.15856 0.63764 0.91858 0.0
C474 C 0.14162 0.57749 0.92089 0.0
C475 C 0.15498 0.57304 0.86859 0.0
C476 C 0.16864 0.60156 0.84067 0.0
C477 C 0.17032 0.63345 0.86612 0.0
C478 C 0.12591 0.54794 0.95129 0.0
C479 C 0.18359 0.59799 0.78518 0.0
H480 H 0.2218 0.47718 0.83421 0.0
H481 H 0.1265 0.48555 0.74899 0.0
H482 H 0.22695 0.55834 0.88106 0.0
H483 H 0.20426 0.53838 0.93494 0.0
H484 H 0.23813 0.51546 0.90145 0.0
H485 H 0.08463 0.5268 0.7724 0.0
H486 H 0.08898 0.54866 0.8358 0.0
H487 H 0.10676 0.5673 0.77661 0.0
H488 H 0.13591 0.61303 0.98674 0.0
H489 H 0.18188 0.65503 0.84547 0.0
H490 H 0.14311 0.52531 0.95077 0.0
H491 H 0.10156 0.54023 0.93165 0.0
H492 H 0.12037 0.5547 0.99358 0.0
H493 H 0.20675 0.5815 0.78682 0.0
H494 H 0.19093 0.62313 0.76765 0.0
H495 H 0.16493 0.5854 0.75803 0.0
C496 C 0.49635 0.87407 0.2533 0.0
C497 C 0.48123 0.84158 0.24804 0.0
C498 C 0.52597 0.88266 0.22407 0.0
C499 C 0.54112 0.85777 0.1903 0.0
C500 C 0.52532 0.82528 0.18403 0.0
C501 C 0.49532 0.81781 0.21242 0.0
C502 C 0.54129 0.91803 0.22976 0.0
C503 C 0.54078 0.79787 0.14877 0.0
C504 C 0.60866 0.87167 0.08354 0.0
C505 C 0.63801 0.86049 0.11042 0.0
C506 C 0.57706 0.87392 0.11035 0.0
C507 C 0.57499 0.86392 0.16481 0.0
C508 C 0.60512 0.85419 0.19258 0.0
C509 C 0.63625 0.85252 0.16491 0.0
C510 C 0.5457 0.88551 0.07991 0.0
C511 C 0.60408 0.84285 0.25036 0.0
H512 H 0.485 0.89271 0.28015 0.0
H513 H 0.48359 0.79271 0.20839 0.0
H514 H 0.56757 0.91625 0.24652 0.0
H515 H 0.54348 0.93027 0.1898 0.0
H516 H 0.5257 0.93484 0.25611 0.0
H517 H 0.52499 0.77416 0.14771 0.0
H518 H 0.54363 0.80759 0.10728 0.0
H519 H 0.56676 0.79116 0.16356 0.0
H520 H 0.61006 0.87693 0.04103 0.0
H521 H 0.65907 0.84353 0.18537 0.0
H522 H 0.53686 0.91045 0.0962 0.0
H523 H 0.52438 0.86693 0.08479 0.0
H524 H 0.5509 0.88864 0.03649 0.0
H525 H 0.58996 0.86174 0.27509 0.0
H526 H 0.63016 0.83951 0.26748 0.0
H527 H 0.59023 0.81804 0.25333 0.0
C528 C 0.45511 0.06385 1.00014 0.0
C529 C 0.4288 0.05365 0.03482 0.0
C530 C 0.48724 0.04756 1.00112 0.0
C531 C 0.49265 0.01929 0.03577 0.0
C532 C 0.46593 0.00853 0.07031 0.0
C533 C 0.43457 0.02628 0.07016 0.0
C534 C 0.5155 0.06082 0.96541 0.0
C535 C 0.47018 0.97784 0.10661 0.0
C536 C 0.56388 0.95773 0.99555 0.0
C537 C 0.58967 0.96586 0.03248 0.0
C538 C 0.53188 0.97426 0.99715 0.0
C539 C 0.52604 1.00062 0.03512 0.0
C540 C 0.55224 0.0093 0.07203 0.0
C541 C 0.58348 0.99137 0.0709 0.0
C542 C 0.50418 0.96324 0.95856 0.0
C543 C 0.54749 0.03792 0.11212 0.0
H544 H 0.45084 0.08514 0.97307 0.0
H545 H 0.41421 0.01815 0.09684 0.0
H546 H 0.53869 0.06651 0.98962 0.0
H547 H 0.52268 0.04094 0.93574 0.0
H548 H 0.50791 0.08443 0.94355 0.0
H549 H 0.44665 0.97231 0.13014 0.0
H550 H 0.47667 0.95485 0.08247 0.0
H551 H 0.4917 0.98213 0.13486 0.0
H552 H 0.56841 0.93779 0.96617 0.0
H553 H 0.60343 0.9979 0.09939 0.0
H554 H 0.49744 0.98482 0.93165 0.0
H555 H 0.48064 0.95616 0.98094 0.0
H556 H 0.51212 0.94103 0.93365 0.0
H557 H 0.54086 0.06207 0.09101 0.0
H558 H 0.57085 0.04238 0.13665 0.0
H559 H 0.5259 0.03188 0.13939 0.0
C560 C 0.99144 0.43339 0.9662 0.0
C561 C 0.95977 0.42963 0.99216 0.0
C562 C 0.00912 0.46483 0.96684 0.0
C563 C 0.99424 0.49355 0.99259 0.0
C564 C 0.96177 0.49011 0.01751 0.0
C565 C 0.94524 0.45804 0.01785 0.0
C566 C 0.04399 0.46716 0.94078 0.0
C567 C 0.94441 0.52036 0.04364 0.0
C568 C 0.05098 0.56729 0.03975 0.0
C569 C 0.04795 0.59063 0.99736 0.0
C570 C 0.03413 0.53539 0.03825 0.0
C571 C 0.01286 0.52705 0.99409 0.0
C572 C 0.0094 0.55072 0.95144 0.0
C573 C 0.02738 0.58197 0.95323 0.0
C574 C 0.03935 0.51045 0.08374 0.0
C575 C 0.98637 0.54324 0.9042 0.0
H576 H 1.00284 0.41145 0.94641 0.0
H577 H 0.92063 0.45533 0.03753 0.0
H578 H 0.04371 0.48673 0.90857 0.0
H579 H 0.06335 0.47547 0.97067 0.0
H580 H 0.05227 0.44232 0.92332 0.0
H581 H 0.91834 0.51391 0.05846 0.0
H582 H 0.96005 0.52959 0.07783 0.0
H583 H 0.94232 0.54184 0.01469 0.0
H584 H 0.06711 0.57367 0.07367 0.0
H585 H 0.02478 0.59997 0.9204 0.0
H586 H 0.04917 0.48573 0.06802 0.0
H587 H 0.01451 0.50508 0.10365 0.0
H588 H 0.05766 0.52028 0.11419 0.0
H589 H 0.9955 0.52009 0.88277 0.0
H590 H 0.98541 0.56491 0.87537 0.0
H591 H 0.95994 0.53774 0.91825 0.0
C592 C 0.933 0.5261 0.56086 0.0
C593 C 0.93137 0.55947 0.53991 0.0
C594 C 0.964 0.50777 0.56181 0.0
C595 C 0.99434 0.52344 0.54247 0.0
C596 C 0.99302 0.55746 0.52263 0.0
C597 C 0.9615 0.57492 0.521 0.0
C598 C 0.96423 0.47144 0.58281 0.0
C599 C 0.02493 0.57543 0.503 0.0
C600 C 0.08033 0.48635 0.58568 0.0
C601 C 0.0908 0.46897 0.53928 0.0
C602 C 0.04901 0.50408 0.58744 0.0
C603 C 0.0273 0.50401 0.54196 0.0
C604 C 0.03731 0.48567 0.49556 0.0
C605 C 0.0691 0.46872 0.49456 0.0
C606 C 0.03984 0.52382 0.63741 0.0
C607 C 0.0144 0.48394 0.44691 0.0
H608 H 0.90983 0.51398 0.5756 0.0
H609 H 0.96055 0.60086 0.50548 0.0
H610 H 0.97366 0.45374 0.55132 0.0
H611 H 0.98207 0.46932 0.61725 0.0
H612 H 0.9384 0.4628 0.59583 0.0
H613 H 0.02021 0.60286 0.49354 0.0
H614 H 0.04548 0.57385 0.53363 0.0
H615 H 0.03456 0.56254 0.46642 0.0
H616 H 0.09699 0.48677 0.62042 0.0
H617 H 0.07682 0.455 0.45883 0.0
H618 H 0.01289 0.51894 0.64931 0.0
H619 H 0.04231 0.55167 0.62925 0.0
H620 H 0.05684 0.51729 0.67161 0.0
H621 H 0.98876 0.47398 0.45834 0.0
H622 H 0.02513 0.46725 0.41503 0.0
H623 H 0.01063 0.51002 0.43023 0.0
C624 C 0.56289 0.06272 0.53072 0.0
C625 C 0.55267 0.08906 0.49613 0.0
C626 C 0.54637 0.03064 0.53005 0.0
C627 C 0.51785 0.02534 0.49583 0.0
C628 C 0.50692 0.05219 0.46167 0.0
C629 C 0.5249 0.08347 0.46145 0.0
C630 C 0.5598 1.00225 0.56535 0.0
C631 C 0.47594 0.04807 0.4259 0.0
C632 C 0.49016 0.9347 0.45863 0.0
C633 C 0.46476 0.92792 0.49699 0.0
C634 C 0.50801 0.96604 0.45828 0.0
C635 C 0.49938 0.99176 0.49596 0.0
C636 C 0.47317 0.98532 0.53395 0.0
C637 C 0.45671 0.95322 0.53475 0.0
C638 C 0.53649 0.97139 0.41816 0.0
C639 C 0.46218 0.01252 0.57334 0.0
H640 H 0.58451 0.06685 0.55725 0.0
H641 H 0.51674 0.10388 0.43488 0.0
H642 H 0.53994 0.99458 0.59475 0.0
H643 H 0.56576 0.97934 0.54072 0.0
H644 H 0.5833 0.00994 0.58749 0.0
H645 H 0.4699 0.0719 0.40345 0.0
H646 H 0.48028 0.02712 0.3967 0.0
H647 H 0.45326 0.0408 0.45022 0.0
H648 H 0.49664 0.91513 0.42952 0.0
H649 H 0.43687 0.94823 0.56411 0.0
H650 H 0.56069 0.97783 0.43932 0.0
H651 H 0.53036 0.99331 0.39158 0.0
H652 H 0.5409 0.94836 0.39292 0.0
H653 H 0.48387 0.01925 0.60008 0.0
H654 H 0.44021 1.00409 0.5984 0.0
H655 H 0.45476 0.0362 0.5516 0.0
C656 C 0.26717 0.31813 0.62959 0.0
C657 C 0.24309 0.30528 0.59299 0.0
C658 C 0.28122 0.29685 0.66956 0.0
C659 C 0.27152 0.2618 0.67199 0.0
C660 C 0.25089 0.24795 0.63059 0.0
C661 C 0.23678 0.2699 0.59182 0.0
C662 C 0.30331 0.31283 0.71239 0.0
C663 C 0.24072 0.21059 0.6303 0.0
C664 C 0.31411 0.19788 0.76643 0.0
C665 C 0.28983 0.1949 0.808 0.0
C666 C 0.30913 0.22022 0.7229 0.0
C667 C 0.27921 0.24055 0.7205 0.0
C668 C 0.25517 0.23878 0.76304 0.0
C669 C 0.26059 0.21591 0.80593 0.0
C670 C 0.33541 0.22124 0.67856 0.0
C671 C 0.22304 0.26036 0.76242 0.0
H672 H 0.27202 0.34549 0.63099 0.0
H673 H 0.21802 0.2599 0.56379 0.0
H674 H 0.2874 0.31767 0.74842 0.0
H675 H 0.32446 0.29545 0.7243 0.0
H676 H 0.31441 0.33765 0.69904 0.0
H677 H 0.22894 0.20286 0.59163 0.0
H678 H 0.2633 0.19404 0.63804 0.0
H679 H 0.22187 0.20581 0.66271 0.0
H680 H 0.33704 0.18223 0.76725 0.0
H681 H 0.24122 0.21394 0.83672 0.0
H682 H 0.3434 0.24806 0.67057 0.0
H683 H 0.32392 0.21115 0.6411 0.0
H684 H 0.35856 0.20585 0.68817 0.0
H685 H 0.22968 0.28775 0.75619 0.0
H686 H 0.20815 0.25801 0.80013 0.0
H687 H 0.2064 0.25238 0.72859 0.0
C688 C 0.19797 0.70129 0.26037 0.0
C689 C 0.19357 0.72672 0.22084 0.0
C690 C 0.22058 0.70586 0.30373 0.0
C691 C 0.23957 0.73663 0.3081 0.0
C692 C 0.23625 0.76195 0.2676 0.0
C693 C 0.21327 0.75682 0.22477 0.0
C694 C 0.22338 0.67814 0.34573 0.0
C695 C 0.25632 0.79506 0.27037 0.0
C696 C 0.26948 0.77595 0.43901 0.0
C697 C 0.30508 0.7716 0.43558 0.0
C698 C 0.24741 0.76207 0.40011 0.0
C699 C 0.26132 0.74359 0.35639 0.0
C700 C 0.29681 0.73576 0.35626 0.0
C701 C 0.31824 0.7498 0.39602 0.0
C702 C 0.20966 0.77032 0.40292 0.0
C703 C 0.31292 0.71587 0.31105 0.0
H704 H 0.18328 0.67773 0.25797 0.0
H705 H 0.21005 0.77704 0.19555 0.0
H706 H 0.25064 0.67124 0.35245 0.0
H707 H 0.21318 0.68778 0.38433 0.0
H708 H 0.20899 0.65461 0.33451 0.0
H709 H 0.25254 0.81126 0.23427 0.0
H710 H 0.24828 0.80993 0.30608 0.0
H711 H 0.28409 0.78956 0.27475 0.0
H712 H 0.25922 0.79319 0.46904 0.0
H713 H 0.34574 0.74693 0.39225 0.0
H714 H 0.19401 0.74726 0.3939 0.0
H715 H 0.20339 0.79005 0.37246 0.0
H716 H 0.20218 0.78029 0.44289 0.0
H717 H 0.29623 0.69436 0.29813 0.0
H718 H 0.33839 0.70547 0.32257 0.0
H719 H 0.31649 0.73317 0.27622 0.0
C720 C 0.77529 0.74568 0.58548 0.0
C721 C 0.77078 0.71015 0.59026 0.0
C722 C 0.76172 0.76834 0.62377 0.0
C723 C 0.74349 0.7551 0.66828 0.0
C724 C 0.73576 0.7196 0.67009 0.0
C725 C 0.74951 0.69757 0.63103 0.0
C726 C 0.76987 0.80607 0.61927 0.0
C727 C 0.71619 0.7042 0.71631 0.0
C728 C 0.75678 0.80437 0.79872 0.0
C729 C 0.72635 0.82344 0.80285 0.0
C730 C 0.76214 0.78143 0.75598 0.0
C731 C 0.7367 0.77752 0.71578 0.0
C732 C 0.70572 0.79608 0.72012 0.0
C733 C 0.70093 0.81866 0.76341 0.0
C734 C 0.79551 0.7619 0.75317 0.0
C735 C 0.67793 0.79272 0.67829 0.0
H736 H 0.79218 0.75549 0.55458 0.0
H737 H 0.74675 0.67018 0.63612 0.0
H738 H 0.74687 0.82176 0.62815 0.0
H739 H 0.78986 0.8129 0.64906 0.0
H740 H 0.77948 0.81294 0.57881 0.0
H741 H 0.70676 0.67799 0.70686 0.0
H742 H 0.73333 0.70255 0.75169 0.0
H743 H 0.69403 0.72047 0.72746 0.0
H744 H 0.77703 0.80798 0.82779 0.0
H745 H 0.67717 0.83293 0.76593 0.0
H746 H 0.80997 0.76975 0.71695 0.0
H747 H 0.79036 0.734 0.74974 0.0
H748 H 0.81194 0.76637 0.78884 0.0
H749 H 0.68753 0.8024 0.63931 0.0
H750 H 0.65445 0.80724 0.68909 0.0
H751 H 0.67097 0.76538 0.6725 0.0
C752 C 0.81782 0.31596 0.26243 0.0
C753 C 0.82209 0.29067 0.22263 0.0
C754 C 0.79558 0.31113 0.30613 0.0
C755 C 0.77677 0.28026 0.31053 0.0
C756 C 0.77993 0.25507 0.26982 0.0
C757 C 0.80261 0.26043 0.22671 0.0
C758 C 0.79297 0.33867 0.34842 0.0
C759 C 0.75996 0.2219 0.27259 0.0
C760 C 0.74762 0.24028 0.44125 0.0
C761 C 0.71201 0.24456 0.43818 0.0
C762 C 0.76948 0.25442 0.40233 0.0
C763 C 0.75531 0.27309 0.35898 0.0
C764 C 0.71982 0.28087 0.35929 0.0
C765 C 0.69861 0.26658 0.39906 0.0
C766 C 0.80726 0.24625 0.40468 0.0
C767 C 0.70343 0.30095 0.31449 0.0
H768 H 0.83231 0.33963 0.25999 0.0
H769 H 0.80567 0.2403 0.19735 0.0
H770 H 0.76575 0.34556 0.35546 0.0
H771 H 0.80334 0.32888 0.38685 0.0
H772 H 0.80731 0.36225 0.33732 0.0
H773 H 0.76356 0.20583 0.23632 0.0
H774 H 0.76825 0.20693 0.30807 0.0
H775 H 0.7322 0.22731 0.27736 0.0
H776 H 0.75806 0.2229 0.47098 0.0
H777 H 0.67109 0.2694 0.39558 0.0
H778 H 0.82281 0.26937 0.39564 0.0
H779 H 0.81341 0.2266 0.37404 0.0
H780 H 0.81496 0.23618 0.44451 0.0
H781 H 0.67805 0.31134 0.32647 0.0
H782 H 0.69959 0.28378 0.27957 0.0
H783 H 0.72004 0.32249 0.30149 0.0
C784 C 0.76054 0.71452 0.29918 0.0
C785 C 0.79063 0.69481 0.30296 0.0
C786 C 0.75494 0.73689 0.25571 0.0
C787 C 0.77966 0.73947 0.21425 0.0
C788 C 0.81024 0.72026 0.21804 0.0
C789 C 0.81538 0.69842 0.26214 0.0
C790 C 0.72209 0.75732 0.2536 0.0
C791 C 0.83723 0.72215 0.1748 0.0
C792 C 0.73894 0.76942 0.0845 0.0
C793 C 0.74421 0.80494 0.0873 0.0
C794 C 0.75294 0.74727 0.12312 0.0
C795 C 0.77243 0.76104 0.16593 0.0
C796 C 0.78113 0.79635 0.16527 0.0
C797 C 0.76702 0.81784 0.12573 0.0
C798 C 0.74381 0.70967 0.1211 0.0
C799 C 0.80205 0.81231 0.20955 0.0
H800 H 0.74079 0.71217 0.32926 0.0
H801 H 0.83893 0.68378 0.26408 0.0
H802 H 0.72793 0.785 0.24853 0.0
H803 H 0.70662 0.7492 0.21852 0.0
H804 H 0.70632 0.75404 0.29026 0.0
H805 H 0.86049 0.70707 0.18499 0.0
H806 H 0.82655 0.71222 0.13665 0.0
H807 H 0.8449 0.74918 0.1677 0.0
H808 H 0.72097 0.75937 0.05529 0.0
H809 H 0.77065 0.84527 0.12895 0.0
H810 H 0.72425 0.70401 0.15211 0.0
H811 H 0.7666 0.69361 0.12982 0.0
H812 H 0.73326 0.70215 0.08149 0.0
H813 H 0.78542 0.81621 0.24505 0.0
H814 H 0.81268 0.8376 0.19746 0.0
H815 H 0.82349 0.79536 0.22171 0.0
C816 C 0.81688 0.25065 0.90038 0.0
C817 C 0.80491 0.27464 0.93772 0.0
C818 C 0.795 0.23707 0.86078 0.0
C819 C 0.7602 0.24749 0.85893 0.0
C820 C 0.74718 0.26844 0.90055 0.0
C821 C 0.76971 0.28185 0.93922 0.0
C822 C 0.81015 0.21453 0.81784 0.0
C823 C 0.7101 0.27945 0.90137 0.0
C824 C 0.71405 0.25824 0.72497 0.0
C825 C 0.69267 0.2292 0.72336 0.0
C826 C 0.73694 0.26375 0.76787 0.0
C827 C 0.7384 0.23998 0.81085 0.0
C828 C 0.71761 0.21029 0.809 0.0
C829 C 0.69522 0.20525 0.76549 0.0
C830 C 0.75898 0.29562 0.7679 0.0
C831 C 0.71826 0.18429 0.8538 0.0
H832 H 0.84402 0.24531 0.89824 0.0
H833 H 0.76034 0.30067 0.96762 0.0
H834 H 0.79232 0.19351 0.80684 0.0
H835 H 0.81473 0.23015 0.78139 0.0
H836 H 0.83497 0.20321 0.83062 0.0
H837 H 0.70294 0.29151 0.94006 0.0
H838 H 0.70557 0.29832 0.86888 0.0
H839 H 0.69294 0.25724 0.89406 0.0
H840 H 0.71237 0.27738 0.69376 0.0
H841 H 0.67925 0.1825 0.76505 0.0
H842 H 0.7863 0.28863 0.7737 0.0
H843 H 0.75152 0.31243 0.80176 0.0
H844 H 0.75658 0.31045 0.73012 0.0
H845 H 0.74493 0.17581 0.86172 0.0
H846 H 0.70232 0.16139 0.84477 0.0
H847 H 0.70858 0.19624 0.89115 0.0
C848 C 0.25905 0.30192 0.30725 0.0
C849 C 0.22965 0.32266 0.30974 0.0
C850 C 0.26431 0.27906 0.26429 0.0
C851 C 0.23989 0.27701 0.22224 0.0
C852 C 0.20977 0.297 0.22522 0.0
C853 C 0.205 0.31938 0.26873 0.0
C854 C 0.29664 0.25782 0.26306 0.0
C855 C 0.18304 0.29562 0.18149 0.0
C856 C 0.2807 0.24771 0.09217 0.0
C857 C 0.27464 0.21228 0.09364 0.0
C858 C 0.26716 0.26961 0.1315 0.0
C859 C 0.24725 0.25569 0.17369 0.0
C860 C 0.23783 0.22058 0.1718 0.0
C861 C 0.25151 0.19933 0.13155 0.0
C862 C 0.27708 0.30703 0.13076 0.0
C863 C 0.21638 0.20449 0.21531 0.0
H864 H 0.27865 0.30419 0.33769 0.0
H865 H 0.18195 0.33483 0.27 0.0
H866 H 0.2902 0.23033 0.2573 0.0
H867 H 0.3128 0.26581 0.22869 0.0
H868 H 0.31194 0.26049 0.30035 0.0
H869 H 0.15979 0.31069 0.19166 0.0
H870 H 0.194 0.30591 0.1438 0.0
H871 H 0.17531 0.2687 0.1736 0.0
H872 H 0.29885 0.25781 0.06331 0.0
H873 H 0.24713 0.17197 0.13365 0.0
H874 H 0.29622 0.31201 0.16272 0.0
H875 H 0.25447 0.32344 0.13892 0.0
H876 H 0.28841 0.31475 0.09179 0.0
H877 H 0.2328 0.19966 0.25081 0.0
H878 H 0.20517 0.17965 0.20224 0.0
H879 H 0.19533 0.22178 0.2279 0.0
C880 C 0.1965 0.76641 0.89358 0.0
C881 C 0.21022 0.74629 0.93487 0.0
C882 C 0.21773 0.78055 0.85371 0.0
C883 C 0.25352 0.77439 0.85529 0.0
C884 C 0.26776 0.75748 0.90032 0.0
C885 C 0.24591 0.7435 0.93941 0.0
C886 C 0.20127 0.7987 0.80701 0.0
C887 C 0.3058 0.75096 0.90452 0.0
C888 C 0.30309 0.76066 0.72536 0.0
C889 C 0.32144 0.79152 0.72028 0.0
C890 C 0.28012 0.75533 0.76808 0.0
C891 C 0.27542 0.78128 0.80723 0.0
C892 C 0.29305 0.81277 0.80166 0.0
C893 C 0.31574 0.81748 0.75848 0.0
C894 C 0.26156 0.72141 0.77219 0.0
C895 C 0.28869 0.84118 0.84218 0.0
H896 H 0.16892 0.76776 0.88878 0.0
H897 H 0.25657 0.72744 0.97069 0.0
H898 H 0.217 0.82082 0.7937 0.0
H899 H 0.19914 0.78061 0.77287 0.0
H900 H 0.17512 0.80795 0.81709 0.0
H901 H 0.31329 0.74215 0.94517 0.0
H902 H 0.31325 0.73091 0.87524 0.0
H903 H 0.32052 0.77449 0.89472 0.0
H904 H 0.30741 0.74005 0.69717 0.0
H905 H 0.32941 0.84159 0.75511 0.0
H906 H 0.23352 0.72572 0.77558 0.0
H907 H 0.26989 0.70773 0.8089 0.0
H908 H 0.26644 0.70462 0.73711 0.0
H909 H 0.2611 0.84704 0.84791 0.0
H910 H 0.30217 0.86506 0.83011 0.0
H911 H 0.29892 0.83277 0.88149 0.0
C912 C 0.21485 0.02137 0.01798 0.0
C913 C 0.25045 0.02553 0.02281 0.0
C914 C 0.20017 0.98855 0.01157 0.0
C915 C 0.22162 0.95923 1.00859 0.0
C916 C 0.25761 0.96346 0.01199 0.0
C917 C 0.2715 0.99638 0.01966 0.0
C918 C 0.16166 0.98515 1.00905 0.0
C919 C 0.28153 0.93316 1.00769 0.0
C920 C 0.18583 0.87073 0.04305 0.0
C921 C 0.17792 0.85746 0.99235 0.0
C922 C 0.19961 0.90392 0.04891 0.0
C923 C 0.20652 0.92406 1.00288 0.0
C924 C 0.19946 0.91033 0.9515 0.0
C925 C 0.18485 0.87743 0.9469 0.0
C926 C 0.20629 0.91763 0.10446 0.0
C927 C 0.20741 0.93037 0.90131 0.0
H928 H 0.19839 0.04369 0.0206 0.0
H929 H 0.29907 0.99932 0.02276 0.0
H930 H 0.15396 0.97273 0.97095 0.0
H931 H 0.15257 0.96844 0.0421 0.0
H932 H 0.14852 0.01033 0.01209 0.0
H933 H 0.30893 0.94094 1.00844 0.0
H934 H 0.27687 0.91515 0.04127 0.0
H935 H 0.2765 0.91894 0.97001 0.0
H936 H 0.18031 0.85554 0.07836 0.0
H937 H 0.17906 0.86718 0.90757 0.0
H938 H 0.19181 0.94179 0.11054 0.0
H939 H 0.23389 0.92378 0.10924 0.0
H940 H 0.1988 0.8991 0.13616 0.0
H941 H 0.1924 0.95451 0.90079 0.0
H942 H 0.20147 0.91564 0.86439 0.0
H943 H 0.23494 0.93756 0.90069 0.0
C944 C 0.99585 0.74578 1.00601 0.0
C945 C 0.02488 0.76704 1.00264 0.0
C946 C 0.96284 0.75949 0.0129 0.0
C947 C 0.95841 0.7955 0.01514 0.0
C948 C 0.98759 0.81715 0.01163 0.0
C949 C 0.02051 0.80266 1.00615 0.0
C950 C 0.93267 0.73538 0.0179 0.0
C951 C 0.98397 0.85567 0.01276 0.0
C952 C 0.86974 0.83043 0.98018 0.0
C953 C 0.85675 0.83912 0.03071 0.0
C954 C 0.90287 0.81661 0.9745 0.0
C955 C 0.9232 0.8104 0.02058 0.0
C956 C 0.90969 0.81816 0.07183 0.0
C957 C 0.87688 0.83286 0.0762 0.0
C958 C 0.91638 0.80925 0.91907 0.0
C959 C 0.9299 0.81091 0.12211 0.0
H960 H 0.99899 0.71819 1.0039 0.0
H961 H 0.04275 0.81926 1.00331 0.0
H962 H 0.9185 0.74067 0.0555 0.0
H963 H 0.91457 0.73957 0.98429 0.0
H964 H 0.94059 0.70803 0.0178 0.0
H965 H 0.00905 0.86898 1.00884 0.0
H966 H 0.96698 0.86413 0.97966 0.0
H967 H 0.97178 0.86382 0.05077 0.0
H968 H 0.8544 0.83546 0.94485 0.0
H969 H 0.86682 0.83926 0.1154 0.0
H970 H 0.9227 0.78164 0.91519 0.0
H971 H 0.94042 0.82386 0.91225 0.0
H972 H 0.89768 0.81613 0.88729 0.0
H973 H 0.93731 0.78345 0.12341 0.0
H974 H 0.91522 0.81707 0.15896 0.0
H975 H 0.95392 0.82616 0.12213 0.0
C976 C 0.74604 0.02025 0.01411 0.0
C977 C 0.76716 0.99131 0.01939 0.0
C978 C 0.75995 0.05321 1.00711 0.0
C979 C 0.79599 0.05765 1.0068 0.0
C980 C 0.8175 0.02851 0.01197 0.0
C981 C 0.80284 0.99563 0.01746 0.0
C982 C 0.73603 0.08332 1.00023 0.0
C983 C 0.85602 0.03217 0.01291 0.0
C984 C 0.83461 0.13928 0.94765 0.0
C985 C 0.83967 0.15951 0.99341 0.0
C986 C 0.81998 0.10635 0.95128 0.0
C987 C 0.81103 0.09287 1.00208 0.0
C988 C 0.81606 0.11327 0.04842 0.0
C989 C 0.82986 0.14649 0.04344 0.0
C990 C 0.81405 0.08602 0.9007 0.0
C991 C 0.80739 0.09978 0.10342 0.0
H992 H 0.71842 0.0171 0.01499 0.0
H993 H 0.81929 0.97342 0.0218 0.0
H994 H 0.73924 0.10146 0.03405 0.0
H995 H 0.74241 0.09746 0.96299 0.0
H996 H 0.7087 0.07532 0.9984 0.0
H997 H 0.86919 1.00709 0.01739 0.0
H998 H 0.86503 0.0445 0.97547 0.0
H999 H 0.86377 0.04905 0.04658 0.0
H1000 H 0.84189 0.14934 0.90882 0.0
H1001 H 0.83396 0.1619 0.079 0.0
H1002 H 0.78665 0.07859 0.89765 0.0
H1003 H 0.82924 0.06201 0.90184 0.0
H1004 H 0.82122 0.10063 0.8642 0.0
H1005 H 0.77969 0.0935 0.10574 0.0
H1006 H 0.8136 0.11849 0.13554 0.0
H1007 H 0.82174 0.07572 0.11113 0.0
C1008 C 0.02083 0.26948 0.02129 0.0
C1009 C 0.99195 0.24846 0.01383 0.0
C1010 C 0.05367 0.25547 0.02863 0.0
C1011 C 0.0581 0.21945 0.02714 0.0
C1012 C 0.02899 0.19802 0.02014 0.0
C1013 C 0.9962 0.21276 0.01427 0.0
C1014 C 0.08371 0.27929 0.03743 0.0
C1015 C 0.03264 0.15954 0.01736 0.0
C1016 C 0.14725 0.18701 0.98983 0.0
C1017 C 0.16016 0.17631 0.03949 0.0
C1018 C 0.11395 0.20058 0.98517 0.0
C1019 C 0.09331 0.20441 0.03149 0.0
C1020 C 0.10663 0.19449 0.08196 0.0
C1021 C 0.13968 0.18017 0.08524 0.0
C1022 C 0.10067 0.21036 0.9305 0.0
C1023 C 0.08602 0.19911 0.13256 0.0
H1024 H 0.01773 0.29711 0.02153 0.0
H1025 H 0.97405 0.19638 1.00819 0.0
H1026 H 0.09772 0.27196 0.07436 0.0
H1027 H 0.10198 0.27707 1.00361 0.0
H1028 H 0.07567 0.30652 0.04094 0.0
H1029 H 1.00755 0.14641 0.01229 0.0
H1030 H 0.04946 0.15254 0.98328 0.0
H1031 H 0.04503 0.1498 0.05431 0.0
H1032 H 0.16284 0.18385 0.95427 0.0
H1033 H 0.14962 0.1722 0.12381 0.0
H1034 H 0.09442 0.23809 0.92952 0.0
H1035 H 0.07664 0.19613 0.92182 0.0
H1036 H 0.1195 0.20488 0.89828 0.0
H1037 H 0.07865 0.22643 0.13717 0.0
H1038 H 0.1004 0.19101 0.16881 0.0
H1039 H 0.06198 0.18398 0.13013 0.0
C1040 C 0.68881 0.36949 0.53274 0.0
C1041 C 0.67475 0.35654 0.48517 0.0
C1042 C 0.70279 0.40277 0.53496 0.0
C1043 C 0.70341 0.4234 0.48821 0.0
C1044 C 0.69009 0.41004 0.43973 0.0
C1045 C 0.67564 0.37696 0.43893 0.0
C1046 C 0.71643 0.41604 0.5876 0.0
C1047 C 0.69107 0.43072 0.38867 0.0
C1048 C 0.71218 0.5204 0.50591 0.0
C1049 C 0.74767 0.52508 0.50051 0.0
C1050 C 0.69734 0.48754 0.50138 0.0
C1051 C 0.71837 0.45877 0.49008 0.0
C1052 C 0.75399 0.46365 0.48233 0.0
C1053 C 0.76821 0.49658 0.48818 0.0
C1054 C 0.65931 0.48342 0.51054 0.0
C1055 C 0.77729 0.43395 0.46899 0.0
H1056 H 0.68806 0.35395 0.56869 0.0
H1057 H 0.66512 0.367 0.40188 0.0
H1058 H 0.74398 0.42267 0.5836 0.0
H1059 H 0.7027 0.43986 0.59894 0.0
H1060 H 0.71357 0.39707 0.62047 0.0
H1061 H 0.68052 0.41631 0.354 0.0
H1062 H 0.6761 0.45466 0.3937 0.0
H1063 H 0.71786 0.43828 0.37943 0.0
H1064 H 0.69618 0.54219 0.51585 0.0
H1065 H 0.79564 0.49998 0.48354 0.0
H1066 H 0.65488 0.46674 0.54586 0.0
H1067 H 0.64723 0.47066 0.47562 0.0
H1068 H 0.64633 0.50837 0.5174 0.0
H1069 H 0.77793 0.41566 0.50298 0.0
H1070 H 0.80393 0.44238 0.46038 0.0
H1071 H 0.76731 0.41981 0.43371 0.0
C1072 C 0.38547 0.35503 0.45392 0.0
C1073 C 0.35963 0.34599 0.49042 0.0
C1074 C 0.41819 0.34007 0.45629 0.0
C1075 C 0.42558 0.31552 0.49643 0.0
C1076 C 0.39976 0.30651 0.53385 0.0
C1077 C 0.36705 0.32171 0.53026 0.0
C1078 C 0.44474 0.35023 0.41524 0.0
C1079 C 0.40656 0.28056 0.57738 0.0
C1080 C 0.49783 0.253 0.46566 0.0
C1081 C 0.52583 0.26756 0.49298 0.0
C1082 C 0.46511 0.26797 0.46734 0.0
C1083 C 0.45987 0.29829 0.49735 0.0
C1084 C 0.48779 0.31291 0.52576 0.0
C1085 C 0.52044 0.29748 0.52309 0.0
C1086 C 0.43625 0.25162 0.43603 0.0
C1087 C 0.48325 0.34511 0.55847 0.0
H1088 H 0.38008 0.37372 0.42294 0.0
H1089 H 0.34736 0.31464 0.55882 0.0
H1090 H 0.46811 0.36 0.43549 0.0
H1091 H 0.45239 0.32746 0.39147 0.0
H1092 H 0.43523 0.37028 0.38736 0.0
H1093 H 0.38477 0.27832 0.60578 0.0
H1094 H 0.41126 0.25503 0.55924 0.0
H1095 H 0.42994 0.28769 0.60012 0.0
H1096 H 0.50148 0.22993 0.44217 0.0
H1097 H 0.54173 0.3089 0.54457 0.0
H1098 H 0.42684 0.26973 0.4051 0.0
H1099 H 0.41439 0.24584 0.46295 0.0
H1100 H 0.44425 0.22751 0.41595 0.0
H1101 H 0.47586 0.36668 0.53193 0.0
H1102 H 0.50697 0.35233 0.58039 0.0
H1103 H 0.4622 0.34158 0.58782 0.0
C1104 C 0.24558 0.52125 0.52301 0.0
C1105 C 0.26671 0.49219 0.5265 0.0
C1106 C 0.25939 0.55415 0.515 0.0
C1107 C 0.29537 0.55844 0.51168 0.0
C1108 C 0.3169 0.5292 0.51507 0.0
C1109 C 0.3023 0.49638 0.52174 0.0
C1110 C 0.23539 0.58437 0.51018 0.0
C1111 C 0.35541 0.53269 0.51272 0.0
C1112 C 0.33217 0.6399 0.44922 0.0
C1113 C 0.33889 0.66012 0.49447 0.0
C1114 C 0.31757 0.60703 0.45412 0.0
C1115 C 0.31038 0.59358 0.50563 0.0
C1116 C 0.31711 0.61397 0.55146 0.0
C1117 C 0.33083 0.64713 0.54528 0.0
C1118 C 0.30977 0.58672 0.40414 0.0
C1119 C 0.31035 0.60052 0.60713 0.0
H1120 H 0.21801 0.51824 0.52603 0.0
H1121 H 0.3188 0.47411 0.52459 0.0
H1122 H 0.23995 0.60256 0.54357 0.0
H1123 H 0.24045 0.59842 0.47236 0.0
H1124 H 0.20801 0.57652 0.51086 0.0
H1125 H 0.36861 0.50756 0.51619 0.0
H1126 H 0.36314 0.54491 0.4745 0.0
H1127 H 0.3644 0.5496 0.5456 0.0
H1128 H 0.33809 0.64995 0.40982 0.0
H1129 H 0.33621 0.66254 0.58041 0.0
H1130 H 0.28226 0.57944 0.40345 0.0
H1131 H 0.32484 0.56263 0.404 0.0
H1132 H 0.31572 0.60129 0.36707 0.0
H1133 H 0.28275 0.59436 0.61183 0.0
H1134 H 0.31775 0.61921 0.63866 0.0
H1135 H 0.32485 0.57641 0.61362 0.0
C1136 C 0.64552 0.68656 0.48119 0.0
C1137 C 0.6593 0.67881 0.5316 0.0
C1138 C 0.61233 0.70032 0.47609 0.0
C1139 C 0.59274 0.70739 0.52258 0.0
C1140 C 0.60702 0.70055 0.57367 0.0
C1141 C 0.6399 0.68592 0.57752 0.0
C1142 C 0.598 0.70675 0.42085 0.0
C1143 C 0.58757 0.7087 0.6243 0.0
C1144 C 0.52021 0.77201 0.50716 0.0
C1145 C 0.49108 0.75081 0.50507 0.0
C1146 C 0.55322 0.75829 0.51403 0.0
C1147 C 0.55753 0.72233 0.51768 0.0
C1148 C 0.52823 0.70073 0.51573 0.0
C1149 C 0.49533 0.71525 0.51011 0.0
C1150 C 0.58354 0.78235 0.51725 0.0
C1151 C 0.53172 0.66224 0.51854 0.0
H1152 H 0.6603 0.68088 0.44555 0.0
H1153 H 0.65056 0.68026 0.61662 0.0
H1154 H 0.5738 0.69214 0.4155 0.0
H1155 H 0.59174 0.73431 0.416 0.0
H1156 H 0.61617 0.69923 0.38872 0.0
H1157 H 0.60277 0.70306 0.66088 0.0
H1158 H 0.5803 0.7362 0.62475 0.0
H1159 H 0.5635 0.69356 0.62572 0.0
H1160 H 0.51718 0.79957 0.50388 0.0
H1161 H 0.47302 0.6987 0.50829 0.0
H1162 H 0.60116 0.77759 0.48324 0.0
H1163 H 0.59819 0.77756 0.55459 0.0
H1164 H 0.57571 0.80973 0.51641 0.0
H1165 H 0.54808 0.65308 0.48515 0.0
H1166 H 0.50653 0.64898 0.51626 0.0
H1167 H 0.54456 0.65475 0.55639 0.0
loop_
_geom_bond_atom_site_label_1
_geom_bond_atom_site_label_2
_geom_bond_distance
_geom_bond_site_symmetry_2
_ccdc_geom_bond_type
Zn0 N4 2.020 . S
Zn0 O8 2.019 . S
Zn0 N10 2.119 . S
Zn0 O18 1.975 . S
C1 N2 1.334 . S
C1 N5 1.336 . S
N2 C1 1.334 . S
N2 C3 1.334 . S
C3 N2 1.334 . S
C3 N4 1.336 . S
N4 Zn0 2.020 . S
N4 C3 1.336 . S
N4 N5 1.354 . S
N5 C1 1.336 . S
N5 N4 1.354 . S
N5 Zn9 2.020 . S
C6 O7 1.244 . S
C6 O30 1.257 . S
O7 C6 1.244 . S
O8 Zn0 2.019 . S
O8 C28 1.257 . S
Zn9 N5 2.020 . S
Zn9 O16 1.975 . S
Zn9 N25 2.119 1_554 S
Zn9 O30 2.019 . S
N10 Zn0 2.119 . S
N10 C12 1.334 . S
N10 C13 1.328 . S
C11 C12 1.391 . S
C11 N14 1.329 1_545 S
C11 H32 0.930 . S
C12 N10 1.334 . S
C12 C11 1.391 . S
C12 H19 0.930 . S
C13 N10 1.328 . S
C13 C15 1.392 1_545 S
C13 H20 0.930 . S
N14 C11 1.329 1_565 S
N14 C15 1.331 . S
C15 C13 1.392 1_565 S
C15 N14 1.331 . S
O16 Zn9 1.975 . S
O16 C17 1.252 . S
C17 O16 1.252 . S
C17 O18 1.252 . S
O18 Zn0 1.975 . S
O18 C17 1.252 . S
H19 C12 0.930 . S
H20 C13 0.930 . S
C21 C22 1.392 . S
C21 N25 1.328 . S
C21 H27 0.930 . S
C22 C21 1.392 . S
C22 N26 1.331 . S
C23 C24 1.391 . S
C23 N26 1.329 . S
C23 H33 0.930 . S
C24 C23 1.391 . S
C24 N25 1.334 . S
C24 H31 0.930 . S
N25 Zn9 2.119 1_556 S
N25 C21 1.328 . S
N25 C24 1.334 . S
N26 C22 1.331 . S
N26 C23 1.329 . S
H27 C21 0.930 . S
C28 O8 1.257 . S
C28 O29 1.244 . S
O29 C28 1.244 . S
O30 C6 1.257 . S
O30 Zn9 2.019 . S
H31 C24 0.930 . S
H32 C11 0.930 . S
H33 C23 0.930 . S
Zn34 N38 2.020 . S
Zn34 O42 2.019 . S
Zn34 N44 2.119 1_556 S
Zn34 O52 1.975 . S
C35 N36 1.334 . S
C35 N39 1.336 . S
N36 C35 1.334 . S
N36 C37 1.334 . S
C37 N36 1.334 . S
C37 N38 1.336 . S
N38 Zn34 2.020 . S
N38 C37 1.336 . S
N38 N39 1.354 . S
N39 C35 1.336 . S
N39 N38 1.354 . S
N39 Zn43 2.020 . S
C40 O41 1.244 . S
C40 O64 1.257 . S
O41 C40 1.244 . S
O42 Zn34 2.019 . S
O42 C62 1.257 . S
Zn43 N39 2.020 . S
Zn43 O50 1.975 . S
Zn43 N59 2.119 . S
Zn43 O64 2.019 . S
N44 Zn34 2.119 1_554 S
N44 C46 1.334 . S
N44 C47 1.328 . S
C45 C46 1.391 . S
C45 N48 1.329 . S
C45 H66 0.930 . S
C46 N44 1.334 . S
C46 C45 1.391 . S
C46 H53 0.930 . S
C47 N44 1.328 . S
C47 C49 1.392 . S
C47 H54 0.930 . S
N48 C45 1.329 . S
N48 C49 1.331 . S
C49 C47 1.392 . S
C49 N48 1.331 . S
O50 Zn43 1.975 . S
O50 C51 1.252 . S
C51 O50 1.252 . S
C51 O52 1.252 . S
O52 Zn34 1.975 . S
O52 C51 1.252 . S
H53 C46 0.930 . S
H54 C47 0.930 . S
C55 C56 1.392 1_455 S
C55 N59 1.328 . S
C55 H61 0.930 . S
C56 C55 1.392 1_655 S
C56 N60 1.331 . S
C57 C58 1.391 . S
C57 N60 1.329 1_455 S
C57 H67 0.930 . S
C58 C57 1.391 . S
C58 N59 1.334 . S
C58 H65 0.930 . S
N59 Zn43 2.119 . S
N59 C55 1.328 . S
N59 C58 1.334 . S
N60 C56 1.331 . S
N60 C57 1.329 1_655 S
H61 C55 0.930 . S
C62 O42 1.257 . S
C62 O63 1.244 . S
O63 C62 1.244 . S
O64 C40 1.257 . S
O64 Zn43 2.019 . S
H65 C58 0.930 . S
H66 C45 0.930 . S
H67 C57 0.930 . S
Zn68 N72 2.020 . S
Zn68 O76 2.019 . S
Zn68 N78 2.119 . S
Zn68 O86 1.975 . S
C69 N70 1.334 . S
C69 N73 1.336 . S
N70 C69 1.334 . S
N70 C71 1.334 . S
C71 N70 1.334 . S
C71 N72 1.336 . S
N72 Zn68 2.020 . S
N72 C71 1.336 . S
N72 N73 1.354 . S
N73 C69 1.336 . S
N73 N72 1.354 . S
N73 Zn77 2.020 . S
C74 O75 1.244 . S
C74 O98 1.257 . S
O75 C74 1.244 . S
O76 Zn68 2.019 . S
O76 C96 1.257 . S
Zn77 N73 2.020 . S
Zn77 O84 1.975 . S
Zn77 N93 2.119 1_554 S
Zn77 O98 2.019 . S
N78 Zn68 2.119 . S
N78 C80 1.334 . S
N78 C81 1.328 . S
C79 C80 1.391 . S
C79 N82 1.329 1_565 S
C79 H100 0.930 . S
C80 N78 1.334 . S
C80 C79 1.391 . S
C80 H87 0.930 . S
C81 N78 1.328 . S
C81 C83 1.392 1_565 S
C81 H88 0.930 . S
N82 C79 1.329 1_545 S
N82 C83 1.331 . S
C83 C81 1.392 1_545 S
C83 N82 1.331 . S
O84 Zn77 1.975 . S
O84 C85 1.252 . S
C85 O84 1.252 . S
C85 O86 1.252 . S
O86 Zn68 1.975 . S
O86 C85 1.252 . S
H87 C80 0.930 . S
H88 C81 0.930 . S
C89 C90 1.392 . S
C89 N93 1.328 . S
C89 H95 0.930 . S
C90 C89 1.392 . S
C90 N94 1.331 . S
C91 C92 1.391 . S
C91 N94 1.329 . S
C91 H101 0.930 . S
C92 C91 1.391 . S
C92 N93 1.334 . S
C92 H99 0.930 . S
N93 Zn77 2.119 1_556 S
N93 C89 1.328 . S
N93 C92 1.334 . S
N94 C90 1.331 . S
N94 C91 1.329 . S
H95 C89 0.930 . S
C96 O76 1.257 . S
C96 O97 1.244 . S
O97 C96 1.244 . S
O98 C74 1.257 . S
O98 Zn77 2.019 . S
H99 C92 0.930 . S
H100 C79 0.930 . S
H101 C91 0.930 . S
Zn102 N106 2.020 . S
Zn102 O110 2.019 . S
Zn102 N112 2.119 . S
Zn102 O120 1.975 . S
C103 N104 1.334 . S
C103 N107 1.336 . S
N104 C103 1.334 . S
N104 C105 1.334 . S
C105 N104 1.334 . S
C105 N106 1.336 . S
N106 Zn102 2.020 . S
N106 C105 1.336 . S
N106 N107 1.354 . S
N107 C103 1.336 . S
N107 N106 1.354 . S
N107 Zn111 2.020 . S
C108 O109 1.244 . S
C108 O132 1.257 . S
O109 C108 1.244 . S
O110 Zn102 2.019 . S
O110 C130 1.257 . S
Zn111 N107 2.020 . S
Zn111 O118 1.975 . S
Zn111 N127 2.119 1_556 S
Zn111 O132 2.019 . S
N112 Zn102 2.119 . S
N112 C114 1.334 . S
N112 C115 1.328 . S
C113 C114 1.391 . S
C113 N116 1.329 1_655 S
C113 H134 0.930 . S
C114 N112 1.334 . S
C114 C113 1.391 . S
C114 H121 0.930 . S
C115 N112 1.328 . S
C115 C117 1.392 1_655 S
C115 H122 0.930 . S
N116 C113 1.329 1_455 S
N116 C117 1.331 . S
C117 C115 1.392 1_455 S
C117 N116 1.331 . S
O118 Zn111 1.975 . S
O118 C119 1.252 . S
C119 O118 1.252 . S
C119 O120 1.252 . S
O120 Zn102 1.975 . S
O120 C119 1.252 . S
H121 C114 0.930 . S
H122 C115 0.930 . S
C123 C124 1.392 . S
C123 N127 1.328 . S
C123 H129 0.930 . S
C124 C123 1.392 . S
C124 N128 1.331 . S
C125 C126 1.391 . S
C125 N128 1.329 . S
C125 H135 0.930 . S
C126 C125 1.391 . S
C126 N127 1.334 . S
C126 H133 0.930 . S
N127 Zn111 2.119 1_554 S
N127 C123 1.328 . S
N127 C126 1.334 . S
N128 C124 1.331 . S
N128 C125 1.329 . S
H129 C123 0.930 . S
C130 O110 1.257 . S
C130 O131 1.244 . S
O131 C130 1.244 . S
O132 C108 1.257 . S
O132 Zn111 2.019 . S
H133 C126 0.930 . S
H134 C113 0.930 . S
H135 C125 0.930 . S
Zn136 N140 2.020 . S
Zn136 O144 2.019 . S
Zn136 N146 2.119 . S
Zn136 O154 1.975 . S
C137 N138 1.334 . S
C137 N141 1.336 . S
N138 C137 1.334 . S
N138 C139 1.334 . S
C139 N138 1.334 . S
C139 N140 1.336 . S
N140 Zn136 2.020 . S
N140 C139 1.336 . S
N140 N141 1.354 . S
N141 C137 1.336 . S
N141 N140 1.354 . S
N141 Zn145 2.020 . S
C142 O143 1.244 . S
C142 O166 1.257 . S
O143 C142 1.244 . S
O144 Zn136 2.019 . S
O144 C164 1.257 . S
Zn145 N141 2.020 . S
Zn145 O152 1.975 . S
Zn145 N161 2.119 . S
Zn145 O166 2.019 . S
N146 Zn136 2.119 . S
N146 C148 1.334 . S
N146 C149 1.328 . S
C147 C148 1.391 . S
C147 N150 1.329 . S
C147 H168 0.930 . S
C148 N146 1.334 . S
C148 C147 1.391 . S
C148 H155 0.930 . S
C149 N146 1.328 . S
C149 C151 1.392 . S
C149 H156 0.930 . S
N150 C147 1.329 . S
N150 C151 1.331 . S
C151 C149 1.392 . S
C151 N150 1.331 . S
O152 Zn145 1.975 . S
O152 C153 1.252 . S
C153 O152 1.252 . S
C153 O154 1.252 . S
O154 Zn136 1.975 . S
O154 C153 1.252 . S
H155 C148 0.930 . S
H156 C149 0.930 . S
C157 C158 1.392 . S
C157 N161 1.328 . S
C157 H163 0.930 . S
C158 C157 1.392 . S
C158 N162 1.331 . S
C159 C160 1.391 . S
C159 N162 1.329 . S
C159 H169 0.930 . S
C160 C159 1.391 . S
C160 N161 1.334 . S
C160 H167 0.930 . S
N161 Zn145 2.119 . S
N161 C157 1.328 . S
N161 C160 1.334 . S
N162 C158 1.331 . S
N162 C159 1.329 . S
H163 C157 0.930 . S
C164 O144 1.257 . S
C164 O165 1.244 . S
O165 C164 1.244 . S
O166 C142 1.257 . S
O166 Zn145 2.019 . S
H167 C160 0.930 . S
H168 C147 0.930 . S
H169 C159 0.930 . S
Zn170 N174 2.020 . S
Zn170 O178 2.019 . S
Zn170 N180 2.119 . S
Zn170 O188 1.975 . S
C171 N172 1.334 . S
C171 N175 1.336 . S
N172 C171 1.334 . S
N172 C173 1.334 . S
C173 N172 1.334 . S
C173 N174 1.336 . S
N174 Zn170 2.020 . S
N174 C173 1.336 . S
N174 N175 1.354 . S
N175 C171 1.336 . S
N175 N174 1.354 . S
N175 Zn179 2.020 . S
C176 O177 1.244 . S
C176 O200 1.257 . S
O177 C176 1.244 . S
O178 Zn170 2.019 . S
O178 C198 1.257 . S
Zn179 N175 2.020 . S
Zn179 O186 1.975 . S
Zn179 N195 2.119 . S
Zn179 O200 2.019 . S
N180 Zn170 2.119 . S
N180 C182 1.334 . S
N180 C183 1.328 . S
C181 C182 1.391 . S
C181 N184 1.329 . S
C181 H202 0.930 . S
C182 N180 1.334 . S
C182 C181 1.391 . S
C182 H189 0.930 . S
C183 N180 1.328 . S
C183 C185 1.392 . S
C183 H190 0.930 . S
N184 C181 1.329 . S
N184 C185 1.331 . S
C185 C183 1.392 . S
C185 N184 1.331 . S
O186 Zn179 1.975 . S
O186 C187 1.252 . S
C187 O186 1.252 . S
C187 O188 1.252 . S
O188 Zn170 1.975 . S
O188 C187 1.252 . S
H189 C182 0.930 . S
H190 C183 0.930 . S
C191 C192 1.392 . S
C191 N195 1.328 . S
C191 H197 0.930 . S
C192 C191 1.392 . S
C192 N196 1.331 . S
C193 C194 1.391 . S
C193 N196 1.329 . S
C193 H203 0.930 . S
C194 C193 1.391 . S
C194 N195 1.334 . S
C194 H201 0.930 . S
N195 Zn179 2.119 . S
N195 C191 1.328 . S
N195 C194 1.334 . S
N196 C192 1.331 . S
N196 C193 1.329 . S
H197 C191 0.930 . S
C198 O178 1.257 . S
C198 O199 1.244 . S
O199 C198 1.244 . S
O200 C176 1.257 . S
O200 Zn179 2.019 . S
H201 C194 0.930 . S
H202 C181 0.930 . S
H203 C193 0.930 . S
Zn204 N208 2.020 . S
Zn204 O212 2.019 . S
Zn204 N214 2.119 . S
Zn204 O222 1.975 . S
C205 N206 1.334 . S
C205 N209 1.336 . S
N206 C205 1.334 . S
N206 C207 1.334 . S
C207 N206 1.334 . S
C207 N208 1.336 . S
N208 Zn204 2.020 . S
N208 C207 1.336 . S
N208 N209 1.354 . S
N209 C205 1.336 . S
N209 N208 1.354 . S
N209 Zn213 2.020 . S
C210 O211 1.244 . S
C210 O234 1.257 . S
O211 C210 1.244 . S
O212 Zn204 2.019 . S
O212 C232 1.257 . S
Zn213 N209 2.020 . S
Zn213 O220 1.975 . S
Zn213 N229 2.119 . S
Zn213 O234 2.019 . S
N214 Zn204 2.119 . S
N214 C216 1.334 . S
N214 C217 1.328 . S
C215 C216 1.391 . S
C215 N218 1.329 . S
C215 H236 0.930 . S
C216 N214 1.334 . S
C216 C215 1.391 . S
C216 H223 0.930 . S
C217 N214 1.328 . S
C217 C219 1.392 . S
C217 H224 0.930 . S
N218 C215 1.329 . S
N218 C219 1.331 . S
C219 C217 1.392 . S
C219 N218 1.331 . S
O220 Zn213 1.975 . S
O220 C221 1.252 . S
C221 O220 1.252 . S
C221 O222 1.252 . S
O222 Zn204 1.975 . S
O222 C221 1.252 . S
H223 C216 0.930 . S
H224 C217 0.930 . S
C225 C226 1.392 . S
C225 N229 1.328 . S
C225 H231 0.930 . S
C226 C225 1.392 . S
C226 N230 1.331 . S
C227 C228 1.391 . S
C227 N230 1.329 . S
C227 H237 0.930 . S
C228 C227 1.391 . S
C228 N229 1.334 . S
C228 H235 0.930 . S
N229 Zn213 2.119 . S
N229 C225 1.328 . S
N229 C228 1.334 . S
N230 C226 1.331 . S
N230 C227 1.329 . S
H231 C225 0.930 . S
C232 O212 1.257 . S
C232 O233 1.244 . S
O233 C232 1.244 . S
O234 C210 1.257 . S
O234 Zn213 2.019 . S
H235 C228 0.930 . S
H236 C215 0.930 . S
H237 C227 0.930 . S
Zn238 N242 2.020 . S
Zn238 O246 2.019 . S
Zn238 N248 2.119 . S
Zn238 O256 1.975 . S
C239 N240 1.334 . S
C239 N243 1.336 . S
N240 C239 1.334 . S
N240 C241 1.334 . S
C241 N240 1.334 . S
C241 N242 1.336 . S
N242 Zn238 2.020 . S
N242 C241 1.336 . S
N242 N243 1.354 . S
N243 C239 1.336 . S
N243 N242 1.354 . S
N243 Zn247 2.020 . S
C244 O245 1.244 . S
C244 O268 1.257 . S
O245 C244 1.244 . S
O246 Zn238 2.019 . S
O246 C266 1.257 . S
Zn247 N243 2.020 . S
Zn247 O254 1.975 . S
Zn247 N263 2.119 . S
Zn247 O268 2.019 . S
N248 Zn238 2.119 . S
N248 C250 1.334 . S
N248 C251 1.328 . S
C249 C250 1.391 . S
C249 N252 1.329 . S
C249 H270 0.930 . S
C250 N248 1.334 . S
C250 C249 1.391 . S
C250 H257 0.930 . S
C251 N248 1.328 . S
C251 C253 1.392 . S
C251 H258 0.930 . S
N252 C249 1.329 . S
N252 C253 1.331 . S
C253 C251 1.392 . S
C253 N252 1.331 . S
O254 Zn247 1.975 . S
O254 C255 1.252 . S
C255 O254 1.252 . S
C255 O256 1.252 . S
O256 Zn238 1.975 . S
O256 C255 1.252 . S
H257 C250 0.930 . S
H258 C251 0.930 . S
C259 C260 1.392 . S
C259 N263 1.328 . S
C259 H265 0.930 . S
C260 C259 1.392 . S
C260 N264 1.331 . S
C261 C262 1.391 . S
C261 N264 1.329 . S
C261 H271 0.930 . S
C262 C261 1.391 . S
C262 N263 1.334 . S
C262 H269 0.930 . S
N263 Zn247 2.119 . S
N263 C259 1.328 . S
N263 C262 1.334 . S
N264 C260 1.331 . S
N264 C261 1.329 . S
H265 C259 0.930 . S
C266 O246 1.257 . S
C266 O267 1.244 . S
O267 C266 1.244 . S
O268 C244 1.257 . S
O268 Zn247 2.019 . S
H269 C262 0.930 . S
H270 C249 0.930 . S
H271 C261 0.930 . S
C272 C273 1.391 . S
C272 C274 1.394 . S
C272 H288 0.931 . S
C273 C272 1.391 . S
C273 C277 1.376 . S
C274 C272 1.394 . S
C274 C275 1.369 . S
C274 C278 1.531 . S
C275 C274 1.369 . S
C275 C276 1.410 . S
C275 C283 1.503 . S
C276 C275 1.410 . S
C276 C277 1.392 . S
C276 C279 1.511 . S
C277 C273 1.376 . S
C277 C276 1.392 . S
C277 H289 0.929 . S
C278 C274 1.531 . S
C278 H290 0.960 . S
C278 H291 0.962 . S
C278 H292 0.960 . S
C279 C276 1.511 . S
C279 H293 0.961 . S
C279 H294 0.961 . S
C279 H295 0.961 . S
C280 C281 1.370 . S
C280 C282 1.363 . S
C280 H296 0.931 . S
C281 C280 1.370 . S
C281 C285 1.408 . S
C282 C280 1.363 . S
C282 C283 1.370 . S
C282 C286 1.524 . S
C283 C275 1.503 . S
C283 C282 1.370 . S
C283 C284 1.403 . S
C284 C283 1.403 . S
C284 C285 1.404 . S
C284 C287 1.539 . S
C285 C281 1.408 . S
C285 C284 1.404 . S
C285 H297 0.930 . S
C286 C282 1.524 . S
C286 H298 0.956 . S
C286 H299 0.961 . S
C286 H300 0.961 . S
C287 C284 1.539 . S
C287 H301 0.958 . S
C287 H302 0.961 . S
C287 H303 0.960 . S
H288 C272 0.931 . S
H289 C277 0.929 . S
H290 C278 0.960 . S
H291 C278 0.962 . S
H292 C278 0.960 . S
H293 C279 0.961 . S
H294 C279 0.961 . S
H295 C279 0.961 . S
H296 C280 0.931 . S
H297 C285 0.930 . S
H298 C286 0.956 . S
H299 C286 0.961 . S
H300 C286 0.961 . S
H301 C287 0.958 . S
H302 C287 0.961 . S
H303 C287 0.960 . S
C304 C305 1.391 . S
C304 C306 1.394 . S
C304 H320 0.931 . S
C305 C304 1.391 . S
C305 C309 1.376 . S
C306 C304 1.394 . S
C306 C307 1.369 . S
C306 C310 1.531 . S
C307 C306 1.369 . S
C307 C308 1.410 . S
C307 C315 1.503 . S
C308 C307 1.410 . S
C308 C309 1.392 . S
C308 C311 1.511 . S
C309 C305 1.376 . S
C309 C308 1.392 . S
C309 H321 0.929 . S
C310 C306 1.531 . S
C310 H322 0.960 . S
C310 H323 0.962 . S
C310 H324 0.960 . S
C311 C308 1.511 . S
C311 H325 0.961 . S
C311 H326 0.961 . S
C311 H327 0.961 . S
C312 C313 1.370 . S
C312 C314 1.363 . S
C312 H328 0.931 . S
C313 C312 1.370 . S
C313 C317 1.408 . S
C314 C312 1.363 . S
C314 C315 1.370 . S
C314 C318 1.524 . S
C315 C307 1.503 . S
C315 C314 1.370 . S
C315 C316 1.403 . S
C316 C315 1.403 . S
C316 C317 1.404 . S
C316 C319 1.539 . S
C317 C313 1.408 . S
C317 C316 1.404 . S
C317 H329 0.930 . S
C318 C314 1.524 . S
C318 H330 0.956 . S
C318 H331 0.961 . S
C318 H332 0.961 . S
C319 C316 1.539 . S
C319 H333 0.958 . S
C319 H334 0.961 . S
C319 H335 0.960 . S
H320 C304 0.931 . S
H321 C309 0.929 . S
H322 C310 0.960 . S
H323 C310 0.962 . S
H324 C310 0.960 . S
H325 C311 0.961 . S
H326 C311 0.961 . S
H327 C311 0.961 . S
H328 C312 0.931 . S
H329 C317 0.930 . S
H330 C318 0.956 . S
H331 C318 0.961 . S
H332 C318 0.961 . S
H333 C319 0.958 . S
H334 C319 0.961 . S
H335 C319 0.960 . S
C336 C337 1.391 . S
C336 C338 1.394 . S
C336 H352 0.931 . S
C337 C336 1.391 . S
C337 C341 1.376 . S
C338 C336 1.394 . S
C338 C339 1.369 . S
C338 C342 1.531 . S
C339 C338 1.369 . S
C339 C340 1.410 . S
C339 C347 1.503 . S
C340 C339 1.410 . S
C340 C341 1.392 . S
C340 C343 1.511 . S
C341 C337 1.376 . S
C341 C340 1.392 . S
C341 H353 0.929 . S
C342 C338 1.531 . S
C342 H354 0.960 . S
C342 H355 0.962 . S
C342 H356 0.960 . S
C343 C340 1.511 . S
C343 H357 0.961 . S
C343 H358 0.961 . S
C343 H359 0.961 . S
C344 C345 1.370 . S
C344 C346 1.363 . S
C344 H360 0.931 . S
C345 C344 1.370 . S
C345 C349 1.408 . S
C346 C344 1.363 . S
C346 C347 1.370 . S
C346 C350 1.524 . S
C347 C339 1.503 . S
C347 C346 1.370 . S
C347 C348 1.403 . S
C348 C347 1.403 . S
C348 C349 1.404 . S
C348 C351 1.539 . S
C349 C345 1.408 . S
C349 C348 1.404 . S
C349 H361 0.930 . S
C350 C346 1.524 . S
C350 H362 0.956 . S
C350 H363 0.961 . S
C350 H364 0.961 . S
C351 C348 1.539 . S
C351 H365 0.958 . S
C351 H366 0.961 . S
C351 H367 0.960 . S
H352 C336 0.931 . S
H353 C341 0.929 . S
H354 C342 0.960 . S
H355 C342 0.962 . S
H356 C342 0.960 . S
H357 C343 0.961 . S
H358 C343 0.961 . S
H359 C343 0.961 . S
H360 C344 0.931 . S
H361 C349 0.930 . S
H362 C350 0.956 . S
H363 C350 0.961 . S
H364 C350 0.961 . S
H365 C351 0.958 . S
H366 C351 0.961 . S
H367 C351 0.960 . S
C368 C369 1.391 . S
C368 C370 1.394 . S
C368 H384 0.931 . S
C369 C368 1.391 . S
C369 C373 1.376 . S
C370 C368 1.394 . S
C370 C371 1.369 . S
C370 C374 1.531 . S
C371 C370 1.369 . S
C371 C372 1.410 . S
C371 C379 1.503 . S
C372 C371 1.410 . S
C372 C373 1.392 . S
C372 C375 1.511 . S
C373 C369 1.376 . S
C373 C372 1.392 . S
C373 H385 0.929 . S
C374 C370 1.531 . S
C374 H386 0.960 . S
C374 H387 0.962 . S
C374 H388 0.960 . S
C375 C372 1.511 . S
C375 H389 0.961 . S
C375 H390 0.961 . S
C375 H391 0.961 . S
C376 C377 1.370 . S
C376 C378 1.363 . S
C376 H392 0.931 . S
C377 C376 1.370 . S
C377 C381 1.408 . S
C378 C376 1.363 . S
C378 C379 1.370 . S
C378 C382 1.524 . S
C379 C371 1.503 . S
C379 C378 1.370 . S
C379 C380 1.403 . S
C380 C379 1.403 . S
C380 C381 1.404 . S
C380 C383 1.539 . S
C381 C377 1.408 . S
C381 C380 1.404 . S
C381 H393 0.930 . S
C382 C378 1.524 . S
C382 H394 0.956 . S
C382 H395 0.961 . S
C382 H396 0.961 . S
C383 C380 1.539 . S
C383 H397 0.958 . S
C383 H398 0.961 . S
C383 H399 0.960 . S
H384 C368 0.931 . S
H385 C373 0.929 . S
H386 C374 0.960 . S
H387 C374 0.962 . S
H388 C374 0.960 . S
H389 C375 0.961 . S
H390 C375 0.961 . S
H391 C375 0.961 . S
H392 C376 0.931 . S
H393 C381 0.930 . S
H394 C382 0.956 . S
H395 C382 0.961 . S
H396 C382 0.961 . S
H397 C383 0.958 . S
H398 C383 0.961 . S
H399 C383 0.960 . S
C400 C401 1.391 . S
C400 C402 1.394 . S
C400 H416 0.931 . S
C401 C400 1.391 . S
C401 C405 1.376 . S
C402 C400 1.394 . S
C402 C403 1.369 . S
C402 C406 1.531 . S
C403 C402 1.369 . S
C403 C404 1.410 . S
C403 C411 1.503 . S
C404 C403 1.410 . S
C404 C405 1.392 . S
C404 C407 1.511 . S
C405 C401 1.376 . S
C405 C404 1.392 . S
C405 H417 0.929 . S
C406 C402 1.531 . S
C406 H418 0.960 . S
C406 H419 0.962 . S
C406 H420 0.960 . S
C407 C404 1.511 . S
C407 H421 0.961 . S
C407 H422 0.961 . S
C407 H423 0.961 . S
C408 C409 1.370 . S
C408 C410 1.363 . S
C408 H424 0.931 . S
C409 C408 1.370 . S
C409 C413 1.408 . S
C410 C408 1.363 . S
C410 C411 1.370 . S
C410 C414 1.524 . S
C411 C403 1.503 . S
C411 C410 1.370 . S
C411 C412 1.403 . S
C412 C411 1.403 . S
C412 C413 1.404 . S
C412 C415 1.539 . S
C413 C409 1.408 . S
C413 C412 1.404 . S
C413 H425 0.930 . S
C414 C410 1.524 . S
C414 H426 0.956 . S
C414 H427 0.961 . S
C414 H428 0.961 . S
C415 C412 1.539 . S
C415 H429 0.958 . S
C415 H430 0.961 . S
C415 H431 0.960 . S
H416 C400 0.931 . S
H417 C405 0.929 . S
H418 C406 0.960 . S
H419 C406 0.962 . S
H420 C406 0.960 . S
H421 C407 0.961 . S
H422 C407 0.961 . S
H423 C407 0.961 . S
H424 C408 0.931 . S
H425 C413 0.930 . S
H426 C414 0.956 . S
H427 C414 0.961 . S
H428 C414 0.961 . S
H429 C415 0.958 . S
H430 C415 0.961 . S
H431 C415 0.960 . S
C432 C433 1.391 . S
C432 C434 1.394 . S
C432 H448 0.931 . S
C433 C432 1.391 . S
C433 C437 1.376 . S
C434 C432 1.394 . S
C434 C435 1.369 . S
C434 C438 1.531 . S
C435 C434 1.369 . S
C435 C436 1.410 . S
C435 C443 1.503 . S
C436 C435 1.410 . S
C436 C437 1.392 . S
C436 C439 1.511 . S
C437 C433 1.376 . S
C437 C436 1.392 . S
C437 H449 0.929 . S
C438 C434 1.531 . S
C438 H450 0.960 . S
C438 H451 0.962 . S
C438 H452 0.960 . S
C439 C436 1.511 . S
C439 H453 0.961 . S
C439 H454 0.961 . S
C439 H455 0.961 . S
C440 C441 1.370 . S
C440 C442 1.363 . S
C440 H456 0.931 . S
C441 C440 1.370 . S
C441 C445 1.408 . S
C442 C440 1.363 . S
C442 C443 1.370 . S
C442 C446 1.524 . S
C443 C435 1.503 . S
C443 C442 1.370 . S
C443 C444 1.403 . S
C444 C443 1.403 . S
C444 C445 1.404 . S
C444 C447 1.539 . S
C445 C441 1.408 . S
C445 C444 1.404 . S
C445 H457 0.930 . S
C446 C442 1.524 . S
C446 H458 0.956 . S
C446 H459 0.961 . S
C446 H460 0.961 . S
C447 C444 1.539 . S
C447 H461 0.958 . S
C447 H462 0.961 . S
C447 H463 0.960 . S
H448 C432 0.931 . S
H449 C437 0.929 . S
H450 C438 0.960 . S
H451 C438 0.962 . S
H452 C438 0.960 . S
H453 C439 0.961 . S
H454 C439 0.961 . S
H455 C439 0.961 . S
H456 C440 0.931 . S
H457 C445 0.930 . S
H458 C446 0.956 . S
H459 C446 0.961 . S
H460 C446 0.961 . S
H461 C447 0.958 . S
H462 C447 0.961 . S
H463 C447 0.960 . S
C464 C465 1.391 . S
C464 C466 1.394 . S
C464 H480 0.931 . S
C465 C464 1.391 . S
C465 C469 1.376 . S
C466 C464 1.394 . S
C466 C467 1.369 . S
C466 C470 1.531 . S
C467 C466 1.369 . S
C467 C468 1.410 . S
C467 C475 1.503 . S
C468 C467 1.410 . S
C468 C469 1.392 . S
C468 C471 1.511 . S
C469 C465 1.376 . S
C469 C468 1.392 . S
C469 H481 0.929 . S
C470 C466 1.531 . S
C470 H482 0.960 . S
C470 H483 0.962 . S
C470 H484 0.960 . S
C471 C468 1.511 . S
C471 H485 0.961 . S
C471 H486 0.961 . S
C471 H487 0.961 . S
C472 C473 1.370 . S
C472 C474 1.363 . S
C472 H488 0.931 . S
C473 C472 1.370 . S
C473 C477 1.408 . S
C474 C472 1.363 . S
C474 C475 1.370 . S
C474 C478 1.524 . S
C475 C467 1.503 . S
C475 C474 1.370 . S
C475 C476 1.403 . S
C476 C475 1.403 . S
C476 C477 1.404 . S
C476 C479 1.539 . S
C477 C473 1.408 . S
C477 C476 1.404 . S
C477 H489 0.930 . S
C478 C474 1.524 . S
C478 H490 0.956 . S
C478 H491 0.961 . S
C478 H492 0.961 . S
C479 C476 1.539 . S
C479 H493 0.958 . S
C479 H494 0.961 . S
C479 H495 0.960 . S
H480 C464 0.931 . S
H481 C469 0.929 . S
H482 C470 0.960 . S
H483 C470 0.962 . S
H484 C470 0.960 . S
H485 C471 0.961 . S
H486 C471 0.961 . S
H487 C471 0.961 . S
H488 C472 0.931 . S
H489 C477 0.930 . S
H490 C478 0.956 . S
H491 C478 0.961 . S
H492 C478 0.961 . S
H493 C479 0.958 . S
H494 C479 0.961 . S
H495 C479 0.960 . S
C496 C497 1.391 . S
C496 C498 1.394 . S
C496 H512 0.931 . S
C497 C496 1.391 . S
C497 C501 1.376 . S
C498 C496 1.394 . S
C498 C499 1.369 . S
C498 C502 1.531 . S
C499 C498 1.369 . S
C499 C500 1.410 . S
C499 C507 1.503 . S
C500 C499 1.410 . S
C500 C501 1.392 . S
C500 C503 1.511 . S
C501 C497 1.376 . S
C501 C500 1.392 . S
C501 H513 0.929 . S
C502 C498 1.531 . S
C502 H514 0.960 . S
C502 H515 0.962 . S
C502 H516 0.960 . S
C503 C500 1.511 . S
C503 H517 0.961 . S
C503 H518 0.961 . S
C503 H519 0.961 . S
C504 C505 1.370 . S
C504 C506 1.363 . S
C504 H520 0.931 . S
C505 C504 1.370 . S
C505 C509 1.408 . S
C506 C504 1.363 . S
C506 C507 1.370 . S
C506 C510 1.524 . S
C507 C499 1.503 . S
C507 C506 1.370 . S
C507 C508 1.403 . S
C508 C507 1.403 . S
C508 C509 1.404 . S
C508 C511 1.539 . S
C509 C505 1.408 . S
C509 C508 1.404 . S
C509 H521 0.930 . S
C510 C506 1.524 . S
C510 H522 0.956 . S
C510 H523 0.961 . S
C510 H524 0.961 . S
C511 C508 1.539 . S
C511 H525 0.958 . S
C511 H526 0.961 . S
C511 H527 0.960 . S
H512 C496 0.931 . S
H513 C501 0.929 . S
H514 C502 0.960 . S
H515 C502 0.962 . S
H516 C502 0.960 . S
H517 C503 0.961 . S
H518 C503 0.961 . S
H519 C503 0.961 . S
H520 C504 0.931 . S
H521 C509 0.930 . S
H522 C510 0.956 . S
H523 C510 0.961 . S
H524 C510 0.961 . S
H525 C511 0.958 . S
H526 C511 0.961 . S
H527 C511 0.960 . S
C528 C529 1.391 . S
C528 C530 1.394 . S
C528 H544 0.931 1_554 S
C529 C528 1.391 . S
C529 C533 1.403 . S
C530 C528 1.394 . S
C530 C531 1.369 . S
C530 C534 1.531 1_554 S
C531 C530 1.369 . S
C531 C532 1.410 1_545 S
C531 C539 1.503 1_545 S
C532 C531 1.410 1_565 S
C532 C533 1.384 1_565 S
C532 C535 1.511 . S
C533 C529 1.403 . S
C533 C532 1.384 1_545 S
C533 H545 0.911 1_545 S
C534 C530 1.531 1_556 S
C534 H546 0.954 1_556 S
C534 H547 0.962 . S
C534 H548 0.960 . S
C535 C532 1.511 . S
C535 H549 0.961 . S
C535 H550 0.961 . S
C535 H551 0.961 . S
C536 C537 1.379 . S
C536 C538 1.364 . S
C536 H552 0.921 1_554 S
C537 C536 1.379 . S
C537 C541 1.408 . S
C538 C536 1.364 . S
C538 C539 1.370 . S
C538 C542 1.524 1_554 S
C539 C531 1.503 1_565 S
C539 C538 1.370 . S
C539 C540 1.403 1_565 S
C540 C539 1.403 1_545 S
C540 C541 1.404 1_545 S
C540 C543 1.539 . S
C541 C537 1.408 . S
C541 C540 1.404 1_565 S
C541 H553 0.930 1_565 S
C542 C538 1.524 1_556 S
C542 H554 0.956 . S
C542 H555 0.961 . S
C542 H556 0.961 . S
C543 C540 1.539 . S
C543 H557 0.958 . S
C543 H558 0.961 . S
C543 H559 0.960 . S
H544 C528 0.931 1_556 S
H545 C533 0.911 1_565 S
H546 C534 0.954 1_554 S
H547 C534 0.962 . S
H548 C534 0.960 . S
H549 C535 0.961 . S
H550 C535 0.961 . S
H551 C535 0.961 . S
H552 C536 0.921 1_556 S
H553 C541 0.930 1_545 S
H554 C542 0.956 . S
H555 C542 0.961 . S
H556 C542 0.961 . S
H557 C543 0.958 . S
H558 C543 0.961 . S
H559 C543 0.960 . S
C560 C561 1.391 1_455 S
C560 C562 1.394 . S
C560 H576 0.931 . S
C561 C560 1.391 1_655 S
C561 C565 1.376 . S
C562 C560 1.394 . S
C562 C563 1.369 1_455 S
C562 C566 1.531 . S
C563 C562 1.369 1_655 S
C563 C564 1.410 . S
C563 C571 1.503 1_655 S
C564 C563 1.410 . S
C564 C565 1.392 . S
C564 C567 1.510 1_556 S
C565 C561 1.376 . S
C565 C564 1.392 . S
C565 H577 0.929 . S
C566 C562 1.531 . S
C566 H578 0.960 . S
C566 H579 0.962 . S
C566 H580 0.960 . S
C567 C564 1.510 1_554 S
C567 H581 0.962 . S
C567 H582 0.962 . S
C567 H583 0.959 1_554 S
C568 C569 1.370 1_554 S
C568 C570 1.363 . S
C568 H584 0.931 . S
C569 C568 1.370 1_556 S
C569 C573 1.408 . S
C570 C568 1.363 . S
C570 C571 1.369 1_554 S
C570 C574 1.525 . S
C571 C563 1.503 1_455 S
C571 C570 1.369 1_556 S
C571 C572 1.403 1_455 S
C572 C571 1.403 1_655 S
C572 C573 1.404 1_655 S
C572 C575 1.539 . S
C573 C569 1.408 . S
C573 C572 1.404 1_455 S
C573 H585 0.938 . S
C574 C570 1.525 . S
C574 H586 0.956 . S
C574 H587 0.961 . S
C574 H588 0.961 . S
C575 C572 1.539 . S
C575 H589 0.958 . S
C575 H590 0.961 . S
C575 H591 0.960 . S
H576 C560 0.931 . S
H577 C565 0.929 . S
H578 C566 0.960 . S
H579 C566 0.962 . S
H580 C566 0.960 . S
H581 C567 0.962 . S
H582 C567 0.962 . S
H583 C567 0.959 1_556 S
H584 C568 0.931 . S
H585 C573 0.938 . S
H586 C574 0.956 . S
H587 C574 0.961 . S
H588 C574 0.961 . S
H589 C575 0.958 . S
H590 C575 0.961 . S
H591 C575 0.960 . S
C592 C593 1.391 . S
C592 C594 1.394 . S
C592 H608 0.931 . S
C593 C592 1.391 . S
C593 C597 1.376 . S
C594 C592 1.394 . S
C594 C595 1.369 . S
C594 C598 1.531 . S
C595 C594 1.369 . S
C595 C596 1.410 . S
C595 C603 1.503 1_655 S
C596 C595 1.410 . S
C596 C597 1.392 . S
C596 C599 1.511 . S
C597 C593 1.376 . S
C597 C596 1.392 . S
C597 H609 0.929 . S
C598 C594 1.531 . S
C598 H610 0.960 . S
C598 H611 0.962 . S
C598 H612 0.960 . S
C599 C596 1.511 . S
C599 H613 0.961 . S
C599 H614 0.961 1_655 S
C599 H615 0.961 . S
C600 C601 1.370 . S
C600 C602 1.363 . S
C600 H616 0.931 . S
C601 C600 1.370 . S
C601 C605 1.408 . S
C602 C600 1.363 . S
C602 C603 1.370 . S
C602 C606 1.524 . S
C603 C595 1.503 1_455 S
C603 C602 1.370 . S
C603 C604 1.403 . S
C604 C603 1.403 . S
C604 C605 1.404 . S
C604 C607 1.539 . S
C605 C601 1.408 . S
C605 C604 1.404 . S
C605 H617 0.930 . S
C606 C602 1.524 . S
C606 H618 0.956 . S
C606 H619 0.961 . S
C606 H620 0.961 . S
C607 C604 1.539 . S
C607 H621 0.958 1_455 S
C607 H622 0.961 . S
C607 H623 0.960 1_455 S
H608 C592 0.931 . S
H609 C597 0.929 . S
H610 C598 0.960 . S
H611 C598 0.962 . S
H612 C598 0.960 . S
H613 C599 0.961 . S
H614 C599 0.961 1_455 S
H615 C599 0.961 . S
H616 C600 0.931 . S
H617 C605 0.930 . S
H618 C606 0.956 . S
H619 C606 0.961 . S
H620 C606 0.961 . S
H621 C607 0.958 1_655 S
H622 C607 0.961 . S
H623 C607 0.960 1_655 S
C624 C625 1.391 . S
C624 C626 1.394 . S
C624 H640 0.931 . S
C625 C624 1.391 . S
C625 C629 1.376 . S
C626 C624 1.394 . S
C626 C627 1.369 . S
C626 C630 1.531 1_545 S
C627 C626 1.369 . S
C627 C628 1.410 . S
C627 C635 1.503 1_545 S
C628 C627 1.410 . S
C628 C629 1.392 . S
C628 C631 1.511 . S
C629 C625 1.376 . S
C629 C628 1.392 . S
C629 H641 0.929 . S
C630 C626 1.531 1_565 S
C630 H642 0.960 . S
C630 H643 0.962 . S
C630 H644 0.960 1_565 S
C631 C628 1.511 . S
C631 H645 0.961 . S
C631 H646 0.961 . S
C631 H647 0.961 . S
C632 C633 1.370 . S
C632 C634 1.363 . S
C632 H648 0.931 . S
C633 C632 1.370 . S
C633 C637 1.408 . S
C634 C632 1.363 . S
C634 C635 1.370 . S
C634 C638 1.524 . S
C635 C627 1.503 1_565 S
C635 C634 1.370 . S
C635 C636 1.403 . S
C636 C635 1.403 . S
C636 C637 1.404 . S
C636 C639 1.539 . S
C637 C633 1.408 . S
C637 C636 1.404 . S
C637 H649 0.930 . S
C638 C634 1.524 . S
C638 H650 0.956 . S
C638 H651 0.961 1_565 S
C638 H652 0.961 . S
C639 C636 1.539 . S
C639 H653 0.958 . S
C639 H654 0.961 . S
C639 H655 0.990 . S
H640 C624 0.931 . S
H641 C629 0.929 . S
H642 C630 0.960 . S
H643 C630 0.962 . S
H644 C630 0.960 1_545 S
H645 C631 0.961 . S
H646 C631 0.961 . S
H647 C631 0.961 . S
H648 C632 0.931 . S
H649 C637 0.930 . S
H650 C638 0.956 . S
H651 C638 0.961 1_545 S
H652 C638 0.961 . S
H653 C639 0.958 . S
H654 C639 0.961 . S
H655 C639 0.990 . S
C656 C657 1.391 . S
C656 C658 1.394 . S
C656 H672 0.931 . S
C657 C656 1.391 . S
C657 C661 1.376 . S
C658 C656 1.394 . S
C658 C659 1.369 . S
C658 C662 1.531 . S
C659 C658 1.369 . S
C659 C660 1.410 . S
C659 C667 1.503 . S
C660 C659 1.410 . S
C660 C661 1.392 . S
C660 C663 1.511 . S
C661 C657 1.376 . S
C661 C660 1.392 . S
C661 H673 0.929 . S
C662 C658 1.531 . S
C662 H674 0.960 . S
C662 H675 0.962 . S
C662 H676 0.960 . S
C663 C660 1.511 . S
C663 H677 0.961 . S
C663 H678 0.961 . S
C663 H679 0.961 . S
C664 C665 1.370 . S
C664 C666 1.363 . S
C664 H680 0.931 . S
C665 C664 1.370 . S
C665 C669 1.408 . S
C666 C664 1.363 . S
C666 C667 1.370 . S
C666 C670 1.524 . S
C667 C659 1.503 . S
C667 C666 1.370 . S
C667 C668 1.403 . S
C668 C667 1.403 . S
C668 C669 1.404 . S
C668 C671 1.539 . S
C669 C665 1.408 . S
C669 C668 1.404 . S
C669 H681 0.930 . S
C670 C666 1.524 . S
C670 H682 0.956 . S
C670 H683 0.961 . S
C670 H684 0.961 . S
C671 C668 1.539 . S
C671 H685 0.958 . S
C671 H686 0.961 . S
C671 H687 0.960 . S
H672 C656 0.931 . S
H673 C661 0.929 . S
H674 C662 0.960 . S
H675 C662 0.962 . S
H676 C662 0.960 . S
H677 C663 0.961 . S
H678 C663 0.961 . S
H679 C663 0.961 . S
H680 C664 0.931 . S
H681 C669 0.930 . S
H682 C670 0.956 . S
H683 C670 0.961 . S
H684 C670 0.961 . S
H685 C671 0.958 . S
H686 C671 0.961 . S
H687 C671 0.960 . S
C688 C689 1.391 . S
C688 C690 1.394 . S
C688 H704 0.931 . S
C689 C688 1.391 . S
C689 C693 1.376 . S
C690 C688 1.394 . S
C690 C691 1.369 . S
C690 C694 1.531 . S
C691 C690 1.369 . S
C691 C692 1.410 . S
C691 C699 1.503 . S
C692 C691 1.410 . S
C692 C693 1.392 . S
C692 C695 1.511 . S
C693 C689 1.376 . S
C693 C692 1.392 . S
C693 H705 0.929 . S
C694 C690 1.531 . S
C694 H706 0.960 . S
C694 H707 0.962 . S
C694 H708 0.960 . S
C695 C692 1.511 . S
C695 H709 0.961 . S
C695 H710 0.961 . S
C695 H711 0.961 . S
C696 C697 1.370 . S
C696 C698 1.363 . S
C696 H712 0.931 . S
C697 C696 1.370 . S
C697 C701 1.408 . S
C698 C696 1.363 . S
C698 C699 1.370 . S
C698 C702 1.524 . S
C699 C691 1.503 . S
C699 C698 1.370 . S
C699 C700 1.403 . S
C700 C699 1.403 . S
C700 C701 1.404 . S
C700 C703 1.539 . S
C701 C697 1.408 . S
C701 C700 1.404 . S
C701 H713 0.930 . S
C702 C698 1.524 . S
C702 H714 0.956 . S
C702 H715 0.961 . S
C702 H716 0.961 . S
C703 C700 1.539 . S
C703 H717 0.958 . S
C703 H718 0.961 . S
C703 H719 0.960 . S
H704 C688 0.931 . S
H705 C693 0.929 . S
H706 C694 0.960 . S
H707 C694 0.962 . S
H708 C694 0.960 . S
H709 C695 0.961 . S
H710 C695 0.961 . S
H711 C695 0.961 . S
H712 C696 0.931 . S
H713 C701 0.930 . S
H714 C702 0.956 . S
H715 C702 0.961 . S
H716 C702 0.961 . S
H717 C703 0.958 . S
H718 C703 0.961 . S
H719 C703 0.960 . S
C720 C721 1.391 . S
C720 C722 1.394 . S
C720 H736 0.931 . S
C721 C720 1.391 . S
C721 C725 1.376 . S
C722 C720 1.394 . S
C722 C723 1.369 . S
C722 C726 1.531 . S
C723 C722 1.369 . S
C723 C724 1.410 . S
C723 C731 1.503 . S
C724 C723 1.410 . S
C724 C725 1.392 . S
C724 C727 1.511 . S
C725 C721 1.376 . S
C725 C724 1.392 . S
C725 H737 0.929 . S
C726 C722 1.531 . S
C726 H738 0.960 . S
C726 H739 0.962 . S
C726 H740 0.960 . S
C727 C724 1.511 . S
C727 H741 0.961 . S
C727 H742 0.961 . S
C727 H743 0.961 . S
C728 C729 1.370 . S
C728 C730 1.363 . S
C728 H744 0.931 . S
C729 C728 1.370 . S
C729 C733 1.408 . S
C730 C728 1.363 . S
C730 C731 1.370 . S
C730 C734 1.524 . S
C731 C723 1.503 . S
C731 C730 1.370 . S
C731 C732 1.403 . S
C732 C731 1.403 . S
C732 C733 1.404 . S
C732 C735 1.539 . S
C733 C729 1.408 . S
C733 C732 1.404 . S
C733 H745 0.930 . S
C734 C730 1.524 . S
C734 H746 0.956 . S
C734 H747 0.961 . S
C734 H748 0.961 . S
C735 C732 1.539 . S
C735 H749 0.958 . S
C735 H750 0.961 . S
C735 H751 0.960 . S
H736 C720 0.931 . S
H737 C725 0.929 . S
H738 C726 0.960 . S
H739 C726 0.962 . S
H740 C726 0.960 . S
H741 C727 0.961 . S
H742 C727 0.961 . S
H743 C727 0.961 . S
H744 C728 0.931 . S
H745 C733 0.930 . S
H746 C734 0.956 . S
H747 C734 0.961 . S
H748 C734 0.961 . S
H749 C735 0.958 . S
H750 C735 0.961 . S
H751 C735 0.960 . S
C752 C753 1.391 . S
C752 C754 1.394 . S
C752 H768 0.931 . S
C753 C752 1.391 . S
C753 C757 1.376 . S
C754 C752 1.394 . S
C754 C755 1.369 . S
C754 C758 1.531 . S
C755 C754 1.369 . S
C755 C756 1.410 . S
C755 C763 1.503 . S
C756 C755 1.410 . S
C756 C757 1.392 . S
C756 C759 1.511 . S
C757 C753 1.376 . S
C757 C756 1.392 . S
C757 H769 0.929 . S
C758 C754 1.531 . S
C758 H770 0.960 . S
C758 H771 0.962 . S
C758 H772 0.960 . S
C759 C756 1.511 . S
C759 H773 0.961 . S
C759 H774 0.961 . S
C759 H775 0.961 . S
C760 C761 1.370 . S
C760 C762 1.363 . S
C760 H776 0.931 . S
C761 C760 1.370 . S
C761 C765 1.408 . S
C762 C760 1.363 . S
C762 C763 1.370 . S
C762 C766 1.524 . S
C763 C755 1.503 . S
C763 C762 1.370 . S
C763 C764 1.403 . S
C764 C763 1.403 . S
C764 C765 1.404 . S
C764 C767 1.539 . S
C765 C761 1.408 . S
C765 C764 1.404 . S
C765 H777 0.930 . S
C766 C762 1.524 . S
C766 H778 0.956 . S
C766 H779 0.961 . S
C766 H780 0.961 . S
C767 C764 1.539 . S
C767 H781 0.958 . S
C767 H782 0.961 . S
C767 H783 0.960 . S
H768 C752 0.931 . S
H769 C757 0.929 . S
H770 C758 0.960 . S
H771 C758 0.962 . S
H772 C758 0.960 . S
H773 C759 0.961 . S
H774 C759 0.961 . S
H775 C759 0.961 . S
H776 C760 0.931 . S
H777 C765 0.930 . S
H778 C766 0.956 . S
H779 C766 0.961 . S
H780 C766 0.961 . S
H781 C767 0.958 . S
H782 C767 0.961 . S
H783 C767 0.960 . S
C784 C785 1.391 . S
C784 C786 1.394 . S
C784 H800 0.931 . S
C785 C784 1.391 . S
C785 C789 1.376 . S
C786 C784 1.394 . S
C786 C787 1.369 . S
C786 C790 1.531 . S
C787 C786 1.369 . S
C787 C788 1.410 . S
C787 C795 1.503 . S
C788 C787 1.410 . S
C788 C789 1.392 . S
C788 C791 1.511 . S
C789 C785 1.376 . S
C789 C788 1.392 . S
C789 H801 0.929 . S
C790 C786 1.531 . S
C790 H802 0.960 . S
C790 H803 0.962 . S
C790 H804 0.960 . S
C791 C788 1.511 . S
C791 H805 0.961 . S
C791 H806 0.961 . S
C791 H807 0.961 . S
C792 C793 1.370 . S
C792 C794 1.363 . S
C792 H808 0.931 . S
C793 C792 1.370 . S
C793 C797 1.408 . S
C794 C792 1.363 . S
C794 C795 1.370 . S
C794 C798 1.524 . S
C795 C787 1.503 . S
C795 C794 1.370 . S
C795 C796 1.403 . S
C796 C795 1.403 . S
C796 C797 1.404 . S
C796 C799 1.539 . S
C797 C793 1.408 . S
C797 C796 1.404 . S
C797 H809 0.930 . S
C798 C794 1.524 . S
C798 H810 0.956 . S
C798 H811 0.961 . S
C798 H812 0.961 . S
C799 C796 1.539 . S
C799 H813 0.958 . S
C799 H814 0.961 . S
C799 H815 0.960 . S
H800 C784 0.931 . S
H801 C789 0.929 . S
H802 C790 0.960 . S
H803 C790 0.962 . S
H804 C790 0.960 . S
H805 C791 0.961 . S
H806 C791 0.961 . S
H807 C791 0.961 . S
H808 C792 0.931 . S
H809 C797 0.930 . S
H810 C798 0.956 . S
H811 C798 0.961 . S
H812 C798 0.961 . S
H813 C799 0.958 . S
H814 C799 0.961 . S
H815 C799 0.960 . S
C816 C817 1.391 . S
C816 C818 1.394 . S
C816 H832 0.931 . S
C817 C816 1.391 . S
C817 C821 1.376 . S
C818 C816 1.394 . S
C818 C819 1.369 . S
C818 C822 1.531 . S
C819 C818 1.369 . S
C819 C820 1.410 . S
C819 C827 1.503 . S
C820 C819 1.410 . S
C820 C821 1.392 . S
C820 C823 1.511 . S
C821 C817 1.376 . S
C821 C820 1.392 . S
C821 H833 0.929 . S
C822 C818 1.531 . S
C822 H834 0.960 . S
C822 H835 0.962 . S
C822 H836 0.960 . S
C823 C820 1.511 . S
C823 H837 0.961 . S
C823 H838 0.961 . S
C823 H839 0.961 . S
C824 C825 1.370 . S
C824 C826 1.363 . S
C824 H840 0.931 . S
C825 C824 1.370 . S
C825 C829 1.408 . S
C826 C824 1.363 . S
C826 C827 1.370 . S
C826 C830 1.524 . S
C827 C819 1.503 . S
C827 C826 1.370 . S
C827 C828 1.403 . S
C828 C827 1.403 . S
C828 C829 1.404 . S
C828 C831 1.539 . S
C829 C825 1.408 . S
C829 C828 1.404 . S
C829 H841 0.930 . S
C830 C826 1.524 . S
C830 H842 0.956 . S
C830 H843 0.961 . S
C830 H844 0.961 . S
C831 C828 1.539 . S
C831 H845 0.958 . S
C831 H846 0.961 . S
C831 H847 0.960 . S
H832 C816 0.931 . S
H833 C821 0.929 . S
H834 C822 0.960 . S
H835 C822 0.962 . S
H836 C822 0.960 . S
H837 C823 0.961 . S
H838 C823 0.961 . S
H839 C823 0.961 . S
H840 C824 0.931 . S
H841 C829 0.930 . S
H842 C830 0.956 . S
H843 C830 0.961 . S
H844 C830 0.961 . S
H845 C831 0.958 . S
H846 C831 0.961 . S
H847 C831 0.960 . S
C848 C849 1.391 . S
C848 C850 1.394 . S
C848 H864 0.931 . S
C849 C848 1.391 . S
C849 C853 1.376 . S
C850 C848 1.394 . S
C850 C851 1.369 . S
C850 C854 1.531 . S
C851 C850 1.369 . S
C851 C852 1.410 . S
C851 C859 1.503 . S
C852 C851 1.410 . S
C852 C853 1.392 . S
C852 C855 1.511 . S
C853 C849 1.376 . S
C853 C852 1.392 . S
C853 H865 0.929 . S
C854 C850 1.531 . S
C854 H866 0.960 . S
C854 H867 0.962 . S
C854 H868 0.960 . S
C855 C852 1.511 . S
C855 H869 0.961 . S
C855 H870 0.961 . S
C855 H871 0.961 . S
C856 C857 1.370 . S
C856 C858 1.363 . S
C856 H872 0.931 . S
C857 C856 1.370 . S
C857 C861 1.408 . S
C858 C856 1.363 . S
C858 C859 1.370 . S
C858 C862 1.524 . S
C859 C851 1.503 . S
C859 C858 1.370 . S
C859 C860 1.403 . S
C860 C859 1.403 . S
C860 C861 1.404 . S
C860 C863 1.539 . S
C861 C857 1.408 . S
C861 C860 1.404 . S
C861 H873 0.930 . S
C862 C858 1.524 . S
C862 H874 0.956 . S
C862 H875 0.961 . S
C862 H876 0.961 . S
C863 C860 1.539 . S
C863 H877 0.958 . S
C863 H878 0.961 . S
C863 H879 0.960 . S
H864 C848 0.931 . S
H865 C853 0.929 . S
H866 C854 0.960 . S
H867 C854 0.962 . S
H868 C854 0.960 . S
H869 C855 0.961 . S
H870 C855 0.961 . S
H871 C855 0.961 . S
H872 C856 0.931 . S
H873 C861 0.930 . S
H874 C862 0.956 . S
H875 C862 0.961 . S
H876 C862 0.961 . S
H877 C863 0.958 . S
H878 C863 0.961 . S
H879 C863 0.960 . S
C880 C881 1.391 . S
C880 C882 1.394 . S
C880 H896 0.931 . S
C881 C880 1.391 . S
C881 C885 1.376 . S
C882 C880 1.394 . S
C882 C883 1.369 . S
C882 C886 1.531 . S
C883 C882 1.369 . S
C883 C884 1.410 . S
C883 C891 1.503 . S
C884 C883 1.410 . S
C884 C885 1.392 . S
C884 C887 1.511 . S
C885 C881 1.376 . S
C885 C884 1.392 . S
C885 H897 0.929 . S
C886 C882 1.531 . S
C886 H898 0.960 . S
C886 H899 0.962 . S
C886 H900 0.960 . S
C887 C884 1.511 . S
C887 H901 0.961 . S
C887 H902 0.961 . S
C887 H903 0.961 . S
C888 C889 1.370 . S
C888 C890 1.363 . S
C888 H904 0.931 . S
C889 C888 1.370 . S
C889 C893 1.408 . S
C890 C888 1.363 . S
C890 C891 1.370 . S
C890 C894 1.524 . S
C891 C883 1.503 . S
C891 C890 1.370 . S
C891 C892 1.403 . S
C892 C891 1.403 . S
C892 C893 1.404 . S
C892 C895 1.539 . S
C893 C889 1.408 . S
C893 C892 1.404 . S
C893 H905 0.930 . S
C894 C890 1.524 . S
C894 H906 0.956 . S
C894 H907 0.961 . S
C894 H908 0.961 . S
C895 C892 1.539 . S
C895 H909 0.958 . S
C895 H910 0.961 . S
C895 H911 0.960 . S
H896 C880 0.931 . S
H897 C885 0.929 . S
H898 C886 0.960 . S
H899 C886 0.962 . S
H900 C886 0.960 . S
H901 C887 0.961 . S
H902 C887 0.961 . S
H903 C887 0.961 . S
H904 C888 0.931 . S
H905 C893 0.930 . S
H906 C894 0.956 . S
H907 C894 0.961 . S
H908 C894 0.961 . S
H909 C895 0.958 . S
H910 C895 0.961 . S
H911 C895 0.960 . S
C912 C913 1.391 . S
C912 C914 1.394 1_545 S
C912 H928 0.931 . S
C913 C912 1.391 . S
C913 C917 1.376 1_545 S
C914 C912 1.394 1_565 S
C914 C915 1.369 . S
C914 C918 1.531 . S
C915 C914 1.369 . S
C915 C916 1.410 . S
C915 C923 1.503 . S
C916 C915 1.410 . S
C916 C917 1.392 . S
C916 C919 1.511 . S
C917 C913 1.376 1_565 S
C917 C916 1.392 . S
C917 H929 0.929 . S
C918 C914 1.531 . S
C918 H930 0.960 . S
C918 H931 0.962 . S
C918 H932 0.960 1_565 S
C919 C916 1.511 . S
C919 H933 0.961 . S
C919 H934 0.961 . S
C919 H935 0.961 . S
C920 C921 1.370 . S
C920 C922 1.363 . S
C920 H936 0.931 1_556 S
C921 C920 1.370 . S
C921 C925 1.408 . S
C922 C920 1.363 . S
C922 C923 1.370 . S
C922 C926 1.524 1_556 S
C923 C915 1.503 . S
C923 C922 1.370 . S
C923 C924 1.403 . S
C924 C923 1.403 . S
C924 C925 1.404 . S
C924 C927 1.539 . S
C925 C921 1.408 . S
C925 C924 1.404 . S
C925 H937 0.930 . S
C926 C922 1.524 1_554 S
C926 H938 0.956 . S
C926 H939 0.961 . S
C926 H940 0.961 . S
C927 C924 1.539 . S
C927 H941 0.958 . S
C927 H942 0.961 . S
C927 H943 0.960 . S
H928 C912 0.931 . S
H929 C917 0.929 . S
H930 C918 0.960 . S
H931 C918 0.962 . S
H932 C918 0.960 1_545 S
H933 C919 0.961 . S
H934 C919 0.961 . S
H935 C919 0.961 . S
H936 C920 0.931 1_554 S
H937 C925 0.930 . S
H938 C926 0.956 . S
H939 C926 0.961 . S
H940 C926 0.961 . S
H941 C927 0.958 . S
H942 C927 0.961 . S
H943 C927 0.960 . S
C944 C945 1.391 1_655 S
C944 C946 1.394 . S
C944 H960 0.931 1_655 S
C945 C944 1.391 1_455 S
C945 C949 1.376 1_454 S
C946 C944 1.394 . S
C946 C947 1.369 . S
C946 C950 1.531 . S
C947 C946 1.369 . S
C947 C948 1.410 1_554 S
C947 C955 1.503 . S
C948 C947 1.410 1_556 S
C948 C949 1.392 . S
C948 C951 1.511 . S
C949 C945 1.376 1_656 S
C949 C948 1.392 . S
C949 H961 0.929 1_655 S
C950 C946 1.531 . S
C950 H962 0.960 . S
C950 H963 0.962 . S
C950 H964 0.960 . S
C951 C948 1.511 . S
C951 H965 0.961 . S
C951 H966 0.961 . S
C951 H967 0.961 . S
C952 C953 1.370 . S
C952 C954 1.363 . S
C952 H968 0.931 . S
C953 C952 1.370 . S
C953 C957 1.408 . S
C954 C952 1.363 . S
C954 C955 1.370 . S
C954 C958 1.524 . S
C955 C947 1.503 . S
C955 C954 1.370 . S
C955 C956 1.403 . S
C956 C955 1.403 . S
C956 C957 1.404 . S
C956 C959 1.539 . S
C957 C953 1.408 . S
C957 C956 1.404 . S
C957 H969 0.930 . S
C958 C954 1.524 . S
C958 H970 0.956 . S
C958 H971 0.961 1_554 S
C958 H972 0.961 . S
C959 C956 1.539 . S
C959 H973 0.958 . S
C959 H974 0.961 . S
C959 H975 0.960 . S
H960 C944 0.931 1_455 S
H961 C949 0.929 1_455 S
H962 C950 0.960 . S
H963 C950 0.962 . S
H964 C950 0.960 . S
H965 C951 0.961 . S
H966 C951 0.961 . S
H967 C951 0.961 . S
H968 C952 0.931 . S
H969 C957 0.930 . S
H970 C958 0.956 . S
H971 C958 0.961 1_556 S
H972 C958 0.961 . S
H973 C959 0.958 . S
H974 C959 0.961 . S
H975 C959 0.960 . S
C976 C977 1.391 1_544 S
C976 C978 1.394 1_554 S
C976 H992 0.931 . S
C977 C976 1.391 1_566 S
C977 C981 1.376 . S
C978 C976 1.394 1_556 S
C978 C979 1.369 . S
C978 C982 1.531 1_556 S
C979 C978 1.369 . S
C979 C980 1.410 . S
C979 C987 1.503 . S
C980 C979 1.410 . S
C980 C981 1.392 1_545 S
C980 C983 1.511 . S
C981 C977 1.376 . S
C981 C980 1.392 1_565 S
C981 H993 0.929 . S
C982 C978 1.531 1_554 S
C982 H994 0.960 . S
C982 H995 0.962 1_554 S
C982 H996 0.960 . S
C983 C980 1.511 . S
C983 H997 0.961 1_545 S
C983 H998 0.961 . S
C983 H999 0.961 . S
C984 C985 1.370 . S
C984 C986 1.363 . S
C984 H1000 0.931 . S
C985 C984 1.370 . S
C985 C989 1.408 . S
C986 C984 1.363 . S
C986 C987 1.370 . S
C986 C990 1.524 . S
C987 C979 1.503 . S
C987 C986 1.370 . S
C987 C988 1.403 1_556 S
C988 C987 1.403 1_554 S
C988 C989 1.404 1_554 S
C988 C991 1.539 . S
C989 C985 1.408 . S
C989 C988 1.404 1_556 S
C989 H1001 0.930 1_556 S
C990 C986 1.524 . S
C990 H1002 0.956 . S
C990 H1003 0.961 . S
C990 H1004 0.961 . S
C991 C988 1.539 . S
C991 H1005 0.958 . S
C991 H1006 0.961 . S
C991 H1007 0.960 . S
H992 C976 0.931 . S
H993 C981 0.929 . S
H994 C982 0.960 . S
H995 C982 0.962 1_556 S
H996 C982 0.960 . S
H997 C983 0.961 1_565 S
H998 C983 0.961 . S
H999 C983 0.961 . S
H1000 C984 0.931 . S
H1001 C989 0.930 1_554 S
H1002 C990 0.956 . S
H1003 C990 0.961 . S
H1004 C990 0.961 . S
H1005 C991 0.958 . S
H1006 C991 0.961 . S
H1007 C991 0.960 . S
C1008 C1009 1.391 1_455 S
C1008 C1010 1.394 . S
C1008 H1024 0.931 . S
C1009 C1008 1.391 1_655 S
C1009 C1013 1.376 . S
C1010 C1008 1.394 . S
C1010 C1011 1.369 . S
C1010 C1014 1.531 . S
C1011 C1010 1.369 . S
C1011 C1012 1.410 . S
C1011 C1019 1.503 . S
C1012 C1011 1.410 . S
C1012 C1013 1.392 1_455 S
C1012 C1015 1.511 . S
C1013 C1009 1.376 . S
C1013 C1012 1.392 1_655 S
C1013 H1025 0.929 . S
C1014 C1010 1.531 . S
C1014 H1026 0.960 . S
C1014 H1027 0.962 . S
C1014 H1028 0.960 . S
C1015 C1012 1.511 . S
C1015 H1029 0.961 1_455 S
C1015 H1030 0.961 . S
C1015 H1031 0.961 . S
C1016 C1017 1.370 . S
C1016 C1018 1.363 . S
C1016 H1032 0.931 1_554 S
C1017 C1016 1.370 . S
C1017 C1021 1.408 . S
C1018 C1016 1.363 . S
C1018 C1019 1.370 . S
C1018 C1022 1.524 1_554 S
C1019 C1011 1.503 . S
C1019 C1018 1.370 . S
C1019 C1020 1.403 . S
C1020 C1019 1.403 . S
C1020 C1021 1.404 . S
C1020 C1023 1.539 . S
C1021 C1017 1.408 . S
C1021 C1020 1.404 . S
C1021 H1033 0.930 . S
C1022 C1018 1.524 1_556 S
C1022 H1034 0.956 . S
C1022 H1035 0.961 . S
C1022 H1036 0.961 . S
C1023 C1020 1.539 . S
C1023 H1037 0.958 . S
C1023 H1038 0.961 . S
C1023 H1039 0.960 . S
H1024 C1008 0.931 . S
H1025 C1013 0.929 . S
H1026 C1014 0.960 . S
H1027 C1014 0.962 . S
H1028 C1014 0.960 . S
H1029 C1015 0.961 1_655 S
H1030 C1015 0.961 . S
H1031 C1015 0.961 . S
H1032 C1016 0.931 1_556 S
H1033 C1021 0.930 . S
H1034 C1022 0.956 . S
H1035 C1022 0.961 . S
H1036 C1022 0.961 . S
H1037 C1023 0.958 . S
H1038 C1023 0.961 . S
H1039 C1023 0.960 . S
C1040 C1041 1.391 . S
C1040 C1042 1.394 . S
C1040 H1056 0.931 . S
C1041 C1040 1.391 . S
C1041 C1045 1.376 . S
C1042 C1040 1.394 . S
C1042 C1043 1.369 . S
C1042 C1046 1.531 . S
C1043 C1042 1.369 . S
C1043 C1044 1.410 . S
C1043 C1051 1.503 . S
C1044 C1043 1.410 . S
C1044 C1045 1.392 . S
C1044 C1047 1.511 . S
C1045 C1041 1.376 . S
C1045 C1044 1.392 . S
C1045 H1057 0.929 . S
C1046 C1042 1.531 . S
C1046 H1058 0.960 . S
C1046 H1059 0.962 . S
C1046 H1060 0.960 . S
C1047 C1044 1.511 . S
C1047 H1061 0.961 . S
C1047 H1062 0.961 . S
C1047 H1063 0.961 . S
C1048 C1049 1.370 . S
C1048 C1050 1.363 . S
C1048 H1064 0.931 . S
C1049 C1048 1.370 . S
C1049 C1053 1.408 . S
C1050 C1048 1.363 . S
C1050 C1051 1.370 . S
C1050 C1054 1.524 . S
C1051 C1043 1.503 . S
C1051 C1050 1.370 . S
C1051 C1052 1.403 . S
C1052 C1051 1.403 . S
C1052 C1053 1.404 . S
C1052 C1055 1.539 . S
C1053 C1049 1.408 . S
C1053 C1052 1.404 . S
C1053 H1065 0.930 . S
C1054 C1050 1.524 . S
C1054 H1066 0.956 . S
C1054 H1067 0.961 . S
C1054 H1068 0.961 . S
C1055 C1052 1.539 . S
C1055 H1069 0.958 . S
C1055 H1070 0.961 . S
C1055 H1071 0.960 . S
H1056 C1040 0.931 . S
H1057 C1045 0.929 . S
H1058 C1046 0.960 . S
H1059 C1046 0.962 . S
H1060 C1046 0.960 . S
H1061 C1047 0.961 . S
H1062 C1047 0.961 . S
H1063 C1047 0.961 . S
H1064 C1048 0.931 . S
H1065 C1053 0.930 . S
H1066 C1054 0.956 . S
H1067 C1054 0.961 . S
H1068 C1054 0.961 . S
H1069 C1055 0.958 . S
H1070 C1055 0.961 . S
H1071 C1055 0.960 . S
C1072 C1073 1.391 . S
C1072 C1074 1.394 . S
C1072 H1088 0.931 . S
C1073 C1072 1.391 . S
C1073 C1077 1.376 . S
C1074 C1072 1.394 . S
C1074 C1075 1.369 . S
C1074 C1078 1.531 . S
C1075 C1074 1.369 . S
C1075 C1076 1.410 . S
C1075 C1083 1.503 . S
C1076 C1075 1.410 . S
C1076 C1077 1.392 . S
C1076 C1079 1.511 . S
C1077 C1073 1.376 . S
C1077 C1076 1.392 . S
C1077 H1089 0.929 . S
C1078 C1074 1.531 . S
C1078 H1090 0.960 . S
C1078 H1091 0.962 . S
C1078 H1092 0.960 . S
C1079 C1076 1.511 . S
C1079 H1093 0.961 . S
C1079 H1094 0.961 . S
C1079 H1095 0.961 . S
C1080 C1081 1.370 . S
C1080 C1082 1.363 . S
C1080 H1096 0.931 . S
C1081 C1080 1.370 . S
C1081 C1085 1.408 . S
C1082 C1080 1.363 . S
C1082 C1083 1.370 . S
C1082 C1086 1.524 . S
C1083 C1075 1.503 . S
C1083 C1082 1.370 . S
C1083 C1084 1.403 . S
C1084 C1083 1.403 . S
C1084 C1085 1.404 . S
C1084 C1087 1.539 . S
C1085 C1081 1.408 . S
C1085 C1084 1.404 . S
C1085 H1097 0.930 . S
C1086 C1082 1.524 . S
C1086 H1098 0.956 . S
C1086 H1099 0.961 . S
C1086 H1100 0.961 . S
C1087 C1084 1.539 . S
C1087 H1101 0.958 . S
C1087 H1102 0.961 . S
C1087 H1103 0.960 . S
H1088 C1072 0.931 . S
H1089 C1077 0.929 . S
H1090 C1078 0.960 . S
H1091 C1078 0.962 . S
H1092 C1078 0.960 . S
H1093 C1079 0.961 . S
H1094 C1079 0.961 . S
H1095 C1079 0.961 . S
H1096 C1080 0.931 . S
H1097 C1085 0.930 . S
H1098 C1086 0.956 . S
H1099 C1086 0.961 . S
H1100 C1086 0.961 . S
H1101 C1087 0.958 . S
H1102 C1087 0.961 . S
H1103 C1087 0.960 . S
C1104 C1105 1.391 . S
C1104 C1106 1.394 . S
C1104 H1120 0.931 . S
C1105 C1104 1.391 . S
C1105 C1109 1.376 . S
C1106 C1104 1.394 . S
C1106 C1107 1.369 . S
C1106 C1110 1.531 . S
C1107 C1106 1.369 . S
C1107 C1108 1.410 . S
C1107 C1115 1.503 . S
C1108 C1107 1.410 . S
C1108 C1109 1.392 . S
C1108 C1111 1.511 . S
C1109 C1105 1.376 . S
C1109 C1108 1.392 . S
C1109 H1121 0.929 . S
C1110 C1106 1.531 . S
C1110 H1122 0.960 . S
C1110 H1123 0.962 . S
C1110 H1124 0.960 . S
C1111 C1108 1.511 . S
C1111 H1125 0.961 . S
C1111 H1126 0.961 . S
C1111 H1127 0.961 . S
C1112 C1113 1.370 . S
C1112 C1114 1.363 . S
C1112 H1128 0.931 . S
C1113 C1112 1.370 . S
C1113 C1117 1.408 . S
C1114 C1112 1.363 . S
C1114 C1115 1.370 . S
C1114 C1118 1.524 . S
C1115 C1107 1.503 . S
C1115 C1114 1.370 . S
C1115 C1116 1.403 . S
C1116 C1115 1.403 . S
C1116 C1117 1.404 . S
C1116 C1119 1.539 . S
C1117 C1113 1.408 . S
C1117 C1116 1.404 . S
C1117 H1129 0.930 . S
C1118 C1114 1.524 . S
C1118 H1130 0.956 . S
C1118 H1131 0.961 . S
C1118 H1132 0.961 . S
C1119 C1116 1.539 . S
C1119 H1133 0.958 . S
C1119 H1134 0.961 . S
C1119 H1135 0.960 . S
H1120 C1104 0.931 . S
H1121 C1109 0.929 . S
H1122 C1110 0.960 . S
H1123 C1110 0.962 . S
H1124 C1110 0.960 . S
H1125 C1111 0.961 . S
H1126 C1111 0.961 . S
H1127 C1111 0.961 . S
H1128 C1112 0.931 . S
H1129 C1117 0.930 . S
H1130 C1118 0.956 . S
H1131 C1118 0.961 . S
H1132 C1118 0.961 . S
H1133 C1119 0.958 . S
H1134 C1119 0.961 . S
H1135 C1119 0.960 . S
C1136 C1137 1.391 . S
C1136 C1138 1.394 . S
C1136 H1152 0.931 . S
C1137 C1136 1.391 . S
C1137 C1141 1.376 . S
C1138 C1136 1.394 . S
C1138 C1139 1.369 . S
C1138 C1142 1.531 . S
C1139 C1138 1.369 . S
C1139 C1140 1.410 . S
C1139 C1147 1.503 . S
C1140 C1139 1.410 . S
C1140 C1141 1.392 . S
C1140 C1143 1.511 . S
C1141 C1137 1.376 . S
C1141 C1140 1.392 . S
C1141 H1153 0.929 . S
C1142 C1138 1.531 . S
C1142 H1154 0.960 . S
C1142 H1155 0.962 . S
C1142 H1156 0.960 . S
C1143 C1140 1.511 . S
C1143 H1157 0.961 . S
C1143 H1158 0.961 . S
C1143 H1159 0.961 . S
C1144 C1145 1.370 . S
C1144 C1146 1.363 . S
C1144 H1160 0.931 . S
C1145 C1144 1.370 . S
C1145 C1149 1.408 . S
C1146 C1144 1.363 . S
C1146 C1147 1.370 . S
C1146 C1150 1.524 . S
C1147 C1139 1.503 . S
C1147 C1146 1.370 . S
C1147 C1148 1.403 . S
C1148 C1147 1.403 . S
C1148 C1149 1.404 . S
C1148 C1151 1.539 . S
C1149 C1145 1.408 . S
C1149 C1148 1.404 . S
C1149 H1161 0.930 . S
C1150 C1146 1.524 . S
C1150 H1162 0.956 . S
C1150 H1163 0.961 . S
C1150 H1164 0.961 . S
C1151 C1148 1.539 . S
C1151 H1165 0.958 . S
C1151 H1166 0.961 . S
C1151 H1167 0.960 . S
H1152 C1136 0.931 . S
H1153 C1141 0.929 . S
H1154 C1142 0.960 . S
H1155 C1142 0.962 . S
H1156 C1142 0.960 . S
H1157 C1143 0.961 . S
H1158 C1143 0.961 . S
H1159 C1143 0.961 . S
H1160 C1144 0.931 . S
H1161 C1149 0.930 . S
H1162 C1150 0.956 . S
H1163 C1150 0.961 . S
H1164 C1150 0.961 . S
H1165 C1151 0.958 . S
H1166 C1151 0.961 . S
H1167 C1151 0.960 . S
C273 C15 0.627 . S
C281 C239 0.667 . S
C305 C56 0.622 . S
C313 C139 0.639 . S
C337 C171 0.628 . S
C345 C83 0.638 . S
C369 C117 0.657 . S
C377 C207 0.680 . S
C401 C151 0.619 . S
C409 C105 0.642 . S
C433 C192 0.664 . S
C441 C3 0.710 . S
C465 C219 0.661 . S
C473 C35 0.702 . S
C497 C260 0.659 . S
C505 C71 0.686 . S
C529 C28 1.540 . S
C537 C96 1.555 . S
C561 C130 1.540 . S
C569 C40 1.556 . S
C593 C164 1.566 . S
C601 C232 1.558 . S
C625 C176 1.565 . S
C633 C244 1.564 . S
C657 C205 1.483 . S
C665 C22 1.701 . S
C689 C49 1.687 . S
C697 C241 1.523 . S
C721 C137 1.577 . S
C729 C90 1.681 . S
C753 C124 1.711 . S
C761 C173 1.515 . S
C785 C158 1.667 . S
C793 C69 1.544 . S
C817 C103 1.577 . S
C825 C185 1.678 . S
C849 C226 1.688 . S
C857 C1 1.528 . S
C881 C37 1.570 . S
C889 C253 1.678 . S
C913 C17 1.930 1_556 S
C921 C62 1.940 . S
C945 C51 1.905 1_554 S
C953 C74 1.943 . S
C977 C85 1.884 1_556 S
C985 C108 1.937 . S
C1009 C119 1.929 1_554 S
C1017 C6 1.943 . S
C1041 C198 1.915 . S
C1049 C153 1.907 . S
C1073 C210 1.947 . S
C1081 C187 1.920 . S
C1105 C221 1.883 . S
C1113 C266 1.935 . S
C1137 C142 1.950 . S
C1145 C255 1.915 . S
