# Generated by pormake.
# Topology uns, (4)-cn, num edge types: 1
# Building blocks:
#     Node 0, Type 0, BuildingBlock: CEKHIL_clean_sbu_0, # of connection points: 4
#     Node 1, Type 0, BuildingBlock: CEKHIL_clean_sbu_0, # of connection points: 4
#     Node 2, Type 0, BuildingBlock: CEKHIL_clean_sbu_0, # of connection points: 4
#     Node 3, Type 0, BuildingBlock: CEKHIL_clean_sbu_0, # of connection points: 4
#     Node 4, Type 0, BuildingBlock: CEKHIL_clean_sbu_0, # of connection points: 4
#     Node 5, Type 0, BuildingBlock: CEKHIL_clean_sbu_0, # of connection points: 4
#     Node 6, Type 0, BuildingBlock: CEKHIL_clean_sbu_0, # of connection points: 4
#     Node 7, Type 0, BuildingBlock: CEKHIL_clean_sbu_0, # of connection points: 4
#     Node 8, Type 0, BuildingBlock: CEKHIL_clean_sbu_0, # of connection points: 4
#     Node 9, Type 0, BuildingBlock: CEKHIL_clean_sbu_0, # of connection points: 4
#     Node 10, Type 0, BuildingBlock: CEKHIL_clean_sbu_0, # of connection points: 4
#     Node 11, Type 0, BuildingBlock: CEKHIL_clean_sbu_0, # of connection points: 4
#     Node 12, Type 0, BuildingBlock: CEKHIL_clean_sbu_0, # of connection points: 4
#     Node 13, Type 0, BuildingBlock: CEKHIL_clean_sbu_0, # of connection points: 4
#     Node 14, Type 0, BuildingBlock: CEKHIL_clean_sbu_0, # of connection points: 4
#     Node 15, Type 0, BuildingBlock: CEKHIL_clean_sbu_0, # of connection points: 4
#     Node 16, Type 0, BuildingBlock: CEKHIL_clean_sbu_0, # of connection points: 4
#     Node 17, Type 0, BuildingBlock: CEKHIL_clean_sbu_0, # of connection points: 4
#     Node 18, Type 0, BuildingBlock: CEKHIL_clean_sbu_0, # of connection points: 4
#     Node 19, Type 0, BuildingBlock: CEKHIL_clean_sbu_0, # of connection points: 4
#     Node 20, Type 0, BuildingBlock: CEKHIL_clean_sbu_0, # of connection points: 4
#     Node 21, Type 0, BuildingBlock: CEKHIL_clean_sbu_0, # of connection points: 4
#     Node 22, Type 0, BuildingBlock: CEKHIL_clean_sbu_0, # of connection points: 4
#     Node 23, Type 0, BuildingBlock: CEKHIL_clean_sbu_0, # of connection points: 4
#     Node 24, Type 0, BuildingBlock: CEKHIL_clean_sbu_0, # of connection points: 4
#     Node 25, Type 0, BuildingBlock: CEKHIL_clean_sbu_0, # of connection points: 4
#     Node 26, Type 0, BuildingBlock: CEKHIL_clean_sbu_0, # of connection points: 4
#     Node 27, Type 0, BuildingBlock: CEKHIL_clean_sbu_0, # of connection points: 4
#     Node 28, Type 0, BuildingBlock: CEKHIL_clean_sbu_0, # of connection points: 4
#     Node 29, Type 0, BuildingBlock: CEKHIL_clean_sbu_0, # of connection points: 4
#     Node 30, Type 0, BuildingBlock: CEKHIL_clean_sbu_0, # of connection points: 4
#     Node 31, Type 0, BuildingBlock: CEKHIL_clean_sbu_0, # of connection points: 4
#     Node 32, Type 0, BuildingBlock: CEKHIL_clean_sbu_0, # of connection points: 4
#     Node 33, Type 0, BuildingBlock: CEKHIL_clean_sbu_0, # of connection points: 4
#     Node 34, Type 0, BuildingBlock: CEKHIL_clean_sbu_0, # of connection points: 4
#     Node 35, Type 0, BuildingBlock: CEKHIL_clean_sbu_0, # of connection points: 4
#     Edge 36, Type (0, 0), BuildingBlock: TEMPAE_clean_linker_10, # of connection points: 2
#     Edge 37, Type (0, 0), BuildingBlock: TEMPAE_clean_linker_10, # of connection points: 2
#     Edge 38, Type (0, 0), BuildingBlock: TEMPAE_clean_linker_10, # of connection points: 2
#     Edge 39, Type (0, 0), BuildingBlock: TEMPAE_clean_linker_10, # of connection points: 2
#     Edge 40, Type (0, 0), BuildingBlock: TEMPAE_clean_linker_10, # of connection points: 2
#     Edge 41, Type (0, 0), BuildingBlock: TEMPAE_clean_linker_10, # of connection points: 2
#     Edge 42, Type (0, 0), BuildingBlock: TEMPAE_clean_linker_10, # of connection points: 2
#     Edge 43, Type (0, 0), BuildingBlock: TEMPAE_clean_linker_10, # of connection points: 2
#     Edge 44, Type (0, 0), BuildingBlock: TEMPAE_clean_linker_10, # of connection points: 2
#     Edge 45, Type (0, 0), BuildingBlock: TEMPAE_clean_linker_10, # of connection points: 2
#     Edge 46, Type (0, 0), BuildingBlock: TEMPAE_clean_linker_10, # of connection points: 2
#     Edge 47, Type (0, 0), BuildingBlock: TEMPAE_clean_linker_10, # of connection points: 2
#     Edge 48, Type (0, 0), BuildingBlock: TEMPAE_clean_linker_10, # of connection points: 2
#     Edge 49, Type (0, 0), BuildingBlock: TEMPAE_clean_linker_10, # of connection points: 2
#     Edge 50, Type (0, 0), BuildingBlock: TEMPAE_clean_linker_10, # of connection points: 2
#     Edge 51, Type (0, 0), BuildingBlock: TEMPAE_clean_linker_10, # of connection points: 2
#     Edge 52, Type (0, 0), BuildingBlock: TEMPAE_clean_linker_10, # of connection points: 2
#     Edge 53, Type (0, 0), BuildingBlock: TEMPAE_clean_linker_10, # of connection points: 2
#     Edge 54, Type (0, 0), BuildingBlock: TEMPAE_clean_linker_10, # of connection points: 2
#     Edge 55, Type (0, 0), BuildingBlock: TEMPAE_clean_linker_10, # of connection points: 2
#     Edge 56, Type (0, 0), BuildingBlock: TEMPAE_clean_linker_10, # of connection points: 2
#     Edge 57, Type (0, 0), BuildingBlock: TEMPAE_clean_linker_10, # of connection points: 2
#     Edge 58, Type (0, 0), BuildingBlock: TEMPAE_clean_linker_10, # of connection points: 2
#     Edge 59, Type (0, 0), BuildingBlock: TEMPAE_clean_linker_10, # of connection points: 2
#     Edge 60, Type (0, 0), BuildingBlock: TEMPAE_clean_linker_10, # of connection points: 2
#     Edge 61, Type (0, 0), BuildingBlock: TEMPAE_clean_linker_10, # of connection points: 2
#     Edge 62, Type (0, 0), BuildingBlock: TEMPAE_clean_linker_10, # of connection points: 2
#     Edge 63, Type (0, 0), BuildingBlock: TEMPAE_clean_linker_10, # of connection points: 2
#     Edge 64, Type (0, 0), BuildingBlock: TEMPAE_clean_linker_10, # of connection points: 2
#     Edge 65, Type (0, 0), BuildingBlock: TEMPAE_clean_linker_10, # of connection points: 2
#     Edge 66, Type (0, 0), BuildingBlock: TEMPAE_clean_linker_10, # of connection points: 2
#     Edge 67, Type (0, 0), BuildingBlock: TEMPAE_clean_linker_10, # of connection points: 2
#     Edge 68, Type (0, 0), BuildingBlock: TEMPAE_clean_linker_10, # of connection points: 2
#     Edge 69, Type (0, 0), BuildingBlock: TEMPAE_clean_linker_10, # of connection points: 2
#     Edge 70, Type (0, 0), BuildingBlock: TEMPAE_clean_linker_10, # of connection points: 2
#     Edge 71, Type (0, 0), BuildingBlock: TEMPAE_clean_linker_10, # of connection points: 2
#     Edge 72, Type (0, 0), BuildingBlock: TEMPAE_clean_linker_10, # of connection points: 2
#     Edge 73, Type (0, 0), BuildingBlock: TEMPAE_clean_linker_10, # of connection points: 2
#     Edge 74, Type (0, 0), BuildingBlock: TEMPAE_clean_linker_10, # of connection points: 2
#     Edge 75, Type (0, 0), BuildingBlock: TEMPAE_clean_linker_10, # of connection points: 2
#     Edge 76, Type (0, 0), BuildingBlock: TEMPAE_clean_linker_10, # of connection points: 2
#     Edge 77, Type (0, 0), BuildingBlock: TEMPAE_clean_linker_10, # of connection points: 2
#     Edge 78, Type (0, 0), BuildingBlock: TEMPAE_clean_linker_10, # of connection points: 2
#     Edge 79, Type (0, 0), BuildingBlock: TEMPAE_clean_linker_10, # of connection points: 2
#     Edge 80, Type (0, 0), BuildingBlock: TEMPAE_clean_linker_10, # of connection points: 2
#     Edge 81, Type (0, 0), BuildingBlock: TEMPAE_clean_linker_10, # of connection points: 2
#     Edge 82, Type (0, 0), BuildingBlock: TEMPAE_clean_linker_10, # of connection points: 2
#     Edge 83, Type (0, 0), BuildingBlock: TEMPAE_clean_linker_10, # of connection points: 2
#     Edge 84, Type (0, 0), BuildingBlock: TEMPAE_clean_linker_10, # of connection points: 2
#     Edge 85, Type (0, 0), BuildingBlock: TEMPAE_clean_linker_10, # of connection points: 2
#     Edge 86, Type (0, 0), BuildingBlock: TEMPAE_clean_linker_10, # of connection points: 2
#     Edge 87, Type (0, 0), BuildingBlock: TEMPAE_clean_linker_10, # of connection points: 2
#     Edge 88, Type (0, 0), BuildingBlock: TEMPAE_clean_linker_10, # of connection points: 2
#     Edge 89, Type (0, 0), BuildingBlock: TEMPAE_clean_linker_10, # of connection points: 2
#     Edge 90, Type (0, 0), BuildingBlock: TEMPAE_clean_linker_10, # of connection points: 2
#     Edge 91, Type (0, 0), BuildingBlock: TEMPAE_clean_linker_10, # of connection points: 2
#     Edge 92, Type (0, 0), BuildingBlock: TEMPAE_clean_linker_10, # of connection points: 2
#     Edge 93, Type (0, 0), BuildingBlock: TEMPAE_clean_linker_10, # of connection points: 2
#     Edge 94, Type (0, 0), BuildingBlock: TEMPAE_clean_linker_10, # of connection points: 2
#     Edge 95, Type (0, 0), BuildingBlock: TEMPAE_clean_linker_10, # of connection points: 2
#     Edge 96, Type (0, 0), BuildingBlock: TEMPAE_clean_linker_10, # of connection points: 2
#     Edge 97, Type (0, 0), BuildingBlock: TEMPAE_clean_linker_10, # of connection points: 2
#     Edge 98, Type (0, 0), BuildingBlock: TEMPAE_clean_linker_10, # of connection points: 2
#     Edge 99, Type (0, 0), BuildingBlock: TEMPAE_clean_linker_10, # of connection points: 2
#     Edge 100, Type (0, 0), BuildingBlock: TEMPAE_clean_linker_10, # of connection points: 2
#     Edge 101, Type (0, 0), BuildingBlock: TEMPAE_clean_linker_10, # of connection points: 2
#     Edge 102, Type (0, 0), BuildingBlock: TEMPAE_clean_linker_10, # of connection points: 2
#     Edge 103, Type (0, 0), BuildingBlock: TEMPAE_clean_linker_10, # of connection points: 2
#     Edge 104, Type (0, 0), BuildingBlock: TEMPAE_clean_linker_10, # of connection points: 2
#     Edge 105, Type (0, 0), BuildingBlock: TEMPAE_clean_linker_10, # of connection points: 2
#     Edge 106, Type (0, 0), BuildingBlock: TEMPAE_clean_linker_10, # of connection points: 2
#     Edge 107, Type (0, 0), BuildingBlock: TEMPAE_clean_linker_10, # of connection points: 2
# Relax obj value: 0.114
# Max RMSD: 0.262
# Mean RMSD: 0.246
data_MOF--net-uns--node1-CEKHIL_clean_sbu_0--edge1-TEMPAE_clean_linker_10
_symmetry_space_group_name_H-M    P1
_symmetry_Int_Tables_number       1
_symmetry_cell_setting            triclinic
loop_
_symmetry_equiv_pos_as_xyz
'x, y, z'
_cell_length_a     55.516189
_cell_length_b     54.674291
_cell_length_c     56.117746
_cell_angle_alpha  91.218433
_cell_angle_beta   89.997922
_cell_angle_gamma 120.5056
loop_
_atom_site_label
_atom_site_type_symbol
_atom_site_fract_x
_atom_site_fract_y
_atom_site_fract_z
_atom_type_partial_charge
Co0 Co 0.29882 0.20648 0.03744 0.0
O1 O 0.31345 0.18886 0.05744 0.0
O2 O 0.29553 0.21466 0.07069 0.0
C3 C 0.27455 0.16931 0.01225 0.0
O4 O 0.28057 0.22671 0.02191 0.0
Co5 Co 0.31814 0.21845 0.98555 0.0
O6 O 0.28793 0.22757 0.98249 0.0
C7 C 0.35718 0.25279 0.02327 0.0
C8 C 0.30796 0.20048 0.07539 0.0
C9 C 0.27621 0.23167 0.00044 0.0
O10 O 0.33661 0.24147 0.03758 0.0
O11 O 0.35528 0.24568 0.00121 0.0
O12 O 0.26403 0.17086 0.03256 0.0
O13 O 0.30042 0.18863 0.00898 0.0
Co14 Co 0.82208 0.09691 0.06054 0.0
O15 O 0.86033 0.11149 0.05222 0.0
O16 O 0.82726 0.10606 0.02688 0.0
C17 C 0.82941 0.12338 0.09383 0.0
O18 O 0.78042 0.08272 0.06406 0.0
Co19 Co 0.80187 0.06285 0.10701 0.0
O20 O 0.77057 0.0701 0.10244 0.0
C21 C 0.80658 0.03452 0.06377 0.0
C22 C 0.85336 0.11378 0.03072 0.0
C23 C 0.76423 0.07568 0.08225 0.0
O24 O 0.81329 0.05719 0.05238 0.0
O25 O 0.80299 0.03276 0.08636 0.0
O26 O 0.83021 0.13367 0.07304 0.0
O27 O 0.82839 0.09916 0.09371 0.0
Co28 Co 0.90289 0.71871 0.05234 0.0
O29 O 0.89434 0.74782 0.04587 0.0
O30 O 0.89162 0.71634 0.01905 0.0
C31 C 0.87819 0.7036 0.08621 0.0
O32 O 0.90943 0.68509 0.0537 0.0
Co33 Co 0.93795 0.72609 0.09807 0.0
O34 O 0.92369 0.68522 0.09139 0.0
C35 C 0.96675 0.75773 0.0554 0.0
C36 C 0.88814 0.7377 0.02423 0.0
C37 C 0.91483 0.67331 0.07098 0.0
O38 O 0.94332 0.7448 0.04388 0.0
O39 O 0.96888 0.75485 0.07777 0.0
O40 O 0.86584 0.69514 0.06556 0.0
O41 O 0.9042 0.72351 0.08569 0.0
Co42 Co 0.17835 0.26581 0.45035 0.0
O43 O 0.14019 0.23762 0.45642 0.0
O44 O 0.16975 0.2672 0.48386 0.0
C45 C 0.16993 0.28322 0.41729 0.0
O46 O 0.21905 0.29838 0.44966 0.0
Co47 Co 0.20558 0.2594 0.40393 0.0
O48 O 0.23312 0.29973 0.41176 0.0
C49 C 0.20097 0.225 0.44519 0.0
C50 C 0.14452 0.24688 0.47835 0.0
C51 C 0.2364 0.31069 0.43261 0.0
O52 O 0.19099 0.23797 0.45741 0.0
O53 O 0.20643 0.22907 0.42296 0.0
O54 O 0.16641 0.2912 0.4383 0.0
O55 O 0.17497 0.26255 0.41693 0.0
Co56 Co 0.71618 0.89811 0.44678 0.0
O57 O 0.73762 0.88192 0.4577 0.0
O58 O 0.71204 0.89285 0.48108 0.0
C59 C 0.69567 0.86919 0.41506 0.0
O60 O 0.69109 0.91467 0.44056 0.0
Co61 Co 0.73197 0.9275 0.39786 0.0
O62 O 0.69468 0.92392 0.40128 0.0
C63 C 0.76601 0.95831 0.43994 0.0
C64 C 0.72892 0.88296 0.47888 0.0
C65 C 0.6829 0.92102 0.42135 0.0
O66 O 0.74897 0.93737 0.45262 0.0
O67 O 0.76436 0.95803 0.41716 0.0
O68 O 0.68575 0.86122 0.43625 0.0
O69 O 0.71983 0.89226 0.41419 0.0
Co70 Co 0.09002 0.77627 0.46374 0.0
O71 O 0.12388 0.78991 0.44632 0.0
O72 O 0.08172 0.7701 0.42972 0.0
C73 C 0.10474 0.81351 0.48919 0.0
O74 O 0.05081 0.76047 0.47704 0.0
Co75 Co 0.09243 0.76122 0.51572 0.0
O76 O 0.05376 0.75483 0.51635 0.0
C77 C 0.09782 0.72802 0.47774 0.0
C78 C 0.10852 0.78049 0.42718 0.0
C79 C 0.03997 0.75438 0.49795 0.0
O80 O 0.08671 0.73827 0.46435 0.0
O81 O 0.10497 0.73623 0.4994 0.0
O82 O 0.09578 0.81414 0.46792 0.0
O83 O 0.10799 0.79208 0.49314 0.0
Co84 Co 0.73749 0.82252 0.92097 0.0
O85 O 0.71831 0.83794 0.90418 0.0
O86 O 0.76238 0.85017 0.89816 0.0
C87 C 0.70394 0.77676 0.91555 0.0
O88 O 0.763 0.8092 0.935 0.0
Co89 Co 0.7101 0.78991 0.96709 0.0
O90 O 0.73699 0.7766 0.96209 0.0
C91 C 0.73973 0.85236 0.96831 0.0
C92 C 0.74089 0.85238 0.89216 0.0
C93 C 0.75881 0.78921 0.94933 0.0
O94 O 0.74875 0.85257 0.94711 0.0
O95 O 0.72209 0.82956 0.97864 0.0
O96 O 0.72207 0.78997 0.8991 0.0
O97 O 0.70465 0.79242 0.93347 0.0
Co98 Co 0.16821 0.92657 0.93743 0.0
O99 O 0.12976 0.9092 0.94618 0.0
O100 O 0.15762 0.89317 0.95642 0.0
C101 C 0.18008 0.97144 0.94756 0.0
O102 O 0.20956 0.9407 0.93165 0.0
Co103 Co 0.18727 0.96882 0.89557 0.0
O104 O 0.22469 0.97833 0.90775 0.0
C105 C 0.15893 0.90754 0.88487 0.0
C106 C 0.13311 0.89089 0.95773 0.0
C107 C 0.2292 0.96233 0.92098 0.0
O108 O 0.15839 0.90277 0.90724 0.0
O109 O 0.16749 0.93217 0.87648 0.0
O110 O 0.1788 0.95408 0.96358 0.0
O111 O 0.17053 0.96006 0.92669 0.0
Co112 Co 0.0773 0.25254 0.9334 0.0
O113 O 0.09445 0.23124 0.94251 0.0
O114 O 0.11339 0.27744 0.94893 0.0
C115 C 0.03417 0.22249 0.94731 0.0
O116 O 0.06435 0.28078 0.92672 0.0
Co117 Co 0.02963 0.22419 0.89499 0.0
O118 O 0.02713 0.25849 0.90157 0.0
C119 C 0.08817 0.25438 0.8796 0.0
C120 C 0.11525 0.25474 0.95096 0.0
C121 C 0.04436 0.27994 0.91429 0.0
O122 O 0.09628 0.26062 0.90148 0.0
O123 O 0.06251 0.23863 0.87329 0.0
O124 O 0.05389 0.24063 0.96156 0.0
O125 O 0.04215 0.22044 0.92609 0.0
Co126 Co 0.83013 0.75591 0.56282 0.0
O127 O 0.86912 0.77444 0.55543 0.0
O128 O 0.83832 0.72992 0.54526 0.0
C129 C 0.82224 0.79068 0.55168 0.0
O130 O 0.78802 0.73082 0.56737 0.0
Co131 Co 0.81344 0.78338 0.60398 0.0
O132 O 0.77555 0.7565 0.5909 0.0
C133 C 0.83706 0.74791 0.61593 0.0
C134 C 0.86412 0.75089 0.54506 0.0
C135 C 0.76944 0.73493 0.57748 0.0
O136 O 0.83693 0.74205 0.59363 0.0
O137 O 0.83076 0.76602 0.62395 0.0
O138 O 0.82303 0.77335 0.53594 0.0
O139 O 0.83038 0.78905 0.57292 0.0
Co140 Co 0.2359 0.05676 0.56206 0.0
O141 O 0.21262 0.06995 0.54936 0.0
O142 O 0.2576 0.08884 0.54154 0.0
C143 C 0.20659 0.0101 0.55461 0.0
O144 O 0.26554 0.04719 0.57187 0.0
Co145 Co 0.21385 0.02 0.60716 0.0
O146 O 0.24812 0.01775 0.60295 0.0
C147 C 0.24294 0.08184 0.61288 0.0
C148 C 0.23434 0.08879 0.53816 0.0
C149 C 0.26732 0.03162 0.58793 0.0
O150 O 0.24687 0.08377 0.59029 0.0
O151 O 0.22807 0.05817 0.62318 0.0
O152 O 0.22234 0.02661 0.53799 0.0
O153 O 0.206 0.02295 0.57406 0.0
Co154 Co 0.90987 0.17521 0.57529 0.0
O155 O 0.8739 0.16431 0.5878 0.0
O156 O 0.89987 0.147 0.60008 0.0
C157 C 0.92635 0.22215 0.57816 0.0
O158 O 0.94926 0.18402 0.56584 0.0
Co159 Co 0.92405 0.20676 0.5272 0.0
O160 O 0.96227 0.21709 0.53761 0.0
C161 C 0.88672 0.14487 0.52713 0.0
C162 C 0.87716 0.14833 0.60247 0.0
C163 C 0.96797 0.20332 0.55247 0.0
O164 O 0.89216 0.14474 0.54942 0.0
O165 O 0.89533 0.16763 0.51544 0.0
O166 O 0.92707 0.20848 0.59647 0.0
O167 O 0.91285 0.20657 0.55974 0.0
Co168 Co 0.98388 0.55829 0.36731 0.0
O169 O 0.00163 0.54164 0.38437 0.0
O170 O 0.98326 0.56521 0.4014 0.0
C171 C 0.95825 0.52117 0.34241 0.0
O172 O 0.96298 0.57736 0.35475 0.0
Co173 Co 0.99937 0.57177 0.31498 0.0
O174 O 0.96785 0.57922 0.31496 0.0
C175 C 0.04058 0.60575 0.35122 0.0
C176 C 0.99724 0.5521 0.40369 0.0
C177 C 0.95682 0.58227 0.33388 0.0
O178 O 0.02072 0.59427 0.36616 0.0
O179 O 0.03764 0.59861 0.32912 0.0
O180 O 0.94957 0.5221 0.36374 0.0
O181 O 0.98356 0.54104 0.33778 0.0
Co182 Co 0.49087 0.42495 0.39774 0.0
O183 O 0.52777 0.43357 0.38921 0.0
O184 O 0.49774 0.43542 0.36444 0.0
C185 C 0.50221 0.45072 0.4321 0.0
O186 O 0.45115 0.41783 0.40135 0.0
Co187 Co 0.46602 0.3898 0.44361 0.0
O188 O 0.43753 0.4009 0.43834 0.0
C189 C 0.46732 0.36072 0.39961 0.0
C190 C 0.52243 0.43876 0.36804 0.0
C191 C 0.43412 0.41059 0.41898 0.0
O192 O 0.47549 0.38384 0.38838 0.0
O193 O 0.46477 0.3591 0.42228 0.0
O194 O 0.50558 0.46283 0.41175 0.0
O195 O 0.49601 0.42448 0.43076 0.0
Co196 Co 0.57092 0.06932 0.38693 0.0
O197 O 0.55952 0.09598 0.37917 0.0
O198 O 0.55995 0.06507 0.35342 0.0
C199 C 0.54602 0.05358 0.42072 0.0
O200 O 0.58054 0.03794 0.38968 0.0
Co201 Co 0.60663 0.08138 0.43306 0.0
O202 O 0.59582 0.04115 0.42751 0.0
C203 C 0.63425 0.11209 0.38978 0.0
C204 C 0.55433 0.08515 0.35773 0.0
C205 C 0.58744 0.02807 0.40746 0.0
O206 O 0.61085 0.09742 0.37845 0.0
O207 O 0.63675 0.11044 0.41229 0.0
O208 O 0.53422 0.04396 0.4 0.0
O209 O 0.57141 0.07492 0.42024 0.0
Co210 Co 0.84285 0.6073 0.77969 0.0
O211 O 0.80463 0.57988 0.7863 0.0
O212 O 0.83471 0.61006 0.81315 0.0
C213 C 0.83431 0.62379 0.74613 0.0
O214 O 0.88383 0.63919 0.77819 0.0
Co215 Co 0.86831 0.59746 0.73353 0.0
O216 O 0.89814 0.63706 0.74091 0.0
C217 C 0.86378 0.56497 0.77603 0.0
C218 C 0.80929 0.58986 0.808 0.0
C219 C 0.90166 0.64946 0.76115 0.0
O220 O 0.85489 0.57927 0.78772 0.0
O221 O 0.86837 0.56738 0.75359 0.0
O222 O 0.8314 0.63272 0.76692 0.0
O223 O 0.83886 0.60279 0.74632 0.0
Co224 Co 0.39698 0.2364 0.77009 0.0
O225 O 0.42373 0.22506 0.77708 0.0
O226 O 0.3941 0.2255 0.80322 0.0
C227 C 0.37974 0.21088 0.73583 0.0
O228 O 0.36621 0.24642 0.76826 0.0
Co229 Co 0.40791 0.27235 0.72453 0.0
O230 O 0.37114 0.26764 0.73296 0.0
C231 C 0.44074 0.29992 0.7679 0.0
C232 C 0.41402 0.2202 0.79854 0.0
C233 C 0.35802 0.25721 0.75217 0.0
O234 O 0.42514 0.27706 0.77927 0.0
O235 O 0.43923 0.30167 0.74529 0.0
O236 O 0.37127 0.19895 0.75625 0.0
O237 O 0.4009 0.23655 0.7368 0.0
Co238 Co 0.75864 0.1176 0.79247 0.0
O239 O 0.79127 0.13654 0.77299 0.0
O240 O 0.74801 0.10981 0.75901 0.0
C241 C 0.76967 0.1538 0.81823 0.0
O242 O 0.71989 0.09597 0.80742 0.0
Co243 Co 0.7657 0.10471 0.8441 0.0
O244 O 0.72598 0.09448 0.84683 0.0
C245 C 0.77369 0.07328 0.80586 0.0
C246 C 0.77469 0.1247 0.75474 0.0
C247 C 0.7103 0.09043 0.82879 0.0
O248 O 0.76295 0.08353 0.79196 0.0
O249 O 0.77859 0.08006 0.82799 0.0
O250 O 0.75797 0.15238 0.79774 0.0
O251 O 0.77714 0.13514 0.8213 0.0
Co252 Co 0.3885 0.14871 0.25575 0.0
O253 O 0.36362 0.15969 0.24305 0.0
O254 O 0.40729 0.17762 0.23161 0.0
C255 C 0.35831 0.10178 0.25191 0.0
O256 O 0.41904 0.14004 0.26553 0.0
Co257 Co 0.37011 0.11593 0.30318 0.0
O258 O 0.39859 0.10626 0.29313 0.0
C259 C 0.39417 0.17778 0.30425 0.0
C260 C 0.38326 0.17621 0.2289 0.0
C261 C 0.41841 0.1206 0.27873 0.0
O262 O 0.40037 0.1785 0.28207 0.0
O263 O 0.37985 0.15469 0.31551 0.0
O264 O 0.37319 0.11598 0.23399 0.0
O265 O 0.35983 0.11685 0.27053 0.0
Co266 Co 0.83805 0.27603 0.27047 0.0
O267 O 0.79946 0.2605 0.27841 0.0
O268 O 0.8251 0.24213 0.28929 0.0
C269 C 0.85209 0.32153 0.28074 0.0
O270 O 0.87911 0.28776 0.26597 0.0
Co271 Co 0.86236 0.31976 0.22972 0.0
O272 O 0.89813 0.32724 0.24405 0.0
C273 C 0.83227 0.25828 0.2177 0.0
C274 C 0.80124 0.24132 0.29013 0.0
C275 C 0.90037 0.30952 0.25691 0.0
O276 O 0.82782 0.25243 0.23994 0.0
O277 O 0.84428 0.28366 0.21003 0.0
O278 O 0.84922 0.30353 0.29678 0.0
O279 O 0.84302 0.31068 0.25966 0.0
Co280 Co 0.74698 0.58391 0.27469 0.0
O281 O 0.76765 0.56659 0.28478 0.0
O282 O 0.78151 0.61188 0.29109 0.0
C283 C 0.70471 0.5503 0.28755 0.0
O284 O 0.72915 0.60768 0.26683 0.0
Co285 Co 0.70302 0.55098 0.23443 0.0
O286 O 0.69148 0.57868 0.24384 0.0
C287 C 0.76167 0.58617 0.22158 0.0
C288 C 0.78632 0.59106 0.29359 0.0
C289 C 0.70626 0.60173 0.25588 0.0
O290 O 0.76731 0.59448 0.24349 0.0
O291 O 0.73744 0.56677 0.21423 0.0
O292 O 0.72282 0.5696 0.30218 0.0
O293 O 0.71432 0.54937 0.26672 0.0
Co294 Co 0.49249 0.07392 0.89561 0.0
O295 O 0.53104 0.09426 0.88665 0.0
O296 O 0.5028 0.04826 0.88014 0.0
C297 C 0.48092 0.10513 0.88146 0.0
O298 O 0.45104 0.04657 0.9022 0.0
Co299 Co 0.47421 0.10333 0.93376 0.0
O300 O 0.43698 0.06956 0.92742 0.0
C301 C 0.50037 0.07109 0.94949 0.0
C302 C 0.5277 0.0705 0.87821 0.0
C303 C 0.43221 0.04792 0.91471 0.0
O304 O 0.50269 0.06518 0.92761 0.0
O305 O 0.49093 0.08728 0.95571 0.0
O306 O 0.48176 0.08646 0.86736 0.0
O307 O 0.49064 0.10683 0.90276 0.0
Co308 Co 0.89733 0.39602 0.89348 0.0
O309 O 0.87541 0.41261 0.8851 0.0
O310 O 0.91927 0.42943 0.87435 0.0
C311 C 0.86502 0.35082 0.88365 0.0
O312 O 0.92541 0.38291 0.89878 0.0
Co313 Co 0.87588 0.35393 0.93549 0.0
O314 O 0.90414 0.34523 0.92277 0.0
C315 C 0.90813 0.41531 0.94597 0.0
C316 C 0.89673 0.43117 0.87334 0.0
C317 C 0.92424 0.3616 0.90934 0.0
O318 O 0.91146 0.42002 0.92354 0.0
O319 O 0.89282 0.39062 0.95454 0.0
O320 O 0.88048 0.36836 0.86747 0.0
O321 O 0.86686 0.36216 0.90455 0.0
Co322 Co 0.57487 0.51687 0.9062 0.0
O323 O 0.53879 0.50503 0.91886 0.0
O324 O 0.56552 0.48829 0.93048 0.0
C325 C 0.5906 0.56366 0.9096 0.0
O326 O 0.61443 0.52659 0.8965 0.0
Co327 Co 0.58799 0.54849 0.85834 0.0
O328 O 0.62657 0.55959 0.86834 0.0
C329 C 0.55181 0.48651 0.85798 0.0
C330 C 0.54242 0.48886 0.93303 0.0
C331 C 0.63279 0.54608 0.88305 0.0
O332 O 0.55757 0.4866 0.8802 0.0
O333 O 0.55981 0.5092 0.84632 0.0
O334 O 0.59158 0.54983 0.92769 0.0
O335 O 0.57716 0.54822 0.89107 0.0
Co336 Co 0.6462 0.88024 0.70587 0.0
O337 O 0.66677 0.8672 0.72381 0.0
O338 O 0.64358 0.88653 0.73978 0.0
C339 C 0.62392 0.8427 0.68068 0.0
O340 O 0.62247 0.89565 0.69219 0.0
Co341 Co 0.66281 0.89412 0.65327 0.0
O342 O 0.6305 0.90033 0.65273 0.0
C343 C 0.70075 0.93138 0.69032 0.0
C344 C 0.66001 0.87626 0.74271 0.0
C345 C 0.61759 0.90145 0.67118 0.0
O346 O 0.68071 0.91847 0.70492 0.0
O347 O 0.6994 0.92371 0.66846 0.0
O348 O 0.61435 0.84215 0.70194 0.0
O349 O 0.64849 0.86422 0.67662 0.0
Co350 Co 0.15482 0.76247 0.71709 0.0
O351 O 0.1911 0.77066 0.70701 0.0
O352 O 0.15964 0.77158 0.68338 0.0
C353 C 0.16832 0.78965 0.75071 0.0
O354 O 0.11526 0.75531 0.72256 0.0
Co355 Co 0.13319 0.72955 0.76443 0.0
O356 O 0.1049 0.74119 0.76062 0.0
C357 C 0.13234 0.69867 0.72079 0.0
C358 C 0.18443 0.77482 0.686 0.0
C359 C 0.09975 0.7494 0.74118 0.0
O360 O 0.13919 0.72105 0.70885 0.0
O361 O 0.13134 0.69822 0.74358 0.0
O362 O 0.17023 0.80091 0.73016 0.0
O363 O 0.16218 0.76343 0.7498 0.0
Co364 Co 0.24224 0.39972 0.72173 0.0
O365 O 0.22982 0.42562 0.71427 0.0
O366 O 0.23393 0.39768 0.68765 0.0
C367 C 0.21494 0.38038 0.75349 0.0
O368 O 0.25368 0.36964 0.72423 0.0
Co369 Co 0.27384 0.40916 0.76974 0.0
O370 O 0.26274 0.36895 0.76331 0.0
C371 C 0.30488 0.44314 0.72874 0.0
C372 C 0.22692 0.4167 0.69233 0.0
C373 C 0.2579 0.35801 0.74233 0.0
O374 O 0.28231 0.42979 0.71611 0.0
O375 O 0.30575 0.43924 0.75108 0.0
O376 O 0.20509 0.37173 0.73207 0.0
O377 O 0.23956 0.40289 0.75497 0.0
Co378 Co 0.5044 0.92844 0.11192 0.0
O379 O 0.466 0.90231 0.11887 0.0
O380 O 0.49694 0.93206 0.14542 0.0
C381 C 0.49717 0.94582 0.07842 0.0
O382 O 0.54576 0.95896 0.10984 0.0
Co383 Co 0.52845 0.91671 0.06611 0.0
O384 O 0.55699 0.95735 0.07144 0.0
C385 C 0.52475 0.8855 0.10922 0.0
C386 C 0.47124 0.91229 0.14057 0.0
C387 C 0.56218 0.9696 0.09192 0.0
O388 O 0.51496 0.89938 0.12026 0.0
O389 O 0.53009 0.88797 0.08691 0.0
O390 O 0.49492 0.95526 0.0992 0.0
O391 O 0.49973 0.92354 0.07854 0.0
Co392 Co 0.05434 0.56 0.11136 0.0
O393 O 0.08259 0.55156 0.12035 0.0
O394 O 0.05085 0.55039 0.1449 0.0
C395 C 0.0399 0.53334 0.07748 0.0
O396 O 0.02179 0.56712 0.10716 0.0
Co397 Co 0.06433 0.59371 0.06467 0.0
O398 O 0.02447 0.58184 0.06942 0.0
C399 C 0.09505 0.62407 0.10824 0.0
C400 C 0.07219 0.54696 0.14156 0.0
C401 C 0.01164 0.57321 0.08903 0.0
O402 O 0.08021 0.60131 0.11995 0.0
O403 O 0.09385 0.62501 0.08551 0.0
O404 O 0.03108 0.52177 0.09801 0.0
O405 O 0.05995 0.55957 0.07842 0.0
Co406 Co 0.42224 0.44712 0.12312 0.0
O407 O 0.45498 0.46423 0.10375 0.0
O408 O 0.41155 0.4399 0.08961 0.0
C409 C 0.43579 0.48421 0.14853 0.0
O410 O 0.38345 0.42771 0.13817 0.0
Co411 Co 0.42839 0.43424 0.17509 0.0
O412 O 0.38946 0.42643 0.17764 0.0
C413 C 0.43133 0.39879 0.13736 0.0
C414 C 0.4383 0.45366 0.08544 0.0
C415 C 0.37393 0.42284 0.15959 0.0
O416 O 0.42354 0.41129 0.1229 0.0
O417 O 0.43636 0.40556 0.15949 0.0
O418 O 0.42426 0.48329 0.12809 0.0
O419 O 0.44144 0.46426 0.15182 0.0
Co420 Co 0.06443 0.48241 0.58471 0.0
O421 O 0.04016 0.4923 0.56913 0.0
O422 O 0.08481 0.5109 0.56052 0.0
C423 C 0.03492 0.43533 0.58135 0.0
O424 O 0.09447 0.47454 0.59767 0.0
Co425 Co 0.04275 0.45135 0.63257 0.0
O426 O 0.07221 0.4419 0.62583 0.0
C427 C 0.06589 0.51291 0.63146 0.0
C428 C 0.06077 0.50872 0.55576 0.0
C429 C 0.09296 0.45566 0.61212 0.0
O430 O 0.07394 0.51291 0.60996 0.0
O431 O 0.05088 0.4902 0.643 0.0
O432 O 0.0511 0.44906 0.56386 0.0
O433 O 0.03489 0.45086 0.59902 0.0
Co434 Co 0.50807 0.60128 0.60786 0.0
O435 O 0.4717 0.58867 0.6204 0.0
O436 O 0.49784 0.57025 0.62964 0.0
C437 C 0.52552 0.64811 0.61385 0.0
O438 O 0.54732 0.61078 0.59827 0.0
Co439 Co 0.5217 0.63593 0.5615 0.0
O440 O 0.55856 0.63915 0.56648 0.0
C441 C 0.48957 0.57399 0.55773 0.0
C442 C 0.47475 0.57066 0.6327 0.0
C443 C 0.56441 0.62612 0.58196 0.0
O444 O 0.49216 0.57306 0.58038 0.0
O445 O 0.49762 0.59707 0.5467 0.0
O446 O 0.52467 0.63228 0.63109 0.0
O447 O 0.51181 0.6345 0.59471 0.0
Co448 Co 0.41355 0.91192 0.60266 0.0
O449 O 0.43379 0.89292 0.60891 0.0
O450 O 0.44753 0.93681 0.62109 0.0
C451 C 0.37072 0.87669 0.61297 0.0
O452 O 0.39622 0.93696 0.59943 0.0
Co453 Co 0.37025 0.88603 0.56083 0.0
O454 O 0.35824 0.91131 0.5757 0.0
C455 C 0.42932 0.92313 0.54977 0.0
C456 C 0.45209 0.91564 0.62039 0.0
C457 C 0.37318 0.93244 0.58972 0.0
O458 O 0.43469 0.92769 0.57223 0.0
O459 O 0.40514 0.9052 0.54121 0.0
O460 O 0.38877 0.89321 0.62908 0.0
O461 O 0.38075 0.87908 0.59174 0.0
Co462 Co 0.15948 0.40758 0.23203 0.0
O463 O 0.19727 0.42763 0.22121 0.0
O464 O 0.16807 0.38185 0.21433 0.0
C465 C 0.14712 0.43914 0.22085 0.0
O466 O 0.11855 0.38098 0.24047 0.0
Co467 Co 0.14673 0.43724 0.27403 0.0
O468 O 0.10857 0.40404 0.26918 0.0
C469 C 0.17405 0.40508 0.28455 0.0
C470 C 0.19295 0.40394 0.2117 0.0
C471 C 0.10159 0.3827 0.2552 0.0
O472 O 0.17127 0.39742 0.26245 0.0
O473 O 0.16808 0.42333 0.29277 0.0
O474 O 0.14716 0.42103 0.20554 0.0
O475 O 0.15869 0.44052 0.24125 0.0
Co476 Co 0.56508 0.72498 0.23272 0.0
O477 O 0.5415 0.7389 0.22226 0.0
O478 O 0.58679 0.75996 0.21526 0.0
C479 C 0.5364 0.67957 0.22029 0.0
O480 O 0.59522 0.71519 0.24049 0.0
Co481 Co 0.54142 0.67947 0.27234 0.0
O482 O 0.57662 0.67953 0.26669 0.0
C483 C 0.56864 0.7403 0.28592 0.0
C484 C 0.56316 0.75925 0.21215 0.0
C485 C 0.59668 0.69698 0.25377 0.0
O486 O 0.57368 0.7472 0.26391 0.0
O487 O 0.55427 0.71457 0.29261 0.0
O488 O 0.55311 0.69853 0.20553 0.0
O489 O 0.53515 0.68928 0.24114 0.0
Co490 Co 0.23956 0.84181 0.24453 0.0
O491 O 0.20581 0.83088 0.2613 0.0
O492 O 0.23377 0.81406 0.26868 0.0
C493 C 0.25573 0.88865 0.24774 0.0
O494 O 0.27737 0.85095 0.23049 0.0
Co495 Co 0.2462 0.87208 0.19668 0.0
O496 O 0.28571 0.8829 0.2022 0.0
C497 C 0.20972 0.81022 0.19833 0.0
C498 C 0.21165 0.81538 0.27436 0.0
C499 C 0.29384 0.86988 0.21566 0.0
O500 O 0.21846 0.81076 0.21968 0.0
O501 O 0.21631 0.83264 0.18672 0.0
O502 O 0.2594 0.87547 0.26501 0.0
O503 O 0.23976 0.87265 0.23042 0.0
C504 C 0.3274 0.22311 0.11543 0.0
C505 C 0.31844 0.19997 0.09947 0.0
C506 C 0.34076 0.22429 0.13711 0.0
C507 C 0.3446 0.20143 0.14312 0.0
C508 C 0.33484 0.17768 0.12726 0.0
C509 C 0.32232 0.17747 0.1055 0.0
C510 C 0.35153 0.25045 0.15303 0.0
C511 C 0.3373 0.15224 0.13338 0.0
C512 C 0.39455 0.20188 0.18991 0.0
C513 C 0.37622 0.18882 0.20882 0.0
C514 C 0.38517 0.20839 0.16891 0.0
C515 C 0.35675 0.20088 0.16667 0.0
C516 C 0.33886 0.18958 0.18636 0.0
C517 C 0.34892 0.18412 0.20723 0.0
C518 C 0.40523 0.22207 0.14872 0.0
C519 C 0.30847 0.18139 0.18486 0.0
H520 H 0.32488 0.24078 0.1106 0.0
H521 H 0.31546 0.15958 0.09314 0.0
H522 H 0.34982 0.24533 0.17219 0.0
H523 H 0.37399 0.26501 0.14926 0.0
H524 H 0.34013 0.26188 0.14971 0.0
H525 H 0.32805 0.13522 0.11935 0.0
H526 H 0.3596 0.15875 0.13589 0.0
H527 H 0.32657 0.14334 0.15043 0.0
H528 H 0.41574 0.20589 0.19107 0.0
H529 H 0.33465 0.17449 0.22188 0.0
H530 H 0.40348 0.24 0.14182 0.0
H531 H 0.39983 0.20642 0.13382 0.0
H532 H 0.42724 0.23007 0.1543 0.0
H533 H 0.30668 0.19974 0.17926 0.0
H534 H 0.29761 0.17391 0.2021 0.0
H535 H 0.29747 0.16418 0.17119 0.0
C536 C 0.80448 0.14462 0.1139 0.0
C537 C 0.8244 0.13618 0.11517 0.0
C538 C 0.80159 0.16037 0.13251 0.0
C539 C 0.81999 0.169 0.15241 0.0
C540 C 0.83932 0.15936 0.15429 0.0
C541 C 0.84097 0.14258 0.13571 0.0
C542 C 0.78005 0.16928 0.13014 0.0
C543 C 0.85971 0.1686 0.17495 0.0
C544 C 0.84085 0.24164 0.17862 0.0
C545 C 0.82657 0.23503 0.20032 0.0
C546 C 0.839 0.22032 0.16313 0.0
C547 C 0.82188 0.19148 0.1691 0.0
C548 C 0.80659 0.18449 0.19056 0.0
C549 C 0.80939 0.20638 0.20609 0.0
C550 C 0.85592 0.22878 0.14055 0.0
C551 C 0.78754 0.15396 0.19718 0.0
H552 H 0.79158 0.13948 0.09797 0.0
H553 H 0.85646 0.13611 0.13654 0.0
H554 H 0.76856 0.166 0.14706 0.0
H555 H 0.79062 0.19224 0.1263 0.0
H556 H 0.76471 0.15733 0.11555 0.0
H557 H 0.87105 0.15671 0.17523 0.0
H558 H 0.87528 0.19157 0.17363 0.0
H559 H 0.84878 0.16564 0.19212 0.0
H560 H 0.85445 0.26366 0.17406 0.0
H561 H 0.79832 0.20106 0.22283 0.0
H562 H 0.84178 0.22015 0.12475 0.0
H563 H 0.86979 0.21966 0.14004 0.0
H564 H 0.86901 0.25218 0.13897 0.0
H565 H 0.77232 0.14221 0.1825 0.0
H566 H 0.77585 0.15205 0.21377 0.0
H567 H 0.79997 0.14348 0.19978 0.0
C568 C 0.78729 0.59052 0.18361 0.0
C569 C 0.78288 0.60318 0.20378 0.0
C570 C 0.80565 0.60731 0.1657 0.0
C571 C 0.8187 0.63731 0.16756 0.0
C572 C 0.81457 0.6501 0.18813 0.0
C573 C 0.79716 0.63287 0.20618 0.0
C574 C 0.81044 0.59294 0.14448 0.0
C575 C 0.82707 0.68187 0.19043 0.0
C576 C 0.87837 0.68595 0.12709 0.0
C577 C 0.86374 0.68884 0.10805 0.0
C578 C 0.86399 0.66858 0.14633 0.0
C579 C 0.83447 0.65521 0.14712 0.0
C580 C 0.8198 0.65935 0.1285 0.0
C581 C 0.83456 0.67558 0.10896 0.0
C582 C 0.88027 0.66384 0.1654 0.0
C583 C 0.78847 0.6466 0.12914 0.0
H584 H 0.7763 0.56756 0.1818 0.0
H585 H 0.79342 0.64268 0.22164 0.0
H586 H 0.80001 0.59511 0.12847 0.0
H587 H 0.83311 0.60325 0.14067 0.0
H588 H 0.80208 0.56997 0.14731 0.0
H589 H 0.82292 0.68853 0.20806 0.0
H590 H 0.84999 0.693 0.18782 0.0
H591 H 0.81815 0.689 0.17634 0.0
H592 H 0.90093 0.69634 0.12657 0.0
H593 H 0.82323 0.67801 0.09435 0.0
H594 H 0.87262 0.6408 0.16656 0.0
H595 H 0.87693 0.67108 0.18304 0.0
H596 H 0.90307 0.67519 0.16185 0.0
H597 H 0.77793 0.6231 0.12838 0.0
H598 H 0.78053 0.65351 0.11408 0.0
H599 H 0.78242 0.65271 0.14611 0.0
C600 C 0.18842 0.30184 0.37679 0.0
C601 C 0.17122 0.29926 0.396 0.0
C602 C 0.19222 0.32 0.35797 0.0
C603 C 0.17709 0.33448 0.35771 0.0
C604 C 0.15865 0.33079 0.37655 0.0
C605 C 0.15647 0.31378 0.39572 0.0
C606 C 0.2129 0.32426 0.33872 0.0
C607 C 0.14109 0.34471 0.37643 0.0
C608 C 0.19606 0.39989 0.32171 0.0
C609 C 0.17862 0.3877 0.30167 0.0
C610 C 0.19733 0.38266 0.33937 0.0
C611 C 0.17963 0.35275 0.33744 0.0
C612 C 0.16238 0.34044 0.31697 0.0
C613 C 0.16256 0.35806 0.29913 0.0
C614 C 0.2169 0.3965 0.36043 0.0
C615 C 0.14228 0.30882 0.31464 0.0
H616 H 0.19967 0.29047 0.3768 0.0
H617 H 0.14295 0.31161 0.41046 0.0
H618 H 0.20205 0.31699 0.32119 0.0
H619 H 0.22856 0.34721 0.33738 0.0
H620 H 0.22406 0.3126 0.34219 0.0
H621 H 0.12646 0.33818 0.39165 0.0
H622 H 0.15479 0.36813 0.37731 0.0
H623 H 0.12874 0.33917 0.35959 0.0
H624 H 0.20845 0.42282 0.32365 0.0
H625 H 0.14867 0.34864 0.28381 0.0
H626 H 0.2285 0.38535 0.36412 0.0
H627 H 0.20469 0.39498 0.37655 0.0
H628 H 0.23219 0.41927 0.35749 0.0
H629 H 0.15345 0.297 0.31694 0.0
H630 H 0.1312 0.30253 0.29712 0.0
H631 H 0.12647 0.30212 0.32892 0.0
C632 C 0.59628 0.79151 0.29979 0.0
C633 C 0.58386 0.76253 0.30466 0.0
C634 C 0.61419 0.81241 0.31658 0.0
C635 C 0.62047 0.80402 0.33832 0.0
C636 C 0.60746 0.77484 0.34351 0.0
C637 C 0.58905 0.75455 0.32683 0.0
C638 C 0.62691 0.84336 0.31081 0.0
C639 C 0.61386 0.76489 0.36633 0.0
C640 C 0.68789 0.84945 0.37341 0.0
C641 C 0.6777 0.85593 0.39389 0.0
C642 C 0.66967 0.83366 0.35443 0.0
C643 C 0.64097 0.82529 0.35576 0.0
C644 C 0.63125 0.83396 0.37566 0.0
C645 C 0.64961 0.84859 0.39475 0.0
C646 C 0.68072 0.82426 0.33378 0.0
C647 C 0.60115 0.82656 0.37734 0.0
H648 H 0.5924 0.79786 0.28271 0.0
H649 H 0.57987 0.73225 0.33073 0.0
H650 H 0.62473 0.85529 0.32608 0.0
H651 H 0.64959 0.85275 0.30753 0.0
H652 H 0.61709 0.84638 0.29475 0.0
H653 H 0.6024 0.74137 0.3674 0.0
H654 H 0.63661 0.77282 0.36769 0.0
H655 H 0.60821 0.77362 0.38196 0.0
H656 H 0.70968 0.85526 0.37285 0.0
H657 H 0.6419 0.85407 0.41053 0.0
H658 H 0.67443 0.82915 0.31661 0.0
H659 H 0.67155 0.80089 0.33413 0.0
H660 H 0.70387 0.83453 0.33441 0.0
H661 H 0.59422 0.83141 0.36045 0.0
H662 H 0.59794 0.83828 0.39224 0.0
H663 H 0.58758 0.80347 0.38022 0.0
C664 C 0.14861 0.78419 0.4044 0.0
C665 C 0.1213 0.77953 0.40427 0.0
C666 C 0.1621 0.78469 0.38318 0.0
C667 C 0.14804 0.78057 0.36115 0.0
C668 C 0.11981 0.774 0.36094 0.0
C669 C 0.10672 0.77357 0.38256 0.0
C670 C 0.19209 0.79156 0.38435 0.0
C671 C 0.10394 0.76895 0.33781 0.0
C672 C 0.19311 0.825 0.31076 0.0
C673 C 0.19688 0.8055 0.2971 0.0
C674 C 0.17736 0.817 0.33154 0.0
C675 C 0.16446 0.7885 0.33877 0.0
C676 C 0.16829 0.76855 0.32515 0.0
C677 C 0.1848 0.77739 0.30444 0.0
C678 C 0.17454 0.83922 0.34575 0.0
C679 C 0.15446 0.73789 0.33219 0.0
H680 H 0.15981 0.788 0.42117 0.0
H681 H 0.08542 0.76934 0.38239 0.0
H682 H 0.19526 0.77708 0.37236 0.0
H683 H 0.20602 0.81353 0.37826 0.0
H684 H 0.19858 0.78999 0.40272 0.0
H685 H 0.08118 0.75979 0.3407 0.0
H686 H 0.11204 0.78937 0.3286 0.0
H687 H 0.10704 0.75442 0.3258 0.0
H688 H 0.2026 0.84679 0.30509 0.0
H689 H 0.18745 0.76227 0.29365 0.0
H690 H 0.18252 0.84089 0.3642 0.0
H691 H 0.1522 0.83296 0.34695 0.0
H692 H 0.18618 0.86053 0.33775 0.0
H693 H 0.15985 0.73637 0.35093 0.0
H694 H 0.16063 0.72537 0.3205 0.0
H695 H 0.13141 0.72811 0.33116 0.0
C696 C 0.70315 0.89436 0.76707 0.0
C697 C 0.67391 0.87829 0.76561 0.0
C698 C 0.71756 0.89455 0.78769 0.0
C699 C 0.70235 0.87768 0.8071 0.0
C700 C 0.67267 0.86174 0.8058 0.0
C701 C 0.65875 0.86256 0.78512 0.0
C702 C 0.74905 0.91265 0.78858 0.0
C703 C 0.65568 0.84275 0.82577 0.0
C704 C 0.7369 0.84992 0.84837 0.0
C705 C 0.73907 0.8647 0.86967 0.0
C706 C 0.72572 0.85453 0.82765 0.0
C707 C 0.71738 0.87512 0.8281 0.0
C708 C 0.72179 0.89179 0.8491 0.0
C709 C 0.73188 0.88582 0.86988 0.0
C710 C 0.72102 0.83597 0.80579 0.0
C711 C 0.71453 0.9149 0.84997 0.0
H712 H 0.71478 0.90665 0.75189 0.0
H713 H 0.63614 0.84991 0.78377 0.0
H714 H 0.75526 0.93075 0.8013 0.0
H715 H 0.75862 0.90043 0.79503 0.0
H716 H 0.75785 0.92116 0.77088 0.0
H717 H 0.63283 0.83193 0.82209 0.0
H718 H 0.66152 0.82637 0.8285 0.0
H719 H 0.66029 0.85529 0.84267 0.0
H720 H 0.7417 0.833 0.84846 0.0
H721 H 0.73304 0.89683 0.88652 0.0
H722 H 0.73109 0.84925 0.7901 0.0
H723 H 0.69828 0.82294 0.80177 0.0
H724 H 0.72938 0.82151 0.80812 0.0
H725 H 0.72313 0.92861 0.83425 0.0
H726 H 0.7227 0.92838 0.86644 0.0
H727 H 0.69149 0.90528 0.84934 0.0
C728 C 0.17431 0.8749 0.8704 0.0
C729 C 0.15582 0.88506 0.86814 0.0
C730 C 0.17584 0.85734 0.85266 0.0
C731 C 0.1576 0.84886 0.83266 0.0
C732 C 0.13753 0.85756 0.83112 0.0
C733 C 0.13739 0.87627 0.84863 0.0
C734 C 0.1983 0.84961 0.85454 0.0
C735 C 0.11695 0.84795 0.81055 0.0
C736 C 0.18099 0.83419 0.77331 0.0
C737 C 0.16806 0.80454 0.77289 0.0
C738 C 0.1784 0.84886 0.79299 0.0
C739 C 0.16147 0.83339 0.8123 0.0
C740 C 0.14865 0.80344 0.81213 0.0
C741 C 0.15281 0.78942 0.7927 0.0
C742 C 0.19353 0.88092 0.79295 0.0
C743 C 0.12965 0.78615 0.83198 0.0
H744 H 0.18889 0.88221 0.88536 0.0
H745 H 0.12319 0.88429 0.84695 0.0
H746 H 0.18918 0.82636 0.85224 0.0
H747 H 0.2136 0.85984 0.84005 0.0
H748 H 0.2097 0.85652 0.8719 0.0
H749 H 0.1002 0.85302 0.81379 0.0
H750 H 0.12804 0.85858 0.79408 0.0
H751 H 0.10717 0.82471 0.80728 0.0
H752 H 0.19306 0.84597 0.75812 0.0
H753 H 0.14311 0.76655 0.79263 0.0
H754 H 0.2061 0.88987 0.80959 0.0
H755 H 0.17816 0.88816 0.79237 0.0
H756 H 0.20765 0.88976 0.77748 0.0
H757 H 0.1409 0.79305 0.84937 0.0
H758 H 0.12145 0.76304 0.82926 0.0
H759 H 0.1117 0.78972 0.8331 0.0
C760 C 0.1004 0.27605 0.83964 0.0
C761 C 0.10897 0.26943 0.86084 0.0
C762 C 0.11994 0.29417 0.82315 0.0
C763 C 0.14882 0.30534 0.82759 0.0
C764 C 0.15761 0.29767 0.84841 0.0
C765 C 0.13758 0.28016 0.86501 0.0
C766 C 0.10969 0.30217 0.80138 0.0
C767 C 0.18814 0.30838 0.85333 0.0
C768 C 0.19107 0.33293 0.77148 0.0
C769 C 0.2012 0.36212 0.77387 0.0
C770 C 0.17586 0.31444 0.78974 0.0
C771 C 0.16953 0.32529 0.81039 0.0
C772 C 0.1805 0.35497 0.81319 0.0
C773 C 0.19674 0.37317 0.79499 0.0
C774 C 0.1656 0.28317 0.78645 0.0
C775 C 0.17366 0.36729 0.83468 0.0
H776 H 0.07837 0.26822 0.83645 0.0
H777 H 0.14431 0.27512 0.88139 0.0
H778 H 0.11904 0.32556 0.80113 0.0
H779 H 0.11639 0.29575 0.78496 0.0
H780 H 0.08656 0.29208 0.80081 0.0
H781 H 0.1913 0.29838 0.86914 0.0
H782 H 0.19774 0.3041 0.83764 0.0
H783 H 0.19945 0.33171 0.85648 0.0
H784 H 0.19489 0.3245 0.75517 0.0
H785 H 0.20462 0.39579 0.79669 0.0
H786 H 0.14268 0.27137 0.78317 0.0
H787 H 0.16961 0.2747 0.80283 0.0
H788 H 0.17578 0.27885 0.7712 0.0
H789 H 0.15093 0.35969 0.83462 0.0
H790 H 0.18536 0.39088 0.83496 0.0
H791 H 0.17848 0.35999 0.85133 0.0
C792 C 0.82773 0.70055 0.62816 0.0
C793 C 0.84068 0.72983 0.63302 0.0
C794 C 0.8274 0.68202 0.64523 0.0
C795 C 0.84129 0.69319 0.66738 0.0
C796 C 0.8558 0.72296 0.67184 0.0
C797 C 0.85478 0.74091 0.65479 0.0
C798 C 0.81072 0.65041 0.64009 0.0
C799 C 0.87174 0.73577 0.69489 0.0
C800 C 0.81606 0.64907 0.72291 0.0
C801 C 0.83427 0.6385 0.72442 0.0
C802 C 0.81741 0.6659 0.70388 0.0
C803 C 0.83852 0.67362 0.68662 0.0
C804 C 0.85686 0.66278 0.68794 0.0
C805 C 0.85392 0.64457 0.70648 0.0
C806 C 0.79648 0.67574 0.70248 0.0
C807 C 0.88034 0.67142 0.67046 0.0
H808 H 0.81647 0.69189 0.61144 0.0
H809 H 0.86486 0.76356 0.65851 0.0
H810 H 0.82374 0.64067 0.6431 0.0
H811 H 0.79288 0.64041 0.65251 0.0
H812 H 0.80239 0.64526 0.62153 0.0
H813 H 0.88491 0.75926 0.69428 0.0
H814 H 0.85686 0.73032 0.70978 0.0
H815 H 0.88534 0.7269 0.69894 0.0
H816 H 0.80069 0.64416 0.73672 0.0
H817 H 0.86786 0.63624 0.70748 0.0
H818 H 0.78658 0.67086 0.68449 0.0
H819 H 0.80726 0.69909 0.70538 0.0
H820 H 0.77979 0.6656 0.71596 0.0
H821 H 0.87196 0.66609 0.65196 0.0
H822 H 0.89269 0.66098 0.67386 0.0
H823 H 0.89458 0.69478 0.67166 0.0
C824 C 0.3538 0.21011 0.69912 0.0
C825 C 0.36353 0.19661 0.71396 0.0
C826 C 0.33318 0.19461 0.68161 0.0
C827 C 0.32358 0.16537 0.67786 0.0
C828 C 0.33507 0.15222 0.69162 0.0
C829 C 0.35427 0.16782 0.70998 0.0
C830 C 0.32052 0.20909 0.66818 0.0
C831 C 0.32656 0.12148 0.68738 0.0
C832 C 0.25356 0.11006 0.65122 0.0
C833 C 0.2611 0.10725 0.62794 0.0
C834 C 0.27324 0.13077 0.66715 0.0
C835 C 0.3013 0.14814 0.65987 0.0
C836 C 0.30859 0.14642 0.636 0.0
C837 C 0.28826 0.12636 0.62022 0.0
C838 C 0.26438 0.13288 0.69217 0.0
C839 C 0.33838 0.16388 0.62766 0.0
H840 H 0.36103 0.23234 0.70198 0.0
H841 H 0.36186 0.1574 0.72146 0.0
H842 H 0.32101 0.20564 0.64869 0.0
H843 H 0.29823 0.19968 0.67314 0.0
H844 H 0.33143 0.2323 0.67218 0.0
H845 H 0.33966 0.11543 0.69782 0.0
H846 H 0.30443 0.10757 0.69247 0.0
H847 H 0.32821 0.1173 0.66818 0.0
H848 H 0.23258 0.09543 0.65722 0.0
H849 H 0.29436 0.12413 0.60232 0.0
H850 H 0.27315 0.15545 0.69778 0.0
H851 H 0.27258 0.12335 0.70471 0.0
H852 H 0.24126 0.12162 0.69377 0.0
H853 H 0.34744 0.18654 0.63295 0.0
H854 H 0.34001 0.1623 0.60802 0.0
H855 H 0.35131 0.15628 0.63627 0.0
C856 C 0.83514 0.14126 0.62414 0.0
C857 C 0.85756 0.13625 0.62269 0.0
C858 C 0.81948 0.13595 0.64492 0.0
C859 C 0.8257 0.12448 0.66472 0.0
C860 C 0.8467 0.11704 0.66275 0.0
C861 C 0.86264 0.12328 0.64178 0.0
C862 C 0.79768 0.14472 0.64625 0.0
C863 C 0.85291 0.1034 0.68308 0.0
C864 C 0.81307 0.14776 0.72541 0.0
C865 C 0.78644 0.12533 0.73095 0.0
C866 C 0.82607 0.14754 0.70403 0.0
C867 C 0.81257 0.12378 0.68812 0.0
C868 C 0.78578 0.10084 0.69377 0.0
C869 C 0.77276 0.10219 0.7149 0.0
C870 C 0.85418 0.17294 0.69838 0.0
C871 C 0.77117 0.07464 0.67781 0.0
H872 H 0.83074 0.15099 0.60942 0.0
H873 H 0.8797 0.11906 0.64073 0.0
H874 H 0.77747 0.12689 0.65233 0.0
H875 H 0.80447 0.16246 0.65948 0.0
H876 H 0.79419 0.15176 0.62882 0.0
H877 H 0.86987 0.09893 0.67882 0.0
H878 H 0.85903 0.1173 0.6993 0.0
H879 H 0.83377 0.08315 0.68736 0.0
H880 H 0.82375 0.16564 0.73784 0.0
H881 H 0.75229 0.08471 0.71926 0.0
H882 H 0.85285 0.18203 0.68127 0.0
H883 H 0.86994 0.16634 0.69622 0.0
H884 H 0.86167 0.18985 0.7125 0.0
H885 H 0.74992 0.05919 0.68418 0.0
H886 H 0.78373 0.06406 0.6771 0.0
H887 H 0.7694 0.08042 0.65934 0.0
C888 C 0.02469 0.53634 0.4273 0.0
C889 C 0.00969 0.55066 0.42661 0.0
C890 C 0.03672 0.53429 0.44853 0.0
C891 C 0.03398 0.54709 0.46973 0.0
C892 C 0.02013 0.56287 0.46897 0.0
C893 C 0.00786 0.56421 0.44744 0.0
C894 C 0.05092 0.51692 0.44849 0.0
C895 C 0.01733 0.57738 0.49107 0.0
C896 C 0.02762 0.50627 0.52513 0.0
C897 C 0.05498 0.52056 0.53446 0.0
C898 C 0.02057 0.5152 0.50449 0.0
C899 C 0.04123 0.53963 0.49299 0.0
C900 C 0.06879 0.5549 0.50268 0.0
C901 C 0.07552 0.54488 0.52319 0.0
C902 C 0.99115 0.4977 0.4945 0.0
C903 C 0.09112 0.58151 0.49123 0.0
H904 H 0.02658 0.5261 0.41124 0.0
H905 H 0.99673 0.57573 0.44696 0.0
H906 H 0.07171 0.52893 0.45739 0.0
H907 H 0.03818 0.49731 0.45867 0.0
H908 H 0.05372 0.51072 0.43018 0.0
H909 H 0.01048 0.59268 0.48678 0.0
H910 H 0.00169 0.56122 0.50302 0.0
H911 H 0.0375 0.58881 0.50102 0.0
H912 H 0.01164 0.48727 0.53356 0.0
H913 H 0.09663 0.55609 0.53044 0.0
H914 H 0.99167 0.48929 0.47645 0.0
H915 H 0.98158 0.51111 0.49267 0.0
H916 H 0.97746 0.47949 0.50587 0.0
H917 H 0.09611 0.5762 0.47342 0.0
H918 H 0.11064 0.59242 0.50215 0.0
H919 H 0.08342 0.59644 0.48848 0.0
C920 C 0.5153 0.49466 0.45566 0.0
C921 C 0.5006 0.46496 0.45419 0.0
C922 C 0.51123 0.50917 0.47465 0.0
C923 C 0.49086 0.49359 0.49197 0.0
C924 C 0.47634 0.46352 0.49087 0.0
C925 C 0.48214 0.44955 0.4724 0.0
C926 C 0.52838 0.54122 0.47585 0.0
C927 C 0.45362 0.44615 0.50835 0.0
C928 C 0.4988 0.53507 0.54909 0.0
C929 C 0.48393 0.54866 0.54342 0.0
C930 C 0.50013 0.51587 0.53299 0.0
C931 C 0.48519 0.50916 0.51112 0.0
C932 C 0.46792 0.52072 0.50635 0.0
C933 C 0.46813 0.54105 0.52228 0.0
C934 C 0.51969 0.50504 0.53842 0.0
C935 C 0.45053 0.51289 0.48377 0.0
H936 H 0.52987 0.50663 0.44174 0.0
H937 H 0.47119 0.42661 0.47166 0.0
H938 H 0.51468 0.55016 0.47267 0.0
H939 H 0.53797 0.54868 0.49385 0.0
H940 H 0.54527 0.54988 0.46244 0.0
H941 H 0.44596 0.42308 0.50631 0.0
H942 H 0.46109 0.45306 0.52695 0.0
H943 H 0.43574 0.44951 0.50544 0.0
H944 H 0.51145 0.54132 0.56526 0.0
H945 H 0.45666 0.55157 0.5179 0.0
H946 H 0.53793 0.5152 0.52642 0.0
H947 H 0.50924 0.4818 0.5351 0.0
H948 H 0.52749 0.50982 0.55716 0.0
H949 H 0.46428 0.52363 0.46848 0.0
H950 H 0.43453 0.51934 0.48481 0.0
H951 H 0.43989 0.48965 0.48009 0.0
C952 C 0.50248 0.02407 0.44312 0.0
C953 C 0.53175 0.03853 0.44255 0.0
C954 C 0.4878 0.0066 0.46211 0.0
C955 C 0.50268 0.00238 0.4805 0.0
C956 C 0.53232 0.01732 0.48026 0.0
C957 C 0.54654 0.03591 0.4616 0.0
C958 C 0.45629 0.99224 0.46221 0.0
C959 C 0.54893 0.01265 0.49905 0.0
C960 C 0.46325 0.9722 0.53782 0.0
C961 C 0.4508 0.94291 0.53331 0.0
C962 C 0.48079 0.99188 0.52108 0.0
C963 C 0.48693 0.98204 0.49969 0.0
C964 C 0.47572 0.95247 0.49573 0.0
C965 C 0.45717 0.93317 0.51234 0.0
C966 C 0.49122 0.02304 0.5256 0.0
C967 C 0.48265 0.94119 0.47361 0.0
H968 H 0.49098 0.02629 0.42852 0.0
H969 H 0.56915 0.04729 0.46141 0.0
H970 H 0.44693 0.96897 0.45971 0.0
H971 H 0.44914 0.99601 0.47965 0.0
H972 H 0.44815 -7e-05 0.44789 0.0
H973 H 0.57184 0.02657 0.49679 0.0
H974 H 0.5433 0.01655 0.51711 0.0
H975 H 0.54373 0.99018 0.49809 0.0
H976 H 0.45796 0.97969 0.55392 0.0
H977 H 0.44755 0.91051 0.5089 0.0
H978 H 0.4817 0.03045 0.51229 0.0
H979 H 0.5142 0.0358 0.52346 0.0
H980 H 0.48597 0.02736 0.54372 0.0
H981 H 0.47241 0.94413 0.45784 0.0
H982 H 0.47554 0.91825 0.47478 0.0
H983 H 0.50554 0.95314 0.47057 0.0
C984 C 0.52243 0.04384 0.96445 0.0
C985 C 0.50508 0.05528 0.96831 0.0
C986 C 0.52423 0.02605 0.98124 0.0
C987 C 0.50761 0.01882 0.00194 0.0
C988 C 0.49028 0.03053 0.00598 0.0
C989 C 0.48955 0.04889 0.98933 0.0
C990 C 0.54365 0.01475 0.97671 0.0
C991 C 0.47184 0.02303 0.02761 0.0
C992 C 0.48692 0.95173 0.03621 0.0
C993 C 0.50241 0.96328 0.05729 0.0
C994 C 0.48919 0.96946 0.01746 0.0
C995 C 0.50814 -0.00084 0.01967 0.0
C996 C 0.5253 0.01045 0.0403 0.0
C997 C 0.52172 0.99246 0.05908 0.0
C998 C 0.47001 0.95668 0.99603 0.0
C999 C 0.54654 0.04173 0.04304 0.0
H1000 H 0.53443 0.04865 0.94821 0.0
H1001 H 0.47574 0.05723 0.99229 0.0
H1002 H 0.55772 0.01948 0.99234 0.0
H1003 H 0.53135 0.99133 0.97423 0.0
H1004 H 0.5566 0.02396 0.96065 0.0
H1005 H 0.45888 0.03321 0.02771 0.0
H1006 H 0.45774 -0.00033 0.02819 0.0
H1007 H 0.48485 0.02978 0.04411 0.0
H1008 H 0.47189 0.92915 0.03498 0.0
H1009 H 0.53381 0.00132 0.07541 0.0
H1010 H 0.48208 0.96367 0.97933 0.0
H1011 H 0.45484 0.96423 0.99585 0.0
H1012 H 0.45816 0.9331 0.9961 0.0
H1013 H 0.55921 0.04955 0.02668 0.0
H1014 H 0.56085 0.04638 0.0585 0.0
H1015 H 0.53562 0.05384 0.04563 0.0
C1016 C 0.91892 0.44628 0.98259 0.0
C1017 C 0.92793 0.43803 0.96232 0.0
C1018 C 0.93839 0.46515 0.99968 0.0
C1019 C 0.96719 0.47453 0.99691 0.0
C1020 C 0.97629 0.46663 0.97613 0.0
C1021 C 0.95655 0.44893 0.95886 0.0
C1022 C 0.92808 0.47415 0.02112 0.0
C1023 C 0.00654 0.47507 0.97293 0.0
C1024 C 0.02296 0.53392 0.0362 0.0
C1025 C 0.0242 0.51867 0.05545 0.0
C1026 C 0.00404 0.51996 0.01719 0.0
C1027 C 0.98734 0.48996 0.0168 0.0
C1028 C 0.99001 0.47439 0.03542 0.0
C1029 C 0.00794 0.48898 0.05476 0.0
C1030 C 0.00104 0.53734 0.99813 0.0
C1031 C 0.97364 0.44231 0.03512 0.0
H1032 H 0.89673 0.43769 0.9852 0.0
H1033 H 0.96336 0.44203 0.94331 0.0
H1034 H 0.92951 0.46341 0.03715 0.0
H1035 H 0.94132 0.49739 0.02453 0.0
H1036 H 0.90601 0.46871 0.0188 0.0
H1037 H 0.01041 0.46865 0.95508 0.0
H1038 H 0.02038 0.49835 0.97537 0.0
H1039 H 0.01261 0.46486 0.9867 0.0
H1040 H 0.03582 0.55683 0.03644 0.0
H1041 H 0.00911 0.4771 0.0695 0.0
H1042 H 0.9794 0.53354 0.99816 0.0
H1043 H 0.00451 0.53073 0.98026 0.0
H1044 H 0.01587 0.56046 0.00084 0.0
H1045 H 0.951 0.43463 0.0367 0.0
H1046 H 0.97995 0.43346 0.0499 0.0
H1047 H 0.97664 0.43381 0.01795 0.0
C1048 C 0.49969 0.47965 0.95466 0.0
C1049 C 0.5225 0.47529 0.95278 0.0
C1050 C 0.48343 0.47252 0.97519 0.0
C1051 C 0.48952 0.45994 0.99422 0.0
C1052 C 0.51079 0.45299 0.99162 0.0
C1053 C 0.52737 0.46112 0.971 0.0
C1054 C 0.46092 0.48024 0.97713 0.0
C1055 C 0.51682 0.43818 0.01109 0.0
C1056 C 0.47624 0.47889 0.05633 0.0
C1057 C 0.44995 0.45564 0.06143 0.0
C1058 C 0.48926 0.48035 0.03458 0.0
C1059 C 0.47601 0.4576 0.01769 0.0
C1060 C 0.44935 0.434 0.02273 0.0
C1061 C 0.43652 0.4334 0.04454 0.0
C1062 C 0.51709 0.50649 0.02958 0.0
C1063 C 0.43468 0.40897 0.00556 0.0
H1064 H 0.49538 0.49018 0.94055 0.0
H1065 H 0.54471 0.45737 0.96959 0.0
H1066 H 0.44075 0.46142 0.98202 0.0
H1067 H 0.46662 0.49663 0.99147 0.0
H1068 H 0.45784 0.48862 0.96026 0.0
H1069 H 0.53107 0.43066 0.00507 0.0
H1070 H 0.52667 0.45298 0.02658 0.0
H1071 H 0.49705 0.41976 0.0173 0.0
H1072 H 0.48667 0.49608 0.06941 0.0
H1073 H 0.41645 0.41509 0.0487 0.0
H1074 H 0.5155 0.51644 0.01307 0.0
H1075 H 0.53322 0.50052 0.02661 0.0
H1076 H 0.52429 0.52254 0.0444 0.0
H1077 H 0.4383 0.41555 0.98673 0.0
H1078 H 0.41179 0.39685 0.0086 0.0
H1079 H 0.44301 0.39456 0.00824 0.0
C1080 C 0.19227 0.02086 0.937 0.0
C1081 C 0.19394 0.00227 0.95283 0.0
C1082 C 0.20496 0.05006 0.94271 0.0
C1083 C 0.21982 0.06071 0.96459 0.0
C1084 C 0.22209 0.04202 0.98027 0.0
C1085 C 0.20903 0.01309 0.97425 0.0
C1086 C 0.20199 0.06935 0.92566 0.0
C1087 C 0.23798 0.05249 0.00367 0.0
C1088 C 0.27394 0.13721 0.97953 0.0
C1089 C 0.25941 0.14423 0.99614 0.0
C1090 C 0.26067 0.11072 0.96748 0.0
C1091 C 0.23218 0.09105 0.97201 0.0
C1092 C 0.21686 0.09915 0.98711 0.0
C1093 C 0.23072 0.12559 0.99912 0.0
C1094 C 0.27775 0.10289 0.95155 0.0
C1095 C 0.18636 0.07901 0.99216 0.0
H1096 H 0.18067 0.01254 0.92039 0.0
H1097 H 0.21066 -0.00111 0.98647 0.0
H1098 H 0.18978 0.07807 0.93414 0.0
H1099 H 0.22284 0.08765 0.92146 0.0
H1100 H 0.19131 0.05813 0.90875 0.0
H1101 H 0.23877 0.03538 0.01333 0.0
H1102 H 0.25972 0.06982 0.00054 0.0
H1103 H 0.22795 0.06132 0.01534 0.0
H1104 H 0.29611 0.15164 0.97706 0.0
H1105 H 0.2193 0.13113 0.01168 0.0
H1106 H 0.26599 0.09192 0.93497 0.0
H1107 H 0.2823 0.08799 0.96094 0.0
H1108 H 0.29794 0.1218 0.9467 0.0
H1109 H 0.17463 0.06857 0.97543 0.0
H1110 H 0.17646 0.08997 0.00108 0.0
H1111 H 0.18441 0.06208 0.00396 0.0
C1112 C 0.99701 0.21413 0.97634 0.0
C1113 C 0.00467 0.20646 0.9549 0.0
C1114 C 0.9697 0.19835 0.9849 0.0
C1115 C 0.94952 0.17402 0.97186 0.0
C1116 C 0.95678 0.16684 0.94966 0.0
C1117 C 0.98432 0.18326 0.94136 0.0
C1118 C 0.96284 0.207 0.00853 0.0
C1119 C 0.9359 0.14107 0.93526 0.0
C1120 C 0.89707 0.11991 0.01355 0.0
C1121 C 0.87491 0.12515 0.01214 0.0
C1122 C 0.92054 0.13412 0.99908 0.0
C1123 C 0.92219 0.15457 0.98309 0.0
C1124 C 0.89907 0.15869 0.9805 0.0
C1125 C 0.87548 0.14368 0.99499 0.0
C1126 C 0.94441 0.12863 0.00217 0.0
C1127 C 0.90007 0.18039 0.96375 0.0
H1128 H 0.01253 0.2323 0.98672 0.0
H1129 H 0.99011 0.17737 0.92469 0.0
H1130 H 0.94347 0.20805 0.00689 0.0
H1131 H 0.95901 0.19086 0.02198 0.0
H1132 H 0.97998 0.22794 0.01526 0.0
H1133 H 0.94356 0.14052 0.91708 0.0
H1134 H 0.93175 0.12157 0.94448 0.0
H1135 H 0.91572 0.14054 0.93372 0.0
H1136 H 0.89649 0.10532 0.02665 0.0
H1137 H 0.85837 0.14782 0.99398 0.0
H1138 H 0.96231 0.14734 0.01111 0.0
H1139 H 0.95167 0.12545 0.98459 0.0
H1140 H 0.93847 0.1097 0.01308 0.0
H1141 H 0.91419 0.20201 0.97134 0.0
H1142 H 0.87908 0.17779 0.96088 0.0
H1143 H 0.90862 0.17892 0.94626 0.0
C1144 C 0.86709 0.73737 0.98422 0.0
C1145 C 0.8753 0.74865 0.00746 0.0
C1146 C 0.85156 0.74537 0.96976 0.0
C1147 C 0.84358 0.76455 0.97898 0.0
C1148 C 0.85328 0.77718 0.00189 0.0
C1149 C 0.86916 0.76929 0.01568 0.0
C1150 C 0.84242 0.73211 0.94514 0.0
C1151 C 0.84512 0.79749 0.01266 0.0
C1152 C 0.80822 0.79839 0.94591 0.0
C1153 C 0.78034 0.78095 0.95277 0.0
C1154 C 0.829 0.79217 0.95266 0.0
C1155 C 0.82172 0.76821 0.96678 0.0
C1156 C 0.79331 0.74955 0.97222 0.0
C1157 C 0.77307 0.75601 0.96501 0.0
C1158 C 0.85893 0.81211 0.94582 0.0
C1159 C 0.78442 0.72377 0.98725 0.0
H1160 H 0.87198 0.72164 0.9776 0.0
H1161 H 0.87559 0.77837 0.03352 0.0
H1162 H 0.82024 0.71481 0.94552 0.0
H1163 H 0.84398 0.74796 0.93227 0.0
H1164 H 0.85514 0.72293 0.93865 0.0
H1165 H 0.85611 0.8071 0.02988 0.0
H1166 H 0.84983 0.81481 0.00023 0.0
H1167 H 0.82226 0.786 0.01582 0.0
H1168 H 0.81405 0.81752 0.93622 0.0
H1169 H 0.75152 0.74194 0.96995 0.0
H1170 H 0.86933 0.80008 0.94052 0.0
H1171 H 0.87061 0.82596 0.96139 0.0
H1172 H 0.86038 0.82587 0.93096 0.0
H1173 H 0.79272 0.7106 0.97984 0.0
H1174 H 0.76132 0.71031 0.98841 0.0
H1175 H 0.79312 0.73068 0.00557 0.0
C1176 C 0.00396 0.18824 0.5555 0.0
C1177 C 0.99728 0.20949 0.55233 0.0
C1178 C 0.03051 0.19281 0.54907 0.0
C1179 C 0.05039 0.21895 0.53896 0.0
C1180 C 0.04458 0.2413 0.53814 0.0
C1181 C 0.01828 0.23636 0.54505 0.0
C1182 C 0.03645 0.16894 0.55138 0.0
C1183 C 0.06497 0.26959 0.52761 0.0
C1184 C 0.12495 0.24337 0.51962 0.0
C1185 C 0.12083 0.23636 0.49518 0.0
C1186 C 0.10202 0.23565 0.53478 0.0
C1187 C 0.07449 0.22151 0.52506 0.0
C1188 C 0.0703 0.2133 0.5006 0.0
C1189 C 0.09342 0.22048 0.48613 0.0
C1190 C 0.10746 0.24384 0.56089 0.0
C1191 C 0.04149 0.19866 0.48923 0.0
H1192 H 0.98797 0.16752 0.56136 0.0
H1193 H 0.01349 0.25315 0.54315 0.0
H1194 H 0.03313 0.15785 0.53386 0.0
H1195 H 0.0585 0.17724 0.55695 0.0
H1196 H 0.02241 0.15317 0.56446 0.0
H1197 H 0.05829 0.28548 0.53018 0.0
H1198 H 0.08602 0.27828 0.53575 0.0
H1199 H 0.06682 0.26667 0.50819 0.0
H1200 H 0.14605 0.25535 0.52683 0.0
H1201 H 0.08995 0.21484 0.46729 0.0
H1202 H 0.0905 0.22776 0.57202 0.0
H1203 H 0.1084 0.2644 0.56402 0.0
H1204 H 0.12772 0.24641 0.56686 0.0
H1205 H 0.02714 0.17924 0.499 0.0
H1206 H 0.04169 0.19259 0.47024 0.0
H1207 H 0.03279 0.21299 0.49017 0.0
C1208 C 0.80062 0.82 0.56352 0.0
C1209 C 0.8093 0.80778 0.54577 0.0
C1210 C 0.78623 0.83415 0.55751 0.0
C1211 C 0.78068 0.83626 0.53322 0.0
C1212 C 0.78996 0.82443 0.5153 0.0
C1213 C 0.80403 0.81034 0.5218 0.0
C1214 C 0.77655 0.84636 0.57709 0.0
C1215 C 0.7848 0.82638 0.48914 0.0
C1216 C 0.7235 0.84665 0.50765 0.0
C1217 C 0.73931 0.87421 0.49915 0.0
C1218 C 0.73622 0.83475 0.52111 0.0
C1219 C 0.76538 0.85086 0.52595 0.0
C1220 C 0.78072 0.87966 0.51931 0.0
C1221 C 0.76752 0.89089 0.50575 0.0
C1222 C 0.71904 0.80403 0.52792 0.0
C1223 C 0.81172 0.89774 0.52426 0.0
H1224 H 0.80451 0.81796 0.58209 0.0
H1225 H 0.81076 0.80105 0.50797 0.0
H1226 H 0.78416 0.8691 0.57396 0.0
H1227 H 0.75337 0.83515 0.57702 0.0
H1228 H 0.78389 0.84441 0.59498 0.0
H1229 H 0.79357 0.81622 0.47745 0.0
H1230 H 0.76201 0.81595 0.48548 0.0
H1231 H 0.79434 0.84896 0.48424 0.0
H1232 H 0.70177 0.83364 0.50214 0.0
H1233 H 0.77976 0.91211 0.49885 0.0
H1234 H 0.72449 0.80101 0.54621 0.0
H1235 H 0.72361 0.79083 0.51555 0.0
H1236 H 0.69626 0.79615 0.52694 0.0
H1237 H 0.81692 0.89455 0.54259 0.0
H1238 H 0.81937 0.92068 0.52205 0.0
H1239 H 0.82313 0.89142 0.51166 0.0
C1240 C 0.19846 0.96724 0.53173 0.0
C1241 C 0.19127 0.97891 0.55099 0.0
C1242 C 0.18304 0.93816 0.52614 0.0
C1243 C 0.15964 0.92015 0.54008 0.0
C1244 C 0.15304 0.93152 0.56031 0.0
C1245 C 0.16904 0.96089 0.56559 0.0
C1246 C 0.19107 0.927 0.50453 0.0
C1247 C 0.12836 0.91296 0.57566 0.0
C1248 C 0.10721 0.85863 0.50157 0.0
C1249 C 0.11456 0.83809 0.50591 0.0
C1250 C 0.12002 0.88463 0.51423 0.0
C1251 C 0.14083 0.89031 0.53159 0.0
C1252 C 0.14662 0.86871 0.53748 0.0
C1253 C 0.13333 0.84272 0.52455 0.0
C1254 C 0.11297 0.9069 0.5075 0.0
C1255 C 0.16844 0.87382 0.55605 0.0
H1256 H 0.21592 0.98099 0.52059 0.0
H1257 H 0.16353 0.96984 0.58058 0.0
H1258 H 0.19321 0.90861 0.50931 0.0
H1259 H 0.17437 0.91952 0.49069 0.0
H1260 H 0.21103 0.9434 0.49667 0.0
H1261 H 0.12862 0.92392 0.59264 0.0
H1262 H 0.10871 0.90699 0.56583 0.0
H1263 H 0.12799 0.89301 0.57978 0.0
H1264 H 0.09233 0.85493 0.48744 0.0
H1265 H 0.13891 0.8268 0.52809 0.0
H1266 H 0.13061 0.92382 0.4975 0.0
H1267 H 0.1099 0.91698 0.52366 0.0
H1268 H 0.09381 0.89792 0.49615 0.0
H1269 H 0.18956 0.88732 0.54854 0.0
H1270 H 0.16666 0.85365 0.56179 0.0
H1271 H 0.16671 0.88527 0.57191 0.0
C1272 C 0.73411 0.88321 0.99859 0.0
C1273 C 0.75086 0.87958 0.98186 0.0
C1274 C 0.74443 0.90866 0.01194 0.0
C1275 C 0.77247 0.93071 0.00903 0.0
C1276 C 0.78964 0.92698 0.99243 0.0
C1277 C 0.77849 0.90161 0.97876 0.0
C1278 C 0.72516 0.91209 0.0289 0.0
C1279 C 0.81982 0.94969 0.98922 0.0
C1280 C 0.79004 0.00561 0.02603 0.0
C1281 C 0.80007 0.00868 0.04952 0.0
C1282 C 0.7813 0.9805 0.01262 0.0
C1283 C 0.78333 0.95809 0.02265 0.0
C1284 C 0.79444 0.96142 0.04604 0.0
C1285 C 0.80227 0.98653 0.05936 0.0
C1286 C 0.76889 0.97759 0.98803 0.0
C1287 C 0.79769 0.93831 0.05708 0.0
H1288 H 0.7127 0.86628 0.00096 0.0
H1289 H 0.79161 0.89873 0.96606 0.0
H1290 H 0.73383 0.9161 0.04731 0.0
H1291 H 0.72353 0.93076 0.02398 0.0
H1292 H 0.70382 0.89307 0.02885 0.0
H1293 H 0.83077 0.94291 0.9765 0.0
H1294 H 0.82106 0.96925 0.98256 0.0
H1295 H 0.83106 0.95529 0.00664 0.0
H1296 H 0.78796 0.0225 0.01837 0.0
H1297 H 0.81013 0.98884 0.07744 0.0
H1298 H 0.74692 0.95973 0.98754 0.0
H1299 H 0.78053 0.97256 0.97465 0.0
H1300 H 0.76919 0.99719 0.98267 0.0
H1301 H 0.7768 0.91932 0.05979 0.0
H1302 H 0.80889 0.94514 0.07454 0.0
H1303 H 0.80932 0.9318 0.04492 0.0
C1304 C 0.08804 0.87438 0.97839 0.0
C1305 C 0.1102 0.86997 0.97273 0.0
C1306 C 0.06594 0.85552 0.99266 0.0
C1307 C 0.0656 0.83123 0.00126 0.0
C1308 C 0.08789 0.82655 0.99566 0.0
C1309 C 0.11014 0.84617 0.9816 0.0
C1310 C 0.04287 0.86161 0.99843 0.0
C1311 C 0.088 0.80064 0.00424 0.0
C1312 C 0.01717 0.79648 0.0535 0.0
C1313 C 0.99257 0.77589 0.04182 0.0
C1314 C 0.04148 0.81402 0.04063 0.0
C1315 C 0.04133 0.81058 0.01552 0.0
C1316 C 0.01687 0.78917 0.00375 0.0
C1317 C 0.99276 0.77229 0.01699 0.0
C1318 C 0.06698 0.83693 0.05379 0.0
C1319 C 0.01591 0.78458 0.97705 0.0
H1320 H 0.08803 0.89289 0.97184 0.0
H1321 H 0.12721 0.84268 0.97728 0.0
H1322 H 0.02269 0.84436 0.99096 0.0
H1323 H 0.04048 0.86226 0.01802 0.0
H1324 H 0.04688 0.88208 0.99117 0.0
H1325 H 0.10701 0.80025 0.99866 0.0
H1326 H 0.08679 0.79992 0.02397 0.0
H1327 H 0.0693 0.78116 0.99711 0.0
H1328 H 0.01725 0.79937 0.07267 0.0
H1329 H 0.97401 0.75616 0.00782 0.0
H1330 H 0.07105 0.85809 0.04838 0.0
H1331 H 0.08567 0.83558 0.04907 0.0
H1332 H 0.06444 0.83551 0.07344 0.0
H1333 H 0.0175 0.80321 0.96806 0.0
H1334 H 0.9963 0.7653 0.97092 0.0
H1335 H 0.03395 0.78256 0.97126 0.0
C1336 C 0.13949 0.22922 0.96358 0.0
C1337 C 0.13987 0.25497 0.96161 0.0
C1338 C 0.16279 0.22841 0.97209 0.0
C1339 C 0.1873 0.25401 0.97895 0.0
C1340 C 0.18762 0.28007 0.9778 0.0
C1341 C 0.16388 0.28026 0.96907 0.0
C1342 C 0.16145 0.20013 0.97293 0.0
C1343 C 0.21328 0.30777 0.98513 0.0
C1344 C 0.2388 0.24185 0.01416 0.0
C1345 C 0.25589 0.2413 0.99595 0.0
C1346 C 0.21742 0.24777 0.00923 0.0
C1347 C 0.21296 0.25321 0.98554 0.0
C1348 C 0.23113 0.25426 0.96738 0.0
C1349 C 0.25231 0.24835 0.9728 0.0
C1350 C 0.19866 0.24669 0.02914 0.0
C1351 C 0.22719 0.25994 0.94187 0.0
H1352 H 0.12101 0.2095 0.95802 0.0
H1353 H 0.16432 0.30023 0.96769 0.0
H1354 H 0.17686 0.19995 0.96044 0.0
H1355 H 0.16702 0.19676 0.99106 0.0
H1356 H 0.14039 0.18204 0.96806 0.0
H1357 H 0.20932 0.32575 0.98543 0.0
H1358 H 0.22068 0.30612 0.00307 0.0
H1359 H 0.23042 0.31259 0.9725 0.0
H1360 H 0.24141 0.23662 0.03214 0.0
H1361 H 0.26553 0.24836 0.95857 0.0
H1362 H 0.17779 0.22727 0.02689 0.0
H1363 H 0.19559 0.26521 0.02858 0.0
H1364 H 0.20721 0.24635 0.04695 0.0
H1365 H 0.2075 0.24181 0.93449 0.0
H1366 H 0.24471 0.2629 0.93036 0.0
H1367 H 0.22532 0.27915 0.94097 0.0
C1368 C 0.88307 0.72284 0.52438 0.0
C1369 C 0.88732 0.74851 0.53435 0.0
C1370 C 0.90571 0.72063 0.51562 0.0
C1371 C 0.93314 0.74458 0.51702 0.0
C1372 C 0.93731 0.7707 0.5264 0.0
C1373 C 0.91442 0.77233 0.53487 0.0
C1374 C 0.90042 0.6925 0.50553 0.0
C1375 C 0.96616 0.79678 0.52832 0.0
C1376 C 0.99797 0.73883 0.52363 0.0
C1377 C 0.01074 0.74794 0.50141 0.0
C1378 C 0.97187 0.73594 0.52841 0.0
C1379 C 0.95798 0.74225 0.51055 0.0
C1380 C 0.96988 0.7498 0.48762 0.0
C1381 C 0.99614 0.75258 0.48331 0.0
C1382 C 0.95998 0.72781 0.55311 0.0
C1383 C 0.95564 0.75648 0.46803 0.0
H1384 H 0.86218 0.70439 0.52382 0.0
H1385 H 0.91795 0.79233 0.5424 0.0
H1386 H 0.91051 0.6954 0.48793 0.0
H1387 H 0.90983 0.68366 0.51753 0.0
H1388 H 0.87774 0.6768 0.50344 0.0
H1389 H 0.96566 0.81581 0.53494 0.0
H1390 H 0.97936 0.79284 0.54069 0.0
H1391 H 0.9764 0.80149 0.51069 0.0
H1392 H 0.0088 0.7348 0.5377 0.0
H1393 H 0.00567 0.75946 0.46603 0.0
H1394 H 0.93781 0.71049 0.5521 0.0
H1395 H 0.96057 0.74632 0.56223 0.0
H1396 H 0.97184 0.7208 0.5642 0.0
H1397 H 0.93312 0.74009 0.46681 0.0
H1398 H 0.96533 0.75787 0.45042 0.0
H1399 H 0.95707 0.77712 0.47217 0.0
C1400 C 0.20794 0.20526 0.48278 0.0
C1401 C 0.20755 0.20538 0.45776 0.0
C1402 C 0.21462 0.18732 0.49504 0.0
C1403 C 0.22077 0.16873 0.48202 0.0
C1404 C 0.22069 0.16888 0.45679 0.0
C1405 C 0.21422 0.18729 0.44497 0.0
C1406 C 0.21463 0.18794 0.52196 0.0
C1407 C 0.22677 0.1491 0.44228 0.0
C1408 C 0.25525 0.13453 0.51595 0.0
C1409 C 0.23185 0.10878 0.52238 0.0
C1410 C 0.25212 0.15418 0.50241 0.0
C1411 C 0.22504 0.14762 0.49488 0.0
C1412 C 0.20155 0.12119 0.50064 0.0
C1413 C 0.20523 0.10224 0.51442 0.0
C1414 C 0.27762 0.18227 0.49678 0.0
C1415 C 0.17236 0.11313 0.49273 0.0
H1416 H 0.20314 0.21933 0.4929 0.0
H1417 H 0.21405 0.18722 0.42565 0.0
H1418 H 0.19782 0.16724 0.52847 0.0
H1419 H 0.23477 0.19123 0.52899 0.0
H1420 H 0.2113 0.20497 0.52943 0.0
H1421 H 0.22739 0.1529 0.42286 0.0
H1422 H 0.2471 0.15165 0.4479 0.0
H1423 H 0.21045 0.12676 0.44548 0.0
H1424 H 0.27584 0.13968 0.52211 0.0
H1425 H 0.18706 0.08223 0.51911 0.0
H1426 H 0.27609 0.19977 0.50564 0.0
H1427 H 0.27873 0.18581 0.47733 0.0
H1428 H 0.2973 0.18354 0.5028 0.0
H1429 H 0.16645 0.12783 0.5012 0.0
H1430 H 0.15655 0.09107 0.49746 0.0
H1431 H 0.17162 0.11515 0.47315 0.0
C1432 C 0.77941 0.99101 0.47526 0.0
C1433 C 0.78635 0.98486 0.45276 0.0
C1434 C 0.79681 0.01696 0.48716 0.0
C1435 C 0.82225 0.03702 0.47666 0.0
C1436 C 0.82996 0.03055 0.45435 0.0
C1437 C 0.81164 0.00469 0.44243 0.0
C1438 C 0.78742 0.02328 0.5106 0.0
C1439 C 0.85735 0.05108 0.44298 0.0
C1440 C 0.8519 0.11421 0.49578 0.0
C1441 C 0.87049 0.1174 0.5141 0.0
C1442 C 0.83626 0.08822 0.48328 0.0
C1443 C 0.84003 0.06518 0.48872 0.0
C1444 C 0.85943 0.06858 0.50675 0.0
C1445 C 0.87409 0.09453 0.51951 0.0
C1446 C 0.81515 0.08518 0.46473 0.0
C1447 C 0.86459 0.04479 0.51261 0.0
H1448 H 0.75973 0.97592 0.48324 0.0
H1449 H 0.81712 -5e-05 0.4251 0.0
H1450 H 0.80324 0.02805 0.52476 0.0
H1451 H 0.78541 0.04236 0.50898 0.0
H1452 H 0.76703 0.00533 0.51636 0.0
H1453 H 0.86133 0.04187 0.42666 0.0
H1454 H 0.85733 0.07063 0.43814 0.0
H1455 H 0.87487 0.05746 0.45582 0.0
H1456 H 0.84907 0.13188 0.49162 0.0
H1457 H 0.88879 0.09712 0.53345 0.0
H1458 H 0.79392 0.06825 0.46986 0.0
H1459 H 0.81978 0.07871 0.44727 0.0
H1460 H 0.81489 0.10519 0.46252 0.0
H1461 H 0.84543 0.02683 0.5201 0.0
H1462 H 0.88201 0.05161 0.52568 0.0
H1463 H 0.86958 0.03671 0.49615 0.0
C1464 C 0.91324 0.47839 0.33041 0.0
C1465 C 0.94199 0.4959 0.32672 0.0
C1466 C 0.89809 0.45158 0.31916 0.0
C1467 C 0.91213 0.44188 0.3041 0.0
C1468 C 0.94074 0.46032 0.29894 0.0
C1469 C 0.95534 0.48729 0.31023 0.0
C1470 C 0.86752 0.43283 0.32487 0.0
C1471 C 0.95649 0.45075 0.28306 0.0
C1472 C 0.88368 0.36273 0.30707 0.0
C1473 C 0.86793 0.35246 0.28591 0.0
C1474 C 0.89884 0.39184 0.3127 0.0
C1475 C 0.89797 0.41126 0.29693 0.0
C1476 C 0.88242 0.40111 0.27533 0.0
C1477 C 0.8677 0.37175 0.26998 0.0
C1478 C 0.91542 0.40174 0.3358 0.0
C1479 C 0.88079 0.42116 0.25823 0.0
H1480 H 0.90278 0.48517 0.34294 0.0
H1481 H 0.97758 0.50079 0.30733 0.0
H1482 H 0.8551 0.42257 0.30839 0.0
H1483 H 0.86493 0.41569 0.33673 0.0
H1484 H 0.85883 0.44486 0.33396 0.0
H1485 H 0.97712 0.46878 0.27787 0.0
H1486 H 0.96002 0.43526 0.29263 0.0
H1487 H 0.94417 0.43987 0.26668 0.0
H1488 H 0.88423 0.34796 0.31933 0.0
H1489 H 0.85561 0.36387 0.25355 0.0
H1490 H 0.90666 0.41172 0.34766 0.0
H1491 H 0.93746 0.41806 0.33227 0.0
H1492 H 0.9152 0.38407 0.3454 0.0
H1493 H 0.87 0.43136 0.26683 0.0
H1494 H 0.86933 0.41014 0.24151 0.0
H1495 H 0.9021 0.43835 0.25366 0.0
C1496 C 0.54476 0.46648 0.33126 0.0
C1497 C 0.54449 0.44952 0.34976 0.0
C1498 C 0.5684 0.4809 0.31672 0.0
C1499 C 0.59204 0.47799 0.32074 0.0
C1500 C 0.59077 0.45898 0.3381 0.0
C1501 C 0.56712 0.44514 0.35245 0.0
C1502 C 0.56886 0.50087 0.29834 0.0
C1503 C 0.61528 0.45491 0.34286 0.0
C1504 C 0.65621 0.5082 0.28102 0.0
C1505 C 0.67499 0.53263 0.29424 0.0
C1506 C 0.62853 0.49066 0.28873 0.0
C1507 C 0.61956 0.49796 0.30998 0.0
C1508 C 0.63814 0.52339 0.32263 0.0
C1509 C 0.66556 0.54026 0.31468 0.0
C1510 C 0.60933 0.46376 0.27473 0.0
C1511 C 0.62947 0.53225 0.34523 0.0
H1512 H 0.52728 0.46988 0.32907 0.0
H1513 H 0.56683 0.43169 0.36651 0.0
H1514 H 0.5819 0.52308 0.30511 0.0
H1515 H 0.57833 0.49886 0.28155 0.0
H1516 H 0.54755 0.4969 0.29434 0.0
H1517 H 0.60965 0.43671 0.3546 0.0
H1518 H 0.62347 0.45137 0.32591 0.0
H1519 H 0.63243 0.47441 0.35163 0.0
H1520 H 0.66336 0.50234 0.2651 0.0
H1521 H 0.67982 0.55938 0.32479 0.0
H1522 H 0.58853 0.46162 0.27209 0.0
H1523 H 0.6061 0.44516 0.28488 0.0
H1524 H 0.61799 0.46309 0.25704 0.0
H1525 H 0.60971 0.53221 0.3422 0.0
H1526 H 0.64565 0.55372 0.35185 0.0
H1527 H 0.62559 0.51682 0.35938 0.0
C1528 C 0.53825 0.08635 0.31587 0.0
C1529 C 0.54023 0.0938 0.34017 0.0
C1530 C 0.52262 0.09272 0.29996 0.0
C1531 C 0.50788 0.10586 0.30877 0.0
C1532 C 0.51077 0.11432 0.33314 0.0
C1533 C 0.52717 0.10856 0.34837 0.0
C1534 C 0.52107 0.08428 0.27399 0.0
C1535 C 0.49507 0.12785 0.34359 0.0
C1536 C 0.46983 0.13704 0.27662 0.0
C1537 C 0.44205 0.11521 0.27937 0.0
C1538 C 0.49214 0.13331 0.28365 0.0
C1539 C 0.48636 0.10741 0.29395 0.0
C1540 C 0.45847 0.08443 0.29422 0.0
C1541 C 0.43677 0.08856 0.28674 0.0
C1542 C 0.52172 0.15779 0.28186 0.0
C1543 C 0.45114 0.05634 0.30482 0.0
H1544 H 0.54855 0.07523 0.30935 0.0
H1545 H 0.52859 0.11446 0.3671 0.0
H1546 H 0.50265 0.06275 0.27091 0.0
H1547 H 0.51881 0.09916 0.26234 0.0
H1548 H 0.53997 0.08356 0.26865 0.0
H1549 H 0.50029 0.13395 0.36272 0.0
H1550 H 0.49987 0.14711 0.33368 0.0
H1551 H 0.47222 0.1128 0.3419 0.0
H1552 H 0.47411 0.15758 0.27065 0.0
H1553 H 0.41533 0.07133 0.28829 0.0
H1554 H 0.53607 0.15011 0.27657 0.0
H1555 H 0.52885 0.16874 0.29951 0.0
H1556 H 0.52331 0.17351 0.26878 0.0
H1557 H 0.46438 0.04841 0.2972 0.0
H1558 H 0.42885 0.03989 0.30169 0.0
H1559 H 0.45518 0.05925 0.32435 0.0
C1560 C 0.68293 0.5797 0.8753 0.0
C1561 C 0.66225 0.55273 0.88267 0.0
C1562 C 0.70935 0.58504 0.86831 0.0
C1563 C 0.71557 0.56298 0.86906 0.0
C1564 C 0.696 0.53673 0.87921 0.0
C1565 C 0.66936 0.53178 0.88578 0.0
C1566 C 0.7294 0.61342 0.85775 0.0
C1567 C 0.70233 0.51311 0.88136 0.0
C1568 C 0.75827 0.56438 0.81599 0.0
C1569 C 0.78575 0.58009 0.82492 0.0
C1570 C 0.73529 0.55748 0.83055 0.0
C1571 C 0.73966 0.5658 0.85497 0.0
C1572 C 0.76726 0.57996 0.86455 0.0
C1573 C 0.79007 0.58739 0.84931 0.0
C1574 C 0.70639 0.54285 0.81931 0.0
C1575 C 0.77287 0.58833 0.89062 0.0
H1576 H 0.67779 0.59625 0.87342 0.0
H1577 H 0.65361 0.51098 0.8917 0.0
H1578 H 0.75062 0.62222 0.86558 0.0
H1579 H 0.73093 0.61059 0.83827 0.0
H1580 H 0.7226 0.62917 0.86065 0.0
H1581 H 0.68838 0.49711 0.89432 0.0
H1582 H 0.69925 0.50225 0.86375 0.0
H1583 H 0.72441 0.52165 0.88697 0.0
H1584 H 0.75464 0.55856 0.7972 0.0
H1585 H 0.81123 0.59926 0.85642 0.0
H1586 H 0.69766 0.55715 0.82041 0.0
H1587 H 0.69214 0.52339 0.82907 0.0
H1588 H 0.70647 0.53685 0.80028 0.0
H1589 H 0.77347 0.60873 0.89374 0.0
H1590 H 0.79332 0.59127 0.89648 0.0
H1591 H 0.75615 0.57215 0.90186 0.0
C1592 C 0.45076 0.21047 0.81262 0.0
C1593 C 0.42443 0.20761 0.81594 0.0
C1594 C 0.45977 0.19554 0.82652 0.0
C1595 C 0.44182 0.17683 0.84395 0.0
C1596 C 0.41575 0.17494 0.84824 0.0
C1597 C 0.40743 0.19056 0.83427 0.0
C1598 C 0.48791 0.19861 0.82156 0.0
C1599 C 0.39591 0.15509 0.86652 0.0
C1600 C 0.45249 0.11435 0.85265 0.0
C1601 C 0.46899 0.12247 0.87345 0.0
C1602 C 0.44233 0.13117 0.84363 0.0
C1603 C 0.44917 0.15708 0.85548 0.0
C1604 C 0.46507 0.16497 0.87696 0.0
C1605 C 0.47464 0.14743 0.88582 0.0
C1606 C 0.4251 0.12168 0.82088 0.0
C1607 C 0.47301 0.1925 0.89001 0.0
H1608 H 0.46412 0.22386 0.79863 0.0
H1609 H 0.38701 0.18821 0.83683 0.0
H1610 H 0.49986 0.20238 0.83843 0.0
H1611 H 0.4849 0.17864 0.81324 0.0
H1612 H 0.50061 0.21631 0.8094 0.0
H1613 H 0.37828 0.15879 0.86994 0.0
H1614 H 0.38718 0.13281 0.86007 0.0
H1615 H 0.40708 0.15752 0.88358 0.0
H1616 H 0.44773 0.09489 0.84318 0.0
H1617 H 0.48734 0.15375 0.90194 0.0
H1618 H 0.437 0.13642 0.80643 0.0
H1619 H 0.40556 0.12226 0.82327 0.0
H1620 H 0.41951 0.09985 0.81505 0.0
H1621 H 0.48791 0.2106 0.87912 0.0
H1622 H 0.48293 0.1942 0.90763 0.0
H1623 H 0.45432 0.19458 0.89268 0.0
C1624 C 0.82947 0.30085 0.89454 0.0
C1625 C 0.8491 0.31991 0.87854 0.0
C1626 C 0.81401 0.27155 0.88896 0.0
C1627 C 0.81863 0.26128 0.86706 0.0
C1628 C 0.83899 0.28047 0.85123 0.0
C1629 C 0.8538 0.30947 0.85711 0.0
C1630 C 0.79236 0.2517 0.90618 0.0
C1631 C 0.84487 0.27046 0.82779 0.0
C1632 C 0.79981 0.18594 0.85153 0.0
C1633 C 0.77819 0.17822 0.83484 0.0
C1634 C 0.8118 0.21218 0.86394 0.0
C1635 C 0.80164 0.23081 0.85969 0.0
C1636 C 0.77803 0.2218 0.84461 0.0
C1637 C 0.7667 0.19567 0.83223 0.0
C1638 C 0.83694 0.22097 0.87987 0.0
C1639 C 0.76624 0.2408 0.83987 0.0
H1640 H 0.82586 0.30888 0.91116 0.0
H1641 H 0.86918 0.32404 0.84478 0.0
H1642 H 0.77123 0.24236 0.89797 0.0
H1643 H 0.79574 0.23386 0.91014 0.0
H1644 H 0.79276 0.26267 0.92319 0.0
H1645 H 0.86227 0.28799 0.81803 0.0
H1646 H 0.8503 0.25384 0.83089 0.0
H1647 H 0.82588 0.26085 0.81623 0.0
H1648 H 0.80863 0.1724 0.85373 0.0
H1649 H 0.74965 0.18953 0.81963 0.0
H1650 H 0.83567 0.23165 0.89645 0.0
H1651 H 0.85613 0.23638 0.87047 0.0
H1652 H 0.83907 0.20255 0.88471 0.0
H1653 H 0.76454 0.25081 0.85669 0.0
H1654 H 0.7453 0.229 0.8311 0.0
H1655 H 0.78055 0.2581 0.82802 0.0
C1656 C 0.38962 0.20769 0.33615 0.0
C1657 C 0.40519 0.20494 0.31774 0.0
C1658 C 0.40012 0.23322 0.34941 0.0
C1659 C 0.42721 0.25618 0.34463 0.0
C1660 C 0.44319 0.25332 0.32628 0.0
C1661 C 0.43179 0.22787 0.31278 0.0
C1662 C 0.38209 0.23573 0.36832 0.0
C1663 C 0.47244 0.27702 0.3211 0.0
C1664 C 0.44517 0.33079 0.36314 0.0
C1665 C 0.45835 0.33442 0.38532 0.0
C1666 C 0.43482 0.30539 0.34979 0.0
C1667 C 0.43853 0.28339 0.35849 0.0
C1668 C 0.45254 0.28724 0.38059 0.0
C1669 C 0.46186 0.31256 0.39396 0.0
C1670 C 0.41931 0.30183 0.32667 0.0
C1671 C 0.45764 0.26461 0.39009 0.0
H1672 H 0.36901 0.18999 0.33993 0.0
H1673 H 0.444 0.22563 0.29875 0.0
H1674 H 0.39259 0.24007 0.386 0.0
H1675 H 0.37913 0.25389 0.36453 0.0
H1676 H 0.36121 0.21618 0.36937 0.0
H1677 H 0.48255 0.27095 0.30694 0.0
H1678 H 0.47197 0.29606 0.3154 0.0
H1679 H 0.48557 0.28313 0.33752 0.0
H1680 H 0.44211 0.34754 0.35654 0.0
H1681 H 0.47217 0.31541 0.41106 0.0
H1682 H 0.39782 0.2832 0.3276 0.0
H1683 H 0.42989 0.29767 0.31171 0.0
H1684 H 0.41788 0.32084 0.32258 0.0
H1685 H 0.4374 0.24513 0.39361 0.0
H1686 H 0.47029 0.27157 0.40683 0.0
H1687 H 0.46864 0.25883 0.37659 0.0
C1688 C 0.68423 0.15186 0.38692 0.0
C1689 C 0.65962 0.13054 0.37574 0.0
C1690 C 0.70828 0.16915 0.37363 0.0
C1691 C 0.70789 0.16474 0.34862 0.0
C1692 C 0.68333 0.14285 0.33734 0.0
C1693 C 0.65949 0.12621 0.35097 0.0
C1694 C 0.73389 0.19259 0.38627 0.0
C1695 C 0.68208 0.13722 0.31077 0.0
C1696 C 0.75573 0.22639 0.30972 0.0
C1697 C 0.77755 0.22114 0.30493 0.0
C1698 C 0.73333 0.2085 0.32421 0.0
C1699 C 0.73232 0.18434 0.33394 0.0
C1700 C 0.75417 0.17874 0.3291 0.0
C1701 C 0.77671 0.19738 0.3148 0.0
C1702 C 0.71072 0.21552 0.32913 0.0
C1703 C 0.75358 0.15294 0.33886 0.0
H1704 H 0.68458 0.15535 0.40603 0.0
H1705 H 0.64075 0.10957 0.34215 0.0
H1706 H 0.75236 0.19052 0.38232 0.0
H1707 H 0.73842 0.21348 0.37967 0.0
H1708 H 0.73127 0.19249 0.4059 0.0
H1709 H 0.66213 0.11811 0.30498 0.0
H1710 H 0.68432 0.15577 0.30116 0.0
H1711 H 0.69968 0.13426 0.30533 0.0
H1712 H 0.7563 0.24485 0.30238 0.0
H1713 H 0.7935 0.19322 0.31118 0.0
H1714 H 0.70849 0.21734 0.34864 0.0
H1715 H 0.69034 0.19816 0.3221 0.0
H1716 H 0.71513 0.23567 0.32092 0.0
H1717 H 0.75272 0.15339 0.3586 0.0
H1718 H 0.77215 0.15158 0.33352 0.0
H1719 H 0.73446 0.1334 0.33241 0.0
C1720 C 0.92712 0.59384 0.30831 0.0
C1721 C 0.93507 0.59039 0.33121 0.0
C1722 C 0.90454 0.59815 0.30484 0.0
C1723 C 0.88949 0.59937 0.32473 0.0
C1724 C 0.89843 0.59776 0.34801 0.0
C1725 C 0.921 0.59311 0.35098 0.0
C1726 C 0.8957 0.59953 0.27967 0.0
C1727 C 0.88326 0.59947 0.36972 0.0
C1728 C 0.83591 0.62092 0.30924 0.0
C1729 C 0.812 0.59427 0.30487 0.0
C1730 C 0.8611 0.62314 0.31717 0.0
C1731 C 0.86228 0.59813 0.32068 0.0
C1732 C 0.83772 0.57129 0.31756 0.0
C1733 C 0.813 0.56972 0.30978 0.0
C1734 C 0.88672 0.65215 0.32067 0.0
C1735 C 0.83786 0.54402 0.32105 0.0
H1736 H 0.93786 0.59208 0.29284 0.0
H1737 H 0.92705 0.59077 0.36878 0.0
H1738 H 0.87518 0.58029 0.27551 0.0
H1739 H 0.89308 0.61821 0.27782 0.0
H1740 H 0.91101 0.60082 0.26628 0.0
H1741 H 0.89547 0.60282 0.38639 0.0
H1742 H 0.87877 0.61697 0.36817 0.0
H1743 H 0.86293 0.5794 0.37113 0.0
H1744 H 0.83527 0.63998 0.3056 0.0
H1745 H 0.79454 0.549 0.3068 0.0
H1746 H 0.9014 0.65617 0.30585 0.0
H1747 H 0.8978 0.65332 0.3375 0.0
H1748 H 0.88144 0.66922 0.32107 0.0
H1749 H 0.85121 0.54195 0.30738 0.0
H1750 H 0.81658 0.52498 0.31961 0.0
H1751 H 0.84686 0.54431 0.33876 0.0
C1752 C 0.54974 0.04394 0.85996 0.0
C1753 C 0.55175 0.06953 0.86762 0.0
C1754 C 0.57334 0.04345 0.85122 0.0
C1755 C 0.59948 0.06911 0.85024 0.0
C1756 C 0.60132 0.095 0.85735 0.0
C1757 C 0.57754 0.09488 0.86586 0.0
C1758 C 0.57048 0.01546 0.84363 0.0
C1759 C 0.62871 0.12287 0.85671 0.0
C1760 C 0.66942 0.07309 0.85618 0.0
C1761 C 0.68025 0.08054 0.83312 0.0
C1762 C 0.64241 0.06745 0.8616 0.0
C1763 C 0.62557 0.06918 0.84354 0.0
C1764 C 0.6356 0.07484 0.81989 0.0
C1765 C 0.66283 0.0805 0.81495 0.0
C1766 C 0.63265 0.0615 0.88706 0.0
C1767 C 0.61822 0.07659 0.80005 0.0
H1768 H 0.52989 0.02429 0.86118 0.0
H1769 H 0.57936 0.11482 0.87156 0.0
H1770 H 0.57952 0.01706 0.8257 0.0
H1771 H 0.58237 0.01 0.85619 0.0
H1772 H 0.54834 -0.00209 0.8432 0.0
H1773 H 0.62636 0.14128 0.86185 0.0
H1774 H 0.64402 0.12235 0.86908 0.0
H1775 H 0.63763 0.12628 0.83857 0.0
H1776 H 0.68244 0.07267 0.87037 0.0
H1777 H 0.67081 0.08603 0.79705 0.0
H1778 H 0.6113 0.04267 0.88778 0.0
H1779 H 0.6317 0.07986 0.89475 0.0
H1780 H 0.64682 0.05778 0.89841 0.0
H1781 H 0.59642 0.05848 0.80059 0.0
H1782 H 0.62698 0.07674 0.78222 0.0
H1783 H 0.61742 0.09636 0.80241 0.0
C1784 C 0.86743 0.44769 0.8539 0.0
C1785 C 0.89413 0.45186 0.85852 0.0
C1786 C 0.86372 0.46627 0.83966 0.0
C1787 C 0.88733 0.49 0.82999 0.0
C1788 C 0.91442 0.49445 0.83456 0.0
C1789 C 0.9175 0.47515 0.84865 0.0
C1790 C 0.83444 0.46049 0.83502 0.0
C1791 C 0.94011 0.51977 0.82482 0.0
C1792 C 0.87274 0.52434 0.77792 0.0
C1793 C 0.87034 0.54596 0.78955 0.0
C1794 C 0.87897 0.50636 0.79075 0.0
C1795 C 0.88337 0.51042 0.81574 0.0
C1796 C 0.8817 0.53268 0.82747 0.0
C1797 C 0.87497 0.54998 0.81429 0.0
C1798 C 0.88003 0.48252 0.77768 0.0
C1799 C 0.88652 0.53793 0.85404 0.0
H1800 H 0.84918 0.42959 0.86125 0.0
H1801 H 0.93816 0.47845 0.85215 0.0
H1802 H 0.83227 0.47823 0.84244 0.0
H1803 H 0.83031 0.45916 0.81555 0.0
H1804 H 0.81823 0.44045 0.84306 0.0
H1805 H 0.95964 0.52008 0.82977 0.0
H1806 H 0.93859 0.51968 0.8051 0.0
H1807 H 0.94152 0.53965 0.83166 0.0
H1808 H 0.86923 0.52109 0.75882 0.0
H1809 H 0.87357 0.56688 0.82342 0.0
H1810 H 0.86313 0.4618 0.78409 0.0
H1811 H 0.90018 0.48361 0.78143 0.0
H1812 H 0.87755 0.48308 0.75809 0.0
H1813 H 0.86983 0.51962 0.86362 0.0
H1814 H 0.88665 0.55746 0.86015 0.0
H1815 H 0.90674 0.53988 0.85918 0.0
C1816 C 0.54066 0.43661 0.85075 0.0
C1817 C 0.53617 0.45886 0.84509 0.0
C1818 C 0.5267 0.41049 0.83817 0.0
C1819 C 0.5071 0.40623 0.82005 0.0
C1820 C 0.50222 0.42853 0.8145 0.0
C1821 C 0.51718 0.45476 0.82682 0.0
C1822 C 0.5331 0.38756 0.84412 0.0
C1823 C 0.48087 0.42455 0.79581 0.0
C1824 C 0.48423 0.34766 0.77253 0.0
C1825 C 0.45914 0.32617 0.78194 0.0
C1826 C 0.50062 0.37348 0.78516 0.0
C1827 C 0.49115 0.37823 0.80728 0.0
C1828 C 0.46591 0.35648 0.81688 0.0
C1829 C 0.45045 0.33057 0.80427 0.0
C1830 C 0.52788 0.3958 0.77471 0.0
C1831 C 0.45467 0.36095 0.84007 0.0
H1832 H 0.55561 0.43987 0.86468 0.0
H1833 H 0.51361 0.47191 0.82251 0.0
H1834 H 0.51405 0.36867 0.85072 0.0
H1835 H 0.53966 0.38072 0.82783 0.0
H1836 H 0.54988 0.39474 0.85788 0.0
H1837 H 0.47906 0.44376 0.79405 0.0
H1838 H 0.48659 0.4194 0.77825 0.0
H1839 H 0.46007 0.4064 0.8004 0.0
H1840 H 0.49102 0.34426 0.7553 0.0
H1841 H 0.43085 0.31414 0.81145 0.0
H1842 H 0.54509 0.40286 0.78802 0.0
H1843 H 0.5265 0.4147 0.77016 0.0
H1844 H 0.53337 0.38795 0.75837 0.0
H1845 H 0.47019 0.36651 0.85466 0.0
H1846 H 0.43477 0.34184 0.84515 0.0
H1847 H 0.45099 0.379 0.8385 0.0
C1848 C 0.56333 0.69112 0.63411 0.0
C1849 C 0.54246 0.67933 0.61638 0.0
C1850 C 0.57762 0.72022 0.63952 0.0
C1851 C 0.57085 0.73813 0.62694 0.0
C1852 C 0.55115 0.7267 0.60785 0.0
C1853 C 0.53712 0.69726 0.60272 0.0
C1854 C 0.59869 0.73143 0.65985 0.0
C1855 C 0.54369 0.74518 0.59379 0.0
C1856 C 0.58109 0.79766 0.66852 0.0
C1857 C 0.60864 0.81863 0.66359 0.0
C1858 C 0.56748 0.77224 0.65509 0.0
C1859 C 0.5818 0.76763 0.63626 0.0
C1860 C 0.60868 0.78978 0.62981 0.0
C1861 C 0.62186 0.81512 0.64362 0.0
C1862 C 0.53872 0.74934 0.66251 0.0
C1863 C 0.6244 0.78589 0.60956 0.0
H1864 H 0.56796 0.67739 0.64438 0.0
H1865 H 0.52115 0.68818 0.58886 0.0
H1866 H 0.61859 0.75005 0.6542 0.0
H1867 H 0.59055 0.73854 0.67489 0.0
H1868 H 0.60322 0.71515 0.66644 0.0
H1869 H 0.53287 0.73465 0.57673 0.0
H1870 H 0.52953 0.74975 0.60445 0.0
H1871 H 0.56262 0.76581 0.58991 0.0
H1872 H 0.57055 0.8005 0.68366 0.0
H1873 H 0.64305 0.83145 0.63954 0.0
H1874 H 0.54026 0.73208 0.6711 0.0
H1875 H 0.52466 0.73993 0.64675 0.0
H1876 H 0.52906 0.75752 0.67532 0.0
H1877 H 0.63324 0.77281 0.61553 0.0
H1878 H 0.64189 0.80655 0.60357 0.0
H1879 H 0.61022 0.77455 0.59418 0.0
C1880 C 0.22291 0.77273 0.6656 0.0
C1881 C 0.20518 0.78396 0.66677 0.0
C1882 C 0.24704 0.78527 0.65169 0.0
C1883 C 0.25403 0.81016 0.63911 0.0
C1884 C 0.23491 0.82015 0.6386 0.0
C1885 C 0.21048 0.80672 0.65235 0.0
C1886 C 0.26642 0.77348 0.65243 0.0
C1887 C 0.24154 0.84662 0.62549 0.0
C1888 C 0.33181 0.86305 0.64134 0.0
C1889 C 0.34054 0.85988 0.61861 0.0
C1890 C 0.30364 0.84779 0.64772 0.0
C1891 C 0.28341 0.8285 0.63106 0.0
C1892 C 0.29189 0.82554 0.60785 0.0
C1893 C 0.32043 0.84138 0.60184 0.0
C1894 C 0.29567 0.85188 0.67263 0.0
C1895 C 0.27095 0.80517 0.58962 0.0
H1896 H 0.21866 0.75494 0.67662 0.0
H1897 H 0.19682 0.81549 0.65334 0.0
H1898 H 0.27459 0.77326 0.63444 0.0
H1899 H 0.28457 0.78724 0.66427 0.0
H1900 H 0.25585 0.75158 0.65933 0.0
H1901 H 0.22262 0.8483 0.62274 0.0
H1902 H 0.25705 0.86555 0.63604 0.0
H1903 H 0.25093 0.84712 0.60793 0.0
H1904 H 0.3471 0.87752 0.65437 0.0
H1905 H 0.32701 0.83902 0.58419 0.0
H1906 H 0.28738 0.83184 0.68248 0.0
H1907 H 0.27892 0.85724 0.67187 0.0
H1908 H 0.31367 0.86897 0.68293 0.0
H1909 H 0.2625 0.78305 0.59546 0.0
H1910 H 0.28035 0.80731 0.57176 0.0
H1911 H 0.25304 0.80873 0.5881 0.0
C1912 C 0.20965 0.41692 0.65063 0.0
C1913 C 0.21398 0.42646 0.67451 0.0
C1914 C 0.19422 0.42376 0.63488 0.0
C1915 C 0.1823 0.43984 0.64344 0.0
C1916 C 0.18809 0.45085 0.66714 0.0
C1917 C 0.20403 0.44429 0.68221 0.0
C1918 C 0.1895 0.41252 0.6095 0.0
C1919 C 0.17564 0.46778 0.67728 0.0
C1920 C 0.14407 0.47012 0.60976 0.0
C1921 C 0.11622 0.44978 0.61461 0.0
C1922 C 0.16615 0.46603 0.61696 0.0
C1923 C 0.16012 0.44134 0.62955 0.0
C1924 C 0.13194 0.41976 0.63249 0.0
C1925 C 0.11048 0.42413 0.62477 0.0
C1926 C 0.19588 0.48899 0.61251 0.0
C1927 C 0.12429 0.39308 0.64583 0.0
H1928 H 0.21757 0.40344 0.64441 0.0
H1929 H 0.20748 0.45209 0.70053 0.0
H1930 H 0.1688 0.3928 0.60789 0.0
H1931 H 0.18961 0.4281 0.59708 0.0
H1932 H 0.20568 0.4074 0.60392 0.0
H1933 H 0.1836 0.47631 0.69555 0.0
H1934 H 0.18034 0.4858 0.66568 0.0
H1935 H 0.15255 0.45406 0.67798 0.0
H1936 H 0.14874 0.48984 0.60164 0.0
H1937 H 0.08899 0.40788 0.62799 0.0
H1938 H 0.2091 0.47967 0.60812 0.0
H1939 H 0.20473 0.50247 0.62886 0.0
H1940 H 0.19707 0.5028 0.59778 0.0
H1941 H 0.1356 0.38278 0.63854 0.0
H1942 H 0.10149 0.37744 0.64494 0.0
H1943 H 0.13058 0.39863 0.66485 0.0
C1944 C 0.33271 0.85878 0.22039 0.0
C1945 C 0.32326 0.87673 0.21262 0.0
C1946 C 0.35942 0.86374 0.21402 0.0
C1947 C 0.37673 0.88687 0.19931 0.0
C1948 C 0.36802 0.90613 0.19299 0.0
C1949 C 0.34168 0.90098 0.19991 0.0
C1950 C 0.36838 0.84333 0.2219 0.0
C1951 C 0.38556 0.93104 0.17727 0.0
C1952 C 0.4521 0.91475 0.18086 0.0
C1953 C 0.44808 0.90254 0.15789 0.0
C1954 C 0.42912 0.90787 0.19572 0.0
C1955 C 0.40158 0.88883 0.18718 0.0
C1956 C 0.39771 0.8751 0.16466 0.0
C1957 C 0.42094 0.88194 0.15046 0.0
C1958 C 0.43424 0.92224 0.21995 0.0
C1959 C 0.36884 0.85484 0.15462 0.0
H1960 H 0.31887 0.84023 0.23051 0.0
H1961 H 0.33502 0.91552 0.19432 0.0
H1962 H 0.36491 0.82809 0.20709 0.0
H1963 H 0.39099 0.85477 0.22659 0.0
H1964 H 0.35626 0.83105 0.23748 0.0
H1965 H 0.37667 0.94509 0.17535 0.0
H1966 H 0.40711 0.94391 0.18459 0.0
H1967 H 0.38703 0.92313 0.15925 0.0
H1968 H 0.47302 0.93041 0.18689 0.0
H1969 H 0.41757 0.87203 0.13289 0.0
H1970 H 0.41967 0.90735 0.23326 0.0
H1971 H 0.43052 0.94031 0.219 0.0
H1972 H 0.45608 0.93061 0.22625 0.0
H1973 H 0.35625 0.8383 0.16766 0.0
H1974 H 0.36948 0.8442 0.13774 0.0
H1975 H 0.35788 0.86666 0.15104 0.0
C1976 C 0.13873 0.47981 0.22847 0.0
C1977 C 0.13361 0.4557 0.215 0.0
C1978 C 0.12769 0.49673 0.2212 0.0
C1979 C 0.1111 0.48916 0.20011 0.0
C1980 C 0.10461 0.46389 0.18735 0.0
C1981 C 0.116 0.44761 0.19489 0.0
C1982 C 0.13493 0.52339 0.23537 0.0
C1983 C 0.08678 0.45475 0.16492 0.0
C1984 C 0.06706 0.51975 0.17864 0.0
C1985 C 0.08369 0.53677 0.16014 0.0
C1986 C 0.07654 0.50566 0.19332 0.0
C1987 C 0.10325 0.50893 0.1894 0.0
C1988 C 0.12093 0.52807 0.17208 0.0
C1989 C 0.11088 0.54161 0.15762 0.0
C1990 C 0.05714 0.48564 0.21172 0.0
C1991 C 0.14967 0.53252 0.16741 0.0
H1992 H 0.15216 0.48602 0.24414 0.0
H1993 H 0.11153 0.42871 0.18462 0.0
H1994 H 0.15046 0.54217 0.22549 0.0
H1995 H 0.11615 0.52537 0.2378 0.0
H1996 H 0.14395 0.52386 0.25316 0.0
H1997 H 0.08168 0.43333 0.1583 0.0
H1998 H 0.06696 0.45451 0.16814 0.0
H1999 H 0.09802 0.47017 0.15069 0.0
H2000 H 0.04604 0.51602 0.18069 0.0
H2001 H 0.124 0.55511 0.14357 0.0
H2002 H 0.0687 0.48763 0.22846 0.0
H2003 H 0.04796 0.46344 0.2049 0.0
H2004 H 0.03979 0.48957 0.21582 0.0
H2005 H 0.16142 0.53631 0.18438 0.0
H2006 H 0.16207 0.55071 0.15561 0.0
H2007 H 0.1476 0.5131 0.15873 0.0
C2008 C 0.52716 0.6398 0.19234 0.0
C2009 C 0.52081 0.64906 0.21362 0.0
C2010 C 0.51203 0.61123 0.18493 0.0
C2011 C 0.48978 0.59141 0.19903 0.0
C2012 C 0.48363 0.60048 0.22084 0.0
C2013 C 0.49936 0.62927 0.22796 0.0
C2014 C 0.51948 0.60241 0.16166 0.0
C2015 C 0.45996 0.57996 0.23625 0.0
C2016 C 0.43708 0.52865 0.16152 0.0
C2017 C 0.44604 0.50916 0.16482 0.0
C2018 C 0.44981 0.55478 0.17399 0.0
C2019 C 0.47222 0.56167 0.18997 0.0
C2020 C 0.48005 0.54126 0.1946 0.0
C2021 C 0.46673 0.51511 0.18202 0.0
C2022 C 0.44056 0.57579 0.16878 0.0
C2023 C 0.50385 0.54782 0.2115 0.0
H2024 H 0.5439 0.65498 0.1813 0.0
H2025 H 0.49444 0.63638 0.24445 0.0
H2026 H 0.52335 0.58467 0.16452 0.0
H2027 H 0.50174 0.59465 0.14883 0.0
H2028 H 0.53832 0.62014 0.15348 0.0
H2029 H 0.45921 0.5899 0.25349 0.0
H2030 H 0.43977 0.57207 0.22667 0.0
H2031 H 0.46202 0.56124 0.2399 0.0
H2032 H 0.42082 0.52396 0.14845 0.0
H2033 H 0.47364 0.50003 0.18469 0.0
H2034 H 0.45687 0.59342 0.15832 0.0
H2035 H 0.4379 0.58517 0.18559 0.0
H2036 H 0.4206 0.56588 0.15846 0.0
H2037 H 0.52395 0.56323 0.20324 0.0
H2038 H 0.50464 0.52849 0.21581 0.0
H2039 H 0.50204 0.55776 0.22832 0.0
C2040 C 0.1103 0.66702 0.68508 0.0
C2041 C 0.12365 0.67188 0.70735 0.0
C2042 C 0.10066 0.64124 0.67244 0.0
C2043 C 0.10518 0.62014 0.68199 0.0
C2044 C 0.11922 0.62518 0.70423 0.0
C2045 C 0.12791 0.65085 0.71684 0.0
C2046 C 0.08513 0.63639 0.6491 0.0
C2047 C 0.12509 0.60348 0.71467 0.0
C2048 C 0.05901 0.54322 0.66144 0.0
C2049 C 0.07549 0.54051 0.64386 0.0
C2050 C 0.06824 0.56916 0.67374 0.0
C2051 C 0.09494 0.59266 0.66881 0.0
C2052 C 0.11175 0.58996 0.65119 0.0
C2053 C 0.10164 0.56402 0.63867 0.0
C2054 C 0.04937 0.57145 0.6919 0.0
C2055 C 0.1406 0.61433 0.64583 0.0
H2056 H 0.10669 0.68312 0.67781 0.0
H2057 H 0.13837 0.65464 0.73398 0.0
H2058 H 0.09621 0.6323 0.63452 0.0
H2059 H 0.06395 0.61732 0.65017 0.0
H2060 H 0.08295 0.6548 0.64433 0.0
H2061 H 0.13736 0.6112 0.73159 0.0
H2062 H 0.10515 0.58366 0.71818 0.0
H2063 H 0.13684 0.59798 0.70173 0.0
H2064 H 0.03871 0.52511 0.66538 0.0
H2065 H 0.11456 0.56189 0.62526 0.0
H2066 H 0.04571 0.58896 0.6873 0.0
H2067 H 0.05956 0.57667 0.70976 0.0
H2068 H 0.02883 0.5515 0.69302 0.0
H2069 H 0.13925 0.63271 0.63958 0.0
H2070 H 0.1513 0.60853 0.63203 0.0
H2071 H 0.15366 0.62137 0.66232 0.0
C2072 C 0.35614 0.48019 0.72914 0.0
C2073 C 0.33134 0.46235 0.71632 0.0
C2074 C 0.38137 0.49755 0.71731 0.0
C2075 C 0.38187 0.49684 0.69207 0.0
C2076 C 0.35702 0.47858 0.67907 0.0
C2077 C 0.33211 0.46174 0.6913 0.0
C2078 C 0.40736 0.51704 0.73177 0.0
C2079 C 0.35664 0.47708 0.65214 0.0
C2080 C 0.43382 0.56056 0.65745 0.0
C2081 C 0.4528 0.55241 0.64964 0.0
C2082 C 0.41146 0.54323 0.67215 0.0
C2083 C 0.40763 0.51676 0.67903 0.0
C2084 C 0.4272 0.50871 0.67185 0.0
C2085 C 0.44977 0.52679 0.65733 0.0
C2086 C 0.39137 0.55285 0.67962 0.0
C2087 C 0.42365 0.48054 0.67869 0.0
H2088 H 0.35585 0.48076 0.74845 0.0
H2089 H 0.31322 0.44783 0.68115 0.0
H2090 H 0.42461 0.51337 0.72675 0.0
H2091 H 0.41433 0.53947 0.72787 0.0
H2092 H 0.40388 0.51403 0.75125 0.0
H2093 H 0.33605 0.46045 0.64475 0.0
H2094 H 0.36153 0.49786 0.645 0.0
H2095 H 0.37293 0.47261 0.64565 0.0
H2096 H 0.43627 0.58055 0.65185 0.0
H2097 H 0.4644 0.52044 0.65133 0.0
H2098 H 0.38856 0.55147 0.69922 0.0
H2099 H 0.37057 0.53868 0.67124 0.0
H2100 H 0.3986 0.575 0.67441 0.0
H2101 H 0.42086 0.47782 0.69822 0.0
H2102 H 0.44178 0.4784 0.67336 0.0
H2103 H 0.40451 0.46306 0.66996 0.0
C2104 C 0.59363 0.91995 0.64572 0.0
C2105 C 0.59563 0.90908 0.66762 0.0
C2106 C 0.57147 0.92447 0.64067 0.0
C2107 C 0.55061 0.91801 0.65792 0.0
C2108 C 0.55332 0.90864 0.6806 0.0
C2109 C 0.57581 0.90428 0.6852 0.0
C2110 C 0.56951 0.93451 0.61625 0.0
C2111 C 0.53164 0.90171 0.69954 0.0
C2112 C 0.49808 0.94121 0.64306 0.0
C2113 C 0.47673 0.91656 0.63173 0.0
C2114 C 0.52187 0.94181 0.65268 0.0
C2115 C 0.52431 0.91724 0.65079 0.0
C2116 C 0.50237 0.89212 0.64003 0.0
C2117 C 0.47897 0.8921 0.6307 0.0
C2118 C 0.54473 0.96892 0.6642 0.0
C2119 C 0.50402 0.86542 0.63751 0.0
H2120 H 0.60901 0.92422 0.63208 0.0
H2121 H 0.57721 0.89606 0.70223 0.0
H2122 H 0.55166 0.91701 0.60618 0.0
H2123 H 0.56556 0.95242 0.61777 0.0
H2124 H 0.58882 0.94144 0.60579 0.0
H2125 H 0.53882 0.89896 0.71723 0.0
H2126 H 0.52631 0.91868 0.70113 0.0
H2127 H 0.51219 0.88172 0.69444 0.0
H2128 H 0.49645 0.96013 0.64405 0.0
H2129 H 0.46252 0.87283 0.62217 0.0
H2130 H 0.56362 0.97795 0.65294 0.0
H2131 H 0.55068 0.96456 0.68181 0.0
H2132 H 0.53839 0.98507 0.66666 0.0
H2133 H 0.5216 0.86932 0.62571 0.0
H2134 H 0.48449 0.84722 0.62992 0.0
H2135 H 0.50822 0.8594 0.65511 0.0
C2136 C 0.24127 0.42837 0.19576 0.0
C2137 C 0.21612 0.40287 0.19942 0.0
C2138 C 0.26476 0.42851 0.18647 0.0
C2139 C 0.26323 0.40248 0.18052 0.0
C2140 C 0.23751 0.37665 0.18302 0.0
C2141 C 0.2142 0.37713 0.19252 0.0
C2142 C 0.29167 0.45659 0.18418 0.0
C2143 C 0.23495 0.34849 0.1766 0.0
C2144 C 0.32632 0.41247 0.14555 0.0
C2145 C 0.34409 0.41379 0.16399 0.0
C2146 C 0.29907 0.40686 0.15036 0.0
C2147 C 0.28945 0.40267 0.17416 0.0
C2148 C 0.30673 0.40245 0.19259 0.0
C2149 C 0.33368 0.40791 0.18729 0.0
C2150 C 0.28116 0.40688 0.13016 0.0
C2151 C 0.29745 0.39821 0.21823 0.0
H2152 H 0.24294 0.44843 0.20078 0.0
H2153 H 0.19483 0.35736 0.19519 0.0
H2154 H 0.30762 0.45763 0.19674 0.0
H2155 H 0.30003 0.45861 0.16592 0.0
H2156 H 0.28888 0.47501 0.18807 0.0
H2157 H 0.21285 0.33084 0.17637 0.0
H2158 H 0.24415 0.34932 0.15887 0.0
H2159 H 0.24679 0.34373 0.1898 0.0
H2160 H 0.33396 0.41673 0.12747 0.0
H2161 H 0.34696 0.4085 0.20171 0.0
H2162 H 0.28006 0.42658 0.13133 0.0
H2163 H 0.25949 0.38866 0.13141 0.0
H2164 H 0.28966 0.40589 0.11247 0.0
H2165 H 0.29589 0.41666 0.22473 0.0
H2166 H 0.3122 0.39597 0.23011 0.0
H2167 H 0.27642 0.37903 0.21973 0.0
C2168 C 0.53763 0.84763 0.11258 0.0
C2169 C 0.5318 0.86734 0.12355 0.0
C2170 C 0.54484 0.83091 0.12621 0.0
C2171 C 0.54666 0.83425 0.15138 0.0
C2172 C 0.54142 0.85454 0.16249 0.0
C2173 C 0.53388 0.87063 0.1485 0.0
C2174 C 0.54983 0.80918 0.11372 0.0
C2175 C 0.54332 0.85896 0.18924 0.0
C2176 C 0.53279 0.77218 0.18964 0.0
C2177 C 0.55983 0.77896 0.19657 0.0
C2178 C 0.52839 0.78965 0.17454 0.0
C2179 C 0.55158 0.81491 0.16633 0.0
C2180 C 0.57901 0.82198 0.1732 0.0
C2181 C 0.58285 0.80376 0.18812 0.0
C2182 C 0.4988 0.78109 0.16749 0.0
C2183 C 0.60423 0.84895 0.16504 0.0
H2184 H 0.53621 0.84498 0.09334 0.0
H2185 H 0.52984 0.88606 0.15721 0.0
H2186 H 0.57048 0.81235 0.11908 0.0
H2187 H 0.53374 0.78754 0.11912 0.0
H2188 H 0.54909 0.81022 0.09401 0.0
H2189 H 0.54072 0.87705 0.19497 0.0
H2190 H 0.52689 0.83949 0.19778 0.0
H2191 H 0.56383 0.86291 0.19595 0.0
H2192 H 0.51483 0.75291 0.19585 0.0
H2193 H 0.60378 0.80908 0.19336 0.0
H2194 H 0.49664 0.78014 0.14779 0.0
H2195 H 0.49383 0.7972 0.17429 0.0
H2196 H 0.48314 0.76011 0.17453 0.0
H2197 H 0.60451 0.84948 0.14529 0.0
H2198 H 0.62415 0.85114 0.17152 0.0
H2199 H 0.60303 0.86759 0.17161 0.0
C2200 C 0.17231 0.77862 0.16899 0.0
C2201 C 0.19242 0.78238 0.18606 0.0
C2202 C 0.15642 0.75256 0.15664 0.0
C2203 C 0.16139 0.73005 0.16094 0.0
C2204 C 0.18183 0.73383 0.17804 0.0
C2205 C 0.19681 0.75983 0.19066 0.0
C2206 C 0.13424 0.74908 0.13906 0.0
C2207 C 0.18822 0.71059 0.1827 0.0
C2208 C 0.10462 0.65465 0.14468 0.0
C2209 C 0.11286 0.65075 0.12196 0.0
C2210 C 0.12016 0.68038 0.15751 0.0
C2211 C 0.145 0.70248 0.14767 0.0
C2212 C 0.15385 0.6984 0.12501 0.0
C2213 C 0.13742 0.67271 0.11224 0.0
C2214 C 0.10963 0.68415 0.18132 0.0
C2215 C 0.18063 0.72119 0.11423 0.0
H2216 H 0.1688 0.796 0.16549 0.0
H2217 H 0.21259 0.76281 0.20365 0.0
H2218 H 0.13924 0.74459 0.12094 0.0
H2219 H 0.11369 0.7307 0.14387 0.0
H2220 H 0.13227 0.76829 0.13844 0.0
H2221 H 0.20523 0.71717 0.19614 0.0
H2222 H 0.16925 0.69144 0.18908 0.0
H2223 H 0.19448 0.70439 0.16588 0.0
H2224 H 0.08546 0.63784 0.15214 0.0
H2225 H 0.14391 0.66969 0.09473 0.0
H2226 H 0.10608 0.70237 0.18077 0.0
H2227 H 0.12552 0.6891 0.19546 0.0
H2228 H 0.0898 0.66494 0.18638 0.0
H2229 H 0.17913 0.74033 0.11104 0.0
H2230 H 0.18537 0.71409 0.09708 0.0
H2231 H 0.19838 0.72759 0.12681 0.0
C2232 C 0.39706 0.26945 0.05098 0.0
C2233 C 0.38326 0.27594 0.03353 0.0
C2234 C 0.41356 0.2896 0.06868 0.0
C2235 C 0.41538 0.31636 0.06917 0.0
C2236 C 0.404 0.32394 0.04999 0.0
C2237 C 0.38821 0.30358 0.03221 0.0
C2238 C 0.42619 0.28103 0.08827 0.0
C2239 C 0.40533 0.35222 0.04988 0.0
C2240 C 0.40666 0.34833 0.12625 0.0
C2241 C 0.43186 0.37417 0.12738 0.0
C2242 C 0.40185 0.32805 0.10837 0.0
C2243 C 0.42313 0.33365 0.09166 0.0
C2244 C 0.44982 0.35828 0.09462 0.0
C2245 C 0.45373 0.37861 0.11227 0.0
C2246 C 0.37289 0.30235 0.10563 0.0
C2247 C 0.47337 0.3646 0.0778 0.0
H2248 H 0.39281 0.24783 0.05214 0.0
H2249 H 0.37704 0.30828 0.01891 0.0
H2250 H 0.44635 0.29935 0.0947 0.0
H2251 H 0.41172 0.27328 0.10356 0.0
H2252 H 0.42969 0.26363 0.08216 0.0
H2253 H 0.39604 0.35498 0.03337 0.0
H2254 H 0.39381 0.35402 0.06535 0.0
H2255 H 0.42732 0.36981 0.05157 0.0
H2256 H 0.38963 0.34536 0.13764 0.0
H2257 H 0.47307 0.39895 0.11291 0.0
H2258 H 0.37407 0.28274 0.10443 0.0
H2259 H 0.36302 0.30362 0.08886 0.0
H2260 H 0.35913 0.30057 0.12066 0.0
H2261 H 0.47256 0.34483 0.07146 0.0
H2262 H 0.49402 0.37882 0.08647 0.0
H2263 H 0.47165 0.37555 0.06203 0.0
C2264 C 0.6085 0.99559 0.11208 0.0
C2265 C 0.58994 0.99511 0.09501 0.0
C2266 C 0.63739 0.0144 0.11011 0.0
C2267 C 0.6476 0.03353 0.09097 0.0
C2268 C 0.62852 0.03529 0.07543 0.0
C2269 C 0.59988 0.01565 0.07736 0.0
C2270 C 0.65702 0.01166 0.12699 0.0
C2271 C 0.63841 0.05617 0.05547 0.0
C2272 C 0.72598 0.08415 0.09409 0.0
C2273 C 0.73547 0.06971 0.07955 0.0
C2274 C 0.69727 0.07396 0.09648 0.0
C2275 C 0.67779 0.04796 0.08504 0.0
C2276 C 0.68744 0.03407 0.06943 0.0
C2277 C 0.71626 0.04543 0.0666 0.0
C2278 C 0.68791 0.0901 0.11237 0.0
C2279 C 0.66743 0.006 0.05723 0.0
H2280 H 0.60076 0.97944 0.12553 0.0
H2281 H 0.58542 0.01518 0.06411 0.0
H2282 H 0.66796 0.00234 0.1172 0.0
H2283 H 0.67319 0.0328 0.1341 0.0
H2284 H 0.64583 -0.0021 0.14221 0.0
H2285 H 0.62131 0.05907 0.04847 0.0
H2286 H 0.65604 0.07712 0.06155 0.0
H2287 H 0.64601 0.04826 0.04061 0.0
H2288 H 0.74097 0.10272 0.10438 0.0
H2289 H 0.72376 0.03402 0.05581 0.0
H2290 H 0.68161 0.07976 0.12988 0.0
H2291 H 0.66954 0.09002 0.10449 0.0
H2292 H 0.70491 0.11245 0.1155 0.0
H2293 H 0.65609 0.9897 0.07083 0.0
H2294 H 0.6783 -0.0016 0.04519 0.0
H2295 H 0.6516 0.00785 0.04664 0.0
C2296 C 0.93716 0.6484 0.05313 0.0
C2297 C 0.91562 0.64713 0.06691 0.0
C2298 C 0.94654 0.62924 0.05667 0.0
C2299 C 0.93342 0.60791 0.07394 0.0
C2300 C 0.9093 0.6044 0.0856 0.0
C2301 C 0.90104 0.6245 0.08234 0.0
C2302 C 0.97249 0.63399 0.04393 0.0
C2303 C 0.8938 0.58111 0.10317 0.0
C2304 C 0.96477 0.56057 0.07388 0.0
C2305 C 0.98599 0.57456 0.09115 0.0
C2306 C 0.94524 0.56915 0.06975 0.0
C2307 C 0.94792 0.59305 0.08249 0.0
C2308 C 0.96789 0.60561 0.10134 0.0
C2309 C 0.98647 0.59587 0.10566 0.0
C2310 C 0.92342 0.55421 0.05037 0.0
C2311 C 0.97173 0.63133 0.11526 0.0
H2312 H 0.94871 0.66626 0.04157 0.0
H2313 H 0.88451 0.62375 0.09319 0.0
H2314 H 0.99001 0.64153 0.05698 0.0
H2315 H 0.96909 0.61385 0.03573 0.0
H2316 H 0.97883 0.64996 0.02978 0.0
H2317 H 0.87215 0.57676 0.10582 0.0
H2318 H 0.89293 0.56121 0.09714 0.0
H2319 H 0.90486 0.58763 0.12066 0.0
H2320 H 0.96464 0.54421 0.0625 0.0
H2321 H 0.00325 0.60697 0.11868 0.0
H2322 H 0.93094 0.56607 0.03362 0.0
H2323 H 0.90354 0.55322 0.05514 0.0
H2324 H 0.91921 0.53229 0.04687 0.0
H2325 H 0.97946 0.64962 0.10322 0.0
H2326 H 0.98688 0.63737 0.13029 0.0
H2327 H 0.9515 0.62733 0.1225 0.0
C2328 C 0.27225 0.35971 0.42255 0.0
C2329 C 0.26358 0.33637 0.43728 0.0
C2330 C 0.30075 0.3798 0.42008 0.0
C2331 C 0.32086 0.37559 0.43182 0.0
C2332 C 0.31199 0.35344 0.44838 0.0
C2333 C 0.28332 0.33427 0.45115 0.0
C2334 C 0.30924 0.40393 0.40325 0.0
C2335 C 0.33269 0.34799 0.46117 0.0
C2336 C 0.38693 0.38883 0.40122 0.0
C2337 C 0.40729 0.40946 0.4165 0.0
C2338 C 0.35849 0.379 0.40493 0.0
C2339 C 0.3505 0.39076 0.42401 0.0
C2340 C 0.3713 0.41405 0.43759 0.0
C2341 C 0.39953 0.42274 0.43401 0.0
C2342 C 0.33704 0.35394 0.39012 0.0
C2343 C 0.36383 0.42815 0.45728 0.0
H2344 H 0.25687 0.36111 0.41166 0.0
H2345 H 0.27652 0.31589 0.46218 0.0
H2346 H 0.32805 0.42353 0.41007 0.0
H2347 H 0.31445 0.39822 0.38569 0.0
H2348 H 0.29207 0.40844 0.40046 0.0
H2349 H 0.32253 0.33135 0.47475 0.0
H2350 H 0.34307 0.34101 0.44803 0.0
H2351 H 0.3492 0.36772 0.4701 0.0
H2352 H 0.39302 0.37828 0.38801 0.0
H2353 H 0.41541 0.43856 0.44599 0.0
H2354 H 0.32107 0.35832 0.38286 0.0
H2355 H 0.32608 0.3351 0.40151 0.0
H2356 H 0.34662 0.34858 0.37502 0.0
H2357 H 0.34513 0.42941 0.45236 0.0
H2358 H 0.38145 0.4499 0.46154 0.0
H2359 H 0.35891 0.41552 0.47363 0.0
C2360 C 0.60633 0.00086 0.38698 0.0
C2361 C 0.58934 0.00233 0.40467 0.0
C2362 C 0.61674 0.98233 0.38912 0.0
C2363 C 0.60943 0.96463 0.40917 0.0
C2364 C 0.5896 0.96376 0.42549 0.0
C2365 C 0.58007 0.98293 0.42321 0.0
C2366 C 0.63791 0.98402 0.37135 0.0
C2367 C 0.58051 0.94457 0.44662 0.0
C2368 C 0.63669 0.91341 0.40874 0.0
C2369 C 0.6612 0.92874 0.42245 0.0
C2370 C 0.61853 0.9239 0.40544 0.0
C2371 C 0.62592 0.95097 0.41514 0.0
C2372 C 0.65035 0.9661 0.4296 0.0
C2373 C 0.66749 0.95453 0.43336 0.0
C2374 C 0.59219 0.90664 0.39072 0.0
C2375 C 0.65935 0.9953 0.43988 0.0
H2376 H 0.61374 0.01613 0.37283 0.0
H2377 H 0.56689 0.98416 0.43691 0.0
H2378 H 0.65899 0.99503 0.37986 0.0
H2379 H 0.63323 0.96249 0.36567 0.0
H2380 H 0.63855 0.99585 0.35528 0.0
H2381 H 0.56123 0.9423 0.45473 0.0
H2382 H 0.5767 0.9232 0.44138 0.0
H2383 H 0.59734 0.9536 0.46041 0.0
H2384 H 0.6322 0.89365 0.39999 0.0
H2385 H 0.68685 0.96659 0.44348 0.0
H2386 H 0.5948 0.91627 0.37302 0.0
H2387 H 0.57421 0.90658 0.39942 0.0
H2388 H 0.58716 0.88434 0.38795 0.0
H2389 H 0.66309 0.0101 0.42522 0.0
H2390 H 0.67875 0.00408 0.45088 0.0
H2391 H 0.64257 0.99458 0.4511 0.0
C2392 C 0.07874 0.67989 0.46124 0.0
C2393 C 0.10232 0.70636 0.46632 0.0
C2394 C 0.07771 0.66399 0.44095 0.0
C2395 C 0.10104 0.67489 0.42556 0.0
C2396 C 0.12621 0.6998 0.43244 0.0
C2397 C 0.12645 0.71548 0.4527 0.0
C2398 C 0.05042 0.63735 0.43454 0.0
C2399 C 0.152 0.71152 0.41728 0.0
C2400 C 0.08172 0.62009 0.37663 0.0
C2401 C 0.06727 0.62822 0.36124 0.0
C2402 C 0.09682 0.63736 0.39634 0.0
C2403 C 0.09679 0.66289 0.40082 0.0
C2404 C 0.08591 0.67309 0.38322 0.0
C2405 C 0.07124 0.65552 0.36353 0.0
C2406 C 0.10949 0.62641 0.41388 0.0
C2407 C 0.08618 0.70068 0.38684 0.0
H2408 H 0.05996 0.67321 0.47155 0.0
H2409 H 0.14455 0.73631 0.45638 0.0
H2410 H 0.0411 0.64096 0.41846 0.0
H2411 H 0.054 0.61958 0.43027 0.0
H2412 H 0.03505 0.63083 0.44919 0.0
H2413 H 0.17123 0.72401 0.42835 0.0
H2414 H 0.15327 0.69435 0.40752 0.0
H2415 H 0.15148 0.72599 0.404 0.0
H2416 H 0.07844 0.5988 0.37494 0.0
H2417 H 0.05982 0.66163 0.35172 0.0
H2418 H 0.09375 0.61367 0.42743 0.0
H2419 H 0.1279 0.64411 0.42325 0.0
H2420 H 0.11593 0.61242 0.40479 0.0
H2421 H 0.07182 0.69852 0.40147 0.0
H2422 H 0.07954 0.70691 0.37049 0.0
H2423 H 0.10741 0.71799 0.39205 0.0
C2424 C 0.627 0.60992 0.92708 0.0
C2425 C 0.60574 0.5949 0.91004 0.0
C2426 C 0.64198 0.63962 0.92799 0.0
C2427 C 0.63513 0.65465 0.91175 0.0
C2428 C 0.61339 0.63962 0.8947 0.0
C2429 C 0.59911 0.6098 0.89386 0.0
C2430 C 0.66552 0.65489 0.94601 0.0
C2431 C 0.60533 0.65503 0.87734 0.0
C2432 C 0.66195 0.73196 0.92864 0.0
C2433 C 0.68572 0.74566 0.91444 0.0
C2434 C 0.64464 0.70229 0.92738 0.0
C2435 C 0.65178 0.68612 0.91198 0.0
C2436 C 0.67582 0.69994 0.89767 0.0
C2437 C 0.69234 0.72957 0.8989 0.0
C2438 C 0.61891 0.68821 0.94264 0.0
C2439 C 0.68452 0.68339 0.88148 0.0
H2440 H 0.63231 0.59842 0.9395 0.0
H2441 H 0.58257 0.59815 0.88076 0.0
H2442 H 0.6855 0.66827 0.93669 0.0
H2443 H 0.66171 0.66925 0.95759 0.0
H2444 H 0.668 0.63999 0.95749 0.0
H2445 H 0.58695 0.64022 0.86609 0.0
H2446 H 0.60042 0.66978 0.88714 0.0
H2447 H 0.62314 0.66804 0.86551 0.0
H2448 H 0.65676 0.74444 0.94056 0.0
H2449 H 0.71085 0.74012 0.88801 0.0
H2450 H 0.62104 0.6745 0.95575 0.0
H2451 H 0.60022 0.67432 0.9314 0.0
H2452 H 0.61532 0.7039 0.95248 0.0
H2453 H 0.68869 0.66908 0.8922 0.0
H2454 H 0.70358 0.69744 0.87123 0.0
H2455 H 0.66737 0.66983 0.86872 0.0
C2456 C 0.26521 0.94751 0.92317 0.0
C2457 C 0.25848 0.96901 0.92289 0.0
C2458 C 0.29323 0.95417 0.92155 0.0
C2459 C 0.3148 0.98293 0.91991 0.0
C2460 C 0.30801 0.00465 0.92046 0.0
C2461 C 0.28 0.9974 0.92182 0.0
C2462 C 0.29965 0.93046 0.92083 0.0
C2463 C 0.33031 0.03567 0.91929 0.0
C2464 C 0.39044 0.01536 0.93746 0.0
C2465 C 0.40338 0.0237 0.91528 0.0
C2466 C 0.36131 -0.001 0.93916 0.0
C2467 C 0.34473 0.99111 0.91814 0.0
C2468 C 0.35786 0.99683 0.89559 0.0
C2469 C 0.38722 0.01316 0.8944 0.0
C2470 C 0.34834 0.99318 0.96356 0.0
C2471 C 0.34092 0.9884 0.87275 0.0
H2472 H 0.24854 0.92551 0.92365 0.0
H2473 H 0.27484 0.01406 0.92173 0.0
H2474 H 0.30763 0.92929 0.90297 0.0
H2475 H 0.31628 0.93468 0.93403 0.0
H2476 H 0.28092 0.90953 0.92446 0.0
H2477 H 0.32147 0.0499 0.92025 0.0
H2478 H 0.34552 0.04151 0.9342 0.0
H2479 H 0.34201 0.03961 0.90242 0.0
H2480 H 0.40307 0.02344 0.95361 0.0
H2481 H 0.39726 0.01974 0.87727 0.0
H2482 H 0.32995 0.97139 0.96423 0.0
H2483 H 0.34102 0.00828 0.96758 0.0
H2484 H 0.36354 0.99576 0.97769 0.0
H2485 H 0.32252 0.96666 0.87381 0.0
H2486 H 0.3536 0.98928 0.85712 0.0
H2487 H 0.33306 0.00316 0.86983 0.0
C2488 C 0.03611 0.31349 0.89212 0.0
C2489 C 0.04011 0.30439 0.91414 0.0
C2490 C 0.02295 0.32951 0.8906 0.0
C2491 C 0.01329 0.33624 0.91165 0.0
C2492 C 0.02023 0.32991 0.93414 0.0
C2493 C 0.03364 0.31395 0.93514 0.0
C2494 C 0.01638 0.33608 0.86628 0.0
C2495 C 0.01071 0.33714 0.95702 0.0
C2496 C 0.97539 0.37798 0.90744 0.0
C2497 C 0.94742 0.35586 0.9071 0.0
C2498 C 0.99731 0.37214 0.90893 0.0
C2499 C 0.99094 0.34357 0.9098 0.0
C2500 C 0.96268 0.32124 0.90856 0.0
C2501 C 0.94135 0.32769 0.90738 0.0
C2502 C 0.02712 0.39647 0.91044 0.0
C2503 C 0.95484 0.29042 0.9089 0.0
H2504 H 0.04127 0.30611 0.87588 0.0
H2505 H 0.0366 0.30673 0.95215 0.0
H2506 H 0.99422 0.32064 0.86157 0.0
H2507 H 0.01914 0.35763 0.86616 0.0
H2508 H 0.02979 0.33457 0.85231 0.0
H2509 H 0.02228 0.33608 0.97274 0.0
H2510 H 0.01348 0.35869 0.95642 0.0
H2511 H 0.98811 0.3218 0.9594 0.0
H2512 H 0.98007 0.39979 0.90759 0.0
H2513 H 0.91972 0.31058 0.90703 0.0
H2514 H 0.04039 0.39307 0.89759 0.0
H2515 H 0.03572 0.39757 0.92854 0.0
H2516 H 0.02875 0.41717 0.9069 0.0
H2517 H 0.96508 0.28564 0.89401 0.0
H2518 H 0.9319 0.27567 0.9073 0.0
H2519 H 0.9623 0.28611 0.92576 0.0
C2520 C 0.72007 0.7229 0.57528 0.0
C2521 C 0.73944 0.71368 0.57462 0.0
C2522 C 0.69135 0.70353 0.57603 0.0
C2523 C 0.68164 0.67406 0.57632 0.0
C2524 C 0.70102 0.66448 0.57486 0.0
C2525 C 0.72984 0.68449 0.5739 0.0
C2526 C 0.67144 0.71474 0.57703 0.0
C2527 C 0.69142 0.63326 0.57516 0.0
C2528 C 0.6089 0.63609 0.60186 0.0
C2529 C 0.59288 0.63051 0.58105 0.0
C2530 C 0.63802 0.64782 0.6006 0.0
C2531 C 0.65107 0.65382 0.57803 0.0
C2532 C 0.63445 0.64519 0.55702 0.0
C2533 C 0.60555 0.63376 0.5588 0.0
C2534 C 0.65503 0.65642 0.62341 0.0
C2535 C 0.64737 0.65082 0.53261 0.0
H2536 H 0.72748 0.74548 0.57562 0.0
H2537 H 0.74484 0.67736 0.57365 0.0
H2538 H 0.65616 0.70555 0.56202 0.0
H2539 H 0.65944 0.70828 0.59382 0.0
H2540 H 0.68244 0.73826 0.57613 0.0
H2541 H 0.70875 0.62917 0.57149 0.0
H2542 H 0.68273 0.6248 0.59291 0.0
H2543 H 0.67447 0.62128 0.5618 0.0
H2544 H 0.59911 0.63356 0.61907 0.0
H2545 H 0.59304 0.62899 0.54266 0.0
H2546 H 0.66507 0.67974 0.62629 0.0
H2547 H 0.67191 0.65124 0.62231 0.0
H2548 H 0.64187 0.64584 0.63909 0.0
H2549 H 0.65667 0.67368 0.52876 0.0
H2550 H 0.63165 0.63824 0.51844 0.0
H2551 H 0.66438 0.64582 0.5318 0.0
C2552 C 0.30131 0.02503 0.6115 0.0
C2553 C 0.29207 0.02833 0.58919 0.0
C2554 C 0.32023 0.01535 0.61336 0.0
C2555 C 0.32975 0.00837 0.59237 0.0
C2556 C 0.32263 0.01434 0.56981 0.0
C2557 C 0.30389 0.02444 0.56848 0.0
C2558 C 0.32766 0.00985 0.63776 0.0
C2559 C 0.33251 0.00736 0.54701 0.0
C2560 C 0.38136 0.98182 0.59543 0.0
C2561 C 0.36301 0.95239 0.59395 0.0
C2562 C 0.37099 0.00061 0.59536 0.0
C2563 C 0.34173 0.98951 0.59387 0.0
C2564 C 0.32323 0.95975 0.59356 0.0
C2565 C 0.33411 0.94165 0.5936 0.0
C2566 C 0.39129 0.03219 0.59591 0.0
C2567 C 0.29185 0.94688 0.59242 0.0
H2568 H 0.29252 0.02854 0.62758 0.0
H2569 H 0.29681 0.02707 0.55122 0.0
H2570 H 0.3151 0.98679 0.64123 0.0
H2571 H 0.35004 0.01617 0.63883 0.0
H2572 H 0.3233 0.02144 0.65202 0.0
H2573 H 0.32927 0.01759 0.53142 0.0
H2574 H 0.35499 0.01416 0.5484 0.0
H2575 H 0.32069 0.98402 0.54377 0.0
H2576 H 0.40372 0.99014 0.59551 0.0
H2577 H 0.31988 0.91886 0.59274 0.0
H2578 H 0.38482 0.04304 0.60915 0.0
H2579 H 0.39136 0.04089 0.57821 0.0
H2580 H 0.41293 0.0374 0.60027 0.0
H2581 H 0.28483 0.95483 0.60768 0.0
H2582 H 0.28044 0.92331 0.59276 0.0
H2583 H 0.28587 0.9533 0.57584 0.0
C2584 C 0.02648 0.38872 0.56595 0.0
C2585 C 0.01868 0.40414 0.58112 0.0
C2586 C 0.01124 0.359 0.56516 0.0
C2587 C 0.98732 0.34449 0.57952 0.0
C2588 C 0.97921 0.35997 0.59474 0.0
C2589 C 0.99525 0.38973 0.59558 0.0
C2590 C 0.02093 0.34316 0.54918 0.0
C2591 C 0.95356 0.34511 0.61005 0.0
C2592 C 0.93523 0.268 0.56169 0.0
C2593 C 0.94182 0.25335 0.57816 0.0
C2594 C 0.94959 0.29779 0.56216 0.0
C2595 C 0.97135 0.31304 0.57914 0.0
C2596 C 0.97833 0.29826 0.59554 0.0
C2597 C 0.96325 0.26856 0.59501 0.0
C2598 C 0.9414 0.31295 0.54462 0.0
C2599 C 0.00188 0.31381 0.61351 0.0
H2600 H 0.04477 0.3999 0.5549 0.0
H2601 H 0.98918 0.40172 0.60721 0.0
H2602 H 0.0253 0.32905 0.55997 0.0
H2603 H 0.00421 0.32946 0.53613 0.0
H2604 H 0.04009 0.3577 0.53926 0.0
H2605 H 0.9495 0.36031 0.62018 0.0
H2606 H 0.93496 0.33111 0.59874 0.0
H2607 H 0.9561 0.33142 0.62289 0.0
H2608 H 0.91858 0.25618 0.54873 0.0
H2609 H 0.96854 0.25721 0.60762 0.0
H2610 H 0.95938 0.32644 0.53311 0.0
H2611 H 0.93577 0.32721 0.55433 0.0
H2612 H 0.92344 0.29796 0.53307 0.0
H2613 H 0.02172 0.32767 0.60417 0.0
H2614 H 0.00485 0.29908 0.6248 0.0
H2615 H 0.99766 0.32774 0.62527 0.0
C2616 C 0.94962 0.67138 0.77707 0.0
C2617 C 0.92936 0.67465 0.76519 0.0
C2618 C 0.97818 0.69012 0.77322 0.0
C2619 C 0.9865 0.71302 0.75753 0.0
C2620 C 0.96606 0.71813 0.74762 0.0
C2621 C 0.93762 0.69847 0.75116 0.0
C2622 C 0.99918 0.6836 0.78397 0.0
C2623 C 0.974 0.7429 0.73167 0.0
C2624 C 0.06518 0.76025 0.75863 0.0
C2625 C 0.0726 0.74793 0.74001 0.0
C2626 C 0.03703 0.75124 0.76308 0.0
C2627 C 0.01592 0.72867 0.74911 0.0
C2628 C 0.02351 0.71801 0.72896 0.0
C2629 C 0.05188 0.72809 0.72448 0.0
C2630 C 0.02996 0.76412 0.78401 0.0
C2631 C 0.00171 0.69381 0.71363 0.0
H2632 H 0.94312 0.65253 0.78742 0.0
H2633 H 0.92183 0.70064 0.74162 0.0
H2634 H 0.00875 0.67721 0.7696 0.0
H2635 H 0.01626 0.70274 0.79315 0.0
H2636 H 0.9895 0.66621 0.79696 0.0
H2637 H 0.95702 0.74794 0.73045 0.0
H2638 H 0.9934 0.76209 0.73822 0.0
H2639 H 0.97797 0.73759 0.71345 0.0
H2640 H 0.08131 0.77554 0.77073 0.0
H2641 H 0.05767 0.71828 0.71034 0.0
H2642 H 0.02431 0.74994 0.79943 0.0
H2643 H 0.01175 0.76652 0.77975 0.0
H2644 H 0.04794 0.78521 0.78943 0.0
H2645 H 0.99136 0.6742 0.7242 0.0
H2646 H 0.01089 0.68965 0.69755 0.0
H2647 H 0.98533 0.69837 0.70784 0.0
C2648 C 0.28162 0.33457 0.72364 0.0
C2649 C 0.26123 0.33315 0.73909 0.0
C2650 C 0.29202 0.31609 0.72608 0.0
C2651 C 0.28115 0.29534 0.74399 0.0
C2652 C 0.25832 0.29185 0.75776 0.0
C2653 C 0.24897 0.31118 0.75545 0.0
C2654 C 0.31653 0.32071 0.71112 0.0
C2655 C 0.24531 0.26927 0.7763 0.0
C2656 C 0.31068 0.24632 0.74034 0.0
C2657 C 0.33359 0.26028 0.75604 0.0
C2658 C 0.29166 0.25587 0.73776 0.0
C2659 C 0.29646 0.28058 0.75053 0.0
C2660 C 0.31849 0.29344 0.76768 0.0
C2661 C 0.33667 0.2829 0.77039 0.0
C2662 C 0.26788 0.24088 0.72 0.0
C2663 C 0.32457 0.32002 0.78152 0.0
H2664 H 0.29132 0.35183 0.71124 0.0
H2665 H 0.2332 0.31019 0.76746 0.0
H2666 H 0.33547 0.32907 0.72265 0.0
H2667 H 0.31263 0.30036 0.70295 0.0
H2668 H 0.32094 0.336 0.6967 0.0
H2669 H 0.22439 0.26539 0.78161 0.0
H2670 H 0.24319 0.24902 0.7696 0.0
H2671 H 0.25896 0.27616 0.79242 0.0
H2672 H 0.30871 0.2291 0.72894 0.0
H2673 H 0.35483 0.29403 0.78206 0.0
H2674 H 0.27349 0.25281 0.70321 0.0
H2675 H 0.24864 0.23985 0.72683 0.0
H2676 H 0.2633 0.21897 0.71575 0.0
H2677 H 0.3313 0.3378 0.76907 0.0
H2678 H 0.34127 0.32628 0.79521 0.0
H2679 H 0.30546 0.31694 0.79047 0.0
C2680 C 0.74715 0.95523 0.71025 0.0
C2681 C 0.72519 0.95708 0.69989 0.0
C2682 C 0.76441 0.97508 0.72794 0.0
C2683 C 0.75898 0.99667 0.7355 0.0
C2684 C 0.73835 -9e-05 0.72344 0.0
C2685 C 0.72182 0.98011 0.70568 0.0
C2686 C 0.78717 0.97195 0.73955 0.0
C2687 C 0.73146 0.02231 0.73104 0.0
C2688 C 0.76058 0.02359 0.79765 0.0
C2689 C 0.77957 0.05244 0.79473 0.0
C2690 C 0.75637 0.00383 0.77937 0.0
C2691 C 0.77152 0.01351 0.75788 0.0
C2692 C 0.79381 0.04187 0.75664 0.0
C2693 C 0.79746 0.06114 0.77512 0.0
C2694 C 0.7328 0.97357 0.78169 0.0
C2695 C 0.81081 0.05296 0.73435 0.0
H2696 H 0.74932 0.93701 0.70597 0.0
H2697 H 0.70437 0.98102 0.69797 0.0
H2698 H 0.80782 0.99049 0.73524 0.0
H2699 H 0.78528 0.97176 0.75923 0.0
H2700 H 0.78678 0.95231 0.7334 0.0
H2701 H 0.7178 0.0245 0.71784 0.0
H2702 H 0.72049 0.01653 0.74835 0.0
H2703 H 0.75078 0.0432 0.73363 0.0
H2704 H 0.74662 0.01698 0.81274 0.0
H2705 H 0.81205 0.0836 0.77287 0.0
H2706 H 0.73817 0.95853 0.77316 0.0
H2707 H 0.71387 0.97093 0.77252 0.0
H2708 H 0.72763 0.9679 0.80065 0.0
H2709 H 0.83118 0.07257 0.7382 0.0
H2710 H 0.79909 0.05821 0.72141 0.0
H2711 H 0.81465 0.03679 0.72583 0.0
C2712 C 0.26042 0.93375 0.23341 0.0
C2713 C 0.27014 0.91982 0.2477 0.0
C2714 C 0.27369 0.96349 0.23408 0.0
C2715 C 0.29751 0.97944 0.24898 0.0
C2716 C 0.30763 0.9654 0.26313 0.0
C2717 C 0.29362 0.93571 0.2625 0.0
C2718 C 0.26217 0.97785 0.21899 0.0
C2719 C 0.33339 0.98172 0.27878 0.0
C2720 C 0.34858 0.05575 0.23394 0.0
C2721 C 0.34244 0.07056 0.25126 0.0
C2722 C 0.334 0.02605 0.23294 0.0
C2723 C 0.31241 0.01087 0.24938 0.0
C2724 C 0.30585 0.02572 0.26674 0.0
C2725 C 0.32122 0.05551 0.26764 0.0
C2726 C 0.34203 0.01092 0.21457 0.0
C2727 C 0.2827 0.01014 0.28435 0.0
H2728 H 0.24217 0.9214 0.22206 0.0
H2729 H 0.3013 0.92492 0.27341 0.0
H2730 H 0.25725 0.9915 0.23045 0.0
H2731 H 0.27811 0.99185 0.20607 0.0
H2732 H 0.24296 0.96234 0.20897 0.0
H2733 H 0.33868 0.96752 0.28847 0.0
H2734 H 0.35154 0.99616 0.26779 0.0
H2735 H 0.33021 0.99514 0.29202 0.0
H2736 H 0.36517 0.0674 0.22136 0.0
H2737 H 0.31642 0.06701 0.28096 0.0
H2738 H 0.3237 0.99662 0.20312 0.0
H2739 H 0.34878 0.99749 0.22359 0.0
H2740 H 0.35923 0.02592 0.20299 0.0
H2741 H 0.26286 0.9955 0.27473 0.0
H2742 H 0.27935 0.02485 0.29594 0.0
H2743 H 0.28771 0.99701 0.29583 0.0
C2744 C 0.95171 0.34189 0.25901 0.0
C2745 C 0.92884 0.31416 0.26005 0.0
C2746 C 0.97913 0.34719 0.25862 0.0
C2747 C 0.98396 0.32414 0.25922 0.0
C2748 C 0.96104 0.29607 0.26107 0.0
C2749 C 0.93362 0.29138 0.26154 0.0
C2750 C 0.00292 0.37755 0.25712 0.0
C2751 C 0.96539 0.27101 0.26172 0.0
C2752 C 0.05605 0.34915 0.235 0.0
C2753 C 0.07203 0.35992 0.25596 0.0
C2754 C 0.02666 0.33432 0.23587 0.0
C2755 C 0.01329 0.33024 0.2582 0.0
C2756 C 0.02945 0.33811 0.27945 0.0
C2757 C 0.05866 0.35302 0.27806 0.0
C2758 C 0.01013 0.32586 0.21281 0.0
C2759 C 0.01616 0.33385 0.30364 0.0
H2760 H 0.94812 0.35958 0.25809 0.0
H2761 H 0.91596 0.26989 0.2621 0.0
H2762 H 0.01751 0.38292 0.27245 0.0
H2763 H 0.01492 0.38018 0.24061 0.0
H2764 H 0.99552 0.39301 0.25707 0.0
H2765 H 0.94585 0.25104 0.26598 0.0
H2766 H 0.97279 0.26813 0.2441 0.0
H2767 H 0.98173 0.27481 0.27508 0.0
H2768 H 0.06639 0.35449 0.21792 0.0
H2769 H 0.0711 0.36107 0.29431 0.0
H2770 H 0.00358 0.34149 0.20898 0.0
H2771 H 0.99093 0.30474 0.21418 0.0
H2772 H 0.02265 0.32529 0.1976 0.0
H2773 H 0.01018 0.35016 0.30685 0.0
H2774 H 0.03071 0.33586 0.31816 0.0
H2775 H 0.99688 0.31271 0.30452 0.0
C2776 C 0.71361 0.65113 0.26078 0.0
C2777 C 0.69578 0.62185 0.25675 0.0
C2778 C 0.70323 0.66991 0.25992 0.0
C2779 C 0.67439 0.65899 0.25523 0.0
C2780 C 0.6564 0.62943 0.25138 0.0
C2781 C 0.66729 0.61137 0.25217 0.0
C2782 C 0.723 0.70132 0.26395 0.0
C2783 C 0.62541 0.61667 0.24668 0.0
C2784 C 0.63012 0.68876 0.27635 0.0
C2785 C 0.6224 0.69533 0.25468 0.0
C2786 C 0.6498 0.68 0.27722 0.0
C2787 C 0.66194 0.67754 0.25582 0.0
C2788 C 0.65653 0.68716 0.23427 0.0
C2789 C 0.63674 0.69603 0.23395 0.0
C2790 C 0.65496 0.67019 0.30063 0.0
C2791 C 0.66938 0.68529 0.21113 0.0
H2792 H 0.73568 0.65939 0.26412 0.0
H2793 H 0.65326 0.58875 0.24927 0.0
H2794 H 0.72192 0.71316 0.24857 0.0
H2795 H 0.7167 0.70889 0.27994 0.0
H2796 H 0.74498 0.70656 0.26645 0.0
H2797 H 0.61446 0.59331 0.24354 0.0
H2798 H 0.61563 0.62116 0.26211 0.0
H2799 H 0.62199 0.62639 0.23085 0.0
H2800 H 0.6194 0.68875 0.29252 0.0
H2801 H 0.63091 0.70126 0.2172 0.0
H2802 H 0.67737 0.67712 0.30298 0.0
H2803 H 0.64293 0.64663 0.30078 0.0
H2804 H 0.64829 0.67833 0.31605 0.0
H2805 H 0.69155 0.69139 0.21386 0.0
H2806 H 0.66823 0.69907 0.19746 0.0
H2807 H 0.65792 0.66304 0.20417 0.0
loop_
_geom_bond_atom_site_label_1
_geom_bond_atom_site_label_2
_geom_bond_distance
_geom_bond_site_symmetry_2
_ccdc_geom_bond_type
Co0 O1 2.216 . S
Co0 O2 2.091 . S
Co0 O4 2.004 . S
Co0 O10 2.021 . S
Co0 O12 2.137 . S
Co0 O13 2.244 . S
O1 Co0 2.216 . S
O1 C8 1.247 . S
O2 Co0 2.091 . S
O2 C8 1.261 . S
C3 O12 1.247 . S
C3 O13 1.272 . S
O4 Co0 2.004 . S
O4 C9 1.259 . S
Co5 O6 2.061 . S
Co5 O11 2.052 . S
Co5 O13 2.135 . S
O6 Co5 2.061 . S
O6 C9 1.235 . S
C7 O10 1.238 . S
C7 O11 1.241 . S
C8 O1 1.247 . S
C8 O2 1.261 . S
C9 O4 1.259 . S
C9 O6 1.235 . S
O10 Co0 2.021 . S
O10 C7 1.238 . S
O11 Co5 2.052 . S
O11 C7 1.241 . S
O12 Co0 2.137 . S
O12 C3 1.247 . S
O13 Co0 2.244 . S
O13 C3 1.272 . S
O13 Co5 2.135 . S
Co14 O15 2.216 . S
Co14 O16 2.091 . S
Co14 O18 2.004 . S
Co14 O24 2.021 . S
Co14 O26 2.137 . S
Co14 O27 2.244 . S
O15 Co14 2.216 . S
O15 C22 1.247 . S
O16 Co14 2.091 . S
O16 C22 1.261 . S
C17 O26 1.247 . S
C17 O27 1.272 . S
O18 Co14 2.004 . S
O18 C23 1.259 . S
Co19 O20 2.061 . S
Co19 O25 2.052 . S
Co19 O27 2.135 . S
O20 Co19 2.061 . S
O20 C23 1.235 . S
C21 O24 1.238 . S
C21 O25 1.241 . S
C22 O15 1.247 . S
C22 O16 1.261 . S
C23 O18 1.259 . S
C23 O20 1.235 . S
O24 Co14 2.021 . S
O24 C21 1.238 . S
O25 Co19 2.052 . S
O25 C21 1.241 . S
O26 Co14 2.137 . S
O26 C17 1.247 . S
O27 Co14 2.244 . S
O27 C17 1.272 . S
O27 Co19 2.135 . S
Co28 O29 2.216 . S
Co28 O30 2.091 . S
Co28 O32 2.004 . S
Co28 O38 2.021 . S
Co28 O40 2.137 . S
Co28 O41 2.244 . S
O29 Co28 2.216 . S
O29 C36 1.247 . S
O30 Co28 2.091 . S
O30 C36 1.261 . S
C31 O40 1.247 . S
C31 O41 1.272 . S
O32 Co28 2.004 . S
O32 C37 1.259 . S
Co33 O34 2.061 . S
Co33 O39 2.052 . S
Co33 O41 2.135 . S
O34 Co33 2.061 . S
O34 C37 1.235 . S
C35 O38 1.238 . S
C35 O39 1.241 . S
C36 O29 1.247 . S
C36 O30 1.261 . S
C37 O32 1.259 . S
C37 O34 1.235 . S
O38 Co28 2.021 . S
O38 C35 1.238 . S
O39 Co33 2.052 . S
O39 C35 1.241 . S
O40 Co28 2.137 . S
O40 C31 1.247 . S
O41 Co28 2.244 . S
O41 C31 1.272 . S
O41 Co33 2.135 . S
Co42 O43 2.216 . S
Co42 O44 2.091 . S
Co42 O46 2.004 . S
Co42 O52 2.021 . S
Co42 O54 2.137 . S
Co42 O55 2.244 . S
O43 Co42 2.216 . S
O43 C50 1.247 . S
O44 Co42 2.091 . S
O44 C50 1.261 . S
C45 O54 1.247 . S
C45 O55 1.272 . S
O46 Co42 2.004 . S
O46 C51 1.259 . S
Co47 O48 2.061 . S
Co47 O53 2.052 . S
Co47 O55 2.135 . S
O48 Co47 2.061 . S
O48 C51 1.235 . S
C49 O52 1.238 . S
C49 O53 1.241 . S
C50 O43 1.247 . S
C50 O44 1.261 . S
C51 O46 1.259 . S
C51 O48 1.235 . S
O52 Co42 2.021 . S
O52 C49 1.238 . S
O53 Co47 2.052 . S
O53 C49 1.241 . S
O54 Co42 2.137 . S
O54 C45 1.247 . S
O55 Co42 2.244 . S
O55 C45 1.272 . S
O55 Co47 2.135 . S
Co56 O57 2.216 . S
Co56 O58 2.091 . S
Co56 O60 2.004 . S
Co56 O66 2.021 . S
Co56 O68 2.137 . S
Co56 O69 2.244 . S
O57 Co56 2.216 . S
O57 C64 1.247 . S
O58 Co56 2.091 . S
O58 C64 1.261 . S
C59 O68 1.247 . S
C59 O69 1.272 . S
O60 Co56 2.004 . S
O60 C65 1.259 . S
Co61 O62 2.061 . S
Co61 O67 2.052 . S
Co61 O69 2.135 . S
O62 Co61 2.061 . S
O62 C65 1.235 . S
C63 O66 1.238 . S
C63 O67 1.241 . S
C64 O57 1.247 . S
C64 O58 1.261 . S
C65 O60 1.259 . S
C65 O62 1.235 . S
O66 Co56 2.021 . S
O66 C63 1.238 . S
O67 Co61 2.052 . S
O67 C63 1.241 . S
O68 Co56 2.137 . S
O68 C59 1.247 . S
O69 Co56 2.244 . S
O69 C59 1.272 . S
O69 Co61 2.135 . S
Co70 O71 2.216 . S
Co70 O72 2.091 . S
Co70 O74 2.004 . S
Co70 O80 2.021 . S
Co70 O82 2.137 . S
Co70 O83 2.244 . S
O71 Co70 2.216 . S
O71 C78 1.247 . S
O72 Co70 2.091 . S
O72 C78 1.261 . S
C73 O82 1.247 . S
C73 O83 1.272 . S
O74 Co70 2.004 . S
O74 C79 1.259 . S
Co75 O76 2.061 . S
Co75 O81 2.052 . S
Co75 O83 2.135 . S
O76 Co75 2.061 . S
O76 C79 1.235 . S
C77 O80 1.238 . S
C77 O81 1.241 . S
C78 O71 1.247 . S
C78 O72 1.261 . S
C79 O74 1.259 . S
C79 O76 1.235 . S
O80 Co70 2.021 . S
O80 C77 1.238 . S
O81 Co75 2.052 . S
O81 C77 1.241 . S
O82 Co70 2.137 . S
O82 C73 1.247 . S
O83 Co70 2.244 . S
O83 C73 1.272 . S
O83 Co75 2.135 . S
Co84 O85 2.216 . S
Co84 O86 2.091 . S
Co84 O88 2.004 . S
Co84 O94 2.021 . S
Co84 O96 2.137 . S
Co84 O97 2.244 . S
O85 Co84 2.216 . S
O85 C92 1.247 . S
O86 Co84 2.091 . S
O86 C92 1.261 . S
C87 O96 1.247 . S
C87 O97 1.272 . S
O88 Co84 2.004 . S
O88 C93 1.259 . S
Co89 O90 2.061 . S
Co89 O95 2.052 . S
Co89 O97 2.135 . S
O90 Co89 2.061 . S
O90 C93 1.235 . S
C91 O94 1.238 . S
C91 O95 1.241 . S
C92 O85 1.247 . S
C92 O86 1.261 . S
C93 O88 1.259 . S
C93 O90 1.235 . S
O94 Co84 2.021 . S
O94 C91 1.238 . S
O95 Co89 2.052 . S
O95 C91 1.241 . S
O96 Co84 2.137 . S
O96 C87 1.247 . S
O97 Co84 2.244 . S
O97 C87 1.272 . S
O97 Co89 2.135 . S
Co98 O99 2.216 . S
Co98 O100 2.091 . S
Co98 O102 2.004 . S
Co98 O108 2.021 . S
Co98 O110 2.137 . S
Co98 O111 2.244 . S
O99 Co98 2.216 . S
O99 C106 1.247 . S
O100 Co98 2.091 . S
O100 C106 1.261 . S
C101 O110 1.247 . S
C101 O111 1.272 . S
O102 Co98 2.004 . S
O102 C107 1.259 . S
Co103 O104 2.061 . S
Co103 O109 2.052 . S
Co103 O111 2.135 . S
O104 Co103 2.061 . S
O104 C107 1.235 . S
C105 O108 1.238 . S
C105 O109 1.241 . S
C106 O99 1.247 . S
C106 O100 1.261 . S
C107 O102 1.259 . S
C107 O104 1.235 . S
O108 Co98 2.021 . S
O108 C105 1.238 . S
O109 Co103 2.052 . S
O109 C105 1.241 . S
O110 Co98 2.137 . S
O110 C101 1.247 . S
O111 Co98 2.244 . S
O111 C101 1.272 . S
O111 Co103 2.135 . S
Co112 O113 2.216 . S
Co112 O114 2.091 . S
Co112 O116 2.004 . S
Co112 O122 2.021 . S
Co112 O124 2.137 . S
Co112 O125 2.244 . S
O113 Co112 2.216 . S
O113 C120 1.247 . S
O114 Co112 2.091 . S
O114 C120 1.261 . S
C115 O124 1.247 . S
C115 O125 1.272 . S
O116 Co112 2.004 . S
O116 C121 1.259 . S
Co117 O118 2.061 . S
Co117 O123 2.052 . S
Co117 O125 2.135 . S
O118 Co117 2.061 . S
O118 C121 1.235 . S
C119 O122 1.238 . S
C119 O123 1.241 . S
C120 O113 1.247 . S
C120 O114 1.261 . S
C121 O116 1.259 . S
C121 O118 1.235 . S
O122 Co112 2.021 . S
O122 C119 1.238 . S
O123 Co117 2.052 . S
O123 C119 1.241 . S
O124 Co112 2.137 . S
O124 C115 1.247 . S
O125 Co112 2.244 . S
O125 C115 1.272 . S
O125 Co117 2.135 . S
Co126 O127 2.216 . S
Co126 O128 2.091 . S
Co126 O130 2.004 . S
Co126 O136 2.021 . S
Co126 O138 2.137 . S
Co126 O139 2.244 . S
O127 Co126 2.216 . S
O127 C134 1.247 . S
O128 Co126 2.091 . S
O128 C134 1.261 . S
C129 O138 1.247 . S
C129 O139 1.272 . S
O130 Co126 2.004 . S
O130 C135 1.259 . S
Co131 O132 2.061 . S
Co131 O137 2.052 . S
Co131 O139 2.135 . S
O132 Co131 2.061 . S
O132 C135 1.235 . S
C133 O136 1.238 . S
C133 O137 1.241 . S
C134 O127 1.247 . S
C134 O128 1.261 . S
C135 O130 1.259 . S
C135 O132 1.235 . S
O136 Co126 2.021 . S
O136 C133 1.238 . S
O137 Co131 2.052 . S
O137 C133 1.241 . S
O138 Co126 2.137 . S
O138 C129 1.247 . S
O139 Co126 2.244 . S
O139 C129 1.272 . S
O139 Co131 2.135 . S
Co140 O141 2.216 . S
Co140 O142 2.091 . S
Co140 O144 2.004 . S
Co140 O150 2.021 . S
Co140 O152 2.137 . S
Co140 O153 2.244 . S
O141 Co140 2.216 . S
O141 C148 1.247 . S
O142 Co140 2.091 . S
O142 C148 1.261 . S
C143 O152 1.247 . S
C143 O153 1.272 . S
O144 Co140 2.004 . S
O144 C149 1.259 . S
Co145 O146 2.061 . S
Co145 O151 2.052 . S
Co145 O153 2.135 . S
O146 Co145 2.061 . S
O146 C149 1.235 . S
C147 O150 1.238 . S
C147 O151 1.241 . S
C148 O141 1.247 . S
C148 O142 1.261 . S
C149 O144 1.259 . S
C149 O146 1.235 . S
O150 Co140 2.021 . S
O150 C147 1.238 . S
O151 Co145 2.052 . S
O151 C147 1.241 . S
O152 Co140 2.137 . S
O152 C143 1.247 . S
O153 Co140 2.244 . S
O153 C143 1.272 . S
O153 Co145 2.135 . S
Co154 O155 2.216 . S
Co154 O156 2.091 . S
Co154 O158 2.004 . S
Co154 O164 2.021 . S
Co154 O166 2.137 . S
Co154 O167 2.244 . S
O155 Co154 2.216 . S
O155 C162 1.247 . S
O156 Co154 2.091 . S
O156 C162 1.261 . S
C157 O166 1.247 . S
C157 O167 1.272 . S
O158 Co154 2.004 . S
O158 C163 1.259 . S
Co159 O160 2.061 . S
Co159 O165 2.052 . S
Co159 O167 2.135 . S
O160 Co159 2.061 . S
O160 C163 1.235 . S
C161 O164 1.238 . S
C161 O165 1.241 . S
C162 O155 1.247 . S
C162 O156 1.261 . S
C163 O158 1.259 . S
C163 O160 1.235 . S
O164 Co154 2.021 . S
O164 C161 1.238 . S
O165 Co159 2.052 . S
O165 C161 1.241 . S
O166 Co154 2.137 . S
O166 C157 1.247 . S
O167 Co154 2.244 . S
O167 C157 1.272 . S
O167 Co159 2.135 . S
Co168 O169 2.216 . S
Co168 O170 2.091 . S
Co168 O172 2.004 . S
Co168 O178 2.021 . S
Co168 O180 2.137 . S
Co168 O181 2.244 . S
O169 Co168 2.216 . S
O169 C176 1.247 . S
O170 Co168 2.091 . S
O170 C176 1.261 . S
C171 O180 1.247 . S
C171 O181 1.272 . S
O172 Co168 2.004 . S
O172 C177 1.259 . S
Co173 O174 2.061 . S
Co173 O179 2.052 . S
Co173 O181 2.135 . S
O174 Co173 2.061 . S
O174 C177 1.235 . S
C175 O178 1.238 . S
C175 O179 1.241 . S
C176 O169 1.247 . S
C176 O170 1.261 . S
C177 O172 1.259 . S
C177 O174 1.235 . S
O178 Co168 2.021 . S
O178 C175 1.238 . S
O179 Co173 2.052 . S
O179 C175 1.241 . S
O180 Co168 2.137 . S
O180 C171 1.247 . S
O181 Co168 2.244 . S
O181 C171 1.272 . S
O181 Co173 2.135 . S
Co182 O183 2.216 . S
Co182 O184 2.091 . S
Co182 O186 2.004 . S
Co182 O192 2.021 . S
Co182 O194 2.137 . S
Co182 O195 2.244 . S
O183 Co182 2.216 . S
O183 C190 1.247 . S
O184 Co182 2.091 . S
O184 C190 1.261 . S
C185 O194 1.247 . S
C185 O195 1.272 . S
O186 Co182 2.004 . S
O186 C191 1.259 . S
Co187 O188 2.061 . S
Co187 O193 2.052 . S
Co187 O195 2.135 . S
O188 Co187 2.061 . S
O188 C191 1.235 . S
C189 O192 1.238 . S
C189 O193 1.241 . S
C190 O183 1.247 . S
C190 O184 1.261 . S
C191 O186 1.259 . S
C191 O188 1.235 . S
O192 Co182 2.021 . S
O192 C189 1.238 . S
O193 Co187 2.052 . S
O193 C189 1.241 . S
O194 Co182 2.137 . S
O194 C185 1.247 . S
O195 Co182 2.244 . S
O195 C185 1.272 . S
O195 Co187 2.135 . S
Co196 O197 2.216 . S
Co196 O198 2.091 . S
Co196 O200 2.004 . S
Co196 O206 2.021 . S
Co196 O208 2.137 . S
Co196 O209 2.244 . S
O197 Co196 2.216 . S
O197 C204 1.247 . S
O198 Co196 2.091 . S
O198 C204 1.261 . S
C199 O208 1.247 . S
C199 O209 1.272 . S
O200 Co196 2.004 . S
O200 C205 1.259 . S
Co201 O202 2.061 . S
Co201 O207 2.052 . S
Co201 O209 2.135 . S
O202 Co201 2.061 . S
O202 C205 1.235 . S
C203 O206 1.238 . S
C203 O207 1.241 . S
C204 O197 1.247 . S
C204 O198 1.261 . S
C205 O200 1.259 . S
C205 O202 1.235 . S
O206 Co196 2.021 . S
O206 C203 1.238 . S
O207 Co201 2.052 . S
O207 C203 1.241 . S
O208 Co196 2.137 . S
O208 C199 1.247 . S
O209 Co196 2.244 . S
O209 C199 1.272 . S
O209 Co201 2.135 . S
Co210 O211 2.216 . S
Co210 O212 2.091 . S
Co210 O214 2.004 . S
Co210 O220 2.021 . S
Co210 O222 2.137 . S
Co210 O223 2.244 . S
O211 Co210 2.216 . S
O211 C218 1.247 . S
O212 Co210 2.091 . S
O212 C218 1.261 . S
C213 O222 1.247 . S
C213 O223 1.272 . S
O214 Co210 2.004 . S
O214 C219 1.259 . S
Co215 O216 2.061 . S
Co215 O221 2.052 . S
Co215 O223 2.135 . S
O216 Co215 2.061 . S
O216 C219 1.235 . S
C217 O220 1.238 . S
C217 O221 1.241 . S
C218 O211 1.247 . S
C218 O212 1.261 . S
C219 O214 1.259 . S
C219 O216 1.235 . S
O220 Co210 2.021 . S
O220 C217 1.238 . S
O221 Co215 2.052 . S
O221 C217 1.241 . S
O222 Co210 2.137 . S
O222 C213 1.247 . S
O223 Co210 2.244 . S
O223 C213 1.272 . S
O223 Co215 2.135 . S
Co224 O225 2.216 . S
Co224 O226 2.091 . S
Co224 O228 2.004 . S
Co224 O234 2.021 . S
Co224 O236 2.137 . S
Co224 O237 2.244 . S
O225 Co224 2.216 . S
O225 C232 1.247 . S
O226 Co224 2.091 . S
O226 C232 1.261 . S
C227 O236 1.247 . S
C227 O237 1.272 . S
O228 Co224 2.004 . S
O228 C233 1.259 . S
Co229 O230 2.061 . S
Co229 O235 2.052 . S
Co229 O237 2.135 . S
O230 Co229 2.061 . S
O230 C233 1.235 . S
C231 O234 1.238 . S
C231 O235 1.241 . S
C232 O225 1.247 . S
C232 O226 1.261 . S
C233 O228 1.259 . S
C233 O230 1.235 . S
O234 Co224 2.021 . S
O234 C231 1.238 . S
O235 Co229 2.052 . S
O235 C231 1.241 . S
O236 Co224 2.137 . S
O236 C227 1.247 . S
O237 Co224 2.244 . S
O237 C227 1.272 . S
O237 Co229 2.135 . S
Co238 O239 2.216 . S
Co238 O240 2.091 . S
Co238 O242 2.004 . S
Co238 O248 2.021 . S
Co238 O250 2.137 . S
Co238 O251 2.244 . S
O239 Co238 2.216 . S
O239 C246 1.247 . S
O240 Co238 2.091 . S
O240 C246 1.261 . S
C241 O250 1.247 . S
C241 O251 1.272 . S
O242 Co238 2.004 . S
O242 C247 1.259 . S
Co243 O244 2.061 . S
Co243 O249 2.052 . S
Co243 O251 2.135 . S
O244 Co243 2.061 . S
O244 C247 1.235 . S
C245 O248 1.238 . S
C245 O249 1.241 . S
C246 O239 1.247 . S
C246 O240 1.261 . S
C247 O242 1.259 . S
C247 O244 1.235 . S
O248 Co238 2.021 . S
O248 C245 1.238 . S
O249 Co243 2.052 . S
O249 C245 1.241 . S
O250 Co238 2.137 . S
O250 C241 1.247 . S
O251 Co238 2.244 . S
O251 C241 1.272 . S
O251 Co243 2.135 . S
Co252 O253 2.216 . S
Co252 O254 2.091 . S
Co252 O256 2.004 . S
Co252 O262 2.021 . S
Co252 O264 2.137 . S
Co252 O265 2.244 . S
O253 Co252 2.216 . S
O253 C260 1.247 . S
O254 Co252 2.091 . S
O254 C260 1.261 . S
C255 O264 1.247 . S
C255 O265 1.272 . S
O256 Co252 2.004 . S
O256 C261 1.259 . S
Co257 O258 2.061 . S
Co257 O263 2.052 . S
Co257 O265 2.135 . S
O258 Co257 2.061 . S
O258 C261 1.235 . S
C259 O262 1.238 . S
C259 O263 1.241 . S
C260 O253 1.247 . S
C260 O254 1.261 . S
C261 O256 1.259 . S
C261 O258 1.235 . S
O262 Co252 2.021 . S
O262 C259 1.238 . S
O263 Co257 2.052 . S
O263 C259 1.241 . S
O264 Co252 2.137 . S
O264 C255 1.247 . S
O265 Co252 2.244 . S
O265 C255 1.272 . S
O265 Co257 2.135 . S
Co266 O267 2.216 . S
Co266 O268 2.091 . S
Co266 O270 2.004 . S
Co266 O276 2.021 . S
Co266 O278 2.137 . S
Co266 O279 2.244 . S
O267 Co266 2.216 . S
O267 C274 1.247 . S
O268 Co266 2.091 . S
O268 C274 1.261 . S
C269 O278 1.247 . S
C269 O279 1.272 . S
O270 Co266 2.004 . S
O270 C275 1.259 . S
Co271 O272 2.061 . S
Co271 O277 2.052 . S
Co271 O279 2.135 . S
O272 Co271 2.061 . S
O272 C275 1.235 . S
C273 O276 1.238 . S
C273 O277 1.241 . S
C274 O267 1.247 . S
C274 O268 1.261 . S
C275 O270 1.259 . S
C275 O272 1.235 . S
O276 Co266 2.021 . S
O276 C273 1.238 . S
O277 Co271 2.052 . S
O277 C273 1.241 . S
O278 Co266 2.137 . S
O278 C269 1.247 . S
O279 Co266 2.244 . S
O279 C269 1.272 . S
O279 Co271 2.135 . S
Co280 O281 2.216 . S
Co280 O282 2.091 . S
Co280 O284 2.004 . S
Co280 O290 2.021 . S
Co280 O292 2.137 . S
Co280 O293 2.244 . S
O281 Co280 2.216 . S
O281 C288 1.247 . S
O282 Co280 2.091 . S
O282 C288 1.261 . S
C283 O292 1.247 . S
C283 O293 1.272 . S
O284 Co280 2.004 . S
O284 C289 1.259 . S
Co285 O286 2.061 . S
Co285 O291 2.052 . S
Co285 O293 2.135 . S
O286 Co285 2.061 . S
O286 C289 1.235 . S
C287 O290 1.238 . S
C287 O291 1.241 . S
C288 O281 1.247 . S
C288 O282 1.261 . S
C289 O284 1.259 . S
C289 O286 1.235 . S
O290 Co280 2.021 . S
O290 C287 1.238 . S
O291 Co285 2.052 . S
O291 C287 1.241 . S
O292 Co280 2.137 . S
O292 C283 1.247 . S
O293 Co280 2.244 . S
O293 C283 1.272 . S
O293 Co285 2.135 . S
Co294 O295 2.216 . S
Co294 O296 2.091 . S
Co294 O298 2.004 . S
Co294 O304 2.021 . S
Co294 O306 2.137 . S
Co294 O307 2.244 . S
O295 Co294 2.216 . S
O295 C302 1.247 . S
O296 Co294 2.091 . S
O296 C302 1.261 . S
C297 O306 1.247 . S
C297 O307 1.272 . S
O298 Co294 2.004 . S
O298 C303 1.259 . S
Co299 O300 2.061 . S
Co299 O305 2.052 . S
Co299 O307 2.135 . S
O300 Co299 2.061 . S
O300 C303 1.235 . S
C301 O304 1.238 . S
C301 O305 1.241 . S
C302 O295 1.247 . S
C302 O296 1.261 . S
C303 O298 1.259 . S
C303 O300 1.235 . S
O304 Co294 2.021 . S
O304 C301 1.238 . S
O305 Co299 2.052 . S
O305 C301 1.241 . S
O306 Co294 2.137 . S
O306 C297 1.247 . S
O307 Co294 2.244 . S
O307 C297 1.272 . S
O307 Co299 2.135 . S
Co308 O309 2.216 . S
Co308 O310 2.091 . S
Co308 O312 2.004 . S
Co308 O318 2.021 . S
Co308 O320 2.137 . S
Co308 O321 2.244 . S
O309 Co308 2.216 . S
O309 C316 1.247 . S
O310 Co308 2.091 . S
O310 C316 1.261 . S
C311 O320 1.247 . S
C311 O321 1.272 . S
O312 Co308 2.004 . S
O312 C317 1.259 . S
Co313 O314 2.061 . S
Co313 O319 2.052 . S
Co313 O321 2.135 . S
O314 Co313 2.061 . S
O314 C317 1.235 . S
C315 O318 1.238 . S
C315 O319 1.241 . S
C316 O309 1.247 . S
C316 O310 1.261 . S
C317 O312 1.259 . S
C317 O314 1.235 . S
O318 Co308 2.021 . S
O318 C315 1.238 . S
O319 Co313 2.052 . S
O319 C315 1.241 . S
O320 Co308 2.137 . S
O320 C311 1.247 . S
O321 Co308 2.244 . S
O321 C311 1.272 . S
O321 Co313 2.135 . S
Co322 O323 2.216 . S
Co322 O324 2.091 . S
Co322 O326 2.004 . S
Co322 O332 2.021 . S
Co322 O334 2.137 . S
Co322 O335 2.244 . S
O323 Co322 2.216 . S
O323 C330 1.247 . S
O324 Co322 2.091 . S
O324 C330 1.261 . S
C325 O334 1.247 . S
C325 O335 1.272 . S
O326 Co322 2.004 . S
O326 C331 1.259 . S
Co327 O328 2.061 . S
Co327 O333 2.052 . S
Co327 O335 2.135 . S
O328 Co327 2.061 . S
O328 C331 1.235 . S
C329 O332 1.238 . S
C329 O333 1.241 . S
C330 O323 1.247 . S
C330 O324 1.261 . S
C331 O326 1.259 . S
C331 O328 1.235 . S
O332 Co322 2.021 . S
O332 C329 1.238 . S
O333 Co327 2.052 . S
O333 C329 1.241 . S
O334 Co322 2.137 . S
O334 C325 1.247 . S
O335 Co322 2.244 . S
O335 C325 1.272 . S
O335 Co327 2.135 . S
Co336 O337 2.216 . S
Co336 O338 2.091 . S
Co336 O340 2.004 . S
Co336 O346 2.021 . S
Co336 O348 2.137 . S
Co336 O349 2.244 . S
O337 Co336 2.216 . S
O337 C344 1.247 . S
O338 Co336 2.091 . S
O338 C344 1.261 . S
C339 O348 1.247 . S
C339 O349 1.272 . S
O340 Co336 2.004 . S
O340 C345 1.259 . S
Co341 O342 2.061 . S
Co341 O347 2.052 . S
Co341 O349 2.135 . S
O342 Co341 2.061 . S
O342 C345 1.235 . S
C343 O346 1.238 . S
C343 O347 1.241 . S
C344 O337 1.247 . S
C344 O338 1.261 . S
C345 O340 1.259 . S
C345 O342 1.235 . S
O346 Co336 2.021 . S
O346 C343 1.238 . S
O347 Co341 2.052 . S
O347 C343 1.241 . S
O348 Co336 2.137 . S
O348 C339 1.247 . S
O349 Co336 2.244 . S
O349 C339 1.272 . S
O349 Co341 2.135 . S
Co350 O351 2.216 . S
Co350 O352 2.091 . S
Co350 O354 2.004 . S
Co350 O360 2.021 . S
Co350 O362 2.137 . S
Co350 O363 2.244 . S
O351 Co350 2.216 . S
O351 C358 1.247 . S
O352 Co350 2.091 . S
O352 C358 1.261 . S
C353 O362 1.247 . S
C353 O363 1.272 . S
O354 Co350 2.004 . S
O354 C359 1.259 . S
Co355 O356 2.061 . S
Co355 O361 2.052 . S
Co355 O363 2.135 . S
O356 Co355 2.061 . S
O356 C359 1.235 . S
C357 O360 1.238 . S
C357 O361 1.241 . S
C358 O351 1.247 . S
C358 O352 1.261 . S
C359 O354 1.259 . S
C359 O356 1.235 . S
O360 Co350 2.021 . S
O360 C357 1.238 . S
O361 Co355 2.052 . S
O361 C357 1.241 . S
O362 Co350 2.137 . S
O362 C353 1.247 . S
O363 Co350 2.244 . S
O363 C353 1.272 . S
O363 Co355 2.135 . S
Co364 O365 2.216 . S
Co364 O366 2.091 . S
Co364 O368 2.004 . S
Co364 O374 2.021 . S
Co364 O376 2.137 . S
Co364 O377 2.244 . S
O365 Co364 2.216 . S
O365 C372 1.247 . S
O366 Co364 2.091 . S
O366 C372 1.261 . S
C367 O376 1.247 . S
C367 O377 1.272 . S
O368 Co364 2.004 . S
O368 C373 1.259 . S
Co369 O370 2.061 . S
Co369 O375 2.052 . S
Co369 O377 2.135 . S
O370 Co369 2.061 . S
O370 C373 1.235 . S
C371 O374 1.238 . S
C371 O375 1.241 . S
C372 O365 1.247 . S
C372 O366 1.261 . S
C373 O368 1.259 . S
C373 O370 1.235 . S
O374 Co364 2.021 . S
O374 C371 1.238 . S
O375 Co369 2.052 . S
O375 C371 1.241 . S
O376 Co364 2.137 . S
O376 C367 1.247 . S
O377 Co364 2.244 . S
O377 C367 1.272 . S
O377 Co369 2.135 . S
Co378 O379 2.216 . S
Co378 O380 2.091 . S
Co378 O382 2.004 . S
Co378 O388 2.021 . S
Co378 O390 2.137 . S
Co378 O391 2.244 . S
O379 Co378 2.216 . S
O379 C386 1.247 . S
O380 Co378 2.091 . S
O380 C386 1.261 . S
C381 O390 1.247 . S
C381 O391 1.272 . S
O382 Co378 2.004 . S
O382 C387 1.259 . S
Co383 O384 2.061 . S
Co383 O389 2.052 . S
Co383 O391 2.135 . S
O384 Co383 2.061 . S
O384 C387 1.235 . S
C385 O388 1.238 . S
C385 O389 1.241 . S
C386 O379 1.247 . S
C386 O380 1.261 . S
C387 O382 1.259 . S
C387 O384 1.235 . S
O388 Co378 2.021 . S
O388 C385 1.238 . S
O389 Co383 2.052 . S
O389 C385 1.241 . S
O390 Co378 2.137 . S
O390 C381 1.247 . S
O391 Co378 2.244 . S
O391 C381 1.272 . S
O391 Co383 2.135 . S
Co392 O393 2.216 . S
Co392 O394 2.091 . S
Co392 O396 2.004 . S
Co392 O402 2.021 . S
Co392 O404 2.137 . S
Co392 O405 2.244 . S
O393 Co392 2.216 . S
O393 C400 1.247 . S
O394 Co392 2.091 . S
O394 C400 1.261 . S
C395 O404 1.247 . S
C395 O405 1.272 . S
O396 Co392 2.004 . S
O396 C401 1.259 . S
Co397 O398 2.061 . S
Co397 O403 2.052 . S
Co397 O405 2.135 . S
O398 Co397 2.061 . S
O398 C401 1.235 . S
C399 O402 1.238 . S
C399 O403 1.241 . S
C400 O393 1.247 . S
C400 O394 1.261 . S
C401 O396 1.259 . S
C401 O398 1.235 . S
O402 Co392 2.021 . S
O402 C399 1.238 . S
O403 Co397 2.052 . S
O403 C399 1.241 . S
O404 Co392 2.137 . S
O404 C395 1.247 . S
O405 Co392 2.244 . S
O405 C395 1.272 . S
O405 Co397 2.135 . S
Co406 O407 2.216 . S
Co406 O408 2.091 . S
Co406 O410 2.004 . S
Co406 O416 2.021 . S
Co406 O418 2.137 . S
Co406 O419 2.244 . S
O407 Co406 2.216 . S
O407 C414 1.247 . S
O408 Co406 2.091 . S
O408 C414 1.261 . S
C409 O418 1.247 . S
C409 O419 1.272 . S
O410 Co406 2.004 . S
O410 C415 1.259 . S
Co411 O412 2.061 . S
Co411 O417 2.052 . S
Co411 O419 2.135 . S
O412 Co411 2.061 . S
O412 C415 1.235 . S
C413 O416 1.238 . S
C413 O417 1.241 . S
C414 O407 1.247 . S
C414 O408 1.261 . S
C415 O410 1.259 . S
C415 O412 1.235 . S
O416 Co406 2.021 . S
O416 C413 1.238 . S
O417 Co411 2.052 . S
O417 C413 1.241 . S
O418 Co406 2.137 . S
O418 C409 1.247 . S
O419 Co406 2.244 . S
O419 C409 1.272 . S
O419 Co411 2.135 . S
Co420 O421 2.216 . S
Co420 O422 2.091 . S
Co420 O424 2.004 . S
Co420 O430 2.021 . S
Co420 O432 2.137 . S
Co420 O433 2.244 . S
O421 Co420 2.216 . S
O421 C428 1.247 . S
O422 Co420 2.091 . S
O422 C428 1.261 . S
C423 O432 1.247 . S
C423 O433 1.272 . S
O424 Co420 2.004 . S
O424 C429 1.259 . S
Co425 O426 2.061 . S
Co425 O431 2.052 . S
Co425 O433 2.135 . S
O426 Co425 2.061 . S
O426 C429 1.235 . S
C427 O430 1.238 . S
C427 O431 1.241 . S
C428 O421 1.247 . S
C428 O422 1.261 . S
C429 O424 1.259 . S
C429 O426 1.235 . S
O430 Co420 2.021 . S
O430 C427 1.238 . S
O431 Co425 2.052 . S
O431 C427 1.241 . S
O432 Co420 2.137 . S
O432 C423 1.247 . S
O433 Co420 2.244 . S
O433 C423 1.272 . S
O433 Co425 2.135 . S
Co434 O435 2.216 . S
Co434 O436 2.091 . S
Co434 O438 2.004 . S
Co434 O444 2.021 . S
Co434 O446 2.137 . S
Co434 O447 2.244 . S
O435 Co434 2.216 . S
O435 C442 1.247 . S
O436 Co434 2.091 . S
O436 C442 1.261 . S
C437 O446 1.247 . S
C437 O447 1.272 . S
O438 Co434 2.004 . S
O438 C443 1.259 . S
Co439 O440 2.061 . S
Co439 O445 2.052 . S
Co439 O447 2.135 . S
O440 Co439 2.061 . S
O440 C443 1.235 . S
C441 O444 1.238 . S
C441 O445 1.241 . S
C442 O435 1.247 . S
C442 O436 1.261 . S
C443 O438 1.259 . S
C443 O440 1.235 . S
O444 Co434 2.021 . S
O444 C441 1.238 . S
O445 Co439 2.052 . S
O445 C441 1.241 . S
O446 Co434 2.137 . S
O446 C437 1.247 . S
O447 Co434 2.244 . S
O447 C437 1.272 . S
O447 Co439 2.135 . S
Co448 O449 2.216 . S
Co448 O450 2.091 . S
Co448 O452 2.004 . S
Co448 O458 2.021 . S
Co448 O460 2.137 . S
Co448 O461 2.244 . S
O449 Co448 2.216 . S
O449 C456 1.247 . S
O450 Co448 2.091 . S
O450 C456 1.261 . S
C451 O460 1.247 . S
C451 O461 1.272 . S
O452 Co448 2.004 . S
O452 C457 1.259 . S
Co453 O454 2.061 . S
Co453 O459 2.052 . S
Co453 O461 2.135 . S
O454 Co453 2.061 . S
O454 C457 1.235 . S
C455 O458 1.238 . S
C455 O459 1.241 . S
C456 O449 1.247 . S
C456 O450 1.261 . S
C457 O452 1.259 . S
C457 O454 1.235 . S
O458 Co448 2.021 . S
O458 C455 1.238 . S
O459 Co453 2.052 . S
O459 C455 1.241 . S
O460 Co448 2.137 . S
O460 C451 1.247 . S
O461 Co448 2.244 . S
O461 C451 1.272 . S
O461 Co453 2.135 . S
Co462 O463 2.216 . S
Co462 O464 2.091 . S
Co462 O466 2.004 . S
Co462 O472 2.021 . S
Co462 O474 2.137 . S
Co462 O475 2.244 . S
O463 Co462 2.216 . S
O463 C470 1.247 . S
O464 Co462 2.091 . S
O464 C470 1.261 . S
C465 O474 1.247 . S
C465 O475 1.272 . S
O466 Co462 2.004 . S
O466 C471 1.259 . S
Co467 O468 2.061 . S
Co467 O473 2.052 . S
Co467 O475 2.135 . S
O468 Co467 2.061 . S
O468 C471 1.235 . S
C469 O472 1.238 . S
C469 O473 1.241 . S
C470 O463 1.247 . S
C470 O464 1.261 . S
C471 O466 1.259 . S
C471 O468 1.235 . S
O472 Co462 2.021 . S
O472 C469 1.238 . S
O473 Co467 2.052 . S
O473 C469 1.241 . S
O474 Co462 2.137 . S
O474 C465 1.247 . S
O475 Co462 2.244 . S
O475 C465 1.272 . S
O475 Co467 2.135 . S
Co476 O477 2.216 . S
Co476 O478 2.091 . S
Co476 O480 2.004 . S
Co476 O486 2.021 . S
Co476 O488 2.137 . S
Co476 O489 2.244 . S
O477 Co476 2.216 . S
O477 C484 1.247 . S
O478 Co476 2.091 . S
O478 C484 1.261 . S
C479 O488 1.247 . S
C479 O489 1.272 . S
O480 Co476 2.004 . S
O480 C485 1.259 . S
Co481 O482 2.061 . S
Co481 O487 2.052 . S
Co481 O489 2.135 . S
O482 Co481 2.061 . S
O482 C485 1.235 . S
C483 O486 1.238 . S
C483 O487 1.241 . S
C484 O477 1.247 . S
C484 O478 1.261 . S
C485 O480 1.259 . S
C485 O482 1.235 . S
O486 Co476 2.021 . S
O486 C483 1.238 . S
O487 Co481 2.052 . S
O487 C483 1.241 . S
O488 Co476 2.137 . S
O488 C479 1.247 . S
O489 Co476 2.244 . S
O489 C479 1.272 . S
O489 Co481 2.135 . S
Co490 O491 2.216 . S
Co490 O492 2.091 . S
Co490 O494 2.004 . S
Co490 O500 2.021 . S
Co490 O502 2.137 . S
Co490 O503 2.244 . S
O491 Co490 2.216 . S
O491 C498 1.247 . S
O492 Co490 2.091 . S
O492 C498 1.261 . S
C493 O502 1.247 . S
C493 O503 1.272 . S
O494 Co490 2.004 . S
O494 C499 1.259 . S
Co495 O496 2.061 . S
Co495 O501 2.052 . S
Co495 O503 2.135 . S
O496 Co495 2.061 . S
O496 C499 1.235 . S
C497 O500 1.238 . S
C497 O501 1.241 . S
C498 O491 1.247 . S
C498 O492 1.261 . S
C499 O494 1.259 . S
C499 O496 1.235 . S
O500 Co490 2.021 . S
O500 C497 1.238 . S
O501 Co495 2.052 . S
O501 C497 1.241 . S
O502 Co490 2.137 . S
O502 C493 1.247 . S
O503 Co490 2.244 . S
O503 C493 1.272 . S
O503 Co495 2.135 . S
C504 C505 1.391 . S
C504 C506 1.394 . S
C504 H520 0.931 . S
C505 C504 1.391 . S
C505 C509 1.376 . S
C506 C504 1.394 . S
C506 C507 1.369 . S
C506 C510 1.531 . S
C507 C506 1.369 . S
C507 C508 1.410 . S
C507 C515 1.503 . S
C508 C507 1.410 . S
C508 C509 1.392 . S
C508 C511 1.511 . S
C509 C505 1.376 . S
C509 C508 1.392 . S
C509 H521 0.929 . S
C510 C506 1.531 . S
C510 H522 0.960 . S
C510 H523 0.962 . S
C510 H524 0.960 . S
C511 C508 1.511 . S
C511 H525 0.961 . S
C511 H526 0.961 . S
C511 H527 0.961 . S
C512 C513 1.370 . S
C512 C514 1.363 . S
C512 H528 0.931 . S
C513 C512 1.370 . S
C513 C517 1.408 . S
C514 C512 1.363 . S
C514 C515 1.370 . S
C514 C518 1.524 . S
C515 C507 1.503 . S
C515 C514 1.370 . S
C515 C516 1.403 . S
C516 C515 1.403 . S
C516 C517 1.404 . S
C516 C519 1.539 . S
C517 C513 1.408 . S
C517 C516 1.404 . S
C517 H529 0.930 . S
C518 C514 1.524 . S
C518 H530 0.956 . S
C518 H531 0.961 . S
C518 H532 0.961 . S
C519 C516 1.539 . S
C519 H533 0.958 . S
C519 H534 0.961 . S
C519 H535 0.960 . S
H520 C504 0.931 . S
H521 C509 0.929 . S
H522 C510 0.960 . S
H523 C510 0.962 . S
H524 C510 0.960 . S
H525 C511 0.961 . S
H526 C511 0.961 . S
H527 C511 0.961 . S
H528 C512 0.931 . S
H529 C517 0.930 . S
H530 C518 0.956 . S
H531 C518 0.961 . S
H532 C518 0.961 . S
H533 C519 0.958 . S
H534 C519 0.961 . S
H535 C519 0.960 . S
C536 C537 1.391 . S
C536 C538 1.394 . S
C536 H552 0.931 . S
C537 C536 1.391 . S
C537 C541 1.376 . S
C538 C536 1.394 . S
C538 C539 1.369 . S
C538 C542 1.531 . S
C539 C538 1.369 . S
C539 C540 1.410 . S
C539 C547 1.503 . S
C540 C539 1.410 . S
C540 C541 1.392 . S
C540 C543 1.511 . S
C541 C537 1.376 . S
C541 C540 1.392 . S
C541 H553 0.929 . S
C542 C538 1.531 . S
C542 H554 0.960 . S
C542 H555 0.962 . S
C542 H556 0.960 . S
C543 C540 1.511 . S
C543 H557 0.961 . S
C543 H558 0.961 . S
C543 H559 0.961 . S
C544 C545 1.370 . S
C544 C546 1.363 . S
C544 H560 0.931 . S
C545 C544 1.370 . S
C545 C549 1.408 . S
C546 C544 1.363 . S
C546 C547 1.370 . S
C546 C550 1.524 . S
C547 C539 1.503 . S
C547 C546 1.370 . S
C547 C548 1.403 . S
C548 C547 1.403 . S
C548 C549 1.404 . S
C548 C551 1.539 . S
C549 C545 1.408 . S
C549 C548 1.404 . S
C549 H561 0.930 . S
C550 C546 1.524 . S
C550 H562 0.956 . S
C550 H563 0.961 . S
C550 H564 0.961 . S
C551 C548 1.539 . S
C551 H565 0.958 . S
C551 H566 0.961 . S
C551 H567 0.960 . S
H552 C536 0.931 . S
H553 C541 0.929 . S
H554 C542 0.960 . S
H555 C542 0.962 . S
H556 C542 0.960 . S
H557 C543 0.961 . S
H558 C543 0.961 . S
H559 C543 0.961 . S
H560 C544 0.931 . S
H561 C549 0.930 . S
H562 C550 0.956 . S
H563 C550 0.961 . S
H564 C550 0.961 . S
H565 C551 0.958 . S
H566 C551 0.961 . S
H567 C551 0.960 . S
C568 C569 1.391 . S
C568 C570 1.394 . S
C568 H584 0.931 . S
C569 C568 1.391 . S
C569 C573 1.376 . S
C570 C568 1.394 . S
C570 C571 1.369 . S
C570 C574 1.531 . S
C571 C570 1.369 . S
C571 C572 1.410 . S
C571 C579 1.503 . S
C572 C571 1.410 . S
C572 C573 1.392 . S
C572 C575 1.511 . S
C573 C569 1.376 . S
C573 C572 1.392 . S
C573 H585 0.929 . S
C574 C570 1.531 . S
C574 H586 0.960 . S
C574 H587 0.962 . S
C574 H588 0.960 . S
C575 C572 1.511 . S
C575 H589 0.961 . S
C575 H590 0.961 . S
C575 H591 0.961 . S
C576 C577 1.370 . S
C576 C578 1.363 . S
C576 H592 0.931 . S
C577 C576 1.370 . S
C577 C581 1.408 . S
C578 C576 1.363 . S
C578 C579 1.370 . S
C578 C582 1.524 . S
C579 C571 1.503 . S
C579 C578 1.370 . S
C579 C580 1.403 . S
C580 C579 1.403 . S
C580 C581 1.404 . S
C580 C583 1.539 . S
C581 C577 1.408 . S
C581 C580 1.404 . S
C581 H593 0.930 . S
C582 C578 1.524 . S
C582 H594 0.956 . S
C582 H595 0.961 . S
C582 H596 0.961 . S
C583 C580 1.539 . S
C583 H597 0.958 . S
C583 H598 0.961 . S
C583 H599 0.960 . S
H584 C568 0.931 . S
H585 C573 0.929 . S
H586 C574 0.960 . S
H587 C574 0.962 . S
H588 C574 0.960 . S
H589 C575 0.961 . S
H590 C575 0.961 . S
H591 C575 0.961 . S
H592 C576 0.931 . S
H593 C581 0.930 . S
H594 C582 0.956 . S
H595 C582 0.961 . S
H596 C582 0.961 . S
H597 C583 0.958 . S
H598 C583 0.961 . S
H599 C583 0.960 . S
C600 C601 1.391 . S
C600 C602 1.394 . S
C600 H616 0.931 . S
C601 C600 1.391 . S
C601 C605 1.376 . S
C602 C600 1.394 . S
C602 C603 1.369 . S
C602 C606 1.531 . S
C603 C602 1.369 . S
C603 C604 1.410 . S
C603 C611 1.503 . S
C604 C603 1.410 . S
C604 C605 1.392 . S
C604 C607 1.511 . S
C605 C601 1.376 . S
C605 C604 1.392 . S
C605 H617 0.929 . S
C606 C602 1.531 . S
C606 H618 0.960 . S
C606 H619 0.962 . S
C606 H620 0.960 . S
C607 C604 1.511 . S
C607 H621 0.961 . S
C607 H622 0.961 . S
C607 H623 0.961 . S
C608 C609 1.370 . S
C608 C610 1.363 . S
C608 H624 0.931 . S
C609 C608 1.370 . S
C609 C613 1.408 . S
C610 C608 1.363 . S
C610 C611 1.370 . S
C610 C614 1.524 . S
C611 C603 1.503 . S
C611 C610 1.370 . S
C611 C612 1.403 . S
C612 C611 1.403 . S
C612 C613 1.404 . S
C612 C615 1.539 . S
C613 C609 1.408 . S
C613 C612 1.404 . S
C613 H625 0.930 . S
C614 C610 1.524 . S
C614 H626 0.956 . S
C614 H627 0.961 . S
C614 H628 0.961 . S
C615 C612 1.539 . S
C615 H629 0.958 . S
C615 H630 0.961 . S
C615 H631 0.960 . S
H616 C600 0.931 . S
H617 C605 0.929 . S
H618 C606 0.960 . S
H619 C606 0.962 . S
H620 C606 0.960 . S
H621 C607 0.961 . S
H622 C607 0.961 . S
H623 C607 0.961 . S
H624 C608 0.931 . S
H625 C613 0.930 . S
H626 C614 0.956 . S
H627 C614 0.961 . S
H628 C614 0.961 . S
H629 C615 0.958 . S
H630 C615 0.961 . S
H631 C615 0.960 . S
C632 C633 1.391 . S
C632 C634 1.394 . S
C632 H648 0.931 . S
C633 C632 1.391 . S
C633 C637 1.376 . S
C634 C632 1.394 . S
C634 C635 1.369 . S
C634 C638 1.531 . S
C635 C634 1.369 . S
C635 C636 1.410 . S
C635 C643 1.503 . S
C636 C635 1.410 . S
C636 C637 1.392 . S
C636 C639 1.511 . S
C637 C633 1.376 . S
C637 C636 1.392 . S
C637 H649 0.929 . S
C638 C634 1.531 . S
C638 H650 0.960 . S
C638 H651 0.962 . S
C638 H652 0.960 . S
C639 C636 1.511 . S
C639 H653 0.961 . S
C639 H654 0.961 . S
C639 H655 0.961 . S
C640 C641 1.370 . S
C640 C642 1.363 . S
C640 H656 0.931 . S
C641 C640 1.370 . S
C641 C645 1.408 . S
C642 C640 1.363 . S
C642 C643 1.370 . S
C642 C646 1.524 . S
C643 C635 1.503 . S
C643 C642 1.370 . S
C643 C644 1.403 . S
C644 C643 1.403 . S
C644 C645 1.404 . S
C644 C647 1.539 . S
C645 C641 1.408 . S
C645 C644 1.404 . S
C645 H657 0.930 . S
C646 C642 1.524 . S
C646 H658 0.956 . S
C646 H659 0.961 . S
C646 H660 0.961 . S
C647 C644 1.539 . S
C647 H661 0.958 . S
C647 H662 0.961 . S
C647 H663 0.960 . S
H648 C632 0.931 . S
H649 C637 0.929 . S
H650 C638 0.960 . S
H651 C638 0.962 . S
H652 C638 0.960 . S
H653 C639 0.961 . S
H654 C639 0.961 . S
H655 C639 0.961 . S
H656 C640 0.931 . S
H657 C645 0.930 . S
H658 C646 0.956 . S
H659 C646 0.961 . S
H660 C646 0.961 . S
H661 C647 0.958 . S
H662 C647 0.961 . S
H663 C647 0.960 . S
C664 C665 1.391 . S
C664 C666 1.394 . S
C664 H680 0.931 . S
C665 C664 1.391 . S
C665 C669 1.376 . S
C666 C664 1.394 . S
C666 C667 1.369 . S
C666 C670 1.531 . S
C667 C666 1.369 . S
C667 C668 1.410 . S
C667 C675 1.503 . S
C668 C667 1.410 . S
C668 C669 1.392 . S
C668 C671 1.511 . S
C669 C665 1.376 . S
C669 C668 1.392 . S
C669 H681 0.929 . S
C670 C666 1.531 . S
C670 H682 0.960 . S
C670 H683 0.962 . S
C670 H684 0.960 . S
C671 C668 1.511 . S
C671 H685 0.961 . S
C671 H686 0.961 . S
C671 H687 0.961 . S
C672 C673 1.370 . S
C672 C674 1.363 . S
C672 H688 0.931 . S
C673 C672 1.370 . S
C673 C677 1.408 . S
C674 C672 1.363 . S
C674 C675 1.370 . S
C674 C678 1.524 . S
C675 C667 1.503 . S
C675 C674 1.370 . S
C675 C676 1.403 . S
C676 C675 1.403 . S
C676 C677 1.404 . S
C676 C679 1.539 . S
C677 C673 1.408 . S
C677 C676 1.404 . S
C677 H689 0.930 . S
C678 C674 1.524 . S
C678 H690 0.956 . S
C678 H691 0.961 . S
C678 H692 0.961 . S
C679 C676 1.539 . S
C679 H693 0.958 . S
C679 H694 0.961 . S
C679 H695 0.960 . S
H680 C664 0.931 . S
H681 C669 0.929 . S
H682 C670 0.960 . S
H683 C670 0.962 . S
H684 C670 0.960 . S
H685 C671 0.961 . S
H686 C671 0.961 . S
H687 C671 0.961 . S
H688 C672 0.931 . S
H689 C677 0.930 . S
H690 C678 0.956 . S
H691 C678 0.961 . S
H692 C678 0.961 . S
H693 C679 0.958 . S
H694 C679 0.961 . S
H695 C679 0.960 . S
C696 C697 1.391 . S
C696 C698 1.394 . S
C696 H712 0.931 . S
C697 C696 1.391 . S
C697 C701 1.376 . S
C698 C696 1.394 . S
C698 C699 1.369 . S
C698 C702 1.531 . S
C699 C698 1.369 . S
C699 C700 1.410 . S
C699 C707 1.503 . S
C700 C699 1.410 . S
C700 C701 1.392 . S
C700 C703 1.511 . S
C701 C697 1.376 . S
C701 C700 1.392 . S
C701 H713 0.929 . S
C702 C698 1.531 . S
C702 H714 0.960 . S
C702 H715 0.962 . S
C702 H716 0.960 . S
C703 C700 1.511 . S
C703 H717 0.961 . S
C703 H718 0.961 . S
C703 H719 0.961 . S
C704 C705 1.370 . S
C704 C706 1.363 . S
C704 H720 0.931 . S
C705 C704 1.370 . S
C705 C709 1.408 . S
C706 C704 1.363 . S
C706 C707 1.370 . S
C706 C710 1.524 . S
C707 C699 1.503 . S
C707 C706 1.370 . S
C707 C708 1.403 . S
C708 C707 1.403 . S
C708 C709 1.404 . S
C708 C711 1.539 . S
C709 C705 1.408 . S
C709 C708 1.404 . S
C709 H721 0.930 . S
C710 C706 1.524 . S
C710 H722 0.956 . S
C710 H723 0.961 . S
C710 H724 0.961 . S
C711 C708 1.539 . S
C711 H725 0.958 . S
C711 H726 0.961 . S
C711 H727 0.960 . S
H712 C696 0.931 . S
H713 C701 0.929 . S
H714 C702 0.960 . S
H715 C702 0.962 . S
H716 C702 0.960 . S
H717 C703 0.961 . S
H718 C703 0.961 . S
H719 C703 0.961 . S
H720 C704 0.931 . S
H721 C709 0.930 . S
H722 C710 0.956 . S
H723 C710 0.961 . S
H724 C710 0.961 . S
H725 C711 0.958 . S
H726 C711 0.961 . S
H727 C711 0.960 . S
C728 C729 1.391 . S
C728 C730 1.394 . S
C728 H744 0.931 . S
C729 C728 1.391 . S
C729 C733 1.376 . S
C730 C728 1.394 . S
C730 C731 1.369 . S
C730 C734 1.531 . S
C731 C730 1.369 . S
C731 C732 1.410 . S
C731 C739 1.503 . S
C732 C731 1.410 . S
C732 C733 1.392 . S
C732 C735 1.511 . S
C733 C729 1.376 . S
C733 C732 1.392 . S
C733 H745 0.929 . S
C734 C730 1.531 . S
C734 H746 0.960 . S
C734 H747 0.962 . S
C734 H748 0.960 . S
C735 C732 1.511 . S
C735 H749 0.961 . S
C735 H750 0.961 . S
C735 H751 0.961 . S
C736 C737 1.370 . S
C736 C738 1.363 . S
C736 H752 0.931 . S
C737 C736 1.370 . S
C737 C741 1.408 . S
C738 C736 1.363 . S
C738 C739 1.370 . S
C738 C742 1.524 . S
C739 C731 1.503 . S
C739 C738 1.370 . S
C739 C740 1.403 . S
C740 C739 1.403 . S
C740 C741 1.404 . S
C740 C743 1.539 . S
C741 C737 1.408 . S
C741 C740 1.404 . S
C741 H753 0.930 . S
C742 C738 1.524 . S
C742 H754 0.956 . S
C742 H755 0.961 . S
C742 H756 0.961 . S
C743 C740 1.539 . S
C743 H757 0.958 . S
C743 H758 0.961 . S
C743 H759 0.960 . S
H744 C728 0.931 . S
H745 C733 0.929 . S
H746 C734 0.960 . S
H747 C734 0.962 . S
H748 C734 0.960 . S
H749 C735 0.961 . S
H750 C735 0.961 . S
H751 C735 0.961 . S
H752 C736 0.931 . S
H753 C741 0.930 . S
H754 C742 0.956 . S
H755 C742 0.961 . S
H756 C742 0.961 . S
H757 C743 0.958 . S
H758 C743 0.961 . S
H759 C743 0.960 . S
C760 C761 1.391 . S
C760 C762 1.394 . S
C760 H776 0.931 . S
C761 C760 1.391 . S
C761 C765 1.376 . S
C762 C760 1.394 . S
C762 C763 1.369 . S
C762 C766 1.531 . S
C763 C762 1.369 . S
C763 C764 1.410 . S
C763 C771 1.503 . S
C764 C763 1.410 . S
C764 C765 1.392 . S
C764 C767 1.511 . S
C765 C761 1.376 . S
C765 C764 1.392 . S
C765 H777 0.929 . S
C766 C762 1.531 . S
C766 H778 0.960 . S
C766 H779 0.962 . S
C766 H780 0.960 . S
C767 C764 1.511 . S
C767 H781 0.961 . S
C767 H782 0.961 . S
C767 H783 0.961 . S
C768 C769 1.370 . S
C768 C770 1.363 . S
C768 H784 0.931 . S
C769 C768 1.370 . S
C769 C773 1.408 . S
C770 C768 1.363 . S
C770 C771 1.370 . S
C770 C774 1.524 . S
C771 C763 1.503 . S
C771 C770 1.370 . S
C771 C772 1.403 . S
C772 C771 1.403 . S
C772 C773 1.404 . S
C772 C775 1.539 . S
C773 C769 1.408 . S
C773 C772 1.404 . S
C773 H785 0.930 . S
C774 C770 1.524 . S
C774 H786 0.956 . S
C774 H787 0.961 . S
C774 H788 0.961 . S
C775 C772 1.539 . S
C775 H789 0.958 . S
C775 H790 0.961 . S
C775 H791 0.960 . S
H776 C760 0.931 . S
H777 C765 0.929 . S
H778 C766 0.960 . S
H779 C766 0.962 . S
H780 C766 0.960 . S
H781 C767 0.961 . S
H782 C767 0.961 . S
H783 C767 0.961 . S
H784 C768 0.931 . S
H785 C773 0.930 . S
H786 C774 0.956 . S
H787 C774 0.961 . S
H788 C774 0.961 . S
H789 C775 0.958 . S
H790 C775 0.961 . S
H791 C775 0.960 . S
C792 C793 1.391 . S
C792 C794 1.394 . S
C792 H808 0.931 . S
C793 C792 1.391 . S
C793 C797 1.376 . S
C794 C792 1.394 . S
C794 C795 1.369 . S
C794 C798 1.531 . S
C795 C794 1.369 . S
C795 C796 1.410 . S
C795 C803 1.503 . S
C796 C795 1.410 . S
C796 C797 1.392 . S
C796 C799 1.511 . S
C797 C793 1.376 . S
C797 C796 1.392 . S
C797 H809 0.929 . S
C798 C794 1.531 . S
C798 H810 0.960 . S
C798 H811 0.962 . S
C798 H812 0.960 . S
C799 C796 1.511 . S
C799 H813 0.961 . S
C799 H814 0.961 . S
C799 H815 0.961 . S
C800 C801 1.370 . S
C800 C802 1.363 . S
C800 H816 0.931 . S
C801 C800 1.370 . S
C801 C805 1.408 . S
C802 C800 1.363 . S
C802 C803 1.370 . S
C802 C806 1.524 . S
C803 C795 1.503 . S
C803 C802 1.370 . S
C803 C804 1.403 . S
C804 C803 1.403 . S
C804 C805 1.404 . S
C804 C807 1.539 . S
C805 C801 1.408 . S
C805 C804 1.404 . S
C805 H817 0.930 . S
C806 C802 1.524 . S
C806 H818 0.956 . S
C806 H819 0.961 . S
C806 H820 0.961 . S
C807 C804 1.539 . S
C807 H821 0.958 . S
C807 H822 0.961 . S
C807 H823 0.960 . S
H808 C792 0.931 . S
H809 C797 0.929 . S
H810 C798 0.960 . S
H811 C798 0.962 . S
H812 C798 0.960 . S
H813 C799 0.961 . S
H814 C799 0.961 . S
H815 C799 0.961 . S
H816 C800 0.931 . S
H817 C805 0.930 . S
H818 C806 0.956 . S
H819 C806 0.961 . S
H820 C806 0.961 . S
H821 C807 0.958 . S
H822 C807 0.961 . S
H823 C807 0.960 . S
C824 C825 1.391 . S
C824 C826 1.394 . S
C824 H840 0.931 . S
C825 C824 1.391 . S
C825 C829 1.376 . S
C826 C824 1.394 . S
C826 C827 1.369 . S
C826 C830 1.531 . S
C827 C826 1.369 . S
C827 C828 1.410 . S
C827 C835 1.503 . S
C828 C827 1.410 . S
C828 C829 1.392 . S
C828 C831 1.511 . S
C829 C825 1.376 . S
C829 C828 1.392 . S
C829 H841 0.929 . S
C830 C826 1.531 . S
C830 H842 0.960 . S
C830 H843 0.962 . S
C830 H844 0.960 . S
C831 C828 1.511 . S
C831 H845 0.961 . S
C831 H846 0.961 . S
C831 H847 0.961 . S
C832 C833 1.370 . S
C832 C834 1.363 . S
C832 H848 0.931 . S
C833 C832 1.370 . S
C833 C837 1.408 . S
C834 C832 1.363 . S
C834 C835 1.370 . S
C834 C838 1.524 . S
C835 C827 1.503 . S
C835 C834 1.370 . S
C835 C836 1.403 . S
C836 C835 1.403 . S
C836 C837 1.404 . S
C836 C839 1.539 . S
C837 C833 1.408 . S
C837 C836 1.404 . S
C837 H849 0.930 . S
C838 C834 1.524 . S
C838 H850 0.956 . S
C838 H851 0.961 . S
C838 H852 0.961 . S
C839 C836 1.539 . S
C839 H853 0.958 . S
C839 H854 0.961 . S
C839 H855 0.960 . S
H840 C824 0.931 . S
H841 C829 0.929 . S
H842 C830 0.960 . S
H843 C830 0.962 . S
H844 C830 0.960 . S
H845 C831 0.961 . S
H846 C831 0.961 . S
H847 C831 0.961 . S
H848 C832 0.931 . S
H849 C837 0.930 . S
H850 C838 0.956 . S
H851 C838 0.961 . S
H852 C838 0.961 . S
H853 C839 0.958 . S
H854 C839 0.961 . S
H855 C839 0.960 . S
C856 C857 1.391 . S
C856 C858 1.394 . S
C856 H872 0.931 . S
C857 C856 1.391 . S
C857 C861 1.376 . S
C858 C856 1.394 . S
C858 C859 1.369 . S
C858 C862 1.531 . S
C859 C858 1.369 . S
C859 C860 1.410 . S
C859 C867 1.503 . S
C860 C859 1.410 . S
C860 C861 1.392 . S
C860 C863 1.511 . S
C861 C857 1.376 . S
C861 C860 1.392 . S
C861 H873 0.929 . S
C862 C858 1.531 . S
C862 H874 0.960 . S
C862 H875 0.962 . S
C862 H876 0.960 . S
C863 C860 1.511 . S
C863 H877 0.961 . S
C863 H878 0.961 . S
C863 H879 0.961 . S
C864 C865 1.370 . S
C864 C866 1.363 . S
C864 H880 0.931 . S
C865 C864 1.370 . S
C865 C869 1.408 . S
C866 C864 1.363 . S
C866 C867 1.370 . S
C866 C870 1.524 . S
C867 C859 1.503 . S
C867 C866 1.370 . S
C867 C868 1.403 . S
C868 C867 1.403 . S
C868 C869 1.404 . S
C868 C871 1.539 . S
C869 C865 1.408 . S
C869 C868 1.404 . S
C869 H881 0.930 . S
C870 C866 1.524 . S
C870 H882 0.956 . S
C870 H883 0.961 . S
C870 H884 0.961 . S
C871 C868 1.539 . S
C871 H885 0.958 . S
C871 H886 0.961 . S
C871 H887 0.960 . S
H872 C856 0.931 . S
H873 C861 0.929 . S
H874 C862 0.960 . S
H875 C862 0.962 . S
H876 C862 0.960 . S
H877 C863 0.961 . S
H878 C863 0.961 . S
H879 C863 0.961 . S
H880 C864 0.931 . S
H881 C869 0.930 . S
H882 C870 0.956 . S
H883 C870 0.961 . S
H884 C870 0.961 . S
H885 C871 0.958 . S
H886 C871 0.961 . S
H887 C871 0.960 . S
C888 C889 1.391 . S
C888 C890 1.393 . S
C888 H904 0.931 . S
C889 C888 1.391 . S
C889 C893 1.376 . S
C890 C888 1.393 . S
C890 C891 1.369 . S
C890 C894 1.531 1_655 S
C891 C890 1.369 . S
C891 C892 1.410 . S
C891 C899 1.503 1_655 S
C892 C891 1.410 . S
C892 C893 1.392 . S
C892 C895 1.511 . S
C893 C889 1.376 . S
C893 C892 1.392 . S
C893 H905 0.929 . S
C894 C890 1.531 1_455 S
C894 H906 0.960 . S
C894 H907 0.962 . S
C894 H908 0.960 . S
C895 C892 1.511 . S
C895 H909 0.961 . S
C895 H910 0.961 . S
C895 H911 0.961 . S
C896 C897 1.370 . S
C896 C898 1.363 . S
C896 H912 0.931 . S
C897 C896 1.370 . S
C897 C901 1.408 . S
C898 C896 1.363 . S
C898 C899 1.370 . S
C898 C902 1.524 1_455 S
C899 C891 1.503 1_455 S
C899 C898 1.370 . S
C899 C900 1.403 . S
C900 C899 1.403 . S
C900 C901 1.404 . S
C900 C903 1.539 . S
C901 C897 1.408 . S
C901 C900 1.404 . S
C901 H913 0.930 . S
C902 C898 1.524 1_655 S
C902 H914 0.956 . S
C902 H915 0.961 . S
C902 H916 0.961 . S
C903 C900 1.539 . S
C903 H917 0.958 . S
C903 H918 0.961 . S
C903 H919 0.960 . S
H904 C888 0.931 . S
H905 C893 0.929 . S
H906 C894 0.960 . S
H907 C894 0.962 . S
H908 C894 0.960 . S
H909 C895 0.961 . S
H910 C895 0.961 . S
H911 C895 0.961 . S
H912 C896 0.931 . S
H913 C901 0.930 . S
H914 C902 0.956 . S
H915 C902 0.961 . S
H916 C902 0.961 . S
H917 C903 0.958 . S
H918 C903 0.961 . S
H919 C903 0.960 . S
C920 C921 1.391 . S
C920 C922 1.394 . S
C920 H936 0.931 . S
C921 C920 1.391 . S
C921 C925 1.376 . S
C922 C920 1.394 . S
C922 C923 1.369 . S
C922 C926 1.531 . S
C923 C922 1.369 . S
C923 C924 1.410 . S
C923 C931 1.503 . S
C924 C923 1.410 . S
C924 C925 1.392 . S
C924 C927 1.511 . S
C925 C921 1.376 . S
C925 C924 1.392 . S
C925 H937 0.929 . S
C926 C922 1.531 . S
C926 H938 0.960 . S
C926 H939 0.962 . S
C926 H940 0.960 . S
C927 C924 1.511 . S
C927 H941 0.961 . S
C927 H942 0.961 . S
C927 H943 0.961 . S
C928 C929 1.370 . S
C928 C930 1.363 . S
C928 H944 0.931 . S
C929 C928 1.370 . S
C929 C933 1.408 . S
C930 C928 1.363 . S
C930 C931 1.370 . S
C930 C934 1.524 . S
C931 C923 1.503 . S
C931 C930 1.370 . S
C931 C932 1.403 . S
C932 C931 1.403 . S
C932 C933 1.404 . S
C932 C935 1.539 . S
C933 C929 1.408 . S
C933 C932 1.404 . S
C933 H945 0.930 . S
C934 C930 1.524 . S
C934 H946 0.956 . S
C934 H947 0.961 . S
C934 H948 0.961 . S
C935 C932 1.539 . S
C935 H949 0.958 . S
C935 H950 0.961 . S
C935 H951 0.960 . S
H936 C920 0.931 . S
H937 C925 0.929 . S
H938 C926 0.960 . S
H939 C926 0.962 . S
H940 C926 0.960 . S
H941 C927 0.961 . S
H942 C927 0.961 . S
H943 C927 0.961 . S
H944 C928 0.931 . S
H945 C933 0.930 . S
H946 C934 0.956 . S
H947 C934 0.961 . S
H948 C934 0.961 . S
H949 C935 0.958 . S
H950 C935 0.961 . S
H951 C935 0.960 . S
C952 C953 1.391 . S
C952 C954 1.394 . S
C952 H968 0.931 . S
C953 C952 1.391 . S
C953 C957 1.376 . S
C954 C952 1.394 . S
C954 C955 1.369 . S
C954 C958 1.531 1_545 S
C955 C954 1.369 . S
C955 C956 1.410 . S
C955 C963 1.503 1_545 S
C956 C955 1.410 . S
C956 C957 1.392 . S
C956 C959 1.511 . S
C957 C953 1.376 . S
C957 C956 1.392 . S
C957 H969 0.929 . S
C958 C954 1.531 1_565 S
C958 H970 0.960 . S
C958 H971 0.962 . S
C958 H972 0.960 . S
C959 C956 1.511 . S
C959 H973 0.961 . S
C959 H974 0.961 . S
C959 H975 0.961 . S
C960 C961 1.370 . S
C960 C962 1.363 . S
C960 H976 0.931 . S
C961 C960 1.370 . S
C961 C965 1.408 . S
C962 C960 1.363 . S
C962 C963 1.370 . S
C962 C966 1.524 1_565 S
C963 C955 1.503 1_565 S
C963 C962 1.370 . S
C963 C964 1.403 . S
C964 C963 1.403 . S
C964 C965 1.404 . S
C964 C967 1.539 . S
C965 C961 1.408 . S
C965 C964 1.404 . S
C965 H977 0.930 . S
C966 C962 1.524 1_545 S
C966 H978 0.956 . S
C966 H979 0.961 . S
C966 H980 0.961 . S
C967 C964 1.539 . S
C967 H981 0.958 . S
C967 H982 0.961 . S
C967 H983 0.960 . S
H968 C952 0.931 . S
H969 C957 0.929 . S
H970 C958 0.960 . S
H971 C958 0.962 . S
H972 C958 0.960 . S
H973 C959 0.961 . S
H974 C959 0.961 . S
H975 C959 0.961 . S
H976 C960 0.931 . S
H977 C965 0.930 . S
H978 C966 0.956 . S
H979 C966 0.961 . S
H980 C966 0.961 . S
H981 C967 0.958 . S
H982 C967 0.961 . S
H983 C967 0.960 . S
C984 C985 1.391 . S
C984 C986 1.394 . S
C984 H1000 0.931 . S
C985 C984 1.391 . S
C985 C989 1.376 . S
C986 C984 1.394 . S
C986 C987 1.366 1_556 S
C986 C990 1.531 1_556 S
C987 C986 1.366 1_554 S
C987 C988 1.406 1_554 S
C987 C995 1.509 1_545 S
C988 C987 1.406 1_556 S
C988 C989 1.392 . S
C988 C991 1.511 1_545 S
C989 C985 1.376 . S
C989 C988 1.392 . S
C989 H1001 0.929 . S
C990 C986 1.531 1_554 S
C990 H1002 0.960 . S
C990 H1003 0.962 1_554 S
C990 H1004 0.960 . S
C991 C988 1.511 1_565 S
C991 H1005 0.961 . S
C991 H1006 0.951 1_556 S
C991 H1007 0.961 1_556 S
C992 C993 1.370 . S
C992 C994 1.363 . S
C992 H1008 0.931 . S
C993 C992 1.370 . S
C993 C997 1.408 . S
C994 C992 1.363 . S
C994 C995 1.370 . S
C994 C998 1.524 1_554 S
C995 C987 1.509 1_565 S
C995 C994 1.370 . S
C995 C996 1.403 . S
C996 C995 1.403 . S
C996 C997 1.404 . S
C996 C999 1.539 1_565 S
C997 C993 1.408 . S
C997 C996 1.404 . S
C997 H1009 0.930 . S
C998 C994 1.524 1_556 S
C998 H1010 0.956 . S
C998 H1011 0.961 . S
C998 H1012 0.961 . S
C999 C996 1.539 1_545 S
C999 H1013 0.958 . S
C999 H1014 0.961 . S
C999 H1015 0.960 . S
H1000 C984 0.931 . S
H1001 C989 0.929 . S
H1002 C990 0.960 . S
H1003 C990 0.962 1_556 S
H1004 C990 0.960 . S
H1005 C991 0.961 . S
H1006 C991 0.951 1_554 S
H1007 C991 0.961 1_554 S
H1008 C992 0.931 . S
H1009 C997 0.930 . S
H1010 C998 0.956 . S
H1011 C998 0.961 . S
H1012 C998 0.961 . S
H1013 C999 0.958 . S
H1014 C999 0.961 . S
H1015 C999 0.960 . S
C1016 C1017 1.391 . S
C1016 C1018 1.394 . S
C1016 H1032 0.931 . S
C1017 C1016 1.391 . S
C1017 C1021 1.376 . S
C1018 C1016 1.394 . S
C1018 C1019 1.369 . S
C1018 C1022 1.531 1_556 S
C1019 C1018 1.369 . S
C1019 C1020 1.410 . S
C1019 C1027 1.503 1_656 S
C1020 C1019 1.410 . S
C1020 C1021 1.392 . S
C1020 C1023 1.511 1_655 S
C1021 C1017 1.376 . S
C1021 C1020 1.392 . S
C1021 H1033 0.929 . S
C1022 C1018 1.531 1_554 S
C1022 H1034 0.960 . S
C1022 H1035 0.962 . S
C1022 H1036 0.960 . S
C1023 C1020 1.511 1_455 S
C1023 H1037 0.961 . S
C1023 H1038 0.961 . S
C1023 H1039 0.961 . S
C1024 C1025 1.370 . S
C1024 C1026 1.363 . S
C1024 H1040 0.931 . S
C1025 C1024 1.370 . S
C1025 C1029 1.408 . S
C1026 C1024 1.363 . S
C1026 C1027 1.370 . S
C1026 C1030 1.524 1_554 S
C1027 C1019 1.503 1_454 S
C1027 C1026 1.370 . S
C1027 C1028 1.403 . S
C1028 C1027 1.403 . S
C1028 C1029 1.404 . S
C1028 C1031 1.539 1_455 S
C1029 C1025 1.408 . S
C1029 C1028 1.404 . S
C1029 H1041 0.930 . S
C1030 C1026 1.524 1_556 S
C1030 H1042 0.909 1_455 S
C1030 H1043 0.961 . S
C1030 H1044 0.961 . S
C1031 C1028 1.539 1_655 S
C1031 H1045 0.958 . S
C1031 H1046 0.961 1_655 S
C1031 H1047 0.960 . S
H1032 C1016 0.931 . S
H1033 C1021 0.929 . S
H1034 C1022 0.960 . S
H1035 C1022 0.962 . S
H1036 C1022 0.960 . S
H1037 C1023 0.961 . S
H1038 C1023 0.961 . S
H1039 C1023 0.961 . S
H1040 C1024 0.931 . S
H1041 C1029 0.930 . S
H1042 C1030 0.909 1_655 S
H1043 C1030 0.961 . S
H1044 C1030 0.961 . S
H1045 C1031 0.958 . S
H1046 C1031 0.961 1_455 S
H1047 C1031 0.960 . S
C1048 C1049 1.391 . S
C1048 C1050 1.394 . S
C1048 H1064 0.931 . S
C1049 C1048 1.391 . S
C1049 C1053 1.376 . S
C1050 C1048 1.394 . S
C1050 C1051 1.369 . S
C1050 C1054 1.531 . S
C1051 C1050 1.369 . S
C1051 C1052 1.410 1_556 S
C1051 C1059 1.503 1_556 S
C1052 C1051 1.410 1_554 S
C1052 C1053 1.392 1_554 S
C1052 C1055 1.511 . S
C1053 C1049 1.376 . S
C1053 C1052 1.392 1_556 S
C1053 H1065 0.929 . S
C1054 C1050 1.531 . S
C1054 H1066 0.960 . S
C1054 H1067 0.962 . S
C1054 H1068 0.960 . S
C1055 C1052 1.511 . S
C1055 H1069 0.961 . S
C1055 H1070 0.961 . S
C1055 H1071 0.961 . S
C1056 C1057 1.370 . S
C1056 C1058 1.363 . S
C1056 H1072 0.931 . S
C1057 C1056 1.370 . S
C1057 C1061 1.408 . S
C1058 C1056 1.363 . S
C1058 C1059 1.370 . S
C1058 C1062 1.524 . S
C1059 C1051 1.503 1_554 S
C1059 C1058 1.370 . S
C1059 C1060 1.403 . S
C1060 C1059 1.403 . S
C1060 C1061 1.404 . S
C1060 C1063 1.539 . S
C1061 C1057 1.408 . S
C1061 C1060 1.404 . S
C1061 H1073 0.930 . S
C1062 C1058 1.524 . S
C1062 H1074 0.956 . S
C1062 H1075 0.961 . S
C1062 H1076 0.961 . S
C1063 C1060 1.539 . S
C1063 H1077 0.958 1_554 S
C1063 H1078 0.961 . S
C1063 H1079 0.960 1_554 S
H1064 C1048 0.931 . S
H1065 C1053 0.929 . S
H1066 C1054 0.960 . S
H1067 C1054 0.962 . S
H1068 C1054 0.960 . S
H1069 C1055 0.961 . S
H1070 C1055 0.961 . S
H1071 C1055 0.961 . S
H1072 C1056 0.931 . S
H1073 C1061 0.930 . S
H1074 C1062 0.956 . S
H1075 C1062 0.961 . S
H1076 C1062 0.961 . S
H1077 C1063 0.958 1_556 S
H1078 C1063 0.961 . S
H1079 C1063 0.960 1_556 S
C1080 C1081 1.391 1_545 S
C1080 C1082 1.394 . S
C1080 H1096 0.931 . S
C1081 C1080 1.391 1_565 S
C1081 C1085 1.376 . S
C1082 C1080 1.394 . S
C1082 C1083 1.369 . S
C1082 C1086 1.531 . S
C1083 C1082 1.369 . S
C1083 C1084 1.410 . S
C1083 C1091 1.503 . S
C1084 C1083 1.410 . S
C1084 C1085 1.392 1_545 S
C1084 C1087 1.511 1_556 S
C1085 C1081 1.376 . S
C1085 C1084 1.392 1_565 S
C1085 H1097 0.929 . S
C1086 C1082 1.531 . S
C1086 H1098 0.960 . S
C1086 H1099 0.962 . S
C1086 H1100 0.960 . S
C1087 C1084 1.511 1_554 S
C1087 H1101 0.961 . S
C1087 H1102 0.961 . S
C1087 H1103 0.961 . S
C1088 C1089 1.370 . S
C1088 C1090 1.363 1_554 S
C1088 H1104 0.931 . S
C1089 C1088 1.370 . S
C1089 C1093 1.408 . S
C1090 C1088 1.363 1_556 S
C1090 C1091 1.370 . S
C1090 C1094 1.524 . S
C1091 C1083 1.503 . S
C1091 C1090 1.370 . S
C1091 C1092 1.403 . S
C1092 C1091 1.403 . S
C1092 C1093 1.404 1_556 S
C1092 C1095 1.539 . S
C1093 C1089 1.408 . S
C1093 C1092 1.404 1_554 S
C1093 H1105 0.930 . S
C1094 C1090 1.524 . S
C1094 H1106 0.956 . S
C1094 H1107 0.946 1_556 S
C1094 H1108 0.961 1_556 S
C1095 C1092 1.539 . S
C1095 H1109 0.958 . S
C1095 H1110 0.961 . S
C1095 H1111 0.960 . S
H1096 C1080 0.931 . S
H1097 C1085 0.929 . S
H1098 C1086 0.960 . S
H1099 C1086 0.962 . S
H1100 C1086 0.960 . S
H1101 C1087 0.961 . S
H1102 C1087 0.961 . S
H1103 C1087 0.961 . S
H1104 C1088 0.931 . S
H1105 C1093 0.930 . S
H1106 C1094 0.956 . S
H1107 C1094 0.946 1_554 S
H1108 C1094 0.961 1_554 S
H1109 C1095 0.958 . S
H1110 C1095 0.961 . S
H1111 C1095 0.960 . S
C1112 C1113 1.391 . S
C1112 C1114 1.394 1_455 S
C1112 H1128 0.931 . S
C1113 C1112 1.391 . S
C1113 C1117 1.376 1_455 S
C1114 C1112 1.394 1_655 S
C1114 C1115 1.369 . S
C1114 C1118 1.531 1_556 S
C1115 C1114 1.369 . S
C1115 C1116 1.410 . S
C1115 C1123 1.503 . S
C1116 C1115 1.410 . S
C1116 C1117 1.392 . S
C1116 C1119 1.511 . S
C1117 C1113 1.376 1_655 S
C1117 C1116 1.392 . S
C1117 H1129 0.929 . S
C1118 C1114 1.531 1_554 S
C1118 H1130 0.960 . S
C1118 H1131 0.962 1_554 S
C1118 H1132 0.960 . S
C1119 C1116 1.511 . S
C1119 H1133 0.961 . S
C1119 H1134 0.961 . S
C1119 H1135 0.961 . S
C1120 C1121 1.370 1_556 S
C1120 C1122 1.363 . S
C1120 H1136 0.931 . S
C1121 C1120 1.370 1_554 S
C1121 C1125 1.408 . S
C1122 C1120 1.363 . S
C1122 C1123 1.370 . S
C1122 C1126 1.524 . S
C1123 C1115 1.503 . S
C1123 C1122 1.370 . S
C1123 C1124 1.403 1_556 S
C1124 C1123 1.403 1_554 S
C1124 C1125 1.404 . S
C1124 C1127 1.539 . S
C1125 C1121 1.408 . S
C1125 C1124 1.404 . S
C1125 H1137 0.930 . S
C1126 C1122 1.524 . S
C1126 H1138 0.956 . S
C1126 H1139 0.961 . S
C1126 H1140 0.961 . S
C1127 C1124 1.539 . S
C1127 H1141 0.958 . S
C1127 H1142 0.961 . S
C1127 H1143 0.960 . S
H1128 C1112 0.931 . S
H1129 C1117 0.929 . S
H1130 C1118 0.960 . S
H1131 C1118 0.962 1_556 S
H1132 C1118 0.960 . S
H1133 C1119 0.961 . S
H1134 C1119 0.961 . S
H1135 C1119 0.961 . S
H1136 C1120 0.931 . S
H1137 C1125 0.930 . S
H1138 C1126 0.956 . S
H1139 C1126 0.961 . S
H1140 C1126 0.961 . S
H1141 C1127 0.958 . S
H1142 C1127 0.961 . S
H1143 C1127 0.960 . S
C1144 C1145 1.391 1_556 S
C1144 C1146 1.394 . S
C1144 H1160 0.931 . S
C1145 C1144 1.391 1_554 S
C1145 C1149 1.376 . S
C1146 C1144 1.394 . S
C1146 C1147 1.369 . S
C1146 C1150 1.531 . S
C1147 C1146 1.369 . S
C1147 C1148 1.410 1_556 S
C1147 C1155 1.503 . S
C1148 C1147 1.410 1_554 S
C1148 C1149 1.392 . S
C1148 C1151 1.511 . S
C1149 C1145 1.376 . S
C1149 C1148 1.392 . S
C1149 H1161 0.929 . S
C1150 C1146 1.531 . S
C1150 H1162 0.960 . S
C1150 H1163 0.962 . S
C1150 H1164 0.960 . S
C1151 C1148 1.511 . S
C1151 H1165 0.961 . S
C1151 H1166 0.961 . S
C1151 H1167 0.961 . S
C1152 C1153 1.370 . S
C1152 C1154 1.363 . S
C1152 H1168 0.931 . S
C1153 C1152 1.370 . S
C1153 C1157 1.408 . S
C1154 C1152 1.363 . S
C1154 C1155 1.370 . S
C1154 C1158 1.524 . S
C1155 C1147 1.503 . S
C1155 C1154 1.370 . S
C1155 C1156 1.403 . S
C1156 C1155 1.403 . S
C1156 C1157 1.404 . S
C1156 C1159 1.539 . S
C1157 C1153 1.408 . S
C1157 C1156 1.404 . S
C1157 H1169 0.930 . S
C1158 C1154 1.524 . S
C1158 H1170 0.956 . S
C1158 H1171 0.955 . S
C1158 H1172 0.961 . S
C1159 C1156 1.539 . S
C1159 H1173 0.958 . S
C1159 H1174 0.961 . S
C1159 H1175 0.960 . S
H1160 C1144 0.931 . S
H1161 C1149 0.929 . S
H1162 C1150 0.960 . S
H1163 C1150 0.962 . S
H1164 C1150 0.960 . S
H1165 C1151 0.961 . S
H1166 C1151 0.961 . S
H1167 C1151 0.961 . S
H1168 C1152 0.931 . S
H1169 C1157 0.930 . S
H1170 C1158 0.956 . S
H1171 C1158 0.955 . S
H1172 C1158 0.961 . S
H1173 C1159 0.958 . S
H1174 C1159 0.961 . S
H1175 C1159 0.960 . S
C1176 C1177 1.391 1_455 S
C1176 C1178 1.394 . S
C1176 H1192 0.931 1_455 S
C1177 C1176 1.391 1_655 S
C1177 C1181 1.376 1_655 S
C1178 C1176 1.394 . S
C1178 C1179 1.369 . S
C1178 C1182 1.531 . S
C1179 C1178 1.369 . S
C1179 C1180 1.410 . S
C1179 C1187 1.503 . S
C1180 C1179 1.410 . S
C1180 C1181 1.392 . S
C1180 C1183 1.511 . S
C1181 C1177 1.376 1_455 S
C1181 C1180 1.392 . S
C1181 H1193 0.929 . S
C1182 C1178 1.531 . S
C1182 H1194 0.960 . S
C1182 H1195 0.962 . S
C1182 H1196 0.960 . S
C1183 C1180 1.511 . S
C1183 H1197 0.961 . S
C1183 H1198 0.961 . S
C1183 H1199 0.961 . S
C1184 C1185 1.370 . S
C1184 C1186 1.363 . S
C1184 H1200 0.931 . S
C1185 C1184 1.370 . S
C1185 C1189 1.408 . S
C1186 C1184 1.363 . S
C1186 C1187 1.370 . S
C1186 C1190 1.524 . S
C1187 C1179 1.503 . S
C1187 C1186 1.370 . S
C1187 C1188 1.403 . S
C1188 C1187 1.403 . S
C1188 C1189 1.404 . S
C1188 C1191 1.539 . S
C1189 C1185 1.408 . S
C1189 C1188 1.404 . S
C1189 H1201 0.930 . S
C1190 C1186 1.524 . S
C1190 H1202 0.956 . S
C1190 H1203 0.961 . S
C1190 H1204 0.961 . S
C1191 C1188 1.539 . S
C1191 H1205 0.958 . S
C1191 H1206 0.961 . S
C1191 H1207 0.960 . S
H1192 C1176 0.931 1_655 S
H1193 C1181 0.929 . S
H1194 C1182 0.960 . S
H1195 C1182 0.962 . S
H1196 C1182 0.960 . S
H1197 C1183 0.961 . S
H1198 C1183 0.961 . S
H1199 C1183 0.961 . S
H1200 C1184 0.931 . S
H1201 C1189 0.930 . S
H1202 C1190 0.956 . S
H1203 C1190 0.961 . S
H1204 C1190 0.961 . S
H1205 C1191 0.958 . S
H1206 C1191 0.961 . S
H1207 C1191 0.960 . S
C1208 C1209 1.391 . S
C1208 C1210 1.394 . S
C1208 H1224 0.931 . S
C1209 C1208 1.391 . S
C1209 C1213 1.376 . S
C1210 C1208 1.394 . S
C1210 C1211 1.369 . S
C1210 C1214 1.531 . S
C1211 C1210 1.369 . S
C1211 C1212 1.410 . S
C1211 C1219 1.503 . S
C1212 C1211 1.410 . S
C1212 C1213 1.392 . S
C1212 C1215 1.511 . S
C1213 C1209 1.376 . S
C1213 C1212 1.392 . S
C1213 H1225 0.929 . S
C1214 C1210 1.531 . S
C1214 H1226 0.960 . S
C1214 H1227 0.962 . S
C1214 H1228 0.960 . S
C1215 C1212 1.511 . S
C1215 H1229 0.961 . S
C1215 H1230 0.961 . S
C1215 H1231 0.961 . S
C1216 C1217 1.370 . S
C1216 C1218 1.363 . S
C1216 H1232 0.931 . S
C1217 C1216 1.370 . S
C1217 C1221 1.408 . S
C1218 C1216 1.363 . S
C1218 C1219 1.370 . S
C1218 C1222 1.524 . S
C1219 C1211 1.503 . S
C1219 C1218 1.370 . S
C1219 C1220 1.403 . S
C1220 C1219 1.403 . S
C1220 C1221 1.404 . S
C1220 C1223 1.539 . S
C1221 C1217 1.408 . S
C1221 C1220 1.404 . S
C1221 H1233 0.930 . S
C1222 C1218 1.524 . S
C1222 H1234 0.956 . S
C1222 H1235 0.961 . S
C1222 H1236 0.961 . S
C1223 C1220 1.539 . S
C1223 H1237 0.958 . S
C1223 H1238 0.961 . S
C1223 H1239 0.960 . S
H1224 C1208 0.931 . S
H1225 C1213 0.929 . S
H1226 C1214 0.960 . S
H1227 C1214 0.962 . S
H1228 C1214 0.960 . S
H1229 C1215 0.961 . S
H1230 C1215 0.961 . S
H1231 C1215 0.961 . S
H1232 C1216 0.931 . S
H1233 C1221 0.930 . S
H1234 C1222 0.956 . S
H1235 C1222 0.961 . S
H1236 C1222 0.961 . S
H1237 C1223 0.958 . S
H1238 C1223 0.961 . S
H1239 C1223 0.960 . S
C1240 C1241 1.391 1_565 S
C1240 C1242 1.394 . S
C1240 H1256 0.931 . S
C1241 C1240 1.391 1_545 S
C1241 C1245 1.376 1_545 S
C1242 C1240 1.394 . S
C1242 C1243 1.369 . S
C1242 C1246 1.531 . S
C1243 C1242 1.369 . S
C1243 C1244 1.410 . S
C1243 C1251 1.503 . S
C1244 C1243 1.410 . S
C1244 C1245 1.392 . S
C1244 C1247 1.511 . S
C1245 C1241 1.376 1_565 S
C1245 C1244 1.392 . S
C1245 H1257 0.929 1_565 S
C1246 C1242 1.531 . S
C1246 H1258 0.960 . S
C1246 H1259 0.962 . S
C1246 H1260 0.960 . S
C1247 C1244 1.511 . S
C1247 H1261 0.961 . S
C1247 H1262 0.961 . S
C1247 H1263 0.961 . S
C1248 C1249 1.370 . S
C1248 C1250 1.363 . S
C1248 H1264 0.931 . S
C1249 C1248 1.370 . S
C1249 C1253 1.408 . S
C1250 C1248 1.363 . S
C1250 C1251 1.370 . S
C1250 C1254 1.524 . S
C1251 C1243 1.503 . S
C1251 C1250 1.370 . S
C1251 C1252 1.403 . S
C1252 C1251 1.403 . S
C1252 C1253 1.404 . S
C1252 C1255 1.539 . S
C1253 C1249 1.408 . S
C1253 C1252 1.404 . S
C1253 H1265 0.930 . S
C1254 C1250 1.524 . S
C1254 H1266 0.956 . S
C1254 H1267 0.961 . S
C1254 H1268 0.961 . S
C1255 C1252 1.539 . S
C1255 H1269 0.958 . S
C1255 H1270 0.961 . S
C1255 H1271 0.960 . S
H1256 C1240 0.931 . S
H1257 C1245 0.929 1_545 S
H1258 C1246 0.960 . S
H1259 C1246 0.962 . S
H1260 C1246 0.960 . S
H1261 C1247 0.961 . S
H1262 C1247 0.961 . S
H1263 C1247 0.961 . S
H1264 C1248 0.931 . S
H1265 C1253 0.930 . S
H1266 C1254 0.956 . S
H1267 C1254 0.961 . S
H1268 C1254 0.961 . S
H1269 C1255 0.958 . S
H1270 C1255 0.961 . S
H1271 C1255 0.960 . S
C1272 C1273 1.391 . S
C1272 C1274 1.394 1_556 S
C1272 H1288 0.931 . S
C1273 C1272 1.391 . S
C1273 C1277 1.376 . S
C1274 C1272 1.394 1_554 S
C1274 C1275 1.369 . S
C1274 C1278 1.531 . S
C1275 C1274 1.369 . S
C1275 C1276 1.410 1_554 S
C1275 C1283 1.503 . S
C1276 C1275 1.410 1_556 S
C1276 C1277 1.392 . S
C1276 C1279 1.511 . S
C1277 C1273 1.376 . S
C1277 C1276 1.392 . S
C1277 H1289 0.929 . S
C1278 C1274 1.531 . S
C1278 H1290 0.960 . S
C1278 H1291 0.962 . S
C1278 H1292 0.960 . S
C1279 C1276 1.511 . S
C1279 H1293 0.961 . S
C1279 H1294 0.961 . S
C1279 H1295 0.961 . S
C1280 C1281 1.371 1_565 S
C1280 C1282 1.382 . S
C1280 H1296 0.911 1_565 S
C1281 C1280 1.371 1_545 S
C1281 C1285 1.408 1_545 S
C1282 C1280 1.382 . S
C1282 C1283 1.370 . S
C1282 C1286 1.524 1_554 S
C1283 C1275 1.503 . S
C1283 C1282 1.370 . S
C1283 C1284 1.403 . S
C1284 C1283 1.403 . S
C1284 C1285 1.404 . S
C1284 C1287 1.539 . S
C1285 C1281 1.408 1_565 S
C1285 C1284 1.404 . S
C1285 H1297 0.930 . S
C1286 C1282 1.524 1_556 S
C1286 H1298 0.956 . S
C1286 H1299 0.961 . S
C1286 H1300 0.961 . S
C1287 C1284 1.539 . S
C1287 H1301 0.958 . S
C1287 H1302 0.961 . S
C1287 H1303 0.960 . S
H1288 C1272 0.931 . S
H1289 C1277 0.929 . S
H1290 C1278 0.960 . S
H1291 C1278 0.962 . S
H1292 C1278 0.960 . S
H1293 C1279 0.961 . S
H1294 C1279 0.961 . S
H1295 C1279 0.961 . S
H1296 C1280 0.911 1_545 S
H1297 C1285 0.930 . S
H1298 C1286 0.956 . S
H1299 C1286 0.961 . S
H1300 C1286 0.961 . S
H1301 C1287 0.958 . S
H1302 C1287 0.961 . S
H1303 C1287 0.960 . S
C1304 C1305 1.391 . S
C1304 C1306 1.394 . S
C1304 H1320 0.931 . S
C1305 C1304 1.391 . S
C1305 C1309 1.376 . S
C1306 C1304 1.394 . S
C1306 C1307 1.369 . S
C1306 C1310 1.531 1_556 S
C1307 C1306 1.369 . S
C1307 C1308 1.410 . S
C1307 C1315 1.503 1_556 S
C1308 C1307 1.410 . S
C1308 C1309 1.392 . S
C1308 C1311 1.511 . S
C1309 C1305 1.376 . S
C1309 C1308 1.392 . S
C1309 H1321 0.929 . S
C1310 C1306 1.531 1_554 S
C1310 H1322 0.960 . S
C1310 H1323 0.962 . S
C1310 H1324 0.960 . S
C1311 C1308 1.511 . S
C1311 H1325 0.961 . S
C1311 H1326 0.961 . S
C1311 H1327 0.961 . S
C1312 C1313 1.370 1_455 S
C1312 C1314 1.363 . S
C1312 H1328 0.931 . S
C1313 C1312 1.370 1_655 S
C1313 C1317 1.408 . S
C1314 C1312 1.363 . S
C1314 C1315 1.370 . S
C1314 C1318 1.524 . S
C1315 C1307 1.503 1_554 S
C1315 C1314 1.370 . S
C1315 C1316 1.403 . S
C1316 C1315 1.403 . S
C1316 C1317 1.404 1_455 S
C1316 C1319 1.539 1_554 S
C1317 C1313 1.408 . S
C1317 C1316 1.404 1_655 S
C1317 H1329 0.930 . S
C1318 C1314 1.524 . S
C1318 H1330 0.956 . S
C1318 H1331 0.961 . S
C1318 H1332 0.961 . S
C1319 C1316 1.539 1_556 S
C1319 H1333 0.958 . S
C1319 H1334 0.961 1_455 S
C1319 H1335 0.960 . S
H1320 C1304 0.931 . S
H1321 C1309 0.929 . S
H1322 C1310 0.960 . S
H1323 C1310 0.962 . S
H1324 C1310 0.960 . S
H1325 C1311 0.961 . S
H1326 C1311 0.961 . S
H1327 C1311 0.961 . S
H1328 C1312 0.931 . S
H1329 C1317 0.930 . S
H1330 C1318 0.956 . S
H1331 C1318 0.961 . S
H1332 C1318 0.961 . S
H1333 C1319 0.958 . S
H1334 C1319 0.961 1_655 S
H1335 C1319 0.960 . S
C1336 C1337 1.391 . S
C1336 C1338 1.406 . S
C1336 H1352 0.931 . S
C1337 C1336 1.391 . S
C1337 C1341 1.376 . S
C1338 C1336 1.406 . S
C1338 C1339 1.379 . S
C1338 C1342 1.509 1_556 S
C1339 C1338 1.379 . S
C1339 C1340 1.410 . S
C1339 C1347 1.503 1_556 S
C1340 C1339 1.410 . S
C1340 C1341 1.392 . S
C1340 C1343 1.511 . S
C1341 C1337 1.376 . S
C1341 C1340 1.392 . S
C1341 H1353 0.929 . S
C1342 C1338 1.509 1_554 S
C1342 H1354 0.960 . S
C1342 H1355 0.962 . S
C1342 H1356 0.960 . S
C1343 C1340 1.511 . S
C1343 H1357 0.961 . S
C1343 H1358 0.961 . S
C1343 H1359 0.961 . S
C1344 C1345 1.370 . S
C1344 C1346 1.363 . S
C1344 H1360 0.931 . S
C1345 C1344 1.370 . S
C1345 C1349 1.408 . S
C1346 C1344 1.363 . S
C1346 C1347 1.370 . S
C1346 C1350 1.524 . S
C1347 C1339 1.503 1_554 S
C1347 C1346 1.370 . S
C1347 C1348 1.403 . S
C1348 C1347 1.403 . S
C1348 C1349 1.404 . S
C1348 C1351 1.539 1_554 S
C1349 C1345 1.408 . S
C1349 C1348 1.404 . S
C1349 H1361 0.930 . S
C1350 C1346 1.524 . S
C1350 H1362 0.956 . S
C1350 H1363 0.961 . S
C1350 H1364 0.961 . S
C1351 C1348 1.539 1_556 S
C1351 H1365 0.958 . S
C1351 H1366 0.961 . S
C1351 H1367 0.960 . S
H1352 C1336 0.931 . S
H1353 C1341 0.929 . S
H1354 C1342 0.960 . S
H1355 C1342 0.962 . S
H1356 C1342 0.960 . S
H1357 C1343 0.961 . S
H1358 C1343 0.961 . S
H1359 C1343 0.961 . S
H1360 C1344 0.931 . S
H1361 C1349 0.930 . S
H1362 C1350 0.956 . S
H1363 C1350 0.961 . S
H1364 C1350 0.961 . S
H1365 C1351 0.958 . S
H1366 C1351 0.961 . S
H1367 C1351 0.960 . S
C1368 C1369 1.391 . S
C1368 C1370 1.394 . S
C1368 H1384 0.931 . S
C1369 C1368 1.391 . S
C1369 C1373 1.376 . S
C1370 C1368 1.394 . S
C1370 C1371 1.369 . S
C1370 C1374 1.531 . S
C1371 C1370 1.369 . S
C1371 C1372 1.410 . S
C1371 C1379 1.503 . S
C1372 C1371 1.410 . S
C1372 C1373 1.392 . S
C1372 C1375 1.511 . S
C1373 C1369 1.376 . S
C1373 C1372 1.392 . S
C1373 H1385 0.929 . S
C1374 C1370 1.531 . S
C1374 H1386 0.960 . S
C1374 H1387 0.962 . S
C1374 H1388 0.960 . S
C1375 C1372 1.511 . S
C1375 H1389 0.961 . S
C1375 H1390 0.961 . S
C1375 H1391 0.961 . S
C1376 C1377 1.370 1_655 S
C1376 C1378 1.363 . S
C1376 H1392 0.931 1_655 S
C1377 C1376 1.370 1_455 S
C1377 C1381 1.408 1_455 S
C1378 C1376 1.363 . S
C1378 C1379 1.370 . S
C1378 C1382 1.524 . S
C1379 C1371 1.503 . S
C1379 C1378 1.370 . S
C1379 C1380 1.403 . S
C1380 C1379 1.403 . S
C1380 C1381 1.404 . S
C1380 C1383 1.539 . S
C1381 C1377 1.408 1_655 S
C1381 C1380 1.404 . S
C1381 H1393 0.930 . S
C1382 C1378 1.524 . S
C1382 H1394 0.956 . S
C1382 H1395 0.961 . S
C1382 H1396 0.961 . S
C1383 C1380 1.539 . S
C1383 H1397 0.958 . S
C1383 H1398 0.961 . S
C1383 H1399 0.960 . S
H1384 C1368 0.931 . S
H1385 C1373 0.929 . S
H1386 C1374 0.960 . S
H1387 C1374 0.962 . S
H1388 C1374 0.960 . S
H1389 C1375 0.961 . S
H1390 C1375 0.961 . S
H1391 C1375 0.961 . S
H1392 C1376 0.931 1_455 S
H1393 C1381 0.930 . S
H1394 C1382 0.956 . S
H1395 C1382 0.961 . S
H1396 C1382 0.961 . S
H1397 C1383 0.958 . S
H1398 C1383 0.961 . S
H1399 C1383 0.960 . S
C1400 C1401 1.391 . S
C1400 C1402 1.394 . S
C1400 H1416 0.931 . S
C1401 C1400 1.391 . S
C1401 C1405 1.376 . S
C1402 C1400 1.394 . S
C1402 C1403 1.369 . S
C1402 C1406 1.531 . S
C1403 C1402 1.369 . S
C1403 C1404 1.410 . S
C1403 C1411 1.503 . S
C1404 C1403 1.410 . S
C1404 C1405 1.392 . S
C1404 C1407 1.511 . S
C1405 C1401 1.376 . S
C1405 C1404 1.392 . S
C1405 H1417 0.929 . S
C1406 C1402 1.531 . S
C1406 H1418 0.960 . S
C1406 H1419 0.962 . S
C1406 H1420 0.960 . S
C1407 C1404 1.511 . S
C1407 H1421 0.961 . S
C1407 H1422 0.961 . S
C1407 H1423 0.961 . S
C1408 C1409 1.370 . S
C1408 C1410 1.363 . S
C1408 H1424 0.931 . S
C1409 C1408 1.370 . S
C1409 C1413 1.408 . S
C1410 C1408 1.363 . S
C1410 C1411 1.370 . S
C1410 C1414 1.524 . S
C1411 C1403 1.503 . S
C1411 C1410 1.370 . S
C1411 C1412 1.403 . S
C1412 C1411 1.403 . S
C1412 C1413 1.404 . S
C1412 C1415 1.539 . S
C1413 C1409 1.408 . S
C1413 C1412 1.404 . S
C1413 H1425 0.930 . S
C1414 C1410 1.524 . S
C1414 H1426 0.956 . S
C1414 H1427 0.961 . S
C1414 H1428 0.961 . S
C1415 C1412 1.539 . S
C1415 H1429 0.958 . S
C1415 H1430 0.961 . S
C1415 H1431 0.960 . S
H1416 C1400 0.931 . S
H1417 C1405 0.929 . S
H1418 C1406 0.960 . S
H1419 C1406 0.962 . S
H1420 C1406 0.960 . S
H1421 C1407 0.961 . S
H1422 C1407 0.961 . S
H1423 C1407 0.961 . S
H1424 C1408 0.931 . S
H1425 C1413 0.930 . S
H1426 C1414 0.956 . S
H1427 C1414 0.961 . S
H1428 C1414 0.961 . S
H1429 C1415 0.958 . S
H1430 C1415 0.961 . S
H1431 C1415 0.960 . S
C1432 C1433 1.391 . S
C1432 C1434 1.394 1_565 S
C1432 H1448 0.931 . S
C1433 C1432 1.391 . S
C1433 C1437 1.376 1_565 S
C1434 C1432 1.394 1_545 S
C1434 C1435 1.369 . S
C1434 C1438 1.531 . S
C1435 C1434 1.369 . S
C1435 C1436 1.410 . S
C1435 C1443 1.503 . S
C1436 C1435 1.410 . S
C1436 C1437 1.392 . S
C1436 C1439 1.511 . S
C1437 C1433 1.376 1_545 S
C1437 C1436 1.392 . S
C1437 H1449 0.929 . S
C1438 C1434 1.531 . S
C1438 H1450 0.960 . S
C1438 H1451 0.962 . S
C1438 H1452 0.960 . S
C1439 C1436 1.511 . S
C1439 H1453 0.961 . S
C1439 H1454 0.961 . S
C1439 H1455 0.961 . S
C1440 C1441 1.370 . S
C1440 C1442 1.363 . S
C1440 H1456 0.931 . S
C1441 C1440 1.370 . S
C1441 C1445 1.408 . S
C1442 C1440 1.363 . S
C1442 C1443 1.370 . S
C1442 C1446 1.524 . S
C1443 C1435 1.503 . S
C1443 C1442 1.370 . S
C1443 C1444 1.403 . S
C1444 C1443 1.403 . S
C1444 C1445 1.404 . S
C1444 C1447 1.539 . S
C1445 C1441 1.408 . S
C1445 C1444 1.404 . S
C1445 H1457 0.930 . S
C1446 C1442 1.524 . S
C1446 H1458 0.956 . S
C1446 H1459 0.961 . S
C1446 H1460 0.961 . S
C1447 C1444 1.539 . S
C1447 H1461 0.958 . S
C1447 H1462 0.961 . S
C1447 H1463 0.960 . S
H1448 C1432 0.931 . S
H1449 C1437 0.929 . S
H1450 C1438 0.960 . S
H1451 C1438 0.962 . S
H1452 C1438 0.960 . S
H1453 C1439 0.961 . S
H1454 C1439 0.961 . S
H1455 C1439 0.961 . S
H1456 C1440 0.931 . S
H1457 C1445 0.930 . S
H1458 C1446 0.956 . S
H1459 C1446 0.961 . S
H1460 C1446 0.961 . S
H1461 C1447 0.958 . S
H1462 C1447 0.961 . S
H1463 C1447 0.960 . S
C1464 C1465 1.391 . S
C1464 C1466 1.394 . S
C1464 H1480 0.931 . S
C1465 C1464 1.391 . S
C1465 C1469 1.376 . S
C1466 C1464 1.394 . S
C1466 C1467 1.369 . S
C1466 C1470 1.531 . S
C1467 C1466 1.369 . S
C1467 C1468 1.410 . S
C1467 C1475 1.503 . S
C1468 C1467 1.410 . S
C1468 C1469 1.392 . S
C1468 C1471 1.511 . S
C1469 C1465 1.376 . S
C1469 C1468 1.392 . S
C1469 H1481 0.929 . S
C1470 C1466 1.531 . S
C1470 H1482 0.960 . S
C1470 H1483 0.962 . S
C1470 H1484 0.960 . S
C1471 C1468 1.511 . S
C1471 H1485 0.961 . S
C1471 H1486 0.961 . S
C1471 H1487 0.961 . S
C1472 C1473 1.370 . S
C1472 C1474 1.363 . S
C1472 H1488 0.931 . S
C1473 C1472 1.370 . S
C1473 C1477 1.408 . S
C1474 C1472 1.363 . S
C1474 C1475 1.370 . S
C1474 C1478 1.524 . S
C1475 C1467 1.503 . S
C1475 C1474 1.370 . S
C1475 C1476 1.403 . S
C1476 C1475 1.403 . S
C1476 C1477 1.404 . S
C1476 C1479 1.539 . S
C1477 C1473 1.408 . S
C1477 C1476 1.404 . S
C1477 H1489 0.930 . S
C1478 C1474 1.524 . S
C1478 H1490 0.956 . S
C1478 H1491 0.961 . S
C1478 H1492 0.961 . S
C1479 C1476 1.539 . S
C1479 H1493 0.958 . S
C1479 H1494 0.961 . S
C1479 H1495 0.960 . S
H1480 C1464 0.931 . S
H1481 C1469 0.929 . S
H1482 C1470 0.960 . S
H1483 C1470 0.962 . S
H1484 C1470 0.960 . S
H1485 C1471 0.961 . S
H1486 C1471 0.961 . S
H1487 C1471 0.961 . S
H1488 C1472 0.931 . S
H1489 C1477 0.930 . S
H1490 C1478 0.956 . S
H1491 C1478 0.961 . S
H1492 C1478 0.961 . S
H1493 C1479 0.958 . S
H1494 C1479 0.961 . S
H1495 C1479 0.960 . S
C1496 C1497 1.391 . S
C1496 C1498 1.394 . S
C1496 H1512 0.931 . S
C1497 C1496 1.391 . S
C1497 C1501 1.376 . S
C1498 C1496 1.394 . S
C1498 C1499 1.369 . S
C1498 C1502 1.531 . S
C1499 C1498 1.369 . S
C1499 C1500 1.410 . S
C1499 C1507 1.503 . S
C1500 C1499 1.410 . S
C1500 C1501 1.392 . S
C1500 C1503 1.511 . S
C1501 C1497 1.376 . S
C1501 C1500 1.392 . S
C1501 H1513 0.929 . S
C1502 C1498 1.531 . S
C1502 H1514 0.960 . S
C1502 H1515 0.962 . S
C1502 H1516 0.960 . S
C1503 C1500 1.511 . S
C1503 H1517 0.961 . S
C1503 H1518 0.961 . S
C1503 H1519 0.961 . S
C1504 C1505 1.370 . S
C1504 C1506 1.363 . S
C1504 H1520 0.931 . S
C1505 C1504 1.370 . S
C1505 C1509 1.408 . S
C1506 C1504 1.363 . S
C1506 C1507 1.370 . S
C1506 C1510 1.524 . S
C1507 C1499 1.503 . S
C1507 C1506 1.370 . S
C1507 C1508 1.403 . S
C1508 C1507 1.403 . S
C1508 C1509 1.404 . S
C1508 C1511 1.539 . S
C1509 C1505 1.408 . S
C1509 C1508 1.404 . S
C1509 H1521 0.930 . S
C1510 C1506 1.524 . S
C1510 H1522 0.956 . S
C1510 H1523 0.961 . S
C1510 H1524 0.961 . S
C1511 C1508 1.539 . S
C1511 H1525 0.958 . S
C1511 H1526 0.961 . S
C1511 H1527 0.960 . S
H1512 C1496 0.931 . S
H1513 C1501 0.929 . S
H1514 C1502 0.960 . S
H1515 C1502 0.962 . S
H1516 C1502 0.960 . S
H1517 C1503 0.961 . S
H1518 C1503 0.961 . S
H1519 C1503 0.961 . S
H1520 C1504 0.931 . S
H1521 C1509 0.930 . S
H1522 C1510 0.956 . S
H1523 C1510 0.961 . S
H1524 C1510 0.961 . S
H1525 C1511 0.958 . S
H1526 C1511 0.961 . S
H1527 C1511 0.960 . S
C1528 C1529 1.391 . S
C1528 C1530 1.394 . S
C1528 H1544 0.931 . S
C1529 C1528 1.391 . S
C1529 C1533 1.376 . S
C1530 C1528 1.394 . S
C1530 C1531 1.369 . S
C1530 C1534 1.531 . S
C1531 C1530 1.369 . S
C1531 C1532 1.410 . S
C1531 C1539 1.503 . S
C1532 C1531 1.410 . S
C1532 C1533 1.392 . S
C1532 C1535 1.511 . S
C1533 C1529 1.376 . S
C1533 C1532 1.392 . S
C1533 H1545 0.929 . S
C1534 C1530 1.531 . S
C1534 H1546 0.960 . S
C1534 H1547 0.962 . S
C1534 H1548 0.960 . S
C1535 C1532 1.511 . S
C1535 H1549 0.961 . S
C1535 H1550 0.961 . S
C1535 H1551 0.961 . S
C1536 C1537 1.370 . S
C1536 C1538 1.363 . S
C1536 H1552 0.931 . S
C1537 C1536 1.370 . S
C1537 C1541 1.408 . S
C1538 C1536 1.363 . S
C1538 C1539 1.370 . S
C1538 C1542 1.524 . S
C1539 C1531 1.503 . S
C1539 C1538 1.370 . S
C1539 C1540 1.403 . S
C1540 C1539 1.403 . S
C1540 C1541 1.404 . S
C1540 C1543 1.539 . S
C1541 C1537 1.408 . S
C1541 C1540 1.404 . S
C1541 H1553 0.930 . S
C1542 C1538 1.524 . S
C1542 H1554 0.956 . S
C1542 H1555 0.961 . S
C1542 H1556 0.961 . S
C1543 C1540 1.539 . S
C1543 H1557 0.958 . S
C1543 H1558 0.961 . S
C1543 H1559 0.960 . S
H1544 C1528 0.931 . S
H1545 C1533 0.929 . S
H1546 C1534 0.960 . S
H1547 C1534 0.962 . S
H1548 C1534 0.960 . S
H1549 C1535 0.961 . S
H1550 C1535 0.961 . S
H1551 C1535 0.961 . S
H1552 C1536 0.931 . S
H1553 C1541 0.930 . S
H1554 C1542 0.956 . S
H1555 C1542 0.961 . S
H1556 C1542 0.961 . S
H1557 C1543 0.958 . S
H1558 C1543 0.961 . S
H1559 C1543 0.960 . S
C1560 C1561 1.391 . S
C1560 C1562 1.394 . S
C1560 H1576 0.931 . S
C1561 C1560 1.391 . S
C1561 C1565 1.376 . S
C1562 C1560 1.394 . S
C1562 C1563 1.369 . S
C1562 C1566 1.531 . S
C1563 C1562 1.369 . S
C1563 C1564 1.410 . S
C1563 C1571 1.503 . S
C1564 C1563 1.410 . S
C1564 C1565 1.392 . S
C1564 C1567 1.511 . S
C1565 C1561 1.376 . S
C1565 C1564 1.392 . S
C1565 H1577 0.929 . S
C1566 C1562 1.531 . S
C1566 H1578 0.960 . S
C1566 H1579 0.962 . S
C1566 H1580 0.960 . S
C1567 C1564 1.511 . S
C1567 H1581 0.961 . S
C1567 H1582 0.961 . S
C1567 H1583 0.961 . S
C1568 C1569 1.370 . S
C1568 C1570 1.363 . S
C1568 H1584 0.931 . S
C1569 C1568 1.370 . S
C1569 C1573 1.408 . S
C1570 C1568 1.363 . S
C1570 C1571 1.370 . S
C1570 C1574 1.524 . S
C1571 C1563 1.503 . S
C1571 C1570 1.370 . S
C1571 C1572 1.403 . S
C1572 C1571 1.403 . S
C1572 C1573 1.404 . S
C1572 C1575 1.539 . S
C1573 C1569 1.408 . S
C1573 C1572 1.404 . S
C1573 H1585 0.930 . S
C1574 C1570 1.524 . S
C1574 H1586 0.956 . S
C1574 H1587 0.961 . S
C1574 H1588 0.961 . S
C1575 C1572 1.539 . S
C1575 H1589 0.958 . S
C1575 H1590 0.961 . S
C1575 H1591 0.960 . S
H1576 C1560 0.931 . S
H1577 C1565 0.929 . S
H1578 C1566 0.960 . S
H1579 C1566 0.962 . S
H1580 C1566 0.960 . S
H1581 C1567 0.961 . S
H1582 C1567 0.961 . S
H1583 C1567 0.961 . S
H1584 C1568 0.931 . S
H1585 C1573 0.930 . S
H1586 C1574 0.956 . S
H1587 C1574 0.961 . S
H1588 C1574 0.961 . S
H1589 C1575 0.958 . S
H1590 C1575 0.961 . S
H1591 C1575 0.960 . S
C1592 C1593 1.391 . S
C1592 C1594 1.394 . S
C1592 H1608 0.931 . S
C1593 C1592 1.391 . S
C1593 C1597 1.376 . S
C1594 C1592 1.394 . S
C1594 C1595 1.369 . S
C1594 C1598 1.531 . S
C1595 C1594 1.369 . S
C1595 C1596 1.410 . S
C1595 C1603 1.503 . S
C1596 C1595 1.410 . S
C1596 C1597 1.392 . S
C1596 C1599 1.511 . S
C1597 C1593 1.376 . S
C1597 C1596 1.392 . S
C1597 H1609 0.929 . S
C1598 C1594 1.531 . S
C1598 H1610 0.960 . S
C1598 H1611 0.962 . S
C1598 H1612 0.960 . S
C1599 C1596 1.511 . S
C1599 H1613 0.961 . S
C1599 H1614 0.961 . S
C1599 H1615 0.961 . S
C1600 C1601 1.370 . S
C1600 C1602 1.363 . S
C1600 H1616 0.931 . S
C1601 C1600 1.370 . S
C1601 C1605 1.408 . S
C1602 C1600 1.363 . S
C1602 C1603 1.370 . S
C1602 C1606 1.524 . S
C1603 C1595 1.503 . S
C1603 C1602 1.370 . S
C1603 C1604 1.403 . S
C1604 C1603 1.403 . S
C1604 C1605 1.404 . S
C1604 C1607 1.539 . S
C1605 C1601 1.408 . S
C1605 C1604 1.404 . S
C1605 H1617 0.930 . S
C1606 C1602 1.524 . S
C1606 H1618 0.956 . S
C1606 H1619 0.961 . S
C1606 H1620 0.961 . S
C1607 C1604 1.539 . S
C1607 H1621 0.958 . S
C1607 H1622 0.961 . S
C1607 H1623 0.960 . S
H1608 C1592 0.931 . S
H1609 C1597 0.929 . S
H1610 C1598 0.960 . S
H1611 C1598 0.962 . S
H1612 C1598 0.960 . S
H1613 C1599 0.961 . S
H1614 C1599 0.961 . S
H1615 C1599 0.961 . S
H1616 C1600 0.931 . S
H1617 C1605 0.930 . S
H1618 C1606 0.956 . S
H1619 C1606 0.961 . S
H1620 C1606 0.961 . S
H1621 C1607 0.958 . S
H1622 C1607 0.961 . S
H1623 C1607 0.960 . S
C1624 C1625 1.391 . S
C1624 C1626 1.394 . S
C1624 H1640 0.931 . S
C1625 C1624 1.391 . S
C1625 C1629 1.376 . S
C1626 C1624 1.394 . S
C1626 C1627 1.369 . S
C1626 C1630 1.531 . S
C1627 C1626 1.369 . S
C1627 C1628 1.410 . S
C1627 C1635 1.503 . S
C1628 C1627 1.410 . S
C1628 C1629 1.392 . S
C1628 C1631 1.511 . S
C1629 C1625 1.376 . S
C1629 C1628 1.392 . S
C1629 H1641 0.929 . S
C1630 C1626 1.531 . S
C1630 H1642 0.960 . S
C1630 H1643 0.962 . S
C1630 H1644 0.960 . S
C1631 C1628 1.511 . S
C1631 H1645 0.961 . S
C1631 H1646 0.961 . S
C1631 H1647 0.961 . S
C1632 C1633 1.370 . S
C1632 C1634 1.363 . S
C1632 H1648 0.931 . S
C1633 C1632 1.370 . S
C1633 C1637 1.408 . S
C1634 C1632 1.363 . S
C1634 C1635 1.370 . S
C1634 C1638 1.524 . S
C1635 C1627 1.503 . S
C1635 C1634 1.370 . S
C1635 C1636 1.403 . S
C1636 C1635 1.403 . S
C1636 C1637 1.404 . S
C1636 C1639 1.539 . S
C1637 C1633 1.408 . S
C1637 C1636 1.404 . S
C1637 H1649 0.930 . S
C1638 C1634 1.524 . S
C1638 H1650 0.956 . S
C1638 H1651 0.961 . S
C1638 H1652 0.961 . S
C1639 C1636 1.539 . S
C1639 H1653 0.958 . S
C1639 H1654 0.961 . S
C1639 H1655 0.960 . S
H1640 C1624 0.931 . S
H1641 C1629 0.929 . S
H1642 C1630 0.960 . S
H1643 C1630 0.962 . S
H1644 C1630 0.960 . S
H1645 C1631 0.961 . S
H1646 C1631 0.961 . S
H1647 C1631 0.961 . S
H1648 C1632 0.931 . S
H1649 C1637 0.930 . S
H1650 C1638 0.956 . S
H1651 C1638 0.961 . S
H1652 C1638 0.961 . S
H1653 C1639 0.958 . S
H1654 C1639 0.961 . S
H1655 C1639 0.960 . S
C1656 C1657 1.391 . S
C1656 C1658 1.394 . S
C1656 H1672 0.931 . S
C1657 C1656 1.391 . S
C1657 C1661 1.376 . S
C1658 C1656 1.394 . S
C1658 C1659 1.369 . S
C1658 C1662 1.531 . S
C1659 C1658 1.369 . S
C1659 C1660 1.410 . S
C1659 C1667 1.503 . S
C1660 C1659 1.410 . S
C1660 C1661 1.392 . S
C1660 C1663 1.511 . S
C1661 C1657 1.376 . S
C1661 C1660 1.392 . S
C1661 H1673 0.929 . S
C1662 C1658 1.531 . S
C1662 H1674 0.960 . S
C1662 H1675 0.962 . S
C1662 H1676 0.960 . S
C1663 C1660 1.511 . S
C1663 H1677 0.961 . S
C1663 H1678 0.961 . S
C1663 H1679 0.961 . S
C1664 C1665 1.370 . S
C1664 C1666 1.363 . S
C1664 H1680 0.931 . S
C1665 C1664 1.370 . S
C1665 C1669 1.408 . S
C1666 C1664 1.363 . S
C1666 C1667 1.370 . S
C1666 C1670 1.524 . S
C1667 C1659 1.503 . S
C1667 C1666 1.370 . S
C1667 C1668 1.403 . S
C1668 C1667 1.403 . S
C1668 C1669 1.404 . S
C1668 C1671 1.539 . S
C1669 C1665 1.408 . S
C1669 C1668 1.404 . S
C1669 H1681 0.930 . S
C1670 C1666 1.524 . S
C1670 H1682 0.956 . S
C1670 H1683 0.961 . S
C1670 H1684 0.961 . S
C1671 C1668 1.539 . S
C1671 H1685 0.958 . S
C1671 H1686 0.961 . S
C1671 H1687 0.960 . S
H1672 C1656 0.931 . S
H1673 C1661 0.929 . S
H1674 C1662 0.960 . S
H1675 C1662 0.962 . S
H1676 C1662 0.960 . S
H1677 C1663 0.961 . S
H1678 C1663 0.961 . S
H1679 C1663 0.961 . S
H1680 C1664 0.931 . S
H1681 C1669 0.930 . S
H1682 C1670 0.956 . S
H1683 C1670 0.961 . S
H1684 C1670 0.961 . S
H1685 C1671 0.958 . S
H1686 C1671 0.961 . S
H1687 C1671 0.960 . S
C1688 C1689 1.391 . S
C1688 C1690 1.394 . S
C1688 H1704 0.931 . S
C1689 C1688 1.391 . S
C1689 C1693 1.376 . S
C1690 C1688 1.394 . S
C1690 C1691 1.369 . S
C1690 C1694 1.531 . S
C1691 C1690 1.369 . S
C1691 C1692 1.410 . S
C1691 C1699 1.503 . S
C1692 C1691 1.410 . S
C1692 C1693 1.392 . S
C1692 C1695 1.511 . S
C1693 C1689 1.376 . S
C1693 C1692 1.392 . S
C1693 H1705 0.929 . S
C1694 C1690 1.531 . S
C1694 H1706 0.960 . S
C1694 H1707 0.962 . S
C1694 H1708 0.960 . S
C1695 C1692 1.511 . S
C1695 H1709 0.961 . S
C1695 H1710 0.961 . S
C1695 H1711 0.961 . S
C1696 C1697 1.370 . S
C1696 C1698 1.363 . S
C1696 H1712 0.931 . S
C1697 C1696 1.370 . S
C1697 C1701 1.408 . S
C1698 C1696 1.363 . S
C1698 C1699 1.370 . S
C1698 C1702 1.524 . S
C1699 C1691 1.503 . S
C1699 C1698 1.370 . S
C1699 C1700 1.403 . S
C1700 C1699 1.403 . S
C1700 C1701 1.404 . S
C1700 C1703 1.539 . S
C1701 C1697 1.408 . S
C1701 C1700 1.404 . S
C1701 H1713 0.930 . S
C1702 C1698 1.524 . S
C1702 H1714 0.956 . S
C1702 H1715 0.961 . S
C1702 H1716 0.961 . S
C1703 C1700 1.539 . S
C1703 H1717 0.958 . S
C1703 H1718 0.961 . S
C1703 H1719 0.960 . S
H1704 C1688 0.931 . S
H1705 C1693 0.929 . S
H1706 C1694 0.960 . S
H1707 C1694 0.962 . S
H1708 C1694 0.960 . S
H1709 C1695 0.961 . S
H1710 C1695 0.961 . S
H1711 C1695 0.961 . S
H1712 C1696 0.931 . S
H1713 C1701 0.930 . S
H1714 C1702 0.956 . S
H1715 C1702 0.961 . S
H1716 C1702 0.961 . S
H1717 C1703 0.958 . S
H1718 C1703 0.961 . S
H1719 C1703 0.960 . S
C1720 C1721 1.391 . S
C1720 C1722 1.394 . S
C1720 H1736 0.931 . S
C1721 C1720 1.391 . S
C1721 C1725 1.376 . S
C1722 C1720 1.394 . S
C1722 C1723 1.369 . S
C1722 C1726 1.531 . S
C1723 C1722 1.369 . S
C1723 C1724 1.410 . S
C1723 C1731 1.503 . S
C1724 C1723 1.410 . S
C1724 C1725 1.392 . S
C1724 C1727 1.511 . S
C1725 C1721 1.376 . S
C1725 C1724 1.392 . S
C1725 H1737 0.929 . S
C1726 C1722 1.531 . S
C1726 H1738 0.960 . S
C1726 H1739 0.962 . S
C1726 H1740 0.960 . S
C1727 C1724 1.511 . S
C1727 H1741 0.961 . S
C1727 H1742 0.961 . S
C1727 H1743 0.961 . S
C1728 C1729 1.370 . S
C1728 C1730 1.363 . S
C1728 H1744 0.931 . S
C1729 C1728 1.370 . S
C1729 C1733 1.408 . S
C1730 C1728 1.363 . S
C1730 C1731 1.370 . S
C1730 C1734 1.524 . S
C1731 C1723 1.503 . S
C1731 C1730 1.370 . S
C1731 C1732 1.403 . S
C1732 C1731 1.403 . S
C1732 C1733 1.404 . S
C1732 C1735 1.539 . S
C1733 C1729 1.408 . S
C1733 C1732 1.404 . S
C1733 H1745 0.930 . S
C1734 C1730 1.524 . S
C1734 H1746 0.956 . S
C1734 H1747 0.961 . S
C1734 H1748 0.961 . S
C1735 C1732 1.539 . S
C1735 H1749 0.958 . S
C1735 H1750 0.961 . S
C1735 H1751 0.960 . S
H1736 C1720 0.931 . S
H1737 C1725 0.929 . S
H1738 C1726 0.960 . S
H1739 C1726 0.962 . S
H1740 C1726 0.960 . S
H1741 C1727 0.961 . S
H1742 C1727 0.961 . S
H1743 C1727 0.961 . S
H1744 C1728 0.931 . S
H1745 C1733 0.930 . S
H1746 C1734 0.956 . S
H1747 C1734 0.961 . S
H1748 C1734 0.961 . S
H1749 C1735 0.958 . S
H1750 C1735 0.961 . S
H1751 C1735 0.960 . S
C1752 C1753 1.391 . S
C1752 C1754 1.394 . S
C1752 H1768 0.931 . S
C1753 C1752 1.391 . S
C1753 C1757 1.376 . S
C1754 C1752 1.394 . S
C1754 C1755 1.369 . S
C1754 C1758 1.531 . S
C1755 C1754 1.369 . S
C1755 C1756 1.410 . S
C1755 C1763 1.503 . S
C1756 C1755 1.410 . S
C1756 C1757 1.392 . S
C1756 C1759 1.511 . S
C1757 C1753 1.376 . S
C1757 C1756 1.392 . S
C1757 H1769 0.929 . S
C1758 C1754 1.531 . S
C1758 H1770 0.960 . S
C1758 H1771 0.962 . S
C1758 H1772 0.960 . S
C1759 C1756 1.511 . S
C1759 H1773 0.961 . S
C1759 H1774 0.961 . S
C1759 H1775 0.961 . S
C1760 C1761 1.370 . S
C1760 C1762 1.363 . S
C1760 H1776 0.931 . S
C1761 C1760 1.370 . S
C1761 C1765 1.408 . S
C1762 C1760 1.363 . S
C1762 C1763 1.370 . S
C1762 C1766 1.524 . S
C1763 C1755 1.503 . S
C1763 C1762 1.370 . S
C1763 C1764 1.403 . S
C1764 C1763 1.403 . S
C1764 C1765 1.404 . S
C1764 C1767 1.539 . S
C1765 C1761 1.408 . S
C1765 C1764 1.404 . S
C1765 H1777 0.930 . S
C1766 C1762 1.524 . S
C1766 H1778 0.956 . S
C1766 H1779 0.961 . S
C1766 H1780 0.961 . S
C1767 C1764 1.539 . S
C1767 H1781 0.958 . S
C1767 H1782 0.961 . S
C1767 H1783 0.960 . S
H1768 C1752 0.931 . S
H1769 C1757 0.929 . S
H1770 C1758 0.960 . S
H1771 C1758 0.962 . S
H1772 C1758 0.960 . S
H1773 C1759 0.961 . S
H1774 C1759 0.961 . S
H1775 C1759 0.961 . S
H1776 C1760 0.931 . S
H1777 C1765 0.930 . S
H1778 C1766 0.956 . S
H1779 C1766 0.961 . S
H1780 C1766 0.961 . S
H1781 C1767 0.958 . S
H1782 C1767 0.961 . S
H1783 C1767 0.960 . S
C1784 C1785 1.391 . S
C1784 C1786 1.394 . S
C1784 H1800 0.931 . S
C1785 C1784 1.391 . S
C1785 C1789 1.376 . S
C1786 C1784 1.394 . S
C1786 C1787 1.369 . S
C1786 C1790 1.531 . S
C1787 C1786 1.369 . S
C1787 C1788 1.410 . S
C1787 C1795 1.503 . S
C1788 C1787 1.410 . S
C1788 C1789 1.392 . S
C1788 C1791 1.511 . S
C1789 C1785 1.376 . S
C1789 C1788 1.392 . S
C1789 H1801 0.929 . S
C1790 C1786 1.531 . S
C1790 H1802 0.960 . S
C1790 H1803 0.962 . S
C1790 H1804 0.960 . S
C1791 C1788 1.511 . S
C1791 H1805 0.961 . S
C1791 H1806 0.961 . S
C1791 H1807 0.961 . S
C1792 C1793 1.370 . S
C1792 C1794 1.363 . S
C1792 H1808 0.931 . S
C1793 C1792 1.370 . S
C1793 C1797 1.408 . S
C1794 C1792 1.363 . S
C1794 C1795 1.370 . S
C1794 C1798 1.524 . S
C1795 C1787 1.503 . S
C1795 C1794 1.370 . S
C1795 C1796 1.403 . S
C1796 C1795 1.403 . S
C1796 C1797 1.404 . S
C1796 C1799 1.539 . S
C1797 C1793 1.408 . S
C1797 C1796 1.404 . S
C1797 H1809 0.930 . S
C1798 C1794 1.524 . S
C1798 H1810 0.956 . S
C1798 H1811 0.961 . S
C1798 H1812 0.961 . S
C1799 C1796 1.539 . S
C1799 H1813 0.958 . S
C1799 H1814 0.961 . S
C1799 H1815 0.960 . S
H1800 C1784 0.931 . S
H1801 C1789 0.929 . S
H1802 C1790 0.960 . S
H1803 C1790 0.962 . S
H1804 C1790 0.960 . S
H1805 C1791 0.961 . S
H1806 C1791 0.961 . S
H1807 C1791 0.961 . S
H1808 C1792 0.931 . S
H1809 C1797 0.930 . S
H1810 C1798 0.956 . S
H1811 C1798 0.961 . S
H1812 C1798 0.961 . S
H1813 C1799 0.958 . S
H1814 C1799 0.961 . S
H1815 C1799 0.960 . S
C1816 C1817 1.391 . S
C1816 C1818 1.394 . S
C1816 H1832 0.931 . S
C1817 C1816 1.391 . S
C1817 C1821 1.376 . S
C1818 C1816 1.394 . S
C1818 C1819 1.369 . S
C1818 C1822 1.531 . S
C1819 C1818 1.369 . S
C1819 C1820 1.410 . S
C1819 C1827 1.503 . S
C1820 C1819 1.410 . S
C1820 C1821 1.392 . S
C1820 C1823 1.511 . S
C1821 C1817 1.376 . S
C1821 C1820 1.392 . S
C1821 H1833 0.929 . S
C1822 C1818 1.531 . S
C1822 H1834 0.960 . S
C1822 H1835 0.962 . S
C1822 H1836 0.960 . S
C1823 C1820 1.511 . S
C1823 H1837 0.961 . S
C1823 H1838 0.961 . S
C1823 H1839 0.961 . S
C1824 C1825 1.370 . S
C1824 C1826 1.363 . S
C1824 H1840 0.931 . S
C1825 C1824 1.370 . S
C1825 C1829 1.408 . S
C1826 C1824 1.363 . S
C1826 C1827 1.370 . S
C1826 C1830 1.524 . S
C1827 C1819 1.503 . S
C1827 C1826 1.370 . S
C1827 C1828 1.403 . S
C1828 C1827 1.403 . S
C1828 C1829 1.404 . S
C1828 C1831 1.539 . S
C1829 C1825 1.408 . S
C1829 C1828 1.404 . S
C1829 H1841 0.930 . S
C1830 C1826 1.524 . S
C1830 H1842 0.956 . S
C1830 H1843 0.961 . S
C1830 H1844 0.961 . S
C1831 C1828 1.539 . S
C1831 H1845 0.958 . S
C1831 H1846 0.961 . S
C1831 H1847 0.960 . S
H1832 C1816 0.931 . S
H1833 C1821 0.929 . S
H1834 C1822 0.960 . S
H1835 C1822 0.962 . S
H1836 C1822 0.960 . S
H1837 C1823 0.961 . S
H1838 C1823 0.961 . S
H1839 C1823 0.961 . S
H1840 C1824 0.931 . S
H1841 C1829 0.930 . S
H1842 C1830 0.956 . S
H1843 C1830 0.961 . S
H1844 C1830 0.961 . S
H1845 C1831 0.958 . S
H1846 C1831 0.961 . S
H1847 C1831 0.960 . S
C1848 C1849 1.391 . S
C1848 C1850 1.394 . S
C1848 H1864 0.931 . S
C1849 C1848 1.391 . S
C1849 C1853 1.376 . S
C1850 C1848 1.394 . S
C1850 C1851 1.369 . S
C1850 C1854 1.531 . S
C1851 C1850 1.369 . S
C1851 C1852 1.410 . S
C1851 C1859 1.503 . S
C1852 C1851 1.410 . S
C1852 C1853 1.392 . S
C1852 C1855 1.511 . S
C1853 C1849 1.376 . S
C1853 C1852 1.392 . S
C1853 H1865 0.929 . S
C1854 C1850 1.531 . S
C1854 H1866 0.960 . S
C1854 H1867 0.962 . S
C1854 H1868 0.960 . S
C1855 C1852 1.511 . S
C1855 H1869 0.961 . S
C1855 H1870 0.961 . S
C1855 H1871 0.961 . S
C1856 C1857 1.370 . S
C1856 C1858 1.363 . S
C1856 H1872 0.931 . S
C1857 C1856 1.370 . S
C1857 C1861 1.408 . S
C1858 C1856 1.363 . S
C1858 C1859 1.370 . S
C1858 C1862 1.524 . S
C1859 C1851 1.503 . S
C1859 C1858 1.370 . S
C1859 C1860 1.403 . S
C1860 C1859 1.403 . S
C1860 C1861 1.404 . S
C1860 C1863 1.539 . S
C1861 C1857 1.408 . S
C1861 C1860 1.404 . S
C1861 H1873 0.930 . S
C1862 C1858 1.524 . S
C1862 H1874 0.956 . S
C1862 H1875 0.961 . S
C1862 H1876 0.961 . S
C1863 C1860 1.539 . S
C1863 H1877 0.958 . S
C1863 H1878 0.961 . S
C1863 H1879 0.960 . S
H1864 C1848 0.931 . S
H1865 C1853 0.929 . S
H1866 C1854 0.960 . S
H1867 C1854 0.962 . S
H1868 C1854 0.960 . S
H1869 C1855 0.961 . S
H1870 C1855 0.961 . S
H1871 C1855 0.961 . S
H1872 C1856 0.931 . S
H1873 C1861 0.930 . S
H1874 C1862 0.956 . S
H1875 C1862 0.961 . S
H1876 C1862 0.961 . S
H1877 C1863 0.958 . S
H1878 C1863 0.961 . S
H1879 C1863 0.960 . S
C1880 C1881 1.391 . S
C1880 C1882 1.394 . S
C1880 H1896 0.931 . S
C1881 C1880 1.391 . S
C1881 C1885 1.376 . S
C1882 C1880 1.394 . S
C1882 C1883 1.369 . S
C1882 C1886 1.531 . S
C1883 C1882 1.369 . S
C1883 C1884 1.410 . S
C1883 C1891 1.503 . S
C1884 C1883 1.410 . S
C1884 C1885 1.392 . S
C1884 C1887 1.511 . S
C1885 C1881 1.376 . S
C1885 C1884 1.392 . S
C1885 H1897 0.929 . S
C1886 C1882 1.531 . S
C1886 H1898 0.960 . S
C1886 H1899 0.962 . S
C1886 H1900 0.960 . S
C1887 C1884 1.511 . S
C1887 H1901 0.961 . S
C1887 H1902 0.961 . S
C1887 H1903 0.961 . S
C1888 C1889 1.370 . S
C1888 C1890 1.363 . S
C1888 H1904 0.931 . S
C1889 C1888 1.370 . S
C1889 C1893 1.408 . S
C1890 C1888 1.363 . S
C1890 C1891 1.370 . S
C1890 C1894 1.524 . S
C1891 C1883 1.503 . S
C1891 C1890 1.370 . S
C1891 C1892 1.403 . S
C1892 C1891 1.403 . S
C1892 C1893 1.404 . S
C1892 C1895 1.539 . S
C1893 C1889 1.408 . S
C1893 C1892 1.404 . S
C1893 H1905 0.930 . S
C1894 C1890 1.524 . S
C1894 H1906 0.956 . S
C1894 H1907 0.961 . S
C1894 H1908 0.961 . S
C1895 C1892 1.539 . S
C1895 H1909 0.958 . S
C1895 H1910 0.961 . S
C1895 H1911 0.960 . S
H1896 C1880 0.931 . S
H1897 C1885 0.929 . S
H1898 C1886 0.960 . S
H1899 C1886 0.962 . S
H1900 C1886 0.960 . S
H1901 C1887 0.961 . S
H1902 C1887 0.961 . S
H1903 C1887 0.961 . S
H1904 C1888 0.931 . S
H1905 C1893 0.930 . S
H1906 C1894 0.956 . S
H1907 C1894 0.961 . S
H1908 C1894 0.961 . S
H1909 C1895 0.958 . S
H1910 C1895 0.961 . S
H1911 C1895 0.960 . S
C1912 C1913 1.391 . S
C1912 C1914 1.394 . S
C1912 H1928 0.931 . S
C1913 C1912 1.391 . S
C1913 C1917 1.376 . S
C1914 C1912 1.394 . S
C1914 C1915 1.369 . S
C1914 C1918 1.531 . S
C1915 C1914 1.369 . S
C1915 C1916 1.410 . S
C1915 C1923 1.503 . S
C1916 C1915 1.410 . S
C1916 C1917 1.392 . S
C1916 C1919 1.511 . S
C1917 C1913 1.376 . S
C1917 C1916 1.392 . S
C1917 H1929 0.929 . S
C1918 C1914 1.531 . S
C1918 H1930 0.960 . S
C1918 H1931 0.962 . S
C1918 H1932 0.960 . S
C1919 C1916 1.511 . S
C1919 H1933 0.961 . S
C1919 H1934 0.961 . S
C1919 H1935 0.961 . S
C1920 C1921 1.370 . S
C1920 C1922 1.363 . S
C1920 H1936 0.931 . S
C1921 C1920 1.370 . S
C1921 C1925 1.408 . S
C1922 C1920 1.363 . S
C1922 C1923 1.370 . S
C1922 C1926 1.524 . S
C1923 C1915 1.503 . S
C1923 C1922 1.370 . S
C1923 C1924 1.403 . S
C1924 C1923 1.403 . S
C1924 C1925 1.404 . S
C1924 C1927 1.539 . S
C1925 C1921 1.408 . S
C1925 C1924 1.404 . S
C1925 H1937 0.930 . S
C1926 C1922 1.524 . S
C1926 H1938 0.956 . S
C1926 H1939 0.961 . S
C1926 H1940 0.961 . S
C1927 C1924 1.539 . S
C1927 H1941 0.958 . S
C1927 H1942 0.961 . S
C1927 H1943 0.960 . S
H1928 C1912 0.931 . S
H1929 C1917 0.929 . S
H1930 C1918 0.960 . S
H1931 C1918 0.962 . S
H1932 C1918 0.960 . S
H1933 C1919 0.961 . S
H1934 C1919 0.961 . S
H1935 C1919 0.961 . S
H1936 C1920 0.931 . S
H1937 C1925 0.930 . S
H1938 C1926 0.956 . S
H1939 C1926 0.961 . S
H1940 C1926 0.961 . S
H1941 C1927 0.958 . S
H1942 C1927 0.961 . S
H1943 C1927 0.960 . S
C1944 C1945 1.391 . S
C1944 C1946 1.394 . S
C1944 H1960 0.931 . S
C1945 C1944 1.391 . S
C1945 C1949 1.376 . S
C1946 C1944 1.394 . S
C1946 C1947 1.369 . S
C1946 C1950 1.531 . S
C1947 C1946 1.369 . S
C1947 C1948 1.410 . S
C1947 C1955 1.503 . S
C1948 C1947 1.410 . S
C1948 C1949 1.392 . S
C1948 C1951 1.511 . S
C1949 C1945 1.376 . S
C1949 C1948 1.392 . S
C1949 H1961 0.929 . S
C1950 C1946 1.531 . S
C1950 H1962 0.960 . S
C1950 H1963 0.962 . S
C1950 H1964 0.960 . S
C1951 C1948 1.511 . S
C1951 H1965 0.961 . S
C1951 H1966 0.961 . S
C1951 H1967 0.961 . S
C1952 C1953 1.370 . S
C1952 C1954 1.363 . S
C1952 H1968 0.931 . S
C1953 C1952 1.370 . S
C1953 C1957 1.408 . S
C1954 C1952 1.363 . S
C1954 C1955 1.370 . S
C1954 C1958 1.524 . S
C1955 C1947 1.503 . S
C1955 C1954 1.370 . S
C1955 C1956 1.403 . S
C1956 C1955 1.403 . S
C1956 C1957 1.404 . S
C1956 C1959 1.539 . S
C1957 C1953 1.408 . S
C1957 C1956 1.404 . S
C1957 H1969 0.930 . S
C1958 C1954 1.524 . S
C1958 H1970 0.956 . S
C1958 H1971 0.961 . S
C1958 H1972 0.961 . S
C1959 C1956 1.539 . S
C1959 H1973 0.958 . S
C1959 H1974 0.961 . S
C1959 H1975 0.960 . S
H1960 C1944 0.931 . S
H1961 C1949 0.929 . S
H1962 C1950 0.960 . S
H1963 C1950 0.962 . S
H1964 C1950 0.960 . S
H1965 C1951 0.961 . S
H1966 C1951 0.961 . S
H1967 C1951 0.961 . S
H1968 C1952 0.931 . S
H1969 C1957 0.930 . S
H1970 C1958 0.956 . S
H1971 C1958 0.961 . S
H1972 C1958 0.961 . S
H1973 C1959 0.958 . S
H1974 C1959 0.961 . S
H1975 C1959 0.960 . S
C1976 C1977 1.391 . S
C1976 C1978 1.394 . S
C1976 H1992 0.931 . S
C1977 C1976 1.391 . S
C1977 C1981 1.376 . S
C1978 C1976 1.394 . S
C1978 C1979 1.369 . S
C1978 C1982 1.531 . S
C1979 C1978 1.369 . S
C1979 C1980 1.410 . S
C1979 C1987 1.503 . S
C1980 C1979 1.410 . S
C1980 C1981 1.392 . S
C1980 C1983 1.511 . S
C1981 C1977 1.376 . S
C1981 C1980 1.392 . S
C1981 H1993 0.929 . S
C1982 C1978 1.531 . S
C1982 H1994 0.960 . S
C1982 H1995 0.962 . S
C1982 H1996 0.960 . S
C1983 C1980 1.511 . S
C1983 H1997 0.961 . S
C1983 H1998 0.961 . S
C1983 H1999 0.961 . S
C1984 C1985 1.370 . S
C1984 C1986 1.363 . S
C1984 H2000 0.931 . S
C1985 C1984 1.370 . S
C1985 C1989 1.408 . S
C1986 C1984 1.363 . S
C1986 C1987 1.370 . S
C1986 C1990 1.524 . S
C1987 C1979 1.503 . S
C1987 C1986 1.370 . S
C1987 C1988 1.403 . S
C1988 C1987 1.403 . S
C1988 C1989 1.404 . S
C1988 C1991 1.539 . S
C1989 C1985 1.408 . S
C1989 C1988 1.404 . S
C1989 H2001 0.930 . S
C1990 C1986 1.524 . S
C1990 H2002 0.956 . S
C1990 H2003 0.961 . S
C1990 H2004 0.961 . S
C1991 C1988 1.539 . S
C1991 H2005 0.958 . S
C1991 H2006 0.961 . S
C1991 H2007 0.960 . S
H1992 C1976 0.931 . S
H1993 C1981 0.929 . S
H1994 C1982 0.960 . S
H1995 C1982 0.962 . S
H1996 C1982 0.960 . S
H1997 C1983 0.961 . S
H1998 C1983 0.961 . S
H1999 C1983 0.961 . S
H2000 C1984 0.931 . S
H2001 C1989 0.930 . S
H2002 C1990 0.956 . S
H2003 C1990 0.961 . S
H2004 C1990 0.961 . S
H2005 C1991 0.958 . S
H2006 C1991 0.961 . S
H2007 C1991 0.960 . S
C2008 C2009 1.391 . S
C2008 C2010 1.394 . S
C2008 H2024 0.931 . S
C2009 C2008 1.391 . S
C2009 C2013 1.376 . S
C2010 C2008 1.394 . S
C2010 C2011 1.369 . S
C2010 C2014 1.531 . S
C2011 C2010 1.369 . S
C2011 C2012 1.410 . S
C2011 C2019 1.503 . S
C2012 C2011 1.410 . S
C2012 C2013 1.392 . S
C2012 C2015 1.511 . S
C2013 C2009 1.376 . S
C2013 C2012 1.392 . S
C2013 H2025 0.929 . S
C2014 C2010 1.531 . S
C2014 H2026 0.960 . S
C2014 H2027 0.962 . S
C2014 H2028 0.960 . S
C2015 C2012 1.511 . S
C2015 H2029 0.961 . S
C2015 H2030 0.961 . S
C2015 H2031 0.961 . S
C2016 C2017 1.370 . S
C2016 C2018 1.363 . S
C2016 H2032 0.931 . S
C2017 C2016 1.370 . S
C2017 C2021 1.408 . S
C2018 C2016 1.363 . S
C2018 C2019 1.370 . S
C2018 C2022 1.524 . S
C2019 C2011 1.503 . S
C2019 C2018 1.370 . S
C2019 C2020 1.403 . S
C2020 C2019 1.403 . S
C2020 C2021 1.404 . S
C2020 C2023 1.539 . S
C2021 C2017 1.408 . S
C2021 C2020 1.404 . S
C2021 H2033 0.930 . S
C2022 C2018 1.524 . S
C2022 H2034 0.956 . S
C2022 H2035 0.961 . S
C2022 H2036 0.961 . S
C2023 C2020 1.539 . S
C2023 H2037 0.958 . S
C2023 H2038 0.961 . S
C2023 H2039 0.960 . S
H2024 C2008 0.931 . S
H2025 C2013 0.929 . S
H2026 C2014 0.960 . S
H2027 C2014 0.962 . S
H2028 C2014 0.960 . S
H2029 C2015 0.961 . S
H2030 C2015 0.961 . S
H2031 C2015 0.961 . S
H2032 C2016 0.931 . S
H2033 C2021 0.930 . S
H2034 C2022 0.956 . S
H2035 C2022 0.961 . S
H2036 C2022 0.961 . S
H2037 C2023 0.958 . S
H2038 C2023 0.961 . S
H2039 C2023 0.960 . S
C2040 C2041 1.391 . S
C2040 C2042 1.394 . S
C2040 H2056 0.931 . S
C2041 C2040 1.391 . S
C2041 C2045 1.376 . S
C2042 C2040 1.394 . S
C2042 C2043 1.369 . S
C2042 C2046 1.531 . S
C2043 C2042 1.369 . S
C2043 C2044 1.410 . S
C2043 C2051 1.503 . S
C2044 C2043 1.410 . S
C2044 C2045 1.392 . S
C2044 C2047 1.511 . S
C2045 C2041 1.376 . S
C2045 C2044 1.392 . S
C2045 H2057 0.929 . S
C2046 C2042 1.531 . S
C2046 H2058 0.960 . S
C2046 H2059 0.962 . S
C2046 H2060 0.960 . S
C2047 C2044 1.511 . S
C2047 H2061 0.961 . S
C2047 H2062 0.961 . S
C2047 H2063 0.961 . S
C2048 C2049 1.370 . S
C2048 C2050 1.363 . S
C2048 H2064 0.931 . S
C2049 C2048 1.370 . S
C2049 C2053 1.408 . S
C2050 C2048 1.363 . S
C2050 C2051 1.370 . S
C2050 C2054 1.524 . S
C2051 C2043 1.503 . S
C2051 C2050 1.370 . S
C2051 C2052 1.403 . S
C2052 C2051 1.403 . S
C2052 C2053 1.404 . S
C2052 C2055 1.539 . S
C2053 C2049 1.408 . S
C2053 C2052 1.404 . S
C2053 H2065 0.930 . S
C2054 C2050 1.524 . S
C2054 H2066 0.956 . S
C2054 H2067 0.961 . S
C2054 H2068 0.961 . S
C2055 C2052 1.539 . S
C2055 H2069 0.958 . S
C2055 H2070 0.961 . S
C2055 H2071 0.960 . S
H2056 C2040 0.931 . S
H2057 C2045 0.929 . S
H2058 C2046 0.960 . S
H2059 C2046 0.962 . S
H2060 C2046 0.960 . S
H2061 C2047 0.961 . S
H2062 C2047 0.961 . S
H2063 C2047 0.961 . S
H2064 C2048 0.931 . S
H2065 C2053 0.930 . S
H2066 C2054 0.956 . S
H2067 C2054 0.961 . S
H2068 C2054 0.961 . S
H2069 C2055 0.958 . S
H2070 C2055 0.961 . S
H2071 C2055 0.960 . S
C2072 C2073 1.391 . S
C2072 C2074 1.394 . S
C2072 H2088 0.931 . S
C2073 C2072 1.391 . S
C2073 C2077 1.376 . S
C2074 C2072 1.394 . S
C2074 C2075 1.369 . S
C2074 C2078 1.531 . S
C2075 C2074 1.369 . S
C2075 C2076 1.410 . S
C2075 C2083 1.503 . S
C2076 C2075 1.410 . S
C2076 C2077 1.392 . S
C2076 C2079 1.511 . S
C2077 C2073 1.376 . S
C2077 C2076 1.392 . S
C2077 H2089 0.929 . S
C2078 C2074 1.531 . S
C2078 H2090 0.960 . S
C2078 H2091 0.962 . S
C2078 H2092 0.960 . S
C2079 C2076 1.511 . S
C2079 H2093 0.961 . S
C2079 H2094 0.961 . S
C2079 H2095 0.961 . S
C2080 C2081 1.370 . S
C2080 C2082 1.363 . S
C2080 H2096 0.931 . S
C2081 C2080 1.370 . S
C2081 C2085 1.408 . S
C2082 C2080 1.363 . S
C2082 C2083 1.370 . S
C2082 C2086 1.524 . S
C2083 C2075 1.503 . S
C2083 C2082 1.370 . S
C2083 C2084 1.403 . S
C2084 C2083 1.403 . S
C2084 C2085 1.404 . S
C2084 C2087 1.539 . S
C2085 C2081 1.408 . S
C2085 C2084 1.404 . S
C2085 H2097 0.930 . S
C2086 C2082 1.524 . S
C2086 H2098 0.956 . S
C2086 H2099 0.961 . S
C2086 H2100 0.961 . S
C2087 C2084 1.539 . S
C2087 H2101 0.958 . S
C2087 H2102 0.961 . S
C2087 H2103 0.960 . S
H2088 C2072 0.931 . S
H2089 C2077 0.929 . S
H2090 C2078 0.960 . S
H2091 C2078 0.962 . S
H2092 C2078 0.960 . S
H2093 C2079 0.961 . S
H2094 C2079 0.961 . S
H2095 C2079 0.961 . S
H2096 C2080 0.931 . S
H2097 C2085 0.930 . S
H2098 C2086 0.956 . S
H2099 C2086 0.961 . S
H2100 C2086 0.961 . S
H2101 C2087 0.958 . S
H2102 C2087 0.961 . S
H2103 C2087 0.960 . S
C2104 C2105 1.391 . S
C2104 C2106 1.394 . S
C2104 H2120 0.931 . S
C2105 C2104 1.391 . S
C2105 C2109 1.376 . S
C2106 C2104 1.394 . S
C2106 C2107 1.369 . S
C2106 C2110 1.531 . S
C2107 C2106 1.369 . S
C2107 C2108 1.410 . S
C2107 C2115 1.503 . S
C2108 C2107 1.410 . S
C2108 C2109 1.392 . S
C2108 C2111 1.511 . S
C2109 C2105 1.376 . S
C2109 C2108 1.392 . S
C2109 H2121 0.929 . S
C2110 C2106 1.531 . S
C2110 H2122 0.960 . S
C2110 H2123 0.962 . S
C2110 H2124 0.960 . S
C2111 C2108 1.511 . S
C2111 H2125 0.961 . S
C2111 H2126 0.961 . S
C2111 H2127 0.961 . S
C2112 C2113 1.370 . S
C2112 C2114 1.363 . S
C2112 H2128 0.931 . S
C2113 C2112 1.370 . S
C2113 C2117 1.408 . S
C2114 C2112 1.363 . S
C2114 C2115 1.370 . S
C2114 C2118 1.524 . S
C2115 C2107 1.503 . S
C2115 C2114 1.370 . S
C2115 C2116 1.403 . S
C2116 C2115 1.403 . S
C2116 C2117 1.404 . S
C2116 C2119 1.539 . S
C2117 C2113 1.408 . S
C2117 C2116 1.404 . S
C2117 H2129 0.930 . S
C2118 C2114 1.524 . S
C2118 H2130 0.956 . S
C2118 H2131 0.961 . S
C2118 H2132 0.961 . S
C2119 C2116 1.539 . S
C2119 H2133 0.958 . S
C2119 H2134 0.961 . S
C2119 H2135 0.960 . S
H2120 C2104 0.931 . S
H2121 C2109 0.929 . S
H2122 C2110 0.960 . S
H2123 C2110 0.962 . S
H2124 C2110 0.960 . S
H2125 C2111 0.961 . S
H2126 C2111 0.961 . S
H2127 C2111 0.961 . S
H2128 C2112 0.931 . S
H2129 C2117 0.930 . S
H2130 C2118 0.956 . S
H2131 C2118 0.961 . S
H2132 C2118 0.961 . S
H2133 C2119 0.958 . S
H2134 C2119 0.961 . S
H2135 C2119 0.960 . S
C2136 C2137 1.391 . S
C2136 C2138 1.394 . S
C2136 H2152 0.931 . S
C2137 C2136 1.391 . S
C2137 C2141 1.376 . S
C2138 C2136 1.394 . S
C2138 C2139 1.369 . S
C2138 C2142 1.531 . S
C2139 C2138 1.369 . S
C2139 C2140 1.410 . S
C2139 C2147 1.503 . S
C2140 C2139 1.410 . S
C2140 C2141 1.392 . S
C2140 C2143 1.511 . S
C2141 C2137 1.376 . S
C2141 C2140 1.392 . S
C2141 H2153 0.929 . S
C2142 C2138 1.531 . S
C2142 H2154 0.960 . S
C2142 H2155 0.962 . S
C2142 H2156 0.960 . S
C2143 C2140 1.511 . S
C2143 H2157 0.961 . S
C2143 H2158 0.961 . S
C2143 H2159 0.961 . S
C2144 C2145 1.370 . S
C2144 C2146 1.363 . S
C2144 H2160 0.931 . S
C2145 C2144 1.370 . S
C2145 C2149 1.408 . S
C2146 C2144 1.363 . S
C2146 C2147 1.370 . S
C2146 C2150 1.524 . S
C2147 C2139 1.503 . S
C2147 C2146 1.370 . S
C2147 C2148 1.403 . S
C2148 C2147 1.403 . S
C2148 C2149 1.404 . S
C2148 C2151 1.539 . S
C2149 C2145 1.408 . S
C2149 C2148 1.404 . S
C2149 H2161 0.930 . S
C2150 C2146 1.524 . S
C2150 H2162 0.956 . S
C2150 H2163 0.961 . S
C2150 H2164 0.961 . S
C2151 C2148 1.539 . S
C2151 H2165 0.958 . S
C2151 H2166 0.961 . S
C2151 H2167 0.960 . S
H2152 C2136 0.931 . S
H2153 C2141 0.929 . S
H2154 C2142 0.960 . S
H2155 C2142 0.962 . S
H2156 C2142 0.960 . S
H2157 C2143 0.961 . S
H2158 C2143 0.961 . S
H2159 C2143 0.961 . S
H2160 C2144 0.931 . S
H2161 C2149 0.930 . S
H2162 C2150 0.956 . S
H2163 C2150 0.961 . S
H2164 C2150 0.961 . S
H2165 C2151 0.958 . S
H2166 C2151 0.961 . S
H2167 C2151 0.960 . S
C2168 C2169 1.391 . S
C2168 C2170 1.394 . S
C2168 H2184 0.931 . S
C2169 C2168 1.391 . S
C2169 C2173 1.376 . S
C2170 C2168 1.394 . S
C2170 C2171 1.369 . S
C2170 C2174 1.531 . S
C2171 C2170 1.369 . S
C2171 C2172 1.410 . S
C2171 C2179 1.503 . S
C2172 C2171 1.410 . S
C2172 C2173 1.392 . S
C2172 C2175 1.511 . S
C2173 C2169 1.376 . S
C2173 C2172 1.392 . S
C2173 H2185 0.929 . S
C2174 C2170 1.531 . S
C2174 H2186 0.960 . S
C2174 H2187 0.962 . S
C2174 H2188 0.960 . S
C2175 C2172 1.511 . S
C2175 H2189 0.961 . S
C2175 H2190 0.961 . S
C2175 H2191 0.961 . S
C2176 C2177 1.370 . S
C2176 C2178 1.363 . S
C2176 H2192 0.931 . S
C2177 C2176 1.370 . S
C2177 C2181 1.408 . S
C2178 C2176 1.363 . S
C2178 C2179 1.370 . S
C2178 C2182 1.524 . S
C2179 C2171 1.503 . S
C2179 C2178 1.370 . S
C2179 C2180 1.403 . S
C2180 C2179 1.403 . S
C2180 C2181 1.404 . S
C2180 C2183 1.539 . S
C2181 C2177 1.408 . S
C2181 C2180 1.404 . S
C2181 H2193 0.930 . S
C2182 C2178 1.524 . S
C2182 H2194 0.956 . S
C2182 H2195 0.961 . S
C2182 H2196 0.961 . S
C2183 C2180 1.539 . S
C2183 H2197 0.958 . S
C2183 H2198 0.961 . S
C2183 H2199 0.960 . S
H2184 C2168 0.931 . S
H2185 C2173 0.929 . S
H2186 C2174 0.960 . S
H2187 C2174 0.962 . S
H2188 C2174 0.960 . S
H2189 C2175 0.961 . S
H2190 C2175 0.961 . S
H2191 C2175 0.961 . S
H2192 C2176 0.931 . S
H2193 C2181 0.930 . S
H2194 C2182 0.956 . S
H2195 C2182 0.961 . S
H2196 C2182 0.961 . S
H2197 C2183 0.958 . S
H2198 C2183 0.961 . S
H2199 C2183 0.960 . S
C2200 C2201 1.391 . S
C2200 C2202 1.394 . S
C2200 H2216 0.931 . S
C2201 C2200 1.391 . S
C2201 C2205 1.376 . S
C2202 C2200 1.394 . S
C2202 C2203 1.369 . S
C2202 C2206 1.531 . S
C2203 C2202 1.369 . S
C2203 C2204 1.410 . S
C2203 C2211 1.503 . S
C2204 C2203 1.410 . S
C2204 C2205 1.392 . S
C2204 C2207 1.511 . S
C2205 C2201 1.376 . S
C2205 C2204 1.392 . S
C2205 H2217 0.929 . S
C2206 C2202 1.531 . S
C2206 H2218 0.960 . S
C2206 H2219 0.962 . S
C2206 H2220 0.960 . S
C2207 C2204 1.511 . S
C2207 H2221 0.961 . S
C2207 H2222 0.961 . S
C2207 H2223 0.961 . S
C2208 C2209 1.370 . S
C2208 C2210 1.363 . S
C2208 H2224 0.931 . S
C2209 C2208 1.370 . S
C2209 C2213 1.408 . S
C2210 C2208 1.363 . S
C2210 C2211 1.370 . S
C2210 C2214 1.524 . S
C2211 C2203 1.503 . S
C2211 C2210 1.370 . S
C2211 C2212 1.403 . S
C2212 C2211 1.403 . S
C2212 C2213 1.404 . S
C2212 C2215 1.539 . S
C2213 C2209 1.408 . S
C2213 C2212 1.404 . S
C2213 H2225 0.930 . S
C2214 C2210 1.524 . S
C2214 H2226 0.956 . S
C2214 H2227 0.961 . S
C2214 H2228 0.961 . S
C2215 C2212 1.539 . S
C2215 H2229 0.958 . S
C2215 H2230 0.961 . S
C2215 H2231 0.960 . S
H2216 C2200 0.931 . S
H2217 C2205 0.929 . S
H2218 C2206 0.960 . S
H2219 C2206 0.962 . S
H2220 C2206 0.960 . S
H2221 C2207 0.961 . S
H2222 C2207 0.961 . S
H2223 C2207 0.961 . S
H2224 C2208 0.931 . S
H2225 C2213 0.930 . S
H2226 C2214 0.956 . S
H2227 C2214 0.961 . S
H2228 C2214 0.961 . S
H2229 C2215 0.958 . S
H2230 C2215 0.961 . S
H2231 C2215 0.960 . S
C2232 C2233 1.391 . S
C2232 C2234 1.394 . S
C2232 H2248 0.931 . S
C2233 C2232 1.391 . S
C2233 C2237 1.376 . S
C2234 C2232 1.394 . S
C2234 C2235 1.369 . S
C2234 C2238 1.531 . S
C2235 C2234 1.369 . S
C2235 C2236 1.410 . S
C2235 C2243 1.503 . S
C2236 C2235 1.410 . S
C2236 C2237 1.392 . S
C2236 C2239 1.511 . S
C2237 C2233 1.376 . S
C2237 C2236 1.392 . S
C2237 H2249 0.929 . S
C2238 C2234 1.531 . S
C2238 H2250 0.960 . S
C2238 H2251 0.962 . S
C2238 H2252 0.960 . S
C2239 C2236 1.511 . S
C2239 H2253 0.961 . S
C2239 H2254 0.961 . S
C2239 H2255 0.961 . S
C2240 C2241 1.370 . S
C2240 C2242 1.363 . S
C2240 H2256 0.931 . S
C2241 C2240 1.370 . S
C2241 C2245 1.408 . S
C2242 C2240 1.363 . S
C2242 C2243 1.370 . S
C2242 C2246 1.524 . S
C2243 C2235 1.503 . S
C2243 C2242 1.370 . S
C2243 C2244 1.403 . S
C2244 C2243 1.403 . S
C2244 C2245 1.404 . S
C2244 C2247 1.539 . S
C2245 C2241 1.408 . S
C2245 C2244 1.404 . S
C2245 H2257 0.930 . S
C2246 C2242 1.524 . S
C2246 H2258 0.956 . S
C2246 H2259 0.961 . S
C2246 H2260 0.961 . S
C2247 C2244 1.539 . S
C2247 H2261 0.958 . S
C2247 H2262 0.961 . S
C2247 H2263 0.960 . S
H2248 C2232 0.931 . S
H2249 C2237 0.929 . S
H2250 C2238 0.960 . S
H2251 C2238 0.962 . S
H2252 C2238 0.960 . S
H2253 C2239 0.961 . S
H2254 C2239 0.961 . S
H2255 C2239 0.961 . S
H2256 C2240 0.931 . S
H2257 C2245 0.930 . S
H2258 C2246 0.956 . S
H2259 C2246 0.961 . S
H2260 C2246 0.961 . S
H2261 C2247 0.958 . S
H2262 C2247 0.961 . S
H2263 C2247 0.960 . S
C2264 C2265 1.391 . S
C2264 C2266 1.394 1_565 S
C2264 H2280 0.931 . S
C2265 C2264 1.391 . S
C2265 C2269 1.376 . S
C2266 C2264 1.394 1_545 S
C2266 C2267 1.369 . S
C2266 C2270 1.531 . S
C2267 C2266 1.369 . S
C2267 C2268 1.410 1_545 S
C2267 C2275 1.503 . S
C2268 C2267 1.410 1_565 S
C2268 C2269 1.392 . S
C2268 C2271 1.511 . S
C2269 C2265 1.376 . S
C2269 C2268 1.392 . S
C2269 H2281 0.929 . S
C2270 C2266 1.531 . S
C2270 H2282 0.960 . S
C2270 H2283 0.962 . S
C2270 H2284 0.960 . S
C2271 C2268 1.511 . S
C2271 H2285 0.961 . S
C2271 H2286 0.979 . S
C2271 H2287 0.961 . S
C2272 C2273 1.370 . S
C2272 C2274 1.363 . S
C2272 H2288 0.931 . S
C2273 C2272 1.370 . S
C2273 C2277 1.408 . S
C2274 C2272 1.363 . S
C2274 C2275 1.370 . S
C2274 C2278 1.524 . S
C2275 C2267 1.503 . S
C2275 C2274 1.370 . S
C2275 C2276 1.403 . S
C2276 C2275 1.403 . S
C2276 C2277 1.404 . S
C2276 C2279 1.539 1_545 S
C2277 C2273 1.408 . S
C2277 C2276 1.404 . S
C2277 H2289 0.930 . S
C2278 C2274 1.524 . S
C2278 H2290 0.956 . S
C2278 H2291 0.961 . S
C2278 H2292 0.961 . S
C2279 C2276 1.539 1_565 S
C2279 H2293 0.958 . S
C2279 H2294 0.961 . S
C2279 H2295 0.960 . S
H2280 C2264 0.931 . S
H2281 C2269 0.929 . S
H2282 C2270 0.960 . S
H2283 C2270 0.962 . S
H2284 C2270 0.960 . S
H2285 C2271 0.961 . S
H2286 C2271 0.979 . S
H2287 C2271 0.961 . S
H2288 C2272 0.931 . S
H2289 C2277 0.930 . S
H2290 C2278 0.956 . S
H2291 C2278 0.961 . S
H2292 C2278 0.961 . S
H2293 C2279 0.958 . S
H2294 C2279 0.961 . S
H2295 C2279 0.960 . S
C2296 C2297 1.391 . S
C2296 C2298 1.394 . S
C2296 H2312 0.931 . S
C2297 C2296 1.391 . S
C2297 C2301 1.376 . S
C2298 C2296 1.394 . S
C2298 C2299 1.369 . S
C2298 C2302 1.531 . S
C2299 C2298 1.369 . S
C2299 C2300 1.410 . S
C2299 C2307 1.503 . S
C2300 C2299 1.410 . S
C2300 C2301 1.392 . S
C2300 C2303 1.511 . S
C2301 C2297 1.376 . S
C2301 C2300 1.392 . S
C2301 H2313 0.929 . S
C2302 C2298 1.531 . S
C2302 H2314 0.960 1_655 S
C2302 H2315 0.962 . S
C2302 H2316 0.960 . S
C2303 C2300 1.511 . S
C2303 H2317 0.961 . S
C2303 H2318 0.961 . S
C2303 H2319 0.961 . S
C2304 C2305 1.370 1_655 S
C2304 C2306 1.363 . S
C2304 H2320 0.931 . S
C2305 C2304 1.370 1_455 S
C2305 C2309 1.408 . S
C2306 C2304 1.363 . S
C2306 C2307 1.370 . S
C2306 C2310 1.524 . S
C2307 C2299 1.503 . S
C2307 C2306 1.370 . S
C2307 C2308 1.403 1_655 S
C2308 C2307 1.403 1_455 S
C2308 C2309 1.404 . S
C2308 C2311 1.539 . S
C2309 C2305 1.408 . S
C2309 C2308 1.404 . S
C2309 H2321 0.930 . S
C2310 C2306 1.524 . S
C2310 H2322 0.956 . S
C2310 H2323 0.961 . S
C2310 H2324 0.961 . S
C2311 C2308 1.539 . S
C2311 H2325 0.958 . S
C2311 H2326 0.961 . S
C2311 H2327 0.960 . S
H2312 C2296 0.931 . S
H2313 C2301 0.929 . S
H2314 C2302 0.960 1_455 S
H2315 C2302 0.962 . S
H2316 C2302 0.960 . S
H2317 C2303 0.961 . S
H2318 C2303 0.961 . S
H2319 C2303 0.961 . S
H2320 C2304 0.931 . S
H2321 C2309 0.930 . S
H2322 C2310 0.956 . S
H2323 C2310 0.961 . S
H2324 C2310 0.961 . S
H2325 C2311 0.958 . S
H2326 C2311 0.961 . S
H2327 C2311 0.960 . S
C2328 C2329 1.391 . S
C2328 C2330 1.394 . S
C2328 H2344 0.931 . S
C2329 C2328 1.391 . S
C2329 C2333 1.376 . S
C2330 C2328 1.394 . S
C2330 C2331 1.369 . S
C2330 C2334 1.531 . S
C2331 C2330 1.369 . S
C2331 C2332 1.410 . S
C2331 C2339 1.503 . S
C2332 C2331 1.410 . S
C2332 C2333 1.392 . S
C2332 C2335 1.511 . S
C2333 C2329 1.376 . S
C2333 C2332 1.392 . S
C2333 H2345 0.929 . S
C2334 C2330 1.531 . S
C2334 H2346 0.960 . S
C2334 H2347 0.962 . S
C2334 H2348 0.960 . S
C2335 C2332 1.511 . S
C2335 H2349 0.961 . S
C2335 H2350 0.961 . S
C2335 H2351 0.961 . S
C2336 C2337 1.370 . S
C2336 C2338 1.363 . S
C2336 H2352 0.931 . S
C2337 C2336 1.370 . S
C2337 C2341 1.408 . S
C2338 C2336 1.363 . S
C2338 C2339 1.370 . S
C2338 C2342 1.524 . S
C2339 C2331 1.503 . S
C2339 C2338 1.370 . S
C2339 C2340 1.403 . S
C2340 C2339 1.403 . S
C2340 C2341 1.404 . S
C2340 C2343 1.539 . S
C2341 C2337 1.408 . S
C2341 C2340 1.404 . S
C2341 H2353 0.930 . S
C2342 C2338 1.524 . S
C2342 H2354 0.956 . S
C2342 H2355 0.961 . S
C2342 H2356 0.961 . S
C2343 C2340 1.539 . S
C2343 H2357 0.958 . S
C2343 H2358 0.961 . S
C2343 H2359 0.960 . S
H2344 C2328 0.931 . S
H2345 C2333 0.929 . S
H2346 C2334 0.960 . S
H2347 C2334 0.962 . S
H2348 C2334 0.960 . S
H2349 C2335 0.961 . S
H2350 C2335 0.961 . S
H2351 C2335 0.961 . S
H2352 C2336 0.931 . S
H2353 C2341 0.930 . S
H2354 C2342 0.956 . S
H2355 C2342 0.961 . S
H2356 C2342 0.961 . S
H2357 C2343 0.958 . S
H2358 C2343 0.961 . S
H2359 C2343 0.960 . S
C2360 C2361 1.391 1_565 S
C2360 C2362 1.394 . S
C2360 H2376 0.931 . S
C2361 C2360 1.391 1_545 S
C2361 C2365 1.376 . S
C2362 C2360 1.394 . S
C2362 C2363 1.369 . S
C2362 C2366 1.531 . S
C2363 C2362 1.369 . S
C2363 C2364 1.410 1_565 S
C2363 C2371 1.503 . S
C2364 C2363 1.410 1_545 S
C2364 C2365 1.392 . S
C2364 C2367 1.511 . S
C2365 C2361 1.376 . S
C2365 C2364 1.392 . S
C2365 H2377 0.929 . S
C2366 C2362 1.531 . S
C2366 H2378 0.960 . S
C2366 H2379 0.962 . S
C2366 H2380 0.960 . S
C2367 C2364 1.511 . S
C2367 H2381 0.961 . S
C2367 H2382 0.961 . S
C2367 H2383 0.961 . S
C2368 C2369 1.370 . S
C2368 C2370 1.363 . S
C2368 H2384 0.931 . S
C2369 C2368 1.370 . S
C2369 C2373 1.408 . S
C2370 C2368 1.363 . S
C2370 C2371 1.370 . S
C2370 C2374 1.524 . S
C2371 C2363 1.503 . S
C2371 C2370 1.370 . S
C2371 C2372 1.403 . S
C2372 C2371 1.403 . S
C2372 C2373 1.404 . S
C2372 C2375 1.539 1_565 S
C2373 C2369 1.408 . S
C2373 C2372 1.404 . S
C2373 H2385 0.930 . S
C2374 C2370 1.524 . S
C2374 H2386 0.956 . S
C2374 H2387 0.961 . S
C2374 H2388 0.961 . S
C2375 C2372 1.539 1_545 S
C2375 H2389 0.958 1_545 S
C2375 H2390 0.961 . S
C2375 H2391 0.960 . S
H2376 C2360 0.931 . S
H2377 C2365 0.929 . S
H2378 C2366 0.960 . S
H2379 C2366 0.962 . S
H2380 C2366 0.960 . S
H2381 C2367 0.961 . S
H2382 C2367 0.961 . S
H2383 C2367 0.961 . S
H2384 C2368 0.931 . S
H2385 C2373 0.930 . S
H2386 C2374 0.956 . S
H2387 C2374 0.961 . S
H2388 C2374 0.961 . S
H2389 C2375 0.958 1_565 S
H2390 C2375 0.961 . S
H2391 C2375 0.960 . S
C2392 C2393 1.391 . S
C2392 C2394 1.394 . S
C2392 H2408 0.931 . S
C2393 C2392 1.391 . S
C2393 C2397 1.376 . S
C2394 C2392 1.394 . S
C2394 C2395 1.369 . S
C2394 C2398 1.531 . S
C2395 C2394 1.369 . S
C2395 C2396 1.410 . S
C2395 C2403 1.503 . S
C2396 C2395 1.410 . S
C2396 C2397 1.392 . S
C2396 C2399 1.511 . S
C2397 C2393 1.376 . S
C2397 C2396 1.392 . S
C2397 H2409 0.929 . S
C2398 C2394 1.531 . S
C2398 H2410 0.965 . S
C2398 H2411 0.962 . S
C2398 H2412 0.960 . S
C2399 C2396 1.511 . S
C2399 H2413 0.961 . S
C2399 H2414 0.961 . S
C2399 H2415 0.961 . S
C2400 C2401 1.370 1_455 S
C2400 C2402 1.363 . S
C2400 H2416 0.931 . S
C2401 C2400 1.370 1_655 S
C2401 C2405 1.408 . S
C2402 C2400 1.363 . S
C2402 C2403 1.370 . S
C2402 C2406 1.524 . S
C2403 C2395 1.503 . S
C2403 C2402 1.370 . S
C2403 C2404 1.403 1_455 S
C2404 C2403 1.403 1_655 S
C2404 C2405 1.404 . S
C2404 C2407 1.539 . S
C2405 C2401 1.408 . S
C2405 C2404 1.404 . S
C2405 H2417 0.930 . S
C2406 C2402 1.524 . S
C2406 H2418 0.956 . S
C2406 H2419 0.961 . S
C2406 H2420 0.961 . S
C2407 C2404 1.539 . S
C2407 H2421 0.958 . S
C2407 H2422 0.961 . S
C2407 H2423 0.960 . S
H2408 C2392 0.931 . S
H2409 C2397 0.929 . S
H2410 C2398 0.965 . S
H2411 C2398 0.962 . S
H2412 C2398 0.960 . S
H2413 C2399 0.961 . S
H2414 C2399 0.961 . S
H2415 C2399 0.961 . S
H2416 C2400 0.931 . S
H2417 C2405 0.930 . S
H2418 C2406 0.956 . S
H2419 C2406 0.961 . S
H2420 C2406 0.961 . S
H2421 C2407 0.958 . S
H2422 C2407 0.961 . S
H2423 C2407 0.960 . S
C2424 C2425 1.391 . S
C2424 C2426 1.394 . S
C2424 H2440 0.931 . S
C2425 C2424 1.391 . S
C2425 C2429 1.376 . S
C2426 C2424 1.394 . S
C2426 C2427 1.369 . S
C2426 C2430 1.531 . S
C2427 C2426 1.369 . S
C2427 C2428 1.410 . S
C2427 C2435 1.503 . S
C2428 C2427 1.410 . S
C2428 C2429 1.392 . S
C2428 C2431 1.511 . S
C2429 C2425 1.376 . S
C2429 C2428 1.392 . S
C2429 H2441 0.929 . S
C2430 C2426 1.531 . S
C2430 H2442 0.960 . S
C2430 H2443 0.962 . S
C2430 H2444 0.960 . S
C2431 C2428 1.511 . S
C2431 H2445 0.961 . S
C2431 H2446 0.961 . S
C2431 H2447 0.961 . S
C2432 C2433 1.370 . S
C2432 C2434 1.363 . S
C2432 H2448 0.931 . S
C2433 C2432 1.370 . S
C2433 C2437 1.408 . S
C2434 C2432 1.363 . S
C2434 C2435 1.370 . S
C2434 C2438 1.524 . S
C2435 C2427 1.503 . S
C2435 C2434 1.370 . S
C2435 C2436 1.403 . S
C2436 C2435 1.403 . S
C2436 C2437 1.404 . S
C2436 C2439 1.539 . S
C2437 C2433 1.408 . S
C2437 C2436 1.404 . S
C2437 H2449 0.930 . S
C2438 C2434 1.524 . S
C2438 H2450 0.956 . S
C2438 H2451 0.961 . S
C2438 H2452 0.961 . S
C2439 C2436 1.539 . S
C2439 H2453 0.958 . S
C2439 H2454 0.961 . S
C2439 H2455 0.960 . S
H2440 C2424 0.931 . S
H2441 C2429 0.929 . S
H2442 C2430 0.960 . S
H2443 C2430 0.962 . S
H2444 C2430 0.960 . S
H2445 C2431 0.961 . S
H2446 C2431 0.961 . S
H2447 C2431 0.961 . S
H2448 C2432 0.931 . S
H2449 C2437 0.930 . S
H2450 C2438 0.956 . S
H2451 C2438 0.961 . S
H2452 C2438 0.961 . S
H2453 C2439 0.958 . S
H2454 C2439 0.961 . S
H2455 C2439 0.960 . S
C2456 C2457 1.391 . S
C2456 C2458 1.394 . S
C2456 H2472 0.931 . S
C2457 C2456 1.391 . S
C2457 C2461 1.376 . S
C2458 C2456 1.394 . S
C2458 C2459 1.369 . S
C2458 C2462 1.531 . S
C2459 C2458 1.369 . S
C2459 C2460 1.410 . S
C2459 C2467 1.503 . S
C2460 C2459 1.410 . S
C2460 C2461 1.392 . S
C2460 C2463 1.511 1_565 S
C2461 C2457 1.376 . S
C2461 C2460 1.392 . S
C2461 H2473 0.929 . S
C2462 C2458 1.531 . S
C2462 H2474 0.960 . S
C2462 H2475 0.962 . S
C2462 H2476 0.960 . S
C2463 C2460 1.511 1_545 S
C2463 H2477 0.961 . S
C2463 H2478 0.961 . S
C2463 H2479 0.961 . S
C2464 C2465 1.370 . S
C2464 C2466 1.363 1_545 S
C2464 H2480 0.931 . S
C2465 C2464 1.370 . S
C2465 C2469 1.408 . S
C2466 C2464 1.363 1_565 S
C2466 C2467 1.370 . S
C2466 C2470 1.524 . S
C2467 C2459 1.503 . S
C2467 C2466 1.370 . S
C2467 C2468 1.403 1_565 S
C2468 C2467 1.403 1_545 S
C2468 C2469 1.404 . S
C2468 C2471 1.539 . S
C2469 C2465 1.408 . S
C2469 C2468 1.404 . S
C2469 H2481 0.930 . S
C2470 C2466 1.524 . S
C2470 H2482 0.956 . S
C2470 H2483 0.961 . S
C2470 H2484 0.961 . S
C2471 C2468 1.539 . S
C2471 H2485 0.958 1_545 S
C2471 H2486 0.961 . S
C2471 H2487 0.960 . S
H2472 C2456 0.931 . S
H2473 C2461 0.929 . S
H2474 C2462 0.960 . S
H2475 C2462 0.962 . S
H2476 C2462 0.960 . S
H2477 C2463 0.961 . S
H2478 C2463 0.961 . S
H2479 C2463 0.961 . S
H2480 C2464 0.931 . S
H2481 C2469 0.930 . S
H2482 C2470 0.956 . S
H2483 C2470 0.961 . S
H2484 C2470 0.961 . S
H2485 C2471 0.958 1_565 S
H2486 C2471 0.961 . S
H2487 C2471 0.960 . S
C2488 C2489 1.391 . S
C2488 C2490 1.394 . S
C2488 H2504 0.931 . S
C2489 C2488 1.391 . S
C2489 C2493 1.376 . S
C2490 C2488 1.394 . S
C2490 C2491 1.369 . S
C2490 C2494 1.531 . S
C2491 C2490 1.369 . S
C2491 C2492 1.410 . S
C2491 C2499 1.518 . S
C2492 C2491 1.410 . S
C2492 C2493 1.392 . S
C2492 C2495 1.494 1_455 S
C2493 C2489 1.376 . S
C2493 C2492 1.392 . S
C2493 H2505 0.929 . S
C2494 C2490 1.531 . S
C2494 H2506 0.960 . S
C2494 H2507 0.962 . S
C2494 H2508 0.960 . S
C2495 C2492 1.494 1_655 S
C2495 H2509 0.949 1_655 S
C2495 H2510 0.975 . S
C2495 H2511 0.977 . S
C2496 C2497 1.370 1_455 S
C2496 C2498 1.363 . S
C2496 H2512 0.931 . S
C2497 C2496 1.370 1_655 S
C2497 C2501 1.408 . S
C2498 C2496 1.363 . S
C2498 C2499 1.371 . S
C2498 C2502 1.524 . S
C2499 C2491 1.518 . S
C2499 C2498 1.371 . S
C2499 C2500 1.388 1_455 S
C2500 C2499 1.388 1_655 S
C2500 C2501 1.404 . S
C2500 C2503 1.539 . S
C2501 C2497 1.408 . S
C2501 C2500 1.404 . S
C2501 H2513 0.930 . S
C2502 C2498 1.524 . S
C2502 H2514 0.956 . S
C2502 H2515 0.961 . S
C2502 H2516 0.961 . S
C2503 C2500 1.539 . S
C2503 H2517 0.958 . S
C2503 H2518 0.961 . S
C2503 H2519 0.960 . S
H2504 C2488 0.931 . S
H2505 C2493 0.929 . S
H2506 C2494 0.960 . S
H2507 C2494 0.962 . S
H2508 C2494 0.960 . S
H2509 C2495 0.949 1_455 S
H2510 C2495 0.975 . S
H2511 C2495 0.977 . S
H2512 C2496 0.931 . S
H2513 C2501 0.930 . S
H2514 C2502 0.956 . S
H2515 C2502 0.961 . S
H2516 C2502 0.961 . S
H2517 C2503 0.958 . S
H2518 C2503 0.961 . S
H2519 C2503 0.960 . S
C2520 C2521 1.391 . S
C2520 C2522 1.394 . S
C2520 H2536 0.931 . S
C2521 C2520 1.391 . S
C2521 C2525 1.376 . S
C2522 C2520 1.394 . S
C2522 C2523 1.369 . S
C2522 C2526 1.531 . S
C2523 C2522 1.369 . S
C2523 C2524 1.410 . S
C2523 C2531 1.503 . S
C2524 C2523 1.410 . S
C2524 C2525 1.392 . S
C2524 C2527 1.511 . S
C2525 C2521 1.376 . S
C2525 C2524 1.392 . S
C2525 H2537 0.929 . S
C2526 C2522 1.531 . S
C2526 H2538 0.960 . S
C2526 H2539 0.962 . S
C2526 H2540 0.960 . S
C2527 C2524 1.511 . S
C2527 H2541 0.961 . S
C2527 H2542 0.961 . S
C2527 H2543 0.961 . S
C2528 C2529 1.370 . S
C2528 C2530 1.363 . S
C2528 H2544 0.931 . S
C2529 C2528 1.370 . S
C2529 C2533 1.408 . S
C2530 C2528 1.363 . S
C2530 C2531 1.370 . S
C2530 C2534 1.524 . S
C2531 C2523 1.503 . S
C2531 C2530 1.370 . S
C2531 C2532 1.403 . S
C2532 C2531 1.403 . S
C2532 C2533 1.404 . S
C2532 C2535 1.539 . S
C2533 C2529 1.408 . S
C2533 C2532 1.404 . S
C2533 H2545 0.930 . S
C2534 C2530 1.524 . S
C2534 H2546 0.956 . S
C2534 H2547 0.961 . S
C2534 H2548 0.961 . S
C2535 C2532 1.539 . S
C2535 H2549 0.958 . S
C2535 H2550 0.961 . S
C2535 H2551 0.960 . S
H2536 C2520 0.931 . S
H2537 C2525 0.929 . S
H2538 C2526 0.960 . S
H2539 C2526 0.962 . S
H2540 C2526 0.960 . S
H2541 C2527 0.961 . S
H2542 C2527 0.961 . S
H2543 C2527 0.961 . S
H2544 C2528 0.931 . S
H2545 C2533 0.930 . S
H2546 C2534 0.956 . S
H2547 C2534 0.961 . S
H2548 C2534 0.961 . S
H2549 C2535 0.958 . S
H2550 C2535 0.961 . S
H2551 C2535 0.960 . S
C2552 C2553 1.391 . S
C2552 C2554 1.394 . S
C2552 H2568 0.931 . S
C2553 C2552 1.391 . S
C2553 C2557 1.376 . S
C2554 C2552 1.394 . S
C2554 C2555 1.369 . S
C2554 C2558 1.531 . S
C2555 C2554 1.369 . S
C2555 C2556 1.410 . S
C2555 C2563 1.503 . S
C2556 C2555 1.410 . S
C2556 C2557 1.392 . S
C2556 C2559 1.511 1_545 S
C2557 C2553 1.376 . S
C2557 C2556 1.392 . S
C2557 H2569 0.929 . S
C2558 C2554 1.531 . S
C2558 H2570 0.960 . S
C2558 H2571 0.962 . S
C2558 H2572 0.960 . S
C2559 C2556 1.511 1_565 S
C2559 H2573 0.961 1_565 S
C2559 H2574 0.961 . S
C2559 H2575 0.961 . S
C2560 C2561 1.370 1_545 S
C2560 C2562 1.363 . S
C2560 H2576 0.931 . S
C2561 C2560 1.370 1_565 S
C2561 C2565 1.408 . S
C2562 C2560 1.363 . S
C2562 C2563 1.370 . S
C2562 C2566 1.524 . S
C2563 C2555 1.503 . S
C2563 C2562 1.370 . S
C2563 C2564 1.403 1_545 S
C2564 C2563 1.403 1_565 S
C2564 C2565 1.404 . S
C2564 C2567 1.539 . S
C2565 C2561 1.408 . S
C2565 C2564 1.404 . S
C2565 H2577 0.930 . S
C2566 C2562 1.524 . S
C2566 H2578 0.956 . S
C2566 H2579 0.961 . S
C2566 H2580 0.961 . S
C2567 C2564 1.539 . S
C2567 H2581 0.958 . S
C2567 H2582 0.961 . S
C2567 H2583 0.960 . S
H2568 C2552 0.931 . S
H2569 C2557 0.929 . S
H2570 C2558 0.960 . S
H2571 C2558 0.962 . S
H2572 C2558 0.960 . S
H2573 C2559 0.961 1_545 S
H2574 C2559 0.961 . S
H2575 C2559 0.961 . S
H2576 C2560 0.931 . S
H2577 C2565 0.930 . S
H2578 C2566 0.956 . S
H2579 C2566 0.961 . S
H2580 C2566 0.961 . S
H2581 C2567 0.958 . S
H2582 C2567 0.961 . S
H2583 C2567 0.960 . S
C2584 C2585 1.391 . S
C2584 C2586 1.394 . S
C2584 H2600 0.931 . S
C2585 C2584 1.391 . S
C2585 C2589 1.376 . S
C2586 C2584 1.394 . S
C2586 C2587 1.352 1_455 S
C2586 C2590 1.531 . S
C2587 C2586 1.352 1_655 S
C2587 C2588 1.429 . S
C2587 C2595 1.505 . S
C2588 C2587 1.429 . S
C2588 C2589 1.392 1_655 S
C2588 C2591 1.511 . S
C2589 C2585 1.376 . S
C2589 C2588 1.392 1_455 S
C2589 H2601 0.929 1_455 S
C2590 C2586 1.531 . S
C2590 H2602 0.960 . S
C2590 H2603 0.962 . S
C2590 H2604 0.960 . S
C2591 C2588 1.511 . S
C2591 H2605 0.961 . S
C2591 H2606 0.961 . S
C2591 H2607 0.961 . S
C2592 C2593 1.370 . S
C2592 C2594 1.363 . S
C2592 H2608 0.931 . S
C2593 C2592 1.370 . S
C2593 C2597 1.408 . S
C2594 C2592 1.363 . S
C2594 C2595 1.370 . S
C2594 C2598 1.524 . S
C2595 C2587 1.505 . S
C2595 C2594 1.370 . S
C2595 C2596 1.403 . S
C2596 C2595 1.403 . S
C2596 C2597 1.404 . S
C2596 C2599 1.539 1_655 S
C2597 C2593 1.408 . S
C2597 C2596 1.404 . S
C2597 H2609 0.930 . S
C2598 C2594 1.524 . S
C2598 H2610 0.956 . S
C2598 H2611 0.961 . S
C2598 H2612 0.961 . S
C2599 C2596 1.539 1_455 S
C2599 H2613 0.958 . S
C2599 H2614 0.961 . S
C2599 H2615 0.960 . S
H2600 C2584 0.931 . S
H2601 C2589 0.929 1_655 S
H2602 C2590 0.960 . S
H2603 C2590 0.962 . S
H2604 C2590 0.960 . S
H2605 C2591 0.961 . S
H2606 C2591 0.961 . S
H2607 C2591 0.961 . S
H2608 C2592 0.931 . S
H2609 C2597 0.930 . S
H2610 C2598 0.956 . S
H2611 C2598 0.961 . S
H2612 C2598 0.961 . S
H2613 C2599 0.958 . S
H2614 C2599 0.961 . S
H2615 C2599 0.960 . S
C2616 C2617 1.391 . S
C2616 C2618 1.394 . S
C2616 H2632 0.931 . S
C2617 C2616 1.391 . S
C2617 C2621 1.376 . S
C2618 C2616 1.394 . S
C2618 C2619 1.369 . S
C2618 C2622 1.531 . S
C2619 C2618 1.369 . S
C2619 C2620 1.410 . S
C2619 C2627 1.503 1_655 S
C2620 C2619 1.410 . S
C2620 C2621 1.392 . S
C2620 C2623 1.511 . S
C2621 C2617 1.376 . S
C2621 C2620 1.392 . S
C2621 H2633 0.929 . S
C2622 C2618 1.531 . S
C2622 H2634 0.960 . S
C2622 H2635 0.962 . S
C2622 H2636 0.960 . S
C2623 C2620 1.511 . S
C2623 H2637 0.961 . S
C2623 H2638 0.961 1_655 S
C2623 H2639 0.961 . S
C2624 C2625 1.370 . S
C2624 C2626 1.363 . S
C2624 H2640 0.931 . S
C2625 C2624 1.370 . S
C2625 C2629 1.408 . S
C2626 C2624 1.363 . S
C2626 C2627 1.370 . S
C2626 C2630 1.524 . S
C2627 C2619 1.503 1_455 S
C2627 C2626 1.370 . S
C2627 C2628 1.403 . S
C2628 C2627 1.403 . S
C2628 C2629 1.404 . S
C2628 C2631 1.539 . S
C2629 C2625 1.408 . S
C2629 C2628 1.404 . S
C2629 H2641 0.930 . S
C2630 C2626 1.524 . S
C2630 H2642 0.956 . S
C2630 H2643 0.961 . S
C2630 H2644 0.961 . S
C2631 C2628 1.539 . S
C2631 H2645 0.958 1_455 S
C2631 H2646 0.961 . S
C2631 H2647 0.960 1_455 S
H2632 C2616 0.931 . S
H2633 C2621 0.929 . S
H2634 C2622 0.960 . S
H2635 C2622 0.962 . S
H2636 C2622 0.960 . S
H2637 C2623 0.961 . S
H2638 C2623 0.961 1_455 S
H2639 C2623 0.961 . S
H2640 C2624 0.931 . S
H2641 C2629 0.930 . S
H2642 C2630 0.956 . S
H2643 C2630 0.961 . S
H2644 C2630 0.961 . S
H2645 C2631 0.958 1_655 S
H2646 C2631 0.961 . S
H2647 C2631 0.960 1_655 S
C2648 C2649 1.391 . S
C2648 C2650 1.394 . S
C2648 H2664 0.931 . S
C2649 C2648 1.391 . S
C2649 C2653 1.376 . S
C2650 C2648 1.394 . S
C2650 C2651 1.369 . S
C2650 C2654 1.531 . S
C2651 C2650 1.369 . S
C2651 C2652 1.410 . S
C2651 C2659 1.503 . S
C2652 C2651 1.410 . S
C2652 C2653 1.392 . S
C2652 C2655 1.511 . S
C2653 C2649 1.376 . S
C2653 C2652 1.392 . S
C2653 H2665 0.929 . S
C2654 C2650 1.531 . S
C2654 H2666 0.960 . S
C2654 H2667 0.962 . S
C2654 H2668 0.960 . S
C2655 C2652 1.511 . S
C2655 H2669 0.961 . S
C2655 H2670 0.961 . S
C2655 H2671 0.961 . S
C2656 C2657 1.370 . S
C2656 C2658 1.363 . S
C2656 H2672 0.931 . S
C2657 C2656 1.370 . S
C2657 C2661 1.408 . S
C2658 C2656 1.363 . S
C2658 C2659 1.370 . S
C2658 C2662 1.524 . S
C2659 C2651 1.503 . S
C2659 C2658 1.370 . S
C2659 C2660 1.403 . S
C2660 C2659 1.403 . S
C2660 C2661 1.404 . S
C2660 C2663 1.539 . S
C2661 C2657 1.408 . S
C2661 C2660 1.404 . S
C2661 H2673 0.930 . S
C2662 C2658 1.524 . S
C2662 H2674 0.956 . S
C2662 H2675 0.961 . S
C2662 H2676 0.961 . S
C2663 C2660 1.539 . S
C2663 H2677 0.958 . S
C2663 H2678 0.961 . S
C2663 H2679 0.960 . S
H2664 C2648 0.931 . S
H2665 C2653 0.929 . S
H2666 C2654 0.960 . S
H2667 C2654 0.962 . S
H2668 C2654 0.960 . S
H2669 C2655 0.961 . S
H2670 C2655 0.961 . S
H2671 C2655 0.961 . S
H2672 C2656 0.931 . S
H2673 C2661 0.930 . S
H2674 C2662 0.956 . S
H2675 C2662 0.961 . S
H2676 C2662 0.961 . S
H2677 C2663 0.958 . S
H2678 C2663 0.961 . S
H2679 C2663 0.960 . S
C2680 C2681 1.391 . S
C2680 C2682 1.394 . S
C2680 H2696 0.931 . S
C2681 C2680 1.391 . S
C2681 C2685 1.376 . S
C2682 C2680 1.394 . S
C2682 C2683 1.369 . S
C2682 C2686 1.531 . S
C2683 C2682 1.369 . S
C2683 C2684 1.410 . S
C2683 C2691 1.503 1_565 S
C2684 C2683 1.410 . S
C2684 C2685 1.392 . S
C2684 C2687 1.532 . S
C2685 C2681 1.376 . S
C2685 C2684 1.392 . S
C2685 H2697 0.929 . S
C2686 C2682 1.531 . S
C2686 H2698 0.960 . S
C2686 H2699 0.962 . S
C2686 H2700 0.960 . S
C2687 C2684 1.532 . S
C2687 H2701 0.961 . S
C2687 H2702 0.946 1_565 S
C2687 H2703 0.955 1_565 S
C2688 C2689 1.370 . S
C2688 C2690 1.363 . S
C2688 H2704 0.931 . S
C2689 C2688 1.370 . S
C2689 C2693 1.408 . S
C2690 C2688 1.363 . S
C2690 C2691 1.370 . S
C2690 C2694 1.524 1_545 S
C2691 C2683 1.503 1_545 S
C2691 C2690 1.370 . S
C2691 C2692 1.403 . S
C2692 C2691 1.403 . S
C2692 C2693 1.404 . S
C2692 C2695 1.539 . S
C2693 C2689 1.408 . S
C2693 C2692 1.404 . S
C2693 H2705 0.930 . S
C2694 C2690 1.524 1_565 S
C2694 H2706 0.956 . S
C2694 H2707 0.961 . S
C2694 H2708 0.961 1_565 S
C2695 C2692 1.539 . S
C2695 H2709 0.958 . S
C2695 H2710 0.961 . S
C2695 H2711 0.960 . S
H2696 C2680 0.931 . S
H2697 C2685 0.929 . S
H2698 C2686 0.960 . S
H2699 C2686 0.962 . S
H2700 C2686 0.960 . S
H2701 C2687 0.961 . S
H2702 C2687 0.946 1_545 S
H2703 C2687 0.955 1_545 S
H2704 C2688 0.931 . S
H2705 C2693 0.930 . S
H2706 C2694 0.956 . S
H2707 C2694 0.961 . S
H2708 C2694 0.961 1_545 S
H2709 C2695 0.958 . S
H2710 C2695 0.961 . S
H2711 C2695 0.960 . S
C2712 C2713 1.391 . S
C2712 C2714 1.394 . S
C2712 H2728 0.931 . S
C2713 C2712 1.391 . S
C2713 C2717 1.376 . S
C2714 C2712 1.394 . S
C2714 C2715 1.369 . S
C2714 C2718 1.531 . S
C2715 C2714 1.369 . S
C2715 C2716 1.410 . S
C2715 C2723 1.503 1_565 S
C2716 C2715 1.410 . S
C2716 C2717 1.392 . S
C2716 C2719 1.511 . S
C2717 C2713 1.376 . S
C2717 C2716 1.392 . S
C2717 H2729 0.929 . S
C2718 C2714 1.531 . S
C2718 H2730 0.960 1_565 S
C2718 H2731 0.961 1_565 S
C2718 H2732 0.960 . S
C2719 C2716 1.511 . S
C2719 H2733 0.961 . S
C2719 H2734 0.961 . S
C2719 H2735 0.961 . S
C2720 C2721 1.370 . S
C2720 C2722 1.363 . S
C2720 H2736 0.931 . S
C2721 C2720 1.370 . S
C2721 C2725 1.408 . S
C2722 C2720 1.363 . S
C2722 C2723 1.370 . S
C2722 C2726 1.524 . S
C2723 C2715 1.503 1_545 S
C2723 C2722 1.370 . S
C2723 C2724 1.403 . S
C2724 C2723 1.403 . S
C2724 C2725 1.404 . S
C2724 C2727 1.539 . S
C2725 C2721 1.408 . S
C2725 C2724 1.404 . S
C2725 H2737 0.930 . S
C2726 C2722 1.524 . S
C2726 H2738 0.956 1_545 S
C2726 H2739 0.961 1_545 S
C2726 H2740 0.961 . S
C2727 C2724 1.539 . S
C2727 H2741 0.958 . S
C2727 H2742 0.961 . S
C2727 H2743 0.960 . S
H2728 C2712 0.931 . S
H2729 C2717 0.929 . S
H2730 C2718 0.960 1_545 S
H2731 C2718 0.961 1_545 S
H2732 C2718 0.960 . S
H2733 C2719 0.961 . S
H2734 C2719 0.961 . S
H2735 C2719 0.961 . S
H2736 C2720 0.931 . S
H2737 C2725 0.930 . S
H2738 C2726 0.956 1_565 S
H2739 C2726 0.961 1_565 S
H2740 C2726 0.961 . S
H2741 C2727 0.958 . S
H2742 C2727 0.961 . S
H2743 C2727 0.960 . S
C2744 C2745 1.391 . S
C2744 C2746 1.394 . S
C2744 H2760 0.931 . S
C2745 C2744 1.391 . S
C2745 C2749 1.376 . S
C2746 C2744 1.394 . S
C2746 C2747 1.369 . S
C2746 C2750 1.531 . S
C2747 C2746 1.369 . S
C2747 C2748 1.410 . S
C2747 C2755 1.503 1_655 S
C2748 C2747 1.410 . S
C2748 C2749 1.392 . S
C2748 C2751 1.511 . S
C2749 C2745 1.376 . S
C2749 C2748 1.392 . S
C2749 H2761 0.929 . S
C2750 C2746 1.531 . S
C2750 H2762 0.960 . S
C2750 H2763 0.962 . S
C2750 H2764 0.960 . S
C2751 C2748 1.511 . S
C2751 H2765 0.961 . S
C2751 H2766 0.961 1_655 S
C2751 H2767 0.960 1_655 S
C2752 C2753 1.370 . S
C2752 C2754 1.363 . S
C2752 H2768 0.931 . S
C2753 C2752 1.370 . S
C2753 C2757 1.408 . S
C2754 C2752 1.363 . S
C2754 C2755 1.370 . S
C2754 C2758 1.524 . S
C2755 C2747 1.503 1_455 S
C2755 C2754 1.370 . S
C2755 C2756 1.403 . S
C2756 C2755 1.403 . S
C2756 C2757 1.404 . S
C2756 C2759 1.539 . S
C2757 C2753 1.408 . S
C2757 C2756 1.404 . S
C2757 H2769 0.930 . S
C2758 C2754 1.524 . S
C2758 H2770 0.956 1_455 S
C2758 H2771 0.961 1_455 S
C2758 H2772 0.961 . S
C2759 C2756 1.539 . S
C2759 H2773 0.958 . S
C2759 H2774 0.961 . S
C2759 H2775 0.960 . S
H2760 C2744 0.931 . S
H2761 C2749 0.929 . S
H2762 C2750 0.960 . S
H2763 C2750 0.962 . S
H2764 C2750 0.960 . S
H2765 C2751 0.961 . S
H2766 C2751 0.961 1_455 S
H2767 C2751 0.960 1_455 S
H2768 C2752 0.931 . S
H2769 C2757 0.930 . S
H2770 C2758 0.956 1_655 S
H2771 C2758 0.961 1_655 S
H2772 C2758 0.961 . S
H2773 C2759 0.958 . S
H2774 C2759 0.961 . S
H2775 C2759 0.960 . S
C2776 C2777 1.391 . S
C2776 C2778 1.394 . S
C2776 H2792 0.931 . S
C2777 C2776 1.391 . S
C2777 C2781 1.376 . S
C2778 C2776 1.394 . S
C2778 C2779 1.369 . S
C2778 C2782 1.531 . S
C2779 C2778 1.369 . S
C2779 C2780 1.410 . S
C2779 C2787 1.503 . S
C2780 C2779 1.410 . S
C2780 C2781 1.392 . S
C2780 C2783 1.511 . S
C2781 C2777 1.376 . S
C2781 C2780 1.392 . S
C2781 H2793 0.929 . S
C2782 C2778 1.531 . S
C2782 H2794 0.960 . S
C2782 H2795 0.962 . S
C2782 H2796 0.960 . S
C2783 C2780 1.511 . S
C2783 H2797 0.961 . S
C2783 H2798 0.961 . S
C2783 H2799 0.961 . S
C2784 C2785 1.370 . S
C2784 C2786 1.363 . S
C2784 H2800 0.931 . S
C2785 C2784 1.370 . S
C2785 C2789 1.408 . S
C2786 C2784 1.363 . S
C2786 C2787 1.370 . S
C2786 C2790 1.524 . S
C2787 C2779 1.503 . S
C2787 C2786 1.370 . S
C2787 C2788 1.403 . S
C2788 C2787 1.403 . S
C2788 C2789 1.404 . S
C2788 C2791 1.539 . S
C2789 C2785 1.408 . S
C2789 C2788 1.404 . S
C2789 H2801 0.930 . S
C2790 C2786 1.524 . S
C2790 H2802 0.956 . S
C2790 H2803 0.961 . S
C2790 H2804 0.961 . S
C2791 C2788 1.539 . S
C2791 H2805 0.958 . S
C2791 H2806 0.961 . S
C2791 H2807 0.960 . S
H2792 C2776 0.931 . S
H2793 C2781 0.929 . S
H2794 C2782 0.960 . S
H2795 C2782 0.962 . S
H2796 C2782 0.960 . S
H2797 C2783 0.961 . S
H2798 C2783 0.961 . S
H2799 C2783 0.961 . S
H2800 C2784 0.931 . S
H2801 C2789 0.930 . S
H2802 C2790 0.956 . S
H2803 C2790 0.961 . S
H2804 C2790 0.961 . S
H2805 C2791 0.958 . S
H2806 C2791 0.961 . S
H2807 C2791 0.960 . S
C505 C8 1.367 . S
C513 C260 1.335 . S
C537 C17 1.481 . S
C545 C273 1.463 . S
C569 C287 1.459 . S
C577 C31 1.436 . S
C601 C45 1.472 . S
C609 C469 1.459 . S
C633 C483 1.492 . S
C641 C59 1.449 . S
C665 C78 1.338 . S
C673 C498 1.351 . S
C697 C344 1.345 . S
C705 C92 1.348 . S
C729 C105 1.484 . S
C737 C353 1.456 . S
C761 C119 1.448 . S
C769 C367 1.457 . S
C793 C133 1.488 . S
C801 C213 1.441 . S
C825 C227 1.477 . S
C833 C147 1.466 . S
C857 C162 1.359 . S
C865 C246 1.345 . S
C889 C176 1.333 . S
C897 C428 1.353 . S
C921 C185 1.420 . S
C929 C441 1.477 . S
C953 C199 1.414 . S
C961 C455 1.481 . S
C985 C301 1.469 . S
C993 C381 1.431 . S
C1017 C315 1.452 . S
C1025 C395 1.450 . S
C1049 C330 1.354 . S
C1057 C414 1.348 . S
C1081 C101 1.333 . S
C1089 C3 1.304 . S
C1113 C115 1.326 . S
C1121 C22 1.413 . S
C1145 C36 1.328 . S
C1153 C93 1.235 . S
C1177 C163 1.226 . S
C1185 C50 1.315 . S
C1209 C129 1.395 . S
C1217 C64 1.407 . S
C1241 C143 1.325 . S
C1249 C73 1.320 . S
C1273 C91 1.310 . S
C1281 C21 1.322 . S
C1305 C106 1.416 . S
C1313 C35 1.389 . S
C1337 C120 1.316 . S
C1345 C9 1.283 . S
C1369 C134 1.316 . S
C1377 C79 1.298 . S
C1401 C49 1.400 . S
C1409 C148 1.416 . S
C1433 C63 1.346 . S
C1441 C161 1.334 . S
C1465 C171 1.280 . S
C1473 C269 1.312 . S
C1497 C190 1.416 . S
C1505 C283 1.349 . S
C1529 C204 1.328 . S
C1537 C261 1.254 . S
C1561 C331 1.294 . S
C1569 C218 1.315 . S
C1593 C232 1.402 . S
C1601 C297 1.378 . S
C1625 C311 1.336 . S
C1633 C241 1.307 . S
C1657 C259 1.315 . S
C1665 C189 1.317 . S
C1689 C203 1.371 . S
C1697 C274 1.426 . S
C1721 C177 1.314 . S
C1729 C288 1.333 . S
C1753 C302 1.327 . S
C1761 C247 1.298 . S
C1785 C316 1.434 . S
C1793 C217 1.372 . S
C1817 C329 1.361 . S
C1825 C231 1.306 . S
C1849 C437 1.333 . S
C1857 C339 1.315 . S
C1881 C358 1.421 . S
C1889 C451 1.357 . S
C1913 C372 1.320 . S
C1921 C429 1.234 . S
C1945 C499 1.268 . S
C1953 C386 1.312 . S
C1977 C465 1.375 . S
C1985 C400 1.405 . S
C2009 C479 1.325 . S
C2017 C409 1.320 . S
C2041 C357 1.341 . S
C2049 C427 1.337 . S
C2073 C371 1.368 . S
C2081 C442 1.423 . S
C2105 C345 1.276 . S
C2113 C456 1.328 . S
C2137 C470 1.321 . S
C2145 C415 1.276 . S
C2169 C385 1.365 . S
C2177 C484 1.427 . S
C2201 C497 1.319 . S
C2209 C399 1.315 . S
C2233 C7 1.002 . S
C2241 C413 0.994 . S
C2265 C387 0.946 . S
C2273 C23 0.953 . S
C2297 C37 0.937 . S
C2305 C401 0.956 . S
C2329 C51 0.998 . S
C2337 C191 0.944 . S
C2361 C205 0.972 . S
C2369 C65 0.946 . S
C2393 C77 0.958 . S
C2401 C175 0.974 . S
C2425 C325 1.014 . S
C2433 C87 0.973 . S
C2457 C107 0.930 . S
C2465 C303 0.981 . S
C2489 C121 0.933 . S
C2497 C317 0.963 . S
C2521 C135 1.024 . S
C2529 C443 0.979 . S
C2553 C149 0.933 . S
C2561 C457 0.962 . S
C2585 C423 0.976 . S
C2593 C157 0.957 . S
C2617 C219 0.940 . S
C2625 C359 0.990 . S
C2649 C373 0.913 . S
C2657 C233 0.971 . S
C2681 C343 0.998 . S
C2689 C245 0.990 . S
C2713 C493 1.011 . S
C2721 C255 0.977 . S
C2745 C275 0.974 . S
C2753 C471 0.956 . S
C2777 C289 0.942 . S
C2785 C485 0.990 . S
