# Generated by pormake.
# Topology ull, (4)-cn, num edge types: 1
# Building blocks:
#     Node 0, Type 0, BuildingBlock: KUFVIS_clean_sbu_0, # of connection points: 4
#     Node 1, Type 0, BuildingBlock: KUFVIS_clean_sbu_0, # of connection points: 4
#     Node 2, Type 0, BuildingBlock: KUFVIS_clean_sbu_0, # of connection points: 4
#     Node 3, Type 0, BuildingBlock: KUFVIS_clean_sbu_0, # of connection points: 4
#     Node 4, Type 0, BuildingBlock: KUFVIS_clean_sbu_0, # of connection points: 4
#     Node 5, Type 0, BuildingBlock: KUFVIS_clean_sbu_0, # of connection points: 4
#     Node 6, Type 0, BuildingBlock: KUFVIS_clean_sbu_0, # of connection points: 4
#     Node 7, Type 0, BuildingBlock: KUFVIS_clean_sbu_0, # of connection points: 4
#     Node 8, Type 0, BuildingBlock: KUFVIS_clean_sbu_0, # of connection points: 4
#     Node 9, Type 0, BuildingBlock: KUFVIS_clean_sbu_0, # of connection points: 4
#     Node 10, Type 0, BuildingBlock: KUFVIS_clean_sbu_0, # of connection points: 4
#     Node 11, Type 0, BuildingBlock: KUFVIS_clean_sbu_0, # of connection points: 4
#     Node 12, Type 0, BuildingBlock: KUFVIS_clean_sbu_0, # of connection points: 4
#     Node 13, Type 0, BuildingBlock: KUFVIS_clean_sbu_0, # of connection points: 4
#     Node 14, Type 0, BuildingBlock: KUFVIS_clean_sbu_0, # of connection points: 4
#     Node 15, Type 0, BuildingBlock: KUFVIS_clean_sbu_0, # of connection points: 4
#     Node 16, Type 0, BuildingBlock: KUFVIS_clean_sbu_0, # of connection points: 4
#     Node 17, Type 0, BuildingBlock: KUFVIS_clean_sbu_0, # of connection points: 4
#     Node 18, Type 0, BuildingBlock: KUFVIS_clean_sbu_0, # of connection points: 4
#     Node 19, Type 0, BuildingBlock: KUFVIS_clean_sbu_0, # of connection points: 4
#     Node 20, Type 0, BuildingBlock: KUFVIS_clean_sbu_0, # of connection points: 4
#     Node 21, Type 0, BuildingBlock: KUFVIS_clean_sbu_0, # of connection points: 4
#     Node 22, Type 0, BuildingBlock: KUFVIS_clean_sbu_0, # of connection points: 4
#     Node 23, Type 0, BuildingBlock: KUFVIS_clean_sbu_0, # of connection points: 4
#     Node 24, Type 0, BuildingBlock: KUFVIS_clean_sbu_0, # of connection points: 4
#     Node 25, Type 0, BuildingBlock: KUFVIS_clean_sbu_0, # of connection points: 4
#     Node 26, Type 0, BuildingBlock: KUFVIS_clean_sbu_0, # of connection points: 4
#     Node 27, Type 0, BuildingBlock: KUFVIS_clean_sbu_0, # of connection points: 4
#     Node 28, Type 0, BuildingBlock: KUFVIS_clean_sbu_0, # of connection points: 4
#     Node 29, Type 0, BuildingBlock: KUFVIS_clean_sbu_0, # of connection points: 4
#     Node 30, Type 0, BuildingBlock: KUFVIS_clean_sbu_0, # of connection points: 4
#     Node 31, Type 0, BuildingBlock: KUFVIS_clean_sbu_0, # of connection points: 4
#     Node 32, Type 0, BuildingBlock: KUFVIS_clean_sbu_0, # of connection points: 4
#     Node 33, Type 0, BuildingBlock: KUFVIS_clean_sbu_0, # of connection points: 4
#     Node 34, Type 0, BuildingBlock: KUFVIS_clean_sbu_0, # of connection points: 4
#     Node 35, Type 0, BuildingBlock: KUFVIS_clean_sbu_0, # of connection points: 4
#     Node 36, Type 0, BuildingBlock: KUFVIS_clean_sbu_0, # of connection points: 4
#     Node 37, Type 0, BuildingBlock: KUFVIS_clean_sbu_0, # of connection points: 4
#     Node 38, Type 0, BuildingBlock: KUFVIS_clean_sbu_0, # of connection points: 4
#     Node 39, Type 0, BuildingBlock: KUFVIS_clean_sbu_0, # of connection points: 4
#     Node 40, Type 0, BuildingBlock: KUFVIS_clean_sbu_0, # of connection points: 4
#     Node 41, Type 0, BuildingBlock: KUFVIS_clean_sbu_0, # of connection points: 4
#     Node 42, Type 0, BuildingBlock: KUFVIS_clean_sbu_0, # of connection points: 4
#     Node 43, Type 0, BuildingBlock: KUFVIS_clean_sbu_0, # of connection points: 4
#     Node 44, Type 0, BuildingBlock: KUFVIS_clean_sbu_0, # of connection points: 4
#     Node 45, Type 0, BuildingBlock: KUFVIS_clean_sbu_0, # of connection points: 4
#     Node 46, Type 0, BuildingBlock: KUFVIS_clean_sbu_0, # of connection points: 4
#     Node 47, Type 0, BuildingBlock: KUFVIS_clean_sbu_0, # of connection points: 4
#     Edge 48, Type (0, 0), BuildingBlock: KIFKEQ_clean_linker_1, # of connection points: 2
#     Edge 49, Type (0, 0), BuildingBlock: KIFKEQ_clean_linker_1, # of connection points: 2
#     Edge 50, Type (0, 0), BuildingBlock: KIFKEQ_clean_linker_1, # of connection points: 2
#     Edge 51, Type (0, 0), BuildingBlock: KIFKEQ_clean_linker_1, # of connection points: 2
#     Edge 52, Type (0, 0), BuildingBlock: KIFKEQ_clean_linker_1, # of connection points: 2
#     Edge 53, Type (0, 0), BuildingBlock: KIFKEQ_clean_linker_1, # of connection points: 2
#     Edge 54, Type (0, 0), BuildingBlock: KIFKEQ_clean_linker_1, # of connection points: 2
#     Edge 55, Type (0, 0), BuildingBlock: KIFKEQ_clean_linker_1, # of connection points: 2
#     Edge 56, Type (0, 0), BuildingBlock: KIFKEQ_clean_linker_1, # of connection points: 2
#     Edge 57, Type (0, 0), BuildingBlock: KIFKEQ_clean_linker_1, # of connection points: 2
#     Edge 58, Type (0, 0), BuildingBlock: KIFKEQ_clean_linker_1, # of connection points: 2
#     Edge 59, Type (0, 0), BuildingBlock: KIFKEQ_clean_linker_1, # of connection points: 2
#     Edge 60, Type (0, 0), BuildingBlock: KIFKEQ_clean_linker_1, # of connection points: 2
#     Edge 61, Type (0, 0), BuildingBlock: KIFKEQ_clean_linker_1, # of connection points: 2
#     Edge 62, Type (0, 0), BuildingBlock: KIFKEQ_clean_linker_1, # of connection points: 2
#     Edge 63, Type (0, 0), BuildingBlock: KIFKEQ_clean_linker_1, # of connection points: 2
#     Edge 64, Type (0, 0), BuildingBlock: KIFKEQ_clean_linker_1, # of connection points: 2
#     Edge 65, Type (0, 0), BuildingBlock: KIFKEQ_clean_linker_1, # of connection points: 2
#     Edge 66, Type (0, 0), BuildingBlock: KIFKEQ_clean_linker_1, # of connection points: 2
#     Edge 67, Type (0, 0), BuildingBlock: KIFKEQ_clean_linker_1, # of connection points: 2
#     Edge 68, Type (0, 0), BuildingBlock: KIFKEQ_clean_linker_1, # of connection points: 2
#     Edge 69, Type (0, 0), BuildingBlock: KIFKEQ_clean_linker_1, # of connection points: 2
#     Edge 70, Type (0, 0), BuildingBlock: KIFKEQ_clean_linker_1, # of connection points: 2
#     Edge 71, Type (0, 0), BuildingBlock: KIFKEQ_clean_linker_1, # of connection points: 2
#     Edge 72, Type (0, 0), BuildingBlock: KIFKEQ_clean_linker_1, # of connection points: 2
#     Edge 73, Type (0, 0), BuildingBlock: KIFKEQ_clean_linker_1, # of connection points: 2
#     Edge 74, Type (0, 0), BuildingBlock: KIFKEQ_clean_linker_1, # of connection points: 2
#     Edge 75, Type (0, 0), BuildingBlock: KIFKEQ_clean_linker_1, # of connection points: 2
#     Edge 76, Type (0, 0), BuildingBlock: KIFKEQ_clean_linker_1, # of connection points: 2
#     Edge 77, Type (0, 0), BuildingBlock: KIFKEQ_clean_linker_1, # of connection points: 2
#     Edge 78, Type (0, 0), BuildingBlock: KIFKEQ_clean_linker_1, # of connection points: 2
#     Edge 79, Type (0, 0), BuildingBlock: KIFKEQ_clean_linker_1, # of connection points: 2
#     Edge 80, Type (0, 0), BuildingBlock: KIFKEQ_clean_linker_1, # of connection points: 2
#     Edge 81, Type (0, 0), BuildingBlock: KIFKEQ_clean_linker_1, # of connection points: 2
#     Edge 82, Type (0, 0), BuildingBlock: KIFKEQ_clean_linker_1, # of connection points: 2
#     Edge 83, Type (0, 0), BuildingBlock: KIFKEQ_clean_linker_1, # of connection points: 2
#     Edge 84, Type (0, 0), BuildingBlock: KIFKEQ_clean_linker_1, # of connection points: 2
#     Edge 85, Type (0, 0), BuildingBlock: KIFKEQ_clean_linker_1, # of connection points: 2
#     Edge 86, Type (0, 0), BuildingBlock: KIFKEQ_clean_linker_1, # of connection points: 2
#     Edge 87, Type (0, 0), BuildingBlock: KIFKEQ_clean_linker_1, # of connection points: 2
#     Edge 88, Type (0, 0), BuildingBlock: KIFKEQ_clean_linker_1, # of connection points: 2
#     Edge 89, Type (0, 0), BuildingBlock: KIFKEQ_clean_linker_1, # of connection points: 2
#     Edge 90, Type (0, 0), BuildingBlock: KIFKEQ_clean_linker_1, # of connection points: 2
#     Edge 91, Type (0, 0), BuildingBlock: KIFKEQ_clean_linker_1, # of connection points: 2
#     Edge 92, Type (0, 0), BuildingBlock: KIFKEQ_clean_linker_1, # of connection points: 2
#     Edge 93, Type (0, 0), BuildingBlock: KIFKEQ_clean_linker_1, # of connection points: 2
#     Edge 94, Type (0, 0), BuildingBlock: KIFKEQ_clean_linker_1, # of connection points: 2
#     Edge 95, Type (0, 0), BuildingBlock: KIFKEQ_clean_linker_1, # of connection points: 2
#     Edge 96, Type (0, 0), BuildingBlock: KIFKEQ_clean_linker_1, # of connection points: 2
#     Edge 97, Type (0, 0), BuildingBlock: KIFKEQ_clean_linker_1, # of connection points: 2
#     Edge 98, Type (0, 0), BuildingBlock: KIFKEQ_clean_linker_1, # of connection points: 2
#     Edge 99, Type (0, 0), BuildingBlock: KIFKEQ_clean_linker_1, # of connection points: 2
#     Edge 100, Type (0, 0), BuildingBlock: KIFKEQ_clean_linker_1, # of connection points: 2
#     Edge 101, Type (0, 0), BuildingBlock: KIFKEQ_clean_linker_1, # of connection points: 2
#     Edge 102, Type (0, 0), BuildingBlock: KIFKEQ_clean_linker_1, # of connection points: 2
#     Edge 103, Type (0, 0), BuildingBlock: KIFKEQ_clean_linker_1, # of connection points: 2
#     Edge 104, Type (0, 0), BuildingBlock: KIFKEQ_clean_linker_1, # of connection points: 2
#     Edge 105, Type (0, 0), BuildingBlock: KIFKEQ_clean_linker_1, # of connection points: 2
#     Edge 106, Type (0, 0), BuildingBlock: KIFKEQ_clean_linker_1, # of connection points: 2
#     Edge 107, Type (0, 0), BuildingBlock: KIFKEQ_clean_linker_1, # of connection points: 2
#     Edge 108, Type (0, 0), BuildingBlock: KIFKEQ_clean_linker_1, # of connection points: 2
#     Edge 109, Type (0, 0), BuildingBlock: KIFKEQ_clean_linker_1, # of connection points: 2
#     Edge 110, Type (0, 0), BuildingBlock: KIFKEQ_clean_linker_1, # of connection points: 2
#     Edge 111, Type (0, 0), BuildingBlock: KIFKEQ_clean_linker_1, # of connection points: 2
#     Edge 112, Type (0, 0), BuildingBlock: KIFKEQ_clean_linker_1, # of connection points: 2
#     Edge 113, Type (0, 0), BuildingBlock: KIFKEQ_clean_linker_1, # of connection points: 2
#     Edge 114, Type (0, 0), BuildingBlock: KIFKEQ_clean_linker_1, # of connection points: 2
#     Edge 115, Type (0, 0), BuildingBlock: KIFKEQ_clean_linker_1, # of connection points: 2
#     Edge 116, Type (0, 0), BuildingBlock: KIFKEQ_clean_linker_1, # of connection points: 2
#     Edge 117, Type (0, 0), BuildingBlock: KIFKEQ_clean_linker_1, # of connection points: 2
#     Edge 118, Type (0, 0), BuildingBlock: KIFKEQ_clean_linker_1, # of connection points: 2
#     Edge 119, Type (0, 0), BuildingBlock: KIFKEQ_clean_linker_1, # of connection points: 2
#     Edge 120, Type (0, 0), BuildingBlock: KIFKEQ_clean_linker_1, # of connection points: 2
#     Edge 121, Type (0, 0), BuildingBlock: KIFKEQ_clean_linker_1, # of connection points: 2
#     Edge 122, Type (0, 0), BuildingBlock: KIFKEQ_clean_linker_1, # of connection points: 2
#     Edge 123, Type (0, 0), BuildingBlock: KIFKEQ_clean_linker_1, # of connection points: 2
#     Edge 124, Type (0, 0), BuildingBlock: KIFKEQ_clean_linker_1, # of connection points: 2
#     Edge 125, Type (0, 0), BuildingBlock: KIFKEQ_clean_linker_1, # of connection points: 2
#     Edge 126, Type (0, 0), BuildingBlock: KIFKEQ_clean_linker_1, # of connection points: 2
#     Edge 127, Type (0, 0), BuildingBlock: KIFKEQ_clean_linker_1, # of connection points: 2
#     Edge 128, Type (0, 0), BuildingBlock: KIFKEQ_clean_linker_1, # of connection points: 2
#     Edge 129, Type (0, 0), BuildingBlock: KIFKEQ_clean_linker_1, # of connection points: 2
#     Edge 130, Type (0, 0), BuildingBlock: KIFKEQ_clean_linker_1, # of connection points: 2
#     Edge 131, Type (0, 0), BuildingBlock: KIFKEQ_clean_linker_1, # of connection points: 2
#     Edge 132, Type (0, 0), BuildingBlock: KIFKEQ_clean_linker_1, # of connection points: 2
#     Edge 133, Type (0, 0), BuildingBlock: KIFKEQ_clean_linker_1, # of connection points: 2
#     Edge 134, Type (0, 0), BuildingBlock: KIFKEQ_clean_linker_1, # of connection points: 2
#     Edge 135, Type (0, 0), BuildingBlock: KIFKEQ_clean_linker_1, # of connection points: 2
#     Edge 136, Type (0, 0), BuildingBlock: KIFKEQ_clean_linker_1, # of connection points: 2
#     Edge 137, Type (0, 0), BuildingBlock: KIFKEQ_clean_linker_1, # of connection points: 2
#     Edge 138, Type (0, 0), BuildingBlock: KIFKEQ_clean_linker_1, # of connection points: 2
#     Edge 139, Type (0, 0), BuildingBlock: KIFKEQ_clean_linker_1, # of connection points: 2
#     Edge 140, Type (0, 0), BuildingBlock: KIFKEQ_clean_linker_1, # of connection points: 2
#     Edge 141, Type (0, 0), BuildingBlock: KIFKEQ_clean_linker_1, # of connection points: 2
#     Edge 142, Type (0, 0), BuildingBlock: KIFKEQ_clean_linker_1, # of connection points: 2
#     Edge 143, Type (0, 0), BuildingBlock: KIFKEQ_clean_linker_1, # of connection points: 2
# Relax obj value: 0.046
# Max RMSD: 0.119
# Mean RMSD: 0.119
data_MOF--net-ull--node1-KUFVIS_clean_sbu_0--edge1-KIFKEQ_clean_linker_1
_symmetry_space_group_name_H-M    P1
_symmetry_Int_Tables_number       1
_symmetry_cell_setting            triclinic
loop_
_symmetry_equiv_pos_as_xyz
'x, y, z'
_cell_length_a     61.959252
_cell_length_b     61.968021
_cell_length_c     61.962609
_cell_angle_alpha  90.00413
_cell_angle_beta   89.985882
_cell_angle_gamma 90.009639
loop_
_atom_site_label
_atom_site_type_symbol
_atom_site_fract_x
_atom_site_fract_y
_atom_site_fract_z
_atom_type_partial_charge
Mn0 Mn 0.02987 0.33568 0.17807 0.0
Mn1 Mn 0.02946 0.28897 0.15034 0.0
C2 C 0.01579 0.30485 0.19408 0.0
C3 C 0.04891 0.35915 0.20059 0.0
C4 C 0.99777 0.32578 0.14236 0.0
O5 O 0.05002 0.34164 0.15261 0.0
O6 O 0.05218 0.30819 0.13844 0.0
C7 C 0.07217 0.27171 0.16299 0.0
N8 N 0.05038 0.2693 0.16149 0.0
C9 C 0.05231 0.23304 0.17518 0.0
C10 C 0.0748 0.23504 0.17669 0.0
C11 C 0.08476 0.25452 0.17069 0.0
C12 C 0.0406 0.25076 0.1675 0.0
H13 H 0.07984 0.28665 0.15834 0.0
C14 C 0.0579 0.32801 0.13933 0.0
O15 O 0.03304 0.36608 0.18874 0.0
O16 O 0.05388 0.33893 0.19885 0.0
N17 N 0.00842 0.26863 0.16006 0.0
C18 C 0.98649 0.26992 0.15905 0.0
C19 C 0.974 0.25203 0.16513 0.0
C20 C 0.98418 0.23294 0.17187 0.0
C21 C 0.00678 0.23201 0.17282 0.0
C22 C 0.01837 0.25036 0.16661 0.0
H23 H 0.97859 0.28444 0.15356 0.0
O24 O 0.01118 0.32385 0.20155 0.0
O25 O 0.02908 0.30444 0.17782 0.0
O26 O 0.00367 0.338 0.15788 0.0
O27 O 0.00705 0.3079 0.13789 0.0
C28 C 0.0183 0.21365 0.1797 0.0
C29 C 0.04101 0.21424 0.18113 0.0
H30 H 0.08457 0.2218 0.18259 0.0
H31 H 0.10209 0.25624 0.17193 0.0
H32 H 0.95657 0.25287 0.1644 0.0
H33 H 0.97441 0.21915 0.17623 0.0
H34 H 0.0099 0.19898 0.18397 0.0
H35 H 0.04962 0.20015 0.18686 0.0
Mn36 Mn 0.67371 0.03482 0.17622 0.0
Mn37 Mn 0.72193 0.03127 0.15135 0.0
C38 C 0.70283 0.01927 0.19415 0.0
C39 C 0.6499 0.05498 0.19739 0.0
C40 C 0.68446 0.00083 0.14219 0.0
O41 O 0.67005 0.05526 0.15051 0.0
O42 O 0.70376 0.0534 0.13726 0.0
C43 C 0.73881 0.07447 0.16279 0.0
N44 N 0.74119 0.05263 0.16234 0.0
C45 C 0.7775 0.05515 0.17575 0.0
C46 C 0.77552 0.07769 0.17627 0.0
C47 C 0.75601 0.08738 0.16994 0.0
C48 C 0.75964 0.04313 0.16893 0.0
H49 H 0.72393 0.08194 0.15764 0.0
C50 C 0.68462 0.0611 0.13717 0.0
O51 O 0.64295 0.03941 0.18516 0.0
O52 O 0.67039 0.05903 0.19681 0.0
N53 N 0.74172 0.01067 0.1629 0.0
C54 C 0.7406 0.98872 0.16228 0.0
C55 C 0.75878 0.9765 0.16805 0.0
C56 C 0.778 0.98697 0.17393 0.0
C57 C 0.77871 0.00959 0.17466 0.0
C58 C 0.76004 0.02089 0.16892 0.0
H59 H 0.72608 0.98063 0.15704 0.0
O60 O 0.68317 0.01565 0.20032 0.0
O61 O 0.705 0.03245 0.17794 0.0
O62 O 0.6712 0.0086 0.15595 0.0
O63 O 0.7034 0.00846 0.13917 0.0
C64 C 0.79725 0.02141 0.18059 0.0
C65 C 0.79652 0.04414 0.18153 0.0
H66 H 0.78885 0.08771 0.18152 0.0
H67 H 0.75434 0.10476 0.17033 0.0
H68 H 0.75812 0.95906 0.16751 0.0
H69 H 0.79213 0.97746 0.17782 0.0
H70 H 0.81212 0.01319 0.18466 0.0
H71 H 0.81073 0.05299 0.18656 0.0
Mn72 Mn 0.96735 0.67436 0.17676 0.0
Mn73 Mn 0.97053 0.7224 0.1515 0.0
C74 C 0.98347 0.70351 0.19412 0.0
C75 C 0.94748 0.65081 0.1985 0.0
C76 C 1.00015 0.68442 0.14153 0.0
O77 O 0.94631 0.67083 0.15148 0.0
O78 O 0.94717 0.7048 0.13869 0.0
C79 C 0.92851 0.74072 0.16496 0.0
N80 N 0.95037 0.7424 0.1634 0.0
C81 C 0.94973 0.77866 0.17716 0.0
C82 C 0.92718 0.77744 0.17875 0.0
C83 C 0.91655 0.75831 0.17279 0.0
C84 C 0.9608 0.7605 0.16958 0.0
H85 H 0.92031 0.7261 0.16022 0.0
C86 C 0.93963 0.68558 0.13876 0.0
O87 O 0.96272 0.64371 0.18594 0.0
O88 O 0.94354 0.67133 0.1979 0.0
N89 N 0.99231 0.74151 0.16204 0.0
C90 C 0.01416 0.73955 0.16064 0.0
C91 C 0.02728 0.75716 0.16619 0.0
C92 C 0.01779 0.77668 0.17273 0.0
C93 C 0.99525 0.77824 0.17428 0.0
C94 C 0.98303 0.76012 0.16863 0.0
H95 H 0.02151 0.72479 0.15502 0.0
O96 O 0.98709 0.6839 0.20043 0.0
O97 O 0.97 0.70558 0.17816 0.0
O98 O 0.99316 0.67154 0.15603 0.0
O99 O 0.99219 0.70317 0.13829 0.0
C100 C 0.98437 0.79709 0.18094 0.0
C101 C 0.96167 0.79718 0.18274 0.0
H102 H 0.91789 0.79103 0.18461 0.0
H103 H 0.89916 0.75719 0.17407 0.0
H104 H 0.04466 0.75584 0.16501 0.0
H105 H 0.02802 0.79035 0.17639 0.0
H106 H 0.99324 0.81164 0.18478 0.0
H107 H 0.95355 0.81163 0.18832 0.0
Mn108 Mn 0.33835 0.97312 0.17417 0.0
Mn109 Mn 0.2906 0.97756 0.14904 0.0
C110 C 0.30931 0.98852 0.19217 0.0
C111 C 0.36112 0.95205 0.19552 0.0
C112 C 0.32974 0.0054 0.13855 0.0
O113 O 0.34103 0.9527 0.14821 0.0
O114 O 0.30643 0.95259 0.13672 0.0
C115 C 0.26873 0.93755 0.16324 0.0
N116 N 0.26928 0.95948 0.16202 0.0
C117 C 0.23588 0.96252 0.1816 0.0
C118 C 0.23487 0.93995 0.18295 0.0
C119 C 0.25136 0.92742 0.17371 0.0
C120 C 0.2534 0.9717 0.17066 0.0
H121 H 0.28151 0.92789 0.15639 0.0
C122 C 0.32586 0.94543 0.1362 0.0
O123 O 0.36882 0.96744 0.18349 0.0
O124 O 0.34056 0.94858 0.19443 0.0
N125 N 0.27404 0.00119 0.15995 0.0
C126 C 0.27827 0.02275 0.15868 0.0
C127 C 0.26379 0.03752 0.16792 0.0
C128 C 0.24519 0.02998 0.17842 0.0
C129 C 0.24117 0.00773 0.17941 0.0
C130 C 0.25594 0.99379 0.16958 0.0
H131 H 0.29264 0.02867 0.15083 0.0
O132 O 0.32886 0.99212 0.19873 0.0
O133 O 0.30758 0.97609 0.17541 0.0
O134 O 0.34176 0.99945 0.1542 0.0
O135 O 0.31123 0.99715 0.13474 0.0
C136 C 0.2235 0.99886 0.19048 0.0
C137 C 0.22071 0.97628 0.19147 0.0
H138 H 0.22167 0.93209 0.19131 0.0
H139 H 0.25077 0.91 0.17482 0.0
H140 H 0.26707 0.05465 0.16713 0.0
H141 H 0.23423 0.04138 0.18588 0.0
H142 H 0.21244 0.00937 0.19883 0.0
H143 H 0.20724 0.96965 0.20039 0.0
Mn144 Mn 0.03422 0.66197 0.8255 0.0
Mn145 Mn 0.03492 0.70902 0.85256 0.0
C146 C 0.02074 0.69277 0.80899 0.0
C147 C 0.0533 0.63791 0.8036 0.0
C148 C 0.00231 0.67308 0.861 0.0
O149 O 0.05398 0.65589 0.85114 0.0
O150 O 0.05736 0.68952 0.8645 0.0
C151 C 0.07786 0.72527 0.83934 0.0
N152 N 0.05615 0.72818 0.8411 0.0
C153 C 0.05883 0.76466 0.82818 0.0
C154 C 0.08125 0.76215 0.82635 0.0
C155 C 0.09078 0.7423 0.8318 0.0
C156 C 0.04677 0.74702 0.83549 0.0
H157 H 0.08522 0.71009 0.84369 0.0
C158 C 0.06241 0.66951 0.86405 0.0
O159 O 0.0371 0.63137 0.81525 0.0
O160 O 0.05844 0.6581 0.80506 0.0
N161 N 0.01424 0.72977 0.84293 0.0
C162 C 0.99232 0.72909 0.84449 0.0
C163 C 0.98024 0.74758 0.83948 0.0
C164 C 0.99082 0.76662 0.83326 0.0
C165 C 0.0134 0.76687 0.8315 0.0
C166 C 0.02457 0.74794 0.83667 0.0
H167 H 0.98413 0.71468 0.84983 0.0
O168 O 0.01597 0.67372 0.80175 0.0
O169 O 0.034 0.69325 0.82527 0.0
O170 O 0.00776 0.66054 0.84554 0.0
O171 O 0.01221 0.69067 0.86533 0.0
C172 C 0.02531 0.78516 0.82505 0.0
C173 C 0.04796 0.78396 0.82305 0.0
H174 H 0.09128 0.7753 0.82069 0.0
H175 H 0.10806 0.7402 0.83035 0.0
H176 H 0.96282 0.74727 0.84081 0.0
H177 H 0.9814 0.78096 0.83 0.0
H178 H 0.01727 0.80025 0.8215 0.0
H179 H 0.05687 0.79799 0.81765 0.0
Mn180 Mn 0.33859 0.02754 0.81965 0.0
Mn181 Mn 0.29383 0.01755 0.84903 0.0
C182 C 0.30855 0.01187 0.8035 0.0
C183 C 0.35935 0.05035 0.79802 0.0
C184 C 0.33412 0.99005 0.85122 0.0
O185 O 0.34328 0.04623 0.84654 0.0
O186 O 0.31183 0.03956 0.86355 0.0
C187 C 0.27197 0.05981 0.84492 0.0
N188 N 0.27169 0.03796 0.84267 0.0
C189 C 0.23381 0.03811 0.83427 0.0
C190 C 0.23364 0.06064 0.83645 0.0
C191 C 0.25286 0.07155 0.8416 0.0
C192 C 0.25345 0.02737 0.83716 0.0
H193 H 0.28662 0.06815 0.8494 0.0
C194 C 0.33018 0.04898 0.86224 0.0
O195 O 0.368 0.03442 0.80852 0.0
O196 O 0.3388 0.05342 0.80067 0.0
N197 N 0.27476 0.99648 0.83714 0.0
C198 C 0.27799 0.97489 0.83463 0.0
C199 C 0.26049 0.96159 0.82915 0.0
C200 C 0.2398 0.97056 0.82686 0.0
C201 C 0.23691 0.99287 0.82945 0.0
C202 C 0.25504 0.00535 0.83444 0.0
H203 H 0.29374 0.96783 0.8371 0.0
O204 O 0.32761 0.0098 0.79508 0.0
O205 O 0.30752 0.02324 0.82111 0.0
O206 O 0.34517 1.00009 0.83709 0.0
O207 O 0.31513 0.99546 0.85692 0.0
C208 C 0.21673 0.00318 0.82768 0.0
C209 C 0.21523 0.02582 0.82967 0.0
H210 H 0.21886 0.06971 0.83426 0.0
H211 H 0.25286 0.08893 0.84335 0.0
H212 H 0.26285 0.9444 0.82718 0.0
H213 H 0.22626 0.96012 0.82329 0.0
H214 H 0.20228 0.99389 0.82448 0.0
H215 H 0.1997 0.0336 0.82774 0.0
Mn216 Mn 0.96705 0.33529 0.82574 0.0
Mn217 Mn 0.97772 0.28938 0.85304 0.0
C218 C 0.98274 0.30605 0.80812 0.0
C219 C 0.94398 0.35681 0.8051 0.0
C220 C 0.00624 0.32885 0.85524 0.0
O221 O 0.94878 0.3392 0.85299 0.0
O222 O 0.95764 0.3081 0.86927 0.0
C223 C 0.93385 0.27061 0.85038 0.0
N224 N 0.95553 0.26882 0.84724 0.0
C225 C 0.95213 0.23154 0.83708 0.0
C226 C 0.92975 0.23293 0.84022 0.0
C227 C 0.92056 0.25262 0.84674 0.0
C228 C 0.96446 0.25016 0.84044 0.0
H229 H 0.92679 0.28562 0.85574 0.0
C230 C 0.9475 0.32605 0.86879 0.0
O231 O 0.96003 0.36509 0.81574 0.0
O232 O 0.94091 0.3362 0.80712 0.0
N233 N 0.99685 0.26918 0.8398 0.0
C234 C 0.01861 0.27072 0.8371 0.0
C235 C 0.03042 0.25235 0.83113 0.0
C236 C 0.01979 0.23252 0.82845 0.0
C237 C 0.99732 0.23137 0.83103 0.0
C238 C 0.98642 0.25024 0.83689 0.0
H239 H 0.02695 0.28575 0.83993 0.0
O240 O 0.98449 0.32547 0.80054 0.0
O241 O 0.97146 0.30407 0.82574 0.0
O242 O 0.99485 0.34096 0.8431 0.0
O243 O 0.00153 0.30932 0.85971 0.0
C244 C 0.98534 0.21219 0.82839 0.0
C245 C 0.96272 0.21237 0.83101 0.0
H246 H 0.9195 0.219 0.83773 0.0
H247 H 0.90331 0.25383 0.8492 0.0
H248 H 0.04774 0.25334 0.8291 0.0
H249 H 0.02907 0.21825 0.82455 0.0
H250 H 0.99332 0.19722 0.8242 0.0
H251 H 0.95367 0.19761 0.82857 0.0
Mn252 Mn 0.66583 0.96819 0.82159 0.0
Mn253 Mn 0.71255 0.96879 0.84926 0.0
C254 C 0.69664 0.98237 0.80565 0.0
C255 C 0.64256 0.94912 0.79888 0.0
C256 C 0.67574 1.00047 0.85719 0.0
O257 O 0.65993 0.94782 0.84689 0.0
O258 O 0.6933 0.94615 0.86123 0.0
C259 C 0.72971 0.92601 0.8367 0.0
N260 N 0.73217 0.9478 0.83817 0.0
C261 C 0.76855 0.94573 0.8248 0.0
C262 C 0.76652 0.92324 0.82336 0.0
C263 C 0.74695 0.91335 0.82919 0.0
C264 C 0.75076 0.95751 0.8322 0.0
H265 H 0.71471 0.91839 0.84122 0.0
C266 C 0.67357 0.9401 0.86025 0.0
O267 O 0.63548 0.96489 0.81077 0.0
O268 O 0.66279 0.94424 0.80071 0.0
N269 N 0.73292 0.98976 0.83942 0.0
C270 C 0.73169 0.01169 0.84036 0.0
C271 C 0.74967 0.02411 0.83437 0.0
C272 C 0.76881 0.01386 0.82785 0.0
C273 C 0.76968 0.99125 0.827 0.0
C274 C 0.7512 0.97974 0.833 0.0
H275 H 0.71716 0.01964 0.84574 0.0
O276 O 0.67764 0.98701 0.7982 0.0
O277 O 0.69705 0.96905 0.82186 0.0
O278 O 0.6634 0.99437 0.84183 0.0
O279 O 0.69368 0.99129 0.86161 0.0
C280 C 0.78814 0.97966 0.82053 0.0
C281 C 0.78749 0.95695 0.81913 0.0
H282 H 0.77981 0.91341 0.81767 0.0
H283 H 0.7452 0.89602 0.82799 0.0
H284 H 0.74887 0.04154 0.83504 0.0
H285 H 0.7827 0.02354 0.82358 0.0
H286 H 0.80293 0.988 0.81653 0.0
H287 H 0.80166 0.94827 0.81367 0.0
Mn288 Mn 0.17751 0.03703 0.33103 0.0
Mn289 Mn 0.14875 0.02709 0.28601 0.0
C290 C 0.19401 0.02049 0.30163 0.0
C291 C 0.19889 0.06023 0.35171 0.0
C292 C 0.14461 0.0009 0.32723 0.0
O293 O 0.15053 0.05593 0.33485 0.0
O294 O 0.13562 0.05139 0.30197 0.0
C295 C 0.15647 0.06731 0.26141 0.0
N296 N 0.15706 0.04539 0.26269 0.0
C297 C 0.16646 0.04228 0.22517 0.0
C298 C 0.16586 0.06483 0.22337 0.0
C299 C 0.16106 0.07741 0.24164 0.0
C300 C 0.16225 0.03318 0.2454 0.0
H301 H 0.15242 0.07697 0.27535 0.0
C302 C 0.13643 0.06052 0.32049 0.0
O303 O 0.18818 0.04449 0.36048 0.0
O304 O 0.19658 0.06291 0.33107 0.0
N305 N 0.15978 0.00397 0.26884 0.0
C306 C 0.16134 0.98261 0.27376 0.0
C307 C 0.167 0.96784 0.25753 0.0
C308 C 0.17044 0.97513 0.23634 0.0
C309 C 0.16871 0.99722 0.23169 0.0
C310 C 0.16359 0.01122 0.24864 0.0
H311 H 0.1581 0.97686 0.28989 0.0
O312 O 0.20223 0.01896 0.32083 0.0
O313 O 0.17657 0.03203 0.30012 0.0
O314 O 0.16002 0.00971 0.3376 0.0
O315 O 0.1386 0.00697 0.30852 0.0
C316 C 0.17163 0.00589 0.2109 0.0
C317 C 0.17088 0.02843 0.20769 0.0
H318 H 0.16911 0.07266 0.20808 0.0
H319 H 0.16062 0.09483 0.2404 0.0
H320 H 0.16831 0.95083 0.26125 0.0
H321 H 0.17441 0.96364 0.22378 0.0
H322 H 0.17486 0.9954 0.1973 0.0
H323 H 0.17378 0.03494 0.19172 0.0
Mn324 Mn 0.96606 0.17787 0.33835 0.0
Mn325 Mn 0.96514 0.15177 0.29072 0.0
C326 C 0.97704 0.19584 0.30736 0.0
C327 C 0.94695 0.1979 0.36381 0.0
C328 C 0.99938 0.14446 0.32536 0.0
O329 O 0.94819 0.15081 0.34455 0.0
O330 O 0.94403 0.1382 0.31065 0.0
C331 C 0.92106 0.16281 0.27609 0.0
N332 N 0.94275 0.16259 0.27256 0.0
C333 C 0.93835 0.1787 0.23755 0.0
C334 C 0.91593 0.1789 0.24068 0.0
C335 C 0.90726 0.17098 0.26008 0.0
C336 C 0.95128 0.17026 0.25403 0.0
H337 H 0.91436 0.15684 0.29102 0.0
C338 C 0.93983 0.13788 0.33087 0.0
O339 O 0.96428 0.18739 0.3692 0.0
O340 O 0.94067 0.19645 0.34394 0.0
N341 N 0.98466 0.16323 0.26976 0.0
C342 C 0.00666 0.16331 0.26994 0.0
C343 C 0.01791 0.17162 0.25211 0.0
C344 C 0.00646 0.17951 0.23423 0.0
C345 C 0.98383 0.179 0.23432 0.0
C346 C 0.97349 0.17049 0.2525 0.0
H347 H 0.01555 0.15722 0.28361 0.0
O348 O 0.98218 0.20311 0.32629 0.0
O349 O 0.96494 0.17867 0.30716 0.0
O350 O 0.99373 0.15958 0.3382 0.0
O351 O 0.98904 0.13981 0.30811 0.0
C352 C 0.97109 0.18701 0.21729 0.0
C353 C 0.9484 0.18695 0.21891 0.0
H354 H 0.90525 0.1853 0.22841 0.0
H355 H 0.88999 0.17122 0.2627 0.0
H356 H 0.03537 0.17197 0.25217 0.0
H357 H 0.01523 0.18607 0.22063 0.0
H358 H 0.97858 0.19352 0.20302 0.0
H359 H 0.93884 0.19353 0.20583 0.0
Mn360 Mn 0.82595 0.96613 0.34182 0.0
Mn361 Mn 0.85019 0.97257 0.29354 0.0
C362 C 0.80665 0.9805 0.31306 0.0
C363 C 0.80623 0.94429 0.36537 0.0
C364 C 0.858 0.00208 0.33193 0.0
O365 O 0.85326 0.94745 0.34452 0.0
O366 O 0.8655 0.95022 0.31038 0.0
C367 C 0.84029 0.92982 0.27473 0.0
N368 N 0.83934 0.95175 0.27359 0.0
C369 C 0.81958 0.95022 0.24025 0.0
C370 C 0.82059 0.92763 0.2409 0.0
C371 C 0.83099 0.91738 0.25823 0.0
C372 C 0.82946 0.96178 0.25697 0.0
H373 H 0.84794 0.92187 0.28821 0.0
C374 C 0.86639 0.94228 0.32944 0.0
O375 O 0.81754 0.96044 0.37253 0.0
O376 O 0.80719 0.94044 0.34484 0.0
N377 N 0.83678 0.99366 0.27548 0.0
C378 C 0.83608 0.01551 0.27793 0.0
C379 C 0.82567 0.02815 0.26227 0.0
C380 C 0.81606 0.01819 0.24432 0.0
C381 C 0.8172 0.9957 0.24208 0.0
C382 C 0.82823 0.98399 0.2579 0.0
H383 H 0.84326 0.02322 0.29181 0.0
O384 O 0.80017 0.98352 0.33272 0.0
O385 O 0.82406 0.96901 0.31088 0.0
O386 O 0.84408 0.99373 0.34462 0.0
O387 O 0.86204 0.99491 0.313 0.0
C388 C 0.80705 0.98437 0.22526 0.0
C389 C 0.80838 0.96169 0.22417 0.0
H390 H 0.81313 0.91798 0.22836 0.0
H391 H 0.83165 0.89995 0.25897 0.0
H392 H 0.82483 0.04549 0.26415 0.0
H393 H 0.80764 0.02793 0.23249 0.0
H394 H 0.79737 0.99291 0.21369 0.0
H395 H 0.80016 0.9532 0.21129 0.0
Mn396 Mn 0.03807 0.82545 0.34179 0.0
Mn397 Mn 0.03643 0.85108 0.29393 0.0
C398 C 0.02491 0.80745 0.31173 0.0
C399 C 0.05852 0.8046 0.36563 0.0
C400 C 0.00436 0.85928 0.33044 0.0
O401 O 0.05695 0.85209 0.34663 0.0
O402 O 0.05853 0.8649 0.31259 0.0
C403 C 0.07972 0.83939 0.27754 0.0
N404 N 0.0579 0.83968 0.27499 0.0
C405 C 0.06055 0.8212 0.24098 0.0
C406 C 0.08308 0.82096 0.24308 0.0
C407 C 0.0927 0.83008 0.26147 0.0
C408 C 0.04846 0.831 0.25737 0.0
H409 H 0.08715 0.84607 0.2918 0.0
C410 C 0.06425 0.86512 0.33244 0.0
O411 O 0.04212 0.81578 0.37249 0.0
O412 O 0.06318 0.80616 0.34535 0.0
N413 N 0.01587 0.83929 0.27416 0.0
C414 C 0.9939 0.83954 0.27529 0.0
C415 C 0.98178 0.83025 0.25854 0.0
C416 C 0.99236 0.82087 0.24083 0.0
C417 C 0.01498 0.8211 0.23992 0.0
C418 C 0.0262 0.8309 0.25688 0.0
H419 H 0.98569 0.84658 0.28895 0.0
O420 O 0.02059 0.8005 0.33098 0.0
O421 O 0.03719 0.82444 0.31071 0.0
O422 O 0.01085 0.84451 0.34333 0.0
O423 O 0.01348 0.86337 0.31234 0.0
C424 C 0.02685 0.81127 0.22326 0.0
C425 C 0.04959 0.81141 0.22366 0.0
H426 H 0.09312 0.81354 0.23085 0.0
H427 H 0.11007 0.82977 0.26333 0.0
H428 H 0.96434 0.83013 0.25939 0.0
H429 H 0.98298 0.81333 0.22816 0.0
H430 H 0.01863 0.8029 0.21047 0.0
H431 H 0.05846 0.80344 0.21087 0.0
Mn432 Mn 0.17606 0.97045 0.66181 0.0
Mn433 Mn 0.1528 0.97675 0.71031 0.0
C434 C 0.19556 0.98572 0.69001 0.0
C435 C 0.19614 0.94846 0.63873 0.0
C436 C 0.14182 0.00402 0.67096 0.0
O437 O 0.14935 0.95077 0.66047 0.0
O438 O 0.1392 0.95189 0.6955 0.0
C439 C 0.16654 0.93679 0.73253 0.0
N440 N 0.16593 0.95874 0.73157 0.0
C441 C 0.18665 0.96187 0.76423 0.0
C442 C 0.18735 0.9393 0.76569 0.0
C443 C 0.17724 0.92671 0.74977 0.0
C444 C 0.17545 0.97101 0.74688 0.0
H445 H 0.15902 0.92708 0.72017 0.0
C446 C 0.13773 0.94425 0.6763 0.0
O447 O 0.18426 0.96401 0.63115 0.0
O448 O 0.19551 0.94528 0.65936 0.0
N449 N 0.16505 1.00038 0.72592 0.0
C450 C 0.16434 0.02187 0.72125 0.0
C451 C 0.17447 0.03664 0.73511 0.0
C452 C 0.18527 0.02918 0.75356 0.0
C453 C 0.1857 0.00701 0.75804 0.0
C454 C 0.175 0.99307 0.74387 0.0
H455 H 0.15623 0.02772 0.707 0.0
O456 O 0.20156 0.98882 0.6702 0.0
O457 O 0.17845 0.97395 0.69245 0.0
O458 O 0.15684 0.99733 0.65854 0.0
O459 O 0.13841 0.99632 0.68977 0.0
C460 C 0.19699 0.99817 0.77559 0.0
C461 C 0.19738 0.97563 0.77877 0.0
H462 H 0.19589 0.93147 0.77879 0.0
H463 H 0.17786 0.90928 0.75069 0.0
H464 H 0.17411 0.05372 0.73148 0.0
H465 H 0.1934 0.04058 0.76404 0.0
H466 H 0.20594 0.00862 0.78626 0.0
H467 H 0.20649 0.96898 0.79205 0.0
Mn468 Mn 0.0279 0.17671 0.66344 0.0
Mn469 Mn 0.02586 0.15456 0.71302 0.0
C470 C 0.01435 0.19654 0.69226 0.0
C471 C 0.04769 0.19656 0.63828 0.0
C472 C 0.99423 0.14342 0.6771 0.0
O473 O 0.04785 0.1505 0.66061 0.0
O474 O 0.04744 0.13917 0.69513 0.0
C475 C 0.06953 0.16662 0.72809 0.0
N476 N 0.04772 0.16704 0.73078 0.0
C477 C 0.05099 0.18864 0.76283 0.0
C478 C 0.0735 0.18829 0.76053 0.0
C479 C 0.08281 0.17721 0.74308 0.0
C480 C 0.03859 0.1775 0.74757 0.0
H481 H 0.07674 0.15837 0.71453 0.0
C482 C 0.05428 0.13796 0.67566 0.0
O483 O 0.03174 0.18435 0.63216 0.0
O484 O 0.05232 0.19655 0.65863 0.0
N485 N 0.0057 0.16805 0.73204 0.0
C486 C 0.98372 0.16773 0.73134 0.0
C487 C 0.9719 0.17845 0.74743 0.0
C488 C 0.9828 0.18941 0.76401 0.0
C489 C 0.00543 0.18927 0.76446 0.0
C490 C 0.01634 0.1779 0.74833 0.0
H491 H 0.97526 0.15951 0.71851 0.0
O492 O 0.00962 0.20187 0.6726 0.0
O493 O 0.02688 0.17987 0.69437 0.0
O494 O 0.00135 0.15664 0.66292 0.0
O495 O 0.00264 0.14131 0.69583 0.0
C496 C 0.01759 0.2007 0.77982 0.0
C497 C 0.04033 0.20029 0.77916 0.0
H498 H 0.08377 0.19672 0.7719 0.0
H499 H 0.10016 0.177 0.7411 0.0
H500 H 0.95444 0.17849 0.74693 0.0
H501 H 0.97367 0.19804 0.77616 0.0
H502 H 0.00951 0.21056 0.79158 0.0
H503 H 0.04946 0.20947 0.79089 0.0
Mn504 Mn 0.82292 0.02807 0.65972 0.0
Mn505 Mn 0.84985 0.0199 0.70641 0.0
C506 C 0.80473 0.01591 0.69005 0.0
C507 C 0.80317 0.05023 0.63663 0.0
C508 C 0.85046 0.98804 0.66964 0.0
O509 O 0.85081 0.0448 0.65447 0.0
O510 O 0.86747 0.03696 0.68581 0.0
C511 C 0.85005 0.0655 0.7207 0.0
N512 N 0.84512 0.04441 0.72451 0.0
C513 C 0.83028 0.05305 0.75932 0.0
C514 C 0.83533 0.07483 0.75585 0.0
C515 C 0.84523 0.08108 0.73643 0.0
C516 C 0.83556 0.03823 0.7431 0.0
H517 H 0.85755 0.07041 0.70576 0.0
C518 C 0.86699 0.04581 0.66714 0.0
O519 O 0.81278 0.03301 0.62951 0.0
O520 O 0.8057 0.05492 0.65686 0.0
N521 N 0.83504 0.00378 0.72814 0.0
C522 C 0.83082 0.98221 0.72876 0.0
C523 C 0.82058 0.97338 0.74694 0.0
C524 C 0.81508 0.98676 0.76438 0.0
C525 C 0.82014 0.00881 0.76362 0.0
C526 C 0.83047 0.01666 0.74513 0.0
H527 H 0.83503 0.97187 0.7154 0.0
O528 O 0.79693 0.01271 0.67092 0.0
O529 O 0.82296 0.02633 0.69102 0.0
O530 O 0.83921 0.99918 0.65643 0.0
O531 O 0.85494 0.99395 0.68885 0.0
C532 C 0.81489 0.02342 0.78022 0.0
C533 C 0.81992 0.0455 0.77809 0.0
H534 H 0.83154 0.08691 0.76791 0.0
H535 H 0.84908 0.09788 0.73358 0.0
H536 H 0.81681 0.95634 0.74745 0.0
H537 H 0.80687 0.97991 0.77815 0.0
H538 H 0.80673 0.01792 0.79457 0.0
H539 H 0.81558 0.05657 0.7909 0.0
Mn540 Mn 0.97034 0.82082 0.66537 0.0
Mn541 Mn 0.97199 0.84441 0.71433 0.0
C542 C 0.98429 0.80202 0.69462 0.0
C543 C 0.95058 0.80019 0.64072 0.0
C544 C 0.00339 0.85503 0.67798 0.0
O545 O 0.95006 0.84667 0.66196 0.0
O546 O 0.94969 0.8586 0.69631 0.0
C547 C 0.92888 0.83162 0.73043 0.0
N548 N 0.95072 0.83202 0.73287 0.0
C549 C 0.94841 0.81245 0.7663 0.0
C550 C 0.92587 0.81205 0.76429 0.0
C551 C 0.91607 0.82166 0.74625 0.0
C552 C 0.96032 0.82289 0.75018 0.0
H553 H 0.9213 0.83873 0.71644 0.0
C554 C 0.943 0.85918 0.67676 0.0
O555 O 0.96643 0.81236 0.63428 0.0
O556 O 0.94607 0.8006 0.6611 0.0
N557 N 0.99275 0.83207 0.73353 0.0
C558 C 0.0147 0.83246 0.73223 0.0
C559 C 0.02699 0.82267 0.74856 0.0
C560 C 0.0166 0.81265 0.76603 0.0
C561 C 0.99399 0.81271 0.76711 0.0
C562 C 0.98259 0.82299 0.75056 0.0
H563 H 0.02277 0.83999 0.71875 0.0
O564 O 0.98892 0.79616 0.67508 0.0
O565 O 0.97147 0.81853 0.6964 0.0
O566 O 0.99677 0.84104 0.66431 0.0
O567 O 0.99467 0.85778 0.69649 0.0
C568 C 0.9823 0.80228 0.78353 0.0
C569 C 0.95955 0.80223 0.78325 0.0
H570 H 0.91596 0.80414 0.77632 0.0
H571 H 0.8987 0.82124 0.74447 0.0
H572 H 0.04443 0.82267 0.74758 0.0
H573 H 0.02612 0.80476 0.77838 0.0
H574 H 0.99068 0.79363 0.79603 0.0
H575 H 0.95082 0.7938 0.79583 0.0
Mn576 Mn 0.34054 0.17855 0.02428 0.0
Mn577 Mn 0.29325 0.15348 0.01503 0.0
C578 C 0.3118 0.19755 0.00944 0.0
C579 C 0.36267 0.19835 0.0474 0.0
C580 C 0.33361 0.14632 0.98813 0.0
O581 O 0.34261 0.15099 0.04268 0.0
O582 O 0.30856 0.13854 0.03877 0.0
C583 C 0.27017 0.16266 0.05581 0.0
N584 N 0.27128 0.16399 0.0339 0.0
C585 C 0.2376 0.18321 0.03226 0.0
C586 C 0.23601 0.18194 0.0548 0.0
C587 C 0.25236 0.1716 0.06662 0.0
C588 C 0.25555 0.17372 0.02235 0.0
H589 H 0.28283 0.15492 0.06496 0.0
C590 C 0.32739 0.13777 0.04736 0.0
O591 O 0.37074 0.1874 0.03144 0.0
O592 O 0.34201 0.19695 0.05038 0.0
N593 N 0.27714 0.16686 0.99238 0.0
C594 C 0.2819 0.1681 0.97094 0.0
C595 C 0.26754 0.17862 0.95693 0.0
C596 C 0.24852 0.1878 0.96512 0.0
C597 C 0.24396 0.18623 0.98723 0.0
C598 C 0.25865 0.17522 1.00035 0.0
H599 H 0.29659 0.16125 0.96458 0.0
O600 O 0.33139 0.20452 0.00703 0.0
O601 O 0.30983 0.17971 0.0202 0.0
O602 O 0.34533 0.16092 0.99665 0.0
O603 O 0.31458 0.14171 0.99451 0.0
C604 C 0.22582 0.19584 0.99684 0.0
C605 C 0.22254 0.19427 0.01932 0.0
H606 H 0.22246 0.1891 0.06322 0.0
H607 H 0.25133 0.17067 0.08403 0.0
H608 H 0.27124 0.17983 0.9399 0.0
H609 H 0.23765 0.19626 0.95434 0.0
H610 H 0.21476 0.20507 0.98707 0.0
H611 H 0.20875 0.20215 0.0266 0.0
Mn612 Mn 0.3349 0.82251 0.96928 0.0
Mn613 Mn 0.28869 0.85064 0.97485 0.0
C614 C 0.30483 0.80614 0.98456 0.0
C615 C 0.35711 0.80072 0.94792 0.0
C616 C 0.32748 0.85644 0.00421 0.0
O617 O 0.33969 0.84859 0.94965 0.0
O618 O 0.30701 0.86425 0.95249 0.0
C619 C 0.26885 0.84216 0.93225 0.0
N620 N 0.26772 0.84167 0.95418 0.0
C621 C 0.2303 0.83143 0.95324 0.0
C622 C 0.23101 0.83178 0.93062 0.0
C623 C 0.25043 0.83698 0.92008 0.0
C624 C 0.24931 0.83613 0.96447 0.0
H625 H 0.28363 0.84666 0.92417 0.0
C626 C 0.32613 0.86328 0.94472 0.0
O627 O 0.36492 0.81191 0.96385 0.0
O628 O 0.33661 0.80258 0.94422 0.0
N629 N 0.26925 0.83965 0.99607 0.0
C630 C 0.27163 0.8391 0.01791 0.0
C631 C 0.25383 0.83392 0.03092 0.0
C632 C 0.23367 0.8299 0.02136 0.0
C633 C 0.23165 0.83048 0.99882 0.0
C634 C 0.25006 0.83528 0.98668 0.0
H635 H 0.28693 0.84291 0.02536 0.0
O636 O 0.32404 0.79843 0.9877 0.0
O637 O 0.30369 0.823 0.97211 0.0
O638 O 0.33936 0.84157 0.99627 0.0
O639 O 0.30879 0.8611 0.99697 0.0
C640 C 0.21204 0.82689 0.9879 0.0
C641 C 0.21144 0.82694 0.96512 0.0
H642 H 0.21675 0.82815 0.92118 0.0
H643 H 0.2511 0.83732 0.90263 0.0
H644 H 0.25551 0.83351 0.0483 0.0
H645 H 0.21986 0.82659 0.03152 0.0
H646 H 0.19736 0.82375 0.99686 0.0
H647 H 0.19636 0.82362 0.95692 0.0
Mn648 Mn 0.17624 0.33516 0.97081 0.0
Mn649 Mn 0.14797 0.28917 0.97656 0.0
C650 C 0.19277 0.30499 0.98573 0.0
C651 C 0.19791 0.35738 0.94944 0.0
C652 C 0.14236 0.3284 0.00552 0.0
O653 O 0.14977 0.33991 0.95152 0.0
O654 O 0.13525 0.30656 0.95293 0.0
C655 C 0.15764 0.26771 0.93497 0.0
N656 N 0.1574 0.26739 0.95694 0.0
C657 C 0.16801 0.23008 0.95766 0.0
C658 C 0.16818 0.22991 0.93502 0.0
C659 C 0.16319 0.24888 0.92364 0.0
C660 C 0.1628 0.24943 0.96805 0.0
H661 H 0.15358 0.28221 0.92622 0.0
C662 C 0.13607 0.32577 0.94535 0.0
O663 O 0.18681 0.36517 0.96543 0.0
O664 O 0.19584 0.33693 0.94554 0.0
N665 N 0.15869 0.27062 0.99876 0.0
C666 C 0.15954 0.27405 0.02046 0.0
C667 C 0.16543 0.25701 0.03419 0.0
C668 C 0.16987 0.23654 0.02551 0.0
C669 C 0.16884 0.23342 0.00311 0.0
C670 C 0.16342 0.25113 0.99022 0.0
H671 H 0.15561 0.2896 0.02725 0.0
O672 O 0.2006 0.32416 0.98883 0.0
O673 O 0.17566 0.30403 0.97363 0.0
O674 O 0.15789 0.33958 0.99799 0.0
O675 O 0.13679 0.31009 0.99791 0.0
C676 C 0.17281 0.21343 0.99307 0.0
C677 C 0.1727 0.21182 0.97034 0.0
H678 H 0.17222 0.21535 0.92623 0.0
H679 H 0.1634 0.24892 0.90617 0.0
H680 H 0.1662 0.25955 0.05145 0.0
H681 H 0.17407 0.22335 0.03618 0.0
H682 H 0.17636 0.19925 0.00264 0.0
H683 H 0.1764 0.19648 0.9628 0.0
Mn684 Mn 0.66783 0.17685 0.96568 0.0
Mn685 Mn 0.7164 0.1526 0.96833 0.0
C686 C 0.6969 0.19515 0.98091 0.0
C687 C 0.64363 0.19772 0.94564 0.0
C688 C 0.67946 0.14284 0.99928 0.0
O689 O 0.66421 0.15103 0.94536 0.0
O690 O 0.69828 0.13866 0.94609 0.0
C691 C 0.73293 0.16489 0.92523 0.0
N692 N 0.73543 0.16411 0.94704 0.0
C693 C 0.77171 0.17763 0.94453 0.0
C694 C 0.7696 0.17853 0.92201 0.0
C695 C 0.75005 0.1723 0.91234 0.0
C696 C 0.75393 0.17059 0.95655 0.0
H697 H 0.71803 0.1598 0.91775 0.0
C698 C 0.67896 0.13819 0.93891 0.0
O699 O 0.63691 0.1855 0.96133 0.0
O700 O 0.66408 0.19728 0.94142 0.0
N701 N 0.73619 0.16402 0.98901 0.0
C702 C 0.7352 0.16302 0.01095 0.0
C703 C 0.75346 0.16856 0.02316 0.0
C704 C 0.77263 0.17459 0.01267 0.0
C705 C 0.77319 0.17573 0.99006 0.0
C706 C 0.75445 0.17022 0.97878 0.0
H707 H 0.72073 0.15764 0.01904 0.0
O708 O 0.6772 0.20111 0.98466 0.0
O709 O 0.69913 0.17898 0.96768 0.0
O710 O 0.66597 0.15669 0.99209 0.0
O711 O 0.69815 0.13989 0.99106 0.0
C712 C 0.79165 0.18192 0.97825 0.0
C713 C 0.79078 0.18327 0.95554 0.0
H714 H 0.78286 0.18397 0.91201 0.0
H715 H 0.74827 0.17297 0.89497 0.0
H716 H 0.75291 0.16772 0.04059 0.0
H717 H 0.78682 0.17833 0.02215 0.0
H718 H 0.80653 0.18597 0.98648 0.0
H719 H 0.80493 0.18851 0.94669 0.0
Mn720 Mn 0.82375 0.66798 0.96731 0.0
Mn721 Mn 0.84509 0.71791 0.96936 0.0
C722 C 0.80269 0.69671 0.97915 0.0
C723 C 0.80607 0.64169 0.94702 0.0
C724 C 0.855 0.68275 0.00225 0.0
O725 O 0.8514 0.6652 0.94929 0.0
O726 O 0.86132 0.70014 0.94834 0.0
C727 C 0.83413 0.73275 0.92533 0.0
N728 N 0.83311 0.73551 0.94711 0.0
C729 C 0.81183 0.76771 0.94316 0.0
C730 C 0.81279 0.76534 0.92068 0.0
C731 C 0.82399 0.74777 0.91173 0.0
C732 C 0.82246 0.75237 0.9559 0.0
H733 H 0.84253 0.71914 0.91841 0.0
C734 C 0.86355 0.68044 0.94252 0.0
O735 O 0.81703 0.63652 0.96414 0.0
O736 O 0.80587 0.66184 0.94152 0.0
N737 N 0.83089 0.73689 0.98908 0.0
C738 C 0.8307 0.73633 0.01107 0.0
C739 C 0.81985 0.75259 0.02255 0.0
C740 C 0.80935 0.76921 0.0113 0.0
C741 C 0.81005 0.76954 0.98868 0.0
C742 C 0.82146 0.7532 0.97813 0.0
H743 H 0.83865 0.72353 0.01981 0.0
O744 O 0.79724 0.67702 0.98362 0.0
O745 O 0.82002 0.69893 0.96753 0.0
O746 O 0.84177 0.66854 0.99525 0.0
O747 O 0.85785 0.70102 0.99308 0.0
C748 C 0.79922 0.78505 0.97618 0.0
C749 C 0.80017 0.78427 0.95346 0.0
H750 H 0.80478 0.77676 0.91014 0.0
H751 H 0.82469 0.74574 0.89439 0.0
H752 H 0.81941 0.75219 0.04 0.0
H753 H 0.80066 0.78152 0.02016 0.0
H754 H 0.78951 0.79711 0.98398 0.0
H755 H 0.79147 0.79617 0.94407 0.0
Mn756 Mn 0.66251 0.8262 0.03193 0.0
Mn757 Mn 0.70704 0.85553 0.02059 0.0
C758 C 0.69213 0.80983 0.01578 0.0
C759 C 0.64202 0.80512 0.05557 0.0
C760 C 0.66712 0.85609 0.99272 0.0
O761 O 0.65778 0.85335 0.05009 0.0
O762 O 0.68809 0.87118 0.04099 0.0
C763 C 0.7268 0.85334 0.06402 0.0
N764 N 0.72823 0.85029 0.04231 0.0
C765 C 0.76574 0.84072 0.04495 0.0
C766 C 0.76472 0.84378 0.06735 0.0
C767 C 0.74511 0.84996 0.07695 0.0
C768 C 0.74684 0.84384 0.03299 0.0
H769 H 0.71183 0.8584 0.07138 0.0
C770 C 0.67019 0.86973 0.05113 0.0
O771 O 0.6332 0.8152 0.03946 0.0
O772 O 0.66261 0.80777 0.05827 0.0
N773 N 0.72724 0.84304 0.00097 0.0
C774 C 0.72531 0.84044 0.97922 0.0
C775 C 0.74355 0.83484 0.96703 0.0
C776 C 0.76361 0.83238 0.97726 0.0
C777 C 0.76515 0.83482 0.99973 0.0
C778 C 0.74641 0.84038 0.01102 0.0
H779 H 0.71006 0.84304 0.97119 0.0
O780 O 0.67305 0.80132 0.01452 0.0
O781 O 0.69356 0.82757 0.02699 0.0
O782 O 0.65585 0.84307 0.00402 0.0
O783 O 0.68638 0.86167 0.99732 0.0
C784 C 0.78458 0.83238 0.01134 0.0
C785 C 0.78479 0.83494 0.03397 0.0
H786 H 0.77888 0.84147 0.07733 0.0
H787 H 0.74418 0.85236 0.09423 0.0
H788 H 0.74226 0.83292 0.94972 0.0
H789 H 0.77774 0.82881 0.96763 0.0
H790 H 0.79948 0.8285 0.00307 0.0
H791 H 0.79975 0.8327 0.04273 0.0
Mn792 Mn 0.1774 0.66217 0.03405 0.0
Mn793 Mn 0.15275 0.7089 0.02191 0.0
C794 C 0.1969 0.68985 0.01793 0.0
C795 C 0.1963 0.64092 0.05872 0.0
C796 C 0.14558 0.66711 0.99741 0.0
O797 O 0.14927 0.66131 0.05178 0.0
O798 O 0.13806 0.6957 0.047 0.0
C799 C 0.16283 0.73505 0.06057 0.0
N800 N 0.16372 0.73221 0.0388 0.0
C801 C 0.18294 0.7656 0.03411 0.0
C802 C 0.18207 0.769 0.05647 0.0
C803 C 0.17198 0.75364 0.06975 0.0
C804 C 0.17329 0.74692 0.02585 0.0
H805 H 0.15533 0.72314 0.07085 0.0
C806 C 0.13672 0.67718 0.05614 0.0
O807 O 0.18561 0.6323 0.04287 0.0
O808 O 0.19513 0.66171 0.06074 0.0
N809 N 0.166 0.72298 0.99785 0.0
C810 C 0.16696 0.71649 0.97685 0.0
C811 C 0.17733 0.7296 0.96157 0.0
C812 C 0.18664 0.74921 0.96804 0.0
C813 C 0.18535 0.75556 0.98971 0.0
C814 C 0.1745 0.74202 0.00416 0.0
H815 H 0.15997 0.70138 0.97176 0.0
O816 O 0.2039 0.67014 0.017 0.0
O817 O 0.1789 0.69256 0.02825 0.0
O818 O 0.16066 0.65624 0.00616 0.0
O819 O 0.14043 0.68618 0.00324 0.0
C820 C 0.19507 0.77443 0.99766 0.0
C821 C 0.19378 0.77953 0.01981 0.0
H822 H 0.18938 0.78317 0.06363 0.0
H823 H 0.1714 0.75606 0.08704 0.0
H824 H 0.1783 0.72453 0.94489 0.0
H825 H 0.19496 0.75914 0.95629 0.0
H826 H 0.20413 0.78468 0.98687 0.0
H827 H 0.20169 0.79386 0.0258 0.0
Mn828 Mn 0.82109 0.34232 0.03382 0.0
Mn829 Mn 0.84357 0.29319 0.02825 0.0
C830 C 0.80072 0.3141 0.01988 0.0
C831 C 0.80284 0.36673 0.05578 0.0
C832 C 0.85328 0.33119 0.99871 0.0
O833 O 0.84862 0.34424 0.05224 0.0
O834 O 0.85886 0.30935 0.05109 0.0
C835 C 0.83202 0.27437 0.07057 0.0
N836 N 0.83153 0.27347 0.04861 0.0
C837 C 0.81083 0.24068 0.04935 0.0
C838 C 0.81131 0.2411 0.07197 0.0
C839 C 0.82197 0.25803 0.08262 0.0
C840 C 0.82144 0.25721 0.03819 0.0
H841 H 0.83991 0.28754 0.07882 0.0
C842 C 0.8607 0.32862 0.0583 0.0
O843 O 0.8138 0.37331 0.03916 0.0
O844 O 0.80296 0.34623 0.05987 0.0
N845 N 0.83005 0.2758 0.00667 0.0
C846 C 0.8299 0.2785 0.98484 0.0
C847 C 0.81933 0.26327 0.97181 0.0
C848 C 0.80899 0.2455 0.98135 0.0
C849 C 0.80955 0.24302 0.00384 0.0
C850 C 0.82076 0.25839 0.01596 0.0
H851 H 0.83766 0.29223 0.97744 0.0
O852 O 0.79484 0.33393 0.01676 0.0
O853 O 0.81809 0.31147 0.03131 0.0
O854 O 0.83919 0.34425 0.00612 0.0
O855 O 0.85674 0.31239 0.00646 0.0
C856 C 0.79862 0.22641 0.01477 0.0
C857 C 0.79941 0.22505 0.03746 0.0
H858 H 0.80327 0.2287 0.08131 0.0
H859 H 0.82225 0.25859 0.10008 0.0
H860 H 0.81894 0.26535 0.95447 0.0
H861 H 0.80046 0.23402 0.9713 0.0
H862 H 0.78871 0.21529 0.0059 0.0
H863 H 0.79058 0.21238 0.04564 0.0
Mn864 Mn 0.53013 0.8355 0.67834 0.0
Mn865 Mn 0.52429 0.78611 0.65675 0.0
C866 C 0.51574 0.80772 0.69908 0.0
C867 C 0.55226 0.8597 0.69692 0.0
C868 C 0.49575 0.82447 0.64534 0.0
O869 O 0.54912 0.83643 0.65116 0.0
O870 O 0.54821 0.80122 0.64181 0.0
C871 C 0.56538 0.76559 0.66979 0.0
N872 N 0.5434 0.76584 0.66988 0.0
C873 C 0.542 0.73371 0.69161 0.0
C874 C 0.56462 0.73301 0.69164 0.0
C875 C 0.57635 0.74901 0.68067 0.0
C876 C 0.53194 0.75042 0.68021 0.0
H877 H 0.57443 0.77801 0.66158 0.0
C878 C 0.55545 0.8205 0.6396 0.0
O879 O 0.5362 0.86654 0.68527 0.0
O880 O 0.55573 0.83911 0.69705 0.0
N881 N 0.50158 0.77008 0.67012 0.0
C882 C 0.47991 0.77392 0.66976 0.0
C883 C 0.4659 0.7598 0.68061 0.0
C884 C 0.47431 0.74196 0.69176 0.0
C885 C 0.49665 0.73833 0.69176 0.0
C886 C 0.50978 0.75266 0.6803 0.0
H887 H 0.47335 0.7877 0.6614 0.0
O888 O 0.51249 0.82766 0.70449 0.0
O889 O 0.52725 0.80483 0.68182 0.0
O890 O 0.50277 0.83761 0.65959 0.0
O891 O 0.50363 0.80563 0.64249 0.0
C892 C 0.50642 0.72154 0.70342 0.0
C893 C 0.52905 0.71907 0.70322 0.0
H894 H 0.57314 0.72044 0.7003 0.0
H895 H 0.59382 0.74867 0.68074 0.0
H896 H 0.44869 0.76278 0.68057 0.0
H897 H 0.46352 0.73132 0.70047 0.0
H898 H 0.49662 0.71108 0.71327 0.0
H899 H 0.53639 0.70631 0.71261 0.0
Mn900 Mn 0.16236 0.52441 0.67898 0.0
Mn901 Mn 0.20712 0.52023 0.64862 0.0
C902 C 0.19355 0.5102 0.69412 0.0
C903 C 0.14038 0.54542 0.70123 0.0
C904 C 0.16813 0.49069 0.64421 0.0
O905 O 0.15604 0.54336 0.65263 0.0
O906 O 0.18913 0.54422 0.63736 0.0
C907 C 0.22917 0.56151 0.6582 0.0
N908 N 0.22934 0.53955 0.65766 0.0
C909 C 0.26688 0.53844 0.66745 0.0
C910 C 0.26717 0.56107 0.66806 0.0
C911 C 0.24818 0.57264 0.66358 0.0
C912 C 0.24738 0.52825 0.66235 0.0
H913 H 0.21468 0.57042 0.65447 0.0
C914 C 0.16954 0.55061 0.63883 0.0
O915 O 0.13263 0.52909 0.69061 0.0
O916 O 0.16067 0.54975 0.69851 0.0
N917 N 0.22601 0.4977 0.65796 0.0
C918 C 0.22254 0.47599 0.65842 0.0
C919 C 0.23964 0.46208 0.66365 0.0
C920 C 0.26021 0.4706 0.66791 0.0
C921 C 0.26337 0.493 0.66729 0.0
C922 C 0.24563 0.50608 0.66245 0.0
H923 H 0.20688 0.46932 0.65472 0.0
O924 O 0.17484 0.50677 0.7029 0.0
O925 O 0.19346 0.52235 0.67701 0.0
O926 O 0.15792 0.49714 0.66085 0.0
O927 O 0.18571 0.49922 0.63765 0.0
C928 C 0.28345 0.50287 0.6712 0.0
C929 C 0.28516 0.52558 0.67162 0.0
H930 H 0.28184 0.56971 0.67201 0.0
H931 H 0.24826 0.5901 0.66406 0.0
H932 H 0.23705 0.44482 0.66413 0.0
H933 H 0.27343 0.45982 0.6717 0.0
H934 H 0.29765 0.49311 0.67411 0.0
H935 H 0.30059 0.53297 0.67522 0.0
Mn936 Mn 0.46477 0.1683 0.6747 0.0
Mn937 Mn 0.4675 0.21722 0.65117 0.0
C938 C 0.47872 0.19731 0.69381 0.0
C939 C 0.44416 0.14382 0.69466 0.0
C940 C 0.49863 0.18045 0.64116 0.0
O941 O 0.44525 0.1651 0.64827 0.0
O942 O 0.44523 0.19951 0.63651 0.0
C943 C 0.42439 0.23371 0.66339 0.0
N944 N 0.44626 0.23596 0.66328 0.0
C945 C 0.44399 0.26929 0.68301 0.0
C946 C 0.42144 0.2675 0.68308 0.0
C947 C 0.4116 0.2496 0.67325 0.0
C948 C 0.4559 0.25311 0.67267 0.0
H949 H 0.41678 0.21981 0.65614 0.0
C950 C 0.43855 0.17997 0.63567 0.0
O951 O 0.46029 0.13728 0.68291 0.0
O952 O 0.43988 0.16425 0.69427 0.0
N953 N 0.48828 0.23616 0.6639 0.0
C954 C 0.51023 0.2347 0.66375 0.0
C955 C 0.52254 0.25091 0.67373 0.0
C956 C 0.51217 0.26843 0.68369 0.0
C957 C 0.48958 0.26969 0.68337 0.0
C958 C 0.47817 0.25326 0.6729 0.0
H959 H 0.51827 0.22119 0.65625 0.0
O960 O 0.48284 0.1777 0.69983 0.0
O961 O 0.4663 0.19928 0.67703 0.0
O962 O 0.49167 0.16697 0.65516 0.0
O963 O 0.49019 0.19905 0.63814 0.0
C964 C 0.4779 0.28619 0.6937 0.0
C965 C 0.45516 0.2861 0.69346 0.0
H966 H 0.41153 0.27959 0.69092 0.0
H967 H 0.39421 0.24797 0.67343 0.0
H968 H 0.53997 0.24979 0.67393 0.0
H969 H 0.5217 0.2807 0.69172 0.0
H970 H 0.48625 0.29862 0.70248 0.0
H971 H 0.44643 0.29873 0.70182 0.0
Mn972 Mn 0.83541 0.46964 0.68001 0.0
Mn973 Mn 0.7889 0.4803 0.65421 0.0
C974 C 0.80691 0.48516 0.69876 0.0
C975 C 0.85694 0.44551 0.69936 0.0
C976 C 0.83018 0.5059 0.64775 0.0
O977 O 0.83739 0.45185 0.65205 0.0
O978 O 0.80324 0.45562 0.63983 0.0
C979 C 0.76357 0.44091 0.66358 0.0
N980 N 0.76582 0.46274 0.66464 0.0
C981 C 0.73175 0.46647 0.6829 0.0
C982 C 0.72899 0.44403 0.6819 0.0
C983 C 0.74498 0.4312 0.6722 0.0
C984 C 0.75047 0.47526 0.67379 0.0
H985 H 0.77592 0.43099 0.65628 0.0
C986 C 0.8221 0.4471 0.63896 0.0
O987 O 0.86534 0.4616 0.68885 0.0
O988 O 0.83621 0.44303 0.6979 0.0
N989 N 0.77378 0.50393 0.66705 0.0
C990 C 0.77965 0.52511 0.66816 0.0
C991 C 0.76583 0.54001 0.67816 0.0
C992 C 0.74616 0.53298 0.68694 0.0
C993 C 0.74046 0.51114 0.6855 0.0
C994 C 0.7547 0.49708 0.67507 0.0
H995 H 0.7948 0.53061 0.66158 0.0
O996 O 0.82643 0.48663 0.70617 0.0
O997 O 0.80482 0.47461 0.6808 0.0
O998 O 0.84099 0.49755 0.66312 0.0
O999 O 0.81134 0.4996 0.64235 0.0
C1000 C 0.7215 0.50268 0.69462 0.0
C1001 C 0.71704 0.48039 0.69326 0.0
H1002 H 0.71481 0.43646 0.68877 0.0
H1003 H 0.74304 0.41386 0.67148 0.0
H1004 H 0.7704 0.55683 0.67925 0.0
H1005 H 0.73567 0.54445 0.69495 0.0
H1006 H 0.71063 0.51324 0.70318 0.0
H1007 H 0.70256 0.47404 0.70069 0.0
Mn1008 Mn 0.53767 0.1639 0.32314 0.0
Mn1009 Mn 0.53394 0.21073 0.35041 0.0
C1010 C 0.52145 0.19353 0.30683 0.0
C1011 C 0.55831 0.14155 0.30089 0.0
C1012 C 0.50507 0.1718 0.35876 0.0
O1013 O 0.55829 0.15957 0.34867 0.0
O1014 O 0.55806 0.19337 0.36207 0.0
C1015 C 0.57513 0.23093 0.33706 0.0
N1016 N 0.55328 0.23187 0.33912 0.0
C1017 C 0.55262 0.26882 0.32736 0.0
C1018 C 0.57517 0.26837 0.32536 0.0
C1019 C 0.58645 0.24926 0.33003 0.0
C1020 C 0.54222 0.24995 0.33409 0.0
H1021 H 0.58381 0.21629 0.34075 0.0
C1022 C 0.56532 0.17407 0.36151 0.0
O1023 O 0.5429 0.13371 0.31278 0.0
O1024 O 0.56191 0.16208 0.3024 0.0
N1025 N 0.51142 0.22956 0.34094 0.0
C1026 C 0.48966 0.22677 0.34222 0.0
C1027 C 0.47592 0.24415 0.33749 0.0
C1028 C 0.48471 0.2643 0.33193 0.0
C1029 C 0.50719 0.26674 0.33058 0.0
C1030 C 0.52003 0.24878 0.33523 0.0
H1031 H 0.48284 0.21149 0.34709 0.0
O1032 O 0.51824 0.17417 0.29956 0.0
O1033 O 0.53465 0.19505 0.32307 0.0
O1034 O 0.51157 0.15998 0.34319 0.0
O1035 O 0.51311 0.19026 0.36324 0.0
C1036 C 0.5174 0.2863 0.32496 0.0
C1037 C 0.54006 0.28724 0.32298 0.0
H1038 H 0.58396 0.28255 0.32011 0.0
H1039 H 0.60383 0.24873 0.32837 0.0
H1040 H 0.4586 0.24214 0.33852 0.0
H1041 H 0.47403 0.27776 0.32875 0.0
H1042 H 0.50801 0.30073 0.32198 0.0
H1043 H 0.54765 0.30222 0.31812 0.0
Mn1044 Mn 0.84208 0.53381 0.32274 0.0
Mn1045 Mn 0.79619 0.52347 0.35025 0.0
C1046 C 0.81203 0.52052 0.30482 0.0
C1047 C 0.86399 0.5572 0.30289 0.0
C1048 C 0.83408 0.49307 0.34996 0.0
O1049 O 0.84699 0.55052 0.35072 0.0
O1050 O 0.81647 0.54085 0.36792 0.0
C1051 C 0.78055 0.5686 0.35132 0.0
N1052 N 0.77732 0.54749 0.34611 0.0
C1053 C 0.74232 0.55538 0.33134 0.0
C1054 C 0.74519 0.57718 0.33669 0.0
C1055 C 0.76441 0.58382 0.34671 0.0
C1056 C 0.75892 0.54093 0.33646 0.0
H1057 H 0.79536 0.57383 0.35888 0.0
C1058 C 0.83469 0.55054 0.36722 0.0
O1059 O 0.87199 0.54034 0.31245 0.0
O1060 O 0.84355 0.56078 0.30555 0.0
N1061 N 0.7748 0.5069 0.33549 0.0
C1062 C 0.77471 0.48535 0.33111 0.0
C1063 C 0.75674 0.47615 0.32084 0.0
C1064 C 0.73899 0.48914 0.31544 0.0
C1065 C 0.73921 0.51116 0.32068 0.0
C1066 C 0.75747 0.51938 0.3311 0.0
H1067 H 0.78835 0.47532 0.33518 0.0
O1068 O 0.83118 0.51816 0.29675 0.0
O1069 O 0.81091 0.53073 0.32317 0.0
O1070 O 0.84674 0.50494 0.33879 0.0
O1071 O 0.81466 0.49807 0.35466 0.0
C1072 C 0.72232 0.52541 0.31548 0.0
C1073 C 0.72382 0.54748 0.32079 0.0
H1074 H 0.73282 0.58897 0.33303 0.0
H1075 H 0.7668 0.60063 0.35079 0.0
H1076 H 0.75664 0.45913 0.31692 0.0
H1077 H 0.72538 0.48205 0.30713 0.0
H1078 H 0.70827 0.51966 0.30706 0.0
H1079 H 0.71076 0.55826 0.31648 0.0
Mn1080 Mn 0.47105 0.84405 0.32319 0.0
Mn1081 Mn 0.47955 0.79642 0.34767 0.0
C1082 C 0.48612 0.81568 0.3039 0.0
C1083 C 0.44813 0.86653 0.30358 0.0
C1084 C 0.50659 0.83646 0.35586 0.0
O1085 O 0.45247 0.84583 0.35068 0.0
O1086 O 0.45526 0.81133 0.36209 0.0
C1087 C 0.43918 0.77345 0.33663 0.0
N1088 N 0.46112 0.7746 0.33612 0.0
C1089 C 0.4635 0.7415 0.31602 0.0
C1090 C 0.44093 0.73984 0.31647 0.0
C1091 C 0.42872 0.75589 0.32684 0.0
C1092 C 0.47304 0.75917 0.32636 0.0
H1093 H 0.42973 0.78592 0.34432 0.0
C1094 C 0.44703 0.83029 0.3632 0.0
O1095 O 0.46406 0.87441 0.31473 0.0
O1096 O 0.44505 0.84588 0.30471 0.0
N1097 N 0.5027 0.78065 0.33473 0.0
C1098 C 0.52418 0.78544 0.33438 0.0
C1099 C 0.53858 0.77137 0.32398 0.0
C1100 C 0.53074 0.75261 0.314 0.0
C1101 C 0.5086 0.74801 0.31468 0.0
C1102 C 0.49507 0.76236 0.32566 0.0
H1103 H 0.53029 0.79993 0.34184 0.0
O1104 O 0.48847 0.83537 0.29721 0.0
O1105 O 0.47509 0.81339 0.32155 0.0
O1106 O 0.49868 0.84821 0.34094 0.0
O1107 O 0.49965 0.81762 0.36047 0.0
C1108 C 0.49935 0.7302 0.30416 0.0
C1109 C 0.47683 0.72684 0.3049 0.0
H1110 H 0.4328 0.7265 0.30863 0.0
H1111 H 0.41129 0.75482 0.32711 0.0
H1112 H 0.55563 0.7751 0.32348 0.0
H1113 H 0.54182 0.742 0.30562 0.0
H1114 H 0.50943 0.71954 0.2948 0.0
H1115 H 0.46985 0.71335 0.29631 0.0
Mn1116 Mn 0.16257 0.47012 0.32275 0.0
Mn1117 Mn 0.21139 0.47311 0.34638 0.0
C1118 C 0.19171 0.48417 0.30373 0.0
C1119 C 0.13832 0.44951 0.30252 0.0
C1120 C 0.17422 0.50359 0.35673 0.0
O1121 O 0.15949 0.45034 0.34912 0.0
O1122 O 0.194 0.45043 0.36062 0.0
C1123 C 0.22879 0.43048 0.33378 0.0
N1124 N 0.23053 0.45239 0.33401 0.0
C1125 C 0.26373 0.45107 0.31398 0.0
C1126 C 0.26242 0.42849 0.31369 0.0
C1127 C 0.24486 0.41815 0.32363 0.0
C1128 C 0.24738 0.4625 0.32459 0.0
H1129 H 0.21517 0.4225 0.34117 0.0
C1130 C 0.17452 0.44357 0.36154 0.0
O1131 O 0.1316 0.4655 0.31435 0.0
O1132 O 0.15878 0.44535 0.30304 0.0
N1133 N 0.22989 0.49442 0.33394 0.0
C1134 C 0.22805 0.51633 0.33452 0.0
C1135 C 0.24401 0.52911 0.32472 0.0
C1136 C 0.26163 0.51923 0.31445 0.0
C1137 C 0.26323 0.49666 0.31428 0.0
C1138 C 0.2471 0.48477 0.32466 0.0
H1139 H 0.21446 0.524 0.34226 0.0
O1140 O 0.17213 0.48834 0.29765 0.0
O1141 O 0.19352 0.47182 0.32055 0.0
O1142 O 0.16093 0.49689 0.34243 0.0
O1143 O 0.19284 0.49522 0.35975 0.0
C1144 C 0.2798 0.48548 0.30356 0.0
C1145 C 0.28016 0.46272 0.30347 0.0
H1146 H 0.27465 0.41894 0.30563 0.0
H1147 H 0.24364 0.40073 0.32333 0.0
H1148 H 0.24262 0.54651 0.3249 0.0
H1149 H 0.27372 0.5291 0.30656 0.0
H1150 H 0.29185 0.49432 0.2947 0.0
H1151 H 0.29278 0.45431 0.29479 0.0
Mn1152 Mn 0.67797 0.53047 0.84081 0.0
Mn1153 Mn 0.64777 0.52732 0.7959 0.0
C1154 C 0.69329 0.51716 0.80933 0.0
C1155 C 0.69988 0.55118 0.86331 0.0
C1156 C 0.64361 0.49656 0.83397 0.0
O1157 O 0.65131 0.54879 0.84772 0.0
O1158 O 0.63636 0.55073 0.81455 0.0
C1159 C 0.65736 0.56929 0.77518 0.0
N1160 N 0.65683 0.54734 0.77432 0.0
C1161 C 0.6667 0.54744 0.73678 0.0
C1162 C 0.66727 0.57006 0.73721 0.0
C1163 C 0.66275 0.58102 0.75655 0.0
C1164 C 0.66161 0.53663 0.75594 0.0
H1165 H 0.65359 0.57773 0.78995 0.0
C1166 C 0.63758 0.55644 0.83437 0.0
O1167 O 0.68974 0.53433 0.87058 0.0
O1168 O 0.69691 0.55619 0.84322 0.0
N1169 N 0.65721 0.50541 0.77633 0.0
C1170 C 0.65756 0.48359 0.77907 0.0
C1171 C 0.66276 0.47024 0.76152 0.0
C1172 C 0.66704 0.47941 0.74124 0.0
C1173 C 0.66651 0.5019 0.73882 0.0
C1174 C 0.66172 0.51441 0.75699 0.0
H1175 H 0.65381 0.47642 0.79449 0.0
O1176 O 0.70217 0.51353 0.82794 0.0
O1177 O 0.67609 0.52918 0.80965 0.0
O1178 O 0.66023 0.5028 0.84435 0.0
O1179 O 0.63693 0.50563 0.81671 0.0
C1180 C 0.67041 0.51242 0.71906 0.0
C1181 C 0.67086 0.53517 0.7181 0.0
H1182 H 0.67121 0.57916 0.72282 0.0
H1183 H 0.66321 0.59847 0.75703 0.0
H1184 H 0.66315 0.4529 0.76354 0.0
H1185 H 0.67076 0.46905 0.72767 0.0
H1186 H 0.67332 0.50315 0.70454 0.0
H1187 H 0.67444 0.54305 0.70291 0.0
Mn1188 Mn 0.46973 0.67526 0.8387 0.0
Mn1189 Mn 0.47882 0.64719 0.79307 0.0
C1190 C 0.48617 0.69214 0.80942 0.0
C1191 C 0.44691 0.69638 0.86006 0.0
C1192 C 0.5054 0.64202 0.83392 0.0
O1193 O 0.45054 0.64844 0.84226 0.0
O1194 O 0.45458 0.63405 0.80912 0.0
C1195 C 0.43839 0.65552 0.76902 0.0
N1196 N 0.46033 0.65599 0.77008 0.0
C1197 C 0.46316 0.66505 0.73246 0.0
C1198 C 0.44058 0.66469 0.73091 0.0
C1199 C 0.42814 0.66013 0.74934 0.0
C1200 C 0.47242 0.66098 0.75264 0.0
H1201 H 0.42885 0.65147 0.78304 0.0
C1202 C 0.44565 0.63461 0.82775 0.0
O1203 O 0.46268 0.68542 0.86844 0.0
O1204 O 0.44406 0.69456 0.8394 0.0
N1205 N 0.50185 0.65816 0.77575 0.0
C1206 C 0.52331 0.65926 0.78039 0.0
C1207 C 0.538 0.66437 0.76391 0.0
C1208 C 0.53053 0.66769 0.74276 0.0
C1209 C 0.50835 0.66649 0.73842 0.0
C1210 C 0.49444 0.66199 0.75562 0.0
H1211 H 0.52918 0.65597 0.79646 0.0
O1212 O 0.48799 0.69994 0.82877 0.0
O1213 O 0.47439 0.67486 0.80768 0.0
O1214 O 0.49692 0.65733 0.84468 0.0
O1215 O 0.49908 0.63646 0.81515 0.0
C1216 C 0.49949 0.66925 0.71767 0.0
C1217 C 0.47689 0.66895 0.71475 0.0
H1218 H 0.43263 0.66786 0.71567 0.0
H1219 H 0.4107 0.6598 0.74827 0.0
H1220 H 0.5551 0.66526 0.76739 0.0
H1221 H 0.54198 0.67107 0.73 0.0
H1222 H 0.50988 0.67218 0.70392 0.0
H1223 H 0.47025 0.67175 0.69883 0.0
Mn1224 Mn 0.32287 0.46787 0.83794 0.0
Mn1225 Mn 0.34884 0.47256 0.79069 0.0
C1226 C 0.30471 0.4818 0.80828 0.0
C1227 C 0.3026 0.44601 0.86102 0.0
C1228 C 0.35723 0.50131 0.82972 0.0
O1229 O 0.35003 0.44928 0.84144 0.0
O1230 O 0.36155 0.44793 0.80682 0.0
C1231 C 0.33646 0.4322 0.76836 0.0
N1232 N 0.337 0.45416 0.76899 0.0
C1233 C 0.31875 0.45669 0.7348 0.0
C1234 C 0.31813 0.4341 0.7337 0.0
C1235 C 0.32703 0.42181 0.75056 0.0
C1236 C 0.32864 0.46615 0.75279 0.0
H1237 H 0.3431 0.42272 0.78139 0.0
C1238 C 0.36235 0.44185 0.8266 0.0
O1239 O 0.31356 0.46232 0.86841 0.0
O1240 O 0.30404 0.44217 0.84053 0.0
N1241 N 0.33759 0.49589 0.77391 0.0
C1242 C 0.33795 0.51746 0.77825 0.0
C1243 C 0.32878 0.53197 0.76348 0.0
C1244 C 0.31933 0.52417 0.74443 0.0
C1245 C 0.31927 0.50193 0.7403 0.0
C1246 C 0.32891 0.48825 0.75544 0.0
H1247 H 0.34504 0.5236 0.7929 0.0
O1248 O 0.29745 0.48521 0.82762 0.0
O1249 O 0.32211 0.47021 0.80709 0.0
O1250 O 0.34117 0.49532 0.84114 0.0
O1251 O 0.3621 0.4926 0.81166 0.0
C1252 C 0.3094 0.49279 0.72206 0.0
C1253 C 0.30921 0.4702 0.71919 0.0
H1254 H 0.3106 0.42602 0.72015 0.0
H1255 H 0.32647 0.40437 0.7499 0.0
H1256 H 0.32885 0.54911 0.76684 0.0
H1257 H 0.31197 0.53537 0.7332 0.0
H1258 H 0.30146 0.5031 0.71054 0.0
H1259 H 0.30121 0.46338 0.70523 0.0
Mn1260 Mn 0.53165 0.32341 0.83635 0.0
Mn1261 Mn 0.52955 0.35319 0.79092 0.0
C1262 C 0.51763 0.30827 0.80515 0.0
C1263 C 0.55181 0.3008 0.85879 0.0
C1264 C 0.49792 0.35808 0.82821 0.0
O1265 O 0.55084 0.34934 0.84325 0.0
O1266 O 0.55195 0.36509 0.81048 0.0
C1267 C 0.57261 0.34279 0.77303 0.0
N1268 N 0.55078 0.34372 0.77071 0.0
C1269 C 0.55314 0.33253 0.73363 0.0
C1270 C 0.57567 0.33165 0.73554 0.0
C1271 C 0.58544 0.33665 0.75539 0.0
C1272 C 0.54119 0.33849 0.75185 0.0
H1273 H 0.58014 0.34673 0.78824 0.0
C1274 C 0.55802 0.36349 0.83014 0.0
O1275 O 0.53553 0.31172 0.86627 0.0
O1276 O 0.55654 0.30349 0.83861 0.0
N1277 N 0.50881 0.34369 0.77016 0.0
C1278 C 0.48686 0.34409 0.77143 0.0
C1279 C 0.47456 0.3391 0.75307 0.0
C1280 C 0.48494 0.33413 0.73353 0.0
C1281 C 0.50757 0.33368 0.73264 0.0
C1282 C 0.51895 0.33868 0.75149 0.0
H1283 H 0.4788 0.3484 0.78626 0.0
O1284 O 0.51379 0.29977 0.82388 0.0
O1285 O 0.53036 0.325 0.80513 0.0
O1286 O 0.50461 0.34226 0.8396 0.0
O1287 O 0.50676 0.36402 0.81053 0.0
C1288 C 0.51931 0.32864 0.7138 0.0
C1289 C 0.54205 0.32773 0.71438 0.0
H1290 H 0.58562 0.32706 0.72192 0.0
H1291 H 0.60281 0.33589 0.75703 0.0
H1292 H 0.45712 0.33943 0.75387 0.0
H1293 H 0.47533 0.33079 0.71934 0.0
H1294 H 0.5111 0.32542 0.69874 0.0
H1295 H 0.55085 0.32341 0.69991 0.0
Mn1296 Mn 0.67553 0.4692 0.1707 0.0
Mn1297 Mn 0.65064 0.47088 0.21892 0.0
C1298 C 0.69353 0.48343 0.20046 0.0
C1299 C 0.69623 0.44983 0.14603 0.0
C1300 C 0.64114 0.50218 0.18219 0.0
O1301 O 0.64948 0.44916 0.16644 0.0
O1302 O 0.63748 0.44821 0.20072 0.0
C1303 C 0.66364 0.42821 0.23599 0.0
N1304 N 0.66247 0.45004 0.23824 0.0
C1305 C 0.67675 0.44826 0.27426 0.0
C1306 C 0.67795 0.42573 0.27245 0.0
C1307 C 0.67154 0.41568 0.25315 0.0
C1308 C 0.66911 0.45991 0.25649 0.0
H1309 H 0.65854 0.42046 0.22124 0.0
C1310 C 0.63703 0.44174 0.18112 0.0
O1311 O 0.68442 0.46601 0.13984 0.0
O1312 O 0.69562 0.4447 0.16629 0.0
N1313 N 0.66166 0.492 0.23849 0.0
C1314 C 0.66055 0.51391 0.23712 0.0
C1315 C 0.66662 0.52649 0.25495 0.0
C1316 C 0.67338 0.5164 0.27408 0.0
C1317 C 0.67457 0.49381 0.27505 0.0
C1318 C 0.66846 0.48214 0.25671 0.0
H1319 H 0.65479 0.52173 0.22266 0.0
O1320 O 0.69997 0.48765 0.18101 0.0
O1321 O 0.67717 0.47039 0.20195 0.0
O1322 O 0.65578 0.49575 0.1692 0.0
O1323 O 0.63751 0.49325 0.20044 0.0
C1324 C 0.68124 0.48234 0.29353 0.0
C1325 C 0.6827 0.45963 0.29302 0.0
H1326 H 0.68384 0.41601 0.28572 0.0
H1327 H 0.67251 0.39832 0.25158 0.0
H1328 H 0.66569 0.5439 0.25409 0.0
H1329 H 0.67741 0.52623 0.28792 0.0
H1330 H 0.68532 0.49076 0.30826 0.0
H1331 H 0.68831 0.45106 0.30719 0.0
Mn1332 Mn 0.53346 0.67961 0.16852 0.0
Mn1333 Mn 0.5239 0.65307 0.21501 0.0
C1334 C 0.51669 0.69731 0.19713 0.0
C1335 C 0.55637 0.70024 0.14679 0.0
C1336 C 0.49773 0.64655 0.1741 0.0
O1337 O 0.55277 0.65279 0.16599 0.0
O1338 O 0.54805 0.63925 0.19942 0.0
C1339 C 0.56439 0.662 0.23874 0.0
N1340 N 0.54245 0.66247 0.2377 0.0
C1341 C 0.5397 0.67259 0.27505 0.0
C1342 C 0.56229 0.67217 0.27659 0.0
C1343 C 0.57469 0.66709 0.25828 0.0
C1344 C 0.53041 0.66802 0.255 0.0
H1345 H 0.5739 0.65761 0.2248 0.0
C1346 C 0.55726 0.63929 0.18093 0.0
O1347 O 0.54077 0.6889 0.13858 0.0
O1348 O 0.55902 0.69906 0.16752 0.0
N1349 N 0.50095 0.66472 0.23198 0.0
C1350 C 0.4795 0.66581 0.22732 0.0
C1351 C 0.46485 0.67154 0.24363 0.0
C1352 C 0.47236 0.67545 0.26467 0.0
C1353 C 0.49453 0.67419 0.26905 0.0
C1354 C 0.5084 0.66909 0.252 0.0
H1355 H 0.4736 0.66207 0.21135 0.0
O1356 O 0.51495 0.70449 0.17754 0.0
O1357 O 0.5285 0.68016 0.19948 0.0
O1358 O 0.50652 0.66122 0.16272 0.0
O1359 O 0.50361 0.64184 0.19323 0.0
C1360 C 0.50342 0.67745 0.28972 0.0
C1361 C 0.52602 0.67703 0.29265 0.0
H1362 H 0.57026 0.67571 0.29174 0.0
H1363 H 0.59212 0.66674 0.25933 0.0
H1364 H 0.44776 0.67245 0.24013 0.0
H1365 H 0.46094 0.67932 0.27732 0.0
H1366 H 0.49307 0.68074 0.30341 0.0
H1367 H 0.53268 0.68018 0.3085 0.0
Mn1368 Mn 0.32601 0.53329 0.16715 0.0
Mn1369 Mn 0.35404 0.52339 0.21274 0.0
C1370 C 0.30892 0.51793 0.19674 0.0
C1371 C 0.30488 0.55593 0.14571 0.0
C1372 C 0.35533 0.49397 0.17402 0.0
O1373 O 0.35303 0.55156 0.16251 0.0
O1374 O 0.37039 0.54253 0.193 0.0
C1375 C 0.35234 0.56796 0.22991 0.0
N1376 N 0.34884 0.54642 0.23254 0.0
C1377 C 0.33841 0.55149 0.26957 0.0
C1378 C 0.34195 0.57373 0.26731 0.0
C1379 C 0.34879 0.58201 0.24734 0.0
C1380 C 0.34176 0.53836 0.2515 0.0
H1381 H 0.35788 0.57434 0.21467 0.0
C1382 C 0.36938 0.55249 0.17496 0.0
O1383 O 0.31546 0.53984 0.13742 0.0
O1384 O 0.30729 0.5593 0.16622 0.0
N1385 N 0.34084 0.50522 0.23384 0.0
C1386 C 0.33795 0.48343 0.23322 0.0
C1387 C 0.33165 0.47249 0.25202 0.0
C1388 C 0.32882 0.484 0.27133 0.0
C1389 C 0.33164 0.50646 0.27154 0.0
C1390 C 0.3379 0.51647 0.25231 0.0
H1391 H 0.34082 0.47442 0.21858 0.0
O1392 O 0.30109 0.5159 0.17745 0.0
O1393 O 0.32648 0.52939 0.1984 0.0
O1394 O 0.34342 0.50544 0.16172 0.0
O1395 O 0.35989 0.49884 0.19349 0.0
C1396 C 0.3289 0.51926 0.29016 0.0
C1397 C 0.33193 0.5418 0.28909 0.0
H1398 H 0.3395 0.58458 0.2808 0.0
H1399 H 0.35154 0.59916 0.24545 0.0
H1400 H 0.32946 0.45517 0.25175 0.0
H1401 H 0.32472 0.47539 0.28594 0.0
H1402 H 0.3244 0.51198 0.3054 0.0
H1403 H 0.32947 0.55149 0.30343 0.0
Mn1404 Mn 0.46799 0.32213 0.16462 0.0
Mn1405 Mn 0.47006 0.34459 0.21407 0.0
C1406 C 0.48169 0.30247 0.19333 0.0
C1407 C 0.44778 0.30221 0.13981 0.0
C1408 C 0.50185 0.35526 0.17804 0.0
O1409 O 0.44832 0.34847 0.16166 0.0
O1410 O 0.44837 0.35986 0.19618 0.0
C1411 C 0.42642 0.33237 0.22912 0.0
N1412 N 0.44822 0.33222 0.23195 0.0
C1413 C 0.44491 0.31123 0.26441 0.0
C1414 C 0.42241 0.31143 0.26202 0.0
C1415 C 0.41313 0.32204 0.24428 0.0
C1416 C 0.45732 0.32212 0.24898 0.0
H1417 H 0.41924 0.34017 0.2153 0.0
C1418 C 0.44172 0.36098 0.17665 0.0
O1419 O 0.4638 0.3142 0.13343 0.0
O1420 O 0.44331 0.30251 0.16019 0.0
N1421 N 0.49023 0.33127 0.23326 0.0
C1422 C 0.51221 0.33144 0.23248 0.0
C1423 C 0.524 0.32084 0.24867 0.0
C1424 C 0.51308 0.31021 0.26545 0.0
C1425 C 0.49046 0.31055 0.26605 0.0
C1426 C 0.47958 0.32174 0.24974 0.0
H1427 H 0.52067 0.33941 0.2195 0.0
O1428 O 0.48611 0.29695 0.17365 0.0
O1429 O 0.46916 0.31914 0.19556 0.0
O1430 O 0.49479 0.34188 0.16397 0.0
O1431 O 0.49331 0.3577 0.1967 0.0
C1432 C 0.47825 0.29947 0.28167 0.0
C1433 C 0.45553 0.29994 0.281 0.0
H1434 H 0.41212 0.30319 0.27352 0.0
H1435 H 0.39579 0.32207 0.24219 0.0
H1436 H 0.54146 0.32064 0.24807 0.0
H1437 H 0.52222 0.30163 0.27763 0.0
H1438 H 0.48616 0.28982 0.29372 0.0
H1439 H 0.4464 0.29104 0.29297 0.0
Mn1440 Mn 0.83675 0.67569 0.53247 0.0
Mn1441 Mn 0.7897 0.64843 0.53333 0.0
C1442 C 0.80566 0.69195 0.51941 0.0
C1443 C 0.8607 0.69827 0.55089 0.0
C1444 C 0.82546 0.6401 0.5005 0.0
O1445 O 0.84303 0.65035 0.55261 0.0
O1446 O 0.80961 0.6361 0.55524 0.0
C1447 C 0.77426 0.66099 0.57675 0.0
N1448 N 0.77098 0.65968 0.55507 0.0
C1449 C 0.73546 0.67495 0.55843 0.0
C1450 C 0.73832 0.67618 0.58084 0.0
C1451 C 0.75786 0.66926 0.59003 0.0
C1452 C 0.75234 0.66646 0.54603 0.0
H1453 H 0.78932 0.65586 0.58383 0.0
C1454 C 0.82954 0.63702 0.56065 0.0
O1455 O 0.8673 0.68635 0.53492 0.0
O1456 O 0.8406 0.69653 0.5563 0.0
N1457 N 0.76876 0.6587 0.51314 0.0
C1458 C 0.76933 0.65816 0.49116 0.0
C1459 C 0.75147 0.66561 0.47938 0.0
C1460 C 0.73315 0.67329 0.49031 0.0
C1461 C 0.73288 0.67351 0.51294 0.0
C1462 C 0.75113 0.66586 0.52381 0.0
H1463 H 0.78334 0.65221 0.48269 0.0
O1464 O 0.82454 0.69922 0.51404 0.0
O1465 O 0.80556 0.67565 0.53262 0.0
O1466 O 0.83823 0.65525 0.50631 0.0
O1467 O 0.80766 0.63601 0.51013 0.0
C1468 C 0.71542 0.68141 0.52515 0.0
C1469 C 0.71672 0.68225 0.54785 0.0
H1470 H 0.72575 0.68266 0.59112 0.0
H1471 H 0.76029 0.67035 0.60729 0.0
H1472 H 0.75181 0.66543 0.46192 0.0
H1473 H 0.71949 0.67914 0.48113 0.0
H1474 H 0.701 0.6871 0.51726 0.0
H1475 H 0.70333 0.68878 0.55699 0.0
Mn1476 Mn 0.83743 0.32692 0.47019 0.0
Mn1477 Mn 0.78977 0.35284 0.47106 0.0
C1478 C 0.8075 0.30986 0.48514 0.0
C1479 C 0.8615 0.30545 0.45081 0.0
C1480 C 0.82685 0.36269 0.50186 0.0
O1481 O 0.84205 0.35229 0.44951 0.0
O1482 O 0.80792 0.3645 0.44747 0.0
C1483 C 0.77165 0.33836 0.4293 0.0
N1484 N 0.76981 0.34058 0.45108 0.0
C1485 C 0.7332 0.32772 0.45049 0.0
C1486 C 0.73463 0.32537 0.42802 0.0
C1487 C 0.754 0.33054 0.41741 0.0
C1488 C 0.75145 0.33516 0.46151 0.0
H1489 H 0.78643 0.3426 0.4211 0.0
C1490 C 0.82762 0.36448 0.44128 0.0
O1491 O 0.86813 0.31736 0.46675 0.0
O1492 O 0.84116 0.30626 0.44609 0.0
N1493 N 0.77025 0.34336 0.49296 0.0
C1494 C 0.77194 0.34557 0.51478 0.0
C1495 C 0.754 0.3411 0.52785 0.0
C1496 C 0.73442 0.33478 0.51834 0.0
C1497 C 0.73315 0.3323 0.49586 0.0
C1498 C 0.7516 0.33688 0.48369 0.0
H1499 H 0.78674 0.35109 0.52213 0.0
O1500 O 0.8269 0.30321 0.48931 0.0
O1501 O 0.80614 0.32589 0.47164 0.0
O1502 O 0.83939 0.34732 0.49628 0.0
O1503 O 0.80887 0.36657 0.49253 0.0
C1504 C 0.71426 0.32572 0.48501 0.0
C1505 C 0.71439 0.32309 0.46239 0.0
H1506 H 0.72097 0.31957 0.41877 0.0
H1507 H 0.75525 0.32873 0.40008 0.0
H1508 H 0.75511 0.34295 0.54518 0.0
H1509 H 0.72049 0.33191 0.52848 0.0
H1510 H 0.69958 0.32242 0.49391 0.0
H1511 H 0.6999 0.31758 0.4543 0.0
Mn1512 Mn 0.67673 0.83314 0.47084 0.0
Mn1513 Mn 0.64874 0.78662 0.46957 0.0
C1514 C 0.69247 0.80183 0.48393 0.0
C1515 C 0.69978 0.85657 0.4523 0.0
C1516 C 0.64091 0.82229 0.50263 0.0
O1517 O 0.65146 0.83997 0.45084 0.0
O1518 O 0.63691 0.80678 0.44761 0.0
C1519 C 0.66137 0.77104 0.42622 0.0
N1520 N 0.65985 0.76776 0.44789 0.0
C1521 C 0.67416 0.73184 0.44457 0.0
C1522 C 0.67563 0.73472 0.42217 0.0
C1523 C 0.66932 0.75446 0.41297 0.0
C1524 C 0.6661 0.74894 0.45694 0.0
H1525 H 0.65661 0.78622 0.41913 0.0
C1526 C 0.63802 0.82677 0.44252 0.0
O1527 O 0.68806 0.86347 0.46831 0.0
O1528 O 0.69751 0.83654 0.44692 0.0
N1529 N 0.65845 0.76545 0.48979 0.0
C1530 C 0.65757 0.76593 0.51176 0.0
C1531 C 0.66416 0.74776 0.52356 0.0
C1532 C 0.67132 0.72922 0.51265 0.0
C1533 C 0.67204 0.72909 0.49003 0.0
C1534 C 0.66526 0.74767 0.47914 0.0
H1535 H 0.6519 0.78006 0.52022 0.0
O1536 O 0.70006 0.8206 0.48919 0.0
O1537 O 0.67623 0.80195 0.47063 0.0
O1538 O 0.65642 0.83478 0.49714 0.0
O1539 O 0.63645 0.80474 0.4927 0.0
C1540 C 0.6794 0.71137 0.47782 0.0
C1541 C 0.68064 0.71279 0.45514 0.0
H1542 H 0.68179 0.72198 0.4119 0.0
H1543 H 0.67057 0.75687 0.39572 0.0
H1544 H 0.66361 0.74799 0.54101 0.0
H1545 H 0.67624 0.71526 0.52187 0.0
H1546 H 0.68427 0.69659 0.48566 0.0
H1547 H 0.68673 0.6992 0.446 0.0
Mn1548 Mn 0.16579 0.67456 0.47442 0.0
Mn1549 Mn 0.21177 0.64649 0.48135 0.0
C1550 C 0.19541 0.69099 0.49064 0.0
C1551 C 0.14413 0.69678 0.45306 0.0
C1552 C 0.17155 0.64004 0.50868 0.0
O1553 O 0.16191 0.64855 0.45422 0.0
O1554 O 0.19519 0.6341 0.45705 0.0
C1555 C 0.23471 0.65651 0.44064 0.0
N1556 N 0.23421 0.65614 0.4626 0.0
C1557 C 0.27162 0.66623 0.46478 0.0
C1558 C 0.27261 0.66663 0.44217 0.0
C1559 C 0.254 0.66196 0.43005 0.0
C1560 C 0.25183 0.6612 0.4744 0.0
H1561 H 0.22052 0.65258 0.43132 0.0
C1562 C 0.17639 0.63498 0.44851 0.0
O1563 O 0.1359 0.68511 0.46842 0.0
O1564 O 0.16469 0.69487 0.44967 0.0
N1565 N 0.22952 0.65694 0.50429 0.0
C1566 C 0.22533 0.65755 0.52587 0.0
C1567 C 0.24195 0.66302 0.54027 0.0
C1568 C 0.26278 0.66726 0.53238 0.0
C1569 C 0.26668 0.66651 0.5101 0.0
C1570 C 0.24936 0.66156 0.49651 0.0
H1571 H 0.20949 0.6537 0.53203 0.0
O1572 O 0.17607 0.69852 0.49341 0.0
O1573 O 0.19687 0.67414 0.47824 0.0
O1574 O 0.16046 0.65552 0.50095 0.0
O1575 O 0.19025 0.63491 0.50179 0.0
C1576 C 0.28708 0.67029 0.50083 0.0
C1577 C 0.2895 0.67047 0.47817 0.0
H1578 H 0.28754 0.67055 0.43395 0.0
H1579 H 0.25462 0.66229 0.4126 0.0
H1580 H 0.2388 0.66357 0.55745 0.0
H1581 H 0.27565 0.67108 0.54358 0.0
H1582 H 0.30095 0.67357 0.51095 0.0
H1583 H 0.30515 0.67403 0.47122 0.0
Mn1584 Mn 0.32568 0.1698 0.46183 0.0
Mn1585 Mn 0.35224 0.21601 0.47323 0.0
C1586 C 0.30733 0.19894 0.47678 0.0
C1587 C 0.30604 0.148 0.43812 0.0
C1588 C 0.35343 0.17687 0.5022 0.0
O1589 O 0.3537 0.16588 0.44476 0.0
O1590 O 0.36944 0.1971 0.45414 0.0
C1591 C 0.35131 0.23406 0.429 0.0
N1592 N 0.34721 0.23617 0.45049 0.0
C1593 C 0.33644 0.27316 0.44597 0.0
C1594 C 0.34058 0.27144 0.42379 0.0
C1595 C 0.34789 0.25174 0.41524 0.0
C1596 C 0.33966 0.25485 0.45879 0.0
H1597 H 0.35724 0.21904 0.42245 0.0
C1598 C 0.36951 0.17906 0.44414 0.0
O1599 O 0.31611 0.13989 0.45461 0.0
O1600 O 0.3081 0.16859 0.43498 0.0
N1601 N 0.33812 0.23643 0.49149 0.0
C1602 C 0.33469 0.23528 0.51318 0.0
C1603 C 0.32782 0.25372 0.52436 0.0
C1604 C 0.32503 0.27325 0.51323 0.0
C1605 C 0.32845 0.27403 0.49086 0.0
C1606 C 0.33522 0.25511 0.48058 0.0
H1607 H 0.33755 0.2205 0.52193 0.0
O1608 O 0.29974 0.17951 0.47821 0.0
O1609 O 0.32531 0.20104 0.46611 0.0
O1610 O 0.34198 0.16451 0.49035 0.0
O1611 O 0.35792 0.19642 0.49756 0.0
C1612 C 0.32589 0.29291 0.4784 0.0
C1613 C 0.32951 0.29237 0.45593 0.0
H1614 H 0.33825 0.28513 0.41317 0.0
H1615 H 0.35112 0.25027 0.39814 0.0
H1616 H 0.3252 0.25303 0.54162 0.0
H1617 H 0.32059 0.28758 0.52212 0.0
H1618 H 0.32123 0.30799 0.48588 0.0
H1619 H 0.3272 0.30691 0.44651 0.0
Mn1620 Mn 0.15919 0.3208 0.5278 0.0
Mn1621 Mn 0.20638 0.34756 0.52792 0.0
C1622 C 0.18987 0.30415 0.51422 0.0
C1623 C 0.13553 0.29853 0.54683 0.0
C1624 C 0.16977 0.35673 0.49632 0.0
O1625 O 0.15371 0.34639 0.54798 0.0
O1626 O 0.1876 0.35942 0.55102 0.0
C1627 C 0.22367 0.33369 0.5702 0.0
N1628 N 0.22584 0.33527 0.54838 0.0
C1629 C 0.26022 0.31731 0.54939 0.0
C1630 C 0.2585 0.31572 0.5719 0.0
C1631 C 0.24013 0.32393 0.58234 0.0
C1632 C 0.24345 0.32749 0.53817 0.0
H1633 H 0.20945 0.33971 0.57824 0.0
C1634 C 0.16765 0.35904 0.55639 0.0
O1635 O 0.12864 0.31044 0.53097 0.0
O1636 O 0.15574 0.30019 0.55181 0.0
N1637 N 0.22605 0.33747 0.5064 0.0
C1638 C 0.22454 0.33894 0.4845 0.0
C1639 C 0.24123 0.33069 0.47159 0.0
C1640 C 0.25927 0.32103 0.48132 0.0
C1641 C 0.26051 0.31991 0.50388 0.0
C1642 C 0.24359 0.32871 0.51593 0.0
H1643 H 0.21065 0.34621 0.47692 0.0
O1644 O 0.17086 0.29696 0.50925 0.0
O1645 O 0.19024 0.32057 0.52726 0.0
O1646 O 0.15745 0.34105 0.5016 0.0
O1647 O 0.18752 0.36096 0.50599 0.0
C1648 C 0.27755 0.30976 0.51485 0.0
C1649 C 0.27752 0.30853 0.53758 0.0
H1650 H 0.27103 0.30795 0.58128 0.0
H1651 H 0.23858 0.32259 0.59969 0.0
H1652 H 0.24011 0.33159 0.45419 0.0
H1653 H 0.27195 0.31433 0.47132 0.0
H1654 H 0.29038 0.30233 0.50584 0.0
H1655 H 0.29059 0.30033 0.54579 0.0
Mn1656 Mn 0.67739 0.1666 0.53511 0.0
Mn1657 Mn 0.65699 0.21686 0.53055 0.0
C1658 C 0.69919 0.1946 0.52288 0.0
C1659 C 0.69462 0.14053 0.556 0.0
C1660 C 0.648 0.181 0.49823 0.0
O1661 O 0.64944 0.16475 0.55282 0.0
O1662 O 0.63938 0.1996 0.55082 0.0
C1663 C 0.66565 0.23201 0.575 0.0
N1664 N 0.66784 0.2346 0.55328 0.0
C1665 C 0.68897 0.26677 0.55815 0.0
C1666 C 0.68675 0.2646 0.58056 0.0
C1667 C 0.67505 0.24713 0.58902 0.0
C1668 C 0.67901 0.25136 0.54496 0.0
H1669 H 0.65689 0.21845 0.58158 0.0
C1670 C 0.63696 0.18036 0.55795 0.0
O1671 O 0.68357 0.13517 0.539 0.0
O1672 O 0.69492 0.16076 0.56124 0.0
N1673 N 0.67251 0.23552 0.51152 0.0
C1674 C 0.67406 0.23466 0.48959 0.0
C1675 C 0.68569 0.2507 0.47861 0.0
C1676 C 0.69556 0.26742 0.49027 0.0
C1677 C 0.69342 0.26813 0.51279 0.0
C1678 C 0.68129 0.25196 0.52282 0.0
H1679 H 0.66667 0.22173 0.48055 0.0
O1680 O 0.70426 0.1747 0.51898 0.0
O1681 O 0.68169 0.19755 0.53409 0.0
O1682 O 0.6599 0.16654 0.50687 0.0
O1683 O 0.64549 0.19984 0.50625 0.0
C1684 C 0.70361 0.28372 0.52577 0.0
C1685 C 0.70129 0.28318 0.54839 0.0
H1686 H 0.69421 0.27609 0.59143 0.0
H1687 H 0.67341 0.24524 0.60631 0.0
H1688 H 0.68729 0.25003 0.46123 0.0
H1689 H 0.70498 0.27944 0.4818 0.0
H1690 H 0.71397 0.29562 0.51854 0.0
H1691 H 0.70951 0.29514 0.55815 0.0
Mn1692 Mn 0.32324 0.83776 0.53036 0.0
Mn1693 Mn 0.34684 0.78928 0.52473 0.0
C1694 C 0.30388 0.80914 0.51574 0.0
C1695 C 0.30306 0.86105 0.55203 0.0
C1696 C 0.35724 0.82818 0.49651 0.0
O1697 O 0.34998 0.83971 0.5499 0.0
O1698 O 0.36075 0.80488 0.54893 0.0
C1699 C 0.33406 0.76802 0.56555 0.0
N1700 N 0.33424 0.76839 0.54357 0.0
C1701 C 0.31383 0.73542 0.54174 0.0
C1702 C 0.31356 0.73458 0.56435 0.0
C1703 C 0.32373 0.75095 0.5763 0.0
C1704 C 0.32469 0.75263 0.53191 0.0
H1705 H 0.34163 0.78072 0.57477 0.0
C1706 C 0.36199 0.82417 0.55637 0.0
O1707 O 0.31481 0.86845 0.53629 0.0
O1708 O 0.30386 0.84049 0.55557 0.0
N1709 N 0.33434 0.77288 0.50178 0.0
C1710 C 0.33464 0.77696 0.48016 0.0
C1711 C 0.32439 0.76259 0.46596 0.0
C1712 C 0.31388 0.74426 0.47414 0.0
C1713 C 0.3139 0.74039 0.49643 0.0
C1714 C 0.32473 0.75503 0.50977 0.0
H1715 H 0.34249 0.79113 0.47378 0.0
O1716 O 0.29775 0.82885 0.51226 0.0
O1717 O 0.32107 0.80701 0.52746 0.0
O1718 O 0.34239 0.84073 0.50336 0.0
O1719 O 0.36066 0.80942 0.50435 0.0
C1720 C 0.30286 0.72305 0.50598 0.0
C1721 C 0.30294 0.72041 0.52859 0.0
H1722 H 0.30531 0.72163 0.57271 0.0
H1723 H 0.32345 0.7505 0.59376 0.0
H1724 H 0.32439 0.76575 0.44879 0.0
H1725 H 0.30562 0.73341 0.46319 0.0
H1726 H 0.29361 0.71221 0.496 0.0
H1727 H 0.294 0.70722 0.53574 0.0
H1728 H 0.14978 0.41654 0.27622 0.0
H1729 H 0.09446 0.45402 0.29618 0.0
H1730 H 0.12727 0.39597 0.25184 0.0
H1731 H 0.07153 0.4328 0.27176 0.0
H1732 H 0.07965 0.34687 0.22918 0.0
H1733 H 0.09946 0.36905 0.25456 0.0
H1734 H 0.065 0.4255 0.23252 0.0
H1735 H 0.04454 0.40294 0.20716 0.0
C1736 C 0.13272 0.4203 0.27555 0.0
C1737 C 0.12389 0.43685 0.28829 0.0
C1738 C 0.11976 0.40839 0.26158 0.0
C1739 C 0.09754 0.41257 0.25998 0.0
C1740 C 0.08862 0.42926 0.27256 0.0
C1741 C 0.1017 0.44129 0.28664 0.0
C1742 C 0.07622 0.364 0.22966 0.0
C1743 C 0.06066 0.37317 0.21597 0.0
C1744 C 0.08766 0.37676 0.24421 0.0
C1745 C 0.08401 0.3991 0.24541 0.0
C1746 C 0.06811 0.40831 0.23206 0.0
C1747 C 0.05652 0.39544 0.21744 0.0
H1748 H 0.66135 0.08739 0.22454 0.0
H1749 H 0.60618 0.05012 0.2038 0.0
H1750 H 0.63874 0.10718 0.24959 0.0
H1751 H 0.58322 0.07047 0.22882 0.0
H1752 H 0.55529 0.09784 0.29345 0.0
H1753 H 0.57666 0.07633 0.268 0.0
H1754 H 0.6106 0.1339 0.24812 0.0
H1755 H 0.58981 0.1551 0.27362 0.0
C1756 C 0.64432 0.08351 0.2252 0.0
C1757 C 0.63555 0.06725 0.21206 0.0
C1758 C 0.63131 0.09496 0.23954 0.0
C1759 C 0.60912 0.09054 0.24112 0.0
C1760 C 0.60029 0.07415 0.22809 0.0
C1761 C 0.61339 0.06263 0.21366 0.0
C1762 C 0.56738 0.10582 0.28366 0.0
C1763 C 0.57098 0.12813 0.2857 0.0
C1764 C 0.57949 0.09355 0.26898 0.0
C1765 C 0.59544 0.10338 0.25613 0.0
C1766 C 0.59875 0.12573 0.25804 0.0
C1767 C 0.58674 0.13792 0.27264 0.0
H1768 H 0.91722 0.66279 0.22789 0.0
H1769 H 0.95106 0.60687 0.20363 0.0
H1770 H 0.89821 0.64028 0.25368 0.0
H1771 H 0.93144 0.58404 0.22927 0.0
H1772 H 0.90708 0.55376 0.29299 0.0
H1773 H 0.92778 0.57606 0.26776 0.0
H1774 H 0.87055 0.61354 0.25425 0.0
H1775 H 0.85019 0.59179 0.2797 0.0
C1776 C 0.92048 0.64562 0.22792 0.0
C1777 C 0.93558 0.63661 0.2136 0.0
C1778 C 0.90948 0.63267 0.2427 0.0
C1779 C 0.91317 0.6103 0.24351 0.0
C1780 C 0.92836 0.60124 0.22923 0.0
C1781 C 0.93947 0.61428 0.21442 0.0
C1782 C 0.89902 0.56689 0.28474 0.0
C1783 C 0.87703 0.57109 0.28845 0.0
C1784 C 0.91082 0.57954 0.27014 0.0
C1785 C 0.90085 0.59663 0.25898 0.0
C1786 C 0.87887 0.60077 0.2628 0.0
C1787 C 0.86715 0.58822 0.27737 0.0
H1788 H 0.45169 0.90999 0.29538 0.0
H1789 H 0.41532 0.85314 0.2778 0.0
H1790 H 0.43116 0.93112 0.26901 0.0
H1791 H 0.39541 0.87392 0.2513 0.0
H1792 H 0.40478 0.95551 0.20316 0.0
H1793 H 0.42604 0.93544 0.22982 0.0
H1794 H 0.36852 0.90143 0.24981 0.0
H1795 H 0.34764 0.92083 0.22307 0.0
C1796 C 0.43927 0.90204 0.28598 0.0
C1797 C 0.43503 0.87993 0.28879 0.0
C1798 C 0.42768 0.91408 0.27073 0.0
C1799 C 0.41162 0.90423 0.25804 0.0
C1800 C 0.4074 0.88214 0.26101 0.0
C1801 C 0.41889 0.87018 0.27621 0.0
C1802 C 0.39679 0.94361 0.21316 0.0
C1803 C 0.37457 0.93965 0.21087 0.0
C1804 C 0.4089 0.93227 0.22856 0.0
C1805 C 0.39899 0.91677 0.24192 0.0
C1806 C 0.37677 0.91295 0.23957 0.0
C1807 C 0.36476 0.92417 0.22423 0.0
H1808 H 0.15372 0.57796 0.72748 0.0
H1809 H 0.09694 0.54178 0.70937 0.0
H1810 H 0.13237 0.59902 0.7527 0.0
H1811 H 0.07528 0.5634 0.73438 0.0
H1812 H 0.04842 0.59413 0.79745 0.0
H1813 H 0.06906 0.57097 0.77285 0.0
H1814 H 0.10537 0.62649 0.75135 0.0
H1815 H 0.08537 0.64926 0.77604 0.0
C1816 C 0.13662 0.57459 0.72877 0.0
C1817 C 0.12701 0.55829 0.7163 0.0
C1818 C 0.12433 0.58675 0.7432 0.0
C1819 C 0.10205 0.58305 0.74547 0.0
C1820 C 0.09243 0.56655 0.73317 0.0
C1821 C 0.1048 0.55429 0.71872 0.0
C1822 C 0.06087 0.60129 0.78748 0.0
C1823 C 0.06536 0.62348 0.78883 0.0
C1824 C 0.0726 0.58808 0.7733 0.0
C1825 C 0.08901 0.59684 0.76023 0.0
C1826 C 0.0932 0.61908 0.76147 0.0
C1827 C 0.0816 0.63219 0.7756 0.0
H1828 H 0.34448 0.08228 0.77172 0.0
H1829 H 0.40276 0.04852 0.78968 0.0
H1830 H 0.36476 0.10357 0.74574 0.0
H1831 H 0.42328 0.07032 0.76397 0.0
H1832 H 0.44921 0.10008 0.70079 0.0
H1833 H 0.42873 0.07686 0.72543 0.0
H1834 H 0.39091 0.13187 0.74559 0.0
H1835 H 0.41077 0.1547 0.72083 0.0
C1836 C 0.36168 0.07953 0.77026 0.0
C1837 C 0.37202 0.06379 0.78286 0.0
C1838 C 0.37335 0.09179 0.75538 0.0
C1839 C 0.3957 0.08873 0.75279 0.0
C1840 C 0.40605 0.07292 0.76536 0.0
C1841 C 0.39433 0.06057 0.78023 0.0
C1842 C 0.4364 0.10711 0.71039 0.0
C1843 C 0.43157 0.1292 0.70877 0.0
C1844 C 0.42478 0.09386 0.72462 0.0
C1845 C 0.40811 0.10248 0.73747 0.0
C1846 C 0.40334 0.12457 0.7357 0.0
C1847 C 0.41486 0.13771 0.72154 0.0
H1848 H 0.90049 0.44737 0.70687 0.0
H1849 H 0.84289 0.41233 0.72462 0.0
H1850 H 0.92141 0.42584 0.73242 0.0
H1851 H 0.8636 0.39122 0.75045 0.0
H1852 H 0.91119 0.34293 0.77919 0.0
H1853 H 0.89076 0.36376 0.75289 0.0
H1854 H 0.92593 0.42118 0.771 0.0
H1855 H 0.94679 0.40017 0.797 0.0
C1856 C 0.89231 0.43502 0.71615 0.0
C1857 C 0.87004 0.43154 0.71368 0.0
C1858 C 0.90426 0.42281 0.73095 0.0
C1859 C 0.89418 0.40685 0.74361 0.0
C1860 C 0.87196 0.40318 0.74082 0.0
C1861 C 0.86005 0.41535 0.72603 0.0
C1862 C 0.9145 0.36003 0.77766 0.0
C1863 C 0.9306 0.3699 0.79022 0.0
C1864 C 0.90272 0.372 0.7626 0.0
C1865 C 0.90671 0.39416 0.75975 0.0
C1866 C 0.92266 0.40408 0.77252 0.0
C1867 C 0.93449 0.39208 0.78757 0.0
H1868 H 0.65533 0.91891 0.76993 0.0
H1869 H 0.59873 0.95296 0.79228 0.0
H1870 H 0.6335 0.89914 0.74422 0.0
H1871 H 0.57652 0.93251 0.76662 0.0
H1872 H 0.58631 0.84843 0.72194 0.0
H1873 H 0.60707 0.87094 0.7462 0.0
H1874 H 0.56923 0.92643 0.72752 0.0
H1875 H 0.54784 0.90351 0.70329 0.0
C1876 C 0.63815 0.9221 0.76945 0.0
C1877 C 0.62873 0.93737 0.78333 0.0
C1878 C 0.6256 0.91068 0.75471 0.0
C1879 C 0.60321 0.91405 0.7535 0.0
C1880 C 0.59375 0.92964 0.76706 0.0
C1881 C 0.60642 0.94122 0.78186 0.0
C1882 C 0.58241 0.86545 0.72283 0.0
C1883 C 0.56547 0.87419 0.71057 0.0
C1884 C 0.59442 0.87841 0.73673 0.0
C1885 C 0.58994 0.90054 0.73872 0.0
C1886 C 0.57298 0.9094 0.72646 0.0
C1887 C 0.56087 0.89633 0.71246 0.0
H1888 H 0.22533 0.0922 0.33686 0.0
H1889 H 0.20707 0.05851 0.39509 0.0
H1890 H 0.25198 0.11284 0.35709 0.0
H1891 H 0.23338 0.07956 0.41549 0.0
H1892 H 0.28118 0.16156 0.4044 0.0
H1893 H 0.25506 0.1407 0.38376 0.0
H1894 H 0.27191 0.08362 0.4201 0.0
H1895 H 0.29772 0.10469 0.44115 0.0
C1896 C 0.22684 0.08936 0.35404 0.0
C1897 C 0.21406 0.07372 0.36436 0.0
C1898 C 0.24209 0.10125 0.36567 0.0
C1899 C 0.24492 0.09785 0.38794 0.0
C1900 C 0.23191 0.08237 0.3983 0.0
C1901 C 0.21668 0.07043 0.38665 0.0
C1902 C 0.27944 0.14452 0.40789 0.0
C1903 C 0.29154 0.13479 0.42443 0.0
C1904 C 0.26449 0.13252 0.39599 0.0
C1905 C 0.26128 0.11046 0.40029 0.0
C1906 C 0.27369 0.10064 0.41658 0.0
C1907 C 0.28864 0.11267 0.42853 0.0
H1908 H 0.85777 0.29366 0.40901 0.0
H1909 H 0.8977 0.28454 0.46528 0.0
H1910 H 0.87938 0.26774 0.3892 0.0
H1911 H 0.91874 0.25726 0.44593 0.0
H1912 H 0.96309 0.22164 0.39743 0.0
H1913 H 0.94374 0.24854 0.41893 0.0
H1914 H 0.88439 0.2312 0.38644 0.0
H1915 H 0.90406 0.20566 0.36421 0.0
C1916 C 0.87119 0.28596 0.41716 0.0
C1917 C 0.87602 0.291 0.43867 0.0
C1918 C 0.88348 0.27084 0.4059 0.0
C1919 C 0.90059 0.25984 0.41604 0.0
C1920 C 0.9058 0.2654 0.43748 0.0
C1921 C 0.89374 0.28099 0.44862 0.0
C1922 C 0.94587 0.22356 0.39513 0.0
C1923 C 0.93507 0.21178 0.37907 0.0
C1924 C 0.93473 0.23894 0.40745 0.0
C1925 C 0.91248 0.2425 0.4042 0.0
C1926 C 0.90161 0.22964 0.38893 0.0
C1927 C 0.91282 0.21474 0.37632 0.0
H1928 H 0.7287 0.84348 0.42229 0.0
H1929 H 0.70735 0.90029 0.45663 0.0
H1930 H 0.75515 0.86479 0.40305 0.0
H1931 H 0.73381 0.92204 0.43664 0.0
H1932 H 0.79866 0.94894 0.40894 0.0
H1933 H 0.77308 0.92841 0.43114 0.0
H1934 H 0.75463 0.89129 0.37507 0.0
H1935 H 0.78029 0.91117 0.35328 0.0
C1936 C 0.72953 0.86062 0.42564 0.0
C1937 C 0.71572 0.87023 0.44086 0.0
C1938 C 0.74471 0.87288 0.4145 0.0
C1939 C 0.74646 0.89519 0.41806 0.0
C1940 C 0.73295 0.90486 0.4336 0.0
C1941 C 0.7177 0.89246 0.44492 0.0
C1942 C 0.78925 0.93625 0.40148 0.0
C1943 C 0.79166 0.93155 0.3794 0.0
C1944 C 0.77446 0.92464 0.41413 0.0
C1945 C 0.76188 0.90812 0.40492 0.0
C1946 C 0.76433 0.9036 0.38282 0.0
C1947 C 0.77904 0.91508 0.37028 0.0
H1948 H 0.09225 0.77945 0.35371 0.0
H1949 H 0.05282 0.79569 0.4089 0.0
H1950 H 0.11198 0.75351 0.37519 0.0
H1951 H 0.07324 0.76981 0.43085 0.0
H1952 H 0.10046 0.70412 0.4554 0.0
H1953 H 0.07949 0.73087 0.43525 0.0
H1954 H 0.1378 0.75242 0.40362 0.0
H1955 H 0.15847 0.72548 0.42313 0.0
C1956 C 0.08792 0.77766 0.37056 0.0
C1957 C 0.07099 0.78974 0.37961 0.0
C1958 C 0.09936 0.7628 0.38294 0.0
C1959 C 0.09434 0.75964 0.40481 0.0
C1960 C 0.07741 0.77174 0.41399 0.0
C1961 C 0.06583 0.78668 0.40149 0.0
C1962 C 0.10872 0.71451 0.44404 0.0
C1963 C 0.13108 0.71252 0.4407 0.0
C1964 C 0.09675 0.72998 0.43265 0.0
C1965 C 0.10693 0.74376 0.41774 0.0
C1966 C 0.12934 0.74184 0.41466 0.0
C1967 C 0.14123 0.72639 0.42591 0.0
H1968 H 0.22306 0.91658 0.65187 0.0
H1969 H 0.20351 0.95186 0.59499 0.0
H1970 H 0.24939 0.89687 0.63079 0.0
H1971 H 0.22978 0.93144 0.57351 0.0
H1972 H 0.27637 0.84824 0.58425 0.0
H1973 H 0.25002 0.86946 0.60379 0.0
H1974 H 0.2691 0.92632 0.56822 0.0
H1975 H 0.29539 0.90468 0.54797 0.0
C1976 C 0.2242 0.91997 0.63476 0.0
C1977 C 0.21106 0.93571 0.62509 0.0
C1978 C 0.23931 0.90858 0.62263 0.0
C1979 C 0.24165 0.91245 0.60041 0.0
C1980 C 0.22851 0.92821 0.59063 0.0
C1981 C 0.21333 0.93974 0.60287 0.0
C1982 C 0.27511 0.86529 0.5806 0.0
C1983 C 0.28811 0.8748 0.56463 0.0
C1984 C 0.25999 0.8775 0.59189 0.0
C1985 C 0.2575 0.89964 0.58769 0.0
C1986 C 0.27049 0.90925 0.57171 0.0
C1987 C 0.28568 0.89693 0.56027 0.0
H1988 H 0.04183 0.20246 0.59447 0.0
H1989 H 0.08065 0.22327 0.64856 0.0
H1990 H 0.06218 0.22696 0.57075 0.0
H1991 H 0.10031 0.24766 0.62532 0.0
H1992 H 0.09151 0.29235 0.54334 0.0
H1993 H 0.06928 0.26684 0.56411 0.0
H1994 H 0.12649 0.24385 0.5966 0.0
H1995 H 0.14832 0.26927 0.57657 0.0
C1996 C 0.05466 0.21219 0.60127 0.0
C1997 C 0.05977 0.21075 0.62334 0.0
C1998 C 0.06617 0.22631 0.58776 0.0
C1999 C 0.08298 0.23909 0.59613 0.0
C2000 C 0.08776 0.23775 0.61824 0.0
C2001 C 0.07639 0.22376 0.63161 0.0
C2002 C 0.09923 0.28181 0.55495 0.0
C2003 C 0.12161 0.28306 0.55855 0.0
C2004 C 0.08656 0.26713 0.5667 0.0
C2005 C 0.09611 0.25352 0.58217 0.0
C2006 C 0.11855 0.25442 0.58516 0.0
C2007 C 0.13109 0.26902 0.5736 0.0
H2008 H 0.77924 0.03656 0.60227 0.0
H2009 H 0.79369 0.09277 0.64068 0.0
H2010 H 0.75141 0.05672 0.58307 0.0
H2011 H 0.76713 0.11348 0.62065 0.0
H2012 H 0.705 0.1414 0.59849 0.0
H2013 H 0.73075 0.11863 0.61735 0.0
H2014 H 0.7422 0.08302 0.55834 0.0
H2015 H 0.71513 0.10499 0.54005 0.0
C2016 C 0.77678 0.05341 0.60622 0.0
C2017 C 0.78852 0.06311 0.62299 0.0
C2018 C 0.76084 0.06504 0.5952 0.0
C2019 C 0.75662 0.08678 0.60042 0.0
C2020 C 0.76923 0.09663 0.61658 0.0
C2021 C 0.78473 0.08486 0.62792 0.0
C2022 C 0.71277 0.12843 0.58971 0.0
C2023 C 0.70809 0.12491 0.56787 0.0
C2024 C 0.72782 0.11552 0.60041 0.0
C2025 C 0.73911 0.09917 0.58934 0.0
C2026 C 0.73382 0.09525 0.56756 0.0
C2027 C 0.71829 0.10785 0.55701 0.0
H2028 H 0.9046 0.70464 0.54631 0.0
H2029 H 0.84865 0.72727 0.58126 0.0
H2030 H 0.92733 0.72997 0.56672 0.0
H2031 H 0.87097 0.75253 0.60098 0.0
H2032 H 0.95556 0.79414 0.5968 0.0
H2033 H 0.93469 0.76965 0.57354 0.0
H2034 H 0.89788 0.74881 0.62895 0.0
H2035 H 0.91807 0.77318 0.65177 0.0
C2036 C 0.89716 0.71504 0.55822 0.0
C2037 C 0.87488 0.71372 0.56238 0.0
C2038 C 0.91012 0.72963 0.56978 0.0
C2039 C 0.90098 0.74308 0.58566 0.0
C2040 C 0.87862 0.7421 0.58923 0.0
C2041 C 0.86579 0.7276 0.57783 0.0
C2042 C 0.94293 0.78436 0.6039 0.0
C2043 C 0.93833 0.78578 0.62609 0.0
C2044 C 0.93111 0.77025 0.59063 0.0
C2045 C 0.91448 0.75745 0.59937 0.0
C2046 C 0.91025 0.75874 0.6216 0.0
C2047 C 0.92193 0.77272 0.63473 0.0
H2048 H 0.41505 0.27544 0.15083 0.0
H2049 H 0.45313 0.29577 0.09605 0.0
H2050 H 0.39572 0.25015 0.12829 0.0
H2051 H 0.43307 0.27051 0.07302 0.0
H2052 H 0.40638 0.20577 0.04517 0.0
H2053 H 0.42744 0.23147 0.06663 0.0
H2054 H 0.3694 0.25064 0.10022 0.0
H2055 H 0.34868 0.22479 0.07941 0.0
C2056 C 0.41917 0.27469 0.13386 0.0
C2057 C 0.43558 0.28775 0.12521 0.0
C2058 C 0.40796 0.26019 0.12088 0.0
C2059 C 0.41269 0.25838 0.09879 0.0
C2060 C 0.42915 0.2714 0.09003 0.0
C2061 C 0.4405 0.28599 0.10314 0.0
C2062 C 0.39822 0.21538 0.05728 0.0
C2063 C 0.3759 0.21308 0.06075 0.0
C2064 C 0.41023 0.23024 0.06941 0.0
C2065 C 0.40013 0.24307 0.0852 0.0
C2066 C 0.3778 0.24078 0.08847 0.0
C2067 C 0.36587 0.22594 0.07648 0.0
H2068 H 0.34409 0.77473 0.91494 0.0
H2069 H 0.40056 0.79287 0.95157 0.0
H2070 H 0.36557 0.74923 0.89427 0.0
H2071 H 0.42229 0.76759 0.93044 0.0
H2072 H 0.44916 0.70382 0.90359 0.0
H2073 H 0.42768 0.72913 0.92485 0.0
H2074 H 0.3933 0.74817 0.86726 0.0
H2075 H 0.41437 0.72258 0.84617 0.0
C2076 C 0.36116 0.77341 0.91848 0.0
C2077 C 0.37062 0.78587 0.9349 0.0
C2078 C 0.37352 0.75882 0.90653 0.0
C2079 C 0.3957 0.75634 0.91063 0.0
C2080 C 0.4052 0.76889 0.92703 0.0
C2081 C 0.39279 0.7835 0.93903 0.0
C2082 C 0.43692 0.71333 0.89551 0.0
C2083 C 0.43342 0.71112 0.8732 0.0
C2084 C 0.42473 0.72797 0.90766 0.0
C2085 C 0.40876 0.74075 0.89778 0.0
C2086 C 0.40524 0.73841 0.87548 0.0
C2087 C 0.41739 0.72377 0.86335 0.0
H2088 H 0.29502 0.44987 0.90461 0.0
H2089 H 0.27702 0.41273 0.84842 0.0
H2090 H 0.26984 0.42866 0.92653 0.0
H2091 H 0.25167 0.39213 0.86997 0.0
H2092 H 0.22506 0.34401 0.91763 0.0
H2093 H 0.25109 0.36528 0.89749 0.0
H2094 H 0.23128 0.4225 0.93209 0.0
H2095 H 0.20548 0.40092 0.95281 0.0
C2096 C 0.28574 0.43718 0.89696 0.0
C2097 C 0.28812 0.43291 0.87481 0.0
C2098 C 0.27119 0.42516 0.90946 0.0
C2099 C 0.25874 0.40864 0.90004 0.0
C2100 C 0.26123 0.40444 0.87788 0.0
C2101 C 0.27574 0.41636 0.86547 0.0
C2102 C 0.22617 0.36114 0.92094 0.0
C2103 C 0.2131 0.37079 0.93675 0.0
C2104 C 0.24107 0.37338 0.90931 0.0
C2105 C 0.24324 0.39565 0.91306 0.0
C2106 C 0.2302 0.40534 0.92895 0.0
C2107 C 0.21529 0.39303 0.94068 0.0
H2108 H 0.65494 0.22548 0.91375 0.0
H2109 H 0.59968 0.20321 0.95 0.0
H2110 H 0.63214 0.25026 0.89392 0.0
H2111 H 0.57649 0.22794 0.92954 0.0
H2112 H 0.54762 0.29224 0.90221 0.0
H2113 H 0.56892 0.2668 0.92379 0.0
H2114 H 0.60473 0.24874 0.86674 0.0
H2115 H 0.58404 0.27428 0.84553 0.0
C2116 C 0.63784 0.22573 0.91739 0.0
C2117 C 0.62911 0.21224 0.93339 0.0
C2118 C 0.62471 0.23993 0.9059 0.0
C2119 C 0.60243 0.24099 0.90997 0.0
C2120 C 0.59363 0.22762 0.92611 0.0
C2121 C 0.60686 0.21335 0.93771 0.0
C2122 C 0.56009 0.28284 0.89436 0.0
C2123 C 0.56429 0.28545 0.87221 0.0
C2124 C 0.57218 0.26817 0.90667 0.0
C2125 C 0.58866 0.25585 0.89704 0.0
C2126 C 0.59248 0.25826 0.87481 0.0
C2127 C 0.58053 0.27288 0.8626 0.0
H2128 H 0.7108 0.5933 0.85869 0.0
H2129 H 0.72302 0.53735 0.89825 0.0
H2130 H 0.73691 0.61386 0.87941 0.0
H2131 H 0.75043 0.5574 0.91825 0.0
H2132 H 0.78466 0.60639 0.96256 0.0
H2133 H 0.75857 0.58405 0.94319 0.0
H2134 H 0.77312 0.61876 0.88433 0.0
H2135 H 0.79782 0.64185 0.90415 0.0
C2136 C 0.71925 0.58537 0.87179 0.0
C2137 C 0.71491 0.56376 0.87686 0.0
C2138 C 0.73448 0.59707 0.88356 0.0
C2139 C 0.74627 0.58729 0.90037 0.0
C2140 C 0.74163 0.56565 0.90562 0.0
C2141 C 0.72595 0.55408 0.89412 0.0
C2142 C 0.78237 0.60898 0.94542 0.0
C2143 C 0.79309 0.62589 0.93484 0.0
C2144 C 0.76743 0.59617 0.93425 0.0
C2145 C 0.76328 0.59974 0.91215 0.0
C2146 C 0.77514 0.61592 0.90144 0.0
C2147 C 0.78958 0.62902 0.91272 0.0
H2148 H 0.55415 0.70655 0.10313 0.0
H2149 H 0.58867 0.72713 0.16009 0.0
H2150 H 0.57497 0.73193 0.08137 0.0
H2151 H 0.60914 0.75281 0.13845 0.0
H2152 H 0.59886 0.79596 0.05352 0.0
H2153 H 0.57855 0.77045 0.07561 0.0
H2154 H 0.63661 0.75486 0.11092 0.0
H2155 H 0.65678 0.78069 0.08916 0.0
C2156 C 0.56621 0.71646 0.111 0.0
C2157 C 0.56976 0.7148 0.13334 0.0
C2158 C 0.57803 0.73115 0.09856 0.0
C2159 C 0.59367 0.74453 0.10816 0.0
C2160 C 0.5974 0.74262 0.13047 0.0
C2161 C 0.5856 0.72793 0.1429 0.0
C2162 C 0.60725 0.78718 0.06609 0.0
C2163 C 0.62943 0.79038 0.0696 0.0
C2164 C 0.59565 0.77241 0.07864 0.0
C2165 C 0.60595 0.76049 0.09499 0.0
C2166 C 0.62809 0.76392 0.09864 0.0
C2167 C 0.63969 0.77868 0.0861 0.0
H2168 H 0.22202 0.65547 0.09128 0.0
H2169 H 0.20373 0.59735 0.05741 0.0
H2170 H 0.2485 0.63518 0.11195 0.0
H2171 H 0.22995 0.57684 0.07854 0.0
H2172 H 0.29561 0.55244 0.10261 0.0
H2173 H 0.26874 0.57272 0.0821 0.0
H2174 H 0.25191 0.60841 0.13961 0.0
H2175 H 0.27906 0.58859 0.15987 0.0
C2176 C 0.22343 0.63827 0.08846 0.0
C2177 C 0.21076 0.62802 0.07269 0.0
C2178 C 0.2386 0.62661 0.10037 0.0
C2179 C 0.24145 0.60437 0.09687 0.0
C2180 C 0.22843 0.59402 0.08141 0.0
C2181 C 0.21325 0.60572 0.06944 0.0
C2182 C 0.28629 0.56474 0.1108 0.0
C2183 C 0.28953 0.56896 0.13284 0.0
C2184 C 0.27073 0.57623 0.0991 0.0
C2185 C 0.25807 0.59215 0.10921 0.0
C2186 C 0.26152 0.59647 0.13122 0.0
C2187 C 0.27708 0.58504 0.14287 0.0
H2188 H 0.71748 0.46583 0.11085 0.0
H2189 H 0.70782 0.40778 0.148 0.0
H2190 H 0.74483 0.4475 0.08917 0.0
H2191 H 0.73376 0.38889 0.12556 0.0
H2192 H 0.79507 0.36404 0.09864 0.0
H2193 H 0.76992 0.38532 0.11987 0.0
H2194 H 0.75356 0.42241 0.06297 0.0
H2195 H 0.78015 0.40197 0.04226 0.0
C2196 C 0.72091 0.44899 0.11402 0.0
C2197 C 0.7107 0.43822 0.13113 0.0
C2198 C 0.73656 0.43841 0.10158 0.0
C2199 C 0.74194 0.41669 0.10572 0.0
C2200 C 0.73079 0.40578 0.12228 0.0
C2201 C 0.71565 0.41651 0.13502 0.0
C2202 C 0.78632 0.37701 0.09083 0.0
C2203 C 0.78949 0.3814 0.06888 0.0
C2204 C 0.77162 0.38906 0.10289 0.0
C2205 C 0.75913 0.40536 0.09313 0.0
C2206 C 0.7629 0.41017 0.0712 0.0
C2207 C 0.77812 0.39845 0.05926 0.0
H2208 H 0.94989 0.2104 0.27607 0.0
H2209 H 0.01627 0.21161 0.29656 0.0
H2210 H 0.95882 0.23319 0.24521 0.0
H2211 H 0.02517 0.23584 0.26698 0.0
H2212 H 0.04112 0.27154 0.20734 0.0
H2213 H 0.03119 0.24182 0.2311 0.0
H2214 H 0.96662 0.26805 0.23611 0.0
H2215 H 0.97627 0.29624 0.21055 0.0
C2216 C 0.9665 0.21533 0.27368 0.0
C2217 C 0.9826 0.20854 0.28804 0.0
C2218 C 0.97161 0.22877 0.25625 0.0
C2219 C 0.99283 0.23646 0.25329 0.0
C2220 C 0.00881 0.22986 0.2681 0.0
C2221 C 0.00371 0.21613 0.28526 0.0
C2222 C 0.02456 0.27023 0.21275 0.0
C2223 C 0.00922 0.28559 0.20643 0.0
C2224 C 0.01893 0.25352 0.22687 0.0
C2225 C 0.99806 0.25242 0.23589 0.0
C2226 C 0.9827 0.26786 0.22931 0.0
C2227 C 0.98823 0.28421 0.21477 0.0
H2228 H 0.78903 0.01952 0.30329 0.0
H2229 H 0.79044 0.95299 0.28326 0.0
H2230 H 0.76485 0.02814 0.27331 0.0
H2231 H 0.76688 0.96141 0.25287 0.0
H2232 H 0.70724 0.9804 0.21344 0.0
H2233 H 0.73222 0.97068 0.24216 0.0
H2234 H 0.76359 0.0327 0.23563 0.0
H2235 H 0.73731 0.04285 0.20809 0.0
C2236 C 0.78428 0.00682 0.29226 0.0
C2237 C 0.79224 0.98582 0.29492 0.0
C2238 C 0.77056 0.01172 0.27498 0.0
C2239 C 0.7642 0.9956 0.26021 0.0
C2240 C 0.77135 0.97431 0.26376 0.0
C2241 C 0.78511 0.96949 0.28099 0.0
C2242 C 0.71976 0.99175 0.21793 0.0
C2243 C 0.72078 0.01211 0.20809 0.0
C2244 C 0.73417 0.98619 0.23438 0.0
C2245 C 0.74997 0.00091 0.24145 0.0
C2246 C 0.75145 0.02104 0.23096 0.0
C2247 C 0.73677 0.0267 0.21472 0.0
H2248 H 0.96015 0.738 0.20814 0.0
H2249 H 0.02282 0.7083 0.21247 0.0
H2250 H 0.97111 0.76539 0.23413 0.0
H2251 H 0.03328 0.73413 0.24014 0.0
H2252 H 0.05212 0.79103 0.28161 0.0
H2253 H 0.04304 0.76826 0.2508 0.0
H2254 H 0.97613 0.76841 0.27094 0.0
H2255 H 0.98537 0.79218 0.30092 0.0
C2256 C 0.97651 0.73775 0.21423 0.0
C2257 C 0.99095 0.72163 0.20764 0.0
C2258 C 0.98265 0.75307 0.22965 0.0
C2259 C 0.00307 0.75198 0.23962 0.0
C2260 C 0.01759 0.73589 0.23271 0.0
C2261 C 0.01158 0.72094 0.2169 0.0
C2262 C 0.03542 0.78652 0.27903 0.0
C2263 C 0.01925 0.79411 0.2929 0.0
C2264 C 0.0302 0.77315 0.26159 0.0
C2265 C 0.00871 0.76663 0.25797 0.0
C2266 C 0.99272 0.77363 0.27258 0.0
C2267 C 0.99797 0.7871 0.28991 0.0
H2268 H 0.20234 0.04353 0.26514 0.0
H2269 H 0.21669 0.98342 0.297 0.0
H2270 H 0.22848 0.03497 0.23689 0.0
H2271 H 0.24384 0.97533 0.26966 0.0
H2272 H 0.28154 0.95945 0.20896 0.0
H2273 H 0.25136 0.96603 0.23339 0.0
H2274 H 0.26709 0.03401 0.2341 0.0
H2275 H 0.29698 0.02724 0.2091 0.0
C2276 C 0.21062 0.02816 0.2657 0.0
C2277 C 0.20702 0.01379 0.28283 0.0
C2278 C 0.226 0.02348 0.24982 0.0
C2279 C 0.23851 0.00456 0.25107 0.0
C2280 C 0.23439 0.98992 0.26796 0.0
C2281 C 0.21887 0.99455 0.28369 0.0
C2282 C 0.27828 0.97582 0.21416 0.0
C2283 C 0.29098 0.99298 0.20663 0.0
C2284 C 0.26117 0.97959 0.22836 0.0
C2285 C 0.25654 1.0006 0.23559 0.0
C2286 C 0.26977 0.0177 0.22846 0.0
C2287 C 0.28697 0.01387 0.21428 0.0
H2288 H 0.04598 0.72642 0.79605 0.0
H2289 H 0.98173 0.70041 0.79126 0.0
H2290 H 0.03648 0.75506 0.77083 0.0
H2291 H 0.97271 0.72722 0.76418 0.0
H2292 H 0.02344 0.78532 0.70527 0.0
H2293 H 0.0317 0.76033 0.73456 0.0
H2294 H 0.96448 0.76117 0.75373 0.0
H2295 H 0.95639 0.78485 0.72349 0.0
C2296 C 0.0296 0.72728 0.79006 0.0
C2297 C 0.01429 0.71185 0.79632 0.0
C2298 C 0.02428 0.74328 0.77502 0.0
C2299 C 0.00383 0.74352 0.76504 0.0
C2300 C 0.98847 0.72808 0.77164 0.0
C2301 C 0.99364 0.71253 0.78712 0.0
C2302 C 0.01056 0.78011 0.71589 0.0
C2303 C 0.98948 0.78764 0.71281 0.0
C2304 C 0.01526 0.76596 0.73287 0.0
C2305 C 0.99889 0.75888 0.74704 0.0
C2306 C 0.97761 0.76599 0.74328 0.0
C2307 C 0.97295 0.77992 0.72617 0.0
H2308 H 0.21456 0.02366 0.70202 0.0
H2309 H 0.21209 0.95579 0.7169 0.0
H2310 H 0.24059 0.02915 0.73134 0.0
H2311 H 0.23762 0.96109 0.7464 0.0
H2312 H 0.3026 0.97568 0.77972 0.0
H2313 H 0.27464 0.96914 0.75279 0.0
H2314 H 0.24386 0.02925 0.77026 0.0
H2315 H 0.27262 0.03617 0.79638 0.0
C2316 C 0.2195 0.01 0.71173 0.0
C2317 C 0.2109 0.98947 0.70777 0.0
C2318 C 0.23427 0.0131 0.72859 0.0
C2319 C 0.24104 0.9956 0.74147 0.0
C2320 C 0.23289 0.97493 0.73684 0.0
C2321 C 0.21808 0.97191 0.72011 0.0
C2322 C 0.2896 0.98724 0.77805 0.0
C2323 C 0.28943 0.00614 0.7905 0.0
C2324 C 0.27352 0.98351 0.76265 0.0
C2325 C 0.25701 0.99873 0.75921 0.0
C2326 C 0.25649 0.01733 0.77224 0.0
C2327 C 0.27266 0.02109 0.78757 0.0
H2328 H 0.04382 0.21535 0.71839 0.0
H2329 H 0.9757 0.21335 0.70474 0.0
H2330 H 0.03736 0.24049 0.74803 0.0
H2331 H 0.96899 0.23897 0.73408 0.0
H2332 H 0.96006 0.26935 0.79939 0.0
H2333 H 0.96859 0.24184 0.77245 0.0
H2334 H 0.02729 0.27606 0.75653 0.0
H2335 H 0.01928 0.3026 0.78445 0.0
C2336 C 0.02742 0.22027 0.72191 0.0
C2337 C 0.01013 0.21181 0.71 0.0
C2338 C 0.0237 0.23489 0.7387 0.0
C2339 C 0.00258 0.24154 0.74381 0.0
C2340 C 0.98539 0.23373 0.7311 0.0
C2341 C 0.98918 0.21919 0.71422 0.0
C2342 C 0.97521 0.2704 0.79074 0.0
C2343 C 0.98936 0.28768 0.79445 0.0
C2344 C 0.97987 0.25495 0.77492 0.0
C2345 C 0.99853 0.25679 0.76204 0.0
C2346 C 0.01291 0.27388 0.76622 0.0
C2347 C 0.00833 0.28916 0.78218 0.0
H2348 H 0.78414 0.97847 0.69919 0.0
H2349 H 0.79361 0.04328 0.72248 0.0
H2350 H 0.76004 0.97098 0.72944 0.0
H2351 H 0.77028 0.03575 0.75342 0.0
H2352 H 0.70598 0.02161 0.78885 0.0
H2353 H 0.73376 0.03016 0.76228 0.0
H2354 H 0.75801 0.96487 0.76693 0.0
H2355 H 0.72911 0.95614 0.79224 0.0
C2356 C 0.7813 0.99097 0.71108 0.0
C2357 C 0.79129 0.01115 0.70907 0.0
C2358 C 0.76766 0.98668 0.72854 0.0
C2359 C 0.76344 0.00262 0.7442 0.0
C2360 C 0.77308 0.02306 0.74173 0.0
C2361 C 0.78668 0.02733 0.72421 0.0
C2362 C 0.71755 0.00927 0.78442 0.0
C2363 C 0.71585 0.98841 0.79301 0.0
C2364 C 0.73356 0.01415 0.76927 0.0
C2365 C 0.74815 0.99819 0.76228 0.0
C2366 C 0.74688 0.9775 0.77161 0.0
C2367 C 0.73065 0.97258 0.78651 0.0
H2368 H 0.21475 0.29791 0.02278 0.0
H2369 H 0.20277 0.27093 0.95982 0.0
H2370 H 0.24322 0.27141 0.0288 0.0
H2371 H 0.2304 0.24352 0.96615 0.0
H2372 H 0.28326 0.21081 0.03949 0.0
H2373 H 0.25239 0.23476 0.03478 0.0
H2374 H 0.2693 0.24294 0.96757 0.0
H2375 H 0.30001 0.21844 0.97244 0.0
C2376 C 0.21774 0.28577 0.01055 0.0
C2377 C 0.20619 0.28608 0.99109 0.0
C2378 C 0.23404 0.27056 0.01396 0.0
C2379 C 0.2393 0.25539 0.99788 0.0
C2380 C 0.22706 0.25517 0.97874 0.0
C2381 C 0.21083 0.27051 0.97531 0.0
C2382 C 0.28019 0.21762 0.02368 0.0
C2383 C 0.29344 0.21227 0.00612 0.0
C2384 C 0.26265 0.23153 0.02101 0.0
C2385 C 0.25809 0.2406 1.00071 0.0
C2386 C 0.27195 0.23581 0.98329 0.0
C2387 C 0.28961 0.22194 0.98605 0.0
H2388 H 0.2105 0.72056 0.04562 0.0
H2389 H 0.21722 0.69892 0.97988 0.0
H2390 H 0.23459 0.75087 0.03834 0.0
H2391 H 0.24177 0.7291 0.97244 0.0
H2392 H 0.27006 0.79512 0.95997 0.0
H2393 H 0.24247 0.76816 0.96848 0.0
H2394 H 0.27166 0.75852 0.03109 0.0
H2395 H 0.29846 0.78614 0.0228 0.0
C2396 C 0.21713 0.72244 0.02954 0.0
C2397 C 0.21154 0.70794 0.01309 0.0
C2398 C 0.2311 0.73965 0.02541 0.0
C2399 C 0.23995 0.74264 0.00472 0.0
C2400 C 0.23484 0.72761 0.98841 0.0
C2401 C 0.22094 0.71027 0.99265 0.0
C2402 C 0.26995 0.78785 0.97585 0.0
C2403 C 0.28597 0.7931 0.99098 0.0
C2404 C 0.25448 0.77205 0.98057 0.0
C2405 C 0.25496 0.76095 1.00039 0.0
C2406 C 0.27061 0.76684 0.01577 0.0
C2407 C 0.286 0.78264 0.01105 0.0
H2408 H 0.78325 0.30445 0.98075 0.0
H2409 H 0.78338 0.28506 0.04748 0.0
H2410 H 0.75872 0.27476 0.97206 0.0
H2411 H 0.75952 0.25495 0.03902 0.0
H2412 H 0.73134 0.20941 0.95741 0.0
H2413 H 0.75722 0.2373 0.9676 0.0
H2414 H 0.72545 0.24362 0.02945 0.0
H2415 H 0.70099 0.21449 0.01975 0.0
C2416 C 0.77811 0.29363 0.99349 0.0
C2417 C 0.78585 0.29633 0.01456 0.0
C2418 C 0.76419 0.27652 0.98855 0.0
C2419 C 0.75745 0.26195 0.0047 0.0
C2420 C 0.76428 0.26566 0.02607 0.0
C2421 C 0.77822 0.28273 0.03093 0.0
C2422 C 0.73067 0.21605 0.97355 0.0
C2423 C 0.71473 0.20923 0.9881 0.0
C2424 C 0.74509 0.23252 0.97922 0.0
C2425 C 0.74337 0.24308 0.99931 0.0
C2426 C 0.72761 0.23582 0.01398 0.0
C2427 C 0.7135 0.21911 0.00843 0.0
H2428 H 0.78411 0.72412 0.95053 0.0
H2429 H 0.78613 0.70809 0.01813 0.0
H2430 H 0.75901 0.75361 0.95811 0.0
H2431 H 0.76064 0.73723 0.02592 0.0
H2432 H 0.69586 0.78788 0.97824 0.0
H2433 H 0.72311 0.76112 0.96876 0.0
H2434 H 0.75763 0.77569 0.02762 0.0
H2435 H 0.72953 0.80158 0.0375 0.0
C2436 C 0.77925 0.72711 0.96705 0.0
C2437 C 0.78765 0.71453 0.98388 0.0
C2438 C 0.76467 0.74381 0.97141 0.0
C2439 C 0.75804 0.74816 0.99272 0.0
C2440 C 0.76587 0.73485 0.00942 0.0
C2441 C 0.78034 0.71807 0.00499 0.0
C2442 C 0.70953 0.78561 0.9889 0.0
C2443 C 0.7109 0.79716 0.00833 0.0
C2444 C 0.72521 0.77031 0.98347 0.0
C2445 C 0.74257 0.76604 0.99748 0.0
C2446 C 0.74433 0.77826 0.01659 0.0
C2447 C 0.72851 0.79346 0.02207 0.0
H2448 H 0.46279 0.7011 0.77327 0.0
H2449 H 0.523 0.7153 0.80503 0.0
H2450 H 0.47063 0.7284 0.74594 0.0
H2451 H 0.53048 0.74341 0.77848 0.0
H2452 H 0.47758 0.79644 0.718 0.0
H2453 H 0.4714 0.7672 0.74395 0.0
H2454 H 0.53938 0.75157 0.74214 0.0
H2455 H 0.54534 0.78096 0.7166 0.0
C2456 C 0.47804 0.70959 0.77397 0.0
C2457 C 0.49261 0.70563 0.79085 0.0
C2458 C 0.4823 0.72565 0.75865 0.0
C2459 C 0.50108 0.73838 0.76011 0.0
C2460 C 0.51596 0.73386 0.77667 0.0
C2461 C 0.51171 0.71775 0.79191 0.0
C2462 C 0.49109 0.78665 0.72321 0.0
C2463 C 0.51176 0.79031 0.7148 0.0
C2464 C 0.48759 0.76984 0.73795 0.0
C2465 C 0.50483 0.7567 0.74489 0.0
C2466 C 0.52571 0.76128 0.73723 0.0
C2467 C 0.52912 0.77794 0.7224 0.0
H2468 H 0.28644 0.51992 0.79613 0.0
H2469 H 0.29035 0.45261 0.77925 0.0
H2470 H 0.26165 0.52609 0.76601 0.0
H2471 H 0.26645 0.45866 0.74859 0.0
H2472 H 0.20202 0.47247 0.71432 0.0
H2473 H 0.23032 0.46539 0.74063 0.0
H2474 H 0.25755 0.52844 0.72816 0.0
H2475 H 0.22809 0.53592 0.70307 0.0
C2476 C 0.28221 0.50655 0.78569 0.0
C2477 C 0.29077 0.48597 0.78948 0.0
C2478 C 0.26817 0.51005 0.76831 0.0
C2479 C 0.26214 0.49292 0.75457 0.0
C2480 C 0.27052 0.47224 0.75879 0.0
C2481 C 0.28446 0.46878 0.77618 0.0
C2482 C 0.21435 0.48459 0.71693 0.0
C2483 C 0.21325 0.50448 0.70622 0.0
C2484 C 0.23068 0.48055 0.73196 0.0
C2485 C 0.24629 0.49638 0.73672 0.0
C2486 C 0.24565 0.51598 0.72524 0.0
C2487 C 0.22909 0.52011 0.71042 0.0
H2488 H 0.54186 0.29738 0.77006 0.0
H2489 H 0.47844 0.29091 0.79775 0.0
H2490 H 0.53169 0.27311 0.74073 0.0
H2491 H 0.46872 0.26507 0.76992 0.0
H2492 H 0.45131 0.22664 0.71101 0.0
H2493 H 0.45992 0.25649 0.73511 0.0
H2494 H 0.52683 0.23637 0.73552 0.0
H2495 H 0.51806 0.20735 0.71034 0.0
C2496 C 0.52552 0.29124 0.76945 0.0
C2497 C 0.51065 0.29663 0.78563 0.0
C2498 C 0.51982 0.27683 0.753 0.0
C2499 C 0.49941 0.26675 0.75294 0.0
C2500 C 0.48444 0.27263 0.76901 0.0
C2501 C 0.49 0.2874 0.78511 0.0
C2502 C 0.46791 0.22901 0.71595 0.0
C2503 C 0.48421 0.21543 0.70815 0.0
C2504 C 0.47286 0.2459 0.73006 0.0
C2505 C 0.4942 0.24922 0.73719 0.0
C2506 C 0.51036 0.23493 0.7299 0.0
C2507 C 0.50537 0.21814 0.71564 0.0
H2508 H 0.77578 0.45749 0.71155 0.0
H2509 H 0.7974 0.52315 0.71888 0.0
H2510 H 0.74526 0.46462 0.73539 0.0
H2511 H 0.7672 0.53039 0.74339 0.0
H2512 H 0.70326 0.54284 0.775 0.0
H2513 H 0.72868 0.53473 0.74586 0.0
H2514 H 0.73796 0.47083 0.77228 0.0
H2515 H 0.7117 0.4787 0.80045 0.0
C2516 C 0.77381 0.47354 0.7182 0.0
C2517 C 0.78841 0.49 0.7129 0.0
C2518 C 0.75648 0.4776 0.73205 0.0
C2519 C 0.75355 0.49816 0.74122 0.0
C2520 C 0.76858 0.51451 0.73623 0.0
C2521 C 0.78597 0.51039 0.72236 0.0
C2522 C 0.71005 0.52678 0.77391 0.0
C2523 C 0.70509 0.51117 0.78955 0.0
C2524 C 0.72498 0.52226 0.75754 0.0
C2525 C 0.73563 0.50219 0.75681 0.0
C2526 C 0.72996 0.48636 0.77208 0.0
C2527 C 0.71495 0.49085 0.7883 0.0
H2528 H 0.48243 0.1985 0.28793 0.0
H2529 H 0.54457 0.22886 0.29477 0.0
H2530 H 0.47234 0.22501 0.26077 0.0
H2531 H 0.53391 0.25688 0.26934 0.0
H2532 H 0.52105 0.28625 0.2036 0.0
H2533 H 0.52977 0.26086 0.23243 0.0
H2534 H 0.46246 0.2594 0.25112 0.0
H2535 H 0.45395 0.28392 0.22156 0.0
C2536 C 0.4936 0.21143 0.28419 0.0
C2537 C 0.51398 0.21211 0.29399 0.0
C2538 C 0.48782 0.22675 0.26867 0.0
C2539 C 0.50231 0.24319 0.26261 0.0
C2540 C 0.52243 0.24428 0.27317 0.0
C2541 C 0.52836 0.22862 0.2883 0.0
C2542 C 0.50825 0.28049 0.21403 0.0
C2543 C 0.48703 0.28769 0.21112 0.0
C2544 C 0.5132 0.26608 0.23069 0.0
C2545 C 0.49694 0.25835 0.24463 0.0
C2546 C 0.47549 0.26489 0.24087 0.0
C2547 C 0.47059 0.27923 0.22415 0.0
H2548 H 0.77892 0.54713 0.29386 0.0
H2549 H 0.80346 0.48279 0.28436 0.0
H2550 H 0.74783 0.5388 0.27098 0.0
H2551 H 0.77286 0.47444 0.26093 0.0
H2552 H 0.70838 0.45816 0.23316 0.0
H2553 H 0.73497 0.46775 0.26066 0.0
H2554 H 0.73839 0.53231 0.23442 0.0
H2555 H 0.7108 0.52288 0.20792 0.0
C2556 C 0.77746 0.53111 0.28701 0.0
C2557 C 0.79301 0.51529 0.29151 0.0
C2558 C 0.75983 0.52639 0.27368 0.0
C2559 C 0.75756 0.50581 0.26431 0.0
C2560 C 0.77364 0.49024 0.26835 0.0
C2561 C 0.79127 0.49502 0.28162 0.0
C2562 C 0.71419 0.47462 0.23393 0.0
C2563 C 0.70707 0.48999 0.21893 0.0
C2564 C 0.72979 0.48002 0.24935 0.0
C2565 C 0.73908 0.50078 0.24968 0.0
C2566 C 0.73147 0.51628 0.23491 0.0
C2567 C 0.71573 0.51089 0.21965 0.0
H2568 H 0.47958 0.72017 0.20107 0.0
H2569 H 0.54015 0.70752 0.23282 0.0
H2570 H 0.47177 0.74864 0.2272 0.0
H2571 H 0.53206 0.73528 0.25961 0.0
H2572 H 0.52417 0.80462 0.28471 0.0
H2573 H 0.5306 0.77448 0.25986 0.0
H2574 H 0.46323 0.75686 0.26412 0.0
H2575 H 0.457 0.78709 0.28864 0.0
C2576 C 0.4909 0.72307 0.21408 0.0
C2577 C 0.51018 0.71129 0.21529 0.0
C2578 C 0.48645 0.73936 0.22906 0.0
C2579 C 0.50136 0.74441 0.24544 0.0
C2580 C 0.52036 0.73206 0.24703 0.0
C2581 C 0.52479 0.71579 0.232 0.0
C2582 C 0.51086 0.79418 0.28031 0.0
C2583 C 0.4903 0.79758 0.28908 0.0
C2584 C 0.5145 0.77688 0.2662 0.0
C2585 C 0.49749 0.76299 0.26023 0.0
C2586 C 0.4767 0.76717 0.26832 0.0
C2587 C 0.47315 0.78432 0.28254 0.0
H2588 H 0.28662 0.48071 0.2006 0.0
H2589 H 0.29962 0.54067 0.23333 0.0
H2590 H 0.25869 0.47222 0.2269 0.0
H2591 H 0.2726 0.53169 0.26069 0.0
H2592 H 0.21928 0.4553 0.2862 0.0
H2593 H 0.24977 0.46235 0.2623 0.0
H2594 H 0.23414 0.53037 0.26281 0.0
H2595 H 0.20397 0.52309 0.28732 0.0
C2596 C 0.28395 0.49173 0.21391 0.0
C2597 C 0.29561 0.51108 0.21526 0.0
C2598 C 0.26797 0.48687 0.22907 0.0
C2599 C 0.26319 0.50132 0.24592 0.0
C2600 C 0.27554 0.52034 0.24773 0.0
C2601 C 0.29139 0.52529 0.23238 0.0
C2602 C 0.22261 0.47177 0.28134 0.0
C2603 C 0.20993 0.48879 0.28918 0.0
C2604 C 0.23991 0.47582 0.26744 0.0
C2605 C 0.24473 0.49701 0.26081 0.0
C2606 C 0.23136 0.51394 0.26805 0.0
C2607 C 0.21399 0.50982 0.28193 0.0
H2608 H 0.79465 0.70812 0.4803 0.0
H2609 H 0.77447 0.70599 0.54675 0.0
H2610 H 0.76505 0.73252 0.47195 0.0
H2611 H 0.74342 0.72852 0.53831 0.0
H2612 H 0.70873 0.79168 0.52309 0.0
H2613 H 0.73427 0.76322 0.53168 0.0
H2614 H 0.72956 0.73955 0.46607 0.0
H2615 H 0.70593 0.76969 0.45724 0.0
C2616 C 0.78337 0.71241 0.49296 0.0
C2617 C 0.78627 0.70457 0.51396 0.0
C2618 C 0.76619 0.72623 0.48819 0.0
C2619 C 0.75145 0.73256 0.50436 0.0
C2620 C 0.75443 0.72442 0.5254 0.0
C2621 C 0.77195 0.71105 0.53021 0.0
C2622 C 0.71301 0.78015 0.51066 0.0
C2623 C 0.70478 0.78235 0.48972 0.0
C2624 C 0.72754 0.76362 0.51557 0.0
C2625 C 0.73417 0.74878 0.49964 0.0
C2626 C 0.7253 0.75074 0.47877 0.0
C2627 C 0.71124 0.76768 0.47377 0.0
H2628 H 0.71671 0.22333 0.55087 0.0
H2629 H 0.71795 0.20352 0.48428 0.0
H2630 H 0.74152 0.25281 0.54279 0.0
H2631 H 0.74349 0.2324 0.47601 0.0
H2632 H 0.80158 0.29172 0.52436 0.0
H2633 H 0.7759 0.26361 0.534 0.0
H2634 H 0.74627 0.26943 0.47104 0.0
H2635 H 0.77342 0.29607 0.46098 0.0
C2636 C 0.72231 0.22544 0.53444 0.0
C2637 C 0.71469 0.21196 0.51796 0.0
C2638 C 0.7368 0.24213 0.5298 0.0
C2639 C 0.74423 0.24552 0.50856 0.0
C2640 C 0.73754 0.23097 0.49237 0.0
C2641 C 0.72305 0.21429 0.49708 0.0
C2642 C 0.78927 0.28721 0.51278 0.0
C2643 C 0.789 0.29659 0.49218 0.0
C2644 C 0.77445 0.2711 0.5183 0.0
C2645 C 0.75893 0.26396 0.5033 0.0
C2646 C 0.75818 0.27409 0.48293 0.0
C2647 C 0.77332 0.2899 0.47732 0.0
H2648 H 0.28787 0.78235 0.54605 0.0
H2649 H 0.28462 0.79666 0.4781 0.0
H2650 H 0.26325 0.75206 0.54113 0.0
H2651 H 0.25937 0.76663 0.47297 0.0
H2652 H 0.23028 0.70066 0.46571 0.0
H2653 H 0.25759 0.7282 0.4725 0.0
H2654 H 0.22732 0.74261 0.53371 0.0
H2655 H 0.20105 0.71401 0.52738 0.0
C2656 C 0.28185 0.77887 0.53 0.0
C2657 C 0.28868 0.7912 0.5123 0.0
C2658 C 0.26753 0.76169 0.52719 0.0
C2659 C 0.2595 0.75659 0.50658 0.0
C2660 C 0.26568 0.76965 0.48898 0.0
C2661 C 0.27999 0.78693 0.49187 0.0
C2662 C 0.23017 0.709 0.48105 0.0
C2663 C 0.21404 0.70469 0.49636 0.0
C2664 C 0.24544 0.72524 0.4847 0.0
C2665 C 0.24456 0.73792 0.50354 0.0
C2666 C 0.22873 0.73309 0.51913 0.0
C2667 C 0.21363 0.71671 0.51553 0.0
H2668 H 0.2031 0.2904 0.47472 0.0
H2669 H 0.21862 0.28718 0.54239 0.0
H2670 H 0.23363 0.26677 0.46649 0.0
H2671 H 0.24967 0.26427 0.53437 0.0
H2672 H 0.28479 0.20201 0.514 0.0
H2673 H 0.25767 0.22885 0.52348 0.0
H2674 H 0.27187 0.26375 0.46473 0.0
H2675 H 0.29802 0.2359 0.45474 0.0
C2676 C 0.21335 0.28488 0.48776 0.0
C2677 C 0.20909 0.29115 0.50907 0.0
C2678 C 0.23094 0.27149 0.48309 0.0
C2679 C 0.2444 0.26375 0.49972 0.0
C2680 C 0.2397 0.26978 0.52113 0.0
C2681 C 0.22211 0.28314 0.52574 0.0
C2682 C 0.28229 0.21563 0.50332 0.0
C2683 C 0.29384 0.21722 0.48393 0.0
C2684 C 0.26684 0.23112 0.50878 0.0
C2685 C 0.26245 0.24854 0.49487 0.0
C2686 C 0.27455 0.25042 0.47571 0.0
C2687 C 0.28987 0.23474 0.47016 0.0
H2688 H 0.09701 0.31061 0.1304 0.0
H2689 H 0.05304 0.36075 0.11051 0.0
H2690 H 0.11921 0.31726 0.09841 0.0
H2691 H 0.07488 0.36686 0.07793 0.0
H2692 H 0.09922 0.32764 0.01279 0.0
H2693 H 0.0806 0.33411 0.04703 0.0
H2694 H 0.14124 0.35071 0.07694 0.0
H2695 H 0.15984 0.34502 0.04233 0.0
C2696 C 0.09247 0.32345 0.11946 0.0
C2697 C 0.07347 0.33529 0.12291 0.0
C2698 C 0.10516 0.32728 0.10121 0.0
C2699 C 0.09872 0.34258 0.0858 0.0
C2700 C 0.08021 0.3551 0.08971 0.0
C2701 C 0.06782 0.35168 0.10832 0.0
C2702 C 0.10845 0.3333 0.02652 0.0
C2703 C 0.1309 0.33593 0.02498 0.0
C2704 C 0.09781 0.33708 0.04604 0.0
C2705 C 0.10953 0.34297 0.06451 0.0
C2706 C 0.13189 0.34634 0.06282 0.0
C2707 C 0.14247 0.34316 0.04308 0.0
H2708 H 0.64527 0.07004 0.11808 0.0
H2709 H 0.71283 0.08738 0.11667 0.0
H2710 H 0.63954 0.09077 0.08458 0.0
H2711 H 0.70706 0.10767 0.08368 0.0
H2712 H 0.69777 0.10512 0.0117 0.0
H2713 H 0.69505 0.08743 0.04651 0.0
H2714 H 0.64723 0.13372 0.06686 0.0
H2715 H 0.64997 0.15189 0.03158 0.0
C2716 C 0.65872 0.07868 0.11099 0.0
C2717 C 0.67958 0.07676 0.1198 0.0
C2718 C 0.65543 0.09048 0.09187 0.0
C2719 C 0.67296 0.10045 0.08147 0.0
C2720 C 0.69335 0.09985 0.09124 0.0
C2721 C 0.69663 0.08819 0.11014 0.0
C2722 C 0.6864 0.11147 0.02338 0.0
C2723 C 0.67435 0.13017 0.01895 0.0
C2724 C 0.68486 0.10128 0.04332 0.0
C2725 C 0.67119 0.10943 0.0594 0.0
C2726 C 0.6579 0.12718 0.05465 0.0
C2727 C 0.65947 0.13752 0.0345 0.0
H2728 H 0.93227 0.64745 0.11694 0.0
H2729 H 0.90972 0.71312 0.12305 0.0
H2730 H 0.91009 0.64312 0.0842 0.0
H2731 H 0.88778 0.70873 0.09091 0.0
H2732 H 0.88804 0.70677 0.01813 0.0
H2733 H 0.90571 0.70373 0.05277 0.0
H2734 H 0.8681 0.64706 0.06763 0.0
H2735 H 0.84988 0.65006 0.0324 0.0
C2736 C 0.92211 0.66068 0.11171 0.0
C2737 C 0.92299 0.68074 0.12232 0.0
C2738 C 0.90947 0.6582 0.09302 0.0
C2739 C 0.89759 0.67574 0.08489 0.0
C2740 C 0.89709 0.69508 0.09665 0.0
C2741 C 0.90965 0.69757 0.11507 0.0
C2742 C 0.88345 0.69352 0.02857 0.0
C2743 C 0.86722 0.67885 0.02252 0.0
C2744 C 0.89363 0.69183 0.04849 0.0
C2745 C 0.88799 0.6754 0.06299 0.0
C2746 C 0.87264 0.65993 0.0567 0.0
C2747 C 0.86225 0.66168 0.03659 0.0
H2748 H 0.31921 0.89837 0.01228 0.0
H2749 H 0.35132 0.8427 0.03923 0.0
H2750 H 0.3235 0.91748 0.04632 0.0
H2751 H 0.35561 0.86219 0.07372 0.0
H2752 H 0.3652 0.93441 0.11837 0.0
H2753 H 0.3712 0.91101 0.08681 0.0
H2754 H 0.3034 0.89549 0.08551 0.0
H2755 H 0.29726 0.91851 0.1167 0.0
C2756 C 0.32766 0.8904 0.02535 0.0
C2757 C 0.33473 0.86896 0.02319 0.0
C2758 C 0.33015 0.90138 0.04477 0.0
C2759 C 0.33978 0.89122 0.06252 0.0
C2760 C 0.34828 0.87033 0.06011 0.0
C2761 C 0.34585 0.85925 0.04044 0.0
C2762 C 0.3517 0.92555 0.11168 0.0
C2763 C 0.33069 0.9286 0.11985 0.0
C2764 C 0.35518 0.91217 0.0937 0.0
C2765 C 0.33772 0.90159 0.08387 0.0
C2766 C 0.31708 0.90352 0.0929 0.0
C2767 C 0.3136 0.91681 0.11069 0.0
H2768 H 0.10045 0.6881 0.87502 0.0
H2769 H 0.05849 0.63476 0.89068 0.0
H2770 H 0.12255 0.68012 0.90672 0.0
H2771 H 0.08023 0.62729 0.92303 0.0
H2772 H 0.10249 0.66477 0.99065 0.0
H2773 H 0.08427 0.65839 0.95617 0.0
H2774 H 0.14576 0.64606 0.92591 0.0
H2775 H 0.16396 0.65163 0.96072 0.0
C2776 C 0.09631 0.67434 0.88498 0.0
C2777 C 0.07786 0.66199 0.88046 0.0
C2778 C 0.10897 0.66973 0.90303 0.0
C2779 C 0.10307 0.65307 0.91719 0.0
C2780 C 0.08515 0.6401 0.9122 0.0
C2781 C 0.07281 0.64433 0.89373 0.0
C2782 C 0.11198 0.65987 0.9768 0.0
C2783 C 0.13454 0.6585 0.97825 0.0
C2784 C 0.10159 0.65618 0.95714 0.0
C2785 C 0.11367 0.65168 0.9385 0.0
C2786 C 0.13615 0.64931 0.94016 0.0
C2787 C 0.14651 0.65239 0.96001 0.0
H2788 H 0.35908 0.08307 0.8632 0.0
H2789 H 0.31456 0.04692 0.90291 0.0
H2790 H 0.36631 0.10732 0.89388 0.0
H2791 H 0.32153 0.07079 0.93288 0.0
H2792 H 0.34465 0.1044 0.98924 0.0
H2793 H 0.34991 0.08055 0.95833 0.0
H2794 H 0.34471 0.13517 0.91531 0.0
H2795 H 0.34017 0.15913 0.94658 0.0
C2796 C 0.35105 0.08017 0.87845 0.0
C2797 C 0.33615 0.06316 0.88056 0.0
C2798 C 0.35511 0.09406 0.89594 0.0
C2799 C 0.34465 0.09085 0.91587 0.0
C2800 C 0.3302 0.07352 0.91794 0.0
C2801 C 0.32601 0.05994 0.9006 0.0
C2802 C 0.34543 0.11133 0.9732 0.0
C2803 C 0.34211 0.13347 0.97014 0.0
C2804 C 0.34828 0.09772 0.9555 0.0
C2805 C 0.34733 0.10593 0.93435 0.0
C2806 C 0.34565 0.12839 0.93139 0.0
C2807 C 0.34304 0.14209 0.94922 0.0
H2808 H 0.89662 0.33191 0.99805 0.0
H2809 H 0.84082 0.34469 0.95851 0.0
H2810 H 0.91999 0.33592 0.9667 0.0
H2811 H 0.86421 0.34778 0.92656 0.0
H2812 H 0.91768 0.35906 0.8743 0.0
H2813 H 0.89494 0.36563 0.90623 0.0
H2814 H 0.92369 0.31044 0.93763 0.0
H2815 H 0.94621 0.30419 0.90667 0.0
C2816 C 0.88945 0.33594 0.98261 0.0
C2817 C 0.86702 0.33785 0.98054 0.0
C2818 C 0.90277 0.33812 0.96464 0.0
C2819 C 0.89391 0.34166 0.94403 0.0
C2820 C 0.87152 0.34511 0.94221 0.0
C2821 C 0.85814 0.3433 0.96042 0.0
C2822 C 0.91921 0.34852 0.88815 0.0
C2823 C 0.93384 0.33113 0.88784 0.0
C2824 C 0.90615 0.35222 0.90636 0.0
C2825 C 0.90773 0.33875 0.9246 0.0
C2826 C 0.92238 0.32149 0.92414 0.0
C2827 C 0.93522 0.31778 0.90615 0.0
H2828 H 0.66606 0.83595 0.95411 0.0
H2829 H 0.65068 0.89594 0.98575 0.0
H2830 H 0.66187 0.85342 0.91885 0.0
H2831 H 0.64621 0.91344 0.95058 0.0
H2832 H 0.63514 0.93792 0.88208 0.0
H2833 H 0.62673 0.91448 0.91299 0.0
H2834 H 0.6881 0.88245 0.90511 0.0
H2835 H 0.69661 0.90596 0.87485 0.0
C2836 C 0.66083 0.85263 0.95343 0.0
C2837 C 0.65838 0.86462 0.97245 0.0
C2838 C 0.65858 0.86265 0.93333 0.0
C2839 C 0.65376 0.88479 0.932 0.0
C2840 C 0.64964 0.89631 0.95111 0.0
C2841 C 0.65218 0.88634 0.97121 0.0
C2842 C 0.64653 0.9255 0.88669 0.0
C2843 C 0.66655 0.92379 0.87616 0.0
C2844 C 0.64177 0.91218 0.90438 0.0
C2845 C 0.65673 0.89661 0.91139 0.0
C2846 C 0.67613 0.89409 0.89993 0.0
C2847 C 0.68107 0.90765 0.88267 0.0
H2848 H 0.11588 0.08543 0.2912 0.0
H2849 H 0.11815 0.07199 0.3596 0.0
H2850 H 0.08346 0.1067 0.2963 0.0
H2851 H 0.08512 0.09364 0.36466 0.0
H2852 H 0.03272 0.15396 0.35356 0.0
H2853 H 0.06783 0.13549 0.35595 0.0
H2854 H 0.04631 0.08887 0.30896 0.0
H2855 H 0.01168 0.10685 0.30654 0.0
C2856 C 0.10966 0.08729 0.30743 0.0
C2857 C 0.11939 0.07669 0.32495 0.0
C2858 C 0.09106 0.0995 0.31032 0.0
C2859 C 0.08163 0.10145 0.33079 0.0
C2860 C 0.09213 0.0923 0.34871 0.0
C2861 C 0.11098 0.07996 0.3458 0.0
C2862 C 0.03539 0.13954 0.34405 0.0
C2863 C 0.01949 0.13212 0.32957 0.0
C2864 C 0.05544 0.129 0.34547 0.0
C2865 C 0.05979 0.11101 0.33238 0.0
C2866 C 0.04345 0.10293 0.31897 0.0
C2867 C 0.0236 0.1133 0.31759 0.0
H2868 H 0.94822 0.10711 0.361 0.0
H2869 H 0.89943 0.12926 0.31659 0.0
H2870 H 0.92748 0.0738 0.36703 0.0
H2871 H 0.87839 0.09648 0.32319 0.0
H2872 H 0.84148 0.03785 0.35161 0.0
H2873 H 0.85993 0.07256 0.35719 0.0
H2874 H 0.91911 0.04492 0.33309 0.0
H2875 H 0.90058 0.01062 0.32677 0.0
C2876 C 0.93268 0.1052 0.35322 0.0
C2877 C 0.92531 0.12066 0.3384 0.0
C2878 C 0.92091 0.08618 0.35658 0.0
C2879 C 0.90136 0.08272 0.34562 0.0
C2880 C 0.89329 0.09892 0.33201 0.0
C2881 C 0.90532 0.1176 0.3282 0.0
C2882 C 0.85854 0.03912 0.34799 0.0
C2883 C 0.86966 0.02166 0.33876 0.0
C2884 C 0.86903 0.05892 0.35113 0.0
C2885 C 0.89092 0.06126 0.3457 0.0
C2886 C 0.9023 0.0434 0.33766 0.0
C2887 C 0.89169 0.02387 0.33395 0.0
H2888 H 0.88622 0.93176 0.36815 0.0
H2889 H 0.88718 0.91787 0.29978 0.0
H2890 H 0.91978 0.91076 0.37254 0.0
H2891 H 0.92013 0.89735 0.30424 0.0
H2892 H 0.99199 0.89733 0.31264 0.0
H2893 H 0.95756 0.91556 0.31621 0.0
H2894 H 0.93701 0.86863 0.36333 0.0
H2895 H 0.97193 0.84993 0.35975 0.0
C2896 C 0.89326 0.9239 0.35421 0.0
C2897 C 0.88423 0.92683 0.33356 0.0
C2898 C 0.91241 0.91193 0.35674 0.0
C2899 C 0.92265 0.90281 0.33864 0.0
C2900 C 0.91274 0.90452 0.31839 0.0
C2901 C 0.89383 0.91633 0.31587 0.0
C2902 C 0.98035 0.8909 0.32398 0.0
C2903 C 0.98464 0.8719 0.33562 0.0
C2904 C 0.96061 0.90141 0.32603 0.0
C2905 C 0.94457 0.89331 0.3398 0.0
C2906 C 0.94918 0.87517 0.3526 0.0
C2907 C 0.96911 0.86449 0.35052 0.0
H2908 H 0.10166 0.99295 0.329 0.0
H2909 H 0.16361 0.96517 0.34441 0.0
H2910 H 0.08411 0.9585 0.33707 0.0
H2911 H 0.14607 0.93034 0.35173 0.0
H2912 H 0.10276 0.875 0.31423 0.0
H2913 H 0.12406 0.90773 0.3199 0.0
H2914 H 0.07975 0.92798 0.36966 0.0
H2915 H 0.05879 0.89466 0.3645 0.0
C2916 C 0.11141 0.97958 0.33465 0.0
C2917 C 0.13392 0.98165 0.33621 0.0
C2918 C 0.10139 0.95994 0.33933 0.0
C2919 C 0.11377 0.94186 0.34507 0.0
C2920 C 0.13621 0.94414 0.3475 0.0
C2921 C 0.14619 0.96401 0.3434 0.0
C2922 C 0.09801 0.88609 0.32687 0.0
C2923 C 0.07925 0.88234 0.339 0.0
C2924 C 0.11021 0.90475 0.33016 0.0
C2925 C 0.10352 0.92028 0.34524 0.0
C2926 C 0.08527 0.91612 0.35806 0.0
C2927 C 0.07337 0.8971 0.35517 0.0
H2928 H 0.01653 0.89101 0.69922 0.0
H2929 H 0.03429 0.84935 0.64611 0.0
H2930 H 0.05025 0.91035 0.69547 0.0
H2931 H 0.06854 0.86923 0.64235 0.0
H2932 H 0.11627 0.93375 0.63861 0.0
H2933 H 0.08382 0.91096 0.63547 0.0
H2934 H 0.08879 0.8949 0.70303 0.0
H2935 H 0.12071 0.91733 0.70625 0.0
C2936 C 0.02754 0.88603 0.68658 0.0
C2937 C 0.02278 0.86832 0.6732 0.0
C2938 C 0.04691 0.89716 0.68447 0.0
C2939 C 0.06214 0.89102 0.66889 0.0
C2940 C 0.05704 0.8742 0.65455 0.0
C2941 C 0.03748 0.86286 0.65672 0.0
C2942 C 0.11067 0.92492 0.65262 0.0
C2943 C 0.12082 0.92767 0.67277 0.0
C2944 C 0.09215 0.91192 0.65081 0.0
C2945 C 0.08364 0.90155 0.66912 0.0
C2946 C 0.09479 0.90305 0.68876 0.0
C2947 C 0.11309 0.91593 0.69058 0.0
H2948 H 0.1522 0.03842 0.64463 0.0
H2949 H 0.10073 0.01174 0.68339 0.0
H2950 H 0.13186 0.07246 0.64147 0.0
H2951 H 0.0808 0.04538 0.68026 0.0
H2952 H 0.07769 0.11482 0.70456 0.0
H2953 H 0.09887 0.08258 0.69814 0.0
H2954 H 0.08781 0.08827 0.62968 0.0
H2955 H 0.06604 0.12096 0.636 0.0
C2956 C 0.13633 0.03957 0.65186 0.0
C2957 C 0.12819 0.02255 0.66453 0.0
C2958 C 0.12475 0.059 0.65007 0.0
C2959 C 0.10496 0.06149 0.66086 0.0
C2960 C 0.09614 0.04387 0.67197 0.0
C2961 C 0.10758 0.02465 0.67378 0.0
C2962 C 0.07981 0.10947 0.68805 0.0
C2963 C 0.06977 0.12032 0.67082 0.0
C2964 C 0.09202 0.09099 0.68442 0.0
C2965 C 0.09468 0.08287 0.66348 0.0
C2966 C 0.08591 0.09429 0.64598 0.0
C2967 C 0.07348 0.11294 0.64963 0.0
H2968 H 0.97573 0.11354 0.70339 0.0
H2969 H 0.96978 0.14145 0.63965 0.0
H2970 H 0.94584 0.08978 0.69594 0.0
H2971 H 0.93936 0.11705 0.63216 0.0
H2972 H 0.86872 0.08548 0.64742 0.0
H2973 H 0.90034 0.10947 0.64606 0.0
H2974 H 0.93993 0.05833 0.672 0.0
H2975 H 0.90853 0.03483 0.67385 0.0
C2976 C 0.96814 0.11462 0.68768 0.0
C2977 C 0.97542 0.1294 0.67205 0.0
C2978 C 0.95099 0.1008 0.68337 0.0
C2979 C 0.94049 0.10124 0.66332 0.0
C2980 C 0.94726 0.1163 0.64773 0.0
C2981 C 0.96468 0.13021 0.65202 0.0
C2982 C 0.88435 0.07927 0.65219 0.0
C2983 C 0.88621 0.05846 0.66102 0.0
C2984 C 0.90241 0.09297 0.65144 0.0
C2985 C 0.92248 0.0859 0.65938 0.0
C2986 C 0.92457 0.06439 0.66624 0.0
C2987 C 0.90663 0.05091 0.66722 0.0
H2988 H 0.91525 0.87817 0.70479 0.0
H2989 H 0.93273 0.87708 0.63727 0.0
H2990 H 0.88971 0.90684 0.69791 0.0
H2991 H 0.90672 0.90623 0.63031 0.0
H2992 H 0.88456 0.97995 0.64325 0.0
H2993 H 0.90445 0.9458 0.64084 0.0
H2994 H 0.85549 0.91484 0.67968 0.0
H2995 H 0.83603 0.94902 0.68232 0.0
C2996 C 0.91348 0.8839 0.68837 0.0
C2997 C 0.92616 0.87538 0.6716 0.0
C2998 C 0.89862 0.90026 0.68438 0.0
C2999 C 0.89605 0.90874 0.66353 0.0
C3000 C 0.90837 0.9 0.64656 0.0
C3001 C 0.92317 0.88329 0.65052 0.0
C3002 C 0.87775 0.96559 0.65054 0.0
C3003 C 0.85886 0.96693 0.66296 0.0
C3004 C 0.8891 0.94606 0.6492 0.0
C3005 C 0.8817 0.92771 0.66035 0.0
C3006 C 0.86178 0.92879 0.67121 0.0
C3007 C 0.85056 0.94826 0.67263 0.0
H3008 H 0.31909 0.01123 0.09667 0.0
H3009 H 0.35456 0.04096 0.1488 0.0
H3010 H 0.32235 0.04411 0.07555 0.0
H3011 H 0.35779 0.07428 0.12733 0.0
H3012 H 0.36613 0.123 0.06434 0.0
H3013 H 0.37147 0.09061 0.08683 0.0
H3014 H 0.30266 0.08012 0.08778 0.0
H3015 H 0.29719 0.11196 0.0659 0.0
C3016 C 0.32798 0.02467 0.10346 0.0
C3017 C 0.33628 0.02362 0.12453 0.0
C3018 C 0.32985 0.04349 0.09134 0.0
C3019 C 0.34 0.0618 0.09997 0.0
C3020 C 0.34989 0.06034 0.12034 0.0
C3021 C 0.34806 0.0413 0.13258 0.0
C3022 C 0.35216 0.11391 0.06963 0.0
C3023 C 0.33126 0.11993 0.06295 0.0
C3024 C 0.35524 0.09543 0.08247 0.0
C3025 C 0.33749 0.08272 0.08865 0.0
C3026 C 0.31666 0.08941 0.08288 0.0
C3027 C 0.31358 0.10772 0.0703 0.0
H3028 H 0.33777 0.9489 0.83643 0.0
H3029 H 0.34928 0.98938 0.8918 0.0
H3030 H 0.34173 0.91665 0.85917 0.0
H3031 H 0.35349 0.95738 0.91446 0.0
H3032 H 0.31097 0.90408 0.94559 0.0
H3033 H 0.32017 0.93396 0.92216 0.0
H3034 H 0.3653 0.8936 0.88768 0.0
H3035 H 0.35618 0.86318 0.91172 0.0
C3036 C 0.34222 0.9508 0.85323 0.0
C3037 C 0.34342 0.97144 0.86246 0.0
C3038 C 0.34445 0.93241 0.86623 0.0
C3039 C 0.3477 0.93459 0.88858 0.0
C3040 C 0.35087 0.95529 0.89729 0.0
C3041 C 0.3486 0.97356 0.88436 0.0
C3042 C 0.32293 0.90146 0.9331 0.0
C3043 C 0.33276 0.88121 0.93042 0.0
C3044 C 0.32837 0.91869 0.91981 0.0
C3045 C 0.34363 0.91616 0.90327 0.0
C3046 C 0.35357 0.89595 0.90043 0.0
C3047 C 0.34839 0.87863 0.91414 0.0
H3048 H 0.01237 0.35134 0.89238 0.0
H3049 H 0.0459 0.32305 0.8384 0.0
H3050 H 0.04679 0.35575 0.9115 0.0
H3051 H 0.08028 0.32747 0.85731 0.0
H3052 H 0.11589 0.36468 0.93793 0.0
H3053 H 0.08585 0.37145 0.91279 0.0
H3054 H 0.09034 0.30572 0.89011 0.0
H3055 H 0.11966 0.29895 0.91509 0.0
C3056 C 0.02724 0.3469 0.88432 0.0
C3057 C 0.02669 0.33699 0.86398 0.0
C3058 C 0.04691 0.34942 0.8952 0.0
C3059 C 0.06619 0.34178 0.88595 0.0
C3060 C 0.06566 0.33336 0.86487 0.0
C3061 C 0.04606 0.33093 0.85402 0.0
C3062 C 0.11065 0.35188 0.92724 0.0
C3063 C 0.12005 0.33127 0.92851 0.0
C3064 C 0.09345 0.35571 0.91296 0.0
C3065 C 0.08585 0.33915 0.8994 0.0
C3066 C 0.09601 0.31891 0.90008 0.0
C3067 C 0.11275 0.31499 0.91453 0.0
H3068 H 0.63989 0.11822 0.9308 0.0
H3069 H 0.70698 0.11872 0.91166 0.0
H3070 H 0.63449 0.08472 0.91 0.0
H3071 H 0.70154 0.08566 0.89135 0.0
H3072 H 0.69312 0.01304 0.89542 0.0
H3073 H 0.68972 0.04784 0.91303 0.0
H3074 H 0.64298 0.06786 0.86554 0.0
H3075 H 0.64643 0.03267 0.8474 0.0
C3076 C 0.65327 0.11156 0.92174 0.0
C3077 C 0.67394 0.1209 0.92317 0.0
C3078 C 0.65017 0.09243 0.90991 0.0
C3079 C 0.66771 0.08258 0.89942 0.0
C3080 C 0.68785 0.09286 0.89954 0.0
C3081 C 0.69093 0.11177 0.91121 0.0
C3082 C 0.68184 0.02462 0.88878 0.0
C3083 C 0.67031 0.02014 0.86975 0.0
C3084 C 0.67989 0.04455 0.89894 0.0
C3085 C 0.66629 0.06051 0.89046 0.0
C3086 C 0.65355 0.05572 0.87235 0.0
C3087 C 0.65555 0.03562 0.86202 0.0
H3088 H 0.96839 0.64568 0.85138 0.0
H3089 H 0.99152 0.69022 0.89986 0.0
H3090 H 0.93343 0.64376 0.8702 0.0
H3091 H 0.95695 0.68835 0.91817 0.0
H3092 H 0.88688 0.70921 0.91908 0.0
H3093 H 0.92014 0.70307 0.89947 0.0
H3094 H 0.91586 0.63486 0.91258 0.0
H3095 H 0.88213 0.64093 0.93278 0.0
C3096 C 0.96624 0.65463 0.86623 0.0
C3097 C 0.98265 0.66838 0.8739 0.0
C3098 C 0.94627 0.65351 0.87696 0.0
C3099 C 0.94251 0.66615 0.89541 0.0
C3100 C 0.95939 0.67866 0.90381 0.0
C3101 C 0.97919 0.67973 0.89325 0.0
C3102 C 0.89277 0.69281 0.91776 0.0
C3103 C 0.88197 0.67561 0.92792 0.0
C3104 C 0.91186 0.68933 0.90646 0.0
C3105 C 0.92067 0.66857 0.90483 0.0
C3106 C 0.90934 0.65104 0.9137 0.0
C3107 C 0.89009 0.65454 0.92523 0.0
H3108 H 0.70483 0.98567 0.10645 0.0
H3109 H 0.64997 0.97297 0.1477 0.0
H3110 H 0.69608 0.95437 0.08495 0.0
H3111 H 0.64105 0.94119 0.12563 0.0
H3112 H 0.65868 0.87137 0.09391 0.0
H3113 H 0.65796 0.90406 0.1165 0.0
H3114 H 0.66756 0.94321 0.05963 0.0
H3115 H 0.66888 0.91079 0.03747 0.0
C3116 C 0.69077 0.97628 0.11091 0.0
C3117 C 0.67809 0.98195 0.12885 0.0
C3118 C 0.68565 0.95835 0.09841 0.0
C3119 C 0.66771 0.94544 0.1034 0.0
C3120 C 0.65496 0.9509 0.12138 0.0
C3121 C 0.66001 0.96912 0.13392 0.0
C3122 C 0.65994 0.88705 0.0863 0.0
C3123 C 0.66402 0.88868 0.06407 0.0
C3124 C 0.65955 0.90573 0.09917 0.0
C3125 C 0.66315 0.92615 0.08986 0.0
C3126 C 0.66522 0.92769 0.06733 0.0
C3127 C 0.66584 0.90916 0.05463 0.0
H3128 H 0.03058 0.65269 0.14932 0.0
H3129 H 0.01323 0.7028 0.10397 0.0
H3130 H 0.06497 0.64754 0.13008 0.0
H3131 H 0.04713 0.69763 0.08515 0.0
H3132 H 0.1179 0.70872 0.07975 0.0
H3133 H 0.08502 0.70668 0.10081 0.0
H3134 H 0.0817 0.63801 0.08976 0.0
H3135 H 0.11519 0.63997 0.06833 0.0
C3136 C 0.03386 0.66228 0.13508 0.0
C3137 C 0.01929 0.67842 0.12842 0.0
C3138 C 0.05351 0.65931 0.12411 0.0
C3139 C 0.05881 0.67248 0.10642 0.0
C3140 C 0.04362 0.68755 0.09901 0.0
C3141 C 0.02416 0.69048 0.10983 0.0
C3142 C 0.11043 0.69307 0.08194 0.0
C3143 C 0.11898 0.67456 0.07201 0.0
C3144 C 0.09154 0.69194 0.09401 0.0
C3145 C 0.0806 0.67228 0.0965 0.0
C3146 C 0.08983 0.65338 0.08797 0.0
C3147 C 0.10896 0.65451 0.07576 0.0
H3148 H 0.9664 0.35636 0.15098 0.0
H3149 H 0.98506 0.3078 0.10442 0.0
H3150 H 0.93185 0.36098 0.13192 0.0
H3151 H 0.95091 0.31241 0.08587 0.0
H3152 H 0.87962 0.29884 0.08403 0.0
H3153 H 0.91263 0.30238 0.10468 0.0
H3154 H 0.9158 0.37009 0.08889 0.0
H3155 H 0.88227 0.36662 0.06772 0.0
C3156 C 0.96337 0.34701 0.13653 0.0
C3157 C 0.97838 0.33144 0.12946 0.0
C3158 C 0.94365 0.34971 0.12565 0.0
C3159 C 0.93873 0.33684 0.10766 0.0
C3160 C 0.95426 0.32233 0.09988 0.0
C3161 C 0.97382 0.3197 0.11058 0.0
C3162 C 0.88707 0.31462 0.08508 0.0
C3163 C 0.87849 0.33238 0.07386 0.0
C3164 C 0.90599 0.31661 0.09696 0.0
C3165 C 0.91687 0.3364 0.09804 0.0
C3166 C 0.90765 0.35465 0.08821 0.0
C3167 C 0.88851 0.35265 0.07615 0.0
H3168 H 0.64984 0.85076 0.53592 0.0
H3169 H 0.60257 0.80433 0.51399 0.0
H3170 H 0.6306 0.85353 0.5706 0.0
H3171 H 0.58388 0.80704 0.54822 0.0
H3172 H 0.57881 0.79002 0.61842 0.0
H3173 H 0.59994 0.79424 0.58576 0.0
H3174 H 0.5893 0.863 0.58718 0.0
H3175 H 0.56767 0.85889 0.62028 0.0
C3176 C 0.63521 0.84149 0.53828 0.0
C3177 C 0.62798 0.82706 0.52226 0.0
C3178 C 0.62425 0.84309 0.5581 0.0
C3179 C 0.60601 0.83021 0.56214 0.0
C3180 C 0.59812 0.81687 0.54565 0.0
C3181 C 0.60889 0.81535 0.526 0.0
C3182 C 0.58104 0.80614 0.61203 0.0
C3183 C 0.57114 0.82408 0.62181 0.0
C3184 C 0.5932 0.80852 0.59329 0.0
C3185 C 0.59592 0.82888 0.5838 0.0
C3186 C 0.58736 0.84712 0.59422 0.0
C3187 C 0.575 0.84474 0.61311 0.0
H3188 H 0.18655 0.59022 0.63196 0.0
H3189 H 0.13759 0.54638 0.60906 0.0
H3190 H 0.18027 0.61368 0.60081 0.0
H3191 H 0.13179 0.56954 0.57734 0.0
H3192 H 0.17112 0.59669 0.51397 0.0
H3193 H 0.1639 0.57677 0.54729 0.0
H3194 H 0.14818 0.6364 0.57962 0.0
H3195 H 0.15467 0.65632 0.5459 0.0
C3196 C 0.17403 0.58597 0.62052 0.0
C3197 C 0.16243 0.56667 0.62287 0.0
C3198 C 0.17039 0.59938 0.60277 0.0
C3199 C 0.15553 0.59339 0.58676 0.0
C3200 C 0.14323 0.57454 0.58959 0.0
C3201 C 0.14646 0.56139 0.60769 0.0
C3202 C 0.16546 0.60542 0.52803 0.0
C3203 C 0.16334 0.62796 0.52744 0.0
C3204 C 0.16126 0.59405 0.54703 0.0
C3205 C 0.15544 0.60508 0.56594 0.0
C3206 C 0.1525 0.62756 0.56517 0.0
C3207 C 0.15613 0.6389 0.54594 0.0
H3208 H 0.38977 0.15365 0.51006 0.0
H3209 H 0.33542 0.18397 0.54111 0.0
H3210 H 0.40763 0.14962 0.54517 0.0
H3211 H 0.35302 0.17988 0.5762 0.0
H3212 H 0.40926 0.20724 0.61804 0.0
H3213 H 0.38545 0.20076 0.58769 0.0
H3214 H 0.40762 0.1348 0.584 0.0
H3215 H 0.43165 0.14129 0.61491 0.0
C3216 C 0.38134 0.15862 0.52454 0.0
C3217 C 0.36128 0.169 0.52309 0.0
C3218 C 0.39151 0.15634 0.54461 0.0
C3219 C 0.38181 0.16465 0.56339 0.0
C3220 C 0.36097 0.17353 0.56197 0.0
C3221 C 0.35084 0.17576 0.54197 0.0
C3222 C 0.40888 0.19123 0.61104 0.0
C3223 C 0.42242 0.1748 0.61883 0.0
C3224 C 0.39507 0.18746 0.59371 0.0
C3225 C 0.39459 0.16723 0.5835 0.0
C3226 C 0.40768 0.15054 0.59159 0.0
C3227 C 0.42133 0.15423 0.60929 0.0
H3228 H 0.85382 0.35298 0.53601 0.0
H3229 H 0.81103 0.40233 0.51155 0.0
H3230 H 0.85594 0.37231 0.57065 0.0
H3231 H 0.81315 0.42125 0.54577 0.0
H3232 H 0.79193 0.42632 0.61494 0.0
H3233 H 0.79723 0.40591 0.58202 0.0
H3234 H 0.86624 0.4123 0.58858 0.0
H3235 H 0.86103 0.43321 0.62199 0.0
C3236 C 0.84533 0.36815 0.5378 0.0
C3237 C 0.83197 0.37593 0.52114 0.0
C3238 C 0.84654 0.37916 0.5576 0.0
C3239 C 0.83438 0.39801 0.56093 0.0
C3240 C 0.82237 0.40653 0.54373 0.0
C3241 C 0.82119 0.39567 0.52411 0.0
C3242 C 0.80831 0.42332 0.60961 0.0
C3243 C 0.82605 0.43179 0.62095 0.0
C3244 C 0.81131 0.41161 0.5907 0.0
C3245 C 0.83211 0.40792 0.58258 0.0
C3246 C 0.85003 0.41505 0.59452 0.0
C3247 C 0.84703 0.42697 0.6136 0.0
H3248 H 0.60134 0.19706 0.36951 0.0
H3249 H 0.56677 0.14019 0.38996 0.0
H3250 H 0.6238 0.19519 0.40162 0.0
H3251 H 0.58921 0.13851 0.42271 0.0
H3252 H 0.64575 0.14258 0.47545 0.0
H3253 H 0.62872 0.13664 0.44007 0.0
H3254 H 0.60877 0.20334 0.43876 0.0
H3255 H 0.62539 0.20934 0.47348 0.0
C3256 C 0.59897 0.18379 0.38062 0.0
C3257 C 0.58225 0.16888 0.37739 0.0
C3258 C 0.61175 0.18277 0.39906 0.0
C3259 C 0.60791 0.167 0.41487 0.0
C3260 C 0.59249 0.15083 0.41076 0.0
C3261 C 0.57972 0.15175 0.39204 0.0
C3262 C 0.63768 0.15593 0.46759 0.0
C3263 C 0.6371 0.17647 0.47734 0.0
C3264 C 0.62793 0.15249 0.44739 0.0
C3265 C 0.61777 0.16962 0.43653 0.0
C3266 C 0.61689 0.18993 0.44651 0.0
C3267 C 0.62634 0.19331 0.46658 0.0
H3268 H 0.83295 0.53603 0.40812 0.0
H3269 H 0.84967 0.5921 0.37043 0.0
H3270 H 0.83534 0.55724 0.44109 0.0
H3271 H 0.85125 0.61383 0.40358 0.0
H3272 H 0.8597 0.64411 0.472 0.0
H3273 H 0.86706 0.62182 0.44004 0.0
H3274 H 0.8102 0.5839 0.45378 0.0
H3275 H 0.80312 0.60547 0.48536 0.0
C3276 C 0.83752 0.55288 0.40699 0.0
C3277 C 0.84096 0.56251 0.38681 0.0
C3278 C 0.83874 0.56508 0.42584 0.0
C3279 C 0.84293 0.58737 0.42494 0.0
C3280 C 0.848 0.59671 0.40483 0.0
C3281 C 0.84711 0.58431 0.38587 0.0
C3282 C 0.84892 0.63088 0.46825 0.0
C3283 C 0.83086 0.62659 0.48139 0.0
C3284 C 0.85309 0.61819 0.4499 0.0
C3285 C 0.83939 0.60089 0.4445 0.0
C3286 C 0.82143 0.59672 0.45769 0.0
C3287 C 0.81726 0.6093 0.47582 0.0
H3288 H 0.34786 0.85657 0.46336 0.0
H3289 H 0.39746 0.81386 0.48742 0.0
H3290 H 0.36843 0.86099 0.42957 0.0
H3291 H 0.41758 0.81826 0.4541 0.0
H3292 H 0.42378 0.79969 0.3841 0.0
H3293 H 0.40172 0.80379 0.4161 0.0
H3294 H 0.41112 0.87273 0.41437 0.0
H3295 H 0.43372 0.86873 0.38183 0.0
C3296 C 0.36332 0.84859 0.46168 0.0
C3297 C 0.37086 0.83456 0.4779 0.0
C3298 C 0.37504 0.85114 0.44239 0.0
C3299 C 0.39437 0.83969 0.43921 0.0
C3300 C 0.40256 0.82702 0.45606 0.0
C3301 C 0.39099 0.82449 0.47513 0.0
C3302 C 0.42109 0.81583 0.39027 0.0
C3303 C 0.43091 0.83385 0.38058 0.0
C3304 C 0.40839 0.81813 0.40862 0.0
C3305 C 0.40504 0.83851 0.41784 0.0
C3306 C 0.41355 0.85683 0.40751 0.0
C3307 C 0.42645 0.85452 0.38896 0.0
H3308 H 0.20309 0.41757 0.38202 0.0
H3309 H 0.1352 0.43366 0.38026 0.0
H3310 H 0.19729 0.39626 0.41433 0.0
H3311 H 0.12946 0.4118 0.41301 0.0
H3312 H 0.1419 0.3476 0.46272 0.0
H3313 H 0.13896 0.36738 0.42838 0.0
H3314 H 0.18323 0.4154 0.4524 0.0
H3315 H 0.18612 0.39614 0.48637 0.0
C3316 C 0.18683 0.41633 0.38833 0.0
C3317 C 0.16967 0.42768 0.37876 0.0
C3318 C 0.18354 0.40406 0.40683 0.0
C3319 C 0.16302 0.40269 0.41623 0.0
C3320 C 0.14544 0.41269 0.40597 0.0
C3321 C 0.14874 0.42515 0.38729 0.0
C3322 C 0.15056 0.36266 0.46083 0.0
C3323 C 0.16453 0.37009 0.47716 0.0
C3324 C 0.14884 0.37393 0.44122 0.0
C3325 C 0.16108 0.3927 0.4378 0.0
C3326 C 0.17381 0.40083 0.45463 0.0
C3327 C 0.17548 0.38972 0.47407 0.0
H3328 H 0.60898 0.55182 0.86742 0.0
H3329 H 0.62909 0.59569 0.81726 0.0
H3330 H 0.57687 0.57421 0.87402 0.0
H3331 H 0.59757 0.61836 0.82431 0.0
H3332 H 0.5424 0.65986 0.84957 0.0
H3333 H 0.57676 0.64104 0.85596 0.0
H3334 H 0.54556 0.58005 0.84342 0.0
H3335 H 0.51159 0.59886 0.83631 0.0
C3336 C 0.60694 0.56668 0.85843 0.0
C3337 C 0.62142 0.57214 0.84189 0.0
C3338 C 0.5886 0.57939 0.86213 0.0
C3339 C 0.58486 0.59801 0.84972 0.0
C3340 C 0.60023 0.60425 0.83428 0.0
C3341 C 0.61819 0.59126 0.8302 0.0
C3342 C 0.54282 0.64239 0.84886 0.0
C3343 C 0.52445 0.63073 0.84254 0.0
C3344 C 0.56242 0.63167 0.85242 0.0
C3345 C 0.56371 0.60912 0.85028 0.0
C3346 C 0.54492 0.59741 0.84546 0.0
C3347 C 0.52554 0.60814 0.84133 0.0
H3348 H 0.43192 0.61837 0.8671 0.0
H3349 H 0.42266 0.61208 0.79821 0.0
H3350 H 0.40944 0.58597 0.87275 0.0
H3351 H 0.40074 0.58019 0.80395 0.0
H3352 H 0.39886 0.50924 0.81914 0.0
H3353 H 0.4185 0.54298 0.82303 0.0
H3354 H 0.36536 0.57027 0.85873 0.0
H3355 H 0.34531 0.53614 0.85482 0.0
C3356 C 0.42478 0.61042 0.85327 0.0
C3357 C 0.4294 0.61758 0.83219 0.0
C3358 C 0.41196 0.59194 0.85652 0.0
C3359 C 0.4037 0.58055 0.83873 0.0
C3360 C 0.40717 0.58858 0.81789 0.0
C3361 C 0.41979 0.60685 0.81465 0.0
C3362 C 0.39144 0.52222 0.82821 0.0
C3363 C 0.37038 0.52014 0.83637 0.0
C3364 C 0.40274 0.5415 0.83049 0.0
C3365 C 0.39331 0.55918 0.84098 0.0
C3366 C 0.37295 0.55675 0.85065 0.0
C3367 C 0.36152 0.53727 0.8484 0.0
H3368 H 0.38916 0.4431 0.86149 0.0
H3369 H 0.37476 0.40636 0.80409 0.0
H3370 H 0.42197 0.42145 0.86698 0.0
H3371 H 0.40699 0.3843 0.81008 0.0
H3372 H 0.46041 0.34037 0.84298 0.0
H3373 H 0.42547 0.35875 0.84714 0.0
H3374 H 0.45566 0.41956 0.83187 0.0
H3375 H 0.49032 0.40119 0.82689 0.0
C3376 C 0.39262 0.42995 0.85051 0.0
C3377 C 0.37949 0.42635 0.83237 0.0
C3378 C 0.41136 0.41766 0.85362 0.0
C3379 C 0.41679 0.40121 0.83901 0.0
C3380 C 0.40295 0.39676 0.82166 0.0
C3381 C 0.38459 0.4094 0.81822 0.0
C3382 C 0.45964 0.35773 0.84106 0.0
C3383 C 0.478 0.36942 0.83466 0.0
C3384 C 0.43971 0.36818 0.84337 0.0
C3385 C 0.43807 0.39052 0.83997 0.0
C3386 C 0.45666 0.40236 0.83481 0.0
C3387 C 0.47641 0.39186 0.83191 0.0
H3388 H 0.59742 0.37232 0.81346 0.0
H3389 H 0.55278 0.392 0.86311 0.0
H3390 H 0.61986 0.40392 0.82093 0.0
H3391 H 0.57493 0.42419 0.87014 0.0
H3392 H 0.60033 0.49002 0.83445 0.0
H3393 H 0.58137 0.45586 0.84001 0.0
H3394 H 0.64199 0.42429 0.85329 0.0
H3395 H 0.66099 0.45877 0.8484 0.0
C3396 C 0.59276 0.38315 0.82636 0.0
C3397 C 0.57352 0.37976 0.83782 0.0
C3398 C 0.6056 0.40116 0.83068 0.0
C3399 C 0.5991 0.41642 0.84612 0.0
C3400 C 0.58031 0.41256 0.85825 0.0
C3401 C 0.56774 0.39417 0.85431 0.0
C3402 C 0.60952 0.47591 0.83917 0.0
C3403 C 0.63208 0.47697 0.84103 0.0
C3404 C 0.59867 0.45642 0.84245 0.0
C3405 C 0.61025 0.43752 0.84712 0.0
C3406 C 0.63274 0.43872 0.84983 0.0
C3407 C 0.64356 0.45839 0.8471 0.0
H3408 H 0.53248 0.34958 0.14592 0.0
H3409 H 0.51583 0.39052 0.19996 0.0
H3410 H 0.56716 0.36879 0.14244 0.0
H3411 H 0.55 0.40917 0.19646 0.0
H3412 H 0.62095 0.41132 0.2079 0.0
H3413 H 0.58882 0.38952 0.20285 0.0
H3414 H 0.5825 0.41321 0.13771 0.0
H3415 H 0.61519 0.43539 0.14272 0.0
C3416 C 0.53599 0.36282 0.15678 0.0
C3417 C 0.52149 0.36825 0.17345 0.0
C3418 C 0.55578 0.37378 0.15474 0.0
C3419 C 0.56127 0.3902 0.16939 0.0
C3420 C 0.54626 0.39635 0.18516 0.0
C3421 C 0.52666 0.38559 0.18715 0.0
C3422 C 0.61306 0.41164 0.19231 0.0
C3423 C 0.62042 0.42538 0.17582 0.0
C3424 C 0.59466 0.39911 0.18944 0.0
C3425 C 0.58307 0.39997 0.17003 0.0
C3426 C 0.59124 0.41231 0.15282 0.0
C3427 C 0.60989 0.42495 0.15569 0.0
H3428 H 0.64948 0.53363 0.15166 0.0
H3429 H 0.60379 0.51516 0.2011 0.0
H3430 H 0.6308 0.56846 0.14775 0.0
H3431 H 0.58554 0.54954 0.19715 0.0
H3432 H 0.5821 0.61994 0.21106 0.0
H3433 H 0.60296 0.58707 0.20742 0.0
H3434 H 0.58968 0.58569 0.13909 0.0
H3435 H 0.56843 0.61917 0.14267 0.0
C3436 C 0.63528 0.53678 0.16136 0.0
C3437 C 0.62836 0.52174 0.17696 0.0
C3438 C 0.62463 0.55667 0.15909 0.0
C3439 C 0.60701 0.56174 0.17242 0.0
C3440 C 0.59933 0.54615 0.18694 0.0
C3441 C 0.60983 0.52644 0.18918 0.0
C3442 C 0.58383 0.61293 0.19513 0.0
C3443 C 0.5733 0.62197 0.1772 0.0
C3444 C 0.59578 0.59406 0.19309 0.0
C3445 C 0.59752 0.58366 0.17307 0.0
C3446 C 0.58846 0.59344 0.15471 0.0
C3447 C 0.57638 0.61255 0.15676 0.0
H3448 H 0.49842 0.60463 0.16272 0.0
H3449 H 0.45653 0.65997 0.16701 0.0
H3450 H 0.46724 0.58132 0.1566 0.0
H3451 H 0.42501 0.63659 0.16173 0.0
H3452 H 0.37171 0.58709 0.14687 0.0
H3453 H 0.40324 0.61026 0.14016 0.0
H3454 H 0.4411 0.57067 0.18329 0.0
H3455 H 0.41024 0.54775 0.18965 0.0
C3456 C 0.4825 0.61182 0.16174 0.0
C3457 C 0.47973 0.63397 0.16521 0.0
C3458 C 0.46464 0.59851 0.15844 0.0
C3459 C 0.44359 0.60703 0.15909 0.0
C3460 C 0.44098 0.62952 0.16098 0.0
C3461 C 0.45897 0.64292 0.16402 0.0
C3462 C 0.3869 0.58323 0.15459 0.0
C3463 C 0.38842 0.56567 0.1689 0.0
C3464 C 0.4049 0.59654 0.15084 0.0
C3465 C 0.42474 0.59225 0.16107 0.0
C3466 C 0.42626 0.57427 0.17479 0.0
C3467 C 0.4084 0.56121 0.17864 0.0
H3468 H 0.43446 0.38183 0.13805 0.0
H3469 H 0.41289 0.37882 0.20429 0.0
H3470 H 0.41028 0.41269 0.1318 0.0
H3471 H 0.38895 0.40909 0.19806 0.0
H3472 H 0.33804 0.45485 0.1815 0.0
H3473 H 0.35612 0.42001 0.17741 0.0
H3474 H 0.41006 0.45168 0.1466 0.0
H3475 H 0.39171 0.48656 0.15063 0.0
C3476 C 0.42431 0.38747 0.15112 0.0
C3477 C 0.42565 0.37795 0.17168 0.0
C3478 C 0.41058 0.40515 0.14757 0.0
C3479 C 0.39764 0.41321 0.1644 0.0
C3480 C 0.39844 0.40307 0.18465 0.0
C3481 C 0.41232 0.38579 0.18828 0.0
C3482 C 0.35341 0.45417 0.17316 0.0
C3483 C 0.36351 0.47317 0.16623 0.0
C3484 C 0.36381 0.43432 0.17093 0.0
C3485 C 0.3846 0.43316 0.16189 0.0
C3486 C 0.39397 0.45204 0.15345 0.0
C3487 C 0.38353 0.47197 0.15573 0.0
H3488 H 0.83269 0.5114 0.60452 0.0
H3489 H 0.84571 0.54319 0.66506 0.0
H3490 H 0.83956 0.54514 0.58521 0.0
H3491 H 0.85187 0.5773 0.64574 0.0
H3492 H 0.81228 0.62839 0.59988 0.0
H3493 H 0.81974 0.59722 0.62283 0.0
H3494 H 0.86986 0.57687 0.57896 0.0
H3495 H 0.86285 0.60869 0.55627 0.0
C3496 C 0.83762 0.52551 0.61359 0.0
C3497 C 0.83881 0.52478 0.6362 0.0
C3498 C 0.84162 0.54476 0.60257 0.0
C3499 C 0.84629 0.56374 0.61402 0.0
C3500 C 0.84846 0.5628 0.63659 0.0
C3501 C 0.84503 0.54334 0.64759 0.0
C3502 C 0.82536 0.61765 0.59553 0.0
C3503 C 0.83705 0.6209 0.5764 0.0
C3504 C 0.82969 0.59989 0.60869 0.0
C3505 C 0.84539 0.58473 0.60265 0.0
C3506 C 0.85777 0.58846 0.584 0.0
C3507 C 0.85383 0.60662 0.57111 0.0
H3508 H 0.859 0.48552 0.38516 0.0
H3509 H 0.8246 0.45385 0.3337 0.0
H3510 H 0.86219 0.45107 0.40432 0.0
H3511 H 0.82814 0.41931 0.35241 0.0
H3512 H 0.80117 0.38049 0.41039 0.0
H3513 H 0.80847 0.40909 0.38483 0.0
H3514 H 0.87445 0.41255 0.40711 0.0
H3515 H 0.86699 0.38355 0.43313 0.0
C3516 C 0.853 0.47096 0.37756 0.0
C3517 C 0.84167 0.47214 0.358 0.0
C3518 C 0.8548 0.45125 0.38848 0.0
C3519 C 0.84515 0.4325 0.38002 0.0
C3520 C 0.83546 0.43351 0.35951 0.0
C3521 C 0.83357 0.4532 0.3487 0.0
C3522 C 0.81735 0.38707 0.40969 0.0
C3523 C 0.83345 0.37985 0.42393 0.0
C3524 C 0.82162 0.40338 0.39484 0.0
C3525 C 0.84208 0.4131 0.39385 0.0
C3526 C 0.8585 0.4054 0.40754 0.0
C3527 C 0.85428 0.38875 0.42233 0.0
H3528 H 0.51214 0.83826 0.39915 0.0
H3529 H 0.54477 0.84957 0.33871 0.0
H3530 H 0.54636 0.84245 0.41848 0.0
H3531 H 0.57927 0.85292 0.35802 0.0
H3532 H 0.62641 0.80827 0.40462 0.0
H3533 H 0.59559 0.81772 0.38188 0.0
H3534 H 0.58129 0.87166 0.4235 0.0
H3535 H 0.61282 0.86269 0.4459 0.0
C3536 C 0.52657 0.84229 0.39012 0.0
C3537 C 0.52592 0.8438 0.36754 0.0
C3538 C 0.54608 0.84473 0.40114 0.0
C3539 C 0.56534 0.84807 0.38969 0.0
C3540 C 0.56455 0.85055 0.36716 0.0
C3541 C 0.54489 0.84873 0.35617 0.0
C3542 C 0.61709 0.82253 0.40852 0.0
C3543 C 0.62196 0.8348 0.42693 0.0
C3544 C 0.59954 0.82797 0.39548 0.0
C3545 C 0.5862 0.84543 0.40096 0.0
C3546 C 0.5915 0.85823 0.41891 0.0
C3547 C 0.60949 0.85314 0.43163 0.0
H3548 H 0.13728 0.61671 0.43697 0.0
H3549 H 0.20537 0.61631 0.42179 0.0
H3550 H 0.13217 0.58494 0.41348 0.0
H3551 H 0.2002 0.58516 0.39872 0.0
H3552 H 0.19084 0.51327 0.39593 0.0
H3553 H 0.1872 0.54663 0.41606 0.0
H3554 H 0.14179 0.57059 0.36909 0.0
H3555 H 0.14543 0.53673 0.34846 0.0
C3556 C 0.15098 0.61024 0.42825 0.0
C3557 C 0.17179 0.61877 0.43153 0.0
C3558 C 0.14804 0.59213 0.41485 0.0
C3559 C 0.16588 0.58253 0.40462 0.0
C3560 C 0.18625 0.59212 0.40667 0.0
C3561 C 0.18918 0.60997 0.41994 0.0
C3562 C 0.17983 0.52545 0.3899 0.0
C3563 C 0.16872 0.52249 0.37035 0.0
C3564 C 0.17772 0.54453 0.40151 0.0
C3565 C 0.16445 0.56121 0.39394 0.0
C3566 C 0.15211 0.55789 0.37521 0.0
C3567 C 0.15422 0.53857 0.36345 0.0
H3568 H 0.50164 0.17387 0.4021 0.0
H3569 H 0.4666 0.15489 0.34503 0.0
H3570 H 0.46886 0.17051 0.42351 0.0
H3571 H 0.43328 0.15234 0.36639 0.0
H3572 H 0.37788 0.14382 0.41768 0.0
H3573 H 0.41138 0.13644 0.39758 0.0
H3574 H 0.4388 0.19561 0.42216 0.0
H3575 H 0.40626 0.20279 0.44203 0.0
C3576 C 0.48694 0.16854 0.39426 0.0
C3577 C 0.48654 0.16482 0.37195 0.0
C3578 C 0.46814 0.16673 0.40646 0.0
C3579 C 0.44835 0.16169 0.39654 0.0
C3580 C 0.44826 0.15623 0.37449 0.0
C3581 C 0.4673 0.1577 0.36227 0.0
C3582 C 0.39115 0.15513 0.41882 0.0
C3583 C 0.38931 0.17384 0.43161 0.0
C3584 C 0.41028 0.15093 0.40729 0.0
C3585 C 0.42789 0.16524 0.40859 0.0
C3586 C 0.42583 0.18392 0.42122 0.0
C3587 C 0.40693 0.18813 0.43253 0.0
H3588 H 0.16685 0.48482 0.60087 0.0
H3589 H 0.15312 0.45299 0.66127 0.0
H3590 H 0.16021 0.45106 0.5815 0.0
H3591 H 0.14719 0.4189 0.64187 0.0
H3592 H 0.18573 0.3672 0.59536 0.0
H3593 H 0.17929 0.39852 0.61848 0.0
H3594 H 0.12878 0.41985 0.57557 0.0
H3595 H 0.13473 0.38793 0.55275 0.0
C3596 C 0.16195 0.47068 0.60991 0.0
C3597 C 0.16044 0.47144 0.63251 0.0
C3598 C 0.15806 0.45143 0.59885 0.0
C3599 C 0.15314 0.43247 0.61023 0.0
C3600 C 0.15082 0.43339 0.63277 0.0
C3601 C 0.15413 0.45284 0.64382 0.0
C3602 C 0.17277 0.3782 0.59128 0.0
C3603 C 0.16065 0.37518 0.57238 0.0
C3604 C 0.16905 0.39605 0.60452 0.0
C3605 C 0.15354 0.41152 0.59877 0.0
C3606 C 0.14074 0.40804 0.58037 0.0
C3607 C 0.14407 0.3898 0.56741 0.0
H3608 H 0.61666 0.14194 0.56887 0.0
H3609 H 0.61484 0.21077 0.58026 0.0
H3610 H 0.58277 0.13799 0.5894 0.0
H3611 H 0.5816 0.20673 0.6003 0.0
H3612 H 0.51036 0.1986 0.60312 0.0
H3613 H 0.54438 0.19493 0.58413 0.0
H3614 H 0.56541 0.14709 0.63011 0.0
H3615 H 0.53087 0.1507 0.6495 0.0
C3616 C 0.60929 0.15611 0.57596 0.0
C3617 C 0.61827 0.17671 0.57253 0.0
C3618 C 0.58995 0.15383 0.58769 0.0
C3619 C 0.57942 0.17213 0.59603 0.0
C3620 C 0.58915 0.19241 0.59367 0.0
C3621 C 0.60825 0.19468 0.58213 0.0
C3622 C 0.52204 0.18707 0.60917 0.0
C3623 C 0.51802 0.17523 0.62809 0.0
C3624 C 0.54154 0.18497 0.59822 0.0
C3625 C 0.55762 0.171 0.60587 0.0
C3626 C 0.55323 0.15798 0.62392 0.0
C3627 C 0.53351 0.16009 0.63499 0.0
H3628 H 0.46316 0.85384 0.65373 0.0
H3629 H 0.48546 0.80777 0.60634 0.0
H3630 H 0.42903 0.85763 0.63359 0.0
H3631 H 0.4518 0.81151 0.5867 0.0
H3632 H 0.38149 0.79447 0.5819 0.0
H3633 H 0.41349 0.799 0.60394 0.0
H3634 H 0.41389 0.86723 0.59023 0.0
H3635 H 0.3814 0.86278 0.56769 0.0
C3636 C 0.46101 0.84494 0.63884 0.0
C3637 C 0.47685 0.83022 0.63183 0.0
C3638 C 0.44154 0.84712 0.62737 0.0
C3639 C 0.43777 0.83459 0.60884 0.0
C3640 C 0.45422 0.8211 0.60112 0.0
C3641 C 0.47348 0.81896 0.61243 0.0
C3642 C 0.38811 0.81055 0.58369 0.0
C3643 C 0.37909 0.8282 0.57266 0.0
C3644 C 0.40645 0.81311 0.59638 0.0
C3645 C 0.41628 0.83338 0.59847 0.0
C3646 C 0.40654 0.85143 0.5888 0.0
C3647 C 0.38801 0.84886 0.57593 0.0
loop_
_geom_bond_atom_site_label_1
_geom_bond_atom_site_label_2
_geom_bond_distance
_geom_bond_site_symmetry_2
_ccdc_geom_bond_type
Mn0 O5 2.095 . S
Mn0 O15 2.162 . S
Mn0 O16 2.297 . S
Mn0 O24 2.385 . S
Mn0 O25 2.209 . S
Mn0 O26 2.094 1_455 S
Mn1 O6 2.121 . S
Mn1 N8 2.257 . S
Mn1 N17 2.282 1_455 S
Mn1 O25 2.215 . S
Mn1 O27 2.117 1_455 S
C2 O24 1.234 . S
C2 O25 1.283 . S
C3 O15 1.281 . S
C3 O16 1.236 . S
C4 O26 1.240 . S
C4 O27 1.264 . S
O5 Mn0 2.095 . S
O5 C14 1.250 . S
O6 Mn1 2.121 . S
O6 C14 1.258 . S
C7 N8 1.326 . S
C7 C11 1.460 . S
C7 H13 0.929 . S
N8 Mn1 2.257 . S
N8 C7 1.326 . S
N8 C12 1.362 . S
C9 C10 1.258 . S
C9 C12 1.431 . S
C9 C29 1.449 . S
C10 C9 1.258 . S
C10 C11 1.477 . S
C10 H30 0.931 . S
C11 C7 1.460 . S
C11 C10 1.477 . S
C11 H31 0.930 . S
C12 N8 1.362 . S
C12 C9 1.431 . S
C12 C22 1.476 1_455 S
H13 C7 0.929 . S
C14 O5 1.250 . S
C14 O6 1.258 . S
O15 Mn0 2.162 . S
O15 C3 1.281 . S
O16 Mn0 2.297 . S
O16 C3 1.236 . S
N17 Mn1 2.282 1_655 S
N17 C18 1.328 . S
N17 C22 1.318 . S
C18 N17 1.328 . S
C18 C19 1.457 . S
C18 H23 0.929 . S
C19 C18 1.457 . S
C19 C20 1.291 . S
C19 H32 0.931 . S
C20 C19 1.291 . S
C20 C21 1.373 . S
C20 H33 0.929 . S
C21 C20 1.373 . S
C21 C22 1.396 . S
C21 C28 1.403 . S
C22 C12 1.476 1_655 S
C22 N17 1.318 . S
C22 C21 1.396 . S
H23 C18 0.929 . S
O24 Mn0 2.385 . S
O24 C2 1.234 . S
O25 Mn0 2.209 . S
O25 Mn1 2.215 . S
O25 C2 1.283 . S
O26 Mn0 2.094 1_655 S
O26 C4 1.240 . S
O27 Mn1 2.117 1_655 S
O27 C4 1.264 . S
C28 C21 1.403 . S
C28 C29 1.399 1_655 S
C28 H34 0.929 . S
C29 C9 1.449 . S
C29 C28 1.399 1_455 S
C29 H35 0.930 . S
H30 C10 0.931 . S
H31 C11 0.930 . S
H32 C19 0.931 . S
H33 C20 0.929 . S
H34 C28 0.929 . S
H35 C29 0.930 . S
Mn36 O41 2.095 . S
Mn36 O51 2.162 . S
Mn36 O52 2.297 . S
Mn36 O60 2.385 . S
Mn36 O61 2.209 . S
Mn36 O62 2.094 1_545 S
Mn37 O42 2.121 . S
Mn37 N44 2.257 . S
Mn37 N53 2.282 1_545 S
Mn37 O61 2.215 . S
Mn37 O63 2.117 1_545 S
C38 O60 1.234 . S
C38 O61 1.283 . S
C39 O51 1.281 . S
C39 O52 1.236 . S
C40 O62 1.240 . S
C40 O63 1.264 . S
O41 Mn36 2.095 . S
O41 C50 1.250 . S
O42 Mn37 2.121 . S
O42 C50 1.258 . S
C43 N44 1.326 . S
C43 C47 1.460 . S
C43 H49 0.929 . S
N44 Mn37 2.257 . S
N44 C43 1.326 . S
N44 C48 1.362 . S
C45 C46 1.258 . S
C45 C48 1.431 . S
C45 C65 1.449 . S
C46 C45 1.258 . S
C46 C47 1.477 . S
C46 H66 0.931 . S
C47 C43 1.460 . S
C47 C46 1.477 . S
C47 H67 0.930 . S
C48 N44 1.362 . S
C48 C45 1.431 . S
C48 C58 1.476 1_545 S
H49 C43 0.929 . S
C50 O41 1.250 . S
C50 O42 1.258 . S
O51 Mn36 2.162 . S
O51 C39 1.281 . S
O52 Mn36 2.297 . S
O52 C39 1.236 . S
N53 Mn37 2.282 1_565 S
N53 C54 1.328 . S
N53 C58 1.318 . S
C54 N53 1.328 . S
C54 C55 1.457 . S
C54 H59 0.929 . S
C55 C54 1.457 . S
C55 C56 1.291 . S
C55 H68 0.931 . S
C56 C55 1.291 . S
C56 C57 1.373 . S
C56 H69 0.929 . S
C57 C56 1.373 . S
C57 C58 1.396 . S
C57 C64 1.403 . S
C58 C48 1.476 1_565 S
C58 N53 1.318 . S
C58 C57 1.396 . S
H59 C54 0.929 . S
O60 Mn36 2.385 . S
O60 C38 1.234 . S
O61 Mn36 2.209 . S
O61 Mn37 2.215 . S
O61 C38 1.283 . S
O62 Mn36 2.094 1_565 S
O62 C40 1.240 . S
O63 Mn37 2.117 1_565 S
O63 C40 1.264 . S
C64 C57 1.403 . S
C64 C65 1.399 1_565 S
C64 H70 0.929 . S
C65 C45 1.449 . S
C65 C64 1.399 1_545 S
C65 H71 0.930 . S
H66 C46 0.931 . S
H67 C47 0.930 . S
H68 C55 0.931 . S
H69 C56 0.929 . S
H70 C64 0.929 . S
H71 C65 0.930 . S
Mn72 O77 2.095 . S
Mn72 O87 2.162 . S
Mn72 O88 2.297 . S
Mn72 O96 2.385 . S
Mn72 O97 2.209 . S
Mn72 O98 2.094 1_655 S
Mn73 O78 2.121 . S
Mn73 N80 2.257 . S
Mn73 N89 2.282 1_655 S
Mn73 O97 2.215 . S
Mn73 O99 2.117 1_655 S
C74 O96 1.234 . S
C74 O97 1.283 . S
C75 O87 1.281 . S
C75 O88 1.236 . S
C76 O98 1.240 . S
C76 O99 1.264 . S
O77 Mn72 2.095 . S
O77 C86 1.250 . S
O78 Mn73 2.121 . S
O78 C86 1.258 . S
C79 N80 1.326 . S
C79 C83 1.460 . S
C79 H85 0.929 . S
N80 Mn73 2.257 . S
N80 C79 1.326 . S
N80 C84 1.362 . S
C81 C82 1.258 . S
C81 C84 1.431 . S
C81 C101 1.449 . S
C82 C81 1.258 . S
C82 C83 1.477 . S
C82 H102 0.931 . S
C83 C79 1.460 . S
C83 C82 1.477 . S
C83 H103 0.930 . S
C84 N80 1.362 . S
C84 C81 1.431 . S
C84 C94 1.476 1_655 S
H85 C79 0.929 . S
C86 O77 1.250 . S
C86 O78 1.258 . S
O87 Mn72 2.162 . S
O87 C75 1.281 . S
O88 Mn72 2.297 . S
O88 C75 1.236 . S
N89 Mn73 2.282 1_455 S
N89 C90 1.328 . S
N89 C94 1.318 . S
C90 N89 1.328 . S
C90 C91 1.457 . S
C90 H95 0.929 . S
C91 C90 1.457 . S
C91 C92 1.291 . S
C91 H104 0.931 . S
C92 C91 1.291 . S
C92 C93 1.373 . S
C92 H105 0.929 . S
C93 C92 1.373 . S
C93 C94 1.396 . S
C93 C100 1.403 . S
C94 C84 1.476 1_455 S
C94 N89 1.318 . S
C94 C93 1.396 . S
H95 C90 0.929 . S
O96 Mn72 2.385 . S
O96 C74 1.234 . S
O97 Mn72 2.209 . S
O97 Mn73 2.215 . S
O97 C74 1.283 . S
O98 Mn72 2.094 1_455 S
O98 C76 1.240 . S
O99 Mn73 2.117 1_455 S
O99 C76 1.264 . S
C100 C93 1.403 . S
C100 C101 1.399 1_455 S
C100 H106 0.929 . S
C101 C81 1.449 . S
C101 C100 1.399 1_655 S
C101 H107 0.930 . S
H102 C82 0.931 . S
H103 C83 0.930 . S
H104 C91 0.931 . S
H105 C92 0.929 . S
H106 C100 0.929 . S
H107 C101 0.930 . S
Mn108 O113 2.095 . S
Mn108 O123 2.162 . S
Mn108 O124 2.297 . S
Mn108 O132 2.385 . S
Mn108 O133 2.209 . S
Mn108 O134 2.094 1_565 S
Mn109 O114 2.121 . S
Mn109 N116 2.257 . S
Mn109 N125 2.282 1_565 S
Mn109 O133 2.215 . S
Mn109 O135 2.117 1_565 S
C110 O132 1.234 . S
C110 O133 1.283 . S
C111 O123 1.281 . S
C111 O124 1.236 . S
C112 O134 1.240 . S
C112 O135 1.264 . S
O113 Mn108 2.095 . S
O113 C122 1.250 . S
O114 Mn109 2.121 . S
O114 C122 1.258 . S
C115 N116 1.326 . S
C115 C119 1.460 . S
C115 H121 0.929 . S
N116 Mn109 2.257 . S
N116 C115 1.326 . S
N116 C120 1.362 . S
C117 C118 1.258 . S
C117 C120 1.431 . S
C117 C137 1.449 . S
C118 C117 1.258 . S
C118 C119 1.477 . S
C118 H138 0.931 . S
C119 C115 1.460 . S
C119 C118 1.477 . S
C119 H139 0.930 . S
C120 N116 1.362 . S
C120 C117 1.431 . S
C120 C130 1.476 1_565 S
H121 C115 0.929 . S
C122 O113 1.250 . S
C122 O114 1.258 . S
O123 Mn108 2.162 . S
O123 C111 1.281 . S
O124 Mn108 2.297 . S
O124 C111 1.236 . S
N125 Mn109 2.282 1_545 S
N125 C126 1.328 . S
N125 C130 1.318 . S
C126 N125 1.328 . S
C126 C127 1.457 . S
C126 H131 0.929 . S
C127 C126 1.457 . S
C127 C128 1.291 . S
C127 H140 0.931 . S
C128 C127 1.291 . S
C128 C129 1.373 . S
C128 H141 0.929 . S
C129 C128 1.373 . S
C129 C130 1.396 . S
C129 C136 1.403 . S
C130 C120 1.476 1_545 S
C130 N125 1.318 . S
C130 C129 1.396 . S
H131 C126 0.929 . S
O132 Mn108 2.385 . S
O132 C110 1.234 . S
O133 Mn108 2.209 . S
O133 Mn109 2.215 . S
O133 C110 1.283 . S
O134 Mn108 2.094 1_545 S
O134 C112 1.240 . S
O135 Mn109 2.117 1_545 S
O135 C112 1.264 . S
C136 C129 1.403 . S
C136 C137 1.399 1_545 S
C136 H142 0.929 . S
C137 C117 1.449 . S
C137 C136 1.399 1_565 S
C137 H143 0.930 . S
H138 C118 0.931 . S
H139 C119 0.930 . S
H140 C127 0.931 . S
H141 C128 0.929 . S
H142 C136 0.929 . S
H143 C137 0.930 . S
Mn144 O149 2.095 . S
Mn144 O159 2.162 . S
Mn144 O160 2.297 . S
Mn144 O168 2.385 . S
Mn144 O169 2.209 . S
Mn144 O170 2.094 1_455 S
Mn145 O150 2.121 . S
Mn145 N152 2.257 . S
Mn145 N161 2.282 1_455 S
Mn145 O169 2.215 . S
Mn145 O171 2.117 1_455 S
C146 O168 1.234 . S
C146 O169 1.283 . S
C147 O159 1.281 . S
C147 O160 1.236 . S
C148 O170 1.240 . S
C148 O171 1.264 . S
O149 Mn144 2.095 . S
O149 C158 1.250 . S
O150 Mn145 2.121 . S
O150 C158 1.258 . S
C151 N152 1.326 . S
C151 C155 1.460 . S
C151 H157 0.929 . S
N152 Mn145 2.257 . S
N152 C151 1.326 . S
N152 C156 1.362 . S
C153 C154 1.258 . S
C153 C156 1.431 . S
C153 C173 1.449 . S
C154 C153 1.258 . S
C154 C155 1.477 . S
C154 H174 0.931 . S
C155 C151 1.460 . S
C155 C154 1.477 . S
C155 H175 0.930 . S
C156 N152 1.362 . S
C156 C153 1.431 . S
C156 C166 1.476 1_455 S
H157 C151 0.929 . S
C158 O149 1.250 . S
C158 O150 1.258 . S
O159 Mn144 2.162 . S
O159 C147 1.281 . S
O160 Mn144 2.297 . S
O160 C147 1.236 . S
N161 Mn145 2.282 1_655 S
N161 C162 1.328 . S
N161 C166 1.318 . S
C162 N161 1.328 . S
C162 C163 1.457 . S
C162 H167 0.929 . S
C163 C162 1.457 . S
C163 C164 1.291 . S
C163 H176 0.931 . S
C164 C163 1.291 . S
C164 C165 1.373 . S
C164 H177 0.929 . S
C165 C164 1.373 . S
C165 C166 1.396 . S
C165 C172 1.403 . S
C166 C156 1.476 1_655 S
C166 N161 1.318 . S
C166 C165 1.396 . S
H167 C162 0.929 . S
O168 Mn144 2.385 . S
O168 C146 1.234 . S
O169 Mn144 2.209 . S
O169 Mn145 2.215 . S
O169 C146 1.283 . S
O170 Mn144 2.094 1_655 S
O170 C148 1.240 . S
O171 Mn145 2.117 1_655 S
O171 C148 1.264 . S
C172 C165 1.403 . S
C172 C173 1.399 1_655 S
C172 H178 0.929 . S
C173 C153 1.449 . S
C173 C172 1.399 1_455 S
C173 H179 0.930 . S
H174 C154 0.931 . S
H175 C155 0.930 . S
H176 C163 0.931 . S
H177 C164 0.929 . S
H178 C172 0.929 . S
H179 C173 0.930 . S
Mn180 O185 2.095 . S
Mn180 O195 2.162 . S
Mn180 O196 2.297 . S
Mn180 O204 2.385 . S
Mn180 O205 2.209 . S
Mn180 O206 2.094 1_545 S
Mn181 O186 2.121 . S
Mn181 N188 2.257 . S
Mn181 N197 2.282 1_545 S
Mn181 O205 2.215 . S
Mn181 O207 2.117 1_545 S
C182 O204 1.234 . S
C182 O205 1.283 . S
C183 O195 1.281 . S
C183 O196 1.236 . S
C184 O206 1.240 . S
C184 O207 1.264 . S
O185 Mn180 2.095 . S
O185 C194 1.250 . S
O186 Mn181 2.121 . S
O186 C194 1.258 . S
C187 N188 1.326 . S
C187 C191 1.460 . S
C187 H193 0.929 . S
N188 Mn181 2.257 . S
N188 C187 1.326 . S
N188 C192 1.362 . S
C189 C190 1.258 . S
C189 C192 1.431 . S
C189 C209 1.449 . S
C190 C189 1.258 . S
C190 C191 1.477 . S
C190 H210 0.931 . S
C191 C187 1.460 . S
C191 C190 1.477 . S
C191 H211 0.930 . S
C192 N188 1.362 . S
C192 C189 1.431 . S
C192 C202 1.476 1_545 S
H193 C187 0.929 . S
C194 O185 1.250 . S
C194 O186 1.258 . S
O195 Mn180 2.162 . S
O195 C183 1.281 . S
O196 Mn180 2.297 . S
O196 C183 1.236 . S
N197 Mn181 2.282 1_565 S
N197 C198 1.328 . S
N197 C202 1.318 . S
C198 N197 1.328 . S
C198 C199 1.457 . S
C198 H203 0.929 . S
C199 C198 1.457 . S
C199 C200 1.291 . S
C199 H212 0.931 . S
C200 C199 1.291 . S
C200 C201 1.373 . S
C200 H213 0.929 . S
C201 C200 1.373 . S
C201 C202 1.396 . S
C201 C208 1.403 . S
C202 C192 1.476 1_565 S
C202 N197 1.318 . S
C202 C201 1.396 . S
H203 C198 0.929 . S
O204 Mn180 2.385 . S
O204 C182 1.234 . S
O205 Mn180 2.209 . S
O205 Mn181 2.215 . S
O205 C182 1.283 . S
O206 Mn180 2.094 1_565 S
O206 C184 1.240 . S
O207 Mn181 2.117 1_565 S
O207 C184 1.264 . S
C208 C201 1.403 . S
C208 C209 1.399 1_565 S
C208 H214 0.929 . S
C209 C189 1.449 . S
C209 C208 1.399 1_545 S
C209 H215 0.930 . S
H210 C190 0.931 . S
H211 C191 0.930 . S
H212 C199 0.931 . S
H213 C200 0.929 . S
H214 C208 0.929 . S
H215 C209 0.930 . S
Mn216 O221 2.095 . S
Mn216 O231 2.162 . S
Mn216 O232 2.297 . S
Mn216 O240 2.385 . S
Mn216 O241 2.209 . S
Mn216 O242 2.094 1_655 S
Mn217 O222 2.121 . S
Mn217 N224 2.257 . S
Mn217 N233 2.282 1_655 S
Mn217 O241 2.215 . S
Mn217 O243 2.117 1_655 S
C218 O240 1.234 . S
C218 O241 1.283 . S
C219 O231 1.281 . S
C219 O232 1.236 . S
C220 O242 1.240 . S
C220 O243 1.264 . S
O221 Mn216 2.095 . S
O221 C230 1.250 . S
O222 Mn217 2.121 . S
O222 C230 1.258 . S
C223 N224 1.326 . S
C223 C227 1.460 . S
C223 H229 0.929 . S
N224 Mn217 2.257 . S
N224 C223 1.326 . S
N224 C228 1.362 . S
C225 C226 1.258 . S
C225 C228 1.431 . S
C225 C245 1.449 . S
C226 C225 1.258 . S
C226 C227 1.477 . S
C226 H246 0.931 . S
C227 C223 1.460 . S
C227 C226 1.477 . S
C227 H247 0.930 . S
C228 N224 1.362 . S
C228 C225 1.431 . S
C228 C238 1.476 1_655 S
H229 C223 0.929 . S
C230 O221 1.250 . S
C230 O222 1.258 . S
O231 Mn216 2.162 . S
O231 C219 1.281 . S
O232 Mn216 2.297 . S
O232 C219 1.236 . S
N233 Mn217 2.282 1_455 S
N233 C234 1.328 . S
N233 C238 1.318 . S
C234 N233 1.328 . S
C234 C235 1.457 . S
C234 H239 0.929 . S
C235 C234 1.457 . S
C235 C236 1.291 . S
C235 H248 0.931 . S
C236 C235 1.291 . S
C236 C237 1.373 . S
C236 H249 0.929 . S
C237 C236 1.373 . S
C237 C238 1.396 . S
C237 C244 1.403 . S
C238 C228 1.476 1_455 S
C238 N233 1.318 . S
C238 C237 1.396 . S
H239 C234 0.929 . S
O240 Mn216 2.385 . S
O240 C218 1.234 . S
O241 Mn216 2.209 . S
O241 Mn217 2.215 . S
O241 C218 1.283 . S
O242 Mn216 2.094 1_455 S
O242 C220 1.240 . S
O243 Mn217 2.117 1_455 S
O243 C220 1.264 . S
C244 C237 1.403 . S
C244 C245 1.399 1_455 S
C244 H250 0.929 . S
C245 C225 1.449 . S
C245 C244 1.399 1_655 S
C245 H251 0.930 . S
H246 C226 0.931 . S
H247 C227 0.930 . S
H248 C235 0.931 . S
H249 C236 0.929 . S
H250 C244 0.929 . S
H251 C245 0.930 . S
Mn252 O257 2.095 . S
Mn252 O267 2.162 . S
Mn252 O268 2.297 . S
Mn252 O276 2.385 . S
Mn252 O277 2.209 . S
Mn252 O278 2.094 1_565 S
Mn253 O258 2.121 . S
Mn253 N260 2.257 . S
Mn253 N269 2.282 1_565 S
Mn253 O277 2.215 . S
Mn253 O279 2.117 1_565 S
C254 O276 1.234 . S
C254 O277 1.283 . S
C255 O267 1.281 . S
C255 O268 1.236 . S
C256 O278 1.240 . S
C256 O279 1.264 . S
O257 Mn252 2.095 . S
O257 C266 1.250 . S
O258 Mn253 2.121 . S
O258 C266 1.258 . S
C259 N260 1.326 . S
C259 C263 1.460 . S
C259 H265 0.929 . S
N260 Mn253 2.257 . S
N260 C259 1.326 . S
N260 C264 1.362 . S
C261 C262 1.258 . S
C261 C264 1.431 . S
C261 C281 1.449 . S
C262 C261 1.258 . S
C262 C263 1.477 . S
C262 H282 0.931 . S
C263 C259 1.460 . S
C263 C262 1.477 . S
C263 H283 0.930 . S
C264 N260 1.362 . S
C264 C261 1.431 . S
C264 C274 1.476 1_565 S
H265 C259 0.929 . S
C266 O257 1.250 . S
C266 O258 1.258 . S
O267 Mn252 2.162 . S
O267 C255 1.281 . S
O268 Mn252 2.297 . S
O268 C255 1.236 . S
N269 Mn253 2.282 1_545 S
N269 C270 1.328 . S
N269 C274 1.318 . S
C270 N269 1.328 . S
C270 C271 1.457 . S
C270 H275 0.929 . S
C271 C270 1.457 . S
C271 C272 1.291 . S
C271 H284 0.931 . S
C272 C271 1.291 . S
C272 C273 1.373 . S
C272 H285 0.929 . S
C273 C272 1.373 . S
C273 C274 1.396 . S
C273 C280 1.403 . S
C274 C264 1.476 1_545 S
C274 N269 1.318 . S
C274 C273 1.396 . S
H275 C270 0.929 . S
O276 Mn252 2.385 . S
O276 C254 1.234 . S
O277 Mn252 2.209 . S
O277 Mn253 2.215 . S
O277 C254 1.283 . S
O278 Mn252 2.094 1_545 S
O278 C256 1.240 . S
O279 Mn253 2.117 1_545 S
O279 C256 1.264 . S
C280 C273 1.403 . S
C280 C281 1.399 1_545 S
C280 H286 0.929 . S
C281 C261 1.449 . S
C281 C280 1.399 1_565 S
C281 H287 0.930 . S
H282 C262 0.931 . S
H283 C263 0.930 . S
H284 C271 0.931 . S
H285 C272 0.929 . S
H286 C280 0.929 . S
H287 C281 0.930 . S
Mn288 O293 2.095 . S
Mn288 O303 2.162 . S
Mn288 O304 2.297 . S
Mn288 O312 2.385 . S
Mn288 O313 2.209 . S
Mn288 O314 2.094 1_545 S
Mn289 O294 2.121 . S
Mn289 N296 2.257 . S
Mn289 N305 2.282 1_545 S
Mn289 O313 2.215 . S
Mn289 O315 2.117 1_545 S
C290 O312 1.234 . S
C290 O313 1.283 . S
C291 O303 1.281 . S
C291 O304 1.236 . S
C292 O314 1.240 . S
C292 O315 1.264 . S
O293 Mn288 2.095 . S
O293 C302 1.250 . S
O294 Mn289 2.121 . S
O294 C302 1.258 . S
C295 N296 1.326 . S
C295 C299 1.460 . S
C295 H301 0.929 . S
N296 Mn289 2.257 . S
N296 C295 1.326 . S
N296 C300 1.362 . S
C297 C298 1.258 . S
C297 C300 1.431 . S
C297 C317 1.449 . S
C298 C297 1.258 . S
C298 C299 1.477 . S
C298 H318 0.931 . S
C299 C295 1.460 . S
C299 C298 1.477 . S
C299 H319 0.930 . S
C300 N296 1.362 . S
C300 C297 1.431 . S
C300 C310 1.476 1_545 S
H301 C295 0.929 . S
C302 O293 1.250 . S
C302 O294 1.258 . S
O303 Mn288 2.162 . S
O303 C291 1.281 . S
O304 Mn288 2.297 . S
O304 C291 1.236 . S
N305 Mn289 2.282 1_565 S
N305 C306 1.328 . S
N305 C310 1.318 . S
C306 N305 1.328 . S
C306 C307 1.457 . S
C306 H311 0.929 . S
C307 C306 1.457 . S
C307 C308 1.291 . S
C307 H320 0.931 . S
C308 C307 1.291 . S
C308 C309 1.373 . S
C308 H321 0.929 . S
C309 C308 1.373 . S
C309 C310 1.396 . S
C309 C316 1.403 . S
C310 C300 1.476 1_565 S
C310 N305 1.318 . S
C310 C309 1.396 . S
H311 C306 0.929 . S
O312 Mn288 2.385 . S
O312 C290 1.234 . S
O313 Mn288 2.209 . S
O313 Mn289 2.215 . S
O313 C290 1.283 . S
O314 Mn288 2.094 1_565 S
O314 C292 1.240 . S
O315 Mn289 2.117 1_565 S
O315 C292 1.264 . S
C316 C309 1.403 . S
C316 C317 1.399 1_565 S
C316 H322 0.929 . S
C317 C297 1.449 . S
C317 C316 1.399 1_545 S
C317 H323 0.930 . S
H318 C298 0.931 . S
H319 C299 0.930 . S
H320 C307 0.931 . S
H321 C308 0.929 . S
H322 C316 0.929 . S
H323 C317 0.930 . S
Mn324 O329 2.095 . S
Mn324 O339 2.162 . S
Mn324 O340 2.297 . S
Mn324 O348 2.385 . S
Mn324 O349 2.209 . S
Mn324 O350 2.094 1_655 S
Mn325 O330 2.121 . S
Mn325 N332 2.257 . S
Mn325 N341 2.282 1_655 S
Mn325 O349 2.215 . S
Mn325 O351 2.117 1_655 S
C326 O348 1.234 . S
C326 O349 1.283 . S
C327 O339 1.281 . S
C327 O340 1.236 . S
C328 O350 1.240 . S
C328 O351 1.264 . S
O329 Mn324 2.095 . S
O329 C338 1.250 . S
O330 Mn325 2.121 . S
O330 C338 1.258 . S
C331 N332 1.326 . S
C331 C335 1.460 . S
C331 H337 0.929 . S
N332 Mn325 2.257 . S
N332 C331 1.326 . S
N332 C336 1.362 . S
C333 C334 1.258 . S
C333 C336 1.431 . S
C333 C353 1.449 . S
C334 C333 1.258 . S
C334 C335 1.477 . S
C334 H354 0.931 . S
C335 C331 1.460 . S
C335 C334 1.477 . S
C335 H355 0.930 . S
C336 N332 1.362 . S
C336 C333 1.431 . S
C336 C346 1.476 1_655 S
H337 C331 0.929 . S
C338 O329 1.250 . S
C338 O330 1.258 . S
O339 Mn324 2.162 . S
O339 C327 1.281 . S
O340 Mn324 2.297 . S
O340 C327 1.236 . S
N341 Mn325 2.282 1_455 S
N341 C342 1.328 . S
N341 C346 1.318 . S
C342 N341 1.328 . S
C342 C343 1.457 . S
C342 H347 0.929 . S
C343 C342 1.457 . S
C343 C344 1.291 . S
C343 H356 0.931 . S
C344 C343 1.291 . S
C344 C345 1.373 . S
C344 H357 0.929 . S
C345 C344 1.373 . S
C345 C346 1.396 . S
C345 C352 1.403 . S
C346 C336 1.476 1_455 S
C346 N341 1.318 . S
C346 C345 1.396 . S
H347 C342 0.929 . S
O348 Mn324 2.385 . S
O348 C326 1.234 . S
O349 Mn324 2.209 . S
O349 Mn325 2.215 . S
O349 C326 1.283 . S
O350 Mn324 2.094 1_455 S
O350 C328 1.240 . S
O351 Mn325 2.117 1_455 S
O351 C328 1.264 . S
C352 C345 1.403 . S
C352 C353 1.399 1_455 S
C352 H358 0.929 . S
C353 C333 1.449 . S
C353 C352 1.399 1_655 S
C353 H359 0.930 . S
H354 C334 0.931 . S
H355 C335 0.930 . S
H356 C343 0.931 . S
H357 C344 0.929 . S
H358 C352 0.929 . S
H359 C353 0.930 . S
Mn360 O365 2.095 . S
Mn360 O375 2.162 . S
Mn360 O376 2.297 . S
Mn360 O384 2.385 . S
Mn360 O385 2.209 . S
Mn360 O386 2.094 1_565 S
Mn361 O366 2.121 . S
Mn361 N368 2.257 . S
Mn361 N377 2.282 1_565 S
Mn361 O385 2.215 . S
Mn361 O387 2.117 1_565 S
C362 O384 1.234 . S
C362 O385 1.283 . S
C363 O375 1.281 . S
C363 O376 1.236 . S
C364 O386 1.240 . S
C364 O387 1.264 . S
O365 Mn360 2.095 . S
O365 C374 1.250 . S
O366 Mn361 2.121 . S
O366 C374 1.258 . S
C367 N368 1.326 . S
C367 C371 1.460 . S
C367 H373 0.929 . S
N368 Mn361 2.257 . S
N368 C367 1.326 . S
N368 C372 1.362 . S
C369 C370 1.258 . S
C369 C372 1.431 . S
C369 C389 1.449 . S
C370 C369 1.258 . S
C370 C371 1.477 . S
C370 H390 0.931 . S
C371 C367 1.460 . S
C371 C370 1.477 . S
C371 H391 0.930 . S
C372 N368 1.362 . S
C372 C369 1.431 . S
C372 C382 1.476 1_565 S
H373 C367 0.929 . S
C374 O365 1.250 . S
C374 O366 1.258 . S
O375 Mn360 2.162 . S
O375 C363 1.281 . S
O376 Mn360 2.297 . S
O376 C363 1.236 . S
N377 Mn361 2.282 1_545 S
N377 C378 1.328 . S
N377 C382 1.318 . S
C378 N377 1.328 . S
C378 C379 1.457 . S
C378 H383 0.929 . S
C379 C378 1.457 . S
C379 C380 1.291 . S
C379 H392 0.931 . S
C380 C379 1.291 . S
C380 C381 1.373 . S
C380 H393 0.929 . S
C381 C380 1.373 . S
C381 C382 1.396 . S
C381 C388 1.403 . S
C382 C372 1.476 1_545 S
C382 N377 1.318 . S
C382 C381 1.396 . S
H383 C378 0.929 . S
O384 Mn360 2.385 . S
O384 C362 1.234 . S
O385 Mn360 2.209 . S
O385 Mn361 2.215 . S
O385 C362 1.283 . S
O386 Mn360 2.094 1_545 S
O386 C364 1.240 . S
O387 Mn361 2.117 1_545 S
O387 C364 1.264 . S
C388 C381 1.403 . S
C388 C389 1.399 1_545 S
C388 H394 0.929 . S
C389 C369 1.449 . S
C389 C388 1.399 1_565 S
C389 H395 0.930 . S
H390 C370 0.931 . S
H391 C371 0.930 . S
H392 C379 0.931 . S
H393 C380 0.929 . S
H394 C388 0.929 . S
H395 C389 0.930 . S
Mn396 O401 2.095 . S
Mn396 O411 2.162 . S
Mn396 O412 2.297 . S
Mn396 O420 2.385 . S
Mn396 O421 2.209 . S
Mn396 O422 2.094 1_455 S
Mn397 O402 2.121 . S
Mn397 N404 2.257 . S
Mn397 N413 2.282 1_455 S
Mn397 O421 2.215 . S
Mn397 O423 2.117 1_455 S
C398 O420 1.234 . S
C398 O421 1.283 . S
C399 O411 1.281 . S
C399 O412 1.236 . S
C400 O422 1.240 . S
C400 O423 1.264 . S
O401 Mn396 2.095 . S
O401 C410 1.250 . S
O402 Mn397 2.121 . S
O402 C410 1.258 . S
C403 N404 1.326 . S
C403 C407 1.460 . S
C403 H409 0.929 . S
N404 Mn397 2.257 . S
N404 C403 1.326 . S
N404 C408 1.362 . S
C405 C406 1.258 . S
C405 C408 1.431 . S
C405 C425 1.449 . S
C406 C405 1.258 . S
C406 C407 1.477 . S
C406 H426 0.931 . S
C407 C403 1.460 . S
C407 C406 1.477 . S
C407 H427 0.930 . S
C408 N404 1.362 . S
C408 C405 1.431 . S
C408 C418 1.476 1_455 S
H409 C403 0.929 . S
C410 O401 1.250 . S
C410 O402 1.258 . S
O411 Mn396 2.162 . S
O411 C399 1.281 . S
O412 Mn396 2.297 . S
O412 C399 1.236 . S
N413 Mn397 2.282 1_655 S
N413 C414 1.328 . S
N413 C418 1.318 . S
C414 N413 1.328 . S
C414 C415 1.457 . S
C414 H419 0.929 . S
C415 C414 1.457 . S
C415 C416 1.291 . S
C415 H428 0.931 . S
C416 C415 1.291 . S
C416 C417 1.373 . S
C416 H429 0.929 . S
C417 C416 1.373 . S
C417 C418 1.396 . S
C417 C424 1.403 . S
C418 C408 1.476 1_655 S
C418 N413 1.318 . S
C418 C417 1.396 . S
H419 C414 0.929 . S
O420 Mn396 2.385 . S
O420 C398 1.234 . S
O421 Mn396 2.209 . S
O421 Mn397 2.215 . S
O421 C398 1.283 . S
O422 Mn396 2.094 1_655 S
O422 C400 1.240 . S
O423 Mn397 2.117 1_655 S
O423 C400 1.264 . S
C424 C417 1.403 . S
C424 C425 1.399 1_655 S
C424 H430 0.929 . S
C425 C405 1.449 . S
C425 C424 1.399 1_455 S
C425 H431 0.930 . S
H426 C406 0.931 . S
H427 C407 0.930 . S
H428 C415 0.931 . S
H429 C416 0.929 . S
H430 C424 0.929 . S
H431 C425 0.930 . S
Mn432 O437 2.095 . S
Mn432 O447 2.162 . S
Mn432 O448 2.297 . S
Mn432 O456 2.385 . S
Mn432 O457 2.209 . S
Mn432 O458 2.094 1_565 S
Mn433 O438 2.121 . S
Mn433 N440 2.257 . S
Mn433 N449 2.282 1_565 S
Mn433 O457 2.215 . S
Mn433 O459 2.117 1_565 S
C434 O456 1.234 . S
C434 O457 1.283 . S
C435 O447 1.281 . S
C435 O448 1.236 . S
C436 O458 1.240 . S
C436 O459 1.264 . S
O437 Mn432 2.095 . S
O437 C446 1.250 . S
O438 Mn433 2.121 . S
O438 C446 1.258 . S
C439 N440 1.326 . S
C439 C443 1.460 . S
C439 H445 0.929 . S
N440 Mn433 2.257 . S
N440 C439 1.326 . S
N440 C444 1.362 . S
C441 C442 1.258 . S
C441 C444 1.431 . S
C441 C461 1.449 . S
C442 C441 1.258 . S
C442 C443 1.477 . S
C442 H462 0.931 . S
C443 C439 1.460 . S
C443 C442 1.477 . S
C443 H463 0.930 . S
C444 N440 1.362 . S
C444 C441 1.431 . S
C444 C454 1.476 1_565 S
H445 C439 0.929 . S
C446 O437 1.250 . S
C446 O438 1.258 . S
O447 Mn432 2.162 . S
O447 C435 1.281 . S
O448 Mn432 2.297 . S
O448 C435 1.236 . S
N449 Mn433 2.282 1_545 S
N449 C450 1.328 . S
N449 C454 1.318 . S
C450 N449 1.328 . S
C450 C451 1.457 . S
C450 H455 0.929 . S
C451 C450 1.457 . S
C451 C452 1.291 . S
C451 H464 0.931 . S
C452 C451 1.291 . S
C452 C453 1.373 . S
C452 H465 0.929 . S
C453 C452 1.373 . S
C453 C454 1.396 . S
C453 C460 1.403 . S
C454 C444 1.476 1_545 S
C454 N449 1.318 . S
C454 C453 1.396 . S
H455 C450 0.929 . S
O456 Mn432 2.385 . S
O456 C434 1.234 . S
O457 Mn432 2.209 . S
O457 Mn433 2.215 . S
O457 C434 1.283 . S
O458 Mn432 2.094 1_545 S
O458 C436 1.240 . S
O459 Mn433 2.117 1_545 S
O459 C436 1.264 . S
C460 C453 1.403 . S
C460 C461 1.399 1_545 S
C460 H466 0.929 . S
C461 C441 1.449 . S
C461 C460 1.399 1_565 S
C461 H467 0.930 . S
H462 C442 0.931 . S
H463 C443 0.930 . S
H464 C451 0.931 . S
H465 C452 0.929 . S
H466 C460 0.929 . S
H467 C461 0.930 . S
Mn468 O473 2.095 . S
Mn468 O483 2.162 . S
Mn468 O484 2.297 . S
Mn468 O492 2.385 . S
Mn468 O493 2.209 . S
Mn468 O494 2.094 1_455 S
Mn469 O474 2.121 . S
Mn469 N476 2.257 . S
Mn469 N485 2.282 1_455 S
Mn469 O493 2.215 . S
Mn469 O495 2.117 1_455 S
C470 O492 1.234 . S
C470 O493 1.283 . S
C471 O483 1.281 . S
C471 O484 1.236 . S
C472 O494 1.240 . S
C472 O495 1.264 . S
O473 Mn468 2.095 . S
O473 C482 1.250 . S
O474 Mn469 2.121 . S
O474 C482 1.258 . S
C475 N476 1.326 . S
C475 C479 1.460 . S
C475 H481 0.929 . S
N476 Mn469 2.257 . S
N476 C475 1.326 . S
N476 C480 1.362 . S
C477 C478 1.258 . S
C477 C480 1.431 . S
C477 C497 1.449 . S
C478 C477 1.258 . S
C478 C479 1.477 . S
C478 H498 0.931 . S
C479 C475 1.460 . S
C479 C478 1.477 . S
C479 H499 0.930 . S
C480 N476 1.362 . S
C480 C477 1.431 . S
C480 C490 1.476 1_455 S
H481 C475 0.929 . S
C482 O473 1.250 . S
C482 O474 1.258 . S
O483 Mn468 2.162 . S
O483 C471 1.281 . S
O484 Mn468 2.297 . S
O484 C471 1.236 . S
N485 Mn469 2.282 1_655 S
N485 C486 1.328 . S
N485 C490 1.318 . S
C486 N485 1.328 . S
C486 C487 1.457 . S
C486 H491 0.929 . S
C487 C486 1.457 . S
C487 C488 1.291 . S
C487 H500 0.931 . S
C488 C487 1.291 . S
C488 C489 1.373 . S
C488 H501 0.929 . S
C489 C488 1.373 . S
C489 C490 1.396 . S
C489 C496 1.403 . S
C490 C480 1.476 1_655 S
C490 N485 1.318 . S
C490 C489 1.396 . S
H491 C486 0.929 . S
O492 Mn468 2.385 . S
O492 C470 1.234 . S
O493 Mn468 2.209 . S
O493 Mn469 2.215 . S
O493 C470 1.283 . S
O494 Mn468 2.094 1_655 S
O494 C472 1.240 . S
O495 Mn469 2.117 1_655 S
O495 C472 1.264 . S
C496 C489 1.403 . S
C496 C497 1.399 1_655 S
C496 H502 0.929 . S
C497 C477 1.449 . S
C497 C496 1.399 1_455 S
C497 H503 0.930 . S
H498 C478 0.931 . S
H499 C479 0.930 . S
H500 C487 0.931 . S
H501 C488 0.929 . S
H502 C496 0.929 . S
H503 C497 0.930 . S
Mn504 O509 2.095 . S
Mn504 O519 2.162 . S
Mn504 O520 2.297 . S
Mn504 O528 2.385 . S
Mn504 O529 2.209 . S
Mn504 O530 2.094 1_545 S
Mn505 O510 2.121 . S
Mn505 N512 2.257 . S
Mn505 N521 2.282 1_545 S
Mn505 O529 2.215 . S
Mn505 O531 2.117 1_545 S
C506 O528 1.234 . S
C506 O529 1.283 . S
C507 O519 1.281 . S
C507 O520 1.236 . S
C508 O530 1.240 . S
C508 O531 1.264 . S
O509 Mn504 2.095 . S
O509 C518 1.250 . S
O510 Mn505 2.121 . S
O510 C518 1.258 . S
C511 N512 1.326 . S
C511 C515 1.460 . S
C511 H517 0.929 . S
N512 Mn505 2.257 . S
N512 C511 1.326 . S
N512 C516 1.362 . S
C513 C514 1.258 . S
C513 C516 1.431 . S
C513 C533 1.449 . S
C514 C513 1.258 . S
C514 C515 1.477 . S
C514 H534 0.931 . S
C515 C511 1.460 . S
C515 C514 1.477 . S
C515 H535 0.930 . S
C516 N512 1.362 . S
C516 C513 1.431 . S
C516 C526 1.476 1_545 S
H517 C511 0.929 . S
C518 O509 1.250 . S
C518 O510 1.258 . S
O519 Mn504 2.162 . S
O519 C507 1.281 . S
O520 Mn504 2.297 . S
O520 C507 1.236 . S
N521 Mn505 2.282 1_565 S
N521 C522 1.328 . S
N521 C526 1.318 . S
C522 N521 1.328 . S
C522 C523 1.457 . S
C522 H527 0.929 . S
C523 C522 1.457 . S
C523 C524 1.291 . S
C523 H536 0.931 . S
C524 C523 1.291 . S
C524 C525 1.373 . S
C524 H537 0.929 . S
C525 C524 1.373 . S
C525 C526 1.396 . S
C525 C532 1.403 . S
C526 C516 1.476 1_565 S
C526 N521 1.318 . S
C526 C525 1.396 . S
H527 C522 0.929 . S
O528 Mn504 2.385 . S
O528 C506 1.234 . S
O529 Mn504 2.209 . S
O529 Mn505 2.215 . S
O529 C506 1.283 . S
O530 Mn504 2.094 1_565 S
O530 C508 1.240 . S
O531 Mn505 2.117 1_565 S
O531 C508 1.264 . S
C532 C525 1.403 . S
C532 C533 1.399 1_565 S
C532 H538 0.929 . S
C533 C513 1.449 . S
C533 C532 1.399 1_545 S
C533 H539 0.930 . S
H534 C514 0.931 . S
H535 C515 0.930 . S
H536 C523 0.931 . S
H537 C524 0.929 . S
H538 C532 0.929 . S
H539 C533 0.930 . S
Mn540 O545 2.095 . S
Mn540 O555 2.162 . S
Mn540 O556 2.297 . S
Mn540 O564 2.385 . S
Mn540 O565 2.209 . S
Mn540 O566 2.094 1_655 S
Mn541 O546 2.121 . S
Mn541 N548 2.257 . S
Mn541 N557 2.282 1_655 S
Mn541 O565 2.215 . S
Mn541 O567 2.117 1_655 S
C542 O564 1.234 . S
C542 O565 1.283 . S
C543 O555 1.281 . S
C543 O556 1.236 . S
C544 O566 1.240 . S
C544 O567 1.264 . S
O545 Mn540 2.095 . S
O545 C554 1.250 . S
O546 Mn541 2.121 . S
O546 C554 1.258 . S
C547 N548 1.326 . S
C547 C551 1.460 . S
C547 H553 0.929 . S
N548 Mn541 2.257 . S
N548 C547 1.326 . S
N548 C552 1.362 . S
C549 C550 1.258 . S
C549 C552 1.431 . S
C549 C569 1.449 . S
C550 C549 1.258 . S
C550 C551 1.477 . S
C550 H570 0.931 . S
C551 C547 1.460 . S
C551 C550 1.477 . S
C551 H571 0.930 . S
C552 N548 1.362 . S
C552 C549 1.431 . S
C552 C562 1.476 1_655 S
H553 C547 0.929 . S
C554 O545 1.250 . S
C554 O546 1.258 . S
O555 Mn540 2.162 . S
O555 C543 1.281 . S
O556 Mn540 2.297 . S
O556 C543 1.236 . S
N557 Mn541 2.282 1_455 S
N557 C558 1.328 . S
N557 C562 1.318 . S
C558 N557 1.328 . S
C558 C559 1.457 . S
C558 H563 0.929 . S
C559 C558 1.457 . S
C559 C560 1.291 . S
C559 H572 0.931 . S
C560 C559 1.291 . S
C560 C561 1.373 . S
C560 H573 0.929 . S
C561 C560 1.373 . S
C561 C562 1.396 . S
C561 C568 1.403 . S
C562 C552 1.476 1_455 S
C562 N557 1.318 . S
C562 C561 1.396 . S
H563 C558 0.929 . S
O564 Mn540 2.385 . S
O564 C542 1.234 . S
O565 Mn540 2.209 . S
O565 Mn541 2.215 . S
O565 C542 1.283 . S
O566 Mn540 2.094 1_455 S
O566 C544 1.240 . S
O567 Mn541 2.117 1_455 S
O567 C544 1.264 . S
C568 C561 1.403 . S
C568 C569 1.399 1_455 S
C568 H574 0.929 . S
C569 C549 1.449 . S
C569 C568 1.399 1_655 S
C569 H575 0.930 . S
H570 C550 0.931 . S
H571 C551 0.930 . S
H572 C559 0.931 . S
H573 C560 0.929 . S
H574 C568 0.929 . S
H575 C569 0.930 . S
Mn576 O581 2.095 . S
Mn576 O591 2.162 . S
Mn576 O592 2.297 . S
Mn576 O600 2.385 . S
Mn576 O601 2.209 . S
Mn576 O602 2.094 1_554 S
Mn577 O582 2.121 . S
Mn577 N584 2.257 . S
Mn577 N593 2.282 1_554 S
Mn577 O601 2.215 . S
Mn577 O603 2.117 1_554 S
C578 O600 1.234 . S
C578 O601 1.283 . S
C579 O591 1.281 . S
C579 O592 1.236 . S
C580 O602 1.240 . S
C580 O603 1.264 . S
O581 Mn576 2.095 . S
O581 C590 1.250 . S
O582 Mn577 2.121 . S
O582 C590 1.258 . S
C583 N584 1.326 . S
C583 C587 1.460 . S
C583 H589 0.929 . S
N584 Mn577 2.257 . S
N584 C583 1.326 . S
N584 C588 1.362 . S
C585 C586 1.258 . S
C585 C588 1.431 . S
C585 C605 1.449 . S
C586 C585 1.258 . S
C586 C587 1.477 . S
C586 H606 0.931 . S
C587 C583 1.460 . S
C587 C586 1.477 . S
C587 H607 0.930 . S
C588 N584 1.362 . S
C588 C585 1.431 . S
C588 C598 1.476 1_554 S
H589 C583 0.929 . S
C590 O581 1.250 . S
C590 O582 1.258 . S
O591 Mn576 2.162 . S
O591 C579 1.281 . S
O592 Mn576 2.297 . S
O592 C579 1.236 . S
N593 Mn577 2.282 1_556 S
N593 C594 1.328 . S
N593 C598 1.318 . S
C594 N593 1.328 . S
C594 C595 1.457 . S
C594 H599 0.929 . S
C595 C594 1.457 . S
C595 C596 1.291 . S
C595 H608 0.931 . S
C596 C595 1.291 . S
C596 C597 1.373 . S
C596 H609 0.929 . S
C597 C596 1.373 . S
C597 C598 1.396 . S
C597 C604 1.403 . S
C598 C588 1.476 1_556 S
C598 N593 1.318 . S
C598 C597 1.396 . S
H599 C594 0.929 . S
O600 Mn576 2.385 . S
O600 C578 1.234 . S
O601 Mn576 2.209 . S
O601 Mn577 2.215 . S
O601 C578 1.283 . S
O602 Mn576 2.094 1_556 S
O602 C580 1.240 . S
O603 Mn577 2.117 1_556 S
O603 C580 1.264 . S
C604 C597 1.403 . S
C604 C605 1.399 1_556 S
C604 H610 0.929 . S
C605 C585 1.449 . S
C605 C604 1.399 1_554 S
C605 H611 0.930 . S
H606 C586 0.931 . S
H607 C587 0.930 . S
H608 C595 0.931 . S
H609 C596 0.929 . S
H610 C604 0.929 . S
H611 C605 0.930 . S
Mn612 O617 2.095 . S
Mn612 O627 2.162 . S
Mn612 O628 2.297 . S
Mn612 O636 2.385 . S
Mn612 O637 2.209 . S
Mn612 O638 2.094 1_556 S
Mn613 O618 2.121 . S
Mn613 N620 2.257 . S
Mn613 N629 2.282 1_556 S
Mn613 O637 2.215 . S
Mn613 O639 2.117 1_556 S
C614 O636 1.234 . S
C614 O637 1.283 . S
C615 O627 1.281 . S
C615 O628 1.236 . S
C616 O638 1.240 . S
C616 O639 1.264 . S
O617 Mn612 2.095 . S
O617 C626 1.250 . S
O618 Mn613 2.121 . S
O618 C626 1.258 . S
C619 N620 1.326 . S
C619 C623 1.460 . S
C619 H625 0.929 . S
N620 Mn613 2.257 . S
N620 C619 1.326 . S
N620 C624 1.362 . S
C621 C622 1.258 . S
C621 C624 1.431 . S
C621 C641 1.449 . S
C622 C621 1.258 . S
C622 C623 1.477 . S
C622 H642 0.931 . S
C623 C619 1.460 . S
C623 C622 1.477 . S
C623 H643 0.930 . S
C624 N620 1.362 . S
C624 C621 1.431 . S
C624 C634 1.476 1_556 S
H625 C619 0.929 . S
C626 O617 1.250 . S
C626 O618 1.258 . S
O627 Mn612 2.162 . S
O627 C615 1.281 . S
O628 Mn612 2.297 . S
O628 C615 1.236 . S
N629 Mn613 2.282 1_554 S
N629 C630 1.328 . S
N629 C634 1.318 . S
C630 N629 1.328 . S
C630 C631 1.457 . S
C630 H635 0.929 . S
C631 C630 1.457 . S
C631 C632 1.291 . S
C631 H644 0.931 . S
C632 C631 1.291 . S
C632 C633 1.373 . S
C632 H645 0.929 . S
C633 C632 1.373 . S
C633 C634 1.396 . S
C633 C640 1.403 . S
C634 C624 1.476 1_554 S
C634 N629 1.318 . S
C634 C633 1.396 . S
H635 C630 0.929 . S
O636 Mn612 2.385 . S
O636 C614 1.234 . S
O637 Mn612 2.209 . S
O637 Mn613 2.215 . S
O637 C614 1.283 . S
O638 Mn612 2.094 1_554 S
O638 C616 1.240 . S
O639 Mn613 2.117 1_554 S
O639 C616 1.264 . S
C640 C633 1.403 . S
C640 C641 1.399 1_554 S
C640 H646 0.929 . S
C641 C621 1.449 . S
C641 C640 1.399 1_556 S
C641 H647 0.930 . S
H642 C622 0.931 . S
H643 C623 0.930 . S
H644 C631 0.931 . S
H645 C632 0.929 . S
H646 C640 0.929 . S
H647 C641 0.930 . S
Mn648 O653 2.095 . S
Mn648 O663 2.162 . S
Mn648 O664 2.297 . S
Mn648 O672 2.385 . S
Mn648 O673 2.209 . S
Mn648 O674 2.094 1_556 S
Mn649 O654 2.121 . S
Mn649 N656 2.257 . S
Mn649 N665 2.282 1_556 S
Mn649 O673 2.215 . S
Mn649 O675 2.117 1_556 S
C650 O672 1.234 . S
C650 O673 1.283 . S
C651 O663 1.281 . S
C651 O664 1.236 . S
C652 O674 1.240 . S
C652 O675 1.264 . S
O653 Mn648 2.095 . S
O653 C662 1.250 . S
O654 Mn649 2.121 . S
O654 C662 1.258 . S
C655 N656 1.326 . S
C655 C659 1.460 . S
C655 H661 0.929 . S
N656 Mn649 2.257 . S
N656 C655 1.326 . S
N656 C660 1.362 . S
C657 C658 1.258 . S
C657 C660 1.431 . S
C657 C677 1.449 . S
C658 C657 1.258 . S
C658 C659 1.477 . S
C658 H678 0.931 . S
C659 C655 1.460 . S
C659 C658 1.477 . S
C659 H679 0.930 . S
C660 N656 1.362 . S
C660 C657 1.431 . S
C660 C670 1.476 1_556 S
H661 C655 0.929 . S
C662 O653 1.250 . S
C662 O654 1.258 . S
O663 Mn648 2.162 . S
O663 C651 1.281 . S
O664 Mn648 2.297 . S
O664 C651 1.236 . S
N665 Mn649 2.282 1_554 S
N665 C666 1.328 . S
N665 C670 1.318 . S
C666 N665 1.328 . S
C666 C667 1.457 . S
C666 H671 0.929 . S
C667 C666 1.457 . S
C667 C668 1.291 . S
C667 H680 0.931 . S
C668 C667 1.291 . S
C668 C669 1.373 . S
C668 H681 0.929 . S
C669 C668 1.373 . S
C669 C670 1.396 . S
C669 C676 1.403 . S
C670 C660 1.476 1_554 S
C670 N665 1.318 . S
C670 C669 1.396 . S
H671 C666 0.929 . S
O672 Mn648 2.385 . S
O672 C650 1.234 . S
O673 Mn648 2.209 . S
O673 Mn649 2.215 . S
O673 C650 1.283 . S
O674 Mn648 2.094 1_554 S
O674 C652 1.240 . S
O675 Mn649 2.117 1_554 S
O675 C652 1.264 . S
C676 C669 1.403 . S
C676 C677 1.399 1_554 S
C676 H682 0.929 . S
C677 C657 1.449 . S
C677 C676 1.399 1_556 S
C677 H683 0.930 . S
H678 C658 0.931 . S
H679 C659 0.930 . S
H680 C667 0.931 . S
H681 C668 0.929 . S
H682 C676 0.929 . S
H683 C677 0.930 . S
Mn684 O689 2.095 . S
Mn684 O699 2.162 . S
Mn684 O700 2.297 . S
Mn684 O708 2.385 . S
Mn684 O709 2.209 . S
Mn684 O710 2.094 1_556 S
Mn685 O690 2.121 . S
Mn685 N692 2.257 . S
Mn685 N701 2.282 1_556 S
Mn685 O709 2.215 . S
Mn685 O711 2.117 1_556 S
C686 O708 1.234 . S
C686 O709 1.283 . S
C687 O699 1.281 . S
C687 O700 1.236 . S
C688 O710 1.240 . S
C688 O711 1.264 . S
O689 Mn684 2.095 . S
O689 C698 1.250 . S
O690 Mn685 2.121 . S
O690 C698 1.258 . S
C691 N692 1.326 . S
C691 C695 1.460 . S
C691 H697 0.929 . S
N692 Mn685 2.257 . S
N692 C691 1.326 . S
N692 C696 1.362 . S
C693 C694 1.258 . S
C693 C696 1.431 . S
C693 C713 1.449 . S
C694 C693 1.258 . S
C694 C695 1.477 . S
C694 H714 0.931 . S
C695 C691 1.460 . S
C695 C694 1.477 . S
C695 H715 0.930 . S
C696 N692 1.362 . S
C696 C693 1.431 . S
C696 C706 1.476 1_556 S
H697 C691 0.929 . S
C698 O689 1.250 . S
C698 O690 1.258 . S
O699 Mn684 2.162 . S
O699 C687 1.281 . S
O700 Mn684 2.297 . S
O700 C687 1.236 . S
N701 Mn685 2.282 1_554 S
N701 C702 1.328 . S
N701 C706 1.318 . S
C702 N701 1.328 . S
C702 C703 1.457 . S
C702 H707 0.929 . S
C703 C702 1.457 . S
C703 C704 1.291 . S
C703 H716 0.931 . S
C704 C703 1.291 . S
C704 C705 1.373 . S
C704 H717 0.929 . S
C705 C704 1.373 . S
C705 C706 1.396 . S
C705 C712 1.403 . S
C706 C696 1.476 1_554 S
C706 N701 1.318 . S
C706 C705 1.396 . S
H707 C702 0.929 . S
O708 Mn684 2.385 . S
O708 C686 1.234 . S
O709 Mn684 2.209 . S
O709 Mn685 2.215 . S
O709 C686 1.283 . S
O710 Mn684 2.094 1_554 S
O710 C688 1.240 . S
O711 Mn685 2.117 1_554 S
O711 C688 1.264 . S
C712 C705 1.403 . S
C712 C713 1.399 1_554 S
C712 H718 0.929 . S
C713 C693 1.449 . S
C713 C712 1.399 1_556 S
C713 H719 0.930 . S
H714 C694 0.931 . S
H715 C695 0.930 . S
H716 C703 0.931 . S
H717 C704 0.929 . S
H718 C712 0.929 . S
H719 C713 0.930 . S
Mn720 O725 2.095 . S
Mn720 O735 2.162 . S
Mn720 O736 2.297 . S
Mn720 O744 2.385 . S
Mn720 O745 2.209 . S
Mn720 O746 2.094 1_556 S
Mn721 O726 2.121 . S
Mn721 N728 2.257 . S
Mn721 N737 2.282 1_556 S
Mn721 O745 2.215 . S
Mn721 O747 2.117 1_556 S
C722 O744 1.234 . S
C722 O745 1.283 . S
C723 O735 1.281 . S
C723 O736 1.236 . S
C724 O746 1.240 . S
C724 O747 1.264 . S
O725 Mn720 2.095 . S
O725 C734 1.250 . S
O726 Mn721 2.121 . S
O726 C734 1.258 . S
C727 N728 1.326 . S
C727 C731 1.460 . S
C727 H733 0.929 . S
N728 Mn721 2.257 . S
N728 C727 1.326 . S
N728 C732 1.362 . S
C729 C730 1.258 . S
C729 C732 1.431 . S
C729 C749 1.449 . S
C730 C729 1.258 . S
C730 C731 1.477 . S
C730 H750 0.931 . S
C731 C727 1.460 . S
C731 C730 1.477 . S
C731 H751 0.930 . S
C732 N728 1.362 . S
C732 C729 1.431 . S
C732 C742 1.476 1_556 S
H733 C727 0.929 . S
C734 O725 1.250 . S
C734 O726 1.258 . S
O735 Mn720 2.162 . S
O735 C723 1.281 . S
O736 Mn720 2.297 . S
O736 C723 1.236 . S
N737 Mn721 2.282 1_554 S
N737 C738 1.328 . S
N737 C742 1.318 . S
C738 N737 1.328 . S
C738 C739 1.457 . S
C738 H743 0.929 . S
C739 C738 1.457 . S
C739 C740 1.291 . S
C739 H752 0.931 . S
C740 C739 1.291 . S
C740 C741 1.373 . S
C740 H753 0.929 . S
C741 C740 1.373 . S
C741 C742 1.396 . S
C741 C748 1.403 . S
C742 C732 1.476 1_554 S
C742 N737 1.318 . S
C742 C741 1.396 . S
H743 C738 0.929 . S
O744 Mn720 2.385 . S
O744 C722 1.234 . S
O745 Mn720 2.209 . S
O745 Mn721 2.215 . S
O745 C722 1.283 . S
O746 Mn720 2.094 1_554 S
O746 C724 1.240 . S
O747 Mn721 2.117 1_554 S
O747 C724 1.264 . S
C748 C741 1.403 . S
C748 C749 1.399 1_554 S
C748 H754 0.929 . S
C749 C729 1.449 . S
C749 C748 1.399 1_556 S
C749 H755 0.930 . S
H750 C730 0.931 . S
H751 C731 0.930 . S
H752 C739 0.931 . S
H753 C740 0.929 . S
H754 C748 0.929 . S
H755 C749 0.930 . S
Mn756 O761 2.095 . S
Mn756 O771 2.162 . S
Mn756 O772 2.297 . S
Mn756 O780 2.385 . S
Mn756 O781 2.209 . S
Mn756 O782 2.094 1_554 S
Mn757 O762 2.121 . S
Mn757 N764 2.257 . S
Mn757 N773 2.282 1_554 S
Mn757 O781 2.215 . S
Mn757 O783 2.117 1_554 S
C758 O780 1.234 . S
C758 O781 1.283 . S
C759 O771 1.281 . S
C759 O772 1.236 . S
C760 O782 1.240 . S
C760 O783 1.264 . S
O761 Mn756 2.095 . S
O761 C770 1.250 . S
O762 Mn757 2.121 . S
O762 C770 1.258 . S
C763 N764 1.326 . S
C763 C767 1.460 . S
C763 H769 0.929 . S
N764 Mn757 2.257 . S
N764 C763 1.326 . S
N764 C768 1.362 . S
C765 C766 1.258 . S
C765 C768 1.431 . S
C765 C785 1.449 . S
C766 C765 1.258 . S
C766 C767 1.477 . S
C766 H786 0.931 . S
C767 C763 1.460 . S
C767 C766 1.477 . S
C767 H787 0.930 . S
C768 N764 1.362 . S
C768 C765 1.431 . S
C768 C778 1.476 1_554 S
H769 C763 0.929 . S
C770 O761 1.250 . S
C770 O762 1.258 . S
O771 Mn756 2.162 . S
O771 C759 1.281 . S
O772 Mn756 2.297 . S
O772 C759 1.236 . S
N773 Mn757 2.282 1_556 S
N773 C774 1.328 . S
N773 C778 1.318 . S
C774 N773 1.328 . S
C774 C775 1.457 . S
C774 H779 0.929 . S
C775 C774 1.457 . S
C775 C776 1.291 . S
C775 H788 0.931 . S
C776 C775 1.291 . S
C776 C777 1.373 . S
C776 H789 0.929 . S
C777 C776 1.373 . S
C777 C778 1.396 . S
C777 C784 1.403 . S
C778 C768 1.476 1_556 S
C778 N773 1.318 . S
C778 C777 1.396 . S
H779 C774 0.929 . S
O780 Mn756 2.385 . S
O780 C758 1.234 . S
O781 Mn756 2.209 . S
O781 Mn757 2.215 . S
O781 C758 1.283 . S
O782 Mn756 2.094 1_556 S
O782 C760 1.240 . S
O783 Mn757 2.117 1_556 S
O783 C760 1.264 . S
C784 C777 1.403 . S
C784 C785 1.399 1_556 S
C784 H790 0.929 . S
C785 C765 1.449 . S
C785 C784 1.399 1_554 S
C785 H791 0.930 . S
H786 C766 0.931 . S
H787 C767 0.930 . S
H788 C775 0.931 . S
H789 C776 0.929 . S
H790 C784 0.929 . S
H791 C785 0.930 . S
Mn792 O797 2.095 . S
Mn792 O807 2.162 . S
Mn792 O808 2.297 . S
Mn792 O816 2.385 . S
Mn792 O817 2.209 . S
Mn792 O818 2.094 1_554 S
Mn793 O798 2.121 . S
Mn793 N800 2.257 . S
Mn793 N809 2.282 1_554 S
Mn793 O817 2.215 . S
Mn793 O819 2.117 1_554 S
C794 O816 1.234 . S
C794 O817 1.283 . S
C795 O807 1.281 . S
C795 O808 1.236 . S
C796 O818 1.240 . S
C796 O819 1.264 . S
O797 Mn792 2.095 . S
O797 C806 1.250 . S
O798 Mn793 2.121 . S
O798 C806 1.258 . S
C799 N800 1.326 . S
C799 C803 1.460 . S
C799 H805 0.929 . S
N800 Mn793 2.257 . S
N800 C799 1.326 . S
N800 C804 1.362 . S
C801 C802 1.258 . S
C801 C804 1.431 . S
C801 C821 1.449 . S
C802 C801 1.258 . S
C802 C803 1.477 . S
C802 H822 0.931 . S
C803 C799 1.460 . S
C803 C802 1.477 . S
C803 H823 0.930 . S
C804 N800 1.362 . S
C804 C801 1.431 . S
C804 C814 1.476 1_554 S
H805 C799 0.929 . S
C806 O797 1.250 . S
C806 O798 1.258 . S
O807 Mn792 2.162 . S
O807 C795 1.281 . S
O808 Mn792 2.297 . S
O808 C795 1.236 . S
N809 Mn793 2.282 1_556 S
N809 C810 1.328 . S
N809 C814 1.318 . S
C810 N809 1.328 . S
C810 C811 1.457 . S
C810 H815 0.929 . S
C811 C810 1.457 . S
C811 C812 1.291 . S
C811 H824 0.931 . S
C812 C811 1.291 . S
C812 C813 1.373 . S
C812 H825 0.929 . S
C813 C812 1.373 . S
C813 C814 1.396 . S
C813 C820 1.403 . S
C814 C804 1.476 1_556 S
C814 N809 1.318 . S
C814 C813 1.396 . S
H815 C810 0.929 . S
O816 Mn792 2.385 . S
O816 C794 1.234 . S
O817 Mn792 2.209 . S
O817 Mn793 2.215 . S
O817 C794 1.283 . S
O818 Mn792 2.094 1_556 S
O818 C796 1.240 . S
O819 Mn793 2.117 1_556 S
O819 C796 1.264 . S
C820 C813 1.403 . S
C820 C821 1.399 1_556 S
C820 H826 0.929 . S
C821 C801 1.449 . S
C821 C820 1.399 1_554 S
C821 H827 0.930 . S
H822 C802 0.931 . S
H823 C803 0.930 . S
H824 C811 0.931 . S
H825 C812 0.929 . S
H826 C820 0.929 . S
H827 C821 0.930 . S
Mn828 O833 2.095 . S
Mn828 O843 2.162 . S
Mn828 O844 2.297 . S
Mn828 O852 2.385 . S
Mn828 O853 2.209 . S
Mn828 O854 2.094 1_554 S
Mn829 O834 2.121 . S
Mn829 N836 2.257 . S
Mn829 N845 2.282 1_554 S
Mn829 O853 2.215 . S
Mn829 O855 2.117 1_554 S
C830 O852 1.234 . S
C830 O853 1.283 . S
C831 O843 1.281 . S
C831 O844 1.236 . S
C832 O854 1.240 . S
C832 O855 1.264 . S
O833 Mn828 2.095 . S
O833 C842 1.250 . S
O834 Mn829 2.121 . S
O834 C842 1.258 . S
C835 N836 1.326 . S
C835 C839 1.460 . S
C835 H841 0.929 . S
N836 Mn829 2.257 . S
N836 C835 1.326 . S
N836 C840 1.362 . S
C837 C838 1.258 . S
C837 C840 1.431 . S
C837 C857 1.449 . S
C838 C837 1.258 . S
C838 C839 1.477 . S
C838 H858 0.931 . S
C839 C835 1.460 . S
C839 C838 1.477 . S
C839 H859 0.930 . S
C840 N836 1.362 . S
C840 C837 1.431 . S
C840 C850 1.476 1_554 S
H841 C835 0.929 . S
C842 O833 1.250 . S
C842 O834 1.258 . S
O843 Mn828 2.162 . S
O843 C831 1.281 . S
O844 Mn828 2.297 . S
O844 C831 1.236 . S
N845 Mn829 2.282 1_556 S
N845 C846 1.328 . S
N845 C850 1.318 . S
C846 N845 1.328 . S
C846 C847 1.457 . S
C846 H851 0.929 . S
C847 C846 1.457 . S
C847 C848 1.291 . S
C847 H860 0.931 . S
C848 C847 1.291 . S
C848 C849 1.373 . S
C848 H861 0.929 . S
C849 C848 1.373 . S
C849 C850 1.396 . S
C849 C856 1.403 . S
C850 C840 1.476 1_556 S
C850 N845 1.318 . S
C850 C849 1.396 . S
H851 C846 0.929 . S
O852 Mn828 2.385 . S
O852 C830 1.234 . S
O853 Mn828 2.209 . S
O853 Mn829 2.215 . S
O853 C830 1.283 . S
O854 Mn828 2.094 1_556 S
O854 C832 1.240 . S
O855 Mn829 2.117 1_556 S
O855 C832 1.264 . S
C856 C849 1.403 . S
C856 C857 1.399 1_556 S
C856 H862 0.929 . S
C857 C837 1.449 . S
C857 C856 1.399 1_554 S
C857 H863 0.930 . S
H858 C838 0.931 . S
H859 C839 0.930 . S
H860 C847 0.931 . S
H861 C848 0.929 . S
H862 C856 0.929 . S
H863 C857 0.930 . S
Mn864 O869 2.095 . S
Mn864 O879 2.162 . S
Mn864 O880 2.297 . S
Mn864 O888 2.385 . S
Mn864 O889 2.209 . S
Mn864 O890 2.094 . S
Mn865 O870 2.121 . S
Mn865 N872 2.257 . S
Mn865 N881 2.282 . S
Mn865 O889 2.215 . S
Mn865 O891 2.117 . S
C866 O888 1.234 . S
C866 O889 1.283 . S
C867 O879 1.281 . S
C867 O880 1.236 . S
C868 O890 1.240 . S
C868 O891 1.264 . S
O869 Mn864 2.095 . S
O869 C878 1.250 . S
O870 Mn865 2.121 . S
O870 C878 1.258 . S
C871 N872 1.326 . S
C871 C875 1.460 . S
C871 H877 0.929 . S
N872 Mn865 2.257 . S
N872 C871 1.326 . S
N872 C876 1.362 . S
C873 C874 1.258 . S
C873 C876 1.431 . S
C873 C893 1.449 . S
C874 C873 1.258 . S
C874 C875 1.477 . S
C874 H894 0.931 . S
C875 C871 1.460 . S
C875 C874 1.477 . S
C875 H895 0.930 . S
C876 N872 1.362 . S
C876 C873 1.431 . S
C876 C886 1.476 . S
H877 C871 0.929 . S
C878 O869 1.250 . S
C878 O870 1.258 . S
O879 Mn864 2.162 . S
O879 C867 1.281 . S
O880 Mn864 2.297 . S
O880 C867 1.236 . S
N881 Mn865 2.282 . S
N881 C882 1.328 . S
N881 C886 1.318 . S
C882 N881 1.328 . S
C882 C883 1.457 . S
C882 H887 0.929 . S
C883 C882 1.457 . S
C883 C884 1.291 . S
C883 H896 0.931 . S
C884 C883 1.291 . S
C884 C885 1.373 . S
C884 H897 0.929 . S
C885 C884 1.373 . S
C885 C886 1.396 . S
C885 C892 1.403 . S
C886 C876 1.476 . S
C886 N881 1.318 . S
C886 C885 1.396 . S
H887 C882 0.929 . S
O888 Mn864 2.385 . S
O888 C866 1.234 . S
O889 Mn864 2.209 . S
O889 Mn865 2.215 . S
O889 C866 1.283 . S
O890 Mn864 2.094 . S
O890 C868 1.240 . S
O891 Mn865 2.117 . S
O891 C868 1.264 . S
C892 C885 1.403 . S
C892 C893 1.399 . S
C892 H898 0.929 . S
C893 C873 1.449 . S
C893 C892 1.399 . S
C893 H899 0.930 . S
H894 C874 0.931 . S
H895 C875 0.930 . S
H896 C883 0.931 . S
H897 C884 0.929 . S
H898 C892 0.929 . S
H899 C893 0.930 . S
Mn900 O905 2.095 . S
Mn900 O915 2.162 . S
Mn900 O916 2.297 . S
Mn900 O924 2.385 . S
Mn900 O925 2.209 . S
Mn900 O926 2.094 . S
Mn901 O906 2.121 . S
Mn901 N908 2.257 . S
Mn901 N917 2.282 . S
Mn901 O925 2.215 . S
Mn901 O927 2.117 . S
C902 O924 1.234 . S
C902 O925 1.283 . S
C903 O915 1.281 . S
C903 O916 1.236 . S
C904 O926 1.240 . S
C904 O927 1.264 . S
O905 Mn900 2.095 . S
O905 C914 1.250 . S
O906 Mn901 2.121 . S
O906 C914 1.258 . S
C907 N908 1.326 . S
C907 C911 1.460 . S
C907 H913 0.929 . S
N908 Mn901 2.257 . S
N908 C907 1.326 . S
N908 C912 1.362 . S
C909 C910 1.258 . S
C909 C912 1.431 . S
C909 C929 1.449 . S
C910 C909 1.258 . S
C910 C911 1.477 . S
C910 H930 0.931 . S
C911 C907 1.460 . S
C911 C910 1.477 . S
C911 H931 0.930 . S
C912 N908 1.362 . S
C912 C909 1.431 . S
C912 C922 1.476 . S
H913 C907 0.929 . S
C914 O905 1.250 . S
C914 O906 1.258 . S
O915 Mn900 2.162 . S
O915 C903 1.281 . S
O916 Mn900 2.297 . S
O916 C903 1.236 . S
N917 Mn901 2.282 . S
N917 C918 1.328 . S
N917 C922 1.318 . S
C918 N917 1.328 . S
C918 C919 1.457 . S
C918 H923 0.929 . S
C919 C918 1.457 . S
C919 C920 1.291 . S
C919 H932 0.931 . S
C920 C919 1.291 . S
C920 C921 1.373 . S
C920 H933 0.929 . S
C921 C920 1.373 . S
C921 C922 1.396 . S
C921 C928 1.403 . S
C922 C912 1.476 . S
C922 N917 1.318 . S
C922 C921 1.396 . S
H923 C918 0.929 . S
O924 Mn900 2.385 . S
O924 C902 1.234 . S
O925 Mn900 2.209 . S
O925 Mn901 2.215 . S
O925 C902 1.283 . S
O926 Mn900 2.094 . S
O926 C904 1.240 . S
O927 Mn901 2.117 . S
O927 C904 1.264 . S
C928 C921 1.403 . S
C928 C929 1.399 . S
C928 H934 0.929 . S
C929 C909 1.449 . S
C929 C928 1.399 . S
C929 H935 0.930 . S
H930 C910 0.931 . S
H931 C911 0.930 . S
H932 C919 0.931 . S
H933 C920 0.929 . S
H934 C928 0.929 . S
H935 C929 0.930 . S
Mn936 O941 2.095 . S
Mn936 O951 2.162 . S
Mn936 O952 2.297 . S
Mn936 O960 2.385 . S
Mn936 O961 2.209 . S
Mn936 O962 2.094 . S
Mn937 O942 2.121 . S
Mn937 N944 2.257 . S
Mn937 N953 2.282 . S
Mn937 O961 2.215 . S
Mn937 O963 2.117 . S
C938 O960 1.234 . S
C938 O961 1.283 . S
C939 O951 1.281 . S
C939 O952 1.236 . S
C940 O962 1.240 . S
C940 O963 1.264 . S
O941 Mn936 2.095 . S
O941 C950 1.250 . S
O942 Mn937 2.121 . S
O942 C950 1.258 . S
C943 N944 1.326 . S
C943 C947 1.460 . S
C943 H949 0.929 . S
N944 Mn937 2.257 . S
N944 C943 1.326 . S
N944 C948 1.362 . S
C945 C946 1.258 . S
C945 C948 1.431 . S
C945 C965 1.449 . S
C946 C945 1.258 . S
C946 C947 1.477 . S
C946 H966 0.931 . S
C947 C943 1.460 . S
C947 C946 1.477 . S
C947 H967 0.930 . S
C948 N944 1.362 . S
C948 C945 1.431 . S
C948 C958 1.476 . S
H949 C943 0.929 . S
C950 O941 1.250 . S
C950 O942 1.258 . S
O951 Mn936 2.162 . S
O951 C939 1.281 . S
O952 Mn936 2.297 . S
O952 C939 1.236 . S
N953 Mn937 2.282 . S
N953 C954 1.328 . S
N953 C958 1.318 . S
C954 N953 1.328 . S
C954 C955 1.457 . S
C954 H959 0.929 . S
C955 C954 1.457 . S
C955 C956 1.291 . S
C955 H968 0.931 . S
C956 C955 1.291 . S
C956 C957 1.373 . S
C956 H969 0.929 . S
C957 C956 1.373 . S
C957 C958 1.396 . S
C957 C964 1.403 . S
C958 C948 1.476 . S
C958 N953 1.318 . S
C958 C957 1.396 . S
H959 C954 0.929 . S
O960 Mn936 2.385 . S
O960 C938 1.234 . S
O961 Mn936 2.209 . S
O961 Mn937 2.215 . S
O961 C938 1.283 . S
O962 Mn936 2.094 . S
O962 C940 1.240 . S
O963 Mn937 2.117 . S
O963 C940 1.264 . S
C964 C957 1.403 . S
C964 C965 1.399 . S
C964 H970 0.929 . S
C965 C945 1.449 . S
C965 C964 1.399 . S
C965 H971 0.930 . S
H966 C946 0.931 . S
H967 C947 0.930 . S
H968 C955 0.931 . S
H969 C956 0.929 . S
H970 C964 0.929 . S
H971 C965 0.930 . S
Mn972 O977 2.095 . S
Mn972 O987 2.162 . S
Mn972 O988 2.297 . S
Mn972 O996 2.385 . S
Mn972 O997 2.209 . S
Mn972 O998 2.094 . S
Mn973 O978 2.121 . S
Mn973 N980 2.257 . S
Mn973 N989 2.282 . S
Mn973 O997 2.215 . S
Mn973 O999 2.117 . S
C974 O996 1.234 . S
C974 O997 1.283 . S
C975 O987 1.281 . S
C975 O988 1.236 . S
C976 O998 1.240 . S
C976 O999 1.264 . S
O977 Mn972 2.095 . S
O977 C986 1.250 . S
O978 Mn973 2.121 . S
O978 C986 1.258 . S
C979 N980 1.326 . S
C979 C983 1.460 . S
C979 H985 0.929 . S
N980 Mn973 2.257 . S
N980 C979 1.326 . S
N980 C984 1.362 . S
C981 C982 1.258 . S
C981 C984 1.431 . S
C981 C1001 1.449 . S
C982 C981 1.258 . S
C982 C983 1.477 . S
C982 H1002 0.931 . S
C983 C979 1.460 . S
C983 C982 1.477 . S
C983 H1003 0.930 . S
C984 N980 1.362 . S
C984 C981 1.431 . S
C984 C994 1.476 . S
H985 C979 0.929 . S
C986 O977 1.250 . S
C986 O978 1.258 . S
O987 Mn972 2.162 . S
O987 C975 1.281 . S
O988 Mn972 2.297 . S
O988 C975 1.236 . S
N989 Mn973 2.282 . S
N989 C990 1.328 . S
N989 C994 1.318 . S
C990 N989 1.328 . S
C990 C991 1.457 . S
C990 H995 0.929 . S
C991 C990 1.457 . S
C991 C992 1.291 . S
C991 H1004 0.931 . S
C992 C991 1.291 . S
C992 C993 1.373 . S
C992 H1005 0.929 . S
C993 C992 1.373 . S
C993 C994 1.396 . S
C993 C1000 1.403 . S
C994 C984 1.476 . S
C994 N989 1.318 . S
C994 C993 1.396 . S
H995 C990 0.929 . S
O996 Mn972 2.385 . S
O996 C974 1.234 . S
O997 Mn972 2.209 . S
O997 Mn973 2.215 . S
O997 C974 1.283 . S
O998 Mn972 2.094 . S
O998 C976 1.240 . S
O999 Mn973 2.117 . S
O999 C976 1.264 . S
C1000 C993 1.403 . S
C1000 C1001 1.399 . S
C1000 H1006 0.929 . S
C1001 C981 1.449 . S
C1001 C1000 1.399 . S
C1001 H1007 0.930 . S
H1002 C982 0.931 . S
H1003 C983 0.930 . S
H1004 C991 0.931 . S
H1005 C992 0.929 . S
H1006 C1000 0.929 . S
H1007 C1001 0.930 . S
Mn1008 O1013 2.095 . S
Mn1008 O1023 2.162 . S
Mn1008 O1024 2.297 . S
Mn1008 O1032 2.385 . S
Mn1008 O1033 2.209 . S
Mn1008 O1034 2.094 . S
Mn1009 O1014 2.121 . S
Mn1009 N1016 2.257 . S
Mn1009 N1025 2.282 . S
Mn1009 O1033 2.215 . S
Mn1009 O1035 2.117 . S
C1010 O1032 1.234 . S
C1010 O1033 1.283 . S
C1011 O1023 1.281 . S
C1011 O1024 1.236 . S
C1012 O1034 1.240 . S
C1012 O1035 1.264 . S
O1013 Mn1008 2.095 . S
O1013 C1022 1.250 . S
O1014 Mn1009 2.121 . S
O1014 C1022 1.258 . S
C1015 N1016 1.326 . S
C1015 C1019 1.460 . S
C1015 H1021 0.929 . S
N1016 Mn1009 2.257 . S
N1016 C1015 1.326 . S
N1016 C1020 1.362 . S
C1017 C1018 1.258 . S
C1017 C1020 1.431 . S
C1017 C1037 1.449 . S
C1018 C1017 1.258 . S
C1018 C1019 1.477 . S
C1018 H1038 0.931 . S
C1019 C1015 1.460 . S
C1019 C1018 1.477 . S
C1019 H1039 0.930 . S
C1020 N1016 1.362 . S
C1020 C1017 1.431 . S
C1020 C1030 1.476 . S
H1021 C1015 0.929 . S
C1022 O1013 1.250 . S
C1022 O1014 1.258 . S
O1023 Mn1008 2.162 . S
O1023 C1011 1.281 . S
O1024 Mn1008 2.297 . S
O1024 C1011 1.236 . S
N1025 Mn1009 2.282 . S
N1025 C1026 1.328 . S
N1025 C1030 1.318 . S
C1026 N1025 1.328 . S
C1026 C1027 1.457 . S
C1026 H1031 0.929 . S
C1027 C1026 1.457 . S
C1027 C1028 1.291 . S
C1027 H1040 0.931 . S
C1028 C1027 1.291 . S
C1028 C1029 1.373 . S
C1028 H1041 0.929 . S
C1029 C1028 1.373 . S
C1029 C1030 1.396 . S
C1029 C1036 1.403 . S
C1030 C1020 1.476 . S
C1030 N1025 1.318 . S
C1030 C1029 1.396 . S
H1031 C1026 0.929 . S
O1032 Mn1008 2.385 . S
O1032 C1010 1.234 . S
O1033 Mn1008 2.209 . S
O1033 Mn1009 2.215 . S
O1033 C1010 1.283 . S
O1034 Mn1008 2.094 . S
O1034 C1012 1.240 . S
O1035 Mn1009 2.117 . S
O1035 C1012 1.264 . S
C1036 C1029 1.403 . S
C1036 C1037 1.399 . S
C1036 H1042 0.929 . S
C1037 C1017 1.449 . S
C1037 C1036 1.399 . S
C1037 H1043 0.930 . S
H1038 C1018 0.931 . S
H1039 C1019 0.930 . S
H1040 C1027 0.931 . S
H1041 C1028 0.929 . S
H1042 C1036 0.929 . S
H1043 C1037 0.930 . S
Mn1044 O1049 2.095 . S
Mn1044 O1059 2.162 . S
Mn1044 O1060 2.297 . S
Mn1044 O1068 2.385 . S
Mn1044 O1069 2.209 . S
Mn1044 O1070 2.094 . S
Mn1045 O1050 2.121 . S
Mn1045 N1052 2.257 . S
Mn1045 N1061 2.282 . S
Mn1045 O1069 2.215 . S
Mn1045 O1071 2.117 . S
C1046 O1068 1.234 . S
C1046 O1069 1.283 . S
C1047 O1059 1.281 . S
C1047 O1060 1.236 . S
C1048 O1070 1.240 . S
C1048 O1071 1.264 . S
O1049 Mn1044 2.095 . S
O1049 C1058 1.250 . S
O1050 Mn1045 2.121 . S
O1050 C1058 1.258 . S
C1051 N1052 1.326 . S
C1051 C1055 1.460 . S
C1051 H1057 0.929 . S
N1052 Mn1045 2.257 . S
N1052 C1051 1.326 . S
N1052 C1056 1.362 . S
C1053 C1054 1.258 . S
C1053 C1056 1.431 . S
C1053 C1073 1.449 . S
C1054 C1053 1.258 . S
C1054 C1055 1.477 . S
C1054 H1074 0.931 . S
C1055 C1051 1.460 . S
C1055 C1054 1.477 . S
C1055 H1075 0.930 . S
C1056 N1052 1.362 . S
C1056 C1053 1.431 . S
C1056 C1066 1.476 . S
H1057 C1051 0.929 . S
C1058 O1049 1.250 . S
C1058 O1050 1.258 . S
O1059 Mn1044 2.162 . S
O1059 C1047 1.281 . S
O1060 Mn1044 2.297 . S
O1060 C1047 1.236 . S
N1061 Mn1045 2.282 . S
N1061 C1062 1.328 . S
N1061 C1066 1.318 . S
C1062 N1061 1.328 . S
C1062 C1063 1.457 . S
C1062 H1067 0.929 . S
C1063 C1062 1.457 . S
C1063 C1064 1.291 . S
C1063 H1076 0.931 . S
C1064 C1063 1.291 . S
C1064 C1065 1.373 . S
C1064 H1077 0.929 . S
C1065 C1064 1.373 . S
C1065 C1066 1.396 . S
C1065 C1072 1.403 . S
C1066 C1056 1.476 . S
C1066 N1061 1.318 . S
C1066 C1065 1.396 . S
H1067 C1062 0.929 . S
O1068 Mn1044 2.385 . S
O1068 C1046 1.234 . S
O1069 Mn1044 2.209 . S
O1069 Mn1045 2.215 . S
O1069 C1046 1.283 . S
O1070 Mn1044 2.094 . S
O1070 C1048 1.240 . S
O1071 Mn1045 2.117 . S
O1071 C1048 1.264 . S
C1072 C1065 1.403 . S
C1072 C1073 1.399 . S
C1072 H1078 0.929 . S
C1073 C1053 1.449 . S
C1073 C1072 1.399 . S
C1073 H1079 0.930 . S
H1074 C1054 0.931 . S
H1075 C1055 0.930 . S
H1076 C1063 0.931 . S
H1077 C1064 0.929 . S
H1078 C1072 0.929 . S
H1079 C1073 0.930 . S
Mn1080 O1085 2.095 . S
Mn1080 O1095 2.162 . S
Mn1080 O1096 2.297 . S
Mn1080 O1104 2.385 . S
Mn1080 O1105 2.209 . S
Mn1080 O1106 2.094 . S
Mn1081 O1086 2.121 . S
Mn1081 N1088 2.257 . S
Mn1081 N1097 2.282 . S
Mn1081 O1105 2.215 . S
Mn1081 O1107 2.117 . S
C1082 O1104 1.234 . S
C1082 O1105 1.283 . S
C1083 O1095 1.281 . S
C1083 O1096 1.236 . S
C1084 O1106 1.240 . S
C1084 O1107 1.264 . S
O1085 Mn1080 2.095 . S
O1085 C1094 1.250 . S
O1086 Mn1081 2.121 . S
O1086 C1094 1.258 . S
C1087 N1088 1.326 . S
C1087 C1091 1.460 . S
C1087 H1093 0.929 . S
N1088 Mn1081 2.257 . S
N1088 C1087 1.326 . S
N1088 C1092 1.362 . S
C1089 C1090 1.258 . S
C1089 C1092 1.431 . S
C1089 C1109 1.449 . S
C1090 C1089 1.258 . S
C1090 C1091 1.477 . S
C1090 H1110 0.931 . S
C1091 C1087 1.460 . S
C1091 C1090 1.477 . S
C1091 H1111 0.930 . S
C1092 N1088 1.362 . S
C1092 C1089 1.431 . S
C1092 C1102 1.476 . S
H1093 C1087 0.929 . S
C1094 O1085 1.250 . S
C1094 O1086 1.258 . S
O1095 Mn1080 2.162 . S
O1095 C1083 1.281 . S
O1096 Mn1080 2.297 . S
O1096 C1083 1.236 . S
N1097 Mn1081 2.282 . S
N1097 C1098 1.328 . S
N1097 C1102 1.318 . S
C1098 N1097 1.328 . S
C1098 C1099 1.457 . S
C1098 H1103 0.929 . S
C1099 C1098 1.457 . S
C1099 C1100 1.291 . S
C1099 H1112 0.931 . S
C1100 C1099 1.291 . S
C1100 C1101 1.373 . S
C1100 H1113 0.929 . S
C1101 C1100 1.373 . S
C1101 C1102 1.396 . S
C1101 C1108 1.403 . S
C1102 C1092 1.476 . S
C1102 N1097 1.318 . S
C1102 C1101 1.396 . S
H1103 C1098 0.929 . S
O1104 Mn1080 2.385 . S
O1104 C1082 1.234 . S
O1105 Mn1080 2.209 . S
O1105 Mn1081 2.215 . S
O1105 C1082 1.283 . S
O1106 Mn1080 2.094 . S
O1106 C1084 1.240 . S
O1107 Mn1081 2.117 . S
O1107 C1084 1.264 . S
C1108 C1101 1.403 . S
C1108 C1109 1.399 . S
C1108 H1114 0.929 . S
C1109 C1089 1.449 . S
C1109 C1108 1.399 . S
C1109 H1115 0.930 . S
H1110 C1090 0.931 . S
H1111 C1091 0.930 . S
H1112 C1099 0.931 . S
H1113 C1100 0.929 . S
H1114 C1108 0.929 . S
H1115 C1109 0.930 . S
Mn1116 O1121 2.095 . S
Mn1116 O1131 2.162 . S
Mn1116 O1132 2.297 . S
Mn1116 O1140 2.385 . S
Mn1116 O1141 2.209 . S
Mn1116 O1142 2.094 . S
Mn1117 O1122 2.121 . S
Mn1117 N1124 2.257 . S
Mn1117 N1133 2.282 . S
Mn1117 O1141 2.215 . S
Mn1117 O1143 2.117 . S
C1118 O1140 1.234 . S
C1118 O1141 1.283 . S
C1119 O1131 1.281 . S
C1119 O1132 1.236 . S
C1120 O1142 1.240 . S
C1120 O1143 1.264 . S
O1121 Mn1116 2.095 . S
O1121 C1130 1.250 . S
O1122 Mn1117 2.121 . S
O1122 C1130 1.258 . S
C1123 N1124 1.326 . S
C1123 C1127 1.460 . S
C1123 H1129 0.929 . S
N1124 Mn1117 2.257 . S
N1124 C1123 1.326 . S
N1124 C1128 1.362 . S
C1125 C1126 1.258 . S
C1125 C1128 1.431 . S
C1125 C1145 1.449 . S
C1126 C1125 1.258 . S
C1126 C1127 1.477 . S
C1126 H1146 0.931 . S
C1127 C1123 1.460 . S
C1127 C1126 1.477 . S
C1127 H1147 0.930 . S
C1128 N1124 1.362 . S
C1128 C1125 1.431 . S
C1128 C1138 1.476 . S
H1129 C1123 0.929 . S
C1130 O1121 1.250 . S
C1130 O1122 1.258 . S
O1131 Mn1116 2.162 . S
O1131 C1119 1.281 . S
O1132 Mn1116 2.297 . S
O1132 C1119 1.236 . S
N1133 Mn1117 2.282 . S
N1133 C1134 1.328 . S
N1133 C1138 1.318 . S
C1134 N1133 1.328 . S
C1134 C1135 1.457 . S
C1134 H1139 0.929 . S
C1135 C1134 1.457 . S
C1135 C1136 1.291 . S
C1135 H1148 0.931 . S
C1136 C1135 1.291 . S
C1136 C1137 1.373 . S
C1136 H1149 0.929 . S
C1137 C1136 1.373 . S
C1137 C1138 1.396 . S
C1137 C1144 1.403 . S
C1138 C1128 1.476 . S
C1138 N1133 1.318 . S
C1138 C1137 1.396 . S
H1139 C1134 0.929 . S
O1140 Mn1116 2.385 . S
O1140 C1118 1.234 . S
O1141 Mn1116 2.209 . S
O1141 Mn1117 2.215 . S
O1141 C1118 1.283 . S
O1142 Mn1116 2.094 . S
O1142 C1120 1.240 . S
O1143 Mn1117 2.117 . S
O1143 C1120 1.264 . S
C1144 C1137 1.403 . S
C1144 C1145 1.399 . S
C1144 H1150 0.929 . S
C1145 C1125 1.449 . S
C1145 C1144 1.399 . S
C1145 H1151 0.930 . S
H1146 C1126 0.931 . S
H1147 C1127 0.930 . S
H1148 C1135 0.931 . S
H1149 C1136 0.929 . S
H1150 C1144 0.929 . S
H1151 C1145 0.930 . S
Mn1152 O1157 2.095 . S
Mn1152 O1167 2.162 . S
Mn1152 O1168 2.297 . S
Mn1152 O1176 2.385 . S
Mn1152 O1177 2.209 . S
Mn1152 O1178 2.094 . S
Mn1153 O1158 2.121 . S
Mn1153 N1160 2.257 . S
Mn1153 N1169 2.282 . S
Mn1153 O1177 2.215 . S
Mn1153 O1179 2.117 . S
C1154 O1176 1.234 . S
C1154 O1177 1.283 . S
C1155 O1167 1.281 . S
C1155 O1168 1.236 . S
C1156 O1178 1.240 . S
C1156 O1179 1.264 . S
O1157 Mn1152 2.095 . S
O1157 C1166 1.250 . S
O1158 Mn1153 2.121 . S
O1158 C1166 1.258 . S
C1159 N1160 1.326 . S
C1159 C1163 1.460 . S
C1159 H1165 0.929 . S
N1160 Mn1153 2.257 . S
N1160 C1159 1.326 . S
N1160 C1164 1.362 . S
C1161 C1162 1.258 . S
C1161 C1164 1.431 . S
C1161 C1181 1.449 . S
C1162 C1161 1.258 . S
C1162 C1163 1.477 . S
C1162 H1182 0.931 . S
C1163 C1159 1.460 . S
C1163 C1162 1.477 . S
C1163 H1183 0.930 . S
C1164 N1160 1.362 . S
C1164 C1161 1.431 . S
C1164 C1174 1.476 . S
H1165 C1159 0.929 . S
C1166 O1157 1.250 . S
C1166 O1158 1.258 . S
O1167 Mn1152 2.162 . S
O1167 C1155 1.281 . S
O1168 Mn1152 2.297 . S
O1168 C1155 1.236 . S
N1169 Mn1153 2.282 . S
N1169 C1170 1.328 . S
N1169 C1174 1.318 . S
C1170 N1169 1.328 . S
C1170 C1171 1.457 . S
C1170 H1175 0.929 . S
C1171 C1170 1.457 . S
C1171 C1172 1.291 . S
C1171 H1184 0.931 . S
C1172 C1171 1.291 . S
C1172 C1173 1.373 . S
C1172 H1185 0.929 . S
C1173 C1172 1.373 . S
C1173 C1174 1.396 . S
C1173 C1180 1.403 . S
C1174 C1164 1.476 . S
C1174 N1169 1.318 . S
C1174 C1173 1.396 . S
H1175 C1170 0.929 . S
O1176 Mn1152 2.385 . S
O1176 C1154 1.234 . S
O1177 Mn1152 2.209 . S
O1177 Mn1153 2.215 . S
O1177 C1154 1.283 . S
O1178 Mn1152 2.094 . S
O1178 C1156 1.240 . S
O1179 Mn1153 2.117 . S
O1179 C1156 1.264 . S
C1180 C1173 1.403 . S
C1180 C1181 1.399 . S
C1180 H1186 0.929 . S
C1181 C1161 1.449 . S
C1181 C1180 1.399 . S
C1181 H1187 0.930 . S
H1182 C1162 0.931 . S
H1183 C1163 0.930 . S
H1184 C1171 0.931 . S
H1185 C1172 0.929 . S
H1186 C1180 0.929 . S
H1187 C1181 0.930 . S
Mn1188 O1193 2.095 . S
Mn1188 O1203 2.162 . S
Mn1188 O1204 2.297 . S
Mn1188 O1212 2.385 . S
Mn1188 O1213 2.209 . S
Mn1188 O1214 2.094 . S
Mn1189 O1194 2.121 . S
Mn1189 N1196 2.257 . S
Mn1189 N1205 2.282 . S
Mn1189 O1213 2.215 . S
Mn1189 O1215 2.117 . S
C1190 O1212 1.234 . S
C1190 O1213 1.283 . S
C1191 O1203 1.281 . S
C1191 O1204 1.236 . S
C1192 O1214 1.240 . S
C1192 O1215 1.264 . S
O1193 Mn1188 2.095 . S
O1193 C1202 1.250 . S
O1194 Mn1189 2.121 . S
O1194 C1202 1.258 . S
C1195 N1196 1.326 . S
C1195 C1199 1.460 . S
C1195 H1201 0.929 . S
N1196 Mn1189 2.257 . S
N1196 C1195 1.326 . S
N1196 C1200 1.362 . S
C1197 C1198 1.258 . S
C1197 C1200 1.431 . S
C1197 C1217 1.449 . S
C1198 C1197 1.258 . S
C1198 C1199 1.477 . S
C1198 H1218 0.931 . S
C1199 C1195 1.460 . S
C1199 C1198 1.477 . S
C1199 H1219 0.930 . S
C1200 N1196 1.362 . S
C1200 C1197 1.431 . S
C1200 C1210 1.476 . S
H1201 C1195 0.929 . S
C1202 O1193 1.250 . S
C1202 O1194 1.258 . S
O1203 Mn1188 2.162 . S
O1203 C1191 1.281 . S
O1204 Mn1188 2.297 . S
O1204 C1191 1.236 . S
N1205 Mn1189 2.282 . S
N1205 C1206 1.328 . S
N1205 C1210 1.318 . S
C1206 N1205 1.328 . S
C1206 C1207 1.457 . S
C1206 H1211 0.929 . S
C1207 C1206 1.457 . S
C1207 C1208 1.291 . S
C1207 H1220 0.931 . S
C1208 C1207 1.291 . S
C1208 C1209 1.373 . S
C1208 H1221 0.929 . S
C1209 C1208 1.373 . S
C1209 C1210 1.396 . S
C1209 C1216 1.403 . S
C1210 C1200 1.476 . S
C1210 N1205 1.318 . S
C1210 C1209 1.396 . S
H1211 C1206 0.929 . S
O1212 Mn1188 2.385 . S
O1212 C1190 1.234 . S
O1213 Mn1188 2.209 . S
O1213 Mn1189 2.215 . S
O1213 C1190 1.283 . S
O1214 Mn1188 2.094 . S
O1214 C1192 1.240 . S
O1215 Mn1189 2.117 . S
O1215 C1192 1.264 . S
C1216 C1209 1.403 . S
C1216 C1217 1.399 . S
C1216 H1222 0.929 . S
C1217 C1197 1.449 . S
C1217 C1216 1.399 . S
C1217 H1223 0.930 . S
H1218 C1198 0.931 . S
H1219 C1199 0.930 . S
H1220 C1207 0.931 . S
H1221 C1208 0.929 . S
H1222 C1216 0.929 . S
H1223 C1217 0.930 . S
Mn1224 O1229 2.095 . S
Mn1224 O1239 2.162 . S
Mn1224 O1240 2.297 . S
Mn1224 O1248 2.385 . S
Mn1224 O1249 2.209 . S
Mn1224 O1250 2.094 . S
Mn1225 O1230 2.121 . S
Mn1225 N1232 2.257 . S
Mn1225 N1241 2.282 . S
Mn1225 O1249 2.215 . S
Mn1225 O1251 2.117 . S
C1226 O1248 1.234 . S
C1226 O1249 1.283 . S
C1227 O1239 1.281 . S
C1227 O1240 1.236 . S
C1228 O1250 1.240 . S
C1228 O1251 1.264 . S
O1229 Mn1224 2.095 . S
O1229 C1238 1.250 . S
O1230 Mn1225 2.121 . S
O1230 C1238 1.258 . S
C1231 N1232 1.326 . S
C1231 C1235 1.460 . S
C1231 H1237 0.929 . S
N1232 Mn1225 2.257 . S
N1232 C1231 1.326 . S
N1232 C1236 1.362 . S
C1233 C1234 1.258 . S
C1233 C1236 1.431 . S
C1233 C1253 1.449 . S
C1234 C1233 1.258 . S
C1234 C1235 1.477 . S
C1234 H1254 0.931 . S
C1235 C1231 1.460 . S
C1235 C1234 1.477 . S
C1235 H1255 0.930 . S
C1236 N1232 1.362 . S
C1236 C1233 1.431 . S
C1236 C1246 1.476 . S
H1237 C1231 0.929 . S
C1238 O1229 1.250 . S
C1238 O1230 1.258 . S
O1239 Mn1224 2.162 . S
O1239 C1227 1.281 . S
O1240 Mn1224 2.297 . S
O1240 C1227 1.236 . S
N1241 Mn1225 2.282 . S
N1241 C1242 1.328 . S
N1241 C1246 1.318 . S
C1242 N1241 1.328 . S
C1242 C1243 1.457 . S
C1242 H1247 0.929 . S
C1243 C1242 1.457 . S
C1243 C1244 1.291 . S
C1243 H1256 0.931 . S
C1244 C1243 1.291 . S
C1244 C1245 1.373 . S
C1244 H1257 0.929 . S
C1245 C1244 1.373 . S
C1245 C1246 1.396 . S
C1245 C1252 1.403 . S
C1246 C1236 1.476 . S
C1246 N1241 1.318 . S
C1246 C1245 1.396 . S
H1247 C1242 0.929 . S
O1248 Mn1224 2.385 . S
O1248 C1226 1.234 . S
O1249 Mn1224 2.209 . S
O1249 Mn1225 2.215 . S
O1249 C1226 1.283 . S
O1250 Mn1224 2.094 . S
O1250 C1228 1.240 . S
O1251 Mn1225 2.117 . S
O1251 C1228 1.264 . S
C1252 C1245 1.403 . S
C1252 C1253 1.399 . S
C1252 H1258 0.929 . S
C1253 C1233 1.449 . S
C1253 C1252 1.399 . S
C1253 H1259 0.930 . S
H1254 C1234 0.931 . S
H1255 C1235 0.930 . S
H1256 C1243 0.931 . S
H1257 C1244 0.929 . S
H1258 C1252 0.929 . S
H1259 C1253 0.930 . S
Mn1260 O1265 2.095 . S
Mn1260 O1275 2.162 . S
Mn1260 O1276 2.297 . S
Mn1260 O1284 2.385 . S
Mn1260 O1285 2.209 . S
Mn1260 O1286 2.094 . S
Mn1261 O1266 2.121 . S
Mn1261 N1268 2.257 . S
Mn1261 N1277 2.282 . S
Mn1261 O1285 2.215 . S
Mn1261 O1287 2.117 . S
C1262 O1284 1.234 . S
C1262 O1285 1.283 . S
C1263 O1275 1.281 . S
C1263 O1276 1.236 . S
C1264 O1286 1.240 . S
C1264 O1287 1.264 . S
O1265 Mn1260 2.095 . S
O1265 C1274 1.250 . S
O1266 Mn1261 2.121 . S
O1266 C1274 1.258 . S
C1267 N1268 1.326 . S
C1267 C1271 1.460 . S
C1267 H1273 0.929 . S
N1268 Mn1261 2.257 . S
N1268 C1267 1.326 . S
N1268 C1272 1.362 . S
C1269 C1270 1.258 . S
C1269 C1272 1.431 . S
C1269 C1289 1.449 . S
C1270 C1269 1.258 . S
C1270 C1271 1.477 . S
C1270 H1290 0.931 . S
C1271 C1267 1.460 . S
C1271 C1270 1.477 . S
C1271 H1291 0.930 . S
C1272 N1268 1.362 . S
C1272 C1269 1.431 . S
C1272 C1282 1.476 . S
H1273 C1267 0.929 . S
C1274 O1265 1.250 . S
C1274 O1266 1.258 . S
O1275 Mn1260 2.162 . S
O1275 C1263 1.281 . S
O1276 Mn1260 2.297 . S
O1276 C1263 1.236 . S
N1277 Mn1261 2.282 . S
N1277 C1278 1.328 . S
N1277 C1282 1.318 . S
C1278 N1277 1.328 . S
C1278 C1279 1.457 . S
C1278 H1283 0.929 . S
C1279 C1278 1.457 . S
C1279 C1280 1.291 . S
C1279 H1292 0.931 . S
C1280 C1279 1.291 . S
C1280 C1281 1.373 . S
C1280 H1293 0.929 . S
C1281 C1280 1.373 . S
C1281 C1282 1.396 . S
C1281 C1288 1.403 . S
C1282 C1272 1.476 . S
C1282 N1277 1.318 . S
C1282 C1281 1.396 . S
H1283 C1278 0.929 . S
O1284 Mn1260 2.385 . S
O1284 C1262 1.234 . S
O1285 Mn1260 2.209 . S
O1285 Mn1261 2.215 . S
O1285 C1262 1.283 . S
O1286 Mn1260 2.094 . S
O1286 C1264 1.240 . S
O1287 Mn1261 2.117 . S
O1287 C1264 1.264 . S
C1288 C1281 1.403 . S
C1288 C1289 1.399 . S
C1288 H1294 0.929 . S
C1289 C1269 1.449 . S
C1289 C1288 1.399 . S
C1289 H1295 0.930 . S
H1290 C1270 0.931 . S
H1291 C1271 0.930 . S
H1292 C1279 0.931 . S
H1293 C1280 0.929 . S
H1294 C1288 0.929 . S
H1295 C1289 0.930 . S
Mn1296 O1301 2.095 . S
Mn1296 O1311 2.162 . S
Mn1296 O1312 2.297 . S
Mn1296 O1320 2.385 . S
Mn1296 O1321 2.209 . S
Mn1296 O1322 2.094 . S
Mn1297 O1302 2.121 . S
Mn1297 N1304 2.257 . S
Mn1297 N1313 2.282 . S
Mn1297 O1321 2.215 . S
Mn1297 O1323 2.117 . S
C1298 O1320 1.234 . S
C1298 O1321 1.283 . S
C1299 O1311 1.281 . S
C1299 O1312 1.236 . S
C1300 O1322 1.240 . S
C1300 O1323 1.264 . S
O1301 Mn1296 2.095 . S
O1301 C1310 1.250 . S
O1302 Mn1297 2.121 . S
O1302 C1310 1.258 . S
C1303 N1304 1.326 . S
C1303 C1307 1.460 . S
C1303 H1309 0.929 . S
N1304 Mn1297 2.257 . S
N1304 C1303 1.326 . S
N1304 C1308 1.362 . S
C1305 C1306 1.258 . S
C1305 C1308 1.431 . S
C1305 C1325 1.449 . S
C1306 C1305 1.258 . S
C1306 C1307 1.477 . S
C1306 H1326 0.931 . S
C1307 C1303 1.460 . S
C1307 C1306 1.477 . S
C1307 H1327 0.930 . S
C1308 N1304 1.362 . S
C1308 C1305 1.431 . S
C1308 C1318 1.476 . S
H1309 C1303 0.929 . S
C1310 O1301 1.250 . S
C1310 O1302 1.258 . S
O1311 Mn1296 2.162 . S
O1311 C1299 1.281 . S
O1312 Mn1296 2.297 . S
O1312 C1299 1.236 . S
N1313 Mn1297 2.282 . S
N1313 C1314 1.328 . S
N1313 C1318 1.318 . S
C1314 N1313 1.328 . S
C1314 C1315 1.457 . S
C1314 H1319 0.929 . S
C1315 C1314 1.457 . S
C1315 C1316 1.291 . S
C1315 H1328 0.931 . S
C1316 C1315 1.291 . S
C1316 C1317 1.373 . S
C1316 H1329 0.929 . S
C1317 C1316 1.373 . S
C1317 C1318 1.396 . S
C1317 C1324 1.403 . S
C1318 C1308 1.476 . S
C1318 N1313 1.318 . S
C1318 C1317 1.396 . S
H1319 C1314 0.929 . S
O1320 Mn1296 2.385 . S
O1320 C1298 1.234 . S
O1321 Mn1296 2.209 . S
O1321 Mn1297 2.215 . S
O1321 C1298 1.283 . S
O1322 Mn1296 2.094 . S
O1322 C1300 1.240 . S
O1323 Mn1297 2.117 . S
O1323 C1300 1.264 . S
C1324 C1317 1.403 . S
C1324 C1325 1.399 . S
C1324 H1330 0.929 . S
C1325 C1305 1.449 . S
C1325 C1324 1.399 . S
C1325 H1331 0.930 . S
H1326 C1306 0.931 . S
H1327 C1307 0.930 . S
H1328 C1315 0.931 . S
H1329 C1316 0.929 . S
H1330 C1324 0.929 . S
H1331 C1325 0.930 . S
Mn1332 O1337 2.095 . S
Mn1332 O1347 2.162 . S
Mn1332 O1348 2.297 . S
Mn1332 O1356 2.385 . S
Mn1332 O1357 2.209 . S
Mn1332 O1358 2.094 . S
Mn1333 O1338 2.121 . S
Mn1333 N1340 2.257 . S
Mn1333 N1349 2.282 . S
Mn1333 O1357 2.215 . S
Mn1333 O1359 2.117 . S
C1334 O1356 1.234 . S
C1334 O1357 1.283 . S
C1335 O1347 1.281 . S
C1335 O1348 1.236 . S
C1336 O1358 1.240 . S
C1336 O1359 1.264 . S
O1337 Mn1332 2.095 . S
O1337 C1346 1.250 . S
O1338 Mn1333 2.121 . S
O1338 C1346 1.258 . S
C1339 N1340 1.326 . S
C1339 C1343 1.460 . S
C1339 H1345 0.929 . S
N1340 Mn1333 2.257 . S
N1340 C1339 1.326 . S
N1340 C1344 1.362 . S
C1341 C1342 1.258 . S
C1341 C1344 1.431 . S
C1341 C1361 1.449 . S
C1342 C1341 1.258 . S
C1342 C1343 1.477 . S
C1342 H1362 0.931 . S
C1343 C1339 1.460 . S
C1343 C1342 1.477 . S
C1343 H1363 0.930 . S
C1344 N1340 1.362 . S
C1344 C1341 1.431 . S
C1344 C1354 1.476 . S
H1345 C1339 0.929 . S
C1346 O1337 1.250 . S
C1346 O1338 1.258 . S
O1347 Mn1332 2.162 . S
O1347 C1335 1.281 . S
O1348 Mn1332 2.297 . S
O1348 C1335 1.236 . S
N1349 Mn1333 2.282 . S
N1349 C1350 1.328 . S
N1349 C1354 1.318 . S
C1350 N1349 1.328 . S
C1350 C1351 1.457 . S
C1350 H1355 0.929 . S
C1351 C1350 1.457 . S
C1351 C1352 1.291 . S
C1351 H1364 0.931 . S
C1352 C1351 1.291 . S
C1352 C1353 1.373 . S
C1352 H1365 0.929 . S
C1353 C1352 1.373 . S
C1353 C1354 1.396 . S
C1353 C1360 1.403 . S
C1354 C1344 1.476 . S
C1354 N1349 1.318 . S
C1354 C1353 1.396 . S
H1355 C1350 0.929 . S
O1356 Mn1332 2.385 . S
O1356 C1334 1.234 . S
O1357 Mn1332 2.209 . S
O1357 Mn1333 2.215 . S
O1357 C1334 1.283 . S
O1358 Mn1332 2.094 . S
O1358 C1336 1.240 . S
O1359 Mn1333 2.117 . S
O1359 C1336 1.264 . S
C1360 C1353 1.403 . S
C1360 C1361 1.399 . S
C1360 H1366 0.929 . S
C1361 C1341 1.449 . S
C1361 C1360 1.399 . S
C1361 H1367 0.930 . S
H1362 C1342 0.931 . S
H1363 C1343 0.930 . S
H1364 C1351 0.931 . S
H1365 C1352 0.929 . S
H1366 C1360 0.929 . S
H1367 C1361 0.930 . S
Mn1368 O1373 2.095 . S
Mn1368 O1383 2.162 . S
Mn1368 O1384 2.297 . S
Mn1368 O1392 2.385 . S
Mn1368 O1393 2.209 . S
Mn1368 O1394 2.094 . S
Mn1369 O1374 2.121 . S
Mn1369 N1376 2.257 . S
Mn1369 N1385 2.282 . S
Mn1369 O1393 2.215 . S
Mn1369 O1395 2.117 . S
C1370 O1392 1.234 . S
C1370 O1393 1.283 . S
C1371 O1383 1.281 . S
C1371 O1384 1.236 . S
C1372 O1394 1.240 . S
C1372 O1395 1.264 . S
O1373 Mn1368 2.095 . S
O1373 C1382 1.250 . S
O1374 Mn1369 2.121 . S
O1374 C1382 1.258 . S
C1375 N1376 1.326 . S
C1375 C1379 1.460 . S
C1375 H1381 0.929 . S
N1376 Mn1369 2.257 . S
N1376 C1375 1.326 . S
N1376 C1380 1.362 . S
C1377 C1378 1.258 . S
C1377 C1380 1.431 . S
C1377 C1397 1.449 . S
C1378 C1377 1.258 . S
C1378 C1379 1.477 . S
C1378 H1398 0.931 . S
C1379 C1375 1.460 . S
C1379 C1378 1.477 . S
C1379 H1399 0.930 . S
C1380 N1376 1.362 . S
C1380 C1377 1.431 . S
C1380 C1390 1.476 . S
H1381 C1375 0.929 . S
C1382 O1373 1.250 . S
C1382 O1374 1.258 . S
O1383 Mn1368 2.162 . S
O1383 C1371 1.281 . S
O1384 Mn1368 2.297 . S
O1384 C1371 1.236 . S
N1385 Mn1369 2.282 . S
N1385 C1386 1.328 . S
N1385 C1390 1.318 . S
C1386 N1385 1.328 . S
C1386 C1387 1.457 . S
C1386 H1391 0.929 . S
C1387 C1386 1.457 . S
C1387 C1388 1.291 . S
C1387 H1400 0.931 . S
C1388 C1387 1.291 . S
C1388 C1389 1.373 . S
C1388 H1401 0.929 . S
C1389 C1388 1.373 . S
C1389 C1390 1.396 . S
C1389 C1396 1.403 . S
C1390 C1380 1.476 . S
C1390 N1385 1.318 . S
C1390 C1389 1.396 . S
H1391 C1386 0.929 . S
O1392 Mn1368 2.385 . S
O1392 C1370 1.234 . S
O1393 Mn1368 2.209 . S
O1393 Mn1369 2.215 . S
O1393 C1370 1.283 . S
O1394 Mn1368 2.094 . S
O1394 C1372 1.240 . S
O1395 Mn1369 2.117 . S
O1395 C1372 1.264 . S
C1396 C1389 1.403 . S
C1396 C1397 1.399 . S
C1396 H1402 0.929 . S
C1397 C1377 1.449 . S
C1397 C1396 1.399 . S
C1397 H1403 0.930 . S
H1398 C1378 0.931 . S
H1399 C1379 0.930 . S
H1400 C1387 0.931 . S
H1401 C1388 0.929 . S
H1402 C1396 0.929 . S
H1403 C1397 0.930 . S
Mn1404 O1409 2.095 . S
Mn1404 O1419 2.162 . S
Mn1404 O1420 2.297 . S
Mn1404 O1428 2.385 . S
Mn1404 O1429 2.209 . S
Mn1404 O1430 2.094 . S
Mn1405 O1410 2.121 . S
Mn1405 N1412 2.257 . S
Mn1405 N1421 2.282 . S
Mn1405 O1429 2.215 . S
Mn1405 O1431 2.117 . S
C1406 O1428 1.234 . S
C1406 O1429 1.283 . S
C1407 O1419 1.281 . S
C1407 O1420 1.236 . S
C1408 O1430 1.240 . S
C1408 O1431 1.264 . S
O1409 Mn1404 2.095 . S
O1409 C1418 1.250 . S
O1410 Mn1405 2.121 . S
O1410 C1418 1.258 . S
C1411 N1412 1.326 . S
C1411 C1415 1.460 . S
C1411 H1417 0.929 . S
N1412 Mn1405 2.257 . S
N1412 C1411 1.326 . S
N1412 C1416 1.362 . S
C1413 C1414 1.258 . S
C1413 C1416 1.431 . S
C1413 C1433 1.449 . S
C1414 C1413 1.258 . S
C1414 C1415 1.477 . S
C1414 H1434 0.931 . S
C1415 C1411 1.460 . S
C1415 C1414 1.477 . S
C1415 H1435 0.930 . S
C1416 N1412 1.362 . S
C1416 C1413 1.431 . S
C1416 C1426 1.476 . S
H1417 C1411 0.929 . S
C1418 O1409 1.250 . S
C1418 O1410 1.258 . S
O1419 Mn1404 2.162 . S
O1419 C1407 1.281 . S
O1420 Mn1404 2.297 . S
O1420 C1407 1.236 . S
N1421 Mn1405 2.282 . S
N1421 C1422 1.328 . S
N1421 C1426 1.318 . S
C1422 N1421 1.328 . S
C1422 C1423 1.457 . S
C1422 H1427 0.929 . S
C1423 C1422 1.457 . S
C1423 C1424 1.291 . S
C1423 H1436 0.931 . S
C1424 C1423 1.291 . S
C1424 C1425 1.373 . S
C1424 H1437 0.929 . S
C1425 C1424 1.373 . S
C1425 C1426 1.396 . S
C1425 C1432 1.403 . S
C1426 C1416 1.476 . S
C1426 N1421 1.318 . S
C1426 C1425 1.396 . S
H1427 C1422 0.929 . S
O1428 Mn1404 2.385 . S
O1428 C1406 1.234 . S
O1429 Mn1404 2.209 . S
O1429 Mn1405 2.215 . S
O1429 C1406 1.283 . S
O1430 Mn1404 2.094 . S
O1430 C1408 1.240 . S
O1431 Mn1405 2.117 . S
O1431 C1408 1.264 . S
C1432 C1425 1.403 . S
C1432 C1433 1.399 . S
C1432 H1438 0.929 . S
C1433 C1413 1.449 . S
C1433 C1432 1.399 . S
C1433 H1439 0.930 . S
H1434 C1414 0.931 . S
H1435 C1415 0.930 . S
H1436 C1423 0.931 . S
H1437 C1424 0.929 . S
H1438 C1432 0.929 . S
H1439 C1433 0.930 . S
Mn1440 O1445 2.095 . S
Mn1440 O1455 2.162 . S
Mn1440 O1456 2.297 . S
Mn1440 O1464 2.385 . S
Mn1440 O1465 2.209 . S
Mn1440 O1466 2.094 . S
Mn1441 O1446 2.121 . S
Mn1441 N1448 2.257 . S
Mn1441 N1457 2.282 . S
Mn1441 O1465 2.215 . S
Mn1441 O1467 2.117 . S
C1442 O1464 1.234 . S
C1442 O1465 1.283 . S
C1443 O1455 1.281 . S
C1443 O1456 1.236 . S
C1444 O1466 1.240 . S
C1444 O1467 1.264 . S
O1445 Mn1440 2.095 . S
O1445 C1454 1.250 . S
O1446 Mn1441 2.121 . S
O1446 C1454 1.258 . S
C1447 N1448 1.326 . S
C1447 C1451 1.460 . S
C1447 H1453 0.929 . S
N1448 Mn1441 2.257 . S
N1448 C1447 1.326 . S
N1448 C1452 1.362 . S
C1449 C1450 1.258 . S
C1449 C1452 1.431 . S
C1449 C1469 1.449 . S
C1450 C1449 1.258 . S
C1450 C1451 1.477 . S
C1450 H1470 0.931 . S
C1451 C1447 1.460 . S
C1451 C1450 1.477 . S
C1451 H1471 0.930 . S
C1452 N1448 1.362 . S
C1452 C1449 1.431 . S
C1452 C1462 1.476 . S
H1453 C1447 0.929 . S
C1454 O1445 1.250 . S
C1454 O1446 1.258 . S
O1455 Mn1440 2.162 . S
O1455 C1443 1.281 . S
O1456 Mn1440 2.297 . S
O1456 C1443 1.236 . S
N1457 Mn1441 2.282 . S
N1457 C1458 1.328 . S
N1457 C1462 1.318 . S
C1458 N1457 1.328 . S
C1458 C1459 1.457 . S
C1458 H1463 0.929 . S
C1459 C1458 1.457 . S
C1459 C1460 1.291 . S
C1459 H1472 0.931 . S
C1460 C1459 1.291 . S
C1460 C1461 1.373 . S
C1460 H1473 0.929 . S
C1461 C1460 1.373 . S
C1461 C1462 1.396 . S
C1461 C1468 1.403 . S
C1462 C1452 1.476 . S
C1462 N1457 1.318 . S
C1462 C1461 1.396 . S
H1463 C1458 0.929 . S
O1464 Mn1440 2.385 . S
O1464 C1442 1.234 . S
O1465 Mn1440 2.209 . S
O1465 Mn1441 2.215 . S
O1465 C1442 1.283 . S
O1466 Mn1440 2.094 . S
O1466 C1444 1.240 . S
O1467 Mn1441 2.117 . S
O1467 C1444 1.264 . S
C1468 C1461 1.403 . S
C1468 C1469 1.399 . S
C1468 H1474 0.929 . S
C1469 C1449 1.449 . S
C1469 C1468 1.399 . S
C1469 H1475 0.930 . S
H1470 C1450 0.931 . S
H1471 C1451 0.930 . S
H1472 C1459 0.931 . S
H1473 C1460 0.929 . S
H1474 C1468 0.929 . S
H1475 C1469 0.930 . S
Mn1476 O1481 2.095 . S
Mn1476 O1491 2.162 . S
Mn1476 O1492 2.297 . S
Mn1476 O1500 2.385 . S
Mn1476 O1501 2.209 . S
Mn1476 O1502 2.094 . S
Mn1477 O1482 2.121 . S
Mn1477 N1484 2.257 . S
Mn1477 N1493 2.282 . S
Mn1477 O1501 2.215 . S
Mn1477 O1503 2.117 . S
C1478 O1500 1.234 . S
C1478 O1501 1.283 . S
C1479 O1491 1.281 . S
C1479 O1492 1.236 . S
C1480 O1502 1.240 . S
C1480 O1503 1.264 . S
O1481 Mn1476 2.095 . S
O1481 C1490 1.250 . S
O1482 Mn1477 2.121 . S
O1482 C1490 1.258 . S
C1483 N1484 1.326 . S
C1483 C1487 1.460 . S
C1483 H1489 0.929 . S
N1484 Mn1477 2.257 . S
N1484 C1483 1.326 . S
N1484 C1488 1.362 . S
C1485 C1486 1.258 . S
C1485 C1488 1.431 . S
C1485 C1505 1.449 . S
C1486 C1485 1.258 . S
C1486 C1487 1.477 . S
C1486 H1506 0.931 . S
C1487 C1483 1.460 . S
C1487 C1486 1.477 . S
C1487 H1507 0.930 . S
C1488 N1484 1.362 . S
C1488 C1485 1.431 . S
C1488 C1498 1.476 . S
H1489 C1483 0.929 . S
C1490 O1481 1.250 . S
C1490 O1482 1.258 . S
O1491 Mn1476 2.162 . S
O1491 C1479 1.281 . S
O1492 Mn1476 2.297 . S
O1492 C1479 1.236 . S
N1493 Mn1477 2.282 . S
N1493 C1494 1.328 . S
N1493 C1498 1.318 . S
C1494 N1493 1.328 . S
C1494 C1495 1.457 . S
C1494 H1499 0.929 . S
C1495 C1494 1.457 . S
C1495 C1496 1.291 . S
C1495 H1508 0.931 . S
C1496 C1495 1.291 . S
C1496 C1497 1.373 . S
C1496 H1509 0.929 . S
C1497 C1496 1.373 . S
C1497 C1498 1.396 . S
C1497 C1504 1.403 . S
C1498 C1488 1.476 . S
C1498 N1493 1.318 . S
C1498 C1497 1.396 . S
H1499 C1494 0.929 . S
O1500 Mn1476 2.385 . S
O1500 C1478 1.234 . S
O1501 Mn1476 2.209 . S
O1501 Mn1477 2.215 . S
O1501 C1478 1.283 . S
O1502 Mn1476 2.094 . S
O1502 C1480 1.240 . S
O1503 Mn1477 2.117 . S
O1503 C1480 1.264 . S
C1504 C1497 1.403 . S
C1504 C1505 1.399 . S
C1504 H1510 0.929 . S
C1505 C1485 1.449 . S
C1505 C1504 1.399 . S
C1505 H1511 0.930 . S
H1506 C1486 0.931 . S
H1507 C1487 0.930 . S
H1508 C1495 0.931 . S
H1509 C1496 0.929 . S
H1510 C1504 0.929 . S
H1511 C1505 0.930 . S
Mn1512 O1517 2.095 . S
Mn1512 O1527 2.162 . S
Mn1512 O1528 2.297 . S
Mn1512 O1536 2.385 . S
Mn1512 O1537 2.209 . S
Mn1512 O1538 2.094 . S
Mn1513 O1518 2.121 . S
Mn1513 N1520 2.257 . S
Mn1513 N1529 2.282 . S
Mn1513 O1537 2.215 . S
Mn1513 O1539 2.117 . S
C1514 O1536 1.234 . S
C1514 O1537 1.283 . S
C1515 O1527 1.281 . S
C1515 O1528 1.236 . S
C1516 O1538 1.240 . S
C1516 O1539 1.264 . S
O1517 Mn1512 2.095 . S
O1517 C1526 1.250 . S
O1518 Mn1513 2.121 . S
O1518 C1526 1.258 . S
C1519 N1520 1.326 . S
C1519 C1523 1.460 . S
C1519 H1525 0.929 . S
N1520 Mn1513 2.257 . S
N1520 C1519 1.326 . S
N1520 C1524 1.362 . S
C1521 C1522 1.258 . S
C1521 C1524 1.431 . S
C1521 C1541 1.449 . S
C1522 C1521 1.258 . S
C1522 C1523 1.477 . S
C1522 H1542 0.931 . S
C1523 C1519 1.460 . S
C1523 C1522 1.477 . S
C1523 H1543 0.930 . S
C1524 N1520 1.362 . S
C1524 C1521 1.431 . S
C1524 C1534 1.476 . S
H1525 C1519 0.929 . S
C1526 O1517 1.250 . S
C1526 O1518 1.258 . S
O1527 Mn1512 2.162 . S
O1527 C1515 1.281 . S
O1528 Mn1512 2.297 . S
O1528 C1515 1.236 . S
N1529 Mn1513 2.282 . S
N1529 C1530 1.328 . S
N1529 C1534 1.318 . S
C1530 N1529 1.328 . S
C1530 C1531 1.457 . S
C1530 H1535 0.929 . S
C1531 C1530 1.457 . S
C1531 C1532 1.291 . S
C1531 H1544 0.931 . S
C1532 C1531 1.291 . S
C1532 C1533 1.373 . S
C1532 H1545 0.929 . S
C1533 C1532 1.373 . S
C1533 C1534 1.396 . S
C1533 C1540 1.403 . S
C1534 C1524 1.476 . S
C1534 N1529 1.318 . S
C1534 C1533 1.396 . S
H1535 C1530 0.929 . S
O1536 Mn1512 2.385 . S
O1536 C1514 1.234 . S
O1537 Mn1512 2.209 . S
O1537 Mn1513 2.215 . S
O1537 C1514 1.283 . S
O1538 Mn1512 2.094 . S
O1538 C1516 1.240 . S
O1539 Mn1513 2.117 . S
O1539 C1516 1.264 . S
C1540 C1533 1.403 . S
C1540 C1541 1.399 . S
C1540 H1546 0.929 . S
C1541 C1521 1.449 . S
C1541 C1540 1.399 . S
C1541 H1547 0.930 . S
H1542 C1522 0.931 . S
H1543 C1523 0.930 . S
H1544 C1531 0.931 . S
H1545 C1532 0.929 . S
H1546 C1540 0.929 . S
H1547 C1541 0.930 . S
Mn1548 O1553 2.095 . S
Mn1548 O1563 2.162 . S
Mn1548 O1564 2.297 . S
Mn1548 O1572 2.385 . S
Mn1548 O1573 2.209 . S
Mn1548 O1574 2.094 . S
Mn1549 O1554 2.121 . S
Mn1549 N1556 2.257 . S
Mn1549 N1565 2.282 . S
Mn1549 O1573 2.215 . S
Mn1549 O1575 2.117 . S
C1550 O1572 1.234 . S
C1550 O1573 1.283 . S
C1551 O1563 1.281 . S
C1551 O1564 1.236 . S
C1552 O1574 1.240 . S
C1552 O1575 1.264 . S
O1553 Mn1548 2.095 . S
O1553 C1562 1.250 . S
O1554 Mn1549 2.121 . S
O1554 C1562 1.258 . S
C1555 N1556 1.326 . S
C1555 C1559 1.460 . S
C1555 H1561 0.929 . S
N1556 Mn1549 2.257 . S
N1556 C1555 1.326 . S
N1556 C1560 1.362 . S
C1557 C1558 1.258 . S
C1557 C1560 1.431 . S
C1557 C1577 1.449 . S
C1558 C1557 1.258 . S
C1558 C1559 1.477 . S
C1558 H1578 0.931 . S
C1559 C1555 1.460 . S
C1559 C1558 1.477 . S
C1559 H1579 0.930 . S
C1560 N1556 1.362 . S
C1560 C1557 1.431 . S
C1560 C1570 1.476 . S
H1561 C1555 0.929 . S
C1562 O1553 1.250 . S
C1562 O1554 1.258 . S
O1563 Mn1548 2.162 . S
O1563 C1551 1.281 . S
O1564 Mn1548 2.297 . S
O1564 C1551 1.236 . S
N1565 Mn1549 2.282 . S
N1565 C1566 1.328 . S
N1565 C1570 1.318 . S
C1566 N1565 1.328 . S
C1566 C1567 1.457 . S
C1566 H1571 0.929 . S
C1567 C1566 1.457 . S
C1567 C1568 1.291 . S
C1567 H1580 0.931 . S
C1568 C1567 1.291 . S
C1568 C1569 1.373 . S
C1568 H1581 0.929 . S
C1569 C1568 1.373 . S
C1569 C1570 1.396 . S
C1569 C1576 1.403 . S
C1570 C1560 1.476 . S
C1570 N1565 1.318 . S
C1570 C1569 1.396 . S
H1571 C1566 0.929 . S
O1572 Mn1548 2.385 . S
O1572 C1550 1.234 . S
O1573 Mn1548 2.209 . S
O1573 Mn1549 2.215 . S
O1573 C1550 1.283 . S
O1574 Mn1548 2.094 . S
O1574 C1552 1.240 . S
O1575 Mn1549 2.117 . S
O1575 C1552 1.264 . S
C1576 C1569 1.403 . S
C1576 C1577 1.399 . S
C1576 H1582 0.929 . S
C1577 C1557 1.449 . S
C1577 C1576 1.399 . S
C1577 H1583 0.930 . S
H1578 C1558 0.931 . S
H1579 C1559 0.930 . S
H1580 C1567 0.931 . S
H1581 C1568 0.929 . S
H1582 C1576 0.929 . S
H1583 C1577 0.930 . S
Mn1584 O1589 2.095 . S
Mn1584 O1599 2.162 . S
Mn1584 O1600 2.297 . S
Mn1584 O1608 2.385 . S
Mn1584 O1609 2.209 . S
Mn1584 O1610 2.094 . S
Mn1585 O1590 2.121 . S
Mn1585 N1592 2.257 . S
Mn1585 N1601 2.282 . S
Mn1585 O1609 2.215 . S
Mn1585 O1611 2.117 . S
C1586 O1608 1.234 . S
C1586 O1609 1.283 . S
C1587 O1599 1.281 . S
C1587 O1600 1.236 . S
C1588 O1610 1.240 . S
C1588 O1611 1.264 . S
O1589 Mn1584 2.095 . S
O1589 C1598 1.250 . S
O1590 Mn1585 2.121 . S
O1590 C1598 1.258 . S
C1591 N1592 1.326 . S
C1591 C1595 1.460 . S
C1591 H1597 0.929 . S
N1592 Mn1585 2.257 . S
N1592 C1591 1.326 . S
N1592 C1596 1.362 . S
C1593 C1594 1.258 . S
C1593 C1596 1.431 . S
C1593 C1613 1.449 . S
C1594 C1593 1.258 . S
C1594 C1595 1.477 . S
C1594 H1614 0.931 . S
C1595 C1591 1.460 . S
C1595 C1594 1.477 . S
C1595 H1615 0.930 . S
C1596 N1592 1.362 . S
C1596 C1593 1.431 . S
C1596 C1606 1.476 . S
H1597 C1591 0.929 . S
C1598 O1589 1.250 . S
C1598 O1590 1.258 . S
O1599 Mn1584 2.162 . S
O1599 C1587 1.281 . S
O1600 Mn1584 2.297 . S
O1600 C1587 1.236 . S
N1601 Mn1585 2.282 . S
N1601 C1602 1.328 . S
N1601 C1606 1.318 . S
C1602 N1601 1.328 . S
C1602 C1603 1.457 . S
C1602 H1607 0.929 . S
C1603 C1602 1.457 . S
C1603 C1604 1.291 . S
C1603 H1616 0.931 . S
C1604 C1603 1.291 . S
C1604 C1605 1.373 . S
C1604 H1617 0.929 . S
C1605 C1604 1.373 . S
C1605 C1606 1.396 . S
C1605 C1612 1.403 . S
C1606 C1596 1.476 . S
C1606 N1601 1.318 . S
C1606 C1605 1.396 . S
H1607 C1602 0.929 . S
O1608 Mn1584 2.385 . S
O1608 C1586 1.234 . S
O1609 Mn1584 2.209 . S
O1609 Mn1585 2.215 . S
O1609 C1586 1.283 . S
O1610 Mn1584 2.094 . S
O1610 C1588 1.240 . S
O1611 Mn1585 2.117 . S
O1611 C1588 1.264 . S
C1612 C1605 1.403 . S
C1612 C1613 1.399 . S
C1612 H1618 0.929 . S
C1613 C1593 1.449 . S
C1613 C1612 1.399 . S
C1613 H1619 0.930 . S
H1614 C1594 0.931 . S
H1615 C1595 0.930 . S
H1616 C1603 0.931 . S
H1617 C1604 0.929 . S
H1618 C1612 0.929 . S
H1619 C1613 0.930 . S
Mn1620 O1625 2.095 . S
Mn1620 O1635 2.162 . S
Mn1620 O1636 2.297 . S
Mn1620 O1644 2.385 . S
Mn1620 O1645 2.209 . S
Mn1620 O1646 2.094 . S
Mn1621 O1626 2.121 . S
Mn1621 N1628 2.257 . S
Mn1621 N1637 2.282 . S
Mn1621 O1645 2.215 . S
Mn1621 O1647 2.117 . S
C1622 O1644 1.234 . S
C1622 O1645 1.283 . S
C1623 O1635 1.281 . S
C1623 O1636 1.236 . S
C1624 O1646 1.240 . S
C1624 O1647 1.264 . S
O1625 Mn1620 2.095 . S
O1625 C1634 1.250 . S
O1626 Mn1621 2.121 . S
O1626 C1634 1.258 . S
C1627 N1628 1.326 . S
C1627 C1631 1.460 . S
C1627 H1633 0.929 . S
N1628 Mn1621 2.257 . S
N1628 C1627 1.326 . S
N1628 C1632 1.362 . S
C1629 C1630 1.258 . S
C1629 C1632 1.431 . S
C1629 C1649 1.449 . S
C1630 C1629 1.258 . S
C1630 C1631 1.477 . S
C1630 H1650 0.931 . S
C1631 C1627 1.460 . S
C1631 C1630 1.477 . S
C1631 H1651 0.930 . S
C1632 N1628 1.362 . S
C1632 C1629 1.431 . S
C1632 C1642 1.476 . S
H1633 C1627 0.929 . S
C1634 O1625 1.250 . S
C1634 O1626 1.258 . S
O1635 Mn1620 2.162 . S
O1635 C1623 1.281 . S
O1636 Mn1620 2.297 . S
O1636 C1623 1.236 . S
N1637 Mn1621 2.282 . S
N1637 C1638 1.328 . S
N1637 C1642 1.318 . S
C1638 N1637 1.328 . S
C1638 C1639 1.457 . S
C1638 H1643 0.929 . S
C1639 C1638 1.457 . S
C1639 C1640 1.291 . S
C1639 H1652 0.931 . S
C1640 C1639 1.291 . S
C1640 C1641 1.373 . S
C1640 H1653 0.929 . S
C1641 C1640 1.373 . S
C1641 C1642 1.396 . S
C1641 C1648 1.403 . S
C1642 C1632 1.476 . S
C1642 N1637 1.318 . S
C1642 C1641 1.396 . S
H1643 C1638 0.929 . S
O1644 Mn1620 2.385 . S
O1644 C1622 1.234 . S
O1645 Mn1620 2.209 . S
O1645 Mn1621 2.215 . S
O1645 C1622 1.283 . S
O1646 Mn1620 2.094 . S
O1646 C1624 1.240 . S
O1647 Mn1621 2.117 . S
O1647 C1624 1.264 . S
C1648 C1641 1.403 . S
C1648 C1649 1.399 . S
C1648 H1654 0.929 . S
C1649 C1629 1.449 . S
C1649 C1648 1.399 . S
C1649 H1655 0.930 . S
H1650 C1630 0.931 . S
H1651 C1631 0.930 . S
H1652 C1639 0.931 . S
H1653 C1640 0.929 . S
H1654 C1648 0.929 . S
H1655 C1649 0.930 . S
Mn1656 O1661 2.095 . S
Mn1656 O1671 2.162 . S
Mn1656 O1672 2.297 . S
Mn1656 O1680 2.385 . S
Mn1656 O1681 2.209 . S
Mn1656 O1682 2.094 . S
Mn1657 O1662 2.121 . S
Mn1657 N1664 2.257 . S
Mn1657 N1673 2.282 . S
Mn1657 O1681 2.215 . S
Mn1657 O1683 2.117 . S
C1658 O1680 1.234 . S
C1658 O1681 1.283 . S
C1659 O1671 1.281 . S
C1659 O1672 1.236 . S
C1660 O1682 1.240 . S
C1660 O1683 1.264 . S
O1661 Mn1656 2.095 . S
O1661 C1670 1.250 . S
O1662 Mn1657 2.121 . S
O1662 C1670 1.258 . S
C1663 N1664 1.326 . S
C1663 C1667 1.460 . S
C1663 H1669 0.929 . S
N1664 Mn1657 2.257 . S
N1664 C1663 1.326 . S
N1664 C1668 1.362 . S
C1665 C1666 1.258 . S
C1665 C1668 1.431 . S
C1665 C1685 1.449 . S
C1666 C1665 1.258 . S
C1666 C1667 1.477 . S
C1666 H1686 0.931 . S
C1667 C1663 1.460 . S
C1667 C1666 1.477 . S
C1667 H1687 0.930 . S
C1668 N1664 1.362 . S
C1668 C1665 1.431 . S
C1668 C1678 1.476 . S
H1669 C1663 0.929 . S
C1670 O1661 1.250 . S
C1670 O1662 1.258 . S
O1671 Mn1656 2.162 . S
O1671 C1659 1.281 . S
O1672 Mn1656 2.297 . S
O1672 C1659 1.236 . S
N1673 Mn1657 2.282 . S
N1673 C1674 1.328 . S
N1673 C1678 1.318 . S
C1674 N1673 1.328 . S
C1674 C1675 1.457 . S
C1674 H1679 0.929 . S
C1675 C1674 1.457 . S
C1675 C1676 1.291 . S
C1675 H1688 0.931 . S
C1676 C1675 1.291 . S
C1676 C1677 1.373 . S
C1676 H1689 0.929 . S
C1677 C1676 1.373 . S
C1677 C1678 1.396 . S
C1677 C1684 1.403 . S
C1678 C1668 1.476 . S
C1678 N1673 1.318 . S
C1678 C1677 1.396 . S
H1679 C1674 0.929 . S
O1680 Mn1656 2.385 . S
O1680 C1658 1.234 . S
O1681 Mn1656 2.209 . S
O1681 Mn1657 2.215 . S
O1681 C1658 1.283 . S
O1682 Mn1656 2.094 . S
O1682 C1660 1.240 . S
O1683 Mn1657 2.117 . S
O1683 C1660 1.264 . S
C1684 C1677 1.403 . S
C1684 C1685 1.399 . S
C1684 H1690 0.929 . S
C1685 C1665 1.449 . S
C1685 C1684 1.399 . S
C1685 H1691 0.930 . S
H1686 C1666 0.931 . S
H1687 C1667 0.930 . S
H1688 C1675 0.931 . S
H1689 C1676 0.929 . S
H1690 C1684 0.929 . S
H1691 C1685 0.930 . S
Mn1692 O1697 2.095 . S
Mn1692 O1707 2.162 . S
Mn1692 O1708 2.297 . S
Mn1692 O1716 2.385 . S
Mn1692 O1717 2.209 . S
Mn1692 O1718 2.094 . S
Mn1693 O1698 2.121 . S
Mn1693 N1700 2.257 . S
Mn1693 N1709 2.282 . S
Mn1693 O1717 2.215 . S
Mn1693 O1719 2.117 . S
C1694 O1716 1.234 . S
C1694 O1717 1.283 . S
C1695 O1707 1.281 . S
C1695 O1708 1.236 . S
C1696 O1718 1.240 . S
C1696 O1719 1.264 . S
O1697 Mn1692 2.095 . S
O1697 C1706 1.250 . S
O1698 Mn1693 2.121 . S
O1698 C1706 1.258 . S
C1699 N1700 1.326 . S
C1699 C1703 1.460 . S
C1699 H1705 0.929 . S
N1700 Mn1693 2.257 . S
N1700 C1699 1.326 . S
N1700 C1704 1.362 . S
C1701 C1702 1.258 . S
C1701 C1704 1.431 . S
C1701 C1721 1.449 . S
C1702 C1701 1.258 . S
C1702 C1703 1.477 . S
C1702 H1722 0.931 . S
C1703 C1699 1.460 . S
C1703 C1702 1.477 . S
C1703 H1723 0.930 . S
C1704 N1700 1.362 . S
C1704 C1701 1.431 . S
C1704 C1714 1.476 . S
H1705 C1699 0.929 . S
C1706 O1697 1.250 . S
C1706 O1698 1.258 . S
O1707 Mn1692 2.162 . S
O1707 C1695 1.281 . S
O1708 Mn1692 2.297 . S
O1708 C1695 1.236 . S
N1709 Mn1693 2.282 . S
N1709 C1710 1.328 . S
N1709 C1714 1.318 . S
C1710 N1709 1.328 . S
C1710 C1711 1.457 . S
C1710 H1715 0.929 . S
C1711 C1710 1.457 . S
C1711 C1712 1.291 . S
C1711 H1724 0.931 . S
C1712 C1711 1.291 . S
C1712 C1713 1.373 . S
C1712 H1725 0.929 . S
C1713 C1712 1.373 . S
C1713 C1714 1.396 . S
C1713 C1720 1.403 . S
C1714 C1704 1.476 . S
C1714 N1709 1.318 . S
C1714 C1713 1.396 . S
H1715 C1710 0.929 . S
O1716 Mn1692 2.385 . S
O1716 C1694 1.234 . S
O1717 Mn1692 2.209 . S
O1717 Mn1693 2.215 . S
O1717 C1694 1.283 . S
O1718 Mn1692 2.094 . S
O1718 C1696 1.240 . S
O1719 Mn1693 2.117 . S
O1719 C1696 1.264 . S
C1720 C1713 1.403 . S
C1720 C1721 1.399 . S
C1720 H1726 0.929 . S
C1721 C1701 1.449 . S
C1721 C1720 1.399 . S
C1721 H1727 0.930 . S
H1722 C1702 0.931 . S
H1723 C1703 0.930 . S
H1724 C1711 0.931 . S
H1725 C1712 0.929 . S
H1726 C1720 0.929 . S
H1727 C1721 0.930 . S
H1728 C1736 0.950 . S
H1729 C1741 0.950 . S
H1730 C1738 0.950 . S
H1731 C1740 0.950 . S
H1732 C1742 0.950 . S
H1733 C1744 0.950 . S
H1734 C1746 0.950 . S
H1735 C1747 0.950 . S
C1736 H1728 0.950 . S
C1736 C1737 1.386 . S
C1736 C1738 1.391 . S
C1737 C1736 1.386 . S
C1737 C1741 1.393 . S
C1738 H1730 0.950 . S
C1738 C1736 1.391 . S
C1738 C1739 1.400 . S
C1739 C1738 1.400 . S
C1739 C1740 1.398 . S
C1739 C1745 1.491 . S
C1740 H1731 0.950 . S
C1740 C1739 1.398 . S
C1740 C1741 1.391 . S
C1741 H1729 0.950 . S
C1741 C1737 1.393 . S
C1741 C1740 1.391 . S
C1742 H1732 0.950 . S
C1742 C1743 1.386 . S
C1742 C1744 1.391 . S
C1743 C1742 1.386 . S
C1743 C1747 1.393 . S
C1744 H1733 0.950 . S
C1744 C1742 1.391 . S
C1744 C1745 1.400 . S
C1745 C1739 1.491 . S
C1745 C1744 1.400 . S
C1745 C1746 1.398 . S
C1746 H1734 0.950 . S
C1746 C1745 1.398 . S
C1746 C1747 1.391 . S
C1747 H1735 0.950 . S
C1747 C1743 1.393 . S
C1747 C1746 1.391 . S
H1748 C1756 0.950 . S
H1749 C1761 0.950 . S
H1750 C1758 0.950 . S
H1751 C1760 0.950 . S
H1752 C1762 0.950 . S
H1753 C1764 0.950 . S
H1754 C1766 0.950 . S
H1755 C1767 0.950 . S
C1756 H1748 0.950 . S
C1756 C1757 1.386 . S
C1756 C1758 1.391 . S
C1757 C1756 1.386 . S
C1757 C1761 1.393 . S
C1758 H1750 0.950 . S
C1758 C1756 1.391 . S
C1758 C1759 1.400 . S
C1759 C1758 1.400 . S
C1759 C1760 1.398 . S
C1759 C1765 1.491 . S
C1760 H1751 0.950 . S
C1760 C1759 1.398 . S
C1760 C1761 1.391 . S
C1761 H1749 0.950 . S
C1761 C1757 1.393 . S
C1761 C1760 1.391 . S
C1762 H1752 0.950 . S
C1762 C1763 1.386 . S
C1762 C1764 1.391 . S
C1763 C1762 1.386 . S
C1763 C1767 1.393 . S
C1764 H1753 0.950 . S
C1764 C1762 1.391 . S
C1764 C1765 1.400 . S
C1765 C1759 1.491 . S
C1765 C1764 1.400 . S
C1765 C1766 1.398 . S
C1766 H1754 0.950 . S
C1766 C1765 1.398 . S
C1766 C1767 1.391 . S
C1767 H1755 0.950 . S
C1767 C1763 1.393 . S
C1767 C1766 1.391 . S
H1768 C1776 0.950 . S
H1769 C1781 0.950 . S
H1770 C1778 0.950 . S
H1771 C1780 0.950 . S
H1772 C1782 0.950 . S
H1773 C1784 0.950 . S
H1774 C1786 0.950 . S
H1775 C1787 0.950 . S
C1776 H1768 0.950 . S
C1776 C1777 1.386 . S
C1776 C1778 1.391 . S
C1777 C1776 1.386 . S
C1777 C1781 1.393 . S
C1778 H1770 0.950 . S
C1778 C1776 1.391 . S
C1778 C1779 1.400 . S
C1779 C1778 1.400 . S
C1779 C1780 1.398 . S
C1779 C1785 1.491 . S
C1780 H1771 0.950 . S
C1780 C1779 1.398 . S
C1780 C1781 1.391 . S
C1781 H1769 0.950 . S
C1781 C1777 1.393 . S
C1781 C1780 1.391 . S
C1782 H1772 0.950 . S
C1782 C1783 1.386 . S
C1782 C1784 1.391 . S
C1783 C1782 1.386 . S
C1783 C1787 1.393 . S
C1784 H1773 0.950 . S
C1784 C1782 1.391 . S
C1784 C1785 1.400 . S
C1785 C1779 1.491 . S
C1785 C1784 1.400 . S
C1785 C1786 1.398 . S
C1786 H1774 0.950 . S
C1786 C1785 1.398 . S
C1786 C1787 1.391 . S
C1787 H1775 0.950 . S
C1787 C1783 1.393 . S
C1787 C1786 1.391 . S
H1788 C1796 0.950 . S
H1789 C1801 0.950 . S
H1790 C1798 0.950 . S
H1791 C1800 0.950 . S
H1792 C1802 0.950 . S
H1793 C1804 0.950 . S
H1794 C1806 0.950 . S
H1795 C1807 0.950 . S
C1796 H1788 0.950 . S
C1796 C1797 1.386 . S
C1796 C1798 1.391 . S
C1797 C1796 1.386 . S
C1797 C1801 1.393 . S
C1798 H1790 0.950 . S
C1798 C1796 1.391 . S
C1798 C1799 1.400 . S
C1799 C1798 1.400 . S
C1799 C1800 1.398 . S
C1799 C1805 1.491 . S
C1800 H1791 0.950 . S
C1800 C1799 1.398 . S
C1800 C1801 1.391 . S
C1801 H1789 0.950 . S
C1801 C1797 1.393 . S
C1801 C1800 1.391 . S
C1802 H1792 0.950 . S
C1802 C1803 1.386 . S
C1802 C1804 1.391 . S
C1803 C1802 1.386 . S
C1803 C1807 1.393 . S
C1804 H1793 0.950 . S
C1804 C1802 1.391 . S
C1804 C1805 1.400 . S
C1805 C1799 1.491 . S
C1805 C1804 1.400 . S
C1805 C1806 1.398 . S
C1806 H1794 0.950 . S
C1806 C1805 1.398 . S
C1806 C1807 1.391 . S
C1807 H1795 0.950 . S
C1807 C1803 1.393 . S
C1807 C1806 1.391 . S
H1808 C1816 0.950 . S
H1809 C1821 0.950 . S
H1810 C1818 0.950 . S
H1811 C1820 0.950 . S
H1812 C1822 0.950 . S
H1813 C1824 0.950 . S
H1814 C1826 0.950 . S
H1815 C1827 0.950 . S
C1816 H1808 0.950 . S
C1816 C1817 1.386 . S
C1816 C1818 1.391 . S
C1817 C1816 1.386 . S
C1817 C1821 1.393 . S
C1818 H1810 0.950 . S
C1818 C1816 1.391 . S
C1818 C1819 1.400 . S
C1819 C1818 1.400 . S
C1819 C1820 1.398 . S
C1819 C1825 1.491 . S
C1820 H1811 0.950 . S
C1820 C1819 1.398 . S
C1820 C1821 1.391 . S
C1821 H1809 0.950 . S
C1821 C1817 1.393 . S
C1821 C1820 1.391 . S
C1822 H1812 0.950 . S
C1822 C1823 1.386 . S
C1822 C1824 1.391 . S
C1823 C1822 1.386 . S
C1823 C1827 1.393 . S
C1824 H1813 0.950 . S
C1824 C1822 1.391 . S
C1824 C1825 1.400 . S
C1825 C1819 1.491 . S
C1825 C1824 1.400 . S
C1825 C1826 1.398 . S
C1826 H1814 0.950 . S
C1826 C1825 1.398 . S
C1826 C1827 1.391 . S
C1827 H1815 0.950 . S
C1827 C1823 1.393 . S
C1827 C1826 1.391 . S
H1828 C1836 0.950 . S
H1829 C1841 0.950 . S
H1830 C1838 0.950 . S
H1831 C1840 0.950 . S
H1832 C1842 0.950 . S
H1833 C1844 0.950 . S
H1834 C1846 0.950 . S
H1835 C1847 0.950 . S
C1836 H1828 0.950 . S
C1836 C1837 1.386 . S
C1836 C1838 1.391 . S
C1837 C1836 1.386 . S
C1837 C1841 1.393 . S
C1838 H1830 0.950 . S
C1838 C1836 1.391 . S
C1838 C1839 1.400 . S
C1839 C1838 1.400 . S
C1839 C1840 1.398 . S
C1839 C1845 1.491 . S
C1840 H1831 0.950 . S
C1840 C1839 1.398 . S
C1840 C1841 1.391 . S
C1841 H1829 0.950 . S
C1841 C1837 1.393 . S
C1841 C1840 1.391 . S
C1842 H1832 0.950 . S
C1842 C1843 1.386 . S
C1842 C1844 1.391 . S
C1843 C1842 1.386 . S
C1843 C1847 1.393 . S
C1844 H1833 0.950 . S
C1844 C1842 1.391 . S
C1844 C1845 1.400 . S
C1845 C1839 1.491 . S
C1845 C1844 1.400 . S
C1845 C1846 1.398 . S
C1846 H1834 0.950 . S
C1846 C1845 1.398 . S
C1846 C1847 1.391 . S
C1847 H1835 0.950 . S
C1847 C1843 1.393 . S
C1847 C1846 1.391 . S
H1848 C1856 0.950 . S
H1849 C1861 0.950 . S
H1850 C1858 0.950 . S
H1851 C1860 0.950 . S
H1852 C1862 0.950 . S
H1853 C1864 0.950 . S
H1854 C1866 0.950 . S
H1855 C1867 0.950 . S
C1856 H1848 0.950 . S
C1856 C1857 1.386 . S
C1856 C1858 1.391 . S
C1857 C1856 1.386 . S
C1857 C1861 1.393 . S
C1858 H1850 0.950 . S
C1858 C1856 1.391 . S
C1858 C1859 1.400 . S
C1859 C1858 1.400 . S
C1859 C1860 1.398 . S
C1859 C1865 1.491 . S
C1860 H1851 0.950 . S
C1860 C1859 1.398 . S
C1860 C1861 1.391 . S
C1861 H1849 0.950 . S
C1861 C1857 1.393 . S
C1861 C1860 1.391 . S
C1862 H1852 0.950 . S
C1862 C1863 1.386 . S
C1862 C1864 1.391 . S
C1863 C1862 1.386 . S
C1863 C1867 1.393 . S
C1864 H1853 0.950 . S
C1864 C1862 1.391 . S
C1864 C1865 1.400 . S
C1865 C1859 1.491 . S
C1865 C1864 1.400 . S
C1865 C1866 1.398 . S
C1866 H1854 0.950 . S
C1866 C1865 1.398 . S
C1866 C1867 1.391 . S
C1867 H1855 0.950 . S
C1867 C1863 1.393 . S
C1867 C1866 1.391 . S
H1868 C1876 0.950 . S
H1869 C1881 0.950 . S
H1870 C1878 0.950 . S
H1871 C1880 0.950 . S
H1872 C1882 0.950 . S
H1873 C1884 0.950 . S
H1874 C1886 0.950 . S
H1875 C1887 0.950 . S
C1876 H1868 0.950 . S
C1876 C1877 1.386 . S
C1876 C1878 1.391 . S
C1877 C1876 1.386 . S
C1877 C1881 1.393 . S
C1878 H1870 0.950 . S
C1878 C1876 1.391 . S
C1878 C1879 1.400 . S
C1879 C1878 1.400 . S
C1879 C1880 1.398 . S
C1879 C1885 1.491 . S
C1880 H1871 0.950 . S
C1880 C1879 1.398 . S
C1880 C1881 1.391 . S
C1881 H1869 0.950 . S
C1881 C1877 1.393 . S
C1881 C1880 1.391 . S
C1882 H1872 0.950 . S
C1882 C1883 1.386 . S
C1882 C1884 1.391 . S
C1883 C1882 1.386 . S
C1883 C1887 1.393 . S
C1884 H1873 0.950 . S
C1884 C1882 1.391 . S
C1884 C1885 1.400 . S
C1885 C1879 1.491 . S
C1885 C1884 1.400 . S
C1885 C1886 1.398 . S
C1886 H1874 0.950 . S
C1886 C1885 1.398 . S
C1886 C1887 1.391 . S
C1887 H1875 0.950 . S
C1887 C1883 1.393 . S
C1887 C1886 1.391 . S
H1888 C1896 0.950 . S
H1889 C1901 0.950 . S
H1890 C1898 0.950 . S
H1891 C1900 0.950 . S
H1892 C1902 0.950 . S
H1893 C1904 0.950 . S
H1894 C1906 0.950 . S
H1895 C1907 0.950 . S
C1896 H1888 0.950 . S
C1896 C1897 1.386 . S
C1896 C1898 1.391 . S
C1897 C1896 1.386 . S
C1897 C1901 1.393 . S
C1898 H1890 0.950 . S
C1898 C1896 1.391 . S
C1898 C1899 1.400 . S
C1899 C1898 1.400 . S
C1899 C1900 1.398 . S
C1899 C1905 1.491 . S
C1900 H1891 0.950 . S
C1900 C1899 1.398 . S
C1900 C1901 1.391 . S
C1901 H1889 0.950 . S
C1901 C1897 1.393 . S
C1901 C1900 1.391 . S
C1902 H1892 0.950 . S
C1902 C1903 1.386 . S
C1902 C1904 1.391 . S
C1903 C1902 1.386 . S
C1903 C1907 1.393 . S
C1904 H1893 0.950 . S
C1904 C1902 1.391 . S
C1904 C1905 1.400 . S
C1905 C1899 1.491 . S
C1905 C1904 1.400 . S
C1905 C1906 1.398 . S
C1906 H1894 0.950 . S
C1906 C1905 1.398 . S
C1906 C1907 1.391 . S
C1907 H1895 0.950 . S
C1907 C1903 1.393 . S
C1907 C1906 1.391 . S
H1908 C1916 0.950 . S
H1909 C1921 0.950 . S
H1910 C1918 0.950 . S
H1911 C1920 0.950 . S
H1912 C1922 0.950 . S
H1913 C1924 0.950 . S
H1914 C1926 0.950 . S
H1915 C1927 0.950 . S
C1916 H1908 0.950 . S
C1916 C1917 1.386 . S
C1916 C1918 1.391 . S
C1917 C1916 1.386 . S
C1917 C1921 1.393 . S
C1918 H1910 0.950 . S
C1918 C1916 1.391 . S
C1918 C1919 1.400 . S
C1919 C1918 1.400 . S
C1919 C1920 1.398 . S
C1919 C1925 1.491 . S
C1920 H1911 0.950 . S
C1920 C1919 1.398 . S
C1920 C1921 1.391 . S
C1921 H1909 0.950 . S
C1921 C1917 1.393 . S
C1921 C1920 1.391 . S
C1922 H1912 0.950 . S
C1922 C1923 1.386 . S
C1922 C1924 1.391 . S
C1923 C1922 1.386 . S
C1923 C1927 1.393 . S
C1924 H1913 0.950 . S
C1924 C1922 1.391 . S
C1924 C1925 1.400 . S
C1925 C1919 1.491 . S
C1925 C1924 1.400 . S
C1925 C1926 1.398 . S
C1926 H1914 0.950 . S
C1926 C1925 1.398 . S
C1926 C1927 1.391 . S
C1927 H1915 0.950 . S
C1927 C1923 1.393 . S
C1927 C1926 1.391 . S
H1928 C1936 0.950 . S
H1929 C1941 0.950 . S
H1930 C1938 0.950 . S
H1931 C1940 0.950 . S
H1932 C1942 0.950 . S
H1933 C1944 0.950 . S
H1934 C1946 0.950 . S
H1935 C1947 0.950 . S
C1936 H1928 0.950 . S
C1936 C1937 1.386 . S
C1936 C1938 1.391 . S
C1937 C1936 1.386 . S
C1937 C1941 1.393 . S
C1938 H1930 0.950 . S
C1938 C1936 1.391 . S
C1938 C1939 1.400 . S
C1939 C1938 1.400 . S
C1939 C1940 1.398 . S
C1939 C1945 1.491 . S
C1940 H1931 0.950 . S
C1940 C1939 1.398 . S
C1940 C1941 1.391 . S
C1941 H1929 0.950 . S
C1941 C1937 1.393 . S
C1941 C1940 1.391 . S
C1942 H1932 0.950 . S
C1942 C1943 1.386 . S
C1942 C1944 1.391 . S
C1943 C1942 1.386 . S
C1943 C1947 1.393 . S
C1944 H1933 0.950 . S
C1944 C1942 1.391 . S
C1944 C1945 1.400 . S
C1945 C1939 1.491 . S
C1945 C1944 1.400 . S
C1945 C1946 1.398 . S
C1946 H1934 0.950 . S
C1946 C1945 1.398 . S
C1946 C1947 1.391 . S
C1947 H1935 0.950 . S
C1947 C1943 1.393 . S
C1947 C1946 1.391 . S
H1948 C1956 0.950 . S
H1949 C1961 0.950 . S
H1950 C1958 0.950 . S
H1951 C1960 0.950 . S
H1952 C1962 0.950 . S
H1953 C1964 0.950 . S
H1954 C1966 0.950 . S
H1955 C1967 0.950 . S
C1956 H1948 0.950 . S
C1956 C1957 1.386 . S
C1956 C1958 1.391 . S
C1957 C1956 1.386 . S
C1957 C1961 1.393 . S
C1958 H1950 0.950 . S
C1958 C1956 1.391 . S
C1958 C1959 1.400 . S
C1959 C1958 1.400 . S
C1959 C1960 1.398 . S
C1959 C1965 1.491 . S
C1960 H1951 0.950 . S
C1960 C1959 1.398 . S
C1960 C1961 1.391 . S
C1961 H1949 0.950 . S
C1961 C1957 1.393 . S
C1961 C1960 1.391 . S
C1962 H1952 0.950 . S
C1962 C1963 1.386 . S
C1962 C1964 1.391 . S
C1963 C1962 1.386 . S
C1963 C1967 1.393 . S
C1964 H1953 0.950 . S
C1964 C1962 1.391 . S
C1964 C1965 1.400 . S
C1965 C1959 1.491 . S
C1965 C1964 1.400 . S
C1965 C1966 1.398 . S
C1966 H1954 0.950 . S
C1966 C1965 1.398 . S
C1966 C1967 1.391 . S
C1967 H1955 0.950 . S
C1967 C1963 1.393 . S
C1967 C1966 1.391 . S
H1968 C1976 0.950 . S
H1969 C1981 0.950 . S
H1970 C1978 0.950 . S
H1971 C1980 0.950 . S
H1972 C1982 0.950 . S
H1973 C1984 0.950 . S
H1974 C1986 0.950 . S
H1975 C1987 0.950 . S
C1976 H1968 0.950 . S
C1976 C1977 1.386 . S
C1976 C1978 1.391 . S
C1977 C1976 1.386 . S
C1977 C1981 1.393 . S
C1978 H1970 0.950 . S
C1978 C1976 1.391 . S
C1978 C1979 1.400 . S
C1979 C1978 1.400 . S
C1979 C1980 1.398 . S
C1979 C1985 1.491 . S
C1980 H1971 0.950 . S
C1980 C1979 1.398 . S
C1980 C1981 1.391 . S
C1981 H1969 0.950 . S
C1981 C1977 1.393 . S
C1981 C1980 1.391 . S
C1982 H1972 0.950 . S
C1982 C1983 1.386 . S
C1982 C1984 1.391 . S
C1983 C1982 1.386 . S
C1983 C1987 1.393 . S
C1984 H1973 0.950 . S
C1984 C1982 1.391 . S
C1984 C1985 1.400 . S
C1985 C1979 1.491 . S
C1985 C1984 1.400 . S
C1985 C1986 1.398 . S
C1986 H1974 0.950 . S
C1986 C1985 1.398 . S
C1986 C1987 1.391 . S
C1987 H1975 0.950 . S
C1987 C1983 1.393 . S
C1987 C1986 1.391 . S
H1988 C1996 0.950 . S
H1989 C2001 0.950 . S
H1990 C1998 0.950 . S
H1991 C2000 0.950 . S
H1992 C2002 0.950 . S
H1993 C2004 0.950 . S
H1994 C2006 0.950 . S
H1995 C2007 0.950 . S
C1996 H1988 0.950 . S
C1996 C1997 1.386 . S
C1996 C1998 1.391 . S
C1997 C1996 1.386 . S
C1997 C2001 1.393 . S
C1998 H1990 0.950 . S
C1998 C1996 1.391 . S
C1998 C1999 1.400 . S
C1999 C1998 1.400 . S
C1999 C2000 1.398 . S
C1999 C2005 1.491 . S
C2000 H1991 0.950 . S
C2000 C1999 1.398 . S
C2000 C2001 1.391 . S
C2001 H1989 0.950 . S
C2001 C1997 1.393 . S
C2001 C2000 1.391 . S
C2002 H1992 0.950 . S
C2002 C2003 1.386 . S
C2002 C2004 1.391 . S
C2003 C2002 1.386 . S
C2003 C2007 1.393 . S
C2004 H1993 0.950 . S
C2004 C2002 1.391 . S
C2004 C2005 1.400 . S
C2005 C1999 1.491 . S
C2005 C2004 1.400 . S
C2005 C2006 1.398 . S
C2006 H1994 0.950 . S
C2006 C2005 1.398 . S
C2006 C2007 1.391 . S
C2007 H1995 0.950 . S
C2007 C2003 1.393 . S
C2007 C2006 1.391 . S
H2008 C2016 0.950 . S
H2009 C2021 0.950 . S
H2010 C2018 0.950 . S
H2011 C2020 0.950 . S
H2012 C2022 0.950 . S
H2013 C2024 0.950 . S
H2014 C2026 0.950 . S
H2015 C2027 0.950 . S
C2016 H2008 0.950 . S
C2016 C2017 1.386 . S
C2016 C2018 1.391 . S
C2017 C2016 1.386 . S
C2017 C2021 1.393 . S
C2018 H2010 0.950 . S
C2018 C2016 1.391 . S
C2018 C2019 1.400 . S
C2019 C2018 1.400 . S
C2019 C2020 1.398 . S
C2019 C2025 1.491 . S
C2020 H2011 0.950 . S
C2020 C2019 1.398 . S
C2020 C2021 1.391 . S
C2021 H2009 0.950 . S
C2021 C2017 1.393 . S
C2021 C2020 1.391 . S
C2022 H2012 0.950 . S
C2022 C2023 1.386 . S
C2022 C2024 1.391 . S
C2023 C2022 1.386 . S
C2023 C2027 1.393 . S
C2024 H2013 0.950 . S
C2024 C2022 1.391 . S
C2024 C2025 1.400 . S
C2025 C2019 1.491 . S
C2025 C2024 1.400 . S
C2025 C2026 1.398 . S
C2026 H2014 0.950 . S
C2026 C2025 1.398 . S
C2026 C2027 1.391 . S
C2027 H2015 0.950 . S
C2027 C2023 1.393 . S
C2027 C2026 1.391 . S
H2028 C2036 0.950 . S
H2029 C2041 0.950 . S
H2030 C2038 0.950 . S
H2031 C2040 0.950 . S
H2032 C2042 0.950 . S
H2033 C2044 0.950 . S
H2034 C2046 0.950 . S
H2035 C2047 0.950 . S
C2036 H2028 0.950 . S
C2036 C2037 1.386 . S
C2036 C2038 1.391 . S
C2037 C2036 1.386 . S
C2037 C2041 1.393 . S
C2038 H2030 0.950 . S
C2038 C2036 1.391 . S
C2038 C2039 1.400 . S
C2039 C2038 1.400 . S
C2039 C2040 1.398 . S
C2039 C2045 1.491 . S
C2040 H2031 0.950 . S
C2040 C2039 1.398 . S
C2040 C2041 1.391 . S
C2041 H2029 0.950 . S
C2041 C2037 1.393 . S
C2041 C2040 1.391 . S
C2042 H2032 0.950 . S
C2042 C2043 1.386 . S
C2042 C2044 1.391 . S
C2043 C2042 1.386 . S
C2043 C2047 1.393 . S
C2044 H2033 0.950 . S
C2044 C2042 1.391 . S
C2044 C2045 1.400 . S
C2045 C2039 1.491 . S
C2045 C2044 1.400 . S
C2045 C2046 1.398 . S
C2046 H2034 0.950 . S
C2046 C2045 1.398 . S
C2046 C2047 1.391 . S
C2047 H2035 0.950 . S
C2047 C2043 1.393 . S
C2047 C2046 1.391 . S
H2048 C2056 0.950 . S
H2049 C2061 0.950 . S
H2050 C2058 0.950 . S
H2051 C2060 0.950 . S
H2052 C2062 0.950 . S
H2053 C2064 0.950 . S
H2054 C2066 0.950 . S
H2055 C2067 0.950 . S
C2056 H2048 0.950 . S
C2056 C2057 1.386 . S
C2056 C2058 1.391 . S
C2057 C2056 1.386 . S
C2057 C2061 1.393 . S
C2058 H2050 0.950 . S
C2058 C2056 1.391 . S
C2058 C2059 1.400 . S
C2059 C2058 1.400 . S
C2059 C2060 1.398 . S
C2059 C2065 1.491 . S
C2060 H2051 0.950 . S
C2060 C2059 1.398 . S
C2060 C2061 1.391 . S
C2061 H2049 0.950 . S
C2061 C2057 1.393 . S
C2061 C2060 1.391 . S
C2062 H2052 0.950 . S
C2062 C2063 1.386 . S
C2062 C2064 1.391 . S
C2063 C2062 1.386 . S
C2063 C2067 1.393 . S
C2064 H2053 0.950 . S
C2064 C2062 1.391 . S
C2064 C2065 1.400 . S
C2065 C2059 1.491 . S
C2065 C2064 1.400 . S
C2065 C2066 1.398 . S
C2066 H2054 0.950 . S
C2066 C2065 1.398 . S
C2066 C2067 1.391 . S
C2067 H2055 0.950 . S
C2067 C2063 1.393 . S
C2067 C2066 1.391 . S
H2068 C2076 0.950 . S
H2069 C2081 0.950 . S
H2070 C2078 0.950 . S
H2071 C2080 0.950 . S
H2072 C2082 0.950 . S
H2073 C2084 0.950 . S
H2074 C2086 0.950 . S
H2075 C2087 0.950 . S
C2076 H2068 0.950 . S
C2076 C2077 1.386 . S
C2076 C2078 1.391 . S
C2077 C2076 1.386 . S
C2077 C2081 1.393 . S
C2078 H2070 0.950 . S
C2078 C2076 1.391 . S
C2078 C2079 1.400 . S
C2079 C2078 1.400 . S
C2079 C2080 1.398 . S
C2079 C2085 1.491 . S
C2080 H2071 0.950 . S
C2080 C2079 1.398 . S
C2080 C2081 1.391 . S
C2081 H2069 0.950 . S
C2081 C2077 1.393 . S
C2081 C2080 1.391 . S
C2082 H2072 0.950 . S
C2082 C2083 1.386 . S
C2082 C2084 1.391 . S
C2083 C2082 1.386 . S
C2083 C2087 1.393 . S
C2084 H2073 0.950 . S
C2084 C2082 1.391 . S
C2084 C2085 1.400 . S
C2085 C2079 1.491 . S
C2085 C2084 1.400 . S
C2085 C2086 1.398 . S
C2086 H2074 0.950 . S
C2086 C2085 1.398 . S
C2086 C2087 1.391 . S
C2087 H2075 0.950 . S
C2087 C2083 1.393 . S
C2087 C2086 1.391 . S
H2088 C2096 0.950 . S
H2089 C2101 0.950 . S
H2090 C2098 0.950 . S
H2091 C2100 0.950 . S
H2092 C2102 0.950 . S
H2093 C2104 0.950 . S
H2094 C2106 0.950 . S
H2095 C2107 0.950 . S
C2096 H2088 0.950 . S
C2096 C2097 1.386 . S
C2096 C2098 1.391 . S
C2097 C2096 1.386 . S
C2097 C2101 1.393 . S
C2098 H2090 0.950 . S
C2098 C2096 1.391 . S
C2098 C2099 1.400 . S
C2099 C2098 1.400 . S
C2099 C2100 1.398 . S
C2099 C2105 1.491 . S
C2100 H2091 0.950 . S
C2100 C2099 1.398 . S
C2100 C2101 1.391 . S
C2101 H2089 0.950 . S
C2101 C2097 1.393 . S
C2101 C2100 1.391 . S
C2102 H2092 0.950 . S
C2102 C2103 1.386 . S
C2102 C2104 1.391 . S
C2103 C2102 1.386 . S
C2103 C2107 1.393 . S
C2104 H2093 0.950 . S
C2104 C2102 1.391 . S
C2104 C2105 1.400 . S
C2105 C2099 1.491 . S
C2105 C2104 1.400 . S
C2105 C2106 1.398 . S
C2106 H2094 0.950 . S
C2106 C2105 1.398 . S
C2106 C2107 1.391 . S
C2107 H2095 0.950 . S
C2107 C2103 1.393 . S
C2107 C2106 1.391 . S
H2108 C2116 0.950 . S
H2109 C2121 0.950 . S
H2110 C2118 0.950 . S
H2111 C2120 0.950 . S
H2112 C2122 0.950 . S
H2113 C2124 0.950 . S
H2114 C2126 0.950 . S
H2115 C2127 0.950 . S
C2116 H2108 0.950 . S
C2116 C2117 1.386 . S
C2116 C2118 1.391 . S
C2117 C2116 1.386 . S
C2117 C2121 1.393 . S
C2118 H2110 0.950 . S
C2118 C2116 1.391 . S
C2118 C2119 1.400 . S
C2119 C2118 1.400 . S
C2119 C2120 1.398 . S
C2119 C2125 1.491 . S
C2120 H2111 0.950 . S
C2120 C2119 1.398 . S
C2120 C2121 1.391 . S
C2121 H2109 0.950 . S
C2121 C2117 1.393 . S
C2121 C2120 1.391 . S
C2122 H2112 0.950 . S
C2122 C2123 1.386 . S
C2122 C2124 1.391 . S
C2123 C2122 1.386 . S
C2123 C2127 1.393 . S
C2124 H2113 0.950 . S
C2124 C2122 1.391 . S
C2124 C2125 1.400 . S
C2125 C2119 1.491 . S
C2125 C2124 1.400 . S
C2125 C2126 1.398 . S
C2126 H2114 0.950 . S
C2126 C2125 1.398 . S
C2126 C2127 1.391 . S
C2127 H2115 0.950 . S
C2127 C2123 1.393 . S
C2127 C2126 1.391 . S
H2128 C2136 0.950 . S
H2129 C2141 0.950 . S
H2130 C2138 0.950 . S
H2131 C2140 0.950 . S
H2132 C2142 0.950 . S
H2133 C2144 0.950 . S
H2134 C2146 0.950 . S
H2135 C2147 0.950 . S
C2136 H2128 0.950 . S
C2136 C2137 1.386 . S
C2136 C2138 1.391 . S
C2137 C2136 1.386 . S
C2137 C2141 1.393 . S
C2138 H2130 0.950 . S
C2138 C2136 1.391 . S
C2138 C2139 1.400 . S
C2139 C2138 1.400 . S
C2139 C2140 1.398 . S
C2139 C2145 1.491 . S
C2140 H2131 0.950 . S
C2140 C2139 1.398 . S
C2140 C2141 1.391 . S
C2141 H2129 0.950 . S
C2141 C2137 1.393 . S
C2141 C2140 1.391 . S
C2142 H2132 0.950 . S
C2142 C2143 1.386 . S
C2142 C2144 1.391 . S
C2143 C2142 1.386 . S
C2143 C2147 1.393 . S
C2144 H2133 0.950 . S
C2144 C2142 1.391 . S
C2144 C2145 1.400 . S
C2145 C2139 1.491 . S
C2145 C2144 1.400 . S
C2145 C2146 1.398 . S
C2146 H2134 0.950 . S
C2146 C2145 1.398 . S
C2146 C2147 1.391 . S
C2147 H2135 0.950 . S
C2147 C2143 1.393 . S
C2147 C2146 1.391 . S
H2148 C2156 0.950 . S
H2149 C2161 0.950 . S
H2150 C2158 0.950 . S
H2151 C2160 0.950 . S
H2152 C2162 0.950 . S
H2153 C2164 0.950 . S
H2154 C2166 0.950 . S
H2155 C2167 0.950 . S
C2156 H2148 0.950 . S
C2156 C2157 1.386 . S
C2156 C2158 1.391 . S
C2157 C2156 1.386 . S
C2157 C2161 1.393 . S
C2158 H2150 0.950 . S
C2158 C2156 1.391 . S
C2158 C2159 1.400 . S
C2159 C2158 1.400 . S
C2159 C2160 1.398 . S
C2159 C2165 1.491 . S
C2160 H2151 0.950 . S
C2160 C2159 1.398 . S
C2160 C2161 1.391 . S
C2161 H2149 0.950 . S
C2161 C2157 1.393 . S
C2161 C2160 1.391 . S
C2162 H2152 0.950 . S
C2162 C2163 1.386 . S
C2162 C2164 1.391 . S
C2163 C2162 1.386 . S
C2163 C2167 1.393 . S
C2164 H2153 0.950 . S
C2164 C2162 1.391 . S
C2164 C2165 1.400 . S
C2165 C2159 1.491 . S
C2165 C2164 1.400 . S
C2165 C2166 1.398 . S
C2166 H2154 0.950 . S
C2166 C2165 1.398 . S
C2166 C2167 1.391 . S
C2167 H2155 0.950 . S
C2167 C2163 1.393 . S
C2167 C2166 1.391 . S
H2168 C2176 0.950 . S
H2169 C2181 0.950 . S
H2170 C2178 0.950 . S
H2171 C2180 0.950 . S
H2172 C2182 0.950 . S
H2173 C2184 0.950 . S
H2174 C2186 0.950 . S
H2175 C2187 0.950 . S
C2176 H2168 0.950 . S
C2176 C2177 1.386 . S
C2176 C2178 1.391 . S
C2177 C2176 1.386 . S
C2177 C2181 1.393 . S
C2178 H2170 0.950 . S
C2178 C2176 1.391 . S
C2178 C2179 1.400 . S
C2179 C2178 1.400 . S
C2179 C2180 1.398 . S
C2179 C2185 1.491 . S
C2180 H2171 0.950 . S
C2180 C2179 1.398 . S
C2180 C2181 1.391 . S
C2181 H2169 0.950 . S
C2181 C2177 1.393 . S
C2181 C2180 1.391 . S
C2182 H2172 0.950 . S
C2182 C2183 1.386 . S
C2182 C2184 1.391 . S
C2183 C2182 1.386 . S
C2183 C2187 1.393 . S
C2184 H2173 0.950 . S
C2184 C2182 1.391 . S
C2184 C2185 1.400 . S
C2185 C2179 1.491 . S
C2185 C2184 1.400 . S
C2185 C2186 1.398 . S
C2186 H2174 0.950 . S
C2186 C2185 1.398 . S
C2186 C2187 1.391 . S
C2187 H2175 0.950 . S
C2187 C2183 1.393 . S
C2187 C2186 1.391 . S
H2188 C2196 0.950 . S
H2189 C2201 0.950 . S
H2190 C2198 0.950 . S
H2191 C2200 0.950 . S
H2192 C2202 0.950 . S
H2193 C2204 0.950 . S
H2194 C2206 0.950 . S
H2195 C2207 0.950 . S
C2196 H2188 0.950 . S
C2196 C2197 1.386 . S
C2196 C2198 1.391 . S
C2197 C2196 1.386 . S
C2197 C2201 1.393 . S
C2198 H2190 0.950 . S
C2198 C2196 1.391 . S
C2198 C2199 1.400 . S
C2199 C2198 1.400 . S
C2199 C2200 1.398 . S
C2199 C2205 1.491 . S
C2200 H2191 0.950 . S
C2200 C2199 1.398 . S
C2200 C2201 1.391 . S
C2201 H2189 0.950 . S
C2201 C2197 1.393 . S
C2201 C2200 1.391 . S
C2202 H2192 0.950 . S
C2202 C2203 1.386 . S
C2202 C2204 1.391 . S
C2203 C2202 1.386 . S
C2203 C2207 1.393 . S
C2204 H2193 0.950 . S
C2204 C2202 1.391 . S
C2204 C2205 1.400 . S
C2205 C2199 1.491 . S
C2205 C2204 1.400 . S
C2205 C2206 1.398 . S
C2206 H2194 0.950 . S
C2206 C2205 1.398 . S
C2206 C2207 1.391 . S
C2207 H2195 0.950 . S
C2207 C2203 1.393 . S
C2207 C2206 1.391 . S
H2208 C2216 0.950 . S
H2209 C2221 0.950 . S
H2210 C2218 0.950 . S
H2211 C2220 0.950 . S
H2212 C2222 0.950 . S
H2213 C2224 0.950 . S
H2214 C2226 0.950 . S
H2215 C2227 0.950 . S
C2216 H2208 0.950 . S
C2216 C2217 1.386 . S
C2216 C2218 1.391 . S
C2217 C2216 1.386 . S
C2217 C2221 1.393 1_655 S
C2218 H2210 0.950 . S
C2218 C2216 1.391 . S
C2218 C2219 1.400 . S
C2219 C2218 1.400 . S
C2219 C2220 1.398 1_655 S
C2219 C2225 1.491 1_655 S
C2220 H2211 0.950 . S
C2220 C2219 1.398 1_455 S
C2220 C2221 1.391 . S
C2221 H2209 0.950 . S
C2221 C2217 1.393 1_455 S
C2221 C2220 1.391 . S
C2222 H2212 0.950 . S
C2222 C2223 1.386 . S
C2222 C2224 1.391 . S
C2223 C2222 1.386 . S
C2223 C2227 1.393 1_455 S
C2224 H2213 0.950 . S
C2224 C2222 1.391 . S
C2224 C2225 1.400 . S
C2225 C2219 1.491 1_455 S
C2225 C2224 1.400 . S
C2225 C2226 1.398 1_455 S
C2226 H2214 0.950 . S
C2226 C2225 1.398 1_655 S
C2226 C2227 1.391 . S
C2227 H2215 0.950 . S
C2227 C2223 1.393 1_655 S
C2227 C2226 1.391 . S
H2228 C2236 0.961 . S
H2229 C2241 0.950 . S
H2230 C2238 0.950 . S
H2231 C2240 0.950 . S
H2232 C2242 0.961 . S
H2233 C2244 0.950 . S
H2234 C2246 0.950 . S
H2235 C2247 0.950 . S
C2236 H2228 0.961 . S
C2236 C2237 1.368 1_545 S
C2236 C2238 1.398 . S
C2237 C2236 1.368 1_565 S
C2237 C2241 1.393 . S
C2238 H2230 0.950 . S
C2238 C2236 1.398 . S
C2238 C2239 1.400 1_545 S
C2239 C2238 1.400 1_565 S
C2239 C2240 1.398 . S
C2239 C2245 1.491 1_565 S
C2240 H2231 0.950 . S
C2240 C2239 1.398 . S
C2240 C2241 1.391 . S
C2241 H2229 0.950 . S
C2241 C2237 1.393 . S
C2241 C2240 1.391 . S
C2242 H2232 0.961 . S
C2242 C2243 1.368 1_565 S
C2242 C2244 1.398 . S
C2243 C2242 1.368 1_545 S
C2243 C2247 1.393 . S
C2244 H2233 0.950 . S
C2244 C2242 1.398 . S
C2244 C2245 1.400 1_565 S
C2245 C2239 1.491 1_545 S
C2245 C2244 1.400 1_545 S
C2245 C2246 1.398 . S
C2246 H2234 0.950 . S
C2246 C2245 1.398 . S
C2246 C2247 1.391 . S
C2247 H2235 0.950 . S
C2247 C2243 1.393 . S
C2247 C2246 1.391 . S
H2248 C2256 0.950 . S
H2249 C2261 0.947 1_455 S
H2250 C2258 0.950 . S
H2251 C2260 0.950 . S
H2252 C2262 0.950 . S
H2253 C2264 0.950 . S
H2254 C2266 0.950 . S
H2255 C2267 0.947 1_655 S
C2256 H2248 0.950 . S
C2256 C2257 1.386 . S
C2256 C2258 1.391 . S
C2257 C2256 1.386 . S
C2257 C2261 1.398 . S
C2258 H2250 0.950 . S
C2258 C2256 1.391 . S
C2258 C2259 1.400 . S
C2259 C2258 1.400 . S
C2259 C2260 1.398 1_655 S
C2259 C2265 1.491 1_655 S
C2260 H2251 0.950 . S
C2260 C2259 1.398 1_455 S
C2260 C2261 1.389 1_455 S
C2261 H2249 0.947 1_655 S
C2261 C2257 1.398 . S
C2261 C2260 1.389 1_655 S
C2262 H2252 0.950 . S
C2262 C2263 1.386 . S
C2262 C2264 1.391 . S
C2263 C2262 1.386 . S
C2263 C2267 1.398 . S
C2264 H2253 0.950 . S
C2264 C2262 1.391 . S
C2264 C2265 1.400 . S
C2265 C2259 1.491 1_455 S
C2265 C2264 1.400 . S
C2265 C2266 1.398 1_455 S
C2266 H2254 0.950 . S
C2266 C2265 1.398 1_655 S
C2266 C2267 1.389 1_655 S
C2267 H2255 0.947 1_455 S
C2267 C2263 1.398 . S
C2267 C2266 1.389 1_455 S
H2268 C2276 0.950 . S
H2269 C2281 0.945 1_565 S
H2270 C2278 0.950 . S
H2271 C2280 0.950 . S
H2272 C2282 0.950 . S
H2273 C2284 0.950 . S
H2274 C2286 0.950 . S
H2275 C2287 0.945 1_545 S
C2276 H2268 0.950 . S
C2276 C2277 1.386 . S
C2276 C2278 1.391 . S
C2277 C2276 1.386 . S
C2277 C2281 1.401 . S
C2278 H2270 0.950 . S
C2278 C2276 1.391 . S
C2278 C2279 1.400 . S
C2279 C2278 1.400 . S
C2279 C2280 1.398 1_545 S
C2279 C2285 1.491 1_545 S
C2280 H2271 0.950 . S
C2280 C2279 1.398 1_565 S
C2280 C2281 1.387 1_565 S
C2281 H2269 0.945 1_545 S
C2281 C2277 1.401 . S
C2281 C2280 1.387 1_545 S
C2282 H2272 0.950 . S
C2282 C2283 1.386 . S
C2282 C2284 1.391 . S
C2283 C2282 1.386 . S
C2283 C2287 1.401 . S
C2284 H2273 0.950 . S
C2284 C2282 1.391 . S
C2284 C2285 1.400 . S
C2285 C2279 1.491 1_565 S
C2285 C2284 1.400 . S
C2285 C2286 1.398 1_565 S
C2286 H2274 0.950 . S
C2286 C2285 1.398 1_545 S
C2286 C2287 1.387 1_545 S
C2287 H2275 0.945 1_565 S
C2287 C2283 1.401 . S
C2287 C2286 1.387 1_565 S
H2288 C2296 0.950 . S
H2289 C2301 0.950 . S
H2290 C2298 0.950 . S
H2291 C2300 0.950 . S
H2292 C2302 0.950 . S
H2293 C2304 0.950 . S
H2294 C2306 0.950 . S
H2295 C2307 0.950 . S
C2296 H2288 0.950 . S
C2296 C2297 1.386 . S
C2296 C2298 1.391 . S
C2297 C2296 1.386 . S
C2297 C2301 1.393 . S
C2298 H2290 0.950 . S
C2298 C2296 1.391 . S
C2298 C2299 1.400 . S
C2299 C2298 1.400 . S
C2299 C2300 1.398 . S
C2299 C2305 1.491 1_455 S
C2300 H2291 0.950 . S
C2300 C2299 1.398 . S
C2300 C2301 1.391 . S
C2301 H2289 0.950 . S
C2301 C2297 1.393 . S
C2301 C2300 1.391 . S
C2302 H2292 0.950 . S
C2302 C2303 1.386 . S
C2302 C2304 1.391 . S
C2303 C2302 1.386 . S
C2303 C2307 1.393 . S
C2304 H2293 0.950 . S
C2304 C2302 1.391 . S
C2304 C2305 1.400 . S
C2305 C2299 1.491 1_655 S
C2305 C2304 1.400 . S
C2305 C2306 1.398 . S
C2306 H2294 0.950 . S
C2306 C2305 1.398 . S
C2306 C2307 1.391 . S
C2307 H2295 0.950 . S
C2307 C2303 1.393 . S
C2307 C2306 1.391 . S
H2308 C2316 0.950 . S
H2309 C2321 0.950 . S
H2310 C2318 0.950 . S
H2311 C2320 0.950 . S
H2312 C2322 0.950 . S
H2313 C2324 0.950 . S
H2314 C2326 0.950 . S
H2315 C2327 0.950 . S
C2316 H2308 0.950 . S
C2316 C2317 1.386 1_545 S
C2316 C2318 1.391 . S
C2317 C2316 1.386 1_565 S
C2317 C2321 1.393 . S
C2318 H2310 0.950 . S
C2318 C2316 1.391 . S
C2318 C2319 1.400 1_545 S
C2319 C2318 1.400 1_565 S
C2319 C2320 1.398 . S
C2319 C2325 1.491 1_565 S
C2320 H2311 0.950 . S
C2320 C2319 1.398 . S
C2320 C2321 1.391 . S
C2321 H2309 0.950 . S
C2321 C2317 1.393 . S
C2321 C2320 1.391 . S
C2322 H2312 0.950 . S
C2322 C2323 1.386 1_565 S
C2322 C2324 1.391 . S
C2323 C2322 1.386 1_545 S
C2323 C2327 1.393 . S
C2324 H2313 0.950 . S
C2324 C2322 1.391 . S
C2324 C2325 1.400 1_565 S
C2325 C2319 1.491 1_545 S
C2325 C2324 1.400 1_545 S
C2325 C2326 1.398 . S
C2326 H2314 0.950 . S
C2326 C2325 1.398 . S
C2326 C2327 1.391 . S
C2327 H2315 0.950 . S
C2327 C2323 1.393 . S
C2327 C2326 1.391 . S
H2328 C2336 0.950 . S
H2329 C2341 0.950 . S
H2330 C2338 0.950 . S
H2331 C2340 0.950 . S
H2332 C2342 0.950 . S
H2333 C2344 0.950 . S
H2334 C2346 0.950 . S
H2335 C2347 0.950 . S
C2336 H2328 0.950 . S
C2336 C2337 1.386 . S
C2336 C2338 1.391 . S
C2337 C2336 1.386 . S
C2337 C2341 1.393 1_455 S
C2338 H2330 0.950 . S
C2338 C2336 1.391 . S
C2338 C2339 1.400 . S
C2339 C2338 1.400 . S
C2339 C2340 1.398 1_455 S
C2339 C2345 1.491 1_455 S
C2340 H2331 0.950 . S
C2340 C2339 1.398 1_655 S
C2340 C2341 1.391 . S
C2341 H2329 0.950 . S
C2341 C2337 1.393 1_655 S
C2341 C2340 1.391 . S
C2342 H2332 0.950 . S
C2342 C2343 1.386 . S
C2342 C2344 1.391 . S
C2343 C2342 1.386 . S
C2343 C2347 1.393 1_655 S
C2344 H2333 0.950 . S
C2344 C2342 1.391 . S
C2344 C2345 1.400 . S
C2345 C2339 1.491 1_655 S
C2345 C2344 1.400 . S
C2345 C2346 1.398 1_655 S
C2346 H2334 0.950 . S
C2346 C2345 1.398 1_455 S
C2346 C2347 1.391 . S
C2347 H2335 0.950 . S
C2347 C2343 1.393 1_455 S
C2347 C2346 1.391 . S
H2348 C2356 0.950 . S
H2349 C2361 0.950 . S
H2350 C2358 0.950 . S
H2351 C2360 0.950 . S
H2352 C2362 0.950 . S
H2353 C2364 0.950 . S
H2354 C2366 0.950 . S
H2355 C2367 0.950 . S
C2356 H2348 0.950 . S
C2356 C2357 1.386 1_565 S
C2356 C2358 1.391 . S
C2357 C2356 1.386 1_545 S
C2357 C2361 1.393 . S
C2358 H2350 0.950 . S
C2358 C2356 1.391 . S
C2358 C2359 1.400 1_565 S
C2359 C2358 1.400 1_545 S
C2359 C2360 1.398 . S
C2359 C2365 1.491 1_545 S
C2360 H2351 0.950 . S
C2360 C2359 1.398 . S
C2360 C2361 1.391 . S
C2361 H2349 0.950 . S
C2361 C2357 1.393 . S
C2361 C2360 1.391 . S
C2362 H2352 0.950 . S
C2362 C2363 1.386 1_545 S
C2362 C2364 1.391 . S
C2363 C2362 1.386 1_565 S
C2363 C2367 1.393 . S
C2364 H2353 0.950 . S
C2364 C2362 1.391 . S
C2364 C2365 1.400 1_545 S
C2365 C2359 1.491 1_565 S
C2365 C2364 1.400 1_565 S
C2365 C2366 1.398 . S
C2366 H2354 0.950 . S
C2366 C2365 1.398 . S
C2366 C2367 1.391 . S
C2367 H2355 0.950 . S
C2367 C2363 1.393 . S
C2367 C2366 1.391 . S
H2368 C2376 0.950 . S
H2369 C2381 0.950 . S
H2370 C2378 0.950 . S
H2371 C2380 0.950 . S
H2372 C2382 0.950 . S
H2373 C2384 0.950 . S
H2374 C2386 0.950 . S
H2375 C2387 0.950 . S
C2376 H2368 0.950 . S
C2376 C2377 1.386 . S
C2376 C2378 1.391 . S
C2377 C2376 1.386 . S
C2377 C2381 1.393 . S
C2378 H2370 0.950 . S
C2378 C2376 1.391 . S
C2378 C2379 1.400 . S
C2379 C2378 1.400 . S
C2379 C2380 1.398 . S
C2379 C2385 1.491 1_556 S
C2380 H2371 0.950 . S
C2380 C2379 1.398 . S
C2380 C2381 1.391 . S
C2381 H2369 0.950 . S
C2381 C2377 1.393 . S
C2381 C2380 1.391 . S
C2382 H2372 0.950 . S
C2382 C2383 1.386 . S
C2382 C2384 1.391 . S
C2383 C2382 1.386 . S
C2383 C2387 1.393 . S
C2384 H2373 0.950 . S
C2384 C2382 1.391 . S
C2384 C2385 1.400 . S
C2385 C2379 1.491 1_554 S
C2385 C2384 1.400 . S
C2385 C2386 1.398 . S
C2386 H2374 0.950 . S
C2386 C2385 1.398 . S
C2386 C2387 1.391 . S
C2387 H2375 0.950 . S
C2387 C2383 1.393 . S
C2387 C2386 1.391 . S
H2388 C2396 0.950 . S
H2389 C2401 0.950 1_556 S
H2390 C2398 0.950 . S
H2391 C2400 0.950 . S
H2392 C2402 0.950 . S
H2393 C2404 0.950 . S
H2394 C2406 0.950 . S
H2395 C2407 0.950 1_554 S
C2396 H2388 0.950 . S
C2396 C2397 1.386 . S
C2396 C2398 1.391 . S
C2397 C2396 1.386 . S
C2397 C2401 1.393 . S
C2398 H2390 0.950 . S
C2398 C2396 1.391 . S
C2398 C2399 1.400 . S
C2399 C2398 1.400 . S
C2399 C2400 1.398 1_554 S
C2399 C2405 1.491 1_554 S
C2400 H2391 0.950 . S
C2400 C2399 1.398 1_556 S
C2400 C2401 1.391 1_556 S
C2401 H2389 0.950 1_554 S
C2401 C2397 1.393 . S
C2401 C2400 1.391 1_554 S
C2402 H2392 0.950 . S
C2402 C2403 1.386 . S
C2402 C2404 1.391 . S
C2403 C2402 1.386 . S
C2403 C2407 1.393 . S
C2404 H2393 0.950 . S
C2404 C2402 1.391 . S
C2404 C2405 1.400 . S
C2405 C2399 1.491 1_556 S
C2405 C2404 1.400 . S
C2405 C2406 1.398 1_556 S
C2406 H2394 0.950 . S
C2406 C2405 1.398 1_554 S
C2406 C2407 1.391 1_554 S
C2407 H2395 0.950 1_556 S
C2407 C2403 1.393 . S
C2407 C2406 1.391 1_556 S
H2408 C2416 0.950 . S
H2409 C2421 0.950 . S
H2410 C2418 0.950 1_556 S
H2411 C2420 0.950 . S
H2412 C2422 0.950 . S
H2413 C2424 0.950 1_554 S
H2414 C2426 0.950 . S
H2415 C2427 0.950 . S
C2416 H2408 0.950 . S
C2416 C2417 1.386 . S
C2416 C2418 1.391 . S
C2417 C2416 1.386 . S
C2417 C2421 1.393 . S
C2418 H2410 0.950 1_554 S
C2418 C2416 1.391 . S
C2418 C2419 1.400 . S
C2419 C2418 1.400 . S
C2419 C2420 1.398 . S
C2419 C2425 1.491 1_554 S
C2420 H2411 0.950 . S
C2420 C2419 1.398 . S
C2420 C2421 1.391 . S
C2421 H2409 0.950 . S
C2421 C2417 1.393 . S
C2421 C2420 1.391 . S
C2422 H2412 0.950 . S
C2422 C2423 1.386 . S
C2422 C2424 1.391 . S
C2423 C2422 1.386 . S
C2423 C2427 1.393 . S
C2424 H2413 0.950 1_556 S
C2424 C2422 1.391 . S
C2424 C2425 1.400 . S
C2425 C2419 1.491 1_556 S
C2425 C2424 1.400 . S
C2425 C2426 1.398 . S
C2426 H2414 0.950 . S
C2426 C2425 1.398 . S
C2426 C2427 1.391 . S
C2427 H2415 0.950 . S
C2427 C2423 1.393 . S
C2427 C2426 1.391 . S
H2428 C2436 0.950 . S
H2429 C2441 0.950 . S
H2430 C2438 0.950 . S
H2431 C2440 0.963 . S
H2432 C2442 0.950 . S
H2433 C2444 0.950 . S
H2434 C2446 0.963 . S
H2435 C2447 0.950 . S
C2436 H2428 0.950 . S
C2436 C2437 1.386 . S
C2436 C2438 1.391 . S
C2437 C2436 1.386 . S
C2437 C2441 1.393 . S
C2438 H2430 0.950 . S
C2438 C2436 1.391 . S
C2438 C2439 1.400 . S
C2439 C2438 1.400 . S
C2439 C2440 1.394 1_556 S
C2439 C2445 1.491 1_556 S
C2440 H2431 0.963 . S
C2440 C2439 1.394 1_554 S
C2440 C2441 1.384 1_554 S
C2441 H2429 0.950 . S
C2441 C2437 1.393 . S
C2441 C2440 1.384 1_556 S
C2442 H2432 0.950 . S
C2442 C2443 1.386 . S
C2442 C2444 1.391 . S
C2443 C2442 1.386 . S
C2443 C2447 1.393 . S
C2444 H2433 0.950 . S
C2444 C2442 1.391 . S
C2444 C2445 1.400 . S
C2445 C2439 1.491 1_554 S
C2445 C2444 1.400 . S
C2445 C2446 1.394 1_554 S
C2446 H2434 0.963 . S
C2446 C2445 1.394 1_556 S
C2446 C2447 1.384 1_556 S
C2447 H2435 0.950 . S
C2447 C2443 1.393 . S
C2447 C2446 1.384 1_554 S
H2448 C2456 0.950 . S
H2449 C2461 0.950 . S
H2450 C2458 0.950 . S
H2451 C2460 0.950 . S
H2452 C2462 0.950 . S
H2453 C2464 0.950 . S
H2454 C2466 0.950 . S
H2455 C2467 0.950 . S
C2456 H2448 0.950 . S
C2456 C2457 1.386 . S
C2456 C2458 1.391 . S
C2457 C2456 1.386 . S
C2457 C2461 1.393 . S
C2458 H2450 0.950 . S
C2458 C2456 1.391 . S
C2458 C2459 1.400 . S
C2459 C2458 1.400 . S
C2459 C2460 1.398 . S
C2459 C2465 1.491 . S
C2460 H2451 0.950 . S
C2460 C2459 1.398 . S
C2460 C2461 1.391 . S
C2461 H2449 0.950 . S
C2461 C2457 1.393 . S
C2461 C2460 1.391 . S
C2462 H2452 0.950 . S
C2462 C2463 1.386 . S
C2462 C2464 1.391 . S
C2463 C2462 1.386 . S
C2463 C2467 1.393 . S
C2464 H2453 0.950 . S
C2464 C2462 1.391 . S
C2464 C2465 1.400 . S
C2465 C2459 1.491 . S
C2465 C2464 1.400 . S
C2465 C2466 1.398 . S
C2466 H2454 0.950 . S
C2466 C2465 1.398 . S
C2466 C2467 1.391 . S
C2467 H2455 0.950 . S
C2467 C2463 1.393 . S
C2467 C2466 1.391 . S
H2468 C2476 0.950 . S
H2469 C2481 0.950 . S
H2470 C2478 0.950 . S
H2471 C2480 0.950 . S
H2472 C2482 0.950 . S
H2473 C2484 0.950 . S
H2474 C2486 0.950 . S
H2475 C2487 0.950 . S
C2476 H2468 0.950 . S
C2476 C2477 1.386 . S
C2476 C2478 1.391 . S
C2477 C2476 1.386 . S
C2477 C2481 1.393 . S
C2478 H2470 0.950 . S
C2478 C2476 1.391 . S
C2478 C2479 1.400 . S
C2479 C2478 1.400 . S
C2479 C2480 1.398 . S
C2479 C2485 1.491 . S
C2480 H2471 0.950 . S
C2480 C2479 1.398 . S
C2480 C2481 1.391 . S
C2481 H2469 0.950 . S
C2481 C2477 1.393 . S
C2481 C2480 1.391 . S
C2482 H2472 0.950 . S
C2482 C2483 1.386 . S
C2482 C2484 1.391 . S
C2483 C2482 1.386 . S
C2483 C2487 1.393 . S
C2484 H2473 0.950 . S
C2484 C2482 1.391 . S
C2484 C2485 1.400 . S
C2485 C2479 1.491 . S
C2485 C2484 1.400 . S
C2485 C2486 1.398 . S
C2486 H2474 0.950 . S
C2486 C2485 1.398 . S
C2486 C2487 1.391 . S
C2487 H2475 0.950 . S
C2487 C2483 1.393 . S
C2487 C2486 1.391 . S
H2488 C2496 0.950 . S
H2489 C2501 0.950 . S
H2490 C2498 0.950 . S
H2491 C2500 0.950 . S
H2492 C2502 0.950 . S
H2493 C2504 0.950 . S
H2494 C2506 0.950 . S
H2495 C2507 0.950 . S
C2496 H2488 0.950 . S
C2496 C2497 1.386 . S
C2496 C2498 1.391 . S
C2497 C2496 1.386 . S
C2497 C2501 1.393 . S
C2498 H2490 0.950 . S
C2498 C2496 1.391 . S
C2498 C2499 1.400 . S
C2499 C2498 1.400 . S
C2499 C2500 1.398 . S
C2499 C2505 1.491 . S
C2500 H2491 0.950 . S
C2500 C2499 1.398 . S
C2500 C2501 1.391 . S
C2501 H2489 0.950 . S
C2501 C2497 1.393 . S
C2501 C2500 1.391 . S
C2502 H2492 0.950 . S
C2502 C2503 1.386 . S
C2502 C2504 1.391 . S
C2503 C2502 1.386 . S
C2503 C2507 1.393 . S
C2504 H2493 0.950 . S
C2504 C2502 1.391 . S
C2504 C2505 1.400 . S
C2505 C2499 1.491 . S
C2505 C2504 1.400 . S
C2505 C2506 1.398 . S
C2506 H2494 0.950 . S
C2506 C2505 1.398 . S
C2506 C2507 1.391 . S
C2507 H2495 0.950 . S
C2507 C2503 1.393 . S
C2507 C2506 1.391 . S
H2508 C2516 0.950 . S
H2509 C2521 0.950 . S
H2510 C2518 0.950 . S
H2511 C2520 0.950 . S
H2512 C2522 0.950 . S
H2513 C2524 0.950 . S
H2514 C2526 0.950 . S
H2515 C2527 0.950 . S
C2516 H2508 0.950 . S
C2516 C2517 1.386 . S
C2516 C2518 1.391 . S
C2517 C2516 1.386 . S
C2517 C2521 1.393 . S
C2518 H2510 0.950 . S
C2518 C2516 1.391 . S
C2518 C2519 1.400 . S
C2519 C2518 1.400 . S
C2519 C2520 1.398 . S
C2519 C2525 1.491 . S
C2520 H2511 0.950 . S
C2520 C2519 1.398 . S
C2520 C2521 1.391 . S
C2521 H2509 0.950 . S
C2521 C2517 1.393 . S
C2521 C2520 1.391 . S
C2522 H2512 0.950 . S
C2522 C2523 1.386 . S
C2522 C2524 1.391 . S
C2523 C2522 1.386 . S
C2523 C2527 1.393 . S
C2524 H2513 0.950 . S
C2524 C2522 1.391 . S
C2524 C2525 1.400 . S
C2525 C2519 1.491 . S
C2525 C2524 1.400 . S
C2525 C2526 1.398 . S
C2526 H2514 0.950 . S
C2526 C2525 1.398 . S
C2526 C2527 1.391 . S
C2527 H2515 0.950 . S
C2527 C2523 1.393 . S
C2527 C2526 1.391 . S
H2528 C2536 0.950 . S
H2529 C2541 0.950 . S
H2530 C2538 0.950 . S
H2531 C2540 0.950 . S
H2532 C2542 0.950 . S
H2533 C2544 0.950 . S
H2534 C2546 0.950 . S
H2535 C2547 0.950 . S
C2536 H2528 0.950 . S
C2536 C2537 1.386 . S
C2536 C2538 1.391 . S
C2537 C2536 1.386 . S
C2537 C2541 1.393 . S
C2538 H2530 0.950 . S
C2538 C2536 1.391 . S
C2538 C2539 1.400 . S
C2539 C2538 1.400 . S
C2539 C2540 1.398 . S
C2539 C2545 1.491 . S
C2540 H2531 0.950 . S
C2540 C2539 1.398 . S
C2540 C2541 1.391 . S
C2541 H2529 0.950 . S
C2541 C2537 1.393 . S
C2541 C2540 1.391 . S
C2542 H2532 0.950 . S
C2542 C2543 1.386 . S
C2542 C2544 1.391 . S
C2543 C2542 1.386 . S
C2543 C2547 1.393 . S
C2544 H2533 0.950 . S
C2544 C2542 1.391 . S
C2544 C2545 1.400 . S
C2545 C2539 1.491 . S
C2545 C2544 1.400 . S
C2545 C2546 1.398 . S
C2546 H2534 0.950 . S
C2546 C2545 1.398 . S
C2546 C2547 1.391 . S
C2547 H2535 0.950 . S
C2547 C2543 1.393 . S
C2547 C2546 1.391 . S
H2548 C2556 0.950 . S
H2549 C2561 0.950 . S
H2550 C2558 0.950 . S
H2551 C2560 0.950 . S
H2552 C2562 0.950 . S
H2553 C2564 0.950 . S
H2554 C2566 0.950 . S
H2555 C2567 0.950 . S
C2556 H2548 0.950 . S
C2556 C2557 1.386 . S
C2556 C2558 1.391 . S
C2557 C2556 1.386 . S
C2557 C2561 1.393 . S
C2558 H2550 0.950 . S
C2558 C2556 1.391 . S
C2558 C2559 1.400 . S
C2559 C2558 1.400 . S
C2559 C2560 1.398 . S
C2559 C2565 1.491 . S
C2560 H2551 0.950 . S
C2560 C2559 1.398 . S
C2560 C2561 1.391 . S
C2561 H2549 0.950 . S
C2561 C2557 1.393 . S
C2561 C2560 1.391 . S
C2562 H2552 0.950 . S
C2562 C2563 1.386 . S
C2562 C2564 1.391 . S
C2563 C2562 1.386 . S
C2563 C2567 1.393 . S
C2564 H2553 0.950 . S
C2564 C2562 1.391 . S
C2564 C2565 1.400 . S
C2565 C2559 1.491 . S
C2565 C2564 1.400 . S
C2565 C2566 1.398 . S
C2566 H2554 0.950 . S
C2566 C2565 1.398 . S
C2566 C2567 1.391 . S
C2567 H2555 0.950 . S
C2567 C2563 1.393 . S
C2567 C2566 1.391 . S
H2568 C2576 0.950 . S
H2569 C2581 0.950 . S
H2570 C2578 0.950 . S
H2571 C2580 0.950 . S
H2572 C2582 0.950 . S
H2573 C2584 0.950 . S
H2574 C2586 0.950 . S
H2575 C2587 0.950 . S
C2576 H2568 0.950 . S
C2576 C2577 1.386 . S
C2576 C2578 1.391 . S
C2577 C2576 1.386 . S
C2577 C2581 1.393 . S
C2578 H2570 0.950 . S
C2578 C2576 1.391 . S
C2578 C2579 1.400 . S
C2579 C2578 1.400 . S
C2579 C2580 1.398 . S
C2579 C2585 1.491 . S
C2580 H2571 0.950 . S
C2580 C2579 1.398 . S
C2580 C2581 1.391 . S
C2581 H2569 0.950 . S
C2581 C2577 1.393 . S
C2581 C2580 1.391 . S
C2582 H2572 0.950 . S
C2582 C2583 1.386 . S
C2582 C2584 1.391 . S
C2583 C2582 1.386 . S
C2583 C2587 1.393 . S
C2584 H2573 0.950 . S
C2584 C2582 1.391 . S
C2584 C2585 1.400 . S
C2585 C2579 1.491 . S
C2585 C2584 1.400 . S
C2585 C2586 1.398 . S
C2586 H2574 0.950 . S
C2586 C2585 1.398 . S
C2586 C2587 1.391 . S
C2587 H2575 0.950 . S
C2587 C2583 1.393 . S
C2587 C2586 1.391 . S
H2588 C2596 0.950 . S
H2589 C2601 0.950 . S
H2590 C2598 0.950 . S
H2591 C2600 0.950 . S
H2592 C2602 0.950 . S
H2593 C2604 0.950 . S
H2594 C2606 0.950 . S
H2595 C2607 0.950 . S
C2596 H2588 0.950 . S
C2596 C2597 1.386 . S
C2596 C2598 1.391 . S
C2597 C2596 1.386 . S
C2597 C2601 1.393 . S
C2598 H2590 0.950 . S
C2598 C2596 1.391 . S
C2598 C2599 1.400 . S
C2599 C2598 1.400 . S
C2599 C2600 1.398 . S
C2599 C2605 1.491 . S
C2600 H2591 0.950 . S
C2600 C2599 1.398 . S
C2600 C2601 1.391 . S
C2601 H2589 0.950 . S
C2601 C2597 1.393 . S
C2601 C2600 1.391 . S
C2602 H2592 0.950 . S
C2602 C2603 1.386 . S
C2602 C2604 1.391 . S
C2603 C2602 1.386 . S
C2603 C2607 1.393 . S
C2604 H2593 0.950 . S
C2604 C2602 1.391 . S
C2604 C2605 1.400 . S
C2605 C2599 1.491 . S
C2605 C2604 1.400 . S
C2605 C2606 1.398 . S
C2606 H2594 0.950 . S
C2606 C2605 1.398 . S
C2606 C2607 1.391 . S
C2607 H2595 0.950 . S
C2607 C2603 1.393 . S
C2607 C2606 1.391 . S
H2608 C2616 0.950 . S
H2609 C2621 0.950 . S
H2610 C2618 0.950 . S
H2611 C2620 0.950 . S
H2612 C2622 0.950 . S
H2613 C2624 0.950 . S
H2614 C2626 0.950 . S
H2615 C2627 0.950 . S
C2616 H2608 0.950 . S
C2616 C2617 1.386 . S
C2616 C2618 1.391 . S
C2617 C2616 1.386 . S
C2617 C2621 1.393 . S
C2618 H2610 0.950 . S
C2618 C2616 1.391 . S
C2618 C2619 1.400 . S
C2619 C2618 1.400 . S
C2619 C2620 1.398 . S
C2619 C2625 1.491 . S
C2620 H2611 0.950 . S
C2620 C2619 1.398 . S
C2620 C2621 1.391 . S
C2621 H2609 0.950 . S
C2621 C2617 1.393 . S
C2621 C2620 1.391 . S
C2622 H2612 0.950 . S
C2622 C2623 1.386 . S
C2622 C2624 1.391 . S
C2623 C2622 1.386 . S
C2623 C2627 1.393 . S
C2624 H2613 0.950 . S
C2624 C2622 1.391 . S
C2624 C2625 1.400 . S
C2625 C2619 1.491 . S
C2625 C2624 1.400 . S
C2625 C2626 1.398 . S
C2626 H2614 0.950 . S
C2626 C2625 1.398 . S
C2626 C2627 1.391 . S
C2627 H2615 0.950 . S
C2627 C2623 1.393 . S
C2627 C2626 1.391 . S
H2628 C2636 0.950 . S
H2629 C2641 0.950 . S
H2630 C2638 0.950 . S
H2631 C2640 0.950 . S
H2632 C2642 0.950 . S
H2633 C2644 0.950 . S
H2634 C2646 0.950 . S
H2635 C2647 0.950 . S
C2636 H2628 0.950 . S
C2636 C2637 1.386 . S
C2636 C2638 1.391 . S
C2637 C2636 1.386 . S
C2637 C2641 1.393 . S
C2638 H2630 0.950 . S
C2638 C2636 1.391 . S
C2638 C2639 1.400 . S
C2639 C2638 1.400 . S
C2639 C2640 1.398 . S
C2639 C2645 1.491 . S
C2640 H2631 0.950 . S
C2640 C2639 1.398 . S
C2640 C2641 1.391 . S
C2641 H2629 0.950 . S
C2641 C2637 1.393 . S
C2641 C2640 1.391 . S
C2642 H2632 0.950 . S
C2642 C2643 1.386 . S
C2642 C2644 1.391 . S
C2643 C2642 1.386 . S
C2643 C2647 1.393 . S
C2644 H2633 0.950 . S
C2644 C2642 1.391 . S
C2644 C2645 1.400 . S
C2645 C2639 1.491 . S
C2645 C2644 1.400 . S
C2645 C2646 1.398 . S
C2646 H2634 0.950 . S
C2646 C2645 1.398 . S
C2646 C2647 1.391 . S
C2647 H2635 0.950 . S
C2647 C2643 1.393 . S
C2647 C2646 1.391 . S
H2648 C2656 0.950 . S
H2649 C2661 0.950 . S
H2650 C2658 0.950 . S
H2651 C2660 0.950 . S
H2652 C2662 0.950 . S
H2653 C2664 0.950 . S
H2654 C2666 0.950 . S
H2655 C2667 0.950 . S
C2656 H2648 0.950 . S
C2656 C2657 1.386 . S
C2656 C2658 1.391 . S
C2657 C2656 1.386 . S
C2657 C2661 1.393 . S
C2658 H2650 0.950 . S
C2658 C2656 1.391 . S
C2658 C2659 1.400 . S
C2659 C2658 1.400 . S
C2659 C2660 1.398 . S
C2659 C2665 1.491 . S
C2660 H2651 0.950 . S
C2660 C2659 1.398 . S
C2660 C2661 1.391 . S
C2661 H2649 0.950 . S
C2661 C2657 1.393 . S
C2661 C2660 1.391 . S
C2662 H2652 0.950 . S
C2662 C2663 1.386 . S
C2662 C2664 1.391 . S
C2663 C2662 1.386 . S
C2663 C2667 1.393 . S
C2664 H2653 0.950 . S
C2664 C2662 1.391 . S
C2664 C2665 1.400 . S
C2665 C2659 1.491 . S
C2665 C2664 1.400 . S
C2665 C2666 1.398 . S
C2666 H2654 0.950 . S
C2666 C2665 1.398 . S
C2666 C2667 1.391 . S
C2667 H2655 0.950 . S
C2667 C2663 1.393 . S
C2667 C2666 1.391 . S
H2668 C2676 0.950 . S
H2669 C2681 0.950 . S
H2670 C2678 0.950 . S
H2671 C2680 0.950 . S
H2672 C2682 0.950 . S
H2673 C2684 0.950 . S
H2674 C2686 0.950 . S
H2675 C2687 0.950 . S
C2676 H2668 0.950 . S
C2676 C2677 1.386 . S
C2676 C2678 1.391 . S
C2677 C2676 1.386 . S
C2677 C2681 1.393 . S
C2678 H2670 0.950 . S
C2678 C2676 1.391 . S
C2678 C2679 1.400 . S
C2679 C2678 1.400 . S
C2679 C2680 1.398 . S
C2679 C2685 1.491 . S
C2680 H2671 0.950 . S
C2680 C2679 1.398 . S
C2680 C2681 1.391 . S
C2681 H2669 0.950 . S
C2681 C2677 1.393 . S
C2681 C2680 1.391 . S
C2682 H2672 0.950 . S
C2682 C2683 1.386 . S
C2682 C2684 1.391 . S
C2683 C2682 1.386 . S
C2683 C2687 1.393 . S
C2684 H2673 0.950 . S
C2684 C2682 1.391 . S
C2684 C2685 1.400 . S
C2685 C2679 1.491 . S
C2685 C2684 1.400 . S
C2685 C2686 1.398 . S
C2686 H2674 0.950 . S
C2686 C2685 1.398 . S
C2686 C2687 1.391 . S
C2687 H2675 0.950 . S
C2687 C2683 1.393 . S
C2687 C2686 1.391 . S
H2688 C2696 0.950 . S
H2689 C2701 0.950 . S
H2690 C2698 0.950 . S
H2691 C2700 0.950 . S
H2692 C2702 0.950 . S
H2693 C2704 0.950 . S
H2694 C2706 0.950 . S
H2695 C2707 0.950 . S
C2696 H2688 0.950 . S
C2696 C2697 1.386 . S
C2696 C2698 1.391 . S
C2697 C2696 1.386 . S
C2697 C2701 1.393 . S
C2698 H2690 0.950 . S
C2698 C2696 1.391 . S
C2698 C2699 1.400 . S
C2699 C2698 1.400 . S
C2699 C2700 1.398 . S
C2699 C2705 1.491 . S
C2700 H2691 0.950 . S
C2700 C2699 1.398 . S
C2700 C2701 1.391 . S
C2701 H2689 0.950 . S
C2701 C2697 1.393 . S
C2701 C2700 1.391 . S
C2702 H2692 0.950 . S
C2702 C2703 1.386 . S
C2702 C2704 1.391 . S
C2703 C2702 1.386 . S
C2703 C2707 1.393 . S
C2704 H2693 0.950 . S
C2704 C2702 1.391 . S
C2704 C2705 1.400 . S
C2705 C2699 1.491 . S
C2705 C2704 1.400 . S
C2705 C2706 1.398 . S
C2706 H2694 0.950 . S
C2706 C2705 1.398 . S
C2706 C2707 1.391 . S
C2707 H2695 0.950 . S
C2707 C2703 1.393 . S
C2707 C2706 1.391 . S
H2708 C2716 0.950 . S
H2709 C2721 0.950 . S
H2710 C2718 0.950 . S
H2711 C2720 0.950 . S
H2712 C2722 0.950 . S
H2713 C2724 0.950 . S
H2714 C2726 0.950 . S
H2715 C2727 0.950 . S
C2716 H2708 0.950 . S
C2716 C2717 1.386 . S
C2716 C2718 1.391 . S
C2717 C2716 1.386 . S
C2717 C2721 1.393 . S
C2718 H2710 0.950 . S
C2718 C2716 1.391 . S
C2718 C2719 1.400 . S
C2719 C2718 1.400 . S
C2719 C2720 1.398 . S
C2719 C2725 1.491 . S
C2720 H2711 0.950 . S
C2720 C2719 1.398 . S
C2720 C2721 1.391 . S
C2721 H2709 0.950 . S
C2721 C2717 1.393 . S
C2721 C2720 1.391 . S
C2722 H2712 0.950 . S
C2722 C2723 1.386 . S
C2722 C2724 1.391 . S
C2723 C2722 1.386 . S
C2723 C2727 1.393 . S
C2724 H2713 0.950 . S
C2724 C2722 1.391 . S
C2724 C2725 1.400 . S
C2725 C2719 1.491 . S
C2725 C2724 1.400 . S
C2725 C2726 1.398 . S
C2726 H2714 0.950 . S
C2726 C2725 1.398 . S
C2726 C2727 1.391 . S
C2727 H2715 0.950 . S
C2727 C2723 1.393 . S
C2727 C2726 1.391 . S
H2728 C2736 0.950 . S
H2729 C2741 0.950 . S
H2730 C2738 0.950 . S
H2731 C2740 0.950 . S
H2732 C2742 0.950 . S
H2733 C2744 0.950 . S
H2734 C2746 0.950 . S
H2735 C2747 0.950 . S
C2736 H2728 0.950 . S
C2736 C2737 1.386 . S
C2736 C2738 1.391 . S
C2737 C2736 1.386 . S
C2737 C2741 1.393 . S
C2738 H2730 0.950 . S
C2738 C2736 1.391 . S
C2738 C2739 1.400 . S
C2739 C2738 1.400 . S
C2739 C2740 1.398 . S
C2739 C2745 1.491 . S
C2740 H2731 0.950 . S
C2740 C2739 1.398 . S
C2740 C2741 1.391 . S
C2741 H2729 0.950 . S
C2741 C2737 1.393 . S
C2741 C2740 1.391 . S
C2742 H2732 0.950 . S
C2742 C2743 1.386 . S
C2742 C2744 1.391 . S
C2743 C2742 1.386 . S
C2743 C2747 1.393 . S
C2744 H2733 0.950 . S
C2744 C2742 1.391 . S
C2744 C2745 1.400 . S
C2745 C2739 1.491 . S
C2745 C2744 1.400 . S
C2745 C2746 1.398 . S
C2746 H2734 0.950 . S
C2746 C2745 1.398 . S
C2746 C2747 1.391 . S
C2747 H2735 0.950 . S
C2747 C2743 1.393 . S
C2747 C2746 1.391 . S
H2748 C2756 0.950 . S
H2749 C2761 0.950 . S
H2750 C2758 0.950 . S
H2751 C2760 0.950 . S
H2752 C2762 0.950 . S
H2753 C2764 0.950 . S
H2754 C2766 0.950 . S
H2755 C2767 0.950 . S
C2756 H2748 0.950 . S
C2756 C2757 1.386 . S
C2756 C2758 1.391 . S
C2757 C2756 1.386 . S
C2757 C2761 1.393 . S
C2758 H2750 0.950 . S
C2758 C2756 1.391 . S
C2758 C2759 1.400 . S
C2759 C2758 1.400 . S
C2759 C2760 1.398 . S
C2759 C2765 1.491 . S
C2760 H2751 0.950 . S
C2760 C2759 1.398 . S
C2760 C2761 1.391 . S
C2761 H2749 0.950 . S
C2761 C2757 1.393 . S
C2761 C2760 1.391 . S
C2762 H2752 0.950 . S
C2762 C2763 1.386 . S
C2762 C2764 1.391 . S
C2763 C2762 1.386 . S
C2763 C2767 1.393 . S
C2764 H2753 0.950 . S
C2764 C2762 1.391 . S
C2764 C2765 1.400 . S
C2765 C2759 1.491 . S
C2765 C2764 1.400 . S
C2765 C2766 1.398 . S
C2766 H2754 0.950 . S
C2766 C2765 1.398 . S
C2766 C2767 1.391 . S
C2767 H2755 0.950 . S
C2767 C2763 1.393 . S
C2767 C2766 1.391 . S
H2768 C2776 0.950 . S
H2769 C2781 0.950 . S
H2770 C2778 0.950 . S
H2771 C2780 0.950 . S
H2772 C2782 0.950 . S
H2773 C2784 0.950 . S
H2774 C2786 0.950 . S
H2775 C2787 0.950 . S
C2776 H2768 0.950 . S
C2776 C2777 1.386 . S
C2776 C2778 1.391 . S
C2777 C2776 1.386 . S
C2777 C2781 1.393 . S
C2778 H2770 0.950 . S
C2778 C2776 1.391 . S
C2778 C2779 1.400 . S
C2779 C2778 1.400 . S
C2779 C2780 1.398 . S
C2779 C2785 1.491 . S
C2780 H2771 0.950 . S
C2780 C2779 1.398 . S
C2780 C2781 1.391 . S
C2781 H2769 0.950 . S
C2781 C2777 1.393 . S
C2781 C2780 1.391 . S
C2782 H2772 0.950 . S
C2782 C2783 1.386 . S
C2782 C2784 1.391 . S
C2783 C2782 1.386 . S
C2783 C2787 1.393 . S
C2784 H2773 0.950 . S
C2784 C2782 1.391 . S
C2784 C2785 1.400 . S
C2785 C2779 1.491 . S
C2785 C2784 1.400 . S
C2785 C2786 1.398 . S
C2786 H2774 0.950 . S
C2786 C2785 1.398 . S
C2786 C2787 1.391 . S
C2787 H2775 0.950 . S
C2787 C2783 1.393 . S
C2787 C2786 1.391 . S
H2788 C2796 0.950 . S
H2789 C2801 0.950 . S
H2790 C2798 0.950 . S
H2791 C2800 0.950 . S
H2792 C2802 0.950 . S
H2793 C2804 0.950 . S
H2794 C2806 0.950 . S
H2795 C2807 0.950 . S
C2796 H2788 0.950 . S
C2796 C2797 1.386 . S
C2796 C2798 1.391 . S
C2797 C2796 1.386 . S
C2797 C2801 1.393 . S
C2798 H2790 0.950 . S
C2798 C2796 1.391 . S
C2798 C2799 1.400 . S
C2799 C2798 1.400 . S
C2799 C2800 1.398 . S
C2799 C2805 1.491 . S
C2800 H2791 0.950 . S
C2800 C2799 1.398 . S
C2800 C2801 1.391 . S
C2801 H2789 0.950 . S
C2801 C2797 1.393 . S
C2801 C2800 1.391 . S
C2802 H2792 0.950 . S
C2802 C2803 1.386 . S
C2802 C2804 1.391 . S
C2803 C2802 1.386 . S
C2803 C2807 1.393 . S
C2804 H2793 0.950 . S
C2804 C2802 1.391 . S
C2804 C2805 1.400 . S
C2805 C2799 1.491 . S
C2805 C2804 1.400 . S
C2805 C2806 1.398 . S
C2806 H2794 0.950 . S
C2806 C2805 1.398 . S
C2806 C2807 1.391 . S
C2807 H2795 0.950 . S
C2807 C2803 1.393 . S
C2807 C2806 1.391 . S
H2808 C2816 0.950 . S
H2809 C2821 0.950 . S
H2810 C2818 0.950 . S
H2811 C2820 0.950 . S
H2812 C2822 0.950 . S
H2813 C2824 0.950 . S
H2814 C2826 0.950 . S
H2815 C2827 0.950 . S
C2816 H2808 0.950 . S
C2816 C2817 1.386 . S
C2816 C2818 1.391 . S
C2817 C2816 1.386 . S
C2817 C2821 1.393 . S
C2818 H2810 0.950 . S
C2818 C2816 1.391 . S
C2818 C2819 1.400 . S
C2819 C2818 1.400 . S
C2819 C2820 1.398 . S
C2819 C2825 1.491 . S
C2820 H2811 0.950 . S
C2820 C2819 1.398 . S
C2820 C2821 1.391 . S
C2821 H2809 0.950 . S
C2821 C2817 1.393 . S
C2821 C2820 1.391 . S
C2822 H2812 0.950 . S
C2822 C2823 1.386 . S
C2822 C2824 1.391 . S
C2823 C2822 1.386 . S
C2823 C2827 1.393 . S
C2824 H2813 0.950 . S
C2824 C2822 1.391 . S
C2824 C2825 1.400 . S
C2825 C2819 1.491 . S
C2825 C2824 1.400 . S
C2825 C2826 1.398 . S
C2826 H2814 0.950 . S
C2826 C2825 1.398 . S
C2826 C2827 1.391 . S
C2827 H2815 0.950 . S
C2827 C2823 1.393 . S
C2827 C2826 1.391 . S
H2828 C2836 0.950 . S
H2829 C2841 0.950 . S
H2830 C2838 0.950 . S
H2831 C2840 0.950 . S
H2832 C2842 0.950 . S
H2833 C2844 0.950 . S
H2834 C2846 0.950 . S
H2835 C2847 0.950 . S
C2836 H2828 0.950 . S
C2836 C2837 1.386 . S
C2836 C2838 1.391 . S
C2837 C2836 1.386 . S
C2837 C2841 1.393 . S
C2838 H2830 0.950 . S
C2838 C2836 1.391 . S
C2838 C2839 1.400 . S
C2839 C2838 1.400 . S
C2839 C2840 1.398 . S
C2839 C2845 1.491 . S
C2840 H2831 0.950 . S
C2840 C2839 1.398 . S
C2840 C2841 1.391 . S
C2841 H2829 0.950 . S
C2841 C2837 1.393 . S
C2841 C2840 1.391 . S
C2842 H2832 0.950 . S
C2842 C2843 1.386 . S
C2842 C2844 1.391 . S
C2843 C2842 1.386 . S
C2843 C2847 1.393 . S
C2844 H2833 0.950 . S
C2844 C2842 1.391 . S
C2844 C2845 1.400 . S
C2845 C2839 1.491 . S
C2845 C2844 1.400 . S
C2845 C2846 1.398 . S
C2846 H2834 0.950 . S
C2846 C2845 1.398 . S
C2846 C2847 1.391 . S
C2847 H2835 0.950 . S
C2847 C2843 1.393 . S
C2847 C2846 1.391 . S
H2848 C2856 0.950 . S
H2849 C2861 0.950 . S
H2850 C2858 0.950 . S
H2851 C2860 0.950 . S
H2852 C2862 0.950 . S
H2853 C2864 0.950 . S
H2854 C2866 0.950 . S
H2855 C2867 0.950 . S
C2856 H2848 0.950 . S
C2856 C2857 1.386 . S
C2856 C2858 1.391 . S
C2857 C2856 1.386 . S
C2857 C2861 1.393 . S
C2858 H2850 0.950 . S
C2858 C2856 1.391 . S
C2858 C2859 1.400 . S
C2859 C2858 1.400 . S
C2859 C2860 1.398 . S
C2859 C2865 1.491 . S
C2860 H2851 0.950 . S
C2860 C2859 1.398 . S
C2860 C2861 1.391 . S
C2861 H2849 0.950 . S
C2861 C2857 1.393 . S
C2861 C2860 1.391 . S
C2862 H2852 0.950 . S
C2862 C2863 1.386 . S
C2862 C2864 1.391 . S
C2863 C2862 1.386 . S
C2863 C2867 1.393 . S
C2864 H2853 0.950 . S
C2864 C2862 1.391 . S
C2864 C2865 1.400 . S
C2865 C2859 1.491 . S
C2865 C2864 1.400 . S
C2865 C2866 1.398 . S
C2866 H2854 0.950 . S
C2866 C2865 1.398 . S
C2866 C2867 1.391 . S
C2867 H2855 0.950 . S
C2867 C2863 1.393 . S
C2867 C2866 1.391 . S
H2868 C2876 0.950 . S
H2869 C2881 0.950 . S
H2870 C2878 0.950 . S
H2871 C2880 0.950 . S
H2872 C2882 0.950 . S
H2873 C2884 0.950 . S
H2874 C2886 0.950 . S
H2875 C2887 0.950 . S
C2876 H2868 0.950 . S
C2876 C2877 1.386 . S
C2876 C2878 1.391 . S
C2877 C2876 1.386 . S
C2877 C2881 1.393 . S
C2878 H2870 0.950 . S
C2878 C2876 1.391 . S
C2878 C2879 1.400 . S
C2879 C2878 1.400 . S
C2879 C2880 1.398 . S
C2879 C2885 1.491 . S
C2880 H2871 0.950 . S
C2880 C2879 1.398 . S
C2880 C2881 1.391 . S
C2881 H2869 0.950 . S
C2881 C2877 1.393 . S
C2881 C2880 1.391 . S
C2882 H2872 0.950 . S
C2882 C2883 1.386 . S
C2882 C2884 1.391 . S
C2883 C2882 1.386 . S
C2883 C2887 1.393 . S
C2884 H2873 0.950 . S
C2884 C2882 1.391 . S
C2884 C2885 1.400 . S
C2885 C2879 1.491 . S
C2885 C2884 1.400 . S
C2885 C2886 1.398 . S
C2886 H2874 0.950 . S
C2886 C2885 1.398 . S
C2886 C2887 1.391 . S
C2887 H2875 0.950 . S
C2887 C2883 1.393 . S
C2887 C2886 1.391 . S
H2888 C2896 0.950 . S
H2889 C2901 0.950 . S
H2890 C2898 0.950 . S
H2891 C2900 0.950 . S
H2892 C2902 0.950 . S
H2893 C2904 0.950 . S
H2894 C2906 0.950 . S
H2895 C2907 0.950 . S
C2896 H2888 0.950 . S
C2896 C2897 1.386 . S
C2896 C2898 1.391 . S
C2897 C2896 1.386 . S
C2897 C2901 1.393 . S
C2898 H2890 0.950 . S
C2898 C2896 1.391 . S
C2898 C2899 1.400 . S
C2899 C2898 1.400 . S
C2899 C2900 1.398 . S
C2899 C2905 1.491 . S
C2900 H2891 0.950 . S
C2900 C2899 1.398 . S
C2900 C2901 1.391 . S
C2901 H2889 0.950 . S
C2901 C2897 1.393 . S
C2901 C2900 1.391 . S
C2902 H2892 0.950 . S
C2902 C2903 1.386 . S
C2902 C2904 1.391 . S
C2903 C2902 1.386 . S
C2903 C2907 1.393 . S
C2904 H2893 0.950 . S
C2904 C2902 1.391 . S
C2904 C2905 1.400 . S
C2905 C2899 1.491 . S
C2905 C2904 1.400 . S
C2905 C2906 1.398 . S
C2906 H2894 0.950 . S
C2906 C2905 1.398 . S
C2906 C2907 1.391 . S
C2907 H2895 0.950 . S
C2907 C2903 1.393 . S
C2907 C2906 1.391 . S
H2908 C2916 0.950 . S
H2909 C2921 0.950 . S
H2910 C2918 0.950 . S
H2911 C2920 0.950 . S
H2912 C2922 0.950 . S
H2913 C2924 0.950 . S
H2914 C2926 0.950 . S
H2915 C2927 0.950 . S
C2916 H2908 0.950 . S
C2916 C2917 1.386 . S
C2916 C2918 1.391 . S
C2917 C2916 1.386 . S
C2917 C2921 1.393 . S
C2918 H2910 0.950 . S
C2918 C2916 1.391 . S
C2918 C2919 1.400 . S
C2919 C2918 1.400 . S
C2919 C2920 1.398 . S
C2919 C2925 1.491 . S
C2920 H2911 0.950 . S
C2920 C2919 1.398 . S
C2920 C2921 1.391 . S
C2921 H2909 0.950 . S
C2921 C2917 1.393 . S
C2921 C2920 1.391 . S
C2922 H2912 0.950 . S
C2922 C2923 1.386 . S
C2922 C2924 1.391 . S
C2923 C2922 1.386 . S
C2923 C2927 1.393 . S
C2924 H2913 0.950 . S
C2924 C2922 1.391 . S
C2924 C2925 1.400 . S
C2925 C2919 1.491 . S
C2925 C2924 1.400 . S
C2925 C2926 1.398 . S
C2926 H2914 0.950 . S
C2926 C2925 1.398 . S
C2926 C2927 1.391 . S
C2927 H2915 0.950 . S
C2927 C2923 1.393 . S
C2927 C2926 1.391 . S
H2928 C2936 0.950 . S
H2929 C2941 0.950 . S
H2930 C2938 0.950 . S
H2931 C2940 0.950 . S
H2932 C2942 0.950 . S
H2933 C2944 0.950 . S
H2934 C2946 0.950 . S
H2935 C2947 0.950 . S
C2936 H2928 0.950 . S
C2936 C2937 1.386 . S
C2936 C2938 1.391 . S
C2937 C2936 1.386 . S
C2937 C2941 1.393 . S
C2938 H2930 0.950 . S
C2938 C2936 1.391 . S
C2938 C2939 1.400 . S
C2939 C2938 1.400 . S
C2939 C2940 1.398 . S
C2939 C2945 1.491 . S
C2940 H2931 0.950 . S
C2940 C2939 1.398 . S
C2940 C2941 1.391 . S
C2941 H2929 0.950 . S
C2941 C2937 1.393 . S
C2941 C2940 1.391 . S
C2942 H2932 0.950 . S
C2942 C2943 1.386 . S
C2942 C2944 1.391 . S
C2943 C2942 1.386 . S
C2943 C2947 1.393 . S
C2944 H2933 0.950 . S
C2944 C2942 1.391 . S
C2944 C2945 1.400 . S
C2945 C2939 1.491 . S
C2945 C2944 1.400 . S
C2945 C2946 1.398 . S
C2946 H2934 0.950 . S
C2946 C2945 1.398 . S
C2946 C2947 1.391 . S
C2947 H2935 0.950 . S
C2947 C2943 1.393 . S
C2947 C2946 1.391 . S
H2948 C2956 0.950 . S
H2949 C2961 0.950 . S
H2950 C2958 0.950 . S
H2951 C2960 0.950 . S
H2952 C2962 0.950 . S
H2953 C2964 0.950 . S
H2954 C2966 0.950 . S
H2955 C2967 0.950 . S
C2956 H2948 0.950 . S
C2956 C2957 1.386 . S
C2956 C2958 1.391 . S
C2957 C2956 1.386 . S
C2957 C2961 1.393 . S
C2958 H2950 0.950 . S
C2958 C2956 1.391 . S
C2958 C2959 1.400 . S
C2959 C2958 1.400 . S
C2959 C2960 1.398 . S
C2959 C2965 1.491 . S
C2960 H2951 0.950 . S
C2960 C2959 1.398 . S
C2960 C2961 1.391 . S
C2961 H2949 0.950 . S
C2961 C2957 1.393 . S
C2961 C2960 1.391 . S
C2962 H2952 0.950 . S
C2962 C2963 1.386 . S
C2962 C2964 1.391 . S
C2963 C2962 1.386 . S
C2963 C2967 1.393 . S
C2964 H2953 0.950 . S
C2964 C2962 1.391 . S
C2964 C2965 1.400 . S
C2965 C2959 1.491 . S
C2965 C2964 1.400 . S
C2965 C2966 1.398 . S
C2966 H2954 0.950 . S
C2966 C2965 1.398 . S
C2966 C2967 1.391 . S
C2967 H2955 0.950 . S
C2967 C2963 1.393 . S
C2967 C2966 1.391 . S
H2968 C2976 0.950 . S
H2969 C2981 0.950 . S
H2970 C2978 0.950 . S
H2971 C2980 0.950 . S
H2972 C2982 0.950 . S
H2973 C2984 0.950 . S
H2974 C2986 0.950 . S
H2975 C2987 0.950 . S
C2976 H2968 0.950 . S
C2976 C2977 1.386 . S
C2976 C2978 1.391 . S
C2977 C2976 1.386 . S
C2977 C2981 1.393 . S
C2978 H2970 0.950 . S
C2978 C2976 1.391 . S
C2978 C2979 1.400 . S
C2979 C2978 1.400 . S
C2979 C2980 1.398 . S
C2979 C2985 1.491 . S
C2980 H2971 0.950 . S
C2980 C2979 1.398 . S
C2980 C2981 1.391 . S
C2981 H2969 0.950 . S
C2981 C2977 1.393 . S
C2981 C2980 1.391 . S
C2982 H2972 0.950 . S
C2982 C2983 1.386 . S
C2982 C2984 1.391 . S
C2983 C2982 1.386 . S
C2983 C2987 1.393 . S
C2984 H2973 0.950 . S
C2984 C2982 1.391 . S
C2984 C2985 1.400 . S
C2985 C2979 1.491 . S
C2985 C2984 1.400 . S
C2985 C2986 1.398 . S
C2986 H2974 0.950 . S
C2986 C2985 1.398 . S
C2986 C2987 1.391 . S
C2987 H2975 0.950 . S
C2987 C2983 1.393 . S
C2987 C2986 1.391 . S
H2988 C2996 0.950 . S
H2989 C3001 0.950 . S
H2990 C2998 0.950 . S
H2991 C3000 0.950 . S
H2992 C3002 0.950 . S
H2993 C3004 0.950 . S
H2994 C3006 0.950 . S
H2995 C3007 0.950 . S
C2996 H2988 0.950 . S
C2996 C2997 1.386 . S
C2996 C2998 1.391 . S
C2997 C2996 1.386 . S
C2997 C3001 1.393 . S
C2998 H2990 0.950 . S
C2998 C2996 1.391 . S
C2998 C2999 1.400 . S
C2999 C2998 1.400 . S
C2999 C3000 1.398 . S
C2999 C3005 1.491 . S
C3000 H2991 0.950 . S
C3000 C2999 1.398 . S
C3000 C3001 1.391 . S
C3001 H2989 0.950 . S
C3001 C2997 1.393 . S
C3001 C3000 1.391 . S
C3002 H2992 0.950 . S
C3002 C3003 1.386 . S
C3002 C3004 1.391 . S
C3003 C3002 1.386 . S
C3003 C3007 1.393 . S
C3004 H2993 0.950 . S
C3004 C3002 1.391 . S
C3004 C3005 1.400 . S
C3005 C2999 1.491 . S
C3005 C3004 1.400 . S
C3005 C3006 1.398 . S
C3006 H2994 0.950 . S
C3006 C3005 1.398 . S
C3006 C3007 1.391 . S
C3007 H2995 0.950 . S
C3007 C3003 1.393 . S
C3007 C3006 1.391 . S
H3008 C3016 0.950 . S
H3009 C3021 0.950 . S
H3010 C3018 0.950 . S
H3011 C3020 0.950 . S
H3012 C3022 0.950 . S
H3013 C3024 0.950 . S
H3014 C3026 0.950 . S
H3015 C3027 0.950 . S
C3016 H3008 0.950 . S
C3016 C3017 1.386 . S
C3016 C3018 1.391 . S
C3017 C3016 1.386 . S
C3017 C3021 1.393 . S
C3018 H3010 0.950 . S
C3018 C3016 1.391 . S
C3018 C3019 1.400 . S
C3019 C3018 1.400 . S
C3019 C3020 1.398 . S
C3019 C3025 1.491 . S
C3020 H3011 0.950 . S
C3020 C3019 1.398 . S
C3020 C3021 1.391 . S
C3021 H3009 0.950 . S
C3021 C3017 1.393 . S
C3021 C3020 1.391 . S
C3022 H3012 0.950 . S
C3022 C3023 1.386 . S
C3022 C3024 1.391 . S
C3023 C3022 1.386 . S
C3023 C3027 1.393 . S
C3024 H3013 0.950 . S
C3024 C3022 1.391 . S
C3024 C3025 1.400 . S
C3025 C3019 1.491 . S
C3025 C3024 1.400 . S
C3025 C3026 1.398 . S
C3026 H3014 0.950 . S
C3026 C3025 1.398 . S
C3026 C3027 1.391 . S
C3027 H3015 0.950 . S
C3027 C3023 1.393 . S
C3027 C3026 1.391 . S
H3028 C3036 0.950 . S
H3029 C3041 0.950 . S
H3030 C3038 0.950 . S
H3031 C3040 0.950 . S
H3032 C3042 0.950 . S
H3033 C3044 0.950 . S
H3034 C3046 0.950 . S
H3035 C3047 0.950 . S
C3036 H3028 0.950 . S
C3036 C3037 1.386 . S
C3036 C3038 1.391 . S
C3037 C3036 1.386 . S
C3037 C3041 1.393 . S
C3038 H3030 0.950 . S
C3038 C3036 1.391 . S
C3038 C3039 1.400 . S
C3039 C3038 1.400 . S
C3039 C3040 1.398 . S
C3039 C3045 1.491 . S
C3040 H3031 0.950 . S
C3040 C3039 1.398 . S
C3040 C3041 1.391 . S
C3041 H3029 0.950 . S
C3041 C3037 1.393 . S
C3041 C3040 1.391 . S
C3042 H3032 0.950 . S
C3042 C3043 1.386 . S
C3042 C3044 1.391 . S
C3043 C3042 1.386 . S
C3043 C3047 1.393 . S
C3044 H3033 0.950 . S
C3044 C3042 1.391 . S
C3044 C3045 1.400 . S
C3045 C3039 1.491 . S
C3045 C3044 1.400 . S
C3045 C3046 1.398 . S
C3046 H3034 0.950 . S
C3046 C3045 1.398 . S
C3046 C3047 1.391 . S
C3047 H3035 0.950 . S
C3047 C3043 1.393 . S
C3047 C3046 1.391 . S
H3048 C3056 0.950 . S
H3049 C3061 0.950 . S
H3050 C3058 0.950 . S
H3051 C3060 0.950 . S
H3052 C3062 0.950 . S
H3053 C3064 0.950 . S
H3054 C3066 0.950 . S
H3055 C3067 0.950 . S
C3056 H3048 0.950 . S
C3056 C3057 1.386 . S
C3056 C3058 1.391 . S
C3057 C3056 1.386 . S
C3057 C3061 1.393 . S
C3058 H3050 0.950 . S
C3058 C3056 1.391 . S
C3058 C3059 1.400 . S
C3059 C3058 1.400 . S
C3059 C3060 1.398 . S
C3059 C3065 1.491 . S
C3060 H3051 0.950 . S
C3060 C3059 1.398 . S
C3060 C3061 1.391 . S
C3061 H3049 0.950 . S
C3061 C3057 1.393 . S
C3061 C3060 1.391 . S
C3062 H3052 0.950 . S
C3062 C3063 1.386 . S
C3062 C3064 1.391 . S
C3063 C3062 1.386 . S
C3063 C3067 1.393 . S
C3064 H3053 0.950 . S
C3064 C3062 1.391 . S
C3064 C3065 1.400 . S
C3065 C3059 1.491 . S
C3065 C3064 1.400 . S
C3065 C3066 1.398 . S
C3066 H3054 0.950 . S
C3066 C3065 1.398 . S
C3066 C3067 1.391 . S
C3067 H3055 0.950 . S
C3067 C3063 1.393 . S
C3067 C3066 1.391 . S
H3068 C3076 0.950 . S
H3069 C3081 0.950 . S
H3070 C3078 0.950 . S
H3071 C3080 0.950 . S
H3072 C3082 0.950 . S
H3073 C3084 0.950 . S
H3074 C3086 0.950 . S
H3075 C3087 0.950 . S
C3076 H3068 0.950 . S
C3076 C3077 1.386 . S
C3076 C3078 1.391 . S
C3077 C3076 1.386 . S
C3077 C3081 1.393 . S
C3078 H3070 0.950 . S
C3078 C3076 1.391 . S
C3078 C3079 1.400 . S
C3079 C3078 1.400 . S
C3079 C3080 1.398 . S
C3079 C3085 1.491 . S
C3080 H3071 0.950 . S
C3080 C3079 1.398 . S
C3080 C3081 1.391 . S
C3081 H3069 0.950 . S
C3081 C3077 1.393 . S
C3081 C3080 1.391 . S
C3082 H3072 0.950 . S
C3082 C3083 1.386 . S
C3082 C3084 1.391 . S
C3083 C3082 1.386 . S
C3083 C3087 1.393 . S
C3084 H3073 0.950 . S
C3084 C3082 1.391 . S
C3084 C3085 1.400 . S
C3085 C3079 1.491 . S
C3085 C3084 1.400 . S
C3085 C3086 1.398 . S
C3086 H3074 0.950 . S
C3086 C3085 1.398 . S
C3086 C3087 1.391 . S
C3087 H3075 0.950 . S
C3087 C3083 1.393 . S
C3087 C3086 1.391 . S
H3088 C3096 0.950 . S
H3089 C3101 0.950 . S
H3090 C3098 0.950 . S
H3091 C3100 0.950 . S
H3092 C3102 0.950 . S
H3093 C3104 0.950 . S
H3094 C3106 0.950 . S
H3095 C3107 0.950 . S
C3096 H3088 0.950 . S
C3096 C3097 1.386 . S
C3096 C3098 1.391 . S
C3097 C3096 1.386 . S
C3097 C3101 1.393 . S
C3098 H3090 0.950 . S
C3098 C3096 1.391 . S
C3098 C3099 1.400 . S
C3099 C3098 1.400 . S
C3099 C3100 1.398 . S
C3099 C3105 1.491 . S
C3100 H3091 0.950 . S
C3100 C3099 1.398 . S
C3100 C3101 1.391 . S
C3101 H3089 0.950 . S
C3101 C3097 1.393 . S
C3101 C3100 1.391 . S
C3102 H3092 0.950 . S
C3102 C3103 1.386 . S
C3102 C3104 1.391 . S
C3103 C3102 1.386 . S
C3103 C3107 1.393 . S
C3104 H3093 0.950 . S
C3104 C3102 1.391 . S
C3104 C3105 1.400 . S
C3105 C3099 1.491 . S
C3105 C3104 1.400 . S
C3105 C3106 1.398 . S
C3106 H3094 0.950 . S
C3106 C3105 1.398 . S
C3106 C3107 1.391 . S
C3107 H3095 0.950 . S
C3107 C3103 1.393 . S
C3107 C3106 1.391 . S
H3108 C3116 0.950 . S
H3109 C3121 0.950 . S
H3110 C3118 0.950 . S
H3111 C3120 0.950 . S
H3112 C3122 0.950 . S
H3113 C3124 0.950 . S
H3114 C3126 0.950 . S
H3115 C3127 0.950 . S
C3116 H3108 0.950 . S
C3116 C3117 1.386 . S
C3116 C3118 1.391 . S
C3117 C3116 1.386 . S
C3117 C3121 1.393 . S
C3118 H3110 0.950 . S
C3118 C3116 1.391 . S
C3118 C3119 1.400 . S
C3119 C3118 1.400 . S
C3119 C3120 1.398 . S
C3119 C3125 1.491 . S
C3120 H3111 0.950 . S
C3120 C3119 1.398 . S
C3120 C3121 1.391 . S
C3121 H3109 0.950 . S
C3121 C3117 1.393 . S
C3121 C3120 1.391 . S
C3122 H3112 0.950 . S
C3122 C3123 1.386 . S
C3122 C3124 1.391 . S
C3123 C3122 1.386 . S
C3123 C3127 1.393 . S
C3124 H3113 0.950 . S
C3124 C3122 1.391 . S
C3124 C3125 1.400 . S
C3125 C3119 1.491 . S
C3125 C3124 1.400 . S
C3125 C3126 1.398 . S
C3126 H3114 0.950 . S
C3126 C3125 1.398 . S
C3126 C3127 1.391 . S
C3127 H3115 0.950 . S
C3127 C3123 1.393 . S
C3127 C3126 1.391 . S
H3128 C3136 0.950 . S
H3129 C3141 0.950 . S
H3130 C3138 0.950 . S
H3131 C3140 0.950 . S
H3132 C3142 0.950 . S
H3133 C3144 0.950 . S
H3134 C3146 0.950 . S
H3135 C3147 0.950 . S
C3136 H3128 0.950 . S
C3136 C3137 1.386 . S
C3136 C3138 1.391 . S
C3137 C3136 1.386 . S
C3137 C3141 1.393 . S
C3138 H3130 0.950 . S
C3138 C3136 1.391 . S
C3138 C3139 1.400 . S
C3139 C3138 1.400 . S
C3139 C3140 1.398 . S
C3139 C3145 1.491 . S
C3140 H3131 0.950 . S
C3140 C3139 1.398 . S
C3140 C3141 1.391 . S
C3141 H3129 0.950 . S
C3141 C3137 1.393 . S
C3141 C3140 1.391 . S
C3142 H3132 0.950 . S
C3142 C3143 1.386 . S
C3142 C3144 1.391 . S
C3143 C3142 1.386 . S
C3143 C3147 1.393 . S
C3144 H3133 0.950 . S
C3144 C3142 1.391 . S
C3144 C3145 1.400 . S
C3145 C3139 1.491 . S
C3145 C3144 1.400 . S
C3145 C3146 1.398 . S
C3146 H3134 0.950 . S
C3146 C3145 1.398 . S
C3146 C3147 1.391 . S
C3147 H3135 0.950 . S
C3147 C3143 1.393 . S
C3147 C3146 1.391 . S
H3148 C3156 0.950 . S
H3149 C3161 0.950 . S
H3150 C3158 0.950 . S
H3151 C3160 0.950 . S
H3152 C3162 0.950 . S
H3153 C3164 0.950 . S
H3154 C3166 0.950 . S
H3155 C3167 0.950 . S
C3156 H3148 0.950 . S
C3156 C3157 1.386 . S
C3156 C3158 1.391 . S
C3157 C3156 1.386 . S
C3157 C3161 1.393 . S
C3158 H3150 0.950 . S
C3158 C3156 1.391 . S
C3158 C3159 1.400 . S
C3159 C3158 1.400 . S
C3159 C3160 1.398 . S
C3159 C3165 1.491 . S
C3160 H3151 0.950 . S
C3160 C3159 1.398 . S
C3160 C3161 1.391 . S
C3161 H3149 0.950 . S
C3161 C3157 1.393 . S
C3161 C3160 1.391 . S
C3162 H3152 0.950 . S
C3162 C3163 1.386 . S
C3162 C3164 1.391 . S
C3163 C3162 1.386 . S
C3163 C3167 1.393 . S
C3164 H3153 0.950 . S
C3164 C3162 1.391 . S
C3164 C3165 1.400 . S
C3165 C3159 1.491 . S
C3165 C3164 1.400 . S
C3165 C3166 1.398 . S
C3166 H3154 0.950 . S
C3166 C3165 1.398 . S
C3166 C3167 1.391 . S
C3167 H3155 0.950 . S
C3167 C3163 1.393 . S
C3167 C3166 1.391 . S
H3168 C3176 0.950 . S
H3169 C3181 0.950 . S
H3170 C3178 0.950 . S
H3171 C3180 0.950 . S
H3172 C3182 0.950 . S
H3173 C3184 0.950 . S
H3174 C3186 0.950 . S
H3175 C3187 0.950 . S
C3176 H3168 0.950 . S
C3176 C3177 1.386 . S
C3176 C3178 1.391 . S
C3177 C3176 1.386 . S
C3177 C3181 1.393 . S
C3178 H3170 0.950 . S
C3178 C3176 1.391 . S
C3178 C3179 1.400 . S
C3179 C3178 1.400 . S
C3179 C3180 1.398 . S
C3179 C3185 1.491 . S
C3180 H3171 0.950 . S
C3180 C3179 1.398 . S
C3180 C3181 1.391 . S
C3181 H3169 0.950 . S
C3181 C3177 1.393 . S
C3181 C3180 1.391 . S
C3182 H3172 0.950 . S
C3182 C3183 1.386 . S
C3182 C3184 1.391 . S
C3183 C3182 1.386 . S
C3183 C3187 1.393 . S
C3184 H3173 0.950 . S
C3184 C3182 1.391 . S
C3184 C3185 1.400 . S
C3185 C3179 1.491 . S
C3185 C3184 1.400 . S
C3185 C3186 1.398 . S
C3186 H3174 0.950 . S
C3186 C3185 1.398 . S
C3186 C3187 1.391 . S
C3187 H3175 0.950 . S
C3187 C3183 1.393 . S
C3187 C3186 1.391 . S
H3188 C3196 0.950 . S
H3189 C3201 0.950 . S
H3190 C3198 0.950 . S
H3191 C3200 0.950 . S
H3192 C3202 0.950 . S
H3193 C3204 0.950 . S
H3194 C3206 0.950 . S
H3195 C3207 0.950 . S
C3196 H3188 0.950 . S
C3196 C3197 1.386 . S
C3196 C3198 1.391 . S
C3197 C3196 1.386 . S
C3197 C3201 1.393 . S
C3198 H3190 0.950 . S
C3198 C3196 1.391 . S
C3198 C3199 1.400 . S
C3199 C3198 1.400 . S
C3199 C3200 1.398 . S
C3199 C3205 1.491 . S
C3200 H3191 0.950 . S
C3200 C3199 1.398 . S
C3200 C3201 1.391 . S
C3201 H3189 0.950 . S
C3201 C3197 1.393 . S
C3201 C3200 1.391 . S
C3202 H3192 0.950 . S
C3202 C3203 1.386 . S
C3202 C3204 1.391 . S
C3203 C3202 1.386 . S
C3203 C3207 1.393 . S
C3204 H3193 0.950 . S
C3204 C3202 1.391 . S
C3204 C3205 1.400 . S
C3205 C3199 1.491 . S
C3205 C3204 1.400 . S
C3205 C3206 1.398 . S
C3206 H3194 0.950 . S
C3206 C3205 1.398 . S
C3206 C3207 1.391 . S
C3207 H3195 0.950 . S
C3207 C3203 1.393 . S
C3207 C3206 1.391 . S
H3208 C3216 0.950 . S
H3209 C3221 0.950 . S
H3210 C3218 0.950 . S
H3211 C3220 0.950 . S
H3212 C3222 0.950 . S
H3213 C3224 0.950 . S
H3214 C3226 0.950 . S
H3215 C3227 0.950 . S
C3216 H3208 0.950 . S
C3216 C3217 1.386 . S
C3216 C3218 1.391 . S
C3217 C3216 1.386 . S
C3217 C3221 1.393 . S
C3218 H3210 0.950 . S
C3218 C3216 1.391 . S
C3218 C3219 1.400 . S
C3219 C3218 1.400 . S
C3219 C3220 1.398 . S
C3219 C3225 1.491 . S
C3220 H3211 0.950 . S
C3220 C3219 1.398 . S
C3220 C3221 1.391 . S
C3221 H3209 0.950 . S
C3221 C3217 1.393 . S
C3221 C3220 1.391 . S
C3222 H3212 0.950 . S
C3222 C3223 1.386 . S
C3222 C3224 1.391 . S
C3223 C3222 1.386 . S
C3223 C3227 1.393 . S
C3224 H3213 0.950 . S
C3224 C3222 1.391 . S
C3224 C3225 1.400 . S
C3225 C3219 1.491 . S
C3225 C3224 1.400 . S
C3225 C3226 1.398 . S
C3226 H3214 0.950 . S
C3226 C3225 1.398 . S
C3226 C3227 1.391 . S
C3227 H3215 0.950 . S
C3227 C3223 1.393 . S
C3227 C3226 1.391 . S
H3228 C3236 0.950 . S
H3229 C3241 0.950 . S
H3230 C3238 0.950 . S
H3231 C3240 0.950 . S
H3232 C3242 0.950 . S
H3233 C3244 0.950 . S
H3234 C3246 0.950 . S
H3235 C3247 0.950 . S
C3236 H3228 0.950 . S
C3236 C3237 1.386 . S
C3236 C3238 1.391 . S
C3237 C3236 1.386 . S
C3237 C3241 1.393 . S
C3238 H3230 0.950 . S
C3238 C3236 1.391 . S
C3238 C3239 1.400 . S
C3239 C3238 1.400 . S
C3239 C3240 1.398 . S
C3239 C3245 1.491 . S
C3240 H3231 0.950 . S
C3240 C3239 1.398 . S
C3240 C3241 1.391 . S
C3241 H3229 0.950 . S
C3241 C3237 1.393 . S
C3241 C3240 1.391 . S
C3242 H3232 0.950 . S
C3242 C3243 1.386 . S
C3242 C3244 1.391 . S
C3243 C3242 1.386 . S
C3243 C3247 1.393 . S
C3244 H3233 0.950 . S
C3244 C3242 1.391 . S
C3244 C3245 1.400 . S
C3245 C3239 1.491 . S
C3245 C3244 1.400 . S
C3245 C3246 1.398 . S
C3246 H3234 0.950 . S
C3246 C3245 1.398 . S
C3246 C3247 1.391 . S
C3247 H3235 0.950 . S
C3247 C3243 1.393 . S
C3247 C3246 1.391 . S
H3248 C3256 0.950 . S
H3249 C3261 0.950 . S
H3250 C3258 0.950 . S
H3251 C3260 0.950 . S
H3252 C3262 0.950 . S
H3253 C3264 0.950 . S
H3254 C3266 0.950 . S
H3255 C3267 0.950 . S
C3256 H3248 0.950 . S
C3256 C3257 1.386 . S
C3256 C3258 1.391 . S
C3257 C3256 1.386 . S
C3257 C3261 1.393 . S
C3258 H3250 0.950 . S
C3258 C3256 1.391 . S
C3258 C3259 1.400 . S
C3259 C3258 1.400 . S
C3259 C3260 1.398 . S
C3259 C3265 1.491 . S
C3260 H3251 0.950 . S
C3260 C3259 1.398 . S
C3260 C3261 1.391 . S
C3261 H3249 0.950 . S
C3261 C3257 1.393 . S
C3261 C3260 1.391 . S
C3262 H3252 0.950 . S
C3262 C3263 1.386 . S
C3262 C3264 1.391 . S
C3263 C3262 1.386 . S
C3263 C3267 1.393 . S
C3264 H3253 0.950 . S
C3264 C3262 1.391 . S
C3264 C3265 1.400 . S
C3265 C3259 1.491 . S
C3265 C3264 1.400 . S
C3265 C3266 1.398 . S
C3266 H3254 0.950 . S
C3266 C3265 1.398 . S
C3266 C3267 1.391 . S
C3267 H3255 0.950 . S
C3267 C3263 1.393 . S
C3267 C3266 1.391 . S
H3268 C3276 0.950 . S
H3269 C3281 0.950 . S
H3270 C3278 0.950 . S
H3271 C3280 0.950 . S
H3272 C3282 0.950 . S
H3273 C3284 0.950 . S
H3274 C3286 0.950 . S
H3275 C3287 0.950 . S
C3276 H3268 0.950 . S
C3276 C3277 1.386 . S
C3276 C3278 1.391 . S
C3277 C3276 1.386 . S
C3277 C3281 1.393 . S
C3278 H3270 0.950 . S
C3278 C3276 1.391 . S
C3278 C3279 1.400 . S
C3279 C3278 1.400 . S
C3279 C3280 1.398 . S
C3279 C3285 1.491 . S
C3280 H3271 0.950 . S
C3280 C3279 1.398 . S
C3280 C3281 1.391 . S
C3281 H3269 0.950 . S
C3281 C3277 1.393 . S
C3281 C3280 1.391 . S
C3282 H3272 0.950 . S
C3282 C3283 1.386 . S
C3282 C3284 1.391 . S
C3283 C3282 1.386 . S
C3283 C3287 1.393 . S
C3284 H3273 0.950 . S
C3284 C3282 1.391 . S
C3284 C3285 1.400 . S
C3285 C3279 1.491 . S
C3285 C3284 1.400 . S
C3285 C3286 1.398 . S
C3286 H3274 0.950 . S
C3286 C3285 1.398 . S
C3286 C3287 1.391 . S
C3287 H3275 0.950 . S
C3287 C3283 1.393 . S
C3287 C3286 1.391 . S
H3288 C3296 0.950 . S
H3289 C3301 0.950 . S
H3290 C3298 0.950 . S
H3291 C3300 0.950 . S
H3292 C3302 0.950 . S
H3293 C3304 0.950 . S
H3294 C3306 0.950 . S
H3295 C3307 0.950 . S
C3296 H3288 0.950 . S
C3296 C3297 1.386 . S
C3296 C3298 1.391 . S
C3297 C3296 1.386 . S
C3297 C3301 1.393 . S
C3298 H3290 0.950 . S
C3298 C3296 1.391 . S
C3298 C3299 1.400 . S
C3299 C3298 1.400 . S
C3299 C3300 1.398 . S
C3299 C3305 1.491 . S
C3300 H3291 0.950 . S
C3300 C3299 1.398 . S
C3300 C3301 1.391 . S
C3301 H3289 0.950 . S
C3301 C3297 1.393 . S
C3301 C3300 1.391 . S
C3302 H3292 0.950 . S
C3302 C3303 1.386 . S
C3302 C3304 1.391 . S
C3303 C3302 1.386 . S
C3303 C3307 1.393 . S
C3304 H3293 0.950 . S
C3304 C3302 1.391 . S
C3304 C3305 1.400 . S
C3305 C3299 1.491 . S
C3305 C3304 1.400 . S
C3305 C3306 1.398 . S
C3306 H3294 0.950 . S
C3306 C3305 1.398 . S
C3306 C3307 1.391 . S
C3307 H3295 0.950 . S
C3307 C3303 1.393 . S
C3307 C3306 1.391 . S
H3308 C3316 0.950 . S
H3309 C3321 0.950 . S
H3310 C3318 0.950 . S
H3311 C3320 0.950 . S
H3312 C3322 0.950 . S
H3313 C3324 0.950 . S
H3314 C3326 0.950 . S
H3315 C3327 0.950 . S
C3316 H3308 0.950 . S
C3316 C3317 1.386 . S
C3316 C3318 1.391 . S
C3317 C3316 1.386 . S
C3317 C3321 1.393 . S
C3318 H3310 0.950 . S
C3318 C3316 1.391 . S
C3318 C3319 1.400 . S
C3319 C3318 1.400 . S
C3319 C3320 1.398 . S
C3319 C3325 1.491 . S
C3320 H3311 0.950 . S
C3320 C3319 1.398 . S
C3320 C3321 1.391 . S
C3321 H3309 0.950 . S
C3321 C3317 1.393 . S
C3321 C3320 1.391 . S
C3322 H3312 0.950 . S
C3322 C3323 1.386 . S
C3322 C3324 1.391 . S
C3323 C3322 1.386 . S
C3323 C3327 1.393 . S
C3324 H3313 0.950 . S
C3324 C3322 1.391 . S
C3324 C3325 1.400 . S
C3325 C3319 1.491 . S
C3325 C3324 1.400 . S
C3325 C3326 1.398 . S
C3326 H3314 0.950 . S
C3326 C3325 1.398 . S
C3326 C3327 1.391 . S
C3327 H3315 0.950 . S
C3327 C3323 1.393 . S
C3327 C3326 1.391 . S
H3328 C3336 0.950 . S
H3329 C3341 0.950 . S
H3330 C3338 0.950 . S
H3331 C3340 0.950 . S
H3332 C3342 0.950 . S
H3333 C3344 0.950 . S
H3334 C3346 0.950 . S
H3335 C3347 0.950 . S
C3336 H3328 0.950 . S
C3336 C3337 1.386 . S
C3336 C3338 1.391 . S
C3337 C3336 1.386 . S
C3337 C3341 1.393 . S
C3338 H3330 0.950 . S
C3338 C3336 1.391 . S
C3338 C3339 1.400 . S
C3339 C3338 1.400 . S
C3339 C3340 1.398 . S
C3339 C3345 1.491 . S
C3340 H3331 0.950 . S
C3340 C3339 1.398 . S
C3340 C3341 1.391 . S
C3341 H3329 0.950 . S
C3341 C3337 1.393 . S
C3341 C3340 1.391 . S
C3342 H3332 0.950 . S
C3342 C3343 1.386 . S
C3342 C3344 1.391 . S
C3343 C3342 1.386 . S
C3343 C3347 1.393 . S
C3344 H3333 0.950 . S
C3344 C3342 1.391 . S
C3344 C3345 1.400 . S
C3345 C3339 1.491 . S
C3345 C3344 1.400 . S
C3345 C3346 1.398 . S
C3346 H3334 0.950 . S
C3346 C3345 1.398 . S
C3346 C3347 1.391 . S
C3347 H3335 0.950 . S
C3347 C3343 1.393 . S
C3347 C3346 1.391 . S
H3348 C3356 0.950 . S
H3349 C3361 0.950 . S
H3350 C3358 0.950 . S
H3351 C3360 0.950 . S
H3352 C3362 0.950 . S
H3353 C3364 0.950 . S
H3354 C3366 0.950 . S
H3355 C3367 0.950 . S
C3356 H3348 0.950 . S
C3356 C3357 1.386 . S
C3356 C3358 1.391 . S
C3357 C3356 1.386 . S
C3357 C3361 1.393 . S
C3358 H3350 0.950 . S
C3358 C3356 1.391 . S
C3358 C3359 1.400 . S
C3359 C3358 1.400 . S
C3359 C3360 1.398 . S
C3359 C3365 1.491 . S
C3360 H3351 0.950 . S
C3360 C3359 1.398 . S
C3360 C3361 1.391 . S
C3361 H3349 0.950 . S
C3361 C3357 1.393 . S
C3361 C3360 1.391 . S
C3362 H3352 0.950 . S
C3362 C3363 1.386 . S
C3362 C3364 1.391 . S
C3363 C3362 1.386 . S
C3363 C3367 1.393 . S
C3364 H3353 0.950 . S
C3364 C3362 1.391 . S
C3364 C3365 1.400 . S
C3365 C3359 1.491 . S
C3365 C3364 1.400 . S
C3365 C3366 1.398 . S
C3366 H3354 0.950 . S
C3366 C3365 1.398 . S
C3366 C3367 1.391 . S
C3367 H3355 0.950 . S
C3367 C3363 1.393 . S
C3367 C3366 1.391 . S
H3368 C3376 0.950 . S
H3369 C3381 0.950 . S
H3370 C3378 0.950 . S
H3371 C3380 0.950 . S
H3372 C3382 0.950 . S
H3373 C3384 0.950 . S
H3374 C3386 0.950 . S
H3375 C3387 0.950 . S
C3376 H3368 0.950 . S
C3376 C3377 1.386 . S
C3376 C3378 1.391 . S
C3377 C3376 1.386 . S
C3377 C3381 1.393 . S
C3378 H3370 0.950 . S
C3378 C3376 1.391 . S
C3378 C3379 1.400 . S
C3379 C3378 1.400 . S
C3379 C3380 1.398 . S
C3379 C3385 1.491 . S
C3380 H3371 0.950 . S
C3380 C3379 1.398 . S
C3380 C3381 1.391 . S
C3381 H3369 0.950 . S
C3381 C3377 1.393 . S
C3381 C3380 1.391 . S
C3382 H3372 0.950 . S
C3382 C3383 1.386 . S
C3382 C3384 1.391 . S
C3383 C3382 1.386 . S
C3383 C3387 1.393 . S
C3384 H3373 0.950 . S
C3384 C3382 1.391 . S
C3384 C3385 1.400 . S
C3385 C3379 1.491 . S
C3385 C3384 1.400 . S
C3385 C3386 1.398 . S
C3386 H3374 0.950 . S
C3386 C3385 1.398 . S
C3386 C3387 1.391 . S
C3387 H3375 0.950 . S
C3387 C3383 1.393 . S
C3387 C3386 1.391 . S
H3388 C3396 0.950 . S
H3389 C3401 0.950 . S
H3390 C3398 0.950 . S
H3391 C3400 0.950 . S
H3392 C3402 0.950 . S
H3393 C3404 0.950 . S
H3394 C3406 0.950 . S
H3395 C3407 0.950 . S
C3396 H3388 0.950 . S
C3396 C3397 1.386 . S
C3396 C3398 1.391 . S
C3397 C3396 1.386 . S
C3397 C3401 1.393 . S
C3398 H3390 0.950 . S
C3398 C3396 1.391 . S
C3398 C3399 1.400 . S
C3399 C3398 1.400 . S
C3399 C3400 1.398 . S
C3399 C3405 1.491 . S
C3400 H3391 0.950 . S
C3400 C3399 1.398 . S
C3400 C3401 1.391 . S
C3401 H3389 0.950 . S
C3401 C3397 1.393 . S
C3401 C3400 1.391 . S
C3402 H3392 0.950 . S
C3402 C3403 1.386 . S
C3402 C3404 1.391 . S
C3403 C3402 1.386 . S
C3403 C3407 1.393 . S
C3404 H3393 0.950 . S
C3404 C3402 1.391 . S
C3404 C3405 1.400 . S
C3405 C3399 1.491 . S
C3405 C3404 1.400 . S
C3405 C3406 1.398 . S
C3406 H3394 0.950 . S
C3406 C3405 1.398 . S
C3406 C3407 1.391 . S
C3407 H3395 0.950 . S
C3407 C3403 1.393 . S
C3407 C3406 1.391 . S
H3408 C3416 0.950 . S
H3409 C3421 0.950 . S
H3410 C3418 0.950 . S
H3411 C3420 0.950 . S
H3412 C3422 0.950 . S
H3413 C3424 0.950 . S
H3414 C3426 0.950 . S
H3415 C3427 0.950 . S
C3416 H3408 0.950 . S
C3416 C3417 1.386 . S
C3416 C3418 1.391 . S
C3417 C3416 1.386 . S
C3417 C3421 1.393 . S
C3418 H3410 0.950 . S
C3418 C3416 1.391 . S
C3418 C3419 1.400 . S
C3419 C3418 1.400 . S
C3419 C3420 1.398 . S
C3419 C3425 1.491 . S
C3420 H3411 0.950 . S
C3420 C3419 1.398 . S
C3420 C3421 1.391 . S
C3421 H3409 0.950 . S
C3421 C3417 1.393 . S
C3421 C3420 1.391 . S
C3422 H3412 0.950 . S
C3422 C3423 1.386 . S
C3422 C3424 1.391 . S
C3423 C3422 1.386 . S
C3423 C3427 1.393 . S
C3424 H3413 0.950 . S
C3424 C3422 1.391 . S
C3424 C3425 1.400 . S
C3425 C3419 1.491 . S
C3425 C3424 1.400 . S
C3425 C3426 1.398 . S
C3426 H3414 0.950 . S
C3426 C3425 1.398 . S
C3426 C3427 1.391 . S
C3427 H3415 0.950 . S
C3427 C3423 1.393 . S
C3427 C3426 1.391 . S
H3428 C3436 0.950 . S
H3429 C3441 0.950 . S
H3430 C3438 0.950 . S
H3431 C3440 0.950 . S
H3432 C3442 0.950 . S
H3433 C3444 0.950 . S
H3434 C3446 0.950 . S
H3435 C3447 0.950 . S
C3436 H3428 0.950 . S
C3436 C3437 1.386 . S
C3436 C3438 1.391 . S
C3437 C3436 1.386 . S
C3437 C3441 1.393 . S
C3438 H3430 0.950 . S
C3438 C3436 1.391 . S
C3438 C3439 1.400 . S
C3439 C3438 1.400 . S
C3439 C3440 1.398 . S
C3439 C3445 1.491 . S
C3440 H3431 0.950 . S
C3440 C3439 1.398 . S
C3440 C3441 1.391 . S
C3441 H3429 0.950 . S
C3441 C3437 1.393 . S
C3441 C3440 1.391 . S
C3442 H3432 0.950 . S
C3442 C3443 1.386 . S
C3442 C3444 1.391 . S
C3443 C3442 1.386 . S
C3443 C3447 1.393 . S
C3444 H3433 0.950 . S
C3444 C3442 1.391 . S
C3444 C3445 1.400 . S
C3445 C3439 1.491 . S
C3445 C3444 1.400 . S
C3445 C3446 1.398 . S
C3446 H3434 0.950 . S
C3446 C3445 1.398 . S
C3446 C3447 1.391 . S
C3447 H3435 0.950 . S
C3447 C3443 1.393 . S
C3447 C3446 1.391 . S
H3448 C3456 0.950 . S
H3449 C3461 0.950 . S
H3450 C3458 0.950 . S
H3451 C3460 0.950 . S
H3452 C3462 0.950 . S
H3453 C3464 0.950 . S
H3454 C3466 0.950 . S
H3455 C3467 0.950 . S
C3456 H3448 0.950 . S
C3456 C3457 1.386 . S
C3456 C3458 1.391 . S
C3457 C3456 1.386 . S
C3457 C3461 1.393 . S
C3458 H3450 0.950 . S
C3458 C3456 1.391 . S
C3458 C3459 1.400 . S
C3459 C3458 1.400 . S
C3459 C3460 1.398 . S
C3459 C3465 1.491 . S
C3460 H3451 0.950 . S
C3460 C3459 1.398 . S
C3460 C3461 1.391 . S
C3461 H3449 0.950 . S
C3461 C3457 1.393 . S
C3461 C3460 1.391 . S
C3462 H3452 0.950 . S
C3462 C3463 1.386 . S
C3462 C3464 1.391 . S
C3463 C3462 1.386 . S
C3463 C3467 1.393 . S
C3464 H3453 0.950 . S
C3464 C3462 1.391 . S
C3464 C3465 1.400 . S
C3465 C3459 1.491 . S
C3465 C3464 1.400 . S
C3465 C3466 1.398 . S
C3466 H3454 0.950 . S
C3466 C3465 1.398 . S
C3466 C3467 1.391 . S
C3467 H3455 0.950 . S
C3467 C3463 1.393 . S
C3467 C3466 1.391 . S
H3468 C3476 0.950 . S
H3469 C3481 0.950 . S
H3470 C3478 0.950 . S
H3471 C3480 0.950 . S
H3472 C3482 0.950 . S
H3473 C3484 0.950 . S
H3474 C3486 0.950 . S
H3475 C3487 0.950 . S
C3476 H3468 0.950 . S
C3476 C3477 1.386 . S
C3476 C3478 1.391 . S
C3477 C3476 1.386 . S
C3477 C3481 1.393 . S
C3478 H3470 0.950 . S
C3478 C3476 1.391 . S
C3478 C3479 1.400 . S
C3479 C3478 1.400 . S
C3479 C3480 1.398 . S
C3479 C3485 1.491 . S
C3480 H3471 0.950 . S
C3480 C3479 1.398 . S
C3480 C3481 1.391 . S
C3481 H3469 0.950 . S
C3481 C3477 1.393 . S
C3481 C3480 1.391 . S
C3482 H3472 0.950 . S
C3482 C3483 1.386 . S
C3482 C3484 1.391 . S
C3483 C3482 1.386 . S
C3483 C3487 1.393 . S
C3484 H3473 0.950 . S
C3484 C3482 1.391 . S
C3484 C3485 1.400 . S
C3485 C3479 1.491 . S
C3485 C3484 1.400 . S
C3485 C3486 1.398 . S
C3486 H3474 0.950 . S
C3486 C3485 1.398 . S
C3486 C3487 1.391 . S
C3487 H3475 0.950 . S
C3487 C3483 1.393 . S
C3487 C3486 1.391 . S
H3488 C3496 0.950 . S
H3489 C3501 0.950 . S
H3490 C3498 0.950 . S
H3491 C3500 0.950 . S
H3492 C3502 0.950 . S
H3493 C3504 0.950 . S
H3494 C3506 0.950 . S
H3495 C3507 0.950 . S
C3496 H3488 0.950 . S
C3496 C3497 1.386 . S
C3496 C3498 1.391 . S
C3497 C3496 1.386 . S
C3497 C3501 1.393 . S
C3498 H3490 0.950 . S
C3498 C3496 1.391 . S
C3498 C3499 1.400 . S
C3499 C3498 1.400 . S
C3499 C3500 1.398 . S
C3499 C3505 1.491 . S
C3500 H3491 0.950 . S
C3500 C3499 1.398 . S
C3500 C3501 1.391 . S
C3501 H3489 0.950 . S
C3501 C3497 1.393 . S
C3501 C3500 1.391 . S
C3502 H3492 0.950 . S
C3502 C3503 1.386 . S
C3502 C3504 1.391 . S
C3503 C3502 1.386 . S
C3503 C3507 1.393 . S
C3504 H3493 0.950 . S
C3504 C3502 1.391 . S
C3504 C3505 1.400 . S
C3505 C3499 1.491 . S
C3505 C3504 1.400 . S
C3505 C3506 1.398 . S
C3506 H3494 0.950 . S
C3506 C3505 1.398 . S
C3506 C3507 1.391 . S
C3507 H3495 0.950 . S
C3507 C3503 1.393 . S
C3507 C3506 1.391 . S
H3508 C3516 0.950 . S
H3509 C3521 0.950 . S
H3510 C3518 0.950 . S
H3511 C3520 0.950 . S
H3512 C3522 0.950 . S
H3513 C3524 0.950 . S
H3514 C3526 0.950 . S
H3515 C3527 0.950 . S
C3516 H3508 0.950 . S
C3516 C3517 1.386 . S
C3516 C3518 1.391 . S
C3517 C3516 1.386 . S
C3517 C3521 1.393 . S
C3518 H3510 0.950 . S
C3518 C3516 1.391 . S
C3518 C3519 1.400 . S
C3519 C3518 1.400 . S
C3519 C3520 1.398 . S
C3519 C3525 1.491 . S
C3520 H3511 0.950 . S
C3520 C3519 1.398 . S
C3520 C3521 1.391 . S
C3521 H3509 0.950 . S
C3521 C3517 1.393 . S
C3521 C3520 1.391 . S
C3522 H3512 0.950 . S
C3522 C3523 1.386 . S
C3522 C3524 1.391 . S
C3523 C3522 1.386 . S
C3523 C3527 1.393 . S
C3524 H3513 0.950 . S
C3524 C3522 1.391 . S
C3524 C3525 1.400 . S
C3525 C3519 1.491 . S
C3525 C3524 1.400 . S
C3525 C3526 1.398 . S
C3526 H3514 0.950 . S
C3526 C3525 1.398 . S
C3526 C3527 1.391 . S
C3527 H3515 0.950 . S
C3527 C3523 1.393 . S
C3527 C3526 1.391 . S
H3528 C3536 0.950 . S
H3529 C3541 0.950 . S
H3530 C3538 0.950 . S
H3531 C3540 0.950 . S
H3532 C3542 0.950 . S
H3533 C3544 0.950 . S
H3534 C3546 0.950 . S
H3535 C3547 0.950 . S
C3536 H3528 0.950 . S
C3536 C3537 1.386 . S
C3536 C3538 1.391 . S
C3537 C3536 1.386 . S
C3537 C3541 1.393 . S
C3538 H3530 0.950 . S
C3538 C3536 1.391 . S
C3538 C3539 1.400 . S
C3539 C3538 1.400 . S
C3539 C3540 1.398 . S
C3539 C3545 1.491 . S
C3540 H3531 0.950 . S
C3540 C3539 1.398 . S
C3540 C3541 1.391 . S
C3541 H3529 0.950 . S
C3541 C3537 1.393 . S
C3541 C3540 1.391 . S
C3542 H3532 0.950 . S
C3542 C3543 1.386 . S
C3542 C3544 1.391 . S
C3543 C3542 1.386 . S
C3543 C3547 1.393 . S
C3544 H3533 0.950 . S
C3544 C3542 1.391 . S
C3544 C3545 1.400 . S
C3545 C3539 1.491 . S
C3545 C3544 1.400 . S
C3545 C3546 1.398 . S
C3546 H3534 0.950 . S
C3546 C3545 1.398 . S
C3546 C3547 1.391 . S
C3547 H3535 0.950 . S
C3547 C3543 1.393 . S
C3547 C3546 1.391 . S
H3548 C3556 0.950 . S
H3549 C3561 0.950 . S
H3550 C3558 0.950 . S
H3551 C3560 0.950 . S
H3552 C3562 0.950 . S
H3553 C3564 0.950 . S
H3554 C3566 0.950 . S
H3555 C3567 0.950 . S
C3556 H3548 0.950 . S
C3556 C3557 1.386 . S
C3556 C3558 1.391 . S
C3557 C3556 1.386 . S
C3557 C3561 1.393 . S
C3558 H3550 0.950 . S
C3558 C3556 1.391 . S
C3558 C3559 1.400 . S
C3559 C3558 1.400 . S
C3559 C3560 1.398 . S
C3559 C3565 1.491 . S
C3560 H3551 0.950 . S
C3560 C3559 1.398 . S
C3560 C3561 1.391 . S
C3561 H3549 0.950 . S
C3561 C3557 1.393 . S
C3561 C3560 1.391 . S
C3562 H3552 0.950 . S
C3562 C3563 1.386 . S
C3562 C3564 1.391 . S
C3563 C3562 1.386 . S
C3563 C3567 1.393 . S
C3564 H3553 0.950 . S
C3564 C3562 1.391 . S
C3564 C3565 1.400 . S
C3565 C3559 1.491 . S
C3565 C3564 1.400 . S
C3565 C3566 1.398 . S
C3566 H3554 0.950 . S
C3566 C3565 1.398 . S
C3566 C3567 1.391 . S
C3567 H3555 0.950 . S
C3567 C3563 1.393 . S
C3567 C3566 1.391 . S
H3568 C3576 0.950 . S
H3569 C3581 0.950 . S
H3570 C3578 0.950 . S
H3571 C3580 0.950 . S
H3572 C3582 0.950 . S
H3573 C3584 0.950 . S
H3574 C3586 0.950 . S
H3575 C3587 0.950 . S
C3576 H3568 0.950 . S
C3576 C3577 1.386 . S
C3576 C3578 1.391 . S
C3577 C3576 1.386 . S
C3577 C3581 1.393 . S
C3578 H3570 0.950 . S
C3578 C3576 1.391 . S
C3578 C3579 1.400 . S
C3579 C3578 1.400 . S
C3579 C3580 1.398 . S
C3579 C3585 1.491 . S
C3580 H3571 0.950 . S
C3580 C3579 1.398 . S
C3580 C3581 1.391 . S
C3581 H3569 0.950 . S
C3581 C3577 1.393 . S
C3581 C3580 1.391 . S
C3582 H3572 0.950 . S
C3582 C3583 1.386 . S
C3582 C3584 1.391 . S
C3583 C3582 1.386 . S
C3583 C3587 1.393 . S
C3584 H3573 0.950 . S
C3584 C3582 1.391 . S
C3584 C3585 1.400 . S
C3585 C3579 1.491 . S
C3585 C3584 1.400 . S
C3585 C3586 1.398 . S
C3586 H3574 0.950 . S
C3586 C3585 1.398 . S
C3586 C3587 1.391 . S
C3587 H3575 0.950 . S
C3587 C3583 1.393 . S
C3587 C3586 1.391 . S
H3588 C3596 0.950 . S
H3589 C3601 0.950 . S
H3590 C3598 0.950 . S
H3591 C3600 0.950 . S
H3592 C3602 0.950 . S
H3593 C3604 0.950 . S
H3594 C3606 0.950 . S
H3595 C3607 0.950 . S
C3596 H3588 0.950 . S
C3596 C3597 1.386 . S
C3596 C3598 1.391 . S
C3597 C3596 1.386 . S
C3597 C3601 1.393 . S
C3598 H3590 0.950 . S
C3598 C3596 1.391 . S
C3598 C3599 1.400 . S
C3599 C3598 1.400 . S
C3599 C3600 1.398 . S
C3599 C3605 1.491 . S
C3600 H3591 0.950 . S
C3600 C3599 1.398 . S
C3600 C3601 1.391 . S
C3601 H3589 0.950 . S
C3601 C3597 1.393 . S
C3601 C3600 1.391 . S
C3602 H3592 0.950 . S
C3602 C3603 1.386 . S
C3602 C3604 1.391 . S
C3603 C3602 1.386 . S
C3603 C3607 1.393 . S
C3604 H3593 0.950 . S
C3604 C3602 1.391 . S
C3604 C3605 1.400 . S
C3605 C3599 1.491 . S
C3605 C3604 1.400 . S
C3605 C3606 1.398 . S
C3606 H3594 0.950 . S
C3606 C3605 1.398 . S
C3606 C3607 1.391 . S
C3607 H3595 0.950 . S
C3607 C3603 1.393 . S
C3607 C3606 1.391 . S
H3608 C3616 0.950 . S
H3609 C3621 0.950 . S
H3610 C3618 0.950 . S
H3611 C3620 0.950 . S
H3612 C3622 0.950 . S
H3613 C3624 0.950 . S
H3614 C3626 0.950 . S
H3615 C3627 0.950 . S
C3616 H3608 0.950 . S
C3616 C3617 1.386 . S
C3616 C3618 1.391 . S
C3617 C3616 1.386 . S
C3617 C3621 1.393 . S
C3618 H3610 0.950 . S
C3618 C3616 1.391 . S
C3618 C3619 1.400 . S
C3619 C3618 1.400 . S
C3619 C3620 1.398 . S
C3619 C3625 1.491 . S
C3620 H3611 0.950 . S
C3620 C3619 1.398 . S
C3620 C3621 1.391 . S
C3621 H3609 0.950 . S
C3621 C3617 1.393 . S
C3621 C3620 1.391 . S
C3622 H3612 0.950 . S
C3622 C3623 1.386 . S
C3622 C3624 1.391 . S
C3623 C3622 1.386 . S
C3623 C3627 1.393 . S
C3624 H3613 0.950 . S
C3624 C3622 1.391 . S
C3624 C3625 1.400 . S
C3625 C3619 1.491 . S
C3625 C3624 1.400 . S
C3625 C3626 1.398 . S
C3626 H3614 0.950 . S
C3626 C3625 1.398 . S
C3626 C3627 1.391 . S
C3627 H3615 0.950 . S
C3627 C3623 1.393 . S
C3627 C3626 1.391 . S
H3628 C3636 0.950 . S
H3629 C3641 0.950 . S
H3630 C3638 0.950 . S
H3631 C3640 0.950 . S
H3632 C3642 0.950 . S
H3633 C3644 0.950 . S
H3634 C3646 0.950 . S
H3635 C3647 0.950 . S
C3636 H3628 0.950 . S
C3636 C3637 1.386 . S
C3636 C3638 1.391 . S
C3637 C3636 1.386 . S
C3637 C3641 1.393 . S
C3638 H3630 0.950 . S
C3638 C3636 1.391 . S
C3638 C3639 1.400 . S
C3639 C3638 1.400 . S
C3639 C3640 1.398 . S
C3639 C3645 1.491 . S
C3640 H3631 0.950 . S
C3640 C3639 1.398 . S
C3640 C3641 1.391 . S
C3641 H3629 0.950 . S
C3641 C3637 1.393 . S
C3641 C3640 1.391 . S
C3642 H3632 0.950 . S
C3642 C3643 1.386 . S
C3642 C3644 1.391 . S
C3643 C3642 1.386 . S
C3643 C3647 1.393 . S
C3644 H3633 0.950 . S
C3644 C3642 1.391 . S
C3644 C3645 1.400 . S
C3645 C3639 1.491 . S
C3645 C3644 1.400 . S
C3645 C3646 1.398 . S
C3646 H3634 0.950 . S
C3646 C3645 1.398 . S
C3646 C3647 1.391 . S
C3647 H3635 0.950 . S
C3647 C3643 1.393 . S
C3647 C3646 1.391 . S
C1737 C1119 1.343 . S
C1743 C3 1.347 . S
C1757 C39 1.344 . S
C1763 C1011 1.344 . S
C1777 C75 1.343 . S
C1783 C1047 1.344 . S
C1797 C1083 1.348 . S
C1803 C111 1.343 . S
C1817 C903 1.344 . S
C1823 C147 1.344 . S
C1837 C183 1.344 . S
C1843 C939 1.344 . S
C1857 C975 1.346 . S
C1863 C219 1.347 . S
C1877 C255 1.343 . S
C1883 C867 1.347 . S
C1897 C291 1.343 . S
C1903 C1587 1.347 . S
C1917 C1479 1.343 . S
C1923 C327 1.347 . S
C1937 C1515 1.344 . S
C1943 C363 1.344 . S
C1957 C399 1.343 . S
C1963 C1551 1.345 . S
C1977 C435 1.343 . S
C1983 C1695 1.347 . S
C1997 C471 1.348 . S
C2003 C1623 1.344 . S
C2017 C507 1.344 . S
C2023 C1659 1.348 . S
C2037 C1443 1.348 . S
C2043 C543 1.344 . S
C2057 C1407 1.346 . S
C2063 C579 1.343 . S
C2077 C615 1.344 . S
C2083 C1191 1.344 . S
C2097 C1227 1.346 . S
C2103 C651 1.348 . S
C2117 C687 1.346 . S
C2123 C1263 1.343 . S
C2137 C1155 1.347 . S
C2143 C723 1.343 . S
C2157 C1335 1.348 . S
C2163 C759 1.344 . S
C2177 C795 1.345 . S
C2183 C1371 1.343 . S
C2197 C1299 1.348 . S
C2203 C831 1.345 . S
C2217 C326 1.301 . S
C2223 C2 1.310 . S
C2237 C362 1.311 . S
C2243 C38 1.301 . S
C2257 C74 1.301 . S
C2263 C398 1.308 . S
C2277 C290 1.301 . S
C2283 C110 1.308 . S
C2297 C146 1.315 . S
C2303 C542 1.317 . S
C2317 C434 1.317 . S
C2323 C182 1.304 . S
C2337 C470 1.305 . S
C2343 C218 1.318 . S
C2357 C506 1.312 . S
C2363 C254 1.301 . S
C2377 C650 1.304 . S
C2383 C578 1.303 . S
C2397 C794 1.310 . S
C2403 C614 1.319 . S
C2417 C830 1.306 . S
C2423 C686 1.302 . S
C2437 C722 1.312 . S
C2443 C758 1.319 . S
C2457 C1190 1.318 . S
C2463 C866 1.315 . S
C2477 C1226 1.310 . S
C2483 C902 1.301 . S
C2497 C1262 1.302 . S
C2503 C938 1.307 . S
C2517 C974 1.305 . S
C2523 C1154 1.318 . S
C2537 C1010 1.318 . S
C2543 C1406 1.314 . S
C2557 C1046 1.309 . S
C2563 C1298 1.319 . S
C2577 C1334 1.318 . S
C2583 C1082 1.305 . S
C2597 C1370 1.303 . S
C2603 C1118 1.305 . S
C2617 C1442 1.316 . S
C2623 C1514 1.303 . S
C2637 C1658 1.315 . S
C2643 C1478 1.318 . S
C2657 C1694 1.301 . S
C2663 C1550 1.312 . S
C2677 C1622 1.312 . S
C2683 C1586 1.301 . S
C2697 C14 1.334 . S
C2703 C652 1.363 . S
C2717 C50 1.358 . S
C2723 C688 1.349 . S
C2737 C86 1.341 . S
C2743 C724 1.365 . S
C2757 C616 1.360 . S
C2763 C122 1.335 . S
C2777 C158 1.337 . S
C2783 C796 1.365 . S
C2797 C194 1.338 . S
C2803 C580 1.365 . S
C2817 C832 1.345 . S
C2823 C230 1.350 . S
C2837 C760 1.362 . S
C2843 C266 1.334 . S
C2857 C302 1.335 . S
C2863 C328 1.359 . S
C2877 C338 1.358 . S
C2883 C364 1.345 . S
C2897 C374 1.350 . S
C2903 C400 1.360 . S
C2917 C292 1.344 . S
C2923 C410 1.353 . S
C2937 C544 1.353 . S
C2943 C446 1.340 . S
C2957 C436 1.355 . S
C2963 C482 1.355 . S
C2977 C472 1.356 . S
C2983 C518 1.337 . S
C2997 C554 1.339 . S
C3003 C508 1.354 . S
C3017 C112 1.350 . S
C3023 C590 1.343 . S
C3037 C184 1.362 . S
C3043 C626 1.347 . S
C3057 C220 1.361 . S
C3063 C662 1.335 . S
C3077 C698 1.354 . S
C3083 C256 1.356 . S
C3097 C148 1.350 . S
C3103 C734 1.358 . S
C3117 C40 1.356 . S
C3123 C770 1.337 . S
C3137 C76 1.356 . S
C3143 C806 1.354 . S
C3157 C4 1.355 . S
C3163 C842 1.355 . S
C3177 C1516 1.347 . S
C3183 C878 1.359 . S
C3197 C914 1.337 . S
C3203 C1552 1.365 . S
C3217 C1588 1.345 . S
C3223 C950 1.357 . S
C3237 C1480 1.351 . S
C3243 C986 1.357 . S
C3257 C1022 1.341 . S
C3263 C1660 1.351 . S
C3277 C1058 1.337 . S
C3283 C1444 1.356 . S
C3297 C1696 1.354 . S
C3303 C1094 1.356 . S
C3317 C1130 1.343 . S
C3323 C1624 1.350 . S
C3337 C1166 1.358 . S
C3343 C1192 1.345 . S
C3357 C1202 1.338 . S
C3363 C1228 1.365 . S
C3377 C1238 1.357 . S
C3383 C1264 1.344 . S
C3397 C1274 1.338 . S
C3403 C1156 1.365 . S
C3417 C1408 1.353 . S
C3423 C1310 1.356 . S
C3437 C1300 1.364 . S
C3443 C1346 1.342 . S
C3457 C1336 1.345 . S
C3463 C1382 1.349 . S
C3477 C1418 1.358 . S
C3483 C1372 1.346 . S
C3497 C976 1.344 . S
C3503 C1454 1.357 . S
C3517 C1048 1.344 . S
C3523 C1490 1.357 . S
C3537 C1084 1.344 . S
C3543 C1526 1.355 . S
C3557 C1562 1.352 . S
C3563 C1120 1.357 . S
C3577 C1012 1.352 . S
C3583 C1598 1.341 . S
C3597 C904 1.356 . S
C3603 C1634 1.337 . S
C3617 C1670 1.354 . S
C3623 C940 1.355 . S
C3637 C868 1.353 . S
C3643 C1706 1.356 . S
