# Generated by pormake.
# Topology rac, (4)-cn, num edge types: 1
# Building blocks:
#     Node 0, Type 0, BuildingBlock: KUFVIS_clean_sbu_0, # of connection points: 4
#     Node 1, Type 0, BuildingBlock: KUFVIS_clean_sbu_0, # of connection points: 4
#     Node 2, Type 0, BuildingBlock: KUFVIS_clean_sbu_0, # of connection points: 4
#     Node 3, Type 0, BuildingBlock: KUFVIS_clean_sbu_0, # of connection points: 4
#     Node 4, Type 0, BuildingBlock: KUFVIS_clean_sbu_0, # of connection points: 4
#     Node 5, Type 0, BuildingBlock: KUFVIS_clean_sbu_0, # of connection points: 4
#     Node 6, Type 0, BuildingBlock: KUFVIS_clean_sbu_0, # of connection points: 4
#     Node 7, Type 0, BuildingBlock: KUFVIS_clean_sbu_0, # of connection points: 4
#     Edge 8, Type (0, 0), BuildingBlock: TEMPAE_clean_linker_10, # of connection points: 2
#     Edge 9, Type (0, 0), BuildingBlock: TEMPAE_clean_linker_10, # of connection points: 2
#     Edge 10, Type (0, 0), BuildingBlock: TEMPAE_clean_linker_10, # of connection points: 2
#     Edge 11, Type (0, 0), BuildingBlock: TEMPAE_clean_linker_10, # of connection points: 2
#     Edge 12, Type (0, 0), BuildingBlock: TEMPAE_clean_linker_10, # of connection points: 2
#     Edge 13, Type (0, 0), BuildingBlock: TEMPAE_clean_linker_10, # of connection points: 2
#     Edge 14, Type (0, 0), BuildingBlock: TEMPAE_clean_linker_10, # of connection points: 2
#     Edge 15, Type (0, 0), BuildingBlock: TEMPAE_clean_linker_10, # of connection points: 2
#     Edge 16, Type (0, 0), BuildingBlock: TEMPAE_clean_linker_10, # of connection points: 2
#     Edge 17, Type (0, 0), BuildingBlock: TEMPAE_clean_linker_10, # of connection points: 2
#     Edge 18, Type (0, 0), BuildingBlock: TEMPAE_clean_linker_10, # of connection points: 2
#     Edge 19, Type (0, 0), BuildingBlock: TEMPAE_clean_linker_10, # of connection points: 2
#     Edge 20, Type (0, 0), BuildingBlock: TEMPAE_clean_linker_10, # of connection points: 2
#     Edge 21, Type (0, 0), BuildingBlock: TEMPAE_clean_linker_10, # of connection points: 2
#     Edge 22, Type (0, 0), BuildingBlock: TEMPAE_clean_linker_10, # of connection points: 2
#     Edge 23, Type (0, 0), BuildingBlock: TEMPAE_clean_linker_10, # of connection points: 2
# Relax obj value: 0.207
# Max RMSD: 0.071
# Mean RMSD: 0.071
data_MOF--net-rac--node1-KUFVIS_clean_sbu_0--edge1-TEMPAE_clean_linker_10
_symmetry_space_group_name_H-M    P1
_symmetry_Int_Tables_number       1
_symmetry_cell_setting            triclinic
loop_
_symmetry_equiv_pos_as_xyz
'x, y, z'
_cell_length_a     41.283558
_cell_length_b     21.585864
_cell_length_c     37.275708
_cell_angle_alpha  90.053691
_cell_angle_beta   89.995436
_cell_angle_gamma 89.978113
loop_
_atom_site_label
_atom_site_type_symbol
_atom_site_fract_x
_atom_site_fract_y
_atom_site_fract_z
_atom_type_partial_charge
Mn0 Mn 0.37809 0.27803 0.05564 0.0
Mn1 Mn 0.31867 0.25343 0.1163 0.0
C2 C 0.32809 0.32506 0.04883 0.0
C3 C 0.42286 0.3396 0.03906 0.0
C4 C 0.33522 0.16148 0.05754 0.0
O5 O 0.40295 0.24152 0.09843 0.0
O6 O 0.3613 0.23352 0.13713 0.0
C7 C 0.3368 0.35312 0.16717 0.0
N8 N 0.31415 0.32459 0.14637 0.0
C9 C 0.27243 0.39369 0.1671 0.0
C10 C 0.29518 0.42336 0.18912 0.0
C11 C 0.32759 0.40353 0.18876 0.0
C12 C 0.28318 0.34474 0.14553 0.0
H13 H 0.36168 0.33764 0.16713 0.0
C14 C 0.3914 0.22937 0.12944 0.0
O15 O 0.41867 0.28467 0.02539 0.0
O16 O 0.40179 0.35747 0.06244 0.0
N17 N 0.27572 0.27181 0.10025 0.0
C18 C 0.25737 0.2414 0.07547 0.0
C19 C 0.22454 0.25689 0.07156 0.0
C20 C 0.21075 0.30259 0.09364 0.0
C21 C 0.23011 0.33331 0.11894 0.0
C22 C 0.26274 0.3163 0.12137 0.0
H23 H 0.26756 0.20506 0.05916 0.0
O24 O 0.34754 0.31964 0.02172 0.0
O25 O 0.33877 0.30381 0.07912 0.0
O26 O 0.35766 0.19277 0.04195 0.0
O27 O 0.32084 0.17904 0.08609 0.0
C28 C 0.21832 0.38008 0.1419 0.0
C29 C 0.23958 0.41105 0.16549 0.0
H30 H 0.28811 0.46186 0.20606 0.0
H31 H 0.34537 0.42696 0.20519 0.0
H32 H 0.20978 0.23299 0.05195 0.0
H33 H 0.18534 0.31408 0.09075 0.0
H34 H 0.193 0.39303 0.14138 0.0
H35 H 0.2304 0.44809 0.18225 0.0
Mn36 Mn 0.1279 0.73306 0.05461 0.0
Mn37 Mn 0.18781 0.75754 0.11436 0.0
C38 C 0.17808 0.68628 0.04709 0.0
C39 C 0.08334 0.67044 0.03837 0.0
C40 C 0.17025 0.85008 0.05638 0.0
O41 O 0.10331 0.76883 0.0978 0.0
O42 O 0.14536 0.77661 0.13597 0.0
C43 C 0.17101 0.65783 0.16567 0.0
N44 N 0.19306 0.6863 0.14411 0.0
C45 C 0.2363 0.62315 0.16708 0.0
C46 C 0.21415 0.59335 0.18976 0.0
C47 C 0.18126 0.60999 0.18855 0.0
C48 C 0.22438 0.66828 0.14362 0.0
H49 H 0.14588 0.67183 0.16551 0.0
C50 C 0.11517 0.78064 0.12872 0.0
O51 O 0.08705 0.72551 0.02477 0.0
O52 O 0.10471 0.65313 0.0615 0.0
N53 N 0.23066 0.74 0.0976 0.0
C54 C 0.24858 0.77102 0.07273 0.0
C55 C 0.2817 0.7576 0.06911 0.0
C56 C 0.29632 0.71417 0.09202 0.0
C57 C 0.27752 0.68373 0.11789 0.0
C58 C 0.24437 0.69713 0.11921 0.0
H59 H 0.2378 0.80619 0.05606 0.0
O60 O 0.15834 0.69226 0.0203 0.0
O61 O 0.16752 0.7071 0.0775 0.0
O62 O 0.14777 0.81873 0.04091 0.0
O63 O 0.18502 0.83221 0.08457 0.0
C64 C 0.29044 0.64139 0.14286 0.0
C65 C 0.26977 0.61052 0.16715 0.0
H66 H 0.22211 0.55763 0.20814 0.0
H67 H 0.16399 0.58665 0.20566 0.0
H68 H 0.29608 0.78175 0.04928 0.0
H69 H 0.32202 0.7049 0.08968 0.0
H70 H 0.3161 0.63084 0.1429 0.0
H71 H 0.27984 0.5767 0.18547 0.0
Mn72 Mn 0.37804 0.23113 0.44398 0.0
Mn73 Mn 0.31886 0.25556 0.38302 0.0
C74 C 0.32801 0.18415 0.4506 0.0
C75 C 0.42275 0.16955 0.46092 0.0
C76 C 0.33514 0.34773 0.44171 0.0
O77 O 0.40307 0.26746 0.40125 0.0
O78 O 0.36155 0.27535 0.36236 0.0
C79 C 0.33723 0.15548 0.33249 0.0
N80 N 0.31446 0.18427 0.35303 0.0
C81 C 0.27281 0.11531 0.33207 0.0
C82 C 0.29567 0.08541 0.31029 0.0
C83 C 0.32811 0.105 0.31092 0.0
C84 C 0.28348 0.16427 0.35368 0.0
H85 H 0.36213 0.17079 0.33273 0.0
C86 C 0.39162 0.27954 0.37018 0.0
O87 O 0.41849 0.22456 0.47447 0.0
O88 O 0.40179 0.15162 0.43743 0.0
N89 N 0.27583 0.23731 0.39886 0.0
C90 C 0.25737 0.26785 0.4235 0.0
C91 C 0.2245 0.25255 0.42719 0.0
C92 C 0.2108 0.2069 0.40503 0.0
C93 C 0.23027 0.17604 0.37988 0.0
C94 C 0.26292 0.19285 0.37768 0.0
H95 H 0.26751 0.30418 0.43985 0.0
O96 O 0.34734 0.18966 0.4778 0.0
O97 O 0.33882 0.2053 0.42034 0.0
O98 O 0.35752 0.31648 0.45746 0.0
O99 O 0.32089 0.33007 0.41312 0.0
C100 C 0.21856 0.12931 0.35685 0.0
C101 C 0.23992 0.09816 0.33345 0.0
H102 H 0.28867 0.0469 0.29334 0.0
H103 H 0.34598 0.08131 0.29472 0.0
H104 H 0.20966 0.27656 0.44669 0.0
H105 H 0.18536 0.19556 0.40775 0.0
H106 H 0.19321 0.11652 0.35718 0.0
H107 H 0.23081 0.06114 0.31664 0.0
Mn108 Mn 0.12756 0.7767 0.44436 0.0
Mn109 Mn 0.18743 0.75247 0.38448 0.0
C110 C 0.17773 0.82347 0.45184 0.0
C111 C 0.08297 0.83922 0.46083 0.0
C112 C 0.17001 0.65972 0.44238 0.0
O113 O 0.10294 0.74106 0.40115 0.0
O114 O 0.14497 0.73339 0.36293 0.0
C115 C 0.17045 0.85244 0.3334 0.0
N116 N 0.19258 0.82382 0.35481 0.0
C117 C 0.23574 0.88701 0.33176 0.0
C118 C 0.21352 0.91693 0.30922 0.0
C119 C 0.18063 0.90038 0.31056 0.0
C120 C 0.22389 0.84181 0.35521 0.0
H121 H 0.14532 0.83851 0.33366 0.0
C122 C 0.11479 0.72931 0.37021 0.0
O123 O 0.08675 0.78408 0.47432 0.0
O124 O 0.10428 0.85666 0.43766 0.0
N125 N 0.23029 0.77002 0.40118 0.0
C126 C 0.24827 0.73896 0.42599 0.0
C127 C 0.2814 0.75234 0.42952 0.0
C128 C 0.29596 0.79577 0.40657 0.0
C129 C 0.27709 0.82626 0.38076 0.0
C130 C 0.24395 0.81289 0.37954 0.0
H131 H 0.23753 0.70378 0.44267 0.0
O132 O 0.15803 0.81741 0.47866 0.0
O133 O 0.16713 0.80276 0.42143 0.0
O134 O 0.14752 0.69098 0.45791 0.0
O135 O 0.18474 0.6777 0.41419 0.0
C136 C 0.28995 0.86862 0.35578 0.0
C137 C 0.26922 0.89959 0.33159 0.0
H138 H 0.22143 0.9527 0.29084 0.0
H139 H 0.16331 0.92388 0.29359 0.0
H140 H 0.29582 0.72815 0.4493 0.0
H141 H 0.32166 0.805 0.40883 0.0
H142 H 0.3156 0.87913 0.35565 0.0
H143 H 0.27923 0.93342 0.31326 0.0
Mn144 Mn 0.63238 0.72606 0.94879 0.0
Mn145 Mn 0.69545 0.75103 0.89269 0.0
C146 C 0.68221 0.68211 0.96047 0.0
C147 C 0.58806 0.66213 0.96394 0.0
C148 C 0.67505 0.84327 0.94951 0.0
O149 O 0.60986 0.75842 0.90365 0.0
O150 O 0.65405 0.77319 0.8694 0.0
C151 C 0.67928 0.655 0.83867 0.0
N152 N 0.70086 0.68093 0.86189 0.0
C153 C 0.74304 0.6116 0.84254 0.0
C154 C 0.72134 0.58434 0.81829 0.0
C155 C 0.68924 0.60578 0.81659 0.0
C156 C 0.73159 0.65977 0.86429 0.0
H157 H 0.65468 0.67176 0.83699 0.0
C158 C 0.6234 0.77431 0.87429 0.0
O159 O 0.58971 0.71897 0.97553 0.0
O160 O 0.61094 0.64432 0.94277 0.0
N161 N 0.73741 0.73056 0.911 0.0
C162 C 0.75459 0.75866 0.93764 0.0
C163 C 0.78677 0.74072 0.94396 0.0
C164 C 0.80116 0.69496 0.92238 0.0
C165 C 0.78305 0.66681 0.89503 0.0
C166 C 0.751 0.68623 0.89021 0.0
H167 H 0.7439 0.79477 0.95376 0.0
O168 O 0.66111 0.689 0.98592 0.0
O169 O 0.6734 0.70064 0.92876 0.0
O170 O 0.65057 0.81354 0.96212 0.0
O171 O 0.69243 0.82414 0.92351 0.0
C172 C 0.79553 0.62036 0.87231 0.0
C173 C 0.77548 0.59241 0.84629 0.0
H174 H 0.72896 0.54656 0.8011 0.0
H175 H 0.67229 0.58462 0.79816 0.0
H176 H 0.80059 0.76268 0.96511 0.0
H177 H 0.82609 0.68165 0.92713 0.0
H178 H 0.82046 0.60536 0.87478 0.0
H179 H 0.7852 0.55589 0.82951 0.0
Mn180 Mn 0.8768 0.27567 0.95124 0.0
Mn181 Mn 0.81164 0.25243 0.89842 0.0
C182 C 0.82724 0.31946 0.96627 0.0
C183 C 0.92111 0.34082 0.96513 0.0
C184 C 0.83545 0.15727 0.95189 0.0
O185 O 0.89761 0.24599 0.9045 0.0
O186 O 0.85207 0.23375 0.87216 0.0
C187 C 0.82329 0.35068 0.84455 0.0
N188 N 0.8037 0.32386 0.86951 0.0
C189 C 0.75814 0.38491 0.85041 0.0
C190 C 0.7778 0.41331 0.82453 0.0
C191 C 0.81064 0.39674 0.82193 0.0
C192 C 0.77247 0.34143 0.87329 0.0
H193 H 0.84821 0.33635 0.84153 0.0
C194 C 0.88288 0.2324 0.87545 0.0
O195 O 0.92052 0.28353 0.97601 0.0
O196 O 0.8973 0.35821 0.94523 0.0
N197 N 0.77036 0.26935 0.91962 0.0
C198 C 0.75452 0.23696 0.94561 0.0
C199 C 0.7218 0.24982 0.95267 0.0
C200 C 0.70529 0.29394 0.93189 0.0
C201 C 0.72179 0.32527 0.90449 0.0
C202 C 0.75479 0.3125 0.89979 0.0
H203 H 0.76668 0.20127 0.96067 0.0
O204 O 0.84939 0.31018 0.99028 0.0
O205 O 0.83477 0.30211 0.93396 0.0
O206 O 0.85997 0.18719 0.96416 0.0
O207 O 0.817 0.17749 0.92717 0.0
C208 C 0.70657 0.36727 0.88095 0.0
C209 C 0.72473 0.39693 0.85385 0.0
H210 H 0.76788 0.44752 0.80635 0.0
H211 H 0.82594 0.4183 0.80195 0.0
H212 H 0.70913 0.2247 0.97351 0.0
H213 H 0.67984 0.30266 0.93682 0.0
H214 H 0.681 0.37747 0.88362 0.0
H215 H 0.71285 0.4296 0.83615 0.0
Mn216 Mn 0.63164 0.78289 0.55346 0.0
Mn217 Mn 0.69451 0.75796 0.60985 0.0
C218 C 0.68157 0.82656 0.54192 0.0
C219 C 0.58741 0.84697 0.53797 0.0
C220 C 0.67412 0.66535 0.55324 0.0
O221 O 0.60895 0.75095 0.59863 0.0
O222 O 0.65303 0.73641 0.6331 0.0
C223 C 0.67843 0.85486 0.66339 0.0
N224 N 0.70001 0.82837 0.64037 0.0
C225 C 0.74232 0.89746 0.65957 0.0
C226 C 0.72062 0.92528 0.68363 0.0
C227 C 0.68845 0.90427 0.68528 0.0
C228 C 0.7308 0.84919 0.63797 0.0
H229 H 0.65378 0.83841 0.66504 0.0
C230 C 0.6224 0.73532 0.62809 0.0
O231 O 0.58906 0.79004 0.52653 0.0
O232 O 0.61024 0.86481 0.5592 0.0
N233 N 0.73654 0.77783 0.59154 0.0
C234 C 0.75372 0.74918 0.56508 0.0
C235 C 0.78599 0.76659 0.55884 0.0
C236 C 0.80045 0.8124 0.58031 0.0
C237 C 0.78233 0.84114 0.60745 0.0
C238 C 0.75019 0.82223 0.6122 0.0
H239 H 0.74298 0.71301 0.54907 0.0
O240 O 0.66057 0.81964 0.51638 0.0
O241 O 0.67261 0.80817 0.57359 0.0
O242 O 0.64978 0.69523 0.54039 0.0
O243 O 0.6914 0.68451 0.57931 0.0
C244 C 0.79489 0.88764 0.63007 0.0
C245 C 0.77483 0.91617 0.65588 0.0
H246 H 0.7283 0.96317 0.70069 0.0
H247 H 0.6715 0.92592 0.70352 0.0
H248 H 0.79982 0.74418 0.53785 0.0
H249 H 0.82545 0.8253 0.57563 0.0
H250 H 0.81989 0.90218 0.6277 0.0
H251 H 0.78462 0.95272 0.67258 0.0
Mn252 Mn 0.87661 0.23288 0.55091 0.0
Mn253 Mn 0.81199 0.25585 0.60463 0.0
C254 C 0.82693 0.18896 0.53661 0.0
C255 C 0.92088 0.168 0.53631 0.0
C256 C 0.83495 0.35103 0.55076 0.0
O257 O 0.89789 0.26263 0.59738 0.0
O258 O 0.85266 0.27502 0.63025 0.0
C259 C 0.82466 0.15763 0.65826 0.0
N260 N 0.80464 0.18441 0.63371 0.0
C261 C 0.75951 0.12299 0.65359 0.0
C262 C 0.77962 0.09467 0.67908 0.0
C263 C 0.81246 0.11141 0.68105 0.0
C264 C 0.77341 0.16661 0.63049 0.0
H265 H 0.8496 0.17209 0.6608 0.0
C266 C 0.88344 0.27644 0.62657 0.0
O267 O 0.92004 0.22532 0.52549 0.0
O268 O 0.89734 0.1504 0.55655 0.0
N269 N 0.7705 0.23849 0.5841 0.0
C270 C 0.75425 0.27061 0.55829 0.0
C271 C 0.72145 0.25755 0.55184 0.0
C272 C 0.70531 0.21355 0.57303 0.0
C273 C 0.72225 0.18246 0.6002 0.0
C274 C 0.75528 0.19538 0.60428 0.0
H275 H 0.76614 0.30624 0.54294 0.0
O276 O 0.84879 0.19825 0.51226 0.0
O277 O 0.83483 0.20629 0.56881 0.0
O278 O 0.85945 0.32129 0.53825 0.0
O279 O 0.81678 0.33074 0.57571 0.0
C280 C 0.70745 0.14046 0.62406 0.0
C281 C 0.72608 0.11077 0.65076 0.0
H282 H 0.77005 0.06035 0.69742 0.0
H283 H 0.82811 0.08981 0.70068 0.0
H284 H 0.70845 0.28246 0.53117 0.0
H285 H 0.6798 0.20468 0.56857 0.0
H286 H 0.68185 0.13014 0.62187 0.0
H287 H 0.71454 0.07801 0.66865 0.0
C288 C 0.29787 0.11899 0.01178 0.0
C289 C 0.31979 0.10771 0.03981 0.0
C290 C 0.27178 0.07839 0.00506 0.0
C291 C 0.26798 0.02449 0.02637 0.0
C292 C 0.29228 0.00953 0.05186 0.0
C293 C 0.31752 0.05177 0.05868 0.0
C294 C 0.24654 0.0968 0.97785 0.0
C295 C 0.28998 0.95166 0.07445 0.0
C296 C 0.18738 0.96003 0.05824 0.0
C297 C 0.18525 0.90449 0.03889 0.0
C298 C 0.21252 1.00264 0.05179 0.0
C299 C 0.23684 0.98846 0.02615 0.0
C300 C 0.23311 0.93511 0.00431 0.0
C301 C 0.20711 0.89415 0.01068 0.0
C302 C 0.21474 0.05992 0.07494 0.0
C303 C 0.25836 0.91757 0.97689 0.0
H304 H 0.2989 0.16303 0.99784 0.0
H305 H 0.33396 0.04345 0.08085 0.0
H306 H 0.23767 0.05593 0.9627 0.0
H307 H 0.2255 0.11752 0.992 0.0
H308 H 0.25606 0.13154 0.95857 0.0
H309 H 0.31286 0.94216 0.08915 0.0
H310 H 0.27018 0.95703 0.09435 0.0
H311 H 0.2841 0.91094 0.05748 0.0
H312 H 0.17098 0.96765 0.08054 0.0
H313 H 0.20617 0.85044 0.99634 0.0
H314 H 0.22065 0.1011 0.05838 0.0
H315 H 0.2345 0.05407 0.09484 0.0
H316 H 0.19183 0.06899 0.08966 0.0
H317 H 0.26719 0.95889 0.96218 0.0
H318 H 0.24887 0.88334 0.95726 0.0
H319 H 0.27943 0.89654 0.99082 0.0
C320 C 0.20695 0.61559 0.488 0.0
C321 C 0.18508 0.60527 0.4598 0.0
C322 C 0.23295 0.57458 0.49437 0.0
C323 C 0.23668 0.52121 0.47255 0.0
C324 C 0.21238 0.5071 0.44689 0.0
C325 C 0.18724 0.54976 0.44043 0.0
C326 C 0.25819 0.59209 0.52179 0.0
C327 C 0.2146 0.44981 0.42374 0.0
C328 C 0.31741 0.45744 0.44032 0.0
C329 C 0.31962 0.40159 0.4593 0.0
C330 C 0.29216 0.49978 0.44699 0.0
C331 C 0.26778 0.48501 0.47243 0.0
C332 C 0.2715 0.43118 0.49381 0.0
C333 C 0.2976 0.39049 0.48725 0.0
C334 C 0.28995 0.55756 0.42431 0.0
C335 C 0.24616 0.41295 0.52096 0.0
H336 H 0.206 0.65929 0.50235 0.0
H337 H 0.17084 0.54216 0.41813 0.0
H338 H 0.26694 0.55077 0.53658 0.0
H339 H 0.2793 0.61291 0.50786 0.0
H340 H 0.24873 0.62646 0.54137 0.0
H341 H 0.1917 0.44081 0.40899 0.0
H342 H 0.23438 0.4556 0.40386 0.0
H343 H 0.22047 0.40862 0.44031 0.0
H344 H 0.33392 0.46563 0.4182 0.0
H345 H 0.29858 0.34651 0.50127 0.0
H346 H 0.28403 0.59837 0.4412 0.0
H347 H 0.27021 0.55216 0.40434 0.0
H348 H 0.31287 0.56693 0.40968 0.0
H349 H 0.25557 0.37812 0.54026 0.0
H350 H 0.22511 0.39244 0.50675 0.0
H351 H 0.23734 0.45389 0.5361 0.0
C352 C 0.71113 0.88512 0.99624 0.0
C353 C 0.68903 0.89708 0.96849 0.0
C354 C 0.73717 0.92564 0.0032 0.0
C355 C 0.74066 0.98026 0.98251 0.0
C356 C 0.71604 0.99609 0.95756 0.0
C357 C 0.69087 0.95382 0.95042 0.0
C358 C 0.76274 0.90626 0.02982 0.0
C359 C 0.71798 0.05488 0.93576 0.0
C360 C 0.80153 0.11008 0.99884 0.0
C361 C 0.82279 0.10136 0.96988 0.0
C362 C 0.77578 0.06864 0.00523 0.0
C363 C 0.77179 0.01626 0.98271 0.0
C364 C 0.79577 1.0032 0.95648 0.0
C365 C 0.82063 0.0464 0.95001 0.0
C366 C 0.75091 0.08501 0.03332 0.0
C367 C 0.79332 0.94678 0.93267 0.0
H368 H 0.71041 0.84048 0.00957 0.0
H369 H 0.67434 0.96267 0.9284 0.0
H370 H 0.78351 0.88569 0.01511 0.0
H371 H 0.77195 0.94659 0.04519 0.0
H372 H 0.75338 0.87108 0.04893 0.0
H373 H 0.69491 0.06482 0.92153 0.0
H374 H 0.72399 0.09492 0.95322 0.0
H375 H 0.73755 0.05047 0.91551 0.0
H376 H 0.8025 0.15333 0.01365 0.0
H377 H 0.83652 0.04003 0.92712 0.0
H378 H 0.74205 0.04307 0.0474 0.0
H379 H 0.72981 0.1072 0.02008 0.0
H380 H 0.76079 0.11799 0.05343 0.0
H381 H 0.78761 0.90498 0.94878 0.0
H382 H 0.81608 0.93834 0.91753 0.0
H383 H 0.77335 0.95336 0.9131 0.0
C384 C 0.7101 0.62288 0.50654 0.0
C385 C 0.68811 0.6113 0.53446 0.0
C386 C 0.73612 0.58225 0.49963 0.0
C387 C 0.73971 0.52788 0.52054 0.0
C388 C 0.71521 0.51243 0.54571 0.0
C389 C 0.69006 0.55481 0.55279 0.0
C390 C 0.76157 0.60123 0.47278 0.0
C391 C 0.71726 0.45394 0.56777 0.0
C392 C 0.80045 0.39774 0.50414 0.0
C393 C 0.82196 0.40677 0.53284 0.0
C394 C 0.77464 0.43913 0.49788 0.0
C395 C 0.77081 0.49175 0.52024 0.0
C396 C 0.79497 0.50501 0.54623 0.0
C397 C 0.81991 0.46187 0.5526 0.0
C398 C 0.74956 0.4225 0.47008 0.0
C399 C 0.79268 0.56166 0.56988 0.0
H400 H 0.7093 0.66734 0.49302 0.0
H401 H 0.67362 0.54627 0.57494 0.0
H402 H 0.78245 0.62175 0.48729 0.0
H403 H 0.77062 0.5607 0.45746 0.0
H404 H 0.75216 0.63631 0.45364 0.0
H405 H 0.69426 0.44422 0.58218 0.0
H406 H 0.72319 0.41365 0.55047 0.0
H407 H 0.73692 0.45861 0.58789 0.0
H408 H 0.80133 0.35437 0.48945 0.0
H409 H 0.83598 0.46845 0.5753 0.0
H410 H 0.74068 0.4643 0.45586 0.0
H411 H 0.7285 0.4007 0.48361 0.0
H412 H 0.75924 0.38915 0.45005 0.0
H413 H 0.78689 0.60332 0.55368 0.0
H414 H 0.81554 0.57019 0.58482 0.0
H415 H 0.77284 0.55532 0.58962 0.0
C416 C 0.40129 0.18271 0.18871 0.0
C417 C 0.41299 0.21931 0.16057 0.0
C418 C 0.41111 0.19327 0.22412 0.0
C419 C 0.4341 0.2404 0.23148 0.0
C420 C 0.45022 0.26952 0.20242 0.0
C421 C 0.4391 0.25937 0.1671 0.0
C422 C 0.39304 0.1605 0.25375 0.0
C423 C 0.4767 0.31632 0.20868 0.0
C424 C 0.40172 0.32661 0.31107 0.0
C425 C 0.41329 0.28964 0.33912 0.0
C426 C 0.41146 0.31607 0.27562 0.0
C427 C 0.43423 0.26857 0.26816 0.0
C428 C 0.45028 0.23907 0.29713 0.0
C429 C 0.43924 0.24922 0.33249 0.0
C430 C 0.3935 0.3493 0.24607 0.0
C431 C 0.47655 0.19187 0.29074 0.0
H432 H 0.38145 0.15097 0.18357 0.0
H433 H 0.44854 0.2875 0.1454 0.0
H434 H 0.40996 0.14296 0.27442 0.0
H435 H 0.37628 0.19373 0.26688 0.0
H436 H 0.3786 0.12087 0.24348 0.0
H437 H 0.49446 0.31541 0.18629 0.0
H438 H 0.46608 0.36349 0.20967 0.0
H439 H 0.4896 0.30764 0.23432 0.0
H440 H 0.38199 0.35861 0.31629 0.0
H441 H 0.44858 0.2208 0.35412 0.0
H442 H 0.37654 0.31645 0.23295 0.0
H443 H 0.41048 0.36652 0.22536 0.0
H444 H 0.37929 0.38921 0.25641 0.0
H445 H 0.46571 0.14491 0.28946 0.0
H446 H 0.49426 0.1921 0.31317 0.0
H447 H 0.48955 0.20068 0.26517 0.0
C448 C 0.10537 0.68302 0.31068 0.0
C449 C 0.09351 0.71964 0.33878 0.0
C450 C 0.09573 0.69357 0.27521 0.0
C451 C 0.07287 0.74087 0.26775 0.0
C452 C 0.05666 0.77019 0.2967 0.0
C453 C 0.06752 0.75991 0.3321 0.0
C454 C 0.11379 0.66045 0.24565 0.0
C455 C 0.03037 0.81733 0.29028 0.0
C456 C 0.10573 0.82665 0.18833 0.0
C457 C 0.09387 0.79024 0.16015 0.0
C458 C 0.09597 0.81608 0.22376 0.0
C459 C 0.07298 0.76899 0.23109 0.0
C460 C 0.0568 0.73987 0.20206 0.0
C461 C 0.06779 0.75016 0.16671 0.0
C462 C 0.11402 0.84896 0.25341 0.0
C463 C 0.03039 0.69295 0.20834 0.0
H464 H 0.12513 0.65114 0.31593 0.0
H465 H 0.05798 0.78809 0.35376 0.0
H466 H 0.09686 0.64308 0.22491 0.0
H467 H 0.1307 0.69338 0.23254 0.0
H468 H 0.12807 0.62065 0.25597 0.0
H469 H 0.01263 0.8172 0.3127 0.0
H470 H 0.0412 0.86429 0.28896 0.0
H471 H 0.01739 0.80837 0.26471 0.0
H472 H 0.12557 0.85839 0.18318 0.0
H473 H 0.05825 0.72215 0.14499 0.0
H474 H 0.1308 0.81583 0.26655 0.0
H475 H 0.09707 0.86647 0.27409 0.0
H476 H 0.12842 0.88863 0.24315 0.0
H477 H 0.04111 0.64587 0.20953 0.0
H478 H 0.01268 0.69345 0.1859 0.0
H479 H 0.01741 0.70183 0.23391 0.0
C480 C 0.57745 0.74596 0.8337 0.0
C481 C 0.60378 0.7847 0.84165 0.0
C482 C 0.56724 0.73755 0.79795 0.0
C483 C 0.5842 0.76775 0.76991 0.0
C484 C 0.60764 0.81333 0.77857 0.0
C485 C 0.61688 0.8216 0.81438 0.0
C486 C 0.5408 0.69135 0.79011 0.0
C487 C 0.62635 0.84731 0.74985 0.0
C488 C 0.61554 0.68749 0.68777 0.0
C489 C 0.60272 0.7252 0.6607 0.0
C490 C 0.60664 0.69592 0.72367 0.0
C491 C 0.58385 0.74256 0.73263 0.0
C492 C 0.56705 0.77368 0.70481 0.0
C493 C 0.57691 0.76504 0.66895 0.0
C494 C 0.62514 0.66092 0.75217 0.0
C495 C 0.54127 0.82109 0.71298 0.0
H496 H 0.56701 0.71755 0.85471 0.0
H497 H 0.63689 0.85236 0.82058 0.0
H498 H 0.52745 0.70348 0.76524 0.0
H499 H 0.55165 0.64475 0.78642 0.0
H500 H 0.52339 0.68857 0.81278 0.0
H501 H 0.64099 0.88593 0.76107 0.0
H502 H 0.64302 0.81449 0.73622 0.0
H503 H 0.60976 0.86643 0.72929 0.0
H504 H 0.63516 0.65594 0.68133 0.0
H505 H 0.56671 0.79411 0.6481 0.0
H506 H 0.60848 0.64262 0.77291 0.0
H507 H 0.64238 0.69283 0.76562 0.0
H508 H 0.63913 0.62158 0.74076 0.0
H509 H 0.5279 0.80933 0.7379 0.0
H510 H 0.52378 0.82497 0.69045 0.0
H511 H 0.55274 0.8671 0.71678 0.0
C512 C 0.92766 0.24525 0.66866 0.0
C513 C 0.90201 0.28521 0.66009 0.0
C514 C 0.93685 0.23602 0.70466 0.0
C515 C 0.91967 0.26697 0.7323 0.0
C516 C 0.89686 0.31343 0.72317 0.0
C517 C 0.88848 0.32215 0.68714 0.0
C518 C 0.96236 0.18826 0.71313 0.0
C519 C 0.87806 0.34827 0.75155 0.0
C520 C 0.8872 0.1881 0.81443 0.0
C521 C 0.90119 0.22388 0.84171 0.0
C522 C 0.8958 0.19687 0.77847 0.0
C523 C 0.91933 0.24216 0.76962 0.0
C524 C 0.93679 0.27194 0.79745 0.0
C525 C 0.92737 0.26271 0.83338 0.0
C526 C 0.87662 0.16336 0.74989 0.0
C527 C 0.96302 0.31841 0.7893 0.0
H528 H 0.9383 0.21665 0.64783 0.0
H529 H 0.86892 0.35368 0.68047 0.0
H530 H 0.97596 0.20062 0.73779 0.0
H531 H 0.95057 0.14275 0.71765 0.0
H532 H 0.97969 0.18299 0.69053 0.0
H533 H 0.86411 0.38759 0.74009 0.0
H534 H 0.86075 0.31628 0.76481 0.0
H535 H 0.89455 0.36654 0.77249 0.0
H536 H 0.86725 0.15739 0.82089 0.0
H537 H 0.93837 0.2904 0.85438 0.0
H538 H 0.89293 0.14423 0.72902 0.0
H539 H 0.85991 0.19646 0.73658 0.0
H540 H 0.86198 0.12483 0.76116 0.0
H541 H 0.97643 0.30584 0.76453 0.0
H542 H 0.98042 0.32219 0.81192 0.0
H543 H 0.95192 0.36466 0.78514 0.0
C544 C 0.45788 0.38913 0.99192 0.0
C545 C 0.44921 0.38236 0.02805 0.0
C546 C 0.4796 0.43602 0.98106 0.0
C547 C 0.49381 0.47569 0.00708 0.0
C548 C 0.48589 0.46735 0.04375 0.0
C549 C 0.46327 0.42172 0.05365 0.0
C550 C 0.48667 0.4442 0.94162 0.0
C551 C 0.5013 0.50663 0.07261 0.0
C552 C 0.57314 0.555 0.98203 0.0
C553 C 0.56348 0.61654 0.97621 0.0
C554 C 0.5509 0.50928 0.99259 0.0
C555 C 0.51772 0.52462 0.99622 0.0
C556 C 0.50769 0.58674 0.99009 0.0
C557 C 0.53082 0.63228 0.98079 0.0
C558 C 0.56304 0.44457 1.00015 0.0
C559 C 0.47247 0.60479 0.9927 0.0
H560 H 0.44659 0.35959 0.97199 0.0
H561 H 0.45655 0.4167 0.08162 0.0
H562 H 0.48052 0.49213 0.93329 0.0
H563 H 0.51289 0.43748 0.93645 0.0
H564 H 0.47285 0.41115 0.92466 0.0
H565 H 0.49369 0.49242 0.09998 0.0
H566 H 0.52808 0.50336 0.07081 0.0
H567 H 0.49471 0.55596 0.06869 0.0
H568 H 0.59845 0.54268 0.9788 0.0
H569 H 0.52322 0.67963 0.97599 0.0
H570 H 0.55169 0.41118 0.98135 0.0
H571 H 0.55606 0.43049 0.02772 0.0
H572 H 0.58977 0.44081 0.99754 0.0
H573 H 0.45782 0.57548 0.97438 0.0
H574 H 0.46839 0.65423 0.98577 0.0
H575 H 0.46344 0.59657 0.0203 0.0
C576 C 0.04402 0.58662 0.05324 0.0
C577 C 0.05725 0.62686 0.02759 0.0
C578 C 0.02189 0.54 0.04352 0.0
C579 C 0.01357 0.5316 0.00696 0.0
C580 C 0.02689 0.57223 0.98088 0.0
C581 C 0.04816 0.62002 0.99158 0.0
C582 C 0.00743 0.49967 0.07247 0.0
C583 C 0.01934 0.56412 0.94155 0.0
C584 C 0.9783 0.37334 0.98079 0.0
C585 C 0.94535 0.38743 0.97702 0.0
C586 C 1.00094 0.42 0.98974 0.0
C587 C 0.99018 0.48157 0.99632 0.0
C588 C 0.95674 0.49524 0.99346 0.0
C589 C 0.93496 0.44844 0.9833 0.0
C590 C 0.03645 0.40373 0.99156 0.0
C591 C 0.94383 0.55927 0.00148 0.0
H592 H 0.05107 0.59166 0.08112 0.0
H593 H 0.05881 0.65024 0.97159 0.0
H594 H 0.9806 0.50159 0.07116 0.0
H595 H 0.01465 0.45072 0.0682 0.0
H596 H 0.01524 0.51398 0.09977 0.0
H597 H 0.03238 0.59815 0.9245 0.0
H598 H 0.02612 0.51666 0.93285 0.0
H599 H 0.99296 0.56936 0.93689 0.0
H600 H 0.98646 0.32643 0.97565 0.0
H601 H 0.90943 0.45953 0.98071 0.0
H602 H 0.0458 0.41216 0.01902 0.0
H603 H 0.05038 0.43396 0.97308 0.0
H604 H 0.04109 0.35459 0.98433 0.0
H605 H 0.95088 0.57334 0.02903 0.0
H606 H 0.91703 0.56178 0.99918 0.0
H607 H 0.95457 0.59341 0.98273 0.0
C608 C 0.57267 0.95399 0.51941 0.0
C609 C 0.56292 0.89259 0.52547 0.0
C610 C 0.55051 0.99972 0.50858 0.0
C611 C 0.51731 0.98454 0.50491 0.0
C612 C 0.5072 0.92256 0.5113 0.0
C613 C 0.53024 0.877 0.52087 0.0
C614 C 0.56275 0.06424 0.50074 0.0
C615 C 0.47196 0.90469 0.50868 0.0
C616 C 0.45761 0.12044 0.50839 0.0
C617 C 0.44902 0.12675 0.47221 0.0
C618 C 0.47926 0.07359 0.51954 0.0
C619 C 0.49349 0.03347 0.49375 0.0
C620 C 0.48565 0.04133 0.45702 0.0
C621 C 0.4631 0.08694 0.44685 0.0
C622 C 0.48623 0.06595 0.55903 0.0
C623 C 0.50108 1.00155 0.42839 0.0
H624 H 0.59798 0.9662 0.52266 0.0
H625 H 0.52257 0.82976 0.52584 0.0
H626 H 0.55586 0.07797 0.47309 0.0
H627 H 0.5514 0.09796 0.51935 0.0
H628 H 0.58949 0.06786 0.50342 0.0
H629 H 0.46779 0.85539 0.51586 0.0
H630 H 0.4573 0.93439 0.52681 0.0
H631 H 0.46301 0.91253 0.48101 0.0
H632 H 0.44631 0.15034 0.52815 0.0
H633 H 0.45645 0.09159 0.41883 0.0
H634 H 0.51245 0.07259 0.56424 0.0
H635 H 0.48 0.01818 0.56758 0.0
H636 H 0.47241 0.09933 0.5758 0.0
H637 H 0.52787 0.00468 0.43026 0.0
H638 H 0.49356 0.01543 0.40093 0.0
H639 H 0.49442 0.95232 0.43252 0.0
C640 C 0.93464 0.06073 0.5173 0.0
C641 C 0.94507 0.12158 0.52397 0.0
C642 C 0.9564 0.01409 0.50677 0.0
C643 C 0.98985 0.0277 0.50396 0.0
C644 C 1.00063 0.08911 0.51093 0.0
C645 C 0.97801 0.13566 0.52023 0.0
C646 C 0.94346 0.95027 0.49832 0.0
C647 C 0.03614 0.10531 0.5092 0.0
C648 C 0.04779 0.88899 0.50789 0.0
C649 C 0.05691 0.88278 0.47185 0.0
C650 C 0.02651 0.93665 0.51886 0.0
C651 C 0.01322 0.97778 0.49302 0.0
C652 C 0.02158 0.97003 0.45642 0.0
C653 C 0.04372 0.92353 0.44644 0.0
C654 C 0.01893 0.94405 0.55824 0.0
C655 C 0.00717 0.01092 0.42771 0.0
H656 H 0.90912 0.04967 0.51988 0.0
H657 H 0.9862 0.18243 0.52569 0.0
H658 H 0.95053 0.93668 0.47069 0.0
H659 H 0.95415 0.91573 0.51687 0.0
H660 H 0.91665 0.94782 0.50057 0.0
H661 H 0.04081 0.15431 0.51671 0.0
H662 H 0.05006 0.07473 0.5275 0.0
H663 H 0.0455 0.09734 0.48169 0.0
H664 H 0.0584 0.85838 0.52771 0.0
H665 H 0.05079 0.91898 0.41854 0.0
H666 H 0.99254 0.93876 0.56284 0.0
H667 H 0.0257 0.99134 0.56723 0.0
H668 H 0.03196 0.9097 0.57508 0.0
H669 H 0.98033 0.00906 0.42899 0.0
H670 H 0.01498 0.99706 0.40033 0.0
H671 H 0.01441 0.05976 0.43227 0.0
C672 C 0.22937 0.63599 0.02721 0.0
C673 C 0.20028 0.63391 0.04624 0.0
C674 C 0.24863 0.58259 0.02408 0.0
C675 C 0.23754 0.52595 0.03901 0.0
C676 C 0.20701 0.52364 0.05617 0.0
C677 C 0.18916 0.57797 0.06027 0.0
C678 C 0.28095 0.58688 0.00536 0.0
C679 C 0.19229 0.46463 0.07015 0.0
C680 C 0.28126 0.37502 0.018 0.0
C681 C 0.30227 0.37129 0.0474 0.0
C682 C 0.25963 0.42505 0.01473 0.0
C683 C 0.25964 0.47199 0.04127 0.0
C684 C 0.28054 0.46716 0.0711 0.0
C685 C 0.30204 0.41768 0.07342 0.0
C686 C 0.23687 0.42786 0.98317 0.0
C687 C 0.28074 0.51525 0.1002 0.0
H688 H 0.2371 0.6792 0.01515 0.0
H689 H 0.16576 0.57622 0.07356 0.0
H690 H 0.30072 0.57976 0.0251 0.0
H691 H 0.28309 0.54986 0.98482 0.0
H692 H 0.28457 0.63256 0.99225 0.0
H693 H 0.17004 0.45412 0.05456 0.0
H694 H 0.20863 0.42426 0.06824 0.0
H695 H 0.18466 0.47149 0.09842 0.0
H696 H 0.28206 0.33938 0.9975 0.0
H697 H 0.31949 0.41635 0.09513 0.0
H698 H 0.2403 0.47206 0.96846 0.0
H699 H 0.21146 0.42691 0.9929 0.0
H700 H 0.24055 0.38864 0.96428 0.0
H701 H 0.28713 0.56051 0.08819 0.0
H702 H 0.29834 0.50456 0.12187 0.0
H703 H 0.25618 0.51926 0.11208 0.0
C704 C 0.28102 0.13432 0.48119 0.0
C705 C 0.3022 0.13793 0.45192 0.0
C706 C 0.25937 0.08434 0.48435 0.0
C707 C 0.25953 0.03733 0.45785 0.0
C708 C 0.28061 0.04201 0.42817 0.0
C709 C 0.30212 0.09145 0.42596 0.0
C710 C 0.23641 0.08169 0.51574 0.0
C711 C 0.28098 0.99384 0.39912 0.0
C712 C 0.22899 0.87353 0.47193 0.0
C713 C 0.19999 0.8757 0.45272 0.0
C714 C 0.24831 0.92683 0.47508 0.0
C715 C 0.23737 0.98345 0.45999 0.0
C716 C 0.20694 0.98586 0.44261 0.0
C717 C 0.18903 0.93163 0.43849 0.0
C718 C 0.28052 0.92243 0.49402 0.0
C719 C 0.19238 0.04487 0.42841 0.0
H720 H 0.2817 0.17003 0.50165 0.0
H721 H 0.31969 0.0927 0.40436 0.0
H722 H 0.21106 0.08272 0.50582 0.0
H723 H 0.23971 0.03751 0.53051 0.0
H724 H 0.24 0.12093 0.53463 0.0
H725 H 0.29866 0.00451 0.37753 0.0
H726 H 0.28735 0.94861 0.41119 0.0
H727 H 0.25646 0.98978 0.38712 0.0
H728 H 0.2366 0.83033 0.4841 0.0
H729 H 0.16572 0.93345 0.42505 0.0
H730 H 0.28256 0.95948 0.51456 0.0
H731 H 0.3004 0.92944 0.47442 0.0
H732 H 0.28403 0.87677 0.50719 0.0
H733 H 0.20873 0.08519 0.43043 0.0
H734 H 0.17 0.05553 0.44375 0.0
H735 H 0.18499 0.03792 0.40008 0.0
C736 C 0.71285 0.59219 0.93907 0.0
C737 C 0.70836 0.63725 0.96537 0.0
C738 C 0.735 0.54441 0.94396 0.0
C739 C 0.75134 0.53872 0.97704 0.0
C740 C 0.74676 0.58378 0.00415 0.0
C741 C 0.72521 0.63307 0.99792 0.0
C742 C 0.74044 0.49916 0.91389 0.0
C743 C 0.7643 0.57945 0.03952 0.0
C744 C 0.77712 0.37232 0.9879 0.0
C745 C 0.80741 0.37461 0.97138 0.0
C746 C 0.75913 0.42688 0.99275 0.0
C747 C 0.77273 0.48456 0.98236 0.0
C748 C 0.80484 0.48696 0.96936 0.0
C749 C 0.82145 0.43176 0.96319 0.0
C750 C 0.72487 0.42234 0.00656 0.0
C751 C 0.82141 0.54681 0.95958 0.0
H752 H 0.69828 0.59321 0.91493 0.0
H753 H 0.72098 0.66741 0.01864 0.0
H754 H 0.76605 0.50126 0.90494 0.0
H755 H 0.73595 0.45164 0.92372 0.0
H756 H 0.72449 0.50852 0.89055 0.0
H757 H 0.75837 0.61874 0.05764 0.0
H758 H 0.75786 0.53544 0.05312 0.0
H759 H 0.79085 0.57872 0.03487 0.0
H760 H 0.76726 0.32812 0.99616 0.0
H761 H 0.84566 0.43341 0.95191 0.0
H762 H 0.70776 0.42888 0.98391 0.0
H763 H 0.71998 0.45932 0.02653 0.0
H764 H 0.7199 0.37656 0.01899 0.0
H765 H 0.82202 0.55083 0.93 0.0
H766 H 0.84696 0.54617 0.96896 0.0
H767 H 0.80927 0.58817 0.97098 0.0
C768 C 0.72488 0.87556 0.50488 0.0
C769 C 0.70767 0.87155 0.5372 0.0
C770 C 0.74645 0.92486 0.49885 0.0
C771 C 0.75065 0.97014 0.52591 0.0
C772 C 0.73391 0.96467 0.55875 0.0
C773 C 0.7118 0.9168 0.56345 0.0
C774 C 0.76448 0.92891 0.46377 0.0
C775 C 0.73886 0.01024 0.58875 0.0
C776 C 0.82081 0.07682 0.54031 0.0
C777 C 0.80695 0.13398 0.53176 0.0
C778 C 0.80414 0.0217 0.53418 0.0
C779 C 0.77215 0.0242 0.52081 0.0
C780 C 0.75874 0.08189 0.51013 0.0
C781 C 0.77678 0.13637 0.51499 0.0
C782 C 0.82064 0.96186 0.54416 0.0
C783 C 0.72464 0.08652 0.49584 0.0
H784 H 0.72094 0.84104 0.48419 0.0
H785 H 0.69698 0.91586 0.58741 0.0
H786 H 0.75845 0.97308 0.45009 0.0
H787 H 0.79096 0.92908 0.46888 0.0
H788 H 0.7586 0.88976 0.44554 0.0
H789 H 0.72265 1.00098 0.61188 0.0
H790 H 0.76437 0.00845 0.59806 0.0
H791 H 0.73433 0.05759 0.57869 0.0
H792 H 0.84496 0.07509 0.55175 0.0
H793 H 0.76705 0.18057 0.50651 0.0
H794 H 0.80791 0.92026 0.53397 0.0
H795 H 0.82241 0.95924 0.57374 0.0
H796 H 0.84581 0.96152 0.5336 0.0
H797 H 0.71995 0.04948 0.47585 0.0
H798 H 0.71984 0.13228 0.48329 0.0
H799 H 0.70726 0.08012 0.51826 0.0
loop_
_geom_bond_atom_site_label_1
_geom_bond_atom_site_label_2
_geom_bond_distance
_geom_bond_site_symmetry_2
_ccdc_geom_bond_type
Mn0 O5 2.095 . S
Mn0 O15 2.162 . S
Mn0 O16 2.297 . S
Mn0 O24 2.385 1_554 S
Mn0 O25 2.209 . S
Mn0 O26 2.094 . S
Mn1 O6 2.121 . S
Mn1 N8 2.257 . S
Mn1 N17 2.282 . S
Mn1 O25 2.215 . S
Mn1 O27 2.117 . S
C2 O24 1.234 1_554 S
C2 O25 1.283 . S
C3 O15 1.281 . S
C3 O16 1.236 . S
C4 O26 1.240 . S
C4 O27 1.264 . S
O5 Mn0 2.095 . S
O5 C14 1.250 . S
O6 Mn1 2.121 . S
O6 C14 1.258 . S
C7 N8 1.326 . S
C7 C11 1.460 . S
C7 H13 0.929 . S
N8 Mn1 2.257 . S
N8 C7 1.326 . S
N8 C12 1.362 . S
C9 C10 1.258 . S
C9 C12 1.431 . S
C9 C29 1.449 . S
C10 C9 1.258 . S
C10 C11 1.477 . S
C10 H30 0.931 . S
C11 C7 1.460 . S
C11 C10 1.477 . S
C11 H31 0.930 . S
C12 N8 1.362 . S
C12 C9 1.431 . S
C12 C22 1.476 . S
H13 C7 0.929 . S
C14 O5 1.250 . S
C14 O6 1.258 . S
O15 Mn0 2.162 . S
O15 C3 1.281 . S
O16 Mn0 2.297 . S
O16 C3 1.236 . S
N17 Mn1 2.282 . S
N17 C18 1.328 . S
N17 C22 1.318 . S
C18 N17 1.328 . S
C18 C19 1.457 . S
C18 H23 0.929 . S
C19 C18 1.457 . S
C19 C20 1.291 . S
C19 H32 0.931 1_554 S
C20 C19 1.291 . S
C20 C21 1.373 . S
C20 H33 0.929 . S
C21 C20 1.373 . S
C21 C22 1.396 . S
C21 C28 1.403 . S
C22 C12 1.476 . S
C22 N17 1.318 . S
C22 C21 1.396 . S
H23 C18 0.929 . S
O24 Mn0 2.385 1_556 S
O24 C2 1.234 1_556 S
O25 Mn0 2.209 . S
O25 Mn1 2.215 . S
O25 C2 1.283 . S
O26 Mn0 2.094 . S
O26 C4 1.240 . S
O27 Mn1 2.117 . S
O27 C4 1.264 . S
C28 C21 1.403 . S
C28 C29 1.399 . S
C28 H34 0.929 . S
C29 C9 1.449 . S
C29 C28 1.399 . S
C29 H35 0.930 . S
H30 C10 0.931 . S
H31 C11 0.930 . S
H32 C19 0.931 1_556 S
H33 C20 0.929 . S
H34 C28 0.929 . S
H35 C29 0.930 . S
Mn36 O41 2.095 . S
Mn36 O51 2.162 . S
Mn36 O52 2.297 . S
Mn36 O60 2.385 1_554 S
Mn36 O61 2.209 . S
Mn36 O62 2.094 . S
Mn37 O42 2.121 . S
Mn37 N44 2.257 . S
Mn37 N53 2.282 . S
Mn37 O61 2.215 . S
Mn37 O63 2.117 . S
C38 O60 1.234 1_554 S
C38 O61 1.283 . S
C39 O51 1.281 . S
C39 O52 1.236 . S
C40 O62 1.240 . S
C40 O63 1.264 . S
O41 Mn36 2.095 . S
O41 C50 1.250 . S
O42 Mn37 2.121 . S
O42 C50 1.258 . S
C43 N44 1.326 . S
C43 C47 1.460 . S
C43 H49 0.929 . S
N44 Mn37 2.257 . S
N44 C43 1.326 . S
N44 C48 1.362 . S
C45 C46 1.258 . S
C45 C48 1.431 . S
C45 C65 1.449 . S
C46 C45 1.258 . S
C46 C47 1.477 . S
C46 H66 0.931 . S
C47 C43 1.460 . S
C47 C46 1.477 . S
C47 H67 0.930 . S
C48 N44 1.362 . S
C48 C45 1.431 . S
C48 C58 1.476 . S
H49 C43 0.929 . S
C50 O41 1.250 . S
C50 O42 1.258 . S
O51 Mn36 2.162 . S
O51 C39 1.281 . S
O52 Mn36 2.297 . S
O52 C39 1.236 . S
N53 Mn37 2.282 . S
N53 C54 1.328 . S
N53 C58 1.318 . S
C54 N53 1.328 . S
C54 C55 1.457 . S
C54 H59 0.929 . S
C55 C54 1.457 . S
C55 C56 1.291 . S
C55 H68 0.931 1_554 S
C56 C55 1.291 . S
C56 C57 1.373 . S
C56 H69 0.929 . S
C57 C56 1.373 . S
C57 C58 1.396 . S
C57 C64 1.403 . S
C58 C48 1.476 . S
C58 N53 1.318 . S
C58 C57 1.396 . S
H59 C54 0.929 . S
O60 Mn36 2.385 1_556 S
O60 C38 1.234 1_556 S
O61 Mn36 2.209 . S
O61 Mn37 2.215 . S
O61 C38 1.283 . S
O62 Mn36 2.094 . S
O62 C40 1.240 . S
O63 Mn37 2.117 . S
O63 C40 1.264 . S
C64 C57 1.403 . S
C64 C65 1.399 . S
C64 H70 0.929 . S
C65 C45 1.449 . S
C65 C64 1.399 . S
C65 H71 0.930 . S
H66 C46 0.931 . S
H67 C47 0.930 . S
H68 C55 0.931 1_556 S
H69 C56 0.929 . S
H70 C64 0.929 . S
H71 C65 0.930 . S
Mn72 O77 2.095 . S
Mn72 O87 2.162 . S
Mn72 O88 2.297 . S
Mn72 O96 2.385 . S
Mn72 O97 2.209 . S
Mn72 O98 2.094 . S
Mn73 O78 2.121 . S
Mn73 N80 2.257 . S
Mn73 N89 2.282 . S
Mn73 O97 2.215 . S
Mn73 O99 2.117 . S
C74 O96 1.234 . S
C74 O97 1.283 . S
C75 O87 1.281 . S
C75 O88 1.236 . S
C76 O98 1.240 . S
C76 O99 1.264 . S
O77 Mn72 2.095 . S
O77 C86 1.250 . S
O78 Mn73 2.121 . S
O78 C86 1.258 . S
C79 N80 1.326 . S
C79 C83 1.460 . S
C79 H85 0.929 . S
N80 Mn73 2.257 . S
N80 C79 1.326 . S
N80 C84 1.362 . S
C81 C82 1.258 . S
C81 C84 1.431 . S
C81 C101 1.449 . S
C82 C81 1.258 . S
C82 C83 1.477 . S
C82 H102 0.931 . S
C83 C79 1.460 . S
C83 C82 1.477 . S
C83 H103 0.930 . S
C84 N80 1.362 . S
C84 C81 1.431 . S
C84 C94 1.476 . S
H85 C79 0.929 . S
C86 O77 1.250 . S
C86 O78 1.258 . S
O87 Mn72 2.162 . S
O87 C75 1.281 . S
O88 Mn72 2.297 . S
O88 C75 1.236 . S
N89 Mn73 2.282 . S
N89 C90 1.328 . S
N89 C94 1.318 . S
C90 N89 1.328 . S
C90 C91 1.457 . S
C90 H95 0.929 . S
C91 C90 1.457 . S
C91 C92 1.291 . S
C91 H104 0.931 . S
C92 C91 1.291 . S
C92 C93 1.373 . S
C92 H105 0.929 . S
C93 C92 1.373 . S
C93 C94 1.396 . S
C93 C100 1.403 . S
C94 C84 1.476 . S
C94 N89 1.318 . S
C94 C93 1.396 . S
H95 C90 0.929 . S
O96 Mn72 2.385 . S
O96 C74 1.234 . S
O97 Mn72 2.209 . S
O97 Mn73 2.215 . S
O97 C74 1.283 . S
O98 Mn72 2.094 . S
O98 C76 1.240 . S
O99 Mn73 2.117 . S
O99 C76 1.264 . S
C100 C93 1.403 . S
C100 C101 1.399 . S
C100 H106 0.929 . S
C101 C81 1.449 . S
C101 C100 1.399 . S
C101 H107 0.930 . S
H102 C82 0.931 . S
H103 C83 0.930 . S
H104 C91 0.931 . S
H105 C92 0.929 . S
H106 C100 0.929 . S
H107 C101 0.930 . S
Mn108 O113 2.095 . S
Mn108 O123 2.162 . S
Mn108 O124 2.297 . S
Mn108 O132 2.385 . S
Mn108 O133 2.209 . S
Mn108 O134 2.094 . S
Mn109 O114 2.121 . S
Mn109 N116 2.257 . S
Mn109 N125 2.282 . S
Mn109 O133 2.215 . S
Mn109 O135 2.117 . S
C110 O132 1.234 . S
C110 O133 1.283 . S
C111 O123 1.281 . S
C111 O124 1.236 . S
C112 O134 1.240 . S
C112 O135 1.264 . S
O113 Mn108 2.095 . S
O113 C122 1.250 . S
O114 Mn109 2.121 . S
O114 C122 1.258 . S
C115 N116 1.326 . S
C115 C119 1.460 . S
C115 H121 0.929 . S
N116 Mn109 2.257 . S
N116 C115 1.326 . S
N116 C120 1.362 . S
C117 C118 1.258 . S
C117 C120 1.431 . S
C117 C137 1.449 . S
C118 C117 1.258 . S
C118 C119 1.477 . S
C118 H138 0.931 . S
C119 C115 1.460 . S
C119 C118 1.477 . S
C119 H139 0.930 . S
C120 N116 1.362 . S
C120 C117 1.431 . S
C120 C130 1.476 . S
H121 C115 0.929 . S
C122 O113 1.250 . S
C122 O114 1.258 . S
O123 Mn108 2.162 . S
O123 C111 1.281 . S
O124 Mn108 2.297 . S
O124 C111 1.236 . S
N125 Mn109 2.282 . S
N125 C126 1.328 . S
N125 C130 1.318 . S
C126 N125 1.328 . S
C126 C127 1.457 . S
C126 H131 0.929 . S
C127 C126 1.457 . S
C127 C128 1.291 . S
C127 H140 0.931 . S
C128 C127 1.291 . S
C128 C129 1.373 . S
C128 H141 0.929 . S
C129 C128 1.373 . S
C129 C130 1.396 . S
C129 C136 1.403 . S
C130 C120 1.476 . S
C130 N125 1.318 . S
C130 C129 1.396 . S
H131 C126 0.929 . S
O132 Mn108 2.385 . S
O132 C110 1.234 . S
O133 Mn108 2.209 . S
O133 Mn109 2.215 . S
O133 C110 1.283 . S
O134 Mn108 2.094 . S
O134 C112 1.240 . S
O135 Mn109 2.117 . S
O135 C112 1.264 . S
C136 C129 1.403 . S
C136 C137 1.399 . S
C136 H142 0.929 . S
C137 C117 1.449 . S
C137 C136 1.399 . S
C137 H143 0.930 . S
H138 C118 0.931 . S
H139 C119 0.930 . S
H140 C127 0.931 . S
H141 C128 0.929 . S
H142 C136 0.929 . S
H143 C137 0.930 . S
Mn144 O149 2.095 . S
Mn144 O159 2.162 . S
Mn144 O160 2.297 . S
Mn144 O168 2.385 1_556 S
Mn144 O169 2.209 . S
Mn144 O170 2.094 . S
Mn145 O150 2.121 . S
Mn145 N152 2.257 . S
Mn145 N161 2.282 . S
Mn145 O169 2.215 . S
Mn145 O171 2.117 . S
C146 O168 1.234 1_556 S
C146 O169 1.283 . S
C147 O159 1.281 . S
C147 O160 1.236 . S
C148 O170 1.240 . S
C148 O171 1.264 . S
O149 Mn144 2.095 . S
O149 C158 1.250 . S
O150 Mn145 2.121 . S
O150 C158 1.258 . S
C151 N152 1.326 . S
C151 C155 1.460 . S
C151 H157 0.929 . S
N152 Mn145 2.257 . S
N152 C151 1.326 . S
N152 C156 1.362 . S
C153 C154 1.258 . S
C153 C156 1.431 . S
C153 C173 1.449 . S
C154 C153 1.258 . S
C154 C155 1.477 . S
C154 H174 0.931 . S
C155 C151 1.460 . S
C155 C154 1.477 . S
C155 H175 0.930 . S
C156 N152 1.362 . S
C156 C153 1.431 . S
C156 C166 1.476 . S
H157 C151 0.929 . S
C158 O149 1.250 . S
C158 O150 1.258 . S
O159 Mn144 2.162 . S
O159 C147 1.281 . S
O160 Mn144 2.297 . S
O160 C147 1.236 . S
N161 Mn145 2.282 . S
N161 C162 1.328 . S
N161 C166 1.318 . S
C162 N161 1.328 . S
C162 C163 1.457 . S
C162 H167 0.929 . S
C163 C162 1.457 . S
C163 C164 1.291 . S
C163 H176 0.931 1_556 S
C164 C163 1.291 . S
C164 C165 1.373 . S
C164 H177 0.929 . S
C165 C164 1.373 . S
C165 C166 1.396 . S
C165 C172 1.403 . S
C166 C156 1.476 . S
C166 N161 1.318 . S
C166 C165 1.396 . S
H167 C162 0.929 . S
O168 Mn144 2.385 1_554 S
O168 C146 1.234 1_554 S
O169 Mn144 2.209 . S
O169 Mn145 2.215 . S
O169 C146 1.283 . S
O170 Mn144 2.094 . S
O170 C148 1.240 . S
O171 Mn145 2.117 . S
O171 C148 1.264 . S
C172 C165 1.403 . S
C172 C173 1.399 . S
C172 H178 0.929 . S
C173 C153 1.449 . S
C173 C172 1.399 . S
C173 H179 0.930 . S
H174 C154 0.931 . S
H175 C155 0.930 . S
H176 C163 0.931 1_554 S
H177 C164 0.929 . S
H178 C172 0.929 . S
H179 C173 0.930 . S
Mn180 O185 2.095 . S
Mn180 O195 2.162 . S
Mn180 O196 2.297 . S
Mn180 O204 2.385 1_556 S
Mn180 O205 2.209 . S
Mn180 O206 2.094 . S
Mn181 O186 2.121 . S
Mn181 N188 2.257 . S
Mn181 N197 2.282 . S
Mn181 O205 2.215 . S
Mn181 O207 2.117 . S
C182 O204 1.234 1_556 S
C182 O205 1.283 . S
C183 O195 1.281 . S
C183 O196 1.236 . S
C184 O206 1.240 . S
C184 O207 1.264 . S
O185 Mn180 2.095 . S
O185 C194 1.250 . S
O186 Mn181 2.121 . S
O186 C194 1.258 . S
C187 N188 1.326 . S
C187 C191 1.460 . S
C187 H193 0.929 . S
N188 Mn181 2.257 . S
N188 C187 1.326 . S
N188 C192 1.362 . S
C189 C190 1.258 . S
C189 C192 1.431 . S
C189 C209 1.449 . S
C190 C189 1.258 . S
C190 C191 1.477 . S
C190 H210 0.931 . S
C191 C187 1.460 . S
C191 C190 1.477 . S
C191 H211 0.930 . S
C192 N188 1.362 . S
C192 C189 1.431 . S
C192 C202 1.476 . S
H193 C187 0.929 . S
C194 O185 1.250 . S
C194 O186 1.258 . S
O195 Mn180 2.162 . S
O195 C183 1.281 . S
O196 Mn180 2.297 . S
O196 C183 1.236 . S
N197 Mn181 2.282 . S
N197 C198 1.328 . S
N197 C202 1.318 . S
C198 N197 1.328 . S
C198 C199 1.457 . S
C198 H203 0.929 . S
C199 C198 1.457 . S
C199 C200 1.291 . S
C199 H212 0.931 1_556 S
C200 C199 1.291 . S
C200 C201 1.373 . S
C200 H213 0.929 . S
C201 C200 1.373 . S
C201 C202 1.396 . S
C201 C208 1.403 . S
C202 C192 1.476 . S
C202 N197 1.318 . S
C202 C201 1.396 . S
H203 C198 0.929 . S
O204 Mn180 2.385 1_554 S
O204 C182 1.234 1_554 S
O205 Mn180 2.209 . S
O205 Mn181 2.215 . S
O205 C182 1.283 . S
O206 Mn180 2.094 . S
O206 C184 1.240 . S
O207 Mn181 2.117 . S
O207 C184 1.264 . S
C208 C201 1.403 . S
C208 C209 1.399 . S
C208 H214 0.929 . S
C209 C189 1.449 . S
C209 C208 1.399 . S
C209 H215 0.930 . S
H210 C190 0.931 . S
H211 C191 0.930 . S
H212 C199 0.931 1_554 S
H213 C200 0.929 . S
H214 C208 0.929 . S
H215 C209 0.930 . S
Mn216 O221 2.095 . S
Mn216 O231 2.162 . S
Mn216 O232 2.297 . S
Mn216 O240 2.385 . S
Mn216 O241 2.209 . S
Mn216 O242 2.094 . S
Mn217 O222 2.121 . S
Mn217 N224 2.257 . S
Mn217 N233 2.282 . S
Mn217 O241 2.215 . S
Mn217 O243 2.117 . S
C218 O240 1.234 . S
C218 O241 1.283 . S
C219 O231 1.281 . S
C219 O232 1.236 . S
C220 O242 1.240 . S
C220 O243 1.264 . S
O221 Mn216 2.095 . S
O221 C230 1.250 . S
O222 Mn217 2.121 . S
O222 C230 1.258 . S
C223 N224 1.326 . S
C223 C227 1.460 . S
C223 H229 0.929 . S
N224 Mn217 2.257 . S
N224 C223 1.326 . S
N224 C228 1.362 . S
C225 C226 1.258 . S
C225 C228 1.431 . S
C225 C245 1.449 . S
C226 C225 1.258 . S
C226 C227 1.477 . S
C226 H246 0.931 . S
C227 C223 1.460 . S
C227 C226 1.477 . S
C227 H247 0.930 . S
C228 N224 1.362 . S
C228 C225 1.431 . S
C228 C238 1.476 . S
H229 C223 0.929 . S
C230 O221 1.250 . S
C230 O222 1.258 . S
O231 Mn216 2.162 . S
O231 C219 1.281 . S
O232 Mn216 2.297 . S
O232 C219 1.236 . S
N233 Mn217 2.282 . S
N233 C234 1.328 . S
N233 C238 1.318 . S
C234 N233 1.328 . S
C234 C235 1.457 . S
C234 H239 0.929 . S
C235 C234 1.457 . S
C235 C236 1.291 . S
C235 H248 0.931 . S
C236 C235 1.291 . S
C236 C237 1.373 . S
C236 H249 0.929 . S
C237 C236 1.373 . S
C237 C238 1.396 . S
C237 C244 1.403 . S
C238 C228 1.476 . S
C238 N233 1.318 . S
C238 C237 1.396 . S
H239 C234 0.929 . S
O240 Mn216 2.385 . S
O240 C218 1.234 . S
O241 Mn216 2.209 . S
O241 Mn217 2.215 . S
O241 C218 1.283 . S
O242 Mn216 2.094 . S
O242 C220 1.240 . S
O243 Mn217 2.117 . S
O243 C220 1.264 . S
C244 C237 1.403 . S
C244 C245 1.399 . S
C244 H250 0.929 . S
C245 C225 1.449 . S
C245 C244 1.399 . S
C245 H251 0.930 . S
H246 C226 0.931 . S
H247 C227 0.930 . S
H248 C235 0.931 . S
H249 C236 0.929 . S
H250 C244 0.929 . S
H251 C245 0.930 . S
Mn252 O257 2.095 . S
Mn252 O267 2.162 . S
Mn252 O268 2.297 . S
Mn252 O276 2.385 . S
Mn252 O277 2.209 . S
Mn252 O278 2.094 . S
Mn253 O258 2.121 . S
Mn253 N260 2.257 . S
Mn253 N269 2.282 . S
Mn253 O277 2.215 . S
Mn253 O279 2.117 . S
C254 O276 1.234 . S
C254 O277 1.283 . S
C255 O267 1.281 . S
C255 O268 1.236 . S
C256 O278 1.240 . S
C256 O279 1.264 . S
O257 Mn252 2.095 . S
O257 C266 1.250 . S
O258 Mn253 2.121 . S
O258 C266 1.258 . S
C259 N260 1.326 . S
C259 C263 1.460 . S
C259 H265 0.929 . S
N260 Mn253 2.257 . S
N260 C259 1.326 . S
N260 C264 1.362 . S
C261 C262 1.258 . S
C261 C264 1.431 . S
C261 C281 1.449 . S
C262 C261 1.258 . S
C262 C263 1.477 . S
C262 H282 0.931 . S
C263 C259 1.460 . S
C263 C262 1.477 . S
C263 H283 0.930 . S
C264 N260 1.362 . S
C264 C261 1.431 . S
C264 C274 1.476 . S
H265 C259 0.929 . S
C266 O257 1.250 . S
C266 O258 1.258 . S
O267 Mn252 2.162 . S
O267 C255 1.281 . S
O268 Mn252 2.297 . S
O268 C255 1.236 . S
N269 Mn253 2.282 . S
N269 C270 1.328 . S
N269 C274 1.318 . S
C270 N269 1.328 . S
C270 C271 1.457 . S
C270 H275 0.929 . S
C271 C270 1.457 . S
C271 C272 1.291 . S
C271 H284 0.931 . S
C272 C271 1.291 . S
C272 C273 1.373 . S
C272 H285 0.929 . S
C273 C272 1.373 . S
C273 C274 1.396 . S
C273 C280 1.403 . S
C274 C264 1.476 . S
C274 N269 1.318 . S
C274 C273 1.396 . S
H275 C270 0.929 . S
O276 Mn252 2.385 . S
O276 C254 1.234 . S
O277 Mn252 2.209 . S
O277 Mn253 2.215 . S
O277 C254 1.283 . S
O278 Mn252 2.094 . S
O278 C256 1.240 . S
O279 Mn253 2.117 . S
O279 C256 1.264 . S
C280 C273 1.403 . S
C280 C281 1.399 . S
C280 H286 0.929 . S
C281 C261 1.449 . S
C281 C280 1.399 . S
C281 H287 0.930 . S
H282 C262 0.931 . S
H283 C263 0.930 . S
H284 C271 0.931 . S
H285 C272 0.929 . S
H286 C280 0.929 . S
H287 C281 0.930 . S
C288 C289 1.391 . S
C288 C290 1.394 . S
C288 H304 0.931 . S
C289 C288 1.391 . S
C289 C293 1.376 . S
C290 C288 1.394 . S
C290 C291 1.369 . S
C290 C294 1.531 . S
C291 C290 1.369 . S
C291 C292 1.410 . S
C291 C299 1.503 1_545 S
C292 C291 1.410 . S
C292 C293 1.392 . S
C292 C295 1.511 1_545 S
C293 C289 1.376 . S
C293 C292 1.392 . S
C293 H305 0.929 . S
C294 C290 1.531 . S
C294 H306 0.960 . S
C294 H307 0.962 . S
C294 H308 0.960 . S
C295 C292 1.511 1_565 S
C295 H309 0.961 . S
C295 H310 0.961 . S
C295 H311 0.961 1_554 S
C296 C297 1.370 . S
C296 C298 1.363 . S
C296 H312 0.931 . S
C297 C296 1.370 . S
C297 C301 1.408 1_554 S
C298 C296 1.363 . S
C298 C299 1.370 . S
C298 C302 1.524 . S
C299 C291 1.503 1_565 S
C299 C298 1.370 . S
C299 C300 1.403 1_554 S
C300 C299 1.403 1_556 S
C300 C301 1.404 . S
C300 C303 1.539 . S
C301 C297 1.408 1_556 S
C301 C300 1.404 . S
C301 H313 0.930 . S
C302 C298 1.524 . S
C302 H314 0.956 1_565 S
C302 H315 0.961 . S
C302 H316 0.961 . S
C303 C300 1.539 . S
C303 H317 0.958 1_565 S
C303 H318 0.961 . S
C303 H319 0.960 . S
H304 C288 0.931 . S
H305 C293 0.929 . S
H306 C294 0.960 . S
H307 C294 0.962 . S
H308 C294 0.960 . S
H309 C295 0.961 . S
H310 C295 0.961 . S
H311 C295 0.961 1_556 S
H312 C296 0.931 . S
H313 C301 0.930 . S
H314 C302 0.956 1_545 S
H315 C302 0.961 . S
H316 C302 0.961 . S
H317 C303 0.958 1_545 S
H318 C303 0.961 . S
H319 C303 0.960 . S
C320 C321 1.391 . S
C320 C322 1.394 . S
C320 H336 0.931 . S
C321 C320 1.391 . S
C321 C325 1.376 . S
C322 C320 1.394 . S
C322 C323 1.369 . S
C322 C326 1.531 . S
C323 C322 1.369 . S
C323 C324 1.410 . S
C323 C331 1.503 . S
C324 C323 1.410 . S
C324 C325 1.392 . S
C324 C327 1.511 . S
C325 C321 1.376 . S
C325 C324 1.392 . S
C325 H337 0.929 . S
C326 C322 1.531 . S
C326 H338 0.960 . S
C326 H339 0.962 . S
C326 H340 0.960 . S
C327 C324 1.511 . S
C327 H341 0.961 . S
C327 H342 0.961 . S
C327 H343 0.961 . S
C328 C329 1.370 . S
C328 C330 1.363 . S
C328 H344 0.931 . S
C329 C328 1.370 . S
C329 C333 1.408 . S
C330 C328 1.363 . S
C330 C331 1.370 . S
C330 C334 1.524 . S
C331 C323 1.503 . S
C331 C330 1.370 . S
C331 C332 1.403 . S
C332 C331 1.403 . S
C332 C333 1.404 . S
C332 C335 1.539 . S
C333 C329 1.408 . S
C333 C332 1.404 . S
C333 H345 0.930 . S
C334 C330 1.524 . S
C334 H346 0.956 . S
C334 H347 0.961 . S
C334 H348 0.961 . S
C335 C332 1.539 . S
C335 H349 0.958 . S
C335 H350 0.961 . S
C335 H351 0.960 . S
H336 C320 0.931 . S
H337 C325 0.929 . S
H338 C326 0.960 . S
H339 C326 0.962 . S
H340 C326 0.960 . S
H341 C327 0.961 . S
H342 C327 0.961 . S
H343 C327 0.961 . S
H344 C328 0.931 . S
H345 C333 0.930 . S
H346 C334 0.956 . S
H347 C334 0.961 . S
H348 C334 0.961 . S
H349 C335 0.958 . S
H350 C335 0.961 . S
H351 C335 0.960 . S
C352 C353 1.391 . S
C352 C354 1.394 . S
C352 H368 0.931 . S
C353 C352 1.391 . S
C353 C357 1.376 . S
C354 C352 1.394 . S
C354 C355 1.369 . S
C354 C358 1.531 . S
C355 C354 1.369 . S
C355 C356 1.410 . S
C355 C363 1.503 1_565 S
C356 C355 1.410 . S
C356 C357 1.392 . S
C356 C359 1.511 1_566 S
C357 C353 1.376 . S
C357 C356 1.392 . S
C357 H369 0.914 1_556 S
C358 C354 1.531 . S
C358 H370 0.960 . S
C358 H371 0.962 . S
C358 H372 0.960 . S
C359 C356 1.511 1_544 S
C359 H373 0.961 . S
C359 H374 0.961 . S
C359 H375 0.961 1_554 S
C360 C361 1.370 1_554 S
C360 C362 1.363 1_554 S
C360 H376 0.931 . S
C361 C360 1.370 1_556 S
C361 C365 1.408 . S
C362 C360 1.363 1_556 S
C362 C363 1.373 . S
C362 C366 1.522 1_546 S
C363 C355 1.503 1_545 S
C363 C362 1.373 . S
C363 C364 1.403 . S
C364 C363 1.403 . S
C364 C365 1.404 . S
C364 C367 1.539 . S
C365 C361 1.408 . S
C365 C364 1.404 . S
C365 H377 0.930 . S
C366 C362 1.522 1_564 S
C366 H378 0.956 . S
C366 H379 0.961 . S
C366 H380 0.961 . S
C367 C364 1.539 . S
C367 H381 0.958 . S
C367 H382 0.961 . S
C367 H383 0.960 . S
H368 C352 0.931 . S
H369 C357 0.914 1_554 S
H370 C358 0.960 . S
H371 C358 0.962 . S
H372 C358 0.960 . S
H373 C359 0.961 . S
H374 C359 0.961 . S
H375 C359 0.961 1_556 S
H376 C360 0.931 . S
H377 C365 0.930 . S
H378 C366 0.956 . S
H379 C366 0.961 . S
H380 C366 0.961 . S
H381 C367 0.958 . S
H382 C367 0.961 . S
H383 C367 0.960 . S
C384 C385 1.391 . S
C384 C386 1.394 . S
C384 H400 0.931 . S
C385 C384 1.391 . S
C385 C389 1.376 . S
C386 C384 1.394 . S
C386 C387 1.369 . S
C386 C390 1.531 . S
C387 C386 1.369 . S
C387 C388 1.410 . S
C387 C395 1.503 . S
C388 C387 1.410 . S
C388 C389 1.392 . S
C388 C391 1.511 . S
C389 C385 1.376 . S
C389 C388 1.392 . S
C389 H401 0.929 . S
C390 C386 1.531 . S
C390 H402 0.960 . S
C390 H403 0.962 . S
C390 H404 0.960 . S
C391 C388 1.511 . S
C391 H405 0.961 . S
C391 H406 0.961 . S
C391 H407 0.961 . S
C392 C393 1.370 . S
C392 C394 1.363 . S
C392 H408 0.931 . S
C393 C392 1.370 . S
C393 C397 1.408 . S
C394 C392 1.363 . S
C394 C395 1.370 . S
C394 C398 1.524 . S
C395 C387 1.503 . S
C395 C394 1.370 . S
C395 C396 1.403 . S
C396 C395 1.403 . S
C396 C397 1.404 . S
C396 C399 1.539 . S
C397 C393 1.408 . S
C397 C396 1.404 . S
C397 H409 0.930 . S
C398 C394 1.524 . S
C398 H410 0.956 . S
C398 H411 0.961 . S
C398 H412 0.961 . S
C399 C396 1.539 . S
C399 H413 0.958 . S
C399 H414 0.961 . S
C399 H415 0.960 . S
H400 C384 0.931 . S
H401 C389 0.929 . S
H402 C390 0.960 . S
H403 C390 0.962 . S
H404 C390 0.960 . S
H405 C391 0.961 . S
H406 C391 0.961 . S
H407 C391 0.961 . S
H408 C392 0.931 . S
H409 C397 0.930 . S
H410 C398 0.956 . S
H411 C398 0.961 . S
H412 C398 0.961 . S
H413 C399 0.958 . S
H414 C399 0.961 . S
H415 C399 0.960 . S
C416 C417 1.391 . S
C416 C418 1.394 . S
C416 H432 0.931 . S
C417 C416 1.391 . S
C417 C421 1.376 . S
C418 C416 1.394 . S
C418 C419 1.369 . S
C418 C422 1.531 . S
C419 C418 1.369 . S
C419 C420 1.410 . S
C419 C427 1.503 . S
C420 C419 1.410 . S
C420 C421 1.392 . S
C420 C423 1.511 . S
C421 C417 1.376 . S
C421 C420 1.392 . S
C421 H433 0.929 . S
C422 C418 1.531 . S
C422 H434 0.960 . S
C422 H435 0.962 . S
C422 H436 0.960 . S
C423 C420 1.511 . S
C423 H437 0.961 . S
C423 H438 0.961 . S
C423 H439 0.961 . S
C424 C425 1.370 . S
C424 C426 1.363 . S
C424 H440 0.931 . S
C425 C424 1.370 . S
C425 C429 1.408 . S
C426 C424 1.363 . S
C426 C427 1.370 . S
C426 C430 1.524 . S
C427 C419 1.503 . S
C427 C426 1.370 . S
C427 C428 1.403 . S
C428 C427 1.403 . S
C428 C429 1.404 . S
C428 C431 1.539 . S
C429 C425 1.408 . S
C429 C428 1.404 . S
C429 H441 0.930 . S
C430 C426 1.524 . S
C430 H442 0.956 . S
C430 H443 0.961 . S
C430 H444 0.961 . S
C431 C428 1.539 . S
C431 H445 0.958 . S
C431 H446 0.961 . S
C431 H447 0.960 . S
H432 C416 0.931 . S
H433 C421 0.929 . S
H434 C422 0.960 . S
H435 C422 0.962 . S
H436 C422 0.960 . S
H437 C423 0.961 . S
H438 C423 0.961 . S
H439 C423 0.961 . S
H440 C424 0.931 . S
H441 C429 0.930 . S
H442 C430 0.956 . S
H443 C430 0.961 . S
H444 C430 0.961 . S
H445 C431 0.958 . S
H446 C431 0.961 . S
H447 C431 0.960 . S
C448 C449 1.391 . S
C448 C450 1.394 . S
C448 H464 0.931 . S
C449 C448 1.391 . S
C449 C453 1.376 . S
C450 C448 1.394 . S
C450 C451 1.369 . S
C450 C454 1.531 . S
C451 C450 1.369 . S
C451 C452 1.410 . S
C451 C459 1.503 . S
C452 C451 1.410 . S
C452 C453 1.392 . S
C452 C455 1.511 . S
C453 C449 1.376 . S
C453 C452 1.392 . S
C453 H465 0.929 . S
C454 C450 1.531 . S
C454 H466 0.960 . S
C454 H467 0.962 . S
C454 H468 0.960 . S
C455 C452 1.511 . S
C455 H469 0.961 . S
C455 H470 0.961 . S
C455 H471 0.961 . S
C456 C457 1.370 . S
C456 C458 1.363 . S
C456 H472 0.931 . S
C457 C456 1.370 . S
C457 C461 1.408 . S
C458 C456 1.363 . S
C458 C459 1.370 . S
C458 C462 1.524 . S
C459 C451 1.503 . S
C459 C458 1.370 . S
C459 C460 1.403 . S
C460 C459 1.403 . S
C460 C461 1.404 . S
C460 C463 1.539 . S
C461 C457 1.408 . S
C461 C460 1.404 . S
C461 H473 0.930 . S
C462 C458 1.524 . S
C462 H474 0.956 . S
C462 H475 0.961 . S
C462 H476 0.961 . S
C463 C460 1.539 . S
C463 H477 0.958 . S
C463 H478 0.961 . S
C463 H479 0.960 . S
H464 C448 0.931 . S
H465 C453 0.929 . S
H466 C454 0.960 . S
H467 C454 0.962 . S
H468 C454 0.960 . S
H469 C455 0.961 . S
H470 C455 0.961 . S
H471 C455 0.961 . S
H472 C456 0.931 . S
H473 C461 0.930 . S
H474 C462 0.956 . S
H475 C462 0.961 . S
H476 C462 0.961 . S
H477 C463 0.958 . S
H478 C463 0.961 . S
H479 C463 0.960 . S
C480 C481 1.391 . S
C480 C482 1.394 . S
C480 H496 0.931 . S
C481 C480 1.391 . S
C481 C485 1.376 . S
C482 C480 1.394 . S
C482 C483 1.369 . S
C482 C486 1.531 . S
C483 C482 1.369 . S
C483 C484 1.410 . S
C483 C491 1.503 . S
C484 C483 1.410 . S
C484 C485 1.392 . S
C484 C487 1.511 . S
C485 C481 1.376 . S
C485 C484 1.392 . S
C485 H497 0.929 . S
C486 C482 1.531 . S
C486 H498 0.960 . S
C486 H499 0.962 . S
C486 H500 0.960 . S
C487 C484 1.511 . S
C487 H501 0.961 . S
C487 H502 0.961 . S
C487 H503 0.961 . S
C488 C489 1.370 . S
C488 C490 1.363 . S
C488 H504 0.931 . S
C489 C488 1.370 . S
C489 C493 1.408 . S
C490 C488 1.363 . S
C490 C491 1.370 . S
C490 C494 1.524 . S
C491 C483 1.503 . S
C491 C490 1.370 . S
C491 C492 1.403 . S
C492 C491 1.403 . S
C492 C493 1.404 . S
C492 C495 1.539 . S
C493 C489 1.408 . S
C493 C492 1.404 . S
C493 H505 0.930 . S
C494 C490 1.524 . S
C494 H506 0.956 . S
C494 H507 0.961 . S
C494 H508 0.961 . S
C495 C492 1.539 . S
C495 H509 0.958 . S
C495 H510 0.961 . S
C495 H511 0.960 . S
H496 C480 0.931 . S
H497 C485 0.929 . S
H498 C486 0.960 . S
H499 C486 0.962 . S
H500 C486 0.960 . S
H501 C487 0.961 . S
H502 C487 0.961 . S
H503 C487 0.961 . S
H504 C488 0.931 . S
H505 C493 0.930 . S
H506 C494 0.956 . S
H507 C494 0.961 . S
H508 C494 0.961 . S
H509 C495 0.958 . S
H510 C495 0.961 . S
H511 C495 0.960 . S
C512 C513 1.391 . S
C512 C514 1.394 . S
C512 H528 0.931 . S
C513 C512 1.391 . S
C513 C517 1.376 . S
C514 C512 1.394 . S
C514 C515 1.369 . S
C514 C518 1.531 . S
C515 C514 1.369 . S
C515 C516 1.410 . S
C515 C523 1.503 . S
C516 C515 1.410 . S
C516 C517 1.392 . S
C516 C519 1.511 . S
C517 C513 1.376 . S
C517 C516 1.392 . S
C517 H529 0.929 . S
C518 C514 1.531 . S
C518 H530 0.960 . S
C518 H531 0.962 . S
C518 H532 0.960 . S
C519 C516 1.511 . S
C519 H533 0.961 . S
C519 H534 0.961 . S
C519 H535 0.961 . S
C520 C521 1.370 . S
C520 C522 1.363 . S
C520 H536 0.931 . S
C521 C520 1.370 . S
C521 C525 1.408 . S
C522 C520 1.363 . S
C522 C523 1.370 . S
C522 C526 1.524 . S
C523 C515 1.503 . S
C523 C522 1.370 . S
C523 C524 1.403 . S
C524 C523 1.403 . S
C524 C525 1.404 . S
C524 C527 1.539 . S
C525 C521 1.408 . S
C525 C524 1.404 . S
C525 H537 0.930 . S
C526 C522 1.524 . S
C526 H538 0.956 . S
C526 H539 0.961 . S
C526 H540 0.961 . S
C527 C524 1.539 . S
C527 H541 0.958 . S
C527 H542 0.961 . S
C527 H543 0.960 . S
H528 C512 0.931 . S
H529 C517 0.929 . S
H530 C518 0.960 . S
H531 C518 0.962 . S
H532 C518 0.960 . S
H533 C519 0.961 . S
H534 C519 0.961 . S
H535 C519 0.961 . S
H536 C520 0.931 . S
H537 C525 0.930 . S
H538 C526 0.956 . S
H539 C526 0.961 . S
H540 C526 0.961 . S
H541 C527 0.958 . S
H542 C527 0.961 . S
H543 C527 0.960 . S
C544 C545 1.391 1_556 S
C544 C546 1.394 . S
C544 H560 0.931 . S
C545 C544 1.391 1_554 S
C545 C549 1.376 . S
C546 C544 1.394 . S
C546 C547 1.369 1_556 S
C546 C550 1.531 . S
C547 C546 1.369 1_554 S
C547 C548 1.410 . S
C547 C555 1.503 1_554 S
C548 C547 1.410 . S
C548 C549 1.392 . S
C548 C551 1.511 . S
C549 C545 1.376 . S
C549 C548 1.392 . S
C549 H561 0.929 . S
C550 C546 1.531 . S
C550 H562 0.960 . S
C550 H563 0.962 . S
C550 H564 0.960 . S
C551 C548 1.511 . S
C551 H565 0.961 . S
C551 H566 0.961 . S
C551 H567 0.961 . S
C552 C553 1.370 . S
C552 C554 1.363 . S
C552 H568 0.931 . S
C553 C552 1.370 . S
C553 C557 1.408 . S
C554 C552 1.363 . S
C554 C555 1.370 . S
C554 C558 1.524 . S
C555 C547 1.503 1_556 S
C555 C554 1.370 . S
C555 C556 1.403 . S
C556 C555 1.403 . S
C556 C557 1.404 . S
C556 C559 1.539 1_556 S
C557 C553 1.408 . S
C557 C556 1.404 . S
C557 H569 0.930 . S
C558 C554 1.524 . S
C558 H570 0.956 . S
C558 H571 0.961 1_556 S
C558 H572 0.961 . S
C559 C556 1.539 1_554 S
C559 H573 0.958 1_554 S
C559 H574 0.961 . S
C559 H575 0.960 . S
H560 C544 0.931 . S
H561 C549 0.929 . S
H562 C550 0.960 . S
H563 C550 0.962 . S
H564 C550 0.960 . S
H565 C551 0.961 . S
H566 C551 0.961 . S
H567 C551 0.961 . S
H568 C552 0.931 . S
H569 C557 0.930 . S
H570 C558 0.956 . S
H571 C558 0.961 1_554 S
H572 C558 0.961 . S
H573 C559 0.958 1_556 S
H574 C559 0.961 . S
H575 C559 0.960 . S
C576 C577 1.391 . S
C576 C578 1.394 . S
C576 H592 0.931 . S
C577 C576 1.391 . S
C577 C581 1.376 1_554 S
C578 C576 1.394 . S
C578 C579 1.383 . S
C578 C582 1.531 1_455 S
C579 C578 1.383 . S
C579 C580 1.397 1_554 S
C579 C587 1.502 1_454 S
C580 C579 1.397 1_556 S
C580 C581 1.392 . S
C580 C583 1.511 . S
C581 C577 1.376 1_556 S
C581 C580 1.392 . S
C581 H593 0.929 . S
C582 C578 1.531 1_655 S
C582 H594 0.960 . S
C582 H595 0.964 . S
C582 H596 0.960 . S
C583 C580 1.511 . S
C583 H597 0.961 . S
C583 H598 0.961 . S
C583 H599 0.961 . S
C584 C585 1.370 1_554 S
C584 C586 1.363 . S
C584 H600 0.931 . S
C585 C584 1.370 1_556 S
C585 C589 1.408 . S
C586 C584 1.363 . S
C586 C587 1.370 1_554 S
C586 C590 1.524 1_655 S
C587 C579 1.502 1_656 S
C587 C586 1.370 1_556 S
C587 C588 1.403 . S
C588 C587 1.403 . S
C588 C589 1.404 . S
C588 C591 1.539 . S
C589 C585 1.408 . S
C589 C588 1.404 . S
C589 H601 0.930 . S
C590 C586 1.524 1_455 S
C590 H602 0.956 . S
C590 H603 0.961 1_554 S
C590 H604 0.961 . S
C591 C588 1.539 . S
C591 H605 0.958 . S
C591 H606 0.961 . S
C591 H607 0.960 . S
H592 C576 0.931 . S
H593 C581 0.929 . S
H594 C582 0.960 . S
H595 C582 0.964 . S
H596 C582 0.960 . S
H597 C583 0.961 . S
H598 C583 0.961 . S
H599 C583 0.961 . S
H600 C584 0.931 . S
H601 C589 0.930 . S
H602 C590 0.956 . S
H603 C590 0.961 1_556 S
H604 C590 0.961 . S
H605 C591 0.958 . S
H606 C591 0.961 . S
H607 C591 0.960 . S
C608 C609 1.391 . S
C608 C610 1.394 . S
C608 H624 0.931 . S
C609 C608 1.391 . S
C609 C613 1.376 . S
C610 C608 1.394 . S
C610 C611 1.369 . S
C610 C614 1.531 1_565 S
C611 C610 1.369 . S
C611 C612 1.410 . S
C611 C619 1.503 1_565 S
C612 C611 1.410 . S
C612 C613 1.392 . S
C612 C615 1.511 . S
C613 C609 1.376 . S
C613 C612 1.392 . S
C613 H625 0.929 . S
C614 C610 1.531 1_545 S
C614 H626 0.960 . S
C614 H627 0.962 . S
C614 H628 0.960 . S
C615 C612 1.511 . S
C615 H629 0.961 . S
C615 H630 0.961 . S
C615 H631 0.961 . S
C616 C617 1.370 . S
C616 C618 1.363 . S
C616 H632 0.931 . S
C617 C616 1.370 . S
C617 C621 1.408 . S
C618 C616 1.363 . S
C618 C619 1.370 . S
C618 C622 1.524 . S
C619 C611 1.503 1_545 S
C619 C618 1.370 . S
C619 C620 1.403 . S
C620 C619 1.403 . S
C620 C621 1.404 . S
C620 C623 1.539 1_545 S
C621 C617 1.408 . S
C621 C620 1.404 . S
C621 H633 0.930 . S
C622 C618 1.524 . S
C622 H634 0.956 . S
C622 H635 0.961 . S
C622 H636 0.961 . S
C623 C620 1.539 1_565 S
C623 H637 0.958 1_565 S
C623 H638 0.961 . S
C623 H639 0.960 . S
H624 C608 0.931 . S
H625 C613 0.929 . S
H626 C614 0.960 . S
H627 C614 0.962 . S
H628 C614 0.960 . S
H629 C615 0.961 . S
H630 C615 0.961 . S
H631 C615 0.961 . S
H632 C616 0.931 . S
H633 C621 0.930 . S
H634 C622 0.956 . S
H635 C622 0.961 . S
H636 C622 0.961 . S
H637 C623 0.958 1_545 S
H638 C623 0.961 . S
H639 C623 0.960 . S
C640 C641 1.391 . S
C640 C642 1.394 . S
C640 H656 0.931 . S
C641 C640 1.391 . S
C641 C645 1.376 . S
C642 C640 1.394 . S
C642 C643 1.369 . S
C642 C646 1.531 1_545 S
C643 C642 1.369 . S
C643 C644 1.410 1_655 S
C643 C651 1.503 1_645 S
C644 C643 1.410 1_455 S
C644 C645 1.392 1_455 S
C644 C647 1.511 . S
C645 C641 1.376 . S
C645 C644 1.392 1_655 S
C645 H657 0.929 . S
C646 C642 1.531 1_565 S
C646 H658 0.960 . S
C646 H659 0.962 . S
C646 H660 0.960 . S
C647 C644 1.511 . S
C647 H661 0.961 . S
C647 H662 0.961 . S
C647 H663 0.961 . S
C648 C649 1.370 . S
C648 C650 1.363 . S
C648 H664 0.931 . S
C649 C648 1.370 . S
C649 C653 1.408 . S
C650 C648 1.363 . S
C650 C651 1.370 . S
C650 C654 1.524 1_455 S
C651 C643 1.503 1_465 S
C651 C650 1.370 . S
C651 C652 1.403 . S
C652 C651 1.403 . S
C652 C653 1.404 . S
C652 C655 1.539 1_565 S
C653 C649 1.408 . S
C653 C652 1.404 . S
C653 H665 0.930 . S
C654 C650 1.524 1_655 S
C654 H666 0.956 . S
C654 H667 0.961 . S
C654 H668 0.961 . S
C655 C652 1.539 1_545 S
C655 H669 0.958 . S
C655 H670 0.961 . S
C655 H671 0.960 . S
H656 C640 0.931 . S
H657 C645 0.929 . S
H658 C646 0.960 . S
H659 C646 0.962 . S
H660 C646 0.960 . S
H661 C647 0.961 . S
H662 C647 0.961 . S
H663 C647 0.961 . S
H664 C648 0.931 . S
H665 C653 0.930 . S
H666 C654 0.956 . S
H667 C654 0.961 . S
H668 C654 0.961 . S
H669 C655 0.958 . S
H670 C655 0.961 . S
H671 C655 0.960 . S
C672 C673 1.391 . S
C672 C674 1.394 . S
C672 H688 0.931 . S
C673 C672 1.391 . S
C673 C677 1.376 . S
C674 C672 1.394 . S
C674 C675 1.369 . S
C674 C678 1.531 . S
C675 C674 1.369 . S
C675 C676 1.410 . S
C675 C683 1.503 . S
C676 C675 1.410 . S
C676 C677 1.392 . S
C676 C679 1.511 . S
C677 C673 1.376 . S
C677 C676 1.392 . S
C677 H689 0.929 . S
C678 C674 1.531 . S
C678 H690 0.960 . S
C678 H691 0.962 . S
C678 H692 0.960 . S
C679 C676 1.511 . S
C679 H693 0.961 . S
C679 H694 0.961 . S
C679 H695 0.961 . S
C680 C681 1.370 1_556 S
C680 C682 1.363 . S
C680 H696 0.931 . S
C681 C680 1.370 1_554 S
C681 C685 1.408 . S
C682 C680 1.363 . S
C682 C683 1.370 1_556 S
C682 C686 1.524 . S
C683 C675 1.503 . S
C683 C682 1.370 1_554 S
C683 C684 1.403 . S
C684 C683 1.403 . S
C684 C685 1.404 . S
C684 C687 1.539 . S
C685 C681 1.408 . S
C685 C684 1.404 . S
C685 H697 0.930 . S
C686 C682 1.524 . S
C686 H698 0.956 . S
C686 H699 0.961 . S
C686 H700 0.961 . S
C687 C684 1.539 . S
C687 H701 0.958 . S
C687 H702 0.961 . S
C687 H703 0.960 . S
H688 C672 0.931 . S
H689 C677 0.929 . S
H690 C678 0.960 . S
H691 C678 0.962 . S
H692 C678 0.960 . S
H693 C679 0.961 . S
H694 C679 0.961 . S
H695 C679 0.961 . S
H696 C680 0.931 . S
H697 C685 0.930 . S
H698 C686 0.956 . S
H699 C686 0.961 . S
H700 C686 0.961 . S
H701 C687 0.958 . S
H702 C687 0.961 . S
H703 C687 0.960 . S
C704 C705 1.391 . S
C704 C706 1.394 . S
C704 H720 0.931 . S
C705 C704 1.391 . S
C705 C709 1.376 . S
C706 C704 1.394 . S
C706 C707 1.369 . S
C706 C710 1.531 . S
C707 C706 1.369 . S
C707 C708 1.410 . S
C707 C715 1.503 1_545 S
C708 C707 1.410 . S
C708 C709 1.392 . S
C708 C711 1.511 1_545 S
C709 C705 1.376 . S
C709 C708 1.392 . S
C709 H721 0.929 . S
C710 C706 1.531 . S
C710 H722 0.960 . S
C710 H723 0.962 . S
C710 H724 0.960 . S
C711 C708 1.511 1_565 S
C711 H725 0.961 . S
C711 H726 0.961 . S
C711 H727 0.961 . S
C712 C713 1.370 . S
C712 C714 1.363 . S
C712 H728 0.931 . S
C713 C712 1.370 . S
C713 C717 1.408 . S
C714 C712 1.363 . S
C714 C715 1.370 . S
C714 C718 1.524 . S
C715 C707 1.503 1_565 S
C715 C714 1.370 . S
C715 C716 1.403 . S
C716 C715 1.403 . S
C716 C717 1.404 . S
C716 C719 1.539 1_565 S
C717 C713 1.408 . S
C717 C716 1.404 . S
C717 H729 0.930 . S
C718 C714 1.524 . S
C718 H730 0.956 . S
C718 H731 0.961 . S
C718 H732 0.961 . S
C719 C716 1.539 1_545 S
C719 H733 0.958 . S
C719 H734 0.961 . S
C719 H735 0.960 . S
H720 C704 0.931 . S
H721 C709 0.929 . S
H722 C710 0.960 . S
H723 C710 0.962 . S
H724 C710 0.960 . S
H725 C711 0.961 . S
H726 C711 0.961 . S
H727 C711 0.961 . S
H728 C712 0.931 . S
H729 C717 0.930 . S
H730 C718 0.956 . S
H731 C718 0.961 . S
H732 C718 0.961 . S
H733 C719 0.958 . S
H734 C719 0.961 . S
H735 C719 0.960 . S
C736 C737 1.391 . S
C736 C738 1.394 . S
C736 H752 0.931 . S
C737 C736 1.391 . S
C737 C741 1.376 1_556 S
C738 C736 1.394 . S
C738 C739 1.369 . S
C738 C742 1.531 . S
C739 C738 1.369 . S
C739 C740 1.410 1_556 S
C739 C747 1.503 . S
C740 C739 1.410 1_554 S
C740 C741 1.392 . S
C740 C743 1.511 . S
C741 C737 1.376 1_554 S
C741 C740 1.392 . S
C741 H753 0.929 . S
C742 C738 1.531 . S
C742 H754 0.960 . S
C742 H755 0.962 . S
C742 H756 0.960 . S
C743 C740 1.511 . S
C743 H757 0.961 . S
C743 H758 0.961 . S
C743 H759 0.961 . S
C744 C745 1.370 . S
C744 C746 1.363 . S
C744 H760 0.931 . S
C745 C744 1.370 . S
C745 C749 1.408 . S
C746 C744 1.363 . S
C746 C747 1.370 . S
C746 C750 1.524 . S
C747 C739 1.503 . S
C747 C746 1.370 . S
C747 C748 1.403 . S
C748 C747 1.403 . S
C748 C749 1.404 . S
C748 C751 1.539 . S
C749 C745 1.408 . S
C749 C748 1.404 . S
C749 H761 0.930 . S
C750 C746 1.524 . S
C750 H762 0.956 . S
C750 H763 0.961 . S
C750 H764 0.961 . S
C751 C748 1.539 . S
C751 H765 0.958 . S
C751 H766 0.961 1_556 S
C751 H767 0.960 1_556 S
H752 C736 0.931 . S
H753 C741 0.929 . S
H754 C742 0.960 . S
H755 C742 0.962 . S
H756 C742 0.960 . S
H757 C743 0.961 . S
H758 C743 0.961 . S
H759 C743 0.961 . S
H760 C744 0.931 . S
H761 C749 0.930 . S
H762 C750 0.956 . S
H763 C750 0.961 . S
H764 C750 0.961 . S
H765 C751 0.958 . S
H766 C751 0.961 1_554 S
H767 C751 0.960 1_554 S
C768 C769 1.391 . S
C768 C770 1.394 . S
C768 H784 0.931 . S
C769 C768 1.391 . S
C769 C773 1.376 . S
C770 C768 1.394 . S
C770 C771 1.369 . S
C770 C774 1.531 . S
C771 C770 1.369 . S
C771 C772 1.410 . S
C771 C779 1.503 1_565 S
C772 C771 1.410 . S
C772 C773 1.392 . S
C772 C775 1.511 . S
C773 C769 1.376 . S
C773 C772 1.392 . S
C773 H785 0.929 . S
C774 C770 1.531 . S
C774 H786 0.960 1_565 S
C774 H787 0.962 . S
C774 H788 0.960 . S
C775 C772 1.511 . S
C775 H789 0.961 . S
C775 H790 0.963 . S
C775 H791 0.961 1_565 S
C776 C777 1.370 . S
C776 C778 1.363 . S
C776 H792 0.931 . S
C777 C776 1.370 . S
C777 C781 1.408 . S
C778 C776 1.363 . S
C778 C779 1.370 . S
C778 C782 1.524 1_545 S
C779 C771 1.503 1_545 S
C779 C778 1.370 . S
C779 C780 1.403 . S
C780 C779 1.403 . S
C780 C781 1.404 . S
C780 C783 1.539 . S
C781 C777 1.408 . S
C781 C780 1.404 . S
C781 H793 0.930 . S
C782 C778 1.524 1_565 S
C782 H794 0.956 . S
C782 H795 0.961 . S
C782 H796 0.961 . S
C783 C780 1.539 . S
C783 H797 0.958 . S
C783 H798 0.961 . S
C783 H799 0.960 . S
H784 C768 0.931 . S
H785 C773 0.929 . S
H786 C774 0.960 1_545 S
H787 C774 0.962 . S
H788 C774 0.960 . S
H789 C775 0.961 . S
H790 C775 0.963 . S
H791 C775 0.961 1_545 S
H792 C776 0.931 . S
H793 C781 0.930 . S
H794 C782 0.956 . S
H795 C782 0.961 . S
H796 C782 0.961 . S
H797 C783 0.958 . S
H798 C783 0.961 . S
H799 C783 0.960 . S
C289 C4 1.462 . S
C297 C40 1.458 . S
C321 C112 1.478 . S
C329 C76 1.438 . S
C353 C148 1.443 . S
C361 C184 1.435 . S
C385 C220 1.416 . S
C393 C256 1.443 . S
C417 C14 1.507 . S
C425 C86 1.513 . S
C449 C122 1.534 . S
C457 C50 1.524 . S
C481 C158 1.489 . S
C489 C230 1.501 . S
C513 C266 1.546 . S
C521 C194 1.527 . S
C545 C3 1.411 . S
C553 C147 1.445 . S
C577 C39 1.456 . S
C585 C183 1.425 . S
C609 C219 1.456 . S
C617 C75 1.425 . S
C641 C255 1.458 . S
C649 C111 1.424 . S
C673 C38 1.014 . S
C681 C2 1.019 . S
C705 C74 1.014 . S
C713 C110 1.020 . S
C737 C146 1.018 . S
C745 C182 1.023 . S
C769 C218 1.021 . S
C777 C254 1.019 . S
