# Generated by pormake.
# Topology zfa, (5)-cn, num edge types: 1
# Building blocks:
#     Node 0, Type 0, BuildingBlock: XOMCOT_clean_sbu_0, # of connection points: 5
#     Node 1, Type 0, BuildingBlock: XOMCOT_clean_sbu_0, # of connection points: 5
#     Node 2, Type 0, BuildingBlock: XOMCOT_clean_sbu_0, # of connection points: 5
#     Node 3, Type 0, BuildingBlock: XOMCOT_clean_sbu_0, # of connection points: 5
#     Node 4, Type 0, BuildingBlock: XOMCOT_clean_sbu_0, # of connection points: 5
#     Node 5, Type 0, BuildingBlock: XOMCOT_clean_sbu_0, # of connection points: 5
#     Node 6, Type 0, BuildingBlock: XOMCOT_clean_sbu_0, # of connection points: 5
#     Node 7, Type 0, BuildingBlock: XOMCOT_clean_sbu_0, # of connection points: 5
#     Edge 8, Type (0, 0), BuildingBlock: UVAHIK_clean_linker_0, # of connection points: 2
#     Edge 9, Type (0, 0), BuildingBlock: UVAHIK_clean_linker_0, # of connection points: 2
#     Edge 10, Type (0, 0), BuildingBlock: UVAHIK_clean_linker_0, # of connection points: 2
#     Edge 11, Type (0, 0), BuildingBlock: UVAHIK_clean_linker_0, # of connection points: 2
#     Edge 12, Type (0, 0), BuildingBlock: UVAHIK_clean_linker_0, # of connection points: 2
#     Edge 13, Type (0, 0), BuildingBlock: UVAHIK_clean_linker_0, # of connection points: 2
#     Edge 14, Type (0, 0), BuildingBlock: UVAHIK_clean_linker_0, # of connection points: 2
#     Edge 15, Type (0, 0), BuildingBlock: UVAHIK_clean_linker_0, # of connection points: 2
#     Edge 16, Type (0, 0), BuildingBlock: UVAHIK_clean_linker_0, # of connection points: 2
#     Edge 17, Type (0, 0), BuildingBlock: UVAHIK_clean_linker_0, # of connection points: 2
#     Edge 18, Type (0, 0), BuildingBlock: UVAHIK_clean_linker_0, # of connection points: 2
#     Edge 19, Type (0, 0), BuildingBlock: UVAHIK_clean_linker_0, # of connection points: 2
#     Edge 20, Type (0, 0), BuildingBlock: UVAHIK_clean_linker_0, # of connection points: 2
#     Edge 21, Type (0, 0), BuildingBlock: UVAHIK_clean_linker_0, # of connection points: 2
#     Edge 22, Type (0, 0), BuildingBlock: UVAHIK_clean_linker_0, # of connection points: 2
#     Edge 23, Type (0, 0), BuildingBlock: UVAHIK_clean_linker_0, # of connection points: 2
#     Edge 24, Type (0, 0), BuildingBlock: UVAHIK_clean_linker_0, # of connection points: 2
#     Edge 25, Type (0, 0), BuildingBlock: UVAHIK_clean_linker_0, # of connection points: 2
#     Edge 26, Type (0, 0), BuildingBlock: UVAHIK_clean_linker_0, # of connection points: 2
#     Edge 27, Type (0, 0), BuildingBlock: UVAHIK_clean_linker_0, # of connection points: 2
# Relax obj value: 0.193
# Max RMSD: 0.186
# Mean RMSD: 0.186
data_MOF--net-zfa--node1-XOMCOT_clean_sbu_0--edge1-UVAHIK_clean_linker_0
_symmetry_space_group_name_H-M    P1
_symmetry_Int_Tables_number       1
_symmetry_cell_setting            triclinic
loop_
_symmetry_equiv_pos_as_xyz
'x, y, z'
_cell_length_a     39.278623
_cell_length_b     39.273479
_cell_length_c     54.334413
_cell_angle_alpha  90.151255
_cell_angle_beta   90.079999
_cell_angle_gamma 89.962295
loop_
_atom_site_label
_atom_site_type_symbol
_atom_site_fract_x
_atom_site_fract_y
_atom_site_fract_z
_atom_type_partial_charge
Co0 Co 0.12296 0.25119 0.34308 0.0
C1 C 0.10528 0.32505 0.3423 0.0
C2 C 0.10661 0.30439 0.37871 0.0
C3 C 0.09274 0.33625 0.37995 0.0
N4 N 0.1154 0.29729 0.35522 0.0
N5 N 0.09134 0.34908 0.35705 0.0
H6 H 0.10423 0.32611 0.32242 0.0
H7 H 0.10631 0.28639 0.39368 0.0
C8 C 0.16329 0.25237 0.38967 0.0
O9 O 0.17769 0.28024 0.38132 0.0
N10 N 0.12864 0.20527 0.33129 0.0
C11 C 0.14165 0.19555 0.30946 0.0
C12 C 0.13547 0.16137 0.30627 0.0
C13 C 0.11449 0.17717 0.34099 0.0
N14 N 0.11807 0.14991 0.32601 0.0
C15 C 0.17427 0.28556 0.31371 0.0
C16 C 0.22739 0.24384 0.32817 0.0
C17 C 0.23346 0.26769 0.30953 0.0
C18 C 0.20636 0.28913 0.30257 0.0
C19 C 0.19503 0.24055 0.33825 0.0
N20 N 0.16889 0.26151 0.33138 0.0
H21 H 0.1534 0.30099 0.30724 0.0
H22 H 0.19073 0.21998 0.35101 0.0
H23 H 0.15326 0.21246 0.29622 0.0
H24 H 0.09959 0.17741 0.35773 0.0
O25 O 0.09678 0.26121 0.31363 0.0
O26 O 0.07525 0.24215 0.34865 0.0
O27 O 0.14094 0.23695 0.37657 0.0
C28 C 0.07009 0.25146 0.32598 0.0
H29 H 0.08151 0.3478 0.39614 0.0
H30 H 0.14204 0.14653 0.29016 0.0
H31 H 0.24726 0.22702 0.3347 0.0
H32 H 0.2094 0.30754 0.28795 0.0
Co33 Co 0.25978 0.62708 0.84218 0.0
C34 C 0.18698 0.60581 0.8423 0.0
C35 C 0.19815 0.64105 0.87142 0.0
C36 C 0.16488 0.63071 0.8737 0.0
N37 N 0.2122 0.62528 0.85182 0.0
N38 N 0.15797 0.60843 0.85547 0.0
H39 H 0.18998 0.58879 0.82679 0.0
H40 H 0.21123 0.65813 0.88383 0.0
C41 C 0.29682 0.66216 0.88364 0.0
O42 O 0.31689 0.67678 0.86749 0.0
N43 N 0.30749 0.62812 0.83279 0.0
C44 C 0.32269 0.6441 0.81376 0.0
C45 C 0.35564 0.63257 0.81175 0.0
C46 C 0.33165 0.60738 0.84213 0.0
N47 N 0.36109 0.60932 0.8295 0.0
C48 C 0.24851 0.6776 0.80485 0.0
C49 C 0.24579 0.73377 0.83541 0.0
C50 C 0.24543 0.73893 0.80987 0.0
C51 C 0.24585 0.71011 0.79456 0.0
C52 C 0.24871 0.70083 0.8449 0.0
N53 N 0.25221 0.67328 0.82965 0.0
H54 H 0.2495 0.65597 0.79259 0.0
H55 H 0.24797 0.69798 0.86456 0.0
H56 H 0.31089 0.66176 0.80129 0.0
H57 H 0.32707 0.58952 0.8569 0.0
O58 O 0.25044 0.60077 0.81255 0.0
O59 O 0.26418 0.57887 0.84867 0.0
O60 O 0.27225 0.64324 0.87642 0.0
C61 C 0.25727 0.57379 0.82556 0.0
H62 H 0.14734 0.63847 0.88801 0.0
H63 H 0.37373 0.63975 0.79769 0.0
H64 H 0.24379 0.75502 0.84807 0.0
H65 H 0.24534 0.71252 0.77473 0.0
Co66 Co 0.88738 0.75884 0.34392 0.0
C67 C 0.89809 0.68382 0.3423 0.0
C68 C 0.89646 0.70282 0.37922 0.0
C69 C 0.90498 0.669 0.38 0.0
N70 N 0.89079 0.71211 0.35564 0.0
N71 N 0.90624 0.65713 0.35679 0.0
H72 H 0.89999 0.68323 0.32246 0.0
H73 H 0.89763 0.71991 0.39479 0.0
C74 C 0.84614 0.76167 0.39003 0.0
O75 O 0.82899 0.73553 0.38133 0.0
N76 N 0.88584 0.80514 0.33236 0.0
C77 C 0.87441 0.81576 0.31028 0.0
C78 C 0.88467 0.84886 0.30684 0.0
C79 C 0.90304 0.83166 0.34197 0.0
N80 N 0.90299 0.85868 0.32666 0.0
C81 C 0.83341 0.72751 0.31514 0.0
C82 C 0.78404 0.77467 0.32778 0.0
C83 C 0.77583 0.74928 0.31063 0.0
C84 C 0.80092 0.72523 0.30451 0.0
C85 C 0.81662 0.77602 0.3379 0.0
N86 N 0.84086 0.75241 0.33188 0.0
H87 H 0.85285 0.7101 0.30908 0.0
H88 H 0.82267 0.79689 0.35013 0.0
H89 H 0.86144 0.79988 0.29696 0.0
H90 H 0.91786 0.83008 0.35874 0.0
O91 O 0.91268 0.7467 0.31455 0.0
O92 O 0.93559 0.76378 0.34979 0.0
O93 O 0.87038 0.77452 0.37734 0.0
C94 C 0.94 0.75425 0.32706 0.0
H95 H 0.91281 0.65502 0.39621 0.0
H96 H 0.88052 0.86384 0.29042 0.0
H97 H 0.76556 0.79375 0.33317 0.0
H98 H 0.79596 0.70564 0.29092 0.0
Co99 Co 0.75269 0.39216 0.84472 0.0
C100 C 0.82815 0.40412 0.84542 0.0
C101 C 0.80411 0.41304 0.88021 0.0
C102 C 0.83755 0.42228 0.88218 0.0
N103 N 0.7982 0.40046 0.85747 0.0
N104 N 0.85274 0.41685 0.86032 0.0
H105 H 0.83147 0.39989 0.82594 0.0
H106 H 0.78483 0.41757 0.89401 0.0
C107 C 0.75408 0.35576 0.89276 0.0
O108 O 0.78329 0.34254 0.8858 0.0
N109 N 0.7072 0.38564 0.83242 0.0
C110 C 0.69808 0.37209 0.8106 0.0
C111 C 0.66372 0.37719 0.80731 0.0
C112 C 0.67857 0.39888 0.84207 0.0
N113 N 0.65156 0.39426 0.82703 0.0
C114 C 0.78554 0.34047 0.81476 0.0
C115 C 0.74734 0.28677 0.83246 0.0
C116 C 0.7692 0.28066 0.81255 0.0
C117 C 0.78884 0.30811 0.80392 0.0
C118 C 0.74414 0.31943 0.84221 0.0
N119 N 0.76358 0.34585 0.83385 0.0
H120 H 0.79903 0.36154 0.80671 0.0
H121 H 0.72444 0.32362 0.85569 0.0
H122 H 0.71544 0.36076 0.79749 0.0
H123 H 0.67812 0.41374 0.85887 0.0
O124 O 0.76365 0.41748 0.8151 0.0
O125 O 0.74311 0.43992 0.84946 0.0
O126 O 0.73765 0.37551 0.87828 0.0
C127 C 0.75333 0.44448 0.82696 0.0
H128 H 0.84908 0.43476 0.8979 0.0
H129 H 0.64914 0.37006 0.79119 0.0
H130 H 0.7318 0.26673 0.84017 0.0
H131 H 0.80542 0.30517 0.78816 0.0
Co132 Co 0.62308 0.26418 0.18553 0.0
C133 C 0.60474 0.19052 0.18332 0.0
C134 C 0.60323 0.21478 0.14809 0.0
C135 C 0.58878 0.18325 0.14581 0.0
N136 N 0.6141 0.2194 0.17147 0.0
N137 N 0.58943 0.16812 0.16796 0.0
H138 H 0.6051 0.18753 0.20309 0.0
H139 H 0.60216 0.23431 0.13415 0.0
C140 C 0.66224 0.26473 0.13874 0.0
O141 O 0.67506 0.23534 0.14566 0.0
N142 N 0.63 0.30893 0.19914 0.0
C143 C 0.64168 0.31674 0.22178 0.0
C144 C 0.63701 0.35107 0.22569 0.0
C145 C 0.6183 0.33827 0.18963 0.0
N146 N 0.6221 0.36449 0.20551 0.0
C147 C 0.67437 0.22607 0.21291 0.0
C148 C 0.7273 0.26945 0.20096 0.0
C149 C 0.73334 0.24366 0.21813 0.0
C150 C 0.70658 0.22125 0.22372 0.0
C151 C 0.69509 0.27335 0.19069 0.0
N152 N 0.66892 0.25187 0.19654 0.0
H153 H 0.65355 0.21016 0.21868 0.0
H154 H 0.69081 0.29502 0.17889 0.0
H155 H 0.65134 0.29848 0.23493 0.0
H156 H 0.60492 0.33978 0.17224 0.0
O157 O 0.59676 0.25221 0.21449 0.0
O158 O 0.57573 0.27525 0.18047 0.0
O159 O 0.64128 0.2805 0.15273 0.0
C160 C 0.5704 0.26395 0.2026 0.0
H161 H 0.57588 0.17344 0.12965 0.0
H162 H 0.64284 0.36476 0.24248 0.0
H163 H 0.74714 0.28727 0.19596 0.0
H164 H 0.71002 0.20127 0.23719 0.0
Co165 Co 0.25589 0.12729 0.68469 0.0
C166 C 0.32997 0.11143 0.68191 0.0
C167 C 0.30704 0.11606 0.64634 0.0
C168 C 0.33917 0.10329 0.6434 0.0
N169 N 0.30116 0.12212 0.67045 0.0
N170 N 0.35344 0.09974 0.66577 0.0
H171 H 0.33235 0.10854 0.70163 0.0
H172 H 0.28823 0.11691 0.63187 0.0
C173 C 0.25046 0.17016 0.63962 0.0
O174 O 0.2781 0.18582 0.64729 0.0
N175 N 0.21085 0.13039 0.69849 0.0
C176 C 0.20249 0.14112 0.72126 0.0
C177 C 0.16921 0.13222 0.72578 0.0
C178 C 0.18285 0.11499 0.68953 0.0
N179 N 0.15702 0.11546 0.7059 0.0
C180 C 0.29277 0.17973 0.71159 0.0
C181 C 0.24625 0.23102 0.70205 0.0
C182 C 0.27448 0.23847 0.71686 0.0
C183 C 0.29788 0.21225 0.72174 0.0
C184 C 0.24197 0.19836 0.69252 0.0
N185 N 0.26537 0.17324 0.69682 0.0
H186 H 0.31037 0.15964 0.71612 0.0
H187 H 0.21927 0.19308 0.68193 0.0
H188 H 0.21996 0.1527 0.73421 0.0
H189 H 0.18251 0.10107 0.67232 0.0
O190 O 0.26965 0.10091 0.71314 0.0
O191 O 0.24837 0.07941 0.67863 0.0
O192 O 0.23786 0.14587 0.65237 0.0
C193 C 0.25979 0.07415 0.70079 0.0
H194 H 0.35007 0.09457 0.62621 0.0
H195 H 0.15569 0.13624 0.74288 0.0
H196 H 0.22691 0.25004 0.69841 0.0
H197 H 0.31987 0.21678 0.73334 0.0
Co198 Co 0.38685 0.75512 0.18524 0.0
C199 C 0.40583 0.82848 0.18667 0.0
C200 C 0.37254 0.81713 0.15644 0.0
C201 C 0.38127 0.85099 0.15535 0.0
N202 N 0.38798 0.80288 0.17607 0.0
N203 N 0.40234 0.85806 0.1743 0.0
H204 H 0.42139 0.82565 0.20295 0.0
H205 H 0.35667 0.80388 0.1433 0.0
C206 C 0.35246 0.71816 0.14355 0.0
O207 O 0.33792 0.69795 0.15962 0.0
N208 N 0.38648 0.7072 0.19427 0.0
C209 C 0.36882 0.69108 0.2121 0.0
C210 C 0.38093 0.65837 0.21432 0.0
C211 C 0.40871 0.68373 0.18576 0.0
N212 N 0.40616 0.65393 0.19787 0.0
C213 C 0.33587 0.76487 0.22247 0.0
C214 C 0.28008 0.76857 0.19165 0.0
C215 C 0.27464 0.76833 0.21717 0.0
C216 C 0.30327 0.76735 0.23261 0.0
C217 C 0.31312 0.76581 0.18229 0.0
N218 N 0.34047 0.76187 0.19763 0.0
H219 H 0.35734 0.76341 0.23483 0.0
H220 H 0.31624 0.76706 0.16266 0.0
H221 H 0.34923 0.70194 0.22347 0.0
H222 H 0.42783 0.68898 0.17198 0.0
O223 O 0.41257 0.76451 0.21508 0.0
O224 O 0.43522 0.75176 0.17897 0.0
O225 O 0.37119 0.74285 0.15086 0.0
C226 C 0.43983 0.75854 0.20216 0.0
H227 H 0.37377 0.86865 0.14108 0.0
H228 H 0.37255 0.63967 0.2276 0.0
H229 H 0.25898 0.77098 0.17892 0.0
H230 H 0.30064 0.76732 0.25244 0.0
Co231 Co 0.76304 0.89186 0.68614 0.0
C232 C 0.6882 0.90458 0.68537 0.0
C233 C 0.70957 0.90308 0.64917 0.0
C234 C 0.67606 0.91239 0.64724 0.0
N235 N 0.71714 0.89683 0.67299 0.0
N236 N 0.66267 0.91354 0.66999 0.0
H237 H 0.68638 0.90616 0.70518 0.0
H238 H 0.72771 0.90389 0.63427 0.0
C239 C 0.76581 0.84935 0.64064 0.0
O240 O 0.73841 0.83398 0.64892 0.0
N241 N 0.80863 0.8888 0.69909 0.0
C242 C 0.81776 0.87714 0.72143 0.0
C243 C 0.85139 0.88511 0.72542 0.0
C244 C 0.83652 0.90404 0.68991 0.0
N245 N 0.86307 0.90238 0.70569 0.0
C246 C 0.72848 0.83926 0.71452 0.0
C247 C 0.77471 0.78839 0.70323 0.0
C248 C 0.7484 0.78107 0.71974 0.0
C249 C 0.72479 0.8069 0.72515 0.0
C250 C 0.77741 0.82076 0.69306 0.0
N251 N 0.7543 0.8458 0.69839 0.0
H252 H 0.71139 0.85926 0.72008 0.0
H253 H 0.799 0.82601 0.68138 0.0
H254 H 0.80072 0.86521 0.73443 0.0
H255 H 0.83646 0.9183 0.67289 0.0
O256 O 0.75036 0.91858 0.71483 0.0
O257 O 0.77041 0.93962 0.67988 0.0
O258 O 0.77951 0.87324 0.65334 0.0
C259 C 0.75987 0.94512 0.70223 0.0
H260 H 0.66336 0.92067 0.63059 0.0
H261 H 0.8656 0.87977 0.74203 0.0
H262 H 0.79351 0.76932 0.6984 0.0
H263 H 0.70446 0.80257 0.73822 0.0
C264 C 0.91273 0.59584 0.36376 0.0
C265 C 0.92018 0.62472 0.34968 0.0
C266 C 0.93041 0.56552 0.35999 0.0
C267 C 0.9885 0.51778 0.3189 0.0
H268 H 0.01633 0.4774 0.38082 0.0
C269 C 0.08287 0.40181 0.33277 0.0
C270 C 0.07105 0.37794 0.34998 0.0
C271 C 0.06466 0.43214 0.32876 0.0
C272 C 0.00867 0.48828 0.36336 0.0
H273 H 0.95068 0.64423 0.31969 0.0
H274 H 0.98215 0.59093 0.31316 0.0
H275 H 0.9834 0.52967 0.38103 0.0
H276 H 0.0296 0.36524 0.37454 0.0
H277 H 0.99813 0.41763 0.36765 0.0
H278 H 0.01426 0.4758 0.3014 0.0
C279 C 0.96232 0.59173 0.32698 0.0
C280 C 0.98964 0.51815 0.36347 0.0
C281 C 0.9443 0.62217 0.33066 0.0
C282 C 0.03976 0.38368 0.36172 0.0
C283 C 0.02172 0.41361 0.35773 0.0
C284 C 0.00782 0.48766 0.3188 0.0
C285 C 0.95634 0.56347 0.34222 0.0
C286 C 0.97854 0.53284 0.34132 0.0
C287 C 0.03449 0.43868 0.3419 0.0
C288 C 0.0173 0.47226 0.34111 0.0
H289 H 0.89394 0.59714 0.3783 0.0
H290 H 0.92454 0.54393 0.3716 0.0
H291 H 0.98047 0.52865 0.30154 0.0
H292 H 0.10686 0.39774 0.32343 0.0
H293 H 0.07494 0.45108 0.31638 0.0
C294 C 0.89331 0.44318 0.83101 0.0
C295 C 0.8864 0.42853 0.85408 0.0
C296 C 0.92403 0.46055 0.82705 0.0
C297 C 0.97947 0.51444 0.8607 0.0
H298 H 0.0535 0.49616 0.81543 0.0
C299 C 0.10842 0.57903 0.87327 0.0
C300 C 0.12737 0.58861 0.85253 0.0
C301 C 0.07904 0.55945 0.87072 0.0
C302 C 0.03279 0.50199 0.82787 0.0
H303 H 0.90737 0.41775 0.89013 0.0
H304 H 0.96039 0.44856 0.88338 0.0
H305 H 1.0024 0.46015 0.81461 0.0
H306 H 0.13038 0.58514 0.81281 0.0
H307 H 0.0783 0.55141 0.80821 0.0
H308 H 0.00888 0.5563 0.87389 0.0
C309 C 0.94207 0.44685 0.8685 0.0
C310 C 1.00369 0.48129 0.82742 0.0
C311 C 0.91173 0.42936 0.87236 0.0
C312 C 0.11631 0.57799 0.82912 0.0
C313 C 0.08657 0.5586 0.82652 0.0
C314 C 0.00813 0.53531 0.86094 0.0
C315 C 0.94799 0.46353 0.84615 0.0
C316 C 0.97724 0.48696 0.84426 0.0
C317 C 0.06746 0.54923 0.84733 0.0
C318 C 0.03562 0.52885 0.84503 0.0
H319 H 0.87421 0.44312 0.81663 0.0
H320 H 0.92817 0.47336 0.80968 0.0
H321 H 0.9591 0.51949 0.87364 0.0
H322 H 0.11671 0.58607 0.89159 0.0
H323 H 0.06565 0.55194 0.88725 0.0
C324 C 0.45192 0.89039 0.19033 0.0
C325 C 0.41982 0.8898 0.17876 0.0
C326 C 0.47014 0.92089 0.19252 0.0
C327 C 0.47784 1.00338 0.1617 0.0
H328 H 0.52832 0.03194 0.21959 0.0
C329 C 0.53625 0.13562 0.16574 0.0
C330 C 0.56973 0.1387 0.17447 0.0
C331 C 0.518 0.10567 0.16926 0.0
C332 C 0.51461 0.0241 0.20322 0.0
H333 H 0.38091 0.92118 0.16188 0.0
H334 H 0.41262 0.97417 0.16559 0.0
H335 H 0.49601 0.9785 0.22032 0.0
H336 H 0.60991 0.11388 0.19485 0.0
H337 H 0.57808 0.06049 0.2007 0.0
H338 H 0.49651 0.04827 0.14437 0.0
C339 C 0.42401 0.95097 0.17253 0.0
C340 C 0.49609 0.99357 0.20366 0.0
C341 C 0.40583 0.92059 0.17038 0.0
C342 C 0.58411 0.11188 0.18796 0.0
C343 C 0.56587 0.08149 0.1913 0.0
C344 C 0.49634 0.03361 0.16123 0.0
C345 C 0.45667 0.95137 0.18313 0.0
C346 C 0.47714 0.98317 0.18297 0.0
C347 C 0.53293 0.07778 0.18134 0.0
C348 C 0.51455 0.04468 0.18207 0.0
H349 H 0.46361 0.86713 0.19681 0.0
H350 H 0.49533 0.92036 0.20065 0.0
H351 H 0.46427 0.99564 0.14524 0.0
H352 H 0.52442 0.15632 0.15575 0.0
H353 H 0.49234 0.10412 0.16203 0.0
C354 C 0.62587 0.95027 0.69591 0.0
C355 C 0.6299 0.92767 0.67599 0.0
C356 C 0.59542 0.96853 0.69882 0.0
C357 C 0.52695 1.00126 0.65991 0.0
H358 H 0.47631 0.01793 0.71999 0.0
C359 C 0.39255 0.05276 0.65577 0.0
C360 C 0.38366 0.08025 0.67106 0.0
C361 C 0.42268 0.03492 0.65953 0.0
C362 C 0.49051 0.0138 0.70317 0.0
H363 H 0.60461 0.90425 0.6449 0.0
H364 H 0.55153 0.93558 0.65006 0.0
H365 H 0.52882 0.98372 0.72131 0.0
H366 H 0.39853 0.10938 0.70319 0.0
H367 H 0.45208 0.0779 0.70981 0.0
H368 H 0.48907 0.03087 0.64165 0.0
C369 C 0.57201 0.93995 0.66306 0.0
C370 C 0.52043 0.99422 0.70391 0.0
C371 C 0.60229 0.92192 0.66014 0.0
C372 C 0.40495 0.08845 0.69104 0.0
C373 C 0.43544 0.07044 0.69484 0.0
C374 C 0.49736 0.0207 0.65918 0.0
C375 C 0.56866 0.96438 0.68185 0.0
C376 C 0.53841 0.98706 0.68212 0.0
C377 C 0.44491 0.04402 0.67868 0.0
C378 C 0.47829 0.02649 0.68064 0.0
H379 H 0.64689 0.95533 0.7083 0.0
H380 H 0.59352 0.98719 0.71347 0.0
H381 H 0.54078 0.99706 0.64293 0.0
H382 H 0.37617 0.04496 0.64075 0.0
H383 H 0.42876 0.01405 0.64721 0.0
C384 C 0.51263 0.29014 0.20603 0.0
C385 C 0.53608 0.26525 0.21369 0.0
C386 C 0.48003 0.2916 0.21632 0.0
C387 C 0.41361 0.24006 0.24159 0.0
H388 H 0.38131 0.32061 0.27576 0.0
C389 C 0.28647 0.23849 0.29407 0.0
C390 C 0.26737 0.26861 0.29693 0.0
C391 C 0.3188 0.23899 0.28346 0.0
C392 C 0.3895 0.2981 0.26587 0.0
H393 H 0.54381 0.2222 0.23789 0.0
H394 H 0.48606 0.22392 0.25522 0.0
H395 H 0.43857 0.31984 0.25829 0.0
H396 H 0.26757 0.32294 0.28982 0.0
H397 H 0.32306 0.32352 0.26986 0.0
H398 H 0.36453 0.21863 0.24784 0.0
C399 C 0.49329 0.24262 0.24157 0.0
C400 C 0.42249 0.29763 0.25608 0.0
C401 C 0.52626 0.2417 0.23174 0.0
C402 C 0.28129 0.29916 0.28794 0.0
C403 C 0.31352 0.29955 0.2768 0.0
C404 C 0.3804 0.24077 0.25082 0.0
C405 C 0.46996 0.26767 0.234 0.0
C406 C 0.43494 0.26845 0.24412 0.0
C407 C 0.33296 0.26947 0.27459 0.0
C408 C 0.36789 0.26962 0.26346 0.0
H409 H 0.51962 0.30872 0.19223 0.0
H410 H 0.46244 0.31105 0.21014 0.0
H411 H 0.4225 0.21745 0.2321 0.0
H412 H 0.27654 0.21416 0.3 0.0
H413 H 0.33282 0.21529 0.28262 0.0
C414 C 0.24408 0.0124 0.69947 0.0
C415 C 0.25993 0.03966 0.71176 0.0
C416 C 0.24257 0.98015 0.71026 0.0
C417 C 0.28321 0.92569 0.75705 0.0
H418 H 0.19796 0.87602 0.7547 0.0
C419 C 0.26431 0.80023 0.81071 0.0
C420 C 0.24553 0.77403 0.79933 0.0
C421 C 0.26562 0.83282 0.80042 0.0
C422 C 0.22211 0.88928 0.75527 0.0
H423 H 0.28713 0.05431 0.74487 0.0
H424 H 0.28474 0.99783 0.76366 0.0
H425 H 0.20182 0.93206 0.73573 0.0
H426 H 0.21277 0.76217 0.76828 0.0
H427 H 0.21595 0.81855 0.74995 0.0
H428 H 0.30372 0.88281 0.77624 0.0
C429 C 0.27351 1.00144 0.74564 0.0
C430 C 0.22429 0.92148 0.74442 0.0
C431 C 0.27476 0.03381 0.73492 0.0
C432 C 0.22785 0.78149 0.77745 0.0
C433 C 0.22931 0.81405 0.76708 0.0
C434 C 0.28112 0.89338 0.76776 0.0
C435 C 0.25712 0.97429 0.73353 0.0
C436 C 0.25486 0.94007 0.74516 0.0
C437 C 0.24836 0.84015 0.77835 0.0
C438 C 0.25053 0.87471 0.76703 0.0
H439 H 0.23236 0.01606 0.68161 0.0
H440 H 0.23014 0.9597 0.7003 0.0
H441 H 0.30725 0.93915 0.75768 0.0
H442 H 0.27864 0.79546 0.82739 0.0
H443 H 0.28015 0.85231 0.80985 0.0
C444 C 0.4788 0.76512 0.2385 0.0
C445 C 0.47426 0.75835 0.21331 0.0
C446 C 0.51126 0.76356 0.24912 0.0
C447 C 0.59748 0.72743 0.23924 0.0
H448 H 0.62457 0.79511 0.28747 0.0
C449 C 0.72391 0.71848 0.29463 0.0
C450 C 0.7417 0.74907 0.29861 0.0
C451 C 0.69126 0.71881 0.28418 0.0
C452 C 0.61751 0.77611 0.27391 0.0
H453 H 0.50025 0.74488 0.17946 0.0
H454 H 0.55681 0.7426 0.19788 0.0
H455 H 0.56797 0.79788 0.2692 0.0
H456 H 0.73966 0.80383 0.29364 0.0
H457 H 0.68306 0.80439 0.27548 0.0
H458 H 0.64735 0.70611 0.24359 0.0
C459 C 0.53529 0.74864 0.20955 0.0
C460 C 0.58488 0.77747 0.26365 0.0
C461 C 0.50287 0.75023 0.19894 0.0
C462 C 0.72639 0.77986 0.29139 0.0
C463 C 0.69387 0.78019 0.28097 0.0
C464 C 0.63014 0.72604 0.24955 0.0
C465 C 0.53991 0.75515 0.2348 0.0
C466 C 0.57448 0.75326 0.24608 0.0
C467 C 0.67571 0.74974 0.27744 0.0
C468 C 0.64065 0.7505 0.2669 0.0
H469 H 0.45724 0.7713 0.25009 0.0
H470 H 0.51381 0.76838 0.26867 0.0
H471 H 0.59018 0.70811 0.22599 0.0
H472 H 0.73488 0.69436 0.30013 0.0
H473 H 0.67789 0.6949 0.2819 0.0
C474 C 0.79946 0.2335 0.78913 0.0
C475 C 0.76972 0.24643 0.80027 0.0
C476 C 0.79953 0.20118 0.77803 0.0
C477 C 0.76034 0.11806 0.78137 0.0
H478 H 0.7813 0.10657 0.71219 0.0
C479 C 0.73919 0.98863 0.73264 0.0
C480 C 0.76071 0.97969 0.71308 0.0
C481 C 0.74063 0.02133 0.74297 0.0
C482 C 0.77602 0.10898 0.73166 0.0
H483 H 0.71624 0.23537 0.8071 0.0
H484 H 0.71725 0.17876 0.78911 0.0
H485 H 0.78527 0.1629 0.73098 0.0
H486 H 0.80111 0.99754 0.68932 0.0
H487 H 0.80498 0.05368 0.70799 0.0
H488 H 0.75226 0.06434 0.78262 0.0
C489 C 0.74042 0.19371 0.78909 0.0
C490 C 0.77816 0.14142 0.74234 0.0
C491 C 0.74007 0.22617 0.79964 0.0
C492 C 0.78387 1.0039 0.70419 0.0
C493 C 0.7859 0.03628 0.71486 0.0
C494 C 0.75894 0.08551 0.77088 0.0
C495 C 0.77011 0.18087 0.77823 0.0
C496 C 0.77 0.14628 0.76722 0.0
C497 C 0.76423 0.04565 0.73439 0.0
C498 C 0.76641 0.08043 0.74576 0.0
H499 H 0.82287 0.248 0.78933 0.0
H500 H 0.82278 0.19173 0.76975 0.0
H501 H 0.75411 0.12118 0.80066 0.0
H502 H 0.72093 0.97048 0.73973 0.0
H503 H 0.72291 0.02753 0.75755 0.0
C504 C 0.03059 0.2584 0.28991 0.0
C505 C 0.03566 0.25003 0.31477 0.0
C506 C 0.99812 0.25619 0.27931 0.0
C507 C 0.91263 0.21714 0.28834 0.0
H508 H 0.88367 0.28716 0.24276 0.0
C509 C 0.78429 0.21108 0.23417 0.0
C510 C 0.7669 0.24205 0.23092 0.0
C511 C 0.81705 0.21061 0.24458 0.0
C512 C 0.89121 0.26748 0.25559 0.0
H513 H 0.01054 0.23294 0.34804 0.0
H514 H 0.95398 0.22964 0.32972 0.0
H515 H 0.9405 0.28963 0.2605 0.0
H516 H 0.76942 0.29649 0.23751 0.0
H517 H 0.82593 0.29564 0.25572 0.0
H518 H 0.86286 0.19553 0.28387 0.0
C519 C 0.9751 0.23735 0.31824 0.0
C520 C 0.92405 0.26866 0.26553 0.0
C521 C 0.00754 0.23952 0.32881 0.0
C522 C 0.78243 0.27227 0.23917 0.0
C523 C 0.81494 0.2718 0.24957 0.0
C524 C 0.87971 0.21596 0.27837 0.0
C525 C 0.96992 0.2456 0.29333 0.0
C526 C 0.93518 0.24365 0.28218 0.0
C527 C 0.833 0.24108 0.25204 0.0
C528 C 0.86845 0.24131 0.26204 0.0
H529 H 0.05175 0.26642 0.27856 0.0
H530 H 0.99522 0.26237 0.26001 0.0
H531 H 0.92044 0.19717 0.30084 0.0
H532 H 0.77304 0.1874 0.22795 0.0
H533 H 0.83024 0.18649 0.24612 0.0
C534 C 0.252 0.53408 0.78944 0.0
C535 C 0.25849 0.53922 0.81461 0.0
C536 C 0.25497 0.50157 0.77899 0.0
C537 C 0.25735 0.4097 0.79493 0.0
H538 H 0.29898 0.40023 0.73062 0.0
C539 C 0.28692 0.27749 0.75266 0.0
C540 C 0.27816 0.27313 0.72775 0.0
C541 C 0.28681 0.30999 0.76339 0.0
C542 C 0.28706 0.40243 0.74852 0.0
H543 H 0.27299 0.51419 0.84858 0.0
H544 H 0.27836 0.4577 0.83039 0.0
H545 H 0.29282 0.45664 0.74895 0.0
H546 H 0.26404 0.29971 0.69433 0.0
H547 H 0.26349 0.35612 0.71301 0.0
H548 H 0.25144 0.35551 0.79445 0.0
C549 C 0.27057 0.47863 0.81872 0.0
C550 C 0.28344 0.43482 0.759 0.0
C551 C 0.26762 0.51109 0.82915 0.0
C552 C 0.27055 0.30213 0.71363 0.0
C553 C 0.27054 0.33455 0.72431 0.0
C554 C 0.26098 0.37731 0.78445 0.0
C555 C 0.26449 0.47344 0.79348 0.0
C556 C 0.26841 0.43891 0.78231 0.0
C557 C 0.27814 0.33889 0.74941 0.0
C558 C 0.27574 0.37325 0.76105 0.0
H559 H 0.24489 0.55523 0.77774 0.0
H560 H 0.24962 0.49845 0.75955 0.0
H561 H 0.24524 0.41189 0.81276 0.0
H562 H 0.2927 0.25568 0.76409 0.0
H563 H 0.29322 0.31245 0.7827 0.0
C564 C 0.97942 0.74019 0.29213 0.0
C565 C 0.97427 0.7539 0.31575 0.0
C566 C 0.01164 0.74137 0.28113 0.0
C567 C 0.09218 0.7893 0.28278 0.0
H568 H 0.12983 0.71057 0.24934 0.0
C569 C 0.232 0.78545 0.24968 0.0
C570 C 0.23945 0.76828 0.22757 0.0
C571 C 0.19937 0.78399 0.25994 0.0
C572 C 0.11954 0.73299 0.25826 0.0
H573 H 0.99891 0.77935 0.34644 0.0
H574 H 0.05496 0.78151 0.32724 0.0
H575 H 0.07351 0.70702 0.26801 0.0
H576 H 0.21794 0.73612 0.19895 0.0
H577 H 0.16094 0.73468 0.2163 0.0
H578 H 0.13782 0.81551 0.27283 0.0
C579 C 0.03411 0.76999 0.31716 0.0
C580 C 0.08726 0.73088 0.26904 0.0
C581 C 1.00204 0.76852 0.32822 0.0
C582 C 0.21317 0.75005 0.21582 0.0
C583 C 0.1805 0.74877 0.22601 0.0
C584 C 0.12432 0.79152 0.27184 0.0
C585 C 0.03927 0.75661 0.29344 0.0
C586 C 0.07329 0.75895 0.28154 0.0
C587 C 0.17319 0.76549 0.24831 0.0
C588 C 0.13856 0.76335 0.25954 0.0
H589 H 0.95851 0.72878 0.28205 0.0
H590 H 0.01475 0.73102 0.26278 0.0
H591 H 0.08189 0.81155 0.29196 0.0
H592 H 0.25137 0.80012 0.25912 0.0
H593 H 0.1949 0.79691 0.27726 0.0
C594 C 0.77706 0.73147 0.74014 0.0
C595 C 0.74694 0.74706 0.73179 0.0
C596 C 0.77649 0.69878 0.75017 0.0
C597 C 0.71982 0.6341 0.77799 0.0
H598 H 0.79405 0.57306 0.7614 0.0
C599 C 0.74145 0.50705 0.82914 0.0
C600 C 0.75236 0.47866 0.81545 0.0
C601 C 0.73977 0.53931 0.81837 0.0
C602 C 0.77293 0.58959 0.76606 0.0
H603 H 0.69241 0.74063 0.728 0.0
H604 H 0.69136 0.68324 0.74549 0.0
H605 H 0.79225 0.62985 0.74363 0.0
H606 H 0.77002 0.46189 0.77965 0.0
H607 H 0.76681 0.51818 0.76071 0.0
H608 H 0.70021 0.59355 0.8001 0.0
C609 C 0.71545 0.69652 0.74439 0.0
C610 C 0.77212 0.62239 0.7561 0.0
C611 C 0.71602 0.72942 0.73437 0.0
C612 C 0.76165 0.48328 0.79072 0.0
C613 C 0.75993 0.5156 0.77991 0.0
C614 C 0.72062 0.60124 0.78795 0.0
C615 C 0.74579 0.68062 0.75214 0.0
C616 C 0.74574 0.64522 0.7621 0.0
C617 C 0.7489 0.54405 0.79359 0.0
C618 C 0.74734 0.57863 0.78227 0.0
H619 H 0.80123 0.74463 0.73897 0.0
H620 H 0.80021 0.68778 0.75651 0.0
H621 H 0.69923 0.651 0.78315 0.0
H622 H 0.73419 0.50442 0.84826 0.0
H623 H 0.73174 0.56065 0.82961 0.0
C624 C 0.19414 0.25917 0.42966 0.0
C625 C 0.17064 0.24106 0.41515 0.0
C626 C 0.19965 0.25034 0.4542 0.0
C627 C 0.19053 0.18106 0.49934 0.0
H628 H 0.19925 0.25507 0.54634 0.0
C629 C 0.21084 0.15846 0.60411 0.0
C630 C 0.23626 0.17865 0.6151 0.0
C631 C 0.19932 0.16556 0.58024 0.0
C632 C 0.19707 0.23409 0.53345 0.0
H633 H 0.13512 0.19878 0.41496 0.0
H634 H 0.14482 0.18332 0.45802 0.0
H635 H 0.18652 0.26763 0.50345 0.0
H636 H 0.26893 0.22255 0.60978 0.0
H637 H 0.24904 0.23476 0.56841 0.0
H638 H 0.20162 0.14757 0.52942 0.0
C639 C 0.15901 0.20436 0.45028 0.0
C640 C 0.18982 0.2413 0.50885 0.0
C641 C 0.15339 0.21327 0.42563 0.0
C642 C 0.24933 0.20645 0.60192 0.0
C643 C 0.23775 0.21361 0.5782 0.0
C644 C 0.19784 0.17383 0.52403 0.0
C645 C 0.18186 0.22314 0.46493 0.0
C646 C 0.18709 0.21494 0.49139 0.0
C647 C 0.2128 0.19315 0.56697 0.0
C648 C 0.20182 0.20034 0.54127 0.0
H649 H 0.20806 0.28057 0.42218 0.0
H650 H 0.21796 0.26489 0.4648 0.0
H651 H 0.18876 0.1602 0.48633 0.0
H652 H 0.20024 0.13683 0.61377 0.0
H653 H 0.17985 0.14949 0.57218 0.0
C654 C 0.32264 0.68852 0.10868 0.0
C655 C 0.34585 0.71333 0.11687 0.0
C656 C 0.31674 0.68359 0.08352 0.0
C657 C 0.32729 0.72509 0.02253 0.0
H658 H 0.31486 0.63318 0.99788 0.0
C659 C 0.32637 0.69218 0.91851 0.0
C660 C 0.30165 0.66886 0.91031 0.0
C661 C 0.33121 0.69813 0.94368 0.0
C662 C 0.31794 0.65903 1.0045 0.0
H663 H 0.38108 0.75245 0.10493 0.0
H664 H 0.3713 0.74343 0.06111 0.0
H665 H 0.32456 0.64251 0.04168 0.0
H666 H 0.26251 0.63362 0.92224 0.0
H667 H 0.27104 0.64397 0.9661 0.0
H668 H 0.32111 0.74147 0.9852 0.0
C669 C 0.35715 0.72815 0.07412 0.0
C670 C 0.32344 0.66442 0.02965 0.0
C671 C 0.36293 0.73319 0.09929 0.0
C672 C 0.28182 0.65171 0.92788 0.0
C673 C 0.28683 0.6575 0.95305 0.0
C674 C 0.32198 0.71966 0.99735 0.0
C675 C 0.33402 0.70322 0.06588 0.0
C676 C 0.32814 0.69753 0.03904 0.0
C677 C 0.31161 0.68073 0.96125 0.0
C678 C 0.3172 0.68657 0.98804 0.0
H679 H 0.3089 0.67287 0.12169 0.0
H680 H 0.29833 0.66457 0.07793 0.0
H681 H 0.33024 0.75098 0.0291 0.0
H682 H 0.34212 0.70582 0.9055 0.0
H683 H 0.35075 0.71594 0.94939 0.0
C684 C 0.80505 0.85944 0.60472 0.0
C685 C 0.77883 0.84055 0.61581 0.0
C686 C 0.81573 0.85183 0.5807 0.0
C687 C 0.81343 0.78307 0.53372 0.0
H688 H 0.82669 0.85607 0.48677 0.0
C689 C 0.81459 0.75752 0.42986 0.0
C690 C 0.83954 0.77364 0.4155 0.0
C691 C 0.80961 0.7669 0.45438 0.0
C692 C 0.8235 0.83543 0.49974 0.0
H693 H 0.74367 0.79856 0.61043 0.0
H694 H 0.76205 0.78555 0.56885 0.0
H695 H 0.81467 0.86969 0.52987 0.0
H696 H 0.87823 0.81305 0.41557 0.0
H697 H 0.86939 0.82951 0.4586 0.0
H698 H 0.82166 0.74881 0.50366 0.0
C699 C 0.77468 0.80599 0.57867 0.0
C700 C 0.81667 0.84322 0.52444 0.0
C701 C 0.76397 0.81363 0.60253 0.0
C702 C 0.85881 0.80007 0.42613 0.0
C703 C 0.8537 0.80958 0.45074 0.0
C704 C 0.82015 0.77532 0.50911 0.0
C705 C 0.80058 0.82504 0.56738 0.0
C706 C 0.81093 0.8171 0.54163 0.0
C707 C 0.82937 0.79271 0.46525 0.0
C708 C 0.82465 0.80137 0.49172 0.0
H709 H 0.81701 0.88037 0.61444 0.0
H710 H 0.83594 0.86682 0.57261 0.0
H711 H 0.80991 0.76232 0.54655 0.0
H712 H 0.79911 0.73721 0.42228 0.0
H713 H 0.79018 0.75385 0.46488 0.0
C714 C 0.67966 0.25477 0.09518 0.0
C715 C 0.66941 0.27756 0.11373 0.0
C716 C 0.68538 0.26624 0.07125 0.0
C717 C 0.71292 0.33829 0.03598 0.0
H718 H 0.66942 0.29319 0.98059 0.0
C719 C 0.76454 0.34021 0.93661 0.0
C720 C 0.74152 0.34941 0.91795 0.0
C721 C 0.75319 0.33484 0.96062 0.0
C722 C 0.68149 0.30618 0.9959 0.0
H723 H 0.65751 0.33029 0.12189 0.0
H724 H 0.66885 0.35063 0.07996 0.0
H725 H 0.65399 0.27719 0.02273 0.0
H726 H 0.68854 0.35997 0.90972 0.0
H727 H 0.66846 0.34926 0.95179 0.0
H728 H 0.74158 0.36614 1.00914 0.0
C729 C 0.67187 0.32382 0.08403 0.0
C730 C 0.67281 0.29695 0.01992 0.0
C731 C 0.66537 0.31219 0.10793 0.0
C732 C 0.70683 0.35292 0.92376 0.0
C733 C 0.69535 0.34678 0.94774 0.0
C734 C 0.72212 0.34702 1.01195 0.0
C735 C 0.68164 0.30084 0.06547 0.0
C736 C 0.6887 0.31268 0.04015 0.0
C737 C 0.71851 0.33789 0.96639 0.0
C738 C 0.70672 0.33078 0.99172 0.0
H739 H 0.68274 0.2279 0.09904 0.0
H740 H 0.69319 0.24811 0.05729 0.0
H741 H 0.72563 0.35063 0.05129 0.0
H742 H 0.79145 0.33756 0.93274 0.0
H743 H 0.77148 0.32772 0.97465 0.0
C744 C 0.93749 0.90394 0.30759 0.0
C745 C 0.92408 0.88852 0.32877 0.0
C746 C 0.96031 0.93095 0.30959 0.0
C747 C 0.9903 0.99879 0.35054 0.0
H748 H 0.0694 0.9968 0.30787 0.0
C749 C 0.09198 0.10522 0.35187 0.0
C750 C 0.10142 0.11743 0.32854 0.0
C751 C 0.07312 0.07521 0.3541 0.0
C752 C 0.04738 0.99779 0.31983 0.0
H753 H 0.92321 0.89012 0.36863 0.0
H754 H 0.96334 0.93758 0.37215 0.0
H755 H 0.02975 0.94912 0.30758 0.0
H756 H 0.09866 0.10724 0.28929 0.0
H757 H 0.06614 0.05515 0.29318 0.0
H758 H 0.00755 0.04789 0.36236 0.0
C759 C 0.95611 0.92858 0.35402 0.0
C760 C 0.02468 0.97053 0.31965 0.0
C761 C 0.93334 0.90135 0.35201 0.0
C762 C 0.09243 0.09841 0.30757 0.0
C763 C 0.07369 0.06846 0.3098 0.0
C764 C 0.01301 0.02618 0.35068 0.0
C765 C 0.97023 0.94325 0.33281 0.0
C766 C 0.99556 0.97105 0.33462 0.0
C767 C 0.06346 0.05674 0.33304 0.0
C768 C 0.04143 0.02623 0.33496 0.0
H769 H 0.93127 0.89449 0.28942 0.0
H770 H 0.97038 0.94212 0.29291 0.0
H771 H 0.96796 0.99991 0.36218 0.0
H772 H 0.09891 0.11902 0.36839 0.0
H773 H 0.06597 0.06656 0.37228 0.0
C774 C 0.39923 0.57358 0.85478 0.0
C775 C 0.38975 0.58672 0.83173 0.0
C776 C 0.42571 0.54988 0.85664 0.0
C777 C 0.47088 0.48542 0.82037 0.0
H778 H 0.545 0.49815 0.86667 0.0
C779 C 0.59984 0.41932 0.80868 0.0
C780 C 0.61846 0.40964 0.82961 0.0
C781 C 0.56932 0.43715 0.81106 0.0
C782 C 0.52417 0.4938 0.85397 0.0
H783 H 0.40039 0.5853 0.7926 0.0
H784 H 0.44656 0.54413 0.79584 0.0
H785 H 0.49678 0.53743 0.86711 0.0
H786 H 0.61882 0.40966 0.86949 0.0
H787 H 0.56517 0.44067 0.87371 0.0
H788 H 0.49813 0.44201 0.80706 0.0
C789 C 0.43353 0.55208 0.81245 0.0
C790 C 0.49665 0.51638 0.85419 0.0
C791 C 0.40741 0.57598 0.81064 0.0
C792 C 0.60526 0.4172 0.85303 0.0
C793 C 0.57459 0.43499 0.85543 0.0
C794 C 0.4982 0.46272 0.82027 0.0
C795 C 0.44276 0.5386 0.83542 0.0
C796 C 0.47019 0.51285 0.83698 0.0
C797 C 0.55654 0.44562 0.83445 0.0
C798 C 0.52558 0.46713 0.83666 0.0
H799 H 0.3861 0.58158 0.87131 0.0
H800 H 0.43236 0.53985 0.87456 0.0
H801 H 0.45044 0.48177 0.80721 0.0
H802 H 0.6095 0.41445 0.79037 0.0
H803 H 0.55644 0.44547 0.79449 0.0
C804 C 0.44515 0.6172 0.17399 0.0
C805 C 0.42943 0.62572 0.1964 0.0
C806 C 0.46932 0.59107 0.17296 0.0
C807 C 0.53005 0.54486 0.21183 0.0
H808 H 0.52307 0.47278 0.1632 0.0
C809 C 0.59569 0.41559 0.22388 0.0
C810 C 0.60745 0.39792 0.20305 0.0
C811 C 0.57815 0.44626 0.22134 0.0
C812 C 0.52585 0.49305 0.1766 0.0
H813 H 0.4268 0.61374 0.23527 0.0
H814 H 0.46879 0.56813 0.23347 0.0
H815 H 0.48357 0.52073 0.16169 0.0
H816 H 0.61164 0.39951 0.16331 0.0
H817 H 0.5812 0.45341 0.15884 0.0
H818 H 0.5721 0.51726 0.22689 0.0
C819 C 0.4625 0.58168 0.21673 0.0
C820 C 0.50313 0.52042 0.17576 0.0
C821 C 0.43813 0.60747 0.21769 0.0
C822 C 0.60243 0.41231 0.17966 0.0
C823 C 0.58496 0.44313 0.17712 0.0
C824 C 0.55291 0.51767 0.21256 0.0
C825 C 0.4785 0.57337 0.19441 0.0
C826 C 0.50454 0.54614 0.19372 0.0
C827 C 0.57208 0.46013 0.19791 0.0
C828 C 0.55057 0.49103 0.19531 0.0
H829 H 0.43876 0.63079 0.1573 0.0
H830 H 0.48131 0.58515 0.15552 0.0
H831 H 0.53207 0.56472 0.22562 0.0
H832 H 0.59863 0.405 0.24212 0.0
H833 H 0.5681 0.45834 0.23774 0.0
C834 C 0.11085 0.08286 0.72568 0.0
C835 C 0.12602 0.09598 0.7043 0.0
C836 C 0.08289 0.06113 0.72404 0.0
C837 C 0.01332 0.03285 0.68349 0.0
H838 H 0.0143 0.95358 0.72594 0.0
C839 C 0.90775 0.93 0.68058 0.0
C840 C 0.89499 0.92028 0.7037 0.0
C841 C 0.93739 0.94957 0.67885 0.0
C842 C 0.01358 0.97567 0.71406 0.0
H843 H 0.1227 0.09775 0.6645 0.0
H844 H 0.07386 0.05941 0.66162 0.0
H845 H 0.06234 0.99275 0.72646 0.0
H846 H 0.90377 0.92354 0.74312 0.0
H847 H 0.95525 0.95713 0.74006 0.0
H848 H 0.96425 0.01588 0.67135 0.0
C849 C 0.08371 0.06602 0.67963 0.0
C850 C 0.04104 0.99815 0.7144 0.0
C851 C 0.11181 0.08775 0.68127 0.0
C852 C 0.91302 0.92992 0.72498 0.0
C853 C 0.94262 0.9493 0.72324 0.0
C854 C 0.98577 0.01031 0.68317 0.0
C855 C 0.06938 0.05199 0.701 0.0
C856 C 0.04095 0.02728 0.69944 0.0
C857 C 0.95496 0.95962 0.7002 0.0
C858 C 0.9854 0.98181 0.69876 0.0
H859 H 0.12125 0.08832 0.7437 0.0
H860 H 0.07201 0.05118 0.74086 0.0
H861 H 0.01248 0.05518 0.67186 0.0
H862 H 0.89478 0.92264 0.66382 0.0
H863 H 0.94655 0.95682 0.66082 0.0
loop_
_geom_bond_atom_site_label_1
_geom_bond_atom_site_label_2
_geom_bond_distance
_geom_bond_site_symmetry_2
_ccdc_geom_bond_type
Co0 N4 2.148 . S
Co0 N10 2.128 . S
Co0 N20 2.194 . S
Co0 O25 2.351 . S
Co0 O26 2.155 1_455 S
Co0 O27 2.096 . S
C1 N4 1.301 . S
C1 N5 1.328 . S
C1 H6 0.930 . S
C2 C3 1.333 . S
C2 N4 1.317 . S
C2 H7 0.930 . S
C3 C2 1.333 . S
C3 N5 1.350 . S
C3 H29 0.931 . S
N4 Co0 2.148 . S
N4 C1 1.301 . S
N4 C2 1.317 . S
N5 C1 1.328 . S
N5 C3 1.350 . S
H6 C1 0.930 . S
H7 C2 0.930 . S
C8 O9 1.224 . S
C8 O27 1.247 . S
O9 C8 1.224 . S
N10 Co0 2.128 . S
N10 C11 1.355 . S
N10 C13 1.311 . S
C11 N10 1.355 . S
C11 C12 1.363 . S
C11 H23 0.929 . S
C12 C11 1.363 . S
C12 N14 1.375 . S
C12 H30 0.931 . S
C13 N10 1.311 . S
C13 N14 1.347 . S
C13 H24 0.929 . S
N14 C12 1.375 . S
N14 C13 1.347 . S
C15 C18 1.365 . S
C15 N20 1.328 . S
C15 H21 0.929 . S
C16 C17 1.362 . S
C16 C19 1.378 . S
C16 H31 0.929 . S
C17 C16 1.362 . S
C17 C18 1.366 . S
C18 C15 1.365 . S
C18 C17 1.366 . S
C18 H32 0.930 . S
C19 C16 1.378 . S
C19 N20 1.315 . S
C19 H22 0.930 . S
N20 Co0 2.194 . S
N20 C15 1.328 . S
N20 C19 1.315 . S
H21 C15 0.929 . S
H22 C19 0.930 . S
H23 C11 0.929 . S
H24 C13 0.929 . S
O25 Co0 2.351 . S
O25 C28 1.244 1_455 S
O26 Co0 2.155 1_655 S
O26 C28 1.240 . S
O27 Co0 2.096 . S
O27 C8 1.247 . S
C28 O25 1.244 1_655 S
C28 O26 1.240 . S
H29 C3 0.931 . S
H30 C12 0.931 . S
H31 C16 0.929 . S
H32 C18 0.930 . S
Co33 N37 2.148 . S
Co33 N43 2.128 . S
Co33 N53 2.194 . S
Co33 O58 2.351 . S
Co33 O59 2.155 . S
Co33 O60 2.096 . S
C34 N37 1.301 . S
C34 N38 1.328 . S
C34 H39 0.930 . S
C35 C36 1.333 . S
C35 N37 1.317 . S
C35 H40 0.930 . S
C36 C35 1.333 . S
C36 N38 1.350 . S
C36 H62 0.931 . S
N37 Co33 2.148 . S
N37 C34 1.301 . S
N37 C35 1.317 . S
N38 C34 1.328 . S
N38 C36 1.350 . S
H39 C34 0.930 . S
H40 C35 0.930 . S
C41 O42 1.224 . S
C41 O60 1.247 . S
O42 C41 1.224 . S
N43 Co33 2.128 . S
N43 C44 1.355 . S
N43 C46 1.311 . S
C44 N43 1.355 . S
C44 C45 1.363 . S
C44 H56 0.929 . S
C45 C44 1.363 . S
C45 N47 1.375 . S
C45 H63 0.931 . S
C46 N43 1.311 . S
C46 N47 1.347 . S
C46 H57 0.929 . S
N47 C45 1.375 . S
N47 C46 1.347 . S
C48 C51 1.365 . S
C48 N53 1.328 . S
C48 H54 0.929 . S
C49 C50 1.362 . S
C49 C52 1.378 . S
C49 H64 0.929 . S
C50 C49 1.362 . S
C50 C51 1.366 . S
C51 C48 1.365 . S
C51 C50 1.366 . S
C51 H65 0.930 . S
C52 C49 1.378 . S
C52 N53 1.315 . S
C52 H55 0.930 . S
N53 Co33 2.194 . S
N53 C48 1.328 . S
N53 C52 1.315 . S
H54 C48 0.929 . S
H55 C52 0.930 . S
H56 C44 0.929 . S
H57 C46 0.929 . S
O58 Co33 2.351 . S
O58 C61 1.244 . S
O59 Co33 2.155 . S
O59 C61 1.240 . S
O60 Co33 2.096 . S
O60 C41 1.247 . S
C61 O58 1.244 . S
C61 O59 1.240 . S
H62 C36 0.931 . S
H63 C45 0.931 . S
H64 C49 0.929 . S
H65 C51 0.930 . S
Co66 N70 2.148 . S
Co66 N76 2.128 . S
Co66 N86 2.194 . S
Co66 O91 2.351 . S
Co66 O92 2.155 1_655 S
Co66 O93 2.096 . S
C67 N70 1.301 . S
C67 N71 1.328 . S
C67 H72 0.930 . S
C68 C69 1.333 . S
C68 N70 1.317 . S
C68 H73 0.930 . S
C69 C68 1.333 . S
C69 N71 1.350 . S
C69 H95 0.931 . S
N70 Co66 2.148 . S
N70 C67 1.301 . S
N70 C68 1.317 . S
N71 C67 1.328 . S
N71 C69 1.350 . S
H72 C67 0.930 . S
H73 C68 0.930 . S
C74 O75 1.224 . S
C74 O93 1.247 . S
O75 C74 1.224 . S
N76 Co66 2.128 . S
N76 C77 1.355 . S
N76 C79 1.311 . S
C77 N76 1.355 . S
C77 C78 1.363 . S
C77 H89 0.929 . S
C78 C77 1.363 . S
C78 N80 1.375 . S
C78 H96 0.931 . S
C79 N76 1.311 . S
C79 N80 1.347 . S
C79 H90 0.929 . S
N80 C78 1.375 . S
N80 C79 1.347 . S
C81 C84 1.365 . S
C81 N86 1.328 . S
C81 H87 0.929 . S
C82 C83 1.362 . S
C82 C85 1.378 . S
C82 H97 0.929 . S
C83 C82 1.362 . S
C83 C84 1.366 . S
C84 C81 1.365 . S
C84 C83 1.366 . S
C84 H98 0.930 . S
C85 C82 1.378 . S
C85 N86 1.315 . S
C85 H88 0.930 . S
N86 Co66 2.194 . S
N86 C81 1.328 . S
N86 C85 1.315 . S
H87 C81 0.929 . S
H88 C85 0.930 . S
H89 C77 0.929 . S
H90 C79 0.929 . S
O91 Co66 2.351 . S
O91 C94 1.244 1_655 S
O92 Co66 2.155 1_455 S
O92 C94 1.240 . S
O93 Co66 2.096 . S
O93 C74 1.247 . S
C94 O91 1.244 1_455 S
C94 O92 1.240 . S
H95 C69 0.931 . S
H96 C78 0.931 . S
H97 C82 0.929 . S
H98 C84 0.930 . S
Co99 N103 2.148 . S
Co99 N109 2.128 . S
Co99 N119 2.194 . S
Co99 O124 2.351 . S
Co99 O125 2.155 . S
Co99 O126 2.096 . S
C100 N103 1.301 . S
C100 N104 1.328 . S
C100 H105 0.930 . S
C101 C102 1.333 . S
C101 N103 1.317 . S
C101 H106 0.930 . S
C102 C101 1.333 . S
C102 N104 1.350 . S
C102 H128 0.931 . S
N103 Co99 2.148 . S
N103 C100 1.301 . S
N103 C101 1.317 . S
N104 C100 1.328 . S
N104 C102 1.350 . S
H105 C100 0.930 . S
H106 C101 0.930 . S
C107 O108 1.224 . S
C107 O126 1.247 . S
O108 C107 1.224 . S
N109 Co99 2.128 . S
N109 C110 1.355 . S
N109 C112 1.311 . S
C110 N109 1.355 . S
C110 C111 1.363 . S
C110 H122 0.929 . S
C111 C110 1.363 . S
C111 N113 1.375 . S
C111 H129 0.931 . S
C112 N109 1.311 . S
C112 N113 1.347 . S
C112 H123 0.929 . S
N113 C111 1.375 . S
N113 C112 1.347 . S
C114 C117 1.365 . S
C114 N119 1.328 . S
C114 H120 0.929 . S
C115 C116 1.362 . S
C115 C118 1.378 . S
C115 H130 0.929 . S
C116 C115 1.362 . S
C116 C117 1.366 . S
C117 C114 1.365 . S
C117 C116 1.366 . S
C117 H131 0.930 . S
C118 C115 1.378 . S
C118 N119 1.315 . S
C118 H121 0.930 . S
N119 Co99 2.194 . S
N119 C114 1.328 . S
N119 C118 1.315 . S
H120 C114 0.929 . S
H121 C118 0.930 . S
H122 C110 0.929 . S
H123 C112 0.929 . S
O124 Co99 2.351 . S
O124 C127 1.244 . S
O125 Co99 2.155 . S
O125 C127 1.240 . S
O126 Co99 2.096 . S
O126 C107 1.247 . S
C127 O124 1.244 . S
C127 O125 1.240 . S
H128 C102 0.931 . S
H129 C111 0.931 . S
H130 C115 0.929 . S
H131 C117 0.930 . S
Co132 N136 2.148 . S
Co132 N142 2.128 . S
Co132 N152 2.194 . S
Co132 O157 2.351 . S
Co132 O158 2.155 . S
Co132 O159 2.096 . S
C133 N136 1.301 . S
C133 N137 1.328 . S
C133 H138 0.930 . S
C134 C135 1.333 . S
C134 N136 1.317 . S
C134 H139 0.930 . S
C135 C134 1.333 . S
C135 N137 1.350 . S
C135 H161 0.931 . S
N136 Co132 2.148 . S
N136 C133 1.301 . S
N136 C134 1.317 . S
N137 C133 1.328 . S
N137 C135 1.350 . S
H138 C133 0.930 . S
H139 C134 0.930 . S
C140 O141 1.224 . S
C140 O159 1.247 . S
O141 C140 1.224 . S
N142 Co132 2.128 . S
N142 C143 1.355 . S
N142 C145 1.311 . S
C143 N142 1.355 . S
C143 C144 1.363 . S
C143 H155 0.929 . S
C144 C143 1.363 . S
C144 N146 1.375 . S
C144 H162 0.931 . S
C145 N142 1.311 . S
C145 N146 1.347 . S
C145 H156 0.929 . S
N146 C144 1.375 . S
N146 C145 1.347 . S
C147 C150 1.365 . S
C147 N152 1.328 . S
C147 H153 0.929 . S
C148 C149 1.362 . S
C148 C151 1.378 . S
C148 H163 0.929 . S
C149 C148 1.362 . S
C149 C150 1.366 . S
C150 C147 1.365 . S
C150 C149 1.366 . S
C150 H164 0.930 . S
C151 C148 1.378 . S
C151 N152 1.315 . S
C151 H154 0.930 . S
N152 Co132 2.194 . S
N152 C147 1.328 . S
N152 C151 1.315 . S
H153 C147 0.929 . S
H154 C151 0.930 . S
H155 C143 0.929 . S
H156 C145 0.929 . S
O157 Co132 2.351 . S
O157 C160 1.244 . S
O158 Co132 2.155 . S
O158 C160 1.240 . S
O159 Co132 2.096 . S
O159 C140 1.247 . S
C160 O157 1.244 . S
C160 O158 1.240 . S
H161 C135 0.931 . S
H162 C144 0.931 . S
H163 C148 0.929 . S
H164 C150 0.930 . S
Co165 N169 2.148 . S
Co165 N175 2.128 . S
Co165 N185 2.194 . S
Co165 O190 2.351 . S
Co165 O191 2.155 1_545 S
Co165 O192 2.096 . S
C166 N169 1.301 . S
C166 N170 1.328 . S
C166 H171 0.930 . S
C167 C168 1.333 . S
C167 N169 1.317 . S
C167 H172 0.930 . S
C168 C167 1.333 . S
C168 N170 1.350 . S
C168 H194 0.931 . S
N169 Co165 2.148 . S
N169 C166 1.301 . S
N169 C167 1.317 . S
N170 C166 1.328 . S
N170 C168 1.350 . S
H171 C166 0.930 . S
H172 C167 0.930 . S
C173 O174 1.224 . S
C173 O192 1.247 . S
O174 C173 1.224 . S
N175 Co165 2.128 . S
N175 C176 1.355 . S
N175 C178 1.311 . S
C176 N175 1.355 . S
C176 C177 1.363 . S
C176 H188 0.929 . S
C177 C176 1.363 . S
C177 N179 1.375 . S
C177 H195 0.931 . S
C178 N175 1.311 . S
C178 N179 1.347 . S
C178 H189 0.929 . S
N179 C177 1.375 . S
N179 C178 1.347 . S
C180 C183 1.365 . S
C180 N185 1.328 . S
C180 H186 0.929 . S
C181 C182 1.362 . S
C181 C184 1.378 . S
C181 H196 0.929 . S
C182 C181 1.362 . S
C182 C183 1.366 . S
C183 C180 1.365 . S
C183 C182 1.366 . S
C183 H197 0.930 . S
C184 C181 1.378 . S
C184 N185 1.315 . S
C184 H187 0.930 . S
N185 Co165 2.194 . S
N185 C180 1.328 . S
N185 C184 1.315 . S
H186 C180 0.929 . S
H187 C184 0.930 . S
H188 C176 0.929 . S
H189 C178 0.929 . S
O190 Co165 2.351 . S
O190 C193 1.244 1_545 S
O191 Co165 2.155 1_565 S
O191 C193 1.240 . S
O192 Co165 2.096 . S
O192 C173 1.247 . S
C193 O190 1.244 1_565 S
C193 O191 1.240 . S
H194 C168 0.931 . S
H195 C177 0.931 . S
H196 C181 0.929 . S
H197 C183 0.930 . S
Co198 N202 2.148 . S
Co198 N208 2.128 . S
Co198 N218 2.194 . S
Co198 O223 2.351 . S
Co198 O224 2.155 . S
Co198 O225 2.096 . S
C199 N202 1.301 . S
C199 N203 1.328 . S
C199 H204 0.930 . S
C200 C201 1.333 . S
C200 N202 1.317 . S
C200 H205 0.930 . S
C201 C200 1.333 . S
C201 N203 1.350 . S
C201 H227 0.931 . S
N202 Co198 2.148 . S
N202 C199 1.301 . S
N202 C200 1.317 . S
N203 C199 1.328 . S
N203 C201 1.350 . S
H204 C199 0.930 . S
H205 C200 0.930 . S
C206 O207 1.224 . S
C206 O225 1.247 . S
O207 C206 1.224 . S
N208 Co198 2.128 . S
N208 C209 1.355 . S
N208 C211 1.311 . S
C209 N208 1.355 . S
C209 C210 1.363 . S
C209 H221 0.929 . S
C210 C209 1.363 . S
C210 N212 1.375 . S
C210 H228 0.931 . S
C211 N208 1.311 . S
C211 N212 1.347 . S
C211 H222 0.929 . S
N212 C210 1.375 . S
N212 C211 1.347 . S
C213 C216 1.365 . S
C213 N218 1.328 . S
C213 H219 0.929 . S
C214 C215 1.362 . S
C214 C217 1.378 . S
C214 H229 0.929 . S
C215 C214 1.362 . S
C215 C216 1.366 . S
C216 C213 1.365 . S
C216 C215 1.366 . S
C216 H230 0.930 . S
C217 C214 1.378 . S
C217 N218 1.315 . S
C217 H220 0.930 . S
N218 Co198 2.194 . S
N218 C213 1.328 . S
N218 C217 1.315 . S
H219 C213 0.929 . S
H220 C217 0.930 . S
H221 C209 0.929 . S
H222 C211 0.929 . S
O223 Co198 2.351 . S
O223 C226 1.244 . S
O224 Co198 2.155 . S
O224 C226 1.240 . S
O225 Co198 2.096 . S
O225 C206 1.247 . S
C226 O223 1.244 . S
C226 O224 1.240 . S
H227 C201 0.931 . S
H228 C210 0.931 . S
H229 C214 0.929 . S
H230 C216 0.930 . S
Co231 N235 2.148 . S
Co231 N241 2.128 . S
Co231 N251 2.194 . S
Co231 O256 2.351 . S
Co231 O257 2.155 1_565 S
Co231 O258 2.096 . S
C232 N235 1.301 . S
C232 N236 1.328 . S
C232 H237 0.930 . S
C233 C234 1.333 . S
C233 N235 1.317 . S
C233 H238 0.930 . S
C234 C233 1.333 . S
C234 N236 1.350 . S
C234 H260 0.931 . S
N235 Co231 2.148 . S
N235 C232 1.301 . S
N235 C233 1.317 . S
N236 C232 1.328 . S
N236 C234 1.350 . S
H237 C232 0.930 . S
H238 C233 0.930 . S
C239 O240 1.224 . S
C239 O258 1.247 . S
O240 C239 1.224 . S
N241 Co231 2.128 . S
N241 C242 1.355 . S
N241 C244 1.311 . S
C242 N241 1.355 . S
C242 C243 1.363 . S
C242 H254 0.929 . S
C243 C242 1.363 . S
C243 N245 1.375 . S
C243 H261 0.931 . S
C244 N241 1.311 . S
C244 N245 1.347 . S
C244 H255 0.929 . S
N245 C243 1.375 . S
N245 C244 1.347 . S
C246 C249 1.365 . S
C246 N251 1.328 . S
C246 H252 0.929 . S
C247 C248 1.362 . S
C247 C250 1.378 . S
C247 H262 0.929 . S
C248 C247 1.362 . S
C248 C249 1.366 . S
C249 C246 1.365 . S
C249 C248 1.366 . S
C249 H263 0.930 . S
C250 C247 1.378 . S
C250 N251 1.315 . S
C250 H253 0.930 . S
N251 Co231 2.194 . S
N251 C246 1.328 . S
N251 C250 1.315 . S
H252 C246 0.929 . S
H253 C250 0.930 . S
H254 C242 0.929 . S
H255 C244 0.929 . S
O256 Co231 2.351 . S
O256 C259 1.244 1_565 S
O257 Co231 2.155 1_545 S
O257 C259 1.240 . S
O258 Co231 2.096 . S
O258 C239 1.247 . S
C259 O256 1.244 1_545 S
C259 O257 1.240 . S
H260 C234 0.931 . S
H261 C243 0.931 . S
H262 C247 0.929 . S
H263 C249 0.930 . S
C264 C265 1.349 . S
C264 C266 1.327 . S
C264 H289 0.950 . S
C265 C264 1.349 . S
C265 C281 1.349 . S
C266 C264 1.327 . S
C266 C285 1.429 . S
C266 H290 0.950 . S
C267 C284 1.574 . S
C267 C286 1.368 1_455 S
C267 H291 0.949 . S
H268 C272 0.949 . S
C269 C270 1.349 . S
C269 C271 1.327 . S
C269 H292 0.950 . S
C270 C269 1.349 . S
C270 C282 1.349 . S
C271 C269 1.327 . S
C271 C287 1.429 . S
C271 H293 0.950 . S
C272 H268 0.949 . S
C272 C280 1.574 . S
C272 C288 1.368 1_655 S
H273 C281 0.950 . S
H274 C279 0.950 1_455 S
H275 C280 0.949 . S
H276 C282 0.950 . S
H277 C283 0.950 1_655 S
H278 C284 0.949 . S
C279 H274 0.950 1_655 S
C279 C281 1.327 . S
C279 C285 1.429 . S
C280 C272 1.574 . S
C280 H275 0.949 . S
C280 C286 1.368 . S
C281 C265 1.349 . S
C281 H273 0.950 . S
C281 C279 1.327 . S
C282 C270 1.349 . S
C282 H276 0.950 . S
C282 C283 1.327 . S
C283 H277 0.950 1_455 S
C283 C282 1.327 . S
C283 C287 1.429 . S
C284 C267 1.574 . S
C284 H278 0.949 . S
C284 C288 1.368 . S
C285 C266 1.429 . S
C285 C279 1.429 . S
C285 C286 1.523 . S
C286 C267 1.368 1_655 S
C286 C280 1.368 . S
C286 C285 1.523 . S
C287 C271 1.429 . S
C287 C283 1.429 . S
C287 C288 1.523 . S
C288 C272 1.368 1_455 S
C288 C284 1.368 . S
C288 C287 1.523 . S
H289 C264 0.950 . S
H290 C266 0.950 . S
H291 C267 0.949 . S
H292 C269 0.950 . S
H293 C271 0.950 . S
C294 C295 1.349 . S
C294 C296 1.327 . S
C294 H319 0.950 . S
C295 C294 1.349 . S
C295 C311 1.349 . S
C296 C294 1.327 . S
C296 C315 1.429 . S
C296 H320 0.950 . S
C297 C314 1.574 1_655 S
C297 C316 1.368 . S
C297 H321 0.949 . S
H298 C302 0.949 . S
C299 C300 1.349 . S
C299 C301 1.327 . S
C299 H322 0.950 . S
C300 C299 1.349 . S
C300 C312 1.349 . S
C301 C299 1.327 . S
C301 C317 1.429 . S
C301 H323 0.950 . S
C302 H298 0.949 . S
C302 C310 1.574 1_455 S
C302 C318 1.368 . S
H303 C311 0.950 . S
H304 C309 0.950 . S
H305 C310 0.949 . S
H306 C312 0.950 . S
H307 C313 0.950 . S
H308 C314 0.949 . S
C309 H304 0.950 . S
C309 C311 1.327 . S
C309 C315 1.429 . S
C310 C302 1.574 1_655 S
C310 H305 0.949 . S
C310 C316 1.368 . S
C311 C295 1.349 . S
C311 H303 0.950 . S
C311 C309 1.327 . S
C312 C300 1.349 . S
C312 H306 0.950 . S
C312 C313 1.327 . S
C313 H307 0.950 . S
C313 C312 1.327 . S
C313 C317 1.429 . S
C314 C297 1.574 1_455 S
C314 H308 0.949 . S
C314 C318 1.368 . S
C315 C296 1.429 . S
C315 C309 1.429 . S
C315 C316 1.523 . S
C316 C297 1.368 . S
C316 C310 1.368 . S
C316 C315 1.523 . S
C317 C301 1.429 . S
C317 C313 1.429 . S
C317 C318 1.523 . S
C318 C302 1.368 . S
C318 C314 1.368 . S
C318 C317 1.523 . S
H319 C294 0.950 . S
H320 C296 0.950 . S
H321 C297 0.949 . S
H322 C299 0.950 . S
H323 C301 0.950 . S
C324 C325 1.349 . S
C324 C326 1.327 . S
C324 H349 0.950 . S
C325 C324 1.349 . S
C325 C341 1.349 . S
C326 C324 1.327 . S
C326 C345 1.429 . S
C326 H350 0.950 . S
C327 C344 1.574 1_565 S
C327 C346 1.368 . S
C327 H351 0.949 . S
H328 C332 0.949 . S
C329 C330 1.349 . S
C329 C331 1.327 . S
C329 H352 0.950 . S
C330 C329 1.349 . S
C330 C342 1.349 . S
C331 C329 1.327 . S
C331 C347 1.429 . S
C331 H353 0.950 . S
C332 H328 0.949 . S
C332 C340 1.574 1_545 S
C332 C348 1.368 . S
H333 C341 0.950 . S
H334 C339 0.950 . S
H335 C340 0.949 . S
H336 C342 0.950 . S
H337 C343 0.950 . S
H338 C344 0.949 . S
C339 H334 0.950 . S
C339 C341 1.327 . S
C339 C345 1.429 . S
C340 C332 1.574 1_565 S
C340 H335 0.949 . S
C340 C346 1.368 . S
C341 C325 1.349 . S
C341 H333 0.950 . S
C341 C339 1.327 . S
C342 C330 1.349 . S
C342 H336 0.950 . S
C342 C343 1.327 . S
C343 H337 0.950 . S
C343 C342 1.327 . S
C343 C347 1.429 . S
C344 C327 1.574 1_545 S
C344 H338 0.949 . S
C344 C348 1.368 . S
C345 C326 1.429 . S
C345 C339 1.429 . S
C345 C346 1.523 . S
C346 C327 1.368 . S
C346 C340 1.368 . S
C346 C345 1.523 . S
C347 C331 1.429 . S
C347 C343 1.429 . S
C347 C348 1.523 . S
C348 C332 1.368 . S
C348 C344 1.368 . S
C348 C347 1.523 . S
H349 C324 0.950 . S
H350 C326 0.950 . S
H351 C327 0.949 . S
H352 C329 0.950 . S
H353 C331 0.950 . S
C354 C355 1.349 . S
C354 C356 1.327 . S
C354 H379 0.950 . S
C355 C354 1.349 . S
C355 C371 1.349 . S
C356 C354 1.327 . S
C356 C375 1.429 . S
C356 H380 0.950 1_565 S
C357 C374 1.574 . S
C357 C376 1.368 . S
C357 H381 0.949 . S
H358 C362 0.949 . S
C359 C360 1.349 . S
C359 C361 1.327 . S
C359 H382 0.950 . S
C360 C359 1.349 . S
C360 C372 1.349 . S
C361 C359 1.327 . S
C361 C377 1.429 . S
C361 H383 0.950 1_545 S
C362 H358 0.949 . S
C362 C370 1.574 . S
C362 C378 1.368 . S
H363 C371 0.950 . S
H364 C369 0.950 . S
H365 C370 0.949 . S
H366 C372 0.950 . S
H367 C373 0.950 . S
H368 C374 0.949 . S
C369 H364 0.950 . S
C369 C371 1.327 . S
C369 C375 1.429 . S
C370 C362 1.574 . S
C370 H365 0.949 . S
C370 C376 1.368 1_545 S
C371 C355 1.349 . S
C371 H363 0.950 . S
C371 C369 1.327 . S
C372 C360 1.349 . S
C372 H366 0.950 . S
C372 C373 1.327 . S
C373 H367 0.950 . S
C373 C372 1.327 . S
C373 C377 1.429 . S
C374 C357 1.574 . S
C374 H368 0.949 . S
C374 C378 1.368 1_565 S
C375 C356 1.429 . S
C375 C369 1.429 . S
C375 C376 1.523 . S
C376 C357 1.368 . S
C376 C370 1.368 1_565 S
C376 C375 1.523 . S
C377 C361 1.429 . S
C377 C373 1.429 . S
C377 C378 1.523 . S
C378 C362 1.368 . S
C378 C374 1.368 1_545 S
C378 C377 1.523 . S
H379 C354 0.950 . S
H380 C356 0.950 1_545 S
H381 C357 0.949 . S
H382 C359 0.950 . S
H383 C361 0.950 1_565 S
C384 C385 1.349 . S
C384 C386 1.327 . S
C384 H409 0.950 . S
C385 C384 1.349 . S
C385 C401 1.349 . S
C386 C384 1.327 . S
C386 C405 1.429 . S
C386 H410 0.950 . S
C387 C404 1.574 . S
C387 C406 1.368 . S
C387 H411 0.949 . S
H388 C392 0.949 . S
C389 C390 1.349 . S
C389 C391 1.327 . S
C389 H412 0.950 . S
C390 C389 1.349 . S
C390 C402 1.349 . S
C391 C389 1.327 . S
C391 C407 1.429 . S
C391 H413 0.950 . S
C392 H388 0.949 . S
C392 C400 1.574 . S
C392 C408 1.368 . S
H393 C401 0.950 . S
H394 C399 0.950 . S
H395 C400 0.949 . S
H396 C402 0.950 . S
H397 C403 0.950 . S
H398 C404 0.949 . S
C399 H394 0.950 . S
C399 C401 1.327 . S
C399 C405 1.429 . S
C400 C392 1.574 . S
C400 H395 0.949 . S
C400 C406 1.368 . S
C401 C385 1.349 . S
C401 H393 0.950 . S
C401 C399 1.327 . S
C402 C390 1.349 . S
C402 H396 0.950 . S
C402 C403 1.327 . S
C403 H397 0.950 . S
C403 C402 1.327 . S
C403 C407 1.429 . S
C404 C387 1.574 . S
C404 H398 0.949 . S
C404 C408 1.368 . S
C405 C386 1.429 . S
C405 C399 1.429 . S
C405 C406 1.523 . S
C406 C387 1.368 . S
C406 C400 1.368 . S
C406 C405 1.523 . S
C407 C391 1.429 . S
C407 C403 1.429 . S
C407 C408 1.523 . S
C408 C392 1.368 . S
C408 C404 1.368 . S
C408 C407 1.523 . S
H409 C384 0.950 . S
H410 C386 0.950 . S
H411 C387 0.949 . S
H412 C389 0.950 . S
H413 C391 0.950 . S
C414 C415 1.349 . S
C414 C416 1.327 . S
C414 H439 0.950 . S
C415 C414 1.349 . S
C415 C431 1.349 . S
C416 C414 1.327 . S
C416 C435 1.429 . S
C416 H440 0.950 . S
C417 C434 1.574 . S
C417 C436 1.368 . S
C417 H441 0.949 . S
H418 C422 0.949 . S
C419 C420 1.349 . S
C419 C421 1.327 . S
C419 H442 0.950 . S
C420 C419 1.349 . S
C420 C432 1.349 . S
C421 C419 1.327 . S
C421 C437 1.429 . S
C421 H443 0.950 . S
C422 H418 0.949 . S
C422 C430 1.574 . S
C422 C438 1.368 . S
H423 C431 0.950 . S
H424 C429 0.950 . S
H425 C430 0.949 . S
H426 C432 0.950 . S
H427 C433 0.950 . S
H428 C434 0.949 . S
C429 H424 0.950 . S
C429 C431 1.327 . S
C429 C435 1.429 . S
C430 C422 1.574 . S
C430 H425 0.949 . S
C430 C436 1.368 . S
C431 C415 1.349 . S
C431 H423 0.950 . S
C431 C429 1.327 . S
C432 C420 1.349 . S
C432 H426 0.950 . S
C432 C433 1.327 . S
C433 H427 0.950 . S
C433 C432 1.327 . S
C433 C437 1.429 . S
C434 C417 1.574 . S
C434 H428 0.949 . S
C434 C438 1.368 . S
C435 C416 1.429 . S
C435 C429 1.429 . S
C435 C436 1.523 . S
C436 C417 1.368 . S
C436 C430 1.368 . S
C436 C435 1.523 . S
C437 C421 1.429 . S
C437 C433 1.429 . S
C437 C438 1.523 . S
C438 C422 1.368 . S
C438 C434 1.368 . S
C438 C437 1.523 . S
H439 C414 0.950 . S
H440 C416 0.950 . S
H441 C417 0.949 . S
H442 C419 0.950 . S
H443 C421 0.950 . S
C444 C445 1.349 . S
C444 C446 1.327 . S
C444 H469 0.950 . S
C445 C444 1.349 . S
C445 C461 1.349 . S
C446 C444 1.327 . S
C446 C465 1.429 . S
C446 H470 0.950 . S
C447 C464 1.574 . S
C447 C466 1.368 . S
C447 H471 0.949 . S
H448 C452 0.949 . S
C449 C450 1.349 . S
C449 C451 1.327 . S
C449 H472 0.950 . S
C450 C449 1.349 . S
C450 C462 1.349 . S
C451 C449 1.327 . S
C451 C467 1.429 . S
C451 H473 0.950 . S
C452 H448 0.949 . S
C452 C460 1.574 . S
C452 C468 1.368 . S
H453 C461 0.950 . S
H454 C459 0.950 . S
H455 C460 0.949 . S
H456 C462 0.950 . S
H457 C463 0.950 . S
H458 C464 0.949 . S
C459 H454 0.950 . S
C459 C461 1.327 . S
C459 C465 1.429 . S
C460 C452 1.574 . S
C460 H455 0.949 . S
C460 C466 1.368 . S
C461 C445 1.349 . S
C461 H453 0.950 . S
C461 C459 1.327 . S
C462 C450 1.349 . S
C462 H456 0.950 . S
C462 C463 1.327 . S
C463 H457 0.950 . S
C463 C462 1.327 . S
C463 C467 1.429 . S
C464 C447 1.574 . S
C464 H458 0.949 . S
C464 C468 1.368 . S
C465 C446 1.429 . S
C465 C459 1.429 . S
C465 C466 1.523 . S
C466 C447 1.368 . S
C466 C460 1.368 . S
C466 C465 1.523 . S
C467 C451 1.429 . S
C467 C463 1.429 . S
C467 C468 1.523 . S
C468 C452 1.368 . S
C468 C464 1.368 . S
C468 C467 1.523 . S
H469 C444 0.950 . S
H470 C446 0.950 . S
H471 C447 0.949 . S
H472 C449 0.950 . S
H473 C451 0.950 . S
C474 C475 1.349 . S
C474 C476 1.327 . S
C474 H499 0.950 . S
C475 C474 1.349 . S
C475 C491 1.349 . S
C476 C474 1.327 . S
C476 C495 1.429 . S
C476 H500 0.950 . S
C477 C494 1.574 . S
C477 C496 1.368 . S
C477 H501 0.949 . S
H478 C482 0.949 . S
C479 C480 1.349 . S
C479 C481 1.327 . S
C479 H502 0.950 . S
C480 C479 1.349 . S
C480 C492 1.349 . S
C481 C479 1.327 . S
C481 C497 1.429 . S
C481 H503 0.950 . S
C482 H478 0.949 . S
C482 C490 1.574 . S
C482 C498 1.368 . S
H483 C491 0.950 . S
H484 C489 0.950 . S
H485 C490 0.949 . S
H486 C492 0.950 . S
H487 C493 0.950 . S
H488 C494 0.949 . S
C489 H484 0.950 . S
C489 C491 1.327 . S
C489 C495 1.429 . S
C490 C482 1.574 . S
C490 H485 0.949 . S
C490 C496 1.368 . S
C491 C475 1.349 . S
C491 H483 0.950 . S
C491 C489 1.327 . S
C492 C480 1.349 . S
C492 H486 0.950 . S
C492 C493 1.327 . S
C493 H487 0.950 . S
C493 C492 1.327 . S
C493 C497 1.429 . S
C494 C477 1.574 . S
C494 H488 0.949 . S
C494 C498 1.368 . S
C495 C476 1.429 . S
C495 C489 1.429 . S
C495 C496 1.523 . S
C496 C477 1.368 . S
C496 C490 1.368 . S
C496 C495 1.523 . S
C497 C481 1.429 . S
C497 C493 1.429 . S
C497 C498 1.523 . S
C498 C482 1.368 . S
C498 C494 1.368 . S
C498 C497 1.523 . S
H499 C474 0.950 . S
H500 C476 0.950 . S
H501 C477 0.949 . S
H502 C479 0.950 . S
H503 C481 0.950 . S
C504 C505 1.349 . S
C504 C506 1.327 . S
C504 H529 0.950 . S
C505 C504 1.349 . S
C505 C521 1.349 . S
C506 C504 1.327 . S
C506 C525 1.429 . S
C506 H530 0.950 . S
C507 C524 1.574 . S
C507 C526 1.368 . S
C507 H531 0.949 . S
H508 C512 0.949 . S
C509 C510 1.349 . S
C509 C511 1.327 . S
C509 H532 0.950 . S
C510 C509 1.349 . S
C510 C522 1.349 . S
C511 C509 1.327 . S
C511 C527 1.429 . S
C511 H533 0.950 . S
C512 H508 0.949 . S
C512 C520 1.574 . S
C512 C528 1.368 . S
H513 C521 0.950 . S
H514 C519 0.950 . S
H515 C520 0.949 . S
H516 C522 0.950 . S
H517 C523 0.950 . S
H518 C524 0.949 . S
C519 H514 0.950 . S
C519 C521 1.327 . S
C519 C525 1.429 . S
C520 C512 1.574 . S
C520 H515 0.949 . S
C520 C526 1.368 . S
C521 C505 1.349 . S
C521 H513 0.950 . S
C521 C519 1.327 . S
C522 C510 1.349 . S
C522 H516 0.950 . S
C522 C523 1.327 . S
C523 H517 0.950 . S
C523 C522 1.327 . S
C523 C527 1.429 . S
C524 C507 1.574 . S
C524 H518 0.949 . S
C524 C528 1.368 . S
C525 C506 1.429 . S
C525 C519 1.429 . S
C525 C526 1.523 . S
C526 C507 1.368 . S
C526 C520 1.368 . S
C526 C525 1.523 . S
C527 C511 1.429 . S
C527 C523 1.429 . S
C527 C528 1.523 . S
C528 C512 1.368 . S
C528 C524 1.368 . S
C528 C527 1.523 . S
H529 C504 0.950 . S
H530 C506 0.950 . S
H531 C507 0.949 . S
H532 C509 0.950 . S
H533 C511 0.950 . S
C534 C535 1.349 . S
C534 C536 1.327 . S
C534 H559 0.950 . S
C535 C534 1.349 . S
C535 C551 1.349 . S
C536 C534 1.327 . S
C536 C555 1.429 . S
C536 H560 0.950 . S
C537 C554 1.574 . S
C537 C556 1.368 . S
C537 H561 0.949 . S
H538 C542 0.949 . S
C539 C540 1.349 . S
C539 C541 1.327 . S
C539 H562 0.950 . S
C540 C539 1.349 . S
C540 C552 1.349 . S
C541 C539 1.327 . S
C541 C557 1.429 . S
C541 H563 0.950 . S
C542 H538 0.949 . S
C542 C550 1.574 . S
C542 C558 1.368 . S
H543 C551 0.950 . S
H544 C549 0.950 . S
H545 C550 0.949 . S
H546 C552 0.950 . S
H547 C553 0.950 . S
H548 C554 0.949 . S
C549 H544 0.950 . S
C549 C551 1.327 . S
C549 C555 1.429 . S
C550 C542 1.574 . S
C550 H545 0.949 . S
C550 C556 1.368 . S
C551 C535 1.349 . S
C551 H543 0.950 . S
C551 C549 1.327 . S
C552 C540 1.349 . S
C552 H546 0.950 . S
C552 C553 1.327 . S
C553 H547 0.950 . S
C553 C552 1.327 . S
C553 C557 1.429 . S
C554 C537 1.574 . S
C554 H548 0.949 . S
C554 C558 1.368 . S
C555 C536 1.429 . S
C555 C549 1.429 . S
C555 C556 1.523 . S
C556 C537 1.368 . S
C556 C550 1.368 . S
C556 C555 1.523 . S
C557 C541 1.429 . S
C557 C553 1.429 . S
C557 C558 1.523 . S
C558 C542 1.368 . S
C558 C554 1.368 . S
C558 C557 1.523 . S
H559 C534 0.950 . S
H560 C536 0.950 . S
H561 C537 0.949 . S
H562 C539 0.950 . S
H563 C541 0.950 . S
C564 C565 1.349 . S
C564 C566 1.327 . S
C564 H589 0.950 . S
C565 C564 1.349 . S
C565 C581 1.349 . S
C566 C564 1.327 . S
C566 C585 1.429 . S
C566 H590 0.950 . S
C567 C584 1.574 . S
C567 C586 1.368 . S
C567 H591 0.949 . S
H568 C572 0.949 . S
C569 C570 1.349 . S
C569 C571 1.327 . S
C569 H592 0.950 . S
C570 C569 1.349 . S
C570 C582 1.349 . S
C571 C569 1.327 . S
C571 C587 1.429 . S
C571 H593 0.950 . S
C572 H568 0.949 . S
C572 C580 1.574 . S
C572 C588 1.368 . S
H573 C581 0.950 . S
H574 C579 0.950 . S
H575 C580 0.949 . S
H576 C582 0.950 . S
H577 C583 0.950 . S
H578 C584 0.949 . S
C579 H574 0.950 . S
C579 C581 1.327 . S
C579 C585 1.429 . S
C580 C572 1.574 . S
C580 H575 0.949 . S
C580 C586 1.368 . S
C581 C565 1.349 . S
C581 H573 0.950 . S
C581 C579 1.327 . S
C582 C570 1.349 . S
C582 H576 0.950 . S
C582 C583 1.327 . S
C583 H577 0.950 . S
C583 C582 1.327 . S
C583 C587 1.429 . S
C584 C567 1.574 . S
C584 H578 0.949 . S
C584 C588 1.368 . S
C585 C566 1.429 . S
C585 C579 1.429 . S
C585 C586 1.523 . S
C586 C567 1.368 . S
C586 C580 1.368 . S
C586 C585 1.523 . S
C587 C571 1.429 . S
C587 C583 1.429 . S
C587 C588 1.523 . S
C588 C572 1.368 . S
C588 C584 1.368 . S
C588 C587 1.523 . S
H589 C564 0.950 . S
H590 C566 0.950 . S
H591 C567 0.949 . S
H592 C569 0.950 . S
H593 C571 0.950 . S
C594 C595 1.349 . S
C594 C596 1.327 . S
C594 H619 0.950 . S
C595 C594 1.349 . S
C595 C611 1.349 . S
C596 C594 1.327 . S
C596 C615 1.429 . S
C596 H620 0.950 . S
C597 C614 1.574 . S
C597 C616 1.368 . S
C597 H621 0.949 . S
H598 C602 0.949 . S
C599 C600 1.349 . S
C599 C601 1.327 . S
C599 H622 0.950 . S
C600 C599 1.349 . S
C600 C612 1.349 . S
C601 C599 1.327 . S
C601 C617 1.429 . S
C601 H623 0.950 . S
C602 H598 0.949 . S
C602 C610 1.574 . S
C602 C618 1.368 . S
H603 C611 0.950 . S
H604 C609 0.950 . S
H605 C610 0.949 . S
H606 C612 0.950 . S
H607 C613 0.950 . S
H608 C614 0.949 . S
C609 H604 0.950 . S
C609 C611 1.327 . S
C609 C615 1.429 . S
C610 C602 1.574 . S
C610 H605 0.949 . S
C610 C616 1.368 . S
C611 C595 1.349 . S
C611 H603 0.950 . S
C611 C609 1.327 . S
C612 C600 1.349 . S
C612 H606 0.950 . S
C612 C613 1.327 . S
C613 H607 0.950 . S
C613 C612 1.327 . S
C613 C617 1.429 . S
C614 C597 1.574 . S
C614 H608 0.949 . S
C614 C618 1.368 . S
C615 C596 1.429 . S
C615 C609 1.429 . S
C615 C616 1.523 . S
C616 C597 1.368 . S
C616 C610 1.368 . S
C616 C615 1.523 . S
C617 C601 1.429 . S
C617 C613 1.429 . S
C617 C618 1.523 . S
C618 C602 1.368 . S
C618 C614 1.368 . S
C618 C617 1.523 . S
H619 C594 0.950 . S
H620 C596 0.950 . S
H621 C597 0.949 . S
H622 C599 0.950 . S
H623 C601 0.950 . S
C624 C625 1.349 . S
C624 C626 1.327 . S
C624 H649 0.950 . S
C625 C624 1.349 . S
C625 C641 1.349 . S
C626 C624 1.327 . S
C626 C645 1.429 . S
C626 H650 0.950 . S
C627 C644 1.574 . S
C627 C646 1.368 . S
C627 H651 0.949 . S
H628 C632 0.949 . S
C629 C630 1.349 . S
C629 C631 1.327 . S
C629 H652 0.950 . S
C630 C629 1.349 . S
C630 C642 1.349 . S
C631 C629 1.327 . S
C631 C647 1.429 . S
C631 H653 0.950 . S
C632 H628 0.949 . S
C632 C640 1.574 . S
C632 C648 1.368 . S
H633 C641 0.950 . S
H634 C639 0.950 . S
H635 C640 0.949 . S
H636 C642 0.950 . S
H637 C643 0.950 . S
H638 C644 0.949 . S
C639 H634 0.950 . S
C639 C641 1.327 . S
C639 C645 1.429 . S
C640 C632 1.574 . S
C640 H635 0.949 . S
C640 C646 1.368 . S
C641 C625 1.349 . S
C641 H633 0.950 . S
C641 C639 1.327 . S
C642 C630 1.349 . S
C642 H636 0.950 . S
C642 C643 1.327 . S
C643 H637 0.950 . S
C643 C642 1.327 . S
C643 C647 1.429 . S
C644 C627 1.574 . S
C644 H638 0.949 . S
C644 C648 1.368 . S
C645 C626 1.429 . S
C645 C639 1.429 . S
C645 C646 1.523 . S
C646 C627 1.368 . S
C646 C640 1.368 . S
C646 C645 1.523 . S
C647 C631 1.429 . S
C647 C643 1.429 . S
C647 C648 1.523 . S
C648 C632 1.368 . S
C648 C644 1.368 . S
C648 C647 1.523 . S
H649 C624 0.950 . S
H650 C626 0.950 . S
H651 C627 0.949 . S
H652 C629 0.950 . S
H653 C631 0.950 . S
C654 C655 1.349 . S
C654 C656 1.327 . S
C654 H679 0.950 . S
C655 C654 1.349 . S
C655 C671 1.349 . S
C656 C654 1.327 . S
C656 C675 1.429 . S
C656 H680 0.950 . S
C657 C674 1.574 1_554 S
C657 C676 1.368 . S
C657 H681 0.949 . S
H658 C662 0.949 . S
C659 C660 1.349 . S
C659 C661 1.327 . S
C659 H682 0.950 . S
C660 C659 1.349 . S
C660 C672 1.349 . S
C661 C659 1.327 . S
C661 C677 1.429 . S
C661 H683 0.950 . S
C662 H658 0.949 . S
C662 C670 1.574 1_556 S
C662 C678 1.368 . S
H663 C671 0.950 . S
H664 C669 0.950 . S
H665 C670 0.949 . S
H666 C672 0.950 . S
H667 C673 0.950 . S
H668 C674 0.949 . S
C669 H664 0.950 . S
C669 C671 1.327 . S
C669 C675 1.429 . S
C670 C662 1.574 1_554 S
C670 H665 0.949 . S
C670 C676 1.368 . S
C671 C655 1.349 . S
C671 H663 0.950 . S
C671 C669 1.327 . S
C672 C660 1.349 . S
C672 H666 0.950 . S
C672 C673 1.327 . S
C673 H667 0.950 . S
C673 C672 1.327 . S
C673 C677 1.429 . S
C674 C657 1.574 1_556 S
C674 H668 0.949 . S
C674 C678 1.368 . S
C675 C656 1.429 . S
C675 C669 1.429 . S
C675 C676 1.523 . S
C676 C657 1.368 . S
C676 C670 1.368 . S
C676 C675 1.523 . S
C677 C661 1.429 . S
C677 C673 1.429 . S
C677 C678 1.523 . S
C678 C662 1.368 . S
C678 C674 1.368 . S
C678 C677 1.523 . S
H679 C654 0.950 . S
H680 C656 0.950 . S
H681 C657 0.949 . S
H682 C659 0.950 . S
H683 C661 0.950 . S
C684 C685 1.349 . S
C684 C686 1.327 . S
C684 H709 0.950 . S
C685 C684 1.349 . S
C685 C701 1.349 . S
C686 C684 1.327 . S
C686 C705 1.429 . S
C686 H710 0.950 . S
C687 C704 1.574 . S
C687 C706 1.368 . S
C687 H711 0.949 . S
H688 C692 0.949 . S
C689 C690 1.349 . S
C689 C691 1.327 . S
C689 H712 0.950 . S
C690 C689 1.349 . S
C690 C702 1.349 . S
C691 C689 1.327 . S
C691 C707 1.429 . S
C691 H713 0.950 . S
C692 H688 0.949 . S
C692 C700 1.574 . S
C692 C708 1.368 . S
H693 C701 0.950 . S
H694 C699 0.950 . S
H695 C700 0.949 . S
H696 C702 0.950 . S
H697 C703 0.950 . S
H698 C704 0.949 . S
C699 H694 0.950 . S
C699 C701 1.327 . S
C699 C705 1.429 . S
C700 C692 1.574 . S
C700 H695 0.949 . S
C700 C706 1.368 . S
C701 C685 1.349 . S
C701 H693 0.950 . S
C701 C699 1.327 . S
C702 C690 1.349 . S
C702 H696 0.950 . S
C702 C703 1.327 . S
C703 H697 0.950 . S
C703 C702 1.327 . S
C703 C707 1.429 . S
C704 C687 1.574 . S
C704 H698 0.949 . S
C704 C708 1.368 . S
C705 C686 1.429 . S
C705 C699 1.429 . S
C705 C706 1.523 . S
C706 C687 1.368 . S
C706 C700 1.368 . S
C706 C705 1.523 . S
C707 C691 1.429 . S
C707 C703 1.429 . S
C707 C708 1.523 . S
C708 C692 1.368 . S
C708 C704 1.368 . S
C708 C707 1.523 . S
H709 C684 0.950 . S
H710 C686 0.950 . S
H711 C687 0.949 . S
H712 C689 0.950 . S
H713 C691 0.950 . S
C714 C715 1.349 . S
C714 C716 1.327 . S
C714 H739 0.950 . S
C715 C714 1.349 . S
C715 C731 1.349 . S
C716 C714 1.327 . S
C716 C735 1.429 . S
C716 H740 0.950 . S
C717 C734 1.574 . S
C717 C736 1.368 . S
C717 H741 0.949 . S
H718 C722 0.949 . S
C719 C720 1.349 . S
C719 C721 1.327 . S
C719 H742 0.950 . S
C720 C719 1.349 . S
C720 C732 1.349 . S
C721 C719 1.327 . S
C721 C737 1.429 . S
C721 H743 0.950 . S
C722 H718 0.949 . S
C722 C730 1.574 . S
C722 C738 1.368 . S
H723 C731 0.950 . S
H724 C729 0.950 . S
H725 C730 0.949 . S
H726 C732 0.950 . S
H727 C733 0.950 . S
H728 C734 0.949 . S
C729 H724 0.950 . S
C729 C731 1.327 . S
C729 C735 1.429 . S
C730 C722 1.574 . S
C730 H725 0.949 . S
C730 C736 1.368 1_556 S
C731 C715 1.349 . S
C731 H723 0.950 . S
C731 C729 1.327 . S
C732 C720 1.349 . S
C732 H726 0.950 . S
C732 C733 1.327 . S
C733 H727 0.950 . S
C733 C732 1.327 . S
C733 C737 1.429 . S
C734 C717 1.574 . S
C734 H728 0.949 . S
C734 C738 1.368 1_554 S
C735 C716 1.429 . S
C735 C729 1.429 . S
C735 C736 1.523 . S
C736 C717 1.368 . S
C736 C730 1.368 1_554 S
C736 C735 1.523 . S
C737 C721 1.429 . S
C737 C733 1.429 . S
C737 C738 1.523 . S
C738 C722 1.368 . S
C738 C734 1.368 1_556 S
C738 C737 1.523 . S
H739 C714 0.950 . S
H740 C716 0.950 . S
H741 C717 0.949 . S
H742 C719 0.950 . S
H743 C721 0.950 . S
C744 C745 1.349 . S
C744 C746 1.327 . S
C744 H769 0.950 . S
C745 C744 1.349 . S
C745 C761 1.349 . S
C746 C744 1.327 . S
C746 C765 1.429 . S
C746 H770 0.950 . S
C747 C764 1.574 1_565 S
C747 C766 1.368 1_455 S
C747 H771 0.949 . S
H748 C752 0.949 . S
C749 C750 1.349 . S
C749 C751 1.327 . S
C749 H772 0.950 . S
C750 C749 1.349 . S
C750 C762 1.349 . S
C751 C749 1.327 . S
C751 C767 1.429 . S
C751 H773 0.950 . S
C752 H748 0.949 . S
C752 C760 1.574 1_545 S
C752 C768 1.368 1_655 S
H753 C761 0.950 . S
H754 C759 0.950 . S
H755 C760 0.949 . S
H756 C762 0.950 . S
H757 C763 0.950 . S
H758 C764 0.949 . S
C759 H754 0.950 . S
C759 C761 1.327 . S
C759 C765 1.429 . S
C760 C752 1.574 1_565 S
C760 H755 0.949 . S
C760 C766 1.368 . S
C761 C745 1.349 . S
C761 H753 0.950 . S
C761 C759 1.327 . S
C762 C750 1.349 . S
C762 H756 0.950 . S
C762 C763 1.327 . S
C763 H757 0.950 . S
C763 C762 1.327 . S
C763 C767 1.429 . S
C764 C747 1.574 1_545 S
C764 H758 0.949 . S
C764 C768 1.368 . S
C765 C746 1.429 . S
C765 C759 1.429 . S
C765 C766 1.523 . S
C766 C747 1.368 1_655 S
C766 C760 1.368 . S
C766 C765 1.523 . S
C767 C751 1.429 . S
C767 C763 1.429 . S
C767 C768 1.523 . S
C768 C752 1.368 1_455 S
C768 C764 1.368 . S
C768 C767 1.523 . S
H769 C744 0.950 . S
H770 C746 0.950 . S
H771 C747 0.949 . S
H772 C749 0.950 . S
H773 C751 0.950 . S
C774 C775 1.349 . S
C774 C776 1.327 . S
C774 H799 0.950 . S
C775 C774 1.349 . S
C775 C791 1.349 . S
C776 C774 1.327 . S
C776 C795 1.429 . S
C776 H800 0.950 . S
C777 C794 1.574 . S
C777 C796 1.368 . S
C777 H801 0.949 . S
H778 C782 0.949 . S
C779 C780 1.349 . S
C779 C781 1.327 . S
C779 H802 0.950 . S
C780 C779 1.349 . S
C780 C792 1.349 . S
C781 C779 1.327 . S
C781 C797 1.429 . S
C781 H803 0.950 . S
C782 H778 0.949 . S
C782 C790 1.574 . S
C782 C798 1.368 . S
H783 C791 0.950 . S
H784 C789 0.950 . S
H785 C790 0.949 . S
H786 C792 0.950 . S
H787 C793 0.950 . S
H788 C794 0.949 . S
C789 H784 0.950 . S
C789 C791 1.327 . S
C789 C795 1.429 . S
C790 C782 1.574 . S
C790 H785 0.949 . S
C790 C796 1.368 . S
C791 C775 1.349 . S
C791 H783 0.950 . S
C791 C789 1.327 . S
C792 C780 1.349 . S
C792 H786 0.950 . S
C792 C793 1.327 . S
C793 H787 0.950 . S
C793 C792 1.327 . S
C793 C797 1.429 . S
C794 C777 1.574 . S
C794 H788 0.949 . S
C794 C798 1.368 . S
C795 C776 1.429 . S
C795 C789 1.429 . S
C795 C796 1.523 . S
C796 C777 1.368 . S
C796 C790 1.368 . S
C796 C795 1.523 . S
C797 C781 1.429 . S
C797 C793 1.429 . S
C797 C798 1.523 . S
C798 C782 1.368 . S
C798 C794 1.368 . S
C798 C797 1.523 . S
H799 C774 0.950 . S
H800 C776 0.950 . S
H801 C777 0.949 . S
H802 C779 0.950 . S
H803 C781 0.950 . S
C804 C805 1.349 . S
C804 C806 1.327 . S
C804 H829 0.950 . S
C805 C804 1.349 . S
C805 C821 1.349 . S
C806 C804 1.327 . S
C806 C825 1.429 . S
C806 H830 0.950 . S
C807 C824 1.574 . S
C807 C826 1.368 . S
C807 H831 0.949 . S
H808 C812 0.949 . S
C809 C810 1.349 . S
C809 C811 1.327 . S
C809 H832 0.950 . S
C810 C809 1.349 . S
C810 C822 1.349 . S
C811 C809 1.327 . S
C811 C827 1.429 . S
C811 H833 0.950 . S
C812 H808 0.949 . S
C812 C820 1.574 . S
C812 C828 1.368 . S
H813 C821 0.950 . S
H814 C819 0.950 . S
H815 C820 0.949 . S
H816 C822 0.950 . S
H817 C823 0.950 . S
H818 C824 0.949 . S
C819 H814 0.950 . S
C819 C821 1.327 . S
C819 C825 1.429 . S
C820 C812 1.574 . S
C820 H815 0.949 . S
C820 C826 1.368 . S
C821 C805 1.349 . S
C821 H813 0.950 . S
C821 C819 1.327 . S
C822 C810 1.349 . S
C822 H816 0.950 . S
C822 C823 1.327 . S
C823 H817 0.950 . S
C823 C822 1.327 . S
C823 C827 1.429 . S
C824 C807 1.574 . S
C824 H818 0.949 . S
C824 C828 1.368 . S
C825 C806 1.429 . S
C825 C819 1.429 . S
C825 C826 1.523 . S
C826 C807 1.368 . S
C826 C820 1.368 . S
C826 C825 1.523 . S
C827 C811 1.429 . S
C827 C823 1.429 . S
C827 C828 1.523 . S
C828 C812 1.368 . S
C828 C824 1.368 . S
C828 C827 1.523 . S
H829 C804 0.950 . S
H830 C806 0.950 . S
H831 C807 0.949 . S
H832 C809 0.950 . S
H833 C811 0.950 . S
C834 C835 1.349 . S
C834 C836 1.327 . S
C834 H859 0.950 . S
C835 C834 1.349 . S
C835 C851 1.349 . S
C836 C834 1.327 . S
C836 C855 1.429 . S
C836 H860 0.950 . S
C837 C854 1.574 1_455 S
C837 C856 1.368 1_565 S
C837 H861 0.949 . S
H838 C842 0.949 . S
C839 C840 1.349 . S
C839 C841 1.327 . S
C839 H862 0.950 . S
C840 C839 1.349 . S
C840 C852 1.349 . S
C841 C839 1.327 . S
C841 C857 1.429 . S
C841 H863 0.950 . S
C842 H838 0.949 . S
C842 C850 1.574 1_655 S
C842 C858 1.368 1_545 S
H843 C851 0.950 . S
H844 C849 0.950 . S
H845 C850 0.949 . S
H846 C852 0.950 . S
H847 C853 0.950 . S
H848 C854 0.949 . S
C849 H844 0.950 . S
C849 C851 1.327 . S
C849 C855 1.429 . S
C850 C842 1.574 1_455 S
C850 H845 0.949 . S
C850 C856 1.368 . S
C851 C835 1.349 . S
C851 H843 0.950 . S
C851 C849 1.327 . S
C852 C840 1.349 . S
C852 H846 0.950 . S
C852 C853 1.327 . S
C853 H847 0.950 . S
C853 C852 1.327 . S
C853 C857 1.429 . S
C854 C837 1.574 1_655 S
C854 H848 0.949 . S
C854 C858 1.368 . S
C855 C836 1.429 . S
C855 C849 1.429 . S
C855 C856 1.523 . S
C856 C837 1.368 1_545 S
C856 C850 1.368 . S
C856 C855 1.523 . S
C857 C841 1.429 . S
C857 C853 1.429 . S
C857 C858 1.523 . S
C858 C842 1.368 1_565 S
C858 C854 1.368 . S
C858 C857 1.523 . S
H859 C834 0.950 . S
H860 C836 0.950 . S
H861 C837 0.949 . S
H862 C839 0.950 . S
H863 C841 0.950 . S
C265 N71 1.138 . S
C270 N5 1.138 . S
C295 N104 1.138 . S
C300 N38 1.138 . S
C325 N203 1.138 . S
C330 N137 1.138 . S
C355 N236 1.138 . S
C360 N170 1.138 . S
C385 C160 1.956 . S
C390 C17 1.955 . S
C415 C193 1.956 . S
C420 C50 1.955 . S
C445 C226 1.956 . S
C450 C83 1.955 . S
C475 C116 1.955 . S
C480 C259 1.956 . S
C505 C28 1.956 . S
C510 C149 1.955 . S
C535 C61 1.956 . S
C540 C182 1.955 . S
C565 C94 1.956 . S
C570 C215 1.955 . S
C595 C248 1.955 . S
C600 C127 1.956 . S
C625 C8 1.806 . S
C630 C173 1.806 . S
C655 C206 1.806 . S
C660 C41 1.806 . S
C685 C239 1.806 . S
C690 C74 1.806 . S
C715 C140 1.806 . S
C720 C107 1.806 . S
C745 N80 0.551 . S
C750 N14 0.551 . S
C775 N47 0.551 . S
C780 N113 0.551 . S
C805 N212 0.551 . S
C810 N146 0.551 . S
C835 N179 0.551 . S
C840 N245 0.551 . S
