# Generated by pormake.
# Topology ukd, (4)-cn, num edge types: 1
# Building blocks:
#     Node 0, Type 0, BuildingBlock: CEKHIL_clean_sbu_0, # of connection points: 4
#     Node 1, Type 0, BuildingBlock: CEKHIL_clean_sbu_0, # of connection points: 4
#     Node 2, Type 0, BuildingBlock: CEKHIL_clean_sbu_0, # of connection points: 4
#     Node 3, Type 0, BuildingBlock: CEKHIL_clean_sbu_0, # of connection points: 4
#     Node 4, Type 0, BuildingBlock: CEKHIL_clean_sbu_0, # of connection points: 4
#     Node 5, Type 0, BuildingBlock: CEKHIL_clean_sbu_0, # of connection points: 4
#     Node 6, Type 0, BuildingBlock: CEKHIL_clean_sbu_0, # of connection points: 4
#     Node 7, Type 0, BuildingBlock: CEKHIL_clean_sbu_0, # of connection points: 4
#     Node 8, Type 0, BuildingBlock: CEKHIL_clean_sbu_0, # of connection points: 4
#     Node 9, Type 0, BuildingBlock: CEKHIL_clean_sbu_0, # of connection points: 4
#     Node 10, Type 0, BuildingBlock: CEKHIL_clean_sbu_0, # of connection points: 4
#     Node 11, Type 0, BuildingBlock: CEKHIL_clean_sbu_0, # of connection points: 4
#     Node 12, Type 0, BuildingBlock: CEKHIL_clean_sbu_0, # of connection points: 4
#     Node 13, Type 0, BuildingBlock: CEKHIL_clean_sbu_0, # of connection points: 4
#     Node 14, Type 0, BuildingBlock: CEKHIL_clean_sbu_0, # of connection points: 4
#     Node 15, Type 0, BuildingBlock: CEKHIL_clean_sbu_0, # of connection points: 4
#     Node 16, Type 0, BuildingBlock: CEKHIL_clean_sbu_0, # of connection points: 4
#     Node 17, Type 0, BuildingBlock: CEKHIL_clean_sbu_0, # of connection points: 4
#     Node 18, Type 0, BuildingBlock: CEKHIL_clean_sbu_0, # of connection points: 4
#     Node 19, Type 0, BuildingBlock: CEKHIL_clean_sbu_0, # of connection points: 4
#     Node 20, Type 0, BuildingBlock: CEKHIL_clean_sbu_0, # of connection points: 4
#     Node 21, Type 0, BuildingBlock: CEKHIL_clean_sbu_0, # of connection points: 4
#     Node 22, Type 0, BuildingBlock: CEKHIL_clean_sbu_0, # of connection points: 4
#     Node 23, Type 0, BuildingBlock: CEKHIL_clean_sbu_0, # of connection points: 4
#     Node 24, Type 0, BuildingBlock: CEKHIL_clean_sbu_0, # of connection points: 4
#     Node 25, Type 0, BuildingBlock: CEKHIL_clean_sbu_0, # of connection points: 4
#     Node 26, Type 0, BuildingBlock: CEKHIL_clean_sbu_0, # of connection points: 4
#     Node 27, Type 0, BuildingBlock: CEKHIL_clean_sbu_0, # of connection points: 4
#     Node 28, Type 0, BuildingBlock: CEKHIL_clean_sbu_0, # of connection points: 4
#     Node 29, Type 0, BuildingBlock: CEKHIL_clean_sbu_0, # of connection points: 4
#     Node 30, Type 0, BuildingBlock: CEKHIL_clean_sbu_0, # of connection points: 4
#     Node 31, Type 0, BuildingBlock: CEKHIL_clean_sbu_0, # of connection points: 4
#     Edge 32, Type (0, 0), BuildingBlock: XIVTED_clean_linker_0, # of connection points: 2
#     Edge 33, Type (0, 0), BuildingBlock: XIVTED_clean_linker_0, # of connection points: 2
#     Edge 34, Type (0, 0), BuildingBlock: XIVTED_clean_linker_0, # of connection points: 2
#     Edge 35, Type (0, 0), BuildingBlock: XIVTED_clean_linker_0, # of connection points: 2
#     Edge 36, Type (0, 0), BuildingBlock: XIVTED_clean_linker_0, # of connection points: 2
#     Edge 37, Type (0, 0), BuildingBlock: XIVTED_clean_linker_0, # of connection points: 2
#     Edge 38, Type (0, 0), BuildingBlock: XIVTED_clean_linker_0, # of connection points: 2
#     Edge 39, Type (0, 0), BuildingBlock: XIVTED_clean_linker_0, # of connection points: 2
#     Edge 40, Type (0, 0), BuildingBlock: XIVTED_clean_linker_0, # of connection points: 2
#     Edge 41, Type (0, 0), BuildingBlock: XIVTED_clean_linker_0, # of connection points: 2
#     Edge 42, Type (0, 0), BuildingBlock: XIVTED_clean_linker_0, # of connection points: 2
#     Edge 43, Type (0, 0), BuildingBlock: XIVTED_clean_linker_0, # of connection points: 2
#     Edge 44, Type (0, 0), BuildingBlock: XIVTED_clean_linker_0, # of connection points: 2
#     Edge 45, Type (0, 0), BuildingBlock: XIVTED_clean_linker_0, # of connection points: 2
#     Edge 46, Type (0, 0), BuildingBlock: XIVTED_clean_linker_0, # of connection points: 2
#     Edge 47, Type (0, 0), BuildingBlock: XIVTED_clean_linker_0, # of connection points: 2
#     Edge 48, Type (0, 0), BuildingBlock: XIVTED_clean_linker_0, # of connection points: 2
#     Edge 49, Type (0, 0), BuildingBlock: XIVTED_clean_linker_0, # of connection points: 2
#     Edge 50, Type (0, 0), BuildingBlock: XIVTED_clean_linker_0, # of connection points: 2
#     Edge 51, Type (0, 0), BuildingBlock: XIVTED_clean_linker_0, # of connection points: 2
#     Edge 52, Type (0, 0), BuildingBlock: XIVTED_clean_linker_0, # of connection points: 2
#     Edge 53, Type (0, 0), BuildingBlock: XIVTED_clean_linker_0, # of connection points: 2
#     Edge 54, Type (0, 0), BuildingBlock: XIVTED_clean_linker_0, # of connection points: 2
#     Edge 55, Type (0, 0), BuildingBlock: XIVTED_clean_linker_0, # of connection points: 2
#     Edge 56, Type (0, 0), BuildingBlock: XIVTED_clean_linker_0, # of connection points: 2
#     Edge 57, Type (0, 0), BuildingBlock: XIVTED_clean_linker_0, # of connection points: 2
#     Edge 58, Type (0, 0), BuildingBlock: XIVTED_clean_linker_0, # of connection points: 2
#     Edge 59, Type (0, 0), BuildingBlock: XIVTED_clean_linker_0, # of connection points: 2
#     Edge 60, Type (0, 0), BuildingBlock: XIVTED_clean_linker_0, # of connection points: 2
#     Edge 61, Type (0, 0), BuildingBlock: XIVTED_clean_linker_0, # of connection points: 2
#     Edge 62, Type (0, 0), BuildingBlock: XIVTED_clean_linker_0, # of connection points: 2
#     Edge 63, Type (0, 0), BuildingBlock: XIVTED_clean_linker_0, # of connection points: 2
#     Edge 64, Type (0, 0), BuildingBlock: XIVTED_clean_linker_0, # of connection points: 2
#     Edge 65, Type (0, 0), BuildingBlock: XIVTED_clean_linker_0, # of connection points: 2
#     Edge 66, Type (0, 0), BuildingBlock: XIVTED_clean_linker_0, # of connection points: 2
#     Edge 67, Type (0, 0), BuildingBlock: XIVTED_clean_linker_0, # of connection points: 2
#     Edge 68, Type (0, 0), BuildingBlock: XIVTED_clean_linker_0, # of connection points: 2
#     Edge 69, Type (0, 0), BuildingBlock: XIVTED_clean_linker_0, # of connection points: 2
#     Edge 70, Type (0, 0), BuildingBlock: XIVTED_clean_linker_0, # of connection points: 2
#     Edge 71, Type (0, 0), BuildingBlock: XIVTED_clean_linker_0, # of connection points: 2
#     Edge 72, Type (0, 0), BuildingBlock: XIVTED_clean_linker_0, # of connection points: 2
#     Edge 73, Type (0, 0), BuildingBlock: XIVTED_clean_linker_0, # of connection points: 2
#     Edge 74, Type (0, 0), BuildingBlock: XIVTED_clean_linker_0, # of connection points: 2
#     Edge 75, Type (0, 0), BuildingBlock: XIVTED_clean_linker_0, # of connection points: 2
#     Edge 76, Type (0, 0), BuildingBlock: XIVTED_clean_linker_0, # of connection points: 2
#     Edge 77, Type (0, 0), BuildingBlock: XIVTED_clean_linker_0, # of connection points: 2
#     Edge 78, Type (0, 0), BuildingBlock: XIVTED_clean_linker_0, # of connection points: 2
#     Edge 79, Type (0, 0), BuildingBlock: XIVTED_clean_linker_0, # of connection points: 2
#     Edge 80, Type (0, 0), BuildingBlock: XIVTED_clean_linker_0, # of connection points: 2
#     Edge 81, Type (0, 0), BuildingBlock: XIVTED_clean_linker_0, # of connection points: 2
#     Edge 82, Type (0, 0), BuildingBlock: XIVTED_clean_linker_0, # of connection points: 2
#     Edge 83, Type (0, 0), BuildingBlock: XIVTED_clean_linker_0, # of connection points: 2
#     Edge 84, Type (0, 0), BuildingBlock: XIVTED_clean_linker_0, # of connection points: 2
#     Edge 85, Type (0, 0), BuildingBlock: XIVTED_clean_linker_0, # of connection points: 2
#     Edge 86, Type (0, 0), BuildingBlock: XIVTED_clean_linker_0, # of connection points: 2
#     Edge 87, Type (0, 0), BuildingBlock: XIVTED_clean_linker_0, # of connection points: 2
#     Edge 88, Type (0, 0), BuildingBlock: XIVTED_clean_linker_0, # of connection points: 2
#     Edge 89, Type (0, 0), BuildingBlock: XIVTED_clean_linker_0, # of connection points: 2
#     Edge 90, Type (0, 0), BuildingBlock: XIVTED_clean_linker_0, # of connection points: 2
#     Edge 91, Type (0, 0), BuildingBlock: XIVTED_clean_linker_0, # of connection points: 2
#     Edge 92, Type (0, 0), BuildingBlock: XIVTED_clean_linker_0, # of connection points: 2
#     Edge 93, Type (0, 0), BuildingBlock: XIVTED_clean_linker_0, # of connection points: 2
#     Edge 94, Type (0, 0), BuildingBlock: XIVTED_clean_linker_0, # of connection points: 2
#     Edge 95, Type (0, 0), BuildingBlock: XIVTED_clean_linker_0, # of connection points: 2
# Relax obj value: 0.048
# Max RMSD: 0.075
# Mean RMSD: 0.075
data_MOF--net-ukd--node1-CEKHIL_clean_sbu_0--edge1-XIVTED_clean_linker_0
_symmetry_space_group_name_H-M    P1
_symmetry_Int_Tables_number       1
_symmetry_cell_setting            triclinic
loop_
_symmetry_equiv_pos_as_xyz
'x, y, z'
_cell_length_a     45.389306
_cell_length_b     45.386625
_cell_length_c     70.477545
_cell_angle_alpha  89.999609
_cell_angle_beta   89.999897
_cell_angle_gamma 90.000014
loop_
_atom_site_label
_atom_site_type_symbol
_atom_site_fract_x
_atom_site_fract_y
_atom_site_fract_z
_atom_type_partial_charge
Co0 Co 0.21023 0.16876 0.33338 0.0
O1 O 0.23029 0.13193 0.32934 0.0
O2 O 0.23009 0.1568 0.35639 0.0
C3 C 0.2255 0.19073 0.30644 0.0
O4 O 0.19334 0.20782 0.34262 0.0
Co5 Co 0.1612 0.1898 0.30584 0.0
O6 O 0.16628 0.22797 0.31927 0.0
C7 C 0.14763 0.14402 0.33426 0.0
C8 C 0.23909 0.134 0.34681 0.0
C9 C 0.17871 0.22944 0.33547 0.0
O10 O 0.17337 0.14744 0.34161 0.0
O11 O 0.13936 0.15717 0.31908 0.0
O12 O 0.24253 0.19001 0.32125 0.0
O13 O 0.20135 0.17581 0.3078 0.0
Co14 Co 0.08142 0.95921 0.58425 0.0
O15 O 0.11837 0.97914 0.58033 0.0
O16 O 0.09331 0.97896 0.6073 0.0
C17 C 0.05975 0.97465 0.55725 0.0
O18 O 0.04224 0.94256 0.59344 0.0
Co19 Co 0.06002 0.91036 0.55674 0.0
O20 O 0.02189 0.91537 0.57023 0.0
C21 C 0.10593 0.89656 0.58503 0.0
C22 C 0.1162 0.98791 0.59781 0.0
C23 C 0.02053 0.92793 0.58639 0.0
O24 O 0.10255 0.92225 0.59247 0.0
O25 O 0.09272 0.88843 0.56985 0.0
O26 O 0.06042 0.99163 0.57209 0.0
O27 O 0.07446 0.95038 0.55864 0.0
Co28 Co 0.28969 0.8304 0.83404 0.0
O29 O 0.26954 0.86723 0.83018 0.0
O30 O 0.26959 0.84192 0.85706 0.0
C31 C 0.27474 0.80885 0.80691 0.0
O32 O 0.30656 0.79124 0.84312 0.0
Co33 Co 0.33906 0.80981 0.80666 0.0
O34 O 0.3339 0.77141 0.8198 0.0
C35 C 0.35214 0.8554 0.8353 0.0
C36 C 0.26059 0.86485 0.84761 0.0
C37 C 0.32127 0.7697 0.83592 0.0
O38 O 0.32636 0.85175 0.84254 0.0
O39 O 0.36063 0.84242 0.82011 0.0
O40 O 0.25759 0.80927 0.82167 0.0
O41 O 0.29886 0.82378 0.80845 0.0
Co42 Co 0.41694 0.04017 0.08344 0.0
O43 O 0.38015 0.02009 0.07937 0.0
O44 O 0.40497 0.02029 0.10644 0.0
C45 C 0.43896 0.02486 0.05656 0.0
O46 O 0.45599 0.05704 0.09271 0.0
Co47 Co 0.43797 0.08924 0.056 0.0
O48 O 0.47613 0.08426 0.06944 0.0
C49 C 0.39204 0.10271 0.08433 0.0
C50 C 0.38222 0.01124 0.09683 0.0
C51 C 0.47762 0.07172 0.0856 0.0
O52 O 0.39555 0.07698 0.09166 0.0
O53 O 0.40522 0.11104 0.06917 0.0
O54 O 0.43819 0.00789 0.0714 0.0
O55 O 0.42404 0.04903 0.05784 0.0
Co56 Co 0.21095 0.83133 0.16584 0.0
O57 O 0.2311 0.86803 0.17004 0.0
O58 O 0.23096 0.8434 0.1429 0.0
C59 C 0.22604 0.80907 0.19269 0.0
O60 O 0.19394 0.79239 0.15645 0.0
Co61 Co 0.16159 0.81055 0.19312 0.0
O62 O 0.16653 0.77238 0.17969 0.0
C63 C 0.14847 0.85643 0.16473 0.0
C64 C 0.23996 0.8661 0.15258 0.0
C65 C 0.17911 0.77084 0.16354 0.0
O66 O 0.17431 0.8529 0.15757 0.0
O67 O 0.13988 0.84323 0.17982 0.0
O68 O 0.24308 0.80988 0.17788 0.0
O69 O 0.20195 0.82413 0.19141 0.0
Co70 Co 0.41828 0.95997 0.41363 0.0
O71 O 0.38121 0.97965 0.41756 0.0
O72 O 0.40628 0.9797 0.39059 0.0
C73 C 0.43985 0.97554 0.44062 0.0
O74 O 0.45759 0.94359 0.40446 0.0
Co75 Co 0.4399 0.91121 0.44111 0.0
O76 O 0.47807 0.91668 0.42775 0.0
C77 C 0.39427 0.8971 0.4127 0.0
C78 C 0.38335 0.98851 0.4001 0.0
C79 C 0.47941 0.92922 0.41159 0.0
O80 O 0.3974 0.92289 0.40537 0.0
O81 O 0.40755 0.88896 0.42786 0.0
O82 O 0.43905 0.9925 0.42577 0.0
O83 O 0.42528 0.95117 0.43925 0.0
Co84 Co 0.28967 0.16717 0.66524 0.0
O85 O 0.26958 0.13033 0.66923 0.0
O86 O 0.27003 0.15517 0.64218 0.0
C87 C 0.27413 0.18915 0.69211 0.0
O88 O 0.30652 0.20622 0.65596 0.0
Co89 Co 0.33845 0.18858 0.69277 0.0
O90 O 0.33369 0.22663 0.67915 0.0
C91 C 0.35228 0.1425 0.66462 0.0
C92 C 0.26093 0.13239 0.65172 0.0
C93 C 0.32122 0.22792 0.66297 0.0
O94 O 0.3266 0.14585 0.65718 0.0
O95 O 0.36044 0.15582 0.67976 0.0
O96 O 0.25726 0.18839 0.67722 0.0
O97 O 0.29836 0.17432 0.69086 0.0
Co98 Co 0.08085 0.03795 0.91491 0.0
O99 O 0.11775 0.01797 0.91889 0.0
O100 O 0.09275 0.01811 0.89189 0.0
C101 C 0.05899 0.02265 0.94188 0.0
O102 O 0.04173 0.05465 0.90567 0.0
Co103 Co 0.05959 0.08698 0.94231 0.0
O104 O 0.02143 0.08188 0.92887 0.0
C105 C 0.10527 0.10069 0.91386 0.0
C106 C 0.11561 0.00915 0.90142 0.0
C107 C 0.02004 0.0693 0.91273 0.0
O108 O 0.10204 0.07485 0.90662 0.0
O109 O 0.09202 0.10901 0.92899 0.0
O110 O 0.05975 0.00561 0.92707 0.0
O111 O 0.07381 0.04687 0.94051 0.0
Co112 Co 0.78845 0.83094 0.66405 0.0
O113 O 0.76925 0.86813 0.66838 0.0
O114 O 0.76832 0.84346 0.64127 0.0
C115 C 0.77326 0.80919 0.69107 0.0
O116 O 0.80427 0.79161 0.6545 0.0
Co117 Co 0.83758 0.80851 0.69098 0.0
O118 O 0.83149 0.77059 0.67745 0.0
C119 C 0.85152 0.85433 0.66266 0.0
C120 C 0.75997 0.86634 0.651 0.0
C121 C 0.81863 0.76959 0.66138 0.0
O122 O 0.82554 0.85156 0.65555 0.0
O123 O 0.85986 0.8408 0.67768 0.0
O124 O 0.75599 0.81031 0.67639 0.0
O125 O 0.79774 0.82353 0.68955 0.0
Co126 Co 0.91927 0.04177 0.41494 0.0
O127 O 0.88222 0.02208 0.41896 0.0
O128 O 0.90732 0.02173 0.392 0.0
C129 C 0.94081 0.02657 0.44203 0.0
O130 O 0.95858 0.05808 0.4057 0.0
Co131 Co 0.94084 0.09088 0.44219 0.0
O132 O 0.97904 0.08519 0.42891 0.0
C133 C 0.89509 0.10455 0.41377 0.0
C134 C 0.8844 0.01299 0.40155 0.0
C135 C 0.9804 0.07249 0.41279 0.0
O136 O 0.89834 0.07873 0.40649 0.0
O137 O 0.90832 0.11283 0.42891 0.0
O138 O 0.94007 0.00942 0.42728 0.0
O139 O 0.92622 0.0509 0.44052 0.0
Co140 Co 0.71007 0.16745 0.16424 0.0
O141 O 0.72799 0.12931 0.16762 0.0
O142 O 0.73095 0.15638 0.14147 0.0
C143 C 0.72485 0.18716 0.192 0.0
O144 O 0.69551 0.20772 0.15558 0.0
Co145 Co 0.66067 0.1895 0.19116 0.0
O146 O 0.66709 0.22789 0.17824 0.0
C147 C 0.64685 0.1451 0.16185 0.0
C148 C 0.73809 0.13245 0.1505 0.0
C149 C 0.68081 0.22949 0.16249 0.0
O150 O 0.67278 0.14829 0.15474 0.0
O151 O 0.63862 0.15771 0.17723 0.0
O152 O 0.74259 0.1864 0.17755 0.0
O153 O 0.70012 0.17347 0.18982 0.0
Co154 Co 0.58083 0.96146 0.91421 0.0
O155 O 0.61779 0.98123 0.91833 0.0
O156 O 0.59305 0.98122 0.89123 0.0
C157 C 0.55888 0.97696 0.94107 0.0
O158 O 0.54169 0.94496 0.90485 0.0
Co159 Co 0.5591 0.9126 0.94157 0.0
O160 O 0.52106 0.91794 0.92804 0.0
C161 C 0.60499 0.89863 0.91331 0.0
C162 C 0.61584 0.99008 0.90086 0.0
C163 C 0.51985 0.93049 0.91187 0.0
O164 O 0.60191 0.92445 0.90603 0.0
O165 O 0.59156 0.89039 0.9284 0.0
O166 O 0.55982 0.99393 0.92624 0.0
O167 O 0.57355 0.95263 0.93979 0.0
Co168 Co 0.78993 0.17013 0.83508 0.0
O169 O 0.77009 0.13321 0.83094 0.0
O170 O 0.76961 0.15823 0.85792 0.0
C171 C 0.77517 0.19176 0.80793 0.0
O172 O 0.80641 0.20929 0.84447 0.0
Co173 Co 0.83947 0.19149 0.8081 0.0
O174 O 0.83414 0.22963 0.82152 0.0
C175 C 0.85247 0.14549 0.83649 0.0
C176 C 0.76089 0.13536 0.84832 0.0
C177 C 0.82121 0.23099 0.83756 0.0
O178 O 0.82663 0.14893 0.84366 0.0
O179 O 0.86103 0.15872 0.82141 0.0
O180 O 0.75785 0.19116 0.82261 0.0
O181 O 0.79941 0.17706 0.80957 0.0
Co182 Co 0.58012 0.03913 0.58367 0.0
O183 O 0.61717 0.01969 0.5793 0.0
O184 O 0.59266 0.01907 0.60648 0.0
C185 C 0.55811 0.0239 0.55675 0.0
O186 O 0.54091 0.05526 0.59323 0.0
Co187 Co 0.55802 0.08828 0.55665 0.0
O188 O 0.52003 0.08222 0.5701 0.0
C189 C 0.60397 0.10207 0.58489 0.0
C190 C 0.61544 0.01054 0.59672 0.0
C191 C 0.51893 0.06954 0.58623 0.0
O192 O 0.60103 0.07613 0.59203 0.0
O193 O 0.59044 0.11047 0.56988 0.0
O194 O 0.55923 0.00672 0.57148 0.0
O195 O 0.57264 0.04829 0.55816 0.0
Co196 Co 0.71196 0.83166 0.33529 0.0
O197 O 0.73173 0.86865 0.33129 0.0
O198 O 0.73171 0.84376 0.35833 0.0
C199 C 0.7275 0.80995 0.30834 0.0
O200 O 0.69535 0.79242 0.34448 0.0
Co201 Co 0.66318 0.81032 0.3077 0.0
O202 O 0.66856 0.77213 0.32105 0.0
C203 C 0.64921 0.85599 0.33611 0.0
C204 C 0.74056 0.86663 0.34875 0.0
C205 C 0.68094 0.77069 0.33726 0.0
O206 O 0.67494 0.85271 0.34349 0.0
O207 O 0.64106 0.84279 0.32092 0.0
O208 O 0.74445 0.81071 0.32319 0.0
O209 O 0.70321 0.82464 0.30968 0.0
Co210 Co 0.91978 0.96118 0.08564 0.0
O211 O 0.88186 0.97951 0.08215 0.0
O212 O 0.90851 0.98171 0.1085 0.0
C213 C 0.94004 0.97635 0.05813 0.0
O214 O 0.95977 0.9461 0.09447 0.0
Co215 Co 0.94182 0.91209 0.05853 0.0
O216 O 0.98007 0.91798 0.07171 0.0
C217 C 0.8969 0.89807 0.08746 0.0
C218 C 0.8848 0.98925 0.09937 0.0
C219 C 0.98153 0.93136 0.08759 0.0
O220 O 0.90013 0.9239 0.09472 0.0
O221 O 0.90974 0.88995 0.07214 0.0
O222 O 0.93921 0.99379 0.07273 0.0
O223 O 0.92612 0.95167 0.06002 0.0
Co224 Co 0.71082 0.66928 0.83451 0.0
O225 O 0.73074 0.63246 0.83019 0.0
O226 O 0.73099 0.65704 0.85735 0.0
C227 C 0.72582 0.69142 0.80758 0.0
O228 O 0.69418 0.70828 0.84405 0.0
Co229 Co 0.66146 0.69079 0.80743 0.0
O230 O 0.66673 0.72879 0.82102 0.0
C231 C 0.64821 0.64462 0.83565 0.0
C232 C 0.73983 0.63434 0.84761 0.0
C233 C 0.67945 0.73003 0.83713 0.0
O234 O 0.67407 0.64792 0.84285 0.0
O235 O 0.63972 0.65802 0.82062 0.0
O236 O 0.74298 0.69055 0.82232 0.0
O237 O 0.70161 0.6766 0.80899 0.0
Co238 Co 0.58301 0.45947 0.08344 0.0
O239 O 0.61976 0.47962 0.07936 0.0
O240 O 0.59461 0.47996 0.1063 0.0
C241 C 0.56125 0.47402 0.05629 0.0
O242 O 0.54393 0.44263 0.09269 0.0
Co243 Co 0.56255 0.40963 0.0564 0.0
O244 O 0.5242 0.41472 0.06961 0.0
C245 C 0.60809 0.39706 0.08514 0.0
C246 C 0.61745 0.48887 0.09672 0.0
C247 C 0.52248 0.42763 0.08564 0.0
O248 O 0.60445 0.42298 0.09215 0.0
O249 O 0.59513 0.38826 0.07002 0.0
O250 O 0.56176 0.49135 0.07096 0.0
O251 O 0.57626 0.44995 0.05789 0.0
Co252 Co 0.78732 0.33117 0.33369 0.0
O253 O 0.76704 0.36793 0.32978 0.0
O254 O 0.7674 0.34284 0.35674 0.0
C255 C 0.7723 0.30927 0.30667 0.0
O256 O 0.80443 0.29214 0.34283 0.0
Co257 Co 0.8366 0.31063 0.30618 0.0
O258 O 0.83181 0.27234 0.31951 0.0
C259 C 0.84976 0.35632 0.33473 0.0
C260 C 0.75832 0.3657 0.34726 0.0
C261 C 0.81929 0.27067 0.33567 0.0
O262 O 0.82401 0.35268 0.34201 0.0
O263 O 0.8582 0.34331 0.31954 0.0
O264 O 0.7552 0.3098 0.32145 0.0
O265 O 0.79634 0.32435 0.3081 0.0
Co266 Co 0.91783 0.53932 0.58373 0.0
O267 O 0.88109 0.51923 0.57955 0.0
O268 O 0.90573 0.51932 0.60668 0.0
C269 C 0.93993 0.52409 0.55686 0.0
O270 O 0.95685 0.55623 0.59308 0.0
Co271 Co 0.93883 0.58849 0.55636 0.0
O272 O 0.97702 0.58327 0.56972 0.0
C273 C 0.89286 0.60184 0.58467 0.0
C274 C 0.88305 0.5103 0.59699 0.0
C275 C 0.97851 0.57081 0.5859 0.0
O276 O 0.89635 0.57607 0.59194 0.0
O277 O 0.90611 0.61028 0.56956 0.0
O278 O 0.93916 0.5071 0.57168 0.0
O279 O 0.92498 0.54825 0.55815 0.0
Co280 Co 0.71006 0.33062 0.66454 0.0
O281 O 0.72996 0.36743 0.66895 0.0
O282 O 0.73057 0.34279 0.64181 0.0
C283 C 0.72463 0.3086 0.6916 0.0
O284 O 0.69351 0.29162 0.65491 0.0
Co285 Co 0.66033 0.30908 0.69134 0.0
O286 O 0.66569 0.2711 0.67774 0.0
C287 C 0.64755 0.35538 0.6631 0.0
C288 C 0.73928 0.36551 0.65158 0.0
C289 C 0.67864 0.26988 0.66171 0.0
O290 O 0.67344 0.352 0.65598 0.0
O291 O 0.6389 0.342 0.67811 0.0
O292 O 0.74202 0.30935 0.67697 0.0
O293 O 0.70044 0.32339 0.68999 0.0
Co294 Co 0.92 0.46194 0.91517 0.0
O295 O 0.88315 0.48175 0.91962 0.0
O296 O 0.90751 0.48208 0.89238 0.0
C297 C 0.94237 0.47696 0.94203 0.0
O298 O 0.95896 0.44541 0.9055 0.0
Co299 Co 0.94181 0.4126 0.94216 0.0
O300 O 0.9797 0.41802 0.92847 0.0
C301 C 0.89558 0.39921 0.91403 0.0
C302 C 0.88485 0.49082 0.90219 0.0
C303 C 0.98079 0.43075 0.91236 0.0
O304 O 0.89869 0.42512 0.90688 0.0
O305 O 0.90911 0.39072 0.92902 0.0
O306 O 0.94129 0.49417 0.92731 0.0
O307 O 0.92757 0.45273 0.94066 0.0
Co308 Co 0.78922 0.66872 0.16536 0.0
O309 O 0.76899 0.63206 0.16958 0.0
O310 O 0.76902 0.65675 0.14246 0.0
C311 C 0.77436 0.6909 0.19229 0.0
O312 O 0.80626 0.70764 0.15596 0.0
Co313 Co 0.83876 0.68939 0.19255 0.0
O314 O 0.83382 0.72759 0.17915 0.0
C315 C 0.85159 0.64341 0.16416 0.0
C316 C 0.76001 0.63406 0.15215 0.0
C317 C 0.82116 0.72916 0.16303 0.0
O318 O 0.82577 0.64707 0.15698 0.0
O319 O 0.86023 0.65655 0.17925 0.0
O320 O 0.75722 0.69022 0.17754 0.0
O321 O 0.79841 0.67581 0.19091 0.0
Co322 Co 0.58154 0.54087 0.41558 0.0
O323 O 0.61853 0.52089 0.41932 0.0
O324 O 0.59317 0.52116 0.39247 0.0
C325 C 0.56007 0.52541 0.44264 0.0
O326 O 0.54227 0.55749 0.40654 0.0
Co327 Co 0.56026 0.58967 0.44316 0.0
O328 O 0.52197 0.58436 0.42991 0.0
C329 C 0.60597 0.60357 0.41475 0.0
C330 C 0.61613 0.51212 0.40186 0.0
C331 C 0.52052 0.57188 0.41374 0.0
O332 O 0.60261 0.57788 0.40731 0.0
O333 O 0.59282 0.61167 0.42996 0.0
O334 O 0.56065 0.50844 0.4278 0.0
O335 O 0.57478 0.54968 0.44122 0.0
Co336 Co 0.29001 0.33148 0.16398 0.0
O337 O 0.27219 0.36964 0.16734 0.0
O338 O 0.26926 0.34263 0.14117 0.0
C339 C 0.27499 0.31183 0.19171 0.0
O340 O 0.30458 0.29114 0.1554 0.0
Co341 Co 0.33923 0.30953 0.19108 0.0
O342 O 0.33255 0.27106 0.17832 0.0
C343 C 0.35328 0.35377 0.16172 0.0
C344 C 0.26216 0.36657 0.15021 0.0
C345 C 0.31906 0.26937 0.16249 0.0
O346 O 0.32738 0.35057 0.15457 0.0
O347 O 0.36144 0.3412 0.17713 0.0
O348 O 0.25737 0.31262 0.1772 0.0
O349 O 0.29977 0.32548 0.18959 0.0
Co350 Co 0.41904 0.53933 0.91441 0.0
O351 O 0.382 0.51966 0.91847 0.0
O352 O 0.40693 0.51945 0.89145 0.0
C353 C 0.44075 0.52399 0.94141 0.0
O354 O 0.45827 0.55567 0.90509 0.0
Co355 Co 0.44087 0.58826 0.94173 0.0
O356 O 0.47891 0.58281 0.92822 0.0
C357 C 0.39493 0.60213 0.91346 0.0
C358 C 0.38405 0.51069 0.90103 0.0
C359 C 0.48012 0.57016 0.91208 0.0
O360 O 0.3981 0.57637 0.9061 0.0
O361 O 0.40826 0.61029 0.92861 0.0
O362 O 0.43991 0.50688 0.92663 0.0
O363 O 0.42617 0.54833 0.93996 0.0
Co364 Co 0.20917 0.66774 0.66463 0.0
O365 O 0.22863 0.63055 0.6685 0.0
O366 O 0.22899 0.6558 0.6416 0.0
C367 C 0.22463 0.68902 0.69175 0.0
O368 O 0.19303 0.70721 0.65555 0.0
Co369 Co 0.16039 0.68946 0.69213 0.0
O370 O 0.16627 0.72769 0.67892 0.0
C371 C 0.14624 0.64397 0.66361 0.0
C372 C 0.23763 0.63276 0.65107 0.0
C373 C 0.17882 0.72908 0.66276 0.0
O374 O 0.172 0.64711 0.65623 0.0
O375 O 0.13818 0.65714 0.67883 0.0
O376 O 0.24173 0.68828 0.67697 0.0
O377 O 0.20022 0.67458 0.69022 0.0
Co378 Co 0.07964 0.45914 0.41391 0.0
O379 O 0.11685 0.4784 0.41808 0.0
O380 O 0.09218 0.47877 0.39096 0.0
C381 C 0.05788 0.47488 0.44078 0.0
O382 O 0.04029 0.44319 0.40449 0.0
Co383 Co 0.05714 0.41055 0.44121 0.0
O384 O 0.01922 0.4164 0.42762 0.0
C385 C 0.10315 0.3961 0.41314 0.0
C386 C 0.11507 0.4873 0.40062 0.0
C387 C 0.01824 0.429 0.41146 0.0
O388 O 0.10027 0.42187 0.40576 0.0
O389 O 0.0896 0.38808 0.42823 0.0
O390 O 0.05903 0.49187 0.42596 0.0
O391 O 0.07221 0.45036 0.43947 0.0
Co392 Co 0.28958 0.66668 0.33477 0.0
O393 O 0.27 0.62962 0.3307 0.0
O394 O 0.26996 0.65439 0.35779 0.0
C395 C 0.27386 0.68851 0.30792 0.0
O396 O 0.30595 0.70593 0.34406 0.0
Co397 Co 0.33819 0.68853 0.30724 0.0
O398 O 0.33279 0.72655 0.32078 0.0
C399 C 0.35251 0.64281 0.33554 0.0
C400 C 0.26118 0.63154 0.34818 0.0
C401 C 0.32033 0.72778 0.33697 0.0
O402 O 0.32674 0.64583 0.34291 0.0
O403 O 0.36056 0.65615 0.32038 0.0
O404 O 0.25695 0.68751 0.32278 0.0
O405 O 0.29824 0.67394 0.30917 0.0
Co406 Co 0.08091 0.53872 0.08595 0.0
O407 O 0.1189 0.52053 0.08256 0.0
O408 O 0.09207 0.51818 0.10883 0.0
C409 C 0.06094 0.52349 0.05837 0.0
O410 O 0.04077 0.55366 0.09463 0.0
Co411 Co 0.05897 0.58776 0.05875 0.0
O412 O 0.02061 0.58167 0.07176 0.0
C413 C 0.10358 0.6019 0.08786 0.0
C414 C 0.11586 0.51072 0.09975 0.0
C415 C 0.01903 0.56829 0.08764 0.0
O416 O 0.10036 0.57606 0.09511 0.0
O417 O 0.09086 0.60998 0.07249 0.0
O418 O 0.0617 0.50606 0.07297 0.0
O419 O 0.07476 0.54822 0.06031 0.0
Co420 Co 0.21076 0.33007 0.83495 0.0
O421 O 0.23076 0.3669 0.83076 0.0
O422 O 0.23066 0.34226 0.85789 0.0
C423 C 0.22601 0.30793 0.80808 0.0
O424 O 0.19402 0.29106 0.84441 0.0
Co425 Co 0.16164 0.30861 0.80771 0.0
O426 O 0.16673 0.27058 0.8213 0.0
C427 C 0.14816 0.35479 0.83586 0.0
C428 C 0.23959 0.365 0.84823 0.0
C429 C 0.17934 0.26932 0.83744 0.0
O430 O 0.17395 0.35146 0.84314 0.0
O431 O 0.13976 0.34138 0.8208 0.0
O432 O 0.24304 0.30879 0.82289 0.0
O433 O 0.20179 0.32278 0.80939 0.0
Co434 Co 0.41799 0.45964 0.58454 0.0
O435 O 0.38076 0.479 0.58052 0.0
O436 O 0.40595 0.47972 0.60744 0.0
C437 C 0.43942 0.47476 0.55739 0.0
O438 O 0.45743 0.4437 0.59379 0.0
Co439 Co 0.43987 0.41045 0.55745 0.0
O440 O 0.47803 0.41642 0.57073 0.0
C441 C 0.39452 0.39658 0.5861 0.0
C442 C 0.38291 0.48818 0.59791 0.0
C443 C 0.47931 0.4293 0.58678 0.0
O444 O 0.39742 0.42258 0.59317 0.0
O445 O 0.40781 0.38821 0.57099 0.0
O446 O 0.43851 0.49205 0.57207 0.0
O447 O 0.42499 0.45034 0.55899 0.0
H448 H 0.12252 0.3424 0.42606 0.0
H449 H 0.16195 0.2841 0.32315 0.0
H450 H 0.12406 0.3987 0.37667 0.0
H451 H 0.18449 0.2361 0.374 0.0
H452 H 0.14907 0.3267 0.3426 0.0
H453 H 0.14639 0.30362 0.40756 0.0
C454 C 0.12814 0.34675 0.41139 0.0
C455 C 0.12097 0.37381 0.40288 0.0
C456 C 0.15715 0.30698 0.34951 0.0
C457 C 0.14805 0.32932 0.38157 0.0
C458 C 0.16443 0.28259 0.33841 0.0
C459 C 0.17407 0.25637 0.34696 0.0
C460 C 0.15905 0.30505 0.36936 0.0
C461 C 0.1771 0.25582 0.3668 0.0
C462 C 0.14184 0.32459 0.40085 0.0
C463 C 0.12903 0.3782 0.38384 0.0
N464 N 0.16922 0.27966 0.37734 0.0
N465 N 0.14176 0.35606 0.37377 0.0
H466 H 0.01377 0.93573 0.62476 0.0
H467 H 0.8483 0.87475 0.62608 0.0
H468 H 0.96598 0.90994 0.57446 0.0
H469 H 0.90547 0.87378 0.67507 0.0
H470 H 0.88763 0.89804 0.60774 0.0
H471 H 0.97054 0.92327 0.64394 0.0
C472 C 0.9941 0.92782 0.61771 0.0
C473 C 0.99364 0.92357 0.59798 0.0
C474 C 0.89142 0.89297 0.62256 0.0
C475 C 0.94413 0.90939 0.61985 0.0
C476 C 0.86894 0.8798 0.63309 0.0
C477 C 0.87366 0.87196 0.65213 0.0
C478 C 0.91876 0.89862 0.63114 0.0
C479 C 0.90092 0.8791 0.66039 0.0
C480 C 0.96949 0.92061 0.62869 0.0
C481 C 0.96748 0.91324 0.58964 0.0
N482 N 0.92248 0.89189 0.64982 0.0
N483 N 0.94384 0.9064 0.60062 0.0
H484 H 0.37436 0.65527 0.9265 0.0
H485 H 0.33876 0.71534 0.82344 0.0
H486 H 0.37535 0.59992 0.87667 0.0
H487 H 0.31416 0.76227 0.8743 0.0
H488 H 0.35103 0.67239 0.84274 0.0
H489 H 0.35091 0.69419 0.90792 0.0
C490 C 0.36937 0.65115 0.91171 0.0
C491 C 0.37714 0.62433 0.90311 0.0
C492 C 0.34263 0.69196 0.84967 0.0
C493 C 0.35057 0.66901 0.88169 0.0
C494 C 0.33571 0.71655 0.83866 0.0
C495 C 0.32567 0.74258 0.84727 0.0
C496 C 0.33995 0.69347 0.8695 0.0
C497 C 0.32189 0.74272 0.86705 0.0
C498 C 0.35592 0.67339 0.90111 0.0
C499 C 0.36988 0.62023 0.88391 0.0
N500 N 0.32942 0.71868 0.87752 0.0
N501 N 0.3574 0.64247 0.8738 0.0
H502 H 0.48492 0.06333 0.12389 0.0
H503 H 0.64962 0.12649 0.12484 0.0
H504 H 0.53185 0.09037 0.07353 0.0
H505 H 0.59334 0.12458 0.17424 0.0
H506 H 0.61032 0.10328 0.10641 0.0
H507 H 0.52827 0.07585 0.14293 0.0
C508 C 0.50443 0.07154 0.1168 0.0
C509 C 0.5046 0.07612 0.09709 0.0
C510 C 0.60671 0.10772 0.12133 0.0
C511 C 0.55425 0.09041 0.1188 0.0
C512 C 0.62918 0.12086 0.1319 0.0
C513 C 0.62469 0.12784 0.1511 0.0
C514 C 0.57964 0.10126 0.13004 0.0
C515 C 0.59769 0.11995 0.15944 0.0
C516 C 0.52911 0.07879 0.12769 0.0
C517 C 0.53056 0.08682 0.0887 0.0
N518 N 0.57616 0.10722 0.14884 0.0
N519 N 0.55427 0.09371 0.0996 0.0
H520 H 0.18655 0.76373 0.12515 0.0
H521 H 0.12318 0.59909 0.12465 0.0
H522 H 0.16085 0.71655 0.17571 0.0
H523 H 0.12365 0.65552 0.07531 0.0
H524 H 0.14693 0.63831 0.14285 0.0
H525 H 0.17341 0.72048 0.10616 0.0
C526 C 0.17853 0.74418 0.13229 0.0
C527 C 0.17449 0.7439 0.15205 0.0
C528 C 0.14204 0.64197 0.12799 0.0
C529 C 0.1595 0.6944 0.1304 0.0
C530 C 0.12859 0.61955 0.11755 0.0
C531 C 0.12106 0.62409 0.09845 0.0
C532 C 0.14828 0.66907 0.11924 0.0
C533 C 0.12871 0.65112 0.09005 0.0
C534 C 0.17092 0.71957 0.12143 0.0
C535 C 0.16399 0.71791 0.16051 0.0
N536 N 0.14175 0.67262 0.10052 0.0
N537 N 0.15675 0.69427 0.14964 0.0
H538 H 0.48647 0.93711 0.37323 0.0
H539 H 0.65206 0.87643 0.3727 0.0
H540 H 0.534 0.91177 0.42373 0.0
H541 H 0.59559 0.87586 0.32337 0.0
H542 H 0.6126 0.89986 0.39083 0.0
H543 H 0.52998 0.92498 0.35423 0.0
C544 C 0.50614 0.92937 0.38036 0.0
C545 C 0.50645 0.92513 0.4001 0.0
C546 C 0.60899 0.89486 0.37598 0.0
C547 C 0.55627 0.91132 0.37843 0.0
C548 C 0.63156 0.8816 0.36557 0.0
C549 C 0.62706 0.8738 0.3465 0.0
C550 C 0.58179 0.90062 0.36725 0.0
C551 C 0.59996 0.88113 0.33809 0.0
C552 C 0.53091 0.92235 0.36949 0.0
C553 C 0.53261 0.91503 0.40854 0.0
N554 N 0.5783 0.89397 0.34854 0.0
N555 N 0.5564 0.90836 0.39766 0.0
H556 H 0.31334 0.23451 0.62458 0.0
H557 H 0.37467 0.39986 0.62281 0.0
H558 H 0.33956 0.28244 0.67474 0.0
H559 H 0.37488 0.3426 0.57386 0.0
H560 H 0.35161 0.36059 0.64132 0.0
H561 H 0.32585 0.27761 0.60529 0.0
C562 C 0.32136 0.25419 0.63158 0.0
C563 C 0.3257 0.25473 0.65131 0.0
C564 C 0.35647 0.35676 0.62648 0.0
C565 C 0.33994 0.30409 0.62931 0.0
C566 C 0.3695 0.37922 0.61585 0.0
C567 C 0.37705 0.37447 0.59676 0.0
C568 C 0.35065 0.32942 0.61794 0.0
C569 C 0.36977 0.34719 0.58857 0.0
C570 C 0.32861 0.27872 0.62054 0.0
C571 C 0.33619 0.28088 0.65956 0.0
N572 N 0.35712 0.32566 0.59923 0.0
N573 N 0.34304 0.30445 0.64852 0.0
H574 H 0.01329 0.0615 0.87435 0.0
H575 H 0.84874 0.12487 0.873 0.0
H576 H 0.96557 0.08747 0.92464 0.0
H577 H 0.90603 0.12501 0.82406 0.0
H578 H 0.88754 0.10066 0.89131 0.0
H579 H 0.97022 0.07438 0.85515 0.0
C580 C 0.99365 0.06952 0.8814 0.0
C581 C 0.99318 0.07373 0.90113 0.0
C582 C 0.89147 0.10575 0.87651 0.0
C583 C 0.94387 0.08842 0.87923 0.0
C584 C 0.86929 0.11946 0.866 0.0
C585 C 0.87422 0.12735 0.84699 0.0
C586 C 0.91871 0.09963 0.86793 0.0
C587 C 0.90134 0.11969 0.83873 0.0
C588 C 0.96914 0.07698 0.87041 0.0
C589 C 0.96708 0.08422 0.90946 0.0
N590 N 0.92261 0.10641 0.84927 0.0
N591 N 0.94354 0.09131 0.89846 0.0
H592 H 0.87153 0.59793 0.621 0.0
H593 H 0.81078 0.76345 0.62295 0.0
H594 H 0.87309 0.65576 0.57234 0.0
H595 H 0.8355 0.71458 0.67304 0.0
H596 H 0.82297 0.72038 0.60354 0.0
H597 H 0.84755 0.6368 0.63934 0.0
C598 C 0.86648 0.61862 0.61406 0.0
C599 C 0.87473 0.62367 0.59512 0.0
C600 C 0.82543 0.71905 0.6188 0.0
C601 C 0.84726 0.66826 0.61612 0.0
C602 C 0.81836 0.74357 0.62991 0.0
C603 C 0.82246 0.74276 0.64965 0.0
C604 C 0.83634 0.69346 0.62752 0.0
C605 C 0.83237 0.71635 0.65786 0.0
C606 C 0.85289 0.64084 0.62459 0.0
C607 C 0.86748 0.65097 0.58694 0.0
N608 N 0.83909 0.69282 0.64675 0.0
N609 N 0.85434 0.67229 0.59752 0.0
H610 H 0.09442 0.12323 0.32146 0.0
H611 H 0.03508 0.08955 0.42496 0.0
H612 H 0.15014 0.12476 0.37112 0.0
H613 H 0.98739 0.0648 0.37442 0.0
H614 H 0.07796 0.10108 0.40543 0.0
H615 H 0.05558 0.10015 0.3403 0.0
C616 C 0.09865 0.11842 0.33627 0.0
C617 C 0.12554 0.12626 0.34474 0.0
C618 C 0.05824 0.09281 0.39862 0.0
C619 C 0.08095 0.10013 0.36646 0.0
C620 C 0.03369 0.08631 0.40976 0.0
C621 C 0.00746 0.07646 0.40131 0.0
C622 C 0.05651 0.08989 0.37881 0.0
C623 C 0.0071 0.07241 0.38155 0.0
C624 C 0.07644 0.10518 0.34701 0.0
C625 C 0.12977 0.11924 0.36397 0.0
N626 N 0.03111 0.07953 0.37095 0.0
N627 N 0.10757 0.10698 0.37423 0.0
H628 H 0.62729 0.40103 0.12196 0.0
H629 H 0.6914 0.23683 0.12446 0.0
H630 H 0.62947 0.34364 0.07309 0.0
H631 H 0.66213 0.28395 0.17423 0.0
H632 H 0.67959 0.28004 0.10511 0.0
H633 H 0.65095 0.36239 0.14071 0.0
C634 C 0.63313 0.3805 0.11507 0.0
C635 C 0.62603 0.37548 0.09593 0.0
C636 C 0.67606 0.28097 0.1203 0.0
C637 C 0.65313 0.3312 0.11739 0.0
C638 C 0.68291 0.25638 0.13138 0.0
C639 C 0.67742 0.25662 0.15099 0.0
C640 C 0.66393 0.30609 0.12891 0.0
C641 C 0.66638 0.28262 0.15914 0.0
C642 C 0.64651 0.35842 0.12583 0.0
C643 C 0.63419 0.34839 0.08783 0.0
N644 N 0.65987 0.30624 0.14806 0.0
N645 N 0.64715 0.32722 0.09863 0.0
H646 H 0.51325 0.93846 0.87349 0.0
H647 H 0.34846 0.87571 0.87189 0.0
H648 H 0.46524 0.91256 0.92369 0.0
H649 H 0.40571 0.87596 0.82293 0.0
H650 H 0.38731 0.89967 0.89028 0.0
H651 H 0.47016 0.92589 0.85422 0.0
C652 C 0.49355 0.93051 0.8805 0.0
C653 C 0.493 0.92623 0.90023 0.0
C654 C 0.39122 0.89472 0.87546 0.0
C655 C 0.44366 0.91191 0.87825 0.0
C656 C 0.36901 0.88116 0.8649 0.0
C657 C 0.37391 0.87344 0.84586 0.0
C658 C 0.41847 0.90087 0.8669 0.0
C659 C 0.40103 0.88115 0.83762 0.0
C660 C 0.46902 0.92324 0.86947 0.0
C661 C 0.46682 0.91586 0.90851 0.0
N662 N 0.42234 0.89428 0.84821 0.0
N663 N 0.44327 0.90894 0.89748 0.0
H664 H 0.87464 0.40286 0.87759 0.0
H665 H 0.81319 0.23756 0.87593 0.0
H666 H 0.8758 0.34534 0.92641 0.0
H667 H 0.83906 0.28564 0.82576 0.0
H668 H 0.82562 0.2807 0.89523 0.0
H669 H 0.85092 0.3638 0.85924 0.0
C670 C 0.86954 0.38221 0.88456 0.0
C671 C 0.87759 0.3773 0.90355 0.0
C672 C 0.82829 0.28183 0.87997 0.0
C673 C 0.85043 0.3325 0.88255 0.0
C674 C 0.82109 0.25729 0.86894 0.0
C675 C 0.8254 0.25785 0.8492 0.0
C676 C 0.83954 0.30724 0.8712 0.0
C677 C 0.83573 0.28406 0.84094 0.0
C678 C 0.85612 0.35988 0.87403 0.0
C679 C 0.87034 0.35003 0.91177 0.0
N680 N 0.84255 0.30764 0.85198 0.0
N681 N 0.85733 0.32861 0.90119 0.0
H682 H 0.40584 0.1226 0.67745 0.0
H683 H 0.46387 0.08537 0.57417 0.0
H684 H 0.34946 0.12181 0.62809 0.0
H685 H 0.51262 0.06301 0.62475 0.0
H686 H 0.42118 0.09718 0.5938 0.0
H687 H 0.44458 0.09901 0.65877 0.0
C688 C 0.40145 0.11718 0.66275 0.0
C689 C 0.3744 0.12454 0.6543 0.0
C690 C 0.44109 0.08936 0.60061 0.0
C691 C 0.41886 0.09779 0.63278 0.0
C692 C 0.46553 0.0827 0.5894 0.0
C693 C 0.49199 0.07345 0.59783 0.0
C694 C 0.44318 0.08724 0.62044 0.0
C695 C 0.49272 0.07013 0.61764 0.0
C696 C 0.42359 0.10365 0.6521 0.0
C697 C 0.36996 0.11672 0.63522 0.0
N698 N 0.46881 0.07742 0.6283 0.0
N699 N 0.39209 0.10417 0.62505 0.0
H700 H 0.66424 0.71608 0.32481 0.0
H701 H 0.62646 0.65675 0.4278 0.0
H702 H 0.68712 0.76366 0.37576 0.0
H703 H 0.62594 0.60127 0.37802 0.0
H704 H 0.65025 0.69555 0.40931 0.0
H705 H 0.65161 0.67328 0.34414 0.0
C706 C 0.66685 0.71746 0.34007 0.0
C707 C 0.6765 0.74363 0.34868 0.0
C708 C 0.64527 0.67475 0.40249 0.0
C709 C 0.66178 0.69469 0.37094 0.0
C710 C 0.63162 0.65257 0.41304 0.0
C711 C 0.62388 0.62574 0.40443 0.0
C712 C 0.65089 0.6703 0.38311 0.0
C713 C 0.63136 0.62158 0.38527 0.0
C714 C 0.65971 0.69295 0.3511 0.0
C715 C 0.67971 0.74399 0.3685 0.0
N716 N 0.64407 0.64376 0.37521 0.0
N717 N 0.67198 0.72003 0.37898 0.0
H718 H 0.1527 0.87722 0.12829 0.0
H719 H 0.98815 0.94033 0.12585 0.0
H720 H 0.0946 0.87669 0.17683 0.0
H721 H 0.0362 0.91328 0.07593 0.0
H722 H 0.03107 0.92784 0.14529 0.0
H723 H 0.11413 0.90132 0.10975 0.0
C724 C 0.13202 0.88253 0.13516 0.0
C725 C 0.12681 0.87455 0.15413 0.0
C726 C 0.03226 0.92495 0.13006 0.0
C727 C 0.08258 0.90218 0.1329 0.0
C728 C 0.00784 0.9322 0.11893 0.0
C729 C 0.00844 0.92754 0.09923 0.0
C730 C 0.05758 0.91329 0.12142 0.0
C731 C 0.0346 0.9169 0.09107 0.0
C732 C 0.10998 0.89618 0.12451 0.0
C733 C 0.09952 0.88209 0.16221 0.0
N734 N 0.05806 0.91001 0.10221 0.0
N735 N 0.07838 0.89533 0.15153 0.0
H736 H 0.68677 0.7364 0.87558 0.0
H737 H 0.62614 0.902 0.87692 0.0
H738 H 0.66204 0.78477 0.82529 0.0
H739 H 0.62427 0.84462 0.9258 0.0
H740 H 0.64979 0.86279 0.8587 0.0
H741 H 0.67419 0.77953 0.89484 0.0
C742 C 0.67909 0.75618 0.86856 0.0
C743 C 0.67515 0.75684 0.8488 0.0
C744 C 0.64444 0.85892 0.87347 0.0
C745 C 0.66083 0.80622 0.87075 0.0
C746 C 0.63106 0.88134 0.88393 0.0
C747 C 0.62285 0.87654 0.9029 0.0
C748 C 0.64993 0.83154 0.88204 0.0
C749 C 0.62987 0.84924 0.91117 0.0
C750 C 0.67179 0.78073 0.87957 0.0
C751 C 0.66508 0.78312 0.84049 0.0
N752 N 0.64285 0.82772 0.90066 0.0
N753 N 0.65817 0.80669 0.85151 0.0
H754 H 0.51493 0.43633 0.12388 0.0
H755 H 0.35057 0.37235 0.12471 0.0
H756 H 0.4684 0.40865 0.0735 0.0
H757 H 0.40677 0.37433 0.17414 0.0
H758 H 0.38982 0.39569 0.10631 0.0
H759 H 0.47158 0.42364 0.14287 0.0
C760 C 0.4955 0.42796 0.11677 0.0
C761 C 0.49544 0.42324 0.09708 0.0
C762 C 0.39342 0.39123 0.12123 0.0
C763 C 0.44581 0.40875 0.11874 0.0
C764 C 0.37098 0.37801 0.13178 0.0
C765 C 0.37546 0.37102 0.15098 0.0
C766 C 0.42045 0.39778 0.12996 0.0
C767 C 0.40243 0.37896 0.15934 0.0
C768 C 0.47083 0.4206 0.12764 0.0
C769 C 0.46959 0.41231 0.08866 0.0
N770 N 0.42394 0.39178 0.14876 0.0
N771 N 0.44588 0.40533 0.09954 0.0
H772 H 0.87441 0.15779 0.42658 0.0
H773 H 0.83722 0.21635 0.32337 0.0
H774 H 0.87541 0.10188 0.37701 0.0
H775 H 0.81261 0.26359 0.37412 0.0
H776 H 0.85019 0.17378 0.34282 0.0
H777 H 0.85055 0.19633 0.40789 0.0
C778 C 0.86935 0.15347 0.41182 0.0
C779 C 0.87722 0.12659 0.40333 0.0
C780 C 0.84163 0.19333 0.34969 0.0
C781 C 0.85015 0.17084 0.38179 0.0
C782 C 0.8343 0.21771 0.3386 0.0
C783 C 0.82405 0.24372 0.34713 0.0
C784 C 0.83916 0.19505 0.36952 0.0
C785 C 0.82048 0.24404 0.36692 0.0
C786 C 0.85565 0.17549 0.40117 0.0
C787 C 0.86987 0.12224 0.38417 0.0
N788 N 0.82841 0.22023 0.37747 0.0
N789 N 0.85713 0.14427 0.37399 0.0
H790 H 0.09302 0.62359 0.67662 0.0
H791 H 0.03299 0.58796 0.57349 0.0
H792 H 0.14829 0.62463 0.62675 0.0
H793 H 0.98569 0.56406 0.62435 0.0
H794 H 0.07588 0.60022 0.59282 0.0
H795 H 0.05399 0.60036 0.65802 0.0
C796 C 0.0971 0.61866 0.66181 0.0
C797 C 0.12394 0.62637 0.65321 0.0
C798 C 0.05625 0.59198 0.59975 0.0
C799 C 0.07913 0.60004 0.63178 0.0
C800 C 0.03168 0.58506 0.58872 0.0
C801 C 0.00557 0.57522 0.59732 0.0
C802 C 0.05463 0.58948 0.61958 0.0
C803 C 0.00531 0.57163 0.61711 0.0
C804 C 0.07479 0.60533 0.65121 0.0
C805 C 0.12797 0.6192 0.63399 0.0
N806 N 0.02934 0.57914 0.6276 0.0
N807 N 0.10568 0.60682 0.62387 0.0
H808 H 0.62531 0.09828 0.62122 0.0
H809 H 0.68611 0.2638 0.62325 0.0
H810 H 0.62309 0.15628 0.57266 0.0
H811 H 0.66116 0.21506 0.67334 0.0
H812 H 0.67346 0.22086 0.60382 0.0
H813 H 0.64905 0.13728 0.63959 0.0
C814 C 0.63017 0.11903 0.61431 0.0
C815 C 0.62184 0.12407 0.59539 0.0
C816 C 0.67104 0.21954 0.61909 0.0
C817 C 0.64903 0.16882 0.61641 0.0
C818 C 0.67837 0.24397 0.6302 0.0
C819 C 0.67438 0.24315 0.64995 0.0
C820 C 0.66 0.194 0.62781 0.0
C821 C 0.66424 0.21683 0.65815 0.0
C822 C 0.64361 0.14133 0.62486 0.0
C823 C 0.62879 0.15148 0.58725 0.0
N824 N 0.6573 0.19337 0.64705 0.0
N825 N 0.64183 0.17287 0.59783 0.0
H826 H 0.15212 0.37661 0.87206 0.0
H827 H 0.98674 0.43777 0.87386 0.0
H828 H 0.09412 0.37419 0.8235 0.0
H829 H 0.03569 0.41363 0.92403 0.0
H830 H 0.02965 0.42496 0.85445 0.0
H831 H 0.11328 0.40082 0.8903 0.0
C832 C 0.1314 0.38152 0.86512 0.0
C833 C 0.1263 0.37297 0.84624 0.0
C834 C 0.03103 0.42276 0.86972 0.0
C835 C 0.08174 0.40071 0.86712 0.0
C836 C 0.00661 0.43018 0.88082 0.0
C837 C 0.0075 0.42645 0.9006 0.0
C838 C 0.05661 0.41187 0.87848 0.0
C839 C 0.03387 0.4165 0.90883 0.0
C840 C 0.10919 0.39523 0.87559 0.0
C841 C 0.09896 0.38003 0.83806 0.0
N842 N 0.05731 0.40945 0.89773 0.0
N843 N 0.07765 0.39332 0.84858 0.0
H844 H 0.87701 0.90095 0.12419 0.0
H845 H 0.81372 0.73628 0.12463 0.0
H846 H 0.87686 0.84445 0.07487 0.0
H847 H 0.83935 0.78347 0.1752 0.0
H848 H 0.82685 0.77953 0.10565 0.0
H849 H 0.85314 0.86174 0.14233 0.0
C850 C 0.87164 0.88048 0.11708 0.0
C851 C 0.87931 0.87591 0.098 0.0
C852 C 0.82933 0.78045 0.12092 0.0
C853 C 0.85196 0.83096 0.11874 0.0
C854 C 0.82172 0.75583 0.13178 0.0
C855 C 0.82576 0.75611 0.15153 0.0
C856 C 0.84072 0.80563 0.12989 0.0
C857 C 0.83623 0.7821 0.16 0.0
C858 C 0.85812 0.85806 0.12749 0.0
C859 C 0.8717 0.84887 0.08959 0.0
N860 N 0.84345 0.80575 0.14913 0.0
N861 N 0.85859 0.82738 0.10004 0.0
H862 H 0.46592 0.58906 0.42601 0.0
H863 H 0.40597 0.62276 0.32266 0.0
H864 H 0.51339 0.56439 0.37536 0.0
H865 H 0.35029 0.62336 0.37235 0.0
H866 H 0.44509 0.6 0.34143 0.0
H867 H 0.42294 0.60058 0.40655 0.0
C868 C 0.46725 0.58585 0.41081 0.0
C869 C 0.49343 0.576 0.4023 0.0
C870 C 0.42418 0.60476 0.34816 0.0
C871 C 0.44428 0.58941 0.3799 0.0
C872 C 0.40182 0.61782 0.33746 0.0
C873 C 0.37484 0.62529 0.34597 0.0
C874 C 0.41975 0.59953 0.36759 0.0
C875 C 0.37072 0.61811 0.36518 0.0
C876 C 0.44264 0.59233 0.39971 0.0
C877 C 0.49372 0.57199 0.38254 0.0
N878 N 0.39307 0.60604 0.37539 0.0
N879 N 0.46966 0.5791 0.37198 0.0
H880 H 0.37101 0.15584 0.07153 0.0
H881 H 0.33601 0.21473 0.17484 0.0
H882 H 0.37238 0.09988 0.12108 0.0
H883 H 0.31053 0.26191 0.12425 0.0
H884 H 0.34779 0.17182 0.15537 0.0
H885 H 0.34718 0.19432 0.0903 0.0
C886 C 0.36601 0.15149 0.0863 0.0
C887 C 0.37402 0.12464 0.09476 0.0
C888 C 0.33926 0.19142 0.14854 0.0
C889 C 0.34701 0.1688 0.1164 0.0
C890 C 0.3326 0.21598 0.15965 0.0
C891 C 0.32253 0.24209 0.15116 0.0
C892 C 0.33632 0.19307 0.12873 0.0
C893 C 0.3183 0.24229 0.13142 0.0
C894 C 0.35234 0.17347 0.097 0.0
C895 C 0.36675 0.12023 0.11393 0.0
N896 N 0.32563 0.21831 0.12084 0.0
N897 N 0.35406 0.14223 0.12416 0.0
H898 H 0.48663 0.56226 0.8737 0.0
H899 H 0.65192 0.62368 0.87209 0.0
H900 H 0.53485 0.58773 0.9239 0.0
H901 H 0.59443 0.62467 0.82325 0.0
H902 H 0.61293 0.59984 0.89042 0.0
H903 H 0.52978 0.57462 0.85441 0.0
C904 C 0.50639 0.57007 0.8807 0.0
C905 C 0.50699 0.57429 0.90044 0.0
C906 C 0.60899 0.60502 0.87564 0.0
C907 C 0.55639 0.58836 0.87845 0.0
C908 C 0.63129 0.61852 0.86511 0.0
C909 C 0.62636 0.62656 0.84613 0.0
C910 C 0.58164 0.59927 0.8671 0.0
C911 C 0.59913 0.61922 0.8379 0.0
C912 C 0.53095 0.57722 0.86967 0.0
C913 C 0.53324 0.58448 0.90872 0.0
N914 N 0.57774 0.60615 0.84846 0.0
N915 N 0.55682 0.59128 0.89768 0.0
H916 H 0.16239 0.78382 0.67516 0.0
H917 H 0.12648 0.84339 0.57202 0.0
H918 H 0.18581 0.73617 0.62434 0.0
H919 H 0.12578 0.89893 0.62177 0.0
H920 H 0.15 0.80453 0.59061 0.0
H921 H 0.15054 0.82679 0.65577 0.0
C922 C 0.16528 0.78245 0.65992 0.0
C923 C 0.17483 0.75621 0.65135 0.0
C924 C 0.14505 0.82536 0.59739 0.0
C925 C 0.16102 0.80534 0.62903 0.0
C926 C 0.13156 0.84757 0.58679 0.0
C927 C 0.12382 0.87442 0.59537 0.0
C928 C 0.15048 0.8298 0.6168 0.0
C929 C 0.1312 0.87859 0.61454 0.0
C930 C 0.1586 0.80706 0.64886 0.0
C931 C 0.17844 0.75588 0.63156 0.0
N932 N 0.14372 0.85638 0.62467 0.0
N933 N 0.17113 0.77993 0.62104 0.0
H934 H 0.0118 0.43728 0.3731 0.0
H935 H 0.8462 0.37671 0.37131 0.0
H936 H 0.96335 0.41179 0.4232 0.0
H937 H 0.90344 0.37659 0.32235 0.0
H938 H 0.88528 0.40019 0.38974 0.0
H939 H 0.96854 0.42549 0.35377 0.0
C940 C 0.99198 0.42959 0.38007 0.0
C941 C 0.99134 0.42519 0.3998 0.0
C942 C 0.88914 0.39528 0.37491 0.0
C943 C 0.94181 0.41176 0.37775 0.0
C944 C 0.86679 0.38199 0.36432 0.0
C945 C 0.87162 0.37428 0.34527 0.0
C946 C 0.91647 0.40116 0.36637 0.0
C947 C 0.89881 0.38178 0.33704 0.0
C948 C 0.96735 0.42276 0.36902 0.0
C949 C 0.965 0.41517 0.40803 0.0
N950 N 0.92027 0.39462 0.34766 0.0
N951 N 0.94135 0.40867 0.39697 0.0
H952 H 0.31298 0.73447 0.3754 0.0
H953 H 0.3735 0.90013 0.3762 0.0
H954 H 0.33757 0.78248 0.32494 0.0
H955 H 0.3748 0.84326 0.42533 0.0
H956 H 0.34997 0.86075 0.35805 0.0
H957 H 0.32542 0.7778 0.3945 0.0
C958 C 0.32061 0.75421 0.3683 0.0
C959 C 0.32455 0.75471 0.34854 0.0
C960 C 0.35517 0.85703 0.37286 0.0
C961 C 0.33871 0.80432 0.37032 0.0
C962 C 0.36848 0.87955 0.38328 0.0
C963 C 0.3765 0.87493 0.4023 0.0
C964 C 0.34955 0.82975 0.38153 0.0
C965 C 0.36935 0.84773 0.41066 0.0
C966 C 0.32781 0.77888 0.37923 0.0
C967 C 0.33453 0.78095 0.34014 0.0
N968 N 0.35645 0.82613 0.40019 0.0
N969 N 0.34137 0.80464 0.35108 0.0
H970 H 0.01187 0.55901 0.12583 0.0
H971 H 0.84762 0.62302 0.12761 0.0
H972 H 0.96451 0.58647 0.07573 0.0
H973 H 0.90507 0.6225 0.17646 0.0
H974 H 0.88623 0.59877 0.10916 0.0
H975 H 0.96873 0.57144 0.14508 0.0
C976 C 0.99228 0.56722 0.11883 0.0
C977 C 0.99195 0.57202 0.09914 0.0
C978 C 0.89023 0.60371 0.12398 0.0
C979 C 0.94256 0.58622 0.1211 0.0
C980 C 0.86816 0.61744 0.13456 0.0
C981 C 0.87319 0.62518 0.15359 0.0
C982 C 0.91746 0.59738 0.13249 0.0
C983 C 0.9003 0.6173 0.16179 0.0
C984 C 0.96773 0.57444 0.12985 0.0
C985 C 0.96591 0.58274 0.09088 0.0
N986 N 0.92147 0.60399 0.15117 0.0
N987 N 0.94232 0.58961 0.1019 0.0
H988 H 0.18698 0.26279 0.87586 0.0
H989 H 0.12579 0.09736 0.8773 0.0
H990 H 0.16152 0.21468 0.82562 0.0
H991 H 0.12503 0.15454 0.92629 0.0
H992 H 0.14926 0.13657 0.85897 0.0
H993 H 0.17447 0.21963 0.89512 0.0
C994 C 0.17914 0.24306 0.86884 0.0
C995 C 0.17499 0.24248 0.8491 0.0
C996 C 0.1442 0.1404 0.87378 0.0
C997 C 0.16076 0.19306 0.87105 0.0
C998 C 0.13092 0.11797 0.88431 0.0
C999 C 0.12307 0.12273 0.90335 0.0
C1000 C 0.14994 0.16772 0.88237 0.0
C1001 C 0.13035 0.14996 0.91161 0.0
C1002 C 0.1719 0.21849 0.87986 0.0
C1003 C 0.16474 0.21627 0.8408 0.0
N1004 N 0.14322 0.17147 0.90104 0.0
N1005 N 0.15788 0.19267 0.85182 0.0
H1006 H 0.48618 0.43789 0.62508 0.0
H1007 H 0.65125 0.3759 0.62656 0.0
H1008 H 0.534 0.41171 0.57487 0.0
H1009 H 0.59404 0.37592 0.67553 0.0
H1010 H 0.61231 0.3998 0.6082 0.0
H1011 H 0.52948 0.42584 0.64429 0.0
C1012 C 0.50588 0.43 0.61805 0.0
C1013 C 0.50631 0.42546 0.59834 0.0
C1014 C 0.60844 0.39483 0.62302 0.0
C1015 C 0.5559 0.41173 0.62025 0.0
C1016 C 0.6307 0.38131 0.63356 0.0
C1017 C 0.62581 0.37352 0.65259 0.0
C1018 C 0.58117 0.40088 0.63159 0.0
C1019 C 0.59869 0.38116 0.66085 0.0
C1020 C 0.53053 0.42302 0.62904 0.0
C1021 C 0.53251 0.41519 0.59004 0.0
N1022 N 0.57733 0.39425 0.65027 0.0
N1023 N 0.55618 0.40855 0.60104 0.0
H1024 H 0.3086 0.30492 0.22366 0.0
H1025 H 0.19238 0.19784 0.2744 0.0
H1026 H 0.22546 0.27954 0.19887 0.0
H1027 H 0.27441 0.22461 0.30011 0.0
H1028 H 0.20425 0.22768 0.24659 0.0
H1029 H 0.29664 0.27569 0.2518 0.0
C1030 C 0.28781 0.29323 0.22415 0.0
C1031 C 0.26798 0.29465 0.20892 0.0
C1032 C 0.21967 0.22706 0.25831 0.0
C1033 C 0.25416 0.26115 0.24103 0.0
C1034 C 0.21291 0.21 0.27419 0.0
C1035 C 0.23247 0.20872 0.28957 0.0
C1036 C 0.24622 0.24296 0.25777 0.0
C1037 C 0.25872 0.22497 0.28854 0.0
C1038 C 0.281 0.27655 0.24022 0.0
C1039 C 0.24138 0.27906 0.2103 0.0
N1040 N 0.26485 0.2414 0.2729 0.0
N1041 N 0.23527 0.26295 0.22606 0.0
H1042 H 0.05344 0.94213 0.52487 0.0
H1043 H 0.9472 0.0593 0.47434 0.0
H1044 H 0.02626 0.02379 0.55089 0.0
H1045 H 0.97414 0.9774 0.44852 0.0
H1046 H 0.97611 0.04679 0.50248 0.0
H1047 H 0.02452 0.95469 0.49677 0.0
C1048 C 0.04138 0.96271 0.52467 0.0
C1049 C 0.04226 0.98197 0.54023 0.0
C1050 C 0.97571 0.03154 0.49067 0.0
C1051 C 0.00911 0.99652 0.5081 0.0
C1052 C 0.95921 0.03868 0.4746 0.0
C1053 C 0.95826 0.01934 0.45909 0.0
C1054 C 0.99138 0.00486 0.49124 0.0
C1055 C 0.97425 0.99294 0.46018 0.0
C1056 C 0.02486 0.96988 0.50862 0.0
C1057 C 0.02619 0.00832 0.5392 0.0
N1058 N 0.99014 0.98648 0.47598 0.0
N1059 N 0.01028 0.01483 0.52341 0.0
H1060 H 0.19182 0.69534 0.72399 0.0
H1061 H 0.30775 0.80272 0.77469 0.0
H1062 H 0.27373 0.72251 0.6983 0.0
H1063 H 0.22601 0.77495 0.80035 0.0
H1064 H 0.29577 0.7735 0.74658 0.0
H1065 H 0.20399 0.72444 0.75207 0.0
C1066 C 0.21239 0.70743 0.72426 0.0
C1067 C 0.23181 0.7065 0.7088 0.0
C1068 C 0.28044 0.77379 0.75835 0.0
C1069 C 0.24591 0.73989 0.7409 0.0
C1070 C 0.28727 0.79047 0.7744 0.0
C1071 C 0.26782 0.79127 0.78986 0.0
C1072 C 0.25396 0.75779 0.75775 0.0
C1073 C 0.24162 0.77496 0.78874 0.0
C1074 C 0.21933 0.72405 0.7403 0.0
C1075 C 0.25814 0.72261 0.70992 0.0
N1076 N 0.23545 0.75891 0.77296 0.0
N1077 N 0.26442 0.73865 0.7257 0.0
H1078 H 0.47292 0.97599 0.05069 0.0
H1079 H 0.52519 0.02604 0.94698 0.0
H1080 H 0.4456 0.05714 0.02406 0.0
H1081 H 0.5521 0.94472 0.97356 0.0
H1082 H 0.49597 0.03791 0.9751 0.0
H1083 H 0.5022 0.96424 0.02259 0.0
C1084 C 0.47309 0.99134 0.03892 0.0
C1085 C 0.45679 0.01757 0.03969 0.0
C1086 C 0.50826 0.01746 0.97479 0.0
C1087 C 0.49025 0.00428 0.00748 0.0
C1088 C 0.52495 0.01068 0.95874 0.0
C1089 C 0.5411 0.98437 0.95796 0.0
C1090 C 0.50773 0.99778 0.99018 0.0
C1091 C 0.53998 0.96526 0.97358 0.0
C1092 C 0.48981 0.98462 0.02288 0.0
C1093 C 0.45783 0.03667 0.02405 0.0
N1094 N 0.52358 0.97235 0.98906 0.0
N1095 N 0.47427 0.02964 0.00858 0.0
H1096 H 0.22473 0.7222 0.3021 0.0
H1097 H 0.27477 0.77494 0.1985 0.0
H1098 H 0.30597 0.69536 0.2754 0.0
H1099 H 0.19368 0.80231 0.22516 0.0
H1100 H 0.28643 0.74547 0.22651 0.0
H1101 H 0.21282 0.75156 0.27404 0.0
C1102 C 0.24006 0.72249 0.29033 0.0
C1103 C 0.26637 0.70632 0.29106 0.0
C1104 C 0.26608 0.75791 0.22626 0.0
C1105 C 0.2529 0.73985 0.25891 0.0
C1106 C 0.25941 0.77474 0.21026 0.0
C1107 C 0.23323 0.79112 0.20953 0.0
C1108 C 0.24642 0.75743 0.24165 0.0
C1109 C 0.21412 0.79003 0.22515 0.0
C1110 C 0.23325 0.73925 0.27431 0.0
C1111 C 0.28543 0.70749 0.27542 0.0
N1112 N 0.2211 0.77348 0.24059 0.0
N1113 N 0.27832 0.72396 0.25998 0.0
H1114 H 0.47311 0.02484 0.44678 0.0
H1115 H 0.5248 0.97464 0.55059 0.0
H1116 H 0.44643 0.94324 0.47309 0.0
H1117 H 0.55116 0.05644 0.5244 0.0
H1118 H 0.49589 0.96277 0.52234 0.0
H1119 H 0.50186 0.03682 0.47508 0.0
C1120 C 0.47331 0.00944 0.45852 0.0
C1121 C 0.45736 0.98302 0.4576 0.0
C1122 C 0.50799 0.98333 0.52276 0.0
C1123 C 0.4902 0.99656 0.49004 0.0
C1124 C 0.52449 0.99011 0.53889 0.0
C1125 C 0.54042 0.01655 0.53982 0.0
C1126 C 0.50741 0.00312 0.50744 0.0
C1127 C 0.53922 0.0358 0.52426 0.0
C1128 C 0.48972 0.01629 0.47468 0.0
C1129 C 0.4584 0.96386 0.47321 0.0
N1130 N 0.52301 0.02869 0.50871 0.0
N1131 N 0.47454 0.97102 0.48879 0.0
H1132 H 0.27493 0.27406 0.80209 0.0
H1133 H 0.22519 0.22307 0.69803 0.0
H1134 H 0.19377 0.30153 0.77555 0.0
H1135 H 0.3062 0.19545 0.7247 0.0
H1136 H 0.2133 0.25202 0.72627 0.0
H1137 H 0.28676 0.2451 0.77386 0.0
C1138 C 0.25959 0.27398 0.79032 0.0
C1139 C 0.23334 0.29023 0.79115 0.0
C1140 C 0.23368 0.23963 0.72595 0.0
C1141 C 0.24672 0.25716 0.75878 0.0
C1142 C 0.24048 0.22311 0.70983 0.0
C1143 C 0.26671 0.20682 0.70904 0.0
C1144 C 0.25325 0.23988 0.7414 0.0
C1145 C 0.28572 0.20767 0.72472 0.0
C1146 C 0.26635 0.25745 0.7742 0.0
C1147 C 0.21426 0.28933 0.7755 0.0
N1148 N 0.27861 0.22392 0.74026 0.0
N1149 N 0.22134 0.27308 0.75995 0.0
H1150 H 0.02527 0.97363 0.94812 0.0
H1151 H 0.97262 0.02583 0.05132 0.0
H1152 H 0.05212 0.05541 0.97413 0.0
H1153 H 0.94688 0.94321 0.02596 0.0
H1154 H 0.00144 0.03724 0.02298 0.0
H1155 H 0.99599 0.96225 0.97631 0.0
C1156 C 0.025 0.9892 0.95977 0.0
C1157 C 0.04117 0.01549 0.9588 0.0
C1158 C 0.98949 0.01661 0.02359 0.0
C1159 C 0.00771 0.00264 0.9911 0.0
C1160 C 0.97301 0.01009 0.03977 0.0
C1161 C 0.95733 0.98353 0.04099 0.0
C1162 C 0.9903 0.99643 0.00848 0.0
C1163 C 0.95864 0.96395 0.02561 0.0
C1164 C 0.00828 0.98269 0.97586 0.0
C1165 C 0.04 0.03487 0.97429 0.0
N1166 N 0.97485 0.97078 0.00999 0.0
N1167 N 0.02357 0.02805 0.9898 0.0
H1168 H 0.72387 0.77618 0.69752 0.0
H1169 H 0.77484 0.725 0.80128 0.0
H1170 H 0.80597 0.80242 0.72336 0.0
H1171 H 0.69314 0.69798 0.77525 0.0
H1172 H 0.78649 0.75378 0.77294 0.0
H1173 H 0.71209 0.74756 0.72591 0.0
C1174 C 0.73942 0.77591 0.70917 0.0
C1175 C 0.76593 0.79171 0.7081 0.0
C1176 C 0.76601 0.74156 0.77341 0.0
C1177 C 0.75261 0.75903 0.74064 0.0
C1178 C 0.75935 0.72514 0.7896 0.0
C1179 C 0.73301 0.70906 0.7906 0.0
C1180 C 0.74617 0.74192 0.75811 0.0
C1181 C 0.71372 0.71004 0.77506 0.0
C1182 C 0.73269 0.75957 0.72538 0.0
C1183 C 0.78528 0.79057 0.7236 0.0
N1184 N 0.72069 0.72619 0.75945 0.0
N1185 N 0.77823 0.77452 0.73924 0.0
H1186 H 0.69095 0.19396 0.22383 0.0
H1187 H 0.80567 0.30248 0.27471 0.0
H1188 H 0.77409 0.2199 0.19927 0.0
H1189 H 0.72376 0.27491 0.30022 0.0
H1190 H 0.79433 0.2724 0.24691 0.0
H1191 H 0.7024 0.22347 0.25192 0.0
C1192 C 0.71164 0.20583 0.22436 0.0
C1193 C 0.73161 0.20448 0.2092 0.0
C1194 C 0.77882 0.2729 0.25858 0.0
C1195 C 0.74484 0.23833 0.24127 0.0
C1196 C 0.78528 0.29009 0.27445 0.0
C1197 C 0.7656 0.29121 0.28978 0.0
C1198 C 0.75245 0.2567 0.258 0.0
C1199 C 0.73953 0.27469 0.2887 0.0
C1200 C 0.71816 0.22268 0.2404 0.0
C1201 C 0.75807 0.22031 0.21064 0.0
N1202 N 0.73369 0.25813 0.27307 0.0
N1203 N 0.7639 0.23659 0.22637 0.0
H1204 H 0.80824 0.19764 0.77575 0.0
H1205 H 0.69141 0.30244 0.7237 0.0
H1206 H 0.72603 0.22493 0.80099 0.0
H1207 H 0.77368 0.27527 0.69849 0.0
H1208 H 0.70358 0.274 0.75208 0.0
H1209 H 0.79596 0.2259 0.74731 0.0
C1210 C 0.7876 0.2096 0.7753 0.0
C1211 C 0.7681 0.20894 0.79074 0.0
C1212 C 0.71898 0.27423 0.74035 0.0
C1213 C 0.75388 0.24131 0.75823 0.0
C1214 C 0.71203 0.29046 0.72414 0.0
C1215 C 0.73159 0.29123 0.70874 0.0
C1216 C 0.7457 0.25865 0.74118 0.0
C1217 C 0.75799 0.27529 0.71006 0.0
C1218 C 0.7806 0.22573 0.75906 0.0
C1219 C 0.74169 0.22484 0.7894 0.0
N1220 N 0.76428 0.25967 0.726 0.0
N1221 N 0.73534 0.24037 0.77343 0.0
H1222 H 0.77648 0.77615 0.30224 0.0
H1223 H 0.72576 0.72512 0.1984 0.0
H1224 H 0.69522 0.80367 0.27585 0.0
H1225 H 0.80694 0.69719 0.2247 0.0
H1226 H 0.71434 0.75423 0.22662 0.0
H1227 H 0.78817 0.74719 0.27396 0.0
C1228 C 0.7611 0.7761 0.29049 0.0
C1229 C 0.73485 0.79234 0.29138 0.0
C1230 C 0.73466 0.74175 0.22624 0.0
C1231 C 0.74806 0.75928 0.25898 0.0
C1232 C 0.74119 0.72512 0.21012 0.0
C1233 C 0.76732 0.70869 0.20923 0.0
C1234 C 0.7544 0.74195 0.24159 0.0
C1235 C 0.78653 0.70952 0.22482 0.0
C1236 C 0.76778 0.75956 0.27435 0.0
C1237 C 0.71572 0.79147 0.27576 0.0
N1238 N 0.77968 0.72587 0.24036 0.0
N1239 N 0.7227 0.77523 0.2602 0.0
H1240 H 0.55491 0.44083 0.02413 0.0
H1241 H 0.44735 0.55681 0.97361 0.0
H1242 H 0.5274 0.52272 0.04971 0.0
H1243 H 0.47435 0.47491 0.94783 0.0
H1244 H 0.47664 0.54463 0.0016 0.0
H1245 H 0.52556 0.45277 0.99605 0.0
C1246 C 0.54269 0.46132 0.02383 0.0
C1247 C 0.5436 0.48084 0.03925 0.0
C1248 C 0.47618 0.52929 0.98984 0.0
C1249 C 0.51 0.49465 0.00719 0.0
C1250 C 0.45945 0.53625 0.97384 0.0
C1251 C 0.45841 0.51682 0.95838 0.0
C1252 C 0.49201 0.50271 0.99039 0.0
C1253 C 0.47453 0.4905 0.95945 0.0
C1254 C 0.52594 0.46813 0.0078 0.0
C1255 C 0.52733 0.50706 0.03813 0.0
N1256 N 0.49067 0.4842 0.97518 0.0
N1257 N 0.51121 0.5132 0.02237 0.0
H1258 H 0.02481 0.52437 0.4468 0.0
H1259 H 0.97371 0.47515 0.55092 0.0
H1260 H 0.05114 0.44281 0.47331 0.0
H1261 H 0.94635 0.55628 0.5243 0.0
H1262 H 0.00254 0.46314 0.52268 0.0
H1263 H 0.99614 0.53665 0.4751 0.0
C1264 C 0.02455 0.50905 0.45858 0.0
C1265 C 0.04038 0.48254 0.45773 0.0
C1266 C 0.99024 0.48358 0.52299 0.0
C1267 C 0.00766 0.49643 0.49014 0.0
C1268 C 0.97379 0.49045 0.53912 0.0
C1269 C 0.95759 0.51673 0.53993 0.0
C1270 C 0.99052 0.50314 0.50755 0.0
C1271 C 0.9585 0.53576 0.52425 0.0
C1272 C 0.00818 0.51606 0.47473 0.0
C1273 C 0.03926 0.46349 0.47338 0.0
N1274 N 0.97468 0.52858 0.50869 0.0
N1275 N 0.02319 0.47081 0.48895 0.0
H1276 H 0.02875 0.47381 0.05143 0.0
H1277 H 0.97595 0.52606 0.94829 0.0
H1278 H 0.05412 0.55665 0.0262 0.0
H1279 H 0.94965 0.44399 0.97415 0.0
H1280 H 0.00526 0.53745 0.97647 0.0
H1281 H 0.00017 0.46228 0.02303 0.0
C1282 C 0.02833 0.48957 0.0399 0.0
C1283 C 0.04383 0.51623 0.04117 0.0
C1284 C 0.99309 0.51694 0.97598 0.0
C1285 C 0.01113 0.50319 0.00859 0.0
C1286 C 0.97636 0.51043 0.9599 0.0
C1287 C 0.96031 0.48406 0.9589 0.0
C1288 C 0.99379 0.49693 0.99119 0.0
C1289 C 0.96166 0.46459 0.97434 0.0
C1290 C 0.01199 0.48298 0.02367 0.0
C1291 C 0.04249 0.53583 0.0258 0.0
N1292 N 0.97809 0.47143 0.98984 0.0
N1293 N 0.02642 0.52892 0.01014 0.0
H1294 H 0.55353 0.55815 0.47492 0.0
H1295 H 0.44628 0.44169 0.52526 0.0
H1296 H 0.52645 0.47636 0.44902 0.0
H1297 H 0.47273 0.52392 0.55083 0.0
H1298 H 0.47565 0.45385 0.49726 0.0
H1299 H 0.52417 0.54591 0.50289 0.0
C1300 C 0.54141 0.5376 0.47512 0.0
C1301 C 0.54244 0.51822 0.45964 0.0
C1302 C 0.47504 0.46925 0.50898 0.0
C1303 C 0.50877 0.50405 0.49161 0.0
C1304 C 0.45826 0.46232 0.52497 0.0
C1305 C 0.45705 0.48185 0.54038 0.0
C1306 C 0.49073 0.49593 0.50839 0.0
C1307 C 0.47304 0.50824 0.53926 0.0
C1308 C 0.52464 0.53062 0.4911 0.0
C1309 C 0.52628 0.49192 0.46066 0.0
N1310 N 0.48921 0.51451 0.52354 0.0
N1311 N 0.51012 0.4856 0.47638 0.0
H1312 H 0.25457 0.12672 0.38413 0.0
H1313 H 0.37652 0.00438 0.36283 0.0
H1314 H 0.26963 0.09102 0.32821 0.0
H1315 H 0.34008 0.01879 0.41862 0.0
H1316 H 0.34058 0.03926 0.34982 0.0
H1317 H 0.28908 0.09041 0.39714 0.0
C1318 C 0.26509 0.11122 0.37461 0.0
C1319 C 0.25921 0.11184 0.35508 0.0
C1320 C 0.34039 0.03465 0.36489 0.0
C1321 C 0.29884 0.07053 0.36979 0.0
C1322 C 0.36092 0.01482 0.37232 0.0
C1323 C 0.36125 0.00867 0.39182 0.0
C1324 C 0.32036 0.04873 0.3771 0.0
C1325 C 0.34053 0.02281 0.40348 0.0
C1326 C 0.28471 0.09048 0.38203 0.0
C1327 C 0.27344 0.09125 0.34337 0.0
N1328 N 0.32106 0.04233 0.39597 0.0
N1329 N 0.29273 0.07155 0.35089 0.0
H1330 H 0.12301 0.00345 0.63514 0.0
H1331 H 0.24566 0.12532 0.61437 0.0
H1332 H 0.15952 0.01832 0.57942 0.0
H1333 H 0.23017 0.08937 0.67017 0.0
H1334 H 0.21101 0.0893 0.60121 0.0
H1335 H 0.1591 0.03803 0.64831 0.0
C1336 C 0.13865 0.01394 0.6257 0.0
C1337 C 0.13831 0.00799 0.60617 0.0
C1338 C 0.21532 0.08924 0.61632 0.0
C1339 C 0.17937 0.0477 0.62108 0.0
C1340 C 0.23502 0.10982 0.62384 0.0
C1341 C 0.24082 0.1103 0.64338 0.0
C1342 C 0.20102 0.0693 0.62849 0.0
C1343 C 0.22643 0.0897 0.65501 0.0
C1344 C 0.15926 0.0336 0.63322 0.0
C1345 C 0.15907 0.02218 0.59457 0.0
N1346 N 0.20706 0.07016 0.6474 0.0
N1347 N 0.17864 0.04152 0.60218 0.0
H1348 H 0.24481 0.87143 0.88492 0.0
H1349 H 0.1226 0.99371 0.86409 0.0
H1350 H 0.23003 0.90804 0.82921 0.0
H1351 H 0.15871 0.97855 0.91989 0.0
H1352 H 0.15869 0.9591 0.85096 0.0
H1353 H 0.21006 0.90737 0.89808 0.0
C1354 C 0.2343 0.88705 0.87547 0.0
C1355 C 0.24034 0.88679 0.85596 0.0
C1356 C 0.15876 0.96347 0.86607 0.0
C1357 C 0.20042 0.92768 0.87084 0.0
C1358 C 0.13815 0.98315 0.87357 0.0
C1359 C 0.13771 0.98904 0.8931 0.0
C1360 C 0.17876 0.94927 0.87824 0.0
C1361 C 0.15836 0.97474 0.90473 0.0
C1362 C 0.21454 0.90758 0.88299 0.0
C1363 C 0.22611 0.90753 0.84436 0.0
N1364 N 0.17793 0.95538 0.89715 0.0
N1365 N 0.20667 0.92701 0.85195 0.0
H1366 H 0.27016 0.90908 0.17139 0.0
H1367 H 0.33923 0.98089 0.07813 0.0
H1368 H 0.25555 0.87381 0.11531 0.0
H1369 H 0.37519 0.99515 0.13407 0.0
H1370 H 0.30391 0.94601 0.09158 0.0
H1371 H 0.30426 0.94516 0.15796 0.0
C1372 C 0.27403 0.909 0.15623 0.0
C1373 C 0.26002 0.88839 0.14443 0.0
C1374 C 0.31952 0.95678 0.1009 0.0
C1375 C 0.29893 0.92972 0.12899 0.0
C1376 C 0.3396 0.9768 0.09327 0.0
C1377 C 0.3602 0.99092 0.10501 0.0
C1378 C 0.31976 0.9511 0.12047 0.0
C1379 C 0.35973 0.98468 0.1245 0.0
C1380 C 0.29359 0.92953 0.1486 0.0
C1381 C 0.26595 0.88925 0.12491 0.0
N1382 N 0.33976 0.96529 0.13164 0.0
N1383 N 0.28489 0.90967 0.11777 0.0
H1384 H 0.73064 0.90967 0.67008 0.0
H1385 H 0.65841 0.98081 0.57759 0.0
H1386 H 0.74349 0.87409 0.6139 0.0
H1387 H 0.62355 0.99448 0.63387 0.0
H1388 H 0.69451 0.94639 0.59067 0.0
H1389 H 0.69611 0.94568 0.65699 0.0
C1390 C 0.72632 0.90953 0.65496 0.0
C1391 C 0.73993 0.88882 0.64304 0.0
C1392 C 0.67898 0.95695 0.60015 0.0
C1393 C 0.70052 0.93005 0.62801 0.0
C1394 C 0.65845 0.97669 0.59272 0.0
C1395 C 0.63792 0.9905 0.60468 0.0
C1396 C 0.67926 0.95123 0.61972 0.0
C1397 C 0.63893 0.98425 0.62416 0.0
C1398 C 0.70651 0.93001 0.64754 0.0
C1399 C 0.73342 0.88961 0.62359 0.0
N1400 N 0.65934 0.96512 0.63109 0.0
N1401 N 0.71424 0.90996 0.61666 0.0
H1402 H 0.87753 0.99679 0.36434 0.0
H1403 H 0.75613 0.87408 0.38606 0.0
H1404 H 0.84128 0.98269 0.42022 0.0
H1405 H 0.77079 0.90973 0.33008 0.0
H1406 H 0.79054 0.9106 0.39897 0.0
H1407 H 0.84168 0.9617 0.35148 0.0
C1408 C 0.86199 0.98637 0.37388 0.0
C1409 C 0.86234 0.99269 0.39336 0.0
C1410 C 0.78609 0.91047 0.38387 0.0
C1411 C 0.82156 0.95236 0.37881 0.0
C1412 C 0.76653 0.88961 0.37651 0.0
C1413 C 0.76057 0.88891 0.35699 0.0
C1414 C 0.80008 0.93045 0.37158 0.0
C1415 C 0.77466 0.90956 0.34524 0.0
C1416 C 0.84151 0.96641 0.36654 0.0
C1417 C 0.84171 0.97855 0.40509 0.0
N1418 N 0.79389 0.92935 0.3527 0.0
N1419 N 0.82228 0.95891 0.39766 0.0
H1420 H 0.73526 0.07268 0.15384 0.0
H1421 H 0.89473 0.03615 0.12257 0.0
H1422 H 0.7866 0.14249 0.12875 0.0
H1423 H 0.82514 0.9879 0.09483 0.0
H1424 H 0.85791 0.07143 0.1345 0.0
H1425 H 0.77067 0.03651 0.14113 0.0
C1426 C 0.75395 0.08031 0.14563 0.0
C1427 C 0.75807 0.11045 0.14217 0.0
C1428 C 0.85086 0.05296 0.1259 0.0
C1429 C 0.7987 0.0697 0.12839 0.0
C1430 C 0.87168 0.03281 0.11923 0.0
C1431 C 0.8628 0.00922 0.10774 0.0
C1432 C 0.82103 0.04878 0.12154 0.0
C1433 C 0.83274 0.00593 0.10361 0.0
C1434 C 0.77396 0.05978 0.13842 0.0
C1435 C 0.78259 0.11937 0.13152 0.0
N1436 N 0.81276 0.02537 0.11071 0.0
N1437 N 0.80234 0.09907 0.12523 0.0
H1438 H 0.62318 0.00584 0.8636 0.0
H1439 H 0.74476 0.12824 0.88552 0.0
H1440 H 0.65881 0.02043 0.9196 0.0
H1441 H 0.73077 0.09224 0.82956 0.0
H1442 H 0.71003 0.09199 0.89833 0.0
H1443 H 0.65934 0.04065 0.85076 0.0
C1444 C 0.63865 0.0163 0.87317 0.0
C1445 C 0.63804 0.01022 0.89268 0.0
C1446 C 0.71469 0.09197 0.88326 0.0
C1447 C 0.67916 0.0502 0.87816 0.0
C1448 C 0.73443 0.11268 0.87595 0.0
C1449 C 0.74067 0.1132 0.85646 0.0
C1450 C 0.7008 0.07195 0.87096 0.0
C1451 C 0.72668 0.09253 0.84469 0.0
C1452 C 0.6593 0.0361 0.86584 0.0
C1453 C 0.65858 0.0244 0.90445 0.0
N1454 N 0.70725 0.07287 0.8521 0.0
N1455 N 0.67817 0.04387 0.89703 0.0
H1456 H 0.76987 0.59145 0.8286 0.0
H1457 H 0.84193 0.5207 0.92129 0.0
H1458 H 0.75613 0.62673 0.88477 0.0
H1459 H 0.87684 0.50688 0.86503 0.0
H1460 H 0.80583 0.55509 0.90814 0.0
H1461 H 0.80463 0.55575 0.84177 0.0
C1462 C 0.77405 0.5916 0.84373 0.0
C1463 C 0.76011 0.61211 0.85562 0.0
C1464 C 0.82138 0.54452 0.89868 0.0
C1465 C 0.79978 0.57123 0.87076 0.0
C1466 C 0.84191 0.52479 0.90615 0.0
C1467 C 0.86244 0.51094 0.89422 0.0
C1468 C 0.82111 0.55017 0.87911 0.0
C1469 C 0.86146 0.51715 0.87473 0.0
C1470 C 0.79399 0.57129 0.85121 0.0
C1471 C 0.76645 0.61135 0.8751 0.0
N1472 N 0.84106 0.53625 0.86776 0.0
N1473 N 0.78577 0.59116 0.88208 0.0
H1474 H 0.72957 0.59135 0.17104 0.0
H1475 H 0.66049 0.51906 0.07796 0.0
H1476 H 0.74429 0.62633 0.11489 0.0
H1477 H 0.62419 0.5055 0.13388 0.0
H1478 H 0.69577 0.55407 0.09132 0.0
H1479 H 0.69526 0.55539 0.15768 0.0
C1480 C 0.72568 0.59139 0.15588 0.0
C1481 C 0.73979 0.61187 0.14404 0.0
C1482 C 0.68009 0.54343 0.10066 0.0
C1483 C 0.70065 0.57068 0.12868 0.0
C1484 C 0.66003 0.52334 0.09307 0.0
C1485 C 0.63936 0.50937 0.10484 0.0
C1486 C 0.67976 0.54932 0.1202 0.0
C1487 C 0.63971 0.51585 0.1243 0.0
C1488 C 0.706 0.57093 0.14829 0.0
C1489 C 0.73382 0.61097 0.12452 0.0
N1490 N 0.65968 0.53529 0.1314 0.0
N1491 N 0.71477 0.59062 0.11743 0.0
H1492 H 0.74336 0.37276 0.38468 0.0
H1493 H 0.62234 0.49651 0.36451 0.0
H1494 H 0.72772 0.40898 0.32896 0.0
H1495 H 0.65937 0.48126 0.42005 0.0
H1496 H 0.65772 0.46136 0.35118 0.0
H1497 H 0.70938 0.40929 0.39801 0.0
C1498 C 0.73281 0.38841 0.37526 0.0
C1499 C 0.73838 0.38787 0.35569 0.0
C1500 C 0.65816 0.46584 0.36627 0.0
C1501 C 0.69938 0.42946 0.37079 0.0
C1502 C 0.63796 0.48583 0.37388 0.0
C1503 C 0.63796 0.49183 0.3934 0.0
C1504 C 0.6782 0.45143 0.37831 0.0
C1505 C 0.65868 0.47737 0.4049 0.0
C1506 C 0.7135 0.40928 0.38288 0.0
C1507 C 0.72414 0.40867 0.34414 0.0
N1508 N 0.67783 0.45769 0.39721 0.0
N1509 N 0.70516 0.4285 0.35185 0.0
H1510 H 0.84039 0.47993 0.57802 0.0
H1511 H 0.76921 0.40839 0.67069 0.0
H1512 H 0.87548 0.49411 0.6342 0.0
H1513 H 0.75578 0.37316 0.61448 0.0
H1514 H 0.80383 0.44431 0.65758 0.0
H1515 H 0.80481 0.44512 0.59121 0.0
C1516 C 0.84052 0.47583 0.59316 0.0
C1517 C 0.86094 0.48993 0.60504 0.0
C1518 C 0.7933 0.42872 0.64812 0.0
C1519 C 0.82018 0.45017 0.62022 0.0
C1520 C 0.77344 0.4083 0.65557 0.0
C1521 C 0.7596 0.38775 0.64364 0.0
C1522 C 0.79909 0.42887 0.62857 0.0
C1523 C 0.76601 0.38857 0.62418 0.0
C1524 C 0.82028 0.45586 0.60065 0.0
C1525 C 0.86016 0.48367 0.62453 0.0
N1526 N 0.78522 0.40888 0.61723 0.0
N1527 N 0.84002 0.46431 0.63153 0.0
H1528 H 0.10576 0.46349 0.12266 0.0
H1529 H 0.26543 0.42629 0.15351 0.0
H1530 H 0.17554 0.51219 0.09543 0.0
H1531 H 0.21345 0.35684 0.12857 0.0
H1532 H 0.2301 0.46269 0.14102 0.0
H1533 H 0.14248 0.42794 0.13438 0.0
C1534 C 0.12884 0.46688 0.11939 0.0
C1535 C 0.13779 0.49067 0.1081 0.0
C1536 C 0.22665 0.43945 0.13828 0.0
C1537 C 0.17946 0.45078 0.12165 0.0
C1538 C 0.24663 0.41879 0.14536 0.0
C1539 C 0.2423 0.38868 0.14189 0.0
C1540 C 0.20174 0.4297 0.12836 0.0
C1541 C 0.21762 0.37993 0.13134 0.0
C1542 C 0.1496 0.44658 0.12593 0.0
C1543 C 0.16788 0.49401 0.10407 0.0
N1544 N 0.19791 0.40036 0.12517 0.0
N1545 N 0.1878 0.4744 0.11103 0.0
H1546 H 0.37702 0.49471 0.86379 0.0
H1547 H 0.2551 0.37255 0.88552 0.0
H1548 H 0.34083 0.48053 0.91968 0.0
H1549 H 0.27 0.40794 0.8295 0.0
H1550 H 0.28961 0.40896 0.8984 0.0
H1551 H 0.34096 0.45986 0.8509 0.0
C1552 C 0.36145 0.48433 0.87333 0.0
C1553 C 0.36188 0.49054 0.89282 0.0
C1554 C 0.2852 0.4088 0.8833 0.0
C1555 C 0.32086 0.45049 0.87824 0.0
C1556 C 0.26558 0.388 0.87595 0.0
C1557 C 0.25967 0.38726 0.85642 0.0
C1558 C 0.29929 0.42869 0.871 0.0
C1559 C 0.27385 0.40781 0.84465 0.0
C1560 C 0.34086 0.4645 0.86597 0.0
C1561 C 0.3412 0.47646 0.90455 0.0
N1562 N 0.29314 0.42756 0.85211 0.0
N1563 N 0.32166 0.45695 0.8971 0.0
H1564 H 0.37578 0.50401 0.63516 0.0
H1565 H 0.25343 0.62581 0.61378 0.0
H1566 H 0.33952 0.51817 0.57929 0.0
H1567 H 0.26778 0.58942 0.66959 0.0
H1568 H 0.28813 0.58967 0.60077 0.0
H1569 H 0.33946 0.53855 0.64811 0.0
C1570 C 0.36014 0.51433 0.62564 0.0
C1571 C 0.36062 0.5082 0.60614 0.0
C1572 C 0.28355 0.58954 0.61585 0.0
C1573 C 0.3193 0.54788 0.62079 0.0
C1574 C 0.26381 0.61018 0.62328 0.0
C1575 C 0.25769 0.61057 0.64278 0.0
C1576 C 0.29756 0.56948 0.62807 0.0
C1577 C 0.27177 0.58982 0.65445 0.0
C1578 C 0.3394 0.53396 0.63303 0.0
C1579 C 0.33985 0.52218 0.59443 0.0
N1580 N 0.2912 0.57026 0.64694 0.0
N1581 N 0.32017 0.54152 0.60191 0.0
H1582 H 0.1227 0.503 0.36338 0.0
H1583 H 0.24538 0.62418 0.38543 0.0
H1584 H 0.15841 0.51703 0.41941 0.0
H1585 H 0.23097 0.58848 0.32944 0.0
H1586 H 0.21054 0.58802 0.39825 0.0
H1587 H 0.15932 0.53737 0.35059 0.0
C1588 C 0.13828 0.51325 0.37297 0.0
C1589 C 0.13756 0.50715 0.39247 0.0
C1590 C 0.21515 0.58805 0.38317 0.0
C1591 C 0.17921 0.54662 0.37801 0.0
C1592 C 0.23496 0.60869 0.37586 0.0
C1593 C 0.24109 0.60929 0.35636 0.0
C1594 C 0.20107 0.56818 0.37085 0.0
C1595 C 0.22697 0.58872 0.34458 0.0
C1596 C 0.1592 0.53279 0.36567 0.0
C1597 C 0.15826 0.52103 0.40427 0.0
N1598 N 0.20747 0.56914 0.35198 0.0
N1599 N 0.17812 0.54027 0.39688 0.0
loop_
_geom_bond_atom_site_label_1
_geom_bond_atom_site_label_2
_geom_bond_distance
_geom_bond_site_symmetry_2
_ccdc_geom_bond_type
Co0 O1 2.216 . S
Co0 O2 2.091 . S
Co0 O4 2.004 . S
Co0 O10 2.021 . S
Co0 O12 2.137 . S
Co0 O13 2.244 . S
O1 Co0 2.216 . S
O1 C8 1.247 . S
O2 Co0 2.091 . S
O2 C8 1.261 . S
C3 O12 1.247 . S
C3 O13 1.272 . S
O4 Co0 2.004 . S
O4 C9 1.259 . S
Co5 O6 2.061 . S
Co5 O11 2.052 . S
Co5 O13 2.135 . S
O6 Co5 2.061 . S
O6 C9 1.235 . S
C7 O10 1.238 . S
C7 O11 1.241 . S
C8 O1 1.247 . S
C8 O2 1.261 . S
C9 O4 1.259 . S
C9 O6 1.235 . S
O10 Co0 2.021 . S
O10 C7 1.238 . S
O11 Co5 2.052 . S
O11 C7 1.241 . S
O12 Co0 2.137 . S
O12 C3 1.247 . S
O13 Co0 2.244 . S
O13 C3 1.272 . S
O13 Co5 2.135 . S
Co14 O15 2.216 . S
Co14 O16 2.091 1_565 S
Co14 O18 2.004 . S
Co14 O24 2.021 . S
Co14 O26 2.137 1_565 S
Co14 O27 2.244 . S
O15 Co14 2.216 . S
O15 C22 1.247 1_565 S
O16 Co14 2.091 1_545 S
O16 C22 1.261 . S
C17 O26 1.247 1_565 S
C17 O27 1.272 . S
O18 Co14 2.004 . S
O18 C23 1.261 . S
Co19 O20 2.061 . S
Co19 O25 2.052 . S
Co19 O27 2.135 . S
O20 Co19 2.061 . S
O20 C23 1.236 . S
C21 O24 1.238 . S
C21 O25 1.241 . S
C22 O15 1.247 1_545 S
C22 O16 1.261 . S
C23 O18 1.261 . S
C23 O20 1.236 . S
O24 Co14 2.021 . S
O24 C21 1.238 . S
O25 Co19 2.052 . S
O25 C21 1.241 . S
O26 Co14 2.137 1_545 S
O26 C17 1.247 1_545 S
O27 Co14 2.244 . S
O27 C17 1.272 . S
O27 Co19 2.135 . S
Co28 O29 2.216 . S
Co28 O30 2.091 . S
Co28 O32 2.004 . S
Co28 O38 2.021 . S
Co28 O40 2.137 . S
Co28 O41 2.244 . S
O29 Co28 2.216 . S
O29 C36 1.247 . S
O30 Co28 2.091 . S
O30 C36 1.261 . S
C31 O40 1.247 . S
C31 O41 1.272 . S
O32 Co28 2.004 . S
O32 C37 1.259 . S
Co33 O34 2.061 . S
Co33 O39 2.052 . S
Co33 O41 2.135 . S
O34 Co33 2.061 . S
O34 C37 1.235 . S
C35 O38 1.238 . S
C35 O39 1.241 . S
C36 O29 1.247 . S
C36 O30 1.261 . S
C37 O32 1.259 . S
C37 O34 1.235 . S
O38 Co28 2.021 . S
O38 C35 1.238 . S
O39 Co33 2.052 . S
O39 C35 1.241 . S
O40 Co28 2.137 . S
O40 C31 1.247 . S
O41 Co28 2.244 . S
O41 C31 1.272 . S
O41 Co33 2.135 . S
Co42 O43 2.216 . S
Co42 O44 2.091 1_545 S
Co42 O46 2.004 . S
Co42 O52 2.021 . S
Co42 O54 2.137 1_545 S
Co42 O55 2.244 . S
O43 Co42 2.216 . S
O43 C50 1.247 1_545 S
O44 Co42 2.091 1_565 S
O44 C50 1.261 . S
C45 O54 1.247 1_545 S
C45 O55 1.272 . S
O46 Co42 2.004 . S
O46 C51 1.259 . S
Co47 O48 2.061 . S
Co47 O53 2.052 . S
Co47 O55 2.135 . S
O48 Co47 2.061 . S
O48 C51 1.235 . S
C49 O52 1.238 . S
C49 O53 1.241 . S
C50 O43 1.247 1_565 S
C50 O44 1.261 . S
C51 O46 1.259 . S
C51 O48 1.235 . S
O52 Co42 2.021 . S
O52 C49 1.238 . S
O53 Co47 2.052 . S
O53 C49 1.241 . S
O54 Co42 2.137 1_565 S
O54 C45 1.247 1_565 S
O55 Co42 2.244 . S
O55 C45 1.272 . S
O55 Co47 2.135 . S
Co56 O57 2.216 . S
Co56 O58 2.091 . S
Co56 O60 2.004 . S
Co56 O66 2.021 . S
Co56 O68 2.137 . S
Co56 O69 2.244 . S
O57 Co56 2.216 . S
O57 C64 1.247 . S
O58 Co56 2.091 . S
O58 C64 1.261 . S
C59 O68 1.247 . S
C59 O69 1.272 . S
O60 Co56 2.004 . S
O60 C65 1.259 . S
Co61 O62 2.061 . S
Co61 O67 2.052 . S
Co61 O69 2.135 . S
O62 Co61 2.061 . S
O62 C65 1.235 . S
C63 O66 1.238 . S
C63 O67 1.241 . S
C64 O57 1.247 . S
C64 O58 1.261 . S
C65 O60 1.259 . S
C65 O62 1.235 . S
O66 Co56 2.021 . S
O66 C63 1.238 . S
O67 Co61 2.052 . S
O67 C63 1.241 . S
O68 Co56 2.137 . S
O68 C59 1.247 . S
O69 Co56 2.244 . S
O69 C59 1.272 . S
O69 Co61 2.135 . S
Co70 O71 2.216 . S
Co70 O72 2.091 1_565 S
Co70 O74 2.004 . S
Co70 O80 2.021 . S
Co70 O82 2.137 1_565 S
Co70 O83 2.244 . S
O71 Co70 2.216 . S
O71 C78 1.247 1_565 S
O72 Co70 2.091 1_545 S
O72 C78 1.261 . S
C73 O82 1.247 1_565 S
C73 O83 1.272 . S
O74 Co70 2.004 . S
O74 C79 1.259 . S
Co75 O76 2.061 . S
Co75 O81 2.052 . S
Co75 O83 2.135 . S
O76 Co75 2.061 . S
O76 C79 1.235 . S
C77 O80 1.238 . S
C77 O81 1.241 . S
C78 O71 1.247 1_545 S
C78 O72 1.261 . S
C79 O74 1.259 . S
C79 O76 1.235 . S
O80 Co70 2.021 . S
O80 C77 1.238 . S
O81 Co75 2.052 . S
O81 C77 1.241 . S
O82 Co70 2.137 1_545 S
O82 C73 1.247 1_545 S
O83 Co70 2.244 . S
O83 C73 1.272 . S
O83 Co75 2.135 . S
Co84 O85 2.216 . S
Co84 O86 2.091 . S
Co84 O88 2.004 . S
Co84 O94 2.021 . S
Co84 O96 2.137 . S
Co84 O97 2.244 . S
O85 Co84 2.216 . S
O85 C92 1.247 . S
O86 Co84 2.091 . S
O86 C92 1.261 . S
C87 O96 1.247 . S
C87 O97 1.272 . S
O88 Co84 2.004 . S
O88 C93 1.259 . S
Co89 O90 2.061 . S
Co89 O95 2.052 . S
Co89 O97 2.135 . S
O90 Co89 2.061 . S
O90 C93 1.235 . S
C91 O94 1.238 . S
C91 O95 1.241 . S
C92 O85 1.247 . S
C92 O86 1.261 . S
C93 O88 1.259 . S
C93 O90 1.235 . S
O94 Co84 2.021 . S
O94 C91 1.238 . S
O95 Co89 2.052 . S
O95 C91 1.241 . S
O96 Co84 2.137 . S
O96 C87 1.247 . S
O97 Co84 2.244 . S
O97 C87 1.272 . S
O97 Co89 2.135 . S
Co98 O99 2.216 . S
Co98 O100 2.091 1_545 S
Co98 O102 2.004 . S
Co98 O108 2.021 . S
Co98 O110 2.137 1_545 S
Co98 O111 2.244 . S
O99 Co98 2.216 . S
O99 C106 1.247 1_545 S
O100 Co98 2.091 1_565 S
O100 C106 1.261 . S
C101 O110 1.247 1_545 S
C101 O111 1.272 . S
O102 Co98 2.004 . S
O102 C107 1.261 . S
Co103 O104 2.061 . S
Co103 O109 2.052 . S
Co103 O111 2.135 . S
O104 Co103 2.061 . S
O104 C107 1.236 . S
C105 O108 1.238 . S
C105 O109 1.241 . S
C106 O99 1.247 1_565 S
C106 O100 1.261 . S
C107 O102 1.261 . S
C107 O104 1.236 . S
O108 Co98 2.021 . S
O108 C105 1.238 . S
O109 Co103 2.052 . S
O109 C105 1.241 . S
O110 Co98 2.137 1_565 S
O110 C101 1.247 1_565 S
O111 Co98 2.244 . S
O111 C101 1.272 . S
O111 Co103 2.135 . S
Co112 O113 2.216 . S
Co112 O114 2.091 . S
Co112 O116 2.004 . S
Co112 O122 2.021 . S
Co112 O124 2.137 . S
Co112 O125 2.244 . S
O113 Co112 2.216 . S
O113 C120 1.247 . S
O114 Co112 2.091 . S
O114 C120 1.261 . S
C115 O124 1.247 . S
C115 O125 1.272 . S
O116 Co112 2.004 . S
O116 C121 1.259 . S
Co117 O118 2.061 . S
Co117 O123 2.052 . S
Co117 O125 2.135 . S
O118 Co117 2.061 . S
O118 C121 1.235 . S
C119 O122 1.238 . S
C119 O123 1.241 . S
C120 O113 1.247 . S
C120 O114 1.261 . S
C121 O116 1.259 . S
C121 O118 1.235 . S
O122 Co112 2.021 . S
O122 C119 1.238 . S
O123 Co117 2.052 . S
O123 C119 1.241 . S
O124 Co112 2.137 . S
O124 C115 1.247 . S
O125 Co112 2.244 . S
O125 C115 1.272 . S
O125 Co117 2.135 . S
Co126 O127 2.216 . S
Co126 O128 2.091 1_545 S
Co126 O130 2.004 . S
Co126 O136 2.021 . S
Co126 O138 2.137 1_545 S
Co126 O139 2.244 . S
O127 Co126 2.216 . S
O127 C134 1.247 1_545 S
O128 Co126 2.091 1_565 S
O128 C134 1.261 . S
C129 O138 1.247 1_545 S
C129 O139 1.272 . S
O130 Co126 2.004 . S
O130 C135 1.261 . S
Co131 O132 2.061 . S
Co131 O137 2.052 . S
Co131 O139 2.135 . S
O132 Co131 2.061 . S
O132 C135 1.236 . S
C133 O136 1.238 . S
C133 O137 1.241 . S
C134 O127 1.247 1_565 S
C134 O128 1.261 . S
C135 O130 1.261 . S
C135 O132 1.236 . S
O136 Co126 2.021 . S
O136 C133 1.238 . S
O137 Co131 2.052 . S
O137 C133 1.241 . S
O138 Co126 2.137 1_565 S
O138 C129 1.247 1_565 S
O139 Co126 2.244 . S
O139 C129 1.272 . S
O139 Co131 2.135 . S
Co140 O141 2.216 . S
Co140 O142 2.091 . S
Co140 O144 2.004 . S
Co140 O150 2.021 . S
Co140 O152 2.137 . S
Co140 O153 2.244 . S
O141 Co140 2.216 . S
O141 C148 1.247 . S
O142 Co140 2.091 . S
O142 C148 1.261 . S
C143 O152 1.247 . S
C143 O153 1.272 . S
O144 Co140 2.004 . S
O144 C149 1.259 . S
Co145 O146 2.061 . S
Co145 O151 2.052 . S
Co145 O153 2.135 . S
O146 Co145 2.061 . S
O146 C149 1.235 . S
C147 O150 1.238 . S
C147 O151 1.241 . S
C148 O141 1.247 . S
C148 O142 1.261 . S
C149 O144 1.259 . S
C149 O146 1.235 . S
O150 Co140 2.021 . S
O150 C147 1.238 . S
O151 Co145 2.052 . S
O151 C147 1.241 . S
O152 Co140 2.137 . S
O152 C143 1.247 . S
O153 Co140 2.244 . S
O153 C143 1.272 . S
O153 Co145 2.135 . S
Co154 O155 2.216 . S
Co154 O156 2.091 1_565 S
Co154 O158 2.004 . S
Co154 O164 2.021 . S
Co154 O166 2.137 1_565 S
Co154 O167 2.244 . S
O155 Co154 2.216 . S
O155 C162 1.247 1_565 S
O156 Co154 2.091 1_545 S
O156 C162 1.261 . S
C157 O166 1.247 1_565 S
C157 O167 1.272 . S
O158 Co154 2.004 . S
O158 C163 1.259 . S
Co159 O160 2.061 . S
Co159 O165 2.052 . S
Co159 O167 2.135 . S
O160 Co159 2.061 . S
O160 C163 1.235 . S
C161 O164 1.238 . S
C161 O165 1.241 . S
C162 O155 1.247 1_545 S
C162 O156 1.261 . S
C163 O158 1.259 . S
C163 O160 1.235 . S
O164 Co154 2.021 . S
O164 C161 1.238 . S
O165 Co159 2.052 . S
O165 C161 1.241 . S
O166 Co154 2.137 1_545 S
O166 C157 1.247 1_545 S
O167 Co154 2.244 . S
O167 C157 1.272 . S
O167 Co159 2.135 . S
Co168 O169 2.216 . S
Co168 O170 2.091 . S
Co168 O172 2.004 . S
Co168 O178 2.021 . S
Co168 O180 2.137 . S
Co168 O181 2.244 . S
O169 Co168 2.216 . S
O169 C176 1.247 . S
O170 Co168 2.091 . S
O170 C176 1.261 . S
C171 O180 1.247 . S
C171 O181 1.272 . S
O172 Co168 2.004 . S
O172 C177 1.259 . S
Co173 O174 2.061 . S
Co173 O179 2.052 . S
Co173 O181 2.135 . S
O174 Co173 2.061 . S
O174 C177 1.235 . S
C175 O178 1.238 . S
C175 O179 1.241 . S
C176 O169 1.247 . S
C176 O170 1.261 . S
C177 O172 1.259 . S
C177 O174 1.235 . S
O178 Co168 2.021 . S
O178 C175 1.238 . S
O179 Co173 2.052 . S
O179 C175 1.241 . S
O180 Co168 2.137 . S
O180 C171 1.247 . S
O181 Co168 2.244 . S
O181 C171 1.272 . S
O181 Co173 2.135 . S
Co182 O183 2.216 . S
Co182 O184 2.091 1_545 S
Co182 O186 2.004 . S
Co182 O192 2.021 . S
Co182 O194 2.137 1_545 S
Co182 O195 2.244 . S
O183 Co182 2.216 . S
O183 C190 1.247 1_545 S
O184 Co182 2.091 1_565 S
O184 C190 1.261 . S
C185 O194 1.247 1_545 S
C185 O195 1.272 . S
O186 Co182 2.004 . S
O186 C191 1.259 . S
Co187 O188 2.061 . S
Co187 O193 2.052 . S
Co187 O195 2.135 . S
O188 Co187 2.061 . S
O188 C191 1.235 . S
C189 O192 1.238 . S
C189 O193 1.241 . S
C190 O183 1.247 1_565 S
C190 O184 1.261 . S
C191 O186 1.259 . S
C191 O188 1.235 . S
O192 Co182 2.021 . S
O192 C189 1.238 . S
O193 Co187 2.052 . S
O193 C189 1.241 . S
O194 Co182 2.137 1_565 S
O194 C185 1.247 1_565 S
O195 Co182 2.244 . S
O195 C185 1.272 . S
O195 Co187 2.135 . S
Co196 O197 2.216 . S
Co196 O198 2.091 . S
Co196 O200 2.004 . S
Co196 O206 2.021 . S
Co196 O208 2.137 . S
Co196 O209 2.244 . S
O197 Co196 2.216 . S
O197 C204 1.247 . S
O198 Co196 2.091 . S
O198 C204 1.261 . S
C199 O208 1.247 . S
C199 O209 1.272 . S
O200 Co196 2.004 . S
O200 C205 1.259 . S
Co201 O202 2.061 . S
Co201 O207 2.052 . S
Co201 O209 2.135 . S
O202 Co201 2.061 . S
O202 C205 1.235 . S
C203 O206 1.238 . S
C203 O207 1.241 . S
C204 O197 1.247 . S
C204 O198 1.261 . S
C205 O200 1.259 . S
C205 O202 1.235 . S
O206 Co196 2.021 . S
O206 C203 1.238 . S
O207 Co201 2.052 . S
O207 C203 1.241 . S
O208 Co196 2.137 . S
O208 C199 1.247 . S
O209 Co196 2.244 . S
O209 C199 1.272 . S
O209 Co201 2.135 . S
Co210 O211 2.216 . S
Co210 O212 2.091 1_565 S
Co210 O214 2.004 . S
Co210 O220 2.021 . S
Co210 O222 2.137 1_565 S
Co210 O223 2.244 . S
O211 Co210 2.216 . S
O211 C218 1.247 1_565 S
O212 Co210 2.091 1_545 S
O212 C218 1.261 . S
C213 O222 1.247 1_565 S
C213 O223 1.272 . S
O214 Co210 2.004 . S
O214 C219 1.261 . S
Co215 O216 2.061 . S
Co215 O221 2.052 . S
Co215 O223 2.135 . S
O216 Co215 2.061 . S
O216 C219 1.236 . S
C217 O220 1.238 . S
C217 O221 1.241 . S
C218 O211 1.247 1_545 S
C218 O212 1.261 . S
C219 O214 1.261 . S
C219 O216 1.236 . S
O220 Co210 2.021 . S
O220 C217 1.238 . S
O221 Co215 2.052 . S
O221 C217 1.241 . S
O222 Co210 2.137 1_545 S
O222 C213 1.247 1_545 S
O223 Co210 2.244 . S
O223 C213 1.272 . S
O223 Co215 2.135 . S
Co224 O225 2.216 . S
Co224 O226 2.091 . S
Co224 O228 2.004 . S
Co224 O234 2.021 . S
Co224 O236 2.137 . S
Co224 O237 2.244 . S
O225 Co224 2.216 . S
O225 C232 1.247 . S
O226 Co224 2.091 . S
O226 C232 1.261 . S
C227 O236 1.247 . S
C227 O237 1.272 . S
O228 Co224 2.004 . S
O228 C233 1.259 . S
Co229 O230 2.061 . S
Co229 O235 2.052 . S
Co229 O237 2.135 . S
O230 Co229 2.061 . S
O230 C233 1.235 . S
C231 O234 1.238 . S
C231 O235 1.241 . S
C232 O225 1.247 . S
C232 O226 1.261 . S
C233 O228 1.259 . S
C233 O230 1.235 . S
O234 Co224 2.021 . S
O234 C231 1.238 . S
O235 Co229 2.052 . S
O235 C231 1.241 . S
O236 Co224 2.137 . S
O236 C227 1.247 . S
O237 Co224 2.244 . S
O237 C227 1.272 . S
O237 Co229 2.135 . S
Co238 O239 2.216 . S
Co238 O240 2.091 . S
Co238 O242 2.004 . S
Co238 O248 2.021 . S
Co238 O250 2.137 . S
Co238 O251 2.244 . S
O239 Co238 2.216 . S
O239 C246 1.247 . S
O240 Co238 2.091 . S
O240 C246 1.261 . S
C241 O250 1.247 . S
C241 O251 1.272 . S
O242 Co238 2.004 . S
O242 C247 1.259 . S
Co243 O244 2.061 . S
Co243 O249 2.052 . S
Co243 O251 2.135 . S
O244 Co243 2.061 . S
O244 C247 1.235 . S
C245 O248 1.238 . S
C245 O249 1.241 . S
C246 O239 1.247 . S
C246 O240 1.261 . S
C247 O242 1.259 . S
C247 O244 1.235 . S
O248 Co238 2.021 . S
O248 C245 1.238 . S
O249 Co243 2.052 . S
O249 C245 1.241 . S
O250 Co238 2.137 . S
O250 C241 1.247 . S
O251 Co238 2.244 . S
O251 C241 1.272 . S
O251 Co243 2.135 . S
Co252 O253 2.216 . S
Co252 O254 2.091 . S
Co252 O256 2.004 . S
Co252 O262 2.021 . S
Co252 O264 2.137 . S
Co252 O265 2.244 . S
O253 Co252 2.216 . S
O253 C260 1.247 . S
O254 Co252 2.091 . S
O254 C260 1.261 . S
C255 O264 1.247 . S
C255 O265 1.272 . S
O256 Co252 2.004 . S
O256 C261 1.259 . S
Co257 O258 2.061 . S
Co257 O263 2.052 . S
Co257 O265 2.135 . S
O258 Co257 2.061 . S
O258 C261 1.235 . S
C259 O262 1.238 . S
C259 O263 1.241 . S
C260 O253 1.247 . S
C260 O254 1.261 . S
C261 O256 1.259 . S
C261 O258 1.235 . S
O262 Co252 2.021 . S
O262 C259 1.238 . S
O263 Co257 2.052 . S
O263 C259 1.241 . S
O264 Co252 2.137 . S
O264 C255 1.247 . S
O265 Co252 2.244 . S
O265 C255 1.272 . S
O265 Co257 2.135 . S
Co266 O267 2.216 . S
Co266 O268 2.091 . S
Co266 O270 2.004 . S
Co266 O276 2.021 . S
Co266 O278 2.137 . S
Co266 O279 2.244 . S
O267 Co266 2.216 . S
O267 C274 1.247 . S
O268 Co266 2.091 . S
O268 C274 1.261 . S
C269 O278 1.247 . S
C269 O279 1.272 . S
O270 Co266 2.004 . S
O270 C275 1.262 . S
Co271 O272 2.061 . S
Co271 O277 2.052 . S
Co271 O279 2.135 . S
O272 Co271 2.061 . S
O272 C275 1.236 . S
C273 O276 1.238 . S
C273 O277 1.241 . S
C274 O267 1.247 . S
C274 O268 1.261 . S
C275 O270 1.262 . S
C275 O272 1.236 . S
O276 Co266 2.021 . S
O276 C273 1.238 . S
O277 Co271 2.052 . S
O277 C273 1.241 . S
O278 Co266 2.137 . S
O278 C269 1.247 . S
O279 Co266 2.244 . S
O279 C269 1.272 . S
O279 Co271 2.135 . S
Co280 O281 2.216 . S
Co280 O282 2.091 . S
Co280 O284 2.004 . S
Co280 O290 2.021 . S
Co280 O292 2.137 . S
Co280 O293 2.244 . S
O281 Co280 2.216 . S
O281 C288 1.247 . S
O282 Co280 2.091 . S
O282 C288 1.261 . S
C283 O292 1.247 . S
C283 O293 1.272 . S
O284 Co280 2.004 . S
O284 C289 1.259 . S
Co285 O286 2.061 . S
Co285 O291 2.052 . S
Co285 O293 2.135 . S
O286 Co285 2.061 . S
O286 C289 1.235 . S
C287 O290 1.238 . S
C287 O291 1.241 . S
C288 O281 1.247 . S
C288 O282 1.261 . S
C289 O284 1.259 . S
C289 O286 1.235 . S
O290 Co280 2.021 . S
O290 C287 1.238 . S
O291 Co285 2.052 . S
O291 C287 1.241 . S
O292 Co280 2.137 . S
O292 C283 1.247 . S
O293 Co280 2.244 . S
O293 C283 1.272 . S
O293 Co285 2.135 . S
Co294 O295 2.216 . S
Co294 O296 2.091 . S
Co294 O298 2.004 . S
Co294 O304 2.021 . S
Co294 O306 2.137 . S
Co294 O307 2.244 . S
O295 Co294 2.216 . S
O295 C302 1.247 . S
O296 Co294 2.091 . S
O296 C302 1.261 . S
C297 O306 1.247 . S
C297 O307 1.272 . S
O298 Co294 2.004 . S
O298 C303 1.262 . S
Co299 O300 2.061 . S
Co299 O305 2.052 . S
Co299 O307 2.135 . S
O300 Co299 2.061 . S
O300 C303 1.236 . S
C301 O304 1.238 . S
C301 O305 1.241 . S
C302 O295 1.247 . S
C302 O296 1.261 . S
C303 O298 1.262 . S
C303 O300 1.236 . S
O304 Co294 2.021 . S
O304 C301 1.238 . S
O305 Co299 2.052 . S
O305 C301 1.241 . S
O306 Co294 2.137 . S
O306 C297 1.247 . S
O307 Co294 2.244 . S
O307 C297 1.272 . S
O307 Co299 2.135 . S
Co308 O309 2.216 . S
Co308 O310 2.091 . S
Co308 O312 2.004 . S
Co308 O318 2.021 . S
Co308 O320 2.137 . S
Co308 O321 2.244 . S
O309 Co308 2.216 . S
O309 C316 1.247 . S
O310 Co308 2.091 . S
O310 C316 1.261 . S
C311 O320 1.247 . S
C311 O321 1.272 . S
O312 Co308 2.004 . S
O312 C317 1.259 . S
Co313 O314 2.061 . S
Co313 O319 2.052 . S
Co313 O321 2.135 . S
O314 Co313 2.061 . S
O314 C317 1.235 . S
C315 O318 1.238 . S
C315 O319 1.241 . S
C316 O309 1.247 . S
C316 O310 1.261 . S
C317 O312 1.259 . S
C317 O314 1.235 . S
O318 Co308 2.021 . S
O318 C315 1.238 . S
O319 Co313 2.052 . S
O319 C315 1.241 . S
O320 Co308 2.137 . S
O320 C311 1.247 . S
O321 Co308 2.244 . S
O321 C311 1.272 . S
O321 Co313 2.135 . S
Co322 O323 2.216 . S
Co322 O324 2.091 . S
Co322 O326 2.004 . S
Co322 O332 2.021 . S
Co322 O334 2.137 . S
Co322 O335 2.244 . S
O323 Co322 2.216 . S
O323 C330 1.247 . S
O324 Co322 2.091 . S
O324 C330 1.261 . S
C325 O334 1.247 . S
C325 O335 1.272 . S
O326 Co322 2.004 . S
O326 C331 1.259 . S
Co327 O328 2.061 . S
Co327 O333 2.052 . S
Co327 O335 2.135 . S
O328 Co327 2.061 . S
O328 C331 1.235 . S
C329 O332 1.238 . S
C329 O333 1.241 . S
C330 O323 1.247 . S
C330 O324 1.261 . S
C331 O326 1.259 . S
C331 O328 1.235 . S
O332 Co322 2.021 . S
O332 C329 1.238 . S
O333 Co327 2.052 . S
O333 C329 1.241 . S
O334 Co322 2.137 . S
O334 C325 1.247 . S
O335 Co322 2.244 . S
O335 C325 1.272 . S
O335 Co327 2.135 . S
Co336 O337 2.216 . S
Co336 O338 2.091 . S
Co336 O340 2.004 . S
Co336 O346 2.021 . S
Co336 O348 2.137 . S
Co336 O349 2.244 . S
O337 Co336 2.216 . S
O337 C344 1.247 . S
O338 Co336 2.091 . S
O338 C344 1.261 . S
C339 O348 1.247 . S
C339 O349 1.272 . S
O340 Co336 2.004 . S
O340 C345 1.259 . S
Co341 O342 2.061 . S
Co341 O347 2.052 . S
Co341 O349 2.135 . S
O342 Co341 2.061 . S
O342 C345 1.235 . S
C343 O346 1.238 . S
C343 O347 1.241 . S
C344 O337 1.247 . S
C344 O338 1.261 . S
C345 O340 1.259 . S
C345 O342 1.235 . S
O346 Co336 2.021 . S
O346 C343 1.238 . S
O347 Co341 2.052 . S
O347 C343 1.241 . S
O348 Co336 2.137 . S
O348 C339 1.247 . S
O349 Co336 2.244 . S
O349 C339 1.272 . S
O349 Co341 2.135 . S
Co350 O351 2.216 . S
Co350 O352 2.091 . S
Co350 O354 2.004 . S
Co350 O360 2.021 . S
Co350 O362 2.137 . S
Co350 O363 2.244 . S
O351 Co350 2.216 . S
O351 C358 1.247 . S
O352 Co350 2.091 . S
O352 C358 1.261 . S
C353 O362 1.247 . S
C353 O363 1.272 . S
O354 Co350 2.004 . S
O354 C359 1.259 . S
Co355 O356 2.061 . S
Co355 O361 2.052 . S
Co355 O363 2.135 . S
O356 Co355 2.061 . S
O356 C359 1.235 . S
C357 O360 1.238 . S
C357 O361 1.241 . S
C358 O351 1.247 . S
C358 O352 1.261 . S
C359 O354 1.259 . S
C359 O356 1.235 . S
O360 Co350 2.021 . S
O360 C357 1.238 . S
O361 Co355 2.052 . S
O361 C357 1.241 . S
O362 Co350 2.137 . S
O362 C353 1.247 . S
O363 Co350 2.244 . S
O363 C353 1.272 . S
O363 Co355 2.135 . S
Co364 O365 2.216 . S
Co364 O366 2.091 . S
Co364 O368 2.004 . S
Co364 O374 2.021 . S
Co364 O376 2.137 . S
Co364 O377 2.244 . S
O365 Co364 2.216 . S
O365 C372 1.247 . S
O366 Co364 2.091 . S
O366 C372 1.261 . S
C367 O376 1.247 . S
C367 O377 1.272 . S
O368 Co364 2.004 . S
O368 C373 1.259 . S
Co369 O370 2.061 . S
Co369 O375 2.052 . S
Co369 O377 2.135 . S
O370 Co369 2.061 . S
O370 C373 1.235 . S
C371 O374 1.238 . S
C371 O375 1.241 . S
C372 O365 1.247 . S
C372 O366 1.261 . S
C373 O368 1.259 . S
C373 O370 1.235 . S
O374 Co364 2.021 . S
O374 C371 1.238 . S
O375 Co369 2.052 . S
O375 C371 1.241 . S
O376 Co364 2.137 . S
O376 C367 1.247 . S
O377 Co364 2.244 . S
O377 C367 1.272 . S
O377 Co369 2.135 . S
Co378 O379 2.216 . S
Co378 O380 2.091 . S
Co378 O382 2.004 . S
Co378 O388 2.021 . S
Co378 O390 2.137 . S
Co378 O391 2.244 . S
O379 Co378 2.216 . S
O379 C386 1.247 . S
O380 Co378 2.091 . S
O380 C386 1.261 . S
C381 O390 1.247 . S
C381 O391 1.272 . S
O382 Co378 2.004 . S
O382 C387 1.262 . S
Co383 O384 2.061 . S
Co383 O389 2.052 . S
Co383 O391 2.135 . S
O384 Co383 2.061 . S
O384 C387 1.236 . S
C385 O388 1.238 . S
C385 O389 1.241 . S
C386 O379 1.247 . S
C386 O380 1.261 . S
C387 O382 1.262 . S
C387 O384 1.236 . S
O388 Co378 2.021 . S
O388 C385 1.238 . S
O389 Co383 2.052 . S
O389 C385 1.241 . S
O390 Co378 2.137 . S
O390 C381 1.247 . S
O391 Co378 2.244 . S
O391 C381 1.272 . S
O391 Co383 2.135 . S
Co392 O393 2.216 . S
Co392 O394 2.091 . S
Co392 O396 2.004 . S
Co392 O402 2.021 . S
Co392 O404 2.137 . S
Co392 O405 2.244 . S
O393 Co392 2.216 . S
O393 C400 1.247 . S
O394 Co392 2.091 . S
O394 C400 1.261 . S
C395 O404 1.247 . S
C395 O405 1.272 . S
O396 Co392 2.004 . S
O396 C401 1.259 . S
Co397 O398 2.061 . S
Co397 O403 2.052 . S
Co397 O405 2.135 . S
O398 Co397 2.061 . S
O398 C401 1.235 . S
C399 O402 1.238 . S
C399 O403 1.241 . S
C400 O393 1.247 . S
C400 O394 1.261 . S
C401 O396 1.259 . S
C401 O398 1.235 . S
O402 Co392 2.021 . S
O402 C399 1.238 . S
O403 Co397 2.052 . S
O403 C399 1.241 . S
O404 Co392 2.137 . S
O404 C395 1.247 . S
O405 Co392 2.244 . S
O405 C395 1.272 . S
O405 Co397 2.135 . S
Co406 O407 2.216 . S
Co406 O408 2.091 . S
Co406 O410 2.004 . S
Co406 O416 2.021 . S
Co406 O418 2.137 . S
Co406 O419 2.244 . S
O407 Co406 2.216 . S
O407 C414 1.247 . S
O408 Co406 2.091 . S
O408 C414 1.261 . S
C409 O418 1.247 . S
C409 O419 1.272 . S
O410 Co406 2.004 . S
O410 C415 1.262 . S
Co411 O412 2.061 . S
Co411 O417 2.052 . S
Co411 O419 2.135 . S
O412 Co411 2.061 . S
O412 C415 1.236 . S
C413 O416 1.238 . S
C413 O417 1.241 . S
C414 O407 1.247 . S
C414 O408 1.261 . S
C415 O410 1.262 . S
C415 O412 1.236 . S
O416 Co406 2.021 . S
O416 C413 1.238 . S
O417 Co411 2.052 . S
O417 C413 1.241 . S
O418 Co406 2.137 . S
O418 C409 1.247 . S
O419 Co406 2.244 . S
O419 C409 1.272 . S
O419 Co411 2.135 . S
Co420 O421 2.216 . S
Co420 O422 2.091 . S
Co420 O424 2.004 . S
Co420 O430 2.021 . S
Co420 O432 2.137 . S
Co420 O433 2.244 . S
O421 Co420 2.216 . S
O421 C428 1.247 . S
O422 Co420 2.091 . S
O422 C428 1.261 . S
C423 O432 1.247 . S
C423 O433 1.272 . S
O424 Co420 2.004 . S
O424 C429 1.259 . S
Co425 O426 2.061 . S
Co425 O431 2.052 . S
Co425 O433 2.135 . S
O426 Co425 2.061 . S
O426 C429 1.235 . S
C427 O430 1.238 . S
C427 O431 1.241 . S
C428 O421 1.247 . S
C428 O422 1.261 . S
C429 O424 1.259 . S
C429 O426 1.235 . S
O430 Co420 2.021 . S
O430 C427 1.238 . S
O431 Co425 2.052 . S
O431 C427 1.241 . S
O432 Co420 2.137 . S
O432 C423 1.247 . S
O433 Co420 2.244 . S
O433 C423 1.272 . S
O433 Co425 2.135 . S
Co434 O435 2.216 . S
Co434 O436 2.091 . S
Co434 O438 2.004 . S
Co434 O444 2.021 . S
Co434 O446 2.137 . S
Co434 O447 2.244 . S
O435 Co434 2.216 . S
O435 C442 1.247 . S
O436 Co434 2.091 . S
O436 C442 1.261 . S
C437 O446 1.247 . S
C437 O447 1.272 . S
O438 Co434 2.004 . S
O438 C443 1.259 . S
Co439 O440 2.061 . S
Co439 O445 2.052 . S
Co439 O447 2.135 . S
O440 Co439 2.061 . S
O440 C443 1.235 . S
C441 O444 1.238 . S
C441 O445 1.241 . S
C442 O435 1.247 . S
C442 O436 1.261 . S
C443 O438 1.259 . S
C443 O440 1.235 . S
O444 Co434 2.021 . S
O444 C441 1.238 . S
O445 Co439 2.052 . S
O445 C441 1.241 . S
O446 Co434 2.137 . S
O446 C437 1.247 . S
O447 Co434 2.244 . S
O447 C437 1.272 . S
O447 Co439 2.135 . S
H448 C454 0.930 . S
H449 C458 0.930 . S
H450 C463 0.929 . S
H451 C461 0.929 . S
H452 C456 0.929 . S
H453 C462 0.929 . S
C454 H448 0.930 . S
C454 C455 1.367 . S
C454 C462 1.378 . S
C455 C454 1.367 . S
C455 C463 1.433 . S
C456 H452 0.929 . S
C456 C458 1.378 . S
C456 C460 1.350 . S
C457 C460 1.463 . S
C457 C462 1.350 . S
C457 N465 1.427 . S
C458 H449 0.930 . S
C458 C456 1.378 . S
C458 C459 1.367 . S
C459 C458 1.367 . S
C459 C461 1.433 . S
C460 C456 1.350 . S
C460 C457 1.463 . S
C460 N464 1.427 . S
C461 H451 0.929 . S
C461 C459 1.433 . S
C461 N464 1.384 . S
C462 H453 0.929 . S
C462 C454 1.378 . S
C462 C457 1.350 . S
C463 H450 0.929 . S
C463 C455 1.433 . S
C463 N465 1.384 . S
N464 C460 1.427 . S
N464 C461 1.384 . S
N465 C457 1.427 . S
N465 C463 1.384 . S
H466 C472 0.930 . S
H467 C476 0.930 . S
H468 C481 0.929 . S
H469 C479 0.929 . S
H470 C474 0.929 . S
H471 C480 0.929 . S
C472 H466 0.930 . S
C472 C473 1.367 . S
C472 C480 1.378 . S
C473 C472 1.367 . S
C473 C481 1.433 . S
C474 H470 0.929 . S
C474 C476 1.378 . S
C474 C478 1.350 . S
C475 C478 1.463 . S
C475 C480 1.350 . S
C475 N483 1.427 . S
C476 H467 0.930 . S
C476 C474 1.378 . S
C476 C477 1.367 . S
C477 C476 1.367 . S
C477 C479 1.433 . S
C478 C474 1.350 . S
C478 C475 1.463 . S
C478 N482 1.427 . S
C479 H469 0.929 . S
C479 C477 1.433 . S
C479 N482 1.384 . S
C480 H471 0.929 . S
C480 C472 1.378 . S
C480 C475 1.350 . S
C481 H468 0.929 . S
C481 C473 1.433 . S
C481 N483 1.384 . S
N482 C478 1.427 . S
N482 C479 1.384 . S
N483 C475 1.427 . S
N483 C481 1.384 . S
H484 C490 0.930 . S
H485 C494 0.930 . S
H486 C499 0.929 . S
H487 C497 0.929 . S
H488 C492 0.929 . S
H489 C498 0.929 . S
C490 H484 0.930 . S
C490 C491 1.367 . S
C490 C498 1.378 . S
C491 C490 1.367 . S
C491 C499 1.433 . S
C492 H488 0.929 . S
C492 C494 1.378 . S
C492 C496 1.350 . S
C493 C496 1.463 . S
C493 C498 1.350 . S
C493 N501 1.427 . S
C494 H485 0.930 . S
C494 C492 1.378 . S
C494 C495 1.367 . S
C495 C494 1.367 . S
C495 C497 1.433 . S
C496 C492 1.350 . S
C496 C493 1.463 . S
C496 N500 1.427 . S
C497 H487 0.929 . S
C497 C495 1.433 . S
C497 N500 1.384 . S
C498 H489 0.929 . S
C498 C490 1.378 . S
C498 C493 1.350 . S
C499 H486 0.929 . S
C499 C491 1.433 . S
C499 N501 1.384 . S
N500 C496 1.427 . S
N500 C497 1.384 . S
N501 C493 1.427 . S
N501 C499 1.384 . S
H502 C508 0.930 . S
H503 C512 0.930 . S
H504 C517 0.929 . S
H505 C515 0.929 . S
H506 C510 0.929 . S
H507 C516 0.929 . S
C508 H502 0.930 . S
C508 C509 1.367 . S
C508 C516 1.378 . S
C509 C508 1.367 . S
C509 C517 1.433 . S
C510 H506 0.929 . S
C510 C512 1.378 . S
C510 C514 1.350 . S
C511 C514 1.463 . S
C511 C516 1.350 . S
C511 N519 1.427 . S
C512 H503 0.930 . S
C512 C510 1.378 . S
C512 C513 1.367 . S
C513 C512 1.367 . S
C513 C515 1.433 . S
C514 C510 1.350 . S
C514 C511 1.463 . S
C514 N518 1.427 . S
C515 H505 0.929 . S
C515 C513 1.433 . S
C515 N518 1.384 . S
C516 H507 0.929 . S
C516 C508 1.378 . S
C516 C511 1.350 . S
C517 H504 0.929 . S
C517 C509 1.433 . S
C517 N519 1.384 . S
N518 C514 1.427 . S
N518 C515 1.384 . S
N519 C511 1.427 . S
N519 C517 1.384 . S
H520 C526 0.930 . S
H521 C530 0.930 . S
H522 C535 0.929 . S
H523 C533 0.929 . S
H524 C528 0.929 . S
H525 C534 0.929 . S
C526 H520 0.930 . S
C526 C527 1.367 . S
C526 C534 1.378 . S
C527 C526 1.367 . S
C527 C535 1.433 . S
C528 H524 0.929 . S
C528 C530 1.378 . S
C528 C532 1.350 . S
C529 C532 1.463 . S
C529 C534 1.350 . S
C529 N537 1.427 . S
C530 H521 0.930 . S
C530 C528 1.378 . S
C530 C531 1.367 . S
C531 C530 1.367 . S
C531 C533 1.433 . S
C532 C528 1.350 . S
C532 C529 1.463 . S
C532 N536 1.427 . S
C533 H523 0.929 . S
C533 C531 1.433 . S
C533 N536 1.384 . S
C534 H525 0.929 . S
C534 C526 1.378 . S
C534 C529 1.350 . S
C535 H522 0.929 . S
C535 C527 1.433 . S
C535 N537 1.384 . S
N536 C532 1.427 . S
N536 C533 1.384 . S
N537 C529 1.427 . S
N537 C535 1.384 . S
H538 C544 0.930 . S
H539 C548 0.930 . S
H540 C553 0.929 . S
H541 C551 0.929 . S
H542 C546 0.929 . S
H543 C552 0.929 . S
C544 H538 0.930 . S
C544 C545 1.367 . S
C544 C552 1.378 . S
C545 C544 1.367 . S
C545 C553 1.433 . S
C546 H542 0.929 . S
C546 C548 1.378 . S
C546 C550 1.350 . S
C547 C550 1.463 . S
C547 C552 1.350 . S
C547 N555 1.427 . S
C548 H539 0.930 . S
C548 C546 1.378 . S
C548 C549 1.367 . S
C549 C548 1.367 . S
C549 C551 1.433 . S
C550 C546 1.350 . S
C550 C547 1.463 . S
C550 N554 1.427 . S
C551 H541 0.929 . S
C551 C549 1.433 . S
C551 N554 1.384 . S
C552 H543 0.929 . S
C552 C544 1.378 . S
C552 C547 1.350 . S
C553 H540 0.929 . S
C553 C545 1.433 . S
C553 N555 1.384 . S
N554 C550 1.427 . S
N554 C551 1.384 . S
N555 C547 1.427 . S
N555 C553 1.384 . S
H556 C562 0.930 . S
H557 C566 0.930 . S
H558 C571 0.929 . S
H559 C569 0.929 . S
H560 C564 0.929 . S
H561 C570 0.929 . S
C562 H556 0.930 . S
C562 C563 1.367 . S
C562 C570 1.378 . S
C563 C562 1.367 . S
C563 C571 1.433 . S
C564 H560 0.929 . S
C564 C566 1.378 . S
C564 C568 1.350 . S
C565 C568 1.463 . S
C565 C570 1.350 . S
C565 N573 1.427 . S
C566 H557 0.930 . S
C566 C564 1.378 . S
C566 C567 1.367 . S
C567 C566 1.367 . S
C567 C569 1.433 . S
C568 C564 1.350 . S
C568 C565 1.463 . S
C568 N572 1.427 . S
C569 H559 0.929 . S
C569 C567 1.433 . S
C569 N572 1.384 . S
C570 H561 0.929 . S
C570 C562 1.378 . S
C570 C565 1.350 . S
C571 H558 0.929 . S
C571 C563 1.433 . S
C571 N573 1.384 . S
N572 C568 1.427 . S
N572 C569 1.384 . S
N573 C565 1.427 . S
N573 C571 1.384 . S
H574 C580 0.930 . S
H575 C584 0.930 . S
H576 C589 0.929 . S
H577 C587 0.929 . S
H578 C582 0.929 . S
H579 C588 0.929 . S
C580 H574 0.930 . S
C580 C581 1.367 . S
C580 C588 1.378 . S
C581 C580 1.367 . S
C581 C589 1.433 . S
C582 H578 0.929 . S
C582 C584 1.378 . S
C582 C586 1.350 . S
C583 C586 1.463 . S
C583 C588 1.350 . S
C583 N591 1.427 . S
C584 H575 0.930 . S
C584 C582 1.378 . S
C584 C585 1.367 . S
C585 C584 1.367 . S
C585 C587 1.433 . S
C586 C582 1.350 . S
C586 C583 1.463 . S
C586 N590 1.427 . S
C587 H577 0.929 . S
C587 C585 1.433 . S
C587 N590 1.384 . S
C588 H579 0.929 . S
C588 C580 1.378 . S
C588 C583 1.350 . S
C589 H576 0.929 . S
C589 C581 1.433 . S
C589 N591 1.384 . S
N590 C586 1.427 . S
N590 C587 1.384 . S
N591 C583 1.427 . S
N591 C589 1.384 . S
H592 C598 0.930 . S
H593 C602 0.930 . S
H594 C607 0.929 . S
H595 C605 0.929 . S
H596 C600 0.929 . S
H597 C606 0.929 . S
C598 H592 0.930 . S
C598 C599 1.367 . S
C598 C606 1.378 . S
C599 C598 1.367 . S
C599 C607 1.433 . S
C600 H596 0.929 . S
C600 C602 1.378 . S
C600 C604 1.350 . S
C601 C604 1.463 . S
C601 C606 1.350 . S
C601 N609 1.427 . S
C602 H593 0.930 . S
C602 C600 1.378 . S
C602 C603 1.367 . S
C603 C602 1.367 . S
C603 C605 1.433 . S
C604 C600 1.350 . S
C604 C601 1.463 . S
C604 N608 1.427 . S
C605 H595 0.929 . S
C605 C603 1.433 . S
C605 N608 1.384 . S
C606 H597 0.929 . S
C606 C598 1.378 . S
C606 C601 1.350 . S
C607 H594 0.929 . S
C607 C599 1.433 . S
C607 N609 1.384 . S
N608 C604 1.427 . S
N608 C605 1.384 . S
N609 C601 1.427 . S
N609 C607 1.384 . S
H610 C616 0.930 . S
H611 C620 0.930 . S
H612 C625 0.929 . S
H613 C623 0.929 . S
H614 C618 0.929 . S
H615 C624 0.929 . S
C616 H610 0.930 . S
C616 C617 1.367 . S
C616 C624 1.378 . S
C617 C616 1.367 . S
C617 C625 1.433 . S
C618 H614 0.929 . S
C618 C620 1.378 . S
C618 C622 1.350 . S
C619 C622 1.463 . S
C619 C624 1.350 . S
C619 N627 1.427 . S
C620 H611 0.930 . S
C620 C618 1.378 . S
C620 C621 1.367 . S
C621 C620 1.367 . S
C621 C623 1.433 . S
C622 C618 1.350 . S
C622 C619 1.463 . S
C622 N626 1.427 . S
C623 H613 0.929 . S
C623 C621 1.433 . S
C623 N626 1.384 . S
C624 H615 0.929 . S
C624 C616 1.378 . S
C624 C619 1.350 . S
C625 H612 0.929 . S
C625 C617 1.433 . S
C625 N627 1.384 . S
N626 C622 1.427 . S
N626 C623 1.384 . S
N627 C619 1.427 . S
N627 C625 1.384 . S
H628 C634 0.930 . S
H629 C638 0.930 . S
H630 C643 0.929 . S
H631 C641 0.929 . S
H632 C636 0.929 . S
H633 C642 0.929 . S
C634 H628 0.930 . S
C634 C635 1.367 . S
C634 C642 1.378 . S
C635 C634 1.367 . S
C635 C643 1.433 . S
C636 H632 0.929 . S
C636 C638 1.378 . S
C636 C640 1.350 . S
C637 C640 1.463 . S
C637 C642 1.350 . S
C637 N645 1.427 . S
C638 H629 0.930 . S
C638 C636 1.378 . S
C638 C639 1.367 . S
C639 C638 1.367 . S
C639 C641 1.433 . S
C640 C636 1.350 . S
C640 C637 1.463 . S
C640 N644 1.427 . S
C641 H631 0.929 . S
C641 C639 1.433 . S
C641 N644 1.384 . S
C642 H633 0.929 . S
C642 C634 1.378 . S
C642 C637 1.350 . S
C643 H630 0.929 . S
C643 C635 1.433 . S
C643 N645 1.384 . S
N644 C640 1.427 . S
N644 C641 1.384 . S
N645 C637 1.427 . S
N645 C643 1.384 . S
H646 C652 0.930 . S
H647 C656 0.930 . S
H648 C661 0.929 . S
H649 C659 0.929 . S
H650 C654 0.929 . S
H651 C660 0.929 . S
C652 H646 0.930 . S
C652 C653 1.367 . S
C652 C660 1.378 . S
C653 C652 1.367 . S
C653 C661 1.433 . S
C654 H650 0.929 . S
C654 C656 1.378 . S
C654 C658 1.350 . S
C655 C658 1.463 . S
C655 C660 1.350 . S
C655 N663 1.427 . S
C656 H647 0.930 . S
C656 C654 1.378 . S
C656 C657 1.367 . S
C657 C656 1.367 . S
C657 C659 1.433 . S
C658 C654 1.350 . S
C658 C655 1.463 . S
C658 N662 1.427 . S
C659 H649 0.929 . S
C659 C657 1.433 . S
C659 N662 1.384 . S
C660 H651 0.929 . S
C660 C652 1.378 . S
C660 C655 1.350 . S
C661 H648 0.929 . S
C661 C653 1.433 . S
C661 N663 1.384 . S
N662 C658 1.427 . S
N662 C659 1.384 . S
N663 C655 1.427 . S
N663 C661 1.384 . S
H664 C670 0.930 . S
H665 C674 0.930 . S
H666 C679 0.929 . S
H667 C677 0.929 . S
H668 C672 0.929 . S
H669 C678 0.929 . S
C670 H664 0.930 . S
C670 C671 1.367 . S
C670 C678 1.378 . S
C671 C670 1.367 . S
C671 C679 1.433 . S
C672 H668 0.929 . S
C672 C674 1.378 . S
C672 C676 1.350 . S
C673 C676 1.463 . S
C673 C678 1.350 . S
C673 N681 1.427 . S
C674 H665 0.930 . S
C674 C672 1.378 . S
C674 C675 1.367 . S
C675 C674 1.367 . S
C675 C677 1.433 . S
C676 C672 1.350 . S
C676 C673 1.463 . S
C676 N680 1.427 . S
C677 H667 0.929 . S
C677 C675 1.433 . S
C677 N680 1.384 . S
C678 H669 0.929 . S
C678 C670 1.378 . S
C678 C673 1.350 . S
C679 H666 0.929 . S
C679 C671 1.433 . S
C679 N681 1.384 . S
N680 C676 1.427 . S
N680 C677 1.384 . S
N681 C673 1.427 . S
N681 C679 1.384 . S
H682 C688 0.930 . S
H683 C692 0.930 . S
H684 C697 0.929 . S
H685 C695 0.929 . S
H686 C690 0.929 . S
H687 C696 0.929 . S
C688 H682 0.930 . S
C688 C689 1.367 . S
C688 C696 1.378 . S
C689 C688 1.367 . S
C689 C697 1.433 . S
C690 H686 0.929 . S
C690 C692 1.378 . S
C690 C694 1.350 . S
C691 C694 1.463 . S
C691 C696 1.350 . S
C691 N699 1.427 . S
C692 H683 0.930 . S
C692 C690 1.378 . S
C692 C693 1.367 . S
C693 C692 1.367 . S
C693 C695 1.433 . S
C694 C690 1.350 . S
C694 C691 1.463 . S
C694 N698 1.427 . S
C695 H685 0.929 . S
C695 C693 1.433 . S
C695 N698 1.384 . S
C696 H687 0.929 . S
C696 C688 1.378 . S
C696 C691 1.350 . S
C697 H684 0.929 . S
C697 C689 1.433 . S
C697 N699 1.384 . S
N698 C694 1.427 . S
N698 C695 1.384 . S
N699 C691 1.427 . S
N699 C697 1.384 . S
H700 C706 0.930 . S
H701 C710 0.930 . S
H702 C715 0.929 . S
H703 C713 0.929 . S
H704 C708 0.929 . S
H705 C714 0.929 . S
C706 H700 0.930 . S
C706 C707 1.367 . S
C706 C714 1.378 . S
C707 C706 1.367 . S
C707 C715 1.433 . S
C708 H704 0.929 . S
C708 C710 1.378 . S
C708 C712 1.350 . S
C709 C712 1.463 . S
C709 C714 1.350 . S
C709 N717 1.427 . S
C710 H701 0.930 . S
C710 C708 1.378 . S
C710 C711 1.367 . S
C711 C710 1.367 . S
C711 C713 1.433 . S
C712 C708 1.350 . S
C712 C709 1.463 . S
C712 N716 1.427 . S
C713 H703 0.929 . S
C713 C711 1.433 . S
C713 N716 1.384 . S
C714 H705 0.929 . S
C714 C706 1.378 . S
C714 C709 1.350 . S
C715 H702 0.929 . S
C715 C707 1.433 . S
C715 N717 1.384 . S
N716 C712 1.427 . S
N716 C713 1.384 . S
N717 C709 1.427 . S
N717 C715 1.384 . S
H718 C724 0.930 . S
H719 C728 0.930 . S
H720 C733 0.929 . S
H721 C731 0.929 . S
H722 C726 0.929 . S
H723 C732 0.929 . S
C724 H718 0.930 . S
C724 C725 1.367 . S
C724 C732 1.378 . S
C725 C724 1.367 . S
C725 C733 1.433 . S
C726 H722 0.929 . S
C726 C728 1.378 . S
C726 C730 1.350 . S
C727 C730 1.463 . S
C727 C732 1.350 . S
C727 N735 1.427 . S
C728 H719 0.930 . S
C728 C726 1.378 . S
C728 C729 1.367 . S
C729 C728 1.367 . S
C729 C731 1.433 . S
C730 C726 1.350 . S
C730 C727 1.463 . S
C730 N734 1.427 . S
C731 H721 0.929 . S
C731 C729 1.433 . S
C731 N734 1.384 . S
C732 H723 0.929 . S
C732 C724 1.378 . S
C732 C727 1.350 . S
C733 H720 0.929 . S
C733 C725 1.433 . S
C733 N735 1.384 . S
N734 C730 1.427 . S
N734 C731 1.384 . S
N735 C727 1.427 . S
N735 C733 1.384 . S
H736 C742 0.930 . S
H737 C746 0.930 . S
H738 C751 0.929 . S
H739 C749 0.929 . S
H740 C744 0.929 . S
H741 C750 0.929 . S
C742 H736 0.930 . S
C742 C743 1.367 . S
C742 C750 1.378 . S
C743 C742 1.367 . S
C743 C751 1.433 . S
C744 H740 0.929 . S
C744 C746 1.378 . S
C744 C748 1.350 . S
C745 C748 1.463 . S
C745 C750 1.350 . S
C745 N753 1.427 . S
C746 H737 0.930 . S
C746 C744 1.378 . S
C746 C747 1.367 . S
C747 C746 1.367 . S
C747 C749 1.433 . S
C748 C744 1.350 . S
C748 C745 1.463 . S
C748 N752 1.427 . S
C749 H739 0.929 . S
C749 C747 1.433 . S
C749 N752 1.384 . S
C750 H741 0.929 . S
C750 C742 1.378 . S
C750 C745 1.350 . S
C751 H738 0.929 . S
C751 C743 1.433 . S
C751 N753 1.384 . S
N752 C748 1.427 . S
N752 C749 1.384 . S
N753 C745 1.427 . S
N753 C751 1.384 . S
H754 C760 0.930 . S
H755 C764 0.930 . S
H756 C769 0.929 . S
H757 C767 0.929 . S
H758 C762 0.929 . S
H759 C768 0.929 . S
C760 H754 0.930 . S
C760 C761 1.367 . S
C760 C768 1.378 . S
C761 C760 1.367 . S
C761 C769 1.433 . S
C762 H758 0.929 . S
C762 C764 1.378 . S
C762 C766 1.350 . S
C763 C766 1.463 . S
C763 C768 1.350 . S
C763 N771 1.427 . S
C764 H755 0.930 . S
C764 C762 1.378 . S
C764 C765 1.367 . S
C765 C764 1.367 . S
C765 C767 1.433 . S
C766 C762 1.350 . S
C766 C763 1.463 . S
C766 N770 1.427 . S
C767 H757 0.929 . S
C767 C765 1.433 . S
C767 N770 1.384 . S
C768 H759 0.929 . S
C768 C760 1.378 . S
C768 C763 1.350 . S
C769 H756 0.929 . S
C769 C761 1.433 . S
C769 N771 1.384 . S
N770 C766 1.427 . S
N770 C767 1.384 . S
N771 C763 1.427 . S
N771 C769 1.384 . S
H772 C778 0.930 . S
H773 C782 0.930 . S
H774 C787 0.929 . S
H775 C785 0.929 . S
H776 C780 0.929 . S
H777 C786 0.929 . S
C778 H772 0.930 . S
C778 C779 1.367 . S
C778 C786 1.378 . S
C779 C778 1.367 . S
C779 C787 1.433 . S
C780 H776 0.929 . S
C780 C782 1.378 . S
C780 C784 1.350 . S
C781 C784 1.463 . S
C781 C786 1.350 . S
C781 N789 1.427 . S
C782 H773 0.930 . S
C782 C780 1.378 . S
C782 C783 1.367 . S
C783 C782 1.367 . S
C783 C785 1.433 . S
C784 C780 1.350 . S
C784 C781 1.463 . S
C784 N788 1.427 . S
C785 H775 0.929 . S
C785 C783 1.433 . S
C785 N788 1.384 . S
C786 H777 0.929 . S
C786 C778 1.378 . S
C786 C781 1.350 . S
C787 H774 0.929 . S
C787 C779 1.433 . S
C787 N789 1.384 . S
N788 C784 1.427 . S
N788 C785 1.384 . S
N789 C781 1.427 . S
N789 C787 1.384 . S
H790 C796 0.930 . S
H791 C800 0.930 . S
H792 C805 0.929 . S
H793 C803 0.929 . S
H794 C798 0.929 . S
H795 C804 0.929 . S
C796 H790 0.930 . S
C796 C797 1.367 . S
C796 C804 1.378 . S
C797 C796 1.367 . S
C797 C805 1.433 . S
C798 H794 0.929 . S
C798 C800 1.378 . S
C798 C802 1.350 . S
C799 C802 1.463 . S
C799 C804 1.350 . S
C799 N807 1.427 . S
C800 H791 0.930 . S
C800 C798 1.378 . S
C800 C801 1.367 . S
C801 C800 1.367 . S
C801 C803 1.433 . S
C802 C798 1.350 . S
C802 C799 1.463 . S
C802 N806 1.427 . S
C803 H793 0.929 . S
C803 C801 1.433 . S
C803 N806 1.384 . S
C804 H795 0.929 . S
C804 C796 1.378 . S
C804 C799 1.350 . S
C805 H792 0.929 . S
C805 C797 1.433 . S
C805 N807 1.384 . S
N806 C802 1.427 . S
N806 C803 1.384 . S
N807 C799 1.427 . S
N807 C805 1.384 . S
H808 C814 0.930 . S
H809 C818 0.930 . S
H810 C823 0.929 . S
H811 C821 0.929 . S
H812 C816 0.929 . S
H813 C822 0.929 . S
C814 H808 0.930 . S
C814 C815 1.367 . S
C814 C822 1.378 . S
C815 C814 1.367 . S
C815 C823 1.433 . S
C816 H812 0.929 . S
C816 C818 1.378 . S
C816 C820 1.350 . S
C817 C820 1.463 . S
C817 C822 1.350 . S
C817 N825 1.427 . S
C818 H809 0.930 . S
C818 C816 1.378 . S
C818 C819 1.367 . S
C819 C818 1.367 . S
C819 C821 1.433 . S
C820 C816 1.350 . S
C820 C817 1.463 . S
C820 N824 1.427 . S
C821 H811 0.929 . S
C821 C819 1.433 . S
C821 N824 1.384 . S
C822 H813 0.929 . S
C822 C814 1.378 . S
C822 C817 1.350 . S
C823 H810 0.929 . S
C823 C815 1.433 . S
C823 N825 1.384 . S
N824 C820 1.427 . S
N824 C821 1.384 . S
N825 C817 1.427 . S
N825 C823 1.384 . S
H826 C832 0.930 . S
H827 C836 0.930 . S
H828 C841 0.929 . S
H829 C839 0.929 . S
H830 C834 0.929 . S
H831 C840 0.929 . S
C832 H826 0.930 . S
C832 C833 1.367 . S
C832 C840 1.378 . S
C833 C832 1.367 . S
C833 C841 1.433 . S
C834 H830 0.929 . S
C834 C836 1.378 . S
C834 C838 1.350 . S
C835 C838 1.463 . S
C835 C840 1.350 . S
C835 N843 1.427 . S
C836 H827 0.930 . S
C836 C834 1.378 . S
C836 C837 1.367 . S
C837 C836 1.367 . S
C837 C839 1.433 . S
C838 C834 1.350 . S
C838 C835 1.463 . S
C838 N842 1.427 . S
C839 H829 0.929 . S
C839 C837 1.433 . S
C839 N842 1.384 . S
C840 H831 0.929 . S
C840 C832 1.378 . S
C840 C835 1.350 . S
C841 H828 0.929 . S
C841 C833 1.433 . S
C841 N843 1.384 . S
N842 C838 1.427 . S
N842 C839 1.384 . S
N843 C835 1.427 . S
N843 C841 1.384 . S
H844 C850 0.930 . S
H845 C854 0.930 . S
H846 C859 0.929 . S
H847 C857 0.929 . S
H848 C852 0.929 . S
H849 C858 0.929 . S
C850 H844 0.930 . S
C850 C851 1.367 . S
C850 C858 1.378 . S
C851 C850 1.367 . S
C851 C859 1.433 . S
C852 H848 0.929 . S
C852 C854 1.378 . S
C852 C856 1.350 . S
C853 C856 1.463 . S
C853 C858 1.350 . S
C853 N861 1.427 . S
C854 H845 0.930 . S
C854 C852 1.378 . S
C854 C855 1.367 . S
C855 C854 1.367 . S
C855 C857 1.433 . S
C856 C852 1.350 . S
C856 C853 1.463 . S
C856 N860 1.427 . S
C857 H847 0.929 . S
C857 C855 1.433 . S
C857 N860 1.384 . S
C858 H849 0.929 . S
C858 C850 1.378 . S
C858 C853 1.350 . S
C859 H846 0.929 . S
C859 C851 1.433 . S
C859 N861 1.384 . S
N860 C856 1.427 . S
N860 C857 1.384 . S
N861 C853 1.427 . S
N861 C859 1.384 . S
H862 C868 0.930 . S
H863 C872 0.930 . S
H864 C877 0.929 . S
H865 C875 0.929 . S
H866 C870 0.929 . S
H867 C876 0.929 . S
C868 H862 0.930 . S
C868 C869 1.367 . S
C868 C876 1.378 . S
C869 C868 1.367 . S
C869 C877 1.433 . S
C870 H866 0.929 . S
C870 C872 1.378 . S
C870 C874 1.350 . S
C871 C874 1.463 . S
C871 C876 1.350 . S
C871 N879 1.427 . S
C872 H863 0.930 . S
C872 C870 1.378 . S
C872 C873 1.367 . S
C873 C872 1.367 . S
C873 C875 1.433 . S
C874 C870 1.350 . S
C874 C871 1.463 . S
C874 N878 1.427 . S
C875 H865 0.929 . S
C875 C873 1.433 . S
C875 N878 1.384 . S
C876 H867 0.929 . S
C876 C868 1.378 . S
C876 C871 1.350 . S
C877 H864 0.929 . S
C877 C869 1.433 . S
C877 N879 1.384 . S
N878 C874 1.427 . S
N878 C875 1.384 . S
N879 C871 1.427 . S
N879 C877 1.384 . S
H880 C886 0.930 . S
H881 C890 0.930 . S
H882 C895 0.929 . S
H883 C893 0.929 . S
H884 C888 0.929 . S
H885 C894 0.929 . S
C886 H880 0.930 . S
C886 C887 1.367 . S
C886 C894 1.378 . S
C887 C886 1.367 . S
C887 C895 1.433 . S
C888 H884 0.929 . S
C888 C890 1.378 . S
C888 C892 1.350 . S
C889 C892 1.463 . S
C889 C894 1.350 . S
C889 N897 1.427 . S
C890 H881 0.930 . S
C890 C888 1.378 . S
C890 C891 1.367 . S
C891 C890 1.367 . S
C891 C893 1.433 . S
C892 C888 1.350 . S
C892 C889 1.463 . S
C892 N896 1.427 . S
C893 H883 0.929 . S
C893 C891 1.433 . S
C893 N896 1.384 . S
C894 H885 0.929 . S
C894 C886 1.378 . S
C894 C889 1.350 . S
C895 H882 0.929 . S
C895 C887 1.433 . S
C895 N897 1.384 . S
N896 C892 1.427 . S
N896 C893 1.384 . S
N897 C889 1.427 . S
N897 C895 1.384 . S
H898 C904 0.930 . S
H899 C908 0.930 . S
H900 C913 0.929 . S
H901 C911 0.929 . S
H902 C906 0.929 . S
H903 C912 0.929 . S
C904 H898 0.930 . S
C904 C905 1.367 . S
C904 C912 1.378 . S
C905 C904 1.367 . S
C905 C913 1.433 . S
C906 H902 0.929 . S
C906 C908 1.378 . S
C906 C910 1.350 . S
C907 C910 1.463 . S
C907 C912 1.350 . S
C907 N915 1.427 . S
C908 H899 0.930 . S
C908 C906 1.378 . S
C908 C909 1.367 . S
C909 C908 1.367 . S
C909 C911 1.433 . S
C910 C906 1.350 . S
C910 C907 1.463 . S
C910 N914 1.427 . S
C911 H901 0.929 . S
C911 C909 1.433 . S
C911 N914 1.384 . S
C912 H903 0.929 . S
C912 C904 1.378 . S
C912 C907 1.350 . S
C913 H900 0.929 . S
C913 C905 1.433 . S
C913 N915 1.384 . S
N914 C910 1.427 . S
N914 C911 1.384 . S
N915 C907 1.427 . S
N915 C913 1.384 . S
H916 C922 0.930 . S
H917 C926 0.930 . S
H918 C931 0.929 . S
H919 C929 0.929 . S
H920 C924 0.929 . S
H921 C930 0.929 . S
C922 H916 0.930 . S
C922 C923 1.367 . S
C922 C930 1.378 . S
C923 C922 1.367 . S
C923 C931 1.433 . S
C924 H920 0.929 . S
C924 C926 1.378 . S
C924 C928 1.350 . S
C925 C928 1.463 . S
C925 C930 1.350 . S
C925 N933 1.427 . S
C926 H917 0.930 . S
C926 C924 1.378 . S
C926 C927 1.367 . S
C927 C926 1.367 . S
C927 C929 1.433 . S
C928 C924 1.350 . S
C928 C925 1.463 . S
C928 N932 1.427 . S
C929 H919 0.929 . S
C929 C927 1.433 . S
C929 N932 1.384 . S
C930 H921 0.929 . S
C930 C922 1.378 . S
C930 C925 1.350 . S
C931 H918 0.929 . S
C931 C923 1.433 . S
C931 N933 1.384 . S
N932 C928 1.427 . S
N932 C929 1.384 . S
N933 C925 1.427 . S
N933 C931 1.384 . S
H934 C940 0.930 . S
H935 C944 0.930 . S
H936 C949 0.929 . S
H937 C947 0.929 . S
H938 C942 0.929 . S
H939 C948 0.929 . S
C940 H934 0.930 . S
C940 C941 1.367 . S
C940 C948 1.378 . S
C941 C940 1.367 . S
C941 C949 1.433 . S
C942 H938 0.929 . S
C942 C944 1.378 . S
C942 C946 1.350 . S
C943 C946 1.463 . S
C943 C948 1.350 . S
C943 N951 1.427 . S
C944 H935 0.930 . S
C944 C942 1.378 . S
C944 C945 1.367 . S
C945 C944 1.367 . S
C945 C947 1.433 . S
C946 C942 1.350 . S
C946 C943 1.463 . S
C946 N950 1.427 . S
C947 H937 0.929 . S
C947 C945 1.433 . S
C947 N950 1.384 . S
C948 H939 0.929 . S
C948 C940 1.378 . S
C948 C943 1.350 . S
C949 H936 0.929 . S
C949 C941 1.433 . S
C949 N951 1.384 . S
N950 C946 1.427 . S
N950 C947 1.384 . S
N951 C943 1.427 . S
N951 C949 1.384 . S
H952 C958 0.930 . S
H953 C962 0.930 . S
H954 C967 0.929 . S
H955 C965 0.929 . S
H956 C960 0.929 . S
H957 C966 0.929 . S
C958 H952 0.930 . S
C958 C959 1.367 . S
C958 C966 1.378 . S
C959 C958 1.367 . S
C959 C967 1.433 . S
C960 H956 0.929 . S
C960 C962 1.378 . S
C960 C964 1.350 . S
C961 C964 1.463 . S
C961 C966 1.350 . S
C961 N969 1.427 . S
C962 H953 0.930 . S
C962 C960 1.378 . S
C962 C963 1.367 . S
C963 C962 1.367 . S
C963 C965 1.433 . S
C964 C960 1.350 . S
C964 C961 1.463 . S
C964 N968 1.427 . S
C965 H955 0.929 . S
C965 C963 1.433 . S
C965 N968 1.384 . S
C966 H957 0.929 . S
C966 C958 1.378 . S
C966 C961 1.350 . S
C967 H954 0.929 . S
C967 C959 1.433 . S
C967 N969 1.384 . S
N968 C964 1.427 . S
N968 C965 1.384 . S
N969 C961 1.427 . S
N969 C967 1.384 . S
H970 C976 0.930 . S
H971 C980 0.930 . S
H972 C985 0.929 . S
H973 C983 0.929 . S
H974 C978 0.929 . S
H975 C984 0.929 . S
C976 H970 0.930 . S
C976 C977 1.367 . S
C976 C984 1.378 . S
C977 C976 1.367 . S
C977 C985 1.433 . S
C978 H974 0.929 . S
C978 C980 1.378 . S
C978 C982 1.350 . S
C979 C982 1.463 . S
C979 C984 1.350 . S
C979 N987 1.427 . S
C980 H971 0.930 . S
C980 C978 1.378 . S
C980 C981 1.367 . S
C981 C980 1.367 . S
C981 C983 1.433 . S
C982 C978 1.350 . S
C982 C979 1.463 . S
C982 N986 1.427 . S
C983 H973 0.929 . S
C983 C981 1.433 . S
C983 N986 1.384 . S
C984 H975 0.929 . S
C984 C976 1.378 . S
C984 C979 1.350 . S
C985 H972 0.929 . S
C985 C977 1.433 . S
C985 N987 1.384 . S
N986 C982 1.427 . S
N986 C983 1.384 . S
N987 C979 1.427 . S
N987 C985 1.384 . S
H988 C994 0.930 . S
H989 C998 0.930 . S
H990 C1003 0.929 . S
H991 C1001 0.929 . S
H992 C996 0.929 . S
H993 C1002 0.929 . S
C994 H988 0.930 . S
C994 C995 1.367 . S
C994 C1002 1.378 . S
C995 C994 1.367 . S
C995 C1003 1.433 . S
C996 H992 0.929 . S
C996 C998 1.378 . S
C996 C1000 1.350 . S
C997 C1000 1.463 . S
C997 C1002 1.350 . S
C997 N1005 1.427 . S
C998 H989 0.930 . S
C998 C996 1.378 . S
C998 C999 1.367 . S
C999 C998 1.367 . S
C999 C1001 1.433 . S
C1000 C996 1.350 . S
C1000 C997 1.463 . S
C1000 N1004 1.427 . S
C1001 H991 0.929 . S
C1001 C999 1.433 . S
C1001 N1004 1.384 . S
C1002 H993 0.929 . S
C1002 C994 1.378 . S
C1002 C997 1.350 . S
C1003 H990 0.929 . S
C1003 C995 1.433 . S
C1003 N1005 1.384 . S
N1004 C1000 1.427 . S
N1004 C1001 1.384 . S
N1005 C997 1.427 . S
N1005 C1003 1.384 . S
H1006 C1012 0.930 . S
H1007 C1016 0.930 . S
H1008 C1021 0.929 . S
H1009 C1019 0.929 . S
H1010 C1014 0.929 . S
H1011 C1020 0.929 . S
C1012 H1006 0.930 . S
C1012 C1013 1.367 . S
C1012 C1020 1.378 . S
C1013 C1012 1.367 . S
C1013 C1021 1.433 . S
C1014 H1010 0.929 . S
C1014 C1016 1.378 . S
C1014 C1018 1.350 . S
C1015 C1018 1.463 . S
C1015 C1020 1.350 . S
C1015 N1023 1.427 . S
C1016 H1007 0.930 . S
C1016 C1014 1.378 . S
C1016 C1017 1.367 . S
C1017 C1016 1.367 . S
C1017 C1019 1.433 . S
C1018 C1014 1.350 . S
C1018 C1015 1.463 . S
C1018 N1022 1.427 . S
C1019 H1009 0.929 . S
C1019 C1017 1.433 . S
C1019 N1022 1.384 . S
C1020 H1011 0.929 . S
C1020 C1012 1.378 . S
C1020 C1015 1.350 . S
C1021 H1008 0.929 . S
C1021 C1013 1.433 . S
C1021 N1023 1.384 . S
N1022 C1018 1.427 . S
N1022 C1019 1.384 . S
N1023 C1015 1.427 . S
N1023 C1021 1.384 . S
H1024 C1030 0.930 . S
H1025 C1034 0.930 . S
H1026 C1039 0.929 . S
H1027 C1037 0.929 . S
H1028 C1032 0.929 . S
H1029 C1038 0.929 . S
C1030 H1024 0.930 . S
C1030 C1031 1.367 . S
C1030 C1038 1.378 . S
C1031 C1030 1.367 . S
C1031 C1039 1.433 . S
C1032 H1028 0.929 . S
C1032 C1034 1.378 . S
C1032 C1036 1.350 . S
C1033 C1036 1.463 . S
C1033 C1038 1.350 . S
C1033 N1041 1.427 . S
C1034 H1025 0.930 . S
C1034 C1032 1.378 . S
C1034 C1035 1.367 . S
C1035 C1034 1.367 . S
C1035 C1037 1.433 . S
C1036 C1032 1.350 . S
C1036 C1033 1.463 . S
C1036 N1040 1.427 . S
C1037 H1027 0.929 . S
C1037 C1035 1.433 . S
C1037 N1040 1.384 . S
C1038 H1029 0.929 . S
C1038 C1030 1.378 . S
C1038 C1033 1.350 . S
C1039 H1026 0.929 . S
C1039 C1031 1.433 . S
C1039 N1041 1.384 . S
N1040 C1036 1.427 . S
N1040 C1037 1.384 . S
N1041 C1033 1.427 . S
N1041 C1039 1.384 . S
H1042 C1048 0.930 . S
H1043 C1052 0.930 . S
H1044 C1057 0.929 . S
H1045 C1055 0.929 . S
H1046 C1050 0.929 . S
H1047 C1056 0.929 . S
C1048 H1042 0.930 . S
C1048 C1049 1.367 . S
C1048 C1056 1.378 . S
C1049 C1048 1.367 . S
C1049 C1057 1.433 1_565 S
C1050 H1046 0.929 . S
C1050 C1052 1.378 . S
C1050 C1054 1.350 . S
C1051 C1054 1.463 1_465 S
C1051 C1056 1.350 . S
C1051 N1059 1.427 1_565 S
C1052 H1043 0.930 . S
C1052 C1050 1.378 . S
C1052 C1053 1.367 . S
C1053 C1052 1.367 . S
C1053 C1055 1.433 1_545 S
C1054 C1050 1.350 . S
C1054 C1051 1.463 1_645 S
C1054 N1058 1.427 1_545 S
C1055 H1045 0.929 . S
C1055 C1053 1.433 1_565 S
C1055 N1058 1.384 . S
C1056 H1047 0.929 . S
C1056 C1048 1.378 . S
C1056 C1051 1.350 . S
C1057 H1044 0.929 . S
C1057 C1049 1.433 1_545 S
C1057 N1059 1.384 . S
N1058 C1054 1.427 1_565 S
N1058 C1055 1.384 . S
N1059 C1051 1.427 1_545 S
N1059 C1057 1.384 . S
H1060 C1066 0.930 . S
H1061 C1070 0.930 . S
H1062 C1075 0.929 . S
H1063 C1073 0.929 . S
H1064 C1068 0.929 . S
H1065 C1074 0.929 . S
C1066 H1060 0.930 . S
C1066 C1067 1.367 . S
C1066 C1074 1.378 . S
C1067 C1066 1.367 . S
C1067 C1075 1.433 . S
C1068 H1064 0.929 . S
C1068 C1070 1.378 . S
C1068 C1072 1.350 . S
C1069 C1072 1.463 . S
C1069 C1074 1.350 . S
C1069 N1077 1.427 . S
C1070 H1061 0.930 . S
C1070 C1068 1.378 . S
C1070 C1071 1.367 . S
C1071 C1070 1.367 . S
C1071 C1073 1.433 . S
C1072 C1068 1.350 . S
C1072 C1069 1.463 . S
C1072 N1076 1.427 . S
C1073 H1063 0.929 . S
C1073 C1071 1.433 . S
C1073 N1076 1.384 . S
C1074 H1065 0.929 . S
C1074 C1066 1.378 . S
C1074 C1069 1.350 . S
C1075 H1062 0.929 . S
C1075 C1067 1.433 . S
C1075 N1077 1.384 . S
N1076 C1072 1.427 . S
N1076 C1073 1.384 . S
N1077 C1069 1.427 . S
N1077 C1075 1.384 . S
H1078 C1084 0.930 . S
H1079 C1088 0.930 . S
H1080 C1093 0.929 . S
H1081 C1091 0.929 . S
H1082 C1086 0.929 . S
H1083 C1092 0.929 . S
C1084 H1078 0.930 . S
C1084 C1085 1.367 1_565 S
C1084 C1092 1.378 . S
C1085 C1084 1.367 1_545 S
C1085 C1093 1.433 . S
C1086 H1082 0.929 . S
C1086 C1088 1.378 . S
C1086 C1090 1.350 1_545 S
C1087 C1090 1.463 1_544 S
C1087 C1092 1.350 1_545 S
C1087 N1095 1.427 . S
C1088 H1079 0.930 . S
C1088 C1086 1.378 . S
C1088 C1089 1.367 1_545 S
C1089 C1088 1.367 1_565 S
C1089 C1091 1.433 . S
C1090 C1086 1.350 1_565 S
C1090 C1087 1.463 1_566 S
C1090 N1094 1.427 . S
C1091 H1081 0.929 . S
C1091 C1089 1.433 . S
C1091 N1094 1.384 . S
C1092 H1083 0.929 . S
C1092 C1084 1.378 . S
C1092 C1087 1.350 1_565 S
C1093 H1080 0.929 . S
C1093 C1085 1.433 . S
C1093 N1095 1.384 . S
N1094 C1090 1.427 . S
N1094 C1091 1.384 . S
N1095 C1087 1.427 . S
N1095 C1093 1.384 . S
H1096 C1102 0.930 . S
H1097 C1106 0.930 . S
H1098 C1111 0.929 . S
H1099 C1109 0.929 . S
H1100 C1104 0.929 . S
H1101 C1110 0.929 . S
C1102 H1096 0.930 . S
C1102 C1103 1.367 . S
C1102 C1110 1.378 . S
C1103 C1102 1.367 . S
C1103 C1111 1.433 . S
C1104 H1100 0.929 . S
C1104 C1106 1.378 . S
C1104 C1108 1.350 . S
C1105 C1108 1.463 . S
C1105 C1110 1.350 . S
C1105 N1113 1.427 . S
C1106 H1097 0.930 . S
C1106 C1104 1.378 . S
C1106 C1107 1.367 . S
C1107 C1106 1.367 . S
C1107 C1109 1.433 . S
C1108 C1104 1.350 . S
C1108 C1105 1.463 . S
C1108 N1112 1.427 . S
C1109 H1099 0.929 . S
C1109 C1107 1.433 . S
C1109 N1112 1.384 . S
C1110 H1101 0.929 . S
C1110 C1102 1.378 . S
C1110 C1105 1.350 . S
C1111 H1098 0.929 . S
C1111 C1103 1.433 . S
C1111 N1113 1.384 . S
N1112 C1108 1.427 . S
N1112 C1109 1.384 . S
N1113 C1105 1.427 . S
N1113 C1111 1.384 . S
H1114 C1120 0.930 . S
H1115 C1124 0.930 . S
H1116 C1129 0.929 . S
H1117 C1127 0.929 . S
H1118 C1122 0.929 . S
H1119 C1128 0.929 . S
C1120 H1114 0.930 . S
C1120 C1121 1.367 . S
C1120 C1128 1.378 . S
C1121 C1120 1.367 . S
C1121 C1129 1.433 . S
C1122 H1118 0.929 . S
C1122 C1124 1.378 . S
C1122 C1126 1.350 . S
C1123 C1126 1.463 1_565 S
C1123 C1128 1.350 . S
C1123 N1131 1.427 . S
C1124 H1115 0.930 . S
C1124 C1122 1.378 . S
C1124 C1125 1.367 . S
C1125 C1124 1.367 . S
C1125 C1127 1.433 . S
C1126 C1122 1.350 . S
C1126 C1123 1.463 1_545 S
C1126 N1130 1.427 . S
C1127 H1117 0.929 . S
C1127 C1125 1.433 . S
C1127 N1130 1.384 . S
C1128 H1119 0.929 . S
C1128 C1120 1.378 . S
C1128 C1123 1.350 . S
C1129 H1116 0.929 . S
C1129 C1121 1.433 . S
C1129 N1131 1.384 . S
N1130 C1126 1.427 . S
N1130 C1127 1.384 . S
N1131 C1123 1.427 . S
N1131 C1129 1.384 . S
H1132 C1138 0.930 . S
H1133 C1142 0.930 . S
H1134 C1147 0.929 . S
H1135 C1145 0.929 . S
H1136 C1140 0.929 . S
H1137 C1146 0.929 . S
C1138 H1132 0.930 . S
C1138 C1139 1.367 . S
C1138 C1146 1.378 . S
C1139 C1138 1.367 . S
C1139 C1147 1.433 . S
C1140 H1136 0.929 . S
C1140 C1142 1.378 . S
C1140 C1144 1.350 . S
C1141 C1144 1.463 . S
C1141 C1146 1.350 . S
C1141 N1149 1.427 . S
C1142 H1133 0.930 . S
C1142 C1140 1.378 . S
C1142 C1143 1.367 . S
C1143 C1142 1.367 . S
C1143 C1145 1.433 . S
C1144 C1140 1.350 . S
C1144 C1141 1.463 . S
C1144 N1148 1.427 . S
C1145 H1135 0.929 . S
C1145 C1143 1.433 . S
C1145 N1148 1.384 . S
C1146 H1137 0.929 . S
C1146 C1138 1.378 . S
C1146 C1141 1.350 . S
C1147 H1134 0.929 . S
C1147 C1139 1.433 . S
C1147 N1149 1.384 . S
N1148 C1144 1.427 . S
N1148 C1145 1.384 . S
N1149 C1141 1.427 . S
N1149 C1147 1.384 . S
H1150 C1156 0.930 . S
H1151 C1160 0.930 . S
H1152 C1165 0.929 1_655 S
H1153 C1163 0.929 1_455 S
H1154 C1158 0.929 . S
H1155 C1164 0.929 . S
C1156 H1150 0.930 . S
C1156 C1157 1.367 1_565 S
C1156 C1164 1.378 . S
C1157 C1156 1.367 1_545 S
C1157 C1165 1.433 . S
C1158 H1154 0.929 . S
C1158 C1160 1.378 . S
C1158 C1162 1.350 1_545 S
C1159 C1162 1.463 1_446 S
C1159 C1164 1.350 1_545 S
C1159 N1167 1.427 1_455 S
C1160 H1151 0.930 . S
C1160 C1158 1.378 . S
C1160 C1161 1.367 1_545 S
C1161 C1160 1.367 1_565 S
C1161 C1163 1.433 . S
C1162 C1158 1.350 1_565 S
C1162 C1159 1.463 1_664 S
C1162 N1166 1.427 1_655 S
C1163 H1153 0.929 1_655 S
C1163 C1161 1.433 . S
C1163 N1166 1.384 1_655 S
C1164 H1155 0.929 . S
C1164 C1156 1.378 . S
C1164 C1159 1.350 1_565 S
C1165 H1152 0.929 1_455 S
C1165 C1157 1.433 . S
C1165 N1167 1.384 1_455 S
N1166 C1162 1.427 1_455 S
N1166 C1163 1.384 1_455 S
N1167 C1159 1.427 1_655 S
N1167 C1165 1.384 1_655 S
H1168 C1174 0.930 . S
H1169 C1178 0.930 . S
H1170 C1183 0.929 . S
H1171 C1181 0.929 . S
H1172 C1176 0.929 . S
H1173 C1182 0.929 . S
C1174 H1168 0.930 . S
C1174 C1175 1.367 . S
C1174 C1182 1.378 . S
C1175 C1174 1.367 . S
C1175 C1183 1.433 . S
C1176 H1172 0.929 . S
C1176 C1178 1.378 . S
C1176 C1180 1.350 . S
C1177 C1180 1.463 . S
C1177 C1182 1.350 . S
C1177 N1185 1.427 . S
C1178 H1169 0.930 . S
C1178 C1176 1.378 . S
C1178 C1179 1.367 . S
C1179 C1178 1.367 . S
C1179 C1181 1.433 . S
C1180 C1176 1.350 . S
C1180 C1177 1.463 . S
C1180 N1184 1.427 . S
C1181 H1171 0.929 . S
C1181 C1179 1.433 . S
C1181 N1184 1.384 . S
C1182 H1173 0.929 . S
C1182 C1174 1.378 . S
C1182 C1177 1.350 . S
C1183 H1170 0.929 . S
C1183 C1175 1.433 . S
C1183 N1185 1.384 . S
N1184 C1180 1.427 . S
N1184 C1181 1.384 . S
N1185 C1177 1.427 . S
N1185 C1183 1.384 . S
H1186 C1192 0.930 . S
H1187 C1196 0.930 . S
H1188 C1201 0.929 . S
H1189 C1199 0.929 . S
H1190 C1194 0.929 . S
H1191 C1200 0.929 . S
C1192 H1186 0.930 . S
C1192 C1193 1.367 . S
C1192 C1200 1.378 . S
C1193 C1192 1.367 . S
C1193 C1201 1.433 . S
C1194 H1190 0.929 . S
C1194 C1196 1.378 . S
C1194 C1198 1.350 . S
C1195 C1198 1.463 . S
C1195 C1200 1.350 . S
C1195 N1203 1.427 . S
C1196 H1187 0.930 . S
C1196 C1194 1.378 . S
C1196 C1197 1.367 . S
C1197 C1196 1.367 . S
C1197 C1199 1.433 . S
C1198 C1194 1.350 . S
C1198 C1195 1.463 . S
C1198 N1202 1.427 . S
C1199 H1189 0.929 . S
C1199 C1197 1.433 . S
C1199 N1202 1.384 . S
C1200 H1191 0.929 . S
C1200 C1192 1.378 . S
C1200 C1195 1.350 . S
C1201 H1188 0.929 . S
C1201 C1193 1.433 . S
C1201 N1203 1.384 . S
N1202 C1198 1.427 . S
N1202 C1199 1.384 . S
N1203 C1195 1.427 . S
N1203 C1201 1.384 . S
H1204 C1210 0.930 . S
H1205 C1214 0.930 . S
H1206 C1219 0.929 . S
H1207 C1217 0.929 . S
H1208 C1212 0.929 . S
H1209 C1218 0.929 . S
C1210 H1204 0.930 . S
C1210 C1211 1.367 . S
C1210 C1218 1.378 . S
C1211 C1210 1.367 . S
C1211 C1219 1.433 . S
C1212 H1208 0.929 . S
C1212 C1214 1.378 . S
C1212 C1216 1.350 . S
C1213 C1216 1.463 . S
C1213 C1218 1.350 . S
C1213 N1221 1.427 . S
C1214 H1205 0.930 . S
C1214 C1212 1.378 . S
C1214 C1215 1.367 . S
C1215 C1214 1.367 . S
C1215 C1217 1.433 . S
C1216 C1212 1.350 . S
C1216 C1213 1.463 . S
C1216 N1220 1.427 . S
C1217 H1207 0.929 . S
C1217 C1215 1.433 . S
C1217 N1220 1.384 . S
C1218 H1209 0.929 . S
C1218 C1210 1.378 . S
C1218 C1213 1.350 . S
C1219 H1206 0.929 . S
C1219 C1211 1.433 . S
C1219 N1221 1.384 . S
N1220 C1216 1.427 . S
N1220 C1217 1.384 . S
N1221 C1213 1.427 . S
N1221 C1219 1.384 . S
H1222 C1228 0.930 . S
H1223 C1232 0.930 . S
H1224 C1237 0.929 . S
H1225 C1235 0.929 . S
H1226 C1230 0.929 . S
H1227 C1236 0.929 . S
C1228 H1222 0.930 . S
C1228 C1229 1.367 . S
C1228 C1236 1.378 . S
C1229 C1228 1.367 . S
C1229 C1237 1.433 . S
C1230 H1226 0.929 . S
C1230 C1232 1.378 . S
C1230 C1234 1.350 . S
C1231 C1234 1.463 . S
C1231 C1236 1.350 . S
C1231 N1239 1.427 . S
C1232 H1223 0.930 . S
C1232 C1230 1.378 . S
C1232 C1233 1.367 . S
C1233 C1232 1.367 . S
C1233 C1235 1.433 . S
C1234 C1230 1.350 . S
C1234 C1231 1.463 . S
C1234 N1238 1.427 . S
C1235 H1225 0.929 . S
C1235 C1233 1.433 . S
C1235 N1238 1.384 . S
C1236 H1227 0.929 . S
C1236 C1228 1.378 . S
C1236 C1231 1.350 . S
C1237 H1224 0.929 . S
C1237 C1229 1.433 . S
C1237 N1239 1.384 . S
N1238 C1234 1.427 . S
N1238 C1235 1.384 . S
N1239 C1231 1.427 . S
N1239 C1237 1.384 . S
H1240 C1246 0.930 . S
H1241 C1250 0.930 . S
H1242 C1255 0.929 . S
H1243 C1253 0.929 . S
H1244 C1248 0.929 . S
H1245 C1254 0.929 . S
C1246 H1240 0.930 . S
C1246 C1247 1.367 . S
C1246 C1254 1.378 . S
C1247 C1246 1.367 . S
C1247 C1255 1.433 . S
C1248 H1244 0.929 . S
C1248 C1250 1.378 . S
C1248 C1252 1.350 . S
C1249 C1252 1.463 1_554 S
C1249 C1254 1.350 . S
C1249 N1257 1.427 . S
C1250 H1241 0.930 . S
C1250 C1248 1.378 . S
C1250 C1251 1.367 . S
C1251 C1250 1.367 . S
C1251 C1253 1.433 . S
C1252 C1248 1.350 . S
C1252 C1249 1.463 1_556 S
C1252 N1256 1.427 . S
C1253 H1243 0.929 . S
C1253 C1251 1.433 . S
C1253 N1256 1.384 . S
C1254 H1245 0.929 . S
C1254 C1246 1.378 . S
C1254 C1249 1.350 . S
C1255 H1242 0.929 . S
C1255 C1247 1.433 . S
C1255 N1257 1.384 . S
N1256 C1252 1.427 . S
N1256 C1253 1.384 . S
N1257 C1249 1.427 . S
N1257 C1255 1.384 . S
H1258 C1264 0.930 . S
H1259 C1268 0.930 . S
H1260 C1273 0.929 . S
H1261 C1271 0.929 . S
H1262 C1266 0.919 1_455 S
H1263 C1272 0.919 1_655 S
C1264 H1258 0.930 . S
C1264 C1265 1.367 . S
C1264 C1272 1.378 . S
C1265 C1264 1.367 . S
C1265 C1273 1.433 . S
C1266 H1262 0.919 1_655 S
C1266 C1268 1.378 . S
C1266 C1270 1.350 . S
C1267 C1270 1.463 1_455 S
C1267 C1272 1.350 . S
C1267 N1275 1.427 . S
C1268 H1259 0.930 . S
C1268 C1266 1.378 . S
C1268 C1269 1.367 . S
C1269 C1268 1.367 . S
C1269 C1271 1.433 . S
C1270 C1266 1.350 . S
C1270 C1267 1.463 1_655 S
C1270 N1274 1.427 . S
C1271 H1261 0.929 . S
C1271 C1269 1.433 . S
C1271 N1274 1.384 . S
C1272 H1263 0.919 1_455 S
C1272 C1264 1.378 . S
C1272 C1267 1.350 . S
C1273 H1260 0.929 . S
C1273 C1265 1.433 . S
C1273 N1275 1.384 . S
N1274 C1270 1.427 . S
N1274 C1271 1.384 . S
N1275 C1267 1.427 . S
N1275 C1273 1.384 . S
H1276 C1282 0.930 . S
H1277 C1286 0.930 . S
H1278 C1291 0.929 . S
H1279 C1289 0.929 . S
H1280 C1284 0.929 1_455 S
H1281 C1290 0.929 1_655 S
C1282 H1276 0.930 . S
C1282 C1283 1.367 . S
C1282 C1290 1.378 . S
C1283 C1282 1.367 . S
C1283 C1291 1.433 . S
C1284 H1280 0.929 1_655 S
C1284 C1286 1.378 . S
C1284 C1288 1.350 . S
C1285 C1288 1.463 1_454 S
C1285 C1290 1.350 . S
C1285 N1293 1.427 . S
C1286 H1277 0.930 . S
C1286 C1284 1.378 . S
C1286 C1287 1.367 . S
C1287 C1286 1.367 . S
C1287 C1289 1.433 . S
C1288 C1284 1.350 . S
C1288 C1285 1.463 1_656 S
C1288 N1292 1.427 . S
C1289 H1279 0.929 . S
C1289 C1287 1.433 . S
C1289 N1292 1.384 . S
C1290 H1281 0.929 1_455 S
C1290 C1282 1.378 . S
C1290 C1285 1.350 . S
C1291 H1278 0.929 . S
C1291 C1283 1.433 . S
C1291 N1293 1.384 . S
N1292 C1288 1.427 . S
N1292 C1289 1.384 . S
N1293 C1285 1.427 . S
N1293 C1291 1.384 . S
H1294 C1300 0.930 . S
H1295 C1304 0.930 . S
H1296 C1309 0.929 . S
H1297 C1307 0.929 . S
H1298 C1302 0.929 . S
H1299 C1308 0.929 . S
C1300 H1294 0.930 . S
C1300 C1301 1.367 . S
C1300 C1308 1.378 . S
C1301 C1300 1.367 . S
C1301 C1309 1.433 . S
C1302 H1298 0.929 . S
C1302 C1304 1.378 . S
C1302 C1306 1.350 . S
C1303 C1306 1.463 . S
C1303 C1308 1.350 . S
C1303 N1311 1.427 . S
C1304 H1295 0.930 . S
C1304 C1302 1.378 . S
C1304 C1305 1.367 . S
C1305 C1304 1.367 . S
C1305 C1307 1.433 . S
C1306 C1302 1.350 . S
C1306 C1303 1.463 . S
C1306 N1310 1.427 . S
C1307 H1297 0.929 . S
C1307 C1305 1.433 . S
C1307 N1310 1.384 . S
C1308 H1299 0.929 . S
C1308 C1300 1.378 . S
C1308 C1303 1.350 . S
C1309 H1296 0.929 . S
C1309 C1301 1.433 . S
C1309 N1311 1.384 . S
N1310 C1306 1.427 . S
N1310 C1307 1.384 . S
N1311 C1303 1.427 . S
N1311 C1309 1.384 . S
H1312 C1318 0.930 . S
H1313 C1322 0.930 . S
H1314 C1327 0.929 . S
H1315 C1325 0.929 . S
H1316 C1320 0.929 . S
H1317 C1326 0.929 . S
C1318 H1312 0.930 . S
C1318 C1319 1.367 . S
C1318 C1326 1.378 . S
C1319 C1318 1.367 . S
C1319 C1327 1.433 . S
C1320 H1316 0.929 . S
C1320 C1322 1.378 . S
C1320 C1324 1.350 . S
C1321 C1324 1.463 . S
C1321 C1326 1.350 . S
C1321 N1329 1.427 . S
C1322 H1313 0.930 . S
C1322 C1320 1.378 . S
C1322 C1323 1.367 . S
C1323 C1322 1.367 . S
C1323 C1325 1.433 . S
C1324 C1320 1.350 . S
C1324 C1321 1.463 . S
C1324 N1328 1.427 . S
C1325 H1315 0.929 . S
C1325 C1323 1.433 . S
C1325 N1328 1.384 . S
C1326 H1317 0.929 . S
C1326 C1318 1.378 . S
C1326 C1321 1.350 . S
C1327 H1314 0.929 . S
C1327 C1319 1.433 . S
C1327 N1329 1.384 . S
N1328 C1324 1.427 . S
N1328 C1325 1.384 . S
N1329 C1321 1.427 . S
N1329 C1327 1.384 . S
H1330 C1336 0.930 . S
H1331 C1340 0.930 . S
H1332 C1345 0.929 . S
H1333 C1343 0.929 . S
H1334 C1338 0.929 . S
H1335 C1344 0.929 . S
C1336 H1330 0.930 . S
C1336 C1337 1.367 . S
C1336 C1344 1.378 . S
C1337 C1336 1.367 . S
C1337 C1345 1.433 . S
C1338 H1334 0.929 . S
C1338 C1340 1.378 . S
C1338 C1342 1.350 . S
C1339 C1342 1.463 . S
C1339 C1344 1.350 . S
C1339 N1347 1.427 . S
C1340 H1331 0.930 . S
C1340 C1338 1.378 . S
C1340 C1341 1.367 . S
C1341 C1340 1.367 . S
C1341 C1343 1.433 . S
C1342 C1338 1.350 . S
C1342 C1339 1.463 . S
C1342 N1346 1.427 . S
C1343 H1333 0.929 . S
C1343 C1341 1.433 . S
C1343 N1346 1.384 . S
C1344 H1335 0.929 . S
C1344 C1336 1.378 . S
C1344 C1339 1.350 . S
C1345 H1332 0.929 . S
C1345 C1337 1.433 . S
C1345 N1347 1.384 . S
N1346 C1342 1.427 . S
N1346 C1343 1.384 . S
N1347 C1339 1.427 . S
N1347 C1345 1.384 . S
H1348 C1354 0.930 . S
H1349 C1358 0.930 . S
H1350 C1363 0.929 . S
H1351 C1361 0.929 . S
H1352 C1356 0.929 . S
H1353 C1362 0.929 . S
C1354 H1348 0.930 . S
C1354 C1355 1.367 . S
C1354 C1362 1.378 . S
C1355 C1354 1.367 . S
C1355 C1363 1.433 . S
C1356 H1352 0.929 . S
C1356 C1358 1.378 . S
C1356 C1360 1.350 . S
C1357 C1360 1.463 . S
C1357 C1362 1.350 . S
C1357 N1365 1.427 . S
C1358 H1349 0.930 . S
C1358 C1356 1.378 . S
C1358 C1359 1.367 . S
C1359 C1358 1.367 . S
C1359 C1361 1.433 . S
C1360 C1356 1.350 . S
C1360 C1357 1.463 . S
C1360 N1364 1.427 . S
C1361 H1351 0.929 . S
C1361 C1359 1.433 . S
C1361 N1364 1.384 . S
C1362 H1353 0.929 . S
C1362 C1354 1.378 . S
C1362 C1357 1.350 . S
C1363 H1350 0.929 . S
C1363 C1355 1.433 . S
C1363 N1365 1.384 . S
N1364 C1360 1.427 . S
N1364 C1361 1.384 . S
N1365 C1357 1.427 . S
N1365 C1363 1.384 . S
H1366 C1372 0.930 . S
H1367 C1376 0.930 . S
H1368 C1381 0.929 . S
H1369 C1379 0.929 . S
H1370 C1374 0.929 . S
H1371 C1380 0.929 . S
C1372 H1366 0.930 . S
C1372 C1373 1.367 . S
C1372 C1380 1.378 . S
C1373 C1372 1.367 . S
C1373 C1381 1.433 . S
C1374 H1370 0.929 . S
C1374 C1376 1.378 . S
C1374 C1378 1.350 . S
C1375 C1378 1.463 . S
C1375 C1380 1.350 . S
C1375 N1383 1.427 . S
C1376 H1367 0.930 . S
C1376 C1374 1.378 . S
C1376 C1377 1.367 . S
C1377 C1376 1.367 . S
C1377 C1379 1.433 . S
C1378 C1374 1.350 . S
C1378 C1375 1.463 . S
C1378 N1382 1.427 . S
C1379 H1369 0.929 . S
C1379 C1377 1.433 . S
C1379 N1382 1.384 . S
C1380 H1371 0.929 . S
C1380 C1372 1.378 . S
C1380 C1375 1.350 . S
C1381 H1368 0.929 . S
C1381 C1373 1.433 . S
C1381 N1383 1.384 . S
N1382 C1378 1.427 . S
N1382 C1379 1.384 . S
N1383 C1375 1.427 . S
N1383 C1381 1.384 . S
H1384 C1390 0.930 . S
H1385 C1394 0.930 . S
H1386 C1399 0.929 . S
H1387 C1397 0.929 . S
H1388 C1392 0.929 . S
H1389 C1398 0.929 . S
C1390 H1384 0.930 . S
C1390 C1391 1.367 . S
C1390 C1398 1.378 . S
C1391 C1390 1.367 . S
C1391 C1399 1.433 . S
C1392 H1388 0.929 . S
C1392 C1394 1.378 . S
C1392 C1396 1.350 . S
C1393 C1396 1.463 . S
C1393 C1398 1.350 . S
C1393 N1401 1.427 . S
C1394 H1385 0.930 . S
C1394 C1392 1.378 . S
C1394 C1395 1.367 . S
C1395 C1394 1.367 . S
C1395 C1397 1.433 . S
C1396 C1392 1.350 . S
C1396 C1393 1.463 . S
C1396 N1400 1.427 . S
C1397 H1387 0.929 . S
C1397 C1395 1.433 . S
C1397 N1400 1.384 . S
C1398 H1389 0.929 . S
C1398 C1390 1.378 . S
C1398 C1393 1.350 . S
C1399 H1386 0.929 . S
C1399 C1391 1.433 . S
C1399 N1401 1.384 . S
N1400 C1396 1.427 . S
N1400 C1397 1.384 . S
N1401 C1393 1.427 . S
N1401 C1399 1.384 . S
H1402 C1408 0.930 . S
H1403 C1412 0.930 . S
H1404 C1417 0.929 . S
H1405 C1415 0.929 . S
H1406 C1410 0.929 . S
H1407 C1416 0.929 . S
C1408 H1402 0.930 . S
C1408 C1409 1.367 . S
C1408 C1416 1.378 . S
C1409 C1408 1.367 . S
C1409 C1417 1.433 . S
C1410 H1406 0.929 . S
C1410 C1412 1.378 . S
C1410 C1414 1.350 . S
C1411 C1414 1.463 . S
C1411 C1416 1.350 . S
C1411 N1419 1.427 . S
C1412 H1403 0.930 . S
C1412 C1410 1.378 . S
C1412 C1413 1.367 . S
C1413 C1412 1.367 . S
C1413 C1415 1.433 . S
C1414 C1410 1.350 . S
C1414 C1411 1.463 . S
C1414 N1418 1.427 . S
C1415 H1405 0.929 . S
C1415 C1413 1.433 . S
C1415 N1418 1.384 . S
C1416 H1407 0.929 . S
C1416 C1408 1.378 . S
C1416 C1411 1.350 . S
C1417 H1404 0.929 . S
C1417 C1409 1.433 . S
C1417 N1419 1.384 . S
N1418 C1414 1.427 . S
N1418 C1415 1.384 . S
N1419 C1411 1.427 . S
N1419 C1417 1.384 . S
H1420 C1426 0.930 . S
H1421 C1430 0.930 . S
H1422 C1435 0.929 . S
H1423 C1433 0.929 . S
H1424 C1428 0.929 . S
H1425 C1434 0.929 . S
C1426 H1420 0.930 . S
C1426 C1427 1.367 . S
C1426 C1434 1.378 . S
C1427 C1426 1.367 . S
C1427 C1435 1.433 . S
C1428 H1424 0.929 . S
C1428 C1430 1.378 . S
C1428 C1432 1.350 . S
C1429 C1432 1.463 . S
C1429 C1434 1.350 . S
C1429 N1437 1.427 . S
C1430 H1421 0.930 . S
C1430 C1428 1.378 . S
C1430 C1431 1.367 . S
C1431 C1430 1.367 . S
C1431 C1433 1.433 . S
C1432 C1428 1.350 . S
C1432 C1429 1.463 . S
C1432 N1436 1.427 . S
C1433 H1423 0.929 . S
C1433 C1431 1.433 . S
C1433 N1436 1.384 . S
C1434 H1425 0.929 . S
C1434 C1426 1.378 . S
C1434 C1429 1.350 . S
C1435 H1422 0.929 . S
C1435 C1427 1.433 . S
C1435 N1437 1.384 . S
N1436 C1432 1.427 . S
N1436 C1433 1.384 . S
N1437 C1429 1.427 . S
N1437 C1435 1.384 . S
H1438 C1444 0.930 . S
H1439 C1448 0.930 . S
H1440 C1453 0.929 . S
H1441 C1451 0.929 . S
H1442 C1446 0.929 . S
H1443 C1452 0.929 . S
C1444 H1438 0.930 . S
C1444 C1445 1.367 . S
C1444 C1452 1.378 . S
C1445 C1444 1.367 . S
C1445 C1453 1.433 . S
C1446 H1442 0.929 . S
C1446 C1448 1.378 . S
C1446 C1450 1.350 . S
C1447 C1450 1.463 . S
C1447 C1452 1.350 . S
C1447 N1455 1.427 . S
C1448 H1439 0.930 . S
C1448 C1446 1.378 . S
C1448 C1449 1.367 . S
C1449 C1448 1.367 . S
C1449 C1451 1.433 . S
C1450 C1446 1.350 . S
C1450 C1447 1.463 . S
C1450 N1454 1.427 . S
C1451 H1441 0.929 . S
C1451 C1449 1.433 . S
C1451 N1454 1.384 . S
C1452 H1443 0.929 . S
C1452 C1444 1.378 . S
C1452 C1447 1.350 . S
C1453 H1440 0.929 . S
C1453 C1445 1.433 . S
C1453 N1455 1.384 . S
N1454 C1450 1.427 . S
N1454 C1451 1.384 . S
N1455 C1447 1.427 . S
N1455 C1453 1.384 . S
H1456 C1462 0.930 . S
H1457 C1466 0.930 . S
H1458 C1471 0.929 . S
H1459 C1469 0.929 . S
H1460 C1464 0.929 . S
H1461 C1470 0.929 . S
C1462 H1456 0.930 . S
C1462 C1463 1.367 . S
C1462 C1470 1.378 . S
C1463 C1462 1.367 . S
C1463 C1471 1.433 . S
C1464 H1460 0.929 . S
C1464 C1466 1.378 . S
C1464 C1468 1.350 . S
C1465 C1468 1.463 . S
C1465 C1470 1.350 . S
C1465 N1473 1.427 . S
C1466 H1457 0.930 . S
C1466 C1464 1.378 . S
C1466 C1467 1.367 . S
C1467 C1466 1.367 . S
C1467 C1469 1.433 . S
C1468 C1464 1.350 . S
C1468 C1465 1.463 . S
C1468 N1472 1.427 . S
C1469 H1459 0.929 . S
C1469 C1467 1.433 . S
C1469 N1472 1.384 . S
C1470 H1461 0.929 . S
C1470 C1462 1.378 . S
C1470 C1465 1.350 . S
C1471 H1458 0.929 . S
C1471 C1463 1.433 . S
C1471 N1473 1.384 . S
N1472 C1468 1.427 . S
N1472 C1469 1.384 . S
N1473 C1465 1.427 . S
N1473 C1471 1.384 . S
H1474 C1480 0.930 . S
H1475 C1484 0.930 . S
H1476 C1489 0.929 . S
H1477 C1487 0.929 . S
H1478 C1482 0.929 . S
H1479 C1488 0.929 . S
C1480 H1474 0.930 . S
C1480 C1481 1.367 . S
C1480 C1488 1.378 . S
C1481 C1480 1.367 . S
C1481 C1489 1.433 . S
C1482 H1478 0.929 . S
C1482 C1484 1.378 . S
C1482 C1486 1.350 . S
C1483 C1486 1.463 . S
C1483 C1488 1.350 . S
C1483 N1491 1.427 . S
C1484 H1475 0.930 . S
C1484 C1482 1.378 . S
C1484 C1485 1.367 . S
C1485 C1484 1.367 . S
C1485 C1487 1.433 . S
C1486 C1482 1.350 . S
C1486 C1483 1.463 . S
C1486 N1490 1.427 . S
C1487 H1477 0.929 . S
C1487 C1485 1.433 . S
C1487 N1490 1.384 . S
C1488 H1479 0.929 . S
C1488 C1480 1.378 . S
C1488 C1483 1.350 . S
C1489 H1476 0.929 . S
C1489 C1481 1.433 . S
C1489 N1491 1.384 . S
N1490 C1486 1.427 . S
N1490 C1487 1.384 . S
N1491 C1483 1.427 . S
N1491 C1489 1.384 . S
H1492 C1498 0.930 . S
H1493 C1502 0.930 . S
H1494 C1507 0.929 . S
H1495 C1505 0.929 . S
H1496 C1500 0.929 . S
H1497 C1506 0.929 . S
C1498 H1492 0.930 . S
C1498 C1499 1.367 . S
C1498 C1506 1.378 . S
C1499 C1498 1.367 . S
C1499 C1507 1.433 . S
C1500 H1496 0.929 . S
C1500 C1502 1.378 . S
C1500 C1504 1.350 . S
C1501 C1504 1.463 . S
C1501 C1506 1.350 . S
C1501 N1509 1.427 . S
C1502 H1493 0.930 . S
C1502 C1500 1.378 . S
C1502 C1503 1.367 . S
C1503 C1502 1.367 . S
C1503 C1505 1.433 . S
C1504 C1500 1.350 . S
C1504 C1501 1.463 . S
C1504 N1508 1.427 . S
C1505 H1495 0.929 . S
C1505 C1503 1.433 . S
C1505 N1508 1.384 . S
C1506 H1497 0.929 . S
C1506 C1498 1.378 . S
C1506 C1501 1.350 . S
C1507 H1494 0.929 . S
C1507 C1499 1.433 . S
C1507 N1509 1.384 . S
N1508 C1504 1.427 . S
N1508 C1505 1.384 . S
N1509 C1501 1.427 . S
N1509 C1507 1.384 . S
H1510 C1516 0.930 . S
H1511 C1520 0.930 . S
H1512 C1525 0.929 . S
H1513 C1523 0.929 . S
H1514 C1518 0.929 . S
H1515 C1524 0.929 . S
C1516 H1510 0.930 . S
C1516 C1517 1.367 . S
C1516 C1524 1.378 . S
C1517 C1516 1.367 . S
C1517 C1525 1.433 . S
C1518 H1514 0.929 . S
C1518 C1520 1.378 . S
C1518 C1522 1.350 . S
C1519 C1522 1.463 . S
C1519 C1524 1.350 . S
C1519 N1527 1.427 . S
C1520 H1511 0.930 . S
C1520 C1518 1.378 . S
C1520 C1521 1.367 . S
C1521 C1520 1.367 . S
C1521 C1523 1.433 . S
C1522 C1518 1.350 . S
C1522 C1519 1.463 . S
C1522 N1526 1.427 . S
C1523 H1513 0.929 . S
C1523 C1521 1.433 . S
C1523 N1526 1.384 . S
C1524 H1515 0.929 . S
C1524 C1516 1.378 . S
C1524 C1519 1.350 . S
C1525 H1512 0.929 . S
C1525 C1517 1.433 . S
C1525 N1527 1.384 . S
N1526 C1522 1.427 . S
N1526 C1523 1.384 . S
N1527 C1519 1.427 . S
N1527 C1525 1.384 . S
H1528 C1534 0.930 . S
H1529 C1538 0.930 . S
H1530 C1543 0.929 . S
H1531 C1541 0.929 . S
H1532 C1536 0.929 . S
H1533 C1542 0.929 . S
C1534 H1528 0.930 . S
C1534 C1535 1.367 . S
C1534 C1542 1.378 . S
C1535 C1534 1.367 . S
C1535 C1543 1.433 . S
C1536 H1532 0.929 . S
C1536 C1538 1.378 . S
C1536 C1540 1.350 . S
C1537 C1540 1.463 . S
C1537 C1542 1.350 . S
C1537 N1545 1.427 . S
C1538 H1529 0.930 . S
C1538 C1536 1.378 . S
C1538 C1539 1.367 . S
C1539 C1538 1.367 . S
C1539 C1541 1.433 . S
C1540 C1536 1.350 . S
C1540 C1537 1.463 . S
C1540 N1544 1.427 . S
C1541 H1531 0.929 . S
C1541 C1539 1.433 . S
C1541 N1544 1.384 . S
C1542 H1533 0.929 . S
C1542 C1534 1.378 . S
C1542 C1537 1.350 . S
C1543 H1530 0.929 . S
C1543 C1535 1.433 . S
C1543 N1545 1.384 . S
N1544 C1540 1.427 . S
N1544 C1541 1.384 . S
N1545 C1537 1.427 . S
N1545 C1543 1.384 . S
H1546 C1552 0.930 . S
H1547 C1556 0.930 . S
H1548 C1561 0.929 . S
H1549 C1559 0.929 . S
H1550 C1554 0.929 . S
H1551 C1560 0.929 . S
C1552 H1546 0.930 . S
C1552 C1553 1.367 . S
C1552 C1560 1.378 . S
C1553 C1552 1.367 . S
C1553 C1561 1.433 . S
C1554 H1550 0.929 . S
C1554 C1556 1.378 . S
C1554 C1558 1.350 . S
C1555 C1558 1.463 . S
C1555 C1560 1.350 . S
C1555 N1563 1.427 . S
C1556 H1547 0.930 . S
C1556 C1554 1.378 . S
C1556 C1557 1.367 . S
C1557 C1556 1.367 . S
C1557 C1559 1.433 . S
C1558 C1554 1.350 . S
C1558 C1555 1.463 . S
C1558 N1562 1.427 . S
C1559 H1549 0.929 . S
C1559 C1557 1.433 . S
C1559 N1562 1.384 . S
C1560 H1551 0.929 . S
C1560 C1552 1.378 . S
C1560 C1555 1.350 . S
C1561 H1548 0.929 . S
C1561 C1553 1.433 . S
C1561 N1563 1.384 . S
N1562 C1558 1.427 . S
N1562 C1559 1.384 . S
N1563 C1555 1.427 . S
N1563 C1561 1.384 . S
H1564 C1570 0.930 . S
H1565 C1574 0.930 . S
H1566 C1579 0.929 . S
H1567 C1577 0.929 . S
H1568 C1572 0.929 . S
H1569 C1578 0.929 . S
C1570 H1564 0.930 . S
C1570 C1571 1.367 . S
C1570 C1578 1.378 . S
C1571 C1570 1.367 . S
C1571 C1579 1.433 . S
C1572 H1568 0.929 . S
C1572 C1574 1.378 . S
C1572 C1576 1.350 . S
C1573 C1576 1.463 . S
C1573 C1578 1.350 . S
C1573 N1581 1.427 . S
C1574 H1565 0.930 . S
C1574 C1572 1.378 . S
C1574 C1575 1.367 . S
C1575 C1574 1.367 . S
C1575 C1577 1.433 . S
C1576 C1572 1.350 . S
C1576 C1573 1.463 . S
C1576 N1580 1.427 . S
C1577 H1567 0.929 . S
C1577 C1575 1.433 . S
C1577 N1580 1.384 . S
C1578 H1569 0.929 . S
C1578 C1570 1.378 . S
C1578 C1573 1.350 . S
C1579 H1566 0.929 . S
C1579 C1571 1.433 . S
C1579 N1581 1.384 . S
N1580 C1576 1.427 . S
N1580 C1577 1.384 . S
N1581 C1573 1.427 . S
N1581 C1579 1.384 . S
H1582 C1588 0.930 . S
H1583 C1592 0.930 . S
H1584 C1597 0.929 . S
H1585 C1595 0.929 . S
H1586 C1590 0.929 . S
H1587 C1596 0.929 . S
C1588 H1582 0.930 . S
C1588 C1589 1.367 . S
C1588 C1596 1.378 . S
C1589 C1588 1.367 . S
C1589 C1597 1.433 . S
C1590 H1586 0.929 . S
C1590 C1592 1.378 . S
C1590 C1594 1.350 . S
C1591 C1594 1.463 . S
C1591 C1596 1.350 . S
C1591 N1599 1.427 . S
C1592 H1583 0.930 . S
C1592 C1590 1.378 . S
C1592 C1593 1.367 . S
C1593 C1592 1.367 . S
C1593 C1595 1.433 . S
C1594 C1590 1.350 . S
C1594 C1591 1.463 . S
C1594 N1598 1.427 . S
C1595 H1585 0.929 . S
C1595 C1593 1.433 . S
C1595 N1598 1.384 . S
C1596 H1587 0.929 . S
C1596 C1588 1.378 . S
C1596 C1591 1.350 . S
C1597 H1584 0.929 . S
C1597 C1589 1.433 . S
C1597 N1599 1.384 . S
N1598 C1594 1.427 . S
N1598 C1595 1.384 . S
N1599 C1591 1.427 . S
N1599 C1597 1.384 . S
C455 C385 1.293 . S
C459 C9 1.295 . S
C473 C23 1.289 1_655 S
C477 C119 1.306 . S
C491 C357 1.293 . S
C495 C37 1.292 . S
C509 C51 1.300 . S
C513 C147 1.301 . S
C527 C65 1.294 . S
C531 C413 1.306 . S
C545 C79 1.299 . S
C549 C203 1.302 . S
C563 C93 1.287 . S
C567 C441 1.305 . S
C581 C107 1.294 1_655 S
C585 C175 1.304 . S
C599 C273 1.304 . S
C603 C121 1.298 . S
C617 C7 1.296 . S
C621 C135 1.284 1_455 S
C635 C245 1.296 . S
C639 C149 1.300 . S
C653 C163 1.298 . S
C657 C35 1.303 . S
C671 C301 1.304 . S
C675 C177 1.297 . S
C689 C91 1.296 . S
C693 C191 1.288 . S
C707 C205 1.296 . S
C711 C329 1.293 . S
C725 C63 1.305 . S
C729 C219 1.283 1_455 S
C743 C233 1.300 . S
C747 C161 1.295 . S
C761 C247 1.299 . S
C765 C343 1.303 . S
C779 C133 1.298 . S
C783 C261 1.286 . S
C797 C371 1.304 . S
C801 C275 1.282 1_455 S
C815 C189 1.306 . S
C819 C289 1.288 . S
C833 C427 1.306 . S
C837 C303 1.289 1_455 S
C851 C217 1.303 . S
C855 C317 1.298 . S
C869 C331 1.286 . S
C873 C399 1.299 . S
C887 C49 1.294 . S
C891 C345 1.291 . S
C905 C359 1.287 . S
C909 C231 1.305 . S
C923 C373 1.289 . S
C927 C21 1.295 . S
C941 C387 1.290 1_655 S
C945 C259 1.306 . S
C959 C401 1.300 . S
C963 C77 1.300 . S
C977 C415 1.291 1_655 S
C981 C315 1.306 . S
C995 C429 1.291 . S
C999 C105 1.307 . S
C1013 C443 1.295 . S
C1017 C287 1.306 . S
C1031 C339 1.521 . S
C1035 C3 1.521 . S
C1049 C17 1.519 . S
C1053 C129 1.519 . S
C1067 C367 1.520 . S
C1071 C31 1.520 . S
C1085 C45 1.520 . S
C1089 C157 1.520 . S
C1103 C395 1.518 . S
C1107 C59 1.518 . S
C1121 C73 1.518 . S
C1125 C185 1.518 . S
C1139 C423 1.518 . S
C1143 C87 1.518 . S
C1157 C101 1.521 . S
C1161 C213 1.521 . S
C1175 C115 1.518 . S
C1179 C227 1.518 . S
C1193 C143 1.521 . S
C1197 C255 1.521 . S
C1211 C171 1.518 . S
C1215 C283 1.518 . S
C1229 C199 1.520 . S
C1233 C311 1.520 . S
C1247 C241 1.518 . S
C1251 C353 1.518 . S
C1265 C381 1.519 . S
C1269 C269 1.519 . S
C1283 C409 1.519 . S
C1287 C297 1.519 . S
C1301 C325 1.519 . S
C1305 C437 1.519 . S
C1319 C8 1.474 . S
C1323 C78 1.474 . S
C1337 C22 1.474 . S
C1341 C92 1.474 . S
C1355 C36 1.474 . S
C1359 C106 1.474 . S
C1373 C64 1.473 . S
C1377 C50 1.473 . S
C1391 C120 1.473 . S
C1395 C190 1.473 . S
C1409 C134 1.474 . S
C1413 C204 1.474 . S
C1427 C148 1.473 . S
C1431 C218 1.474 . S
C1445 C162 1.474 . S
C1449 C176 1.474 . S
C1463 C232 1.473 . S
C1467 C302 1.473 . S
C1481 C316 1.473 . S
C1485 C246 1.473 . S
C1499 C260 1.474 . S
C1503 C330 1.474 . S
C1517 C274 1.473 . S
C1521 C288 1.473 . S
C1535 C414 1.474 . S
C1539 C344 1.473 . S
C1553 C358 1.474 . S
C1557 C428 1.474 . S
C1571 C442 1.474 . S
C1575 C372 1.474 . S
C1589 C386 1.474 . S
C1593 C400 1.474 . S
