# Generated by pormake.
# Topology nov, (5)-cn, num edge types: 1
# Building blocks:
#     Node 0, Type 0, BuildingBlock: XOMCOT_clean_sbu_1, # of connection points: 5
#     Node 1, Type 0, BuildingBlock: XOMCOT_clean_sbu_1, # of connection points: 5
#     Node 2, Type 0, BuildingBlock: XOMCOT_clean_sbu_1, # of connection points: 5
#     Node 3, Type 0, BuildingBlock: XOMCOT_clean_sbu_1, # of connection points: 5
#     Node 4, Type 0, BuildingBlock: XOMCOT_clean_sbu_1, # of connection points: 5
#     Node 5, Type 0, BuildingBlock: XOMCOT_clean_sbu_1, # of connection points: 5
#     Node 6, Type 0, BuildingBlock: XOMCOT_clean_sbu_1, # of connection points: 5
#     Node 7, Type 0, BuildingBlock: XOMCOT_clean_sbu_1, # of connection points: 5
#     Edge 8, Type (0, 0), BuildingBlock: XIVTED_clean_linker_0, # of connection points: 2
#     Edge 9, Type (0, 0), BuildingBlock: XIVTED_clean_linker_0, # of connection points: 2
#     Edge 10, Type (0, 0), BuildingBlock: XIVTED_clean_linker_0, # of connection points: 2
#     Edge 11, Type (0, 0), BuildingBlock: XIVTED_clean_linker_0, # of connection points: 2
#     Edge 12, Type (0, 0), BuildingBlock: XIVTED_clean_linker_0, # of connection points: 2
#     Edge 13, Type (0, 0), BuildingBlock: XIVTED_clean_linker_0, # of connection points: 2
#     Edge 14, Type (0, 0), BuildingBlock: XIVTED_clean_linker_0, # of connection points: 2
#     Edge 15, Type (0, 0), BuildingBlock: XIVTED_clean_linker_0, # of connection points: 2
#     Edge 16, Type (0, 0), BuildingBlock: XIVTED_clean_linker_0, # of connection points: 2
#     Edge 17, Type (0, 0), BuildingBlock: XIVTED_clean_linker_0, # of connection points: 2
#     Edge 18, Type (0, 0), BuildingBlock: XIVTED_clean_linker_0, # of connection points: 2
#     Edge 19, Type (0, 0), BuildingBlock: XIVTED_clean_linker_0, # of connection points: 2
#     Edge 20, Type (0, 0), BuildingBlock: XIVTED_clean_linker_0, # of connection points: 2
#     Edge 21, Type (0, 0), BuildingBlock: XIVTED_clean_linker_0, # of connection points: 2
#     Edge 22, Type (0, 0), BuildingBlock: XIVTED_clean_linker_0, # of connection points: 2
#     Edge 23, Type (0, 0), BuildingBlock: XIVTED_clean_linker_0, # of connection points: 2
#     Edge 24, Type (0, 0), BuildingBlock: XIVTED_clean_linker_0, # of connection points: 2
#     Edge 25, Type (0, 0), BuildingBlock: XIVTED_clean_linker_0, # of connection points: 2
#     Edge 26, Type (0, 0), BuildingBlock: XIVTED_clean_linker_0, # of connection points: 2
#     Edge 27, Type (0, 0), BuildingBlock: XIVTED_clean_linker_0, # of connection points: 2
# Relax obj value: 0.129
# Max RMSD: 0.163
# Mean RMSD: 0.163
data_MOF--net-nov--node1-XOMCOT_clean_sbu_1--edge1-XIVTED_clean_linker_0
_symmetry_space_group_name_H-M    P1
_symmetry_Int_Tables_number       1
_symmetry_cell_setting            triclinic
loop_
_symmetry_equiv_pos_as_xyz
'x, y, z'
_cell_length_a     26.730229
_cell_length_b     53.784124
_cell_length_c     28.62208
_cell_angle_alpha  89.857128
_cell_angle_beta   89.993068
_cell_angle_gamma 90.000173
loop_
_atom_site_label
_atom_site_type_symbol
_atom_site_fract_x
_atom_site_fract_y
_atom_site_fract_z
_atom_type_partial_charge
C0 C 0.10128 0.14618 0.04456 0.0
C1 C 0.10781 0.12505 0.01835 0.0
N2 N 0.10051 0.1051 0.04614 0.0
N3 N 0.08911 0.13972 0.08866 0.0
C4 C 0.09025 0.1146 0.08883 0.0
H5 H 0.10549 0.16508 0.03223 0.0
Co6 Co 0.07834 0.16171 0.13842 0.0
C7 C 0.98536 0.12758 0.14979 0.0
O8 O 0.98645 0.11647 0.109 0.0
N9 N 0.06726 0.18352 0.18828 0.0
C10 C 1.02402 0.20632 0.23859 0.0
C11 C 1.02153 0.19273 0.19842 0.0
C12 C 0.09727 0.19203 0.2229 0.0
N13 N 0.07147 0.20579 0.25423 0.0
O14 O 0.12264 0.14207 0.1769 0.0
H15 H 0.98797 0.18927 0.17837 0.0
H16 H 0.13653 0.18744 0.22618 0.0
O17 O 1.01887 0.14354 0.16053 0.0
C18 C 0.16733 0.14685 0.16369 0.0
O19 O 0.1737 0.16303 0.1297 0.0
N20 N 0.04046 0.18256 0.09903 0.0
C21 C 1.00589 0.21539 0.0306 0.0
C22 C 0.9817 0.19258 0.03835 0.0
C23 C 0.99948 0.17641 0.07301 0.0
C24 C 0.06338 0.20496 0.09274 0.0
C25 C 0.04636 0.22177 0.05924 0.0
H26 H 0.9821 0.15852 0.0766 0.0
H27 H 0.09676 0.20932 0.11246 0.0
H28 H 0.08275 0.10357 0.11969 0.0
H29 H 0.11777 0.12456 0.98173 0.0
H30 H 0.99304 0.21567 0.25547 0.0
H31 H 0.95055 0.18691 0.01665 0.0
H32 H 0.06688 0.2389 0.05378 0.0
C33 C 0.5193 0.88619 0.55303 0.0
C34 C 0.51556 0.9077 0.52738 0.0
N35 N 0.54311 0.92541 0.54847 0.0
N36 N 0.54929 0.89014 0.59012 0.0
C37 C 0.56292 0.9143 0.58673 0.0
H38 H 0.50165 0.86861 0.54499 0.0
Co39 Co 0.56507 0.8656 0.63408 0.0
C40 C 0.67381 0.88151 0.64719 0.0
O41 O 0.6896 0.86503 0.61701 0.0
N42 N 0.5805 0.84102 0.67943 0.0
C43 C 0.62353 0.81347 0.72133 0.0
C44 C 0.62427 0.82854 0.68287 0.0
C45 C 0.55344 0.83283 0.71655 0.0
N46 N 0.57915 0.81623 0.74273 0.0
O47 O 0.5241 0.883 0.67909 0.0
H48 H 0.65494 0.82981 0.65862 0.0
H49 H 0.51634 0.83939 0.72518 0.0
O50 O 0.62671 0.88392 0.65536 0.0
C51 C 0.47898 0.87715 0.66895 0.0
O52 O 0.47165 0.86056 0.63601 0.0
N53 N 0.5979 0.8471 0.58617 0.0
C54 C 0.62472 0.81817 0.50881 0.0
C55 C 0.63781 0.84338 0.51097 0.0
C56 C 0.62326 0.85762 0.5495 0.0
C57 C 0.58326 0.8228 0.58334 0.0
C58 C 0.59739 0.8079 0.54585 0.0
H59 H 0.63183 0.87727 0.54951 0.0
H60 H 0.55847 0.815 0.60936 0.0
H61 H 0.58747 0.9234 0.61139 0.0
H62 H 0.49366 0.91014 0.4959 0.0
H63 H 0.65341 0.80129 0.73271 0.0
H64 H 0.65792 0.85221 0.48258 0.0
H65 H 0.58428 0.78886 0.5446 0.0
C66 C 0.09652 0.886 0.94952 0.0
C67 C 0.10304 0.90724 0.97536 0.0
N68 N 0.0919 0.927 0.94823 0.0
N69 N 0.08062 0.89217 0.90632 0.0
C70 C 0.07907 0.91729 0.90631 0.0
H71 H 0.10402 0.86724 0.96124 0.0
Co72 Co 0.07075 0.8699 0.85685 0.0
C73 C 0.9728 0.90066 0.84975 0.0
O74 O 0.97239 0.91032 0.89184 0.0
N75 N 0.06072 0.84778 0.80741 0.0
C76 C 1.02239 0.82022 0.76222 0.0
C77 C 1.01586 0.83795 0.79594 0.0
C78 C 0.09402 0.83596 0.77964 0.0
N79 N 0.07143 0.81898 0.75211 0.0
O80 O 0.11186 0.89047 0.81696 0.0
H81 H 0.98077 0.84256 0.81262 0.0
H82 H 0.13408 0.83875 0.78132 0.0
O83 O 1.00867 0.88646 0.83699 0.0
C84 C 0.15702 0.88618 0.82958 0.0
O85 O 0.1646 0.87061 0.86434 0.0
N86 N 0.03757 0.84774 0.89733 0.0
C87 C 1.02138 0.81408 0.97003 0.0
C88 C 0.99063 0.83513 0.96513 0.0
C89 C 0.99933 0.85187 0.9281 0.0
C90 C 0.06521 0.82651 0.90027 0.0
C91 C 0.05689 0.80923 0.93534 0.0
H92 H 0.97833 0.8689 0.9269 0.0
H93 H 0.09672 0.82376 0.87719 0.0
H94 H 0.06869 0.92815 0.87598 0.0
H95 H 0.11634 0.90796 0.01102 0.0
H96 H 0.99353 0.80869 0.74695 0.0
H97 H 0.96295 0.83957 0.99144 0.0
H98 H 0.08098 0.79305 0.93733 0.0
C99 C 0.55303 0.14345 0.44485 0.0
C100 C 0.54962 0.12251 0.47223 0.0
N101 N 0.55967 0.10255 0.44549 0.0
N102 N 0.56613 0.13691 0.40104 0.0
C103 C 0.56864 0.11179 0.40228 0.0
H104 H 0.54554 0.16226 0.4561 0.0
Co105 Co 0.57252 0.15872 0.34986 0.0
C106 C 0.6722 0.13014 0.3443 0.0
O107 O 0.6719 0.12125 0.38706 0.0
N108 N 0.57877 0.1803 0.29881 0.0
C109 C 0.61198 0.20813 0.25045 0.0
C110 C 0.62165 0.1918 0.28619 0.0
C111 C 0.54355 0.18965 0.26971 0.0
N112 N 0.56302 0.2067 0.24017 0.0
O113 O 0.53306 0.13652 0.312 0.0
H114 H 0.65744 0.18914 0.30312 0.0
H115 H 0.50425 0.1849 0.2714 0.0
O116 O 0.6359 0.14353 0.32957 0.0
C117 C 0.48762 0.13914 0.32519 0.0
O118 O 0.47829 0.1542 0.36023 0.0
N119 N 0.60439 0.18237 0.38829 0.0
C120 C 0.61973 0.21753 0.45849 0.0
C121 C 0.65194 0.197 0.45414 0.0
C122 C 0.64378 0.17958 0.41833 0.0
C123 C 0.57521 0.2031 0.39044 0.0
C124 C 0.58317 0.22116 0.42408 0.0
H125 H 0.66635 0.16307 0.4177 0.0
H126 H 0.5431 0.20493 0.36775 0.0
H127 H 0.5775 0.10058 0.37205 0.0
H128 H 0.5393 0.12204 0.50878 0.0
H129 H 0.63861 0.22042 0.23367 0.0
H130 H 0.68066 0.19344 0.47997 0.0
H131 H 0.55828 0.23704 0.42502 0.0
C132 C 0.59622 0.64003 0.0461 0.0
C133 C 0.60274 0.61874 0.02041 0.0
N134 N 0.59158 0.59903 0.04768 0.0
N135 N 0.58029 0.63395 0.08934 0.0
C136 C 0.57872 0.60883 0.08952 0.0
H137 H 0.60374 0.65877 0.03425 0.0
Co138 Co 0.57041 0.6563 0.13868 0.0
C139 C 0.47241 0.6256 0.14583 0.0
O140 O 0.47203 0.6159 0.10378 0.0
N141 N 0.56035 0.6785 0.18801 0.0
C142 C 0.52199 0.70611 0.23307 0.0
C143 C 0.51551 0.68839 0.19932 0.0
C144 C 0.59361 0.69028 0.21589 0.0
N145 N 0.57099 0.70728 0.24335 0.0
O146 O 0.61142 0.63577 0.1787 0.0
H147 H 0.48045 0.68381 0.18255 0.0
H148 H 0.63365 0.68741 0.21438 0.0
O149 O 0.50829 0.6398 0.15856 0.0
C150 C 0.65659 0.64003 0.16608 0.0
O151 O 0.6642 0.65556 0.13126 0.0
N152 N 0.53734 0.67842 0.09806 0.0
C153 C 0.52136 0.71198 0.02519 0.0
C154 C 0.49046 0.691 0.03022 0.0
C155 C 0.49907 0.6743 0.06734 0.0
C156 C 0.56514 0.69959 0.09499 0.0
C157 C 0.55693 0.71683 0.05982 0.0
H158 H 0.47794 0.65731 0.06865 0.0
H159 H 0.59665 0.70233 0.11806 0.0
H160 H 0.56831 0.59803 0.11993 0.0
H161 H 0.61607 0.61794 0.98476 0.0
H162 H 0.49312 0.71767 0.24826 0.0
H163 H 0.46273 0.68657 0.00395 0.0
H164 H 0.58115 0.73295 0.0577 0.0
C165 C 0.05311 0.38301 0.55251 0.0
C166 C 0.04966 0.40412 0.5256 0.0
N167 N 0.05935 0.42393 0.55286 0.0
N168 N 0.06587 0.38929 0.59654 0.0
C169 C 0.06818 0.41441 0.59589 0.0
H170 H 0.04583 0.36426 0.54078 0.0
Co171 Co 0.07201 0.36723 0.64737 0.0
C172 C 0.17176 0.39565 0.65332 0.0
O173 O 0.1714 0.40462 0.61062 0.0
N174 N 0.07805 0.34539 0.69805 0.0
C175 C 0.11109 0.31728 0.74592 0.0
C176 C 0.12084 0.33372 0.71037 0.0
C177 C 0.04283 0.33603 0.72715 0.0
N178 N 0.06219 0.31882 0.75639 0.0
O179 O 1.03252 0.38931 0.68551 0.0
H180 H 0.15661 0.33635 0.6934 0.0
H181 H 1.00359 0.34093 0.7257 0.0
O182 O 0.13545 0.38225 0.66801 0.0
C183 C 0.98715 0.38681 0.67201 0.0
O184 O 0.97793 0.37188 0.63676 0.0
N185 N 0.10378 0.34371 0.60862 0.0
C186 C 0.11888 0.30884 0.53791 0.0
C187 C 0.15168 0.32909 0.54298 0.0
C188 C 0.14361 0.34638 0.57903 0.0
C189 C 0.07401 0.32322 0.60579 0.0
C190 C 0.08177 0.30531 0.57183 0.0
H191 H 0.16672 0.36269 0.58027 0.0
H192 H 0.04162 0.32151 0.62819 0.0
H193 H 0.07677 0.42544 0.62643 0.0
H194 H 0.0395 0.4048 0.48903 0.0
H195 H 0.13765 0.30488 0.76249 0.0
H196 H 0.18085 0.33254 0.51753 0.0
H197 H 0.05637 0.28964 0.57028 0.0
C198 C 0.6006 0.37966 0.95282 0.0
C199 C 0.60702 0.40081 0.97896 0.0
N200 N 0.60005 0.42073 0.95101 0.0
N201 N 0.58883 0.38606 0.9086 0.0
C202 C 0.59009 0.41118 0.90831 0.0
H203 H 0.60464 0.36076 0.96527 0.0
Co204 Co 0.57847 0.36406 0.85876 0.0
C205 C 0.48541 0.39806 0.8472 0.0
O206 O 0.48646 0.40913 0.88803 0.0
N207 N 0.56779 0.34224 0.80883 0.0
C208 C 0.52492 0.31945 0.75823 0.0
C209 C 0.52218 0.33295 0.79849 0.0
C210 C 0.598 0.33386 0.77423 0.0
N211 N 0.57241 0.32011 0.74274 0.0
O212 O 0.62299 0.38375 0.82054 0.0
H213 H 0.4885 0.33633 0.81844 0.0
H214 H 0.63721 0.33857 0.77104 0.0
O215 O 0.51899 0.38215 0.83639 0.0
C216 C 0.66753 0.37899 0.83423 0.0
O217 O 0.67352 0.36278 0.86824 0.0
N218 N 0.54049 0.34313 0.89796 0.0
C219 C 0.50594 0.31023 0.96626 0.0
C220 C 0.48159 0.33299 0.95846 0.0
C221 C 0.49936 0.3492 0.92385 0.0
C222 C 0.56357 0.32078 0.9043 0.0
C223 C 0.54656 0.30393 0.93773 0.0
H224 H 0.48184 0.36705 0.92022 0.0
H225 H 0.59706 0.31649 0.88469 0.0
H226 H 0.58289 0.42217 0.87734 0.0
H227 H 0.61669 0.40135 0.01564 0.0
H228 H 0.49407 0.31011 0.74114 0.0
H229 H 0.45034 0.33859 0.98009 0.0
H230 H 0.5672 0.28684 0.94324 0.0
C231 C 1.01903 0.63973 0.44259 0.0
C232 C 1.01542 0.61807 0.46782 0.0
N233 N 0.04299 0.6005 0.44633 0.0
N234 N 0.04895 0.636 0.40536 0.0
C235 C 0.06269 0.61185 0.40825 0.0
H236 H 1.00129 0.65723 0.45097 0.0
Co237 Co 0.06445 0.66071 0.36163 0.0
C238 C 0.17327 0.64516 0.34808 0.0
O239 O 0.18897 0.66178 0.37802 0.0
N240 N 0.07962 0.68546 0.31648 0.0
C241 C 0.12229 0.71328 0.27487 0.0
C242 C 0.1231 0.69821 0.31334 0.0
C243 C 0.05266 0.69349 0.27918 0.0
N244 N 0.07816 0.71025 0.25319 0.0
O245 O 1.02355 0.64336 0.31652 0.0
H246 H 0.15361 0.69714 0.33778 0.0
H247 H 1.01583 0.68669 0.27024 0.0
O248 O 0.12619 0.64256 0.34011 0.0
C249 C 0.97841 0.64911 0.32683 0.0
O250 O 0.97107 0.6656 0.35995 0.0
N251 N 0.09718 0.67912 0.40967 0.0
C252 C 0.12429 0.70793 0.48705 0.0
C253 C 0.13759 0.68275 0.48463 0.0
C254 C 0.1229 0.66856 0.44608 0.0
C255 C 0.0822 0.70334 0.41284 0.0
C256 C 0.09648 0.7182 0.45034 0.0
H257 H 0.13171 0.64894 0.44581 0.0
H258 H 0.05713 0.71113 0.38706 0.0
H259 H 0.08718 0.60291 0.38333 0.0
H260 H 0.99355 0.61543 0.49926 0.0
H261 H 0.15198 0.72563 0.26366 0.0
H262 H 0.15803 0.67392 0.51281 0.0
H263 H 0.0832 0.73721 0.45184 0.0
H264 H 0.09794 0.96755 0.89088 0.0
H265 H 0.11069 0.06438 0.10251 0.0
H266 H 0.09015 0.94613 0.03624 0.0
H267 H 0.09161 0.08619 0.95825 0.0
H268 H 0.1089 0.0209 0.07857 0.0
H269 H 0.10093 1.01108 0.9146 0.0
C270 C 0.09663 0.97188 0.92773 0.0
C271 C 0.09383 0.95292 0.9615 0.0
C272 C 0.10517 0.03524 0.05218 0.0
C273 C 0.09794 1.00293 0.98896 0.0
C274 C 0.10599 0.06016 0.06586 0.0
C275 C 0.10122 0.07922 0.03249 0.0
C276 C 0.09972 0.02922 0.00472 0.0
C277 C 0.09609 0.07233 0.98533 0.0
C278 C 0.09859 0.99681 0.94127 0.0
C279 C 0.09304 0.95991 0.00883 0.0
N280 N 0.09546 0.04796 0.97292 0.0
N281 N 0.09513 0.98428 0.02109 0.0
H282 H 0.57642 0.08485 0.53314 0.0
H283 H 0.53627 0.94281 0.45957 0.0
H284 H 0.54501 0.06131 0.39212 0.0
H285 H 0.56467 0.9661 0.60125 0.0
H286 H 0.54255 0.98593 0.43396 0.0
H287 H 0.57516 0.0415 0.55832 0.0
C288 C 0.56901 0.07061 0.50743 0.0
C289 C 0.56043 0.07687 0.4604 0.0
C290 C 0.54752 0.98165 0.47066 0.0
C291 C 0.55954 0.02696 0.48908 0.0
C292 C 0.54365 0.95699 0.48541 0.0
C293 C 0.54945 0.95076 0.53281 0.0
C294 C 0.55722 1.00039 0.50346 0.0
C295 C 0.56017 0.96997 0.5644 0.0
C296 C 0.56862 0.0458 0.52184 0.0
C297 C 0.55217 0.05745 0.42861 0.0
N298 N 0.56345 0.99392 0.5492 0.0
N299 N 0.55173 0.03342 0.44356 0.0
H300 H 0.59738 0.55859 0.10533 0.0
H301 H 0.6108 0.46134 0.89444 0.0
H302 H 0.59007 0.57972 0.95979 0.0
H303 H 0.59073 0.43982 0.03874 0.0
H304 H 0.60906 0.50486 0.91809 0.0
H305 H 0.60036 0.51502 0.08193 0.0
C306 C 0.59617 0.55419 0.06851 0.0
C307 C 0.59351 0.57309 0.03459 0.0
C308 C 0.6051 0.49057 0.94455 0.0
C309 C 0.59761 0.52302 0.0075 0.0
C310 C 0.60589 0.46563 0.93104 0.0
C311 C 0.60081 0.44663 0.96451 0.0
C312 C 0.59939 0.49669 0.99194 0.0
C313 C 0.59543 0.45362 0.0116 0.0
C314 C 0.59813 0.52923 0.05515 0.0
C315 C 0.59285 0.566 0.98731 0.0
N316 N 0.59484 0.47801 0.02384 0.0
N317 N 0.59493 0.5416 0.97524 0.0
H318 H 0.04423 0.46471 0.6073 0.0
H319 H 0.06547 0.56027 0.39263 0.0
H320 H 0.07584 0.44231 0.46564 0.0
H321 H 0.03534 0.58238 0.53471 0.0
H322 H 0.07259 0.5171 0.41898 0.0
H323 H 0.04373 0.50808 0.58174 0.0
C324 C 0.05139 0.46886 0.57091 0.0
C325 C 0.05983 0.44971 0.53861 0.0
C326 C 0.0645 0.53142 0.4444 0.0
C327 C 0.05889 0.49946 0.5089 0.0
C328 C 0.06071 0.55612 0.42937 0.0
C329 C 0.0494 0.57505 0.46138 0.0
C330 C 0.05704 0.52557 0.49181 0.0
C331 C 0.04315 0.56843 0.50857 0.0
C332 C 0.05085 0.49367 0.55624 0.0
C333 C 0.0683 0.45634 0.4917 0.0
N334 N 0.04693 0.54431 0.52228 0.0
N335 N 0.06754 0.4806 0.47829 0.0
H336 H 0.47754 0.13079 0.23071 0.0
H337 H 0.17882 0.12849 0.25337 0.0
H338 H 0.39829 0.1255 0.36152 0.0
H339 H 0.25888 0.14104 0.12464 0.0
H340 H 0.25854 0.11792 0.29151 0.0
H341 H 0.398 0.1247 0.18922 0.0
C342 C 0.4437 0.12754 0.25064 0.0
C343 C 0.44433 0.12885 0.29952 0.0
C344 C 0.25849 0.1226 0.2547 0.0
C345 C 0.35322 0.12244 0.25262 0.0
C346 C 0.21294 0.1285 0.23295 0.0
C347 C 0.21236 0.13601 0.18603 0.0
C348 C 0.30354 0.12415 0.22919 0.0
C349 C 0.25772 0.13578 0.16116 0.0
C350 C 0.39818 0.12433 0.22704 0.0
C351 C 0.39927 0.12487 0.32371 0.0
N352 N 0.30139 0.13025 0.18309 0.0
N353 N 0.35553 0.12219 0.3001 0.0
H354 H 0.46799 0.89393 0.75984 0.0
H355 H 0.16887 0.896 0.73555 0.0
H356 H 0.38795 0.88437 0.63035 0.0
H357 H 0.24726 0.89696 0.86712 0.0
H358 H 0.24926 0.9015 0.69503 0.0
H359 H 0.38833 0.90442 0.7984 0.0
C360 C 0.43392 0.89456 0.73939 0.0
C361 C 0.4344 0.88793 0.69208 0.0
C362 C 0.24874 0.90101 0.73285 0.0
C363 C 0.3434 0.89972 0.73562 0.0
C364 C 0.20276 0.89813 0.7559 0.0
C365 C 0.20154 0.89581 0.80464 0.0
C366 C 0.29359 0.90158 0.75883 0.0
C367 C 0.24669 0.89838 0.82937 0.0
C368 C 0.38841 0.9004 0.76135 0.0
C369 C 0.38912 0.88895 0.66715 0.0
N370 N 0.29083 0.9008 0.80627 0.0
N371 N 0.34556 0.89445 0.68922 0.0
H372 H 0.96715 0.89205 0.75578 0.0
H373 H 0.67007 0.89506 0.7405 0.0
H374 H 0.87716 0.91538 0.87288 0.0
H375 H 0.76756 0.89396 0.62052 0.0
H376 H 0.74302 0.90442 0.79023 0.0
H377 H 0.89298 0.89343 0.70622 0.0
C378 C 0.93183 0.89767 0.77103 0.0
C379 C 0.92854 0.90358 0.81864 0.0
C380 C 0.74814 0.90264 0.75286 0.0
C381 C 0.84268 0.9049 0.76192 0.0
C382 C 0.70643 0.89755 0.72445 0.0
C383 C 0.71278 0.8936 0.67632 0.0
C384 C 0.79632 0.90356 0.73289 0.0
C385 C 0.76095 0.89663 0.6575 0.0
C386 C 0.88936 0.89852 0.74264 0.0
C387 C 0.88155 0.91075 0.83632 0.0
N388 N 0.80072 0.90106 0.68577 0.0
N389 N 0.84035 0.91091 0.80814 0.0
H390 H 0.68048 0.13446 0.24898 0.0
H391 H 0.97668 0.13786 0.24333 0.0
H392 H 0.76778 0.1197 0.37276 0.0
H393 H 0.89131 0.11222 0.12494 0.0
H394 H 0.90034 0.13649 0.29101 0.0
H395 H 0.75712 0.13163 0.20193 0.0
C396 C 0.71567 0.1305 0.26623 0.0
C397 C 0.71763 0.12718 0.31488 0.0
C398 C 0.89852 0.13097 0.25468 0.0
C399 C 0.80548 0.12447 0.26139 0.0
C400 C 0.94201 0.13176 0.22746 0.0
C401 C 0.94051 0.125 0.18011 0.0
C402 C 0.85289 0.124 0.23417 0.0
C403 C 0.89438 0.11738 0.16136 0.0
C404 C 0.75932 0.12884 0.23936 0.0
C405 C 0.76439 0.12219 0.33535 0.0
N406 N 0.85234 0.11739 0.18825 0.0
N407 N 0.80649 0.12128 0.30862 0.0
H408 H 0.96747 0.6324 0.2359 0.0
H409 H 0.66836 0.63027 0.26014 0.0
H410 H 0.88737 0.64184 0.36541 0.0
H411 H 0.74683 0.6292 0.12858 0.0
H412 H 0.74873 0.62478 0.30068 0.0
H413 H 0.88784 0.62189 0.19732 0.0
C414 C 0.93339 0.63174 0.25634 0.0
C415 C 0.93385 0.63834 0.30367 0.0
C416 C 0.74823 0.62525 0.26287 0.0
C417 C 0.84288 0.62653 0.26011 0.0
C418 C 0.70226 0.62812 0.2398 0.0
C419 C 0.70107 0.63041 0.19105 0.0
C420 C 0.79309 0.62466 0.23689 0.0
C421 C 0.74623 0.62781 0.16633 0.0
C422 C 0.88791 0.62589 0.23438 0.0
C423 C 0.88856 0.63729 0.32859 0.0
N424 N 0.79036 0.6254 0.18945 0.0
N425 N 0.84502 0.63178 0.30652 0.0
H426 H 0.89978 0.40234 0.63439 0.0
H427 H 0.75717 0.3865 0.87579 0.0
H428 H 0.97463 0.39347 0.76671 0.0
H429 H 0.6817 0.39584 0.7438 0.0
H430 H 0.83634 0.39701 0.83847 0.0
H431 H 0.82062 0.40841 0.67529 0.0
C432 C 0.89969 0.40233 0.67225 0.0
C433 C 0.94376 0.39727 0.69725 0.0
C434 C 0.80252 0.39715 0.81764 0.0
C435 C 0.85278 0.40356 0.7444 0.0
C436 C 0.75718 0.39114 0.83893 0.0
C437 C 0.71283 0.38998 0.81269 0.0
C438 C 0.80395 0.40176 0.76943 0.0
C439 C 0.71501 0.39647 0.76527 0.0
C440 C 0.85437 0.40567 0.69558 0.0
C441 C 0.94158 0.39746 0.74615 0.0
N442 N 0.76001 0.40168 0.74496 0.0
N443 N 0.89662 0.40007 0.76814 0.0
H444 H 0.47655 0.38779 0.75365 0.0
H445 H 0.18027 0.39116 0.7486 0.0
H446 H 0.39136 0.41334 0.87224 0.0
H447 H 0.26731 0.40605 0.62469 0.0
H448 H 0.25703 0.39391 0.79549 0.0
H449 H 0.40009 0.38913 0.70613 0.0
C450 C 0.4419 0.39386 0.7696 0.0
C451 C 0.44048 0.40061 0.81696 0.0
C452 C 0.25915 0.39674 0.75806 0.0
C453 C 0.35274 0.40158 0.76308 0.0
C454 C 0.21543 0.39512 0.73129 0.0
C455 C 0.21727 0.39851 0.68265 0.0
C456 C 0.30527 0.40112 0.73596 0.0
C457 C 0.264 0.40351 0.6621 0.0
C458 C 0.39834 0.39464 0.74246 0.0
C459 C 0.39437 0.40819 0.83581 0.0
N460 N 0.30617 0.40437 0.68874 0.0
N461 N 0.35227 0.40818 0.80901 0.0
H462 H 0.1696 0.63128 0.25493 0.0
H463 H 0.46672 0.63434 0.23975 0.0
H464 H 0.26706 0.6329 0.37488 0.0
H465 H 0.37678 0.61085 0.12275 0.0
H466 H 0.39254 0.63304 0.2893 0.0
H467 H 0.24259 0.6218 0.20532 0.0
C468 C 0.20596 0.62888 0.27101 0.0
C469 C 0.2123 0.63302 0.31909 0.0
C470 C 0.38892 0.6279 0.2529 0.0
C471 C 0.29587 0.62291 0.26265 0.0
C472 C 0.43141 0.6287 0.22451 0.0
C473 C 0.42813 0.62272 0.17694 0.0
C474 C 0.34225 0.6215 0.23364 0.0
C475 C 0.38115 0.61553 0.15928 0.0
C476 C 0.2477 0.62372 0.24266 0.0
C477 C 0.26047 0.63009 0.33794 0.0
N478 N 0.33994 0.61542 0.18746 0.0
N479 N 0.30026 0.62559 0.30973 0.0
H480 H 0.06083 0.26905 0.75988 0.0
H481 H 0.9951 0.26611 0.02633 0.0
H482 H 1.00806 0.33451 0.83047 0.0
H483 H 0.99216 0.20031 0.94056 0.0
H484 H 0.99393 0.29177 0.95545 0.0
H485 H 1.03062 0.24342 0.82479 0.0
C486 C 0.04188 0.27786 0.7889 0.0
C487 C 0.03677 0.30374 0.79024 0.0
C488 C 0.99237 0.27173 0.95217 0.0
C489 C 1.00339 0.27486 0.86514 0.0
C490 C 0.99315 0.25709 0.99258 0.0
C491 C 0.99415 0.23105 0.98927 0.0
C492 C 0.99363 0.26021 0.90821 0.0
C493 C 0.99128 0.2203 0.94474 0.0
C494 C 1.02462 0.26333 0.82587 0.0
C495 C 1.01228 0.31453 0.82841 0.0
N496 N 0.99213 0.23492 0.90595 0.0
N497 N 0.99731 0.30006 0.86497 0.0
H498 H 0.65673 0.76977 0.5026 0.0
H499 H 0.55476 0.75646 0.2455 0.0
H500 H 0.61184 0.83235 0.41781 0.0
H501 H 0.63692 0.69766 0.31292 0.0
H502 H 0.5818 0.78525 0.30632 0.0
H503 H 0.65659 0.74358 0.4327 0.0
C504 C 0.64762 0.77808 0.46915 0.0
C505 C 0.63376 0.80322 0.4661 0.0
C506 C 0.59475 0.76618 0.30763 0.0
C507 C 0.63318 0.77337 0.38618 0.0
C508 C 0.57921 0.74981 0.27299 0.0
C509 C 0.59347 0.72478 0.2747 0.0
C510 C 0.62383 0.75732 0.34499 0.0
C511 C 0.62534 0.71691 0.31065 0.0
C512 C 0.64774 0.76315 0.42927 0.0
C513 C 0.6229 0.8131 0.42184 0.0
N514 N 0.63877 0.73305 0.34504 0.0
N515 N 0.62206 0.79807 0.38379 0.0
H516 H 0.94348 0.79305 0.02128 0.0
H517 H 0.13834 0.71839 0.17988 0.0
H518 H 0.10397 0.8016 0.01887 0.0
H519 H 0.98667 0.72827 0.22731 0.0
H520 H 0.11965 0.74291 0.11077 0.0
H521 H 0.95225 0.76536 0.09014 0.0
C522 C 0.98032 0.7892 0.03528 0.0
C523 C 1.02316 0.79912 0.01367 0.0
C524 C 0.0902 0.7398 0.13612 0.0
C525 C 1.03335 0.76761 0.09113 0.0
C526 C 0.10092 0.72575 0.17554 0.0
C527 C 0.0643 0.72177 0.20968 0.0
C528 C 0.0424 0.7502 0.1305 0.0
C529 C 1.01592 0.73113 0.20173 0.0
C530 C 0.98529 0.7734 0.07427 0.0
C531 C 0.07 0.79378 0.03337 0.0
N532 N 1.00635 0.74524 0.16299 0.0
N533 N 0.07376 0.77832 0.07047 0.0
H534 H 0.65977 0.29549 0.72532 0.0
H535 H 0.53741 0.23405 0.50433 0.0
H536 H 0.52283 0.3206 0.6614 0.0
H537 H 0.69875 0.23613 0.51166 0.0
H538 H 0.53292 0.26156 0.57064 0.0
H539 H 0.67829 0.27114 0.654 0.0
C540 C 0.63428 0.29626 0.69596 0.0
C541 C 0.58922 0.30957 0.69936 0.0
C542 C 0.56946 0.25628 0.55762 0.0
C543 C 0.60951 0.28188 0.61908 0.0
C544 C 0.57214 0.2406 0.51941 0.0
C545 C 0.61862 0.23338 0.5011 0.0
C546 C 0.61348 0.26467 0.57892 0.0
C547 C 0.66214 0.2415 0.52423 0.0
C548 C 0.64471 0.28237 0.65556 0.0
C549 C 0.5573 0.31006 0.66059 0.0
N550 N 0.65858 0.25683 0.56213 0.0
N551 N 0.56771 0.29617 0.62248 0.0
H552 H 0.63903 0.80787 0.81619 0.0
H553 H 0.44363 0.73331 0.97418 0.0
H554 H 0.48756 0.79808 0.7681 0.0
H555 H 0.60396 0.72406 0.97601 0.0
H556 H 0.45262 0.76103 0.90538 0.0
H557 H 0.62005 0.78315 0.88498 0.0
C558 C 0.6016 0.80048 0.8203 0.0
C559 C 0.56513 0.80455 0.78605 0.0
C560 C 0.48557 0.75281 0.92109 0.0
C561 C 0.5429 0.77591 0.8649 0.0
C562 C 0.48048 0.737 0.96005 0.0
C563 C 0.52322 0.72689 0.98148 0.0
C564 C 0.53368 0.75843 0.90411 0.0
C565 C 0.57007 0.73203 0.96163 0.0
C566 C 0.59071 0.78632 0.85954 0.0
C567 C 0.51672 0.79516 0.79375 0.0
N568 N 0.57397 0.74752 0.92457 0.0
N569 N 0.50698 0.78096 0.83234 0.0
H570 H 0.0367 0.29367 0.49039 0.0
H571 H 0.15929 0.23001 0.27179 0.0
H572 H 0.19797 0.28936 0.48598 0.0
H573 H 1.02113 0.20618 0.33522 0.0
H574 H 0.17784 0.25465 0.34274 0.0
H575 H 1.03208 0.2662 0.42396 0.0
C576 C 0.07135 0.28666 0.47586 0.0
C577 C 0.11782 0.2932 0.49505 0.0
C578 C 0.14397 0.24364 0.34114 0.0
C579 C 0.11257 0.26195 0.41722 0.0
C580 C 0.1335 0.22959 0.30094 0.0
C581 C 0.0881 0.21655 0.29748 0.0
C582 C 0.10847 0.24458 0.37734 0.0
C583 C 0.05585 0.21652 0.33602 0.0
C584 C 0.0686 0.271 0.43763 0.0
C585 C 0.16135 0.2845 0.47271 0.0
N586 N 0.06631 0.23055 0.37392 0.0
N587 N 0.15775 0.26918 0.43479 0.0
H588 H 0.49528 0.25951 0.97046 0.0
H589 H 0.56197 0.25647 0.2366 0.0
H590 H 0.49223 0.32527 0.05632 0.0
H591 H 0.50854 0.19106 0.1663 0.0
H592 H 0.53156 0.28211 0.1718 0.0
H593 H 0.49435 0.23382 0.04131 0.0
C594 C 0.49334 0.26851 0.00423 0.0
C595 C 0.49425 0.29455 0.00757 0.0
C596 C 0.52546 0.26222 0.17076 0.0
C597 C 0.49402 0.26535 0.08859 0.0
C598 C 0.54284 0.24767 0.20767 0.0
C599 C 0.53759 0.2218 0.20637 0.0
C600 C 0.50396 0.2507 0.13161 0.0
C601 C 0.51287 0.21103 0.16832 0.0
C602 C 0.4927 0.25385 0.04462 0.0
C603 C 0.49141 0.30527 0.05212 0.0
N604 N 0.49778 0.22551 0.13182 0.0
N605 N 0.49241 0.29065 0.09089 0.0
H606 H 0.15642 0.75629 0.49306 0.0
H607 H 0.05519 0.7698 0.75024 0.0
H608 H 0.1121 0.69372 0.57812 0.0
H609 H 0.13746 0.82849 0.68257 0.0
H610 H 0.08224 0.74092 0.68955 0.0
H611 H 0.15671 0.78249 0.56293 0.0
C612 C 0.14754 0.74799 0.52658 0.0
C613 C 0.13369 0.72285 0.52972 0.0
C614 C 0.09522 0.75998 0.68816 0.0
C615 C 0.13356 0.75271 0.6096 0.0
C616 C 0.07968 0.77641 0.72273 0.0
C617 C 0.09396 0.80143 0.7209 0.0
C618 C 0.12432 0.76879 0.65077 0.0
C619 C 0.12587 0.80925 0.68493 0.0
C620 C 0.1479 0.76292 0.56644 0.0
C621 C 0.12312 0.71297 0.57404 0.0
N622 N 0.13929 0.79306 0.65061 0.0
N623 N 0.12247 0.72801 0.61207 0.0
loop_
_geom_bond_atom_site_label_1
_geom_bond_atom_site_label_2
_geom_bond_distance
_geom_bond_site_symmetry_2
_ccdc_geom_bond_type
C0 C1 1.351 . S
C0 N3 1.368 . S
C0 H5 0.931 . S
C1 C0 1.351 . S
C1 N2 1.373 . S
C1 H29 0.930 . S
N2 C1 1.373 . S
N2 C4 1.340 . S
N3 C0 1.368 . S
N3 C4 1.321 . S
N3 Co6 2.135 . S
C4 N2 1.340 . S
C4 N3 1.321 . S
C4 H28 0.930 1_455 S
H5 C0 0.931 . S
Co6 N3 2.135 . S
Co6 N9 2.121 . S
Co6 O14 2.055 . S
Co6 O17 2.039 1_455 S
Co6 N20 2.140 . S
C7 O8 1.227 . S
C7 O17 1.265 . S
O8 C7 1.227 . S
N9 Co6 2.121 . S
N9 C11 1.375 1_455 S
N9 C12 1.313 . S
C10 C11 1.338 . S
C10 N13 1.377 1_655 S
C10 H30 0.930 . S
C11 N9 1.375 1_655 S
C11 C10 1.338 . S
C11 H15 0.931 . S
C12 N9 1.313 . S
C12 N13 1.344 . S
C12 H16 0.930 . S
N13 C10 1.377 1_455 S
N13 C12 1.344 . S
O14 Co6 2.055 . S
O14 C18 1.253 . S
H15 C11 0.931 . S
H16 C12 0.930 . S
O17 Co6 2.039 1_655 S
O17 C7 1.265 . S
C18 O14 1.253 . S
C18 O19 1.227 . S
O19 C18 1.227 . S
N20 Co6 2.140 . S
N20 C23 1.346 . S
N20 C24 1.345 . S
C21 C22 1.387 . S
C21 C25 1.391 . S
C22 C21 1.387 . S
C22 C23 1.369 . S
C22 H31 0.929 1_455 S
C23 N20 1.346 . S
C23 C22 1.369 . S
C23 H26 0.928 1_455 S
C24 N20 1.345 . S
C24 C25 1.371 . S
C24 H27 0.931 . S
C25 C21 1.391 . S
C25 C24 1.371 . S
C25 H32 0.930 . S
H26 C23 0.928 1_655 S
H27 C24 0.931 . S
H28 C4 0.930 1_655 S
H29 C1 0.930 . S
H30 C10 0.930 . S
H31 C22 0.929 1_655 S
H32 C25 0.930 . S
C33 C34 1.351 . S
C33 N36 1.368 . S
C33 H38 0.931 . S
C34 C33 1.351 . S
C34 N35 1.373 . S
C34 H62 0.930 . S
N35 C34 1.373 . S
N35 C37 1.340 . S
N36 C33 1.368 . S
N36 C37 1.321 . S
N36 Co39 2.135 . S
C37 N35 1.340 . S
C37 N36 1.321 . S
C37 H61 0.930 . S
H38 C33 0.931 . S
Co39 N36 2.135 . S
Co39 N42 2.121 . S
Co39 O47 2.055 . S
Co39 O50 2.039 . S
Co39 N53 2.140 . S
C40 O41 1.227 . S
C40 O50 1.265 . S
O41 C40 1.227 . S
N42 Co39 2.121 . S
N42 C44 1.375 . S
N42 C45 1.313 . S
C43 C44 1.338 . S
C43 N46 1.377 . S
C43 H63 0.930 . S
C44 N42 1.375 . S
C44 C43 1.338 . S
C44 H48 0.931 . S
C45 N42 1.313 . S
C45 N46 1.344 . S
C45 H49 0.930 . S
N46 C43 1.377 . S
N46 C45 1.344 . S
O47 Co39 2.055 . S
O47 C51 1.253 . S
H48 C44 0.931 . S
H49 C45 0.930 . S
O50 Co39 2.039 . S
O50 C40 1.265 . S
C51 O47 1.253 . S
C51 O52 1.227 . S
O52 C51 1.227 . S
N53 Co39 2.140 . S
N53 C56 1.346 . S
N53 C57 1.345 . S
C54 C55 1.387 . S
C54 C58 1.391 . S
C55 C54 1.387 . S
C55 C56 1.369 . S
C55 H64 0.929 . S
C56 N53 1.346 . S
C56 C55 1.369 . S
C56 H59 0.928 . S
C57 N53 1.345 . S
C57 C58 1.371 . S
C57 H60 0.931 . S
C58 C54 1.391 . S
C58 C57 1.371 . S
C58 H65 0.930 . S
H59 C56 0.928 . S
H60 C57 0.931 . S
H61 C37 0.930 . S
H62 C34 0.930 . S
H63 C43 0.930 . S
H64 C55 0.929 . S
H65 C58 0.930 . S
C66 C67 1.351 . S
C66 N69 1.368 . S
C66 H71 0.931 . S
C67 C66 1.351 . S
C67 N68 1.373 . S
C67 H95 0.930 . S
N68 C67 1.373 . S
N68 C70 1.340 . S
N69 C66 1.368 . S
N69 C70 1.321 . S
N69 Co72 2.135 . S
C70 N68 1.340 . S
C70 N69 1.321 . S
C70 H94 0.930 1_455 S
H71 C66 0.931 . S
Co72 N69 2.135 . S
Co72 N75 2.121 . S
Co72 O80 2.055 . S
Co72 O83 2.039 1_455 S
Co72 N86 2.140 . S
C73 O74 1.227 . S
C73 O83 1.265 . S
O74 C73 1.227 . S
N75 Co72 2.121 . S
N75 C77 1.375 1_455 S
N75 C78 1.313 . S
C76 C77 1.338 . S
C76 N79 1.377 1_655 S
C76 H96 0.930 . S
C77 N75 1.375 1_655 S
C77 C76 1.338 . S
C77 H81 0.931 . S
C78 N75 1.313 . S
C78 N79 1.344 . S
C78 H82 0.930 . S
N79 C76 1.377 1_455 S
N79 C78 1.344 . S
O80 Co72 2.055 . S
O80 C84 1.253 . S
H81 C77 0.931 . S
H82 C78 0.930 . S
O83 Co72 2.039 1_655 S
O83 C73 1.265 . S
C84 O80 1.253 . S
C84 O85 1.227 . S
O85 C84 1.227 . S
N86 Co72 2.140 . S
N86 C89 1.346 . S
N86 C90 1.345 . S
C87 C88 1.387 . S
C87 C91 1.391 . S
C88 C87 1.387 . S
C88 C89 1.369 . S
C88 H97 0.929 1_455 S
C89 N86 1.346 . S
C89 C88 1.369 . S
C89 H92 0.928 1_455 S
C90 N86 1.345 . S
C90 C91 1.371 . S
C90 H93 0.931 . S
C91 C87 1.391 . S
C91 C90 1.371 . S
C91 H98 0.930 . S
H92 C89 0.928 1_655 S
H93 C90 0.931 . S
H94 C70 0.930 1_655 S
H95 C67 0.930 . S
H96 C76 0.930 . S
H97 C88 0.929 1_655 S
H98 C91 0.930 . S
C99 C100 1.351 . S
C99 N102 1.368 . S
C99 H104 0.931 . S
C100 C99 1.351 . S
C100 N101 1.373 . S
C100 H128 0.930 . S
N101 C100 1.373 . S
N101 C103 1.340 . S
N102 C99 1.368 . S
N102 C103 1.321 . S
N102 Co105 2.135 . S
C103 N101 1.340 . S
C103 N102 1.321 . S
C103 H127 0.930 . S
H104 C99 0.931 . S
Co105 N102 2.135 . S
Co105 N108 2.121 . S
Co105 O113 2.055 . S
Co105 O116 2.039 . S
Co105 N119 2.140 . S
C106 O107 1.227 . S
C106 O116 1.265 . S
O107 C106 1.227 . S
N108 Co105 2.121 . S
N108 C110 1.375 . S
N108 C111 1.313 . S
C109 C110 1.338 . S
C109 N112 1.377 . S
C109 H129 0.930 . S
C110 N108 1.375 . S
C110 C109 1.338 . S
C110 H114 0.931 . S
C111 N108 1.313 . S
C111 N112 1.344 . S
C111 H115 0.930 . S
N112 C109 1.377 . S
N112 C111 1.344 . S
O113 Co105 2.055 . S
O113 C117 1.253 . S
H114 C110 0.931 . S
H115 C111 0.930 . S
O116 Co105 2.039 . S
O116 C106 1.265 . S
C117 O113 1.253 . S
C117 O118 1.227 . S
O118 C117 1.227 . S
N119 Co105 2.140 . S
N119 C122 1.346 . S
N119 C123 1.345 . S
C120 C121 1.387 . S
C120 C124 1.391 . S
C121 C120 1.387 . S
C121 C122 1.369 . S
C121 H130 0.929 . S
C122 N119 1.346 . S
C122 C121 1.369 . S
C122 H125 0.928 . S
C123 N119 1.345 . S
C123 C124 1.371 . S
C123 H126 0.931 . S
C124 C120 1.391 . S
C124 C123 1.371 . S
C124 H131 0.930 . S
H125 C122 0.928 . S
H126 C123 0.931 . S
H127 C103 0.930 . S
H128 C100 0.930 . S
H129 C109 0.930 . S
H130 C121 0.929 . S
H131 C124 0.930 . S
C132 C133 1.351 . S
C132 N135 1.368 . S
C132 H137 0.931 . S
C133 C132 1.351 . S
C133 N134 1.373 . S
C133 H161 0.930 . S
N134 C133 1.373 . S
N134 C136 1.340 . S
N135 C132 1.368 . S
N135 C136 1.321 . S
N135 Co138 2.135 . S
C136 N134 1.340 . S
C136 N135 1.321 . S
C136 H160 0.930 . S
H137 C132 0.931 . S
Co138 N135 2.135 . S
Co138 N141 2.121 . S
Co138 O146 2.055 . S
Co138 O149 2.039 . S
Co138 N152 2.140 . S
C139 O140 1.227 . S
C139 O149 1.265 . S
O140 C139 1.227 . S
N141 Co138 2.121 . S
N141 C143 1.375 . S
N141 C144 1.313 . S
C142 C143 1.338 . S
C142 N145 1.377 . S
C142 H162 0.930 . S
C143 N141 1.375 . S
C143 C142 1.338 . S
C143 H147 0.931 . S
C144 N141 1.313 . S
C144 N145 1.344 . S
C144 H148 0.930 . S
N145 C142 1.377 . S
N145 C144 1.344 . S
O146 Co138 2.055 . S
O146 C150 1.253 . S
H147 C143 0.931 . S
H148 C144 0.930 . S
O149 Co138 2.039 . S
O149 C139 1.265 . S
C150 O146 1.253 . S
C150 O151 1.227 . S
O151 C150 1.227 . S
N152 Co138 2.140 . S
N152 C155 1.346 . S
N152 C156 1.345 . S
C153 C154 1.387 . S
C153 C157 1.391 . S
C154 C153 1.387 . S
C154 C155 1.369 . S
C154 H163 0.929 . S
C155 N152 1.346 . S
C155 C154 1.369 . S
C155 H158 0.928 . S
C156 N152 1.345 . S
C156 C157 1.371 . S
C156 H159 0.931 . S
C157 C153 1.391 . S
C157 C156 1.371 . S
C157 H164 0.930 . S
H158 C155 0.928 . S
H159 C156 0.931 . S
H160 C136 0.930 . S
H161 C133 0.930 . S
H162 C142 0.930 . S
H163 C154 0.929 . S
H164 C157 0.930 . S
C165 C166 1.351 . S
C165 N168 1.368 1_655 S
C165 H170 0.931 . S
C166 C165 1.351 . S
C166 N167 1.373 1_655 S
C166 H194 0.930 . S
N167 C166 1.373 1_455 S
N167 C169 1.340 . S
N168 C165 1.368 1_455 S
N168 C169 1.321 . S
N168 Co171 2.135 . S
C169 N167 1.340 . S
C169 N168 1.321 . S
C169 H193 0.930 . S
H170 C165 0.931 . S
Co171 N168 2.135 . S
Co171 N174 2.121 . S
Co171 O179 2.055 1_455 S
Co171 O182 2.039 . S
Co171 N185 2.140 . S
C172 O173 1.227 . S
C172 O182 1.265 . S
O173 C172 1.227 . S
N174 Co171 2.121 . S
N174 C176 1.375 . S
N174 C177 1.313 . S
C175 C176 1.338 . S
C175 N178 1.377 . S
C175 H195 0.930 . S
C176 N174 1.375 . S
C176 C175 1.338 . S
C176 H180 0.931 . S
C177 N174 1.313 . S
C177 N178 1.344 . S
C177 H181 0.930 1_455 S
N178 C175 1.377 . S
N178 C177 1.344 . S
O179 Co171 2.055 1_655 S
O179 C183 1.253 . S
H180 C176 0.931 . S
H181 C177 0.930 1_655 S
O182 Co171 2.039 . S
O182 C172 1.265 . S
C183 O179 1.253 . S
C183 O184 1.227 . S
O184 C183 1.227 . S
N185 Co171 2.140 . S
N185 C188 1.346 . S
N185 C189 1.345 . S
C186 C187 1.387 . S
C186 C190 1.391 . S
C187 C186 1.387 . S
C187 C188 1.369 . S
C187 H196 0.929 . S
C188 N185 1.346 . S
C188 C187 1.369 . S
C188 H191 0.928 . S
C189 N185 1.345 . S
C189 C190 1.371 . S
C189 H192 0.931 . S
C190 C186 1.391 . S
C190 C189 1.371 . S
C190 H197 0.930 . S
H191 C188 0.928 . S
H192 C189 0.931 . S
H193 C169 0.930 . S
H194 C166 0.930 . S
H195 C175 0.930 . S
H196 C187 0.929 . S
H197 C190 0.930 . S
C198 C199 1.351 . S
C198 N201 1.368 . S
C198 H203 0.931 . S
C199 C198 1.351 . S
C199 N200 1.373 . S
C199 H227 0.930 . S
N200 C199 1.373 . S
N200 C202 1.340 . S
N201 C198 1.368 . S
N201 C202 1.321 . S
N201 Co204 2.135 . S
C202 N200 1.340 . S
C202 N201 1.321 . S
C202 H226 0.930 . S
H203 C198 0.931 . S
Co204 N201 2.135 . S
Co204 N207 2.121 . S
Co204 O212 2.055 . S
Co204 O215 2.039 . S
Co204 N218 2.140 . S
C205 O206 1.227 . S
C205 O215 1.265 . S
O206 C205 1.227 . S
N207 Co204 2.121 . S
N207 C209 1.375 . S
N207 C210 1.313 . S
C208 C209 1.338 . S
C208 N211 1.377 . S
C208 H228 0.930 . S
C209 N207 1.375 . S
C209 C208 1.338 . S
C209 H213 0.931 . S
C210 N207 1.313 . S
C210 N211 1.344 . S
C210 H214 0.930 . S
N211 C208 1.377 . S
N211 C210 1.344 . S
O212 Co204 2.055 . S
O212 C216 1.253 . S
H213 C209 0.931 . S
H214 C210 0.930 . S
O215 Co204 2.039 . S
O215 C205 1.265 . S
C216 O212 1.253 . S
C216 O217 1.227 . S
O217 C216 1.227 . S
N218 Co204 2.140 . S
N218 C221 1.346 . S
N218 C222 1.345 . S
C219 C220 1.387 . S
C219 C223 1.391 . S
C220 C219 1.387 . S
C220 C221 1.369 . S
C220 H229 0.929 . S
C221 N218 1.346 . S
C221 C220 1.369 . S
C221 H224 0.928 . S
C222 N218 1.345 . S
C222 C223 1.371 . S
C222 H225 0.931 . S
C223 C219 1.391 . S
C223 C222 1.371 . S
C223 H230 0.930 . S
H224 C221 0.928 . S
H225 C222 0.931 . S
H226 C202 0.930 . S
H227 C199 0.930 . S
H228 C208 0.930 . S
H229 C220 0.929 . S
H230 C223 0.930 . S
C231 C232 1.351 . S
C231 N234 1.368 1_655 S
C231 H236 0.931 . S
C232 C231 1.351 . S
C232 N233 1.373 1_655 S
C232 H260 0.930 . S
N233 C232 1.373 1_455 S
N233 C235 1.340 . S
N234 C231 1.368 1_455 S
N234 C235 1.321 . S
N234 Co237 2.135 . S
C235 N233 1.340 . S
C235 N234 1.321 . S
C235 H259 0.930 . S
H236 C231 0.931 . S
Co237 N234 2.135 . S
Co237 N240 2.121 . S
Co237 O245 2.055 1_455 S
Co237 O248 2.039 . S
Co237 N251 2.140 . S
C238 O239 1.227 . S
C238 O248 1.265 . S
O239 C238 1.227 . S
N240 Co237 2.121 . S
N240 C242 1.375 . S
N240 C243 1.313 . S
C241 C242 1.338 . S
C241 N244 1.377 . S
C241 H261 0.930 . S
C242 N240 1.375 . S
C242 C241 1.338 . S
C242 H246 0.931 . S
C243 N240 1.313 . S
C243 N244 1.344 . S
C243 H247 0.930 1_455 S
N244 C241 1.377 . S
N244 C243 1.344 . S
O245 Co237 2.055 1_655 S
O245 C249 1.253 . S
H246 C242 0.931 . S
H247 C243 0.930 1_655 S
O248 Co237 2.039 . S
O248 C238 1.265 . S
C249 O245 1.253 . S
C249 O250 1.227 . S
O250 C249 1.227 . S
N251 Co237 2.140 . S
N251 C254 1.346 . S
N251 C255 1.345 . S
C252 C253 1.387 . S
C252 C256 1.391 . S
C253 C252 1.387 . S
C253 C254 1.369 . S
C253 H262 0.929 . S
C254 N251 1.346 . S
C254 C253 1.369 . S
C254 H257 0.928 . S
C255 N251 1.345 . S
C255 C256 1.371 . S
C255 H258 0.931 . S
C256 C252 1.391 . S
C256 C255 1.371 . S
C256 H263 0.930 . S
H257 C254 0.928 . S
H258 C255 0.931 . S
H259 C235 0.930 . S
H260 C232 0.930 . S
H261 C241 0.930 . S
H262 C253 0.929 . S
H263 C256 0.930 . S
H264 C270 0.930 . S
H265 C274 0.930 . S
H266 C279 0.929 . S
H267 C277 0.929 . S
H268 C272 0.929 . S
H269 C278 0.929 . S
C270 H264 0.930 . S
C270 C271 1.367 1_655 S
C270 C278 1.378 . S
C271 C270 1.367 1_455 S
C271 C279 1.433 . S
C272 H268 0.929 . S
C272 C274 1.378 . S
C272 C276 1.350 . S
C273 C276 1.463 1_566 S
C273 C278 1.350 1_455 S
C273 N281 1.427 1_556 S
C274 H265 0.930 . S
C274 C272 1.378 . S
C274 C275 1.367 . S
C275 C274 1.367 . S
C275 C277 1.433 1_455 S
C276 C272 1.350 . S
C276 C273 1.463 1_544 S
C276 N280 1.427 1_454 S
C277 H267 0.929 . S
C277 C275 1.433 1_655 S
C277 N280 1.384 1_554 S
C278 H269 0.929 . S
C278 C270 1.378 . S
C278 C273 1.350 1_655 S
C279 H266 0.929 . S
C279 C271 1.433 . S
C279 N281 1.384 1_556 S
N280 C276 1.427 1_656 S
N280 C277 1.384 1_556 S
N281 C273 1.427 1_554 S
N281 C279 1.384 1_554 S
H282 C288 0.930 . S
H283 C292 0.930 . S
H284 C297 0.929 . S
H285 C295 0.929 . S
H286 C290 0.929 . S
H287 C296 0.929 . S
C288 H282 0.930 . S
C288 C289 1.367 . S
C288 C296 1.378 . S
C289 C288 1.367 . S
C289 C297 1.433 . S
C290 H286 0.929 . S
C290 C292 1.378 . S
C290 C294 1.350 . S
C291 C294 1.463 1_545 S
C291 C296 1.350 . S
C291 N299 1.427 . S
C292 H283 0.930 . S
C292 C290 1.378 . S
C292 C293 1.367 . S
C293 C292 1.367 . S
C293 C295 1.433 . S
C294 C290 1.350 . S
C294 C291 1.463 1_565 S
C294 N298 1.427 . S
C295 H285 0.929 . S
C295 C293 1.433 . S
C295 N298 1.384 . S
C296 H287 0.929 . S
C296 C288 1.378 . S
C296 C291 1.350 . S
C297 H284 0.929 . S
C297 C289 1.433 . S
C297 N299 1.384 . S
N298 C294 1.427 . S
N298 C295 1.384 . S
N299 C291 1.427 . S
N299 C297 1.384 . S
H300 C306 0.930 . S
H301 C310 0.930 . S
H302 C315 0.929 1_556 S
H303 C313 0.929 1_554 S
H304 C308 0.929 . S
H305 C314 0.929 . S
C306 H300 0.930 . S
C306 C307 1.367 . S
C306 C314 1.378 . S
C307 C306 1.367 . S
C307 C315 1.433 . S
C308 H304 0.929 . S
C308 C310 1.378 . S
C308 C312 1.350 . S
C309 C312 1.463 1_554 S
C309 C314 1.350 . S
C309 N317 1.427 1_554 S
C310 H301 0.930 . S
C310 C308 1.378 . S
C310 C311 1.367 . S
C311 C310 1.367 . S
C311 C313 1.433 . S
C312 C308 1.350 . S
C312 C309 1.463 1_556 S
C312 N316 1.427 1_556 S
C313 H303 0.929 1_556 S
C313 C311 1.433 . S
C313 N316 1.384 1_556 S
C314 H305 0.929 . S
C314 C306 1.378 . S
C314 C309 1.350 . S
C315 H302 0.929 1_554 S
C315 C307 1.433 . S
C315 N317 1.384 1_554 S
N316 C312 1.427 1_554 S
N316 C313 1.384 1_554 S
N317 C309 1.427 1_556 S
N317 C315 1.384 1_556 S
H318 C324 0.930 . S
H319 C328 0.930 . S
H320 C333 0.929 . S
H321 C331 0.929 . S
H322 C326 0.929 . S
H323 C332 0.929 . S
C324 H318 0.930 . S
C324 C325 1.367 . S
C324 C332 1.378 . S
C325 C324 1.367 . S
C325 C333 1.433 . S
C326 H322 0.929 . S
C326 C328 1.378 . S
C326 C330 1.350 . S
C327 C330 1.463 . S
C327 C332 1.350 . S
C327 N335 1.427 . S
C328 H319 0.930 . S
C328 C326 1.378 . S
C328 C329 1.367 . S
C329 C328 1.367 . S
C329 C331 1.433 . S
C330 C326 1.350 . S
C330 C327 1.463 . S
C330 N334 1.427 . S
C331 H321 0.929 . S
C331 C329 1.433 . S
C331 N334 1.384 . S
C332 H323 0.929 . S
C332 C324 1.378 . S
C332 C327 1.350 . S
C333 H320 0.929 . S
C333 C325 1.433 . S
C333 N335 1.384 . S
N334 C330 1.427 . S
N334 C331 1.384 . S
N335 C327 1.427 . S
N335 C333 1.384 . S
H336 C342 0.930 . S
H337 C346 0.930 . S
H338 C351 0.929 . S
H339 C349 0.929 . S
H340 C344 0.929 . S
H341 C350 0.929 . S
C342 H336 0.930 . S
C342 C343 1.367 . S
C342 C350 1.378 . S
C343 C342 1.367 . S
C343 C351 1.433 . S
C344 H340 0.929 . S
C344 C346 1.378 . S
C344 C348 1.350 . S
C345 C348 1.463 . S
C345 C350 1.350 . S
C345 N353 1.427 . S
C346 H337 0.930 . S
C346 C344 1.378 . S
C346 C347 1.367 . S
C347 C346 1.367 . S
C347 C349 1.433 . S
C348 C344 1.350 . S
C348 C345 1.463 . S
C348 N352 1.427 . S
C349 H339 0.929 . S
C349 C347 1.433 . S
C349 N352 1.384 . S
C350 H341 0.929 . S
C350 C342 1.378 . S
C350 C345 1.350 . S
C351 H338 0.929 . S
C351 C343 1.433 . S
C351 N353 1.384 . S
N352 C348 1.427 . S
N352 C349 1.384 . S
N353 C345 1.427 . S
N353 C351 1.384 . S
H354 C360 0.930 . S
H355 C364 0.930 . S
H356 C369 0.929 . S
H357 C367 0.929 . S
H358 C362 0.929 . S
H359 C368 0.929 . S
C360 H354 0.930 . S
C360 C361 1.367 . S
C360 C368 1.378 . S
C361 C360 1.367 . S
C361 C369 1.433 . S
C362 H358 0.929 . S
C362 C364 1.378 . S
C362 C366 1.350 . S
C363 C366 1.463 . S
C363 C368 1.350 . S
C363 N371 1.427 . S
C364 H355 0.930 . S
C364 C362 1.378 . S
C364 C365 1.367 . S
C365 C364 1.367 . S
C365 C367 1.433 . S
C366 C362 1.350 . S
C366 C363 1.463 . S
C366 N370 1.427 . S
C367 H357 0.929 . S
C367 C365 1.433 . S
C367 N370 1.384 . S
C368 H359 0.929 . S
C368 C360 1.378 . S
C368 C363 1.350 . S
C369 H356 0.929 . S
C369 C361 1.433 . S
C369 N371 1.384 . S
N370 C366 1.427 . S
N370 C367 1.384 . S
N371 C363 1.427 . S
N371 C369 1.384 . S
H372 C378 0.930 . S
H373 C382 0.930 . S
H374 C387 0.929 . S
H375 C385 0.929 . S
H376 C380 0.929 . S
H377 C386 0.929 . S
C378 H372 0.930 . S
C378 C379 1.367 . S
C378 C386 1.378 . S
C379 C378 1.367 . S
C379 C387 1.433 . S
C380 H376 0.929 . S
C380 C382 1.378 . S
C380 C384 1.350 . S
C381 C384 1.463 . S
C381 C386 1.350 . S
C381 N389 1.427 . S
C382 H373 0.930 . S
C382 C380 1.378 . S
C382 C383 1.367 . S
C383 C382 1.367 . S
C383 C385 1.433 . S
C384 C380 1.350 . S
C384 C381 1.463 . S
C384 N388 1.427 . S
C385 H375 0.929 . S
C385 C383 1.433 . S
C385 N388 1.384 . S
C386 H377 0.929 . S
C386 C378 1.378 . S
C386 C381 1.350 . S
C387 H374 0.929 . S
C387 C379 1.433 . S
C387 N389 1.384 . S
N388 C384 1.427 . S
N388 C385 1.384 . S
N389 C381 1.427 . S
N389 C387 1.384 . S
H390 C396 0.930 . S
H391 C400 0.930 . S
H392 C405 0.929 . S
H393 C403 0.929 . S
H394 C398 0.929 . S
H395 C404 0.929 . S
C396 H390 0.930 . S
C396 C397 1.367 . S
C396 C404 1.378 . S
C397 C396 1.367 . S
C397 C405 1.433 . S
C398 H394 0.929 . S
C398 C400 1.378 . S
C398 C402 1.350 . S
C399 C402 1.463 . S
C399 C404 1.350 . S
C399 N407 1.427 . S
C400 H391 0.930 . S
C400 C398 1.378 . S
C400 C401 1.367 . S
C401 C400 1.367 . S
C401 C403 1.433 . S
C402 C398 1.350 . S
C402 C399 1.463 . S
C402 N406 1.427 . S
C403 H393 0.929 . S
C403 C401 1.433 . S
C403 N406 1.384 . S
C404 H395 0.929 . S
C404 C396 1.378 . S
C404 C399 1.350 . S
C405 H392 0.929 . S
C405 C397 1.433 . S
C405 N407 1.384 . S
N406 C402 1.427 . S
N406 C403 1.384 . S
N407 C399 1.427 . S
N407 C405 1.384 . S
H408 C414 0.930 . S
H409 C418 0.930 . S
H410 C423 0.929 . S
H411 C421 0.929 . S
H412 C416 0.929 . S
H413 C422 0.929 . S
C414 H408 0.930 . S
C414 C415 1.367 . S
C414 C422 1.378 . S
C415 C414 1.367 . S
C415 C423 1.433 . S
C416 H412 0.929 . S
C416 C418 1.378 . S
C416 C420 1.350 . S
C417 C420 1.463 . S
C417 C422 1.350 . S
C417 N425 1.427 . S
C418 H409 0.930 . S
C418 C416 1.378 . S
C418 C419 1.367 . S
C419 C418 1.367 . S
C419 C421 1.433 . S
C420 C416 1.350 . S
C420 C417 1.463 . S
C420 N424 1.427 . S
C421 H411 0.929 . S
C421 C419 1.433 . S
C421 N424 1.384 . S
C422 H413 0.929 . S
C422 C414 1.378 . S
C422 C417 1.350 . S
C423 H410 0.929 . S
C423 C415 1.433 . S
C423 N425 1.384 . S
N424 C420 1.427 . S
N424 C421 1.384 . S
N425 C417 1.427 . S
N425 C423 1.384 . S
H426 C432 0.930 . S
H427 C436 0.930 . S
H428 C441 0.929 . S
H429 C439 0.929 . S
H430 C434 0.929 . S
H431 C440 0.929 . S
C432 H426 0.930 . S
C432 C433 1.367 . S
C432 C440 1.378 . S
C433 C432 1.367 . S
C433 C441 1.433 . S
C434 H430 0.929 . S
C434 C436 1.378 . S
C434 C438 1.350 . S
C435 C438 1.463 . S
C435 C440 1.350 . S
C435 N443 1.427 . S
C436 H427 0.930 . S
C436 C434 1.378 . S
C436 C437 1.367 . S
C437 C436 1.367 . S
C437 C439 1.433 . S
C438 C434 1.350 . S
C438 C435 1.463 . S
C438 N442 1.427 . S
C439 H429 0.929 . S
C439 C437 1.433 . S
C439 N442 1.384 . S
C440 H431 0.929 . S
C440 C432 1.378 . S
C440 C435 1.350 . S
C441 H428 0.929 . S
C441 C433 1.433 . S
C441 N443 1.384 . S
N442 C438 1.427 . S
N442 C439 1.384 . S
N443 C435 1.427 . S
N443 C441 1.384 . S
H444 C450 0.930 . S
H445 C454 0.930 . S
H446 C459 0.929 . S
H447 C457 0.929 . S
H448 C452 0.929 . S
H449 C458 0.929 . S
C450 H444 0.930 . S
C450 C451 1.367 . S
C450 C458 1.378 . S
C451 C450 1.367 . S
C451 C459 1.433 . S
C452 H448 0.929 . S
C452 C454 1.378 . S
C452 C456 1.350 . S
C453 C456 1.463 . S
C453 C458 1.350 . S
C453 N461 1.427 . S
C454 H445 0.930 . S
C454 C452 1.378 . S
C454 C455 1.367 . S
C455 C454 1.367 . S
C455 C457 1.433 . S
C456 C452 1.350 . S
C456 C453 1.463 . S
C456 N460 1.427 . S
C457 H447 0.929 . S
C457 C455 1.433 . S
C457 N460 1.384 . S
C458 H449 0.929 . S
C458 C450 1.378 . S
C458 C453 1.350 . S
C459 H446 0.929 . S
C459 C451 1.433 . S
C459 N461 1.384 . S
N460 C456 1.427 . S
N460 C457 1.384 . S
N461 C453 1.427 . S
N461 C459 1.384 . S
H462 C468 0.930 . S
H463 C472 0.930 . S
H464 C477 0.929 . S
H465 C475 0.929 . S
H466 C470 0.929 . S
H467 C476 0.929 . S
C468 H462 0.930 . S
C468 C469 1.367 . S
C468 C476 1.378 . S
C469 C468 1.367 . S
C469 C477 1.433 . S
C470 H466 0.929 . S
C470 C472 1.378 . S
C470 C474 1.350 . S
C471 C474 1.463 . S
C471 C476 1.350 . S
C471 N479 1.427 . S
C472 H463 0.930 . S
C472 C470 1.378 . S
C472 C473 1.367 . S
C473 C472 1.367 . S
C473 C475 1.433 . S
C474 C470 1.350 . S
C474 C471 1.463 . S
C474 N478 1.427 . S
C475 H465 0.929 . S
C475 C473 1.433 . S
C475 N478 1.384 . S
C476 H467 0.929 . S
C476 C468 1.378 . S
C476 C471 1.350 . S
C477 H464 0.929 . S
C477 C469 1.433 . S
C477 N479 1.384 . S
N478 C474 1.427 . S
N478 C475 1.384 . S
N479 C471 1.427 . S
N479 C477 1.384 . S
H480 C486 0.930 . S
H481 C490 0.930 1_554 S
H482 C495 0.929 . S
H483 C493 0.929 . S
H484 C488 0.929 . S
H485 C494 0.929 . S
C486 H480 0.930 . S
C486 C487 1.367 . S
C486 C494 1.378 . S
C487 C486 1.367 . S
C487 C495 1.433 . S
C488 H484 0.929 . S
C488 C490 1.378 . S
C488 C492 1.350 . S
C489 C492 1.463 . S
C489 C494 1.350 . S
C489 N497 1.427 . S
C490 H481 0.930 1_556 S
C490 C488 1.378 . S
C490 C491 1.367 . S
C491 C490 1.367 . S
C491 C493 1.433 . S
C492 C488 1.350 . S
C492 C489 1.463 . S
C492 N496 1.427 . S
C493 H483 0.929 . S
C493 C491 1.433 . S
C493 N496 1.384 . S
C494 H485 0.929 . S
C494 C486 1.378 . S
C494 C489 1.350 . S
C495 H482 0.929 . S
C495 C487 1.433 . S
C495 N497 1.384 . S
N496 C492 1.427 . S
N496 C493 1.384 . S
N497 C489 1.427 . S
N497 C495 1.384 . S
H498 C504 0.930 . S
H499 C508 0.930 . S
H500 C513 0.929 . S
H501 C511 0.929 . S
H502 C506 0.929 . S
H503 C512 0.929 . S
C504 H498 0.930 . S
C504 C505 1.367 . S
C504 C512 1.378 . S
C505 C504 1.367 . S
C505 C513 1.433 . S
C506 H502 0.929 . S
C506 C508 1.378 . S
C506 C510 1.350 . S
C507 C510 1.463 . S
C507 C512 1.350 . S
C507 N515 1.427 . S
C508 H499 0.930 . S
C508 C506 1.378 . S
C508 C509 1.367 . S
C509 C508 1.367 . S
C509 C511 1.433 . S
C510 C506 1.350 . S
C510 C507 1.463 . S
C510 N514 1.427 . S
C511 H501 0.929 . S
C511 C509 1.433 . S
C511 N514 1.384 . S
C512 H503 0.929 . S
C512 C504 1.378 . S
C512 C507 1.350 . S
C513 H500 0.929 . S
C513 C505 1.433 . S
C513 N515 1.384 . S
N514 C510 1.427 . S
N514 C511 1.384 . S
N515 C507 1.427 . S
N515 C513 1.384 . S
H516 C522 0.930 . S
H517 C526 0.930 . S
H518 C531 0.929 1_556 S
H519 C529 0.929 . S
H520 C524 0.929 . S
H521 C530 0.929 . S
C522 H516 0.930 . S
C522 C523 1.367 1_655 S
C522 C530 1.378 . S
C523 C522 1.367 1_455 S
C523 C531 1.433 . S
C524 H520 0.929 . S
C524 C526 1.378 . S
C524 C528 1.350 . S
C525 C528 1.463 . S
C525 C530 1.350 1_455 S
C525 N533 1.427 . S
C526 H517 0.930 . S
C526 C524 1.378 . S
C526 C527 1.367 . S
C527 C526 1.367 . S
C527 C529 1.433 1_455 S
C528 C524 1.350 . S
C528 C525 1.463 . S
C528 N532 1.427 1_455 S
C529 H519 0.929 . S
C529 C527 1.433 1_655 S
C529 N532 1.384 . S
C530 H521 0.929 . S
C530 C522 1.378 . S
C530 C525 1.350 1_655 S
C531 H518 0.929 1_554 S
C531 C523 1.433 . S
C531 N533 1.384 . S
N532 C528 1.427 1_655 S
N532 C529 1.384 . S
N533 C525 1.427 . S
N533 C531 1.384 . S
H534 C540 0.930 . S
H535 C544 0.930 . S
H536 C549 0.929 . S
H537 C547 0.929 . S
H538 C542 0.929 . S
H539 C548 0.929 . S
C540 H534 0.930 . S
C540 C541 1.367 . S
C540 C548 1.378 . S
C541 C540 1.367 . S
C541 C549 1.433 . S
C542 H538 0.929 . S
C542 C544 1.378 . S
C542 C546 1.350 . S
C543 C546 1.463 . S
C543 C548 1.350 . S
C543 N551 1.427 . S
C544 H535 0.930 . S
C544 C542 1.378 . S
C544 C545 1.367 . S
C545 C544 1.367 . S
C545 C547 1.433 . S
C546 C542 1.350 . S
C546 C543 1.463 . S
C546 N550 1.427 . S
C547 H537 0.929 . S
C547 C545 1.433 . S
C547 N550 1.384 . S
C548 H539 0.929 . S
C548 C540 1.378 . S
C548 C543 1.350 . S
C549 H536 0.929 . S
C549 C541 1.433 . S
C549 N551 1.384 . S
N550 C546 1.427 . S
N550 C547 1.384 . S
N551 C543 1.427 . S
N551 C549 1.384 . S
H552 C558 0.930 . S
H553 C562 0.930 . S
H554 C567 0.929 . S
H555 C565 0.929 . S
H556 C560 0.929 . S
H557 C566 0.929 . S
C558 H552 0.930 . S
C558 C559 1.367 . S
C558 C566 1.378 . S
C559 C558 1.367 . S
C559 C567 1.433 . S
C560 H556 0.929 . S
C560 C562 1.378 . S
C560 C564 1.350 . S
C561 C564 1.463 . S
C561 C566 1.350 . S
C561 N569 1.427 . S
C562 H553 0.930 . S
C562 C560 1.378 . S
C562 C563 1.367 . S
C563 C562 1.367 . S
C563 C565 1.433 . S
C564 C560 1.350 . S
C564 C561 1.463 . S
C564 N568 1.427 . S
C565 H555 0.929 . S
C565 C563 1.433 . S
C565 N568 1.384 . S
C566 H557 0.929 . S
C566 C558 1.378 . S
C566 C561 1.350 . S
C567 H554 0.929 . S
C567 C559 1.433 . S
C567 N569 1.384 . S
N568 C564 1.427 . S
N568 C565 1.384 . S
N569 C561 1.427 . S
N569 C567 1.384 . S
H570 C576 0.930 . S
H571 C580 0.930 . S
H572 C585 0.929 . S
H573 C583 0.929 . S
H574 C578 0.929 . S
H575 C584 0.929 . S
C576 H570 0.930 . S
C576 C577 1.367 . S
C576 C584 1.378 . S
C577 C576 1.367 . S
C577 C585 1.433 . S
C578 H574 0.929 . S
C578 C580 1.378 . S
C578 C582 1.350 . S
C579 C582 1.463 . S
C579 C584 1.350 . S
C579 N587 1.427 . S
C580 H571 0.930 . S
C580 C578 1.378 . S
C580 C581 1.367 . S
C581 C580 1.367 . S
C581 C583 1.433 . S
C582 C578 1.350 . S
C582 C579 1.463 . S
C582 N586 1.427 . S
C583 H573 0.929 . S
C583 C581 1.433 . S
C583 N586 1.384 . S
C584 H575 0.929 . S
C584 C576 1.378 . S
C584 C579 1.350 . S
C585 H572 0.929 . S
C585 C577 1.433 . S
C585 N587 1.384 . S
N586 C582 1.427 . S
N586 C583 1.384 . S
N587 C579 1.427 . S
N587 C585 1.384 . S
H588 C594 0.930 1_556 S
H589 C598 0.930 . S
H590 C603 0.929 . S
H591 C601 0.929 . S
H592 C596 0.929 . S
H593 C602 0.929 . S
C594 H588 0.930 1_554 S
C594 C595 1.367 . S
C594 C602 1.378 . S
C595 C594 1.367 . S
C595 C603 1.433 . S
C596 H592 0.929 . S
C596 C598 1.378 . S
C596 C600 1.350 . S
C597 C600 1.463 . S
C597 C602 1.350 . S
C597 N605 1.427 . S
C598 H589 0.930 . S
C598 C596 1.378 . S
C598 C599 1.367 . S
C599 C598 1.367 . S
C599 C601 1.433 . S
C600 C596 1.350 . S
C600 C597 1.463 . S
C600 N604 1.427 . S
C601 H591 0.929 . S
C601 C599 1.433 . S
C601 N604 1.384 . S
C602 H593 0.929 . S
C602 C594 1.378 . S
C602 C597 1.350 . S
C603 H590 0.929 . S
C603 C595 1.433 . S
C603 N605 1.384 . S
N604 C600 1.427 . S
N604 C601 1.384 . S
N605 C597 1.427 . S
N605 C603 1.384 . S
H606 C612 0.930 . S
H607 C616 0.930 . S
H608 C621 0.929 . S
H609 C619 0.929 . S
H610 C614 0.929 . S
H611 C620 0.929 . S
C612 H606 0.930 . S
C612 C613 1.367 . S
C612 C620 1.378 . S
C613 C612 1.367 . S
C613 C621 1.433 . S
C614 H610 0.929 . S
C614 C616 1.378 . S
C614 C618 1.350 . S
C615 C618 1.463 . S
C615 C620 1.350 . S
C615 N623 1.427 . S
C616 H607 0.930 . S
C616 C614 1.378 . S
C616 C617 1.367 . S
C617 C616 1.367 . S
C617 C619 1.433 . S
C618 C614 1.350 . S
C618 C615 1.463 . S
C618 N622 1.427 . S
C619 H609 0.929 . S
C619 C617 1.433 . S
C619 N622 1.384 . S
C620 H611 0.929 . S
C620 C612 1.378 . S
C620 C615 1.350 . S
C621 H608 0.929 . S
C621 C613 1.433 . S
C621 N623 1.384 . S
N622 C618 1.427 . S
N622 C619 1.384 . S
N623 C615 1.427 . S
N623 C621 1.384 . S
C271 N68 1.396 . S
C275 N2 1.386 . S
C289 N101 1.390 . S
C293 N35 1.401 . S
C307 N134 1.389 . S
C311 N200 1.391 . S
C325 N167 1.393 . S
C329 N233 1.387 . S
C343 C117 1.485 . S
C347 C18 1.482 . S
C361 C51 1.484 . S
C365 C84 1.476 . S
C379 C73 1.236 . S
C383 C40 1.235 . S
C397 C106 1.238 . S
C401 C7 1.230 . S
C415 C249 1.484 . S
C419 C150 1.476 . S
C433 C183 1.481 . S
C437 C216 1.476 . S
C451 C205 1.238 . S
C455 C172 1.231 . S
C469 C238 1.238 . S
C473 C139 1.232 . S
C487 N178 1.502 . S
C491 C21 1.554 1_556 S
C505 C54 1.555 . S
C509 N145 1.496 . S
C523 C87 1.555 1_554 S
C527 N244 1.495 . S
C541 N211 1.508 . S
C545 C120 1.554 . S
C559 N46 1.495 . S
C563 C153 1.555 1_556 S
C577 C186 1.554 . S
C581 N13 1.507 . S
C595 C219 1.554 1_554 S
C599 N112 1.502 . S
C613 C252 1.554 . S
C617 N79 1.507 . S
