# Generated by pormake.
# Topology yfd, (5)-cn, num edge types: 1
# Building blocks:
#     Node 0, Type 0, BuildingBlock: BEQFEK_clean_sbu_0, # of connection points: 5
#     Node 1, Type 0, BuildingBlock: BEQFEK_clean_sbu_0, # of connection points: 5
#     Node 2, Type 0, BuildingBlock: BEQFEK_clean_sbu_0, # of connection points: 5
#     Node 3, Type 0, BuildingBlock: BEQFEK_clean_sbu_0, # of connection points: 5
#     Node 4, Type 0, BuildingBlock: BEQFEK_clean_sbu_0, # of connection points: 5
#     Node 5, Type 0, BuildingBlock: BEQFEK_clean_sbu_0, # of connection points: 5
#     Node 6, Type 0, BuildingBlock: BEQFEK_clean_sbu_0, # of connection points: 5
#     Node 7, Type 0, BuildingBlock: BEQFEK_clean_sbu_0, # of connection points: 5
#     Node 8, Type 0, BuildingBlock: BEQFEK_clean_sbu_0, # of connection points: 5
#     Node 9, Type 0, BuildingBlock: BEQFEK_clean_sbu_0, # of connection points: 5
#     Node 10, Type 0, BuildingBlock: BEQFEK_clean_sbu_0, # of connection points: 5
#     Node 11, Type 0, BuildingBlock: BEQFEK_clean_sbu_0, # of connection points: 5
#     Node 12, Type 0, BuildingBlock: BEQFEK_clean_sbu_0, # of connection points: 5
#     Node 13, Type 0, BuildingBlock: BEQFEK_clean_sbu_0, # of connection points: 5
#     Node 14, Type 0, BuildingBlock: BEQFEK_clean_sbu_0, # of connection points: 5
#     Node 15, Type 0, BuildingBlock: BEQFEK_clean_sbu_0, # of connection points: 5
#     Edge 16, Type (0, 0), BuildingBlock: OJICUG_clean_linker_0, # of connection points: 2
#     Edge 17, Type (0, 0), BuildingBlock: OJICUG_clean_linker_0, # of connection points: 2
#     Edge 18, Type (0, 0), BuildingBlock: OJICUG_clean_linker_0, # of connection points: 2
#     Edge 19, Type (0, 0), BuildingBlock: OJICUG_clean_linker_0, # of connection points: 2
#     Edge 20, Type (0, 0), BuildingBlock: OJICUG_clean_linker_0, # of connection points: 2
#     Edge 21, Type (0, 0), BuildingBlock: OJICUG_clean_linker_0, # of connection points: 2
#     Edge 22, Type (0, 0), BuildingBlock: OJICUG_clean_linker_0, # of connection points: 2
#     Edge 23, Type (0, 0), BuildingBlock: OJICUG_clean_linker_0, # of connection points: 2
#     Edge 24, Type (0, 0), BuildingBlock: OJICUG_clean_linker_0, # of connection points: 2
#     Edge 25, Type (0, 0), BuildingBlock: OJICUG_clean_linker_0, # of connection points: 2
#     Edge 26, Type (0, 0), BuildingBlock: OJICUG_clean_linker_0, # of connection points: 2
#     Edge 27, Type (0, 0), BuildingBlock: OJICUG_clean_linker_0, # of connection points: 2
#     Edge 28, Type (0, 0), BuildingBlock: OJICUG_clean_linker_0, # of connection points: 2
#     Edge 29, Type (0, 0), BuildingBlock: OJICUG_clean_linker_0, # of connection points: 2
#     Edge 30, Type (0, 0), BuildingBlock: OJICUG_clean_linker_0, # of connection points: 2
#     Edge 31, Type (0, 0), BuildingBlock: OJICUG_clean_linker_0, # of connection points: 2
#     Edge 32, Type (0, 0), BuildingBlock: OJICUG_clean_linker_0, # of connection points: 2
#     Edge 33, Type (0, 0), BuildingBlock: OJICUG_clean_linker_0, # of connection points: 2
#     Edge 34, Type (0, 0), BuildingBlock: OJICUG_clean_linker_0, # of connection points: 2
#     Edge 35, Type (0, 0), BuildingBlock: OJICUG_clean_linker_0, # of connection points: 2
#     Edge 36, Type (0, 0), BuildingBlock: OJICUG_clean_linker_0, # of connection points: 2
#     Edge 37, Type (0, 0), BuildingBlock: OJICUG_clean_linker_0, # of connection points: 2
#     Edge 38, Type (0, 0), BuildingBlock: OJICUG_clean_linker_0, # of connection points: 2
#     Edge 39, Type (0, 0), BuildingBlock: OJICUG_clean_linker_0, # of connection points: 2
#     Edge 40, Type (0, 0), BuildingBlock: OJICUG_clean_linker_0, # of connection points: 2
#     Edge 41, Type (0, 0), BuildingBlock: OJICUG_clean_linker_0, # of connection points: 2
#     Edge 42, Type (0, 0), BuildingBlock: OJICUG_clean_linker_0, # of connection points: 2
#     Edge 43, Type (0, 0), BuildingBlock: OJICUG_clean_linker_0, # of connection points: 2
#     Edge 44, Type (0, 0), BuildingBlock: OJICUG_clean_linker_0, # of connection points: 2
#     Edge 45, Type (0, 0), BuildingBlock: OJICUG_clean_linker_0, # of connection points: 2
#     Edge 46, Type (0, 0), BuildingBlock: OJICUG_clean_linker_0, # of connection points: 2
#     Edge 47, Type (0, 0), BuildingBlock: OJICUG_clean_linker_0, # of connection points: 2
#     Edge 48, Type (0, 0), BuildingBlock: OJICUG_clean_linker_0, # of connection points: 2
#     Edge 49, Type (0, 0), BuildingBlock: OJICUG_clean_linker_0, # of connection points: 2
#     Edge 50, Type (0, 0), BuildingBlock: OJICUG_clean_linker_0, # of connection points: 2
#     Edge 51, Type (0, 0), BuildingBlock: OJICUG_clean_linker_0, # of connection points: 2
#     Edge 52, Type (0, 0), BuildingBlock: OJICUG_clean_linker_0, # of connection points: 2
#     Edge 53, Type (0, 0), BuildingBlock: OJICUG_clean_linker_0, # of connection points: 2
#     Edge 54, Type (0, 0), BuildingBlock: OJICUG_clean_linker_0, # of connection points: 2
#     Edge 55, Type (0, 0), BuildingBlock: OJICUG_clean_linker_0, # of connection points: 2
# Relax obj value: 0.603
# Max RMSD: 0.256
# Mean RMSD: 0.256
data_MOF--net-yfd--node1-BEQFEK_clean_sbu_0--edge1-OJICUG_clean_linker_0
_symmetry_space_group_name_H-M    P1
_symmetry_Int_Tables_number       1
_symmetry_cell_setting            triclinic
loop_
_symmetry_equiv_pos_as_xyz
'x, y, z'
_cell_length_a     51.245331
_cell_length_b     50.966153
_cell_length_c     19.330503
_cell_angle_alpha  90.172812
_cell_angle_beta   89.943116
_cell_angle_gamma 90.047766
loop_
_atom_site_label
_atom_site_type_symbol
_atom_site_fract_x
_atom_site_fract_y
_atom_site_fract_z
_atom_type_partial_charge
Co0 Co 0.53941 0.09458 0.16798 0.0
Co1 Co 0.53871 0.15603 0.18073 0.0
C2 C 0.48976 0.12175 0.20267 0.0
O3 O 0.50357 0.10172 0.19125 0.0
O4 O 0.49984 0.14482 0.20078 0.0
C5 C 0.52102 0.04414 0.13389 0.0
O6 O 0.49937 0.05131 0.16499 0.0
C7 C 0.53053 0.20769 0.11161 0.0
C8 C 0.55819 0.23297 0.16814 0.0
C9 C 0.54157 0.23274 0.11152 0.0
N10 N 0.5404 0.19386 0.1652 0.0
N11 N 0.5565 0.20942 0.1995 0.0
C12 C 0.51353 0.19609 0.05664 0.0
H13 H 0.51159 0.17456 0.06357 0.0
H14 H 0.52169 0.20047 0.00471 0.0
H15 H 0.4939 0.20519 0.05965 0.0
C16 C 0.56477 0.10568 0.03778 0.0
N17 N 0.55092 0.11425 0.09234 0.0
N18 N 0.55395 0.13975 0.09919 0.0
C19 C 0.57111 0.14787 0.04992 0.0
C20 C 0.57856 0.12633 0.01006 0.0
C21 C 0.56495 0.07798 0.01251 0.0
H22 H 0.54453 0.07117 0.00915 0.0
H23 H 0.57381 0.07607 0.96038 0.0
H24 H 0.57596 0.06554 0.04928 0.0
O25 O 0.56282 0.10181 0.24435 0.0
O26 O 0.56255 0.1451 0.26139 0.0
H27 H 0.60188 0.1742 0.01849 0.0
H28 H 0.56962 0.18794 0.01844 0.0
C29 C 0.58298 0.17464 0.04659 0.0
H30 H 0.58605 0.18247 0.09951 0.0
H31 H 0.56765 0.20345 0.24175 0.0
O32 O 0.54168 0.05735 0.1437 0.0
C33 C 0.57087 0.12204 0.27656 0.0
Co34 Co 0.44961 0.54496 0.65974 0.0
Co35 Co 0.38847 0.54341 0.67116 0.0
C36 C 0.42302 0.4952 0.69923 0.0
O37 O 0.44276 0.50924 0.68693 0.0
O38 O 0.39993 0.50489 0.69558 0.0
C39 C 0.49987 0.52606 0.62933 0.0
O40 O 0.49296 0.50517 0.66447 0.0
C41 C 0.33693 0.53507 0.60179 0.0
C42 C 0.31185 0.56219 0.6608 0.0
C43 C 0.31195 0.54602 0.60293 0.0
N44 N 0.35083 0.54467 0.65574 0.0
N45 N 0.33538 0.56042 0.6915 0.0
C46 C 0.34831 0.51825 0.54589 0.0
H47 H 0.36983 0.51694 0.5512 0.0
H48 H 0.3431 0.52616 0.49429 0.0
H49 H 0.33991 0.49824 0.54974 0.0
C50 C 0.43865 0.56819 0.52694 0.0
N51 N 0.43012 0.55493 0.58249 0.0
N52 N 0.40473 0.55787 0.58872 0.0
C53 C 0.39665 0.57449 0.53811 0.0
C54 C 0.41807 0.58153 0.49784 0.0
C55 C 0.46629 0.56849 0.50249 0.0
H56 H 0.47841 0.58012 0.53888 0.0
H57 H 0.47334 0.54803 0.50067 0.0
H58 H 0.46825 0.57689 0.44988 0.0
O59 O 0.44196 0.56979 0.73353 0.0
O60 O 0.39887 0.56833 0.75004 0.0
H61 H 0.36195 0.58934 0.58672 0.0
H62 H 0.37084 0.6057 0.50702 0.0
C63 C 0.3701 0.58653 0.5341 0.0
H64 H 0.35701 0.57336 0.5044 0.0
H65 H 0.34141 0.5713 0.73443 0.0
O66 O 0.48669 0.54699 0.63573 0.0
C67 C 0.42151 0.5776 0.76475 0.0
Co68 Co 1.00168 0.45239 0.16755 0.0
Co69 Co 1.00238 0.39089 0.17919 0.0
C70 C 0.05131 0.42528 0.20191 0.0
O71 O 0.03749 0.44529 0.19074 0.0
O72 O 0.04125 0.40219 0.1996 0.0
C73 C 1.02004 0.50287 0.1344 0.0
O74 O 0.04168 0.4957 0.16531 0.0
C75 C 1.01071 0.33916 0.10888 0.0
C76 C 0.98315 0.31379 0.16513 0.0
C77 C 0.99978 0.31405 0.10846 0.0
N78 N 1.00077 0.353 0.1627 0.0
N79 N 0.98471 0.33737 0.19678 0.0
C80 C 0.02774 0.3508 0.05412 0.0
H81 H 0.02944 0.37236 0.06102 0.0
H82 H 1.01978 0.34619 0.00208 0.0
H83 H 0.04746 0.34193 0.05746 0.0
C84 C 0.97646 0.44133 0.03711 0.0
N85 N 0.99024 0.43274 0.09156 0.0
N86 N 0.98722 0.40723 0.09792 0.0
C87 C 0.97013 0.39913 0.04841 0.0
C88 C 0.96272 0.42069 0.00893 0.0
C89 C 0.97627 0.46905 0.01241 0.0
H90 H 0.96522 0.48145 0.04942 0.0
H91 H 0.99669 0.47587 0.00918 0.0
H92 H 0.96745 0.47098 0.96032 0.0
O93 O 0.97824 0.44515 0.24381 0.0
O94 O 0.97843 0.40186 0.26022 0.0
H95 H 0.95519 0.36445 0.09718 0.0
H96 H 0.93944 0.37277 0.01629 0.0
C97 C 0.95831 0.37234 0.04445 0.0
H98 H 0.97173 0.35909 0.01607 0.0
H99 H 0.97353 0.3433 0.23917 0.0
O100 O 0.99939 0.48963 0.14397 0.0
C101 C 0.97015 0.42494 0.27577 0.0
Co102 Co 0.09373 1.00055 0.68738 0.0
Co103 Co 0.1543 1.0028 0.6791 0.0
C104 C 0.1229 0.05046 0.71976 0.0
O105 O 0.1034 0.0354 0.71927 0.0
O106 O 0.14535 0.04198 0.70098 0.0
C107 C 0.05836 1.02323 0.61128 0.0
O108 O 0.0803 0.03577 0.5993 0.0
C109 C 0.20632 1.01068 0.61025 0.0
C110 C 0.22852 0.97772 0.65436 0.0
C111 C 0.23002 0.99725 0.60464 0.0
N112 N 0.19154 0.99916 0.65976 0.0
N113 N 0.20535 0.97988 0.68683 0.0
C114 C 0.19673 0.03223 0.56451 0.0
H115 H 0.17515 0.03379 0.56741 0.0
H116 H 0.20301 0.02886 0.51023 0.0
H117 H 0.20537 0.05106 0.58213 0.0
C118 C 0.09991 0.97098 0.56054 0.0
N119 N 0.11032 0.98692 0.60882 0.0
N120 N 0.13566 0.98875 0.59972 0.0
C121 C 0.14185 0.97475 0.54188 0.0
C122 C 0.1193 0.96297 0.51578 0.0
C123 C 0.07204 0.96196 0.56004 0.0
H124 H 0.06365 0.96251 0.61278 0.0
H125 H 0.06063 0.97469 0.52492 0.0
H126 H 0.07016 0.9416 0.5408 0.0
O127 O 0.10001 0.97558 0.75853 0.0
O128 O 0.14374 0.97799 0.76111 0.0
H129 H 0.18156 0.96353 0.55884 0.0
H130 H 0.16907 0.95474 0.47461 0.0
C131 C 0.16889 0.96998 0.51577 0.0
H132 H 0.17682 0.9884 0.49402 0.0
H133 H 0.19831 0.96709 0.72454 0.0
O134 O 0.05776 1.00605 0.65891 0.0
C135 C 0.12192 0.96834 0.78284 0.0
Co136 Co 0.54241 0.45126 0.83685 0.0
Co137 Co 0.54054 0.38967 0.82652 0.0
C138 C 0.49277 0.42453 0.79781 0.0
O139 O 0.50689 0.44432 0.80968 0.0
O140 O 0.50225 0.40126 0.80196 0.0
C141 C 0.52356 0.50182 0.8673 0.0
O142 O 0.50267 0.49472 0.83271 0.0
C143 C 0.53137 0.33814 0.89616 0.0
C144 C 0.55946 0.31274 0.84151 0.0
C145 C 0.54238 0.3131 0.89722 0.0
N146 N 0.54172 0.35187 0.84294 0.0
N147 N 0.55807 0.33622 0.80974 0.0
C148 C 0.51386 0.34982 0.94993 0.0
H149 H 0.51222 0.37137 0.94302 0.0
H150 H 0.52134 0.34531 0.00243 0.0
H151 H 0.49419 0.34089 0.9453 0.0
C152 C 0.56564 0.44051 0.96967 0.0
N153 N 0.55236 0.43183 0.91429 0.0
N154 N 0.55496 0.40624 0.90876 0.0
C155 C 0.57131 0.39814 0.95985 0.0
C156 C 0.57861 0.41978 -0.00051 0.0
C157 C 0.56621 0.4684 0.99348 0.0
H158 H 0.57772 0.48037 0.9566 0.0
H159 H 0.54591 0.47561 0.99551 0.0
H160 H 0.57473 0.47054 0.04591 0.0
O161 O 0.56701 0.44327 0.76315 0.0
O162 O 0.56531 0.39988 0.74739 0.0
H163 H 0.60137 0.37163 0.99446 0.0
H164 H 0.56894 0.3583 0.99301 0.0
C165 C 0.58276 0.37125 0.96513 0.0
H166 H 0.58627 0.36304 0.9128 0.0
H167 H 0.5696 0.34211 0.76804 0.0
O168 O 0.5444 0.48862 0.86062 0.0
C169 C 0.57461 0.42256 0.73224 0.0
Co170 Co 0.09425 0.54607 0.31501 0.0
Co171 Co 0.15497 0.54423 0.31924 0.0
C172 C 0.12335 0.49625 0.28175 0.0
O173 O 0.10375 0.51111 0.28433 0.0
O174 O 0.14602 0.505 0.29756 0.0
C175 C 0.05931 0.52374 0.39392 0.0
O176 O 0.08137 0.51149 0.40607 0.0
C177 C 0.20723 0.53602 0.38543 0.0
C178 C 0.22933 0.56937 0.34268 0.0
C179 C 0.23097 0.54936 0.39098 0.0
N180 N 0.1923 0.54794 0.3371 0.0
N181 N 0.20602 0.56749 0.31081 0.0
C182 C 0.19774 0.51427 0.4307 0.0
H183 H 0.17614 0.51273 0.42832 0.0
H184 H 0.20417 0.51741 0.48491 0.0
H185 H 0.20631 0.49551 0.41231 0.0
C186 C 0.10137 0.57656 0.4395 0.0
N187 N 0.11142 0.56017 0.39175 0.0
N188 N 0.13683 0.55852 0.39926 0.0
C189 C 0.14347 0.57312 0.45568 0.0
C190 C 0.12113 0.58516 0.48229 0.0
C191 C 0.0734 0.58524 0.44128 0.0
H192 H 0.06476 0.58458 0.38887 0.0
H193 H 0.06232 0.5723 0.47669 0.0
H194 H 0.0713 0.60554 0.46063 0.0
O195 O 0.10007 0.57067 0.24242 0.0
O196 O 0.1438 0.56871 0.23748 0.0
H197 H 0.17122 0.59299 0.52173 0.0
H198 H 0.17913 0.55955 0.4998 0.0
C199 C 0.17073 0.57804 0.47986 0.0
H200 H 0.18284 0.58496 0.43606 0.0
H201 H 0.19884 0.58062 0.27418 0.0
O202 O 0.05849 0.54063 0.34559 0.0
C203 C 0.12175 0.57803 0.21671 0.0
Co204 Co 1.00055 0.09518 0.82537 0.0
Co205 Co 1.00222 0.15682 0.81939 0.0
C206 C 0.05069 0.12214 0.79411 0.0
O207 O 0.03647 0.1022 0.80275 0.0
O208 O 0.04105 0.14536 0.79896 0.0
C209 C 1.01824 0.04395 0.85263 0.0
O210 O 0.03982 0.05116 0.82131 0.0
C211 C 1.01087 0.20827 0.89173 0.0
C212 C 0.98271 0.23362 0.83781 0.0
C213 C 0.9997 0.23325 0.89359 0.0
N214 N 1.0007 0.1946 0.83794 0.0
N215 N 0.9843 0.21024 0.80524 0.0
C216 C 0.02844 0.19659 0.9451 0.0
H217 H 0.02994 0.17502 0.93807 0.0
H218 H 0.0211 0.20125 0.99778 0.0
H219 H 0.04815 0.20541 0.94005 0.0
C220 C 0.97565 0.10492 0.9572 0.0
N221 N 0.98933 0.11402 0.90305 0.0
N222 N 0.98697 0.13968 0.89958 0.0
C223 C 0.97053 0.14744 0.95104 0.0
C224 C 0.96277 0.12548 0.98849 0.0
C225 C 0.97501 0.07686 0.97904 0.0
H226 H 0.96373 0.06518 0.94091 0.0
H227 H 0.99531 0.06968 0.98117 0.0
H228 H 0.96624 0.07426 0.03103 0.0
O229 O 0.97719 0.10354 0.75044 0.0
O230 O 0.97809 0.14698 0.73757 0.0
H231 H 0.95615 0.18333 0.90764 0.0
H232 H 0.94111 0.17416 0.98886 0.0
C233 C 0.95964 0.17449 0.9591 0.0
H234 H 0.9738 0.18684 0.98774 0.0
H235 H 0.97289 0.20441 0.76322 0.0
O236 O 0.99779 0.05767 0.84532 0.0
C237 C 0.96937 0.12422 0.7204 0.0
Co238 Co 0.44724 1.0013 0.31397 0.0
Co239 Co 0.3865 1.00267 0.31809 0.0
C240 C 0.41786 0.0508 0.28105 0.0
O241 O 0.43756 0.03608 0.28327 0.0
O242 O 0.39528 0.04192 0.29705 0.0
C243 C 0.48231 0.02419 0.39194 0.0
O244 O 0.46025 0.03645 0.40437 0.0
C245 C 0.33449 1.01039 0.38625 0.0
C246 C 0.31175 0.97833 0.33886 0.0
C247 C 0.3105 0.99738 0.39024 0.0
N248 N 0.34916 0.99912 0.33603 0.0
N249 N 0.33506 0.98037 0.30703 0.0
C250 C 0.34441 0.03122 0.43412 0.0
H251 H 0.36602 0.03247 0.43146 0.0
H252 H 0.33806 0.0273 0.48802 0.0
H253 H 0.33612 0.05039 0.41838 0.0
C254 C 0.44032 0.97115 0.4387 0.0
N255 N 0.43014 0.98734 0.39096 0.0
N256 N 0.40465 0.98842 0.39782 0.0
C257 C 0.39805 0.97351 0.45351 0.0
C258 C 0.42053 0.96201 0.48057 0.0
C259 C 0.46845 0.96305 0.4411 0.0
H260 H 0.47712 0.96331 0.38866 0.0
H261 H 0.47922 0.97661 0.47568 0.0
H262 H 0.47098 0.94303 0.46175 0.0
O263 O 0.4415 0.97646 0.24134 0.0
O264 O 0.39777 0.97821 0.23599 0.0
H265 H 0.35892 0.96155 0.43077 0.0
H266 H 0.37045 0.95147 0.51481 0.0
C267 C 0.3708 0.96748 0.47602 0.0
H268 H 0.36204 0.98522 0.49967 0.0
H269 H 0.34196 0.96786 0.26831 0.0
O270 O 0.48302 1.00703 0.34396 0.0
C271 C 0.41991 0.96896 0.21536 0.0
Co272 Co 0.50138 0.95215 0.82792 0.0
Co273 Co 0.50246 0.89065 0.81664 0.0
C274 C 0.55121 0.92517 0.79403 0.0
O275 O 0.53727 0.94516 0.80483 0.0
O276 O 0.54128 0.90204 0.79655 0.0
C277 C 0.51943 1.00289 0.86027 0.0
O278 O 0.54106 0.9958 0.82893 0.0
C279 C 0.51078 0.83899 0.88634 0.0
C280 C 0.48361 0.81351 0.82878 0.0
C281 C 0.49998 0.81382 0.88592 0.0
N282 N 0.50098 0.8528 0.8326 0.0
N283 N 0.48517 0.83712 0.79773 0.0
C284 C 0.52758 0.85067 0.94164 0.0
H285 H 0.52886 0.87229 0.93585 0.0
H286 H 0.51975 0.84563 0.99349 0.0
H287 H 0.54748 0.84223 0.93764 0.0
C288 C 0.47618 0.94134 0.95854 0.0
N289 N 0.48999 0.93266 0.90402 0.0
N290 N 0.48716 0.90711 0.89792 0.0
C291 C 0.4702 0.89904 0.94774 0.0
C292 C 0.46265 0.92068 0.98711 0.0
C293 C 0.47585 0.96914 0.98306 0.0
H294 H 0.49623 0.97608 0.98606 0.0
H295 H 0.46704 0.9712 0.03521 0.0
H296 H 0.46473 0.98136 0.94604 0.0
O297 O 0.478 0.94456 0.75188 0.0
O298 O 0.47851 0.90124 0.73569 0.0
H299 H 0.43968 0.87258 0.98009 0.0
H300 H 0.47208 0.85921 0.98103 0.0
C301 C 0.45862 0.87217 0.95216 0.0
H302 H 0.4557 0.86395 0.89958 0.0
H303 H 0.47416 0.84302 0.75515 0.0
O304 O 0.49886 0.98945 0.85117 0.0
C305 C 0.47004 0.9242 0.72013 0.0
Co306 Co 0.59176 0.49907 0.33158 0.0
Co307 Co 0.65304 0.50241 0.32637 0.0
C308 C 0.61773 0.54977 0.29613 0.0
O309 O 0.59823 0.53508 0.30563 0.0
O310 O 0.64102 0.54078 0.30237 0.0
C311 C 0.54069 0.51677 0.35659 0.0
O312 O 0.54753 0.53764 0.3213 0.0
C313 C 0.7044 0.51161 0.39735 0.0
C314 C 0.72965 0.48408 0.34016 0.0
C315 C 0.72939 0.50065 0.39723 0.0
N316 N 0.69063 0.50159 0.34364 0.0
N317 N 0.70621 0.48562 0.30895 0.0
C318 C 0.69292 0.52898 0.45191 0.0
H319 H 0.67132 0.52945 0.44775 0.0
H320 H 0.69884 0.52222 0.50412 0.0
H321 H 0.70056 0.54918 0.44498 0.0
C322 C 0.60158 0.47613 0.46566 0.0
N323 N 0.6105 0.48928 0.41037 0.0
N324 N 0.6361 0.48758 0.40759 0.0
C325 C 0.64401 0.47205 0.46076 0.0
C326 C 0.62222 0.46433 0.49871 0.0
C327 C 0.57357 0.47487 0.48678 0.0
H328 H 0.56239 0.4632 0.44842 0.0
H329 H 0.56599 0.49513 0.48859 0.0
H330 H 0.57088 0.46612 0.53873 0.0
O331 O 0.6008 0.47466 0.25851 0.0
O332 O 0.64401 0.4774 0.24604 0.0
H333 H 0.68052 0.45858 0.41918 0.0
H334 H 0.67083 0.44297 0.49921 0.0
C335 C 0.67107 0.46172 0.47011 0.0
H336 H 0.68269 0.47608 0.50025 0.0
H337 H 0.70032 0.47444 0.26642 0.0
O338 O 0.5544 0.49613 0.35185 0.0
C339 C 0.62185 0.46752 0.22917 0.0
Co340 Co 0.03995 0.59499 0.83033 0.0
Co341 Co 0.03916 0.65653 0.82034 0.0
C342 C 0.99023 0.62218 0.79732 0.0
O343 O 1.0041 0.60214 0.80768 0.0
O344 O 1.00026 0.64528 0.80019 0.0
C345 C 0.02172 0.54429 0.86164 0.0
O346 O 1.00012 0.55148 0.83057 0.0
C347 C 0.03079 0.70803 0.8916 0.0
C348 C 0.05877 0.73343 0.83683 0.0
C349 C 0.0419 0.73305 0.893 0.0
N350 N 0.04085 0.69434 0.83769 0.0
N351 N 0.05715 0.70999 0.80448 0.0
C352 C 1.01351 0.6963 0.94565 0.0
H353 H 1.01159 0.67479 0.93791 0.0
H354 H 0.02142 0.70053 0.99796 0.0
H355 H 0.99391 0.70544 0.94239 0.0
C356 C 0.06527 0.6056 0.96089 0.0
N357 N 0.05144 0.61437 0.90674 0.0
N358 N 0.05436 0.63991 0.90114 0.0
C359 C 0.0714 0.64788 0.95092 0.0
C360 C 0.07892 0.62618 0.98969 0.0
C361 C 0.0655 0.57779 0.98487 0.0
H362 H 0.04509 0.57092 0.98781 0.0
H363 H 0.07429 0.57567 0.03694 0.0
H364 H 0.07658 0.56554 0.94756 0.0
O365 O 0.06333 0.60254 0.75431 0.0
O366 O 0.06312 0.64588 0.73903 0.0
H367 H 0.10184 0.67429 0.98446 0.0
H368 H 0.06948 0.68781 0.98405 0.0
C369 C 0.08308 0.67471 0.95579 0.0
H370 H 0.08638 0.68276 0.90332 0.0
H371 H 0.06847 0.70414 0.76229 0.0
O372 O 0.04233 0.55766 0.85273 0.0
C373 C 0.07143 0.62286 0.72294 0.0
Co374 Co 0.94748 0.04462 0.31753 0.0
Co375 Co 0.88673 0.04387 0.31953 0.0
C376 C 0.91783 0.9954 0.28273 0.0
O377 O 0.93768 1.00991 0.28623 0.0
O378 O 0.89525 1.00454 0.29769 0.0
C379 C 0.98231 1.0215 0.39545 0.0
O380 O 0.96021 1.00926 0.40747 0.0
C381 C 0.83479 0.03644 0.38755 0.0
C382 C 0.81193 0.06812 0.33952 0.0
C383 C 0.81077 0.04935 0.39134 0.0
N384 N 0.84939 0.04748 0.33699 0.0
N385 N 0.83522 0.06599 0.30759 0.0
C386 C 0.84486 1.01601 0.43606 0.0
H387 H 0.86646 1.0148 0.43311 0.0
H388 H 0.83862 1.02035 0.4899 0.0
H389 H 0.83654 0.9967 0.42122 0.0
C390 C 0.94039 0.07514 0.44201 0.0
N391 N 0.93025 0.05877 0.39429 0.0
N392 N 0.9047 0.05823 0.39974 0.0
C393 C 0.89796 0.07382 0.45425 0.0
C394 C 0.92044 0.08511 0.48214 0.0
C395 C 0.96869 0.08259 0.44583 0.0
H396 H 0.9776 0.08239 0.39366 0.0
H397 H 0.97893 0.06856 0.47993 0.0
H398 H 0.97172 0.10238 0.46773 0.0
O399 O 0.94213 0.06947 0.24492 0.0
O400 O 0.89841 0.06812 0.23806 0.0
H401 H 0.87034 0.09727 0.51203 0.0
H402 H 0.86118 0.06357 0.49852 0.0
C403 C 0.87065 0.08079 0.47436 0.0
H404 H 0.85941 0.08647 0.42788 0.0
H405 H 0.84206 0.07833 0.26857 0.0
O406 O 0.98313 0.03869 0.34786 0.0
C407 C 0.92073 0.07715 0.21828 0.0
Co408 Co 0.49693 0.59503 0.16646 0.0
Co409 Co 0.50028 0.65674 0.17196 0.0
C410 C 0.54726 0.62131 0.20312 0.0
O411 O 0.5326 0.60175 0.19338 0.0
O412 O 0.53842 0.64475 0.19659 0.0
C413 C 0.51516 0.54397 0.13945 0.0
O414 O 0.53605 0.55114 0.17389 0.0
C415 C 0.5102 0.7083 0.10197 0.0
C416 C 0.48126 0.73349 0.1541 0.0
C417 C 0.49896 0.73324 0.0998 0.0
N418 N 0.49935 0.69452 0.15443 0.0
N419 N 0.48251 0.71008 0.18618 0.0
C420 C 0.52857 0.69679 0.05 0.0
H421 H 0.52951 0.67513 0.05535 0.0
H422 H 0.52247 0.70215 0.99681 0.0
H423 H 0.54833 0.7051 0.05863 0.0
C424 C 0.47422 0.60497 0.03222 0.0
N425 N 0.48723 0.61391 0.08776 0.0
N426 N 0.48579 0.63967 0.09032 0.0
C427 C 0.47066 0.64769 0.03653 0.0
C428 C 0.46285 0.62579 0.99863 0.0
C429 C 0.47266 0.57678 0.01136 0.0
H430 H 0.4613 0.56565 0.05031 0.0
H431 H 0.49276 0.56907 0.00867 0.0
H432 H 0.46359 0.57399 0.95983 0.0
O433 O 0.4725 0.60401 0.23926 0.0
O434 O 0.47529 0.64748 0.25192 0.0
H435 H 0.45677 0.68439 0.07686 0.0
H436 H 0.44293 0.67512 0.99422 0.0
C437 C 0.46091 0.67503 0.02623 0.0
H438 H 0.47597 0.68665 0.99887 0.0
H439 H 0.47055 0.70414 0.22697 0.0
O440 O 0.49445 0.55745 0.14524 0.0
C441 C 0.46543 0.6252 0.26863 0.0
Co442 Co 0.94728 0.50161 0.68545 0.0
Co443 Co 0.88656 0.50324 0.68073 0.0
C444 C 0.918 0.55122 0.7194 0.0
O445 O 0.93763 0.53639 0.71711 0.0
O446 O 0.89541 0.54247 0.70278 0.0
C447 C 0.98252 0.52454 0.60844 0.0
O448 O 0.96052 0.53689 0.59629 0.0
C449 C 0.83424 0.51133 0.61426 0.0
C450 C 0.81211 0.47818 0.65793 0.0
C451 C 0.81044 0.49804 0.6092 0.0
N452 N 0.84921 0.49951 0.66271 0.0
N453 N 0.83547 0.48009 0.68952 0.0
C454 C 0.84371 0.53297 0.56857 0.0
H455 H 0.8653 0.53452 0.57084 0.0
H456 H 0.83724 0.52968 0.51444 0.0
H457 H 0.83514 0.55177 0.58665 0.0
C458 C 0.94047 0.47179 0.55956 0.0
N459 N 0.93028 0.48785 0.6079 0.0
N460 N 0.90484 0.48923 0.60058 0.0
C461 C 0.89829 0.47473 0.5439 0.0
C462 C 0.92075 0.46309 0.51675 0.0
C463 C 0.96854 0.46347 0.55723 0.0
H464 H 0.97712 0.46363 0.60975 0.0
H465 H 0.97948 0.47698 0.52304 0.0
H466 H 0.97093 0.44345 0.53614 0.0
O467 O 0.94143 0.47666 0.75725 0.0
O468 O 0.8977 0.47859 0.76221 0.0
H469 H 0.85904 0.46263 0.56415 0.0
H470 H 0.87067 0.4543 0.47866 0.0
C471 C 0.87106 0.46944 0.52006 0.0
H472 H 0.86249 0.48776 0.49953 0.0
H473 H 0.84265 0.46707 0.72643 0.0
O474 O 0.98312 0.50728 0.65587 0.0
C475 C 0.91975 0.4692 0.78281 0.0
Co476 Co 0.03841 0.95204 0.1622 0.0
Co477 Co 0.03826 0.89066 0.17732 0.0
C478 C 0.98903 0.92469 0.19839 0.0
O479 O 1.00265 0.94474 0.18574 0.0
O480 O 0.99933 0.90171 0.19758 0.0
C481 C 1.01954 1.00184 0.12472 0.0
O482 O 0.99778 0.9945 0.15489 0.0
C483 C 0.03031 0.83882 0.10811 0.0
C484 C 0.05786 0.81365 0.16476 0.0
C485 C 0.04134 0.81378 0.10793 0.0
N486 N 0.04007 0.85274 0.16196 0.0
N487 N 0.05612 0.83723 0.19631 0.0
C488 C 1.0135 0.85037 0.05288 0.0
H489 H 1.01117 0.87182 0.06068 0.0
H490 H 0.02211 0.84638 0.00119 0.0
H491 H 0.99401 0.84089 0.05442 0.0
C492 C 0.06406 0.94023 0.03281 0.0
N493 N 0.05011 0.93192 0.08737 0.0
N494 N 0.05354 0.90655 0.09556 0.0
C495 C 0.07112 0.89832 0.04737 0.0
C496 C 0.07839 0.91962 0.00667 0.0
C497 C 0.06398 0.9677 0.00625 0.0
H498 H 0.07483 0.9806 0.04248 0.0
H499 H 0.04349 0.97423 0.00233 0.0
H500 H 0.07291 0.96922 0.95413 0.0
O501 O 0.06174 0.94556 0.23949 0.0
O502 O 0.06184 0.90237 0.25796 0.0
H503 H 0.10259 0.87234 0.01865 0.0
H504 H 0.0706 0.85791 0.01818 0.0
C505 C 0.08354 0.87179 0.04604 0.0
H506 H 0.08645 0.86458 0.09951 0.0
H507 H 0.0672 0.84328 0.23873 0.0
O508 O 0.04034 0.98907 0.13607 0.0
C509 C 0.06984 0.92564 0.27268 0.0
Co510 Co 0.59404 0.04598 0.68464 0.0
Co511 Co 0.65475 0.04428 0.67949 0.0
C512 C 0.6233 0.99629 0.71697 0.0
O513 O 0.60366 1.01112 0.71514 0.0
O514 O 0.64589 1.00506 0.70055 0.0
C515 C 0.55898 1.02337 0.60638 0.0
O516 O 0.58102 1.01108 0.59398 0.0
C517 C 0.70677 0.03648 0.61138 0.0
C518 C 0.72915 0.06924 0.65659 0.0
C519 C 0.73055 0.0498 0.60629 0.0
N520 N 0.69205 0.04794 0.66118 0.0
N521 N 0.70595 0.06711 0.68893 0.0
C522 C 0.69704 1.01516 0.56472 0.0
H523 H 0.67544 1.01373 0.5675 0.0
H524 H 0.70335 1.0187 0.51059 0.0
H525 H 0.70552 0.99621 0.58156 0.0
C526 C 0.60089 0.07613 0.55985 0.0
N527 N 0.61108 0.05994 0.60758 0.0
N528 N 0.6365 0.05849 0.59991 0.0
C529 C 0.64303 0.07306 0.54354 0.0
C530 C 0.62059 0.08479 0.51701 0.0
C531 C 0.57289 0.08468 0.55827 0.0
H532 H 0.56429 0.08419 0.61077 0.0
H533 H 0.56184 0.07158 0.52308 0.0
H534 H 0.57071 0.10491 0.53872 0.0
O535 O 0.59992 0.07075 0.75721 0.0
O536 O 0.64366 0.0688 0.7617 0.0
H537 H 0.6824 0.0848 0.56387 0.0
H538 H 0.67058 0.09397 0.4794 0.0
C539 C 0.67024 0.07845 0.51956 0.0
H540 H 0.67865 0.06032 0.4972 0.0
H541 H 0.69894 0.07986 0.72697 0.0
O542 O 0.55823 0.0404 0.65465 0.0
C543 C 0.62162 0.07815 0.78277 0.0
C544 C 0.5414 1.01801 0.04024 0.0
C545 C 0.51932 0.03074 0.06704 0.0
H546 H 0.55937 1.00057 0.95164 0.0
C547 C 0.4981 0.03611 0.02336 0.0
H548 H 0.55819 1.01426 0.07274 0.0
C549 C 0.49913 0.02917 0.95368 0.0
C550 C 0.5212 1.01643 0.9269 0.0
H551 H 0.48114 0.0466 0.04229 0.0
H552 H 0.48231 0.03288 0.9212 0.0
C553 C 0.54242 1.01108 0.97056 0.0
C554 C 0.53277 0.54286 0.46244 0.0
C555 C 0.52726 0.52042 0.42268 0.0
H556 H 0.52971 0.56152 0.56148 0.0
C557 C 0.51428 0.49915 0.45317 0.0
H558 H 0.54344 0.55924 0.44063 0.0
C559 C 0.50728 0.50013 0.52278 0.0
C560 C 0.51289 0.52254 0.56261 0.0
H561 H 0.51042 0.48144 0.42374 0.0
H562 H 0.49666 0.48374 0.54464 0.0
C563 C 0.52579 0.54383 0.53203 0.0
C564 C 0.04297 0.51093 0.02394 0.0
C565 C 0.02176 0.51631 0.06782 0.0
H566 H 0.05877 0.51417 0.92177 0.0
C567 C 0.99969 0.52907 0.04136 0.0
H568 H 0.05991 0.50041 0.04258 0.0
C569 C 0.99869 0.53605 0.97182 0.0
C570 C 1.01991 0.5307 0.92797 0.0
H571 H 0.98289 0.53282 0.07401 0.0
H572 H 0.98176 0.54659 0.95318 0.0
C573 C 0.04196 0.5179 0.9544 0.0
C574 C 1.01637 1.00716 0.56284 0.0
C575 C 0.03794 0.02396 0.55849 0.0
H576 H 0.98234 0.99239 0.51293 0.0
C577 C 0.04174 0.03909 0.49862 0.0
H578 H 1.01319 0.99502 0.60799 0.0
C579 C 0.0244 0.03726 0.44368 0.0
C580 C 1.00278 1.02051 0.44807 0.0
H581 H 0.05837 0.05208 0.49353 0.0
H582 H 0.02759 0.04941 0.39856 0.0
C583 C 0.99899 1.00534 0.50787 0.0
C584 C 0.54156 0.52824 0.96382 0.0
C585 C 0.52027 0.5152 0.9338 0.0
H586 H 0.55715 0.54633 0.05459 0.0
C587 C 0.49805 0.50984 0.974 0.0
H588 H 0.5591 0.53198 0.93409 0.0
C589 C 0.49725 0.5172 0.04344 0.0
C590 C 0.51851 0.53031 0.07338 0.0
H591 H 0.48166 0.49912 0.95259 0.0
H592 H 0.47969 0.51349 0.07315 0.0
C593 C 0.54076 0.53559 0.03323 0.0
C594 C 0.02475 0.5089 0.56051 0.0
C595 C 1.00319 0.52568 0.55625 0.0
H596 H 0.05893 0.49437 0.51085 0.0
C597 C 0.99969 0.54119 0.49697 0.0
H598 H 0.02772 0.4965 0.60524 0.0
C599 C 1.01728 0.53968 0.44237 0.0
C600 C 0.0388 0.52284 0.44656 0.0
H601 H 0.9831 0.5542 0.49202 0.0
H602 H 1.01429 0.55206 0.39762 0.0
C603 C 0.04235 0.50739 0.50593 0.0
C604 C 0.99695 1.00979 0.01373 0.0
C605 C 1.01813 1.01505 0.05773 0.0
H606 H 0.98118 1.01346 0.91172 0.0
C607 C 0.04031 0.02774 0.0314 0.0
H608 H 0.97992 0.99934 0.03223 0.0
C609 C 0.04138 0.0349 0.96199 0.0
C610 C 1.02011 0.02984 0.91816 0.0
H611 H 0.05708 0.03141 0.06412 0.0
H612 H 0.05836 0.04547 0.94355 0.0
C613 C 0.99802 1.01697 0.94433 0.0
C614 C 0.52449 1.00853 0.43962 0.0
C615 C 0.5029 0.02528 0.44424 0.0
H616 H 0.55866 0.99402 0.48894 0.0
C617 C 0.49932 0.04071 0.5039 0.0
H618 H 0.52753 0.99619 0.39461 0.0
C619 C 0.51688 0.03918 0.55846 0.0
C620 C 0.53845 1.0224 0.55388 0.0
H621 H 0.4827 0.05369 0.50913 0.0
H622 H 0.51384 0.05152 0.60348 0.0
C623 C 0.54205 1.007 0.49417 0.0
C624 C 0.56462 0.26342 0.03097 0.0
C625 C 0.54101 0.25312 0.05616 0.0
H626 H 0.58342 0.28992 0.96085 0.0
C627 C 0.51746 0.26296 0.02912 0.0
H628 H 0.58309 0.25626 0.05056 0.0
C629 C 0.51765 0.28289 0.9786 0.0
C630 C 0.54139 0.29283 0.95285 0.0
H631 H 0.49895 0.25558 0.04789 0.0
H632 H 0.49928 0.29017 0.95877 0.0
C633 C 0.56481 0.28268 0.97943 0.0
C634 C 0.28274 0.52275 0.51564 0.0
C635 C 0.29142 0.54597 0.548 0.0
H636 H 0.25638 0.50536 0.44149 0.0
C637 C 0.27985 0.56983 0.52861 0.0
H638 H 0.29106 0.50402 0.52989 0.0
C639 C 0.26046 0.57064 0.4777 0.0
C640 C 0.25149 0.54753 0.4457 0.0
H641 H 0.28607 0.58809 0.55227 0.0
H642 H 0.25222 0.58948 0.46393 0.0
C643 C 0.26273 0.52349 0.46552 0.0
C644 C 0.97705 0.28267 0.0286 0.0
C645 C 1.00056 0.2935 0.05305 0.0
H646 H 0.9585 0.25566 0.95897 0.0
C647 C 0.02418 0.284 0.02533 0.0
H648 H 0.95852 0.28952 0.04872 0.0
C649 C 0.02418 0.26393 0.9748 0.0
C650 C 1.00054 0.2535 0.9497 0.0
H651 H 0.04262 0.29175 0.04353 0.0
H652 H 0.0426 0.25694 0.9544 0.0
C653 C 0.97704 0.26327 0.97705 0.0
C654 C 0.26019 0.97478 0.52173 0.0
C655 C 0.25037 0.99839 0.5491 0.0
H656 H 0.2863 0.95613 0.45066 0.0
C657 C 0.26063 1.02218 0.52388 0.0
H658 H 0.25275 0.95608 0.53957 0.0
C659 C 0.28043 1.0222 0.47297 0.0
C660 C 0.29 0.99843 0.44543 0.0
H661 H 0.25369 0.04071 0.54426 0.0
H662 H 0.28793 0.04076 0.45448 0.0
C663 C 0.27942 0.97481 0.47034 0.0
C664 C 0.52383 0.76427 0.02084 0.0
C665 C 0.50012 0.75337 0.04384 0.0
H666 H 0.54252 0.79243 0.95392 0.0
C667 C 0.47677 0.76254 0.01452 0.0
H668 H 0.54213 0.75771 0.04275 0.0
C669 C 0.47701 0.78189 0.9632 0.0
C670 C 0.50056 0.79324 0.9409 0.0
H671 H 0.45818 0.75453 0.03093 0.0
H672 H 0.45859 0.7883 0.94163 0.0
C673 C 0.52403 0.78429 0.97048 0.0
C674 C 0.78061 0.47649 0.52382 0.0
C675 C 0.78983 0.49973 0.55466 0.0
H676 H 0.75482 0.45875 0.45023 0.0
C677 C 0.77873 0.52373 0.53386 0.0
H678 H 0.78872 0.45768 0.53837 0.0
C679 C 0.75866 0.5243 0.48382 0.0
C680 C 0.74979 0.50094 0.45252 0.0
H681 H 0.78524 0.54195 0.55703 0.0
H682 H 0.75046 0.54299 0.46875 0.0
C683 C 0.76118 0.47712 0.47303 0.0
C684 C 1.01718 0.7834 0.02539 0.0
C685 C 0.04074 0.79327 0.05248 0.0
H686 H 0.99891 0.75611 0.9549 0.0
C687 C 0.06433 0.78289 0.02723 0.0
H688 H 0.99869 0.79081 0.0442 0.0
C689 C 0.06446 0.76354 0.97554 0.0
C690 C 0.04101 0.75337 0.94891 0.0
H691 H 0.08281 0.79006 0.04685 0.0
H692 H 0.08304 0.75626 0.95687 0.0
C693 C 1.0173 0.76338 0.97476 0.0
C694 C 0.77984 0.0721 0.47176 0.0
C695 C 0.79034 0.04844 0.44667 0.0
H696 H 0.75328 0.09093 0.5414 0.0
C697 C 0.78079 0.02472 0.47421 0.0
H698 H 0.78673 0.09074 0.45206 0.0
C699 C 0.76106 0.02481 0.52529 0.0
C700 C 0.75088 0.04864 0.55071 0.0
H701 H 0.78825 1.00613 0.45559 0.0
H702 H 0.75412 1.00631 0.54562 0.0
C703 C 0.76069 0.07221 0.52338 0.0
C704 C 0.44667 0.10279 0.17164 0.0
C705 C 0.46206 0.11602 0.2211 0.0
H706 H 0.41895 0.07202 0.15237 0.0
C707 C 0.45546 0.11285 0.29124 0.0
H708 H 0.45173 0.10405 0.1173 0.0
C709 C 0.43647 0.09435 0.31146 0.0
C710 C 0.4236 0.07854 0.26211 0.0
H711 H 0.46741 0.12194 0.33085 0.0
H712 H 0.43454 0.08987 0.36599 0.0
C713 C 0.4277 0.08432 0.19184 0.0
C714 C 0.44944 0.44497 0.8195 0.0
C715 C 0.46578 0.43072 0.77419 0.0
H716 H 0.42155 0.47618 0.83068 0.0
C717 C 0.46111 0.433 0.7028 0.0
H718 H 0.45307 0.44443 0.87469 0.0
C719 C 0.44309 0.45149 0.67746 0.0
C720 C 0.42905 0.46802 0.72279 0.0
H721 H 0.47387 0.42316 0.66631 0.0
H722 H 0.44261 0.45515 0.62228 0.0
C723 C 0.43123 0.46328 0.79416 0.0
C724 C 0.11342 0.46273 0.19205 0.0
C725 C 0.11742 0.46854 0.26242 0.0
H726 H 0.08954 0.44298 0.11706 0.0
C727 C 0.10439 0.45281 0.31147 0.0
H728 H 0.1223 0.47499 0.15282 0.0
C729 C 0.08542 0.4343 0.29086 0.0
C730 C 0.07898 0.43106 0.22062 0.0
H731 H 0.10623 0.45732 0.36606 0.0
H732 H 0.07339 0.42526 0.33028 0.0
C733 C 0.09447 0.44427 0.17147 0.0
C734 C 0.11234 0.08433 0.80812 0.0
C735 C 0.11692 0.07826 0.73812 0.0
H736 H 0.08806 0.10457 0.88135 0.0
C737 C 0.10444 0.0939 0.688 0.0
H738 H 0.12077 0.07215 0.84812 0.0
C739 C 0.08543 0.11259 0.70715 0.0
C740 C 0.07846 0.11618 0.77698 0.0
H741 H 0.10669 0.08918 0.63363 0.0
H742 H 0.07379 0.12154 0.66688 0.0
C743 C 0.09343 0.10304 0.82725 0.0
C744 C 0.60465 0.95281 0.68605 0.0
C745 C 0.61744 0.96855 0.73567 0.0
H746 H 0.57375 0.92523 0.66607 0.0
C747 C 0.6132 0.9627 0.80584 0.0
H748 H 0.60668 0.95735 0.63158 0.0
C749 C 0.59421 0.9442 0.82569 0.0
C750 C 0.57893 0.93099 0.77595 0.0
H751 H 0.6219 0.97497 0.84549 0.0
H752 H 0.58908 0.94287 0.87996 0.0
C753 C 0.58563 0.93427 0.70591 0.0
C754 C 0.59041 0.60079 0.17921 0.0
C755 C 0.5743 0.61472 0.22571 0.0
H756 H 0.61828 0.56969 0.16559 0.0
C757 C 0.57918 0.61179 0.29685 0.0
H758 H 0.58657 0.60176 0.12416 0.0
C759 C 0.59734 0.59314 0.32071 0.0
C760 C 0.61129 0.57705 0.27413 0.0
H761 H 0.56655 0.62132 0.33421 0.0
H762 H 0.59805 0.58904 0.37565 0.0
C763 C 0.60872 0.58229 0.20307 0.0
C764 C 0.95574 0.61323 0.70932 0.0
C765 C 0.96248 0.61645 0.77937 0.0
H766 H 0.93464 0.59023 0.63466 0.0
C767 C 0.94719 0.60322 0.82894 0.0
H768 H 0.96762 0.62228 0.66959 0.0
C769 C 0.92817 0.58474 0.80886 0.0
C770 C 0.92388 0.57895 0.73859 0.0
H771 H 0.95234 0.6045 0.8832 0.0
H772 H 0.91948 0.57246 0.84833 0.0
C773 C 0.93668 0.59473 0.68922 0.0
C774 C 0.93645 0.9517 0.3105 0.0
C775 C 0.92333 0.96772 0.26238 0.0
H776 H 0.96741 0.924 0.32745 0.0
C777 C 0.92698 0.96218 0.19173 0.0
H778 H 0.93486 0.95598 0.36529 0.0
C779 C 0.94579 0.94379 0.16995 0.0
C780 C 0.96145 0.93035 0.21819 0.0
H781 H 0.918 0.97464 0.15317 0.0
H782 H 0.9505 0.94273 0.11535 0.0
C783 C 0.95526 0.93323 0.28871 0.0
C784 C 0.60187 0.11878 0.82975 0.0
C785 C 0.6198 0.09808 0.83826 0.0
H786 H 0.57504 0.14504 0.87953 0.0
C787 C 0.62961 0.09297 0.90447 0.0
H788 H 0.59404 0.12312 0.77899 0.0
C789 C 0.61879 0.10579 0.9621 0.0
C790 C 0.59805 0.12368 0.9539 0.0
H791 H 0.6432 0.077 0.91253 0.0
H792 H 0.62428 0.09927 0.01336 0.0
C793 C 0.59109 0.13153 0.88719 0.0
C794 C 0.43793 0.62198 0.44835 0.0
C795 C 0.4207 0.60058 0.44058 0.0
H796 H 0.46582 0.6472 0.39847 0.0
C797 C 0.41345 0.59273 0.37396 0.0
H798 H 0.44402 0.62813 0.49956 0.0
C799 C 0.426 0.6035 0.3164 0.0
C800 C 0.44591 0.62236 0.3246 0.0
H801 H 0.40048 0.57614 0.36667 0.0
H802 H 0.42199 0.59517 0.26586 0.0
C803 C 0.45048 0.63286 0.39058 0.0
C804 C 0.95039 0.41573 0.88583 0.0
C805 C 0.94328 0.42338 0.95276 0.0
H806 H 0.94759 0.42437 0.7779 0.0
C807 C 0.92247 0.44119 0.96139 0.0
H808 H 0.9665 0.4023 0.87786 0.0
C809 C 0.91169 0.4541 0.9041 0.0
C810 C 0.92162 0.44918 0.83777 0.0
H811 H 0.91688 0.44757 0.01283 0.0
H812 H 0.89803 0.46999 0.91259 0.0
C813 C 0.93966 0.42857 0.82874 0.0
C814 C 0.09012 0.91496 0.38865 0.0
C815 C 0.08852 0.93099 0.32988 0.0
H816 H 0.10252 0.91227 0.49466 0.0
C817 C 0.1028 0.95468 0.32914 0.0
H818 H 0.07962 0.89653 0.39067 0.0
C819 C 0.11575 0.96362 0.3882 0.0
C820 C 0.11477 0.94908 0.44933 0.0
H821 H 0.10255 0.96728 0.2841 0.0
H822 H 0.12446 0.98301 0.38782 0.0
C823 C 0.10326 0.92396 0.44799 0.0
C824 C 0.58945 0.41528 0.12357 0.0
C825 C 0.59745 0.42241 0.05708 0.0
H826 H 0.5917 0.42405 0.23164 0.0
C827 C 0.61888 0.43955 0.0496 0.0
H828 H 0.57286 0.40236 0.13061 0.0
C829 C 0.62965 0.45223 0.10749 0.0
C830 C 0.619 0.44784 0.17325 0.0
H831 H 0.62516 0.44552 0.99848 0.0
H832 H 0.64403 0.46753 0.09979 0.0
C833 C 0.60012 0.42794 0.18124 0.0
C834 C 0.1189 0.58601 0.61002 0.0
C835 C 0.11712 0.59981 0.54787 0.0
H836 H 0.10611 0.58294 0.71467 0.0
C837 C 0.10501 0.62465 0.54797 0.0
H838 H 0.12815 0.5669 0.61144 0.0
C839 C 0.0917 0.63376 0.607 0.0
C840 C 0.09069 0.61819 0.66667 0.0
H841 H 0.10372 0.63582 0.50052 0.0
H842 H 0.0805 0.65173 0.60393 0.0
C843 C 0.10588 0.59511 0.66882 0.0
C844 C 0.94208 0.11687 0.1708 0.0
C845 C 0.92321 0.09695 0.16289 0.0
H846 H 0.96906 0.14261 0.11999 0.0
C847 C 0.91232 0.09262 0.09739 0.0
H848 H 0.9507 0.12067 0.22103 0.0
C849 C 0.9228 0.10543 0.0395 0.0
C850 C 0.94423 0.12261 0.04673 0.0
H851 H 0.89795 0.07728 0.08979 0.0
H852 H 0.91632 0.09953 0.98843 0.0
C853 C 0.95247 0.12966 0.11314 0.0
C854 C 0.42232 0.96074 0.60823 0.0
C855 C 0.42446 0.94717 0.54558 0.0
H856 H 0.43483 0.96365 0.71315 0.0
C857 C 0.43687 0.92248 0.54488 0.0
H858 H 0.41284 0.97973 0.61024 0.0
C859 C 0.45012 0.91335 0.60374 0.0
C860 C 0.45079 0.92876 0.66399 0.0
H861 H 0.43847 0.91152 0.49698 0.0
H862 H 0.46158 0.89555 0.60012 0.0
C863 C 0.4353 0.95162 0.66684 0.0
C864 C 0.45084 0.91581 0.11055 0.0
C865 C 0.44343 0.92335 0.04393 0.0
H866 H 0.44831 0.92447 0.21868 0.0
C867 C 0.42246 0.94101 0.03611 0.0
H868 H 0.46707 0.9025 0.11789 0.0
C869 C 0.41176 0.95385 0.09387 0.0
C870 C 0.42195 0.94904 0.15985 0.0
H871 H 0.41664 0.9473 0.98491 0.0
H872 H 0.39792 0.9696 0.08598 0.0
C873 C 0.4402 0.9286 0.16811 0.0
C874 C 0.61238 0.44683 0.68291 0.0
C875 C 0.59403 0.42634 0.6763 0.0
H876 H 0.63683 0.47453 0.63034 0.0
C877 C 0.59126 0.41387 0.61197 0.0
H878 H 0.61511 0.45663 0.73221 0.0
C879 C 0.60397 0.42412 0.5536 0.0
C880 C 0.61962 0.44679 0.55917 0.0
H881 H 0.57724 0.39815 0.60532 0.0
H882 H 0.59921 0.4162 0.50309 0.0
C883 C 0.62511 0.45693 0.62483 0.0
C884 C 0.11903 0.60554 0.03766 0.0
C885 C 0.09826 0.62342 0.04604 0.0
H886 H 0.14342 0.57682 0.08691 0.0
C887 C 0.0912 0.63128 0.11282 0.0
H888 H 0.1246 0.59903 0.98632 0.0
C889 C 0.10193 0.61857 0.17012 0.0
C890 C 0.11991 0.5979 0.1614 0.0
H891 H 0.07514 0.64479 0.12058 0.0
H892 H 0.09404 0.62294 0.22091 0.0
C893 C 0.1298 0.59277 0.09515 0.0
C894 C 0.93341 0.09803 0.66843 0.0
C895 C 0.94988 0.12018 0.66454 0.0
H896 H 0.9105 0.06985 0.61278 0.0
C897 C 0.95032 0.13472 0.60304 0.0
H898 H 0.93212 0.08672 0.71569 0.0
C899 C 0.93724 0.12518 0.54415 0.0
C900 C 0.92404 0.1009 0.54606 0.0
H901 H 0.96259 0.15195 0.59858 0.0
H902 H 0.93973 0.13534 0.49543 0.0
C903 C 0.92067 0.08846 0.60975 0.0
C904 C 0.45626 0.62816 0.87221 0.0
C905 C 0.44566 0.62325 0.93757 0.0
H906 H 0.45637 0.6175 0.7652 0.0
C907 C 0.42276 0.60803 0.94264 0.0
H908 H 0.47402 0.63954 0.86712 0.0
C909 C 0.41267 0.5951 0.88428 0.0
C910 C 0.42551 0.59723 0.82045 0.0
H911 H 0.4145 0.60372 0.99296 0.0
H912 H 0.39668 0.5814 0.89069 0.0
C913 C 0.44629 0.61521 0.81413 0.0
C914 C 0.93596 0.45299 0.33014 0.0
C915 C 0.95103 0.42983 0.33228 0.0
H916 H 0.91384 0.48133 0.38749 0.0
C917 C 0.95004 0.41434 0.39212 0.0
H918 H 0.93572 0.46511 0.28419 0.0
C919 C 0.93685 0.42357 0.4512 0.0
C920 C 0.9248 0.44844 0.4512 0.0
H921 H 0.96117 0.39633 0.39523 0.0
H922 H 0.93819 0.41247 0.49876 0.0
C923 C 0.92303 0.4622 0.38897 0.0
C924 C 0.10322 0.92703 0.82799 0.0
C925 C 0.12059 0.94819 0.83757 0.0
H926 H 0.07651 0.90029 0.87615 0.0
C927 C 0.12976 0.95362 0.90435 0.0
H928 H 0.09585 0.92247 0.7768 0.0
C929 C 0.11877 0.94063 0.96131 0.0
C930 C 0.09845 0.92228 0.9519 0.0
H931 H 0.14286 0.96997 0.91326 0.0
H932 H 0.12367 0.9474 0.01288 0.0
C933 C 0.09224 0.91413 0.88478 0.0
C934 C 0.59114 0.13304 0.39243 0.0
C935 C 0.59 0.11727 0.33287 0.0
H936 H 0.60324 0.13539 0.49876 0.0
C937 C 0.60503 0.0941 0.33072 0.0
H938 H 0.58006 0.1511 0.39547 0.0
C939 C 0.61809 0.08515 0.38939 0.0
C940 C 0.61648 0.0992 0.45142 0.0
H941 H 0.60515 0.08177 0.28494 0.0
H942 H 0.62726 0.066 0.388 0.0
C943 C 0.60445 0.12406 0.45135 0.0
loop_
_geom_bond_atom_site_label_1
_geom_bond_atom_site_label_2
_geom_bond_distance
_geom_bond_site_symmetry_2
_ccdc_geom_bond_type
Co0 O3 1.970 . S
Co0 N17 1.989 1_554 S
Co0 O25 1.967 . S
Co0 O32 1.920 . S
Co1 O4 1.966 . S
Co1 N10 2.022 . S
Co1 N18 1.993 . S
Co1 O26 1.941 . S
C2 O3 1.258 . S
C2 O4 1.263 . S
O3 Co0 1.970 . S
O3 C2 1.258 . S
O4 Co1 1.966 . S
O4 C2 1.263 . S
C5 O6 1.235 1_554 S
C5 O32 1.289 . S
O6 C5 1.235 1_556 S
C7 C9 1.400 . S
C7 N10 1.351 . S
C7 C12 1.501 . S
C8 C9 1.387 . S
C8 N11 1.341 . S
C9 C7 1.400 . S
C9 C8 1.387 . S
N10 Co1 2.022 . S
N10 C7 1.351 . S
N10 N11 1.365 . S
N11 C8 1.341 . S
N11 N10 1.365 . S
N11 H31 0.862 . S
C12 C7 1.501 . S
C12 H13 0.961 . S
C12 H14 0.961 . S
C12 H15 0.960 . S
H13 C12 0.961 . S
H14 C12 0.961 . S
H15 C12 0.960 . S
C16 N17 1.342 . S
C16 C20 1.401 . S
C16 C21 1.499 . S
N17 Co0 1.989 1_556 S
N17 C16 1.342 . S
N17 N18 1.388 1_556 S
N18 Co1 1.993 . S
N18 N17 1.388 1_554 S
N18 C19 1.346 1_554 S
C19 N18 1.346 1_556 S
C19 C20 1.396 . S
C19 C29 1.510 . S
C20 C16 1.401 . S
C20 C19 1.396 . S
C21 C16 1.499 . S
C21 H22 0.959 . S
C21 H23 0.960 . S
C21 H24 0.961 . S
H22 C21 0.959 . S
H23 C21 0.960 . S
H24 C21 0.961 . S
O25 Co0 1.967 . S
O25 C33 1.258 . S
O26 Co1 1.941 . S
O26 C33 1.266 . S
H27 C29 0.959 . S
H28 C29 0.961 . S
C29 C19 1.510 . S
C29 H27 0.959 . S
C29 H28 0.961 . S
C29 H30 0.960 . S
H30 C29 0.960 . S
H31 N11 0.862 . S
O32 Co0 1.920 . S
O32 C5 1.289 . S
C33 O25 1.258 . S
C33 O26 1.266 . S
Co34 O37 1.970 . S
Co34 N51 1.989 . S
Co34 O59 1.967 . S
Co34 O66 1.920 . S
Co35 O38 1.966 . S
Co35 N44 2.022 . S
Co35 N52 1.993 . S
Co35 O60 1.941 . S
C36 O37 1.258 . S
C36 O38 1.263 . S
O37 Co34 1.970 . S
O37 C36 1.258 . S
O38 Co35 1.966 . S
O38 C36 1.263 . S
C39 O40 1.235 . S
C39 O66 1.289 . S
O40 C39 1.235 . S
C41 C43 1.400 . S
C41 N44 1.351 . S
C41 C46 1.501 . S
C42 C43 1.387 . S
C42 N45 1.341 . S
C43 C41 1.400 . S
C43 C42 1.387 . S
N44 Co35 2.022 . S
N44 C41 1.351 . S
N44 N45 1.365 . S
N45 C42 1.341 . S
N45 N44 1.365 . S
N45 H65 0.862 . S
C46 C41 1.501 . S
C46 H47 0.961 . S
C46 H48 0.961 . S
C46 H49 0.960 . S
H47 C46 0.961 . S
H48 C46 0.961 . S
H49 C46 0.960 . S
C50 N51 1.342 . S
C50 C54 1.401 . S
C50 C55 1.499 . S
N51 Co34 1.989 . S
N51 C50 1.342 . S
N51 N52 1.388 . S
N52 Co35 1.993 . S
N52 N51 1.388 . S
N52 C53 1.346 . S
C53 N52 1.346 . S
C53 C54 1.396 . S
C53 C63 1.510 . S
C54 C50 1.401 . S
C54 C53 1.396 . S
C55 C50 1.499 . S
C55 H56 0.959 . S
C55 H57 0.960 . S
C55 H58 0.961 . S
H56 C55 0.959 . S
H57 C55 0.960 . S
H58 C55 0.961 . S
O59 Co34 1.967 . S
O59 C67 1.258 . S
O60 Co35 1.941 . S
O60 C67 1.266 . S
H61 C63 0.959 . S
H62 C63 0.961 . S
C63 C53 1.510 . S
C63 H61 0.959 . S
C63 H62 0.961 . S
C63 H64 0.960 . S
H64 C63 0.960 . S
H65 N45 0.862 . S
O66 Co34 1.920 . S
O66 C39 1.289 . S
C67 O59 1.258 . S
C67 O60 1.266 . S
Co68 O71 1.970 1_655 S
Co68 N85 1.989 1_554 S
Co68 O93 1.967 . S
Co68 O100 1.920 . S
Co69 O72 1.966 1_655 S
Co69 N78 2.022 . S
Co69 N86 1.993 . S
Co69 O94 1.941 . S
C70 O71 1.258 . S
C70 O72 1.263 . S
O71 Co68 1.970 1_455 S
O71 C70 1.258 . S
O72 Co69 1.966 1_455 S
O72 C70 1.263 . S
C73 O74 1.235 1_654 S
C73 O100 1.289 . S
O74 C73 1.235 1_456 S
C75 C77 1.400 . S
C75 N78 1.351 . S
C75 C80 1.501 1_655 S
C76 C77 1.387 . S
C76 N79 1.341 . S
C77 C75 1.400 . S
C77 C76 1.387 . S
N78 Co69 2.022 . S
N78 C75 1.351 . S
N78 N79 1.365 . S
N79 C76 1.341 . S
N79 N78 1.365 . S
N79 H99 0.862 . S
C80 C75 1.501 1_455 S
C80 H81 0.961 . S
C80 H82 0.961 . S
C80 H83 0.960 . S
H81 C80 0.961 . S
H82 C80 0.961 . S
H83 C80 0.960 . S
C84 N85 1.342 . S
C84 C88 1.401 . S
C84 C89 1.499 . S
N85 Co68 1.989 1_556 S
N85 C84 1.342 . S
N85 N86 1.388 1_556 S
N86 Co69 1.993 . S
N86 N85 1.388 1_554 S
N86 C87 1.346 1_554 S
C87 N86 1.346 1_556 S
C87 C88 1.396 . S
C87 C97 1.510 . S
C88 C84 1.401 . S
C88 C87 1.396 . S
C89 C84 1.499 . S
C89 H90 0.959 . S
C89 H91 0.960 . S
C89 H92 0.961 . S
H90 C89 0.959 . S
H91 C89 0.960 . S
H92 C89 0.961 . S
O93 Co68 1.967 . S
O93 C101 1.258 . S
O94 Co69 1.941 . S
O94 C101 1.266 . S
H95 C97 0.959 . S
H96 C97 0.961 . S
C97 C87 1.510 . S
C97 H95 0.959 . S
C97 H96 0.961 . S
C97 H98 0.960 . S
H98 C97 0.960 . S
H99 N79 0.862 . S
O100 Co68 1.920 . S
O100 C73 1.289 . S
C101 O93 1.258 . S
C101 O94 1.266 . S
Co102 O105 1.970 1_565 S
Co102 N119 1.989 . S
Co102 O127 1.967 . S
Co102 O134 1.920 . S
Co103 O106 1.966 1_565 S
Co103 N112 2.022 . S
Co103 N120 1.993 . S
Co103 O128 1.941 . S
C104 O105 1.258 . S
C104 O106 1.263 . S
O105 Co102 1.970 1_545 S
O105 C104 1.258 . S
O106 Co103 1.966 1_545 S
O106 C104 1.263 . S
C107 O108 1.235 1_565 S
C107 O134 1.289 . S
O108 C107 1.235 1_545 S
C109 C111 1.400 . S
C109 N112 1.351 . S
C109 C114 1.501 1_565 S
C110 C111 1.387 . S
C110 N113 1.341 . S
C111 C109 1.400 . S
C111 C110 1.387 . S
N112 Co103 2.022 . S
N112 C109 1.351 . S
N112 N113 1.365 . S
N113 C110 1.341 . S
N113 N112 1.365 . S
N113 H133 0.862 . S
C114 C109 1.501 1_545 S
C114 H115 0.961 . S
C114 H116 0.961 . S
C114 H117 0.960 . S
H115 C114 0.961 . S
H116 C114 0.961 . S
H117 C114 0.960 . S
C118 N119 1.342 . S
C118 C122 1.401 . S
C118 C123 1.499 . S
N119 Co102 1.989 . S
N119 C118 1.342 . S
N119 N120 1.388 . S
N120 Co103 1.993 . S
N120 N119 1.388 . S
N120 C121 1.346 . S
C121 N120 1.346 . S
C121 C122 1.396 . S
C121 C131 1.510 . S
C122 C118 1.401 . S
C122 C121 1.396 . S
C123 C118 1.499 . S
C123 H124 0.959 . S
C123 H125 0.960 . S
C123 H126 0.961 . S
H124 C123 0.959 . S
H125 C123 0.960 . S
H126 C123 0.961 . S
O127 Co102 1.967 . S
O127 C135 1.258 . S
O128 Co103 1.941 . S
O128 C135 1.266 . S
H129 C131 0.959 . S
H130 C131 0.961 . S
C131 C121 1.510 . S
C131 H129 0.959 . S
C131 H130 0.961 . S
C131 H132 0.960 . S
H132 C131 0.960 . S
H133 N113 0.862 . S
O134 Co102 1.920 . S
O134 C107 1.289 . S
C135 O127 1.258 . S
C135 O128 1.266 . S
Co136 O139 1.970 . S
Co136 N153 1.989 1_556 S
Co136 O161 1.967 . S
Co136 O168 1.920 . S
Co137 O140 1.966 . S
Co137 N146 2.022 . S
Co137 N154 1.993 . S
Co137 O162 1.941 . S
C138 O139 1.258 . S
C138 O140 1.263 . S
O139 Co136 1.970 . S
O139 C138 1.258 . S
O140 Co137 1.966 . S
O140 C138 1.263 . S
C141 O142 1.235 1_556 S
C141 O168 1.289 . S
O142 C141 1.235 1_554 S
C143 C145 1.400 . S
C143 N146 1.351 . S
C143 C148 1.501 . S
C144 C145 1.387 . S
C144 N147 1.341 . S
C145 C143 1.400 . S
C145 C144 1.387 . S
N146 Co137 2.022 . S
N146 C143 1.351 . S
N146 N147 1.365 . S
N147 C144 1.341 . S
N147 N146 1.365 . S
N147 H167 0.862 . S
C148 C143 1.501 . S
C148 H149 0.961 . S
C148 H150 0.961 . S
C148 H151 0.960 . S
H149 C148 0.961 . S
H150 C148 0.961 . S
H151 C148 0.960 . S
C152 N153 1.342 . S
C152 C156 1.401 . S
C152 C157 1.499 . S
N153 Co136 1.989 1_554 S
N153 C152 1.342 . S
N153 N154 1.388 1_554 S
N154 Co137 1.993 . S
N154 N153 1.388 1_556 S
N154 C155 1.346 1_556 S
C155 N154 1.346 1_554 S
C155 C156 1.396 . S
C155 C165 1.510 . S
C156 C152 1.401 . S
C156 C155 1.396 . S
C157 C152 1.499 . S
C157 H158 0.959 . S
C157 H159 0.960 . S
C157 H160 0.961 . S
H158 C157 0.959 . S
H159 C157 0.960 . S
H160 C157 0.961 . S
O161 Co136 1.967 . S
O161 C169 1.258 . S
O162 Co137 1.941 . S
O162 C169 1.266 . S
H163 C165 0.959 . S
H164 C165 0.961 . S
C165 C155 1.510 . S
C165 H163 0.959 . S
C165 H164 0.961 . S
C165 H166 0.960 . S
H166 C165 0.960 . S
H167 N147 0.862 . S
O168 Co136 1.920 . S
O168 C141 1.289 . S
C169 O161 1.258 . S
C169 O162 1.266 . S
Co170 O173 1.970 . S
Co170 N187 1.989 . S
Co170 O195 1.967 . S
Co170 O202 1.920 . S
Co171 O174 1.966 . S
Co171 N180 2.022 . S
Co171 N188 1.993 . S
Co171 O196 1.941 . S
C172 O173 1.258 . S
C172 O174 1.263 . S
O173 Co170 1.970 . S
O173 C172 1.258 . S
O174 Co171 1.966 . S
O174 C172 1.263 . S
C175 O176 1.235 . S
C175 O202 1.289 . S
O176 C175 1.235 . S
C177 C179 1.400 . S
C177 N180 1.351 . S
C177 C182 1.501 . S
C178 C179 1.387 . S
C178 N181 1.341 . S
C179 C177 1.400 . S
C179 C178 1.387 . S
N180 Co171 2.022 . S
N180 C177 1.351 . S
N180 N181 1.365 . S
N181 C178 1.341 . S
N181 N180 1.365 . S
N181 H201 0.862 . S
C182 C177 1.501 . S
C182 H183 0.961 . S
C182 H184 0.961 . S
C182 H185 0.960 . S
H183 C182 0.961 . S
H184 C182 0.961 . S
H185 C182 0.960 . S
C186 N187 1.342 . S
C186 C190 1.401 . S
C186 C191 1.499 . S
N187 Co170 1.989 . S
N187 C186 1.342 . S
N187 N188 1.388 . S
N188 Co171 1.993 . S
N188 N187 1.388 . S
N188 C189 1.346 . S
C189 N188 1.346 . S
C189 C190 1.396 . S
C189 C199 1.510 . S
C190 C186 1.401 . S
C190 C189 1.396 . S
C191 C186 1.499 . S
C191 H192 0.959 . S
C191 H193 0.960 . S
C191 H194 0.961 . S
H192 C191 0.959 . S
H193 C191 0.960 . S
H194 C191 0.961 . S
O195 Co170 1.967 . S
O195 C203 1.258 . S
O196 Co171 1.941 . S
O196 C203 1.266 . S
H197 C199 0.959 . S
H198 C199 0.961 . S
C199 C189 1.510 . S
C199 H197 0.959 . S
C199 H198 0.961 . S
C199 H200 0.960 . S
H200 C199 0.960 . S
H201 N181 0.862 . S
O202 Co170 1.920 . S
O202 C175 1.289 . S
C203 O195 1.258 . S
C203 O196 1.266 . S
Co204 O207 1.970 1_655 S
Co204 N221 1.989 1_556 S
Co204 O229 1.967 . S
Co204 O236 1.920 . S
Co205 O208 1.966 1_655 S
Co205 N214 2.022 . S
Co205 N222 1.993 . S
Co205 O230 1.941 . S
C206 O207 1.258 . S
C206 O208 1.263 . S
O207 Co204 1.970 1_455 S
O207 C206 1.258 . S
O208 Co205 1.966 1_455 S
O208 C206 1.263 . S
C209 O210 1.235 1_656 S
C209 O236 1.289 . S
O210 C209 1.235 1_454 S
C211 C213 1.400 . S
C211 N214 1.351 . S
C211 C216 1.501 1_655 S
C212 C213 1.387 . S
C212 N215 1.341 . S
C213 C211 1.400 . S
C213 C212 1.387 . S
N214 Co205 2.022 . S
N214 C211 1.351 . S
N214 N215 1.365 . S
N215 C212 1.341 . S
N215 N214 1.365 . S
N215 H235 0.862 . S
C216 C211 1.501 1_455 S
C216 H217 0.961 . S
C216 H218 0.961 . S
C216 H219 0.960 . S
H217 C216 0.961 . S
H218 C216 0.961 . S
H219 C216 0.960 . S
C220 N221 1.342 . S
C220 C224 1.401 . S
C220 C225 1.499 . S
N221 Co204 1.989 1_554 S
N221 C220 1.342 . S
N221 N222 1.388 1_554 S
N222 Co205 1.993 . S
N222 N221 1.388 1_556 S
N222 C223 1.346 1_556 S
C223 N222 1.346 1_554 S
C223 C224 1.396 . S
C223 C233 1.510 . S
C224 C220 1.401 . S
C224 C223 1.396 . S
C225 C220 1.499 . S
C225 H226 0.959 . S
C225 H227 0.960 . S
C225 H228 0.961 . S
H226 C225 0.959 . S
H227 C225 0.960 . S
H228 C225 0.961 . S
O229 Co204 1.967 . S
O229 C237 1.258 . S
O230 Co205 1.941 . S
O230 C237 1.266 . S
H231 C233 0.959 . S
H232 C233 0.961 . S
C233 C223 1.510 . S
C233 H231 0.959 . S
C233 H232 0.961 . S
C233 H234 0.960 . S
H234 C233 0.960 . S
H235 N215 0.862 . S
O236 Co204 1.920 . S
O236 C209 1.289 . S
C237 O229 1.258 . S
C237 O230 1.266 . S
Co238 O241 1.970 1_565 S
Co238 N255 1.989 . S
Co238 O263 1.967 . S
Co238 O270 1.920 . S
Co239 O242 1.966 1_565 S
Co239 N248 2.022 . S
Co239 N256 1.993 . S
Co239 O264 1.941 . S
C240 O241 1.258 . S
C240 O242 1.263 . S
O241 Co238 1.970 1_545 S
O241 C240 1.258 . S
O242 Co239 1.966 1_545 S
O242 C240 1.263 . S
C243 O244 1.235 1_565 S
C243 O270 1.289 . S
O244 C243 1.235 1_545 S
C245 C247 1.400 . S
C245 N248 1.351 . S
C245 C250 1.501 1_565 S
C246 C247 1.387 . S
C246 N249 1.341 . S
C247 C245 1.400 . S
C247 C246 1.387 . S
N248 Co239 2.022 . S
N248 C245 1.351 . S
N248 N249 1.365 . S
N249 C246 1.341 . S
N249 N248 1.365 . S
N249 H269 0.862 . S
C250 C245 1.501 1_545 S
C250 H251 0.961 . S
C250 H252 0.961 . S
C250 H253 0.960 . S
H251 C250 0.961 . S
H252 C250 0.961 . S
H253 C250 0.960 . S
C254 N255 1.342 . S
C254 C258 1.401 . S
C254 C259 1.499 . S
N255 Co238 1.989 . S
N255 C254 1.342 . S
N255 N256 1.388 . S
N256 Co239 1.993 . S
N256 N255 1.388 . S
N256 C257 1.346 . S
C257 N256 1.346 . S
C257 C258 1.396 . S
C257 C267 1.510 . S
C258 C254 1.401 . S
C258 C257 1.396 . S
C259 C254 1.499 . S
C259 H260 0.959 . S
C259 H261 0.960 . S
C259 H262 0.961 . S
H260 C259 0.959 . S
H261 C259 0.960 . S
H262 C259 0.961 . S
O263 Co238 1.967 . S
O263 C271 1.258 . S
O264 Co239 1.941 . S
O264 C271 1.266 . S
H265 C267 0.959 . S
H266 C267 0.961 . S
C267 C257 1.510 . S
C267 H265 0.959 . S
C267 H266 0.961 . S
C267 H268 0.960 . S
H268 C267 0.960 . S
H269 N249 0.862 . S
O270 Co238 1.920 . S
O270 C243 1.289 . S
C271 O263 1.258 . S
C271 O264 1.266 . S
Co272 O275 1.970 . S
Co272 N289 1.989 1_556 S
Co272 O297 1.967 . S
Co272 O304 1.920 . S
Co273 O276 1.966 . S
Co273 N282 2.022 . S
Co273 N290 1.993 . S
Co273 O298 1.941 . S
C274 O275 1.258 . S
C274 O276 1.263 . S
O275 Co272 1.970 . S
O275 C274 1.258 . S
O276 Co273 1.966 . S
O276 C274 1.263 . S
C277 O278 1.235 1_556 S
C277 O304 1.289 . S
O278 C277 1.235 1_554 S
C279 C281 1.400 . S
C279 N282 1.351 . S
C279 C284 1.501 . S
C280 C281 1.387 . S
C280 N283 1.341 . S
C281 C279 1.400 . S
C281 C280 1.387 . S
N282 Co273 2.022 . S
N282 C279 1.351 . S
N282 N283 1.365 . S
N283 C280 1.341 . S
N283 N282 1.365 . S
N283 H303 0.862 . S
C284 C279 1.501 . S
C284 H285 0.961 . S
C284 H286 0.961 . S
C284 H287 0.960 . S
H285 C284 0.961 . S
H286 C284 0.961 . S
H287 C284 0.960 . S
C288 N289 1.342 . S
C288 C292 1.401 . S
C288 C293 1.499 . S
N289 Co272 1.989 1_554 S
N289 C288 1.342 . S
N289 N290 1.388 1_554 S
N290 Co273 1.993 . S
N290 N289 1.388 1_556 S
N290 C291 1.346 1_556 S
C291 N290 1.346 1_554 S
C291 C292 1.396 . S
C291 C301 1.510 . S
C292 C288 1.401 . S
C292 C291 1.396 . S
C293 C288 1.499 . S
C293 H294 0.959 . S
C293 H295 0.960 . S
C293 H296 0.961 . S
H294 C293 0.959 . S
H295 C293 0.960 . S
H296 C293 0.961 . S
O297 Co272 1.967 . S
O297 C305 1.258 . S
O298 Co273 1.941 . S
O298 C305 1.266 . S
H299 C301 0.959 . S
H300 C301 0.961 . S
C301 C291 1.510 . S
C301 H299 0.959 . S
C301 H300 0.961 . S
C301 H302 0.960 . S
H302 C301 0.960 . S
H303 N283 0.862 . S
O304 Co272 1.920 . S
O304 C277 1.289 . S
C305 O297 1.258 . S
C305 O298 1.266 . S
Co306 O309 1.970 . S
Co306 N323 1.989 . S
Co306 O331 1.967 . S
Co306 O338 1.920 . S
Co307 O310 1.966 . S
Co307 N316 2.022 . S
Co307 N324 1.993 . S
Co307 O332 1.941 . S
C308 O309 1.258 . S
C308 O310 1.263 . S
O309 Co306 1.970 . S
O309 C308 1.258 . S
O310 Co307 1.966 . S
O310 C308 1.263 . S
C311 O312 1.235 . S
C311 O338 1.289 . S
O312 C311 1.235 . S
C313 C315 1.400 . S
C313 N316 1.351 . S
C313 C318 1.501 . S
C314 C315 1.387 . S
C314 N317 1.341 . S
C315 C313 1.400 . S
C315 C314 1.387 . S
N316 Co307 2.022 . S
N316 C313 1.351 . S
N316 N317 1.365 . S
N317 C314 1.341 . S
N317 N316 1.365 . S
N317 H337 0.862 . S
C318 C313 1.501 . S
C318 H319 0.961 . S
C318 H320 0.961 . S
C318 H321 0.960 . S
H319 C318 0.961 . S
H320 C318 0.961 . S
H321 C318 0.960 . S
C322 N323 1.342 . S
C322 C326 1.401 . S
C322 C327 1.499 . S
N323 Co306 1.989 . S
N323 C322 1.342 . S
N323 N324 1.388 . S
N324 Co307 1.993 . S
N324 N323 1.388 . S
N324 C325 1.346 . S
C325 N324 1.346 . S
C325 C326 1.396 . S
C325 C335 1.510 . S
C326 C322 1.401 . S
C326 C325 1.396 . S
C327 C322 1.499 . S
C327 H328 0.959 . S
C327 H329 0.960 . S
C327 H330 0.961 . S
H328 C327 0.959 . S
H329 C327 0.960 . S
H330 C327 0.961 . S
O331 Co306 1.967 . S
O331 C339 1.258 . S
O332 Co307 1.941 . S
O332 C339 1.266 . S
H333 C335 0.959 . S
H334 C335 0.961 . S
C335 C325 1.510 . S
C335 H333 0.959 . S
C335 H334 0.961 . S
C335 H336 0.960 . S
H336 C335 0.960 . S
H337 N317 0.862 . S
O338 Co306 1.920 . S
O338 C311 1.289 . S
C339 O331 1.258 . S
C339 O332 1.266 . S
Co340 O343 1.970 1_455 S
Co340 N357 1.989 1_556 S
Co340 O365 1.967 . S
Co340 O372 1.920 . S
Co341 O344 1.966 1_455 S
Co341 N350 2.022 . S
Co341 N358 1.993 . S
Co341 O366 1.941 . S
C342 O343 1.258 . S
C342 O344 1.263 . S
O343 Co340 1.970 1_655 S
O343 C342 1.258 . S
O344 Co341 1.966 1_655 S
O344 C342 1.263 . S
C345 O346 1.235 1_456 S
C345 O372 1.289 . S
O346 C345 1.235 1_654 S
C347 C349 1.400 . S
C347 N350 1.351 . S
C347 C352 1.501 1_455 S
C348 C349 1.387 . S
C348 N351 1.341 . S
C349 C347 1.400 . S
C349 C348 1.387 . S
N350 Co341 2.022 . S
N350 C347 1.351 . S
N350 N351 1.365 . S
N351 C348 1.341 . S
N351 N350 1.365 . S
N351 H371 0.862 . S
C352 C347 1.501 1_655 S
C352 H353 0.961 . S
C352 H354 0.961 . S
C352 H355 0.960 . S
H353 C352 0.961 . S
H354 C352 0.961 . S
H355 C352 0.960 . S
C356 N357 1.342 . S
C356 C360 1.401 . S
C356 C361 1.499 . S
N357 Co340 1.989 1_554 S
N357 C356 1.342 . S
N357 N358 1.388 1_554 S
N358 Co341 1.993 . S
N358 N357 1.388 1_556 S
N358 C359 1.346 1_556 S
C359 N358 1.346 1_554 S
C359 C360 1.396 . S
C359 C369 1.510 . S
C360 C356 1.401 . S
C360 C359 1.396 . S
C361 C356 1.499 . S
C361 H362 0.959 . S
C361 H363 0.960 . S
C361 H364 0.961 . S
H362 C361 0.959 . S
H363 C361 0.960 . S
H364 C361 0.961 . S
O365 Co340 1.967 . S
O365 C373 1.258 . S
O366 Co341 1.941 . S
O366 C373 1.266 . S
H367 C369 0.959 . S
H368 C369 0.961 . S
C369 C359 1.510 . S
C369 H367 0.959 . S
C369 H368 0.961 . S
C369 H370 0.960 . S
H370 C369 0.960 . S
H371 N351 0.862 . S
O372 Co340 1.920 . S
O372 C345 1.289 . S
C373 O365 1.258 . S
C373 O366 1.266 . S
Co374 O377 1.970 1_545 S
Co374 N391 1.989 . S
Co374 O399 1.967 . S
Co374 O406 1.920 . S
Co375 O378 1.966 1_545 S
Co375 N384 2.022 . S
Co375 N392 1.993 . S
Co375 O400 1.941 . S
C376 O377 1.258 . S
C376 O378 1.263 . S
O377 Co374 1.970 1_565 S
O377 C376 1.258 . S
O378 Co375 1.966 1_565 S
O378 C376 1.263 . S
C379 O380 1.235 1_545 S
C379 O406 1.289 . S
O380 C379 1.235 1_565 S
C381 C383 1.400 . S
C381 N384 1.351 . S
C381 C386 1.501 1_545 S
C382 C383 1.387 . S
C382 N385 1.341 . S
C383 C381 1.400 . S
C383 C382 1.387 . S
N384 Co375 2.022 . S
N384 C381 1.351 . S
N384 N385 1.365 . S
N385 C382 1.341 . S
N385 N384 1.365 . S
N385 H405 0.862 . S
C386 C381 1.501 1_565 S
C386 H387 0.961 . S
C386 H388 0.961 . S
C386 H389 0.960 . S
H387 C386 0.961 . S
H388 C386 0.961 . S
H389 C386 0.960 . S
C390 N391 1.342 . S
C390 C394 1.401 . S
C390 C395 1.499 . S
N391 Co374 1.989 . S
N391 C390 1.342 . S
N391 N392 1.388 . S
N392 Co375 1.993 . S
N392 N391 1.388 . S
N392 C393 1.346 . S
C393 N392 1.346 . S
C393 C394 1.396 . S
C393 C403 1.510 . S
C394 C390 1.401 . S
C394 C393 1.396 . S
C395 C390 1.499 . S
C395 H396 0.959 . S
C395 H397 0.960 . S
C395 H398 0.961 . S
H396 C395 0.959 . S
H397 C395 0.960 . S
H398 C395 0.961 . S
O399 Co374 1.967 . S
O399 C407 1.258 . S
O400 Co375 1.941 . S
O400 C407 1.266 . S
H401 C403 0.959 . S
H402 C403 0.961 . S
C403 C393 1.510 . S
C403 H401 0.959 . S
C403 H402 0.961 . S
C403 H404 0.960 . S
H404 C403 0.960 . S
H405 N385 0.862 . S
O406 Co374 1.920 . S
O406 C379 1.289 . S
C407 O399 1.258 . S
C407 O400 1.266 . S
Co408 O411 1.970 . S
Co408 N425 1.989 1_554 S
Co408 O433 1.967 . S
Co408 O440 1.920 . S
Co409 O412 1.966 . S
Co409 N418 2.022 . S
Co409 N426 1.993 . S
Co409 O434 1.941 . S
C410 O411 1.258 . S
C410 O412 1.263 . S
O411 Co408 1.970 . S
O411 C410 1.258 . S
O412 Co409 1.966 . S
O412 C410 1.263 . S
C413 O414 1.235 1_554 S
C413 O440 1.289 . S
O414 C413 1.235 1_556 S
C415 C417 1.400 . S
C415 N418 1.351 . S
C415 C420 1.501 . S
C416 C417 1.387 . S
C416 N419 1.341 . S
C417 C415 1.400 . S
C417 C416 1.387 . S
N418 Co409 2.022 . S
N418 C415 1.351 . S
N418 N419 1.365 . S
N419 C416 1.341 . S
N419 N418 1.365 . S
N419 H439 0.862 . S
C420 C415 1.501 . S
C420 H421 0.961 . S
C420 H422 0.961 . S
C420 H423 0.960 . S
H421 C420 0.961 . S
H422 C420 0.961 . S
H423 C420 0.960 . S
C424 N425 1.342 . S
C424 C428 1.401 . S
C424 C429 1.499 . S
N425 Co408 1.989 1_556 S
N425 C424 1.342 . S
N425 N426 1.388 1_556 S
N426 Co409 1.993 . S
N426 N425 1.388 1_554 S
N426 C427 1.346 1_554 S
C427 N426 1.346 1_556 S
C427 C428 1.396 . S
C427 C437 1.510 . S
C428 C424 1.401 . S
C428 C427 1.396 . S
C429 C424 1.499 . S
C429 H430 0.959 . S
C429 H431 0.960 . S
C429 H432 0.961 . S
H430 C429 0.959 . S
H431 C429 0.960 . S
H432 C429 0.961 . S
O433 Co408 1.967 . S
O433 C441 1.258 . S
O434 Co409 1.941 . S
O434 C441 1.266 . S
H435 C437 0.959 . S
H436 C437 0.961 . S
C437 C427 1.510 . S
C437 H435 0.959 . S
C437 H436 0.961 . S
C437 H438 0.960 . S
H438 C437 0.960 . S
H439 N419 0.862 . S
O440 Co408 1.920 . S
O440 C413 1.289 . S
C441 O433 1.258 . S
C441 O434 1.266 . S
Co442 O445 1.970 . S
Co442 N459 1.989 . S
Co442 O467 1.967 . S
Co442 O474 1.920 . S
Co443 O446 1.966 . S
Co443 N452 2.022 . S
Co443 N460 1.993 . S
Co443 O468 1.941 . S
C444 O445 1.258 . S
C444 O446 1.263 . S
O445 Co442 1.970 . S
O445 C444 1.258 . S
O446 Co443 1.966 . S
O446 C444 1.263 . S
C447 O448 1.235 . S
C447 O474 1.289 . S
O448 C447 1.235 . S
C449 C451 1.400 . S
C449 N452 1.351 . S
C449 C454 1.501 . S
C450 C451 1.387 . S
C450 N453 1.341 . S
C451 C449 1.400 . S
C451 C450 1.387 . S
N452 Co443 2.022 . S
N452 C449 1.351 . S
N452 N453 1.365 . S
N453 C450 1.341 . S
N453 N452 1.365 . S
N453 H473 0.862 . S
C454 C449 1.501 . S
C454 H455 0.961 . S
C454 H456 0.961 . S
C454 H457 0.960 . S
H455 C454 0.961 . S
H456 C454 0.961 . S
H457 C454 0.960 . S
C458 N459 1.342 . S
C458 C462 1.401 . S
C458 C463 1.499 . S
N459 Co442 1.989 . S
N459 C458 1.342 . S
N459 N460 1.388 . S
N460 Co443 1.993 . S
N460 N459 1.388 . S
N460 C461 1.346 . S
C461 N460 1.346 . S
C461 C462 1.396 . S
C461 C471 1.510 . S
C462 C458 1.401 . S
C462 C461 1.396 . S
C463 C458 1.499 . S
C463 H464 0.959 . S
C463 H465 0.960 . S
C463 H466 0.961 . S
H464 C463 0.959 . S
H465 C463 0.960 . S
H466 C463 0.961 . S
O467 Co442 1.967 . S
O467 C475 1.258 . S
O468 Co443 1.941 . S
O468 C475 1.266 . S
H469 C471 0.959 . S
H470 C471 0.961 . S
C471 C461 1.510 . S
C471 H469 0.959 . S
C471 H470 0.961 . S
C471 H472 0.960 . S
H472 C471 0.960 . S
H473 N453 0.862 . S
O474 Co442 1.920 . S
O474 C447 1.289 . S
C475 O467 1.258 . S
C475 O468 1.266 . S
Co476 O479 1.970 1_455 S
Co476 N493 1.989 1_554 S
Co476 O501 1.967 . S
Co476 O508 1.920 . S
Co477 O480 1.966 1_455 S
Co477 N486 2.022 . S
Co477 N494 1.993 . S
Co477 O502 1.941 . S
C478 O479 1.258 . S
C478 O480 1.263 . S
O479 Co476 1.970 1_655 S
O479 C478 1.258 . S
O480 Co477 1.966 1_655 S
O480 C478 1.263 . S
C481 O482 1.235 1_454 S
C481 O508 1.289 . S
O482 C481 1.235 1_656 S
C483 C485 1.400 . S
C483 N486 1.351 . S
C483 C488 1.501 1_455 S
C484 C485 1.387 . S
C484 N487 1.341 . S
C485 C483 1.400 . S
C485 C484 1.387 . S
N486 Co477 2.022 . S
N486 C483 1.351 . S
N486 N487 1.365 . S
N487 C484 1.341 . S
N487 N486 1.365 . S
N487 H507 0.862 . S
C488 C483 1.501 1_655 S
C488 H489 0.961 . S
C488 H490 0.961 . S
C488 H491 0.960 . S
H489 C488 0.961 . S
H490 C488 0.961 . S
H491 C488 0.960 . S
C492 N493 1.342 . S
C492 C496 1.401 . S
C492 C497 1.499 . S
N493 Co476 1.989 1_556 S
N493 C492 1.342 . S
N493 N494 1.388 1_556 S
N494 Co477 1.993 . S
N494 N493 1.388 1_554 S
N494 C495 1.346 1_554 S
C495 N494 1.346 1_556 S
C495 C496 1.396 . S
C495 C505 1.510 . S
C496 C492 1.401 . S
C496 C495 1.396 . S
C497 C492 1.499 . S
C497 H498 0.959 . S
C497 H499 0.960 . S
C497 H500 0.961 . S
H498 C497 0.959 . S
H499 C497 0.960 . S
H500 C497 0.961 . S
O501 Co476 1.967 . S
O501 C509 1.258 . S
O502 Co477 1.941 . S
O502 C509 1.266 . S
H503 C505 0.959 . S
H504 C505 0.961 . S
C505 C495 1.510 . S
C505 H503 0.959 . S
C505 H504 0.961 . S
C505 H506 0.960 . S
H506 C505 0.960 . S
H507 N487 0.862 . S
O508 Co476 1.920 . S
O508 C481 1.289 . S
C509 O501 1.258 . S
C509 O502 1.266 . S
Co510 O513 1.970 1_545 S
Co510 N527 1.989 . S
Co510 O535 1.967 . S
Co510 O542 1.920 . S
Co511 O514 1.966 1_545 S
Co511 N520 2.022 . S
Co511 N528 1.993 . S
Co511 O536 1.941 . S
C512 O513 1.258 . S
C512 O514 1.263 . S
O513 Co510 1.970 1_565 S
O513 C512 1.258 . S
O514 Co511 1.966 1_565 S
O514 C512 1.263 . S
C515 O516 1.235 1_545 S
C515 O542 1.289 . S
O516 C515 1.235 1_565 S
C517 C519 1.400 . S
C517 N520 1.351 . S
C517 C522 1.501 1_545 S
C518 C519 1.387 . S
C518 N521 1.341 . S
C519 C517 1.400 . S
C519 C518 1.387 . S
N520 Co511 2.022 . S
N520 C517 1.351 . S
N520 N521 1.365 . S
N521 C518 1.341 . S
N521 N520 1.365 . S
N521 H541 0.862 . S
C522 C517 1.501 1_565 S
C522 H523 0.961 . S
C522 H524 0.961 . S
C522 H525 0.960 . S
H523 C522 0.961 . S
H524 C522 0.961 . S
H525 C522 0.960 . S
C526 N527 1.342 . S
C526 C530 1.401 . S
C526 C531 1.499 . S
N527 Co510 1.989 . S
N527 C526 1.342 . S
N527 N528 1.388 . S
N528 Co511 1.993 . S
N528 N527 1.388 . S
N528 C529 1.346 . S
C529 N528 1.346 . S
C529 C530 1.396 . S
C529 C539 1.510 . S
C530 C526 1.401 . S
C530 C529 1.396 . S
C531 C526 1.499 . S
C531 H532 0.959 . S
C531 H533 0.960 . S
C531 H534 0.961 . S
H532 C531 0.959 . S
H533 C531 0.960 . S
H534 C531 0.961 . S
O535 Co510 1.967 . S
O535 C543 1.258 . S
O536 Co511 1.941 . S
O536 C543 1.266 . S
H537 C539 0.959 . S
H538 C539 0.961 . S
C539 C529 1.510 . S
C539 H537 0.959 . S
C539 H538 0.961 . S
C539 H540 0.960 . S
H540 C539 0.960 . S
H541 N521 0.862 . S
O542 Co510 1.920 . S
O542 C515 1.289 . S
C543 O535 1.258 . S
C543 O536 1.266 . S
C544 C545 1.387 1_556 S
C544 H548 0.950 . S
C544 C553 1.390 . S
C545 C544 1.387 1_554 S
C545 C547 1.387 1_545 S
H546 C553 0.950 . S
C547 C545 1.387 1_565 S
C547 C549 1.390 . S
C547 H551 0.950 . S
H548 C544 0.950 . S
C549 C547 1.390 . S
C549 C550 1.387 1_554 S
C549 H552 0.950 . S
C550 C549 1.387 1_556 S
C550 C553 1.387 1_565 S
H551 C547 0.950 . S
H552 C549 0.950 . S
C553 C544 1.390 . S
C553 H546 0.950 . S
C553 C550 1.387 1_545 S
C554 C555 1.387 . S
C554 H558 0.950 . S
C554 C563 1.390 . S
C555 C554 1.387 . S
C555 C557 1.387 . S
H556 C563 0.950 . S
C557 C555 1.387 . S
C557 C559 1.390 . S
C557 H561 0.950 . S
H558 C554 0.950 . S
C559 C557 1.390 . S
C559 C560 1.387 . S
C559 H562 0.950 . S
C560 C559 1.387 . S
C560 C563 1.387 . S
H561 C557 0.950 . S
H562 C559 0.950 . S
C563 C554 1.390 . S
C563 H556 0.950 . S
C563 C560 1.387 . S
C564 C565 1.384 1_556 S
C564 H568 0.950 . S
C564 C573 1.394 1_655 S
C565 C564 1.384 1_554 S
C565 C567 1.387 . S
H566 C573 0.950 . S
C567 C565 1.387 . S
C567 C569 1.394 1_655 S
C567 H571 0.950 . S
H568 C564 0.950 . S
C569 C567 1.394 1_455 S
C569 C570 1.384 1_554 S
C569 H572 0.950 . S
C570 C569 1.384 1_556 S
C570 C573 1.387 . S
H571 C567 0.950 . S
H572 C569 0.950 . S
C573 C564 1.394 1_455 S
C573 H566 0.950 . S
C573 C570 1.387 . S
C574 C575 1.387 . S
C574 H578 0.950 . S
C574 C583 1.404 . S
C575 C574 1.387 . S
C575 C577 1.373 1_465 S
H576 C583 0.951 . S
C577 C575 1.373 1_645 S
C577 C579 1.404 . S
C577 H581 0.951 . S
H578 C574 0.950 . S
C579 C577 1.404 . S
C579 C580 1.387 . S
C579 H582 0.950 . S
C580 C579 1.387 . S
C580 C583 1.373 1_645 S
H581 C577 0.951 . S
H582 C579 0.950 . S
C583 C574 1.404 . S
C583 H576 0.951 . S
C583 C580 1.373 1_465 S
C584 C585 1.387 . S
C584 H588 0.950 . S
C584 C593 1.390 1_556 S
C585 C584 1.387 . S
C585 C587 1.387 . S
H586 C593 0.950 . S
C587 C585 1.387 . S
C587 C589 1.390 1_556 S
C587 H591 0.950 . S
H588 C584 0.950 . S
C589 C587 1.390 1_554 S
C589 C590 1.387 . S
C589 H592 0.950 . S
C590 C589 1.387 . S
C590 C593 1.387 . S
H591 C587 0.950 . S
H592 C589 0.950 . S
C593 C584 1.390 1_554 S
C593 H586 0.950 . S
C593 C590 1.387 . S
C594 C595 1.387 1_455 S
C594 H598 0.950 . S
C594 C603 1.390 . S
C595 C594 1.387 1_655 S
C595 C597 1.387 . S
H596 C603 0.950 . S
C597 C595 1.387 . S
C597 C599 1.390 . S
C597 H601 0.950 . S
H598 C594 0.950 . S
C599 C597 1.390 . S
C599 C600 1.387 1_655 S
C599 H602 0.950 . S
C600 C599 1.387 1_455 S
C600 C603 1.387 . S
H601 C597 0.950 . S
H602 C599 0.950 . S
C603 C594 1.390 . S
C603 H596 0.950 . S
C603 C600 1.387 . S
C604 C605 1.400 . S
C604 H608 0.950 . S
C604 C613 1.377 1_454 S
C605 C604 1.400 . S
C605 C607 1.387 1_565 S
H606 C613 0.950 . S
C607 C605 1.387 1_545 S
C607 C609 1.377 1_454 S
C607 H611 0.950 . S
H608 C604 0.950 . S
C609 C607 1.377 1_656 S
C609 C610 1.400 . S
C609 H612 0.950 . S
C610 C609 1.400 . S
C610 C613 1.387 1_545 S
H611 C607 0.950 . S
H612 C609 0.950 . S
C613 C604 1.377 1_656 S
C613 H606 0.950 . S
C613 C610 1.387 1_565 S
C614 C615 1.387 . S
C614 H618 0.950 . S
C614 C623 1.390 . S
C615 C614 1.387 . S
C615 C617 1.387 1_565 S
H616 C623 0.950 . S
C617 C615 1.387 1_545 S
C617 C619 1.390 . S
C617 H621 0.950 . S
H618 C614 0.950 . S
C619 C617 1.390 . S
C619 C620 1.387 . S
C619 H622 0.950 . S
C620 C619 1.387 . S
C620 C623 1.387 1_545 S
H621 C617 0.950 . S
H622 C619 0.950 . S
C623 C614 1.390 . S
C623 H616 0.950 . S
C623 C620 1.387 1_565 S
C624 C625 1.387 . S
C624 H628 0.950 . S
C624 C633 1.390 1_554 S
C625 C624 1.387 . S
C625 C627 1.387 . S
H626 C633 0.950 . S
C627 C625 1.387 . S
C627 C629 1.390 1_554 S
C627 H631 0.950 . S
H628 C624 0.950 . S
C629 C627 1.390 1_556 S
C629 C630 1.387 . S
C629 H632 0.950 . S
C630 C629 1.387 . S
C630 C633 1.387 . S
H631 C627 0.950 . S
H632 C629 0.950 . S
C633 C624 1.390 1_556 S
C633 H626 0.950 . S
C633 C630 1.387 . S
C634 C635 1.387 . S
C634 H638 0.950 . S
C634 C643 1.390 . S
C635 C634 1.387 . S
C635 C637 1.387 . S
H636 C643 0.950 . S
C637 C635 1.387 . S
C637 C639 1.390 . S
C637 H641 0.950 . S
H638 C634 0.950 . S
C639 C637 1.390 . S
C639 C640 1.387 . S
C639 H642 0.950 . S
C640 C639 1.387 . S
C640 C643 1.387 . S
H641 C637 0.950 . S
H642 C639 0.950 . S
C643 C634 1.390 . S
C643 H636 0.950 . S
C643 C640 1.387 . S
C644 C645 1.387 . S
C644 H648 0.950 . S
C644 C653 1.390 1_554 S
C645 C644 1.387 . S
C645 C647 1.387 1_655 S
H646 C653 0.950 . S
C647 C645 1.387 1_455 S
C647 C649 1.390 1_554 S
C647 H651 0.950 . S
H648 C644 0.950 . S
C649 C647 1.390 1_556 S
C649 C650 1.387 1_455 S
C649 H652 0.950 . S
C650 C649 1.387 1_655 S
C650 C653 1.387 . S
H651 C647 0.950 . S
H652 C649 0.950 . S
C653 C644 1.390 1_556 S
C653 H646 0.950 . S
C653 C650 1.387 . S
C654 C655 1.387 . S
C654 H658 0.950 . S
C654 C663 1.390 . S
C655 C654 1.387 . S
C655 C657 1.387 1_565 S
H656 C663 0.950 . S
C657 C655 1.387 1_545 S
C657 C659 1.390 . S
C657 H661 0.950 . S
H658 C654 0.950 . S
C659 C657 1.390 . S
C659 C660 1.387 1_545 S
C659 H662 0.950 . S
C660 C659 1.387 1_565 S
C660 C663 1.387 . S
H661 C657 0.950 . S
H662 C659 0.950 . S
C663 C654 1.390 . S
C663 H656 0.950 . S
C663 C660 1.387 . S
C664 C665 1.387 . S
C664 H668 0.950 . S
C664 C673 1.390 1_554 S
C665 C664 1.387 . S
C665 C667 1.387 . S
H666 C673 0.950 . S
C667 C665 1.387 . S
C667 C669 1.390 1_554 S
C667 H671 0.950 . S
H668 C664 0.950 . S
C669 C667 1.390 1_556 S
C669 C670 1.387 . S
C669 H672 0.950 . S
C670 C669 1.387 . S
C670 C673 1.387 . S
H671 C667 0.950 . S
H672 C669 0.950 . S
C673 C664 1.390 1_556 S
C673 H666 0.950 . S
C673 C670 1.387 . S
C674 C675 1.387 . S
C674 H678 0.950 . S
C674 C683 1.390 . S
C675 C674 1.387 . S
C675 C677 1.387 . S
H676 C683 0.950 . S
C677 C675 1.387 . S
C677 C679 1.390 . S
C677 H681 0.950 . S
H678 C674 0.950 . S
C679 C677 1.390 . S
C679 C680 1.387 . S
C679 H682 0.950 . S
C680 C679 1.387 . S
C680 C683 1.387 . S
H681 C677 0.950 . S
H682 C679 0.950 . S
C683 C674 1.390 . S
C683 H676 0.950 . S
C683 C680 1.387 . S
C684 C685 1.387 1_655 S
C684 H688 0.950 . S
C684 C693 1.390 1_554 S
C685 C684 1.387 1_455 S
C685 C687 1.387 . S
H686 C693 0.950 . S
C687 C685 1.387 . S
C687 C689 1.390 1_554 S
C687 H691 0.950 . S
H688 C684 0.950 . S
C689 C687 1.390 1_556 S
C689 C690 1.387 . S
C689 H692 0.950 . S
C690 C689 1.387 . S
C690 C693 1.387 1_455 S
H691 C687 0.950 . S
H692 C689 0.950 . S
C693 C684 1.390 1_556 S
C693 H686 0.950 . S
C693 C690 1.387 1_655 S
C694 C695 1.387 . S
C694 H698 0.950 . S
C694 C703 1.390 . S
C695 C694 1.387 . S
C695 C697 1.387 1_545 S
H696 C703 0.950 . S
C697 C695 1.387 1_565 S
C697 C699 1.390 . S
C697 H701 0.950 . S
H698 C694 0.950 . S
C699 C697 1.390 . S
C699 C700 1.387 1_565 S
C699 H702 0.950 . S
C700 C699 1.387 1_545 S
C700 C703 1.387 . S
H701 C697 0.950 . S
H702 C699 0.950 . S
C703 C694 1.390 . S
C703 H696 0.950 . S
C703 C700 1.387 . S
C704 C705 1.387 . S
C704 H708 0.950 . S
C704 C713 1.390 . S
C705 C704 1.387 . S
C705 C707 1.387 . S
H706 C713 0.950 . S
C707 C705 1.387 . S
C707 C709 1.390 . S
C707 H711 0.950 . S
H708 C704 0.950 . S
C709 C707 1.390 . S
C709 C710 1.387 . S
C709 H712 0.950 . S
C710 C709 1.387 . S
C710 C713 1.387 . S
H711 C707 0.950 . S
H712 C709 0.950 . S
C713 C704 1.390 . S
C713 H706 0.950 . S
C713 C710 1.387 . S
C714 C715 1.387 . S
C714 H718 0.950 . S
C714 C723 1.390 . S
C715 C714 1.387 . S
C715 C717 1.387 . S
H716 C723 0.950 . S
C717 C715 1.387 . S
C717 C719 1.390 . S
C717 H721 0.950 . S
H718 C714 0.950 . S
C719 C717 1.390 . S
C719 C720 1.387 . S
C719 H722 0.950 . S
C720 C719 1.387 . S
C720 C723 1.387 . S
H721 C717 0.950 . S
H722 C719 0.950 . S
C723 C714 1.390 . S
C723 H716 0.950 . S
C723 C720 1.387 . S
C724 C725 1.387 . S
C724 H728 0.950 . S
C724 C733 1.390 . S
C725 C724 1.387 . S
C725 C727 1.387 . S
H726 C733 0.950 . S
C727 C725 1.387 . S
C727 C729 1.390 . S
C727 H731 0.950 . S
H728 C724 0.950 . S
C729 C727 1.390 . S
C729 C730 1.387 . S
C729 H732 0.950 . S
C730 C729 1.387 . S
C730 C733 1.387 . S
H731 C727 0.950 . S
H732 C729 0.950 . S
C733 C724 1.390 . S
C733 H726 0.950 . S
C733 C730 1.387 . S
C734 C735 1.387 . S
C734 H738 0.950 . S
C734 C743 1.390 . S
C735 C734 1.387 . S
C735 C737 1.387 . S
H736 C743 0.950 . S
C737 C735 1.387 . S
C737 C739 1.390 . S
C737 H741 0.950 . S
H738 C734 0.950 . S
C739 C737 1.390 . S
C739 C740 1.387 . S
C739 H742 0.950 . S
C740 C739 1.387 . S
C740 C743 1.387 . S
H741 C737 0.950 . S
H742 C739 0.950 . S
C743 C734 1.390 . S
C743 H736 0.950 . S
C743 C740 1.387 . S
C744 C745 1.387 . S
C744 H748 0.950 . S
C744 C753 1.390 . S
C745 C744 1.387 . S
C745 C747 1.387 . S
H746 C753 0.950 . S
C747 C745 1.387 . S
C747 C749 1.390 . S
C747 H751 0.950 . S
H748 C744 0.950 . S
C749 C747 1.390 . S
C749 C750 1.387 . S
C749 H752 0.950 . S
C750 C749 1.387 . S
C750 C753 1.387 . S
H751 C747 0.950 . S
H752 C749 0.950 . S
C753 C744 1.390 . S
C753 H746 0.950 . S
C753 C750 1.387 . S
C754 C755 1.387 . S
C754 H758 0.950 . S
C754 C763 1.390 . S
C755 C754 1.387 . S
C755 C757 1.387 . S
H756 C763 0.950 . S
C757 C755 1.387 . S
C757 C759 1.390 . S
C757 H761 0.950 . S
H758 C754 0.950 . S
C759 C757 1.390 . S
C759 C760 1.387 . S
C759 H762 0.950 . S
C760 C759 1.387 . S
C760 C763 1.387 . S
H761 C757 0.950 . S
H762 C759 0.950 . S
C763 C754 1.390 . S
C763 H756 0.950 . S
C763 C760 1.387 . S
C764 C765 1.387 . S
C764 H768 0.950 . S
C764 C773 1.390 . S
C765 C764 1.387 . S
C765 C767 1.387 . S
H766 C773 0.950 . S
C767 C765 1.387 . S
C767 C769 1.390 . S
C767 H771 0.950 . S
H768 C764 0.950 . S
C769 C767 1.390 . S
C769 C770 1.387 . S
C769 H772 0.950 . S
C770 C769 1.387 . S
C770 C773 1.387 . S
H771 C767 0.950 . S
H772 C769 0.950 . S
C773 C764 1.390 . S
C773 H766 0.950 . S
C773 C770 1.387 . S
C774 C775 1.387 . S
C774 H778 0.950 . S
C774 C783 1.390 . S
C775 C774 1.387 . S
C775 C777 1.387 . S
H776 C783 0.950 . S
C777 C775 1.387 . S
C777 C779 1.390 . S
C777 H781 0.950 . S
H778 C774 0.950 . S
C779 C777 1.390 . S
C779 C780 1.387 . S
C779 H782 0.950 . S
C780 C779 1.387 . S
C780 C783 1.387 . S
H781 C777 0.950 . S
H782 C779 0.950 . S
C783 C774 1.390 . S
C783 H776 0.950 . S
C783 C780 1.387 . S
C784 C785 1.387 . S
C784 H788 0.950 . S
C784 C793 1.390 . S
C785 C784 1.387 . S
C785 C787 1.387 . S
H786 C793 0.950 . S
C787 C785 1.387 . S
C787 C789 1.390 . S
C787 H791 0.950 . S
H788 C784 0.950 . S
C789 C787 1.390 . S
C789 C790 1.387 . S
C789 H792 0.950 . S
C790 C789 1.387 . S
C790 C793 1.387 . S
H791 C787 0.950 . S
H792 C789 0.950 . S
C793 C784 1.390 . S
C793 H786 0.950 . S
C793 C790 1.387 . S
C794 C795 1.387 . S
C794 H798 0.950 . S
C794 C803 1.390 . S
C795 C794 1.387 . S
C795 C797 1.387 . S
H796 C803 0.950 . S
C797 C795 1.387 . S
C797 C799 1.390 . S
C797 H801 0.950 . S
H798 C794 0.950 . S
C799 C797 1.390 . S
C799 C800 1.387 . S
C799 H802 0.950 . S
C800 C799 1.387 . S
C800 C803 1.387 . S
H801 C797 0.950 . S
H802 C799 0.950 . S
C803 C794 1.390 . S
C803 H796 0.950 . S
C803 C800 1.387 . S
C804 C805 1.387 . S
C804 H808 0.950 . S
C804 C813 1.390 . S
C805 C804 1.387 . S
C805 C807 1.387 . S
H806 C813 0.950 . S
C807 C805 1.387 . S
C807 C809 1.390 . S
C807 H811 0.950 . S
H808 C804 0.950 . S
C809 C807 1.390 . S
C809 C810 1.387 . S
C809 H812 0.950 . S
C810 C809 1.387 . S
C810 C813 1.387 . S
H811 C807 0.950 . S
H812 C809 0.950 . S
C813 C804 1.390 . S
C813 H806 0.950 . S
C813 C810 1.387 . S
C814 C815 1.387 . S
C814 H818 0.950 . S
C814 C823 1.390 . S
C815 C814 1.387 . S
C815 C817 1.387 . S
H816 C823 0.950 . S
C817 C815 1.387 . S
C817 C819 1.390 . S
C817 H821 0.950 . S
H818 C814 0.950 . S
C819 C817 1.390 . S
C819 C820 1.387 . S
C819 H822 0.950 . S
C820 C819 1.387 . S
C820 C823 1.387 . S
H821 C817 0.950 . S
H822 C819 0.950 . S
C823 C814 1.390 . S
C823 H816 0.950 . S
C823 C820 1.387 . S
C824 C825 1.387 . S
C824 H828 0.950 . S
C824 C833 1.390 . S
C825 C824 1.387 . S
C825 C827 1.387 . S
H826 C833 0.950 . S
C827 C825 1.387 . S
C827 C829 1.390 . S
C827 H831 0.950 . S
H828 C824 0.950 . S
C829 C827 1.390 . S
C829 C830 1.387 . S
C829 H832 0.950 . S
C830 C829 1.387 . S
C830 C833 1.387 . S
H831 C827 0.950 . S
H832 C829 0.950 . S
C833 C824 1.390 . S
C833 H826 0.950 . S
C833 C830 1.387 . S
C834 C835 1.387 . S
C834 H838 0.950 . S
C834 C843 1.390 . S
C835 C834 1.387 . S
C835 C837 1.387 . S
H836 C843 0.950 . S
C837 C835 1.387 . S
C837 C839 1.390 . S
C837 H841 0.950 . S
H838 C834 0.950 . S
C839 C837 1.390 . S
C839 C840 1.387 . S
C839 H842 0.950 . S
C840 C839 1.387 . S
C840 C843 1.387 . S
H841 C837 0.950 . S
H842 C839 0.950 . S
C843 C834 1.390 . S
C843 H836 0.950 . S
C843 C840 1.387 . S
C844 C845 1.387 . S
C844 H848 0.950 . S
C844 C853 1.390 . S
C845 C844 1.387 . S
C845 C847 1.387 . S
H846 C853 0.950 . S
C847 C845 1.387 . S
C847 C849 1.390 . S
C847 H851 0.950 . S
H848 C844 0.950 . S
C849 C847 1.390 . S
C849 C850 1.387 . S
C849 H852 0.950 . S
C850 C849 1.387 . S
C850 C853 1.387 . S
H851 C847 0.950 . S
H852 C849 0.950 . S
C853 C844 1.390 . S
C853 H846 0.950 . S
C853 C850 1.387 . S
C854 C855 1.387 . S
C854 H858 0.950 . S
C854 C863 1.390 . S
C855 C854 1.387 . S
C855 C857 1.387 . S
H856 C863 0.950 . S
C857 C855 1.387 . S
C857 C859 1.390 . S
C857 H861 0.950 . S
H858 C854 0.950 . S
C859 C857 1.390 . S
C859 C860 1.387 . S
C859 H862 0.950 . S
C860 C859 1.387 . S
C860 C863 1.387 . S
H861 C857 0.950 . S
H862 C859 0.950 . S
C863 C854 1.390 . S
C863 H856 0.950 . S
C863 C860 1.387 . S
C864 C865 1.387 . S
C864 H868 0.950 . S
C864 C873 1.390 . S
C865 C864 1.387 . S
C865 C867 1.387 . S
H866 C873 0.950 . S
C867 C865 1.387 . S
C867 C869 1.390 . S
C867 H871 0.950 . S
H868 C864 0.950 . S
C869 C867 1.390 . S
C869 C870 1.387 . S
C869 H872 0.950 . S
C870 C869 1.387 . S
C870 C873 1.387 . S
H871 C867 0.950 . S
H872 C869 0.950 . S
C873 C864 1.390 . S
C873 H866 0.950 . S
C873 C870 1.387 . S
C874 C875 1.387 . S
C874 H878 0.950 . S
C874 C883 1.390 . S
C875 C874 1.387 . S
C875 C877 1.387 . S
H876 C883 0.950 . S
C877 C875 1.387 . S
C877 C879 1.390 . S
C877 H881 0.950 . S
H878 C874 0.950 . S
C879 C877 1.390 . S
C879 C880 1.387 . S
C879 H882 0.950 . S
C880 C879 1.387 . S
C880 C883 1.387 . S
H881 C877 0.950 . S
H882 C879 0.950 . S
C883 C874 1.390 . S
C883 H876 0.950 . S
C883 C880 1.387 . S
C884 C885 1.387 . S
C884 H888 0.950 . S
C884 C893 1.390 . S
C885 C884 1.387 . S
C885 C887 1.387 . S
H886 C893 0.950 . S
C887 C885 1.387 . S
C887 C889 1.390 . S
C887 H891 0.950 . S
H888 C884 0.950 . S
C889 C887 1.390 . S
C889 C890 1.387 . S
C889 H892 0.950 . S
C890 C889 1.387 . S
C890 C893 1.387 . S
H891 C887 0.950 . S
H892 C889 0.950 . S
C893 C884 1.390 . S
C893 H886 0.950 . S
C893 C890 1.387 . S
C894 C895 1.387 . S
C894 H898 0.950 . S
C894 C903 1.390 . S
C895 C894 1.387 . S
C895 C897 1.387 . S
H896 C903 0.950 . S
C897 C895 1.387 . S
C897 C899 1.390 . S
C897 H901 0.950 . S
H898 C894 0.950 . S
C899 C897 1.390 . S
C899 C900 1.387 . S
C899 H902 0.950 . S
C900 C899 1.387 . S
C900 C903 1.387 . S
H901 C897 0.950 . S
H902 C899 0.950 . S
C903 C894 1.390 . S
C903 H896 0.950 . S
C903 C900 1.387 . S
C904 C905 1.387 . S
C904 H908 0.950 . S
C904 C913 1.390 . S
C905 C904 1.387 . S
C905 C907 1.387 . S
H906 C913 0.950 . S
C907 C905 1.387 . S
C907 C909 1.390 . S
C907 H911 0.950 . S
H908 C904 0.950 . S
C909 C907 1.390 . S
C909 C910 1.387 . S
C909 H912 0.950 . S
C910 C909 1.387 . S
C910 C913 1.387 . S
H911 C907 0.950 . S
H912 C909 0.950 . S
C913 C904 1.390 . S
C913 H906 0.950 . S
C913 C910 1.387 . S
C914 C915 1.387 . S
C914 H918 0.950 . S
C914 C923 1.390 . S
C915 C914 1.387 . S
C915 C917 1.387 . S
H916 C923 0.950 . S
C917 C915 1.387 . S
C917 C919 1.390 . S
C917 H921 0.950 . S
H918 C914 0.950 . S
C919 C917 1.390 . S
C919 C920 1.387 . S
C919 H922 0.950 . S
C920 C919 1.387 . S
C920 C923 1.387 . S
H921 C917 0.950 . S
H922 C919 0.950 . S
C923 C914 1.390 . S
C923 H916 0.950 . S
C923 C920 1.387 . S
C924 C925 1.387 . S
C924 H928 0.950 . S
C924 C933 1.390 . S
C925 C924 1.387 . S
C925 C927 1.387 . S
H926 C933 0.950 . S
C927 C925 1.387 . S
C927 C929 1.390 . S
C927 H931 0.950 . S
H928 C924 0.950 . S
C929 C927 1.390 . S
C929 C930 1.387 . S
C929 H932 0.950 . S
C930 C929 1.387 . S
C930 C933 1.387 . S
H931 C927 0.950 . S
H932 C929 0.950 . S
C933 C924 1.390 . S
C933 H926 0.950 . S
C933 C930 1.387 . S
C934 C935 1.387 . S
C934 H938 0.950 . S
C934 C943 1.390 . S
C935 C934 1.387 . S
C935 C937 1.387 . S
H936 C943 0.950 . S
C937 C935 1.387 . S
C937 C939 1.390 . S
C937 H941 0.950 . S
H938 C934 0.950 . S
C939 C937 1.390 . S
C939 C940 1.387 . S
C939 H942 0.950 . S
C940 C939 1.387 . S
C940 C943 1.387 . S
H941 C937 0.950 . S
H942 C939 0.950 . S
C943 C934 1.390 . S
C943 H936 0.950 . S
C943 C940 1.387 . S
C545 C5 0.778 . S
C550 C277 0.778 . S
C555 C311 0.778 . S
C560 C39 0.778 . S
C565 C73 0.782 . S
C570 C345 0.782 . S
C575 C107 0.778 . S
C580 C379 0.778 . S
C585 C141 0.784 . S
C590 C413 0.784 . S
C595 C447 0.785 . S
C600 C175 0.785 . S
C605 C481 0.784 . S
C610 C209 0.784 . S
C615 C243 0.779 . S
C620 C515 0.779 . S
C625 C9 1.443 . S
C630 C145 1.443 . S
C635 C43 1.441 . S
C640 C179 1.441 . S
C645 C77 1.443 . S
C650 C213 1.443 . S
C655 C111 1.443 . S
C660 C247 1.443 . S
C665 C417 1.443 . S
C670 C281 1.443 . S
C675 C451 1.441 . S
C680 C315 1.441 . S
C685 C485 1.443 . S
C690 C349 1.443 . S
C695 C383 1.441 . S
C700 C519 1.441 . S
C705 C2 2.193 . S
C710 C240 2.190 . S
C715 C138 2.193 . S
C720 C36 2.190 . S
C725 C172 2.192 . S
C730 C70 2.192 . S
C735 C104 2.191 . S
C740 C206 2.192 . S
C745 C512 2.190 . S
C750 C274 2.193 . S
C755 C410 2.190 . S
C760 C308 2.193 . S
C765 C342 2.193 . S
C770 C444 2.190 . S
C775 C376 2.192 . S
C780 C478 2.191 . S
C785 C543 1.537 . S
C790 C20 1.445 . S
C795 C54 1.447 . S
C800 C441 1.536 . S
C805 C88 1.443 . S
C810 C475 1.536 . S
C815 C509 1.536 . S
C820 C122 1.446 . S
C825 C156 1.445 . S
C830 C339 1.537 . S
C835 C190 1.443 . S
C840 C373 1.536 . S
C845 C407 1.535 . S
C850 C224 1.444 . S
C855 C258 1.443 . S
C860 C305 1.536 . S
C865 C292 1.445 . S
C870 C271 1.535 . S
C875 C169 1.536 . S
C880 C326 1.447 . S
C885 C360 1.445 . S
C890 C203 1.537 . S
C895 C237 1.536 . S
C900 C394 1.446 . S
C905 C428 1.445 . S
C910 C67 1.537 . S
C915 C101 1.535 . S
C920 C462 1.447 . S
C925 C135 1.535 . S
C930 C496 1.446 . S
C935 C33 1.536 . S
C940 C530 1.443 . S
