# Generated by pormake.
# Topology fnu, (5)-cn, num edge types: 1
# Building blocks:
#     Node 0, Type 0, BuildingBlock: XOMCOT_clean_sbu_1, # of connection points: 5
#     Node 1, Type 0, BuildingBlock: XOMCOT_clean_sbu_1, # of connection points: 5
#     Node 2, Type 0, BuildingBlock: XOMCOT_clean_sbu_1, # of connection points: 5
#     Node 3, Type 0, BuildingBlock: XOMCOT_clean_sbu_1, # of connection points: 5
#     Node 4, Type 0, BuildingBlock: XOMCOT_clean_sbu_1, # of connection points: 5
#     Node 5, Type 0, BuildingBlock: XOMCOT_clean_sbu_1, # of connection points: 5
#     Edge 6, Type (0, 0), BuildingBlock: UVAHIK_clean_linker_0, # of connection points: 2
#     Edge 7, Type (0, 0), BuildingBlock: UVAHIK_clean_linker_0, # of connection points: 2
#     Edge 8, Type (0, 0), BuildingBlock: UVAHIK_clean_linker_0, # of connection points: 2
#     Edge 9, Type (0, 0), BuildingBlock: UVAHIK_clean_linker_0, # of connection points: 2
#     Edge 10, Type (0, 0), BuildingBlock: UVAHIK_clean_linker_0, # of connection points: 2
#     Edge 11, Type (0, 0), BuildingBlock: UVAHIK_clean_linker_0, # of connection points: 2
#     Edge 12, Type (0, 0), BuildingBlock: UVAHIK_clean_linker_0, # of connection points: 2
#     Edge 13, Type (0, 0), BuildingBlock: UVAHIK_clean_linker_0, # of connection points: 2
#     Edge 14, Type (0, 0), BuildingBlock: UVAHIK_clean_linker_0, # of connection points: 2
#     Edge 15, Type (0, 0), BuildingBlock: UVAHIK_clean_linker_0, # of connection points: 2
#     Edge 16, Type (0, 0), BuildingBlock: UVAHIK_clean_linker_0, # of connection points: 2
#     Edge 17, Type (0, 0), BuildingBlock: UVAHIK_clean_linker_0, # of connection points: 2
#     Edge 18, Type (0, 0), BuildingBlock: UVAHIK_clean_linker_0, # of connection points: 2
#     Edge 19, Type (0, 0), BuildingBlock: UVAHIK_clean_linker_0, # of connection points: 2
#     Edge 20, Type (0, 0), BuildingBlock: UVAHIK_clean_linker_0, # of connection points: 2
# Relax obj value: 0.187
# Max RMSD: 0.139
# Mean RMSD: 0.139
data_MOF--net-fnu--node1-XOMCOT_clean_sbu_1--edge1-UVAHIK_clean_linker_0
_symmetry_space_group_name_H-M    P1
_symmetry_Int_Tables_number       1
_symmetry_cell_setting            triclinic
loop_
_symmetry_equiv_pos_as_xyz
'x, y, z'
_cell_length_a     34.01813
_cell_length_b     35.075286
_cell_length_c     41.976536
_cell_angle_alpha  90.278295
_cell_angle_beta   96.242426
_cell_angle_gamma 120.92929
loop_
_atom_site_label
_atom_site_type_symbol
_atom_site_fract_x
_atom_site_fract_y
_atom_site_fract_z
_atom_type_partial_charge
C0 C 0.14048 0.12053 0.29805 0.0
C1 C 0.1461 0.12632 0.33107 0.0
N2 N 0.11197 0.08951 0.34208 0.0
N3 N 0.1036 0.07977 0.28822 0.0
C4 C 0.08684 0.06201 0.31572 0.0
H5 H 0.16064 0.14546 0.28215 0.0
Co6 Co 0.07519 0.05862 0.24563 0.0
C7 C 1.0405 0.11176 0.25052 0.0
O8 O 1.01725 0.08036 0.26956 0.0
N9 N 0.04565 0.03796 0.2046 0.0
C10 C 0.98808 0.99903 0.16559 0.0
C11 C 0.99963 1.01824 0.19643 0.0
C12 C 0.06157 0.03114 0.17851 0.0
N13 N 1.02719 1.007 0.15457 0.0
O14 O 0.13718 0.08638 0.23001 0.0
H15 H 0.97584 1.01591 0.21252 0.0
H16 H 0.09715 0.0407 0.17787 0.0
O17 O 0.07403 0.11227 0.23911 0.0
C18 C 0.17468 0.08833 0.24179 0.0
O19 O 0.17492 0.06808 0.26802 0.0
N20 N 0.06944 1.00239 0.25076 0.0
C21 C 1.02307 0.9095 0.23731 0.0
C22 C 1.00661 0.92866 0.25754 0.0
C23 C 1.02934 0.97487 0.26298 0.0
C24 C 0.08853 0.98436 0.23339 0.0
C25 C 0.06584 0.93811 0.22636 0.0
H26 H 1.01152 0.98875 0.27365 0.0
H27 H 0.11806 1.00522 0.22133 0.0
H28 H 0.0556 0.03038 0.31664 0.0
H29 H 0.17153 0.15631 0.34562 0.0
H30 H 0.95357 0.97972 0.15268 0.0
H31 H 0.97441 0.90857 0.26729 0.0
H32 H 0.07995 0.92561 0.21014 0.0
C33 C 0.97383 0.04937 0.70946 0.0
C34 C 0.96823 0.04885 0.67642 0.0
N35 N 1.00088 0.04341 0.66546 0.0
N36 N 1.00921 0.04321 0.71936 0.0
C37 C 1.02508 0.0401 0.69186 0.0
H38 H 0.95476 0.05607 0.72534 0.0
Co39 Co 1.03742 0.05019 0.76195 0.0
C40 C 0.07843 0.13699 0.75793 0.0
O41 O 0.10057 0.12417 0.74111 0.0
N42 N 0.06699 0.05869 0.80303 0.0
C43 C 0.12477 0.07291 0.84065 0.0
C44 C 0.11327 0.08281 0.81072 0.0
C45 C 0.05093 0.03513 0.82866 0.0
N46 N 0.08544 0.04231 0.85156 0.0
O47 O 0.97536 1.01834 0.7777 0.0
H48 H 0.13727 0.10336 0.79452 0.0
H49 H 1.01488 1.01083 0.8296 0.0
O50 O 1.04163 0.10675 0.76813 0.0
C51 C 0.93736 0.98346 0.76563 0.0
O52 O 0.93672 0.96263 0.73927 0.0
N53 N 1.04064 0.99813 0.75689 0.0
C54 C 0.08568 0.95071 0.77163 0.0
C55 C 0.10262 0.9854 0.75089 0.0
C56 C 0.0806 1.00941 0.74484 0.0
C57 C 1.0207 0.96146 0.7744 0.0
C58 C 0.04283 0.93754 0.78218 0.0
H59 H 0.09907 0.0407 0.734 0.0
H60 H 0.99108 0.95366 0.78615 0.0
H61 H 0.05506 0.03739 0.69095 0.0
H62 H 0.94393 0.05479 0.66179 0.0
H63 H 0.15941 0.08475 0.85236 0.0
H64 H 0.13481 0.99658 0.7413 0.0
H65 H 1.02829 0.91158 0.79867 0.0
C66 C 0.80229 0.45396 0.63117 0.0
C67 C 0.80819 0.4587 0.66424 0.0
N68 N 0.77609 0.42029 0.67499 0.0
N69 N 0.76735 0.41234 0.62105 0.0
C70 C 0.75181 0.39294 0.6484 0.0
H71 H 0.82111 0.47985 0.61545 0.0
Co72 Co 0.73971 0.3907 0.57848 0.0
C73 C 0.69976 0.4384 0.58167 0.0
O74 O 0.67705 0.40476 0.59924 0.0
N75 N 0.71044 0.36901 0.53736 0.0
C76 C 0.65205 0.3279 0.49937 0.0
C77 C 0.66451 0.35016 0.52914 0.0
C78 C 0.72537 0.35841 0.51227 0.0
N79 N 0.69035 0.33264 0.48905 0.0
O80 O 0.80193 0.42011 0.56293 0.0
H81 H 0.64112 0.3498 0.54479 0.0
H82 H 0.76079 0.36726 0.51182 0.0
O83 O 0.73615 0.44325 0.57176 0.0
C84 C 0.84027 0.42447 0.57562 0.0
O85 O 0.84131 0.40603 0.60264 0.0
N86 N 0.73609 0.3355 0.58405 0.0
C87 C 0.69334 0.24331 0.57006 0.0
C88 C 0.67291 0.26084 0.58781 0.0
C89 C 0.69457 0.30684 0.59417 0.0
C90 C 0.75832 0.31894 0.56876 0.0
C91 C 0.73758 0.27292 0.56174 0.0
H92 H 0.67518 0.31989 0.60365 0.0
H93 H 0.78927 0.34062 0.55837 0.0
H94 H 0.72221 0.35993 0.64901 0.0
H95 H 0.83248 0.48882 0.67909 0.0
H96 H 0.61716 0.3075 0.48726 0.0
H97 H 0.63837 0.23974 0.59406 0.0
H98 H 0.75471 0.26096 0.54794 0.0
C99 C 0.64474 0.37232 0.04366 0.0
C100 C 0.63999 0.37233 0.01066 0.0
N101 N 0.67212 0.36578 0.99999 0.0
N102 N 0.67899 0.36469 0.05383 0.0
C103 C 0.69528 0.36141 0.02657 0.0
H104 H 0.62565 0.37929 0.05935 0.0
Co105 Co 0.70482 0.36898 0.09667 0.0
C106 C 0.74759 0.45632 0.09515 0.0
O107 O 0.77046 0.44401 0.07869 0.0
N108 N 0.73202 0.37466 0.13819 0.0
C109 C 0.78731 0.3879 0.17767 0.0
C110 C 0.77795 0.39885 0.14755 0.0
C111 C 0.71402 0.34981 0.16294 0.0
N112 N 0.74699 0.35675 0.18709 0.0
O113 O 0.64179 0.337 0.11089 0.0
H114 H 0.80324 0.42084 0.1326 0.0
H115 H 0.67792 0.32445 0.16228 0.0
O116 O 0.70988 0.42576 0.10411 0.0
C117 C 0.60337 0.30357 0.09771 0.0
O118 O 0.6025 0.28423 0.07052 0.0
N119 N 0.70716 0.31679 0.09043 0.0
C120 C 0.74847 0.26606 0.10405 0.0
C121 C 0.7696 0.304 0.08664 0.0
C122 C 0.74869 0.32902 0.08051 0.0
C123 C 0.68422 0.27805 0.10538 0.0
C124 C 0.70425 0.25212 0.11224 0.0
H125 H 0.76877 0.36149 0.0715 0.0
H126 H 0.65321 0.26931 0.11561 0.0
H127 H 0.72464 0.3575 0.02604 0.0
H128 H 0.61649 0.37913 0.99585 0.0
H129 H 0.82119 0.4008 0.1911 0.0
H130 H 0.8042 0.31696 0.08058 0.0
H131 H 0.68664 0.22309 0.1258 0.0
C132 C 0.46914 0.79765 0.96536 0.0
C133 C 0.47442 0.80252 0.99841 0.0
N134 N 0.44279 0.76381 0.00909 0.0
N135 N 0.43506 0.75568 0.95518 0.0
C136 C 0.41947 0.73617 0.98249 0.0
H137 H 0.48758 0.82374 0.94968 0.0
Co138 Co 0.4078 0.73399 0.91254 0.0
C139 C 0.36441 0.7782 0.91596 0.0
O140 O 0.3423 0.74336 0.93265 0.0
N141 N 0.37888 0.71226 0.87135 0.0
C142 C 0.32158 0.66765 0.83371 0.0
C143 C 0.3326 0.68938 0.86357 0.0
C144 C 0.39542 0.70481 0.84583 0.0
N145 N 0.3612 0.67688 0.8229 0.0
O146 O 0.47022 0.76565 0.89714 0.0
H147 H 0.30832 0.68572 0.87967 0.0
H148 H 0.43164 0.71714 0.84497 0.0
O149 O 0.40177 0.78528 0.90628 0.0
C150 C 0.50879 0.77041 0.90972 0.0
O151 O 0.50994 0.75129 0.93638 0.0
N152 N 0.40663 0.67973 0.91758 0.0
C153 C 0.36556 0.58846 0.90133 0.0
C154 C 0.34569 0.60391 0.92134 0.0
C155 C 0.36626 0.64965 0.92857 0.0
C156 C 0.42873 0.6648 0.90042 0.0
C157 C 0.40845 0.61924 0.8918 0.0
H158 H 0.34632 0.6612 0.93913 0.0
H159 H 0.45863 0.68758 0.8894 0.0
H160 H 0.39035 0.70291 0.98308 0.0
H161 H 0.49781 0.83292 0.01325 0.0
H162 H 0.28709 0.64442 0.82195 0.0
H163 H 0.31192 0.58135 0.92837 0.0
H164 H 0.4244 0.60854 0.87578 0.0
C165 C 0.30364 0.70392 0.3764 0.0
C166 C 0.29806 0.70342 0.34337 0.0
N167 N 0.33235 0.70063 0.33252 0.0
N168 N 0.34067 0.70035 0.38641 0.0
C169 C 0.35755 0.69886 0.35899 0.0
H170 H 0.28334 0.7089 0.39219 0.0
Co171 Co 0.36909 0.70845 0.42906 0.0
C172 C 0.40246 0.79589 0.42388 0.0
O173 O 0.42591 0.78784 0.40478 0.0
N174 N 0.39869 0.71816 0.47013 0.0
C175 C 0.45665 0.73828 0.50904 0.0
C176 C 0.44455 0.74554 0.47833 0.0
C177 C 0.38339 0.69517 0.49609 0.0
N178 N 0.41805 0.70629 0.51997 0.0
O179 O 0.30717 0.67394 0.44465 0.0
H180 H 0.46795 0.76745 0.4623 0.0
H181 H 0.34816 0.66836 0.49664 0.0
O182 O 0.36932 0.76288 0.43543 0.0
C183 C 0.26984 0.63831 0.43272 0.0
O184 O 0.26987 0.61784 0.40642 0.0
N185 N 0.37578 0.65844 0.42406 0.0
C186 C 0.42318 0.61294 0.43757 0.0
C187 C 0.43956 0.64862 0.41765 0.0
C188 C 0.41626 0.67155 0.41214 0.0
C189 C 0.35683 0.62127 0.44113 0.0
C190 C 0.38003 0.59818 0.44818 0.0
H191 H 0.43379 0.70322 0.40162 0.0
H192 H 0.32689 0.61214 0.45289 0.0
H193 H 0.3889 0.69852 0.35822 0.0
H194 H 0.27255 0.70764 0.32868 0.0
H195 H 0.49124 0.75428 0.5219 0.0
H196 H 0.47204 0.66112 0.40817 0.0
H197 H 0.36597 0.57146 0.46413 0.0
C198 C 0.22078 0.1369 0.19909 0.0
C199 C 0.218 0.11265 0.22624 0.0
C200 C 0.26224 0.16012 0.18532 0.0
C201 C 0.38993 0.20418 0.20318 0.0
H202 H 0.38649 0.20947 0.11087 0.0
C203 C 0.51883 0.24747 0.09819 0.0
C204 C 0.55992 0.2849 0.1131 0.0
C205 C 0.4777 0.22913 0.11205 0.0
C206 C 0.38832 0.20815 0.13671 0.0
H207 H 0.25713 0.09365 0.25976 0.0
H208 H 0.32819 0.13287 0.23567 0.0
H209 H 0.31447 0.17199 0.13432 0.0
H210 H 0.58935 0.33229 0.15468 0.0
H211 H 0.51737 0.30071 0.17876 0.0
H212 H 0.46374 0.239 0.20549 0.0
C213 C 0.29893 0.13506 0.22526 0.0
C214 C 0.34672 0.18704 0.15027 0.0
C215 C 0.25772 0.11208 0.23901 0.0
C216 C 0.55851 0.30349 0.14245 0.0
C217 C 0.51713 0.28511 0.15637 0.0
C218 C 0.43153 0.22519 0.18961 0.0
C219 C 0.30213 0.15972 0.19827 0.0
C220 C 0.34672 0.18424 0.18374 0.0
C221 C 0.47594 0.24759 0.14135 0.0
C222 C 0.43149 0.22716 0.1561 0.0
H223 H 0.19103 0.13824 0.18858 0.0
H224 H 0.26314 0.17894 0.16476 0.0
H225 H 0.39179 0.20361 0.22906 0.0
H226 H 0.51831 0.2319 0.07568 0.0
H227 H 0.44735 0.19982 0.09991 0.0
C228 C 1.02581 0.15285 0.20622 0.0
C229 C 1.02051 0.1383 0.23747 0.0
C230 C 0.9986 0.16905 0.19163 0.0
C231 C 0.8862 0.1607 0.19753 0.0
H232 H 0.92746 0.25413 0.13826 0.0
C233 C 0.77464 0.23411 0.14938 0.0
C234 C 0.77545 0.24558 0.11727 0.0
C235 C 0.8043 0.22038 0.16323 0.0
C236 C 0.91521 0.22759 0.15447 0.0
H237 H 0.98498 0.13233 0.27868 0.0
H238 H 0.93897 0.16176 0.25384 0.0
H239 H 0.98209 0.23502 0.16466 0.0
H240 H 0.80724 0.24993 0.07431 0.0
H241 H 0.85878 0.22577 0.09843 0.0
H242 H 0.81946 0.15327 0.18748 0.0
C243 C 0.96287 0.15941 0.24007 0.0
C244 C 0.94662 0.21667 0.16967 0.0
C245 C 0.98969 0.14299 0.25449 0.0
C246 C 0.80591 0.24174 0.09917 0.0
C247 C 0.83567 0.2281 0.11305 0.0
C248 C 0.85492 0.17166 0.18243 0.0
C249 C 0.96569 0.1712 0.20805 0.0
C250 C 0.93262 0.18324 0.19159 0.0
C251 C 0.83572 0.21781 0.14541 0.0
C252 C 0.86896 0.20536 0.16078 0.0
H253 H 0.04886 0.14919 0.19233 0.0
H254 H 1.00172 0.17768 0.16692 0.0
H255 H 0.87369 0.13399 0.2136 0.0
H256 H 0.75252 0.23762 0.16435 0.0
H257 H 0.80372 0.2133 0.18831 0.0
C258 C 0.81643 0.53349 0.10202 0.0
C259 C 0.77055 0.50384 0.10741 0.0
C260 C 0.8411 0.57709 0.11581 0.0
C261 C 0.8414 0.65024 0.18109 0.0
H262 H 0.94003 0.74214 0.13867 0.0
C263 C 0.94458 0.84024 0.22088 0.0
C264 C 0.99328 0.86141 0.22485 0.0
C265 C 0.91644 0.79629 0.20771 0.0
C266 C 0.91281 0.71673 0.15089 0.0
H267 H 0.71424 0.49764 0.13104 0.0
H268 H 0.7567 0.57489 0.15409 0.0
H269 H 0.89024 0.66819 0.11169 0.0
H270 H 0.04973 0.85125 0.21795 0.0
H271 H 1.00035 0.7753 0.19344 0.0
H272 H 0.86333 0.70024 0.21969 0.0
C273 C 0.77413 0.56383 0.13984 0.0
C274 C 0.88422 0.67408 0.13552 0.0
C275 C 0.74948 0.51958 0.12634 0.0
C276 C 1.01267 0.83682 0.21504 0.0
C277 C 0.98438 0.7931 0.20112 0.0
C278 C 0.86945 0.69332 0.19615 0.0
C279 C 0.82061 0.59317 0.13506 0.0
C280 C 0.84852 0.63979 0.15056 0.0
C281 C 0.93599 0.77245 0.19729 0.0
C282 C 0.90587 0.72679 0.18139 0.0
H283 H 0.8342 0.52269 0.08786 0.0
H284 H 0.87693 0.59769 0.11202 0.0
H285 H 0.81491 0.62497 0.19381 0.0
H286 H 0.92773 0.85786 0.22693 0.0
H287 H 0.87926 0.78141 0.20463 0.0
C288 C 0.08258 0.20082 0.79 0.0
C289 C 0.10168 0.18484 0.76938 0.0
C290 C 0.10804 0.24534 0.80298 0.0
C291 C 0.21597 0.35554 0.79435 0.0
H292 H 0.20404 0.38269 0.88098 0.0
C293 C 0.32562 0.53554 0.85264 0.0
C294 C 0.33767 0.54233 0.8861 0.0
C295 C 0.29492 0.49273 0.83809 0.0
C296 C 0.20852 0.37575 0.85694 0.0
H297 H 0.16251 0.20365 0.74609 0.0
H298 H 0.20673 0.27909 0.76929 0.0
H299 H 0.15393 0.30759 0.85617 0.0
H300 H 0.32757 0.50978 0.93063 0.0
H301 H 0.27651 0.43455 0.90528 0.0
H302 H 0.27248 0.42238 0.79569 0.0
C303 C 0.17177 0.25846 0.77489 0.0
C304 C 0.17889 0.33257 0.84236 0.0
C305 C 0.14626 0.21459 0.76165 0.0
C306 C 0.31905 0.50533 0.90473 0.0
C307 C 0.28918 0.46224 0.89011 0.0
C308 C 0.24619 0.39827 0.80912 0.0
C309 C 0.15337 0.27473 0.79592 0.0
C310 C 0.18243 0.3216 0.8109 0.0
C311 C 0.27611 0.4552 0.85652 0.0
C312 C 0.24321 0.40923 0.84074 0.0
H313 H 0.04838 0.17881 0.79654 0.0
H314 H 0.09219 0.25655 0.81867 0.0
H315 H 0.21939 0.3492 0.76985 0.0
H316 H 0.33858 0.56367 0.83779 0.0
H317 H 0.28517 0.48948 0.81237 0.0
C318 C 0.55383 0.81728 0.8659 0.0
C319 C 0.55212 0.79546 0.89424 0.0
C320 C 0.59522 0.84063 0.85201 0.0
C321 C 0.72381 0.8896 0.87083 0.0
H322 H 0.72022 0.88692 0.77831 0.0
C323 C 0.85345 0.92622 0.76734 0.0
C324 C 0.89397 0.96524 0.78106 0.0
C325 C 0.81226 0.90845 0.78108 0.0
C326 C 0.7221 0.88786 0.80423 0.0
H327 H 0.59318 0.78113 0.92983 0.0
H328 H 0.66402 0.82053 0.90564 0.0
H329 H 0.64824 0.85021 0.80186 0.0
H330 H 0.9223 1.01604 0.8204 0.0
H331 H 0.85022 0.98539 0.84428 0.0
H332 H 0.79766 0.9259 0.87322 0.0
C333 C 0.63398 0.82072 0.89431 0.0
C334 C 0.6805 0.86719 0.81781 0.0
C335 C 0.59288 0.79762 0.90814 0.0
C336 C 0.89193 0.98596 0.80913 0.0
C337 C 0.85049 0.96813 0.82293 0.0
C338 C 0.7654 0.91018 0.85726 0.0
C339 C 0.63609 0.84282 0.86606 0.0
C340 C 0.68057 0.8672 0.85137 0.0
C341 C 0.80986 0.92906 0.80907 0.0
C342 C 0.76534 0.90924 0.8237 0.0
H343 H 0.52327 0.81646 0.85447 0.0
H344 H 0.59525 0.85744 0.83045 0.0
H345 H 0.7257 0.89124 0.89675 0.0
H346 H 0.8534 0.909 0.74584 0.0
H347 H 0.78239 0.87793 0.76991 0.0
C348 C 0.1639 0.95988 0.78903 0.0
C349 C 0.1152 0.93256 0.78498 0.0
C350 C 0.1919 0.94423 0.80264 0.0
C351 C 0.19565 0.86947 0.86002 0.0
H352 H 0.29378 0.8753 0.81711 0.0
C353 C 0.29493 0.78572 0.90972 0.0
C354 C 0.34073 0.80213 0.90393 0.0
C355 C 0.26953 0.80384 0.8959 0.0
C356 C 0.26723 0.87418 0.82984 0.0
H357 H 0.05854 0.86665 0.79256 0.0
H358 H 0.10772 0.84035 0.8178 0.0
H359 H 0.24473 0.90111 0.79103 0.0
H360 H 0.39618 0.85183 0.87969 0.0
H361 H 0.35252 0.88525 0.85665 0.0
H362 H 0.21885 0.84465 0.89942 0.0
C363 C 0.12379 0.87379 0.80976 0.0
C364 C 0.2388 0.8886 0.81466 0.0
C365 C 0.09563 0.88906 0.79541 0.0
C366 C 0.36102 0.83839 0.88468 0.0
C367 C 0.33566 0.85718 0.87117 0.0
C368 C 0.22463 0.856 0.87551 0.0
C369 C 0.17222 0.90125 0.81346 0.0
C370 C 0.20235 0.88585 0.82943 0.0
C371 C 0.2892 0.83973 0.87623 0.0
C372 C 0.26052 0.85744 0.86051 0.0
H373 H 0.1809 0.99407 0.78261 0.0
H374 H 0.22909 0.96636 0.80564 0.0
H375 H 0.16839 0.86781 0.87223 0.0
H376 H 0.27778 0.75756 0.92416 0.0
H377 H 0.23377 0.78845 0.89996 0.0
C378 C 0.92394 0.4501 0.57382 0.0
C379 C 0.88356 0.44877 0.56004 0.0
C380 C 0.96512 0.47291 0.56007 0.0
C381 C 1.01249 0.52025 0.484 0.0
H382 H 0.12928 0.57803 0.53983 0.0
C383 C 0.2239 0.63966 0.47619 0.0
C384 C 0.22634 0.61934 0.44807 0.0
C385 C 0.18234 0.62138 0.48986 0.0
C386 C 0.09712 0.56256 0.52376 0.0
H387 H 0.85544 0.47083 0.52054 0.0
H388 H 0.92758 0.51127 0.49665 0.0
H389 H 0.05708 0.54312 0.56307 0.0
H390 H 0.18639 0.56334 0.4126 0.0
H391 H 0.11506 0.5315 0.43642 0.0
H392 H 0.05258 0.54046 0.44468 0.0
C393 C 0.92717 0.49405 0.51805 0.0
C394 C 0.0554 0.54185 0.53716 0.0
C395 C 0.8857 0.47099 0.53185 0.0
C396 C 0.1861 0.58022 0.43416 0.0
C397 C 0.14476 0.56202 0.44776 0.0
C398 C 0.05422 0.54102 0.4706 0.0
C399 C 0.96768 0.49553 0.53203 0.0
C400 C 1.0123 0.51984 0.51754 0.0
C401 C 0.14197 0.58227 0.47578 0.0
C402 C 0.09732 0.56211 0.49023 0.0
H403 H 0.92388 0.43325 0.59539 0.0
H404 H 0.99489 0.47217 0.57131 0.0
H405 H 0.98032 0.50357 0.46793 0.0
H406 H 0.25405 0.66981 0.48761 0.0
H407 H 0.18175 0.63834 0.51126 0.0
C408 C 0.69842 0.49823 0.54865 0.0
C409 C 0.67709 0.46272 0.56846 0.0
C410 C 0.67387 0.51711 0.53383 0.0
C411 C 0.55738 0.48765 0.50204 0.0
H412 H 0.59609 0.61208 0.515 0.0
C413 C 0.43442 0.55094 0.45883 0.0
C414 C 0.45334 0.59509 0.44999 0.0
C415 C 0.46302 0.53564 0.47223 0.0
C416 C 0.58497 0.57737 0.51041 0.0
H417 H 0.6134 0.42006 0.58861 0.0
H418 H 0.57098 0.45208 0.5623 0.0
H419 H 0.64546 0.58569 0.53929 0.0
H420 H 0.51835 0.65769 0.44915 0.0
H421 H 0.56742 0.63032 0.4698 0.0
H422 H 0.49772 0.47899 0.4725 0.0
C423 C 0.60658 0.46546 0.55836 0.0
C424 C 0.61337 0.56232 0.52457 0.0
C425 C 0.63118 0.44733 0.57358 0.0
C426 C 0.50188 0.62311 0.45464 0.0
C427 C 0.53041 0.60759 0.46738 0.0
C428 C 0.52943 0.50278 0.48732 0.0
C429 C 0.62736 0.50012 0.53803 0.0
C430 C 0.59954 0.5172 0.52088 0.0
C431 C 0.51157 0.56376 0.47678 0.0
C432 C 0.54238 0.54782 0.49158 0.0
H433 H 0.73363 0.51079 0.54411 0.0
H434 H 0.69069 0.54393 0.51827 0.0
H435 H 0.54605 0.45268 0.49865 0.0
H436 H 0.39741 0.52801 0.45554 0.0
H437 H 0.44675 0.50185 0.47953 0.0
C438 C 0.41661 0.85197 0.46815 0.0
C439 C 0.42194 0.84245 0.43687 0.0
C440 C 0.44348 0.89551 0.48269 0.0
C441 C 0.55533 0.99956 0.47665 0.0
H442 H 0.51362 0.0522 0.53585 0.0
C443 C 0.66652 0.18472 0.52464 0.0
C444 C 0.66579 0.19582 0.55676 0.0
C445 C 0.63678 0.14127 0.51081 0.0
C446 C 0.526 0.03778 0.51966 0.0
H447 H 0.4571 0.87165 0.39557 0.0
H448 H 0.50254 0.9473 0.42034 0.0
H449 H 0.45929 0.97816 0.50954 0.0
H450 H 0.63388 0.1691 0.5997 0.0
H451 H 0.58217 0.09328 0.57561 0.0
H452 H 0.6219 0.05899 0.48666 0.0
C453 C 0.47888 0.92117 0.43415 0.0
C454 C 0.49476 0.99529 0.50451 0.0
C455 C 0.45238 0.8778 0.41978 0.0
C456 C 0.63517 0.16192 0.57484 0.0
C457 C 0.60532 0.11845 0.56097 0.0
C458 C 0.58644 0.04195 0.49171 0.0
C459 C 0.47608 0.93043 0.4662 0.0
C460 C 0.50893 0.97569 0.48261 0.0
C461 C 0.60533 0.10763 0.52865 0.0
C462 C 0.57223 0.06179 0.51333 0.0
H463 H 0.39384 0.82539 0.48209 0.0
H464 H 0.44039 0.90127 0.50741 0.0
H465 H 0.56796 0.98524 0.4606 0.0
H466 H 0.68874 0.21003 0.50967 0.0
H467 H 0.63739 0.13444 0.48574 0.0
C468 C 0.05762 0.065 0.62683 0.0
C469 C 1.01161 0.04631 0.63291 0.0
C470 C 0.06832 0.06886 0.59535 0.0
C471 C 1.01904 0.02312 0.51208 0.0
H472 H 0.12194 0.13442 0.49007 0.0
C473 C 0.05493 0.05833 0.38077 0.0
C474 C 0.10111 0.08314 0.37464 0.0
C475 C 0.04421 0.05318 0.41227 0.0
C476 C 0.09355 0.10284 0.49584 0.0
H477 H 0.94075 1.0166 0.61066 0.0
H478 H 0.95941 0.02317 0.55545 0.0
H479 H 0.10263 0.12643 0.54481 0.0
H480 H 0.17226 0.12132 0.39679 0.0
H481 H 0.15379 0.11162 0.4519 0.0
H482 H 1.01026 0.99917 0.46332 0.0
C483 C 0.98716 0.03476 0.57516 0.0
C484 C 0.08238 0.09835 0.52724 0.0
C485 C 0.97649 0.0313 0.60671 0.0
C486 C 0.13636 0.1024 0.40078 0.0
C487 C 0.12568 0.09693 0.43235 0.0
C488 C 1.03044 0.02745 0.48072 0.0
C489 C 1.03325 0.05384 0.56914 0.0
C490 C 0.04495 0.05848 0.53571 0.0
C491 C 0.07941 0.07242 0.43853 0.0
C492 C 0.06778 0.06743 0.47213 0.0
H493 H 0.08559 0.07749 0.64641 0.0
H494 H 0.10411 0.08339 0.59152 0.0
H495 H 0.99038 0.99178 0.51797 0.0
H496 H 1.02688 0.0438 0.36119 0.0
H497 H 1.00817 0.03486 0.41597 0.0
C498 C 0.7287 0.38616 0.96133 0.0
C499 C 0.6828 0.36808 0.96746 0.0
C500 C 0.73931 0.39017 0.92979 0.0
C501 C 0.68979 0.34604 0.84623 0.0
H502 H 0.79032 0.45907 0.82442 0.0
C503 C 0.72087 0.38497 0.7145 0.0
C504 C 0.76648 0.41202 0.70771 0.0
C505 C 0.7113 0.37836 0.74626 0.0
C506 C 0.76265 0.42698 0.83009 0.0
H507 H 0.612 0.33915 0.9453 0.0
H508 H 0.63045 0.34575 0.89007 0.0
H509 H 0.7726 0.44926 0.87954 0.0
H510 H 0.83792 0.45239 0.72887 0.0
H511 H 0.82162 0.43997 0.78433 0.0
H512 H 0.68017 0.32333 0.79704 0.0
C513 C 0.65821 0.35691 0.90973 0.0
C514 C 0.7524 0.42147 0.86174 0.0
C515 C 0.64767 0.35343 0.9413 0.0
C516 C 0.8024 0.43179 0.73341 0.0
C517 C 0.79293 0.42477 0.76519 0.0
C518 C 0.70036 0.35134 0.81465 0.0
C519 C 0.70421 0.37571 0.90363 0.0
C520 C 0.71569 0.38105 0.87012 0.0
C521 C 0.74717 0.39824 0.77211 0.0
C522 C 0.73677 0.39201 0.80605 0.0
H523 H 0.75661 0.39822 0.98093 0.0
H524 H 0.77504 0.40451 0.92585 0.0
H525 H 0.66165 0.31431 0.85207 0.0
H526 H 0.69234 0.36989 0.69527 0.0
H527 H 0.67557 0.35847 0.75049 0.0
C528 C 0.3082 0.68796 0.27377 0.0
C529 C 0.34339 0.70468 0.30001 0.0
C530 C 0.31908 0.69282 0.24224 0.0
C531 C 0.41234 0.76302 0.19469 0.0
H532 H 0.34655 0.66412 0.12998 0.0
C533 C 0.46745 0.77642 0.06775 0.0
C534 C 0.43235 0.75543 0.04164 0.0
C535 C 0.45709 0.76907 0.09933 0.0
C536 C 0.3649 0.69231 0.1476 0.0
H537 H 0.41764 0.74022 0.31365 0.0
H538 H 0.43656 0.74867 0.25876 0.0
H539 H 0.32674 0.65362 0.18468 0.0
H540 H 0.35867 0.71089 0.02827 0.0
H541 H 0.34042 0.69871 0.0831 0.0
H542 H 0.44984 0.80209 0.15769 0.0
C543 C 0.40056 0.73169 0.26255 0.0
C544 C 0.35357 0.68619 0.17899 0.0
C545 C 0.38968 0.7264 0.29402 0.0
C546 C 0.38666 0.72691 0.04782 0.0
C547 C 0.37621 0.71989 0.07935 0.0
C548 C 0.42338 0.76928 0.16325 0.0
C549 C 0.36542 0.71505 0.2363 0.0
C550 C 0.37722 0.72146 0.20289 0.0
C551 C 0.41125 0.74091 0.10559 0.0
C552 C 0.39985 0.73401 0.13924 0.0
H553 H 0.27226 0.67092 0.27766 0.0
H554 H 0.29125 0.6799 0.22249 0.0
H555 H 0.43077 0.79101 0.21248 0.0
H556 H 0.50301 0.7982 0.06371 0.0
H557 H 0.48515 0.78524 0.11884 0.0
C558 C 0.07296 1.01358 0.11127 0.0
C559 C 1.03165 0.99006 0.12484 0.0
C560 C 0.07741 0.99802 0.08217 0.0
C561 C 1.00652 0.93759 0.0085 0.0
H562 H 0.12608 0.96804 0.9852 0.0
C563 C 0.04398 0.97407 0.8802 0.0
C564 C 0.08134 1.01792 0.87961 0.0
C565 C 1.03781 0.95184 0.90835 0.0
C566 C 0.09224 0.95855 0.99135 0.0
H567 H 0.96339 0.93047 0.11947 0.0
H568 H 0.97085 0.90353 0.06795 0.0
H569 H 0.11345 0.96122 0.04159 0.0
H570 H 0.1432 0.07159 0.90717 0.0
H571 H 0.13232 0.03308 0.95643 0.0
H572 H 0.98624 0.93797 0.95867 0.0
C573 C 0.99971 0.93414 0.07994 0.0
C574 C 0.08502 0.95472 0.02354 0.0
C575 C 0.99527 0.94979 0.10919 0.0
C576 C 0.11411 0.03791 0.90699 0.0
C577 C 0.10804 1.01564 0.93509 0.0
C578 C 1.01366 0.94116 0.97634 0.0
C579 C 1.04061 0.95853 0.06591 0.0
C580 C 0.04313 0.94726 0.03252 0.0
C581 C 0.06906 0.97296 0.9363 0.0
C582 C 0.0575 0.95456 0.96778 0.0
H583 H 0.10139 0.04491 0.12259 0.0
H584 H 0.10894 1.01827 0.07164 0.0
H585 H 0.97386 0.93182 0.01463 0.0
H586 H 1.01901 0.95716 0.85911 0.0
H587 H 1.00772 0.91881 0.90861 0.0
C588 C 0.77498 0.32576 0.23041 0.0
C589 C 0.74032 0.33269 0.21552 0.0
C590 C 0.76911 0.3043 0.25897 0.0
C591 C 0.6828 0.24255 0.31536 0.0
H592 H 0.78454 0.32026 0.38031 0.0
C593 C 0.66014 0.30031 0.43338 0.0
C594 C 0.69273 0.3113 0.46064 0.0
C595 C 0.66458 0.2831 0.40494 0.0
C596 C 0.75621 0.29716 0.3626 0.0
H597 H 0.67173 0.321 0.21799 0.0
H598 H 0.66175 0.28453 0.26789 0.0
H599 H 0.79613 0.32607 0.32422 0.0
H600 H 0.75303 0.30881 0.48038 0.0
H601 H 0.76162 0.28005 0.4302 0.0
H602 H 0.6419 0.21654 0.35389 0.0
C603 C 0.69306 0.29462 0.25732 0.0
C604 C 0.76286 0.30048 0.33033 0.0
C605 C 0.69891 0.31594 0.22884 0.0
C606 C 0.72825 0.3021 0.45946 0.0
C607 C 0.73285 0.28508 0.43091 0.0
C608 C 0.67609 0.2394 0.34766 0.0
C609 C 0.7285 0.28947 0.27311 0.0
C610 C 0.72542 0.27527 0.30633 0.0
C611 C 0.70179 0.27663 0.40315 0.0
C612 C 0.71201 0.2687 0.37132 0.0
H613 H 0.80678 0.33729 0.22018 0.0
H614 H 0.79683 0.30045 0.27048 0.0
H615 H 0.65365 0.22189 0.29734 0.0
H616 H 0.63248 0.30705 0.43353 0.0
H617 H 0.64054 0.27766 0.38378 0.0
C618 C 0.4518 0.68206 0.56464 0.0
C619 C 0.4145 0.68478 0.54942 0.0
C620 C 0.44821 0.66174 0.59359 0.0
C621 C 0.36408 0.59392 0.64962 0.0
H622 H 0.46176 0.67634 0.71511 0.0
C623 C 0.33282 0.64355 0.7674 0.0
C624 C 0.36587 0.65705 0.79466 0.0
C625 C 0.33946 0.62811 0.73904 0.0
C626 C 0.43472 0.65201 0.69724 0.0
H627 H 0.34403 0.66756 0.55212 0.0
H628 H 0.33792 0.63295 0.60258 0.0
H629 H 0.47385 0.68435 0.65913 0.0
H630 H 0.42935 0.66053 0.81468 0.0
H631 H 0.44165 0.63485 0.76468 0.0
H632 H 0.32357 0.56418 0.68786 0.0
C633 C 0.36956 0.64537 0.59193 0.0
C634 C 0.44168 0.65661 0.66505 0.0
C635 C 0.37317 0.6656 0.56311 0.0
C636 C 0.40411 0.6519 0.79369 0.0
C637 C 0.41087 0.63663 0.76526 0.0
C638 C 0.35704 0.58947 0.68183 0.0
C639 C 0.40725 0.64381 0.60775 0.0
C640 C 0.40534 0.62946 0.64089 0.0
C641 C 0.37932 0.62593 0.73742 0.0
C642 C 0.39131 0.6203 0.70568 0.0
H643 H 0.48374 0.69567 0.55424 0.0
H644 H 0.47773 0.66086 0.60523 0.0
H645 H 0.33591 0.57182 0.63143 0.0
H646 H 0.30304 0.64708 0.76748 0.0
H647 H 0.31489 0.62079 0.71781 0.0
loop_
_geom_bond_atom_site_label_1
_geom_bond_atom_site_label_2
_geom_bond_distance
_geom_bond_site_symmetry_2
_ccdc_geom_bond_type
C0 C1 1.351 . S
C0 N3 1.368 . S
C0 H5 0.931 . S
C1 C0 1.351 . S
C1 N2 1.373 . S
C1 H29 0.930 . S
N2 C1 1.373 . S
N2 C4 1.340 . S
N3 C0 1.368 . S
N3 C4 1.321 . S
N3 Co6 2.135 . S
C4 N2 1.340 . S
C4 N3 1.321 . S
C4 H28 0.930 . S
H5 C0 0.931 . S
Co6 N3 2.135 . S
Co6 N9 2.121 . S
Co6 O14 2.055 . S
Co6 O17 2.039 . S
Co6 N20 2.140 1_445 S
C7 O8 1.227 . S
C7 O17 1.265 1_655 S
O8 C7 1.227 . S
N9 Co6 2.121 . S
N9 C11 1.375 1_455 S
N9 C12 1.313 . S
C10 C11 1.338 . S
C10 N13 1.377 1_655 S
C10 H30 0.930 . S
C11 N9 1.375 1_655 S
C11 C10 1.338 . S
C11 H15 0.931 . S
C12 N9 1.313 . S
C12 N13 1.344 . S
C12 H16 0.930 . S
N13 C10 1.377 1_455 S
N13 C12 1.344 . S
O14 Co6 2.055 . S
O14 C18 1.253 . S
H15 C11 0.931 . S
H16 C12 0.930 . S
O17 Co6 2.039 . S
O17 C7 1.265 1_455 S
C18 O14 1.253 . S
C18 O19 1.227 . S
O19 C18 1.227 . S
N20 Co6 2.140 1_665 S
N20 C23 1.346 . S
N20 C24 1.354 . S
C21 C22 1.387 . S
C21 C25 1.391 . S
C22 C21 1.387 . S
C22 C23 1.369 . S
C22 H31 0.929 . S
C23 N20 1.346 . S
C23 C22 1.369 . S
C23 H26 0.928 . S
C24 N20 1.354 . S
C24 C25 1.372 . S
C24 H27 0.921 1_655 S
C25 C21 1.391 . S
C25 C24 1.372 . S
C25 H32 0.930 . S
H26 C23 0.928 . S
H27 C24 0.921 1_455 S
H28 C4 0.930 . S
H29 C1 0.930 . S
H30 C10 0.930 . S
H31 C22 0.929 . S
H32 C25 0.930 . S
C33 C34 1.351 . S
C33 N36 1.368 1_565 S
C33 H38 0.931 . S
C34 C33 1.351 . S
C34 N35 1.373 1_565 S
C34 H62 0.930 . S
N35 C34 1.373 1_545 S
N35 C37 1.340 1_655 S
N36 C33 1.368 1_545 S
N36 C37 1.321 1_655 S
N36 Co39 2.135 . S
C37 N35 1.340 1_455 S
C37 N36 1.321 1_455 S
C37 H61 0.930 . S
H38 C33 0.931 . S
Co39 N36 2.135 . S
Co39 N42 2.121 1_655 S
Co39 O47 2.055 1_545 S
Co39 O50 2.039 1_655 S
Co39 N53 2.140 1_645 S
C40 O41 1.227 . S
C40 O50 1.265 . S
O41 C40 1.227 . S
N42 Co39 2.121 1_455 S
N42 C44 1.375 . S
N42 C45 1.313 1_455 S
C43 C44 1.338 . S
C43 N46 1.377 . S
C43 H63 0.930 . S
C44 N42 1.375 . S
C44 C43 1.338 . S
C44 H48 0.931 . S
C45 N42 1.313 1_655 S
C45 N46 1.344 1_655 S
C45 H49 0.930 1_545 S
N46 C43 1.377 . S
N46 C45 1.344 1_455 S
O47 Co39 2.055 1_565 S
O47 C51 1.253 . S
H48 C44 0.931 . S
H49 C45 0.930 1_565 S
O50 Co39 2.039 1_455 S
O50 C40 1.265 . S
C51 O47 1.253 . S
C51 O52 1.227 . S
O52 C51 1.227 . S
N53 Co39 2.140 1_465 S
N53 C56 1.346 . S
N53 C57 1.345 . S
C54 C55 1.387 . S
C54 C58 1.391 . S
C55 C54 1.387 . S
C55 C56 1.369 . S
C55 H64 0.929 . S
C56 N53 1.346 . S
C56 C55 1.369 . S
C56 H59 0.928 1_565 S
C57 N53 1.345 . S
C57 C58 1.371 . S
C57 H60 0.931 . S
C58 C54 1.391 . S
C58 C57 1.371 . S
C58 H65 0.930 . S
H59 C56 0.928 1_545 S
H60 C57 0.931 . S
H61 C37 0.930 . S
H62 C34 0.930 . S
H63 C43 0.930 . S
H64 C55 0.929 . S
H65 C58 0.930 . S
C66 C67 1.351 . S
C66 N69 1.368 . S
C66 H71 0.931 . S
C67 C66 1.351 . S
C67 N68 1.373 . S
C67 H95 0.930 . S
N68 C67 1.373 . S
N68 C70 1.340 . S
N69 C66 1.368 . S
N69 C70 1.321 . S
N69 Co72 2.135 . S
C70 N68 1.340 . S
C70 N69 1.321 . S
C70 H94 0.930 . S
H71 C66 0.931 . S
Co72 N69 2.135 . S
Co72 N75 2.121 . S
Co72 O80 2.055 . S
Co72 O83 2.039 . S
Co72 N86 2.140 . S
C73 O74 1.227 . S
C73 O83 1.265 . S
O74 C73 1.227 . S
N75 Co72 2.121 . S
N75 C77 1.375 . S
N75 C78 1.313 . S
C76 C77 1.338 . S
C76 N79 1.377 . S
C76 H96 0.930 . S
C77 N75 1.375 . S
C77 C76 1.338 . S
C77 H81 0.931 . S
C78 N75 1.313 . S
C78 N79 1.344 . S
C78 H82 0.930 . S
N79 C76 1.377 . S
N79 C78 1.344 . S
O80 Co72 2.055 . S
O80 C84 1.253 . S
H81 C77 0.931 . S
H82 C78 0.930 . S
O83 Co72 2.039 . S
O83 C73 1.265 . S
C84 O80 1.253 . S
C84 O85 1.227 . S
O85 C84 1.227 . S
N86 Co72 2.140 . S
N86 C89 1.346 . S
N86 C90 1.345 . S
C87 C88 1.387 . S
C87 C91 1.391 . S
C88 C87 1.387 . S
C88 C89 1.369 . S
C88 H97 0.929 . S
C89 N86 1.346 . S
C89 C88 1.369 . S
C89 H92 0.928 . S
C90 N86 1.345 . S
C90 C91 1.371 . S
C90 H93 0.931 . S
C91 C87 1.391 . S
C91 C90 1.371 . S
C91 H98 0.930 . S
H92 C89 0.928 . S
H93 C90 0.931 . S
H94 C70 0.930 . S
H95 C67 0.930 . S
H96 C76 0.930 . S
H97 C88 0.929 . S
H98 C91 0.930 . S
C99 C100 1.351 . S
C99 N102 1.368 . S
C99 H104 0.931 . S
C100 C99 1.351 . S
C100 N101 1.373 . S
C100 H128 0.930 . S
N101 C100 1.373 . S
N101 C103 1.340 . S
N102 C99 1.368 . S
N102 C103 1.321 . S
N102 Co105 2.135 . S
C103 N101 1.340 . S
C103 N102 1.321 . S
C103 H127 0.930 . S
H104 C99 0.931 . S
Co105 N102 2.135 . S
Co105 N108 2.121 . S
Co105 O113 2.055 . S
Co105 O116 2.039 . S
Co105 N119 2.140 . S
C106 O107 1.227 . S
C106 O116 1.265 . S
O107 C106 1.227 . S
N108 Co105 2.121 . S
N108 C110 1.375 . S
N108 C111 1.313 . S
C109 C110 1.338 . S
C109 N112 1.377 . S
C109 H129 0.930 . S
C110 N108 1.375 . S
C110 C109 1.338 . S
C110 H114 0.931 . S
C111 N108 1.313 . S
C111 N112 1.344 . S
C111 H115 0.930 . S
N112 C109 1.377 . S
N112 C111 1.344 . S
O113 Co105 2.055 . S
O113 C117 1.253 . S
H114 C110 0.931 . S
H115 C111 0.930 . S
O116 Co105 2.039 . S
O116 C106 1.265 . S
C117 O113 1.253 . S
C117 O118 1.227 . S
O118 C117 1.227 . S
N119 Co105 2.140 . S
N119 C122 1.346 . S
N119 C123 1.345 . S
C120 C121 1.387 . S
C120 C124 1.391 . S
C121 C120 1.387 . S
C121 C122 1.369 . S
C121 H130 0.929 . S
C122 N119 1.346 . S
C122 C121 1.369 . S
C122 H125 0.928 . S
C123 N119 1.345 . S
C123 C124 1.371 . S
C123 H126 0.931 . S
C124 C120 1.391 . S
C124 C123 1.371 . S
C124 H131 0.930 . S
H125 C122 0.928 . S
H126 C123 0.931 . S
H127 C103 0.930 . S
H128 C100 0.930 . S
H129 C109 0.930 . S
H130 C121 0.929 . S
H131 C124 0.930 . S
C132 C133 1.351 . S
C132 N135 1.368 . S
C132 H137 0.931 . S
C133 C132 1.351 . S
C133 N134 1.373 . S
C133 H161 0.930 . S
N134 C133 1.373 . S
N134 C136 1.340 . S
N135 C132 1.368 . S
N135 C136 1.321 . S
N135 Co138 2.135 . S
C136 N134 1.340 . S
C136 N135 1.321 . S
C136 H160 0.930 . S
H137 C132 0.931 . S
Co138 N135 2.135 . S
Co138 N141 2.121 . S
Co138 O146 2.055 . S
Co138 O149 2.039 . S
Co138 N152 2.140 . S
C139 O140 1.227 . S
C139 O149 1.265 . S
O140 C139 1.227 . S
N141 Co138 2.121 . S
N141 C143 1.375 . S
N141 C144 1.313 . S
C142 C143 1.338 . S
C142 N145 1.377 . S
C142 H162 0.930 . S
C143 N141 1.375 . S
C143 C142 1.338 . S
C143 H147 0.931 . S
C144 N141 1.313 . S
C144 N145 1.344 . S
C144 H148 0.930 . S
N145 C142 1.377 . S
N145 C144 1.344 . S
O146 Co138 2.055 . S
O146 C150 1.253 . S
H147 C143 0.931 . S
H148 C144 0.930 . S
O149 Co138 2.039 . S
O149 C139 1.265 . S
C150 O146 1.253 . S
C150 O151 1.227 . S
O151 C150 1.227 . S
N152 Co138 2.140 . S
N152 C155 1.346 . S
N152 C156 1.345 . S
C153 C154 1.387 . S
C153 C157 1.391 . S
C154 C153 1.387 . S
C154 C155 1.369 . S
C154 H163 0.929 . S
C155 N152 1.346 . S
C155 C154 1.369 . S
C155 H158 0.928 . S
C156 N152 1.345 . S
C156 C157 1.371 . S
C156 H159 0.931 . S
C157 C153 1.391 . S
C157 C156 1.371 . S
C157 H164 0.930 . S
H158 C155 0.928 . S
H159 C156 0.931 . S
H160 C136 0.930 . S
H161 C133 0.930 . S
H162 C142 0.930 . S
H163 C154 0.929 . S
H164 C157 0.930 . S
C165 C166 1.351 . S
C165 N168 1.368 . S
C165 H170 0.931 . S
C166 C165 1.351 . S
C166 N167 1.373 . S
C166 H194 0.930 . S
N167 C166 1.373 . S
N167 C169 1.340 . S
N168 C165 1.368 . S
N168 C169 1.321 . S
N168 Co171 2.135 . S
C169 N167 1.340 . S
C169 N168 1.321 . S
C169 H193 0.930 . S
H170 C165 0.931 . S
Co171 N168 2.135 . S
Co171 N174 2.121 . S
Co171 O179 2.055 . S
Co171 O182 2.039 . S
Co171 N185 2.140 . S
C172 O173 1.227 . S
C172 O182 1.265 . S
O173 C172 1.227 . S
N174 Co171 2.121 . S
N174 C176 1.375 . S
N174 C177 1.313 . S
C175 C176 1.338 . S
C175 N178 1.377 . S
C175 H195 0.930 . S
C176 N174 1.375 . S
C176 C175 1.338 . S
C176 H180 0.931 . S
C177 N174 1.313 . S
C177 N178 1.344 . S
C177 H181 0.930 . S
N178 C175 1.377 . S
N178 C177 1.344 . S
O179 Co171 2.055 . S
O179 C183 1.253 . S
H180 C176 0.931 . S
H181 C177 0.930 . S
O182 Co171 2.039 . S
O182 C172 1.265 . S
C183 O179 1.253 . S
C183 O184 1.227 . S
O184 C183 1.227 . S
N185 Co171 2.140 . S
N185 C188 1.346 . S
N185 C189 1.345 . S
C186 C187 1.387 . S
C186 C190 1.391 . S
C187 C186 1.387 . S
C187 C188 1.369 . S
C187 H196 0.929 . S
C188 N185 1.346 . S
C188 C187 1.369 . S
C188 H191 0.928 . S
C189 N185 1.345 . S
C189 C190 1.371 . S
C189 H192 0.931 . S
C190 C186 1.391 . S
C190 C189 1.371 . S
C190 H197 0.930 . S
H191 C188 0.928 . S
H192 C189 0.931 . S
H193 C169 0.930 . S
H194 C166 0.930 . S
H195 C175 0.930 . S
H196 C187 0.929 . S
H197 C190 0.930 . S
C198 C199 1.349 . S
C198 C200 1.327 . S
C198 H223 0.950 . S
C199 C198 1.349 . S
C199 C215 1.349 . S
C200 C198 1.327 . S
C200 C219 1.429 . S
C200 H224 0.950 . S
C201 C218 1.574 . S
C201 C220 1.368 . S
C201 H225 0.949 . S
H202 C206 0.949 . S
C203 C204 1.349 . S
C203 C205 1.327 . S
C203 H226 0.950 . S
C204 C203 1.349 . S
C204 C216 1.349 . S
C205 C203 1.327 . S
C205 C221 1.429 . S
C205 H227 0.950 . S
C206 H202 0.949 . S
C206 C214 1.574 . S
C206 C222 1.368 . S
H207 C215 0.950 . S
H208 C213 0.950 . S
H209 C214 0.949 . S
H210 C216 0.950 . S
H211 C217 0.950 . S
H212 C218 0.949 . S
C213 H208 0.950 . S
C213 C215 1.327 . S
C213 C219 1.429 . S
C214 C206 1.574 . S
C214 H209 0.949 . S
C214 C220 1.368 . S
C215 C199 1.349 . S
C215 H207 0.950 . S
C215 C213 1.327 . S
C216 C204 1.349 . S
C216 H210 0.950 . S
C216 C217 1.327 . S
C217 H211 0.950 . S
C217 C216 1.327 . S
C217 C221 1.429 . S
C218 C201 1.574 . S
C218 H212 0.949 . S
C218 C222 1.368 . S
C219 C200 1.429 . S
C219 C213 1.429 . S
C219 C220 1.523 . S
C220 C201 1.368 . S
C220 C214 1.368 . S
C220 C219 1.523 . S
C221 C205 1.429 . S
C221 C217 1.429 . S
C221 C222 1.523 . S
C222 C206 1.368 . S
C222 C218 1.368 . S
C222 C221 1.523 . S
H223 C198 0.950 . S
H224 C200 0.950 . S
H225 C201 0.949 . S
H226 C203 0.950 . S
H227 C205 0.950 . S
C228 C229 1.349 . S
C228 C230 1.327 . S
C228 H253 0.950 . S
C229 C228 1.349 . S
C229 C245 1.349 . S
C230 C228 1.327 . S
C230 C249 1.429 . S
C230 H254 0.950 . S
C231 C248 1.574 . S
C231 C250 1.368 . S
C231 H255 0.949 . S
H232 C236 0.949 . S
C233 C234 1.349 . S
C233 C235 1.327 . S
C233 H256 0.950 . S
C234 C233 1.349 . S
C234 C246 1.349 . S
C235 C233 1.327 . S
C235 C251 1.429 . S
C235 H257 0.950 . S
C236 H232 0.949 . S
C236 C244 1.574 . S
C236 C252 1.368 . S
H237 C245 0.950 . S
H238 C243 0.950 . S
H239 C244 0.949 . S
H240 C246 0.950 . S
H241 C247 0.950 . S
H242 C248 0.949 . S
C243 H238 0.950 . S
C243 C245 1.327 . S
C243 C249 1.429 . S
C244 C236 1.574 . S
C244 H239 0.949 . S
C244 C250 1.368 . S
C245 C229 1.349 . S
C245 H237 0.950 . S
C245 C243 1.327 . S
C246 C234 1.349 . S
C246 H240 0.950 . S
C246 C247 1.327 . S
C247 H241 0.950 . S
C247 C246 1.327 . S
C247 C251 1.429 . S
C248 C231 1.574 . S
C248 H242 0.949 . S
C248 C252 1.368 . S
C249 C230 1.429 . S
C249 C243 1.429 . S
C249 C250 1.523 . S
C250 C231 1.368 . S
C250 C244 1.368 . S
C250 C249 1.523 . S
C251 C235 1.429 . S
C251 C247 1.429 . S
C251 C252 1.523 . S
C252 C236 1.368 . S
C252 C248 1.368 . S
C252 C251 1.523 . S
H253 C228 0.950 . S
H254 C230 0.950 . S
H255 C231 0.949 . S
H256 C233 0.950 . S
H257 C235 0.950 . S
C258 C259 1.349 . S
C258 C260 1.327 . S
C258 H283 0.950 . S
C259 C258 1.349 . S
C259 C275 1.349 . S
C260 C258 1.327 . S
C260 C279 1.429 . S
C260 H284 0.950 . S
C261 C278 1.574 . S
C261 C280 1.368 . S
C261 H285 0.949 . S
H262 C266 0.949 . S
C263 C264 1.349 . S
C263 C265 1.327 . S
C263 H286 0.950 . S
C264 C263 1.349 . S
C264 C276 1.349 . S
C265 C263 1.327 . S
C265 C281 1.429 . S
C265 H287 0.950 . S
C266 H262 0.949 . S
C266 C274 1.574 . S
C266 C282 1.368 . S
H267 C275 0.950 . S
H268 C273 0.950 . S
H269 C274 0.949 . S
H270 C276 0.950 . S
H271 C277 0.950 . S
H272 C278 0.949 . S
C273 H268 0.950 . S
C273 C275 1.327 . S
C273 C279 1.429 . S
C274 C266 1.574 . S
C274 H269 0.949 . S
C274 C280 1.368 . S
C275 C259 1.349 . S
C275 H267 0.950 . S
C275 C273 1.327 . S
C276 C264 1.349 . S
C276 H270 0.950 . S
C276 C277 1.327 . S
C277 H271 0.950 . S
C277 C276 1.327 . S
C277 C281 1.429 . S
C278 C261 1.574 . S
C278 H272 0.949 . S
C278 C282 1.368 . S
C279 C260 1.429 . S
C279 C273 1.429 . S
C279 C280 1.523 . S
C280 C261 1.368 . S
C280 C274 1.368 . S
C280 C279 1.523 . S
C281 C265 1.429 . S
C281 C277 1.429 . S
C281 C282 1.523 . S
C282 C266 1.368 . S
C282 C278 1.368 . S
C282 C281 1.523 . S
H283 C258 0.950 . S
H284 C260 0.950 . S
H285 C261 0.949 . S
H286 C263 0.950 . S
H287 C265 0.950 . S
C288 C289 1.349 . S
C288 C290 1.327 . S
C288 H313 0.950 . S
C289 C288 1.349 . S
C289 C305 1.349 . S
C290 C288 1.327 . S
C290 C309 1.429 . S
C290 H314 0.950 . S
C291 C308 1.574 . S
C291 C310 1.368 . S
C291 H315 0.949 . S
H292 C296 0.949 . S
C293 C294 1.349 . S
C293 C295 1.327 . S
C293 H316 0.950 . S
C294 C293 1.349 . S
C294 C306 1.349 . S
C295 C293 1.327 . S
C295 C311 1.429 . S
C295 H317 0.950 . S
C296 H292 0.949 . S
C296 C304 1.574 . S
C296 C312 1.368 . S
H297 C305 0.950 . S
H298 C303 0.950 . S
H299 C304 0.949 . S
H300 C306 0.950 . S
H301 C307 0.950 . S
H302 C308 0.949 . S
C303 H298 0.950 . S
C303 C305 1.327 . S
C303 C309 1.429 . S
C304 C296 1.574 . S
C304 H299 0.949 . S
C304 C310 1.368 . S
C305 C289 1.349 . S
C305 H297 0.950 . S
C305 C303 1.327 . S
C306 C294 1.349 . S
C306 H300 0.950 . S
C306 C307 1.327 . S
C307 H301 0.950 . S
C307 C306 1.327 . S
C307 C311 1.429 . S
C308 C291 1.574 . S
C308 H302 0.949 . S
C308 C312 1.368 . S
C309 C290 1.429 . S
C309 C303 1.429 . S
C309 C310 1.523 . S
C310 C291 1.368 . S
C310 C304 1.368 . S
C310 C309 1.523 . S
C311 C295 1.429 . S
C311 C307 1.429 . S
C311 C312 1.523 . S
C312 C296 1.368 . S
C312 C308 1.368 . S
C312 C311 1.523 . S
H313 C288 0.950 . S
H314 C290 0.950 . S
H315 C291 0.949 . S
H316 C293 0.950 . S
H317 C295 0.950 . S
C318 C319 1.349 . S
C318 C320 1.327 . S
C318 H343 0.950 . S
C319 C318 1.349 . S
C319 C335 1.349 . S
C320 C318 1.327 . S
C320 C339 1.429 . S
C320 H344 0.950 . S
C321 C338 1.574 . S
C321 C340 1.368 . S
C321 H345 0.949 . S
H322 C326 0.949 . S
C323 C324 1.349 . S
C323 C325 1.327 . S
C323 H346 0.950 . S
C324 C323 1.349 . S
C324 C336 1.349 . S
C325 C323 1.327 . S
C325 C341 1.429 . S
C325 H347 0.950 . S
C326 H322 0.949 . S
C326 C334 1.574 . S
C326 C342 1.368 . S
H327 C335 0.950 . S
H328 C333 0.950 . S
H329 C334 0.949 . S
H330 C336 0.950 . S
H331 C337 0.950 . S
H332 C338 0.949 . S
C333 H328 0.950 . S
C333 C335 1.327 . S
C333 C339 1.429 . S
C334 C326 1.574 . S
C334 H329 0.949 . S
C334 C340 1.368 . S
C335 C319 1.349 . S
C335 H327 0.950 . S
C335 C333 1.327 . S
C336 C324 1.349 . S
C336 H330 0.950 . S
C336 C337 1.327 . S
C337 H331 0.950 . S
C337 C336 1.327 . S
C337 C341 1.429 . S
C338 C321 1.574 . S
C338 H332 0.949 . S
C338 C342 1.368 . S
C339 C320 1.429 . S
C339 C333 1.429 . S
C339 C340 1.523 . S
C340 C321 1.368 . S
C340 C334 1.368 . S
C340 C339 1.523 . S
C341 C325 1.429 . S
C341 C337 1.429 . S
C341 C342 1.523 . S
C342 C326 1.368 . S
C342 C338 1.368 . S
C342 C341 1.523 . S
H343 C318 0.950 . S
H344 C320 0.950 . S
H345 C321 0.949 . S
H346 C323 0.950 . S
H347 C325 0.950 . S
C348 C349 1.349 . S
C348 C350 1.327 . S
C348 H373 0.950 . S
C349 C348 1.349 . S
C349 C365 1.349 . S
C350 C348 1.327 . S
C350 C369 1.429 . S
C350 H374 0.950 . S
C351 C368 1.574 . S
C351 C370 1.368 . S
C351 H375 0.949 . S
H352 C356 0.949 . S
C353 C354 1.349 . S
C353 C355 1.327 . S
C353 H376 0.950 . S
C354 C353 1.349 . S
C354 C366 1.349 . S
C355 C353 1.327 . S
C355 C371 1.429 . S
C355 H377 0.950 . S
C356 H352 0.949 . S
C356 C364 1.574 . S
C356 C372 1.368 . S
H357 C365 0.950 . S
H358 C363 0.950 . S
H359 C364 0.949 . S
H360 C366 0.950 . S
H361 C367 0.950 . S
H362 C368 0.949 . S
C363 H358 0.950 . S
C363 C365 1.327 . S
C363 C369 1.429 . S
C364 C356 1.574 . S
C364 H359 0.949 . S
C364 C370 1.368 . S
C365 C349 1.349 . S
C365 H357 0.950 . S
C365 C363 1.327 . S
C366 C354 1.349 . S
C366 H360 0.950 . S
C366 C367 1.327 . S
C367 H361 0.950 . S
C367 C366 1.327 . S
C367 C371 1.429 . S
C368 C351 1.574 . S
C368 H362 0.949 . S
C368 C372 1.368 . S
C369 C350 1.429 . S
C369 C363 1.429 . S
C369 C370 1.523 . S
C370 C351 1.368 . S
C370 C364 1.368 . S
C370 C369 1.523 . S
C371 C355 1.429 . S
C371 C367 1.429 . S
C371 C372 1.523 . S
C372 C356 1.368 . S
C372 C368 1.368 . S
C372 C371 1.523 . S
H373 C348 0.950 . S
H374 C350 0.950 . S
H375 C351 0.949 . S
H376 C353 0.950 . S
H377 C355 0.950 . S
C378 C379 1.349 . S
C378 C380 1.327 . S
C378 H403 0.950 . S
C379 C378 1.349 . S
C379 C395 1.349 . S
C380 C378 1.327 . S
C380 C399 1.429 . S
C380 H404 0.950 . S
C381 C398 1.574 1_655 S
C381 C400 1.368 . S
C381 H405 0.949 . S
H382 C386 0.949 . S
C383 C384 1.349 . S
C383 C385 1.327 . S
C383 H406 0.950 . S
C384 C383 1.349 . S
C384 C396 1.349 . S
C385 C383 1.327 . S
C385 C401 1.429 . S
C385 H407 0.950 . S
C386 H382 0.949 . S
C386 C394 1.574 . S
C386 C402 1.368 . S
H387 C395 0.950 . S
H388 C393 0.950 . S
H389 C394 0.949 . S
H390 C396 0.950 . S
H391 C397 0.950 . S
H392 C398 0.949 . S
C393 H388 0.950 . S
C393 C395 1.327 . S
C393 C399 1.429 . S
C394 C386 1.574 . S
C394 H389 0.949 . S
C394 C400 1.368 1_455 S
C395 C379 1.349 . S
C395 H387 0.950 . S
C395 C393 1.327 . S
C396 C384 1.349 . S
C396 H390 0.950 . S
C396 C397 1.327 . S
C397 H391 0.950 . S
C397 C396 1.327 . S
C397 C401 1.429 . S
C398 C381 1.574 1_455 S
C398 H392 0.949 . S
C398 C402 1.368 . S
C399 C380 1.429 . S
C399 C393 1.429 . S
C399 C400 1.523 . S
C400 C381 1.368 . S
C400 C394 1.368 1_655 S
C400 C399 1.523 . S
C401 C385 1.429 . S
C401 C397 1.429 . S
C401 C402 1.523 . S
C402 C386 1.368 . S
C402 C398 1.368 . S
C402 C401 1.523 . S
H403 C378 0.950 . S
H404 C380 0.950 . S
H405 C381 0.949 . S
H406 C383 0.950 . S
H407 C385 0.950 . S
C408 C409 1.349 . S
C408 C410 1.327 . S
C408 H433 0.950 . S
C409 C408 1.349 . S
C409 C425 1.349 . S
C410 C408 1.327 . S
C410 C429 1.429 . S
C410 H434 0.950 . S
C411 C428 1.574 . S
C411 C430 1.368 . S
C411 H435 0.949 . S
H412 C416 0.949 . S
C413 C414 1.349 . S
C413 C415 1.327 . S
C413 H436 0.950 . S
C414 C413 1.349 . S
C414 C426 1.349 . S
C415 C413 1.327 . S
C415 C431 1.429 . S
C415 H437 0.950 . S
C416 H412 0.949 . S
C416 C424 1.574 . S
C416 C432 1.368 . S
H417 C425 0.950 . S
H418 C423 0.950 . S
H419 C424 0.949 . S
H420 C426 0.950 . S
H421 C427 0.950 . S
H422 C428 0.949 . S
C423 H418 0.950 . S
C423 C425 1.327 . S
C423 C429 1.429 . S
C424 C416 1.574 . S
C424 H419 0.949 . S
C424 C430 1.368 . S
C425 C409 1.349 . S
C425 H417 0.950 . S
C425 C423 1.327 . S
C426 C414 1.349 . S
C426 H420 0.950 . S
C426 C427 1.327 . S
C427 H421 0.950 . S
C427 C426 1.327 . S
C427 C431 1.429 . S
C428 C411 1.574 . S
C428 H422 0.949 . S
C428 C432 1.368 . S
C429 C410 1.429 . S
C429 C423 1.429 . S
C429 C430 1.523 . S
C430 C411 1.368 . S
C430 C424 1.368 . S
C430 C429 1.523 . S
C431 C415 1.429 . S
C431 C427 1.429 . S
C431 C432 1.523 . S
C432 C416 1.368 . S
C432 C428 1.368 . S
C432 C431 1.523 . S
H433 C408 0.950 . S
H434 C410 0.950 . S
H435 C411 0.949 . S
H436 C413 0.950 . S
H437 C415 0.950 . S
C438 C439 1.349 . S
C438 C440 1.327 . S
C438 H463 0.950 . S
C439 C438 1.349 . S
C439 C455 1.349 . S
C440 C438 1.327 . S
C440 C459 1.429 . S
C440 H464 0.950 . S
C441 C458 1.574 1_565 S
C441 C460 1.368 . S
C441 H465 0.949 . S
H442 C446 0.949 . S
C443 C444 1.349 . S
C443 C445 1.327 . S
C443 H466 0.950 . S
C444 C443 1.349 . S
C444 C456 1.349 . S
C445 C443 1.327 . S
C445 C461 1.429 . S
C445 H467 0.950 . S
C446 H442 0.949 . S
C446 C454 1.574 1_545 S
C446 C462 1.368 . S
H447 C455 0.950 . S
H448 C453 0.950 . S
H449 C454 0.949 . S
H450 C456 0.950 . S
H451 C457 0.950 . S
H452 C458 0.949 . S
C453 H448 0.950 . S
C453 C455 1.327 . S
C453 C459 1.429 . S
C454 C446 1.574 1_565 S
C454 H449 0.949 . S
C454 C460 1.368 . S
C455 C439 1.349 . S
C455 H447 0.950 . S
C455 C453 1.327 . S
C456 C444 1.349 . S
C456 H450 0.950 . S
C456 C457 1.327 . S
C457 H451 0.950 . S
C457 C456 1.327 . S
C457 C461 1.429 . S
C458 C441 1.574 1_545 S
C458 H452 0.949 . S
C458 C462 1.368 . S
C459 C440 1.429 . S
C459 C453 1.429 . S
C459 C460 1.523 . S
C460 C441 1.368 . S
C460 C454 1.368 . S
C460 C459 1.523 . S
C461 C445 1.429 . S
C461 C457 1.429 . S
C461 C462 1.523 . S
C462 C446 1.368 . S
C462 C458 1.368 . S
C462 C461 1.523 . S
H463 C438 0.950 . S
H464 C440 0.950 . S
H465 C441 0.949 . S
H466 C443 0.950 . S
H467 C445 0.950 . S
C468 C469 1.349 . S
C468 C470 1.327 . S
C468 H493 0.950 . S
C469 C468 1.349 . S
C469 C485 1.349 1_445 S
C470 C468 1.327 . S
C470 C489 1.429 . S
C470 H494 0.950 . S
C471 C488 1.574 . S
C471 C490 1.368 1_665 S
C471 H495 0.949 . S
H472 C476 0.949 . S
C473 C474 1.349 1_665 S
C473 C475 1.327 . S
C473 H496 0.950 . S
C474 C473 1.349 1_445 S
C474 C486 1.349 . S
C475 C473 1.327 . S
C475 C491 1.429 1_665 S
C475 H497 0.950 . S
C476 H472 0.949 . S
C476 C484 1.574 . S
C476 C492 1.368 . S
H477 C485 0.950 . S
H478 C483 0.950 . S
H479 C484 0.949 . S
H480 C486 0.950 . S
H481 C487 0.950 . S
H482 C488 0.949 . S
C483 H478 0.950 . S
C483 C485 1.327 . S
C483 C489 1.429 1_665 S
C484 C476 1.574 . S
C484 H479 0.949 . S
C484 C490 1.368 . S
C485 C469 1.349 1_665 S
C485 H477 0.950 . S
C485 C483 1.327 . S
C486 C474 1.349 . S
C486 H480 0.950 . S
C486 C487 1.327 . S
C487 H481 0.950 . S
C487 C486 1.327 . S
C487 C491 1.429 . S
C488 C471 1.574 . S
C488 H482 0.949 . S
C488 C492 1.368 1_665 S
C489 C470 1.429 . S
C489 C483 1.429 1_445 S
C489 C490 1.523 . S
C490 C471 1.368 1_445 S
C490 C484 1.368 . S
C490 C489 1.523 . S
C491 C475 1.429 1_445 S
C491 C487 1.429 . S
C491 C492 1.523 . S
C492 C476 1.368 . S
C492 C488 1.368 1_445 S
C492 C491 1.523 . S
H493 C468 0.950 . S
H494 C470 0.950 . S
H495 C471 0.949 . S
H496 C473 0.950 . S
H497 C475 0.950 . S
C498 C499 1.349 . S
C498 C500 1.327 . S
C498 H523 0.950 . S
C499 C498 1.349 . S
C499 C515 1.349 . S
C500 C498 1.327 . S
C500 C519 1.429 . S
C500 H524 0.950 . S
C501 C518 1.574 . S
C501 C520 1.368 . S
C501 H525 0.949 . S
H502 C506 0.949 . S
C503 C504 1.349 . S
C503 C505 1.327 . S
C503 H526 0.950 . S
C504 C503 1.349 . S
C504 C516 1.349 . S
C505 C503 1.327 . S
C505 C521 1.429 . S
C505 H527 0.950 . S
C506 H502 0.949 . S
C506 C514 1.574 . S
C506 C522 1.368 . S
H507 C515 0.950 . S
H508 C513 0.950 . S
H509 C514 0.949 . S
H510 C516 0.950 . S
H511 C517 0.950 . S
H512 C518 0.949 . S
C513 H508 0.950 . S
C513 C515 1.327 . S
C513 C519 1.429 . S
C514 C506 1.574 . S
C514 H509 0.949 . S
C514 C520 1.368 . S
C515 C499 1.349 . S
C515 H507 0.950 . S
C515 C513 1.327 . S
C516 C504 1.349 . S
C516 H510 0.950 . S
C516 C517 1.327 . S
C517 H511 0.950 . S
C517 C516 1.327 . S
C517 C521 1.429 . S
C518 C501 1.574 . S
C518 H512 0.949 . S
C518 C522 1.368 . S
C519 C500 1.429 . S
C519 C513 1.429 . S
C519 C520 1.523 . S
C520 C501 1.368 . S
C520 C514 1.368 . S
C520 C519 1.523 . S
C521 C505 1.429 . S
C521 C517 1.429 . S
C521 C522 1.523 . S
C522 C506 1.368 . S
C522 C518 1.368 . S
C522 C521 1.523 . S
H523 C498 0.950 . S
H524 C500 0.950 . S
H525 C501 0.949 . S
H526 C503 0.950 . S
H527 C505 0.950 . S
C528 C529 1.349 . S
C528 C530 1.327 . S
C528 H553 0.950 . S
C529 C528 1.349 . S
C529 C545 1.349 . S
C530 C528 1.327 . S
C530 C549 1.429 . S
C530 H554 0.950 . S
C531 C548 1.574 . S
C531 C550 1.368 . S
C531 H555 0.949 . S
H532 C536 0.949 . S
C533 C534 1.349 . S
C533 C535 1.327 . S
C533 H556 0.950 . S
C534 C533 1.349 . S
C534 C546 1.349 . S
C535 C533 1.327 . S
C535 C551 1.429 . S
C535 H557 0.950 . S
C536 H532 0.949 . S
C536 C544 1.574 . S
C536 C552 1.368 . S
H537 C545 0.950 . S
H538 C543 0.950 . S
H539 C544 0.949 . S
H540 C546 0.950 . S
H541 C547 0.950 . S
H542 C548 0.949 . S
C543 H538 0.950 . S
C543 C545 1.327 . S
C543 C549 1.429 . S
C544 C536 1.574 . S
C544 H539 0.949 . S
C544 C550 1.368 . S
C545 C529 1.349 . S
C545 H537 0.950 . S
C545 C543 1.327 . S
C546 C534 1.349 . S
C546 H540 0.950 . S
C546 C547 1.327 . S
C547 H541 0.950 . S
C547 C546 1.327 . S
C547 C551 1.429 . S
C548 C531 1.574 . S
C548 H542 0.949 . S
C548 C552 1.368 . S
C549 C530 1.429 . S
C549 C543 1.429 . S
C549 C550 1.523 . S
C550 C531 1.368 . S
C550 C544 1.368 . S
C550 C549 1.523 . S
C551 C535 1.429 . S
C551 C547 1.429 . S
C551 C552 1.523 . S
C552 C536 1.368 . S
C552 C548 1.368 . S
C552 C551 1.523 . S
H553 C528 0.950 . S
H554 C530 0.950 . S
H555 C531 0.949 . S
H556 C533 0.950 . S
H557 C535 0.950 . S
C558 C559 1.349 . S
C558 C560 1.327 . S
C558 H583 0.950 . S
C559 C558 1.349 . S
C559 C575 1.356 . S
C560 C558 1.327 . S
C560 C579 1.429 . S
C560 H584 0.950 . S
C561 C578 1.574 1_554 S
C561 C580 1.368 1_665 S
C561 H585 0.949 . S
H562 C566 0.949 . S
C563 C564 1.349 1_565 S
C563 C565 1.327 . S
C563 H586 0.950 . S
C564 C563 1.349 1_545 S
C564 C576 1.349 1_655 S
C565 C563 1.327 . S
C565 C581 1.428 1_665 S
C565 H587 0.950 . S
C566 H562 0.949 . S
C566 C574 1.574 1_556 S
C566 C582 1.368 . S
H567 C575 0.943 1_665 S
H568 C573 0.950 . S
H569 C574 0.949 . S
H570 C576 0.950 . S
H571 C577 0.950 . S
H572 C578 0.949 . S
C573 H568 0.950 . S
C573 C575 1.327 1_665 S
C573 C579 1.429 1_665 S
C574 C566 1.574 1_554 S
C574 H569 0.949 . S
C574 C580 1.368 . S
C575 C559 1.356 . S
C575 H567 0.943 1_445 S
C575 C573 1.327 1_445 S
C576 C564 1.349 1_455 S
C576 H570 0.950 . S
C576 C577 1.327 . S
C577 H571 0.950 . S
C577 C576 1.327 . S
C577 C581 1.429 . S
C578 C561 1.574 1_556 S
C578 H572 0.949 . S
C578 C582 1.368 1_665 S
C579 C560 1.429 . S
C579 C573 1.429 1_445 S
C579 C580 1.523 . S
C580 C561 1.368 1_445 S
C580 C574 1.368 . S
C580 C579 1.523 . S
C581 C565 1.428 1_445 S
C581 C577 1.429 . S
C581 C582 1.523 . S
C582 C566 1.368 . S
C582 C578 1.368 1_445 S
C582 C581 1.523 . S
H583 C558 0.950 . S
H584 C560 0.950 . S
H585 C561 0.949 . S
H586 C563 0.950 . S
H587 C565 0.950 . S
C588 C589 1.349 . S
C588 C590 1.327 . S
C588 H613 0.950 . S
C589 C588 1.349 . S
C589 C605 1.349 . S
C590 C588 1.327 . S
C590 C609 1.429 . S
C590 H614 0.950 . S
C591 C608 1.574 . S
C591 C610 1.368 . S
C591 H615 0.949 . S
H592 C596 0.949 . S
C593 C594 1.349 . S
C593 C595 1.327 . S
C593 H616 0.950 . S
C594 C593 1.349 . S
C594 C606 1.349 . S
C595 C593 1.327 . S
C595 C611 1.429 . S
C595 H617 0.950 . S
C596 H592 0.949 . S
C596 C604 1.574 . S
C596 C612 1.368 . S
H597 C605 0.950 . S
H598 C603 0.950 . S
H599 C604 0.949 . S
H600 C606 0.950 . S
H601 C607 0.950 . S
H602 C608 0.949 . S
C603 H598 0.950 . S
C603 C605 1.327 . S
C603 C609 1.429 . S
C604 C596 1.574 . S
C604 H599 0.949 . S
C604 C610 1.368 . S
C605 C589 1.349 . S
C605 H597 0.950 . S
C605 C603 1.327 . S
C606 C594 1.349 . S
C606 H600 0.950 . S
C606 C607 1.327 . S
C607 H601 0.950 . S
C607 C606 1.327 . S
C607 C611 1.429 . S
C608 C591 1.574 . S
C608 H602 0.949 . S
C608 C612 1.368 . S
C609 C590 1.429 . S
C609 C603 1.429 . S
C609 C610 1.523 . S
C610 C591 1.368 . S
C610 C604 1.368 . S
C610 C609 1.523 . S
C611 C595 1.429 . S
C611 C607 1.429 . S
C611 C612 1.523 . S
C612 C596 1.368 . S
C612 C608 1.368 . S
C612 C611 1.523 . S
H613 C588 0.950 . S
H614 C590 0.950 . S
H615 C591 0.949 . S
H616 C593 0.950 . S
H617 C595 0.950 . S
C618 C619 1.349 . S
C618 C620 1.327 . S
C618 H643 0.950 . S
C619 C618 1.349 . S
C619 C635 1.349 . S
C620 C618 1.327 . S
C620 C639 1.429 . S
C620 H644 0.950 . S
C621 C638 1.574 . S
C621 C640 1.368 . S
C621 H645 0.949 . S
H622 C626 0.949 . S
C623 C624 1.349 . S
C623 C625 1.327 . S
C623 H646 0.950 . S
C624 C623 1.349 . S
C624 C636 1.349 . S
C625 C623 1.327 . S
C625 C641 1.429 . S
C625 H647 0.950 . S
C626 H622 0.949 . S
C626 C634 1.574 . S
C626 C642 1.368 . S
H627 C635 0.950 . S
H628 C633 0.950 . S
H629 C634 0.949 . S
H630 C636 0.950 . S
H631 C637 0.950 . S
H632 C638 0.949 . S
C633 H628 0.950 . S
C633 C635 1.327 . S
C633 C639 1.429 . S
C634 C626 1.574 . S
C634 H629 0.949 . S
C634 C640 1.368 . S
C635 C619 1.349 . S
C635 H627 0.950 . S
C635 C633 1.327 . S
C636 C624 1.349 . S
C636 H630 0.950 . S
C636 C637 1.327 . S
C637 H631 0.950 . S
C637 C636 1.327 . S
C637 C641 1.429 . S
C638 C621 1.574 . S
C638 H632 0.949 . S
C638 C642 1.368 . S
C639 C620 1.429 . S
C639 C633 1.429 . S
C639 C640 1.523 . S
C640 C621 1.368 . S
C640 C634 1.368 . S
C640 C639 1.523 . S
C641 C625 1.429 . S
C641 C637 1.429 . S
C641 C642 1.523 . S
C642 C626 1.368 . S
C642 C638 1.368 . S
C642 C641 1.523 . S
H643 C618 0.950 . S
H644 C620 0.950 . S
H645 C621 0.949 . S
H646 C623 0.950 . S
H647 C625 0.950 . S
C199 C18 2.082 . S
C204 C117 2.082 . S
C229 C7 1.522 . S
C234 C120 1.513 . S
C259 C106 1.523 . S
C264 C21 1.513 . S
C289 C40 1.523 . S
C294 C153 1.513 . S
C319 C150 2.082 . S
C324 C51 2.082 . S
C349 C54 1.513 . S
C354 C139 1.522 . S
C379 C84 2.082 . S
C384 C183 2.082 . S
C409 C73 1.522 . S
C414 C186 1.513 . S
C439 C172 1.523 . S
C444 C87 1.513 . S
C469 N35 2.352 1_455 S
C474 N2 2.352 . S
C499 N101 2.353 1_556 S
C504 N68 2.353 . S
C529 N167 2.352 . S
C534 N134 2.352 1_554 S
C559 N13 1.006 . S
C564 N46 1.006 1_655 S
C589 N112 1.006 . S
C594 N79 1.006 . S
C619 N178 1.006 . S
C624 N145 1.006 . S
