# Generated by pormake.
# Topology und, (4)-cn, num edge types: 1
# Building blocks:
#     Node 0, Type 0, BuildingBlock: QUQFOY_clean_sbu_3, # of connection points: 4
#     Node 1, Type 0, BuildingBlock: QUQFOY_clean_sbu_3, # of connection points: 4
#     Node 2, Type 0, BuildingBlock: QUQFOY_clean_sbu_3, # of connection points: 4
#     Node 3, Type 0, BuildingBlock: QUQFOY_clean_sbu_3, # of connection points: 4
#     Node 4, Type 0, BuildingBlock: QUQFOY_clean_sbu_3, # of connection points: 4
#     Node 5, Type 0, BuildingBlock: QUQFOY_clean_sbu_3, # of connection points: 4
#     Node 6, Type 0, BuildingBlock: QUQFOY_clean_sbu_3, # of connection points: 4
#     Node 7, Type 0, BuildingBlock: QUQFOY_clean_sbu_3, # of connection points: 4
#     Node 8, Type 0, BuildingBlock: QUQFOY_clean_sbu_3, # of connection points: 4
#     Node 9, Type 0, BuildingBlock: QUQFOY_clean_sbu_3, # of connection points: 4
#     Node 10, Type 0, BuildingBlock: QUQFOY_clean_sbu_3, # of connection points: 4
#     Node 11, Type 0, BuildingBlock: QUQFOY_clean_sbu_3, # of connection points: 4
#     Node 12, Type 0, BuildingBlock: QUQFOY_clean_sbu_3, # of connection points: 4
#     Node 13, Type 0, BuildingBlock: QUQFOY_clean_sbu_3, # of connection points: 4
#     Node 14, Type 0, BuildingBlock: QUQFOY_clean_sbu_3, # of connection points: 4
#     Node 15, Type 0, BuildingBlock: QUQFOY_clean_sbu_3, # of connection points: 4
#     Edge 16, Type (0, 0), BuildingBlock: XIVTED_clean_linker_0, # of connection points: 2
#     Edge 17, Type (0, 0), BuildingBlock: XIVTED_clean_linker_0, # of connection points: 2
#     Edge 18, Type (0, 0), BuildingBlock: XIVTED_clean_linker_0, # of connection points: 2
#     Edge 19, Type (0, 0), BuildingBlock: XIVTED_clean_linker_0, # of connection points: 2
#     Edge 20, Type (0, 0), BuildingBlock: XIVTED_clean_linker_0, # of connection points: 2
#     Edge 21, Type (0, 0), BuildingBlock: XIVTED_clean_linker_0, # of connection points: 2
#     Edge 22, Type (0, 0), BuildingBlock: XIVTED_clean_linker_0, # of connection points: 2
#     Edge 23, Type (0, 0), BuildingBlock: XIVTED_clean_linker_0, # of connection points: 2
#     Edge 24, Type (0, 0), BuildingBlock: XIVTED_clean_linker_0, # of connection points: 2
#     Edge 25, Type (0, 0), BuildingBlock: XIVTED_clean_linker_0, # of connection points: 2
#     Edge 26, Type (0, 0), BuildingBlock: XIVTED_clean_linker_0, # of connection points: 2
#     Edge 27, Type (0, 0), BuildingBlock: XIVTED_clean_linker_0, # of connection points: 2
#     Edge 28, Type (0, 0), BuildingBlock: XIVTED_clean_linker_0, # of connection points: 2
#     Edge 29, Type (0, 0), BuildingBlock: XIVTED_clean_linker_0, # of connection points: 2
#     Edge 30, Type (0, 0), BuildingBlock: XIVTED_clean_linker_0, # of connection points: 2
#     Edge 31, Type (0, 0), BuildingBlock: XIVTED_clean_linker_0, # of connection points: 2
#     Edge 32, Type (0, 0), BuildingBlock: XIVTED_clean_linker_0, # of connection points: 2
#     Edge 33, Type (0, 0), BuildingBlock: XIVTED_clean_linker_0, # of connection points: 2
#     Edge 34, Type (0, 0), BuildingBlock: XIVTED_clean_linker_0, # of connection points: 2
#     Edge 35, Type (0, 0), BuildingBlock: XIVTED_clean_linker_0, # of connection points: 2
#     Edge 36, Type (0, 0), BuildingBlock: XIVTED_clean_linker_0, # of connection points: 2
#     Edge 37, Type (0, 0), BuildingBlock: XIVTED_clean_linker_0, # of connection points: 2
#     Edge 38, Type (0, 0), BuildingBlock: XIVTED_clean_linker_0, # of connection points: 2
#     Edge 39, Type (0, 0), BuildingBlock: XIVTED_clean_linker_0, # of connection points: 2
#     Edge 40, Type (0, 0), BuildingBlock: XIVTED_clean_linker_0, # of connection points: 2
#     Edge 41, Type (0, 0), BuildingBlock: XIVTED_clean_linker_0, # of connection points: 2
#     Edge 42, Type (0, 0), BuildingBlock: XIVTED_clean_linker_0, # of connection points: 2
#     Edge 43, Type (0, 0), BuildingBlock: XIVTED_clean_linker_0, # of connection points: 2
#     Edge 44, Type (0, 0), BuildingBlock: XIVTED_clean_linker_0, # of connection points: 2
#     Edge 45, Type (0, 0), BuildingBlock: XIVTED_clean_linker_0, # of connection points: 2
#     Edge 46, Type (0, 0), BuildingBlock: XIVTED_clean_linker_0, # of connection points: 2
#     Edge 47, Type (0, 0), BuildingBlock: XIVTED_clean_linker_0, # of connection points: 2
# Relax obj value: 0.006
# Max RMSD: 0.046
# Mean RMSD: 0.046
data_MOF--net-und--node1-QUQFOY_clean_sbu_3--edge1-XIVTED_clean_linker_0
_symmetry_space_group_name_H-M    P1
_symmetry_Int_Tables_number       1
_symmetry_cell_setting            triclinic
loop_
_symmetry_equiv_pos_as_xyz
'x, y, z'
_cell_length_a     62.881638
_cell_length_b     62.54181
_cell_length_c     23.222824
_cell_angle_alpha  89.727072
_cell_angle_beta   89.971684
_cell_angle_gamma 95.454824
loop_
_atom_site_label
_atom_site_type_symbol
_atom_site_fract_x
_atom_site_fract_y
_atom_site_fract_z
_atom_type_partial_charge
C0 C 0.24645 0.30522 0.09864 0.0
O1 O 0.26529 0.31068 0.08065 0.0
Cd2 Cd 0.27282 0.3349 0.00036 0.0
O3 O 0.23054 0.31352 0.07696 0.0
Cd4 Cd 0.22042 0.33995 0.00614 0.0
C5 C 0.23834 0.30784 0.90292 0.0
O6 O 0.25231 0.36445 0.01471 0.0
O7 O 0.23032 0.37208 0.94805 0.0
O8 O 0.19758 0.35031 0.08282 0.0
C9 C 0.24803 0.3766 0.97328 0.0
O10 O 0.25717 0.31401 0.92014 0.0
C11 C 0.18094 0.35078 0.05206 0.0
O12 O 0.22194 0.31405 0.92789 0.0
O13 O 0.18249 0.34579 -0.00073 0.0
C14 C 0.92396 0.9853 0.1531 0.0
O15 O 0.91763 0.96633 0.16923 0.0
Cd16 Cd 0.89531 0.96021 0.25316 0.0
O17 O 0.91706 0.00136 0.1779 0.0
Cd18 Cd 0.89203 0.01092 0.25239 0.0
C19 C 0.92603 -0.00746 0.34794 0.0
O20 O 0.86486 0.98043 0.24656 0.0
O21 O 0.86466 9e-05 0.32289 0.0
O22 O 0.8797 0.03379 0.1781 0.0
C23 C 0.85602 0.98446 0.29399 0.0
O24 O 0.91858 0.9739 0.33157 0.0
C25 C 0.87979 0.05053 0.20875 0.0
O26 O 0.92004 0.00939 0.32422 0.0
O27 O 0.88588 0.04908 0.26074 0.0
C28 C 0.21685 0.69196 0.60685 0.0
O29 O 0.19792 0.68626 0.59042 0.0
Cd30 Cd 0.19116 0.66432 0.50628 0.0
O31 O 0.23265 0.68462 0.58205 0.0
Cd32 Cd 0.24112 0.65938 0.50652 0.0
C33 C 0.2241 0.69462 0.41157 0.0
O34 O 0.21008 0.63286 0.51203 0.0
O35 O 0.22936 0.63275 0.4349 0.0
O36 O 0.26362 0.64469 0.57784 0.0
C37 C 0.21375 0.62418 0.46414 0.0
O38 O 0.20534 0.68764 0.42782 0.0
C39 C 0.2803 0.64547 0.54682 0.0
O40 O 0.24054 0.68795 0.43522 0.0
O41 O 0.27894 0.65302 0.49613 0.0
C42 C 0.53963 0.01462 0.65288 0.0
O43 O 0.54583 0.03355 0.66908 0.0
Cd44 Cd 0.56803 0.03942 0.75315 0.0
O45 O 0.54663 -0.00148 0.6776 0.0
Cd46 Cd 0.57171 -0.01122 0.75202 0.0
C47 C 0.5374 0.00641 0.84754 0.0
O48 O 0.59867 0.01949 0.74673 0.0
O49 O 0.59886 -0.00053 0.82289 0.0
O50 O 0.58436 0.96638 0.67762 0.0
C51 C 0.60744 0.01531 0.79425 0.0
O52 O 0.54473 0.02518 0.83131 0.0
C53 C 0.58421 0.94946 0.70805 0.0
O54 O 0.54357 -0.01027 0.82376 0.0
O55 O 0.57798 0.95062 0.75998 0.0
C56 C 0.71737 0.69262 0.90314 0.0
O57 O 0.69852 0.68615 0.919 0.0
Cd58 Cd 0.69239 0.66317 0.00201 0.0
O59 O 0.73337 0.68552 0.9277 0.0
Cd60 Cd 0.74309 0.65988 0.0012 0.0
C61 C 0.7248 0.69343 0.0979 0.0
O62 O 0.71268 0.63281 -0.00605 0.0
O63 O 0.73227 0.6317 0.0702 0.0
O64 O 0.76567 0.64824 0.92589 0.0
C65 C 0.71658 0.62346 0.04094 0.0
O66 O 0.70625 0.68605 0.08107 0.0
C67 C 0.78236 0.6479 0.95641 0.0
O68 O 0.74157 0.68756 0.07415 0.0
O69 O 0.78102 0.65342 0.00885 0.0
C70 C 0.03829 0.01421 0.85406 0.0
O71 O 0.04461 0.03319 0.83798 0.0
Cd72 Cd 0.06714 0.03938 0.75448 0.0
O73 O 0.04533 -0.00183 0.82951 0.0
Cd74 Cd 0.07068 -0.01126 0.75566 0.0
C75 C 0.03684 0.00679 0.65929 0.0
O76 O 0.0977 0.01938 0.76175 0.0
O77 O 0.09812 -0.00032 0.68556 0.0
O78 O 0.08289 0.96608 0.83058 0.0
C79 C 0.10665 0.01536 0.71447 0.0
O80 O 0.04417 0.02546 0.67575 0.0
C81 C 0.08326 0.94938 0.79995 0.0
O82 O 0.04283 -0.01002 0.68322 0.0
O83 O 0.07742 0.95073 0.74772 0.0
C84 C 0.74637 0.30685 0.401 0.0
O85 O 0.76525 0.31321 0.41664 0.0
Cd86 Cd 0.77147 0.33605 0.4994 0.0
O87 O 0.73043 0.314 0.42552 0.0
Cd88 Cd 0.72095 0.33965 0.49864 0.0
C89 C 0.73896 0.30581 0.59579 0.0
O90 O 0.75149 0.3667 0.49169 0.0
O91 O 0.7318 0.3674 0.56791 0.0
O92 O 0.69846 0.35186 0.4236 0.0
C93 C 0.74753 0.37579 0.53881 0.0
O94 O 0.75755 0.31312 0.5789 0.0
C95 C 0.68175 0.35198 0.45415 0.0
O96 O 0.72225 0.3118 0.57189 0.0
O97 O 0.68305 0.34608 0.50646 0.0
C98 C 0.42527 -0.01398 0.35476 0.0
O99 O 0.41912 0.96705 0.33875 0.0
Cd100 Cd 0.39666 0.96081 0.25538 0.0
O101 O 0.41809 0.00206 0.33018 0.0
Cd102 Cd 0.39261 0.0114 0.25623 0.0
C103 C 0.4267 -0.00608 0.15992 0.0
O104 O 0.3659 0.9805 0.26252 0.0
O105 O 0.36531 0.00028 0.18602 0.0
O106 O 0.3799 0.03383 0.33052 0.0
C107 C 0.35695 0.98445 0.21512 0.0
O108 O 0.41955 0.97514 0.17649 0.0
C109 C 0.37979 0.05064 0.29981 0.0
O110 O 0.42052 0.01058 0.18376 0.0
O111 O 0.38592 0.04943 0.2478 0.0
C112 C 0.74554 0.80745 0.60257 0.0
O113 O 0.76439 0.81385 0.58655 0.0
Cd114 Cd 0.77048 0.83613 0.50219 0.0
O115 O 0.72954 0.81429 0.57739 0.0
Cd116 Cd 0.7199 0.83933 0.50221 0.0
C117 C 0.73828 0.80499 0.40783 0.0
O118 O 0.75022 0.8666 0.50802 0.0
O119 O 0.73072 0.86683 0.43138 0.0
O120 O 0.69723 0.85168 0.57629 0.0
C121 C 0.74628 0.87548 0.46037 0.0
O122 O 0.75681 0.81255 0.42435 0.0
C123 C 0.68057 0.85169 0.54553 0.0
O124 O 0.72149 0.81103 0.43106 0.0
O125 O 0.68197 0.84563 0.49354 0.0
C126 C 0.4258 0.48371 0.65711 0.0
O127 O 0.42028 0.46473 0.67484 0.0
Cd128 Cd 0.39676 0.45775 0.75646 0.0
O129 O 0.41778 0.49966 0.67941 0.0
Cd130 Cd 0.39179 0.50969 0.75065 0.0
C131 C 0.42459 0.49218 0.8525 0.0
O132 O 0.3667 0.4778 0.74395 0.0
O133 O 0.36091 0.50004 0.81187 0.0
O134 O 0.38091 0.5317 0.67241 0.0
C135 C 0.35541 0.48247 0.78659 0.0
O136 O 0.41817 0.4733 0.83567 0.0
C137 C 0.38003 0.54865 0.70178 0.0
O138 O 0.41834 0.50872 0.82765 0.0
O139 O 0.38512 0.54775 0.75472 0.0
C140 C 0.71742 0.19187 0.10408 0.0
O141 O 0.69854 0.18557 0.08827 0.0
Cd142 Cd 0.69238 0.16339 0.00424 0.0
O143 O 0.73337 0.18498 0.07894 0.0
Cd144 Cd 0.74286 0.15999 0.00415 0.0
C145 C 0.72462 0.19451 0.90919 0.0
O146 O 0.71245 0.13274 0.01001 0.0
O147 O 0.73208 0.13272 0.93351 0.0
O148 O 0.76555 0.14734 0.07804 0.0
C149 C 0.71644 0.12402 0.96238 0.0
O150 O 0.70606 0.18701 0.92583 0.0
C151 C 0.78224 0.1476 0.04724 0.0
O152 O 0.74137 0.18838 0.93256 0.0
O153 O 0.78082 0.15389 -0.00469 0.0
C154 C 0.0384 0.51194 0.15176 0.0
O155 O 0.04452 0.53103 0.1668 0.0
Cd156 Cd 0.0669 0.53802 0.25002 0.0
O157 O 0.04551 0.49608 0.17742 0.0
Cd158 Cd 0.07076 0.48727 0.25254 0.0
C159 C 0.03664 0.50588 0.34711 0.0
O160 O 0.09752 0.51807 0.24449 0.0
O161 O 0.09817 0.49883 0.32196 0.0
O162 O 0.08317 0.46402 0.17989 0.0
C163 C 0.10649 0.51448 0.29212 0.0
O164 O 0.04389 0.52449 0.32948 0.0
C165 C 0.08332 0.44752 0.21181 0.0
O166 O 0.04278 0.48898 0.32443 0.0
O167 O 0.07735 0.44929 0.26379 0.0
C168 C 0.21705 0.1912 0.40073 0.0
O169 O 0.19819 0.18526 0.41751 0.0
Cd170 Cd 0.19217 0.16383 0.50341 0.0
O171 O 0.23301 0.18438 0.42616 0.0
Cd172 Cd 0.24262 0.16008 0.50306 0.0
C173 C 0.22482 0.19569 0.59489 0.0
O174 O 0.2121 0.13304 0.49886 0.0
O175 O 0.23168 0.13314 0.57542 0.0
O176 O 0.26522 0.14713 0.4297 0.0
C177 C 0.21604 0.12442 0.54684 0.0
O178 O 0.20616 0.18817 0.57937 0.0
C179 C 0.2819 0.14735 0.46045 0.0
O180 O 0.24142 0.18913 0.5719 0.0
O181 O 0.28053 0.15373 0.51215 0.0
C182 C 0.53926 0.51443 0.35648 0.0
O183 O 0.54533 0.53349 0.34053 0.0
Cd184 Cd 0.56724 0.53996 0.25592 0.0
O185 O 0.54617 0.49853 0.33102 0.0
Cd186 Cd 0.57087 0.48935 0.2553 0.0
C187 C 0.53617 0.50782 0.16163 0.0
O188 O 0.59789 0.51994 0.26135 0.0
O189 O 0.59804 0.50053 0.18453 0.0
O190 O 0.58322 0.46642 0.32934 0.0
C191 C 0.60668 0.51609 0.2137 0.0
O192 O 0.5436 0.52647 0.17803 0.0
C193 C 0.58341 0.44978 0.29842 0.0
O194 O 0.54244 0.49098 0.18471 0.0
O195 O 0.57749 0.4513 0.24629 0.0
C196 C 0.24716 0.80685 0.9034 0.0
O197 O 0.26605 0.8128 0.91975 0.0
Cd198 Cd 0.27224 0.83555 0.0027 0.0
O199 O 0.23129 0.81435 0.92739 0.0
Cd200 Cd 0.22206 0.84015 0.00041 0.0
C201 C 0.23892 0.80587 0.09813 0.0
O202 O 0.25303 0.86675 -0.00591 0.0
O203 O 0.23317 0.86775 0.06991 0.0
O204 O 0.19975 0.85278 0.92546 0.0
C205 C 0.24905 0.87594 0.04105 0.0
O206 O 0.2577 0.81281 0.08193 0.0
C207 C 0.18303 0.85295 0.95602 0.0
O208 O 0.2225 0.81225 0.07362 0.0
O209 O 0.18429 0.84696 0.00824 0.0
C210 C 0.92385 0.48507 0.85343 0.0
O211 O 0.91757 0.46605 0.83819 0.0
Cd212 Cd 0.89514 0.45978 0.75466 0.0
O213 O 0.91682 0.50103 0.82808 0.0
Cd214 Cd 0.89162 0.51055 0.75383 0.0
C215 C 0.92566 0.49227 0.65869 0.0
O216 O 0.86463 0.47992 0.76056 0.0
O217 O 0.86422 0.49964 0.68387 0.0
O218 O 0.87955 0.53314 0.82848 0.0
C219 C 0.85575 0.48388 0.71304 0.0
O220 O 0.9183 0.47363 0.67583 0.0
C221 C 0.87939 0.54996 0.79781 0.0
O222 O 0.91961 0.50913 0.6818 0.0
O223 O 0.88516 0.54868 0.74551 0.0
H224 H 0.27581 0.28255 0.15386 0.0
H225 H 0.18753 0.21217 0.34095 0.0
H226 H 0.2082 0.28966 0.14582 0.0
H227 H 0.25529 0.20631 0.35275 0.0
H228 H 0.1947 0.23984 0.26695 0.0
H229 H 0.26857 0.25409 0.22567 0.0
C230 C 0.25947 0.27819 0.16729 0.0
C231 C 0.24261 0.28853 0.14374 0.0
C232 C 0.20799 0.23244 0.28564 0.0
C233 C 0.23419 0.2559 0.22564 0.0
C234 C 0.20389 0.21659 0.32777 0.0
C235 C 0.22083 0.20694 0.35326 0.0
C236 C 0.22917 0.23867 0.26889 0.0
C237 C 0.24172 0.21334 0.33448 0.0
C238 C 0.25533 0.26191 0.2082 0.0
C239 C 0.22173 0.28216 0.16273 0.0
N240 N 0.24529 0.22884 0.29358 0.0
N241 N 0.21812 0.26626 0.20247 0.0
H242 H 0.94236 0.9601 0.40801 0.0
H243 H 0.02066 0.03916 0.59868 0.0
H244 H 0.94659 0.02927 0.39365 0.0
H245 H 0.01639 0.97 0.61347 0.0
H246 H -0.00631 0.03579 0.52319 0.0
H247 H 0.96944 0.96342 0.48327 0.0
C248 C 0.94895 0.97601 0.42069 0.0
C249 C 0.94217 -0.00555 0.39436 0.0
C250 C -0.00134 0.02135 0.54288 0.0
C251 C 0.97327 -0.00167 0.48062 0.0
C252 C 0.01409 0.02324 0.58604 0.0
C253 C 0.02081 0.00482 0.61259 0.0
C254 C -0.01017 0.00089 0.52602 0.0
C255 C 0.0117 0.98464 0.59426 0.0
C256 C 0.96444 0.97788 0.4637 0.0
C257 C 0.95131 0.01462 0.41269 0.0
N258 N -0.00334 0.98322 0.55213 0.0
N259 N 0.96641 0.01601 0.45468 0.0
H260 H 0.18761 0.71333 0.66599 0.0
H261 H 0.2765 0.78505 0.84574 0.0
H262 H 0.25533 0.70754 0.65229 0.0
H263 H 0.20878 0.79098 0.8582 0.0
H264 H 0.26912 0.75661 0.77461 0.0
H265 H 0.19506 0.74149 0.73772 0.0
C266 C 0.20403 0.71788 0.67827 0.0
C267 C 0.22086 0.70807 0.65296 0.0
C268 C 0.25589 0.76418 0.79287 0.0
C269 C 0.22952 0.7404 0.73477 0.0
C270 C 0.26011 0.78047 0.83335 0.0
C271 C 0.24325 0.79042 0.85806 0.0
C272 C 0.23467 0.7578 0.77701 0.0
C273 C 0.2223 0.78377 0.84041 0.0
C274 C 0.20829 0.73401 0.71911 0.0
C275 C 0.24183 0.71466 0.67054 0.0
N276 N 0.21862 0.76787 0.80109 0.0
N277 N 0.24556 0.73044 0.71022 0.0
H278 H 0.44663 0.03103 0.11355 0.0
H279 H 0.51723 0.96933 0.89339 0.0
H280 H 0.44339 0.96193 0.09975 0.0
H281 H 0.52058 0.03843 0.90733 0.0
H282 H 0.4901 0.9663 0.96903 0.0
H283 H 0.47363 0.03409 0.03753 0.0
C284 C 0.45155 0.01651 0.09452 0.0
C285 C 0.44273 -0.0038 0.11316 0.0
C286 C 0.49679 0.98212 0.95553 0.0
C287 C 0.47365 -0.00041 0.02622 0.0
C288 C 0.5123 0.98386 0.91237 0.0
C289 C 0.52121 0.00416 0.89392 0.0
C290 C 0.49013 0.0008 0.98044 0.0
C291 C 0.51418 0.02243 0.92011 0.0
C292 C 0.46698 0.01827 0.05114 0.0
C293 C 0.44974 0.97794 0.08687 0.0
N294 N 0.49905 0.02031 0.96198 0.0
N295 N 0.46479 0.98007 0.04481 0.0
H296 H 0.20167 0.7866 0.14423 0.0
H297 H 0.26131 0.71413 0.36591 0.0
H298 H 0.2703 0.7885 0.15925 0.0
H299 H 0.19267 0.71245 0.35171 0.0
H300 H 0.26492 0.74145 0.29017 0.0
H301 H 0.19803 0.75954 0.22068 0.0
C302 C 0.21597 0.78137 0.16363 0.0
C303 C 0.23632 0.78984 0.1452 0.0
C304 C 0.24907 0.73509 0.30364 0.0
C305 C 0.23226 0.75883 0.23263 0.0
C306 C 0.247 0.71947 0.34686 0.0
C307 C 0.22666 0.71096 0.36525 0.0
C308 C 0.23068 0.74227 0.27859 0.0
C309 C 0.20868 0.71853 0.33897 0.0
C310 C 0.21388 0.7659 0.20726 0.0
C311 C 0.25428 0.78244 0.17197 0.0
N312 N 0.21113 0.73375 0.29702 0.0
N313 N 0.25182 0.76736 0.21425 0.0
H314 H 0.44623 0.95621 0.41383 0.0
H315 H 0.5188 0.04453 0.59367 0.0
H316 H 0.44163 0.0245 0.39934 0.0
H317 H 0.52341 0.97623 0.60764 0.0
H318 H 0.49069 0.03757 0.52163 0.0
H319 H 0.47443 0.96324 0.48552 0.0
C320 C 0.45106 0.97266 0.42589 0.0
C321 C 0.44155 -0.01022 0.40044 0.0
C322 C 0.4979 0.02412 0.5404 0.0
C323 C 0.47391 -0.00204 0.4822 0.0
C324 C 0.514 0.02809 0.58141 0.0
C325 C 0.52347 0.01095 0.60685 0.0
C326 C 0.49122 0.00285 0.52474 0.0
C327 C 0.51656 -0.01003 0.58931 0.0
C328 C 0.46721 0.97668 0.46671 0.0
C329 C 0.44851 0.01078 0.41771 0.0
N330 N 0.50084 -0.01348 0.54948 0.0
N331 N 0.46428 0.01427 0.4574 0.0
H332 H 0.26172 0.21652 0.63797 0.0
H333 H 0.20111 0.28866 0.85667 0.0
H334 H 0.19301 0.21343 0.65317 0.0
H335 H 0.26975 0.29176 0.83954 0.0
H336 H 0.19767 0.26175 0.78036 0.0
H337 H 0.26487 0.24462 0.71084 0.0
C338 C 0.24729 0.22171 0.65663 0.0
C339 C 0.22707 0.21256 0.63943 0.0
C340 C 0.21347 0.26839 0.79324 0.0
C341 C 0.23057 0.24478 0.72284 0.0
C342 C 0.21544 0.28378 0.83673 0.0
C343 C 0.23574 0.29244 0.85475 0.0
C344 C 0.23193 0.2616 0.76767 0.0
C345 C 0.25376 0.2855 0.82729 0.0
C346 C 0.2491 0.2378 0.6982 0.0
C347 C 0.20894 0.21999 0.6651 0.0
N348 N 0.25142 0.27046 0.78531 0.0
N349 N 0.21112 0.23565 0.70552 0.0
H350 H 0.01755 0.04401 0.91317 0.0
H351 H 0.94455 0.95547 0.09364 0.0
H352 H 0.02171 0.97569 0.89887 0.0
H353 H 0.94044 0.02379 0.10796 0.0
H354 H 0.97265 0.96253 0.02137 0.0
H355 H -0.01064 0.03693 0.98515 0.0
C356 C 0.01262 0.02754 0.92533 0.0
C357 C 0.02201 0.01043 0.89986 0.0
C358 C 0.96555 0.97597 0.04027 0.0
C359 C -0.01033 0.0022 0.98192 0.0
C360 C 0.94946 0.97194 0.08141 0.0
C361 C 0.94013 -0.01095 0.10701 0.0
C362 C 0.97237 -0.00274 0.02463 0.0
C363 C 0.94718 0.01007 0.08951 0.0
C364 C -0.00352 0.0235 0.96631 0.0
C365 C 0.01493 -0.0106 0.91725 0.0
N366 N 0.96289 0.01358 0.04954 0.0
N367 N -0.00083 0.98589 0.95709 0.0
H368 H 0.68761 0.71334 0.84357 0.0
H369 H 0.77532 0.7871 0.66312 0.0
H370 H 0.75562 0.70963 0.85892 0.0
H371 H 0.7073 0.79071 0.64744 0.0
H372 H 0.76844 0.75896 0.73598 0.0
H373 H 0.6945 0.74171 0.77136 0.0
C374 C 0.70397 0.71841 0.83162 0.0
C375 C 0.72105 0.70909 0.85741 0.0
C376 C 0.75503 0.76596 0.71666 0.0
C377 C 0.72906 0.74163 0.77508 0.0
C378 C 0.75895 0.78207 0.67517 0.0
C379 C 0.74187 0.79127 0.64901 0.0
C380 C 0.73387 0.75899 0.73209 0.0
C381 C 0.72099 0.78408 0.66632 0.0
C382 C 0.7079 0.73465 0.79049 0.0
C383 C 0.74194 0.71635 0.84027 0.0
N384 N 0.71758 0.76834 0.70664 0.0
N385 N 0.74534 0.7322 0.80028 0.0
H386 H 0.77598 0.28586 0.34196 0.0
H387 H 0.6878 0.21247 0.16416 0.0
H388 H 0.70804 0.29008 0.3573 0.0
H389 H 0.75574 0.20835 0.1485 0.0
H390 H 0.69487 0.24064 0.23612 0.0
H391 H 0.76889 0.25743 0.27073 0.0
C392 C 0.75959 0.2809 0.3302 0.0
C393 C 0.74259 0.29038 0.35572 0.0
C394 C 0.70822 0.23352 0.217 0.0
C395 C 0.73435 0.25776 0.27452 0.0
C396 C 0.70418 0.21739 0.17603 0.0
C397 C 0.72119 0.20804 0.15013 0.0
C398 C 0.72941 0.24036 0.23215 0.0
C399 C 0.74211 0.2151 0.16719 0.0
C400 C 0.75554 0.26462 0.28965 0.0
C401 C 0.72167 0.28324 0.33885 0.0
N402 N 0.74562 0.23086 0.20699 0.0
N403 N 0.71815 0.26736 0.29942 0.0
H404 H 0.69239 0.21115 0.84976 0.0
H405 H 0.77113 0.28962 0.65648 0.0
H406 H 0.76118 0.21516 0.86278 0.0
H407 H 0.70235 0.28539 0.64266 0.0
H408 H 0.76774 0.26262 0.7327 0.0
H409 H 0.69574 0.23842 0.7742 0.0
C410 C 0.70822 0.21774 0.83673 0.0
C411 C 0.72655 0.21083 0.86274 0.0
C412 C 0.75339 0.2676 0.71306 0.0
C413 C 0.73046 0.24215 0.77612 0.0
C414 C 0.75529 0.28305 0.66949 0.0
C415 C 0.73698 0.28979 0.64298 0.0
C416 C 0.73303 0.25877 0.73038 0.0
C417 C 0.7169 0.28069 0.66181 0.0
C418 C 0.7101 0.23334 0.79354 0.0
C419 C 0.74662 0.21998 0.84398 0.0
N420 N 0.71547 0.26562 0.70432 0.0
N421 N 0.74803 0.23518 0.80181 0.0
H422 H 0.69247 0.70938 0.15819 0.0
H423 H 0.77066 0.78856 0.34883 0.0
H424 H 0.76127 0.71408 0.14427 0.0
H425 H 0.70184 0.78409 0.36198 0.0
H426 H 0.76751 0.7612 0.2742 0.0
H427 H 0.69565 0.73645 0.23354 0.0
C428 C 0.70827 0.71606 0.17101 0.0
C429 C 0.72665 0.70944 0.14471 0.0
C430 C 0.7531 0.7662 0.29337 0.0
C431 C 0.73036 0.74054 0.2311 0.0
C432 C 0.75486 0.78186 0.33602 0.0
C433 C 0.73647 0.78866 0.36181 0.0
C434 C 0.7328 0.75724 0.27625 0.0
C435 C 0.71645 0.77937 0.34334 0.0
C436 C 0.71005 0.73155 0.21408 0.0
C437 C 0.74667 0.71868 0.16327 0.0
N438 N 0.71516 0.76412 0.30169 0.0
N439 N 0.74798 0.73379 0.20529 0.0
H440 H 0.51931 0.5402 0.10239 0.0
H441 H 0.44023 0.46037 0.91617 0.0
H442 H 0.51535 0.47106 0.11709 0.0
H443 H 0.44466 0.52941 0.89746 0.0
H444 H 0.46711 0.46422 -0.00843 0.0
H445 H 0.49165 0.53673 0.02853 0.0
C446 C 0.51266 0.52427 0.09009 0.0
C447 C 0.5197 0.50587 0.11606 0.0
C448 C 0.4622 0.47855 0.97112 0.0
C449 C 0.48794 0.50183 0.03152 0.0
C450 C 0.4468 0.47639 0.928 0.0
C451 C 0.44018 0.49462 0.9002 0.0
C452 C 0.47115 0.4991 -0.01324 0.0
C453 C 0.44928 0.51492 0.91764 0.0
C454 C 0.49684 0.52232 0.04791 0.0
C455 C 0.51046 0.48568 0.09829 0.0
N456 N 0.46435 0.51661 0.95976 0.0
N457 N 0.49506 0.48421 0.05715 0.0
H458 H 0.02015 0.53845 0.40545 0.0
H459 H 0.9421 0.45977 0.60003 0.0
H460 H 0.01635 0.46924 0.39501 0.0
H461 H 0.94607 0.52896 0.61126 0.0
H462 H 0.96917 0.46298 0.52466 0.0
H463 H -0.00691 0.53527 0.48092 0.0
C464 C 0.01366 0.52256 0.41904 0.0
C465 C 0.02055 0.50406 0.39374 0.0
C466 C 0.96412 0.47747 0.54355 0.0
C467 C -0.01053 0.50036 0.48024 0.0
C468 C 0.94863 0.47566 0.58663 0.0
C469 C 0.94178 0.49414 0.61213 0.0
C470 C 0.97288 0.49789 0.5257 0.0
C471 C 0.95085 0.51428 0.59287 0.0
C472 C -0.00182 0.52078 0.46218 0.0
C473 C 0.01154 0.48393 0.41323 0.0
N474 N 0.96595 0.51562 0.55082 0.0
N475 N -0.00355 0.48263 0.4553 0.0
H476 H 0.02247 0.47315 0.10802 0.0
H477 H 0.93976 0.52372 0.89773 0.0
H478 H 0.01719 0.54127 0.09159 0.0
H479 H 0.94515 0.45559 0.91296 0.0
H480 H 0.96788 0.53035 0.96928 0.0
H481 H -0.00564 0.46642 0.03635 0.0
C482 C 0.01548 0.48673 0.08919 0.0
C483 C 0.02221 0.50784 0.10598 0.0
C484 C 0.9629 0.51394 0.9571 0.0
C485 C -0.01013 0.50016 0.02396 0.0
C486 C 0.94679 0.51011 0.91627 0.0
C487 C 0.94008 0.48903 0.89917 0.0
C488 C 0.97245 0.49659 0.98114 0.0
C489 C 0.94979 0.47209 0.92483 0.0
C490 C -0.00063 0.48284 0.0483 0.0
C491 C 0.01254 0.52475 0.07998 0.0
N492 N 0.96553 0.47624 0.96446 0.0
N493 N -0.00318 0.52053 0.04037 0.0
H494 H 0.44805 0.45431 0.60085 0.0
H495 H 0.51824 0.54382 0.41634 0.0
H496 H 0.44118 0.52227 0.61029 0.0
H497 H 0.52386 0.47573 0.40262 0.0
H498 H 0.49056 0.53627 0.4895 0.0
H499 H 0.47619 0.46182 0.52885 0.0
C500 C 0.45238 0.47078 0.58767 0.0
C501 C 0.44222 0.48767 0.61172 0.0
C502 C 0.49789 0.52299 0.47054 0.0
C503 C 0.47449 0.4964 0.52965 0.0
C504 C 0.51375 0.52731 0.4289 0.0
C505 C 0.52337 0.5104 0.40318 0.0
C506 C 0.49161 0.50162 0.4866 0.0
C507 C 0.51687 0.4893 0.42113 0.0
C508 C 0.46849 0.47507 0.54666 0.0
C509 C 0.44855 0.50872 0.59303 0.0
N510 N 0.50138 0.48552 0.46161 0.0
N511 N 0.46428 0.51247 0.55323 0.0
H512 H 0.09784 0.4144 0.27362 0.0
H513 H 0.14642 0.3633 -0.00664 0.0
H514 H 0.08798 0.43612 0.09987 0.0
H515 H 0.17113 0.35642 0.16513 0.0
H516 H 0.11729 0.38198 0.03335 0.0
H517 H 0.11705 0.38522 0.23525 0.0
C518 C 0.09935 0.41277 0.22742 0.0
C519 C 0.09166 0.42787 0.18984 0.0
C520 C 0.12892 0.37607 0.0623 0.0
C521 C 0.11347 0.39467 0.14587 0.0
C522 C 0.14549 0.36536 0.03955 0.0
C523 C 0.1614 0.35867 0.07592 0.0
C524 C 0.12823 0.37996 0.12178 0.0
C525 C 0.15937 0.36165 0.13548 0.0
C526 C 0.11037 0.3962 0.20559 0.0
C527 C 0.09399 0.42501 0.13036 0.0
N528 N 0.14322 0.37228 0.15653 0.0
N529 N 0.10486 0.40887 0.11021 0.0
H530 H 0.74827 0.88978 0.34908 0.0
H531 H 0.8415 0.98282 0.40482 0.0
H532 H 0.77744 0.90113 0.51575 0.0
H533 H 0.83041 0.95318 0.23867 0.0
H534 H 0.81351 0.95745 0.44586 0.0
H535 H 0.77386 0.91759 0.30787 0.0
C536 C 0.75995 0.89824 0.37711 0.0
C537 C 0.76083 0.8931 0.4359 0.0
C538 C 0.81718 0.95657 0.4004 0.0
C539 C 0.78998 0.92493 0.38905 0.0
C540 C 0.83306 0.97107 0.37686 0.0
C541 C 0.83833 0.97001 0.31827 0.0
C542 C 0.80627 0.9411 0.36494 0.0
C543 C 0.82691 0.95446 0.2841 0.0
C544 C 0.77458 0.91402 0.35347 0.0
C545 C 0.77631 0.90454 0.47016 0.0
N546 N 0.81135 0.9406 0.30794 0.0
N547 N 0.79028 0.91998 0.44622 0.0
H548 H 0.3161 0.63757 0.48574 0.0
H549 H 0.37501 0.55752 0.58787 0.0
H550 H 0.28892 0.63336 0.65659 0.0
H551 H 0.36518 0.58281 0.75735 0.0
H552 H 0.35527 0.58551 0.54661 0.0
H553 H 0.34597 0.61863 0.52037 0.0
C554 C 0.3165 0.63278 0.53059 0.0
C555 C 0.29979 0.63661 0.56807 0.0
C556 C 0.35797 0.58546 0.59261 0.0
C557 C 0.33357 0.61458 0.60766 0.0
C558 C 0.36909 0.5693 0.61629 0.0
C559 C 0.37156 0.56774 0.67616 0.0
C560 C 0.34905 0.60005 0.62917 0.0
C561 C 0.3636 0.58342 0.71097 0.0
C562 C 0.33344 0.62179 0.55021 0.0
C563 C 0.30125 0.63036 0.62594 0.0
N564 N 0.35231 0.59868 0.68702 0.0
N565 N 0.31775 0.61951 0.64384 0.0
H566 H 0.71474 0.11008 0.85115 0.0
H567 H 0.62153 0.01668 0.90543 0.0
H568 H 0.68504 0.09823 0.01736 0.0
H569 H 0.63306 0.04695 0.73944 0.0
H570 H 0.64925 0.04206 0.947 0.0
H571 H 0.68927 0.08242 0.80963 0.0
C572 C 0.70296 0.10154 0.87902 0.0
C573 C 0.70192 0.1065 0.93778 0.0
C574 C 0.64573 0.04308 0.90147 0.0
C575 C 0.67289 0.07483 0.89054 0.0
C576 C 0.63 0.02857 0.87763 0.0
C577 C 0.62495 0.0298 0.81891 0.0
C578 C 0.6567 0.05871 0.86619 0.0
C579 C 0.6364 0.04554 0.78495 0.0
C580 C 0.68839 0.08585 0.8552 0.0
C581 C 0.68631 0.09497 0.97181 0.0
N582 N 0.65181 0.05938 0.80909 0.0
N583 N 0.6724 0.07961 0.94769 0.0
H584 H 0.13122 0.5463 0.23537 0.0
H585 H 0.18273 0.59842 0.52044 0.0
H586 H 0.12084 0.51699 0.40296 0.0
H587 H 0.21116 0.61043 0.35276 0.0
H588 H 0.15754 0.57056 0.47811 0.0
H589 H 0.15851 0.57221 0.2774 0.0
C590 C 0.13475 0.54527 0.2809 0.0
C591 C 0.12376 0.52951 0.31576 0.0
C592 C 0.16939 0.57923 0.45073 0.0
C593 C 0.15464 0.55914 0.36406 0.0
C594 C 0.1837 0.59515 0.4748 0.0
C595 C 0.19902 0.60673 0.44003 0.0
C596 C 0.1702 0.57517 0.39137 0.0
C597 C 0.19962 0.60183 0.38114 0.0
C598 C 0.15033 0.55999 0.30479 0.0
C599 C 0.12896 0.52886 0.37449 0.0
N600 N 0.18529 0.58654 0.35854 0.0
N601 N 0.14389 0.54359 0.39692 0.0
H602 H 0.59733 0.91506 0.76729 0.0
H603 H 0.64702 0.86585 0.48566 0.0
H604 H 0.58999 0.9397 0.59527 0.0
H605 H 0.67013 0.85676 0.65815 0.0
H606 H 0.61822 0.88516 0.5254 0.0
H607 H 0.61618 0.88593 0.72726 0.0
C608 C 0.59934 0.91411 0.72108 0.0
C609 C 0.59244 0.92998 0.68458 0.0
C610 C 0.62942 0.87862 0.55451 0.0
C611 C 0.61384 0.89682 0.6387 0.0
C612 C 0.64578 0.86755 0.5319 0.0
C613 C 0.66115 0.86004 0.56866 0.0
C614 C 0.62839 0.88198 0.6142 0.0
C615 C 0.65879 0.86262 0.62825 0.0
C616 C 0.61013 0.89755 0.69831 0.0
C617 C 0.59538 0.92796 0.625 0.0
N618 N 0.64284 0.87355 0.64917 0.0
N619 N 0.60602 0.9118 0.60393 0.0
H620 H 0.31929 0.49163 0.84193 0.0
H621 H 0.29139 0.37639 0.9737 0.0
H622 H 0.3537 0.43873 0.78783 0.0
H623 H 0.24081 0.41356 0.9174 0.0
H624 H 0.31745 0.40232 0.92556 0.0
H625 H 0.29261 0.46597 0.88866 0.0
C626 C 0.32112 0.47461 0.83971 0.0
C627 C 0.33854 0.46717 0.81083 0.0
C628 C 0.30064 0.40476 0.92414 0.0
C629 C 0.30872 0.4381 0.86536 0.0
C630 C 0.28584 0.39016 0.95189 0.0
C631 C 0.264 0.39295 0.94935 0.0
C632 C 0.29352 0.42248 0.89523 0.0
C633 C 0.25755 0.4109 0.92009 0.0
C634 C 0.30597 0.46007 0.86624 0.0
C635 C 0.34033 0.44501 0.80923 0.0
N636 N 0.27229 0.42515 0.89448 0.0
N637 N 0.32572 0.4312 0.83691 0.0
H638 H 0.81613 0.13434 -0.01271 0.0
H639 H 0.86622 0.08442 0.26844 0.0
H640 H 0.79259 0.142 0.15982 0.0
H641 H 0.87432 0.06099 0.09608 0.0
H642 H 0.84705 0.11349 0.22872 0.0
H643 H 0.84528 0.11538 0.02686 0.0
C644 C 0.81734 0.13239 0.03351 0.0
C645 C 0.80176 0.13939 0.07031 0.0
C646 C 0.85334 0.10216 0.19962 0.0
C647 C 0.83493 0.11787 0.11566 0.0
C648 C 0.86433 0.08564 0.22221 0.0
C649 C 0.87152 0.0701 0.18551 0.0
C650 C 0.84973 0.10318 0.14 0.0
C651 C 0.86871 0.07246 0.12594 0.0
C652 C 0.8339 0.12153 0.05601 0.0
C653 C 0.80409 0.13653 0.12988 0.0
N654 N 0.85786 0.08856 0.10505 0.0
N655 N 0.82024 0.12581 0.15069 0.0
H656 H 0.79266 0.64385 0.84331 0.0
H657 H 0.87527 0.5603 0.91075 0.0
H658 H 0.81589 0.63305 0.01479 0.0
H659 H 0.86473 0.58372 0.73905 0.0
H660 H 0.8565 0.58939 0.94983 0.0
H661 H 0.8215 0.62484 0.80402 0.0
C662 C 0.80405 0.63773 0.87267 0.0
C663 C 0.80172 0.63971 0.93243 0.0
C664 C 0.85858 0.58843 0.90365 0.0
C665 C 0.83459 0.61768 0.88781 0.0
C666 C 0.86924 0.57178 0.8813 0.0
C667 C 0.87125 0.56944 0.82155 0.0
C668 C 0.84949 0.60261 0.86594 0.0
C669 C 0.86338 0.58487 0.78539 0.0
C670 C 0.82055 0.62692 0.85019 0.0
C671 C 0.81703 0.63172 0.96845 0.0
N672 N 0.85248 0.6006 0.80812 0.0
N673 N 0.83261 0.62068 0.94561 0.0
H674 H 0.21391 0.11069 0.65868 0.0
H675 H 0.12148 0.01675 0.60398 0.0
H676 H 0.18508 0.09839 0.49197 0.0
H677 H 0.13191 0.047 0.7696 0.0
H678 H 0.14938 0.04219 0.56289 0.0
H679 H 0.1884 0.0829 0.70043 0.0
C680 C 0.20231 0.10203 0.63078 0.0
C681 C 0.20151 0.10689 0.5718 0.0
C682 C 0.14559 0.04319 0.60824 0.0
C683 C 0.17248 0.07508 0.61924 0.0
C684 C 0.12975 0.02865 0.63182 0.0
C685 C 0.12432 0.02986 0.69026 0.0
C686 C 0.15628 0.05886 0.64352 0.0
C687 C 0.13554 0.04561 0.72427 0.0
C688 C 0.18773 0.08627 0.65471 0.0
C689 C 0.18615 0.09521 0.53769 0.0
N690 N 0.15105 0.0595 0.70039 0.0
N691 N 0.17224 0.07978 0.56191 0.0
H692 H 0.67162 0.357 0.34116 0.0
H693 H 0.5877 0.43875 0.41106 0.0
H694 H 0.64796 0.36602 0.51292 0.0
H695 H 0.59851 0.41665 0.23875 0.0
H696 H 0.60693 0.40973 0.44929 0.0
H697 H 0.64257 0.37595 0.30246 0.0
C698 C 0.66011 0.36273 0.37069 0.0
C699 C 0.66236 0.36024 0.43039 0.0
C700 C 0.60481 0.41096 0.40316 0.0
C701 C 0.62924 0.3822 0.38644 0.0
C702 C 0.59388 0.42757 0.38129 0.0
C703 C 0.59181 0.43027 0.32163 0.0
C704 C 0.61411 0.39719 0.36504 0.0
C705 C 0.59989 0.41521 0.28504 0.0
C706 C 0.64349 0.3735 0.34855 0.0
C707 C 0.64688 0.36774 0.46664 0.0
N708 N 0.61106 0.39952 0.3073 0.0
N709 N 0.63118 0.37875 0.44414 0.0
H710 H 0.3316 0.95292 0.27107 0.0
H711 H 0.28077 0.901 0.98528 0.0
H712 H 0.34304 0.9822 0.10383 0.0
H713 H 0.25099 0.89036 0.15179 0.0
H714 H 0.30612 0.92868 0.02793 0.0
H715 H 0.3041 0.92744 0.22828 0.0
C716 C 0.32826 0.95403 0.22545 0.0
C717 C 0.3396 0.96965 0.19092 0.0
C718 C 0.29393 0.92036 0.05494 0.0
C719 C 0.30849 0.9405 0.14175 0.0
C720 C 0.27953 0.90455 0.0307 0.0
C721 C 0.2638 0.89339 0.06508 0.0
C722 C 0.29279 0.9247 0.11409 0.0
C723 C 0.26285 0.89862 0.12369 0.0
C724 C 0.31256 0.93956 0.20113 0.0
C725 C 0.33464 0.97043 0.13204 0.0
N726 N 0.27729 0.91377 0.1465 0.0
N727 N 0.31958 0.95591 0.10917 0.0
H728 H 0.7791 0.40102 0.48297 0.0
H729 H 0.83026 0.45244 0.76896 0.0
H730 H 0.74952 0.3901 0.64965 0.0
H731 H 0.84175 0.4818 0.60184 0.0
H732 H 0.80262 0.42713 0.72615 0.0
H733 H 0.80448 0.42865 0.5257 0.0
C734 C 0.7779 0.40451 0.52844 0.0
C735 C 0.76223 0.39327 0.56285 0.0
C736 C 0.81112 0.43923 0.69903 0.0
C737 C 0.79126 0.42452 0.61195 0.0
C738 C 0.82691 0.4536 0.72337 0.0
C739 C 0.8383 0.4692 0.68887 0.0
C740 C 0.80702 0.44025 0.63967 0.0
C741 C 0.83331 0.47005 0.63003 0.0
C742 C 0.79232 0.42028 0.55273 0.0
C743 C 0.76134 0.39842 0.62153 0.0
N744 N 0.81817 0.45563 0.60715 0.0
N745 N 0.77579 0.41354 0.64438 0.0
H746 H 0.31563 0.13374 0.52071 0.0
H747 H 0.36617 0.08469 0.24005 0.0
H748 H 0.29232 0.1419 0.34801 0.0
H749 H 0.37392 0.06057 0.41245 0.0
H750 H 0.34684 0.11355 0.27962 0.0
H751 H 0.34475 0.11475 0.48142 0.0
C752 C 0.31688 0.13189 0.47451 0.0
C753 C 0.30138 0.13905 0.43757 0.0
C754 C 0.35308 0.1021 0.30876 0.0
C755 C 0.33451 0.1175 0.39255 0.0
C756 C 0.36415 0.08571 0.28626 0.0
C757 C 0.3713 0.07004 0.323 0.0
C758 C 0.34934 0.10289 0.36834 0.0
C759 C 0.36834 0.07214 0.38255 0.0
C760 C 0.33342 0.12101 0.45217 0.0
C761 C 0.30376 0.1363 0.37805 0.0
N762 N 0.35741 0.08814 0.40336 0.0
N763 N 0.31989 0.12558 0.35739 0.0
H764 H 0.63251 0.54692 0.26994 0.0
H765 H 0.68506 0.59863 0.98466 0.0
H766 H 0.62094 0.51835 0.10266 0.0
H767 H 0.71428 0.60866 0.15173 0.0
H768 H 0.65933 0.57108 0.02702 0.0
H769 H 0.66068 0.57191 0.22752 0.0
C770 C 0.63596 0.54587 0.22439 0.0
C771 C 0.62438 0.5306 0.18972 0.0
C772 C 0.67149 0.57923 0.05422 0.0
C773 C 0.65628 0.55918 0.14099 0.0
C774 C 0.68611 0.59495 0.03014 0.0
C775 C 0.70177 0.60594 0.06477 0.0
C776 C 0.67233 0.57477 0.11347 0.0
C777 C 0.70247 0.60054 0.12345 0.0
C778 C 0.65205 0.56006 0.20028 0.0
C779 C 0.62951 0.52987 0.13096 0.0
N780 N 0.68781 0.58548 0.14611 0.0
N781 N 0.64495 0.5441 0.1083 0.0
H782 H 0.17296 0.85815 0.84305 0.0
H783 H 0.08789 0.93871 0.91279 0.0
H784 H 0.14917 0.86679 0.01487 0.0
H785 H 0.09859 0.9163 0.74072 0.0
H786 H 0.10766 0.91011 0.95123 0.0
H787 H 0.14366 0.87676 0.80446 0.0
C788 C 0.16138 0.86374 0.87262 0.0
C789 C 0.16365 0.86123 0.9323 0.0
C790 C 0.10539 0.91118 0.90512 0.0
C791 C 0.13022 0.88277 0.88847 0.0
C792 C 0.09415 0.92754 0.88313 0.0
C793 C 0.09189 0.93004 0.82345 0.0
C794 C 0.1148 0.89746 0.86709 0.0
C795 C 0.1001 0.91501 0.78701 0.0
C796 C 0.14461 0.8743 0.85054 0.0
C797 C 0.14808 0.86854 0.9686 0.0
N798 N 0.11156 0.89957 0.80937 0.0
N799 N 0.13221 0.87934 0.94616 0.0
loop_
_geom_bond_atom_site_label_1
_geom_bond_atom_site_label_2
_geom_bond_distance
_geom_bond_site_symmetry_2
_ccdc_geom_bond_type
C0 O1 1.306 . S
C0 O3 1.160 . S
O1 C0 1.306 . S
O1 Cd2 2.228 . S
Cd2 O1 2.228 . S
Cd2 O6 2.273 . S
Cd2 O10 2.277 1_554 S
O3 C0 1.160 . S
O3 Cd4 2.203 . S
Cd4 O3 2.203 . S
Cd4 O6 2.411 . S
Cd4 O7 2.333 1_554 S
Cd4 O8 2.352 . S
Cd4 O12 2.277 1_554 S
Cd4 O13 2.356 . S
C5 O10 1.209 . S
C5 O12 1.226 . S
O6 Cd2 2.273 . S
O6 Cd4 2.411 . S
O6 C9 1.320 1_554 S
O7 Cd4 2.333 1_556 S
O7 C9 1.214 . S
O8 Cd4 2.352 . S
O8 C11 1.258 . S
C9 O6 1.320 1_556 S
C9 O7 1.214 . S
O10 Cd2 2.277 1_556 S
O10 C5 1.209 . S
C11 O8 1.258 . S
C11 O13 1.282 . S
O12 Cd4 2.277 1_556 S
O12 C5 1.226 . S
O13 Cd4 2.356 . S
O13 C11 1.282 . S
C14 O15 1.306 1_545 S
C14 O17 1.160 . S
O15 C14 1.306 1_565 S
O15 Cd16 2.228 . S
Cd16 O15 2.228 . S
Cd16 O20 2.273 . S
Cd16 O24 2.277 . S
O17 C14 1.160 . S
O17 Cd18 2.203 . S
Cd18 O17 2.203 . S
Cd18 O20 2.411 1_545 S
Cd18 O21 2.333 . S
Cd18 O22 2.352 . S
Cd18 O26 2.277 . S
Cd18 O27 2.356 . S
C19 O24 1.209 1_545 S
C19 O26 1.226 . S
O20 Cd16 2.273 . S
O20 Cd18 2.411 1_565 S
O20 C23 1.320 . S
O21 Cd18 2.333 . S
O21 C23 1.214 1_545 S
O22 Cd18 2.352 . S
O22 C25 1.258 . S
C23 O20 1.320 . S
C23 O21 1.214 1_565 S
O24 Cd16 2.277 . S
O24 C19 1.209 1_565 S
C25 O22 1.258 . S
C25 O27 1.282 . S
O26 Cd18 2.277 . S
O26 C19 1.226 . S
O27 Cd18 2.356 . S
O27 C25 1.282 . S
C28 O29 1.306 . S
C28 O31 1.160 . S
O29 C28 1.306 . S
O29 Cd30 2.228 . S
Cd30 O29 2.228 . S
Cd30 O34 2.273 . S
Cd30 O38 2.277 . S
O31 C28 1.160 . S
O31 Cd32 2.203 . S
Cd32 O31 2.203 . S
Cd32 O34 2.411 . S
Cd32 O35 2.333 . S
Cd32 O36 2.352 . S
Cd32 O40 2.277 . S
Cd32 O41 2.356 . S
C33 O38 1.209 . S
C33 O40 1.226 . S
O34 Cd30 2.273 . S
O34 Cd32 2.411 . S
O34 C37 1.320 . S
O35 Cd32 2.333 . S
O35 C37 1.214 . S
O36 Cd32 2.352 . S
O36 C39 1.258 . S
C37 O34 1.320 . S
C37 O35 1.214 . S
O38 Cd30 2.277 . S
O38 C33 1.209 . S
C39 O36 1.258 . S
C39 O41 1.282 . S
O40 Cd32 2.277 . S
O40 C33 1.226 . S
O41 Cd32 2.356 . S
O41 C39 1.282 . S
C42 O43 1.306 . S
C42 O45 1.190 . S
O43 C42 1.306 . S
O43 Cd44 2.228 . S
Cd44 O43 2.228 . S
Cd44 O48 2.273 . S
Cd44 O52 2.277 . S
O45 C42 1.190 . S
O45 Cd46 2.206 . S
Cd46 O45 2.206 . S
Cd46 O48 2.411 . S
Cd46 O49 2.333 . S
Cd46 O50 2.352 1_545 S
Cd46 O54 2.277 1_545 S
Cd46 O55 2.356 1_545 S
C47 O52 1.209 . S
C47 O54 1.226 1_545 S
O48 Cd44 2.273 . S
O48 Cd46 2.411 . S
O48 C51 1.320 . S
O49 Cd46 2.333 . S
O49 C51 1.214 . S
O50 Cd46 2.352 1_565 S
O50 C53 1.258 . S
C51 O48 1.320 . S
C51 O49 1.214 . S
O52 Cd44 2.277 . S
O52 C47 1.209 . S
C53 O50 1.258 . S
C53 O55 1.282 . S
O54 Cd46 2.277 1_565 S
O54 C47 1.226 1_565 S
O55 Cd46 2.356 1_565 S
O55 C53 1.282 . S
C56 O57 1.306 . S
C56 O59 1.160 . S
O57 C56 1.306 . S
O57 Cd58 2.228 1_556 S
Cd58 O57 2.228 1_554 S
Cd58 O62 2.273 . S
Cd58 O66 2.277 . S
O59 C56 1.160 . S
O59 Cd60 2.203 1_556 S
Cd60 O59 2.203 1_554 S
Cd60 O62 2.411 . S
Cd60 O63 2.333 . S
Cd60 O64 2.352 1_554 S
Cd60 O68 2.277 . S
Cd60 O69 2.356 . S
C61 O66 1.209 . S
C61 O68 1.226 . S
O62 Cd58 2.273 . S
O62 Cd60 2.411 . S
O62 C65 1.320 . S
O63 Cd60 2.333 . S
O63 C65 1.214 . S
O64 Cd60 2.352 1_556 S
O64 C67 1.258 . S
C65 O62 1.320 . S
C65 O63 1.214 . S
O66 Cd58 2.277 . S
O66 C61 1.209 . S
C67 O64 1.258 . S
C67 O69 1.282 1_556 S
O68 Cd60 2.277 . S
O68 C61 1.226 . S
O69 Cd60 2.356 . S
O69 C67 1.282 1_554 S
C70 O71 1.306 . S
C70 O73 1.189 . S
O71 C70 1.306 . S
O71 Cd72 2.228 . S
Cd72 O71 2.228 . S
Cd72 O76 2.273 . S
Cd72 O80 2.277 . S
O73 C70 1.189 . S
O73 Cd74 2.206 . S
Cd74 O73 2.206 . S
Cd74 O76 2.411 . S
Cd74 O77 2.333 . S
Cd74 O78 2.352 1_545 S
Cd74 O82 2.277 1_545 S
Cd74 O83 2.356 1_545 S
C75 O80 1.209 . S
C75 O82 1.226 1_545 S
O76 Cd72 2.273 . S
O76 Cd74 2.411 . S
O76 C79 1.320 . S
O77 Cd74 2.333 . S
O77 C79 1.214 . S
O78 Cd74 2.352 1_565 S
O78 C81 1.258 . S
C79 O76 1.320 . S
C79 O77 1.214 . S
O80 Cd72 2.277 . S
O80 C75 1.209 . S
C81 O78 1.258 . S
C81 O83 1.282 . S
O82 Cd74 2.277 1_565 S
O82 C75 1.226 1_565 S
O83 Cd74 2.356 1_565 S
O83 C81 1.282 . S
C84 O85 1.306 . S
C84 O87 1.160 . S
O85 C84 1.306 . S
O85 Cd86 2.228 . S
Cd86 O85 2.228 . S
Cd86 O90 2.273 . S
Cd86 O94 2.277 . S
O87 C84 1.160 . S
O87 Cd88 2.203 . S
Cd88 O87 2.203 . S
Cd88 O90 2.411 . S
Cd88 O91 2.333 . S
Cd88 O92 2.352 . S
Cd88 O96 2.277 . S
Cd88 O97 2.356 . S
C89 O94 1.209 . S
C89 O96 1.226 . S
O90 Cd86 2.273 . S
O90 Cd88 2.411 . S
O90 C93 1.320 . S
O91 Cd88 2.333 . S
O91 C93 1.214 . S
O92 Cd88 2.352 . S
O92 C95 1.258 . S
C93 O90 1.320 . S
C93 O91 1.214 . S
O94 Cd86 2.277 . S
O94 C89 1.209 . S
C95 O92 1.258 . S
C95 O97 1.282 . S
O96 Cd88 2.277 . S
O96 C89 1.226 . S
O97 Cd88 2.356 . S
O97 C95 1.282 . S
C98 O99 1.306 1_545 S
C98 O101 1.160 . S
O99 C98 1.306 1_565 S
O99 Cd100 2.228 . S
Cd100 O99 2.228 . S
Cd100 O104 2.273 . S
Cd100 O108 2.277 . S
O101 C98 1.160 . S
O101 Cd102 2.203 . S
Cd102 O101 2.203 . S
Cd102 O104 2.411 1_545 S
Cd102 O105 2.333 . S
Cd102 O106 2.352 . S
Cd102 O110 2.277 . S
Cd102 O111 2.356 . S
C103 O108 1.209 1_545 S
C103 O110 1.226 . S
O104 Cd100 2.273 . S
O104 Cd102 2.411 1_565 S
O104 C107 1.320 . S
O105 Cd102 2.333 . S
O105 C107 1.214 1_545 S
O106 Cd102 2.352 . S
O106 C109 1.258 . S
C107 O104 1.320 . S
C107 O105 1.214 1_565 S
O108 Cd100 2.277 . S
O108 C103 1.209 1_565 S
C109 O106 1.258 . S
C109 O111 1.282 . S
O110 Cd102 2.277 . S
O110 C103 1.226 . S
O111 Cd102 2.356 . S
O111 C109 1.282 . S
C112 O113 1.306 . S
C112 O115 1.160 . S
O113 C112 1.306 . S
O113 Cd114 2.228 . S
Cd114 O113 2.228 . S
Cd114 O118 2.273 . S
Cd114 O122 2.277 . S
O115 C112 1.160 . S
O115 Cd116 2.203 . S
Cd116 O115 2.203 . S
Cd116 O118 2.411 . S
Cd116 O119 2.333 . S
Cd116 O120 2.352 . S
Cd116 O124 2.277 . S
Cd116 O125 2.356 . S
C117 O122 1.209 . S
C117 O124 1.226 . S
O118 Cd114 2.273 . S
O118 Cd116 2.411 . S
O118 C121 1.320 . S
O119 Cd116 2.333 . S
O119 C121 1.214 . S
O120 Cd116 2.352 . S
O120 C123 1.258 . S
C121 O118 1.320 . S
C121 O119 1.214 . S
O122 Cd114 2.277 . S
O122 C117 1.209 . S
C123 O120 1.258 . S
C123 O125 1.282 . S
O124 Cd116 2.277 . S
O124 C117 1.226 . S
O125 Cd116 2.356 . S
O125 C123 1.282 . S
C126 O127 1.306 . S
C126 O129 1.160 . S
O127 C126 1.306 . S
O127 Cd128 2.228 . S
Cd128 O127 2.228 . S
Cd128 O132 2.273 . S
Cd128 O136 2.277 . S
O129 C126 1.160 . S
O129 Cd130 2.203 . S
Cd130 O129 2.203 . S
Cd130 O132 2.411 . S
Cd130 O133 2.333 . S
Cd130 O134 2.352 . S
Cd130 O138 2.277 . S
Cd130 O139 2.356 . S
C131 O136 1.209 . S
C131 O138 1.226 . S
O132 Cd128 2.273 . S
O132 Cd130 2.411 . S
O132 C135 1.320 . S
O133 Cd130 2.333 . S
O133 C135 1.214 . S
O134 Cd130 2.352 . S
O134 C137 1.258 . S
C135 O132 1.320 . S
C135 O133 1.214 . S
O136 Cd128 2.277 . S
O136 C131 1.209 . S
C137 O134 1.258 . S
C137 O139 1.282 . S
O138 Cd130 2.277 . S
O138 C131 1.226 . S
O139 Cd130 2.356 . S
O139 C137 1.282 . S
C140 O141 1.306 . S
C140 O143 1.160 . S
O141 C140 1.306 . S
O141 Cd142 2.228 . S
Cd142 O141 2.228 . S
Cd142 O146 2.273 . S
Cd142 O150 2.277 1_554 S
O143 C140 1.160 . S
O143 Cd144 2.203 . S
Cd144 O143 2.203 . S
Cd144 O146 2.411 . S
Cd144 O147 2.333 1_554 S
Cd144 O148 2.352 . S
Cd144 O152 2.277 1_554 S
Cd144 O153 2.356 . S
C145 O150 1.209 . S
C145 O152 1.226 . S
O146 Cd142 2.273 . S
O146 Cd144 2.411 . S
O146 C149 1.320 1_554 S
O147 Cd144 2.333 1_556 S
O147 C149 1.214 . S
O148 Cd144 2.352 . S
O148 C151 1.258 . S
C149 O146 1.320 1_556 S
C149 O147 1.214 . S
O150 Cd142 2.277 1_556 S
O150 C145 1.209 . S
C151 O148 1.258 . S
C151 O153 1.282 . S
O152 Cd144 2.277 1_556 S
O152 C145 1.226 . S
O153 Cd144 2.356 . S
O153 C151 1.282 . S
C154 O155 1.306 . S
C154 O157 1.160 . S
O155 C154 1.306 . S
O155 Cd156 2.228 . S
Cd156 O155 2.228 . S
Cd156 O160 2.273 . S
Cd156 O164 2.277 . S
O157 C154 1.160 . S
O157 Cd158 2.203 . S
Cd158 O157 2.203 . S
Cd158 O160 2.411 . S
Cd158 O161 2.333 . S
Cd158 O162 2.352 . S
Cd158 O166 2.277 . S
Cd158 O167 2.356 . S
C159 O164 1.209 . S
C159 O166 1.226 . S
O160 Cd156 2.273 . S
O160 Cd158 2.411 . S
O160 C163 1.320 . S
O161 Cd158 2.333 . S
O161 C163 1.214 . S
O162 Cd158 2.352 . S
O162 C165 1.258 . S
C163 O160 1.320 . S
C163 O161 1.214 . S
O164 Cd156 2.277 . S
O164 C159 1.209 . S
C165 O162 1.258 . S
C165 O167 1.282 . S
O166 Cd158 2.277 . S
O166 C159 1.226 . S
O167 Cd158 2.356 . S
O167 C165 1.282 . S
C168 O169 1.306 . S
C168 O171 1.160 . S
O169 C168 1.306 . S
O169 Cd170 2.228 . S
Cd170 O169 2.228 . S
Cd170 O174 2.273 . S
Cd170 O178 2.277 . S
O171 C168 1.160 . S
O171 Cd172 2.203 . S
Cd172 O171 2.203 . S
Cd172 O174 2.411 . S
Cd172 O175 2.333 . S
Cd172 O176 2.352 . S
Cd172 O180 2.277 . S
Cd172 O181 2.356 . S
C173 O178 1.209 . S
C173 O180 1.226 . S
O174 Cd170 2.273 . S
O174 Cd172 2.411 . S
O174 C177 1.320 . S
O175 Cd172 2.333 . S
O175 C177 1.214 . S
O176 Cd172 2.352 . S
O176 C179 1.258 . S
C177 O174 1.320 . S
C177 O175 1.214 . S
O178 Cd170 2.277 . S
O178 C173 1.209 . S
C179 O176 1.258 . S
C179 O181 1.282 . S
O180 Cd172 2.277 . S
O180 C173 1.226 . S
O181 Cd172 2.356 . S
O181 C179 1.282 . S
C182 O183 1.306 . S
C182 O185 1.160 . S
O183 C182 1.306 . S
O183 Cd184 2.228 . S
Cd184 O183 2.228 . S
Cd184 O188 2.273 . S
Cd184 O192 2.277 . S
O185 C182 1.160 . S
O185 Cd186 2.203 . S
Cd186 O185 2.203 . S
Cd186 O188 2.411 . S
Cd186 O189 2.333 . S
Cd186 O190 2.352 . S
Cd186 O194 2.277 . S
Cd186 O195 2.356 . S
C187 O192 1.209 . S
C187 O194 1.226 . S
O188 Cd184 2.273 . S
O188 Cd186 2.411 . S
O188 C191 1.320 . S
O189 Cd186 2.333 . S
O189 C191 1.214 . S
O190 Cd186 2.352 . S
O190 C193 1.258 . S
C191 O188 1.320 . S
C191 O189 1.214 . S
O192 Cd184 2.277 . S
O192 C187 1.209 . S
C193 O190 1.258 . S
C193 O195 1.282 . S
O194 Cd186 2.277 . S
O194 C187 1.226 . S
O195 Cd186 2.356 . S
O195 C193 1.282 . S
C196 O197 1.306 . S
C196 O199 1.160 . S
O197 C196 1.306 . S
O197 Cd198 2.228 1_556 S
Cd198 O197 2.228 1_554 S
Cd198 O202 2.273 . S
Cd198 O206 2.277 . S
O199 C196 1.160 . S
O199 Cd200 2.203 1_556 S
Cd200 O199 2.203 1_554 S
Cd200 O202 2.411 . S
Cd200 O203 2.333 . S
Cd200 O204 2.352 1_554 S
Cd200 O208 2.277 . S
Cd200 O209 2.356 . S
C201 O206 1.209 . S
C201 O208 1.226 . S
O202 Cd198 2.273 . S
O202 Cd200 2.411 . S
O202 C205 1.320 . S
O203 Cd200 2.333 . S
O203 C205 1.214 . S
O204 Cd200 2.352 1_556 S
O204 C207 1.258 . S
C205 O202 1.320 . S
C205 O203 1.214 . S
O206 Cd198 2.277 . S
O206 C201 1.209 . S
C207 O204 1.258 . S
C207 O209 1.282 1_556 S
O208 Cd200 2.277 . S
O208 C201 1.226 . S
O209 Cd200 2.356 . S
O209 C207 1.282 1_554 S
C210 O211 1.306 . S
C210 O213 1.160 . S
O211 C210 1.306 . S
O211 Cd212 2.228 . S
Cd212 O211 2.228 . S
Cd212 O216 2.273 . S
Cd212 O220 2.277 . S
O213 C210 1.160 . S
O213 Cd214 2.203 . S
Cd214 O213 2.203 . S
Cd214 O216 2.411 . S
Cd214 O217 2.333 . S
Cd214 O218 2.352 . S
Cd214 O222 2.277 . S
Cd214 O223 2.356 . S
C215 O220 1.209 . S
C215 O222 1.226 . S
O216 Cd212 2.273 . S
O216 Cd214 2.411 . S
O216 C219 1.320 . S
O217 Cd214 2.333 . S
O217 C219 1.214 . S
O218 Cd214 2.352 . S
O218 C221 1.258 . S
C219 O216 1.320 . S
C219 O217 1.214 . S
O220 Cd212 2.277 . S
O220 C215 1.209 . S
C221 O218 1.258 . S
C221 O223 1.282 . S
O222 Cd214 2.277 . S
O222 C215 1.226 . S
O223 Cd214 2.356 . S
O223 C221 1.282 . S
H224 C230 0.930 . S
H225 C234 0.930 . S
H226 C239 0.929 . S
H227 C237 0.929 . S
H228 C232 0.929 . S
H229 C238 0.929 . S
C230 H224 0.930 . S
C230 C231 1.367 . S
C230 C238 1.378 . S
C231 C230 1.367 . S
C231 C239 1.433 . S
C232 H228 0.929 . S
C232 C234 1.378 . S
C232 C236 1.350 . S
C233 C236 1.463 . S
C233 C238 1.350 . S
C233 N241 1.427 . S
C234 H225 0.930 . S
C234 C232 1.378 . S
C234 C235 1.367 . S
C235 C234 1.367 . S
C235 C237 1.433 . S
C236 C232 1.350 . S
C236 C233 1.463 . S
C236 N240 1.427 . S
C237 H227 0.929 . S
C237 C235 1.433 . S
C237 N240 1.384 . S
C238 H229 0.929 . S
C238 C230 1.378 . S
C238 C233 1.350 . S
C239 H226 0.929 . S
C239 C231 1.433 . S
C239 N241 1.384 . S
N240 C236 1.427 . S
N240 C237 1.384 . S
N241 C233 1.427 . S
N241 C239 1.384 . S
H242 C248 0.930 1_565 S
H243 C252 0.930 . S
H244 C257 0.929 . S
H245 C255 0.929 . S
H246 C250 0.929 . S
H247 C256 0.929 1_565 S
C248 H242 0.930 1_545 S
C248 C249 1.367 . S
C248 C256 1.378 . S
C249 C248 1.367 . S
C249 C257 1.433 . S
C250 H246 0.929 . S
C250 C252 1.378 . S
C250 C254 1.350 . S
C251 C254 1.463 1_655 S
C251 C256 1.350 . S
C251 N259 1.427 . S
C252 H243 0.930 . S
C252 C250 1.378 . S
C252 C253 1.367 . S
C253 C252 1.367 . S
C253 C255 1.433 1_545 S
C254 C250 1.350 . S
C254 C251 1.463 1_455 S
C254 N258 1.409 1_545 S
C255 H245 0.929 . S
C255 C253 1.433 1_565 S
C255 N258 1.388 . S
C256 H247 0.929 1_545 S
C256 C248 1.378 . S
C256 C251 1.350 . S
C257 H244 0.929 . S
C257 C249 1.433 . S
C257 N259 1.384 . S
N258 C254 1.409 1_565 S
N258 C255 1.388 . S
N259 C251 1.427 . S
N259 C257 1.384 . S
H260 C266 0.930 . S
H261 C270 0.930 . S
H262 C275 0.929 . S
H263 C273 0.929 . S
H264 C268 0.929 . S
H265 C274 0.929 . S
C266 H260 0.930 . S
C266 C267 1.367 . S
C266 C274 1.378 . S
C267 C266 1.367 . S
C267 C275 1.433 . S
C268 H264 0.929 . S
C268 C270 1.378 . S
C268 C272 1.350 . S
C269 C272 1.463 . S
C269 C274 1.350 . S
C269 N277 1.427 . S
C270 H261 0.930 . S
C270 C268 1.378 . S
C270 C271 1.367 . S
C271 C270 1.367 . S
C271 C273 1.433 . S
C272 C268 1.350 . S
C272 C269 1.463 . S
C272 N276 1.427 . S
C273 H263 0.929 . S
C273 C271 1.433 . S
C273 N276 1.384 . S
C274 H265 0.929 . S
C274 C266 1.378 . S
C274 C269 1.350 . S
C275 H262 0.929 . S
C275 C267 1.433 . S
C275 N277 1.384 . S
N276 C272 1.427 . S
N276 C273 1.384 . S
N277 C269 1.427 . S
N277 C275 1.384 . S
H278 C284 0.930 . S
H279 C288 0.930 . S
H280 C293 0.929 . S
H281 C291 0.929 . S
H282 C286 0.929 . S
H283 C292 0.929 . S
C284 H278 0.930 . S
C284 C285 1.367 . S
C284 C292 1.378 . S
C285 C284 1.367 . S
C285 C293 1.433 1_545 S
C286 H282 0.929 . S
C286 C288 1.378 . S
C286 C290 1.350 1_565 S
C287 C290 1.463 1_554 S
C287 C292 1.350 . S
C287 N295 1.427 1_545 S
C288 H279 0.930 . S
C288 C286 1.378 . S
C288 C289 1.367 1_565 S
C289 C288 1.367 1_545 S
C289 C291 1.433 . S
C290 C286 1.350 1_545 S
C290 C287 1.463 1_556 S
C290 N294 1.427 . S
C291 H281 0.929 . S
C291 C289 1.433 . S
C291 N294 1.384 . S
C292 H283 0.929 . S
C292 C284 1.378 . S
C292 C287 1.350 . S
C293 H280 0.929 . S
C293 C285 1.433 1_565 S
C293 N295 1.384 . S
N294 C290 1.427 . S
N294 C291 1.384 . S
N295 C287 1.427 1_565 S
N295 C293 1.384 . S
H296 C302 0.930 . S
H297 C306 0.930 . S
H298 C311 0.929 . S
H299 C309 0.929 . S
H300 C304 0.929 . S
H301 C310 0.929 . S
C302 H296 0.930 . S
C302 C303 1.367 . S
C302 C310 1.378 . S
C303 C302 1.367 . S
C303 C311 1.433 . S
C304 H300 0.929 . S
C304 C306 1.378 . S
C304 C308 1.350 . S
C305 C308 1.463 . S
C305 C310 1.350 . S
C305 N313 1.427 . S
C306 H297 0.930 . S
C306 C304 1.378 . S
C306 C307 1.367 . S
C307 C306 1.367 . S
C307 C309 1.433 . S
C308 C304 1.350 . S
C308 C305 1.463 . S
C308 N312 1.427 . S
C309 H299 0.929 . S
C309 C307 1.433 . S
C309 N312 1.384 . S
C310 H301 0.929 . S
C310 C302 1.378 . S
C310 C305 1.350 . S
C311 H298 0.929 . S
C311 C303 1.433 . S
C311 N313 1.384 . S
N312 C308 1.427 . S
N312 C309 1.384 . S
N313 C305 1.427 . S
N313 C311 1.384 . S
H314 C320 0.930 . S
H315 C324 0.930 . S
H316 C329 0.929 . S
H317 C327 0.929 . S
H318 C322 0.929 . S
H319 C328 0.929 . S
C320 H314 0.930 . S
C320 C321 1.367 1_565 S
C320 C328 1.378 . S
C321 C320 1.367 1_545 S
C321 C329 1.433 . S
C322 H318 0.929 . S
C322 C324 1.378 . S
C322 C326 1.350 . S
C323 C326 1.463 . S
C323 C328 1.350 1_545 S
C323 N331 1.427 . S
C324 H315 0.930 . S
C324 C322 1.378 . S
C324 C325 1.367 . S
C325 C324 1.367 . S
C325 C327 1.433 1_545 S
C326 C322 1.350 . S
C326 C323 1.463 . S
C326 N330 1.427 1_545 S
C327 H317 0.929 . S
C327 C325 1.433 1_565 S
C327 N330 1.384 . S
C328 H319 0.929 . S
C328 C320 1.378 . S
C328 C323 1.350 1_565 S
C329 H316 0.929 . S
C329 C321 1.433 . S
C329 N331 1.384 . S
N330 C326 1.427 1_565 S
N330 C327 1.384 . S
N331 C323 1.427 . S
N331 C329 1.384 . S
H332 C338 0.930 . S
H333 C342 0.930 . S
H334 C347 0.929 . S
H335 C345 0.929 . S
H336 C340 0.929 . S
H337 C346 0.929 . S
C338 H332 0.930 . S
C338 C339 1.367 . S
C338 C346 1.378 . S
C339 C338 1.367 . S
C339 C347 1.433 . S
C340 H336 0.929 . S
C340 C342 1.378 . S
C340 C344 1.350 . S
C341 C344 1.463 . S
C341 C346 1.350 . S
C341 N349 1.427 . S
C342 H333 0.930 . S
C342 C340 1.378 . S
C342 C343 1.367 . S
C343 C342 1.367 . S
C343 C345 1.433 . S
C344 C340 1.350 . S
C344 C341 1.463 . S
C344 N348 1.427 . S
C345 H335 0.929 . S
C345 C343 1.433 . S
C345 N348 1.384 . S
C346 H337 0.929 . S
C346 C338 1.378 . S
C346 C341 1.350 . S
C347 H334 0.929 . S
C347 C339 1.433 . S
C347 N349 1.384 . S
N348 C344 1.427 . S
N348 C345 1.384 . S
N349 C341 1.427 . S
N349 C347 1.384 . S
H350 C356 0.930 . S
H351 C360 0.930 . S
H352 C365 0.929 . S
H353 C363 0.929 . S
H354 C358 0.929 . S
H355 C364 0.929 . S
C356 H350 0.930 . S
C356 C357 1.367 . S
C356 C364 1.378 . S
C357 C356 1.367 . S
C357 C365 1.433 1_545 S
C358 H354 0.929 . S
C358 C360 1.378 . S
C358 C362 1.350 1_565 S
C359 C362 1.463 1_456 S
C359 C364 1.350 . S
C359 N367 1.427 1_545 S
C360 H351 0.930 . S
C360 C358 1.378 . S
C360 C361 1.367 1_565 S
C361 C360 1.367 1_545 S
C361 C363 1.433 . S
C362 C358 1.350 1_545 S
C362 C359 1.463 1_654 S
C362 N366 1.427 . S
C363 H353 0.929 . S
C363 C361 1.433 . S
C363 N366 1.384 . S
C364 H355 0.929 . S
C364 C356 1.378 . S
C364 C359 1.350 . S
C365 H352 0.929 . S
C365 C357 1.433 1_565 S
C365 N367 1.384 . S
N366 C362 1.427 . S
N366 C363 1.384 . S
N367 C359 1.427 1_565 S
N367 C365 1.384 . S
H368 C374 0.930 . S
H369 C378 0.930 . S
H370 C383 0.929 . S
H371 C381 0.929 . S
H372 C376 0.929 . S
H373 C382 0.929 . S
C374 H368 0.930 . S
C374 C375 1.367 . S
C374 C382 1.378 . S
C375 C374 1.367 . S
C375 C383 1.433 . S
C376 H372 0.929 . S
C376 C378 1.378 . S
C376 C380 1.350 . S
C377 C380 1.463 . S
C377 C382 1.350 . S
C377 N385 1.427 . S
C378 H369 0.930 . S
C378 C376 1.378 . S
C378 C379 1.367 . S
C379 C378 1.367 . S
C379 C381 1.433 . S
C380 C376 1.350 . S
C380 C377 1.463 . S
C380 N384 1.427 . S
C381 H371 0.929 . S
C381 C379 1.433 . S
C381 N384 1.384 . S
C382 H373 0.929 . S
C382 C374 1.378 . S
C382 C377 1.350 . S
C383 H370 0.929 . S
C383 C375 1.433 . S
C383 N385 1.384 . S
N384 C380 1.427 . S
N384 C381 1.384 . S
N385 C377 1.427 . S
N385 C383 1.384 . S
H386 C392 0.930 . S
H387 C396 0.930 . S
H388 C401 0.929 . S
H389 C399 0.929 . S
H390 C394 0.929 . S
H391 C400 0.929 . S
C392 H386 0.930 . S
C392 C393 1.367 . S
C392 C400 1.378 . S
C393 C392 1.367 . S
C393 C401 1.433 . S
C394 H390 0.929 . S
C394 C396 1.378 . S
C394 C398 1.350 . S
C395 C398 1.463 . S
C395 C400 1.350 . S
C395 N403 1.427 . S
C396 H387 0.930 . S
C396 C394 1.378 . S
C396 C397 1.367 . S
C397 C396 1.367 . S
C397 C399 1.433 . S
C398 C394 1.350 . S
C398 C395 1.463 . S
C398 N402 1.427 . S
C399 H389 0.929 . S
C399 C397 1.433 . S
C399 N402 1.384 . S
C400 H391 0.929 . S
C400 C392 1.378 . S
C400 C395 1.350 . S
C401 H388 0.929 . S
C401 C393 1.433 . S
C401 N403 1.384 . S
N402 C398 1.427 . S
N402 C399 1.384 . S
N403 C395 1.427 . S
N403 C401 1.384 . S
H404 C410 0.930 . S
H405 C414 0.930 . S
H406 C419 0.929 . S
H407 C417 0.929 . S
H408 C412 0.929 . S
H409 C418 0.929 . S
C410 H404 0.930 . S
C410 C411 1.367 . S
C410 C418 1.378 . S
C411 C410 1.367 . S
C411 C419 1.433 . S
C412 H408 0.929 . S
C412 C414 1.378 . S
C412 C416 1.350 . S
C413 C416 1.463 . S
C413 C418 1.350 . S
C413 N421 1.427 . S
C414 H405 0.930 . S
C414 C412 1.378 . S
C414 C415 1.367 . S
C415 C414 1.367 . S
C415 C417 1.433 . S
C416 C412 1.350 . S
C416 C413 1.463 . S
C416 N420 1.427 . S
C417 H407 0.929 . S
C417 C415 1.433 . S
C417 N420 1.384 . S
C418 H409 0.929 . S
C418 C410 1.378 . S
C418 C413 1.350 . S
C419 H406 0.929 . S
C419 C411 1.433 . S
C419 N421 1.384 . S
N420 C416 1.427 . S
N420 C417 1.384 . S
N421 C413 1.427 . S
N421 C419 1.384 . S
H422 C428 0.930 . S
H423 C432 0.930 . S
H424 C437 0.929 . S
H425 C435 0.929 . S
H426 C430 0.929 . S
H427 C436 0.929 . S
C428 H422 0.930 . S
C428 C429 1.367 . S
C428 C436 1.378 . S
C429 C428 1.367 . S
C429 C437 1.433 . S
C430 H426 0.929 . S
C430 C432 1.378 . S
C430 C434 1.350 . S
C431 C434 1.463 . S
C431 C436 1.350 . S
C431 N439 1.427 . S
C432 H423 0.930 . S
C432 C430 1.378 . S
C432 C433 1.367 . S
C433 C432 1.367 . S
C433 C435 1.433 . S
C434 C430 1.350 . S
C434 C431 1.463 . S
C434 N438 1.427 . S
C435 H425 0.929 . S
C435 C433 1.433 . S
C435 N438 1.384 . S
C436 H427 0.929 . S
C436 C428 1.378 . S
C436 C431 1.350 . S
C437 H424 0.929 . S
C437 C429 1.433 . S
C437 N439 1.384 . S
N438 C434 1.427 . S
N438 C435 1.384 . S
N439 C431 1.427 . S
N439 C437 1.384 . S
H440 C446 0.930 . S
H441 C450 0.930 . S
H442 C455 0.929 . S
H443 C453 0.929 . S
H444 C448 0.929 1_554 S
H445 C454 0.929 . S
C446 H440 0.930 . S
C446 C447 1.367 . S
C446 C454 1.378 . S
C447 C446 1.367 . S
C447 C455 1.433 . S
C448 H444 0.929 1_556 S
C448 C450 1.378 . S
C448 C452 1.350 . S
C449 C452 1.463 1_554 S
C449 C454 1.350 . S
C449 N457 1.427 . S
C450 H441 0.930 . S
C450 C448 1.378 . S
C450 C451 1.367 . S
C451 C450 1.367 . S
C451 C453 1.433 . S
C452 C448 1.350 . S
C452 C449 1.463 1_556 S
C452 N456 1.427 . S
C453 H443 0.929 . S
C453 C451 1.433 . S
C453 N456 1.384 . S
C454 H445 0.929 . S
C454 C446 1.378 . S
C454 C449 1.350 . S
C455 H442 0.929 . S
C455 C447 1.433 . S
C455 N457 1.384 . S
N456 C452 1.427 . S
N456 C453 1.384 . S
N457 C449 1.427 . S
N457 C455 1.384 . S
H458 C464 0.930 . S
H459 C468 0.930 . S
H460 C473 0.929 . S
H461 C471 0.929 . S
H462 C466 0.929 . S
H463 C472 0.929 . S
C464 H458 0.930 . S
C464 C465 1.367 . S
C464 C472 1.378 . S
C465 C464 1.367 . S
C465 C473 1.433 . S
C466 H462 0.929 . S
C466 C468 1.378 . S
C466 C470 1.350 . S
C467 C470 1.463 1_455 S
C467 C472 1.350 . S
C467 N475 1.427 . S
C468 H459 0.930 . S
C468 C466 1.378 . S
C468 C469 1.367 . S
C469 C468 1.367 . S
C469 C471 1.433 . S
C470 C466 1.350 . S
C470 C467 1.463 1_655 S
C470 N474 1.427 . S
C471 H461 0.929 . S
C471 C469 1.433 . S
C471 N474 1.384 . S
C472 H463 0.929 . S
C472 C464 1.378 . S
C472 C467 1.350 . S
C473 H460 0.929 . S
C473 C465 1.433 . S
C473 N475 1.384 . S
N474 C470 1.427 . S
N474 C471 1.384 . S
N475 C467 1.427 . S
N475 C473 1.384 . S
H476 C482 0.930 . S
H477 C486 0.930 . S
H478 C491 0.929 . S
H479 C489 0.929 . S
H480 C484 0.928 1_554 S
H481 C490 0.929 . S
C482 H476 0.930 . S
C482 C483 1.367 . S
C482 C490 1.378 . S
C483 C482 1.367 . S
C483 C491 1.433 . S
C484 H480 0.928 1_556 S
C484 C486 1.378 . S
C484 C488 1.350 . S
C485 C488 1.463 1_454 S
C485 C490 1.350 . S
C485 N493 1.427 . S
C486 H477 0.930 . S
C486 C484 1.378 . S
C486 C487 1.367 . S
C487 C486 1.367 . S
C487 C489 1.433 . S
C488 C484 1.350 . S
C488 C485 1.463 1_656 S
C488 N492 1.427 . S
C489 H479 0.929 . S
C489 C487 1.433 . S
C489 N492 1.384 . S
C490 H481 0.929 . S
C490 C482 1.378 . S
C490 C485 1.350 . S
C491 H478 0.929 . S
C491 C483 1.433 . S
C491 N493 1.384 . S
N492 C488 1.427 . S
N492 C489 1.384 . S
N493 C485 1.427 . S
N493 C491 1.384 . S
H494 C500 0.930 . S
H495 C504 0.930 . S
H496 C509 0.929 . S
H497 C507 0.929 . S
H498 C502 0.929 . S
H499 C508 0.929 . S
C500 H494 0.930 . S
C500 C501 1.367 . S
C500 C508 1.378 . S
C501 C500 1.367 . S
C501 C509 1.433 . S
C502 H498 0.929 . S
C502 C504 1.378 . S
C502 C506 1.350 . S
C503 C506 1.463 . S
C503 C508 1.350 . S
C503 N511 1.427 . S
C504 H495 0.930 . S
C504 C502 1.378 . S
C504 C505 1.367 . S
C505 C504 1.367 . S
C505 C507 1.433 . S
C506 C502 1.350 . S
C506 C503 1.463 . S
C506 N510 1.427 . S
C507 H497 0.929 . S
C507 C505 1.433 . S
C507 N510 1.384 . S
C508 H499 0.929 . S
C508 C500 1.378 . S
C508 C503 1.350 . S
C509 H496 0.929 . S
C509 C501 1.433 . S
C509 N511 1.384 . S
N510 C506 1.427 . S
N510 C507 1.384 . S
N511 C503 1.427 . S
N511 C509 1.384 . S
H512 C518 0.930 . S
H513 C522 0.930 . S
H514 C527 0.929 . S
H515 C525 0.929 . S
H516 C520 0.929 . S
H517 C526 0.929 . S
C518 H512 0.930 . S
C518 C519 1.367 . S
C518 C526 1.378 . S
C519 C518 1.367 . S
C519 C527 1.433 . S
C520 H516 0.929 . S
C520 C522 1.378 . S
C520 C524 1.350 . S
C521 C524 1.463 . S
C521 C526 1.350 . S
C521 N529 1.427 . S
C522 H513 0.930 . S
C522 C520 1.378 . S
C522 C523 1.367 . S
C523 C522 1.367 . S
C523 C525 1.433 . S
C524 C520 1.350 . S
C524 C521 1.463 . S
C524 N528 1.427 . S
C525 H515 0.929 . S
C525 C523 1.433 . S
C525 N528 1.384 . S
C526 H517 0.929 . S
C526 C518 1.378 . S
C526 C521 1.350 . S
C527 H514 0.929 . S
C527 C519 1.433 . S
C527 N529 1.384 . S
N528 C524 1.427 . S
N528 C525 1.384 . S
N529 C521 1.427 . S
N529 C527 1.384 . S
H530 C536 0.930 . S
H531 C540 0.930 . S
H532 C545 0.929 . S
H533 C543 0.929 . S
H534 C538 0.929 . S
H535 C544 0.929 . S
C536 H530 0.930 . S
C536 C537 1.367 . S
C536 C544 1.378 . S
C537 C536 1.367 . S
C537 C545 1.433 . S
C538 H534 0.929 . S
C538 C540 1.378 . S
C538 C542 1.350 . S
C539 C542 1.463 . S
C539 C544 1.350 . S
C539 N547 1.427 . S
C540 H531 0.930 . S
C540 C538 1.378 . S
C540 C541 1.367 . S
C541 C540 1.367 . S
C541 C543 1.433 . S
C542 C538 1.350 . S
C542 C539 1.463 . S
C542 N546 1.427 . S
C543 H533 0.929 . S
C543 C541 1.433 . S
C543 N546 1.384 . S
C544 H535 0.929 . S
C544 C536 1.378 . S
C544 C539 1.350 . S
C545 H532 0.929 . S
C545 C537 1.433 . S
C545 N547 1.384 . S
N546 C542 1.427 . S
N546 C543 1.384 . S
N547 C539 1.427 . S
N547 C545 1.384 . S
H548 C554 0.930 . S
H549 C558 0.930 . S
H550 C563 0.929 . S
H551 C561 0.929 . S
H552 C556 0.929 . S
H553 C562 0.929 . S
C554 H548 0.930 . S
C554 C555 1.367 . S
C554 C562 1.378 . S
C555 C554 1.367 . S
C555 C563 1.433 . S
C556 H552 0.929 . S
C556 C558 1.378 . S
C556 C560 1.350 . S
C557 C560 1.463 . S
C557 C562 1.350 . S
C557 N565 1.427 . S
C558 H549 0.930 . S
C558 C556 1.378 . S
C558 C559 1.367 . S
C559 C558 1.367 . S
C559 C561 1.433 . S
C560 C556 1.350 . S
C560 C557 1.463 . S
C560 N564 1.427 . S
C561 H551 0.929 . S
C561 C559 1.433 . S
C561 N564 1.384 . S
C562 H553 0.929 . S
C562 C554 1.378 . S
C562 C557 1.350 . S
C563 H550 0.929 . S
C563 C555 1.433 . S
C563 N565 1.384 . S
N564 C560 1.427 . S
N564 C561 1.384 . S
N565 C557 1.427 . S
N565 C563 1.384 . S
H566 C572 0.930 . S
H567 C576 0.930 . S
H568 C581 0.929 1_554 S
H569 C579 0.929 . S
H570 C574 0.929 . S
H571 C580 0.929 . S
C572 H566 0.930 . S
C572 C573 1.367 . S
C572 C580 1.378 . S
C573 C572 1.367 . S
C573 C581 1.433 . S
C574 H570 0.929 . S
C574 C576 1.378 . S
C574 C578 1.350 . S
C575 C578 1.463 . S
C575 C580 1.350 . S
C575 N583 1.427 . S
C576 H567 0.930 . S
C576 C574 1.378 . S
C576 C577 1.367 . S
C577 C576 1.367 . S
C577 C579 1.433 . S
C578 C574 1.350 . S
C578 C575 1.463 . S
C578 N582 1.427 . S
C579 H569 0.929 . S
C579 C577 1.433 . S
C579 N582 1.384 . S
C580 H571 0.929 . S
C580 C572 1.378 . S
C580 C575 1.350 . S
C581 H568 0.929 1_556 S
C581 C573 1.433 . S
C581 N583 1.384 . S
N582 C578 1.427 . S
N582 C579 1.384 . S
N583 C575 1.427 . S
N583 C581 1.384 . S
H584 C590 0.930 . S
H585 C594 0.930 . S
H586 C599 0.929 . S
H587 C597 0.929 . S
H588 C592 0.929 . S
H589 C598 0.929 . S
C590 H584 0.930 . S
C590 C591 1.367 . S
C590 C598 1.378 . S
C591 C590 1.367 . S
C591 C599 1.433 . S
C592 H588 0.929 . S
C592 C594 1.378 . S
C592 C596 1.350 . S
C593 C596 1.463 . S
C593 C598 1.350 . S
C593 N601 1.427 . S
C594 H585 0.930 . S
C594 C592 1.378 . S
C594 C595 1.367 . S
C595 C594 1.367 . S
C595 C597 1.433 . S
C596 C592 1.350 . S
C596 C593 1.463 . S
C596 N600 1.427 . S
C597 H587 0.929 . S
C597 C595 1.433 . S
C597 N600 1.384 . S
C598 H589 0.929 . S
C598 C590 1.378 . S
C598 C593 1.350 . S
C599 H586 0.929 . S
C599 C591 1.433 . S
C599 N601 1.384 . S
N600 C596 1.427 . S
N600 C597 1.384 . S
N601 C593 1.427 . S
N601 C599 1.384 . S
H602 C608 0.930 . S
H603 C612 0.930 . S
H604 C617 0.929 . S
H605 C615 0.929 . S
H606 C610 0.929 . S
H607 C616 0.929 . S
C608 H602 0.930 . S
C608 C609 1.367 . S
C608 C616 1.378 . S
C609 C608 1.367 . S
C609 C617 1.433 . S
C610 H606 0.929 . S
C610 C612 1.378 . S
C610 C614 1.350 . S
C611 C614 1.463 . S
C611 C616 1.350 . S
C611 N619 1.427 . S
C612 H603 0.930 . S
C612 C610 1.378 . S
C612 C613 1.367 . S
C613 C612 1.367 . S
C613 C615 1.433 . S
C614 C610 1.350 . S
C614 C611 1.463 . S
C614 N618 1.427 . S
C615 H605 0.929 . S
C615 C613 1.433 . S
C615 N618 1.384 . S
C616 H607 0.929 . S
C616 C608 1.378 . S
C616 C611 1.350 . S
C617 H604 0.929 . S
C617 C609 1.433 . S
C617 N619 1.384 . S
N618 C614 1.427 . S
N618 C615 1.384 . S
N619 C611 1.427 . S
N619 C617 1.384 . S
H620 C626 0.930 . S
H621 C630 0.930 . S
H622 C635 0.929 . S
H623 C633 0.929 . S
H624 C628 0.929 . S
H625 C634 0.929 . S
C626 H620 0.930 . S
C626 C627 1.367 . S
C626 C634 1.378 . S
C627 C626 1.367 . S
C627 C635 1.433 . S
C628 H624 0.929 . S
C628 C630 1.378 . S
C628 C632 1.350 . S
C629 C632 1.463 . S
C629 C634 1.350 . S
C629 N637 1.427 . S
C630 H621 0.930 . S
C630 C628 1.378 . S
C630 C631 1.367 . S
C631 C630 1.367 . S
C631 C633 1.433 . S
C632 C628 1.350 . S
C632 C629 1.463 . S
C632 N636 1.427 . S
C633 H623 0.929 . S
C633 C631 1.433 . S
C633 N636 1.384 . S
C634 H625 0.929 . S
C634 C626 1.378 . S
C634 C629 1.350 . S
C635 H622 0.929 . S
C635 C627 1.433 . S
C635 N637 1.384 . S
N636 C632 1.427 . S
N636 C633 1.384 . S
N637 C629 1.427 . S
N637 C635 1.384 . S
H638 C644 0.930 . S
H639 C648 0.930 . S
H640 C653 0.929 . S
H641 C651 0.929 . S
H642 C646 0.929 . S
H643 C652 0.929 . S
C644 H638 0.930 . S
C644 C645 1.367 . S
C644 C652 1.378 . S
C645 C644 1.367 . S
C645 C653 1.433 . S
C646 H642 0.929 . S
C646 C648 1.378 . S
C646 C650 1.350 . S
C647 C650 1.463 . S
C647 C652 1.350 . S
C647 N655 1.427 . S
C648 H639 0.930 . S
C648 C646 1.378 . S
C648 C649 1.367 . S
C649 C648 1.367 . S
C649 C651 1.433 . S
C650 C646 1.350 . S
C650 C647 1.463 . S
C650 N654 1.427 . S
C651 H641 0.929 . S
C651 C649 1.433 . S
C651 N654 1.384 . S
C652 H643 0.929 . S
C652 C644 1.378 . S
C652 C647 1.350 . S
C653 H640 0.929 . S
C653 C645 1.433 . S
C653 N655 1.384 . S
N654 C650 1.427 . S
N654 C651 1.384 . S
N655 C647 1.427 . S
N655 C653 1.384 . S
H656 C662 0.930 . S
H657 C666 0.930 . S
H658 C671 0.929 1_554 S
H659 C669 0.929 . S
H660 C664 0.929 . S
H661 C670 0.929 . S
C662 H656 0.930 . S
C662 C663 1.367 . S
C662 C670 1.378 . S
C663 C662 1.367 . S
C663 C671 1.433 . S
C664 H660 0.929 . S
C664 C666 1.378 . S
C664 C668 1.350 . S
C665 C668 1.463 . S
C665 C670 1.350 . S
C665 N673 1.427 . S
C666 H657 0.930 . S
C666 C664 1.378 . S
C666 C667 1.367 . S
C667 C666 1.367 . S
C667 C669 1.433 . S
C668 C664 1.350 . S
C668 C665 1.463 . S
C668 N672 1.427 . S
C669 H659 0.929 . S
C669 C667 1.433 . S
C669 N672 1.384 . S
C670 H661 0.929 . S
C670 C662 1.378 . S
C670 C665 1.350 . S
C671 H658 0.929 1_556 S
C671 C663 1.433 . S
C671 N673 1.384 . S
N672 C668 1.427 . S
N672 C669 1.384 . S
N673 C665 1.427 . S
N673 C671 1.384 . S
H674 C680 0.930 . S
H675 C684 0.930 . S
H676 C689 0.929 . S
H677 C687 0.929 . S
H678 C682 0.929 . S
H679 C688 0.929 . S
C680 H674 0.930 . S
C680 C681 1.367 . S
C680 C688 1.378 . S
C681 C680 1.367 . S
C681 C689 1.433 . S
C682 H678 0.929 . S
C682 C684 1.378 . S
C682 C686 1.350 . S
C683 C686 1.463 . S
C683 C688 1.350 . S
C683 N691 1.427 . S
C684 H675 0.930 . S
C684 C682 1.378 . S
C684 C685 1.367 . S
C685 C684 1.367 . S
C685 C687 1.433 . S
C686 C682 1.350 . S
C686 C683 1.463 . S
C686 N690 1.427 . S
C687 H677 0.929 . S
C687 C685 1.433 . S
C687 N690 1.384 . S
C688 H679 0.929 . S
C688 C680 1.378 . S
C688 C683 1.350 . S
C689 H676 0.929 . S
C689 C681 1.433 . S
C689 N691 1.384 . S
N690 C686 1.427 . S
N690 C687 1.384 . S
N691 C683 1.427 . S
N691 C689 1.384 . S
H692 C698 0.930 . S
H693 C702 0.930 . S
H694 C707 0.929 . S
H695 C705 0.929 . S
H696 C700 0.929 . S
H697 C706 0.929 . S
C698 H692 0.930 . S
C698 C699 1.367 . S
C698 C706 1.378 . S
C699 C698 1.367 . S
C699 C707 1.433 . S
C700 H696 0.929 . S
C700 C702 1.378 . S
C700 C704 1.350 . S
C701 C704 1.463 . S
C701 C706 1.350 . S
C701 N709 1.427 . S
C702 H693 0.930 . S
C702 C700 1.378 . S
C702 C703 1.367 . S
C703 C702 1.367 . S
C703 C705 1.433 . S
C704 C700 1.350 . S
C704 C701 1.463 . S
C704 N708 1.427 . S
C705 H695 0.929 . S
C705 C703 1.433 . S
C705 N708 1.384 . S
C706 H697 0.929 . S
C706 C698 1.378 . S
C706 C701 1.350 . S
C707 H694 0.929 . S
C707 C699 1.433 . S
C707 N709 1.384 . S
N708 C704 1.427 . S
N708 C705 1.384 . S
N709 C701 1.427 . S
N709 C707 1.384 . S
H710 C716 0.930 . S
H711 C720 0.930 . S
H712 C725 0.929 . S
H713 C723 0.929 . S
H714 C718 0.929 . S
H715 C724 0.929 . S
C716 H710 0.930 . S
C716 C717 1.367 . S
C716 C724 1.378 . S
C717 C716 1.367 . S
C717 C725 1.433 . S
C718 H714 0.929 . S
C718 C720 1.378 . S
C718 C722 1.350 . S
C719 C722 1.463 . S
C719 C724 1.350 . S
C719 N727 1.427 . S
C720 H711 0.930 . S
C720 C718 1.378 . S
C720 C721 1.367 . S
C721 C720 1.367 . S
C721 C723 1.433 . S
C722 C718 1.350 . S
C722 C719 1.463 . S
C722 N726 1.427 . S
C723 H713 0.929 . S
C723 C721 1.433 . S
C723 N726 1.384 . S
C724 H715 0.929 . S
C724 C716 1.378 . S
C724 C719 1.350 . S
C725 H712 0.929 . S
C725 C717 1.433 . S
C725 N727 1.384 . S
N726 C722 1.427 . S
N726 C723 1.384 . S
N727 C719 1.427 . S
N727 C725 1.384 . S
H728 C734 0.930 . S
H729 C738 0.930 . S
H730 C743 0.929 . S
H731 C741 0.929 . S
H732 C736 0.929 . S
H733 C742 0.929 . S
C734 H728 0.930 . S
C734 C735 1.367 . S
C734 C742 1.378 . S
C735 C734 1.367 . S
C735 C743 1.433 . S
C736 H732 0.929 . S
C736 C738 1.378 . S
C736 C740 1.350 . S
C737 C740 1.463 . S
C737 C742 1.350 . S
C737 N745 1.427 . S
C738 H729 0.930 . S
C738 C736 1.378 . S
C738 C739 1.367 . S
C739 C738 1.367 . S
C739 C741 1.433 . S
C740 C736 1.350 . S
C740 C737 1.463 . S
C740 N744 1.427 . S
C741 H731 0.929 . S
C741 C739 1.433 . S
C741 N744 1.384 . S
C742 H733 0.929 . S
C742 C734 1.378 . S
C742 C737 1.350 . S
C743 H730 0.929 . S
C743 C735 1.433 . S
C743 N745 1.384 . S
N744 C740 1.427 . S
N744 C741 1.384 . S
N745 C737 1.427 . S
N745 C743 1.384 . S
H746 C752 0.930 . S
H747 C756 0.930 . S
H748 C761 0.929 . S
H749 C759 0.929 . S
H750 C754 0.929 . S
H751 C760 0.929 . S
C752 H746 0.930 . S
C752 C753 1.367 . S
C752 C760 1.378 . S
C753 C752 1.367 . S
C753 C761 1.433 . S
C754 H750 0.929 . S
C754 C756 1.378 . S
C754 C758 1.350 . S
C755 C758 1.463 . S
C755 C760 1.350 . S
C755 N763 1.427 . S
C756 H747 0.930 . S
C756 C754 1.378 . S
C756 C757 1.367 . S
C757 C756 1.367 . S
C757 C759 1.433 . S
C758 C754 1.350 . S
C758 C755 1.463 . S
C758 N762 1.427 . S
C759 H749 0.929 . S
C759 C757 1.433 . S
C759 N762 1.384 . S
C760 H751 0.929 . S
C760 C752 1.378 . S
C760 C755 1.350 . S
C761 H748 0.929 . S
C761 C753 1.433 . S
C761 N763 1.384 . S
N762 C758 1.427 . S
N762 C759 1.384 . S
N763 C755 1.427 . S
N763 C761 1.384 . S
H764 C770 0.930 . S
H765 C774 0.930 . S
H766 C779 0.929 . S
H767 C777 0.929 . S
H768 C772 0.929 . S
H769 C778 0.929 . S
C770 H764 0.930 . S
C770 C771 1.367 . S
C770 C778 1.378 . S
C771 C770 1.367 . S
C771 C779 1.433 . S
C772 H768 0.929 . S
C772 C774 1.378 . S
C772 C776 1.350 . S
C773 C776 1.463 . S
C773 C778 1.350 . S
C773 N781 1.427 . S
C774 H765 0.930 . S
C774 C772 1.378 . S
C774 C775 1.367 . S
C775 C774 1.367 . S
C775 C777 1.433 . S
C776 C772 1.350 . S
C776 C773 1.463 . S
C776 N780 1.427 . S
C777 H767 0.929 . S
C777 C775 1.433 . S
C777 N780 1.384 . S
C778 H769 0.929 . S
C778 C770 1.378 . S
C778 C773 1.350 . S
C779 H766 0.929 . S
C779 C771 1.433 . S
C779 N781 1.384 . S
N780 C776 1.427 . S
N780 C777 1.384 . S
N781 C773 1.427 . S
N781 C779 1.384 . S
H782 C788 0.930 . S
H783 C792 0.930 . S
H784 C797 0.929 1_554 S
H785 C795 0.929 . S
H786 C790 0.929 . S
H787 C796 0.929 . S
C788 H782 0.930 . S
C788 C789 1.367 . S
C788 C796 1.378 . S
C789 C788 1.367 . S
C789 C797 1.433 . S
C790 H786 0.929 . S
C790 C792 1.378 . S
C790 C794 1.350 . S
C791 C794 1.463 . S
C791 C796 1.350 . S
C791 N799 1.427 . S
C792 H783 0.930 . S
C792 C790 1.378 . S
C792 C793 1.367 . S
C793 C792 1.367 . S
C793 C795 1.433 . S
C794 C790 1.350 . S
C794 C791 1.463 . S
C794 N798 1.427 . S
C795 H785 0.929 . S
C795 C793 1.433 . S
C795 N798 1.384 . S
C796 H787 0.929 . S
C796 C788 1.378 . S
C796 C791 1.350 . S
C797 H784 0.929 1_556 S
C797 C789 1.433 . S
C797 N799 1.384 . S
N798 C794 1.427 . S
N798 C795 1.384 . S
N799 C791 1.427 . S
N799 C797 1.384 . S
C231 C0 1.420 . S
C235 C168 1.420 . S
C249 C19 1.398 . S
C253 C75 1.398 . S
C267 C28 1.420 . S
C271 C196 1.420 . S
C285 C103 1.401 . S
C289 C47 1.401 . S
C303 C201 1.400 . S
C307 C33 1.400 . S
C321 C98 1.420 . S
C325 C42 1.420 . S
C339 C173 1.401 . S
C343 C5 1.401 . S
C357 C70 1.421 . S
C361 C14 1.421 . S
C375 C56 1.421 . S
C379 C112 1.421 . S
C393 C84 1.424 . S
C397 C140 1.424 . S
C411 C145 1.398 . S
C415 C89 1.398 . S
C429 C61 1.397 . S
C433 C117 1.397 . S
C447 C187 1.397 . S
C451 C131 1.397 . S
C465 C159 1.397 . S
C469 C215 1.397 . S
C483 C154 1.424 . S
C487 C210 1.424 . S
C501 C126 1.422 . S
C505 C182 1.422 . S
C519 C165 1.481 . S
C523 C11 1.481 . S
C537 C121 1.475 . S
C541 C23 1.476 . S
C555 C39 1.482 . S
C559 C137 1.481 . S
C573 C149 1.476 . S
C577 C51 1.475 . S
C591 C163 1.479 . S
C595 C37 1.478 . S
C609 C53 1.482 . S
C613 C123 1.481 . S
C627 C135 1.475 . S
C631 C9 1.480 . S
C645 C151 1.481 . S
C649 C25 1.481 . S
C663 C67 1.483 . S
C667 C221 1.482 . S
C681 C177 1.475 . S
C685 C79 1.476 . S
C699 C95 1.482 . S
C703 C193 1.483 . S
C717 C107 1.480 . S
C721 C205 1.476 . S
C735 C93 1.476 . S
C739 C219 1.480 . S
C753 C179 1.481 . S
C757 C109 1.481 . S
C771 C191 1.477 . S
C775 C65 1.479 . S
C789 C207 1.483 . S
C793 C81 1.483 . S
