# Generated by pormake.
# Topology lta, (4)-cn, num edge types: 1
# Building blocks:
#     Node 0, Type 0, BuildingBlock: UXUYUI_clean_sbu_0, # of connection points: 4
#     Node 1, Type 0, BuildingBlock: UXUYUI_clean_sbu_0, # of connection points: 4
#     Node 2, Type 0, BuildingBlock: UXUYUI_clean_sbu_0, # of connection points: 4
#     Node 3, Type 0, BuildingBlock: UXUYUI_clean_sbu_0, # of connection points: 4
#     Node 4, Type 0, BuildingBlock: UXUYUI_clean_sbu_0, # of connection points: 4
#     Node 5, Type 0, BuildingBlock: UXUYUI_clean_sbu_0, # of connection points: 4
#     Node 6, Type 0, BuildingBlock: UXUYUI_clean_sbu_0, # of connection points: 4
#     Node 7, Type 0, BuildingBlock: UXUYUI_clean_sbu_0, # of connection points: 4
#     Node 8, Type 0, BuildingBlock: UXUYUI_clean_sbu_0, # of connection points: 4
#     Node 9, Type 0, BuildingBlock: UXUYUI_clean_sbu_0, # of connection points: 4
#     Node 10, Type 0, BuildingBlock: UXUYUI_clean_sbu_0, # of connection points: 4
#     Node 11, Type 0, BuildingBlock: UXUYUI_clean_sbu_0, # of connection points: 4
#     Node 12, Type 0, BuildingBlock: UXUYUI_clean_sbu_0, # of connection points: 4
#     Node 13, Type 0, BuildingBlock: UXUYUI_clean_sbu_0, # of connection points: 4
#     Node 14, Type 0, BuildingBlock: UXUYUI_clean_sbu_0, # of connection points: 4
#     Node 15, Type 0, BuildingBlock: UXUYUI_clean_sbu_0, # of connection points: 4
#     Node 16, Type 0, BuildingBlock: UXUYUI_clean_sbu_0, # of connection points: 4
#     Node 17, Type 0, BuildingBlock: UXUYUI_clean_sbu_0, # of connection points: 4
#     Node 18, Type 0, BuildingBlock: UXUYUI_clean_sbu_0, # of connection points: 4
#     Node 19, Type 0, BuildingBlock: UXUYUI_clean_sbu_0, # of connection points: 4
#     Node 20, Type 0, BuildingBlock: UXUYUI_clean_sbu_0, # of connection points: 4
#     Node 21, Type 0, BuildingBlock: UXUYUI_clean_sbu_0, # of connection points: 4
#     Node 22, Type 0, BuildingBlock: UXUYUI_clean_sbu_0, # of connection points: 4
#     Node 23, Type 0, BuildingBlock: UXUYUI_clean_sbu_0, # of connection points: 4
#     Edge 24, Type (0, 0), BuildingBlock: EZIPEK_clean_linker_0, # of connection points: 2
#     Edge 25, Type (0, 0), BuildingBlock: EZIPEK_clean_linker_0, # of connection points: 2
#     Edge 26, Type (0, 0), BuildingBlock: EZIPEK_clean_linker_0, # of connection points: 2
#     Edge 27, Type (0, 0), BuildingBlock: EZIPEK_clean_linker_0, # of connection points: 2
#     Edge 28, Type (0, 0), BuildingBlock: EZIPEK_clean_linker_0, # of connection points: 2
#     Edge 29, Type (0, 0), BuildingBlock: EZIPEK_clean_linker_0, # of connection points: 2
#     Edge 30, Type (0, 0), BuildingBlock: EZIPEK_clean_linker_0, # of connection points: 2
#     Edge 31, Type (0, 0), BuildingBlock: EZIPEK_clean_linker_0, # of connection points: 2
#     Edge 32, Type (0, 0), BuildingBlock: EZIPEK_clean_linker_0, # of connection points: 2
#     Edge 33, Type (0, 0), BuildingBlock: EZIPEK_clean_linker_0, # of connection points: 2
#     Edge 34, Type (0, 0), BuildingBlock: EZIPEK_clean_linker_0, # of connection points: 2
#     Edge 35, Type (0, 0), BuildingBlock: EZIPEK_clean_linker_0, # of connection points: 2
#     Edge 36, Type (0, 0), BuildingBlock: EZIPEK_clean_linker_0, # of connection points: 2
#     Edge 37, Type (0, 0), BuildingBlock: EZIPEK_clean_linker_0, # of connection points: 2
#     Edge 38, Type (0, 0), BuildingBlock: EZIPEK_clean_linker_0, # of connection points: 2
#     Edge 39, Type (0, 0), BuildingBlock: EZIPEK_clean_linker_0, # of connection points: 2
#     Edge 40, Type (0, 0), BuildingBlock: EZIPEK_clean_linker_0, # of connection points: 2
#     Edge 41, Type (0, 0), BuildingBlock: EZIPEK_clean_linker_0, # of connection points: 2
#     Edge 42, Type (0, 0), BuildingBlock: EZIPEK_clean_linker_0, # of connection points: 2
#     Edge 43, Type (0, 0), BuildingBlock: EZIPEK_clean_linker_0, # of connection points: 2
#     Edge 44, Type (0, 0), BuildingBlock: EZIPEK_clean_linker_0, # of connection points: 2
#     Edge 45, Type (0, 0), BuildingBlock: EZIPEK_clean_linker_0, # of connection points: 2
#     Edge 46, Type (0, 0), BuildingBlock: EZIPEK_clean_linker_0, # of connection points: 2
#     Edge 47, Type (0, 0), BuildingBlock: EZIPEK_clean_linker_0, # of connection points: 2
#     Edge 48, Type (0, 0), BuildingBlock: EZIPEK_clean_linker_0, # of connection points: 2
#     Edge 49, Type (0, 0), BuildingBlock: EZIPEK_clean_linker_0, # of connection points: 2
#     Edge 50, Type (0, 0), BuildingBlock: EZIPEK_clean_linker_0, # of connection points: 2
#     Edge 51, Type (0, 0), BuildingBlock: EZIPEK_clean_linker_0, # of connection points: 2
#     Edge 52, Type (0, 0), BuildingBlock: EZIPEK_clean_linker_0, # of connection points: 2
#     Edge 53, Type (0, 0), BuildingBlock: EZIPEK_clean_linker_0, # of connection points: 2
#     Edge 54, Type (0, 0), BuildingBlock: EZIPEK_clean_linker_0, # of connection points: 2
#     Edge 55, Type (0, 0), BuildingBlock: EZIPEK_clean_linker_0, # of connection points: 2
#     Edge 56, Type (0, 0), BuildingBlock: EZIPEK_clean_linker_0, # of connection points: 2
#     Edge 57, Type (0, 0), BuildingBlock: EZIPEK_clean_linker_0, # of connection points: 2
#     Edge 58, Type (0, 0), BuildingBlock: EZIPEK_clean_linker_0, # of connection points: 2
#     Edge 59, Type (0, 0), BuildingBlock: EZIPEK_clean_linker_0, # of connection points: 2
#     Edge 60, Type (0, 0), BuildingBlock: EZIPEK_clean_linker_0, # of connection points: 2
#     Edge 61, Type (0, 0), BuildingBlock: EZIPEK_clean_linker_0, # of connection points: 2
#     Edge 62, Type (0, 0), BuildingBlock: EZIPEK_clean_linker_0, # of connection points: 2
#     Edge 63, Type (0, 0), BuildingBlock: EZIPEK_clean_linker_0, # of connection points: 2
#     Edge 64, Type (0, 0), BuildingBlock: EZIPEK_clean_linker_0, # of connection points: 2
#     Edge 65, Type (0, 0), BuildingBlock: EZIPEK_clean_linker_0, # of connection points: 2
#     Edge 66, Type (0, 0), BuildingBlock: EZIPEK_clean_linker_0, # of connection points: 2
#     Edge 67, Type (0, 0), BuildingBlock: EZIPEK_clean_linker_0, # of connection points: 2
#     Edge 68, Type (0, 0), BuildingBlock: EZIPEK_clean_linker_0, # of connection points: 2
#     Edge 69, Type (0, 0), BuildingBlock: EZIPEK_clean_linker_0, # of connection points: 2
#     Edge 70, Type (0, 0), BuildingBlock: EZIPEK_clean_linker_0, # of connection points: 2
#     Edge 71, Type (0, 0), BuildingBlock: EZIPEK_clean_linker_0, # of connection points: 2
# Relax obj value: 0.238
# Max RMSD: 0.085
# Mean RMSD: 0.085
data_MOF--net-lta--node1-UXUYUI_clean_sbu_0--edge1-EZIPEK_clean_linker_0
_symmetry_space_group_name_H-M    P1
_symmetry_Int_Tables_number       1
_symmetry_cell_setting            triclinic
loop_
_symmetry_equiv_pos_as_xyz
'x, y, z'
_cell_length_a     68.174929
_cell_length_b     68.183723
_cell_length_c     68.169473
_cell_angle_alpha  90.003262
_cell_angle_beta   90.008311
_cell_angle_gamma 90.019959
loop_
_atom_site_label
_atom_site_type_symbol
_atom_site_fract_x
_atom_site_fract_y
_atom_site_fract_z
_atom_type_partial_charge
Li0 Li 0.13265 0.32684 0.51618 0.0
Li1 Li 0.14263 0.2977 0.49839 0.0
Li2 Li 0.13219 0.32678 0.48055 0.0
Li3 Li 0.10814 0.30617 0.49718 0.0
C4 C 0.1725 0.3284 0.50705 0.0
N5 N 0.20753 0.3373 0.52547 0.0
C6 C 0.18056 0.31545 0.52074 0.0
C7 C 0.18244 0.34576 0.50252 0.0
C8 C 0.19823 0.32023 0.52994 0.0
C9 C 0.20007 0.35004 0.51206 0.0
C10 C 0.12574 0.28661 0.53597 0.0
C11 C 0.11459 0.25817 0.55385 0.0
N12 N 0.12948 0.26064 0.5669 0.0
C13 C 0.14075 0.28903 0.54974 0.0
C14 C 0.11237 0.2712 0.5382 0.0
C15 C 0.14246 0.27569 0.56519 0.0
C16 C 0.1275 0.33792 0.55578 0.0
N17 N 0.13575 0.34315 0.53839 0.0
C18 C 0.14621 0.3738 0.5517 0.0
C19 C 0.14501 0.36066 0.53607 0.0
C20 C 0.13773 0.3688 0.56973 0.0
C21 C 0.12851 0.35055 0.57185 0.0
H22 H 0.11967 0.3242 0.55702 0.0
H23 H 0.15088 0.36467 0.52191 0.0
C24 C 0.17646 0.27899 0.48589 0.0
N25 N 0.1605 0.27647 0.49757 0.0
C26 C 0.1908 0.26447 0.48483 0.0
C27 C 0.17179 0.24489 0.50754 0.0
C28 C 0.15771 0.2597 0.50799 0.0
C29 C 0.18859 0.24735 0.49598 0.0
H30 H 0.17811 0.29241 0.4776 0.0
H31 H 0.14467 0.25774 0.51667 0.0
C32 C 0.1019 0.35009 0.48926 0.0
N33 N 0.0839 0.38058 0.46958 0.0
C34 C 0.08943 0.34621 0.47345 0.0
C35 C 0.10518 0.36946 0.4951 0.0
C36 C 0.08047 0.36183 0.46369 0.0
C37 C 0.09596 0.38468 0.48494 0.0
C38 C 0.1223 0.28056 0.46761 0.0
C39 C 0.1268 0.27612 0.44812 0.0
C40 C 0.11521 0.26584 0.47997 0.0
C41 C 0.12396 0.25701 0.44126 0.0
C42 C 0.11258 0.24691 0.47259 0.0
N43 N 0.11696 0.24293 0.45354 0.0
C44 C 0.13012 0.33759 0.44049 0.0
C45 C 0.14231 0.36198 0.46217 0.0
C46 C 0.13104 0.35065 0.42474 0.0
N47 N 0.13562 0.34351 0.45873 0.0
C48 C 0.14338 0.37552 0.44689 0.0
C49 C 0.13755 0.36987 0.42802 0.0
H50 H 0.12451 0.32292 0.43832 0.0
H51 H 0.14616 0.36634 0.47692 0.0
C52 C 0.07165 0.29946 0.51402 0.0
N53 N 0.08177 0.29795 0.49692 0.0
C54 C 0.0515 0.29605 0.51434 0.0
C55 C 0.05271 0.28906 0.47954 0.0
C56 C 0.07286 0.29263 0.47988 0.0
C57 C 0.04187 0.29115 0.49686 0.0
H58 H 0.07916 0.30402 0.52724 0.0
H59 H 0.08123 0.29197 0.46643 0.0
O60 O 0.1552 0.32404 0.49779 0.0
O61 O 0.12376 0.2995 0.52069 0.0
O62 O 0.11098 0.33501 0.49885 0.0
O63 O 0.12535 0.29911 0.47464 0.0
H64 H 0.17339 0.30176 0.52412 0.0
H65 H 0.17658 0.35587 0.4918 0.0
H66 H 0.20459 0.31032 0.54057 0.0
H67 H 0.20784 0.36349 0.50878 0.0
H68 H 0.10443 0.24611 0.55566 0.0
H69 H 0.15079 0.30123 0.54872 0.0
H70 H 0.10042 0.26928 0.52795 0.0
H71 H 0.15405 0.27737 0.5759 0.0
H72 H 0.15322 0.38791 0.54962 0.0
H73 H 0.12164 0.34644 0.58558 0.0
H74 H 0.20362 0.26666 0.47569 0.0
H75 H 0.16967 0.23171 0.51616 0.0
H76 H 0.0869 0.33131 0.46863 0.0
H77 H 0.11481 0.3727 0.5073 0.0
H78 H 0.07086 0.35905 0.45137 0.0
H79 H 0.09842 0.39975 0.48925 0.0
H80 H 0.13251 0.28729 0.43839 0.0
H81 H 0.11187 0.26897 0.49512 0.0
H82 H 0.12735 0.25337 0.4262 0.0
H83 H 0.1071 0.23539 0.48202 0.0
H84 H 0.12627 0.34603 0.41031 0.0
H85 H 0.14825 0.39036 0.44982 0.0
H86 H 0.04337 0.29797 0.52786 0.0
H87 H 0.04552 0.28554 0.46581 0.0
Li88 Li 0.70073 0.1389 0.49864 0.0
Li89 Li 0.6715 0.13001 0.51704 0.0
Li90 Li 0.69182 0.10612 0.50044 0.0
Li91 Li 0.67181 0.12897 0.48097 0.0
C92 C 0.7098 0.11042 0.53415 0.0
N93 N 0.73095 0.08378 0.55625 0.0
C94 C 0.70318 0.10484 0.55273 0.0
C95 C 0.72748 0.10283 0.52706 0.0
C96 C 0.714 0.09127 0.56362 0.0
C97 C 0.73787 0.08926 0.53836 0.0
C98 C 0.67556 0.17012 0.50676 0.0
C99 C 0.66837 0.20475 0.50696 0.0
N100 N 0.6783 0.20662 0.52417 0.0
C101 C 0.68569 0.17238 0.52446 0.0
C102 C 0.66685 0.18642 0.49792 0.0
C103 C 0.68691 0.19096 0.53302 0.0
C104 C 0.72031 0.17219 0.4848 0.0
N105 N 0.72156 0.15712 0.4978 0.0
C106 C 0.75181 0.16939 0.51038 0.0
C107 C 0.73685 0.15545 0.51049 0.0
C108 C 0.75081 0.18505 0.49713 0.0
C109 C 0.73496 0.18641 0.48414 0.0
H110 H 0.70779 0.17324 0.47511 0.0
H111 H 0.73727 0.14349 0.52085 0.0
C112 C 0.65066 0.11733 0.54973 0.0
N113 N 0.654 0.13352 0.53856 0.0
C114 C 0.6369 0.11786 0.56485 0.0
C115 C 0.62972 0.15153 0.55632 0.0
C116 C 0.64373 0.1504 0.54143 0.0
C117 C 0.62625 0.1351 0.56813 0.0
H118 H 0.65831 0.10383 0.54649 0.0
H119 H 0.64584 0.16279 0.53184 0.0
C120 C 0.71341 0.12761 0.46429 0.0
N121 N 0.74231 0.14376 0.44086 0.0
C122 C 0.70835 0.13942 0.44832 0.0
C123 C 0.73319 0.12375 0.46813 0.0
C124 C 0.72317 0.14749 0.43668 0.0
C125 C 0.74758 0.13215 0.4562 0.0
C126 C 0.64292 0.10697 0.5005 0.0
C127 C 0.63414 0.08874 0.50375 0.0
C128 C 0.63118 0.12366 0.4984 0.0
C129 C 0.61371 0.08748 0.50476 0.0
C130 C 0.61081 0.12179 0.49951 0.0
N131 N 0.60257 0.10389 0.50264 0.0
C132 C 0.69 0.06774 0.51427 0.0
C133 C 0.71295 0.07246 0.48848 0.0
C134 C 0.6935 0.04761 0.51416 0.0
N135 N 0.6995 0.07959 0.50136 0.0
C136 C 0.71697 0.0524 0.48792 0.0
C137 C 0.70685 0.03982 0.50064 0.0
H138 H 0.67928 0.07391 0.5242 0.0
H139 H 0.72006 0.08225 0.47824 0.0
C140 C 0.653 0.14953 0.45016 0.0
N141 N 0.65578 0.13163 0.45851 0.0
C142 C 0.64041 0.15152 0.43412 0.0
C143 C 0.63375 0.11668 0.43579 0.0
C144 C 0.64674 0.1153 0.45152 0.0
C145 C 0.63043 0.13498 0.42707 0.0
H146 H 0.66051 0.16221 0.45601 0.0
H147 H 0.64935 0.10126 0.45842 0.0
O148 O 0.69925 0.12351 0.52313 0.0
O149 O 0.67463 0.15219 0.49776 0.0
O150 O 0.69908 0.11995 0.47612 0.0
O151 O 0.66292 0.10846 0.49993 0.0
H152 H 0.68996 0.11108 0.55882 0.0
H153 H 0.73299 0.10717 0.51287 0.0
H154 H 0.70897 0.08676 0.57798 0.0
H155 H 0.75142 0.08308 0.5329 0.0
H156 H 0.66169 0.21749 0.50028 0.0
H157 H 0.69258 0.15998 0.53152 0.0
H158 H 0.65901 0.18495 0.4842 0.0
H159 H 0.69474 0.19293 0.54668 0.0
H160 H 0.76388 0.16814 0.52063 0.0
H161 H 0.73385 0.19846 0.47385 0.0
H162 H 0.63419 0.10484 0.57355 0.0
H163 H 0.6214 0.16491 0.55836 0.0
H164 H 0.69317 0.14247 0.445 0.0
H165 H 0.73743 0.11455 0.48029 0.0
H166 H 0.71944 0.15677 0.42436 0.0
H167 H 0.76293 0.12945 0.45915 0.0
H168 H 0.64304 0.07571 0.50552 0.0
H169 H 0.63771 0.13793 0.49606 0.0
H170 H 0.60671 0.07346 0.50727 0.0
H171 H 0.60155 0.13458 0.49794 0.0
H172 H 0.6854 0.03813 0.52401 0.0
H173 H 0.7272 0.04665 0.47721 0.0
H174 H 0.63812 0.16581 0.42757 0.0
H175 H 0.62627 0.10367 0.43055 0.0
Li176 Li 0.85731 0.7004 0.49687 0.0
Li177 Li 0.86506 0.67122 0.51417 0.0
Li178 Li 0.89111 0.69092 0.49783 0.0
Li179 Li 0.86585 0.67207 0.47849 0.0
C180 C 0.87766 0.71281 0.533 0.0
N181 N 0.88484 0.74281 0.55931 0.0
C182 C 0.86892 0.71257 0.55155 0.0
C183 C 0.8903 0.72815 0.52795 0.0
C184 C 0.87265 0.72792 0.5646 0.0
C185 C 0.89367 0.74322 0.54142 0.0
C186 C 0.82573 0.67569 0.50635 0.0
C187 C 0.79194 0.66627 0.51107 0.0
N188 N 0.79128 0.67729 0.52769 0.0
C189 C 0.82471 0.68687 0.5235 0.0
C190 C 0.80921 0.66529 0.50008 0.0
C191 C 0.80718 0.68753 0.53406 0.0
C192 C 0.82306 0.71962 0.48563 0.0
N193 N 0.83984 0.72227 0.49611 0.0
C194 C 0.82992 0.75464 0.50506 0.0
C195 C 0.84361 0.73948 0.50548 0.0
C196 C 0.81234 0.75196 0.49482 0.0
C197 C 0.80897 0.73437 0.48481 0.0
H198 H 0.82058 0.70594 0.47799 0.0
H199 H 0.85713 0.74153 0.51331 0.0
C200 C 0.87411 0.65634 0.5511 0.0
N201 N 0.8611 0.65476 0.53607 0.0
C202 C 0.87319 0.64336 0.56687 0.0
C203 C 0.84523 0.62768 0.55157 0.0
C204 C 0.84675 0.64091 0.53604 0.0
C205 C 0.85876 0.62873 0.56701 0.0
H206 H 0.88552 0.66736 0.55051 0.0
H207 H 0.83688 0.63971 0.52369 0.0
C208 C 0.87003 0.715 0.46405 0.0
N209 N 0.85657 0.74776 0.44443 0.0
C210 C 0.85552 0.71314 0.44969 0.0
C211 C 0.87789 0.73345 0.46827 0.0
C212 C 0.84887 0.7299 0.43997 0.0
C213 C 0.87083 0.74986 0.45824 0.0
C214 C 0.88847 0.64228 0.49843 0.0
C215 C 0.90647 0.63434 0.50417 0.0
C216 C 0.87256 0.62986 0.49482 0.0
C217 C 0.90827 0.61402 0.50613 0.0
C218 C 0.87495 0.60963 0.49693 0.0
N219 N 0.89261 0.60219 0.5025 0.0
C220 C 0.92732 0.6964 0.51639 0.0
C221 C 0.92731 0.70218 0.48203 0.0
C222 C 0.94749 0.69963 0.51729 0.0
N223 N 0.91779 0.69759 0.49893 0.0
C224 C 0.94753 0.70531 0.48221 0.0
C225 C 0.95778 0.70374 0.49996 0.0
H226 H 0.9193 0.69249 0.52951 0.0
H227 H 0.91926 0.70282 0.46837 0.0
C228 C 0.84491 0.64975 0.4505 0.0
N229 N 0.86287 0.65656 0.45586 0.0
C230 C 0.84325 0.63614 0.43529 0.0
C231 C 0.87848 0.63752 0.43103 0.0
C232 C 0.87947 0.65103 0.44634 0.0
C233 C 0.86024 0.6297 0.42567 0.0
H234 H 0.83202 0.65436 0.45849 0.0
H235 H 0.89354 0.65661 0.45115 0.0
O236 O 0.87453 0.69762 0.52025 0.0
O237 O 0.8427 0.67486 0.49564 0.0
O238 O 0.87624 0.69886 0.47418 0.0
O239 O 0.88641 0.66215 0.49667 0.0
H240 H 0.85942 0.70061 0.55588 0.0
H241 H 0.89726 0.72856 0.51372 0.0
H242 H 0.86593 0.72796 0.57897 0.0
H243 H 0.90331 0.75526 0.53765 0.0
H244 H 0.77905 0.65828 0.50638 0.0
H245 H 0.83725 0.6951 0.52853 0.0
H246 H 0.80972 0.6565 0.48687 0.0
H247 H 0.8062 0.6962 0.54732 0.0
H248 H 0.83285 0.76819 0.51282 0.0
H249 H 0.7955 0.73202 0.47672 0.0
H250 H 0.8839 0.64436 0.57858 0.0
H251 H 0.83406 0.61639 0.55128 0.0
H252 H 0.84928 0.69893 0.44631 0.0
H253 H 0.88918 0.73509 0.47931 0.0
H254 H 0.83752 0.72873 0.42894 0.0
H255 H 0.87665 0.76426 0.46146 0.0
H256 H 0.91889 0.6438 0.5071 0.0
H257 H 0.85845 0.63578 0.49064 0.0
H258 H 0.92211 0.60765 0.51056 0.0
H259 H 0.86276 0.59985 0.49421 0.0
H260 H 0.95512 0.69823 0.53116 0.0
H261 H 0.95518 0.70834 0.46862 0.0
H262 H 0.829 0.63021 0.43148 0.0
H263 H 0.89183 0.63268 0.42389 0.0
Li264 Li 0.32632 0.86994 0.51571 0.0
Li265 Li 0.29712 0.85872 0.49871 0.0
Li266 Li 0.32581 0.86923 0.48035 0.0
Li267 Li 0.30504 0.89255 0.49769 0.0
C268 C 0.33252 0.83221 0.48852 0.0
N269 N 0.35062 0.80352 0.46634 0.0
C270 C 0.32131 0.81782 0.47916 0.0
C271 C 0.35295 0.83197 0.48665 0.0
C272 C 0.33073 0.80344 0.46802 0.0
C273 C 0.36181 0.81736 0.47535 0.0
C274 C 0.28447 0.87008 0.53312 0.0
C275 C 0.25023 0.86527 0.54063 0.0
N276 N 0.25536 0.85391 0.55621 0.0
C277 C 0.28941 0.85845 0.54926 0.0
C278 C 0.26473 0.87365 0.52882 0.0
C279 C 0.27447 0.85039 0.56074 0.0
C280 C 0.34147 0.88095 0.55255 0.0
N281 N 0.34228 0.867 0.53831 0.0
C282 C 0.36751 0.84986 0.55548 0.0
C283 C 0.35466 0.85144 0.53964 0.0
C284 C 0.36743 0.8644 0.56999 0.0
C285 C 0.3541 0.87997 0.56864 0.0
H286 H 0.33131 0.89305 0.55116 0.0
H287 H 0.35478 0.84043 0.52826 0.0
C288 C 0.26135 0.8414 0.48718 0.0
N289 N 0.27677 0.84006 0.49974 0.0
C290 C 0.24643 0.82743 0.48778 0.0
C291 C 0.26359 0.81108 0.51425 0.0
C292 C 0.27823 0.82529 0.51305 0.0
C293 C 0.24758 0.81213 0.50143 0.0
H294 H 0.26074 0.85318 0.47661 0.0
H295 H 0.29086 0.82452 0.52263 0.0
C296 C 0.34854 0.90034 0.50731 0.0
N297 N 0.37772 0.91865 0.52868 0.0
C298 C 0.34446 0.91752 0.51773 0.0
C299 C 0.36746 0.89245 0.50782 0.0
C300 C 0.35941 0.92655 0.52846 0.0
C301 C 0.38202 0.90196 0.51866 0.0
C302 C 0.2888 0.88845 0.46321 0.0
C303 C 0.29857 0.89595 0.44683 0.0
C304 C 0.26986 0.89499 0.46761 0.0
C305 C 0.28929 0.91003 0.43519 0.0
C306 C 0.2611 0.90912 0.45563 0.0
N307 N 0.27092 0.91629 0.43981 0.0
C308 C 0.33557 0.85217 0.44357 0.0
C309 C 0.3578 0.87615 0.45553 0.0
C310 C 0.34742 0.84887 0.42718 0.0
N311 N 0.34116 0.86537 0.45747 0.0
C312 C 0.37 0.87339 0.43939 0.0
C313 C 0.36487 0.85953 0.42514 0.0
H314 H 0.32204 0.84408 0.44535 0.0
H315 H 0.36164 0.88686 0.46653 0.0
C316 C 0.28275 0.92546 0.5103 0.0
N317 N 0.29599 0.91872 0.497 0.0
C318 C 0.27814 0.94541 0.51094 0.0
C319 C 0.30045 0.9508 0.48383 0.0
C320 C 0.30467 0.93083 0.48376 0.0
C321 C 0.28737 0.95824 0.4978 0.0
H322 H 0.27638 0.91551 0.52087 0.0
H323 H 0.31544 0.92505 0.47366 0.0
O324 O 0.32356 0.84656 0.49931 0.0
O325 O 0.29887 0.87773 0.52143 0.0
O326 O 0.33408 0.89119 0.49679 0.0
O327 O 0.29777 0.87493 0.475 0.0
H328 H 0.30549 0.81783 0.48033 0.0
H329 H 0.36185 0.84314 0.49357 0.0
H330 H 0.32223 0.79225 0.46064 0.0
H331 H 0.37759 0.81708 0.47367 0.0
H332 H 0.2349 0.86774 0.53736 0.0
H333 H 0.3046 0.85549 0.55275 0.0
H334 H 0.26067 0.88253 0.51632 0.0
H335 H 0.27806 0.84127 0.57322 0.0
H336 H 0.37768 0.83767 0.55623 0.0
H337 H 0.35378 0.8914 0.57967 0.0
H338 H 0.23422 0.82841 0.47765 0.0
H339 H 0.26483 0.79928 0.52481 0.0
H340 H 0.32988 0.92375 0.51774 0.0
H341 H 0.37083 0.87901 0.50007 0.0
H342 H 0.35644 0.93982 0.53664 0.0
H343 H 0.39672 0.89602 0.51914 0.0
H344 H 0.31324 0.89111 0.44322 0.0
H345 H 0.26213 0.88943 0.4803 0.0
H346 H 0.29672 0.91603 0.42251 0.0
H347 H 0.24653 0.91443 0.45895 0.0
H348 H 0.34313 0.8381 0.41631 0.0
H349 H 0.38338 0.88187 0.43808 0.0
H350 H 0.26816 0.95089 0.52201 0.0
H351 H 0.30793 0.96048 0.47369 0.0
Li352 Li 0.10894 0.69292 0.49734 0.0
Li353 Li 0.13154 0.67221 0.51611 0.0
Li354 Li 0.1425 0.70163 0.49933 0.0
Li355 Li 0.13337 0.67269 0.48062 0.0
C356 C 0.13036 0.71397 0.53321 0.0
N357 N 0.14633 0.74336 0.55607 0.0
C358 C 0.14301 0.70928 0.54864 0.0
C359 C 0.12568 0.73358 0.5295 0.0
C360 C 0.15095 0.72436 0.56003 0.0
C361 C 0.13397 0.74824 0.54118 0.0
C362 C 0.10202 0.64875 0.50574 0.0
C363 C 0.10122 0.61483 0.51576 0.0
N364 N 0.08369 0.61799 0.52475 0.0
C365 C 0.08396 0.65164 0.51502 0.0
C366 C 0.1107 0.63019 0.50605 0.0
C367 C 0.07494 0.63591 0.52457 0.0
C368 C 0.07126 0.6927 0.48182 0.0
N369 N 0.08246 0.70079 0.4962 0.0
C370 C 0.05425 0.71483 0.51142 0.0
C371 C 0.07451 0.71195 0.51068 0.0
C372 C 0.04236 0.70611 0.49708 0.0
C373 C 0.05103 0.69535 0.48188 0.0
H374 H 0.07798 0.68341 0.47087 0.0
H375 H 0.08377 0.71778 0.52216 0.0
C376 C 0.15033 0.64557 0.54188 0.0
N377 N 0.13382 0.65632 0.53878 0.0
C378 C 0.15128 0.63255 0.55764 0.0
C379 C 0.11849 0.64241 0.56702 0.0
C380 C 0.1183 0.65545 0.55127 0.0
C381 C 0.13503 0.63062 0.57008 0.0
H382 H 0.16258 0.64683 0.53191 0.0
H383 H 0.10554 0.66448 0.54862 0.0
C384 C 0.11373 0.70918 0.46277 0.0
N385 N 0.08659 0.72634 0.43805 0.0
C386 C 0.10812 0.69972 0.44547 0.0
C387 C 0.10567 0.72745 0.46742 0.0
C388 C 0.09435 0.70863 0.43317 0.0
C389 C 0.09192 0.73585 0.45477 0.0
C390 C 0.17022 0.666 0.49091 0.0
C391 C 0.18526 0.67672 0.48199 0.0
C392 C 0.17044 0.64552 0.49 0.0
C393 C 0.20023 0.66673 0.47219 0.0
C394 C 0.18563 0.63609 0.48 0.0
N395 N 0.20009 0.6468 0.47138 0.0
C396 C 0.17645 0.72041 0.51268 0.0
C397 C 0.1578 0.73885 0.48975 0.0
C398 C 0.19052 0.7352 0.51368 0.0
N399 N 0.16059 0.72248 0.50077 0.0
C400 C 0.17146 0.75405 0.49037 0.0
C401 C 0.18804 0.75213 0.50233 0.0
H402 H 0.17825 0.70713 0.52117 0.0
H403 H 0.14512 0.73998 0.48032 0.0
C404 C 0.12566 0.64188 0.45475 0.0
N405 N 0.13798 0.65721 0.45794 0.0
C406 C 0.12842 0.62963 0.43865 0.0
C407 C 0.15635 0.64936 0.42913 0.0
C408 C 0.15285 0.66144 0.4453 0.0
C409 C 0.14401 0.63326 0.42579 0.0
H410 H 0.11366 0.63915 0.46472 0.0
H411 H 0.16205 0.67409 0.44787 0.0
O412 O 0.12293 0.69947 0.52152 0.0
O413 O 0.11119 0.66402 0.49646 0.0
O414 O 0.12702 0.70059 0.47511 0.0
O415 O 0.1553 0.67551 0.50039 0.0
H416 H 0.14684 0.69417 0.55165 0.0
H417 H 0.11598 0.73744 0.51754 0.0
H418 H 0.16085 0.72097 0.57195 0.0
H419 H 0.13063 0.76349 0.53837 0.0
H420 H 0.1078 0.6004 0.51615 0.0
H421 H 0.07705 0.66591 0.51509 0.0
H422 H 0.12467 0.62768 0.49897 0.0
H423 H 0.06101 0.63797 0.53188 0.0
H424 H 0.04784 0.72299 0.52345 0.0
H425 H 0.04212 0.68827 0.47079 0.0
H426 H 0.16425 0.62362 0.55976 0.0
H427 H 0.10578 0.64122 0.57648 0.0
H428 H 0.11421 0.6856 0.4416 0.0
H429 H 0.10973 0.7349 0.48083 0.0
H430 H 0.08981 0.70144 0.41978 0.0
H431 H 0.08543 0.7499 0.45827 0.0
H432 H 0.18526 0.69257 0.48241 0.0
H433 H 0.15888 0.637 0.49675 0.0
H434 H 0.21191 0.67484 0.46515 0.0
H435 H 0.1859 0.62025 0.47905 0.0
H436 H 0.20329 0.73339 0.52296 0.0
H437 H 0.16933 0.76699 0.4814 0.0
H438 H 0.11866 0.6173 0.43635 0.0
H439 H 0.16847 0.65249 0.41934 0.0
Li440 Li 0.3266 0.13125 0.51728 0.0
Li441 Li 0.3071 0.10783 0.49838 0.0
Li442 Li 0.32772 0.13113 0.48187 0.0
Li443 Li 0.29887 0.14174 0.4979 0.0
C444 C 0.35566 0.10755 0.49646 0.0
N445 N 0.39514 0.10335 0.4882 0.0
C446 C 0.36263 0.09025 0.48796 0.0
C447 C 0.36879 0.12271 0.50075 0.0
C448 C 0.38264 0.08841 0.48389 0.0
C449 C 0.38869 0.1203 0.49648 0.0
C450 C 0.29689 0.11312 0.53778 0.0
C451 C 0.28081 0.10577 0.56844 0.0
N452 N 0.29359 0.09075 0.57144 0.0
C453 C 0.30986 0.0976 0.54118 0.0
C454 C 0.28224 0.11724 0.55151 0.0
C455 C 0.30795 0.08647 0.55827 0.0
C456 C 0.33836 0.15236 0.55085 0.0
N457 N 0.3409 0.13534 0.54076 0.0
C458 C 0.36529 0.12462 0.56343 0.0
C459 C 0.35373 0.12137 0.54691 0.0
C460 C 0.36335 0.14223 0.5738 0.0
C461 C 0.34944 0.15609 0.56769 0.0
H462 H 0.3279 0.16309 0.54565 0.0
H463 H 0.35523 0.10784 0.53879 0.0
C464 C 0.3079 0.06922 0.48581 0.0
N465 N 0.29761 0.08172 0.4974 0.0
C466 C 0.30356 0.04927 0.48584 0.0
C467 C 0.27709 0.05562 0.50863 0.0
C468 C 0.28204 0.07549 0.50825 0.0
C469 C 0.28831 0.04233 0.4977 0.0
H470 H 0.31979 0.07475 0.47692 0.0
H471 H 0.27383 0.08582 0.51704 0.0
C472 C 0.32516 0.17172 0.49011 0.0
N473 N 0.32474 0.20758 0.47125 0.0
C474 C 0.3191 0.17301 0.47056 0.0
C475 C 0.331 0.18865 0.50006 0.0
C476 C 0.31899 0.19128 0.46128 0.0
C477 C 0.33069 0.20665 0.49027 0.0
C478 C 0.28213 0.1187 0.46882 0.0
C479 C 0.2785 0.11576 0.44887 0.0
C480 C 0.26686 0.11647 0.48234 0.0
C481 C 0.25963 0.11061 0.44275 0.0
C482 C 0.2482 0.11132 0.47564 0.0
N483 N 0.245 0.10852 0.45615 0.0
C484 C 0.34191 0.12161 0.44465 0.0
C485 C 0.35976 0.14699 0.4605 0.0
C486 C 0.35489 0.12189 0.42884 0.0
N487 N 0.34467 0.13394 0.46007 0.0
C488 C 0.37314 0.14769 0.44505 0.0
C489 C 0.37078 0.1349 0.42915 0.0
H490 H 0.32987 0.11127 0.44489 0.0
H491 H 0.36169 0.15647 0.47307 0.0
C492 C 0.27059 0.16641 0.51432 0.0
N493 N 0.27823 0.16007 0.49705 0.0
C494 C 0.25562 0.18034 0.51439 0.0
C495 C 0.25685 0.18096 0.47889 0.0
C496 C 0.27162 0.16687 0.4795 0.0
C497 C 0.24877 0.1878 0.4965 0.0
H498 H 0.27625 0.16074 0.52801 0.0
H499 H 0.27794 0.16148 0.466 0.0
O500 O 0.33601 0.10991 0.49999 0.0
O501 O 0.29838 0.12432 0.52118 0.0
O502 O 0.32528 0.15405 0.49961 0.0
O503 O 0.30058 0.12382 0.47489 0.0
H504 H 0.35277 0.07833 0.48453 0.0
H505 H 0.36364 0.13636 0.507 0.0
H506 H 0.38822 0.07511 0.47728 0.0
H507 H 0.39897 0.13197 0.49964 0.0
H508 H 0.26954 0.10881 0.57918 0.0
H509 H 0.32121 0.09405 0.53072 0.0
H510 H 0.27206 0.12918 0.5491 0.0
H511 H 0.31786 0.0744 0.56105 0.0
H512 H 0.3758 0.1136 0.56798 0.0
H513 H 0.34758 0.16976 0.57557 0.0
H514 H 0.31234 0.03927 0.47716 0.0
H515 H 0.26519 0.05057 0.51787 0.0
H516 H 0.31443 0.16008 0.46264 0.0
H517 H 0.33571 0.18788 0.51521 0.0
H518 H 0.31431 0.19249 0.44617 0.0
H519 H 0.33517 0.21988 0.4978 0.0
H520 H 0.29016 0.11746 0.43822 0.0
H521 H 0.26931 0.11875 0.49783 0.0
H522 H 0.25661 0.1083 0.42734 0.0
H523 H 0.23626 0.10956 0.48594 0.0
H524 H 0.35287 0.11178 0.41674 0.0
H525 H 0.3854 0.15778 0.44565 0.0
H526 H 0.24961 0.18543 0.52819 0.0
H527 H 0.25179 0.18652 0.46489 0.0
Li528 Li 0.89102 0.30433 0.49914 0.0
Li529 Li 0.8676 0.32536 0.51645 0.0
Li530 Li 0.85608 0.29574 0.49802 0.0
Li531 Li 0.86661 0.32526 0.48103 0.0
C532 C 0.88031 0.28239 0.53297 0.0
N533 N 0.89389 0.25223 0.5564 0.0
C534 C 0.88622 0.28616 0.55225 0.0
C535 C 0.88104 0.26324 0.52572 0.0
C536 C 0.89312 0.27073 0.56383 0.0
C537 C 0.88801 0.2482 0.53776 0.0
C538 C 0.89783 0.34895 0.50675 0.0
C539 C 0.89808 0.38297 0.51647 0.0
N540 N 0.91588 0.3803 0.52507 0.0
C541 C 0.91623 0.3466 0.51551 0.0
C542 C 0.88878 0.36734 0.50705 0.0
C543 C 0.92508 0.3626 0.52475 0.0
C544 C 0.92647 0.29591 0.48102 0.0
N545 N 0.91728 0.29546 0.49871 0.0
C546 C 0.94738 0.28809 0.51502 0.0
C547 C 0.92719 0.29134 0.51554 0.0
C548 C 0.95727 0.2893 0.49707 0.0
C549 C 0.94665 0.2928 0.47984 0.0
H550 H 0.91825 0.29962 0.46797 0.0
H551 H 0.91973 0.29177 0.52947 0.0
C552 C 0.84728 0.35055 0.54237 0.0
N553 N 0.86453 0.34107 0.53916 0.0
C554 C 0.84555 0.36373 0.55794 0.0
C555 C 0.87918 0.35668 0.56688 0.0
C556 C 0.88016 0.34346 0.55132 0.0
C557 C 0.8618 0.36714 0.57006 0.0
H558 H 0.83503 0.34821 0.53259 0.0
H559 H 0.8936 0.33553 0.54855 0.0
C560 C 0.87565 0.28203 0.46366 0.0
N561 N 0.87761 0.25002 0.43887 0.0
C562 C 0.8665 0.2826 0.44532 0.0
C563 C 0.88618 0.26534 0.46919 0.0
C564 C 0.86754 0.26622 0.43306 0.0
C565 C 0.88691 0.24927 0.45651 0.0
C566 C 0.82935 0.33269 0.49075 0.0
C567 C 0.81352 0.32288 0.48217 0.0
C568 C 0.83004 0.35317 0.49026 0.0
C569 C 0.79883 0.33373 0.47287 0.0
C570 C 0.8151 0.3635 0.48077 0.0
N571 N 0.79995 0.35365 0.47233 0.0
C572 C 0.83262 0.26637 0.5149 0.0
C573 C 0.82954 0.26942 0.48036 0.0
C574 C 0.81882 0.25128 0.51514 0.0
N575 N 0.83781 0.27492 0.49765 0.0
C576 C 0.81562 0.25445 0.47991 0.0
C577 C 0.81022 0.24528 0.49747 0.0
H578 H 0.83903 0.27142 0.52849 0.0
H579 H 0.83335 0.27698 0.46699 0.0
C580 C 0.87596 0.35556 0.45502 0.0
N581 N 0.86293 0.34083 0.45827 0.0
C582 C 0.87365 0.36794 0.43893 0.0
C583 C 0.84469 0.34961 0.42965 0.0
C584 C 0.84771 0.3374 0.44582 0.0
C585 C 0.85778 0.36507 0.42621 0.0
H586 H 0.88809 0.35775 0.46497 0.0
H587 H 0.83779 0.32535 0.44856 0.0
O588 O 0.87356 0.29738 0.52146 0.0
O589 O 0.88881 0.33336 0.49786 0.0
O590 O 0.87485 0.29801 0.47579 0.0
O591 O 0.84402 0.32229 0.49968 0.0
H592 H 0.88556 0.30085 0.55818 0.0
H593 H 0.87601 0.25995 0.51107 0.0
H594 H 0.89785 0.27345 0.57873 0.0
H595 H 0.88867 0.23331 0.53232 0.0
H596 H 0.89116 0.39724 0.51694 0.0
H597 H 0.92356 0.33256 0.5153 0.0
H598 H 0.87469 0.36951 0.50014 0.0
H599 H 0.93926 0.36095 0.53168 0.0
H600 H 0.95535 0.28574 0.52857 0.0
H601 H 0.95404 0.29405 0.46583 0.0
H602 H 0.83195 0.37164 0.56014 0.0
H603 H 0.89192 0.35905 0.57608 0.0
H604 H 0.85853 0.2955 0.44068 0.0
H605 H 0.89394 0.26486 0.483 0.0
H606 H 0.86036 0.2664 0.41891 0.0
H607 H 0.89494 0.23623 0.46065 0.0
H608 H 0.8126 0.30707 0.4826 0.0
H609 H 0.84204 0.36101 0.497 0.0
H610 H 0.78656 0.32632 0.46606 0.0
H611 H 0.81557 0.37934 0.48011 0.0
H612 H 0.81469 0.24453 0.52892 0.0
H613 H 0.80896 0.25023 0.46612 0.0
H614 H 0.88395 0.37981 0.43656 0.0
H615 H 0.83232 0.3471 0.42 0.0
Li616 Li 0.69123 0.88944 0.49855 0.0
Li617 Li 0.67038 0.86618 0.51589 0.0
Li618 Li 0.70022 0.85543 0.49706 0.0
Li619 Li 0.67056 0.86515 0.47971 0.0
C620 C 0.71048 0.88329 0.53251 0.0
N621 N 0.73454 0.9063 0.55565 0.0
C622 C 0.70427 0.88924 0.55112 0.0
C623 C 0.72907 0.88875 0.52583 0.0
C624 C 0.71661 0.90094 0.56256 0.0
C625 C 0.74098 0.90048 0.53769 0.0
C626 C 0.64417 0.89428 0.50194 0.0
C627 C 0.60889 0.89133 0.5025 0.0
N628 N 0.60766 0.9088 0.51203 0.0
C629 C 0.6425 0.9124 0.51139 0.0
C630 C 0.62719 0.88382 0.49716 0.0
C631 C 0.62395 0.91942 0.5165 0.0
C632 C 0.7085 0.92374 0.48299 0.0
N633 N 0.69997 0.91574 0.49915 0.0
C634 C 0.69982 0.94671 0.51544 0.0
C635 C 0.69591 0.92667 0.51533 0.0
C636 C 0.70784 0.95545 0.49869 0.0
C637 C 0.71266 0.94379 0.48246 0.0
H638 H 0.71132 0.91472 0.47026 0.0
H639 H 0.68883 0.91998 0.52782 0.0
C640 C 0.64692 0.84549 0.54362 0.0
N641 N 0.65432 0.86327 0.53842 0.0
C642 C 0.6333 0.84408 0.55886 0.0
C643 C 0.6362 0.8791 0.56385 0.0
C644 C 0.64968 0.87982 0.54852 0.0
C645 C 0.62761 0.86113 0.56882 0.0
H646 H 0.65124 0.83247 0.5357 0.0
H647 H 0.65621 0.89366 0.54441 0.0
C648 C 0.71239 0.86928 0.46177 0.0
N649 N 0.74185 0.85902 0.43588 0.0
C650 C 0.70798 0.85853 0.44487 0.0
C651 C 0.73172 0.87514 0.46529 0.0
C652 C 0.72309 0.85342 0.43201 0.0
C653 C 0.74642 0.8697 0.4521 0.0
C654 C 0.66239 0.82714 0.49376 0.0
C655 C 0.671 0.80989 0.48677 0.0
C656 C 0.64203 0.82802 0.49603 0.0
C657 C 0.65906 0.79401 0.4817 0.0
C658 C 0.63059 0.81185 0.49079 0.0
N659 N 0.63926 0.79533 0.48376 0.0
C660 C 0.73406 0.8369 0.51179 0.0
C661 C 0.72349 0.82561 0.4806 0.0
C662 C 0.74958 0.82359 0.51172 0.0
N663 N 0.72145 0.83765 0.49636 0.0
C664 C 0.73879 0.8121 0.47989 0.0
C665 C 0.75191 0.81102 0.49564 0.0
H666 H 0.73192 0.84643 0.52427 0.0
H667 H 0.71304 0.82626 0.46872 0.0
C668 C 0.64458 0.87736 0.45055 0.0
N669 N 0.65464 0.86146 0.45714 0.0
C670 C 0.63152 0.87552 0.43493 0.0
C671 C 0.64004 0.84115 0.43257 0.0
C672 C 0.65302 0.84368 0.4482 0.0
C673 C 0.62899 0.85717 0.42605 0.0
H674 H 0.64642 0.89139 0.45772 0.0
H675 H 0.66167 0.83144 0.45324 0.0
O676 O 0.6985 0.872 0.521 0.0
O677 O 0.66229 0.88701 0.49712 0.0
O678 O 0.6978 0.87426 0.47463 0.0
O679 O 0.67388 0.84294 0.49852 0.0
H680 H 0.69008 0.88488 0.55669 0.0
H681 H 0.73423 0.88402 0.51163 0.0
H682 H 0.71194 0.90575 0.57694 0.0
H683 H 0.75535 0.90492 0.53263 0.0
H684 H 0.59566 0.8833 0.49899 0.0
H685 H 0.65539 0.9209 0.51494 0.0
H686 H 0.62806 0.87019 0.4892 0.0
H687 H 0.6225 0.93332 0.52402 0.0
H688 H 0.6958 0.95546 0.52807 0.0
H689 H 0.7187 0.95028 0.46927 0.0
H690 H 0.62695 0.83 0.56254 0.0
H691 H 0.63213 0.89246 0.57143 0.0
H692 H 0.6931 0.85404 0.44179 0.0
H693 H 0.73534 0.88381 0.47804 0.0
H694 H 0.71991 0.84497 0.41896 0.0
H695 H 0.76147 0.87401 0.45473 0.0
H696 H 0.68671 0.80872 0.48524 0.0
H697 H 0.63514 0.84093 0.50201 0.0
H698 H 0.66554 0.78064 0.47616 0.0
H699 H 0.61481 0.81241 0.49241 0.0
H700 H 0.75949 0.82289 0.52412 0.0
H701 H 0.74021 0.8024 0.46739 0.0
H702 H 0.62316 0.88813 0.43009 0.0
H703 H 0.63842 0.82686 0.42583 0.0
Li704 Li 0.50068 0.1414 0.2962 0.0
Li705 Li 0.51781 0.12854 0.32475 0.0
Li706 Li 0.49843 0.10603 0.30272 0.0
Li707 Li 0.48235 0.12895 0.32531 0.0
C708 C 0.53478 0.12098 0.2814 0.0
N709 N 0.56058 0.11898 0.25019 0.0
C710 C 0.55313 0.13005 0.28259 0.0
C711 C 0.52975 0.11049 0.26451 0.0
C712 C 0.56591 0.129 0.2666 0.0
C713 C 0.54294 0.10976 0.24885 0.0
C714 C 0.5095 0.1657 0.33446 0.0
C715 C 0.52096 0.17749 0.3658 0.0
N716 N 0.52905 0.19333 0.35677 0.0
C717 C 0.51779 0.18218 0.3255 0.0
C718 C 0.51095 0.1634 0.35479 0.0
C719 C 0.52765 0.19596 0.33703 0.0
C720 C 0.48397 0.16736 0.269 0.0
N721 N 0.50129 0.16086 0.27644 0.0
C722 C 0.51924 0.18273 0.25582 0.0
C723 C 0.51873 0.1684 0.2704 0.0
C724 C 0.50161 0.18928 0.24759 0.0
C725 C 0.48379 0.18157 0.25431 0.0
H726 H 0.47029 0.16153 0.2745 0.0
H727 H 0.53221 0.16356 0.27712 0.0
C728 C 0.54383 0.11606 0.35388 0.0
N729 N 0.54082 0.13035 0.34032 0.0
C730 C 0.55954 0.11738 0.36689 0.0
C731 C 0.5691 0.14786 0.3514 0.0
C732 C 0.55336 0.14578 0.33846 0.0
C733 C 0.5721 0.13361 0.36589 0.0
H734 H 0.53382 0.10381 0.35482 0.0
H735 H 0.55083 0.15673 0.32729 0.0
C736 C 0.46567 0.12019 0.28089 0.0
N737 N 0.44346 0.1113 0.24816 0.0
C738 C 0.44575 0.11574 0.28285 0.0
C739 C 0.47425 0.12028 0.26227 0.0
C740 C 0.43479 0.11123 0.26613 0.0
C741 C 0.46279 0.11572 0.24591 0.0
C742 C 0.49064 0.09698 0.34657 0.0
C743 C 0.47973 0.0801 0.34246 0.0
C744 C 0.49186 0.1038 0.36587 0.0
C745 C 0.47006 0.07044 0.35772 0.0
C746 C 0.48201 0.0937 0.38072 0.0
N747 N 0.47137 0.07739 0.37638 0.0
C748 C 0.51389 0.0692 0.2978 0.0
C749 C 0.48207 0.07198 0.28393 0.0
C750 C 0.51391 0.04902 0.29457 0.0
N751 N 0.49796 0.08012 0.29287 0.0
C752 C 0.48156 0.05186 0.28023 0.0
C753 C 0.4974 0.0402 0.28614 0.0
H754 H 0.52615 0.07608 0.30517 0.0
H755 H 0.46938 0.08078 0.28061 0.0
C756 C 0.45863 0.14767 0.35372 0.0
N757 N 0.46003 0.13188 0.34162 0.0
C758 C 0.44333 0.14892 0.36724 0.0
C759 C 0.43083 0.118 0.35507 0.0
C760 C 0.44631 0.1174 0.34171 0.0
C761 C 0.42948 0.13377 0.36815 0.0
H762 H 0.46959 0.15908 0.35316 0.0
H763 H 0.44774 0.10511 0.3318 0.0
O764 O 0.5222 0.1217 0.29701 0.0
O765 O 0.49997 0.15195 0.32336 0.0
O766 O 0.47659 0.12455 0.29715 0.0
O767 O 0.50015 0.1067 0.33181 0.0
H768 H 0.55739 0.13797 0.29566 0.0
H769 H 0.51592 0.1028 0.26356 0.0
H770 H 0.58008 0.13612 0.26726 0.0
H771 H 0.53919 0.10176 0.23566 0.0
H772 H 0.52235 0.17579 0.38152 0.0
H773 H 0.51668 0.18427 0.30982 0.0
H774 H 0.50461 0.15076 0.36195 0.0
H775 H 0.53421 0.20874 0.33029 0.0
H776 H 0.53318 0.18869 0.25105 0.0
H777 H 0.46996 0.18659 0.24832 0.0
H778 H 0.56158 0.10618 0.37797 0.0
H779 H 0.57863 0.16052 0.35033 0.0
H780 H 0.43885 0.11572 0.29714 0.0
H781 H 0.48952 0.12407 0.26044 0.0
H782 H 0.41938 0.10769 0.26743 0.0
H783 H 0.46925 0.11575 0.23141 0.0
H784 H 0.47858 0.0746 0.32763 0.0
H785 H 0.50031 0.11676 0.36934 0.0
H786 H 0.46149 0.05742 0.35472 0.0
H787 H 0.48279 0.09885 0.39571 0.0
H788 H 0.52626 0.04027 0.29941 0.0
H789 H 0.46854 0.0453 0.27391 0.0
H790 H 0.44256 0.16126 0.37721 0.0
H791 H 0.42029 0.10611 0.35552 0.0
Li792 Li 0.86516 0.51391 0.3262 0.0
Li793 Li 0.85613 0.49689 0.29752 0.0
Li794 Li 0.86553 0.47813 0.32574 0.0
Li795 Li 0.8904 0.49812 0.30567 0.0
C796 C 0.82542 0.50551 0.32437 0.0
N797 N 0.79019 0.52544 0.3261 0.0
C798 C 0.82271 0.52259 0.3134 0.0
C799 C 0.81022 0.49853 0.33622 0.0
C800 C 0.80479 0.53246 0.31445 0.0
C801 C 0.79252 0.50883 0.33691 0.0
C802 C 0.87487 0.5328 0.28386 0.0
C803 C 0.88893 0.54143 0.25255 0.0
N804 N 0.87855 0.55845 0.25268 0.0
C805 C 0.86456 0.55052 0.28381 0.0
C806 C 0.88736 0.52832 0.26822 0.0
C807 C 0.86652 0.56323 0.26786 0.0
C808 C 0.87295 0.55183 0.33984 0.0
N809 N 0.8614 0.53585 0.34281 0.0
C810 C 0.8469 0.55059 0.37106 0.0
C811 C 0.84846 0.53496 0.35796 0.0
C812 C 0.85895 0.56706 0.36856 0.0
C813 C 0.87198 0.56774 0.35267 0.0
H814 H 0.88329 0.55195 0.3278 0.0
H815 H 0.83978 0.52188 0.3602 0.0
C816 C 0.82079 0.48582 0.28015 0.0
N817 N 0.83767 0.49581 0.27642 0.0
C818 C 0.80608 0.48474 0.26601 0.0
C819 C 0.82671 0.50345 0.24404 0.0
C820 C 0.84101 0.50423 0.25864 0.0
C821 C 0.80899 0.49383 0.24786 0.0
H822 H 0.81872 0.47872 0.29417 0.0
H823 H 0.85468 0.5115 0.25569 0.0
C824 C 0.89218 0.50377 0.35228 0.0
N825 N 0.90301 0.51973 0.38791 0.0
C826 C 0.9084 0.51625 0.35347 0.0
C827 C 0.88143 0.49944 0.36919 0.0
C828 C 0.91363 0.52419 0.37162 0.0
C829 C 0.88714 0.50766 0.38707 0.0
C830 C 0.86939 0.46487 0.28158 0.0
C831 C 0.85451 0.45079 0.28228 0.0
C832 C 0.8781 0.46958 0.26363 0.0
C833 C 0.84832 0.44188 0.26488 0.0
C834 C 0.87151 0.46034 0.24657 0.0
N835 N 0.85686 0.44683 0.24753 0.0
C836 C 0.84484 0.44558 0.34084 0.0
C837 C 0.87719 0.44998 0.35301 0.0
C838 C 0.84202 0.42948 0.3532 0.0
N839 N 0.86217 0.45546 0.34111 0.0
C840 C 0.8749 0.43421 0.3658 0.0
C841 C 0.85709 0.42397 0.36607 0.0
H842 H 0.83316 0.45041 0.33125 0.0
H843 H 0.8908 0.45813 0.35283 0.0
C844 C 0.92632 0.51686 0.29928 0.0
N845 N 0.91688 0.49934 0.2981 0.0
C846 C 0.94653 0.51782 0.29636 0.0
C847 C 0.94671 0.48281 0.29033 0.0
C848 C 0.92648 0.48252 0.29339 0.0
C849 C 0.9569 0.50056 0.29225 0.0
H850 H 0.91823 0.52992 0.30326 0.0
H851 H 0.91852 0.46881 0.29277 0.0
O852 O 0.84281 0.49552 0.32357 0.0
O853 O 0.87347 0.5204 0.29959 0.0
O854 O 0.88678 0.4959 0.33464 0.0
O855 O 0.87517 0.47425 0.29834 0.0
H856 H 0.83425 0.52806 0.30406 0.0
H857 H 0.81211 0.4853 0.3448 0.0
H858 H 0.80249 0.54568 0.30599 0.0
H859 H 0.78063 0.50362 0.34603 0.0
H860 H 0.89842 0.53806 0.24028 0.0
H861 H 0.85525 0.55452 0.29603 0.0
H862 H 0.8956 0.5148 0.26805 0.0
H863 H 0.85855 0.57695 0.2676 0.0
H864 H 0.83684 0.54965 0.38332 0.0
H865 H 0.88155 0.58024 0.35052 0.0
H866 H 0.79254 0.47708 0.26923 0.0
H867 H 0.82932 0.51046 0.23001 0.0
H868 H 0.91684 0.51979 0.34051 0.0
H869 H 0.8687 0.48997 0.36848 0.0
H870 H 0.92614 0.53388 0.37276 0.0
H871 H 0.87893 0.50449 0.40028 0.0
H872 H 0.84762 0.447 0.29606 0.0
H873 H 0.88972 0.48035 0.26288 0.0
H874 H 0.83668 0.4311 0.26516 0.0
H875 H 0.878 0.46394 0.23255 0.0
H876 H 0.82814 0.42175 0.35313 0.0
H877 H 0.88678 0.43016 0.37555 0.0
H878 H 0.95413 0.53167 0.29808 0.0
H879 H 0.95446 0.46927 0.28734 0.0
Li880 Li 0.51464 0.86626 0.32621 0.0
Li881 Li 0.49753 0.88968 0.30497 0.0
Li882 Li 0.47829 0.8653 0.32491 0.0
Li883 Li 0.49663 0.85589 0.29602 0.0
C884 C 0.497 0.89504 0.35214 0.0
N885 N 0.49949 0.91158 0.38911 0.0
C886 C 0.50334 0.91441 0.3544 0.0
C887 C 0.49159 0.88422 0.3687 0.0
C888 C 0.50461 0.92247 0.3732 0.0
C889 C 0.49303 0.8928 0.38725 0.0
C890 C 0.53297 0.88473 0.28863 0.0
C891 C 0.5414 0.90414 0.26028 0.0
N892 N 0.55831 0.90976 0.26927 0.0
C893 C 0.55052 0.89055 0.29752 0.0
C894 C 0.52846 0.89142 0.26978 0.0
C895 C 0.5631 0.90326 0.28751 0.0
C896 C 0.54548 0.84461 0.34363 0.0
N897 N 0.53697 0.86262 0.34238 0.0
C898 C 0.55976 0.87583 0.36543 0.0
C899 C 0.54405 0.87821 0.3526 0.0
C900 C 0.56837 0.85732 0.36745 0.0
C901 C 0.56138 0.8416 0.3562 0.0
H902 H 0.53971 0.83255 0.33508 0.0
H903 H 0.53753 0.8925 0.35078 0.0
C904 C 0.48223 0.92369 0.28704 0.0
N905 N 0.49803 0.91611 0.29656 0.0
C906 C 0.48143 0.94372 0.28285 0.0
C907 C 0.51349 0.94749 0.29766 0.0
C908 C 0.51358 0.92748 0.30172 0.0
C909 C 0.49709 0.95577 0.28849 0.0
H910 H 0.46995 0.91433 0.2834 0.0
H911 H 0.5257 0.92115 0.30974 0.0
C912 C 0.49436 0.82819 0.33533 0.0
N913 N 0.48888 0.79785 0.3617 0.0
C914 C 0.48689 0.81017 0.32896 0.0
C915 C 0.4994 0.8306 0.35505 0.0
C916 C 0.48412 0.79507 0.34253 0.0
C917 C 0.49644 0.81514 0.36817 0.0
C918 C 0.46265 0.86862 0.28208 0.0
C919 C 0.44584 0.85732 0.28524 0.0
C920 C 0.46791 0.87386 0.26298 0.0
C921 C 0.43476 0.85112 0.26915 0.0
C922 C 0.45648 0.86733 0.24727 0.0
N923 N 0.44029 0.85617 0.25066 0.0
C924 C 0.44768 0.87765 0.34905 0.0
C925 C 0.4467 0.84362 0.34185 0.0
C926 C 0.43166 0.87582 0.3616 0.0
N927 N 0.4552 0.86158 0.33996 0.0
C928 C 0.43053 0.84113 0.35417 0.0
C929 C 0.4232 0.85732 0.36449 0.0
H930 H 0.45444 0.89184 0.34689 0.0
H931 H 0.45253 0.83123 0.33393 0.0
C932 C 0.51128 0.83857 0.26146 0.0
N933 N 0.49665 0.83795 0.27499 0.0
C934 C 0.5116 0.82508 0.24609 0.0
C935 C 0.48174 0.8107 0.25887 0.0
C936 C 0.48205 0.8244 0.27402 0.0
C937 C 0.49671 0.81098 0.24484 0.0
H938 H 0.5228 0.84938 0.26274 0.0
H939 H 0.47071 0.8242 0.28508 0.0
O940 O 0.49568 0.88695 0.33377 0.0
O941 O 0.5204 0.87242 0.29828 0.0
O942 O 0.49714 0.84313 0.32218 0.0
O943 O 0.47389 0.87451 0.29763 0.0
H944 H 0.50734 0.92314 0.3418 0.0
H945 H 0.48596 0.8695 0.36729 0.0
H946 H 0.50963 0.9374 0.37514 0.0
H947 H 0.48889 0.88456 0.40017 0.0
H948 H 0.53801 0.90954 0.24575 0.0
H949 H 0.55436 0.88537 0.31201 0.0
H950 H 0.51503 0.88694 0.26263 0.0
H951 H 0.57667 0.90796 0.29426 0.0
H952 H 0.56509 0.88825 0.37379 0.0
H953 H 0.5679 0.82717 0.35744 0.0
H954 H 0.4685 0.94987 0.27596 0.0
H955 H 0.52563 0.95657 0.30241 0.0
H956 H 0.48318 0.80788 0.31372 0.0
H957 H 0.50582 0.84412 0.36017 0.0
H958 H 0.47821 0.78112 0.33781 0.0
H959 H 0.50025 0.81686 0.38348 0.0
H960 H 0.4415 0.85322 0.29994 0.0
H961 H 0.48075 0.88277 0.2603 0.0
H962 H 0.42179 0.84224 0.27136 0.0
H963 H 0.46048 0.87112 0.23239 0.0
H964 H 0.42615 0.88859 0.36927 0.0
H965 H 0.42408 0.82672 0.35599 0.0
H966 H 0.52338 0.82546 0.23544 0.0
H967 H 0.47015 0.79985 0.25823 0.0
Li968 Li 0.13387 0.51975 0.32645 0.0
Li969 Li 0.1081 0.50072 0.30654 0.0
Li970 Li 0.13285 0.48395 0.32678 0.0
Li971 Li 0.14234 0.50065 0.29811 0.0
C972 C 0.10674 0.49511 0.35328 0.0
N973 N 0.09628 0.47944 0.38915 0.0
C974 C 0.09041 0.48281 0.35476 0.0
C975 C 0.11778 0.49942 0.37001 0.0
C976 C 0.08535 0.47504 0.37304 0.0
C977 C 0.11226 0.49134 0.38801 0.0
C978 C 0.13017 0.53329 0.2824 0.0
C979 C 0.12782 0.53836 0.24748 0.0
N980 N 0.14307 0.55119 0.24843 0.0
C981 C 0.14568 0.54667 0.28308 0.0
C982 C 0.12104 0.5292 0.26451 0.0
C983 C 0.15205 0.55551 0.26572 0.0
C984 C 0.15588 0.55157 0.34133 0.0
N985 N 0.13819 0.54235 0.34171 0.0
C986 C 0.12626 0.56439 0.36609 0.0
C987 C 0.12339 0.54854 0.35352 0.0
C988 C 0.14442 0.574 0.36623 0.0
C989 C 0.15928 0.56775 0.35346 0.0
H990 H 0.16737 0.5462 0.3318 0.0
H991 H 0.10948 0.54092 0.35341 0.0
C992 C 0.07148 0.48337 0.30075 0.0
N993 N 0.08154 0.50049 0.29912 0.0
C994 C 0.05127 0.48303 0.29769 0.0
C995 C 0.05236 0.51782 0.29061 0.0
C996 C 0.07257 0.5175 0.29386 0.0
C997 C 0.04155 0.50049 0.29293 0.0
H998 H 0.07908 0.47014 0.30509 0.0
H999 H 0.08102 0.53089 0.29286 0.0
C1000 C 0.17277 0.49071 0.32509 0.0
N1001 N 0.20696 0.46911 0.3274 0.0
C1002 C 0.175 0.47374 0.31384 0.0
C1003 C 0.18793 0.49672 0.33752 0.0
C1004 C 0.1924 0.46302 0.31519 0.0
C1005 C 0.2051 0.48559 0.33849 0.0
C1006 C 0.12228 0.46587 0.28415 0.0
C1007 C 0.13225 0.44797 0.28349 0.0
C1008 C 0.10966 0.47098 0.26881 0.0
C1009 C 0.12984 0.43572 0.26724 0.0
C1010 C 0.10762 0.45833 0.25282 0.0
N1011 N 0.11769 0.44112 0.25236 0.0
C1012 C 0.12476 0.44573 0.33952 0.0
C1013 C 0.14817 0.46264 0.359 0.0
C1014 C 0.12532 0.42966 0.35218 0.0
N1015 N 0.13596 0.4618 0.34324 0.0
C1016 C 0.14918 0.44691 0.37205 0.0
C1017 C 0.13749 0.43034 0.36873 0.0
H1018 H 0.11501 0.44564 0.327 0.0
H1019 H 0.15664 0.47576 0.36175 0.0
C1020 C 0.17807 0.51021 0.28051 0.0
N1021 N 0.16064 0.5012 0.27682 0.0
C1022 C 0.1925 0.5111 0.26608 0.0
C1023 C 0.17053 0.49417 0.24395 0.0
C1024 C 0.15654 0.49356 0.25885 0.0
C1025 C 0.18875 0.50284 0.24768 0.0
H1026 H 0.18076 0.51677 0.29469 0.0
H1027 H 0.14244 0.48714 0.25592 0.0
O1028 O 0.11201 0.50276 0.3355 0.0
O1029 O 0.12418 0.52398 0.29912 0.0
O1030 O 0.15585 0.50145 0.32409 0.0
O1031 O 0.12412 0.47781 0.30019 0.0
H1032 H 0.08175 0.47927 0.34195 0.0
H1033 H 0.1306 0.50873 0.36906 0.0
H1034 H 0.07277 0.46547 0.37442 0.0
H1035 H 0.12071 0.49449 0.40107 0.0
H1036 H 0.12098 0.53524 0.2335 0.0
H1037 H 0.15292 0.54996 0.29681 0.0
H1038 H 0.10894 0.51896 0.26377 0.0
H1039 H 0.16417 0.56575 0.26598 0.0
H1040 H 0.11452 0.56902 0.37574 0.0
H1041 H 0.17342 0.57499 0.35326 0.0
H1042 H 0.04318 0.4695 0.29972 0.0
H1043 H 0.04512 0.53152 0.28712 0.0
H1044 H 0.16349 0.46901 0.30408 0.0
H1045 H 0.1864 0.50984 0.34634 0.0
H1046 H 0.19433 0.44987 0.30652 0.0
H1047 H 0.21695 0.49005 0.34806 0.0
H1048 H 0.14166 0.44348 0.29546 0.0
H1049 H 0.1017 0.48467 0.26909 0.0
H1050 H 0.13755 0.42188 0.2665 0.0
H1051 H 0.09804 0.46219 0.24078 0.0
H1052 H 0.11605 0.41706 0.3494 0.0
H1053 H 0.15857 0.44784 0.38483 0.0
H1054 H 0.20644 0.51805 0.26923 0.0
H1055 H 0.16727 0.48785 0.22974 0.0
Li1056 Li 0.47897 0.86728 0.67321 0.0
Li1057 Li 0.49792 0.89075 0.69252 0.0
Li1058 Li 0.51463 0.86658 0.6714 0.0
Li1059 Li 0.49894 0.85658 0.70143 0.0
C1060 C 0.49633 0.89016 0.6437 0.0
N1061 N 0.49586 0.89428 0.60339 0.0
C1062 C 0.49911 0.9086 0.63521 0.0
C1063 C 0.49331 0.87381 0.6317 0.0
C1064 C 0.49883 0.91038 0.61479 0.0
C1065 C 0.49311 0.87619 0.61135 0.0
C1066 C 0.4649 0.8825 0.71558 0.0
C1067 C 0.45934 0.88995 0.74972 0.0
N1068 N 0.44274 0.89982 0.74476 0.0
C1069 C 0.4476 0.89243 0.71086 0.0
C1070 C 0.47068 0.88099 0.7352 0.0
C1071 C 0.43668 0.90122 0.72581 0.0
C1072 C 0.44957 0.84714 0.65169 0.0
N1073 N 0.45572 0.86486 0.65847 0.0
C1074 C 0.43107 0.88146 0.64001 0.0
C1075 C 0.44668 0.88182 0.6532 0.0
C1076 C 0.42489 0.86347 0.63227 0.0
C1077 C 0.43398 0.8461 0.63844 0.0
H1078 H 0.45726 0.83397 0.65598 0.0
H1079 H 0.45216 0.89568 0.65865 0.0
C1080 C 0.51464 0.92606 0.707 0.0
N1081 N 0.49795 0.91734 0.70037 0.0
C1082 C 0.51503 0.94622 0.71048 0.0
C1083 C 0.4811 0.94803 0.70019 0.0
C1084 C 0.48138 0.92786 0.6969 0.0
C1085 C 0.49816 0.95735 0.70678 0.0
H1086 H 0.52788 0.91756 0.70878 0.0
H1087 H 0.46865 0.92072 0.69073 0.0
C1088 C 0.50664 0.82651 0.67533 0.0
N1089 N 0.52675 0.79135 0.67676 0.0
C1090 C 0.5258 0.82587 0.68259 0.0
C1091 C 0.4977 0.80926 0.6688 0.0
C1092 C 0.53572 0.80797 0.68319 0.0
C1093 C 0.50812 0.79163 0.66963 0.0
C1094 C 0.53384 0.87604 0.71391 0.0
C1095 C 0.5532 0.86948 0.7122 0.0
C1096 C 0.5273 0.88376 0.73173 0.0
C1097 C 0.5656 0.87049 0.72849 0.0
C1098 C 0.54015 0.88454 0.74766 0.0
N1099 N 0.55887 0.87792 0.74574 0.0
C1100 C 0.55123 0.87605 0.65556 0.0
C1101 C 0.53543 0.8493 0.63981 0.0
C1102 C 0.56677 0.87514 0.64228 0.0
N1103 N 0.53598 0.86331 0.65401 0.0
C1104 C 0.55065 0.84787 0.62622 0.0
C1105 C 0.5664 0.86102 0.62736 0.0
H1106 H 0.5511 0.88715 0.6669 0.0
H1107 H 0.523 0.83952 0.63877 0.0
C1108 C 0.48188 0.83016 0.72716 0.0
N1109 N 0.49943 0.83825 0.72225 0.0
C1110 C 0.48088 0.81577 0.74165 0.0
C1111 C 0.51603 0.81846 0.74587 0.0
C1112 C 0.51638 0.83261 0.73114 0.0
C1113 C 0.49814 0.80987 0.7511 0.0
H1114 H 0.46871 0.83474 0.71959 0.0
H1115 H 0.53023 0.83868 0.72656 0.0
O1116 O 0.49658 0.88824 0.66368 0.0
O1117 O 0.47568 0.87369 0.70112 0.0
O1118 O 0.49647 0.84382 0.6749 0.0
O1119 O 0.52149 0.87498 0.69812 0.0
H1120 H 0.50146 0.9214 0.64432 0.0
H1121 H 0.49115 0.85942 0.63801 0.0
H1122 H 0.50097 0.92456 0.60801 0.0
H1123 H 0.49077 0.86367 0.6019 0.0
H1124 H 0.46369 0.88895 0.76495 0.0
H1125 H 0.44271 0.89343 0.6958 0.0
H1126 H 0.48364 0.87281 0.73922 0.0
H1127 H 0.42335 0.9091 0.72234 0.0
H1128 H 0.42437 0.89508 0.63532 0.0
H1129 H 0.42955 0.83204 0.6325 0.0
H1130 H 0.52851 0.9532 0.71519 0.0
H1131 H 0.46801 0.95639 0.69684 0.0
H1132 H 0.53295 0.83903 0.68774 0.0
H1133 H 0.48285 0.80945 0.66321 0.0
H1134 H 0.55055 0.80728 0.6888 0.0
H1135 H 0.50137 0.77816 0.66464 0.0
H1136 H 0.55855 0.86356 0.69848 0.0
H1137 H 0.51255 0.88935 0.73315 0.0
H1138 H 0.58058 0.86537 0.72741 0.0
H1139 H 0.53526 0.89048 0.76154 0.0
H1140 H 0.57874 0.88553 0.64336 0.0
H1141 H 0.55 0.83691 0.61473 0.0
H1142 H 0.4669 0.80921 0.74537 0.0
H1143 H 0.52959 0.81394 0.75282 0.0
Li1144 Li 0.12994 0.51675 0.6712 0.0
Li1145 Li 0.1426 0.49812 0.70017 0.0
Li1146 Li 0.13065 0.4818 0.67196 0.0
Li1147 Li 0.10749 0.49742 0.69246 0.0
C1148 C 0.1667 0.48922 0.66296 0.0
N1149 N 0.192 0.46602 0.64142 0.0
C1150 C 0.17732 0.47429 0.67215 0.0
C1151 C 0.16903 0.49244 0.64284 0.0
C1152 C 0.19001 0.4627 0.661 0.0
C1153 C 0.18188 0.48053 0.6322 0.0
C1154 C 0.12331 0.53777 0.70886 0.0
C1155 C 0.1096 0.5594 0.73325 0.0
N1156 N 0.12257 0.57356 0.72784 0.0
C1157 C 0.13645 0.55256 0.70347 0.0
C1158 C 0.10971 0.54122 0.7238 0.0
C1159 C 0.13587 0.57054 0.71327 0.0
C1160 C 0.11523 0.54984 0.65203 0.0
N1161 N 0.13189 0.53957 0.6558 0.0
C1162 C 0.15054 0.56043 0.63477 0.0
C1163 C 0.14943 0.54472 0.64783 0.0
C1164 C 0.13346 0.5709 0.6302 0.0
C1165 C 0.1157 0.56579 0.63922 0.0
H1166 H 0.10152 0.54529 0.6586 0.0
H1167 H 0.16244 0.53633 0.65127 0.0
C1168 C 0.16737 0.48124 0.72854 0.0
N1169 N 0.16144 0.49855 0.72059 0.0
C1170 C 0.1812 0.48103 0.74359 0.0
C1171 C 0.18295 0.51643 0.74167 0.0
C1172 C 0.16902 0.51595 0.72671 0.0
C1173 C 0.18907 0.4988 0.75023 0.0
H1174 H 0.16145 0.46757 0.72311 0.0
H1175 H 0.16441 0.52943 0.71986 0.0
C1176 C 0.0933 0.48848 0.65584 0.0
N1177 N 0.06155 0.46819 0.6409 0.0
C1178 C 0.08867 0.46983 0.66302 0.0
C1179 C 0.08177 0.49681 0.6411 0.0
C1180 C 0.07257 0.4598 0.65525 0.0
C1181 C 0.06578 0.48632 0.63373 0.0
C1182 C 0.12076 0.46914 0.71838 0.0
C1183 C 0.11945 0.44924 0.7231 0.0
C1184 C 0.11792 0.48322 0.73303 0.0
C1185 C 0.11534 0.44374 0.74241 0.0
C1186 C 0.11385 0.47714 0.75216 0.0
N1187 N 0.11265 0.45769 0.75642 0.0
C1188 C 0.13812 0.44195 0.66215 0.0
C1189 C 0.13158 0.46337 0.63547 0.0
C1190 C 0.13959 0.42599 0.64938 0.0
N1191 N 0.13407 0.4601 0.65498 0.0
C1192 C 0.13304 0.44792 0.62221 0.0
C1193 C 0.13692 0.42901 0.62921 0.0
H1194 H 0.13994 0.43986 0.67777 0.0
H1195 H 0.12829 0.47799 0.63028 0.0
C1196 C 0.0708 0.51398 0.6976 0.0
N1197 N 0.0813 0.49752 0.70159 0.0
C1198 C 0.05059 0.51427 0.70069 0.0
C1199 C 0.05253 0.48091 0.71269 0.0
C1200 C 0.07269 0.4812 0.70919 0.0
C1201 C 0.04132 0.49744 0.70794 0.0
H1202 H 0.07803 0.52654 0.69114 0.0
H1203 H 0.0812 0.46807 0.71157 0.0
O1204 O 0.15375 0.5003 0.67353 0.0
O1205 O 0.12337 0.52017 0.69922 0.0
O1206 O 0.10885 0.49874 0.66333 0.0
O1207 O 0.12479 0.47459 0.69948 0.0
H1208 H 0.17558 0.47152 0.68766 0.0
H1209 H 0.16073 0.50375 0.63543 0.0
H1210 H 0.19823 0.45101 0.66789 0.0
H1211 H 0.18371 0.48275 0.6166 0.0
H1212 H 0.09918 0.56226 0.74487 0.0
H1213 H 0.1471 0.55012 0.69197 0.0
H1214 H 0.09933 0.52998 0.72806 0.0
H1215 H 0.146 0.5821 0.7093 0.0
H1216 H 0.16441 0.56411 0.62797 0.0
H1217 H 0.10231 0.57363 0.63584 0.0
H1218 H 0.18585 0.4672 0.74988 0.0
H1219 H 0.18899 0.53034 0.74644 0.0
H1220 H 0.09734 0.46316 0.6745 0.0
H1221 H 0.08514 0.51127 0.63545 0.0
H1222 H 0.06881 0.44537 0.66068 0.0
H1223 H 0.05671 0.49261 0.62232 0.0
H1224 H 0.12158 0.43815 0.71194 0.0
H1225 H 0.11894 0.49866 0.72975 0.0
H1226 H 0.11428 0.42839 0.74626 0.0
H1227 H 0.11167 0.48788 0.76363 0.0
H1228 H 0.14249 0.41147 0.65512 0.0
H1229 H 0.13083 0.4506 0.6067 0.0
H1230 H 0.04217 0.52713 0.6967 0.0
H1231 H 0.04561 0.46763 0.71801 0.0
Li1232 Li 0.49681 0.1416 0.70045 0.0
Li1233 Li 0.47743 0.13216 0.67203 0.0
Li1234 Li 0.49514 0.10806 0.69169 0.0
Li1235 Li 0.51288 0.13096 0.67046 0.0
C1236 C 0.46116 0.11188 0.70878 0.0
N1237 N 0.43797 0.08348 0.72606 0.0
C1238 C 0.44423 0.10522 0.6993 0.0
C1239 C 0.46621 0.1042 0.72712 0.0
C1240 C 0.43271 0.09085 0.70828 0.0
C1241 C 0.45433 0.0898 0.73558 0.0
C1242 C 0.48668 0.16925 0.6654 0.0
C1243 C 0.47425 0.18483 0.63616 0.0
N1244 N 0.46577 0.19894 0.64741 0.0
C1245 C 0.47788 0.18394 0.67668 0.0
C1246 C 0.48493 0.16973 0.64497 0.0
C1247 C 0.46737 0.19883 0.6673 0.0
C1248 C 0.51061 0.17544 0.7191 0.0
N1249 N 0.49856 0.15971 0.72128 0.0
C1250 C 0.48861 0.17065 0.75298 0.0
C1251 C 0.48767 0.15702 0.73776 0.0
C1252 C 0.50074 0.1871 0.75096 0.0
C1253 C 0.51193 0.18947 0.73391 0.0
H1254 H 0.51898 0.17718 0.70573 0.0
H1255 H 0.47812 0.14445 0.73898 0.0
C1256 C 0.45104 0.12455 0.64164 0.0
N1257 N 0.45423 0.13651 0.65725 0.0
C1258 C 0.4347 0.12733 0.62972 0.0
C1259 C 0.42486 0.15442 0.65043 0.0
C1260 C 0.44132 0.15094 0.66214 0.0
C1261 C 0.42158 0.14253 0.63399 0.0
H1262 H 0.46122 0.11288 0.63839 0.0
H1263 H 0.44395 0.15987 0.67497 0.0
C1264 C 0.53139 0.13011 0.71161 0.0
N1265 N 0.5552 0.14646 0.74003 0.0
C1266 C 0.54684 0.14246 0.70622 0.0
C1267 C 0.52814 0.12593 0.73142 0.0
C1268 C 0.55871 0.15059 0.72082 0.0
C1269 C 0.5403 0.13441 0.74557 0.0
C1270 C 0.50258 0.10145 0.64731 0.0
C1271 C 0.51255 0.08372 0.64992 0.0
C1272 C 0.50222 0.11023 0.62877 0.0
C1273 C 0.52206 0.07511 0.63394 0.0
C1274 C 0.51191 0.10115 0.61317 0.0
N1275 N 0.52156 0.08394 0.61606 0.0
C1276 C 0.48109 0.06987 0.69092 0.0
C1277 C 0.50814 0.07434 0.71242 0.0
C1278 C 0.48133 0.04972 0.69421 0.0
N1279 N 0.49453 0.08162 0.6998 0.0
C1280 C 0.50891 0.05422 0.71615 0.0
C1281 C 0.4956 0.04177 0.70664 0.0
H1282 H 0.47072 0.07609 0.68065 0.0
H1283 H 0.51885 0.08403 0.71896 0.0
C1284 C 0.53717 0.15004 0.6426 0.0
N1285 N 0.535 0.13369 0.65382 0.0
C1286 C 0.55257 0.15131 0.62917 0.0
C1287 C 0.56344 0.11913 0.6395 0.0
C1288 C 0.54801 0.11861 0.65291 0.0
C1289 C 0.56562 0.13554 0.62733 0.0
H1290 H 0.5268 0.16194 0.64387 0.0
H1291 H 0.54608 0.10596 0.66229 0.0
O1292 O 0.47282 0.12569 0.70008 0.0
O1293 O 0.49686 0.15444 0.67431 0.0
O1294 O 0.51928 0.12244 0.69757 0.0
O1295 O 0.49335 0.11025 0.66281 0.0
H1296 H 0.44009 0.11098 0.68512 0.0
H1297 H 0.47936 0.10904 0.73457 0.0
H1298 H 0.41962 0.08551 0.70108 0.0
H1299 H 0.45816 0.0836 0.74967 0.0
H1300 H 0.47265 0.18529 0.62038 0.0
H1301 H 0.47894 0.18375 0.6925 0.0
H1302 H 0.49153 0.15842 0.63602 0.0
H1303 H 0.46042 0.21024 0.67585 0.0
H1304 H 0.47974 0.16861 0.76601 0.0
H1305 H 0.52134 0.20214 0.73201 0.0
H1306 H 0.43244 0.11792 0.61711 0.0
H1307 H 0.41489 0.16624 0.65405 0.0
H1308 H 0.54951 0.14589 0.69096 0.0
H1309 H 0.51614 0.11652 0.73583 0.0
H1310 H 0.57066 0.16026 0.71689 0.0
H1311 H 0.53784 0.13148 0.76097 0.0
H1312 H 0.51319 0.07678 0.66416 0.0
H1313 H 0.49466 0.12398 0.6265 0.0
H1314 H 0.5299 0.06144 0.63578 0.0
H1315 H 0.51179 0.10781 0.59877 0.0
H1316 H 0.47104 0.04035 0.68653 0.0
H1317 H 0.52021 0.04833 0.72564 0.0
H1318 H 0.55402 0.16418 0.61998 0.0
H1319 H 0.57341 0.10681 0.63841 0.0
Li1320 Li 0.86715 0.5174 0.67101 0.0
Li1321 Li 0.8904 0.49985 0.69189 0.0
Li1322 Li 0.86601 0.48099 0.67152 0.0
Li1323 Li 0.85657 0.49897 0.70085 0.0
C1324 C 0.89573 0.5005 0.64479 0.0
N1325 N 0.91231 0.50425 0.60795 0.0
C1326 C 0.91434 0.50884 0.64262 0.0
C1327 C 0.88575 0.4937 0.6282 0.0
C1328 C 0.92241 0.51074 0.62388 0.0
C1329 C 0.89433 0.49581 0.60972 0.0
C1330 C 0.88543 0.5344 0.70987 0.0
C1331 C 0.90467 0.54029 0.73898 0.0
N1332 N 0.91019 0.558 0.73164 0.0
C1333 C 0.89114 0.55274 0.70269 0.0
C1334 C 0.89209 0.52819 0.72824 0.0
C1335 C 0.90372 0.56443 0.71389 0.0
C1336 C 0.84608 0.54692 0.65026 0.0
N1337 N 0.86417 0.53991 0.65493 0.0
C1338 C 0.87953 0.56367 0.63431 0.0
C1339 C 0.88075 0.54832 0.64774 0.0
C1340 C 0.86105 0.57041 0.62841 0.0
C1341 C 0.84415 0.56219 0.63675 0.0
H1342 H 0.83314 0.54034 0.65663 0.0
H1343 H 0.89493 0.54293 0.65227 0.0
C1344 C 0.92468 0.48353 0.70827 0.0
N1345 N 0.91693 0.49996 0.70005 0.0
C1346 C 0.94481 0.4824 0.71192 0.0
C1347 C 0.94833 0.51542 0.69934 0.0
C1348 C 0.92822 0.51583 0.69576 0.0
C1349 C 0.95678 0.4984 0.7071 0.0
H1350 H 0.91536 0.47104 0.71123 0.0
H1351 H 0.92176 0.52849 0.68877 0.0
C1352 C 0.82886 0.49782 0.66146 0.0
N1353 N 0.79842 0.49342 0.63501 0.0
C1354 C 0.81026 0.49212 0.66797 0.0
C1355 C 0.83187 0.50151 0.64152 0.0
C1356 C 0.79509 0.4899 0.65437 0.0
C1357 C 0.81633 0.49915 0.62838 0.0
C1358 C 0.86847 0.46405 0.71337 0.0
C1359 C 0.85652 0.44803 0.70877 0.0
C1360 C 0.8736 0.46762 0.73289 0.0
C1361 C 0.84959 0.43604 0.72388 0.0
C1362 C 0.86633 0.45532 0.74758 0.0
N1363 N 0.85456 0.43993 0.74281 0.0
C1364 C 0.87988 0.44904 0.65066 0.0
C1365 C 0.8452 0.4518 0.64932 0.0
C1366 C 0.87947 0.43326 0.63767 0.0
N1367 N 0.86295 0.4582 0.65585 0.0
C1368 C 0.84414 0.43622 0.63609 0.0
C1369 C 0.86146 0.42704 0.62999 0.0
H1370 H 0.89375 0.45443 0.65619 0.0
H1371 H 0.83191 0.45894 0.65402 0.0
C1372 C 0.83961 0.51267 0.73605 0.0
N1373 N 0.83857 0.49865 0.72191 0.0
C1374 C 0.82622 0.51265 0.75151 0.0
C1375 C 0.81099 0.48378 0.73751 0.0
C1376 C 0.82462 0.4844 0.7223 0.0
C1377 C 0.81175 0.49808 0.75221 0.0
H1378 H 0.8507 0.52395 0.73523 0.0
H1379 H 0.82405 0.47358 0.71073 0.0
O1380 O 0.88768 0.49843 0.66311 0.0
O1381 O 0.87327 0.52269 0.69903 0.0
O1382 O 0.8439 0.49987 0.67461 0.0
O1383 O 0.87509 0.47616 0.69882 0.0
H1384 H 0.92244 0.51395 0.65524 0.0
H1385 H 0.87167 0.4866 0.62952 0.0
H1386 H 0.93672 0.51733 0.62201 0.0
H1387 H 0.88672 0.49063 0.59678 0.0
H1388 H 0.91005 0.5356 0.75315 0.0
H1389 H 0.88596 0.55787 0.6886 0.0
H1390 H 0.88772 0.51411 0.73406 0.0
H1391 H 0.90833 0.57861 0.70847 0.0
H1392 H 0.89281 0.56991 0.62822 0.0
H1393 H 0.82969 0.56724 0.63251 0.0
H1394 H 0.95107 0.46901 0.71773 0.0
H1395 H 0.95734 0.52785 0.69525 0.0
H1396 H 0.80755 0.4894 0.68335 0.0
H1397 H 0.84596 0.50646 0.63627 0.0
H1398 H 0.78066 0.48541 0.6592 0.0
H1399 H 0.8185 0.50197 0.61291 0.0
H1400 H 0.85245 0.44503 0.69373 0.0
H1401 H 0.88301 0.47981 0.73667 0.0
H1402 H 0.84021 0.42368 0.72056 0.0
H1403 H 0.87004 0.45801 0.76277 0.0
H1404 H 0.89306 0.42639 0.63315 0.0
H1405 H 0.83003 0.43159 0.63042 0.0
H1406 H 0.82698 0.52392 0.76268 0.0
H1407 H 0.79985 0.47245 0.73771 0.0
Li1408 Li 0.32794 0.5152 0.13005 0.0
Li1409 Li 0.29851 0.49889 0.14176 0.0
Li1410 Li 0.32683 0.47991 0.13164 0.0
Li1411 Li 0.30633 0.49696 0.1079 0.0
C1412 C 0.33368 0.48841 0.16829 0.0
N1413 N 0.35115 0.46557 0.19687 0.0
C1414 C 0.32222 0.47932 0.18266 0.0
C1415 C 0.35405 0.48593 0.16851 0.0
C1416 C 0.33133 0.46784 0.19699 0.0
C1417 C 0.36259 0.4743 0.18305 0.0
C1418 C 0.28626 0.53308 0.12971 0.0
C1419 C 0.25214 0.54116 0.13432 0.0
N1420 N 0.25746 0.55669 0.14566 0.0
C1421 C 0.29141 0.54916 0.14134 0.0
C1422 C 0.26648 0.5291 0.12605 0.0
C1423 C 0.27662 0.56092 0.14928 0.0
C1424 C 0.34242 0.55205 0.11837 0.0
N1425 N 0.34426 0.53767 0.13208 0.0
C1426 C 0.37102 0.55447 0.14718 0.0
C1427 C 0.35795 0.53874 0.14654 0.0
C1428 C 0.36975 0.5692 0.13292 0.0
C1429 C 0.35513 0.56811 0.11852 0.0
H1430 H 0.33133 0.55079 0.10708 0.0
H1431 H 0.35895 0.52721 0.15734 0.0
C1432 C 0.26261 0.48796 0.159 0.0
N1433 N 0.2781 0.50043 0.16036 0.0
C1434 C 0.24764 0.48866 0.1729 0.0
C1435 C 0.26492 0.51503 0.1893 0.0
C1436 C 0.27959 0.51376 0.17512 0.0
C1437 C 0.24884 0.5023 0.18821 0.0
H1438 H 0.26199 0.47734 0.14726 0.0
H1439 H 0.29227 0.52326 0.17593 0.0
C1440 C 0.34975 0.50581 0.09963 0.0
N1441 N 0.37888 0.52615 0.08011 0.0
C1442 C 0.34544 0.51596 0.08233 0.0
C1443 C 0.36885 0.50618 0.10709 0.0
C1444 C 0.36037 0.52615 0.07269 0.0
C1445 C 0.38339 0.51645 0.09695 0.0
C1446 C 0.28949 0.4629 0.11286 0.0
C1447 C 0.29888 0.44609 0.10581 0.0
C1448 C 0.27065 0.46753 0.10619 0.0
C1449 C 0.28931 0.43427 0.09207 0.0
C1450 C 0.26161 0.45536 0.0924 0.0
N1451 N 0.27105 0.43912 0.08568 0.0
C1452 C 0.3349 0.44278 0.14867 0.0
C1453 C 0.35871 0.45451 0.12614 0.0
C1454 C 0.34596 0.42587 0.15209 0.0
N1455 N 0.34158 0.45674 0.13605 0.0
C1456 C 0.37023 0.43793 0.12916 0.0
C1457 C 0.36386 0.42351 0.1423 0.0
H1458 H 0.32103 0.44484 0.15608 0.0
H1459 H 0.3634 0.46555 0.11583 0.0
C1460 C 0.2843 0.509 0.07453 0.0
N1461 N 0.29724 0.49566 0.08175 0.0
C1462 C 0.27968 0.50902 0.05457 0.0
C1463 C 0.30134 0.48123 0.05015 0.0
C1464 C 0.30562 0.48182 0.07011 0.0
C1465 C 0.28855 0.49518 0.04223 0.0
H1466 H 0.27818 0.52005 0.0841 0.0
H1467 H 0.3162 0.47172 0.07624 0.0
O1468 O 0.32501 0.49942 0.15392 0.0
O1469 O 0.3005 0.52112 0.1222 0.0
O1470 O 0.33535 0.49566 0.10928 0.0
O1471 O 0.29874 0.47486 0.12606 0.0
H1472 H 0.30644 0.48093 0.18266 0.0
H1473 H 0.36313 0.49256 0.15731 0.0
H1474 H 0.32263 0.46067 0.20815 0.0
H1475 H 0.3783 0.47211 0.18327 0.0
H1476 H 0.23677 0.53815 0.13177 0.0
H1477 H 0.30664 0.5524 0.14439 0.0
H1478 H 0.26225 0.51664 0.11718 0.0
H1479 H 0.28038 0.57335 0.15839 0.0
H1480 H 0.38223 0.55499 0.15843 0.0
H1481 H 0.35392 0.57927 0.10728 0.0
H1482 H 0.23539 0.47859 0.17188 0.0
H1483 H 0.26619 0.52558 0.20111 0.0
H1484 H 0.33072 0.51612 0.07645 0.0
H1485 H 0.37239 0.49879 0.12067 0.0
H1486 H 0.35723 0.53407 0.0593 0.0
H1487 H 0.39823 0.51682 0.10255 0.0
H1488 H 0.31347 0.4423 0.11072 0.0
H1489 H 0.26323 0.48056 0.11136 0.0
H1490 H 0.29645 0.42127 0.08643 0.0
H1491 H 0.24711 0.45886 0.08698 0.0
H1492 H 0.34068 0.41483 0.16221 0.0
H1493 H 0.38393 0.43631 0.12127 0.0
H1494 H 0.26994 0.5201 0.04869 0.0
H1495 H 0.30857 0.47058 0.04084 0.0
Li1496 Li 0.32565 0.51257 0.87013 0.0
Li1497 Li 0.30479 0.49345 0.89215 0.0
Li1498 Li 0.32572 0.47719 0.86813 0.0
Li1499 Li 0.29668 0.4954 0.85844 0.0
C1500 C 0.34881 0.50271 0.89978 0.0
N1501 N 0.37902 0.5226 0.91812 0.0
C1502 C 0.34562 0.51199 0.9178 0.0
C1503 C 0.36737 0.50357 0.89111 0.0
C1504 C 0.36108 0.52197 0.92683 0.0
C1505 C 0.38245 0.51368 0.90062 0.0
C1506 C 0.28376 0.52935 0.87054 0.0
C1507 C 0.24957 0.53665 0.86518 0.0
N1508 N 0.25478 0.55266 0.85448 0.0
C1509 C 0.28879 0.54592 0.85957 0.0
C1510 C 0.264 0.52472 0.87349 0.0
C1511 C 0.27391 0.55752 0.85157 0.0
C1512 C 0.35205 0.53848 0.85146 0.0
N1513 N 0.3413 0.53543 0.86797 0.0
C1514 C 0.3551 0.5638 0.88317 0.0
C1515 C 0.3421 0.548 0.88344 0.0
C1516 C 0.36686 0.56684 0.86661 0.0
C1517 C 0.36498 0.55431 0.85042 0.0
H1518 H 0.35086 0.52843 0.83927 0.0
H1519 H 0.33305 0.5454 0.89619 0.0
C1520 C 0.30572 0.47965 0.93053 0.0
N1521 N 0.29591 0.49201 0.91836 0.0
C1522 C 0.30189 0.47982 0.95059 0.0
C1523 C 0.27725 0.5048 0.94508 0.0
C1524 C 0.28167 0.50424 0.92509 0.0
C1525 C 0.28784 0.49282 0.958 0.0
H1526 H 0.31717 0.47032 0.92472 0.0
H1527 H 0.27434 0.5141 0.91509 0.0
C1528 C 0.3324 0.4872 0.8314 0.0
N1529 N 0.35133 0.46703 0.80178 0.0
C1530 C 0.32154 0.47789 0.8167 0.0
C1531 C 0.35289 0.48635 0.83097 0.0
C1532 C 0.33139 0.46777 0.80185 0.0
C1533 C 0.36218 0.47603 0.8159 0.0
C1534 C 0.28935 0.45902 0.88743 0.0
C1535 C 0.29981 0.44305 0.89488 0.0
C1536 C 0.27032 0.4627 0.89413 0.0
C1537 C 0.29109 0.43107 0.90904 0.0
C1538 C 0.26214 0.45041 0.90834 0.0
N1539 N 0.27261 0.43499 0.91544 0.0
C1540 C 0.35783 0.4522 0.87415 0.0
C1541 C 0.33595 0.44147 0.84928 0.0
C1542 C 0.37001 0.43616 0.87082 0.0
N1543 N 0.34134 0.45469 0.86323 0.0
C1544 C 0.34782 0.42524 0.84535 0.0
C1545 C 0.36507 0.42262 0.8562 0.0
H1546 H 0.36148 0.46262 0.88548 0.0
H1547 H 0.32249 0.4436 0.84116 0.0
C1548 C 0.27788 0.51006 0.82515 0.0
N1549 N 0.27639 0.49655 0.83973 0.0
C1550 C 0.26347 0.51117 0.8107 0.0
C1551 C 0.24642 0.4843 0.8265 0.0
C1552 C 0.26112 0.48377 0.8407 0.0
C1553 C 0.24764 0.49809 0.81132 0.0
H1554 H 0.29037 0.51983 0.82469 0.0
H1555 H 0.26051 0.47305 0.85235 0.0
O1556 O 0.33383 0.49296 0.89062 0.0
O1557 O 0.29811 0.51757 0.87812 0.0
O1558 O 0.32303 0.49693 0.84624 0.0
O1559 O 0.29779 0.47118 0.87389 0.0
H1560 H 0.33133 0.51175 0.92465 0.0
H1561 H 0.37008 0.49665 0.87709 0.0
H1562 H 0.35879 0.52928 0.94073 0.0
H1563 H 0.39688 0.51446 0.89406 0.0
H1564 H 0.23422 0.53314 0.86717 0.0
H1565 H 0.30401 0.54969 0.85711 0.0
H1566 H 0.25987 0.51186 0.88181 0.0
H1567 H 0.27758 0.57034 0.84296 0.0
H1568 H 0.35623 0.57334 0.89583 0.0
H1569 H 0.37389 0.55641 0.83743 0.0
H1570 H 0.31035 0.47054 0.96032 0.0
H1571 H 0.26645 0.51508 0.95054 0.0
H1572 H 0.30569 0.47829 0.81684 0.0
H1573 H 0.36151 0.49338 0.84228 0.0
H1574 H 0.32318 0.46043 0.79042 0.0
H1575 H 0.37801 0.47512 0.81548 0.0
H1576 H 0.31457 0.44001 0.88992 0.0
H1577 H 0.26208 0.4751 0.88864 0.0
H1578 H 0.29905 0.41871 0.91499 0.0
H1579 H 0.24749 0.45318 0.91377 0.0
H1580 H 0.3832 0.43434 0.8795 0.0
H1581 H 0.34363 0.41486 0.83407 0.0
H1582 H 0.26476 0.52189 0.79904 0.0
H1583 H 0.23435 0.47398 0.8272 0.0
Li1584 Li 0.48122 0.3268 0.86536 0.0
Li1585 Li 0.49766 0.30658 0.88978 0.0
Li1586 Li 0.5165 0.32679 0.8668 0.0
Li1587 Li 0.49926 0.2975 0.8562 0.0
C1588 C 0.50788 0.35006 0.89647 0.0
N1589 N 0.52928 0.3793 0.91468 0.0
C1590 C 0.51741 0.34633 0.91425 0.0
C1591 C 0.50931 0.36865 0.88793 0.0
C1592 C 0.52817 0.3613 0.92321 0.0
C1593 C 0.52013 0.38325 0.8974 0.0
C1594 C 0.46304 0.29059 0.88534 0.0
C1595 C 0.45454 0.26348 0.90643 0.0
N1596 N 0.43869 0.27367 0.91297 0.0
C1597 C 0.44662 0.30076 0.89221 0.0
C1598 C 0.46699 0.27175 0.89241 0.0
C1599 C 0.4345 0.29196 0.90619 0.0
C1600 C 0.44417 0.33544 0.8484 0.0
N1601 N 0.45855 0.34218 0.86052 0.0
C1602 C 0.44057 0.37149 0.86685 0.0
C1603 C 0.45699 0.35973 0.86981 0.0
C1604 C 0.42563 0.36497 0.85438 0.0
C1605 C 0.42742 0.34675 0.84504 0.0
H1606 H 0.4457 0.32126 0.84147 0.0
H1607 H 0.46839 0.36451 0.87969 0.0
C1608 C 0.5093 0.28517 0.92361 0.0
N1609 N 0.4962 0.29826 0.91619 0.0
C1610 C 0.50926 0.28087 0.94364 0.0
C1611 C 0.48193 0.30317 0.94775 0.0
C1612 C 0.48257 0.30712 0.92772 0.0
C1613 C 0.49561 0.29019 0.95586 0.0
H1614 H 0.52018 0.27864 0.91412 0.0
H1615 H 0.47267 0.31779 0.92144 0.0
C1616 C 0.48983 0.33211 0.82852 0.0
N1617 N 0.46751 0.34951 0.7995 0.0
C1618 C 0.48001 0.32053 0.81474 0.0
C1619 C 0.48838 0.35255 0.82749 0.0
C1620 C 0.46881 0.32961 0.80017 0.0
C1621 C 0.47697 0.36105 0.81274 0.0
C1622 C 0.53318 0.28469 0.86871 0.0
C1623 C 0.54965 0.28898 0.85729 0.0
C1624 C 0.52846 0.26517 0.87283 0.0
C1625 C 0.56104 0.27359 0.84997 0.0
C1626 C 0.54018 0.2502 0.86518 0.0
N1627 N 0.55609 0.25469 0.85401 0.0
C1628 C 0.55312 0.34208 0.87827 0.0
C1629 C 0.54148 0.35375 0.8476 0.0
C1630 C 0.56933 0.35454 0.87726 0.0
N1631 N 0.53942 0.34226 0.86377 0.0
C1632 C 0.55751 0.36636 0.84593 0.0
C1633 C 0.5714 0.36702 0.86106 0.0
H1634 H 0.55117 0.3326 0.89084 0.0
H1635 H 0.5305 0.35337 0.83619 0.0
C1636 C 0.48718 0.26155 0.8396 0.0
N1637 N 0.50023 0.27655 0.83819 0.0
C1638 C 0.48752 0.24637 0.8259 0.0
C1639 C 0.51479 0.26238 0.80971 0.0
C1640 C 0.51384 0.2773 0.82363 0.0
C1641 C 0.50141 0.24684 0.81078 0.0
H1642 H 0.47636 0.26152 0.85117 0.0
H1643 H 0.5238 0.28962 0.82277 0.0
O1644 O 0.49729 0.33559 0.88742 0.0
O1645 O 0.47529 0.29908 0.8719 0.0
O1646 O 0.50054 0.3235 0.84314 0.0
O1647 O 0.5216 0.29952 0.87563 0.0
H1648 H 0.5167 0.33202 0.92101 0.0
H1649 H 0.50231 0.37173 0.87402 0.0
H1650 H 0.53565 0.3586 0.93694 0.0
H1651 H 0.5213 0.39771 0.89098 0.0
H1652 H 0.45752 0.24899 0.91216 0.0
H1653 H 0.44337 0.31537 0.88698 0.0
H1654 H 0.4797 0.26372 0.88735 0.0
H1655 H 0.4218 0.2997 0.91171 0.0
H1656 H 0.43941 0.38545 0.87436 0.0
H1657 H 0.41598 0.34136 0.83543 0.0
H1658 H 0.52013 0.27098 0.94965 0.0
H1659 H 0.47142 0.31074 0.95696 0.0
H1660 H 0.48085 0.30471 0.81537 0.0
H1661 H 0.49568 0.36172 0.83819 0.0
H1662 H 0.46108 0.32083 0.78945 0.0
H1663 H 0.47557 0.37683 0.81188 0.0
H1664 H 0.55348 0.30401 0.85392 0.0
H1665 H 0.51571 0.2616 0.88157 0.0
H1666 H 0.57378 0.27668 0.84102 0.0
H1667 H 0.5366 0.23502 0.86808 0.0
H1668 H 0.57987 0.3548 0.88914 0.0
H1669 H 0.55881 0.37586 0.83326 0.0
H1670 H 0.47694 0.23455 0.82689 0.0
H1671 H 0.52554 0.2631 0.79803 0.0
Li1672 Li 0.69327 0.49849 0.893 0.0
Li1673 Li 0.67468 0.47818 0.86776 0.0
Li1674 Li 0.70221 0.49819 0.85903 0.0
Li1675 Li 0.67263 0.51383 0.86767 0.0
C1676 C 0.71789 0.46535 0.8705 0.0
N1677 N 0.7501 0.4462 0.85513 0.0
C1678 C 0.71539 0.45085 0.85623 0.0
C1679 C 0.73673 0.46998 0.87712 0.0
C1680 C 0.73187 0.44136 0.84861 0.0
C1681 C 0.75284 0.46017 0.86911 0.0
C1682 C 0.6454 0.50065 0.89216 0.0
C1683 C 0.61129 0.50018 0.8828 0.0
N1684 N 0.60696 0.51181 0.89841 0.0
C1685 C 0.64063 0.51262 0.90809 0.0
C1686 C 0.63064 0.4944 0.87937 0.0
C1687 C 0.6211 0.51812 0.911 0.0
C1688 C 0.69431 0.51496 0.9304 0.0
N1689 N 0.70052 0.49944 0.91957 0.0
C1690 C 0.71433 0.48412 0.94785 0.0
C1691 C 0.71064 0.48431 0.92771 0.0
C1692 C 0.70723 0.49952 0.95947 0.0
C1693 C 0.69745 0.51526 0.9506 0.0
H1694 H 0.68643 0.52681 0.92339 0.0
H1695 H 0.71531 0.47216 0.91865 0.0
C1696 C 0.65478 0.4484 0.84666 0.0
N1697 N 0.66006 0.45499 0.86473 0.0
C1698 C 0.6416 0.4328 0.8449 0.0
C1699 C 0.64019 0.4308 0.88034 0.0
C1700 C 0.65339 0.44637 0.88141 0.0
C1701 C 0.63394 0.42419 0.86193 0.0
H1702 H 0.66024 0.45572 0.83369 0.0
H1703 H 0.65773 0.45216 0.89554 0.0
C1704 C 0.71417 0.53383 0.87974 0.0
N1705 N 0.74454 0.55973 0.88688 0.0
C1706 C 0.71411 0.55243 0.87112 0.0
C1707 C 0.72955 0.52852 0.89223 0.0
C1708 C 0.72964 0.56528 0.87483 0.0
C1709 C 0.7448 0.54179 0.89559 0.0
C1710 C 0.67638 0.50669 0.82806 0.0
C1711 C 0.68653 0.52447 0.82696 0.0
C1712 C 0.66609 0.49988 0.81169 0.0
C1713 C 0.68626 0.53512 0.80947 0.0
C1714 C 0.66615 0.51097 0.79446 0.0
N1715 N 0.67616 0.52822 0.79372 0.0
C1716 C 0.72107 0.48783 0.82429 0.0
C1717 C 0.74076 0.50823 0.84445 0.0
C1718 C 0.73563 0.48729 0.80997 0.0
N1719 N 0.72373 0.4984 0.84101 0.0
C1720 C 0.75575 0.50805 0.83054 0.0
C1721 C 0.75308 0.49762 0.81307 0.0
H1722 H 0.70757 0.4798 0.82207 0.0
H1723 H 0.74286 0.51616 0.8579 0.0
C1724 C 0.65715 0.55089 0.87594 0.0
N1725 N 0.65523 0.53511 0.8639 0.0
C1726 C 0.64376 0.56631 0.87485 0.0
C1727 C 0.62697 0.54911 0.84871 0.0
C1728 C 0.6406 0.53395 0.85039 0.0
C1729 C 0.62841 0.56537 0.86122 0.0
H1730 H 0.6688 0.55121 0.88671 0.0
H1731 H 0.63921 0.52104 0.8413 0.0
O1732 O 0.70198 0.47523 0.87764 0.0
O1733 O 0.66448 0.49537 0.88887 0.0
O1734 O 0.69881 0.5213 0.87661 0.0
O1735 O 0.67646 0.49588 0.845 0.0
H1736 H 0.70089 0.44716 0.85091 0.0
H1737 H 0.73891 0.48117 0.88815 0.0
H1738 H 0.73018 0.43021 0.83745 0.0
H1739 H 0.76753 0.46371 0.87397 0.0
H1740 H 0.59972 0.49549 0.87299 0.0
H1741 H 0.65187 0.51767 0.91808 0.0
H1742 H 0.63409 0.48539 0.86677 0.0
H1743 H 0.61719 0.52741 0.92325 0.0
H1744 H 0.72186 0.47178 0.95441 0.0
H1745 H 0.69183 0.5273 0.9593 0.0
H1746 H 0.63685 0.42802 0.83051 0.0
H1747 H 0.63434 0.42447 0.89369 0.0
H1748 H 0.70214 0.55695 0.86171 0.0
H1749 H 0.72989 0.51422 0.89904 0.0
H1750 H 0.72981 0.57968 0.86819 0.0
H1751 H 0.75686 0.53781 0.90511 0.0
H1752 H 0.69462 0.52993 0.83941 0.0
H1753 H 0.65812 0.48616 0.8123 0.0
H1754 H 0.69411 0.54888 0.80842 0.0
H1755 H 0.65824 0.50587 0.78168 0.0
H1756 H 0.73329 0.47904 0.79659 0.0
H1757 H 0.7692 0.51606 0.83327 0.0
H1758 H 0.6451 0.57865 0.88477 0.0
H1759 H 0.61513 0.54797 0.83816 0.0
Li1760 Li 0.49926 0.69077 0.88985 0.0
Li1761 Li 0.51655 0.669 0.86745 0.0
Li1762 Li 0.49756 0.69842 0.85565 0.0
Li1763 Li 0.48018 0.66925 0.86705 0.0
C1764 C 0.5327 0.70921 0.88391 0.0
N1765 N 0.55464 0.73295 0.90836 0.0
C1766 C 0.55008 0.70219 0.8922 0.0
C1767 C 0.52664 0.72839 0.8878 0.0
C1768 C 0.56094 0.7144 0.90459 0.0
C1769 C 0.53788 0.74014 0.90027 0.0
C1770 C 0.50021 0.64294 0.89527 0.0
C1771 C 0.49726 0.60806 0.89007 0.0
N1772 N 0.50437 0.60481 0.90842 0.0
C1773 C 0.50725 0.63925 0.91417 0.0
C1774 C 0.495 0.62722 0.88319 0.0
C1775 C 0.50935 0.61988 0.92051 0.0
C1776 C 0.48539 0.71166 0.92301 0.0
N1777 N 0.50009 0.70024 0.91586 0.0
C1778 C 0.51492 0.69805 0.94747 0.0
C1779 C 0.51485 0.69365 0.92752 0.0
C1780 C 0.49956 0.70914 0.95535 0.0
C1781 C 0.48485 0.71638 0.94294 0.0
H1782 H 0.47369 0.71641 0.91343 0.0
H1783 H 0.52613 0.68432 0.92145 0.0
C1784 C 0.54573 0.64752 0.84676 0.0
N1785 N 0.53902 0.65289 0.86476 0.0
C1786 C 0.56102 0.63399 0.84511 0.0
C1787 C 0.56304 0.63291 0.88054 0.0
C1788 C 0.54765 0.64631 0.88149 0.0
C1789 C 0.56955 0.62636 0.86219 0.0
H1790 H 0.53889 0.65335 0.8337 0.0
H1791 H 0.54235 0.65125 0.89558 0.0
C1792 C 0.46199 0.71074 0.86915 0.0
N1793 N 0.43506 0.73875 0.85768 0.0
C1794 C 0.44463 0.70511 0.85979 0.0
C1795 C 0.46553 0.73057 0.87292 0.0
C1796 C 0.43122 0.71951 0.85406 0.0
C1797 C 0.45178 0.74452 0.86691 0.0
C1798 C 0.49476 0.6602 0.82836 0.0
C1799 C 0.4861 0.66861 0.81177 0.0
C1800 C 0.49959 0.64026 0.82819 0.0
C1801 C 0.48214 0.65688 0.79544 0.0
C1802 C 0.49539 0.62903 0.81157 0.0
N1803 N 0.4868 0.63749 0.79569 0.0
C1804 C 0.51358 0.7299 0.83458 0.0
C1805 C 0.48078 0.72209 0.82591 0.0
C1806 C 0.51398 0.745 0.82079 0.0
N1807 N 0.49712 0.71888 0.8369 0.0
C1808 C 0.48045 0.73717 0.81213 0.0
C1809 C 0.49723 0.74868 0.80949 0.0
H1810 H 0.52645 0.72686 0.84334 0.0
H1811 H 0.46807 0.71282 0.82768 0.0
C1812 C 0.44883 0.64874 0.88274 0.0
N1813 N 0.45744 0.65323 0.86531 0.0
C1814 C 0.43305 0.63574 0.88339 0.0
C1815 C 0.43497 0.6326 0.84809 0.0
C1816 C 0.45054 0.64587 0.84809 0.0
C1817 C 0.42631 0.62726 0.86593 0.0
H1818 H 0.4546 0.6549 0.89618 0.0
H1819 H 0.45723 0.64995 0.83439 0.0
O1820 O 0.5217 0.69737 0.87202 0.0
O1821 O 0.49818 0.66186 0.8888 0.0
O1822 O 0.4753 0.69685 0.87482 0.0
O1823 O 0.49871 0.67151 0.84449 0.0
H1824 H 0.55507 0.68744 0.88922 0.0
H1825 H 0.51335 0.73411 0.88132 0.0
H1826 H 0.57435 0.70912 0.91121 0.0
H1827 H 0.53329 0.75497 0.90352 0.0
H1828 H 0.4933 0.59578 0.88083 0.0
H1829 H 0.51115 0.65121 0.92383 0.0
H1830 H 0.48908 0.62975 0.86874 0.0
H1831 H 0.51491 0.61683 0.93506 0.0
H1832 H 0.52632 0.69211 0.95681 0.0
H1833 H 0.47271 0.7248 0.94877 0.0
H1834 H 0.56586 0.62922 0.83075 0.0
H1835 H 0.56948 0.62732 0.89395 0.0
H1836 H 0.4416 0.68982 0.85684 0.0
H1837 H 0.47878 0.73516 0.88032 0.0
H1838 H 0.41778 0.71538 0.8467 0.0
H1839 H 0.4544 0.75994 0.86961 0.0
H1840 H 0.48241 0.68399 0.8115 0.0
H1841 H 0.50666 0.63352 0.84065 0.0
H1842 H 0.47535 0.6632 0.78256 0.0
H1843 H 0.49902 0.61359 0.81129 0.0
H1844 H 0.52716 0.75368 0.8189 0.0
H1845 H 0.46738 0.73966 0.80343 0.0
H1846 H 0.42658 0.63183 0.89737 0.0
H1847 H 0.42993 0.62631 0.83439 0.0
Li1848 Li 0.69768 0.49918 0.14362 0.0
Li1849 Li 0.66835 0.48297 0.13156 0.0
Li1850 Li 0.69022 0.5012 0.10967 0.0
Li1851 Li 0.6695 0.51824 0.13327 0.0
C1852 C 0.71004 0.46501 0.13143 0.0
N1853 N 0.73883 0.44127 0.14719 0.0
C1854 C 0.70489 0.44896 0.14309 0.0
C1855 C 0.72981 0.46889 0.12763 0.0
C1856 C 0.71967 0.43714 0.15094 0.0
C1857 C 0.74416 0.45675 0.1358 0.0
C1858 C 0.66234 0.5097 0.16986 0.0
C1859 C 0.63342 0.52393 0.18444 0.0
N1860 N 0.64481 0.53259 0.19834 0.0
C1861 C 0.67377 0.51872 0.18431 0.0
C1862 C 0.64199 0.51226 0.16995 0.0
C1863 C 0.66462 0.53022 0.19859 0.0
C1864 C 0.73361 0.50984 0.1609 0.0
N1865 N 0.71803 0.49748 0.16228 0.0
C1866 C 0.73136 0.48251 0.19097 0.0
C1867 C 0.71655 0.48405 0.17695 0.0
C1868 C 0.74755 0.49509 0.18982 0.0
C1869 C 0.7487 0.50888 0.17465 0.0
H1870 H 0.73423 0.52054 0.14924 0.0
H1871 H 0.70381 0.47463 0.17776 0.0
C1872 C 0.6544 0.44613 0.11953 0.0
N1873 N 0.65205 0.46048 0.13318 0.0
C1874 C 0.64178 0.43001 0.11927 0.0
C1875 C 0.62488 0.44357 0.14738 0.0
C1876 C 0.63789 0.45937 0.14717 0.0
C1877 C 0.6267 0.42885 0.13317 0.0
H1878 H 0.66582 0.44746 0.1086 0.0
H1879 H 0.63646 0.47091 0.15791 0.0
C1880 C 0.70714 0.53529 0.11499 0.0
N1881 N 0.7261 0.55934 0.08844 0.0
C1882 C 0.69805 0.55239 0.10826 0.0
C1883 C 0.72593 0.5305 0.10832 0.0
C1884 C 0.70788 0.56435 0.09483 0.0
C1885 C 0.73524 0.54281 0.09485 0.0
C1886 C 0.64683 0.49253 0.10095 0.0
C1887 C 0.65118 0.48259 0.08355 0.0
C1888 C 0.62769 0.49211 0.10833 0.0
C1889 C 0.63627 0.47256 0.0737 0.0
C1890 C 0.61318 0.48199 0.098 0.0
N1891 N 0.61772 0.4725 0.08106 0.0
C1892 C 0.7112 0.48784 0.07635 0.0
C1893 C 0.69196 0.51653 0.0719 0.0
C1894 C 0.71533 0.48712 0.05631 0.0
N1895 N 0.69946 0.50224 0.08359 0.0
C1896 C 0.69587 0.51649 0.05186 0.0
C1897 C 0.70727 0.50139 0.04391 0.0
H1898 H 0.71654 0.47642 0.08595 0.0
H1899 H 0.68219 0.52741 0.07802 0.0
C1900 C 0.66111 0.55539 0.15021 0.0
N1901 N 0.65469 0.54141 0.13748 0.0
C1902 C 0.65002 0.57234 0.15332 0.0
C1903 C 0.62622 0.56025 0.1299 0.0
C1904 C 0.63777 0.54364 0.1272 0.0
C1905 C 0.63234 0.57471 0.14312 0.0
H1906 H 0.67482 0.55335 0.15792 0.0
H1907 H 0.63329 0.53259 0.1168 0.0
O1908 O 0.69581 0.47704 0.124 0.0
O1909 O 0.67106 0.49866 0.15554 0.0
O1910 O 0.69766 0.52325 0.12795 0.0
O1911 O 0.6612 0.50256 0.11077 0.0
H1912 H 0.68966 0.44581 0.14625 0.0
H1913 H 0.73404 0.4813 0.11869 0.0
H1914 H 0.71592 0.42473 0.16009 0.0
H1915 H 0.75952 0.45969 0.13314 0.0
H1916 H 0.61771 0.52619 0.18457 0.0
H1917 H 0.68953 0.51702 0.18442 0.0
H1918 H 0.63295 0.50567 0.15869 0.0
H1919 H 0.67328 0.53734 0.20982 0.0
H1920 H 0.73012 0.47184 0.20267 0.0
H1921 H 0.76104 0.51884 0.1736 0.0
H1922 H 0.64341 0.41884 0.10808 0.0
H1923 H 0.6133 0.443 0.15825 0.0
H1924 H 0.68351 0.55633 0.11319 0.0
H1925 H 0.73312 0.51726 0.11327 0.0
H1926 H 0.70099 0.57759 0.08943 0.0
H1927 H 0.74972 0.5392 0.08945 0.0
H1928 H 0.66591 0.48249 0.07771 0.0
H1929 H 0.62411 0.49936 0.12198 0.0
H1930 H 0.63944 0.46482 0.06022 0.0
H1931 H 0.59831 0.48157 0.10354 0.0
H1932 H 0.72395 0.47515 0.05041 0.0
H1933 H 0.68923 0.52748 0.0425 0.0
H1934 H 0.6551 0.58342 0.16351 0.0
H1935 H 0.61271 0.56188 0.1217 0.0
Li1936 Li 0.4998 0.70109 0.13918 0.0
Li1937 Li 0.5184 0.67241 0.12944 0.0
Li1938 Li 0.50095 0.69253 0.10558 0.0
Li1939 Li 0.48294 0.67154 0.12845 0.0
C1940 C 0.53528 0.70869 0.10904 0.0
N1941 N 0.55842 0.72522 0.08016 0.0
C1942 C 0.55153 0.69852 0.10179 0.0
C1943 C 0.53087 0.72732 0.1017 0.0
C1944 C 0.56305 0.70713 0.08718 0.0
C1945 C 0.54271 0.7354 0.08706 0.0
C1946 C 0.50947 0.66558 0.16637 0.0
C1947 C 0.52181 0.63591 0.18116 0.0
N1948 N 0.53072 0.64678 0.19532 0.0
C1949 C 0.51871 0.67647 0.18109 0.0
C1950 C 0.51097 0.64513 0.16642 0.0
C1951 C 0.52938 0.66669 0.1956 0.0
C1952 C 0.48672 0.71992 0.17318 0.0
N1953 N 0.49881 0.7218 0.15743 0.0
C1954 C 0.50977 0.75312 0.16847 0.0
C1955 C 0.51024 0.73791 0.15482 0.0
C1956 C 0.49753 0.75145 0.18487 0.0
C1957 C 0.48584 0.73473 0.18723 0.0
H1958 H 0.47793 0.70682 0.17487 0.0
H1959 H 0.51984 0.73886 0.14226 0.0
C1960 C 0.54424 0.64098 0.12317 0.0
N1961 N 0.54145 0.65748 0.13397 0.0
C1962 C 0.56062 0.62923 0.12642 0.0
C1963 C 0.57132 0.65197 0.1515 0.0
C1964 C 0.55474 0.66339 0.14765 0.0
C1965 C 0.5742 0.63465 0.14084 0.0
H1966 H 0.53375 0.63694 0.11201 0.0
H1967 H 0.55237 0.67686 0.15567 0.0
C1968 C 0.46533 0.71301 0.12822 0.0
N1969 N 0.44222 0.74159 0.14526 0.0
C1970 C 0.44977 0.70771 0.14047 0.0
C1971 C 0.46905 0.73283 0.12451 0.0
C1972 C 0.43826 0.72239 0.14895 0.0
C1973 C 0.45724 0.74706 0.13332 0.0
C1974 C 0.49236 0.64854 0.09854 0.0
C1975 C 0.48186 0.65195 0.08125 0.0
C1976 C 0.49273 0.62969 0.1066 0.0
C1977 C 0.47197 0.63641 0.07227 0.0
C1978 C 0.48275 0.61452 0.09712 0.0
N1979 N 0.47264 0.61816 0.08031 0.0
C1980 C 0.51404 0.6914 0.06702 0.0
C1981 C 0.48902 0.715 0.0725 0.0
C1982 C 0.5138 0.69526 0.04697 0.0
N1983 N 0.50157 0.70103 0.07922 0.0
C1984 C 0.48836 0.71942 0.05251 0.0
C1985 C 0.50059 0.70913 0.03959 0.0
H1986 H 0.52364 0.68019 0.07283 0.0
H1987 H 0.47909 0.7222 0.08253 0.0
C1988 C 0.45846 0.64344 0.147 0.0
N1989 N 0.46042 0.6554 0.13116 0.0
C1990 C 0.44275 0.63035 0.14812 0.0
C1991 C 0.43102 0.64267 0.11696 0.0
C1992 C 0.44687 0.65562 0.11652 0.0
C1993 C 0.4291 0.62971 0.13278 0.0
H1994 H 0.46926 0.64381 0.15858 0.0
H1995 H 0.44869 0.6655 0.10425 0.0
O1996 O 0.52357 0.70034 0.12304 0.0
O1997 O 0.49918 0.6749 0.15188 0.0
O1998 O 0.47709 0.69887 0.12021 0.0
O1999 O 0.50217 0.66356 0.10757 0.0
H2000 H 0.55515 0.68408 0.10723 0.0
H2001 H 0.51821 0.7353 0.10696 0.0
H2002 H 0.57562 0.6994 0.08138 0.0
H2003 H 0.53937 0.74972 0.08111 0.0
H2004 H 0.52321 0.6201 0.18129 0.0
H2005 H 0.51785 0.6923 0.18121 0.0
H2006 H 0.5041 0.63649 0.15503 0.0
H2007 H 0.53668 0.67493 0.20703 0.0
H2008 H 0.51901 0.76589 0.16645 0.0
H2009 H 0.47634 0.73313 0.19986 0.0
H2010 H 0.56263 0.61597 0.1179 0.0
H2011 H 0.5817 0.65652 0.16263 0.0
H2012 H 0.44674 0.69245 0.14358 0.0
H2013 H 0.48117 0.73718 0.11523 0.0
H2014 H 0.42623 0.71852 0.15855 0.0
H2015 H 0.46008 0.76246 0.13075 0.0
H2016 H 0.48113 0.66646 0.07491 0.0
H2017 H 0.50056 0.62681 0.12009 0.0
H2018 H 0.46374 0.63886 0.05893 0.0
H2019 H 0.48296 0.59986 0.10317 0.0
H2020 H 0.52326 0.68702 0.03723 0.0
H2021 H 0.4779 0.73006 0.04707 0.0
H2022 H 0.44156 0.62045 0.16049 0.0
H2023 H 0.42066 0.64242 0.10492 0.0
Li2024 Li 0.47795 0.32597 0.13019 0.0
Li2025 Li 0.49677 0.2974 0.13996 0.0
Li2026 Li 0.51336 0.32674 0.12843 0.0
Li2027 Li 0.49477 0.30552 0.10623 0.0
C2028 C 0.48748 0.33294 0.16692 0.0
N2029 N 0.4665 0.35144 0.19625 0.0
C2030 C 0.47871 0.32193 0.18183 0.0
C2031 C 0.48566 0.35336 0.16698 0.0
C2032 C 0.46817 0.33156 0.19654 0.0
C2033 C 0.47495 0.36244 0.18191 0.0
C2034 C 0.4607 0.28922 0.11079 0.0
C2035 C 0.45276 0.26178 0.08993 0.0
N2036 N 0.43716 0.2719 0.08271 0.0
C2037 C 0.44455 0.29933 0.10323 0.0
C2038 C 0.4648 0.27026 0.10418 0.0
C2039 C 0.43283 0.29032 0.08903 0.0
C2040 C 0.45205 0.35723 0.12374 0.0
N2041 N 0.45499 0.34096 0.13485 0.0
C2042 C 0.42523 0.3467 0.15248 0.0
C2043 C 0.44184 0.33529 0.14877 0.0
C2044 C 0.42218 0.36376 0.14146 0.0
C2045 C 0.43564 0.36896 0.12686 0.0
H2046 H 0.46241 0.36107 0.1124 0.0
H2047 H 0.44434 0.322 0.15704 0.0
C2048 C 0.51181 0.27879 0.1732 0.0
N2049 N 0.49827 0.27712 0.15865 0.0
C2050 C 0.51318 0.26438 0.18762 0.0
C2051 C 0.48648 0.24698 0.1719 0.0
C2052 C 0.48569 0.26169 0.15771 0.0
C2053 C 0.50031 0.24838 0.18704 0.0
H2054 H 0.5214 0.29141 0.17365 0.0
H2055 H 0.47494 0.26093 0.1461 0.0
C2056 C 0.50349 0.34941 0.0986 0.0
N2057 N 0.5232 0.3795 0.07991 0.0
C2058 C 0.51375 0.34579 0.08121 0.0
C2059 C 0.50336 0.36832 0.10653 0.0
C2060 C 0.52363 0.3612 0.07199 0.0
C2061 C 0.51334 0.38334 0.09682 0.0
C2062 C 0.53089 0.28503 0.1278 0.0
C2063 C 0.54735 0.29013 0.13892 0.0
C2064 C 0.52653 0.26525 0.12458 0.0
C2065 C 0.55909 0.2753 0.14681 0.0
C2066 C 0.53859 0.25087 0.13279 0.0
N2067 N 0.55448 0.25615 0.14364 0.0
C2068 C 0.53798 0.35493 0.14637 0.0
C2069 C 0.54943 0.34245 0.11596 0.0
C2070 C 0.55374 0.36795 0.14735 0.0
N2071 N 0.53594 0.34284 0.13065 0.0
C2072 C 0.56535 0.35531 0.11627 0.0
C2073 C 0.56739 0.36837 0.132 0.0
H2074 H 0.5272 0.35472 0.15797 0.0
H2075 H 0.54752 0.33246 0.10378 0.0
C2076 C 0.48092 0.3068 0.06798 0.0
N2077 N 0.49341 0.29686 0.07993 0.0
C2078 C 0.48091 0.30321 0.04788 0.0
C2079 C 0.506 0.27858 0.05286 0.0
C2080 C 0.50562 0.28275 0.07292 0.0
C2081 C 0.49385 0.28927 0.04018 0.0
H2082 H 0.4716 0.31813 0.07401 0.0
H2083 H 0.51558 0.27531 0.08275 0.0
O2084 O 0.49763 0.32377 0.15224 0.0
O2085 O 0.47262 0.29796 0.12437 0.0
O2086 O 0.49372 0.33452 0.10789 0.0
O2087 O 0.51897 0.29932 0.12034 0.0
H2088 H 0.47986 0.30611 0.18198 0.0
H2089 H 0.49217 0.3621 0.15545 0.0
H2090 H 0.46125 0.32322 0.20813 0.0
H2091 H 0.47329 0.37821 0.18205 0.0
H2092 H 0.45586 0.24717 0.08456 0.0
H2093 H 0.44118 0.31404 0.10812 0.0
H2094 H 0.47734 0.26229 0.10976 0.0
H2095 H 0.42033 0.298 0.08298 0.0
H2096 H 0.41494 0.34233 0.16376 0.0
H2097 H 0.43348 0.38201 0.11806 0.0
H2098 H 0.52393 0.2658 0.19924 0.0
H2099 H 0.47632 0.23478 0.17123 0.0
H2100 H 0.5143 0.33122 0.07499 0.0
H2101 H 0.49573 0.37135 0.12011 0.0
H2102 H 0.53167 0.35859 0.05857 0.0
H2103 H 0.51332 0.39805 0.10278 0.0
H2104 H 0.55091 0.30536 0.1416 0.0
H2105 H 0.51376 0.26106 0.11614 0.0
H2106 H 0.57182 0.27902 0.15553 0.0
H2107 H 0.53527 0.23551 0.13059 0.0
H2108 H 0.55502 0.37794 0.15964 0.0
H2109 H 0.5757 0.35539 0.10422 0.0
H2110 H 0.4715 0.31175 0.03834 0.0
H2111 H 0.51626 0.26786 0.04718 0.0
C2112 C 0.1215 0.41316 0.39698 0.0
C2113 C 0.13714 0.41421 0.38328 0.0
C2114 C 0.1533 0.38623 0.39904 0.0
C2115 C 0.13713 0.38455 0.41203 0.0
N2116 N 0.10437 0.39391 0.42148 0.0
N2117 N 0.1663 0.40026 0.369 0.0
C2118 C 0.12076 0.39728 0.41041 0.0
C2119 C 0.15259 0.40029 0.38364 0.0
N2120 N 0.10775 0.42775 0.39761 0.0
N2121 N 0.16952 0.37477 0.4018 0.0
H2122 H 0.16629 0.41048 0.35761 0.0
H2123 H 0.17676 0.38929 0.36723 0.0
H2124 H 0.17031 0.36398 0.41262 0.0
H2125 H 0.18265 0.37676 0.39428 0.0
H2126 H 0.09734 0.42908 0.40869 0.0
H2127 H 0.10763 0.4395 0.38782 0.0
H2128 H 0.09117 0.40132 0.41949 0.0
H2129 H 0.1034 0.38254 0.43165 0.0
C2130 C 0.59688 0.14367 0.41485 0.0
C2131 C 0.61609 0.1367 0.41081 0.0
C2132 C 0.60722 0.1306 0.37644 0.0
C2133 C 0.58765 0.1361 0.38088 0.0
N2134 N 0.56336 0.14819 0.40353 0.0
N2135 N 0.64008 0.1236 0.38841 0.0
C2136 C 0.58239 0.14292 0.39985 0.0
C2137 C 0.62146 0.13033 0.39171 0.0
N2138 N 0.59259 0.15097 0.43306 0.0
N2139 N 0.6121 0.12575 0.35758 0.0
H2140 H 0.65116 0.12427 0.39895 0.0
H2141 H 0.64459 0.11671 0.37558 0.0
H2142 H 0.60188 0.12509 0.34623 0.0
H2143 H 0.62636 0.12335 0.35274 0.0
H2144 H 0.57959 0.15808 0.43664 0.0
H2145 H 0.60247 0.15076 0.44473 0.0
H2146 H 0.55777 0.15126 0.41738 0.0
H2147 H 0.55265 0.14898 0.39262 0.0
C2148 C 0.85223 0.61737 0.39187 0.0
C2149 C 0.85921 0.61362 0.41111 0.0
C2150 C 0.8672 0.57984 0.40201 0.0
C2151 C 0.85879 0.58309 0.38325 0.0
N2152 N 0.84038 0.60373 0.36121 0.0
N2153 N 0.86973 0.59052 0.43578 0.0
C2154 C 0.85045 0.60153 0.37841 0.0
C2155 C 0.86564 0.59461 0.41657 0.0
N2156 N 0.84788 0.63613 0.3863 0.0
N2157 N 0.87733 0.56293 0.40569 0.0
H2158 H 0.86871 0.60094 0.44694 0.0
H2159 H 0.87242 0.57641 0.44096 0.0
H2160 H 0.87889 0.55176 0.39537 0.0
H2161 H 0.88563 0.56069 0.41831 0.0
H2162 H 0.84479 0.64013 0.37189 0.0
H2163 H 0.84885 0.64806 0.39584 0.0
H2164 H 0.83222 0.61617 0.35776 0.0
H2165 H 0.8388 0.59243 0.35101 0.0
C2166 C 0.39595 0.84566 0.41174 0.0
C2167 C 0.37827 0.85606 0.40842 0.0
C2168 C 0.38832 0.86272 0.37459 0.0
C2169 C 0.40715 0.85504 0.37895 0.0
N2170 N 0.42978 0.84074 0.40217 0.0
N2171 N 0.35774 0.87565 0.3873 0.0
C2172 C 0.41117 0.84669 0.39759 0.0
C2173 C 0.37436 0.86474 0.38992 0.0
N2174 N 0.39807 0.83468 0.42839 0.0
N2175 N 0.38379 0.86784 0.35574 0.0
H2176 H 0.34701 0.87719 0.39809 0.0
H2177 H 0.35517 0.88424 0.37494 0.0
H2178 H 0.39375 0.86647 0.34419 0.0
H2179 H 0.36974 0.87176 0.35122 0.0
H2180 H 0.4098 0.8252 0.43078 0.0
H2181 H 0.38714 0.83365 0.43906 0.0
H2182 H 0.43408 0.8367 0.41625 0.0
H2183 H 0.4414 0.84122 0.39224 0.0
C2184 C 0.13966 0.60567 0.61988 0.0
C2185 C 0.13391 0.5863 0.61489 0.0
C2186 C 0.13003 0.59578 0.58041 0.0
C2187 C 0.13482 0.61538 0.58556 0.0
N2188 N 0.14248 0.63979 0.60995 0.0
N2189 N 0.12196 0.56285 0.59124 0.0
C2190 C 0.13916 0.62057 0.60525 0.0
C2191 C 0.12864 0.58133 0.59536 0.0
N2192 N 0.1459 0.60967 0.63853 0.0
N2193 N 0.12715 0.59097 0.56112 0.0
H2194 H 0.12167 0.55155 0.60154 0.0
H2195 H 0.11563 0.55883 0.57794 0.0
H2196 H 0.12707 0.60128 0.54984 0.0
H2197 H 0.12593 0.57665 0.55598 0.0
H2198 H 0.15232 0.62286 0.64273 0.0
H2199 H 0.14571 0.5993 0.64977 0.0
H2200 H 0.14359 0.64501 0.62424 0.0
H2201 H 0.14307 0.65093 0.59948 0.0
C2202 C 0.39373 0.15711 0.5881 0.0
C2203 C 0.37633 0.14599 0.59083 0.0
C2204 C 0.38655 0.13739 0.62424 0.0
C2205 C 0.40499 0.14624 0.62048 0.0
N2206 N 0.42641 0.16527 0.59981 0.0
N2207 N 0.35526 0.12629 0.6112 0.0
C2208 C 0.40853 0.15662 0.60278 0.0
C2209 C 0.37235 0.13657 0.60896 0.0
N2210 N 0.39608 0.16796 0.57138 0.0
N2211 N 0.38277 0.12975 0.6424 0.0
H2212 H 0.34414 0.12633 0.60069 0.0
H2213 H 0.35222 0.11719 0.62306 0.0
H2214 H 0.39307 0.12979 0.65372 0.0
H2215 H 0.36914 0.12452 0.64683 0.0
H2216 H 0.40746 0.17787 0.56914 0.0
H2217 H 0.3859 0.16804 0.55997 0.0
H2218 H 0.43103 0.17107 0.58649 0.0
H2219 H 0.43714 0.16609 0.61069 0.0
C2220 C 0.8651 0.41696 0.5949 0.0
C2221 C 0.86091 0.4117 0.61461 0.0
C2222 C 0.85749 0.37715 0.6052 0.0
C2223 C 0.86105 0.3825 0.5854 0.0
N2224 N 0.86644 0.40722 0.56066 0.0
N2225 N 0.85115 0.38771 0.63865 0.0
C2226 C 0.86433 0.40236 0.58003 0.0
C2227 C 0.85651 0.39203 0.6198 0.0
N2228 N 0.87019 0.43589 0.59051 0.0
N2229 N 0.85546 0.35777 0.61001 0.0
H2230 H 0.85109 0.39809 0.64989 0.0
H2231 H 0.8457 0.37417 0.64309 0.0
H2232 H 0.85522 0.34658 0.59958 0.0
H2233 H 0.85503 0.35253 0.62433 0.0
H2234 H 0.87572 0.44035 0.57701 0.0
H2235 H 0.86983 0.44725 0.60075 0.0
H2236 H 0.86663 0.42153 0.55541 0.0
H2237 H 0.86697 0.39685 0.54943 0.0
C2238 C 0.60045 0.85205 0.61677 0.0
C2239 C 0.58204 0.86063 0.61231 0.0
C2240 C 0.59286 0.86733 0.57874 0.0
C2241 C 0.61185 0.86045 0.58374 0.0
N2242 N 0.63475 0.84862 0.60795 0.0
N2243 N 0.56136 0.87905 0.59027 0.0
C2244 C 0.61595 0.8534 0.60288 0.0
C2245 C 0.5784 0.86898 0.59361 0.0
N2246 N 0.60294 0.84219 0.63406 0.0
N2247 N 0.58852 0.87177 0.55965 0.0
H2248 H 0.5503 0.88047 0.60075 0.0
H2249 H 0.55882 0.88736 0.57771 0.0
H2250 H 0.59875 0.8708 0.54831 0.0
H2251 H 0.57439 0.87481 0.55472 0.0
H2252 H 0.6153 0.83382 0.63728 0.0
H2253 H 0.59196 0.8411 0.64465 0.0
H2254 H 0.63909 0.84546 0.62225 0.0
H2255 H 0.64644 0.84924 0.59809 0.0
C2256 C 0.38274 0.1458 0.39614 0.0
C2257 C 0.3856 0.13442 0.41332 0.0
C2258 C 0.41764 0.12353 0.40133 0.0
C2259 C 0.41423 0.13388 0.3836 0.0
N2260 N 0.39286 0.15274 0.36271 0.0
N2261 N 0.40409 0.11033 0.43146 0.0
C2262 C 0.39657 0.14444 0.38059 0.0
C2263 C 0.40259 0.12265 0.41568 0.0
N2264 N 0.36706 0.15825 0.39495 0.0
N2265 N 0.43552 0.11504 0.40466 0.0
H2266 H 0.39357 0.10963 0.44255 0.0
H2267 H 0.415 0.09976 0.43292 0.0
H2268 H 0.44681 0.1151 0.39435 0.0
H2269 H 0.43975 0.10919 0.41811 0.0
H2270 H 0.36526 0.16855 0.38383 0.0
H2271 H 0.3564 0.15926 0.40588 0.0
H2272 H 0.37941 0.15882 0.35882 0.0
H2273 H 0.40285 0.15232 0.35112 0.0
C2274 C 0.86224 0.3743 0.39094 0.0
C2275 C 0.85467 0.37889 0.40976 0.0
C2276 C 0.84476 0.41153 0.39835 0.0
C2277 C 0.85435 0.40774 0.38026 0.0
N2278 N 0.87201 0.38602 0.35872 0.0
N2279 N 0.83848 0.40119 0.43188 0.0
C2280 C 0.86285 0.38915 0.37629 0.0
C2281 C 0.84562 0.39725 0.41353 0.0
N2282 N 0.86879 0.35572 0.38715 0.0
N2283 N 0.8349 0.42881 0.40096 0.0
H2284 H 0.83789 0.3907 0.44301 0.0
H2285 H 0.83383 0.41495 0.4365 0.0
H2286 H 0.83467 0.43997 0.3905 0.0
H2287 H 0.82592 0.43181 0.41291 0.0
H2288 H 0.8728 0.35072 0.37331 0.0
H2289 H 0.86906 0.34468 0.39774 0.0
H2290 H 0.88053 0.37376 0.35557 0.0
H2291 H 0.87176 0.39619 0.34728 0.0
C2292 C 0.57984 0.84866 0.40117 0.0
C2293 C 0.58446 0.85456 0.38176 0.0
C2294 C 0.61908 0.85835 0.39071 0.0
C2295 C 0.61401 0.8547 0.41055 0.0
N2296 N 0.58987 0.84722 0.43529 0.0
N2297 N 0.60786 0.86561 0.35769 0.0
C2298 C 0.59449 0.84988 0.41594 0.0
C2299 C 0.60397 0.85941 0.37637 0.0
N2300 N 0.56144 0.84184 0.4054 0.0
N2301 N 0.63836 0.86059 0.38565 0.0
H2302 H 0.59732 0.86569 0.34659 0.0
H2303 H 0.62121 0.8716 0.35332 0.0
H2304 H 0.64972 0.86024 0.3959 0.0
H2305 H 0.64333 0.86137 0.37124 0.0
H2306 H 0.55765 0.83534 0.41868 0.0
H2307 H 0.55016 0.84132 0.39508 0.0
H2308 H 0.57559 0.84604 0.44054 0.0
H2309 H 0.60033 0.84728 0.44647 0.0
C2310 C 0.15672 0.60129 0.41316 0.0
C2311 C 0.14755 0.61957 0.4093 0.0
C2312 C 0.13939 0.60907 0.37589 0.0
C2313 C 0.14767 0.59043 0.38009 0.0
N2314 N 0.16693 0.56938 0.40098 0.0
N2315 N 0.13322 0.64253 0.38661 0.0
C2316 C 0.15733 0.58678 0.39818 0.0
C2317 C 0.13995 0.62402 0.39045 0.0
N2318 N 0.16421 0.59767 0.43145 0.0
N2319 N 0.13047 0.61215 0.35817 0.0
H2320 H 0.13289 0.65361 0.39715 0.0
H2321 H 0.12904 0.64745 0.37279 0.0
H2322 H 0.13083 0.60189 0.34682 0.0
H2323 H 0.12219 0.62448 0.35474 0.0
H2324 H 0.16909 0.58403 0.43621 0.0
H2325 H 0.16504 0.60837 0.44236 0.0
H2326 H 0.17583 0.56633 0.41298 0.0
H2327 H 0.16695 0.55809 0.39067 0.0
C2328 C 0.37651 0.85735 0.60498 0.0
C2329 C 0.38208 0.86388 0.58602 0.0
C2330 C 0.41604 0.86794 0.59699 0.0
C2331 C 0.41013 0.86309 0.61635 0.0
N2332 N 0.38464 0.85546 0.63961 0.0
N2333 N 0.40619 0.87819 0.56444 0.0
C2334 C 0.39032 0.85839 0.62059 0.0
C2335 C 0.4016 0.86994 0.58214 0.0
N2336 N 0.35819 0.84971 0.6079 0.0
N2337 N 0.43553 0.87013 0.59272 0.0
H2338 H 0.39606 0.87971 0.55309 0.0
H2339 H 0.41956 0.88498 0.56151 0.0
H2340 H 0.44658 0.86894 0.60324 0.0
H2341 H 0.44093 0.8715 0.5785 0.0
H2342 H 0.3539 0.84278 0.62081 0.0
H2343 H 0.34765 0.84895 0.59683 0.0
H2344 H 0.37006 0.85412 0.64395 0.0
H2345 H 0.39445 0.85578 0.65134 0.0
C2346 C 0.15517 0.40368 0.60962 0.0
C2347 C 0.13713 0.41233 0.61531 0.0
C2348 C 0.1196 0.39284 0.5908 0.0
C2349 C 0.13742 0.38324 0.58597 0.0
N2350 N 0.17143 0.37668 0.59313 0.0
N2351 N 0.10175 0.41229 0.61456 0.0
C2352 C 0.15502 0.3878 0.59611 0.0
C2353 C 0.11919 0.406 0.6069 0.0
N2354 N 0.17247 0.41114 0.61652 0.0
N2355 N 0.10327 0.3901 0.57946 0.0
H2356 H 0.10088 0.42189 0.62645 0.0
H2357 H 0.08821 0.4066 0.61036 0.0
H2358 H 0.10296 0.38076 0.56735 0.0
H2359 H 0.09053 0.39839 0.58097 0.0
H2360 H 0.18615 0.40691 0.61121 0.0
H2361 H 0.17316 0.42268 0.62654 0.0
H2362 H 0.18412 0.378 0.60153 0.0
H2363 H 0.1718 0.36492 0.58334 0.0
C2364 C 0.60051 0.14144 0.61725 0.0
C2365 C 0.58113 0.13584 0.61211 0.0
C2366 C 0.59152 0.12907 0.57834 0.0
C2367 C 0.61068 0.13557 0.58325 0.0
N2368 N 0.63333 0.14994 0.60627 0.0
N2369 N 0.5573 0.12627 0.58776 0.0
C2370 C 0.61516 0.14233 0.60242 0.0
C2371 C 0.57638 0.13022 0.59263 0.0
N2372 N 0.60492 0.14555 0.6364 0.0
N2373 N 0.58798 0.12138 0.56013 0.0
H2374 H 0.54594 0.12612 0.59799 0.0
H2375 H 0.55239 0.1243 0.57345 0.0
H2376 H 0.59848 0.12103 0.54901 0.0
H2377 H 0.57505 0.11426 0.55626 0.0
H2378 H 0.61912 0.14754 0.64162 0.0
H2379 H 0.59439 0.14588 0.64749 0.0
H2380 H 0.63699 0.15709 0.61925 0.0
H2381 H 0.6446 0.15021 0.59593 0.0
C2382 C 0.85421 0.60486 0.61725 0.0
C2383 C 0.8595 0.58527 0.61266 0.0
C2384 C 0.86538 0.59449 0.57846 0.0
C2385 C 0.85864 0.61371 0.5827 0.0
N2386 N 0.84351 0.63652 0.60507 0.0
N2387 N 0.86628 0.56041 0.58838 0.0
C2388 C 0.85213 0.61872 0.60181 0.0
C2389 C 0.86395 0.57977 0.59309 0.0
N2390 N 0.85186 0.61036 0.63639 0.0
N2391 N 0.87385 0.59047 0.56071 0.0
H2392 H 0.86524 0.54914 0.59869 0.0
H2393 H 0.86747 0.55535 0.57402 0.0
H2394 H 0.8753 0.60087 0.54958 0.0
H2395 H 0.88099 0.57733 0.55762 0.0
H2396 H 0.85013 0.62488 0.64081 0.0
H2397 H 0.85318 0.60058 0.64808 0.0
H2398 H 0.83661 0.64025 0.61818 0.0
H2399 H 0.84179 0.64704 0.59409 0.0
C2400 C 0.39148 0.40659 0.15935 0.0
C2401 C 0.37614 0.40589 0.14534 0.0
C2402 C 0.38807 0.37424 0.13327 0.0
C2403 C 0.40504 0.37656 0.14505 0.0
N2404 N 0.42333 0.39433 0.16953 0.0
N2405 N 0.35914 0.38941 0.1191 0.0
C2406 C 0.40673 0.39241 0.15842 0.0
C2407 C 0.37404 0.38963 0.13253 0.0
N2408 N 0.39141 0.42086 0.17344 0.0
N2409 N 0.38548 0.35731 0.12283 0.0
H2410 H 0.34816 0.40006 0.11873 0.0
H2411 H 0.35806 0.37926 0.10776 0.0
H2412 H 0.39566 0.34589 0.12296 0.0
H2413 H 0.37265 0.35384 0.11531 0.0
H2414 H 0.40115 0.42127 0.18519 0.0
H2415 H 0.3805 0.43156 0.17429 0.0
H2416 H 0.42664 0.40669 0.17783 0.0
H2417 H 0.43442 0.38378 0.16975 0.0
C2418 C 0.39126 0.61687 0.86174 0.0
C2419 C 0.41094 0.61192 0.8664 0.0
C2420 C 0.40179 0.57739 0.87065 0.0
C2421 C 0.38198 0.58245 0.86664 0.0
N2422 N 0.35712 0.6067 0.8601 0.0
N2423 N 0.43513 0.5883 0.87682 0.0
C2424 C 0.3765 0.60214 0.86268 0.0
C2425 C 0.41625 0.59239 0.8713 0.0
N2426 N 0.38684 0.63562 0.85608 0.0
N2427 N 0.40675 0.55814 0.87348 0.0
H2428 H 0.44643 0.59861 0.87638 0.0
H2429 H 0.4396 0.57501 0.88282 0.0
H2430 H 0.39645 0.54686 0.87419 0.0
H2431 H 0.42109 0.55301 0.87418 0.0
H2432 H 0.37335 0.63988 0.85039 0.0
H2433 H 0.3971 0.64697 0.85614 0.0
H2434 H 0.35173 0.62095 0.85928 0.0
H2435 H 0.34604 0.59616 0.85976 0.0
C2436 C 0.39177 0.37482 0.86458 0.0
C2437 C 0.40796 0.37728 0.85174 0.0
C2438 C 0.39411 0.40793 0.83921 0.0
C2439 C 0.37824 0.40579 0.8525 0.0
N2440 N 0.35927 0.38561 0.8744 0.0
N2441 N 0.42271 0.39318 0.82389 0.0
C2442 C 0.37617 0.38862 0.86402 0.0
C2443 C 0.40847 0.39287 0.83802 0.0
N2444 N 0.39182 0.35984 0.87792 0.0
N2445 N 0.39582 0.42474 0.82839 0.0
H2446 H 0.43351 0.38238 0.82282 0.0
H2447 H 0.42299 0.40313 0.81232 0.0
H2448 H 0.38514 0.43569 0.82834 0.0
H2449 H 0.40817 0.42834 0.82018 0.0
H2450 H 0.38171 0.35855 0.88929 0.0
H2451 H 0.40268 0.34906 0.87827 0.0
H2452 H 0.35597 0.37258 0.88165 0.0
H2453 H 0.34771 0.39563 0.87446 0.0
C2454 C 0.59832 0.4158 0.86328 0.0
C2455 C 0.61797 0.40953 0.86064 0.0
C2456 C 0.60686 0.37566 0.85601 0.0
C2457 C 0.58746 0.38166 0.86054 0.0
N2458 N 0.56492 0.40676 0.87127 0.0
N2459 N 0.64159 0.38356 0.85661 0.0
C2460 C 0.58322 0.40157 0.86488 0.0
C2461 C 0.62244 0.38945 0.85754 0.0
N2462 N 0.59405 0.4354 0.86383 0.0
N2463 N 0.61027 0.3569 0.84978 0.0
H2464 H 0.65333 0.39335 0.85724 0.0
H2465 H 0.64591 0.36892 0.85657 0.0
H2466 H 0.59919 0.3464 0.84863 0.0
H2467 H 0.62369 0.35213 0.84431 0.0
H2468 H 0.57982 0.44092 0.86351 0.0
H2469 H 0.60475 0.44631 0.86295 0.0
H2470 H 0.56154 0.42055 0.87687 0.0
H2471 H 0.55338 0.3968 0.87247 0.0
C2472 C 0.61783 0.59971 0.85315 0.0
C2473 C 0.61322 0.58091 0.86079 0.0
C2474 C 0.57935 0.59129 0.86659 0.0
C2475 C 0.58453 0.61066 0.86102 0.0
N2476 N 0.60921 0.63416 0.85152 0.0
N2477 N 0.59066 0.5596 0.87786 0.0
C2478 C 0.60392 0.61512 0.85493 0.0
C2479 C 0.59425 0.57689 0.86834 0.0
N2480 N 0.6353 0.60266 0.84374 0.0
N2481 N 0.56011 0.58653 0.8697 0.0
H2482 H 0.60123 0.5487 0.87959 0.0
H2483 H 0.57778 0.55678 0.88556 0.0
H2484 H 0.5487 0.59665 0.86842 0.0
H2485 H 0.55524 0.5722 0.87175 0.0
H2486 H 0.63865 0.61543 0.83606 0.0
H2487 H 0.64583 0.59168 0.84216 0.0
H2488 H 0.62363 0.63858 0.84914 0.0
H2489 H 0.59939 0.64584 0.85263 0.0
C2490 C 0.62234 0.60846 0.13274 0.0
C2491 C 0.62006 0.5924 0.14577 0.0
C2492 C 0.58936 0.60615 0.15829 0.0
C2493 C 0.59123 0.62179 0.1447 0.0
N2494 N 0.61105 0.64062 0.12235 0.0
N2495 N 0.60441 0.57784 0.17387 0.0
C2496 C 0.60833 0.62388 0.13306 0.0
C2497 C 0.60455 0.59193 0.15959 0.0
N2498 N 0.63742 0.60845 0.11951 0.0
N2499 N 0.57265 0.60447 0.16927 0.0
H2500 H 0.61525 0.5671 0.17498 0.0
H2501 H 0.59453 0.57761 0.1855 0.0
H2502 H 0.56161 0.61506 0.16923 0.0
H2503 H 0.56921 0.59225 0.17774 0.0
H2504 H 0.63866 0.61842 0.10802 0.0
H2505 H 0.6484 0.5978 0.11947 0.0
H2506 H 0.62395 0.64395 0.11491 0.0
H2507 H 0.60087 0.65204 0.12214 0.0
C2508 C 0.40228 0.58208 0.12194 0.0
C2509 C 0.38455 0.58509 0.1324 0.0
C2510 C 0.39528 0.61815 0.14169 0.0
C2511 C 0.41362 0.61447 0.13257 0.0
N2512 N 0.43579 0.59238 0.11611 0.0
N2513 N 0.36452 0.60483 0.15378 0.0
C2514 C 0.41745 0.59627 0.12324 0.0
C2515 C 0.38111 0.60285 0.14269 0.0
N2516 N 0.40442 0.56579 0.11042 0.0
N2517 N 0.39133 0.6364 0.149 0.0
H2518 H 0.35358 0.59414 0.15435 0.0
H2519 H 0.36207 0.61645 0.16337 0.0
H2520 H 0.40157 0.64778 0.14891 0.0
H2521 H 0.37757 0.64075 0.15396 0.0
H2522 H 0.41598 0.56376 0.10066 0.0
H2523 H 0.3938 0.55485 0.10948 0.0
H2524 H 0.44023 0.57863 0.11119 0.0
H2525 H 0.44718 0.60257 0.11643 0.0
C2526 C 0.59472 0.41568 0.121 0.0
C2527 C 0.61203 0.41286 0.13219 0.0
C2528 C 0.60103 0.3799 0.14151 0.0
C2529 C 0.583 0.38346 0.13175 0.0
N2530 N 0.56144 0.40526 0.11412 0.0
N2531 N 0.63135 0.39341 0.15448 0.0
C2532 C 0.57952 0.40149 0.12196 0.0
C2533 C 0.61514 0.39524 0.14281 0.0
N2534 N 0.593 0.43178 0.10916 0.0
N2535 N 0.60475 0.36174 0.14916 0.0
H2536 H 0.64227 0.4041 0.15527 0.0
H2537 H 0.63347 0.38191 0.1643 0.0
H2538 H 0.59455 0.35033 0.14878 0.0
H2539 H 0.61834 0.35748 0.15465 0.0
H2540 H 0.5818 0.43363 0.09894 0.0
H2541 H 0.60365 0.44271 0.10843 0.0
H2542 H 0.55718 0.41893 0.10883 0.0
H2543 H 0.55005 0.39506 0.11417 0.0
C2544 C 0.00955 0.30819 0.49502 0.0
C2545 C 0.0202 0.29037 0.49634 0.0
C2546 C 0.98954 0.27161 0.49628 0.0
C2547 C 0.97895 0.2895 0.49666 0.0
N2548 N 0.97847 0.32481 0.49934 0.0
N2549 N 0.02094 0.25527 0.50032 0.0
C2550 C 0.98884 0.30781 0.49683 0.0
C2551 C 0.01037 0.27208 0.49752 0.0
N2552 N 0.01923 0.32543 0.49152 0.0
N2553 N 0.97966 0.25426 0.49434 0.0
H2554 H 0.03623 0.2551 0.50088 0.0
H2555 H 0.01463 0.24172 0.5034 0.0
H2556 H 0.96439 0.25344 0.49376 0.0
H2557 H 0.98653 0.24084 0.49191 0.0
H2558 H 0.01215 0.33853 0.48816 0.0
H2559 H 0.03446 0.3264 0.49037 0.0
H2560 H 0.98502 0.33836 0.50193 0.0
H2561 H 0.96322 0.32524 0.5004 0.0
C2562 C 0.72345 0.00798 0.50878 0.0
C2563 C 0.7086 0.01832 0.49853 0.0
C2564 C 0.69373 0.98747 0.48782 0.0
C2565 C 0.70896 0.97708 0.49748 0.0
N2566 N 0.74004 0.97692 0.51427 0.0
N2567 N 0.68208 0.01852 0.4751 0.0
C2568 C 0.7244 0.9872 0.50708 0.0
C2569 C 0.69453 0.00823 0.487 0.0
N2570 N 0.7362 0.01799 0.52059 0.0
N2571 N 0.67801 0.97755 0.48025 0.0
H2572 H 0.68195 0.0338 0.47438 0.0
H2573 H 0.673 0.01195 0.46472 0.0
H2574 H 0.67687 0.9623 0.48032 0.0
H2575 H 0.66534 0.98442 0.4752 0.0
H2576 H 0.74597 0.01122 0.53016 0.0
H2577 H 0.73622 0.03326 0.52171 0.0
H2578 H 0.75268 0.98348 0.51977 0.0
H2579 H 0.74103 0.96168 0.51334 0.0
C2580 C 0.98908 0.72297 0.49685 0.0
C2581 C 0.97948 0.70479 0.50012 0.0
C2582 C 0.01115 0.68862 0.50476 0.0
C2583 C 0.02075 0.70619 0.4991 0.0
N2584 N 0.01916 0.73957 0.48755 0.0
N2585 N 0.98127 0.66958 0.50375 0.0
C2586 C 0.00981 0.72329 0.4946 0.0
C2587 C 0.99048 0.6874 0.50319 0.0
N2588 N 0.97842 0.73994 0.49639 0.0
N2589 N 0.02177 0.67326 0.51207 0.0
H2590 H 0.96613 0.66792 0.50233 0.0
H2591 H 0.98878 0.65628 0.50377 0.0
H2592 H 0.03699 0.67364 0.51365 0.0
H2593 H 0.01536 0.66088 0.51834 0.0
H2594 H 0.98475 0.75384 0.49605 0.0
H2595 H 0.9632 0.74022 0.49804 0.0
H2596 H 0.01179 0.75173 0.48198 0.0
H2597 H 0.03435 0.74036 0.4859 0.0
C2598 C 0.29641 0.01069 0.5141 0.0
C2599 C 0.28537 0.02094 0.49976 0.0
C2600 C 0.27215 0.98994 0.48725 0.0
C2601 C 0.28515 0.97971 0.49984 0.0
N2602 N 0.3107 0.97982 0.52436 0.0
N2603 N 0.26309 0.02102 0.47235 0.0
C2604 C 0.29741 0.98993 0.51322 0.0
C2605 C 0.27316 0.01076 0.48634 0.0
N2606 N 0.30589 0.02085 0.52858 0.0
N2607 N 0.2588 0.97969 0.47634 0.0
H2608 H 0.26293 0.03631 0.47182 0.0
H2609 H 0.25568 0.01448 0.46072 0.0
H2610 H 0.2579 0.96441 0.47662 0.0
H2611 H 0.24768 0.98622 0.4682 0.0
H2612 H 0.31241 0.01421 0.54069 0.0
H2613 H 0.30592 0.03612 0.52942 0.0
H2614 H 0.32173 0.98652 0.53252 0.0
H2615 H 0.31161 0.96455 0.52452 0.0
C2616 C 0.50245 0.98701 0.26986 0.0
C2617 C 0.49553 0.97734 0.28692 0.0
C2618 C 0.48723 0.00886 0.30204 0.0
C2619 C 0.49583 0.01857 0.28576 0.0
N2620 N 0.51261 0.01763 0.25469 0.0
N2621 N 0.48259 0.97843 0.31985 0.0
C2622 C 0.50363 0.00785 0.26973 0.0
C2623 C 0.48813 0.98809 0.30314 0.0
N2624 N 0.50766 0.97622 0.25378 0.0
N2625 N 0.47803 0.01952 0.31636 0.0
H2626 H 0.48219 0.96318 0.32097 0.0
H2627 H 0.47947 0.9854 0.33306 0.0
H2628 H 0.47776 0.03481 0.31656 0.0
H2629 H 0.46949 0.01334 0.32739 0.0
H2630 H 0.51102 0.98228 0.24018 0.0
H2631 H 0.50735 0.96092 0.25361 0.0
H2632 H 0.52052 0.01077 0.24359 0.0
H2633 H 0.51307 0.03291 0.25384 0.0
C2634 C 0.98874 0.50059 0.31033 0.0
C2635 C 0.97859 0.50073 0.29216 0.0
C2636 C 0.00978 0.4997 0.27431 0.0
C2637 C 0.01987 0.50098 0.29246 0.0
N2638 N 0.01938 0.50587 0.32752 0.0
N2639 N 0.97887 0.50295 0.25689 0.0
C2640 C 0.00946 0.50236 0.31042 0.0
C2641 C 0.98895 0.501 0.27412 0.0
N2642 N 0.9786 0.49813 0.32748 0.0
N2643 N 0.02011 0.49676 0.25738 0.0
H2644 H 0.96359 0.50362 0.25626 0.0
H2645 H 0.98557 0.50531 0.24338 0.0
H2646 H 0.0354 0.49616 0.25699 0.0
H2647 H 0.0136 0.4936 0.24393 0.0
H2648 H 0.98532 0.49561 0.34095 0.0
H2649 H 0.96335 0.49702 0.3281 0.0
H2650 H 0.01248 0.50929 0.34071 0.0
H2651 H 0.03462 0.50695 0.32829 0.0
C2652 C 0.4909 0.98895 0.72413 0.0
C2653 C 0.49889 0.97901 0.7077 0.0
C2654 C 0.50773 0.01032 0.69254 0.0
C2655 C 0.4978 0.02024 0.70788 0.0
N2656 N 0.47857 0.01956 0.73752 0.0
N2657 N 0.51282 0.97979 0.67514 0.0
C2658 C 0.48909 0.00972 0.72357 0.0
C2659 C 0.50685 0.98956 0.69163 0.0
N2660 N 0.48537 0.97851 0.74034 0.0
N2661 N 0.51825 0.02077 0.67901 0.0
H2662 H 0.51268 0.96454 0.67393 0.0
H2663 H 0.51651 0.98677 0.66207 0.0
H2664 H 0.51903 0.03605 0.67902 0.0
H2665 H 0.52755 0.01432 0.66875 0.0
H2666 H 0.48126 0.98495 0.75355 0.0
H2667 H 0.48633 0.96325 0.74108 0.0
H2668 H 0.47003 0.01265 0.74812 0.0
H2669 H 0.47737 0.03482 0.73777 0.0
C2670 C 0.98846 0.50214 0.7254 0.0
C2671 C 0.97839 0.49669 0.70804 0.0
C2672 C 0.00953 0.48935 0.69167 0.0
C2673 C 0.01965 0.49645 0.70843 0.0
N2674 N 0.01948 0.51076 0.74073 0.0
N2675 N 0.97871 0.48646 0.67415 0.0
C2676 C 0.00932 0.50309 0.72522 0.0
C2677 C 0.98876 0.49055 0.69106 0.0
N2678 N 0.97804 0.50617 0.74206 0.0
N2679 N 0.01983 0.48124 0.67646 0.0
H2680 H 0.96344 0.48629 0.67331 0.0
H2681 H 0.9854 0.48434 0.66059 0.0
H2682 H 0.03511 0.48082 0.67596 0.0
H2683 H 0.01335 0.47372 0.66486 0.0
H2684 H 0.9844 0.50836 0.75576 0.0
H2685 H 0.96274 0.50604 0.7425 0.0
H2686 H 0.01292 0.51785 0.75254 0.0
H2687 H 0.03477 0.51104 0.74131 0.0
C2688 C 0.29824 0.50891 0.98916 0.0
C2689 C 0.2859 0.49523 0.97947 0.0
C2690 C 0.2724 0.48448 0.011 0.0
C2691 C 0.28634 0.4965 0.02069 0.0
N2692 N 0.3135 0.51918 0.01959 0.0
N2693 N 0.2618 0.46942 0.98047 0.0
C2694 C 0.2994 0.50862 0.00994 0.0
C2695 C 0.27299 0.48295 0.9902 0.0
N2696 N 0.30878 0.52222 0.97845 0.0
N2697 N 0.25856 0.47472 0.02176 0.0
H2698 H 0.26138 0.46845 0.9652 0.0
H2699 H 0.25371 0.45851 0.98743 0.0
H2700 H 0.25798 0.47541 0.03704 0.0
H2701 H 0.24682 0.46714 0.01562 0.0
H2702 H 0.31632 0.53397 0.98461 0.0
H2703 H 0.30885 0.52248 0.96315 0.0
H2704 H 0.32504 0.52631 0.01258 0.0
H2705 H 0.31448 0.51987 0.03484 0.0
C2706 C 0.4849 0.27418 0.98716 0.0
C2707 C 0.49685 0.28813 0.97742 0.0
C2708 C 0.50951 0.29997 0.00889 0.0
C2709 C 0.49598 0.28752 0.01866 0.0
N2710 N 0.47015 0.26344 0.01779 0.0
N2711 N 0.51951 0.31531 0.97841 0.0
C2712 C 0.48358 0.27467 0.00799 0.0
C2713 C 0.50903 0.30119 0.98812 0.0
N2714 N 0.47501 0.2604 0.97644 0.0
N2715 N 0.52287 0.31052 0.01953 0.0
H2716 H 0.5201 0.31631 0.96316 0.0
H2717 H 0.52669 0.32684 0.98538 0.0
H2718 H 0.52326 0.31054 0.03482 0.0
H2719 H 0.53453 0.31815 0.0133 0.0
H2720 H 0.4675 0.24863 0.9826 0.0
H2721 H 0.47548 0.25991 0.96115 0.0
H2722 H 0.45916 0.25539 0.01091 0.0
H2723 H 0.46933 0.26295 0.03307 0.0
C2724 C 0.69387 0.48797 0.99156 0.0
C2725 C 0.7085 0.49848 0.98111 0.0
C2726 C 0.72419 0.50821 0.01199 0.0
C2727 C 0.70855 0.49926 0.02236 0.0
N2728 N 0.67787 0.4816 0.02268 0.0
N2729 N 0.73704 0.51932 0.98064 0.0
C2730 C 0.69329 0.48926 0.01233 0.0
C2731 C 0.7236 0.50873 0.99113 0.0
N2732 N 0.68063 0.47665 0.98157 0.0
N2733 N 0.73964 0.51599 0.02215 0.0
H2734 H 0.7375 0.51931 0.96535 0.0
H2735 H 0.74712 0.52889 0.98693 0.0
H2736 H 0.74025 0.51617 0.03745 0.0
H2737 H 0.75245 0.52108 0.01561 0.0
H2738 H 0.6711 0.4668 0.98829 0.0
H2739 H 0.67991 0.47605 0.96631 0.0
H2740 H 0.66505 0.47638 0.01626 0.0
H2741 H 0.67731 0.48141 0.03797 0.0
C2742 C 0.48627 0.69725 0.98736 0.0
C2743 C 0.49781 0.71106 0.97689 0.0
C2744 C 0.51013 0.72485 0.00771 0.0
C2745 C 0.49834 0.71124 0.01813 0.0
N2746 N 0.47241 0.68717 0.01851 0.0
N2747 N 0.51793 0.74007 0.97642 0.0
C2748 C 0.48546 0.69834 0.00812 0.0
C2749 C 0.50887 0.72556 0.98689 0.0
N2750 N 0.47684 0.68252 0.97749 0.0
N2751 N 0.52296 0.73658 0.01772 0.0
H2752 H 0.51738 0.74081 0.96114 0.0
H2753 H 0.52472 0.75216 0.9828 0.0
H2754 H 0.52372 0.73687 0.033 0.0
H2755 H 0.53356 0.74525 0.01098 0.0
H2756 H 0.47026 0.67059 0.98438 0.0
H2757 H 0.47667 0.68141 0.96224 0.0
H2758 H 0.46116 0.67912 0.01204 0.0
H2759 H 0.47175 0.68714 0.03379 0.0
C2760 C 0.20031 0.21367 0.48708 0.0
C2761 C 0.20406 0.23214 0.49588 0.0
C2762 C 0.23778 0.22222 0.50302 0.0
C2763 C 0.23336 0.20307 0.4962 0.0
N2764 N 0.20954 0.17945 0.48487 0.0
N2765 N 0.22504 0.25289 0.5155 0.0
C2766 C 0.21436 0.19845 0.48909 0.0
C2767 C 0.22244 0.23614 0.50478 0.0
N2768 N 0.18363 0.21085 0.47631 0.0
N2769 N 0.25673 0.22732 0.50719 0.0
H2770 H 0.21406 0.26337 0.51739 0.0
H2771 H 0.23745 0.25553 0.52402 0.0
H2772 H 0.26846 0.21759 0.50585 0.0
H2773 H 0.26107 0.24165 0.51021 0.0
H2774 H 0.18111 0.19836 0.46788 0.0
H2775 H 0.17306 0.22174 0.47434 0.0
H2776 H 0.19531 0.17494 0.48161 0.0
H2777 H 0.2194 0.16784 0.48632 0.0
C2778 C 0.76188 0.21891 0.50578 0.0
C2779 C 0.76609 0.20041 0.49725 0.0
C2780 C 0.79978 0.21076 0.49048 0.0
C2781 C 0.79504 0.22979 0.49741 0.0
N2782 N 0.7709 0.25316 0.50854 0.0
N2783 N 0.78772 0.17944 0.47873 0.0
C2784 C 0.77589 0.23422 0.50421 0.0
C2785 C 0.78469 0.19651 0.48882 0.0
N2786 N 0.74476 0.22166 0.51587 0.0
N2787 N 0.81879 0.20617 0.48603 0.0
H2788 H 0.777 0.16861 0.47727 0.0
H2789 H 0.80025 0.17668 0.47045 0.0
H2790 H 0.83024 0.21629 0.487 0.0
H2791 H 0.82351 0.19199 0.48294 0.0
H2792 H 0.74184 0.23411 0.52421 0.0
H2793 H 0.73408 0.21079 0.5173 0.0
H2794 H 0.75659 0.25761 0.51147 0.0
H2795 H 0.78077 0.26481 0.50758 0.0
C2796 C 0.7807 0.765 0.50781 0.0
C2797 C 0.79707 0.7673 0.49519 0.0
C2798 C 0.78477 0.79921 0.48432 0.0
C2799 C 0.76759 0.79609 0.49563 0.0
N2800 N 0.74754 0.77495 0.51573 0.0
N2801 N 0.81378 0.78493 0.46948 0.0
C2802 C 0.76509 0.77869 0.50674 0.0
C2803 C 0.79889 0.78397 0.48289 0.0
N2804 N 0.78035 0.75003 0.52117 0.0
N2805 N 0.78776 0.81691 0.47537 0.0
H2806 H 0.82452 0.77411 0.46819 0.0
H2807 H 0.8147 0.79565 0.45865 0.0
H2808 H 0.7776 0.82834 0.47595 0.0
H2809 H 0.8009 0.82086 0.46866 0.0
H2810 H 0.76988 0.74886 0.53222 0.0
H2811 H 0.79146 0.73958 0.52229 0.0
H2812 H 0.74406 0.76154 0.52216 0.0
H2813 H 0.73576 0.7847 0.51543 0.0
C2814 C 0.20191 0.78345 0.51551 0.0
C2815 C 0.20332 0.76748 0.50226 0.0
C2816 C 0.23445 0.78007 0.48956 0.0
C2817 C 0.23235 0.79674 0.50182 0.0
N2818 N 0.21355 0.81577 0.52493 0.0
N2819 N 0.21926 0.75133 0.47512 0.0
C2820 C 0.21592 0.79885 0.5144 0.0
C2821 C 0.21915 0.76598 0.48884 0.0
N2822 N 0.18742 0.78361 0.52939 0.0
N2823 N 0.25131 0.77752 0.47896 0.0
H2824 H 0.2086 0.74036 0.47451 0.0
H2825 H 0.22911 0.7507 0.46348 0.0
H2826 H 0.26263 0.78782 0.47867 0.0
H2827 H 0.25477 0.76466 0.47152 0.0
H2828 H 0.18676 0.79368 0.54085 0.0
H2829 H 0.17662 0.7728 0.53028 0.0
H2830 H 0.20089 0.8192 0.53273 0.0
H2831 H 0.22383 0.82711 0.52488 0.0
C2832 C 0.4956 0.22383 0.2368 0.0
C2833 C 0.50172 0.20451 0.23215 0.0
C2834 C 0.50898 0.21458 0.19845 0.0
C2835 C 0.50097 0.23331 0.20261 0.0
N2836 N 0.48375 0.25502 0.22464 0.0
N2837 N 0.51146 0.18046 0.20807 0.0
C2838 C 0.49348 0.23776 0.2215 0.0
C2839 C 0.50769 0.19957 0.21283 0.0
N2840 N 0.49238 0.22901 0.25591 0.0
N2841 N 0.51831 0.21132 0.181 0.0
H2842 H 0.51068 0.16904 0.21822 0.0
H2843 H 0.51377 0.17567 0.19375 0.0
H2844 H 0.51953 0.22199 0.17009 0.0
H2845 H 0.52627 0.19864 0.17797 0.0
H2846 H 0.48995 0.2434 0.26041 0.0
H2847 H 0.49385 0.2192 0.26756 0.0
H2848 H 0.4761 0.25812 0.23749 0.0
H2849 H 0.48187 0.26563 0.21378 0.0
C2850 C 0.79325 0.47977 0.21782 0.0
C2851 C 0.79315 0.49388 0.2331 0.0
C2852 C 0.76213 0.50737 0.22109 0.0
C2853 C 0.76306 0.49433 0.20492 0.0
N2854 N 0.78014 0.46959 0.18632 0.0
N2855 N 0.77924 0.52267 0.24826 0.0
C2856 C 0.7788 0.48089 0.20284 0.0
C2857 C 0.77804 0.50812 0.23448 0.0
N2858 N 0.80689 0.46506 0.21795 0.0
N2859 N 0.7458 0.5187 0.22387 0.0
H2860 H 0.7905 0.52349 0.2586 0.0
H2861 H 0.76993 0.53475 0.24861 0.0
H2862 H 0.73398 0.51882 0.21415 0.0
H2863 H 0.74322 0.52686 0.23651 0.0
H2864 H 0.80652 0.4531 0.20847 0.0
H2865 H 0.8179 0.46402 0.22852 0.0
H2866 H 0.79233 0.46108 0.18286 0.0
H2867 H 0.76954 0.46969 0.17527 0.0
C2868 C 0.50991 0.76489 0.2166 0.0
C2869 C 0.49751 0.76691 0.20003 0.0
C2870 C 0.48591 0.79871 0.21199 0.0
C2871 C 0.49718 0.79596 0.22926 0.0
N2872 N 0.51786 0.77565 0.24955 0.0
N2873 N 0.47204 0.78415 0.1826 0.0
C2874 C 0.50866 0.77883 0.23199 0.0
C2875 C 0.48504 0.78341 0.19787 0.0
N2876 N 0.5232 0.74987 0.21738 0.0
N2877 N 0.47643 0.81613 0.20895 0.0
H2878 H 0.47132 0.77339 0.17174 0.0
H2879 H 0.46106 0.79468 0.18133 0.0
H2880 H 0.47647 0.82751 0.21918 0.0
H2881 H 0.4697 0.81992 0.19578 0.0
H2882 H 0.53417 0.74884 0.22795 0.0
H2883 H 0.52424 0.73907 0.20659 0.0
H2884 H 0.52456 0.76246 0.25331 0.0
H2885 H 0.51762 0.78573 0.26105 0.0
C2886 C 0.219 0.48829 0.23303 0.0
C2887 C 0.20416 0.50284 0.23246 0.0
C2888 C 0.21798 0.51642 0.20221 0.0
C2889 C 0.23356 0.5027 0.20356 0.0
N2890 N 0.25085 0.47755 0.22144 0.0
N2891 N 0.19063 0.53236 0.21848 0.0
C2892 C 0.23463 0.48918 0.21932 0.0
C2893 C 0.20394 0.51738 0.21758 0.0
N2894 N 0.21782 0.47331 0.24633 0.0
N2895 N 0.21638 0.52814 0.186 0.0
H2896 H 0.17993 0.53334 0.22937 0.0
H2897 H 0.19101 0.54457 0.20933 0.0
H2898 H 0.22664 0.5281 0.17465 0.0
H2899 H 0.20423 0.53691 0.18308 0.0
H2900 H 0.22691 0.46105 0.24607 0.0
H2901 H 0.20674 0.47232 0.25684 0.0
H2902 H 0.25354 0.46899 0.23379 0.0
H2903 H 0.26248 0.47756 0.21149 0.0
C2904 C 0.49341 0.78399 0.80025 0.0
C2905 C 0.49737 0.76437 0.79454 0.0
C2906 C 0.50239 0.77469 0.76048 0.0
C2907 C 0.49761 0.79417 0.76603 0.0
N2908 N 0.48676 0.81753 0.79026 0.0
N2909 N 0.50376 0.74027 0.76945 0.0
C2910 C 0.49259 0.79888 0.78568 0.0
C2911 C 0.50135 0.7595 0.77469 0.0
N2912 N 0.49078 0.78835 0.81967 0.0
N2913 N 0.50827 0.77085 0.74166 0.0
H2914 H 0.50401 0.72881 0.77959 0.0
H2915 H 0.50441 0.73538 0.75501 0.0
H2916 H 0.50823 0.78138 0.73056 0.0
H2917 H 0.5142 0.75755 0.73713 0.0
H2918 H 0.49002 0.80255 0.8252 0.0
H2919 H 0.49043 0.7777 0.83064 0.0
H2920 H 0.48081 0.82154 0.80372 0.0
H2921 H 0.48681 0.829 0.78014 0.0
C2922 C 0.21385 0.50643 0.7996 0.0
C2923 C 0.23264 0.49844 0.79567 0.0
C2924 C 0.22345 0.49266 0.76147 0.0
C2925 C 0.2041 0.49888 0.76587 0.0
N2926 N 0.17983 0.50888 0.78959 0.0
N2927 N 0.25456 0.48099 0.77403 0.0
C2928 C 0.19898 0.50502 0.78508 0.0
C2929 C 0.23725 0.49072 0.77691 0.0
N2930 N 0.21041 0.51587 0.81696 0.0
N2931 N 0.2288 0.48918 0.74244 0.0
H2932 H 0.26509 0.47927 0.785 0.0
H2933 H 0.25778 0.47319 0.76131 0.0
H2934 H 0.21908 0.49046 0.73069 0.0
H2935 H 0.24322 0.48669 0.7381 0.0
H2936 H 0.1977 0.52383 0.81982 0.0
H2937 H 0.22096 0.51713 0.82798 0.0
H2938 H 0.17488 0.51134 0.80383 0.0
H2939 H 0.16852 0.50804 0.77931 0.0
C2940 C 0.51415 0.20061 0.78236 0.0
C2941 C 0.50101 0.20236 0.76633 0.0
C2942 C 0.48921 0.2339 0.77876 0.0
C2943 C 0.50135 0.2315 0.79549 0.0
N2944 N 0.52375 0.21205 0.81471 0.0
N2945 N 0.47433 0.21899 0.7501 0.0
C2946 C 0.51339 0.21469 0.79772 0.0
C2947 C 0.48806 0.21856 0.76475 0.0
N2948 N 0.52761 0.18574 0.78262 0.0
N2949 N 0.47917 0.25107 0.77608 0.0
H2950 H 0.47337 0.20827 0.73922 0.0
H2951 H 0.46299 0.22918 0.74943 0.0
H2952 H 0.47921 0.26245 0.78631 0.0
H2953 H 0.47189 0.25469 0.76316 0.0
H2954 H 0.539 0.18478 0.79274 0.0
H2955 H 0.52825 0.17491 0.77182 0.0
H2956 H 0.53113 0.19916 0.81822 0.0
H2957 H 0.52393 0.22234 0.82603 0.0
C2958 C 0.76661 0.51137 0.78194 0.0
C2959 C 0.76835 0.49794 0.79772 0.0
C2960 C 0.79949 0.48582 0.78456 0.0
C2961 C 0.79693 0.49816 0.76801 0.0
N2962 N 0.77713 0.52072 0.74929 0.0
N2963 N 0.78477 0.47076 0.81327 0.0
C2964 C 0.78023 0.51043 0.76624 0.0
C2965 C 0.78436 0.4847 0.79885 0.0
N2966 N 0.75219 0.52533 0.78224 0.0
N2967 N 0.81657 0.47554 0.78679 0.0
H2968 H 0.77411 0.46978 0.82421 0.0
H2969 H 0.79485 0.4593 0.81367 0.0
H2970 H 0.82782 0.47575 0.77641 0.0
H2971 H 0.82027 0.46793 0.7995 0.0
H2972 H 0.75146 0.53692 0.77234 0.0
H2973 H 0.74169 0.52625 0.79334 0.0
H2974 H 0.76415 0.52814 0.74618 0.0
H2975 H 0.78697 0.52068 0.73758 0.0
loop_
_geom_bond_atom_site_label_1
_geom_bond_atom_site_label_2
_geom_bond_distance
_geom_bond_site_symmetry_2
_ccdc_geom_bond_type
Li0 N17 1.990 . S
Li0 O60 1.956 . S
Li0 O61 1.970 . S
Li0 O62 1.961 . S
Li1 N25 1.990 . S
Li1 O60 1.970 . S
Li1 O61 1.956 . S
Li1 O63 1.961 . S
Li2 N47 1.990 . S
Li2 O60 1.961 . S
Li2 O62 1.956 . S
Li2 O63 1.970 . S
Li3 N53 1.990 . S
Li3 O61 1.961 . S
Li3 O62 1.970 . S
Li3 O63 1.956 . S
C4 C6 1.348 . S
C4 C7 1.356 . S
C4 O60 1.325 . S
N5 C8 1.314 . S
N5 C9 1.279 . S
C6 C4 1.348 . S
C6 C8 1.353 . S
C6 H64 0.929 . S
C7 C4 1.356 . S
C7 C9 1.358 . S
C7 H65 0.930 . S
C8 N5 1.314 . S
C8 C6 1.353 . S
C8 H66 0.930 . S
C9 N5 1.279 . S
C9 C7 1.358 . S
C9 H67 0.930 . S
C10 C13 1.348 . S
C10 C14 1.356 . S
C10 O61 1.325 . S
C11 N12 1.279 . S
C11 C14 1.358 . S
C11 H68 0.930 . S
N12 C11 1.279 . S
N12 C15 1.314 . S
C13 C10 1.348 . S
C13 C15 1.353 . S
C13 H69 0.929 . S
C14 C10 1.356 . S
C14 C11 1.358 . S
C14 H70 0.930 . S
C15 N12 1.314 . S
C15 C13 1.353 . S
C15 H71 0.930 . S
C16 N17 1.314 . S
C16 C21 1.353 . S
C16 H22 0.930 . S
N17 Li0 1.990 . S
N17 C16 1.314 . S
N17 C19 1.279 . S
C18 C19 1.358 . S
C18 C20 1.356 . S
C18 H72 0.930 . S
C19 N17 1.279 . S
C19 C18 1.358 . S
C19 H23 0.930 . S
C20 C18 1.356 . S
C20 C21 1.348 . S
C21 C16 1.353 . S
C21 C20 1.348 . S
C21 H73 0.929 . S
H22 C16 0.930 . S
H23 C19 0.930 . S
C24 N25 1.314 . S
C24 C26 1.353 . S
C24 H30 0.930 . S
N25 Li1 1.990 . S
N25 C24 1.314 . S
N25 C28 1.279 . S
C26 C24 1.353 . S
C26 C29 1.348 . S
C26 H74 0.929 . S
C27 C28 1.358 . S
C27 C29 1.356 . S
C27 H75 0.930 . S
C28 N25 1.279 . S
C28 C27 1.358 . S
C28 H31 0.930 . S
C29 C26 1.348 . S
C29 C27 1.356 . S
H30 C24 0.930 . S
H31 C28 0.930 . S
C32 C34 1.348 . S
C32 C35 1.356 . S
C32 O62 1.325 . S
N33 C36 1.314 . S
N33 C37 1.279 . S
C34 C32 1.348 . S
C34 C36 1.353 . S
C34 H76 0.929 . S
C35 C32 1.356 . S
C35 C37 1.358 . S
C35 H77 0.930 . S
C36 N33 1.314 . S
C36 C34 1.353 . S
C36 H78 0.930 . S
C37 N33 1.279 . S
C37 C35 1.358 . S
C37 H79 0.930 . S
C38 C39 1.348 . S
C38 C40 1.356 . S
C38 O63 1.325 . S
C39 C38 1.348 . S
C39 C41 1.353 . S
C39 H80 0.929 . S
C40 C38 1.356 . S
C40 C42 1.358 . S
C40 H81 0.930 . S
C41 C39 1.353 . S
C41 N43 1.314 . S
C41 H82 0.930 . S
C42 C40 1.358 . S
C42 N43 1.279 . S
C42 H83 0.930 . S
N43 C41 1.314 . S
N43 C42 1.279 . S
C44 C46 1.353 . S
C44 N47 1.314 . S
C44 H50 0.930 . S
C45 N47 1.279 . S
C45 C48 1.358 . S
C45 H51 0.930 . S
C46 C44 1.353 . S
C46 C49 1.348 . S
C46 H84 0.929 . S
N47 Li2 1.990 . S
N47 C44 1.314 . S
N47 C45 1.279 . S
C48 C45 1.358 . S
C48 C49 1.356 . S
C48 H85 0.930 . S
C49 C46 1.348 . S
C49 C48 1.356 . S
H50 C44 0.930 . S
H51 C45 0.930 . S
C52 N53 1.314 . S
C52 C54 1.353 . S
C52 H58 0.930 . S
N53 Li3 1.990 . S
N53 C52 1.314 . S
N53 C56 1.279 . S
C54 C52 1.353 . S
C54 C57 1.348 . S
C54 H86 0.929 . S
C55 C56 1.358 . S
C55 C57 1.356 . S
C55 H87 0.930 . S
C56 N53 1.279 . S
C56 C55 1.358 . S
C56 H59 0.930 . S
C57 C54 1.348 . S
C57 C55 1.356 . S
H58 C52 0.930 . S
H59 C56 0.930 . S
O60 Li0 1.956 . S
O60 Li1 1.970 . S
O60 Li2 1.961 . S
O60 C4 1.325 . S
O61 Li0 1.970 . S
O61 Li1 1.956 . S
O61 Li3 1.961 . S
O61 C10 1.325 . S
O62 Li0 1.961 . S
O62 Li2 1.956 . S
O62 Li3 1.970 . S
O62 C32 1.325 . S
O63 Li1 1.961 . S
O63 Li2 1.970 . S
O63 Li3 1.956 . S
O63 C38 1.325 . S
H64 C6 0.929 . S
H65 C7 0.930 . S
H66 C8 0.930 . S
H67 C9 0.930 . S
H68 C11 0.930 . S
H69 C13 0.929 . S
H70 C14 0.930 . S
H71 C15 0.930 . S
H72 C18 0.930 . S
H73 C21 0.929 . S
H74 C26 0.929 . S
H75 C27 0.930 . S
H76 C34 0.929 . S
H77 C35 0.930 . S
H78 C36 0.930 . S
H79 C37 0.930 . S
H80 C39 0.929 . S
H81 C40 0.930 . S
H82 C41 0.930 . S
H83 C42 0.930 . S
H84 C46 0.929 . S
H85 C48 0.930 . S
H86 C54 0.929 . S
H87 C55 0.930 . S
Li88 N105 1.990 . S
Li88 O148 1.956 . S
Li88 O149 1.970 . S
Li88 O150 1.961 . S
Li89 N113 1.990 . S
Li89 O148 1.970 . S
Li89 O149 1.956 . S
Li89 O151 1.961 . S
Li90 N135 1.990 . S
Li90 O148 1.961 . S
Li90 O150 1.956 . S
Li90 O151 1.970 . S
Li91 N141 1.990 . S
Li91 O149 1.961 . S
Li91 O150 1.970 . S
Li91 O151 1.956 . S
C92 C94 1.348 . S
C92 C95 1.356 . S
C92 O148 1.325 . S
N93 C96 1.314 . S
N93 C97 1.279 . S
C94 C92 1.348 . S
C94 C96 1.353 . S
C94 H152 0.929 . S
C95 C92 1.356 . S
C95 C97 1.358 . S
C95 H153 0.930 . S
C96 N93 1.314 . S
C96 C94 1.353 . S
C96 H154 0.930 . S
C97 N93 1.279 . S
C97 C95 1.358 . S
C97 H155 0.930 . S
C98 C101 1.348 . S
C98 C102 1.356 . S
C98 O149 1.325 . S
C99 N100 1.279 . S
C99 C102 1.358 . S
C99 H156 0.930 . S
N100 C99 1.279 . S
N100 C103 1.314 . S
C101 C98 1.348 . S
C101 C103 1.353 . S
C101 H157 0.929 . S
C102 C98 1.356 . S
C102 C99 1.358 . S
C102 H158 0.930 . S
C103 N100 1.314 . S
C103 C101 1.353 . S
C103 H159 0.930 . S
C104 N105 1.314 . S
C104 C109 1.353 . S
C104 H110 0.930 . S
N105 Li88 1.990 . S
N105 C104 1.314 . S
N105 C107 1.279 . S
C106 C107 1.358 . S
C106 C108 1.356 . S
C106 H160 0.930 . S
C107 N105 1.279 . S
C107 C106 1.358 . S
C107 H111 0.930 . S
C108 C106 1.356 . S
C108 C109 1.348 . S
C109 C104 1.353 . S
C109 C108 1.348 . S
C109 H161 0.929 . S
H110 C104 0.930 . S
H111 C107 0.930 . S
C112 N113 1.314 . S
C112 C114 1.353 . S
C112 H118 0.930 . S
N113 Li89 1.990 . S
N113 C112 1.314 . S
N113 C116 1.279 . S
C114 C112 1.353 . S
C114 C117 1.348 . S
C114 H162 0.929 . S
C115 C116 1.358 . S
C115 C117 1.356 . S
C115 H163 0.930 . S
C116 N113 1.279 . S
C116 C115 1.358 . S
C116 H119 0.930 . S
C117 C114 1.348 . S
C117 C115 1.356 . S
H118 C112 0.930 . S
H119 C116 0.930 . S
C120 C122 1.348 . S
C120 C123 1.356 . S
C120 O150 1.325 . S
N121 C124 1.314 . S
N121 C125 1.279 . S
C122 C120 1.348 . S
C122 C124 1.353 . S
C122 H164 0.929 . S
C123 C120 1.356 . S
C123 C125 1.358 . S
C123 H165 0.930 . S
C124 N121 1.314 . S
C124 C122 1.353 . S
C124 H166 0.930 . S
C125 N121 1.279 . S
C125 C123 1.358 . S
C125 H167 0.930 . S
C126 C127 1.348 . S
C126 C128 1.356 . S
C126 O151 1.325 . S
C127 C126 1.348 . S
C127 C129 1.353 . S
C127 H168 0.929 . S
C128 C126 1.356 . S
C128 C130 1.358 . S
C128 H169 0.930 . S
C129 C127 1.353 . S
C129 N131 1.314 . S
C129 H170 0.930 . S
C130 C128 1.358 . S
C130 N131 1.279 . S
C130 H171 0.930 . S
N131 C129 1.314 . S
N131 C130 1.279 . S
C132 C134 1.353 . S
C132 N135 1.314 . S
C132 H138 0.930 . S
C133 N135 1.279 . S
C133 C136 1.358 . S
C133 H139 0.930 . S
C134 C132 1.353 . S
C134 C137 1.348 . S
C134 H172 0.929 . S
N135 Li90 1.990 . S
N135 C132 1.314 . S
N135 C133 1.279 . S
C136 C133 1.358 . S
C136 C137 1.356 . S
C136 H173 0.930 . S
C137 C134 1.348 . S
C137 C136 1.356 . S
H138 C132 0.930 . S
H139 C133 0.930 . S
C140 N141 1.314 . S
C140 C142 1.353 . S
C140 H146 0.930 . S
N141 Li91 1.990 . S
N141 C140 1.314 . S
N141 C144 1.279 . S
C142 C140 1.353 . S
C142 C145 1.348 . S
C142 H174 0.929 . S
C143 C144 1.358 . S
C143 C145 1.356 . S
C143 H175 0.930 . S
C144 N141 1.279 . S
C144 C143 1.358 . S
C144 H147 0.930 . S
C145 C142 1.348 . S
C145 C143 1.356 . S
H146 C140 0.930 . S
H147 C144 0.930 . S
O148 Li88 1.956 . S
O148 Li89 1.970 . S
O148 Li90 1.961 . S
O148 C92 1.325 . S
O149 Li88 1.970 . S
O149 Li89 1.956 . S
O149 Li91 1.961 . S
O149 C98 1.325 . S
O150 Li88 1.961 . S
O150 Li90 1.956 . S
O150 Li91 1.970 . S
O150 C120 1.325 . S
O151 Li89 1.961 . S
O151 Li90 1.970 . S
O151 Li91 1.956 . S
O151 C126 1.325 . S
H152 C94 0.929 . S
H153 C95 0.930 . S
H154 C96 0.930 . S
H155 C97 0.930 . S
H156 C99 0.930 . S
H157 C101 0.929 . S
H158 C102 0.930 . S
H159 C103 0.930 . S
H160 C106 0.930 . S
H161 C109 0.929 . S
H162 C114 0.929 . S
H163 C115 0.930 . S
H164 C122 0.929 . S
H165 C123 0.930 . S
H166 C124 0.930 . S
H167 C125 0.930 . S
H168 C127 0.929 . S
H169 C128 0.930 . S
H170 C129 0.930 . S
H171 C130 0.930 . S
H172 C134 0.929 . S
H173 C136 0.930 . S
H174 C142 0.929 . S
H175 C143 0.930 . S
Li176 N193 1.990 . S
Li176 O236 1.956 . S
Li176 O237 1.970 . S
Li176 O238 1.961 . S
Li177 N201 1.990 . S
Li177 O236 1.970 . S
Li177 O237 1.956 . S
Li177 O239 1.961 . S
Li178 N223 1.990 . S
Li178 O236 1.961 . S
Li178 O238 1.956 . S
Li178 O239 1.970 . S
Li179 N229 1.990 . S
Li179 O237 1.961 . S
Li179 O238 1.970 . S
Li179 O239 1.956 . S
C180 C182 1.348 . S
C180 C183 1.356 . S
C180 O236 1.325 . S
N181 C184 1.314 . S
N181 C185 1.279 . S
C182 C180 1.348 . S
C182 C184 1.353 . S
C182 H240 0.929 . S
C183 C180 1.356 . S
C183 C185 1.358 . S
C183 H241 0.930 . S
C184 N181 1.314 . S
C184 C182 1.353 . S
C184 H242 0.930 . S
C185 N181 1.279 . S
C185 C183 1.358 . S
C185 H243 0.930 . S
C186 C189 1.348 . S
C186 C190 1.356 . S
C186 O237 1.325 . S
C187 N188 1.279 . S
C187 C190 1.358 . S
C187 H244 0.930 . S
N188 C187 1.279 . S
N188 C191 1.314 . S
C189 C186 1.348 . S
C189 C191 1.353 . S
C189 H245 0.929 . S
C190 C186 1.356 . S
C190 C187 1.358 . S
C190 H246 0.930 . S
C191 N188 1.314 . S
C191 C189 1.353 . S
C191 H247 0.930 . S
C192 N193 1.314 . S
C192 C197 1.353 . S
C192 H198 0.930 . S
N193 Li176 1.990 . S
N193 C192 1.314 . S
N193 C195 1.279 . S
C194 C195 1.358 . S
C194 C196 1.356 . S
C194 H248 0.930 . S
C195 N193 1.279 . S
C195 C194 1.358 . S
C195 H199 0.930 . S
C196 C194 1.356 . S
C196 C197 1.348 . S
C197 C192 1.353 . S
C197 C196 1.348 . S
C197 H249 0.929 . S
H198 C192 0.930 . S
H199 C195 0.930 . S
C200 N201 1.314 . S
C200 C202 1.353 . S
C200 H206 0.930 . S
N201 Li177 1.990 . S
N201 C200 1.314 . S
N201 C204 1.279 . S
C202 C200 1.353 . S
C202 C205 1.348 . S
C202 H250 0.929 . S
C203 C204 1.358 . S
C203 C205 1.356 . S
C203 H251 0.930 . S
C204 N201 1.279 . S
C204 C203 1.358 . S
C204 H207 0.930 . S
C205 C202 1.348 . S
C205 C203 1.356 . S
H206 C200 0.930 . S
H207 C204 0.930 . S
C208 C210 1.348 . S
C208 C211 1.356 . S
C208 O238 1.325 . S
N209 C212 1.314 . S
N209 C213 1.279 . S
C210 C208 1.348 . S
C210 C212 1.353 . S
C210 H252 0.929 . S
C211 C208 1.356 . S
C211 C213 1.358 . S
C211 H253 0.930 . S
C212 N209 1.314 . S
C212 C210 1.353 . S
C212 H254 0.930 . S
C213 N209 1.279 . S
C213 C211 1.358 . S
C213 H255 0.930 . S
C214 C215 1.348 . S
C214 C216 1.356 . S
C214 O239 1.325 . S
C215 C214 1.348 . S
C215 C217 1.353 . S
C215 H256 0.929 . S
C216 C214 1.356 . S
C216 C218 1.358 . S
C216 H257 0.930 . S
C217 C215 1.353 . S
C217 N219 1.314 . S
C217 H258 0.930 . S
C218 C216 1.358 . S
C218 N219 1.279 . S
C218 H259 0.930 . S
N219 C217 1.314 . S
N219 C218 1.279 . S
C220 C222 1.353 . S
C220 N223 1.314 . S
C220 H226 0.930 . S
C221 N223 1.279 . S
C221 C224 1.358 . S
C221 H227 0.930 . S
C222 C220 1.353 . S
C222 C225 1.348 . S
C222 H260 0.929 . S
N223 Li178 1.990 . S
N223 C220 1.314 . S
N223 C221 1.279 . S
C224 C221 1.358 . S
C224 C225 1.356 . S
C224 H261 0.930 . S
C225 C222 1.348 . S
C225 C224 1.356 . S
H226 C220 0.930 . S
H227 C221 0.930 . S
C228 N229 1.314 . S
C228 C230 1.353 . S
C228 H234 0.930 . S
N229 Li179 1.990 . S
N229 C228 1.314 . S
N229 C232 1.279 . S
C230 C228 1.353 . S
C230 C233 1.348 . S
C230 H262 0.929 . S
C231 C232 1.358 . S
C231 C233 1.356 . S
C231 H263 0.930 . S
C232 N229 1.279 . S
C232 C231 1.358 . S
C232 H235 0.930 . S
C233 C230 1.348 . S
C233 C231 1.356 . S
H234 C228 0.930 . S
H235 C232 0.930 . S
O236 Li176 1.956 . S
O236 Li177 1.970 . S
O236 Li178 1.961 . S
O236 C180 1.325 . S
O237 Li176 1.970 . S
O237 Li177 1.956 . S
O237 Li179 1.961 . S
O237 C186 1.325 . S
O238 Li176 1.961 . S
O238 Li178 1.956 . S
O238 Li179 1.970 . S
O238 C208 1.325 . S
O239 Li177 1.961 . S
O239 Li178 1.970 . S
O239 Li179 1.956 . S
O239 C214 1.325 . S
H240 C182 0.929 . S
H241 C183 0.930 . S
H242 C184 0.930 . S
H243 C185 0.930 . S
H244 C187 0.930 . S
H245 C189 0.929 . S
H246 C190 0.930 . S
H247 C191 0.930 . S
H248 C194 0.930 . S
H249 C197 0.929 . S
H250 C202 0.929 . S
H251 C203 0.930 . S
H252 C210 0.929 . S
H253 C211 0.930 . S
H254 C212 0.930 . S
H255 C213 0.930 . S
H256 C215 0.929 . S
H257 C216 0.930 . S
H258 C217 0.930 . S
H259 C218 0.930 . S
H260 C222 0.929 . S
H261 C224 0.930 . S
H262 C230 0.929 . S
H263 C231 0.930 . S
Li264 N281 1.990 . S
Li264 O324 1.956 . S
Li264 O325 1.970 . S
Li264 O326 1.961 . S
Li265 N289 1.990 . S
Li265 O324 1.970 . S
Li265 O325 1.956 . S
Li265 O327 1.961 . S
Li266 N311 1.990 . S
Li266 O324 1.961 . S
Li266 O326 1.956 . S
Li266 O327 1.970 . S
Li267 N317 1.990 . S
Li267 O325 1.961 . S
Li267 O326 1.970 . S
Li267 O327 1.956 . S
C268 C270 1.348 . S
C268 C271 1.356 . S
C268 O324 1.325 . S
N269 C272 1.314 . S
N269 C273 1.279 . S
C270 C268 1.348 . S
C270 C272 1.353 . S
C270 H328 0.929 . S
C271 C268 1.356 . S
C271 C273 1.358 . S
C271 H329 0.930 . S
C272 N269 1.314 . S
C272 C270 1.353 . S
C272 H330 0.930 . S
C273 N269 1.279 . S
C273 C271 1.358 . S
C273 H331 0.930 . S
C274 C277 1.348 . S
C274 C278 1.356 . S
C274 O325 1.325 . S
C275 N276 1.279 . S
C275 C278 1.358 . S
C275 H332 0.930 . S
N276 C275 1.279 . S
N276 C279 1.314 . S
C277 C274 1.348 . S
C277 C279 1.353 . S
C277 H333 0.929 . S
C278 C274 1.356 . S
C278 C275 1.358 . S
C278 H334 0.930 . S
C279 N276 1.314 . S
C279 C277 1.353 . S
C279 H335 0.930 . S
C280 N281 1.314 . S
C280 C285 1.353 . S
C280 H286 0.930 . S
N281 Li264 1.990 . S
N281 C280 1.314 . S
N281 C283 1.279 . S
C282 C283 1.358 . S
C282 C284 1.356 . S
C282 H336 0.930 . S
C283 N281 1.279 . S
C283 C282 1.358 . S
C283 H287 0.930 . S
C284 C282 1.356 . S
C284 C285 1.348 . S
C285 C280 1.353 . S
C285 C284 1.348 . S
C285 H337 0.929 . S
H286 C280 0.930 . S
H287 C283 0.930 . S
C288 N289 1.314 . S
C288 C290 1.353 . S
C288 H294 0.930 . S
N289 Li265 1.990 . S
N289 C288 1.314 . S
N289 C292 1.279 . S
C290 C288 1.353 . S
C290 C293 1.348 . S
C290 H338 0.929 . S
C291 C292 1.358 . S
C291 C293 1.356 . S
C291 H339 0.930 . S
C292 N289 1.279 . S
C292 C291 1.358 . S
C292 H295 0.930 . S
C293 C290 1.348 . S
C293 C291 1.356 . S
H294 C288 0.930 . S
H295 C292 0.930 . S
C296 C298 1.348 . S
C296 C299 1.356 . S
C296 O326 1.325 . S
N297 C300 1.314 . S
N297 C301 1.279 . S
C298 C296 1.348 . S
C298 C300 1.353 . S
C298 H340 0.929 . S
C299 C296 1.356 . S
C299 C301 1.358 . S
C299 H341 0.930 . S
C300 N297 1.314 . S
C300 C298 1.353 . S
C300 H342 0.930 . S
C301 N297 1.279 . S
C301 C299 1.358 . S
C301 H343 0.930 . S
C302 C303 1.348 . S
C302 C304 1.356 . S
C302 O327 1.325 . S
C303 C302 1.348 . S
C303 C305 1.353 . S
C303 H344 0.929 . S
C304 C302 1.356 . S
C304 C306 1.358 . S
C304 H345 0.930 . S
C305 C303 1.353 . S
C305 N307 1.314 . S
C305 H346 0.930 . S
C306 C304 1.358 . S
C306 N307 1.279 . S
C306 H347 0.930 . S
N307 C305 1.314 . S
N307 C306 1.279 . S
C308 C310 1.353 . S
C308 N311 1.314 . S
C308 H314 0.930 . S
C309 N311 1.279 . S
C309 C312 1.358 . S
C309 H315 0.930 . S
C310 C308 1.353 . S
C310 C313 1.348 . S
C310 H348 0.929 . S
N311 Li266 1.990 . S
N311 C308 1.314 . S
N311 C309 1.279 . S
C312 C309 1.358 . S
C312 C313 1.356 . S
C312 H349 0.930 . S
C313 C310 1.348 . S
C313 C312 1.356 . S
H314 C308 0.930 . S
H315 C309 0.930 . S
C316 N317 1.314 . S
C316 C318 1.353 . S
C316 H322 0.930 . S
N317 Li267 1.990 . S
N317 C316 1.314 . S
N317 C320 1.279 . S
C318 C316 1.353 . S
C318 C321 1.348 . S
C318 H350 0.929 . S
C319 C320 1.358 . S
C319 C321 1.356 . S
C319 H351 0.930 . S
C320 N317 1.279 . S
C320 C319 1.358 . S
C320 H323 0.930 . S
C321 C318 1.348 . S
C321 C319 1.356 . S
H322 C316 0.930 . S
H323 C320 0.930 . S
O324 Li264 1.956 . S
O324 Li265 1.970 . S
O324 Li266 1.961 . S
O324 C268 1.325 . S
O325 Li264 1.970 . S
O325 Li265 1.956 . S
O325 Li267 1.961 . S
O325 C274 1.325 . S
O326 Li264 1.961 . S
O326 Li266 1.956 . S
O326 Li267 1.970 . S
O326 C296 1.325 . S
O327 Li265 1.961 . S
O327 Li266 1.970 . S
O327 Li267 1.956 . S
O327 C302 1.325 . S
H328 C270 0.929 . S
H329 C271 0.930 . S
H330 C272 0.930 . S
H331 C273 0.930 . S
H332 C275 0.930 . S
H333 C277 0.929 . S
H334 C278 0.930 . S
H335 C279 0.930 . S
H336 C282 0.930 . S
H337 C285 0.929 . S
H338 C290 0.929 . S
H339 C291 0.930 . S
H340 C298 0.929 . S
H341 C299 0.930 . S
H342 C300 0.930 . S
H343 C301 0.930 . S
H344 C303 0.929 . S
H345 C304 0.930 . S
H346 C305 0.930 . S
H347 C306 0.930 . S
H348 C310 0.929 . S
H349 C312 0.930 . S
H350 C318 0.929 . S
H351 C319 0.930 . S
Li352 N369 1.990 . S
Li352 O412 1.956 . S
Li352 O413 1.970 . S
Li352 O414 1.961 . S
Li353 N377 1.990 . S
Li353 O412 1.970 . S
Li353 O413 1.956 . S
Li353 O415 1.961 . S
Li354 N399 1.990 . S
Li354 O412 1.961 . S
Li354 O414 1.956 . S
Li354 O415 1.970 . S
Li355 N405 1.990 . S
Li355 O413 1.961 . S
Li355 O414 1.970 . S
Li355 O415 1.956 . S
C356 C358 1.348 . S
C356 C359 1.356 . S
C356 O412 1.325 . S
N357 C360 1.314 . S
N357 C361 1.279 . S
C358 C356 1.348 . S
C358 C360 1.353 . S
C358 H416 0.929 . S
C359 C356 1.356 . S
C359 C361 1.358 . S
C359 H417 0.930 . S
C360 N357 1.314 . S
C360 C358 1.353 . S
C360 H418 0.930 . S
C361 N357 1.279 . S
C361 C359 1.358 . S
C361 H419 0.930 . S
C362 C365 1.348 . S
C362 C366 1.356 . S
C362 O413 1.325 . S
C363 N364 1.279 . S
C363 C366 1.358 . S
C363 H420 0.930 . S
N364 C363 1.279 . S
N364 C367 1.314 . S
C365 C362 1.348 . S
C365 C367 1.353 . S
C365 H421 0.929 . S
C366 C362 1.356 . S
C366 C363 1.358 . S
C366 H422 0.930 . S
C367 N364 1.314 . S
C367 C365 1.353 . S
C367 H423 0.930 . S
C368 N369 1.314 . S
C368 C373 1.353 . S
C368 H374 0.930 . S
N369 Li352 1.990 . S
N369 C368 1.314 . S
N369 C371 1.279 . S
C370 C371 1.358 . S
C370 C372 1.356 . S
C370 H424 0.930 . S
C371 N369 1.279 . S
C371 C370 1.358 . S
C371 H375 0.930 . S
C372 C370 1.356 . S
C372 C373 1.348 . S
C373 C368 1.353 . S
C373 C372 1.348 . S
C373 H425 0.929 . S
H374 C368 0.930 . S
H375 C371 0.930 . S
C376 N377 1.314 . S
C376 C378 1.353 . S
C376 H382 0.930 . S
N377 Li353 1.990 . S
N377 C376 1.314 . S
N377 C380 1.279 . S
C378 C376 1.353 . S
C378 C381 1.348 . S
C378 H426 0.929 . S
C379 C380 1.358 . S
C379 C381 1.356 . S
C379 H427 0.930 . S
C380 N377 1.279 . S
C380 C379 1.358 . S
C380 H383 0.930 . S
C381 C378 1.348 . S
C381 C379 1.356 . S
H382 C376 0.930 . S
H383 C380 0.930 . S
C384 C386 1.348 . S
C384 C387 1.356 . S
C384 O414 1.325 . S
N385 C388 1.314 . S
N385 C389 1.279 . S
C386 C384 1.348 . S
C386 C388 1.353 . S
C386 H428 0.929 . S
C387 C384 1.356 . S
C387 C389 1.358 . S
C387 H429 0.930 . S
C388 N385 1.314 . S
C388 C386 1.353 . S
C388 H430 0.930 . S
C389 N385 1.279 . S
C389 C387 1.358 . S
C389 H431 0.930 . S
C390 C391 1.348 . S
C390 C392 1.356 . S
C390 O415 1.325 . S
C391 C390 1.348 . S
C391 C393 1.353 . S
C391 H432 0.929 . S
C392 C390 1.356 . S
C392 C394 1.358 . S
C392 H433 0.930 . S
C393 C391 1.353 . S
C393 N395 1.314 . S
C393 H434 0.930 . S
C394 C392 1.358 . S
C394 N395 1.279 . S
C394 H435 0.930 . S
N395 C393 1.314 . S
N395 C394 1.279 . S
C396 C398 1.353 . S
C396 N399 1.314 . S
C396 H402 0.930 . S
C397 N399 1.279 . S
C397 C400 1.358 . S
C397 H403 0.930 . S
C398 C396 1.353 . S
C398 C401 1.348 . S
C398 H436 0.929 . S
N399 Li354 1.990 . S
N399 C396 1.314 . S
N399 C397 1.279 . S
C400 C397 1.358 . S
C400 C401 1.356 . S
C400 H437 0.930 . S
C401 C398 1.348 . S
C401 C400 1.356 . S
H402 C396 0.930 . S
H403 C397 0.930 . S
C404 N405 1.314 . S
C404 C406 1.353 . S
C404 H410 0.930 . S
N405 Li355 1.990 . S
N405 C404 1.314 . S
N405 C408 1.279 . S
C406 C404 1.353 . S
C406 C409 1.348 . S
C406 H438 0.929 . S
C407 C408 1.358 . S
C407 C409 1.356 . S
C407 H439 0.930 . S
C408 N405 1.279 . S
C408 C407 1.358 . S
C408 H411 0.930 . S
C409 C406 1.348 . S
C409 C407 1.356 . S
H410 C404 0.930 . S
H411 C408 0.930 . S
O412 Li352 1.956 . S
O412 Li353 1.970 . S
O412 Li354 1.961 . S
O412 C356 1.325 . S
O413 Li352 1.970 . S
O413 Li353 1.956 . S
O413 Li355 1.961 . S
O413 C362 1.325 . S
O414 Li352 1.961 . S
O414 Li354 1.956 . S
O414 Li355 1.970 . S
O414 C384 1.325 . S
O415 Li353 1.961 . S
O415 Li354 1.970 . S
O415 Li355 1.956 . S
O415 C390 1.325 . S
H416 C358 0.929 . S
H417 C359 0.930 . S
H418 C360 0.930 . S
H419 C361 0.930 . S
H420 C363 0.930 . S
H421 C365 0.929 . S
H422 C366 0.930 . S
H423 C367 0.930 . S
H424 C370 0.930 . S
H425 C373 0.929 . S
H426 C378 0.929 . S
H427 C379 0.930 . S
H428 C386 0.929 . S
H429 C387 0.930 . S
H430 C388 0.930 . S
H431 C389 0.930 . S
H432 C391 0.929 . S
H433 C392 0.930 . S
H434 C393 0.930 . S
H435 C394 0.930 . S
H436 C398 0.929 . S
H437 C400 0.930 . S
H438 C406 0.929 . S
H439 C407 0.930 . S
Li440 N457 1.990 . S
Li440 O500 1.956 . S
Li440 O501 1.970 . S
Li440 O502 1.961 . S
Li441 N465 1.990 . S
Li441 O500 1.970 . S
Li441 O501 1.956 . S
Li441 O503 1.961 . S
Li442 N487 1.990 . S
Li442 O500 1.961 . S
Li442 O502 1.956 . S
Li442 O503 1.970 . S
Li443 N493 1.990 . S
Li443 O501 1.961 . S
Li443 O502 1.970 . S
Li443 O503 1.956 . S
C444 C446 1.348 . S
C444 C447 1.356 . S
C444 O500 1.325 . S
N445 C448 1.314 . S
N445 C449 1.279 . S
C446 C444 1.348 . S
C446 C448 1.353 . S
C446 H504 0.929 . S
C447 C444 1.356 . S
C447 C449 1.358 . S
C447 H505 0.930 . S
C448 N445 1.314 . S
C448 C446 1.353 . S
C448 H506 0.930 . S
C449 N445 1.279 . S
C449 C447 1.358 . S
C449 H507 0.930 . S
C450 C453 1.348 . S
C450 C454 1.356 . S
C450 O501 1.325 . S
C451 N452 1.279 . S
C451 C454 1.358 . S
C451 H508 0.930 . S
N452 C451 1.279 . S
N452 C455 1.314 . S
C453 C450 1.348 . S
C453 C455 1.353 . S
C453 H509 0.929 . S
C454 C450 1.356 . S
C454 C451 1.358 . S
C454 H510 0.930 . S
C455 N452 1.314 . S
C455 C453 1.353 . S
C455 H511 0.930 . S
C456 N457 1.314 . S
C456 C461 1.353 . S
C456 H462 0.930 . S
N457 Li440 1.990 . S
N457 C456 1.314 . S
N457 C459 1.279 . S
C458 C459 1.358 . S
C458 C460 1.356 . S
C458 H512 0.930 . S
C459 N457 1.279 . S
C459 C458 1.358 . S
C459 H463 0.930 . S
C460 C458 1.356 . S
C460 C461 1.348 . S
C461 C456 1.353 . S
C461 C460 1.348 . S
C461 H513 0.929 . S
H462 C456 0.930 . S
H463 C459 0.930 . S
C464 N465 1.314 . S
C464 C466 1.353 . S
C464 H470 0.930 . S
N465 Li441 1.990 . S
N465 C464 1.314 . S
N465 C468 1.279 . S
C466 C464 1.353 . S
C466 C469 1.348 . S
C466 H514 0.929 . S
C467 C468 1.358 . S
C467 C469 1.356 . S
C467 H515 0.930 . S
C468 N465 1.279 . S
C468 C467 1.358 . S
C468 H471 0.930 . S
C469 C466 1.348 . S
C469 C467 1.356 . S
H470 C464 0.930 . S
H471 C468 0.930 . S
C472 C474 1.348 . S
C472 C475 1.356 . S
C472 O502 1.325 . S
N473 C476 1.314 . S
N473 C477 1.279 . S
C474 C472 1.348 . S
C474 C476 1.353 . S
C474 H516 0.929 . S
C475 C472 1.356 . S
C475 C477 1.358 . S
C475 H517 0.930 . S
C476 N473 1.314 . S
C476 C474 1.353 . S
C476 H518 0.930 . S
C477 N473 1.279 . S
C477 C475 1.358 . S
C477 H519 0.930 . S
C478 C479 1.348 . S
C478 C480 1.356 . S
C478 O503 1.325 . S
C479 C478 1.348 . S
C479 C481 1.353 . S
C479 H520 0.929 . S
C480 C478 1.356 . S
C480 C482 1.358 . S
C480 H521 0.930 . S
C481 C479 1.353 . S
C481 N483 1.314 . S
C481 H522 0.930 . S
C482 C480 1.358 . S
C482 N483 1.279 . S
C482 H523 0.930 . S
N483 C481 1.314 . S
N483 C482 1.279 . S
C484 C486 1.353 . S
C484 N487 1.314 . S
C484 H490 0.930 . S
C485 N487 1.279 . S
C485 C488 1.358 . S
C485 H491 0.930 . S
C486 C484 1.353 . S
C486 C489 1.348 . S
C486 H524 0.929 . S
N487 Li442 1.990 . S
N487 C484 1.314 . S
N487 C485 1.279 . S
C488 C485 1.358 . S
C488 C489 1.356 . S
C488 H525 0.930 . S
C489 C486 1.348 . S
C489 C488 1.356 . S
H490 C484 0.930 . S
H491 C485 0.930 . S
C492 N493 1.314 . S
C492 C494 1.353 . S
C492 H498 0.930 . S
N493 Li443 1.990 . S
N493 C492 1.314 . S
N493 C496 1.279 . S
C494 C492 1.353 . S
C494 C497 1.348 . S
C494 H526 0.929 . S
C495 C496 1.358 . S
C495 C497 1.356 . S
C495 H527 0.930 . S
C496 N493 1.279 . S
C496 C495 1.358 . S
C496 H499 0.930 . S
C497 C494 1.348 . S
C497 C495 1.356 . S
H498 C492 0.930 . S
H499 C496 0.930 . S
O500 Li440 1.956 . S
O500 Li441 1.970 . S
O500 Li442 1.961 . S
O500 C444 1.325 . S
O501 Li440 1.970 . S
O501 Li441 1.956 . S
O501 Li443 1.961 . S
O501 C450 1.325 . S
O502 Li440 1.961 . S
O502 Li442 1.956 . S
O502 Li443 1.970 . S
O502 C472 1.325 . S
O503 Li441 1.961 . S
O503 Li442 1.970 . S
O503 Li443 1.956 . S
O503 C478 1.325 . S
H504 C446 0.929 . S
H505 C447 0.930 . S
H506 C448 0.930 . S
H507 C449 0.930 . S
H508 C451 0.930 . S
H509 C453 0.929 . S
H510 C454 0.930 . S
H511 C455 0.930 . S
H512 C458 0.930 . S
H513 C461 0.929 . S
H514 C466 0.929 . S
H515 C467 0.930 . S
H516 C474 0.929 . S
H517 C475 0.930 . S
H518 C476 0.930 . S
H519 C477 0.930 . S
H520 C479 0.929 . S
H521 C480 0.930 . S
H522 C481 0.930 . S
H523 C482 0.930 . S
H524 C486 0.929 . S
H525 C488 0.930 . S
H526 C494 0.929 . S
H527 C495 0.930 . S
Li528 N545 1.990 . S
Li528 O588 1.956 . S
Li528 O589 1.970 . S
Li528 O590 1.961 . S
Li529 N553 1.990 . S
Li529 O588 1.970 . S
Li529 O589 1.956 . S
Li529 O591 1.961 . S
Li530 N575 1.990 . S
Li530 O588 1.961 . S
Li530 O590 1.956 . S
Li530 O591 1.970 . S
Li531 N581 1.990 . S
Li531 O589 1.961 . S
Li531 O590 1.970 . S
Li531 O591 1.956 . S
C532 C534 1.348 . S
C532 C535 1.356 . S
C532 O588 1.325 . S
N533 C536 1.314 . S
N533 C537 1.279 . S
C534 C532 1.348 . S
C534 C536 1.353 . S
C534 H592 0.929 . S
C535 C532 1.356 . S
C535 C537 1.358 . S
C535 H593 0.930 . S
C536 N533 1.314 . S
C536 C534 1.353 . S
C536 H594 0.930 . S
C537 N533 1.279 . S
C537 C535 1.358 . S
C537 H595 0.930 . S
C538 C541 1.348 . S
C538 C542 1.356 . S
C538 O589 1.325 . S
C539 N540 1.279 . S
C539 C542 1.358 . S
C539 H596 0.930 . S
N540 C539 1.279 . S
N540 C543 1.314 . S
C541 C538 1.348 . S
C541 C543 1.353 . S
C541 H597 0.929 . S
C542 C538 1.356 . S
C542 C539 1.358 . S
C542 H598 0.930 . S
C543 N540 1.314 . S
C543 C541 1.353 . S
C543 H599 0.930 . S
C544 N545 1.314 . S
C544 C549 1.353 . S
C544 H550 0.930 . S
N545 Li528 1.990 . S
N545 C544 1.314 . S
N545 C547 1.279 . S
C546 C547 1.358 . S
C546 C548 1.356 . S
C546 H600 0.930 . S
C547 N545 1.279 . S
C547 C546 1.358 . S
C547 H551 0.930 . S
C548 C546 1.356 . S
C548 C549 1.348 . S
C549 C544 1.353 . S
C549 C548 1.348 . S
C549 H601 0.929 . S
H550 C544 0.930 . S
H551 C547 0.930 . S
C552 N553 1.314 . S
C552 C554 1.353 . S
C552 H558 0.930 . S
N553 Li529 1.990 . S
N553 C552 1.314 . S
N553 C556 1.279 . S
C554 C552 1.353 . S
C554 C557 1.348 . S
C554 H602 0.929 . S
C555 C556 1.358 . S
C555 C557 1.356 . S
C555 H603 0.930 . S
C556 N553 1.279 . S
C556 C555 1.358 . S
C556 H559 0.930 . S
C557 C554 1.348 . S
C557 C555 1.356 . S
H558 C552 0.930 . S
H559 C556 0.930 . S
C560 C562 1.348 . S
C560 C563 1.356 . S
C560 O590 1.325 . S
N561 C564 1.314 . S
N561 C565 1.279 . S
C562 C560 1.348 . S
C562 C564 1.353 . S
C562 H604 0.929 . S
C563 C560 1.356 . S
C563 C565 1.358 . S
C563 H605 0.930 . S
C564 N561 1.314 . S
C564 C562 1.353 . S
C564 H606 0.930 . S
C565 N561 1.279 . S
C565 C563 1.358 . S
C565 H607 0.930 . S
C566 C567 1.348 . S
C566 C568 1.356 . S
C566 O591 1.325 . S
C567 C566 1.348 . S
C567 C569 1.353 . S
C567 H608 0.929 . S
C568 C566 1.356 . S
C568 C570 1.358 . S
C568 H609 0.930 . S
C569 C567 1.353 . S
C569 N571 1.314 . S
C569 H610 0.930 . S
C570 C568 1.358 . S
C570 N571 1.279 . S
C570 H611 0.930 . S
N571 C569 1.314 . S
N571 C570 1.279 . S
C572 C574 1.353 . S
C572 N575 1.314 . S
C572 H578 0.930 . S
C573 N575 1.279 . S
C573 C576 1.358 . S
C573 H579 0.930 . S
C574 C572 1.353 . S
C574 C577 1.348 . S
C574 H612 0.929 . S
N575 Li530 1.990 . S
N575 C572 1.314 . S
N575 C573 1.279 . S
C576 C573 1.358 . S
C576 C577 1.356 . S
C576 H613 0.930 . S
C577 C574 1.348 . S
C577 C576 1.356 . S
H578 C572 0.930 . S
H579 C573 0.930 . S
C580 N581 1.314 . S
C580 C582 1.353 . S
C580 H586 0.930 . S
N581 Li531 1.990 . S
N581 C580 1.314 . S
N581 C584 1.279 . S
C582 C580 1.353 . S
C582 C585 1.348 . S
C582 H614 0.929 . S
C583 C584 1.358 . S
C583 C585 1.356 . S
C583 H615 0.930 . S
C584 N581 1.279 . S
C584 C583 1.358 . S
C584 H587 0.930 . S
C585 C582 1.348 . S
C585 C583 1.356 . S
H586 C580 0.930 . S
H587 C584 0.930 . S
O588 Li528 1.956 . S
O588 Li529 1.970 . S
O588 Li530 1.961 . S
O588 C532 1.325 . S
O589 Li528 1.970 . S
O589 Li529 1.956 . S
O589 Li531 1.961 . S
O589 C538 1.325 . S
O590 Li528 1.961 . S
O590 Li530 1.956 . S
O590 Li531 1.970 . S
O590 C560 1.325 . S
O591 Li529 1.961 . S
O591 Li530 1.970 . S
O591 Li531 1.956 . S
O591 C566 1.325 . S
H592 C534 0.929 . S
H593 C535 0.930 . S
H594 C536 0.930 . S
H595 C537 0.930 . S
H596 C539 0.930 . S
H597 C541 0.929 . S
H598 C542 0.930 . S
H599 C543 0.930 . S
H600 C546 0.930 . S
H601 C549 0.929 . S
H602 C554 0.929 . S
H603 C555 0.930 . S
H604 C562 0.929 . S
H605 C563 0.930 . S
H606 C564 0.930 . S
H607 C565 0.930 . S
H608 C567 0.929 . S
H609 C568 0.930 . S
H610 C569 0.930 . S
H611 C570 0.930 . S
H612 C574 0.929 . S
H613 C576 0.930 . S
H614 C582 0.929 . S
H615 C583 0.930 . S
Li616 N633 1.990 . S
Li616 O676 1.956 . S
Li616 O677 1.970 . S
Li616 O678 1.961 . S
Li617 N641 1.990 . S
Li617 O676 1.970 . S
Li617 O677 1.956 . S
Li617 O679 1.961 . S
Li618 N663 1.990 . S
Li618 O676 1.961 . S
Li618 O678 1.956 . S
Li618 O679 1.970 . S
Li619 N669 1.990 . S
Li619 O677 1.961 . S
Li619 O678 1.970 . S
Li619 O679 1.956 . S
C620 C622 1.348 . S
C620 C623 1.356 . S
C620 O676 1.325 . S
N621 C624 1.314 . S
N621 C625 1.279 . S
C622 C620 1.348 . S
C622 C624 1.353 . S
C622 H680 0.929 . S
C623 C620 1.356 . S
C623 C625 1.358 . S
C623 H681 0.930 . S
C624 N621 1.314 . S
C624 C622 1.353 . S
C624 H682 0.930 . S
C625 N621 1.279 . S
C625 C623 1.358 . S
C625 H683 0.930 . S
C626 C629 1.348 . S
C626 C630 1.356 . S
C626 O677 1.325 . S
C627 N628 1.279 . S
C627 C630 1.358 . S
C627 H684 0.930 . S
N628 C627 1.279 . S
N628 C631 1.314 . S
C629 C626 1.348 . S
C629 C631 1.353 . S
C629 H685 0.929 . S
C630 C626 1.356 . S
C630 C627 1.358 . S
C630 H686 0.930 . S
C631 N628 1.314 . S
C631 C629 1.353 . S
C631 H687 0.930 . S
C632 N633 1.314 . S
C632 C637 1.353 . S
C632 H638 0.930 . S
N633 Li616 1.990 . S
N633 C632 1.314 . S
N633 C635 1.279 . S
C634 C635 1.358 . S
C634 C636 1.356 . S
C634 H688 0.930 . S
C635 N633 1.279 . S
C635 C634 1.358 . S
C635 H639 0.930 . S
C636 C634 1.356 . S
C636 C637 1.348 . S
C637 C632 1.353 . S
C637 C636 1.348 . S
C637 H689 0.929 . S
H638 C632 0.930 . S
H639 C635 0.930 . S
C640 N641 1.314 . S
C640 C642 1.353 . S
C640 H646 0.930 . S
N641 Li617 1.990 . S
N641 C640 1.314 . S
N641 C644 1.279 . S
C642 C640 1.353 . S
C642 C645 1.348 . S
C642 H690 0.929 . S
C643 C644 1.358 . S
C643 C645 1.356 . S
C643 H691 0.930 . S
C644 N641 1.279 . S
C644 C643 1.358 . S
C644 H647 0.930 . S
C645 C642 1.348 . S
C645 C643 1.356 . S
H646 C640 0.930 . S
H647 C644 0.930 . S
C648 C650 1.348 . S
C648 C651 1.356 . S
C648 O678 1.325 . S
N649 C652 1.314 . S
N649 C653 1.279 . S
C650 C648 1.348 . S
C650 C652 1.353 . S
C650 H692 0.929 . S
C651 C648 1.356 . S
C651 C653 1.358 . S
C651 H693 0.930 . S
C652 N649 1.314 . S
C652 C650 1.353 . S
C652 H694 0.930 . S
C653 N649 1.279 . S
C653 C651 1.358 . S
C653 H695 0.930 . S
C654 C655 1.348 . S
C654 C656 1.356 . S
C654 O679 1.325 . S
C655 C654 1.348 . S
C655 C657 1.353 . S
C655 H696 0.929 . S
C656 C654 1.356 . S
C656 C658 1.358 . S
C656 H697 0.930 . S
C657 C655 1.353 . S
C657 N659 1.314 . S
C657 H698 0.930 . S
C658 C656 1.358 . S
C658 N659 1.279 . S
C658 H699 0.930 . S
N659 C657 1.314 . S
N659 C658 1.279 . S
C660 C662 1.353 . S
C660 N663 1.314 . S
C660 H666 0.930 . S
C661 N663 1.279 . S
C661 C664 1.358 . S
C661 H667 0.930 . S
C662 C660 1.353 . S
C662 C665 1.348 . S
C662 H700 0.929 . S
N663 Li618 1.990 . S
N663 C660 1.314 . S
N663 C661 1.279 . S
C664 C661 1.358 . S
C664 C665 1.356 . S
C664 H701 0.930 . S
C665 C662 1.348 . S
C665 C664 1.356 . S
H666 C660 0.930 . S
H667 C661 0.930 . S
C668 N669 1.314 . S
C668 C670 1.353 . S
C668 H674 0.930 . S
N669 Li619 1.990 . S
N669 C668 1.314 . S
N669 C672 1.279 . S
C670 C668 1.353 . S
C670 C673 1.348 . S
C670 H702 0.929 . S
C671 C672 1.358 . S
C671 C673 1.356 . S
C671 H703 0.930 . S
C672 N669 1.279 . S
C672 C671 1.358 . S
C672 H675 0.930 . S
C673 C670 1.348 . S
C673 C671 1.356 . S
H674 C668 0.930 . S
H675 C672 0.930 . S
O676 Li616 1.956 . S
O676 Li617 1.970 . S
O676 Li618 1.961 . S
O676 C620 1.325 . S
O677 Li616 1.970 . S
O677 Li617 1.956 . S
O677 Li619 1.961 . S
O677 C626 1.325 . S
O678 Li616 1.961 . S
O678 Li618 1.956 . S
O678 Li619 1.970 . S
O678 C648 1.325 . S
O679 Li617 1.961 . S
O679 Li618 1.970 . S
O679 Li619 1.956 . S
O679 C654 1.325 . S
H680 C622 0.929 . S
H681 C623 0.930 . S
H682 C624 0.930 . S
H683 C625 0.930 . S
H684 C627 0.930 . S
H685 C629 0.929 . S
H686 C630 0.930 . S
H687 C631 0.930 . S
H688 C634 0.930 . S
H689 C637 0.929 . S
H690 C642 0.929 . S
H691 C643 0.930 . S
H692 C650 0.929 . S
H693 C651 0.930 . S
H694 C652 0.930 . S
H695 C653 0.930 . S
H696 C655 0.929 . S
H697 C656 0.930 . S
H698 C657 0.930 . S
H699 C658 0.930 . S
H700 C662 0.929 . S
H701 C664 0.930 . S
H702 C670 0.929 . S
H703 C671 0.930 . S
Li704 N721 1.990 . S
Li704 O764 1.956 . S
Li704 O765 1.970 . S
Li704 O766 1.961 . S
Li705 N729 1.990 . S
Li705 O764 1.970 . S
Li705 O765 1.956 . S
Li705 O767 1.961 . S
Li706 N751 1.990 . S
Li706 O764 1.961 . S
Li706 O766 1.956 . S
Li706 O767 1.970 . S
Li707 N757 1.990 . S
Li707 O765 1.961 . S
Li707 O766 1.970 . S
Li707 O767 1.956 . S
C708 C710 1.348 . S
C708 C711 1.356 . S
C708 O764 1.325 . S
N709 C712 1.314 . S
N709 C713 1.279 . S
C710 C708 1.348 . S
C710 C712 1.353 . S
C710 H768 0.929 . S
C711 C708 1.356 . S
C711 C713 1.358 . S
C711 H769 0.930 . S
C712 N709 1.314 . S
C712 C710 1.353 . S
C712 H770 0.930 . S
C713 N709 1.279 . S
C713 C711 1.358 . S
C713 H771 0.930 . S
C714 C717 1.348 . S
C714 C718 1.356 . S
C714 O765 1.325 . S
C715 N716 1.279 . S
C715 C718 1.358 . S
C715 H772 0.930 . S
N716 C715 1.279 . S
N716 C719 1.314 . S
C717 C714 1.348 . S
C717 C719 1.353 . S
C717 H773 0.929 . S
C718 C714 1.356 . S
C718 C715 1.358 . S
C718 H774 0.930 . S
C719 N716 1.314 . S
C719 C717 1.353 . S
C719 H775 0.930 . S
C720 N721 1.314 . S
C720 C725 1.353 . S
C720 H726 0.930 . S
N721 Li704 1.990 . S
N721 C720 1.314 . S
N721 C723 1.279 . S
C722 C723 1.358 . S
C722 C724 1.356 . S
C722 H776 0.930 . S
C723 N721 1.279 . S
C723 C722 1.358 . S
C723 H727 0.930 . S
C724 C722 1.356 . S
C724 C725 1.348 . S
C725 C720 1.353 . S
C725 C724 1.348 . S
C725 H777 0.929 . S
H726 C720 0.930 . S
H727 C723 0.930 . S
C728 N729 1.314 . S
C728 C730 1.353 . S
C728 H734 0.930 . S
N729 Li705 1.990 . S
N729 C728 1.314 . S
N729 C732 1.279 . S
C730 C728 1.353 . S
C730 C733 1.348 . S
C730 H778 0.929 . S
C731 C732 1.358 . S
C731 C733 1.356 . S
C731 H779 0.930 . S
C732 N729 1.279 . S
C732 C731 1.358 . S
C732 H735 0.930 . S
C733 C730 1.348 . S
C733 C731 1.356 . S
H734 C728 0.930 . S
H735 C732 0.930 . S
C736 C738 1.348 . S
C736 C739 1.356 . S
C736 O766 1.325 . S
N737 C740 1.314 . S
N737 C741 1.279 . S
C738 C736 1.348 . S
C738 C740 1.353 . S
C738 H780 0.929 . S
C739 C736 1.356 . S
C739 C741 1.358 . S
C739 H781 0.930 . S
C740 N737 1.314 . S
C740 C738 1.353 . S
C740 H782 0.930 . S
C741 N737 1.279 . S
C741 C739 1.358 . S
C741 H783 0.930 . S
C742 C743 1.348 . S
C742 C744 1.356 . S
C742 O767 1.325 . S
C743 C742 1.348 . S
C743 C745 1.353 . S
C743 H784 0.929 . S
C744 C742 1.356 . S
C744 C746 1.358 . S
C744 H785 0.930 . S
C745 C743 1.353 . S
C745 N747 1.314 . S
C745 H786 0.930 . S
C746 C744 1.358 . S
C746 N747 1.279 . S
C746 H787 0.930 . S
N747 C745 1.314 . S
N747 C746 1.279 . S
C748 C750 1.353 . S
C748 N751 1.314 . S
C748 H754 0.930 . S
C749 N751 1.279 . S
C749 C752 1.358 . S
C749 H755 0.930 . S
C750 C748 1.353 . S
C750 C753 1.348 . S
C750 H788 0.929 . S
N751 Li706 1.990 . S
N751 C748 1.314 . S
N751 C749 1.279 . S
C752 C749 1.358 . S
C752 C753 1.356 . S
C752 H789 0.930 . S
C753 C750 1.348 . S
C753 C752 1.356 . S
H754 C748 0.930 . S
H755 C749 0.930 . S
C756 N757 1.314 . S
C756 C758 1.353 . S
C756 H762 0.930 . S
N757 Li707 1.990 . S
N757 C756 1.314 . S
N757 C760 1.279 . S
C758 C756 1.353 . S
C758 C761 1.348 . S
C758 H790 0.929 . S
C759 C760 1.358 . S
C759 C761 1.356 . S
C759 H791 0.930 . S
C760 N757 1.279 . S
C760 C759 1.358 . S
C760 H763 0.930 . S
C761 C758 1.348 . S
C761 C759 1.356 . S
H762 C756 0.930 . S
H763 C760 0.930 . S
O764 Li704 1.956 . S
O764 Li705 1.970 . S
O764 Li706 1.961 . S
O764 C708 1.325 . S
O765 Li704 1.970 . S
O765 Li705 1.956 . S
O765 Li707 1.961 . S
O765 C714 1.325 . S
O766 Li704 1.961 . S
O766 Li706 1.956 . S
O766 Li707 1.970 . S
O766 C736 1.325 . S
O767 Li705 1.961 . S
O767 Li706 1.970 . S
O767 Li707 1.956 . S
O767 C742 1.325 . S
H768 C710 0.929 . S
H769 C711 0.930 . S
H770 C712 0.930 . S
H771 C713 0.930 . S
H772 C715 0.930 . S
H773 C717 0.929 . S
H774 C718 0.930 . S
H775 C719 0.930 . S
H776 C722 0.930 . S
H777 C725 0.929 . S
H778 C730 0.929 . S
H779 C731 0.930 . S
H780 C738 0.929 . S
H781 C739 0.930 . S
H782 C740 0.930 . S
H783 C741 0.930 . S
H784 C743 0.929 . S
H785 C744 0.930 . S
H786 C745 0.930 . S
H787 C746 0.930 . S
H788 C750 0.929 . S
H789 C752 0.930 . S
H790 C758 0.929 . S
H791 C759 0.930 . S
Li792 N809 1.990 . S
Li792 O852 1.956 . S
Li792 O853 1.970 . S
Li792 O854 1.961 . S
Li793 N817 1.990 . S
Li793 O852 1.970 . S
Li793 O853 1.956 . S
Li793 O855 1.961 . S
Li794 N839 1.990 . S
Li794 O852 1.961 . S
Li794 O854 1.956 . S
Li794 O855 1.970 . S
Li795 N845 1.990 . S
Li795 O853 1.961 . S
Li795 O854 1.970 . S
Li795 O855 1.956 . S
C796 C798 1.348 . S
C796 C799 1.356 . S
C796 O852 1.325 . S
N797 C800 1.314 . S
N797 C801 1.279 . S
C798 C796 1.348 . S
C798 C800 1.353 . S
C798 H856 0.929 . S
C799 C796 1.356 . S
C799 C801 1.358 . S
C799 H857 0.930 . S
C800 N797 1.314 . S
C800 C798 1.353 . S
C800 H858 0.930 . S
C801 N797 1.279 . S
C801 C799 1.358 . S
C801 H859 0.930 . S
C802 C805 1.348 . S
C802 C806 1.356 . S
C802 O853 1.325 . S
C803 N804 1.279 . S
C803 C806 1.358 . S
C803 H860 0.930 . S
N804 C803 1.279 . S
N804 C807 1.314 . S
C805 C802 1.348 . S
C805 C807 1.353 . S
C805 H861 0.929 . S
C806 C802 1.356 . S
C806 C803 1.358 . S
C806 H862 0.930 . S
C807 N804 1.314 . S
C807 C805 1.353 . S
C807 H863 0.930 . S
C808 N809 1.314 . S
C808 C813 1.353 . S
C808 H814 0.930 . S
N809 Li792 1.990 . S
N809 C808 1.314 . S
N809 C811 1.279 . S
C810 C811 1.358 . S
C810 C812 1.356 . S
C810 H864 0.930 . S
C811 N809 1.279 . S
C811 C810 1.358 . S
C811 H815 0.930 . S
C812 C810 1.356 . S
C812 C813 1.348 . S
C813 C808 1.353 . S
C813 C812 1.348 . S
C813 H865 0.929 . S
H814 C808 0.930 . S
H815 C811 0.930 . S
C816 N817 1.314 . S
C816 C818 1.353 . S
C816 H822 0.930 . S
N817 Li793 1.990 . S
N817 C816 1.314 . S
N817 C820 1.279 . S
C818 C816 1.353 . S
C818 C821 1.348 . S
C818 H866 0.929 . S
C819 C820 1.358 . S
C819 C821 1.356 . S
C819 H867 0.930 . S
C820 N817 1.279 . S
C820 C819 1.358 . S
C820 H823 0.930 . S
C821 C818 1.348 . S
C821 C819 1.356 . S
H822 C816 0.930 . S
H823 C820 0.930 . S
C824 C826 1.348 . S
C824 C827 1.356 . S
C824 O854 1.325 . S
N825 C828 1.314 . S
N825 C829 1.279 . S
C826 C824 1.348 . S
C826 C828 1.353 . S
C826 H868 0.929 . S
C827 C824 1.356 . S
C827 C829 1.358 . S
C827 H869 0.930 . S
C828 N825 1.314 . S
C828 C826 1.353 . S
C828 H870 0.930 . S
C829 N825 1.279 . S
C829 C827 1.358 . S
C829 H871 0.930 . S
C830 C831 1.348 . S
C830 C832 1.356 . S
C830 O855 1.325 . S
C831 C830 1.348 . S
C831 C833 1.353 . S
C831 H872 0.929 . S
C832 C830 1.356 . S
C832 C834 1.358 . S
C832 H873 0.930 . S
C833 C831 1.353 . S
C833 N835 1.314 . S
C833 H874 0.930 . S
C834 C832 1.358 . S
C834 N835 1.279 . S
C834 H875 0.930 . S
N835 C833 1.314 . S
N835 C834 1.279 . S
C836 C838 1.353 . S
C836 N839 1.314 . S
C836 H842 0.930 . S
C837 N839 1.279 . S
C837 C840 1.358 . S
C837 H843 0.930 . S
C838 C836 1.353 . S
C838 C841 1.348 . S
C838 H876 0.929 . S
N839 Li794 1.990 . S
N839 C836 1.314 . S
N839 C837 1.279 . S
C840 C837 1.358 . S
C840 C841 1.356 . S
C840 H877 0.930 . S
C841 C838 1.348 . S
C841 C840 1.356 . S
H842 C836 0.930 . S
H843 C837 0.930 . S
C844 N845 1.314 . S
C844 C846 1.353 . S
C844 H850 0.930 . S
N845 Li795 1.990 . S
N845 C844 1.314 . S
N845 C848 1.279 . S
C846 C844 1.353 . S
C846 C849 1.348 . S
C846 H878 0.929 . S
C847 C848 1.358 . S
C847 C849 1.356 . S
C847 H879 0.930 . S
C848 N845 1.279 . S
C848 C847 1.358 . S
C848 H851 0.930 . S
C849 C846 1.348 . S
C849 C847 1.356 . S
H850 C844 0.930 . S
H851 C848 0.930 . S
O852 Li792 1.956 . S
O852 Li793 1.970 . S
O852 Li794 1.961 . S
O852 C796 1.325 . S
O853 Li792 1.970 . S
O853 Li793 1.956 . S
O853 Li795 1.961 . S
O853 C802 1.325 . S
O854 Li792 1.961 . S
O854 Li794 1.956 . S
O854 Li795 1.970 . S
O854 C824 1.325 . S
O855 Li793 1.961 . S
O855 Li794 1.970 . S
O855 Li795 1.956 . S
O855 C830 1.325 . S
H856 C798 0.929 . S
H857 C799 0.930 . S
H858 C800 0.930 . S
H859 C801 0.930 . S
H860 C803 0.930 . S
H861 C805 0.929 . S
H862 C806 0.930 . S
H863 C807 0.930 . S
H864 C810 0.930 . S
H865 C813 0.929 . S
H866 C818 0.929 . S
H867 C819 0.930 . S
H868 C826 0.929 . S
H869 C827 0.930 . S
H870 C828 0.930 . S
H871 C829 0.930 . S
H872 C831 0.929 . S
H873 C832 0.930 . S
H874 C833 0.930 . S
H875 C834 0.930 . S
H876 C838 0.929 . S
H877 C840 0.930 . S
H878 C846 0.929 . S
H879 C847 0.930 . S
Li880 N897 1.990 . S
Li880 O940 1.956 . S
Li880 O941 1.970 . S
Li880 O942 1.961 . S
Li881 N905 1.990 . S
Li881 O940 1.970 . S
Li881 O941 1.956 . S
Li881 O943 1.961 . S
Li882 N927 1.990 . S
Li882 O940 1.961 . S
Li882 O942 1.956 . S
Li882 O943 1.970 . S
Li883 N933 1.990 . S
Li883 O941 1.961 . S
Li883 O942 1.970 . S
Li883 O943 1.956 . S
C884 C886 1.348 . S
C884 C887 1.356 . S
C884 O940 1.325 . S
N885 C888 1.314 . S
N885 C889 1.279 . S
C886 C884 1.348 . S
C886 C888 1.353 . S
C886 H944 0.929 . S
C887 C884 1.356 . S
C887 C889 1.358 . S
C887 H945 0.930 . S
C888 N885 1.314 . S
C888 C886 1.353 . S
C888 H946 0.930 . S
C889 N885 1.279 . S
C889 C887 1.358 . S
C889 H947 0.930 . S
C890 C893 1.348 . S
C890 C894 1.356 . S
C890 O941 1.325 . S
C891 N892 1.279 . S
C891 C894 1.358 . S
C891 H948 0.930 . S
N892 C891 1.279 . S
N892 C895 1.314 . S
C893 C890 1.348 . S
C893 C895 1.353 . S
C893 H949 0.929 . S
C894 C890 1.356 . S
C894 C891 1.358 . S
C894 H950 0.930 . S
C895 N892 1.314 . S
C895 C893 1.353 . S
C895 H951 0.930 . S
C896 N897 1.314 . S
C896 C901 1.353 . S
C896 H902 0.930 . S
N897 Li880 1.990 . S
N897 C896 1.314 . S
N897 C899 1.279 . S
C898 C899 1.358 . S
C898 C900 1.356 . S
C898 H952 0.930 . S
C899 N897 1.279 . S
C899 C898 1.358 . S
C899 H903 0.930 . S
C900 C898 1.356 . S
C900 C901 1.348 . S
C901 C896 1.353 . S
C901 C900 1.348 . S
C901 H953 0.929 . S
H902 C896 0.930 . S
H903 C899 0.930 . S
C904 N905 1.314 . S
C904 C906 1.353 . S
C904 H910 0.930 . S
N905 Li881 1.990 . S
N905 C904 1.314 . S
N905 C908 1.279 . S
C906 C904 1.353 . S
C906 C909 1.348 . S
C906 H954 0.929 . S
C907 C908 1.358 . S
C907 C909 1.356 . S
C907 H955 0.930 . S
C908 N905 1.279 . S
C908 C907 1.358 . S
C908 H911 0.930 . S
C909 C906 1.348 . S
C909 C907 1.356 . S
H910 C904 0.930 . S
H911 C908 0.930 . S
C912 C914 1.348 . S
C912 C915 1.356 . S
C912 O942 1.325 . S
N913 C916 1.314 . S
N913 C917 1.279 . S
C914 C912 1.348 . S
C914 C916 1.353 . S
C914 H956 0.929 . S
C915 C912 1.356 . S
C915 C917 1.358 . S
C915 H957 0.930 . S
C916 N913 1.314 . S
C916 C914 1.353 . S
C916 H958 0.930 . S
C917 N913 1.279 . S
C917 C915 1.358 . S
C917 H959 0.930 . S
C918 C919 1.348 . S
C918 C920 1.356 . S
C918 O943 1.325 . S
C919 C918 1.348 . S
C919 C921 1.353 . S
C919 H960 0.929 . S
C920 C918 1.356 . S
C920 C922 1.358 . S
C920 H961 0.930 . S
C921 C919 1.353 . S
C921 N923 1.314 . S
C921 H962 0.930 . S
C922 C920 1.358 . S
C922 N923 1.279 . S
C922 H963 0.930 . S
N923 C921 1.314 . S
N923 C922 1.279 . S
C924 C926 1.353 . S
C924 N927 1.314 . S
C924 H930 0.930 . S
C925 N927 1.279 . S
C925 C928 1.358 . S
C925 H931 0.930 . S
C926 C924 1.353 . S
C926 C929 1.348 . S
C926 H964 0.929 . S
N927 Li882 1.990 . S
N927 C924 1.314 . S
N927 C925 1.279 . S
C928 C925 1.358 . S
C928 C929 1.356 . S
C928 H965 0.930 . S
C929 C926 1.348 . S
C929 C928 1.356 . S
H930 C924 0.930 . S
H931 C925 0.930 . S
C932 N933 1.314 . S
C932 C934 1.353 . S
C932 H938 0.930 . S
N933 Li883 1.990 . S
N933 C932 1.314 . S
N933 C936 1.279 . S
C934 C932 1.353 . S
C934 C937 1.348 . S
C934 H966 0.929 . S
C935 C936 1.358 . S
C935 C937 1.356 . S
C935 H967 0.930 . S
C936 N933 1.279 . S
C936 C935 1.358 . S
C936 H939 0.930 . S
C937 C934 1.348 . S
C937 C935 1.356 . S
H938 C932 0.930 . S
H939 C936 0.930 . S
O940 Li880 1.956 . S
O940 Li881 1.970 . S
O940 Li882 1.961 . S
O940 C884 1.325 . S
O941 Li880 1.970 . S
O941 Li881 1.956 . S
O941 Li883 1.961 . S
O941 C890 1.325 . S
O942 Li880 1.961 . S
O942 Li882 1.956 . S
O942 Li883 1.970 . S
O942 C912 1.325 . S
O943 Li881 1.961 . S
O943 Li882 1.970 . S
O943 Li883 1.956 . S
O943 C918 1.325 . S
H944 C886 0.929 . S
H945 C887 0.930 . S
H946 C888 0.930 . S
H947 C889 0.930 . S
H948 C891 0.930 . S
H949 C893 0.929 . S
H950 C894 0.930 . S
H951 C895 0.930 . S
H952 C898 0.930 . S
H953 C901 0.929 . S
H954 C906 0.929 . S
H955 C907 0.930 . S
H956 C914 0.929 . S
H957 C915 0.930 . S
H958 C916 0.930 . S
H959 C917 0.930 . S
H960 C919 0.929 . S
H961 C920 0.930 . S
H962 C921 0.930 . S
H963 C922 0.930 . S
H964 C926 0.929 . S
H965 C928 0.930 . S
H966 C934 0.929 . S
H967 C935 0.930 . S
Li968 N985 1.990 . S
Li968 O1028 1.956 . S
Li968 O1029 1.970 . S
Li968 O1030 1.961 . S
Li969 N993 1.990 . S
Li969 O1028 1.970 . S
Li969 O1029 1.956 . S
Li969 O1031 1.961 . S
Li970 N1015 1.990 . S
Li970 O1028 1.961 . S
Li970 O1030 1.956 . S
Li970 O1031 1.970 . S
Li971 N1021 1.990 . S
Li971 O1029 1.961 . S
Li971 O1030 1.970 . S
Li971 O1031 1.956 . S
C972 C974 1.348 . S
C972 C975 1.356 . S
C972 O1028 1.325 . S
N973 C976 1.314 . S
N973 C977 1.279 . S
C974 C972 1.348 . S
C974 C976 1.353 . S
C974 H1032 0.929 . S
C975 C972 1.356 . S
C975 C977 1.358 . S
C975 H1033 0.930 . S
C976 N973 1.314 . S
C976 C974 1.353 . S
C976 H1034 0.930 . S
C977 N973 1.279 . S
C977 C975 1.358 . S
C977 H1035 0.930 . S
C978 C981 1.348 . S
C978 C982 1.356 . S
C978 O1029 1.325 . S
C979 N980 1.279 . S
C979 C982 1.358 . S
C979 H1036 0.930 . S
N980 C979 1.279 . S
N980 C983 1.314 . S
C981 C978 1.348 . S
C981 C983 1.353 . S
C981 H1037 0.929 . S
C982 C978 1.356 . S
C982 C979 1.358 . S
C982 H1038 0.930 . S
C983 N980 1.314 . S
C983 C981 1.353 . S
C983 H1039 0.930 . S
C984 N985 1.314 . S
C984 C989 1.353 . S
C984 H990 0.930 . S
N985 Li968 1.990 . S
N985 C984 1.314 . S
N985 C987 1.279 . S
C986 C987 1.358 . S
C986 C988 1.356 . S
C986 H1040 0.930 . S
C987 N985 1.279 . S
C987 C986 1.358 . S
C987 H991 0.930 . S
C988 C986 1.356 . S
C988 C989 1.348 . S
C989 C984 1.353 . S
C989 C988 1.348 . S
C989 H1041 0.929 . S
H990 C984 0.930 . S
H991 C987 0.930 . S
C992 N993 1.314 . S
C992 C994 1.353 . S
C992 H998 0.930 . S
N993 Li969 1.990 . S
N993 C992 1.314 . S
N993 C996 1.279 . S
C994 C992 1.353 . S
C994 C997 1.348 . S
C994 H1042 0.929 . S
C995 C996 1.358 . S
C995 C997 1.356 . S
C995 H1043 0.930 . S
C996 N993 1.279 . S
C996 C995 1.358 . S
C996 H999 0.930 . S
C997 C994 1.348 . S
C997 C995 1.356 . S
H998 C992 0.930 . S
H999 C996 0.930 . S
C1000 C1002 1.348 . S
C1000 C1003 1.356 . S
C1000 O1030 1.325 . S
N1001 C1004 1.314 . S
N1001 C1005 1.279 . S
C1002 C1000 1.348 . S
C1002 C1004 1.353 . S
C1002 H1044 0.929 . S
C1003 C1000 1.356 . S
C1003 C1005 1.358 . S
C1003 H1045 0.930 . S
C1004 N1001 1.314 . S
C1004 C1002 1.353 . S
C1004 H1046 0.930 . S
C1005 N1001 1.279 . S
C1005 C1003 1.358 . S
C1005 H1047 0.930 . S
C1006 C1007 1.348 . S
C1006 C1008 1.356 . S
C1006 O1031 1.325 . S
C1007 C1006 1.348 . S
C1007 C1009 1.353 . S
C1007 H1048 0.929 . S
C1008 C1006 1.356 . S
C1008 C1010 1.358 . S
C1008 H1049 0.930 . S
C1009 C1007 1.353 . S
C1009 N1011 1.314 . S
C1009 H1050 0.930 . S
C1010 C1008 1.358 . S
C1010 N1011 1.279 . S
C1010 H1051 0.930 . S
N1011 C1009 1.314 . S
N1011 C1010 1.279 . S
C1012 C1014 1.353 . S
C1012 N1015 1.314 . S
C1012 H1018 0.930 . S
C1013 N1015 1.279 . S
C1013 C1016 1.358 . S
C1013 H1019 0.930 . S
C1014 C1012 1.353 . S
C1014 C1017 1.348 . S
C1014 H1052 0.929 . S
N1015 Li970 1.990 . S
N1015 C1012 1.314 . S
N1015 C1013 1.279 . S
C1016 C1013 1.358 . S
C1016 C1017 1.356 . S
C1016 H1053 0.930 . S
C1017 C1014 1.348 . S
C1017 C1016 1.356 . S
H1018 C1012 0.930 . S
H1019 C1013 0.930 . S
C1020 N1021 1.314 . S
C1020 C1022 1.353 . S
C1020 H1026 0.930 . S
N1021 Li971 1.990 . S
N1021 C1020 1.314 . S
N1021 C1024 1.279 . S
C1022 C1020 1.353 . S
C1022 C1025 1.348 . S
C1022 H1054 0.929 . S
C1023 C1024 1.358 . S
C1023 C1025 1.356 . S
C1023 H1055 0.930 . S
C1024 N1021 1.279 . S
C1024 C1023 1.358 . S
C1024 H1027 0.930 . S
C1025 C1022 1.348 . S
C1025 C1023 1.356 . S
H1026 C1020 0.930 . S
H1027 C1024 0.930 . S
O1028 Li968 1.956 . S
O1028 Li969 1.970 . S
O1028 Li970 1.961 . S
O1028 C972 1.325 . S
O1029 Li968 1.970 . S
O1029 Li969 1.956 . S
O1029 Li971 1.961 . S
O1029 C978 1.325 . S
O1030 Li968 1.961 . S
O1030 Li970 1.956 . S
O1030 Li971 1.970 . S
O1030 C1000 1.325 . S
O1031 Li969 1.961 . S
O1031 Li970 1.970 . S
O1031 Li971 1.956 . S
O1031 C1006 1.325 . S
H1032 C974 0.929 . S
H1033 C975 0.930 . S
H1034 C976 0.930 . S
H1035 C977 0.930 . S
H1036 C979 0.930 . S
H1037 C981 0.929 . S
H1038 C982 0.930 . S
H1039 C983 0.930 . S
H1040 C986 0.930 . S
H1041 C989 0.929 . S
H1042 C994 0.929 . S
H1043 C995 0.930 . S
H1044 C1002 0.929 . S
H1045 C1003 0.930 . S
H1046 C1004 0.930 . S
H1047 C1005 0.930 . S
H1048 C1007 0.929 . S
H1049 C1008 0.930 . S
H1050 C1009 0.930 . S
H1051 C1010 0.930 . S
H1052 C1014 0.929 . S
H1053 C1016 0.930 . S
H1054 C1022 0.929 . S
H1055 C1023 0.930 . S
Li1056 N1073 1.990 . S
Li1056 O1116 1.956 . S
Li1056 O1117 1.970 . S
Li1056 O1118 1.961 . S
Li1057 N1081 1.990 . S
Li1057 O1116 1.970 . S
Li1057 O1117 1.956 . S
Li1057 O1119 1.961 . S
Li1058 N1103 1.990 . S
Li1058 O1116 1.961 . S
Li1058 O1118 1.956 . S
Li1058 O1119 1.970 . S
Li1059 N1109 1.990 . S
Li1059 O1117 1.961 . S
Li1059 O1118 1.970 . S
Li1059 O1119 1.956 . S
C1060 C1062 1.348 . S
C1060 C1063 1.356 . S
C1060 O1116 1.325 . S
N1061 C1064 1.314 . S
N1061 C1065 1.279 . S
C1062 C1060 1.348 . S
C1062 C1064 1.353 . S
C1062 H1120 0.929 . S
C1063 C1060 1.356 . S
C1063 C1065 1.358 . S
C1063 H1121 0.930 . S
C1064 N1061 1.314 . S
C1064 C1062 1.353 . S
C1064 H1122 0.930 . S
C1065 N1061 1.279 . S
C1065 C1063 1.358 . S
C1065 H1123 0.930 . S
C1066 C1069 1.348 . S
C1066 C1070 1.356 . S
C1066 O1117 1.325 . S
C1067 N1068 1.279 . S
C1067 C1070 1.358 . S
C1067 H1124 0.930 . S
N1068 C1067 1.279 . S
N1068 C1071 1.314 . S
C1069 C1066 1.348 . S
C1069 C1071 1.353 . S
C1069 H1125 0.929 . S
C1070 C1066 1.356 . S
C1070 C1067 1.358 . S
C1070 H1126 0.930 . S
C1071 N1068 1.314 . S
C1071 C1069 1.353 . S
C1071 H1127 0.930 . S
C1072 N1073 1.314 . S
C1072 C1077 1.353 . S
C1072 H1078 0.930 . S
N1073 Li1056 1.990 . S
N1073 C1072 1.314 . S
N1073 C1075 1.279 . S
C1074 C1075 1.358 . S
C1074 C1076 1.356 . S
C1074 H1128 0.930 . S
C1075 N1073 1.279 . S
C1075 C1074 1.358 . S
C1075 H1079 0.930 . S
C1076 C1074 1.356 . S
C1076 C1077 1.348 . S
C1077 C1072 1.353 . S
C1077 C1076 1.348 . S
C1077 H1129 0.929 . S
H1078 C1072 0.930 . S
H1079 C1075 0.930 . S
C1080 N1081 1.314 . S
C1080 C1082 1.353 . S
C1080 H1086 0.930 . S
N1081 Li1057 1.990 . S
N1081 C1080 1.314 . S
N1081 C1084 1.279 . S
C1082 C1080 1.353 . S
C1082 C1085 1.348 . S
C1082 H1130 0.929 . S
C1083 C1084 1.358 . S
C1083 C1085 1.356 . S
C1083 H1131 0.930 . S
C1084 N1081 1.279 . S
C1084 C1083 1.358 . S
C1084 H1087 0.930 . S
C1085 C1082 1.348 . S
C1085 C1083 1.356 . S
H1086 C1080 0.930 . S
H1087 C1084 0.930 . S
C1088 C1090 1.348 . S
C1088 C1091 1.356 . S
C1088 O1118 1.325 . S
N1089 C1092 1.314 . S
N1089 C1093 1.279 . S
C1090 C1088 1.348 . S
C1090 C1092 1.353 . S
C1090 H1132 0.929 . S
C1091 C1088 1.356 . S
C1091 C1093 1.358 . S
C1091 H1133 0.930 . S
C1092 N1089 1.314 . S
C1092 C1090 1.353 . S
C1092 H1134 0.930 . S
C1093 N1089 1.279 . S
C1093 C1091 1.358 . S
C1093 H1135 0.930 . S
C1094 C1095 1.348 . S
C1094 C1096 1.356 . S
C1094 O1119 1.325 . S
C1095 C1094 1.348 . S
C1095 C1097 1.353 . S
C1095 H1136 0.929 . S
C1096 C1094 1.356 . S
C1096 C1098 1.358 . S
C1096 H1137 0.930 . S
C1097 C1095 1.353 . S
C1097 N1099 1.314 . S
C1097 H1138 0.930 . S
C1098 C1096 1.358 . S
C1098 N1099 1.279 . S
C1098 H1139 0.930 . S
N1099 C1097 1.314 . S
N1099 C1098 1.279 . S
C1100 C1102 1.353 . S
C1100 N1103 1.314 . S
C1100 H1106 0.930 . S
C1101 N1103 1.279 . S
C1101 C1104 1.358 . S
C1101 H1107 0.930 . S
C1102 C1100 1.353 . S
C1102 C1105 1.348 . S
C1102 H1140 0.929 . S
N1103 Li1058 1.990 . S
N1103 C1100 1.314 . S
N1103 C1101 1.279 . S
C1104 C1101 1.358 . S
C1104 C1105 1.356 . S
C1104 H1141 0.930 . S
C1105 C1102 1.348 . S
C1105 C1104 1.356 . S
H1106 C1100 0.930 . S
H1107 C1101 0.930 . S
C1108 N1109 1.314 . S
C1108 C1110 1.353 . S
C1108 H1114 0.930 . S
N1109 Li1059 1.990 . S
N1109 C1108 1.314 . S
N1109 C1112 1.279 . S
C1110 C1108 1.353 . S
C1110 C1113 1.348 . S
C1110 H1142 0.929 . S
C1111 C1112 1.358 . S
C1111 C1113 1.356 . S
C1111 H1143 0.930 . S
C1112 N1109 1.279 . S
C1112 C1111 1.358 . S
C1112 H1115 0.930 . S
C1113 C1110 1.348 . S
C1113 C1111 1.356 . S
H1114 C1108 0.930 . S
H1115 C1112 0.930 . S
O1116 Li1056 1.956 . S
O1116 Li1057 1.970 . S
O1116 Li1058 1.961 . S
O1116 C1060 1.325 . S
O1117 Li1056 1.970 . S
O1117 Li1057 1.956 . S
O1117 Li1059 1.961 . S
O1117 C1066 1.325 . S
O1118 Li1056 1.961 . S
O1118 Li1058 1.956 . S
O1118 Li1059 1.970 . S
O1118 C1088 1.325 . S
O1119 Li1057 1.961 . S
O1119 Li1058 1.970 . S
O1119 Li1059 1.956 . S
O1119 C1094 1.325 . S
H1120 C1062 0.929 . S
H1121 C1063 0.930 . S
H1122 C1064 0.930 . S
H1123 C1065 0.930 . S
H1124 C1067 0.930 . S
H1125 C1069 0.929 . S
H1126 C1070 0.930 . S
H1127 C1071 0.930 . S
H1128 C1074 0.930 . S
H1129 C1077 0.929 . S
H1130 C1082 0.929 . S
H1131 C1083 0.930 . S
H1132 C1090 0.929 . S
H1133 C1091 0.930 . S
H1134 C1092 0.930 . S
H1135 C1093 0.930 . S
H1136 C1095 0.929 . S
H1137 C1096 0.930 . S
H1138 C1097 0.930 . S
H1139 C1098 0.930 . S
H1140 C1102 0.929 . S
H1141 C1104 0.930 . S
H1142 C1110 0.929 . S
H1143 C1111 0.930 . S
Li1144 N1161 1.990 . S
Li1144 O1204 1.956 . S
Li1144 O1205 1.970 . S
Li1144 O1206 1.961 . S
Li1145 N1169 1.990 . S
Li1145 O1204 1.970 . S
Li1145 O1205 1.956 . S
Li1145 O1207 1.961 . S
Li1146 N1191 1.990 . S
Li1146 O1204 1.961 . S
Li1146 O1206 1.956 . S
Li1146 O1207 1.970 . S
Li1147 N1197 1.990 . S
Li1147 O1205 1.961 . S
Li1147 O1206 1.970 . S
Li1147 O1207 1.956 . S
C1148 C1150 1.348 . S
C1148 C1151 1.356 . S
C1148 O1204 1.325 . S
N1149 C1152 1.314 . S
N1149 C1153 1.279 . S
C1150 C1148 1.348 . S
C1150 C1152 1.353 . S
C1150 H1208 0.929 . S
C1151 C1148 1.356 . S
C1151 C1153 1.358 . S
C1151 H1209 0.930 . S
C1152 N1149 1.314 . S
C1152 C1150 1.353 . S
C1152 H1210 0.930 . S
C1153 N1149 1.279 . S
C1153 C1151 1.358 . S
C1153 H1211 0.930 . S
C1154 C1157 1.348 . S
C1154 C1158 1.356 . S
C1154 O1205 1.325 . S
C1155 N1156 1.279 . S
C1155 C1158 1.358 . S
C1155 H1212 0.930 . S
N1156 C1155 1.279 . S
N1156 C1159 1.314 . S
C1157 C1154 1.348 . S
C1157 C1159 1.353 . S
C1157 H1213 0.929 . S
C1158 C1154 1.356 . S
C1158 C1155 1.358 . S
C1158 H1214 0.930 . S
C1159 N1156 1.314 . S
C1159 C1157 1.353 . S
C1159 H1215 0.930 . S
C1160 N1161 1.314 . S
C1160 C1165 1.353 . S
C1160 H1166 0.930 . S
N1161 Li1144 1.990 . S
N1161 C1160 1.314 . S
N1161 C1163 1.279 . S
C1162 C1163 1.358 . S
C1162 C1164 1.356 . S
C1162 H1216 0.930 . S
C1163 N1161 1.279 . S
C1163 C1162 1.358 . S
C1163 H1167 0.930 . S
C1164 C1162 1.356 . S
C1164 C1165 1.348 . S
C1165 C1160 1.353 . S
C1165 C1164 1.348 . S
C1165 H1217 0.929 . S
H1166 C1160 0.930 . S
H1167 C1163 0.930 . S
C1168 N1169 1.314 . S
C1168 C1170 1.353 . S
C1168 H1174 0.930 . S
N1169 Li1145 1.990 . S
N1169 C1168 1.314 . S
N1169 C1172 1.279 . S
C1170 C1168 1.353 . S
C1170 C1173 1.348 . S
C1170 H1218 0.929 . S
C1171 C1172 1.358 . S
C1171 C1173 1.356 . S
C1171 H1219 0.930 . S
C1172 N1169 1.279 . S
C1172 C1171 1.358 . S
C1172 H1175 0.930 . S
C1173 C1170 1.348 . S
C1173 C1171 1.356 . S
H1174 C1168 0.930 . S
H1175 C1172 0.930 . S
C1176 C1178 1.348 . S
C1176 C1179 1.356 . S
C1176 O1206 1.325 . S
N1177 C1180 1.314 . S
N1177 C1181 1.279 . S
C1178 C1176 1.348 . S
C1178 C1180 1.353 . S
C1178 H1220 0.929 . S
C1179 C1176 1.356 . S
C1179 C1181 1.358 . S
C1179 H1221 0.930 . S
C1180 N1177 1.314 . S
C1180 C1178 1.353 . S
C1180 H1222 0.930 . S
C1181 N1177 1.279 . S
C1181 C1179 1.358 . S
C1181 H1223 0.930 . S
C1182 C1183 1.348 . S
C1182 C1184 1.356 . S
C1182 O1207 1.325 . S
C1183 C1182 1.348 . S
C1183 C1185 1.353 . S
C1183 H1224 0.929 . S
C1184 C1182 1.356 . S
C1184 C1186 1.358 . S
C1184 H1225 0.930 . S
C1185 C1183 1.353 . S
C1185 N1187 1.314 . S
C1185 H1226 0.930 . S
C1186 C1184 1.358 . S
C1186 N1187 1.279 . S
C1186 H1227 0.930 . S
N1187 C1185 1.314 . S
N1187 C1186 1.279 . S
C1188 C1190 1.353 . S
C1188 N1191 1.314 . S
C1188 H1194 0.930 . S
C1189 N1191 1.279 . S
C1189 C1192 1.358 . S
C1189 H1195 0.930 . S
C1190 C1188 1.353 . S
C1190 C1193 1.348 . S
C1190 H1228 0.929 . S
N1191 Li1146 1.990 . S
N1191 C1188 1.314 . S
N1191 C1189 1.279 . S
C1192 C1189 1.358 . S
C1192 C1193 1.356 . S
C1192 H1229 0.930 . S
C1193 C1190 1.348 . S
C1193 C1192 1.356 . S
H1194 C1188 0.930 . S
H1195 C1189 0.930 . S
C1196 N1197 1.314 . S
C1196 C1198 1.353 . S
C1196 H1202 0.930 . S
N1197 Li1147 1.990 . S
N1197 C1196 1.314 . S
N1197 C1200 1.279 . S
C1198 C1196 1.353 . S
C1198 C1201 1.348 . S
C1198 H1230 0.929 . S
C1199 C1200 1.358 . S
C1199 C1201 1.356 . S
C1199 H1231 0.930 . S
C1200 N1197 1.279 . S
C1200 C1199 1.358 . S
C1200 H1203 0.930 . S
C1201 C1198 1.348 . S
C1201 C1199 1.356 . S
H1202 C1196 0.930 . S
H1203 C1200 0.930 . S
O1204 Li1144 1.956 . S
O1204 Li1145 1.970 . S
O1204 Li1146 1.961 . S
O1204 C1148 1.325 . S
O1205 Li1144 1.970 . S
O1205 Li1145 1.956 . S
O1205 Li1147 1.961 . S
O1205 C1154 1.325 . S
O1206 Li1144 1.961 . S
O1206 Li1146 1.956 . S
O1206 Li1147 1.970 . S
O1206 C1176 1.325 . S
O1207 Li1145 1.961 . S
O1207 Li1146 1.970 . S
O1207 Li1147 1.956 . S
O1207 C1182 1.325 . S
H1208 C1150 0.929 . S
H1209 C1151 0.930 . S
H1210 C1152 0.930 . S
H1211 C1153 0.930 . S
H1212 C1155 0.930 . S
H1213 C1157 0.929 . S
H1214 C1158 0.930 . S
H1215 C1159 0.930 . S
H1216 C1162 0.930 . S
H1217 C1165 0.929 . S
H1218 C1170 0.929 . S
H1219 C1171 0.930 . S
H1220 C1178 0.929 . S
H1221 C1179 0.930 . S
H1222 C1180 0.930 . S
H1223 C1181 0.930 . S
H1224 C1183 0.929 . S
H1225 C1184 0.930 . S
H1226 C1185 0.930 . S
H1227 C1186 0.930 . S
H1228 C1190 0.929 . S
H1229 C1192 0.930 . S
H1230 C1198 0.929 . S
H1231 C1199 0.930 . S
Li1232 N1249 1.990 . S
Li1232 O1292 1.956 . S
Li1232 O1293 1.970 . S
Li1232 O1294 1.961 . S
Li1233 N1257 1.990 . S
Li1233 O1292 1.970 . S
Li1233 O1293 1.956 . S
Li1233 O1295 1.961 . S
Li1234 N1279 1.990 . S
Li1234 O1292 1.961 . S
Li1234 O1294 1.956 . S
Li1234 O1295 1.970 . S
Li1235 N1285 1.990 . S
Li1235 O1293 1.961 . S
Li1235 O1294 1.970 . S
Li1235 O1295 1.956 . S
C1236 C1238 1.348 . S
C1236 C1239 1.356 . S
C1236 O1292 1.325 . S
N1237 C1240 1.314 . S
N1237 C1241 1.279 . S
C1238 C1236 1.348 . S
C1238 C1240 1.353 . S
C1238 H1296 0.929 . S
C1239 C1236 1.356 . S
C1239 C1241 1.358 . S
C1239 H1297 0.930 . S
C1240 N1237 1.314 . S
C1240 C1238 1.353 . S
C1240 H1298 0.930 . S
C1241 N1237 1.279 . S
C1241 C1239 1.358 . S
C1241 H1299 0.930 . S
C1242 C1245 1.348 . S
C1242 C1246 1.356 . S
C1242 O1293 1.325 . S
C1243 N1244 1.279 . S
C1243 C1246 1.358 . S
C1243 H1300 0.930 . S
N1244 C1243 1.279 . S
N1244 C1247 1.314 . S
C1245 C1242 1.348 . S
C1245 C1247 1.353 . S
C1245 H1301 0.929 . S
C1246 C1242 1.356 . S
C1246 C1243 1.358 . S
C1246 H1302 0.930 . S
C1247 N1244 1.314 . S
C1247 C1245 1.353 . S
C1247 H1303 0.930 . S
C1248 N1249 1.314 . S
C1248 C1253 1.353 . S
C1248 H1254 0.930 . S
N1249 Li1232 1.990 . S
N1249 C1248 1.314 . S
N1249 C1251 1.279 . S
C1250 C1251 1.358 . S
C1250 C1252 1.356 . S
C1250 H1304 0.930 . S
C1251 N1249 1.279 . S
C1251 C1250 1.358 . S
C1251 H1255 0.930 . S
C1252 C1250 1.356 . S
C1252 C1253 1.348 . S
C1253 C1248 1.353 . S
C1253 C1252 1.348 . S
C1253 H1305 0.929 . S
H1254 C1248 0.930 . S
H1255 C1251 0.930 . S
C1256 N1257 1.314 . S
C1256 C1258 1.353 . S
C1256 H1262 0.930 . S
N1257 Li1233 1.990 . S
N1257 C1256 1.314 . S
N1257 C1260 1.279 . S
C1258 C1256 1.353 . S
C1258 C1261 1.348 . S
C1258 H1306 0.929 . S
C1259 C1260 1.358 . S
C1259 C1261 1.356 . S
C1259 H1307 0.930 . S
C1260 N1257 1.279 . S
C1260 C1259 1.358 . S
C1260 H1263 0.930 . S
C1261 C1258 1.348 . S
C1261 C1259 1.356 . S
H1262 C1256 0.930 . S
H1263 C1260 0.930 . S
C1264 C1266 1.348 . S
C1264 C1267 1.356 . S
C1264 O1294 1.325 . S
N1265 C1268 1.314 . S
N1265 C1269 1.279 . S
C1266 C1264 1.348 . S
C1266 C1268 1.353 . S
C1266 H1308 0.929 . S
C1267 C1264 1.356 . S
C1267 C1269 1.358 . S
C1267 H1309 0.930 . S
C1268 N1265 1.314 . S
C1268 C1266 1.353 . S
C1268 H1310 0.930 . S
C1269 N1265 1.279 . S
C1269 C1267 1.358 . S
C1269 H1311 0.930 . S
C1270 C1271 1.348 . S
C1270 C1272 1.356 . S
C1270 O1295 1.325 . S
C1271 C1270 1.348 . S
C1271 C1273 1.353 . S
C1271 H1312 0.929 . S
C1272 C1270 1.356 . S
C1272 C1274 1.358 . S
C1272 H1313 0.930 . S
C1273 C1271 1.353 . S
C1273 N1275 1.314 . S
C1273 H1314 0.930 . S
C1274 C1272 1.358 . S
C1274 N1275 1.279 . S
C1274 H1315 0.930 . S
N1275 C1273 1.314 . S
N1275 C1274 1.279 . S
C1276 C1278 1.353 . S
C1276 N1279 1.314 . S
C1276 H1282 0.930 . S
C1277 N1279 1.279 . S
C1277 C1280 1.358 . S
C1277 H1283 0.930 . S
C1278 C1276 1.353 . S
C1278 C1281 1.348 . S
C1278 H1316 0.929 . S
N1279 Li1234 1.990 . S
N1279 C1276 1.314 . S
N1279 C1277 1.279 . S
C1280 C1277 1.358 . S
C1280 C1281 1.356 . S
C1280 H1317 0.930 . S
C1281 C1278 1.348 . S
C1281 C1280 1.356 . S
H1282 C1276 0.930 . S
H1283 C1277 0.930 . S
C1284 N1285 1.314 . S
C1284 C1286 1.353 . S
C1284 H1290 0.930 . S
N1285 Li1235 1.990 . S
N1285 C1284 1.314 . S
N1285 C1288 1.279 . S
C1286 C1284 1.353 . S
C1286 C1289 1.348 . S
C1286 H1318 0.929 . S
C1287 C1288 1.358 . S
C1287 C1289 1.356 . S
C1287 H1319 0.930 . S
C1288 N1285 1.279 . S
C1288 C1287 1.358 . S
C1288 H1291 0.930 . S
C1289 C1286 1.348 . S
C1289 C1287 1.356 . S
H1290 C1284 0.930 . S
H1291 C1288 0.930 . S
O1292 Li1232 1.956 . S
O1292 Li1233 1.970 . S
O1292 Li1234 1.961 . S
O1292 C1236 1.325 . S
O1293 Li1232 1.970 . S
O1293 Li1233 1.956 . S
O1293 Li1235 1.961 . S
O1293 C1242 1.325 . S
O1294 Li1232 1.961 . S
O1294 Li1234 1.956 . S
O1294 Li1235 1.970 . S
O1294 C1264 1.325 . S
O1295 Li1233 1.961 . S
O1295 Li1234 1.970 . S
O1295 Li1235 1.956 . S
O1295 C1270 1.325 . S
H1296 C1238 0.929 . S
H1297 C1239 0.930 . S
H1298 C1240 0.930 . S
H1299 C1241 0.930 . S
H1300 C1243 0.930 . S
H1301 C1245 0.929 . S
H1302 C1246 0.930 . S
H1303 C1247 0.930 . S
H1304 C1250 0.930 . S
H1305 C1253 0.929 . S
H1306 C1258 0.929 . S
H1307 C1259 0.930 . S
H1308 C1266 0.929 . S
H1309 C1267 0.930 . S
H1310 C1268 0.930 . S
H1311 C1269 0.930 . S
H1312 C1271 0.929 . S
H1313 C1272 0.930 . S
H1314 C1273 0.930 . S
H1315 C1274 0.930 . S
H1316 C1278 0.929 . S
H1317 C1280 0.930 . S
H1318 C1286 0.929 . S
H1319 C1287 0.930 . S
Li1320 N1337 1.990 . S
Li1320 O1380 1.956 . S
Li1320 O1381 1.970 . S
Li1320 O1382 1.961 . S
Li1321 N1345 1.990 . S
Li1321 O1380 1.970 . S
Li1321 O1381 1.956 . S
Li1321 O1383 1.961 . S
Li1322 N1367 1.990 . S
Li1322 O1380 1.961 . S
Li1322 O1382 1.956 . S
Li1322 O1383 1.970 . S
Li1323 N1373 1.990 . S
Li1323 O1381 1.961 . S
Li1323 O1382 1.970 . S
Li1323 O1383 1.956 . S
C1324 C1326 1.348 . S
C1324 C1327 1.356 . S
C1324 O1380 1.325 . S
N1325 C1328 1.314 . S
N1325 C1329 1.279 . S
C1326 C1324 1.348 . S
C1326 C1328 1.353 . S
C1326 H1384 0.929 . S
C1327 C1324 1.356 . S
C1327 C1329 1.358 . S
C1327 H1385 0.930 . S
C1328 N1325 1.314 . S
C1328 C1326 1.353 . S
C1328 H1386 0.930 . S
C1329 N1325 1.279 . S
C1329 C1327 1.358 . S
C1329 H1387 0.930 . S
C1330 C1333 1.348 . S
C1330 C1334 1.356 . S
C1330 O1381 1.325 . S
C1331 N1332 1.279 . S
C1331 C1334 1.358 . S
C1331 H1388 0.930 . S
N1332 C1331 1.279 . S
N1332 C1335 1.314 . S
C1333 C1330 1.348 . S
C1333 C1335 1.353 . S
C1333 H1389 0.929 . S
C1334 C1330 1.356 . S
C1334 C1331 1.358 . S
C1334 H1390 0.930 . S
C1335 N1332 1.314 . S
C1335 C1333 1.353 . S
C1335 H1391 0.930 . S
C1336 N1337 1.314 . S
C1336 C1341 1.353 . S
C1336 H1342 0.930 . S
N1337 Li1320 1.990 . S
N1337 C1336 1.314 . S
N1337 C1339 1.279 . S
C1338 C1339 1.358 . S
C1338 C1340 1.356 . S
C1338 H1392 0.930 . S
C1339 N1337 1.279 . S
C1339 C1338 1.358 . S
C1339 H1343 0.930 . S
C1340 C1338 1.356 . S
C1340 C1341 1.348 . S
C1341 C1336 1.353 . S
C1341 C1340 1.348 . S
C1341 H1393 0.929 . S
H1342 C1336 0.930 . S
H1343 C1339 0.930 . S
C1344 N1345 1.314 . S
C1344 C1346 1.353 . S
C1344 H1350 0.930 . S
N1345 Li1321 1.990 . S
N1345 C1344 1.314 . S
N1345 C1348 1.279 . S
C1346 C1344 1.353 . S
C1346 C1349 1.348 . S
C1346 H1394 0.929 . S
C1347 C1348 1.358 . S
C1347 C1349 1.356 . S
C1347 H1395 0.930 . S
C1348 N1345 1.279 . S
C1348 C1347 1.358 . S
C1348 H1351 0.930 . S
C1349 C1346 1.348 . S
C1349 C1347 1.356 . S
H1350 C1344 0.930 . S
H1351 C1348 0.930 . S
C1352 C1354 1.348 . S
C1352 C1355 1.356 . S
C1352 O1382 1.325 . S
N1353 C1356 1.314 . S
N1353 C1357 1.279 . S
C1354 C1352 1.348 . S
C1354 C1356 1.353 . S
C1354 H1396 0.929 . S
C1355 C1352 1.356 . S
C1355 C1357 1.358 . S
C1355 H1397 0.930 . S
C1356 N1353 1.314 . S
C1356 C1354 1.353 . S
C1356 H1398 0.930 . S
C1357 N1353 1.279 . S
C1357 C1355 1.358 . S
C1357 H1399 0.930 . S
C1358 C1359 1.348 . S
C1358 C1360 1.356 . S
C1358 O1383 1.325 . S
C1359 C1358 1.348 . S
C1359 C1361 1.353 . S
C1359 H1400 0.929 . S
C1360 C1358 1.356 . S
C1360 C1362 1.358 . S
C1360 H1401 0.930 . S
C1361 C1359 1.353 . S
C1361 N1363 1.314 . S
C1361 H1402 0.930 . S
C1362 C1360 1.358 . S
C1362 N1363 1.279 . S
C1362 H1403 0.930 . S
N1363 C1361 1.314 . S
N1363 C1362 1.279 . S
C1364 C1366 1.353 . S
C1364 N1367 1.314 . S
C1364 H1370 0.930 . S
C1365 N1367 1.279 . S
C1365 C1368 1.358 . S
C1365 H1371 0.930 . S
C1366 C1364 1.353 . S
C1366 C1369 1.348 . S
C1366 H1404 0.929 . S
N1367 Li1322 1.990 . S
N1367 C1364 1.314 . S
N1367 C1365 1.279 . S
C1368 C1365 1.358 . S
C1368 C1369 1.356 . S
C1368 H1405 0.930 . S
C1369 C1366 1.348 . S
C1369 C1368 1.356 . S
H1370 C1364 0.930 . S
H1371 C1365 0.930 . S
C1372 N1373 1.314 . S
C1372 C1374 1.353 . S
C1372 H1378 0.930 . S
N1373 Li1323 1.990 . S
N1373 C1372 1.314 . S
N1373 C1376 1.279 . S
C1374 C1372 1.353 . S
C1374 C1377 1.348 . S
C1374 H1406 0.929 . S
C1375 C1376 1.358 . S
C1375 C1377 1.356 . S
C1375 H1407 0.930 . S
C1376 N1373 1.279 . S
C1376 C1375 1.358 . S
C1376 H1379 0.930 . S
C1377 C1374 1.348 . S
C1377 C1375 1.356 . S
H1378 C1372 0.930 . S
H1379 C1376 0.930 . S
O1380 Li1320 1.956 . S
O1380 Li1321 1.970 . S
O1380 Li1322 1.961 . S
O1380 C1324 1.325 . S
O1381 Li1320 1.970 . S
O1381 Li1321 1.956 . S
O1381 Li1323 1.961 . S
O1381 C1330 1.325 . S
O1382 Li1320 1.961 . S
O1382 Li1322 1.956 . S
O1382 Li1323 1.970 . S
O1382 C1352 1.325 . S
O1383 Li1321 1.961 . S
O1383 Li1322 1.970 . S
O1383 Li1323 1.956 . S
O1383 C1358 1.325 . S
H1384 C1326 0.929 . S
H1385 C1327 0.930 . S
H1386 C1328 0.930 . S
H1387 C1329 0.930 . S
H1388 C1331 0.930 . S
H1389 C1333 0.929 . S
H1390 C1334 0.930 . S
H1391 C1335 0.930 . S
H1392 C1338 0.930 . S
H1393 C1341 0.929 . S
H1394 C1346 0.929 . S
H1395 C1347 0.930 . S
H1396 C1354 0.929 . S
H1397 C1355 0.930 . S
H1398 C1356 0.930 . S
H1399 C1357 0.930 . S
H1400 C1359 0.929 . S
H1401 C1360 0.930 . S
H1402 C1361 0.930 . S
H1403 C1362 0.930 . S
H1404 C1366 0.929 . S
H1405 C1368 0.930 . S
H1406 C1374 0.929 . S
H1407 C1375 0.930 . S
Li1408 N1425 1.990 . S
Li1408 O1468 1.956 . S
Li1408 O1469 1.970 . S
Li1408 O1470 1.961 . S
Li1409 N1433 1.990 . S
Li1409 O1468 1.970 . S
Li1409 O1469 1.956 . S
Li1409 O1471 1.961 . S
Li1410 N1455 1.990 . S
Li1410 O1468 1.961 . S
Li1410 O1470 1.956 . S
Li1410 O1471 1.970 . S
Li1411 N1461 1.990 . S
Li1411 O1469 1.961 . S
Li1411 O1470 1.970 . S
Li1411 O1471 1.956 . S
C1412 C1414 1.348 . S
C1412 C1415 1.356 . S
C1412 O1468 1.325 . S
N1413 C1416 1.314 . S
N1413 C1417 1.279 . S
C1414 C1412 1.348 . S
C1414 C1416 1.353 . S
C1414 H1472 0.929 . S
C1415 C1412 1.356 . S
C1415 C1417 1.358 . S
C1415 H1473 0.930 . S
C1416 N1413 1.314 . S
C1416 C1414 1.353 . S
C1416 H1474 0.930 . S
C1417 N1413 1.279 . S
C1417 C1415 1.358 . S
C1417 H1475 0.930 . S
C1418 C1421 1.348 . S
C1418 C1422 1.356 . S
C1418 O1469 1.325 . S
C1419 N1420 1.279 . S
C1419 C1422 1.358 . S
C1419 H1476 0.930 . S
N1420 C1419 1.279 . S
N1420 C1423 1.314 . S
C1421 C1418 1.348 . S
C1421 C1423 1.353 . S
C1421 H1477 0.929 . S
C1422 C1418 1.356 . S
C1422 C1419 1.358 . S
C1422 H1478 0.930 . S
C1423 N1420 1.314 . S
C1423 C1421 1.353 . S
C1423 H1479 0.930 . S
C1424 N1425 1.314 . S
C1424 C1429 1.353 . S
C1424 H1430 0.930 . S
N1425 Li1408 1.990 . S
N1425 C1424 1.314 . S
N1425 C1427 1.279 . S
C1426 C1427 1.358 . S
C1426 C1428 1.356 . S
C1426 H1480 0.930 . S
C1427 N1425 1.279 . S
C1427 C1426 1.358 . S
C1427 H1431 0.930 . S
C1428 C1426 1.356 . S
C1428 C1429 1.348 . S
C1429 C1424 1.353 . S
C1429 C1428 1.348 . S
C1429 H1481 0.929 . S
H1430 C1424 0.930 . S
H1431 C1427 0.930 . S
C1432 N1433 1.314 . S
C1432 C1434 1.353 . S
C1432 H1438 0.930 . S
N1433 Li1409 1.990 . S
N1433 C1432 1.314 . S
N1433 C1436 1.279 . S
C1434 C1432 1.353 . S
C1434 C1437 1.348 . S
C1434 H1482 0.929 . S
C1435 C1436 1.358 . S
C1435 C1437 1.356 . S
C1435 H1483 0.930 . S
C1436 N1433 1.279 . S
C1436 C1435 1.358 . S
C1436 H1439 0.930 . S
C1437 C1434 1.348 . S
C1437 C1435 1.356 . S
H1438 C1432 0.930 . S
H1439 C1436 0.930 . S
C1440 C1442 1.348 . S
C1440 C1443 1.356 . S
C1440 O1470 1.325 . S
N1441 C1444 1.314 . S
N1441 C1445 1.279 . S
C1442 C1440 1.348 . S
C1442 C1444 1.353 . S
C1442 H1484 0.929 . S
C1443 C1440 1.356 . S
C1443 C1445 1.358 . S
C1443 H1485 0.930 . S
C1444 N1441 1.314 . S
C1444 C1442 1.353 . S
C1444 H1486 0.930 . S
C1445 N1441 1.279 . S
C1445 C1443 1.358 . S
C1445 H1487 0.930 . S
C1446 C1447 1.348 . S
C1446 C1448 1.356 . S
C1446 O1471 1.325 . S
C1447 C1446 1.348 . S
C1447 C1449 1.353 . S
C1447 H1488 0.929 . S
C1448 C1446 1.356 . S
C1448 C1450 1.358 . S
C1448 H1489 0.930 . S
C1449 C1447 1.353 . S
C1449 N1451 1.314 . S
C1449 H1490 0.930 . S
C1450 C1448 1.358 . S
C1450 N1451 1.279 . S
C1450 H1491 0.930 . S
N1451 C1449 1.314 . S
N1451 C1450 1.279 . S
C1452 C1454 1.353 . S
C1452 N1455 1.314 . S
C1452 H1458 0.930 . S
C1453 N1455 1.279 . S
C1453 C1456 1.358 . S
C1453 H1459 0.930 . S
C1454 C1452 1.353 . S
C1454 C1457 1.348 . S
C1454 H1492 0.929 . S
N1455 Li1410 1.990 . S
N1455 C1452 1.314 . S
N1455 C1453 1.279 . S
C1456 C1453 1.358 . S
C1456 C1457 1.356 . S
C1456 H1493 0.930 . S
C1457 C1454 1.348 . S
C1457 C1456 1.356 . S
H1458 C1452 0.930 . S
H1459 C1453 0.930 . S
C1460 N1461 1.314 . S
C1460 C1462 1.353 . S
C1460 H1466 0.930 . S
N1461 Li1411 1.990 . S
N1461 C1460 1.314 . S
N1461 C1464 1.279 . S
C1462 C1460 1.353 . S
C1462 C1465 1.348 . S
C1462 H1494 0.929 . S
C1463 C1464 1.358 . S
C1463 C1465 1.356 . S
C1463 H1495 0.930 . S
C1464 N1461 1.279 . S
C1464 C1463 1.358 . S
C1464 H1467 0.930 . S
C1465 C1462 1.348 . S
C1465 C1463 1.356 . S
H1466 C1460 0.930 . S
H1467 C1464 0.930 . S
O1468 Li1408 1.956 . S
O1468 Li1409 1.970 . S
O1468 Li1410 1.961 . S
O1468 C1412 1.325 . S
O1469 Li1408 1.970 . S
O1469 Li1409 1.956 . S
O1469 Li1411 1.961 . S
O1469 C1418 1.325 . S
O1470 Li1408 1.961 . S
O1470 Li1410 1.956 . S
O1470 Li1411 1.970 . S
O1470 C1440 1.325 . S
O1471 Li1409 1.961 . S
O1471 Li1410 1.970 . S
O1471 Li1411 1.956 . S
O1471 C1446 1.325 . S
H1472 C1414 0.929 . S
H1473 C1415 0.930 . S
H1474 C1416 0.930 . S
H1475 C1417 0.930 . S
H1476 C1419 0.930 . S
H1477 C1421 0.929 . S
H1478 C1422 0.930 . S
H1479 C1423 0.930 . S
H1480 C1426 0.930 . S
H1481 C1429 0.929 . S
H1482 C1434 0.929 . S
H1483 C1435 0.930 . S
H1484 C1442 0.929 . S
H1485 C1443 0.930 . S
H1486 C1444 0.930 . S
H1487 C1445 0.930 . S
H1488 C1447 0.929 . S
H1489 C1448 0.930 . S
H1490 C1449 0.930 . S
H1491 C1450 0.930 . S
H1492 C1454 0.929 . S
H1493 C1456 0.930 . S
H1494 C1462 0.929 . S
H1495 C1463 0.930 . S
Li1496 N1513 1.990 . S
Li1496 O1556 1.956 . S
Li1496 O1557 1.970 . S
Li1496 O1558 1.961 . S
Li1497 N1521 1.990 . S
Li1497 O1556 1.970 . S
Li1497 O1557 1.956 . S
Li1497 O1559 1.961 . S
Li1498 N1543 1.990 . S
Li1498 O1556 1.961 . S
Li1498 O1558 1.956 . S
Li1498 O1559 1.970 . S
Li1499 N1549 1.990 . S
Li1499 O1557 1.961 . S
Li1499 O1558 1.970 . S
Li1499 O1559 1.956 . S
C1500 C1502 1.348 . S
C1500 C1503 1.356 . S
C1500 O1556 1.325 . S
N1501 C1504 1.314 . S
N1501 C1505 1.279 . S
C1502 C1500 1.348 . S
C1502 C1504 1.353 . S
C1502 H1560 0.929 . S
C1503 C1500 1.356 . S
C1503 C1505 1.358 . S
C1503 H1561 0.930 . S
C1504 N1501 1.314 . S
C1504 C1502 1.353 . S
C1504 H1562 0.930 . S
C1505 N1501 1.279 . S
C1505 C1503 1.358 . S
C1505 H1563 0.930 . S
C1506 C1509 1.348 . S
C1506 C1510 1.356 . S
C1506 O1557 1.325 . S
C1507 N1508 1.279 . S
C1507 C1510 1.358 . S
C1507 H1564 0.930 . S
N1508 C1507 1.279 . S
N1508 C1511 1.314 . S
C1509 C1506 1.348 . S
C1509 C1511 1.353 . S
C1509 H1565 0.929 . S
C1510 C1506 1.356 . S
C1510 C1507 1.358 . S
C1510 H1566 0.930 . S
C1511 N1508 1.314 . S
C1511 C1509 1.353 . S
C1511 H1567 0.930 . S
C1512 N1513 1.314 . S
C1512 C1517 1.353 . S
C1512 H1518 0.930 . S
N1513 Li1496 1.990 . S
N1513 C1512 1.314 . S
N1513 C1515 1.279 . S
C1514 C1515 1.358 . S
C1514 C1516 1.356 . S
C1514 H1568 0.930 . S
C1515 N1513 1.279 . S
C1515 C1514 1.358 . S
C1515 H1519 0.930 . S
C1516 C1514 1.356 . S
C1516 C1517 1.348 . S
C1517 C1512 1.353 . S
C1517 C1516 1.348 . S
C1517 H1569 0.929 . S
H1518 C1512 0.930 . S
H1519 C1515 0.930 . S
C1520 N1521 1.314 . S
C1520 C1522 1.353 . S
C1520 H1526 0.930 . S
N1521 Li1497 1.990 . S
N1521 C1520 1.314 . S
N1521 C1524 1.279 . S
C1522 C1520 1.353 . S
C1522 C1525 1.348 . S
C1522 H1570 0.929 . S
C1523 C1524 1.358 . S
C1523 C1525 1.356 . S
C1523 H1571 0.930 . S
C1524 N1521 1.279 . S
C1524 C1523 1.358 . S
C1524 H1527 0.930 . S
C1525 C1522 1.348 . S
C1525 C1523 1.356 . S
H1526 C1520 0.930 . S
H1527 C1524 0.930 . S
C1528 C1530 1.348 . S
C1528 C1531 1.356 . S
C1528 O1558 1.325 . S
N1529 C1532 1.314 . S
N1529 C1533 1.279 . S
C1530 C1528 1.348 . S
C1530 C1532 1.353 . S
C1530 H1572 0.929 . S
C1531 C1528 1.356 . S
C1531 C1533 1.358 . S
C1531 H1573 0.930 . S
C1532 N1529 1.314 . S
C1532 C1530 1.353 . S
C1532 H1574 0.930 . S
C1533 N1529 1.279 . S
C1533 C1531 1.358 . S
C1533 H1575 0.930 . S
C1534 C1535 1.348 . S
C1534 C1536 1.356 . S
C1534 O1559 1.325 . S
C1535 C1534 1.348 . S
C1535 C1537 1.353 . S
C1535 H1576 0.929 . S
C1536 C1534 1.356 . S
C1536 C1538 1.358 . S
C1536 H1577 0.930 . S
C1537 C1535 1.353 . S
C1537 N1539 1.314 . S
C1537 H1578 0.930 . S
C1538 C1536 1.358 . S
C1538 N1539 1.279 . S
C1538 H1579 0.930 . S
N1539 C1537 1.314 . S
N1539 C1538 1.279 . S
C1540 C1542 1.353 . S
C1540 N1543 1.314 . S
C1540 H1546 0.930 . S
C1541 N1543 1.279 . S
C1541 C1544 1.358 . S
C1541 H1547 0.930 . S
C1542 C1540 1.353 . S
C1542 C1545 1.348 . S
C1542 H1580 0.929 . S
N1543 Li1498 1.990 . S
N1543 C1540 1.314 . S
N1543 C1541 1.279 . S
C1544 C1541 1.358 . S
C1544 C1545 1.356 . S
C1544 H1581 0.930 . S
C1545 C1542 1.348 . S
C1545 C1544 1.356 . S
H1546 C1540 0.930 . S
H1547 C1541 0.930 . S
C1548 N1549 1.314 . S
C1548 C1550 1.353 . S
C1548 H1554 0.930 . S
N1549 Li1499 1.990 . S
N1549 C1548 1.314 . S
N1549 C1552 1.279 . S
C1550 C1548 1.353 . S
C1550 C1553 1.348 . S
C1550 H1582 0.929 . S
C1551 C1552 1.358 . S
C1551 C1553 1.356 . S
C1551 H1583 0.930 . S
C1552 N1549 1.279 . S
C1552 C1551 1.358 . S
C1552 H1555 0.930 . S
C1553 C1550 1.348 . S
C1553 C1551 1.356 . S
H1554 C1548 0.930 . S
H1555 C1552 0.930 . S
O1556 Li1496 1.956 . S
O1556 Li1497 1.970 . S
O1556 Li1498 1.961 . S
O1556 C1500 1.325 . S
O1557 Li1496 1.970 . S
O1557 Li1497 1.956 . S
O1557 Li1499 1.961 . S
O1557 C1506 1.325 . S
O1558 Li1496 1.961 . S
O1558 Li1498 1.956 . S
O1558 Li1499 1.970 . S
O1558 C1528 1.325 . S
O1559 Li1497 1.961 . S
O1559 Li1498 1.970 . S
O1559 Li1499 1.956 . S
O1559 C1534 1.325 . S
H1560 C1502 0.929 . S
H1561 C1503 0.930 . S
H1562 C1504 0.930 . S
H1563 C1505 0.930 . S
H1564 C1507 0.930 . S
H1565 C1509 0.929 . S
H1566 C1510 0.930 . S
H1567 C1511 0.930 . S
H1568 C1514 0.930 . S
H1569 C1517 0.929 . S
H1570 C1522 0.929 . S
H1571 C1523 0.930 . S
H1572 C1530 0.929 . S
H1573 C1531 0.930 . S
H1574 C1532 0.930 . S
H1575 C1533 0.930 . S
H1576 C1535 0.929 . S
H1577 C1536 0.930 . S
H1578 C1537 0.930 . S
H1579 C1538 0.930 . S
H1580 C1542 0.929 . S
H1581 C1544 0.930 . S
H1582 C1550 0.929 . S
H1583 C1551 0.930 . S
Li1584 N1601 1.990 . S
Li1584 O1644 1.956 . S
Li1584 O1645 1.970 . S
Li1584 O1646 1.961 . S
Li1585 N1609 1.990 . S
Li1585 O1644 1.970 . S
Li1585 O1645 1.956 . S
Li1585 O1647 1.961 . S
Li1586 N1631 1.990 . S
Li1586 O1644 1.961 . S
Li1586 O1646 1.956 . S
Li1586 O1647 1.970 . S
Li1587 N1637 1.990 . S
Li1587 O1645 1.961 . S
Li1587 O1646 1.970 . S
Li1587 O1647 1.956 . S
C1588 C1590 1.348 . S
C1588 C1591 1.356 . S
C1588 O1644 1.325 . S
N1589 C1592 1.314 . S
N1589 C1593 1.279 . S
C1590 C1588 1.348 . S
C1590 C1592 1.353 . S
C1590 H1648 0.929 . S
C1591 C1588 1.356 . S
C1591 C1593 1.358 . S
C1591 H1649 0.930 . S
C1592 N1589 1.314 . S
C1592 C1590 1.353 . S
C1592 H1650 0.930 . S
C1593 N1589 1.279 . S
C1593 C1591 1.358 . S
C1593 H1651 0.930 . S
C1594 C1597 1.348 . S
C1594 C1598 1.356 . S
C1594 O1645 1.325 . S
C1595 N1596 1.279 . S
C1595 C1598 1.358 . S
C1595 H1652 0.930 . S
N1596 C1595 1.279 . S
N1596 C1599 1.314 . S
C1597 C1594 1.348 . S
C1597 C1599 1.353 . S
C1597 H1653 0.929 . S
C1598 C1594 1.356 . S
C1598 C1595 1.358 . S
C1598 H1654 0.930 . S
C1599 N1596 1.314 . S
C1599 C1597 1.353 . S
C1599 H1655 0.930 . S
C1600 N1601 1.314 . S
C1600 C1605 1.353 . S
C1600 H1606 0.930 . S
N1601 Li1584 1.990 . S
N1601 C1600 1.314 . S
N1601 C1603 1.279 . S
C1602 C1603 1.358 . S
C1602 C1604 1.356 . S
C1602 H1656 0.930 . S
C1603 N1601 1.279 . S
C1603 C1602 1.358 . S
C1603 H1607 0.930 . S
C1604 C1602 1.356 . S
C1604 C1605 1.348 . S
C1605 C1600 1.353 . S
C1605 C1604 1.348 . S
C1605 H1657 0.929 . S
H1606 C1600 0.930 . S
H1607 C1603 0.930 . S
C1608 N1609 1.314 . S
C1608 C1610 1.353 . S
C1608 H1614 0.930 . S
N1609 Li1585 1.990 . S
N1609 C1608 1.314 . S
N1609 C1612 1.279 . S
C1610 C1608 1.353 . S
C1610 C1613 1.348 . S
C1610 H1658 0.929 . S
C1611 C1612 1.358 . S
C1611 C1613 1.356 . S
C1611 H1659 0.930 . S
C1612 N1609 1.279 . S
C1612 C1611 1.358 . S
C1612 H1615 0.930 . S
C1613 C1610 1.348 . S
C1613 C1611 1.356 . S
H1614 C1608 0.930 . S
H1615 C1612 0.930 . S
C1616 C1618 1.348 . S
C1616 C1619 1.356 . S
C1616 O1646 1.325 . S
N1617 C1620 1.314 . S
N1617 C1621 1.279 . S
C1618 C1616 1.348 . S
C1618 C1620 1.353 . S
C1618 H1660 0.929 . S
C1619 C1616 1.356 . S
C1619 C1621 1.358 . S
C1619 H1661 0.930 . S
C1620 N1617 1.314 . S
C1620 C1618 1.353 . S
C1620 H1662 0.930 . S
C1621 N1617 1.279 . S
C1621 C1619 1.358 . S
C1621 H1663 0.930 . S
C1622 C1623 1.348 . S
C1622 C1624 1.356 . S
C1622 O1647 1.325 . S
C1623 C1622 1.348 . S
C1623 C1625 1.353 . S
C1623 H1664 0.929 . S
C1624 C1622 1.356 . S
C1624 C1626 1.358 . S
C1624 H1665 0.930 . S
C1625 C1623 1.353 . S
C1625 N1627 1.314 . S
C1625 H1666 0.930 . S
C1626 C1624 1.358 . S
C1626 N1627 1.279 . S
C1626 H1667 0.930 . S
N1627 C1625 1.314 . S
N1627 C1626 1.279 . S
C1628 C1630 1.353 . S
C1628 N1631 1.314 . S
C1628 H1634 0.930 . S
C1629 N1631 1.279 . S
C1629 C1632 1.358 . S
C1629 H1635 0.930 . S
C1630 C1628 1.353 . S
C1630 C1633 1.348 . S
C1630 H1668 0.929 . S
N1631 Li1586 1.990 . S
N1631 C1628 1.314 . S
N1631 C1629 1.279 . S
C1632 C1629 1.358 . S
C1632 C1633 1.356 . S
C1632 H1669 0.930 . S
C1633 C1630 1.348 . S
C1633 C1632 1.356 . S
H1634 C1628 0.930 . S
H1635 C1629 0.930 . S
C1636 N1637 1.314 . S
C1636 C1638 1.353 . S
C1636 H1642 0.930 . S
N1637 Li1587 1.990 . S
N1637 C1636 1.314 . S
N1637 C1640 1.279 . S
C1638 C1636 1.353 . S
C1638 C1641 1.348 . S
C1638 H1670 0.929 . S
C1639 C1640 1.358 . S
C1639 C1641 1.356 . S
C1639 H1671 0.930 . S
C1640 N1637 1.279 . S
C1640 C1639 1.358 . S
C1640 H1643 0.930 . S
C1641 C1638 1.348 . S
C1641 C1639 1.356 . S
H1642 C1636 0.930 . S
H1643 C1640 0.930 . S
O1644 Li1584 1.956 . S
O1644 Li1585 1.970 . S
O1644 Li1586 1.961 . S
O1644 C1588 1.325 . S
O1645 Li1584 1.970 . S
O1645 Li1585 1.956 . S
O1645 Li1587 1.961 . S
O1645 C1594 1.325 . S
O1646 Li1584 1.961 . S
O1646 Li1586 1.956 . S
O1646 Li1587 1.970 . S
O1646 C1616 1.325 . S
O1647 Li1585 1.961 . S
O1647 Li1586 1.970 . S
O1647 Li1587 1.956 . S
O1647 C1622 1.325 . S
H1648 C1590 0.929 . S
H1649 C1591 0.930 . S
H1650 C1592 0.930 . S
H1651 C1593 0.930 . S
H1652 C1595 0.930 . S
H1653 C1597 0.929 . S
H1654 C1598 0.930 . S
H1655 C1599 0.930 . S
H1656 C1602 0.930 . S
H1657 C1605 0.929 . S
H1658 C1610 0.929 . S
H1659 C1611 0.930 . S
H1660 C1618 0.929 . S
H1661 C1619 0.930 . S
H1662 C1620 0.930 . S
H1663 C1621 0.930 . S
H1664 C1623 0.929 . S
H1665 C1624 0.930 . S
H1666 C1625 0.930 . S
H1667 C1626 0.930 . S
H1668 C1630 0.929 . S
H1669 C1632 0.930 . S
H1670 C1638 0.929 . S
H1671 C1639 0.930 . S
Li1672 N1689 1.990 . S
Li1672 O1732 1.956 . S
Li1672 O1733 1.970 . S
Li1672 O1734 1.961 . S
Li1673 N1697 1.990 . S
Li1673 O1732 1.970 . S
Li1673 O1733 1.956 . S
Li1673 O1735 1.961 . S
Li1674 N1719 1.990 . S
Li1674 O1732 1.961 . S
Li1674 O1734 1.956 . S
Li1674 O1735 1.970 . S
Li1675 N1725 1.990 . S
Li1675 O1733 1.961 . S
Li1675 O1734 1.970 . S
Li1675 O1735 1.956 . S
C1676 C1678 1.348 . S
C1676 C1679 1.356 . S
C1676 O1732 1.325 . S
N1677 C1680 1.314 . S
N1677 C1681 1.279 . S
C1678 C1676 1.348 . S
C1678 C1680 1.353 . S
C1678 H1736 0.929 . S
C1679 C1676 1.356 . S
C1679 C1681 1.358 . S
C1679 H1737 0.930 . S
C1680 N1677 1.314 . S
C1680 C1678 1.353 . S
C1680 H1738 0.930 . S
C1681 N1677 1.279 . S
C1681 C1679 1.358 . S
C1681 H1739 0.930 . S
C1682 C1685 1.348 . S
C1682 C1686 1.356 . S
C1682 O1733 1.325 . S
C1683 N1684 1.279 . S
C1683 C1686 1.358 . S
C1683 H1740 0.930 . S
N1684 C1683 1.279 . S
N1684 C1687 1.314 . S
C1685 C1682 1.348 . S
C1685 C1687 1.353 . S
C1685 H1741 0.929 . S
C1686 C1682 1.356 . S
C1686 C1683 1.358 . S
C1686 H1742 0.930 . S
C1687 N1684 1.314 . S
C1687 C1685 1.353 . S
C1687 H1743 0.930 . S
C1688 N1689 1.314 . S
C1688 C1693 1.353 . S
C1688 H1694 0.930 . S
N1689 Li1672 1.990 . S
N1689 C1688 1.314 . S
N1689 C1691 1.279 . S
C1690 C1691 1.358 . S
C1690 C1692 1.356 . S
C1690 H1744 0.930 . S
C1691 N1689 1.279 . S
C1691 C1690 1.358 . S
C1691 H1695 0.930 . S
C1692 C1690 1.356 . S
C1692 C1693 1.348 . S
C1693 C1688 1.353 . S
C1693 C1692 1.348 . S
C1693 H1745 0.929 . S
H1694 C1688 0.930 . S
H1695 C1691 0.930 . S
C1696 N1697 1.314 . S
C1696 C1698 1.353 . S
C1696 H1702 0.930 . S
N1697 Li1673 1.990 . S
N1697 C1696 1.314 . S
N1697 C1700 1.279 . S
C1698 C1696 1.353 . S
C1698 C1701 1.348 . S
C1698 H1746 0.929 . S
C1699 C1700 1.358 . S
C1699 C1701 1.356 . S
C1699 H1747 0.930 . S
C1700 N1697 1.279 . S
C1700 C1699 1.358 . S
C1700 H1703 0.930 . S
C1701 C1698 1.348 . S
C1701 C1699 1.356 . S
H1702 C1696 0.930 . S
H1703 C1700 0.930 . S
C1704 C1706 1.348 . S
C1704 C1707 1.356 . S
C1704 O1734 1.325 . S
N1705 C1708 1.314 . S
N1705 C1709 1.279 . S
C1706 C1704 1.348 . S
C1706 C1708 1.353 . S
C1706 H1748 0.929 . S
C1707 C1704 1.356 . S
C1707 C1709 1.358 . S
C1707 H1749 0.930 . S
C1708 N1705 1.314 . S
C1708 C1706 1.353 . S
C1708 H1750 0.930 . S
C1709 N1705 1.279 . S
C1709 C1707 1.358 . S
C1709 H1751 0.930 . S
C1710 C1711 1.348 . S
C1710 C1712 1.356 . S
C1710 O1735 1.325 . S
C1711 C1710 1.348 . S
C1711 C1713 1.353 . S
C1711 H1752 0.929 . S
C1712 C1710 1.356 . S
C1712 C1714 1.358 . S
C1712 H1753 0.930 . S
C1713 C1711 1.353 . S
C1713 N1715 1.314 . S
C1713 H1754 0.930 . S
C1714 C1712 1.358 . S
C1714 N1715 1.279 . S
C1714 H1755 0.930 . S
N1715 C1713 1.314 . S
N1715 C1714 1.279 . S
C1716 C1718 1.353 . S
C1716 N1719 1.314 . S
C1716 H1722 0.930 . S
C1717 N1719 1.279 . S
C1717 C1720 1.358 . S
C1717 H1723 0.930 . S
C1718 C1716 1.353 . S
C1718 C1721 1.348 . S
C1718 H1756 0.929 . S
N1719 Li1674 1.990 . S
N1719 C1716 1.314 . S
N1719 C1717 1.279 . S
C1720 C1717 1.358 . S
C1720 C1721 1.356 . S
C1720 H1757 0.930 . S
C1721 C1718 1.348 . S
C1721 C1720 1.356 . S
H1722 C1716 0.930 . S
H1723 C1717 0.930 . S
C1724 N1725 1.314 . S
C1724 C1726 1.353 . S
C1724 H1730 0.930 . S
N1725 Li1675 1.990 . S
N1725 C1724 1.314 . S
N1725 C1728 1.279 . S
C1726 C1724 1.353 . S
C1726 C1729 1.348 . S
C1726 H1758 0.929 . S
C1727 C1728 1.358 . S
C1727 C1729 1.356 . S
C1727 H1759 0.930 . S
C1728 N1725 1.279 . S
C1728 C1727 1.358 . S
C1728 H1731 0.930 . S
C1729 C1726 1.348 . S
C1729 C1727 1.356 . S
H1730 C1724 0.930 . S
H1731 C1728 0.930 . S
O1732 Li1672 1.956 . S
O1732 Li1673 1.970 . S
O1732 Li1674 1.961 . S
O1732 C1676 1.325 . S
O1733 Li1672 1.970 . S
O1733 Li1673 1.956 . S
O1733 Li1675 1.961 . S
O1733 C1682 1.325 . S
O1734 Li1672 1.961 . S
O1734 Li1674 1.956 . S
O1734 Li1675 1.970 . S
O1734 C1704 1.325 . S
O1735 Li1673 1.961 . S
O1735 Li1674 1.970 . S
O1735 Li1675 1.956 . S
O1735 C1710 1.325 . S
H1736 C1678 0.929 . S
H1737 C1679 0.930 . S
H1738 C1680 0.930 . S
H1739 C1681 0.930 . S
H1740 C1683 0.930 . S
H1741 C1685 0.929 . S
H1742 C1686 0.930 . S
H1743 C1687 0.930 . S
H1744 C1690 0.930 . S
H1745 C1693 0.929 . S
H1746 C1698 0.929 . S
H1747 C1699 0.930 . S
H1748 C1706 0.929 . S
H1749 C1707 0.930 . S
H1750 C1708 0.930 . S
H1751 C1709 0.930 . S
H1752 C1711 0.929 . S
H1753 C1712 0.930 . S
H1754 C1713 0.930 . S
H1755 C1714 0.930 . S
H1756 C1718 0.929 . S
H1757 C1720 0.930 . S
H1758 C1726 0.929 . S
H1759 C1727 0.930 . S
Li1760 N1777 1.990 . S
Li1760 O1820 1.956 . S
Li1760 O1821 1.970 . S
Li1760 O1822 1.961 . S
Li1761 N1785 1.990 . S
Li1761 O1820 1.970 . S
Li1761 O1821 1.956 . S
Li1761 O1823 1.961 . S
Li1762 N1807 1.990 . S
Li1762 O1820 1.961 . S
Li1762 O1822 1.956 . S
Li1762 O1823 1.970 . S
Li1763 N1813 1.990 . S
Li1763 O1821 1.961 . S
Li1763 O1822 1.970 . S
Li1763 O1823 1.956 . S
C1764 C1766 1.348 . S
C1764 C1767 1.356 . S
C1764 O1820 1.325 . S
N1765 C1768 1.314 . S
N1765 C1769 1.279 . S
C1766 C1764 1.348 . S
C1766 C1768 1.353 . S
C1766 H1824 0.929 . S
C1767 C1764 1.356 . S
C1767 C1769 1.358 . S
C1767 H1825 0.930 . S
C1768 N1765 1.314 . S
C1768 C1766 1.353 . S
C1768 H1826 0.930 . S
C1769 N1765 1.279 . S
C1769 C1767 1.358 . S
C1769 H1827 0.930 . S
C1770 C1773 1.348 . S
C1770 C1774 1.356 . S
C1770 O1821 1.325 . S
C1771 N1772 1.279 . S
C1771 C1774 1.358 . S
C1771 H1828 0.930 . S
N1772 C1771 1.279 . S
N1772 C1775 1.314 . S
C1773 C1770 1.348 . S
C1773 C1775 1.353 . S
C1773 H1829 0.929 . S
C1774 C1770 1.356 . S
C1774 C1771 1.358 . S
C1774 H1830 0.930 . S
C1775 N1772 1.314 . S
C1775 C1773 1.353 . S
C1775 H1831 0.930 . S
C1776 N1777 1.314 . S
C1776 C1781 1.353 . S
C1776 H1782 0.930 . S
N1777 Li1760 1.990 . S
N1777 C1776 1.314 . S
N1777 C1779 1.279 . S
C1778 C1779 1.358 . S
C1778 C1780 1.356 . S
C1778 H1832 0.930 . S
C1779 N1777 1.279 . S
C1779 C1778 1.358 . S
C1779 H1783 0.930 . S
C1780 C1778 1.356 . S
C1780 C1781 1.348 . S
C1781 C1776 1.353 . S
C1781 C1780 1.348 . S
C1781 H1833 0.929 . S
H1782 C1776 0.930 . S
H1783 C1779 0.930 . S
C1784 N1785 1.314 . S
C1784 C1786 1.353 . S
C1784 H1790 0.930 . S
N1785 Li1761 1.990 . S
N1785 C1784 1.314 . S
N1785 C1788 1.279 . S
C1786 C1784 1.353 . S
C1786 C1789 1.348 . S
C1786 H1834 0.929 . S
C1787 C1788 1.358 . S
C1787 C1789 1.356 . S
C1787 H1835 0.930 . S
C1788 N1785 1.279 . S
C1788 C1787 1.358 . S
C1788 H1791 0.930 . S
C1789 C1786 1.348 . S
C1789 C1787 1.356 . S
H1790 C1784 0.930 . S
H1791 C1788 0.930 . S
C1792 C1794 1.348 . S
C1792 C1795 1.356 . S
C1792 O1822 1.325 . S
N1793 C1796 1.314 . S
N1793 C1797 1.279 . S
C1794 C1792 1.348 . S
C1794 C1796 1.353 . S
C1794 H1836 0.929 . S
C1795 C1792 1.356 . S
C1795 C1797 1.358 . S
C1795 H1837 0.930 . S
C1796 N1793 1.314 . S
C1796 C1794 1.353 . S
C1796 H1838 0.930 . S
C1797 N1793 1.279 . S
C1797 C1795 1.358 . S
C1797 H1839 0.930 . S
C1798 C1799 1.348 . S
C1798 C1800 1.356 . S
C1798 O1823 1.325 . S
C1799 C1798 1.348 . S
C1799 C1801 1.353 . S
C1799 H1840 0.929 . S
C1800 C1798 1.356 . S
C1800 C1802 1.358 . S
C1800 H1841 0.930 . S
C1801 C1799 1.353 . S
C1801 N1803 1.314 . S
C1801 H1842 0.930 . S
C1802 C1800 1.358 . S
C1802 N1803 1.279 . S
C1802 H1843 0.930 . S
N1803 C1801 1.314 . S
N1803 C1802 1.279 . S
C1804 C1806 1.353 . S
C1804 N1807 1.314 . S
C1804 H1810 0.930 . S
C1805 N1807 1.279 . S
C1805 C1808 1.358 . S
C1805 H1811 0.930 . S
C1806 C1804 1.353 . S
C1806 C1809 1.348 . S
C1806 H1844 0.929 . S
N1807 Li1762 1.990 . S
N1807 C1804 1.314 . S
N1807 C1805 1.279 . S
C1808 C1805 1.358 . S
C1808 C1809 1.356 . S
C1808 H1845 0.930 . S
C1809 C1806 1.348 . S
C1809 C1808 1.356 . S
H1810 C1804 0.930 . S
H1811 C1805 0.930 . S
C1812 N1813 1.314 . S
C1812 C1814 1.353 . S
C1812 H1818 0.930 . S
N1813 Li1763 1.990 . S
N1813 C1812 1.314 . S
N1813 C1816 1.279 . S
C1814 C1812 1.353 . S
C1814 C1817 1.348 . S
C1814 H1846 0.929 . S
C1815 C1816 1.358 . S
C1815 C1817 1.356 . S
C1815 H1847 0.930 . S
C1816 N1813 1.279 . S
C1816 C1815 1.358 . S
C1816 H1819 0.930 . S
C1817 C1814 1.348 . S
C1817 C1815 1.356 . S
H1818 C1812 0.930 . S
H1819 C1816 0.930 . S
O1820 Li1760 1.956 . S
O1820 Li1761 1.970 . S
O1820 Li1762 1.961 . S
O1820 C1764 1.325 . S
O1821 Li1760 1.970 . S
O1821 Li1761 1.956 . S
O1821 Li1763 1.961 . S
O1821 C1770 1.325 . S
O1822 Li1760 1.961 . S
O1822 Li1762 1.956 . S
O1822 Li1763 1.970 . S
O1822 C1792 1.325 . S
O1823 Li1761 1.961 . S
O1823 Li1762 1.970 . S
O1823 Li1763 1.956 . S
O1823 C1798 1.325 . S
H1824 C1766 0.929 . S
H1825 C1767 0.930 . S
H1826 C1768 0.930 . S
H1827 C1769 0.930 . S
H1828 C1771 0.930 . S
H1829 C1773 0.929 . S
H1830 C1774 0.930 . S
H1831 C1775 0.930 . S
H1832 C1778 0.930 . S
H1833 C1781 0.929 . S
H1834 C1786 0.929 . S
H1835 C1787 0.930 . S
H1836 C1794 0.929 . S
H1837 C1795 0.930 . S
H1838 C1796 0.930 . S
H1839 C1797 0.930 . S
H1840 C1799 0.929 . S
H1841 C1800 0.930 . S
H1842 C1801 0.930 . S
H1843 C1802 0.930 . S
H1844 C1806 0.929 . S
H1845 C1808 0.930 . S
H1846 C1814 0.929 . S
H1847 C1815 0.930 . S
Li1848 N1865 1.990 . S
Li1848 O1908 1.956 . S
Li1848 O1909 1.970 . S
Li1848 O1910 1.961 . S
Li1849 N1873 1.990 . S
Li1849 O1908 1.970 . S
Li1849 O1909 1.956 . S
Li1849 O1911 1.961 . S
Li1850 N1895 1.990 . S
Li1850 O1908 1.961 . S
Li1850 O1910 1.956 . S
Li1850 O1911 1.970 . S
Li1851 N1901 1.990 . S
Li1851 O1909 1.961 . S
Li1851 O1910 1.970 . S
Li1851 O1911 1.956 . S
C1852 C1854 1.348 . S
C1852 C1855 1.356 . S
C1852 O1908 1.325 . S
N1853 C1856 1.314 . S
N1853 C1857 1.279 . S
C1854 C1852 1.348 . S
C1854 C1856 1.353 . S
C1854 H1912 0.929 . S
C1855 C1852 1.356 . S
C1855 C1857 1.358 . S
C1855 H1913 0.930 . S
C1856 N1853 1.314 . S
C1856 C1854 1.353 . S
C1856 H1914 0.930 . S
C1857 N1853 1.279 . S
C1857 C1855 1.358 . S
C1857 H1915 0.930 . S
C1858 C1861 1.348 . S
C1858 C1862 1.356 . S
C1858 O1909 1.325 . S
C1859 N1860 1.279 . S
C1859 C1862 1.358 . S
C1859 H1916 0.930 . S
N1860 C1859 1.279 . S
N1860 C1863 1.314 . S
C1861 C1858 1.348 . S
C1861 C1863 1.353 . S
C1861 H1917 0.929 . S
C1862 C1858 1.356 . S
C1862 C1859 1.358 . S
C1862 H1918 0.930 . S
C1863 N1860 1.314 . S
C1863 C1861 1.353 . S
C1863 H1919 0.930 . S
C1864 N1865 1.314 . S
C1864 C1869 1.353 . S
C1864 H1870 0.930 . S
N1865 Li1848 1.990 . S
N1865 C1864 1.314 . S
N1865 C1867 1.279 . S
C1866 C1867 1.358 . S
C1866 C1868 1.356 . S
C1866 H1920 0.930 . S
C1867 N1865 1.279 . S
C1867 C1866 1.358 . S
C1867 H1871 0.930 . S
C1868 C1866 1.356 . S
C1868 C1869 1.348 . S
C1869 C1864 1.353 . S
C1869 C1868 1.348 . S
C1869 H1921 0.929 . S
H1870 C1864 0.930 . S
H1871 C1867 0.930 . S
C1872 N1873 1.314 . S
C1872 C1874 1.353 . S
C1872 H1878 0.930 . S
N1873 Li1849 1.990 . S
N1873 C1872 1.314 . S
N1873 C1876 1.279 . S
C1874 C1872 1.353 . S
C1874 C1877 1.348 . S
C1874 H1922 0.929 . S
C1875 C1876 1.358 . S
C1875 C1877 1.356 . S
C1875 H1923 0.930 . S
C1876 N1873 1.279 . S
C1876 C1875 1.358 . S
C1876 H1879 0.930 . S
C1877 C1874 1.348 . S
C1877 C1875 1.356 . S
H1878 C1872 0.930 . S
H1879 C1876 0.930 . S
C1880 C1882 1.348 . S
C1880 C1883 1.356 . S
C1880 O1910 1.325 . S
N1881 C1884 1.314 . S
N1881 C1885 1.279 . S
C1882 C1880 1.348 . S
C1882 C1884 1.353 . S
C1882 H1924 0.929 . S
C1883 C1880 1.356 . S
C1883 C1885 1.358 . S
C1883 H1925 0.930 . S
C1884 N1881 1.314 . S
C1884 C1882 1.353 . S
C1884 H1926 0.930 . S
C1885 N1881 1.279 . S
C1885 C1883 1.358 . S
C1885 H1927 0.930 . S
C1886 C1887 1.348 . S
C1886 C1888 1.356 . S
C1886 O1911 1.325 . S
C1887 C1886 1.348 . S
C1887 C1889 1.353 . S
C1887 H1928 0.929 . S
C1888 C1886 1.356 . S
C1888 C1890 1.358 . S
C1888 H1929 0.930 . S
C1889 C1887 1.353 . S
C1889 N1891 1.314 . S
C1889 H1930 0.930 . S
C1890 C1888 1.358 . S
C1890 N1891 1.279 . S
C1890 H1931 0.930 . S
N1891 C1889 1.314 . S
N1891 C1890 1.279 . S
C1892 C1894 1.353 . S
C1892 N1895 1.314 . S
C1892 H1898 0.930 . S
C1893 N1895 1.279 . S
C1893 C1896 1.358 . S
C1893 H1899 0.930 . S
C1894 C1892 1.353 . S
C1894 C1897 1.348 . S
C1894 H1932 0.929 . S
N1895 Li1850 1.990 . S
N1895 C1892 1.314 . S
N1895 C1893 1.279 . S
C1896 C1893 1.358 . S
C1896 C1897 1.356 . S
C1896 H1933 0.930 . S
C1897 C1894 1.348 . S
C1897 C1896 1.356 . S
H1898 C1892 0.930 . S
H1899 C1893 0.930 . S
C1900 N1901 1.314 . S
C1900 C1902 1.353 . S
C1900 H1906 0.930 . S
N1901 Li1851 1.990 . S
N1901 C1900 1.314 . S
N1901 C1904 1.279 . S
C1902 C1900 1.353 . S
C1902 C1905 1.348 . S
C1902 H1934 0.929 . S
C1903 C1904 1.358 . S
C1903 C1905 1.356 . S
C1903 H1935 0.930 . S
C1904 N1901 1.279 . S
C1904 C1903 1.358 . S
C1904 H1907 0.930 . S
C1905 C1902 1.348 . S
C1905 C1903 1.356 . S
H1906 C1900 0.930 . S
H1907 C1904 0.930 . S
O1908 Li1848 1.956 . S
O1908 Li1849 1.970 . S
O1908 Li1850 1.961 . S
O1908 C1852 1.325 . S
O1909 Li1848 1.970 . S
O1909 Li1849 1.956 . S
O1909 Li1851 1.961 . S
O1909 C1858 1.325 . S
O1910 Li1848 1.961 . S
O1910 Li1850 1.956 . S
O1910 Li1851 1.970 . S
O1910 C1880 1.325 . S
O1911 Li1849 1.961 . S
O1911 Li1850 1.970 . S
O1911 Li1851 1.956 . S
O1911 C1886 1.325 . S
H1912 C1854 0.929 . S
H1913 C1855 0.930 . S
H1914 C1856 0.930 . S
H1915 C1857 0.930 . S
H1916 C1859 0.930 . S
H1917 C1861 0.929 . S
H1918 C1862 0.930 . S
H1919 C1863 0.930 . S
H1920 C1866 0.930 . S
H1921 C1869 0.929 . S
H1922 C1874 0.929 . S
H1923 C1875 0.930 . S
H1924 C1882 0.929 . S
H1925 C1883 0.930 . S
H1926 C1884 0.930 . S
H1927 C1885 0.930 . S
H1928 C1887 0.929 . S
H1929 C1888 0.930 . S
H1930 C1889 0.930 . S
H1931 C1890 0.930 . S
H1932 C1894 0.929 . S
H1933 C1896 0.930 . S
H1934 C1902 0.929 . S
H1935 C1903 0.930 . S
Li1936 N1953 1.990 . S
Li1936 O1996 1.956 . S
Li1936 O1997 1.970 . S
Li1936 O1998 1.961 . S
Li1937 N1961 1.990 . S
Li1937 O1996 1.970 . S
Li1937 O1997 1.956 . S
Li1937 O1999 1.961 . S
Li1938 N1983 1.990 . S
Li1938 O1996 1.961 . S
Li1938 O1998 1.956 . S
Li1938 O1999 1.970 . S
Li1939 N1989 1.990 . S
Li1939 O1997 1.961 . S
Li1939 O1998 1.970 . S
Li1939 O1999 1.956 . S
C1940 C1942 1.348 . S
C1940 C1943 1.356 . S
C1940 O1996 1.325 . S
N1941 C1944 1.314 . S
N1941 C1945 1.279 . S
C1942 C1940 1.348 . S
C1942 C1944 1.353 . S
C1942 H2000 0.929 . S
C1943 C1940 1.356 . S
C1943 C1945 1.358 . S
C1943 H2001 0.930 . S
C1944 N1941 1.314 . S
C1944 C1942 1.353 . S
C1944 H2002 0.930 . S
C1945 N1941 1.279 . S
C1945 C1943 1.358 . S
C1945 H2003 0.930 . S
C1946 C1949 1.348 . S
C1946 C1950 1.356 . S
C1946 O1997 1.325 . S
C1947 N1948 1.279 . S
C1947 C1950 1.358 . S
C1947 H2004 0.930 . S
N1948 C1947 1.279 . S
N1948 C1951 1.314 . S
C1949 C1946 1.348 . S
C1949 C1951 1.353 . S
C1949 H2005 0.929 . S
C1950 C1946 1.356 . S
C1950 C1947 1.358 . S
C1950 H2006 0.930 . S
C1951 N1948 1.314 . S
C1951 C1949 1.353 . S
C1951 H2007 0.930 . S
C1952 N1953 1.314 . S
C1952 C1957 1.353 . S
C1952 H1958 0.930 . S
N1953 Li1936 1.990 . S
N1953 C1952 1.314 . S
N1953 C1955 1.279 . S
C1954 C1955 1.358 . S
C1954 C1956 1.356 . S
C1954 H2008 0.930 . S
C1955 N1953 1.279 . S
C1955 C1954 1.358 . S
C1955 H1959 0.930 . S
C1956 C1954 1.356 . S
C1956 C1957 1.348 . S
C1957 C1952 1.353 . S
C1957 C1956 1.348 . S
C1957 H2009 0.929 . S
H1958 C1952 0.930 . S
H1959 C1955 0.930 . S
C1960 N1961 1.314 . S
C1960 C1962 1.353 . S
C1960 H1966 0.930 . S
N1961 Li1937 1.990 . S
N1961 C1960 1.314 . S
N1961 C1964 1.279 . S
C1962 C1960 1.353 . S
C1962 C1965 1.348 . S
C1962 H2010 0.929 . S
C1963 C1964 1.358 . S
C1963 C1965 1.356 . S
C1963 H2011 0.930 . S
C1964 N1961 1.279 . S
C1964 C1963 1.358 . S
C1964 H1967 0.930 . S
C1965 C1962 1.348 . S
C1965 C1963 1.356 . S
H1966 C1960 0.930 . S
H1967 C1964 0.930 . S
C1968 C1970 1.348 . S
C1968 C1971 1.356 . S
C1968 O1998 1.325 . S
N1969 C1972 1.314 . S
N1969 C1973 1.279 . S
C1970 C1968 1.348 . S
C1970 C1972 1.353 . S
C1970 H2012 0.929 . S
C1971 C1968 1.356 . S
C1971 C1973 1.358 . S
C1971 H2013 0.930 . S
C1972 N1969 1.314 . S
C1972 C1970 1.353 . S
C1972 H2014 0.930 . S
C1973 N1969 1.279 . S
C1973 C1971 1.358 . S
C1973 H2015 0.930 . S
C1974 C1975 1.348 . S
C1974 C1976 1.356 . S
C1974 O1999 1.325 . S
C1975 C1974 1.348 . S
C1975 C1977 1.353 . S
C1975 H2016 0.929 . S
C1976 C1974 1.356 . S
C1976 C1978 1.358 . S
C1976 H2017 0.930 . S
C1977 C1975 1.353 . S
C1977 N1979 1.314 . S
C1977 H2018 0.930 . S
C1978 C1976 1.358 . S
C1978 N1979 1.279 . S
C1978 H2019 0.930 . S
N1979 C1977 1.314 . S
N1979 C1978 1.279 . S
C1980 C1982 1.353 . S
C1980 N1983 1.314 . S
C1980 H1986 0.930 . S
C1981 N1983 1.279 . S
C1981 C1984 1.358 . S
C1981 H1987 0.930 . S
C1982 C1980 1.353 . S
C1982 C1985 1.348 . S
C1982 H2020 0.929 . S
N1983 Li1938 1.990 . S
N1983 C1980 1.314 . S
N1983 C1981 1.279 . S
C1984 C1981 1.358 . S
C1984 C1985 1.356 . S
C1984 H2021 0.930 . S
C1985 C1982 1.348 . S
C1985 C1984 1.356 . S
H1986 C1980 0.930 . S
H1987 C1981 0.930 . S
C1988 N1989 1.314 . S
C1988 C1990 1.353 . S
C1988 H1994 0.930 . S
N1989 Li1939 1.990 . S
N1989 C1988 1.314 . S
N1989 C1992 1.279 . S
C1990 C1988 1.353 . S
C1990 C1993 1.348 . S
C1990 H2022 0.929 . S
C1991 C1992 1.358 . S
C1991 C1993 1.356 . S
C1991 H2023 0.930 . S
C1992 N1989 1.279 . S
C1992 C1991 1.358 . S
C1992 H1995 0.930 . S
C1993 C1990 1.348 . S
C1993 C1991 1.356 . S
H1994 C1988 0.930 . S
H1995 C1992 0.930 . S
O1996 Li1936 1.956 . S
O1996 Li1937 1.970 . S
O1996 Li1938 1.961 . S
O1996 C1940 1.325 . S
O1997 Li1936 1.970 . S
O1997 Li1937 1.956 . S
O1997 Li1939 1.961 . S
O1997 C1946 1.325 . S
O1998 Li1936 1.961 . S
O1998 Li1938 1.956 . S
O1998 Li1939 1.970 . S
O1998 C1968 1.325 . S
O1999 Li1937 1.961 . S
O1999 Li1938 1.970 . S
O1999 Li1939 1.956 . S
O1999 C1974 1.325 . S
H2000 C1942 0.929 . S
H2001 C1943 0.930 . S
H2002 C1944 0.930 . S
H2003 C1945 0.930 . S
H2004 C1947 0.930 . S
H2005 C1949 0.929 . S
H2006 C1950 0.930 . S
H2007 C1951 0.930 . S
H2008 C1954 0.930 . S
H2009 C1957 0.929 . S
H2010 C1962 0.929 . S
H2011 C1963 0.930 . S
H2012 C1970 0.929 . S
H2013 C1971 0.930 . S
H2014 C1972 0.930 . S
H2015 C1973 0.930 . S
H2016 C1975 0.929 . S
H2017 C1976 0.930 . S
H2018 C1977 0.930 . S
H2019 C1978 0.930 . S
H2020 C1982 0.929 . S
H2021 C1984 0.930 . S
H2022 C1990 0.929 . S
H2023 C1991 0.930 . S
Li2024 N2041 1.990 . S
Li2024 O2084 1.956 . S
Li2024 O2085 1.970 . S
Li2024 O2086 1.961 . S
Li2025 N2049 1.990 . S
Li2025 O2084 1.970 . S
Li2025 O2085 1.956 . S
Li2025 O2087 1.961 . S
Li2026 N2071 1.990 . S
Li2026 O2084 1.961 . S
Li2026 O2086 1.956 . S
Li2026 O2087 1.970 . S
Li2027 N2077 1.990 . S
Li2027 O2085 1.961 . S
Li2027 O2086 1.970 . S
Li2027 O2087 1.956 . S
C2028 C2030 1.348 . S
C2028 C2031 1.356 . S
C2028 O2084 1.325 . S
N2029 C2032 1.314 . S
N2029 C2033 1.279 . S
C2030 C2028 1.348 . S
C2030 C2032 1.353 . S
C2030 H2088 0.929 . S
C2031 C2028 1.356 . S
C2031 C2033 1.358 . S
C2031 H2089 0.930 . S
C2032 N2029 1.314 . S
C2032 C2030 1.353 . S
C2032 H2090 0.930 . S
C2033 N2029 1.279 . S
C2033 C2031 1.358 . S
C2033 H2091 0.930 . S
C2034 C2037 1.348 . S
C2034 C2038 1.356 . S
C2034 O2085 1.325 . S
C2035 N2036 1.279 . S
C2035 C2038 1.358 . S
C2035 H2092 0.930 . S
N2036 C2035 1.279 . S
N2036 C2039 1.314 . S
C2037 C2034 1.348 . S
C2037 C2039 1.353 . S
C2037 H2093 0.929 . S
C2038 C2034 1.356 . S
C2038 C2035 1.358 . S
C2038 H2094 0.930 . S
C2039 N2036 1.314 . S
C2039 C2037 1.353 . S
C2039 H2095 0.930 . S
C2040 N2041 1.314 . S
C2040 C2045 1.353 . S
C2040 H2046 0.930 . S
N2041 Li2024 1.990 . S
N2041 C2040 1.314 . S
N2041 C2043 1.279 . S
C2042 C2043 1.358 . S
C2042 C2044 1.356 . S
C2042 H2096 0.930 . S
C2043 N2041 1.279 . S
C2043 C2042 1.358 . S
C2043 H2047 0.930 . S
C2044 C2042 1.356 . S
C2044 C2045 1.348 . S
C2045 C2040 1.353 . S
C2045 C2044 1.348 . S
C2045 H2097 0.929 . S
H2046 C2040 0.930 . S
H2047 C2043 0.930 . S
C2048 N2049 1.314 . S
C2048 C2050 1.353 . S
C2048 H2054 0.930 . S
N2049 Li2025 1.990 . S
N2049 C2048 1.314 . S
N2049 C2052 1.279 . S
C2050 C2048 1.353 . S
C2050 C2053 1.348 . S
C2050 H2098 0.929 . S
C2051 C2052 1.358 . S
C2051 C2053 1.356 . S
C2051 H2099 0.930 . S
C2052 N2049 1.279 . S
C2052 C2051 1.358 . S
C2052 H2055 0.930 . S
C2053 C2050 1.348 . S
C2053 C2051 1.356 . S
H2054 C2048 0.930 . S
H2055 C2052 0.930 . S
C2056 C2058 1.348 . S
C2056 C2059 1.356 . S
C2056 O2086 1.325 . S
N2057 C2060 1.314 . S
N2057 C2061 1.279 . S
C2058 C2056 1.348 . S
C2058 C2060 1.353 . S
C2058 H2100 0.929 . S
C2059 C2056 1.356 . S
C2059 C2061 1.358 . S
C2059 H2101 0.930 . S
C2060 N2057 1.314 . S
C2060 C2058 1.353 . S
C2060 H2102 0.930 . S
C2061 N2057 1.279 . S
C2061 C2059 1.358 . S
C2061 H2103 0.930 . S
C2062 C2063 1.348 . S
C2062 C2064 1.356 . S
C2062 O2087 1.325 . S
C2063 C2062 1.348 . S
C2063 C2065 1.353 . S
C2063 H2104 0.929 . S
C2064 C2062 1.356 . S
C2064 C2066 1.358 . S
C2064 H2105 0.930 . S
C2065 C2063 1.353 . S
C2065 N2067 1.314 . S
C2065 H2106 0.930 . S
C2066 C2064 1.358 . S
C2066 N2067 1.279 . S
C2066 H2107 0.930 . S
N2067 C2065 1.314 . S
N2067 C2066 1.279 . S
C2068 C2070 1.353 . S
C2068 N2071 1.314 . S
C2068 H2074 0.930 . S
C2069 N2071 1.279 . S
C2069 C2072 1.358 . S
C2069 H2075 0.930 . S
C2070 C2068 1.353 . S
C2070 C2073 1.348 . S
C2070 H2108 0.929 . S
N2071 Li2026 1.990 . S
N2071 C2068 1.314 . S
N2071 C2069 1.279 . S
C2072 C2069 1.358 . S
C2072 C2073 1.356 . S
C2072 H2109 0.930 . S
C2073 C2070 1.348 . S
C2073 C2072 1.356 . S
H2074 C2068 0.930 . S
H2075 C2069 0.930 . S
C2076 N2077 1.314 . S
C2076 C2078 1.353 . S
C2076 H2082 0.930 . S
N2077 Li2027 1.990 . S
N2077 C2076 1.314 . S
N2077 C2080 1.279 . S
C2078 C2076 1.353 . S
C2078 C2081 1.348 . S
C2078 H2110 0.929 . S
C2079 C2080 1.358 . S
C2079 C2081 1.356 . S
C2079 H2111 0.930 . S
C2080 N2077 1.279 . S
C2080 C2079 1.358 . S
C2080 H2083 0.930 . S
C2081 C2078 1.348 . S
C2081 C2079 1.356 . S
H2082 C2076 0.930 . S
H2083 C2080 0.930 . S
O2084 Li2024 1.956 . S
O2084 Li2025 1.970 . S
O2084 Li2026 1.961 . S
O2084 C2028 1.325 . S
O2085 Li2024 1.970 . S
O2085 Li2025 1.956 . S
O2085 Li2027 1.961 . S
O2085 C2034 1.325 . S
O2086 Li2024 1.961 . S
O2086 Li2026 1.956 . S
O2086 Li2027 1.970 . S
O2086 C2056 1.325 . S
O2087 Li2025 1.961 . S
O2087 Li2026 1.970 . S
O2087 Li2027 1.956 . S
O2087 C2062 1.325 . S
H2088 C2030 0.929 . S
H2089 C2031 0.930 . S
H2090 C2032 0.930 . S
H2091 C2033 0.930 . S
H2092 C2035 0.930 . S
H2093 C2037 0.929 . S
H2094 C2038 0.930 . S
H2095 C2039 0.930 . S
H2096 C2042 0.930 . S
H2097 C2045 0.929 . S
H2098 C2050 0.929 . S
H2099 C2051 0.930 . S
H2100 C2058 0.929 . S
H2101 C2059 0.930 . S
H2102 C2060 0.930 . S
H2103 C2061 0.930 . S
H2104 C2063 0.929 . S
H2105 C2064 0.930 . S
H2106 C2065 0.930 . S
H2107 C2066 0.930 . S
H2108 C2070 0.929 . S
H2109 C2072 0.930 . S
H2110 C2078 0.929 . S
H2111 C2079 0.930 . S
C2112 C2113 1.363 . S
C2112 C2118 1.379 . S
C2112 N2120 1.356 . S
C2113 C2112 1.363 . S
C2113 C2119 1.363 . S
C2114 C2115 1.363 . S
C2114 C2119 1.379 . S
C2114 N2121 1.356 . S
C2115 C2114 1.363 . S
C2115 C2118 1.363 . S
N2116 C2118 1.356 . S
N2116 H2128 0.984 . S
N2116 H2129 0.985 . S
N2117 C2119 1.356 . S
N2117 H2122 0.984 . S
N2117 H2123 0.985 . S
C2118 C2112 1.379 . S
C2118 C2115 1.363 . S
C2118 N2116 1.356 . S
C2119 C2113 1.363 . S
C2119 C2114 1.379 . S
C2119 N2117 1.356 . S
N2120 C2112 1.356 . S
N2120 H2126 0.984 . S
N2120 H2127 0.984 . S
N2121 C2114 1.356 . S
N2121 H2124 0.984 . S
N2121 H2125 0.985 . S
H2122 N2117 0.984 . S
H2123 N2117 0.985 . S
H2124 N2121 0.984 . S
H2125 N2121 0.985 . S
H2126 N2120 0.984 . S
H2127 N2120 0.984 . S
H2128 N2116 0.984 . S
H2129 N2116 0.985 . S
C2130 C2131 1.363 . S
C2130 C2136 1.379 . S
C2130 N2138 1.356 . S
C2131 C2130 1.363 . S
C2131 C2137 1.363 . S
C2132 C2133 1.363 . S
C2132 C2137 1.379 . S
C2132 N2139 1.356 . S
C2133 C2132 1.363 . S
C2133 C2136 1.363 . S
N2134 C2136 1.356 . S
N2134 H2146 0.984 . S
N2134 H2147 0.985 . S
N2135 C2137 1.356 . S
N2135 H2140 0.984 . S
N2135 H2141 0.985 . S
C2136 C2130 1.379 . S
C2136 C2133 1.363 . S
C2136 N2134 1.356 . S
C2137 C2131 1.363 . S
C2137 C2132 1.379 . S
C2137 N2135 1.356 . S
N2138 C2130 1.356 . S
N2138 H2144 0.984 . S
N2138 H2145 0.984 . S
N2139 C2132 1.356 . S
N2139 H2142 0.984 . S
N2139 H2143 0.985 . S
H2140 N2135 0.984 . S
H2141 N2135 0.985 . S
H2142 N2139 0.984 . S
H2143 N2139 0.985 . S
H2144 N2138 0.984 . S
H2145 N2138 0.984 . S
H2146 N2134 0.984 . S
H2147 N2134 0.985 . S
C2148 C2149 1.363 . S
C2148 C2154 1.379 . S
C2148 N2156 1.356 . S
C2149 C2148 1.363 . S
C2149 C2155 1.363 . S
C2150 C2151 1.363 . S
C2150 C2155 1.379 . S
C2150 N2157 1.356 . S
C2151 C2150 1.363 . S
C2151 C2154 1.363 . S
N2152 C2154 1.356 . S
N2152 H2164 0.984 . S
N2152 H2165 0.985 . S
N2153 C2155 1.356 . S
N2153 H2158 0.984 . S
N2153 H2159 0.985 . S
C2154 C2148 1.379 . S
C2154 C2151 1.363 . S
C2154 N2152 1.356 . S
C2155 C2149 1.363 . S
C2155 C2150 1.379 . S
C2155 N2153 1.356 . S
N2156 C2148 1.356 . S
N2156 H2162 0.984 . S
N2156 H2163 0.984 . S
N2157 C2150 1.356 . S
N2157 H2160 0.984 . S
N2157 H2161 0.985 . S
H2158 N2153 0.984 . S
H2159 N2153 0.985 . S
H2160 N2157 0.984 . S
H2161 N2157 0.985 . S
H2162 N2156 0.984 . S
H2163 N2156 0.984 . S
H2164 N2152 0.984 . S
H2165 N2152 0.985 . S
C2166 C2167 1.363 . S
C2166 C2172 1.379 . S
C2166 N2174 1.356 . S
C2167 C2166 1.363 . S
C2167 C2173 1.363 . S
C2168 C2169 1.363 . S
C2168 C2173 1.379 . S
C2168 N2175 1.356 . S
C2169 C2168 1.363 . S
C2169 C2172 1.363 . S
N2170 C2172 1.356 . S
N2170 H2182 0.984 . S
N2170 H2183 0.985 . S
N2171 C2173 1.356 . S
N2171 H2176 0.984 . S
N2171 H2177 0.985 . S
C2172 C2166 1.379 . S
C2172 C2169 1.363 . S
C2172 N2170 1.356 . S
C2173 C2167 1.363 . S
C2173 C2168 1.379 . S
C2173 N2171 1.356 . S
N2174 C2166 1.356 . S
N2174 H2180 0.984 . S
N2174 H2181 0.984 . S
N2175 C2168 1.356 . S
N2175 H2178 0.984 . S
N2175 H2179 0.985 . S
H2176 N2171 0.984 . S
H2177 N2171 0.985 . S
H2178 N2175 0.984 . S
H2179 N2175 0.985 . S
H2180 N2174 0.984 . S
H2181 N2174 0.984 . S
H2182 N2170 0.984 . S
H2183 N2170 0.985 . S
C2184 C2185 1.363 . S
C2184 C2190 1.379 . S
C2184 N2192 1.356 . S
C2185 C2184 1.363 . S
C2185 C2191 1.363 . S
C2186 C2187 1.363 . S
C2186 C2191 1.379 . S
C2186 N2193 1.356 . S
C2187 C2186 1.363 . S
C2187 C2190 1.363 . S
N2188 C2190 1.356 . S
N2188 H2200 0.984 . S
N2188 H2201 0.985 . S
N2189 C2191 1.356 . S
N2189 H2194 0.984 . S
N2189 H2195 0.985 . S
C2190 C2184 1.379 . S
C2190 C2187 1.363 . S
C2190 N2188 1.356 . S
C2191 C2185 1.363 . S
C2191 C2186 1.379 . S
C2191 N2189 1.356 . S
N2192 C2184 1.356 . S
N2192 H2198 0.984 . S
N2192 H2199 0.984 . S
N2193 C2186 1.356 . S
N2193 H2196 0.984 . S
N2193 H2197 0.985 . S
H2194 N2189 0.984 . S
H2195 N2189 0.985 . S
H2196 N2193 0.984 . S
H2197 N2193 0.985 . S
H2198 N2192 0.984 . S
H2199 N2192 0.984 . S
H2200 N2188 0.984 . S
H2201 N2188 0.985 . S
C2202 C2203 1.363 . S
C2202 C2208 1.379 . S
C2202 N2210 1.356 . S
C2203 C2202 1.363 . S
C2203 C2209 1.363 . S
C2204 C2205 1.363 . S
C2204 C2209 1.379 . S
C2204 N2211 1.356 . S
C2205 C2204 1.363 . S
C2205 C2208 1.363 . S
N2206 C2208 1.356 . S
N2206 H2218 0.984 . S
N2206 H2219 0.985 . S
N2207 C2209 1.356 . S
N2207 H2212 0.984 . S
N2207 H2213 0.985 . S
C2208 C2202 1.379 . S
C2208 C2205 1.363 . S
C2208 N2206 1.356 . S
C2209 C2203 1.363 . S
C2209 C2204 1.379 . S
C2209 N2207 1.356 . S
N2210 C2202 1.356 . S
N2210 H2216 0.984 . S
N2210 H2217 0.984 . S
N2211 C2204 1.356 . S
N2211 H2214 0.984 . S
N2211 H2215 0.985 . S
H2212 N2207 0.984 . S
H2213 N2207 0.985 . S
H2214 N2211 0.984 . S
H2215 N2211 0.985 . S
H2216 N2210 0.984 . S
H2217 N2210 0.984 . S
H2218 N2206 0.984 . S
H2219 N2206 0.985 . S
C2220 C2221 1.363 . S
C2220 C2226 1.379 . S
C2220 N2228 1.356 . S
C2221 C2220 1.363 . S
C2221 C2227 1.363 . S
C2222 C2223 1.363 . S
C2222 C2227 1.379 . S
C2222 N2229 1.356 . S
C2223 C2222 1.363 . S
C2223 C2226 1.363 . S
N2224 C2226 1.356 . S
N2224 H2236 0.984 . S
N2224 H2237 0.985 . S
N2225 C2227 1.356 . S
N2225 H2230 0.984 . S
N2225 H2231 0.985 . S
C2226 C2220 1.379 . S
C2226 C2223 1.363 . S
C2226 N2224 1.356 . S
C2227 C2221 1.363 . S
C2227 C2222 1.379 . S
C2227 N2225 1.356 . S
N2228 C2220 1.356 . S
N2228 H2234 0.984 . S
N2228 H2235 0.984 . S
N2229 C2222 1.356 . S
N2229 H2232 0.984 . S
N2229 H2233 0.985 . S
H2230 N2225 0.984 . S
H2231 N2225 0.985 . S
H2232 N2229 0.984 . S
H2233 N2229 0.985 . S
H2234 N2228 0.984 . S
H2235 N2228 0.984 . S
H2236 N2224 0.984 . S
H2237 N2224 0.985 . S
C2238 C2239 1.363 . S
C2238 C2244 1.379 . S
C2238 N2246 1.356 . S
C2239 C2238 1.363 . S
C2239 C2245 1.363 . S
C2240 C2241 1.363 . S
C2240 C2245 1.379 . S
C2240 N2247 1.356 . S
C2241 C2240 1.363 . S
C2241 C2244 1.363 . S
N2242 C2244 1.356 . S
N2242 H2254 0.984 . S
N2242 H2255 0.985 . S
N2243 C2245 1.356 . S
N2243 H2248 0.984 . S
N2243 H2249 0.985 . S
C2244 C2238 1.379 . S
C2244 C2241 1.363 . S
C2244 N2242 1.356 . S
C2245 C2239 1.363 . S
C2245 C2240 1.379 . S
C2245 N2243 1.356 . S
N2246 C2238 1.356 . S
N2246 H2252 0.984 . S
N2246 H2253 0.984 . S
N2247 C2240 1.356 . S
N2247 H2250 0.984 . S
N2247 H2251 0.985 . S
H2248 N2243 0.984 . S
H2249 N2243 0.985 . S
H2250 N2247 0.984 . S
H2251 N2247 0.985 . S
H2252 N2246 0.984 . S
H2253 N2246 0.984 . S
H2254 N2242 0.984 . S
H2255 N2242 0.985 . S
C2256 C2257 1.363 . S
C2256 C2262 1.379 . S
C2256 N2264 1.356 . S
C2257 C2256 1.363 . S
C2257 C2263 1.363 . S
C2258 C2259 1.363 . S
C2258 C2263 1.379 . S
C2258 N2265 1.356 . S
C2259 C2258 1.363 . S
C2259 C2262 1.363 . S
N2260 C2262 1.356 . S
N2260 H2272 0.984 . S
N2260 H2273 0.985 . S
N2261 C2263 1.356 . S
N2261 H2266 0.984 . S
N2261 H2267 0.985 . S
C2262 C2256 1.379 . S
C2262 C2259 1.363 . S
C2262 N2260 1.356 . S
C2263 C2257 1.363 . S
C2263 C2258 1.379 . S
C2263 N2261 1.356 . S
N2264 C2256 1.356 . S
N2264 H2270 0.984 . S
N2264 H2271 0.984 . S
N2265 C2258 1.356 . S
N2265 H2268 0.984 . S
N2265 H2269 0.985 . S
H2266 N2261 0.984 . S
H2267 N2261 0.985 . S
H2268 N2265 0.984 . S
H2269 N2265 0.985 . S
H2270 N2264 0.984 . S
H2271 N2264 0.984 . S
H2272 N2260 0.984 . S
H2273 N2260 0.985 . S
C2274 C2275 1.363 . S
C2274 C2280 1.379 . S
C2274 N2282 1.356 . S
C2275 C2274 1.363 . S
C2275 C2281 1.363 . S
C2276 C2277 1.363 . S
C2276 C2281 1.379 . S
C2276 N2283 1.356 . S
C2277 C2276 1.363 . S
C2277 C2280 1.363 . S
N2278 C2280 1.356 . S
N2278 H2290 0.984 . S
N2278 H2291 0.985 . S
N2279 C2281 1.356 . S
N2279 H2284 0.984 . S
N2279 H2285 0.985 . S
C2280 C2274 1.379 . S
C2280 C2277 1.363 . S
C2280 N2278 1.356 . S
C2281 C2275 1.363 . S
C2281 C2276 1.379 . S
C2281 N2279 1.356 . S
N2282 C2274 1.356 . S
N2282 H2288 0.984 . S
N2282 H2289 0.984 . S
N2283 C2276 1.356 . S
N2283 H2286 0.984 . S
N2283 H2287 0.985 . S
H2284 N2279 0.984 . S
H2285 N2279 0.985 . S
H2286 N2283 0.984 . S
H2287 N2283 0.985 . S
H2288 N2282 0.984 . S
H2289 N2282 0.984 . S
H2290 N2278 0.984 . S
H2291 N2278 0.985 . S
C2292 C2293 1.363 . S
C2292 C2298 1.379 . S
C2292 N2300 1.356 . S
C2293 C2292 1.363 . S
C2293 C2299 1.363 . S
C2294 C2295 1.363 . S
C2294 C2299 1.379 . S
C2294 N2301 1.356 . S
C2295 C2294 1.363 . S
C2295 C2298 1.363 . S
N2296 C2298 1.356 . S
N2296 H2308 0.984 . S
N2296 H2309 0.985 . S
N2297 C2299 1.356 . S
N2297 H2302 0.984 . S
N2297 H2303 0.985 . S
C2298 C2292 1.379 . S
C2298 C2295 1.363 . S
C2298 N2296 1.356 . S
C2299 C2293 1.363 . S
C2299 C2294 1.379 . S
C2299 N2297 1.356 . S
N2300 C2292 1.356 . S
N2300 H2306 0.984 . S
N2300 H2307 0.984 . S
N2301 C2294 1.356 . S
N2301 H2304 0.984 . S
N2301 H2305 0.985 . S
H2302 N2297 0.984 . S
H2303 N2297 0.985 . S
H2304 N2301 0.984 . S
H2305 N2301 0.985 . S
H2306 N2300 0.984 . S
H2307 N2300 0.984 . S
H2308 N2296 0.984 . S
H2309 N2296 0.985 . S
C2310 C2311 1.363 . S
C2310 C2316 1.379 . S
C2310 N2318 1.356 . S
C2311 C2310 1.363 . S
C2311 C2317 1.363 . S
C2312 C2313 1.363 . S
C2312 C2317 1.379 . S
C2312 N2319 1.356 . S
C2313 C2312 1.363 . S
C2313 C2316 1.363 . S
N2314 C2316 1.356 . S
N2314 H2326 0.984 . S
N2314 H2327 0.985 . S
N2315 C2317 1.356 . S
N2315 H2320 0.984 . S
N2315 H2321 0.985 . S
C2316 C2310 1.379 . S
C2316 C2313 1.363 . S
C2316 N2314 1.356 . S
C2317 C2311 1.363 . S
C2317 C2312 1.379 . S
C2317 N2315 1.356 . S
N2318 C2310 1.356 . S
N2318 H2324 0.984 . S
N2318 H2325 0.984 . S
N2319 C2312 1.356 . S
N2319 H2322 0.984 . S
N2319 H2323 0.985 . S
H2320 N2315 0.984 . S
H2321 N2315 0.985 . S
H2322 N2319 0.984 . S
H2323 N2319 0.985 . S
H2324 N2318 0.984 . S
H2325 N2318 0.984 . S
H2326 N2314 0.984 . S
H2327 N2314 0.985 . S
C2328 C2329 1.363 . S
C2328 C2334 1.379 . S
C2328 N2336 1.356 . S
C2329 C2328 1.363 . S
C2329 C2335 1.363 . S
C2330 C2331 1.363 . S
C2330 C2335 1.379 . S
C2330 N2337 1.356 . S
C2331 C2330 1.363 . S
C2331 C2334 1.363 . S
N2332 C2334 1.356 . S
N2332 H2344 0.984 . S
N2332 H2345 0.985 . S
N2333 C2335 1.356 . S
N2333 H2338 0.984 . S
N2333 H2339 0.985 . S
C2334 C2328 1.379 . S
C2334 C2331 1.363 . S
C2334 N2332 1.356 . S
C2335 C2329 1.363 . S
C2335 C2330 1.379 . S
C2335 N2333 1.356 . S
N2336 C2328 1.356 . S
N2336 H2342 0.984 . S
N2336 H2343 0.984 . S
N2337 C2330 1.356 . S
N2337 H2340 0.984 . S
N2337 H2341 0.985 . S
H2338 N2333 0.984 . S
H2339 N2333 0.985 . S
H2340 N2337 0.984 . S
H2341 N2337 0.985 . S
H2342 N2336 0.984 . S
H2343 N2336 0.984 . S
H2344 N2332 0.984 . S
H2345 N2332 0.985 . S
C2346 C2347 1.363 . S
C2346 C2352 1.379 . S
C2346 N2354 1.356 . S
C2347 C2346 1.363 . S
C2347 C2353 1.363 . S
C2348 C2349 1.363 . S
C2348 C2353 1.379 . S
C2348 N2355 1.356 . S
C2349 C2348 1.363 . S
C2349 C2352 1.363 . S
N2350 C2352 1.356 . S
N2350 H2362 0.984 . S
N2350 H2363 0.985 . S
N2351 C2353 1.356 . S
N2351 H2356 0.984 . S
N2351 H2357 0.985 . S
C2352 C2346 1.379 . S
C2352 C2349 1.363 . S
C2352 N2350 1.356 . S
C2353 C2347 1.363 . S
C2353 C2348 1.379 . S
C2353 N2351 1.356 . S
N2354 C2346 1.356 . S
N2354 H2360 0.984 . S
N2354 H2361 0.984 . S
N2355 C2348 1.356 . S
N2355 H2358 0.984 . S
N2355 H2359 0.985 . S
H2356 N2351 0.984 . S
H2357 N2351 0.985 . S
H2358 N2355 0.984 . S
H2359 N2355 0.985 . S
H2360 N2354 0.984 . S
H2361 N2354 0.984 . S
H2362 N2350 0.984 . S
H2363 N2350 0.985 . S
C2364 C2365 1.363 . S
C2364 C2370 1.379 . S
C2364 N2372 1.356 . S
C2365 C2364 1.363 . S
C2365 C2371 1.363 . S
C2366 C2367 1.363 . S
C2366 C2371 1.379 . S
C2366 N2373 1.356 . S
C2367 C2366 1.363 . S
C2367 C2370 1.363 . S
N2368 C2370 1.356 . S
N2368 H2380 0.984 . S
N2368 H2381 0.985 . S
N2369 C2371 1.356 . S
N2369 H2374 0.984 . S
N2369 H2375 0.985 . S
C2370 C2364 1.379 . S
C2370 C2367 1.363 . S
C2370 N2368 1.356 . S
C2371 C2365 1.363 . S
C2371 C2366 1.379 . S
C2371 N2369 1.356 . S
N2372 C2364 1.356 . S
N2372 H2378 0.984 . S
N2372 H2379 0.984 . S
N2373 C2366 1.356 . S
N2373 H2376 0.984 . S
N2373 H2377 0.985 . S
H2374 N2369 0.984 . S
H2375 N2369 0.985 . S
H2376 N2373 0.984 . S
H2377 N2373 0.985 . S
H2378 N2372 0.984 . S
H2379 N2372 0.984 . S
H2380 N2368 0.984 . S
H2381 N2368 0.985 . S
C2382 C2383 1.363 . S
C2382 C2388 1.379 . S
C2382 N2390 1.356 . S
C2383 C2382 1.363 . S
C2383 C2389 1.363 . S
C2384 C2385 1.363 . S
C2384 C2389 1.379 . S
C2384 N2391 1.356 . S
C2385 C2384 1.363 . S
C2385 C2388 1.363 . S
N2386 C2388 1.356 . S
N2386 H2398 0.984 . S
N2386 H2399 0.985 . S
N2387 C2389 1.356 . S
N2387 H2392 0.984 . S
N2387 H2393 0.985 . S
C2388 C2382 1.379 . S
C2388 C2385 1.363 . S
C2388 N2386 1.356 . S
C2389 C2383 1.363 . S
C2389 C2384 1.379 . S
C2389 N2387 1.356 . S
N2390 C2382 1.356 . S
N2390 H2396 0.984 . S
N2390 H2397 0.984 . S
N2391 C2384 1.356 . S
N2391 H2394 0.984 . S
N2391 H2395 0.985 . S
H2392 N2387 0.984 . S
H2393 N2387 0.985 . S
H2394 N2391 0.984 . S
H2395 N2391 0.985 . S
H2396 N2390 0.984 . S
H2397 N2390 0.984 . S
H2398 N2386 0.984 . S
H2399 N2386 0.985 . S
C2400 C2401 1.363 . S
C2400 C2406 1.379 . S
C2400 N2408 1.356 . S
C2401 C2400 1.363 . S
C2401 C2407 1.363 . S
C2402 C2403 1.363 . S
C2402 C2407 1.379 . S
C2402 N2409 1.356 . S
C2403 C2402 1.363 . S
C2403 C2406 1.363 . S
N2404 C2406 1.356 . S
N2404 H2416 0.984 . S
N2404 H2417 0.985 . S
N2405 C2407 1.356 . S
N2405 H2410 0.984 . S
N2405 H2411 0.985 . S
C2406 C2400 1.379 . S
C2406 C2403 1.363 . S
C2406 N2404 1.356 . S
C2407 C2401 1.363 . S
C2407 C2402 1.379 . S
C2407 N2405 1.356 . S
N2408 C2400 1.356 . S
N2408 H2414 0.984 . S
N2408 H2415 0.984 . S
N2409 C2402 1.356 . S
N2409 H2412 0.984 . S
N2409 H2413 0.985 . S
H2410 N2405 0.984 . S
H2411 N2405 0.985 . S
H2412 N2409 0.984 . S
H2413 N2409 0.985 . S
H2414 N2408 0.984 . S
H2415 N2408 0.984 . S
H2416 N2404 0.984 . S
H2417 N2404 0.985 . S
C2418 C2419 1.363 . S
C2418 C2424 1.379 . S
C2418 N2426 1.356 . S
C2419 C2418 1.363 . S
C2419 C2425 1.363 . S
C2420 C2421 1.363 . S
C2420 C2425 1.379 . S
C2420 N2427 1.356 . S
C2421 C2420 1.363 . S
C2421 C2424 1.363 . S
N2422 C2424 1.356 . S
N2422 H2434 0.984 . S
N2422 H2435 0.985 . S
N2423 C2425 1.356 . S
N2423 H2428 0.984 . S
N2423 H2429 0.985 . S
C2424 C2418 1.379 . S
C2424 C2421 1.363 . S
C2424 N2422 1.356 . S
C2425 C2419 1.363 . S
C2425 C2420 1.379 . S
C2425 N2423 1.356 . S
N2426 C2418 1.356 . S
N2426 H2432 0.984 . S
N2426 H2433 0.984 . S
N2427 C2420 1.356 . S
N2427 H2430 0.984 . S
N2427 H2431 0.985 . S
H2428 N2423 0.984 . S
H2429 N2423 0.985 . S
H2430 N2427 0.984 . S
H2431 N2427 0.985 . S
H2432 N2426 0.984 . S
H2433 N2426 0.984 . S
H2434 N2422 0.984 . S
H2435 N2422 0.985 . S
C2436 C2437 1.363 . S
C2436 C2442 1.379 . S
C2436 N2444 1.356 . S
C2437 C2436 1.363 . S
C2437 C2443 1.363 . S
C2438 C2439 1.363 . S
C2438 C2443 1.379 . S
C2438 N2445 1.356 . S
C2439 C2438 1.363 . S
C2439 C2442 1.363 . S
N2440 C2442 1.356 . S
N2440 H2452 0.984 . S
N2440 H2453 0.985 . S
N2441 C2443 1.356 . S
N2441 H2446 0.984 . S
N2441 H2447 0.985 . S
C2442 C2436 1.379 . S
C2442 C2439 1.363 . S
C2442 N2440 1.356 . S
C2443 C2437 1.363 . S
C2443 C2438 1.379 . S
C2443 N2441 1.356 . S
N2444 C2436 1.356 . S
N2444 H2450 0.984 . S
N2444 H2451 0.984 . S
N2445 C2438 1.356 . S
N2445 H2448 0.984 . S
N2445 H2449 0.985 . S
H2446 N2441 0.984 . S
H2447 N2441 0.985 . S
H2448 N2445 0.984 . S
H2449 N2445 0.985 . S
H2450 N2444 0.984 . S
H2451 N2444 0.984 . S
H2452 N2440 0.984 . S
H2453 N2440 0.985 . S
C2454 C2455 1.363 . S
C2454 C2460 1.379 . S
C2454 N2462 1.356 . S
C2455 C2454 1.363 . S
C2455 C2461 1.363 . S
C2456 C2457 1.363 . S
C2456 C2461 1.379 . S
C2456 N2463 1.356 . S
C2457 C2456 1.363 . S
C2457 C2460 1.363 . S
N2458 C2460 1.356 . S
N2458 H2470 0.984 . S
N2458 H2471 0.985 . S
N2459 C2461 1.356 . S
N2459 H2464 0.984 . S
N2459 H2465 0.985 . S
C2460 C2454 1.379 . S
C2460 C2457 1.363 . S
C2460 N2458 1.356 . S
C2461 C2455 1.363 . S
C2461 C2456 1.379 . S
C2461 N2459 1.356 . S
N2462 C2454 1.356 . S
N2462 H2468 0.984 . S
N2462 H2469 0.984 . S
N2463 C2456 1.356 . S
N2463 H2466 0.984 . S
N2463 H2467 0.985 . S
H2464 N2459 0.984 . S
H2465 N2459 0.985 . S
H2466 N2463 0.984 . S
H2467 N2463 0.985 . S
H2468 N2462 0.984 . S
H2469 N2462 0.984 . S
H2470 N2458 0.984 . S
H2471 N2458 0.985 . S
C2472 C2473 1.363 . S
C2472 C2478 1.379 . S
C2472 N2480 1.356 . S
C2473 C2472 1.363 . S
C2473 C2479 1.363 . S
C2474 C2475 1.363 . S
C2474 C2479 1.379 . S
C2474 N2481 1.356 . S
C2475 C2474 1.363 . S
C2475 C2478 1.363 . S
N2476 C2478 1.356 . S
N2476 H2488 0.984 . S
N2476 H2489 0.985 . S
N2477 C2479 1.356 . S
N2477 H2482 0.984 . S
N2477 H2483 0.985 . S
C2478 C2472 1.379 . S
C2478 C2475 1.363 . S
C2478 N2476 1.356 . S
C2479 C2473 1.363 . S
C2479 C2474 1.379 . S
C2479 N2477 1.356 . S
N2480 C2472 1.356 . S
N2480 H2486 0.984 . S
N2480 H2487 0.984 . S
N2481 C2474 1.356 . S
N2481 H2484 0.984 . S
N2481 H2485 0.985 . S
H2482 N2477 0.984 . S
H2483 N2477 0.985 . S
H2484 N2481 0.984 . S
H2485 N2481 0.985 . S
H2486 N2480 0.984 . S
H2487 N2480 0.984 . S
H2488 N2476 0.984 . S
H2489 N2476 0.985 . S
C2490 C2491 1.363 . S
C2490 C2496 1.379 . S
C2490 N2498 1.356 . S
C2491 C2490 1.363 . S
C2491 C2497 1.363 . S
C2492 C2493 1.363 . S
C2492 C2497 1.379 . S
C2492 N2499 1.356 . S
C2493 C2492 1.363 . S
C2493 C2496 1.363 . S
N2494 C2496 1.356 . S
N2494 H2506 0.984 . S
N2494 H2507 0.985 . S
N2495 C2497 1.356 . S
N2495 H2500 0.984 . S
N2495 H2501 0.985 . S
C2496 C2490 1.379 . S
C2496 C2493 1.363 . S
C2496 N2494 1.356 . S
C2497 C2491 1.363 . S
C2497 C2492 1.379 . S
C2497 N2495 1.356 . S
N2498 C2490 1.356 . S
N2498 H2504 0.984 . S
N2498 H2505 0.984 . S
N2499 C2492 1.356 . S
N2499 H2502 0.984 . S
N2499 H2503 0.985 . S
H2500 N2495 0.984 . S
H2501 N2495 0.985 . S
H2502 N2499 0.984 . S
H2503 N2499 0.985 . S
H2504 N2498 0.984 . S
H2505 N2498 0.984 . S
H2506 N2494 0.984 . S
H2507 N2494 0.985 . S
C2508 C2509 1.363 . S
C2508 C2514 1.379 . S
C2508 N2516 1.356 . S
C2509 C2508 1.363 . S
C2509 C2515 1.363 . S
C2510 C2511 1.363 . S
C2510 C2515 1.379 . S
C2510 N2517 1.356 . S
C2511 C2510 1.363 . S
C2511 C2514 1.363 . S
N2512 C2514 1.356 . S
N2512 H2524 0.984 . S
N2512 H2525 0.985 . S
N2513 C2515 1.356 . S
N2513 H2518 0.984 . S
N2513 H2519 0.985 . S
C2514 C2508 1.379 . S
C2514 C2511 1.363 . S
C2514 N2512 1.356 . S
C2515 C2509 1.363 . S
C2515 C2510 1.379 . S
C2515 N2513 1.356 . S
N2516 C2508 1.356 . S
N2516 H2522 0.984 . S
N2516 H2523 0.984 . S
N2517 C2510 1.356 . S
N2517 H2520 0.984 . S
N2517 H2521 0.985 . S
H2518 N2513 0.984 . S
H2519 N2513 0.985 . S
H2520 N2517 0.984 . S
H2521 N2517 0.985 . S
H2522 N2516 0.984 . S
H2523 N2516 0.984 . S
H2524 N2512 0.984 . S
H2525 N2512 0.985 . S
C2526 C2527 1.363 . S
C2526 C2532 1.379 . S
C2526 N2534 1.356 . S
C2527 C2526 1.363 . S
C2527 C2533 1.363 . S
C2528 C2529 1.363 . S
C2528 C2533 1.379 . S
C2528 N2535 1.356 . S
C2529 C2528 1.363 . S
C2529 C2532 1.363 . S
N2530 C2532 1.356 . S
N2530 H2542 0.984 . S
N2530 H2543 0.985 . S
N2531 C2533 1.356 . S
N2531 H2536 0.984 . S
N2531 H2537 0.985 . S
C2532 C2526 1.379 . S
C2532 C2529 1.363 . S
C2532 N2530 1.356 . S
C2533 C2527 1.363 . S
C2533 C2528 1.379 . S
C2533 N2531 1.356 . S
N2534 C2526 1.356 . S
N2534 H2540 0.984 . S
N2534 H2541 0.984 . S
N2535 C2528 1.356 . S
N2535 H2538 0.984 . S
N2535 H2539 0.985 . S
H2536 N2531 0.984 . S
H2537 N2531 0.985 . S
H2538 N2535 0.984 . S
H2539 N2535 0.985 . S
H2540 N2534 0.984 . S
H2541 N2534 0.984 . S
H2542 N2530 0.984 . S
H2543 N2530 0.985 . S
C2544 C2545 1.363 . S
C2544 C2550 1.379 1_455 S
C2544 N2552 1.356 . S
C2545 C2544 1.363 . S
C2545 C2551 1.363 . S
C2546 C2547 1.363 . S
C2546 C2551 1.379 1_655 S
C2546 N2553 1.356 . S
C2547 C2546 1.363 . S
C2547 C2550 1.363 . S
N2548 C2550 1.356 . S
N2548 H2560 0.984 . S
N2548 H2561 0.985 . S
N2549 C2551 1.356 . S
N2549 H2554 0.984 . S
N2549 H2555 0.985 . S
C2550 C2544 1.379 1_655 S
C2550 C2547 1.363 . S
C2550 N2548 1.356 . S
C2551 C2545 1.363 . S
C2551 C2546 1.379 1_455 S
C2551 N2549 1.356 . S
N2552 C2544 1.356 . S
N2552 H2558 0.984 . S
N2552 H2559 0.984 . S
N2553 C2546 1.356 . S
N2553 H2556 0.984 . S
N2553 H2557 0.985 . S
H2554 N2549 0.984 . S
H2555 N2549 0.985 . S
H2556 N2553 0.984 . S
H2557 N2553 0.985 . S
H2558 N2552 0.984 . S
H2559 N2552 0.984 . S
H2560 N2548 0.984 . S
H2561 N2548 0.985 . S
C2562 C2563 1.363 . S
C2562 C2568 1.379 1_545 S
C2562 N2570 1.356 . S
C2563 C2562 1.363 . S
C2563 C2569 1.363 . S
C2564 C2565 1.363 . S
C2564 C2569 1.379 1_565 S
C2564 N2571 1.356 . S
C2565 C2564 1.363 . S
C2565 C2568 1.363 . S
N2566 C2568 1.356 . S
N2566 H2578 0.984 . S
N2566 H2579 0.985 . S
N2567 C2569 1.356 . S
N2567 H2572 0.984 . S
N2567 H2573 0.985 . S
C2568 C2562 1.379 1_565 S
C2568 C2565 1.363 . S
C2568 N2566 1.356 . S
C2569 C2563 1.363 . S
C2569 C2564 1.379 1_545 S
C2569 N2567 1.356 . S
N2570 C2562 1.356 . S
N2570 H2576 0.984 . S
N2570 H2577 0.984 . S
N2571 C2564 1.356 . S
N2571 H2574 0.984 . S
N2571 H2575 0.985 . S
H2572 N2567 0.984 . S
H2573 N2567 0.985 . S
H2574 N2571 0.984 . S
H2575 N2571 0.985 . S
H2576 N2570 0.984 . S
H2577 N2570 0.984 . S
H2578 N2566 0.984 . S
H2579 N2566 0.985 . S
C2580 C2581 1.363 . S
C2580 C2586 1.379 1_655 S
C2580 N2588 1.356 . S
C2581 C2580 1.363 . S
C2581 C2587 1.363 . S
C2582 C2583 1.363 . S
C2582 C2587 1.379 1_455 S
C2582 N2589 1.356 . S
C2583 C2582 1.363 . S
C2583 C2586 1.363 . S
N2584 C2586 1.356 . S
N2584 H2596 0.984 . S
N2584 H2597 0.985 . S
N2585 C2587 1.356 . S
N2585 H2590 0.984 . S
N2585 H2591 0.985 . S
C2586 C2580 1.379 1_455 S
C2586 C2583 1.363 . S
C2586 N2584 1.356 . S
C2587 C2581 1.363 . S
C2587 C2582 1.379 1_655 S
C2587 N2585 1.356 . S
N2588 C2580 1.356 . S
N2588 H2594 0.984 . S
N2588 H2595 0.984 . S
N2589 C2582 1.356 . S
N2589 H2592 0.984 . S
N2589 H2593 0.985 . S
H2590 N2585 0.984 . S
H2591 N2585 0.985 . S
H2592 N2589 0.984 . S
H2593 N2589 0.985 . S
H2594 N2588 0.984 . S
H2595 N2588 0.984 . S
H2596 N2584 0.984 . S
H2597 N2584 0.985 . S
C2598 C2599 1.363 . S
C2598 C2604 1.379 1_545 S
C2598 N2606 1.356 . S
C2599 C2598 1.363 . S
C2599 C2605 1.363 . S
C2600 C2601 1.363 . S
C2600 C2605 1.379 1_565 S
C2600 N2607 1.356 . S
C2601 C2600 1.363 . S
C2601 C2604 1.363 . S
N2602 C2604 1.356 . S
N2602 H2614 0.984 . S
N2602 H2615 0.985 . S
N2603 C2605 1.356 . S
N2603 H2608 0.984 . S
N2603 H2609 0.985 . S
C2604 C2598 1.379 1_565 S
C2604 C2601 1.363 . S
C2604 N2602 1.356 . S
C2605 C2599 1.363 . S
C2605 C2600 1.379 1_545 S
C2605 N2603 1.356 . S
N2606 C2598 1.356 . S
N2606 H2612 0.984 . S
N2606 H2613 0.984 . S
N2607 C2600 1.356 . S
N2607 H2610 0.984 . S
N2607 H2611 0.985 . S
H2608 N2603 0.984 . S
H2609 N2603 0.985 . S
H2610 N2607 0.984 . S
H2611 N2607 0.985 . S
H2612 N2606 0.984 . S
H2613 N2606 0.984 . S
H2614 N2602 0.984 . S
H2615 N2602 0.985 . S
C2616 C2617 1.363 . S
C2616 C2622 1.379 1_565 S
C2616 N2624 1.356 . S
C2617 C2616 1.363 . S
C2617 C2623 1.363 . S
C2618 C2619 1.363 . S
C2618 C2623 1.379 1_545 S
C2618 N2625 1.356 . S
C2619 C2618 1.363 . S
C2619 C2622 1.363 . S
N2620 C2622 1.356 . S
N2620 H2632 0.984 . S
N2620 H2633 0.985 . S
N2621 C2623 1.356 . S
N2621 H2626 0.984 . S
N2621 H2627 0.985 . S
C2622 C2616 1.379 1_545 S
C2622 C2619 1.363 . S
C2622 N2620 1.356 . S
C2623 C2617 1.363 . S
C2623 C2618 1.379 1_565 S
C2623 N2621 1.356 . S
N2624 C2616 1.356 . S
N2624 H2630 0.984 . S
N2624 H2631 0.984 . S
N2625 C2618 1.356 . S
N2625 H2628 0.984 . S
N2625 H2629 0.985 . S
H2626 N2621 0.984 . S
H2627 N2621 0.985 . S
H2628 N2625 0.984 . S
H2629 N2625 0.985 . S
H2630 N2624 0.984 . S
H2631 N2624 0.984 . S
H2632 N2620 0.984 . S
H2633 N2620 0.985 . S
C2634 C2635 1.363 . S
C2634 C2640 1.379 1_655 S
C2634 N2642 1.356 . S
C2635 C2634 1.363 . S
C2635 C2641 1.363 . S
C2636 C2637 1.363 . S
C2636 C2641 1.379 1_455 S
C2636 N2643 1.356 . S
C2637 C2636 1.363 . S
C2637 C2640 1.363 . S
N2638 C2640 1.356 . S
N2638 H2650 0.984 . S
N2638 H2651 0.985 . S
N2639 C2641 1.356 . S
N2639 H2644 0.984 . S
N2639 H2645 0.985 . S
C2640 C2634 1.379 1_455 S
C2640 C2637 1.363 . S
C2640 N2638 1.356 . S
C2641 C2635 1.363 . S
C2641 C2636 1.379 1_655 S
C2641 N2639 1.356 . S
N2642 C2634 1.356 . S
N2642 H2648 0.984 . S
N2642 H2649 0.984 . S
N2643 C2636 1.356 . S
N2643 H2646 0.984 . S
N2643 H2647 0.985 . S
H2644 N2639 0.984 . S
H2645 N2639 0.985 . S
H2646 N2643 0.984 . S
H2647 N2643 0.985 . S
H2648 N2642 0.984 . S
H2649 N2642 0.984 . S
H2650 N2638 0.984 . S
H2651 N2638 0.985 . S
C2652 C2653 1.363 . S
C2652 C2658 1.379 1_565 S
C2652 N2660 1.356 . S
C2653 C2652 1.363 . S
C2653 C2659 1.363 . S
C2654 C2655 1.363 . S
C2654 C2659 1.379 1_545 S
C2654 N2661 1.356 . S
C2655 C2654 1.363 . S
C2655 C2658 1.363 . S
N2656 C2658 1.356 . S
N2656 H2668 0.984 . S
N2656 H2669 0.985 . S
N2657 C2659 1.356 . S
N2657 H2662 0.984 . S
N2657 H2663 0.985 . S
C2658 C2652 1.379 1_545 S
C2658 C2655 1.363 . S
C2658 N2656 1.356 . S
C2659 C2653 1.363 . S
C2659 C2654 1.379 1_565 S
C2659 N2657 1.356 . S
N2660 C2652 1.356 . S
N2660 H2666 0.984 . S
N2660 H2667 0.984 . S
N2661 C2654 1.356 . S
N2661 H2664 0.984 . S
N2661 H2665 0.985 . S
H2662 N2657 0.984 . S
H2663 N2657 0.985 . S
H2664 N2661 0.984 . S
H2665 N2661 0.985 . S
H2666 N2660 0.984 . S
H2667 N2660 0.984 . S
H2668 N2656 0.984 . S
H2669 N2656 0.985 . S
C2670 C2671 1.363 . S
C2670 C2676 1.379 1_655 S
C2670 N2678 1.356 . S
C2671 C2670 1.363 . S
C2671 C2677 1.363 . S
C2672 C2673 1.363 . S
C2672 C2677 1.379 1_455 S
C2672 N2679 1.356 . S
C2673 C2672 1.363 . S
C2673 C2676 1.363 . S
N2674 C2676 1.356 . S
N2674 H2686 0.984 . S
N2674 H2687 0.985 . S
N2675 C2677 1.356 . S
N2675 H2680 0.984 . S
N2675 H2681 0.985 . S
C2676 C2670 1.379 1_455 S
C2676 C2673 1.363 . S
C2676 N2674 1.356 . S
C2677 C2671 1.363 . S
C2677 C2672 1.379 1_655 S
C2677 N2675 1.356 . S
N2678 C2670 1.356 . S
N2678 H2684 0.984 . S
N2678 H2685 0.984 . S
N2679 C2672 1.356 . S
N2679 H2682 0.984 . S
N2679 H2683 0.985 . S
H2680 N2675 0.984 . S
H2681 N2675 0.985 . S
H2682 N2679 0.984 . S
H2683 N2679 0.985 . S
H2684 N2678 0.984 . S
H2685 N2678 0.984 . S
H2686 N2674 0.984 . S
H2687 N2674 0.985 . S
C2688 C2689 1.363 . S
C2688 C2694 1.379 1_556 S
C2688 N2696 1.356 . S
C2689 C2688 1.363 . S
C2689 C2695 1.363 . S
C2690 C2691 1.363 . S
C2690 C2695 1.379 1_554 S
C2690 N2697 1.356 . S
C2691 C2690 1.363 . S
C2691 C2694 1.363 . S
N2692 C2694 1.356 . S
N2692 H2704 0.984 . S
N2692 H2705 0.985 . S
N2693 C2695 1.356 . S
N2693 H2698 0.984 . S
N2693 H2699 0.985 . S
C2694 C2688 1.379 1_554 S
C2694 C2691 1.363 . S
C2694 N2692 1.356 . S
C2695 C2689 1.363 . S
C2695 C2690 1.379 1_556 S
C2695 N2693 1.356 . S
N2696 C2688 1.356 . S
N2696 H2702 0.984 . S
N2696 H2703 0.984 . S
N2697 C2690 1.356 . S
N2697 H2700 0.984 . S
N2697 H2701 0.985 . S
H2698 N2693 0.984 . S
H2699 N2693 0.985 . S
H2700 N2697 0.984 . S
H2701 N2697 0.985 . S
H2702 N2696 0.984 . S
H2703 N2696 0.984 . S
H2704 N2692 0.984 . S
H2705 N2692 0.985 . S
C2706 C2707 1.363 . S
C2706 C2712 1.379 1_556 S
C2706 N2714 1.356 . S
C2707 C2706 1.363 . S
C2707 C2713 1.363 . S
C2708 C2709 1.363 . S
C2708 C2713 1.379 1_554 S
C2708 N2715 1.356 . S
C2709 C2708 1.363 . S
C2709 C2712 1.363 . S
N2710 C2712 1.356 . S
N2710 H2722 0.984 . S
N2710 H2723 0.985 . S
N2711 C2713 1.356 . S
N2711 H2716 0.984 . S
N2711 H2717 0.985 . S
C2712 C2706 1.379 1_554 S
C2712 C2709 1.363 . S
C2712 N2710 1.356 . S
C2713 C2707 1.363 . S
C2713 C2708 1.379 1_556 S
C2713 N2711 1.356 . S
N2714 C2706 1.356 . S
N2714 H2720 0.984 . S
N2714 H2721 0.984 . S
N2715 C2708 1.356 . S
N2715 H2718 0.984 . S
N2715 H2719 0.985 . S
H2716 N2711 0.984 . S
H2717 N2711 0.985 . S
H2718 N2715 0.984 . S
H2719 N2715 0.985 . S
H2720 N2714 0.984 . S
H2721 N2714 0.984 . S
H2722 N2710 0.984 . S
H2723 N2710 0.985 . S
C2724 C2725 1.363 . S
C2724 C2730 1.379 1_556 S
C2724 N2732 1.356 . S
C2725 C2724 1.363 . S
C2725 C2731 1.363 . S
C2726 C2727 1.363 . S
C2726 C2731 1.379 1_554 S
C2726 N2733 1.356 . S
C2727 C2726 1.363 . S
C2727 C2730 1.363 . S
N2728 C2730 1.356 . S
N2728 H2740 0.984 . S
N2728 H2741 0.985 . S
N2729 C2731 1.356 . S
N2729 H2734 0.984 . S
N2729 H2735 0.985 . S
C2730 C2724 1.379 1_554 S
C2730 C2727 1.363 . S
C2730 N2728 1.356 . S
C2731 C2725 1.363 . S
C2731 C2726 1.379 1_556 S
C2731 N2729 1.356 . S
N2732 C2724 1.356 . S
N2732 H2738 0.984 . S
N2732 H2739 0.984 . S
N2733 C2726 1.356 . S
N2733 H2736 0.984 . S
N2733 H2737 0.985 . S
H2734 N2729 0.984 . S
H2735 N2729 0.985 . S
H2736 N2733 0.984 . S
H2737 N2733 0.985 . S
H2738 N2732 0.984 . S
H2739 N2732 0.984 . S
H2740 N2728 0.984 . S
H2741 N2728 0.985 . S
C2742 C2743 1.363 . S
C2742 C2748 1.379 1_556 S
C2742 N2750 1.356 . S
C2743 C2742 1.363 . S
C2743 C2749 1.363 . S
C2744 C2745 1.363 . S
C2744 C2749 1.379 1_554 S
C2744 N2751 1.356 . S
C2745 C2744 1.363 . S
C2745 C2748 1.363 . S
N2746 C2748 1.356 . S
N2746 H2758 0.984 . S
N2746 H2759 0.985 . S
N2747 C2749 1.356 . S
N2747 H2752 0.984 . S
N2747 H2753 0.985 . S
C2748 C2742 1.379 1_554 S
C2748 C2745 1.363 . S
C2748 N2746 1.356 . S
C2749 C2743 1.363 . S
C2749 C2744 1.379 1_556 S
C2749 N2747 1.356 . S
N2750 C2742 1.356 . S
N2750 H2756 0.984 . S
N2750 H2757 0.984 . S
N2751 C2744 1.356 . S
N2751 H2754 0.984 . S
N2751 H2755 0.985 . S
H2752 N2747 0.984 . S
H2753 N2747 0.985 . S
H2754 N2751 0.984 . S
H2755 N2751 0.985 . S
H2756 N2750 0.984 . S
H2757 N2750 0.984 . S
H2758 N2746 0.984 . S
H2759 N2746 0.985 . S
C2760 C2761 1.363 . S
C2760 C2766 1.379 . S
C2760 N2768 1.356 . S
C2761 C2760 1.363 . S
C2761 C2767 1.363 . S
C2762 C2763 1.363 . S
C2762 C2767 1.379 . S
C2762 N2769 1.356 . S
C2763 C2762 1.363 . S
C2763 C2766 1.363 . S
N2764 C2766 1.356 . S
N2764 H2776 0.984 . S
N2764 H2777 0.985 . S
N2765 C2767 1.356 . S
N2765 H2770 0.984 . S
N2765 H2771 0.985 . S
C2766 C2760 1.379 . S
C2766 C2763 1.363 . S
C2766 N2764 1.356 . S
C2767 C2761 1.363 . S
C2767 C2762 1.379 . S
C2767 N2765 1.356 . S
N2768 C2760 1.356 . S
N2768 H2774 0.984 . S
N2768 H2775 0.984 . S
N2769 C2762 1.356 . S
N2769 H2772 0.984 . S
N2769 H2773 0.985 . S
H2770 N2765 0.984 . S
H2771 N2765 0.985 . S
H2772 N2769 0.984 . S
H2773 N2769 0.985 . S
H2774 N2768 0.984 . S
H2775 N2768 0.984 . S
H2776 N2764 0.984 . S
H2777 N2764 0.985 . S
C2778 C2779 1.363 . S
C2778 C2784 1.379 . S
C2778 N2786 1.356 . S
C2779 C2778 1.363 . S
C2779 C2785 1.363 . S
C2780 C2781 1.363 . S
C2780 C2785 1.379 . S
C2780 N2787 1.356 . S
C2781 C2780 1.363 . S
C2781 C2784 1.363 . S
N2782 C2784 1.356 . S
N2782 H2794 0.984 . S
N2782 H2795 0.985 . S
N2783 C2785 1.356 . S
N2783 H2788 0.984 . S
N2783 H2789 0.985 . S
C2784 C2778 1.379 . S
C2784 C2781 1.363 . S
C2784 N2782 1.356 . S
C2785 C2779 1.363 . S
C2785 C2780 1.379 . S
C2785 N2783 1.356 . S
N2786 C2778 1.356 . S
N2786 H2792 0.984 . S
N2786 H2793 0.984 . S
N2787 C2780 1.356 . S
N2787 H2790 0.984 . S
N2787 H2791 0.985 . S
H2788 N2783 0.984 . S
H2789 N2783 0.985 . S
H2790 N2787 0.984 . S
H2791 N2787 0.985 . S
H2792 N2786 0.984 . S
H2793 N2786 0.984 . S
H2794 N2782 0.984 . S
H2795 N2782 0.985 . S
C2796 C2797 1.363 . S
C2796 C2802 1.379 . S
C2796 N2804 1.356 . S
C2797 C2796 1.363 . S
C2797 C2803 1.363 . S
C2798 C2799 1.363 . S
C2798 C2803 1.379 . S
C2798 N2805 1.356 . S
C2799 C2798 1.363 . S
C2799 C2802 1.363 . S
N2800 C2802 1.356 . S
N2800 H2812 0.984 . S
N2800 H2813 0.985 . S
N2801 C2803 1.356 . S
N2801 H2806 0.984 . S
N2801 H2807 0.985 . S
C2802 C2796 1.379 . S
C2802 C2799 1.363 . S
C2802 N2800 1.356 . S
C2803 C2797 1.363 . S
C2803 C2798 1.379 . S
C2803 N2801 1.356 . S
N2804 C2796 1.356 . S
N2804 H2810 0.984 . S
N2804 H2811 0.984 . S
N2805 C2798 1.356 . S
N2805 H2808 0.984 . S
N2805 H2809 0.985 . S
H2806 N2801 0.984 . S
H2807 N2801 0.985 . S
H2808 N2805 0.984 . S
H2809 N2805 0.985 . S
H2810 N2804 0.984 . S
H2811 N2804 0.984 . S
H2812 N2800 0.984 . S
H2813 N2800 0.985 . S
C2814 C2815 1.363 . S
C2814 C2820 1.379 . S
C2814 N2822 1.356 . S
C2815 C2814 1.363 . S
C2815 C2821 1.363 . S
C2816 C2817 1.363 . S
C2816 C2821 1.379 . S
C2816 N2823 1.356 . S
C2817 C2816 1.363 . S
C2817 C2820 1.363 . S
N2818 C2820 1.356 . S
N2818 H2830 0.984 . S
N2818 H2831 0.985 . S
N2819 C2821 1.356 . S
N2819 H2824 0.984 . S
N2819 H2825 0.985 . S
C2820 C2814 1.379 . S
C2820 C2817 1.363 . S
C2820 N2818 1.356 . S
C2821 C2815 1.363 . S
C2821 C2816 1.379 . S
C2821 N2819 1.356 . S
N2822 C2814 1.356 . S
N2822 H2828 0.984 . S
N2822 H2829 0.984 . S
N2823 C2816 1.356 . S
N2823 H2826 0.984 . S
N2823 H2827 0.985 . S
H2824 N2819 0.984 . S
H2825 N2819 0.985 . S
H2826 N2823 0.984 . S
H2827 N2823 0.985 . S
H2828 N2822 0.984 . S
H2829 N2822 0.984 . S
H2830 N2818 0.984 . S
H2831 N2818 0.985 . S
C2832 C2833 1.363 . S
C2832 C2838 1.379 . S
C2832 N2840 1.356 . S
C2833 C2832 1.363 . S
C2833 C2839 1.363 . S
C2834 C2835 1.363 . S
C2834 C2839 1.379 . S
C2834 N2841 1.356 . S
C2835 C2834 1.363 . S
C2835 C2838 1.363 . S
N2836 C2838 1.356 . S
N2836 H2848 0.984 . S
N2836 H2849 0.985 . S
N2837 C2839 1.356 . S
N2837 H2842 0.984 . S
N2837 H2843 0.985 . S
C2838 C2832 1.379 . S
C2838 C2835 1.363 . S
C2838 N2836 1.356 . S
C2839 C2833 1.363 . S
C2839 C2834 1.379 . S
C2839 N2837 1.356 . S
N2840 C2832 1.356 . S
N2840 H2846 0.984 . S
N2840 H2847 0.984 . S
N2841 C2834 1.356 . S
N2841 H2844 0.984 . S
N2841 H2845 0.985 . S
H2842 N2837 0.984 . S
H2843 N2837 0.985 . S
H2844 N2841 0.984 . S
H2845 N2841 0.985 . S
H2846 N2840 0.984 . S
H2847 N2840 0.984 . S
H2848 N2836 0.984 . S
H2849 N2836 0.985 . S
C2850 C2851 1.363 . S
C2850 C2856 1.379 . S
C2850 N2858 1.356 . S
C2851 C2850 1.363 . S
C2851 C2857 1.363 . S
C2852 C2853 1.363 . S
C2852 C2857 1.379 . S
C2852 N2859 1.356 . S
C2853 C2852 1.363 . S
C2853 C2856 1.363 . S
N2854 C2856 1.356 . S
N2854 H2866 0.984 . S
N2854 H2867 0.985 . S
N2855 C2857 1.356 . S
N2855 H2860 0.984 . S
N2855 H2861 0.985 . S
C2856 C2850 1.379 . S
C2856 C2853 1.363 . S
C2856 N2854 1.356 . S
C2857 C2851 1.363 . S
C2857 C2852 1.379 . S
C2857 N2855 1.356 . S
N2858 C2850 1.356 . S
N2858 H2864 0.984 . S
N2858 H2865 0.984 . S
N2859 C2852 1.356 . S
N2859 H2862 0.984 . S
N2859 H2863 0.985 . S
H2860 N2855 0.984 . S
H2861 N2855 0.985 . S
H2862 N2859 0.984 . S
H2863 N2859 0.985 . S
H2864 N2858 0.984 . S
H2865 N2858 0.984 . S
H2866 N2854 0.984 . S
H2867 N2854 0.985 . S
C2868 C2869 1.363 . S
C2868 C2874 1.379 . S
C2868 N2876 1.356 . S
C2869 C2868 1.363 . S
C2869 C2875 1.363 . S
C2870 C2871 1.363 . S
C2870 C2875 1.379 . S
C2870 N2877 1.356 . S
C2871 C2870 1.363 . S
C2871 C2874 1.363 . S
N2872 C2874 1.356 . S
N2872 H2884 0.984 . S
N2872 H2885 0.985 . S
N2873 C2875 1.356 . S
N2873 H2878 0.984 . S
N2873 H2879 0.985 . S
C2874 C2868 1.379 . S
C2874 C2871 1.363 . S
C2874 N2872 1.356 . S
C2875 C2869 1.363 . S
C2875 C2870 1.379 . S
C2875 N2873 1.356 . S
N2876 C2868 1.356 . S
N2876 H2882 0.984 . S
N2876 H2883 0.984 . S
N2877 C2870 1.356 . S
N2877 H2880 0.984 . S
N2877 H2881 0.985 . S
H2878 N2873 0.984 . S
H2879 N2873 0.985 . S
H2880 N2877 0.984 . S
H2881 N2877 0.985 . S
H2882 N2876 0.984 . S
H2883 N2876 0.984 . S
H2884 N2872 0.984 . S
H2885 N2872 0.985 . S
C2886 C2887 1.363 . S
C2886 C2892 1.379 . S
C2886 N2894 1.356 . S
C2887 C2886 1.363 . S
C2887 C2893 1.363 . S
C2888 C2889 1.363 . S
C2888 C2893 1.379 . S
C2888 N2895 1.356 . S
C2889 C2888 1.363 . S
C2889 C2892 1.363 . S
N2890 C2892 1.356 . S
N2890 H2902 0.984 . S
N2890 H2903 0.985 . S
N2891 C2893 1.356 . S
N2891 H2896 0.984 . S
N2891 H2897 0.985 . S
C2892 C2886 1.379 . S
C2892 C2889 1.363 . S
C2892 N2890 1.356 . S
C2893 C2887 1.363 . S
C2893 C2888 1.379 . S
C2893 N2891 1.356 . S
N2894 C2886 1.356 . S
N2894 H2900 0.984 . S
N2894 H2901 0.984 . S
N2895 C2888 1.356 . S
N2895 H2898 0.984 . S
N2895 H2899 0.985 . S
H2896 N2891 0.984 . S
H2897 N2891 0.985 . S
H2898 N2895 0.984 . S
H2899 N2895 0.985 . S
H2900 N2894 0.984 . S
H2901 N2894 0.984 . S
H2902 N2890 0.984 . S
H2903 N2890 0.985 . S
C2904 C2905 1.363 . S
C2904 C2910 1.379 . S
C2904 N2912 1.356 . S
C2905 C2904 1.363 . S
C2905 C2911 1.363 . S
C2906 C2907 1.363 . S
C2906 C2911 1.379 . S
C2906 N2913 1.356 . S
C2907 C2906 1.363 . S
C2907 C2910 1.363 . S
N2908 C2910 1.356 . S
N2908 H2920 0.984 . S
N2908 H2921 0.985 . S
N2909 C2911 1.356 . S
N2909 H2914 0.984 . S
N2909 H2915 0.985 . S
C2910 C2904 1.379 . S
C2910 C2907 1.363 . S
C2910 N2908 1.356 . S
C2911 C2905 1.363 . S
C2911 C2906 1.379 . S
C2911 N2909 1.356 . S
N2912 C2904 1.356 . S
N2912 H2918 0.984 . S
N2912 H2919 0.984 . S
N2913 C2906 1.356 . S
N2913 H2916 0.984 . S
N2913 H2917 0.985 . S
H2914 N2909 0.984 . S
H2915 N2909 0.985 . S
H2916 N2913 0.984 . S
H2917 N2913 0.985 . S
H2918 N2912 0.984 . S
H2919 N2912 0.984 . S
H2920 N2908 0.984 . S
H2921 N2908 0.985 . S
C2922 C2923 1.363 . S
C2922 C2928 1.379 . S
C2922 N2930 1.356 . S
C2923 C2922 1.363 . S
C2923 C2929 1.363 . S
C2924 C2925 1.363 . S
C2924 C2929 1.379 . S
C2924 N2931 1.356 . S
C2925 C2924 1.363 . S
C2925 C2928 1.363 . S
N2926 C2928 1.356 . S
N2926 H2938 0.984 . S
N2926 H2939 0.985 . S
N2927 C2929 1.356 . S
N2927 H2932 0.984 . S
N2927 H2933 0.985 . S
C2928 C2922 1.379 . S
C2928 C2925 1.363 . S
C2928 N2926 1.356 . S
C2929 C2923 1.363 . S
C2929 C2924 1.379 . S
C2929 N2927 1.356 . S
N2930 C2922 1.356 . S
N2930 H2936 0.984 . S
N2930 H2937 0.984 . S
N2931 C2924 1.356 . S
N2931 H2934 0.984 . S
N2931 H2935 0.985 . S
H2932 N2927 0.984 . S
H2933 N2927 0.985 . S
H2934 N2931 0.984 . S
H2935 N2931 0.985 . S
H2936 N2930 0.984 . S
H2937 N2930 0.984 . S
H2938 N2926 0.984 . S
H2939 N2926 0.985 . S
C2940 C2941 1.363 . S
C2940 C2946 1.379 . S
C2940 N2948 1.356 . S
C2941 C2940 1.363 . S
C2941 C2947 1.363 . S
C2942 C2943 1.363 . S
C2942 C2947 1.379 . S
C2942 N2949 1.356 . S
C2943 C2942 1.363 . S
C2943 C2946 1.363 . S
N2944 C2946 1.356 . S
N2944 H2956 0.984 . S
N2944 H2957 0.985 . S
N2945 C2947 1.356 . S
N2945 H2950 0.984 . S
N2945 H2951 0.985 . S
C2946 C2940 1.379 . S
C2946 C2943 1.363 . S
C2946 N2944 1.356 . S
C2947 C2941 1.363 . S
C2947 C2942 1.379 . S
C2947 N2945 1.356 . S
N2948 C2940 1.356 . S
N2948 H2954 0.984 . S
N2948 H2955 0.984 . S
N2949 C2942 1.356 . S
N2949 H2952 0.984 . S
N2949 H2953 0.985 . S
H2950 N2945 0.984 . S
H2951 N2945 0.985 . S
H2952 N2949 0.984 . S
H2953 N2949 0.985 . S
H2954 N2948 0.984 . S
H2955 N2948 0.984 . S
H2956 N2944 0.984 . S
H2957 N2944 0.985 . S
C2958 C2959 1.363 . S
C2958 C2964 1.379 . S
C2958 N2966 1.356 . S
C2959 C2958 1.363 . S
C2959 C2965 1.363 . S
C2960 C2961 1.363 . S
C2960 C2965 1.379 . S
C2960 N2967 1.356 . S
C2961 C2960 1.363 . S
C2961 C2964 1.363 . S
N2962 C2964 1.356 . S
N2962 H2974 0.984 . S
N2962 H2975 0.985 . S
N2963 C2965 1.356 . S
N2963 H2968 0.984 . S
N2963 H2969 0.985 . S
C2964 C2958 1.379 . S
C2964 C2961 1.363 . S
C2964 N2962 1.356 . S
C2965 C2959 1.363 . S
C2965 C2960 1.379 . S
C2965 N2963 1.356 . S
N2966 C2958 1.356 . S
N2966 H2972 0.984 . S
N2966 H2973 0.984 . S
N2967 C2960 1.356 . S
N2967 H2970 0.984 . S
N2967 H2971 0.985 . S
H2968 N2963 0.984 . S
H2969 N2963 0.985 . S
H2970 N2967 0.984 . S
H2971 N2967 0.985 . S
H2972 N2966 0.984 . S
H2973 N2966 0.984 . S
H2974 N2962 0.984 . S
H2975 N2962 0.985 . S
C2113 C1017 1.576 . S
C2115 C49 1.574 . S
C2131 C145 1.574 . S
C2133 C733 1.576 . S
C2149 C233 1.574 . S
C2151 C812 1.576 . S
C2167 C313 1.574 . S
C2169 C929 1.576 . S
C2185 C1164 1.576 . S
C2187 C381 1.574 . S
C2203 C460 1.574 . S
C2205 C1261 1.576 . S
C2221 C1369 1.576 . S
C2223 C557 1.574 . S
C2239 C1105 1.576 . S
C2241 C645 1.574 . S
C2257 C489 1.576 . S
C2259 C761 1.574 . S
C2275 C585 1.576 . S
C2277 C841 1.574 . S
C2293 C900 1.574 . S
C2295 C673 1.576 . S
C2311 C409 1.576 . S
C2313 C988 1.574 . S
C2329 C284 1.576 . S
C2331 C1076 1.574 . S
C2347 C1193 1.574 . S
C2349 C20 1.576 . S
C2365 C1289 1.574 . S
C2367 C117 1.576 . S
C2383 C1340 1.574 . S
C2385 C205 1.576 . S
C2401 C1457 1.574 . S
C2403 C2044 1.576 . S
C2419 C1817 1.576 . S
C2421 C1516 1.574 . S
C2437 C1604 1.574 . S
C2439 C1545 1.576 . S
C2455 C1701 1.574 . S
C2457 C1633 1.576 . S
C2473 C1729 1.576 . S
C2475 C1789 1.574 . S
C2491 C1905 1.574 . S
C2493 C1965 1.576 . S
C2509 C1428 1.576 . S
C2511 C1993 1.574 . S
C2527 C1877 1.576 . S
C2529 C2073 1.574 . S
C2545 C57 1.434 . S
C2547 C548 1.434 . S
C2563 C137 1.434 . S
C2565 C636 1.434 . S
C2581 C225 1.434 . S
C2583 C372 1.434 . S
C2599 C469 1.434 . S
C2601 C321 1.434 . S
C2617 C909 1.434 . S
C2619 C753 1.434 . S
C2635 C849 1.434 . S
C2637 C997 1.434 . S
C2653 C1085 1.434 . S
C2655 C1281 1.434 . S
C2671 C1349 1.434 . S
C2673 C1201 1.434 . S
C2689 C1525 1.434 . S
C2691 C1465 1.434 . S
C2707 C1613 1.434 . S
C2709 C2081 1.434 . S
C2725 C1692 1.434 . S
C2727 C1897 1.434 . S
C2743 C1780 1.434 . S
C2745 C1985 1.434 . S
C2761 C29 0.728 . S
C2763 C497 0.728 . S
C2779 C108 0.728 . S
C2781 C577 0.728 . S
C2797 C196 0.728 . S
C2799 C665 0.728 . S
C2815 C401 0.728 . S
C2817 C293 0.728 . S
C2833 C724 0.728 . S
C2835 C2053 0.728 . S
C2851 C821 0.728 . S
C2853 C1868 0.728 . S
C2869 C1956 0.728 . S
C2871 C937 0.728 . S
C2887 C1025 0.728 . S
C2889 C1437 0.728 . S
C2905 C1809 0.728 . S
C2907 C1113 0.728 . S
C2923 C1553 0.728 . S
C2925 C1173 0.728 . S
C2941 C1252 0.728 . S
C2943 C1641 0.728 . S
C2959 C1721 0.728 . S
C2961 C1377 0.728 . S
