# Generated by pormake.
# Topology yfu, (5)-cn, num edge types: 1
# Building blocks:
#     Node 0, Type 0, BuildingBlock: BEQFEK_clean_sbu_0, # of connection points: 5
#     Node 1, Type 0, BuildingBlock: BEQFEK_clean_sbu_0, # of connection points: 5
#     Node 2, Type 0, BuildingBlock: BEQFEK_clean_sbu_0, # of connection points: 5
#     Node 3, Type 0, BuildingBlock: BEQFEK_clean_sbu_0, # of connection points: 5
#     Node 4, Type 0, BuildingBlock: BEQFEK_clean_sbu_0, # of connection points: 5
#     Node 5, Type 0, BuildingBlock: BEQFEK_clean_sbu_0, # of connection points: 5
#     Node 6, Type 0, BuildingBlock: BEQFEK_clean_sbu_0, # of connection points: 5
#     Node 7, Type 0, BuildingBlock: BEQFEK_clean_sbu_0, # of connection points: 5
#     Node 8, Type 0, BuildingBlock: BEQFEK_clean_sbu_0, # of connection points: 5
#     Node 9, Type 0, BuildingBlock: BEQFEK_clean_sbu_0, # of connection points: 5
#     Node 10, Type 0, BuildingBlock: BEQFEK_clean_sbu_0, # of connection points: 5
#     Node 11, Type 0, BuildingBlock: BEQFEK_clean_sbu_0, # of connection points: 5
#     Node 12, Type 0, BuildingBlock: BEQFEK_clean_sbu_0, # of connection points: 5
#     Node 13, Type 0, BuildingBlock: BEQFEK_clean_sbu_0, # of connection points: 5
#     Node 14, Type 0, BuildingBlock: BEQFEK_clean_sbu_0, # of connection points: 5
#     Node 15, Type 0, BuildingBlock: BEQFEK_clean_sbu_0, # of connection points: 5
#     Node 16, Type 0, BuildingBlock: BEQFEK_clean_sbu_0, # of connection points: 5
#     Node 17, Type 0, BuildingBlock: BEQFEK_clean_sbu_0, # of connection points: 5
#     Node 18, Type 0, BuildingBlock: BEQFEK_clean_sbu_0, # of connection points: 5
#     Node 19, Type 0, BuildingBlock: BEQFEK_clean_sbu_0, # of connection points: 5
#     Node 20, Type 0, BuildingBlock: BEQFEK_clean_sbu_0, # of connection points: 5
#     Node 21, Type 0, BuildingBlock: BEQFEK_clean_sbu_0, # of connection points: 5
#     Node 22, Type 0, BuildingBlock: BEQFEK_clean_sbu_0, # of connection points: 5
#     Node 23, Type 0, BuildingBlock: BEQFEK_clean_sbu_0, # of connection points: 5
#     Node 24, Type 0, BuildingBlock: BEQFEK_clean_sbu_0, # of connection points: 5
#     Node 25, Type 0, BuildingBlock: BEQFEK_clean_sbu_0, # of connection points: 5
#     Node 26, Type 0, BuildingBlock: BEQFEK_clean_sbu_0, # of connection points: 5
#     Node 27, Type 0, BuildingBlock: BEQFEK_clean_sbu_0, # of connection points: 5
#     Node 28, Type 0, BuildingBlock: BEQFEK_clean_sbu_0, # of connection points: 5
#     Node 29, Type 0, BuildingBlock: BEQFEK_clean_sbu_0, # of connection points: 5
#     Node 30, Type 0, BuildingBlock: BEQFEK_clean_sbu_0, # of connection points: 5
#     Node 31, Type 0, BuildingBlock: BEQFEK_clean_sbu_0, # of connection points: 5
#     Edge 32, Type (0, 0), BuildingBlock: XIVTED_clean_linker_0, # of connection points: 2
#     Edge 33, Type (0, 0), BuildingBlock: XIVTED_clean_linker_0, # of connection points: 2
#     Edge 34, Type (0, 0), BuildingBlock: XIVTED_clean_linker_0, # of connection points: 2
#     Edge 35, Type (0, 0), BuildingBlock: XIVTED_clean_linker_0, # of connection points: 2
#     Edge 36, Type (0, 0), BuildingBlock: XIVTED_clean_linker_0, # of connection points: 2
#     Edge 37, Type (0, 0), BuildingBlock: XIVTED_clean_linker_0, # of connection points: 2
#     Edge 38, Type (0, 0), BuildingBlock: XIVTED_clean_linker_0, # of connection points: 2
#     Edge 39, Type (0, 0), BuildingBlock: XIVTED_clean_linker_0, # of connection points: 2
#     Edge 40, Type (0, 0), BuildingBlock: XIVTED_clean_linker_0, # of connection points: 2
#     Edge 41, Type (0, 0), BuildingBlock: XIVTED_clean_linker_0, # of connection points: 2
#     Edge 42, Type (0, 0), BuildingBlock: XIVTED_clean_linker_0, # of connection points: 2
#     Edge 43, Type (0, 0), BuildingBlock: XIVTED_clean_linker_0, # of connection points: 2
#     Edge 44, Type (0, 0), BuildingBlock: XIVTED_clean_linker_0, # of connection points: 2
#     Edge 45, Type (0, 0), BuildingBlock: XIVTED_clean_linker_0, # of connection points: 2
#     Edge 46, Type (0, 0), BuildingBlock: XIVTED_clean_linker_0, # of connection points: 2
#     Edge 47, Type (0, 0), BuildingBlock: XIVTED_clean_linker_0, # of connection points: 2
#     Edge 48, Type (0, 0), BuildingBlock: XIVTED_clean_linker_0, # of connection points: 2
#     Edge 49, Type (0, 0), BuildingBlock: XIVTED_clean_linker_0, # of connection points: 2
#     Edge 50, Type (0, 0), BuildingBlock: XIVTED_clean_linker_0, # of connection points: 2
#     Edge 51, Type (0, 0), BuildingBlock: XIVTED_clean_linker_0, # of connection points: 2
#     Edge 52, Type (0, 0), BuildingBlock: XIVTED_clean_linker_0, # of connection points: 2
#     Edge 53, Type (0, 0), BuildingBlock: XIVTED_clean_linker_0, # of connection points: 2
#     Edge 54, Type (0, 0), BuildingBlock: XIVTED_clean_linker_0, # of connection points: 2
#     Edge 55, Type (0, 0), BuildingBlock: XIVTED_clean_linker_0, # of connection points: 2
#     Edge 56, Type (0, 0), BuildingBlock: XIVTED_clean_linker_0, # of connection points: 2
#     Edge 57, Type (0, 0), BuildingBlock: XIVTED_clean_linker_0, # of connection points: 2
#     Edge 58, Type (0, 0), BuildingBlock: XIVTED_clean_linker_0, # of connection points: 2
#     Edge 59, Type (0, 0), BuildingBlock: XIVTED_clean_linker_0, # of connection points: 2
#     Edge 60, Type (0, 0), BuildingBlock: XIVTED_clean_linker_0, # of connection points: 2
#     Edge 61, Type (0, 0), BuildingBlock: XIVTED_clean_linker_0, # of connection points: 2
#     Edge 62, Type (0, 0), BuildingBlock: XIVTED_clean_linker_0, # of connection points: 2
#     Edge 63, Type (0, 0), BuildingBlock: XIVTED_clean_linker_0, # of connection points: 2
#     Edge 64, Type (0, 0), BuildingBlock: XIVTED_clean_linker_0, # of connection points: 2
#     Edge 65, Type (0, 0), BuildingBlock: XIVTED_clean_linker_0, # of connection points: 2
#     Edge 66, Type (0, 0), BuildingBlock: XIVTED_clean_linker_0, # of connection points: 2
#     Edge 67, Type (0, 0), BuildingBlock: XIVTED_clean_linker_0, # of connection points: 2
#     Edge 68, Type (0, 0), BuildingBlock: XIVTED_clean_linker_0, # of connection points: 2
#     Edge 69, Type (0, 0), BuildingBlock: XIVTED_clean_linker_0, # of connection points: 2
#     Edge 70, Type (0, 0), BuildingBlock: XIVTED_clean_linker_0, # of connection points: 2
#     Edge 71, Type (0, 0), BuildingBlock: XIVTED_clean_linker_0, # of connection points: 2
#     Edge 72, Type (0, 0), BuildingBlock: XIVTED_clean_linker_0, # of connection points: 2
#     Edge 73, Type (0, 0), BuildingBlock: XIVTED_clean_linker_0, # of connection points: 2
#     Edge 74, Type (0, 0), BuildingBlock: XIVTED_clean_linker_0, # of connection points: 2
#     Edge 75, Type (0, 0), BuildingBlock: XIVTED_clean_linker_0, # of connection points: 2
#     Edge 76, Type (0, 0), BuildingBlock: XIVTED_clean_linker_0, # of connection points: 2
#     Edge 77, Type (0, 0), BuildingBlock: XIVTED_clean_linker_0, # of connection points: 2
#     Edge 78, Type (0, 0), BuildingBlock: XIVTED_clean_linker_0, # of connection points: 2
#     Edge 79, Type (0, 0), BuildingBlock: XIVTED_clean_linker_0, # of connection points: 2
#     Edge 80, Type (0, 0), BuildingBlock: XIVTED_clean_linker_0, # of connection points: 2
#     Edge 81, Type (0, 0), BuildingBlock: XIVTED_clean_linker_0, # of connection points: 2
#     Edge 82, Type (0, 0), BuildingBlock: XIVTED_clean_linker_0, # of connection points: 2
#     Edge 83, Type (0, 0), BuildingBlock: XIVTED_clean_linker_0, # of connection points: 2
#     Edge 84, Type (0, 0), BuildingBlock: XIVTED_clean_linker_0, # of connection points: 2
#     Edge 85, Type (0, 0), BuildingBlock: XIVTED_clean_linker_0, # of connection points: 2
#     Edge 86, Type (0, 0), BuildingBlock: XIVTED_clean_linker_0, # of connection points: 2
#     Edge 87, Type (0, 0), BuildingBlock: XIVTED_clean_linker_0, # of connection points: 2
#     Edge 88, Type (0, 0), BuildingBlock: XIVTED_clean_linker_0, # of connection points: 2
#     Edge 89, Type (0, 0), BuildingBlock: XIVTED_clean_linker_0, # of connection points: 2
#     Edge 90, Type (0, 0), BuildingBlock: XIVTED_clean_linker_0, # of connection points: 2
#     Edge 91, Type (0, 0), BuildingBlock: XIVTED_clean_linker_0, # of connection points: 2
#     Edge 92, Type (0, 0), BuildingBlock: XIVTED_clean_linker_0, # of connection points: 2
#     Edge 93, Type (0, 0), BuildingBlock: XIVTED_clean_linker_0, # of connection points: 2
#     Edge 94, Type (0, 0), BuildingBlock: XIVTED_clean_linker_0, # of connection points: 2
#     Edge 95, Type (0, 0), BuildingBlock: XIVTED_clean_linker_0, # of connection points: 2
#     Edge 96, Type (0, 0), BuildingBlock: XIVTED_clean_linker_0, # of connection points: 2
#     Edge 97, Type (0, 0), BuildingBlock: XIVTED_clean_linker_0, # of connection points: 2
#     Edge 98, Type (0, 0), BuildingBlock: XIVTED_clean_linker_0, # of connection points: 2
#     Edge 99, Type (0, 0), BuildingBlock: XIVTED_clean_linker_0, # of connection points: 2
#     Edge 100, Type (0, 0), BuildingBlock: XIVTED_clean_linker_0, # of connection points: 2
#     Edge 101, Type (0, 0), BuildingBlock: XIVTED_clean_linker_0, # of connection points: 2
#     Edge 102, Type (0, 0), BuildingBlock: XIVTED_clean_linker_0, # of connection points: 2
#     Edge 103, Type (0, 0), BuildingBlock: XIVTED_clean_linker_0, # of connection points: 2
#     Edge 104, Type (0, 0), BuildingBlock: XIVTED_clean_linker_0, # of connection points: 2
#     Edge 105, Type (0, 0), BuildingBlock: XIVTED_clean_linker_0, # of connection points: 2
#     Edge 106, Type (0, 0), BuildingBlock: XIVTED_clean_linker_0, # of connection points: 2
#     Edge 107, Type (0, 0), BuildingBlock: XIVTED_clean_linker_0, # of connection points: 2
#     Edge 108, Type (0, 0), BuildingBlock: XIVTED_clean_linker_0, # of connection points: 2
#     Edge 109, Type (0, 0), BuildingBlock: XIVTED_clean_linker_0, # of connection points: 2
#     Edge 110, Type (0, 0), BuildingBlock: XIVTED_clean_linker_0, # of connection points: 2
#     Edge 111, Type (0, 0), BuildingBlock: XIVTED_clean_linker_0, # of connection points: 2
# Relax obj value: 0.356
# Max RMSD: 0.200
# Mean RMSD: 0.200
data_MOF--net-yfu--node1-BEQFEK_clean_sbu_0--edge1-XIVTED_clean_linker_0
_symmetry_space_group_name_H-M    P1
_symmetry_Int_Tables_number       1
_symmetry_cell_setting            triclinic
loop_
_symmetry_equiv_pos_as_xyz
'x, y, z'
_cell_length_a     48.213761
_cell_length_b     48.311057
_cell_length_c     91.813674
_cell_angle_alpha  90.040065
_cell_angle_beta   89.983367
_cell_angle_gamma 90.03182
loop_
_atom_site_label
_atom_site_type_symbol
_atom_site_fract_x
_atom_site_fract_y
_atom_site_fract_z
_atom_type_partial_charge
Co0 Co 0.01373 0.09007 0.31749 0.0
Co1 Co 0.0389 0.04112 0.33572 0.0
C2 C 0.06558 0.09658 0.33548 0.0
O3 O 0.04723 0.10596 0.3268 0.0
O4 O 0.06473 0.07178 0.34014 0.0
C5 C 0.01209 0.13681 0.29801 0.0
O6 O 0.03926 0.1357 0.29889 0.0
C7 C 0.07862 7e-05 0.34705 0.0
C8 C 0.05079 0.96469 0.35152 0.0
C9 C 0.07833 0.97286 0.35193 0.0
N10 N 0.05243 0.00751 0.34388 0.0
N11 N 0.0359 0.98638 0.34673 0.0
C12 C 0.10344 0.01784 0.34408 0.0
H13 H 0.09905 0.03257 0.33512 0.0
H14 H 0.12168 0.00502 0.3411 0.0
H15 H 0.1085 0.02991 0.35402 0.0
C16 C 0.02395 0.05141 0.29346 0.0
N17 N 0.02338 0.05748 0.30772 0.0
N18 N 0.03496 0.03724 0.31514 0.0
C19 C 0.04394 0.0178 0.30571 0.0
C20 C 0.03732 0.02623 0.29165 0.0
C21 C 0.01201 0.06962 0.28187 0.0
H22 H 0.99231 0.0789 0.28574 0.0
H23 H 0.02679 0.08663 0.27949 0.0
H24 H 0.00797 0.05784 0.27171 0.0
O25 O 0.9851 0.08231 0.33201 0.0
O26 O 0.00278 0.04851 0.34544 0.0
H27 H 0.04894 0.97902 0.31661 0.0
H28 H 0.07014 0.98247 0.30047 0.0
C29 C 0.0615 0.99358 0.30999 0.0
H30 H 0.07905 0.0009 0.31673 0.0
H31 H 0.01449 0.98657 0.34506 0.0
O32 O -0.00233 0.11854 0.30447 0.0
C33 C 0.98333 0.06541 0.34255 0.0
Co34 Co 0.13809 0.79338 0.55957 0.0
Co35 Co 0.18648 0.81873 0.57813 0.0
C36 C 0.12895 0.83276 0.58498 0.0
O37 O 0.12096 0.81633 0.57497 0.0
O38 O 0.15456 0.83708 0.58743 0.0
C39 C 0.0888 0.79872 0.54269 0.0
O40 O 0.0916 0.82498 0.54613 0.0
C41 C 0.22647 0.85538 0.59306 0.0
C42 C 0.26471 0.83027 0.59146 0.0
C43 C 0.2545 0.85525 0.59654 0.0
N44 N 0.22057 0.83166 0.58604 0.0
N45 N 0.24347 0.81672 0.58519 0.0
C46 C 0.20514 0.87656 0.59708 0.0
H47 H 0.1966 0.88599 0.58701 0.0
H48 H 0.21366 0.8929 0.60427 0.0
H49 H 0.1878 0.86626 0.60287 0.0
C50 C 0.17107 0.81714 0.5357 0.0
N51 N 0.16608 0.81303 0.54992 0.0
N52 N 0.18584 0.82467 0.55767 0.0
C53 C 0.20361 0.83751 0.54859 0.0
C54 C 0.19499 0.83298 0.53435 0.0
C55 C 0.15504 0.80324 0.52378 0.0
H56 H 0.14622 0.78342 0.52771 0.0
H57 H 0.13773 0.81692 0.52038 0.0
H58 H 0.16836 0.799 0.51418 0.0
O59 O 0.15346 0.76012 0.56848 0.0
O60 O 0.18515 0.77853 0.58309 0.0
H61 H 0.24493 0.84012 0.5569 0.0
H62 H 0.23568 0.86798 0.54471 0.0
C63 C 0.228 0.85425 0.55351 0.0
H64 H 0.22205 0.86715 0.56299 0.0
H65 H 0.24458 0.79728 0.58027 0.0
O66 O 0.10743 0.78169 0.54661 0.0
C67 C 0.17191 0.75763 0.57826 0.0
Co68 Co 0.45821 0.87857 0.80815 0.0
Co69 Co 0.44675 0.92941 0.8287 0.0
C70 C 0.41284 0.87639 0.82951 0.0
O71 O 0.42555 0.86553 0.81879 0.0
O72 O 0.41971 0.90003 0.83452 0.0
C73 C 0.45893 0.8274 0.79193 0.0
O74 O 0.43399 0.82383 0.79738 0.0
C75 C 0.41122 0.97517 0.8384 0.0
C76 C 0.44119 0.00201 0.84991 0.0
C77 C 0.4136 0.00029 0.84571 0.0
N78 N 0.43632 0.96302 0.8381 0.0
N79 N 0.45408 0.97908 0.84508 0.0
C80 C 0.38553 0.96229 0.83219 0.0
H81 H 0.38786 0.93961 0.83121 0.0
H82 H 0.38176 0.97061 0.82112 0.0
H83 H 0.36728 0.96706 0.83912 0.0
C84 C 0.4485 0.92057 0.78565 0.0
N85 N 0.45071 0.91287 0.79964 0.0
N86 N 0.44716 0.93457 0.80813 0.0
C87 C 0.44346 0.95708 0.79969 0.0
C88 C 0.44384 0.94886 0.78521 0.0
C89 C 0.4494 0.90077 0.77312 0.0
H90 H 0.44007 0.88069 0.77634 0.0
H91 H 0.43815 0.90911 0.76354 0.0
H92 H 0.47135 0.89704 0.77006 0.0
O93 O 0.48956 0.88189 0.82173 0.0
O94 O 0.48394 0.91874 0.83578 0.0
H95 H 0.44899 0.00112 0.7968 0.0
H96 H 0.42052 0.99124 0.80832 0.0
C97 C 0.44216 0.98619 0.80526 0.0
H98 H 0.45563 0.98856 0.81495 0.0
H99 H 0.4751 0.97456 0.84637 0.0
O100 O 0.47136 0.85024 0.79408 0.0
C101 C 0.49813 0.89794 0.83174 0.0
Co102 Co 0.35386 0.20135 0.05307 0.0
Co103 Co 0.29833 0.17826 0.06669 0.0
C104 C 0.35273 0.15342 0.07408 0.0
O105 O 0.36549 0.17026 0.06576 0.0
O106 O 0.32653 0.15432 0.07567 0.0
C107 C 0.40795 0.2001 0.03956 0.0
O108 O 0.40642 0.17332 0.04192 0.0
C109 C 0.25408 0.14339 0.07928 0.0
C110 C 0.21682 0.16843 0.07449 0.0
C111 C 0.22549 0.14419 0.08111 0.0
N112 N 0.26185 0.166 0.07177 0.0
N113 N 0.23947 0.18084 0.06894 0.0
C114 C 0.27414 0.1234 0.08591 0.0
H115 H 0.28879 0.13496 0.09295 0.0
H116 H 0.28631 0.11327 0.07714 0.0
H117 H 0.26375 0.10748 0.09266 0.0
C118 C 0.32416 0.1886 0.02588 0.0
N119 N 0.32572 0.18931 0.04048 0.0
N120 N 0.30318 0.17821 0.04609 0.0
C121 C 0.28702 0.16893 0.03518 0.0
C122 C 0.29961 0.17545 0.02199 0.0
C123 C 0.34487 0.20218 0.01605 0.0
H124 H 0.35379 0.2207 0.02143 0.0
H125 H 0.36195 0.18742 0.01376 0.0
H126 H 0.33526 0.20858 0.00561 0.0
O127 O 0.34031 0.23234 0.06485 0.0
O128 O 0.30181 0.21612 0.07499 0.0
H129 H 0.24352 0.16653 0.03947 0.0
H130 H 0.25635 0.1395 0.02769 0.0
C131 C 0.26114 0.15232 0.0374 0.0
H132 H 0.26356 0.13851 0.04696 0.0
H133 H 0.23975 0.19971 0.06341 0.0
O134 O 0.38733 0.2153 0.04278 0.0
C135 C 0.31941 0.23543 0.07312 0.0
Co136 Co 0.05063 0.88413 0.16526 0.0
Co137 Co 0.06953 0.9395 0.15008 0.0
C138 C 0.09596 0.88598 0.14266 0.0
O139 O 0.08074 0.87322 0.1518 0.0
O140 O 0.09367 0.91191 0.14058 0.0
C141 C 0.05551 0.83074 0.1793 0.0
O142 O 0.0818 0.83264 0.17567 0.0
C143 C 0.10379 0.98454 0.13815 0.0
C144 C 0.07401 0.01929 0.13809 0.0
C145 C 0.10088 0.0122 0.13424 0.0
N146 N 0.07966 0.97576 0.14385 0.0
N147 N 0.06199 -0.00335 0.14383 0.0
C148 C 0.12935 0.96704 0.13741 0.0
H149 H 0.12941 0.95182 0.14645 0.0
H150 H 0.14833 0.97999 0.13806 0.0
H151 H 0.12948 0.95546 0.12696 0.0
C152 C 0.06226 0.91693 0.1915 0.0
N153 N 0.0624 0.91359 0.17699 0.0
N154 N 0.07164 0.9363 0.17074 0.0
C155 C 0.07872 0.95457 0.18117 0.0
C156 C 0.07278 0.94302 0.1947 0.0
C157 C 0.04899 0.89681 0.20178 0.0
H158 H 0.03138 0.88624 0.19638 0.0
H159 H 0.06448 0.88094 0.20496 0.0
H160 H 0.04118 0.90724 0.21173 0.0
O161 O 0.01764 0.89556 0.15438 0.0
O162 O 0.03085 0.93407 0.14317 0.0
H163 H 0.07482 -0.00325 0.17448 0.0
H164 H 0.10143 0.99098 0.18803 0.0
C165 C 0.09127 0.98233 0.17818 0.0
H166 H 0.10693 0.9805 0.1694 0.0
H167 H 0.04161 0.99535 0.14759 0.0
O168 O 0.03934 0.85083 0.17651 0.0
C169 C 0.01257 0.91584 0.146 0.0
Co170 Co 0.35381 0.78897 0.41407 0.0
Co171 Co 0.30265 0.81112 0.39627 0.0
C172 C 0.35761 0.83739 0.39319 0.0
O173 O 0.36799 0.82041 0.40231 0.0
O174 O 0.33215 0.83633 0.38952 0.0
C175 C 0.40397 0.79091 0.43121 0.0
O176 O 0.40294 0.81767 0.42871 0.0
C177 C 0.25764 0.84478 0.38302 0.0
C178 C 0.22303 0.8148 0.38419 0.0
C179 C 0.22954 0.84157 0.38006 0.0
N180 N 0.26706 0.82106 0.38889 0.0
N181 N 0.24631 0.80322 0.38943 0.0
C182 C 0.2756 0.86928 0.37975 0.0
H183 H 0.28013 0.88052 0.39002 0.0
H184 H 0.26552 0.88355 0.37192 0.0
H185 H 0.29557 0.86225 0.37507 0.0
C186 C 0.31744 0.8033 0.43872 0.0
N187 N 0.32241 0.80064 0.42439 0.0
N188 N 0.30163 0.81129 0.41699 0.0
C189 C 0.28312 0.82199 0.42642 0.0
C190 C 0.2924 0.8171 0.44051 0.0
C191 C 0.33621 0.79226 0.45032 0.0
H192 H 0.34608 0.77279 0.44658 0.0
H193 H 0.35282 0.80761 0.45252 0.0
H194 H 0.32466 0.7882 0.46056 0.0
O195 O 0.34461 0.75756 0.40145 0.0
O196 O 0.30969 0.77362 0.38827 0.0
H197 H 0.24184 0.82576 0.41816 0.0
H198 H 0.25126 0.85245 0.43105 0.0
C199 C 0.25889 0.8394 0.42195 0.0
H200 H 0.26502 0.85318 0.41287 0.0
H201 H 0.24799 0.78318 0.39358 0.0
O202 O 0.38428 0.77562 0.42674 0.0
C203 C 0.32664 0.75443 0.39148 0.0
Co204 Co 0.43508 0.12218 0.66821 0.0
Co205 Co 0.41883 0.06733 0.65203 0.0
C206 C 0.39548 0.12151 0.64294 0.0
O207 O 0.40872 0.13402 0.65297 0.0
O208 O 0.39753 0.09547 0.64113 0.0
C209 C 0.42727 0.17465 0.68239 0.0
O210 O 0.40178 0.17236 0.67748 0.0
C211 C 0.38418 0.02211 0.64102 0.0
C212 C 0.41471 0.98816 0.63917 0.0
C213 C 0.38694 0.99444 0.63716 0.0
N214 N 0.40917 0.03159 0.64512 0.0
N215 N 0.42737 0.01129 0.64389 0.0
C216 C 0.35812 0.03879 0.64209 0.0
H217 H 0.36059 0.05551 0.65028 0.0
H218 H 0.34027 0.02544 0.64509 0.0
H219 H 0.35383 0.04849 0.63137 0.0
C220 C 0.41879 0.08911 0.69364 0.0
N221 N 0.42 0.09307 0.67917 0.0
N222 N 0.41283 0.07011 0.67243 0.0
C223 C 0.40663 0.05079 0.68246 0.0
C224 C 0.4104 0.0621 0.69621 0.0
C225 C 0.42991 0.10934 0.70453 0.0
H226 H 0.45149 0.11501 0.70155 0.0
H227 H 0.41725 0.1285 0.70416 0.0
H228 H 0.4296 0.1009 0.71576 0.0
O229 O 0.47036 0.11017 0.65923 0.0
O230 O 0.45861 0.07166 0.64762 0.0
H231 H 0.41842 0.01132 0.67392 0.0
H232 H 0.39423 0.00947 0.68895 0.0
C233 C 0.40008 0.02121 0.67902 0.0
H234 H 0.38259 0.02033 0.67122 0.0
H235 H 0.44836 0.01313 0.64648 0.0
O236 O 0.44422 0.1549 0.68031 0.0
C237 C 0.47668 0.08952 0.65128 0.0
Co238 Co 0.1576 0.21311 0.89785 0.0
Co239 Co 0.20592 0.18883 0.87867 0.0
C240 C 0.14996 0.16307 0.87862 0.0
O241 O 0.14126 0.18072 0.88787 0.0
O242 O 0.17469 0.16369 0.87371 0.0
C243 C 0.11102 0.21485 0.91784 0.0
O244 O 0.10981 0.18795 0.91585 0.0
C245 C 0.24826 0.15072 0.86692 0.0
C246 C 0.28315 0.17972 0.86346 0.0
C247 C 0.27587 0.15204 0.86267 0.0
N248 N 0.23974 0.17649 0.87017 0.0
N249 N 0.26055 0.19375 0.86783 0.0
C250 C 0.23121 0.12526 0.86942 0.0
H251 H 0.21519 0.12913 0.87784 0.0
H252 H 0.24449 0.10767 0.87284 0.0
H253 H 0.22064 0.11955 0.85911 0.0
C254 C 0.19684 0.20136 0.92127 0.0
N255 N 0.19034 0.20246 0.90708 0.0
N256 N 0.21035 0.19119 0.89934 0.0
C257 C 0.23017 0.18196 0.90853 0.0
C258 C 0.2221 0.18799 0.92271 0.0
C259 C 0.17915 0.21323 0.93313 0.0
H260 H 0.1703 0.23329 0.92957 0.0
H261 H 0.16178 0.19881 0.93545 0.0
H262 H 0.19123 0.2166 0.94326 0.0
O263 O 0.16509 0.24255 0.88384 0.0
O264 O 0.19834 0.22554 0.86974 0.0
H265 H 0.26869 0.17824 0.89716 0.0
H266 H 0.26655 0.15705 0.91333 0.0
C267 C 0.25477 0.16524 0.90391 0.0
H268 H 0.2477 0.14751 0.89724 0.0
H269 H 0.25963 0.21501 0.8698 0.0
O270 O 0.13003 0.2287 0.91161 0.0
C271 C 0.18162 0.24485 0.87314 0.0
Co272 Co 0.94359 0.871 0.67668 0.0
Co273 Co 0.93486 0.92846 0.66126 0.0
C274 C 0.8982 0.87864 0.6555 0.0
O275 O 0.9103 0.86376 0.66501 0.0
O276 O 0.90614 0.9033 0.65279 0.0
C277 C 0.94164 0.81506 0.68755 0.0
O278 O 0.91718 0.81432 0.68127 0.0
C279 C 0.90251 0.97663 0.65226 0.0
C280 C 0.93496 0.00806 0.64828 0.0
C281 C 0.90655 0.00386 0.64802 0.0
N282 N 0.92739 0.9652 0.65488 0.0
N283 N 0.94674 0.98403 0.6524 0.0
C284 C 0.87553 0.9621 0.6548 0.0
H285 H 0.87776 0.94673 0.6637 0.0
H286 H 0.85891 0.97708 0.65759 0.0
H287 H 0.86951 0.95091 0.64473 0.0
C288 C 0.93528 0.90524 0.70279 0.0
N289 N 0.93798 0.90235 0.68831 0.0
N290 N 0.93463 0.92655 0.68197 0.0
C291 C 0.93007 0.9458 0.69231 0.0
C292 C 0.93013 0.93288 0.70582 0.0
C293 C 0.93567 0.88154 0.71327 0.0
H294 H 0.95751 0.8756 0.71543 0.0
H295 H 0.92497 0.86343 0.70841 0.0
H296 H 0.92551 0.88706 0.72372 0.0
O297 O 0.97487 0.87638 0.66325 0.0
O298 O 0.97135 0.9179 0.65321 0.0
H299 H 0.94317 0.98284 0.68156 0.0
H300 H 0.92883 0.98865 0.69938 0.0
C301 C 0.92693 0.97609 0.68932 0.0
H302 H 0.90636 0.97992 0.6843 0.0
H303 H 0.96796 0.98054 0.65367 0.0
O304 O 0.95486 0.83781 0.68796 0.0
C305 C 0.98413 0.89512 0.65485 0.0
Co306 Co 0.85956 0.20786 0.42555 0.0
Co307 Co 0.80171 0.18518 0.41485 0.0
C308 C 0.85438 0.15624 0.40744 0.0
O309 O 0.8687 0.17406 0.41438 0.0
O310 O 0.8281 0.1581 0.40655 0.0
C311 C 0.91474 0.20728 0.43757 0.0
O312 O 0.91237 0.18029 0.43627 0.0
C313 C 0.75563 0.14787 0.40726 0.0
C314 C 0.72015 0.17677 0.40692 0.0
C315 C 0.72742 0.14948 0.40429 0.0
N316 N 0.76461 0.17311 0.41125 0.0
N317 N 0.74326 0.19025 0.41109 0.0
C318 C 0.77364 0.12267 0.40695 0.0
H319 H 0.78955 0.12397 0.41566 0.0
H320 H 0.76116 0.10358 0.40846 0.0
H321 H 0.78443 0.12157 0.39629 0.0
C322 C 0.83293 0.20103 0.45409 0.0
N323 N 0.83245 0.19966 0.43948 0.0
N324 N 0.80841 0.18962 0.43515 0.0
C325 C 0.79295 0.1838 0.44697 0.0
C326 C 0.808 0.1909 0.4593 0.0
C327 C 0.8574 0.21055 0.46277 0.0
H328 H 0.86384 0.2314 0.459 0.0
H329 H 0.87497 0.19619 0.46086 0.0
H330 H 0.85285 0.21119 0.47461 0.0
O331 O 0.84603 0.2369 0.41241 0.0
O332 O 0.8059 0.22065 0.40418 0.0
H333 H 0.75041 0.18727 0.44083 0.0
H334 H 0.75576 0.16809 0.45742 0.0
C335 C 0.76417 0.17225 0.4464 0.0
H336 H 0.76419 0.15283 0.43994 0.0
H337 H 0.74459 0.2113 0.41356 0.0
O338 O 0.89421 0.22255 0.4343 0.0
C339 C 0.82454 0.23928 0.4045 0.0
Co340 Co 0.52143 0.10247 0.1634 0.0
Co341 Co 0.54255 0.04818 0.14804 0.0
C342 C 0.57247 0.10229 0.14508 0.0
O343 O 0.55522 0.11472 0.15329 0.0
O344 O 0.56986 0.07673 0.14193 0.0
C345 C 0.51887 0.15546 0.17803 0.0
O346 O 0.54543 0.15697 0.17493 0.0
C347 C 0.58169 0.00391 0.14103 0.0
C348 C 0.55399 0.9717 0.13203 0.0
C349 C 0.58161 0.97749 0.13499 0.0
N350 N 0.55544 0.01316 0.14148 0.0
N351 N 0.53898 0.99386 0.13608 0.0
C352 C 0.60572 0.0197 0.14714 0.0
H353 H 0.59846 0.03478 0.15543 0.0
H354 H 0.62106 0.00544 0.15211 0.0
H355 H 0.61596 0.03142 0.13824 0.0
C356 C 0.53066 0.06893 0.18945 0.0
N357 N 0.52987 0.07177 0.17493 0.0
N358 N 0.53791 0.04859 0.16868 0.0
C359 C 0.54349 0.02988 0.17916 0.0
C360 C 0.53923 0.04224 0.19264 0.0
C361 C 0.52621 0.09241 0.19985 0.0
H362 H 0.50375 0.0973 0.20037 0.0
H363 H 0.53723 0.11102 0.19582 0.0
H364 H 0.53391 0.08759 0.21094 0.0
O365 O 0.4924 0.09289 0.14922 0.0
O366 O 0.50718 0.05511 0.13788 0.0
H367 H 0.54036 0.99211 0.16697 0.0
H368 H 0.54855 0.98734 0.18598 0.0
C369 C 0.55216 0.00063 0.17631 0.0
H370 H 0.57455 0.00018 0.17358 0.0
H371 H 0.5175 -0.00416 0.13515 0.0
O372 O 0.50552 0.13362 0.17478 0.0
C373 C 0.48915 0.07394 0.13976 0.0
Co374 Co 0.64147 0.77055 0.91941 0.0
Co375 Co 0.69464 0.80065 0.90754 0.0
C376 C 0.63957 0.81601 0.89671 0.0
O377 O 0.6289 0.79695 0.90447 0.0
O378 O 0.66541 0.82135 0.89704 0.0
C379 C 0.58747 0.7705 0.932 0.0
O380 O 0.58944 0.7973 0.92977 0.0
C381 C 0.73662 0.84268 0.9002 0.0
C382 C 0.77507 0.81782 0.90089 0.0
C383 C 0.76518 0.84429 0.89835 0.0
N384 N 0.73005 0.81645 0.90363 0.0
N385 N 0.7531 0.80168 0.90397 0.0
C386 C 0.71604 0.86583 0.89977 0.0
H387 H 0.69863 0.86149 0.90735 0.0
H388 H 0.72595 0.88579 0.90274 0.0
H389 H 0.70748 0.86752 0.88859 0.0
C390 C 0.66486 0.78836 0.94736 0.0
N391 N 0.66513 0.78777 0.93274 0.0
N392 N 0.6874 0.8006 0.92792 0.0
C393 C 0.70185 0.81022 0.93942 0.0
C394 C 0.68799 0.80275 0.95206 0.0
C395 C 0.64332 0.77451 0.95657 0.0
H396 H 0.64046 0.75282 0.95288 0.0
H397 H 0.62331 0.78549 0.95518 0.0
H398 H 0.64884 0.77482 0.96829 0.0
O399 O 0.66065 0.7402 0.90966 0.0
O400 O 0.69591 0.76236 0.89934 0.0
H401 H 0.74462 0.80937 0.93337 0.0
H402 H 0.73755 0.8304 0.94916 0.0
C403 C 0.72961 0.82394 0.93835 0.0
H404 H 0.72801 0.84237 0.93121 0.0
H405 H 0.75383 0.7806 0.9064 0.0
O406 O 0.60795 0.75508 0.92885 0.0
C407 C 0.68184 0.74039 0.90142 0.0
Co408 Co 0.93641 0.1088 0.81923 0.0
Co409 Co 0.92439 0.05941 0.84071 0.0
C410 C 0.8993 0.11562 0.84496 0.0
O411 O 0.91059 0.12511 0.83348 0.0
O412 O 0.90324 0.0908 0.8491 0.0
C413 C 0.92851 0.15695 0.80113 0.0
O414 O 0.90376 0.15764 0.8071 0.0
C415 C 0.89002 0.01682 0.85509 0.0
C416 C 0.92209 0.98749 0.86263 0.0
C417 C 0.89368 0.99182 0.86234 0.0
N418 N 0.9151 0.02649 0.85113 0.0
N419 N 0.93415 0.0089 0.85572 0.0
C420 C 0.86334 0.03181 0.85237 0.0
H421 H 0.86703 0.05416 0.85065 0.0
H422 H 0.85347 0.02349 0.84237 0.0
H423 H 0.84883 0.02885 0.86163 0.0
C424 C 0.91805 0.06774 0.79775 0.0
N425 N 0.92179 0.07589 0.8116 0.0
N426 N 0.91731 0.05488 0.82042 0.0
C427 C 0.91089 0.03245 0.81236 0.0
C428 C 0.91101 0.03992 0.79777 0.0
C429 C 0.92492 0.08543 0.78486 0.0
H430 H 0.94663 0.09285 0.78581 0.0
H431 H 0.91123 0.10388 0.78486 0.0
H432 H 0.92247 0.07413 0.77442 0.0
O433 O 0.97237 0.10108 0.82866 0.0
O434 O 0.96432 0.06654 0.84404 0.0
H435 H 0.9248 -0.00195 0.82511 0.0
H436 H 0.9032 0.98841 0.80977 0.0
C437 C 0.90657 0.00403 0.81845 0.0
H438 H 0.88809 0.00414 0.82559 0.0
H439 H 0.95542 0.01146 0.8541 0.0
O440 O 0.94468 0.13697 0.80411 0.0
C441 C 0.98072 0.084 0.83825 0.0
Co442 Co 0.64529 0.18088 0.57594 0.0
Co443 Co 0.6942 0.17366 0.59829 0.0
C444 C 0.64183 0.13821 0.59841 0.0
O445 O 0.63229 0.14855 0.5867 0.0
O446 O 0.6644 0.14685 0.60406 0.0
C447 C 0.59754 0.17785 0.55663 0.0
O448 O 0.59335 0.15326 0.56232 0.0
C449 C 0.73956 0.14013 0.60999 0.0
C450 C 0.76415 0.17098 0.6222 0.0
C451 C 0.76354 0.14324 0.61827 0.0
N452 N 0.72702 0.1649 0.60893 0.0
N453 N 0.74175 0.18323 0.61629 0.0
C454 C 0.728 0.1141 0.60352 0.0
H455 H 0.70557 0.11627 0.60127 0.0
H456 H 0.73847 0.10982 0.593 0.0
H457 H 0.73144 0.09631 0.61094 0.0
C458 C 0.69062 0.17516 0.5551 0.0
N459 N 0.68099 0.17497 0.5688 0.0
N460 N 0.70183 0.1724 0.57795 0.0
C461 C 0.72564 0.17123 0.57025 0.0
C462 C 0.71915 0.17277 0.55558 0.0
C463 C 0.67281 0.17889 0.54191 0.0
H464 H 0.65461 0.1649 0.54259 0.0
H465 H 0.68448 0.17455 0.53174 0.0
H466 H 0.66504 0.2005 0.54162 0.0
O467 O 0.64502 0.2127 0.58924 0.0
O468 O 0.68145 0.2112 0.60399 0.0
H469 H 0.75477 0.1865 0.58597 0.0
H470 H 0.76996 0.17758 0.56855 0.0
C471 C 0.7541 0.17169 0.57674 0.0
H472 H 0.75921 0.1508 0.58092 0.0
H473 H 0.73664 0.20415 0.61719 0.0
O474 O 0.61886 0.1916 0.56037 0.0
C475 C 0.65967 0.22317 0.59935 0.0
Co476 Co 0.54758 0.89637 0.31691 0.0
Co477 Co 0.56539 0.94877 0.33527 0.0
C478 C 0.59535 0.89467 0.33757 0.0
O479 O 0.57964 0.88325 0.32818 0.0
O480 O 0.59193 0.91972 0.34152 0.0
C481 C 0.54911 0.84597 0.29965 0.0
O482 O 0.57554 0.84518 0.30309 0.0
C483 C 0.59962 0.9916 0.34965 0.0
C484 C 0.56958 0.026 0.35148 0.0
C485 C 0.59661 0.01855 0.35474 0.0
N486 N 0.57551 0.9837 0.34354 0.0
N487 N 0.55768 0.00436 0.34469 0.0
C488 C 0.6237 0.97249 0.35182 0.0
H489 H 0.63094 0.96479 0.34108 0.0
H490 H 0.64108 0.98241 0.35773 0.0
H491 H 0.61677 0.95437 0.35827 0.0
C492 C 0.55763 0.93444 0.29277 0.0
N493 N 0.55725 0.92873 0.30706 0.0
N494 N 0.56454 0.95089 0.31451 0.0
C495 C 0.56981 0.97157 0.30506 0.0
C496 C 0.56571 0.96173 0.29103 0.0
C497 C 0.54823 0.9146 0.28125 0.0
H498 H 0.56318 0.89719 0.28058 0.0
H499 H 0.54649 0.92459 0.27042 0.0
H500 H 0.52776 0.9059 0.28431 0.0
O501 O 0.51596 0.90369 0.32977 0.0
O502 O 0.52817 0.93985 0.34323 0.0
H503 H 0.58569 0.01224 0.29975 0.0
H504 H 0.59588 -0.00117 0.31734 0.0
C505 C 0.57871 0.0001 0.30934 0.0
H506 H 0.56104 0.01094 0.31455 0.0
H507 H 0.53725 0.00354 0.34097 0.0
O508 O 0.53452 0.86643 0.30376 0.0
C509 C 0.51073 0.92127 0.33968 0.0
Co510 Co 0.85427 0.80056 0.07034 0.0
Co511 Co 0.80376 0.8141 0.09084 0.0
C512 C 0.85653 0.84671 0.09196 0.0
O513 O 0.86747 0.83233 0.08186 0.0
O514 O 0.83213 0.84176 0.09662 0.0
C515 C 0.90278 0.80538 0.05184 0.0
O516 O 0.90378 0.83104 0.05655 0.0
C517 C 0.75756 0.84712 0.1021 0.0
C518 C 0.73202 0.81523 0.11296 0.0
C519 C 0.73306 0.84331 0.10988 0.0
N520 N 0.77015 0.82247 0.10071 0.0
N521 N 0.75491 0.80353 0.10731 0.0
C522 C 0.76813 0.87301 0.09509 0.0
H523 H 0.78297 0.86791 0.08624 0.0
H524 H 0.7507 0.88539 0.09063 0.0
H525 H 0.77922 0.88561 0.10335 0.0
C526 C 0.81201 0.80862 0.04789 0.0
N527 N 0.82001 0.80888 0.06188 0.0
N528 N 0.79844 0.81401 0.07027 0.0
C529 C 0.77582 0.81695 0.06178 0.0
C530 C 0.78381 0.8137 0.04737 0.0
C531 C 0.83112 0.80309 0.03538 0.0
H532 H 0.84984 0.8163 0.03642 0.0
H533 H 0.821 0.8073 0.02476 0.0
H534 H 0.8379 0.78116 0.03575 0.0
O535 O 0.85025 0.76758 0.08272 0.0
O536 O 0.81532 0.77704 0.09765 0.0
H537 H 0.74346 0.80589 0.07671 0.0
H538 H 0.73131 0.81529 0.05876 0.0
C539 C 0.74681 0.81998 0.06735 0.0
H540 H 0.7436 0.84155 0.07109 0.0
H541 H 0.75995 0.78254 0.10777 0.0
O542 O 0.88278 0.78994 0.05575 0.0
C543 C 0.83417 0.76081 0.0931 0.0
Co544 Co 0.56778 0.6057 0.81375 0.0
Co545 Co 0.58355 0.55124 0.8305 0.0
C546 C 0.61375 0.60444 0.83566 0.0
O547 O 0.59933 0.61732 0.82621 0.0
O548 O 0.60937 0.57904 0.83857 0.0
C549 C 0.56909 0.65875 0.79839 0.0
O550 O 0.59449 0.66154 0.80336 0.0
C551 C 0.6168 0.50686 0.84355 0.0
C552 C 0.58608 0.47302 0.84517 0.0
C553 C 0.61333 0.47984 0.84836 0.0
N554 N 0.59263 0.51564 0.83794 0.0
N555 N 0.57436 0.49533 0.83894 0.0
C556 C 0.64297 0.52352 0.84329 0.0
H557 H 0.6431 0.53746 0.83369 0.0
H558 H 0.66147 0.50988 0.84289 0.0
H559 H 0.64403 0.53643 0.85327 0.0
C560 C 0.57771 0.56954 0.78852 0.0
N561 N 0.57747 0.57418 0.80293 0.0
N562 N 0.58506 0.55155 0.80983 0.0
C563 C 0.59119 0.53188 0.79994 0.0
C564 C 0.58664 0.54259 0.7861 0.0
C565 C 0.56668 0.5897 0.77756 0.0
H566 H 0.54778 0.59982 0.78191 0.0
H567 H 0.58248 0.60597 0.77557 0.0
H568 H 0.56131 0.57954 0.76711 0.0
O569 O 0.53498 0.59751 0.82564 0.0
O570 O 0.54547 0.55903 0.83754 0.0
H571 H 0.58449 0.49101 0.80809 0.0
H572 H 0.61084 0.49312 0.7941 0.0
C573 C 0.60179 0.50368 0.80372 0.0
H574 H 0.61794 0.5054 0.81226 0.0
H575 H 0.55383 0.49677 0.83542 0.0
O576 O 0.55569 0.63673 0.80114 0.0
C577 C 0.52857 0.57839 0.83451 0.0
Co578 Co 0.63814 0.28572 0.06702 0.0
Co579 Co 0.68618 0.30458 0.08819 0.0
C580 C 0.62995 0.33067 0.08903 0.0
O581 O 0.62129 0.31566 0.07859 0.0
O582 O 0.65447 0.3283 0.09402 0.0
C583 C 0.59069 0.28839 0.04808 0.0
O584 O 0.59051 0.31462 0.05187 0.0
C585 C 0.729 0.34225 0.10008 0.0
C586 C 0.75805 0.31222 0.10988 0.0
C587 C 0.75425 0.34024 0.10735 0.0
N588 N 0.71879 0.31654 0.09821 0.0
N589 N 0.73616 0.29876 0.10421 0.0
C590 C 0.7142 0.36804 0.09545 0.0
H591 H 0.72189 0.37461 0.08461 0.0
H592 H 0.71802 0.38503 0.10334 0.0
H593 H 0.69164 0.36432 0.09451 0.0
C594 C 0.68029 0.29927 0.045 0.0
N595 N 0.67166 0.29785 0.05889 0.0
N596 N 0.69199 0.30539 0.06763 0.0
C597 C 0.7144 0.31161 0.05948 0.0
C598 C 0.70759 0.30814 0.04494 0.0
C599 C 0.66251 0.29229 0.03216 0.0
H600 H 0.64266 0.30378 0.03294 0.0
H601 H 0.67286 0.29752 0.02172 0.0
H602 H 0.65758 0.26985 0.03237 0.0
O603 O 0.64515 0.25332 0.0795 0.0
O604 O 0.67845 0.26635 0.09473 0.0
H605 H 0.75891 0.31586 0.05702 0.0
H606 H 0.74288 0.33957 0.06957 0.0
C607 C 0.74258 0.31802 0.06546 0.0
H608 H 0.7474 0.30383 0.07458 0.0
H609 H 0.73328 0.27735 0.10423 0.0
O610 O 0.61043 0.27303 0.05241 0.0
C611 C 0.66149 0.24825 0.09003 0.0
Co612 Co 0.92925 0.36949 0.30921 0.0
Co613 Co 0.9134 0.42458 0.32544 0.0
C614 C 0.88427 0.37198 0.33202 0.0
O615 O 0.89875 0.35895 0.32265 0.0
O616 O 0.88779 0.39771 0.33435 0.0
C617 C 0.92213 0.31741 0.29408 0.0
O618 O 0.89594 0.31974 0.29784 0.0
C619 C 0.88218 0.47191 0.33755 0.0
C620 C 0.91444 0.50448 0.33729 0.0
C621 C 0.88695 0.49959 0.34082 0.0
N622 N 0.90573 0.46113 0.33213 0.0
N623 N 0.92493 0.48067 0.33207 0.0
C624 C 0.85656 0.45524 0.34041 0.0
H625 H 0.84798 0.44773 0.32991 0.0
H626 H 0.84059 0.46717 0.3464 0.0
H627 H 0.86205 0.43688 0.34703 0.0
C628 C 0.92077 0.40518 0.28362 0.0
N629 N 0.91942 0.40041 0.29802 0.0
N630 N 0.91129 0.42304 0.30475 0.0
C631 C 0.90599 0.44269 0.29475 0.0
C632 C 0.91222 0.43221 0.28102 0.0
C633 C 0.93351 0.38536 0.273 0.0
H634 H 0.95028 0.37344 0.27835 0.0
H635 H 0.9174 0.37058 0.26924 0.0
H636 H 0.94231 0.39624 0.26343 0.0
O637 O 0.9629 0.37821 0.32027 0.0
O638 O 0.95165 0.41649 0.33226 0.0
H639 H 0.9117 0.48408 0.30244 0.0
H640 H 0.88538 0.48066 0.28855 0.0
C641 C 0.89471 0.47076 0.29828 0.0
H642 H 0.8786 0.46899 0.30684 0.0
H643 H 0.94521 0.47773 0.32842 0.0
O644 O 0.93891 0.33679 0.29722 0.0
C645 C 0.96896 0.39754 0.3291 0.0
Co646 Co 0.85567 0.71729 0.56133 0.0
Co647 Co 0.80518 0.69088 0.57795 0.0
C648 C 0.86061 0.66495 0.57919 0.0
O649 O 0.87056 0.68379 0.57101 0.0
O650 O 0.8353 0.66509 0.58314 0.0
C651 C 0.90346 0.71745 0.54269 0.0
O652 O 0.9004 0.69044 0.54313 0.0
C653 C 0.76237 0.65177 0.58842 0.0
C654 C 0.72675 0.68011 0.59114 0.0
C655 C 0.73454 0.65261 0.59233 0.0
N656 N 0.77051 0.67764 0.58505 0.0
N657 N 0.74919 0.69447 0.58684 0.0
C658 C 0.78026 0.6267 0.58655 0.0
H659 H 0.79589 0.63024 0.57789 0.0
H660 H 0.76758 0.60829 0.58372 0.0
H661 H 0.79136 0.62256 0.59691 0.0
C662 C 0.8187 0.70866 0.53625 0.0
N663 N 0.82412 0.70762 0.55058 0.0
N664 N 0.80351 0.69523 0.55736 0.0
C665 C 0.78459 0.68718 0.54743 0.0
C666 C 0.79354 0.69555 0.53373 0.0
C667 C 0.83704 0.72266 0.52535 0.0
H668 H 0.84675 0.74124 0.53029 0.0
H669 H 0.85377 0.7082 0.52204 0.0
H670 H 0.82519 0.72895 0.51554 0.0
O671 O 0.84628 0.74586 0.57571 0.0
O672 O 0.81135 0.72693 0.58788 0.0
H673 H 0.74392 0.68192 0.5563 0.0
H674 H 0.75122 0.65952 0.54098 0.0
C675 C 0.76009 0.66927 0.55087 0.0
H676 H 0.76647 0.65257 0.55839 0.0
H677 H 0.74983 0.71571 0.58481 0.0
O678 O 0.8858 0.73272 0.5491 0.0
C679 C 0.82811 0.74687 0.58573 0.0
Co680 Co 0.51958 0.40345 0.66172 0.0
Co681 Co 0.5561 0.44659 0.64481 0.0
C682 C 0.57233 0.38872 0.64469 0.0
O683 O 0.5504 0.38361 0.65198 0.0
O684 O 0.57891 0.41336 0.64111 0.0
C685 C 0.51379 0.35741 0.68089 0.0
O686 O 0.54103 0.35809 0.68062 0.0
C687 C 0.59659 0.48561 0.63128 0.0
C688 C 0.57164 0.52399 0.63208 0.0
C689 C 0.59709 0.5136 0.62776 0.0
N690 N 0.57196 0.47994 0.63752 0.0
N691 N 0.55723 0.50297 0.63793 0.0
C692 C 0.6182 0.46427 0.62804 0.0
H693 H 0.60817 0.44476 0.62448 0.0
H694 H 0.63013 0.45991 0.63811 0.0
H695 H 0.63264 0.4714 0.61941 0.0
C696 C 0.53436 0.43905 0.68641 0.0
N697 N 0.53401 0.43335 0.6721 0.0
N698 N 0.55061 0.45052 0.66522 0.0
C699 C 0.56292 0.4672 0.67504 0.0
C700 C 0.55295 0.46054 0.6888 0.0
C701 C 0.51721 0.42401 0.69745 0.0
H702 H 0.49719 0.41756 0.69257 0.0
H703 H 0.52845 0.40516 0.70102 0.0
H704 H 0.51315 0.43724 0.70711 0.0
O705 O 0.4932 0.41584 0.64705 0.0
O706 O 0.52069 0.44251 0.63372 0.0
H707 H 0.57799 0.50625 0.66753 0.0
H708 H 0.59969 0.49025 0.68113 0.0
C709 C 0.58645 0.48627 0.67147 0.0
H710 H 0.59944 0.47716 0.66274 0.0
H711 H 0.5372 0.50428 0.64219 0.0
O712 O 0.50031 0.37606 0.67419 0.0
C713 C 0.4974 0.4308 0.6359 0.0
Co714 Co 0.88248 0.31092 0.92636 0.0
Co715 Co 0.82502 0.32741 0.9125 0.0
C716 C 0.87771 0.35489 0.90344 0.0
O717 O 0.89197 0.34073 0.91243 0.0
O718 O 0.85163 0.35155 0.9022 0.0
C719 C 0.93823 0.31409 0.9376 0.0
O720 O 0.93748 0.3397 0.93281 0.0
C721 C 0.77611 0.36038 0.90319 0.0
C722 C 0.74557 0.32682 0.89988 0.0
C723 C 0.74911 0.35516 0.89857 0.0
N724 N 0.78784 0.33615 0.907 0.0
N725 N 0.76933 0.31628 0.90512 0.0
C726 C 0.791 0.38757 0.90324 0.0
H727 H 0.8136 0.38474 0.9045 0.0
H728 H 0.78362 0.40011 0.91259 0.0
H729 H 0.78659 0.39914 0.89306 0.0
C730 C 0.85173 0.32294 0.95332 0.0
N731 N 0.85378 0.32248 0.93873 0.0
N732 N 0.82988 0.32986 0.93299 0.0
C733 C 0.81193 0.33561 0.94379 0.0
C734 C 0.82521 0.33143 0.957 0.0
C735 C 0.87424 0.3137 0.96341 0.0
H736 H 0.87855 0.29142 0.96151 0.0
H737 H 0.89352 0.32535 0.96096 0.0
H738 H 0.86846 0.31696 0.97499 0.0
O739 O 0.87102 0.2775 0.91566 0.0
O740 O 0.83092 0.28913 0.90559 0.0
H741 H 0.77204 0.32432 0.93554 0.0
H742 H 0.77065 0.34502 0.95188 0.0
C743 C 0.78183 0.34178 0.94147 0.0
H744 H 0.7798 0.36062 0.93467 0.0
H745 H 0.77319 0.29536 0.90706 0.0
O746 O 0.91641 0.29939 0.93691 0.0
C747 C 0.85014 0.27165 0.9078 0.0
Co748 Co 0.96823 0.59705 0.16187 0.0
Co749 Co 0.94313 0.5472 0.14399 0.0
C750 C 0.91694 0.6026 0.14323 0.0
O751 O 0.93504 0.61212 0.15201 0.0
O752 O 0.91752 0.57759 0.13886 0.0
C753 C 0.96923 0.64615 0.17967 0.0
O754 O 0.94215 0.64511 0.17817 0.0
C755 C 0.90418 0.5049 0.13289 0.0
C756 C 0.93233 0.46915 0.1302 0.0
C757 C 0.90483 0.47711 0.12902 0.0
N758 N 0.93014 0.51288 0.13627 0.0
N759 N 0.94688 0.49151 0.13443 0.0
C760 C 0.8791 0.52275 0.13492 0.0
H761 H 0.88271 0.53811 0.14369 0.0
H762 H 0.86061 0.51009 0.13766 0.0
H763 H 0.87495 0.53411 0.12465 0.0
C764 C 0.9591 0.55861 0.18619 0.0
N765 N 0.95864 0.5648 0.17194 0.0
N766 N 0.94691 0.54442 0.16467 0.0
C767 C 0.93875 0.52484 0.1742 0.0
C768 C 0.94637 0.5331 0.18815 0.0
C769 C 0.97194 0.57679 0.19755 0.0
H770 H 0.99085 0.5868 0.19312 0.0
H771 H 0.95702 0.59331 0.20057 0.0
H772 H 0.9775 0.56481 0.20743 0.0
O773 O -0.00314 0.5889 0.14741 0.0
O774 O 0.97927 0.55454 0.1343 0.0
H775 H 0.93411 0.48483 0.16451 0.0
H776 H 0.91122 0.4908 0.17979 0.0
C777 C 0.92115 0.50046 0.17017 0.0
H778 H 0.9045 0.50719 0.16269 0.0
H779 H 0.96814 0.49198 0.13654 0.0
O780 O 0.98391 0.6267 0.17443 0.0
C781 C -0.00138 0.57172 0.13698 0.0
Co782 Co 0.63554 0.70239 0.41124 0.0
Co783 Co 0.68835 0.68206 0.39427 0.0
C784 C 0.63299 0.65738 0.38861 0.0
O785 O 0.62174 0.67277 0.39821 0.0
O786 O 0.65875 0.65901 0.3857 0.0
C787 C 0.58478 0.69925 0.42798 0.0
O788 O 0.58604 0.6726 0.4252 0.0
C789 C 0.73101 0.64519 0.3823 0.0
C790 C 0.76694 0.67347 0.38062 0.0
C791 C 0.75868 0.6464 0.37814 0.0
N792 N 0.72335 0.67042 0.38697 0.0
N793 N 0.74485 0.68726 0.38586 0.0
C794 C 0.71275 0.62018 0.38314 0.0
H795 H 0.69743 0.62257 0.39207 0.0
H796 H 0.72518 0.60118 0.385 0.0
H797 H 0.70126 0.61795 0.37273 0.0
C798 C 0.67078 0.68907 0.43638 0.0
N799 N 0.6659 0.68958 0.42199 0.0
N800 N 0.68765 0.6799 0.41498 0.0
C801 C 0.70685 0.67203 0.42478 0.0
C802 C 0.6969 0.67777 0.43867 0.0
C803 C 0.65199 0.70208 0.44743 0.0
H804 H 0.64198 0.7207 0.44275 0.0
H805 H 0.63551 0.68708 0.45042 0.0
H806 H 0.66343 0.70824 0.45739 0.0
O807 O 0.64684 0.73496 0.40001 0.0
O808 O 0.68372 0.72081 0.38761 0.0
H809 H 0.74805 0.67445 0.41626 0.0
H810 H 0.7438 0.64892 0.43051 0.0
C811 C 0.73387 0.65866 0.4209 0.0
H812 H 0.73032 0.64246 0.41258 0.0
H813 H 0.74451 0.7081 0.38885 0.0
O814 O 0.60426 0.71491 0.42361 0.0
C815 C 0.66637 0.73954 0.39103 0.0
Co816 Co 0.42504 0.38295 0.15932 0.0
Co817 Co 0.41251 0.43565 0.1403 0.0
C818 C 0.38151 0.38244 0.13617 0.0
O819 O 0.39469 0.37061 0.14644 0.0
O820 O 0.38662 0.40735 0.13252 0.0
C821 C 0.41986 0.33173 0.17542 0.0
O822 O 0.39475 0.33078 0.16989 0.0
C823 C 0.3804 0.48313 0.12903 0.0
C824 C 0.41413 0.50975 0.12067 0.0
C825 C 0.38557 0.50828 0.12217 0.0
N826 N 0.40484 0.47059 0.13155 0.0
N827 N 0.42488 0.48663 0.12653 0.0
C828 C 0.35283 0.47054 0.13257 0.0
H829 H 0.35467 0.44794 0.1342 0.0
H830 H 0.34488 0.47967 0.14284 0.0
H831 H 0.33768 0.47488 0.12377 0.0
C832 C 0.4152 0.42254 0.18297 0.0
N833 N 0.41534 0.41589 0.16878 0.0
N834 N 0.41024 0.43816 0.16096 0.0
C835 C 0.40671 0.45982 0.17003 0.0
C836 C 0.40966 0.45054 0.18423 0.0
C837 C 0.42188 0.40268 0.19496 0.0
H838 H 0.40905 0.38377 0.19371 0.0
H839 H 0.41807 0.41193 0.20584 0.0
H840 H 0.44398 0.39647 0.19409 0.0
O841 O 0.45913 0.38892 0.14795 0.0
O842 O 0.45059 0.42571 0.13423 0.0
H843 H 0.40572 0.50394 0.17444 0.0
H844 H 0.38361 0.49217 0.15987 0.0
C845 C 0.40403 0.48927 0.16518 0.0
H846 H 0.42045 0.49406 0.15711 0.0
H847 H 0.44593 0.48174 0.12705 0.0
O848 O 0.43493 0.35283 0.17303 0.0
C849 C 0.46667 0.40645 0.13842 0.0
Co850 Co 0.35718 0.69041 0.9086 0.0
Co851 Co 0.30914 0.67006 0.88807 0.0
C852 C 0.365 0.64489 0.88645 0.0
O853 O 0.37351 0.66081 0.89656 0.0
O854 O 0.34021 0.64608 0.88169 0.0
C855 C 0.40367 0.6852 0.92798 0.0
O856 O 0.40159 0.65868 0.92499 0.0
C857 C 0.26735 0.63633 0.87236 0.0
C858 C 0.23319 0.66666 0.87053 0.0
C859 C 0.24046 0.63967 0.8672 0.0
N860 N 0.27534 0.66021 0.87864 0.0
N861 N 0.25488 0.67824 0.87742 0.0
C862 C 0.28583 0.61163 0.8707 0.0
H863 H 0.30629 0.61829 0.86647 0.0
H864 H 0.28919 0.60202 0.88153 0.0
H865 H 0.27703 0.59613 0.86309 0.0
C866 C 0.31664 0.67575 0.9311 0.0
N867 N 0.32443 0.67759 0.91711 0.0
N868 N 0.30459 0.66791 0.90868 0.0
C869 C 0.28365 0.65883 0.91716 0.0
C870 C 0.2906 0.66353 0.93164 0.0
C871 C 0.33298 0.68771 0.94347 0.0
H872 H 0.34412 0.70656 0.93983 0.0
H873 H 0.34855 0.67231 0.94713 0.0
H874 H 0.31943 0.69324 0.95278 0.0
O875 O 0.34953 0.72322 0.89681 0.0
O876 O 0.31666 0.7087 0.88175 0.0
H877 H 0.2442 0.66059 0.90661 0.0
H878 H 0.24684 0.63382 0.92029 0.0
C879 C 0.25811 0.64486 0.91151 0.0
H880 H 0.26388 0.62976 0.90294 0.0
H881 H 0.25569 0.69847 0.88139 0.0
O882 O 0.38572 0.70181 0.92288 0.0
C883 C 0.33289 0.72756 0.88634 0.0
Co884 Co 0.04976 0.5981 0.65046 0.0
Co885 Co 0.06997 0.54773 0.63142 0.0
C886 C 0.09843 0.60269 0.63035 0.0
O887 O 0.08213 0.61307 0.63982 0.0
O888 O 0.09576 0.57783 0.62595 0.0
C889 C 0.04859 0.64647 0.66962 0.0
O890 O 0.07517 0.64911 0.66678 0.0
C891 C 0.10664 0.50625 0.61786 0.0
C892 C 0.07766 0.47126 0.61473 0.0
C893 C 0.10498 0.47925 0.61273 0.0
N894 N 0.0815 0.51366 0.62285 0.0
N895 N 0.06427 0.4927 0.62089 0.0
C896 C 0.13086 0.52562 0.6171 0.0
H897 H 0.13645 0.53244 0.62826 0.0
H898 H 0.1491 0.51622 0.61169 0.0
H899 H 0.12482 0.54422 0.61081 0.0
C900 C 0.05913 0.55836 0.67396 0.0
N901 N 0.05949 0.5652 0.65981 0.0
N902 N 0.06876 0.54419 0.65209 0.0
C903 C 0.07537 0.52338 0.66123 0.0
C904 C 0.06948 0.53172 0.67537 0.0
C905 C 0.0469 0.57635 0.68561 0.0
H906 H 0.02769 0.58624 0.68152 0.0
H907 H 0.06191 0.59294 0.68842 0.0
H908 H 0.04172 0.56442 0.69555 0.0
O909 O 0.01897 0.59082 0.6372 0.0
O910 O 0.03262 0.55585 0.62324 0.0
H911 H 0.07257 0.48371 0.65104 0.0
H912 H 0.09701 0.48512 0.66595 0.0
C913 C 0.08838 0.49669 0.65656 0.0
H914 H 0.10533 0.50093 0.64872 0.0
H915 H 0.04335 0.49303 0.62381 0.0
O916 O 0.03523 0.62628 0.66418 0.0
C917 C 0.01454 0.57366 0.62698 0.0
Co918 Co 0.14207 0.28847 0.40264 0.0
Co919 Co 0.18952 0.30731 0.38119 0.0
C920 C 0.13365 0.33363 0.38066 0.0
O921 O 0.12518 0.31847 0.39108 0.0
O922 O 0.1581 0.33136 0.37557 0.0
C923 C 0.09686 0.29335 0.42299 0.0
O924 O 0.09834 0.31985 0.41988 0.0
C925 C 0.22951 0.3439 0.3663 0.0
C926 C 0.26449 0.31524 0.3625 0.0
C927 C 0.25644 0.3426 0.36093 0.0
N928 N 0.22234 0.31861 0.37114 0.0
N929 N 0.24321 0.30152 0.36866 0.0
C930 C 0.21035 0.36829 0.36639 0.0
H931 H 0.20648 0.37484 0.37779 0.0
H932 H 0.2187 0.38588 0.36001 0.0
H933 H 0.1902 0.36225 0.36153 0.0
C934 C 0.18485 0.30091 0.42436 0.0
N935 N 0.17589 0.30004 0.41054 0.0
N936 N 0.19562 0.30884 0.40177 0.0
C937 C 0.21768 0.31641 0.40988 0.0
C938 C 0.2116 0.31154 0.42446 0.0
C939 C 0.1688 0.28943 0.43696 0.0
H940 H 0.15729 0.27067 0.43351 0.0
H941 H 0.15352 0.3051 0.44067 0.0
H942 H 0.18257 0.28389 0.44618 0.0
O943 O 0.14835 0.25601 0.39037 0.0
O944 O 0.181 0.26882 0.37467 0.0
H945 H 0.25568 0.31337 0.398 0.0
H946 H 0.25644 0.33863 0.41254 0.0
C947 C 0.24346 0.32933 0.40385 0.0
H948 H 0.23777 0.3458 0.39603 0.0
H949 H 0.24316 0.28061 0.37149 0.0
O950 O 0.11454 0.27688 0.41748 0.0
C951 C 0.16416 0.25082 0.37964 0.0
Co952 Co 0.44911 0.61594 0.30582 0.0
Co953 Co 0.4299 0.56066 0.32097 0.0
C954 C 0.40131 0.6142 0.3268 0.0
O955 O 0.41726 0.62705 0.31804 0.0
O956 O 0.40396 0.58836 0.32921 0.0
C957 C 0.44826 0.66993 0.29218 0.0
O958 O 0.42192 0.67008 0.29584 0.0
C959 C 0.39351 0.51436 0.32922 0.0
C960 C 0.424 0.48084 0.33267 0.0
C961 C 0.39585 0.48655 0.33285 0.0
N962 N 0.41911 0.52451 0.32698 0.0
N963 N 0.43725 0.50444 0.32919 0.0
C964 C 0.36752 0.53057 0.32671 0.0
H965 H 0.37134 0.5474 0.31874 0.0
H966 H 0.35062 0.51694 0.3227 0.0
H967 H 0.36086 0.5401 0.33714 0.0
C968 C 0.43781 0.58333 0.27947 0.0
N969 N 0.43888 0.5861 0.29402 0.0
N970 N 0.43055 0.56297 0.30023 0.0
C971 C 0.42369 0.54473 0.28972 0.0
C972 C 0.42799 0.55711 0.2763 0.0
C973 C 0.44533 0.60575 0.26896 0.0
H974 H 0.46739 0.61158 0.27056 0.0
H975 H 0.43256 0.62434 0.27126 0.0
H976 H 0.44202 0.59923 0.2575 0.0
O977 O 0.4806 0.6054 0.31818 0.0
O978 O 0.46713 0.56705 0.32942 0.0
H979 H 0.42951 0.50517 0.2997 0.0
H980 H 0.41272 0.50356 0.2822 0.0
C981 C 0.41445 0.51561 0.29245 0.0
H982 H 0.39398 0.51586 0.29794 0.0
H983 H 0.45866 0.50674 0.32804 0.0
O984 O 0.46263 0.64838 0.2946 0.0
C985 C 0.48512 0.58577 0.32707 0.0
Co986 Co 0.13337 0.71295 0.0535 0.0
Co987 Co 0.1865 0.69044 0.06944 0.0
C988 C 0.13171 0.66417 0.07404 0.0
O989 O 0.12013 0.68108 0.06529 0.0
O990 O 0.15748 0.66562 0.07695 0.0
C991 C 0.08084 0.71284 0.0384 0.0
O992 O 0.08115 0.68609 0.04096 0.0
C993 C 0.23023 0.65422 0.08129 0.0
C994 C 0.26654 0.68217 0.08054 0.0
C995 C 0.25839 0.65566 0.08437 0.0
N996 N 0.22215 0.67885 0.07596 0.0
N997 N 0.24391 0.69548 0.07563 0.0
C998 C 0.21179 0.62933 0.08212 0.0
H999 H 0.19624 0.62984 0.07323 0.0
H1000 H 0.22396 0.60991 0.0813 0.0
H1001 H 0.20059 0.62953 0.09268 0.0
C1002 C 0.16708 0.69967 0.0276 0.0
N1003 N 0.16357 0.7016 0.04209 0.0
N1004 N 0.18522 0.69088 0.04874 0.0
C1005 C 0.20284 0.68086 0.03868 0.0
C1006 C 0.19208 0.68633 0.02493 0.0
C1007 C 0.14707 0.71109 0.0167 0.0
H1008 H 0.13756 0.73036 0.02094 0.0
H1009 H 0.13029 0.69576 0.01484 0.0
H1010 H 0.15748 0.71559 0.00619 0.0
O1011 O 0.14431 0.74376 0.06617 0.0
O1012 O 0.18118 0.72778 0.07786 0.0
H1013 H 0.2449 0.67739 0.04583 0.0
H1014 H 0.23475 0.65119 0.0328 0.0
C1015 C 0.22776 0.66366 0.04225 0.0
H1016 H 0.22272 0.64928 0.05125 0.0
H1017 H 0.24335 0.71585 0.07187 0.0
O1018 O 0.10176 0.72735 0.04196 0.0
C1019 C 0.16368 0.74687 0.0754 0.0
Co1020 Co 0.02703 0.38664 0.80277 0.0
Co1021 Co 0.05624 0.43912 0.81613 0.0
C1022 C 0.08196 0.38369 0.81851 0.0
O1023 O 0.06199 0.37259 0.81152 0.0
O1024 O 0.08233 0.40947 0.82138 0.0
C1025 C 0.02118 0.33489 0.78736 0.0
O1026 O 0.04843 0.33497 0.78729 0.0
C1027 C 0.09701 0.48154 0.82495 0.0
C1028 C 0.07049 0.51882 0.82589 0.0
C1029 C 0.09742 0.5097 0.82801 0.0
N1030 N 0.07096 0.47441 0.82128 0.0
N1031 N 0.05524 0.49677 0.8219 0.0
C1032 C 0.12116 0.46212 0.82434 0.0
H1033 H 0.11831 0.447 0.81538 0.0
H1034 H 0.14089 0.47348 0.82262 0.0
H1035 H 0.1224 0.45053 0.83475 0.0
C1036 C 0.03328 0.41917 0.77586 0.0
N1037 N 0.03539 0.41629 0.79037 0.0
N1038 N 0.04886 0.43761 0.79582 0.0
C1039 C 0.05662 0.45437 0.78486 0.0
C1040 C 0.04681 0.44337 0.77185 0.0
C1041 C 0.01849 0.39907 0.76619 0.0
H1042 H -0.00013 0.39087 0.77181 0.0
H1043 H 0.0325 0.38145 0.76374 0.0
H1044 H 0.01208 0.40895 0.75582 0.0
O1045 O 0.0012 0.39861 0.81804 0.0
O1046 O 0.0221 0.43495 0.82793 0.0
H1047 H 0.06452 0.49638 0.79093 0.0
H1048 H 0.08633 0.484 0.7763 0.0
C1049 C 0.07613 0.47827 0.78669 0.0
H1050 H 0.0925 0.4728 0.79463 0.0
H1051 H 0.03407 0.49697 0.81954 0.0
O1052 O 0.00832 0.35551 0.79267 0.0
C1053 C 0.0019 0.41807 0.82735 0.0
Co1054 Co 0.37721 0.29208 0.54779 0.0
Co1055 Co 0.32195 0.31549 0.56118 0.0
C1056 C 0.37547 0.34416 0.56611 0.0
O1057 O 0.3885 0.32626 0.55851 0.0
O1058 O 0.34941 0.34245 0.56819 0.0
C1059 C 0.43261 0.28833 0.53552 0.0
O1060 O 0.43439 0.31491 0.5384 0.0
C1061 C 0.27533 0.35108 0.57049 0.0
C1062 C 0.2408 0.32095 0.5701 0.0
C1063 C 0.24707 0.34835 0.57307 0.0
N1064 N 0.28524 0.32635 0.56625 0.0
N1065 N 0.26451 0.30845 0.56609 0.0
C1066 C 0.29233 0.377 0.57094 0.0
H1067 H 0.30873 0.37626 0.56247 0.0
H1068 H 0.2792 0.39556 0.56919 0.0
H1069 H 0.30251 0.37866 0.58174 0.0
C1070 C 0.3445 0.29749 0.52059 0.0
N1071 N 0.34764 0.30001 0.5351 0.0
N1072 N 0.32513 0.31115 0.5407 0.0
C1073 C 0.30734 0.31709 0.52988 0.0
C1074 C 0.31876 0.30822 0.51679 0.0
C1075 C 0.36522 0.28377 0.51084 0.0
H1076 H 0.37536 0.2664 0.51665 0.0
H1077 H 0.38145 0.29902 0.50783 0.0
H1078 H 0.35531 0.2758 0.50077 0.0
O1079 O 0.36598 0.26324 0.56167 0.0
O1080 O 0.3276 0.28007 0.57154 0.0
H1081 H 0.26456 0.31919 0.53596 0.0
H1082 H 0.27415 0.34295 0.52163 0.0
C1083 C 0.28109 0.33321 0.53194 0.0
H1084 H 0.28442 0.34978 0.54009 0.0
H1085 H 0.26656 0.28767 0.56316 0.0
O1086 O 0.40982 0.27584 0.53777 0.0
C1087 C 0.34584 0.2612 0.57052 0.0
H1088 H 0.16756 0.24016 0.35045 0.0
H1089 H 0.09904 0.09048 0.35935 0.0
H1090 H 0.15155 0.20125 0.39188 0.0
H1091 H 0.08276 0.14512 0.32314 0.0
H1092 H 0.13198 0.12444 0.36902 0.0
H1093 H 0.15057 0.19829 0.33813 0.0
C1094 C 0.16125 0.2225 0.35693 0.0
C1095 C 0.16052 0.22415 0.37216 0.0
C1096 C 0.12145 0.12873 0.35885 0.0
C1097 C 0.14127 0.17661 0.35826 0.0
C1098 C 0.10267 0.10942 0.35333 0.0
C1099 C 0.08774 0.11528 0.34058 0.0
C1100 C 0.12556 0.15381 0.35146 0.0
C1101 C 0.09343 0.14003 0.33316 0.0
C1102 C 0.15141 0.19878 0.34992 0.0
C1103 C 0.15204 0.20084 0.38009 0.0
N1104 N 0.11177 0.15851 0.33877 0.0
N1105 N 0.14249 0.17807 0.37305 0.0
H1106 H 0.01801 0.931 0.63967 0.0
H1107 H 0.07672 0.81392 0.58966 0.0
H1108 H 0.00504 0.84425 0.64889 0.0
H1109 H 0.13328 0.87891 0.60248 0.0
H1110 H 0.04308 0.83125 0.60723 0.0
H1111 H 0.05508 0.91799 0.62244 0.0
C1112 C 0.0231 0.90934 0.63818 0.0
C1113 C 0.00839 0.88866 0.64567 0.0
C1114 C 0.06282 0.84178 0.60611 0.0
C1115 C 0.04976 0.87394 0.62595 0.0
C1116 C 0.08195 0.83206 0.59604 0.0
C1117 C 0.1079 0.84492 0.59469 0.0
C1118 C 0.06937 0.86483 0.61469 0.0
C1119 C 0.11355 0.86831 0.60331 0.0
C1120 C 0.04417 0.90203 0.62842 0.0
C1121 C 0.0158 0.86091 0.64338 0.0
N1122 N 0.0943 0.87769 0.61298 0.0
N1123 N 0.03566 0.85436 0.63355 0.0
H1124 H 0.35224 0.77671 0.89684 0.0
H1125 H 0.38389 0.83216 0.8189 0.0
H1126 H 0.31744 0.73907 0.85831 0.0
H1127 H 0.39319 0.88303 0.85726 0.0
H1128 H 0.35502 0.80026 0.83283 0.0
H1129 H 0.3628 0.81815 0.88273 0.0
C1130 C 0.34643 0.77736 0.88544 0.0
C1131 C 0.33445 0.75427 0.87864 0.0
C1132 C 0.3629 0.81868 0.83814 0.0
C1133 C 0.34682 0.80143 0.8624 0.0
C1134 C 0.3795 0.83683 0.83021 0.0
C1135 C 0.39141 0.85995 0.83703 0.0
C1136 C 0.35869 0.82339 0.85307 0.0
C1137 C 0.38468 0.86526 0.85163 0.0
C1138 C 0.35235 0.80107 0.87741 0.0
C1139 C 0.32695 0.75634 0.86393 0.0
N1140 N 0.36923 0.84676 0.85927 0.0
N1141 N 0.33383 0.77931 0.8562 0.0
H1142 H 0.33829 0.12904 0.09982 0.0
H1143 H 0.48619 0.05842 0.11121 0.0
H1144 H 0.40406 0.13259 0.06795 0.0
H1145 H 0.43785 0.09398 0.14607 0.0
H1146 H 0.44896 0.07023 0.09406 0.0
H1147 H 0.36807 0.10082 0.11547 0.0
C1148 C 0.35877 0.12343 0.09599 0.0
C1149 C 0.36894 0.13348 0.08269 0.0
C1150 C 0.44637 0.07486 0.10553 0.0
C1151 C 0.40276 0.10113 0.1004 0.0
C1152 C 0.46744 0.06803 0.1153 0.0
C1153 C 0.46511 0.07566 0.12998 0.0
C1154 C 0.42278 0.08886 0.11061 0.0
C1155 C 0.44051 0.08816 0.13477 0.0
C1156 C 0.3757 0.10741 0.10492 0.0
C1157 C 0.39564 0.12562 0.07825 0.0
N1158 N 0.42031 0.09456 0.12507 0.0
N1159 N 0.41176 0.11001 0.08715 0.0
H1160 H 0.14284 0.79766 0.06851 0.0
H1161 H 0.11988 0.83643 0.14921 0.0
H1162 H 0.18436 0.75314 0.10291 0.0
H1163 H 0.11571 0.89864 0.11556 0.0
H1164 H 0.14582 0.80652 0.13265 0.0
H1165 H 0.13511 0.8362 0.08525 0.0
C1166 C 0.15077 0.79624 0.07952 0.0
C1167 C 0.16385 0.77207 0.08443 0.0
C1168 C 0.13973 0.82694 0.12899 0.0
C1169 C 0.15468 0.81574 0.10365 0.0
C1170 C 0.12478 0.84392 0.13839 0.0
C1171 C 0.11527 0.8698 0.13363 0.0
C1172 C 0.14456 0.83564 0.11463 0.0
C1173 C 0.12249 0.8787 0.11959 0.0
C1174 C 0.14647 0.81827 0.08905 0.0
C1175 C 0.174 0.77136 0.09874 0.0
N1176 N 0.13619 0.86135 0.11044 0.0
N1177 N 0.16861 0.79265 0.10798 0.0
H1178 H 0.50084 0.93313 0.36835 0.0
H1179 H 0.35051 0.86353 0.36703 0.0
H1180 H 0.46135 0.90258 0.32935 0.0
H1181 H 0.40667 0.85763 0.40351 0.0
H1182 H 0.38457 0.8924 0.3543 0.0
H1183 H 0.45943 0.92001 0.38235 0.0
C1184 C 0.4832 0.9243 0.3627 0.0
C1185 C 0.48453 0.91849 0.34776 0.0
C1186 C 0.38915 0.88511 0.36519 0.0
C1187 C 0.43745 0.9038 0.36355 0.0
C1188 C 0.36977 0.86871 0.37246 0.0
C1189 C 0.37605 0.8578 0.38622 0.0
C1190 C 0.41469 0.89092 0.37185 0.0
C1191 C 0.40126 0.86523 0.39279 0.0
C1192 C 0.45973 0.91673 0.37068 0.0
C1193 C 0.46122 0.90697 0.34092 0.0
N1194 N 0.41979 0.88121 0.3855 0.0
N1195 N 0.43865 0.89982 0.34889 0.0
H1196 H 0.38235 0.10839 0.61481 0.0
H1197 H 0.32095 0.25812 0.59723 0.0
H1198 H 0.37255 0.1725 0.64718 0.0
H1199 H 0.36873 0.21012 0.5665 0.0
H1200 H 0.3255 0.2205 0.61498 0.0
H1201 H 0.36274 0.13965 0.59649 0.0
C1202 C 0.37552 0.12881 0.61812 0.0
C1203 C 0.37945 0.1381 0.63245 0.0
C1204 C 0.33455 0.21812 0.60425 0.0
C1205 C 0.35691 0.17359 0.61168 0.0
C1206 C 0.33192 0.23947 0.59412 0.0
C1207 C 0.34486 0.23733 0.58048 0.0
C1208 C 0.3498 0.1944 0.60057 0.0
C1209 C 0.35882 0.21273 0.577 0.0
C1210 C 0.36447 0.1466 0.60767 0.0
C1211 C 0.37025 0.16473 0.63618 0.0
N1212 N 0.36106 0.19223 0.58703 0.0
N1213 N 0.35955 0.18165 0.62582 0.0
H1214 H 0.14867 0.13979 0.85145 0.0
H1215 H 0.00127 0.0685 0.86478 0.0
H1216 H 0.10581 0.14044 0.89271 0.0
H1217 H 0.02551 0.10511 0.82383 0.0
H1218 H 0.04703 0.08003 0.87471 0.0
H1219 H 0.11064 0.11226 0.84106 0.0
C1220 C 0.13158 0.13359 0.85839 0.0
C1221 C 0.13005 0.14269 0.87287 0.0
C1222 C 0.04241 0.08503 0.86347 0.0
C1223 C 0.08702 0.11117 0.86118 0.0
C1224 C 0.01641 0.07839 0.85778 0.0
C1225 C 0.0095 0.08631 0.84354 0.0
C1226 C 0.06166 0.09922 0.85477 0.0
C1227 C 0.02989 0.09907 0.83494 0.0
C1228 C 0.10993 0.11803 0.85245 0.0
C1229 C 0.1075 0.13417 0.88142 0.0
N1230 N 0.05504 0.10534 0.84073 0.0
N1231 N 0.08675 0.119 0.87542 0.0
H1232 H 0.80718 0.74979 0.61343 0.0
H1233 H 0.88068 0.89499 0.62848 0.0
H1234 H 0.84909 0.79847 0.58071 0.0
H1235 H 0.86771 0.8322 0.66123 0.0
H1236 H 0.85396 0.86706 0.61121 0.0
H1237 H 0.81462 0.78724 0.63101 0.0
C1238 C 0.81742 0.76857 0.60986 0.0
C1239 C 0.82807 0.77084 0.59569 0.0
C1240 C 0.85651 0.85974 0.62228 0.0
C1241 C 0.83639 0.81361 0.61565 0.0
C1242 C 0.87163 0.87569 0.63216 0.0
C1243 C 0.87696 0.86555 0.6462 0.0
C1244 C 0.84648 0.83369 0.62655 0.0
C1245 C 0.86458 0.84049 0.6504 0.0
C1246 C 0.82169 0.78986 0.6199 0.0
C1247 C 0.84105 0.79567 0.59162 0.0
N1248 N 0.85021 0.82521 0.64055 0.0
N1249 N 0.84511 0.81599 0.6016 0.0
H1250 H 0.93096 0.08118 0.33545 0.0
H1251 H 0.83407 0.12294 0.38573 0.0
H1252 H 0.98144 0.05599 0.37188 0.0
H1253 H 0.90773 0.13863 0.41119 0.0
H1254 H 0.86066 0.09088 0.37053 0.0
H1255 H 0.89443 0.09491 0.3523 0.0
C1256 C 0.934 0.07786 0.34701 0.0
C1257 C 0.95927 0.06771 0.35233 0.0
C1258 C 0.87091 0.10127 0.37949 0.0
C1259 C 0.91765 0.0834 0.37169 0.0
C1260 C 0.85573 0.11941 0.38823 0.0
C1261 C 0.86891 0.13399 0.39951 0.0
C1262 C 0.89938 0.09775 0.38211 0.0
C1263 C 0.89692 0.12833 0.40238 0.0
C1264 C 0.91303 0.08547 0.35663 0.0
C1265 C 0.96222 0.06376 0.36737 0.0
N1266 N 0.9113 0.11081 0.39364 0.0
N1267 N 0.9419 0.07234 0.37659 0.0
H1268 H 0.59698 0.14888 0.1557 0.0
H1269 H 0.64128 0.19955 0.07936 0.0
H1270 H 0.59837 0.09297 0.11903 0.0
H1271 H 0.67459 0.2368 0.11836 0.0
H1272 H 0.62826 0.15876 0.0935 0.0
H1273 H 0.62808 0.18001 0.14259 0.0
C1274 C 0.6042 0.14299 0.14496 0.0
C1275 C 0.59479 0.11861 0.13831 0.0
C1276 C 0.63898 0.17559 0.0989 0.0
C1277 C 0.62995 0.15423 0.1232 0.0
C1278 C 0.64629 0.19891 0.09086 0.0
C1279 C 0.65857 0.22172 0.09778 0.0
C1280 C 0.64338 0.17542 0.11401 0.0
C1281 C 0.66492 0.21972 0.11264 0.0
C1282 C 0.62207 0.16067 0.13752 0.0
C1283 C 0.60501 0.11173 0.12448 0.0
N1284 N 0.65665 0.19721 0.12036 0.0
N1285 N 0.62158 0.12981 0.11721 0.0
H1286 H 0.59712 0.79361 0.88174 0.0
H1287 H 0.52482 0.92607 0.85388 0.0
H1288 H 0.64116 0.87052 0.88795 0.0
H1289 H 0.52999 0.85222 0.82741 0.0
H1290 H 0.56343 0.90846 0.86879 0.0
H1291 H 0.56653 0.81651 0.86443 0.0
C1292 C 0.60025 0.8154 0.87947 0.0
C1293 C 0.62155 0.8303 0.88625 0.0
C1294 C 0.55628 0.89655 0.85952 0.0
C1295 C 0.58651 0.85658 0.8666 0.0
C1296 C 0.53427 0.90645 0.85107 0.0
C1297 C 0.52382 0.89036 0.83954 0.0
C1298 C 0.56729 0.8703 0.85652 0.0
C1299 C 0.53699 0.86519 0.8363 0.0
C1300 C 0.58296 0.82835 0.86953 0.0
C1301 C 0.62492 0.85843 0.88285 0.0
N1302 N 0.55766 0.85571 0.84492 0.0
N1303 N 0.60721 0.87092 0.87334 0.0
H1304 H 0.87352 0.16363 0.83706 0.0
H1305 H 0.87621 0.22375 0.91554 0.0
H1306 H 0.88946 0.11119 0.87418 0.0
H1307 H 0.82309 0.25882 0.88253 0.0
H1308 H 0.88069 0.18182 0.9008 0.0
H1309 H 0.85395 0.19851 0.85339 0.0
C1310 C 0.87252 0.15931 0.84863 0.0
C1311 C 0.88343 0.13468 0.85432 0.0
C1312 C 0.86763 0.19849 0.89692 0.0
C1313 C 0.86154 0.17456 0.87301 0.0
C1314 C 0.86518 0.22244 0.90528 0.0
C1315 C 0.84953 0.24485 0.90014 0.0
C1316 C 0.8549 0.19727 0.88319 0.0
C1317 C 0.83546 0.24203 0.88684 0.0
C1318 C 0.86124 0.17914 0.85792 0.0
C1319 C 0.8814 0.12998 0.86936 0.0
N1320 N 0.83895 0.21886 0.87866 0.0
N1321 N 0.87121 0.15003 0.87825 0.0
H1322 H 0.60103 0.10466 0.5878 0.0
H1323 H 0.4958 0.0537 0.6304 0.0
H1324 H 0.64124 0.12916 0.62777 0.0
H1325 H 0.52246 0.1199 0.65879 0.0
H1326 H 0.54105 0.05487 0.61842 0.0
H1327 H 0.56411 0.08323 0.60194 0.0
C1328 C 0.6025 0.10475 0.59958 0.0
C1329 C 0.62398 0.11902 0.60664 0.0
C1330 C 0.53697 0.06906 0.62729 0.0
C1331 C 0.58177 0.09461 0.62293 0.0
C1332 C 0.51122 0.06833 0.6342 0.0
C1333 C 0.50507 0.08728 0.64535 0.0
C1334 C 0.55662 0.08891 0.63157 0.0
C1335 C 0.52606 0.10537 0.65001 0.0
C1336 C 0.58148 0.09233 0.60767 0.0
C1337 C 0.62495 0.11848 0.62191 0.0
N1338 N 0.55082 0.10592 0.64298 0.0
N1339 N 0.60367 0.10717 0.62956 0.0
H1340 H 0.68614 0.75143 0.36382 0.0
H1341 H 0.61756 0.90159 0.36473 0.0
H1342 H 0.6485 0.78903 0.40162 0.0
H1343 H 0.62098 0.8487 0.32686 0.0
H1344 H 0.64556 0.86778 0.37811 0.0
H1345 H 0.67878 0.79461 0.35032 0.0
C1346 C 0.67698 0.76899 0.36937 0.0
C1347 C 0.66734 0.7666 0.38372 0.0
C1348 C 0.64065 0.86395 0.36677 0.0
C1349 C 0.65918 0.81573 0.36849 0.0
C1350 C 0.62478 0.88322 0.35913 0.0
C1351 C 0.6165 0.87755 0.3448 0.0
C1352 C 0.64847 0.83917 0.35992 0.0
C1353 C 0.62646 0.8535 0.33802 0.0
C1354 C 0.67275 0.79351 0.36167 0.0
C1355 C 0.65569 0.78992 0.39045 0.0
N1356 N 0.6417 0.83499 0.3457 0.0
N1357 N 0.65165 0.81348 0.38272 0.0
H1358 H 0.0004 0.93674 0.11907 0.0
H1359 H 0.85001 0.86782 0.1194 0.0
H1360 H 0.96326 0.89682 0.15631 0.0
H1361 H 0.90235 0.87313 0.08134 0.0
H1362 H 0.88416 0.89503 0.13301 0.0
H1363 H 0.95709 0.92969 0.10549 0.0
C1364 C 0.9829 0.92715 0.12449 0.0
C1365 C 0.98544 0.91683 0.13869 0.0
C1366 C 0.88779 0.89071 0.12158 0.0
C1367 C 0.93618 0.90904 0.1234 0.0
C1368 C 0.86833 0.87527 0.11381 0.0
C1369 C 0.87373 0.86769 0.09933 0.0
C1370 C 0.91254 0.89882 0.11475 0.0
C1371 C 0.89772 0.87803 0.09259 0.0
C1372 C 0.95832 0.92308 0.11675 0.0
C1373 C 0.96223 0.90458 0.14526 0.0
N1374 N 0.91645 0.89281 0.10042 0.0
N1375 N 0.9386 0.90078 0.1375 0.0
H1376 H 0.70246 0.73893 0.87374 0.0
H1377 H 0.63836 0.58894 0.86124 0.0
H1378 H 0.67117 0.68643 0.90801 0.0
H1379 H 0.63701 0.65479 0.82946 0.0
H1380 H 0.66734 0.61777 0.87698 0.0
H1381 H 0.69623 0.70083 0.85643 0.0
C1382 C 0.69527 0.71908 0.87773 0.0
C1383 C 0.68674 0.71589 0.89224 0.0
C1384 C 0.66113 0.62562 0.86643 0.0
C1385 C 0.67952 0.67258 0.87258 0.0
C1386 C 0.64459 0.60923 0.85744 0.0
C1387 C 0.63472 0.61977 0.84417 0.0
C1388 C 0.66803 0.65256 0.86205 0.0
C1389 C 0.64366 0.6461 0.83975 0.0
C1390 C 0.69152 0.69747 0.86783 0.0
C1391 C 0.67749 0.6898 0.89684 0.0
N1392 N 0.65957 0.66176 0.84876 0.0
N1393 N 0.6737 0.66922 0.88698 0.0
H1394 H 0.63122 0.35013 0.117 0.0
H1395 H 0.48304 0.42318 0.11129 0.0
H1396 H 0.58383 0.35432 0.07717 0.0
H1397 H 0.5126 0.38218 0.15004 0.0
H1398 H 0.52683 0.41164 0.09909 0.0
H1399 H 0.59436 0.37584 0.12947 0.0
C1400 C 0.61334 0.35694 0.11082 0.0
C1401 C 0.61029 0.34975 0.0961 0.0
C1402 C 0.52379 0.4056 0.11033 0.0
C1403 C 0.56848 0.37922 0.11021 0.0
C1404 C 0.49894 0.41222 0.1173 0.0
C1405 C 0.49413 0.40322 0.1316 0.0
C1406 C 0.54402 0.39037 0.11784 0.0
C1407 C 0.51537 0.3891 0.13892 0.0
C1408 C 0.59234 0.37148 0.11794 0.0
C1409 C 0.58674 0.35908 0.08859 0.0
N1410 N 0.53939 0.38298 0.13193 0.0
N1411 N 0.56661 0.37322 0.09576 0.0
H1412 H 0.84369 0.2915 0.4091 0.0
H1413 H 0.86175 0.32082 0.32704 0.0
H1414 H 0.80227 0.24067 0.37716 0.0
H1415 H 0.86378 0.38707 0.35862 0.0
H1416 H 0.83748 0.29183 0.34477 0.0
H1417 H 0.84891 0.32791 0.39086 0.0
C1418 C 0.83524 0.28827 0.39829 0.0
C1419 C 0.82282 0.26303 0.39453 0.0
C1420 C 0.84268 0.31293 0.34768 0.0
C1421 C 0.82925 0.3042 0.37357 0.0
C1422 C 0.85666 0.32943 0.33761 0.0
C1423 C 0.8652 0.35622 0.34146 0.0
C1424 C 0.83786 0.32311 0.36178 0.0
C1425 C 0.85779 0.36645 0.35523 0.0
C1426 C 0.83811 0.30906 0.38791 0.0
C1427 C 0.81204 0.25986 0.38044 0.0
N1428 N 0.84508 0.34965 0.36503 0.0
N1429 N 0.81611 0.27999 0.37032 0.0
H1430 H 0.85337 0.63142 0.60291 0.0
H1431 H 0.00612 0.56817 0.59767 0.0
H1432 H 0.91029 0.64872 0.56775 0.0
H1433 H 0.96385 0.5855 0.63807 0.0
H1434 H 0.96439 0.58266 0.58431 0.0
H1435 H 0.8876 0.59972 0.61341 0.0
C1436 C 0.87286 0.62821 0.59728 0.0
C1437 C 0.8793 0.64314 0.58463 0.0
C1438 C 0.96414 0.58263 0.59611 0.0
C1439 C 0.91813 0.60678 0.59642 0.0
C1440 C 0.98779 0.57425 0.6037 0.0
C1441 C 0.98836 0.5761 0.61893 0.0
C1442 C 0.94101 0.59238 0.60387 0.0
C1443 C 0.96423 0.58421 0.62629 0.0
C1444 C 0.89231 0.61016 0.60327 0.0
C1445 C 0.90475 0.63804 0.5777 0.0
N1446 N 0.94155 0.59229 0.61869 0.0
N1447 N 0.92337 0.62043 0.58376 0.0
H1448 H 0.60646 0.24034 0.60055 0.0
H1449 H 0.6243 0.38896 0.63195 0.0
H1450 H 0.68899 0.26349 0.61424 0.0
H1451 H 0.55833 0.33432 0.64575 0.0
H1452 H 0.64887 0.34861 0.62168 0.0
H1453 H 0.58813 0.28118 0.61261 0.0
C1454 C 0.6208 0.25415 0.60602 0.0
C1455 C 0.64931 0.24852 0.60643 0.0
C1456 C 0.62918 0.3457 0.62716 0.0
C1457 C 0.62831 0.29541 0.62018 0.0
C1458 C 0.61512 0.36858 0.63293 0.0
C1459 C 0.58908 0.36505 0.63958 0.0
C1460 C 0.61668 0.31951 0.6278 0.0
C1461 C 0.57821 0.33817 0.64065 0.0
C1462 C 0.61026 0.27733 0.61296 0.0
C1463 C 0.66685 0.2671 0.61378 0.0
N1464 N 0.59185 0.31656 0.63463 0.0
N1465 N 0.65606 0.29004 0.62033 0.0
H1466 H 0.00583 0.43782 0.85518 0.0
H1467 H 0.85848 0.37604 0.87775 0.0
H1468 H 0.94841 0.40045 0.82493 0.0
H1469 H 0.92982 0.37674 0.90619 0.0
H1470 H 0.8856 0.40079 0.85936 0.0
H1471 H 0.97187 0.43111 0.87476 0.0
C1472 C 0.98583 0.42885 0.8526 0.0
C1473 C 0.98001 0.41921 0.83851 0.0
C1474 C 0.89507 0.39592 0.86975 0.0
C1475 C 0.9413 0.41177 0.86069 0.0
C1476 C 0.87966 0.38187 0.88025 0.0
C1477 C 0.89215 0.37382 0.89338 0.0
C1478 C 0.92297 0.40225 0.87251 0.0
C1479 C 0.91958 0.38208 0.89608 0.0
C1480 C 0.96658 0.42494 0.86376 0.0
C1481 C 0.95383 0.40772 0.83572 0.0
N1482 N 0.9342 0.39564 0.88566 0.0
N1483 N 0.93548 0.4041 0.84676 0.0
H1484 H 0.85566 0.71386 0.08122 0.0
H1485 H 0.89715 0.65005 0.1555 0.0
H1486 H 0.82274 0.74691 0.12134 0.0
H1487 H 0.89038 0.59916 0.117 0.0
H1488 H 0.86922 0.68559 0.14354 0.0
H1489 H 0.86816 0.67135 0.09403 0.0
C1490 C 0.85081 0.71201 0.09271 0.0
C1491 C 0.83849 0.73397 0.10031 0.0
C1492 C 0.87338 0.66642 0.13783 0.0
C1493 C 0.853 0.68568 0.115 0.0
C1494 C 0.88941 0.64621 0.14461 0.0
C1495 C 0.89636 0.62186 0.13713 0.0
C1496 C 0.86489 0.66248 0.12336 0.0
C1497 C 0.8856 0.61775 0.1231 0.0
C1498 C 0.85775 0.6877 0.09997 0.0
C1499 C 0.83234 0.73044 0.11512 0.0
N1500 N 0.87087 0.63818 0.11652 0.0
N1501 N 0.8402 0.70692 0.12209 0.0
H1502 H 0.64297 0.6361 0.36151 0.0
H1503 H 0.49304 0.56707 0.35483 0.0
H1504 H 0.58287 0.63562 0.39639 0.0
H1505 H 0.53525 0.60667 0.319 0.0
H1506 H 0.53319 0.57688 0.37044 0.0
H1507 H 0.61028 0.61006 0.34632 0.0
C1508 C 0.62312 0.63008 0.36606 0.0
C1509 C 0.61534 0.63843 0.38012 0.0
C1510 C 0.53379 0.58286 0.35907 0.0
C1511 C 0.57832 0.60846 0.36294 0.0
C1512 C 0.51103 0.57718 0.35017 0.0
C1513 C 0.51079 0.58648 0.33571 0.0
C1514 C 0.55648 0.59744 0.35334 0.0
C1515 C 0.53454 0.59955 0.33018 0.0
C1516 C 0.60455 0.61529 0.35739 0.0
C1517 C 0.58945 0.63 0.38551 0.0
N1518 N 0.55641 0.60484 0.33905 0.0
N1519 N 0.57174 0.61559 0.37686 0.0
H1520 H 0.36268 0.393 0.10862 0.0
H1521 H 0.29661 0.2424 0.10015 0.0
H1522 H 0.35575 0.33414 0.14381 0.0
H1523 H 0.33787 0.28669 0.06557 0.0
H1524 H 0.30226 0.28299 0.11597 0.0
H1525 H 0.33741 0.3609 0.09282 0.0
C1526 C 0.35532 0.37362 0.11312 0.0
C1527 C 0.36185 0.36591 0.12745 0.0
C1528 C 0.30948 0.28394 0.10481 0.0
C1529 C 0.33289 0.3294 0.1095 0.0
C1530 C 0.30618 0.26091 0.09578 0.0
C1531 C 0.31727 0.26113 0.08166 0.0
C1532 C 0.32356 0.30733 0.09954 0.0
C1533 C 0.32949 0.28558 0.0765 0.0
C1534 C 0.34098 0.35533 0.10409 0.0
C1535 C 0.35165 0.34062 0.13274 0.0
N1536 N 0.33255 0.30765 0.08549 0.0
N1537 N 0.33792 0.32309 0.1237 0.0
H1538 H 0.51283 0.55371 0.86012 0.0
H1539 H 0.41095 0.62235 0.89886 0.0
H1540 H 0.48235 0.60585 0.82547 0.0
H1541 H 0.36526 0.62527 0.85849 0.0
H1542 H 0.44832 0.59786 0.88646 0.0
H1543 H 0.46939 0.56143 0.87342 0.0
C1544 C 0.4969 0.56651 0.85525 0.0
C1545 C 0.50139 0.57968 0.84184 0.0
C1546 C 0.42979 0.60305 0.88039 0.0
C1547 C 0.45205 0.5887 0.85696 0.0
C1548 C 0.40857 0.61729 0.88743 0.0
C1549 C 0.38516 0.62603 0.87963 0.0
C1550 C 0.42775 0.59796 0.86538 0.0
C1551 C 0.38302 0.61889 0.86487 0.0
C1552 C 0.47226 0.57105 0.86288 0.0
C1553 C 0.47996 0.59581 0.83594 0.0
N1554 N 0.40442 0.60583 0.85811 0.0
N1555 N 0.45626 0.59999 0.84358 0.0
H1556 H 0.18862 0.74756 0.6062 0.0
H1557 H 0.12456 0.59561 0.60415 0.0
H1558 H 0.16069 0.70649 0.5671 0.0
H1559 H 0.1206 0.65047 0.64124 0.0
H1560 H 0.15405 0.62926 0.59162 0.0
H1561 H 0.1806 0.70476 0.61984 0.0
C1562 C 0.18165 0.72931 0.6004 0.0
C1563 C 0.17469 0.73066 0.58558 0.0
C1564 C 0.14715 0.63361 0.60262 0.0
C1565 C 0.1655 0.68196 0.60106 0.0
C1566 C 0.13037 0.61444 0.60978 0.0
C1567 C 0.11968 0.62056 0.62364 0.0
C1568 C 0.15346 0.65884 0.60943 0.0
C1569 C 0.12794 0.64523 0.63044 0.0
C1570 C 0.17693 0.70499 0.6082 0.0
C1571 C 0.16577 0.70641 0.57859 0.0
N1572 N 0.14413 0.66364 0.6232 0.0
N1573 N 0.16103 0.68311 0.58644 0.0
H1574 H 0.13559 0.35387 0.35288 0.0
H1575 H 0.98258 0.41679 0.3562 0.0
H1576 H 0.08609 0.35541 0.39207 0.0
H1577 H 0.01716 0.37669 0.31832 0.0
H1578 H 0.02656 0.40918 0.36909 0.0
H1579 H 0.0981 0.37762 0.33996 0.0
C1580 C 0.11712 0.35975 0.35884 0.0
C1581 C 0.11368 0.35225 0.37349 0.0
C1582 C 0.02457 0.40253 0.35787 0.0
C1583 C 0.07106 0.37946 0.35884 0.0
C1584 C -0.00039 0.40691 0.35052 0.0
C1585 C 0.99623 0.39695 0.33628 0.0
C1586 C 0.04628 0.38862 0.35079 0.0
C1587 C 0.01886 0.38427 0.32938 0.0
C1588 C 0.09575 0.37318 0.35145 0.0
C1589 C 0.08934 0.36041 0.3807 0.0
N1590 N 0.04293 0.38034 0.33673 0.0
N1591 N 0.06881 0.3734 0.37326 0.0
H1592 H 0.37708 0.66305 0.31919 0.0
H1593 H 0.34692 0.7038 0.39918 0.0
H1594 H 0.37943 0.60216 0.35354 0.0
H1595 H 0.30905 0.74766 0.36341 0.0
H1596 H 0.35643 0.66498 0.38287 0.0
H1597 H 0.34963 0.69328 0.3349 0.0
C1598 C 0.37143 0.65589 0.32997 0.0
C1599 C 0.38087 0.63031 0.33518 0.0
C1600 C 0.3455 0.68284 0.37866 0.0
C1601 C 0.34989 0.66487 0.35325 0.0
C1602 C 0.34018 0.70503 0.38794 0.0
C1603 C 0.3276 0.7291 0.38255 0.0
C1604 C 0.33879 0.68506 0.36383 0.0
C1605 C 0.31899 0.72954 0.36796 0.0
C1606 C 0.35565 0.67307 0.3389 0.0
C1607 C 0.37271 0.62185 0.34916 0.0
N1608 N 0.32534 0.70808 0.359 0.0
N1609 N 0.35819 0.63939 0.35786 0.0
H1610 H 0.07984 0.6463 0.06649 0.0
H1611 H 0.00054 0.55791 0.10806 0.0
H1612 H 0.14468 0.63388 0.09826 0.0
H1613 H 0.04998 0.59232 0.14283 0.0
H1614 H 0.0359 0.5728 0.09055 0.0
H1615 H 0.05013 0.61482 0.08019 0.0
C1616 C 0.08797 0.63661 0.07623 0.0
C1617 C 0.11464 0.64297 0.08134 0.0
C1618 C 0.03905 0.57685 0.10203 0.0
C1619 C 0.08093 0.60659 0.09695 0.0
C1620 C 0.01909 0.56807 0.11203 0.0
C1621 C 0.02213 0.5745 0.12684 0.0
C1622 C 0.06209 0.59199 0.10697 0.0
C1623 C 0.04661 0.58751 0.13144 0.0
C1624 C 0.07112 0.61832 0.08394 0.0
C1625 C 0.12419 0.62967 0.09397 0.0
N1626 N 0.06557 0.59609 0.12151 0.0
N1627 N 0.10711 0.61254 0.10152 0.0
H1628 H 0.19068 0.24811 0.84377 0.0
H1629 H 0.09641 0.33198 0.80913 0.0
H1630 H 0.16498 0.29655 0.88089 0.0
H1631 H 0.11896 0.39512 0.84026 0.0
H1632 H 0.13024 0.30094 0.82021 0.0
H1633 H 0.17433 0.28518 0.82766 0.0
C1634 C 0.18223 0.26682 0.84852 0.0
C1635 C 0.17855 0.26913 0.86363 0.0
C1636 C 0.12842 0.32185 0.82434 0.0
C1637 C 0.15949 0.31102 0.84541 0.0
C1638 C 0.10882 0.33946 0.81815 0.0
C1639 C 0.10463 0.36601 0.82392 0.0
C1640 C 0.14361 0.33078 0.83651 0.0
C1641 C 0.12142 0.37474 0.83553 0.0
C1642 C 0.17262 0.28775 0.83934 0.0
C1643 C 0.16762 0.29379 0.86927 0.0
N1644 N 0.13975 0.35691 0.84168 0.0
N1645 N 0.15819 0.31371 0.86014 0.0
H1646 H 0.42951 0.35984 0.56173 0.0
H1647 H 0.44151 0.42452 0.63891 0.0
H1648 H 0.3573 0.37856 0.58778 0.0
H1649 H 0.50549 0.43566 0.60658 0.0
H1650 H 0.40893 0.41228 0.61961 0.0
H1651 H 0.45678 0.39124 0.5769 0.0
C1652 C 0.4193 0.37083 0.57051 0.0
C1653 C 0.39121 0.36613 0.57367 0.0
C1654 C 0.4299 0.41805 0.61667 0.0
C1655 C 0.42232 0.4019 0.59112 0.0
C1656 C 0.44849 0.42504 0.62769 0.0
C1657 C 0.47627 0.43068 0.62432 0.0
C1658 C 0.43942 0.41599 0.60225 0.0
C1659 C 0.48425 0.43127 0.60963 0.0
C1660 C 0.43484 0.38889 0.57911 0.0
C1661 C 0.37898 0.38125 0.58505 0.0
N1662 N 0.46606 0.42327 0.59913 0.0
N1663 N 0.39474 0.39804 0.59355 0.0
H1664 H 0.12604 0.98604 0.36687 0.0
H1665 H 0.18639 0.83193 0.36182 0.0
H1666 H 0.08383 0.91818 0.34582 0.0
H1667 H 0.22557 0.897 0.38657 0.0
H1668 H 0.15036 0.86444 0.35434 0.0
H1669 H 0.16453 0.95495 0.37272 0.0
C1670 C 0.12506 0.96471 0.3633 0.0
C1671 C 0.10195 0.95474 0.35563 0.0
C1672 C 0.16699 0.87173 0.36128 0.0
C1673 C 0.14556 0.91899 0.36252 0.0
C1674 C 0.18757 0.85319 0.36552 0.0
C1675 C 0.20928 0.86194 0.37456 0.0
C1676 C 0.16794 0.89922 0.36625 0.0
C1677 C 0.20971 0.88962 0.37919 0.0
C1678 C 0.14691 0.94692 0.36674 0.0
C1679 C 0.1013 0.9267 0.35172 0.0
N1680 N 0.18928 0.9073 0.375 0.0
N1681 N 0.12281 0.90983 0.35517 0.0
H1682 H 0.38397 0.93966 0.64346 0.0
H1683 H 0.25339 0.91128 0.59185 0.0
H1684 H 0.3419 0.00384 0.61943 0.0
H1685 H 0.29497 0.84796 0.61668 0.0
H1686 H 0.28376 0.94608 0.60285 0.0
H1687 H 0.35006 0.90617 0.63459 0.0
C1688 C 0.36744 0.94673 0.63639 0.0
C1689 C 0.3655 0.97463 0.63235 0.0
C1690 C 0.28603 0.92462 0.60603 0.0
C1691 C 0.32671 0.9364 0.62204 0.0
C1692 C 0.2685 0.90482 0.59988 0.0
C1693 C 0.27131 0.87685 0.60366 0.0
C1694 C 0.30669 0.91629 0.61589 0.0
C1695 C 0.29204 0.86938 0.61359 0.0
C1696 C 0.34805 0.92762 0.63135 0.0
C1697 C 0.34374 0.98269 0.62315 0.0
N1698 N 0.30894 0.88898 0.61937 0.0
N1699 N 0.32522 0.96362 0.61825 0.0
H1700 H 0.26758 0.10548 0.84613 0.0
H1701 H 0.41157 0.03645 0.8684 0.0
H1702 H 0.32828 0.1467 0.87298 0.0
H1703 H 0.36816 0.01466 0.82889 0.0
H1704 H 0.37765 0.07316 0.87266 0.0
H1705 H 0.30067 0.06758 0.84212 0.0
C1706 C 0.28779 0.1064 0.85125 0.0
C1707 C 0.29525 0.12903 0.85997 0.0
C1708 C 0.37546 0.06009 0.86313 0.0
C1709 C 0.33294 0.08607 0.85548 0.0
C1710 C 0.39477 0.03913 0.86069 0.0
C1711 C 0.39234 0.02181 0.84848 0.0
C1712 C 0.35348 0.06375 0.85331 0.0
C1713 C 0.37027 0.02648 0.8388 0.0
C1714 C 0.30667 0.08494 0.84889 0.0
C1715 C 0.32182 0.12959 0.86615 0.0
N1716 N 0.3516 0.04692 0.84147 0.0
N1717 N 0.33967 0.10831 0.86388 0.0
H1718 H 0.18438 0.15681 0.10024 0.0
H1719 H 0.13984 -0.0008 0.11336 0.0
H1720 H 0.22493 0.08757 0.07965 0.0
H1721 H 0.10607 0.06791 0.13761 0.0
H1722 H 0.17087 0.03106 0.10074 0.0
H1723 H 0.15452 0.12454 0.11353 0.0
C1724 C 0.18701 0.13476 0.09858 0.0
C1725 C 0.20748 0.12474 0.08911 0.0
C1726 C 0.15688 0.03915 0.10893 0.0
C1727 C 0.17336 0.08772 0.10414 0.0
C1728 C 0.13937 0.02088 0.1163 0.0
C1729 C 0.12083 0.03079 0.12686 0.0
C1730 C 0.15559 0.0676 0.11201 0.0
C1731 C 0.12021 0.05935 0.12963 0.0
C1732 C 0.17006 0.11636 0.10619 0.0
C1733 C 0.20991 0.09605 0.08719 0.0
N1734 N 0.13734 0.07675 0.12226 0.0
N1735 N 0.19306 0.07851 0.09466 0.0
H1736 H 0.9041 0.05793 0.65627 0.0
H1737 H 0.78063 0.09678 0.60303 0.0
H1738 H 0.86192 -0.00307 0.63007 0.0
H1739 H 0.79636 0.14298 0.64245 0.0
H1740 H 0.81467 0.06261 0.61064 0.0
H1741 H 0.86923 0.09234 0.64907 0.0
C1742 C 0.88743 0.05183 0.64903 0.0
C1743 C 0.88552 0.02456 0.64391 0.0
C1744 C 0.81041 0.08009 0.61768 0.0
C1745 C 0.84611 0.06366 0.63547 0.0
C1746 C 0.7906 0.0995 0.61346 0.0
C1747 C 0.78464 0.12232 0.6224 0.0
C1748 C 0.82497 0.08388 0.63075 0.0
C1749 C 0.79998 0.12552 0.6353 0.0
C1750 C 0.86756 0.07137 0.64498 0.0
C1751 C 0.86372 0.01763 0.63449 0.0
N1752 N 0.81946 0.10652 0.6391 0.0
N1753 N 0.84491 0.03712 0.63049 0.0
H1754 H 0.67277 0.14144 0.41038 0.0
H1755 H 0.65165 0.02665 0.34843 0.0
H1756 H 0.73919 0.11024 0.38354 0.0
H1757 H 0.58703 0.05187 0.37807 0.0
H1758 H 0.68425 0.05677 0.36133 0.0
H1759 H 0.64105 0.10852 0.39883 0.0
C1760 C 0.68073 0.12741 0.40218 0.0
C1761 C 0.70876 0.12816 0.39815 0.0
C1762 C 0.66301 0.05552 0.36512 0.0
C1763 C 0.67259 0.09075 0.3847 0.0
C1764 C 0.64449 0.03812 0.35785 0.0
C1765 C 0.61685 0.03621 0.36248 0.0
C1766 C 0.6537 0.07143 0.37698 0.0
C1767 C 0.60828 0.05257 0.37427 0.0
C1768 C 0.66264 0.10864 0.39559 0.0
C1769 C 0.71797 0.10977 0.38734 0.0
N1770 N 0.62665 0.06945 0.38114 0.0
N1771 N 0.69991 0.09189 0.38096 0.0
H1772 H 0.63554 0.99037 0.12725 0.0
H1773 H 0.678 0.83313 0.11308 0.0
H1774 H 0.58072 0.92126 0.13498 0.0
H1775 H 0.73802 0.89922 0.11607 0.0
H1776 H 0.64154 0.86577 0.11963 0.0
H1777 H 0.67291 0.958 0.12175 0.0
C1778 C 0.63145 0.96845 0.12814 0.0
C1779 C 0.60507 0.95855 0.13199 0.0
C1780 C 0.66268 0.87317 0.11878 0.0
C1781 C 0.64755 0.92136 0.12508 0.0
C1782 C 0.68354 0.85455 0.11503 0.0
C1783 C 0.71111 0.86352 0.11367 0.0
C1784 C 0.66936 0.90107 0.12121 0.0
C1785 C 0.71702 0.8915 0.11642 0.0
C1786 C 0.65277 0.94995 0.12481 0.0
C1787 C 0.60076 0.92982 0.13216 0.0
N1788 N 0.69628 0.90932 0.12001 0.0
N1789 N 0.62175 0.91226 0.12875 0.0
H1790 H 0.81667 0.85673 0.90837 0.0
H1791 H 0.84137 0.97964 0.85189 0.0
H1792 H 0.75367 0.8857 0.87874 0.0
H1793 H 0.89887 0.959 0.88621 0.0
H1794 H 0.80856 0.94617 0.86178 0.0
H1795 H 0.84689 0.89447 0.90051 0.0
C1796 C 0.80911 0.87124 0.90031 0.0
C1797 C 0.78251 0.86834 0.89435 0.0
C1798 C 0.8282 0.94923 0.86726 0.0
C1799 C 0.81706 0.91138 0.88514 0.0
C1800 C 0.84687 0.96865 0.86172 0.0
C1801 C 0.87271 0.97267 0.86844 0.0
C1802 C 0.83558 0.93341 0.87949 0.0
C1803 C 0.87914 0.95665 0.88072 0.0
C1804 C 0.82633 0.89281 0.89584 0.0
C1805 C 0.77376 0.88758 0.88388 0.0
N1806 N 0.86075 0.9377 0.88583 0.0
N1807 N 0.79107 0.90822 0.87954 0.0
H1808 H 0.73855 0.41009 0.90506 0.0
H1809 H 0.61906 0.42424 0.84506 0.0
H1810 H 0.71246 0.34326 0.87701 0.0
H1811 H 0.65234 0.49367 0.86891 0.0
H1812 H 0.65161 0.39375 0.85765 0.0
H1813 H 0.70582 0.44073 0.89279 0.0
C1814 C 0.72634 0.40193 0.89618 0.0
C1815 C 0.72885 0.37422 0.8918 0.0
C1816 C 0.65196 0.41569 0.86006 0.0
C1817 C 0.69064 0.40897 0.87802 0.0
C1818 C 0.63337 0.43307 0.85289 0.0
C1819 C 0.63349 0.46158 0.8557 0.0
C1820 C 0.67056 0.42687 0.87027 0.0
C1821 C 0.6522 0.47195 0.86605 0.0
C1822 C 0.70739 0.41939 0.88928 0.0
C1823 C 0.71136 0.36452 0.8807 0.0
N1824 N 0.67001 0.45459 0.87297 0.0
N1825 N 0.69309 0.38188 0.87416 0.0
H1826 H 0.78999 0.34021 0.13021 0.0
H1827 H 0.85896 0.48668 0.11202 0.0
H1828 H 0.76596 0.38935 0.09305 0.0
H1829 H 0.89785 0.42465 0.13888 0.0
H1830 H 0.8206 0.45447 0.10726 0.0
H1831 H 0.82578 0.3743 0.1359 0.0
C1832 C 0.79198 0.35833 0.12334 0.0
C1833 C 0.77445 0.36213 0.11131 0.0
C1834 C 0.83751 0.44799 0.11423 0.0
C1835 C 0.81551 0.40121 0.11774 0.0
C1836 C 0.85925 0.46639 0.11702 0.0
C1837 C 0.88138 0.45833 0.12596 0.0
C1838 C 0.8379 0.42151 0.12054 0.0
C1839 C 0.88114 0.43162 0.13191 0.0
C1840 C 0.81245 0.37775 0.12659 0.0
C1841 C 0.77814 0.38595 0.10275 0.0
N1842 N 0.85967 0.41421 0.12916 0.0
N1843 N 0.79826 0.40461 0.10614 0.0
H1844 H 0.89799 0.53879 0.36119 0.0
H1845 H 0.74542 0.60408 0.35937 0.0
H1846 H 0.83273 0.50883 0.3332 0.0
H1847 H 0.8133 0.63852 0.38405 0.0
H1848 H 0.77623 0.56755 0.35056 0.0
H1849 H 0.86658 0.57439 0.37046 0.0
C1850 C 0.87693 0.53961 0.3571 0.0
C1851 C 0.86766 0.52044 0.34673 0.0
C1852 C 0.78436 0.58301 0.35797 0.0
C1853 C 0.83169 0.5612 0.35712 0.0
C1854 C 0.7667 0.6037 0.36312 0.0
C1855 C 0.77672 0.62398 0.3727 0.0
C1856 C 0.81224 0.58271 0.3624 0.0
C1857 C 0.80474 0.62315 0.37673 0.0
C1858 C 0.85902 0.55991 0.36237 0.0
C1859 C 0.84035 0.52258 0.3416 0.0
N1860 N 0.8215 0.60279 0.37162 0.0
N1861 N 0.82327 0.54258 0.34689 0.0
H1862 H 0.65354 0.51143 0.63234 0.0
H1863 H 0.68052 0.64744 0.58473 0.0
H1864 H 0.59046 0.55469 0.60806 0.0
H1865 H 0.74519 0.60609 0.60879 0.0
H1866 H 0.64816 0.61117 0.59186 0.0
H1867 H 0.68851 0.54301 0.62231 0.0
C1868 C 0.64716 0.52714 0.62465 0.0
C1869 C 0.61915 0.53028 0.62086 0.0
C1870 C 0.66947 0.60981 0.5955 0.0
C1871 C 0.65876 0.56682 0.60969 0.0
C1872 C 0.68794 0.63057 0.59146 0.0
C1873 C 0.71562 0.62962 0.59606 0.0
C1874 C 0.67861 0.58801 0.6044 0.0
C1875 C 0.72416 0.60729 0.60474 0.0
C1876 C 0.66706 0.54533 0.61904 0.0
C1877 C 0.61186 0.55157 0.61125 0.0
N1878 N 0.70565 0.5874 0.60871 0.0
N1879 N 0.6315 0.56904 0.60603 0.0
H1880 H 0.31136 0.64512 0.07602 0.0
H1881 H 0.33534 0.5243 0.13402 0.0
H1882 H 0.24789 0.61731 0.10572 0.0
H1883 H 0.39158 0.54168 0.0986 0.0
H1884 H 0.30389 0.55962 0.12472 0.0
H1885 H 0.34228 0.60914 0.0853 0.0
C1886 C 0.30394 0.63133 0.08447 0.0
C1887 C 0.2769 0.63378 0.08992 0.0
C1888 C 0.323 0.55551 0.11892 0.0
C1889 C 0.31214 0.59276 0.10068 0.0
C1890 C 0.34086 0.53505 0.12412 0.0
C1891 C 0.36582 0.52941 0.11685 0.0
C1892 C 0.33036 0.5707 0.10647 0.0
C1893 C 0.37246 0.54519 0.1045 0.0
C1894 C 0.32153 0.61076 0.08973 0.0
C1895 C 0.26833 0.61559 0.10094 0.0
N1896 N 0.35484 0.56508 0.0997 0.0
N1897 N 0.28592 0.59582 0.10597 0.0
H1898 H 0.13945 0.49666 0.84701 0.0
H1899 H 0.20475 0.64898 0.84492 0.0
H1900 H 0.10776 0.56303 0.82039 0.0
H1901 H 0.23297 0.58483 0.87399 0.0
H1902 H 0.17149 0.61649 0.83437 0.0
H1903 H 0.17654 0.52721 0.85547 0.0
C1904 C 0.14063 0.51749 0.84272 0.0
C1905 C 0.12083 0.52721 0.83277 0.0
C1906 C 0.18516 0.60938 0.84294 0.0
C1907 C 0.16271 0.56249 0.8427 0.0
C1908 C 0.20414 0.62792 0.84895 0.0
C1909 C 0.22199 0.61938 0.86011 0.0
C1910 C 0.18379 0.58217 0.84826 0.0
C1911 C 0.2202 0.59199 0.86507 0.0
C1912 C 0.16164 0.53501 0.84767 0.0
C1913 C 0.1227 0.55471 0.82802 0.0
N1914 N 0.20137 0.57434 0.85912 0.0
N1915 N 0.14327 0.57139 0.83302 0.0
H1916 H 0.19347 0.35392 0.56455 0.0
H1917 H 0.1584 0.47267 0.62236 0.0
H1918 H 0.25444 0.38947 0.5934 0.0
H1919 H 0.10094 0.44452 0.58955 0.0
H1920 H 0.19398 0.44238 0.61201 0.0
H1921 H 0.15917 0.38678 0.57374 0.0
C1922 C 0.19967 0.36884 0.57274 0.0
C1923 C 0.22692 0.36932 0.57804 0.0
C1924 C 0.17369 0.44304 0.60697 0.0
C1925 C 0.18777 0.40677 0.58876 0.0
C1926 C 0.15349 0.46053 0.61278 0.0
C1927 C 0.127 0.46165 0.6065 0.0
C1928 C 0.16717 0.42624 0.59495 0.0
C1929 C 0.12124 0.44445 0.59459 0.0
C1930 C 0.18012 0.38761 0.57797 0.0
C1931 C 0.23387 0.3889 0.58872 0.0
N1932 N 0.14118 0.42748 0.58918 0.0
N1933 N 0.21437 0.40681 0.59377 0.0
H1934 H 0.39426 0.43265 0.32449 0.0
H1935 H 0.26113 0.39528 0.37194 0.0
H1936 H 0.34786 0.4938 0.34853 0.0
H1937 H 0.29477 0.34069 0.33921 0.0
H1938 H 0.29326 0.43138 0.36405 0.0
H1939 H 0.35893 0.39815 0.33046 0.0
C1940 C 0.3765 0.43883 0.33095 0.0
C1941 C 0.37375 0.46617 0.33587 0.0
C1942 C 0.29333 0.41166 0.35844 0.0
C1943 C 0.33344 0.4268 0.34289 0.0
C1944 C 0.27474 0.39114 0.36282 0.0
C1945 C 0.27465 0.36526 0.35587 0.0
C1946 C 0.3124 0.40604 0.34727 0.0
C1947 C 0.29394 0.3605 0.34472 0.0
C1948 C 0.35631 0.41918 0.33431 0.0
C1949 C 0.35044 0.47311 0.34424 0.0
N1950 N 0.31208 0.38068 0.34077 0.0
N1951 N 0.33123 0.45349 0.34757 0.0
H1952 H 0.0324 0.97211 0.2834 0.0
H1953 H 0.05555 0.99541 0.20111 0.0
H1954 H 0.06198 0.05154 0.26857 0.0
H1955 H 0.08924 0.92167 0.22085 0.0
H1956 H 0.05133 0.01624 0.22526 0.0
H1957 H 0.04634 0.95185 0.25996 0.0
C1958 C 0.04201 0.98517 0.27525 0.0
C1959 C 0.04597 0.01349 0.27781 0.0
C1960 C 0.05999 0.99563 0.22423 0.0
C1961 C 0.06105 0.99084 0.25114 0.0
C1962 C 0.06263 0.98383 0.21049 0.0
C1963 C 0.07287 0.95682 0.20902 0.0
C1964 C 0.06681 0.97998 0.23655 0.0
C1965 C 0.08089 0.94241 0.22159 0.0
C1966 C 0.04991 0.97366 0.26196 0.0
C1967 C 0.05808 0.02972 0.26686 0.0
N1968 N 0.07721 0.95399 0.23492 0.0
N1969 N 0.06486 0.01823 0.25387 0.0
H1970 H 0.1742 0.85208 0.50861 0.0
H1971 H 0.31603 0.84002 0.46481 0.0
H1972 H 0.25039 0.82661 0.52928 0.0
H1973 H 0.23766 0.81249 0.44731 0.0
H1974 H 0.2929 0.85037 0.488 0.0
H1975 H 0.19859 0.85368 0.48516 0.0
C1976 C 0.19613 0.84731 0.50824 0.0
C1977 C 0.21028 0.83892 0.5208 0.0
C1978 C 0.28085 0.84236 0.47897 0.0
C1979 C 0.23816 0.84136 0.49433 0.0
C1980 C 0.29399 0.8362 0.46584 0.0
C1981 C 0.27872 0.82508 0.45424 0.0
C1982 C 0.25224 0.83792 0.48029 0.0
C1983 C 0.25009 0.82126 0.45597 0.0
C1984 C 0.20995 0.84829 0.49493 0.0
C1985 C 0.23879 0.83343 0.51986 0.0
N1986 N 0.23771 0.82769 0.46879 0.0
N1987 N 0.25183 0.83459 0.50679 0.0
H1988 H 0.38357 0.06779 0.72222 0.0
H1989 H 0.47485 0.95003 0.76047 0.0
H1990 H 0.44781 0.02142 0.70055 0.0
H1991 H 0.40328 0.98713 0.78077 0.0
H1992 H 0.46686 0.97838 0.73887 0.0
H1993 H 0.39204 0.04084 0.7445 0.0
C1994 C 0.39938 0.05186 0.72223 0.0
C1995 C 0.41484 0.04639 0.70967 0.0
C1996 C 0.45288 0.98037 0.74804 0.0
C1997 C 0.42479 0.01591 0.7348 0.0
C1998 C 0.4574 0.96413 0.76031 0.0
C1999 C 0.43961 0.96629 0.77229 0.0
C2000 C 0.43044 -0.00108 0.7478 0.0
C2001 C 0.41756 0.98513 0.77173 0.0
C2002 C 0.40422 0.03654 0.73485 0.0
C2003 C 0.43526 0.02585 0.71005 0.0
N2004 N 0.41353 0.00077 0.75964 0.0
N2005 N 0.43965 0.0113 0.72243 0.0
H2006 H 0.27618 0.19564 0.9307 0.0
H2007 H 0.24643 0.18383 0.01308 0.0
H2008 H 0.19841 0.16206 0.94578 0.0
H2009 H 0.32701 0.15907 -0.00273 0.0
H2010 H 0.22836 0.18046 -0.01166 0.0
H2011 H 0.29636 0.18654 0.95482 0.0
C2012 C 0.26356 0.18594 0.93902 0.0
C2013 C 0.23559 0.17986 0.93642 0.0
C2014 C 0.24992 0.17544 -0.00965 0.0
C2015 C 0.25807 0.17019 0.9638 0.0
C2016 C 0.26021 0.17721 0.00445 0.0
C2017 C 0.28824 0.17168 0.00721 0.0
C2018 C 0.26798 0.1689 0.97889 0.0
C2019 C 0.30538 0.16399 -0.00447 0.0
C2020 C 0.27501 0.1808 0.95271 0.0
C2021 C 0.21992 0.16758 0.94752 0.0
N2022 N 0.29507 0.16326 0.98176 0.0
N2023 N 0.23123 0.1636 0.96086 0.0
H2024 H 0.96146 0.92753 0.73029 0.0
H2025 H 0.87608 0.04169 0.77455 0.0
H2026 H 0.88776 0.96695 0.71373 0.0
H2027 H 0.94557 -0.00308 0.79225 0.0
H2028 H 0.87839 0.01292 0.75255 0.0
H2029 H 0.95443 0.95088 0.75365 0.0
C2030 C 0.94367 0.94097 0.73166 0.0
C2031 C 0.92529 0.94565 0.72014 0.0
C2032 C 0.89295 0.00916 0.76131 0.0
C2033 C 0.9172 0.97257 0.74663 0.0
C2034 C 0.89159 0.02553 0.77379 0.0
C2035 C 0.91057 0.02138 0.78509 0.0
C2036 C 0.91363 0.98876 0.76015 0.0
C2037 C 0.93043 0.00043 0.78374 0.0
C2038 C 0.93968 0.95434 0.74494 0.0
C2039 C 0.90262 0.96326 0.72235 0.0
N2040 N 0.93157 0.98495 0.77143 0.0
N2041 N 0.89928 0.97628 0.73533 0.0
H2042 H 0.75175 0.13331 0.54329 0.0
H2043 H 0.80078 0.2327 0.47857 0.0
H2044 H 0.72863 0.21918 0.54 0.0
H2045 H 0.79594 0.14401 0.47434 0.0
H2046 H 0.78419 0.22886 0.50376 0.0
H2047 H 0.77832 0.1378 0.52051 0.0
C2048 C 0.75278 0.15317 0.53784 0.0
C2049 C 0.73815 0.17592 0.54327 0.0
C2050 C 0.78693 0.21023 0.49734 0.0
C2051 C 0.76801 0.18124 0.51757 0.0
C2052 C 0.79636 0.21244 0.48306 0.0
C2053 C 0.79933 0.18864 0.47454 0.0
C2054 C 0.78072 0.184 0.50306 0.0
C2055 C 0.79354 0.16278 0.48067 0.0
C2056 C 0.7677 0.15571 0.5249 0.0
C2057 C 0.73973 0.20126 0.53598 0.0
N2058 N 0.78439 0.1611 0.49462 0.0
N2059 N 0.75436 0.20325 0.52342 0.0
H2060 H 0.58541 0.01469 0.20179 0.0
H2061 H 0.53441 0.00652 0.2844 0.0
H2062 H 0.50562 0.044 0.21638 0.0
H2063 H 0.59639 0.95164 0.26681 0.0
H2064 H 0.52946 0.028 0.26035 0.0
H2065 H 0.59472 -0.00265 0.2264 0.0
C2066 C 0.5698 0.01723 0.21017 0.0
C2067 C 0.5447 0.03063 0.20716 0.0
C2068 C 0.54434 0.01144 0.26179 0.0
C2069 C 0.55543 0.01171 0.2352 0.0
C2070 C 0.54732 -0.00056 0.27548 0.0
C2071 C 0.56574 0.9774 0.27738 0.0
C2072 C 0.56007 0.00133 0.25006 0.0
C2073 C 0.58192 0.96862 0.2656 0.0
C2074 C 0.57519 0.00757 0.22418 0.0
C2075 C 0.52532 0.03394 0.21838 0.0
N2076 N 0.57864 0.98056 0.25235 0.0
N2077 N 0.53113 0.02463 0.23196 0.0
H2078 H 0.75015 0.85374 0.03633 0.0
H2079 H 0.7028 0.75973 0.96909 0.0
H2080 H 0.77726 0.76976 0.0295 0.0
H2081 H 0.6975 0.84874 0.9685 0.0
H2082 H 0.7227 0.76188 -0.00643 0.0
H2083 H 0.72319 0.85114 0.01361 0.0
C2084 C 0.75013 0.83474 0.03006 0.0
C2085 C 0.76593 0.81201 0.03452 0.0
C2086 C 0.71707 0.78096 -0.01186 0.0
C2087 C 0.73548 0.80878 0.0089 0.0
C2088 C 0.70569 0.7797 0.97425 0.0
C2089 C 0.69868 0.80411 0.96697 0.0
C2090 C 0.72139 0.80685 -0.00529 0.0
C2091 C 0.70282 0.82956 0.97391 0.0
C2092 C 0.73494 0.83328 0.01715 0.0
C2093 C 0.76544 0.78775 0.02621 0.0
N2094 N 0.71402 0.83033 0.98747 0.0
N2095 N 0.75047 0.78677 0.01375 0.0
H2096 H 0.5654 0.49163 0.77991 0.0
H2097 H 0.56103 0.51474 0.69591 0.0
H2098 H 0.60887 0.56037 0.76045 0.0
H2099 H 0.56591 0.43218 0.71362 0.0
H2100 H 0.57482 0.53334 0.71967 0.0
H2101 H 0.56187 0.46992 0.75591 0.0
C2102 C 0.5747 0.50186 0.77062 0.0
C2103 C 0.58735 0.52782 0.77207 0.0
C2104 C 0.57305 0.51115 0.71827 0.0
C2105 C 0.58252 0.50371 0.74469 0.0
C2106 C 0.56519 0.50056 0.70478 0.0
C2107 C 0.56201 0.47196 0.70291 0.0
C2108 C 0.57715 0.49297 0.72998 0.0
C2109 C 0.56736 0.45443 0.71474 0.0
C2110 C 0.57254 0.48957 0.75695 0.0
C2111 C 0.59857 0.5405 0.75967 0.0
N2112 N 0.57434 0.46524 0.72788 0.0
N2113 N 0.59547 0.52853 0.7464 0.0
H2114 H 0.72181 0.26922 0.02498 0.0
H2115 H 0.80268 0.3728 0.97319 0.0
H2116 H 0.73521 0.35453 0.03676 0.0
H2117 H 0.81656 0.28473 0.97255 0.0
H2118 H 0.77524 0.36744 -0.00442 0.0
H2119 H 0.7534 0.27507 0.00426 0.0
C2120 C 0.7314 0.28919 0.02309 0.0
C2121 C 0.72601 0.31151 0.03236 0.0
C2122 C 0.78461 0.34935 -0.00936 0.0
C2123 C 0.76189 0.31839 0.00896 0.0
C2124 C 0.8002 0.35244 0.97796 0.0
C2125 C 0.81177 0.32916 0.97126 0.0
C2126 C 0.78027 0.32274 -0.00364 0.0
C2127 C 0.80798 0.30311 0.97758 0.0
C2128 C 0.7495 0.29248 0.01141 0.0
C2129 C 0.73898 0.33694 0.02972 0.0
N2130 N 0.79224 0.30052 -0.01025 0.0
N2131 N 0.75625 0.33981 0.01814 0.0
H2132 H 0.89662 0.41526 0.2538 0.0
H2133 H 0.92615 0.55562 0.2133 0.0
H2134 H 0.93322 0.48406 0.27687 0.0
H2135 H 0.95263 0.47824 0.19435 0.0
H2136 H 0.91621 0.53136 0.23616 0.0
H2137 H 0.9043 0.44003 0.23077 0.0
C2138 C 0.90604 0.43562 0.25402 0.0
C2139 C 0.91427 0.44769 0.26722 0.0
C2140 C 0.92412 0.51982 0.22693 0.0
C2141 C 0.9222 0.47612 0.24122 0.0
C2142 C 0.93002 0.53359 0.21398 0.0
C2143 C 0.94036 0.51887 0.20199 0.0
C2144 C 0.9279 0.49112 0.22769 0.0
C2145 C 0.94433 0.49023 0.20331 0.0
C2146 C 0.91032 0.44965 0.24095 0.0
C2147 C 0.92601 0.47426 0.26698 0.0
N2148 N 0.93785 0.47715 0.21593 0.0
N2149 N 0.92951 0.48771 0.25415 0.0
H2150 H 0.81743 0.67751 0.50849 0.0
H2151 H 0.67756 0.65888 0.46476 0.0
H2152 H 0.73886 0.70188 0.527 0.0
H2153 H 0.75025 0.69335 0.44417 0.0
H2154 H 0.70154 0.66106 0.48832 0.0
H2155 H 0.79444 0.67026 0.48497 0.0
C2156 C 0.79539 0.6814 0.50758 0.0
C2157 C 0.77997 0.69047 0.51961 0.0
C2158 C 0.71221 0.6678 0.47856 0.0
C2159 C 0.75367 0.68115 0.49314 0.0
C2160 C 0.69863 0.66663 0.4652 0.0
C2161 C 0.71198 0.67604 0.45258 0.0
C2162 C 0.73946 0.67781 0.47915 0.0
C2163 C 0.73941 0.68549 0.45362 0.0
C2164 C 0.78234 0.67705 0.49425 0.0
C2165 C 0.75136 0.69454 0.518 0.0
N2166 N 0.75234 0.6861 0.46673 0.0
N2167 N 0.73902 0.68969 0.50497 0.0
H2168 H 0.38008 0.53868 0.26421 0.0
H2169 H 0.45577 0.45824 0.20047 0.0
H2170 H 0.46778 0.54656 0.25623 0.0
H2171 H 0.36969 0.48137 0.19738 0.0
H2172 H 0.46022 0.48682 0.22242 0.0
H2173 H 0.37504 0.51418 0.24089 0.0
C2174 C 0.39816 0.53538 0.25742 0.0
C2175 C 0.42433 0.54446 0.26193 0.0
C2176 C 0.44039 0.48575 0.21691 0.0
C2177 C 0.41896 0.51641 0.23568 0.0
C2178 C 0.43785 0.46938 0.20451 0.0
C2179 C 0.41233 0.46757 0.19735 0.0
C2180 C 0.4171 0.49996 0.22221 0.0
C2181 C 0.38964 0.48238 0.20277 0.0
C2182 C 0.39532 0.52154 0.24418 0.0
C2183 C 0.44728 0.53983 0.25295 0.0
N2184 N 0.39247 0.49787 0.21502 0.0
N2185 N 0.44413 0.52581 0.24026 0.0
H2186 H 0.30656 0.64122 0.95748 0.0
H2187 H 0.16668 0.66474 0.0007 0.0
H2188 H 0.23593 0.67662 0.93547 0.0
H2189 H 0.24607 0.69203 0.01703 0.0
H2190 H 0.18871 0.65386 0.97721 0.0
H2191 H 0.28065 0.64277 0.98044 0.0
C2192 C 0.28544 0.64887 0.95747 0.0
C2193 C 0.27345 0.65929 0.94471 0.0
C2194 C 0.20115 0.66201 0.98606 0.0
C2195 C 0.24377 0.66037 0.97061 0.0
C2196 C 0.18867 0.66847 -0.00066 0.0
C2197 C 0.20465 0.67933 0.01077 0.0
C2198 C 0.2298 0.66576 0.98447 0.0
C2199 C 0.23313 0.68322 0.00858 0.0
C2200 C 0.27076 0.64967 0.97049 0.0
C2201 C 0.24583 0.66836 0.94512 0.0
N2202 N 0.24489 0.67624 -0.0043 0.0
N2203 N 0.23186 0.66891 0.95796 0.0
H2204 H 0.09208 0.54879 0.70091 0.0
H2205 H 0.06234 0.41475 0.74737 0.0
H2206 H 0.05223 0.47874 0.6806 0.0
H2207 H 0.0423 0.4967 0.76286 0.0
H2208 H 0.07131 0.43416 0.72308 0.0
H2209 H 0.08855 0.52542 0.7245 0.0
C2210 C 0.08296 0.52832 0.70142 0.0
C2211 C 0.07196 0.51578 0.68895 0.0
C2212 C 0.06499 0.44773 0.73187 0.0
C2213 C 0.06849 0.48896 0.71559 0.0
C2214 C 0.05963 0.43674 0.74563 0.0
C2215 C 0.05152 0.45423 0.75707 0.0
C2216 C 0.06295 0.47636 0.72979 0.0
C2217 C 0.04892 0.48263 0.75437 0.0
C2218 C 0.08097 0.51509 0.71481 0.0
C2219 C 0.06092 0.48901 0.69003 0.0
N2220 N 0.0549 0.4929 0.74101 0.0
N2221 N 0.05929 0.47641 0.70323 0.0
H2222 H 0.19811 0.33476 0.45046 0.0
H2223 H 0.34162 0.32279 0.49044 0.0
H2224 H 0.266 0.29628 0.42748 0.0
H2225 H 0.26549 0.2949 0.51037 0.0
H2226 H 0.3173 0.32566 0.46687 0.0
H2227 H 0.22615 0.33482 0.4727 0.0
C2228 C 0.21902 0.32659 0.45008 0.0
C2229 C 0.22971 0.31516 0.43724 0.0
C2230 C 0.30613 0.31897 0.47648 0.0
C2231 C 0.26186 0.31591 0.46234 0.0
C2232 C 0.31991 0.31714 0.48983 0.0
C2233 C 0.30539 0.30887 0.50234 0.0
C2234 C 0.27767 0.31319 0.47589 0.0
C2235 C 0.27724 0.30207 0.50106 0.0
C2236 C 0.23492 0.32671 0.4627 0.0
C2237 C 0.25713 0.30542 0.43719 0.0
N2238 N 0.26417 0.30474 0.48809 0.0
N2239 N 0.2724 0.30594 0.44963 0.0
H2240 H 0.03621 0.1836 0.2868 0.0
H2241 H 0.89462 0.26797 0.29117 0.0
H2242 H 0.95636 0.14644 0.29527 0.0
H2243 H 0.97513 0.30557 0.2854 0.0
H2244 H 0.91557 0.2225 0.28733 0.0
H2245 H 0.01299 0.22712 0.28094 0.0
C2246 C 0.01377 0.18443 0.28719 0.0
C2247 C -0.00175 0.16148 0.29182 0.0
C2248 C 0.92858 0.24074 0.28668 0.0
C2249 C 0.97155 0.21133 0.28525 0.0
C2250 C 0.9166 0.26674 0.28883 0.0
C2251 C 0.93324 0.29058 0.28891 0.0
C2252 C 0.9574 0.23858 0.28465 0.0
C2253 C 0.96157 0.2877 0.28569 0.0
C2254 C 0.00051 0.20933 0.28387 0.0
C2255 C 0.96921 0.16373 0.29199 0.0
N2256 N 0.97282 0.26216 0.28391 0.0
N2257 N 0.95683 0.18832 0.28898 0.0
H2258 H 0.94991 0.69068 0.53278 0.0
H2259 H 0.04125 0.828 0.53727 0.0
H2260 H 0.91645 0.77241 0.54003 0.0
H2261 H 0.07528 0.74544 0.53528 0.0
H2262 H 0.99523 0.80889 0.53249 0.0
H2263 H 0.99525 0.71134 0.52793 0.0
C2264 C 0.95195 0.713 0.5331 0.0
C2265 C 0.92946 0.7298 0.5371 0.0
C2266 C 0.01283 0.795 0.53288 0.0
C2267 C 0.98136 0.75356 0.53166 0.0
C2268 C 0.03915 0.80591 0.53557 0.0
C2269 C 0.06209 0.78824 0.53697 0.0
C2270 C 0.0094 0.76621 0.53162 0.0
C2271 C 0.05812 0.75981 0.53453 0.0
C2272 C 0.97789 0.72478 0.53037 0.0
C2273 C 0.93332 0.75861 0.53722 0.0
N2274 N 0.03222 0.74964 0.53218 0.0
N2275 N 0.95885 0.76955 0.53475 0.0
H2276 H 0.51407 0.8252 0.78464 0.0
H2277 H 0.51586 0.66031 0.78807 0.0
H2278 H 0.44067 0.77426 0.78761 0.0
H2279 H 0.58832 0.71165 0.79401 0.0
H2280 H 0.48921 0.70136 0.78151 0.0
H2281 H 0.54204 0.78349 0.78154 0.0
C2282 C 0.50371 0.80531 0.78433 0.0
C2283 C 0.47498 0.80322 0.78669 0.0
C2284 C 0.51104 0.7036 0.78405 0.0
C2285 C 0.507 0.75538 0.78324 0.0
C2286 C 0.52632 0.68015 0.78779 0.0
C2287 C 0.55429 0.68259 0.79189 0.0
C2288 C 0.52376 0.72973 0.78441 0.0
C2289 C 0.56675 0.70882 0.79111 0.0
C2290 C 0.51976 0.78148 0.78263 0.0
C2291 C 0.46277 0.77687 0.78605 0.0
N2292 N 0.5513 0.73143 0.78766 0.0
N2293 N 0.47889 0.75396 0.78459 0.0
H2294 H 0.41869 0.25492 0.03434 0.0
H2295 H 0.58215 0.23395 0.04081 0.0
H2296 H 0.45854 0.17499 0.03607 0.0
H2297 H 0.54188 0.31374 0.0406 0.0
H2298 H 0.538 0.21227 0.03446 0.0
H2299 H 0.46415 0.27676 0.03205 0.0
C2300 C 0.43697 0.2419 0.03403 0.0
C2301 C 0.43479 0.21308 0.03565 0.0
C2302 C 0.53889 0.23456 0.03559 0.0
C2303 C 0.48701 0.23804 0.03315 0.0
C2304 C 0.56415 0.24699 0.03919 0.0
C2305 C 0.56566 0.27569 0.04149 0.0
C2306 C 0.51492 0.25091 0.03436 0.0
C2307 C 0.54166 0.29152 0.03911 0.0
C2308 C 0.46296 0.25442 0.03274 0.0
C2309 C 0.45921 0.1973 0.03502 0.0
N2310 N 0.51723 0.27888 0.03588 0.0
N2311 N 0.48431 0.21001 0.03402 0.0
H2312 H 0.02483 0.65634 0.18297 0.0
H2313 H 0.00202 0.81947 0.18749 0.0
H2314 H 0.94463 0.69505 0.18761 0.0
H2315 H 0.08214 0.78089 0.18221 0.0
H2316 H 0.98157 0.77395 0.19175 0.0
H2317 H 0.04685 0.70124 0.18693 0.0
C2318 C 0.01183 0.67419 0.18505 0.0
C2319 C 0.98279 0.67196 0.18471 0.0
C2320 C 0.00369 0.77545 0.18985 0.0
C2321 C 0.00793 0.72356 0.18912 0.0
C2322 C 0.01541 0.80147 0.18742 0.0
C2323 C 0.04379 0.804 0.18425 0.0
C2324 C 0.02041 0.7517 0.18901 0.0
C2325 C 0.06012 0.77994 0.18446 0.0
C2326 C 0.02445 0.69987 0.18728 0.0
C2327 C 0.96707 0.6958 0.18761 0.0
N2328 N 0.04814 0.75478 0.18659 0.0
N2329 N 0.97983 0.72065 0.18949 0.0
H2330 H 0.53574 0.67336 0.43467 0.0
H2331 H 0.45341 0.81616 0.43773 0.0
H2332 H 0.57496 0.75372 0.43443 0.0
H2333 H 0.41402 0.73594 0.43625 0.0
H2334 H 0.49808 0.79345 0.44152 0.0
H2335 H 0.49143 0.69558 0.44016 0.0
C2336 C 0.53515 0.69563 0.436 0.0
C2337 C 0.55903 0.71173 0.43381 0.0
C2338 C 0.4796 0.78082 0.44058 0.0
C2339 C 0.5083 0.73734 0.43998 0.0
C2340 C 0.45404 0.7938 0.43846 0.0
C2341 C 0.42998 0.77793 0.43639 0.0
C2342 C 0.48113 0.75176 0.44056 0.0
C2343 C 0.43208 0.74901 0.43757 0.0
C2344 C 0.50981 0.70833 0.43911 0.0
C2345 C 0.55701 0.74049 0.4358 0.0
N2346 N 0.45726 0.73686 0.43936 0.0
N2347 N 0.53204 0.75239 0.43857 0.0
H2348 H 0.47856 0.1865 0.6936 0.0
H2349 H 0.45773 0.34823 0.68221 0.0
H2350 H 0.39995 0.22438 0.6832 0.0
H2351 H 0.53639 0.31011 0.69226 0.0
H2352 H 0.43459 0.30432 0.68725 0.0
H2353 H 0.49814 0.23236 0.6979 0.0
C2354 C 0.46527 0.20443 0.69244 0.0
C2355 C 0.4377 0.20161 0.68775 0.0
C2356 C 0.45687 0.30565 0.68857 0.0
C2357 C 0.46011 0.25426 0.69252 0.0
C2358 C 0.47012 0.33076 0.68571 0.0
C2359 C 0.49913 0.33273 0.68654 0.0
C2360 C 0.47275 0.28228 0.6922 0.0
C2361 C 0.51403 0.30947 0.69128 0.0
C2362 C 0.47649 0.23065 0.69489 0.0
C2363 C 0.4214 0.22557 0.68662 0.0
N2364 N 0.50072 0.2851 0.69371 0.0
N2365 N 0.43297 0.25092 0.68876 0.0
H2366 H 0.10754 0.27017 0.92403 0.0
H2367 H 0.94774 0.26019 0.94547 0.0
H2368 H 0.06316 0.19319 0.92935 0.0
H2369 H 0.9903 0.33677 0.93603 0.0
H2370 H 0.99215 0.23599 0.94492 0.0
H2371 H 0.06736 0.29504 0.9335 0.0
C2372 C 0.08947 0.25843 0.92736 0.0
C2373 C 0.08854 0.22956 0.92563 0.0
C2374 C 0.99183 0.25816 0.94319 0.0
C2375 C 0.04236 0.258 0.93644 0.0
C2376 C 0.96646 0.27205 0.94355 0.0
C2377 C 0.9652 0.30051 0.94049 0.0
C2378 C 0.01611 0.27279 0.93972 0.0
C2379 C 0.9902 0.31477 0.93824 0.0
C2380 C 0.06651 0.27268 0.93277 0.0
C2381 C 0.06469 0.21547 0.93032 0.0
N2382 N 0.01458 0.30069 0.93768 0.0
N2383 N 0.0424 0.22987 0.93532 0.0
H2384 H 0.9958 0.8084 0.69601 0.0
H2385 H 0.99362 0.64731 0.67701 0.0
H2386 H 0.92155 0.76204 0.68612 0.0
H2387 H 0.06834 0.69638 0.67958 0.0
H2388 H 0.96709 0.68672 0.68605 0.0
H2389 H 0.02222 0.76528 0.69592 0.0
C2390 C 0.9849 0.78911 0.69411 0.0
C2391 C 0.95646 0.78892 0.69079 0.0
C2392 C 0.98934 0.68877 0.68481 0.0
C2393 C 0.98671 0.73952 0.69057 0.0
C2394 C 0.00454 0.66626 0.67965 0.0
C2395 C 0.03322 0.66869 0.67726 0.0
C2396 C 0.00284 0.71397 0.6876 0.0
C2397 C 0.04624 0.69366 0.68108 0.0
C2398 C 7e-05 0.7645 0.694 0.0
C2399 C 0.9435 0.76325 0.68854 0.0
N2400 N 0.03089 0.71545 0.68588 0.0
N2401 N 0.95879 0.73963 0.68827 0.0
H2402 H 0.05034 0.32113 0.43205 0.0
H2403 H 0.96455 0.18121 0.44188 0.0
H2404 H 0.08664 0.2395 0.43062 0.0
H2405 H 0.92738 0.26241 0.43993 0.0
H2406 H 0.01034 0.20279 0.44275 0.0
H2407 H 0.00654 0.30061 0.43997 0.0
C2408 C 0.04928 0.29895 0.43364 0.0
C2409 C 0.07208 0.28197 0.4304 0.0
C2410 C 0.99215 0.21591 0.44233 0.0
C2411 C 0.02189 0.25832 0.43934 0.0
C2412 C 0.96596 0.20359 0.44186 0.0
C2413 C 0.94209 0.22 0.44057 0.0
C2414 C 0.99451 0.24485 0.44146 0.0
C2415 C 0.94523 0.24891 0.44072 0.0
C2416 C 0.0242 0.28723 0.43812 0.0
C2417 C 0.06949 0.25337 0.43278 0.0
N2418 N 0.97096 0.26039 0.44095 0.0
N2419 N 0.04475 0.24242 0.43691 0.0
H2420 H 0.47252 0.32552 0.18613 0.0
H2421 H 0.46307 0.16091 0.18299 0.0
H2422 H 0.39669 0.28019 0.17851 0.0
H2423 H 0.53989 0.20682 0.18435 0.0
H2424 H 0.43763 0.2039 0.18711 0.0
H2425 H 0.49612 0.28199 0.19138 0.0
C2426 C 0.46067 0.30647 0.18581 0.0
C2427 C 0.43268 0.30648 0.18157 0.0
C2428 C 0.46007 0.20451 0.18671 0.0
C2429 C 0.45971 0.25651 0.18747 0.0
C2430 C 0.47465 0.17995 0.18438 0.0
C2431 C 0.50367 0.18032 0.18305 0.0
C2432 C 0.47459 0.22964 0.18771 0.0
C2433 C 0.51752 0.20559 0.1851 0.0
C2434 C 0.47422 0.28159 0.18877 0.0
C2435 C 0.41837 0.28116 0.18153 0.0
N2436 N 0.50283 0.22928 0.18714 0.0
N2437 N 0.43215 0.25715 0.1842 0.0
H2438 H 0.53872 0.79704 0.93826 0.0
H2439 H 0.45134 0.65727 0.935 0.0
H2440 H 0.57525 0.71559 0.93588 0.0
H2441 H 0.41511 0.73898 0.93522 0.0
H2442 H 0.49647 0.6778 0.94048 0.0
H2443 H 0.49337 0.77577 0.94211 0.0
C2444 C 0.53728 0.77469 0.93873 0.0
C2445 C 0.56075 0.75807 0.93648 0.0
C2446 C 0.47856 0.6912 0.93956 0.0
C2447 C 0.50883 0.73356 0.94079 0.0
C2448 C 0.45273 0.67947 0.93649 0.0
C2449 C 0.4295 0.69648 0.93435 0.0
C2450 C 0.48116 0.72012 0.94045 0.0
C2451 C 0.43255 0.72509 0.93652 0.0
C2452 C 0.51135 0.76254 0.94093 0.0
C2453 C 0.55766 0.72922 0.93736 0.0
N2454 N 0.45798 0.73604 0.93923 0.0
N2455 N 0.53211 0.71788 0.93926 0.0
H2456 H 0.97951 0.16334 0.78836 0.0
H2457 H 0.96487 0.32735 0.78674 0.0
H2458 H 0.90307 0.20702 0.79678 0.0
H2459 H 0.04208 0.28387 0.78019 0.0
H2460 H 0.94015 0.28332 0.78544 0.0
H2461 H 0.00059 0.20668 0.78034 0.0
C2462 C 0.96698 0.18195 0.7883 0.0
C2463 C 0.93961 0.18162 0.79353 0.0
C2464 C 0.96246 0.28343 0.78408 0.0
C2465 C 0.96376 0.23141 0.78449 0.0
C2466 C 0.97661 0.3086 0.7848 0.0
C2467 C 0.00568 0.30927 0.78385 0.0
C2468 C 0.97746 0.25869 0.78249 0.0
C2469 C 0.01971 0.28433 0.78117 0.0
C2470 C 0.97908 0.20673 0.78374 0.0
C2471 C 0.92433 0.20633 0.79302 0.0
N2472 N 0.00551 0.26002 0.7808 0.0
N2473 N 0.93675 0.2303 0.78882 0.0
H2474 H 0.54689 0.15695 0.54854 0.0
H2475 H 0.48628 0.30678 0.53315 0.0
H2476 H 0.5974 0.23056 0.54564 0.0
H2477 H 0.437 0.23217 0.53207 0.0
H2478 H 0.52822 0.27847 0.53376 0.0
H2479 H 0.50775 0.18298 0.53868 0.0
C2480 C 0.54991 0.17845 0.54561 0.0
C2481 C 0.57535 0.19169 0.54819 0.0
C2482 C 0.50825 0.26828 0.53316 0.0
C2483 C 0.5305 0.22174 0.53704 0.0
C2484 C 0.48426 0.28447 0.53277 0.0
C2485 C 0.45803 0.27187 0.53284 0.0
C2486 C 0.50599 0.23928 0.53374 0.0
C2487 C 0.45675 0.24282 0.53223 0.0
C2488 C 0.52751 0.19334 0.53999 0.0
C2489 C 0.57807 0.21956 0.54405 0.0
N2490 N 0.48035 0.22754 0.53296 0.0
N2491 N 0.55581 0.23376 0.5389 0.0
H2492 H 0.57235 0.79602 0.2923 0.0
H2493 H 0.42529 0.72139 0.28852 0.0
H2494 H 0.49412 0.83945 0.29295 0.0
H2495 H 0.50348 0.67806 0.28651 0.0
H2496 H 0.45011 0.76522 0.28604 0.0
H2497 H 0.54773 0.75339 0.28611 0.0
C2498 C 0.55005 0.79672 0.29092 0.0
C2499 C 0.53526 0.82128 0.29341 0.0
C2500 C 0.46182 0.74611 0.28593 0.0
C2501 C 0.50688 0.77244 0.28645 0.0
C2502 C 0.44763 0.72103 0.28731 0.0
C2503 C 0.46234 0.696 0.28798 0.0
C2504 C 0.49095 0.74619 0.2853 0.0
C2505 C 0.49128 0.69685 0.28625 0.0
C2506 C 0.53598 0.77232 0.28741 0.0
C2507 C 0.50638 0.82093 0.29134 0.0
N2508 N 0.50466 0.72154 0.2852 0.0
N2509 N 0.49312 0.79684 0.28819 0.0
H2510 H 0.9086 0.75228 0.04178 0.0
H2511 H 0.07225 0.76814 0.03359 0.0
H2512 H 0.95231 0.83007 0.04492 0.0
H2513 H 0.02941 0.68966 0.03448 0.0
H2514 H 0.02761 0.79177 0.03216 0.0
H2515 H 0.95138 0.73012 0.03364 0.0
C2516 C 0.92708 0.76482 0.04054 0.0
C2517 C 0.92697 0.793 0.04432 0.0
C2518 C 0.02797 0.76936 0.03245 0.0
C2519 C 0.97611 0.76764 0.03509 0.0
C2520 C 0.05349 0.75582 0.03322 0.0
C2521 C 0.05459 0.72686 0.03446 0.0
C2522 C 0.00334 0.75387 0.03296 0.0
C2523 C 0.02958 0.71202 0.03375 0.0
C2524 C 0.95153 0.75212 0.0359 0.0
C2525 C 0.95148 0.80823 0.04232 0.0
N2526 N 0.00497 0.72571 0.03328 0.0
N2527 N 0.97515 0.79528 0.03805 0.0
loop_
_geom_bond_atom_site_label_1
_geom_bond_atom_site_label_2
_geom_bond_distance
_geom_bond_site_symmetry_2
_ccdc_geom_bond_type
Co0 O3 1.970 . S
Co0 N17 1.989 . S
Co0 O25 1.967 . S
Co0 O32 1.920 . S
Co1 O4 1.966 . S
Co1 N10 2.022 . S
Co1 N18 1.993 . S
Co1 O26 1.941 . S
C2 O3 1.258 . S
C2 O4 1.263 . S
O3 Co0 1.970 . S
O3 C2 1.258 . S
O4 Co1 1.966 . S
O4 C2 1.263 . S
C5 O6 1.235 . S
C5 O32 1.289 . S
O6 C5 1.235 . S
C7 C9 1.400 . S
C7 N10 1.351 . S
C7 C12 1.501 . S
C8 C9 1.387 1_565 S
C8 N11 1.341 1_565 S
C9 C7 1.400 . S
C9 C8 1.387 1_545 S
N10 Co1 2.022 . S
N10 C7 1.351 . S
N10 N11 1.365 . S
N11 C8 1.341 1_545 S
N11 N10 1.365 . S
N11 H31 0.862 . S
C12 C7 1.501 . S
C12 H13 0.961 . S
C12 H14 0.961 . S
C12 H15 0.960 . S
H13 C12 0.961 . S
H14 C12 0.961 . S
H15 C12 0.960 . S
C16 N17 1.342 . S
C16 C20 1.401 . S
C16 C21 1.499 . S
N17 Co0 1.989 . S
N17 C16 1.342 . S
N17 N18 1.388 . S
N18 Co1 1.993 . S
N18 N17 1.388 . S
N18 C19 1.346 . S
C19 N18 1.346 . S
C19 C20 1.396 . S
C19 C29 1.510 . S
C20 C16 1.401 . S
C20 C19 1.396 . S
C21 C16 1.499 . S
C21 H22 0.959 . S
C21 H23 0.960 . S
C21 H24 0.961 . S
H22 C21 0.959 . S
H23 C21 0.960 . S
H24 C21 0.961 . S
O25 Co0 1.967 . S
O25 C33 1.258 . S
O26 Co1 1.941 . S
O26 C33 1.266 . S
H27 C29 0.959 . S
H28 C29 0.961 . S
C29 C19 1.510 . S
C29 H27 0.959 . S
C29 H28 0.961 . S
C29 H30 0.960 . S
H30 C29 0.960 . S
H31 N11 0.862 . S
O32 Co0 1.920 . S
O32 C5 1.289 . S
C33 O25 1.258 . S
C33 O26 1.266 . S
Co34 O37 1.970 . S
Co34 N51 1.989 . S
Co34 O59 1.967 . S
Co34 O66 1.920 . S
Co35 O38 1.966 . S
Co35 N44 2.022 . S
Co35 N52 1.993 . S
Co35 O60 1.941 . S
C36 O37 1.258 . S
C36 O38 1.263 . S
O37 Co34 1.970 . S
O37 C36 1.258 . S
O38 Co35 1.966 . S
O38 C36 1.263 . S
C39 O40 1.235 . S
C39 O66 1.289 . S
O40 C39 1.235 . S
C41 C43 1.400 . S
C41 N44 1.351 . S
C41 C46 1.501 . S
C42 C43 1.387 . S
C42 N45 1.341 . S
C43 C41 1.400 . S
C43 C42 1.387 . S
N44 Co35 2.022 . S
N44 C41 1.351 . S
N44 N45 1.365 . S
N45 C42 1.341 . S
N45 N44 1.365 . S
N45 H65 0.862 . S
C46 C41 1.501 . S
C46 H47 0.961 . S
C46 H48 0.961 . S
C46 H49 0.960 . S
H47 C46 0.961 . S
H48 C46 0.961 . S
H49 C46 0.960 . S
C50 N51 1.342 . S
C50 C54 1.401 . S
C50 C55 1.499 . S
N51 Co34 1.989 . S
N51 C50 1.342 . S
N51 N52 1.388 . S
N52 Co35 1.993 . S
N52 N51 1.388 . S
N52 C53 1.346 . S
C53 N52 1.346 . S
C53 C54 1.396 . S
C53 C63 1.510 . S
C54 C50 1.401 . S
C54 C53 1.396 . S
C55 C50 1.499 . S
C55 H56 0.959 . S
C55 H57 0.960 . S
C55 H58 0.961 . S
H56 C55 0.959 . S
H57 C55 0.960 . S
H58 C55 0.961 . S
O59 Co34 1.967 . S
O59 C67 1.258 . S
O60 Co35 1.941 . S
O60 C67 1.266 . S
H61 C63 0.959 . S
H62 C63 0.961 . S
C63 C53 1.510 . S
C63 H61 0.959 . S
C63 H62 0.961 . S
C63 H64 0.960 . S
H64 C63 0.960 . S
H65 N45 0.862 . S
O66 Co34 1.920 . S
O66 C39 1.289 . S
C67 O59 1.258 . S
C67 O60 1.266 . S
Co68 O71 1.970 . S
Co68 N85 1.989 . S
Co68 O93 1.967 . S
Co68 O100 1.920 . S
Co69 O72 1.966 . S
Co69 N78 2.022 . S
Co69 N86 1.993 . S
Co69 O94 1.941 . S
C70 O71 1.258 . S
C70 O72 1.263 . S
O71 Co68 1.970 . S
O71 C70 1.258 . S
O72 Co69 1.966 . S
O72 C70 1.263 . S
C73 O74 1.235 . S
C73 O100 1.289 . S
O74 C73 1.235 . S
C75 C77 1.400 . S
C75 N78 1.351 . S
C75 C80 1.501 . S
C76 C77 1.387 1_545 S
C76 N79 1.341 1_545 S
C77 C75 1.400 . S
C77 C76 1.387 1_565 S
N78 Co69 2.022 . S
N78 C75 1.351 . S
N78 N79 1.365 . S
N79 C76 1.341 1_565 S
N79 N78 1.365 . S
N79 H99 0.862 . S
C80 C75 1.501 . S
C80 H81 0.961 . S
C80 H82 0.961 . S
C80 H83 0.960 . S
H81 C80 0.961 . S
H82 C80 0.961 . S
H83 C80 0.960 . S
C84 N85 1.342 . S
C84 C88 1.401 . S
C84 C89 1.499 . S
N85 Co68 1.989 . S
N85 C84 1.342 . S
N85 N86 1.388 . S
N86 Co69 1.993 . S
N86 N85 1.388 . S
N86 C87 1.346 . S
C87 N86 1.346 . S
C87 C88 1.396 . S
C87 C97 1.510 . S
C88 C84 1.401 . S
C88 C87 1.396 . S
C89 C84 1.499 . S
C89 H90 0.959 . S
C89 H91 0.960 . S
C89 H92 0.961 . S
H90 C89 0.959 . S
H91 C89 0.960 . S
H92 C89 0.961 . S
O93 Co68 1.967 . S
O93 C101 1.258 . S
O94 Co69 1.941 . S
O94 C101 1.266 . S
H95 C97 0.959 . S
H96 C97 0.961 . S
C97 C87 1.510 . S
C97 H95 0.959 . S
C97 H96 0.961 . S
C97 H98 0.960 . S
H98 C97 0.960 . S
H99 N79 0.862 . S
O100 Co68 1.920 . S
O100 C73 1.289 . S
C101 O93 1.258 . S
C101 O94 1.266 . S
Co102 O105 1.970 . S
Co102 N119 1.989 . S
Co102 O127 1.967 . S
Co102 O134 1.920 . S
Co103 O106 1.966 . S
Co103 N112 2.022 . S
Co103 N120 1.993 . S
Co103 O128 1.941 . S
C104 O105 1.258 . S
C104 O106 1.263 . S
O105 Co102 1.970 . S
O105 C104 1.258 . S
O106 Co103 1.966 . S
O106 C104 1.263 . S
C107 O108 1.235 . S
C107 O134 1.289 . S
O108 C107 1.235 . S
C109 C111 1.400 . S
C109 N112 1.351 . S
C109 C114 1.501 . S
C110 C111 1.387 . S
C110 N113 1.341 . S
C111 C109 1.400 . S
C111 C110 1.387 . S
N112 Co103 2.022 . S
N112 C109 1.351 . S
N112 N113 1.365 . S
N113 C110 1.341 . S
N113 N112 1.365 . S
N113 H133 0.862 . S
C114 C109 1.501 . S
C114 H115 0.961 . S
C114 H116 0.961 . S
C114 H117 0.960 . S
H115 C114 0.961 . S
H116 C114 0.961 . S
H117 C114 0.960 . S
C118 N119 1.342 . S
C118 C122 1.401 . S
C118 C123 1.499 . S
N119 Co102 1.989 . S
N119 C118 1.342 . S
N119 N120 1.388 . S
N120 Co103 1.993 . S
N120 N119 1.388 . S
N120 C121 1.346 . S
C121 N120 1.346 . S
C121 C122 1.396 . S
C121 C131 1.510 . S
C122 C118 1.401 . S
C122 C121 1.396 . S
C123 C118 1.499 . S
C123 H124 0.959 . S
C123 H125 0.960 . S
C123 H126 0.961 . S
H124 C123 0.959 . S
H125 C123 0.960 . S
H126 C123 0.961 . S
O127 Co102 1.967 . S
O127 C135 1.258 . S
O128 Co103 1.941 . S
O128 C135 1.266 . S
H129 C131 0.959 . S
H130 C131 0.961 . S
C131 C121 1.510 . S
C131 H129 0.959 . S
C131 H130 0.961 . S
C131 H132 0.960 . S
H132 C131 0.960 . S
H133 N113 0.862 . S
O134 Co102 1.920 . S
O134 C107 1.289 . S
C135 O127 1.258 . S
C135 O128 1.266 . S
Co136 O139 1.970 . S
Co136 N153 1.989 . S
Co136 O161 1.967 . S
Co136 O168 1.920 . S
Co137 O140 1.966 . S
Co137 N146 2.022 . S
Co137 N154 1.993 . S
Co137 O162 1.941 . S
C138 O139 1.258 . S
C138 O140 1.263 . S
O139 Co136 1.970 . S
O139 C138 1.258 . S
O140 Co137 1.966 . S
O140 C138 1.263 . S
C141 O142 1.235 . S
C141 O168 1.289 . S
O142 C141 1.235 . S
C143 C145 1.400 . S
C143 N146 1.351 . S
C143 C148 1.501 . S
C144 C145 1.387 1_545 S
C144 N147 1.341 1_545 S
C145 C143 1.400 . S
C145 C144 1.387 1_565 S
N146 Co137 2.022 . S
N146 C143 1.351 . S
N146 N147 1.365 . S
N147 C144 1.341 1_565 S
N147 N146 1.365 . S
N147 H167 0.862 . S
C148 C143 1.501 . S
C148 H149 0.961 . S
C148 H150 0.961 . S
C148 H151 0.960 . S
H149 C148 0.961 . S
H150 C148 0.961 . S
H151 C148 0.960 . S
C152 N153 1.342 . S
C152 C156 1.401 . S
C152 C157 1.499 . S
N153 Co136 1.989 . S
N153 C152 1.342 . S
N153 N154 1.388 . S
N154 Co137 1.993 . S
N154 N153 1.388 . S
N154 C155 1.346 . S
C155 N154 1.346 . S
C155 C156 1.396 . S
C155 C165 1.510 . S
C156 C152 1.401 . S
C156 C155 1.396 . S
C157 C152 1.499 . S
C157 H158 0.959 . S
C157 H159 0.960 . S
C157 H160 0.961 . S
H158 C157 0.959 . S
H159 C157 0.960 . S
H160 C157 0.961 . S
O161 Co136 1.967 . S
O161 C169 1.258 . S
O162 Co137 1.941 . S
O162 C169 1.266 . S
H163 C165 0.959 . S
H164 C165 0.961 . S
C165 C155 1.510 . S
C165 H163 0.959 . S
C165 H164 0.961 . S
C165 H166 0.960 . S
H166 C165 0.960 . S
H167 N147 0.862 . S
O168 Co136 1.920 . S
O168 C141 1.289 . S
C169 O161 1.258 . S
C169 O162 1.266 . S
Co170 O173 1.970 . S
Co170 N187 1.989 . S
Co170 O195 1.967 . S
Co170 O202 1.920 . S
Co171 O174 1.966 . S
Co171 N180 2.022 . S
Co171 N188 1.993 . S
Co171 O196 1.941 . S
C172 O173 1.258 . S
C172 O174 1.263 . S
O173 Co170 1.970 . S
O173 C172 1.258 . S
O174 Co171 1.966 . S
O174 C172 1.263 . S
C175 O176 1.235 . S
C175 O202 1.289 . S
O176 C175 1.235 . S
C177 C179 1.400 . S
C177 N180 1.351 . S
C177 C182 1.501 . S
C178 C179 1.387 . S
C178 N181 1.341 . S
C179 C177 1.400 . S
C179 C178 1.387 . S
N180 Co171 2.022 . S
N180 C177 1.351 . S
N180 N181 1.365 . S
N181 C178 1.341 . S
N181 N180 1.365 . S
N181 H201 0.862 . S
C182 C177 1.501 . S
C182 H183 0.961 . S
C182 H184 0.961 . S
C182 H185 0.960 . S
H183 C182 0.961 . S
H184 C182 0.961 . S
H185 C182 0.960 . S
C186 N187 1.342 . S
C186 C190 1.401 . S
C186 C191 1.499 . S
N187 Co170 1.989 . S
N187 C186 1.342 . S
N187 N188 1.388 . S
N188 Co171 1.993 . S
N188 N187 1.388 . S
N188 C189 1.346 . S
C189 N188 1.346 . S
C189 C190 1.396 . S
C189 C199 1.510 . S
C190 C186 1.401 . S
C190 C189 1.396 . S
C191 C186 1.499 . S
C191 H192 0.959 . S
C191 H193 0.960 . S
C191 H194 0.961 . S
H192 C191 0.959 . S
H193 C191 0.960 . S
H194 C191 0.961 . S
O195 Co170 1.967 . S
O195 C203 1.258 . S
O196 Co171 1.941 . S
O196 C203 1.266 . S
H197 C199 0.959 . S
H198 C199 0.961 . S
C199 C189 1.510 . S
C199 H197 0.959 . S
C199 H198 0.961 . S
C199 H200 0.960 . S
H200 C199 0.960 . S
H201 N181 0.862 . S
O202 Co170 1.920 . S
O202 C175 1.289 . S
C203 O195 1.258 . S
C203 O196 1.266 . S
Co204 O207 1.970 . S
Co204 N221 1.989 . S
Co204 O229 1.967 . S
Co204 O236 1.920 . S
Co205 O208 1.966 . S
Co205 N214 2.022 . S
Co205 N222 1.993 . S
Co205 O230 1.941 . S
C206 O207 1.258 . S
C206 O208 1.263 . S
O207 Co204 1.970 . S
O207 C206 1.258 . S
O208 Co205 1.966 . S
O208 C206 1.263 . S
C209 O210 1.235 . S
C209 O236 1.289 . S
O210 C209 1.235 . S
C211 C213 1.400 . S
C211 N214 1.351 . S
C211 C216 1.501 . S
C212 C213 1.387 1_565 S
C212 N215 1.341 1_565 S
C213 C211 1.400 . S
C213 C212 1.387 1_545 S
N214 Co205 2.022 . S
N214 C211 1.351 . S
N214 N215 1.365 . S
N215 C212 1.341 1_545 S
N215 N214 1.365 . S
N215 H235 0.862 . S
C216 C211 1.501 . S
C216 H217 0.961 . S
C216 H218 0.961 . S
C216 H219 0.960 . S
H217 C216 0.961 . S
H218 C216 0.961 . S
H219 C216 0.960 . S
C220 N221 1.342 . S
C220 C224 1.401 . S
C220 C225 1.499 . S
N221 Co204 1.989 . S
N221 C220 1.342 . S
N221 N222 1.388 . S
N222 Co205 1.993 . S
N222 N221 1.388 . S
N222 C223 1.346 . S
C223 N222 1.346 . S
C223 C224 1.396 . S
C223 C233 1.510 . S
C224 C220 1.401 . S
C224 C223 1.396 . S
C225 C220 1.499 . S
C225 H226 0.959 . S
C225 H227 0.960 . S
C225 H228 0.961 . S
H226 C225 0.959 . S
H227 C225 0.960 . S
H228 C225 0.961 . S
O229 Co204 1.967 . S
O229 C237 1.258 . S
O230 Co205 1.941 . S
O230 C237 1.266 . S
H231 C233 0.959 . S
H232 C233 0.961 . S
C233 C223 1.510 . S
C233 H231 0.959 . S
C233 H232 0.961 . S
C233 H234 0.960 . S
H234 C233 0.960 . S
H235 N215 0.862 . S
O236 Co204 1.920 . S
O236 C209 1.289 . S
C237 O229 1.258 . S
C237 O230 1.266 . S
Co238 O241 1.970 . S
Co238 N255 1.989 . S
Co238 O263 1.967 . S
Co238 O270 1.920 . S
Co239 O242 1.966 . S
Co239 N248 2.022 . S
Co239 N256 1.993 . S
Co239 O264 1.941 . S
C240 O241 1.258 . S
C240 O242 1.263 . S
O241 Co238 1.970 . S
O241 C240 1.258 . S
O242 Co239 1.966 . S
O242 C240 1.263 . S
C243 O244 1.235 . S
C243 O270 1.289 . S
O244 C243 1.235 . S
C245 C247 1.400 . S
C245 N248 1.351 . S
C245 C250 1.501 . S
C246 C247 1.387 . S
C246 N249 1.341 . S
C247 C245 1.400 . S
C247 C246 1.387 . S
N248 Co239 2.022 . S
N248 C245 1.351 . S
N248 N249 1.365 . S
N249 C246 1.341 . S
N249 N248 1.365 . S
N249 H269 0.862 . S
C250 C245 1.501 . S
C250 H251 0.961 . S
C250 H252 0.961 . S
C250 H253 0.960 . S
H251 C250 0.961 . S
H252 C250 0.961 . S
H253 C250 0.960 . S
C254 N255 1.342 . S
C254 C258 1.401 . S
C254 C259 1.499 . S
N255 Co238 1.989 . S
N255 C254 1.342 . S
N255 N256 1.388 . S
N256 Co239 1.993 . S
N256 N255 1.388 . S
N256 C257 1.346 . S
C257 N256 1.346 . S
C257 C258 1.396 . S
C257 C267 1.510 . S
C258 C254 1.401 . S
C258 C257 1.396 . S
C259 C254 1.499 . S
C259 H260 0.959 . S
C259 H261 0.960 . S
C259 H262 0.961 . S
H260 C259 0.959 . S
H261 C259 0.960 . S
H262 C259 0.961 . S
O263 Co238 1.967 . S
O263 C271 1.258 . S
O264 Co239 1.941 . S
O264 C271 1.266 . S
H265 C267 0.959 . S
H266 C267 0.961 . S
C267 C257 1.510 . S
C267 H265 0.959 . S
C267 H266 0.961 . S
C267 H268 0.960 . S
H268 C267 0.960 . S
H269 N249 0.862 . S
O270 Co238 1.920 . S
O270 C243 1.289 . S
C271 O263 1.258 . S
C271 O264 1.266 . S
Co272 O275 1.970 . S
Co272 N289 1.989 . S
Co272 O297 1.967 . S
Co272 O304 1.920 . S
Co273 O276 1.966 . S
Co273 N282 2.022 . S
Co273 N290 1.993 . S
Co273 O298 1.941 . S
C274 O275 1.258 . S
C274 O276 1.263 . S
O275 Co272 1.970 . S
O275 C274 1.258 . S
O276 Co273 1.966 . S
O276 C274 1.263 . S
C277 O278 1.235 . S
C277 O304 1.289 . S
O278 C277 1.235 . S
C279 C281 1.400 . S
C279 N282 1.351 . S
C279 C284 1.501 . S
C280 C281 1.387 1_545 S
C280 N283 1.341 1_545 S
C281 C279 1.400 . S
C281 C280 1.387 1_565 S
N282 Co273 2.022 . S
N282 C279 1.351 . S
N282 N283 1.365 . S
N283 C280 1.341 1_565 S
N283 N282 1.365 . S
N283 H303 0.862 . S
C284 C279 1.501 . S
C284 H285 0.961 . S
C284 H286 0.961 . S
C284 H287 0.960 . S
H285 C284 0.961 . S
H286 C284 0.961 . S
H287 C284 0.960 . S
C288 N289 1.342 . S
C288 C292 1.401 . S
C288 C293 1.499 . S
N289 Co272 1.989 . S
N289 C288 1.342 . S
N289 N290 1.388 . S
N290 Co273 1.993 . S
N290 N289 1.388 . S
N290 C291 1.346 . S
C291 N290 1.346 . S
C291 C292 1.396 . S
C291 C301 1.510 . S
C292 C288 1.401 . S
C292 C291 1.396 . S
C293 C288 1.499 . S
C293 H294 0.959 . S
C293 H295 0.960 . S
C293 H296 0.961 . S
H294 C293 0.959 . S
H295 C293 0.960 . S
H296 C293 0.961 . S
O297 Co272 1.967 . S
O297 C305 1.258 . S
O298 Co273 1.941 . S
O298 C305 1.266 . S
H299 C301 0.959 . S
H300 C301 0.961 . S
C301 C291 1.510 . S
C301 H299 0.959 . S
C301 H300 0.961 . S
C301 H302 0.960 . S
H302 C301 0.960 . S
H303 N283 0.862 . S
O304 Co272 1.920 . S
O304 C277 1.289 . S
C305 O297 1.258 . S
C305 O298 1.266 . S
Co306 O309 1.970 . S
Co306 N323 1.989 . S
Co306 O331 1.967 . S
Co306 O338 1.920 . S
Co307 O310 1.966 . S
Co307 N316 2.022 . S
Co307 N324 1.993 . S
Co307 O332 1.941 . S
C308 O309 1.258 . S
C308 O310 1.263 . S
O309 Co306 1.970 . S
O309 C308 1.258 . S
O310 Co307 1.966 . S
O310 C308 1.263 . S
C311 O312 1.235 . S
C311 O338 1.289 . S
O312 C311 1.235 . S
C313 C315 1.400 . S
C313 N316 1.351 . S
C313 C318 1.501 . S
C314 C315 1.387 . S
C314 N317 1.341 . S
C315 C313 1.400 . S
C315 C314 1.387 . S
N316 Co307 2.022 . S
N316 C313 1.351 . S
N316 N317 1.365 . S
N317 C314 1.341 . S
N317 N316 1.365 . S
N317 H337 0.862 . S
C318 C313 1.501 . S
C318 H319 0.961 . S
C318 H320 0.961 . S
C318 H321 0.960 . S
H319 C318 0.961 . S
H320 C318 0.961 . S
H321 C318 0.960 . S
C322 N323 1.342 . S
C322 C326 1.401 . S
C322 C327 1.499 . S
N323 Co306 1.989 . S
N323 C322 1.342 . S
N323 N324 1.388 . S
N324 Co307 1.993 . S
N324 N323 1.388 . S
N324 C325 1.346 . S
C325 N324 1.346 . S
C325 C326 1.396 . S
C325 C335 1.510 . S
C326 C322 1.401 . S
C326 C325 1.396 . S
C327 C322 1.499 . S
C327 H328 0.959 . S
C327 H329 0.960 . S
C327 H330 0.961 . S
H328 C327 0.959 . S
H329 C327 0.960 . S
H330 C327 0.961 . S
O331 Co306 1.967 . S
O331 C339 1.258 . S
O332 Co307 1.941 . S
O332 C339 1.266 . S
H333 C335 0.959 . S
H334 C335 0.961 . S
C335 C325 1.510 . S
C335 H333 0.959 . S
C335 H334 0.961 . S
C335 H336 0.960 . S
H336 C335 0.960 . S
H337 N317 0.862 . S
O338 Co306 1.920 . S
O338 C311 1.289 . S
C339 O331 1.258 . S
C339 O332 1.266 . S
Co340 O343 1.970 . S
Co340 N357 1.989 . S
Co340 O365 1.967 . S
Co340 O372 1.920 . S
Co341 O344 1.966 . S
Co341 N350 2.022 . S
Co341 N358 1.993 . S
Co341 O366 1.941 . S
C342 O343 1.258 . S
C342 O344 1.263 . S
O343 Co340 1.970 . S
O343 C342 1.258 . S
O344 Co341 1.966 . S
O344 C342 1.263 . S
C345 O346 1.235 . S
C345 O372 1.289 . S
O346 C345 1.235 . S
C347 C349 1.400 . S
C347 N350 1.351 . S
C347 C352 1.501 . S
C348 C349 1.387 1_565 S
C348 N351 1.341 1_565 S
C349 C347 1.400 . S
C349 C348 1.387 1_545 S
N350 Co341 2.022 . S
N350 C347 1.351 . S
N350 N351 1.365 . S
N351 C348 1.341 1_545 S
N351 N350 1.365 . S
N351 H371 0.862 . S
C352 C347 1.501 . S
C352 H353 0.961 . S
C352 H354 0.961 . S
C352 H355 0.960 . S
H353 C352 0.961 . S
H354 C352 0.961 . S
H355 C352 0.960 . S
C356 N357 1.342 . S
C356 C360 1.401 . S
C356 C361 1.499 . S
N357 Co340 1.989 . S
N357 C356 1.342 . S
N357 N358 1.388 . S
N358 Co341 1.993 . S
N358 N357 1.388 . S
N358 C359 1.346 . S
C359 N358 1.346 . S
C359 C360 1.396 . S
C359 C369 1.510 . S
C360 C356 1.401 . S
C360 C359 1.396 . S
C361 C356 1.499 . S
C361 H362 0.959 . S
C361 H363 0.960 . S
C361 H364 0.961 . S
H362 C361 0.959 . S
H363 C361 0.960 . S
H364 C361 0.961 . S
O365 Co340 1.967 . S
O365 C373 1.258 . S
O366 Co341 1.941 . S
O366 C373 1.266 . S
H367 C369 0.959 . S
H368 C369 0.961 . S
C369 C359 1.510 . S
C369 H367 0.959 . S
C369 H368 0.961 . S
C369 H370 0.960 . S
H370 C369 0.960 . S
H371 N351 0.862 . S
O372 Co340 1.920 . S
O372 C345 1.289 . S
C373 O365 1.258 . S
C373 O366 1.266 . S
Co374 O377 1.970 . S
Co374 N391 1.989 . S
Co374 O399 1.967 . S
Co374 O406 1.920 . S
Co375 O378 1.966 . S
Co375 N384 2.022 . S
Co375 N392 1.993 . S
Co375 O400 1.941 . S
C376 O377 1.258 . S
C376 O378 1.263 . S
O377 Co374 1.970 . S
O377 C376 1.258 . S
O378 Co375 1.966 . S
O378 C376 1.263 . S
C379 O380 1.235 . S
C379 O406 1.289 . S
O380 C379 1.235 . S
C381 C383 1.400 . S
C381 N384 1.351 . S
C381 C386 1.501 . S
C382 C383 1.387 . S
C382 N385 1.341 . S
C383 C381 1.400 . S
C383 C382 1.387 . S
N384 Co375 2.022 . S
N384 C381 1.351 . S
N384 N385 1.365 . S
N385 C382 1.341 . S
N385 N384 1.365 . S
N385 H405 0.862 . S
C386 C381 1.501 . S
C386 H387 0.961 . S
C386 H388 0.961 . S
C386 H389 0.960 . S
H387 C386 0.961 . S
H388 C386 0.961 . S
H389 C386 0.960 . S
C390 N391 1.342 . S
C390 C394 1.401 . S
C390 C395 1.499 . S
N391 Co374 1.989 . S
N391 C390 1.342 . S
N391 N392 1.388 . S
N392 Co375 1.993 . S
N392 N391 1.388 . S
N392 C393 1.346 . S
C393 N392 1.346 . S
C393 C394 1.396 . S
C393 C403 1.510 . S
C394 C390 1.401 . S
C394 C393 1.396 . S
C395 C390 1.499 . S
C395 H396 0.959 . S
C395 H397 0.960 . S
C395 H398 0.961 . S
H396 C395 0.959 . S
H397 C395 0.960 . S
H398 C395 0.961 . S
O399 Co374 1.967 . S
O399 C407 1.258 . S
O400 Co375 1.941 . S
O400 C407 1.266 . S
H401 C403 0.959 . S
H402 C403 0.961 . S
C403 C393 1.510 . S
C403 H401 0.959 . S
C403 H402 0.961 . S
C403 H404 0.960 . S
H404 C403 0.960 . S
H405 N385 0.862 . S
O406 Co374 1.920 . S
O406 C379 1.289 . S
C407 O399 1.258 . S
C407 O400 1.266 . S
Co408 O411 1.970 . S
Co408 N425 1.989 . S
Co408 O433 1.967 . S
Co408 O440 1.920 . S
Co409 O412 1.966 . S
Co409 N418 2.022 . S
Co409 N426 1.993 . S
Co409 O434 1.941 . S
C410 O411 1.258 . S
C410 O412 1.263 . S
O411 Co408 1.970 . S
O411 C410 1.258 . S
O412 Co409 1.966 . S
O412 C410 1.263 . S
C413 O414 1.235 . S
C413 O440 1.289 . S
O414 C413 1.235 . S
C415 C417 1.400 . S
C415 N418 1.351 . S
C415 C420 1.501 . S
C416 C417 1.387 1_565 S
C416 N419 1.341 1_565 S
C417 C415 1.400 . S
C417 C416 1.387 1_545 S
N418 Co409 2.022 . S
N418 C415 1.351 . S
N418 N419 1.365 . S
N419 C416 1.341 1_545 S
N419 N418 1.365 . S
N419 H439 0.862 . S
C420 C415 1.501 . S
C420 H421 0.961 . S
C420 H422 0.961 . S
C420 H423 0.960 . S
H421 C420 0.961 . S
H422 C420 0.961 . S
H423 C420 0.960 . S
C424 N425 1.342 . S
C424 C428 1.401 . S
C424 C429 1.499 . S
N425 Co408 1.989 . S
N425 C424 1.342 . S
N425 N426 1.388 . S
N426 Co409 1.993 . S
N426 N425 1.388 . S
N426 C427 1.346 . S
C427 N426 1.346 . S
C427 C428 1.396 . S
C427 C437 1.510 . S
C428 C424 1.401 . S
C428 C427 1.396 . S
C429 C424 1.499 . S
C429 H430 0.959 . S
C429 H431 0.960 . S
C429 H432 0.961 . S
H430 C429 0.959 . S
H431 C429 0.960 . S
H432 C429 0.961 . S
O433 Co408 1.967 . S
O433 C441 1.258 . S
O434 Co409 1.941 . S
O434 C441 1.266 . S
H435 C437 0.959 . S
H436 C437 0.961 . S
C437 C427 1.510 . S
C437 H435 0.959 . S
C437 H436 0.961 . S
C437 H438 0.960 . S
H438 C437 0.960 . S
H439 N419 0.862 . S
O440 Co408 1.920 . S
O440 C413 1.289 . S
C441 O433 1.258 . S
C441 O434 1.266 . S
Co442 O445 1.970 . S
Co442 N459 1.989 . S
Co442 O467 1.967 . S
Co442 O474 1.920 . S
Co443 O446 1.966 . S
Co443 N452 2.022 . S
Co443 N460 1.993 . S
Co443 O468 1.941 . S
C444 O445 1.258 . S
C444 O446 1.263 . S
O445 Co442 1.970 . S
O445 C444 1.258 . S
O446 Co443 1.966 . S
O446 C444 1.263 . S
C447 O448 1.235 . S
C447 O474 1.289 . S
O448 C447 1.235 . S
C449 C451 1.400 . S
C449 N452 1.351 . S
C449 C454 1.501 . S
C450 C451 1.387 . S
C450 N453 1.341 . S
C451 C449 1.400 . S
C451 C450 1.387 . S
N452 Co443 2.022 . S
N452 C449 1.351 . S
N452 N453 1.365 . S
N453 C450 1.341 . S
N453 N452 1.365 . S
N453 H473 0.862 . S
C454 C449 1.501 . S
C454 H455 0.961 . S
C454 H456 0.961 . S
C454 H457 0.960 . S
H455 C454 0.961 . S
H456 C454 0.961 . S
H457 C454 0.960 . S
C458 N459 1.342 . S
C458 C462 1.401 . S
C458 C463 1.499 . S
N459 Co442 1.989 . S
N459 C458 1.342 . S
N459 N460 1.388 . S
N460 Co443 1.993 . S
N460 N459 1.388 . S
N460 C461 1.346 . S
C461 N460 1.346 . S
C461 C462 1.396 . S
C461 C471 1.510 . S
C462 C458 1.401 . S
C462 C461 1.396 . S
C463 C458 1.499 . S
C463 H464 0.959 . S
C463 H465 0.960 . S
C463 H466 0.961 . S
H464 C463 0.959 . S
H465 C463 0.960 . S
H466 C463 0.961 . S
O467 Co442 1.967 . S
O467 C475 1.258 . S
O468 Co443 1.941 . S
O468 C475 1.266 . S
H469 C471 0.959 . S
H470 C471 0.961 . S
C471 C461 1.510 . S
C471 H469 0.959 . S
C471 H470 0.961 . S
C471 H472 0.960 . S
H472 C471 0.960 . S
H473 N453 0.862 . S
O474 Co442 1.920 . S
O474 C447 1.289 . S
C475 O467 1.258 . S
C475 O468 1.266 . S
Co476 O479 1.970 . S
Co476 N493 1.989 . S
Co476 O501 1.967 . S
Co476 O508 1.920 . S
Co477 O480 1.966 . S
Co477 N486 2.022 . S
Co477 N494 1.993 . S
Co477 O502 1.941 . S
C478 O479 1.258 . S
C478 O480 1.263 . S
O479 Co476 1.970 . S
O479 C478 1.258 . S
O480 Co477 1.966 . S
O480 C478 1.263 . S
C481 O482 1.235 . S
C481 O508 1.289 . S
O482 C481 1.235 . S
C483 C485 1.400 . S
C483 N486 1.351 . S
C483 C488 1.501 . S
C484 C485 1.387 1_545 S
C484 N487 1.341 1_545 S
C485 C483 1.400 . S
C485 C484 1.387 1_565 S
N486 Co477 2.022 . S
N486 C483 1.351 . S
N486 N487 1.365 . S
N487 C484 1.341 1_565 S
N487 N486 1.365 . S
N487 H507 0.862 . S
C488 C483 1.501 . S
C488 H489 0.961 . S
C488 H490 0.961 . S
C488 H491 0.960 . S
H489 C488 0.961 . S
H490 C488 0.961 . S
H491 C488 0.960 . S
C492 N493 1.342 . S
C492 C496 1.401 . S
C492 C497 1.499 . S
N493 Co476 1.989 . S
N493 C492 1.342 . S
N493 N494 1.388 . S
N494 Co477 1.993 . S
N494 N493 1.388 . S
N494 C495 1.346 . S
C495 N494 1.346 . S
C495 C496 1.396 . S
C495 C505 1.510 . S
C496 C492 1.401 . S
C496 C495 1.396 . S
C497 C492 1.499 . S
C497 H498 0.959 . S
C497 H499 0.960 . S
C497 H500 0.961 . S
H498 C497 0.959 . S
H499 C497 0.960 . S
H500 C497 0.961 . S
O501 Co476 1.967 . S
O501 C509 1.258 . S
O502 Co477 1.941 . S
O502 C509 1.266 . S
H503 C505 0.959 . S
H504 C505 0.961 . S
C505 C495 1.510 . S
C505 H503 0.959 . S
C505 H504 0.961 . S
C505 H506 0.960 . S
H506 C505 0.960 . S
H507 N487 0.862 . S
O508 Co476 1.920 . S
O508 C481 1.289 . S
C509 O501 1.258 . S
C509 O502 1.266 . S
Co510 O513 1.970 . S
Co510 N527 1.989 . S
Co510 O535 1.967 . S
Co510 O542 1.920 . S
Co511 O514 1.966 . S
Co511 N520 2.022 . S
Co511 N528 1.993 . S
Co511 O536 1.941 . S
C512 O513 1.258 . S
C512 O514 1.263 . S
O513 Co510 1.970 . S
O513 C512 1.258 . S
O514 Co511 1.966 . S
O514 C512 1.263 . S
C515 O516 1.235 . S
C515 O542 1.289 . S
O516 C515 1.235 . S
C517 C519 1.400 . S
C517 N520 1.351 . S
C517 C522 1.501 . S
C518 C519 1.387 . S
C518 N521 1.341 . S
C519 C517 1.400 . S
C519 C518 1.387 . S
N520 Co511 2.022 . S
N520 C517 1.351 . S
N520 N521 1.365 . S
N521 C518 1.341 . S
N521 N520 1.365 . S
N521 H541 0.862 . S
C522 C517 1.501 . S
C522 H523 0.961 . S
C522 H524 0.961 . S
C522 H525 0.960 . S
H523 C522 0.961 . S
H524 C522 0.961 . S
H525 C522 0.960 . S
C526 N527 1.342 . S
C526 C530 1.401 . S
C526 C531 1.499 . S
N527 Co510 1.989 . S
N527 C526 1.342 . S
N527 N528 1.388 . S
N528 Co511 1.993 . S
N528 N527 1.388 . S
N528 C529 1.346 . S
C529 N528 1.346 . S
C529 C530 1.396 . S
C529 C539 1.510 . S
C530 C526 1.401 . S
C530 C529 1.396 . S
C531 C526 1.499 . S
C531 H532 0.959 . S
C531 H533 0.960 . S
C531 H534 0.961 . S
H532 C531 0.959 . S
H533 C531 0.960 . S
H534 C531 0.961 . S
O535 Co510 1.967 . S
O535 C543 1.258 . S
O536 Co511 1.941 . S
O536 C543 1.266 . S
H537 C539 0.959 . S
H538 C539 0.961 . S
C539 C529 1.510 . S
C539 H537 0.959 . S
C539 H538 0.961 . S
C539 H540 0.960 . S
H540 C539 0.960 . S
H541 N521 0.862 . S
O542 Co510 1.920 . S
O542 C515 1.289 . S
C543 O535 1.258 . S
C543 O536 1.266 . S
Co544 O547 1.970 . S
Co544 N561 1.989 . S
Co544 O569 1.967 . S
Co544 O576 1.920 . S
Co545 O548 1.966 . S
Co545 N554 2.022 . S
Co545 N562 1.993 . S
Co545 O570 1.941 . S
C546 O547 1.258 . S
C546 O548 1.263 . S
O547 Co544 1.970 . S
O547 C546 1.258 . S
O548 Co545 1.966 . S
O548 C546 1.263 . S
C549 O550 1.235 . S
C549 O576 1.289 . S
O550 C549 1.235 . S
C551 C553 1.400 . S
C551 N554 1.351 . S
C551 C556 1.501 . S
C552 C553 1.387 . S
C552 N555 1.341 . S
C553 C551 1.400 . S
C553 C552 1.387 . S
N554 Co545 2.022 . S
N554 C551 1.351 . S
N554 N555 1.365 . S
N555 C552 1.341 . S
N555 N554 1.365 . S
N555 H575 0.862 . S
C556 C551 1.501 . S
C556 H557 0.961 . S
C556 H558 0.961 . S
C556 H559 0.960 . S
H557 C556 0.961 . S
H558 C556 0.961 . S
H559 C556 0.960 . S
C560 N561 1.342 . S
C560 C564 1.401 . S
C560 C565 1.499 . S
N561 Co544 1.989 . S
N561 C560 1.342 . S
N561 N562 1.388 . S
N562 Co545 1.993 . S
N562 N561 1.388 . S
N562 C563 1.346 . S
C563 N562 1.346 . S
C563 C564 1.396 . S
C563 C573 1.510 . S
C564 C560 1.401 . S
C564 C563 1.396 . S
C565 C560 1.499 . S
C565 H566 0.959 . S
C565 H567 0.960 . S
C565 H568 0.961 . S
H566 C565 0.959 . S
H567 C565 0.960 . S
H568 C565 0.961 . S
O569 Co544 1.967 . S
O569 C577 1.258 . S
O570 Co545 1.941 . S
O570 C577 1.266 . S
H571 C573 0.959 . S
H572 C573 0.961 . S
C573 C563 1.510 . S
C573 H571 0.959 . S
C573 H572 0.961 . S
C573 H574 0.960 . S
H574 C573 0.960 . S
H575 N555 0.862 . S
O576 Co544 1.920 . S
O576 C549 1.289 . S
C577 O569 1.258 . S
C577 O570 1.266 . S
Co578 O581 1.970 . S
Co578 N595 1.989 . S
Co578 O603 1.967 . S
Co578 O610 1.920 . S
Co579 O582 1.966 . S
Co579 N588 2.022 . S
Co579 N596 1.993 . S
Co579 O604 1.941 . S
C580 O581 1.258 . S
C580 O582 1.263 . S
O581 Co578 1.970 . S
O581 C580 1.258 . S
O582 Co579 1.966 . S
O582 C580 1.263 . S
C583 O584 1.235 . S
C583 O610 1.289 . S
O584 C583 1.235 . S
C585 C587 1.400 . S
C585 N588 1.351 . S
C585 C590 1.501 . S
C586 C587 1.387 . S
C586 N589 1.341 . S
C587 C585 1.400 . S
C587 C586 1.387 . S
N588 Co579 2.022 . S
N588 C585 1.351 . S
N588 N589 1.365 . S
N589 C586 1.341 . S
N589 N588 1.365 . S
N589 H609 0.862 . S
C590 C585 1.501 . S
C590 H591 0.961 . S
C590 H592 0.961 . S
C590 H593 0.960 . S
H591 C590 0.961 . S
H592 C590 0.961 . S
H593 C590 0.960 . S
C594 N595 1.342 . S
C594 C598 1.401 . S
C594 C599 1.499 . S
N595 Co578 1.989 . S
N595 C594 1.342 . S
N595 N596 1.388 . S
N596 Co579 1.993 . S
N596 N595 1.388 . S
N596 C597 1.346 . S
C597 N596 1.346 . S
C597 C598 1.396 . S
C597 C607 1.510 . S
C598 C594 1.401 . S
C598 C597 1.396 . S
C599 C594 1.499 . S
C599 H600 0.959 . S
C599 H601 0.960 . S
C599 H602 0.961 . S
H600 C599 0.959 . S
H601 C599 0.960 . S
H602 C599 0.961 . S
O603 Co578 1.967 . S
O603 C611 1.258 . S
O604 Co579 1.941 . S
O604 C611 1.266 . S
H605 C607 0.959 . S
H606 C607 0.961 . S
C607 C597 1.510 . S
C607 H605 0.959 . S
C607 H606 0.961 . S
C607 H608 0.960 . S
H608 C607 0.960 . S
H609 N589 0.862 . S
O610 Co578 1.920 . S
O610 C583 1.289 . S
C611 O603 1.258 . S
C611 O604 1.266 . S
Co612 O615 1.970 . S
Co612 N629 1.989 . S
Co612 O637 1.967 . S
Co612 O644 1.920 . S
Co613 O616 1.966 . S
Co613 N622 2.022 . S
Co613 N630 1.993 . S
Co613 O638 1.941 . S
C614 O615 1.258 . S
C614 O616 1.263 . S
O615 Co612 1.970 . S
O615 C614 1.258 . S
O616 Co613 1.966 . S
O616 C614 1.263 . S
C617 O618 1.235 . S
C617 O644 1.289 . S
O618 C617 1.235 . S
C619 C621 1.400 . S
C619 N622 1.351 . S
C619 C624 1.501 . S
C620 C621 1.387 . S
C620 N623 1.341 . S
C621 C619 1.400 . S
C621 C620 1.387 . S
N622 Co613 2.022 . S
N622 C619 1.351 . S
N622 N623 1.365 . S
N623 C620 1.341 . S
N623 N622 1.365 . S
N623 H643 0.862 . S
C624 C619 1.501 . S
C624 H625 0.961 . S
C624 H626 0.961 . S
C624 H627 0.960 . S
H625 C624 0.961 . S
H626 C624 0.961 . S
H627 C624 0.960 . S
C628 N629 1.342 . S
C628 C632 1.401 . S
C628 C633 1.499 . S
N629 Co612 1.989 . S
N629 C628 1.342 . S
N629 N630 1.388 . S
N630 Co613 1.993 . S
N630 N629 1.388 . S
N630 C631 1.346 . S
C631 N630 1.346 . S
C631 C632 1.396 . S
C631 C641 1.510 . S
C632 C628 1.401 . S
C632 C631 1.396 . S
C633 C628 1.499 . S
C633 H634 0.959 . S
C633 H635 0.960 . S
C633 H636 0.961 . S
H634 C633 0.959 . S
H635 C633 0.960 . S
H636 C633 0.961 . S
O637 Co612 1.967 . S
O637 C645 1.258 . S
O638 Co613 1.941 . S
O638 C645 1.266 . S
H639 C641 0.959 . S
H640 C641 0.961 . S
C641 C631 1.510 . S
C641 H639 0.959 . S
C641 H640 0.961 . S
C641 H642 0.960 . S
H642 C641 0.960 . S
H643 N623 0.862 . S
O644 Co612 1.920 . S
O644 C617 1.289 . S
C645 O637 1.258 . S
C645 O638 1.266 . S
Co646 O649 1.970 . S
Co646 N663 1.989 . S
Co646 O671 1.967 . S
Co646 O678 1.920 . S
Co647 O650 1.966 . S
Co647 N656 2.022 . S
Co647 N664 1.993 . S
Co647 O672 1.941 . S
C648 O649 1.258 . S
C648 O650 1.263 . S
O649 Co646 1.970 . S
O649 C648 1.258 . S
O650 Co647 1.966 . S
O650 C648 1.263 . S
C651 O652 1.235 . S
C651 O678 1.289 . S
O652 C651 1.235 . S
C653 C655 1.400 . S
C653 N656 1.351 . S
C653 C658 1.501 . S
C654 C655 1.387 . S
C654 N657 1.341 . S
C655 C653 1.400 . S
C655 C654 1.387 . S
N656 Co647 2.022 . S
N656 C653 1.351 . S
N656 N657 1.365 . S
N657 C654 1.341 . S
N657 N656 1.365 . S
N657 H677 0.862 . S
C658 C653 1.501 . S
C658 H659 0.961 . S
C658 H660 0.961 . S
C658 H661 0.960 . S
H659 C658 0.961 . S
H660 C658 0.961 . S
H661 C658 0.960 . S
C662 N663 1.342 . S
C662 C666 1.401 . S
C662 C667 1.499 . S
N663 Co646 1.989 . S
N663 C662 1.342 . S
N663 N664 1.388 . S
N664 Co647 1.993 . S
N664 N663 1.388 . S
N664 C665 1.346 . S
C665 N664 1.346 . S
C665 C666 1.396 . S
C665 C675 1.510 . S
C666 C662 1.401 . S
C666 C665 1.396 . S
C667 C662 1.499 . S
C667 H668 0.959 . S
C667 H669 0.960 . S
C667 H670 0.961 . S
H668 C667 0.959 . S
H669 C667 0.960 . S
H670 C667 0.961 . S
O671 Co646 1.967 . S
O671 C679 1.258 . S
O672 Co647 1.941 . S
O672 C679 1.266 . S
H673 C675 0.959 . S
H674 C675 0.961 . S
C675 C665 1.510 . S
C675 H673 0.959 . S
C675 H674 0.961 . S
C675 H676 0.960 . S
H676 C675 0.960 . S
H677 N657 0.862 . S
O678 Co646 1.920 . S
O678 C651 1.289 . S
C679 O671 1.258 . S
C679 O672 1.266 . S
Co680 O683 1.970 . S
Co680 N697 1.989 . S
Co680 O705 1.967 . S
Co680 O712 1.920 . S
Co681 O684 1.966 . S
Co681 N690 2.022 . S
Co681 N698 1.993 . S
Co681 O706 1.941 . S
C682 O683 1.258 . S
C682 O684 1.263 . S
O683 Co680 1.970 . S
O683 C682 1.258 . S
O684 Co681 1.966 . S
O684 C682 1.263 . S
C685 O686 1.235 . S
C685 O712 1.289 . S
O686 C685 1.235 . S
C687 C689 1.400 . S
C687 N690 1.351 . S
C687 C692 1.501 . S
C688 C689 1.387 . S
C688 N691 1.341 . S
C689 C687 1.400 . S
C689 C688 1.387 . S
N690 Co681 2.022 . S
N690 C687 1.351 . S
N690 N691 1.365 . S
N691 C688 1.341 . S
N691 N690 1.365 . S
N691 H711 0.862 . S
C692 C687 1.501 . S
C692 H693 0.961 . S
C692 H694 0.961 . S
C692 H695 0.960 . S
H693 C692 0.961 . S
H694 C692 0.961 . S
H695 C692 0.960 . S
C696 N697 1.342 . S
C696 C700 1.401 . S
C696 C701 1.499 . S
N697 Co680 1.989 . S
N697 C696 1.342 . S
N697 N698 1.388 . S
N698 Co681 1.993 . S
N698 N697 1.388 . S
N698 C699 1.346 . S
C699 N698 1.346 . S
C699 C700 1.396 . S
C699 C709 1.510 . S
C700 C696 1.401 . S
C700 C699 1.396 . S
C701 C696 1.499 . S
C701 H702 0.959 . S
C701 H703 0.960 . S
C701 H704 0.961 . S
H702 C701 0.959 . S
H703 C701 0.960 . S
H704 C701 0.961 . S
O705 Co680 1.967 . S
O705 C713 1.258 . S
O706 Co681 1.941 . S
O706 C713 1.266 . S
H707 C709 0.959 . S
H708 C709 0.961 . S
C709 C699 1.510 . S
C709 H707 0.959 . S
C709 H708 0.961 . S
C709 H710 0.960 . S
H710 C709 0.960 . S
H711 N691 0.862 . S
O712 Co680 1.920 . S
O712 C685 1.289 . S
C713 O705 1.258 . S
C713 O706 1.266 . S
Co714 O717 1.970 . S
Co714 N731 1.989 . S
Co714 O739 1.967 . S
Co714 O746 1.920 . S
Co715 O718 1.966 . S
Co715 N724 2.022 . S
Co715 N732 1.993 . S
Co715 O740 1.941 . S
C716 O717 1.258 . S
C716 O718 1.263 . S
O717 Co714 1.970 . S
O717 C716 1.258 . S
O718 Co715 1.966 . S
O718 C716 1.263 . S
C719 O720 1.235 . S
C719 O746 1.289 . S
O720 C719 1.235 . S
C721 C723 1.400 . S
C721 N724 1.351 . S
C721 C726 1.501 . S
C722 C723 1.387 . S
C722 N725 1.341 . S
C723 C721 1.400 . S
C723 C722 1.387 . S
N724 Co715 2.022 . S
N724 C721 1.351 . S
N724 N725 1.365 . S
N725 C722 1.341 . S
N725 N724 1.365 . S
N725 H745 0.862 . S
C726 C721 1.501 . S
C726 H727 0.961 . S
C726 H728 0.961 . S
C726 H729 0.960 . S
H727 C726 0.961 . S
H728 C726 0.961 . S
H729 C726 0.960 . S
C730 N731 1.342 . S
C730 C734 1.401 . S
C730 C735 1.499 . S
N731 Co714 1.989 . S
N731 C730 1.342 . S
N731 N732 1.388 . S
N732 Co715 1.993 . S
N732 N731 1.388 . S
N732 C733 1.346 . S
C733 N732 1.346 . S
C733 C734 1.396 . S
C733 C743 1.510 . S
C734 C730 1.401 . S
C734 C733 1.396 . S
C735 C730 1.499 . S
C735 H736 0.959 . S
C735 H737 0.960 . S
C735 H738 0.961 . S
H736 C735 0.959 . S
H737 C735 0.960 . S
H738 C735 0.961 . S
O739 Co714 1.967 . S
O739 C747 1.258 . S
O740 Co715 1.941 . S
O740 C747 1.266 . S
H741 C743 0.959 . S
H742 C743 0.961 . S
C743 C733 1.510 . S
C743 H741 0.959 . S
C743 H742 0.961 . S
C743 H744 0.960 . S
H744 C743 0.960 . S
H745 N725 0.862 . S
O746 Co714 1.920 . S
O746 C719 1.289 . S
C747 O739 1.258 . S
C747 O740 1.266 . S
Co748 O751 1.970 . S
Co748 N765 1.989 . S
Co748 O773 1.967 . S
Co748 O780 1.920 . S
Co749 O752 1.966 . S
Co749 N758 2.022 . S
Co749 N766 1.993 . S
Co749 O774 1.941 . S
C750 O751 1.258 . S
C750 O752 1.263 . S
O751 Co748 1.970 . S
O751 C750 1.258 . S
O752 Co749 1.966 . S
O752 C750 1.263 . S
C753 O754 1.235 . S
C753 O780 1.289 . S
O754 C753 1.235 . S
C755 C757 1.400 . S
C755 N758 1.351 . S
C755 C760 1.501 . S
C756 C757 1.387 . S
C756 N759 1.341 . S
C757 C755 1.400 . S
C757 C756 1.387 . S
N758 Co749 2.022 . S
N758 C755 1.351 . S
N758 N759 1.365 . S
N759 C756 1.341 . S
N759 N758 1.365 . S
N759 H779 0.862 . S
C760 C755 1.501 . S
C760 H761 0.961 . S
C760 H762 0.961 . S
C760 H763 0.960 . S
H761 C760 0.961 . S
H762 C760 0.961 . S
H763 C760 0.960 . S
C764 N765 1.342 . S
C764 C768 1.401 . S
C764 C769 1.499 . S
N765 Co748 1.989 . S
N765 C764 1.342 . S
N765 N766 1.388 . S
N766 Co749 1.993 . S
N766 N765 1.388 . S
N766 C767 1.346 . S
C767 N766 1.346 . S
C767 C768 1.396 . S
C767 C777 1.510 . S
C768 C764 1.401 . S
C768 C767 1.396 . S
C769 C764 1.499 . S
C769 H770 0.959 . S
C769 H771 0.960 . S
C769 H772 0.961 . S
H770 C769 0.959 . S
H771 C769 0.960 . S
H772 C769 0.961 . S
O773 Co748 1.967 . S
O773 C781 1.258 . S
O774 Co749 1.941 . S
O774 C781 1.266 . S
H775 C777 0.959 . S
H776 C777 0.961 . S
C777 C767 1.510 . S
C777 H775 0.959 . S
C777 H776 0.961 . S
C777 H778 0.960 . S
H778 C777 0.960 . S
H779 N759 0.862 . S
O780 Co748 1.920 . S
O780 C753 1.289 . S
C781 O773 1.258 . S
C781 O774 1.266 . S
Co782 O785 1.970 . S
Co782 N799 1.989 . S
Co782 O807 1.967 . S
Co782 O814 1.920 . S
Co783 O786 1.966 . S
Co783 N792 2.022 . S
Co783 N800 1.993 . S
Co783 O808 1.941 . S
C784 O785 1.258 . S
C784 O786 1.263 . S
O785 Co782 1.970 . S
O785 C784 1.258 . S
O786 Co783 1.966 . S
O786 C784 1.263 . S
C787 O788 1.235 . S
C787 O814 1.289 . S
O788 C787 1.235 . S
C789 C791 1.400 . S
C789 N792 1.351 . S
C789 C794 1.501 . S
C790 C791 1.387 . S
C790 N793 1.341 . S
C791 C789 1.400 . S
C791 C790 1.387 . S
N792 Co783 2.022 . S
N792 C789 1.351 . S
N792 N793 1.365 . S
N793 C790 1.341 . S
N793 N792 1.365 . S
N793 H813 0.862 . S
C794 C789 1.501 . S
C794 H795 0.961 . S
C794 H796 0.961 . S
C794 H797 0.960 . S
H795 C794 0.961 . S
H796 C794 0.961 . S
H797 C794 0.960 . S
C798 N799 1.342 . S
C798 C802 1.401 . S
C798 C803 1.499 . S
N799 Co782 1.989 . S
N799 C798 1.342 . S
N799 N800 1.388 . S
N800 Co783 1.993 . S
N800 N799 1.388 . S
N800 C801 1.346 . S
C801 N800 1.346 . S
C801 C802 1.396 . S
C801 C811 1.510 . S
C802 C798 1.401 . S
C802 C801 1.396 . S
C803 C798 1.499 . S
C803 H804 0.959 . S
C803 H805 0.960 . S
C803 H806 0.961 . S
H804 C803 0.959 . S
H805 C803 0.960 . S
H806 C803 0.961 . S
O807 Co782 1.967 . S
O807 C815 1.258 . S
O808 Co783 1.941 . S
O808 C815 1.266 . S
H809 C811 0.959 . S
H810 C811 0.961 . S
C811 C801 1.510 . S
C811 H809 0.959 . S
C811 H810 0.961 . S
C811 H812 0.960 . S
H812 C811 0.960 . S
H813 N793 0.862 . S
O814 Co782 1.920 . S
O814 C787 1.289 . S
C815 O807 1.258 . S
C815 O808 1.266 . S
Co816 O819 1.970 . S
Co816 N833 1.989 . S
Co816 O841 1.967 . S
Co816 O848 1.920 . S
Co817 O820 1.966 . S
Co817 N826 2.022 . S
Co817 N834 1.993 . S
Co817 O842 1.941 . S
C818 O819 1.258 . S
C818 O820 1.263 . S
O819 Co816 1.970 . S
O819 C818 1.258 . S
O820 Co817 1.966 . S
O820 C818 1.263 . S
C821 O822 1.235 . S
C821 O848 1.289 . S
O822 C821 1.235 . S
C823 C825 1.400 . S
C823 N826 1.351 . S
C823 C828 1.501 . S
C824 C825 1.387 . S
C824 N827 1.341 . S
C825 C823 1.400 . S
C825 C824 1.387 . S
N826 Co817 2.022 . S
N826 C823 1.351 . S
N826 N827 1.365 . S
N827 C824 1.341 . S
N827 N826 1.365 . S
N827 H847 0.862 . S
C828 C823 1.501 . S
C828 H829 0.961 . S
C828 H830 0.961 . S
C828 H831 0.960 . S
H829 C828 0.961 . S
H830 C828 0.961 . S
H831 C828 0.960 . S
C832 N833 1.342 . S
C832 C836 1.401 . S
C832 C837 1.499 . S
N833 Co816 1.989 . S
N833 C832 1.342 . S
N833 N834 1.388 . S
N834 Co817 1.993 . S
N834 N833 1.388 . S
N834 C835 1.346 . S
C835 N834 1.346 . S
C835 C836 1.396 . S
C835 C845 1.510 . S
C836 C832 1.401 . S
C836 C835 1.396 . S
C837 C832 1.499 . S
C837 H838 0.959 . S
C837 H839 0.960 . S
C837 H840 0.961 . S
H838 C837 0.959 . S
H839 C837 0.960 . S
H840 C837 0.961 . S
O841 Co816 1.967 . S
O841 C849 1.258 . S
O842 Co817 1.941 . S
O842 C849 1.266 . S
H843 C845 0.959 . S
H844 C845 0.961 . S
C845 C835 1.510 . S
C845 H843 0.959 . S
C845 H844 0.961 . S
C845 H846 0.960 . S
H846 C845 0.960 . S
H847 N827 0.862 . S
O848 Co816 1.920 . S
O848 C821 1.289 . S
C849 O841 1.258 . S
C849 O842 1.266 . S
Co850 O853 1.970 . S
Co850 N867 1.989 . S
Co850 O875 1.967 . S
Co850 O882 1.920 . S
Co851 O854 1.966 . S
Co851 N860 2.022 . S
Co851 N868 1.993 . S
Co851 O876 1.941 . S
C852 O853 1.258 . S
C852 O854 1.263 . S
O853 Co850 1.970 . S
O853 C852 1.258 . S
O854 Co851 1.966 . S
O854 C852 1.263 . S
C855 O856 1.235 . S
C855 O882 1.289 . S
O856 C855 1.235 . S
C857 C859 1.400 . S
C857 N860 1.351 . S
C857 C862 1.501 . S
C858 C859 1.387 . S
C858 N861 1.341 . S
C859 C857 1.400 . S
C859 C858 1.387 . S
N860 Co851 2.022 . S
N860 C857 1.351 . S
N860 N861 1.365 . S
N861 C858 1.341 . S
N861 N860 1.365 . S
N861 H881 0.862 . S
C862 C857 1.501 . S
C862 H863 0.961 . S
C862 H864 0.961 . S
C862 H865 0.960 . S
H863 C862 0.961 . S
H864 C862 0.961 . S
H865 C862 0.960 . S
C866 N867 1.342 . S
C866 C870 1.401 . S
C866 C871 1.499 . S
N867 Co850 1.989 . S
N867 C866 1.342 . S
N867 N868 1.388 . S
N868 Co851 1.993 . S
N868 N867 1.388 . S
N868 C869 1.346 . S
C869 N868 1.346 . S
C869 C870 1.396 . S
C869 C879 1.510 . S
C870 C866 1.401 . S
C870 C869 1.396 . S
C871 C866 1.499 . S
C871 H872 0.959 . S
C871 H873 0.960 . S
C871 H874 0.961 . S
H872 C871 0.959 . S
H873 C871 0.960 . S
H874 C871 0.961 . S
O875 Co850 1.967 . S
O875 C883 1.258 . S
O876 Co851 1.941 . S
O876 C883 1.266 . S
H877 C879 0.959 . S
H878 C879 0.961 . S
C879 C869 1.510 . S
C879 H877 0.959 . S
C879 H878 0.961 . S
C879 H880 0.960 . S
H880 C879 0.960 . S
H881 N861 0.862 . S
O882 Co850 1.920 . S
O882 C855 1.289 . S
C883 O875 1.258 . S
C883 O876 1.266 . S
Co884 O887 1.970 . S
Co884 N901 1.989 . S
Co884 O909 1.967 . S
Co884 O916 1.920 . S
Co885 O888 1.966 . S
Co885 N894 2.022 . S
Co885 N902 1.993 . S
Co885 O910 1.941 . S
C886 O887 1.258 . S
C886 O888 1.263 . S
O887 Co884 1.970 . S
O887 C886 1.258 . S
O888 Co885 1.966 . S
O888 C886 1.263 . S
C889 O890 1.235 . S
C889 O916 1.289 . S
O890 C889 1.235 . S
C891 C893 1.400 . S
C891 N894 1.351 . S
C891 C896 1.501 . S
C892 C893 1.387 . S
C892 N895 1.341 . S
C893 C891 1.400 . S
C893 C892 1.387 . S
N894 Co885 2.022 . S
N894 C891 1.351 . S
N894 N895 1.365 . S
N895 C892 1.341 . S
N895 N894 1.365 . S
N895 H915 0.862 . S
C896 C891 1.501 . S
C896 H897 0.961 . S
C896 H898 0.961 . S
C896 H899 0.960 . S
H897 C896 0.961 . S
H898 C896 0.961 . S
H899 C896 0.960 . S
C900 N901 1.342 . S
C900 C904 1.401 . S
C900 C905 1.499 . S
N901 Co884 1.989 . S
N901 C900 1.342 . S
N901 N902 1.388 . S
N902 Co885 1.993 . S
N902 N901 1.388 . S
N902 C903 1.346 . S
C903 N902 1.346 . S
C903 C904 1.396 . S
C903 C913 1.510 . S
C904 C900 1.401 . S
C904 C903 1.396 . S
C905 C900 1.499 . S
C905 H906 0.959 . S
C905 H907 0.960 . S
C905 H908 0.961 . S
H906 C905 0.959 . S
H907 C905 0.960 . S
H908 C905 0.961 . S
O909 Co884 1.967 . S
O909 C917 1.258 . S
O910 Co885 1.941 . S
O910 C917 1.266 . S
H911 C913 0.959 . S
H912 C913 0.961 . S
C913 C903 1.510 . S
C913 H911 0.959 . S
C913 H912 0.961 . S
C913 H914 0.960 . S
H914 C913 0.960 . S
H915 N895 0.862 . S
O916 Co884 1.920 . S
O916 C889 1.289 . S
C917 O909 1.258 . S
C917 O910 1.266 . S
Co918 O921 1.970 . S
Co918 N935 1.989 . S
Co918 O943 1.967 . S
Co918 O950 1.920 . S
Co919 O922 1.966 . S
Co919 N928 2.022 . S
Co919 N936 1.993 . S
Co919 O944 1.941 . S
C920 O921 1.258 . S
C920 O922 1.263 . S
O921 Co918 1.970 . S
O921 C920 1.258 . S
O922 Co919 1.966 . S
O922 C920 1.263 . S
C923 O924 1.235 . S
C923 O950 1.289 . S
O924 C923 1.235 . S
C925 C927 1.400 . S
C925 N928 1.351 . S
C925 C930 1.501 . S
C926 C927 1.387 . S
C926 N929 1.341 . S
C927 C925 1.400 . S
C927 C926 1.387 . S
N928 Co919 2.022 . S
N928 C925 1.351 . S
N928 N929 1.365 . S
N929 C926 1.341 . S
N929 N928 1.365 . S
N929 H949 0.862 . S
C930 C925 1.501 . S
C930 H931 0.961 . S
C930 H932 0.961 . S
C930 H933 0.960 . S
H931 C930 0.961 . S
H932 C930 0.961 . S
H933 C930 0.960 . S
C934 N935 1.342 . S
C934 C938 1.401 . S
C934 C939 1.499 . S
N935 Co918 1.989 . S
N935 C934 1.342 . S
N935 N936 1.388 . S
N936 Co919 1.993 . S
N936 N935 1.388 . S
N936 C937 1.346 . S
C937 N936 1.346 . S
C937 C938 1.396 . S
C937 C947 1.510 . S
C938 C934 1.401 . S
C938 C937 1.396 . S
C939 C934 1.499 . S
C939 H940 0.959 . S
C939 H941 0.960 . S
C939 H942 0.961 . S
H940 C939 0.959 . S
H941 C939 0.960 . S
H942 C939 0.961 . S
O943 Co918 1.967 . S
O943 C951 1.258 . S
O944 Co919 1.941 . S
O944 C951 1.266 . S
H945 C947 0.959 . S
H946 C947 0.961 . S
C947 C937 1.510 . S
C947 H945 0.959 . S
C947 H946 0.961 . S
C947 H948 0.960 . S
H948 C947 0.960 . S
H949 N929 0.862 . S
O950 Co918 1.920 . S
O950 C923 1.289 . S
C951 O943 1.258 . S
C951 O944 1.266 . S
Co952 O955 1.970 . S
Co952 N969 1.989 . S
Co952 O977 1.967 . S
Co952 O984 1.920 . S
Co953 O956 1.966 . S
Co953 N962 2.022 . S
Co953 N970 1.993 . S
Co953 O978 1.941 . S
C954 O955 1.258 . S
C954 O956 1.263 . S
O955 Co952 1.970 . S
O955 C954 1.258 . S
O956 Co953 1.966 . S
O956 C954 1.263 . S
C957 O958 1.235 . S
C957 O984 1.289 . S
O958 C957 1.235 . S
C959 C961 1.400 . S
C959 N962 1.351 . S
C959 C964 1.501 . S
C960 C961 1.387 . S
C960 N963 1.341 . S
C961 C959 1.400 . S
C961 C960 1.387 . S
N962 Co953 2.022 . S
N962 C959 1.351 . S
N962 N963 1.365 . S
N963 C960 1.341 . S
N963 N962 1.365 . S
N963 H983 0.862 . S
C964 C959 1.501 . S
C964 H965 0.961 . S
C964 H966 0.961 . S
C964 H967 0.960 . S
H965 C964 0.961 . S
H966 C964 0.961 . S
H967 C964 0.960 . S
C968 N969 1.342 . S
C968 C972 1.401 . S
C968 C973 1.499 . S
N969 Co952 1.989 . S
N969 C968 1.342 . S
N969 N970 1.388 . S
N970 Co953 1.993 . S
N970 N969 1.388 . S
N970 C971 1.346 . S
C971 N970 1.346 . S
C971 C972 1.396 . S
C971 C981 1.510 . S
C972 C968 1.401 . S
C972 C971 1.396 . S
C973 C968 1.499 . S
C973 H974 0.959 . S
C973 H975 0.960 . S
C973 H976 0.961 . S
H974 C973 0.959 . S
H975 C973 0.960 . S
H976 C973 0.961 . S
O977 Co952 1.967 . S
O977 C985 1.258 . S
O978 Co953 1.941 . S
O978 C985 1.266 . S
H979 C981 0.959 . S
H980 C981 0.961 . S
C981 C971 1.510 . S
C981 H979 0.959 . S
C981 H980 0.961 . S
C981 H982 0.960 . S
H982 C981 0.960 . S
H983 N963 0.862 . S
O984 Co952 1.920 . S
O984 C957 1.289 . S
C985 O977 1.258 . S
C985 O978 1.266 . S
Co986 O989 1.970 . S
Co986 N1003 1.989 . S
Co986 O1011 1.967 . S
Co986 O1018 1.920 . S
Co987 O990 1.966 . S
Co987 N996 2.022 . S
Co987 N1004 1.993 . S
Co987 O1012 1.941 . S
C988 O989 1.258 . S
C988 O990 1.263 . S
O989 Co986 1.970 . S
O989 C988 1.258 . S
O990 Co987 1.966 . S
O990 C988 1.263 . S
C991 O992 1.235 . S
C991 O1018 1.289 . S
O992 C991 1.235 . S
C993 C995 1.400 . S
C993 N996 1.351 . S
C993 C998 1.501 . S
C994 C995 1.387 . S
C994 N997 1.341 . S
C995 C993 1.400 . S
C995 C994 1.387 . S
N996 Co987 2.022 . S
N996 C993 1.351 . S
N996 N997 1.365 . S
N997 C994 1.341 . S
N997 N996 1.365 . S
N997 H1017 0.862 . S
C998 C993 1.501 . S
C998 H999 0.961 . S
C998 H1000 0.961 . S
C998 H1001 0.960 . S
H999 C998 0.961 . S
H1000 C998 0.961 . S
H1001 C998 0.960 . S
C1002 N1003 1.342 . S
C1002 C1006 1.401 . S
C1002 C1007 1.499 . S
N1003 Co986 1.989 . S
N1003 C1002 1.342 . S
N1003 N1004 1.388 . S
N1004 Co987 1.993 . S
N1004 N1003 1.388 . S
N1004 C1005 1.346 . S
C1005 N1004 1.346 . S
C1005 C1006 1.396 . S
C1005 C1015 1.510 . S
C1006 C1002 1.401 . S
C1006 C1005 1.396 . S
C1007 C1002 1.499 . S
C1007 H1008 0.959 . S
C1007 H1009 0.960 . S
C1007 H1010 0.961 . S
H1008 C1007 0.959 . S
H1009 C1007 0.960 . S
H1010 C1007 0.961 . S
O1011 Co986 1.967 . S
O1011 C1019 1.258 . S
O1012 Co987 1.941 . S
O1012 C1019 1.266 . S
H1013 C1015 0.959 . S
H1014 C1015 0.961 . S
C1015 C1005 1.510 . S
C1015 H1013 0.959 . S
C1015 H1014 0.961 . S
C1015 H1016 0.960 . S
H1016 C1015 0.960 . S
H1017 N997 0.862 . S
O1018 Co986 1.920 . S
O1018 C991 1.289 . S
C1019 O1011 1.258 . S
C1019 O1012 1.266 . S
Co1020 O1023 1.970 . S
Co1020 N1037 1.989 . S
Co1020 O1045 1.967 . S
Co1020 O1052 1.920 . S
Co1021 O1024 1.966 . S
Co1021 N1030 2.022 . S
Co1021 N1038 1.993 . S
Co1021 O1046 1.941 . S
C1022 O1023 1.258 . S
C1022 O1024 1.263 . S
O1023 Co1020 1.970 . S
O1023 C1022 1.258 . S
O1024 Co1021 1.966 . S
O1024 C1022 1.263 . S
C1025 O1026 1.235 . S
C1025 O1052 1.289 . S
O1026 C1025 1.235 . S
C1027 C1029 1.400 . S
C1027 N1030 1.351 . S
C1027 C1032 1.501 . S
C1028 C1029 1.387 . S
C1028 N1031 1.341 . S
C1029 C1027 1.400 . S
C1029 C1028 1.387 . S
N1030 Co1021 2.022 . S
N1030 C1027 1.351 . S
N1030 N1031 1.365 . S
N1031 C1028 1.341 . S
N1031 N1030 1.365 . S
N1031 H1051 0.862 . S
C1032 C1027 1.501 . S
C1032 H1033 0.961 . S
C1032 H1034 0.961 . S
C1032 H1035 0.960 . S
H1033 C1032 0.961 . S
H1034 C1032 0.961 . S
H1035 C1032 0.960 . S
C1036 N1037 1.342 . S
C1036 C1040 1.401 . S
C1036 C1041 1.499 . S
N1037 Co1020 1.989 . S
N1037 C1036 1.342 . S
N1037 N1038 1.388 . S
N1038 Co1021 1.993 . S
N1038 N1037 1.388 . S
N1038 C1039 1.346 . S
C1039 N1038 1.346 . S
C1039 C1040 1.396 . S
C1039 C1049 1.510 . S
C1040 C1036 1.401 . S
C1040 C1039 1.396 . S
C1041 C1036 1.499 . S
C1041 H1042 0.959 . S
C1041 H1043 0.960 . S
C1041 H1044 0.961 . S
H1042 C1041 0.959 . S
H1043 C1041 0.960 . S
H1044 C1041 0.961 . S
O1045 Co1020 1.967 . S
O1045 C1053 1.258 . S
O1046 Co1021 1.941 . S
O1046 C1053 1.266 . S
H1047 C1049 0.959 . S
H1048 C1049 0.961 . S
C1049 C1039 1.510 . S
C1049 H1047 0.959 . S
C1049 H1048 0.961 . S
C1049 H1050 0.960 . S
H1050 C1049 0.960 . S
H1051 N1031 0.862 . S
O1052 Co1020 1.920 . S
O1052 C1025 1.289 . S
C1053 O1045 1.258 . S
C1053 O1046 1.266 . S
Co1054 O1057 1.970 . S
Co1054 N1071 1.989 . S
Co1054 O1079 1.967 . S
Co1054 O1086 1.920 . S
Co1055 O1058 1.966 . S
Co1055 N1064 2.022 . S
Co1055 N1072 1.993 . S
Co1055 O1080 1.941 . S
C1056 O1057 1.258 . S
C1056 O1058 1.263 . S
O1057 Co1054 1.970 . S
O1057 C1056 1.258 . S
O1058 Co1055 1.966 . S
O1058 C1056 1.263 . S
C1059 O1060 1.235 . S
C1059 O1086 1.289 . S
O1060 C1059 1.235 . S
C1061 C1063 1.400 . S
C1061 N1064 1.351 . S
C1061 C1066 1.501 . S
C1062 C1063 1.387 . S
C1062 N1065 1.341 . S
C1063 C1061 1.400 . S
C1063 C1062 1.387 . S
N1064 Co1055 2.022 . S
N1064 C1061 1.351 . S
N1064 N1065 1.365 . S
N1065 C1062 1.341 . S
N1065 N1064 1.365 . S
N1065 H1085 0.862 . S
C1066 C1061 1.501 . S
C1066 H1067 0.961 . S
C1066 H1068 0.961 . S
C1066 H1069 0.960 . S
H1067 C1066 0.961 . S
H1068 C1066 0.961 . S
H1069 C1066 0.960 . S
C1070 N1071 1.342 . S
C1070 C1074 1.401 . S
C1070 C1075 1.499 . S
N1071 Co1054 1.989 . S
N1071 C1070 1.342 . S
N1071 N1072 1.388 . S
N1072 Co1055 1.993 . S
N1072 N1071 1.388 . S
N1072 C1073 1.346 . S
C1073 N1072 1.346 . S
C1073 C1074 1.396 . S
C1073 C1083 1.510 . S
C1074 C1070 1.401 . S
C1074 C1073 1.396 . S
C1075 C1070 1.499 . S
C1075 H1076 0.959 . S
C1075 H1077 0.960 . S
C1075 H1078 0.961 . S
H1076 C1075 0.959 . S
H1077 C1075 0.960 . S
H1078 C1075 0.961 . S
O1079 Co1054 1.967 . S
O1079 C1087 1.258 . S
O1080 Co1055 1.941 . S
O1080 C1087 1.266 . S
H1081 C1083 0.959 . S
H1082 C1083 0.961 . S
C1083 C1073 1.510 . S
C1083 H1081 0.959 . S
C1083 H1082 0.961 . S
C1083 H1084 0.960 . S
H1084 C1083 0.960 . S
H1085 N1065 0.862 . S
O1086 Co1054 1.920 . S
O1086 C1059 1.289 . S
C1087 O1079 1.258 . S
C1087 O1080 1.266 . S
H1088 C1094 0.930 . S
H1089 C1098 0.930 . S
H1090 C1103 0.929 . S
H1091 C1101 0.929 . S
H1092 C1096 0.929 . S
H1093 C1102 0.929 . S
C1094 H1088 0.930 . S
C1094 C1095 1.367 . S
C1094 C1102 1.378 . S
C1095 C1094 1.367 . S
C1095 C1103 1.433 . S
C1096 H1092 0.929 . S
C1096 C1098 1.378 . S
C1096 C1100 1.350 . S
C1097 C1100 1.463 . S
C1097 C1102 1.350 . S
C1097 N1105 1.427 . S
C1098 H1089 0.930 . S
C1098 C1096 1.378 . S
C1098 C1099 1.367 . S
C1099 C1098 1.367 . S
C1099 C1101 1.433 . S
C1100 C1096 1.350 . S
C1100 C1097 1.463 . S
C1100 N1104 1.427 . S
C1101 H1091 0.929 . S
C1101 C1099 1.433 . S
C1101 N1104 1.384 . S
C1102 H1093 0.929 . S
C1102 C1094 1.378 . S
C1102 C1097 1.350 . S
C1103 H1090 0.929 . S
C1103 C1095 1.433 . S
C1103 N1105 1.384 . S
N1104 C1100 1.427 . S
N1104 C1101 1.384 . S
N1105 C1097 1.427 . S
N1105 C1103 1.384 . S
H1106 C1112 0.930 . S
H1107 C1116 0.930 . S
H1108 C1121 0.929 . S
H1109 C1119 0.929 . S
H1110 C1114 0.929 . S
H1111 C1120 0.929 . S
C1112 H1106 0.930 . S
C1112 C1113 1.367 1_455 S
C1112 C1120 1.378 . S
C1113 C1112 1.367 1_655 S
C1113 C1121 1.433 . S
C1114 H1110 0.929 . S
C1114 C1116 1.378 . S
C1114 C1118 1.350 . S
C1115 C1118 1.463 . S
C1115 C1120 1.350 . S
C1115 N1123 1.427 . S
C1116 H1107 0.930 . S
C1116 C1114 1.378 . S
C1116 C1117 1.367 . S
C1117 C1116 1.367 . S
C1117 C1119 1.433 . S
C1118 C1114 1.350 . S
C1118 C1115 1.463 . S
C1118 N1122 1.427 . S
C1119 H1109 0.929 . S
C1119 C1117 1.433 . S
C1119 N1122 1.384 . S
C1120 H1111 0.929 . S
C1120 C1112 1.378 . S
C1120 C1115 1.350 . S
C1121 H1108 0.929 . S
C1121 C1113 1.433 . S
C1121 N1123 1.384 1_655 S
N1122 C1118 1.427 . S
N1122 C1119 1.384 . S
N1123 C1115 1.427 . S
N1123 C1121 1.384 1_455 S
H1124 C1130 0.930 . S
H1125 C1134 0.930 . S
H1126 C1139 0.929 . S
H1127 C1137 0.929 . S
H1128 C1132 0.929 . S
H1129 C1138 0.929 . S
C1130 H1124 0.930 . S
C1130 C1131 1.367 . S
C1130 C1138 1.378 . S
C1131 C1130 1.367 . S
C1131 C1139 1.433 . S
C1132 H1128 0.929 . S
C1132 C1134 1.378 . S
C1132 C1136 1.350 . S
C1133 C1136 1.463 . S
C1133 C1138 1.350 . S
C1133 N1141 1.427 . S
C1134 H1125 0.930 . S
C1134 C1132 1.378 . S
C1134 C1135 1.367 . S
C1135 C1134 1.367 . S
C1135 C1137 1.433 . S
C1136 C1132 1.350 . S
C1136 C1133 1.463 . S
C1136 N1140 1.427 . S
C1137 H1127 0.929 . S
C1137 C1135 1.433 . S
C1137 N1140 1.384 . S
C1138 H1129 0.929 . S
C1138 C1130 1.378 . S
C1138 C1133 1.350 . S
C1139 H1126 0.929 . S
C1139 C1131 1.433 . S
C1139 N1141 1.384 . S
N1140 C1136 1.427 . S
N1140 C1137 1.384 . S
N1141 C1133 1.427 . S
N1141 C1139 1.384 . S
H1142 C1148 0.930 . S
H1143 C1152 0.930 . S
H1144 C1157 0.929 . S
H1145 C1155 0.929 . S
H1146 C1150 0.929 . S
H1147 C1156 0.929 . S
C1148 H1142 0.930 . S
C1148 C1149 1.367 . S
C1148 C1156 1.378 . S
C1149 C1148 1.367 . S
C1149 C1157 1.433 . S
C1150 H1146 0.929 . S
C1150 C1152 1.378 . S
C1150 C1154 1.350 . S
C1151 C1154 1.463 . S
C1151 C1156 1.350 . S
C1151 N1159 1.427 . S
C1152 H1143 0.930 . S
C1152 C1150 1.378 . S
C1152 C1153 1.367 . S
C1153 C1152 1.367 . S
C1153 C1155 1.433 . S
C1154 C1150 1.350 . S
C1154 C1151 1.463 . S
C1154 N1158 1.427 . S
C1155 H1145 0.929 . S
C1155 C1153 1.433 . S
C1155 N1158 1.384 . S
C1156 H1147 0.929 . S
C1156 C1148 1.378 . S
C1156 C1151 1.350 . S
C1157 H1144 0.929 . S
C1157 C1149 1.433 . S
C1157 N1159 1.384 . S
N1158 C1154 1.427 . S
N1158 C1155 1.384 . S
N1159 C1151 1.427 . S
N1159 C1157 1.384 . S
H1160 C1166 0.930 . S
H1161 C1170 0.930 . S
H1162 C1175 0.929 . S
H1163 C1173 0.929 . S
H1164 C1168 0.929 . S
H1165 C1174 0.929 . S
C1166 H1160 0.930 . S
C1166 C1167 1.367 . S
C1166 C1174 1.378 . S
C1167 C1166 1.367 . S
C1167 C1175 1.433 . S
C1168 H1164 0.929 . S
C1168 C1170 1.378 . S
C1168 C1172 1.350 . S
C1169 C1172 1.463 . S
C1169 C1174 1.350 . S
C1169 N1177 1.427 . S
C1170 H1161 0.930 . S
C1170 C1168 1.378 . S
C1170 C1171 1.367 . S
C1171 C1170 1.367 . S
C1171 C1173 1.433 . S
C1172 C1168 1.350 . S
C1172 C1169 1.463 . S
C1172 N1176 1.427 . S
C1173 H1163 0.929 . S
C1173 C1171 1.433 . S
C1173 N1176 1.384 . S
C1174 H1165 0.929 . S
C1174 C1166 1.378 . S
C1174 C1169 1.350 . S
C1175 H1162 0.929 . S
C1175 C1167 1.433 . S
C1175 N1177 1.384 . S
N1176 C1172 1.427 . S
N1176 C1173 1.384 . S
N1177 C1169 1.427 . S
N1177 C1175 1.384 . S
H1178 C1184 0.930 . S
H1179 C1188 0.930 . S
H1180 C1193 0.929 . S
H1181 C1191 0.929 . S
H1182 C1186 0.929 . S
H1183 C1192 0.929 . S
C1184 H1178 0.930 . S
C1184 C1185 1.367 . S
C1184 C1192 1.378 . S
C1185 C1184 1.367 . S
C1185 C1193 1.433 . S
C1186 H1182 0.929 . S
C1186 C1188 1.378 . S
C1186 C1190 1.350 . S
C1187 C1190 1.463 . S
C1187 C1192 1.350 . S
C1187 N1195 1.427 . S
C1188 H1179 0.930 . S
C1188 C1186 1.378 . S
C1188 C1189 1.367 . S
C1189 C1188 1.367 . S
C1189 C1191 1.433 . S
C1190 C1186 1.350 . S
C1190 C1187 1.463 . S
C1190 N1194 1.427 . S
C1191 H1181 0.929 . S
C1191 C1189 1.433 . S
C1191 N1194 1.384 . S
C1192 H1183 0.929 . S
C1192 C1184 1.378 . S
C1192 C1187 1.350 . S
C1193 H1180 0.929 . S
C1193 C1185 1.433 . S
C1193 N1195 1.384 . S
N1194 C1190 1.427 . S
N1194 C1191 1.384 . S
N1195 C1187 1.427 . S
N1195 C1193 1.384 . S
H1196 C1202 0.930 . S
H1197 C1206 0.930 . S
H1198 C1211 0.929 . S
H1199 C1209 0.929 . S
H1200 C1204 0.929 . S
H1201 C1210 0.929 . S
C1202 H1196 0.930 . S
C1202 C1203 1.367 . S
C1202 C1210 1.378 . S
C1203 C1202 1.367 . S
C1203 C1211 1.433 . S
C1204 H1200 0.929 . S
C1204 C1206 1.378 . S
C1204 C1208 1.350 . S
C1205 C1208 1.463 . S
C1205 C1210 1.350 . S
C1205 N1213 1.427 . S
C1206 H1197 0.930 . S
C1206 C1204 1.378 . S
C1206 C1207 1.367 . S
C1207 C1206 1.367 . S
C1207 C1209 1.433 . S
C1208 C1204 1.350 . S
C1208 C1205 1.463 . S
C1208 N1212 1.427 . S
C1209 H1199 0.929 . S
C1209 C1207 1.433 . S
C1209 N1212 1.384 . S
C1210 H1201 0.929 . S
C1210 C1202 1.378 . S
C1210 C1205 1.350 . S
C1211 H1198 0.929 . S
C1211 C1203 1.433 . S
C1211 N1213 1.384 . S
N1212 C1208 1.427 . S
N1212 C1209 1.384 . S
N1213 C1205 1.427 . S
N1213 C1211 1.384 . S
H1214 C1220 0.930 . S
H1215 C1224 0.930 . S
H1216 C1229 0.929 . S
H1217 C1227 0.929 . S
H1218 C1222 0.929 . S
H1219 C1228 0.929 . S
C1220 H1214 0.930 . S
C1220 C1221 1.367 . S
C1220 C1228 1.378 . S
C1221 C1220 1.367 . S
C1221 C1229 1.433 . S
C1222 H1218 0.929 . S
C1222 C1224 1.378 1_455 S
C1222 C1226 1.350 . S
C1223 C1226 1.463 . S
C1223 C1228 1.350 . S
C1223 N1231 1.427 . S
C1224 H1215 0.930 . S
C1224 C1222 1.378 1_655 S
C1224 C1225 1.367 . S
C1225 C1224 1.367 . S
C1225 C1227 1.433 1_655 S
C1226 C1222 1.350 . S
C1226 C1223 1.463 . S
C1226 N1230 1.427 . S
C1227 H1217 0.929 . S
C1227 C1225 1.433 1_455 S
C1227 N1230 1.384 . S
C1228 H1219 0.929 . S
C1228 C1220 1.378 . S
C1228 C1223 1.350 . S
C1229 H1216 0.929 . S
C1229 C1221 1.433 . S
C1229 N1231 1.384 . S
N1230 C1226 1.427 . S
N1230 C1227 1.384 . S
N1231 C1223 1.427 . S
N1231 C1229 1.384 . S
H1232 C1238 0.930 . S
H1233 C1242 0.930 . S
H1234 C1247 0.929 . S
H1235 C1245 0.929 . S
H1236 C1240 0.929 . S
H1237 C1246 0.929 . S
C1238 H1232 0.930 . S
C1238 C1239 1.367 . S
C1238 C1246 1.378 . S
C1239 C1238 1.367 . S
C1239 C1247 1.433 . S
C1240 H1236 0.929 . S
C1240 C1242 1.378 . S
C1240 C1244 1.350 . S
C1241 C1244 1.463 . S
C1241 C1246 1.350 . S
C1241 N1249 1.427 . S
C1242 H1233 0.930 . S
C1242 C1240 1.378 . S
C1242 C1243 1.367 . S
C1243 C1242 1.367 . S
C1243 C1245 1.433 . S
C1244 C1240 1.350 . S
C1244 C1241 1.463 . S
C1244 N1248 1.427 . S
C1245 H1235 0.929 . S
C1245 C1243 1.433 . S
C1245 N1248 1.384 . S
C1246 H1237 0.929 . S
C1246 C1238 1.378 . S
C1246 C1241 1.350 . S
C1247 H1234 0.929 . S
C1247 C1239 1.433 . S
C1247 N1249 1.384 . S
N1248 C1244 1.427 . S
N1248 C1245 1.384 . S
N1249 C1241 1.427 . S
N1249 C1247 1.384 . S
H1250 C1256 0.930 . S
H1251 C1260 0.930 . S
H1252 C1265 0.929 . S
H1253 C1263 0.929 . S
H1254 C1258 0.929 . S
H1255 C1264 0.929 . S
C1256 H1250 0.930 . S
C1256 C1257 1.367 . S
C1256 C1264 1.378 1_455 S
C1257 C1256 1.367 . S
C1257 C1265 1.433 1_455 S
C1258 H1254 0.929 . S
C1258 C1260 1.378 . S
C1258 C1262 1.350 . S
C1259 C1262 1.463 . S
C1259 C1264 1.350 . S
C1259 N1267 1.427 . S
C1260 H1251 0.930 . S
C1260 C1258 1.378 . S
C1260 C1261 1.367 . S
C1261 C1260 1.367 . S
C1261 C1263 1.433 . S
C1262 C1258 1.350 . S
C1262 C1259 1.463 . S
C1262 N1266 1.427 . S
C1263 H1253 0.929 . S
C1263 C1261 1.433 . S
C1263 N1266 1.384 . S
C1264 H1255 0.929 . S
C1264 C1256 1.378 1_655 S
C1264 C1259 1.350 . S
C1265 H1252 0.929 . S
C1265 C1257 1.433 1_655 S
C1265 N1267 1.384 . S
N1266 C1262 1.427 . S
N1266 C1263 1.384 . S
N1267 C1259 1.427 . S
N1267 C1265 1.384 . S
H1268 C1274 0.930 . S
H1269 C1278 0.930 . S
H1270 C1283 0.929 . S
H1271 C1281 0.929 . S
H1272 C1276 0.929 . S
H1273 C1282 0.929 . S
C1274 H1268 0.930 . S
C1274 C1275 1.367 . S
C1274 C1282 1.378 . S
C1275 C1274 1.367 . S
C1275 C1283 1.433 . S
C1276 H1272 0.929 . S
C1276 C1278 1.378 . S
C1276 C1280 1.350 . S
C1277 C1280 1.463 . S
C1277 C1282 1.350 . S
C1277 N1285 1.427 . S
C1278 H1269 0.930 . S
C1278 C1276 1.378 . S
C1278 C1279 1.367 . S
C1279 C1278 1.367 . S
C1279 C1281 1.433 . S
C1280 C1276 1.350 . S
C1280 C1277 1.463 . S
C1280 N1284 1.427 . S
C1281 H1271 0.929 . S
C1281 C1279 1.433 . S
C1281 N1284 1.384 . S
C1282 H1273 0.929 . S
C1282 C1274 1.378 . S
C1282 C1277 1.350 . S
C1283 H1270 0.929 . S
C1283 C1275 1.433 . S
C1283 N1285 1.384 . S
N1284 C1280 1.427 . S
N1284 C1281 1.384 . S
N1285 C1277 1.427 . S
N1285 C1283 1.384 . S
H1286 C1292 0.930 . S
H1287 C1296 0.930 . S
H1288 C1301 0.929 . S
H1289 C1299 0.929 . S
H1290 C1294 0.929 . S
H1291 C1300 0.929 . S
C1292 H1286 0.930 . S
C1292 C1293 1.367 . S
C1292 C1300 1.378 . S
C1293 C1292 1.367 . S
C1293 C1301 1.433 . S
C1294 H1290 0.929 . S
C1294 C1296 1.378 . S
C1294 C1298 1.350 . S
C1295 C1298 1.463 . S
C1295 C1300 1.350 . S
C1295 N1303 1.427 . S
C1296 H1287 0.930 . S
C1296 C1294 1.378 . S
C1296 C1297 1.367 . S
C1297 C1296 1.367 . S
C1297 C1299 1.433 . S
C1298 C1294 1.350 . S
C1298 C1295 1.463 . S
C1298 N1302 1.427 . S
C1299 H1289 0.929 . S
C1299 C1297 1.433 . S
C1299 N1302 1.384 . S
C1300 H1291 0.929 . S
C1300 C1292 1.378 . S
C1300 C1295 1.350 . S
C1301 H1288 0.929 . S
C1301 C1293 1.433 . S
C1301 N1303 1.384 . S
N1302 C1298 1.427 . S
N1302 C1299 1.384 . S
N1303 C1295 1.427 . S
N1303 C1301 1.384 . S
H1304 C1310 0.930 . S
H1305 C1314 0.930 . S
H1306 C1319 0.929 . S
H1307 C1317 0.929 . S
H1308 C1312 0.929 . S
H1309 C1318 0.929 . S
C1310 H1304 0.930 . S
C1310 C1311 1.367 . S
C1310 C1318 1.378 . S
C1311 C1310 1.367 . S
C1311 C1319 1.433 . S
C1312 H1308 0.929 . S
C1312 C1314 1.378 . S
C1312 C1316 1.350 . S
C1313 C1316 1.463 . S
C1313 C1318 1.350 . S
C1313 N1321 1.427 . S
C1314 H1305 0.930 . S
C1314 C1312 1.378 . S
C1314 C1315 1.367 . S
C1315 C1314 1.367 . S
C1315 C1317 1.433 . S
C1316 C1312 1.350 . S
C1316 C1313 1.463 . S
C1316 N1320 1.427 . S
C1317 H1307 0.929 . S
C1317 C1315 1.433 . S
C1317 N1320 1.384 . S
C1318 H1309 0.929 . S
C1318 C1310 1.378 . S
C1318 C1313 1.350 . S
C1319 H1306 0.929 . S
C1319 C1311 1.433 . S
C1319 N1321 1.384 . S
N1320 C1316 1.427 . S
N1320 C1317 1.384 . S
N1321 C1313 1.427 . S
N1321 C1319 1.384 . S
H1322 C1328 0.930 . S
H1323 C1332 0.930 . S
H1324 C1337 0.929 . S
H1325 C1335 0.929 . S
H1326 C1330 0.929 . S
H1327 C1336 0.929 . S
C1328 H1322 0.930 . S
C1328 C1329 1.367 . S
C1328 C1336 1.378 . S
C1329 C1328 1.367 . S
C1329 C1337 1.433 . S
C1330 H1326 0.929 . S
C1330 C1332 1.378 . S
C1330 C1334 1.350 . S
C1331 C1334 1.463 . S
C1331 C1336 1.350 . S
C1331 N1339 1.427 . S
C1332 H1323 0.930 . S
C1332 C1330 1.378 . S
C1332 C1333 1.367 . S
C1333 C1332 1.367 . S
C1333 C1335 1.433 . S
C1334 C1330 1.350 . S
C1334 C1331 1.463 . S
C1334 N1338 1.427 . S
C1335 H1325 0.929 . S
C1335 C1333 1.433 . S
C1335 N1338 1.384 . S
C1336 H1327 0.929 . S
C1336 C1328 1.378 . S
C1336 C1331 1.350 . S
C1337 H1324 0.929 . S
C1337 C1329 1.433 . S
C1337 N1339 1.384 . S
N1338 C1334 1.427 . S
N1338 C1335 1.384 . S
N1339 C1331 1.427 . S
N1339 C1337 1.384 . S
H1340 C1346 0.930 . S
H1341 C1350 0.930 . S
H1342 C1355 0.929 . S
H1343 C1353 0.929 . S
H1344 C1348 0.929 . S
H1345 C1354 0.929 . S
C1346 H1340 0.930 . S
C1346 C1347 1.367 . S
C1346 C1354 1.378 . S
C1347 C1346 1.367 . S
C1347 C1355 1.433 . S
C1348 H1344 0.929 . S
C1348 C1350 1.378 . S
C1348 C1352 1.350 . S
C1349 C1352 1.463 . S
C1349 C1354 1.350 . S
C1349 N1357 1.427 . S
C1350 H1341 0.930 . S
C1350 C1348 1.378 . S
C1350 C1351 1.367 . S
C1351 C1350 1.367 . S
C1351 C1353 1.433 . S
C1352 C1348 1.350 . S
C1352 C1349 1.463 . S
C1352 N1356 1.427 . S
C1353 H1343 0.929 . S
C1353 C1351 1.433 . S
C1353 N1356 1.384 . S
C1354 H1345 0.929 . S
C1354 C1346 1.378 . S
C1354 C1349 1.350 . S
C1355 H1342 0.929 . S
C1355 C1347 1.433 . S
C1355 N1357 1.384 . S
N1356 C1352 1.427 . S
N1356 C1353 1.384 . S
N1357 C1349 1.427 . S
N1357 C1355 1.384 . S
H1358 C1364 0.930 . S
H1359 C1368 0.930 . S
H1360 C1373 0.929 . S
H1361 C1371 0.929 . S
H1362 C1366 0.929 . S
H1363 C1372 0.929 . S
C1364 H1358 0.930 . S
C1364 C1365 1.367 . S
C1364 C1372 1.378 1_455 S
C1365 C1364 1.367 . S
C1365 C1373 1.433 1_455 S
C1366 H1362 0.929 . S
C1366 C1368 1.378 . S
C1366 C1370 1.350 . S
C1367 C1370 1.463 . S
C1367 C1372 1.350 . S
C1367 N1375 1.427 . S
C1368 H1359 0.930 . S
C1368 C1366 1.378 . S
C1368 C1369 1.367 . S
C1369 C1368 1.367 . S
C1369 C1371 1.433 . S
C1370 C1366 1.350 . S
C1370 C1367 1.463 . S
C1370 N1374 1.427 . S
C1371 H1361 0.929 . S
C1371 C1369 1.433 . S
C1371 N1374 1.384 . S
C1372 H1363 0.929 . S
C1372 C1364 1.378 1_655 S
C1372 C1367 1.350 . S
C1373 H1360 0.929 . S
C1373 C1365 1.433 1_655 S
C1373 N1375 1.384 . S
N1374 C1370 1.427 . S
N1374 C1371 1.384 . S
N1375 C1367 1.427 . S
N1375 C1373 1.384 . S
H1376 C1382 0.930 . S
H1377 C1386 0.930 . S
H1378 C1391 0.929 . S
H1379 C1389 0.929 . S
H1380 C1384 0.929 . S
H1381 C1390 0.929 . S
C1382 H1376 0.930 . S
C1382 C1383 1.367 . S
C1382 C1390 1.378 . S
C1383 C1382 1.367 . S
C1383 C1391 1.433 . S
C1384 H1380 0.929 . S
C1384 C1386 1.378 . S
C1384 C1388 1.350 . S
C1385 C1388 1.463 . S
C1385 C1390 1.350 . S
C1385 N1393 1.427 . S
C1386 H1377 0.930 . S
C1386 C1384 1.378 . S
C1386 C1387 1.367 . S
C1387 C1386 1.367 . S
C1387 C1389 1.433 . S
C1388 C1384 1.350 . S
C1388 C1385 1.463 . S
C1388 N1392 1.427 . S
C1389 H1379 0.929 . S
C1389 C1387 1.433 . S
C1389 N1392 1.384 . S
C1390 H1381 0.929 . S
C1390 C1382 1.378 . S
C1390 C1385 1.350 . S
C1391 H1378 0.929 . S
C1391 C1383 1.433 . S
C1391 N1393 1.384 . S
N1392 C1388 1.427 . S
N1392 C1389 1.384 . S
N1393 C1385 1.427 . S
N1393 C1391 1.384 . S
H1394 C1400 0.930 . S
H1395 C1404 0.930 . S
H1396 C1409 0.929 . S
H1397 C1407 0.929 . S
H1398 C1402 0.929 . S
H1399 C1408 0.929 . S
C1400 H1394 0.930 . S
C1400 C1401 1.367 . S
C1400 C1408 1.378 . S
C1401 C1400 1.367 . S
C1401 C1409 1.433 . S
C1402 H1398 0.929 . S
C1402 C1404 1.378 . S
C1402 C1406 1.350 . S
C1403 C1406 1.463 . S
C1403 C1408 1.350 . S
C1403 N1411 1.427 . S
C1404 H1395 0.930 . S
C1404 C1402 1.378 . S
C1404 C1405 1.367 . S
C1405 C1404 1.367 . S
C1405 C1407 1.433 . S
C1406 C1402 1.350 . S
C1406 C1403 1.463 . S
C1406 N1410 1.427 . S
C1407 H1397 0.929 . S
C1407 C1405 1.433 . S
C1407 N1410 1.384 . S
C1408 H1399 0.929 . S
C1408 C1400 1.378 . S
C1408 C1403 1.350 . S
C1409 H1396 0.929 . S
C1409 C1401 1.433 . S
C1409 N1411 1.384 . S
N1410 C1406 1.427 . S
N1410 C1407 1.384 . S
N1411 C1403 1.427 . S
N1411 C1409 1.384 . S
H1412 C1418 0.930 . S
H1413 C1422 0.930 . S
H1414 C1427 0.929 . S
H1415 C1425 0.929 . S
H1416 C1420 0.929 . S
H1417 C1426 0.929 . S
C1418 H1412 0.930 . S
C1418 C1419 1.367 . S
C1418 C1426 1.378 . S
C1419 C1418 1.367 . S
C1419 C1427 1.433 . S
C1420 H1416 0.929 . S
C1420 C1422 1.378 . S
C1420 C1424 1.350 . S
C1421 C1424 1.463 . S
C1421 C1426 1.350 . S
C1421 N1429 1.427 . S
C1422 H1413 0.930 . S
C1422 C1420 1.378 . S
C1422 C1423 1.367 . S
C1423 C1422 1.367 . S
C1423 C1425 1.433 . S
C1424 C1420 1.350 . S
C1424 C1421 1.463 . S
C1424 N1428 1.427 . S
C1425 H1415 0.929 . S
C1425 C1423 1.433 . S
C1425 N1428 1.384 . S
C1426 H1417 0.929 . S
C1426 C1418 1.378 . S
C1426 C1421 1.350 . S
C1427 H1414 0.929 . S
C1427 C1419 1.433 . S
C1427 N1429 1.384 . S
N1428 C1424 1.427 . S
N1428 C1425 1.384 . S
N1429 C1421 1.427 . S
N1429 C1427 1.384 . S
H1430 C1436 0.930 . S
H1431 C1440 0.930 . S
H1432 C1445 0.929 . S
H1433 C1443 0.929 . S
H1434 C1438 0.929 . S
H1435 C1444 0.929 . S
C1436 H1430 0.930 . S
C1436 C1437 1.367 . S
C1436 C1444 1.378 . S
C1437 C1436 1.367 . S
C1437 C1445 1.433 . S
C1438 H1434 0.929 . S
C1438 C1440 1.378 1_655 S
C1438 C1442 1.350 . S
C1439 C1442 1.463 . S
C1439 C1444 1.350 . S
C1439 N1447 1.427 . S
C1440 H1431 0.930 . S
C1440 C1438 1.378 1_455 S
C1440 C1441 1.367 . S
C1441 C1440 1.367 . S
C1441 C1443 1.433 1_455 S
C1442 C1438 1.350 . S
C1442 C1439 1.463 . S
C1442 N1446 1.427 . S
C1443 H1433 0.929 . S
C1443 C1441 1.433 1_655 S
C1443 N1446 1.384 . S
C1444 H1435 0.929 . S
C1444 C1436 1.378 . S
C1444 C1439 1.350 . S
C1445 H1432 0.929 . S
C1445 C1437 1.433 . S
C1445 N1447 1.384 . S
N1446 C1442 1.427 . S
N1446 C1443 1.384 . S
N1447 C1439 1.427 . S
N1447 C1445 1.384 . S
H1448 C1454 0.930 . S
H1449 C1458 0.930 . S
H1450 C1463 0.929 . S
H1451 C1461 0.929 . S
H1452 C1456 0.929 . S
H1453 C1462 0.929 . S
C1454 H1448 0.930 . S
C1454 C1455 1.367 . S
C1454 C1462 1.378 . S
C1455 C1454 1.367 . S
C1455 C1463 1.433 . S
C1456 H1452 0.929 . S
C1456 C1458 1.378 . S
C1456 C1460 1.350 . S
C1457 C1460 1.463 . S
C1457 C1462 1.350 . S
C1457 N1465 1.427 . S
C1458 H1449 0.930 . S
C1458 C1456 1.378 . S
C1458 C1459 1.367 . S
C1459 C1458 1.367 . S
C1459 C1461 1.433 . S
C1460 C1456 1.350 . S
C1460 C1457 1.463 . S
C1460 N1464 1.427 . S
C1461 H1451 0.929 . S
C1461 C1459 1.433 . S
C1461 N1464 1.384 . S
C1462 H1453 0.929 . S
C1462 C1454 1.378 . S
C1462 C1457 1.350 . S
C1463 H1450 0.929 . S
C1463 C1455 1.433 . S
C1463 N1465 1.384 . S
N1464 C1460 1.427 . S
N1464 C1461 1.384 . S
N1465 C1457 1.427 . S
N1465 C1463 1.384 . S
H1466 C1472 0.930 . S
H1467 C1476 0.930 . S
H1468 C1481 0.929 . S
H1469 C1479 0.929 . S
H1470 C1474 0.929 . S
H1471 C1480 0.929 . S
C1472 H1466 0.930 . S
C1472 C1473 1.367 . S
C1472 C1480 1.378 1_455 S
C1473 C1472 1.367 . S
C1473 C1481 1.433 1_455 S
C1474 H1470 0.929 . S
C1474 C1476 1.378 . S
C1474 C1478 1.350 . S
C1475 C1478 1.463 . S
C1475 C1480 1.350 . S
C1475 N1483 1.427 . S
C1476 H1467 0.930 . S
C1476 C1474 1.378 . S
C1476 C1477 1.367 . S
C1477 C1476 1.367 . S
C1477 C1479 1.433 . S
C1478 C1474 1.350 . S
C1478 C1475 1.463 . S
C1478 N1482 1.427 . S
C1479 H1469 0.929 . S
C1479 C1477 1.433 . S
C1479 N1482 1.384 . S
C1480 H1471 0.929 . S
C1480 C1472 1.378 1_655 S
C1480 C1475 1.350 . S
C1481 H1468 0.929 . S
C1481 C1473 1.433 1_655 S
C1481 N1483 1.384 . S
N1482 C1478 1.427 . S
N1482 C1479 1.384 . S
N1483 C1475 1.427 . S
N1483 C1481 1.384 . S
H1484 C1490 0.930 . S
H1485 C1494 0.930 . S
H1486 C1499 0.929 . S
H1487 C1497 0.929 . S
H1488 C1492 0.929 . S
H1489 C1498 0.929 . S
C1490 H1484 0.930 . S
C1490 C1491 1.367 . S
C1490 C1498 1.378 . S
C1491 C1490 1.367 . S
C1491 C1499 1.433 . S
C1492 H1488 0.929 . S
C1492 C1494 1.378 . S
C1492 C1496 1.350 . S
C1493 C1496 1.463 . S
C1493 C1498 1.350 . S
C1493 N1501 1.427 . S
C1494 H1485 0.930 . S
C1494 C1492 1.378 . S
C1494 C1495 1.367 . S
C1495 C1494 1.367 . S
C1495 C1497 1.433 . S
C1496 C1492 1.350 . S
C1496 C1493 1.463 . S
C1496 N1500 1.427 . S
C1497 H1487 0.929 . S
C1497 C1495 1.433 . S
C1497 N1500 1.384 . S
C1498 H1489 0.929 . S
C1498 C1490 1.378 . S
C1498 C1493 1.350 . S
C1499 H1486 0.929 . S
C1499 C1491 1.433 . S
C1499 N1501 1.384 . S
N1500 C1496 1.427 . S
N1500 C1497 1.384 . S
N1501 C1493 1.427 . S
N1501 C1499 1.384 . S
H1502 C1508 0.930 . S
H1503 C1512 0.930 . S
H1504 C1517 0.929 . S
H1505 C1515 0.929 . S
H1506 C1510 0.929 . S
H1507 C1516 0.929 . S
C1508 H1502 0.930 . S
C1508 C1509 1.367 . S
C1508 C1516 1.378 . S
C1509 C1508 1.367 . S
C1509 C1517 1.433 . S
C1510 H1506 0.929 . S
C1510 C1512 1.378 . S
C1510 C1514 1.350 . S
C1511 C1514 1.463 . S
C1511 C1516 1.350 . S
C1511 N1519 1.427 . S
C1512 H1503 0.930 . S
C1512 C1510 1.378 . S
C1512 C1513 1.367 . S
C1513 C1512 1.367 . S
C1513 C1515 1.433 . S
C1514 C1510 1.350 . S
C1514 C1511 1.463 . S
C1514 N1518 1.427 . S
C1515 H1505 0.929 . S
C1515 C1513 1.433 . S
C1515 N1518 1.384 . S
C1516 H1507 0.929 . S
C1516 C1508 1.378 . S
C1516 C1511 1.350 . S
C1517 H1504 0.929 . S
C1517 C1509 1.433 . S
C1517 N1519 1.384 . S
N1518 C1514 1.427 . S
N1518 C1515 1.384 . S
N1519 C1511 1.427 . S
N1519 C1517 1.384 . S
H1520 C1526 0.930 . S
H1521 C1530 0.930 . S
H1522 C1535 0.929 . S
H1523 C1533 0.929 . S
H1524 C1528 0.929 . S
H1525 C1534 0.929 . S
C1526 H1520 0.930 . S
C1526 C1527 1.367 . S
C1526 C1534 1.378 . S
C1527 C1526 1.367 . S
C1527 C1535 1.433 . S
C1528 H1524 0.929 . S
C1528 C1530 1.378 . S
C1528 C1532 1.350 . S
C1529 C1532 1.463 . S
C1529 C1534 1.350 . S
C1529 N1537 1.427 . S
C1530 H1521 0.930 . S
C1530 C1528 1.378 . S
C1530 C1531 1.367 . S
C1531 C1530 1.367 . S
C1531 C1533 1.433 . S
C1532 C1528 1.350 . S
C1532 C1529 1.463 . S
C1532 N1536 1.427 . S
C1533 H1523 0.929 . S
C1533 C1531 1.433 . S
C1533 N1536 1.384 . S
C1534 H1525 0.929 . S
C1534 C1526 1.378 . S
C1534 C1529 1.350 . S
C1535 H1522 0.929 . S
C1535 C1527 1.433 . S
C1535 N1537 1.384 . S
N1536 C1532 1.427 . S
N1536 C1533 1.384 . S
N1537 C1529 1.427 . S
N1537 C1535 1.384 . S
H1538 C1544 0.930 . S
H1539 C1548 0.930 . S
H1540 C1553 0.929 . S
H1541 C1551 0.929 . S
H1542 C1546 0.929 . S
H1543 C1552 0.929 . S
C1544 H1538 0.930 . S
C1544 C1545 1.367 . S
C1544 C1552 1.378 . S
C1545 C1544 1.367 . S
C1545 C1553 1.433 . S
C1546 H1542 0.929 . S
C1546 C1548 1.378 . S
C1546 C1550 1.350 . S
C1547 C1550 1.463 . S
C1547 C1552 1.350 . S
C1547 N1555 1.427 . S
C1548 H1539 0.930 . S
C1548 C1546 1.378 . S
C1548 C1549 1.367 . S
C1549 C1548 1.367 . S
C1549 C1551 1.433 . S
C1550 C1546 1.350 . S
C1550 C1547 1.463 . S
C1550 N1554 1.427 . S
C1551 H1541 0.929 . S
C1551 C1549 1.433 . S
C1551 N1554 1.384 . S
C1552 H1543 0.929 . S
C1552 C1544 1.378 . S
C1552 C1547 1.350 . S
C1553 H1540 0.929 . S
C1553 C1545 1.433 . S
C1553 N1555 1.384 . S
N1554 C1550 1.427 . S
N1554 C1551 1.384 . S
N1555 C1547 1.427 . S
N1555 C1553 1.384 . S
H1556 C1562 0.930 . S
H1557 C1566 0.930 . S
H1558 C1571 0.929 . S
H1559 C1569 0.929 . S
H1560 C1564 0.929 . S
H1561 C1570 0.929 . S
C1562 H1556 0.930 . S
C1562 C1563 1.367 . S
C1562 C1570 1.378 . S
C1563 C1562 1.367 . S
C1563 C1571 1.433 . S
C1564 H1560 0.929 . S
C1564 C1566 1.378 . S
C1564 C1568 1.350 . S
C1565 C1568 1.463 . S
C1565 C1570 1.350 . S
C1565 N1573 1.427 . S
C1566 H1557 0.930 . S
C1566 C1564 1.378 . S
C1566 C1567 1.367 . S
C1567 C1566 1.367 . S
C1567 C1569 1.433 . S
C1568 C1564 1.350 . S
C1568 C1565 1.463 . S
C1568 N1572 1.427 . S
C1569 H1559 0.929 . S
C1569 C1567 1.433 . S
C1569 N1572 1.384 . S
C1570 H1561 0.929 . S
C1570 C1562 1.378 . S
C1570 C1565 1.350 . S
C1571 H1558 0.929 . S
C1571 C1563 1.433 . S
C1571 N1573 1.384 . S
N1572 C1568 1.427 . S
N1572 C1569 1.384 . S
N1573 C1565 1.427 . S
N1573 C1571 1.384 . S
H1574 C1580 0.930 . S
H1575 C1584 0.930 . S
H1576 C1589 0.929 . S
H1577 C1587 0.929 . S
H1578 C1582 0.929 . S
H1579 C1588 0.929 . S
C1580 H1574 0.930 . S
C1580 C1581 1.367 . S
C1580 C1588 1.378 . S
C1581 C1580 1.367 . S
C1581 C1589 1.433 . S
C1582 H1578 0.929 . S
C1582 C1584 1.378 1_455 S
C1582 C1586 1.350 . S
C1583 C1586 1.463 . S
C1583 C1588 1.350 . S
C1583 N1591 1.427 . S
C1584 H1575 0.930 . S
C1584 C1582 1.378 1_655 S
C1584 C1585 1.367 . S
C1585 C1584 1.367 . S
C1585 C1587 1.433 1_655 S
C1586 C1582 1.350 . S
C1586 C1583 1.463 . S
C1586 N1590 1.427 . S
C1587 H1577 0.929 . S
C1587 C1585 1.433 1_455 S
C1587 N1590 1.384 . S
C1588 H1579 0.929 . S
C1588 C1580 1.378 . S
C1588 C1583 1.350 . S
C1589 H1576 0.929 . S
C1589 C1581 1.433 . S
C1589 N1591 1.384 . S
N1590 C1586 1.427 . S
N1590 C1587 1.384 . S
N1591 C1583 1.427 . S
N1591 C1589 1.384 . S
H1592 C1598 0.930 . S
H1593 C1602 0.930 . S
H1594 C1607 0.929 . S
H1595 C1605 0.929 . S
H1596 C1600 0.929 . S
H1597 C1606 0.929 . S
C1598 H1592 0.930 . S
C1598 C1599 1.367 . S
C1598 C1606 1.378 . S
C1599 C1598 1.367 . S
C1599 C1607 1.433 . S
C1600 H1596 0.929 . S
C1600 C1602 1.378 . S
C1600 C1604 1.350 . S
C1601 C1604 1.463 . S
C1601 C1606 1.350 . S
C1601 N1609 1.427 . S
C1602 H1593 0.930 . S
C1602 C1600 1.378 . S
C1602 C1603 1.367 . S
C1603 C1602 1.367 . S
C1603 C1605 1.433 . S
C1604 C1600 1.350 . S
C1604 C1601 1.463 . S
C1604 N1608 1.427 . S
C1605 H1595 0.929 . S
C1605 C1603 1.433 . S
C1605 N1608 1.384 . S
C1606 H1597 0.929 . S
C1606 C1598 1.378 . S
C1606 C1601 1.350 . S
C1607 H1594 0.929 . S
C1607 C1599 1.433 . S
C1607 N1609 1.384 . S
N1608 C1604 1.427 . S
N1608 C1605 1.384 . S
N1609 C1601 1.427 . S
N1609 C1607 1.384 . S
H1610 C1616 0.930 . S
H1611 C1620 0.930 1_655 S
H1612 C1625 0.929 . S
H1613 C1623 0.921 1_655 S
H1614 C1618 0.929 . S
H1615 C1624 0.929 . S
C1616 H1610 0.930 . S
C1616 C1617 1.367 . S
C1616 C1624 1.378 . S
C1617 C1616 1.367 . S
C1617 C1625 1.433 . S
C1618 H1614 0.929 . S
C1618 C1620 1.378 . S
C1618 C1622 1.350 . S
C1619 C1622 1.463 . S
C1619 C1624 1.350 . S
C1619 N1627 1.427 . S
C1620 H1611 0.930 1_455 S
C1620 C1618 1.378 . S
C1620 C1621 1.367 1_455 S
C1621 C1620 1.367 1_655 S
C1621 C1623 1.433 1_655 S
C1622 C1618 1.350 . S
C1622 C1619 1.463 . S
C1622 N1626 1.427 . S
C1623 H1613 0.921 1_455 S
C1623 C1621 1.433 1_455 S
C1623 N1626 1.384 . S
C1624 H1615 0.929 . S
C1624 C1616 1.378 . S
C1624 C1619 1.350 . S
C1625 H1612 0.929 . S
C1625 C1617 1.433 . S
C1625 N1627 1.384 . S
N1626 C1622 1.427 . S
N1626 C1623 1.384 . S
N1627 C1619 1.427 . S
N1627 C1625 1.384 . S
H1628 C1634 0.930 . S
H1629 C1638 0.930 . S
H1630 C1643 0.929 . S
H1631 C1641 0.929 . S
H1632 C1636 0.929 . S
H1633 C1642 0.929 . S
C1634 H1628 0.930 . S
C1634 C1635 1.367 . S
C1634 C1642 1.378 . S
C1635 C1634 1.367 . S
C1635 C1643 1.433 . S
C1636 H1632 0.929 . S
C1636 C1638 1.378 . S
C1636 C1640 1.350 . S
C1637 C1640 1.463 . S
C1637 C1642 1.350 . S
C1637 N1645 1.427 . S
C1638 H1629 0.930 . S
C1638 C1636 1.378 . S
C1638 C1639 1.367 . S
C1639 C1638 1.367 . S
C1639 C1641 1.433 . S
C1640 C1636 1.350 . S
C1640 C1637 1.463 . S
C1640 N1644 1.427 . S
C1641 H1631 0.929 . S
C1641 C1639 1.433 . S
C1641 N1644 1.384 . S
C1642 H1633 0.929 . S
C1642 C1634 1.378 . S
C1642 C1637 1.350 . S
C1643 H1630 0.929 . S
C1643 C1635 1.433 . S
C1643 N1645 1.384 . S
N1644 C1640 1.427 . S
N1644 C1641 1.384 . S
N1645 C1637 1.427 . S
N1645 C1643 1.384 . S
H1646 C1652 0.930 . S
H1647 C1656 0.930 . S
H1648 C1661 0.929 . S
H1649 C1659 0.929 . S
H1650 C1654 0.929 . S
H1651 C1660 0.929 . S
C1652 H1646 0.930 . S
C1652 C1653 1.367 . S
C1652 C1660 1.378 . S
C1653 C1652 1.367 . S
C1653 C1661 1.433 . S
C1654 H1650 0.929 . S
C1654 C1656 1.378 . S
C1654 C1658 1.350 . S
C1655 C1658 1.463 . S
C1655 C1660 1.350 . S
C1655 N1663 1.427 . S
C1656 H1647 0.930 . S
C1656 C1654 1.378 . S
C1656 C1657 1.367 . S
C1657 C1656 1.367 . S
C1657 C1659 1.433 . S
C1658 C1654 1.350 . S
C1658 C1655 1.463 . S
C1658 N1662 1.427 . S
C1659 H1649 0.929 . S
C1659 C1657 1.433 . S
C1659 N1662 1.384 . S
C1660 H1651 0.929 . S
C1660 C1652 1.378 . S
C1660 C1655 1.350 . S
C1661 H1648 0.929 . S
C1661 C1653 1.433 . S
C1661 N1663 1.384 . S
N1662 C1658 1.427 . S
N1662 C1659 1.384 . S
N1663 C1655 1.427 . S
N1663 C1661 1.384 . S
H1664 C1670 0.930 . S
H1665 C1674 0.930 . S
H1666 C1679 0.929 . S
H1667 C1677 0.929 . S
H1668 C1672 0.929 . S
H1669 C1678 0.929 . S
C1670 H1664 0.930 . S
C1670 C1671 1.367 1_545 S
C1670 C1678 1.378 1_545 S
C1671 C1670 1.367 1_565 S
C1671 C1679 1.433 . S
C1672 H1668 0.929 . S
C1672 C1674 1.378 . S
C1672 C1676 1.350 . S
C1673 C1676 1.463 . S
C1673 C1678 1.350 . S
C1673 N1681 1.427 . S
C1674 H1665 0.930 . S
C1674 C1672 1.378 . S
C1674 C1675 1.367 . S
C1675 C1674 1.367 . S
C1675 C1677 1.433 . S
C1676 C1672 1.350 . S
C1676 C1673 1.463 . S
C1676 N1680 1.427 . S
C1677 H1667 0.929 . S
C1677 C1675 1.433 . S
C1677 N1680 1.384 . S
C1678 H1669 0.929 . S
C1678 C1670 1.378 1_565 S
C1678 C1673 1.350 . S
C1679 H1666 0.929 . S
C1679 C1671 1.433 . S
C1679 N1681 1.384 . S
N1680 C1676 1.427 . S
N1680 C1677 1.384 . S
N1681 C1673 1.427 . S
N1681 C1679 1.384 . S
H1682 C1688 0.930 . S
H1683 C1692 0.930 . S
H1684 C1697 0.929 1_545 S
H1685 C1695 0.929 . S
H1686 C1690 0.929 . S
H1687 C1696 0.929 . S
C1688 H1682 0.930 . S
C1688 C1689 1.367 . S
C1688 C1696 1.378 . S
C1689 C1688 1.367 . S
C1689 C1697 1.433 . S
C1690 H1686 0.929 . S
C1690 C1692 1.378 . S
C1690 C1694 1.350 . S
C1691 C1694 1.463 . S
C1691 C1696 1.350 . S
C1691 N1699 1.427 . S
C1692 H1683 0.930 . S
C1692 C1690 1.378 . S
C1692 C1693 1.367 . S
C1693 C1692 1.367 . S
C1693 C1695 1.433 . S
C1694 C1690 1.350 . S
C1694 C1691 1.463 . S
C1694 N1698 1.427 . S
C1695 H1685 0.929 . S
C1695 C1693 1.433 . S
C1695 N1698 1.384 . S
C1696 H1687 0.929 . S
C1696 C1688 1.378 . S
C1696 C1691 1.350 . S
C1697 H1684 0.929 1_565 S
C1697 C1689 1.433 . S
C1697 N1699 1.384 . S
N1698 C1694 1.427 . S
N1698 C1695 1.384 . S
N1699 C1691 1.427 . S
N1699 C1697 1.384 . S
H1700 C1706 0.930 . S
H1701 C1710 0.930 . S
H1702 C1715 0.929 . S
H1703 C1713 0.928 . S
H1704 C1708 0.929 . S
H1705 C1714 0.929 . S
C1706 H1700 0.930 . S
C1706 C1707 1.367 . S
C1706 C1714 1.378 . S
C1707 C1706 1.367 . S
C1707 C1715 1.433 . S
C1708 H1704 0.929 . S
C1708 C1710 1.378 . S
C1708 C1712 1.350 . S
C1709 C1712 1.463 . S
C1709 C1714 1.350 . S
C1709 N1717 1.427 . S
C1710 H1701 0.930 . S
C1710 C1708 1.378 . S
C1710 C1711 1.367 . S
C1711 C1710 1.367 . S
C1711 C1713 1.433 . S
C1712 C1708 1.350 . S
C1712 C1709 1.463 . S
C1712 N1716 1.427 . S
C1713 H1703 0.928 . S
C1713 C1711 1.433 . S
C1713 N1716 1.384 . S
C1714 H1705 0.929 . S
C1714 C1706 1.378 . S
C1714 C1709 1.350 . S
C1715 H1702 0.929 . S
C1715 C1707 1.433 . S
C1715 N1717 1.384 . S
N1716 C1712 1.427 . S
N1716 C1713 1.384 . S
N1717 C1709 1.427 . S
N1717 C1715 1.384 . S
H1718 C1724 0.930 . S
H1719 C1728 0.930 . S
H1720 C1733 0.929 . S
H1721 C1731 0.929 . S
H1722 C1726 0.940 . S
H1723 C1732 0.929 . S
C1724 H1718 0.930 . S
C1724 C1725 1.367 . S
C1724 C1732 1.378 . S
C1725 C1724 1.367 . S
C1725 C1733 1.433 . S
C1726 H1722 0.940 . S
C1726 C1728 1.378 1_545 S
C1726 C1730 1.350 . S
C1727 C1730 1.463 . S
C1727 C1732 1.350 . S
C1727 N1735 1.427 . S
C1728 H1719 0.930 . S
C1728 C1726 1.378 1_565 S
C1728 C1729 1.367 1_565 S
C1729 C1728 1.367 1_545 S
C1729 C1731 1.433 . S
C1730 C1726 1.350 . S
C1730 C1727 1.463 . S
C1730 N1734 1.427 . S
C1731 H1721 0.929 . S
C1731 C1729 1.433 . S
C1731 N1734 1.384 . S
C1732 H1723 0.929 . S
C1732 C1724 1.378 . S
C1732 C1727 1.350 . S
C1733 H1720 0.929 . S
C1733 C1725 1.433 . S
C1733 N1735 1.384 . S
N1734 C1730 1.427 . S
N1734 C1731 1.384 . S
N1735 C1727 1.427 . S
N1735 C1733 1.384 . S
H1736 C1742 0.930 . S
H1737 C1746 0.930 . S
H1738 C1751 0.929 . S
H1739 C1749 0.929 . S
H1740 C1744 0.929 . S
H1741 C1750 0.929 . S
C1742 H1736 0.930 . S
C1742 C1743 1.367 . S
C1742 C1750 1.378 . S
C1743 C1742 1.367 . S
C1743 C1751 1.433 1_545 S
C1744 H1740 0.929 . S
C1744 C1746 1.378 . S
C1744 C1748 1.350 . S
C1745 C1748 1.463 . S
C1745 C1750 1.350 . S
C1745 N1753 1.427 . S
C1746 H1737 0.930 . S
C1746 C1744 1.378 . S
C1746 C1747 1.367 . S
C1747 C1746 1.367 . S
C1747 C1749 1.433 . S
C1748 C1744 1.350 . S
C1748 C1745 1.463 . S
C1748 N1752 1.427 . S
C1749 H1739 0.929 . S
C1749 C1747 1.433 . S
C1749 N1752 1.384 . S
C1750 H1741 0.929 . S
C1750 C1742 1.378 . S
C1750 C1745 1.350 . S
C1751 H1738 0.929 . S
C1751 C1743 1.433 1_565 S
C1751 N1753 1.384 1_565 S
N1752 C1748 1.427 . S
N1752 C1749 1.384 . S
N1753 C1745 1.427 . S
N1753 C1751 1.384 1_545 S
H1754 C1760 0.930 . S
H1755 C1764 0.930 . S
H1756 C1769 0.929 . S
H1757 C1767 0.929 . S
H1758 C1762 0.929 . S
H1759 C1768 0.929 . S
C1760 H1754 0.930 . S
C1760 C1761 1.367 . S
C1760 C1768 1.378 . S
C1761 C1760 1.367 . S
C1761 C1769 1.433 . S
C1762 H1758 0.929 . S
C1762 C1764 1.378 . S
C1762 C1766 1.350 . S
C1763 C1766 1.463 . S
C1763 C1768 1.350 . S
C1763 N1771 1.427 . S
C1764 H1755 0.930 . S
C1764 C1762 1.378 . S
C1764 C1765 1.367 . S
C1765 C1764 1.367 . S
C1765 C1767 1.433 . S
C1766 C1762 1.350 . S
C1766 C1763 1.463 . S
C1766 N1770 1.427 . S
C1767 H1757 0.929 . S
C1767 C1765 1.433 . S
C1767 N1770 1.384 . S
C1768 H1759 0.929 . S
C1768 C1760 1.378 . S
C1768 C1763 1.350 . S
C1769 H1756 0.929 . S
C1769 C1761 1.433 . S
C1769 N1771 1.384 . S
N1770 C1766 1.427 . S
N1770 C1767 1.384 . S
N1771 C1763 1.427 . S
N1771 C1769 1.384 . S
H1772 C1778 0.930 . S
H1773 C1782 0.930 . S
H1774 C1787 0.929 . S
H1775 C1785 0.929 . S
H1776 C1780 0.929 . S
H1777 C1786 0.929 . S
C1778 H1772 0.930 . S
C1778 C1779 1.367 1_545 S
C1778 C1786 1.378 1_545 S
C1779 C1778 1.367 1_565 S
C1779 C1787 1.433 . S
C1780 H1776 0.929 . S
C1780 C1782 1.378 . S
C1780 C1784 1.350 . S
C1781 C1784 1.463 . S
C1781 C1786 1.350 . S
C1781 N1789 1.427 . S
C1782 H1773 0.930 . S
C1782 C1780 1.378 . S
C1782 C1783 1.367 . S
C1783 C1782 1.367 . S
C1783 C1785 1.433 . S
C1784 C1780 1.350 . S
C1784 C1781 1.463 . S
C1784 N1788 1.427 . S
C1785 H1775 0.929 . S
C1785 C1783 1.433 . S
C1785 N1788 1.384 . S
C1786 H1777 0.929 . S
C1786 C1778 1.378 1_565 S
C1786 C1781 1.350 . S
C1787 H1774 0.929 . S
C1787 C1779 1.433 . S
C1787 N1789 1.384 . S
N1788 C1784 1.427 . S
N1788 C1785 1.384 . S
N1789 C1781 1.427 . S
N1789 C1787 1.384 . S
H1790 C1796 0.930 . S
H1791 C1800 0.930 1_545 S
H1792 C1805 0.929 . S
H1793 C1803 0.929 . S
H1794 C1798 0.929 . S
H1795 C1804 0.929 . S
C1796 H1790 0.930 . S
C1796 C1797 1.367 . S
C1796 C1804 1.378 . S
C1797 C1796 1.367 . S
C1797 C1805 1.433 . S
C1798 H1794 0.929 . S
C1798 C1800 1.378 . S
C1798 C1802 1.350 . S
C1799 C1802 1.463 . S
C1799 C1804 1.350 . S
C1799 N1807 1.427 . S
C1800 H1791 0.930 1_565 S
C1800 C1798 1.378 . S
C1800 C1801 1.367 . S
C1801 C1800 1.367 . S
C1801 C1803 1.433 . S
C1802 C1798 1.350 . S
C1802 C1799 1.463 . S
C1802 N1806 1.427 . S
C1803 H1793 0.929 . S
C1803 C1801 1.433 . S
C1803 N1806 1.384 . S
C1804 H1795 0.929 . S
C1804 C1796 1.378 . S
C1804 C1799 1.350 . S
C1805 H1792 0.929 . S
C1805 C1797 1.433 . S
C1805 N1807 1.384 . S
N1806 C1802 1.427 . S
N1806 C1803 1.384 . S
N1807 C1799 1.427 . S
N1807 C1805 1.384 . S
H1808 C1814 0.930 . S
H1809 C1818 0.930 . S
H1810 C1823 0.929 . S
H1811 C1821 0.929 . S
H1812 C1816 0.929 . S
H1813 C1822 0.929 . S
C1814 H1808 0.930 . S
C1814 C1815 1.367 . S
C1814 C1822 1.378 . S
C1815 C1814 1.367 . S
C1815 C1823 1.433 . S
C1816 H1812 0.929 . S
C1816 C1818 1.378 . S
C1816 C1820 1.350 . S
C1817 C1820 1.463 . S
C1817 C1822 1.350 . S
C1817 N1825 1.427 . S
C1818 H1809 0.930 . S
C1818 C1816 1.378 . S
C1818 C1819 1.367 . S
C1819 C1818 1.367 . S
C1819 C1821 1.433 . S
C1820 C1816 1.350 . S
C1820 C1817 1.463 . S
C1820 N1824 1.427 . S
C1821 H1811 0.929 . S
C1821 C1819 1.433 . S
C1821 N1824 1.384 . S
C1822 H1813 0.929 . S
C1822 C1814 1.378 . S
C1822 C1817 1.350 . S
C1823 H1810 0.929 . S
C1823 C1815 1.433 . S
C1823 N1825 1.384 . S
N1824 C1820 1.427 . S
N1824 C1821 1.384 . S
N1825 C1817 1.427 . S
N1825 C1823 1.384 . S
H1826 C1832 0.930 . S
H1827 C1836 0.930 . S
H1828 C1841 0.929 . S
H1829 C1839 0.929 . S
H1830 C1834 0.929 . S
H1831 C1840 0.929 . S
C1832 H1826 0.930 . S
C1832 C1833 1.367 . S
C1832 C1840 1.378 . S
C1833 C1832 1.367 . S
C1833 C1841 1.433 . S
C1834 H1830 0.929 . S
C1834 C1836 1.378 . S
C1834 C1838 1.350 . S
C1835 C1838 1.463 . S
C1835 C1840 1.350 . S
C1835 N1843 1.427 . S
C1836 H1827 0.930 . S
C1836 C1834 1.378 . S
C1836 C1837 1.367 . S
C1837 C1836 1.367 . S
C1837 C1839 1.433 . S
C1838 C1834 1.350 . S
C1838 C1835 1.463 . S
C1838 N1842 1.427 . S
C1839 H1829 0.929 . S
C1839 C1837 1.433 . S
C1839 N1842 1.384 . S
C1840 H1831 0.929 . S
C1840 C1832 1.378 . S
C1840 C1835 1.350 . S
C1841 H1828 0.929 . S
C1841 C1833 1.433 . S
C1841 N1843 1.384 . S
N1842 C1838 1.427 . S
N1842 C1839 1.384 . S
N1843 C1835 1.427 . S
N1843 C1841 1.384 . S
H1844 C1850 0.930 . S
H1845 C1854 0.930 . S
H1846 C1859 0.929 . S
H1847 C1857 0.929 . S
H1848 C1852 0.929 . S
H1849 C1858 0.929 . S
C1850 H1844 0.930 . S
C1850 C1851 1.367 . S
C1850 C1858 1.378 . S
C1851 C1850 1.367 . S
C1851 C1859 1.433 . S
C1852 H1848 0.929 . S
C1852 C1854 1.378 . S
C1852 C1856 1.350 . S
C1853 C1856 1.463 . S
C1853 C1858 1.350 . S
C1853 N1861 1.427 . S
C1854 H1845 0.930 . S
C1854 C1852 1.378 . S
C1854 C1855 1.367 . S
C1855 C1854 1.367 . S
C1855 C1857 1.433 . S
C1856 C1852 1.350 . S
C1856 C1853 1.463 . S
C1856 N1860 1.427 . S
C1857 H1847 0.929 . S
C1857 C1855 1.433 . S
C1857 N1860 1.384 . S
C1858 H1849 0.929 . S
C1858 C1850 1.378 . S
C1858 C1853 1.350 . S
C1859 H1846 0.929 . S
C1859 C1851 1.433 . S
C1859 N1861 1.384 . S
N1860 C1856 1.427 . S
N1860 C1857 1.384 . S
N1861 C1853 1.427 . S
N1861 C1859 1.384 . S
H1862 C1868 0.930 . S
H1863 C1872 0.930 . S
H1864 C1877 0.929 . S
H1865 C1875 0.929 . S
H1866 C1870 0.929 . S
H1867 C1876 0.929 . S
C1868 H1862 0.930 . S
C1868 C1869 1.367 . S
C1868 C1876 1.378 . S
C1869 C1868 1.367 . S
C1869 C1877 1.433 . S
C1870 H1866 0.929 . S
C1870 C1872 1.378 . S
C1870 C1874 1.350 . S
C1871 C1874 1.463 . S
C1871 C1876 1.350 . S
C1871 N1879 1.427 . S
C1872 H1863 0.930 . S
C1872 C1870 1.378 . S
C1872 C1873 1.367 . S
C1873 C1872 1.367 . S
C1873 C1875 1.433 . S
C1874 C1870 1.350 . S
C1874 C1871 1.463 . S
C1874 N1878 1.427 . S
C1875 H1865 0.929 . S
C1875 C1873 1.433 . S
C1875 N1878 1.384 . S
C1876 H1867 0.929 . S
C1876 C1868 1.378 . S
C1876 C1871 1.350 . S
C1877 H1864 0.929 . S
C1877 C1869 1.433 . S
C1877 N1879 1.384 . S
N1878 C1874 1.427 . S
N1878 C1875 1.384 . S
N1879 C1871 1.427 . S
N1879 C1877 1.384 . S
H1880 C1886 0.930 . S
H1881 C1890 0.930 . S
H1882 C1895 0.929 . S
H1883 C1893 0.929 . S
H1884 C1888 0.929 . S
H1885 C1894 0.929 . S
C1886 H1880 0.930 . S
C1886 C1887 1.367 . S
C1886 C1894 1.378 . S
C1887 C1886 1.367 . S
C1887 C1895 1.433 . S
C1888 H1884 0.929 . S
C1888 C1890 1.378 . S
C1888 C1892 1.350 . S
C1889 C1892 1.463 . S
C1889 C1894 1.350 . S
C1889 N1897 1.427 . S
C1890 H1881 0.930 . S
C1890 C1888 1.378 . S
C1890 C1891 1.367 . S
C1891 C1890 1.367 . S
C1891 C1893 1.433 . S
C1892 C1888 1.350 . S
C1892 C1889 1.463 . S
C1892 N1896 1.427 . S
C1893 H1883 0.929 . S
C1893 C1891 1.433 . S
C1893 N1896 1.384 . S
C1894 H1885 0.929 . S
C1894 C1886 1.378 . S
C1894 C1889 1.350 . S
C1895 H1882 0.929 . S
C1895 C1887 1.433 . S
C1895 N1897 1.384 . S
N1896 C1892 1.427 . S
N1896 C1893 1.384 . S
N1897 C1889 1.427 . S
N1897 C1895 1.384 . S
H1898 C1904 0.930 . S
H1899 C1908 0.930 . S
H1900 C1913 0.929 . S
H1901 C1911 0.929 . S
H1902 C1906 0.929 . S
H1903 C1912 0.929 . S
C1904 H1898 0.930 . S
C1904 C1905 1.367 . S
C1904 C1912 1.378 . S
C1905 C1904 1.367 . S
C1905 C1913 1.433 . S
C1906 H1902 0.929 . S
C1906 C1908 1.378 . S
C1906 C1910 1.350 . S
C1907 C1910 1.463 . S
C1907 C1912 1.350 . S
C1907 N1915 1.427 . S
C1908 H1899 0.930 . S
C1908 C1906 1.378 . S
C1908 C1909 1.367 . S
C1909 C1908 1.367 . S
C1909 C1911 1.433 . S
C1910 C1906 1.350 . S
C1910 C1907 1.463 . S
C1910 N1914 1.427 . S
C1911 H1901 0.929 . S
C1911 C1909 1.433 . S
C1911 N1914 1.384 . S
C1912 H1903 0.929 . S
C1912 C1904 1.378 . S
C1912 C1907 1.350 . S
C1913 H1900 0.929 . S
C1913 C1905 1.433 . S
C1913 N1915 1.384 . S
N1914 C1910 1.427 . S
N1914 C1911 1.384 . S
N1915 C1907 1.427 . S
N1915 C1913 1.384 . S
H1916 C1922 0.930 . S
H1917 C1926 0.930 . S
H1918 C1931 0.929 . S
H1919 C1929 0.929 . S
H1920 C1924 0.929 . S
H1921 C1930 0.929 . S
C1922 H1916 0.930 . S
C1922 C1923 1.367 . S
C1922 C1930 1.378 . S
C1923 C1922 1.367 . S
C1923 C1931 1.433 . S
C1924 H1920 0.929 . S
C1924 C1926 1.378 . S
C1924 C1928 1.350 . S
C1925 C1928 1.463 . S
C1925 C1930 1.350 . S
C1925 N1933 1.427 . S
C1926 H1917 0.930 . S
C1926 C1924 1.378 . S
C1926 C1927 1.367 . S
C1927 C1926 1.367 . S
C1927 C1929 1.433 . S
C1928 C1924 1.350 . S
C1928 C1925 1.463 . S
C1928 N1932 1.427 . S
C1929 H1919 0.929 . S
C1929 C1927 1.433 . S
C1929 N1932 1.384 . S
C1930 H1921 0.929 . S
C1930 C1922 1.378 . S
C1930 C1925 1.350 . S
C1931 H1918 0.929 . S
C1931 C1923 1.433 . S
C1931 N1933 1.384 . S
N1932 C1928 1.427 . S
N1932 C1929 1.384 . S
N1933 C1925 1.427 . S
N1933 C1931 1.384 . S
H1934 C1940 0.930 . S
H1935 C1944 0.930 . S
H1936 C1949 0.929 . S
H1937 C1947 0.929 . S
H1938 C1942 0.929 . S
H1939 C1948 0.929 . S
C1940 H1934 0.930 . S
C1940 C1941 1.367 . S
C1940 C1948 1.378 . S
C1941 C1940 1.367 . S
C1941 C1949 1.433 . S
C1942 H1938 0.929 . S
C1942 C1944 1.378 . S
C1942 C1946 1.350 . S
C1943 C1946 1.463 . S
C1943 C1948 1.350 . S
C1943 N1951 1.427 . S
C1944 H1935 0.930 . S
C1944 C1942 1.378 . S
C1944 C1945 1.367 . S
C1945 C1944 1.367 . S
C1945 C1947 1.433 . S
C1946 C1942 1.350 . S
C1946 C1943 1.463 . S
C1946 N1950 1.427 . S
C1947 H1937 0.929 . S
C1947 C1945 1.433 . S
C1947 N1950 1.384 . S
C1948 H1939 0.929 . S
C1948 C1940 1.378 . S
C1948 C1943 1.350 . S
C1949 H1936 0.929 . S
C1949 C1941 1.433 . S
C1949 N1951 1.384 . S
N1950 C1946 1.427 . S
N1950 C1947 1.384 . S
N1951 C1943 1.427 . S
N1951 C1949 1.384 . S
H1952 C1958 0.930 . S
H1953 C1962 0.930 . S
H1954 C1967 0.929 . S
H1955 C1965 0.929 . S
H1956 C1960 0.895 1_545 S
H1957 C1966 0.895 1_565 S
C1958 H1952 0.930 . S
C1958 C1959 1.367 . S
C1958 C1966 1.402 . S
C1959 C1958 1.367 . S
C1959 C1967 1.433 . S
C1960 H1956 0.895 1_565 S
C1960 C1962 1.402 . S
C1960 C1964 1.361 . S
C1961 C1964 1.463 1_545 S
C1961 C1966 1.361 . S
C1961 N1969 1.427 . S
C1962 H1953 0.930 . S
C1962 C1960 1.402 . S
C1962 C1963 1.367 . S
C1963 C1962 1.367 . S
C1963 C1965 1.433 . S
C1964 C1960 1.361 . S
C1964 C1961 1.463 1_565 S
C1964 N1968 1.427 . S
C1965 H1955 0.929 . S
C1965 C1963 1.433 . S
C1965 N1968 1.384 . S
C1966 H1957 0.895 1_545 S
C1966 C1958 1.402 . S
C1966 C1961 1.361 . S
C1967 H1954 0.929 . S
C1967 C1959 1.433 . S
C1967 N1969 1.384 . S
N1968 C1964 1.427 . S
N1968 C1965 1.384 . S
N1969 C1961 1.427 . S
N1969 C1967 1.384 . S
H1970 C1976 0.930 . S
H1971 C1980 0.930 . S
H1972 C1985 0.929 . S
H1973 C1983 0.929 . S
H1974 C1978 0.929 . S
H1975 C1984 0.929 . S
C1976 H1970 0.930 . S
C1976 C1977 1.367 . S
C1976 C1984 1.378 . S
C1977 C1976 1.367 . S
C1977 C1985 1.433 . S
C1978 H1974 0.929 . S
C1978 C1980 1.378 . S
C1978 C1982 1.350 . S
C1979 C1982 1.463 . S
C1979 C1984 1.350 . S
C1979 N1987 1.427 . S
C1980 H1971 0.930 . S
C1980 C1978 1.378 . S
C1980 C1981 1.367 . S
C1981 C1980 1.367 . S
C1981 C1983 1.433 . S
C1982 C1978 1.350 . S
C1982 C1979 1.463 . S
C1982 N1986 1.427 . S
C1983 H1973 0.929 . S
C1983 C1981 1.433 . S
C1983 N1986 1.384 . S
C1984 H1975 0.929 . S
C1984 C1976 1.378 . S
C1984 C1979 1.350 . S
C1985 H1972 0.929 . S
C1985 C1977 1.433 . S
C1985 N1987 1.384 . S
N1986 C1982 1.427 . S
N1986 C1983 1.384 . S
N1987 C1979 1.427 . S
N1987 C1985 1.384 . S
H1988 C1994 0.930 . S
H1989 C1998 0.930 . S
H1990 C2003 0.929 . S
H1991 C2001 0.929 . S
H1992 C1996 0.929 . S
H1993 C2002 0.929 . S
C1994 H1988 0.930 . S
C1994 C1995 1.367 . S
C1994 C2002 1.378 . S
C1995 C1994 1.367 . S
C1995 C2003 1.433 . S
C1996 H1992 0.929 . S
C1996 C1998 1.378 . S
C1996 C2000 1.350 . S
C1997 C2000 1.463 1_545 S
C1997 C2002 1.350 . S
C1997 N2005 1.427 . S
C1998 H1989 0.930 . S
C1998 C1996 1.378 . S
C1998 C1999 1.367 . S
C1999 C1998 1.367 . S
C1999 C2001 1.433 . S
C2000 C1996 1.350 . S
C2000 C1997 1.463 1_565 S
C2000 N2004 1.427 . S
C2001 H1991 0.929 . S
C2001 C1999 1.433 . S
C2001 N2004 1.384 . S
C2002 H1993 0.929 . S
C2002 C1994 1.378 . S
C2002 C1997 1.350 . S
C2003 H1990 0.929 . S
C2003 C1995 1.433 . S
C2003 N2005 1.384 . S
N2004 C2000 1.427 . S
N2004 C2001 1.384 . S
N2005 C1997 1.427 . S
N2005 C2003 1.384 . S
H2006 C2012 0.930 . S
H2007 C2016 0.930 . S
H2008 C2021 0.929 . S
H2009 C2019 0.929 . S
H2010 C2014 0.929 . S
H2011 C2020 0.929 . S
C2012 H2006 0.930 . S
C2012 C2013 1.367 . S
C2012 C2020 1.378 . S
C2013 C2012 1.367 . S
C2013 C2021 1.433 . S
C2014 H2010 0.929 . S
C2014 C2016 1.378 . S
C2014 C2018 1.350 . S
C2015 C2018 1.463 1_556 S
C2015 C2020 1.350 . S
C2015 N2023 1.427 . S
C2016 H2007 0.930 . S
C2016 C2014 1.378 . S
C2016 C2017 1.367 . S
C2017 C2016 1.367 . S
C2017 C2019 1.433 . S
C2018 C2014 1.350 . S
C2018 C2015 1.463 1_554 S
C2018 N2022 1.427 . S
C2019 H2009 0.929 . S
C2019 C2017 1.433 . S
C2019 N2022 1.384 . S
C2020 H2011 0.929 . S
C2020 C2012 1.378 . S
C2020 C2015 1.350 . S
C2021 H2008 0.929 . S
C2021 C2013 1.433 . S
C2021 N2023 1.384 . S
N2022 C2018 1.427 . S
N2022 C2019 1.384 . S
N2023 C2015 1.427 . S
N2023 C2021 1.384 . S
H2024 C2030 0.930 . S
H2025 C2034 0.930 . S
H2026 C2039 0.929 . S
H2027 C2037 0.929 . S
H2028 C2032 0.929 . S
H2029 C2038 0.929 . S
C2030 H2024 0.930 . S
C2030 C2031 1.367 . S
C2030 C2038 1.378 . S
C2031 C2030 1.367 . S
C2031 C2039 1.433 . S
C2032 H2028 0.929 . S
C2032 C2034 1.378 . S
C2032 C2036 1.350 . S
C2033 C2036 1.463 1_565 S
C2033 C2038 1.350 . S
C2033 N2041 1.427 . S
C2034 H2025 0.930 . S
C2034 C2032 1.378 . S
C2034 C2035 1.367 . S
C2035 C2034 1.367 . S
C2035 C2037 1.433 . S
C2036 C2032 1.350 . S
C2036 C2033 1.463 1_545 S
C2036 N2040 1.427 . S
C2037 H2027 0.929 . S
C2037 C2035 1.433 . S
C2037 N2040 1.384 . S
C2038 H2029 0.929 . S
C2038 C2030 1.378 . S
C2038 C2033 1.350 . S
C2039 H2026 0.929 . S
C2039 C2031 1.433 . S
C2039 N2041 1.384 . S
N2040 C2036 1.427 . S
N2040 C2037 1.384 . S
N2041 C2033 1.427 . S
N2041 C2039 1.384 . S
H2042 C2048 0.930 . S
H2043 C2052 0.930 . S
H2044 C2057 0.929 . S
H2045 C2055 0.929 . S
H2046 C2050 0.929 . S
H2047 C2056 0.929 . S
C2048 H2042 0.930 . S
C2048 C2049 1.367 . S
C2048 C2056 1.378 . S
C2049 C2048 1.367 . S
C2049 C2057 1.433 . S
C2050 H2046 0.929 . S
C2050 C2052 1.378 . S
C2050 C2054 1.350 . S
C2051 C2054 1.463 . S
C2051 C2056 1.350 . S
C2051 N2059 1.427 . S
C2052 H2043 0.930 . S
C2052 C2050 1.378 . S
C2052 C2053 1.367 . S
C2053 C2052 1.367 . S
C2053 C2055 1.433 . S
C2054 C2050 1.350 . S
C2054 C2051 1.463 . S
C2054 N2058 1.427 . S
C2055 H2045 0.929 . S
C2055 C2053 1.433 . S
C2055 N2058 1.384 . S
C2056 H2047 0.929 . S
C2056 C2048 1.378 . S
C2056 C2051 1.350 . S
C2057 H2044 0.929 . S
C2057 C2049 1.433 . S
C2057 N2059 1.384 . S
N2058 C2054 1.427 . S
N2058 C2055 1.384 . S
N2059 C2051 1.427 . S
N2059 C2057 1.384 . S
H2060 C2066 0.930 . S
H2061 C2070 0.930 . S
H2062 C2075 0.929 . S
H2063 C2073 0.929 . S
H2064 C2068 0.929 . S
H2065 C2074 0.929 . S
C2066 H2060 0.930 . S
C2066 C2067 1.367 . S
C2066 C2074 1.378 . S
C2067 C2066 1.367 . S
C2067 C2075 1.433 . S
C2068 H2064 0.929 . S
C2068 C2070 1.378 . S
C2068 C2072 1.350 . S
C2069 C2072 1.463 1_545 S
C2069 C2074 1.350 . S
C2069 N2077 1.427 . S
C2070 H2061 0.930 . S
C2070 C2068 1.378 . S
C2070 C2071 1.367 . S
C2071 C2070 1.367 . S
C2071 C2073 1.433 . S
C2072 C2068 1.350 . S
C2072 C2069 1.463 1_565 S
C2072 N2076 1.427 . S
C2073 H2063 0.929 . S
C2073 C2071 1.433 . S
C2073 N2076 1.384 . S
C2074 H2065 0.929 . S
C2074 C2066 1.378 . S
C2074 C2069 1.350 . S
C2075 H2062 0.929 . S
C2075 C2067 1.433 . S
C2075 N2077 1.384 . S
N2076 C2072 1.427 . S
N2076 C2073 1.384 . S
N2077 C2069 1.427 . S
N2077 C2075 1.384 . S
H2078 C2084 0.930 . S
H2079 C2088 0.930 . S
H2080 C2093 0.929 . S
H2081 C2091 0.929 . S
H2082 C2086 0.929 . S
H2083 C2092 0.929 . S
C2084 H2078 0.930 . S
C2084 C2085 1.367 . S
C2084 C2092 1.378 . S
C2085 C2084 1.367 . S
C2085 C2093 1.433 . S
C2086 H2082 0.929 . S
C2086 C2088 1.378 . S
C2086 C2090 1.350 . S
C2087 C2090 1.463 1_554 S
C2087 C2092 1.350 . S
C2087 N2095 1.427 . S
C2088 H2079 0.930 . S
C2088 C2086 1.378 . S
C2088 C2089 1.367 . S
C2089 C2088 1.367 . S
C2089 C2091 1.433 . S
C2090 C2086 1.350 . S
C2090 C2087 1.463 1_556 S
C2090 N2094 1.427 . S
C2091 H2081 0.929 . S
C2091 C2089 1.433 . S
C2091 N2094 1.384 . S
C2092 H2083 0.929 . S
C2092 C2084 1.378 . S
C2092 C2087 1.350 . S
C2093 H2080 0.929 . S
C2093 C2085 1.433 . S
C2093 N2095 1.384 . S
N2094 C2090 1.427 . S
N2094 C2091 1.384 . S
N2095 C2087 1.427 . S
N2095 C2093 1.384 . S
H2096 C2102 0.930 . S
H2097 C2106 0.930 . S
H2098 C2111 0.929 . S
H2099 C2109 0.929 . S
H2100 C2104 0.929 . S
H2101 C2110 0.929 . S
C2102 H2096 0.930 . S
C2102 C2103 1.367 . S
C2102 C2110 1.378 . S
C2103 C2102 1.367 . S
C2103 C2111 1.433 . S
C2104 H2100 0.929 . S
C2104 C2106 1.378 . S
C2104 C2108 1.350 . S
C2105 C2108 1.463 . S
C2105 C2110 1.350 . S
C2105 N2113 1.427 . S
C2106 H2097 0.930 . S
C2106 C2104 1.378 . S
C2106 C2107 1.367 . S
C2107 C2106 1.367 . S
C2107 C2109 1.433 . S
C2108 C2104 1.350 . S
C2108 C2105 1.463 . S
C2108 N2112 1.427 . S
C2109 H2099 0.929 . S
C2109 C2107 1.433 . S
C2109 N2112 1.384 . S
C2110 H2101 0.929 . S
C2110 C2102 1.378 . S
C2110 C2105 1.350 . S
C2111 H2098 0.929 . S
C2111 C2103 1.433 . S
C2111 N2113 1.384 . S
N2112 C2108 1.427 . S
N2112 C2109 1.384 . S
N2113 C2105 1.427 . S
N2113 C2111 1.384 . S
H2114 C2120 0.930 . S
H2115 C2124 0.930 . S
H2116 C2129 0.929 . S
H2117 C2127 0.929 . S
H2118 C2122 0.929 1_554 S
H2119 C2128 0.929 1_556 S
C2120 H2114 0.930 . S
C2120 C2121 1.367 . S
C2120 C2128 1.378 . S
C2121 C2120 1.367 . S
C2121 C2129 1.433 . S
C2122 H2118 0.929 1_556 S
C2122 C2124 1.378 . S
C2122 C2126 1.350 . S
C2123 C2126 1.463 1_554 S
C2123 C2128 1.350 . S
C2123 N2131 1.427 . S
C2124 H2115 0.930 . S
C2124 C2122 1.378 . S
C2124 C2125 1.367 . S
C2125 C2124 1.367 . S
C2125 C2127 1.433 . S
C2126 C2122 1.350 . S
C2126 C2123 1.463 1_556 S
C2126 N2130 1.427 . S
C2127 H2117 0.929 . S
C2127 C2125 1.433 . S
C2127 N2130 1.384 . S
C2128 H2119 0.929 1_554 S
C2128 C2120 1.378 . S
C2128 C2123 1.350 . S
C2129 H2116 0.929 . S
C2129 C2121 1.433 . S
C2129 N2131 1.384 . S
N2130 C2126 1.427 . S
N2130 C2127 1.384 . S
N2131 C2123 1.427 . S
N2131 C2129 1.384 . S
H2132 C2138 0.930 . S
H2133 C2142 0.930 . S
H2134 C2147 0.929 . S
H2135 C2145 0.929 . S
H2136 C2140 0.929 . S
H2137 C2146 0.929 . S
C2138 H2132 0.930 . S
C2138 C2139 1.367 . S
C2138 C2146 1.378 . S
C2139 C2138 1.367 . S
C2139 C2147 1.433 . S
C2140 H2136 0.929 . S
C2140 C2142 1.378 . S
C2140 C2144 1.350 . S
C2141 C2144 1.463 . S
C2141 C2146 1.350 . S
C2141 N2149 1.427 . S
C2142 H2133 0.930 . S
C2142 C2140 1.378 . S
C2142 C2143 1.367 . S
C2143 C2142 1.367 . S
C2143 C2145 1.433 . S
C2144 C2140 1.350 . S
C2144 C2141 1.463 . S
C2144 N2148 1.427 . S
C2145 H2135 0.929 . S
C2145 C2143 1.433 . S
C2145 N2148 1.384 . S
C2146 H2137 0.929 . S
C2146 C2138 1.378 . S
C2146 C2141 1.350 . S
C2147 H2134 0.929 . S
C2147 C2139 1.433 . S
C2147 N2149 1.384 . S
N2148 C2144 1.427 . S
N2148 C2145 1.384 . S
N2149 C2141 1.427 . S
N2149 C2147 1.384 . S
H2150 C2156 0.930 . S
H2151 C2160 0.930 . S
H2152 C2165 0.929 . S
H2153 C2163 0.929 . S
H2154 C2158 0.929 . S
H2155 C2164 0.929 . S
C2156 H2150 0.930 . S
C2156 C2157 1.367 . S
C2156 C2164 1.378 . S
C2157 C2156 1.367 . S
C2157 C2165 1.433 . S
C2158 H2154 0.929 . S
C2158 C2160 1.378 . S
C2158 C2162 1.350 . S
C2159 C2162 1.463 . S
C2159 C2164 1.350 . S
C2159 N2167 1.427 . S
C2160 H2151 0.930 . S
C2160 C2158 1.378 . S
C2160 C2161 1.367 . S
C2161 C2160 1.367 . S
C2161 C2163 1.433 . S
C2162 C2158 1.350 . S
C2162 C2159 1.463 . S
C2162 N2166 1.427 . S
C2163 H2153 0.929 . S
C2163 C2161 1.433 . S
C2163 N2166 1.384 . S
C2164 H2155 0.929 . S
C2164 C2156 1.378 . S
C2164 C2159 1.350 . S
C2165 H2152 0.929 . S
C2165 C2157 1.433 . S
C2165 N2167 1.384 . S
N2166 C2162 1.427 . S
N2166 C2163 1.384 . S
N2167 C2159 1.427 . S
N2167 C2165 1.384 . S
H2168 C2174 0.930 . S
H2169 C2178 0.930 . S
H2170 C2183 0.929 . S
H2171 C2181 0.929 . S
H2172 C2176 0.929 . S
H2173 C2182 0.929 . S
C2174 H2168 0.930 . S
C2174 C2175 1.367 . S
C2174 C2182 1.378 . S
C2175 C2174 1.367 . S
C2175 C2183 1.433 . S
C2176 H2172 0.929 . S
C2176 C2178 1.378 . S
C2176 C2180 1.350 . S
C2177 C2180 1.463 . S
C2177 C2182 1.350 . S
C2177 N2185 1.427 . S
C2178 H2169 0.930 . S
C2178 C2176 1.378 . S
C2178 C2179 1.367 . S
C2179 C2178 1.367 . S
C2179 C2181 1.433 . S
C2180 C2176 1.350 . S
C2180 C2177 1.463 . S
C2180 N2184 1.427 . S
C2181 H2171 0.929 . S
C2181 C2179 1.433 . S
C2181 N2184 1.384 . S
C2182 H2173 0.929 . S
C2182 C2174 1.378 . S
C2182 C2177 1.350 . S
C2183 H2170 0.929 . S
C2183 C2175 1.433 . S
C2183 N2185 1.384 . S
N2184 C2180 1.427 . S
N2184 C2181 1.384 . S
N2185 C2177 1.427 . S
N2185 C2183 1.384 . S
H2186 C2192 0.930 . S
H2187 C2196 0.930 . S
H2188 C2201 0.929 . S
H2189 C2199 0.929 . S
H2190 C2194 0.929 1_556 S
H2191 C2200 0.929 1_554 S
C2192 H2186 0.930 . S
C2192 C2193 1.367 . S
C2192 C2200 1.378 . S
C2193 C2192 1.367 . S
C2193 C2201 1.433 . S
C2194 H2190 0.929 1_554 S
C2194 C2196 1.378 . S
C2194 C2198 1.350 . S
C2195 C2198 1.463 1_556 S
C2195 C2200 1.350 . S
C2195 N2203 1.427 . S
C2196 H2187 0.930 . S
C2196 C2194 1.378 . S
C2196 C2197 1.367 . S
C2197 C2196 1.367 . S
C2197 C2199 1.433 . S
C2198 C2194 1.350 . S
C2198 C2195 1.463 1_554 S
C2198 N2202 1.427 . S
C2199 H2189 0.929 . S
C2199 C2197 1.433 . S
C2199 N2202 1.384 . S
C2200 H2191 0.929 1_556 S
C2200 C2192 1.378 . S
C2200 C2195 1.350 . S
C2201 H2188 0.929 . S
C2201 C2193 1.433 . S
C2201 N2203 1.384 . S
N2202 C2198 1.427 . S
N2202 C2199 1.384 . S
N2203 C2195 1.427 . S
N2203 C2201 1.384 . S
H2204 C2210 0.930 . S
H2205 C2214 0.930 . S
H2206 C2219 0.929 . S
H2207 C2217 0.929 . S
H2208 C2212 0.929 . S
H2209 C2218 0.929 . S
C2210 H2204 0.930 . S
C2210 C2211 1.367 . S
C2210 C2218 1.378 . S
C2211 C2210 1.367 . S
C2211 C2219 1.433 . S
C2212 H2208 0.929 . S
C2212 C2214 1.378 . S
C2212 C2216 1.350 . S
C2213 C2216 1.463 . S
C2213 C2218 1.350 . S
C2213 N2221 1.427 . S
C2214 H2205 0.930 . S
C2214 C2212 1.378 . S
C2214 C2215 1.367 . S
C2215 C2214 1.367 . S
C2215 C2217 1.433 . S
C2216 C2212 1.350 . S
C2216 C2213 1.463 . S
C2216 N2220 1.427 . S
C2217 H2207 0.929 . S
C2217 C2215 1.433 . S
C2217 N2220 1.384 . S
C2218 H2209 0.929 . S
C2218 C2210 1.378 . S
C2218 C2213 1.350 . S
C2219 H2206 0.929 . S
C2219 C2211 1.433 . S
C2219 N2221 1.384 . S
N2220 C2216 1.427 . S
N2220 C2217 1.384 . S
N2221 C2213 1.427 . S
N2221 C2219 1.384 . S
H2222 C2228 0.930 . S
H2223 C2232 0.930 . S
H2224 C2237 0.929 . S
H2225 C2235 0.929 . S
H2226 C2230 0.929 . S
H2227 C2236 0.929 . S
C2228 H2222 0.930 . S
C2228 C2229 1.367 . S
C2228 C2236 1.378 . S
C2229 C2228 1.367 . S
C2229 C2237 1.433 . S
C2230 H2226 0.929 . S
C2230 C2232 1.378 . S
C2230 C2234 1.350 . S
C2231 C2234 1.463 . S
C2231 C2236 1.350 . S
C2231 N2239 1.427 . S
C2232 H2223 0.930 . S
C2232 C2230 1.378 . S
C2232 C2233 1.367 . S
C2233 C2232 1.367 . S
C2233 C2235 1.433 . S
C2234 C2230 1.350 . S
C2234 C2231 1.463 . S
C2234 N2238 1.427 . S
C2235 H2225 0.929 . S
C2235 C2233 1.433 . S
C2235 N2238 1.384 . S
C2236 H2227 0.929 . S
C2236 C2228 1.378 . S
C2236 C2231 1.350 . S
C2237 H2224 0.929 . S
C2237 C2229 1.433 . S
C2237 N2239 1.384 . S
N2238 C2234 1.427 . S
N2238 C2235 1.384 . S
N2239 C2231 1.427 . S
N2239 C2237 1.384 . S
H2240 C2246 0.930 . S
H2241 C2250 0.930 . S
H2242 C2255 0.929 . S
H2243 C2253 0.929 . S
H2244 C2248 0.929 . S
H2245 C2254 0.929 . S
C2246 H2240 0.930 . S
C2246 C2247 1.367 . S
C2246 C2254 1.378 . S
C2247 C2246 1.367 . S
C2247 C2255 1.433 . S
C2248 H2244 0.929 . S
C2248 C2250 1.378 . S
C2248 C2252 1.350 . S
C2249 C2252 1.463 1_455 S
C2249 C2254 1.350 . S
C2249 N2257 1.427 . S
C2250 H2241 0.930 . S
C2250 C2248 1.378 . S
C2250 C2251 1.367 . S
C2251 C2250 1.367 . S
C2251 C2253 1.433 . S
C2252 C2248 1.350 . S
C2252 C2249 1.463 1_655 S
C2252 N2256 1.427 . S
C2253 H2243 0.929 . S
C2253 C2251 1.433 . S
C2253 N2256 1.384 . S
C2254 H2245 0.929 . S
C2254 C2246 1.378 . S
C2254 C2249 1.350 . S
C2255 H2242 0.929 . S
C2255 C2247 1.433 . S
C2255 N2257 1.384 . S
N2256 C2252 1.427 . S
N2256 C2253 1.384 . S
N2257 C2249 1.427 . S
N2257 C2255 1.384 . S
H2258 C2264 0.930 . S
H2259 C2268 0.930 . S
H2260 C2273 0.929 . S
H2261 C2271 0.929 . S
H2262 C2266 0.929 . S
H2263 C2272 0.929 . S
C2264 H2258 0.930 . S
C2264 C2265 1.367 . S
C2264 C2272 1.378 . S
C2265 C2264 1.367 . S
C2265 C2273 1.433 . S
C2266 H2262 0.929 . S
C2266 C2268 1.378 . S
C2266 C2270 1.350 . S
C2267 C2270 1.463 1_655 S
C2267 C2272 1.350 . S
C2267 N2275 1.427 . S
C2268 H2259 0.930 . S
C2268 C2266 1.378 . S
C2268 C2269 1.367 . S
C2269 C2268 1.367 . S
C2269 C2271 1.433 . S
C2270 C2266 1.350 . S
C2270 C2267 1.463 1_455 S
C2270 N2274 1.427 . S
C2271 H2261 0.929 . S
C2271 C2269 1.433 . S
C2271 N2274 1.384 . S
C2272 H2263 0.929 . S
C2272 C2264 1.378 . S
C2272 C2267 1.350 . S
C2273 H2260 0.929 . S
C2273 C2265 1.433 . S
C2273 N2275 1.384 . S
N2274 C2270 1.427 . S
N2274 C2271 1.384 . S
N2275 C2267 1.427 . S
N2275 C2273 1.384 . S
H2276 C2282 0.930 . S
H2277 C2286 0.930 . S
H2278 C2291 0.929 . S
H2279 C2289 0.929 . S
H2280 C2284 0.929 . S
H2281 C2290 0.929 . S
C2282 H2276 0.930 . S
C2282 C2283 1.367 . S
C2282 C2290 1.378 . S
C2283 C2282 1.367 . S
C2283 C2291 1.433 . S
C2284 H2280 0.929 . S
C2284 C2286 1.378 . S
C2284 C2288 1.350 . S
C2285 C2288 1.463 . S
C2285 C2290 1.350 . S
C2285 N2293 1.427 . S
C2286 H2277 0.930 . S
C2286 C2284 1.378 . S
C2286 C2287 1.367 . S
C2287 C2286 1.367 . S
C2287 C2289 1.433 . S
C2288 C2284 1.350 . S
C2288 C2285 1.463 . S
C2288 N2292 1.427 . S
C2289 H2279 0.929 . S
C2289 C2287 1.433 . S
C2289 N2292 1.384 . S
C2290 H2281 0.929 . S
C2290 C2282 1.378 . S
C2290 C2285 1.350 . S
C2291 H2278 0.929 . S
C2291 C2283 1.433 . S
C2291 N2293 1.384 . S
N2292 C2288 1.427 . S
N2292 C2289 1.384 . S
N2293 C2285 1.427 . S
N2293 C2291 1.384 . S
H2294 C2300 0.930 . S
H2295 C2304 0.930 . S
H2296 C2309 0.929 . S
H2297 C2307 0.929 . S
H2298 C2302 0.929 . S
H2299 C2308 0.929 . S
C2300 H2294 0.930 . S
C2300 C2301 1.367 . S
C2300 C2308 1.378 . S
C2301 C2300 1.367 . S
C2301 C2309 1.433 . S
C2302 H2298 0.929 . S
C2302 C2304 1.378 . S
C2302 C2306 1.350 . S
C2303 C2306 1.463 . S
C2303 C2308 1.350 . S
C2303 N2311 1.427 . S
C2304 H2295 0.930 . S
C2304 C2302 1.378 . S
C2304 C2305 1.367 . S
C2305 C2304 1.367 . S
C2305 C2307 1.433 . S
C2306 C2302 1.350 . S
C2306 C2303 1.463 . S
C2306 N2310 1.427 . S
C2307 H2297 0.929 . S
C2307 C2305 1.433 . S
C2307 N2310 1.384 . S
C2308 H2299 0.929 . S
C2308 C2300 1.378 . S
C2308 C2303 1.350 . S
C2309 H2296 0.929 . S
C2309 C2301 1.433 . S
C2309 N2311 1.384 . S
N2310 C2306 1.427 . S
N2310 C2307 1.384 . S
N2311 C2303 1.427 . S
N2311 C2309 1.384 . S
H2312 C2318 0.930 . S
H2313 C2322 0.930 . S
H2314 C2327 0.929 . S
H2315 C2325 0.929 . S
H2316 C2320 0.929 1_655 S
H2317 C2326 0.929 1_455 S
C2318 H2312 0.930 . S
C2318 C2319 1.367 . S
C2318 C2326 1.378 . S
C2319 C2318 1.367 . S
C2319 C2327 1.433 . S
C2320 H2316 0.929 1_455 S
C2320 C2322 1.378 . S
C2320 C2324 1.350 . S
C2321 C2324 1.463 1_655 S
C2321 C2326 1.350 . S
C2321 N2329 1.427 . S
C2322 H2313 0.930 . S
C2322 C2320 1.378 . S
C2322 C2323 1.367 . S
C2323 C2322 1.367 . S
C2323 C2325 1.433 . S
C2324 C2320 1.350 . S
C2324 C2321 1.463 1_455 S
C2324 N2328 1.427 . S
C2325 H2315 0.929 . S
C2325 C2323 1.433 . S
C2325 N2328 1.384 . S
C2326 H2317 0.929 1_655 S
C2326 C2318 1.378 . S
C2326 C2321 1.350 . S
C2327 H2314 0.929 . S
C2327 C2319 1.433 . S
C2327 N2329 1.384 . S
N2328 C2324 1.427 . S
N2328 C2325 1.384 . S
N2329 C2321 1.427 . S
N2329 C2327 1.384 . S
H2330 C2336 0.930 . S
H2331 C2340 0.930 . S
H2332 C2345 0.929 . S
H2333 C2343 0.929 . S
H2334 C2338 0.929 . S
H2335 C2344 0.929 . S
C2336 H2330 0.930 . S
C2336 C2337 1.367 . S
C2336 C2344 1.378 . S
C2337 C2336 1.367 . S
C2337 C2345 1.433 . S
C2338 H2334 0.929 . S
C2338 C2340 1.378 . S
C2338 C2342 1.350 . S
C2339 C2342 1.463 . S
C2339 C2344 1.350 . S
C2339 N2347 1.427 . S
C2340 H2331 0.930 . S
C2340 C2338 1.378 . S
C2340 C2341 1.367 . S
C2341 C2340 1.367 . S
C2341 C2343 1.433 . S
C2342 C2338 1.350 . S
C2342 C2339 1.463 . S
C2342 N2346 1.427 . S
C2343 H2333 0.929 . S
C2343 C2341 1.433 . S
C2343 N2346 1.384 . S
C2344 H2335 0.929 . S
C2344 C2336 1.378 . S
C2344 C2339 1.350 . S
C2345 H2332 0.929 . S
C2345 C2337 1.433 . S
C2345 N2347 1.384 . S
N2346 C2342 1.427 . S
N2346 C2343 1.384 . S
N2347 C2339 1.427 . S
N2347 C2345 1.384 . S
H2348 C2354 0.930 . S
H2349 C2358 0.930 . S
H2350 C2363 0.929 . S
H2351 C2361 0.929 . S
H2352 C2356 0.929 . S
H2353 C2362 0.929 . S
C2354 H2348 0.930 . S
C2354 C2355 1.367 . S
C2354 C2362 1.378 . S
C2355 C2354 1.367 . S
C2355 C2363 1.433 . S
C2356 H2352 0.929 . S
C2356 C2358 1.378 . S
C2356 C2360 1.350 . S
C2357 C2360 1.463 . S
C2357 C2362 1.350 . S
C2357 N2365 1.427 . S
C2358 H2349 0.930 . S
C2358 C2356 1.378 . S
C2358 C2359 1.367 . S
C2359 C2358 1.367 . S
C2359 C2361 1.433 . S
C2360 C2356 1.350 . S
C2360 C2357 1.463 . S
C2360 N2364 1.427 . S
C2361 H2351 0.929 . S
C2361 C2359 1.433 . S
C2361 N2364 1.384 . S
C2362 H2353 0.929 . S
C2362 C2354 1.378 . S
C2362 C2357 1.350 . S
C2363 H2350 0.929 . S
C2363 C2355 1.433 . S
C2363 N2365 1.384 . S
N2364 C2360 1.427 . S
N2364 C2361 1.384 . S
N2365 C2357 1.427 . S
N2365 C2363 1.384 . S
H2366 C2372 0.930 . S
H2367 C2376 0.930 . S
H2368 C2381 0.929 . S
H2369 C2379 0.929 . S
H2370 C2374 0.929 . S
H2371 C2380 0.929 . S
C2372 H2366 0.930 . S
C2372 C2373 1.367 . S
C2372 C2380 1.378 . S
C2373 C2372 1.367 . S
C2373 C2381 1.433 . S
C2374 H2370 0.929 . S
C2374 C2376 1.378 . S
C2374 C2378 1.350 . S
C2375 C2378 1.463 1_455 S
C2375 C2380 1.350 . S
C2375 N2383 1.427 . S
C2376 H2367 0.930 . S
C2376 C2374 1.378 . S
C2376 C2377 1.367 . S
C2377 C2376 1.367 . S
C2377 C2379 1.433 . S
C2378 C2374 1.350 . S
C2378 C2375 1.463 1_655 S
C2378 N2382 1.427 . S
C2379 H2369 0.929 . S
C2379 C2377 1.433 . S
C2379 N2382 1.384 . S
C2380 H2371 0.929 . S
C2380 C2372 1.378 . S
C2380 C2375 1.350 . S
C2381 H2368 0.929 . S
C2381 C2373 1.433 . S
C2381 N2383 1.384 . S
N2382 C2378 1.427 . S
N2382 C2379 1.384 . S
N2383 C2375 1.427 . S
N2383 C2381 1.384 . S
H2384 C2390 0.930 . S
H2385 C2394 0.930 . S
H2386 C2399 0.929 . S
H2387 C2397 0.929 . S
H2388 C2392 0.929 . S
H2389 C2398 0.929 . S
C2390 H2384 0.930 . S
C2390 C2391 1.367 . S
C2390 C2398 1.378 . S
C2391 C2390 1.367 . S
C2391 C2399 1.433 . S
C2392 H2388 0.929 . S
C2392 C2394 1.378 . S
C2392 C2396 1.350 . S
C2393 C2396 1.463 1_655 S
C2393 C2398 1.350 . S
C2393 N2401 1.427 . S
C2394 H2385 0.930 . S
C2394 C2392 1.378 . S
C2394 C2395 1.367 . S
C2395 C2394 1.367 . S
C2395 C2397 1.433 . S
C2396 C2392 1.350 . S
C2396 C2393 1.463 1_455 S
C2396 N2400 1.427 . S
C2397 H2387 0.929 . S
C2397 C2395 1.433 . S
C2397 N2400 1.384 . S
C2398 H2389 0.929 . S
C2398 C2390 1.378 . S
C2398 C2393 1.350 . S
C2399 H2386 0.929 . S
C2399 C2391 1.433 . S
C2399 N2401 1.384 . S
N2400 C2396 1.427 . S
N2400 C2397 1.384 . S
N2401 C2393 1.427 . S
N2401 C2399 1.384 . S
H2402 C2408 0.930 . S
H2403 C2412 0.930 . S
H2404 C2417 0.929 . S
H2405 C2415 0.929 . S
H2406 C2410 0.929 . S
H2407 C2416 0.929 . S
C2408 H2402 0.930 . S
C2408 C2409 1.367 . S
C2408 C2416 1.378 . S
C2409 C2408 1.367 . S
C2409 C2417 1.433 . S
C2410 H2406 0.929 . S
C2410 C2412 1.378 . S
C2410 C2414 1.350 . S
C2411 C2414 1.463 1_455 S
C2411 C2416 1.350 . S
C2411 N2419 1.427 . S
C2412 H2403 0.930 . S
C2412 C2410 1.378 . S
C2412 C2413 1.367 . S
C2413 C2412 1.367 . S
C2413 C2415 1.433 . S
C2414 C2410 1.350 . S
C2414 C2411 1.463 1_655 S
C2414 N2418 1.427 . S
C2415 H2405 0.929 . S
C2415 C2413 1.433 . S
C2415 N2418 1.384 . S
C2416 H2407 0.929 . S
C2416 C2408 1.378 . S
C2416 C2411 1.350 . S
C2417 H2404 0.929 . S
C2417 C2409 1.433 . S
C2417 N2419 1.384 . S
N2418 C2414 1.427 . S
N2418 C2415 1.384 . S
N2419 C2411 1.427 . S
N2419 C2417 1.384 . S
H2420 C2426 0.930 . S
H2421 C2430 0.930 . S
H2422 C2435 0.929 . S
H2423 C2433 0.929 . S
H2424 C2428 0.929 . S
H2425 C2434 0.929 . S
C2426 H2420 0.930 . S
C2426 C2427 1.367 . S
C2426 C2434 1.378 . S
C2427 C2426 1.367 . S
C2427 C2435 1.433 . S
C2428 H2424 0.929 . S
C2428 C2430 1.378 . S
C2428 C2432 1.350 . S
C2429 C2432 1.463 . S
C2429 C2434 1.350 . S
C2429 N2437 1.427 . S
C2430 H2421 0.930 . S
C2430 C2428 1.378 . S
C2430 C2431 1.367 . S
C2431 C2430 1.367 . S
C2431 C2433 1.433 . S
C2432 C2428 1.350 . S
C2432 C2429 1.463 . S
C2432 N2436 1.427 . S
C2433 H2423 0.929 . S
C2433 C2431 1.433 . S
C2433 N2436 1.384 . S
C2434 H2425 0.929 . S
C2434 C2426 1.378 . S
C2434 C2429 1.350 . S
C2435 H2422 0.929 . S
C2435 C2427 1.433 . S
C2435 N2437 1.384 . S
N2436 C2432 1.427 . S
N2436 C2433 1.384 . S
N2437 C2429 1.427 . S
N2437 C2435 1.384 . S
H2438 C2444 0.930 . S
H2439 C2448 0.930 . S
H2440 C2453 0.929 . S
H2441 C2451 0.929 . S
H2442 C2446 0.929 . S
H2443 C2452 0.929 . S
C2444 H2438 0.930 . S
C2444 C2445 1.367 . S
C2444 C2452 1.378 . S
C2445 C2444 1.367 . S
C2445 C2453 1.433 . S
C2446 H2442 0.929 . S
C2446 C2448 1.378 . S
C2446 C2450 1.350 . S
C2447 C2450 1.463 . S
C2447 C2452 1.350 . S
C2447 N2455 1.427 . S
C2448 H2439 0.930 . S
C2448 C2446 1.378 . S
C2448 C2449 1.367 . S
C2449 C2448 1.367 . S
C2449 C2451 1.433 . S
C2450 C2446 1.350 . S
C2450 C2447 1.463 . S
C2450 N2454 1.427 . S
C2451 H2441 0.929 . S
C2451 C2449 1.433 . S
C2451 N2454 1.384 . S
C2452 H2443 0.929 . S
C2452 C2444 1.378 . S
C2452 C2447 1.350 . S
C2453 H2440 0.929 . S
C2453 C2445 1.433 . S
C2453 N2455 1.384 . S
N2454 C2450 1.427 . S
N2454 C2451 1.384 . S
N2455 C2447 1.427 . S
N2455 C2453 1.384 . S
H2456 C2462 0.930 1_455 S
H2457 C2466 0.930 1_655 S
H2458 C2471 0.929 . S
H2459 C2469 0.929 . S
H2460 C2464 0.929 . S
H2461 C2470 0.929 . S
C2462 H2456 0.930 1_655 S
C2462 C2463 1.367 . S
C2462 C2470 1.378 1_655 S
C2463 C2462 1.367 . S
C2463 C2471 1.433 . S
C2464 H2460 0.929 . S
C2464 C2466 1.378 1_655 S
C2464 C2468 1.350 1_655 S
C2465 C2468 1.463 1_655 S
C2465 C2470 1.350 1_655 S
C2465 N2473 1.427 . S
C2466 H2457 0.930 1_455 S
C2466 C2464 1.378 1_455 S
C2466 C2467 1.367 . S
C2467 C2466 1.367 . S
C2467 C2469 1.433 . S
C2468 C2464 1.350 1_455 S
C2468 C2465 1.463 1_455 S
C2468 N2472 1.427 . S
C2469 H2459 0.929 . S
C2469 C2467 1.433 . S
C2469 N2472 1.384 . S
C2470 H2461 0.929 . S
C2470 C2462 1.378 1_455 S
C2470 C2465 1.350 1_455 S
C2471 H2458 0.929 . S
C2471 C2463 1.433 . S
C2471 N2473 1.384 . S
N2472 C2468 1.427 . S
N2472 C2469 1.384 . S
N2473 C2465 1.427 . S
N2473 C2471 1.384 . S
H2474 C2480 0.930 . S
H2475 C2484 0.930 . S
H2476 C2489 0.929 . S
H2477 C2487 0.929 . S
H2478 C2482 0.929 . S
H2479 C2488 0.929 . S
C2480 H2474 0.930 . S
C2480 C2481 1.367 . S
C2480 C2488 1.378 . S
C2481 C2480 1.367 . S
C2481 C2489 1.433 . S
C2482 H2478 0.929 . S
C2482 C2484 1.378 . S
C2482 C2486 1.350 . S
C2483 C2486 1.463 . S
C2483 C2488 1.350 . S
C2483 N2491 1.427 . S
C2484 H2475 0.930 . S
C2484 C2482 1.378 . S
C2484 C2485 1.367 . S
C2485 C2484 1.367 . S
C2485 C2487 1.433 . S
C2486 C2482 1.350 . S
C2486 C2483 1.463 . S
C2486 N2490 1.427 . S
C2487 H2477 0.929 . S
C2487 C2485 1.433 . S
C2487 N2490 1.384 . S
C2488 H2479 0.929 . S
C2488 C2480 1.378 . S
C2488 C2483 1.350 . S
C2489 H2476 0.929 . S
C2489 C2481 1.433 . S
C2489 N2491 1.384 . S
N2490 C2486 1.427 . S
N2490 C2487 1.384 . S
N2491 C2483 1.427 . S
N2491 C2489 1.384 . S
H2492 C2498 0.930 . S
H2493 C2502 0.930 . S
H2494 C2507 0.929 . S
H2495 C2505 0.929 . S
H2496 C2500 0.929 . S
H2497 C2506 0.929 . S
C2498 H2492 0.930 . S
C2498 C2499 1.367 . S
C2498 C2506 1.378 . S
C2499 C2498 1.367 . S
C2499 C2507 1.433 . S
C2500 H2496 0.929 . S
C2500 C2502 1.378 . S
C2500 C2504 1.350 . S
C2501 C2504 1.463 . S
C2501 C2506 1.350 . S
C2501 N2509 1.427 . S
C2502 H2493 0.930 . S
C2502 C2500 1.378 . S
C2502 C2503 1.367 . S
C2503 C2502 1.367 . S
C2503 C2505 1.433 . S
C2504 C2500 1.350 . S
C2504 C2501 1.463 . S
C2504 N2508 1.427 . S
C2505 H2495 0.929 . S
C2505 C2503 1.433 . S
C2505 N2508 1.384 . S
C2506 H2497 0.929 . S
C2506 C2498 1.378 . S
C2506 C2501 1.350 . S
C2507 H2494 0.929 . S
C2507 C2499 1.433 . S
C2507 N2509 1.384 . S
N2508 C2504 1.427 . S
N2508 C2505 1.384 . S
N2509 C2501 1.427 . S
N2509 C2507 1.384 . S
H2510 C2516 0.930 . S
H2511 C2520 0.930 . S
H2512 C2525 0.929 . S
H2513 C2523 0.929 . S
H2514 C2518 0.929 . S
H2515 C2524 0.929 . S
C2516 H2510 0.930 . S
C2516 C2517 1.367 . S
C2516 C2524 1.378 . S
C2517 C2516 1.367 . S
C2517 C2525 1.433 . S
C2518 H2514 0.929 . S
C2518 C2520 1.378 . S
C2518 C2522 1.350 . S
C2519 C2522 1.463 1_655 S
C2519 C2524 1.350 . S
C2519 N2527 1.427 . S
C2520 H2511 0.930 . S
C2520 C2518 1.378 . S
C2520 C2521 1.367 . S
C2521 C2520 1.367 . S
C2521 C2523 1.433 . S
C2522 C2518 1.350 . S
C2522 C2519 1.463 1_455 S
C2522 N2526 1.427 . S
C2523 H2513 0.929 . S
C2523 C2521 1.433 . S
C2523 N2526 1.384 . S
C2524 H2515 0.929 . S
C2524 C2516 1.378 . S
C2524 C2519 1.350 . S
C2525 H2512 0.929 . S
C2525 C2517 1.433 . S
C2525 N2527 1.384 . S
N2526 C2522 1.427 . S
N2526 C2523 1.384 . S
N2527 C2519 1.427 . S
N2527 C2525 1.384 . S
C1095 C951 1.139 . S
C1099 C2 1.161 . S
C1113 C305 1.152 . S
C1117 C36 1.151 . S
C1131 C883 1.141 . S
C1135 C70 1.158 . S
C1149 C104 1.160 . S
C1153 C373 1.139 . S
C1167 C1019 1.149 . S
C1171 C138 1.153 . S
C1185 C509 1.146 . S
C1189 C172 1.156 . S
C1203 C206 1.158 . S
C1207 C1087 1.143 . S
C1221 C240 1.159 . S
C1225 C441 1.142 . S
C1239 C679 1.140 . S
C1243 C274 1.160 . S
C1257 C33 1.139 . S
C1261 C308 1.160 . S
C1275 C342 1.158 . S
C1279 C611 1.141 . S
C1293 C376 1.152 . S
C1297 C101 1.151 . S
C1311 C410 1.159 . S
C1315 C747 1.140 . S
C1329 C444 1.152 . S
C1333 C237 1.152 . S
C1347 C815 1.143 . S
C1351 C478 1.158 . S
C1365 C169 1.149 . S
C1369 C512 1.153 . S
C1383 C407 1.144 . S
C1387 C546 1.157 . S
C1401 C580 1.154 . S
C1405 C849 1.149 . S
C1419 C339 1.152 . S
C1423 C614 1.151 . S
C1437 C648 1.159 . S
C1441 C917 1.142 . S
C1455 C475 1.139 . S
C1459 C682 1.160 . S
C1473 C1053 1.139 . S
C1477 C716 1.160 . S
C1491 C543 1.141 . S
C1495 C750 1.158 . S
C1509 C784 1.157 . S
C1513 C985 1.145 . S
C1527 C818 1.161 . S
C1531 C135 1.138 . S
C1545 C577 1.151 . S
C1549 C852 1.152 . S
C1563 C67 1.140 . S
C1567 C886 1.160 . S
C1581 C920 1.158 . S
C1585 C645 1.144 . S
C1599 C954 1.158 . S
C1603 C203 1.142 . S
C1617 C988 1.153 . S
C1621 C781 1.150 . S
C1635 C271 1.152 . S
C1639 C1022 1.151 . S
C1653 C1056 1.152 . S
C1657 C713 1.150 . S
C1671 C9 1.376 1_565 S
C1675 C179 1.371 . S
C1689 C213 1.384 1_565 S
C1693 C43 1.384 . S
C1707 C247 1.378 . S
C1711 C77 1.370 1_545 S
C1725 C111 1.370 . S
C1729 C145 1.382 1_545 S
C1743 C281 1.373 1_545 S
C1747 C451 1.386 . S
C1761 C315 1.380 . S
C1765 C485 1.387 1_545 S
C1779 C349 1.385 1_565 S
C1783 C519 1.372 . S
C1797 C383 1.377 . S
C1801 C417 1.387 1_565 S
C1815 C723 1.387 . S
C1819 C553 1.375 . S
C1833 C587 1.370 . S
C1837 C757 1.377 . S
C1851 C621 1.371 . S
C1855 C791 1.376 . S
C1869 C689 1.386 . S
C1873 C655 1.382 . S
C1887 C995 1.377 . S
C1891 C825 1.387 . S
C1905 C1029 1.381 . S
C1909 C859 1.370 . S
C1923 C1063 1.382 . S
C1927 C893 1.386 . S
C1941 C961 1.378 . S
C1945 C927 1.387 . S
C1959 C20 1.362 . S
C1963 C156 1.363 . S
C1977 C54 1.365 . S
C1981 C190 1.364 . S
C1995 C224 1.364 . S
C1999 C88 1.365 . S
C2013 C258 1.363 . S
C2017 C122 1.362 . S
C2031 C292 1.364 . S
C2035 C428 1.363 . S
C2049 C462 1.362 . S
C2053 C326 1.363 . S
C2067 C360 1.364 . S
C2071 C496 1.365 . S
C2085 C530 1.363 . S
C2089 C394 1.364 . S
C2103 C564 1.362 . S
C2107 C700 1.362 . S
C2121 C598 1.365 . S
C2125 C734 1.364 . S
C2139 C632 1.365 . S
C2143 C768 1.365 . S
C2157 C666 1.365 . S
C2161 C802 1.364 . S
C2175 C972 1.364 . S
C2179 C836 1.365 . S
C2193 C870 1.364 . S
C2197 C1006 1.365 . S
C2211 C904 1.365 . S
C2215 C1040 1.365 . S
C2229 C938 1.365 . S
C2233 C1074 1.365 . S
C2247 C5 0.881 . S
C2251 C617 0.897 . S
C2265 C651 0.882 . S
C2269 C39 0.889 . S
C2283 C73 0.902 . S
C2287 C549 0.887 . S
C2301 C107 0.884 . S
C2305 C583 0.901 . S
C2319 C753 0.885 . S
C2323 C141 0.902 . S
C2337 C787 0.900 . S
C2341 C175 0.882 . S
C2355 C209 0.902 . S
C2359 C685 0.886 . S
C2373 C243 0.898 . S
C2377 C719 0.899 . S
C2391 C277 0.883 . S
C2395 C889 0.901 . S
C2409 C923 0.898 . S
C2413 C311 0.881 . S
C2427 C821 0.903 . S
C2431 C345 0.889 . S
C2445 C379 0.897 . S
C2449 C855 0.881 . S
C2463 C413 0.893 . S
C2467 C1025 0.902 . S
C2481 C447 0.898 . S
C2485 C1059 0.881 . S
C2499 C481 0.896 . S
C2503 C957 0.880 . S
C2517 C515 0.884 . S
C2521 C991 0.902 . S
