# Generated by pormake.
# Topology uof, (4)-cn, num edge types: 1
# Building blocks:
#     Node 0, Type 0, BuildingBlock: NAHDIM_clean_sbu_0, # of connection points: 4
#     Node 1, Type 0, BuildingBlock: NAHDIM_clean_sbu_0, # of connection points: 4
#     Node 2, Type 0, BuildingBlock: NAHDIM_clean_sbu_0, # of connection points: 4
#     Node 3, Type 0, BuildingBlock: NAHDIM_clean_sbu_0, # of connection points: 4
#     Node 4, Type 0, BuildingBlock: NAHDIM_clean_sbu_0, # of connection points: 4
#     Node 5, Type 0, BuildingBlock: NAHDIM_clean_sbu_0, # of connection points: 4
#     Node 6, Type 0, BuildingBlock: NAHDIM_clean_sbu_0, # of connection points: 4
#     Node 7, Type 0, BuildingBlock: NAHDIM_clean_sbu_0, # of connection points: 4
#     Node 8, Type 0, BuildingBlock: NAHDIM_clean_sbu_0, # of connection points: 4
#     Node 9, Type 0, BuildingBlock: NAHDIM_clean_sbu_0, # of connection points: 4
#     Node 10, Type 0, BuildingBlock: NAHDIM_clean_sbu_0, # of connection points: 4
#     Node 11, Type 0, BuildingBlock: NAHDIM_clean_sbu_0, # of connection points: 4
#     Edge 12, Type (0, 0), BuildingBlock: OJICUG_clean_linker_0, # of connection points: 2
#     Edge 13, Type (0, 0), BuildingBlock: OJICUG_clean_linker_0, # of connection points: 2
#     Edge 14, Type (0, 0), BuildingBlock: OJICUG_clean_linker_0, # of connection points: 2
#     Edge 15, Type (0, 0), BuildingBlock: OJICUG_clean_linker_0, # of connection points: 2
#     Edge 16, Type (0, 0), BuildingBlock: OJICUG_clean_linker_0, # of connection points: 2
#     Edge 17, Type (0, 0), BuildingBlock: OJICUG_clean_linker_0, # of connection points: 2
#     Edge 18, Type (0, 0), BuildingBlock: OJICUG_clean_linker_0, # of connection points: 2
#     Edge 19, Type (0, 0), BuildingBlock: OJICUG_clean_linker_0, # of connection points: 2
#     Edge 20, Type (0, 0), BuildingBlock: OJICUG_clean_linker_0, # of connection points: 2
#     Edge 21, Type (0, 0), BuildingBlock: OJICUG_clean_linker_0, # of connection points: 2
#     Edge 22, Type (0, 0), BuildingBlock: OJICUG_clean_linker_0, # of connection points: 2
#     Edge 23, Type (0, 0), BuildingBlock: OJICUG_clean_linker_0, # of connection points: 2
#     Edge 24, Type (0, 0), BuildingBlock: OJICUG_clean_linker_0, # of connection points: 2
#     Edge 25, Type (0, 0), BuildingBlock: OJICUG_clean_linker_0, # of connection points: 2
#     Edge 26, Type (0, 0), BuildingBlock: OJICUG_clean_linker_0, # of connection points: 2
#     Edge 27, Type (0, 0), BuildingBlock: OJICUG_clean_linker_0, # of connection points: 2
#     Edge 28, Type (0, 0), BuildingBlock: OJICUG_clean_linker_0, # of connection points: 2
#     Edge 29, Type (0, 0), BuildingBlock: OJICUG_clean_linker_0, # of connection points: 2
#     Edge 30, Type (0, 0), BuildingBlock: OJICUG_clean_linker_0, # of connection points: 2
#     Edge 31, Type (0, 0), BuildingBlock: OJICUG_clean_linker_0, # of connection points: 2
#     Edge 32, Type (0, 0), BuildingBlock: OJICUG_clean_linker_0, # of connection points: 2
#     Edge 33, Type (0, 0), BuildingBlock: OJICUG_clean_linker_0, # of connection points: 2
#     Edge 34, Type (0, 0), BuildingBlock: OJICUG_clean_linker_0, # of connection points: 2
#     Edge 35, Type (0, 0), BuildingBlock: OJICUG_clean_linker_0, # of connection points: 2
# Relax obj value: 0.211
# Max RMSD: 0.168
# Mean RMSD: 0.168
data_MOF--net-uof--node1-NAHDIM_clean_sbu_0--edge1-OJICUG_clean_linker_0
_symmetry_space_group_name_H-M    P1
_symmetry_Int_Tables_number       1
_symmetry_cell_setting            triclinic
loop_
_symmetry_equiv_pos_as_xyz
'x, y, z'
_cell_length_a     23.997913
_cell_length_b     23.895905
_cell_length_c     44.463004
_cell_angle_alpha  90.061437
_cell_angle_beta   90.142338
_cell_angle_gamma 120.12218
loop_
_atom_site_label
_atom_site_type_symbol
_atom_site_fract_x
_atom_site_fract_y
_atom_site_fract_z
_atom_type_partial_charge
C0 C 0.10155 0.30574 0.21032 0.0
O1 O 0.09247 0.2742 0.23569 0.0
O2 O 0.22417 0.31871 0.26509 0.0
Zn3 Zn 0.2282 0.32557 0.2196 0.0
O4 O 0.2144 0.24188 0.20387 0.0
C5 C 0.36039 0.3762 0.21941 0.0
O6 O 0.33806 0.32291 0.23529 0.0
O7 O 0.15848 0.33775 0.19991 0.0
C8 C 0.20729 0.22816 0.1761 0.0
O9 O 0.20862 0.27031 0.15674 0.0
C10 C 0.20967 0.2654 0.27788 0.0
O11 O 0.1881 0.21275 0.26152 0.0
O12 O 0.32045 0.3914 0.20868 0.0
C13 C 0.79977 0.09723 0.52965 0.0
O14 O 0.81913 0.08578 0.55539 0.0
O15 O 0.91639 0.21397 0.58537 0.0
Zn16 Zn 0.90209 0.22922 0.54171 0.0
O17 O 0.97833 0.23505 0.5207 0.0
C18 C 0.90889 0.34777 0.5615 0.0
O19 O 0.88765 0.31573 0.58681 0.0
O20 O 0.82436 0.1555 0.52075 0.0
C21 C 0.02547 0.2877 0.51126 0.0
O22 O 0.0233 0.34143 0.51305 0.0
C23 C 0.97187 0.25597 0.59525 0.0
O24 O 0.011 0.30283 0.57731 0.0
O25 O 0.91041 0.31778 0.53815 0.0
C26 C 0.71565 0.80599 0.88412 0.0
O27 O 0.74502 0.82105 0.91034 0.0
O28 O 0.70155 0.91579 0.94268 0.0
Zn29 Zn 0.69604 0.91463 0.89733 0.0
O30 O 0.77927 0.98834 0.88376 0.0
C31 C 0.63433 0.98725 0.89995 0.0
O32 O 0.68091 0.01619 0.91982 0.0
O33 O 0.68677 0.83558 0.87544 0.0
C34 C 0.7847 0.00873 0.85705 0.0
O35 O 0.73525 0.97993 0.83863 0.0
C36 C 0.7563 0.94172 0.95564 0.0
O37 O 0.8076 0.95512 0.93977 0.0
O38 O 0.62847 0.93807 0.88592 0.0
C39 C 0.8803 0.69299 0.18335 0.0
O40 O 0.88937 0.71814 0.21045 0.0
O41 O 0.76459 0.68939 0.238 0.0
Zn42 Zn 0.7495 0.66538 0.19389 0.0
O43 O 0.74527 0.73921 0.17574 0.0
C44 C 0.63635 0.54357 0.20921 0.0
O45 O 0.67218 0.54633 0.23218 0.0
O46 O 0.82335 0.6631 0.17262 0.0
C47 C 0.69939 0.73413 0.1595 0.0
O48 O 0.6521 0.67658 0.15187 0.0
C49 C 0.72348 0.70257 0.24897 0.0
O50 O 0.67595 0.696 0.23176 0.0
O51 O 0.66111 0.58622 0.18877 0.0
C52 C 0.18603 0.87933 0.5374 0.0
O53 O 0.16759 0.88819 0.56391 0.0
O54 O 0.05733 0.76751 0.58695 0.0
Zn55 Zn 0.07517 0.75054 0.54419 0.0
O56 O 0.00507 0.74976 0.51963 0.0
C57 C 0.0571 0.62767 0.56472 0.0
O58 O 0.07288 0.65743 0.59085 0.0
O59 O 0.15749 0.8228 0.52597 0.0
C60 C 0.9547 0.69804 0.51166 0.0
O61 O 0.94839 0.64166 0.51844 0.0
C62 C 0.00066 0.72958 0.59672 0.0
O63 O 0.95926 0.68282 0.57921 0.0
O64 O 0.06273 0.66015 0.54113 0.0
C65 C 0.33564 0.21418 0.85922 0.0
O66 O 0.32415 0.21067 0.88823 0.0
O67 O 0.33342 0.10009 0.91469 0.0
Zn68 Zn 0.3594 0.10699 0.87108 0.0
O69 O 0.29239 0.023 0.85351 0.0
C70 C 0.44394 0.06436 0.88723 0.0
O71 O 0.39518 0.03205 0.90546 0.0
O72 O 0.35652 0.17919 0.84795 0.0
C73 C 0.24713 0.01755 0.83671 0.0
O74 O 0.2455 0.06958 0.82868 0.0
C75 C 0.27423 0.07223 0.92198 0.0
O76 O 0.23066 0.0596 0.90109 0.0
O77 O 0.44261 0.10447 0.86881 0.0
C78 C 0.6915 0.88494 0.44561 0.0
O79 O 0.71717 0.89871 0.41865 0.0
O80 O 0.68413 0.77311 0.38549 0.0
Zn81 Zn 0.67081 0.75776 0.43053 0.0
O82 O 0.74765 0.75778 0.44777 0.0
C83 C 0.60901 0.62489 0.42231 0.0
O84 O 0.661 0.64719 0.40568 0.0
O85 O 0.66344 0.8264 0.45442 0.0
C86 C 0.74079 0.72056 0.46953 0.0
O87 O 0.68377 0.68514 0.48172 0.0
C88 C 0.73503 0.78 0.37309 0.0
O89 O 0.78302 0.78735 0.39014 0.0
O90 O 0.59789 0.66522 0.43597 0.0
C91 C 0.80913 0.69422 0.7974 0.0
O92 O 0.81965 0.72025 0.7705 0.0
O93 O 0.90321 0.68344 0.73456 0.0
Zn94 Zn 0.91385 0.67589 0.77946 0.0
O95 O 0.98896 0.75962 0.79251 0.0
C96 C 0.98962 0.6204 0.76905 0.0
O97 O 0.01515 0.67234 0.75207 0.0
O98 O 0.83975 0.66592 0.80538 0.0
C99 C 0.02991 0.76528 0.81211 0.0
O100 O 0.02282 0.71362 0.82601 0.0
C101 C 0.93779 0.73717 0.7212 0.0
O102 O 0.97227 0.7897 0.73726 0.0
O103 O 0.94039 0.60791 0.7848 0.0
C104 C 0.10055 0.80723 0.10514 0.0
O105 O 0.08978 0.8202 0.07775 0.0
O106 O 0.22381 0.92355 0.05013 0.0
Zn107 Zn 0.22719 0.92016 0.09534 0.0
O108 O 0.21451 0.99166 0.10948 0.0
C109 C 0.35961 1.00158 0.09555 0.0
O110 O 0.3379 0.03172 0.07871 0.0
O111 O 0.15728 0.83935 0.11595 0.0
C112 C 0.20585 0.99804 0.13707 0.0
O113 O 0.20488 0.95632 0.15659 0.0
C114 C 0.19272 0.94732 0.03747 0.0
O115 O 0.15238 0.95714 0.05341 0.0
O116 O 0.31917 0.94708 0.10685 0.0
C117 C 0.30595 0.10494 0.46227 0.0
O118 O 0.28353 0.09707 0.43466 0.0
O119 O 0.30385 0.22325 0.40999 0.0
Zn120 Zn 0.33067 0.23642 0.45385 0.0
O121 O 0.25874 0.24094 0.47377 0.0
C122 C 0.45084 0.34788 0.43705 0.0
O123 O 0.44552 0.31059 0.41419 0.0
O124 O 0.33311 0.16129 0.47386 0.0
C125 C 0.26143 0.29329 0.48171 0.0
O126 O 0.31581 0.34835 0.4792 0.0
C127 C 0.29752 0.26925 0.39932 0.0
O128 O 0.31209 0.31956 0.41646 0.0
O129 O 0.41085 0.32406 0.45851 0.0
C130 C 0.20102 0.30476 0.78411 0.0
O131 O 0.17824 0.27407 0.7585 0.0
O132 O 0.09003 0.31756 0.73069 0.0
Zn133 Zn 0.09784 0.33298 0.77584 0.0
O134 O 0.02154 0.2575 0.79381 0.0
C135 C 0.0988 0.45253 0.76512 0.0
O136 O 0.12793 0.45155 0.74031 0.0
O137 O 0.17723 0.33754 0.79494 0.0
C138 C 0.01981 0.23383 0.8195 0.0
O139 O 0.0712 0.2607 0.83682 0.0
C140 C 0.0465 0.26411 0.71952 0.0
O141 O 0.01093 0.21566 0.73752 0.0
O142 O 0.08567 0.40924 0.78485 0.0
C143 C 0.87771 0.20921 0.134 0.0
O144 O 0.88569 0.20488 0.10505 0.0
O145 O 0.76016 0.09005 0.07922 0.0
Zn146 Zn 0.74641 0.09999 0.12325 0.0
O147 O 0.73632 0.01933 0.14094 0.0
C148 C 0.63489 0.10876 0.10704 0.0
O149 O 0.67024 0.13792 0.08336 0.0
O150 O 0.82219 0.17358 0.14538 0.0
C151 C 0.69394 0.96573 0.12972 0.0
O152 O 0.65542 0.96535 0.10856 0.0
C153 C 0.79415 0.06519 0.07161 0.0
O154 O 0.82909 0.0572 0.09209 0.0
O155 O 0.65963 0.09334 0.12848 0.0
C156 C 0.99705 0.28118 0.14184 0.0
C157 C 0.93477 0.24505 0.15399 0.0
H158 H 0.09882 0.32976 0.15013 0.0
C159 C 0.92833 0.23729 0.18538 0.0
H160 H 0.00385 0.28845 0.11779 0.0
C161 C 0.98279 0.26068 0.20389 0.0
C162 C 0.04504 0.29291 0.19152 0.0
H163 H 0.8812 0.21009 0.19559 0.0
H164 H 0.97598 0.2509 0.22779 0.0
C165 C 0.05161 0.30508 0.16042 0.0
C166 C 0.73016 0.97843 0.51895 0.0
C167 C 0.76048 0.04274 0.50872 0.0
H168 H 0.68323 0.87796 0.50711 0.0
C169 C 0.75959 0.05395 0.47771 0.0
H170 H 0.72962 0.96804 0.54269 0.0
C171 C 0.7336 0.00227 0.45726 0.0
C172 C 0.70707 0.93816 0.46736 0.0
H173 H 0.7824 0.10282 0.46901 0.0
H174 H 0.73689 0.01279 0.43343 0.0
C175 C 0.70335 0.9267 0.49852 0.0
C176 C 0.7145 0.76594 0.83174 0.0
C177 C 0.72764 0.7656 0.86257 0.0
H178 H 0.72957 0.74318 0.78697 0.0
C179 C 0.75967 0.73286 0.87196 0.0
H180 H 0.68978 0.79047 0.82366 0.0
C181 C 0.78205 0.70517 0.85087 0.0
C182 C 0.77349 0.71022 0.81989 0.0
H183 H 0.7702 0.73126 0.89554 0.0
H184 H 0.80948 0.68335 0.85881 0.0
C185 C 0.73746 0.73887 0.81065 0.0
C186 C 0.92889 0.70251 0.13225 0.0
C187 C 0.93664 0.71057 0.16361 0.0
H188 H 0.97468 0.72637 0.08914 0.0
C189 C 0.99948 0.74283 0.17558 0.0
H190 H 0.88125 0.67778 0.12223 0.0
C191 C 0.05315 0.77027 0.15658 0.0
C192 C 0.04521 0.76664 0.12514 0.0
H193 H 0.00726 0.74954 0.19963 0.0
H194 H 0.10066 0.7976 0.16656 0.0
C195 C 0.98255 0.73051 0.11323 0.0
C196 C 0.25842 0.98516 0.4688 0.0
C197 C 0.28752 0.04748 0.48152 0.0
H198 H 0.20469 0.88296 0.47647 0.0
C199 C 0.29123 0.05349 0.51305 0.0
H200 H 0.25514 0.97877 0.44461 0.0
C201 C 0.26176 0.99849 0.53134 0.0
C202 C 0.22858 0.93624 0.51855 0.0
H203 H 0.31348 0.1007 0.52366 0.0
H204 H 0.26233 0.00494 0.55548 0.0
C205 C 0.2296 0.93014 0.48711 0.0
C206 C 0.28703 0.28495 0.85146 0.0
C207 C 0.31189 0.24766 0.83922 0.0
H208 H 0.23333 0.33311 0.84365 0.0
C209 C 0.30676 0.23645 0.808 0.0
H210 H 0.29034 0.29478 0.87538 0.0
C211 C 0.27364 0.25805 0.78983 0.0
C212 C 0.24535 0.29191 0.80237 0.0
H213 H 0.3254 0.20805 0.79775 0.0
H214 H 0.26802 0.24592 0.76612 0.0
C215 C 0.25437 0.30706 0.83323 0.0
C216 C 0.53994 0.44541 0.22962 0.0
C217 C 0.56596 0.49773 0.20958 0.0
H218 H 0.4551 0.36618 0.24824 0.0
C219 C 0.52371 0.50873 0.19183 0.0
H220 H 0.57108 0.43563 0.24362 0.0
C221 C 0.4568 0.46931 0.19478 0.0
C222 C 0.43092 0.41765 0.21525 0.0
H223 H 0.54226 0.549 0.17631 0.0
H224 H 0.42544 0.47958 0.18123 0.0
C225 C 0.47331 0.40564 0.23228 0.0
C226 C 0.99834 0.52022 0.59025 0.0
C227 C 0.02121 0.55599 0.56355 0.0
H228 H 0.94372 0.42708 0.61048 0.0
C229 C 0.00479 0.52272 0.53591 0.0
H230 H 0.00933 0.54423 0.61193 0.0
C231 C 0.96687 0.45512 0.53507 0.0
C232 C 0.9439 0.41948 0.56183 0.0
H233 H 0.02115 0.54889 0.51492 0.0
H234 H 0.95588 0.43078 0.51348 0.0
C235 C 0.95989 0.45292 0.58939 0.0
C236 C 0.53047 0.06103 0.91607 0.0
C237 C 0.49827 0.05247 0.88864 0.0
H238 H 0.59962 0.04806 0.94087 0.0
C239 C 0.5121 0.02388 0.86436 0.0
H240 H 0.51962 0.08204 0.9352 0.0
C241 C 0.55633 0.00223 0.86786 0.0
C242 C 0.58826 0.01043 0.89547 0.0
H243 H 0.48668 0.01572 0.84319 0.0
H244 H 0.56537 0.97897 0.84909 0.0
C245 C 0.57586 0.04125 0.91931 0.0
C246 C 0.57689 0.51166 0.40788 0.0
C247 C 0.56819 0.55418 0.42657 0.0
H248 H 0.54735 0.41353 0.39675 0.0
C249 C 0.52266 0.52837 0.4498 0.0
H250 H 0.61179 0.52993 0.38983 0.0
C251 C 0.48624 0.46131 0.45406 0.0
C252 C 0.49421 0.4188 0.43495 0.0
H253 H 0.51537 0.5599 0.46477 0.0
H254 H 0.45086 0.44281 0.47189 0.0
C255 C 0.54018 0.44483 0.41193 0.0
C256 C 0.0671 0.58932 0.74848 0.0
C257 C 0.01871 0.57837 0.76935 0.0
H258 H 0.13042 0.55874 0.73095 0.0
C259 C 0.99923 0.52758 0.79007 0.0
H260 H 0.08349 0.62812 0.73223 0.0
C261 C 0.02694 0.488 0.78953 0.0
C262 C 0.07415 0.4981 0.76806 0.0
H263 H 0.96239 0.51816 0.80654 0.0
H264 H 0.01013 0.44848 0.8054 0.0
C265 C 0.09423 0.54957 0.74775 0.0
C266 C 0.47295 0.08355 0.08237 0.0
C267 C 0.43002 0.03066 0.1001 0.0
H268 H 0.57103 0.14973 0.07077 0.0
C269 C 0.45525 0.00631 0.12164 0.0
H270 H 0.45524 0.10367 0.06558 0.0
C271 C 0.52206 0.0336 0.12492 0.0
C272 C 0.56481 0.08514 0.10644 0.0
H273 H 0.42345 0.9659 0.13576 0.0
H274 H 0.54011 0.01288 0.14124 0.0
C275 C 0.53946 0.11014 0.08536 0.0
C276 C 0.19878 0.06617 0.17773 0.0
C277 C 0.2012 0.05431 0.14701 0.0
H278 H 0.1986 0.13047 0.21101 0.0
C279 C 0.20179 0.09822 0.12578 0.0
H280 H 0.19801 0.0331 0.19459 0.0
C281 C 0.20204 0.15404 0.13516 0.0
C282 C 0.20187 0.16698 0.16592 0.0
H283 H 0.20326 0.09015 0.10189 0.0
H284 H 0.20385 0.18765 0.11833 0.0
C285 C 0.19919 0.12203 0.1871 0.0
C286 C 0.0869 0.23169 0.49998 0.0
C287 C 0.08549 0.28953 0.5026 0.0
H288 H 0.14377 0.18763 0.49172 0.0
C289 C 0.1427 0.34889 0.49876 0.0
H290 H 0.04362 0.18517 0.50292 0.0
C291 C 0.20041 0.35033 0.49262 0.0
C292 C 0.20169 0.29242 0.49002 0.0
H293 H 0.14315 0.39428 0.50088 0.0
H294 H 0.24377 0.39675 0.48963 0.0
C295 C 0.14438 0.23312 0.49371 0.0
C296 C 0.95548 0.14974 0.85798 0.0
C297 C 0.96015 0.17587 0.82924 0.0
H298 H 0.89613 0.07612 0.88934 0.0
C299 C 0.90704 0.14601 0.80957 0.0
H300 H 0.99562 0.17162 0.87358 0.0
C301 C 0.85024 0.09132 0.8185 0.0
C302 C 0.84532 0.06547 0.84731 0.0
H303 H 0.90915 0.16488 0.7872 0.0
H304 H 0.81011 0.06965 0.80288 0.0
C305 C 0.8985 0.09504 0.86696 0.0
C306 C 0.74099 0.90853 0.15726 0.0
C307 C 0.69324 0.90575 0.138 0.0
H308 H 0.78072 0.85678 0.17882 0.0
C309 C 0.64718 0.84589 0.12571 0.0
H310 H 0.77736 0.95395 0.167 0.0
C311 C 0.6491 0.78981 0.13252 0.0
C312 C 0.69734 0.79289 0.15156 0.0
H313 H 0.60991 0.84237 0.11071 0.0
H314 H 0.61302 0.74423 0.12279 0.0
C315 C 0.74315 0.85279 0.16388 0.0
C316 C 0.85883 0.76406 0.47431 0.0
C317 C 0.79555 0.71422 0.47968 0.0
H318 H 0.95927 0.79791 0.48043 0.0
C319 C 0.78495 0.65766 0.49426 0.0
H320 H 0.86816 0.80805 0.46299 0.0
C321 C 0.83697 0.65125 0.50359 0.0
C322 C 0.90023 0.70188 0.499 0.0
H323 H 0.73651 0.61824 0.49833 0.0
H324 H 0.8276 0.60753 0.51518 0.0
C325 C 0.91082 0.75822 0.4842 0.0
C326 C 0.14334 0.94587 0.8103 0.0
C327 C 0.19313 0.95277 0.82931 0.0
H328 H 0.05259 0.88114 0.79003 0.0
C329 C 0.18928 0.89741 0.84244 0.0
H330 H 0.14494 0.98761 0.79989 0.0
C331 C 0.13609 0.83635 0.83699 0.0
C332 C 0.08604 0.82956 0.81819 0.0
H333 H 0.22686 0.90124 0.85732 0.0
H334 H 0.13424 0.79461 0.84752 0.0
C335 C 0.09037 0.88483 0.80473 0.0
C336 C 0.27363 0.32168 0.35657 0.0
C337 C 0.27315 0.26694 0.36851 0.0
H338 H 0.25343 0.36403 0.31877 0.0
C339 C 0.24831 0.21053 0.35098 0.0
H340 H 0.29221 0.36592 0.36954 0.0
C341 C 0.22532 0.20929 0.3219 0.0
C342 C 0.22722 0.2646 0.30972 0.0
H343 H 0.24682 0.16745 0.35964 0.0
H344 H 0.20748 0.16538 0.30875 0.0
C345 C 0.25111 0.3206 0.32748 0.0
C346 C 0.04986 0.30787 0.63759 0.0
C347 C 0.99199 0.25546 0.62668 0.0
H348 H 0.11263 0.3516 0.67529 0.0
C349 C 0.95411 0.20406 0.64614 0.0
H350 H 0.08038 0.34828 0.62318 0.0
C351 C 0.97312 0.20576 0.67607 0.0
C352 C 0.03007 0.25917 0.68716 0.0
H353 H 0.90951 0.16289 0.63836 0.0
H354 H 0.94222 0.16596 0.69069 0.0
C355 C 0.06855 0.30981 0.66749 0.0
C356 C 0.83086 0.01957 0.03048 0.0
C357 C 0.78545 0.03499 0.04164 0.0
H358 H 0.85715 0.97771 -0.00554 0.0
C359 C 0.72906 0.01672 0.02494 0.0
H360 H 0.8745 0.03256 0.043 0.0
C361 C 0.71827 0.98373 -0.00235 0.0
C362 C 0.76422 0.96936 0.98618 0.0
H363 H 0.69266 0.027 0.03317 0.0
H364 H 0.67465 0.97103 0.98517 0.0
C365 C 0.82069 0.98773 0.00284 0.0
C366 C 0.67938 0.73452 0.29245 0.0
C367 C 0.72851 0.72563 0.28032 0.0
H368 H 0.64314 0.75937 0.33107 0.0
C369 C 0.78199 0.7393 0.29836 0.0
H370 H 0.63762 0.72481 0.27911 0.0
C371 C 0.78544 0.75987 0.32813 0.0
C372 C 0.73527 0.76676 0.34055 0.0
H373 H 0.82088 0.73351 0.28961 0.0
H374 H 0.82666 0.76857 0.34163 0.0
C375 C 0.68263 0.75468 0.32223 0.0
C376 C 0.02039 0.78898 0.64566 0.0
C377 C 0.98221 0.73414 0.62793 0.0
H378 H 0.03529 0.83361 0.68891 0.0
C379 C 0.92631 0.68237 0.64047 0.0
H380 H 0.06342 0.82978 0.63655 0.0
C381 C 0.91035 0.68425 0.6705 0.0
C382 C 0.94946 0.73832 0.6885 0.0
H383 H 0.89572 0.63939 0.62736 0.0
H384 H 0.86819 0.64273 0.67977 0.0
C385 C 0.0039 0.79127 0.6756 0.0
C386 C 0.27427 0.99665 -0.00339 0.0
C387 C 0.21195 0.97642 0.00728 0.0
H388 H 0.34352 0.04478 0.96188 0.0
C389 C 0.17082 0.98987 0.99013 0.0
H390 H 0.30751 0.988 0.00956 0.0
C391 C 0.19135 0.02208 0.96258 0.0
C392 C 0.25393 0.04285 0.95209 0.0
H393 H 0.12275 0.97536 -0.00203 0.0
H394 H 0.15831 0.03086 0.94954 0.0
C395 C 0.29526 0.03009 0.96948 0.0
loop_
_geom_bond_atom_site_label_1
_geom_bond_atom_site_label_2
_geom_bond_distance
_geom_bond_site_symmetry_2
_ccdc_geom_bond_type
C0 O1 1.160 . S
C0 O7 1.185 . S
O1 C0 1.160 . S
O2 Zn3 1.899 . S
O2 C10 1.284 . S
Zn3 O2 1.899 . S
Zn3 O4 2.032 . S
Zn3 O7 2.086 . S
Zn3 O12 1.977 . S
O4 Zn3 2.032 . S
O4 C8 1.278 . S
C5 O6 1.203 . S
C5 O12 1.267 . S
O6 C5 1.203 . S
O7 C0 1.185 . S
O7 Zn3 2.086 . S
C8 O4 1.278 . S
C8 O9 1.211 . S
O9 C8 1.211 . S
C10 O2 1.284 . S
C10 O11 1.273 . S
O11 C10 1.273 . S
O12 Zn3 1.977 . S
O12 C5 1.267 . S
C13 O14 1.160 . S
C13 O20 1.185 . S
O14 C13 1.160 . S
O15 Zn16 1.899 . S
O15 C23 1.284 . S
Zn16 O15 1.899 . S
Zn16 O17 2.032 . S
Zn16 O20 2.086 . S
Zn16 O25 1.977 . S
O17 Zn16 2.032 . S
O17 C21 1.278 1_655 S
C18 O19 1.203 . S
C18 O25 1.267 . S
O19 C18 1.203 . S
O20 C13 1.185 . S
O20 Zn16 2.086 . S
C21 O17 1.278 1_455 S
C21 O22 1.211 . S
O22 C21 1.211 . S
C23 O15 1.284 . S
C23 O24 1.273 1_655 S
O24 C23 1.273 1_455 S
O25 Zn16 1.977 . S
O25 C18 1.267 . S
C26 O27 1.160 . S
C26 O33 1.185 . S
O27 C26 1.160 . S
O28 Zn29 1.899 . S
O28 C36 1.284 . S
Zn29 O28 1.899 . S
Zn29 O30 2.032 . S
Zn29 O33 2.086 . S
Zn29 O38 1.977 . S
O30 Zn29 2.032 . S
O30 C34 1.278 1_565 S
C31 O32 1.203 . S
C31 O38 1.267 . S
O32 C31 1.203 . S
O33 C26 1.185 . S
O33 Zn29 2.086 . S
C34 O30 1.278 1_545 S
C34 O35 1.211 . S
O35 C34 1.211 . S
C36 O28 1.284 . S
C36 O37 1.273 1_565 S
O37 C36 1.273 1_545 S
O38 Zn29 1.977 . S
O38 C31 1.267 . S
C39 O40 1.160 . S
C39 O46 1.185 . S
O40 C39 1.160 . S
O41 Zn42 1.899 . S
O41 C49 1.284 . S
Zn42 O41 1.899 . S
Zn42 O43 2.032 . S
Zn42 O46 2.086 . S
Zn42 O51 1.977 . S
O43 Zn42 2.032 . S
O43 C47 1.278 . S
C44 O45 1.203 . S
C44 O51 1.267 . S
O45 C44 1.203 . S
O46 C39 1.185 . S
O46 Zn42 2.086 . S
C47 O43 1.278 . S
C47 O48 1.211 . S
O48 C47 1.211 . S
C49 O41 1.284 . S
C49 O50 1.273 . S
O50 C49 1.273 . S
O51 Zn42 1.977 . S
O51 C44 1.267 . S
C52 O53 1.160 . S
C52 O59 1.185 . S
O53 C52 1.160 . S
O54 Zn55 1.899 . S
O54 C62 1.284 . S
Zn55 O54 1.899 . S
Zn55 O56 2.032 . S
Zn55 O59 2.086 . S
Zn55 O64 1.977 . S
O56 Zn55 2.032 . S
O56 C60 1.278 1_455 S
C57 O58 1.203 . S
C57 O64 1.267 . S
O58 C57 1.203 . S
O59 C52 1.185 . S
O59 Zn55 2.086 . S
C60 O56 1.278 1_655 S
C60 O61 1.211 . S
O61 C60 1.211 . S
C62 O54 1.284 . S
C62 O63 1.273 1_455 S
O63 C62 1.273 1_655 S
O64 Zn55 1.977 . S
O64 C57 1.267 . S
C65 O66 1.160 . S
C65 O72 1.185 . S
O66 C65 1.160 . S
O67 Zn68 1.899 . S
O67 C75 1.284 . S
Zn68 O67 1.899 . S
Zn68 O69 2.032 . S
Zn68 O72 2.086 . S
Zn68 O77 1.977 . S
O69 Zn68 2.032 . S
O69 C73 1.278 1_545 S
C70 O71 1.203 . S
C70 O77 1.267 . S
O71 C70 1.203 . S
O72 C65 1.185 . S
O72 Zn68 2.086 . S
C73 O69 1.278 1_565 S
C73 O74 1.211 . S
O74 C73 1.211 . S
C75 O67 1.284 . S
C75 O76 1.273 1_545 S
O76 C75 1.273 1_565 S
O77 Zn68 1.977 . S
O77 C70 1.267 . S
C78 O79 1.160 . S
C78 O85 1.185 . S
O79 C78 1.160 . S
O80 Zn81 1.899 . S
O80 C88 1.284 . S
Zn81 O80 1.899 . S
Zn81 O82 2.032 . S
Zn81 O85 2.086 . S
Zn81 O90 1.977 . S
O82 Zn81 2.032 . S
O82 C86 1.278 . S
C83 O84 1.203 . S
C83 O90 1.267 . S
O84 C83 1.203 . S
O85 C78 1.185 . S
O85 Zn81 2.086 . S
C86 O82 1.278 . S
C86 O87 1.211 . S
O87 C86 1.211 . S
C88 O80 1.284 . S
C88 O89 1.273 . S
O89 C88 1.273 . S
O90 Zn81 1.977 . S
O90 C83 1.267 . S
C91 O92 1.160 . S
C91 O98 1.185 . S
O92 C91 1.160 . S
O93 Zn94 1.899 . S
O93 C101 1.284 . S
Zn94 O93 1.899 . S
Zn94 O95 2.032 . S
Zn94 O98 2.086 . S
Zn94 O103 1.977 . S
O95 Zn94 2.032 . S
O95 C99 1.278 1_655 S
C96 O97 1.203 . S
C96 O103 1.267 . S
O97 C96 1.203 . S
O98 C91 1.185 . S
O98 Zn94 2.086 . S
C99 O95 1.278 1_455 S
C99 O100 1.211 . S
O100 C99 1.211 . S
C101 O93 1.284 . S
C101 O102 1.273 1_655 S
O102 C101 1.273 1_455 S
O103 Zn94 1.977 . S
O103 C96 1.267 . S
C104 O105 1.160 . S
C104 O111 1.185 . S
O105 C104 1.160 . S
O106 Zn107 1.899 . S
O106 C114 1.284 . S
Zn107 O106 1.899 . S
Zn107 O108 2.032 . S
Zn107 O111 2.086 . S
Zn107 O116 1.977 . S
O108 Zn107 2.032 . S
O108 C112 1.278 1_565 S
C109 O110 1.203 . S
C109 O116 1.267 . S
O110 C109 1.203 . S
O111 C104 1.185 . S
O111 Zn107 2.086 . S
C112 O108 1.278 1_545 S
C112 O113 1.211 . S
O113 C112 1.211 . S
C114 O106 1.284 . S
C114 O115 1.273 1_565 S
O115 C114 1.273 1_545 S
O116 Zn107 1.977 . S
O116 C109 1.267 . S
C117 O118 1.160 . S
C117 O124 1.185 . S
O118 C117 1.160 . S
O119 Zn120 1.899 . S
O119 C127 1.284 . S
Zn120 O119 1.899 . S
Zn120 O121 2.032 . S
Zn120 O124 2.086 . S
Zn120 O129 1.977 . S
O121 Zn120 2.032 . S
O121 C125 1.278 . S
C122 O123 1.203 . S
C122 O129 1.267 . S
O123 C122 1.203 . S
O124 C117 1.185 . S
O124 Zn120 2.086 . S
C125 O121 1.278 . S
C125 O126 1.211 . S
O126 C125 1.211 . S
C127 O119 1.284 . S
C127 O128 1.273 . S
O128 C127 1.273 . S
O129 Zn120 1.977 . S
O129 C122 1.267 . S
C130 O131 1.160 . S
C130 O137 1.185 . S
O131 C130 1.160 . S
O132 Zn133 1.899 . S
O132 C140 1.284 . S
Zn133 O132 1.899 . S
Zn133 O134 2.032 . S
Zn133 O137 2.086 . S
Zn133 O142 1.977 . S
O134 Zn133 2.032 . S
O134 C138 1.278 1_455 S
C135 O136 1.203 . S
C135 O142 1.267 . S
O136 C135 1.203 . S
O137 C130 1.185 . S
O137 Zn133 2.086 . S
C138 O134 1.278 1_655 S
C138 O139 1.211 . S
O139 C138 1.211 . S
C140 O132 1.284 . S
C140 O141 1.273 1_455 S
O141 C140 1.273 1_655 S
O142 Zn133 1.977 . S
O142 C135 1.267 . S
C143 O144 1.160 . S
C143 O150 1.185 . S
O144 C143 1.160 . S
O145 Zn146 1.899 . S
O145 C153 1.284 . S
Zn146 O145 1.899 . S
Zn146 O147 2.032 . S
Zn146 O150 2.086 . S
Zn146 O155 1.977 . S
O147 Zn146 2.032 . S
O147 C151 1.278 1_545 S
C148 O149 1.203 . S
C148 O155 1.267 . S
O149 C148 1.203 . S
O150 C143 1.185 . S
O150 Zn146 2.086 . S
C151 O147 1.278 1_565 S
C151 O152 1.211 . S
O152 C151 1.211 . S
C153 O145 1.284 . S
C153 O154 1.273 1_545 S
O154 C153 1.273 1_565 S
O155 Zn146 1.977 . S
O155 C148 1.267 . S
C156 C157 1.387 . S
C156 H160 0.950 . S
C156 C165 1.390 1_655 S
C157 C156 1.387 . S
C157 C159 1.387 . S
H158 C165 0.950 . S
C159 C157 1.387 . S
C159 C161 1.390 1_655 S
C159 H163 0.950 . S
H160 C156 0.950 . S
C161 C159 1.390 1_455 S
C161 C162 1.387 . S
C161 H164 0.950 . S
C162 C161 1.387 . S
C162 C165 1.387 . S
H163 C159 0.950 . S
H164 C161 0.950 . S
C165 C156 1.390 1_455 S
C165 H158 0.950 . S
C165 C162 1.387 . S
C166 C167 1.387 . S
C166 H170 0.950 . S
C166 C175 1.390 1_545 S
C167 C166 1.387 . S
C167 C169 1.387 . S
H168 C175 0.950 . S
C169 C167 1.387 . S
C169 C171 1.390 1_545 S
C169 H173 0.950 . S
H170 C166 0.950 . S
C171 C169 1.390 1_565 S
C171 C172 1.387 . S
C171 H174 0.950 . S
C172 C171 1.387 . S
C172 C175 1.387 . S
H173 C169 0.950 . S
H174 C171 0.950 . S
C175 C166 1.390 1_565 S
C175 H168 0.950 . S
C175 C172 1.387 . S
C176 C177 1.387 . S
C176 H180 0.950 . S
C176 C185 1.390 . S
C177 C176 1.387 . S
C177 C179 1.387 . S
H178 C185 0.950 . S
C179 C177 1.387 . S
C179 C181 1.390 . S
C179 H183 0.950 . S
H180 C176 0.950 . S
C181 C179 1.390 . S
C181 C182 1.387 . S
C181 H184 0.950 . S
C182 C181 1.387 . S
C182 C185 1.387 . S
H183 C179 0.950 . S
H184 C181 0.950 . S
C185 C176 1.390 . S
C185 H178 0.950 . S
C185 C182 1.387 . S
C186 C187 1.387 . S
C186 H190 0.950 . S
C186 C195 1.390 1_655 S
C187 C186 1.387 . S
C187 C189 1.387 . S
H188 C195 0.950 . S
C189 C187 1.387 . S
C189 C191 1.390 1_655 S
C189 H193 0.950 . S
H190 C186 0.950 . S
C191 C189 1.390 1_455 S
C191 C192 1.387 . S
C191 H194 0.950 . S
C192 C191 1.387 . S
C192 C195 1.387 . S
H193 C189 0.950 . S
H194 C191 0.950 . S
C195 C186 1.390 1_455 S
C195 H188 0.950 . S
C195 C192 1.387 . S
C196 C197 1.387 . S
C196 H200 0.950 . S
C196 C205 1.390 1_545 S
C197 C196 1.387 . S
C197 C199 1.387 . S
H198 C205 0.950 . S
C199 C197 1.387 . S
C199 C201 1.390 1_545 S
C199 H203 0.950 . S
H200 C196 0.950 . S
C201 C199 1.390 1_565 S
C201 C202 1.387 . S
C201 H204 0.950 . S
C202 C201 1.387 . S
C202 C205 1.387 . S
H203 C199 0.950 . S
H204 C201 0.950 . S
C205 C196 1.390 1_565 S
C205 H198 0.950 . S
C205 C202 1.387 . S
C206 C207 1.387 . S
C206 H210 0.950 . S
C206 C215 1.390 . S
C207 C206 1.387 . S
C207 C209 1.387 . S
H208 C215 0.950 . S
C209 C207 1.387 . S
C209 C211 1.390 . S
C209 H213 0.950 . S
H210 C206 0.950 . S
C211 C209 1.390 . S
C211 C212 1.387 . S
C211 H214 0.950 . S
C212 C211 1.387 . S
C212 C215 1.387 . S
H213 C209 0.950 . S
H214 C211 0.950 . S
C215 C206 1.390 . S
C215 H208 0.950 . S
C215 C212 1.387 . S
C216 C217 1.387 . S
C216 H220 0.950 . S
C216 C225 1.390 . S
C217 C216 1.387 . S
C217 C219 1.387 . S
H218 C225 0.950 . S
C219 C217 1.387 . S
C219 C221 1.390 . S
C219 H223 0.950 . S
H220 C216 0.950 . S
C221 C219 1.390 . S
C221 C222 1.387 . S
C221 H224 0.950 . S
C222 C221 1.387 . S
C222 C225 1.387 . S
H223 C219 0.950 . S
H224 C221 0.950 . S
C225 C216 1.390 . S
C225 H218 0.950 . S
C225 C222 1.387 . S
C226 C227 1.387 . S
C226 H230 0.950 . S
C226 C235 1.390 1_455 S
C227 C226 1.387 . S
C227 C229 1.387 . S
H228 C235 0.950 . S
C229 C227 1.387 . S
C229 C231 1.390 1_455 S
C229 H233 0.950 . S
H230 C226 0.950 . S
C231 C229 1.390 1_655 S
C231 C232 1.387 . S
C231 H234 0.950 . S
C232 C231 1.387 . S
C232 C235 1.387 . S
H233 C229 0.950 . S
H234 C231 0.950 . S
C235 C226 1.390 1_655 S
C235 H228 0.950 . S
C235 C232 1.387 . S
C236 C237 1.387 . S
C236 H240 0.950 . S
C236 C245 1.390 1_545 S
C237 C236 1.387 . S
C237 C239 1.387 . S
H238 C245 0.950 . S
C239 C237 1.387 . S
C239 C241 1.390 1_545 S
C239 H243 0.950 . S
H240 C236 0.950 . S
C241 C239 1.390 1_565 S
C241 C242 1.387 . S
C241 H244 0.950 . S
C242 C241 1.387 . S
C242 C245 1.387 . S
H243 C239 0.950 . S
H244 C241 0.950 . S
C245 C236 1.390 1_565 S
C245 H238 0.950 . S
C245 C242 1.387 . S
C246 C247 1.387 . S
C246 H250 0.950 . S
C246 C255 1.390 . S
C247 C246 1.387 . S
C247 C249 1.387 . S
H248 C255 0.950 . S
C249 C247 1.387 . S
C249 C251 1.390 . S
C249 H253 0.950 . S
H250 C246 0.950 . S
C251 C249 1.390 . S
C251 C252 1.387 . S
C251 H254 0.950 . S
C252 C251 1.387 . S
C252 C255 1.387 . S
H253 C249 0.950 . S
H254 C251 0.950 . S
C255 C246 1.390 . S
C255 H248 0.950 . S
C255 C252 1.387 . S
C256 C257 1.387 . S
C256 H260 0.950 . S
C256 C265 1.390 1_655 S
C257 C256 1.387 . S
C257 C259 1.387 . S
H258 C265 0.950 . S
C259 C257 1.387 . S
C259 C261 1.390 1_655 S
C259 H263 0.950 . S
H260 C256 0.950 . S
C261 C259 1.390 1_455 S
C261 C262 1.387 . S
C261 H264 0.950 . S
C262 C261 1.387 . S
C262 C265 1.387 . S
H263 C259 0.950 . S
H264 C261 0.950 . S
C265 C256 1.390 1_455 S
C265 H258 0.950 . S
C265 C262 1.387 . S
C266 C267 1.387 . S
C266 H270 0.950 . S
C266 C275 1.390 1_565 S
C267 C266 1.387 . S
C267 C269 1.387 . S
H268 C275 0.950 . S
C269 C267 1.387 . S
C269 C271 1.390 1_565 S
C269 H273 0.950 . S
H270 C266 0.950 . S
C271 C269 1.390 1_545 S
C271 C272 1.387 . S
C271 H274 0.950 . S
C272 C271 1.387 . S
C272 C275 1.387 . S
H273 C269 0.950 . S
H274 C271 0.950 . S
C275 C266 1.390 1_545 S
C275 H268 0.950 . S
C275 C272 1.387 . S
C276 C277 1.387 . S
C276 H280 0.950 . S
C276 C285 1.390 . S
C277 C276 1.387 . S
C277 C279 1.387 . S
H278 C285 0.950 . S
C279 C277 1.387 . S
C279 C281 1.390 . S
C279 H283 0.950 . S
H280 C276 0.950 . S
C281 C279 1.390 . S
C281 C282 1.387 . S
C281 H284 0.950 . S
C282 C281 1.387 . S
C282 C285 1.387 . S
H283 C279 0.950 . S
H284 C281 0.950 . S
C285 C276 1.390 . S
C285 H278 0.950 . S
C285 C282 1.387 . S
C286 C287 1.387 . S
C286 H290 0.950 . S
C286 C295 1.390 . S
C287 C286 1.387 . S
C287 C289 1.387 . S
H288 C295 0.950 . S
C289 C287 1.387 . S
C289 C291 1.390 . S
C289 H293 0.950 . S
H290 C286 0.950 . S
C291 C289 1.390 . S
C291 C292 1.387 . S
C291 H294 0.950 . S
C292 C291 1.387 . S
C292 C295 1.387 . S
H293 C289 0.950 . S
H294 C291 0.950 . S
C295 C286 1.390 . S
C295 H288 0.950 . S
C295 C292 1.387 . S
C296 C297 1.387 . S
C296 H300 0.950 . S
C296 C305 1.390 . S
C297 C296 1.387 . S
C297 C299 1.387 . S
H298 C305 0.950 . S
C299 C297 1.387 . S
C299 C301 1.390 . S
C299 H303 0.950 . S
H300 C296 0.950 . S
C301 C299 1.390 . S
C301 C302 1.387 . S
C301 H304 0.950 . S
C302 C301 1.387 . S
C302 C305 1.387 . S
H303 C299 0.950 . S
H304 C301 0.950 . S
C305 C296 1.390 . S
C305 H298 0.950 . S
C305 C302 1.387 . S
C306 C307 1.387 . S
C306 H310 0.950 . S
C306 C315 1.390 . S
C307 C306 1.387 . S
C307 C309 1.387 . S
H308 C315 0.950 . S
C309 C307 1.387 . S
C309 C311 1.390 . S
C309 H313 0.950 . S
H310 C306 0.950 . S
C311 C309 1.390 . S
C311 C312 1.387 . S
C311 H314 0.950 . S
C312 C311 1.387 . S
C312 C315 1.387 . S
H313 C309 0.950 . S
H314 C311 0.950 . S
C315 C306 1.390 . S
C315 H308 0.950 . S
C315 C312 1.387 . S
C316 C317 1.387 . S
C316 H320 0.950 . S
C316 C325 1.390 . S
C317 C316 1.387 . S
C317 C319 1.387 . S
H318 C325 0.950 . S
C319 C317 1.387 . S
C319 C321 1.390 . S
C319 H323 0.950 . S
H320 C316 0.950 . S
C321 C319 1.390 . S
C321 C322 1.387 . S
C321 H324 0.950 . S
C322 C321 1.387 . S
C322 C325 1.387 . S
H323 C319 0.950 . S
H324 C321 0.950 . S
C325 C316 1.390 . S
C325 H318 0.950 . S
C325 C322 1.387 . S
C326 C327 1.387 . S
C326 H330 0.950 . S
C326 C335 1.390 . S
C327 C326 1.387 . S
C327 C329 1.387 . S
H328 C335 0.950 . S
C329 C327 1.387 . S
C329 C331 1.390 . S
C329 H333 0.950 . S
H330 C326 0.950 . S
C331 C329 1.390 . S
C331 C332 1.387 . S
C331 H334 0.950 . S
C332 C331 1.387 . S
C332 C335 1.387 . S
H333 C329 0.950 . S
H334 C331 0.950 . S
C335 C326 1.390 . S
C335 H328 0.950 . S
C335 C332 1.387 . S
C336 C337 1.387 . S
C336 H340 0.950 . S
C336 C345 1.390 . S
C337 C336 1.387 . S
C337 C339 1.387 . S
H338 C345 0.950 . S
C339 C337 1.387 . S
C339 C341 1.390 . S
C339 H343 0.950 . S
H340 C336 0.950 . S
C341 C339 1.390 . S
C341 C342 1.387 . S
C341 H344 0.950 . S
C342 C341 1.387 . S
C342 C345 1.387 . S
H343 C339 0.950 . S
H344 C341 0.950 . S
C345 C336 1.390 . S
C345 H338 0.950 . S
C345 C342 1.387 . S
C346 C347 1.387 1_455 S
C346 H350 0.950 . S
C346 C355 1.390 . S
C347 C346 1.387 1_655 S
C347 C349 1.387 . S
H348 C355 0.950 . S
C349 C347 1.387 . S
C349 C351 1.390 . S
C349 H353 0.950 . S
H350 C346 0.950 . S
C351 C349 1.390 . S
C351 C352 1.387 1_655 S
C351 H354 0.950 . S
C352 C351 1.387 1_455 S
C352 C355 1.387 . S
H353 C349 0.950 . S
H354 C351 0.950 . S
C355 C346 1.390 . S
C355 H348 0.950 . S
C355 C352 1.387 . S
C356 C357 1.387 . S
C356 H360 0.950 . S
C356 C365 1.390 1_544 S
C357 C356 1.387 . S
C357 C359 1.387 . S
H358 C365 0.950 . S
C359 C357 1.387 . S
C359 C361 1.390 1_544 S
C359 H363 0.950 . S
H360 C356 0.950 . S
C361 C359 1.390 1_566 S
C361 C362 1.387 . S
C361 H364 0.950 . S
C362 C361 1.387 . S
C362 C365 1.387 . S
H363 C359 0.950 . S
H364 C361 0.950 . S
C365 C356 1.390 1_566 S
C365 H358 0.950 . S
C365 C362 1.387 . S
C366 C367 1.387 . S
C366 H370 0.950 . S
C366 C375 1.390 . S
C367 C366 1.387 . S
C367 C369 1.387 . S
H368 C375 0.950 . S
C369 C367 1.387 . S
C369 C371 1.390 . S
C369 H373 0.950 . S
H370 C366 0.950 . S
C371 C369 1.390 . S
C371 C372 1.387 . S
C371 H374 0.950 . S
C372 C371 1.387 . S
C372 C375 1.387 . S
H373 C369 0.950 . S
H374 C371 0.950 . S
C375 C366 1.390 . S
C375 H368 0.950 . S
C375 C372 1.387 . S
C376 C377 1.387 . S
C376 H380 0.950 . S
C376 C385 1.390 . S
C377 C376 1.387 . S
C377 C379 1.387 1_455 S
H378 C385 0.950 . S
C379 C377 1.387 1_655 S
C379 C381 1.390 . S
C379 H383 0.950 . S
H380 C376 0.950 . S
C381 C379 1.390 . S
C381 C382 1.387 . S
C381 H384 0.950 . S
C382 C381 1.387 . S
C382 C385 1.387 1_655 S
H383 C379 0.950 . S
H384 C381 0.950 . S
C385 C376 1.390 . S
C385 H378 0.950 . S
C385 C382 1.387 1_455 S
C386 C387 1.387 . S
C386 H390 0.950 . S
C386 C395 1.390 1_564 S
C387 C386 1.387 . S
C387 C389 1.387 . S
H388 C395 0.950 . S
C389 C387 1.387 . S
C389 C391 1.390 1_564 S
C389 H393 0.950 . S
H390 C386 0.950 . S
C391 C389 1.390 1_546 S
C391 C392 1.387 . S
C391 H394 0.950 . S
C392 C391 1.387 . S
C392 C395 1.387 . S
H393 C389 0.950 . S
H394 C391 0.950 . S
C395 C386 1.390 1_546 S
C395 H388 0.950 . S
C395 C392 1.387 . S
C157 C143 1.504 . S
C162 C0 1.505 . S
C167 C13 1.506 . S
C172 C78 1.506 . S
C177 C26 1.507 . S
C182 C91 1.505 . S
C187 C39 1.505 . S
C192 C104 1.504 . S
C197 C117 1.506 . S
C202 C52 1.506 . S
C207 C65 1.504 . S
C212 C130 1.505 . S
C217 C44 1.282 . S
C222 C5 1.282 . S
C227 C57 1.282 . S
C232 C18 1.282 . S
C237 C70 1.282 . S
C242 C31 1.282 . S
C247 C83 1.282 . S
C252 C122 1.282 . S
C257 C96 1.282 . S
C262 C135 1.282 . S
C267 C109 1.282 . S
C272 C148 1.282 . S
C277 C112 0.874 . S
C282 C8 0.871 . S
C287 C21 0.872 . S
C292 C125 0.872 . S
C297 C138 0.874 . S
C302 C34 0.871 . S
C307 C151 0.871 . S
C312 C47 0.874 . S
C317 C86 0.872 . S
C322 C60 0.872 . S
C327 C73 0.874 . S
C332 C99 0.871 . S
C337 C127 1.536 . S
C342 C10 1.536 . S
C347 C23 1.536 . S
C352 C140 1.536 . S
C357 C153 1.539 . S
C362 C36 1.539 . S
C367 C49 1.536 . S
C372 C88 1.536 . S
C377 C62 1.539 . S
C382 C101 1.539 . S
C387 C114 1.536 . S
C392 C75 1.536 . S
