# Generated by pormake.
# Topology sxa, (6)-cn, num edge types: 1
# Building blocks:
#     Node 0, Type 0, BuildingBlock: LEVNOQ01_clean_sbu_1, # of connection points: 6
#     Node 1, Type 0, BuildingBlock: LEVNOQ01_clean_sbu_1, # of connection points: 6
#     Node 2, Type 0, BuildingBlock: LEVNOQ01_clean_sbu_1, # of connection points: 6
#     Node 3, Type 0, BuildingBlock: LEVNOQ01_clean_sbu_1, # of connection points: 6
#     Edge 4, Type (0, 0), BuildingBlock: UVAHIK_clean_linker_0, # of connection points: 2
#     Edge 5, Type (0, 0), BuildingBlock: UVAHIK_clean_linker_0, # of connection points: 2
#     Edge 6, Type (0, 0), BuildingBlock: UVAHIK_clean_linker_0, # of connection points: 2
#     Edge 7, Type (0, 0), BuildingBlock: UVAHIK_clean_linker_0, # of connection points: 2
#     Edge 8, Type (0, 0), BuildingBlock: UVAHIK_clean_linker_0, # of connection points: 2
#     Edge 9, Type (0, 0), BuildingBlock: UVAHIK_clean_linker_0, # of connection points: 2
#     Edge 10, Type (0, 0), BuildingBlock: UVAHIK_clean_linker_0, # of connection points: 2
#     Edge 11, Type (0, 0), BuildingBlock: UVAHIK_clean_linker_0, # of connection points: 2
#     Edge 12, Type (0, 0), BuildingBlock: UVAHIK_clean_linker_0, # of connection points: 2
#     Edge 13, Type (0, 0), BuildingBlock: UVAHIK_clean_linker_0, # of connection points: 2
#     Edge 14, Type (0, 0), BuildingBlock: UVAHIK_clean_linker_0, # of connection points: 2
#     Edge 15, Type (0, 0), BuildingBlock: UVAHIK_clean_linker_0, # of connection points: 2
# Relax obj value: 0.189
# Max RMSD: 0.231
# Mean RMSD: 0.231
data_MOF--net-sxa--node1-LEVNOQ01_clean_sbu_1--edge1-UVAHIK_clean_linker_0
_symmetry_space_group_name_H-M    P1
_symmetry_Int_Tables_number       1
_symmetry_cell_setting            triclinic
loop_
_symmetry_equiv_pos_as_xyz
'x, y, z'
_cell_length_a     32.546869
_cell_length_b     37.986979
_cell_length_c     19.902159
_cell_angle_alpha  90.127874
_cell_angle_beta   89.955986
_cell_angle_gamma 90.12351
loop_
_atom_site_label
_atom_site_type_symbol
_atom_site_fract_x
_atom_site_fract_y
_atom_site_fract_z
_atom_type_partial_charge
O0 O 0.07708 0.70827 0.08006 0.0
Mg1 Mg 0.05712 0.69668 0.17794 0.0
O2 O 0.04154 0.75695 0.09432 0.0
Mg3 Mg -0.00733 0.7536 0.17858 0.0
O4 O -0.0052 0.69134 0.18338 0.0
O5 O 0.03957 0.64684 0.19705 0.0
O6 O 0.93985 0.75041 0.26395 0.0
O7 O 0.94619 0.74125 0.09383 0.0
Mg8 Mg 0.93007 0.80867 0.15594 0.0
O9 O 0.99201 0.81593 0.16156 0.0
O10 O 0.89846 0.79498 0.2425 0.0
O11 O 0.91021 0.78749 0.06379 0.0
O12 O 0.94551 0.85973 0.15503 0.0
C13 C 0.07662 0.75041 0.28225 0.0
C14 C 0.06767 0.73897 0.0611 0.0
C15 C 0.00237 0.65767 0.18869 0.0
C16 C 0.90794 0.76883 0.27822 0.0
C17 C 0.92044 0.75576 0.05456 0.0
C18 C 0.98322 0.84936 0.15477 0.0
O19 O 0.08842 0.72212 0.25508 0.0
O20 O 0.04297 0.76517 0.26426 0.0
O21 O 0.56352 0.23475 0.04039 0.0
Mg22 Mg 0.55546 0.21624 0.13856 0.0
O23 O 0.538 0.28034 0.09291 0.0
Mg24 Mg 0.49227 0.26326 0.17731 0.0
O25 O 0.49668 0.20112 0.16115 0.0
O26 O 0.54948 0.16374 0.14428 0.0
O27 O 0.44247 0.24881 0.26218 0.0
O28 O 0.4437 0.25925 0.09446 0.0
Mg29 Mg 0.42231 0.32098 0.18708 0.0
O30 O 0.4846 0.3242 0.18441 0.0
O31 O 0.39806 0.29308 0.26821 0.0
O32 O 0.40167 0.30484 0.09066 0.0
O33 O 0.44437 0.37085 0.20209 0.0
C34 C 0.58189 0.25663 0.25995 0.0
C35 C 0.55813 0.26758 0.0436 0.0
C36 C 0.51073 0.1692 0.15275 0.0
C37 C 0.41048 0.26333 0.28789 0.0
C38 C 0.41467 0.27604 0.06619 0.0
C39 C 0.48019 0.35822 0.18847 0.0
O40 O 0.59447 0.23707 0.21281 0.0
O41 O 0.54451 0.26718 0.26119 0.0
O42 O 0.07573 0.29192 0.94848 0.0
Mg43 Mg 0.05331 0.31032 0.8558 0.0
O44 O 0.04031 0.2447 0.92189 0.0
Mg45 Mg -0.00726 0.25405 0.83797 0.0
O46 O 0.99104 0.31682 0.8518 0.0
O47 O 0.03739 0.3611 0.85445 0.0
O48 O 0.94067 0.26224 0.75323 0.0
O49 O 0.94473 0.25792 0.92449 0.0
Mg50 Mg 0.93323 0.19726 0.84988 0.0
O51 O -0.00514 0.19126 0.8365 0.0
O52 O 0.89647 0.21982 0.77677 0.0
O53 O 0.9161 0.20723 0.94945 0.0
O54 O 0.94834 0.14734 0.82875 0.0
C55 C 0.07596 0.2698 0.73502 0.0
C56 C 0.06624 0.26019 0.95963 0.0
C57 C -0.00023 0.35044 0.85656 0.0
C58 C 0.90617 0.24668 0.74307 0.0
C59 C 0.92194 0.23936 0.96283 0.0
C60 C 0.98606 0.15768 0.83245 0.0
O61 O 0.08499 0.29667 0.76935 0.0
O62 O 0.04466 0.2509 0.75092 0.0
O63 O 0.41597 0.73252 0.96702 0.0
Mg64 Mg 0.43112 0.71141 0.87282 0.0
O65 O 0.4474 0.778 0.92314 0.0
Mg66 Mg 0.49292 0.76228 0.83829 0.0
O67 O 0.49159 0.69987 0.85668 0.0
O68 O 0.44168 0.65969 0.87553 0.0
O69 O 0.54232 0.7485 0.75267 0.0
O70 O 0.54215 0.76 0.92044 0.0
Mg71 Mg 0.56086 0.82073 0.82727 0.0
O72 O 0.49842 0.82376 0.83089 0.0
O73 O 0.58607 0.7933 0.74639 0.0
O74 O 0.58303 0.80644 0.92356 0.0
O75 O 0.53903 0.87015 0.81065 0.0
C76 C 0.40537 0.74784 0.74797 0.0
C77 C 0.42419 0.76498 0.96829 0.0
C78 C 0.47995 0.66731 0.86695 0.0
C79 C 0.57404 0.76336 0.72677 0.0
C80 C 0.57091 0.77747 0.94834 0.0
C81 C 0.50322 0.85775 0.82545 0.0
O82 O 0.39511 0.72466 0.79025 0.0
O83 O 0.43946 0.76457 0.75463 0.0
C84 C 0.96496 0.40839 0.84966 0.0
C85 C 0.97006 0.37609 0.88276 0.0
C86 C 0.95186 0.43822 0.88522 0.0
C87 C 0.96375 0.47228 0.05524 0.0
H88 H 0.89982 0.55145 0.99173 0.0
C89 C 0.96589 0.60085 0.20387 0.0
C90 C 0.97296 0.63102 0.16507 0.0
C91 C 0.95232 0.56964 0.17352 0.0
C92 C 0.9178 0.52957 0.01021 0.0
H93 H 0.96664 0.35015 0.97878 0.0
H94 H 0.94037 0.40085 0.03971 0.0
H95 H 0.89939 0.49612 0.92838 0.0
H96 H 0.97214 0.6521 0.06438 0.0
H97 H 0.94728 0.59845 0.01152 0.0
H98 H 0.98406 0.50576 0.13473 0.0
C99 C 0.94603 0.40326 0.98627 0.0
C100 C 0.91747 0.49788 0.97393 0.0
C101 C 0.95945 0.37368 0.95084 0.0
C102 C 0.96412 0.63 0.09613 0.0
C103 C 0.95064 0.59886 0.06564 0.0
C104 C 0.96431 0.50388 0.09111 0.0
C105 C 0.94416 0.43628 0.95472 0.0
C106 C 0.94072 0.46895 0.9958 0.0
C107 C 0.94642 0.56781 0.10345 0.0
C108 C 0.94167 0.53313 0.06886 0.0
H109 H 0.97469 0.41129 0.79789 0.0
H110 H 0.95132 0.46333 0.85957 0.0
H111 H 0.98295 0.4509 0.07263 0.0
H112 H 0.97392 0.60063 0.25669 0.0
H113 H 0.94887 0.5464 0.20442 0.0
C114 C 0.52028 0.41402 0.18782 0.0
C115 C 0.50899 0.38254 0.15559 0.0
C116 C 0.53337 0.44312 0.15017 0.0
C117 C 0.50949 0.48006 0.98699 0.0
H118 H 0.58976 0.55196 0.03123 0.0
C119 C 0.50745 0.60829 0.8409 0.0
C120 C 0.50928 0.63885 0.88035 0.0
C121 C 0.52059 0.57603 0.86681 0.0
C122 C 0.56712 0.53218 0.01823 0.0
H123 H 0.50281 0.35662 0.05928 0.0
H124 H 0.52698 0.40671 0.99375 0.0
H125 H 0.58903 0.49646 0.09376 0.0
H126 H 0.52715 0.65988 0.97685 0.0
H127 H 0.55052 0.60411 0.0222 0.0
H128 H 0.48569 0.51587 0.91477 0.0
C129 C 0.52615 0.40898 0.04801 0.0
C130 C 0.56683 0.50037 0.05398 0.0
C131 C 0.5131 0.38004 0.08562 0.0
C132 C 0.5274 0.63712 0.94417 0.0
C133 C 0.54017 0.60482 0.97053 0.0
C134 C 0.50947 0.5118 0.95194 0.0
C135 C 0.53449 0.44135 0.07957 0.0
C136 C 0.53787 0.47402 0.03882 0.0
C137 C 0.5348 0.57352 0.93351 0.0
C138 C 0.53813 0.53847 0.96709 0.0
H139 H 0.51581 0.417 0.24148 0.0
H140 H 0.53913 0.46778 0.17591 0.0
H141 H 0.486 0.46076 0.97527 0.0
H142 H 0.49261 0.60879 0.79219 0.0
H143 H 0.51692 0.55268 0.83606 0.0
C144 C 0.47107 0.88033 0.92848 0.0
C145 C 0.47512 0.88263 0.85847 0.0
C146 C 0.45941 0.90965 0.96633 0.0
C147 C 0.42289 1.00216 0.96123 0.0
H148 H 0.50477 0.01525 0.10039 0.0
C149 C 0.46458 0.138 0.07451 0.0
C150 C 0.48328 0.13944 0.13791 0.0
C151 C 0.45196 0.10579 0.0472 0.0
C152 C 0.48078 0.01192 0.06327 0.0
H153 H 0.46964 0.91724 0.77288 0.0
H154 H 0.44889 0.96873 0.83888 0.0
H155 H 0.50199 0.96026 0.03933 0.0
H156 H 0.50151 0.10891 0.22427 0.0
H157 H 0.47698 0.0529 0.1792 0.0
H158 H 0.40198 0.0542 0.98484 0.0
C159 C 0.45352 0.94391 0.86444 0.0
C160 C 0.47935 0.98022 0.02785 0.0
C161 C 0.4651 0.9144 0.82653 0.0
C162 C 0.48627 0.10856 0.17589 0.0
C163 C 0.47299 0.07638 0.14921 0.0
C164 C 0.42392 0.03389 0.99746 0.0
C165 C 0.4525 0.94224 0.93503 0.0
C166 C 0.45069 0.97501 0.97601 0.0
C167 C 0.45779 0.07425 0.08296 0.0
C168 C 0.45322 0.03937 0.04862 0.0
H169 H 0.48067 0.85675 0.9547 0.0
H170 H 0.45867 0.90746 0.02059 0.0
H171 H 0.40049 0.99892 0.92145 0.0
H172 H 0.46394 0.16112 0.04295 0.0
H173 H 0.441 0.10547 0.99586 0.0
C174 C 0.01856 0.90717 0.16248 0.0
C175 C 0.01327 0.8749 0.12906 0.0
C176 C 0.03246 0.93687 0.12745 0.0
C177 C 0.02226 0.97128 0.95806 0.0
H178 H 0.08842 0.04919 0.02286 0.0
C179 C 0.02153 0.10076 0.81345 0.0
C180 C 0.01559 0.13071 0.85353 0.0
C181 C 0.03494 0.0692 0.84225 0.0
C182 C 0.06981 0.02768 1.004 0.0
H183 H 0.01731 0.84875 0.03296 0.0
H184 H 0.04454 0.89939 0.97288 0.0
H185 H 0.08725 0.99375 0.0853 0.0
H186 H 0.01807 0.15093 0.95492 0.0
H187 H 0.04275 0.09686 1.00495 0.0
H188 H 0.00273 1.0053 0.8793 0.0
C189 C 0.03848 0.90184 0.02622 0.0
C190 C 0.06925 0.99592 0.03976 0.0
C191 C 0.02437 0.87235 0.06116 0.0
C192 C 0.02547 0.12911 0.92204 0.0
C193 C 0.03875 0.09765 0.95097 0.0
C194 C 0.02252 1.00299 0.92277 0.0
C195 C 0.04071 0.93483 0.05812 0.0
C196 C 0.04516 0.96746 0.01746 0.0
C197 C 0.04175 0.0668 0.91206 0.0
C198 C 0.04593 0.03183 0.94553 0.0
H199 H 0.00849 0.91016 0.21408 0.0
H200 H 0.03325 0.96199 0.15329 0.0
H201 H 0.0025 0.95024 0.94035 0.0
H202 H 0.01268 0.10098 0.76099 0.0
H203 H 0.03747 0.04613 0.81046 0.0
C204 C 0.37011 0.7887 0.6654 0.0
C205 C 0.37554 0.755 0.69303 0.0
C206 C 0.33671 0.79548 0.62226 0.0
C207 C 0.23331 0.75907 0.57884 0.0
H208 H 0.24259 0.81565 0.41793 0.0
C209 C 0.09545 0.77302 0.3974 0.0
C210 C 0.10574 0.76689 0.32994 0.0
C211 C 0.12652 0.77977 0.44494 0.0
C212 C 0.23938 0.79984 0.46284 0.0
H213 H 0.35157 0.70164 0.69377 0.0
H214 H 0.29483 0.71313 0.61842 0.0
H215 H 0.30177 0.80971 0.49252 0.0
H216 H 0.15589 0.7648 0.25851 0.0
H217 H 0.20948 0.77677 0.34016 0.0
H218 H 0.17171 0.74779 0.5479 0.0
C219 C 0.31518 0.73472 0.63124 0.0
C220 C 0.2733 0.79668 0.50593 0.0
C221 C 0.34815 0.72804 0.67405 0.0
C222 C 0.14707 0.76984 0.31018 0.0
C223 C 0.17787 0.77679 0.35716 0.0
C224 C 0.19947 0.76222 0.53587 0.0
C225 C 0.30822 0.76869 0.60604 0.0
C226 C 0.27107 0.77548 0.56363 0.0
C227 C 0.16831 0.78071 0.42563 0.0
C228 C 0.20226 0.78197 0.47638 0.0
H229 H 0.39039 0.81009 0.67956 0.0
H230 H 0.33235 0.82197 0.60365 0.0
H231 H 0.23008 0.74307 0.62352 0.0
H232 H 0.06391 0.77032 0.41405 0.0
H233 H 0.11795 0.78299 0.49716 0.0
C234 C 0.11413 0.22544 0.66263 0.0
C235 C 0.10501 0.26049 0.67996 0.0
C236 C 0.14816 0.21775 0.62118 0.0
C237 C 0.24818 0.25718 0.57179 0.0
H238 H 0.24737 0.19122 0.42314 0.0
C239 C 0.39137 0.24313 0.40363 0.0
C240 C 0.38286 0.24456 0.33465 0.0
C241 C 0.3597 0.23613 0.4499 0.0
C242 C 0.24822 0.20966 0.46467 0.0
H243 H 0.12288 0.31489 0.66357 0.0
H244 H 0.18098 0.30162 0.59182 0.0
H245 H 0.18597 0.19783 0.49323 0.0
H246 H 0.33531 0.23854 0.25959 0.0
H247 H 0.28049 0.22624 0.33926 0.0
H248 H 0.30947 0.27027 0.5422 0.0
C249 C 0.16283 0.27994 0.61112 0.0
C250 C 0.21305 0.21323 0.50515 0.0
C251 C 0.12912 0.28754 0.65186 0.0
C252 C 0.34288 0.23672 0.3125 0.0
C253 C 0.31136 0.22974 0.35841 0.0
C254 C 0.28325 0.25356 0.53166 0.0
C255 C 0.1737 0.24498 0.59681 0.0
C256 C 0.21223 0.23775 0.55812 0.0
C257 C 0.31888 0.2307 0.42798 0.0
C258 C 0.28357 0.23036 0.47647 0.0
H259 H 0.09649 0.204 0.68399 0.0
H260 H 0.15559 0.19051 0.6108 0.0
H261 H 0.24893 0.27591 0.6129 0.0
H262 H 0.42169 0.24989 0.42205 0.0
H263 H 0.36685 0.23662 0.50301 0.0
C264 C 0.83297 0.25545 0.71406 0.0
C265 C 0.87445 0.25984 0.69581 0.0
C266 C 0.80152 0.26097 0.66793 0.0
C267 C 0.77424 0.29861 0.502 0.0
H268 H 0.68854 0.22751 0.51005 0.0
C269 C 0.65289 0.27407 0.29254 0.0
C270 C 0.6122 0.26673 0.31212 0.0
C271 C 0.68397 0.27823 0.34037 0.0
C272 C 0.71182 0.24789 0.50773 0.0
H273 H 0.91525 0.27566 0.6155 0.0
H274 H 0.85967 0.28533 0.5334 0.0
H275 H 0.74568 0.22517 0.58856 0.0
H276 H 0.57201 0.25862 0.39727 0.0
H277 H 0.62672 0.2653 0.48162 0.0
H278 H 0.7405 0.32058 0.41937 0.0
C279 C 0.85174 0.27755 0.58408 0.0
C280 C 0.74474 0.24659 0.55276 0.0
C281 C 0.8836 0.27215 0.63099 0.0
C282 C 0.60296 0.26472 0.38088 0.0
C283 C 0.63436 0.2682 0.42894 0.0
C284 C 0.74133 0.29974 0.45638 0.0
C285 C 0.81035 0.27082 0.60154 0.0
C286 C 0.77626 0.27209 0.55111 0.0
C287 C 0.67536 0.27446 0.4091 0.0
C288 C 0.70958 0.27449 0.45904 0.0
H289 H 0.82476 0.24652 0.764 0.0
H290 H 0.77013 0.25665 0.68411 0.0
H291 H 0.79772 0.3188 0.49945 0.0
H292 H 0.66095 0.27562 0.23977 0.0
H293 H 0.71515 0.28272 0.32327 0.0
C294 C 0.85448 0.78695 0.36047 0.0
C295 C 0.87891 0.75984 0.33344 0.0
C296 C 0.82088 0.77944 0.40151 0.0
C297 C 0.77153 0.71335 0.50987 0.0
H298 H 0.67459 0.76908 0.47165 0.0
C299 C 0.642 0.73768 0.70239 0.0
C300 C 0.60189 0.74474 0.68023 0.0
C301 C 0.67349 0.73058 0.65654 0.0
C302 C 0.70096 0.75273 0.48252 0.0
H303 H 0.88814 0.70344 0.33154 0.0
H304 H 0.82918 0.69013 0.40519 0.0
H305 H 0.73492 0.77455 0.40045 0.0
H306 H 0.56276 0.74861 0.59298 0.0
H307 H 0.61759 0.73515 0.51209 0.0
H308 H 0.73753 0.69186 0.59266 0.0
C309 C 0.83628 0.71733 0.39379 0.0
C310 C 0.73591 0.75626 0.4421 0.0
C311 C 0.87023 0.72491 0.35208 0.0
C312 C 0.59322 0.74246 0.61139 0.0
C313 C 0.62485 0.73534 0.56516 0.0
C314 C 0.73646 0.70987 0.55059 0.0
C315 C 0.81044 0.74454 0.41715 0.0
C316 C 0.77205 0.73734 0.45619 0.0
C317 C 0.66576 0.73063 0.58702 0.0
C318 C 0.70095 0.7301 0.53836 0.0
H319 H 0.8604 0.81421 0.34772 0.0
H320 H 0.8025 0.80115 0.42004 0.0
H321 H 0.79876 0.69835 0.52211 0.0
H322 H 0.64967 0.74015 0.75521 0.0
H323 H 0.70444 0.72766 0.67559 0.0
C324 C 0.39219 0.82327 0.98632 0.0
C325 C 0.39806 0.78859 0.00863 0.0
C326 C 0.35579 0.84086 1.00058 0.0
C327 C 0.27239 0.8186 0.9478 0.0
H328 H 0.18631 0.83054 0.08005 0.0
C329 C 0.12838 0.73988 0.98455 0.0
C330 C 0.09401 0.75709 0.01174 0.0
C331 C 0.16201 0.75957 0.96271 0.0
C332 C 0.21 0.82835 0.04198 0.0
H333 H 0.37473 0.74806 0.07513 0.0
H334 H 0.31038 0.77835 0.09821 0.0
H335 H 0.25782 0.84153 0.112 0.0
H336 H 0.06456 0.80752 0.02455 0.0
H337 H 0.12359 0.84193 0.98845 0.0
H338 H 0.22542 0.80053 0.88072 0.0
C339 C 0.33398 0.79209 0.07005 0.0
C340 C 0.25072 0.83456 0.06048 0.0
C341 C 0.37064 0.77452 0.05609 0.0
C342 C 0.09094 0.79379 1.00525 0.0
C343 C 0.12469 0.8135 0.98445 0.0
C344 C 0.23191 0.81145 0.92993 0.0
C345 C 0.32476 0.82349 0.03614 0.0
C346 C 0.28219 0.82844 0.01411 0.0
C347 C 0.16145 0.79645 0.96835 0.0
C348 C 0.2007 0.81488 0.97776 0.0
H349 H 0.41213 0.83455 0.94891 0.0
H350 H 0.34922 0.86514 0.97425 0.0
H351 H 0.29645 0.81295 0.91168 0.0
H352 H 0.13134 0.71152 0.98749 0.0
H353 H 0.19016 0.74587 0.95005 0.0
C354 C 0.12293 0.25503 0.04326 0.0
C355 C 0.09225 0.23887 1.00435 0.0
C356 C 0.15811 0.23613 0.06026 0.0
C357 C 0.23525 0.18522 0.06214 0.0
H358 H 0.26175 0.20965 0.87749 0.0
C359 C 0.39468 0.22128 1.00625 0.0
C360 C 0.39016 0.25786 0.01442 0.0
C361 C 0.36189 0.20105 0.98297 0.0
C362 C 0.25486 0.20105 0.92815 0.0
H363 H 0.07037 0.18911 0.96519 0.0
H364 H 0.13205 0.15669 0.99266 0.0
H365 H 0.19018 0.20178 0.91081 0.0
H366 H 0.35214 0.30282 0.98985 0.0
H367 H 0.2953 0.26761 0.9475 0.0
H368 H 0.29983 0.18732 0.08063 0.0
C369 C 0.12898 0.18353 0.01051 0.0
C370 C 0.21406 0.19659 0.9474 0.0
C371 C 0.09363 0.20225 0.9945 0.0
C372 C 0.35601 0.27457 0.98583 0.0
C373 C 0.32358 0.25438 0.961 0.0
C374 C 0.27619 0.18851 0.04237 0.0
C375 C 0.16283 0.20137 0.03725 0.0
C376 C 0.20403 0.19098 0.01532 0.0
C377 C 0.32497 0.2175 0.96578 0.0
C378 C 0.28597 0.1989 0.97637 0.0
H379 H 0.12226 0.2831 0.05299 0.0
H380 H 0.18401 0.25031 0.08141 0.0
H381 H 0.22799 0.18146 0.11478 0.0
H382 H 0.42116 0.20783 0.02622 0.0
H383 H 0.3636 0.17263 0.98645 0.0
C384 C 0.59338 0.32489 0.02908 0.0
C385 C 0.58555 0.29082 1.00464 0.0
C386 C 0.63083 0.34119 0.01616 0.0
C387 C 0.71296 0.31515 0.06782 0.0
H388 H 0.80003 0.32967 0.93824 0.0
C389 C 0.86022 0.23939 0.03714 0.0
C390 C 0.89434 0.2573 0.01057 0.0
C391 C 0.82547 0.25828 0.05657 0.0
C392 C 0.77604 0.32665 0.97558 0.0
H393 H 0.60668 0.25044 0.93562 0.0
H394 H 0.6729 0.27838 0.91517 0.0
H395 H 0.72871 0.34107 0.90573 0.0
H396 H 0.92213 0.30835 0.99705 0.0
H397 H 0.86125 0.34145 0.02913 0.0
H398 H 0.75945 0.29639 0.13476 0.0
C399 C 0.65003 0.29262 0.94396 0.0
C400 C 0.73545 0.33307 0.95675 0.0
C401 C 0.61225 0.2764 0.95639 0.0
C402 C 0.89588 0.29413 0.01553 0.0
C403 C 0.86108 0.31304 0.03402 0.0
C404 C 0.75331 0.30788 0.08602 0.0
C405 C 0.66093 0.32312 0.97981 0.0
C406 C 0.70367 0.32631 1.00222 0.0
C407 C 0.82473 0.29506 0.04939 0.0
C408 C 0.78493 0.3124 0.03922 0.0
H409 H 0.574 0.33648 0.06697 0.0
H410 H 0.63872 0.36483 0.04393 0.0
H411 H 0.68862 0.30901 0.10315 0.0
H412 H 0.85837 0.21092 0.03535 0.0
H413 H 0.7977 0.24385 0.06878 0.0
C414 C 0.89178 0.69736 0.02473 0.0
C415 C 0.89499 0.73346 0.01041 0.0
C416 C 0.85597 0.67907 0.00887 0.0
C417 C 0.77159 0.69653 0.06795 0.0
H418 H 0.68563 0.68708 0.93494 0.0
C419 C 0.63105 0.77678 0.02587 0.0
C420 C 0.59611 0.75991 0.99981 0.0
C421 C 0.66353 0.75671 0.05038 0.0
C422 C 0.70928 0.68841 0.97318 0.0
H423 H 0.86808 0.77655 0.95451 0.0
H424 H 0.80542 0.74461 0.92697 0.0
H425 H 0.75721 0.67802 0.90175 0.0
H426 H 0.56398 0.71007 0.99238 0.0
H427 H 0.62165 0.67495 0.03141 0.0
H428 H 0.72447 0.71266 0.13653 0.0
C429 C 0.83023 0.73048 0.95113 0.0
C430 C 0.75006 0.68327 0.95399 0.0
C431 C 0.86593 0.74894 0.96763 0.0
C432 C 0.59112 0.72354 0.01017 0.0
C433 C 0.62394 0.7034 0.03304 0.0
C434 C 0.73102 0.70279 0.08654 0.0
C435 C 0.8234 0.69689 0.97843 0.0
C436 C 0.78148 0.68888 1.00064 0.0
C437 C 0.66138 0.71978 0.04794 0.0
C438 C 0.6999 0.70044 0.03837 0.0
H439 H 0.91361 0.68476 0.05742 0.0
H440 H 0.85129 0.65309 0.02996 0.0
H441 H 0.79563 0.70171 0.10436 0.0
H442 H 0.63534 0.8049 0.02015 0.0
H443 H 0.69224 0.76987 0.0621 0.0
loop_
_geom_bond_atom_site_label_1
_geom_bond_atom_site_label_2
_geom_bond_distance
_geom_bond_site_symmetry_2
_ccdc_geom_bond_type
O0 Mg1 1.990 . S
O0 C14 1.253 . S
Mg1 O0 1.990 . S
Mg1 O4 2.180 . S
Mg1 O5 2.117 . S
Mg1 O19 2.030 . S
O2 Mg3 2.079 . S
O2 C14 1.260 . S
Mg3 O2 2.079 . S
Mg3 O4 2.101 . S
Mg3 O6 2.072 1_455 S
Mg3 O7 2.065 1_455 S
Mg3 O9 2.096 1_455 S
Mg3 O20 2.086 . S
O4 Mg1 2.180 . S
O4 Mg3 2.101 . S
O4 C15 1.279 . S
O5 Mg1 2.117 . S
O5 C15 1.250 . S
O6 Mg3 2.072 1_655 S
O6 C16 1.264 . S
O7 Mg3 2.065 1_655 S
O7 C17 1.260 . S
Mg8 O9 2.180 . S
Mg8 O10 2.030 . S
Mg8 O11 1.990 . S
Mg8 O12 2.117 . S
O9 Mg3 2.096 1_655 S
O9 Mg8 2.180 . S
O9 C18 1.279 . S
O10 Mg8 2.030 . S
O10 C16 1.248 . S
O11 Mg8 1.990 . S
O11 C17 1.253 . S
O12 Mg8 2.117 . S
O12 C18 1.250 . S
C13 O19 1.248 . S
C13 O20 1.264 . S
C14 O0 1.253 . S
C14 O2 1.260 . S
C15 O4 1.279 . S
C15 O5 1.250 . S
C16 O6 1.264 . S
C16 O10 1.248 . S
C17 O7 1.260 . S
C17 O11 1.253 . S
C18 O9 1.279 . S
C18 O12 1.250 . S
O19 Mg1 2.030 . S
O19 C13 1.248 . S
O20 Mg3 2.086 . S
O20 C13 1.264 . S
O21 Mg22 1.990 . S
O21 C35 1.253 . S
Mg22 O21 1.990 . S
Mg22 O25 2.180 . S
Mg22 O26 2.117 . S
Mg22 O40 2.030 . S
O23 Mg24 2.072 . S
O23 C35 1.260 . S
Mg24 O23 2.072 . S
Mg24 O25 2.099 . S
Mg24 O27 2.079 . S
Mg24 O28 2.072 . S
Mg24 O30 2.099 . S
Mg24 O41 2.079 . S
O25 Mg22 2.180 . S
O25 Mg24 2.099 . S
O25 C36 1.279 . S
O26 Mg22 2.117 . S
O26 C36 1.250 . S
O27 Mg24 2.079 . S
O27 C37 1.264 . S
O28 Mg24 2.072 . S
O28 C38 1.260 . S
Mg29 O30 2.180 . S
Mg29 O31 2.030 . S
Mg29 O32 1.990 . S
Mg29 O33 2.117 . S
O30 Mg24 2.099 . S
O30 Mg29 2.180 . S
O30 C39 1.279 . S
O31 Mg29 2.030 . S
O31 C37 1.248 . S
O32 Mg29 1.990 . S
O32 C38 1.253 . S
O33 Mg29 2.117 . S
O33 C39 1.250 . S
C34 O40 1.248 . S
C34 O41 1.264 . S
C35 O21 1.253 . S
C35 O23 1.260 . S
C36 O25 1.279 . S
C36 O26 1.250 . S
C37 O27 1.264 . S
C37 O31 1.248 . S
C38 O28 1.260 . S
C38 O32 1.253 . S
C39 O30 1.279 . S
C39 O33 1.250 . S
O40 Mg22 2.030 . S
O40 C34 1.248 . S
O41 Mg24 2.079 . S
O41 C34 1.264 . S
O42 Mg43 1.990 . S
O42 C56 1.253 . S
Mg43 O42 1.990 . S
Mg43 O46 2.180 . S
Mg43 O47 2.117 . S
Mg43 O61 2.030 . S
O44 Mg45 2.079 . S
O44 C56 1.260 . S
Mg45 O44 2.079 . S
Mg45 O46 2.101 . S
Mg45 O48 2.072 1_455 S
Mg45 O49 2.065 1_455 S
Mg45 O51 2.096 1_455 S
Mg45 O62 2.086 . S
O46 Mg43 2.180 . S
O46 Mg45 2.101 . S
O46 C57 1.279 . S
O47 Mg43 2.117 . S
O47 C57 1.250 . S
O48 Mg45 2.072 1_655 S
O48 C58 1.264 . S
O49 Mg45 2.065 1_655 S
O49 C59 1.260 . S
Mg50 O51 2.180 . S
Mg50 O52 2.030 . S
Mg50 O53 1.990 . S
Mg50 O54 2.117 . S
O51 Mg45 2.096 1_655 S
O51 Mg50 2.180 . S
O51 C60 1.279 . S
O52 Mg50 2.030 . S
O52 C58 1.248 . S
O53 Mg50 1.990 . S
O53 C59 1.253 . S
O54 Mg50 2.117 . S
O54 C60 1.250 . S
C55 O61 1.248 . S
C55 O62 1.264 . S
C56 O42 1.253 . S
C56 O44 1.260 . S
C57 O46 1.279 . S
C57 O47 1.250 . S
C58 O48 1.264 . S
C58 O52 1.248 . S
C59 O49 1.260 . S
C59 O53 1.253 . S
C60 O51 1.279 . S
C60 O54 1.250 . S
O61 Mg43 2.030 . S
O61 C55 1.248 . S
O62 Mg45 2.086 . S
O62 C55 1.264 . S
O63 Mg64 1.990 . S
O63 C77 1.253 . S
Mg64 O63 1.990 . S
Mg64 O67 2.180 . S
Mg64 O68 2.117 . S
Mg64 O82 2.030 . S
O65 Mg66 2.072 . S
O65 C77 1.260 . S
Mg66 O65 2.072 . S
Mg66 O67 2.099 . S
Mg66 O69 2.079 . S
Mg66 O70 2.072 . S
Mg66 O72 2.099 . S
Mg66 O83 2.079 . S
O67 Mg64 2.180 . S
O67 Mg66 2.099 . S
O67 C78 1.279 . S
O68 Mg64 2.117 . S
O68 C78 1.250 . S
O69 Mg66 2.079 . S
O69 C79 1.264 . S
O70 Mg66 2.072 . S
O70 C80 1.260 . S
Mg71 O72 2.180 . S
Mg71 O73 2.030 . S
Mg71 O74 1.990 . S
Mg71 O75 2.117 . S
O72 Mg66 2.099 . S
O72 Mg71 2.180 . S
O72 C81 1.279 . S
O73 Mg71 2.030 . S
O73 C79 1.248 . S
O74 Mg71 1.990 . S
O74 C80 1.253 . S
O75 Mg71 2.117 . S
O75 C81 1.250 . S
C76 O82 1.248 . S
C76 O83 1.264 . S
C77 O63 1.253 . S
C77 O65 1.260 . S
C78 O67 1.279 . S
C78 O68 1.250 . S
C79 O69 1.264 . S
C79 O73 1.248 . S
C80 O70 1.260 . S
C80 O74 1.253 . S
C81 O72 1.279 . S
C81 O75 1.250 . S
O82 Mg64 2.030 . S
O82 C76 1.248 . S
O83 Mg66 2.079 . S
O83 C76 1.264 . S
C84 C85 1.349 . S
C84 C86 1.327 . S
C84 H109 0.950 . S
C85 C84 1.349 . S
C85 C101 1.349 1_655 S
C86 C84 1.327 . S
C86 C105 1.429 . S
C86 H110 0.950 . S
C87 C104 1.574 . S
C87 C106 1.368 1_454 S
C87 H111 0.949 . S
H88 C92 0.949 . S
C89 C90 1.349 1_455 S
C89 C91 1.327 . S
C89 H112 0.950 . S
C90 C89 1.349 1_655 S
C90 C102 1.349 . S
C91 C89 1.327 . S
C91 C107 1.429 1_455 S
C91 H113 0.950 . S
C92 H88 0.949 . S
C92 C100 1.574 . S
C92 C108 1.368 1_556 S
H93 C101 0.950 . S
H94 C99 0.950 . S
H95 C100 0.949 . S
H96 C102 0.950 . S
H97 C103 0.950 . S
H98 C104 0.949 . S
C99 H94 0.950 . S
C99 C101 1.327 . S
C99 C105 1.429 1_455 S
C100 C92 1.574 . S
C100 H95 0.949 . S
C100 C106 1.368 . S
C101 C85 1.349 1_455 S
C101 H93 0.950 . S
C101 C99 1.327 . S
C102 C90 1.349 . S
C102 H96 0.950 . S
C102 C103 1.327 . S
C103 H97 0.950 . S
C103 C102 1.327 . S
C103 C107 1.429 . S
C104 C87 1.574 . S
C104 H98 0.949 . S
C104 C108 1.368 1_455 S
C105 C86 1.429 . S
C105 C99 1.429 1_655 S
C105 C106 1.523 . S
C106 C87 1.368 1_656 S
C106 C100 1.368 . S
C106 C105 1.523 . S
C107 C91 1.429 1_655 S
C107 C103 1.429 . S
C107 C108 1.523 . S
C108 C92 1.368 1_554 S
C108 C104 1.368 1_655 S
C108 C107 1.523 . S
H109 C84 0.950 . S
H110 C86 0.950 . S
H111 C87 0.949 . S
H112 C89 0.950 . S
H113 C91 0.950 . S
C114 C115 1.349 . S
C114 C116 1.327 . S
C114 H139 0.950 . S
C115 C114 1.349 . S
C115 C131 1.349 . S
C116 C114 1.327 . S
C116 C135 1.429 . S
C116 H140 0.950 . S
C117 C134 1.574 . S
C117 C136 1.368 1_556 S
C117 H141 0.949 . S
H118 C122 0.949 . S
C119 C120 1.349 . S
C119 C121 1.327 . S
C119 H142 0.950 . S
C120 C119 1.349 . S
C120 C132 1.349 . S
C121 C119 1.327 . S
C121 C137 1.429 . S
C121 H143 0.950 . S
C122 H118 0.949 . S
C122 C130 1.574 . S
C122 C138 1.368 1_554 S
H123 C131 0.950 . S
H124 C129 0.950 . S
H125 C130 0.949 . S
H126 C132 0.950 . S
H127 C133 0.950 . S
H128 C134 0.949 . S
C129 H124 0.950 . S
C129 C131 1.327 . S
C129 C135 1.429 . S
C130 C122 1.574 . S
C130 H125 0.949 . S
C130 C136 1.368 . S
C131 C115 1.349 . S
C131 H123 0.950 . S
C131 C129 1.327 . S
C132 C120 1.349 . S
C132 H126 0.950 . S
C132 C133 1.327 . S
C133 H127 0.950 . S
C133 C132 1.327 . S
C133 C137 1.429 . S
C134 C117 1.574 . S
C134 H128 0.949 . S
C134 C138 1.368 . S
C135 C116 1.429 . S
C135 C129 1.429 . S
C135 C136 1.523 . S
C136 C117 1.368 1_554 S
C136 C130 1.368 . S
C136 C135 1.523 . S
C137 C121 1.429 . S
C137 C133 1.429 . S
C137 C138 1.523 . S
C138 C122 1.368 1_556 S
C138 C134 1.368 . S
C138 C137 1.523 . S
H139 C114 0.950 . S
H140 C116 0.950 . S
H141 C117 0.949 . S
H142 C119 0.950 . S
H143 C121 0.950 . S
C144 C145 1.349 . S
C144 C146 1.327 . S
C144 H169 0.950 . S
C145 C144 1.349 . S
C145 C161 1.349 . S
C146 C144 1.327 . S
C146 C165 1.429 . S
C146 H170 0.950 1_556 S
C147 C164 1.574 1_565 S
C147 C166 1.368 . S
C147 H171 0.949 . S
H148 C152 0.949 . S
C149 C150 1.349 . S
C149 C151 1.327 . S
C149 H172 0.950 . S
C150 C149 1.349 . S
C150 C162 1.349 . S
C151 C149 1.327 . S
C151 C167 1.429 . S
C151 H173 0.950 1_554 S
C152 H148 0.949 . S
C152 C160 1.574 1_545 S
C152 C168 1.368 . S
H153 C161 0.950 . S
H154 C159 0.950 . S
H155 C160 0.949 . S
H156 C162 0.950 . S
H157 C163 0.950 . S
H158 C164 0.949 . S
C159 H154 0.950 . S
C159 C161 1.327 . S
C159 C165 1.429 . S
C160 C152 1.574 1_565 S
C160 H155 0.949 . S
C160 C166 1.368 1_554 S
C161 C145 1.349 . S
C161 H153 0.950 . S
C161 C159 1.327 . S
C162 C150 1.349 . S
C162 H156 0.950 . S
C162 C163 1.327 . S
C163 H157 0.950 . S
C163 C162 1.327 . S
C163 C167 1.429 . S
C164 C147 1.574 1_545 S
C164 H158 0.949 . S
C164 C168 1.368 1_556 S
C165 C146 1.429 . S
C165 C159 1.429 . S
C165 C166 1.523 . S
C166 C147 1.368 . S
C166 C160 1.368 1_556 S
C166 C165 1.523 . S
C167 C151 1.429 . S
C167 C163 1.429 . S
C167 C168 1.523 . S
C168 C152 1.368 . S
C168 C164 1.368 1_554 S
C168 C167 1.523 . S
H169 C144 0.950 . S
H170 C146 0.950 1_554 S
H171 C147 0.949 . S
H172 C149 0.950 . S
H173 C151 0.950 1_556 S
C174 C175 1.349 . S
C174 C176 1.327 . S
C174 H199 0.950 . S
C175 C174 1.349 . S
C175 C191 1.349 1_455 S
C176 C174 1.327 . S
C176 C195 1.429 . S
C176 H200 0.950 . S
C177 C194 1.574 1_565 S
C177 C196 1.368 1_656 S
C177 H201 0.949 . S
H178 C182 0.949 . S
C179 C180 1.349 1_655 S
C179 C181 1.327 . S
C179 H202 0.950 . S
C180 C179 1.349 1_455 S
C180 C192 1.349 . S
C181 C179 1.327 . S
C181 C197 1.429 1_655 S
C181 H203 0.950 . S
C182 H178 0.949 . S
C182 C190 1.574 1_545 S
C182 C198 1.368 1_554 S
H183 C191 0.950 . S
H184 C189 0.958 . S
H185 C190 0.949 . S
H186 C192 0.950 . S
H187 C193 0.958 . S
H188 C194 0.949 . S
C189 H184 0.958 . S
C189 C191 1.327 . S
C189 C195 1.429 1_655 S
C190 C182 1.574 1_565 S
C190 H185 0.949 . S
C190 C196 1.368 . S
C191 C175 1.349 1_655 S
C191 H183 0.950 . S
C191 C189 1.327 . S
C192 C180 1.349 . S
C192 H186 0.950 . S
C192 C193 1.327 . S
C193 H187 0.958 . S
C193 C192 1.327 . S
C193 C197 1.429 . S
C194 C177 1.574 1_545 S
C194 H188 0.949 . S
C194 C198 1.368 1_655 S
C195 C176 1.429 . S
C195 C189 1.429 1_455 S
C195 C196 1.523 . S
C196 C177 1.368 1_454 S
C196 C190 1.368 . S
C196 C195 1.523 . S
C197 C181 1.429 1_455 S
C197 C193 1.429 . S
C197 C198 1.523 . S
C198 C182 1.368 1_556 S
C198 C194 1.368 1_455 S
C198 C197 1.523 . S
H199 C174 0.950 . S
H200 C176 0.950 . S
H201 C177 0.949 . S
H202 C179 0.950 . S
H203 C181 0.950 . S
C204 C205 1.349 . S
C204 C206 1.327 . S
C204 H229 0.950 . S
C205 C204 1.349 . S
C205 C221 1.349 . S
C206 C204 1.327 . S
C206 C225 1.429 . S
C206 H230 0.950 . S
C207 C224 1.574 . S
C207 C226 1.368 . S
C207 H231 0.949 . S
H208 C212 0.949 . S
C209 C210 1.349 . S
C209 C211 1.327 . S
C209 H232 0.950 . S
C210 C209 1.349 . S
C210 C222 1.349 . S
C211 C209 1.327 . S
C211 C227 1.429 . S
C211 H233 0.950 . S
C212 H208 0.949 . S
C212 C220 1.574 . S
C212 C228 1.368 . S
H213 C221 0.950 . S
H214 C219 0.950 . S
H215 C220 0.949 . S
H216 C222 0.950 . S
H217 C223 0.950 . S
H218 C224 0.949 . S
C219 H214 0.950 . S
C219 C221 1.327 . S
C219 C225 1.429 . S
C220 C212 1.574 . S
C220 H215 0.949 . S
C220 C226 1.368 . S
C221 C205 1.349 . S
C221 H213 0.950 . S
C221 C219 1.327 . S
C222 C210 1.349 . S
C222 H216 0.950 . S
C222 C223 1.327 . S
C223 H217 0.950 . S
C223 C222 1.327 . S
C223 C227 1.429 . S
C224 C207 1.574 . S
C224 H218 0.949 . S
C224 C228 1.368 . S
C225 C206 1.429 . S
C225 C219 1.429 . S
C225 C226 1.523 . S
C226 C207 1.368 . S
C226 C220 1.368 . S
C226 C225 1.523 . S
C227 C211 1.429 . S
C227 C223 1.429 . S
C227 C228 1.523 . S
C228 C212 1.368 . S
C228 C224 1.368 . S
C228 C227 1.523 . S
H229 C204 0.950 . S
H230 C206 0.950 . S
H231 C207 0.949 . S
H232 C209 0.950 . S
H233 C211 0.950 . S
C234 C235 1.349 . S
C234 C236 1.327 . S
C234 H259 0.950 . S
C235 C234 1.349 . S
C235 C251 1.349 . S
C236 C234 1.327 . S
C236 C255 1.429 . S
C236 H260 0.950 . S
C237 C254 1.574 . S
C237 C256 1.368 . S
C237 H261 0.949 . S
H238 C242 0.949 . S
C239 C240 1.349 . S
C239 C241 1.327 . S
C239 H262 0.950 . S
C240 C239 1.349 . S
C240 C252 1.349 . S
C241 C239 1.327 . S
C241 C257 1.429 . S
C241 H263 0.950 . S
C242 H238 0.949 . S
C242 C250 1.574 . S
C242 C258 1.368 . S
H243 C251 0.950 . S
H244 C249 0.950 . S
H245 C250 0.949 . S
H246 C252 0.950 . S
H247 C253 0.950 . S
H248 C254 0.949 . S
C249 H244 0.950 . S
C249 C251 1.327 . S
C249 C255 1.429 . S
C250 C242 1.574 . S
C250 H245 0.949 . S
C250 C256 1.368 . S
C251 C235 1.349 . S
C251 H243 0.950 . S
C251 C249 1.327 . S
C252 C240 1.349 . S
C252 H246 0.950 . S
C252 C253 1.327 . S
C253 H247 0.950 . S
C253 C252 1.327 . S
C253 C257 1.429 . S
C254 C237 1.574 . S
C254 H248 0.949 . S
C254 C258 1.368 . S
C255 C236 1.429 . S
C255 C249 1.429 . S
C255 C256 1.523 . S
C256 C237 1.368 . S
C256 C250 1.368 . S
C256 C255 1.523 . S
C257 C241 1.429 . S
C257 C253 1.429 . S
C257 C258 1.523 . S
C258 C242 1.368 . S
C258 C254 1.368 . S
C258 C257 1.523 . S
H259 C234 0.950 . S
H260 C236 0.950 . S
H261 C237 0.949 . S
H262 C239 0.950 . S
H263 C241 0.950 . S
C264 C265 1.349 . S
C264 C266 1.327 . S
C264 H289 0.950 . S
C265 C264 1.349 . S
C265 C281 1.349 . S
C266 C264 1.327 . S
C266 C285 1.429 . S
C266 H290 0.950 . S
C267 C284 1.574 . S
C267 C286 1.368 . S
C267 H291 0.949 . S
H268 C272 0.949 . S
C269 C270 1.349 . S
C269 C271 1.327 . S
C269 H292 0.950 . S
C270 C269 1.349 . S
C270 C282 1.349 . S
C271 C269 1.327 . S
C271 C287 1.429 . S
C271 H293 0.950 . S
C272 H268 0.949 . S
C272 C280 1.574 . S
C272 C288 1.368 . S
H273 C281 0.950 . S
H274 C279 0.950 . S
H275 C280 0.949 . S
H276 C282 0.950 . S
H277 C283 0.950 . S
H278 C284 0.949 . S
C279 H274 0.950 . S
C279 C281 1.327 . S
C279 C285 1.429 . S
C280 C272 1.574 . S
C280 H275 0.949 . S
C280 C286 1.368 . S
C281 C265 1.349 . S
C281 H273 0.950 . S
C281 C279 1.327 . S
C282 C270 1.349 . S
C282 H276 0.950 . S
C282 C283 1.327 . S
C283 H277 0.950 . S
C283 C282 1.327 . S
C283 C287 1.429 . S
C284 C267 1.574 . S
C284 H278 0.949 . S
C284 C288 1.368 . S
C285 C266 1.429 . S
C285 C279 1.429 . S
C285 C286 1.523 . S
C286 C267 1.368 . S
C286 C280 1.368 . S
C286 C285 1.523 . S
C287 C271 1.429 . S
C287 C283 1.429 . S
C287 C288 1.523 . S
C288 C272 1.368 . S
C288 C284 1.368 . S
C288 C287 1.523 . S
H289 C264 0.950 . S
H290 C266 0.950 . S
H291 C267 0.949 . S
H292 C269 0.950 . S
H293 C271 0.950 . S
C294 C295 1.349 . S
C294 C296 1.327 . S
C294 H319 0.950 . S
C295 C294 1.349 . S
C295 C311 1.349 . S
C296 C294 1.327 . S
C296 C315 1.429 . S
C296 H320 0.950 . S
C297 C314 1.574 . S
C297 C316 1.368 . S
C297 H321 0.949 . S
H298 C302 0.949 . S
C299 C300 1.349 . S
C299 C301 1.327 . S
C299 H322 0.950 . S
C300 C299 1.349 . S
C300 C312 1.349 . S
C301 C299 1.327 . S
C301 C317 1.429 . S
C301 H323 0.950 . S
C302 H298 0.949 . S
C302 C310 1.574 . S
C302 C318 1.368 . S
H303 C311 0.950 . S
H304 C309 0.950 . S
H305 C310 0.949 . S
H306 C312 0.950 . S
H307 C313 0.950 . S
H308 C314 0.949 . S
C309 H304 0.950 . S
C309 C311 1.327 . S
C309 C315 1.429 . S
C310 C302 1.574 . S
C310 H305 0.949 . S
C310 C316 1.368 . S
C311 C295 1.349 . S
C311 H303 0.950 . S
C311 C309 1.327 . S
C312 C300 1.349 . S
C312 H306 0.950 . S
C312 C313 1.327 . S
C313 H307 0.950 . S
C313 C312 1.327 . S
C313 C317 1.429 . S
C314 C297 1.574 . S
C314 H308 0.949 . S
C314 C318 1.368 . S
C315 C296 1.429 . S
C315 C309 1.429 . S
C315 C316 1.523 . S
C316 C297 1.368 . S
C316 C310 1.368 . S
C316 C315 1.523 . S
C317 C301 1.429 . S
C317 C313 1.429 . S
C317 C318 1.523 . S
C318 C302 1.368 . S
C318 C314 1.368 . S
C318 C317 1.523 . S
H319 C294 0.950 . S
H320 C296 0.950 . S
H321 C297 0.949 . S
H322 C299 0.950 . S
H323 C301 0.950 . S
C324 C325 1.349 . S
C324 C326 1.327 . S
C324 H349 0.950 . S
C325 C324 1.349 . S
C325 C341 1.349 . S
C326 C324 1.327 . S
C326 C345 1.429 . S
C326 H350 0.950 . S
C327 C344 1.574 . S
C327 C346 1.368 1_554 S
C327 H351 0.949 . S
H328 C332 0.949 . S
C329 C330 1.349 . S
C329 C331 1.327 . S
C329 H352 0.950 . S
C330 C329 1.349 . S
C330 C342 1.349 . S
C331 C329 1.327 . S
C331 C347 1.429 . S
C331 H353 0.950 . S
C332 H328 0.949 . S
C332 C340 1.574 . S
C332 C348 1.368 1_556 S
H333 C341 0.950 . S
H334 C339 0.950 1_554 S
H335 C340 0.949 . S
H336 C342 0.950 . S
H337 C343 0.950 1_556 S
H338 C344 0.949 . S
C339 H334 0.950 1_556 S
C339 C341 1.327 . S
C339 C345 1.429 . S
C340 C332 1.574 . S
C340 H335 0.949 . S
C340 C346 1.368 . S
C341 C325 1.349 . S
C341 H333 0.950 . S
C341 C339 1.327 . S
C342 C330 1.349 . S
C342 H336 0.950 . S
C342 C343 1.327 . S
C343 H337 0.950 1_554 S
C343 C342 1.327 . S
C343 C347 1.429 . S
C344 C327 1.574 . S
C344 H338 0.949 . S
C344 C348 1.368 . S
C345 C326 1.429 . S
C345 C339 1.429 . S
C345 C346 1.523 . S
C346 C327 1.368 1_556 S
C346 C340 1.368 . S
C346 C345 1.523 . S
C347 C331 1.429 . S
C347 C343 1.429 . S
C347 C348 1.523 . S
C348 C332 1.368 1_554 S
C348 C344 1.368 . S
C348 C347 1.523 . S
H349 C324 0.950 . S
H350 C326 0.950 . S
H351 C327 0.949 . S
H352 C329 0.950 . S
H353 C331 0.950 . S
C354 C355 1.349 . S
C354 C356 1.327 . S
C354 H379 0.950 . S
C355 C354 1.349 . S
C355 C371 1.349 . S
C356 C354 1.327 . S
C356 C375 1.429 . S
C356 H380 0.950 1_556 S
C357 C374 1.574 . S
C357 C376 1.368 . S
C357 H381 0.949 . S
H358 C362 0.949 . S
C359 C360 1.349 . S
C359 C361 1.327 . S
C359 H382 0.950 . S
C360 C359 1.349 . S
C360 C372 1.349 . S
C361 C359 1.327 . S
C361 C377 1.429 . S
C361 H383 0.950 1_554 S
C362 H358 0.949 . S
C362 C370 1.574 . S
C362 C378 1.368 . S
H363 C371 0.950 . S
H364 C369 0.950 . S
H365 C370 0.949 . S
H366 C372 0.950 . S
H367 C373 0.950 . S
H368 C374 0.949 . S
C369 H364 0.950 . S
C369 C371 1.327 . S
C369 C375 1.429 . S
C370 C362 1.574 . S
C370 H365 0.949 . S
C370 C376 1.368 1_554 S
C371 C355 1.349 . S
C371 H363 0.950 . S
C371 C369 1.327 . S
C372 C360 1.349 . S
C372 H366 0.950 . S
C372 C373 1.327 . S
C373 H367 0.950 . S
C373 C372 1.327 . S
C373 C377 1.429 . S
C374 C357 1.574 . S
C374 H368 0.949 . S
C374 C378 1.368 1_556 S
C375 C356 1.429 . S
C375 C369 1.429 . S
C375 C376 1.523 . S
C376 C357 1.368 . S
C376 C370 1.368 1_556 S
C376 C375 1.523 . S
C377 C361 1.429 . S
C377 C373 1.429 . S
C377 C378 1.523 . S
C378 C362 1.368 . S
C378 C374 1.368 1_554 S
C378 C377 1.523 . S
H379 C354 0.950 . S
H380 C356 0.950 1_554 S
H381 C357 0.949 . S
H382 C359 0.950 . S
H383 C361 0.950 1_556 S
C384 C385 1.349 . S
C384 C386 1.327 . S
C384 H409 0.950 . S
C385 C384 1.349 . S
C385 C401 1.349 . S
C386 C384 1.327 . S
C386 C405 1.429 . S
C386 H410 0.950 . S
C387 C404 1.574 . S
C387 C406 1.368 1_556 S
C387 H411 0.949 . S
H388 C392 0.949 . S
C389 C390 1.349 . S
C389 C391 1.327 . S
C389 H412 0.950 . S
C390 C389 1.349 . S
C390 C402 1.349 . S
C391 C389 1.327 . S
C391 C407 1.429 . S
C391 H413 0.950 . S
C392 H388 0.949 . S
C392 C400 1.574 . S
C392 C408 1.368 1_554 S
H393 C401 0.950 . S
H394 C399 0.950 1_556 S
H395 C400 0.949 . S
H396 C402 0.950 . S
H397 C403 0.950 1_554 S
H398 C404 0.949 . S
C399 H394 0.950 1_554 S
C399 C401 1.327 . S
C399 C405 1.429 . S
C400 C392 1.574 . S
C400 H395 0.949 . S
C400 C406 1.368 . S
C401 C385 1.349 . S
C401 H393 0.950 . S
C401 C399 1.327 . S
C402 C390 1.349 . S
C402 H396 0.950 . S
C402 C403 1.327 . S
C403 H397 0.950 1_556 S
C403 C402 1.327 . S
C403 C407 1.429 . S
C404 C387 1.574 . S
C404 H398 0.949 . S
C404 C408 1.368 . S
C405 C386 1.429 . S
C405 C399 1.429 . S
C405 C406 1.523 . S
C406 C387 1.368 1_554 S
C406 C400 1.368 . S
C406 C405 1.523 . S
C407 C391 1.429 . S
C407 C403 1.429 . S
C407 C408 1.523 . S
C408 C392 1.368 1_556 S
C408 C404 1.368 . S
C408 C407 1.523 . S
H409 C384 0.950 . S
H410 C386 0.950 . S
H411 C387 0.949 . S
H412 C389 0.950 . S
H413 C391 0.950 . S
C414 C415 1.349 . S
C414 C416 1.327 . S
C414 H439 0.950 . S
C415 C414 1.349 . S
C415 C431 1.349 . S
C416 C414 1.327 . S
C416 C435 1.429 . S
C416 H440 0.950 . S
C417 C434 1.574 . S
C417 C436 1.368 1_556 S
C417 H441 0.949 . S
H418 C422 0.949 . S
C419 C420 1.349 . S
C419 C421 1.327 . S
C419 H442 0.950 . S
C420 C419 1.349 . S
C420 C432 1.349 . S
C421 C419 1.327 . S
C421 C437 1.429 . S
C421 H443 0.950 . S
C422 H418 0.949 . S
C422 C430 1.574 . S
C422 C438 1.368 1_554 S
H423 C431 0.950 . S
H424 C429 0.950 1_556 S
H425 C430 0.949 . S
H426 C432 0.950 . S
H427 C433 0.950 1_554 S
H428 C434 0.949 . S
C429 H424 0.950 1_554 S
C429 C431 1.327 . S
C429 C435 1.429 . S
C430 C422 1.574 . S
C430 H425 0.949 . S
C430 C436 1.368 . S
C431 C415 1.349 . S
C431 H423 0.950 . S
C431 C429 1.327 . S
C432 C420 1.349 . S
C432 H426 0.950 . S
C432 C433 1.327 . S
C433 H427 0.950 1_556 S
C433 C432 1.327 . S
C433 C437 1.429 . S
C434 C417 1.574 . S
C434 H428 0.949 . S
C434 C438 1.368 . S
C435 C416 1.429 . S
C435 C429 1.429 . S
C435 C436 1.523 . S
C436 C417 1.368 1_554 S
C436 C430 1.368 . S
C436 C435 1.523 . S
C437 C421 1.429 . S
C437 C433 1.429 . S
C437 C438 1.523 . S
C438 C422 1.368 1_556 S
C438 C434 1.368 . S
C438 C437 1.523 . S
H439 C414 0.950 . S
H440 C416 0.950 . S
H441 C417 0.949 . S
H442 C419 0.950 . S
H443 C421 0.950 . S
C85 C57 1.800 1_655 S
C90 C15 1.800 1_655 S
C115 C39 1.800 . S
C120 C78 1.800 . S
C145 C81 1.800 . S
C150 C36 1.800 . S
C175 C18 1.800 1_455 S
C180 C60 1.800 1_455 S
C205 C76 1.502 . S
C210 C13 1.502 . S
C235 C55 1.502 . S
C240 C37 1.502 . S
C265 C58 1.502 . S
C270 C34 1.502 . S
C295 C16 1.502 . S
C300 C79 1.502 . S
C325 C77 0.609 . S
C330 C14 0.609 . S
C355 C56 0.609 . S
C360 C38 0.609 . S
C385 C35 0.609 . S
C390 C59 0.609 . S
C415 C17 0.609 . S
C420 C80 0.609 . S
