# Generated by pormake.
# Topology lcy-e, (6)-cn, num edge types: 1
# Building blocks:
#     Node 0, Type 0, BuildingBlock: KUMBUR_clean_sbu_1, # of connection points: 6
#     Node 1, Type 0, BuildingBlock: KUMBUR_clean_sbu_1, # of connection points: 6
#     Node 2, Type 0, BuildingBlock: KUMBUR_clean_sbu_1, # of connection points: 6
#     Node 3, Type 0, BuildingBlock: KUMBUR_clean_sbu_1, # of connection points: 6
#     Node 4, Type 0, BuildingBlock: KUMBUR_clean_sbu_1, # of connection points: 6
#     Node 5, Type 0, BuildingBlock: KUMBUR_clean_sbu_1, # of connection points: 6
#     Node 6, Type 0, BuildingBlock: KUMBUR_clean_sbu_1, # of connection points: 6
#     Node 7, Type 0, BuildingBlock: KUMBUR_clean_sbu_1, # of connection points: 6
#     Node 8, Type 0, BuildingBlock: KUMBUR_clean_sbu_1, # of connection points: 6
#     Node 9, Type 0, BuildingBlock: KUMBUR_clean_sbu_1, # of connection points: 6
#     Node 10, Type 0, BuildingBlock: KUMBUR_clean_sbu_1, # of connection points: 6
#     Node 11, Type 0, BuildingBlock: KUMBUR_clean_sbu_1, # of connection points: 6
#     Edge 12, Type (0, 0), BuildingBlock: UVAHIK_clean_linker_0, # of connection points: 2
#     Edge 13, Type (0, 0), BuildingBlock: UVAHIK_clean_linker_0, # of connection points: 2
#     Edge 14, Type (0, 0), BuildingBlock: UVAHIK_clean_linker_0, # of connection points: 2
#     Edge 15, Type (0, 0), BuildingBlock: UVAHIK_clean_linker_0, # of connection points: 2
#     Edge 16, Type (0, 0), BuildingBlock: UVAHIK_clean_linker_0, # of connection points: 2
#     Edge 17, Type (0, 0), BuildingBlock: UVAHIK_clean_linker_0, # of connection points: 2
#     Edge 18, Type (0, 0), BuildingBlock: UVAHIK_clean_linker_0, # of connection points: 2
#     Edge 19, Type (0, 0), BuildingBlock: UVAHIK_clean_linker_0, # of connection points: 2
#     Edge 20, Type (0, 0), BuildingBlock: UVAHIK_clean_linker_0, # of connection points: 2
#     Edge 21, Type (0, 0), BuildingBlock: UVAHIK_clean_linker_0, # of connection points: 2
#     Edge 22, Type (0, 0), BuildingBlock: UVAHIK_clean_linker_0, # of connection points: 2
#     Edge 23, Type (0, 0), BuildingBlock: UVAHIK_clean_linker_0, # of connection points: 2
#     Edge 24, Type (0, 0), BuildingBlock: UVAHIK_clean_linker_0, # of connection points: 2
#     Edge 25, Type (0, 0), BuildingBlock: UVAHIK_clean_linker_0, # of connection points: 2
#     Edge 26, Type (0, 0), BuildingBlock: UVAHIK_clean_linker_0, # of connection points: 2
#     Edge 27, Type (0, 0), BuildingBlock: UVAHIK_clean_linker_0, # of connection points: 2
#     Edge 28, Type (0, 0), BuildingBlock: UVAHIK_clean_linker_0, # of connection points: 2
#     Edge 29, Type (0, 0), BuildingBlock: UVAHIK_clean_linker_0, # of connection points: 2
#     Edge 30, Type (0, 0), BuildingBlock: UVAHIK_clean_linker_0, # of connection points: 2
#     Edge 31, Type (0, 0), BuildingBlock: UVAHIK_clean_linker_0, # of connection points: 2
#     Edge 32, Type (0, 0), BuildingBlock: UVAHIK_clean_linker_0, # of connection points: 2
#     Edge 33, Type (0, 0), BuildingBlock: UVAHIK_clean_linker_0, # of connection points: 2
#     Edge 34, Type (0, 0), BuildingBlock: UVAHIK_clean_linker_0, # of connection points: 2
#     Edge 35, Type (0, 0), BuildingBlock: UVAHIK_clean_linker_0, # of connection points: 2
#     Edge 36, Type (0, 0), BuildingBlock: UVAHIK_clean_linker_0, # of connection points: 2
#     Edge 37, Type (0, 0), BuildingBlock: UVAHIK_clean_linker_0, # of connection points: 2
#     Edge 38, Type (0, 0), BuildingBlock: UVAHIK_clean_linker_0, # of connection points: 2
#     Edge 39, Type (0, 0), BuildingBlock: UVAHIK_clean_linker_0, # of connection points: 2
#     Edge 40, Type (0, 0), BuildingBlock: UVAHIK_clean_linker_0, # of connection points: 2
#     Edge 41, Type (0, 0), BuildingBlock: UVAHIK_clean_linker_0, # of connection points: 2
#     Edge 42, Type (0, 0), BuildingBlock: UVAHIK_clean_linker_0, # of connection points: 2
#     Edge 43, Type (0, 0), BuildingBlock: UVAHIK_clean_linker_0, # of connection points: 2
#     Edge 44, Type (0, 0), BuildingBlock: UVAHIK_clean_linker_0, # of connection points: 2
#     Edge 45, Type (0, 0), BuildingBlock: UVAHIK_clean_linker_0, # of connection points: 2
#     Edge 46, Type (0, 0), BuildingBlock: UVAHIK_clean_linker_0, # of connection points: 2
#     Edge 47, Type (0, 0), BuildingBlock: UVAHIK_clean_linker_0, # of connection points: 2
# Relax obj value: 0.094
# Max RMSD: 0.234
# Mean RMSD: 0.234
data_MOF--net-lcy-e--node1-KUMBUR_clean_sbu_1--edge1-UVAHIK_clean_linker_0
_symmetry_space_group_name_H-M    P1
_symmetry_Int_Tables_number       1
_symmetry_cell_setting            triclinic
loop_
_symmetry_equiv_pos_as_xyz
'x, y, z'
_cell_length_a     54.281422
_cell_length_b     54.133591
_cell_length_c     54.377564
_cell_angle_alpha  90.07794
_cell_angle_beta   89.949323
_cell_angle_gamma 89.699814
loop_
_atom_site_label
_atom_site_type_symbol
_atom_site_fract_x
_atom_site_fract_y
_atom_site_fract_z
_atom_type_partial_charge
Tb0 Tb 0.1472 0.20654 0.508 0.0
C1 C 0.07231 0.28499 0.46124 0.0
N2 N 0.08406 0.2645 0.45254 0.0
C3 C 0.04717 0.2521 0.43167 0.0
C4 C 0.04712 0.28919 0.4564 0.0
C5 C 0.07226 0.249 0.4366 0.0
C6 C 0.03443 0.27206 0.44194 0.0
C7 C 0.07471 0.32452 0.48228 0.0
C8 C 0.08596 0.30263 0.47374 0.0
C9 C 0.04942 0.32835 0.47826 0.0
C10 C 0.03568 0.31074 0.46533 0.0
Tb11 Tb 0.12509 0.26224 0.46167 0.0
N12 N 0.11036 0.29828 0.47745 0.0
C13 C 0.08928 0.34194 0.49449 0.0
C14 C 0.12479 0.3154 0.48878 0.0
C15 C 0.11446 0.33739 0.49765 0.0
H16 H 0.08214 0.23448 0.42713 0.0
H17 H 0.12593 0.35088 0.50676 0.0
H18 H 0.19425 0.23554 0.53754 0.0
H19 H 0.14533 0.12392 0.45312 0.0
H20 H 0.14429 0.31232 0.49054 0.0
H21 H 0.08133 0.35901 0.50136 0.0
H22 H 0.12705 0.15928 0.47591 0.0
H23 H 0.03781 0.23938 0.41951 0.0
H24 H 0.0404 0.34502 0.48477 0.0
H25 H 0.01631 0.31421 0.46189 0.0
H26 H 0.23916 0.23449 0.53593 0.0
H27 H 0.01507 0.27462 0.43777 0.0
H28 H 0.19067 0.11958 0.45021 0.0
N29 N 0.18942 0.20784 0.5098 0.0
C30 C 0.20094 0.18947 0.49694 0.0
C31 C 0.22864 0.22205 0.52446 0.0
C32 C 0.22685 0.18751 0.49646 0.0
C33 C 0.20292 0.22305 0.5247 0.0
C34 C 0.24069 0.2045 0.50996 0.0
N35 N 0.16179 0.1747 0.48502 0.0
C36 C 0.14685 0.15737 0.47459 0.0
C37 C 0.19789 0.15231 0.47193 0.0
C38 C 0.1867 0.17201 0.48477 0.0
C39 C 0.18276 0.13498 0.46028 0.0
C40 C 0.15714 0.13741 0.46179 0.0
H41 H 0.26063 0.20361 0.51005 0.0
H42 H 0.25801 0.16667 0.48234 0.0
H43 H 0.23267 0.13588 0.46091 0.0
O44 O 0.12723 0.1772 0.5237 0.0
O45 O 0.15414 0.20656 0.46814 0.0
O46 O 0.16216 0.24683 0.46122 0.0
O47 O 0.16012 0.19063 0.5408 0.0
O48 O 0.1094 0.20533 0.49446 0.0
O49 O 0.1132 0.22379 0.45645 0.0
O50 O 0.1382 0.29262 0.44164 0.0
O51 O 0.10612 0.26311 0.49784 0.0
O52 O 0.12285 0.2336 0.52501 0.0
O53 O 0.12599 0.25994 0.4229 0.0
O54 O 0.15861 0.26668 0.48362 0.0
O55 O 0.15639 0.24442 0.52004 0.0
C56 C 0.16697 0.22361 0.45706 0.0
C57 C 0.1299 0.1732 0.56678 0.0
C58 C 0.11023 0.14683 0.59762 0.0
C59 C 0.11024 0.16708 0.614 0.0
C60 C 0.12925 0.1931 0.58328 0.0
C61 C 0.11933 0.19003 0.60671 0.0
C62 C 0.12 0.15032 0.57382 0.0
C63 C 0.10073 0.21067 0.47256 0.0
C64 C 0.14176 0.17544 0.54255 0.0
C65 C 0.23813 0.16831 0.48307 0.0
C66 C 0.22369 0.15071 0.47094 0.0
C67 C 0.10767 0.25196 0.51949 0.0
C68 C 0.12372 0.29817 0.40128 0.0
C69 C 0.12928 0.32652 0.36672 0.0
C70 C 0.1038 0.33117 0.36677 0.0
C71 C 0.09833 0.30302 0.40082 0.0
C72 C 0.13917 0.30978 0.38396 0.0
C73 C 0.08846 0.31937 0.38362 0.0
C74 C 0.16208 0.26455 0.5075 0.0
C75 C 0.13462 0.28225 0.42041 0.0
H76 H 0.10369 0.16527 0.63269 0.0
H77 H 0.13664 0.21092 0.57815 0.0
H78 H 0.11909 0.20539 0.61948 0.0
H79 H 0.12008 0.13534 0.5606 0.0
H80 H 0.09571 0.34381 0.35359 0.0
H81 H 0.08612 0.29439 0.41379 0.0
H82 H 0.15886 0.30628 0.3843 0.0
H83 H 0.06884 0.32303 0.38343 0.0
Tb84 Tb 0.05585 0.89635 0.76191 0.0
C85 C 0.97658 0.82274 0.7186 0.0
N86 N 0.99662 0.83335 0.7082 0.0
C87 C 0.00774 0.79472 0.6895 0.0
C88 C 0.97202 0.79728 0.71594 0.0
C89 C 0.01142 0.82005 0.69278 0.0
C90 C 0.98818 0.78316 0.7015 0.0
C91 C 0.93897 0.82761 0.74213 0.0
C92 C 0.96023 0.83774 0.73133 0.0
C93 C 0.93479 0.80206 0.74041 0.0
C94 C 0.95124 0.78694 0.72727 0.0
Tb95 Tb 1.00149 0.87446 0.71563 0.0
N96 N 0.96491 0.86237 0.73251 0.0
C97 C 0.92233 0.84357 0.75385 0.0
C98 C 0.94792 0.87816 0.74241 0.0
C99 C 0.92664 0.86899 0.75363 0.0
H100 H 0.02548 0.82911 0.68224 0.0
H101 H 0.91342 0.88157 0.76184 0.0
H102 H 0.02727 0.94306 0.79273 0.0
H103 H 0.13897 0.89426 0.70831 0.0
H104 H 0.95034 0.89784 0.74124 0.0
H105 H 0.90576 0.83654 0.76243 0.0
H106 H 0.10283 0.87623 0.72946 0.0
H107 H 0.01976 0.78424 0.67744 0.0
H108 H 0.91862 0.7939 0.74873 0.0
H109 H 0.9475 0.76737 0.72562 0.0
H110 H 0.02921 0.98809 0.79325 0.0
H111 H 0.98528 0.76355 0.69885 0.0
H112 H 0.14449 0.93964 0.70766 0.0
N113 N 0.05545 0.93861 0.76545 0.0
C114 C 0.07403 0.9502 0.75328 0.0
C115 C 0.04165 0.97769 0.78156 0.0
C116 C 0.07655 0.9761 0.75409 0.0
C117 C 0.04019 0.95193 0.78061 0.0
C118 C 0.05967 0.98987 0.76796 0.0
N119 N 0.08794 0.91114 0.73974 0.0
C120 C 0.10512 0.89605 0.72901 0.0
C121 C 0.11147 0.94706 0.72889 0.0
C122 C 0.09125 0.93596 0.7407 0.0
C123 C 0.12869 0.93182 0.71696 0.0
C124 C 0.12559 0.90619 0.71719 0.0
H125 H 0.06094 0.00981 0.76903 0.0
H126 H 0.09832 0.00726 0.74195 0.0
H127 H 0.12893 0.98181 0.71996 0.0
O128 O 0.08394 0.87404 0.77672 0.0
O129 O 0.05582 0.90501 0.72242 0.0
O130 O 0.01529 0.91202 0.71667 0.0
O131 O 0.07252 0.90717 0.79521 0.0
O132 O 0.05769 0.85902 0.74691 0.0
O133 O 0.03982 0.86276 0.70857 0.0
O134 O 0.97148 0.88319 0.69253 0.0
O135 O 0.00748 0.85108 0.74879 0.0
O136 O 0.02594 0.87579 0.7787 0.0
O137 O 0.00801 0.87791 0.67769 0.0
O138 O 0.9941 0.90754 0.73806 0.0
O139 O 0.01786 0.90601 0.77387 0.0
C140 C 0.03809 0.91712 0.71143 0.0
C141 C 0.09041 0.8754 0.81934 0.0
C142 C 0.11825 0.85698 0.84957 0.0
C143 C 0.09764 0.84956 0.86337 0.0
C144 C 0.07011 0.86779 0.83328 0.0
C145 C 0.07377 0.85499 0.85527 0.0
C146 C 0.1144 0.87007 0.82755 0.0
C147 C 0.0547 0.85148 0.72414 0.0
C148 C 0.08719 0.88813 0.79574 0.0
C149 C 0.0962 0.98737 0.74164 0.0
C150 C 0.1137 0.97288 0.72919 0.0
C151 C 0.01195 0.85709 0.77196 0.0
C152 C 0.97429 0.87332 0.65005 0.0
C153 C 0.9477 0.87929 0.6143 0.0
C154 C 0.9547 0.85586 0.60561 0.0
C155 C 0.98127 0.85009 0.64086 0.0
C156 C 0.95762 0.88802 0.63654 0.0
C157 C 0.97147 0.84143 0.61877 0.0
C158 C 0.9976 0.91215 0.76164 0.0
C159 C 0.98507 0.88331 0.67281 0.0
H160 H 0.09997 0.83971 0.88054 0.0
H161 H 0.05154 0.87165 0.82711 0.0
H162 H 0.05806 0.84918 0.86604 0.0
H163 H 0.13005 0.87564 0.81649 0.0
H164 H 0.9474 0.84888 0.58843 0.0
H165 H 0.99449 0.83875 0.65047 0.0
H166 H 0.95237 0.90617 0.64329 0.0
H167 H 0.97702 0.82353 0.61175 0.0
Tb168 Tb 0.39569 0.7502 0.95485 0.0
C169 C 0.32303 0.79653 0.03512 0.0
N170 N 0.33356 0.80516 0.01416 0.0
C171 C 0.29519 0.82405 1.00254 0.0
C172 C 0.29777 0.80026 0.03998 0.0
C173 C 0.32035 0.82001 0.9987 0.0
C174 C 0.28372 0.81377 0.02307 0.0
C175 C 0.32782 0.77568 0.07431 0.0
C176 C 0.3379 0.78468 0.0522 0.0
C177 C 0.3025 0.77866 0.07889 0.0
C178 C 0.28752 0.79097 0.0618 0.0
Tb179 Tb 0.37479 0.79723 0.0101 0.0
N180 N 0.3623 0.78204 0.04709 0.0
C181 C 0.34357 0.76415 0.09119 0.0
C182 C 0.37788 0.77168 0.06386 0.0
C183 C 0.36874 0.76231 0.08601 0.0
H184 H 0.32935 0.82998 0.98418 0.0
H185 H 0.38115 0.75389 0.09916 0.0
H186 H 0.44156 0.71842 0.98343 0.0
H187 H 0.39575 0.8076 0.87419 0.0
H188 H 0.39739 0.77116 0.06047 0.0
H189 H 0.33655 0.75693 0.10838 0.0
H190 H 0.37668 0.78444 0.90854 0.0
H191 H 0.28481 0.83562 0.99001 0.0
H192 H 0.29438 0.7718 0.09575 0.0
H193 H 0.26812 0.79354 0.0658 0.0
H194 H 0.48655 0.71809 0.98249 0.0
H195 H 0.26427 0.81715 0.02617 0.0
H196 H 0.44118 0.80895 0.87024 0.0
N197 N 0.43778 0.74681 0.95628 0.0
C198 C 0.44976 0.7597 0.93841 0.0
C199 C 0.47644 0.73026 0.97032 0.0
C200 C 0.47567 0.75921 0.93661 0.0
C201 C 0.45072 0.73107 0.97121 0.0
C202 C 0.48901 0.74468 0.95322 0.0
N203 N 0.41107 0.77356 0.92387 0.0
C204 C 0.39651 0.78506 0.90682 0.0
C205 C 0.44761 0.78595 0.90219 0.0
C206 C 0.43597 0.77294 0.92132 0.0
C207 C 0.43291 0.7987 0.8852 0.0
C208 C 0.40725 0.79807 0.88741 0.0
H209 H 0.50893 0.74379 0.95243 0.0
H210 H 0.50732 0.77271 0.91647 0.0
H211 H 0.48277 0.79612 0.88637 0.0
O212 O 0.37574 0.73634 0.92469 0.0
O213 O 0.40382 0.79 0.95587 0.0
O214 O 0.4123 0.79625 0.996 0.0
O215 O 0.40696 0.71658 0.93875 0.0
O216 O 0.35837 0.76506 0.95377 0.0
O217 O 0.36256 0.80344 0.97191 0.0
O218 O 0.3858 0.81941 0.03998 0.0
O219 O 0.35396 0.76217 0.00954 0.0
O220 O 0.371 0.73344 0.98159 0.0
O221 O 0.37709 0.83565 1.00488 0.0
O222 O 0.40765 0.77393 0.015 0.0
O223 O 0.40426 0.73748 0.99258 0.0
C224 C 0.41734 0.80021 0.97292 0.0
C225 C 0.37595 0.69331 0.91884 0.0
C226 C 0.357 0.66404 0.89051 0.0
C227 C 0.35075 0.64896 0.91051 0.0
C228 C 0.36957 0.67805 0.93867 0.0
C229 C 0.35702 0.65596 0.93445 0.0
C230 C 0.36962 0.68623 0.89476 0.0
C231 C 0.35061 0.78771 0.95779 0.0
C232 C 0.38923 0.71661 0.9227 0.0
C233 C 0.48742 0.77272 0.91798 0.0
C234 C 0.47343 0.78598 0.90077 0.0
C235 C 0.35544 0.74006 0.99916 0.0
C236 C 0.37258 0.8611 0.04035 0.0
C237 C 0.37714 0.89663 0.06786 0.0
C238 C 0.3523 0.90282 0.06348 0.0
C239 C 0.34786 0.86762 0.03654 0.0
C240 C 0.38718 0.87564 0.05608 0.0
C241 C 0.33782 0.88834 0.04805 0.0
C242 C 0.41018 0.74979 0.01278 0.0
C243 C 0.3838 0.83981 0.02755 0.0
H244 H 0.34115 0.63172 0.90754 0.0
H245 H 0.37433 0.68317 0.95733 0.0
H246 H 0.3522 0.6442 0.94979 0.0
H247 H 0.37451 0.69793 0.87936 0.0
H248 H 0.34408 0.91914 0.07167 0.0
H249 H 0.33636 0.85701 0.02445 0.0
H250 H 0.40627 0.87053 0.05917 0.0
H251 H 0.31878 0.89337 0.0448 0.0
Tb252 Tb 0.45937 0.1167 0.2581 0.0
C253 C 0.53426 0.19288 0.21344 0.0
N254 N 0.51501 0.18079 0.20308 0.0
C255 C 0.50211 0.21811 0.18301 0.0
C256 C 0.5375 0.21844 0.20993 0.0
C257 C 0.49978 0.19272 0.187 0.0
C258 C 0.52084 0.23112 0.19482 0.0
C259 C 0.57131 0.19122 0.23832 0.0
C260 C 0.55111 0.17939 0.22721 0.0
C261 C 0.57425 0.21682 0.23543 0.0
C262 C 0.55743 0.23039 0.22121 0.0
Tb263 Tb 0.51288 0.13961 0.2115 0.0
N264 N 0.54751 0.15468 0.22983 0.0
C265 C 0.58795 0.17693 0.25195 0.0
C266 C 0.56427 0.14052 0.24219 0.0
C267 C 0.58452 0.15144 0.25369 0.0
H268 H 0.48643 0.18259 0.17644 0.0
H269 H 0.5976 0.14014 0.2637 0.0
H270 H 0.48603 0.0703 0.29038 0.0
H271 H 0.37587 0.12 0.2053 0.0
H272 H 0.56246 0.12081 0.24285 0.0
H273 H 0.60368 0.18532 0.26084 0.0
H274 H 0.41246 0.13747 0.22611 0.0
H275 H 0.48974 0.22752 0.1705 0.0
H276 H 0.58962 0.22627 0.24391 0.0
H277 H 0.56015 0.25005 0.21885 0.0
H278 H 0.48253 0.02533 0.2924 0.0
H279 H 0.52272 0.25077 0.19159 0.0
H280 H 0.36941 0.07475 0.205 0.0
N281 N 0.45831 0.07461 0.2627 0.0
C282 C 0.43959 0.06324 0.25059 0.0
C283 C 0.47061 0.03572 0.28021 0.0
C284 C 0.43621 0.03748 0.25218 0.0
C285 C 0.47295 0.06136 0.27845 0.0
C286 C 0.45241 0.02366 0.26674 0.0
N287 N 0.42682 0.10235 0.2363 0.0
C288 C 0.40983 0.1177 0.2257 0.0
C289 C 0.40239 0.06685 0.22603 0.0
C290 C 0.42292 0.07763 0.23756 0.0
C291 C 0.38546 0.08231 0.21404 0.0
C292 C 0.38909 0.10787 0.21409 0.0
H293 H 0.45042 1.00383 0.26845 0.0
H294 H 0.41355 1.00668 0.24074 0.0
H295 H 0.38387 0.03243 0.21796 0.0
O296 O 0.43304 0.14071 0.27362 0.0
O297 O 0.45877 0.10822 0.21865 0.0
O298 O 0.49917 0.10186 0.21023 0.0
O299 O 0.44207 0.10638 0.29117 0.0
O300 O 0.45807 0.15418 0.24343 0.0
O301 O 0.47428 0.14993 0.20452 0.0
O302 O 0.54449 0.13092 0.1907 0.0
O303 O 0.50753 0.16127 0.24604 0.0
O304 O 0.49058 0.13478 0.27515 0.0
O305 O 0.50961 0.1377 0.17295 0.0
O306 O 0.52117 0.10583 0.23225 0.0
O307 O 0.49735 0.10507 0.26816 0.0
C308 C 0.47613 0.09584 0.20734 0.0
C309 C 0.42623 0.13848 0.31623 0.0
C310 C 0.39913 0.15672 0.34729 0.0
C311 C 0.41995 0.16159 0.36192 0.0
C312 C 0.44673 0.14355 0.33097 0.0
C313 C 0.44354 0.15507 0.35376 0.0
C314 C 0.40256 0.14512 0.32436 0.0
C315 C 0.45968 0.16118 0.22039 0.0
C316 C 0.42879 0.12638 0.29223 0.0
C317 C 0.41632 0.02646 0.23987 0.0
C318 C 0.39938 0.04113 0.22695 0.0
C319 C 0.5038 0.15418 0.26904 0.0
C320 C 0.54586 0.14237 0.14871 0.0
C321 C 0.57237 0.13615 0.1129 0.0
C322 C 0.57126 0.16161 0.10816 0.0
C323 C 0.54507 0.16775 0.14371 0.0
C324 C 0.55943 0.12654 0.13312 0.0
C325 C 0.55758 0.17726 0.12342 0.0
C326 C 0.51717 0.09885 0.25517 0.0
C327 C 0.53274 0.13178 0.16988 0.0
H328 H 0.41798 0.17016 0.37983 0.0
H329 H 0.46508 0.13854 0.3249 0.0
H330 H 0.4594 0.15887 0.36519 0.0
H331 H 0.38683 0.14148 0.31264 0.0
H332 H 0.58096 0.16936 0.09257 0.0
H333 H 0.53491 0.18024 0.1554 0.0
H334 H 0.56022 0.10688 0.1369 0.0
H335 H 0.55678 0.19686 0.11958 0.0
Tb336 Tb 0.64389 0.30533 0.49906 0.0
C337 C 0.56856 0.22972 0.54667 0.0
N338 N 0.58076 0.24958 0.55582 0.0
C339 C 0.54443 0.26218 0.57781 0.0
C340 C 0.54341 0.22595 0.5519 0.0
C341 C 0.56947 0.26478 0.57249 0.0
C342 C 0.53121 0.24291 0.56713 0.0
C343 C 0.57019 0.19063 0.5248 0.0
C344 C 0.58181 0.21216 0.5335 0.0
C345 C 0.54492 0.18727 0.52914 0.0
C346 C 0.53156 0.20489 0.54265 0.0
Tb347 Tb 0.62165 0.25142 0.54611 0.0
N348 N 0.60623 0.21604 0.52958 0.0
C349 C 0.58441 0.17303 0.51221 0.0
C350 C 0.62029 0.19864 0.51798 0.0
C351 C 0.60961 0.17701 0.50892 0.0
H352 H 0.57986 0.27843 0.58243 0.0
H353 H 0.62086 0.16332 0.49962 0.0
H354 H 0.69104 0.27709 0.46894 0.0
H355 H 0.64 0.38931 0.55166 0.0
H356 H 0.6398 0.20103 0.5163 0.0
H357 H 0.57618 0.15623 0.50524 0.0
H358 H 0.62273 0.35269 0.53052 0.0
H359 H 0.53551 0.27465 0.59064 0.0
H360 H 0.53562 0.17091 0.52248 0.0
H361 H 0.51222 0.20175 0.54637 0.0
H362 H 0.73592 0.28011 0.4683 0.0
H363 H 0.5119 0.24066 0.57163 0.0
H364 H 0.68517 0.39532 0.55301 0.0
N365 N 0.68604 0.30546 0.49601 0.0
C366 C 0.69718 0.32441 0.50811 0.0
C367 C 0.72528 0.29239 0.47996 0.0
C368 C 0.72295 0.32748 0.50729 0.0
C369 C 0.69964 0.29033 0.48096 0.0
C370 C 0.73703 0.31082 0.49345 0.0
N371 N 0.65787 0.33793 0.52114 0.0
C372 C 0.64246 0.35515 0.53136 0.0
C373 C 0.69325 0.36207 0.53224 0.0
C374 C 0.6826 0.34153 0.52051 0.0
C375 C 0.67769 0.37926 0.54381 0.0
C376 C 0.65217 0.37589 0.54317 0.0
H377 H 0.75688 0.31257 0.49232 0.0
H378 H 0.75355 0.35005 0.51932 0.0
H379 H 0.72754 0.38033 0.54113 0.0
O380 O 0.62108 0.33236 0.48277 0.0
O381 O 0.65171 0.30605 0.53863 0.0
O382 O 0.65911 0.26582 0.54706 0.0
O383 O 0.65584 0.32263 0.46659 0.0
O384 O 0.60644 0.30704 0.51394 0.0
O385 O 0.61067 0.29012 0.55264 0.0
O386 O 0.63351 0.2203 0.56584 0.0
O387 O 0.60062 0.25394 0.51101 0.0
O388 O 0.62384 0.27548 0.48166 0.0
O389 O 0.62256 0.25344 0.58493 0.0
O390 O 0.65528 0.24463 0.52478 0.0
O391 O 0.65433 0.26703 0.48822 0.0
C392 C 0.66459 0.28906 0.54988 0.0
C393 C 0.62549 0.3395 0.44018 0.0
C394 C 0.60737 0.36702 0.40938 0.0
C395 C 0.60616 0.34691 0.39299 0.0
C396 C 0.62434 0.3198 0.42348 0.0
C397 C 0.61453 0.32351 0.40005 0.0
C398 C 0.617 0.36302 0.4331 0.0
C399 C 0.59897 0.30439 0.53679 0.0
C400 C 0.63626 0.33638 0.46477 0.0
C401 C 0.73377 0.3475 0.51965 0.0
C402 C 0.71895 0.36479 0.53201 0.0
C403 C 0.605 0.26169 0.48828 0.0
C404 C 0.61955 0.21514 0.60636 0.0
C405 C 0.62553 0.18695 0.64089 0.0
C406 C 0.60023 0.18169 0.64056 0.0
C407 C 0.59432 0.20973 0.60646 0.0
C408 C 0.63509 0.20391 0.62384 0.0
C409 C 0.58473 0.19317 0.62355 0.0
C410 C 0.6604 0.24716 0.50122 0.0
C411 C 0.63047 0.23075 0.58715 0.0
H412 H 0.59923 0.34934 0.37447 0.0
H413 H 0.6311 0.30164 0.42852 0.0
H414 H 0.61366 0.30825 0.3872 0.0
H415 H 0.61793 0.37819 0.4461 0.0
H416 H 0.59242 0.16878 0.6536 0.0
H417 H 0.58206 0.21797 0.59324 0.0
H418 H 0.65469 0.20776 0.62367 0.0
H419 H 0.56525 0.18902 0.62346 0.0
Tb420 Tb 0.01217 0.36586 0.80246 0.0
C421 C 0.95909 0.44233 0.73055 0.0
N422 N 0.95167 0.4294 0.75062 0.0
C423 C 0.93021 0.4652 0.76583 0.0
C424 C 0.95329 0.46761 0.72794 0.0
C425 C 0.93607 0.44007 0.76733 0.0
C426 C 0.93919 0.47915 0.74625 0.0
C427 C 0.97885 0.4424 0.69048 0.0
C428 C 0.97152 0.42987 0.71195 0.0
C429 C 0.9738 0.46776 0.68815 0.0
C430 C 0.96105 0.48033 0.70683 0.0
Tb431 Tb 0.96259 0.38857 0.75071 0.0
N432 N 0.97632 0.40538 0.71492 0.0
C433 C 0.99088 0.42899 0.67194 0.0
C434 C 0.98755 0.39209 0.69672 0.0
C435 C 0.99512 0.40369 0.67503 0.0
H436 H 0.92745 0.42916 0.78149 0.0
H437 H 1.00414 0.3931 0.6607 0.0
H438 H 0.04111 0.31881 0.77274 0.0
H439 H 0.96051 0.36907 0.88676 0.0
H440 H 0.99032 0.37253 0.69869 0.0
H441 H 0.9968 0.43792 0.65515 0.0
H442 H 0.98062 0.38673 0.84987 0.0
H443 H 0.91832 0.47364 0.77948 0.0
H444 H 0.97939 0.47775 0.67184 0.0
H445 H 0.95688 0.49979 0.70456 0.0
H446 H 0.04203 0.27378 0.77559 0.0
H447 H 0.93434 0.49854 0.74494 0.0
H448 H 0.96033 0.32376 0.893 0.0
N449 N 0.0153 0.32365 0.80217 0.0
C450 C 1.00394 0.31236 0.82145 0.0
C451 C 0.03087 0.28438 0.78834 0.0
C452 C 1.00495 0.2865 0.82438 0.0
C453 C 0.0297 0.3101 0.7864 0.0
C454 C 0.01819 0.27249 0.8072 0.0
N455 N 0.99069 0.35167 0.83525 0.0
C456 C 0.98032 0.36694 0.85245 0.0
C457 C 0.9807 0.316 0.85957 0.0
C458 C 0.99188 0.32686 0.83888 0.0
C459 C 0.96914 0.33141 0.87685 0.0
C460 C 0.9691 0.357 0.87334 0.0
H461 H 0.01942 0.25257 0.80881 0.0
H462 H 0.9938 0.25565 0.84711 0.0
H463 H 0.97261 0.28147 0.8779 0.0
O464 O 0.02835 0.38655 0.83093 0.0
O465 O 0.97276 0.3571 0.80357 0.0
O466 O 0.96343 0.35048 0.76361 0.0
O467 O 0.04622 0.35402 0.81688 0.0
O468 O 0.99809 0.40357 0.80487 0.0
O469 O 0.95886 0.39869 0.78973 0.0
O470 O 0.94097 0.37757 0.72062 0.0
O471 O 0.99776 0.4094 0.75042 0.0
O472 O 0.028 0.38836 0.77346 0.0
O473 O 0.92413 0.38589 0.75556 0.0
O474 O 0.98514 0.3561 0.74185 0.0
O475 O 0.02205 0.35629 0.76404 0.0
C476 C 0.96154 0.34422 0.78665 0.0
C477 C 0.07145 0.38472 0.83493 0.0
C478 C 0.10139 0.4051 0.8616 0.0
C479 C 0.11691 0.4082 0.84109 0.0
C480 C 0.08726 0.38785 0.81479 0.0
C481 C 0.10984 0.39967 0.8179 0.0
C482 C 0.07856 0.39334 0.85825 0.0
C483 C 0.97533 0.41131 0.80221 0.0
C484 C 0.04759 0.3723 0.83233 0.0
C485 C 0.99329 0.27551 0.84465 0.0
C486 C 0.98129 0.29021 0.86224 0.0
C487 C 0.02067 0.4059 0.7582 0.0
C488 C 0.89937 0.39006 0.7196 0.0
C489 C 0.86443 0.38466 0.69191 0.0
C490 C 0.86016 0.41025 0.6926 0.0
C491 C 0.89481 0.41557 0.71999 0.0
C492 C 0.88396 0.37457 0.70565 0.0
C493 C 0.8752 0.42556 0.70668 0.0
C494 C 0.0088 0.35087 0.74427 0.0
C495 C 0.92043 0.37914 0.73281 0.0
H496 H 0.13476 0.41683 0.84304 0.0
H497 H 0.08217 0.38116 0.79672 0.0
H498 H 0.122 0.40206 0.8023 0.0
H499 H 0.0662 0.391 0.87375 0.0
H500 H 0.84513 0.41837 0.68224 0.0
H501 H 0.90636 0.42784 0.73037 0.0
H502 H 0.88747 0.35484 0.70504 0.0
H503 H 0.87176 0.44527 0.70712 0.0
Tb504 Tb 0.86637 0.70651 0.99837 0.0
C505 C 0.94095 0.78149 0.04977 0.0
N506 N 0.92858 0.76114 0.05756 0.0
C507 C 0.96484 0.74686 0.07859 0.0
C508 C 0.96616 0.78463 0.05507 0.0
C509 C 0.93977 0.74477 0.07317 0.0
C510 C 0.97822 0.76664 0.06914 0.0
C511 C 0.93991 0.82165 0.02985 0.0
C512 C 0.92796 0.79998 0.03761 0.0
C513 C 0.96522 0.8244 0.03429 0.0
C514 C 0.97831 0.80597 0.0469 0.0
Tb515 Tb 0.88768 0.76059 0.04751 0.0
N516 N 0.9035 0.79669 0.03348 0.0
C517 C 0.92595 0.84 0.01811 0.0
C518 C 0.88964 0.81478 0.02278 0.0
C519 C 0.90066 0.83663 0.01474 0.0
H520 H 0.92938 0.73034 0.08204 0.0
H521 H 0.88964 0.85087 1.00608 0.0
H522 H 0.8194 0.73825 0.97103 0.0
H523 H 0.86815 0.6214 0.04912 0.0
H524 H 0.8701 0.81251 0.02085 0.0
H525 H 0.93445 0.85695 0.01188 0.0
H526 H 0.88648 0.65808 0.02905 0.0
H527 H 0.9737 0.73347 0.09046 0.0
H528 H 0.97478 0.84089 0.0284 0.0
H529 H 0.99771 0.80861 0.05068 0.0
H530 H 0.77453 0.73715 0.97198 0.0
H531 H 0.99757 0.76838 0.07363 0.0
H532 H 0.82283 0.61663 0.05035 0.0
N533 N 0.8242 0.70854 0.99663 0.0
C534 C 0.81268 0.68936 0.00803 0.0
C535 C 0.78502 0.72389 0.98262 0.0
C536 C 0.78677 0.68739 0.00796 0.0
C537 C 0.81074 0.72486 0.98279 0.0
C538 C 0.77296 0.70531 0.99555 0.0
N539 N 0.85177 0.67383 0.01976 0.0
C540 C 0.86668 0.65604 0.02969 0.0
C541 C 0.81568 0.65062 0.03055 0.0
C542 C 0.82689 0.67111 0.01928 0.0
C543 C 0.83076 0.63264 0.04148 0.0
C544 C 0.85637 0.63531 0.04093 0.0
H545 H 0.75303 0.70445 0.99509 0.0
H546 H 0.75561 0.6656 0.01993 0.0
H547 H 0.7809 0.63344 0.03966 0.0
O548 O 0.88482 0.67619 0.98226 0.0
O549 O 0.85849 0.70518 0.03807 0.0
O550 O 0.85062 0.74537 0.04672 0.0
O551 O 0.85439 0.69344 0.96393 0.0
O552 O 0.90384 0.70411 0.01261 0.0
O553 O 0.89938 0.72179 0.05102 0.0
O554 O 0.87474 0.7909 0.06828 0.0
O555 O 0.90627 0.7634 0.01129 0.0
O556 O 0.89336 0.73221 0.98392 0.0
O557 O 0.88525 0.75703 0.08604 0.0
O558 O 0.85451 0.76521 0.02508 0.0
O559 O 0.85792 0.74513 0.98757 0.0
C560 C 0.8458 0.72201 0.04994 0.0
C561 C 0.88425 0.67313 0.93906 0.0
C562 C 0.9036 0.64539 0.90891 0.0
C563 C 0.90713 0.66589 0.89337 0.0
C564 C 0.88847 0.69325 0.92343 0.0
C565 C 0.89979 0.68957 0.90069 0.0
C566 C 0.89201 0.64931 0.93185 0.0
C567 C 0.91232 0.70934 0.03461 0.0
C568 C 0.87127 0.67636 0.96266 0.0
C569 C 0.77549 0.6673 0.01971 0.0
C570 C 0.78989 0.64892 0.03086 0.0
C571 C 0.90695 0.75147 0.98997 0.0
C572 C 0.88852 0.79416 0.10935 0.0
C573 C 0.88383 0.82287 0.144 0.0
C574 C 0.90947 0.82174 0.14766 0.0
C575 C 0.91402 0.79368 0.11334 0.0
C576 C 0.87339 0.80876 0.12482 0.0
C577 C 0.92437 0.80729 0.13244 0.0
C578 C 0.85233 0.76485 1.00098 0.0
C579 C 0.87743 0.77965 0.08919 0.0
H580 H 0.91528 0.66368 0.87532 0.0
H581 H 0.88281 0.71173 0.92871 0.0
H582 H 0.90272 0.70511 0.88855 0.0
H583 H 0.88911 0.63392 0.94423 0.0
H584 H 0.91803 0.83189 0.16252 0.0
H585 H 0.92601 0.78278 0.10184 0.0
H586 H 0.85367 0.80937 0.12172 0.0
H587 H 0.94406 0.8066 0.13549 0.0
Tb588 Tb 0.49555 0.64331 0.30118 0.0
C589 C 0.54896 0.56756 0.23364 0.0
N590 N 0.55835 0.58194 0.25183 0.0
C591 C 0.58135 0.54727 0.26724 0.0
C592 C 0.55449 0.54213 0.23225 0.0
C593 C 0.57587 0.57255 0.2673 0.0
C594 C 0.57018 0.53187 0.24995 0.0
C595 C 0.52776 0.56529 0.19443 0.0
C596 C 0.53574 0.57887 0.21502 0.0
C597 C 0.53203 0.53969 0.19361 0.0
C598 C 0.54528 0.52811 0.21254 0.0
Tb599 Tb 0.54697 0.62271 0.25052 0.0
N600 N 0.53178 0.6036 0.21655 0.0
C601 C 0.51641 0.57802 0.17504 0.0
C602 C 0.52223 0.61637 0.19707 0.0
C603 C 0.51395 0.60373 0.17623 0.0
H604 H 0.58582 0.58454 0.27965 0.0
H605 H 0.50583 0.61382 0.16107 0.0
H606 H 0.46603 0.69063 0.27674 0.0
H607 H 0.55634 0.63528 0.38012 0.0
H608 H 0.52091 0.63626 0.19775 0.0
H609 H 0.51006 0.56827 0.15885 0.0
H610 H 0.5304 0.61921 0.34706 0.0
H611 H 0.59456 0.5398 0.28017 0.0
H612 H 0.52578 0.52882 0.1781 0.0
H613 H 0.54914 0.50849 0.21127 0.0
H614 H 0.46302 0.73561 0.28384 0.0
H615 H 0.57483 0.51238 0.24962 0.0
H616 H 0.55785 0.68019 0.38825 0.0
N617 N 0.49164 0.68477 0.30577 0.0
C618 C 0.50406 0.69481 0.32497 0.0
C619 C 0.47478 0.72437 0.29542 0.0
C620 C 0.50303 0.7204 0.3296 0.0
C621 C 0.47666 0.69892 0.29133 0.0
C622 C 0.48815 0.73519 0.31453 0.0
N623 N 0.51928 0.65475 0.33411 0.0
C624 C 0.53182 0.63888 0.34916 0.0
C625 C 0.53264 0.68934 0.35877 0.0
C626 C 0.51868 0.67939 0.33933 0.0
C627 C 0.54682 0.67328 0.37316 0.0
C628 C 0.54614 0.64793 0.36852 0.0
H629 H 0.4868 0.75495 0.31752 0.0
H630 H 0.51667 0.75003 0.3526 0.0
H631 H 0.54261 0.72287 0.37812 0.0
O632 O 0.47647 0.63645 0.3344 0.0
O633 O 0.52392 0.6685 0.28728 0.0
O634 O 0.55819 0.64427 0.28287 0.0
O635 O 0.45674 0.64567 0.30065 0.0
O636 O 0.51466 0.60803 0.30691 0.0
O637 O 0.55309 0.61351 0.28953 0.0
O638 O 0.56387 0.65058 0.2295 0.0
O639 O 0.50882 0.60939 0.24522 0.0
O640 O 0.49336 0.6067 0.28437 0.0
O641 O 0.58124 0.61531 0.23395 0.0
O642 O 0.52345 0.65506 0.24272 0.0
O643 O 0.48536 0.65128 0.26264 0.0
C644 C 0.54789 0.66555 0.28858 0.0
C645 C 0.43158 0.63822 0.33722 0.0
C646 C 0.40669 0.62369 0.37185 0.0
C647 C 0.38563 0.63352 0.36043 0.0
C648 C 0.41019 0.64791 0.32631 0.0
C649 C 0.38743 0.64567 0.33793 0.0
C650 C 0.42983 0.62634 0.36033 0.0
C651 C 0.53774 0.60114 0.30357 0.0
C652 C 0.45527 0.64009 0.32391 0.0
C653 C 0.51708 0.73037 0.34883 0.0
C654 C 0.5319 0.7149 0.36333 0.0
C655 C 0.4918 0.60194 0.2608 0.0
C656 C 0.60724 0.64914 0.22794 0.0
C657 C 0.64527 0.66483 0.21023 0.0
C658 C 0.65294 0.67218 0.23377 0.0
C659 C 0.61538 0.65606 0.25139 0.0
C660 C 0.62237 0.65322 0.20738 0.0
C661 C 0.6381 0.66765 0.25426 0.0
C662 C 0.49926 0.65808 0.24375 0.0
C663 C 0.58326 0.63724 0.22469 0.0
H664 H 0.3677 0.63183 0.36902 0.0
H665 H 0.41104 0.65722 0.30871 0.0
H666 H 0.37106 0.65322 0.32936 0.0
H667 H 0.44613 0.61861 0.36894 0.0
H668 H 0.6706 0.68105 0.23633 0.0
H669 H 0.60421 0.65235 0.2674 0.0
H670 H 0.61628 0.64757 0.18924 0.0
H671 H 0.64427 0.67304 0.2724 0.0
Tb672 Tb 0.26001 0.45611 0.11365 0.0
C673 C 0.21213 0.5305 0.19047 0.0
N674 N 0.20297 0.51141 0.17712 0.0
C675 C 0.1812 0.4968 0.21266 0.0
C676 C 0.20718 0.53275 0.21583 0.0
C677 C 0.18644 0.49556 0.18752 0.0
C678 C 0.19196 0.51523 0.22699 0.0
C679 C 0.23515 0.56879 0.19144 0.0
C680 C 0.22566 0.54847 0.17841 0.0
C681 C 0.231 0.57067 0.21688 0.0
C682 C 0.217 0.55272 0.22903 0.0
Tb683 Tb 0.21367 0.51118 0.13646 0.0
N684 N 0.22945 0.54596 0.15382 0.0
C685 C 0.24837 0.58668 0.17846 0.0
C686 C 0.24141 0.56385 0.14088 0.0
C687 C 0.25131 0.58431 0.15303 0.0
H688 H 0.17664 0.48235 0.17639 0.0
H689 H 0.26101 0.59833 0.14273 0.0
H690 H 0.29079 0.4825 0.06624 0.0
H691 H 0.20127 0.37649 0.11782 0.0
H692 H 0.24296 0.56267 0.12117 0.0
H693 H 0.25601 0.60259 0.1878 0.0
H694 H 0.22541 0.41118 0.13499 0.0
H695 H 0.16851 0.48383 0.22086 0.0
H696 H 0.23823 0.58611 0.22726 0.0
H697 H 0.21354 0.55467 0.24857 0.0
H698 H 0.29002 0.47985 0.02136 0.0
H699 H 0.18768 0.51631 0.24643 0.0
H700 H 0.19903 0.37052 0.07272 0.0
N701 N 0.26266 0.45544 0.07157 0.0
C702 C 0.24928 0.43733 0.06054 0.0
C703 C 0.27815 0.46804 0.03214 0.0
C704 C 0.24911 0.43454 0.03476 0.0
C705 C 0.27802 0.46989 0.05779 0.0
C706 C 0.26337 0.45054 0.02054 0.0
N707 N 0.23584 0.42488 0.0999 0.0
C708 C 0.22433 0.40869 0.11531 0.0
C709 C 0.22247 0.40173 0.06459 0.0
C710 C 0.23602 0.42112 0.07519 0.0
C711 C 0.20967 0.38566 0.08016 0.0
C712 C 0.21079 0.38903 0.10564 0.0
H713 H 0.2637 0.44904 1.00068 0.0
H714 H 0.2346 0.41334 1.00423 0.0
H715 H 0.21139 0.38456 0.03035 0.0
O716 O 0.27418 0.42659 0.13441 0.0
O717 O 0.22049 0.45791 0.10545 0.0
O718 O 0.214 0.49848 0.0985 0.0
O719 O 0.29341 0.43945 0.10251 0.0
O720 O 0.24682 0.45563 0.15146 0.0
O721 O 0.20806 0.47227 0.14687 0.0
O722 O 0.19317 0.54284 0.12692 0.0
O723 O 0.24862 0.50814 0.1575 0.0
O724 O 0.27766 0.48558 0.13444 0.0
O725 O 0.17514 0.50801 0.13249 0.0
O726 O 0.23756 0.52072 0.10524 0.0
O727 O 0.2717 0.49371 0.10289 0.0
C728 C 0.21076 0.47553 0.09225 0.0
C729 C 0.31695 0.42069 0.1341 0.0
C730 C 0.34696 0.39293 0.15321 0.0
C731 C 0.36005 0.41366 0.16161 0.0
C732 C 0.33022 0.44109 0.14269 0.0
C733 C 0.35174 0.43754 0.15629 0.0
C734 C 0.32542 0.39666 0.13927 0.0
C735 C 0.22414 0.45876 0.15914 0.0
C736 C 0.29365 0.42398 0.12077 0.0
C737 C 0.2351 0.41563 0.02402 0.0
C738 C 0.22193 0.39918 0.0389 0.0
C739 C 0.27148 0.50134 0.15206 0.0
C740 C 0.15113 0.54462 0.13798 0.0
C741 C 0.1155 0.57212 0.13293 0.0
C742 C 0.11132 0.57078 0.15842 0.0
C743 C 0.14672 0.54396 0.16335 0.0
C744 C 0.13538 0.55868 0.12274 0.0
C745 C 0.12681 0.55679 0.17345 0.0
C746 C 0.26021 0.51491 0.09824 0.0
C747 C 0.17224 0.53131 0.12703 0.0
H748 H 0.37682 0.41139 0.17216 0.0
H749 H 0.32384 0.45967 0.13899 0.0
H750 H 0.36195 0.45334 0.16286 0.0
H751 H 0.3149 0.3809 0.13296 0.0
H752 H 0.09593 0.58049 0.16676 0.0
H753 H 0.1586 0.53369 0.17544 0.0
H754 H 0.13889 0.55954 0.10313 0.0
H755 H 0.12343 0.55599 0.19305 0.0
Tb756 Tb 0.70801 1.00017 0.86378 0.0
C757 C 0.78392 0.04408 0.93918 0.0
N758 N 0.76454 0.05489 0.92758 0.0
C759 C 0.75239 0.0747 0.96519 0.0
C760 C 0.78763 0.04726 0.96463 0.0
C761 C 0.74949 0.07091 0.93993 0.0
C762 C 0.77134 0.06253 0.97769 0.0
C763 C 0.82071 0.0186 0.93666 0.0
C764 C 0.80041 0.0302 0.9253 0.0
C765 C 0.8241 0.02109 0.96216 0.0
C766 C 0.80765 0.03546 0.97609 0.0
Tb767 Tb 0.76134 0.0467 0.88661 0.0
N768 N 0.7965 0.02814 0.90067 0.0
C769 C 0.8371 1.00502 0.922 0.0
C770 C 0.81304 0.01584 0.88618 0.0
C771 C 0.83337 1.00384 0.89662 0.0
H772 H 0.73565 0.08141 0.93026 0.0
H773 H 0.84626 0.99387 0.88505 0.0
H774 H 0.73283 0.96727 0.81696 0.0
H775 H 0.62616 0.05647 0.86793 0.0
H776 H 0.81101 0.01546 0.86657 0.0
H777 H 0.85291 0.99576 0.93002 0.0
H778 H 0.66142 0.03287 0.88504 0.0
H779 H 0.74019 0.08722 0.97492 0.0
H780 H 0.83955 0.01224 0.97123 0.0
H781 H 0.81073 0.03755 0.99567 0.0
H782 H 0.72989 0.96704 0.77201 0.0
H783 H 0.77361 0.06555 0.99726 0.0
H784 H 0.62061 0.05926 0.82281 0.0
N785 N 0.70648 0.99641 0.82178 0.0
C786 C 0.68851 0.00996 0.81063 0.0
C787 C 0.71843 0.97954 0.78262 0.0
C788 C 0.6855 0.0096 0.78489 0.0
C789 C 0.72044 0.98022 0.80824 0.0
C790 C 0.70117 0.99461 0.77084 0.0
N791 N 0.6759 0.02341 0.84991 0.0
C792 C 0.65911 0.03421 0.86535 0.0
C793 C 0.65258 0.03657 0.81462 0.0
C794 C 0.67228 0.02335 0.82521 0.0
C795 C 0.63603 0.0489 0.83023 0.0
C796 C 0.63914 0.04744 0.85572 0.0
H797 H 0.69947 0.99381 0.75101 0.0
H798 H 0.66405 0.0237 0.75433 0.0
H799 H 0.63518 0.04727 0.78038 0.0
O800 O 0.68172 0.9846 0.88749 0.0
O801 O 0.70786 0.03999 0.85635 0.0
O802 O 0.74793 0.0482 0.84893 0.0
O803 O 0.69036 0.96733 0.85302 0.0
O804 O 0.70661 0.01419 0.90149 0.0
O805 O 0.72295 0.05323 0.89792 0.0
O806 O 0.79247 0.06907 0.88016 0.0
O807 O 0.75522 0.01243 0.90816 0.0
O808 O 0.73978 0.98289 0.88129 0.0
O809 O 0.7559 0.08486 0.88291 0.0
O810 O 0.76986 0.02571 0.85307 0.0
O811 O 0.74573 0.98997 0.85111 0.0
C812 C 0.72477 0.05081 0.8432 0.0
C813 C 0.67458 0.94192 0.88468 0.0
C814 C 0.64751 0.9111 0.90316 0.0
C815 C 0.66822 0.89581 0.90701 0.0
C816 C 0.69499 0.92657 0.88889 0.0
C817 C 0.69174 0.90355 0.89997 0.0
C818 C 0.65097 0.93422 0.89189 0.0
C819 C 0.70859 0.03716 0.90903 0.0
C820 C 0.67722 0.96615 0.87295 0.0
C821 C 0.66651 0.02358 0.7741 0.0
C822 C 0.65001 0.03695 0.78893 0.0
C823 C 0.7533 0.98941 0.90035 0.0
C824 C 0.78952 0.11208 0.88936 0.0
C825 C 0.81608 0.14809 0.88408 0.0
C826 C 0.80634 0.15803 0.90598 0.0
C827 C 0.78012 0.12247 0.91109 0.0
C828 C 0.80749 0.125 0.87584 0.0
C829 C 0.78858 0.14526 0.91935 0.0
C830 C 0.76531 1.00319 0.8448 0.0
C831 C 0.77922 0.08918 0.87909 0.0
H832 H 0.66625 0.87771 0.91521 0.0
H833 H 0.71332 0.93234 0.88358 0.0
H834 H 0.70749 0.89162 0.90306 0.0
H835 H 0.63536 0.94644 0.88897 0.0
H836 H 0.81204 0.17601 0.91254 0.0
H837 H 0.76582 0.11339 0.92137 0.0
H838 H 0.81454 0.1172 0.85884 0.0
H839 H 0.78102 0.15328 0.93598 0.0
Tb840 Tb 0.75358 0.95797 0.39536 0.0
C841 C 0.8032 0.03089 0.31782 0.0
N842 N 0.81203 0.01171 0.33139 0.0
C843 C 0.83572 0.99752 0.29678 0.0
C844 C 0.80961 0.03355 0.29283 0.0
C845 C 0.82918 0.99589 0.32158 0.0
C846 C 0.82565 0.01623 0.28224 0.0
C847 C 0.77973 0.0692 0.31606 0.0
C848 C 0.78865 0.04868 0.32934 0.0
C849 C 0.78554 0.07153 0.29101 0.0
C850 C 0.80045 0.05377 0.27943 0.0
Tb851 Tb 0.80031 0.01207 0.37172 0.0
N852 N 0.78314 0.04577 0.35356 0.0
C853 C 0.76509 0.08666 0.32836 0.0
C854 C 0.76925 0.06292 0.36576 0.0
C855 C 0.75986 0.0835 0.35333 0.0
H856 H 0.83825 0.98218 0.33284 0.0
H857 H 0.74872 0.09699 0.36304 0.0
H858 H 0.72006 0.98451 0.44075 0.0
H859 H 0.80971 0.87587 0.39459 0.0
H860 H 0.76561 0.06093 0.38506 0.0
H861 H 0.75779 0.10263 0.31879 0.0
H862 H 0.78656 0.91079 0.37598 0.0
H863 H 0.84889 0.9846 0.28901 0.0
H864 H 0.77876 0.08711 0.28046 0.0
H865 H 0.8051 0.05605 0.26019 0.0
H866 H 0.71881 0.98273 0.48576 0.0
H867 H 0.83101 0.01762 0.2631 0.0
H868 H 0.8117 0.87175 0.43991 0.0
N869 N 0.7493 0.95807 0.43728 0.0
C870 C 0.7626 0.94037 0.44917 0.0
C871 C 0.73157 0.97103 0.47573 0.0
C872 C 0.76165 0.93802 0.47497 0.0
C873 C 0.73283 0.9724 0.45009 0.0
C874 C 0.74634 0.95406 0.48827 0.0
N875 N 0.77677 0.92647 0.41049 0.0
C876 C 0.78762 0.90906 0.39575 0.0
C877 C 0.78909 0.90413 0.44671 0.0
C878 C 0.77623 0.92364 0.4353 0.0
C879 C 0.80158 0.88701 0.43184 0.0
C880 C 0.80058 0.88932 0.40623 0.0
H881 H 0.74507 0.95284 0.50812 0.0
H882 H 0.77499 0.91732 0.50639 0.0
H883 H 0.79898 0.88764 0.48165 0.0
O884 O 0.73713 0.9319 0.37151 0.0
O885 O 0.79329 0.95805 0.40238 0.0
O886 O 0.80208 0.99827 0.4094 0.0
O887 O 0.72215 0.93887 0.40728 0.0
O888 O 0.76734 0.95607 0.3576 0.0
O889 O 0.80589 0.97323 0.36145 0.0
O890 O 0.81919 0.0445 0.38142 0.0
O891 O 0.76454 0.0092 0.35157 0.0
O892 O 0.73625 0.98908 0.37712 0.0
O893 O 0.83909 0.01073 0.37441 0.0
O894 O 0.779 0.02059 0.40488 0.0
O895 O 0.74331 0.99642 0.4066 0.0
C896 C 0.80403 0.97507 0.41553 0.0
C897 C 0.69491 0.92202 0.37768 0.0
C898 C 0.66434 0.89365 0.36008 0.0
C899 C 0.64626 0.91214 0.36361 0.0
C900 C 0.67645 0.93991 0.38092 0.0
C901 C 0.65235 0.93504 0.37369 0.0
C902 C 0.68884 0.89897 0.36713 0.0
C903 C 0.78966 0.96004 0.34926 0.0
C904 C 0.72003 0.92614 0.38716 0.0
C905 C 0.77532 0.91926 0.48656 0.0
C906 C 0.78893 0.9023 0.47247 0.0
C907 C 0.74187 1.00208 0.35739 0.0
C908 C 0.86083 0.04862 0.3694 0.0
C909 C 0.8958 0.07666 0.37455 0.0
C910 C 0.89815 0.07775 0.34882 0.0
C911 C 0.86358 0.05021 0.34383 0.0
C912 C 0.87713 0.06178 0.38477 0.0
C913 C 0.8822 0.06458 0.33365 0.0
C914 C 0.75609 0.01667 0.41203 0.0
C915 C 0.84078 0.03401 0.38045 0.0
H916 H 0.62712 0.9088 0.35925 0.0
H917 H 0.68053 0.95743 0.38959 0.0
H918 H 0.63815 0.94888 0.37645 0.0
H919 H 0.70318 0.88518 0.36475 0.0
H920 H 0.91253 0.08867 0.34039 0.0
H921 H 0.85139 0.04048 0.33166 0.0
H922 H 0.87498 0.06083 0.40458 0.0
H923 H 0.88424 0.06558 0.31387 0.0
Tb924 Tb 0.30244 0.49641 0.64266 0.0
C925 C 0.23418 0.54518 0.56563 0.0
N926 N 0.25239 0.55578 0.57908 0.0
C927 C 0.26758 0.57588 0.54282 0.0
C928 C 0.23264 0.5486 0.53999 0.0
C929 C 0.26786 0.57241 0.56831 0.0
C930 C 0.2502 0.56352 0.52851 0.0
C931 C 0.1952 0.52343 0.56523 0.0
C932 C 0.21572 0.53276 0.57796 0.0
C933 C 0.19425 0.52556 0.53951 0.0
C934 C 0.21297 0.53808 0.5269 0.0
Tb935 Tb 0.2515 0.54752 0.62038 0.0
N936 N 0.21736 0.53095 0.60278 0.0
C937 C 0.1759 0.51311 0.57887 0.0
C938 C 0.1979 0.52264 0.61633 0.0
C939 C 0.17706 0.51316 0.60458 0.0
H940 H 0.28037 0.58325 0.5793 0.0
H941 H 0.16192 0.50596 0.61532 0.0
H942 H 0.27518 0.47276 0.69193 0.0
H943 H 0.38715 0.54766 0.63059 0.0
H944 H 0.19864 0.52314 0.63613 0.0
H945 H 0.15974 0.5058 0.5698 0.0
H946 H 0.34997 0.5266 0.61645 0.0
H947 H 0.28046 0.58846 0.53431 0.0
H948 H 0.17876 0.51829 0.5293 0.0
H949 H 0.21159 0.54032 0.50715 0.0
H950 H 0.28277 0.47157 0.73651 0.0
H951 H 0.24972 0.56659 0.50883 0.0
H952 H 0.39733 0.54877 0.67487 0.0
N953 N 0.30631 0.49531 0.68422 0.0
C954 C 0.32714 0.50581 0.69325 0.0
C955 C 0.29523 0.48151 0.72458 0.0
C956 C 0.33239 0.50523 0.71861 0.0
C957 C 0.29079 0.48254 0.69929 0.0
C958 C 0.31602 0.49304 0.73432 0.0
N959 N 0.33717 0.51798 0.65253 0.0
C960 C 0.3531 0.52807 0.63591 0.0
C961 C 0.3647 0.5287 0.68573 0.0
C962 C 0.34299 0.51756 0.67694 0.0
C963 C 0.38049 0.53997 0.66884 0.0
C964 C 0.37471 0.53954 0.64384 0.0
H965 H 0.31944 0.49212 0.75393 0.0
H966 H 0.35815 0.51641 0.74686 0.0
H967 H 0.38645 0.53689 0.71812 0.0
O968 O 0.33517 0.47577 0.63859 0.0
O969 O 0.2912 0.52752 0.66632 0.0
O970 O 0.2844 0.55999 0.63997 0.0
O971 O 0.30103 0.45767 0.64646 0.0
O972 O 0.30857 0.5144 0.60686 0.0
O973 O 0.29053 0.55325 0.61043 0.0
O974 O 0.22958 0.5653 0.64712 0.0
O975 O 0.24617 0.50859 0.60956 0.0
O976 O 0.28559 0.49369 0.60623 0.0
O977 O 0.23555 0.58203 0.61204 0.0
O978 O 0.24602 0.52667 0.65463 0.0
O979 O 0.26378 0.48754 0.65153 0.0
C980 C 0.29159 0.55123 0.66131 0.0
C981 C 0.33189 0.43447 0.62458 0.0
C982 C 0.36442 0.41079 0.60343 0.0
C983 C 0.34623 0.39496 0.59406 0.0
C984 C 0.31434 0.41791 0.61536 0.0
C985 C 0.32148 0.39849 0.60004 0.0
C986 C 0.35708 0.43057 0.61881 0.0
C987 C 0.30546 0.53744 0.59937 0.0
C988 C 0.32438 0.45467 0.64156 0.0
C989 C 0.35381 0.51663 0.72742 0.0
C990 C 0.36993 0.52829 0.71104 0.0
C991 C 0.26192 0.49169 0.60194 0.0
C992 C 0.22871 0.60874 0.64547 0.0
C993 C 0.21088 0.64679 0.66202 0.0
C994 C 0.23458 0.65437 0.66905 0.0
C995 C 0.25222 0.61678 0.65239 0.0
C996 C 0.20805 0.62391 0.65004 0.0
C997 C 0.25509 0.6395 0.66414 0.0
C998 C 0.24563 0.50257 0.65831 0.0
C999 C 0.22551 0.58461 0.63354 0.0
H1000 H 0.3512 0.37939 0.58251 0.0
H1001 H 0.29506 0.41981 0.62011 0.0
H1002 H 0.30777 0.38588 0.593 0.0
H1003 H 0.3709 0.44287 0.62626 0.0
H1004 H 0.23724 0.672 0.67809 0.0
H1005 H 0.26832 0.60551 0.64871 0.0
H1006 H 0.18984 0.61778 0.64464 0.0
H1007 H 0.27327 0.64561 0.66946 0.0
C1008 C 0.17252 0.29001 0.54472 0.0
C1009 C 0.17593 0.28456 0.5197 0.0
C1010 C 0.1833 0.3111 0.55507 0.0
C1011 C 0.23044 0.35984 0.54212 0.0
H1012 H 0.19276 0.39747 0.58981 0.0
C1013 C 0.26903 0.44963 0.58395 0.0
C1014 C 0.25256 0.46823 0.59147 0.0
C1015 C 0.26037 0.42664 0.57621 0.0
C1016 C 0.20343 0.38747 0.57621 0.0
H1017 H 0.19416 0.29622 0.48618 0.0
H1018 H 0.21206 0.33298 0.50372 0.0
H1019 H 0.1769 0.35841 0.57487 0.0
H1020 H 0.21394 0.47736 0.59585 0.0
H1021 H 0.19872 0.43824 0.5807 0.0
H1022 H 0.25605 0.3895 0.54195 0.0
C1023 C 0.20158 0.32102 0.51571 0.0
C1024 C 0.19452 0.36468 0.568 0.0
C1025 C 0.19108 0.29995 0.50552 0.0
C1026 C 0.22717 0.46358 0.59015 0.0
C1027 C 0.21844 0.4408 0.58184 0.0
C1028 C 0.23905 0.38282 0.54987 0.0
C1029 C 0.19766 0.32713 0.54056 0.0
C1030 C 0.20783 0.35061 0.5507 0.0
C1031 C 0.23492 0.42178 0.57512 0.0
C1032 C 0.22569 0.39708 0.567 0.0
H1033 H 0.16084 0.2785 0.55604 0.0
H1034 H 0.18014 0.31496 0.57436 0.0
H1035 H 0.24153 0.34942 0.52917 0.0
H1036 H 0.28872 0.45262 0.58453 0.0
H1037 H 0.27381 0.41256 0.57159 0.0
C1038 C 0.79032 0.96667 0.8304 0.0
C1039 C 0.78512 0.99206 0.82956 0.0
C1040 C 0.81314 0.95764 0.82215 0.0
C1041 C 0.8765 0.98129 0.80997 0.0
H1042 H 0.88848 0.91467 0.78655 0.0
C1043 C 0.96793 0.9469 0.76599 0.0
C1044 C 0.97711 0.92427 0.77463 0.0
C1045 C 0.94502 0.9557 0.774 0.0
C1046 C 0.88536 0.93327 0.79325 0.0
H1047 H 0.79789 0.02729 0.81568 0.0
H1048 H 0.83663 0.01148 0.79986 0.0
H1049 H 0.84631 0.92827 0.79482 0.0
H1050 H 0.96968 0.89299 0.79808 0.0
H1051 H 0.9295 0.90817 0.812 0.0
H1052 H 0.91557 0.98641 0.80748 0.0
C1053 C 0.82412 0.99865 0.80856 0.0
C1054 C 0.8612 0.94109 0.79806 0.0
C1055 C 0.80167 0.00768 0.81729 0.0
C1056 C 0.96343 0.9109 0.79194 0.0
C1057 C 0.94025 0.91937 0.79949 0.0
C1058 C 0.90055 0.97361 0.80472 0.0
C1059 C 0.83078 0.97377 0.81207 0.0
C1060 C 0.85641 0.96525 0.80645 0.0
C1061 C 0.93064 0.94162 0.79023 0.0
C1062 C 0.90521 0.94953 0.79638 0.0
H1063 H 0.77748 0.95401 0.83873 0.0
H1064 H 0.81734 0.93828 0.8249 0.0
H1065 H 0.8738 0.99978 0.8171 0.0
H1066 H 0.978 0.95722 0.75222 0.0
H1067 H 0.93796 0.97286 0.76649 0.0
C1068 C 0.33855 0.71625 0.03487 0.0
C1069 C 0.34072 0.71962 0.00939 0.0
C1070 C 0.32914 0.69414 0.04432 0.0
C1071 C 0.31951 0.62853 0.02537 0.0
H1072 H 0.28406 0.62462 0.08712 0.0
C1073 C 0.26955 0.54079 0.06162 0.0
C1074 C 0.27402 0.53481 0.08628 0.0
C1075 C 0.27883 0.56273 0.05169 0.0
C1076 C 0.2941 0.62546 0.06992 0.0
H1077 H 0.33344 0.7033 0.97379 0.0
H1078 H 0.31623 0.6653 0.99002 0.0
H1079 H 0.29576 0.66494 0.07094 0.0
H1080 H 0.29155 0.54662 0.11998 0.0
H1081 H 0.30737 0.58522 0.10286 0.0
H1082 H 0.3171 0.589 0.02414 0.0
C1083 C 0.32248 0.67917 1.00291 0.0
C1084 C 0.30089 0.64857 0.06065 0.0
C1085 C 0.33209 0.7011 0.99355 0.0
C1086 C 0.28838 0.55065 0.10074 0.0
C1087 C 0.29712 0.57284 0.09105 0.0
C1088 C 0.31236 0.6055 0.03445 0.0
C1089 C 0.32154 0.67501 0.02843 0.0
C1090 C 0.31376 0.65046 0.03824 0.0
C1091 C 0.29209 0.5793 0.06654 0.0
C1092 C 0.2997 0.60372 0.05686 0.0
H1093 H 0.34559 0.72993 0.04747 0.0
H1094 H 0.32899 0.69163 0.06407 0.0
H1095 H 0.32992 0.62904 0.00839 0.0
H1096 H 0.25815 0.52896 0.05032 0.0
H1097 H 0.27463 0.56732 0.03277 0.0
C1098 C 0.54379 0.08998 0.29166 0.0
C1099 C 0.53751 0.08522 0.26711 0.0
C1100 C 0.5662 0.08141 0.30119 0.0
C1101 C 0.62796 0.05901 0.28053 0.0
H1102 H 0.63382 0.03811 0.34835 0.0
C1103 C 0.72142 0.03125 0.32687 0.0
C1104 C 0.7202 0.01134 0.34336 0.0
C1105 C 0.69977 0.04127 0.31669 0.0
C1106 C 0.6325 0.04376 0.3293 0.0
H1107 H 0.54883 0.06641 0.23372 0.0
H1108 H 0.58724 0.05046 0.25059 0.0
H1109 H 0.59418 0.05208 0.33298 0.0
H1110 H 0.69532 0.98489 0.35996 0.0
H1111 H 0.6583 1.00172 0.34225 0.0
H1112 H 0.66622 0.04962 0.27672 0.0
C1113 C 0.57548 0.06163 0.2623 0.0
C1114 C 0.60977 0.05208 0.32056 0.0
C1115 C 0.55327 0.07043 0.25273 0.0
C1116 C 0.69707 1.0007 0.34803 0.0
C1117 C 0.67567 0.01048 0.33792 0.0
C1118 C 0.65072 0.05048 0.28926 0.0
C1119 C 0.58259 0.06757 0.28643 0.0
C1120 C 0.60708 0.05954 0.29598 0.0
C1121 C 0.67658 0.03132 0.32271 0.0
C1122 C 0.65314 0.04238 0.31365 0.0
H1123 H 0.53211 0.10149 0.30306 0.0
H1124 H 0.57107 0.08651 0.31982 0.0
H1125 H 0.62674 0.06512 0.26162 0.0
H1126 H 0.73885 0.03947 0.32234 0.0
H1127 H 0.70113 0.0572 0.30476 0.0
C1128 C 0.68673 0.20938 0.50435 0.0
C1129 C 0.67368 0.2262 0.48944 0.0
C1130 C 0.69467 0.18669 0.49501 0.0
C1131 C 0.71399 0.15257 0.44182 0.0
H1132 H 0.68881 0.09474 0.47561 0.0
C1133 C 0.75892 0.05647 0.43504 0.0
C1134 C 0.74407 0.03771 0.42502 0.0
C1135 C 0.7487 0.07895 0.44248 0.0
C1136 C 0.69579 0.11071 0.46592 0.0
H1137 H 0.66064 0.23318 0.45245 0.0
H1138 H 0.67591 0.19368 0.43567 0.0
H1139 H 0.67524 0.13621 0.48833 0.0
H1140 H 0.70645 0.02734 0.4168 0.0
H1141 H 0.68831 0.06657 0.43125 0.0
H1142 H 0.73547 0.12714 0.42023 0.0
C1143 C 0.67918 0.19801 0.45484 0.0
C1144 C 0.68815 0.13438 0.47322 0.0
C1145 C 0.67067 0.22066 0.46436 0.0
C1146 C 0.71838 0.04132 0.42452 0.0
C1147 C 0.70804 0.0638 0.43255 0.0
C1148 C 0.72205 0.12894 0.4349 0.0
C1149 C 0.69047 0.18051 0.47034 0.0
C1150 C 0.69732 0.15552 0.46135 0.0
C1151 C 0.72327 0.08307 0.4408 0.0
C1152 C 0.71315 0.10782 0.44699 0.0
H1153 H 0.68962 0.21315 0.52371 0.0
H1154 H 0.70369 0.1737 0.50723 0.0
H1155 H 0.72141 0.16857 0.43251 0.0
H1156 H 0.77875 0.05432 0.43599 0.0
H1157 H 0.76077 0.09336 0.44915 0.0
C1158 C 0.04131 0.42927 0.72379 0.0
C1159 C 0.04087 0.42126 0.7483 0.0
C1160 C 0.06269 0.43985 0.71389 0.0
C1161 C 0.12322 0.46693 0.73199 0.0
H1162 H 0.14336 0.44695 0.66647 0.0
C1163 C 0.20876 0.50789 0.68516 0.0
C1164 C 0.22354 0.49239 0.6705 0.0
C1165 C 0.18636 0.4996 0.69451 0.0
C1166 C 0.13811 0.45249 0.6849 0.0
H1167 H 0.06175 0.41977 0.78217 0.0
H1168 H 0.09898 0.43718 0.76505 0.0
H1169 H 0.10379 0.43323 0.68274 0.0
H1170 H 0.22663 0.45588 0.65441 0.0
H1171 H 0.18756 0.44104 0.67134 0.0
H1172 H 0.15782 0.48534 0.73461 0.0
C1173 C 0.083 0.43562 0.75326 0.0
C1174 C 0.11522 0.44497 0.69408 0.0
C1175 C 0.06169 0.4253 0.76306 0.0
C1176 C 0.21573 0.46813 0.6659 0.0
C1177 C 0.19319 0.45979 0.67529 0.0
C1178 C 0.1461 0.47427 0.72291 0.0
C1179 C 0.084 0.44266 0.72842 0.0
C1180 C 0.10754 0.45198 0.71782 0.0
C1181 C 0.17814 0.47552 0.68958 0.0
C1182 C 0.15389 0.46715 0.69926 0.0
H1183 H 0.02567 0.42637 0.71199 0.0
H1184 H 0.06264 0.44545 0.69478 0.0
H1185 H 0.11787 0.47297 0.75023 0.0
H1186 H 0.21423 0.52673 0.68898 0.0
H1187 H 0.17517 0.51237 0.70512 0.0
C1188 C 0.77112 0.96874 0.93812 0.0
C1189 C 0.76706 0.96922 0.91261 0.0
C1190 C 0.78172 0.94771 0.94913 0.0
C1191 C 0.82054 0.89344 0.93692 0.0
H1192 H 0.7797 0.85802 0.9833 0.0
C1193 C 0.84455 0.79312 0.96509 0.0
C1194 C 0.83983 0.78632 0.98952 0.0
C1195 C 0.83553 0.81562 0.95586 0.0
C1196 C 0.79169 0.86776 0.97075 0.0
H1197 H 0.77173 0.94864 0.87879 0.0
H1198 H 0.79123 0.91304 0.89753 0.0
H1199 H 0.76709 0.89891 0.96936 0.0
H1200 H 0.82085 0.79711 0.02303 0.0
H1201 H 0.80624 0.8363 0.00757 0.0
H1202 H 0.84543 0.86278 0.93845 0.0
C1203 C 0.78598 0.92851 0.90912 0.0
C1204 C 0.78438 0.89126 0.96281 0.0
C1205 C 0.77481 0.94897 0.89836 0.0
C1206 C 0.82495 0.80184 1.00411 0.0
C1207 C 0.81636 0.82439 0.99511 0.0
C1208 C 0.82814 0.87017 0.94521 0.0
C1209 C 0.78911 0.92739 0.93462 0.0
C1210 C 0.79859 0.90419 0.94563 0.0
C1211 C 0.82178 0.83188 0.97097 0.0
C1212 C 0.81369 0.8568 0.96206 0.0
H1213 H 0.76521 0.98405 0.94957 0.0
H1214 H 0.78394 0.9472 0.96892 0.0
H1215 H 0.83175 0.90304 0.92353 0.0
H1216 H 0.85596 0.78153 0.95342 0.0
H1217 H 0.83965 0.82036 0.93698 0.0
C1218 C 0.46731 0.58238 0.22687 0.0
C1219 C 0.46879 0.59067 0.25127 0.0
C1220 C 0.44527 0.57314 0.21741 0.0
C1221 C 0.383 0.55023 0.23562 0.0
H1222 H 0.36867 0.5636 0.16709 0.0
C1223 C 0.28978 0.52469 0.18806 0.0
C1224 C 0.29243 0.51314 0.16502 0.0
C1225 C 0.31027 0.53529 0.19976 0.0
C1226 C 0.37241 0.55964 0.18625 0.0
H1227 H 0.44792 0.59569 0.28499 0.0
H1228 H 0.40927 0.58045 0.26832 0.0
H1229 H 0.40638 0.57927 0.18515 0.0
H1230 H 0.31866 0.5045 0.13596 0.0
H1231 H 0.35385 0.5223 0.15633 0.0
H1232 H 0.34866 0.53073 0.23651 0.0
C1233 C 0.42537 0.58041 0.25656 0.0
C1234 C 0.39418 0.56849 0.19662 0.0
C1235 C 0.44759 0.5893 0.26612 0.0
C1236 C 0.31586 0.51277 0.15389 0.0
C1237 C 0.33611 0.52333 0.16543 0.0
C1238 C 0.36104 0.54153 0.22525 0.0
C1239 C 0.42384 0.57236 0.23198 0.0
C1240 C 0.40002 0.56362 0.22136 0.0
C1241 C 0.33365 0.53475 0.18847 0.0
C1242 C 0.3557 0.54582 0.20033 0.0
H1243 H 0.48311 0.5831 0.21496 0.0
H1244 H 0.44514 0.5666 0.19859 0.0
H1245 H 0.3869 0.54586 0.25465 0.0
H1246 H 0.27204 0.52525 0.19716 0.0
H1247 H 0.30779 0.5441 0.21749 0.0
C1248 C 0.51672 0.15549 0.31289 0.0
C1249 C 0.51565 0.16733 0.28988 0.0
C1250 C 0.52678 0.16715 0.33327 0.0
C1251 C 0.53953 0.22732 0.36034 0.0
H1252 H 0.58033 0.18843 0.40441 0.0
C1253 C 0.58649 0.26806 0.44698 0.0
C1254 C 0.58976 0.25274 0.46758 0.0
C1255 C 0.57662 0.25882 0.42516 0.0
C1256 C 0.56867 0.19947 0.39255 0.0
H1257 H 0.52447 0.20108 0.27045 0.0
H1258 H 0.54247 0.22173 0.30657 0.0
H1259 H 0.56704 0.17082 0.36551 0.0
H1260 H 0.58375 0.21611 0.48181 0.0
H1261 H 0.56546 0.19994 0.44417 0.0
H1262 H 0.54085 0.25587 0.38762 0.0
C1263 C 0.5353 0.20321 0.30851 0.0
C1264 C 0.56122 0.18944 0.37011 0.0
C1265 C 0.5252 0.19134 0.28781 0.0
C1266 C 0.58136 0.22835 0.46642 0.0
C1267 C 0.57127 0.21904 0.44461 0.0
C1268 C 0.54694 0.23738 0.3829 0.0
C1269 C 0.5362 0.19111 0.33144 0.0
C1270 C 0.54629 0.20309 0.35388 0.0
C1271 C 0.56946 0.23398 0.42345 0.0
C1272 C 0.56137 0.22345 0.39944 0.0
H1273 H 0.50956 0.13706 0.31544 0.0
H1274 H 0.52672 0.15745 0.35069 0.0
H1275 H 0.5278 0.23818 0.34836 0.0
H1276 H 0.59236 0.28712 0.44754 0.0
H1277 H 0.57565 0.27092 0.40934 0.0
C1278 C 0.09014 0.24682 0.56154 0.0
C1279 C 0.09367 0.26193 0.54079 0.0
C1280 C 0.08099 0.25659 0.58346 0.0
C1281 C 0.04571 0.30755 0.61048 0.0
H1282 H 0.08105 0.29011 0.67011 0.0
C1283 C 1.00535 0.32507 0.70642 0.0
C1284 C 0.0204 0.33748 0.72344 0.0
C1285 C 0.01509 0.31591 0.6845 0.0
C1286 C 0.07112 0.29526 0.6536 0.0
H1287 H 0.08891 0.29894 0.52665 0.0
H1288 H 0.07208 0.31605 0.56485 0.0
H1289 H 0.09557 0.27462 0.63032 0.0
H1290 H 0.05785 0.3485 0.7315 0.0
H1291 H 0.07517 0.33157 0.69323 0.0
H1292 H 0.02107 0.32791 0.6338 0.0
C1293 C 0.07683 0.29661 0.56408 0.0
C1294 C 0.07928 0.28625 0.63087 0.0
C1295 C 0.08631 0.2868 0.54211 0.0
C1296 C 0.04581 0.33902 0.71877 0.0
C1297 C 0.05567 0.32947 0.69684 0.0
C1298 C 0.03738 0.3163 0.63324 0.0
C1299 C 0.07474 0.2817 0.58516 0.0
C1300 C 0.06655 0.29216 0.60909 0.0
C1301 C 0.04022 0.31847 0.67921 0.0
C1302 C 0.04989 0.31009 0.65504 0.0
H1303 H 0.09504 0.22742 0.56105 0.0
H1304 H 0.07904 0.2445 0.59919 0.0
H1305 H 0.03549 0.31233 0.59403 0.0
H1306 H 0.98573 0.32323 0.70957 0.0
H1307 H 1.00284 0.30705 0.67151 0.0
C1308 C 0.98971 0.82002 0.78988 0.0
C1309 C 0.99976 0.84377 0.79247 0.0
C1310 C 0.97899 0.80814 0.81024 0.0
C1311 C 0.94839 0.82075 0.86862 0.0
H1312 H 0.97755 0.76067 0.89442 0.0
C1313 C 0.92538 0.78691 0.96649 0.0
C1314 C 0.92183 0.76144 0.96945 0.0
C1315 C 0.93541 0.79616 0.94461 0.0
C1316 C 0.9689 0.77725 0.88733 0.0
H1317 H 1.00586 0.87372 0.81854 0.0
H1318 H 0.98686 0.85347 0.85309 0.0
H1319 H 0.99139 0.77681 0.85478 0.0
H1320 H 0.92721 0.72558 0.95233 0.0
H1321 H 0.94417 0.74155 0.91434 0.0
H1322 H 0.92581 0.82137 0.90085 0.0
C1323 C 0.98743 0.8439 0.83558 0.0
C1324 C 0.97679 0.78638 0.86457 0.0
C1325 C 0.99851 0.85539 0.81566 0.0
C1326 C 0.92963 0.74536 0.95061 0.0
C1327 C 0.93953 0.75453 0.9288 0.0
C1328 C 0.94028 0.8115 0.89119 0.0
C1329 C 0.97767 0.82018 0.8332 0.0
C1330 C 0.96683 0.80838 0.85521 0.0
C1331 C 0.94207 0.78009 0.92524 0.0
C1332 C 0.95067 0.78982 0.90105 0.0
H1333 H 0.99051 0.8105 0.77237 0.0
H1334 H 0.97159 0.78973 0.80806 0.0
H1335 H 0.94048 0.83781 0.86176 0.0
H1336 H 0.91931 0.79975 0.98048 0.0
H1337 H 0.93749 0.81595 0.94271 0.0
C1338 C 0.46641 0.65837 0.21157 0.0
C1339 C 0.48751 0.66907 0.2219 0.0
C1340 C 0.45777 0.66627 0.18858 0.0
C1341 C 0.45906 0.71856 0.14559 0.0
H1342 H 0.44646 0.66974 0.09492 0.0
C1343 C 0.44137 0.74886 0.04625 0.0
C1344 C 0.42267 0.7368 0.03314 0.0
C1345 C 0.45004 0.73925 0.06843 0.0
C1346 C 0.44958 0.68362 0.10892 0.0
H1347 H 0.51583 0.69662 0.21683 0.0
H1348 H 0.50025 0.71108 0.17722 0.0
H1349 H 0.45839 0.65633 0.13619 0.0
H1350 H 0.39912 0.70472 0.03225 0.0
H1351 H 0.41406 0.68787 0.0713 0.0
H1352 H 0.44987 0.74587 0.1188 0.0
C1353 C 0.49045 0.69651 0.18667 0.0
C1354 C 0.45642 0.67591 0.13256 0.0
C1355 C 0.49935 0.68829 0.20933 0.0
C1356 C 0.41375 0.71419 0.04191 0.0
C1357 C 0.42229 0.70463 0.06433 0.0
C1358 C 0.45198 0.72625 0.12211 0.0
C1359 C 0.46982 0.68533 0.17584 0.0
C1360 C 0.46139 0.69332 0.15108 0.0
C1361 C 0.44006 0.71744 0.07823 0.0
C1362 C 0.44736 0.70892 0.10333 0.0
H1363 H 0.4573 0.64315 0.22069 0.0
H1364 H 0.44179 0.65738 0.18068 0.0
H1365 H 0.46251 0.73239 0.15957 0.0
H1366 H 0.44865 0.76629 0.03979 0.0
H1367 H 0.46422 0.74929 0.07817 0.0
C1368 C 0.14381 0.36528 0.34652 0.0
C1369 C 0.14507 0.33943 0.34855 0.0
C1370 C 0.15586 0.37749 0.32737 0.0
C1371 C 0.17552 0.3674 0.26391 0.0
H1372 H 0.20849 0.43032 0.27173 0.0
C1373 C 0.19308 0.43382 0.18247 0.0
C1374 C 0.21641 0.4448 0.18117 0.0
C1375 C 0.18617 0.42033 0.2033 0.0
C1376 C 0.19947 0.41269 0.26925 0.0
H1377 H 0.16065 0.30613 0.33273 0.0
H1378 H 0.18159 0.32749 0.29887 0.0
H1379 H 0.19497 0.40752 0.3081 0.0
H1380 H 0.25083 0.45033 0.20047 0.0
H1381 H 0.2387 0.42696 0.23699 0.0
H1382 H 0.17966 0.37274 0.22507 0.0
C1383 C 0.17125 0.33828 0.31216 0.0
C1384 C 0.19162 0.3997 0.29007 0.0
C1385 C 0.15946 0.32608 0.33161 0.0
C1386 C 0.23271 0.44203 0.20104 0.0
C1387 C 0.22571 0.4288 0.22198 0.0
C1388 C 0.18312 0.38052 0.2431 0.0
C1389 C 0.16919 0.3641 0.30958 0.0
C1390 C 0.17939 0.37698 0.28764 0.0
C1391 C 0.2024 0.41769 0.22332 0.0
C1392 C 0.19501 0.40341 0.24551 0.0
H1393 H 0.13289 0.37599 0.35941 0.0
H1394 H 0.15378 0.39734 0.32586 0.0
H1395 H 0.16593 0.35008 0.26139 0.0
H1396 H 0.18028 0.4355 0.16729 0.0
H1397 H 0.168 0.41218 0.20386 0.0
C1398 C 0.90622 0.88548 0.59576 0.0
C1399 C 0.93015 0.89424 0.5997 0.0
C1400 C 0.89071 0.89704 0.57878 0.0
C1401 C 0.88366 0.95231 0.53794 0.0
H1402 H 0.84623 0.90607 0.49851 0.0
C1403 C 0.81848 0.98304 0.45849 0.0
C1404 C 0.81847 0.96804 0.43741 0.0
C1405 C 0.8311 0.97552 0.47969 0.0
C1406 C 0.85668 0.91926 0.5092 0.0
H1407 H 0.95646 0.92242 0.58987 0.0
H1408 H 0.92967 0.94232 0.55948 0.0
H1409 H 0.86983 0.89109 0.53326 0.0
H1410 H 0.83256 0.93423 0.42134 0.0
H1411 H 0.85468 0.92111 0.45807 0.0
H1412 H 0.87123 0.98031 0.51291 0.0
C1413 C 0.92256 0.92687 0.56987 0.0
C1414 C 0.86995 0.91072 0.52948 0.0
C1415 C 0.93797 0.91548 0.58722 0.0
C1416 C 0.8319 0.94587 0.43755 0.0
C1417 C 0.84449 0.93835 0.45864 0.0
C1418 C 0.87045 0.96086 0.51747 0.0
C1419 C 0.89896 0.91732 0.56489 0.0
C1420 C 0.88377 0.92705 0.54409 0.0
C1421 C 0.84406 0.95293 0.48009 0.0
C1422 C 0.85705 0.94435 0.50267 0.0
H1423 H 0.8998 0.86918 0.60531 0.0
H1424 H 0.87245 0.88957 0.57604 0.0
H1425 H 0.89384 0.96551 0.54886 0.0
H1426 H 0.80819 1.00024 0.4588 0.0
H1427 H 0.83024 0.98712 0.4959 0.0
C1428 C 0.32163 0.57534 0.68586 0.0
C1429 C 0.29722 0.56843 0.68145 0.0
C1430 C 0.32787 0.5878 0.70748 0.0
C1431 C 0.30617 0.62821 0.75618 0.0
H1432 H 0.35294 0.59381 0.79791 0.0
C1433 C 0.32684 0.66 0.85605 0.0
C1434 C 0.35067 0.6562 0.86527 0.0
C1435 C 0.32029 0.65087 0.83285 0.0
C1436 C 0.34024 0.604 0.78636 0.0
H1437 H 0.25975 0.57054 0.69488 0.0
H1438 H 0.2704 0.59394 0.7322 0.0
H1439 H 0.34162 0.57615 0.75829 0.0
H1440 H 0.38653 0.64045 0.85767 0.0
H1441 H 0.3755 0.62492 0.81695 0.0
H1442 H 0.30522 0.65644 0.78377 0.0
C1443 C 0.28484 0.58898 0.71932 0.0
C1444 C 0.33365 0.59373 0.76371 0.0
C1445 C 0.27875 0.57571 0.69804 0.0
C1446 C 0.36804 0.64361 0.85082 0.0
C1447 C 0.36157 0.6345 0.82761 0.0
C1448 C 0.31309 0.63875 0.77868 0.0
C1449 C 0.30957 0.59443 0.72458 0.0
C1450 C 0.31655 0.60571 0.74843 0.0
C1451 C 0.33748 0.6377 0.81839 0.0
C1452 C 0.33023 0.62677 0.79415 0.0
H1453 H 0.33598 0.57043 0.67292 0.0
H1454 H 0.34704 0.59201 0.71101 0.0
H1455 H 0.29301 0.63783 0.74463 0.0
H1456 H 0.31316 0.66966 0.86701 0.0
H1457 H 0.30153 0.65354 0.82663 0.0
C1458 C 0.57639 0.10302 0.08084 0.0
C1459 C 0.58747 0.12013 0.0967 0.0
C1460 C 0.59041 0.09102 0.06268 0.0
C1461 C 0.64851 0.10024 0.02775 0.0
H1462 H 0.63353 0.03574 1.00082 0.0
C1463 C 0.68692 0.06961 0.93396 0.0
C1464 C 0.69441 0.04494 0.93101 0.0
C1465 C 0.6744 0.07713 0.95518 0.0
C1466 C 0.63817 0.05368 0.00828 0.0
H1467 H 0.62188 0.13693 0.1074 0.0
H1468 H 0.6466 0.11526 0.07666 0.0
H1469 H 0.61176 0.05031 0.03739 0.0
H1470 H 0.69414 0.00861 0.94771 0.0
H1471 H 0.67242 0.02173 0.9849 0.0
H1472 H 0.6753 0.10344 0.99916 0.0
C1473 C 0.62701 0.11168 0.07738 0.0
C1474 C 0.62544 0.06218 0.02912 0.0
C1475 C 0.61295 0.12392 0.09519 0.0
C1476 C 0.68855 0.02777 0.94947 0.0
C1477 C 0.67606 0.0353 0.97076 0.0
C1478 C 0.66132 0.0917 0.00712 0.0
C1479 C 0.61583 0.09574 0.06026 0.0
C1480 C 0.63027 0.08571 0.03901 0.0
C1481 C 0.66898 0.06014 0.974 0.0
C1482 C 0.65609 0.06848 0.99684 0.0
H1483 H 0.5567 0.09993 0.08164 0.0
H1484 H 0.58105 0.07903 0.04981 0.0
H1485 H 0.65258 0.11861 0.03445 0.0
H1486 H 0.69078 0.08314 0.91984 0.0
H1487 H 0.66877 0.09628 0.95671 0.0
C1488 C 0.65583 0.18781 0.67572 0.0
C1489 C 0.64166 0.17426 0.6589 0.0
C1490 C 0.66851 0.17571 0.69468 0.0
C1491 C 0.69137 0.11436 0.71516 0.0
H1492 H 0.68109 0.14069 0.78074 0.0
C1493 C 0.73349 0.06849 0.80172 0.0
C1494 C 0.71781 0.0665 0.82216 0.0
C1495 C 0.72653 0.08274 0.78142 0.0
C1496 C 0.68408 0.13306 0.76255 0.0
H1497 H 0.63073 0.13755 0.64768 0.0
H1498 H 0.65304 0.11636 0.68048 0.0
H1499 H 0.66577 0.16351 0.74522 0.0
H1500 H 0.68318 0.07854 0.83796 0.0
H1501 H 0.67065 0.10291 0.80234 0.0
H1502 H 0.70897 0.08351 0.73254 0.0
C1503 C 0.65432 0.13628 0.67924 0.0
C1504 C 0.67559 0.14631 0.74217 0.0
C1505 C 0.64141 0.14839 0.66056 0.0
C1506 C 0.69537 0.07944 0.82222 0.0
C1507 C 0.68838 0.09365 0.80195 0.0
C1508 C 0.69995 0.10115 0.73554 0.0
C1509 C 0.66755 0.14982 0.69686 0.0
C1510 C 0.67881 0.13694 0.71826 0.0
C1511 C 0.70384 0.09542 0.78126 0.0
C1512 C 0.69608 0.11017 0.75951 0.0
H1513 H 0.65626 0.2078 0.67482 0.0
H1514 H 0.67874 0.18661 0.70785 0.0
H1515 H 0.69429 0.10674 0.69695 0.0
H1516 H 0.75096 0.05873 0.80127 0.0
H1517 H 0.73899 0.08395 0.76591 0.0
C1518 C 0.19847 0.48506 0.0491 0.0
C1519 C 0.19703 0.46954 0.06967 0.0
C1520 C 0.18663 0.47867 0.0272 0.0
C1521 C 0.13767 0.43877 1.00139 0.0
H1522 H 0.17315 0.44905 0.9404 0.0
C1523 C 0.10536 0.39921 0.90744 0.0
C1524 C 0.10932 0.41375 0.88638 0.0
C1525 C 0.11451 0.40659 0.93036 0.0
C1526 C 0.1628 0.44636 0.95721 0.0
H1527 H 0.18126 0.43588 0.08405 0.0
H1528 H 0.16092 0.42437 0.04566 0.0
H1529 H 0.19207 0.46072 0.97918 0.0
H1530 H 0.12471 0.44821 0.8733 0.0
H1531 H 0.14051 0.4611 0.91314 0.0
H1532 H 0.10843 0.42422 0.97932 0.0
C1533 C 0.17107 0.44152 0.04637 0.0
C1534 C 0.17368 0.45306 0.97948 0.0
C1535 C 0.1829 0.44796 0.06827 0.0
C1536 C 0.12183 0.43627 0.889 0.0
C1537 C 0.13092 0.44366 0.91187 0.0
C1538 C 0.12675 0.43204 0.97906 0.0
C1539 C 0.17299 0.45669 0.02548 0.0
C1540 C 0.16124 0.44944 1.00185 0.0
C1541 C 0.12779 0.42872 0.93276 0.0
C1542 C 0.13916 0.43585 0.95666 0.0
H1543 H 0.20923 0.50185 0.04976 0.0
H1544 H 0.18816 0.49098 0.0116 0.0
H1545 H 0.12747 0.43595 0.01827 0.0
H1546 H 0.09594 0.38167 0.90607 0.0
H1547 H 0.11189 0.39454 0.94602 0.0
C1548 C 0.78602 0.95271 0.30418 0.0
C1549 C 0.79718 0.94691 0.32672 0.0
C1550 C 0.79281 0.94005 0.28272 0.0
C1551 C 0.81891 0.88105 0.26123 0.0
H1552 H 0.83553 0.91675 0.20177 0.0
C1553 C 0.84701 0.82975 0.17175 0.0
C1554 C 0.86856 0.83873 0.16059 0.0
C1555 C 0.83493 0.8436 0.19005 0.0
C1556 C 0.83088 0.90648 0.21819 0.0
H1557 H 0.82384 0.92344 0.34489 0.0
H1558 H 0.83521 0.9006 0.3075 0.0
H1559 H 0.82197 0.9395 0.23827 0.0
H1560 H 0.8932 0.87005 0.15862 0.0
H1561 H 0.87243 0.89395 0.19042 0.0
H1562 H 0.82828 0.84807 0.24143 0.0
C1563 C 0.82144 0.9151 0.30629 0.0
C1564 C 0.82296 0.91952 0.23905 0.0
C1565 C 0.81509 0.9282 0.32762 0.0
C1566 C 0.87685 0.86243 0.16709 0.0
C1567 C 0.86477 0.87626 0.1852 0.0
C1568 C 0.82659 0.86798 0.24031 0.0
C1569 C 0.81039 0.92088 0.28359 0.0
C1570 C 0.81731 0.90698 0.26094 0.0
C1571 C 0.844 0.86682 0.19737 0.0
C1572 C 0.83311 0.88055 0.21864 0.0
H1573 H 0.77223 0.96723 0.30316 0.0
H1574 H 0.78399 0.94493 0.26553 0.0
H1575 H 0.81438 0.87085 0.27774 0.0
H1576 H 0.84014 0.81157 0.16715 0.0
H1577 H 0.81877 0.83592 0.19881 0.0
C1578 C 0.33164 0.56759 0.57618 0.0
C1579 C 0.31879 0.54517 0.57703 0.0
C1580 C 0.34384 0.57476 0.55461 0.0
C1581 C 0.34122 0.56742 0.48801 0.0
H1582 H 0.40937 0.58859 0.48742 0.0
C1583 C 0.38805 0.58973 0.39638 0.0
C1584 C 0.40355 0.61036 0.39547 0.0
C1585 C 0.38056 0.57992 0.41892 0.0
C1586 C 0.39024 0.58302 0.48724 0.0
H1587 H 0.30829 0.51278 0.55624 0.0
H1588 H 0.32889 0.52563 0.51833 0.0
H1589 H 0.39008 0.57624 0.5262 0.0
H1590 H 0.4244 0.63625 0.41734 0.0
H1591 H 0.41091 0.61957 0.45696 0.0
H1592 H 0.34072 0.57493 0.44954 0.0
C1593 C 0.32991 0.53748 0.53436 0.0
C1594 C 0.37924 0.57589 0.50948 0.0
C1595 C 0.31826 0.53007 0.55604 0.0
C1596 C 0.41258 0.6202 0.41758 0.0
C1597 C 0.40478 0.61059 0.44027 0.0
C1598 C 0.35204 0.57486 0.46592 0.0
C1599 C 0.34286 0.55988 0.53339 0.0
C1600 C 0.35465 0.56789 0.51004 0.0
C1601 C 0.38796 0.59082 0.44124 0.0
C1602 C 0.37679 0.58261 0.46508 0.0
H1603 H 0.33229 0.57948 0.59221 0.0
H1604 H 0.35355 0.59218 0.55432 0.0
H1605 H 0.32212 0.5617 0.48794 0.0
H1606 H 0.38092 0.58177 0.37955 0.0
H1607 H 0.36832 0.5642 0.41875 0.0
C1608 C 0.19055 0.19481 0.42971 0.0
C1609 C 0.1894 0.21683 0.44329 0.0
C1610 C 0.21223 0.18803 0.41749 0.0
C1611 C 0.27062 0.21388 0.39365 0.0
H1612 H 0.29373 0.14608 0.39697 0.0
C1613 C 0.37001 0.18615 0.36834 0.0
C1614 C 0.37399 0.16369 0.35594 0.0
C1615 C 0.34662 0.19246 0.37713 0.0
C1616 C 0.28737 0.16502 0.39556 0.0
H1617 H 0.20972 0.24929 0.45453 0.0
H1618 H 0.24757 0.23752 0.4333 0.0
H1619 H 0.2545 0.15737 0.41593 0.0
H1620 H 0.35625 0.13035 0.3428 0.0
H1621 H 0.31529 0.14161 0.35777 0.0
H1622 H 0.3036 0.22163 0.37359 0.0
C1623 C 0.23173 0.22552 0.43183 0.0
C1624 C 0.26487 0.17149 0.40644 0.0
C1625 C 0.21008 0.23226 0.44403 0.0
C1626 C 0.35384 0.14787 0.35216 0.0
C1627 C 0.33041 0.15419 0.36097 0.0
C1628 C 0.2931 0.20743 0.38283 0.0
C1629 C 0.23311 0.20329 0.41846 0.0
C1630 C 0.25638 0.19607 0.40584 0.0
C1631 C 0.32655 0.17651 0.3737 0.0
C1632 C 0.3019 0.18299 0.3839 0.0
H1633 H 0.17469 0.1828 0.42864 0.0
H1634 H 0.21258 0.17092 0.40714 0.0
H1635 H 0.26439 0.23288 0.39243 0.0
H1636 H 0.385 0.19895 0.37125 0.0
H1637 H 0.34438 0.20968 0.38707 0.0
C1638 C 0.08227 0.12052 0.62383 0.0
C1639 C 0.10067 0.12217 0.60566 0.0
C1640 C 0.07457 0.09764 0.63273 0.0
C1641 C 0.09199 0.03009 0.63209 0.0
H1642 H 0.02958 0.0256 0.66602 0.0
C1643 C 0.06781 0.94203 0.68664 0.0
C1644 C 0.04381 0.93827 0.6952 0.0
C1645 C 0.07394 0.96356 0.67398 0.0
C1646 C 0.04685 0.02589 0.65616 0.0
H1647 H 0.12462 0.10015 0.58208 0.0
H1648 H 0.10941 0.06066 0.59553 0.0
H1649 H 0.0402 0.06316 0.64574 0.0
H1650 H 0.00648 0.95258 0.69428 0.0
H1651 H 0.01616 0.9883 0.66967 0.0
H1652 H 0.09754 0.99213 0.64002 0.0
C1653 C 0.10183 0.07705 0.60411 0.0
C1654 C 0.05337 0.04813 0.64494 0.0
C1655 C 0.11023 0.1 0.59586 0.0
C1656 C 0.0254 0.95527 0.68857 0.0
C1657 C 0.0312 0.97621 0.67473 0.0
C1658 C 0.08498 0.00749 0.64229 0.0
C1659 C 0.08419 0.07542 0.62309 0.0
C1660 C 0.07634 0.05089 0.63325 0.0
C1661 C 0.05579 0.9813 0.66789 0.0
C1662 C 0.06251 1.00503 0.65512 0.0
H1663 H 0.07376 0.13692 0.63149 0.0
H1664 H 0.06136 0.09768 0.64761 0.0
H1665 H 0.11002 0.03111 0.6237 0.0
H1666 H 0.08209 0.92852 0.69014 0.0
H1667 H 0.09316 0.96617 0.66962 0.0
C1668 C 0.14892 0.82694 0.86704 0.0
C1669 C 0.14361 0.85069 0.85801 0.0
C1670 C 0.17248 0.82104 0.87564 0.0
C1671 C 0.22857 0.84889 0.90117 0.0
H1672 H 0.2575 0.78499 0.88618 0.0
C1673 C 0.32571 0.82035 0.93603 0.0
C1674 C 0.32838 0.7959 0.94427 0.0
C1675 C 0.3042 0.82787 0.92388 0.0
C1676 C 0.24961 0.80282 0.89079 0.0
H1677 H 0.15901 0.88682 0.85071 0.0
H1678 H 0.20029 0.87647 0.8658 0.0
H1679 H 0.21817 0.79656 0.86793 0.0
H1680 H 0.31096 0.76004 0.94585 0.0
H1681 H 0.27346 0.77306 0.92496 0.0
H1682 H 0.25973 0.85494 0.92451 0.0
C1683 C 0.18612 0.86247 0.86631 0.0
C1684 C 0.22706 0.80947 0.88025 0.0
C1685 C 0.16254 0.86833 0.85749 0.0
C1686 C 0.30943 0.779 0.93963 0.0
C1687 C 0.28796 0.78647 0.92755 0.0
C1688 C 0.25109 0.84217 0.91187 0.0
C1689 C 0.19133 0.83875 0.87555 0.0
C1690 C 0.21611 0.83246 0.88553 0.0
C1691 C 0.28498 0.81102 0.91954 0.0
C1692 C 0.26177 0.8189 0.90706 0.0
H1693 H 0.13484 0.81285 0.86741 0.0
H1694 H 0.17579 0.80267 0.88282 0.0
H1695 H 0.22051 0.86665 0.90581 0.0
H1696 H 0.34023 0.83366 0.93906 0.0
H1697 H 0.30273 0.84681 0.91767 0.0
C1698 C 0.44594 0.07127 0.18284 0.0
C1699 C 0.46984 0.07403 0.19226 0.0
C1700 C 0.43942 0.04985 0.17015 0.0
C1701 C 0.45519 1.00502 0.12815 0.0
H1702 H 0.41558 0.95701 0.16299 0.0
C1703 C 0.41666 0.91873 0.0785 0.0
C1704 C 0.39222 0.91251 0.08439 0.0
C1705 C 0.42961 0.93584 0.09287 0.0
C1706 C 0.42645 0.97027 0.15286 0.0
H1707 H 0.5062 0.05729 0.19429 0.0
H1708 H 0.49492 0.02016 0.17096 0.0
H1709 H 0.43105 0.99321 0.18474 0.0
H1710 H 0.36293 0.91819 0.11099 0.0
H1711 H 0.38475 0.94855 0.13509 0.0
H1712 H 0.44945 0.9832 0.09588 0.0
C1713 C 0.48115 0.03435 0.17423 0.0
C1714 C 0.43545 0.99083 0.16543 0.0
C1715 C 0.48754 0.05557 0.18745 0.0
C1716 C 0.38152 0.92293 0.10557 0.0
C1717 C 0.39428 0.94012 0.1197 0.0
C1718 C 0.44583 0.98464 0.1154 0.0
C1719 C 0.45694 0.03124 0.16588 0.0
C1720 C 0.44959 0.00847 0.15308 0.0
C1721 C 0.41838 0.94716 0.1134 0.0
C1722 C 0.43089 0.96721 0.12748 0.0
H1723 H 0.43224 0.08562 0.18535 0.0
H1724 H 0.42068 0.04783 0.16362 0.0
H1725 H 0.46601 0.01859 0.11834 0.0
H1726 H 0.42549 0.9111 0.0623 0.0
H1727 H 0.44828 0.94044 0.08765 0.0
C1728 C 0.84755 0.37338 0.65089 0.0
C1729 C 0.84858 0.36902 0.67627 0.0
C1730 C 0.83011 0.36144 0.63631 0.0
C1731 C 0.7829 0.31148 0.63549 0.0
H1732 H 0.75192 0.35466 0.58762 0.0
C1733 C 0.70595 0.2795 0.5681 0.0
C1734 C 0.68619 0.29605 0.56484 0.0
C1735 C 0.72687 0.28664 0.58134 0.0
C1736 C 0.76029 0.34238 0.60098 0.0
H1737 H 0.83306 0.34809 0.70633 0.0
H1738 H 0.80188 0.32761 0.681 0.0
H1739 H 0.7868 0.36943 0.61125 0.0
H1740 H 0.67212 0.33235 0.57413 0.0
H1741 H 0.70873 0.3451 0.59663 0.0
H1742 H 0.75558 0.28474 0.62559 0.0
C1743 C 0.81486 0.33987 0.67218 0.0
C1744 C 0.78057 0.35072 0.61433 0.0
C1745 C 0.83263 0.35161 0.68673 0.0
C1746 C 0.6874 0.31952 0.57569 0.0
C1747 C 0.70835 0.32677 0.58864 0.0
C1748 C 0.76253 0.30312 0.62208 0.0
C1749 C 0.81294 0.34519 0.64687 0.0
C1750 C 0.79209 0.33547 0.63189 0.0
C1751 C 0.72841 0.31049 0.59149 0.0
C1752 C 0.75083 0.31862 0.60489 0.0
H1753 H 0.85986 0.38658 0.64244 0.0
H1754 H 0.82968 0.36548 0.61682 0.0
H1755 H 0.79141 0.29915 0.64869 0.0
H1756 H 0.70548 0.26121 0.56 0.0
H1757 H 0.74204 0.2737 0.58315 0.0
C1758 C 0.98292 0.45531 0.81303 0.0
C1759 C 0.96805 0.43429 0.81499 0.0
C1760 C 0.97577 0.47754 0.82413 0.0
C1761 C 0.93706 0.50394 0.87343 0.0
H1762 H 0.94254 0.56421 0.83545 0.0
C1763 C 0.89798 0.59895 0.90653 0.0
C1764 C 0.91178 0.62017 0.90084 0.0
C1765 C 0.90494 0.57569 0.89735 0.0
C1766 C 0.94118 0.54764 0.84648 0.0
H1767 H 0.93452 0.41959 0.83058 0.0
H1768 H 0.92213 0.45846 0.8505 0.0
H1769 H 0.95439 0.52492 0.81697 0.0
H1770 H 0.94477 0.63292 0.88227 0.0
H1771 H 0.95658 0.59276 0.86614 0.0
H1772 H 0.92401 0.52675 0.90304 0.0
C1773 C 0.93921 0.45782 0.84021 0.0
C1774 C 0.94795 0.52508 0.83583 0.0
C1775 C 0.9462 0.43565 0.82876 0.0
C1776 C 0.9332 0.61726 0.88648 0.0
C1777 C 0.94004 0.59412 0.87722 0.0
C1778 C 0.93038 0.52658 0.88416 0.0
C1779 C 0.95381 0.4791 0.83781 0.0
C1780 C 0.9461 0.50297 0.84919 0.0
C1781 C 0.92581 0.57307 0.88215 0.0
C1782 C 0.93249 0.54876 0.87086 0.0
H1783 H 0.99983 0.45469 0.80242 0.0
H1784 H 0.98754 0.49351 0.82212 0.0
H1785 H 0.93563 0.48724 0.88428 0.0
H1786 H 0.88131 0.60036 0.9174 0.0
H1787 H 0.89349 0.55991 0.90148 0.0
C1788 C 0.80479 0.73178 0.0686 0.0
C1789 C 0.82409 0.71488 0.06465 0.0
C1790 C 0.78391 0.72487 0.08191 0.0
C1791 C 0.76127 0.67605 0.12496 0.0
H1792 H 0.6984 0.70792 0.11234 0.0
C1793 C 0.67174 0.64914 0.17586 0.0
C1794 C 0.66154 0.66914 0.18889 0.0
C1795 C 0.68968 0.65321 0.15782 0.0
C1796 C 0.71585 0.69879 0.11592 0.0
H1797 H 0.83721 0.67795 0.07249 0.0
H1798 H 0.80012 0.66507 0.09382 0.0
H1799 H 0.73367 0.7173 0.08623 0.0
H1800 H 0.66088 0.70892 0.19266 0.0
H1801 H 0.6917 0.71613 0.16053 0.0
H1802 H 0.74298 0.65708 0.15427 0.0
C1803 C 0.80112 0.68392 0.08732 0.0
C1804 C 0.73619 0.70434 0.10116 0.0
C1805 C 0.82229 0.69111 0.07464 0.0
C1806 C 0.66856 0.69327 0.18279 0.0
C1807 C 0.68606 0.69737 0.16442 0.0
C1808 C 0.74078 0.67008 0.13929 0.0
C1809 C 0.78161 0.70073 0.09129 0.0
C1810 C 0.75938 0.69344 0.10578 0.0
C1811 C 0.69721 0.67735 0.15221 0.0
C1812 C 0.71802 0.68173 0.13518 0.0
H1813 H 0.80575 0.75036 0.0613 0.0
H1814 H 0.76977 0.73868 0.08506 0.0
H1815 H 0.77874 0.66754 0.12959 0.0
H1816 H 0.66661 0.63037 0.18038 0.0
H1817 H 0.69801 0.6375 0.14858 0.0
C1818 C 0.57821 0.395 0.38656 0.0
C1819 C 0.59922 0.39211 0.40138 0.0
C1820 C 0.57152 0.41821 0.37745 0.0
C1821 C 0.5824 0.48582 0.38467 0.0
H1822 H 0.55793 0.48763 0.3177 0.0
C1823 C 0.56832 0.57639 0.32812 0.0
C1824 C 0.5457 0.57813 0.31574 0.0
C1825 C 0.57529 0.55421 0.33952 0.0
C1826 C 0.5646 0.48741 0.33647 0.0
H1827 H 0.62931 0.41171 0.4188 0.0
H1828 H 0.61774 0.45218 0.40279 0.0
H1829 H 0.56881 0.44818 0.33622 0.0
H1830 H 0.51262 0.55844 0.30553 0.0
H1831 H 0.52489 0.51972 0.32502 0.0
H1832 H 0.57849 0.52532 0.38452 0.0
C1833 C 0.60625 0.4365 0.39837 0.0
C1834 C 0.57072 0.46477 0.34718 0.0
C1835 C 0.61291 0.41324 0.40757 0.0
C1836 C 0.53015 0.55752 0.31501 0.0
C1837 C 0.53725 0.53534 0.32601 0.0
C1838 C 0.57646 0.50855 0.37383 0.0
C1839 C 0.58571 0.43922 0.38282 0.0
C1840 C 0.57949 0.46359 0.37151 0.0
C1841 C 0.55989 0.5334 0.33836 0.0
C1842 C 0.5673 0.50954 0.34968 0.0
H1843 H 0.56691 0.37925 0.38189 0.0
H1844 H 0.55519 0.41964 0.3661 0.0
H1845 H 0.58883 0.48565 0.40351 0.0
H1846 H 0.58048 0.59217 0.32903 0.0
H1847 H 0.59289 0.55318 0.34884 0.0
C1848 C 0.36334 0.36203 0.18346 0.0
C1849 C 0.35568 0.36759 0.15941 0.0
C1850 C 0.37249 0.33858 0.18928 0.0
C1851 C 0.40212 0.28395 0.16156 0.0
H1852 H 0.38472 0.25283 0.22331 0.0
C1853 C 0.43806 0.18652 0.18818 0.0
C1854 C 0.44551 0.1833 0.21269 0.0
C1855 C 0.42564 0.20807 0.18097 0.0
C1856 C 0.38999 0.26135 0.2061 0.0
H1857 H 0.35132 0.35276 0.12264 0.0
H1858 H 0.3674 0.31165 0.13281 0.0
H1859 H 0.36561 0.292 0.212 0.0
H1860 H 0.4452 0.19978 0.24904 0.0
H1861 H 0.42369 0.23726 0.23658 0.0
H1862 H 0.42689 0.25355 0.15588 0.0
C1863 C 0.36641 0.32555 0.14713 0.0
C1864 C 0.37897 0.2838 0.19959 0.0
C1865 C 0.35701 0.349 0.14136 0.0
C1866 C 0.43966 0.2017 0.23 0.0
C1867 C 0.42724 0.22319 0.22285 0.0
C1868 C 0.41325 0.26152 0.16813 0.0
C1869 C 0.37436 0.32011 0.17116 0.0
C1870 C 0.38506 0.2955 0.17736 0.0
C1871 C 0.42018 0.22675 0.19821 0.0
C1872 C 0.4075 0.25003 0.1906 0.0
H1873 H 0.36227 0.37587 0.19783 0.0
H1874 H 0.37863 0.3351 0.20791 0.0
H1875 H 0.40746 0.29262 0.14444 0.0
H1876 H 0.44195 0.17243 0.17453 0.0
H1877 H 0.42015 0.20999 0.16193 0.0
C1878 C 0.94115 0.30392 0.77662 0.0
C1879 C 0.94625 0.3228 0.7936 0.0
C1880 C 0.92722 0.28336 0.78364 0.0
C1881 C 0.88505 0.26227 0.83391 0.0
H1882 H 0.89825 0.19699 0.80732 0.0
C1883 C 0.85303 0.17546 0.88245 0.0
C1884 C 0.83449 0.16257 0.86986 0.0
C1885 C 0.86772 0.19254 0.87021 0.0
C1886 C 0.89435 0.21519 0.8147 0.0
H1887 H 0.93965 0.3356 0.83071 0.0
H1888 H 0.9176 0.29919 0.84369 0.0
H1889 H 0.92162 0.23252 0.79213 0.0
H1890 H 0.81821 0.15611 0.83399 0.0
H1891 H 0.84452 0.18595 0.8124 0.0
H1892 H 0.85878 0.24468 0.85734 0.0
C1893 C 0.92354 0.30023 0.82472 0.0
C1894 C 0.9076 0.2356 0.80598 0.0
C1895 C 0.93678 0.32097 0.81748 0.0
C1896 C 0.83235 0.16572 0.84422 0.0
C1897 C 0.84732 0.18278 0.83187 0.0
C1898 C 0.87232 0.24192 0.84292 0.0
C1899 C 0.91829 0.28117 0.80788 0.0
C1900 C 0.90338 0.25941 0.81578 0.0
C1901 C 0.8645 0.1969 0.84502 0.0
C1902 C 0.87703 0.2182 0.83364 0.0
H1903 H 0.94806 0.30494 0.75796 0.0
H1904 H 0.92329 0.26938 0.76998 0.0
H1905 H 0.8805 0.28027 0.84138 0.0
H1906 H 0.85555 0.17304 0.90206 0.0
H1907 H 0.88103 0.20309 0.88065 0.0
C1908 C 0.08812 0.57837 0.09594 0.0
C1909 C 0.09892 0.58768 0.11751 0.0
C1910 C 0.07 0.59209 0.08349 0.0
C1911 C 0.04251 0.65492 0.07758 0.0
H1912 H 0.98223 0.61982 0.06268 0.0
C1913 C 0.95713 0.70016 0.0305 0.0
C1914 C 0.93462 0.69591 0.04242 0.0
C1915 C 0.97841 0.6874 0.03776 0.0
C1916 C 0.99897 0.62984 0.06672 0.0
H1917 H 0.10047 0.6193 0.14193 0.0
H1918 H 0.06907 0.64311 0.12035 0.0
H1919 H 0.01825 0.59694 0.07737 0.0
H1920 H 0.91628 0.67502 0.07086 0.0
H1921 H 0.95336 0.65195 0.08307 0.0
H1922 H 0.02298 0.68789 0.06727 0.0
C1923 C 0.07439 0.62525 0.11303 0.0
C1924 C 0.01968 0.61672 0.07488 0.0
C1925 C 0.09226 0.6115 0.12553 0.0
C1926 C 0.93354 0.67858 0.06152 0.0
C1927 C 0.95467 0.66536 0.06836 0.0
C1928 C 0.02187 0.668 0.06912 0.0
C1929 C 0.0626 0.61551 0.0922 0.0
C1930 C 0.04158 0.62914 0.08083 0.0
C1931 C 0.97734 0.66965 0.05658 0.0
C1932 C 0.99975 0.65565 0.06403 0.0
H1933 H 0.09287 0.56008 0.0893 0.0
H1934 H 0.06144 0.58419 0.06732 0.0
H1935 H 0.05914 0.66502 0.08186 0.0
H1936 H 0.95828 0.71359 0.01579 0.0
H1937 H 0.99561 0.69107 0.02837 0.0
C1938 C 0.66829 0.84677 0.35829 0.0
C1939 C 0.65704 0.86884 0.35008 0.0
C1940 C 0.6593 0.82361 0.35085 0.0
C1941 C 0.60142 0.79504 0.33292 0.0
H1942 H 0.63974 0.74073 0.30597 0.0
C1943 C 0.55346 0.71125 0.29047 0.0
C1944 C 0.56316 0.68749 0.29449 0.0
C1945 C 0.56658 0.73227 0.2973 0.0
C1946 C 0.62882 0.75557 0.31383 0.0
H1947 H 0.62871 0.88328 0.32571 0.0
H1948 H 0.61256 0.84324 0.31388 0.0
H1949 H 0.6603 0.77933 0.31763 0.0
H1950 H 0.59456 0.66722 0.30864 0.0
H1951 H 0.61789 0.70414 0.32032 0.0
H1952 H 0.57008 0.77157 0.32976 0.0
C1953 C 0.62818 0.8439 0.32626 0.0
C1954 C 0.64062 0.77769 0.32042 0.0
C1955 C 0.63739 0.86692 0.33326 0.0
C1956 C 0.58671 0.68528 0.30501 0.0
C1957 C 0.60003 0.70646 0.31176 0.0
C1958 C 0.58974 0.77297 0.32667 0.0
C1959 C 0.63866 0.82199 0.33534 0.0
C1960 C 0.62692 0.79781 0.32962 0.0
C1961 C 0.58993 0.73026 0.30835 0.0
C1962 C 0.60312 0.75306 0.31655 0.0
H1963 H 0.68337 0.84728 0.37129 0.0
H1964 H 0.66778 0.807 0.35811 0.0
H1965 H 0.59044 0.81003 0.34043 0.0
H1966 H 0.53551 0.7137 0.28209 0.0
H1967 H 0.55835 0.75018 0.29379 0.0
C1968 C 0.55812 0.32391 0.52765 0.0
C1969 C 0.57678 0.31848 0.54471 0.0
C1970 C 0.53671 0.33644 0.53494 0.0
C1971 C 0.49909 0.35212 0.59005 0.0
H1972 H 0.4678 0.39808 0.54511 0.0
C1973 C 0.40905 0.40519 0.61576 0.0
C1974 C 0.39084 0.40579 0.59736 0.0
C1975 C 0.43313 0.39722 0.61028 0.0
C1976 C 0.47617 0.38519 0.55786 0.0
H1977 H 0.5881 0.32297 0.58262 0.0
H1978 H 0.5507 0.3449 0.59546 0.0
H1979 H 0.50685 0.37886 0.53389 0.0
H1980 H 0.3841 0.39978 0.55855 0.0
H1981 H 0.42568 0.38584 0.54905 0.0
H1982 H 0.46819 0.35834 0.61391 0.0
C1983 C 0.55234 0.33899 0.5765 0.0
C1984 C 0.49862 0.37409 0.55139 0.0
C1985 C 0.57381 0.32645 0.56916 0.0
C1986 C 0.39759 0.39932 0.57321 0.0
C1987 C 0.42157 0.3915 0.56772 0.0
C1988 C 0.47661 0.36328 0.59656 0.0
C1989 C 0.53343 0.3441 0.5595 0.0
C1990 C 0.51024 0.3571 0.5672 0.0
C1991 C 0.43961 0.38991 0.58622 0.0
C1992 C 0.46464 0.37969 0.58037 0.0
H1993 H 0.55981 0.31798 0.50868 0.0
H1994 H 0.52248 0.33966 0.52136 0.0
H1995 H 0.5073 0.33896 0.60263 0.0
H1996 H 0.40445 0.40994 0.63457 0.0
H1997 H 0.4466 0.39653 0.62494 0.0
C1998 C 0.18568 0.67196 0.69133 0.0
C1999 C 0.18945 0.66306 0.66734 0.0
C2000 C 0.16752 0.68971 0.69612 0.0
C2001 C 0.13703 0.74163 0.66716 0.0
H2002 H 0.09358 0.73972 0.72371 0.0
C2003 C 0.07355 0.82455 0.69126 0.0
C2004 C 0.0686 0.82919 0.7162 0.0
C2005 C 0.08569 0.80285 0.68401 0.0
C2006 C 0.10582 0.74081 0.70803 0.0
H2007 H 0.17669 0.66501 0.62968 0.0
H2008 H 0.14508 0.69664 0.63798 0.0
H2009 H 0.11873 0.70371 0.71358 0.0
H2010 H 0.07364 0.81519 0.75321 0.0
H2011 H 0.09612 0.77839 0.74087 0.0
H2012 H 0.12544 0.77904 0.66227 0.0
C2013 C 0.15616 0.68971 0.65306 0.0
C2014 C 0.12005 0.72001 0.70211 0.0
C2015 C 0.17408 0.67156 0.64834 0.0
C2016 C 0.07696 0.81212 0.7338 0.0
C2017 C 0.08956 0.79072 0.72663 0.0
C2018 C 0.12316 0.76261 0.67333 0.0
C2019 C 0.153 0.69924 0.67695 0.0
C2020 C 0.136 0.72029 0.68178 0.0
C2021 C 0.09393 0.78557 0.7016 0.0
C2022 C 0.10757 0.76266 0.69407 0.0
H2023 H 0.19723 0.6656 0.70629 0.0
H2024 H 0.16562 0.69681 0.71466 0.0
H2025 H 0.1494 0.74248 0.65155 0.0
H2026 H 0.06786 0.83762 0.67729 0.0
H2027 H 0.0884 0.7996 0.66456 0.0
C2028 C 0.46052 0.81332 0.98122 0.0
C2029 C 0.43953 0.81431 0.96622 0.0
C2030 C 0.48195 0.82578 0.97443 0.0
C2031 C 0.51344 0.85291 0.92046 0.0
H2032 H 0.55401 0.88374 0.97036 0.0
C2033 C 0.60171 0.9075 0.89599 0.0
C2034 C 0.62247 0.90285 0.91082 0.0
C2035 C 0.57843 0.8988 0.90282 0.0
C2036 C 0.54299 0.87509 0.95621 0.0
H2037 H 0.42398 0.82979 0.93299 0.0
H2038 H 0.46137 0.85176 0.92109 0.0
H2039 H 0.51526 0.86456 0.98207 0.0
H2040 H 0.63465 0.88621 0.94501 0.0
H2041 H 0.59434 0.87061 0.95658 0.0
H2042 H 0.54129 0.86335 0.89462 0.0
C2043 C 0.46153 0.84097 0.93784 0.0
C2044 C 0.52076 0.86404 0.96293 0.0
C2045 C 0.4401 0.82846 0.94464 0.0
C2046 C 0.6192 0.88979 0.93291 0.0
C2047 C 0.59598 0.88112 0.93973 0.0
C2048 C 0.53566 0.86404 0.91372 0.0
C2049 C 0.48278 0.8397 0.9526 0.0
C2050 C 0.50584 0.85254 0.9452 0.0
C2051 C 0.57532 0.88531 0.92469 0.0
C2052 C 0.55087 0.87498 0.93156 0.0
H2053 H 0.46058 0.8024 0.9979 0.0
H2054 H 0.49805 0.82405 0.98606 0.0
H2055 H 0.50258 0.84397 0.90636 0.0
H2056 H 0.60351 0.91739 0.87879 0.0
H2057 H 0.56286 0.90262 0.89095 0.0
C2058 C 0.91815 0.11591 0.38416 0.0
C2059 C 0.91301 0.09121 0.39017 0.0
C2060 C 0.9365 0.12895 0.39657 0.0
C2061 C 0.99452 0.11872 0.42932 0.0
H2062 H 0.98889 0.18847 0.44498 0.0
C2063 C 0.07895 0.18214 0.44376 0.0
C2064 C 0.07847 0.19736 0.46465 0.0
C2065 C 0.05796 0.16888 0.43687 0.0
C2066 C 0.99069 0.16896 0.44085 0.0
H2067 H 0.92244 0.06117 0.41475 0.0
H2068 H 0.95476 0.08402 0.43652 0.0
H2069 H 0.95269 0.1659 0.43058 0.0
H2070 H 0.05589 0.21119 0.49449 0.0
H2071 H 0.01879 0.18867 0.48194 0.0
H2072 H 0.03267 0.12197 0.43908 0.0
C2073 C 0.94459 0.09319 0.42201 0.0
C2074 C 0.97001 0.15605 0.43249 0.0
C2075 C 0.92596 0.08018 0.40971 0.0
C2076 C 0.05662 0.19945 0.47834 0.0
C2077 C 0.03545 0.18667 0.47112 0.0
C2078 C 0.01527 0.13171 0.43736 0.0
C2079 C 0.95037 0.11761 0.41526 0.0
C2080 C 0.97172 0.13082 0.42638 0.0
C2081 C 0.03596 0.17103 0.45045 0.0
C2082 C 0.01365 0.15702 0.44297 0.0
H2083 H 0.90832 0.125 0.36936 0.0
H2084 H 0.94053 0.14763 0.39076 0.0
H2085 H 0.99656 0.09938 0.42459 0.0
H2086 H 0.09567 0.1802 0.43303 0.0
H2087 H 0.05884 0.15713 0.42076 0.0
loop_
_geom_bond_atom_site_label_1
_geom_bond_atom_site_label_2
_geom_bond_distance
_geom_bond_site_symmetry_2
_ccdc_geom_bond_type
Tb0 N29 2.617 . S
Tb0 N35 2.572 . S
Tb0 O44 2.465 . S
Tb0 O45 2.387 . S
Tb0 O47 2.428 . S
Tb0 O48 2.308 . S
Tb0 O52 2.349 . S
Tb0 O55 2.393 . S
Tb0 C64 2.802 . S
C1 N2 1.379 . S
C1 C4 1.416 . S
C1 C8 1.424 . S
N2 C1 1.379 . S
N2 C5 1.334 . S
N2 Tb11 2.617 . S
C3 C5 1.390 . S
C3 C6 1.339 . S
C3 H23 0.930 . S
C4 C1 1.416 . S
C4 C6 1.416 . S
C4 C10 1.448 . S
C5 N2 1.334 . S
C5 C3 1.390 . S
C5 H16 0.930 . S
C6 C3 1.339 . S
C6 C4 1.416 . S
C6 H27 0.930 1_455 S
C7 C8 1.413 . S
C7 C9 1.427 . S
C7 C13 1.416 . S
C8 C1 1.424 . S
C8 C7 1.413 . S
C8 N12 1.361 . S
C9 C7 1.427 . S
C9 C10 1.328 . S
C9 H24 0.929 . S
C10 C4 1.448 . S
C10 C9 1.328 . S
C10 H25 0.928 1_455 S
Tb11 N2 2.617 . S
Tb11 N12 2.572 . S
Tb11 O46 2.349 . S
Tb11 O49 2.393 . S
Tb11 O50 2.465 . S
Tb11 O51 2.387 . S
Tb11 O53 2.428 . S
Tb11 O54 2.308 . S
Tb11 C75 2.802 . S
N12 C8 1.361 . S
N12 Tb11 2.572 . S
N12 C14 1.340 . S
C13 C7 1.416 . S
C13 C15 1.332 . S
C13 H21 0.931 . S
C14 N12 1.340 . S
C14 C15 1.407 . S
C14 H20 0.930 . S
C15 C13 1.332 . S
C15 C14 1.407 . S
C15 H17 0.929 . S
H16 C5 0.930 . S
H17 C15 0.929 . S
H18 C33 0.930 . S
H19 C40 0.929 . S
H20 C14 0.930 . S
H21 C13 0.931 . S
H22 C36 0.930 . S
H23 C3 0.930 . S
H24 C9 0.929 . S
H25 C10 0.928 1_655 S
H26 C31 0.930 . S
H27 C6 0.930 1_655 S
H28 C39 0.931 . S
N29 Tb0 2.617 . S
N29 C30 1.379 . S
N29 C33 1.334 . S
C30 N29 1.379 . S
C30 C32 1.416 . S
C30 C38 1.424 . S
C31 H26 0.930 . S
C31 C33 1.390 . S
C31 C34 1.339 . S
C32 C30 1.416 . S
C32 C34 1.416 . S
C32 C65 1.448 . S
C33 H18 0.930 . S
C33 N29 1.334 . S
C33 C31 1.390 . S
C34 C31 1.339 . S
C34 C32 1.416 . S
C34 H41 0.930 . S
N35 Tb0 2.572 . S
N35 C36 1.340 . S
N35 C38 1.361 . S
C36 H22 0.930 . S
C36 N35 1.340 . S
C36 C40 1.407 . S
C37 C38 1.413 . S
C37 C39 1.416 . S
C37 C66 1.427 . S
C38 C30 1.424 . S
C38 N35 1.361 . S
C38 C37 1.413 . S
C39 H28 0.931 . S
C39 C37 1.416 . S
C39 C40 1.332 . S
C40 H19 0.929 . S
C40 C36 1.407 . S
C40 C39 1.332 . S
H41 C34 0.930 . S
H42 C65 0.930 . S
H43 C66 0.929 . S
O44 Tb0 2.465 . S
O44 C64 1.264 . S
O45 Tb0 2.387 . S
O45 C56 1.264 . S
O46 Tb11 2.349 . S
O46 C56 1.243 . S
O47 Tb0 2.428 . S
O47 C64 1.256 . S
O48 Tb0 2.308 . S
O48 C63 1.266 . S
O49 Tb11 2.393 . S
O49 C63 1.248 . S
O50 Tb11 2.465 . S
O50 C75 1.264 . S
O51 Tb11 2.387 . S
O51 C67 1.264 . S
O52 Tb0 2.349 . S
O52 C67 1.243 . S
O53 Tb11 2.428 . S
O53 C75 1.256 . S
O54 Tb11 2.308 . S
O54 C74 1.266 . S
O55 Tb0 2.393 . S
O55 C74 1.248 . S
C56 O45 1.264 . S
C56 O46 1.243 . S
C57 C60 1.399 . S
C57 C62 1.383 . S
C57 C64 1.496 . S
C58 C59 1.399 . S
C58 C62 1.389 . S
C59 C58 1.399 . S
C59 C61 1.380 . S
C59 H76 0.929 . S
C60 C57 1.399 . S
C60 C61 1.392 . S
C60 H77 0.929 . S
C61 C59 1.380 . S
C61 C60 1.392 . S
C61 H78 0.929 . S
C62 C57 1.383 . S
C62 C58 1.389 . S
C62 H79 0.931 . S
C63 O48 1.266 . S
C63 O49 1.248 . S
C64 Tb0 2.802 . S
C64 O44 1.264 . S
C64 O47 1.256 . S
C64 C57 1.496 . S
C65 C32 1.448 . S
C65 H42 0.930 . S
C65 C66 1.328 . S
C66 C37 1.427 . S
C66 H43 0.929 . S
C66 C65 1.328 . S
C67 O51 1.264 . S
C67 O52 1.243 . S
C68 C71 1.399 . S
C68 C72 1.383 . S
C68 C75 1.496 . S
C69 C70 1.399 . S
C69 C72 1.389 . S
C70 C69 1.399 . S
C70 C73 1.380 . S
C70 H80 0.929 . S
C71 C68 1.399 . S
C71 C73 1.392 . S
C71 H81 0.929 . S
C72 C68 1.383 . S
C72 C69 1.389 . S
C72 H82 0.931 . S
C73 C70 1.380 . S
C73 C71 1.392 . S
C73 H83 0.929 . S
C74 O54 1.266 . S
C74 O55 1.248 . S
C75 Tb11 2.802 . S
C75 O50 1.264 . S
C75 O53 1.256 . S
C75 C68 1.496 . S
H76 C59 0.929 . S
H77 C60 0.929 . S
H78 C61 0.929 . S
H79 C62 0.931 . S
H80 C70 0.929 . S
H81 C71 0.929 . S
H82 C72 0.931 . S
H83 C73 0.929 . S
Tb84 N113 2.617 . S
Tb84 N119 2.572 . S
Tb84 O128 2.465 . S
Tb84 O129 2.387 . S
Tb84 O131 2.428 . S
Tb84 O132 2.308 . S
Tb84 O136 2.349 . S
Tb84 O139 2.393 . S
Tb84 C148 2.802 . S
C85 N86 1.379 . S
C85 C88 1.416 . S
C85 C92 1.424 . S
N86 C85 1.379 . S
N86 C89 1.334 1_655 S
N86 Tb95 2.617 . S
C87 C89 1.390 . S
C87 C90 1.339 1_455 S
C87 H107 0.930 . S
C88 C85 1.416 . S
C88 C90 1.416 . S
C88 C94 1.448 . S
C89 N86 1.334 1_455 S
C89 C87 1.390 . S
C89 H100 0.930 . S
C90 C87 1.339 1_655 S
C90 C88 1.416 . S
C90 H111 0.930 . S
C91 C92 1.413 . S
C91 C93 1.427 . S
C91 C97 1.416 . S
C92 C85 1.424 . S
C92 C91 1.413 . S
C92 N96 1.361 . S
C93 C91 1.427 . S
C93 C94 1.328 . S
C93 H108 0.929 . S
C94 C88 1.448 . S
C94 C93 1.328 . S
C94 H109 0.930 . S
Tb95 N86 2.617 . S
Tb95 N96 2.572 . S
Tb95 O130 2.349 1_655 S
Tb95 O133 2.393 1_655 S
Tb95 O134 2.465 . S
Tb95 O135 2.382 1_655 S
Tb95 O137 2.428 . S
Tb95 O138 2.308 . S
Tb95 C159 2.802 . S
N96 C92 1.361 . S
N96 Tb95 2.572 . S
N96 C98 1.340 . S
C97 C91 1.416 . S
C97 C99 1.332 . S
C97 H105 0.931 . S
C98 N96 1.340 . S
C98 C99 1.407 . S
C98 H104 0.930 . S
C99 C97 1.332 . S
C99 C98 1.407 . S
C99 H101 0.929 . S
H100 C89 0.930 . S
H101 C99 0.929 . S
H102 C117 0.930 . S
H103 C124 0.929 . S
H104 C98 0.930 . S
H105 C97 0.931 . S
H106 C120 0.930 . S
H107 C87 0.930 . S
H108 C93 0.929 . S
H109 C94 0.930 . S
H110 C115 0.930 . S
H111 C90 0.930 . S
H112 C123 0.931 . S
N113 Tb84 2.617 . S
N113 C114 1.379 . S
N113 C117 1.334 . S
C114 N113 1.379 . S
C114 C116 1.416 . S
C114 C122 1.424 . S
C115 H110 0.930 . S
C115 C117 1.390 . S
C115 C118 1.339 . S
C116 C114 1.416 . S
C116 C118 1.416 . S
C116 C149 1.448 . S
C117 H102 0.930 . S
C117 N113 1.334 . S
C117 C115 1.390 . S
C118 C115 1.339 . S
C118 C116 1.416 . S
C118 H125 0.930 1_565 S
N119 Tb84 2.572 . S
N119 C120 1.340 . S
N119 C122 1.361 . S
C120 H106 0.930 . S
C120 N119 1.340 . S
C120 C124 1.407 . S
C121 C122 1.413 . S
C121 C123 1.416 . S
C121 C150 1.427 . S
C122 C114 1.424 . S
C122 N119 1.361 . S
C122 C121 1.413 . S
C123 H112 0.931 . S
C123 C121 1.416 . S
C123 C124 1.332 . S
C124 H103 0.929 . S
C124 C120 1.407 . S
C124 C123 1.332 . S
H125 C118 0.930 1_545 S
H126 C149 0.901 1_545 S
H127 C150 0.929 . S
O128 Tb84 2.465 . S
O128 C148 1.264 . S
O129 Tb84 2.387 . S
O129 C140 1.264 . S
O130 Tb95 2.349 1_455 S
O130 C140 1.243 . S
O131 Tb84 2.428 . S
O131 C148 1.256 . S
O132 Tb84 2.308 . S
O132 C147 1.266 . S
O133 Tb95 2.393 1_455 S
O133 C147 1.248 . S
O134 Tb95 2.465 . S
O134 C159 1.264 . S
O135 Tb95 2.382 1_455 S
O135 C151 1.277 . S
O136 Tb84 2.349 . S
O136 C151 1.243 . S
O137 Tb95 2.428 . S
O137 C159 1.256 . S
O138 Tb95 2.308 . S
O138 C158 1.266 . S
O139 Tb84 2.393 . S
O139 C158 1.248 1_455 S
C140 O129 1.264 . S
C140 O130 1.243 . S
C141 C144 1.399 . S
C141 C146 1.383 . S
C141 C148 1.496 . S
C142 C143 1.399 . S
C142 C146 1.389 . S
C143 C142 1.399 . S
C143 C145 1.380 . S
C143 H160 0.929 . S
C144 C141 1.399 . S
C144 C145 1.392 . S
C144 H161 0.929 . S
C145 C143 1.380 . S
C145 C144 1.392 . S
C145 H162 0.929 . S
C146 C141 1.383 . S
C146 C142 1.389 . S
C146 H163 0.931 . S
C147 O132 1.266 . S
C147 O133 1.248 . S
C148 Tb84 2.802 . S
C148 O128 1.264 . S
C148 O131 1.256 . S
C148 C141 1.496 . S
C149 C116 1.448 . S
C149 H126 0.901 1_565 S
C149 C150 1.328 . S
C150 C121 1.427 . S
C150 H127 0.929 . S
C150 C149 1.328 . S
C151 O135 1.277 . S
C151 O136 1.243 . S
C152 C155 1.399 . S
C152 C156 1.383 . S
C152 C159 1.496 . S
C153 C154 1.399 . S
C153 C156 1.389 . S
C154 C153 1.399 . S
C154 C157 1.380 . S
C154 H164 0.929 . S
C155 C152 1.399 . S
C155 C157 1.392 . S
C155 H165 0.929 . S
C156 C152 1.383 . S
C156 C153 1.389 . S
C156 H166 0.931 . S
C157 C154 1.380 . S
C157 C155 1.392 . S
C157 H167 0.929 . S
C158 O138 1.266 . S
C158 O139 1.248 1_655 S
C159 Tb95 2.802 . S
C159 O134 1.264 . S
C159 O137 1.256 . S
C159 C152 1.496 . S
H160 C143 0.929 . S
H161 C144 0.929 . S
H162 C145 0.929 . S
H163 C146 0.931 . S
H164 C154 0.929 . S
H165 C155 0.929 . S
H166 C156 0.931 . S
H167 C157 0.929 . S
Tb168 N197 2.617 . S
Tb168 N203 2.572 . S
Tb168 O212 2.465 . S
Tb168 O213 2.387 . S
Tb168 O215 2.428 . S
Tb168 O216 2.308 . S
Tb168 O220 2.349 . S
Tb168 O223 2.393 . S
Tb168 C232 2.802 . S
C169 N170 1.379 . S
C169 C172 1.416 . S
C169 C176 1.424 . S
N170 C169 1.379 . S
N170 C173 1.334 1_554 S
N170 Tb179 2.617 . S
C171 C173 1.390 . S
C171 C174 1.339 1_556 S
C171 H191 0.930 . S
C172 C169 1.416 . S
C172 C174 1.416 . S
C172 C178 1.448 . S
C173 N170 1.334 1_556 S
C173 C171 1.390 . S
C173 H184 0.930 . S
C174 C171 1.339 1_554 S
C174 C172 1.416 . S
C174 H195 0.930 . S
C175 C176 1.413 . S
C175 C177 1.427 . S
C175 C181 1.416 . S
C176 C169 1.424 . S
C176 C175 1.413 . S
C176 N180 1.361 . S
C177 C175 1.427 . S
C177 C178 1.328 . S
C177 H192 0.929 . S
C178 C172 1.448 . S
C178 C177 1.328 . S
C178 H193 0.930 . S
Tb179 N170 2.617 . S
Tb179 N180 2.572 . S
Tb179 O214 2.349 1_554 S
Tb179 O217 2.393 1_554 S
Tb179 O218 2.465 . S
Tb179 O219 2.381 1_554 S
Tb179 O221 2.428 . S
Tb179 O222 2.308 . S
Tb179 C243 2.802 . S
N180 C176 1.361 . S
N180 Tb179 2.572 . S
N180 C182 1.340 . S
C181 C175 1.416 . S
C181 C183 1.332 . S
C181 H189 0.931 . S
C182 N180 1.340 . S
C182 C183 1.407 . S
C182 H188 0.930 . S
C183 C181 1.332 . S
C183 C182 1.407 . S
C183 H185 0.929 . S
H184 C173 0.930 . S
H185 C183 0.929 . S
H186 C201 0.930 . S
H187 C208 0.929 . S
H188 C182 0.930 . S
H189 C181 0.931 . S
H190 C204 0.930 . S
H191 C171 0.930 . S
H192 C177 0.929 . S
H193 C178 0.930 . S
H194 C199 0.930 . S
H195 C174 0.930 . S
H196 C207 0.931 . S
N197 Tb168 2.617 . S
N197 C198 1.379 . S
N197 C201 1.334 . S
C198 N197 1.379 . S
C198 C200 1.416 . S
C198 C206 1.424 . S
C199 H194 0.930 . S
C199 C201 1.390 . S
C199 C202 1.339 . S
C200 C198 1.416 . S
C200 C202 1.416 . S
C200 C233 1.448 . S
C201 H186 0.930 . S
C201 N197 1.334 . S
C201 C199 1.390 . S
C202 C199 1.339 . S
C202 C200 1.416 . S
C202 H209 0.930 . S
N203 Tb168 2.572 . S
N203 C204 1.340 . S
N203 C206 1.361 . S
C204 H190 0.930 . S
C204 N203 1.340 . S
C204 C208 1.407 . S
C205 C206 1.413 . S
C205 C207 1.416 . S
C205 C234 1.427 . S
C206 C198 1.424 . S
C206 N203 1.361 . S
C206 C205 1.413 . S
C207 H196 0.931 . S
C207 C205 1.416 . S
C207 C208 1.332 . S
C208 H187 0.929 . S
C208 C204 1.407 . S
C208 C207 1.332 . S
H209 C202 0.930 . S
H210 C233 0.930 . S
H211 C234 0.929 . S
O212 Tb168 2.465 . S
O212 C232 1.264 . S
O213 Tb168 2.387 . S
O213 C224 1.264 . S
O214 Tb179 2.349 1_556 S
O214 C224 1.243 . S
O215 Tb168 2.428 . S
O215 C232 1.256 . S
O216 Tb168 2.308 . S
O216 C231 1.266 . S
O217 Tb179 2.393 1_556 S
O217 C231 1.248 . S
O218 Tb179 2.465 . S
O218 C243 1.264 . S
O219 Tb179 2.381 1_556 S
O219 C235 1.278 . S
O220 Tb168 2.349 . S
O220 C235 1.243 . S
O221 Tb179 2.428 . S
O221 C243 1.256 . S
O222 Tb179 2.308 . S
O222 C242 1.266 . S
O223 Tb168 2.393 . S
O223 C242 1.248 1_556 S
C224 O213 1.264 . S
C224 O214 1.243 . S
C225 C228 1.399 . S
C225 C230 1.383 . S
C225 C232 1.496 . S
C226 C227 1.399 . S
C226 C230 1.389 . S
C227 C226 1.399 . S
C227 C229 1.380 . S
C227 H244 0.929 . S
C228 C225 1.399 . S
C228 C229 1.392 . S
C228 H245 0.929 . S
C229 C227 1.380 . S
C229 C228 1.392 . S
C229 H246 0.929 . S
C230 C225 1.383 . S
C230 C226 1.389 . S
C230 H247 0.931 . S
C231 O216 1.266 . S
C231 O217 1.248 . S
C232 Tb168 2.802 . S
C232 O212 1.264 . S
C232 O215 1.256 . S
C232 C225 1.496 . S
C233 C200 1.448 . S
C233 H210 0.930 . S
C233 C234 1.328 . S
C234 C205 1.427 . S
C234 H211 0.929 . S
C234 C233 1.328 . S
C235 O219 1.278 . S
C235 O220 1.243 . S
C236 C239 1.399 . S
C236 C240 1.383 . S
C236 C243 1.496 . S
C237 C238 1.399 . S
C237 C240 1.389 . S
C238 C237 1.399 . S
C238 C241 1.380 . S
C238 H248 0.929 . S
C239 C236 1.399 . S
C239 C241 1.392 . S
C239 H249 0.929 . S
C240 C236 1.383 . S
C240 C237 1.389 . S
C240 H250 0.931 . S
C241 C238 1.380 . S
C241 C239 1.392 . S
C241 H251 0.929 . S
C242 O222 1.266 . S
C242 O223 1.248 1_554 S
C243 Tb179 2.802 . S
C243 O218 1.264 . S
C243 O221 1.256 . S
C243 C236 1.496 . S
H244 C227 0.929 . S
H245 C228 0.929 . S
H246 C229 0.929 . S
H247 C230 0.931 . S
H248 C238 0.929 . S
H249 C239 0.929 . S
H250 C240 0.931 . S
H251 C241 0.929 . S
Tb252 N281 2.617 . S
Tb252 N287 2.572 . S
Tb252 O296 2.465 . S
Tb252 O297 2.387 . S
Tb252 O299 2.428 . S
Tb252 O300 2.308 . S
Tb252 O304 2.349 . S
Tb252 O307 2.393 . S
Tb252 C316 2.802 . S
C253 N254 1.379 . S
C253 C256 1.416 . S
C253 C260 1.424 . S
N254 C253 1.379 . S
N254 C257 1.334 . S
N254 Tb263 2.617 . S
C255 C257 1.390 . S
C255 C258 1.339 . S
C255 H275 0.930 . S
C256 C253 1.416 . S
C256 C258 1.416 . S
C256 C262 1.448 . S
C257 N254 1.334 . S
C257 C255 1.390 . S
C257 H268 0.930 . S
C258 C255 1.339 . S
C258 C256 1.416 . S
C258 H279 0.930 . S
C259 C260 1.413 . S
C259 C261 1.427 . S
C259 C265 1.416 . S
C260 C253 1.424 . S
C260 C259 1.413 . S
C260 N264 1.361 . S
C261 C259 1.427 . S
C261 C262 1.328 . S
C261 H276 0.929 . S
C262 C256 1.448 . S
C262 C261 1.328 . S
C262 H277 0.930 . S
Tb263 N254 2.617 . S
Tb263 N264 2.572 . S
Tb263 O298 2.349 . S
Tb263 O301 2.393 . S
Tb263 O302 2.465 . S
Tb263 O303 2.387 . S
Tb263 O305 2.428 . S
Tb263 O306 2.308 . S
Tb263 C327 2.802 . S
N264 C260 1.361 . S
N264 Tb263 2.572 . S
N264 C266 1.340 . S
C265 C259 1.416 . S
C265 C267 1.332 . S
C265 H273 0.931 . S
C266 N264 1.340 . S
C266 C267 1.407 . S
C266 H272 0.930 . S
C267 C265 1.332 . S
C267 C266 1.407 . S
C267 H269 0.929 . S
H268 C257 0.930 . S
H269 C267 0.929 . S
H270 C285 0.930 . S
H271 C292 0.929 . S
H272 C266 0.930 . S
H273 C265 0.931 . S
H274 C288 0.930 . S
H275 C255 0.930 . S
H276 C261 0.929 . S
H277 C262 0.930 . S
H278 C283 0.930 . S
H279 C258 0.930 . S
H280 C291 0.931 . S
N281 Tb252 2.617 . S
N281 C282 1.379 . S
N281 C285 1.334 . S
C282 N281 1.379 . S
C282 C284 1.416 . S
C282 C290 1.424 . S
C283 H278 0.930 . S
C283 C285 1.390 . S
C283 C286 1.339 . S
C284 C282 1.416 . S
C284 C286 1.416 . S
C284 C317 1.448 . S
C285 H270 0.930 . S
C285 N281 1.334 . S
C285 C283 1.390 . S
C286 C283 1.339 . S
C286 C284 1.416 . S
C286 H293 0.930 1_545 S
N287 Tb252 2.572 . S
N287 C288 1.340 . S
N287 C290 1.361 . S
C288 H274 0.930 . S
C288 N287 1.340 . S
C288 C292 1.407 . S
C289 C290 1.413 . S
C289 C291 1.416 . S
C289 C318 1.427 . S
C290 C282 1.424 . S
C290 N287 1.361 . S
C290 C289 1.413 . S
C291 H280 0.931 . S
C291 C289 1.416 . S
C291 C292 1.332 . S
C292 H271 0.929 . S
C292 C288 1.407 . S
C292 C291 1.332 . S
H293 C286 0.930 1_565 S
H294 C317 0.953 . S
H295 C318 0.929 . S
O296 Tb252 2.465 . S
O296 C316 1.264 . S
O297 Tb252 2.387 . S
O297 C308 1.264 . S
O298 Tb263 2.349 . S
O298 C308 1.243 . S
O299 Tb252 2.428 . S
O299 C316 1.256 . S
O300 Tb252 2.308 . S
O300 C315 1.266 . S
O301 Tb263 2.393 . S
O301 C315 1.248 . S
O302 Tb263 2.465 . S
O302 C327 1.264 . S
O303 Tb263 2.387 . S
O303 C319 1.264 . S
O304 Tb252 2.349 . S
O304 C319 1.243 . S
O305 Tb263 2.428 . S
O305 C327 1.256 . S
O306 Tb263 2.308 . S
O306 C326 1.266 . S
O307 Tb252 2.393 . S
O307 C326 1.248 . S
C308 O297 1.264 . S
C308 O298 1.243 . S
C309 C312 1.399 . S
C309 C314 1.383 . S
C309 C316 1.496 . S
C310 C311 1.399 . S
C310 C314 1.389 . S
C311 C310 1.399 . S
C311 C313 1.380 . S
C311 H328 0.929 . S
C312 C309 1.399 . S
C312 C313 1.392 . S
C312 H329 0.929 . S
C313 C311 1.380 . S
C313 C312 1.392 . S
C313 H330 0.929 . S
C314 C309 1.383 . S
C314 C310 1.389 . S
C314 H331 0.931 . S
C315 O300 1.266 . S
C315 O301 1.248 . S
C316 Tb252 2.802 . S
C316 O296 1.264 . S
C316 O299 1.256 . S
C316 C309 1.496 . S
C317 C284 1.448 . S
C317 H294 0.953 . S
C317 C318 1.328 . S
C318 C289 1.427 . S
C318 H295 0.929 . S
C318 C317 1.328 . S
C319 O303 1.264 . S
C319 O304 1.243 . S
C320 C323 1.399 . S
C320 C324 1.383 . S
C320 C327 1.496 . S
C321 C322 1.399 . S
C321 C324 1.389 . S
C322 C321 1.399 . S
C322 C325 1.380 . S
C322 H332 0.929 . S
C323 C320 1.399 . S
C323 C325 1.392 . S
C323 H333 0.929 . S
C324 C320 1.383 . S
C324 C321 1.389 . S
C324 H334 0.931 . S
C325 C322 1.380 . S
C325 C323 1.392 . S
C325 H335 0.929 . S
C326 O306 1.266 . S
C326 O307 1.248 . S
C327 Tb263 2.802 . S
C327 O302 1.264 . S
C327 O305 1.256 . S
C327 C320 1.496 . S
H328 C311 0.929 . S
H329 C312 0.929 . S
H330 C313 0.929 . S
H331 C314 0.931 . S
H332 C322 0.929 . S
H333 C323 0.929 . S
H334 C324 0.931 . S
H335 C325 0.929 . S
Tb336 N365 2.617 . S
Tb336 N371 2.572 . S
Tb336 O380 2.465 . S
Tb336 O381 2.387 . S
Tb336 O383 2.428 . S
Tb336 O384 2.308 . S
Tb336 O388 2.349 . S
Tb336 O391 2.393 . S
Tb336 C400 2.802 . S
C337 N338 1.379 . S
C337 C340 1.416 . S
C337 C344 1.424 . S
N338 C337 1.379 . S
N338 C341 1.334 . S
N338 Tb347 2.617 . S
C339 C341 1.390 . S
C339 C342 1.339 . S
C339 H359 0.930 . S
C340 C337 1.416 . S
C340 C342 1.416 . S
C340 C346 1.448 . S
C341 N338 1.334 . S
C341 C339 1.390 . S
C341 H352 0.930 . S
C342 C339 1.339 . S
C342 C340 1.416 . S
C342 H363 0.930 . S
C343 C344 1.413 . S
C343 C345 1.427 . S
C343 C349 1.416 . S
C344 C337 1.424 . S
C344 C343 1.413 . S
C344 N348 1.361 . S
C345 C343 1.427 . S
C345 C346 1.328 . S
C345 H360 0.929 . S
C346 C340 1.448 . S
C346 C345 1.328 . S
C346 H361 0.930 . S
Tb347 N338 2.617 . S
Tb347 N348 2.572 . S
Tb347 O382 2.349 . S
Tb347 O385 2.393 . S
Tb347 O386 2.465 . S
Tb347 O387 2.387 . S
Tb347 O389 2.428 . S
Tb347 O390 2.308 . S
Tb347 C411 2.802 . S
N348 C344 1.361 . S
N348 Tb347 2.572 . S
N348 C350 1.340 . S
C349 C343 1.416 . S
C349 C351 1.332 . S
C349 H357 0.931 . S
C350 N348 1.340 . S
C350 C351 1.407 . S
C350 H356 0.930 . S
C351 C349 1.332 . S
C351 C350 1.407 . S
C351 H353 0.929 . S
H352 C341 0.930 . S
H353 C351 0.929 . S
H354 C369 0.930 . S
H355 C376 0.929 . S
H356 C350 0.930 . S
H357 C349 0.931 . S
H358 C372 0.930 . S
H359 C339 0.930 . S
H360 C345 0.929 . S
H361 C346 0.930 . S
H362 C367 0.930 . S
H363 C342 0.930 . S
H364 C375 0.931 . S
N365 Tb336 2.617 . S
N365 C366 1.379 . S
N365 C369 1.334 . S
C366 N365 1.379 . S
C366 C368 1.416 . S
C366 C374 1.424 . S
C367 H362 0.930 . S
C367 C369 1.390 . S
C367 C370 1.339 . S
C368 C366 1.416 . S
C368 C370 1.416 . S
C368 C401 1.448 . S
C369 H354 0.930 . S
C369 N365 1.334 . S
C369 C367 1.390 . S
C370 C367 1.339 . S
C370 C368 1.416 . S
C370 H377 0.930 . S
N371 Tb336 2.572 . S
N371 C372 1.340 . S
N371 C374 1.361 . S
C372 H358 0.930 . S
C372 N371 1.340 . S
C372 C376 1.407 . S
C373 C374 1.413 . S
C373 C375 1.416 . S
C373 C402 1.427 . S
C374 C366 1.424 . S
C374 N371 1.361 . S
C374 C373 1.413 . S
C375 H364 0.931 . S
C375 C373 1.416 . S
C375 C376 1.332 . S
C376 H355 0.929 . S
C376 C372 1.407 . S
C376 C375 1.332 . S
H377 C370 0.930 . S
H378 C401 0.930 . S
H379 C402 0.929 . S
O380 Tb336 2.465 . S
O380 C400 1.264 . S
O381 Tb336 2.387 . S
O381 C392 1.264 . S
O382 Tb347 2.349 . S
O382 C392 1.243 . S
O383 Tb336 2.428 . S
O383 C400 1.256 . S
O384 Tb336 2.308 . S
O384 C399 1.266 . S
O385 Tb347 2.393 . S
O385 C399 1.248 . S
O386 Tb347 2.465 . S
O386 C411 1.264 . S
O387 Tb347 2.387 . S
O387 C403 1.264 . S
O388 Tb336 2.349 . S
O388 C403 1.243 . S
O389 Tb347 2.428 . S
O389 C411 1.256 . S
O390 Tb347 2.308 . S
O390 C410 1.266 . S
O391 Tb336 2.393 . S
O391 C410 1.248 . S
C392 O381 1.264 . S
C392 O382 1.243 . S
C393 C396 1.399 . S
C393 C398 1.383 . S
C393 C400 1.496 . S
C394 C395 1.399 . S
C394 C398 1.389 . S
C395 C394 1.399 . S
C395 C397 1.380 . S
C395 H412 0.929 . S
C396 C393 1.399 . S
C396 C397 1.392 . S
C396 H413 0.929 . S
C397 C395 1.380 . S
C397 C396 1.392 . S
C397 H414 0.929 . S
C398 C393 1.383 . S
C398 C394 1.389 . S
C398 H415 0.931 . S
C399 O384 1.266 . S
C399 O385 1.248 . S
C400 Tb336 2.802 . S
C400 O380 1.264 . S
C400 O383 1.256 . S
C400 C393 1.496 . S
C401 C368 1.448 . S
C401 H378 0.930 . S
C401 C402 1.328 . S
C402 C373 1.427 . S
C402 H379 0.929 . S
C402 C401 1.328 . S
C403 O387 1.264 . S
C403 O388 1.243 . S
C404 C407 1.399 . S
C404 C408 1.383 . S
C404 C411 1.496 . S
C405 C406 1.399 . S
C405 C408 1.389 . S
C406 C405 1.399 . S
C406 C409 1.380 . S
C406 H416 0.929 . S
C407 C404 1.399 . S
C407 C409 1.392 . S
C407 H417 0.929 . S
C408 C404 1.383 . S
C408 C405 1.389 . S
C408 H418 0.931 . S
C409 C406 1.380 . S
C409 C407 1.392 . S
C409 H419 0.929 . S
C410 O390 1.266 . S
C410 O391 1.248 . S
C411 Tb347 2.802 . S
C411 O386 1.264 . S
C411 O389 1.256 . S
C411 C404 1.496 . S
H412 C395 0.929 . S
H413 C396 0.929 . S
H414 C397 0.929 . S
H415 C398 0.931 . S
H416 C406 0.929 . S
H417 C407 0.929 . S
H418 C408 0.931 . S
H419 C409 0.929 . S
Tb420 N449 2.617 . S
Tb420 N455 2.572 1_455 S
Tb420 O464 2.465 . S
Tb420 O465 2.387 1_455 S
Tb420 O467 2.428 . S
Tb420 O468 2.308 1_455 S
Tb420 O472 2.349 . S
Tb420 O475 2.393 . S
Tb420 C484 2.802 . S
C421 N422 1.379 . S
C421 C424 1.416 . S
C421 C428 1.424 . S
N422 C421 1.379 . S
N422 C425 1.334 . S
N422 Tb431 2.617 . S
C423 C425 1.390 . S
C423 C426 1.339 . S
C423 H443 0.930 . S
C424 C421 1.416 . S
C424 C426 1.416 . S
C424 C430 1.448 . S
C425 N422 1.334 . S
C425 C423 1.390 . S
C425 H436 0.930 . S
C426 C423 1.339 . S
C426 C424 1.416 . S
C426 H447 0.930 . S
C427 C428 1.413 . S
C427 C429 1.427 . S
C427 C433 1.416 . S
C428 C421 1.424 . S
C428 C427 1.413 . S
C428 N432 1.361 . S
C429 C427 1.427 . S
C429 C430 1.328 . S
C429 H444 0.929 . S
C430 C424 1.448 . S
C430 C429 1.328 . S
C430 H445 0.930 . S
Tb431 N422 2.617 . S
Tb431 N432 2.572 . S
Tb431 O466 2.349 . S
Tb431 O469 2.393 . S
Tb431 O470 2.465 . S
Tb431 O471 2.387 . S
Tb431 O473 2.428 . S
Tb431 O474 2.308 . S
Tb431 C495 2.802 . S
N432 C428 1.361 . S
N432 Tb431 2.572 . S
N432 C434 1.340 . S
C433 C427 1.416 . S
C433 C435 1.332 . S
C433 H441 0.931 . S
C434 N432 1.340 . S
C434 C435 1.407 . S
C434 H440 0.930 . S
C435 C433 1.332 . S
C435 C434 1.407 . S
C435 H437 0.929 . S
H436 C425 0.930 . S
H437 C435 0.929 . S
H438 C453 0.930 . S
H439 C460 0.929 . S
H440 C434 0.930 . S
H441 C433 0.931 . S
H442 C456 0.930 . S
H443 C423 0.930 . S
H444 C429 0.929 . S
H445 C430 0.930 . S
H446 C451 0.930 . S
H447 C426 0.930 . S
H448 C459 0.931 . S
N449 Tb420 2.617 . S
N449 C450 1.379 . S
N449 C453 1.334 . S
C450 N449 1.379 . S
C450 C452 1.416 . S
C450 C458 1.424 1_455 S
C451 H446 0.930 . S
C451 C453 1.390 . S
C451 C454 1.339 . S
C452 C450 1.416 . S
C452 C454 1.416 . S
C452 C485 1.441 1_455 S
C453 H438 0.930 . S
C453 N449 1.334 . S
C453 C451 1.390 . S
C454 C451 1.339 . S
C454 C452 1.416 . S
C454 H461 0.930 . S
N455 Tb420 2.572 1_655 S
N455 C456 1.340 . S
N455 C458 1.361 . S
C456 H442 0.930 . S
C456 N455 1.340 . S
C456 C460 1.407 . S
C457 C458 1.413 . S
C457 C459 1.416 . S
C457 C486 1.427 . S
C458 C450 1.424 1_655 S
C458 N455 1.361 . S
C458 C457 1.413 . S
C459 H448 0.931 . S
C459 C457 1.416 . S
C459 C460 1.332 . S
C460 H439 0.929 . S
C460 C456 1.407 . S
C460 C459 1.332 . S
H461 C454 0.930 . S
H462 C485 0.929 1_455 S
H463 C486 0.929 . S
O464 Tb420 2.465 . S
O464 C484 1.264 . S
O465 Tb420 2.387 1_655 S
O465 C476 1.264 . S
O466 Tb431 2.349 . S
O466 C476 1.243 . S
O467 Tb420 2.428 . S
O467 C484 1.256 . S
O468 Tb420 2.308 1_655 S
O468 C483 1.266 . S
O469 Tb431 2.393 . S
O469 C483 1.248 . S
O470 Tb431 2.465 . S
O470 C495 1.264 . S
O471 Tb431 2.387 . S
O471 C487 1.264 1_655 S
O472 Tb420 2.349 . S
O472 C487 1.243 . S
O473 Tb431 2.428 . S
O473 C495 1.256 . S
O474 Tb431 2.308 . S
O474 C494 1.266 . S
O475 Tb420 2.393 . S
O475 C494 1.248 1_455 S
C476 O465 1.264 . S
C476 O466 1.243 . S
C477 C480 1.399 . S
C477 C482 1.383 . S
C477 C484 1.496 . S
C478 C479 1.399 . S
C478 C482 1.389 . S
C479 C478 1.399 . S
C479 C481 1.380 . S
C479 H496 0.929 . S
C480 C477 1.399 . S
C480 C481 1.392 . S
C480 H497 0.929 . S
C481 C479 1.380 . S
C481 C480 1.392 . S
C481 H498 0.929 . S
C482 C477 1.383 . S
C482 C478 1.389 . S
C482 H499 0.931 . S
C483 O468 1.266 . S
C483 O469 1.248 . S
C484 Tb420 2.802 . S
C484 O464 1.264 . S
C484 O467 1.256 . S
C484 C477 1.496 . S
C485 C452 1.441 1_655 S
C485 H462 0.929 1_655 S
C485 C486 1.338 . S
C486 C457 1.427 . S
C486 H463 0.929 . S
C486 C485 1.338 . S
C487 O471 1.264 1_455 S
C487 O472 1.243 . S
C488 C491 1.399 . S
C488 C492 1.383 . S
C488 C495 1.496 . S
C489 C490 1.399 . S
C489 C492 1.389 . S
C490 C489 1.399 . S
C490 C493 1.380 . S
C490 H500 0.929 . S
C491 C488 1.399 . S
C491 C493 1.392 . S
C491 H501 0.929 . S
C492 C488 1.383 . S
C492 C489 1.389 . S
C492 H502 0.931 . S
C493 C490 1.380 . S
C493 C491 1.392 . S
C493 H503 0.929 . S
C494 O474 1.266 . S
C494 O475 1.248 1_655 S
C495 Tb431 2.802 . S
C495 O470 1.264 . S
C495 O473 1.256 . S
C495 C488 1.496 . S
H496 C479 0.929 . S
H497 C480 0.929 . S
H498 C481 0.929 . S
H499 C482 0.931 . S
H500 C490 0.929 . S
H501 C491 0.929 . S
H502 C492 0.931 . S
H503 C493 0.929 . S
Tb504 N533 2.617 . S
Tb504 N539 2.572 1_556 S
Tb504 O548 2.465 . S
Tb504 O549 2.387 1_556 S
Tb504 O551 2.428 . S
Tb504 O552 2.308 1_556 S
Tb504 O556 2.349 . S
Tb504 O559 2.393 . S
Tb504 C568 2.802 . S
C505 N506 1.379 . S
C505 C508 1.416 . S
C505 C512 1.424 . S
N506 C505 1.379 . S
N506 C509 1.334 . S
N506 Tb515 2.617 . S
C507 C509 1.390 . S
C507 C510 1.339 . S
C507 H527 0.930 . S
C508 C505 1.416 . S
C508 C510 1.416 . S
C508 C514 1.448 . S
C509 N506 1.334 . S
C509 C507 1.390 . S
C509 H520 0.930 . S
C510 C507 1.339 . S
C510 C508 1.416 . S
C510 H531 0.930 1_655 S
C511 C512 1.413 . S
C511 C513 1.427 . S
C511 C517 1.416 . S
C512 C505 1.424 . S
C512 C511 1.413 . S
C512 N516 1.361 . S
C513 C511 1.427 . S
C513 C514 1.328 . S
C513 H528 0.929 . S
C514 C508 1.448 . S
C514 C513 1.328 . S
C514 H529 0.934 1_655 S
Tb515 N506 2.617 . S
Tb515 N516 2.572 . S
Tb515 O550 2.349 . S
Tb515 O553 2.393 . S
Tb515 O554 2.465 . S
Tb515 O555 2.387 . S
Tb515 O557 2.428 . S
Tb515 O558 2.308 . S
Tb515 C579 2.802 . S
N516 C512 1.361 . S
N516 Tb515 2.572 . S
N516 C518 1.340 . S
C517 C511 1.416 . S
C517 C519 1.332 . S
C517 H525 0.931 . S
C518 N516 1.340 . S
C518 C519 1.407 . S
C518 H524 0.930 . S
C519 C517 1.332 . S
C519 C518 1.407 . S
C519 H521 0.927 . S
H520 C509 0.930 . S
H521 C519 0.927 . S
H522 C537 0.930 . S
H523 C544 0.929 . S
H524 C518 0.930 . S
H525 C517 0.931 . S
H526 C540 0.930 . S
H527 C507 0.930 . S
H528 C513 0.929 . S
H529 C514 0.934 1_455 S
H530 C535 0.930 . S
H531 C510 0.930 1_455 S
H532 C543 0.931 . S
N533 Tb504 2.617 . S
N533 C534 1.379 . S
N533 C537 1.334 . S
C534 N533 1.379 . S
C534 C536 1.416 . S
C534 C542 1.424 1_556 S
C535 H530 0.930 . S
C535 C537 1.390 . S
C535 C538 1.339 . S
C536 C534 1.416 . S
C536 C538 1.416 . S
C536 C569 1.465 . S
C537 H522 0.930 . S
C537 N533 1.334 . S
C537 C535 1.390 . S
C538 C535 1.339 . S
C538 C536 1.416 . S
C538 H545 0.930 . S
N539 Tb504 2.572 1_554 S
N539 C540 1.340 . S
N539 C542 1.361 . S
C540 H526 0.930 . S
C540 N539 1.340 . S
C540 C544 1.407 . S
C541 C542 1.413 . S
C541 C543 1.416 . S
C541 C570 1.427 . S
C542 C534 1.424 1_554 S
C542 N539 1.361 . S
C542 C541 1.413 . S
C543 H532 0.931 . S
C543 C541 1.416 . S
C543 C544 1.332 . S
C544 H523 0.929 . S
C544 C540 1.407 . S
C544 C543 1.332 . S
H545 C538 0.930 . S
H546 C569 0.935 . S
H547 C570 0.929 . S
O548 Tb504 2.465 . S
O548 C568 1.264 . S
O549 Tb504 2.387 1_554 S
O549 C560 1.264 . S
O550 Tb515 2.349 . S
O550 C560 1.243 . S
O551 Tb504 2.428 . S
O551 C568 1.256 . S
O552 Tb504 2.308 1_554 S
O552 C567 1.266 . S
O553 Tb515 2.393 . S
O553 C567 1.248 . S
O554 Tb515 2.465 . S
O554 C579 1.264 . S
O555 Tb515 2.387 . S
O555 C571 1.264 1_554 S
O556 Tb504 2.349 . S
O556 C571 1.243 . S
O557 Tb515 2.428 . S
O557 C579 1.256 . S
O558 Tb515 2.308 . S
O558 C578 1.263 . S
O559 Tb504 2.393 . S
O559 C578 1.251 1_556 S
C560 O549 1.264 . S
C560 O550 1.243 . S
C561 C564 1.399 . S
C561 C566 1.383 . S
C561 C568 1.496 . S
C562 C563 1.399 . S
C562 C566 1.389 . S
C563 C562 1.399 . S
C563 C565 1.380 . S
C563 H580 0.929 . S
C564 C561 1.399 . S
C564 C565 1.392 . S
C564 H581 0.929 . S
C565 C563 1.380 . S
C565 C564 1.392 . S
C565 H582 0.929 . S
C566 C561 1.383 . S
C566 C562 1.389 . S
C566 H583 0.931 . S
C567 O552 1.266 . S
C567 O553 1.248 . S
C568 Tb504 2.802 . S
C568 O548 1.264 . S
C568 O551 1.256 . S
C568 C561 1.496 . S
C569 C536 1.465 . S
C569 H546 0.935 . S
C569 C570 1.309 1_556 S
C570 C541 1.427 . S
C570 H547 0.929 . S
C570 C569 1.309 1_554 S
C571 O555 1.264 1_556 S
C571 O556 1.243 . S
C572 C575 1.399 . S
C572 C576 1.383 . S
C572 C579 1.496 . S
C573 C574 1.399 . S
C573 C576 1.389 . S
C574 C573 1.399 . S
C574 C577 1.380 . S
C574 H584 0.929 . S
C575 C572 1.399 . S
C575 C577 1.392 . S
C575 H585 0.929 . S
C576 C572 1.383 . S
C576 C573 1.389 . S
C576 H586 0.931 . S
C577 C574 1.380 . S
C577 C575 1.392 . S
C577 H587 0.929 . S
C578 O558 1.263 . S
C578 O559 1.251 1_554 S
C579 Tb515 2.802 . S
C579 O554 1.264 . S
C579 O557 1.256 . S
C579 C572 1.496 . S
H580 C563 0.929 . S
H581 C564 0.929 . S
H582 C565 0.929 . S
H583 C566 0.931 . S
H584 C574 0.929 . S
H585 C575 0.929 . S
H586 C576 0.931 . S
H587 C577 0.929 . S
Tb588 N617 2.617 . S
Tb588 N623 2.572 . S
Tb588 O632 2.465 . S
Tb588 O633 2.387 . S
Tb588 O635 2.428 . S
Tb588 O636 2.308 . S
Tb588 O640 2.349 . S
Tb588 O643 2.393 . S
Tb588 C652 2.802 . S
C589 N590 1.379 . S
C589 C592 1.416 . S
C589 C596 1.424 . S
N590 C589 1.379 . S
N590 C593 1.334 . S
N590 Tb599 2.617 . S
C591 C593 1.390 . S
C591 C594 1.339 . S
C591 H611 0.930 . S
C592 C589 1.416 . S
C592 C594 1.416 . S
C592 C598 1.448 . S
C593 N590 1.334 . S
C593 C591 1.390 . S
C593 H604 0.930 . S
C594 C591 1.339 . S
C594 C592 1.416 . S
C594 H615 0.930 . S
C595 C596 1.413 . S
C595 C597 1.427 . S
C595 C601 1.416 . S
C596 C589 1.424 . S
C596 C595 1.413 . S
C596 N600 1.361 . S
C597 C595 1.427 . S
C597 C598 1.328 . S
C597 H612 0.929 . S
C598 C592 1.448 . S
C598 C597 1.328 . S
C598 H613 0.930 . S
Tb599 N590 2.617 . S
Tb599 N600 2.572 . S
Tb599 O634 2.349 . S
Tb599 O637 2.393 . S
Tb599 O638 2.465 . S
Tb599 O639 2.387 . S
Tb599 O641 2.428 . S
Tb599 O642 2.308 . S
Tb599 C663 2.802 . S
N600 C596 1.361 . S
N600 Tb599 2.572 . S
N600 C602 1.340 . S
C601 C595 1.416 . S
C601 C603 1.332 . S
C601 H609 0.931 . S
C602 N600 1.340 . S
C602 C603 1.407 . S
C602 H608 0.930 . S
C603 C601 1.332 . S
C603 C602 1.407 . S
C603 H605 0.929 . S
H604 C593 0.930 . S
H605 C603 0.929 . S
H606 C621 0.930 . S
H607 C628 0.929 . S
H608 C602 0.930 . S
H609 C601 0.931 . S
H610 C624 0.930 . S
H611 C591 0.930 . S
H612 C597 0.929 . S
H613 C598 0.930 . S
H614 C619 0.930 . S
H615 C594 0.930 . S
H616 C627 0.931 . S
N617 Tb588 2.617 . S
N617 C618 1.379 . S
N617 C621 1.334 . S
C618 N617 1.379 . S
C618 C620 1.416 . S
C618 C626 1.424 . S
C619 H614 0.930 . S
C619 C621 1.390 . S
C619 C622 1.339 . S
C620 C618 1.416 . S
C620 C622 1.416 . S
C620 C653 1.448 . S
C621 H606 0.930 . S
C621 N617 1.334 . S
C621 C619 1.390 . S
C622 C619 1.339 . S
C622 C620 1.416 . S
C622 H629 0.930 . S
N623 Tb588 2.572 . S
N623 C624 1.340 . S
N623 C626 1.361 . S
C624 H610 0.930 . S
C624 N623 1.340 . S
C624 C628 1.407 . S
C625 C626 1.413 . S
C625 C627 1.416 . S
C625 C654 1.427 . S
C626 C618 1.424 . S
C626 N623 1.361 . S
C626 C625 1.413 . S
C627 H616 0.931 . S
C627 C625 1.416 . S
C627 C628 1.332 . S
C628 H607 0.929 . S
C628 C624 1.407 . S
C628 C627 1.332 . S
H629 C622 0.930 . S
H630 C653 0.930 . S
H631 C654 0.929 . S
O632 Tb588 2.465 . S
O632 C652 1.264 . S
O633 Tb588 2.387 . S
O633 C644 1.264 . S
O634 Tb599 2.349 . S
O634 C644 1.243 . S
O635 Tb588 2.428 . S
O635 C652 1.256 . S
O636 Tb588 2.308 . S
O636 C651 1.266 . S
O637 Tb599 2.393 . S
O637 C651 1.248 . S
O638 Tb599 2.465 . S
O638 C663 1.264 . S
O639 Tb599 2.387 . S
O639 C655 1.264 . S
O640 Tb588 2.349 . S
O640 C655 1.243 . S
O641 Tb599 2.428 . S
O641 C663 1.256 . S
O642 Tb599 2.308 . S
O642 C662 1.266 . S
O643 Tb588 2.393 . S
O643 C662 1.248 . S
C644 O633 1.264 . S
C644 O634 1.243 . S
C645 C648 1.399 . S
C645 C650 1.383 . S
C645 C652 1.496 . S
C646 C647 1.399 . S
C646 C650 1.389 . S
C647 C646 1.399 . S
C647 C649 1.380 . S
C647 H664 0.929 . S
C648 C645 1.399 . S
C648 C649 1.392 . S
C648 H665 0.929 . S
C649 C647 1.380 . S
C649 C648 1.392 . S
C649 H666 0.929 . S
C650 C645 1.383 . S
C650 C646 1.389 . S
C650 H667 0.931 . S
C651 O636 1.266 . S
C651 O637 1.248 . S
C652 Tb588 2.802 . S
C652 O632 1.264 . S
C652 O635 1.256 . S
C652 C645 1.496 . S
C653 C620 1.448 . S
C653 H630 0.930 . S
C653 C654 1.328 . S
C654 C625 1.427 . S
C654 H631 0.929 . S
C654 C653 1.328 . S
C655 O639 1.264 . S
C655 O640 1.243 . S
C656 C659 1.399 . S
C656 C660 1.383 . S
C656 C663 1.496 . S
C657 C658 1.399 . S
C657 C660 1.389 . S
C658 C657 1.399 . S
C658 C661 1.380 . S
C658 H668 0.929 . S
C659 C656 1.399 . S
C659 C661 1.392 . S
C659 H669 0.929 . S
C660 C656 1.383 . S
C660 C657 1.389 . S
C660 H670 0.931 . S
C661 C658 1.380 . S
C661 C659 1.392 . S
C661 H671 0.929 . S
C662 O642 1.266 . S
C662 O643 1.248 . S
C663 Tb599 2.802 . S
C663 O638 1.264 . S
C663 O641 1.256 . S
C663 C656 1.496 . S
H664 C647 0.929 . S
H665 C648 0.929 . S
H666 C649 0.929 . S
H667 C650 0.931 . S
H668 C658 0.929 . S
H669 C659 0.929 . S
H670 C660 0.931 . S
H671 C661 0.929 . S
Tb672 N701 2.617 . S
Tb672 N707 2.572 . S
Tb672 O716 2.465 . S
Tb672 O717 2.387 . S
Tb672 O719 2.428 . S
Tb672 O720 2.308 . S
Tb672 O724 2.349 . S
Tb672 O727 2.393 . S
Tb672 C736 2.802 . S
C673 N674 1.379 . S
C673 C676 1.416 . S
C673 C680 1.424 . S
N674 C673 1.379 . S
N674 C677 1.334 . S
N674 Tb683 2.617 . S
C675 C677 1.390 . S
C675 C678 1.339 . S
C675 H695 0.930 . S
C676 C673 1.416 . S
C676 C678 1.416 . S
C676 C682 1.448 . S
C677 N674 1.334 . S
C677 C675 1.390 . S
C677 H688 0.930 . S
C678 C675 1.339 . S
C678 C676 1.416 . S
C678 H699 0.930 . S
C679 C680 1.413 . S
C679 C681 1.427 . S
C679 C685 1.416 . S
C680 C673 1.424 . S
C680 C679 1.413 . S
C680 N684 1.361 . S
C681 C679 1.427 . S
C681 C682 1.328 . S
C681 H696 0.929 . S
C682 C676 1.448 . S
C682 C681 1.328 . S
C682 H697 0.930 . S
Tb683 N674 2.617 . S
Tb683 N684 2.572 . S
Tb683 O718 2.349 . S
Tb683 O721 2.393 . S
Tb683 O722 2.465 . S
Tb683 O723 2.387 . S
Tb683 O725 2.428 . S
Tb683 O726 2.308 . S
Tb683 C747 2.802 . S
N684 C680 1.361 . S
N684 Tb683 2.572 . S
N684 C686 1.340 . S
C685 C679 1.416 . S
C685 C687 1.332 . S
C685 H693 0.931 . S
C686 N684 1.340 . S
C686 C687 1.407 . S
C686 H692 0.930 . S
C687 C685 1.332 . S
C687 C686 1.407 . S
C687 H689 0.929 . S
H688 C677 0.930 . S
H689 C687 0.929 . S
H690 C705 0.930 . S
H691 C712 0.929 . S
H692 C686 0.930 . S
H693 C685 0.931 . S
H694 C708 0.930 . S
H695 C675 0.930 . S
H696 C681 0.929 . S
H697 C682 0.930 . S
H698 C703 0.930 . S
H699 C678 0.930 . S
H700 C711 0.931 . S
N701 Tb672 2.617 . S
N701 C702 1.379 . S
N701 C705 1.334 . S
C702 N701 1.379 . S
C702 C704 1.416 . S
C702 C710 1.424 . S
C703 H698 0.930 . S
C703 C705 1.390 . S
C703 C706 1.339 . S
C704 C702 1.416 . S
C704 C706 1.416 . S
C704 C737 1.448 . S
C705 H690 0.930 . S
C705 N701 1.334 . S
C705 C703 1.390 . S
C706 C703 1.339 . S
C706 C704 1.416 . S
C706 H713 0.930 1_554 S
N707 Tb672 2.572 . S
N707 C708 1.340 . S
N707 C710 1.361 . S
C708 H694 0.930 . S
C708 N707 1.340 . S
C708 C712 1.407 . S
C709 C710 1.413 . S
C709 C711 1.416 . S
C709 C738 1.427 . S
C710 C702 1.424 . S
C710 N707 1.361 . S
C710 C709 1.413 . S
C711 H700 0.931 . S
C711 C709 1.416 . S
C711 C712 1.332 . S
C712 H691 0.929 . S
C712 C708 1.407 . S
C712 C711 1.332 . S
H713 C706 0.930 1_556 S
H714 C737 0.930 1_556 S
H715 C738 0.929 . S
O716 Tb672 2.465 . S
O716 C736 1.264 . S
O717 Tb672 2.387 . S
O717 C728 1.264 . S
O718 Tb683 2.349 . S
O718 C728 1.243 . S
O719 Tb672 2.428 . S
O719 C736 1.256 . S
O720 Tb672 2.308 . S
O720 C735 1.266 . S
O721 Tb683 2.393 . S
O721 C735 1.248 . S
O722 Tb683 2.465 . S
O722 C747 1.264 . S
O723 Tb683 2.387 . S
O723 C739 1.264 . S
O724 Tb672 2.349 . S
O724 C739 1.243 . S
O725 Tb683 2.428 . S
O725 C747 1.256 . S
O726 Tb683 2.308 . S
O726 C746 1.266 . S
O727 Tb672 2.393 . S
O727 C746 1.248 . S
C728 O717 1.264 . S
C728 O718 1.243 . S
C729 C732 1.399 . S
C729 C734 1.383 . S
C729 C736 1.496 . S
C730 C731 1.399 . S
C730 C734 1.389 . S
C731 C730 1.399 . S
C731 C733 1.380 . S
C731 H748 0.929 . S
C732 C729 1.399 . S
C732 C733 1.392 . S
C732 H749 0.929 . S
C733 C731 1.380 . S
C733 C732 1.392 . S
C733 H750 0.929 . S
C734 C729 1.383 . S
C734 C730 1.389 . S
C734 H751 0.931 . S
C735 O720 1.266 . S
C735 O721 1.248 . S
C736 Tb672 2.802 . S
C736 O716 1.264 . S
C736 O719 1.256 . S
C736 C729 1.496 . S
C737 C704 1.448 . S
C737 H714 0.930 1_554 S
C737 C738 1.328 . S
C738 C709 1.427 . S
C738 H715 0.929 . S
C738 C737 1.328 . S
C739 O723 1.264 . S
C739 O724 1.243 . S
C740 C743 1.399 . S
C740 C744 1.383 . S
C740 C747 1.496 . S
C741 C742 1.399 . S
C741 C744 1.389 . S
C742 C741 1.399 . S
C742 C745 1.380 . S
C742 H752 0.929 . S
C743 C740 1.399 . S
C743 C745 1.392 . S
C743 H753 0.929 . S
C744 C740 1.383 . S
C744 C741 1.389 . S
C744 H754 0.931 . S
C745 C742 1.380 . S
C745 C743 1.392 . S
C745 H755 0.929 . S
C746 O726 1.266 . S
C746 O727 1.248 . S
C747 Tb683 2.802 . S
C747 O722 1.264 . S
C747 O725 1.256 . S
C747 C740 1.496 . S
H748 C731 0.929 . S
H749 C732 0.929 . S
H750 C733 0.929 . S
H751 C734 0.931 . S
H752 C742 0.929 . S
H753 C743 0.929 . S
H754 C744 0.931 . S
H755 C745 0.929 . S
Tb756 N785 2.617 . S
Tb756 N791 2.572 1_565 S
Tb756 O800 2.465 . S
Tb756 O801 2.387 1_565 S
Tb756 O803 2.428 . S
Tb756 O804 2.308 1_565 S
Tb756 O808 2.349 . S
Tb756 O811 2.393 . S
Tb756 C820 2.802 . S
C757 N758 1.379 . S
C757 C760 1.416 . S
C757 C764 1.424 . S
N758 C757 1.379 . S
N758 C761 1.334 . S
N758 Tb767 2.617 . S
C759 C761 1.390 . S
C759 C762 1.339 . S
C759 H779 0.930 . S
C760 C757 1.416 . S
C760 C762 1.416 . S
C760 C766 1.448 . S
C761 N758 1.334 . S
C761 C759 1.390 . S
C761 H772 0.930 . S
C762 C759 1.339 . S
C762 C760 1.416 . S
C762 H783 0.930 1_556 S
C763 C764 1.413 . S
C763 C765 1.427 . S
C763 C769 1.416 . S
C764 C757 1.424 . S
C764 C763 1.413 . S
C764 N768 1.361 . S
C765 C763 1.427 . S
C765 C766 1.328 . S
C765 H780 0.929 . S
C766 C760 1.448 . S
C766 C765 1.328 . S
C766 H781 0.930 . S
Tb767 N758 2.617 . S
Tb767 N768 2.572 . S
Tb767 O802 2.349 . S
Tb767 O805 2.393 . S
Tb767 O806 2.465 . S
Tb767 O807 2.387 . S
Tb767 O809 2.428 . S
Tb767 O810 2.308 . S
Tb767 C831 2.802 . S
N768 C764 1.361 . S
N768 Tb767 2.572 . S
N768 C770 1.340 . S
C769 C763 1.416 . S
C769 C771 1.332 . S
C769 H777 0.931 . S
C770 N768 1.340 . S
C770 C771 1.407 . S
C770 H776 0.930 . S
C771 C769 1.332 . S
C771 C770 1.407 . S
C771 H773 0.921 1_545 S
H772 C761 0.930 . S
H773 C771 0.921 1_565 S
H774 C789 0.930 . S
H775 C796 0.929 . S
H776 C770 0.930 . S
H777 C769 0.931 . S
H778 C792 0.930 . S
H779 C759 0.930 . S
H780 C765 0.929 . S
H781 C766 0.930 . S
H782 C787 0.930 . S
H783 C762 0.930 1_554 S
H784 C795 0.931 . S
N785 Tb756 2.617 . S
N785 C786 1.379 . S
N785 C789 1.334 . S
C786 N785 1.379 . S
C786 C788 1.416 . S
C786 C794 1.424 1_565 S
C787 H782 0.930 . S
C787 C789 1.390 . S
C787 C790 1.339 . S
C788 C786 1.416 . S
C788 C790 1.416 . S
C788 C821 1.448 . S
C789 H774 0.930 . S
C789 N785 1.334 . S
C789 C787 1.390 . S
C790 C787 1.339 . S
C790 C788 1.416 . S
C790 H797 0.930 . S
N791 Tb756 2.572 1_545 S
N791 C792 1.340 . S
N791 C794 1.361 . S
C792 H778 0.930 . S
C792 N791 1.340 . S
C792 C796 1.407 . S
C793 C794 1.413 . S
C793 C795 1.416 . S
C793 C822 1.427 . S
C794 C786 1.424 1_545 S
C794 N791 1.361 . S
C794 C793 1.413 . S
C795 H784 0.931 . S
C795 C793 1.416 . S
C795 C796 1.332 . S
C796 H775 0.929 . S
C796 C792 1.407 . S
C796 C795 1.332 . S
H797 C790 0.930 . S
H798 C821 0.930 . S
H799 C822 0.929 . S
O800 Tb756 2.465 . S
O800 C820 1.264 . S
O801 Tb756 2.387 1_545 S
O801 C812 1.264 . S
O802 Tb767 2.349 . S
O802 C812 1.243 . S
O803 Tb756 2.428 . S
O803 C820 1.256 . S
O804 Tb756 2.308 1_545 S
O804 C819 1.266 . S
O805 Tb767 2.393 . S
O805 C819 1.248 . S
O806 Tb767 2.465 . S
O806 C831 1.264 . S
O807 Tb767 2.387 . S
O807 C823 1.264 1_545 S
O808 Tb756 2.349 . S
O808 C823 1.243 . S
O809 Tb767 2.428 . S
O809 C831 1.256 . S
O810 Tb767 2.308 . S
O810 C830 1.254 1_545 S
O811 Tb756 2.393 . S
O811 C830 1.260 . S
C812 O801 1.264 . S
C812 O802 1.243 . S
C813 C816 1.399 . S
C813 C818 1.383 . S
C813 C820 1.496 . S
C814 C815 1.399 . S
C814 C818 1.389 . S
C815 C814 1.399 . S
C815 C817 1.380 . S
C815 H832 0.929 . S
C816 C813 1.399 . S
C816 C817 1.392 . S
C816 H833 0.929 . S
C817 C815 1.380 . S
C817 C816 1.392 . S
C817 H834 0.929 . S
C818 C813 1.383 . S
C818 C814 1.389 . S
C818 H835 0.931 . S
C819 O804 1.266 . S
C819 O805 1.248 . S
C820 Tb756 2.802 . S
C820 O800 1.264 . S
C820 O803 1.256 . S
C820 C813 1.496 . S
C821 C788 1.448 . S
C821 H798 0.930 . S
C821 C822 1.328 1_565 S
C822 C793 1.427 . S
C822 H799 0.929 . S
C822 C821 1.328 1_545 S
C823 O807 1.264 1_565 S
C823 O808 1.243 . S
C824 C827 1.399 . S
C824 C828 1.383 . S
C824 C831 1.496 . S
C825 C826 1.399 . S
C825 C828 1.389 . S
C826 C825 1.399 . S
C826 C829 1.380 . S
C826 H836 0.929 . S
C827 C824 1.399 . S
C827 C829 1.392 . S
C827 H837 0.929 . S
C828 C824 1.383 . S
C828 C825 1.389 . S
C828 H838 0.931 . S
C829 C826 1.380 . S
C829 C827 1.392 . S
C829 H839 0.929 . S
C830 O810 1.254 1_565 S
C830 O811 1.260 . S
C831 Tb767 2.802 . S
C831 O806 1.264 . S
C831 O809 1.256 . S
C831 C824 1.496 . S
H832 C815 0.929 . S
H833 C816 0.929 . S
H834 C817 0.929 . S
H835 C818 0.931 . S
H836 C826 0.929 . S
H837 C827 0.929 . S
H838 C828 0.931 . S
H839 C829 0.929 . S
Tb840 N869 2.617 . S
Tb840 N875 2.572 . S
Tb840 O884 2.465 . S
Tb840 O885 2.387 . S
Tb840 O887 2.428 . S
Tb840 O888 2.308 . S
Tb840 O892 2.349 . S
Tb840 O895 2.393 . S
Tb840 C904 2.802 . S
C841 N842 1.379 . S
C841 C844 1.416 . S
C841 C848 1.424 . S
N842 C841 1.379 . S
N842 C845 1.334 1_545 S
N842 Tb851 2.617 . S
C843 C845 1.392 . S
C843 C846 1.326 1_565 S
C843 H863 0.942 . S
C844 C841 1.416 . S
C844 C846 1.416 . S
C844 C850 1.448 . S
C845 N842 1.334 1_565 S
C845 C843 1.392 . S
C845 H856 0.930 . S
C846 C843 1.326 1_545 S
C846 C844 1.416 . S
C846 H867 0.930 . S
C847 C848 1.413 . S
C847 C849 1.427 . S
C847 C853 1.416 . S
C848 C841 1.424 . S
C848 C847 1.413 . S
C848 N852 1.361 . S
C849 C847 1.427 . S
C849 C850 1.328 . S
C849 H864 0.929 . S
C850 C844 1.448 . S
C850 C849 1.328 . S
C850 H865 0.930 . S
Tb851 N842 2.617 . S
Tb851 N852 2.572 . S
Tb851 O886 2.349 1_545 S
Tb851 O889 2.393 1_545 S
Tb851 O890 2.465 . S
Tb851 O891 2.389 . S
Tb851 O893 2.428 . S
Tb851 O894 2.308 . S
Tb851 C915 2.802 . S
N852 C848 1.361 . S
N852 Tb851 2.572 . S
N852 C854 1.340 . S
C853 C847 1.416 . S
C853 C855 1.332 . S
C853 H861 0.931 . S
C854 N852 1.340 . S
C854 C855 1.407 . S
C854 H860 0.930 . S
C855 C853 1.332 . S
C855 C854 1.407 . S
C855 H857 0.929 . S
H856 C845 0.930 . S
H857 C855 0.929 . S
H858 C873 0.930 . S
H859 C880 0.929 . S
H860 C854 0.930 . S
H861 C853 0.931 . S
H862 C876 0.930 . S
H863 C843 0.942 . S
H864 C849 0.929 . S
H865 C850 0.930 . S
H866 C871 0.930 . S
H867 C846 0.930 . S
H868 C879 0.931 . S
N869 Tb840 2.617 . S
N869 C870 1.379 . S
N869 C873 1.334 . S
C870 N869 1.379 . S
C870 C872 1.416 . S
C870 C878 1.424 . S
C871 H866 0.930 . S
C871 C873 1.390 . S
C871 C874 1.339 . S
C872 C870 1.416 . S
C872 C874 1.416 . S
C872 C905 1.448 . S
C873 H858 0.930 . S
C873 N869 1.334 . S
C873 C871 1.390 . S
C874 C871 1.339 . S
C874 C872 1.416 . S
C874 H881 0.930 . S
N875 Tb840 2.572 . S
N875 C876 1.340 . S
N875 C878 1.361 . S
C876 H862 0.930 . S
C876 N875 1.340 . S
C876 C880 1.407 . S
C877 C878 1.413 . S
C877 C879 1.416 . S
C877 C906 1.427 . S
C878 C870 1.424 . S
C878 N875 1.361 . S
C878 C877 1.413 . S
C879 H868 0.931 . S
C879 C877 1.416 . S
C879 C880 1.332 . S
C880 H859 0.929 . S
C880 C876 1.407 . S
C880 C879 1.332 . S
H881 C874 0.930 . S
H882 C905 0.930 . S
H883 C906 0.929 . S
O884 Tb840 2.465 . S
O884 C904 1.264 . S
O885 Tb840 2.387 . S
O885 C896 1.264 . S
O886 Tb851 2.349 1_565 S
O886 C896 1.243 . S
O887 Tb840 2.428 . S
O887 C904 1.256 . S
O888 Tb840 2.308 . S
O888 C903 1.266 . S
O889 Tb851 2.393 1_565 S
O889 C903 1.248 . S
O890 Tb851 2.465 . S
O890 C915 1.264 . S
O891 Tb851 2.389 . S
O891 C907 1.258 1_545 S
O892 Tb840 2.349 . S
O892 C907 1.243 . S
O893 Tb851 2.428 . S
O893 C915 1.256 . S
O894 Tb851 2.308 . S
O894 C914 1.266 . S
O895 Tb840 2.393 . S
O895 C914 1.248 1_565 S
C896 O885 1.264 . S
C896 O886 1.243 . S
C897 C900 1.399 . S
C897 C902 1.383 . S
C897 C904 1.496 . S
C898 C899 1.399 . S
C898 C902 1.389 . S
C899 C898 1.399 . S
C899 C901 1.380 . S
C899 H916 0.929 . S
C900 C897 1.399 . S
C900 C901 1.392 . S
C900 H917 0.929 . S
C901 C899 1.380 . S
C901 C900 1.392 . S
C901 H918 0.929 . S
C902 C897 1.383 . S
C902 C898 1.389 . S
C902 H919 0.931 . S
C903 O888 1.266 . S
C903 O889 1.248 . S
C904 Tb840 2.802 . S
C904 O884 1.264 . S
C904 O887 1.256 . S
C904 C897 1.496 . S
C905 C872 1.448 . S
C905 H882 0.930 . S
C905 C906 1.328 . S
C906 C877 1.427 . S
C906 H883 0.929 . S
C906 C905 1.328 . S
C907 O891 1.258 1_565 S
C907 O892 1.243 . S
C908 C911 1.399 . S
C908 C912 1.383 . S
C908 C915 1.496 . S
C909 C910 1.399 . S
C909 C912 1.389 . S
C910 C909 1.399 . S
C910 C913 1.380 . S
C910 H920 0.929 . S
C911 C908 1.399 . S
C911 C913 1.392 . S
C911 H921 0.929 . S
C912 C908 1.383 . S
C912 C909 1.389 . S
C912 H922 0.931 . S
C913 C910 1.380 . S
C913 C911 1.392 . S
C913 H923 0.929 . S
C914 O894 1.266 . S
C914 O895 1.248 1_545 S
C915 Tb851 2.802 . S
C915 O890 1.264 . S
C915 O893 1.256 . S
C915 C908 1.496 . S
H916 C899 0.929 . S
H917 C900 0.929 . S
H918 C901 0.929 . S
H919 C902 0.931 . S
H920 C910 0.929 . S
H921 C911 0.929 . S
H922 C912 0.931 . S
H923 C913 0.929 . S
Tb924 N953 2.617 . S
Tb924 N959 2.572 . S
Tb924 O968 2.465 . S
Tb924 O969 2.387 . S
Tb924 O971 2.428 . S
Tb924 O972 2.308 . S
Tb924 O976 2.349 . S
Tb924 O979 2.393 . S
Tb924 C988 2.802 . S
C925 N926 1.379 . S
C925 C928 1.416 . S
C925 C932 1.424 . S
N926 C925 1.379 . S
N926 C929 1.334 . S
N926 Tb935 2.617 . S
C927 C929 1.390 . S
C927 C930 1.339 . S
C927 H947 0.930 . S
C928 C925 1.416 . S
C928 C930 1.416 . S
C928 C934 1.448 . S
C929 N926 1.334 . S
C929 C927 1.390 . S
C929 H940 0.930 . S
C930 C927 1.339 . S
C930 C928 1.416 . S
C930 H951 0.930 . S
C931 C932 1.413 . S
C931 C933 1.427 . S
C931 C937 1.416 . S
C932 C925 1.424 . S
C932 C931 1.413 . S
C932 N936 1.361 . S
C933 C931 1.427 . S
C933 C934 1.328 . S
C933 H948 0.929 . S
C934 C928 1.448 . S
C934 C933 1.328 . S
C934 H949 0.930 . S
Tb935 N926 2.617 . S
Tb935 N936 2.572 . S
Tb935 O970 2.349 . S
Tb935 O973 2.393 . S
Tb935 O974 2.465 . S
Tb935 O975 2.387 . S
Tb935 O977 2.428 . S
Tb935 O978 2.308 . S
Tb935 C999 2.802 . S
N936 C932 1.361 . S
N936 Tb935 2.572 . S
N936 C938 1.340 . S
C937 C931 1.416 . S
C937 C939 1.332 . S
C937 H945 0.931 . S
C938 N936 1.340 . S
C938 C939 1.407 . S
C938 H944 0.930 . S
C939 C937 1.332 . S
C939 C938 1.407 . S
C939 H941 0.929 . S
H940 C929 0.930 . S
H941 C939 0.929 . S
H942 C957 0.930 . S
H943 C964 0.929 . S
H944 C938 0.930 . S
H945 C937 0.931 . S
H946 C960 0.930 . S
H947 C927 0.930 . S
H948 C933 0.929 . S
H949 C934 0.930 . S
H950 C955 0.930 . S
H951 C930 0.930 . S
H952 C963 0.931 . S
N953 Tb924 2.617 . S
N953 C954 1.379 . S
N953 C957 1.334 . S
C954 N953 1.379 . S
C954 C956 1.416 . S
C954 C962 1.424 . S
C955 H950 0.930 . S
C955 C957 1.390 . S
C955 C958 1.339 . S
C956 C954 1.416 . S
C956 C958 1.416 . S
C956 C989 1.448 . S
C957 H942 0.930 . S
C957 N953 1.334 . S
C957 C955 1.390 . S
C958 C955 1.339 . S
C958 C956 1.416 . S
C958 H965 0.930 . S
N959 Tb924 2.572 . S
N959 C960 1.340 . S
N959 C962 1.361 . S
C960 H946 0.930 . S
C960 N959 1.340 . S
C960 C964 1.407 . S
C961 C962 1.413 . S
C961 C963 1.416 . S
C961 C990 1.427 . S
C962 C954 1.424 . S
C962 N959 1.361 . S
C962 C961 1.413 . S
C963 H952 0.931 . S
C963 C961 1.416 . S
C963 C964 1.332 . S
C964 H943 0.929 . S
C964 C960 1.407 . S
C964 C963 1.332 . S
H965 C958 0.930 . S
H966 C989 0.930 . S
H967 C990 0.929 . S
O968 Tb924 2.465 . S
O968 C988 1.264 . S
O969 Tb924 2.387 . S
O969 C980 1.264 . S
O970 Tb935 2.349 . S
O970 C980 1.243 . S
O971 Tb924 2.428 . S
O971 C988 1.256 . S
O972 Tb924 2.308 . S
O972 C987 1.266 . S
O973 Tb935 2.393 . S
O973 C987 1.248 . S
O974 Tb935 2.465 . S
O974 C999 1.264 . S
O975 Tb935 2.387 . S
O975 C991 1.264 . S
O976 Tb924 2.349 . S
O976 C991 1.243 . S
O977 Tb935 2.428 . S
O977 C999 1.256 . S
O978 Tb935 2.308 . S
O978 C998 1.266 . S
O979 Tb924 2.393 . S
O979 C998 1.248 . S
C980 O969 1.264 . S
C980 O970 1.243 . S
C981 C984 1.399 . S
C981 C986 1.383 . S
C981 C988 1.496 . S
C982 C983 1.399 . S
C982 C986 1.389 . S
C983 C982 1.399 . S
C983 C985 1.380 . S
C983 H1000 0.929 . S
C984 C981 1.399 . S
C984 C985 1.392 . S
C984 H1001 0.929 . S
C985 C983 1.380 . S
C985 C984 1.392 . S
C985 H1002 0.929 . S
C986 C981 1.383 . S
C986 C982 1.389 . S
C986 H1003 0.931 . S
C987 O972 1.266 . S
C987 O973 1.248 . S
C988 Tb924 2.802 . S
C988 O968 1.264 . S
C988 O971 1.256 . S
C988 C981 1.496 . S
C989 C956 1.448 . S
C989 H966 0.930 . S
C989 C990 1.328 . S
C990 C961 1.427 . S
C990 H967 0.929 . S
C990 C989 1.328 . S
C991 O975 1.264 . S
C991 O976 1.243 . S
C992 C995 1.399 . S
C992 C996 1.383 . S
C992 C999 1.496 . S
C993 C994 1.399 . S
C993 C996 1.389 . S
C994 C993 1.399 . S
C994 C997 1.380 . S
C994 H1004 0.929 . S
C995 C992 1.399 . S
C995 C997 1.392 . S
C995 H1005 0.929 . S
C996 C992 1.383 . S
C996 C993 1.389 . S
C996 H1006 0.931 . S
C997 C994 1.380 . S
C997 C995 1.392 . S
C997 H1007 0.929 . S
C998 O978 1.266 . S
C998 O979 1.248 . S
C999 Tb935 2.802 . S
C999 O974 1.264 . S
C999 O977 1.256 . S
C999 C992 1.496 . S
H1000 C983 0.929 . S
H1001 C984 0.929 . S
H1002 C985 0.929 . S
H1003 C986 0.931 . S
H1004 C994 0.929 . S
H1005 C995 0.929 . S
H1006 C996 0.931 . S
H1007 C997 0.929 . S
C1008 C1009 1.349 . S
C1008 C1010 1.327 . S
C1008 H1033 0.950 . S
C1009 C1008 1.349 . S
C1009 C1025 1.349 . S
C1010 C1008 1.327 . S
C1010 C1029 1.429 . S
C1010 H1034 0.950 . S
C1011 C1028 1.574 . S
C1011 C1030 1.368 . S
C1011 H1035 0.949 . S
H1012 C1016 0.949 . S
C1013 C1014 1.349 . S
C1013 C1015 1.327 . S
C1013 H1036 0.950 . S
C1014 C1013 1.349 . S
C1014 C1026 1.349 . S
C1015 C1013 1.327 . S
C1015 C1031 1.429 . S
C1015 H1037 0.950 . S
C1016 H1012 0.949 . S
C1016 C1024 1.574 . S
C1016 C1032 1.368 . S
H1017 C1025 0.950 . S
H1018 C1023 0.950 . S
H1019 C1024 0.949 . S
H1020 C1026 0.950 . S
H1021 C1027 0.950 . S
H1022 C1028 0.949 . S
C1023 H1018 0.950 . S
C1023 C1025 1.327 . S
C1023 C1029 1.429 . S
C1024 C1016 1.574 . S
C1024 H1019 0.949 . S
C1024 C1030 1.368 . S
C1025 C1009 1.349 . S
C1025 H1017 0.950 . S
C1025 C1023 1.327 . S
C1026 C1014 1.349 . S
C1026 H1020 0.950 . S
C1026 C1027 1.327 . S
C1027 H1021 0.950 . S
C1027 C1026 1.327 . S
C1027 C1031 1.429 . S
C1028 C1011 1.574 . S
C1028 H1022 0.949 . S
C1028 C1032 1.368 . S
C1029 C1010 1.429 . S
C1029 C1023 1.429 . S
C1029 C1030 1.523 . S
C1030 C1011 1.368 . S
C1030 C1024 1.368 . S
C1030 C1029 1.523 . S
C1031 C1015 1.429 . S
C1031 C1027 1.429 . S
C1031 C1032 1.523 . S
C1032 C1016 1.368 . S
C1032 C1028 1.368 . S
C1032 C1031 1.523 . S
H1033 C1008 0.950 . S
H1034 C1010 0.950 . S
H1035 C1011 0.949 . S
H1036 C1013 0.950 . S
H1037 C1015 0.950 . S
C1038 C1039 1.349 . S
C1038 C1040 1.327 . S
C1038 H1063 0.950 . S
C1039 C1038 1.349 . S
C1039 C1055 1.349 1_565 S
C1040 C1038 1.327 . S
C1040 C1059 1.429 . S
C1040 H1064 0.950 . S
C1041 C1058 1.574 . S
C1041 C1060 1.368 . S
C1041 H1065 0.951 . S
H1042 C1046 0.949 . S
C1043 C1044 1.349 . S
C1043 C1045 1.327 . S
C1043 H1066 0.950 . S
C1044 C1043 1.349 . S
C1044 C1056 1.349 . S
C1045 C1043 1.327 . S
C1045 C1061 1.429 . S
C1045 H1067 0.950 . S
C1046 H1042 0.949 . S
C1046 C1054 1.574 . S
C1046 C1062 1.368 . S
H1047 C1055 0.950 . S
H1048 C1053 0.970 . S
H1049 C1054 0.949 . S
H1050 C1056 0.950 . S
H1051 C1057 0.950 . S
H1052 C1058 0.949 . S
C1053 H1048 0.970 . S
C1053 C1055 1.338 . S
C1053 C1059 1.399 1_545 S
C1054 C1046 1.574 . S
C1054 H1049 0.949 . S
C1054 C1060 1.368 . S
C1055 C1039 1.349 1_545 S
C1055 H1047 0.950 . S
C1055 C1053 1.338 . S
C1056 C1044 1.349 . S
C1056 H1050 0.950 . S
C1056 C1057 1.327 . S
C1057 H1051 0.950 . S
C1057 C1056 1.327 . S
C1057 C1061 1.429 . S
C1058 C1041 1.574 . S
C1058 H1052 0.949 . S
C1058 C1062 1.368 . S
C1059 C1040 1.429 . S
C1059 C1053 1.399 1_565 S
C1059 C1060 1.523 . S
C1060 C1041 1.368 . S
C1060 C1054 1.368 . S
C1060 C1059 1.523 . S
C1061 C1045 1.429 . S
C1061 C1057 1.429 . S
C1061 C1062 1.523 . S
C1062 C1046 1.368 . S
C1062 C1058 1.368 . S
C1062 C1061 1.523 . S
H1063 C1038 0.950 . S
H1064 C1040 0.950 . S
H1065 C1041 0.951 . S
H1066 C1043 0.950 . S
H1067 C1045 0.950 . S
C1068 C1069 1.349 . S
C1068 C1070 1.327 . S
C1068 H1093 0.950 . S
C1069 C1068 1.349 . S
C1069 C1085 1.349 1_554 S
C1070 C1068 1.327 . S
C1070 C1089 1.429 . S
C1070 H1094 0.950 . S
C1071 C1088 1.574 . S
C1071 C1090 1.368 . S
C1071 H1095 0.949 . S
H1072 C1076 0.949 . S
C1073 C1074 1.349 . S
C1073 C1075 1.327 . S
C1073 H1096 0.950 . S
C1074 C1073 1.349 . S
C1074 C1086 1.349 . S
C1075 C1073 1.327 . S
C1075 C1091 1.429 . S
C1075 H1097 0.950 . S
C1076 H1072 0.949 . S
C1076 C1084 1.574 . S
C1076 C1092 1.368 . S
H1077 C1085 0.950 . S
H1078 C1083 0.959 . S
H1079 C1084 0.949 . S
H1080 C1086 0.950 . S
H1081 C1087 0.950 . S
H1082 C1088 0.949 . S
C1083 H1078 0.959 . S
C1083 C1085 1.333 . S
C1083 C1089 1.414 1_556 S
C1084 C1076 1.574 . S
C1084 H1079 0.949 . S
C1084 C1090 1.368 . S
C1085 C1069 1.349 1_556 S
C1085 H1077 0.950 . S
C1085 C1083 1.333 . S
C1086 C1074 1.349 . S
C1086 H1080 0.950 . S
C1086 C1087 1.327 . S
C1087 H1081 0.950 . S
C1087 C1086 1.327 . S
C1087 C1091 1.429 . S
C1088 C1071 1.574 . S
C1088 H1082 0.949 . S
C1088 C1092 1.368 . S
C1089 C1070 1.429 . S
C1089 C1083 1.414 1_554 S
C1089 C1090 1.523 . S
C1090 C1071 1.368 . S
C1090 C1084 1.368 . S
C1090 C1089 1.523 . S
C1091 C1075 1.429 . S
C1091 C1087 1.429 . S
C1091 C1092 1.523 . S
C1092 C1076 1.368 . S
C1092 C1088 1.368 . S
C1092 C1091 1.523 . S
H1093 C1068 0.950 . S
H1094 C1070 0.950 . S
H1095 C1071 0.949 . S
H1096 C1073 0.950 . S
H1097 C1075 0.950 . S
C1098 C1099 1.349 . S
C1098 C1100 1.327 . S
C1098 H1123 0.950 . S
C1099 C1098 1.349 . S
C1099 C1115 1.349 . S
C1100 C1098 1.327 . S
C1100 C1119 1.429 . S
C1100 H1124 0.950 . S
C1101 C1118 1.574 . S
C1101 C1120 1.368 . S
C1101 H1125 0.949 . S
H1102 C1106 0.949 . S
C1103 C1104 1.349 . S
C1103 C1105 1.327 . S
C1103 H1126 0.950 . S
C1104 C1103 1.349 . S
C1104 C1116 1.349 . S
C1105 C1103 1.327 . S
C1105 C1121 1.429 . S
C1105 H1127 0.950 . S
C1106 H1102 0.949 . S
C1106 C1114 1.574 . S
C1106 C1122 1.368 . S
H1107 C1115 0.950 . S
H1108 C1113 0.950 . S
H1109 C1114 0.949 . S
H1110 C1116 0.950 . S
H1111 C1117 0.950 . S
H1112 C1118 0.949 . S
C1113 H1108 0.950 . S
C1113 C1115 1.327 . S
C1113 C1119 1.429 . S
C1114 C1106 1.574 . S
C1114 H1109 0.949 . S
C1114 C1120 1.368 . S
C1115 C1099 1.349 . S
C1115 H1107 0.950 . S
C1115 C1113 1.327 . S
C1116 C1104 1.349 . S
C1116 H1110 0.950 . S
C1116 C1117 1.327 . S
C1117 H1111 0.950 . S
C1117 C1116 1.327 . S
C1117 C1121 1.429 . S
C1118 C1101 1.574 . S
C1118 H1112 0.949 . S
C1118 C1122 1.368 . S
C1119 C1100 1.429 . S
C1119 C1113 1.429 . S
C1119 C1120 1.523 . S
C1120 C1101 1.368 . S
C1120 C1114 1.368 . S
C1120 C1119 1.523 . S
C1121 C1105 1.429 . S
C1121 C1117 1.429 . S
C1121 C1122 1.523 . S
C1122 C1106 1.368 . S
C1122 C1118 1.368 . S
C1122 C1121 1.523 . S
H1123 C1098 0.950 . S
H1124 C1100 0.950 . S
H1125 C1101 0.949 . S
H1126 C1103 0.950 . S
H1127 C1105 0.950 . S
C1128 C1129 1.349 . S
C1128 C1130 1.327 . S
C1128 H1153 0.950 . S
C1129 C1128 1.349 . S
C1129 C1145 1.349 . S
C1130 C1128 1.327 . S
C1130 C1149 1.429 . S
C1130 H1154 0.950 . S
C1131 C1148 1.574 . S
C1131 C1150 1.368 . S
C1131 H1155 0.949 . S
H1132 C1136 0.949 . S
C1133 C1134 1.349 . S
C1133 C1135 1.327 . S
C1133 H1156 0.950 . S
C1134 C1133 1.349 . S
C1134 C1146 1.349 . S
C1135 C1133 1.327 . S
C1135 C1151 1.429 . S
C1135 H1157 0.950 . S
C1136 H1132 0.949 . S
C1136 C1144 1.574 . S
C1136 C1152 1.368 . S
H1137 C1145 0.950 . S
H1138 C1143 0.950 . S
H1139 C1144 0.949 . S
H1140 C1146 0.950 . S
H1141 C1147 0.950 . S
H1142 C1148 0.949 . S
C1143 H1138 0.950 . S
C1143 C1145 1.327 . S
C1143 C1149 1.429 . S
C1144 C1136 1.574 . S
C1144 H1139 0.949 . S
C1144 C1150 1.368 . S
C1145 C1129 1.349 . S
C1145 H1137 0.950 . S
C1145 C1143 1.327 . S
C1146 C1134 1.349 . S
C1146 H1140 0.950 . S
C1146 C1147 1.327 . S
C1147 H1141 0.950 . S
C1147 C1146 1.327 . S
C1147 C1151 1.429 . S
C1148 C1131 1.574 . S
C1148 H1142 0.949 . S
C1148 C1152 1.368 . S
C1149 C1130 1.429 . S
C1149 C1143 1.429 . S
C1149 C1150 1.523 . S
C1150 C1131 1.368 . S
C1150 C1144 1.368 . S
C1150 C1149 1.523 . S
C1151 C1135 1.429 . S
C1151 C1147 1.429 . S
C1151 C1152 1.523 . S
C1152 C1136 1.368 . S
C1152 C1148 1.368 . S
C1152 C1151 1.523 . S
H1153 C1128 0.950 . S
H1154 C1130 0.950 . S
H1155 C1131 0.949 . S
H1156 C1133 0.950 . S
H1157 C1135 0.950 . S
C1158 C1159 1.349 . S
C1158 C1160 1.327 . S
C1158 H1183 0.950 . S
C1159 C1158 1.349 . S
C1159 C1175 1.349 . S
C1160 C1158 1.327 . S
C1160 C1179 1.429 . S
C1160 H1184 0.950 . S
C1161 C1178 1.574 . S
C1161 C1180 1.368 . S
C1161 H1185 0.949 . S
H1162 C1166 0.949 . S
C1163 C1164 1.349 . S
C1163 C1165 1.327 . S
C1163 H1186 0.950 . S
C1164 C1163 1.349 . S
C1164 C1176 1.349 . S
C1165 C1163 1.327 . S
C1165 C1181 1.429 . S
C1165 H1187 0.950 . S
C1166 H1162 0.949 . S
C1166 C1174 1.574 . S
C1166 C1182 1.368 . S
H1167 C1175 0.950 . S
H1168 C1173 0.950 . S
H1169 C1174 0.949 . S
H1170 C1176 0.950 . S
H1171 C1177 0.950 . S
H1172 C1178 0.949 . S
C1173 H1168 0.950 . S
C1173 C1175 1.327 . S
C1173 C1179 1.429 . S
C1174 C1166 1.574 . S
C1174 H1169 0.949 . S
C1174 C1180 1.368 . S
C1175 C1159 1.349 . S
C1175 H1167 0.950 . S
C1175 C1173 1.327 . S
C1176 C1164 1.349 . S
C1176 H1170 0.950 . S
C1176 C1177 1.327 . S
C1177 H1171 0.950 . S
C1177 C1176 1.327 . S
C1177 C1181 1.429 . S
C1178 C1161 1.574 . S
C1178 H1172 0.949 . S
C1178 C1182 1.368 . S
C1179 C1160 1.429 . S
C1179 C1173 1.429 . S
C1179 C1180 1.523 . S
C1180 C1161 1.368 . S
C1180 C1174 1.368 . S
C1180 C1179 1.523 . S
C1181 C1165 1.429 . S
C1181 C1177 1.429 . S
C1181 C1182 1.523 . S
C1182 C1166 1.368 . S
C1182 C1178 1.368 . S
C1182 C1181 1.523 . S
H1183 C1158 0.950 . S
H1184 C1160 0.950 . S
H1185 C1161 0.949 . S
H1186 C1163 0.950 . S
H1187 C1165 0.950 . S
C1188 C1189 1.349 . S
C1188 C1190 1.327 . S
C1188 H1213 0.950 . S
C1189 C1188 1.349 . S
C1189 C1205 1.349 . S
C1190 C1188 1.327 . S
C1190 C1209 1.429 . S
C1190 H1214 0.950 . S
C1191 C1208 1.574 . S
C1191 C1210 1.368 . S
C1191 H1215 0.949 . S
H1192 C1196 0.949 . S
C1193 C1194 1.349 . S
C1193 C1195 1.327 . S
C1193 H1216 0.950 . S
C1194 C1193 1.349 . S
C1194 C1206 1.349 1_556 S
C1195 C1193 1.327 . S
C1195 C1211 1.429 . S
C1195 H1217 0.950 . S
C1196 H1192 0.949 . S
C1196 C1204 1.574 . S
C1196 C1212 1.368 . S
H1197 C1205 0.950 . S
H1198 C1203 0.950 . S
H1199 C1204 0.949 . S
H1200 C1206 0.950 . S
H1201 C1207 0.951 1_554 S
H1202 C1208 0.949 . S
C1203 H1198 0.950 . S
C1203 C1205 1.327 . S
C1203 C1209 1.429 . S
C1204 C1196 1.574 . S
C1204 H1199 0.949 . S
C1204 C1210 1.368 . S
C1205 C1189 1.349 . S
C1205 H1197 0.950 . S
C1205 C1203 1.327 . S
C1206 C1194 1.349 1_554 S
C1206 H1200 0.950 . S
C1206 C1207 1.328 1_554 S
C1207 H1201 0.951 1_556 S
C1207 C1206 1.328 1_556 S
C1207 C1211 1.427 . S
C1208 C1191 1.574 . S
C1208 H1202 0.949 . S
C1208 C1212 1.368 . S
C1209 C1190 1.429 . S
C1209 C1203 1.429 . S
C1209 C1210 1.523 . S
C1210 C1191 1.368 . S
C1210 C1204 1.368 . S
C1210 C1209 1.523 . S
C1211 C1195 1.429 . S
C1211 C1207 1.427 . S
C1211 C1212 1.523 . S
C1212 C1196 1.368 . S
C1212 C1208 1.368 . S
C1212 C1211 1.523 . S
H1213 C1188 0.950 . S
H1214 C1190 0.950 . S
H1215 C1191 0.949 . S
H1216 C1193 0.950 . S
H1217 C1195 0.950 . S
C1218 C1219 1.349 . S
C1218 C1220 1.327 . S
C1218 H1243 0.950 . S
C1219 C1218 1.349 . S
C1219 C1235 1.349 . S
C1220 C1218 1.327 . S
C1220 C1239 1.429 . S
C1220 H1244 0.950 . S
C1221 C1238 1.574 . S
C1221 C1240 1.368 . S
C1221 H1245 0.949 . S
H1222 C1226 0.949 . S
C1223 C1224 1.349 . S
C1223 C1225 1.327 . S
C1223 H1246 0.950 . S
C1224 C1223 1.349 . S
C1224 C1236 1.349 . S
C1225 C1223 1.327 . S
C1225 C1241 1.429 . S
C1225 H1247 0.950 . S
C1226 H1222 0.949 . S
C1226 C1234 1.574 . S
C1226 C1242 1.368 . S
H1227 C1235 0.950 . S
H1228 C1233 0.950 . S
H1229 C1234 0.949 . S
H1230 C1236 0.950 . S
H1231 C1237 0.950 . S
H1232 C1238 0.949 . S
C1233 H1228 0.950 . S
C1233 C1235 1.327 . S
C1233 C1239 1.429 . S
C1234 C1226 1.574 . S
C1234 H1229 0.949 . S
C1234 C1240 1.368 . S
C1235 C1219 1.349 . S
C1235 H1227 0.950 . S
C1235 C1233 1.327 . S
C1236 C1224 1.349 . S
C1236 H1230 0.950 . S
C1236 C1237 1.327 . S
C1237 H1231 0.950 . S
C1237 C1236 1.327 . S
C1237 C1241 1.429 . S
C1238 C1221 1.574 . S
C1238 H1232 0.949 . S
C1238 C1242 1.368 . S
C1239 C1220 1.429 . S
C1239 C1233 1.429 . S
C1239 C1240 1.523 . S
C1240 C1221 1.368 . S
C1240 C1234 1.368 . S
C1240 C1239 1.523 . S
C1241 C1225 1.429 . S
C1241 C1237 1.429 . S
C1241 C1242 1.523 . S
C1242 C1226 1.368 . S
C1242 C1238 1.368 . S
C1242 C1241 1.523 . S
H1243 C1218 0.950 . S
H1244 C1220 0.950 . S
H1245 C1221 0.949 . S
H1246 C1223 0.950 . S
H1247 C1225 0.950 . S
C1248 C1249 1.349 . S
C1248 C1250 1.327 . S
C1248 H1273 0.950 . S
C1249 C1248 1.349 . S
C1249 C1265 1.349 . S
C1250 C1248 1.327 . S
C1250 C1269 1.429 . S
C1250 H1274 0.950 . S
C1251 C1268 1.574 . S
C1251 C1270 1.368 . S
C1251 H1275 0.949 . S
H1252 C1256 0.949 . S
C1253 C1254 1.349 . S
C1253 C1255 1.327 . S
C1253 H1276 0.950 . S
C1254 C1253 1.349 . S
C1254 C1266 1.349 . S
C1255 C1253 1.327 . S
C1255 C1271 1.429 . S
C1255 H1277 0.950 . S
C1256 H1252 0.949 . S
C1256 C1264 1.574 . S
C1256 C1272 1.368 . S
H1257 C1265 0.950 . S
H1258 C1263 0.950 . S
H1259 C1264 0.949 . S
H1260 C1266 0.950 . S
H1261 C1267 0.950 . S
H1262 C1268 0.949 . S
C1263 H1258 0.950 . S
C1263 C1265 1.327 . S
C1263 C1269 1.429 . S
C1264 C1256 1.574 . S
C1264 H1259 0.949 . S
C1264 C1270 1.368 . S
C1265 C1249 1.349 . S
C1265 H1257 0.950 . S
C1265 C1263 1.327 . S
C1266 C1254 1.349 . S
C1266 H1260 0.950 . S
C1266 C1267 1.327 . S
C1267 H1261 0.950 . S
C1267 C1266 1.327 . S
C1267 C1271 1.429 . S
C1268 C1251 1.574 . S
C1268 H1262 0.949 . S
C1268 C1272 1.368 . S
C1269 C1250 1.429 . S
C1269 C1263 1.429 . S
C1269 C1270 1.523 . S
C1270 C1251 1.368 . S
C1270 C1264 1.368 . S
C1270 C1269 1.523 . S
C1271 C1255 1.429 . S
C1271 C1267 1.429 . S
C1271 C1272 1.523 . S
C1272 C1256 1.368 . S
C1272 C1268 1.368 . S
C1272 C1271 1.523 . S
H1273 C1248 0.950 . S
H1274 C1250 0.950 . S
H1275 C1251 0.949 . S
H1276 C1253 0.950 . S
H1277 C1255 0.950 . S
C1278 C1279 1.349 . S
C1278 C1280 1.327 . S
C1278 H1303 0.950 . S
C1279 C1278 1.349 . S
C1279 C1295 1.349 . S
C1280 C1278 1.327 . S
C1280 C1299 1.429 . S
C1280 H1304 0.950 . S
C1281 C1298 1.574 . S
C1281 C1300 1.368 . S
C1281 H1305 0.949 . S
H1282 C1286 0.949 . S
C1283 C1284 1.349 1_655 S
C1283 C1285 1.327 1_655 S
C1283 H1306 0.950 . S
C1284 C1283 1.349 1_455 S
C1284 C1296 1.349 . S
C1285 C1283 1.327 1_455 S
C1285 C1301 1.429 . S
C1285 H1307 0.950 . S
C1286 H1282 0.949 . S
C1286 C1294 1.574 . S
C1286 C1302 1.368 . S
H1287 C1295 0.950 . S
H1288 C1293 0.950 . S
H1289 C1294 0.949 . S
H1290 C1296 0.950 . S
H1291 C1297 0.950 . S
H1292 C1298 0.949 . S
C1293 H1288 0.950 . S
C1293 C1295 1.327 . S
C1293 C1299 1.429 . S
C1294 C1286 1.574 . S
C1294 H1289 0.949 . S
C1294 C1300 1.368 . S
C1295 C1279 1.349 . S
C1295 H1287 0.950 . S
C1295 C1293 1.327 . S
C1296 C1284 1.349 . S
C1296 H1290 0.950 . S
C1296 C1297 1.327 . S
C1297 H1291 0.950 . S
C1297 C1296 1.327 . S
C1297 C1301 1.429 . S
C1298 C1281 1.574 . S
C1298 H1292 0.949 . S
C1298 C1302 1.368 . S
C1299 C1280 1.429 . S
C1299 C1293 1.429 . S
C1299 C1300 1.523 . S
C1300 C1281 1.368 . S
C1300 C1294 1.368 . S
C1300 C1299 1.523 . S
C1301 C1285 1.429 . S
C1301 C1297 1.429 . S
C1301 C1302 1.523 . S
C1302 C1286 1.368 . S
C1302 C1298 1.368 . S
C1302 C1301 1.523 . S
H1303 C1278 0.950 . S
H1304 C1280 0.950 . S
H1305 C1281 0.949 . S
H1306 C1283 0.950 . S
H1307 C1285 0.950 . S
C1308 C1309 1.349 1_455 S
C1308 C1310 1.327 1_455 S
C1308 H1333 0.950 . S
C1309 C1308 1.349 1_655 S
C1309 C1325 1.349 . S
C1310 C1308 1.327 1_655 S
C1310 C1329 1.429 . S
C1310 H1334 0.950 1_655 S
C1311 C1328 1.574 . S
C1311 C1330 1.368 . S
C1311 H1335 0.949 . S
H1312 C1316 0.949 . S
C1313 C1314 1.349 . S
C1313 C1315 1.327 . S
C1313 H1336 0.950 . S
C1314 C1313 1.349 . S
C1314 C1326 1.349 . S
C1315 C1313 1.327 . S
C1315 C1331 1.429 . S
C1315 H1337 0.950 . S
C1316 H1312 0.949 . S
C1316 C1324 1.574 . S
C1316 C1332 1.368 . S
H1317 C1325 0.950 . S
H1318 C1323 0.950 . S
H1319 C1324 0.949 . S
H1320 C1326 0.950 . S
H1321 C1327 0.950 . S
H1322 C1328 0.949 . S
C1323 H1318 0.950 . S
C1323 C1325 1.327 . S
C1323 C1329 1.429 . S
C1324 C1316 1.574 . S
C1324 H1319 0.949 . S
C1324 C1330 1.368 . S
C1325 C1309 1.349 . S
C1325 H1317 0.950 . S
C1325 C1323 1.327 . S
C1326 C1314 1.349 . S
C1326 H1320 0.950 . S
C1326 C1327 1.327 . S
C1327 H1321 0.950 . S
C1327 C1326 1.327 . S
C1327 C1331 1.429 . S
C1328 C1311 1.574 . S
C1328 H1322 0.949 . S
C1328 C1332 1.368 . S
C1329 C1310 1.429 . S
C1329 C1323 1.429 . S
C1329 C1330 1.523 . S
C1330 C1311 1.368 . S
C1330 C1324 1.368 . S
C1330 C1329 1.523 . S
C1331 C1315 1.429 . S
C1331 C1327 1.429 . S
C1331 C1332 1.523 . S
C1332 C1316 1.368 . S
C1332 C1328 1.368 . S
C1332 C1331 1.523 . S
H1333 C1308 0.950 . S
H1334 C1310 0.950 1_455 S
H1335 C1311 0.949 . S
H1336 C1313 0.950 . S
H1337 C1315 0.950 . S
C1338 C1339 1.349 . S
C1338 C1340 1.327 . S
C1338 H1363 0.950 . S
C1339 C1338 1.349 . S
C1339 C1355 1.349 . S
C1340 C1338 1.327 . S
C1340 C1359 1.429 . S
C1340 H1364 0.950 . S
C1341 C1358 1.574 . S
C1341 C1360 1.368 . S
C1341 H1365 0.949 . S
H1342 C1346 0.949 . S
C1343 C1344 1.349 . S
C1343 C1345 1.327 . S
C1343 H1366 0.950 . S
C1344 C1343 1.349 . S
C1344 C1356 1.349 . S
C1345 C1343 1.327 . S
C1345 C1361 1.429 . S
C1345 H1367 0.950 . S
C1346 H1342 0.949 . S
C1346 C1354 1.574 . S
C1346 C1362 1.368 . S
H1347 C1355 0.950 . S
H1348 C1353 0.950 . S
H1349 C1354 0.949 . S
H1350 C1356 0.950 . S
H1351 C1357 0.950 . S
H1352 C1358 0.949 . S
C1353 H1348 0.950 . S
C1353 C1355 1.327 . S
C1353 C1359 1.429 . S
C1354 C1346 1.574 . S
C1354 H1349 0.949 . S
C1354 C1360 1.368 . S
C1355 C1339 1.349 . S
C1355 H1347 0.950 . S
C1355 C1353 1.327 . S
C1356 C1344 1.349 . S
C1356 H1350 0.950 . S
C1356 C1357 1.327 . S
C1357 H1351 0.950 . S
C1357 C1356 1.327 . S
C1357 C1361 1.429 . S
C1358 C1341 1.574 . S
C1358 H1352 0.949 . S
C1358 C1362 1.368 . S
C1359 C1340 1.429 . S
C1359 C1353 1.429 . S
C1359 C1360 1.523 . S
C1360 C1341 1.368 . S
C1360 C1354 1.368 . S
C1360 C1359 1.523 . S
C1361 C1345 1.429 . S
C1361 C1357 1.429 . S
C1361 C1362 1.523 . S
C1362 C1346 1.368 . S
C1362 C1358 1.368 . S
C1362 C1361 1.523 . S
H1363 C1338 0.950 . S
H1364 C1340 0.950 . S
H1365 C1341 0.949 . S
H1366 C1343 0.950 . S
H1367 C1345 0.950 . S
C1368 C1369 1.349 . S
C1368 C1370 1.327 . S
C1368 H1393 0.950 . S
C1369 C1368 1.349 . S
C1369 C1385 1.349 . S
C1370 C1368 1.327 . S
C1370 C1389 1.429 . S
C1370 H1394 0.950 . S
C1371 C1388 1.574 . S
C1371 C1390 1.368 . S
C1371 H1395 0.949 . S
H1372 C1376 0.949 . S
C1373 C1374 1.349 . S
C1373 C1375 1.327 . S
C1373 H1396 0.950 . S
C1374 C1373 1.349 . S
C1374 C1386 1.349 . S
C1375 C1373 1.327 . S
C1375 C1391 1.429 . S
C1375 H1397 0.950 . S
C1376 H1372 0.949 . S
C1376 C1384 1.574 . S
C1376 C1392 1.368 . S
H1377 C1385 0.950 . S
H1378 C1383 0.950 . S
H1379 C1384 0.949 . S
H1380 C1386 0.950 . S
H1381 C1387 0.950 . S
H1382 C1388 0.949 . S
C1383 H1378 0.950 . S
C1383 C1385 1.327 . S
C1383 C1389 1.429 . S
C1384 C1376 1.574 . S
C1384 H1379 0.949 . S
C1384 C1390 1.368 . S
C1385 C1369 1.349 . S
C1385 H1377 0.950 . S
C1385 C1383 1.327 . S
C1386 C1374 1.349 . S
C1386 H1380 0.950 . S
C1386 C1387 1.327 . S
C1387 H1381 0.950 . S
C1387 C1386 1.327 . S
C1387 C1391 1.429 . S
C1388 C1371 1.574 . S
C1388 H1382 0.949 . S
C1388 C1392 1.368 . S
C1389 C1370 1.429 . S
C1389 C1383 1.429 . S
C1389 C1390 1.523 . S
C1390 C1371 1.368 . S
C1390 C1384 1.368 . S
C1390 C1389 1.523 . S
C1391 C1375 1.429 . S
C1391 C1387 1.429 . S
C1391 C1392 1.523 . S
C1392 C1376 1.368 . S
C1392 C1388 1.368 . S
C1392 C1391 1.523 . S
H1393 C1368 0.950 . S
H1394 C1370 0.950 . S
H1395 C1371 0.949 . S
H1396 C1373 0.950 . S
H1397 C1375 0.950 . S
C1398 C1399 1.349 . S
C1398 C1400 1.327 . S
C1398 H1423 0.950 . S
C1399 C1398 1.349 . S
C1399 C1415 1.349 . S
C1400 C1398 1.327 . S
C1400 C1419 1.429 . S
C1400 H1424 0.950 . S
C1401 C1418 1.574 . S
C1401 C1420 1.368 . S
C1401 H1425 0.949 . S
H1402 C1406 0.949 . S
C1403 C1404 1.349 . S
C1403 C1405 1.327 . S
C1403 H1426 0.950 . S
C1404 C1403 1.349 . S
C1404 C1416 1.349 . S
C1405 C1403 1.327 . S
C1405 C1421 1.429 . S
C1405 H1427 0.950 . S
C1406 H1402 0.949 . S
C1406 C1414 1.574 . S
C1406 C1422 1.368 . S
H1407 C1415 0.950 . S
H1408 C1413 0.950 . S
H1409 C1414 0.949 . S
H1410 C1416 0.950 . S
H1411 C1417 0.950 . S
H1412 C1418 0.949 . S
C1413 H1408 0.950 . S
C1413 C1415 1.327 . S
C1413 C1419 1.429 . S
C1414 C1406 1.574 . S
C1414 H1409 0.949 . S
C1414 C1420 1.368 . S
C1415 C1399 1.349 . S
C1415 H1407 0.950 . S
C1415 C1413 1.327 . S
C1416 C1404 1.349 . S
C1416 H1410 0.950 . S
C1416 C1417 1.327 . S
C1417 H1411 0.950 . S
C1417 C1416 1.327 . S
C1417 C1421 1.429 . S
C1418 C1401 1.574 . S
C1418 H1412 0.949 . S
C1418 C1422 1.368 . S
C1419 C1400 1.429 . S
C1419 C1413 1.429 . S
C1419 C1420 1.523 . S
C1420 C1401 1.368 . S
C1420 C1414 1.368 . S
C1420 C1419 1.523 . S
C1421 C1405 1.429 . S
C1421 C1417 1.429 . S
C1421 C1422 1.523 . S
C1422 C1406 1.368 . S
C1422 C1418 1.368 . S
C1422 C1421 1.523 . S
H1423 C1398 0.950 . S
H1424 C1400 0.950 . S
H1425 C1401 0.949 . S
H1426 C1403 0.950 . S
H1427 C1405 0.950 . S
C1428 C1429 1.349 . S
C1428 C1430 1.327 . S
C1428 H1453 0.950 . S
C1429 C1428 1.349 . S
C1429 C1445 1.349 . S
C1430 C1428 1.327 . S
C1430 C1449 1.429 . S
C1430 H1454 0.950 . S
C1431 C1448 1.574 . S
C1431 C1450 1.368 . S
C1431 H1455 0.949 . S
H1432 C1436 0.949 . S
C1433 C1434 1.349 . S
C1433 C1435 1.327 . S
C1433 H1456 0.950 . S
C1434 C1433 1.349 . S
C1434 C1446 1.349 . S
C1435 C1433 1.327 . S
C1435 C1451 1.429 . S
C1435 H1457 0.950 . S
C1436 H1432 0.949 . S
C1436 C1444 1.574 . S
C1436 C1452 1.368 . S
H1437 C1445 0.950 . S
H1438 C1443 0.950 . S
H1439 C1444 0.949 . S
H1440 C1446 0.950 . S
H1441 C1447 0.950 . S
H1442 C1448 0.949 . S
C1443 H1438 0.950 . S
C1443 C1445 1.327 . S
C1443 C1449 1.429 . S
C1444 C1436 1.574 . S
C1444 H1439 0.949 . S
C1444 C1450 1.368 . S
C1445 C1429 1.349 . S
C1445 H1437 0.950 . S
C1445 C1443 1.327 . S
C1446 C1434 1.349 . S
C1446 H1440 0.950 . S
C1446 C1447 1.327 . S
C1447 H1441 0.950 . S
C1447 C1446 1.327 . S
C1447 C1451 1.429 . S
C1448 C1431 1.574 . S
C1448 H1442 0.949 . S
C1448 C1452 1.368 . S
C1449 C1430 1.429 . S
C1449 C1443 1.429 . S
C1449 C1450 1.523 . S
C1450 C1431 1.368 . S
C1450 C1444 1.368 . S
C1450 C1449 1.523 . S
C1451 C1435 1.429 . S
C1451 C1447 1.429 . S
C1451 C1452 1.523 . S
C1452 C1436 1.368 . S
C1452 C1448 1.368 . S
C1452 C1451 1.523 . S
H1453 C1428 0.950 . S
H1454 C1430 0.950 . S
H1455 C1431 0.949 . S
H1456 C1433 0.950 . S
H1457 C1435 0.950 . S
C1458 C1459 1.349 . S
C1458 C1460 1.327 . S
C1458 H1483 0.950 . S
C1459 C1458 1.349 . S
C1459 C1475 1.349 . S
C1460 C1458 1.327 . S
C1460 C1479 1.429 . S
C1460 H1484 0.950 . S
C1461 C1478 1.574 . S
C1461 C1480 1.368 . S
C1461 H1485 0.949 . S
H1462 C1466 0.929 1_556 S
C1463 C1464 1.349 . S
C1463 C1465 1.327 . S
C1463 H1486 0.950 . S
C1464 C1463 1.349 . S
C1464 C1476 1.349 . S
C1465 C1463 1.327 . S
C1465 C1481 1.429 . S
C1465 H1487 0.950 . S
C1466 H1462 0.929 1_554 S
C1466 C1474 1.606 . S
C1466 C1482 1.360 1_554 S
H1467 C1475 0.950 . S
H1468 C1473 0.950 . S
H1469 C1474 0.949 . S
H1470 C1476 0.950 . S
H1471 C1477 0.950 . S
H1472 C1478 0.949 1_556 S
C1473 H1468 0.950 . S
C1473 C1475 1.327 . S
C1473 C1479 1.429 . S
C1474 C1466 1.606 . S
C1474 H1469 0.949 . S
C1474 C1480 1.368 . S
C1475 C1459 1.349 . S
C1475 H1467 0.950 . S
C1475 C1473 1.327 . S
C1476 C1464 1.349 . S
C1476 H1470 0.950 . S
C1476 C1477 1.327 . S
C1477 H1471 0.950 . S
C1477 C1476 1.327 . S
C1477 C1481 1.429 . S
C1478 C1461 1.574 . S
C1478 H1472 0.949 1_554 S
C1478 C1482 1.368 1_554 S
C1479 C1460 1.429 . S
C1479 C1473 1.429 . S
C1479 C1480 1.523 . S
C1480 C1461 1.368 . S
C1480 C1474 1.368 . S
C1480 C1479 1.523 . S
C1481 C1465 1.429 . S
C1481 C1477 1.429 . S
C1481 C1482 1.523 . S
C1482 C1466 1.360 1_556 S
C1482 C1478 1.368 1_556 S
C1482 C1481 1.523 . S
H1483 C1458 0.950 . S
H1484 C1460 0.950 . S
H1485 C1461 0.949 . S
H1486 C1463 0.950 . S
H1487 C1465 0.950 . S
C1488 C1489 1.349 . S
C1488 C1490 1.327 . S
C1488 H1513 0.950 . S
C1489 C1488 1.349 . S
C1489 C1505 1.349 . S
C1490 C1488 1.327 . S
C1490 C1509 1.429 . S
C1490 H1514 0.950 . S
C1491 C1508 1.574 . S
C1491 C1510 1.368 . S
C1491 H1515 0.949 . S
H1492 C1496 0.949 . S
C1493 C1494 1.349 . S
C1493 C1495 1.327 . S
C1493 H1516 0.950 . S
C1494 C1493 1.349 . S
C1494 C1506 1.349 . S
C1495 C1493 1.327 . S
C1495 C1511 1.429 . S
C1495 H1517 0.950 . S
C1496 H1492 0.949 . S
C1496 C1504 1.574 . S
C1496 C1512 1.368 . S
H1497 C1505 0.950 . S
H1498 C1503 0.950 . S
H1499 C1504 0.949 . S
H1500 C1506 0.950 . S
H1501 C1507 0.950 . S
H1502 C1508 0.949 . S
C1503 H1498 0.950 . S
C1503 C1505 1.327 . S
C1503 C1509 1.429 . S
C1504 C1496 1.574 . S
C1504 H1499 0.949 . S
C1504 C1510 1.368 . S
C1505 C1489 1.349 . S
C1505 H1497 0.950 . S
C1505 C1503 1.327 . S
C1506 C1494 1.349 . S
C1506 H1500 0.950 . S
C1506 C1507 1.327 . S
C1507 H1501 0.950 . S
C1507 C1506 1.327 . S
C1507 C1511 1.429 . S
C1508 C1491 1.574 . S
C1508 H1502 0.949 . S
C1508 C1512 1.368 . S
C1509 C1490 1.429 . S
C1509 C1503 1.429 . S
C1509 C1510 1.523 . S
C1510 C1491 1.368 . S
C1510 C1504 1.368 . S
C1510 C1509 1.523 . S
C1511 C1495 1.429 . S
C1511 C1507 1.429 . S
C1511 C1512 1.523 . S
C1512 C1496 1.368 . S
C1512 C1508 1.368 . S
C1512 C1511 1.523 . S
H1513 C1488 0.950 . S
H1514 C1490 0.950 . S
H1515 C1491 0.949 . S
H1516 C1493 0.950 . S
H1517 C1495 0.950 . S
C1518 C1519 1.349 . S
C1518 C1520 1.327 . S
C1518 H1543 0.950 . S
C1519 C1518 1.349 . S
C1519 C1535 1.349 . S
C1520 C1518 1.327 . S
C1520 C1539 1.429 . S
C1520 H1544 0.950 . S
C1521 C1538 1.559 1_554 S
C1521 C1540 1.367 1_554 S
C1521 H1545 0.963 . S
H1522 C1526 0.949 . S
C1523 C1524 1.349 . S
C1523 C1525 1.327 . S
C1523 H1546 0.950 . S
C1524 C1523 1.349 . S
C1524 C1536 1.349 . S
C1525 C1523 1.327 . S
C1525 C1541 1.429 . S
C1525 H1547 0.950 . S
C1526 H1522 0.949 . S
C1526 C1534 1.574 . S
C1526 C1542 1.368 . S
H1527 C1535 0.950 . S
H1528 C1533 0.950 . S
H1529 C1534 0.949 . S
H1530 C1536 0.950 . S
H1531 C1537 0.950 . S
H1532 C1538 0.949 . S
C1533 H1528 0.950 . S
C1533 C1535 1.327 . S
C1533 C1539 1.429 . S
C1534 C1526 1.574 . S
C1534 H1529 0.949 . S
C1534 C1540 1.368 . S
C1535 C1519 1.349 . S
C1535 H1527 0.950 . S
C1535 C1533 1.327 . S
C1536 C1524 1.349 . S
C1536 H1530 0.950 . S
C1536 C1537 1.327 . S
C1537 H1531 0.950 . S
C1537 C1536 1.327 . S
C1537 C1541 1.429 . S
C1538 C1521 1.559 1_556 S
C1538 H1532 0.949 . S
C1538 C1542 1.368 . S
C1539 C1520 1.429 . S
C1539 C1533 1.429 . S
C1539 C1540 1.523 1_554 S
C1540 C1521 1.367 1_556 S
C1540 C1534 1.368 . S
C1540 C1539 1.523 1_556 S
C1541 C1525 1.429 . S
C1541 C1537 1.429 . S
C1541 C1542 1.523 . S
C1542 C1526 1.368 . S
C1542 C1538 1.368 . S
C1542 C1541 1.523 . S
H1543 C1518 0.950 . S
H1544 C1520 0.950 . S
H1545 C1521 0.963 . S
H1546 C1523 0.950 . S
H1547 C1525 0.950 . S
C1548 C1549 1.349 . S
C1548 C1550 1.327 . S
C1548 H1573 0.950 . S
C1549 C1548 1.349 . S
C1549 C1565 1.349 . S
C1550 C1548 1.327 . S
C1550 C1569 1.429 . S
C1550 H1574 0.950 . S
C1551 C1568 1.574 . S
C1551 C1570 1.368 . S
C1551 H1575 0.949 . S
H1552 C1556 0.949 . S
C1553 C1554 1.349 . S
C1553 C1555 1.327 . S
C1553 H1576 0.950 . S
C1554 C1553 1.349 . S
C1554 C1566 1.349 . S
C1555 C1553 1.327 . S
C1555 C1571 1.429 . S
C1555 H1577 0.950 . S
C1556 H1552 0.949 . S
C1556 C1564 1.574 . S
C1556 C1572 1.368 . S
H1557 C1565 0.950 . S
H1558 C1563 0.950 . S
H1559 C1564 0.949 . S
H1560 C1566 0.950 . S
H1561 C1567 0.950 . S
H1562 C1568 0.949 . S
C1563 H1558 0.950 . S
C1563 C1565 1.327 . S
C1563 C1569 1.429 . S
C1564 C1556 1.574 . S
C1564 H1559 0.949 . S
C1564 C1570 1.368 . S
C1565 C1549 1.349 . S
C1565 H1557 0.950 . S
C1565 C1563 1.327 . S
C1566 C1554 1.349 . S
C1566 H1560 0.950 . S
C1566 C1567 1.327 . S
C1567 H1561 0.950 . S
C1567 C1566 1.327 . S
C1567 C1571 1.429 . S
C1568 C1551 1.574 . S
C1568 H1562 0.949 . S
C1568 C1572 1.368 . S
C1569 C1550 1.429 . S
C1569 C1563 1.429 . S
C1569 C1570 1.523 . S
C1570 C1551 1.368 . S
C1570 C1564 1.368 . S
C1570 C1569 1.523 . S
C1571 C1555 1.429 . S
C1571 C1567 1.429 . S
C1571 C1572 1.523 . S
C1572 C1556 1.368 . S
C1572 C1568 1.368 . S
C1572 C1571 1.523 . S
H1573 C1548 0.950 . S
H1574 C1550 0.950 . S
H1575 C1551 0.949 . S
H1576 C1553 0.950 . S
H1577 C1555 0.950 . S
C1578 C1579 1.349 . S
C1578 C1580 1.327 . S
C1578 H1603 0.950 . S
C1579 C1578 1.349 . S
C1579 C1595 1.349 . S
C1580 C1578 1.327 . S
C1580 C1599 1.429 . S
C1580 H1604 0.950 . S
C1581 C1598 1.574 . S
C1581 C1600 1.368 . S
C1581 H1605 0.949 . S
H1582 C1586 0.949 . S
C1583 C1584 1.349 . S
C1583 C1585 1.327 . S
C1583 H1606 0.950 . S
C1584 C1583 1.349 . S
C1584 C1596 1.349 . S
C1585 C1583 1.327 . S
C1585 C1601 1.429 . S
C1585 H1607 0.950 . S
C1586 H1582 0.949 . S
C1586 C1594 1.574 . S
C1586 C1602 1.368 . S
H1587 C1595 0.950 . S
H1588 C1593 0.950 . S
H1589 C1594 0.949 . S
H1590 C1596 0.950 . S
H1591 C1597 0.950 . S
H1592 C1598 0.949 . S
C1593 H1588 0.950 . S
C1593 C1595 1.327 . S
C1593 C1599 1.429 . S
C1594 C1586 1.574 . S
C1594 H1589 0.949 . S
C1594 C1600 1.368 . S
C1595 C1579 1.349 . S
C1595 H1587 0.950 . S
C1595 C1593 1.327 . S
C1596 C1584 1.349 . S
C1596 H1590 0.950 . S
C1596 C1597 1.327 . S
C1597 H1591 0.950 . S
C1597 C1596 1.327 . S
C1597 C1601 1.429 . S
C1598 C1581 1.574 . S
C1598 H1592 0.949 . S
C1598 C1602 1.368 . S
C1599 C1580 1.429 . S
C1599 C1593 1.429 . S
C1599 C1600 1.523 . S
C1600 C1581 1.368 . S
C1600 C1594 1.368 . S
C1600 C1599 1.523 . S
C1601 C1585 1.429 . S
C1601 C1597 1.429 . S
C1601 C1602 1.523 . S
C1602 C1586 1.368 . S
C1602 C1598 1.368 . S
C1602 C1601 1.523 . S
H1603 C1578 0.950 . S
H1604 C1580 0.950 . S
H1605 C1581 0.949 . S
H1606 C1583 0.950 . S
H1607 C1585 0.950 . S
C1608 C1609 1.349 . S
C1608 C1610 1.327 . S
C1608 H1633 0.950 . S
C1609 C1608 1.349 . S
C1609 C1625 1.349 . S
C1610 C1608 1.327 . S
C1610 C1629 1.429 . S
C1610 H1634 0.950 . S
C1611 C1628 1.574 . S
C1611 C1630 1.368 . S
C1611 H1635 0.949 . S
H1612 C1616 0.949 . S
C1613 C1614 1.349 . S
C1613 C1615 1.327 . S
C1613 H1636 0.950 . S
C1614 C1613 1.349 . S
C1614 C1626 1.349 . S
C1615 C1613 1.327 . S
C1615 C1631 1.429 . S
C1615 H1637 0.950 . S
C1616 H1612 0.949 . S
C1616 C1624 1.574 . S
C1616 C1632 1.368 . S
H1617 C1625 0.950 . S
H1618 C1623 0.950 . S
H1619 C1624 0.949 . S
H1620 C1626 0.950 . S
H1621 C1627 0.950 . S
H1622 C1628 0.949 . S
C1623 H1618 0.950 . S
C1623 C1625 1.327 . S
C1623 C1629 1.429 . S
C1624 C1616 1.574 . S
C1624 H1619 0.949 . S
C1624 C1630 1.368 . S
C1625 C1609 1.349 . S
C1625 H1617 0.950 . S
C1625 C1623 1.327 . S
C1626 C1614 1.349 . S
C1626 H1620 0.950 . S
C1626 C1627 1.327 . S
C1627 H1621 0.950 . S
C1627 C1626 1.327 . S
C1627 C1631 1.429 . S
C1628 C1611 1.574 . S
C1628 H1622 0.949 . S
C1628 C1632 1.368 . S
C1629 C1610 1.429 . S
C1629 C1623 1.429 . S
C1629 C1630 1.523 . S
C1630 C1611 1.368 . S
C1630 C1624 1.368 . S
C1630 C1629 1.523 . S
C1631 C1615 1.429 . S
C1631 C1627 1.429 . S
C1631 C1632 1.523 . S
C1632 C1616 1.368 . S
C1632 C1628 1.368 . S
C1632 C1631 1.523 . S
H1633 C1608 0.950 . S
H1634 C1610 0.950 . S
H1635 C1611 0.949 . S
H1636 C1613 0.950 . S
H1637 C1615 0.950 . S
C1638 C1639 1.349 . S
C1638 C1640 1.327 . S
C1638 H1663 0.950 . S
C1639 C1638 1.349 . S
C1639 C1655 1.349 . S
C1640 C1638 1.327 . S
C1640 C1659 1.429 . S
C1640 H1664 0.950 . S
C1641 C1658 1.583 . S
C1641 C1660 1.368 . S
C1641 H1665 0.949 . S
H1642 C1646 0.949 . S
C1643 C1644 1.349 . S
C1643 C1645 1.327 . S
C1643 H1666 0.950 . S
C1644 C1643 1.349 . S
C1644 C1656 1.349 . S
C1645 C1643 1.327 . S
C1645 C1661 1.429 . S
C1645 H1667 0.950 . S
C1646 H1642 0.949 . S
C1646 C1654 1.574 . S
C1646 C1662 1.368 1_545 S
H1647 C1655 0.950 . S
H1648 C1653 0.950 . S
H1649 C1654 0.949 . S
H1650 C1656 0.950 . S
H1651 C1657 0.950 . S
H1652 C1658 0.941 1_565 S
C1653 H1648 0.950 . S
C1653 C1655 1.327 . S
C1653 C1659 1.429 . S
C1654 C1646 1.574 . S
C1654 H1649 0.949 . S
C1654 C1660 1.368 . S
C1655 C1639 1.349 . S
C1655 H1647 0.950 . S
C1655 C1653 1.327 . S
C1656 C1644 1.349 . S
C1656 H1650 0.950 . S
C1656 C1657 1.327 . S
C1657 H1651 0.950 . S
C1657 C1656 1.327 . S
C1657 C1661 1.429 . S
C1658 C1641 1.583 . S
C1658 H1652 0.941 1_545 S
C1658 C1662 1.368 1_545 S
C1659 C1640 1.429 . S
C1659 C1653 1.429 . S
C1659 C1660 1.523 . S
C1660 C1641 1.368 . S
C1660 C1654 1.368 . S
C1660 C1659 1.523 . S
C1661 C1645 1.429 . S
C1661 C1657 1.429 . S
C1661 C1662 1.523 . S
C1662 C1646 1.368 1_565 S
C1662 C1658 1.368 1_565 S
C1662 C1661 1.523 . S
H1663 C1638 0.950 . S
H1664 C1640 0.950 . S
H1665 C1641 0.949 . S
H1666 C1643 0.950 . S
H1667 C1645 0.950 . S
C1668 C1669 1.349 . S
C1668 C1670 1.327 . S
C1668 H1693 0.950 . S
C1669 C1668 1.349 . S
C1669 C1685 1.349 . S
C1670 C1668 1.327 . S
C1670 C1689 1.429 . S
C1670 H1694 0.950 . S
C1671 C1688 1.574 . S
C1671 C1690 1.368 . S
C1671 H1695 0.949 . S
H1672 C1676 0.949 . S
C1673 C1674 1.349 . S
C1673 C1675 1.327 . S
C1673 H1696 0.950 . S
C1674 C1673 1.349 . S
C1674 C1686 1.349 . S
C1675 C1673 1.327 . S
C1675 C1691 1.429 . S
C1675 H1697 0.950 . S
C1676 H1672 0.949 . S
C1676 C1684 1.574 . S
C1676 C1692 1.368 . S
H1677 C1685 0.950 . S
H1678 C1683 0.950 . S
H1679 C1684 0.949 . S
H1680 C1686 0.950 . S
H1681 C1687 0.950 . S
H1682 C1688 0.949 . S
C1683 H1678 0.950 . S
C1683 C1685 1.327 . S
C1683 C1689 1.429 . S
C1684 C1676 1.574 . S
C1684 H1679 0.949 . S
C1684 C1690 1.368 . S
C1685 C1669 1.349 . S
C1685 H1677 0.950 . S
C1685 C1683 1.327 . S
C1686 C1674 1.349 . S
C1686 H1680 0.950 . S
C1686 C1687 1.327 . S
C1687 H1681 0.950 . S
C1687 C1686 1.327 . S
C1687 C1691 1.429 . S
C1688 C1671 1.574 . S
C1688 H1682 0.949 . S
C1688 C1692 1.368 . S
C1689 C1670 1.429 . S
C1689 C1683 1.429 . S
C1689 C1690 1.523 . S
C1690 C1671 1.368 . S
C1690 C1684 1.368 . S
C1690 C1689 1.523 . S
C1691 C1675 1.429 . S
C1691 C1687 1.429 . S
C1691 C1692 1.523 . S
C1692 C1676 1.368 . S
C1692 C1688 1.368 . S
C1692 C1691 1.523 . S
H1693 C1668 0.950 . S
H1694 C1670 0.950 . S
H1695 C1671 0.949 . S
H1696 C1673 0.950 . S
H1697 C1675 0.950 . S
C1698 C1699 1.349 . S
C1698 C1700 1.327 . S
C1698 H1723 0.950 . S
C1699 C1698 1.349 . S
C1699 C1715 1.349 . S
C1700 C1698 1.327 . S
C1700 C1719 1.429 . S
C1700 H1724 0.950 . S
C1701 C1718 1.574 . S
C1701 C1720 1.368 1_565 S
C1701 H1725 0.949 1_565 S
H1702 C1706 0.949 . S
C1703 C1704 1.349 . S
C1703 C1705 1.327 . S
C1703 H1726 0.950 . S
C1704 C1703 1.349 . S
C1704 C1716 1.349 . S
C1705 C1703 1.327 . S
C1705 C1721 1.429 . S
C1705 H1727 0.950 . S
C1706 H1702 0.949 . S
C1706 C1714 1.574 . S
C1706 C1722 1.368 . S
H1707 C1715 0.950 . S
H1708 C1713 0.950 . S
H1709 C1714 0.949 . S
H1710 C1716 0.950 . S
H1711 C1717 0.950 . S
H1712 C1718 0.949 . S
C1713 H1708 0.950 . S
C1713 C1715 1.327 . S
C1713 C1719 1.429 . S
C1714 C1706 1.574 . S
C1714 H1709 0.949 . S
C1714 C1720 1.368 1_565 S
C1715 C1699 1.349 . S
C1715 H1707 0.950 . S
C1715 C1713 1.327 . S
C1716 C1704 1.349 . S
C1716 H1710 0.950 . S
C1716 C1717 1.327 . S
C1717 H1711 0.950 . S
C1717 C1716 1.327 . S
C1717 C1721 1.429 . S
C1718 C1701 1.574 . S
C1718 H1712 0.949 . S
C1718 C1722 1.368 . S
C1719 C1700 1.429 . S
C1719 C1713 1.429 . S
C1719 C1720 1.523 . S
C1720 C1701 1.368 1_545 S
C1720 C1714 1.368 1_545 S
C1720 C1719 1.523 . S
C1721 C1705 1.429 . S
C1721 C1717 1.429 . S
C1721 C1722 1.523 . S
C1722 C1706 1.368 . S
C1722 C1718 1.368 . S
C1722 C1721 1.523 . S
H1723 C1698 0.950 . S
H1724 C1700 0.950 . S
H1725 C1701 0.949 1_545 S
H1726 C1703 0.950 . S
H1727 C1705 0.950 . S
C1728 C1729 1.349 . S
C1728 C1730 1.327 . S
C1728 H1753 0.950 . S
C1729 C1728 1.349 . S
C1729 C1745 1.349 . S
C1730 C1728 1.327 . S
C1730 C1749 1.429 . S
C1730 H1754 0.950 . S
C1731 C1748 1.574 . S
C1731 C1750 1.368 . S
C1731 H1755 0.949 . S
H1732 C1736 0.949 . S
C1733 C1734 1.349 . S
C1733 C1735 1.327 . S
C1733 H1756 0.950 . S
C1734 C1733 1.349 . S
C1734 C1746 1.349 . S
C1735 C1733 1.327 . S
C1735 C1751 1.429 . S
C1735 H1757 0.950 . S
C1736 H1732 0.949 . S
C1736 C1744 1.574 . S
C1736 C1752 1.368 . S
H1737 C1745 0.950 . S
H1738 C1743 0.950 . S
H1739 C1744 0.949 . S
H1740 C1746 0.950 . S
H1741 C1747 0.950 . S
H1742 C1748 0.949 . S
C1743 H1738 0.950 . S
C1743 C1745 1.327 . S
C1743 C1749 1.429 . S
C1744 C1736 1.574 . S
C1744 H1739 0.949 . S
C1744 C1750 1.368 . S
C1745 C1729 1.349 . S
C1745 H1737 0.950 . S
C1745 C1743 1.327 . S
C1746 C1734 1.349 . S
C1746 H1740 0.950 . S
C1746 C1747 1.327 . S
C1747 H1741 0.950 . S
C1747 C1746 1.327 . S
C1747 C1751 1.429 . S
C1748 C1731 1.574 . S
C1748 H1742 0.949 . S
C1748 C1752 1.368 . S
C1749 C1730 1.429 . S
C1749 C1743 1.429 . S
C1749 C1750 1.523 . S
C1750 C1731 1.368 . S
C1750 C1744 1.368 . S
C1750 C1749 1.523 . S
C1751 C1735 1.429 . S
C1751 C1747 1.429 . S
C1751 C1752 1.523 . S
C1752 C1736 1.368 . S
C1752 C1748 1.368 . S
C1752 C1751 1.523 . S
H1753 C1728 0.950 . S
H1754 C1730 0.950 . S
H1755 C1731 0.949 . S
H1756 C1733 0.950 . S
H1757 C1735 0.950 . S
C1758 C1759 1.349 . S
C1758 C1760 1.327 . S
C1758 H1783 0.950 . S
C1759 C1758 1.349 . S
C1759 C1775 1.349 . S
C1760 C1758 1.327 . S
C1760 C1779 1.429 . S
C1760 H1784 0.950 . S
C1761 C1778 1.574 . S
C1761 C1780 1.368 . S
C1761 H1785 0.949 . S
H1762 C1766 0.949 . S
C1763 C1764 1.349 . S
C1763 C1765 1.327 . S
C1763 H1786 0.950 . S
C1764 C1763 1.349 . S
C1764 C1776 1.349 . S
C1765 C1763 1.327 . S
C1765 C1781 1.429 . S
C1765 H1787 0.950 . S
C1766 H1762 0.949 . S
C1766 C1774 1.574 . S
C1766 C1782 1.368 . S
H1767 C1775 0.950 . S
H1768 C1773 0.950 . S
H1769 C1774 0.949 . S
H1770 C1776 0.950 . S
H1771 C1777 0.950 . S
H1772 C1778 0.949 . S
C1773 H1768 0.950 . S
C1773 C1775 1.327 . S
C1773 C1779 1.429 . S
C1774 C1766 1.574 . S
C1774 H1769 0.949 . S
C1774 C1780 1.368 . S
C1775 C1759 1.349 . S
C1775 H1767 0.950 . S
C1775 C1773 1.327 . S
C1776 C1764 1.349 . S
C1776 H1770 0.950 . S
C1776 C1777 1.327 . S
C1777 H1771 0.950 . S
C1777 C1776 1.327 . S
C1777 C1781 1.429 . S
C1778 C1761 1.574 . S
C1778 H1772 0.949 . S
C1778 C1782 1.368 . S
C1779 C1760 1.429 . S
C1779 C1773 1.429 . S
C1779 C1780 1.523 . S
C1780 C1761 1.368 . S
C1780 C1774 1.368 . S
C1780 C1779 1.523 . S
C1781 C1765 1.429 . S
C1781 C1777 1.429 . S
C1781 C1782 1.523 . S
C1782 C1766 1.368 . S
C1782 C1778 1.368 . S
C1782 C1781 1.523 . S
H1783 C1758 0.950 . S
H1784 C1760 0.950 . S
H1785 C1761 0.949 . S
H1786 C1763 0.950 . S
H1787 C1765 0.950 . S
C1788 C1789 1.349 . S
C1788 C1790 1.327 . S
C1788 H1813 0.950 . S
C1789 C1788 1.349 . S
C1789 C1805 1.349 . S
C1790 C1788 1.327 . S
C1790 C1809 1.429 . S
C1790 H1814 0.950 . S
C1791 C1808 1.574 . S
C1791 C1810 1.368 . S
C1791 H1815 0.949 . S
H1792 C1796 0.949 . S
C1793 C1794 1.349 . S
C1793 C1795 1.327 . S
C1793 H1816 0.950 . S
C1794 C1793 1.349 . S
C1794 C1806 1.349 . S
C1795 C1793 1.327 . S
C1795 C1811 1.429 . S
C1795 H1817 0.950 . S
C1796 H1792 0.949 . S
C1796 C1804 1.574 . S
C1796 C1812 1.368 . S
H1797 C1805 0.950 . S
H1798 C1803 0.950 . S
H1799 C1804 0.949 . S
H1800 C1806 0.950 . S
H1801 C1807 0.950 . S
H1802 C1808 0.949 . S
C1803 H1798 0.950 . S
C1803 C1805 1.327 . S
C1803 C1809 1.429 . S
C1804 C1796 1.574 . S
C1804 H1799 0.949 . S
C1804 C1810 1.368 . S
C1805 C1789 1.349 . S
C1805 H1797 0.950 . S
C1805 C1803 1.327 . S
C1806 C1794 1.349 . S
C1806 H1800 0.950 . S
C1806 C1807 1.327 . S
C1807 H1801 0.950 . S
C1807 C1806 1.327 . S
C1807 C1811 1.429 . S
C1808 C1791 1.574 . S
C1808 H1802 0.949 . S
C1808 C1812 1.368 . S
C1809 C1790 1.429 . S
C1809 C1803 1.429 . S
C1809 C1810 1.523 . S
C1810 C1791 1.368 . S
C1810 C1804 1.368 . S
C1810 C1809 1.523 . S
C1811 C1795 1.429 . S
C1811 C1807 1.429 . S
C1811 C1812 1.523 . S
C1812 C1796 1.368 . S
C1812 C1808 1.368 . S
C1812 C1811 1.523 . S
H1813 C1788 0.950 . S
H1814 C1790 0.950 . S
H1815 C1791 0.949 . S
H1816 C1793 0.950 . S
H1817 C1795 0.950 . S
C1818 C1819 1.349 . S
C1818 C1820 1.327 . S
C1818 H1843 0.950 . S
C1819 C1818 1.349 . S
C1819 C1835 1.349 . S
C1820 C1818 1.327 . S
C1820 C1839 1.429 . S
C1820 H1844 0.950 . S
C1821 C1838 1.574 . S
C1821 C1840 1.368 . S
C1821 H1845 0.949 . S
H1822 C1826 0.949 . S
C1823 C1824 1.349 . S
C1823 C1825 1.327 . S
C1823 H1846 0.950 . S
C1824 C1823 1.349 . S
C1824 C1836 1.349 . S
C1825 C1823 1.327 . S
C1825 C1841 1.429 . S
C1825 H1847 0.950 . S
C1826 H1822 0.949 . S
C1826 C1834 1.574 . S
C1826 C1842 1.368 . S
H1827 C1835 0.950 . S
H1828 C1833 0.950 . S
H1829 C1834 0.949 . S
H1830 C1836 0.950 . S
H1831 C1837 0.950 . S
H1832 C1838 0.949 . S
C1833 H1828 0.950 . S
C1833 C1835 1.327 . S
C1833 C1839 1.429 . S
C1834 C1826 1.574 . S
C1834 H1829 0.949 . S
C1834 C1840 1.368 . S
C1835 C1819 1.349 . S
C1835 H1827 0.950 . S
C1835 C1833 1.327 . S
C1836 C1824 1.349 . S
C1836 H1830 0.950 . S
C1836 C1837 1.327 . S
C1837 H1831 0.950 . S
C1837 C1836 1.327 . S
C1837 C1841 1.429 . S
C1838 C1821 1.574 . S
C1838 H1832 0.949 . S
C1838 C1842 1.368 . S
C1839 C1820 1.429 . S
C1839 C1833 1.429 . S
C1839 C1840 1.523 . S
C1840 C1821 1.368 . S
C1840 C1834 1.368 . S
C1840 C1839 1.523 . S
C1841 C1825 1.429 . S
C1841 C1837 1.429 . S
C1841 C1842 1.523 . S
C1842 C1826 1.368 . S
C1842 C1838 1.368 . S
C1842 C1841 1.523 . S
H1843 C1818 0.950 . S
H1844 C1820 0.950 . S
H1845 C1821 0.949 . S
H1846 C1823 0.950 . S
H1847 C1825 0.950 . S
C1848 C1849 1.349 . S
C1848 C1850 1.327 . S
C1848 H1873 0.950 . S
C1849 C1848 1.349 . S
C1849 C1865 1.349 . S
C1850 C1848 1.327 . S
C1850 C1869 1.429 . S
C1850 H1874 0.950 . S
C1851 C1868 1.574 . S
C1851 C1870 1.368 . S
C1851 H1875 0.949 . S
H1852 C1856 0.949 . S
C1853 C1854 1.349 . S
C1853 C1855 1.327 . S
C1853 H1876 0.950 . S
C1854 C1853 1.349 . S
C1854 C1866 1.349 . S
C1855 C1853 1.327 . S
C1855 C1871 1.429 . S
C1855 H1877 0.950 . S
C1856 H1852 0.949 . S
C1856 C1864 1.574 . S
C1856 C1872 1.368 . S
H1857 C1865 0.950 . S
H1858 C1863 0.950 . S
H1859 C1864 0.949 . S
H1860 C1866 0.950 . S
H1861 C1867 0.950 . S
H1862 C1868 0.949 . S
C1863 H1858 0.950 . S
C1863 C1865 1.327 . S
C1863 C1869 1.429 . S
C1864 C1856 1.574 . S
C1864 H1859 0.949 . S
C1864 C1870 1.368 . S
C1865 C1849 1.349 . S
C1865 H1857 0.950 . S
C1865 C1863 1.327 . S
C1866 C1854 1.349 . S
C1866 H1860 0.950 . S
C1866 C1867 1.327 . S
C1867 H1861 0.950 . S
C1867 C1866 1.327 . S
C1867 C1871 1.429 . S
C1868 C1851 1.574 . S
C1868 H1862 0.949 . S
C1868 C1872 1.368 . S
C1869 C1850 1.429 . S
C1869 C1863 1.429 . S
C1869 C1870 1.523 . S
C1870 C1851 1.368 . S
C1870 C1864 1.368 . S
C1870 C1869 1.523 . S
C1871 C1855 1.429 . S
C1871 C1867 1.429 . S
C1871 C1872 1.523 . S
C1872 C1856 1.368 . S
C1872 C1868 1.368 . S
C1872 C1871 1.523 . S
H1873 C1848 0.950 . S
H1874 C1850 0.950 . S
H1875 C1851 0.949 . S
H1876 C1853 0.950 . S
H1877 C1855 0.950 . S
C1878 C1879 1.349 . S
C1878 C1880 1.327 . S
C1878 H1903 0.950 . S
C1879 C1878 1.349 . S
C1879 C1895 1.349 . S
C1880 C1878 1.327 . S
C1880 C1899 1.429 . S
C1880 H1904 0.950 . S
C1881 C1898 1.574 . S
C1881 C1900 1.368 . S
C1881 H1905 0.949 . S
H1882 C1886 0.949 . S
C1883 C1884 1.349 . S
C1883 C1885 1.327 . S
C1883 H1906 0.950 . S
C1884 C1883 1.349 . S
C1884 C1896 1.349 . S
C1885 C1883 1.327 . S
C1885 C1901 1.429 . S
C1885 H1907 0.950 . S
C1886 H1882 0.949 . S
C1886 C1894 1.574 . S
C1886 C1902 1.368 . S
H1887 C1895 0.950 . S
H1888 C1893 0.950 . S
H1889 C1894 0.949 . S
H1890 C1896 0.950 . S
H1891 C1897 0.950 . S
H1892 C1898 0.949 . S
C1893 H1888 0.950 . S
C1893 C1895 1.327 . S
C1893 C1899 1.429 . S
C1894 C1886 1.574 . S
C1894 H1889 0.949 . S
C1894 C1900 1.368 . S
C1895 C1879 1.349 . S
C1895 H1887 0.950 . S
C1895 C1893 1.327 . S
C1896 C1884 1.349 . S
C1896 H1890 0.950 . S
C1896 C1897 1.327 . S
C1897 H1891 0.950 . S
C1897 C1896 1.327 . S
C1897 C1901 1.429 . S
C1898 C1881 1.574 . S
C1898 H1892 0.949 . S
C1898 C1902 1.368 . S
C1899 C1880 1.429 . S
C1899 C1893 1.429 . S
C1899 C1900 1.523 . S
C1900 C1881 1.368 . S
C1900 C1894 1.368 . S
C1900 C1899 1.523 . S
C1901 C1885 1.429 . S
C1901 C1897 1.429 . S
C1901 C1902 1.523 . S
C1902 C1886 1.368 . S
C1902 C1898 1.368 . S
C1902 C1901 1.523 . S
H1903 C1878 0.950 . S
H1904 C1880 0.950 . S
H1905 C1881 0.949 . S
H1906 C1883 0.950 . S
H1907 C1885 0.950 . S
C1908 C1909 1.349 . S
C1908 C1910 1.327 . S
C1908 H1933 0.950 . S
C1909 C1908 1.349 . S
C1909 C1925 1.349 . S
C1910 C1908 1.327 . S
C1910 C1929 1.429 . S
C1910 H1934 0.950 . S
C1911 C1928 1.574 . S
C1911 C1930 1.368 . S
C1911 H1935 0.949 . S
H1912 C1916 0.949 . S
C1913 C1914 1.349 . S
C1913 C1915 1.327 . S
C1913 H1936 0.950 . S
C1914 C1913 1.349 . S
C1914 C1926 1.349 . S
C1915 C1913 1.327 . S
C1915 C1931 1.429 . S
C1915 H1937 0.950 . S
C1916 H1912 0.949 . S
C1916 C1924 1.574 1_655 S
C1916 C1932 1.368 . S
H1917 C1925 0.950 . S
H1918 C1923 0.950 . S
H1919 C1924 0.949 . S
H1920 C1926 0.950 . S
H1921 C1927 0.950 . S
H1922 C1928 0.949 . S
C1923 H1918 0.950 . S
C1923 C1925 1.327 . S
C1923 C1929 1.429 . S
C1924 C1916 1.574 1_455 S
C1924 H1919 0.949 . S
C1924 C1930 1.368 . S
C1925 C1909 1.349 . S
C1925 H1917 0.950 . S
C1925 C1923 1.327 . S
C1926 C1914 1.349 . S
C1926 H1920 0.950 . S
C1926 C1927 1.327 . S
C1927 H1921 0.950 . S
C1927 C1926 1.327 . S
C1927 C1931 1.429 . S
C1928 C1911 1.574 . S
C1928 H1922 0.949 . S
C1928 C1932 1.368 1_455 S
C1929 C1910 1.429 . S
C1929 C1923 1.429 . S
C1929 C1930 1.523 . S
C1930 C1911 1.368 . S
C1930 C1924 1.368 . S
C1930 C1929 1.523 . S
C1931 C1915 1.429 . S
C1931 C1927 1.429 . S
C1931 C1932 1.523 . S
C1932 C1916 1.368 . S
C1932 C1928 1.368 1_655 S
C1932 C1931 1.523 . S
H1933 C1908 0.950 . S
H1934 C1910 0.950 . S
H1935 C1911 0.949 . S
H1936 C1913 0.950 . S
H1937 C1915 0.950 . S
C1938 C1939 1.349 . S
C1938 C1940 1.327 . S
C1938 H1963 0.950 . S
C1939 C1938 1.349 . S
C1939 C1955 1.349 . S
C1940 C1938 1.327 . S
C1940 C1959 1.429 . S
C1940 H1964 0.950 . S
C1941 C1958 1.574 . S
C1941 C1960 1.368 . S
C1941 H1965 0.949 . S
H1942 C1946 0.949 . S
C1943 C1944 1.349 . S
C1943 C1945 1.327 . S
C1943 H1966 0.950 . S
C1944 C1943 1.349 . S
C1944 C1956 1.349 . S
C1945 C1943 1.327 . S
C1945 C1961 1.429 . S
C1945 H1967 0.950 . S
C1946 H1942 0.949 . S
C1946 C1954 1.574 . S
C1946 C1962 1.368 . S
H1947 C1955 0.950 . S
H1948 C1953 0.950 . S
H1949 C1954 0.949 . S
H1950 C1956 0.950 . S
H1951 C1957 0.950 . S
H1952 C1958 0.949 . S
C1953 H1948 0.950 . S
C1953 C1955 1.327 . S
C1953 C1959 1.429 . S
C1954 C1946 1.574 . S
C1954 H1949 0.949 . S
C1954 C1960 1.368 . S
C1955 C1939 1.349 . S
C1955 H1947 0.950 . S
C1955 C1953 1.327 . S
C1956 C1944 1.349 . S
C1956 H1950 0.950 . S
C1956 C1957 1.327 . S
C1957 H1951 0.950 . S
C1957 C1956 1.327 . S
C1957 C1961 1.429 . S
C1958 C1941 1.574 . S
C1958 H1952 0.949 . S
C1958 C1962 1.368 . S
C1959 C1940 1.429 . S
C1959 C1953 1.429 . S
C1959 C1960 1.523 . S
C1960 C1941 1.368 . S
C1960 C1954 1.368 . S
C1960 C1959 1.523 . S
C1961 C1945 1.429 . S
C1961 C1957 1.429 . S
C1961 C1962 1.523 . S
C1962 C1946 1.368 . S
C1962 C1958 1.368 . S
C1962 C1961 1.523 . S
H1963 C1938 0.950 . S
H1964 C1940 0.950 . S
H1965 C1941 0.949 . S
H1966 C1943 0.950 . S
H1967 C1945 0.950 . S
C1968 C1969 1.349 . S
C1968 C1970 1.327 . S
C1968 H1993 0.950 . S
C1969 C1968 1.349 . S
C1969 C1985 1.349 . S
C1970 C1968 1.327 . S
C1970 C1989 1.429 . S
C1970 H1994 0.950 . S
C1971 C1988 1.574 . S
C1971 C1990 1.368 . S
C1971 H1995 0.949 . S
H1972 C1976 0.949 . S
C1973 C1974 1.349 . S
C1973 C1975 1.327 . S
C1973 H1996 0.950 . S
C1974 C1973 1.349 . S
C1974 C1986 1.349 . S
C1975 C1973 1.327 . S
C1975 C1991 1.429 . S
C1975 H1997 0.950 . S
C1976 H1972 0.949 . S
C1976 C1984 1.574 . S
C1976 C1992 1.368 . S
H1977 C1985 0.950 . S
H1978 C1983 0.950 . S
H1979 C1984 0.949 . S
H1980 C1986 0.950 . S
H1981 C1987 0.950 . S
H1982 C1988 0.949 . S
C1983 H1978 0.950 . S
C1983 C1985 1.327 . S
C1983 C1989 1.429 . S
C1984 C1976 1.574 . S
C1984 H1979 0.949 . S
C1984 C1990 1.368 . S
C1985 C1969 1.349 . S
C1985 H1977 0.950 . S
C1985 C1983 1.327 . S
C1986 C1974 1.349 . S
C1986 H1980 0.950 . S
C1986 C1987 1.327 . S
C1987 H1981 0.950 . S
C1987 C1986 1.327 . S
C1987 C1991 1.429 . S
C1988 C1971 1.574 . S
C1988 H1982 0.949 . S
C1988 C1992 1.368 . S
C1989 C1970 1.429 . S
C1989 C1983 1.429 . S
C1989 C1990 1.523 . S
C1990 C1971 1.368 . S
C1990 C1984 1.368 . S
C1990 C1989 1.523 . S
C1991 C1975 1.429 . S
C1991 C1987 1.429 . S
C1991 C1992 1.523 . S
C1992 C1976 1.368 . S
C1992 C1988 1.368 . S
C1992 C1991 1.523 . S
H1993 C1968 0.950 . S
H1994 C1970 0.950 . S
H1995 C1971 0.949 . S
H1996 C1973 0.950 . S
H1997 C1975 0.950 . S
C1998 C1999 1.349 . S
C1998 C2000 1.327 . S
C1998 H2023 0.950 . S
C1999 C1998 1.349 . S
C1999 C2015 1.349 . S
C2000 C1998 1.327 . S
C2000 C2019 1.429 . S
C2000 H2024 0.950 . S
C2001 C2018 1.574 . S
C2001 C2020 1.368 . S
C2001 H2025 0.949 . S
H2002 C2006 0.949 . S
C2003 C2004 1.349 . S
C2003 C2005 1.327 . S
C2003 H2026 0.950 . S
C2004 C2003 1.349 . S
C2004 C2016 1.349 . S
C2005 C2003 1.327 . S
C2005 C2021 1.429 . S
C2005 H2027 0.950 . S
C2006 H2002 0.949 . S
C2006 C2014 1.574 . S
C2006 C2022 1.368 . S
H2007 C2015 0.950 . S
H2008 C2013 0.950 . S
H2009 C2014 0.949 . S
H2010 C2016 0.950 . S
H2011 C2017 0.950 . S
H2012 C2018 0.949 . S
C2013 H2008 0.950 . S
C2013 C2015 1.327 . S
C2013 C2019 1.429 . S
C2014 C2006 1.574 . S
C2014 H2009 0.949 . S
C2014 C2020 1.368 . S
C2015 C1999 1.349 . S
C2015 H2007 0.950 . S
C2015 C2013 1.327 . S
C2016 C2004 1.349 . S
C2016 H2010 0.950 . S
C2016 C2017 1.327 . S
C2017 H2011 0.950 . S
C2017 C2016 1.327 . S
C2017 C2021 1.429 . S
C2018 C2001 1.574 . S
C2018 H2012 0.949 . S
C2018 C2022 1.368 . S
C2019 C2000 1.429 . S
C2019 C2013 1.429 . S
C2019 C2020 1.523 . S
C2020 C2001 1.368 . S
C2020 C2014 1.368 . S
C2020 C2019 1.523 . S
C2021 C2005 1.429 . S
C2021 C2017 1.429 . S
C2021 C2022 1.523 . S
C2022 C2006 1.368 . S
C2022 C2018 1.368 . S
C2022 C2021 1.523 . S
H2023 C1998 0.950 . S
H2024 C2000 0.950 . S
H2025 C2001 0.949 . S
H2026 C2003 0.950 . S
H2027 C2005 0.950 . S
C2028 C2029 1.349 . S
C2028 C2030 1.327 . S
C2028 H2053 0.950 . S
C2029 C2028 1.349 . S
C2029 C2045 1.349 . S
C2030 C2028 1.327 . S
C2030 C2049 1.429 . S
C2030 H2054 0.950 . S
C2031 C2048 1.574 . S
C2031 C2050 1.368 . S
C2031 H2055 0.949 . S
H2032 C2036 0.949 . S
C2033 C2034 1.349 . S
C2033 C2035 1.327 . S
C2033 H2056 0.950 . S
C2034 C2033 1.349 . S
C2034 C2046 1.349 . S
C2035 C2033 1.327 . S
C2035 C2051 1.429 . S
C2035 H2057 0.950 . S
C2036 H2032 0.949 . S
C2036 C2044 1.574 . S
C2036 C2052 1.368 . S
H2037 C2045 0.950 . S
H2038 C2043 0.950 . S
H2039 C2044 0.949 . S
H2040 C2046 0.950 . S
H2041 C2047 0.950 . S
H2042 C2048 0.949 . S
C2043 H2038 0.950 . S
C2043 C2045 1.327 . S
C2043 C2049 1.429 . S
C2044 C2036 1.574 . S
C2044 H2039 0.949 . S
C2044 C2050 1.368 . S
C2045 C2029 1.349 . S
C2045 H2037 0.950 . S
C2045 C2043 1.327 . S
C2046 C2034 1.349 . S
C2046 H2040 0.950 . S
C2046 C2047 1.327 . S
C2047 H2041 0.950 . S
C2047 C2046 1.327 . S
C2047 C2051 1.429 . S
C2048 C2031 1.574 . S
C2048 H2042 0.949 . S
C2048 C2052 1.368 . S
C2049 C2030 1.429 . S
C2049 C2043 1.429 . S
C2049 C2050 1.523 . S
C2050 C2031 1.368 . S
C2050 C2044 1.368 . S
C2050 C2049 1.523 . S
C2051 C2035 1.429 . S
C2051 C2047 1.429 . S
C2051 C2052 1.523 . S
C2052 C2036 1.368 . S
C2052 C2048 1.368 . S
C2052 C2051 1.523 . S
H2053 C2028 0.950 . S
H2054 C2030 0.950 . S
H2055 C2031 0.949 . S
H2056 C2033 0.950 . S
H2057 C2035 0.950 . S
C2058 C2059 1.349 . S
C2058 C2060 1.327 . S
C2058 H2083 0.950 . S
C2059 C2058 1.349 . S
C2059 C2075 1.349 . S
C2060 C2058 1.327 . S
C2060 C2079 1.429 . S
C2060 H2084 0.950 . S
C2061 C2078 1.574 1_655 S
C2061 C2080 1.368 . S
C2061 H2085 0.949 . S
H2062 C2066 0.949 . S
C2063 C2064 1.349 . S
C2063 C2065 1.327 . S
C2063 H2086 0.950 . S
C2064 C2063 1.349 . S
C2064 C2076 1.349 . S
C2065 C2063 1.327 . S
C2065 C2081 1.429 . S
C2065 H2087 0.950 . S
C2066 H2062 0.949 . S
C2066 C2074 1.574 . S
C2066 C2082 1.368 1_655 S
H2067 C2075 0.950 . S
H2068 C2073 0.950 . S
H2069 C2074 0.949 . S
H2070 C2076 0.950 . S
H2071 C2077 0.950 . S
H2072 C2078 0.949 . S
C2073 H2068 0.950 . S
C2073 C2075 1.327 . S
C2073 C2079 1.429 . S
C2074 C2066 1.574 . S
C2074 H2069 0.949 . S
C2074 C2080 1.368 . S
C2075 C2059 1.349 . S
C2075 H2067 0.950 . S
C2075 C2073 1.327 . S
C2076 C2064 1.349 . S
C2076 H2070 0.950 . S
C2076 C2077 1.327 . S
C2077 H2071 0.950 . S
C2077 C2076 1.327 . S
C2077 C2081 1.429 . S
C2078 C2061 1.574 1_455 S
C2078 H2072 0.949 . S
C2078 C2082 1.368 . S
C2079 C2060 1.429 . S
C2079 C2073 1.429 . S
C2079 C2080 1.523 . S
C2080 C2061 1.368 . S
C2080 C2074 1.368 . S
C2080 C2079 1.523 . S
C2081 C2065 1.429 . S
C2081 C2077 1.429 . S
C2081 C2082 1.523 . S
C2082 C2066 1.368 1_455 S
C2082 C2078 1.368 . S
C2082 C2081 1.523 . S
H2083 C2058 0.950 . S
H2084 C2060 0.950 . S
H2085 C2061 0.949 . S
H2086 C2063 0.950 . S
H2087 C2065 0.950 . S
C1009 C74 1.579 . S
C1014 C991 1.622 . S
C1039 C830 1.629 . S
C1044 C158 1.624 . S
C1069 C235 1.627 1_554 S
C1074 C746 1.584 . S
C1099 C326 1.606 . S
C1104 C907 1.650 1_545 S
C1129 C410 1.622 . S
C1134 C914 1.622 . S
C1159 C487 1.632 . S
C1164 C998 1.590 . S
C1189 C823 1.647 . S
C1194 C578 1.604 1_556 S
C1219 C655 1.615 . S
C1224 C739 1.615 . S
C1249 C319 1.618 . S
C1254 C403 1.619 . S
C1279 C67 1.658 . S
C1284 C494 1.615 1_455 S
C1309 C151 1.631 1_655 S
C1314 C571 1.630 . S
C1339 C662 1.617 . S
C1344 C242 1.618 . S
C1369 C69 1.402 . S
C1374 C735 1.613 . S
C1399 C153 1.423 . S
C1404 C896 1.625 . S
C1429 C980 1.609 . S
C1434 C226 1.563 . S
C1459 C321 1.370 . S
C1464 C819 1.572 . S
C1489 C405 1.388 . S
C1494 C812 1.587 . S
C1519 C728 1.597 . S
C1524 C478 1.549 . S
C1549 C903 1.587 . S
C1554 C573 1.380 . S
C1579 C987 1.643 . S
C1584 C646 1.586 . S
C1609 C56 1.600 . S
C1614 C310 1.549 . S
C1639 C58 1.530 . S
C1644 C140 1.580 . S
C1669 C142 1.561 . S
C1674 C231 1.619 . S
C1699 C308 1.596 . S
C1704 C237 1.397 . S
C1729 C489 1.391 . S
C1734 C392 1.586 . S
C1759 C483 1.603 . S
C1764 C562 1.540 . S
C1789 C560 1.586 . S
C1794 C657 1.387 . S
C1819 C394 1.553 . S
C1824 C651 1.612 . S
C1849 C730 1.493 . S
C1854 C315 1.553 . S
C1879 C476 1.570 . S
C1884 C825 1.374 . S
C1909 C741 1.370 . S
C1914 C567 1.576 . S
C1939 C898 1.568 . S
C1944 C644 1.621 . S
C1969 C399 1.598 . S
C1974 C982 1.541 . S
C1999 C993 1.390 . S
C2004 C147 1.599 . S
C2029 C224 1.609 . S
C2034 C814 1.561 . S
C2059 C909 1.399 . S
C2064 C63 1.606 . S
