# Generated by pormake.
# Topology ull, (4)-cn, num edge types: 1
# Building blocks:
#     Node 0, Type 0, BuildingBlock: QUQFOY_clean_sbu_3, # of connection points: 4
#     Node 1, Type 0, BuildingBlock: QUQFOY_clean_sbu_3, # of connection points: 4
#     Node 2, Type 0, BuildingBlock: QUQFOY_clean_sbu_3, # of connection points: 4
#     Node 3, Type 0, BuildingBlock: QUQFOY_clean_sbu_3, # of connection points: 4
#     Node 4, Type 0, BuildingBlock: QUQFOY_clean_sbu_3, # of connection points: 4
#     Node 5, Type 0, BuildingBlock: QUQFOY_clean_sbu_3, # of connection points: 4
#     Node 6, Type 0, BuildingBlock: QUQFOY_clean_sbu_3, # of connection points: 4
#     Node 7, Type 0, BuildingBlock: QUQFOY_clean_sbu_3, # of connection points: 4
#     Node 8, Type 0, BuildingBlock: QUQFOY_clean_sbu_3, # of connection points: 4
#     Node 9, Type 0, BuildingBlock: QUQFOY_clean_sbu_3, # of connection points: 4
#     Node 10, Type 0, BuildingBlock: QUQFOY_clean_sbu_3, # of connection points: 4
#     Node 11, Type 0, BuildingBlock: QUQFOY_clean_sbu_3, # of connection points: 4
#     Node 12, Type 0, BuildingBlock: QUQFOY_clean_sbu_3, # of connection points: 4
#     Node 13, Type 0, BuildingBlock: QUQFOY_clean_sbu_3, # of connection points: 4
#     Node 14, Type 0, BuildingBlock: QUQFOY_clean_sbu_3, # of connection points: 4
#     Node 15, Type 0, BuildingBlock: QUQFOY_clean_sbu_3, # of connection points: 4
#     Node 16, Type 0, BuildingBlock: QUQFOY_clean_sbu_3, # of connection points: 4
#     Node 17, Type 0, BuildingBlock: QUQFOY_clean_sbu_3, # of connection points: 4
#     Node 18, Type 0, BuildingBlock: QUQFOY_clean_sbu_3, # of connection points: 4
#     Node 19, Type 0, BuildingBlock: QUQFOY_clean_sbu_3, # of connection points: 4
#     Node 20, Type 0, BuildingBlock: QUQFOY_clean_sbu_3, # of connection points: 4
#     Node 21, Type 0, BuildingBlock: QUQFOY_clean_sbu_3, # of connection points: 4
#     Node 22, Type 0, BuildingBlock: QUQFOY_clean_sbu_3, # of connection points: 4
#     Node 23, Type 0, BuildingBlock: QUQFOY_clean_sbu_3, # of connection points: 4
#     Node 24, Type 0, BuildingBlock: QUQFOY_clean_sbu_3, # of connection points: 4
#     Node 25, Type 0, BuildingBlock: QUQFOY_clean_sbu_3, # of connection points: 4
#     Node 26, Type 0, BuildingBlock: QUQFOY_clean_sbu_3, # of connection points: 4
#     Node 27, Type 0, BuildingBlock: QUQFOY_clean_sbu_3, # of connection points: 4
#     Node 28, Type 0, BuildingBlock: QUQFOY_clean_sbu_3, # of connection points: 4
#     Node 29, Type 0, BuildingBlock: QUQFOY_clean_sbu_3, # of connection points: 4
#     Node 30, Type 0, BuildingBlock: QUQFOY_clean_sbu_3, # of connection points: 4
#     Node 31, Type 0, BuildingBlock: QUQFOY_clean_sbu_3, # of connection points: 4
#     Node 32, Type 0, BuildingBlock: QUQFOY_clean_sbu_3, # of connection points: 4
#     Node 33, Type 0, BuildingBlock: QUQFOY_clean_sbu_3, # of connection points: 4
#     Node 34, Type 0, BuildingBlock: QUQFOY_clean_sbu_3, # of connection points: 4
#     Node 35, Type 0, BuildingBlock: QUQFOY_clean_sbu_3, # of connection points: 4
#     Node 36, Type 0, BuildingBlock: QUQFOY_clean_sbu_3, # of connection points: 4
#     Node 37, Type 0, BuildingBlock: QUQFOY_clean_sbu_3, # of connection points: 4
#     Node 38, Type 0, BuildingBlock: QUQFOY_clean_sbu_3, # of connection points: 4
#     Node 39, Type 0, BuildingBlock: QUQFOY_clean_sbu_3, # of connection points: 4
#     Node 40, Type 0, BuildingBlock: QUQFOY_clean_sbu_3, # of connection points: 4
#     Node 41, Type 0, BuildingBlock: QUQFOY_clean_sbu_3, # of connection points: 4
#     Node 42, Type 0, BuildingBlock: QUQFOY_clean_sbu_3, # of connection points: 4
#     Node 43, Type 0, BuildingBlock: QUQFOY_clean_sbu_3, # of connection points: 4
#     Node 44, Type 0, BuildingBlock: QUQFOY_clean_sbu_3, # of connection points: 4
#     Node 45, Type 0, BuildingBlock: QUQFOY_clean_sbu_3, # of connection points: 4
#     Node 46, Type 0, BuildingBlock: QUQFOY_clean_sbu_3, # of connection points: 4
#     Node 47, Type 0, BuildingBlock: QUQFOY_clean_sbu_3, # of connection points: 4
#     Edge 48, Type (0, 0), BuildingBlock: XIVTED_clean_linker_0, # of connection points: 2
#     Edge 49, Type (0, 0), BuildingBlock: XIVTED_clean_linker_0, # of connection points: 2
#     Edge 50, Type (0, 0), BuildingBlock: XIVTED_clean_linker_0, # of connection points: 2
#     Edge 51, Type (0, 0), BuildingBlock: XIVTED_clean_linker_0, # of connection points: 2
#     Edge 52, Type (0, 0), BuildingBlock: XIVTED_clean_linker_0, # of connection points: 2
#     Edge 53, Type (0, 0), BuildingBlock: XIVTED_clean_linker_0, # of connection points: 2
#     Edge 54, Type (0, 0), BuildingBlock: XIVTED_clean_linker_0, # of connection points: 2
#     Edge 55, Type (0, 0), BuildingBlock: XIVTED_clean_linker_0, # of connection points: 2
#     Edge 56, Type (0, 0), BuildingBlock: XIVTED_clean_linker_0, # of connection points: 2
#     Edge 57, Type (0, 0), BuildingBlock: XIVTED_clean_linker_0, # of connection points: 2
#     Edge 58, Type (0, 0), BuildingBlock: XIVTED_clean_linker_0, # of connection points: 2
#     Edge 59, Type (0, 0), BuildingBlock: XIVTED_clean_linker_0, # of connection points: 2
#     Edge 60, Type (0, 0), BuildingBlock: XIVTED_clean_linker_0, # of connection points: 2
#     Edge 61, Type (0, 0), BuildingBlock: XIVTED_clean_linker_0, # of connection points: 2
#     Edge 62, Type (0, 0), BuildingBlock: XIVTED_clean_linker_0, # of connection points: 2
#     Edge 63, Type (0, 0), BuildingBlock: XIVTED_clean_linker_0, # of connection points: 2
#     Edge 64, Type (0, 0), BuildingBlock: XIVTED_clean_linker_0, # of connection points: 2
#     Edge 65, Type (0, 0), BuildingBlock: XIVTED_clean_linker_0, # of connection points: 2
#     Edge 66, Type (0, 0), BuildingBlock: XIVTED_clean_linker_0, # of connection points: 2
#     Edge 67, Type (0, 0), BuildingBlock: XIVTED_clean_linker_0, # of connection points: 2
#     Edge 68, Type (0, 0), BuildingBlock: XIVTED_clean_linker_0, # of connection points: 2
#     Edge 69, Type (0, 0), BuildingBlock: XIVTED_clean_linker_0, # of connection points: 2
#     Edge 70, Type (0, 0), BuildingBlock: XIVTED_clean_linker_0, # of connection points: 2
#     Edge 71, Type (0, 0), BuildingBlock: XIVTED_clean_linker_0, # of connection points: 2
#     Edge 72, Type (0, 0), BuildingBlock: XIVTED_clean_linker_0, # of connection points: 2
#     Edge 73, Type (0, 0), BuildingBlock: XIVTED_clean_linker_0, # of connection points: 2
#     Edge 74, Type (0, 0), BuildingBlock: XIVTED_clean_linker_0, # of connection points: 2
#     Edge 75, Type (0, 0), BuildingBlock: XIVTED_clean_linker_0, # of connection points: 2
#     Edge 76, Type (0, 0), BuildingBlock: XIVTED_clean_linker_0, # of connection points: 2
#     Edge 77, Type (0, 0), BuildingBlock: XIVTED_clean_linker_0, # of connection points: 2
#     Edge 78, Type (0, 0), BuildingBlock: XIVTED_clean_linker_0, # of connection points: 2
#     Edge 79, Type (0, 0), BuildingBlock: XIVTED_clean_linker_0, # of connection points: 2
#     Edge 80, Type (0, 0), BuildingBlock: XIVTED_clean_linker_0, # of connection points: 2
#     Edge 81, Type (0, 0), BuildingBlock: XIVTED_clean_linker_0, # of connection points: 2
#     Edge 82, Type (0, 0), BuildingBlock: XIVTED_clean_linker_0, # of connection points: 2
#     Edge 83, Type (0, 0), BuildingBlock: XIVTED_clean_linker_0, # of connection points: 2
#     Edge 84, Type (0, 0), BuildingBlock: XIVTED_clean_linker_0, # of connection points: 2
#     Edge 85, Type (0, 0), BuildingBlock: XIVTED_clean_linker_0, # of connection points: 2
#     Edge 86, Type (0, 0), BuildingBlock: XIVTED_clean_linker_0, # of connection points: 2
#     Edge 87, Type (0, 0), BuildingBlock: XIVTED_clean_linker_0, # of connection points: 2
#     Edge 88, Type (0, 0), BuildingBlock: XIVTED_clean_linker_0, # of connection points: 2
#     Edge 89, Type (0, 0), BuildingBlock: XIVTED_clean_linker_0, # of connection points: 2
#     Edge 90, Type (0, 0), BuildingBlock: XIVTED_clean_linker_0, # of connection points: 2
#     Edge 91, Type (0, 0), BuildingBlock: XIVTED_clean_linker_0, # of connection points: 2
#     Edge 92, Type (0, 0), BuildingBlock: XIVTED_clean_linker_0, # of connection points: 2
#     Edge 93, Type (0, 0), BuildingBlock: XIVTED_clean_linker_0, # of connection points: 2
#     Edge 94, Type (0, 0), BuildingBlock: XIVTED_clean_linker_0, # of connection points: 2
#     Edge 95, Type (0, 0), BuildingBlock: XIVTED_clean_linker_0, # of connection points: 2
#     Edge 96, Type (0, 0), BuildingBlock: XIVTED_clean_linker_0, # of connection points: 2
#     Edge 97, Type (0, 0), BuildingBlock: XIVTED_clean_linker_0, # of connection points: 2
#     Edge 98, Type (0, 0), BuildingBlock: XIVTED_clean_linker_0, # of connection points: 2
#     Edge 99, Type (0, 0), BuildingBlock: XIVTED_clean_linker_0, # of connection points: 2
#     Edge 100, Type (0, 0), BuildingBlock: XIVTED_clean_linker_0, # of connection points: 2
#     Edge 101, Type (0, 0), BuildingBlock: XIVTED_clean_linker_0, # of connection points: 2
#     Edge 102, Type (0, 0), BuildingBlock: XIVTED_clean_linker_0, # of connection points: 2
#     Edge 103, Type (0, 0), BuildingBlock: XIVTED_clean_linker_0, # of connection points: 2
#     Edge 104, Type (0, 0), BuildingBlock: XIVTED_clean_linker_0, # of connection points: 2
#     Edge 105, Type (0, 0), BuildingBlock: XIVTED_clean_linker_0, # of connection points: 2
#     Edge 106, Type (0, 0), BuildingBlock: XIVTED_clean_linker_0, # of connection points: 2
#     Edge 107, Type (0, 0), BuildingBlock: XIVTED_clean_linker_0, # of connection points: 2
#     Edge 108, Type (0, 0), BuildingBlock: XIVTED_clean_linker_0, # of connection points: 2
#     Edge 109, Type (0, 0), BuildingBlock: XIVTED_clean_linker_0, # of connection points: 2
#     Edge 110, Type (0, 0), BuildingBlock: XIVTED_clean_linker_0, # of connection points: 2
#     Edge 111, Type (0, 0), BuildingBlock: XIVTED_clean_linker_0, # of connection points: 2
#     Edge 112, Type (0, 0), BuildingBlock: XIVTED_clean_linker_0, # of connection points: 2
#     Edge 113, Type (0, 0), BuildingBlock: XIVTED_clean_linker_0, # of connection points: 2
#     Edge 114, Type (0, 0), BuildingBlock: XIVTED_clean_linker_0, # of connection points: 2
#     Edge 115, Type (0, 0), BuildingBlock: XIVTED_clean_linker_0, # of connection points: 2
#     Edge 116, Type (0, 0), BuildingBlock: XIVTED_clean_linker_0, # of connection points: 2
#     Edge 117, Type (0, 0), BuildingBlock: XIVTED_clean_linker_0, # of connection points: 2
#     Edge 118, Type (0, 0), BuildingBlock: XIVTED_clean_linker_0, # of connection points: 2
#     Edge 119, Type (0, 0), BuildingBlock: XIVTED_clean_linker_0, # of connection points: 2
#     Edge 120, Type (0, 0), BuildingBlock: XIVTED_clean_linker_0, # of connection points: 2
#     Edge 121, Type (0, 0), BuildingBlock: XIVTED_clean_linker_0, # of connection points: 2
#     Edge 122, Type (0, 0), BuildingBlock: XIVTED_clean_linker_0, # of connection points: 2
#     Edge 123, Type (0, 0), BuildingBlock: XIVTED_clean_linker_0, # of connection points: 2
#     Edge 124, Type (0, 0), BuildingBlock: XIVTED_clean_linker_0, # of connection points: 2
#     Edge 125, Type (0, 0), BuildingBlock: XIVTED_clean_linker_0, # of connection points: 2
#     Edge 126, Type (0, 0), BuildingBlock: XIVTED_clean_linker_0, # of connection points: 2
#     Edge 127, Type (0, 0), BuildingBlock: XIVTED_clean_linker_0, # of connection points: 2
#     Edge 128, Type (0, 0), BuildingBlock: XIVTED_clean_linker_0, # of connection points: 2
#     Edge 129, Type (0, 0), BuildingBlock: XIVTED_clean_linker_0, # of connection points: 2
#     Edge 130, Type (0, 0), BuildingBlock: XIVTED_clean_linker_0, # of connection points: 2
#     Edge 131, Type (0, 0), BuildingBlock: XIVTED_clean_linker_0, # of connection points: 2
#     Edge 132, Type (0, 0), BuildingBlock: XIVTED_clean_linker_0, # of connection points: 2
#     Edge 133, Type (0, 0), BuildingBlock: XIVTED_clean_linker_0, # of connection points: 2
#     Edge 134, Type (0, 0), BuildingBlock: XIVTED_clean_linker_0, # of connection points: 2
#     Edge 135, Type (0, 0), BuildingBlock: XIVTED_clean_linker_0, # of connection points: 2
#     Edge 136, Type (0, 0), BuildingBlock: XIVTED_clean_linker_0, # of connection points: 2
#     Edge 137, Type (0, 0), BuildingBlock: XIVTED_clean_linker_0, # of connection points: 2
#     Edge 138, Type (0, 0), BuildingBlock: XIVTED_clean_linker_0, # of connection points: 2
#     Edge 139, Type (0, 0), BuildingBlock: XIVTED_clean_linker_0, # of connection points: 2
#     Edge 140, Type (0, 0), BuildingBlock: XIVTED_clean_linker_0, # of connection points: 2
#     Edge 141, Type (0, 0), BuildingBlock: XIVTED_clean_linker_0, # of connection points: 2
#     Edge 142, Type (0, 0), BuildingBlock: XIVTED_clean_linker_0, # of connection points: 2
#     Edge 143, Type (0, 0), BuildingBlock: XIVTED_clean_linker_0, # of connection points: 2
# Relax obj value: 0.026
# Max RMSD: 0.091
# Mean RMSD: 0.091
data_MOF--net-ull--node1-QUQFOY_clean_sbu_3--edge1-XIVTED_clean_linker_0
_symmetry_space_group_name_H-M    P1
_symmetry_Int_Tables_number       1
_symmetry_cell_setting            triclinic
loop_
_symmetry_equiv_pos_as_xyz
'x, y, z'
_cell_length_a     63.160557
_cell_length_b     63.148674
_cell_length_c     63.059875
_cell_angle_alpha  89.95709
_cell_angle_beta   90.104502
_cell_angle_gamma 90.03649
loop_
_atom_site_label
_atom_site_type_symbol
_atom_site_fract_x
_atom_site_fract_y
_atom_site_fract_z
_atom_type_partial_charge
C0 C 0.03653 0.31471 0.13422 0.0
O1 O 0.0299 0.29665 0.14006 0.0
Cd2 Cd 0.00071 0.29216 0.16329 0.0
O3 O 0.0285 0.33156 0.14193 0.0
Cd4 Cd 0.00202 0.34152 0.16966 0.0
C5 C 0.96403 0.32405 0.13733 0.0
O6 O 0.00928 0.31248 0.19379 0.0
O7 O 0.98002 0.32908 0.19946 0.0
O8 O 0.03058 0.36368 0.18093 0.0
C9 C -0.00642 0.31569 0.20579 0.0
O10 O 0.97078 0.30594 0.14313 0.0
C11 C 0.01956 0.37934 0.18689 0.0
O12 O 0.97301 0.34093 0.14383 0.0
O13 O -0.00026 0.37832 0.18342 0.0
C14 C 0.65038 0.04364 0.14497 0.0
O15 O 0.66906 0.03881 0.15064 0.0
Cd16 Cd 0.67772 0.00991 0.17296 0.0
O17 O 0.63451 0.03328 0.15199 0.0
Cd18 Cd 0.62871 0.0038 0.17821 0.0
C19 C 0.65263 0.96931 0.1459 0.0
O20 O 0.65589 0.01528 0.20319 0.0
O21 O 0.64435 0.98359 0.20787 0.0
O22 O 0.5981 0.02512 0.18757 0.0
C23 C 0.65537 -0.00111 0.21472 0.0
O24 O 0.66966 0.97813 0.15222 0.0
C25 C 0.5868 0.00979 0.19395 0.0
O26 O 0.63468 0.97614 0.15196 0.0
O27 O 0.59449 -0.00867 0.192 0.0
C28 C 0.94435 0.66331 0.13128 0.0
O29 O 0.95078 0.68175 0.13605 0.0
Cd30 Cd 0.97742 0.68834 0.16202 0.0
O31 O 0.95162 0.64716 0.141 0.0
Cd32 Cd 0.97675 0.6402 0.1708 0.0
C33 C 0.0178 0.65736 0.14237 0.0
O34 O 0.96688 0.67003 0.19334 0.0
O35 O -0.00368 0.65467 0.20126 0.0
O36 O 0.94978 0.61644 0.18307 0.0
C37 C 0.98193 0.66765 0.20641 0.0
O38 O 0.01054 0.6756 0.14695 0.0
C39 C 0.962 0.60163 0.18895 0.0
O40 O 0.00784 0.64067 0.14774 0.0
O41 O 0.98159 0.60396 0.18501 0.0
C42 C 0.31561 0.95214 0.12445 0.0
O43 O 0.29826 0.96197 0.12705 0.0
Cd44 Cd 0.292 0.98829 0.15345 0.0
O45 O 0.33149 0.95588 0.13641 0.0
Cd46 Cd 0.34016 0.97859 0.16754 0.0
C47 C 0.33155 0.02381 0.14058 0.0
O48 O 0.30628 0.97312 0.18456 0.0
O49 O 0.32648 -0.00404 0.1999 0.0
O50 O 0.35817 0.94761 0.18044 0.0
C51 C 0.30939 0.98546 0.20002 0.0
O52 O 0.31204 0.01926 0.14279 0.0
C53 C 0.37436 0.9571 0.18763 0.0
O54 O 0.34597 0.01101 0.14657 0.0
O55 O 0.37559 0.97689 0.18413 0.0
C56 C 0.03116 0.66314 0.85106 0.0
O57 O 0.0235 0.68115 0.84647 0.0
Cd58 Cd -0.00248 0.68602 0.81944 0.0
O59 O 0.02547 0.64673 0.84075 0.0
Cd60 Cd 0.00218 0.63809 0.80998 0.0
C61 C 0.95873 0.65147 0.83664 0.0
O62 O 0.01104 0.66901 0.78861 0.0
O63 O 0.98328 0.6518 0.77863 0.0
O64 O 0.03208 0.61723 0.79972 0.0
C65 C -0.00302 0.66591 0.77463 0.0
O66 O 0.96485 0.67025 0.83253 0.0
C67 C 0.02188 0.60157 0.79239 0.0
O68 O 0.97017 0.63561 0.83176 0.0
O69 O 0.00187 0.60198 0.79448 0.0
C70 C 0.32931 0.03382 0.84277 0.0
O71 O 0.31081 0.02773 0.83779 0.0
Cd72 Cd 0.3032 0.00124 0.81225 0.0
O73 O 0.34549 0.02585 0.83367 0.0
Cd74 Cd 0.35182 -0.00104 0.80508 0.0
C75 C 0.33111 0.95985 0.83426 0.0
O76 O 0.32336 0.01125 0.78192 0.0
O77 O 0.3362 0.98069 0.77426 0.0
O78 O 0.38143 0.02187 0.79583 0.0
C79 C 0.32448 -0.00393 0.76891 0.0
O80 O 0.31337 0.96775 0.8288 0.0
C81 C 0.39293 0.00721 0.78839 0.0
O82 O 0.34837 0.96886 0.82906 0.0
O83 O 0.38588 0.98845 0.78981 0.0
C84 C 0.93933 0.3345 0.83619 0.0
O85 O 0.94364 0.31559 0.83096 0.0
Cd86 Cd 0.97234 0.30546 0.80918 0.0
O87 O 0.95025 0.34995 0.82905 0.0
Cd88 Cd 0.98013 0.35471 0.80316 0.0
C89 C 0.01379 0.32998 0.8359 0.0
O90 O 0.96797 0.32733 0.77891 0.0
O91 O -0.00011 0.33796 0.77389 0.0
O92 O 0.95892 0.38518 0.79326 0.0
C93 C 0.98436 0.32702 0.76745 0.0
O94 O 0.00421 0.3133 0.82976 0.0
C95 C 0.97412 0.39618 0.78615 0.0
O96 O 0.00771 0.3482 0.82969 0.0
O97 O -0.0074 0.3885 0.78806 0.0
C98 C 0.65705 0.94177 0.84514 0.0
O99 O 0.67556 0.94798 0.84029 0.0
Cd100 Cd 0.68491 0.97512 0.81604 0.0
O101 O 0.64068 0.95 0.83649 0.0
Cd102 Cd 0.63302 0.97752 0.80867 0.0
C103 C 0.65578 0.01554 0.83915 0.0
O104 O 0.66249 0.96583 0.78766 0.0
O105 O 0.64628 -0.00731 0.77464 0.0
O106 O 0.60323 0.95418 0.80128 0.0
C107 C 0.66087 0.9791 0.7728 0.0
O108 O 0.67342 0.00714 0.83418 0.0
C109 C 0.59139 0.96855 0.79369 0.0
O110 O 0.63834 0.0076 0.83274 0.0
O111 O 0.59839 0.98739 0.79423 0.0
C112 C 0.1189 0.033 0.3137 0.0
O113 O 0.1221 0.02449 0.29575 0.0
Cd114 Cd 0.14855 -0.00147 0.28857 0.0
O115 O 0.13026 0.02801 0.32969 0.0
Cd116 Cd 0.16099 0.00448 0.33747 0.0
C117 C 0.13415 0.9602 0.32479 0.0
O118 O 0.17934 0.01262 0.30467 0.0
O119 O 0.19367 0.9881 0.32361 0.0
O120 O 0.17306 0.03383 0.35848 0.0
C121 C 0.19463 3e-05 0.30748 0.0
O122 O 0.13688 0.96619 0.30571 0.0
C123 C 0.18002 0.02301 0.37394 0.0
O124 O 0.13995 0.97181 0.34026 0.0
O125 O 0.17669 0.00317 0.37336 0.0
C126 C 0.93255 0.14057 0.32543 0.0
O127 O 0.93766 0.14671 0.30697 0.0
Cd128 Cd 0.96561 0.17054 0.29936 0.0
O129 O 0.94197 0.14798 0.34176 0.0
Cd130 Cd 0.97015 0.17508 0.34908 0.0
C131 C 0.0058 0.1438 0.32533 0.0
O132 O 0.95902 0.20003 0.32184 0.0
O133 O 0.99024 0.20513 0.33445 0.0
O134 O 0.94843 0.18487 0.37933 0.0
C135 C 0.97518 0.2118 0.32297 0.0
O136 O -0.00252 0.15031 0.3081 0.0
C137 C 0.9638 0.19016 0.39119 0.0
O138 O -0.00166 0.14947 0.34319 0.0
O139 O 0.98231 0.18729 0.38395 0.0
C140 C 0.8408 0.94288 0.32791 0.0
O141 O 0.83535 0.94916 0.30958 0.0
Cd142 Cd 0.81008 0.97606 0.30251 0.0
O143 O 0.83236 0.9509 0.34444 0.0
Cd144 Cd 0.80431 0.97821 0.35149 0.0
C145 C 0.83298 0.01726 0.32987 0.0
O146 O 0.78014 0.96669 0.32348 0.0
O147 O 0.77346 -0.00277 0.33687 0.0
O148 O 0.79456 0.95572 0.38133 0.0
C149 C 0.76755 0.98217 0.325 0.0
O150 O 0.82698 0.0095 0.31222 0.0
C151 C 0.78882 0.97079 0.39331 0.0
O152 O 0.82834 0.00812 0.34724 0.0
O153 O 0.79138 0.98946 0.38631 0.0
C154 C 0.03213 0.84064 0.33109 0.0
O155 O 0.02567 0.83559 0.3127 0.0
Cd156 Cd -0.00241 0.81196 0.30555 0.0
O157 O 0.02377 0.83244 0.3476 0.0
Cd158 Cd -0.00406 0.8048 0.35489 0.0
C159 C 0.95793 0.8359 0.33489 0.0
O160 O 0.00704 0.78188 0.32609 0.0
O161 O 0.97644 0.7746 0.33895 0.0
O162 O 0.02006 0.79522 0.38345 0.0
C163 C -0.00845 0.76926 0.32692 0.0
O164 O 0.9656 0.83039 0.31706 0.0
C165 C 0.00601 0.78749 0.39553 0.0
O166 O 0.96659 0.82991 0.35214 0.0
O167 O 0.98694 0.78888 0.38933 0.0
C168 C 0.14254 0.94333 0.65287 0.0
O169 O 0.14792 0.94922 0.67134 0.0
Cd170 Cd 0.17165 0.97727 0.67868 0.0
O171 O 0.15037 0.95228 0.6365 0.0
Cd172 Cd 0.17755 0.98058 0.62956 0.0
C173 C 0.14682 0.01775 0.65132 0.0
O174 O 0.20157 0.96894 0.65741 0.0
O175 O 0.20794 -2e-05 0.645 0.0
O176 O 0.18671 0.95766 0.60002 0.0
C177 C 0.21396 0.98462 0.65644 0.0
O178 O 0.15281 0.00963 0.66883 0.0
C179 C 0.19384 0.97227 0.58822 0.0
O180 O 0.15239 0.00959 0.63375 0.0
O181 O 0.19225 -0.0089 0.59505 0.0
C182 C 0.04075 0.13532 0.66199 0.0
O183 O 0.03489 0.14066 0.68046 0.0
Cd184 Cd 0.0072 0.16496 0.68761 0.0
O185 O 0.03212 0.14359 0.64564 0.0
Cd186 Cd 0.00433 0.17117 0.63866 0.0
C187 C 0.96685 0.14033 0.66022 0.0
O188 O 0.01543 0.19536 0.66671 0.0
O189 O 0.98459 0.2013 0.65348 0.0
O190 O 0.0272 0.18144 0.60931 0.0
C191 C -0.00034 0.2076 0.66515 0.0
O192 O 0.97477 0.14622 0.67785 0.0
C193 C 0.01235 0.1877 0.59727 0.0
O194 O 0.97521 0.14604 0.64277 0.0
O195 O -0.00643 0.18507 0.6039 0.0
C196 C 0.84948 0.03339 0.66652 0.0
O197 O 0.84452 0.02573 0.68448 0.0
Cd198 Cd 0.81913 -0.00172 0.68996 0.0
O199 O 0.84024 0.02709 0.64964 0.0
Cd200 Cd 0.81128 0.00246 0.63858 0.0
C201 C 0.84041 0.96098 0.65547 0.0
O202 O 0.79004 0.00974 0.66946 0.0
O203 O 0.77768 0.98521 0.64923 0.0
O204 O 0.80275 0.03205 0.61628 0.0
C205 C 0.77544 -0.00339 0.66559 0.0
O206 O 0.83572 0.96752 0.67398 0.0
C207 C 0.79614 0.02146 0.60052 0.0
O208 O 0.83451 0.97116 0.63901 0.0
O209 O 0.79789 0.00143 0.60168 0.0
C210 C 0.95119 0.84786 0.65802 0.0
O211 O 0.95849 0.84285 0.67611 0.0
Cd212 Cd 0.9856 0.81738 0.68139 0.0
O213 O 0.95798 0.83874 0.64132 0.0
Cd214 Cd 0.98317 0.80951 0.63237 0.0
C215 C 0.02452 0.83809 0.64874 0.0
O216 O 0.97357 0.78729 0.66226 0.0
O217 O 0.00224 0.77818 0.6463 0.0
O218 O 0.95461 0.80013 0.60918 0.0
C219 C 0.98807 0.77374 0.6598 0.0
O220 O 0.01778 0.8332 0.66713 0.0
C221 C 0.96575 0.793 0.5941 0.0
O222 O 0.01421 0.83277 0.6322 0.0
O223 O 0.98572 0.79467 0.59604 0.0
C224 C 0.3382 0.13886 0.035 0.0
O225 O 0.31949 0.14357 0.02937 0.0
Cd226 Cd 0.31055 0.16579 0.00062 0.0
O227 O 0.35417 0.1466 0.0253 0.0
Cd228 Cd 0.35998 0.17297 -0.00414 0.0
C229 C 0.33794 0.14069 0.9601 0.0
O230 O 0.33166 0.19601 0.00772 0.0
O231 O 0.34306 0.20264 0.97638 0.0
O232 O 0.38999 0.18219 0.01817 0.0
C233 C 0.3315 0.20815 -0.0082 0.0
O234 O 0.32059 0.1463 0.9687 0.0
C235 C 0.40104 0.1903 0.0035 0.0
O236 O 0.35561 0.14703 0.96749 0.0
O237 O 0.39357 0.18939 0.98484 0.0
C238 C 0.3233 0.84092 0.93876 0.0
O239 O 0.30485 0.83522 0.94433 0.0
Cd240 Cd 0.29754 0.81209 0.97294 0.0
O241 O 0.33963 0.83365 0.94825 0.0
Cd242 Cd 0.34698 0.80751 0.97741 0.0
C243 C 0.32337 0.83957 0.01259 0.0
O244 O 0.32 0.78255 0.96601 0.0
O245 O 0.33249 0.77702 -0.00275 0.0
O246 O 0.37795 0.79869 0.95622 0.0
C247 C 0.32119 0.7705 0.98198 0.0
O248 O 0.30606 0.83309 0.00447 0.0
C249 C 0.38947 0.79328 0.97181 0.0
O250 O 0.34108 0.83351 0.00516 0.0
O251 O 0.38162 0.79543 0.99018 0.0
C252 C 0.13107 0.3091 0.94156 0.0
O253 O 0.1355 0.29041 0.94747 0.0
Cd254 Cd 0.16074 0.28289 0.97466 0.0
O255 O 0.14095 0.32486 0.94942 0.0
Cd256 Cd 0.17065 0.33059 0.97487 0.0
C257 C 0.14094 0.31368 0.01516 0.0
O258 O 0.19299 0.30035 0.96574 0.0
O259 O 0.1999 0.31562 -0.00442 0.0
O260 O 0.18528 0.35276 0.94783 0.0
C261 C 0.2055 0.30267 0.9813 0.0
O262 O 0.14513 0.29548 0.00757 0.0
C263 C 0.19061 0.36806 0.95969 0.0
O264 O 0.14706 0.33042 0.00569 0.0
O265 O 0.18516 0.3669 0.97906 0.0
C266 C 0.65987 0.12823 0.95099 0.0
O267 O 0.67777 0.13182 0.95949 0.0
Cd268 Cd 0.68466 0.15868 0.98519 0.0
O269 O 0.64372 0.13929 0.95595 0.0
Cd270 Cd 0.63469 0.17005 0.9791 0.0
C271 C 0.64847 0.14395 0.02375 0.0
O272 O 0.66719 0.18824 0.9703 0.0
O273 O 0.64795 0.20421 -0.00661 0.0
O274 O 0.61263 0.17746 0.9489 0.0
C275 C 0.66442 0.20424 0.98196 0.0
O276 O 0.6674 0.14687 0.01747 0.0
C277 C 0.59765 0.18621 0.95897 0.0
O278 O 0.63275 0.14948 0.0123 0.0
O279 O 0.5991 0.18639 0.97908 0.0
C280 C 0.83943 0.65087 0.93913 0.0
O281 O 0.83405 0.66955 0.94418 0.0
Cd282 Cd 0.81163 0.67841 0.97279 0.0
O283 O 0.83205 0.63493 0.94917 0.0
Cd284 Cd 0.80556 0.62907 0.9784 0.0
C285 C 0.8378 0.65221 0.01353 0.0
O286 O 0.78142 0.65684 0.96698 0.0
O287 O 0.77652 0.64546 -0.0013 0.0
O288 O 0.79554 0.59905 0.95646 0.0
C289 C 0.76999 0.65671 0.9834 0.0
O290 O 0.83171 0.66932 0.00471 0.0
C291 C 0.78828 0.58788 0.97149 0.0
O292 O 0.83174 0.6343 0.00647 0.0
O293 O 0.79019 0.59523 0.99012 0.0
C294 C 0.66638 0.85214 0.0393 0.0
O295 O 0.68463 0.84732 0.03247 0.0
Cd296 Cd 0.69024 0.82117 0.00582 0.0
O297 O 0.65005 0.84232 0.03259 0.0
Cd298 Cd 0.64199 0.81219 0.00833 0.0
C299 C 0.65727 0.84018 0.96632 0.0
O300 O 0.67237 0.78989 0.01693 0.0
O301 O 0.65565 0.78196 0.98816 0.0
O302 O 0.62015 0.80032 0.03701 0.0
C303 C 0.66939 0.7769 0.00193 0.0
O304 O 0.67575 0.83575 0.97313 0.0
C305 C 0.60473 0.79386 0.02587 0.0
O306 O 0.64091 0.83495 0.97689 0.0
O307 O 0.60575 0.79728 0.00603 0.0
C308 C 0.13832 0.658 0.04009 0.0
O309 O 0.14412 0.67641 0.03449 0.0
Cd310 Cd 0.16752 0.68366 0.00614 0.0
O311 O 0.14574 0.64162 0.03085 0.0
Cd312 Cd 0.17253 0.63436 0.00235 0.0
C313 C 0.14087 0.65718 0.96625 0.0
O314 O 0.19725 0.66169 0.01358 0.0
O315 O 0.20278 0.64908 0.98243 0.0
O316 O 0.18195 0.60454 0.02491 0.0
C317 C 0.2093 0.66043 -0.00235 0.0
O318 O 0.14726 0.67452 0.97435 0.0
C319 C 0.18809 0.59263 0.00995 0.0
O320 O 0.14673 0.63949 0.97397 0.0
O321 O 0.18583 0.59958 -0.0088 0.0
C322 C 0.85193 0.32131 0.02448 0.0
O323 O 0.84841 0.30377 0.01527 0.0
Cd324 Cd 0.82125 0.29742 0.9897 0.0
O325 O 0.84054 0.3375 0.02043 0.0
Cd326 Cd 0.80926 0.34626 -0.00216 0.0
C327 C 0.83491 0.33508 0.95246 0.0
O328 O 0.79112 0.3132 0.00514 0.0
O329 O 0.77588 0.33304 0.98192 0.0
O330 O 0.79912 0.366 0.02867 0.0
C331 C 0.77543 0.31637 -0.0069 0.0
O332 O 0.832 0.31584 0.95775 0.0
C333 C 0.79135 0.38178 0.01896 0.0
O334 O 0.82976 0.35016 0.96484 0.0
O335 O 0.79324 0.38199 -0.00111 0.0
C336 C 0.5344 0.82314 0.64056 0.0
O337 O 0.52817 0.80475 0.64574 0.0
Cd338 Cd 0.50158 0.79784 0.67138 0.0
O339 O 0.52661 0.83949 0.64953 0.0
Cd340 Cd 0.50002 0.84654 0.67821 0.0
C341 C 0.4605 0.82619 0.64926 0.0
O342 O 0.51184 0.81805 0.70164 0.0
O343 O 0.48157 0.83162 0.70921 0.0
O344 O 0.52372 0.87574 0.68687 0.0
C345 C 0.4967 0.81962 0.71464 0.0
O346 O 0.46821 0.80839 0.65481 0.0
C347 C 0.50945 0.88768 0.69439 0.0
O348 O 0.46973 0.84338 0.65432 0.0
O349 O 0.49052 0.88103 0.69336 0.0
C350 C 0.16848 0.53131 0.6292 0.0
O351 O 0.18659 0.5233 0.63272 0.0
Cd352 Cd 0.19363 0.49715 0.65928 0.0
O353 O 0.15253 0.52586 0.64033 0.0
Cd354 Cd 0.14444 0.50247 0.67114 0.0
C355 C 0.1578 0.45869 0.64382 0.0
O356 O 0.17701 0.51061 0.69014 0.0
O357 O 0.15751 0.48634 0.70421 0.0
O358 O 0.12314 0.53219 0.68135 0.0
C359 C 0.17376 0.49804 0.70543 0.0
O360 O 0.17676 0.46492 0.64671 0.0
C361 C 0.10754 0.52168 0.68837 0.0
O362 O 0.14219 0.46994 0.64986 0.0
O363 O 0.10834 0.50167 0.68624 0.0
C364 C 0.43918 0.15277 0.63501 0.0
O365 O 0.44514 0.17154 0.63921 0.0
Cd366 Cd 0.47195 0.18265 0.66306 0.0
O367 O 0.44785 0.13679 0.64398 0.0
Cd368 Cd 0.47611 0.13088 0.67155 0.0
C369 C 0.51366 0.1546 0.64115 0.0
O370 O 0.46316 0.16041 0.69167 0.0
O371 O 0.4902 0.1454 0.70563 0.0
O372 O 0.45466 0.09988 0.67978 0.0
C373 C 0.47618 0.15964 0.70681 0.0
O374 O 0.50464 0.17206 0.64566 0.0
C375 C 0.46984 0.08912 0.68741 0.0
O376 O 0.50615 0.13704 0.64769 0.0
O377 O 0.48819 0.09725 0.68648 0.0
C378 C 0.82441 0.44716 0.63816 0.0
O379 O 0.80601 0.45348 0.64326 0.0
Cd380 Cd 0.79748 0.48107 0.66748 0.0
O381 O 0.84093 0.45553 0.64639 0.0
Cd382 Cd 0.84971 0.48356 0.6732 0.0
C383 C 0.82591 0.52137 0.64323 0.0
O384 O 0.82068 0.4732 0.69573 0.0
O385 O 0.83826 0.50001 0.70705 0.0
O386 O 0.87941 0.46005 0.68042 0.0
C387 C 0.82322 0.48708 0.7099 0.0
O388 O 0.80844 0.51302 0.64888 0.0
C389 C 0.89186 0.47454 0.6867 0.0
O390 O 0.84357 0.51337 0.64892 0.0
O391 O 0.88516 0.49345 0.6856 0.0
C392 C 0.53769 0.1545 0.34186 0.0
O393 O 0.53216 0.17298 0.3362 0.0
Cd394 Cd 0.50356 0.1805 0.31304 0.0
O395 O 0.52821 0.13823 0.33447 0.0
Cd396 Cd 0.49931 0.13135 0.30787 0.0
C397 C 0.46352 0.15431 0.33953 0.0
O398 O 0.5103 0.15874 0.28295 0.0
O399 O 0.47912 0.14606 0.27775 0.0
O400 O 0.52147 0.10121 0.29878 0.0
C401 C 0.49418 0.15751 0.27108 0.0
O402 O 0.47172 0.17163 0.33323 0.0
C403 C 0.50643 0.08946 0.2925 0.0
O404 O 0.47115 0.1366 0.33367 0.0
O405 O 0.48779 0.09669 0.29439 0.0
C406 C 0.8218 0.53328 0.34857 0.0
O407 O 0.80404 0.52571 0.34294 0.0
Cd408 Cd 0.80008 0.49831 0.3176 0.0
O409 O 0.83892 0.52659 0.34021 0.0
Cd410 Cd 0.84964 0.50099 0.31182 0.0
C411 C 0.83234 0.46016 0.34054 0.0
O412 O 0.82065 0.51033 0.2885 0.0
O413 O 0.8368 0.48155 0.28018 0.0
O414 O 0.87382 0.52921 0.30375 0.0
C415 C 0.82343 0.49566 0.27519 0.0
O416 O 0.81413 0.46669 0.33479 0.0
C417 C 0.88864 0.51776 0.29657 0.0
O418 O 0.84898 0.47042 0.33561 0.0
O419 O 0.88605 0.49784 0.29766 0.0
C420 C 0.45049 0.81479 0.356 0.0
O421 O 0.45959 0.79718 0.35265 0.0
Cd422 Cd 0.48533 0.79117 0.32562 0.0
O423 O 0.45464 0.83089 0.3445 0.0
Cd424 Cd 0.477 0.83992 0.31325 0.0
C425 C 0.52206 0.8292 0.33977 0.0
O426 O 0.46997 0.8068 0.29518 0.0
O427 O 0.49307 0.82678 0.28001 0.0
O428 O 0.44604 0.8596 0.30303 0.0
C429 C 0.482 0.81005 0.27953 0.0
O430 O 0.5169 0.80991 0.33698 0.0
C431 C 0.45573 0.87537 0.29523 0.0
O432 O 0.50973 0.84416 0.33412 0.0
O433 O 0.47577 0.87553 0.29707 0.0
C434 C 0.16244 0.44702 0.3521 0.0
O435 O 0.18062 0.45461 0.34805 0.0
Cd436 Cd 0.18767 0.48079 0.3216 0.0
O437 O 0.14626 0.45294 0.34153 0.0
Cd438 Cd 0.13803 0.47694 0.31113 0.0
C439 C 0.15358 0.52013 0.33834 0.0
O440 O 0.1698 0.46827 0.29105 0.0
O441 O 0.15056 0.49322 0.27788 0.0
O442 O 0.1154 0.44795 0.30133 0.0
C443 C 0.16652 0.48122 0.27609 0.0
O444 O 0.17222 0.51335 0.33483 0.0
C445 C 0.10017 0.459 0.2943 0.0
O446 O 0.13741 0.50939 0.33274 0.0
O447 O 0.10177 0.47897 0.29632 0.0
C448 C 0.635 0.53842 0.82248 0.0
O449 O 0.64034 0.53289 0.80386 0.0
Cd450 Cd 0.66741 0.50846 0.79425 0.0
O451 O 0.64445 0.53078 0.8387 0.0
Cd452 Cd 0.67396 0.50512 0.84557 0.0
C453 C 0.64775 0.4651 0.82093 0.0
O454 O 0.69563 0.51854 0.8168 0.0
O455 O 0.70843 0.49149 0.83301 0.0
O456 O 0.68126 0.52727 0.87638 0.0
C457 C 0.71065 0.50551 0.81884 0.0
O458 O 0.65269 0.4741 0.80355 0.0
C459 C 0.6879 0.51221 0.88797 0.0
O460 O 0.65239 0.47354 0.83869 0.0
O461 O 0.68678 0.49366 0.88032 0.0
C462 C 0.44102 0.64463 0.8391 0.0
O463 O 0.44587 0.64887 0.82004 0.0
Cd464 Cd 0.47557 0.66946 0.81015 0.0
O465 O 0.45192 0.65206 0.85446 0.0
Cd466 Cd 0.48259 0.6771 0.85883 0.0
C467 C 0.51603 0.64292 0.83633 0.0
O468 O 0.47091 0.70073 0.8306 0.0
O469 O 0.50275 0.70589 0.84153 0.0
O470 O 0.46136 0.68698 0.88927 0.0
C471 C 0.4873 0.71221 0.83037 0.0
O472 O 0.5069 0.64849 0.81918 0.0
C473 C 0.47644 0.69484 0.89996 0.0
O474 O 0.50974 0.65003 0.85412 0.0
O475 O 0.49486 0.6935 0.8921 0.0
C476 C 0.35536 0.4608 0.82904 0.0
O477 O 0.35125 0.47039 0.81179 0.0
Cd478 Cd 0.32249 0.49394 0.80539 0.0
O479 O 0.34373 0.46342 0.84536 0.0
Cd480 Cd 0.3113 0.48399 0.85506 0.0
C481 C 0.33471 0.53084 0.84397 0.0
O482 O 0.29425 0.47597 0.8218 0.0
O483 O 0.27649 0.49703 0.84171 0.0
O484 O 0.30474 0.45257 0.87558 0.0
C485 C 0.27753 0.48649 0.82466 0.0
O486 O 0.33187 0.5258 0.82463 0.0
C487 C 0.2956 0.46165 0.89099 0.0
O488 O 0.33018 0.51799 0.8589 0.0
O489 O 0.29484 0.48176 0.8905 0.0
C490 C 0.54075 0.34932 0.81046 0.0
O491 O 0.53313 0.34615 0.79207 0.0
Cd492 Cd 0.50218 0.32556 0.78546 0.0
O493 O 0.53279 0.34019 0.82664 0.0
Cd494 Cd 0.50499 0.31351 0.83527 0.0
C495 C 0.46822 0.34954 0.82157 0.0
O496 O 0.50873 0.29313 0.80298 0.0
O497 O 0.48243 0.28414 0.82288 0.0
O498 O 0.53339 0.29711 0.85418 0.0
C499 C 0.49344 0.28067 0.80647 0.0
O500 O 0.47447 0.34563 0.80279 0.0
C501 C 0.52308 0.29229 0.87072 0.0
O502 O 0.47687 0.34051 0.83748 0.0
O503 O 0.50406 0.29883 0.87179 0.0
C504 C 0.63146 0.43904 0.17086 0.0
O505 O 0.6369 0.44498 0.18931 0.0
Cd506 Cd 0.66202 0.4726 0.19482 0.0
O507 O 0.64031 0.44697 0.15453 0.0
Cd508 Cd 0.66927 0.47229 0.14577 0.0
C509 C 0.63906 0.51167 0.16374 0.0
O510 O 0.6927 0.4631 0.17501 0.0
O511 O 0.69986 0.4924 0.15893 0.0
O512 O 0.67951 0.44431 0.12236 0.0
C513 C 0.70545 0.4783 0.17212 0.0
O514 O 0.64423 0.50437 0.18186 0.0
C515 C 0.68562 0.45587 0.10711 0.0
O516 O 0.64508 0.50247 0.14682 0.0
O517 O 0.68289 0.47572 0.10908 0.0
C518 C 0.5295 0.62634 0.16256 0.0
O519 O 0.52096 0.63035 0.18034 0.0
Cd520 Cd 0.49462 0.65653 0.18677 0.0
O521 O 0.5244 0.63679 0.14599 0.0
Cd522 Cd 0.50076 0.66706 0.13632 0.0
C523 C 0.457 0.63981 0.15024 0.0
O524 O 0.5085 0.68598 0.16859 0.0
O525 O 0.48472 0.70065 0.14908 0.0
O526 O 0.53084 0.67672 0.11524 0.0
C527 C 0.49615 0.7014 0.16558 0.0
O528 O 0.46309 0.64334 0.16918 0.0
C529 C 0.5206 0.68439 0.09972 0.0
O530 O 0.46831 0.64538 0.13445 0.0
O531 O 0.50056 0.68256 0.10028 0.0
C532 C 0.34189 0.53237 0.15047 0.0
O533 O 0.33807 0.52562 0.16907 0.0
Cd534 Cd 0.31373 0.49869 0.17903 0.0
O535 O 0.33232 0.52463 0.13438 0.0
Cd536 Cd 0.30414 0.49732 0.12764 0.0
C537 C 0.33353 0.45756 0.14855 0.0
O538 O 0.28437 0.50878 0.15832 0.0
O539 O 0.27044 0.48253 0.14185 0.0
O540 O 0.29632 0.52139 0.09848 0.0
C541 C 0.26932 0.49571 0.1569 0.0
O542 O 0.32939 0.46584 0.16648 0.0
C543 C 0.28777 0.5075 0.08672 0.0
O544 O 0.32742 0.4663 0.13136 0.0
O545 O 0.28788 0.48855 0.09343 0.0
C546 C 0.43795 0.33875 0.15501 0.0
O547 O 0.44278 0.33281 0.17363 0.0
Cd548 Cd 0.47044 0.30884 0.18216 0.0
O549 O 0.44781 0.33137 0.13898 0.0
Cd550 Cd 0.47659 0.3047 0.13278 0.0
C551 C 0.5121 0.33493 0.15836 0.0
O552 O 0.46444 0.27937 0.15936 0.0
O553 O 0.49584 0.27407 0.14739 0.0
O554 O 0.45587 0.29614 0.10138 0.0
C555 C 0.48049 0.26744 0.15847 0.0
O556 O 0.5032 0.32829 0.17522 0.0
C557 C 0.47154 0.29074 0.09006 0.0
O558 O 0.50488 0.32988 0.14019 0.0
O559 O 0.48981 0.2928 0.0982 0.0
C560 C 0.81389 0.63723 0.53514 0.0
O561 O 0.79555 0.64221 0.52858 0.0
Cd562 Cd 0.78983 0.66703 0.50078 0.0
O563 O 0.83027 0.6462 0.52746 0.0
Cd564 Cd 0.83875 0.67483 0.50148 0.0
C565 C 0.82103 0.64429 0.46198 0.0
O566 O 0.80939 0.69764 0.51118 0.0
O567 O 0.82513 0.70596 0.48205 0.0
O568 O 0.86319 0.68471 0.52889 0.0
C569 C 0.81195 0.71089 0.49636 0.0
O570 O 0.8028 0.64927 0.46899 0.0
C571 C 0.87807 0.69079 0.51687 0.0
O572 O 0.83773 0.65055 0.4714 0.0
O573 O 0.87528 0.68842 0.49704 0.0
C574 C 0.82707 0.34404 0.44824 0.0
O575 O 0.80865 0.33898 0.45446 0.0
Cd576 Cd 0.80136 0.31467 0.482 0.0
O577 O 0.84345 0.33569 0.4567 0.0
Cd578 Cd 0.85049 0.30814 0.48467 0.0
C579 C 0.8294 0.33844 0.52266 0.0
O580 O 0.82235 0.28493 0.47241 0.0
O581 O 0.83469 0.27742 0.50325 0.0
O582 O 0.88023 0.29976 0.46167 0.0
C583 C 0.82315 0.27206 0.48771 0.0
O584 O 0.81176 0.33271 0.51469 0.0
C585 C 0.89162 0.29159 0.47609 0.0
O586 O 0.84678 0.33288 0.51413 0.0
O587 O 0.88447 0.2922 0.49486 0.0
C588 C 0.63663 0.8336 0.44691 0.0
O589 O 0.64143 0.81499 0.4528 0.0
Cd590 Cd 0.66436 0.80687 0.48131 0.0
O591 O 0.64453 0.84972 0.45625 0.0
Cd592 Cd 0.6711 0.85586 0.48542 0.0
C593 C 0.63961 0.83399 0.522 0.0
O594 O 0.69458 0.82787 0.47328 0.0
O595 O 0.70144 0.83976 0.50444 0.0
O596 O 0.67969 0.88605 0.46308 0.0
C597 C 0.70709 0.8284 0.48891 0.0
O598 O 0.64529 0.81657 0.51358 0.0
C599 C 0.68784 0.89714 0.47772 0.0
O600 O 0.64566 0.85159 0.51423 0.0
O601 O 0.68717 0.8896 0.49636 0.0
C602 C 0.15674 0.64035 0.44029 0.0
O603 O 0.17526 0.64627 0.44542 0.0
Cd604 Cd 0.18304 0.6688 0.47441 0.0
O605 O 0.14061 0.64723 0.45032 0.0
Cd606 Cd 0.1336 0.67326 0.4796 0.0
C607 C 0.15763 0.64111 0.51444 0.0
O608 O 0.1606 0.69849 0.46858 0.0
O609 O 0.1482 0.70327 0.49993 0.0
O610 O 0.10336 0.6818 0.45727 0.0
C611 C 0.15952 0.71011 0.48485 0.0
O612 O 0.17466 0.64771 0.50587 0.0
C613 C 0.09157 0.68819 0.4722 0.0
O614 O 0.13965 0.64701 0.50743 0.0
O615 O 0.09883 0.68664 0.49092 0.0
C616 C 0.34587 0.16333 0.4459 0.0
O617 O 0.34072 0.18128 0.4533 0.0
Cd618 Cd 0.31408 0.18538 0.47971 0.0
O619 O 0.33619 0.14664 0.45188 0.0
Cd620 Cd 0.30598 0.13696 0.47532 0.0
C621 C 0.33329 0.15117 0.5181 0.0
O622 O 0.28353 0.16725 0.46705 0.0
O623 O 0.2749 0.14958 0.495 0.0
O624 O 0.29632 0.11558 0.44546 0.0
C625 C 0.27013 0.16371 0.48153 0.0
O626 O 0.32855 0.1698 0.51198 0.0
C627 C 0.28916 0.09995 0.45583 0.0
O628 O 0.32849 0.13511 0.50687 0.0
O629 O 0.29108 0.10068 0.47589 0.0
C630 C 0.15345 0.33894 0.54154 0.0
O631 O 0.17167 0.333 0.53554 0.0
Cd632 Cd 0.17799 0.31045 0.50637 0.0
O633 O 0.13679 0.33208 0.5323 0.0
Cd634 Cd 0.12834 0.30587 0.50342 0.0
C635 C 0.15039 0.33781 0.46732 0.0
O636 O 0.15582 0.28096 0.51363 0.0
O637 O 0.14274 0.2761 0.48253 0.0
O638 O 0.0994 0.29724 0.52732 0.0
C639 C 0.1544 0.26931 0.49741 0.0
O640 O 0.16774 0.33125 0.47528 0.0
C641 C 0.08719 0.28986 0.51316 0.0
O642 O 0.1327 0.33201 0.47509 0.0
O643 O 0.09347 0.29111 0.4941 0.0
C644 C 0.63036 0.16411 0.53398 0.0
O645 O 0.63493 0.18225 0.52661 0.0
Cd646 Cd 0.66092 0.18795 0.49998 0.0
O647 O 0.64022 0.1477 0.52759 0.0
Cd648 Cd 0.67018 0.13971 0.50302 0.0
C649 C 0.64205 0.15471 0.46075 0.0
O650 O 0.6918 0.17024 0.51227 0.0
O651 O 0.70093 0.15402 0.48366 0.0
O652 O 0.68197 0.11794 0.53184 0.0
C653 C 0.70537 0.16759 0.49779 0.0
O654 O 0.64643 0.17326 0.46736 0.0
C655 C 0.6889 0.10268 0.52082 0.0
O656 O 0.64738 0.13845 0.47147 0.0
O657 O 0.68564 0.10364 0.50093 0.0
C658 C 0.34193 0.82223 0.54392 0.0
O659 O 0.33623 0.80381 0.53825 0.0
Cd660 Cd 0.31307 0.79679 0.50951 0.0
O661 O 0.33457 0.83859 0.53456 0.0
Cd662 Cd 0.30825 0.84616 0.5056 0.0
C663 C 0.34025 0.82325 0.47005 0.0
O664 O 0.28324 0.81886 0.51636 0.0
O665 O 0.27807 0.83187 0.48527 0.0
O666 O 0.29954 0.87642 0.52783 0.0
C667 C 0.27139 0.82031 0.50025 0.0
O668 O 0.33383 0.80589 0.47807 0.0
C669 C 0.29348 0.88825 0.51274 0.0
O670 O 0.33424 0.84092 0.47764 0.0
O671 O 0.29525 0.88096 0.49408 0.0
H672 H 0.09358 0.41694 0.28862 0.0
H673 H 0.00025 0.41231 0.20836 0.0
H674 H 0.06864 0.47805 0.27058 0.0
H675 H 0.0612 0.38383 0.19619 0.0
H676 H 0.01686 0.43424 0.23626 0.0
H677 H 0.07156 0.40045 0.26155 0.0
C678 C 0.08314 0.42688 0.27929 0.0
C679 C 0.08323 0.44896 0.28161 0.0
C680 C 0.02647 0.4234 0.22711 0.0
C681 C 0.05801 0.43007 0.25066 0.0
C682 C 0.01712 0.41099 0.21119 0.0
C683 C 0.02932 0.39603 0.20012 0.0
C684 C 0.04791 0.42031 0.23206 0.0
C685 C 0.05109 0.39492 0.20446 0.0
C686 C 0.07068 0.41744 0.2638 0.0
C687 C 0.06915 0.46097 0.26915 0.0
N688 N 0.05956 0.40655 0.22036 0.0
N689 N 0.05716 0.45137 0.25393 0.0
H690 H 0.57387 0.98947 0.22965 0.0
H691 H 0.48595 0.07531 0.25731 0.0
H692 H 0.5568 0.03998 0.18688 0.0
H693 H 0.53773 0.06056 0.29946 0.0
H694 H 0.49965 0.0492 0.23193 0.0
H695 H 0.54782 0.00286 0.25525 0.0
C696 C 0.56402 0.00283 0.22531 0.0
C697 C 0.56749 0.0138 0.20628 0.0
C698 C 0.5075 0.05122 0.24708 0.0
C699 C 0.53772 0.02877 0.23511 0.0
C700 C 0.49969 0.06596 0.26158 0.0
C701 C 0.51089 0.07011 0.28035 0.0
C702 C 0.52622 0.04025 0.25177 0.0
C703 C 0.52878 0.05785 0.28505 0.0
C704 C 0.54931 0.01047 0.23993 0.0
C705 C 0.5546 0.03122 0.20148 0.0
N706 N 0.53602 0.04352 0.27074 0.0
N707 N 0.54033 0.0383 0.21591 0.0
H708 H 0.98406 0.56891 0.208 0.0
H709 H 0.89947 0.55931 0.29576 0.0
H710 H 0.92143 0.59562 0.2015 0.0
H711 H 0.91685 0.49874 0.26923 0.0
H712 H 0.9208 0.57682 0.26874 0.0
H713 H 0.97047 0.54545 0.23628 0.0
C714 C 0.96745 0.56955 0.21217 0.0
C715 C 0.95389 0.5844 0.20254 0.0
C716 C 0.92032 0.55967 0.26922 0.0
C717 C 0.93874 0.55836 0.23485 0.0
C718 C 0.90824 0.54965 0.28463 0.0
C719 C 0.90606 0.52755 0.28446 0.0
C720 C 0.93045 0.54756 0.25369 0.0
C721 C 0.918 0.51584 0.26976 0.0
C722 C 0.95981 0.55627 0.22828 0.0
C723 C 0.93252 0.58462 0.20858 0.0
N724 N 0.92949 0.52604 0.25458 0.0
N725 N 0.92573 0.57212 0.22462 0.0
H726 H 0.41336 0.8771 0.28813 0.0
H727 H 0.41096 0.97222 0.2063 0.0
H728 H 0.47177 0.90884 0.2721 0.0
H729 H 0.37128 0.91667 0.20185 0.0
H730 H 0.43189 0.95433 0.23407 0.0
H731 H 0.39503 0.89816 0.26155 0.0
C732 C 0.4223 0.88874 0.27925 0.0
C733 C 0.4442 0.89101 0.28216 0.0
C734 C 0.41869 0.94613 0.22678 0.0
C735 C 0.42323 0.91508 0.25153 0.0
C736 C 0.40683 0.95623 0.21093 0.0
C737 C 0.38929 0.94595 0.20181 0.0
C738 C 0.41258 0.92592 0.23373 0.0
C739 C 0.38459 0.92527 0.20843 0.0
C740 C 0.41184 0.90063 0.26395 0.0
C741 C 0.45489 0.90652 0.27025 0.0
N742 N 0.39598 0.91608 0.22415 0.0
N743 N 0.4443 0.91795 0.25528 0.0
H744 H 0.1038 0.56378 0.69586 0.0
H745 H 0.00496 0.56764 0.77039 0.0
H746 H 0.07384 0.50388 0.70988 0.0
H747 H 0.06393 0.59947 0.78426 0.0
H748 H 0.02357 0.54614 0.74355 0.0
H749 H 0.08121 0.58077 0.72198 0.0
C750 C 0.09222 0.55422 0.70416 0.0
C751 C 0.09093 0.5323 0.70092 0.0
C752 C 0.03231 0.55766 0.75279 0.0
C753 C 0.06508 0.55177 0.73087 0.0
C754 C 0.0218 0.56984 0.7681 0.0
C755 C 0.03287 0.58553 0.77941 0.0
C756 C 0.05374 0.56171 0.74864 0.0
C757 C 0.05467 0.58775 0.77581 0.0
C758 C 0.07945 0.56393 0.71915 0.0
C759 C 0.07543 0.52081 0.71205 0.0
N760 N 0.06427 0.57627 0.7605 0.0
N761 N 0.06309 0.53068 0.72675 0.0
H762 H 0.40596 0.98756 0.75239 0.0
H763 H 0.4906 0.07606 0.72287 0.0
H764 H 0.42149 0.03905 0.79454 0.0
H765 H 0.43894 0.05948 0.68123 0.0
H766 H 0.47763 0.05003 0.74873 0.0
H767 H 0.43091 0.002 0.72624 0.0
C768 C 0.41523 0.00142 0.75646 0.0
C769 C 0.41164 0.0123 0.77551 0.0
C770 C 0.46963 0.05167 0.7336 0.0
C771 C 0.44019 0.02845 0.74604 0.0
C772 C 0.47702 0.06637 0.71883 0.0
C773 C 0.46565 0.06997 0.70003 0.0
C774 C 0.45116 0.04018 0.72918 0.0
C775 C 0.44801 0.05722 0.69565 0.0
C776 C 0.42931 0.00965 0.74153 0.0
C777 C 0.42378 0.03034 0.77994 0.0
N778 N 0.44118 0.04293 0.71023 0.0
N779 N 0.43748 0.03798 0.76521 0.0
H780 H 0.91884 0.44183 0.67864 0.0
H781 H -0.00524 0.40868 0.75037 0.0
H782 H 0.90866 0.49432 0.72109 0.0
H783 H 0.94296 0.42548 0.79151 0.0
H784 H 0.98089 0.4333 0.72352 0.0
H785 H 0.94633 0.42841 0.70263 0.0
C786 C 0.92288 0.45084 0.69269 0.0
C787 C 0.91157 0.46917 0.69795 0.0
C788 C 0.97299 0.43198 0.7387 0.0
C789 C 0.94241 0.45372 0.72557 0.0
C790 C 0.98095 0.41814 0.75406 0.0
C791 C 0.9698 0.41497 0.77303 0.0
C792 C 0.95408 0.44291 0.74265 0.0
C793 C 0.95186 0.4274 0.77697 0.0
C794 C 0.93859 0.44326 0.7063 0.0
C795 C 0.91718 0.48019 0.71645 0.0
N796 N 0.94443 0.44076 0.76181 0.0
N797 N 0.93175 0.4719 0.73 0.0
H798 H 0.56356 0.93643 0.8015 0.0
H799 H 0.54143 0.91565 0.68677 0.0
H800 H 0.57669 0.98728 0.75776 0.0
H801 H 0.49116 0.9016 0.73077 0.0
H802 H 0.55561 0.94166 0.71197 0.0
H803 H 0.53724 0.92241 0.77651 0.0
C804 C 0.56046 0.94493 0.78689 0.0
C805 C 0.57225 0.96297 0.7816 0.0
C806 C 0.54114 0.9333 0.71581 0.0
C807 C 0.54295 0.9467 0.75284 0.0
C808 C 0.5331 0.91848 0.7015 0.0
C809 C 0.51517 0.90655 0.70679 0.0
C810 C 0.53162 0.93548 0.73578 0.0
C811 C 0.50498 0.91062 0.72612 0.0
C812 C 0.54547 0.93698 0.7727 0.0
C813 C 0.56781 0.97337 0.76242 0.0
N814 N 0.51373 0.92433 0.74026 0.0
N815 N 0.55393 0.96472 0.74839 0.0
H816 H 0.19886 0.00474 0.40907 0.0
H817 H 0.28445 0.09479 0.41341 0.0
H818 H 0.1939 0.06362 0.37451 0.0
H819 H 0.26432 0.06847 0.47332 0.0
H820 H 0.25726 0.0741 0.39553 0.0
H821 H 0.22727 0.02059 0.43084 0.0
C822 C 0.20346 0.02103 0.40629 0.0
C823 C 0.19411 0.03285 0.38985 0.0
C824 C 0.25901 0.07266 0.41257 0.0
C825 C 0.22671 0.05049 0.41397 0.0
C826 C 0.2746 0.08433 0.4228 0.0
C827 C 0.2764 0.08364 0.44495 0.0
C828 C 0.24523 0.06001 0.42448 0.0
C829 C 0.26331 0.06956 0.45622 0.0
C830 C 0.21966 0.02995 0.41862 0.0
C831 C 0.20069 0.05385 0.38689 0.0
N832 N 0.24801 0.05836 0.44585 0.0
N833 N 0.21681 0.06185 0.39856 0.0
H834 H 0.92078 0.29934 0.44524 0.0
H835 H 0.98821 0.22169 0.40771 0.0
H836 H 0.90345 0.25401 0.49333 0.0
H837 H 0.93046 0.18681 0.41841 0.0
H838 H 0.97698 0.24768 0.4344 0.0
H839 H 0.9455 0.27341 0.43032 0.0
C840 C 0.92273 0.28417 0.45303 0.0
C841 C 0.91018 0.27874 0.4705 0.0
C842 C 0.96713 0.23399 0.43126 0.0
C843 C 0.93775 0.24899 0.45328 0.0
C844 C 0.97354 0.21911 0.41621 0.0
C845 C 0.96006 0.20229 0.41075 0.0
C846 C 0.94738 0.23165 0.44111 0.0
C847 C 0.94115 0.19973 0.42205 0.0
C848 C 0.93684 0.26944 0.4446 0.0
C849 C 0.91302 0.2588 0.47993 0.0
N850 N 0.93527 0.21438 0.43665 0.0
N851 N 0.926 0.24432 0.47074 0.0
H852 H 0.67981 0.92721 0.44779 0.0
H853 H 0.75746 -0.00515 0.41051 0.0
H854 H 0.72573 0.90826 0.49476 0.0
H855 H 0.79213 0.93673 0.41975 0.0
H856 H 0.73173 0.98317 0.43725 0.0
H857 H 0.70571 0.95211 0.43306 0.0
C858 C 0.69512 0.92884 0.4554 0.0
C859 C 0.70071 0.9158 0.47248 0.0
C860 C 0.74532 0.97332 0.43376 0.0
C861 C 0.73043 0.94357 0.45545 0.0
C862 C 0.76004 0.97997 0.41867 0.0
C863 C 0.77673 0.96655 0.41279 0.0
C864 C 0.74766 0.95336 0.44323 0.0
C865 C 0.77931 0.94738 0.42371 0.0
C866 C 0.70983 0.94305 0.44707 0.0
C867 C 0.72082 0.91823 0.48167 0.0
N868 N 0.7648 0.94126 0.43835 0.0
N869 N 0.73527 0.93134 0.47256 0.0
H870 H 0.98607 0.75239 0.41082 0.0
H871 H 0.06242 0.67974 0.44147 0.0
H872 H 0.04029 0.7926 0.42138 0.0
H873 H 0.07743 0.72404 0.49127 0.0
H874 H 0.03506 0.7041 0.42851 0.0
H875 H 0.0014 0.72613 0.43518 0.0
C876 C 0.00083 0.756 0.41882 0.0
C877 C 0.01211 0.77453 0.41398 0.0
C878 C 0.04386 0.70813 0.4427 0.0
C879 C 0.02947 0.74483 0.44169 0.0
C880 C 0.05947 0.69431 0.45003 0.0
C881 C 0.07203 0.69993 0.46747 0.0
C882 C 0.04141 0.72795 0.45247 0.0
C883 C 0.06787 0.7191 0.47788 0.0
C884 C 0.00958 0.74097 0.43253 0.0
C885 C 0.03125 0.77839 0.42459 0.0
N886 N 0.05333 0.7328 0.4698 0.0
N887 N 0.03943 0.76356 0.43789 0.0
H888 H 0.22861 -0.0069 0.5735 0.0
H889 H 0.30138 0.91719 0.54378 0.0
H890 H 0.18874 0.93901 0.56115 0.0
H891 H 0.25846 0.90296 0.49248 0.0
H892 H 0.27696 0.94476 0.556 0.0
H893 H 0.25514 0.97856 0.54907 0.0
C894 C 0.22511 0.97858 0.56505 0.0
C895 C 0.20663 0.96704 0.56946 0.0
C896 C 0.27326 0.93609 0.54164 0.0
C897 C 0.23664 0.95058 0.5417 0.0
C898 C 0.28711 0.92035 0.53475 0.0
C899 C 0.28186 0.90792 0.51713 0.0
C900 C 0.25377 0.9388 0.53125 0.0
C901 C 0.26309 0.91238 0.50606 0.0
C902 C 0.24028 0.97027 0.5513 0.0
C903 C 0.20291 0.94822 0.55829 0.0
N904 N 0.24932 0.92703 0.51373 0.0
N905 N 0.2179 0.94046 0.54499 0.0
H906 H 0.98932 0.22053 0.58131 0.0
H907 H 0.05906 0.29758 0.54494 0.0
H908 H 0.04637 0.18453 0.57085 0.0
H909 H 0.0745 0.25251 0.49605 0.0
H910 H 0.03428 0.27183 0.56024 0.0
H911 H 0.00173 0.24692 0.55549 0.0
C912 C 0.0041 0.21783 0.57306 0.0
C913 C 0.01699 0.20048 0.57829 0.0
C914 C 0.04257 0.26789 0.54575 0.0
C915 C 0.031 0.23031 0.54889 0.0
C916 C 0.05669 0.28251 0.53708 0.0
C917 C 0.06865 0.27712 0.51919 0.0
C918 C 0.04108 0.24756 0.53687 0.0
C919 C 0.06533 0.25729 0.50973 0.0
C920 C 0.01118 0.23293 0.55851 0.0
C921 C 0.03609 0.19781 0.56734 0.0
N922 N 0.05233 0.2429 0.5191 0.0
N923 N 0.0426 0.21266 0.55318 0.0
H924 H 0.7921 0.06374 0.59414 0.0
H925 H 0.70884 0.06846 0.50206 0.0
H926 H 0.77209 0.0035 0.56862 0.0
H927 H 0.70137 0.10087 0.56189 0.0
H928 H 0.73709 0.04669 0.51826 0.0
H929 H 0.76557 0.08131 0.5723 0.0
C930 C 0.78245 0.05421 0.5836 0.0
C931 C 0.78404 0.03207 0.5835 0.0
C932 C 0.72895 0.05843 0.52773 0.0
C933 C 0.75366 0.05218 0.55853 0.0
C934 C 0.71285 0.07076 0.51861 0.0
C935 C 0.70285 0.08662 0.53061 0.0
C936 C 0.73525 0.06254 0.54866 0.0
C937 C 0.70868 0.08898 0.55195 0.0
C938 C 0.76726 0.06426 0.57125 0.0
C939 C 0.77123 0.0206 0.56928 0.0
N940 N 0.72472 0.07736 0.56015 0.0
N941 N 0.75628 0.0308 0.55745 0.0
H942 H 0.88797 0.6956 0.55843 0.0
H943 H 0.98466 0.76855 0.56312 0.0
H944 H 0.90899 0.7134 0.49575 0.0
H945 H 0.92371 0.78861 0.58668 0.0
H946 H 0.96655 0.74187 0.5409 0.0
H947 H 0.91231 0.72147 0.57355 0.0
C948 C 0.89803 0.70459 0.54784 0.0
C949 C 0.89618 0.70261 0.52577 0.0
C950 C 0.95731 0.75253 0.55065 0.0
C951 C 0.92407 0.73205 0.54309 0.0
C952 C 0.96753 0.76773 0.56323 0.0
C953 C 0.95566 0.78059 0.577 0.0
C954 C 0.93531 0.75019 0.55228 0.0
C955 C 0.93353 0.77886 0.57657 0.0
C956 C 0.91184 0.71934 0.5565 0.0
C957 C 0.90984 0.71459 0.51285 0.0
N958 N 0.92412 0.7636 0.5648 0.0
N959 N 0.92314 0.72914 0.52172 0.0
H960 H 0.44058 0.29747 0.06067 0.0
H961 H 0.43074 0.18298 0.03399 0.0
H962 H 0.49426 0.25763 0.07459 0.0
H963 H 0.41243 0.22786 0.9858 0.0
H964 H 0.45508 0.20936 0.04882 0.0
H965 H 0.43014 0.27294 0.0324 0.0
C966 C 0.45047 0.28386 0.05734 0.0
C967 C 0.46821 0.27943 0.06994 0.0
C968 C 0.44624 0.21318 0.03458 0.0
C969 C 0.45604 0.25113 0.03834 0.0
C970 C 0.43237 0.19817 0.02617 0.0
C971 C 0.4196 0.20336 0.00875 0.0
C972 C 0.44661 0.23368 0.02599 0.0
C973 C 0.42211 0.22329 -0.00078 0.0
C974 C 0.44457 0.26994 0.04122 0.0
C975 C 0.48049 0.26157 0.06513 0.0
N976 N 0.43486 0.23804 0.0084 0.0
N977 N 0.4738 0.24765 0.0501 0.0
H978 H 0.40555 0.76072 -0.00497 0.0
H979 H 0.49414 0.73276 0.90991 0.0
H980 H 0.41828 0.79959 0.94025 0.0
H981 H 0.44746 0.68766 0.93108 0.0
H982 H 0.4788 0.75927 0.93389 0.0
H983 H 0.43371 0.73638 0.9838 0.0
C984 C 0.4148 0.76454 0.9811 0.0
C985 C 0.40954 0.782 0.96837 0.0
C986 C 0.4725 0.74332 0.93379 0.0
C987 C 0.44174 0.75465 0.95585 0.0
C988 C 0.48127 0.72818 0.92028 0.0
C989 C 0.47188 0.70813 0.91851 0.0
C990 C 0.45466 0.73805 0.94589 0.0
C991 C 0.45502 0.70303 0.93198 0.0
C992 C 0.43074 0.75064 0.97471 0.0
C993 C 0.4218 0.78616 0.95034 0.0
N994 N 0.44678 0.71799 0.94504 0.0
N995 N 0.43729 0.77245 0.94449 0.0
H996 H 0.29651 0.41898 0.89605 0.0
H997 H 0.20423 0.40485 0.97937 0.0
H998 H 0.26728 0.47538 0.92127 0.0
H999 H 0.2103 0.3686 0.92164 0.0
H1000 H 0.23201 0.42914 0.96626 0.0
H1001 H 0.27107 0.39752 0.9155 0.0
C1002 C 0.28502 0.42687 0.90603 0.0
C1003 C 0.28375 0.44902 0.90671 0.0
C1004 C 0.22701 0.41589 0.95657 0.0
C1005 C 0.25455 0.42447 0.92891 0.0
C1006 C 0.21119 0.40213 0.96393 0.0
C1007 C 0.20496 0.38467 0.95158 0.0
C1008 C 0.23688 0.41164 0.93711 0.0
C1009 C 0.21453 0.38181 0.93173 0.0
C1010 C 0.27045 0.4146 0.91702 0.0
C1011 C 0.26865 0.45833 0.92017 0.0
N1012 N 0.23016 0.39496 0.92528 0.0
N1013 N 0.25435 0.44597 0.93061 0.0
H1014 H 0.5897 0.18531 0.91669 0.0
H1015 H 0.50729 0.2798 0.90975 0.0
H1016 H 0.56865 0.21481 0.97468 0.0
H1017 H 0.55968 0.27043 0.86684 0.0
H1018 H 0.52196 0.2517 0.9328 0.0
H1019 H 0.56895 0.2108 0.89651 0.0
C1020 C 0.58038 0.1969 0.92522 0.0
C1021 C 0.58122 0.1982 0.94739 0.0
C1022 C 0.53014 0.25601 0.91835 0.0
C1023 C 0.55757 0.22752 0.9243 0.0
C1024 C 0.5219 0.27202 0.90528 0.0
C1025 C 0.53229 0.27747 0.88635 0.0
C1026 C 0.54847 0.24519 0.912 0.0
C1027 C 0.5511 0.26685 0.88125 0.0
C1028 C 0.56865 0.21151 0.91367 0.0
C1029 C 0.56856 0.21341 0.95758 0.0
N1030 N 0.55841 0.25111 0.89384 0.0
N1031 N 0.55739 0.22776 0.94591 0.0
H1032 H 0.72151 0.49036 0.90372 0.0
H1033 H 0.75111 0.57715 0.99023 0.0
H1034 H 0.68188 0.54456 0.91608 0.0
H1035 H 0.79459 0.55758 0.94141 0.0
H1036 H 0.72444 0.55281 0.9756 0.0
H1037 H 0.74664 0.50313 0.93058 0.0
C1038 C 0.71771 0.5045 0.91265 0.0
C1039 C 0.69975 0.51659 0.90761 0.0
C1040 C 0.7401 0.55337 0.96864 0.0
C1041 C 0.72806 0.53088 0.93836 0.0
C1042 C 0.75532 0.56708 0.977 0.0
C1043 C 0.77496 0.56935 0.96688 0.0
C1044 C 0.74489 0.54152 0.95049 0.0
C1045 C 0.77957 0.55627 0.94956 0.0
C1046 C 0.73207 0.51177 0.92784 0.0
C1047 C 0.69566 0.53492 0.91944 0.0
N1048 N 0.76455 0.54295 0.94179 0.0
N1049 N 0.70984 0.54163 0.93422 0.0
H1050 H 0.50338 0.7077 0.06683 0.0
H1051 H 0.60068 0.78367 0.06743 0.0
H1052 H 0.56275 0.69215 0.09714 0.0
H1053 H 0.57168 0.77271 0.00632 0.0
H1054 H 0.57874 0.75583 0.08247 0.0
H1055 H 0.52171 0.73568 0.04657 0.0
C1056 C 0.52027 0.70983 0.06889 0.0
C1057 C 0.53152 0.69775 0.0839 0.0
C1058 C 0.57704 0.7597 0.06581 0.0
C1059 C 0.55208 0.72981 0.06148 0.0
C1060 C 0.58943 0.77569 0.05721 0.0
C1061 C 0.58824 0.78032 0.03549 0.0
C1062 C 0.56311 0.7484 0.05274 0.0
C1063 C 0.57316 0.7695 0.02312 0.0
C1064 C 0.53062 0.7258 0.05743 0.0
C1065 C 0.55336 0.70119 0.08597 0.0
N1066 N 0.56116 0.75384 0.03192 0.0
N1067 N 0.56282 0.71716 0.07523 0.0
H1068 H 0.2212 0.57667 0.98745 0.0
H1069 H 0.29623 0.53927 0.05867 0.0
H1070 H 0.18359 0.56562 0.0434 0.0
H1071 H 0.25033 0.49092 0.07347 0.0
H1072 H 0.27117 0.55467 0.03321 0.0
H1073 H 0.24704 0.55053 0.0003 0.0
C1074 C 0.21803 0.56821 0.00206 0.0
C1075 C 0.20041 0.57338 0.01455 0.0
C1076 C 0.2669 0.54028 0.04152 0.0
C1077 C 0.22961 0.54366 0.02908 0.0
C1078 C 0.28112 0.53157 0.05607 0.0
C1079 C 0.27528 0.51383 0.06806 0.0
C1080 C 0.24653 0.53157 0.0396 0.0
C1081 C 0.25543 0.50453 0.06434 0.0
C1082 C 0.23282 0.55349 0.00939 0.0
C1083 C 0.1971 0.56216 0.03344 0.0
N1084 N 0.24144 0.51393 0.05091 0.0
N1085 N 0.21167 0.54786 0.04022 0.0
H1086 H 0.69217 0.41413 0.09964 0.0
H1087 H 0.7695 0.41632 0.00316 0.0
H1088 H 0.70776 0.47612 0.0752 0.0
H1089 H 0.78219 0.38175 0.06094 0.0
H1090 H 0.74204 0.43665 0.02213 0.0
H1091 H 0.71867 0.39871 0.07637 0.0
C1092 C 0.70087 0.4245 0.08909 0.0
C1093 C 0.698 0.4465 0.08963 0.0
C1094 C 0.75116 0.42479 0.03055 0.0
C1095 C 0.72836 0.42883 0.063 0.0
C1096 C 0.76682 0.41328 0.01985 0.0
C1097 C 0.778 0.39716 0.03044 0.0
C1098 C 0.74651 0.41966 0.05167 0.0
C1099 C 0.77388 0.39384 0.05204 0.0
C1100 C 0.71606 0.41567 0.07593 0.0
C1101 C 0.70963 0.45908 0.07536 0.0
N1102 N 0.75822 0.4047 0.0618 0.0
N1103 N 0.72456 0.45006 0.06265 0.0
H1104 H 0.01167 0.23307 0.31337 0.0
H1105 H 0.95711 0.31001 0.22864 0.0
H1106 H 0.94469 0.2318 0.29967 0.0
H1107 H 0.02315 0.29255 0.22696 0.0
H1108 H 0.95237 0.28701 0.25966 0.0
H1109 H 0.01609 0.2609 0.28672 0.0
C1110 C -0.00213 0.2388 0.30492 0.0
C1111 C 0.97782 0.22998 0.30853 0.0
C1112 C 0.96789 0.28835 0.25252 0.0
C1113 C 0.98276 0.26178 0.27819 0.0
C1114 C 0.97062 0.30147 0.2349 0.0
C1115 C -0.0095 0.30298 0.22514 0.0
C1116 C 0.98525 0.27699 0.26056 0.0
C1117 C 0.0075 0.29164 0.23388 0.0
C1118 C 0.00042 0.25461 0.28968 0.0
C1119 C 0.96046 0.23804 0.29719 0.0
N1120 N 0.00449 0.27911 0.2511 0.0
N1121 N 0.96333 0.25347 0.28245 0.0
H1122 H 0.74883 0.95102 0.30156 0.0
H1123 H 0.67668 0.03015 0.23562 0.0
H1124 H 0.74389 0.0175 0.31659 0.0
H1125 H 0.66647 0.96256 0.23571 0.0
H1126 H 0.70214 0.02595 0.26456 0.0
H1127 H 0.71942 0.95486 0.27657 0.0
C1128 C 0.74147 0.9664 0.29968 0.0
C1129 C 0.74887 0.984 0.31104 0.0
C1130 C 0.69419 0.01206 0.25837 0.0
C1131 C 0.71539 0.98853 0.2824 0.0
C1132 C 0.67972 0.01443 0.24182 0.0
C1133 C 0.66957 -0.00335 0.23319 0.0
C1134 C 0.69878 -0.00827 0.26613 0.0
C1135 C 0.67399 0.97668 0.24189 0.0
C1136 C 0.72465 0.96856 0.28548 0.0
C1137 C 0.7387 0.00353 0.3081 0.0
N1138 N 0.68846 0.97473 0.25775 0.0
N1139 N 0.72261 0.00533 0.29388 0.0
H1140 H 0.0164 0.67367 0.23205 0.0
H1141 H 0.95567 0.74836 0.31417 0.0
H1142 H 0.95063 0.69089 0.22498 0.0
H1143 H 0.02331 0.7504 0.30481 0.0
H1144 H 0.95302 0.72154 0.28616 0.0
H1145 H 0.01858 0.69635 0.26348 0.0
C1146 C 0.0024 0.68213 0.23718 0.0
C1147 C 0.98336 0.68058 0.22582 0.0
C1148 C 0.96843 0.7278 0.29038 0.0
C1149 C 0.98569 0.70626 0.26177 0.0
C1150 C 0.96996 0.74298 0.3064 0.0
C1151 C 0.98972 0.7517 0.31164 0.0
C1152 C 0.98682 0.72111 0.27984 0.0
C1153 C 0.00775 0.74421 0.30108 0.0
C1154 C 0.00367 0.69507 0.25506 0.0
C1155 C 0.96568 0.69182 0.23318 0.0
N1156 N 0.00588 0.72935 0.28566 0.0
N1157 N 0.96726 0.7042 0.25072 0.0
H1158 H 0.19282 0.01001 0.26562 0.0
H1159 H 0.31483 -0.00246 0.24134 0.0
H1160 H 0.23527 0.98646 0.31387 0.0
H1161 H 0.26698 0.98016 0.19562 0.0
H1162 H 0.28697 0.00133 0.26836 0.0
H1163 H 0.22134 0.00706 0.23955 0.0
C1164 C 0.20819 0.00431 0.27072 0.0
C1165 C 0.21177 -0.00165 0.29183 0.0
C1166 C 0.2827 -0.00329 0.25237 0.0
C1167 C 0.24433 -0.00466 0.2623 0.0
C1168 C 0.29847 -0.00533 0.237 0.0
C1169 C 0.29309 0.98849 0.21634 0.0
C1170 C 0.26151 -0.0069 0.24674 0.0
C1171 C 0.27174 0.98483 0.21144 0.0
C1172 C 0.22436 0.00257 0.25586 0.0
C1173 C 0.23192 -0.00898 0.29765 0.0
N1174 N 0.25667 0.98738 0.22651 0.0
N1175 N 0.2476 0.98987 0.28295 0.0
H1176 H 0.96274 0.67256 0.74882 0.0
H1177 H 0.02341 0.75064 0.66989 0.0
H1178 H 0.0283 0.68996 0.75728 0.0
H1179 H 0.95639 0.75519 0.68225 0.0
H1180 H 0.02584 0.72206 0.6962 0.0
H1181 H 0.96065 0.69682 0.71849 0.0
C1182 C 0.97672 0.68135 0.74418 0.0
C1183 C -0.00434 0.67946 0.75564 0.0
C1184 C 0.01061 0.72926 0.69298 0.0
C1185 C -0.00654 0.70685 0.72098 0.0
C1186 C 0.00919 0.74545 0.67795 0.0
C1187 C 0.9897 0.75536 0.67409 0.0
C1188 C -0.00767 0.72274 0.70384 0.0
C1189 C 0.97175 0.74808 0.68496 0.0
C1190 C 0.9755 0.69518 0.72695 0.0
C1191 C 0.01333 0.69116 0.74897 0.0
N1192 N 0.97349 0.73218 0.69936 0.0
N1193 N 0.01182 0.70437 0.73204 0.0
H1194 H 0.23374 0.95251 0.6774 0.0
H1195 H 0.30169 0.0282 0.75108 0.0
H1196 H 0.23618 0.02014 0.6678 0.0
H1197 H 0.31527 0.96157 0.74435 0.0
H1198 H 0.27669 0.02569 0.72151 0.0
H1199 H 0.26275 0.95543 0.70292 0.0
C1200 C 0.24048 0.96797 0.68059 0.0
C1201 C 0.23249 0.98614 0.6706 0.0
C1202 C 0.28529 0.01167 0.72639 0.0
C1203 C 0.26551 0.98961 0.69988 0.0
C1204 C 0.29948 0.01307 0.7433 0.0
C1205 C 0.31044 -0.00498 0.75024 0.0
C1206 C 0.28181 -0.00797 0.71658 0.0
C1207 C 0.3071 0.97585 0.73953 0.0
C1208 C 0.25707 0.96961 0.69509 0.0
C1209 C 0.24188 0.00575 0.67519 0.0
N1210 N 0.29289 0.9748 0.72336 0.0
N1211 N 0.25775 0.00701 0.68972 0.0
H1212 H 0.03093 0.22709 0.68783 0.0
H1213 H 0.95279 0.30521 0.74761 0.0
H1214 H 0.96452 0.23187 0.67228 0.0
H1215 H 0.02059 0.31378 0.74769 0.0
H1216 H 0.95662 0.27762 0.72074 0.0
H1217 H 0.02746 0.25808 0.71077 0.0
C1218 C 0.01563 0.23471 0.68919 0.0
C1219 C -0.00205 0.22685 0.67825 0.0
C1220 C 0.97064 0.28567 0.72649 0.0
C1221 C -0.00614 0.26219 0.70452 0.0
C1222 C 0.96848 0.30137 0.74185 0.0
C1223 C 0.98642 0.31168 0.74996 0.0
C1224 C -0.00908 0.28003 0.71942 0.0
C1225 C 0.00635 0.30619 0.74188 0.0
C1226 C 0.01369 0.25244 0.70221 0.0
C1227 C 0.97854 0.2374 0.68048 0.0
N1228 N 0.0081 0.29054 0.7272 0.0
N1229 N 0.97697 0.25443 0.69353 0.0
H1230 H 0.73494 0.98386 0.65688 0.0
H1231 H 0.7019 0.96668 0.77577 0.0
H1232 H 0.77629 0.00217 0.70823 0.0
H1233 H 0.65712 -0.00476 0.73263 0.0
H1234 H 0.72957 0.97058 0.74893 0.0
H1235 H 0.70592 0.97932 0.6826 0.0
C1236 C 0.73789 0.9868 0.67355 0.0
C1237 C 0.75791 -0.00657 0.68055 0.0
C1238 C 0.71365 0.97589 0.74537 0.0
C1239 C 0.7253 0.98787 0.70969 0.0
C1240 C 0.69787 0.97361 0.76057 0.0
C1241 C 0.67728 0.98077 0.75636 0.0
C1242 C 0.70865 0.98484 0.72566 0.0
C1243 C 0.67289 0.9897 0.73646 0.0
C1244 C 0.7214 0.98433 0.68809 0.0
C1245 C 0.76101 -0.00285 0.70224 0.0
N1246 N 0.68847 -0.00865 0.72167 0.0
N1247 N 0.74492 -0.00592 0.71612 0.0
H1248 H 0.23112 0.29795 0.01599 0.0
H1249 H 0.31693 0.22729 0.95557 0.0
H1250 H 0.22499 0.27971 0.9503 0.0
H1251 H 0.30912 0.22676 0.02355 0.0
H1252 H 0.28728 0.25218 0.95275 0.0
H1253 H 0.26371 0.2771 0.01837 0.0
C1254 C 0.23667 0.2896 0.00206 0.0
C1255 C 0.22528 0.29039 0.98297 0.0
C1256 C 0.29219 0.2467 0.96827 0.0
C1257 C 0.26257 0.2668 0.98551 0.0
C1258 C 0.30916 0.23262 0.9699 0.0
C1259 C 0.31533 0.22486 0.98982 0.0
C1260 C 0.28158 0.25322 0.9867 0.0
C1261 C 0.30472 0.23224 0.00788 0.0
C1262 C 0.25523 0.27772 0.00344 0.0
C1263 C 0.2332 0.27935 0.96539 0.0
N1264 N 0.28832 0.24599 0.0059 0.0
N1265 N 0.2514 0.26802 0.96707 0.0
H1266 H 0.22937 0.68219 0.02913 0.0
H1267 H 0.29949 0.75043 0.95046 0.0
H1268 H 0.23202 0.66978 0.96189 0.0
H1269 H 0.31129 0.74813 0.01785 0.0
H1270 H 0.27434 0.72126 0.95422 0.0
H1271 H 0.25898 0.70682 0.02542 0.0
C1272 C 0.23628 0.68457 0.0136 0.0
C1273 C 0.22815 0.67408 -0.00424 0.0
C1274 C 0.28258 0.72699 0.96815 0.0
C1275 C 0.26189 0.70232 -0.00862 0.0
C1276 C 0.29688 0.74368 0.96603 0.0
C1277 C 0.30735 0.75179 0.98391 0.0
C1278 C 0.27849 0.71857 0.98834 0.0
C1279 C 0.3035 0.74238 0.00368 0.0
C1280 C 0.25322 0.69856 0.01151 0.0
C1281 C 0.23778 0.67761 0.97604 0.0
N1282 N 0.28917 0.72641 0.00541 0.0
N1283 N 0.25401 0.69164 0.97433 0.0
H1284 H 0.73428 0.32251 0.9808 0.0
H1285 H 0.70639 0.20081 0.9734 0.0
H1286 H 0.77827 0.27415 0.00075 0.0
H1287 H 0.65905 0.24565 -0.00636 0.0
H1288 H 0.73327 0.22862 0.97591 0.0
H1289 H 0.70639 0.29536 0.97817 0.0
C1290 C 0.73805 0.30619 0.98451 0.0
C1291 C 0.75851 0.30048 0.99103 0.0
C1292 C 0.71698 0.23233 0.97979 0.0
C1293 C 0.72709 0.26964 0.98774 0.0
C1294 C 0.70166 0.21655 0.97829 0.0
C1295 C 0.68054 0.221 0.98341 0.0
C1296 C 0.71104 0.2528 0.98594 0.0
C1297 C 0.67523 0.24162 0.98971 0.0
C1298 C 0.72218 0.29082 0.98314 0.0
C1299 C 0.76264 0.27919 -0.00422 0.0
N1300 N 0.6904 0.2569 0.99064 0.0
N1301 N 0.7471 0.26448 -0.00616 0.0
H1302 H 0.74934 0.67858 0.95237 0.0
H1303 H 0.69464 0.75862 0.03191 0.0
H1304 H 0.75151 0.67008 0.02026 0.0
H1305 H 0.67391 0.7516 0.96704 0.0
H1306 H 0.71717 0.72742 0.02772 0.0
H1307 H 0.72294 0.7065 0.95705 0.0
C1308 C 0.74413 0.6825 0.96825 0.0
C1309 C 0.75268 0.67212 0.98597 0.0
C1310 C 0.70757 0.73263 0.01446 0.0
C1311 C 0.72275 0.70414 -0.00857 0.0
C1312 C 0.69482 0.75048 0.0168 0.0
C1313 C 0.68251 0.75773 -0.00025 0.0
C1314 C 0.70826 0.72218 -0.00516 0.0
C1315 C 0.6832 0.74653 0.98056 0.0
C1316 C 0.72904 0.69837 0.9709 0.0
C1317 C 0.74532 0.67771 0.00618 0.0
N1318 N 0.69604 0.72941 0.97855 0.0
N1319 N 0.73094 0.69355 0.00839 0.0
H1320 H 0.52336 0.73271 0.81761 0.0
H1321 H 0.46228 0.81203 0.73982 0.0
H1322 H 0.45552 0.73239 0.80921 0.0
H1323 H 0.52832 0.79612 0.73252 0.0
H1324 H 0.4602 0.78762 0.76991 0.0
H1325 H 0.52602 0.76083 0.79092 0.0
C1326 C 0.50903 0.73868 0.81028 0.0
C1327 C 0.4892 0.73013 0.81547 0.0
C1328 C 0.47516 0.78956 0.76175 0.0
C1329 C 0.49213 0.76225 0.78515 0.0
C1330 C 0.47637 0.80352 0.74464 0.0
C1331 C 0.49546 0.80594 0.73357 0.0
C1332 C 0.49322 0.77817 0.76798 0.0
C1333 C 0.51325 0.79456 0.74052 0.0
C1334 C 0.51057 0.75464 0.79502 0.0
C1335 C 0.47113 0.73844 0.80552 0.0
N1336 N 0.5117 0.78114 0.75729 0.0
N1337 N 0.47303 0.75403 0.79082 0.0
H1338 H 0.23545 0.49642 0.82849 0.0
H1339 H 0.21558 0.50826 0.70523 0.0
H1340 H 0.28342 0.48092 0.78241 0.0
H1341 H 0.16614 0.48445 0.74594 0.0
H1342 H 0.24061 0.50558 0.73479 0.0
H1343 H 0.20935 0.49913 0.79953 0.0
C1344 C 0.24046 0.49368 0.8123 0.0
C1345 C 0.26154 0.4884 0.80775 0.0
C1346 C 0.22427 0.50096 0.73721 0.0
C1347 C 0.23214 0.49181 0.77489 0.0
C1348 C 0.21 0.50254 0.72043 0.0
C1349 C 0.18884 0.49647 0.72319 0.0
C1350 C 0.2172 0.49374 0.757 0.0
C1351 C 0.1824 0.48912 0.74318 0.0
C1352 C 0.22561 0.49511 0.79589 0.0
C1353 C 0.26729 0.48491 0.78657 0.0
N1354 N 0.19653 0.48811 0.75946 0.0
N1355 N 0.25271 0.48687 0.77088 0.0
H1356 H 0.49806 0.28019 0.76375 0.0
H1357 H 0.49219 0.15799 0.74716 0.0
H1358 H 0.47911 0.24113 0.81657 0.0
H1359 H 0.46266 0.20017 0.7021 0.0
H1360 H 0.49455 0.18756 0.77256 0.0
H1361 H 0.49226 0.25008 0.73987 0.0
C1362 C 0.49263 0.26526 0.77026 0.0
C1363 C 0.48893 0.26302 0.79203 0.0
C1364 C 0.48745 0.19015 0.75713 0.0
C1365 C 0.4829 0.22867 0.7651 0.0
C1366 C 0.48621 0.17343 0.74267 0.0
C1367 C 0.47724 0.17674 0.72259 0.0
C1368 C 0.48027 0.21029 0.75107 0.0
C1369 C 0.46962 0.19697 0.71747 0.0
C1370 C 0.48929 0.2482 0.75669 0.0
C1371 C 0.48193 0.24341 0.79979 0.0
N1372 N 0.47161 0.2131 0.73152 0.0
N1373 N 0.47941 0.22678 0.78632 0.0
H1374 H 0.82961 0.50271 0.74981 0.0
H1375 H 0.70927 0.51706 0.77733 0.0
H1376 H 0.7811 0.47864 0.70801 0.0
H1377 H 0.75104 0.49132 0.82503 0.0
H1378 H 0.73746 0.51294 0.75094 0.0
H1379 H 0.80252 0.50799 0.77742 0.0
C1380 C 0.81328 0.49861 0.74648 0.0
C1381 C 0.80748 0.49016 0.72675 0.0
C1382 C 0.74041 0.50837 0.76724 0.0
C1383 C 0.77677 0.49668 0.75767 0.0
C1384 C 0.72446 0.51079 0.78227 0.0
C1385 C 0.72792 0.50442 0.80329 0.0
C1386 C 0.76004 0.5001 0.77346 0.0
C1387 C 0.74781 0.49627 0.8089 0.0
C1388 C 0.79796 0.50155 0.76216 0.0
C1389 C 0.78618 0.48505 0.7231 0.0
N1390 N 0.76329 0.49447 0.79405 0.0
N1391 N 0.7715 0.48864 0.73836 0.0
H1392 H 0.45811 0.16655 0.24868 0.0
H1393 H 0.51632 0.24495 0.16791 0.0
H1394 H 0.52517 0.17959 0.25066 0.0
H1395 H 0.44929 0.24761 0.18089 0.0
H1396 H 0.51968 0.21592 0.19342 0.0
H1397 H 0.45458 0.19133 0.21898 0.0
C1398 C 0.47211 0.17449 0.24275 0.0
C1399 C 0.49194 0.17119 0.25224 0.0
C1400 C 0.50423 0.22279 0.19057 0.0
C1401 C 0.48803 0.19936 0.2183 0.0
C1402 C 0.50228 0.2393 0.17598 0.0
C1403 C 0.48252 0.24881 0.17245 0.0
C1404 C 0.48625 0.21563 0.20152 0.0
C1405 C 0.46485 0.24083 0.1833 0.0
C1406 C 0.47007 0.18865 0.22587 0.0
C1407 C 0.50956 0.18184 0.24392 0.0
N1408 N 0.46714 0.22472 0.1974 0.0
N1409 N 0.50719 0.19549 0.22743 0.0
H1410 H 0.80059 0.52661 0.25591 0.0
H1411 H 0.72509 0.44758 0.19532 0.0
H1412 H 0.81333 0.45954 0.25331 0.0
H1413 H 0.73011 0.51348 0.17781 0.0
H1414 H 0.75644 0.45154 0.2178 0.0
H1415 H 0.77384 0.52228 0.2282 0.0
C1416 C 0.79786 0.511 0.24934 0.0
C1417 C 0.80903 0.49338 0.25695 0.0
C1418 C 0.75079 0.46506 0.20888 0.0
C1419 C 0.77832 0.48827 0.22554 0.0
C1420 C 0.73284 0.46286 0.19616 0.0
C1421 C 0.72493 0.48028 0.18485 0.0
C1422 C 0.76063 0.48491 0.21056 0.0
C1423 C 0.73567 0.49967 0.18634 0.0
C1424 C 0.78266 0.50855 0.23351 0.0
C1425 C 0.80502 0.47352 0.24786 0.0
N1426 N 0.75285 0.50154 0.19919 0.0
N1427 N 0.78972 0.47143 0.2328 0.0
H1428 H 0.48274 0.74228 0.16001 0.0
H1429 H 0.4745 0.76781 0.28219 0.0
H1430 H 0.50411 0.69816 0.20775 0.0
H1431 H 0.49395 0.81652 0.23832 0.0
H1432 H 0.47782 0.74155 0.25388 0.0
H1433 H 0.47948 0.76966 0.18763 0.0
C1434 C 0.48664 0.73838 0.17629 0.0
C1435 C 0.49372 0.71804 0.1817 0.0
C1436 C 0.48135 0.758 0.25049 0.0
C1437 C 0.48972 0.74884 0.21304 0.0
C1438 C 0.4794 0.77296 0.26656 0.0
C1439 C 0.48406 0.79428 0.26252 0.0
C1440 C 0.48748 0.76451 0.23016 0.0
C1441 C 0.49038 0.80016 0.24203 0.0
C1442 C 0.4849 0.75396 0.19192 0.0
C1443 C 0.49869 0.71371 0.20294 0.0
N1444 N 0.49174 0.78533 0.22646 0.0
N1445 N 0.49639 0.72894 0.2179 0.0
H1446 H 0.22875 0.4808 0.15375 0.0
H1447 H 0.2088 0.4732 0.27652 0.0
H1448 H 0.2739 0.50622 0.19842 0.0
H1449 H 0.15809 0.49369 0.23544 0.0
H1450 H 0.23364 0.47705 0.24691 0.0
H1451 H 0.2028 0.47752 0.18271 0.0
C1452 C 0.23316 0.48564 0.16963 0.0
C1453 C 0.25338 0.49384 0.17379 0.0
C1454 C 0.21705 0.48065 0.24445 0.0
C1455 C 0.22426 0.48969 0.20668 0.0
C1456 C 0.2029 0.47839 0.26121 0.0
C1457 C 0.18144 0.48323 0.25833 0.0
C1458 C 0.20954 0.4872 0.22456 0.0
C1459 C 0.17456 0.48997 0.23826 0.0
C1460 C 0.2184 0.48386 0.18602 0.0
C1461 C 0.2584 0.49995 0.19457 0.0
N1462 N 0.18858 0.49156 0.22198 0.0
N1463 N 0.24401 0.49751 0.21034 0.0
H1464 H 0.80516 0.73653 0.46192 0.0
H1465 H 0.72909 0.81613 0.52432 0.0
H1466 H 0.78906 0.7291 0.528 0.0
H1467 H 0.7261 0.80716 0.45653 0.0
H1468 H 0.75694 0.78919 0.52626 0.0
H1469 H 0.78172 0.76745 0.46011 0.0
C1470 C 0.79682 0.7415 0.47606 0.0
C1471 C 0.79886 0.73017 0.49509 0.0
C1472 C 0.75026 0.79326 0.51097 0.0
C1473 C 0.77235 0.76548 0.49319 0.0
C1474 C 0.73446 0.80866 0.50984 0.0
C1475 C 0.72517 0.81369 0.49026 0.0
C1476 C 0.75697 0.78309 0.49236 0.0
C1477 C 0.73271 0.80357 0.47197 0.0
C1478 C 0.78345 0.75908 0.47501 0.0
C1479 C 0.78775 0.73728 0.51296 0.0
N1480 N 0.74817 0.7887 0.47346 0.0
N1481 N 0.77497 0.7545 0.51158 0.0
H1482 H 0.72282 0.19111 0.52947 0.0
H1483 H 0.80199 0.25327 0.45511 0.0
H1484 H 0.73135 0.17435 0.46369 0.0
H1485 H 0.81047 0.25015 0.52296 0.0
H1486 H 0.77497 0.22561 0.45756 0.0
H1487 H 0.75369 0.21434 0.52722 0.0
C1488 C 0.73124 0.1923 0.51456 0.0
C1489 C 0.72448 0.18093 0.49669 0.0
C1490 C 0.78291 0.23082 0.47187 0.0
C1491 C 0.75967 0.20752 0.494 0.0
C1492 C 0.79826 0.24663 0.4705 0.0
C1493 C 0.80834 0.25406 0.48889 0.0
C1494 C 0.77736 0.22269 0.49181 0.0
C1495 C 0.80303 0.24486 0.50841 0.0
C1496 C 0.74891 0.20545 0.51334 0.0
C1497 C 0.73604 0.1829 0.47782 0.0
N1498 N 0.78767 0.22982 0.50941 0.0
N1499 N 0.75297 0.19616 0.47689 0.0
H1500 H 0.2489 0.81182 0.46407 0.0
H1501 H 0.16885 0.73193 0.5212 0.0
H1502 H 0.2511 0.79777 0.53103 0.0
H1503 H 0.18176 0.73065 0.45402 0.0
H1504 H 0.19413 0.76111 0.52508 0.0
H1505 H 0.21933 0.78701 0.46024 0.0
C1506 C 0.24304 0.80366 0.47798 0.0
C1507 C 0.25257 0.80667 0.49787 0.0
C1508 C 0.19131 0.7545 0.50948 0.0
C1509 C 0.21878 0.77845 0.49361 0.0
C1510 C 0.17686 0.73792 0.50725 0.0
C1511 C 0.17339 0.72876 0.48729 0.0
C1512 C 0.20214 0.76209 0.4916 0.0
C1513 C 0.18414 0.73714 0.46973 0.0
C1514 C 0.22624 0.78947 0.47577 0.0
C1515 C 0.24433 0.79573 0.51538 0.0
N1516 N 0.19808 0.75332 0.47229 0.0
N1517 N 0.22792 0.78206 0.51284 0.0
H1518 H 0.16564 0.2497 0.46038 0.0
H1519 H 0.2446 0.16798 0.51627 0.0
H1520 H 0.17572 0.24763 0.52807 0.0
H1521 H 0.25219 0.18929 0.45168 0.0
H1522 H 0.214 0.19155 0.51991 0.0
H1523 H 0.1921 0.22165 0.4561 0.0
C1524 C 0.17323 0.24317 0.47434 0.0
C1525 C 0.16868 0.25109 0.49459 0.0
C1526 C 0.22233 0.19094 0.50493 0.0
C1527 C 0.19871 0.21908 0.48982 0.0
C1528 C 0.23972 0.1775 0.50282 0.0
C1529 C 0.25102 0.17688 0.48371 0.0
C1530 C 0.21605 0.20356 0.48769 0.0
C1531 C 0.24402 0.18948 0.46676 0.0
C1532 C 0.18836 0.22727 0.47188 0.0
C1533 C 0.17896 0.24209 0.51216 0.0
N1534 N 0.22697 0.20233 0.46914 0.0
N1535 N 0.19354 0.22656 0.50937 0.0
H1536 H 0.05231 0.35004 0.11398 0.0
H1537 H 0.13055 0.28143 0.04186 0.0
H1538 H 0.05971 0.28216 0.11796 0.0
H1539 H 0.12171 0.34865 0.03289 0.0
H1540 H 0.10695 0.2826 0.07214 0.0
H1541 H 0.07969 0.35093 0.08643 0.0
C1542 C 0.05974 0.33536 0.10916 0.0
C1543 C 0.05358 0.31597 0.1182 0.0
C1544 C 0.11018 0.29716 0.06366 0.0
C1545 C 0.08487 0.31692 0.08684 0.0
C1546 C 0.12371 0.29651 0.04631 0.0
C1547 C 0.12798 0.31495 0.03464 0.0
C1548 C 0.10066 0.31637 0.06946 0.0
C1549 C 0.11879 0.33404 0.04138 0.0
C1550 C 0.07534 0.33589 0.09344 0.0
C1551 C 0.06378 0.29746 0.11137 0.0
N1552 N 0.10539 0.33424 0.05828 0.0
N1553 N 0.07883 0.29842 0.09611 0.0
H1554 H 0.67835 0.07506 0.1361 0.0
H1555 H 0.61362 0.12143 0.03753 0.0
H1556 H 0.61593 0.0526 0.1195 0.0
H1557 H 0.67632 0.14113 0.05641 0.0
H1558 H 0.61158 0.09929 0.06959 0.0
H1559 H 0.67533 0.10241 0.10926 0.0
C1560 C 0.66393 0.07593 0.12681 0.0
C1561 C 0.64748 0.06133 0.12986 0.0
C1562 C 0.62564 0.10869 0.06678 0.0
C1563 C 0.64394 0.09271 0.09874 0.0
C1564 C 0.62678 0.12137 0.04856 0.0
C1565 C 0.64528 0.1329 0.04417 0.0
C1566 C 0.6431 0.10771 0.08063 0.0
C1567 C 0.66187 0.13225 0.05896 0.0
C1568 C 0.66218 0.09163 0.11146 0.0
C1569 C 0.62903 0.06349 0.11757 0.0
N1570 N 0.66043 0.11978 0.07637 0.0
N1571 N 0.62784 0.07875 0.10231 0.0
H1572 H 0.92728 0.62645 0.11537 0.0
H1573 H 0.85281 0.68782 0.0329 0.0
H1574 H 0.92451 0.69447 0.10874 0.0
H1575 H 0.85658 0.61957 0.03569 0.0
H1576 H 0.87807 0.69007 0.06189 0.0
H1577 H 0.90059 0.62315 0.08729 0.0
C1578 C 0.92108 0.64068 0.10805 0.0
C1579 C 0.92821 0.66078 0.11442 0.0
C1580 C 0.87339 0.67457 0.05623 0.0
C1581 C 0.89768 0.65709 0.08238 0.0
C1582 C 0.85891 0.67325 0.03963 0.0
C1583 C 0.85258 0.65346 0.03174 0.0
C1584 C 0.88173 0.65596 0.06512 0.0
C1585 C 0.86103 0.63517 0.04123 0.0
C1586 C 0.90585 0.63877 0.09203 0.0
C1587 C 0.91958 0.67865 0.10437 0.0
N1588 N 0.87523 0.63687 0.05741 0.0
N1589 N 0.90482 0.67637 0.0889 0.0
H1590 H 0.35676 0.85614 0.03513 0.0
H1591 H 0.28388 0.93761 0.09877 0.0
H1592 H 0.28862 0.85876 0.02979 0.0
H1593 H 0.35037 0.92893 0.11234 0.0
H1594 H 0.28594 0.90974 0.07223 0.0
H1595 H 0.35526 0.88345 0.0626 0.0
C1596 C 0.34149 0.86236 0.03978 0.0
C1597 C 0.32279 0.85516 0.03008 0.0
C1598 C 0.30009 0.9139 0.08101 0.0
C1599 C 0.32101 0.88649 0.06137 0.0
C1600 C 0.29896 0.9299 0.09614 0.0
C1601 C 0.31699 0.93565 0.10784 0.0
C1602 C 0.31942 0.90356 0.0774 0.0
C1603 C 0.33606 0.92501 0.10372 0.0
C1604 C 0.34066 0.87796 0.05546 0.0
C1605 C 0.30346 0.8638 0.03678 0.0
N1606 N 0.33679 0.90948 0.0888 0.0
N1607 N 0.30309 0.87906 0.05192 0.0
H1608 H 0.05064 0.6273 0.86639 0.0
H1609 H 0.12438 0.69214 0.94676 0.0
H1610 H 0.04863 0.6952 0.87434 0.0
H1611 H 0.12251 0.62379 0.94501 0.0
H1612 H 0.09799 0.69324 0.91866 0.0
H1613 H 0.078 0.62539 0.8939 0.0
C1614 C 0.0559 0.64179 0.87393 0.0
C1615 C 0.04729 0.66145 0.86803 0.0
C1616 C 0.10335 0.67798 0.92437 0.0
C1617 C 0.07865 0.65936 0.8994 0.0
C1618 C 0.1185 0.67732 0.94042 0.0
C1619 C 0.12567 0.65783 0.94835 0.0
C1620 C 0.09523 0.65901 0.91607 0.0
C1621 C 0.11743 0.63918 0.93941 0.0
C1622 C 0.07152 0.64068 0.88962 0.0
C1623 C 0.05475 0.67969 0.87835 0.0
N1624 N 0.1026 0.64023 0.92376 0.0
N1625 N 0.06999 0.67819 0.89346 0.0
H1626 H 0.36609 0.05016 0.85992 0.0
H1627 H 0.30298 0.1264 0.93909 0.0
H1628 H 0.29797 0.05519 0.86326 0.0
H1629 H 0.3712 0.1217 0.93919 0.0
H1630 H 0.30153 0.10134 0.90997 0.0
H1631 H 0.36896 0.07719 0.88775 0.0
C1632 C 0.35177 0.05694 0.86644 0.0
C1633 C 0.33176 0.05031 0.85927 0.0
C1634 C 0.31686 0.10577 0.91628 0.0
C1635 C 0.33494 0.08118 0.89098 0.0
C1636 C 0.31771 0.12013 0.93296 0.0
C1637 C 0.33725 0.12613 0.94172 0.0
C1638 C 0.33568 0.09717 0.90819 0.0
C1639 C 0.35578 0.1175 0.93296 0.0
C1640 C 0.35342 0.07235 0.88231 0.0
C1641 C 0.31375 0.05968 0.86828 0.0
N1642 N 0.35454 0.10337 0.9167 0.0
N1643 N 0.31579 0.07456 0.88362 0.0
H1644 H 0.83376 0.3109 0.91707 0.0
H1645 H 0.93088 0.36954 0.86094 0.0
H1646 H 0.86098 0.36845 0.9419 0.0
H1647 H 0.90663 0.30783 0.84423 0.0
H1648 H 0.902 0.37324 0.88686 0.0
H1649 H 0.85628 0.3139 0.88603 0.0
C1650 C 0.84436 0.32434 0.91584 0.0
C1651 C 0.84576 0.33928 0.93219 0.0
C1652 C 0.90297 0.35901 0.87733 0.0
C1653 C 0.87203 0.34262 0.89679 0.0
C1654 C 0.91938 0.3569 0.86256 0.0
C1655 C 0.92132 0.33822 0.85065 0.0
C1656 C 0.88836 0.34241 0.87992 0.0
C1657 C 0.90599 0.32237 0.85329 0.0
C1658 C 0.85728 0.32604 0.89811 0.0
C1659 C 0.85952 0.35656 0.92963 0.0
N1660 N 0.89028 0.3248 0.86766 0.0
N1661 N 0.87245 0.35759 0.91238 0.0
H1662 H 0.6876 0.84607 0.93642 0.0
H1663 H 0.62137 0.92904 0.86702 0.0
H1664 H 0.62266 0.86185 0.95065 0.0
H1665 H 0.68797 0.91558 0.85961 0.0
H1666 H 0.61962 0.90191 0.89499 0.0
H1667 H 0.68595 0.86853 0.90528 0.0
C1668 C 0.67291 0.85422 0.93294 0.0
C1669 C 0.65532 0.85228 0.94634 0.0
C1670 C 0.63454 0.90489 0.8871 0.0
C1671 C 0.65335 0.87834 0.91055 0.0
C1672 C 0.63555 0.92031 0.87114 0.0
C1673 C 0.6549 0.92475 0.86112 0.0
C1674 C 0.65297 0.8938 0.89284 0.0
C1675 C 0.67276 0.91294 0.86704 0.0
C1676 C 0.67197 0.86709 0.9151 0.0
C1677 C 0.63663 0.863 0.94079 0.0
N1678 N 0.67135 0.89812 0.8825 0.0
N1679 N 0.63618 0.87579 0.92338 0.0
H1680 H 0.09429 0.04971 0.28222 0.0
H1681 H 0.02799 0.12594 0.35841 0.0
H1682 H 0.10571 0.05381 0.34965 0.0
H1683 H 0.02408 0.12678 0.29001 0.0
H1684 H 0.05593 0.09917 0.35604 0.0
H1685 H 0.06762 0.07726 0.28535 0.0
C1686 C 0.09116 0.05635 0.29773 0.0
C1687 C 0.10228 0.04938 0.31571 0.0
C1688 C 0.04899 0.10532 0.34158 0.0
C1689 C 0.07165 0.08112 0.31939 0.0
C1690 C 0.03306 0.12061 0.34291 0.0
C1691 C 0.02359 0.12859 0.32438 0.0
C1692 C 0.05541 0.09791 0.32161 0.0
C1693 C 0.03083 0.12109 0.30474 0.0
C1694 C 0.07594 0.07218 0.29949 0.0
C1695 C 0.09752 0.05869 0.33537 0.0
N1696 N 0.0462 0.10613 0.30389 0.0
N1697 N 0.08252 0.07407 0.33669 0.0
H1698 H 0.91995 0.11919 0.36142 0.0
H1699 H 0.8427 0.0426 0.29619 0.0
H1700 H 0.90746 0.12429 0.29424 0.0
H1701 H 0.85274 0.03654 0.36369 0.0
H1702 H 0.86518 0.07384 0.29601 0.0
H1703 H 0.89412 0.09023 0.36345 0.0
C1704 C 0.9117 0.11435 0.34715 0.0
C1705 C 0.91602 0.12409 0.3276 0.0
C1706 C 0.86245 0.06577 0.31091 0.0
C1707 C 0.88657 0.09103 0.32981 0.0
C1708 C 0.8496 0.04786 0.31102 0.0
C1709 C 0.84591 0.03682 0.32996 0.0
C1710 C 0.87185 0.07273 0.32986 0.0
C1711 C 0.8552 0.04453 0.3487 0.0
C1712 C 0.89699 0.09781 0.34832 0.0
C1713 C 0.90483 0.11718 0.30964 0.0
N1714 N 0.86785 0.06197 0.34816 0.0
N1715 N 0.89074 0.10106 0.31118 0.0
H1716 H 0.85866 0.9203 0.29582 0.0
H1717 H 0.93905 0.85521 0.36924 0.0
H1718 H 0.86002 0.92702 0.36396 0.0
H1719 H 0.93436 0.84921 0.30117 0.0
H1720 H 0.9095 0.88043 0.36845 0.0
H1721 H 0.88581 0.8933 0.29828 0.0
C1722 C 0.86466 0.91611 0.31136 0.0
C1723 C 0.85706 0.92608 0.32972 0.0
C1724 C 0.91492 0.87348 0.35374 0.0
C1725 C 0.88844 0.89491 0.33265 0.0
C1726 C 0.93175 0.85906 0.35417 0.0
C1727 C 0.93931 0.85014 0.33523 0.0
C1728 C 0.90562 0.87896 0.33423 0.0
C1729 C 0.92923 0.85573 0.31618 0.0
C1730 C 0.88021 0.90059 0.31276 0.0
C1731 C 0.86544 0.91978 0.3494 0.0
N1732 N 0.91302 0.86979 0.31619 0.0
N1733 N 0.88077 0.90464 0.35035 0.0
H1734 H 0.13058 0.92725 0.29747 0.0
H1735 H 0.04472 0.86405 0.36592 0.0
H1736 H 0.11225 0.94712 0.36028 0.0
H1737 H 0.05959 0.85228 0.30017 0.0
H1738 H 0.07266 0.89124 0.3668 0.0
H1739 H 0.10849 0.89603 0.30115 0.0
C1740 C 0.12198 0.92495 0.31215 0.0
C1741 C 0.12301 0.93997 0.32847 0.0
C1742 C 0.06983 0.88255 0.35228 0.0
C1743 C 0.0973 0.90421 0.33273 0.0
C1744 C 0.05394 0.86704 0.35177 0.0
C1745 C 0.04965 0.85607 0.33287 0.0
C1746 C 0.08153 0.88684 0.33382 0.0
C1747 C 0.0621 0.86052 0.31502 0.0
C1748 C 0.10932 0.90709 0.31425 0.0
C1749 C 0.11179 0.93595 0.34727 0.0
N1750 N 0.07735 0.87555 0.31594 0.0
N1751 N 0.09912 0.91854 0.3488 0.0
H1752 H 0.04015 0.85964 0.61401 0.0
H1753 H 0.12963 0.91614 0.68367 0.0
H1754 H 0.05328 0.8461 0.67987 0.0
H1755 H 0.12024 0.93056 0.61737 0.0
H1756 H 0.10303 0.8886 0.68116 0.0
H1757 H 0.07075 0.88369 0.61345 0.0
C1758 C 0.04957 0.86153 0.62826 0.0
C1759 C 0.044 0.85102 0.64708 0.0
C1760 C 0.10676 0.89767 0.66708 0.0
C1761 C 0.07883 0.87843 0.64655 0.0
C1762 C 0.12197 0.91351 0.66852 0.0
C1763 C 0.12705 0.92586 0.65075 0.0
C1764 C 0.09628 0.89413 0.64775 0.0
C1765 C 0.11673 0.92146 0.63149 0.0
C1766 C 0.06697 0.87528 0.62793 0.0
C1767 C 0.05676 0.85404 0.66505 0.0
N1768 N 0.10166 0.90604 0.63053 0.0
N1769 N 0.07344 0.86751 0.66435 0.0
H1770 H 0.12739 0.03788 0.61773 0.0
H1771 H 0.06401 0.1171 0.69354 0.0
H1772 H 0.13371 0.04009 0.68591 0.0
H1773 H 0.05594 0.11666 0.62551 0.0
H1774 H 0.09079 0.08978 0.6903 0.0
H1775 H 0.10248 0.0676 0.61953 0.0
C1776 C 0.12365 0.04466 0.63305 0.0
C1777 C 0.1326 0.03638 0.65171 0.0
C1778 C 0.08325 0.09564 0.67603 0.0
C1779 C 0.10414 0.07028 0.65385 0.0
C1780 C 0.06788 0.11129 0.67786 0.0
C1781 C 0.05758 0.11917 0.65976 0.0
C1782 C 0.08844 0.08762 0.65595 0.0
C1783 C 0.06343 0.11102 0.63989 0.0
C1784 C 0.10942 0.06159 0.63405 0.0
C1785 C 0.12717 0.04581 0.6711 0.0
N1786 N 0.07844 0.0956 0.63851 0.0
N1787 N 0.11329 0.06216 0.67164 0.0
H1788 H 0.9461 0.12266 0.62611 0.0
H1789 H 0.87029 0.05236 0.69944 0.0
H1790 H 0.94547 0.12496 0.69457 0.0
H1791 H 0.86655 0.05216 0.63104 0.0
H1792 H 0.89779 0.07925 0.69754 0.0
H1793 H 0.91674 0.0973 0.62717 0.0
C1794 C 0.93974 0.11794 0.64135 0.0
C1795 C 0.94835 0.12591 0.66028 0.0
C1796 C 0.89096 0.07339 0.68291 0.0
C1797 C 0.91487 0.09686 0.66158 0.0
C1798 C 0.87524 0.05796 0.68398 0.0
C1799 C 0.8661 0.0499 0.66536 0.0
C1800 C 0.89774 0.08085 0.66307 0.0
C1801 C 0.87317 0.05789 0.64581 0.0
C1802 C 0.923 0.10345 0.64193 0.0
C1803 C 0.93945 0.11923 0.67955 0.0
N1804 N 0.88863 0.07289 0.64517 0.0
N1805 N 0.92329 0.10507 0.67968 0.0
H1806 H 0.92948 0.86563 0.69072 0.0
H1807 H 0.86168 0.94588 0.62033 0.0
H1808 H 0.93378 0.86638 0.62238 0.0
H1809 H 0.85098 0.9333 0.68678 0.0
H1810 H 0.88794 0.91716 0.61979 0.0
H1811 H 0.9011 0.89139 0.68885 0.0
C1812 C 0.92449 0.87124 0.67527 0.0
C1813 C 0.93411 0.86383 0.65668 0.0
C1814 C 0.87965 0.92063 0.63439 0.0
C1815 C 0.90133 0.89351 0.65441 0.0
C1816 C 0.86463 0.93695 0.6347 0.0
C1817 C 0.85428 0.94219 0.65369 0.0
C1818 C 0.88431 0.90962 0.65322 0.0
C1819 C 0.85872 0.93008 0.67183 0.0
C1820 C 0.90814 0.88593 0.6742 0.0
C1821 C 0.92681 0.87168 0.63711 0.0
N1822 N 0.87347 0.91455 0.67116 0.0
N1823 N 0.91088 0.88621 0.63648 0.0
H1824 H 0.30889 0.06013 0.1408 0.0
H1825 H 0.37248 0.11362 0.04519 0.0
H1826 H 0.36603 0.03278 0.11539 0.0
H1827 H 0.31019 0.13165 0.06663 0.0
H1828 H 0.3745 0.08788 0.07453 0.0
H1829 H 0.31383 0.09087 0.11817 0.0
C1830 C 0.32265 0.06074 0.13057 0.0
C1831 C 0.3369 0.04377 0.12969 0.0
C1832 C 0.36053 0.09767 0.07285 0.0
C1833 C 0.34246 0.07882 0.10329 0.0
C1834 C 0.35938 0.11233 0.05618 0.0
C1835 C 0.341 0.12453 0.05331 0.0
C1836 C 0.3433 0.09552 0.08678 0.0
C1837 C 0.32451 0.12233 0.06799 0.0
C1838 C 0.32545 0.07829 0.11759 0.0
C1839 C 0.35464 0.04553 0.11642 0.0
N1840 N 0.32603 0.10808 0.08396 0.0
N1841 N 0.35675 0.06264 0.1034 0.0
H1842 H 0.36516 0.94093 0.85392 0.0
H1843 H 0.29221 0.85562 0.91262 0.0
H1844 H 0.29763 0.93475 0.845 0.0
H1845 H 0.35917 0.86185 0.92522 0.0
H1846 H 0.29503 0.88276 0.88552 0.0
H1847 H 0.36435 0.91029 0.8778 0.0
C1848 C 0.35021 0.93306 0.85683 0.0
C1849 C 0.3314 0.94054 0.84755 0.0
C1850 C 0.30917 0.8782 0.89412 0.0
C1851 C 0.33039 0.90557 0.87481 0.0
C1852 C 0.30757 0.86266 0.90966 0.0
C1853 C 0.32546 0.85654 0.92139 0.0
C1854 C 0.32878 0.88789 0.89022 0.0
C1855 C 0.34495 0.86614 0.91663 0.0
C1856 C 0.34976 0.91561 0.87049 0.0
C1857 C 0.3125 0.9297 0.85189 0.0
N1858 N 0.34608 0.88147 0.90148 0.0
N1859 N 0.31249 0.91287 0.86524 0.0
H1860 H 0.03759 0.36148 0.85465 0.0
H1861 H 0.10775 0.27901 0.92095 0.0
H1862 H 0.03115 0.29347 0.85118 0.0
H1863 H 0.11609 0.34675 0.92543 0.0
H1864 H 0.07994 0.28449 0.89483 0.0
H1865 H 0.06672 0.3569 0.88001 0.0
C1866 C 0.04231 0.34561 0.85914 0.0
C1867 C 0.03184 0.32784 0.85078 0.0
C1868 C 0.08783 0.2982 0.90147 0.0
C1869 C 0.06507 0.32252 0.87976 0.0
C1870 C 0.10375 0.29507 0.91644 0.0
C1871 C 0.11429 0.31244 0.92547 0.0
C1872 C 0.08227 0.31887 0.8954 0.0
C1873 C 0.10838 0.33289 0.91891 0.0
C1874 C 0.05892 0.34302 0.87363 0.0
C1875 C 0.03866 0.30766 0.8572 0.0
N1876 N 0.09273 0.33554 0.90429 0.0
N1877 N 0.05477 0.30558 0.87128 0.0
H1878 H 0.6242 0.11432 0.92999 0.0
H1879 H 0.69009 0.03658 0.8549 0.0
H1880 H 0.69179 0.1047 0.9339 0.0
H1881 H 0.62174 0.03604 0.8572 0.0
H1882 H 0.69052 0.06434 0.88151 0.0
H1883 H 0.62252 0.08788 0.90155 0.0
C1884 C 0.63866 0.10663 0.92495 0.0
C1885 C 0.65817 0.11174 0.9344 0.0
C1886 C 0.6754 0.05822 0.8762 0.0
C1887 C 0.65636 0.08171 0.90181 0.0
C1888 C 0.67512 0.04237 0.8609 0.0
C1889 C 0.65584 0.0338 0.85387 0.0
C1890 C 0.65626 0.06569 0.88463 0.0
C1891 C 0.63698 0.04213 0.8622 0.0
C1892 C 0.63768 0.09158 0.90871 0.0
C1893 C 0.67639 0.10129 0.92718 0.0
N1894 N 0.63766 0.05758 0.87724 0.0
N1895 N 0.67503 0.08686 0.91132 0.0
H1896 H 0.92622 0.67941 0.83926 0.0
H1897 H 0.86344 0.61575 0.92905 0.0
H1898 H 0.94538 0.61725 0.86033 0.0
H1899 H 0.84986 0.6797 0.90895 0.0
H1900 H 0.89056 0.61341 0.90118 0.0
H1901 H 0.89499 0.67699 0.86149 0.0
C1902 C 0.92377 0.66515 0.8485 0.0
C1903 C 0.93858 0.64863 0.84817 0.0
C1904 C 0.88147 0.62785 0.90282 0.0
C1905 C 0.90279 0.64582 0.87402 0.0
C1906 C 0.866 0.62919 0.91867 0.0
C1907 C 0.85457 0.64805 0.9215 0.0
C1908 C 0.88532 0.64545 0.88971 0.0
C1909 C 0.85848 0.66494 0.9076 0.0
C1910 C 0.90589 0.66376 0.86123 0.0
C1911 C 0.93438 0.63039 0.86023 0.0
N1912 N 0.87353 0.66326 0.89244 0.0
N1913 N 0.91697 0.62957 0.87293 0.0
H1914 H 0.62006 0.94652 0.12797 0.0
H1915 H 0.69793 0.8753 0.05786 0.0
H1916 H 0.68827 0.95115 0.12947 0.0
H1917 H 0.62996 0.86779 0.05727 0.0
H1918 H 0.69433 0.9032 0.08419 0.0
H1919 H 0.62301 0.91762 0.10228 0.0
C1920 C 0.63564 0.94145 0.12297 0.0
C1921 C 0.65394 0.95134 0.13088 0.0
C1922 C 0.68018 0.89547 0.07834 0.0
C1923 C 0.65741 0.91834 0.10147 0.0
C1924 C 0.68222 0.87951 0.06325 0.0
C1925 C 0.66422 0.86916 0.05529 0.0
C1926 C 0.65998 0.90124 0.08558 0.0
C1927 C 0.64428 0.87533 0.06295 0.0
C1928 C 0.63731 0.92495 0.10829 0.0
C1929 C 0.67371 0.94407 0.12382 0.0
N1930 N 0.64269 0.891 0.07766 0.0
N1931 N 0.6749 0.92808 0.10952 0.0
H1932 H 0.04609 0.68893 0.13465 0.0
H1933 H 0.11624 0.62247 0.05283 0.0
H1934 H 0.03458 0.62278 0.12168 0.0
H1935 H 0.12431 0.689 0.0665 0.0
H1936 H 0.0884 0.62082 0.07995 0.0
H1937 H 0.077 0.68775 0.1119 0.0
C1938 C 0.05012 0.67409 0.12706 0.0
C1939 C 0.03758 0.65598 0.12992 0.0
C1940 C 0.0964 0.63571 0.07704 0.0
C1941 C 0.0731 0.65453 0.10357 0.0
C1942 C 0.11229 0.63666 0.06161 0.0
C1943 C 0.12249 0.65595 0.05724 0.0
C1944 C 0.0908 0.65416 0.08816 0.0
C1945 C 0.11677 0.67382 0.06912 0.0
C1946 C 0.06783 0.67342 0.11404 0.0
C1947 C 0.04377 0.63714 0.11985 0.0
N1948 N 0.1013 0.67249 0.08391 0.0
N1949 N 0.06103 0.63694 0.10693 0.0
H1950 H 0.94513 0.35922 0.11935 0.0
H1951 H 0.87637 0.28898 0.03944 0.0
H1952 H 0.94288 0.29084 0.11967 0.0
H1953 H 0.86587 0.35616 0.04684 0.0
H1954 H 0.90294 0.29041 0.06726 0.0
H1955 H 0.91762 0.35941 0.09173 0.0
C1956 C 0.9388 0.34429 0.11375 0.0
C1957 C 0.94643 0.32499 0.1218 0.0
C1958 C 0.89485 0.30487 0.06286 0.0
C1959 C 0.91524 0.32512 0.0902 0.0
C1960 C 0.87969 0.3041 0.04686 0.0
C1961 C 0.86879 0.32248 0.04078 0.0
C1962 C 0.89934 0.32419 0.07291 0.0
C1963 C 0.87386 0.34159 0.05105 0.0
C1964 C 0.92314 0.34442 0.09799 0.0
C1965 C 0.93763 0.30613 0.11394 0.0
N1966 N 0.88881 0.34197 0.06663 0.0
N1967 N 0.92265 0.3067 0.09856 0.0
H1968 H 0.62121 0.8675 0.54304 0.0
H1969 H 0.55571 0.79145 0.62051 0.0
H1970 H 0.62526 0.79923 0.54331 0.0
H1971 H 0.55056 0.85961 0.62267 0.0
H1972 H 0.58208 0.79465 0.59277 0.0
H1973 H 0.59629 0.86558 0.57278 0.0
C1974 C 0.61696 0.85214 0.54938 0.0
C1975 C 0.62529 0.83349 0.54057 0.0
C1976 C 0.57526 0.80896 0.59928 0.0
C1977 C 0.59682 0.83122 0.57449 0.0
C1978 C 0.56012 0.80715 0.61516 0.0
C1979 C 0.55079 0.8253 0.62393 0.0
C1980 C 0.5812 0.82908 0.59191 0.0
C1981 C 0.5573 0.84519 0.61635 0.0
C1982 C 0.60273 0.85107 0.56633 0.0
C1983 C 0.61922 0.81404 0.54946 0.0
N1984 N 0.57208 0.84656 0.6007 0.0
N1985 N 0.60535 0.81343 0.56584 0.0
H1986 H 0.13209 0.55105 0.61558 0.0
H1987 H 0.19337 0.62444 0.5323 0.0
H1988 H 0.19951 0.54869 0.60451 0.0
H1989 H 0.12517 0.62259 0.53692 0.0
H1990 H 0.19567 0.59807 0.56033 0.0
H1991 H 0.129 0.57835 0.58815 0.0
C1992 C 0.14623 0.55622 0.60739 0.0
C1993 C 0.16609 0.54751 0.61237 0.0
C1994 C 0.18018 0.60342 0.55526 0.0
C1995 C 0.16266 0.57881 0.58107 0.0
C1996 C 0.17884 0.61855 0.53925 0.0
C1997 C 0.15902 0.62574 0.53215 0.0
C1998 C 0.16159 0.59533 0.56437 0.0
C1999 C 0.14078 0.61749 0.54185 0.0
C2000 C 0.14445 0.57181 0.59173 0.0
C2001 C 0.18386 0.55487 0.60122 0.0
N2002 N 0.1425 0.60269 0.55746 0.0
N2003 N 0.18171 0.57008 0.58616 0.0
H2004 H 0.33704 0.17975 0.55 0.0
H2005 H 0.42717 0.11672 0.6132 0.0
H2006 H 0.35749 0.11726 0.53136 0.0
H2007 H 0.41091 0.18249 0.62231 0.0
H2008 H 0.39868 0.11398 0.58661 0.0
H2009 H 0.36046 0.17804 0.58048 0.0
C2010 C 0.3464 0.16557 0.5524 0.0
C2011 C 0.34554 0.14875 0.53793 0.0
C2012 C 0.40136 0.12893 0.59458 0.0
C2013 C 0.37274 0.14677 0.57285 0.0
C2014 C 0.41755 0.1305 0.60973 0.0
C2015 C 0.42158 0.14993 0.61979 0.0
C2016 C 0.38907 0.14686 0.58976 0.0
C2017 C 0.40863 0.16726 0.61477 0.0
C2018 C 0.35982 0.1646 0.56984 0.0
C2019 C 0.35778 0.13064 0.54208 0.0
N2020 N 0.39307 0.16531 0.60013 0.0
N2021 N 0.37113 0.13021 0.55908 0.0
H2022 H 0.79545 0.35067 0.54635 0.0
H2023 H 0.86062 0.43096 0.61993 0.0
H2024 H 0.86322 0.35849 0.54167 0.0
H2025 H 0.79259 0.42389 0.62048 0.0
H2026 H 0.8627 0.40295 0.59306 0.0
H2027 H 0.79496 0.37574 0.57554 0.0
C2028 C 0.81028 0.35759 0.55151 0.0
C2029 C 0.82939 0.35255 0.5414 0.0
C2030 C 0.84736 0.40753 0.59916 0.0
C2031 C 0.82892 0.38152 0.57494 0.0
C2032 C 0.84615 0.42351 0.61448 0.0
C2033 C 0.82639 0.4299 0.6224 0.0
C2034 C 0.82868 0.39789 0.5918 0.0
C2035 C 0.80818 0.41964 0.61479 0.0
C2036 C 0.80999 0.37196 0.56822 0.0
C2037 C 0.84811 0.36196 0.54896 0.0
N2038 N 0.80978 0.40423 0.59993 0.0
N2039 N 0.8474 0.37611 0.56521 0.0
H2040 H 0.54982 0.1191 0.36459 0.0
H2041 H 0.63641 0.18456 0.43022 0.0
H2042 H 0.5655 0.1849 0.35444 0.0
H2043 H 0.61953 0.12021 0.44606 0.0
H2044 H 0.61327 0.18282 0.39953 0.0
H2045 H 0.57767 0.11723 0.39183 0.0
C2046 C 0.5592 0.13308 0.36795 0.0
C2047 C 0.55517 0.15225 0.35736 0.0
C2048 C 0.61463 0.16899 0.40959 0.0
C2049 C 0.58696 0.15019 0.3883 0.0
C2050 C 0.62789 0.16997 0.42717 0.0
C2051 C 0.62972 0.15259 0.4409 0.0
C2052 C 0.60286 0.15054 0.40565 0.0
C2053 C 0.6185 0.13402 0.43592 0.0
C2054 C 0.57504 0.132 0.38349 0.0
C2055 C 0.56782 0.16984 0.36232 0.0
N2056 N 0.60533 0.13354 0.41879 0.0
N2057 N 0.58302 0.16838 0.37743 0.0
H2058 H 0.7881 0.55344 0.36637 0.0
H2059 H 0.85655 0.62594 0.44454 0.0
H2060 H 0.85647 0.55233 0.36715 0.0
H2061 H 0.78862 0.62958 0.43744 0.0
H2062 H 0.85753 0.59966 0.41594 0.0
H2063 H 0.78862 0.58165 0.39245 0.0
C2064 C 0.80327 0.5591 0.37205 0.0
C2065 C 0.82228 0.5504 0.36457 0.0
C2066 C 0.84246 0.60635 0.42059 0.0
C2067 C 0.82298 0.58296 0.39462 0.0
C2068 C 0.84188 0.62138 0.43687 0.0
C2069 C 0.82245 0.62989 0.44353 0.0
C2070 C 0.82347 0.5998 0.41098 0.0
C2071 C 0.80396 0.62339 0.433 0.0
C2072 C 0.80355 0.57532 0.38694 0.0
C2073 C 0.84144 0.55854 0.3725 0.0
N2074 N 0.80494 0.60869 0.41739 0.0
N2075 N 0.84131 0.57434 0.38718 0.0
H2076 H 0.35721 0.85672 0.44787 0.0
H2077 H 0.43554 0.78295 0.38125 0.0
H2078 H 0.35862 0.78846 0.45209 0.0
H2079 H 0.42864 0.84997 0.36939 0.0
H2080 H 0.40836 0.78528 0.40843 0.0
H2081 H 0.38403 0.85511 0.41993 0.0
C2082 C 0.36307 0.84141 0.44289 0.0
C2083 C 0.35566 0.8227 0.4524 0.0
C2084 C 0.41275 0.7995 0.39989 0.0
C2085 C 0.38642 0.82078 0.42058 0.0
C2086 C 0.42836 0.7982 0.38438 0.0
C2087 C 0.43441 0.8163 0.37297 0.0
C2088 C 0.40311 0.81905 0.40417 0.0
C2089 C 0.42447 0.8356 0.37777 0.0
C2090 C 0.37839 0.84051 0.42695 0.0
C2091 C 0.36383 0.80331 0.44527 0.0
N2092 N 0.40931 0.83648 0.39304 0.0
N2093 N 0.37881 0.80288 0.42988 0.0
H2094 H 0.19398 0.42879 0.37549 0.0
H2095 H 0.11717 0.35673 0.44609 0.0
H2096 H 0.1261 0.42811 0.36709 0.0
H2097 H 0.18548 0.35376 0.4478 0.0
H2098 H 0.11953 0.38313 0.41763 0.0
H2099 H 0.19058 0.4018 0.40277 0.0
C2100 C 0.17832 0.423 0.3794 0.0
C2101 C 0.1603 0.43079 0.36895 0.0
C2102 C 0.13396 0.37661 0.42422 0.0
C2103 C 0.15628 0.39968 0.40034 0.0
C2104 C 0.13264 0.36153 0.44045 0.0
C2105 C 0.15115 0.35303 0.44943 0.0
C2106 C 0.15394 0.38326 0.41702 0.0
C2107 C 0.17075 0.35986 0.44147 0.0
C2108 C 0.17639 0.4075 0.39499 0.0
C2109 C 0.14043 0.42258 0.37472 0.0
N2110 N 0.1716 0.37458 0.42582 0.0
N2111 N 0.13894 0.40748 0.39008 0.0
H2112 H 0.61174 0.55721 0.79124 0.0
H2113 H 0.53918 0.62578 0.86924 0.0
H2114 H 0.61853 0.55508 0.85938 0.0
H2115 H 0.53367 0.62547 0.80096 0.0
H2116 H 0.5684 0.60036 0.86654 0.0
H2117 H 0.58325 0.58263 0.7951 0.0
C2118 C 0.60726 0.56208 0.80707 0.0
C2119 C 0.61761 0.55393 0.82502 0.0
C2120 C 0.56077 0.6059 0.85219 0.0
C2121 C 0.58473 0.58327 0.82957 0.0
C2122 C 0.5441 0.62042 0.8537 0.0
C2123 C 0.53391 0.62779 0.8353 0.0
C2124 C 0.56725 0.59875 0.83213 0.0
C2125 C 0.54097 0.62027 0.8156 0.0
C2126 C 0.59092 0.57666 0.80926 0.0
C2127 C 0.611 0.56092 0.8451 0.0
N2128 N 0.55715 0.60621 0.81457 0.0
N2129 N 0.59495 0.57521 0.84685 0.0
H2130 H 0.40741 0.63851 0.81302 0.0
H2131 H 0.36041 0.54129 0.87772 0.0
H2132 H 0.43197 0.62026 0.87426 0.0
H2133 H 0.33383 0.56637 0.81986 0.0
H2134 H 0.38386 0.57232 0.87983 0.0
H2135 H 0.37791 0.61439 0.81791 0.0
C2136 C 0.40655 0.62942 0.82758 0.0
C2137 C 0.42233 0.63116 0.84312 0.0
C2138 C 0.37259 0.57119 0.86691 0.0
C2139 C 0.3885 0.60319 0.84883 0.0
C2140 C 0.35914 0.55357 0.86578 0.0
C2141 C 0.34544 0.55114 0.84839 0.0
C2142 C 0.3722 0.58633 0.85055 0.0
C2143 C 0.34444 0.56743 0.83333 0.0
C2144 C 0.3896 0.61568 0.83043 0.0
C2145 C 0.42018 0.61926 0.86183 0.0
N2146 N 0.3578 0.58416 0.83463 0.0
N2147 N 0.40371 0.60549 0.86404 0.0
H2148 H 0.38386 0.45302 0.79765 0.0
H2149 H 0.44806 0.36219 0.85845 0.0
H2150 H 0.36771 0.43399 0.86142 0.0
H2151 H 0.45029 0.37404 0.79101 0.0
H2152 H 0.42115 0.39021 0.86177 0.0
H2153 H 0.41154 0.42648 0.79713 0.0
C2154 C 0.38616 0.44331 0.81163 0.0
C2155 C 0.37325 0.44566 0.82955 0.0
C2156 C 0.42759 0.38654 0.8463 0.0
C2157 C 0.4051 0.41491 0.82899 0.0
C2158 C 0.4429 0.37059 0.84439 0.0
C2159 C 0.45147 0.3657 0.82442 0.0
C2160 C 0.42106 0.39774 0.82815 0.0
C2161 C 0.44421 0.37712 0.80674 0.0
C2162 C 0.40199 0.42805 0.81129 0.0
C2163 C 0.37723 0.43265 0.84723 0.0
N2164 N 0.42956 0.39256 0.80905 0.0
N2165 N 0.39278 0.41772 0.84649 0.0
H2166 H 0.55834 0.36439 0.8474 0.0
H2167 H 0.63822 0.44125 0.78612 0.0
H2168 H 0.56429 0.3679 0.77927 0.0
H2169 H 0.6284 0.44397 0.85383 0.0
H2170 H 0.61444 0.41103 0.78419 0.0
H2171 H 0.58692 0.39041 0.8508 0.0
C2172 C 0.56572 0.37051 0.83317 0.0
C2173 C 0.55876 0.36408 0.81301 0.0
C2174 C 0.61755 0.41813 0.79951 0.0
C2175 C 0.59145 0.39376 0.81681 0.0
C2176 C 0.63118 0.43541 0.80064 0.0
C2177 C 0.63514 0.44536 0.82014 0.0
C2178 C 0.60767 0.41069 0.81799 0.0
C2179 C 0.62571 0.43688 0.83843 0.0
C2180 C 0.58202 0.38537 0.83513 0.0
C2181 C 0.56896 0.3725 0.79514 0.0
N2182 N 0.61224 0.42012 0.83689 0.0
N2183 N 0.58471 0.38693 0.79747 0.0
H2184 H 0.53185 0.34852 0.1945 0.0
H2185 H 0.61471 0.42298 0.134 0.0
H2186 H 0.53461 0.35391 0.12627 0.0
H2187 H 0.60985 0.41826 0.20215 0.0
H2188 H 0.5864 0.39675 0.13058 0.0
H2189 H 0.5615 0.373 0.19731 0.0
C2190 C 0.53872 0.3548 0.18007 0.0
C2191 C 0.53064 0.34918 0.1601 0.0
C2192 C 0.59157 0.40144 0.14627 0.0
C2193 C 0.56469 0.37736 0.16325 0.0
C2194 C 0.60774 0.41642 0.14824 0.0
C2195 C 0.61465 0.4229 0.1684 0.0
C2196 C 0.58226 0.39288 0.16458 0.0
C2197 C 0.60503 0.41381 0.18628 0.0
C2198 C 0.55568 0.36882 0.1817 0.0
C2199 C 0.54028 0.35782 0.142 0.0
N2200 N 0.58934 0.39932 0.18394 0.0
N2201 N 0.55676 0.37153 0.144 0.0
H2202 H 0.62486 0.53551 0.19678 0.0
H2203 H 0.54978 0.61042 0.12731 0.0
H2204 H 0.62054 0.5301 0.12862 0.0
H2205 H 0.54731 0.6048 0.19554 0.0
H2206 H 0.57784 0.58353 0.12673 0.0
H2207 H 0.59912 0.56399 0.19578 0.0
C2208 C 0.61859 0.54037 0.18154 0.0
C2209 C 0.62479 0.53023 0.16276 0.0
C2210 C 0.57109 0.58823 0.14178 0.0
C2211 C 0.59501 0.56296 0.16154 0.0
C2212 C 0.55509 0.60355 0.14214 0.0
C2213 C 0.54612 0.60985 0.16151 0.0
C2214 C 0.57823 0.57934 0.16092 0.0
C2215 C 0.55364 0.60043 0.18021 0.0
C2216 C 0.60379 0.55665 0.18099 0.0
C2217 C 0.61616 0.53742 0.14349 0.0
N2218 N 0.56924 0.58573 0.17944 0.0
N2219 N 0.6016 0.55332 0.14338 0.0
H2220 H 0.42449 0.63626 0.178 0.0
H2221 H 0.36222 0.54613 0.11418 0.0
H2222 H 0.44441 0.61575 0.11588 0.0
H2223 H 0.35617 0.55892 0.18116 0.0
H2224 H 0.38827 0.57508 0.11163 0.0
H2225 H 0.39452 0.61229 0.17599 0.0
C2226 C 0.42245 0.62681 0.16381 0.0
C2227 C 0.43717 0.62776 0.14722 0.0
C2228 C 0.3811 0.57152 0.1268 0.0
C2229 C 0.40287 0.5999 0.14493 0.0
C2230 C 0.36627 0.55505 0.12828 0.0
C2231 C 0.35716 0.54996 0.14796 0.0
C2232 C 0.38651 0.58307 0.14507 0.0
C2233 C 0.36292 0.56206 0.1657 0.0
C2234 C 0.40533 0.61305 0.16269 0.0
C2235 C 0.43347 0.6154 0.12907 0.0
N2236 N 0.37717 0.57797 0.16381 0.0
N2237 N 0.41677 0.6017 0.1285 0.0
H2238 H 0.42553 0.35967 0.11859 0.0
H2239 H 0.342 0.43104 0.18148 0.0
H2240 H 0.41133 0.35392 0.18531 0.0
H2241 H 0.35456 0.43955 0.11474 0.0
H2242 H 0.36558 0.40075 0.18186 0.0
H2243 H 0.39812 0.3871 0.1156 0.0
C2244 C 0.4166 0.36406 0.13255 0.0
C2245 C 0.42087 0.35458 0.15227 0.0
C2246 C 0.36317 0.40911 0.16705 0.0
C2247 C 0.38957 0.38581 0.14894 0.0
C2248 C 0.34967 0.42648 0.16683 0.0
C2249 C 0.34643 0.43801 0.14809 0.0
C2250 C 0.37377 0.40318 0.14843 0.0
C2251 C 0.35665 0.43114 0.12955 0.0
C2252 C 0.40098 0.37971 0.13083 0.0
C2253 C 0.40878 0.36086 0.16982 0.0
N2254 N 0.37005 0.41425 0.13022 0.0
N2255 N 0.3938 0.37607 0.16773 0.0
H2256 H 0.85921 0.54186 0.62377 0.0
H2257 H 0.78228 0.61721 0.55677 0.0
H2258 H 0.79112 0.54323 0.62991 0.0
H2259 H 0.85042 0.62025 0.5519 0.0
H2260 H 0.78579 0.59034 0.58413 0.0
H2261 H 0.85693 0.57105 0.59819 0.0
C2262 C 0.84383 0.54836 0.61988 0.0
C2263 C 0.82533 0.53996 0.62893 0.0
C2264 C 0.80002 0.59688 0.57715 0.0
C2265 C 0.82262 0.57321 0.59966 0.0
C2266 C 0.79802 0.61224 0.56145 0.0
C2267 C 0.81608 0.62099 0.55194 0.0
C2268 C 0.82024 0.59005 0.58344 0.0
C2269 C 0.83606 0.61392 0.55878 0.0
C2270 C 0.84254 0.56499 0.60526 0.0
C2271 C 0.80582 0.54904 0.62329 0.0
N2272 N 0.83761 0.59879 0.57408 0.0
N2273 N 0.805 0.56505 0.60899 0.0
H2274 H 0.86676 0.4445 0.36255 0.0
H2275 H 0.79576 0.35862 0.42248 0.0
H2276 H 0.80071 0.43231 0.34956 0.0
H2277 H 0.86288 0.36486 0.43415 0.0
H2278 H 0.79835 0.38494 0.39466 0.0
H2279 H 0.86685 0.41461 0.38751 0.0
C2280 C 0.85237 0.43544 0.36477 0.0
C2281 C 0.83364 0.44107 0.35411 0.0
C2282 C 0.8126 0.38058 0.40319 0.0
C2283 C 0.83363 0.40706 0.38258 0.0
C2284 C 0.81111 0.36554 0.41919 0.0
C2285 C 0.82911 0.35961 0.43082 0.0
C2286 C 0.83221 0.39003 0.39873 0.0
C2287 C 0.84859 0.36902 0.42561 0.0
C2288 C 0.85242 0.41843 0.37903 0.0
C2289 C 0.81547 0.42877 0.35756 0.0
N2290 N 0.84961 0.38392 0.41001 0.0
N2291 N 0.81591 0.41249 0.37155 0.0
H2292 H 0.55703 0.80445 0.34121 0.0
H2293 H 0.61298 0.86856 0.43527 0.0
H2294 H 0.53239 0.86376 0.36443 0.0
H2295 H 0.62732 0.80431 0.41689 0.0
H2296 H 0.58736 0.87063 0.40584 0.0
H2297 H 0.58742 0.80826 0.36455 0.0
C2298 C 0.55815 0.81843 0.35111 0.0
C2299 C 0.54202 0.83365 0.35114 0.0
C2300 C 0.59629 0.85618 0.40824 0.0
C2301 C 0.5767 0.83796 0.37833 0.0
C2302 C 0.61088 0.85499 0.42498 0.0
C2303 C 0.62208 0.83614 0.4287 0.0
C2304 C 0.59319 0.83848 0.39509 0.0
C2305 C 0.61882 0.81906 0.41486 0.0
C2306 C 0.57551 0.82059 0.3645 0.0
C2307 C 0.54447 0.85162 0.36403 0.0
N2308 N 0.60469 0.82065 0.39878 0.0
N2309 N 0.56137 0.85314 0.37742 0.0
H2310 H 0.18615 0.62965 0.41076 0.0
H2311 H 0.11874 0.53523 0.35995 0.0
H2312 H 0.12181 0.61631 0.42959 0.0
H2313 H 0.18325 0.55081 0.34362 0.0
H2314 H 0.11752 0.56679 0.38274 0.0
H2315 H 0.18339 0.60283 0.38341 0.0
C2316 C 0.17136 0.6211 0.40911 0.0
C2317 C 0.15427 0.62508 0.42268 0.0
C2318 C 0.13184 0.56335 0.37397 0.0
C2319 C 0.151 0.59403 0.39125 0.0
C2320 C 0.13252 0.54542 0.36092 0.0
C2321 C 0.15122 0.54024 0.35008 0.0
C2322 C 0.14996 0.57614 0.37603 0.0
C2323 C 0.16859 0.55397 0.3519 0.0
C2324 C 0.16977 0.60575 0.3934 0.0
C2325 C 0.13542 0.61366 0.41953 0.0
N2326 N 0.16756 0.57114 0.3647 0.0
N2327 N 0.13435 0.59845 0.40425 0.0
H2328 H 0.44166 0.12091 0.357 0.0
H2329 H 0.36855 0.19579 0.42838 0.0
H2330 H 0.44416 0.18927 0.3561 0.0
H2331 H 0.36226 0.1277 0.42708 0.0
H2332 H 0.39657 0.19338 0.40204 0.0
H2333 H 0.41267 0.12276 0.38264 0.0
C2334 C 0.43609 0.1363 0.36212 0.0
C2335 C 0.44542 0.15496 0.3544 0.0
C2336 C 0.38907 0.17894 0.40747 0.0
C2337 C 0.41233 0.15716 0.38378 0.0
C2338 C 0.37306 0.1803 0.42257 0.0
C2339 C 0.36302 0.16191 0.43 0.0
C2340 C 0.3952 0.15903 0.39971 0.0
C2341 C 0.36956 0.14229 0.42182 0.0
C2342 C 0.41955 0.13733 0.37676 0.0
C2343 C 0.43752 0.17444 0.3616 0.0
N2344 N 0.38527 0.14137 0.40713 0.0
N2345 N 0.42151 0.17502 0.3759 0.0
H2346 H 0.12169 0.44469 0.62346 0.0
H2347 H 0.18411 0.34849 0.57022 0.0
H2348 H 0.18623 0.42708 0.63758 0.0
H2349 H 0.1196 0.36384 0.55351 0.0
H2350 H 0.18315 0.37516 0.5978 0.0
H2351 H 0.11857 0.41322 0.60074 0.0
C2352 C 0.13508 0.43408 0.62203 0.0
C2353 C 0.15435 0.43865 0.63221 0.0
C2354 C 0.16911 0.37272 0.58823 0.0
C2355 C 0.1509 0.40284 0.60633 0.0
C2356 C 0.16967 0.35747 0.57239 0.0
C2357 C 0.15199 0.35409 0.55933 0.0
C2358 C 0.1508 0.38499 0.59104 0.0
C2359 C 0.13362 0.36602 0.56316 0.0
C2360 C 0.13331 0.41619 0.60902 0.0
C2361 C 0.17117 0.42438 0.62981 0.0
N2362 N 0.13356 0.38116 0.57856 0.0
N2363 N 0.16909 0.40727 0.61705 0.0
H2364 H 0.6085 0.19617 0.55289 0.0
H2365 H 0.5355 0.12091 0.62405 0.0
H2366 H 0.61443 0.12804 0.55271 0.0
H2367 H 0.53448 0.18928 0.62596 0.0
H2368 H 0.56477 0.12262 0.59861 0.0
H2369 H 0.58142 0.19339 0.58002 0.0
C2370 C 0.6041 0.18058 0.55853 0.0
C2371 C 0.61375 0.1623 0.55042 0.0
C2372 C 0.55817 0.13721 0.60472 0.0
C2373 C 0.58258 0.15899 0.58171 0.0
C2374 C 0.5415 0.13625 0.61927 0.0
C2375 C 0.5324 0.15498 0.62708 0.0
C2376 C 0.56573 0.15702 0.59794 0.0
C2377 C 0.54085 0.17441 0.62032 0.0
C2378 C 0.58862 0.179 0.57412 0.0
C2379 C 0.60739 0.14255 0.55848 0.0
N2380 N 0.55692 0.1749 0.60611 0.0
N2381 N 0.59213 0.1414 0.57366 0.0
H2382 H 0.43467 0.79299 0.63935 0.0
H2383 H 0.36238 0.85822 0.55797 0.0
H2384 H 0.44224 0.86015 0.6288 0.0
H2385 H 0.35733 0.79097 0.56943 0.0
H2386 H 0.38983 0.86027 0.58549 0.0
H2387 H 0.4044 0.793 0.61555 0.0
C2388 C 0.42992 0.8078 0.63209 0.0
C2389 C 0.44116 0.82657 0.63598 0.0
C2390 C 0.38259 0.84512 0.58201 0.0
C2391 C 0.40637 0.82668 0.60845 0.0
C2392 C 0.36692 0.84393 0.56633 0.0
C2393 C 0.35763 0.82436 0.56125 0.0
C2394 C 0.38893 0.82661 0.59266 0.0
C2395 C 0.36412 0.80638 0.57263 0.0
C2396 C 0.41257 0.8078 0.61846 0.0
C2397 C 0.43408 0.84529 0.62621 0.0
N2398 N 0.37937 0.80795 0.58769 0.0
N2399 N 0.41721 0.84485 0.61275 0.0
loop_
_geom_bond_atom_site_label_1
_geom_bond_atom_site_label_2
_geom_bond_distance
_geom_bond_site_symmetry_2
_ccdc_geom_bond_type
C0 O1 1.306 . S
C0 O3 1.160 . S
O1 C0 1.306 . S
O1 Cd2 2.228 . S
Cd2 O1 2.228 . S
Cd2 O6 2.273 . S
Cd2 O10 2.277 . S
O3 C0 1.160 . S
O3 Cd4 2.203 . S
Cd4 O3 2.203 . S
Cd4 O6 2.411 . S
Cd4 O7 2.333 . S
Cd4 O8 2.352 . S
Cd4 O12 2.277 . S
Cd4 O13 2.356 . S
C5 O10 1.209 1_655 S
C5 O12 1.226 1_655 S
O6 Cd2 2.273 . S
O6 Cd4 2.411 . S
O6 C9 1.320 . S
O7 Cd4 2.333 . S
O7 C9 1.214 . S
O8 Cd4 2.352 . S
O8 C11 1.258 . S
C9 O6 1.320 . S
C9 O7 1.214 . S
O10 Cd2 2.277 . S
O10 C5 1.209 1_455 S
C11 O8 1.258 . S
C11 O13 1.282 . S
O12 Cd4 2.277 . S
O12 C5 1.226 1_455 S
O13 Cd4 2.356 . S
O13 C11 1.282 . S
C14 O15 1.306 . S
C14 O17 1.160 . S
O15 C14 1.306 . S
O15 Cd16 2.228 . S
Cd16 O15 2.228 . S
Cd16 O20 2.273 . S
Cd16 O24 2.277 . S
O17 C14 1.160 . S
O17 Cd18 2.203 . S
Cd18 O17 2.203 . S
Cd18 O20 2.411 . S
Cd18 O21 2.333 . S
Cd18 O22 2.352 . S
Cd18 O26 2.277 . S
Cd18 O27 2.356 . S
C19 O24 1.209 1_565 S
C19 O26 1.226 1_565 S
O20 Cd16 2.273 . S
O20 Cd18 2.411 . S
O20 C23 1.320 . S
O21 Cd18 2.333 . S
O21 C23 1.214 . S
O22 Cd18 2.352 . S
O22 C25 1.258 . S
C23 O20 1.320 . S
C23 O21 1.214 . S
O24 Cd16 2.277 . S
O24 C19 1.209 1_545 S
C25 O22 1.258 . S
C25 O27 1.282 . S
O26 Cd18 2.277 . S
O26 C19 1.226 1_545 S
O27 Cd18 2.356 . S
O27 C25 1.282 . S
C28 O29 1.306 . S
C28 O31 1.160 . S
O29 C28 1.306 . S
O29 Cd30 2.228 . S
Cd30 O29 2.228 . S
Cd30 O34 2.273 . S
Cd30 O38 2.277 . S
O31 C28 1.160 . S
O31 Cd32 2.203 . S
Cd32 O31 2.203 . S
Cd32 O34 2.411 . S
Cd32 O35 2.333 . S
Cd32 O36 2.352 . S
Cd32 O40 2.277 . S
Cd32 O41 2.356 . S
C33 O38 1.209 1_455 S
C33 O40 1.226 1_455 S
O34 Cd30 2.273 . S
O34 Cd32 2.411 . S
O34 C37 1.320 . S
O35 Cd32 2.333 . S
O35 C37 1.214 . S
O36 Cd32 2.352 . S
O36 C39 1.258 . S
C37 O34 1.320 . S
C37 O35 1.214 . S
O38 Cd30 2.277 . S
O38 C33 1.209 1_655 S
C39 O36 1.258 . S
C39 O41 1.282 . S
O40 Cd32 2.277 . S
O40 C33 1.226 1_655 S
O41 Cd32 2.356 . S
O41 C39 1.282 . S
C42 O43 1.306 . S
C42 O45 1.160 . S
O43 C42 1.306 . S
O43 Cd44 2.228 . S
Cd44 O43 2.228 . S
Cd44 O48 2.273 . S
Cd44 O52 2.277 . S
O45 C42 1.160 . S
O45 Cd46 2.203 . S
Cd46 O45 2.203 . S
Cd46 O48 2.411 . S
Cd46 O49 2.333 . S
Cd46 O50 2.352 . S
Cd46 O54 2.277 . S
Cd46 O55 2.356 . S
C47 O52 1.209 1_545 S
C47 O54 1.226 1_545 S
O48 Cd44 2.273 . S
O48 Cd46 2.411 . S
O48 C51 1.320 . S
O49 Cd46 2.333 . S
O49 C51 1.214 . S
O50 Cd46 2.352 . S
O50 C53 1.258 . S
C51 O48 1.320 . S
C51 O49 1.214 . S
O52 Cd44 2.277 . S
O52 C47 1.209 1_565 S
C53 O50 1.258 . S
C53 O55 1.282 . S
O54 Cd46 2.277 . S
O54 C47 1.226 1_565 S
O55 Cd46 2.356 . S
O55 C53 1.282 . S
C56 O57 1.306 . S
C56 O59 1.160 . S
O57 C56 1.306 . S
O57 Cd58 2.228 . S
Cd58 O57 2.228 . S
Cd58 O62 2.273 . S
Cd58 O66 2.277 . S
O59 C56 1.160 . S
O59 Cd60 2.203 . S
Cd60 O59 2.203 . S
Cd60 O62 2.411 . S
Cd60 O63 2.333 . S
Cd60 O64 2.352 . S
Cd60 O68 2.277 . S
Cd60 O69 2.356 . S
C61 O66 1.209 1_655 S
C61 O68 1.226 1_655 S
O62 Cd58 2.273 . S
O62 Cd60 2.411 . S
O62 C65 1.320 . S
O63 Cd60 2.333 . S
O63 C65 1.214 . S
O64 Cd60 2.352 . S
O64 C67 1.258 . S
C65 O62 1.320 . S
C65 O63 1.214 . S
O66 Cd58 2.277 . S
O66 C61 1.209 1_455 S
C67 O64 1.258 . S
C67 O69 1.282 . S
O68 Cd60 2.277 . S
O68 C61 1.226 1_455 S
O69 Cd60 2.356 . S
O69 C67 1.282 . S
C70 O71 1.306 . S
C70 O73 1.160 . S
O71 C70 1.306 . S
O71 Cd72 2.228 . S
Cd72 O71 2.228 . S
Cd72 O76 2.273 . S
Cd72 O80 2.277 . S
O73 C70 1.160 . S
O73 Cd74 2.203 . S
Cd74 O73 2.203 . S
Cd74 O76 2.411 . S
Cd74 O77 2.333 . S
Cd74 O78 2.352 . S
Cd74 O82 2.277 . S
Cd74 O83 2.356 . S
C75 O80 1.209 1_565 S
C75 O82 1.226 1_565 S
O76 Cd72 2.273 . S
O76 Cd74 2.411 . S
O76 C79 1.320 . S
O77 Cd74 2.333 . S
O77 C79 1.214 . S
O78 Cd74 2.352 . S
O78 C81 1.258 . S
C79 O76 1.320 . S
C79 O77 1.214 . S
O80 Cd72 2.277 . S
O80 C75 1.209 1_545 S
C81 O78 1.258 . S
C81 O83 1.282 . S
O82 Cd74 2.277 . S
O82 C75 1.226 1_545 S
O83 Cd74 2.356 . S
O83 C81 1.282 . S
C84 O85 1.306 . S
C84 O87 1.160 . S
O85 C84 1.306 . S
O85 Cd86 2.228 . S
Cd86 O85 2.228 . S
Cd86 O90 2.273 . S
Cd86 O94 2.277 . S
O87 C84 1.160 . S
O87 Cd88 2.203 . S
Cd88 O87 2.203 . S
Cd88 O90 2.411 . S
Cd88 O91 2.333 . S
Cd88 O92 2.352 . S
Cd88 O96 2.277 . S
Cd88 O97 2.356 . S
C89 O94 1.209 1_455 S
C89 O96 1.226 1_455 S
O90 Cd86 2.273 . S
O90 Cd88 2.411 . S
O90 C93 1.320 . S
O91 Cd88 2.333 . S
O91 C93 1.214 . S
O92 Cd88 2.352 . S
O92 C95 1.258 . S
C93 O90 1.320 . S
C93 O91 1.214 . S
O94 Cd86 2.277 . S
O94 C89 1.209 1_655 S
C95 O92 1.258 . S
C95 O97 1.282 . S
O96 Cd88 2.277 . S
O96 C89 1.226 1_655 S
O97 Cd88 2.356 . S
O97 C95 1.282 . S
C98 O99 1.306 . S
C98 O101 1.160 . S
O99 C98 1.306 . S
O99 Cd100 2.228 . S
Cd100 O99 2.228 . S
Cd100 O104 2.273 . S
Cd100 O108 2.277 . S
O101 C98 1.160 . S
O101 Cd102 2.203 . S
Cd102 O101 2.203 . S
Cd102 O104 2.411 . S
Cd102 O105 2.333 . S
Cd102 O106 2.352 . S
Cd102 O110 2.277 . S
Cd102 O111 2.356 . S
C103 O108 1.209 1_545 S
C103 O110 1.226 1_545 S
O104 Cd100 2.273 . S
O104 Cd102 2.411 . S
O104 C107 1.320 . S
O105 Cd102 2.333 . S
O105 C107 1.214 . S
O106 Cd102 2.352 . S
O106 C109 1.258 . S
C107 O104 1.320 . S
C107 O105 1.214 . S
O108 Cd100 2.277 . S
O108 C103 1.209 1_565 S
C109 O106 1.258 . S
C109 O111 1.282 . S
O110 Cd102 2.277 . S
O110 C103 1.226 1_565 S
O111 Cd102 2.356 . S
O111 C109 1.282 . S
C112 O113 1.306 . S
C112 O115 1.160 . S
O113 C112 1.306 . S
O113 Cd114 2.228 . S
Cd114 O113 2.228 . S
Cd114 O118 2.273 . S
Cd114 O122 2.277 . S
O115 C112 1.160 . S
O115 Cd116 2.203 . S
Cd116 O115 2.203 . S
Cd116 O118 2.411 . S
Cd116 O119 2.333 . S
Cd116 O120 2.352 . S
Cd116 O124 2.277 . S
Cd116 O125 2.356 . S
C117 O122 1.209 1_565 S
C117 O124 1.226 1_565 S
O118 Cd114 2.273 . S
O118 Cd116 2.411 . S
O118 C121 1.320 . S
O119 Cd116 2.333 . S
O119 C121 1.214 . S
O120 Cd116 2.352 . S
O120 C123 1.258 . S
C121 O118 1.320 . S
C121 O119 1.214 . S
O122 Cd114 2.277 . S
O122 C117 1.209 1_545 S
C123 O120 1.258 . S
C123 O125 1.282 . S
O124 Cd116 2.277 . S
O124 C117 1.226 1_545 S
O125 Cd116 2.356 . S
O125 C123 1.282 . S
C126 O127 1.306 . S
C126 O129 1.160 . S
O127 C126 1.306 . S
O127 Cd128 2.228 . S
Cd128 O127 2.228 . S
Cd128 O132 2.273 . S
Cd128 O136 2.277 . S
O129 C126 1.160 . S
O129 Cd130 2.203 . S
Cd130 O129 2.203 . S
Cd130 O132 2.411 . S
Cd130 O133 2.333 . S
Cd130 O134 2.352 . S
Cd130 O138 2.277 . S
Cd130 O139 2.356 . S
C131 O136 1.209 1_455 S
C131 O138 1.226 1_455 S
O132 Cd128 2.273 . S
O132 Cd130 2.411 . S
O132 C135 1.320 . S
O133 Cd130 2.333 . S
O133 C135 1.214 . S
O134 Cd130 2.352 . S
O134 C137 1.258 . S
C135 O132 1.320 . S
C135 O133 1.214 . S
O136 Cd128 2.277 . S
O136 C131 1.209 1_655 S
C137 O134 1.258 . S
C137 O139 1.282 . S
O138 Cd130 2.277 . S
O138 C131 1.226 1_655 S
O139 Cd130 2.356 . S
O139 C137 1.282 . S
C140 O141 1.306 . S
C140 O143 1.160 . S
O141 C140 1.306 . S
O141 Cd142 2.228 . S
Cd142 O141 2.228 . S
Cd142 O146 2.273 . S
Cd142 O150 2.277 . S
O143 C140 1.160 . S
O143 Cd144 2.203 . S
Cd144 O143 2.203 . S
Cd144 O146 2.411 . S
Cd144 O147 2.333 . S
Cd144 O148 2.352 . S
Cd144 O152 2.277 . S
Cd144 O153 2.356 . S
C145 O150 1.209 1_545 S
C145 O152 1.226 1_545 S
O146 Cd142 2.273 . S
O146 Cd144 2.411 . S
O146 C149 1.320 . S
O147 Cd144 2.333 . S
O147 C149 1.214 . S
O148 Cd144 2.352 . S
O148 C151 1.258 . S
C149 O146 1.320 . S
C149 O147 1.214 . S
O150 Cd142 2.277 . S
O150 C145 1.209 1_565 S
C151 O148 1.258 . S
C151 O153 1.282 . S
O152 Cd144 2.277 . S
O152 C145 1.226 1_565 S
O153 Cd144 2.356 . S
O153 C151 1.282 . S
C154 O155 1.306 . S
C154 O157 1.160 . S
O155 C154 1.306 . S
O155 Cd156 2.228 . S
Cd156 O155 2.228 . S
Cd156 O160 2.273 . S
Cd156 O164 2.277 . S
O157 C154 1.160 . S
O157 Cd158 2.203 . S
Cd158 O157 2.203 . S
Cd158 O160 2.411 . S
Cd158 O161 2.333 . S
Cd158 O162 2.352 . S
Cd158 O166 2.277 . S
Cd158 O167 2.356 . S
C159 O164 1.209 1_655 S
C159 O166 1.226 1_655 S
O160 Cd156 2.273 . S
O160 Cd158 2.411 . S
O160 C163 1.320 . S
O161 Cd158 2.333 . S
O161 C163 1.214 . S
O162 Cd158 2.352 . S
O162 C165 1.258 . S
C163 O160 1.320 . S
C163 O161 1.214 . S
O164 Cd156 2.277 . S
O164 C159 1.209 1_455 S
C165 O162 1.258 . S
C165 O167 1.282 . S
O166 Cd158 2.277 . S
O166 C159 1.226 1_455 S
O167 Cd158 2.356 . S
O167 C165 1.282 . S
C168 O169 1.306 . S
C168 O171 1.160 . S
O169 C168 1.306 . S
O169 Cd170 2.228 . S
Cd170 O169 2.228 . S
Cd170 O174 2.273 . S
Cd170 O178 2.277 . S
O171 C168 1.160 . S
O171 Cd172 2.203 . S
Cd172 O171 2.203 . S
Cd172 O174 2.411 . S
Cd172 O175 2.333 . S
Cd172 O176 2.352 . S
Cd172 O180 2.277 . S
Cd172 O181 2.356 . S
C173 O178 1.209 1_545 S
C173 O180 1.226 1_545 S
O174 Cd170 2.273 . S
O174 Cd172 2.411 . S
O174 C177 1.320 . S
O175 Cd172 2.333 . S
O175 C177 1.214 . S
O176 Cd172 2.352 . S
O176 C179 1.258 . S
C177 O174 1.320 . S
C177 O175 1.214 . S
O178 Cd170 2.277 . S
O178 C173 1.209 1_565 S
C179 O176 1.258 . S
C179 O181 1.282 . S
O180 Cd172 2.277 . S
O180 C173 1.226 1_565 S
O181 Cd172 2.356 . S
O181 C179 1.282 . S
C182 O183 1.306 . S
C182 O185 1.160 . S
O183 C182 1.306 . S
O183 Cd184 2.228 . S
Cd184 O183 2.228 . S
Cd184 O188 2.273 . S
Cd184 O192 2.277 . S
O185 C182 1.160 . S
O185 Cd186 2.203 . S
Cd186 O185 2.203 . S
Cd186 O188 2.411 . S
Cd186 O189 2.333 . S
Cd186 O190 2.352 . S
Cd186 O194 2.277 . S
Cd186 O195 2.356 . S
C187 O192 1.209 1_655 S
C187 O194 1.226 1_655 S
O188 Cd184 2.273 . S
O188 Cd186 2.411 . S
O188 C191 1.320 . S
O189 Cd186 2.333 . S
O189 C191 1.214 . S
O190 Cd186 2.352 . S
O190 C193 1.258 . S
C191 O188 1.320 . S
C191 O189 1.214 . S
O192 Cd184 2.277 . S
O192 C187 1.209 1_455 S
C193 O190 1.258 . S
C193 O195 1.282 . S
O194 Cd186 2.277 . S
O194 C187 1.226 1_455 S
O195 Cd186 2.356 . S
O195 C193 1.282 . S
C196 O197 1.306 . S
C196 O199 1.160 . S
O197 C196 1.306 . S
O197 Cd198 2.228 . S
Cd198 O197 2.228 . S
Cd198 O202 2.273 . S
Cd198 O206 2.277 . S
O199 C196 1.160 . S
O199 Cd200 2.203 . S
Cd200 O199 2.203 . S
Cd200 O202 2.411 . S
Cd200 O203 2.333 . S
Cd200 O204 2.352 . S
Cd200 O208 2.277 . S
Cd200 O209 2.356 . S
C201 O206 1.209 1_565 S
C201 O208 1.226 1_565 S
O202 Cd198 2.273 . S
O202 Cd200 2.411 . S
O202 C205 1.320 . S
O203 Cd200 2.333 . S
O203 C205 1.214 . S
O204 Cd200 2.352 . S
O204 C207 1.258 . S
C205 O202 1.320 . S
C205 O203 1.214 . S
O206 Cd198 2.277 . S
O206 C201 1.209 1_545 S
C207 O204 1.258 . S
C207 O209 1.282 . S
O208 Cd200 2.277 . S
O208 C201 1.226 1_545 S
O209 Cd200 2.356 . S
O209 C207 1.282 . S
C210 O211 1.306 . S
C210 O213 1.160 . S
O211 C210 1.306 . S
O211 Cd212 2.228 . S
Cd212 O211 2.228 . S
Cd212 O216 2.273 . S
Cd212 O220 2.277 . S
O213 C210 1.160 . S
O213 Cd214 2.203 . S
Cd214 O213 2.203 . S
Cd214 O216 2.411 . S
Cd214 O217 2.333 . S
Cd214 O218 2.352 . S
Cd214 O222 2.277 . S
Cd214 O223 2.356 . S
C215 O220 1.209 1_455 S
C215 O222 1.226 1_455 S
O216 Cd212 2.273 . S
O216 Cd214 2.411 . S
O216 C219 1.320 . S
O217 Cd214 2.333 . S
O217 C219 1.214 . S
O218 Cd214 2.352 . S
O218 C221 1.258 . S
C219 O216 1.320 . S
C219 O217 1.214 . S
O220 Cd212 2.277 . S
O220 C215 1.209 1_655 S
C221 O218 1.258 . S
C221 O223 1.282 . S
O222 Cd214 2.277 . S
O222 C215 1.226 1_655 S
O223 Cd214 2.356 . S
O223 C221 1.282 . S
C224 O225 1.306 . S
C224 O227 1.160 . S
O225 C224 1.306 . S
O225 Cd226 2.228 . S
Cd226 O225 2.228 . S
Cd226 O230 2.273 . S
Cd226 O234 2.277 . S
O227 C224 1.160 . S
O227 Cd228 2.203 . S
Cd228 O227 2.203 . S
Cd228 O230 2.411 . S
Cd228 O231 2.333 . S
Cd228 O232 2.352 . S
Cd228 O236 2.277 . S
Cd228 O237 2.356 . S
C229 O234 1.209 1_556 S
C229 O236 1.226 1_556 S
O230 Cd226 2.273 . S
O230 Cd228 2.411 . S
O230 C233 1.320 . S
O231 Cd228 2.333 . S
O231 C233 1.214 . S
O232 Cd228 2.352 . S
O232 C235 1.258 . S
C233 O230 1.320 . S
C233 O231 1.214 . S
O234 Cd226 2.277 . S
O234 C229 1.209 1_554 S
C235 O232 1.258 . S
C235 O237 1.282 . S
O236 Cd228 2.277 . S
O236 C229 1.226 1_554 S
O237 Cd228 2.356 . S
O237 C235 1.282 . S
C238 O239 1.306 . S
C238 O241 1.160 . S
O239 C238 1.306 . S
O239 Cd240 2.228 . S
Cd240 O239 2.228 . S
Cd240 O244 2.273 . S
Cd240 O248 2.277 . S
O241 C238 1.160 . S
O241 Cd242 2.203 . S
Cd242 O241 2.203 . S
Cd242 O244 2.411 . S
Cd242 O245 2.333 . S
Cd242 O246 2.352 . S
Cd242 O250 2.277 . S
Cd242 O251 2.356 . S
C243 O248 1.209 1_554 S
C243 O250 1.226 1_554 S
O244 Cd240 2.273 . S
O244 Cd242 2.411 . S
O244 C247 1.320 . S
O245 Cd242 2.333 . S
O245 C247 1.214 . S
O246 Cd242 2.352 . S
O246 C249 1.258 . S
C247 O244 1.320 . S
C247 O245 1.214 . S
O248 Cd240 2.277 . S
O248 C243 1.209 1_556 S
C249 O246 1.258 . S
C249 O251 1.282 . S
O250 Cd242 2.277 . S
O250 C243 1.226 1_556 S
O251 Cd242 2.356 . S
O251 C249 1.282 . S
C252 O253 1.306 . S
C252 O255 1.160 . S
O253 C252 1.306 . S
O253 Cd254 2.228 . S
Cd254 O253 2.228 . S
Cd254 O258 2.273 . S
Cd254 O262 2.277 . S
O255 C252 1.160 . S
O255 Cd256 2.203 . S
Cd256 O255 2.203 . S
Cd256 O258 2.411 . S
Cd256 O259 2.333 . S
Cd256 O260 2.352 . S
Cd256 O264 2.277 . S
Cd256 O265 2.356 . S
C257 O262 1.209 1_554 S
C257 O264 1.226 1_554 S
O258 Cd254 2.273 . S
O258 Cd256 2.411 . S
O258 C261 1.320 . S
O259 Cd256 2.333 . S
O259 C261 1.214 . S
O260 Cd256 2.352 . S
O260 C263 1.258 . S
C261 O258 1.320 . S
C261 O259 1.214 . S
O262 Cd254 2.277 . S
O262 C257 1.209 1_556 S
C263 O260 1.258 . S
C263 O265 1.282 . S
O264 Cd256 2.277 . S
O264 C257 1.226 1_556 S
O265 Cd256 2.356 . S
O265 C263 1.282 . S
C266 O267 1.306 . S
C266 O269 1.160 . S
O267 C266 1.306 . S
O267 Cd268 2.228 . S
Cd268 O267 2.228 . S
Cd268 O272 2.273 . S
Cd268 O276 2.277 . S
O269 C266 1.160 . S
O269 Cd270 2.203 . S
Cd270 O269 2.203 . S
Cd270 O272 2.411 . S
Cd270 O273 2.333 . S
Cd270 O274 2.352 . S
Cd270 O278 2.277 . S
Cd270 O279 2.356 . S
C271 O276 1.209 1_554 S
C271 O278 1.226 1_554 S
O272 Cd268 2.273 . S
O272 Cd270 2.411 . S
O272 C275 1.320 . S
O273 Cd270 2.333 . S
O273 C275 1.214 . S
O274 Cd270 2.352 . S
O274 C277 1.258 . S
C275 O272 1.320 . S
C275 O273 1.214 . S
O276 Cd268 2.277 . S
O276 C271 1.209 1_556 S
C277 O274 1.258 . S
C277 O279 1.282 . S
O278 Cd270 2.277 . S
O278 C271 1.226 1_556 S
O279 Cd270 2.356 . S
O279 C277 1.282 . S
C280 O281 1.306 . S
C280 O283 1.160 . S
O281 C280 1.306 . S
O281 Cd282 2.228 . S
Cd282 O281 2.228 . S
Cd282 O286 2.273 . S
Cd282 O290 2.277 . S
O283 C280 1.160 . S
O283 Cd284 2.203 . S
Cd284 O283 2.203 . S
Cd284 O286 2.411 . S
Cd284 O287 2.333 . S
Cd284 O288 2.352 . S
Cd284 O292 2.277 . S
Cd284 O293 2.356 . S
C285 O290 1.209 1_554 S
C285 O292 1.226 1_554 S
O286 Cd282 2.273 . S
O286 Cd284 2.411 . S
O286 C289 1.320 . S
O287 Cd284 2.333 . S
O287 C289 1.214 . S
O288 Cd284 2.352 . S
O288 C291 1.258 . S
C289 O286 1.320 . S
C289 O287 1.214 . S
O290 Cd282 2.277 . S
O290 C285 1.209 1_556 S
C291 O288 1.258 . S
C291 O293 1.282 . S
O292 Cd284 2.277 . S
O292 C285 1.226 1_556 S
O293 Cd284 2.356 . S
O293 C291 1.282 . S
C294 O295 1.306 . S
C294 O297 1.160 . S
O295 C294 1.306 . S
O295 Cd296 2.228 . S
Cd296 O295 2.228 . S
Cd296 O300 2.273 . S
Cd296 O304 2.277 . S
O297 C294 1.160 . S
O297 Cd298 2.203 . S
Cd298 O297 2.203 . S
Cd298 O300 2.411 . S
Cd298 O301 2.333 . S
Cd298 O302 2.352 . S
Cd298 O306 2.277 . S
Cd298 O307 2.356 . S
C299 O304 1.209 1_556 S
C299 O306 1.226 1_556 S
O300 Cd296 2.273 . S
O300 Cd298 2.411 . S
O300 C303 1.320 . S
O301 Cd298 2.333 . S
O301 C303 1.214 . S
O302 Cd298 2.352 . S
O302 C305 1.258 . S
C303 O300 1.320 . S
C303 O301 1.214 . S
O304 Cd296 2.277 . S
O304 C299 1.209 1_554 S
C305 O302 1.258 . S
C305 O307 1.282 . S
O306 Cd298 2.277 . S
O306 C299 1.226 1_554 S
O307 Cd298 2.356 . S
O307 C305 1.282 . S
C308 O309 1.306 . S
C308 O311 1.160 . S
O309 C308 1.306 . S
O309 Cd310 2.228 . S
Cd310 O309 2.228 . S
Cd310 O314 2.273 . S
Cd310 O318 2.277 . S
O311 C308 1.160 . S
O311 Cd312 2.203 . S
Cd312 O311 2.203 . S
Cd312 O314 2.411 . S
Cd312 O315 2.333 . S
Cd312 O316 2.352 . S
Cd312 O320 2.277 . S
Cd312 O321 2.356 . S
C313 O318 1.209 1_556 S
C313 O320 1.226 1_556 S
O314 Cd310 2.273 . S
O314 Cd312 2.411 . S
O314 C317 1.320 . S
O315 Cd312 2.333 . S
O315 C317 1.214 . S
O316 Cd312 2.352 . S
O316 C319 1.258 . S
C317 O314 1.320 . S
C317 O315 1.214 . S
O318 Cd310 2.277 . S
O318 C313 1.209 1_554 S
C319 O316 1.258 . S
C319 O321 1.282 . S
O320 Cd312 2.277 . S
O320 C313 1.226 1_554 S
O321 Cd312 2.356 . S
O321 C319 1.282 . S
C322 O323 1.306 . S
C322 O325 1.160 . S
O323 C322 1.306 . S
O323 Cd324 2.228 . S
Cd324 O323 2.228 . S
Cd324 O328 2.273 . S
Cd324 O332 2.277 . S
O325 C322 1.160 . S
O325 Cd326 2.203 . S
Cd326 O325 2.203 . S
Cd326 O328 2.411 . S
Cd326 O329 2.333 . S
Cd326 O330 2.352 . S
Cd326 O334 2.277 . S
Cd326 O335 2.356 . S
C327 O332 1.209 1_556 S
C327 O334 1.226 1_556 S
O328 Cd324 2.273 . S
O328 Cd326 2.411 . S
O328 C331 1.320 . S
O329 Cd326 2.333 . S
O329 C331 1.214 . S
O330 Cd326 2.352 . S
O330 C333 1.258 . S
C331 O328 1.320 . S
C331 O329 1.214 . S
O332 Cd324 2.277 . S
O332 C327 1.209 1_554 S
C333 O330 1.258 . S
C333 O335 1.282 . S
O334 Cd326 2.277 . S
O334 C327 1.226 1_554 S
O335 Cd326 2.356 . S
O335 C333 1.282 . S
C336 O337 1.306 . S
C336 O339 1.160 . S
O337 C336 1.306 . S
O337 Cd338 2.228 . S
Cd338 O337 2.228 . S
Cd338 O342 2.273 . S
Cd338 O346 2.277 . S
O339 C336 1.160 . S
O339 Cd340 2.203 . S
Cd340 O339 2.203 . S
Cd340 O342 2.411 . S
Cd340 O343 2.333 . S
Cd340 O344 2.352 . S
Cd340 O348 2.277 . S
Cd340 O349 2.356 . S
C341 O346 1.209 . S
C341 O348 1.226 . S
O342 Cd338 2.273 . S
O342 Cd340 2.411 . S
O342 C345 1.320 . S
O343 Cd340 2.333 . S
O343 C345 1.214 . S
O344 Cd340 2.352 . S
O344 C347 1.258 . S
C345 O342 1.320 . S
C345 O343 1.214 . S
O346 Cd338 2.277 . S
O346 C341 1.209 . S
C347 O344 1.258 . S
C347 O349 1.282 . S
O348 Cd340 2.277 . S
O348 C341 1.226 . S
O349 Cd340 2.356 . S
O349 C347 1.282 . S
C350 O351 1.306 . S
C350 O353 1.160 . S
O351 C350 1.306 . S
O351 Cd352 2.228 . S
Cd352 O351 2.228 . S
Cd352 O356 2.273 . S
Cd352 O360 2.277 . S
O353 C350 1.160 . S
O353 Cd354 2.203 . S
Cd354 O353 2.203 . S
Cd354 O356 2.411 . S
Cd354 O357 2.333 . S
Cd354 O358 2.352 . S
Cd354 O362 2.277 . S
Cd354 O363 2.356 . S
C355 O360 1.209 . S
C355 O362 1.226 . S
O356 Cd352 2.273 . S
O356 Cd354 2.411 . S
O356 C359 1.320 . S
O357 Cd354 2.333 . S
O357 C359 1.214 . S
O358 Cd354 2.352 . S
O358 C361 1.258 . S
C359 O356 1.320 . S
C359 O357 1.214 . S
O360 Cd352 2.277 . S
O360 C355 1.209 . S
C361 O358 1.258 . S
C361 O363 1.282 . S
O362 Cd354 2.277 . S
O362 C355 1.226 . S
O363 Cd354 2.356 . S
O363 C361 1.282 . S
C364 O365 1.306 . S
C364 O367 1.160 . S
O365 C364 1.306 . S
O365 Cd366 2.228 . S
Cd366 O365 2.228 . S
Cd366 O370 2.273 . S
Cd366 O374 2.277 . S
O367 C364 1.160 . S
O367 Cd368 2.203 . S
Cd368 O367 2.203 . S
Cd368 O370 2.411 . S
Cd368 O371 2.333 . S
Cd368 O372 2.352 . S
Cd368 O376 2.277 . S
Cd368 O377 2.356 . S
C369 O374 1.209 . S
C369 O376 1.226 . S
O370 Cd366 2.273 . S
O370 Cd368 2.411 . S
O370 C373 1.320 . S
O371 Cd368 2.333 . S
O371 C373 1.214 . S
O372 Cd368 2.352 . S
O372 C375 1.258 . S
C373 O370 1.320 . S
C373 O371 1.214 . S
O374 Cd366 2.277 . S
O374 C369 1.209 . S
C375 O372 1.258 . S
C375 O377 1.282 . S
O376 Cd368 2.277 . S
O376 C369 1.226 . S
O377 Cd368 2.356 . S
O377 C375 1.282 . S
C378 O379 1.306 . S
C378 O381 1.160 . S
O379 C378 1.306 . S
O379 Cd380 2.228 . S
Cd380 O379 2.228 . S
Cd380 O384 2.273 . S
Cd380 O388 2.277 . S
O381 C378 1.160 . S
O381 Cd382 2.203 . S
Cd382 O381 2.203 . S
Cd382 O384 2.411 . S
Cd382 O385 2.333 . S
Cd382 O386 2.352 . S
Cd382 O390 2.277 . S
Cd382 O391 2.356 . S
C383 O388 1.209 . S
C383 O390 1.226 . S
O384 Cd380 2.273 . S
O384 Cd382 2.411 . S
O384 C387 1.320 . S
O385 Cd382 2.333 . S
O385 C387 1.214 . S
O386 Cd382 2.352 . S
O386 C389 1.258 . S
C387 O384 1.320 . S
C387 O385 1.214 . S
O388 Cd380 2.277 . S
O388 C383 1.209 . S
C389 O386 1.258 . S
C389 O391 1.282 . S
O390 Cd382 2.277 . S
O390 C383 1.226 . S
O391 Cd382 2.356 . S
O391 C389 1.282 . S
C392 O393 1.306 . S
C392 O395 1.160 . S
O393 C392 1.306 . S
O393 Cd394 2.228 . S
Cd394 O393 2.228 . S
Cd394 O398 2.273 . S
Cd394 O402 2.277 . S
O395 C392 1.160 . S
O395 Cd396 2.203 . S
Cd396 O395 2.203 . S
Cd396 O398 2.411 . S
Cd396 O399 2.333 . S
Cd396 O400 2.352 . S
Cd396 O404 2.277 . S
Cd396 O405 2.356 . S
C397 O402 1.209 . S
C397 O404 1.226 . S
O398 Cd394 2.273 . S
O398 Cd396 2.411 . S
O398 C401 1.320 . S
O399 Cd396 2.333 . S
O399 C401 1.214 . S
O400 Cd396 2.352 . S
O400 C403 1.258 . S
C401 O398 1.320 . S
C401 O399 1.214 . S
O402 Cd394 2.277 . S
O402 C397 1.209 . S
C403 O400 1.258 . S
C403 O405 1.282 . S
O404 Cd396 2.277 . S
O404 C397 1.226 . S
O405 Cd396 2.356 . S
O405 C403 1.282 . S
C406 O407 1.306 . S
C406 O409 1.160 . S
O407 C406 1.306 . S
O407 Cd408 2.228 . S
Cd408 O407 2.228 . S
Cd408 O412 2.273 . S
Cd408 O416 2.277 . S
O409 C406 1.160 . S
O409 Cd410 2.203 . S
Cd410 O409 2.203 . S
Cd410 O412 2.411 . S
Cd410 O413 2.333 . S
Cd410 O414 2.352 . S
Cd410 O418 2.277 . S
Cd410 O419 2.356 . S
C411 O416 1.209 . S
C411 O418 1.226 . S
O412 Cd408 2.273 . S
O412 Cd410 2.411 . S
O412 C415 1.320 . S
O413 Cd410 2.333 . S
O413 C415 1.214 . S
O414 Cd410 2.352 . S
O414 C417 1.258 . S
C415 O412 1.320 . S
C415 O413 1.214 . S
O416 Cd408 2.277 . S
O416 C411 1.209 . S
C417 O414 1.258 . S
C417 O419 1.282 . S
O418 Cd410 2.277 . S
O418 C411 1.226 . S
O419 Cd410 2.356 . S
O419 C417 1.282 . S
C420 O421 1.306 . S
C420 O423 1.160 . S
O421 C420 1.306 . S
O421 Cd422 2.228 . S
Cd422 O421 2.228 . S
Cd422 O426 2.273 . S
Cd422 O430 2.277 . S
O423 C420 1.160 . S
O423 Cd424 2.203 . S
Cd424 O423 2.203 . S
Cd424 O426 2.411 . S
Cd424 O427 2.333 . S
Cd424 O428 2.352 . S
Cd424 O432 2.277 . S
Cd424 O433 2.356 . S
C425 O430 1.209 . S
C425 O432 1.226 . S
O426 Cd422 2.273 . S
O426 Cd424 2.411 . S
O426 C429 1.320 . S
O427 Cd424 2.333 . S
O427 C429 1.214 . S
O428 Cd424 2.352 . S
O428 C431 1.258 . S
C429 O426 1.320 . S
C429 O427 1.214 . S
O430 Cd422 2.277 . S
O430 C425 1.209 . S
C431 O428 1.258 . S
C431 O433 1.282 . S
O432 Cd424 2.277 . S
O432 C425 1.226 . S
O433 Cd424 2.356 . S
O433 C431 1.282 . S
C434 O435 1.306 . S
C434 O437 1.160 . S
O435 C434 1.306 . S
O435 Cd436 2.228 . S
Cd436 O435 2.228 . S
Cd436 O440 2.273 . S
Cd436 O444 2.277 . S
O437 C434 1.160 . S
O437 Cd438 2.203 . S
Cd438 O437 2.203 . S
Cd438 O440 2.411 . S
Cd438 O441 2.333 . S
Cd438 O442 2.352 . S
Cd438 O446 2.277 . S
Cd438 O447 2.356 . S
C439 O444 1.209 . S
C439 O446 1.226 . S
O440 Cd436 2.273 . S
O440 Cd438 2.411 . S
O440 C443 1.320 . S
O441 Cd438 2.333 . S
O441 C443 1.214 . S
O442 Cd438 2.352 . S
O442 C445 1.258 . S
C443 O440 1.320 . S
C443 O441 1.214 . S
O444 Cd436 2.277 . S
O444 C439 1.209 . S
C445 O442 1.258 . S
C445 O447 1.282 . S
O446 Cd438 2.277 . S
O446 C439 1.226 . S
O447 Cd438 2.356 . S
O447 C445 1.282 . S
C448 O449 1.306 . S
C448 O451 1.160 . S
O449 C448 1.306 . S
O449 Cd450 2.228 . S
Cd450 O449 2.228 . S
Cd450 O454 2.273 . S
Cd450 O458 2.277 . S
O451 C448 1.160 . S
O451 Cd452 2.203 . S
Cd452 O451 2.203 . S
Cd452 O454 2.411 . S
Cd452 O455 2.333 . S
Cd452 O456 2.352 . S
Cd452 O460 2.277 . S
Cd452 O461 2.356 . S
C453 O458 1.209 . S
C453 O460 1.226 . S
O454 Cd450 2.273 . S
O454 Cd452 2.411 . S
O454 C457 1.320 . S
O455 Cd452 2.333 . S
O455 C457 1.214 . S
O456 Cd452 2.352 . S
O456 C459 1.258 . S
C457 O454 1.320 . S
C457 O455 1.214 . S
O458 Cd450 2.277 . S
O458 C453 1.209 . S
C459 O456 1.258 . S
C459 O461 1.282 . S
O460 Cd452 2.277 . S
O460 C453 1.226 . S
O461 Cd452 2.356 . S
O461 C459 1.282 . S
C462 O463 1.306 . S
C462 O465 1.160 . S
O463 C462 1.306 . S
O463 Cd464 2.228 . S
Cd464 O463 2.228 . S
Cd464 O468 2.273 . S
Cd464 O472 2.277 . S
O465 C462 1.160 . S
O465 Cd466 2.203 . S
Cd466 O465 2.203 . S
Cd466 O468 2.411 . S
Cd466 O469 2.333 . S
Cd466 O470 2.352 . S
Cd466 O474 2.277 . S
Cd466 O475 2.356 . S
C467 O472 1.209 . S
C467 O474 1.226 . S
O468 Cd464 2.273 . S
O468 Cd466 2.411 . S
O468 C471 1.320 . S
O469 Cd466 2.333 . S
O469 C471 1.214 . S
O470 Cd466 2.352 . S
O470 C473 1.258 . S
C471 O468 1.320 . S
C471 O469 1.214 . S
O472 Cd464 2.277 . S
O472 C467 1.209 . S
C473 O470 1.258 . S
C473 O475 1.282 . S
O474 Cd466 2.277 . S
O474 C467 1.226 . S
O475 Cd466 2.356 . S
O475 C473 1.282 . S
C476 O477 1.306 . S
C476 O479 1.160 . S
O477 C476 1.306 . S
O477 Cd478 2.228 . S
Cd478 O477 2.228 . S
Cd478 O482 2.273 . S
Cd478 O486 2.277 . S
O479 C476 1.160 . S
O479 Cd480 2.203 . S
Cd480 O479 2.203 . S
Cd480 O482 2.411 . S
Cd480 O483 2.333 . S
Cd480 O484 2.352 . S
Cd480 O488 2.277 . S
Cd480 O489 2.356 . S
C481 O486 1.209 . S
C481 O488 1.226 . S
O482 Cd478 2.273 . S
O482 Cd480 2.411 . S
O482 C485 1.320 . S
O483 Cd480 2.333 . S
O483 C485 1.214 . S
O484 Cd480 2.352 . S
O484 C487 1.258 . S
C485 O482 1.320 . S
C485 O483 1.214 . S
O486 Cd478 2.277 . S
O486 C481 1.209 . S
C487 O484 1.258 . S
C487 O489 1.282 . S
O488 Cd480 2.277 . S
O488 C481 1.226 . S
O489 Cd480 2.356 . S
O489 C487 1.282 . S
C490 O491 1.306 . S
C490 O493 1.160 . S
O491 C490 1.306 . S
O491 Cd492 2.228 . S
Cd492 O491 2.228 . S
Cd492 O496 2.273 . S
Cd492 O500 2.277 . S
O493 C490 1.160 . S
O493 Cd494 2.203 . S
Cd494 O493 2.203 . S
Cd494 O496 2.411 . S
Cd494 O497 2.333 . S
Cd494 O498 2.352 . S
Cd494 O502 2.277 . S
Cd494 O503 2.356 . S
C495 O500 1.209 . S
C495 O502 1.226 . S
O496 Cd492 2.273 . S
O496 Cd494 2.411 . S
O496 C499 1.320 . S
O497 Cd494 2.333 . S
O497 C499 1.214 . S
O498 Cd494 2.352 . S
O498 C501 1.258 . S
C499 O496 1.320 . S
C499 O497 1.214 . S
O500 Cd492 2.277 . S
O500 C495 1.209 . S
C501 O498 1.258 . S
C501 O503 1.282 . S
O502 Cd494 2.277 . S
O502 C495 1.226 . S
O503 Cd494 2.356 . S
O503 C501 1.282 . S
C504 O505 1.306 . S
C504 O507 1.160 . S
O505 C504 1.306 . S
O505 Cd506 2.228 . S
Cd506 O505 2.228 . S
Cd506 O510 2.273 . S
Cd506 O514 2.277 . S
O507 C504 1.160 . S
O507 Cd508 2.203 . S
Cd508 O507 2.203 . S
Cd508 O510 2.411 . S
Cd508 O511 2.333 . S
Cd508 O512 2.352 . S
Cd508 O516 2.277 . S
Cd508 O517 2.356 . S
C509 O514 1.209 . S
C509 O516 1.226 . S
O510 Cd506 2.273 . S
O510 Cd508 2.411 . S
O510 C513 1.320 . S
O511 Cd508 2.333 . S
O511 C513 1.214 . S
O512 Cd508 2.352 . S
O512 C515 1.258 . S
C513 O510 1.320 . S
C513 O511 1.214 . S
O514 Cd506 2.277 . S
O514 C509 1.209 . S
C515 O512 1.258 . S
C515 O517 1.282 . S
O516 Cd508 2.277 . S
O516 C509 1.226 . S
O517 Cd508 2.356 . S
O517 C515 1.282 . S
C518 O519 1.306 . S
C518 O521 1.160 . S
O519 C518 1.306 . S
O519 Cd520 2.228 . S
Cd520 O519 2.228 . S
Cd520 O524 2.273 . S
Cd520 O528 2.277 . S
O521 C518 1.160 . S
O521 Cd522 2.203 . S
Cd522 O521 2.203 . S
Cd522 O524 2.411 . S
Cd522 O525 2.333 . S
Cd522 O526 2.352 . S
Cd522 O530 2.277 . S
Cd522 O531 2.356 . S
C523 O528 1.209 . S
C523 O530 1.226 . S
O524 Cd520 2.273 . S
O524 Cd522 2.411 . S
O524 C527 1.320 . S
O525 Cd522 2.333 . S
O525 C527 1.214 . S
O526 Cd522 2.352 . S
O526 C529 1.258 . S
C527 O524 1.320 . S
C527 O525 1.214 . S
O528 Cd520 2.277 . S
O528 C523 1.209 . S
C529 O526 1.258 . S
C529 O531 1.282 . S
O530 Cd522 2.277 . S
O530 C523 1.226 . S
O531 Cd522 2.356 . S
O531 C529 1.282 . S
C532 O533 1.306 . S
C532 O535 1.160 . S
O533 C532 1.306 . S
O533 Cd534 2.228 . S
Cd534 O533 2.228 . S
Cd534 O538 2.273 . S
Cd534 O542 2.277 . S
O535 C532 1.160 . S
O535 Cd536 2.203 . S
Cd536 O535 2.203 . S
Cd536 O538 2.411 . S
Cd536 O539 2.333 . S
Cd536 O540 2.352 . S
Cd536 O544 2.277 . S
Cd536 O545 2.356 . S
C537 O542 1.209 . S
C537 O544 1.226 . S
O538 Cd534 2.273 . S
O538 Cd536 2.411 . S
O538 C541 1.320 . S
O539 Cd536 2.333 . S
O539 C541 1.214 . S
O540 Cd536 2.352 . S
O540 C543 1.258 . S
C541 O538 1.320 . S
C541 O539 1.214 . S
O542 Cd534 2.277 . S
O542 C537 1.209 . S
C543 O540 1.258 . S
C543 O545 1.282 . S
O544 Cd536 2.277 . S
O544 C537 1.226 . S
O545 Cd536 2.356 . S
O545 C543 1.282 . S
C546 O547 1.306 . S
C546 O549 1.160 . S
O547 C546 1.306 . S
O547 Cd548 2.228 . S
Cd548 O547 2.228 . S
Cd548 O552 2.273 . S
Cd548 O556 2.277 . S
O549 C546 1.160 . S
O549 Cd550 2.203 . S
Cd550 O549 2.203 . S
Cd550 O552 2.411 . S
Cd550 O553 2.333 . S
Cd550 O554 2.352 . S
Cd550 O558 2.277 . S
Cd550 O559 2.356 . S
C551 O556 1.209 . S
C551 O558 1.226 . S
O552 Cd548 2.273 . S
O552 Cd550 2.411 . S
O552 C555 1.320 . S
O553 Cd550 2.333 . S
O553 C555 1.214 . S
O554 Cd550 2.352 . S
O554 C557 1.258 . S
C555 O552 1.320 . S
C555 O553 1.214 . S
O556 Cd548 2.277 . S
O556 C551 1.209 . S
C557 O554 1.258 . S
C557 O559 1.282 . S
O558 Cd550 2.277 . S
O558 C551 1.226 . S
O559 Cd550 2.356 . S
O559 C557 1.282 . S
C560 O561 1.306 . S
C560 O563 1.160 . S
O561 C560 1.306 . S
O561 Cd562 2.228 . S
Cd562 O561 2.228 . S
Cd562 O566 2.273 . S
Cd562 O570 2.277 . S
O563 C560 1.160 . S
O563 Cd564 2.203 . S
Cd564 O563 2.203 . S
Cd564 O566 2.411 . S
Cd564 O567 2.333 . S
Cd564 O568 2.352 . S
Cd564 O572 2.277 . S
Cd564 O573 2.356 . S
C565 O570 1.209 . S
C565 O572 1.226 . S
O566 Cd562 2.273 . S
O566 Cd564 2.411 . S
O566 C569 1.320 . S
O567 Cd564 2.333 . S
O567 C569 1.214 . S
O568 Cd564 2.352 . S
O568 C571 1.258 . S
C569 O566 1.320 . S
C569 O567 1.214 . S
O570 Cd562 2.277 . S
O570 C565 1.209 . S
C571 O568 1.258 . S
C571 O573 1.282 . S
O572 Cd564 2.277 . S
O572 C565 1.226 . S
O573 Cd564 2.356 . S
O573 C571 1.282 . S
C574 O575 1.306 . S
C574 O577 1.160 . S
O575 C574 1.306 . S
O575 Cd576 2.228 . S
Cd576 O575 2.228 . S
Cd576 O580 2.273 . S
Cd576 O584 2.277 . S
O577 C574 1.160 . S
O577 Cd578 2.203 . S
Cd578 O577 2.203 . S
Cd578 O580 2.411 . S
Cd578 O581 2.333 . S
Cd578 O582 2.352 . S
Cd578 O586 2.277 . S
Cd578 O587 2.356 . S
C579 O584 1.209 . S
C579 O586 1.226 . S
O580 Cd576 2.273 . S
O580 Cd578 2.411 . S
O580 C583 1.320 . S
O581 Cd578 2.333 . S
O581 C583 1.214 . S
O582 Cd578 2.352 . S
O582 C585 1.258 . S
C583 O580 1.320 . S
C583 O581 1.214 . S
O584 Cd576 2.277 . S
O584 C579 1.209 . S
C585 O582 1.258 . S
C585 O587 1.282 . S
O586 Cd578 2.277 . S
O586 C579 1.226 . S
O587 Cd578 2.356 . S
O587 C585 1.282 . S
C588 O589 1.306 . S
C588 O591 1.160 . S
O589 C588 1.306 . S
O589 Cd590 2.228 . S
Cd590 O589 2.228 . S
Cd590 O594 2.273 . S
Cd590 O598 2.277 . S
O591 C588 1.160 . S
O591 Cd592 2.203 . S
Cd592 O591 2.203 . S
Cd592 O594 2.411 . S
Cd592 O595 2.333 . S
Cd592 O596 2.352 . S
Cd592 O600 2.277 . S
Cd592 O601 2.356 . S
C593 O598 1.209 . S
C593 O600 1.226 . S
O594 Cd590 2.273 . S
O594 Cd592 2.411 . S
O594 C597 1.320 . S
O595 Cd592 2.333 . S
O595 C597 1.214 . S
O596 Cd592 2.352 . S
O596 C599 1.258 . S
C597 O594 1.320 . S
C597 O595 1.214 . S
O598 Cd590 2.277 . S
O598 C593 1.209 . S
C599 O596 1.258 . S
C599 O601 1.282 . S
O600 Cd592 2.277 . S
O600 C593 1.226 . S
O601 Cd592 2.356 . S
O601 C599 1.282 . S
C602 O603 1.306 . S
C602 O605 1.160 . S
O603 C602 1.306 . S
O603 Cd604 2.228 . S
Cd604 O603 2.228 . S
Cd604 O608 2.273 . S
Cd604 O612 2.277 . S
O605 C602 1.160 . S
O605 Cd606 2.203 . S
Cd606 O605 2.203 . S
Cd606 O608 2.411 . S
Cd606 O609 2.333 . S
Cd606 O610 2.352 . S
Cd606 O614 2.277 . S
Cd606 O615 2.356 . S
C607 O612 1.209 . S
C607 O614 1.226 . S
O608 Cd604 2.273 . S
O608 Cd606 2.411 . S
O608 C611 1.320 . S
O609 Cd606 2.333 . S
O609 C611 1.214 . S
O610 Cd606 2.352 . S
O610 C613 1.258 . S
C611 O608 1.320 . S
C611 O609 1.214 . S
O612 Cd604 2.277 . S
O612 C607 1.209 . S
C613 O610 1.258 . S
C613 O615 1.282 . S
O614 Cd606 2.277 . S
O614 C607 1.226 . S
O615 Cd606 2.356 . S
O615 C613 1.282 . S
C616 O617 1.306 . S
C616 O619 1.160 . S
O617 C616 1.306 . S
O617 Cd618 2.228 . S
Cd618 O617 2.228 . S
Cd618 O622 2.273 . S
Cd618 O626 2.277 . S
O619 C616 1.160 . S
O619 Cd620 2.203 . S
Cd620 O619 2.203 . S
Cd620 O622 2.411 . S
Cd620 O623 2.333 . S
Cd620 O624 2.352 . S
Cd620 O628 2.277 . S
Cd620 O629 2.356 . S
C621 O626 1.209 . S
C621 O628 1.226 . S
O622 Cd618 2.273 . S
O622 Cd620 2.411 . S
O622 C625 1.320 . S
O623 Cd620 2.333 . S
O623 C625 1.214 . S
O624 Cd620 2.352 . S
O624 C627 1.258 . S
C625 O622 1.320 . S
C625 O623 1.214 . S
O626 Cd618 2.277 . S
O626 C621 1.209 . S
C627 O624 1.258 . S
C627 O629 1.282 . S
O628 Cd620 2.277 . S
O628 C621 1.226 . S
O629 Cd620 2.356 . S
O629 C627 1.282 . S
C630 O631 1.306 . S
C630 O633 1.160 . S
O631 C630 1.306 . S
O631 Cd632 2.228 . S
Cd632 O631 2.228 . S
Cd632 O636 2.273 . S
Cd632 O640 2.277 . S
O633 C630 1.160 . S
O633 Cd634 2.203 . S
Cd634 O633 2.203 . S
Cd634 O636 2.411 . S
Cd634 O637 2.333 . S
Cd634 O638 2.352 . S
Cd634 O642 2.277 . S
Cd634 O643 2.356 . S
C635 O640 1.209 . S
C635 O642 1.226 . S
O636 Cd632 2.273 . S
O636 Cd634 2.411 . S
O636 C639 1.320 . S
O637 Cd634 2.333 . S
O637 C639 1.214 . S
O638 Cd634 2.352 . S
O638 C641 1.258 . S
C639 O636 1.320 . S
C639 O637 1.214 . S
O640 Cd632 2.277 . S
O640 C635 1.209 . S
C641 O638 1.258 . S
C641 O643 1.282 . S
O642 Cd634 2.277 . S
O642 C635 1.226 . S
O643 Cd634 2.356 . S
O643 C641 1.282 . S
C644 O645 1.306 . S
C644 O647 1.160 . S
O645 C644 1.306 . S
O645 Cd646 2.228 . S
Cd646 O645 2.228 . S
Cd646 O650 2.273 . S
Cd646 O654 2.277 . S
O647 C644 1.160 . S
O647 Cd648 2.203 . S
Cd648 O647 2.203 . S
Cd648 O650 2.411 . S
Cd648 O651 2.333 . S
Cd648 O652 2.352 . S
Cd648 O656 2.277 . S
Cd648 O657 2.356 . S
C649 O654 1.209 . S
C649 O656 1.226 . S
O650 Cd646 2.273 . S
O650 Cd648 2.411 . S
O650 C653 1.320 . S
O651 Cd648 2.333 . S
O651 C653 1.214 . S
O652 Cd648 2.352 . S
O652 C655 1.258 . S
C653 O650 1.320 . S
C653 O651 1.214 . S
O654 Cd646 2.277 . S
O654 C649 1.209 . S
C655 O652 1.258 . S
C655 O657 1.282 . S
O656 Cd648 2.277 . S
O656 C649 1.226 . S
O657 Cd648 2.356 . S
O657 C655 1.282 . S
C658 O659 1.306 . S
C658 O661 1.160 . S
O659 C658 1.306 . S
O659 Cd660 2.228 . S
Cd660 O659 2.228 . S
Cd660 O664 2.273 . S
Cd660 O668 2.277 . S
O661 C658 1.160 . S
O661 Cd662 2.203 . S
Cd662 O661 2.203 . S
Cd662 O664 2.411 . S
Cd662 O665 2.333 . S
Cd662 O666 2.352 . S
Cd662 O670 2.277 . S
Cd662 O671 2.356 . S
C663 O668 1.209 . S
C663 O670 1.226 . S
O664 Cd660 2.273 . S
O664 Cd662 2.411 . S
O664 C667 1.320 . S
O665 Cd662 2.333 . S
O665 C667 1.214 . S
O666 Cd662 2.352 . S
O666 C669 1.258 . S
C667 O664 1.320 . S
C667 O665 1.214 . S
O668 Cd660 2.277 . S
O668 C663 1.209 . S
C669 O666 1.258 . S
C669 O671 1.282 . S
O670 Cd662 2.277 . S
O670 C663 1.226 . S
O671 Cd662 2.356 . S
O671 C669 1.282 . S
H672 C678 0.930 . S
H673 C682 0.930 . S
H674 C687 0.929 . S
H675 C685 0.929 . S
H676 C680 0.929 . S
H677 C686 0.929 . S
C678 H672 0.930 . S
C678 C679 1.367 . S
C678 C686 1.378 . S
C679 C678 1.367 . S
C679 C687 1.433 . S
C680 H676 0.929 . S
C680 C682 1.378 . S
C680 C684 1.350 . S
C681 C684 1.463 . S
C681 C686 1.350 . S
C681 N689 1.427 . S
C682 H673 0.930 . S
C682 C680 1.378 . S
C682 C683 1.367 . S
C683 C682 1.367 . S
C683 C685 1.433 . S
C684 C680 1.350 . S
C684 C681 1.463 . S
C684 N688 1.427 . S
C685 H675 0.929 . S
C685 C683 1.433 . S
C685 N688 1.384 . S
C686 H677 0.929 . S
C686 C678 1.378 . S
C686 C681 1.350 . S
C687 H674 0.929 . S
C687 C679 1.433 . S
C687 N689 1.384 . S
N688 C684 1.427 . S
N688 C685 1.384 . S
N689 C681 1.427 . S
N689 C687 1.384 . S
H690 C696 0.930 . S
H691 C700 0.930 . S
H692 C705 0.929 . S
H693 C703 0.929 . S
H694 C698 0.929 . S
H695 C704 0.929 . S
C696 H690 0.930 . S
C696 C697 1.367 . S
C696 C704 1.378 . S
C697 C696 1.367 . S
C697 C705 1.433 . S
C698 H694 0.929 . S
C698 C700 1.378 . S
C698 C702 1.350 . S
C699 C702 1.463 . S
C699 C704 1.350 . S
C699 N707 1.427 . S
C700 H691 0.930 . S
C700 C698 1.378 . S
C700 C701 1.367 . S
C701 C700 1.367 . S
C701 C703 1.433 . S
C702 C698 1.350 . S
C702 C699 1.463 . S
C702 N706 1.427 . S
C703 H693 0.929 . S
C703 C701 1.433 . S
C703 N706 1.384 . S
C704 H695 0.929 . S
C704 C696 1.378 . S
C704 C699 1.350 . S
C705 H692 0.929 . S
C705 C697 1.433 . S
C705 N707 1.384 . S
N706 C702 1.427 . S
N706 C703 1.384 . S
N707 C699 1.427 . S
N707 C705 1.384 . S
H708 C714 0.930 . S
H709 C718 0.930 . S
H710 C723 0.929 . S
H711 C721 0.929 . S
H712 C716 0.929 . S
H713 C722 0.929 . S
C714 H708 0.930 . S
C714 C715 1.367 . S
C714 C722 1.378 . S
C715 C714 1.367 . S
C715 C723 1.433 . S
C716 H712 0.929 . S
C716 C718 1.378 . S
C716 C720 1.350 . S
C717 C720 1.463 . S
C717 C722 1.350 . S
C717 N725 1.427 . S
C718 H709 0.930 . S
C718 C716 1.378 . S
C718 C719 1.367 . S
C719 C718 1.367 . S
C719 C721 1.433 . S
C720 C716 1.350 . S
C720 C717 1.463 . S
C720 N724 1.427 . S
C721 H711 0.929 . S
C721 C719 1.433 . S
C721 N724 1.384 . S
C722 H713 0.929 . S
C722 C714 1.378 . S
C722 C717 1.350 . S
C723 H710 0.929 . S
C723 C715 1.433 . S
C723 N725 1.384 . S
N724 C720 1.427 . S
N724 C721 1.384 . S
N725 C717 1.427 . S
N725 C723 1.384 . S
H726 C732 0.930 . S
H727 C736 0.930 . S
H728 C741 0.929 . S
H729 C739 0.929 . S
H730 C734 0.929 . S
H731 C740 0.929 . S
C732 H726 0.930 . S
C732 C733 1.367 . S
C732 C740 1.378 . S
C733 C732 1.367 . S
C733 C741 1.433 . S
C734 H730 0.929 . S
C734 C736 1.378 . S
C734 C738 1.350 . S
C735 C738 1.463 . S
C735 C740 1.350 . S
C735 N743 1.427 . S
C736 H727 0.930 . S
C736 C734 1.378 . S
C736 C737 1.367 . S
C737 C736 1.367 . S
C737 C739 1.433 . S
C738 C734 1.350 . S
C738 C735 1.463 . S
C738 N742 1.427 . S
C739 H729 0.929 . S
C739 C737 1.433 . S
C739 N742 1.384 . S
C740 H731 0.929 . S
C740 C732 1.378 . S
C740 C735 1.350 . S
C741 H728 0.929 . S
C741 C733 1.433 . S
C741 N743 1.384 . S
N742 C738 1.427 . S
N742 C739 1.384 . S
N743 C735 1.427 . S
N743 C741 1.384 . S
H744 C750 0.930 . S
H745 C754 0.930 . S
H746 C759 0.929 . S
H747 C757 0.929 . S
H748 C752 0.929 . S
H749 C758 0.929 . S
C750 H744 0.930 . S
C750 C751 1.367 . S
C750 C758 1.378 . S
C751 C750 1.367 . S
C751 C759 1.433 . S
C752 H748 0.929 . S
C752 C754 1.378 . S
C752 C756 1.350 . S
C753 C756 1.463 . S
C753 C758 1.350 . S
C753 N761 1.427 . S
C754 H745 0.930 . S
C754 C752 1.378 . S
C754 C755 1.367 . S
C755 C754 1.367 . S
C755 C757 1.433 . S
C756 C752 1.350 . S
C756 C753 1.463 . S
C756 N760 1.427 . S
C757 H747 0.929 . S
C757 C755 1.433 . S
C757 N760 1.384 . S
C758 H749 0.929 . S
C758 C750 1.378 . S
C758 C753 1.350 . S
C759 H746 0.929 . S
C759 C751 1.433 . S
C759 N761 1.384 . S
N760 C756 1.427 . S
N760 C757 1.384 . S
N761 C753 1.427 . S
N761 C759 1.384 . S
H762 C768 0.930 . S
H763 C772 0.930 . S
H764 C777 0.929 . S
H765 C775 0.929 . S
H766 C770 0.929 . S
H767 C776 0.929 . S
C768 H762 0.930 . S
C768 C769 1.367 . S
C768 C776 1.378 . S
C769 C768 1.367 . S
C769 C777 1.433 . S
C770 H766 0.929 . S
C770 C772 1.378 . S
C770 C774 1.350 . S
C771 C774 1.463 . S
C771 C776 1.350 . S
C771 N779 1.427 . S
C772 H763 0.930 . S
C772 C770 1.378 . S
C772 C773 1.367 . S
C773 C772 1.367 . S
C773 C775 1.433 . S
C774 C770 1.350 . S
C774 C771 1.463 . S
C774 N778 1.427 . S
C775 H765 0.929 . S
C775 C773 1.433 . S
C775 N778 1.384 . S
C776 H767 0.929 . S
C776 C768 1.378 . S
C776 C771 1.350 . S
C777 H764 0.929 . S
C777 C769 1.433 . S
C777 N779 1.384 . S
N778 C774 1.427 . S
N778 C775 1.384 . S
N779 C771 1.427 . S
N779 C777 1.384 . S
H780 C786 0.930 . S
H781 C790 0.930 . S
H782 C795 0.929 . S
H783 C793 0.929 . S
H784 C788 0.929 . S
H785 C794 0.929 . S
C786 H780 0.930 . S
C786 C787 1.367 . S
C786 C794 1.378 . S
C787 C786 1.367 . S
C787 C795 1.433 . S
C788 H784 0.929 . S
C788 C790 1.378 . S
C788 C792 1.350 . S
C789 C792 1.463 . S
C789 C794 1.350 . S
C789 N797 1.427 . S
C790 H781 0.930 . S
C790 C788 1.378 . S
C790 C791 1.367 . S
C791 C790 1.367 . S
C791 C793 1.433 . S
C792 C788 1.350 . S
C792 C789 1.463 . S
C792 N796 1.427 . S
C793 H783 0.929 . S
C793 C791 1.433 . S
C793 N796 1.384 . S
C794 H785 0.929 . S
C794 C786 1.378 . S
C794 C789 1.350 . S
C795 H782 0.929 . S
C795 C787 1.433 . S
C795 N797 1.384 . S
N796 C792 1.427 . S
N796 C793 1.384 . S
N797 C789 1.427 . S
N797 C795 1.384 . S
H798 C804 0.930 . S
H799 C808 0.930 . S
H800 C813 0.929 . S
H801 C811 0.929 . S
H802 C806 0.929 . S
H803 C812 0.929 . S
C804 H798 0.930 . S
C804 C805 1.367 . S
C804 C812 1.378 . S
C805 C804 1.367 . S
C805 C813 1.433 . S
C806 H802 0.929 . S
C806 C808 1.378 . S
C806 C810 1.350 . S
C807 C810 1.463 . S
C807 C812 1.350 . S
C807 N815 1.427 . S
C808 H799 0.930 . S
C808 C806 1.378 . S
C808 C809 1.367 . S
C809 C808 1.367 . S
C809 C811 1.433 . S
C810 C806 1.350 . S
C810 C807 1.463 . S
C810 N814 1.427 . S
C811 H801 0.929 . S
C811 C809 1.433 . S
C811 N814 1.384 . S
C812 H803 0.929 . S
C812 C804 1.378 . S
C812 C807 1.350 . S
C813 H800 0.929 . S
C813 C805 1.433 . S
C813 N815 1.384 . S
N814 C810 1.427 . S
N814 C811 1.384 . S
N815 C807 1.427 . S
N815 C813 1.384 . S
H816 C822 0.930 . S
H817 C826 0.930 . S
H818 C831 0.929 . S
H819 C829 0.929 . S
H820 C824 0.929 . S
H821 C830 0.929 . S
C822 H816 0.930 . S
C822 C823 1.367 . S
C822 C830 1.378 . S
C823 C822 1.367 . S
C823 C831 1.433 . S
C824 H820 0.929 . S
C824 C826 1.378 . S
C824 C828 1.350 . S
C825 C828 1.463 . S
C825 C830 1.350 . S
C825 N833 1.427 . S
C826 H817 0.930 . S
C826 C824 1.378 . S
C826 C827 1.367 . S
C827 C826 1.367 . S
C827 C829 1.433 . S
C828 C824 1.350 . S
C828 C825 1.463 . S
C828 N832 1.427 . S
C829 H819 0.929 . S
C829 C827 1.433 . S
C829 N832 1.384 . S
C830 H821 0.929 . S
C830 C822 1.378 . S
C830 C825 1.350 . S
C831 H818 0.929 . S
C831 C823 1.433 . S
C831 N833 1.384 . S
N832 C828 1.427 . S
N832 C829 1.384 . S
N833 C825 1.427 . S
N833 C831 1.384 . S
H834 C840 0.930 . S
H835 C844 0.930 . S
H836 C849 0.929 . S
H837 C847 0.929 . S
H838 C842 0.929 . S
H839 C848 0.929 . S
C840 H834 0.930 . S
C840 C841 1.367 . S
C840 C848 1.378 . S
C841 C840 1.367 . S
C841 C849 1.433 . S
C842 H838 0.929 . S
C842 C844 1.378 . S
C842 C846 1.350 . S
C843 C846 1.463 . S
C843 C848 1.350 . S
C843 N851 1.427 . S
C844 H835 0.930 . S
C844 C842 1.378 . S
C844 C845 1.367 . S
C845 C844 1.367 . S
C845 C847 1.433 . S
C846 C842 1.350 . S
C846 C843 1.463 . S
C846 N850 1.427 . S
C847 H837 0.929 . S
C847 C845 1.433 . S
C847 N850 1.384 . S
C848 H839 0.929 . S
C848 C840 1.378 . S
C848 C843 1.350 . S
C849 H836 0.929 . S
C849 C841 1.433 . S
C849 N851 1.384 . S
N850 C846 1.427 . S
N850 C847 1.384 . S
N851 C843 1.427 . S
N851 C849 1.384 . S
H852 C858 0.930 . S
H853 C862 0.930 . S
H854 C867 0.929 . S
H855 C865 0.929 . S
H856 C860 0.929 . S
H857 C866 0.929 . S
C858 H852 0.930 . S
C858 C859 1.367 . S
C858 C866 1.378 . S
C859 C858 1.367 . S
C859 C867 1.433 . S
C860 H856 0.929 . S
C860 C862 1.378 . S
C860 C864 1.350 . S
C861 C864 1.463 . S
C861 C866 1.350 . S
C861 N869 1.427 . S
C862 H853 0.930 . S
C862 C860 1.378 . S
C862 C863 1.367 . S
C863 C862 1.367 . S
C863 C865 1.433 . S
C864 C860 1.350 . S
C864 C861 1.463 . S
C864 N868 1.427 . S
C865 H855 0.929 . S
C865 C863 1.433 . S
C865 N868 1.384 . S
C866 H857 0.929 . S
C866 C858 1.378 . S
C866 C861 1.350 . S
C867 H854 0.929 . S
C867 C859 1.433 . S
C867 N869 1.384 . S
N868 C864 1.427 . S
N868 C865 1.384 . S
N869 C861 1.427 . S
N869 C867 1.384 . S
H870 C876 0.930 . S
H871 C880 0.930 . S
H872 C885 0.929 . S
H873 C883 0.929 . S
H874 C878 0.929 . S
H875 C884 0.929 . S
C876 H870 0.930 . S
C876 C877 1.367 . S
C876 C884 1.378 . S
C877 C876 1.367 . S
C877 C885 1.433 . S
C878 H874 0.929 . S
C878 C880 1.378 . S
C878 C882 1.350 . S
C879 C882 1.463 . S
C879 C884 1.350 . S
C879 N887 1.427 . S
C880 H871 0.930 . S
C880 C878 1.378 . S
C880 C881 1.367 . S
C881 C880 1.367 . S
C881 C883 1.433 . S
C882 C878 1.350 . S
C882 C879 1.463 . S
C882 N886 1.427 . S
C883 H873 0.929 . S
C883 C881 1.433 . S
C883 N886 1.384 . S
C884 H875 0.929 . S
C884 C876 1.378 . S
C884 C879 1.350 . S
C885 H872 0.929 . S
C885 C877 1.433 . S
C885 N887 1.384 . S
N886 C882 1.427 . S
N886 C883 1.384 . S
N887 C879 1.427 . S
N887 C885 1.384 . S
H888 C894 0.930 . S
H889 C898 0.930 . S
H890 C903 0.929 . S
H891 C901 0.929 . S
H892 C896 0.929 . S
H893 C902 0.929 . S
C894 H888 0.930 . S
C894 C895 1.367 . S
C894 C902 1.378 . S
C895 C894 1.367 . S
C895 C903 1.433 . S
C896 H892 0.929 . S
C896 C898 1.378 . S
C896 C900 1.350 . S
C897 C900 1.463 . S
C897 C902 1.350 . S
C897 N905 1.427 . S
C898 H889 0.930 . S
C898 C896 1.378 . S
C898 C899 1.367 . S
C899 C898 1.367 . S
C899 C901 1.433 . S
C900 C896 1.350 . S
C900 C897 1.463 . S
C900 N904 1.427 . S
C901 H891 0.929 . S
C901 C899 1.433 . S
C901 N904 1.384 . S
C902 H893 0.929 . S
C902 C894 1.378 . S
C902 C897 1.350 . S
C903 H890 0.929 . S
C903 C895 1.433 . S
C903 N905 1.384 . S
N904 C900 1.427 . S
N904 C901 1.384 . S
N905 C897 1.427 . S
N905 C903 1.384 . S
H906 C912 0.930 . S
H907 C916 0.930 . S
H908 C921 0.929 . S
H909 C919 0.929 . S
H910 C914 0.929 . S
H911 C920 0.929 . S
C912 H906 0.930 . S
C912 C913 1.367 . S
C912 C920 1.378 . S
C913 C912 1.367 . S
C913 C921 1.433 . S
C914 H910 0.929 . S
C914 C916 1.378 . S
C914 C918 1.350 . S
C915 C918 1.463 . S
C915 C920 1.350 . S
C915 N923 1.427 . S
C916 H907 0.930 . S
C916 C914 1.378 . S
C916 C917 1.367 . S
C917 C916 1.367 . S
C917 C919 1.433 . S
C918 C914 1.350 . S
C918 C915 1.463 . S
C918 N922 1.427 . S
C919 H909 0.929 . S
C919 C917 1.433 . S
C919 N922 1.384 . S
C920 H911 0.929 . S
C920 C912 1.378 . S
C920 C915 1.350 . S
C921 H908 0.929 . S
C921 C913 1.433 . S
C921 N923 1.384 . S
N922 C918 1.427 . S
N922 C919 1.384 . S
N923 C915 1.427 . S
N923 C921 1.384 . S
H924 C930 0.930 . S
H925 C934 0.930 . S
H926 C939 0.929 . S
H927 C937 0.929 . S
H928 C932 0.929 . S
H929 C938 0.929 . S
C930 H924 0.930 . S
C930 C931 1.367 . S
C930 C938 1.378 . S
C931 C930 1.367 . S
C931 C939 1.433 . S
C932 H928 0.929 . S
C932 C934 1.378 . S
C932 C936 1.350 . S
C933 C936 1.463 . S
C933 C938 1.350 . S
C933 N941 1.427 . S
C934 H925 0.930 . S
C934 C932 1.378 . S
C934 C935 1.367 . S
C935 C934 1.367 . S
C935 C937 1.433 . S
C936 C932 1.350 . S
C936 C933 1.463 . S
C936 N940 1.427 . S
C937 H927 0.929 . S
C937 C935 1.433 . S
C937 N940 1.384 . S
C938 H929 0.929 . S
C938 C930 1.378 . S
C938 C933 1.350 . S
C939 H926 0.929 . S
C939 C931 1.433 . S
C939 N941 1.384 . S
N940 C936 1.427 . S
N940 C937 1.384 . S
N941 C933 1.427 . S
N941 C939 1.384 . S
H942 C948 0.930 . S
H943 C952 0.930 . S
H944 C957 0.929 . S
H945 C955 0.929 . S
H946 C950 0.929 . S
H947 C956 0.929 . S
C948 H942 0.930 . S
C948 C949 1.367 . S
C948 C956 1.378 . S
C949 C948 1.367 . S
C949 C957 1.433 . S
C950 H946 0.929 . S
C950 C952 1.378 . S
C950 C954 1.350 . S
C951 C954 1.463 . S
C951 C956 1.350 . S
C951 N959 1.427 . S
C952 H943 0.930 . S
C952 C950 1.378 . S
C952 C953 1.367 . S
C953 C952 1.367 . S
C953 C955 1.433 . S
C954 C950 1.350 . S
C954 C951 1.463 . S
C954 N958 1.427 . S
C955 H945 0.929 . S
C955 C953 1.433 . S
C955 N958 1.384 . S
C956 H947 0.929 . S
C956 C948 1.378 . S
C956 C951 1.350 . S
C957 H944 0.929 . S
C957 C949 1.433 . S
C957 N959 1.384 . S
N958 C954 1.427 . S
N958 C955 1.384 . S
N959 C951 1.427 . S
N959 C957 1.384 . S
H960 C966 0.930 . S
H961 C970 0.930 . S
H962 C975 0.929 . S
H963 C973 0.929 . S
H964 C968 0.929 . S
H965 C974 0.929 . S
C966 H960 0.930 . S
C966 C967 1.367 . S
C966 C974 1.378 . S
C967 C966 1.367 . S
C967 C975 1.433 . S
C968 H964 0.929 . S
C968 C970 1.378 . S
C968 C972 1.350 . S
C969 C972 1.463 . S
C969 C974 1.350 . S
C969 N977 1.427 . S
C970 H961 0.930 . S
C970 C968 1.378 . S
C970 C971 1.367 . S
C971 C970 1.367 . S
C971 C973 1.433 . S
C972 C968 1.350 . S
C972 C969 1.463 . S
C972 N976 1.427 . S
C973 H963 0.929 . S
C973 C971 1.433 . S
C973 N976 1.384 . S
C974 H965 0.929 . S
C974 C966 1.378 . S
C974 C969 1.350 . S
C975 H962 0.929 . S
C975 C967 1.433 . S
C975 N977 1.384 . S
N976 C972 1.427 . S
N976 C973 1.384 . S
N977 C969 1.427 . S
N977 C975 1.384 . S
H978 C984 0.930 . S
H979 C988 0.930 . S
H980 C993 0.929 . S
H981 C991 0.929 . S
H982 C986 0.929 . S
H983 C992 0.929 . S
C984 H978 0.930 . S
C984 C985 1.367 . S
C984 C992 1.378 . S
C985 C984 1.367 . S
C985 C993 1.433 . S
C986 H982 0.929 . S
C986 C988 1.378 . S
C986 C990 1.350 . S
C987 C990 1.463 . S
C987 C992 1.350 . S
C987 N995 1.427 . S
C988 H979 0.930 . S
C988 C986 1.378 . S
C988 C989 1.367 . S
C989 C988 1.367 . S
C989 C991 1.433 . S
C990 C986 1.350 . S
C990 C987 1.463 . S
C990 N994 1.427 . S
C991 H981 0.929 . S
C991 C989 1.433 . S
C991 N994 1.384 . S
C992 H983 0.929 . S
C992 C984 1.378 . S
C992 C987 1.350 . S
C993 H980 0.929 . S
C993 C985 1.433 . S
C993 N995 1.384 . S
N994 C990 1.427 . S
N994 C991 1.384 . S
N995 C987 1.427 . S
N995 C993 1.384 . S
H996 C1002 0.930 . S
H997 C1006 0.930 . S
H998 C1011 0.929 . S
H999 C1009 0.929 . S
H1000 C1004 0.929 . S
H1001 C1010 0.929 . S
C1002 H996 0.930 . S
C1002 C1003 1.367 . S
C1002 C1010 1.378 . S
C1003 C1002 1.367 . S
C1003 C1011 1.433 . S
C1004 H1000 0.929 . S
C1004 C1006 1.378 . S
C1004 C1008 1.350 . S
C1005 C1008 1.463 . S
C1005 C1010 1.350 . S
C1005 N1013 1.427 . S
C1006 H997 0.930 . S
C1006 C1004 1.378 . S
C1006 C1007 1.367 . S
C1007 C1006 1.367 . S
C1007 C1009 1.433 . S
C1008 C1004 1.350 . S
C1008 C1005 1.463 . S
C1008 N1012 1.427 . S
C1009 H999 0.929 . S
C1009 C1007 1.433 . S
C1009 N1012 1.384 . S
C1010 H1001 0.929 . S
C1010 C1002 1.378 . S
C1010 C1005 1.350 . S
C1011 H998 0.929 . S
C1011 C1003 1.433 . S
C1011 N1013 1.384 . S
N1012 C1008 1.427 . S
N1012 C1009 1.384 . S
N1013 C1005 1.427 . S
N1013 C1011 1.384 . S
H1014 C1020 0.930 . S
H1015 C1024 0.930 . S
H1016 C1029 0.929 . S
H1017 C1027 0.929 . S
H1018 C1022 0.929 . S
H1019 C1028 0.929 . S
C1020 H1014 0.930 . S
C1020 C1021 1.367 . S
C1020 C1028 1.378 . S
C1021 C1020 1.367 . S
C1021 C1029 1.433 . S
C1022 H1018 0.929 . S
C1022 C1024 1.378 . S
C1022 C1026 1.350 . S
C1023 C1026 1.463 . S
C1023 C1028 1.350 . S
C1023 N1031 1.427 . S
C1024 H1015 0.930 . S
C1024 C1022 1.378 . S
C1024 C1025 1.367 . S
C1025 C1024 1.367 . S
C1025 C1027 1.433 . S
C1026 C1022 1.350 . S
C1026 C1023 1.463 . S
C1026 N1030 1.427 . S
C1027 H1017 0.929 . S
C1027 C1025 1.433 . S
C1027 N1030 1.384 . S
C1028 H1019 0.929 . S
C1028 C1020 1.378 . S
C1028 C1023 1.350 . S
C1029 H1016 0.929 . S
C1029 C1021 1.433 . S
C1029 N1031 1.384 . S
N1030 C1026 1.427 . S
N1030 C1027 1.384 . S
N1031 C1023 1.427 . S
N1031 C1029 1.384 . S
H1032 C1038 0.930 . S
H1033 C1042 0.930 . S
H1034 C1047 0.929 . S
H1035 C1045 0.929 . S
H1036 C1040 0.929 . S
H1037 C1046 0.929 . S
C1038 H1032 0.930 . S
C1038 C1039 1.367 . S
C1038 C1046 1.378 . S
C1039 C1038 1.367 . S
C1039 C1047 1.433 . S
C1040 H1036 0.929 . S
C1040 C1042 1.378 . S
C1040 C1044 1.350 . S
C1041 C1044 1.463 . S
C1041 C1046 1.350 . S
C1041 N1049 1.427 . S
C1042 H1033 0.930 . S
C1042 C1040 1.378 . S
C1042 C1043 1.367 . S
C1043 C1042 1.367 . S
C1043 C1045 1.433 . S
C1044 C1040 1.350 . S
C1044 C1041 1.463 . S
C1044 N1048 1.427 . S
C1045 H1035 0.929 . S
C1045 C1043 1.433 . S
C1045 N1048 1.384 . S
C1046 H1037 0.929 . S
C1046 C1038 1.378 . S
C1046 C1041 1.350 . S
C1047 H1034 0.929 . S
C1047 C1039 1.433 . S
C1047 N1049 1.384 . S
N1048 C1044 1.427 . S
N1048 C1045 1.384 . S
N1049 C1041 1.427 . S
N1049 C1047 1.384 . S
H1050 C1056 0.930 . S
H1051 C1060 0.930 . S
H1052 C1065 0.929 . S
H1053 C1063 0.929 . S
H1054 C1058 0.929 . S
H1055 C1064 0.929 . S
C1056 H1050 0.930 . S
C1056 C1057 1.367 . S
C1056 C1064 1.378 . S
C1057 C1056 1.367 . S
C1057 C1065 1.433 . S
C1058 H1054 0.929 . S
C1058 C1060 1.378 . S
C1058 C1062 1.350 . S
C1059 C1062 1.463 . S
C1059 C1064 1.350 . S
C1059 N1067 1.427 . S
C1060 H1051 0.930 . S
C1060 C1058 1.378 . S
C1060 C1061 1.367 . S
C1061 C1060 1.367 . S
C1061 C1063 1.433 . S
C1062 C1058 1.350 . S
C1062 C1059 1.463 . S
C1062 N1066 1.427 . S
C1063 H1053 0.929 . S
C1063 C1061 1.433 . S
C1063 N1066 1.384 . S
C1064 H1055 0.929 . S
C1064 C1056 1.378 . S
C1064 C1059 1.350 . S
C1065 H1052 0.929 . S
C1065 C1057 1.433 . S
C1065 N1067 1.384 . S
N1066 C1062 1.427 . S
N1066 C1063 1.384 . S
N1067 C1059 1.427 . S
N1067 C1065 1.384 . S
H1068 C1074 0.930 . S
H1069 C1078 0.930 . S
H1070 C1083 0.929 . S
H1071 C1081 0.929 . S
H1072 C1076 0.929 . S
H1073 C1082 0.929 . S
C1074 H1068 0.930 . S
C1074 C1075 1.367 . S
C1074 C1082 1.378 . S
C1075 C1074 1.367 . S
C1075 C1083 1.433 . S
C1076 H1072 0.929 . S
C1076 C1078 1.378 . S
C1076 C1080 1.350 . S
C1077 C1080 1.463 . S
C1077 C1082 1.350 . S
C1077 N1085 1.427 . S
C1078 H1069 0.930 . S
C1078 C1076 1.378 . S
C1078 C1079 1.367 . S
C1079 C1078 1.367 . S
C1079 C1081 1.433 . S
C1080 C1076 1.350 . S
C1080 C1077 1.463 . S
C1080 N1084 1.427 . S
C1081 H1071 0.929 . S
C1081 C1079 1.433 . S
C1081 N1084 1.384 . S
C1082 H1073 0.929 . S
C1082 C1074 1.378 . S
C1082 C1077 1.350 . S
C1083 H1070 0.929 . S
C1083 C1075 1.433 . S
C1083 N1085 1.384 . S
N1084 C1080 1.427 . S
N1084 C1081 1.384 . S
N1085 C1077 1.427 . S
N1085 C1083 1.384 . S
H1086 C1092 0.930 . S
H1087 C1096 0.930 . S
H1088 C1101 0.929 . S
H1089 C1099 0.929 . S
H1090 C1094 0.929 . S
H1091 C1100 0.929 . S
C1092 H1086 0.930 . S
C1092 C1093 1.367 . S
C1092 C1100 1.378 . S
C1093 C1092 1.367 . S
C1093 C1101 1.433 . S
C1094 H1090 0.929 . S
C1094 C1096 1.378 . S
C1094 C1098 1.350 . S
C1095 C1098 1.463 . S
C1095 C1100 1.350 . S
C1095 N1103 1.427 . S
C1096 H1087 0.930 . S
C1096 C1094 1.378 . S
C1096 C1097 1.367 . S
C1097 C1096 1.367 . S
C1097 C1099 1.433 . S
C1098 C1094 1.350 . S
C1098 C1095 1.463 . S
C1098 N1102 1.427 . S
C1099 H1089 0.929 . S
C1099 C1097 1.433 . S
C1099 N1102 1.384 . S
C1100 H1091 0.929 . S
C1100 C1092 1.378 . S
C1100 C1095 1.350 . S
C1101 H1088 0.929 . S
C1101 C1093 1.433 . S
C1101 N1103 1.384 . S
N1102 C1098 1.427 . S
N1102 C1099 1.384 . S
N1103 C1095 1.427 . S
N1103 C1101 1.384 . S
H1104 C1110 0.930 . S
H1105 C1114 0.930 . S
H1106 C1119 0.929 . S
H1107 C1117 0.929 . S
H1108 C1112 0.929 . S
H1109 C1118 0.929 . S
C1110 H1104 0.930 . S
C1110 C1111 1.367 1_455 S
C1110 C1118 1.378 . S
C1111 C1110 1.367 1_655 S
C1111 C1119 1.433 . S
C1112 H1108 0.929 . S
C1112 C1114 1.378 . S
C1112 C1116 1.350 1_655 S
C1113 C1116 1.463 1_655 S
C1113 C1118 1.350 1_655 S
C1113 N1121 1.427 . S
C1114 H1105 0.930 . S
C1114 C1112 1.378 . S
C1114 C1115 1.367 1_655 S
C1115 C1114 1.367 1_455 S
C1115 C1117 1.433 . S
C1116 C1112 1.350 1_455 S
C1116 C1113 1.463 1_455 S
C1116 N1120 1.427 . S
C1117 H1107 0.929 . S
C1117 C1115 1.433 . S
C1117 N1120 1.384 . S
C1118 H1109 0.929 . S
C1118 C1110 1.378 . S
C1118 C1113 1.350 1_455 S
C1119 H1106 0.929 . S
C1119 C1111 1.433 . S
C1119 N1121 1.384 . S
N1120 C1116 1.427 . S
N1120 C1117 1.384 . S
N1121 C1113 1.427 . S
N1121 C1119 1.384 . S
H1122 C1128 0.930 . S
H1123 C1132 0.930 . S
H1124 C1137 0.929 . S
H1125 C1135 0.929 . S
H1126 C1130 0.929 . S
H1127 C1136 0.929 . S
C1128 H1122 0.930 . S
C1128 C1129 1.367 . S
C1128 C1136 1.378 . S
C1129 C1128 1.367 . S
C1129 C1137 1.433 1_565 S
C1130 H1126 0.929 . S
C1130 C1132 1.378 . S
C1130 C1134 1.350 . S
C1131 C1134 1.463 1_565 S
C1131 C1136 1.350 . S
C1131 N1139 1.427 1_565 S
C1132 H1123 0.930 . S
C1132 C1130 1.378 . S
C1132 C1133 1.367 . S
C1133 C1132 1.367 . S
C1133 C1135 1.433 1_545 S
C1134 C1130 1.350 . S
C1134 C1131 1.463 1_545 S
C1134 N1138 1.427 1_545 S
C1135 H1125 0.929 . S
C1135 C1133 1.433 1_565 S
C1135 N1138 1.384 . S
C1136 H1127 0.929 . S
C1136 C1128 1.378 . S
C1136 C1131 1.350 . S
C1137 H1124 0.929 . S
C1137 C1129 1.433 1_545 S
C1137 N1139 1.384 . S
N1138 C1134 1.427 1_565 S
N1138 C1135 1.384 . S
N1139 C1131 1.427 1_545 S
N1139 C1137 1.384 . S
H1140 C1146 0.958 . S
H1141 C1150 0.958 . S
H1142 C1155 0.929 . S
H1143 C1153 0.929 . S
H1144 C1148 0.929 . S
H1145 C1154 0.929 . S
C1146 H1140 0.958 . S
C1146 C1147 1.324 1_455 S
C1146 C1154 1.395 . S
C1147 C1146 1.324 1_655 S
C1147 C1155 1.433 . S
C1148 H1144 0.929 . S
C1148 C1150 1.395 . S
C1148 C1152 1.350 1_655 S
C1149 C1152 1.463 1_655 S
C1149 C1154 1.350 1_655 S
C1149 N1157 1.427 . S
C1150 H1141 0.958 . S
C1150 C1148 1.395 . S
C1150 C1151 1.324 1_655 S
C1151 C1150 1.324 1_455 S
C1151 C1153 1.433 . S
C1152 C1148 1.350 1_455 S
C1152 C1149 1.463 1_455 S
C1152 N1156 1.427 . S
C1153 H1143 0.929 . S
C1153 C1151 1.433 . S
C1153 N1156 1.384 . S
C1154 H1145 0.929 . S
C1154 C1146 1.395 . S
C1154 C1149 1.350 1_455 S
C1155 H1142 0.929 . S
C1155 C1147 1.433 . S
C1155 N1157 1.384 . S
N1156 C1152 1.427 . S
N1156 C1153 1.384 . S
N1157 C1149 1.427 . S
N1157 C1155 1.384 . S
H1158 C1164 0.930 . S
H1159 C1168 0.930 . S
H1160 C1173 0.929 . S
H1161 C1171 0.929 . S
H1162 C1166 0.929 . S
H1163 C1172 0.929 . S
C1164 H1158 0.930 . S
C1164 C1165 1.367 . S
C1164 C1172 1.378 1_545 S
C1165 C1164 1.367 . S
C1165 C1173 1.433 . S
C1166 H1162 0.929 . S
C1166 C1168 1.378 1_545 S
C1166 C1170 1.350 1_545 S
C1167 C1170 1.463 1_545 S
C1167 C1172 1.350 1_545 S
C1167 N1175 1.427 . S
C1168 H1159 0.930 . S
C1168 C1166 1.378 1_565 S
C1168 C1169 1.367 . S
C1169 C1168 1.367 . S
C1169 C1171 1.433 . S
C1170 C1166 1.350 1_565 S
C1170 C1167 1.463 1_565 S
C1170 N1174 1.427 . S
C1171 H1161 0.929 . S
C1171 C1169 1.433 . S
C1171 N1174 1.384 . S
C1172 H1163 0.929 . S
C1172 C1164 1.378 1_565 S
C1172 C1167 1.350 1_565 S
C1173 H1160 0.929 . S
C1173 C1165 1.433 . S
C1173 N1175 1.384 . S
N1174 C1170 1.427 . S
N1174 C1171 1.384 . S
N1175 C1167 1.427 . S
N1175 C1173 1.384 . S
H1176 C1182 0.930 1_655 S
H1177 C1186 0.930 1_455 S
H1178 C1191 0.929 . S
H1179 C1189 0.929 . S
H1180 C1184 0.929 . S
H1181 C1190 0.929 . S
C1182 H1176 0.930 1_455 S
C1182 C1183 1.367 . S
C1182 C1190 1.378 1_455 S
C1183 C1182 1.367 . S
C1183 C1191 1.433 . S
C1184 H1180 0.929 . S
C1184 C1186 1.378 1_455 S
C1184 C1188 1.350 1_455 S
C1185 C1188 1.463 1_455 S
C1185 C1190 1.350 1_455 S
C1185 N1193 1.427 . S
C1186 H1177 0.930 1_655 S
C1186 C1184 1.378 1_655 S
C1186 C1187 1.367 . S
C1187 C1186 1.367 . S
C1187 C1189 1.433 . S
C1188 C1184 1.350 1_655 S
C1188 C1185 1.463 1_655 S
C1188 N1192 1.427 . S
C1189 H1179 0.929 . S
C1189 C1187 1.433 . S
C1189 N1192 1.384 . S
C1190 H1181 0.929 . S
C1190 C1182 1.378 1_655 S
C1190 C1185 1.350 1_655 S
C1191 H1178 0.929 . S
C1191 C1183 1.433 . S
C1191 N1193 1.384 . S
N1192 C1188 1.427 . S
N1192 C1189 1.384 . S
N1193 C1185 1.427 . S
N1193 C1191 1.384 . S
H1194 C1200 0.930 . S
H1195 C1204 0.930 . S
H1196 C1209 0.929 . S
H1197 C1207 0.929 . S
H1198 C1202 0.929 . S
H1199 C1208 0.929 . S
C1200 H1194 0.930 . S
C1200 C1201 1.367 . S
C1200 C1208 1.378 . S
C1201 C1200 1.367 . S
C1201 C1209 1.433 1_565 S
C1202 H1198 0.929 . S
C1202 C1204 1.378 . S
C1202 C1206 1.350 . S
C1203 C1206 1.463 1_565 S
C1203 C1208 1.350 . S
C1203 N1211 1.427 1_565 S
C1204 H1195 0.930 . S
C1204 C1202 1.378 . S
C1204 C1205 1.367 . S
C1205 C1204 1.367 . S
C1205 C1207 1.433 1_545 S
C1206 C1202 1.350 . S
C1206 C1203 1.463 1_545 S
C1206 N1210 1.427 1_545 S
C1207 H1197 0.929 . S
C1207 C1205 1.433 1_565 S
C1207 N1210 1.384 . S
C1208 H1199 0.929 . S
C1208 C1200 1.378 . S
C1208 C1203 1.350 . S
C1209 H1196 0.929 . S
C1209 C1201 1.433 1_545 S
C1209 N1211 1.384 . S
N1210 C1206 1.427 1_565 S
N1210 C1207 1.384 . S
N1211 C1203 1.427 1_545 S
N1211 C1209 1.384 . S
H1212 C1218 0.930 . S
H1213 C1222 0.930 . S
H1214 C1227 0.929 . S
H1215 C1225 0.929 . S
H1216 C1220 0.929 . S
H1217 C1226 0.929 . S
C1218 H1212 0.930 . S
C1218 C1219 1.367 . S
C1218 C1226 1.378 . S
C1219 C1218 1.367 . S
C1219 C1227 1.433 1_455 S
C1220 H1216 0.929 . S
C1220 C1222 1.378 . S
C1220 C1224 1.350 . S
C1221 C1224 1.463 1_455 S
C1221 C1226 1.350 . S
C1221 N1229 1.427 1_455 S
C1222 H1213 0.930 . S
C1222 C1220 1.378 . S
C1222 C1223 1.367 . S
C1223 C1222 1.367 . S
C1223 C1225 1.433 1_655 S
C1224 C1220 1.350 . S
C1224 C1221 1.463 1_655 S
C1224 N1228 1.427 1_655 S
C1225 H1215 0.929 . S
C1225 C1223 1.433 1_455 S
C1225 N1228 1.384 . S
C1226 H1217 0.929 . S
C1226 C1218 1.378 . S
C1226 C1221 1.350 . S
C1227 H1214 0.929 . S
C1227 C1219 1.433 1_655 S
C1227 N1229 1.384 . S
N1228 C1224 1.427 1_455 S
N1228 C1225 1.384 . S
N1229 C1221 1.427 1_655 S
N1229 C1227 1.384 . S
H1230 C1236 0.930 . S
H1231 C1240 0.930 . S
H1232 C1245 0.929 . S
H1233 C1243 0.929 . S
H1234 C1238 0.929 . S
H1235 C1244 0.929 . S
C1236 H1230 0.930 . S
C1236 C1237 1.367 . S
C1236 C1244 1.378 1_545 S
C1237 C1236 1.367 . S
C1237 C1245 1.433 . S
C1238 H1234 0.929 . S
C1238 C1240 1.378 1_545 S
C1238 C1242 1.350 1_545 S
C1239 C1242 1.463 1_545 S
C1239 C1244 1.350 1_545 S
C1239 N1247 1.427 . S
C1240 H1231 0.930 . S
C1240 C1238 1.378 1_565 S
C1240 C1241 1.367 . S
C1241 C1240 1.367 . S
C1241 C1243 1.433 . S
C1242 C1238 1.350 1_565 S
C1242 C1239 1.463 1_565 S
C1242 N1246 1.427 . S
C1243 H1233 0.929 . S
C1243 C1241 1.433 . S
C1243 N1246 1.384 . S
C1244 H1235 0.929 . S
C1244 C1236 1.378 1_565 S
C1244 C1239 1.350 1_565 S
C1245 H1232 0.929 . S
C1245 C1237 1.433 . S
C1245 N1247 1.384 . S
N1246 C1242 1.427 . S
N1246 C1243 1.384 . S
N1247 C1239 1.427 . S
N1247 C1245 1.384 . S
H1248 C1254 0.930 . S
H1249 C1258 0.930 . S
H1250 C1263 0.929 . S
H1251 C1261 0.929 . S
H1252 C1256 0.929 . S
H1253 C1262 0.929 . S
C1254 H1248 0.930 . S
C1254 C1255 1.367 1_554 S
C1254 C1262 1.378 . S
C1255 C1254 1.367 1_556 S
C1255 C1263 1.433 . S
C1256 H1252 0.929 . S
C1256 C1258 1.378 . S
C1256 C1260 1.350 1_556 S
C1257 C1260 1.463 1_556 S
C1257 C1262 1.350 1_556 S
C1257 N1265 1.427 . S
C1258 H1249 0.930 . S
C1258 C1256 1.378 . S
C1258 C1259 1.367 1_556 S
C1259 C1258 1.367 1_554 S
C1259 C1261 1.433 . S
C1260 C1256 1.350 1_554 S
C1260 C1257 1.463 1_554 S
C1260 N1264 1.427 . S
C1261 H1251 0.929 . S
C1261 C1259 1.433 . S
C1261 N1264 1.384 . S
C1262 H1253 0.929 . S
C1262 C1254 1.378 . S
C1262 C1257 1.350 1_554 S
C1263 H1250 0.929 . S
C1263 C1255 1.433 . S
C1263 N1265 1.384 . S
N1264 C1260 1.427 . S
N1264 C1261 1.384 . S
N1265 C1257 1.427 . S
N1265 C1263 1.384 . S
H1266 C1272 0.930 . S
H1267 C1276 0.930 . S
H1268 C1281 0.929 . S
H1269 C1279 0.929 . S
H1270 C1274 0.929 . S
H1271 C1280 0.929 . S
C1272 H1266 0.930 . S
C1272 C1273 1.367 . S
C1272 C1280 1.378 . S
C1273 C1272 1.367 . S
C1273 C1281 1.433 1_554 S
C1274 H1270 0.929 . S
C1274 C1276 1.378 . S
C1274 C1278 1.350 . S
C1275 C1278 1.463 1_554 S
C1275 C1280 1.350 . S
C1275 N1283 1.427 1_554 S
C1276 H1267 0.930 . S
C1276 C1274 1.378 . S
C1276 C1277 1.367 . S
C1277 C1276 1.367 . S
C1277 C1279 1.433 1_556 S
C1278 C1274 1.350 . S
C1278 C1275 1.463 1_556 S
C1278 N1282 1.427 1_556 S
C1279 H1269 0.929 . S
C1279 C1277 1.433 1_554 S
C1279 N1282 1.384 . S
C1280 H1271 0.929 . S
C1280 C1272 1.378 . S
C1280 C1275 1.350 . S
C1281 H1268 0.929 . S
C1281 C1273 1.433 1_556 S
C1281 N1283 1.384 . S
N1282 C1278 1.427 1_554 S
N1282 C1279 1.384 . S
N1283 C1275 1.427 1_556 S
N1283 C1281 1.384 . S
H1284 C1290 0.930 . S
H1285 C1294 0.930 . S
H1286 C1299 0.929 . S
H1287 C1297 0.929 . S
H1288 C1292 0.929 . S
H1289 C1298 0.929 . S
C1290 H1284 0.930 . S
C1290 C1291 1.367 . S
C1290 C1298 1.378 . S
C1291 C1290 1.367 . S
C1291 C1299 1.433 . S
C1292 H1288 0.929 . S
C1292 C1294 1.378 . S
C1292 C1296 1.350 . S
C1293 C1296 1.463 1_554 S
C1293 C1298 1.350 . S
C1293 N1301 1.427 . S
C1294 H1285 0.930 . S
C1294 C1292 1.378 . S
C1294 C1295 1.367 . S
C1295 C1294 1.367 . S
C1295 C1297 1.433 . S
C1296 C1292 1.350 . S
C1296 C1293 1.463 1_556 S
C1296 N1300 1.427 . S
C1297 H1287 0.929 . S
C1297 C1295 1.433 . S
C1297 N1300 1.384 . S
C1298 H1289 0.929 . S
C1298 C1290 1.378 . S
C1298 C1293 1.350 . S
C1299 H1286 0.929 . S
C1299 C1291 1.433 . S
C1299 N1301 1.384 . S
N1300 C1296 1.427 . S
N1300 C1297 1.384 . S
N1301 C1293 1.427 . S
N1301 C1299 1.384 . S
H1302 C1308 0.930 . S
H1303 C1312 0.930 . S
H1304 C1317 0.929 . S
H1305 C1315 0.929 . S
H1306 C1310 0.929 . S
H1307 C1316 0.929 . S
C1308 H1302 0.930 . S
C1308 C1309 1.367 . S
C1308 C1316 1.378 . S
C1309 C1308 1.367 . S
C1309 C1317 1.433 1_556 S
C1310 H1306 0.929 . S
C1310 C1312 1.378 . S
C1310 C1314 1.350 . S
C1311 C1314 1.463 1_556 S
C1311 C1316 1.350 . S
C1311 N1319 1.427 1_556 S
C1312 H1303 0.930 . S
C1312 C1310 1.378 . S
C1312 C1313 1.367 . S
C1313 C1312 1.367 . S
C1313 C1315 1.433 1_554 S
C1314 C1310 1.350 . S
C1314 C1311 1.463 1_554 S
C1314 N1318 1.427 1_554 S
C1315 H1305 0.929 . S
C1315 C1313 1.433 1_556 S
C1315 N1318 1.384 . S
C1316 H1307 0.929 . S
C1316 C1308 1.378 . S
C1316 C1311 1.350 . S
C1317 H1304 0.929 . S
C1317 C1309 1.433 1_554 S
C1317 N1319 1.384 . S
N1318 C1314 1.427 1_556 S
N1318 C1315 1.384 . S
N1319 C1311 1.427 1_554 S
N1319 C1317 1.384 . S
H1320 C1326 0.930 . S
H1321 C1330 0.930 . S
H1322 C1335 0.929 . S
H1323 C1333 0.929 . S
H1324 C1328 0.929 . S
H1325 C1334 0.929 . S
C1326 H1320 0.930 . S
C1326 C1327 1.367 . S
C1326 C1334 1.378 . S
C1327 C1326 1.367 . S
C1327 C1335 1.433 . S
C1328 H1324 0.929 . S
C1328 C1330 1.378 . S
C1328 C1332 1.350 . S
C1329 C1332 1.463 . S
C1329 C1334 1.350 . S
C1329 N1337 1.427 . S
C1330 H1321 0.930 . S
C1330 C1328 1.378 . S
C1330 C1331 1.367 . S
C1331 C1330 1.367 . S
C1331 C1333 1.433 . S
C1332 C1328 1.350 . S
C1332 C1329 1.463 . S
C1332 N1336 1.427 . S
C1333 H1323 0.929 . S
C1333 C1331 1.433 . S
C1333 N1336 1.384 . S
C1334 H1325 0.929 . S
C1334 C1326 1.378 . S
C1334 C1329 1.350 . S
C1335 H1322 0.929 . S
C1335 C1327 1.433 . S
C1335 N1337 1.384 . S
N1336 C1332 1.427 . S
N1336 C1333 1.384 . S
N1337 C1329 1.427 . S
N1337 C1335 1.384 . S
H1338 C1344 0.930 . S
H1339 C1348 0.930 . S
H1340 C1353 0.929 . S
H1341 C1351 0.929 . S
H1342 C1346 0.929 . S
H1343 C1352 0.929 . S
C1344 H1338 0.930 . S
C1344 C1345 1.367 . S
C1344 C1352 1.378 . S
C1345 C1344 1.367 . S
C1345 C1353 1.433 . S
C1346 H1342 0.929 . S
C1346 C1348 1.378 . S
C1346 C1350 1.350 . S
C1347 C1350 1.463 . S
C1347 C1352 1.350 . S
C1347 N1355 1.427 . S
C1348 H1339 0.930 . S
C1348 C1346 1.378 . S
C1348 C1349 1.367 . S
C1349 C1348 1.367 . S
C1349 C1351 1.433 . S
C1350 C1346 1.350 . S
C1350 C1347 1.463 . S
C1350 N1354 1.427 . S
C1351 H1341 0.929 . S
C1351 C1349 1.433 . S
C1351 N1354 1.384 . S
C1352 H1343 0.929 . S
C1352 C1344 1.378 . S
C1352 C1347 1.350 . S
C1353 H1340 0.929 . S
C1353 C1345 1.433 . S
C1353 N1355 1.384 . S
N1354 C1350 1.427 . S
N1354 C1351 1.384 . S
N1355 C1347 1.427 . S
N1355 C1353 1.384 . S
H1356 C1362 0.930 . S
H1357 C1366 0.930 . S
H1358 C1371 0.929 . S
H1359 C1369 0.929 . S
H1360 C1364 0.929 . S
H1361 C1370 0.929 . S
C1362 H1356 0.930 . S
C1362 C1363 1.367 . S
C1362 C1370 1.378 . S
C1363 C1362 1.367 . S
C1363 C1371 1.433 . S
C1364 H1360 0.929 . S
C1364 C1366 1.378 . S
C1364 C1368 1.350 . S
C1365 C1368 1.463 . S
C1365 C1370 1.350 . S
C1365 N1373 1.427 . S
C1366 H1357 0.930 . S
C1366 C1364 1.378 . S
C1366 C1367 1.367 . S
C1367 C1366 1.367 . S
C1367 C1369 1.433 . S
C1368 C1364 1.350 . S
C1368 C1365 1.463 . S
C1368 N1372 1.427 . S
C1369 H1359 0.929 . S
C1369 C1367 1.433 . S
C1369 N1372 1.384 . S
C1370 H1361 0.929 . S
C1370 C1362 1.378 . S
C1370 C1365 1.350 . S
C1371 H1358 0.929 . S
C1371 C1363 1.433 . S
C1371 N1373 1.384 . S
N1372 C1368 1.427 . S
N1372 C1369 1.384 . S
N1373 C1365 1.427 . S
N1373 C1371 1.384 . S
H1374 C1380 0.930 . S
H1375 C1384 0.930 . S
H1376 C1389 0.929 . S
H1377 C1387 0.929 . S
H1378 C1382 0.929 . S
H1379 C1388 0.929 . S
C1380 H1374 0.930 . S
C1380 C1381 1.367 . S
C1380 C1388 1.378 . S
C1381 C1380 1.367 . S
C1381 C1389 1.433 . S
C1382 H1378 0.929 . S
C1382 C1384 1.378 . S
C1382 C1386 1.350 . S
C1383 C1386 1.463 . S
C1383 C1388 1.350 . S
C1383 N1391 1.427 . S
C1384 H1375 0.930 . S
C1384 C1382 1.378 . S
C1384 C1385 1.367 . S
C1385 C1384 1.367 . S
C1385 C1387 1.433 . S
C1386 C1382 1.350 . S
C1386 C1383 1.463 . S
C1386 N1390 1.427 . S
C1387 H1377 0.929 . S
C1387 C1385 1.433 . S
C1387 N1390 1.384 . S
C1388 H1379 0.929 . S
C1388 C1380 1.378 . S
C1388 C1383 1.350 . S
C1389 H1376 0.929 . S
C1389 C1381 1.433 . S
C1389 N1391 1.384 . S
N1390 C1386 1.427 . S
N1390 C1387 1.384 . S
N1391 C1383 1.427 . S
N1391 C1389 1.384 . S
H1392 C1398 0.930 . S
H1393 C1402 0.930 . S
H1394 C1407 0.929 . S
H1395 C1405 0.929 . S
H1396 C1400 0.929 . S
H1397 C1406 0.929 . S
C1398 H1392 0.930 . S
C1398 C1399 1.367 . S
C1398 C1406 1.378 . S
C1399 C1398 1.367 . S
C1399 C1407 1.433 . S
C1400 H1396 0.929 . S
C1400 C1402 1.378 . S
C1400 C1404 1.350 . S
C1401 C1404 1.463 . S
C1401 C1406 1.350 . S
C1401 N1409 1.427 . S
C1402 H1393 0.930 . S
C1402 C1400 1.378 . S
C1402 C1403 1.367 . S
C1403 C1402 1.367 . S
C1403 C1405 1.433 . S
C1404 C1400 1.350 . S
C1404 C1401 1.463 . S
C1404 N1408 1.427 . S
C1405 H1395 0.929 . S
C1405 C1403 1.433 . S
C1405 N1408 1.384 . S
C1406 H1397 0.929 . S
C1406 C1398 1.378 . S
C1406 C1401 1.350 . S
C1407 H1394 0.929 . S
C1407 C1399 1.433 . S
C1407 N1409 1.384 . S
N1408 C1404 1.427 . S
N1408 C1405 1.384 . S
N1409 C1401 1.427 . S
N1409 C1407 1.384 . S
H1410 C1416 0.930 . S
H1411 C1420 0.930 . S
H1412 C1425 0.929 . S
H1413 C1423 0.929 . S
H1414 C1418 0.929 . S
H1415 C1424 0.929 . S
C1416 H1410 0.930 . S
C1416 C1417 1.367 . S
C1416 C1424 1.378 . S
C1417 C1416 1.367 . S
C1417 C1425 1.433 . S
C1418 H1414 0.929 . S
C1418 C1420 1.378 . S
C1418 C1422 1.350 . S
C1419 C1422 1.463 . S
C1419 C1424 1.350 . S
C1419 N1427 1.427 . S
C1420 H1411 0.930 . S
C1420 C1418 1.378 . S
C1420 C1421 1.367 . S
C1421 C1420 1.367 . S
C1421 C1423 1.433 . S
C1422 C1418 1.350 . S
C1422 C1419 1.463 . S
C1422 N1426 1.427 . S
C1423 H1413 0.929 . S
C1423 C1421 1.433 . S
C1423 N1426 1.384 . S
C1424 H1415 0.929 . S
C1424 C1416 1.378 . S
C1424 C1419 1.350 . S
C1425 H1412 0.929 . S
C1425 C1417 1.433 . S
C1425 N1427 1.384 . S
N1426 C1422 1.427 . S
N1426 C1423 1.384 . S
N1427 C1419 1.427 . S
N1427 C1425 1.384 . S
H1428 C1434 0.930 . S
H1429 C1438 0.930 . S
H1430 C1443 0.929 . S
H1431 C1441 0.929 . S
H1432 C1436 0.929 . S
H1433 C1442 0.929 . S
C1434 H1428 0.930 . S
C1434 C1435 1.367 . S
C1434 C1442 1.378 . S
C1435 C1434 1.367 . S
C1435 C1443 1.433 . S
C1436 H1432 0.929 . S
C1436 C1438 1.378 . S
C1436 C1440 1.350 . S
C1437 C1440 1.463 . S
C1437 C1442 1.350 . S
C1437 N1445 1.427 . S
C1438 H1429 0.930 . S
C1438 C1436 1.378 . S
C1438 C1439 1.367 . S
C1439 C1438 1.367 . S
C1439 C1441 1.433 . S
C1440 C1436 1.350 . S
C1440 C1437 1.463 . S
C1440 N1444 1.427 . S
C1441 H1431 0.929 . S
C1441 C1439 1.433 . S
C1441 N1444 1.384 . S
C1442 H1433 0.929 . S
C1442 C1434 1.378 . S
C1442 C1437 1.350 . S
C1443 H1430 0.929 . S
C1443 C1435 1.433 . S
C1443 N1445 1.384 . S
N1444 C1440 1.427 . S
N1444 C1441 1.384 . S
N1445 C1437 1.427 . S
N1445 C1443 1.384 . S
H1446 C1452 0.930 . S
H1447 C1456 0.930 . S
H1448 C1461 0.929 . S
H1449 C1459 0.929 . S
H1450 C1454 0.929 . S
H1451 C1460 0.929 . S
C1452 H1446 0.930 . S
C1452 C1453 1.367 . S
C1452 C1460 1.378 . S
C1453 C1452 1.367 . S
C1453 C1461 1.433 . S
C1454 H1450 0.929 . S
C1454 C1456 1.378 . S
C1454 C1458 1.350 . S
C1455 C1458 1.463 . S
C1455 C1460 1.350 . S
C1455 N1463 1.427 . S
C1456 H1447 0.930 . S
C1456 C1454 1.378 . S
C1456 C1457 1.367 . S
C1457 C1456 1.367 . S
C1457 C1459 1.433 . S
C1458 C1454 1.350 . S
C1458 C1455 1.463 . S
C1458 N1462 1.427 . S
C1459 H1449 0.929 . S
C1459 C1457 1.433 . S
C1459 N1462 1.384 . S
C1460 H1451 0.929 . S
C1460 C1452 1.378 . S
C1460 C1455 1.350 . S
C1461 H1448 0.929 . S
C1461 C1453 1.433 . S
C1461 N1463 1.384 . S
N1462 C1458 1.427 . S
N1462 C1459 1.384 . S
N1463 C1455 1.427 . S
N1463 C1461 1.384 . S
H1464 C1470 0.930 . S
H1465 C1474 0.930 . S
H1466 C1479 0.929 . S
H1467 C1477 0.929 . S
H1468 C1472 0.929 . S
H1469 C1478 0.929 . S
C1470 H1464 0.930 . S
C1470 C1471 1.367 . S
C1470 C1478 1.378 . S
C1471 C1470 1.367 . S
C1471 C1479 1.433 . S
C1472 H1468 0.929 . S
C1472 C1474 1.378 . S
C1472 C1476 1.350 . S
C1473 C1476 1.463 . S
C1473 C1478 1.350 . S
C1473 N1481 1.427 . S
C1474 H1465 0.930 . S
C1474 C1472 1.378 . S
C1474 C1475 1.367 . S
C1475 C1474 1.367 . S
C1475 C1477 1.433 . S
C1476 C1472 1.350 . S
C1476 C1473 1.463 . S
C1476 N1480 1.427 . S
C1477 H1467 0.929 . S
C1477 C1475 1.433 . S
C1477 N1480 1.384 . S
C1478 H1469 0.929 . S
C1478 C1470 1.378 . S
C1478 C1473 1.350 . S
C1479 H1466 0.929 . S
C1479 C1471 1.433 . S
C1479 N1481 1.384 . S
N1480 C1476 1.427 . S
N1480 C1477 1.384 . S
N1481 C1473 1.427 . S
N1481 C1479 1.384 . S
H1482 C1488 0.930 . S
H1483 C1492 0.930 . S
H1484 C1497 0.929 . S
H1485 C1495 0.929 . S
H1486 C1490 0.929 . S
H1487 C1496 0.929 . S
C1488 H1482 0.930 . S
C1488 C1489 1.367 . S
C1488 C1496 1.378 . S
C1489 C1488 1.367 . S
C1489 C1497 1.433 . S
C1490 H1486 0.929 . S
C1490 C1492 1.378 . S
C1490 C1494 1.350 . S
C1491 C1494 1.463 . S
C1491 C1496 1.350 . S
C1491 N1499 1.427 . S
C1492 H1483 0.930 . S
C1492 C1490 1.378 . S
C1492 C1493 1.367 . S
C1493 C1492 1.367 . S
C1493 C1495 1.433 . S
C1494 C1490 1.350 . S
C1494 C1491 1.463 . S
C1494 N1498 1.427 . S
C1495 H1485 0.929 . S
C1495 C1493 1.433 . S
C1495 N1498 1.384 . S
C1496 H1487 0.929 . S
C1496 C1488 1.378 . S
C1496 C1491 1.350 . S
C1497 H1484 0.929 . S
C1497 C1489 1.433 . S
C1497 N1499 1.384 . S
N1498 C1494 1.427 . S
N1498 C1495 1.384 . S
N1499 C1491 1.427 . S
N1499 C1497 1.384 . S
H1500 C1506 0.930 . S
H1501 C1510 0.930 . S
H1502 C1515 0.929 . S
H1503 C1513 0.929 . S
H1504 C1508 0.929 . S
H1505 C1514 0.929 . S
C1506 H1500 0.930 . S
C1506 C1507 1.367 . S
C1506 C1514 1.378 . S
C1507 C1506 1.367 . S
C1507 C1515 1.433 . S
C1508 H1504 0.929 . S
C1508 C1510 1.378 . S
C1508 C1512 1.350 . S
C1509 C1512 1.463 . S
C1509 C1514 1.350 . S
C1509 N1517 1.427 . S
C1510 H1501 0.930 . S
C1510 C1508 1.378 . S
C1510 C1511 1.367 . S
C1511 C1510 1.367 . S
C1511 C1513 1.433 . S
C1512 C1508 1.350 . S
C1512 C1509 1.463 . S
C1512 N1516 1.427 . S
C1513 H1503 0.929 . S
C1513 C1511 1.433 . S
C1513 N1516 1.384 . S
C1514 H1505 0.929 . S
C1514 C1506 1.378 . S
C1514 C1509 1.350 . S
C1515 H1502 0.929 . S
C1515 C1507 1.433 . S
C1515 N1517 1.384 . S
N1516 C1512 1.427 . S
N1516 C1513 1.384 . S
N1517 C1509 1.427 . S
N1517 C1515 1.384 . S
H1518 C1524 0.930 . S
H1519 C1528 0.930 . S
H1520 C1533 0.929 . S
H1521 C1531 0.929 . S
H1522 C1526 0.929 . S
H1523 C1532 0.929 . S
C1524 H1518 0.930 . S
C1524 C1525 1.367 . S
C1524 C1532 1.378 . S
C1525 C1524 1.367 . S
C1525 C1533 1.433 . S
C1526 H1522 0.929 . S
C1526 C1528 1.378 . S
C1526 C1530 1.350 . S
C1527 C1530 1.463 . S
C1527 C1532 1.350 . S
C1527 N1535 1.427 . S
C1528 H1519 0.930 . S
C1528 C1526 1.378 . S
C1528 C1529 1.367 . S
C1529 C1528 1.367 . S
C1529 C1531 1.433 . S
C1530 C1526 1.350 . S
C1530 C1527 1.463 . S
C1530 N1534 1.427 . S
C1531 H1521 0.929 . S
C1531 C1529 1.433 . S
C1531 N1534 1.384 . S
C1532 H1523 0.929 . S
C1532 C1524 1.378 . S
C1532 C1527 1.350 . S
C1533 H1520 0.929 . S
C1533 C1525 1.433 . S
C1533 N1535 1.384 . S
N1534 C1530 1.427 . S
N1534 C1531 1.384 . S
N1535 C1527 1.427 . S
N1535 C1533 1.384 . S
H1536 C1542 0.930 . S
H1537 C1546 0.930 . S
H1538 C1551 0.929 . S
H1539 C1549 0.929 . S
H1540 C1544 0.929 . S
H1541 C1550 0.929 . S
C1542 H1536 0.930 . S
C1542 C1543 1.367 . S
C1542 C1550 1.378 . S
C1543 C1542 1.367 . S
C1543 C1551 1.433 . S
C1544 H1540 0.929 . S
C1544 C1546 1.378 . S
C1544 C1548 1.350 . S
C1545 C1548 1.463 . S
C1545 C1550 1.350 . S
C1545 N1553 1.427 . S
C1546 H1537 0.930 . S
C1546 C1544 1.378 . S
C1546 C1547 1.367 . S
C1547 C1546 1.367 . S
C1547 C1549 1.433 . S
C1548 C1544 1.350 . S
C1548 C1545 1.463 . S
C1548 N1552 1.427 . S
C1549 H1539 0.929 . S
C1549 C1547 1.433 . S
C1549 N1552 1.384 . S
C1550 H1541 0.929 . S
C1550 C1542 1.378 . S
C1550 C1545 1.350 . S
C1551 H1538 0.929 . S
C1551 C1543 1.433 . S
C1551 N1553 1.384 . S
N1552 C1548 1.427 . S
N1552 C1549 1.384 . S
N1553 C1545 1.427 . S
N1553 C1551 1.384 . S
H1554 C1560 0.930 . S
H1555 C1564 0.930 . S
H1556 C1569 0.929 . S
H1557 C1567 0.929 . S
H1558 C1562 0.929 . S
H1559 C1568 0.929 . S
C1560 H1554 0.930 . S
C1560 C1561 1.367 . S
C1560 C1568 1.378 . S
C1561 C1560 1.367 . S
C1561 C1569 1.433 . S
C1562 H1558 0.929 . S
C1562 C1564 1.378 . S
C1562 C1566 1.350 . S
C1563 C1566 1.463 . S
C1563 C1568 1.350 . S
C1563 N1571 1.427 . S
C1564 H1555 0.930 . S
C1564 C1562 1.378 . S
C1564 C1565 1.367 . S
C1565 C1564 1.367 . S
C1565 C1567 1.433 . S
C1566 C1562 1.350 . S
C1566 C1563 1.463 . S
C1566 N1570 1.427 . S
C1567 H1557 0.929 . S
C1567 C1565 1.433 . S
C1567 N1570 1.384 . S
C1568 H1559 0.929 . S
C1568 C1560 1.378 . S
C1568 C1563 1.350 . S
C1569 H1556 0.929 . S
C1569 C1561 1.433 . S
C1569 N1571 1.384 . S
N1570 C1566 1.427 . S
N1570 C1567 1.384 . S
N1571 C1563 1.427 . S
N1571 C1569 1.384 . S
H1572 C1578 0.930 . S
H1573 C1582 0.930 . S
H1574 C1587 0.929 . S
H1575 C1585 0.929 . S
H1576 C1580 0.929 . S
H1577 C1586 0.929 . S
C1578 H1572 0.930 . S
C1578 C1579 1.367 . S
C1578 C1586 1.378 . S
C1579 C1578 1.367 . S
C1579 C1587 1.433 . S
C1580 H1576 0.929 . S
C1580 C1582 1.378 . S
C1580 C1584 1.350 . S
C1581 C1584 1.463 . S
C1581 C1586 1.350 . S
C1581 N1589 1.427 . S
C1582 H1573 0.930 . S
C1582 C1580 1.378 . S
C1582 C1583 1.367 . S
C1583 C1582 1.367 . S
C1583 C1585 1.433 . S
C1584 C1580 1.350 . S
C1584 C1581 1.463 . S
C1584 N1588 1.427 . S
C1585 H1575 0.929 . S
C1585 C1583 1.433 . S
C1585 N1588 1.384 . S
C1586 H1577 0.929 . S
C1586 C1578 1.378 . S
C1586 C1581 1.350 . S
C1587 H1574 0.929 . S
C1587 C1579 1.433 . S
C1587 N1589 1.384 . S
N1588 C1584 1.427 . S
N1588 C1585 1.384 . S
N1589 C1581 1.427 . S
N1589 C1587 1.384 . S
H1590 C1596 0.930 . S
H1591 C1600 0.930 . S
H1592 C1605 0.929 . S
H1593 C1603 0.929 . S
H1594 C1598 0.929 . S
H1595 C1604 0.929 . S
C1596 H1590 0.930 . S
C1596 C1597 1.367 . S
C1596 C1604 1.378 . S
C1597 C1596 1.367 . S
C1597 C1605 1.433 . S
C1598 H1594 0.929 . S
C1598 C1600 1.378 . S
C1598 C1602 1.350 . S
C1599 C1602 1.463 . S
C1599 C1604 1.350 . S
C1599 N1607 1.427 . S
C1600 H1591 0.930 . S
C1600 C1598 1.378 . S
C1600 C1601 1.367 . S
C1601 C1600 1.367 . S
C1601 C1603 1.433 . S
C1602 C1598 1.350 . S
C1602 C1599 1.463 . S
C1602 N1606 1.427 . S
C1603 H1593 0.929 . S
C1603 C1601 1.433 . S
C1603 N1606 1.384 . S
C1604 H1595 0.929 . S
C1604 C1596 1.378 . S
C1604 C1599 1.350 . S
C1605 H1592 0.929 . S
C1605 C1597 1.433 . S
C1605 N1607 1.384 . S
N1606 C1602 1.427 . S
N1606 C1603 1.384 . S
N1607 C1599 1.427 . S
N1607 C1605 1.384 . S
H1608 C1614 0.930 . S
H1609 C1618 0.930 . S
H1610 C1623 0.929 . S
H1611 C1621 0.929 . S
H1612 C1616 0.929 . S
H1613 C1622 0.929 . S
C1614 H1608 0.930 . S
C1614 C1615 1.367 . S
C1614 C1622 1.378 . S
C1615 C1614 1.367 . S
C1615 C1623 1.433 . S
C1616 H1612 0.929 . S
C1616 C1618 1.378 . S
C1616 C1620 1.350 . S
C1617 C1620 1.463 . S
C1617 C1622 1.350 . S
C1617 N1625 1.427 . S
C1618 H1609 0.930 . S
C1618 C1616 1.378 . S
C1618 C1619 1.367 . S
C1619 C1618 1.367 . S
C1619 C1621 1.433 . S
C1620 C1616 1.350 . S
C1620 C1617 1.463 . S
C1620 N1624 1.427 . S
C1621 H1611 0.929 . S
C1621 C1619 1.433 . S
C1621 N1624 1.384 . S
C1622 H1613 0.929 . S
C1622 C1614 1.378 . S
C1622 C1617 1.350 . S
C1623 H1610 0.929 . S
C1623 C1615 1.433 . S
C1623 N1625 1.384 . S
N1624 C1620 1.427 . S
N1624 C1621 1.384 . S
N1625 C1617 1.427 . S
N1625 C1623 1.384 . S
H1626 C1632 0.930 . S
H1627 C1636 0.930 . S
H1628 C1641 0.929 . S
H1629 C1639 0.929 . S
H1630 C1634 0.929 . S
H1631 C1640 0.929 . S
C1632 H1626 0.930 . S
C1632 C1633 1.367 . S
C1632 C1640 1.378 . S
C1633 C1632 1.367 . S
C1633 C1641 1.433 . S
C1634 H1630 0.929 . S
C1634 C1636 1.378 . S
C1634 C1638 1.350 . S
C1635 C1638 1.463 . S
C1635 C1640 1.350 . S
C1635 N1643 1.427 . S
C1636 H1627 0.930 . S
C1636 C1634 1.378 . S
C1636 C1637 1.367 . S
C1637 C1636 1.367 . S
C1637 C1639 1.433 . S
C1638 C1634 1.350 . S
C1638 C1635 1.463 . S
C1638 N1642 1.427 . S
C1639 H1629 0.929 . S
C1639 C1637 1.433 . S
C1639 N1642 1.384 . S
C1640 H1631 0.929 . S
C1640 C1632 1.378 . S
C1640 C1635 1.350 . S
C1641 H1628 0.929 . S
C1641 C1633 1.433 . S
C1641 N1643 1.384 . S
N1642 C1638 1.427 . S
N1642 C1639 1.384 . S
N1643 C1635 1.427 . S
N1643 C1641 1.384 . S
H1644 C1650 0.930 . S
H1645 C1654 0.930 . S
H1646 C1659 0.929 . S
H1647 C1657 0.929 . S
H1648 C1652 0.929 . S
H1649 C1658 0.929 . S
C1650 H1644 0.930 . S
C1650 C1651 1.367 . S
C1650 C1658 1.378 . S
C1651 C1650 1.367 . S
C1651 C1659 1.433 . S
C1652 H1648 0.929 . S
C1652 C1654 1.378 . S
C1652 C1656 1.350 . S
C1653 C1656 1.463 . S
C1653 C1658 1.350 . S
C1653 N1661 1.427 . S
C1654 H1645 0.930 . S
C1654 C1652 1.378 . S
C1654 C1655 1.367 . S
C1655 C1654 1.367 . S
C1655 C1657 1.433 . S
C1656 C1652 1.350 . S
C1656 C1653 1.463 . S
C1656 N1660 1.427 . S
C1657 H1647 0.929 . S
C1657 C1655 1.433 . S
C1657 N1660 1.384 . S
C1658 H1649 0.929 . S
C1658 C1650 1.378 . S
C1658 C1653 1.350 . S
C1659 H1646 0.929 . S
C1659 C1651 1.433 . S
C1659 N1661 1.384 . S
N1660 C1656 1.427 . S
N1660 C1657 1.384 . S
N1661 C1653 1.427 . S
N1661 C1659 1.384 . S
H1662 C1668 0.930 . S
H1663 C1672 0.930 . S
H1664 C1677 0.929 . S
H1665 C1675 0.929 . S
H1666 C1670 0.929 . S
H1667 C1676 0.929 . S
C1668 H1662 0.930 . S
C1668 C1669 1.367 . S
C1668 C1676 1.378 . S
C1669 C1668 1.367 . S
C1669 C1677 1.433 . S
C1670 H1666 0.929 . S
C1670 C1672 1.378 . S
C1670 C1674 1.350 . S
C1671 C1674 1.463 . S
C1671 C1676 1.350 . S
C1671 N1679 1.427 . S
C1672 H1663 0.930 . S
C1672 C1670 1.378 . S
C1672 C1673 1.367 . S
C1673 C1672 1.367 . S
C1673 C1675 1.433 . S
C1674 C1670 1.350 . S
C1674 C1671 1.463 . S
C1674 N1678 1.427 . S
C1675 H1665 0.929 . S
C1675 C1673 1.433 . S
C1675 N1678 1.384 . S
C1676 H1667 0.929 . S
C1676 C1668 1.378 . S
C1676 C1671 1.350 . S
C1677 H1664 0.929 . S
C1677 C1669 1.433 . S
C1677 N1679 1.384 . S
N1678 C1674 1.427 . S
N1678 C1675 1.384 . S
N1679 C1671 1.427 . S
N1679 C1677 1.384 . S
H1680 C1686 0.930 . S
H1681 C1690 0.930 . S
H1682 C1695 0.929 . S
H1683 C1693 0.929 . S
H1684 C1688 0.929 . S
H1685 C1694 0.929 . S
C1686 H1680 0.930 . S
C1686 C1687 1.367 . S
C1686 C1694 1.378 . S
C1687 C1686 1.367 . S
C1687 C1695 1.433 . S
C1688 H1684 0.929 . S
C1688 C1690 1.378 . S
C1688 C1692 1.350 . S
C1689 C1692 1.463 . S
C1689 C1694 1.350 . S
C1689 N1697 1.427 . S
C1690 H1681 0.930 . S
C1690 C1688 1.378 . S
C1690 C1691 1.367 . S
C1691 C1690 1.367 . S
C1691 C1693 1.433 . S
C1692 C1688 1.350 . S
C1692 C1689 1.463 . S
C1692 N1696 1.427 . S
C1693 H1683 0.929 . S
C1693 C1691 1.433 . S
C1693 N1696 1.384 . S
C1694 H1685 0.929 . S
C1694 C1686 1.378 . S
C1694 C1689 1.350 . S
C1695 H1682 0.929 . S
C1695 C1687 1.433 . S
C1695 N1697 1.384 . S
N1696 C1692 1.427 . S
N1696 C1693 1.384 . S
N1697 C1689 1.427 . S
N1697 C1695 1.384 . S
H1698 C1704 0.930 . S
H1699 C1708 0.930 . S
H1700 C1713 0.929 . S
H1701 C1711 0.929 . S
H1702 C1706 0.929 . S
H1703 C1712 0.929 . S
C1704 H1698 0.930 . S
C1704 C1705 1.367 . S
C1704 C1712 1.378 . S
C1705 C1704 1.367 . S
C1705 C1713 1.433 . S
C1706 H1702 0.929 . S
C1706 C1708 1.378 . S
C1706 C1710 1.350 . S
C1707 C1710 1.463 . S
C1707 C1712 1.350 . S
C1707 N1715 1.427 . S
C1708 H1699 0.930 . S
C1708 C1706 1.378 . S
C1708 C1709 1.367 . S
C1709 C1708 1.367 . S
C1709 C1711 1.433 . S
C1710 C1706 1.350 . S
C1710 C1707 1.463 . S
C1710 N1714 1.427 . S
C1711 H1701 0.929 . S
C1711 C1709 1.433 . S
C1711 N1714 1.384 . S
C1712 H1703 0.929 . S
C1712 C1704 1.378 . S
C1712 C1707 1.350 . S
C1713 H1700 0.929 . S
C1713 C1705 1.433 . S
C1713 N1715 1.384 . S
N1714 C1710 1.427 . S
N1714 C1711 1.384 . S
N1715 C1707 1.427 . S
N1715 C1713 1.384 . S
H1716 C1722 0.930 . S
H1717 C1726 0.930 . S
H1718 C1731 0.929 . S
H1719 C1729 0.929 . S
H1720 C1724 0.929 . S
H1721 C1730 0.929 . S
C1722 H1716 0.930 . S
C1722 C1723 1.367 . S
C1722 C1730 1.378 . S
C1723 C1722 1.367 . S
C1723 C1731 1.433 . S
C1724 H1720 0.929 . S
C1724 C1726 1.378 . S
C1724 C1728 1.350 . S
C1725 C1728 1.463 . S
C1725 C1730 1.350 . S
C1725 N1733 1.427 . S
C1726 H1717 0.930 . S
C1726 C1724 1.378 . S
C1726 C1727 1.367 . S
C1727 C1726 1.367 . S
C1727 C1729 1.433 . S
C1728 C1724 1.350 . S
C1728 C1725 1.463 . S
C1728 N1732 1.427 . S
C1729 H1719 0.929 . S
C1729 C1727 1.433 . S
C1729 N1732 1.384 . S
C1730 H1721 0.929 . S
C1730 C1722 1.378 . S
C1730 C1725 1.350 . S
C1731 H1718 0.929 . S
C1731 C1723 1.433 . S
C1731 N1733 1.384 . S
N1732 C1728 1.427 . S
N1732 C1729 1.384 . S
N1733 C1725 1.427 . S
N1733 C1731 1.384 . S
H1734 C1740 0.930 . S
H1735 C1744 0.930 . S
H1736 C1749 0.929 . S
H1737 C1747 0.929 . S
H1738 C1742 0.929 . S
H1739 C1748 0.929 . S
C1740 H1734 0.930 . S
C1740 C1741 1.367 . S
C1740 C1748 1.378 . S
C1741 C1740 1.367 . S
C1741 C1749 1.433 . S
C1742 H1738 0.929 . S
C1742 C1744 1.378 . S
C1742 C1746 1.350 . S
C1743 C1746 1.463 . S
C1743 C1748 1.350 . S
C1743 N1751 1.427 . S
C1744 H1735 0.930 . S
C1744 C1742 1.378 . S
C1744 C1745 1.367 . S
C1745 C1744 1.367 . S
C1745 C1747 1.433 . S
C1746 C1742 1.350 . S
C1746 C1743 1.463 . S
C1746 N1750 1.427 . S
C1747 H1737 0.929 . S
C1747 C1745 1.433 . S
C1747 N1750 1.384 . S
C1748 H1739 0.929 . S
C1748 C1740 1.378 . S
C1748 C1743 1.350 . S
C1749 H1736 0.929 . S
C1749 C1741 1.433 . S
C1749 N1751 1.384 . S
N1750 C1746 1.427 . S
N1750 C1747 1.384 . S
N1751 C1743 1.427 . S
N1751 C1749 1.384 . S
H1752 C1758 0.930 . S
H1753 C1762 0.930 . S
H1754 C1767 0.929 . S
H1755 C1765 0.929 . S
H1756 C1760 0.929 . S
H1757 C1766 0.929 . S
C1758 H1752 0.930 . S
C1758 C1759 1.367 . S
C1758 C1766 1.378 . S
C1759 C1758 1.367 . S
C1759 C1767 1.433 . S
C1760 H1756 0.929 . S
C1760 C1762 1.378 . S
C1760 C1764 1.350 . S
C1761 C1764 1.463 . S
C1761 C1766 1.350 . S
C1761 N1769 1.427 . S
C1762 H1753 0.930 . S
C1762 C1760 1.378 . S
C1762 C1763 1.367 . S
C1763 C1762 1.367 . S
C1763 C1765 1.433 . S
C1764 C1760 1.350 . S
C1764 C1761 1.463 . S
C1764 N1768 1.427 . S
C1765 H1755 0.929 . S
C1765 C1763 1.433 . S
C1765 N1768 1.384 . S
C1766 H1757 0.929 . S
C1766 C1758 1.378 . S
C1766 C1761 1.350 . S
C1767 H1754 0.929 . S
C1767 C1759 1.433 . S
C1767 N1769 1.384 . S
N1768 C1764 1.427 . S
N1768 C1765 1.384 . S
N1769 C1761 1.427 . S
N1769 C1767 1.384 . S
H1770 C1776 0.930 . S
H1771 C1780 0.930 . S
H1772 C1785 0.929 . S
H1773 C1783 0.929 . S
H1774 C1778 0.929 . S
H1775 C1784 0.929 . S
C1776 H1770 0.930 . S
C1776 C1777 1.367 . S
C1776 C1784 1.378 . S
C1777 C1776 1.367 . S
C1777 C1785 1.433 . S
C1778 H1774 0.929 . S
C1778 C1780 1.378 . S
C1778 C1782 1.350 . S
C1779 C1782 1.463 . S
C1779 C1784 1.350 . S
C1779 N1787 1.427 . S
C1780 H1771 0.930 . S
C1780 C1778 1.378 . S
C1780 C1781 1.367 . S
C1781 C1780 1.367 . S
C1781 C1783 1.433 . S
C1782 C1778 1.350 . S
C1782 C1779 1.463 . S
C1782 N1786 1.427 . S
C1783 H1773 0.929 . S
C1783 C1781 1.433 . S
C1783 N1786 1.384 . S
C1784 H1775 0.929 . S
C1784 C1776 1.378 . S
C1784 C1779 1.350 . S
C1785 H1772 0.929 . S
C1785 C1777 1.433 . S
C1785 N1787 1.384 . S
N1786 C1782 1.427 . S
N1786 C1783 1.384 . S
N1787 C1779 1.427 . S
N1787 C1785 1.384 . S
H1788 C1794 0.930 . S
H1789 C1798 0.930 . S
H1790 C1803 0.929 . S
H1791 C1801 0.929 . S
H1792 C1796 0.929 . S
H1793 C1802 0.929 . S
C1794 H1788 0.930 . S
C1794 C1795 1.367 . S
C1794 C1802 1.378 . S
C1795 C1794 1.367 . S
C1795 C1803 1.433 . S
C1796 H1792 0.929 . S
C1796 C1798 1.378 . S
C1796 C1800 1.350 . S
C1797 C1800 1.463 . S
C1797 C1802 1.350 . S
C1797 N1805 1.427 . S
C1798 H1789 0.930 . S
C1798 C1796 1.378 . S
C1798 C1799 1.367 . S
C1799 C1798 1.367 . S
C1799 C1801 1.433 . S
C1800 C1796 1.350 . S
C1800 C1797 1.463 . S
C1800 N1804 1.427 . S
C1801 H1791 0.929 . S
C1801 C1799 1.433 . S
C1801 N1804 1.384 . S
C1802 H1793 0.929 . S
C1802 C1794 1.378 . S
C1802 C1797 1.350 . S
C1803 H1790 0.929 . S
C1803 C1795 1.433 . S
C1803 N1805 1.384 . S
N1804 C1800 1.427 . S
N1804 C1801 1.384 . S
N1805 C1797 1.427 . S
N1805 C1803 1.384 . S
H1806 C1812 0.930 . S
H1807 C1816 0.930 . S
H1808 C1821 0.929 . S
H1809 C1819 0.929 . S
H1810 C1814 0.929 . S
H1811 C1820 0.929 . S
C1812 H1806 0.930 . S
C1812 C1813 1.367 . S
C1812 C1820 1.378 . S
C1813 C1812 1.367 . S
C1813 C1821 1.433 . S
C1814 H1810 0.929 . S
C1814 C1816 1.378 . S
C1814 C1818 1.350 . S
C1815 C1818 1.463 . S
C1815 C1820 1.350 . S
C1815 N1823 1.427 . S
C1816 H1807 0.930 . S
C1816 C1814 1.378 . S
C1816 C1817 1.367 . S
C1817 C1816 1.367 . S
C1817 C1819 1.433 . S
C1818 C1814 1.350 . S
C1818 C1815 1.463 . S
C1818 N1822 1.427 . S
C1819 H1809 0.929 . S
C1819 C1817 1.433 . S
C1819 N1822 1.384 . S
C1820 H1811 0.929 . S
C1820 C1812 1.378 . S
C1820 C1815 1.350 . S
C1821 H1808 0.929 . S
C1821 C1813 1.433 . S
C1821 N1823 1.384 . S
N1822 C1818 1.427 . S
N1822 C1819 1.384 . S
N1823 C1815 1.427 . S
N1823 C1821 1.384 . S
H1824 C1830 0.930 . S
H1825 C1834 0.930 . S
H1826 C1839 0.929 . S
H1827 C1837 0.929 . S
H1828 C1832 0.929 . S
H1829 C1838 0.929 . S
C1830 H1824 0.930 . S
C1830 C1831 1.367 . S
C1830 C1838 1.378 . S
C1831 C1830 1.367 . S
C1831 C1839 1.433 . S
C1832 H1828 0.929 . S
C1832 C1834 1.378 . S
C1832 C1836 1.350 . S
C1833 C1836 1.463 . S
C1833 C1838 1.350 . S
C1833 N1841 1.427 . S
C1834 H1825 0.930 . S
C1834 C1832 1.378 . S
C1834 C1835 1.367 . S
C1835 C1834 1.367 . S
C1835 C1837 1.433 . S
C1836 C1832 1.350 . S
C1836 C1833 1.463 . S
C1836 N1840 1.427 . S
C1837 H1827 0.929 . S
C1837 C1835 1.433 . S
C1837 N1840 1.384 . S
C1838 H1829 0.929 . S
C1838 C1830 1.378 . S
C1838 C1833 1.350 . S
C1839 H1826 0.929 . S
C1839 C1831 1.433 . S
C1839 N1841 1.384 . S
N1840 C1836 1.427 . S
N1840 C1837 1.384 . S
N1841 C1833 1.427 . S
N1841 C1839 1.384 . S
H1842 C1848 0.930 . S
H1843 C1852 0.930 . S
H1844 C1857 0.929 . S
H1845 C1855 0.929 . S
H1846 C1850 0.929 . S
H1847 C1856 0.929 . S
C1848 H1842 0.930 . S
C1848 C1849 1.367 . S
C1848 C1856 1.378 . S
C1849 C1848 1.367 . S
C1849 C1857 1.433 . S
C1850 H1846 0.929 . S
C1850 C1852 1.378 . S
C1850 C1854 1.350 . S
C1851 C1854 1.463 . S
C1851 C1856 1.350 . S
C1851 N1859 1.427 . S
C1852 H1843 0.930 . S
C1852 C1850 1.378 . S
C1852 C1853 1.367 . S
C1853 C1852 1.367 . S
C1853 C1855 1.433 . S
C1854 C1850 1.350 . S
C1854 C1851 1.463 . S
C1854 N1858 1.427 . S
C1855 H1845 0.929 . S
C1855 C1853 1.433 . S
C1855 N1858 1.384 . S
C1856 H1847 0.929 . S
C1856 C1848 1.378 . S
C1856 C1851 1.350 . S
C1857 H1844 0.929 . S
C1857 C1849 1.433 . S
C1857 N1859 1.384 . S
N1858 C1854 1.427 . S
N1858 C1855 1.384 . S
N1859 C1851 1.427 . S
N1859 C1857 1.384 . S
H1860 C1866 0.930 . S
H1861 C1870 0.930 . S
H1862 C1875 0.929 . S
H1863 C1873 0.929 . S
H1864 C1868 0.929 . S
H1865 C1874 0.929 . S
C1866 H1860 0.930 . S
C1866 C1867 1.367 . S
C1866 C1874 1.378 . S
C1867 C1866 1.367 . S
C1867 C1875 1.433 . S
C1868 H1864 0.929 . S
C1868 C1870 1.378 . S
C1868 C1872 1.350 . S
C1869 C1872 1.463 . S
C1869 C1874 1.350 . S
C1869 N1877 1.427 . S
C1870 H1861 0.930 . S
C1870 C1868 1.378 . S
C1870 C1871 1.367 . S
C1871 C1870 1.367 . S
C1871 C1873 1.433 . S
C1872 C1868 1.350 . S
C1872 C1869 1.463 . S
C1872 N1876 1.427 . S
C1873 H1863 0.929 . S
C1873 C1871 1.433 . S
C1873 N1876 1.384 . S
C1874 H1865 0.929 . S
C1874 C1866 1.378 . S
C1874 C1869 1.350 . S
C1875 H1862 0.929 . S
C1875 C1867 1.433 . S
C1875 N1877 1.384 . S
N1876 C1872 1.427 . S
N1876 C1873 1.384 . S
N1877 C1869 1.427 . S
N1877 C1875 1.384 . S
H1878 C1884 0.930 . S
H1879 C1888 0.930 . S
H1880 C1893 0.929 . S
H1881 C1891 0.929 . S
H1882 C1886 0.929 . S
H1883 C1892 0.929 . S
C1884 H1878 0.930 . S
C1884 C1885 1.367 . S
C1884 C1892 1.378 . S
C1885 C1884 1.367 . S
C1885 C1893 1.433 . S
C1886 H1882 0.929 . S
C1886 C1888 1.378 . S
C1886 C1890 1.350 . S
C1887 C1890 1.463 . S
C1887 C1892 1.350 . S
C1887 N1895 1.427 . S
C1888 H1879 0.930 . S
C1888 C1886 1.378 . S
C1888 C1889 1.367 . S
C1889 C1888 1.367 . S
C1889 C1891 1.433 . S
C1890 C1886 1.350 . S
C1890 C1887 1.463 . S
C1890 N1894 1.427 . S
C1891 H1881 0.929 . S
C1891 C1889 1.433 . S
C1891 N1894 1.384 . S
C1892 H1883 0.929 . S
C1892 C1884 1.378 . S
C1892 C1887 1.350 . S
C1893 H1880 0.929 . S
C1893 C1885 1.433 . S
C1893 N1895 1.384 . S
N1894 C1890 1.427 . S
N1894 C1891 1.384 . S
N1895 C1887 1.427 . S
N1895 C1893 1.384 . S
H1896 C1902 0.930 . S
H1897 C1906 0.930 . S
H1898 C1911 0.929 . S
H1899 C1909 0.929 . S
H1900 C1904 0.929 . S
H1901 C1910 0.929 . S
C1902 H1896 0.930 . S
C1902 C1903 1.367 . S
C1902 C1910 1.378 . S
C1903 C1902 1.367 . S
C1903 C1911 1.433 . S
C1904 H1900 0.929 . S
C1904 C1906 1.378 . S
C1904 C1908 1.350 . S
C1905 C1908 1.463 . S
C1905 C1910 1.350 . S
C1905 N1913 1.427 . S
C1906 H1897 0.930 . S
C1906 C1904 1.378 . S
C1906 C1907 1.367 . S
C1907 C1906 1.367 . S
C1907 C1909 1.433 . S
C1908 C1904 1.350 . S
C1908 C1905 1.463 . S
C1908 N1912 1.427 . S
C1909 H1899 0.929 . S
C1909 C1907 1.433 . S
C1909 N1912 1.384 . S
C1910 H1901 0.929 . S
C1910 C1902 1.378 . S
C1910 C1905 1.350 . S
C1911 H1898 0.929 . S
C1911 C1903 1.433 . S
C1911 N1913 1.384 . S
N1912 C1908 1.427 . S
N1912 C1909 1.384 . S
N1913 C1905 1.427 . S
N1913 C1911 1.384 . S
H1914 C1920 0.930 . S
H1915 C1924 0.930 . S
H1916 C1929 0.929 . S
H1917 C1927 0.929 . S
H1918 C1922 0.929 . S
H1919 C1928 0.929 . S
C1920 H1914 0.930 . S
C1920 C1921 1.367 . S
C1920 C1928 1.378 . S
C1921 C1920 1.367 . S
C1921 C1929 1.433 . S
C1922 H1918 0.929 . S
C1922 C1924 1.378 . S
C1922 C1926 1.350 . S
C1923 C1926 1.463 . S
C1923 C1928 1.350 . S
C1923 N1931 1.427 . S
C1924 H1915 0.930 . S
C1924 C1922 1.378 . S
C1924 C1925 1.367 . S
C1925 C1924 1.367 . S
C1925 C1927 1.433 . S
C1926 C1922 1.350 . S
C1926 C1923 1.463 . S
C1926 N1930 1.427 . S
C1927 H1917 0.929 . S
C1927 C1925 1.433 . S
C1927 N1930 1.384 . S
C1928 H1919 0.929 . S
C1928 C1920 1.378 . S
C1928 C1923 1.350 . S
C1929 H1916 0.929 . S
C1929 C1921 1.433 . S
C1929 N1931 1.384 . S
N1930 C1926 1.427 . S
N1930 C1927 1.384 . S
N1931 C1923 1.427 . S
N1931 C1929 1.384 . S
H1932 C1938 0.930 . S
H1933 C1942 0.930 . S
H1934 C1947 0.929 . S
H1935 C1945 0.929 . S
H1936 C1940 0.929 . S
H1937 C1946 0.929 . S
C1938 H1932 0.930 . S
C1938 C1939 1.367 . S
C1938 C1946 1.378 . S
C1939 C1938 1.367 . S
C1939 C1947 1.433 . S
C1940 H1936 0.929 . S
C1940 C1942 1.378 . S
C1940 C1944 1.350 . S
C1941 C1944 1.463 . S
C1941 C1946 1.350 . S
C1941 N1949 1.427 . S
C1942 H1933 0.930 . S
C1942 C1940 1.378 . S
C1942 C1943 1.367 . S
C1943 C1942 1.367 . S
C1943 C1945 1.433 . S
C1944 C1940 1.350 . S
C1944 C1941 1.463 . S
C1944 N1948 1.427 . S
C1945 H1935 0.929 . S
C1945 C1943 1.433 . S
C1945 N1948 1.384 . S
C1946 H1937 0.929 . S
C1946 C1938 1.378 . S
C1946 C1941 1.350 . S
C1947 H1934 0.929 . S
C1947 C1939 1.433 . S
C1947 N1949 1.384 . S
N1948 C1944 1.427 . S
N1948 C1945 1.384 . S
N1949 C1941 1.427 . S
N1949 C1947 1.384 . S
H1950 C1956 0.930 . S
H1951 C1960 0.930 . S
H1952 C1965 0.929 . S
H1953 C1963 0.929 . S
H1954 C1958 0.929 . S
H1955 C1964 0.929 . S
C1956 H1950 0.930 . S
C1956 C1957 1.367 . S
C1956 C1964 1.378 . S
C1957 C1956 1.367 . S
C1957 C1965 1.433 . S
C1958 H1954 0.929 . S
C1958 C1960 1.378 . S
C1958 C1962 1.350 . S
C1959 C1962 1.463 . S
C1959 C1964 1.350 . S
C1959 N1967 1.427 . S
C1960 H1951 0.930 . S
C1960 C1958 1.378 . S
C1960 C1961 1.367 . S
C1961 C1960 1.367 . S
C1961 C1963 1.433 . S
C1962 C1958 1.350 . S
C1962 C1959 1.463 . S
C1962 N1966 1.427 . S
C1963 H1953 0.929 . S
C1963 C1961 1.433 . S
C1963 N1966 1.384 . S
C1964 H1955 0.929 . S
C1964 C1956 1.378 . S
C1964 C1959 1.350 . S
C1965 H1952 0.929 . S
C1965 C1957 1.433 . S
C1965 N1967 1.384 . S
N1966 C1962 1.427 . S
N1966 C1963 1.384 . S
N1967 C1959 1.427 . S
N1967 C1965 1.384 . S
H1968 C1974 0.930 . S
H1969 C1978 0.930 . S
H1970 C1983 0.929 . S
H1971 C1981 0.929 . S
H1972 C1976 0.929 . S
H1973 C1982 0.929 . S
C1974 H1968 0.930 . S
C1974 C1975 1.367 . S
C1974 C1982 1.378 . S
C1975 C1974 1.367 . S
C1975 C1983 1.433 . S
C1976 H1972 0.929 . S
C1976 C1978 1.378 . S
C1976 C1980 1.350 . S
C1977 C1980 1.463 . S
C1977 C1982 1.350 . S
C1977 N1985 1.427 . S
C1978 H1969 0.930 . S
C1978 C1976 1.378 . S
C1978 C1979 1.367 . S
C1979 C1978 1.367 . S
C1979 C1981 1.433 . S
C1980 C1976 1.350 . S
C1980 C1977 1.463 . S
C1980 N1984 1.427 . S
C1981 H1971 0.929 . S
C1981 C1979 1.433 . S
C1981 N1984 1.384 . S
C1982 H1973 0.929 . S
C1982 C1974 1.378 . S
C1982 C1977 1.350 . S
C1983 H1970 0.929 . S
C1983 C1975 1.433 . S
C1983 N1985 1.384 . S
N1984 C1980 1.427 . S
N1984 C1981 1.384 . S
N1985 C1977 1.427 . S
N1985 C1983 1.384 . S
H1986 C1992 0.930 . S
H1987 C1996 0.930 . S
H1988 C2001 0.929 . S
H1989 C1999 0.929 . S
H1990 C1994 0.929 . S
H1991 C2000 0.929 . S
C1992 H1986 0.930 . S
C1992 C1993 1.367 . S
C1992 C2000 1.378 . S
C1993 C1992 1.367 . S
C1993 C2001 1.433 . S
C1994 H1990 0.929 . S
C1994 C1996 1.378 . S
C1994 C1998 1.350 . S
C1995 C1998 1.463 . S
C1995 C2000 1.350 . S
C1995 N2003 1.427 . S
C1996 H1987 0.930 . S
C1996 C1994 1.378 . S
C1996 C1997 1.367 . S
C1997 C1996 1.367 . S
C1997 C1999 1.433 . S
C1998 C1994 1.350 . S
C1998 C1995 1.463 . S
C1998 N2002 1.427 . S
C1999 H1989 0.929 . S
C1999 C1997 1.433 . S
C1999 N2002 1.384 . S
C2000 H1991 0.929 . S
C2000 C1992 1.378 . S
C2000 C1995 1.350 . S
C2001 H1988 0.929 . S
C2001 C1993 1.433 . S
C2001 N2003 1.384 . S
N2002 C1998 1.427 . S
N2002 C1999 1.384 . S
N2003 C1995 1.427 . S
N2003 C2001 1.384 . S
H2004 C2010 0.930 . S
H2005 C2014 0.930 . S
H2006 C2019 0.929 . S
H2007 C2017 0.929 . S
H2008 C2012 0.929 . S
H2009 C2018 0.929 . S
C2010 H2004 0.930 . S
C2010 C2011 1.367 . S
C2010 C2018 1.378 . S
C2011 C2010 1.367 . S
C2011 C2019 1.433 . S
C2012 H2008 0.929 . S
C2012 C2014 1.378 . S
C2012 C2016 1.350 . S
C2013 C2016 1.463 . S
C2013 C2018 1.350 . S
C2013 N2021 1.427 . S
C2014 H2005 0.930 . S
C2014 C2012 1.378 . S
C2014 C2015 1.367 . S
C2015 C2014 1.367 . S
C2015 C2017 1.433 . S
C2016 C2012 1.350 . S
C2016 C2013 1.463 . S
C2016 N2020 1.427 . S
C2017 H2007 0.929 . S
C2017 C2015 1.433 . S
C2017 N2020 1.384 . S
C2018 H2009 0.929 . S
C2018 C2010 1.378 . S
C2018 C2013 1.350 . S
C2019 H2006 0.929 . S
C2019 C2011 1.433 . S
C2019 N2021 1.384 . S
N2020 C2016 1.427 . S
N2020 C2017 1.384 . S
N2021 C2013 1.427 . S
N2021 C2019 1.384 . S
H2022 C2028 0.930 . S
H2023 C2032 0.930 . S
H2024 C2037 0.929 . S
H2025 C2035 0.929 . S
H2026 C2030 0.929 . S
H2027 C2036 0.929 . S
C2028 H2022 0.930 . S
C2028 C2029 1.367 . S
C2028 C2036 1.378 . S
C2029 C2028 1.367 . S
C2029 C2037 1.433 . S
C2030 H2026 0.929 . S
C2030 C2032 1.378 . S
C2030 C2034 1.350 . S
C2031 C2034 1.463 . S
C2031 C2036 1.350 . S
C2031 N2039 1.427 . S
C2032 H2023 0.930 . S
C2032 C2030 1.378 . S
C2032 C2033 1.367 . S
C2033 C2032 1.367 . S
C2033 C2035 1.433 . S
C2034 C2030 1.350 . S
C2034 C2031 1.463 . S
C2034 N2038 1.427 . S
C2035 H2025 0.929 . S
C2035 C2033 1.433 . S
C2035 N2038 1.384 . S
C2036 H2027 0.929 . S
C2036 C2028 1.378 . S
C2036 C2031 1.350 . S
C2037 H2024 0.929 . S
C2037 C2029 1.433 . S
C2037 N2039 1.384 . S
N2038 C2034 1.427 . S
N2038 C2035 1.384 . S
N2039 C2031 1.427 . S
N2039 C2037 1.384 . S
H2040 C2046 0.930 . S
H2041 C2050 0.930 . S
H2042 C2055 0.929 . S
H2043 C2053 0.929 . S
H2044 C2048 0.929 . S
H2045 C2054 0.929 . S
C2046 H2040 0.930 . S
C2046 C2047 1.367 . S
C2046 C2054 1.378 . S
C2047 C2046 1.367 . S
C2047 C2055 1.433 . S
C2048 H2044 0.929 . S
C2048 C2050 1.378 . S
C2048 C2052 1.350 . S
C2049 C2052 1.463 . S
C2049 C2054 1.350 . S
C2049 N2057 1.427 . S
C2050 H2041 0.930 . S
C2050 C2048 1.378 . S
C2050 C2051 1.367 . S
C2051 C2050 1.367 . S
C2051 C2053 1.433 . S
C2052 C2048 1.350 . S
C2052 C2049 1.463 . S
C2052 N2056 1.427 . S
C2053 H2043 0.929 . S
C2053 C2051 1.433 . S
C2053 N2056 1.384 . S
C2054 H2045 0.929 . S
C2054 C2046 1.378 . S
C2054 C2049 1.350 . S
C2055 H2042 0.929 . S
C2055 C2047 1.433 . S
C2055 N2057 1.384 . S
N2056 C2052 1.427 . S
N2056 C2053 1.384 . S
N2057 C2049 1.427 . S
N2057 C2055 1.384 . S
H2058 C2064 0.930 . S
H2059 C2068 0.930 . S
H2060 C2073 0.929 . S
H2061 C2071 0.929 . S
H2062 C2066 0.929 . S
H2063 C2072 0.929 . S
C2064 H2058 0.930 . S
C2064 C2065 1.367 . S
C2064 C2072 1.378 . S
C2065 C2064 1.367 . S
C2065 C2073 1.433 . S
C2066 H2062 0.929 . S
C2066 C2068 1.378 . S
C2066 C2070 1.350 . S
C2067 C2070 1.463 . S
C2067 C2072 1.350 . S
C2067 N2075 1.427 . S
C2068 H2059 0.930 . S
C2068 C2066 1.378 . S
C2068 C2069 1.367 . S
C2069 C2068 1.367 . S
C2069 C2071 1.433 . S
C2070 C2066 1.350 . S
C2070 C2067 1.463 . S
C2070 N2074 1.427 . S
C2071 H2061 0.929 . S
C2071 C2069 1.433 . S
C2071 N2074 1.384 . S
C2072 H2063 0.929 . S
C2072 C2064 1.378 . S
C2072 C2067 1.350 . S
C2073 H2060 0.929 . S
C2073 C2065 1.433 . S
C2073 N2075 1.384 . S
N2074 C2070 1.427 . S
N2074 C2071 1.384 . S
N2075 C2067 1.427 . S
N2075 C2073 1.384 . S
H2076 C2082 0.930 . S
H2077 C2086 0.930 . S
H2078 C2091 0.929 . S
H2079 C2089 0.929 . S
H2080 C2084 0.929 . S
H2081 C2090 0.929 . S
C2082 H2076 0.930 . S
C2082 C2083 1.367 . S
C2082 C2090 1.378 . S
C2083 C2082 1.367 . S
C2083 C2091 1.433 . S
C2084 H2080 0.929 . S
C2084 C2086 1.378 . S
C2084 C2088 1.350 . S
C2085 C2088 1.463 . S
C2085 C2090 1.350 . S
C2085 N2093 1.427 . S
C2086 H2077 0.930 . S
C2086 C2084 1.378 . S
C2086 C2087 1.367 . S
C2087 C2086 1.367 . S
C2087 C2089 1.433 . S
C2088 C2084 1.350 . S
C2088 C2085 1.463 . S
C2088 N2092 1.427 . S
C2089 H2079 0.929 . S
C2089 C2087 1.433 . S
C2089 N2092 1.384 . S
C2090 H2081 0.929 . S
C2090 C2082 1.378 . S
C2090 C2085 1.350 . S
C2091 H2078 0.929 . S
C2091 C2083 1.433 . S
C2091 N2093 1.384 . S
N2092 C2088 1.427 . S
N2092 C2089 1.384 . S
N2093 C2085 1.427 . S
N2093 C2091 1.384 . S
H2094 C2100 0.930 . S
H2095 C2104 0.930 . S
H2096 C2109 0.929 . S
H2097 C2107 0.929 . S
H2098 C2102 0.929 . S
H2099 C2108 0.929 . S
C2100 H2094 0.930 . S
C2100 C2101 1.367 . S
C2100 C2108 1.378 . S
C2101 C2100 1.367 . S
C2101 C2109 1.433 . S
C2102 H2098 0.929 . S
C2102 C2104 1.378 . S
C2102 C2106 1.350 . S
C2103 C2106 1.463 . S
C2103 C2108 1.350 . S
C2103 N2111 1.427 . S
C2104 H2095 0.930 . S
C2104 C2102 1.378 . S
C2104 C2105 1.367 . S
C2105 C2104 1.367 . S
C2105 C2107 1.433 . S
C2106 C2102 1.350 . S
C2106 C2103 1.463 . S
C2106 N2110 1.427 . S
C2107 H2097 0.929 . S
C2107 C2105 1.433 . S
C2107 N2110 1.384 . S
C2108 H2099 0.929 . S
C2108 C2100 1.378 . S
C2108 C2103 1.350 . S
C2109 H2096 0.929 . S
C2109 C2101 1.433 . S
C2109 N2111 1.384 . S
N2110 C2106 1.427 . S
N2110 C2107 1.384 . S
N2111 C2103 1.427 . S
N2111 C2109 1.384 . S
H2112 C2118 0.930 . S
H2113 C2122 0.930 . S
H2114 C2127 0.929 . S
H2115 C2125 0.929 . S
H2116 C2120 0.929 . S
H2117 C2126 0.929 . S
C2118 H2112 0.930 . S
C2118 C2119 1.367 . S
C2118 C2126 1.378 . S
C2119 C2118 1.367 . S
C2119 C2127 1.433 . S
C2120 H2116 0.929 . S
C2120 C2122 1.378 . S
C2120 C2124 1.350 . S
C2121 C2124 1.463 . S
C2121 C2126 1.350 . S
C2121 N2129 1.427 . S
C2122 H2113 0.930 . S
C2122 C2120 1.378 . S
C2122 C2123 1.367 . S
C2123 C2122 1.367 . S
C2123 C2125 1.433 . S
C2124 C2120 1.350 . S
C2124 C2121 1.463 . S
C2124 N2128 1.427 . S
C2125 H2115 0.929 . S
C2125 C2123 1.433 . S
C2125 N2128 1.384 . S
C2126 H2117 0.929 . S
C2126 C2118 1.378 . S
C2126 C2121 1.350 . S
C2127 H2114 0.929 . S
C2127 C2119 1.433 . S
C2127 N2129 1.384 . S
N2128 C2124 1.427 . S
N2128 C2125 1.384 . S
N2129 C2121 1.427 . S
N2129 C2127 1.384 . S
H2130 C2136 0.930 . S
H2131 C2140 0.930 . S
H2132 C2145 0.929 . S
H2133 C2143 0.929 . S
H2134 C2138 0.929 . S
H2135 C2144 0.929 . S
C2136 H2130 0.930 . S
C2136 C2137 1.367 . S
C2136 C2144 1.378 . S
C2137 C2136 1.367 . S
C2137 C2145 1.433 . S
C2138 H2134 0.929 . S
C2138 C2140 1.378 . S
C2138 C2142 1.350 . S
C2139 C2142 1.463 . S
C2139 C2144 1.350 . S
C2139 N2147 1.427 . S
C2140 H2131 0.930 . S
C2140 C2138 1.378 . S
C2140 C2141 1.367 . S
C2141 C2140 1.367 . S
C2141 C2143 1.433 . S
C2142 C2138 1.350 . S
C2142 C2139 1.463 . S
C2142 N2146 1.427 . S
C2143 H2133 0.929 . S
C2143 C2141 1.433 . S
C2143 N2146 1.384 . S
C2144 H2135 0.929 . S
C2144 C2136 1.378 . S
C2144 C2139 1.350 . S
C2145 H2132 0.929 . S
C2145 C2137 1.433 . S
C2145 N2147 1.384 . S
N2146 C2142 1.427 . S
N2146 C2143 1.384 . S
N2147 C2139 1.427 . S
N2147 C2145 1.384 . S
H2148 C2154 0.930 . S
H2149 C2158 0.930 . S
H2150 C2163 0.929 . S
H2151 C2161 0.929 . S
H2152 C2156 0.929 . S
H2153 C2162 0.929 . S
C2154 H2148 0.930 . S
C2154 C2155 1.367 . S
C2154 C2162 1.378 . S
C2155 C2154 1.367 . S
C2155 C2163 1.433 . S
C2156 H2152 0.929 . S
C2156 C2158 1.378 . S
C2156 C2160 1.350 . S
C2157 C2160 1.463 . S
C2157 C2162 1.350 . S
C2157 N2165 1.427 . S
C2158 H2149 0.930 . S
C2158 C2156 1.378 . S
C2158 C2159 1.367 . S
C2159 C2158 1.367 . S
C2159 C2161 1.433 . S
C2160 C2156 1.350 . S
C2160 C2157 1.463 . S
C2160 N2164 1.427 . S
C2161 H2151 0.929 . S
C2161 C2159 1.433 . S
C2161 N2164 1.384 . S
C2162 H2153 0.929 . S
C2162 C2154 1.378 . S
C2162 C2157 1.350 . S
C2163 H2150 0.929 . S
C2163 C2155 1.433 . S
C2163 N2165 1.384 . S
N2164 C2160 1.427 . S
N2164 C2161 1.384 . S
N2165 C2157 1.427 . S
N2165 C2163 1.384 . S
H2166 C2172 0.930 . S
H2167 C2176 0.930 . S
H2168 C2181 0.929 . S
H2169 C2179 0.929 . S
H2170 C2174 0.929 . S
H2171 C2180 0.929 . S
C2172 H2166 0.930 . S
C2172 C2173 1.367 . S
C2172 C2180 1.378 . S
C2173 C2172 1.367 . S
C2173 C2181 1.433 . S
C2174 H2170 0.929 . S
C2174 C2176 1.378 . S
C2174 C2178 1.350 . S
C2175 C2178 1.463 . S
C2175 C2180 1.350 . S
C2175 N2183 1.427 . S
C2176 H2167 0.930 . S
C2176 C2174 1.378 . S
C2176 C2177 1.367 . S
C2177 C2176 1.367 . S
C2177 C2179 1.433 . S
C2178 C2174 1.350 . S
C2178 C2175 1.463 . S
C2178 N2182 1.427 . S
C2179 H2169 0.929 . S
C2179 C2177 1.433 . S
C2179 N2182 1.384 . S
C2180 H2171 0.929 . S
C2180 C2172 1.378 . S
C2180 C2175 1.350 . S
C2181 H2168 0.929 . S
C2181 C2173 1.433 . S
C2181 N2183 1.384 . S
N2182 C2178 1.427 . S
N2182 C2179 1.384 . S
N2183 C2175 1.427 . S
N2183 C2181 1.384 . S
H2184 C2190 0.930 . S
H2185 C2194 0.930 . S
H2186 C2199 0.929 . S
H2187 C2197 0.929 . S
H2188 C2192 0.929 . S
H2189 C2198 0.929 . S
C2190 H2184 0.930 . S
C2190 C2191 1.367 . S
C2190 C2198 1.378 . S
C2191 C2190 1.367 . S
C2191 C2199 1.433 . S
C2192 H2188 0.929 . S
C2192 C2194 1.378 . S
C2192 C2196 1.350 . S
C2193 C2196 1.463 . S
C2193 C2198 1.350 . S
C2193 N2201 1.427 . S
C2194 H2185 0.930 . S
C2194 C2192 1.378 . S
C2194 C2195 1.367 . S
C2195 C2194 1.367 . S
C2195 C2197 1.433 . S
C2196 C2192 1.350 . S
C2196 C2193 1.463 . S
C2196 N2200 1.427 . S
C2197 H2187 0.929 . S
C2197 C2195 1.433 . S
C2197 N2200 1.384 . S
C2198 H2189 0.929 . S
C2198 C2190 1.378 . S
C2198 C2193 1.350 . S
C2199 H2186 0.929 . S
C2199 C2191 1.433 . S
C2199 N2201 1.384 . S
N2200 C2196 1.427 . S
N2200 C2197 1.384 . S
N2201 C2193 1.427 . S
N2201 C2199 1.384 . S
H2202 C2208 0.930 . S
H2203 C2212 0.930 . S
H2204 C2217 0.929 . S
H2205 C2215 0.929 . S
H2206 C2210 0.929 . S
H2207 C2216 0.929 . S
C2208 H2202 0.930 . S
C2208 C2209 1.367 . S
C2208 C2216 1.378 . S
C2209 C2208 1.367 . S
C2209 C2217 1.433 . S
C2210 H2206 0.929 . S
C2210 C2212 1.378 . S
C2210 C2214 1.350 . S
C2211 C2214 1.463 . S
C2211 C2216 1.350 . S
C2211 N2219 1.427 . S
C2212 H2203 0.930 . S
C2212 C2210 1.378 . S
C2212 C2213 1.367 . S
C2213 C2212 1.367 . S
C2213 C2215 1.433 . S
C2214 C2210 1.350 . S
C2214 C2211 1.463 . S
C2214 N2218 1.427 . S
C2215 H2205 0.929 . S
C2215 C2213 1.433 . S
C2215 N2218 1.384 . S
C2216 H2207 0.929 . S
C2216 C2208 1.378 . S
C2216 C2211 1.350 . S
C2217 H2204 0.929 . S
C2217 C2209 1.433 . S
C2217 N2219 1.384 . S
N2218 C2214 1.427 . S
N2218 C2215 1.384 . S
N2219 C2211 1.427 . S
N2219 C2217 1.384 . S
H2220 C2226 0.930 . S
H2221 C2230 0.930 . S
H2222 C2235 0.929 . S
H2223 C2233 0.929 . S
H2224 C2228 0.929 . S
H2225 C2234 0.929 . S
C2226 H2220 0.930 . S
C2226 C2227 1.367 . S
C2226 C2234 1.378 . S
C2227 C2226 1.367 . S
C2227 C2235 1.433 . S
C2228 H2224 0.929 . S
C2228 C2230 1.378 . S
C2228 C2232 1.350 . S
C2229 C2232 1.463 . S
C2229 C2234 1.350 . S
C2229 N2237 1.427 . S
C2230 H2221 0.930 . S
C2230 C2228 1.378 . S
C2230 C2231 1.367 . S
C2231 C2230 1.367 . S
C2231 C2233 1.433 . S
C2232 C2228 1.350 . S
C2232 C2229 1.463 . S
C2232 N2236 1.427 . S
C2233 H2223 0.929 . S
C2233 C2231 1.433 . S
C2233 N2236 1.384 . S
C2234 H2225 0.929 . S
C2234 C2226 1.378 . S
C2234 C2229 1.350 . S
C2235 H2222 0.929 . S
C2235 C2227 1.433 . S
C2235 N2237 1.384 . S
N2236 C2232 1.427 . S
N2236 C2233 1.384 . S
N2237 C2229 1.427 . S
N2237 C2235 1.384 . S
H2238 C2244 0.930 . S
H2239 C2248 0.930 . S
H2240 C2253 0.929 . S
H2241 C2251 0.929 . S
H2242 C2246 0.929 . S
H2243 C2252 0.929 . S
C2244 H2238 0.930 . S
C2244 C2245 1.367 . S
C2244 C2252 1.378 . S
C2245 C2244 1.367 . S
C2245 C2253 1.433 . S
C2246 H2242 0.929 . S
C2246 C2248 1.378 . S
C2246 C2250 1.350 . S
C2247 C2250 1.463 . S
C2247 C2252 1.350 . S
C2247 N2255 1.427 . S
C2248 H2239 0.930 . S
C2248 C2246 1.378 . S
C2248 C2249 1.367 . S
C2249 C2248 1.367 . S
C2249 C2251 1.433 . S
C2250 C2246 1.350 . S
C2250 C2247 1.463 . S
C2250 N2254 1.427 . S
C2251 H2241 0.929 . S
C2251 C2249 1.433 . S
C2251 N2254 1.384 . S
C2252 H2243 0.929 . S
C2252 C2244 1.378 . S
C2252 C2247 1.350 . S
C2253 H2240 0.929 . S
C2253 C2245 1.433 . S
C2253 N2255 1.384 . S
N2254 C2250 1.427 . S
N2254 C2251 1.384 . S
N2255 C2247 1.427 . S
N2255 C2253 1.384 . S
H2256 C2262 0.930 . S
H2257 C2266 0.930 . S
H2258 C2271 0.929 . S
H2259 C2269 0.929 . S
H2260 C2264 0.929 . S
H2261 C2270 0.929 . S
C2262 H2256 0.930 . S
C2262 C2263 1.367 . S
C2262 C2270 1.378 . S
C2263 C2262 1.367 . S
C2263 C2271 1.433 . S
C2264 H2260 0.929 . S
C2264 C2266 1.378 . S
C2264 C2268 1.350 . S
C2265 C2268 1.463 . S
C2265 C2270 1.350 . S
C2265 N2273 1.427 . S
C2266 H2257 0.930 . S
C2266 C2264 1.378 . S
C2266 C2267 1.367 . S
C2267 C2266 1.367 . S
C2267 C2269 1.433 . S
C2268 C2264 1.350 . S
C2268 C2265 1.463 . S
C2268 N2272 1.427 . S
C2269 H2259 0.929 . S
C2269 C2267 1.433 . S
C2269 N2272 1.384 . S
C2270 H2261 0.929 . S
C2270 C2262 1.378 . S
C2270 C2265 1.350 . S
C2271 H2258 0.929 . S
C2271 C2263 1.433 . S
C2271 N2273 1.384 . S
N2272 C2268 1.427 . S
N2272 C2269 1.384 . S
N2273 C2265 1.427 . S
N2273 C2271 1.384 . S
H2274 C2280 0.930 . S
H2275 C2284 0.930 . S
H2276 C2289 0.929 . S
H2277 C2287 0.929 . S
H2278 C2282 0.929 . S
H2279 C2288 0.929 . S
C2280 H2274 0.930 . S
C2280 C2281 1.367 . S
C2280 C2288 1.378 . S
C2281 C2280 1.367 . S
C2281 C2289 1.433 . S
C2282 H2278 0.929 . S
C2282 C2284 1.378 . S
C2282 C2286 1.350 . S
C2283 C2286 1.463 . S
C2283 C2288 1.350 . S
C2283 N2291 1.427 . S
C2284 H2275 0.930 . S
C2284 C2282 1.378 . S
C2284 C2285 1.367 . S
C2285 C2284 1.367 . S
C2285 C2287 1.433 . S
C2286 C2282 1.350 . S
C2286 C2283 1.463 . S
C2286 N2290 1.427 . S
C2287 H2277 0.929 . S
C2287 C2285 1.433 . S
C2287 N2290 1.384 . S
C2288 H2279 0.929 . S
C2288 C2280 1.378 . S
C2288 C2283 1.350 . S
C2289 H2276 0.929 . S
C2289 C2281 1.433 . S
C2289 N2291 1.384 . S
N2290 C2286 1.427 . S
N2290 C2287 1.384 . S
N2291 C2283 1.427 . S
N2291 C2289 1.384 . S
H2292 C2298 0.930 . S
H2293 C2302 0.930 . S
H2294 C2307 0.929 . S
H2295 C2305 0.929 . S
H2296 C2300 0.929 . S
H2297 C2306 0.929 . S
C2298 H2292 0.930 . S
C2298 C2299 1.367 . S
C2298 C2306 1.378 . S
C2299 C2298 1.367 . S
C2299 C2307 1.433 . S
C2300 H2296 0.929 . S
C2300 C2302 1.378 . S
C2300 C2304 1.350 . S
C2301 C2304 1.463 . S
C2301 C2306 1.350 . S
C2301 N2309 1.427 . S
C2302 H2293 0.930 . S
C2302 C2300 1.378 . S
C2302 C2303 1.367 . S
C2303 C2302 1.367 . S
C2303 C2305 1.433 . S
C2304 C2300 1.350 . S
C2304 C2301 1.463 . S
C2304 N2308 1.427 . S
C2305 H2295 0.929 . S
C2305 C2303 1.433 . S
C2305 N2308 1.384 . S
C2306 H2297 0.929 . S
C2306 C2298 1.378 . S
C2306 C2301 1.350 . S
C2307 H2294 0.929 . S
C2307 C2299 1.433 . S
C2307 N2309 1.384 . S
N2308 C2304 1.427 . S
N2308 C2305 1.384 . S
N2309 C2301 1.427 . S
N2309 C2307 1.384 . S
H2310 C2316 0.930 . S
H2311 C2320 0.930 . S
H2312 C2325 0.929 . S
H2313 C2323 0.929 . S
H2314 C2318 0.929 . S
H2315 C2324 0.929 . S
C2316 H2310 0.930 . S
C2316 C2317 1.367 . S
C2316 C2324 1.378 . S
C2317 C2316 1.367 . S
C2317 C2325 1.433 . S
C2318 H2314 0.929 . S
C2318 C2320 1.378 . S
C2318 C2322 1.350 . S
C2319 C2322 1.463 . S
C2319 C2324 1.350 . S
C2319 N2327 1.427 . S
C2320 H2311 0.930 . S
C2320 C2318 1.378 . S
C2320 C2321 1.367 . S
C2321 C2320 1.367 . S
C2321 C2323 1.433 . S
C2322 C2318 1.350 . S
C2322 C2319 1.463 . S
C2322 N2326 1.427 . S
C2323 H2313 0.929 . S
C2323 C2321 1.433 . S
C2323 N2326 1.384 . S
C2324 H2315 0.929 . S
C2324 C2316 1.378 . S
C2324 C2319 1.350 . S
C2325 H2312 0.929 . S
C2325 C2317 1.433 . S
C2325 N2327 1.384 . S
N2326 C2322 1.427 . S
N2326 C2323 1.384 . S
N2327 C2319 1.427 . S
N2327 C2325 1.384 . S
H2328 C2334 0.930 . S
H2329 C2338 0.930 . S
H2330 C2343 0.929 . S
H2331 C2341 0.929 . S
H2332 C2336 0.929 . S
H2333 C2342 0.929 . S
C2334 H2328 0.930 . S
C2334 C2335 1.367 . S
C2334 C2342 1.378 . S
C2335 C2334 1.367 . S
C2335 C2343 1.433 . S
C2336 H2332 0.929 . S
C2336 C2338 1.378 . S
C2336 C2340 1.350 . S
C2337 C2340 1.463 . S
C2337 C2342 1.350 . S
C2337 N2345 1.427 . S
C2338 H2329 0.930 . S
C2338 C2336 1.378 . S
C2338 C2339 1.367 . S
C2339 C2338 1.367 . S
C2339 C2341 1.433 . S
C2340 C2336 1.350 . S
C2340 C2337 1.463 . S
C2340 N2344 1.427 . S
C2341 H2331 0.929 . S
C2341 C2339 1.433 . S
C2341 N2344 1.384 . S
C2342 H2333 0.929 . S
C2342 C2334 1.378 . S
C2342 C2337 1.350 . S
C2343 H2330 0.929 . S
C2343 C2335 1.433 . S
C2343 N2345 1.384 . S
N2344 C2340 1.427 . S
N2344 C2341 1.384 . S
N2345 C2337 1.427 . S
N2345 C2343 1.384 . S
H2346 C2352 0.930 . S
H2347 C2356 0.930 . S
H2348 C2361 0.929 . S
H2349 C2359 0.929 . S
H2350 C2354 0.929 . S
H2351 C2360 0.929 . S
C2352 H2346 0.930 . S
C2352 C2353 1.367 . S
C2352 C2360 1.378 . S
C2353 C2352 1.367 . S
C2353 C2361 1.433 . S
C2354 H2350 0.929 . S
C2354 C2356 1.378 . S
C2354 C2358 1.350 . S
C2355 C2358 1.463 . S
C2355 C2360 1.350 . S
C2355 N2363 1.427 . S
C2356 H2347 0.930 . S
C2356 C2354 1.378 . S
C2356 C2357 1.367 . S
C2357 C2356 1.367 . S
C2357 C2359 1.433 . S
C2358 C2354 1.350 . S
C2358 C2355 1.463 . S
C2358 N2362 1.427 . S
C2359 H2349 0.929 . S
C2359 C2357 1.433 . S
C2359 N2362 1.384 . S
C2360 H2351 0.929 . S
C2360 C2352 1.378 . S
C2360 C2355 1.350 . S
C2361 H2348 0.929 . S
C2361 C2353 1.433 . S
C2361 N2363 1.384 . S
N2362 C2358 1.427 . S
N2362 C2359 1.384 . S
N2363 C2355 1.427 . S
N2363 C2361 1.384 . S
H2364 C2370 0.930 . S
H2365 C2374 0.930 . S
H2366 C2379 0.929 . S
H2367 C2377 0.929 . S
H2368 C2372 0.929 . S
H2369 C2378 0.929 . S
C2370 H2364 0.930 . S
C2370 C2371 1.367 . S
C2370 C2378 1.378 . S
C2371 C2370 1.367 . S
C2371 C2379 1.433 . S
C2372 H2368 0.929 . S
C2372 C2374 1.378 . S
C2372 C2376 1.350 . S
C2373 C2376 1.463 . S
C2373 C2378 1.350 . S
C2373 N2381 1.427 . S
C2374 H2365 0.930 . S
C2374 C2372 1.378 . S
C2374 C2375 1.367 . S
C2375 C2374 1.367 . S
C2375 C2377 1.433 . S
C2376 C2372 1.350 . S
C2376 C2373 1.463 . S
C2376 N2380 1.427 . S
C2377 H2367 0.929 . S
C2377 C2375 1.433 . S
C2377 N2380 1.384 . S
C2378 H2369 0.929 . S
C2378 C2370 1.378 . S
C2378 C2373 1.350 . S
C2379 H2366 0.929 . S
C2379 C2371 1.433 . S
C2379 N2381 1.384 . S
N2380 C2376 1.427 . S
N2380 C2377 1.384 . S
N2381 C2373 1.427 . S
N2381 C2379 1.384 . S
H2382 C2388 0.930 . S
H2383 C2392 0.930 . S
H2384 C2397 0.929 . S
H2385 C2395 0.929 . S
H2386 C2390 0.929 . S
H2387 C2396 0.929 . S
C2388 H2382 0.930 . S
C2388 C2389 1.367 . S
C2388 C2396 1.378 . S
C2389 C2388 1.367 . S
C2389 C2397 1.433 . S
C2390 H2386 0.929 . S
C2390 C2392 1.378 . S
C2390 C2394 1.350 . S
C2391 C2394 1.463 . S
C2391 C2396 1.350 . S
C2391 N2399 1.427 . S
C2392 H2383 0.930 . S
C2392 C2390 1.378 . S
C2392 C2393 1.367 . S
C2393 C2392 1.367 . S
C2393 C2395 1.433 . S
C2394 C2390 1.350 . S
C2394 C2391 1.463 . S
C2394 N2398 1.427 . S
C2395 H2385 0.929 . S
C2395 C2393 1.433 . S
C2395 N2398 1.384 . S
C2396 H2387 0.929 . S
C2396 C2388 1.378 . S
C2396 C2391 1.350 . S
C2397 H2384 0.929 . S
C2397 C2389 1.433 . S
C2397 N2399 1.384 . S
N2398 C2394 1.427 . S
N2398 C2395 1.384 . S
N2399 C2391 1.427 . S
N2399 C2397 1.384 . S
C679 C445 1.379 . S
C683 C11 1.379 . S
C697 C25 1.376 . S
C701 C403 1.376 . S
C715 C39 1.379 . S
C719 C417 1.379 . S
C733 C431 1.378 . S
C737 C53 1.378 . S
C751 C361 1.379 . S
C755 C67 1.379 . S
C769 C81 1.376 . S
C773 C375 1.376 . S
C787 C389 1.377 . S
C791 C95 1.377 . S
C805 C109 1.379 . S
C809 C347 1.379 . S
C823 C123 1.376 . S
C827 C627 1.376 . S
C841 C585 1.379 . S
C845 C137 1.379 . S
C859 C599 1.379 . S
C863 C151 1.379 . S
C877 C165 1.378 . S
C881 C613 1.378 . S
C895 C179 1.377 . S
C899 C669 1.377 . S
C913 C193 1.377 . S
C917 C641 1.377 . S
C931 C207 1.378 . S
C935 C655 1.378 . S
C949 C571 1.377 . S
C953 C221 1.377 . S
C967 C557 1.379 . S
C971 C235 1.379 . S
C985 C249 1.376 . S
C989 C473 1.376 . S
C1003 C487 1.378 . S
C1007 C263 1.378 . S
C1021 C277 1.379 . S
C1025 C501 1.379 . S
C1039 C459 1.376 . S
C1043 C291 1.376 . S
C1057 C529 1.378 . S
C1061 C305 1.378 . S
C1075 C319 1.376 . S
C1079 C543 1.376 . S
C1093 C515 1.378 . S
C1097 C333 1.378 . S
C1111 C135 1.299 . S
C1115 C9 1.295 . S
C1129 C149 1.299 . S
C1133 C23 1.298 . S
C1147 C37 1.295 . S
C1151 C163 1.299 . S
C1165 C121 1.301 . S
C1169 C51 1.294 . S
C1183 C65 1.295 . S
C1187 C219 1.300 . S
C1201 C177 1.298 . S
C1205 C79 1.299 . S
C1219 C191 1.300 . S
C1223 C93 1.298 . S
C1237 C205 1.294 . S
C1241 C107 1.301 . S
C1255 C261 1.297 . S
C1259 C233 1.297 . S
C1273 C317 1.299 . S
C1277 C247 1.298 . S
C1291 C331 1.295 . S
C1295 C275 1.302 . S
C1309 C289 1.301 . S
C1313 C303 1.297 . S
C1327 C471 1.295 . S
C1331 C345 1.300 . S
C1345 C485 1.295 . S
C1349 C359 1.302 . S
C1363 C499 1.302 . S
C1367 C373 1.295 . S
C1381 C387 1.294 . S
C1385 C457 1.301 . S
C1399 C401 1.300 . S
C1403 C555 1.295 . S
C1417 C415 1.297 . S
C1421 C513 1.301 . S
C1435 C527 1.295 . S
C1439 C429 1.302 . S
C1453 C541 1.295 . S
C1457 C443 1.302 . S
C1471 C569 1.295 . S
C1475 C597 1.300 . S
C1489 C653 1.300 . S
C1493 C583 1.297 . S
C1507 C667 1.300 . S
C1511 C611 1.295 . S
C1525 C639 1.298 . S
C1529 C625 1.296 . S
C1543 C0 1.430 . S
C1547 C257 1.423 . S
C1561 C14 1.430 . S
C1565 C271 1.428 . S
C1579 C28 1.431 . S
C1583 C285 1.424 . S
C1597 C243 1.429 . S
C1601 C42 1.427 . S
C1615 C56 1.430 . S
C1619 C313 1.423 . S
C1633 C70 1.427 . S
C1637 C229 1.425 . S
C1651 C327 1.425 . S
C1655 C84 1.427 . S
C1669 C299 1.423 . S
C1673 C98 1.431 . S
C1687 C112 1.428 . S
C1691 C131 1.429 . S
C1705 C126 1.431 . S
C1709 C145 1.423 . S
C1723 C140 1.431 . S
C1727 C159 1.425 . S
C1741 C117 1.425 . S
C1745 C154 1.427 . S
C1759 C215 1.427 . S
C1763 C168 1.430 . S
C1777 C173 1.429 . S
C1781 C182 1.428 . S
C1795 C187 1.427 . S
C1799 C196 1.430 . S
C1813 C210 1.427 . S
C1817 C201 1.429 . S
C1831 C47 1.423 . S
C1835 C224 1.431 . S
C1849 C75 1.428 . S
C1853 C238 1.429 . S
C1867 C89 1.429 . S
C1871 C252 1.429 . S
C1885 C266 1.427 . S
C1889 C103 1.425 . S
C1903 C61 1.425 . S
C1907 C280 1.427 . S
C1921 C19 1.429 . S
C1925 C294 1.426 . S
C1939 C33 1.423 . S
C1943 C308 1.431 . S
C1957 C5 1.429 . S
C1961 C322 1.427 . S
C1975 C593 1.428 . S
C1979 C336 1.430 . S
C1993 C350 1.431 . S
C1997 C607 1.424 . S
C2011 C621 1.424 . S
C2015 C364 1.428 . S
C2029 C579 1.424 . S
C2033 C378 1.428 . S
C2047 C392 1.426 . S
C2051 C649 1.427 . S
C2065 C406 1.430 . S
C2069 C565 1.427 . S
C2083 C663 1.429 . S
C2087 C420 1.429 . S
C2101 C434 1.429 . S
C2105 C635 1.428 . S
C2119 C448 1.427 . S
C2123 C467 1.429 . S
C2137 C462 1.427 . S
C2141 C481 1.429 . S
C2155 C476 1.426 . S
C2159 C495 1.429 . S
C2173 C490 1.427 . S
C2177 C453 1.425 . S
C2191 C551 1.424 . S
C2195 C504 1.428 . S
C2209 C509 1.423 . S
C2213 C518 1.429 . S
C2227 C523 1.424 . S
C2231 C532 1.428 . S
C2245 C546 1.431 . S
C2249 C537 1.423 . S
C2263 C383 1.429 . S
C2267 C560 1.428 . S
C2281 C411 1.428 . S
C2285 C574 1.430 . S
C2299 C425 1.426 . S
C2303 C588 1.427 . S
C2317 C602 1.427 . S
C2321 C439 1.429 . S
C2335 C397 1.429 . S
C2339 C616 1.427 . S
C2353 C355 1.429 . S
C2357 C630 1.427 . S
C2371 C644 1.429 . S
C2375 C369 1.429 . S
C2389 C341 1.425 . S
C2393 C658 1.427 . S
