# Generated by pormake.
# Topology cag, (4)-cn, num edge types: 1
# Building blocks:
#     Node 0, Type 0, BuildingBlock: NAHDIM_clean_sbu_0, # of connection points: 4
#     Node 1, Type 0, BuildingBlock: NAHDIM_clean_sbu_0, # of connection points: 4
#     Node 2, Type 0, BuildingBlock: NAHDIM_clean_sbu_0, # of connection points: 4
#     Node 3, Type 0, BuildingBlock: NAHDIM_clean_sbu_0, # of connection points: 4
#     Node 4, Type 0, BuildingBlock: NAHDIM_clean_sbu_0, # of connection points: 4
#     Node 5, Type 0, BuildingBlock: NAHDIM_clean_sbu_0, # of connection points: 4
#     Node 6, Type 0, BuildingBlock: NAHDIM_clean_sbu_0, # of connection points: 4
#     Node 7, Type 0, BuildingBlock: NAHDIM_clean_sbu_0, # of connection points: 4
#     Node 8, Type 0, BuildingBlock: NAHDIM_clean_sbu_0, # of connection points: 4
#     Node 9, Type 0, BuildingBlock: NAHDIM_clean_sbu_0, # of connection points: 4
#     Node 10, Type 0, BuildingBlock: NAHDIM_clean_sbu_0, # of connection points: 4
#     Node 11, Type 0, BuildingBlock: NAHDIM_clean_sbu_0, # of connection points: 4
#     Node 12, Type 0, BuildingBlock: NAHDIM_clean_sbu_0, # of connection points: 4
#     Node 13, Type 0, BuildingBlock: NAHDIM_clean_sbu_0, # of connection points: 4
#     Node 14, Type 0, BuildingBlock: NAHDIM_clean_sbu_0, # of connection points: 4
#     Node 15, Type 0, BuildingBlock: NAHDIM_clean_sbu_0, # of connection points: 4
#     Edge 16, Type (0, 0), BuildingBlock: MIFKUJ_clean_linker_0, # of connection points: 2
#     Edge 17, Type (0, 0), BuildingBlock: MIFKUJ_clean_linker_0, # of connection points: 2
#     Edge 18, Type (0, 0), BuildingBlock: MIFKUJ_clean_linker_0, # of connection points: 2
#     Edge 19, Type (0, 0), BuildingBlock: MIFKUJ_clean_linker_0, # of connection points: 2
#     Edge 20, Type (0, 0), BuildingBlock: MIFKUJ_clean_linker_0, # of connection points: 2
#     Edge 21, Type (0, 0), BuildingBlock: MIFKUJ_clean_linker_0, # of connection points: 2
#     Edge 22, Type (0, 0), BuildingBlock: MIFKUJ_clean_linker_0, # of connection points: 2
#     Edge 23, Type (0, 0), BuildingBlock: MIFKUJ_clean_linker_0, # of connection points: 2
#     Edge 24, Type (0, 0), BuildingBlock: MIFKUJ_clean_linker_0, # of connection points: 2
#     Edge 25, Type (0, 0), BuildingBlock: MIFKUJ_clean_linker_0, # of connection points: 2
#     Edge 26, Type (0, 0), BuildingBlock: MIFKUJ_clean_linker_0, # of connection points: 2
#     Edge 27, Type (0, 0), BuildingBlock: MIFKUJ_clean_linker_0, # of connection points: 2
#     Edge 28, Type (0, 0), BuildingBlock: MIFKUJ_clean_linker_0, # of connection points: 2
#     Edge 29, Type (0, 0), BuildingBlock: MIFKUJ_clean_linker_0, # of connection points: 2
#     Edge 30, Type (0, 0), BuildingBlock: MIFKUJ_clean_linker_0, # of connection points: 2
#     Edge 31, Type (0, 0), BuildingBlock: MIFKUJ_clean_linker_0, # of connection points: 2
#     Edge 32, Type (0, 0), BuildingBlock: MIFKUJ_clean_linker_0, # of connection points: 2
#     Edge 33, Type (0, 0), BuildingBlock: MIFKUJ_clean_linker_0, # of connection points: 2
#     Edge 34, Type (0, 0), BuildingBlock: MIFKUJ_clean_linker_0, # of connection points: 2
#     Edge 35, Type (0, 0), BuildingBlock: MIFKUJ_clean_linker_0, # of connection points: 2
#     Edge 36, Type (0, 0), BuildingBlock: MIFKUJ_clean_linker_0, # of connection points: 2
#     Edge 37, Type (0, 0), BuildingBlock: MIFKUJ_clean_linker_0, # of connection points: 2
#     Edge 38, Type (0, 0), BuildingBlock: MIFKUJ_clean_linker_0, # of connection points: 2
#     Edge 39, Type (0, 0), BuildingBlock: MIFKUJ_clean_linker_0, # of connection points: 2
#     Edge 40, Type (0, 0), BuildingBlock: MIFKUJ_clean_linker_0, # of connection points: 2
#     Edge 41, Type (0, 0), BuildingBlock: MIFKUJ_clean_linker_0, # of connection points: 2
#     Edge 42, Type (0, 0), BuildingBlock: MIFKUJ_clean_linker_0, # of connection points: 2
#     Edge 43, Type (0, 0), BuildingBlock: MIFKUJ_clean_linker_0, # of connection points: 2
#     Edge 44, Type (0, 0), BuildingBlock: MIFKUJ_clean_linker_0, # of connection points: 2
#     Edge 45, Type (0, 0), BuildingBlock: MIFKUJ_clean_linker_0, # of connection points: 2
#     Edge 46, Type (0, 0), BuildingBlock: MIFKUJ_clean_linker_0, # of connection points: 2
#     Edge 47, Type (0, 0), BuildingBlock: MIFKUJ_clean_linker_0, # of connection points: 2
# Relax obj value: 0.038
# Max RMSD: 0.071
# Mean RMSD: 0.070
data_MOF--net-cag--node1-NAHDIM_clean_sbu_0--edge1-MIFKUJ_clean_linker_0
_symmetry_space_group_name_H-M    P1
_symmetry_Int_Tables_number       1
_symmetry_cell_setting            triclinic
loop_
_symmetry_equiv_pos_as_xyz
'x, y, z'
_cell_length_a     54.308569
_cell_length_b     65.092767
_cell_length_c     55.527312
_cell_angle_alpha  90.006979
_cell_angle_beta   90.006388
_cell_angle_gamma 90.003876
loop_
_atom_site_label
_atom_site_type_symbol
_atom_site_fract_x
_atom_site_fract_y
_atom_site_fract_z
_atom_type_partial_charge
C0 C 0.3082 0.17567 0.06329 0.0
O1 O 0.32767 0.17793 0.07708 0.0
O2 O 0.35133 0.13727 0.07777 0.0
Zn3 Zn 0.31456 0.13385 0.07747 0.0
O4 O 0.30205 0.1326 0.11143 0.0
C5 C 0.31534 0.10485 0.03918 0.0
O6 O 0.32878 0.11941 0.02937 0.0
O7 O 0.29904 0.15786 0.06057 0.0
C8 C 0.28156 0.12415 0.11629 0.0
O9 O 0.26847 0.11616 0.09873 0.0
C10 C 0.36448 0.1277 0.093 0.0
O11 O 0.35374 0.1156 0.10876 0.0
O12 O 0.30658 0.10764 0.06013 0.0
C13 C 0.20468 0.83099 0.57161 0.0
O14 O 0.19818 0.82975 0.59435 0.0
O15 O 0.14675 0.86471 0.57727 0.0
Zn16 Zn 0.1832 0.8707 0.57715 0.0
O17 O 0.19666 0.87318 0.6109 0.0
C18 C 0.17696 0.91306 0.56666 0.0
O19 O 0.16153 0.91117 0.58474 0.0
O20 O 0.20053 0.84753 0.56014 0.0
C21 C 0.18423 0.87918 0.62898 0.0
O22 O 0.16103 0.88434 0.62614 0.0
C23 C 0.13641 0.85236 0.59185 0.0
O24 O 0.14972 0.84284 0.60812 0.0
O25 O 0.18889 0.89737 0.55964 0.0
C26 C 0.30617 0.8335 0.94629 0.0
O27 O 0.32893 0.83951 0.95015 0.0
O28 O 0.34353 0.86263 0.90724 0.0
Zn29 Zn 0.30709 0.86655 0.91179 0.0
O30 O 0.29017 0.86812 0.87952 0.0
C31 C 0.31171 0.9092 0.92066 0.0
O32 O 0.32471 0.90761 0.90079 0.0
O33 O 0.29314 0.84299 0.93087 0.0
C34 C 0.30196 0.87226 0.86035 0.0
O35 O 0.3258 0.8755 0.86149 0.0
C36 C 0.35289 0.84661 0.89792 0.0
O37 O 0.33836 0.83159 0.89097 0.0
O38 O 0.30177 0.89317 0.92938 0.0
C39 C 0.23002 0.16791 0.42137 0.0
O40 O 0.24145 0.15984 0.40279 0.0
O41 O 0.15636 0.14247 0.40935 0.0
Zn42 Zn 0.19299 0.13723 0.41035 0.0
O43 O 0.20596 0.13522 0.37647 0.0
C44 C 0.19256 0.10947 0.44989 0.0
O45 O 0.18211 0.12542 0.46018 0.0
O46 O 0.2093 0.16066 0.42777 0.0
C47 C 0.19569 0.12359 0.36106 0.0
O48 O 0.17653 0.1126 0.36753 0.0
C49 C 0.1409 0.12781 0.41023 0.0
O50 O 0.14895 0.10883 0.4119 0.0
O51 O 0.19952 0.11091 0.42812 0.0
C52 C 0.70018 0.8644 0.87687 0.0
O53 O 0.71035 0.85487 0.8952 0.0
O54 O 0.62454 0.86724 0.90383 0.0
Zn55 Zn 0.6605 0.87086 0.91075 0.0
O56 O 0.67244 0.8468 0.9304 0.0
C57 C 0.65002 0.90078 0.94668 0.0
O58 O 0.63304 0.88714 0.95206 0.0
O59 O 0.67906 0.87251 0.87943 0.0
C60 C 0.68741 0.84904 0.9478 0.0
O61 O 0.69526 0.86755 0.95328 0.0
C62 C 0.6157 0.851 0.89457 0.0
O63 O 0.63058 0.83584 0.88886 0.0
O64 O 0.66459 0.89717 0.92928 0.0
C65 C 0.82147 0.12231 0.36558 0.0
O66 O 0.84265 0.11262 0.36684 0.0
O67 O 0.86707 0.13312 0.41078 0.0
Zn68 Zn 0.83066 0.13008 0.41603 0.0
O69 O 0.81819 0.15324 0.43657 0.0
C70 C 0.83875 0.08785 0.42791 0.0
O71 O 0.85658 0.09024 0.41217 0.0
O72 O 0.81285 0.13083 0.38436 0.0
C73 C 0.79916 0.15102 0.44961 0.0
O74 O 0.78789 0.13317 0.44994 0.0
C75 C 0.87867 0.15007 0.41074 0.0
O76 O 0.86651 0.1673 0.41394 0.0
O77 O 0.82466 0.10294 0.43251 0.0
C78 C 0.68884 0.13806 0.14218 0.0
O79 O 0.66995 0.15059 0.1405 0.0
O80 O 0.64136 0.13578 0.09836 0.0
Zn81 Zn 0.67732 0.1304 0.0924 0.0
O82 O 0.69186 0.15364 0.07319 0.0
C83 C 0.66538 0.08922 0.08084 0.0
O84 O 0.65052 0.09216 0.0992 0.0
O85 O 0.69536 0.12778 0.12382 0.0
C86 C 0.6953 0.15248 0.05059 0.0
O87 O 0.68952 0.13544 0.03924 0.0
C88 C 0.62784 0.1428 0.0816 0.0
O89 O 0.63788 0.14751 0.06081 0.0
O90 O 0.67965 0.10368 0.0744 0.0
C91 C 0.81777 0.85937 0.6452 0.0
O92 O 0.83498 0.84563 0.64114 0.0
O93 O 0.86212 0.8615 0.59902 0.0
Zn94 Zn 0.8259 0.86763 0.59528 0.0
O95 O 0.80832 0.84477 0.57795 0.0
C96 C 0.83872 0.89938 0.56166 0.0
O97 O 0.85816 0.88763 0.55879 0.0
O98 O 0.81074 0.87089 0.62805 0.0
C99 C 0.81283 0.8403 0.55612 0.0
O100 O 0.8296 0.8508 0.54433 0.0
C101 C 0.87244 0.84463 0.59345 0.0
O102 O 0.85906 0.82936 0.58522 0.0
O103 O 0.82212 0.89397 0.57651 0.0
C104 C 0.79372 0.67602 0.07035 0.0
O105 O 0.80789 0.67918 0.08918 0.0
O106 O 0.84449 0.64177 0.08176 0.0
Zn107 Zn 0.80839 0.63511 0.08016 0.0
O108 O 0.7948 0.63289 0.11379 0.0
C109 C 0.81834 0.60478 0.0443 0.0
O110 O 0.8339 0.61898 0.03712 0.0
O111 O 0.79085 0.65778 0.0627 0.0
C112 C 0.7843 0.61679 0.1217 0.0
O113 O 0.78176 0.60083 0.10744 0.0
C114 C 0.8578 0.63518 0.09891 0.0
O115 O 0.84758 0.62435 0.11618 0.0
O116 O 0.80467 0.60838 0.06238 0.0
C117 C 0.69401 0.32494 0.57146 0.0
O118 O 0.67734 0.32247 0.58836 0.0
O119 O 0.64753 0.36091 0.58468 0.0
Zn120 Zn 0.68379 0.36665 0.58221 0.0
O121 O 0.69733 0.36858 0.61576 0.0
C122 C 0.6923 0.41031 0.57349 0.0
O123 O 0.69335 0.41147 0.59708 0.0
O124 O 0.70014 0.34305 0.56534 0.0
C125 C 0.71901 0.37467 0.62048 0.0
O126 O 0.73363 0.38028 0.60282 0.0
C127 C 0.63297 0.37484 0.59202 0.0
O128 O 0.64191 0.39296 0.59765 0.0
O129 O 0.68873 0.39297 0.56352 0.0
C130 C 0.7861 0.32789 0.92099 0.0
O131 O 0.79272 0.32582 0.89836 0.0
O132 O 0.8435 0.35861 0.91063 0.0
Zn133 Zn 0.80783 0.36698 0.91332 0.0
O134 O 0.79249 0.36969 0.88033 0.0
C135 C 0.82296 0.40704 0.92912 0.0
O136 O 0.84179 0.40279 0.91516 0.0
O137 O 0.79031 0.3448 0.93165 0.0
C138 C 0.79349 0.38615 0.86803 0.0
O139 O 0.80458 0.40234 0.87704 0.0
C140 C 0.85672 0.36228 0.89224 0.0
O141 O 0.84685 0.37138 0.87349 0.0
O142 O 0.80578 0.3939 0.93138 0.0
C143 C 0.69488 0.6655 0.44755 0.0
O144 O 0.67514 0.6573 0.45729 0.0
O145 O 0.64999 0.64059 0.41065 0.0
Zn146 Zn 0.68628 0.63419 0.41229 0.0
O147 O 0.70033 0.63091 0.37887 0.0
C148 C 0.67674 0.59364 0.43121 0.0
O149 O 0.65792 0.59456 0.41641 0.0
O150 O 0.70329 0.65797 0.42811 0.0
C151 C 0.7019 0.61392 0.36769 0.0
O152 O 0.69425 0.597 0.37816 0.0
C153 C 0.63623 0.63488 0.39339 0.0
O154 O 0.64581 0.62449 0.37541 0.0
O155 O 0.69153 0.60875 0.43244 0.0
C156 C 0.18784 0.35253 0.86764 0.0
O157 O 0.18027 0.33567 0.87834 0.0
O158 O 0.13215 0.36799 0.9065 0.0
Zn159 Zn 0.16877 0.37084 0.91059 0.0
O160 O 0.18227 0.34799 0.93101 0.0
C161 C 0.17126 0.40122 0.94796 0.0
O162 O 0.16242 0.38606 0.96098 0.0
O163 O 0.18481 0.3697 0.87811 0.0
C164 C 0.20363 0.34926 0.94021 0.0
O165 O 0.21676 0.36593 0.93661 0.0
C166 C 0.11915 0.35563 0.91883 0.0
O167 O 0.12986 0.34384 0.93492 0.0
O168 O 0.17574 0.39819 0.92579 0.0
C169 C 0.30663 0.64786 0.3668 0.0
O170 O 0.31532 0.66471 0.37668 0.0
O171 O 0.36074 0.63394 0.4063 0.0
Zn172 Zn 0.32418 0.63089 0.41078 0.0
O173 O 0.31079 0.65469 0.43 0.0
C174 C 0.3278 0.59969 0.44706 0.0
O175 O 0.34247 0.61334 0.45695 0.0
O176 O 0.30827 0.63101 0.37823 0.0
C177 C 0.29638 0.65278 0.44788 0.0
O178 O 0.2894 0.63436 0.45469 0.0
C179 C 0.37381 0.6457 0.41936 0.0
O180 O 0.36322 0.65647 0.43648 0.0
O181 O 0.31748 0.60389 0.42711 0.0
C182 C 0.19117 0.64909 0.13393 0.0
O183 O 0.18411 0.6663 0.12368 0.0
O184 O 0.13453 0.63605 0.09564 0.0
Zn185 Zn 0.1708 0.63204 0.09085 0.0
O186 O 0.18457 0.65496 0.07069 0.0
C187 C 0.17966 0.60273 0.05246 0.0
O188 O 0.18036 0.61923 0.03885 0.0
O189 O 0.18734 0.63217 0.12315 0.0
C190 C 0.20772 0.65723 0.06875 0.0
O191 O 0.22241 0.64418 0.07968 0.0
C192 C 0.1209 0.64276 0.0788 0.0
O193 O 0.13088 0.64749 0.05797 0.0
O194 O 0.17614 0.60465 0.07497 0.0
C195 C 0.30102 0.35175 0.63377 0.0
O196 O 0.30698 0.33477 0.62238 0.0
O197 O 0.35916 0.36828 0.59702 0.0
Zn198 Zn 0.32267 0.3705 0.59199 0.0
O199 O 0.31082 0.34757 0.57068 0.0
C200 C 0.30401 0.40141 0.55802 0.0
O201 O 0.29326 0.38594 0.54706 0.0
O202 O 0.30581 0.36897 0.62408 0.0
C203 C 0.3221 0.34254 0.55152 0.0
O204 O 0.34178 0.35291 0.54506 0.0
C205 C 0.37092 0.35149 0.59888 0.0
O206 O 0.35891 0.33399 0.59775 0.0
O207 O 0.31647 0.39814 0.57701 0.0
H208 H 0.3259 0.21493 0.06168 0.0
H209 H 0.30765 0.24456 0.04148 0.0
H210 H 0.24695 0.20689 0.01766 0.0
H211 H 0.26541 0.17704 0.03735 0.0
H212 H 0.26258 0.23037 0.9821 0.0
H213 H 0.24084 0.24127 0.06472 0.0
H214 H 0.24819 0.24487 0.10834 0.0
H215 H 0.29514 0.29677 0.09531 0.0
H216 H 0.28833 0.29331 0.05156 0.0
H217 H 0.18312 0.31137 0.94701 0.0
H218 H 0.20071 0.2822 0.96871 0.0
H219 H 0.26472 0.31841 0.98643 0.0
H220 H 0.24723 0.34775 0.9648 0.0
H221 H 0.24713 0.2959 0.0252 0.0
H222 H 0.26842 0.2845 0.94218 0.0
H223 H 0.25994 0.2809 0.89876 0.0
H224 H 0.21238 0.22964 0.91306 0.0
H225 H 0.2203 0.23313 0.95663 0.0
C226 C 0.30865 0.21294 0.05218 0.0
C227 C 0.29707 0.19364 0.05117 0.0
C228 C 0.29817 0.22993 0.04074 0.0
C229 C 0.27575 0.22801 0.02834 0.0
C230 C 0.26424 0.20873 0.02716 0.0
C231 C 0.27479 0.1917 0.03847 0.0
C232 C 0.26452 0.24604 0.01624 0.0
C233 C 0.25888 0.24459 0.99163 0.0
C234 C 0.26016 0.26476 0.02854 0.0
C235 C 0.26426 0.2669 0.05484 0.0
C236 C 0.25289 0.25335 0.07114 0.0
C237 C 0.25693 0.25539 0.09589 0.0
C238 C 0.27218 0.27101 0.10458 0.0
C239 C 0.28336 0.28466 0.08854 0.0
C240 C 0.2794 0.28268 0.06377 0.0
C241 C 0.2009 0.31318 0.95559 0.0
C242 C 0.21385 0.33185 0.95408 0.0
C243 C 0.21095 0.29647 0.96791 0.0
C244 C 0.23411 0.29811 0.97894 0.0
C245 C 0.24683 0.31685 0.97798 0.0
C246 C 0.23685 0.33356 0.96555 0.0
C247 C 0.24521 0.28015 0.99117 0.0
C248 C 0.25082 0.28164 0.01575 0.0
C249 C 0.24941 0.26143 0.9789 0.0
C250 C 0.24477 0.25921 0.95269 0.0
C251 C 0.256 0.27256 0.93609 0.0
C252 C 0.25133 0.27053 0.91144 0.0
C253 C 0.23558 0.25509 0.90316 0.0
C254 C 0.22454 0.24161 0.91951 0.0
C255 C 0.22914 0.2436 0.94417 0.0
H256 H 0.23198 0.25353 0.88408 0.0
H257 H 0.27528 0.27256 0.12375 0.0
H258 H 0.27265 0.65436 0.49122 0.0
H259 H 0.25802 0.68487 0.51248 0.0
H260 H 0.28477 0.72323 0.45474 0.0
H261 H 0.30016 0.69285 0.43376 0.0
H262 H 0.29562 0.74014 0.49593 0.0
H263 H 0.22248 0.71137 0.46155 0.0
H264 H 0.19189 0.68438 0.4528 0.0
H265 H 0.17631 0.67838 0.52828 0.0
H266 H 0.20706 0.70515 0.53752 0.0
H267 H 0.22527 0.8294 0.52664 0.0
H268 H 0.24204 0.79921 0.50607 0.0
H269 H 0.22529 0.76182 0.56805 0.0
H270 H 0.2086 0.79187 0.58879 0.0
H271 H 0.2093 0.74479 0.52467 0.0
H272 H 0.28289 0.77461 0.55814 0.0
H273 H 0.31284 0.80237 0.56558 0.0
H274 H 0.32649 0.80739 0.48964 0.0
H275 H 0.29634 0.77984 0.48172 0.0
C276 C 0.27539 0.66929 0.48303 0.0
C277 C 0.28745 0.67119 0.46076 0.0
C278 C 0.26693 0.68672 0.49516 0.0
C279 C 0.26994 0.70633 0.48503 0.0
C280 C 0.28221 0.70827 0.4629 0.0
C281 C 0.29094 0.69087 0.4509 0.0
C282 C 0.26044 0.72486 0.49755 0.0
C283 C 0.27665 0.74126 0.50191 0.0
C284 C 0.23579 0.7262 0.50574 0.0
C285 C 0.21725 0.71012 0.50024 0.0
C286 C 0.21266 0.70418 0.4763 0.0
C287 C 0.19527 0.68895 0.47125 0.0
C288 C 0.18221 0.67963 0.48997 0.0
C289 C 0.18646 0.68559 0.51379 0.0
C290 C 0.20385 0.7008 0.51895 0.0
C291 C 0.22527 0.81478 0.53593 0.0
C292 C 0.21562 0.81302 0.55935 0.0
C293 C 0.23491 0.79757 0.52419 0.0
C294 C 0.23497 0.77834 0.53561 0.0
C295 C 0.22539 0.77655 0.55896 0.0
C296 C 0.21596 0.79375 0.5708 0.0
C297 C 0.24448 0.75995 0.52301 0.0
C298 C 0.22825 0.74362 0.51864 0.0
C299 C 0.269 0.75878 0.51458 0.0
C300 C 0.28717 0.77531 0.51932 0.0
C301 C 0.29211 0.78176 0.54301 0.0
C302 C 0.30916 0.79743 0.54732 0.0
C303 C 0.32151 0.80668 0.52809 0.0
C304 C 0.31688 0.80024 0.50451 0.0
C305 C 0.29983 0.78458 0.50011 0.0
H306 H 0.3347 0.8188 0.53146 0.0
H307 H 0.16875 0.66784 0.48602 0.0
H308 H 0.25836 0.82042 0.94762 0.0
H309 H 0.2419 0.79032 0.96849 0.0
H310 H 0.31455 0.7757 0.99474 0.0
H311 H 0.3312 0.80582 0.974 0.0
H312 H 0.28963 0.74188 0.97534 0.0
H313 H 0.27523 0.79613 0.0323 0.0
H314 H 0.25978 0.82984 0.0458 0.0
H315 H 0.18592 0.81184 0.02799 0.0
H316 H 0.20098 0.77811 0.01405 0.0
H317 H 0.2561 0.66791 0.06342 0.0
H318 H 0.27275 0.69761 0.04202 0.0
H319 H 0.19925 0.71582 0.02166 0.0
H320 H 0.1824 0.68634 0.04336 0.0
H321 H 0.22474 0.74791 0.03784 0.0
H322 H 0.23834 0.69391 0.98092 0.0
H323 H 0.25318 0.66025 0.96664 0.0
H324 H 0.32757 0.67759 0.98318 0.0
H325 H 0.31313 0.71127 0.99789 0.0
C326 C 0.27084 0.81083 0.95787 0.0
C327 C 0.29607 0.81553 0.95922 0.0
C328 C 0.26139 0.79368 0.96982 0.0
C329 C 0.27701 0.78088 0.98323 0.0
C330 C 0.30222 0.78542 0.98447 0.0
C331 C 0.31166 0.80268 0.97271 0.0
C332 C 0.26703 0.76267 0.99584 0.0
C333 C 0.27568 0.74317 0.98924 0.0
C334 C 0.24839 0.76442 0.01349 0.0
C335 C 0.23927 0.78468 0.02189 0.0
C336 C 0.25572 0.79943 0.03105 0.0
C337 C 0.24703 0.81852 0.03883 0.0
C338 C 0.22189 0.823 0.03769 0.0
C339 C 0.20539 0.80836 0.02883 0.0
C340 C 0.21399 0.78925 0.021 0.0
C341 C 0.24347 0.67817 0.0543 0.0
C342 C 0.21792 0.67476 0.05507 0.0
C343 C 0.25303 0.6951 0.042 0.0
C344 C 0.23726 0.70883 0.03006 0.0
C345 C 0.21175 0.70542 0.03076 0.0
C346 C 0.20217 0.68853 0.04311 0.0
C347 C 0.2473 0.72702 0.01735 0.0
C348 C 0.23867 0.74656 0.02392 0.0
C349 C 0.26586 0.72528 -0.00043 0.0
C350 C 0.27462 0.70504 0.99073 0.0
C351 C 0.25784 0.69048 0.9817 0.0
C352 C 0.26619 0.67141 0.9735 0.0
C353 C 0.2913 0.66676 0.97406 0.0
C354 C 0.30812 0.6812 0.98279 0.0
C355 C 0.29987 0.70029 0.99104 0.0
H356 H 0.29772 0.65199 0.96769 0.0
H357 H 0.2152 0.83779 0.04373 0.0
H358 H 0.28208 0.31823 0.56005 0.0
H359 H 0.26853 0.28834 0.5371 0.0
H360 H 0.32918 0.29644 0.48784 0.0
H361 H 0.34274 0.32663 0.51057 0.0
H362 H 0.28684 0.28801 0.46417 0.0
H363 H 0.33158 0.25934 0.53018 0.0
H364 H 0.34288 0.25433 0.57278 0.0
H365 H 0.26995 0.23249 0.58817 0.0
H366 H 0.2581 0.23765 0.54571 0.0
H367 H 0.27206 0.18914 0.41042 0.0
H368 H 0.28946 0.21858 0.43189 0.0
H369 H 0.23 0.21593 0.48329 0.0
H370 H 0.21257 0.18644 0.46208 0.0
H371 H 0.27457 0.22102 0.50512 0.0
H372 H 0.22953 0.25139 0.43934 0.0
H373 H 0.2184 0.25656 0.39671 0.0
H374 H 0.29255 0.27504 0.38085 0.0
H375 H 0.30421 0.26971 0.42335 0.0
C376 C 0.29255 0.31371 0.54431 0.0
C377 C 0.31356 0.32477 0.53719 0.0
C378 C 0.28483 0.29655 0.53127 0.0
C379 C 0.29806 0.29 0.51098 0.0
C380 C 0.31877 0.30121 0.50352 0.0
C381 C 0.3265 0.31843 0.51655 0.0
C382 C 0.29016 0.27143 0.49759 0.0
C383 C 0.28454 0.27327 0.47302 0.0
C384 C 0.28679 0.2523 0.50926 0.0
C385 C 0.29389 0.24906 0.53479 0.0
C386 C 0.31789 0.25362 0.54268 0.0
C387 C 0.32441 0.25073 0.5668 0.0
C388 C 0.30713 0.24314 0.58319 0.0
C389 C 0.28331 0.23838 0.57546 0.0
C390 C 0.27669 0.24127 0.55137 0.0
C391 C 0.2627 0.19479 0.42631 0.0
C392 C 0.24088 0.18549 0.43449 0.0
C393 C 0.27263 0.21166 0.4385 0.0
C394 C 0.26089 0.21953 0.45904 0.0
C395 C 0.23933 0.21009 0.46746 0.0
C396 C 0.22936 0.19328 0.45526 0.0
C397 C 0.27096 0.23767 0.4718 0.0
C398 C 0.27702 0.23573 0.49625 0.0
C399 C 0.2748 0.25668 0.46 0.0
C400 C 0.2678 0.25993 0.43446 0.0
C401 C 0.24351 0.25639 0.42672 0.0
C402 C 0.2371 0.25938 0.40259 0.0
C403 C 0.25477 0.26606 0.38607 0.0
C404 C 0.27889 0.26982 0.39366 0.0
C405 C 0.28541 0.26683 0.41777 0.0
H406 H 0.24977 0.26838 0.3674 0.0
H407 H 0.31221 0.24091 0.60185 0.0
H408 H 0.76171 0.67468 0.03231 0.0
H409 H 0.74206 0.70367 0.01197 0.0
H410 H 0.77877 0.74574 0.0601 0.0
H411 H 0.79813 0.71685 0.08082 0.0
H412 H 0.73171 0.75646 0.05406 0.0
H413 H 0.79935 0.73825 0.00254 0.0
H414 H 0.82486 0.71503 0.97787 0.0
H415 H 0.76301 0.70269 0.93191 0.0
H416 H 0.73703 0.72564 0.95651 0.0
H417 H 0.71804 0.84857 0.98685 0.0
H418 H 0.73418 0.81858 0.00808 0.0
H419 H 0.69389 0.77861 0.96025 0.0
H420 H 0.67778 0.80851 0.93875 0.0
H421 H 0.74137 0.76628 0.96595 0.0
H422 H 0.67416 0.78576 0.01702 0.0
H423 H 0.64921 0.80944 0.04163 0.0
H424 H 0.71091 0.81988 0.08841 0.0
H425 H 0.73635 0.79647 0.06388 0.0
C426 C 0.76559 0.6901 0.03859 0.0
C427 C 0.78157 0.69347 0.05812 0.0
C428 C 0.75441 0.70665 0.02689 0.0
C429 C 0.75919 0.72688 0.03433 0.0
C430 C 0.77484 0.73026 0.05404 0.0
C431 C 0.78595 0.71372 0.06582 0.0
C432 C 0.74798 0.74455 0.02154 0.0
C433 C 0.73406 0.75874 0.03484 0.0
C434 C 0.75059 0.74726 0.99637 0.0
C435 C 0.76619 0.73349 0.98152 0.0
C436 C 0.79114 0.73046 0.98728 0.0
C437 C 0.80569 0.71737 0.97329 0.0
C438 C 0.79554 0.70734 0.95338 0.0
C439 C 0.77083 0.71044 0.94737 0.0
C440 C 0.75619 0.7235 0.96132 0.0
C441 C 0.71252 0.83341 0.98088 0.0
C442 C 0.69661 0.83093 0.96112 0.0
C443 C 0.72169 0.81629 0.99311 0.0
C444 C 0.71506 0.79639 0.98586 0.0
C445 C 0.6992 0.79385 0.96614 0.0
C446 C 0.68996 0.81096 0.95393 0.0
C447 C 0.7252 0.77821 0.99848 0.0
C448 C 0.73894 0.76394 0.98515 0.0
C449 C 0.7225 0.77548 0.02362 0.0
C450 C 0.70722 0.78951 0.03847 0.0
C451 C 0.68247 0.79323 0.03244 0.0
C452 C 0.66822 0.80658 0.0464 0.0
C453 C 0.67848 0.8162 0.06654 0.0
C454 C 0.70299 0.81244 0.07279 0.0
C455 C 0.71733 0.79912 0.05888 0.0
H456 H 0.66742 0.82653 0.07732 0.0
H457 H 0.80684 0.69721 0.94256 0.0
H458 H 0.76049 0.15103 0.48113 0.0
H459 H 0.7433 0.18035 0.50286 0.0
H460 H 0.79781 0.22008 0.47081 0.0
H461 H 0.81545 0.19077 0.44941 0.0
H462 H 0.79222 0.22891 0.51718 0.0
H463 H 0.73846 0.21872 0.44973 0.0
H464 H 0.71104 0.19919 0.42272 0.0
H465 H 0.6621 0.18696 0.48173 0.0
H466 H 0.68942 0.20619 0.50918 0.0
H467 H 0.73238 0.32442 0.53953 0.0
H468 H 0.75084 0.29445 0.52003 0.0
H469 H 0.69978 0.25478 0.55714 0.0
H470 H 0.68117 0.28464 0.57669 0.0
H471 H 0.70356 0.24586 0.50872 0.0
H472 H 0.75768 0.25712 0.57591 0.0
H473 H 0.78515 0.2774 0.60208 0.0
H474 H 0.83352 0.28856 0.54233 0.0
H475 H 0.80613 0.26858 0.5157 0.0
C476 C 0.76888 0.16599 0.47875 0.0
C477 C 0.78925 0.16859 0.46344 0.0
C478 C 0.75897 0.18275 0.49112 0.0
C479 C 0.76904 0.20246 0.48817 0.0
C480 C 0.78971 0.20501 0.47331 0.0
C481 C 0.79972 0.18825 0.46104 0.0
C482 C 0.75791 0.22045 0.5004 0.0
C483 C 0.7729 0.23276 0.5151 0.0
C484 C 0.7326 0.22526 0.49802 0.0
C485 C 0.71612 0.21371 0.48155 0.0
C486 C 0.72195 0.21172 0.45699 0.0
C487 C 0.70641 0.20074 0.44159 0.0
C488 C 0.68488 0.19179 0.45052 0.0
C489 C 0.67881 0.19387 0.47485 0.0
C490 C 0.6943 0.20482 0.49033 0.0
C491 C 0.72509 0.30932 0.54357 0.0
C492 C 0.70533 0.3069 0.55968 0.0
C493 C 0.73572 0.29222 0.53249 0.0
C494 C 0.72678 0.27241 0.53731 0.0
C495 C 0.70695 0.26995 0.55322 0.0
C496 C 0.6964 0.28703 0.56442 0.0
C497 C 0.73787 0.25426 0.52547 0.0
C498 C 0.72286 0.24196 0.51083 0.0
C499 C 0.76319 0.24956 0.52776 0.0
C500 C 0.77972 0.26152 0.54376 0.0
C501 C 0.77406 0.26404 0.5683 0.0
C502 C 0.78964 0.27546 0.58323 0.0
C503 C 0.81103 0.28431 0.57386 0.0
C504 C 0.81692 0.28172 0.54955 0.0
C505 C 0.80139 0.27034 0.53454 0.0
H506 H 0.82307 0.29314 0.58545 0.0
H507 H 0.67286 0.1833 0.43857 0.0
H508 H 0.77253 0.29056 0.90284 0.0
H509 H 0.75604 0.26116 0.92493 0.0
H510 H 0.75827 0.29613 0.99088 0.0
H511 H 0.7749 0.32562 0.96896 0.0
H512 H 0.77832 0.25792 0.99613 0.0
H513 H 0.70418 0.28707 0.96397 0.0
H514 H 0.67687 0.30058 0.93223 0.0
H515 H 0.67878 0.24233 0.89599 0.0
H516 H 0.7064 0.22854 0.92735 0.0
H517 H 0.70825 0.19004 0.06858 0.0
H518 H 0.72317 0.21985 0.04626 0.0
H519 H 0.71896 0.18543 0.97999 0.0
H520 H 0.70369 0.15556 0.00215 0.0
H521 H 0.69978 0.22344 0.97483 0.0
H522 H 0.77406 0.19429 0.00646 0.0
H523 H 0.80163 0.1806 0.03788 0.0
H524 H 0.79986 0.2386 0.07469 0.0
H525 H 0.77199 0.25256 0.04364 0.0
C526 C 0.76939 0.29206 0.92202 0.0
C527 C 0.77503 0.31043 0.93415 0.0
C528 C 0.75988 0.27526 0.9346 0.0
C529 C 0.75579 0.27653 0.9595 0.0
C530 C 0.76129 0.29486 0.97165 0.0
C531 C 0.77071 0.31171 0.95908 0.0
C532 C 0.74649 0.2585 0.97299 0.0
C533 C 0.76097 0.25055 0.99173 0.0
C534 C 0.72419 0.2486 0.96676 0.0
C535 C 0.70756 0.25684 0.94788 0.0
C536 C 0.69895 0.27719 0.94912 0.0
C537 C 0.68338 0.28489 0.93122 0.0
C538 C 0.67614 0.27234 0.91207 0.0
C539 C 0.68442 0.25204 0.91081 0.0
C540 C 0.70002 0.24427 0.92866 0.0
C541 C 0.71055 0.18876 0.04927 0.0
C542 C 0.70485 0.1704 0.03715 0.0
C543 C 0.71916 0.20581 0.03655 0.0
C544 C 0.72241 0.20479 0.0115 0.0
C545 C 0.71661 0.18653 -0.00068 0.0
C546 C 0.70797 0.16946 0.01203 0.0
C547 C 0.7316 0.22287 0.99801 0.0
C548 C 0.71712 0.23082 0.97926 0.0
C549 C 0.75394 0.23275 0.00417 0.0
C550 C 0.77073 0.22441 0.02285 0.0
C551 C 0.77938 0.20408 0.02136 0.0
C552 C 0.79509 0.19628 0.03908 0.0
C553 C 0.80244 0.20871 0.0583 0.0
C554 C 0.79413 0.22898 0.0598 0.0
C555 C 0.77839 0.23685 0.04214 0.0
H556 H 0.81461 0.20264 0.072 0.0
H557 H 0.66408 0.27833 0.89823 0.0
H558 H 0.82365 0.82219 0.51299 0.0
H559 H 0.80316 0.79278 0.49442 0.0
H560 H 0.7523 0.78991 0.55404 0.0
H561 H 0.77315 0.81894 0.57305 0.0
H562 H 0.7679 0.75295 0.54348 0.0
H563 H 0.73557 0.80947 0.49792 0.0
H564 H 0.73767 0.84081 0.47307 0.0
H565 H 0.77743 0.80789 0.4185 0.0
H566 H 0.77585 0.7764 0.44318 0.0
H567 H 0.68145 0.68553 0.48881 0.0
H568 H 0.70119 0.71549 0.50702 0.0
H569 H 0.75524 0.71608 0.4501 0.0
H570 H 0.73547 0.68628 0.4316 0.0
H571 H 0.73761 0.75424 0.4592 0.0
H572 H 0.76987 0.69774 0.50534 0.0
H573 H 0.76725 0.66652 0.53035 0.0
H574 H 0.72667 0.69978 0.58406 0.0
H575 H 0.72876 0.73115 0.5592 0.0
C576 C 0.80804 0.81536 0.5221 0.0
C577 C 0.79999 0.82291 0.54447 0.0
C578 C 0.79627 0.79859 0.51141 0.0
C579 C 0.77597 0.78929 0.52269 0.0
C580 C 0.76791 0.79684 0.54501 0.0
C581 C 0.77982 0.81347 0.55582 0.0
C582 C 0.76351 0.77138 0.51152 0.0
C583 C 0.76095 0.75335 0.52516 0.0
C584 C 0.75493 0.77173 0.48744 0.0
C585 C 0.75578 0.79062 0.47251 0.0
C586 C 0.74491 0.80895 0.4807 0.0
C587 C 0.74599 0.82673 0.46663 0.0
C588 C 0.75773 0.82635 0.44425 0.0
C589 C 0.76836 0.80816 0.43585 0.0
C590 C 0.76736 0.79034 0.44986 0.0
C591 C 0.69756 0.692 0.48018 0.0
C592 C 0.70694 0.68348 0.45879 0.0
C593 C 0.70886 0.70909 0.49065 0.0
C594 C 0.72981 0.71788 0.48003 0.0
C595 C 0.73909 0.70952 0.45859 0.0
C596 C 0.72781 0.69244 0.4481 0.0
C597 C 0.742 0.73589 0.49118 0.0
C598 C 0.74452 0.75391 0.47753 0.0
C599 C 0.75044 0.73557 0.51528 0.0
C600 C 0.74927 0.71674 0.5303 0.0
C601 C 0.76022 0.69836 0.52239 0.0
C602 C 0.75886 0.68064 0.53656 0.0
C603 C 0.74675 0.68115 0.55875 0.0
C604 C 0.73602 0.6994 0.56685 0.0
C605 C 0.73731 0.71716 0.55274 0.0
H606 H 0.74571 0.66742 0.56969 0.0
H607 H 0.75855 0.84014 0.43338 0.0
H608 H 0.28897 0.07151 0.05459 0.0
H609 H 0.28459 0.0383 0.03446 0.0
H610 H 0.32901 0.06014 0.97537 0.0
H611 H 0.33319 0.09348 0.99516 0.0
H612 H 0.28992 0.03844 0.95942 0.0
H613 H 0.3537 0.02993 0.01904 0.0
H614 H 0.37131 0.03113 0.05995 0.0
H615 H 0.31625 0.98876 0.08474 0.0
H616 H 0.29811 0.98754 0.04401 0.0
H617 H 0.33085 0.946 0.90645 0.0
H618 H 0.32748 0.97908 0.92681 0.0
H619 H 0.28334 0.95123 0.98254 0.0
H620 H 0.28689 0.9179 0.9624 0.0
H621 H 0.31868 0.97548 0.00124 0.0
H622 H 0.25681 0.98198 0.94053 0.0
H623 H 0.23974 0.98064 0.89942 0.0
H624 H 0.29135 0.0266 0.87643 0.0
H625 H 0.30898 0.02801 0.91734 0.0
C626 C 0.2977 0.06929 0.03724 0.0
C627 C 0.31157 0.08509 0.02654 0.0
C628 C 0.29524 0.05028 0.02581 0.0
C629 C 0.30674 0.04668 0.00357 0.0
C630 C 0.32001 0.0626 0.99254 0.0
C631 C 0.32244 0.08162 0.00392 0.0
C632 C 0.30556 0.02617 0.99203 0.0
C633 C 0.2964 0.02469 0.96847 0.0
C634 C 0.31343 0.00817 0.00409 0.0
C635 C 0.32438 0.00882 0.02855 0.0
C636 C 0.34523 0.021 0.03326 0.0
C637 C 0.35533 0.02166 0.05641 0.0
C638 C 0.34486 0.01008 0.07495 0.0
C639 C 0.32431 0.99776 0.07037 0.0
C640 C 0.31412 0.99706 0.04726 0.0
C641 C 0.32033 0.94688 0.92298 0.0
C642 C 0.30911 0.92931 0.93279 0.0
C643 C 0.31832 0.96585 0.93454 0.0
C644 C 0.3049 0.96767 0.95603 0.0
C645 C 0.29371 0.95016 0.96592 0.0
C646 C 0.29572 0.93115 0.95437 0.0
C647 C 0.30329 0.98776 0.9685 0.0
C648 C 0.31196 0.98918 0.99225 0.0
C649 C 0.29499 0.00569 0.95659 0.0
C650 C 0.28435 0.00498 0.93197 0.0
C651 C 0.26465 0.99169 0.92667 0.0
C652 C 0.25485 0.99094 0.90341 0.0
C653 C 0.26449 0.0035 0.88531 0.0
C654 C 0.28391 0.01687 0.89046 0.0
C655 C 0.2938 0.01767 0.91369 0.0
H656 H 0.25688 0.00289 0.86731 0.0
H657 H 0.35271 0.01061 0.09286 0.0
H658 H 0.20411 0.92189 0.52635 0.0
H659 H 0.20867 0.95524 0.50652 0.0
H660 H 0.16215 0.98309 0.5604 0.0
H661 H 0.15708 0.94981 0.57998 0.0
H662 H 0.14915 0.99563 0.51712 0.0
H663 H 0.22534 0.98953 0.56047 0.0
H664 H 0.26417 0.97297 0.57286 0.0
H665 H 0.28973 0.97408 0.4997 0.0
H666 H 0.2509 0.99041 0.48681 0.0
H667 H 0.17411 0.10006 0.49428 0.0
H668 H 0.17371 0.06654 0.51406 0.0
H669 H 0.21371 0.04034 0.45441 0.0
H670 H 0.21427 0.07387 0.43445 0.0
H671 H 0.23059 0.02673 0.49934 0.0
H672 H 0.15416 0.0335 0.45649 0.0
H673 H 0.11562 0.05087 0.44481 0.0
H674 H 0.09065 0.04892 0.51814 0.0
H675 H 0.12925 0.03184 0.53034 0.0
C676 C 0.1949 0.93513 0.534 0.0
C677 C 0.18023 0.9332 0.55475 0.0
C678 C 0.19762 0.9542 0.52271 0.0
C679 C 0.18595 0.97171 0.53212 0.0
C680 C 0.17131 0.96979 0.55281 0.0
C681 C 0.16848 0.95074 0.56402 0.0
C682 C 0.18848 0.99199 0.52017 0.0
C683 C 0.16697 0.00253 0.51353 0.0
C684 C 0.21173 0.00078 0.51494 0.0
C685 C 0.23511 0.99099 0.52264 0.0
C686 C 0.23916 0.98609 0.54699 0.0
C687 C 0.26118 0.97677 0.55411 0.0
C688 C 0.27937 0.97242 0.53706 0.0
C689 C 0.27561 0.97743 0.51287 0.0
C690 C 0.2536 0.98673 0.50566 0.0
C691 C 0.18303 0.08724 0.48544 0.0
C692 C 0.19407 0.0896 0.46271 0.0
C693 C 0.18272 0.06809 0.49674 0.0
C694 C 0.19342 0.05095 0.48554 0.0
C695 C 0.2053 0.05339 0.4633 0.0
C696 C 0.20553 0.07254 0.4519 0.0
C697 C 0.19129 0.03035 0.49662 0.0
C698 C 0.21282 0.01976 0.50297 0.0
C699 C 0.16806 0.02152 0.5017 0.0
C700 C 0.1447 0.03157 0.49437 0.0
C701 C 0.14053 0.03692 0.47016 0.0
C702 C 0.11866 0.04669 0.46344 0.0
C703 C 0.10072 0.05104 0.48073 0.0
C704 C 0.10458 0.04557 0.50477 0.0
C705 C 0.12644 0.03583 0.5116 0.0
H706 H 0.0838 0.05861 0.4755 0.0
H707 H 0.29641 0.96521 0.54261 0.0
H708 H 0.68383 0.93159 0.9412 0.0
H709 H 0.68681 0.96352 0.96419 0.0
H710 H 0.62393 0.94552 0.0067 0.0
H711 H 0.62063 0.91365 0.98365 0.0
H712 H 0.62058 0.98509 0.99269 0.0
H713 H 0.68117 0.94203 0.02974 0.0
H714 H 0.71719 0.91901 0.03101 0.0
H715 H 0.76272 0.96688 0.00189 0.0
H716 H 0.72686 0.99011 0.00012 0.0
H717 H 0.6338 0.05708 0.08735 0.0
H718 H 0.63185 0.02512 0.06441 0.0
H719 H 0.69311 0.04505 0.02082 0.0
H720 H 0.69533 0.07709 0.04382 0.0
H721 H 0.69748 0.00472 0.03515 0.0
H722 H 0.63613 0.04781 0.99848 0.0
H723 H 0.59982 0.07056 0.99806 0.0
H724 H 0.55543 0.02221 0.02774 0.0
H725 H 0.59156 0.99923 0.02861 0.0
C726 C 0.67064 0.93441 0.95545 0.0
C727 C 0.65203 0.92006 0.96064 0.0
C728 C 0.67243 0.95263 0.96862 0.0
C729 C 0.65573 0.95679 0.98729 0.0
C730 C 0.63701 0.94259 0.99237 0.0
C731 C 0.63522 0.92435 0.97923 0.0
C732 C 0.65767 0.97603 0.00144 0.0
C733 C 0.63729 0.98926 0.00223 0.0
C734 C 0.67965 0.98165 0.01347 0.0
C735 C 0.70127 0.96774 0.01456 0.0
C736 C 0.69882 0.9476 0.02341 0.0
C737 C 0.71921 0.93452 0.02426 0.0
C738 C 0.74222 0.94146 0.01647 0.0
C739 C 0.74488 0.96151 0.00788 0.0
C740 C 0.72453 0.97465 0.00697 0.0
C741 C 0.64695 0.05466 0.07295 0.0
C742 C 0.6647 0.06964 0.06736 0.0
C743 C 0.64572 0.03642 0.05979 0.0
C744 C 0.66217 0.03284 0.04077 0.0
C745 C 0.68022 0.04756 0.03542 0.0
C746 C 0.68142 0.06587 0.04853 0.0
C747 C 0.6604 0.01374 0.02639 0.0
C748 C 0.68081 0.00055 0.02556 0.0
C749 C 0.6384 0.00811 0.01442 0.0
C750 C 0.6166 0.02185 0.01378 0.0
C751 C 0.61867 0.04207 0.00507 0.0
C752 C 0.59811 0.05499 0.00471 0.0
C753 C 0.57533 0.04783 0.01285 0.0
C754 C 0.57308 0.02773 0.0214 0.0
C755 C 0.59358 0.01474 0.0218 0.0
H756 H 0.55943 0.05784 0.01253 0.0
H757 H 0.75799 0.93131 0.01715 0.0
H758 H 0.80283 0.077 0.46015 0.0
H759 H 0.7992 0.04464 0.48231 0.0
H760 H 0.86475 0.022 0.44734 0.0
H761 H 0.86821 0.05403 0.42479 0.0
H762 H 0.83065 0.99287 0.44907 0.0
H763 H 0.86591 0.04114 0.50524 0.0
H764 H 0.86757 0.07332 0.52864 0.0
H765 H 0.79933 0.05786 0.56323 0.0
H766 H 0.79711 0.02569 0.53979 0.0
H767 H 0.86999 0.91414 0.52732 0.0
H768 H 0.86615 0.94585 0.50421 0.0
H769 H 0.79826 0.95992 0.54098 0.0
H770 H 0.80201 0.92818 0.56439 0.0
H771 H 0.82919 0.99314 0.53842 0.0
H772 H 0.79619 0.9431 0.48422 0.0
H773 H 0.7957 0.91072 0.46119 0.0
H774 H 0.86077 0.92933 0.42308 0.0
H775 H 0.86187 0.96172 0.44613 0.0
C776 C 0.81641 0.06509 0.45711 0.0
C777 C 0.83588 0.06812 0.4408 0.0
C778 C 0.81436 0.04664 0.46985 0.0
C779 C 0.83188 0.03101 0.4667 0.0
C780 C 0.85102 0.03385 0.45006 0.0
C781 C 0.85301 0.05221 0.43723 0.0
C782 C 0.83065 0.01175 0.48093 0.0
C783 C 0.83053 0.99293 0.46861 0.0
C784 C 0.82986 0.01184 0.50642 0.0
C785 C 0.83121 0.03113 0.52057 0.0
C786 C 0.85117 0.04468 0.5177 0.0
C787 C 0.85222 0.0629 0.53099 0.0
C788 C 0.83353 0.06766 0.54735 0.0
C789 C 0.81377 0.05417 0.55051 0.0
C790 C 0.81261 0.03594 0.53724 0.0
C791 C 0.85419 0.92392 0.53049 0.0
C792 C 0.83626 0.9186 0.54765 0.0
C793 C 0.85198 0.94201 0.51718 0.0
C794 C 0.83177 0.95509 0.52069 0.0
C795 C 0.81395 0.94997 0.53797 0.0
C796 C 0.8161 0.93182 0.55127 0.0
C797 C 0.82959 0.9743 0.50654 0.0
C798 C 0.82905 0.9931 0.51888 0.0
C799 C 0.8299 0.97419 0.48107 0.0
C800 C 0.82921 0.95478 0.46705 0.0
C801 C 0.8105 0.94023 0.47105 0.0
C802 C 0.8101 0.92188 0.45797 0.0
C803 C 0.82822 0.91795 0.44072 0.0
C804 C 0.84675 0.93239 0.43647 0.0
C805 C 0.84726 0.95076 0.44951 0.0
H806 H 0.82787 0.90373 0.43061 0.0
H807 H 0.83438 0.08177 0.55763 0.0
H808 H 0.85124 0.44078 0.92057 0.0
H809 H 0.84923 0.47408 0.94052 0.0
H810 H 0.79012 0.45213 0.98564 0.0
H811 H 0.79146 0.41885 0.96508 0.0
H812 H 0.7807 0.48988 0.97054 0.0
H813 H 0.85023 0.45636 0.00676 0.0
H814 H 0.8895 0.43734 0.00597 0.0
H815 H 0.92431 0.48776 0.96958 0.0
H816 H 0.88516 0.50699 0.96987 0.0
H817 H 0.78914 0.5718 0.05524 0.0
H818 H 0.78919 0.53798 0.03611 0.0
H819 H 0.84591 0.55805 0.98708 0.0
H820 H 0.84621 0.59184 0.00626 0.0
H821 H 0.85621 0.52067 0.00563 0.0
H822 H 0.78673 0.55369 0.96842 0.0
H823 H 0.7472 0.57232 0.96765 0.0
H824 H 0.71232 0.52266 0.00543 0.0
H825 H 0.75175 0.50385 0.00671 0.0
C826 C 0.83781 0.443 0.93476 0.0
C827 C 0.8216 0.42715 0.94137 0.0
C828 C 0.83675 0.46203 0.94622 0.0
C829 C 0.81984 0.46548 0.9649 0.0
C830 C 0.80338 0.44977 0.97134 0.0
C831 C 0.80421 0.43076 0.95963 0.0
C832 C 0.81936 0.48552 0.97761 0.0
C833 C 0.79712 0.49646 0.97857 0.0
C834 C 0.84091 0.4943 0.98763 0.0
C835 C 0.8647 0.48306 0.98819 0.0
C836 C 0.86624 0.46337 0.99853 0.0
C837 C 0.88848 0.45255 0.99816 0.0
C838 C 0.90937 0.46132 0.98768 0.0
C839 C 0.90811 0.48099 0.97768 0.0
C840 C 0.88591 0.49187 0.97798 0.0
C841 C 0.80155 0.56906 0.04031 0.0
C842 C 0.81763 0.58454 0.03223 0.0
C843 C 0.80151 0.54974 0.02937 0.0
C844 C 0.81743 0.54556 0.01006 0.0
C845 C 0.83349 0.56096 0.00197 0.0
C846 C 0.83356 0.58029 0.01289 0.0
C847 C 0.81758 0.52506 0.99845 0.0
C848 C 0.83976 0.51402 0.99773 0.0
C849 C 0.79598 0.51619 0.98869 0.0
C850 C 0.77225 0.52746 0.98789 0.0
C851 C 0.77068 0.54682 0.97674 0.0
C852 C 0.74828 0.5574 0.97618 0.0
C853 C 0.72728 0.54871 0.98654 0.0
C854 C 0.72862 0.52939 0.99744 0.0
C855 C 0.75097 0.51875 0.99807 0.0
H856 H 0.70996 0.55692 0.98608 0.0
H857 H 0.92654 0.45288 0.98732 0.0
H858 H 0.70871 0.44815 0.58738 0.0
H859 H 0.70952 0.47966 0.56348 0.0
H860 H 0.6793 0.44678 0.50278 0.0
H861 H 0.67932 0.41508 0.5263 0.0
H862 H 0.71271 0.47196 0.48746 0.0
H863 H 0.64342 0.47798 0.54056 0.0
H864 H 0.62176 0.47823 0.57958 0.0
H865 H 0.66652 0.5287 0.60335 0.0
H866 H 0.68868 0.52856 0.56456 0.0
H867 H 0.65768 0.55543 0.42401 0.0
H868 H 0.66407 0.52471 0.44862 0.0
H869 H 0.71075 0.55923 0.49667 0.0
H870 H 0.70485 0.59002 0.47186 0.0
H871 H 0.67164 0.53449 0.51911 0.0
H872 H 0.73868 0.52897 0.46287 0.0
H873 H 0.75741 0.52854 0.42243 0.0
H874 H 0.71292 0.47656 0.40304 0.0
H875 H 0.69364 0.47689 0.44327 0.0
C876 C 0.70235 0.44762 0.5689 0.0
C877 C 0.69381 0.42917 0.55876 0.0
C878 C 0.70272 0.46567 0.55529 0.0
C879 C 0.69404 0.4657 0.53145 0.0
C880 C 0.68606 0.44716 0.52113 0.0
C881 C 0.68603 0.42905 0.53462 0.0
C882 C 0.69283 0.48507 0.51736 0.0
C883 C 0.70353 0.48555 0.49433 0.0
C884 C 0.68121 0.50297 0.52643 0.0
C885 C 0.66789 0.50311 0.54976 0.0
C886 C 0.64877 0.48902 0.55418 0.0
C887 C 0.63638 0.48917 0.57624 0.0
C888 C 0.64281 0.50343 0.59396 0.0
C889 C 0.66159 0.51763 0.58963 0.0
C890 C 0.67407 0.51754 0.5676 0.0
C891 C 0.66935 0.55648 0.43978 0.0
C892 C 0.68079 0.57511 0.44602 0.0
C893 C 0.67303 0.53892 0.45375 0.0
C894 C 0.68794 0.53976 0.47434 0.0
C895 C 0.69922 0.55834 0.48078 0.0
C896 C 0.69589 0.57585 0.46657 0.0
C897 C 0.69132 0.52121 0.48932 0.0
C898 C 0.68099 0.5209 0.51243 0.0
C899 C 0.70288 0.50339 0.48018 0.0
C900 C 0.71455 0.50308 0.45602 0.0
C901 C 0.73273 0.51757 0.44991 0.0
C902 C 0.74348 0.51731 0.42704 0.0
C903 C 0.73632 0.50256 0.41015 0.0
C904 C 0.71843 0.488 0.41613 0.0
C905 C 0.70761 0.4882 0.43898 0.0
H906 H 0.74466 0.50239 0.39245 0.0
H907 H 0.63319 0.50352 0.61103 0.0
H908 H 0.19024 0.59302 0.00566 0.0
H909 H 0.19194 0.55882 0.98754 0.0
H910 H 0.17505 0.53156 0.05641 0.0
H911 H 0.17388 0.56563 0.07477 0.0
H912 H 0.20964 0.50993 0.03406 0.0
H913 H 0.13061 0.53793 0.01298 0.0
H914 H 0.10203 0.56359 0.99605 0.0
H915 H 0.13555 0.55668 0.92648 0.0
H916 H 0.16456 0.53116 0.94308 0.0
H917 H 0.16513 0.41261 0.99499 0.0
H918 H 0.16981 0.44694 0.01225 0.0
H919 H 0.19066 0.47061 0.94262 0.0
H920 H 0.18588 0.43638 0.92515 0.0
H921 H 0.15578 0.49425 0.96425 0.0
H922 H 0.2335 0.46442 0.98567 0.0
H923 H 0.26105 0.43827 0.00316 0.0
H924 H 0.2288 0.44804 0.07283 0.0
H925 H 0.2008 0.47406 0.05568 0.0
C926 C 0.187 0.57974 0.01697 0.0
C927 C 0.18176 0.58205 0.04162 0.0
C928 C 0.1879 0.56021 0.00658 0.0
C929 C 0.18326 0.54265 0.02056 0.0
C930 C 0.17865 0.54489 0.04528 0.0
C931 C 0.17792 0.56439 0.05572 0.0
C932 C 0.18263 0.52196 0.00938 0.0
C933 C 0.19768 0.50644 0.01895 0.0
C934 C 0.16738 0.51751 0.98936 0.0
C935 C 0.14992 0.53281 0.97933 0.0
C936 C 0.13201 0.542 0.99411 0.0
C937 C 0.11571 0.5565 0.98457 0.0
C938 C 0.11702 0.56181 0.96022 0.0
C939 C 0.13459 0.55258 0.94535 0.0
C940 C 0.15095 0.53809 0.95481 0.0
C941 C 0.17085 0.42509 0.98336 0.0
C942 C 0.17511 0.42176 0.95869 0.0
C943 C 0.17362 0.44468 0.99328 0.0
C944 C 0.18076 0.46128 0.97873 0.0
C945 C 0.18516 0.45799 0.95414 0.0
C946 C 0.18247 0.4384 0.94423 0.0
C947 C 0.18272 0.48222 0.98899 0.0
C948 C 0.16786 0.49778 0.97926 0.0
C949 C 0.19802 0.48664 0.00895 0.0
C950 C 0.2149 0.47106 0.01933 0.0
C951 C 0.23214 0.46088 0.00468 0.0
C952 C 0.24787 0.4461 0.01454 0.0
C953 C 0.24663 0.44146 0.03908 0.0
C954 C 0.22972 0.45164 0.05382 0.0
C955 C 0.21394 0.46641 0.04404 0.0
H956 H 0.25882 0.43002 0.04668 0.0
H957 H 0.10439 0.57303 0.95287 0.0
H958 H 0.34349 0.58733 0.49149 0.0
H959 H 0.33714 0.55397 0.51061 0.0
H960 H 0.29633 0.53327 0.44851 0.0
H961 H 0.30212 0.56679 0.42946 0.0
H962 H 0.27433 0.52107 0.48908 0.0
H963 H 0.35632 0.51893 0.45712 0.0
H964 H 0.3988 0.53113 0.45069 0.0
H965 H 0.41303 0.52683 0.52659 0.0
H966 H 0.37051 0.51487 0.53351 0.0
H967 H 0.28317 0.41354 0.51537 0.0
H968 H 0.28484 0.44767 0.49697 0.0
H969 H 0.32468 0.4706 0.55859 0.0
H970 H 0.3234 0.43657 0.57693 0.0
H971 H 0.34672 0.4814 0.51747 0.0
H972 H 0.26429 0.48318 0.54913 0.0
H973 H 0.22185 0.47066 0.55498 0.0
H974 H 0.20857 0.47503 0.47892 0.0
H975 H 0.25106 0.48731 0.47257 0.0
C976 C 0.33312 0.57571 0.4819 0.0
C977 C 0.32346 0.57966 0.45888 0.0
C978 C 0.32957 0.55662 0.49283 0.0
C979 C 0.31658 0.54102 0.48083 0.0
C980 C 0.30645 0.54507 0.45807 0.0
C981 C 0.30986 0.56421 0.44718 0.0
C982 C 0.31389 0.52041 0.49188 0.0
C983 C 0.29016 0.51226 0.49502 0.0
C984 C 0.33453 0.50908 0.49998 0.0
C985 C 0.36016 0.51618 0.49585 0.0
C986 C 0.36845 0.52073 0.47246 0.0
C987 C 0.39255 0.52758 0.46872 0.0
C988 C 0.40859 0.5298 0.48822 0.0
C989 C 0.40058 0.52513 0.5115 0.0
C990 C 0.37649 0.51829 0.51534 0.0
C991 C 0.29208 0.42589 0.5251 0.0
C992 C 0.30323 0.42231 0.54757 0.0
C993 C 0.29294 0.44541 0.5146 0.0
C994 C 0.30479 0.4617 0.52647 0.0
C995 C 0.31549 0.45824 0.5491 0.0
C996 C 0.31469 0.43877 0.55957 0.0
C997 C 0.30715 0.48213 0.5149 0.0
C998 C 0.33086 0.4902 0.51157 0.0
C999 C 0.2865 0.49331 0.50656 0.0
C1000 C 0.26093 0.48597 0.51035 0.0
C1001 C 0.25238 0.48131 0.53363 0.0
C1002 C 0.22831 0.47429 0.53704 0.0
C1003 C 0.21255 0.472 0.51733 0.0
C1004 C 0.22081 0.47678 0.49417 0.0
C1005 C 0.24488 0.48379 0.49065 0.0
H1006 H 0.19391 0.46656 0.52001 0.0
H1007 H 0.42723 0.53511 0.48529 0.0
H1008 H 0.60051 0.12802 0.11913 0.0
H1009 H 0.55563 0.12692 0.12235 0.0
H1010 H 0.54919 0.15844 0.05432 0.0
H1011 H 0.59408 0.15962 0.05091 0.0
H1012 H 0.51627 0.17284 0.08912 0.0
H1013 H 0.54305 0.10894 0.05513 0.0
H1014 H 0.56792 0.07731 0.05363 0.0
H1015 H 0.53537 0.05677 0.11984 0.0
H1016 H 0.51078 0.0886 0.12212 0.0
H1017 H 0.39254 0.14887 0.06055 0.0
H1018 H 0.43727 0.1525 0.06006 0.0
H1019 H 0.44248 0.11584 0.1246 0.0
H1020 H 0.39772 0.11177 0.12494 0.0
H1021 H 0.47629 0.10433 0.09246 0.0
H1022 H 0.44923 0.16837 0.12628 0.0
H1023 H 0.42505 0.2004 0.12791 0.0
H1024 H 0.45801 0.22059 0.06173 0.0
H1025 H 0.48216 0.18854 0.05953 0.0
C1026 C 0.58957 0.13492 0.10497 0.0
C1027 C 0.60084 0.14379 0.08467 0.0
C1028 C 0.56395 0.13422 0.10681 0.0
C1029 C 0.54917 0.1424 0.08845 0.0
C1030 C 0.56033 0.15201 0.06866 0.0
C1031 C 0.58596 0.15261 0.06671 0.0
C1032 C 0.52208 0.14014 0.08936 0.0
C1033 C 0.50747 0.15789 0.08961 0.0
C1034 C 0.51075 0.12058 0.09042 0.0
C1035 C 0.52526 0.10128 0.08893 0.0
C1036 C 0.54134 0.09777 0.06949 0.0
C1037 C 0.55537 0.07979 0.06848 0.0
C1038 C 0.55322 0.06503 0.08661 0.0
C1039 C 0.53703 0.06823 0.10581 0.0
C1040 C 0.52306 0.08626 0.10699 0.0
C1041 C 0.40317 0.14161 0.07468 0.0
C1042 C 0.39156 0.13008 0.09284 0.0
C1043 C 0.42875 0.14378 0.07443 0.0
C1044 C 0.44319 0.13468 0.09248 0.0
C1045 C 0.43168 0.12303 0.11052 0.0
C1046 C 0.40609 0.12076 0.11072 0.0
C1047 C 0.47035 0.13707 0.09232 0.0
C1048 C 0.48503 0.11932 0.09212 0.0
C1049 C 0.48174 0.15663 0.09128 0.0
C1050 C 0.46734 0.17597 0.09264 0.0
C1051 C 0.45119 0.17957 0.11199 0.0
C1052 C 0.43751 0.19774 0.11303 0.0
C1053 C 0.43995 0.2125 0.09491 0.0
C1054 C 0.45612 0.20914 0.07574 0.0
C1055 C 0.46983 0.19098 0.0746 0.0
H1056 H 0.42933 0.22656 0.09575 0.0
H1057 H 0.56408 0.0511 0.08576 0.0
H1058 H 0.90439 0.86958 0.61751 0.0
H1059 H 0.9493 0.86834 0.61689 0.0
H1060 H 0.94671 0.81503 0.57075 0.0
H1061 H 0.90168 0.81576 0.57197 0.0
H1062 H 0.98262 0.81082 0.60174 0.0
H1063 H 0.95679 0.86333 0.54768 0.0
H1064 H 0.93406 0.89425 0.53486 0.0
H1065 H 0.9727 0.93031 0.58745 0.0
H1066 H 0.99539 0.89953 0.60086 0.0
H1067 H 0.10515 0.86212 0.55514 0.0
H1068 H 0.06049 0.85787 0.55402 0.0
H1069 H 0.06201 0.83264 0.6259 0.0
H1070 H 0.1068 0.83608 0.62671 0.0
H1071 H 0.02636 0.87467 0.57823 0.0
H1072 H 0.01477 0.80021 0.63519 0.0
H1073 H 0.03702 0.76781 0.6428 0.0
H1074 H 0.07324 0.77301 0.57434 0.0
H1075 H 0.05097 0.80528 0.56617 0.0
C1076 C 0.91337 0.85748 0.60739 0.0
C1077 C 0.89952 0.84288 0.5946 0.0
C1078 C 0.93904 0.85684 0.60698 0.0
C1079 C 0.95137 0.84186 0.59335 0.0
C1080 C 0.93759 0.82678 0.58131 0.0
C1081 C 0.91186 0.82724 0.58199 0.0
C1082 C 0.97857 0.84244 0.59101 0.0
C1083 C 0.99222 0.82477 0.59659 0.0
C1084 C 0.99105 0.86046 0.5836 0.0
C1085 C 0.97764 0.87908 0.57541 0.0
C1086 C 0.96033 0.87783 0.55662 0.0
C1087 C 0.94746 0.89533 0.54924 0.0
C1088 C 0.9519 0.91422 0.56037 0.0
C1089 C 0.96927 0.91566 0.57886 0.0
C1090 C 0.98215 0.89819 0.58635 0.0
C1091 C 0.09598 0.85552 0.57063 0.0
C1092 C 0.10947 0.84939 0.59099 0.0
C1093 C 0.07044 0.85313 0.56999 0.0
C1094 C 0.05785 0.84475 0.58977 0.0
C1095 C 0.07131 0.83871 0.61019 0.0
C1096 C 0.09692 0.84079 0.61069 0.0
C1097 C 0.03056 0.84315 0.5894 0.0
C1098 C 0.01685 0.86067 0.58331 0.0
C1099 C 0.01805 0.82478 0.59554 0.0
C1100 C 0.03136 0.80527 0.60019 0.0
C1101 C 0.02741 0.79439 0.62172 0.0
C1102 C 0.04004 0.77606 0.62614 0.0
C1103 C 0.05659 0.76839 0.6091 0.0
C1104 C 0.06048 0.779 0.58757 0.0
C1105 C 0.04789 0.79733 0.58305 0.0
H1106 H 0.06636 0.7542 0.61256 0.0
H1107 H 0.94191 0.92775 0.55463 0.0
H1108 H 0.3873 0.87553 0.9092 0.0
H1109 H 0.43171 0.87356 0.90361 0.0
H1110 H 0.42422 0.81284 0.87337 0.0
H1111 H 0.37951 0.81457 0.87917 0.0
H1112 H 0.46173 0.81497 0.90594 0.0
H1113 H 0.43624 0.85247 0.83669 0.0
H1114 H 0.41404 0.87934 0.81417 0.0
H1115 H 0.45422 0.92606 0.85209 0.0
H1116 H 0.47641 0.89947 0.87511 0.0
H1117 H 0.59005 0.81833 0.87596 0.0
H1118 H 0.54533 0.81511 0.87156 0.0
H1119 H 0.53596 0.8759 0.90114 0.0
H1120 H 0.58043 0.87937 0.90527 0.0
H1121 H 0.5067 0.87016 0.86274 0.0
H1122 H 0.52763 0.83278 0.93551 0.0
H1123 H 0.5493 0.80608 0.95884 0.0
H1124 H 0.51738 0.75922 0.91423 0.0
H1125 H 0.49575 0.78569 0.89044 0.0
C1126 C 0.39502 0.86174 0.90133 0.0
C1127 C 0.37984 0.84522 0.89456 0.0
C1128 C 0.42043 0.86069 0.89803 0.0
C1129 C 0.43121 0.84318 0.88773 0.0
C1130 C 0.41621 0.82653 0.88122 0.0
C1131 C 0.39069 0.82757 0.88451 0.0
C1132 C 0.45825 0.84231 0.88436 0.0
C1133 C 0.47156 0.82678 0.89606 0.0
C1134 C 0.47104 0.85788 0.87171 0.0
C1135 C 0.45789 0.87395 0.85774 0.0
C1136 C 0.44023 0.86847 0.84035 0.0
C1137 C 0.42766 0.88366 0.82748 0.0
C1138 C 0.43269 0.90439 0.83172 0.0
C1139 C 0.45034 0.90999 0.84882 0.0
C1140 C 0.46295 0.89486 0.86176 0.0
C1141 C 0.57846 0.83104 0.88142 0.0
C1142 C 0.58879 0.84907 0.89106 0.0
C1143 C 0.55292 0.82915 0.87896 0.0
C1144 C 0.53733 0.84521 0.88622 0.0
C1145 C 0.54766 0.86334 0.89539 0.0
C1146 C 0.5731 0.86526 0.89782 0.0
C1147 C 0.51018 0.84317 0.88491 0.0
C1148 C 0.49684 0.85815 0.87227 0.0
C1149 C 0.49739 0.82711 0.8967 0.0
C1150 C 0.51033 0.81122 0.91103 0.0
C1151 C 0.5254 0.81679 0.93056 0.0
C1152 C 0.53764 0.8017 0.94389 0.0
C1153 C 0.53479 0.78097 0.93797 0.0
C1154 C 0.51962 0.77529 0.91876 0.0
C1155 C 0.50736 0.79032 0.90536 0.0
H1156 H 0.54428 0.76931 0.94831 0.0
H1157 H 0.42294 0.91613 0.82174 0.0
H1158 H 0.1177 0.16518 0.41054 0.0
H1159 H 0.07338 0.1718 0.40844 0.0
H1160 H 0.05943 0.10664 0.40494 0.0
H1161 H 0.10361 0.09985 0.40701 0.0
H1162 H 0.03269 0.12866 0.37132 0.0
H1163 H 0.05089 0.13151 0.45647 0.0
H1164 H 0.07262 0.14418 0.49253 0.0
H1165 H 0.04704 0.20539 0.4782 0.0
H1166 H 0.02542 0.19311 0.44184 0.0
H1167 H 0.90864 0.11702 0.40362 0.0
H1168 H 0.95338 0.1166 0.40087 0.0
H1169 H 0.95511 0.18251 0.40892 0.0
H1170 H 0.91009 0.18306 0.41205 0.0
H1171 H 0.98858 0.16417 0.43759 0.0
H1172 H 0.967 0.16097 0.35464 0.0
H1173 H 0.94507 0.14847 0.31864 0.0
H1174 H 0.97691 0.08864 0.32812 0.0
H1175 H 0.99877 0.1007 0.3644 0.0
C1176 C 0.1052 0.15226 0.40932 0.0
C1177 C 0.11417 0.13198 0.40899 0.0
C1178 C 0.0799 0.15608 0.40817 0.0
C1179 C 0.06317 0.1397 0.40663 0.0
C1180 C 0.07207 0.11948 0.40606 0.0
C1181 C 0.09732 0.11564 0.40735 0.0
C1182 C 0.0363 0.14351 0.40578 0.0
C1183 C 0.02298 0.13629 0.38587 0.0
C1184 C 0.02384 0.15406 0.42442 0.0
C1185 C 0.03679 0.16144 0.44629 0.0
C1186 C 0.05009 0.1477 0.46089 0.0
C1187 C 0.06235 0.15481 0.4814 0.0
C1188 C 0.06128 0.17559 0.48761 0.0
C1189 C 0.04789 0.18931 0.47334 0.0
C1190 C 0.03562 0.18228 0.45279 0.0
C1191 C 0.91845 0.13147 0.40467 0.0
C1192 C 0.90577 0.15009 0.40804 0.0
C1193 C 0.94406 0.13121 0.40297 0.0
C1194 C 0.95756 0.14955 0.40439 0.0
C1195 C 0.94501 0.16819 0.4077 0.0
C1196 C 0.91931 0.16848 0.40942 0.0
C1197 C 0.98483 0.14896 0.40331 0.0
C1198 C 0.99827 0.15679 0.42285 0.0
C1199 C 0.99742 0.13904 0.38426 0.0
C1200 C 0.98439 0.13172 0.36236 0.0
C1201 C 0.96919 0.14511 0.34916 0.0
C1202 C 0.95679 0.1381 0.32868 0.0
C1203 C 0.95956 0.11776 0.32112 0.0
C1204 C 0.97478 0.10439 0.334 0.0
C1205 C 0.9872 0.11131 0.35451 0.0
H1206 H 0.94994 0.11237 0.30526 0.0
H1207 H 0.07078 0.18106 0.5035 0.0
H1208 H 0.08645 0.65692 0.0469 0.0
H1209 H 0.04177 0.65796 0.05226 0.0
H1210 H 0.04976 0.63329 0.12393 0.0
H1211 H 0.09439 0.63205 0.1187 0.0
H1212 H 0.015 0.613 0.09821 0.0
H1213 H 0.03516 0.68317 0.116 0.0
H1214 H 0.05387 0.71708 0.10849 0.0
H1215 H 0.01014 0.72396 0.04457 0.0
H1216 H 0.9914 0.68994 0.05151 0.0
H1217 H 0.89118 0.6252 0.13384 0.0
H1218 H 0.93592 0.62885 0.13215 0.0
H1219 H 0.93014 0.65592 0.06145 0.0
H1220 H 0.88535 0.65273 0.0632 0.0
H1221 H 0.96395 0.67559 0.0878 0.0
H1222 H 0.94528 0.60537 0.06845 0.0
H1223 H 0.92669 0.57124 0.07485 0.0
H1224 H 0.96792 0.56419 0.14032 0.0
H1225 H 0.98651 0.59842 0.13447 0.0
C1226 C 0.07872 0.65184 0.06386 0.0
C1227 C 0.09397 0.64437 0.08235 0.0
C1228 C 0.0532 0.65253 0.06693 0.0
C1229 C 0.04249 0.64583 0.08856 0.0
C1230 C 0.05767 0.63854 0.10711 0.0
C1231 C 0.08318 0.63788 0.10409 0.0
C1232 C 0.01538 0.64559 0.09147 0.0
C1233 C 0.00387 0.62675 0.09633 0.0
C1234 C 0.00085 0.66343 0.08834 0.0
C1235 C 0.01205 0.68392 0.08416 0.0
C1236 C 0.02968 0.69183 0.10023 0.0
C1237 C 0.04026 0.71109 0.0961 0.0
C1238 C 0.03325 0.72264 0.07603 0.0
C1239 C 0.01558 0.71498 0.06009 0.0
C1240 C 0.00495 0.69573 0.06413 0.0
C1241 C 0.8994 0.63206 0.11799 0.0
C1242 C 0.88473 0.63853 0.09857 0.0
C1243 C 0.92498 0.63407 0.11703 0.0
C1244 C 0.93638 0.64235 0.09651 0.0
C1245 C 0.92173 0.64944 0.07743 0.0
C1246 C 0.89613 0.64755 0.07844 0.0
C1247 C 0.96359 0.64301 0.09458 0.0
C1248 C 0.97511 0.66188 0.08982 0.0
C1249 C 0.97817 0.62517 0.09764 0.0
C1250 C 0.96709 0.60454 0.10115 0.0
C1251 C 0.95024 0.59661 0.0843 0.0
C1252 C 0.93973 0.57724 0.08782 0.0
C1253 C 0.94607 0.56558 0.10802 0.0
C1254 C 0.96299 0.57325 0.12471 0.0
C1255 C 0.97354 0.59263 0.12129 0.0
H1256 H 0.93791 0.55058 0.1107 0.0
H1257 H 0.04146 0.73755 0.07286 0.0
H1258 H 0.59636 0.40233 0.60174 0.0
H1259 H 0.55236 0.39551 0.60547 0.0
H1260 H 0.56524 0.33112 0.59192 0.0
H1261 H 0.60931 0.33792 0.58753 0.0
H1262 H 0.52695 0.34392 0.56701 0.0
H1263 H 0.55216 0.34903 0.64907 0.0
H1264 H 0.57247 0.36456 0.68436 0.0
H1265 H 0.52539 0.41734 0.6789 0.0
H1266 H 0.50501 0.40226 0.64334 0.0
H1267 H 0.40281 0.31885 0.59783 0.0
H1268 H 0.44787 0.32001 0.59954 0.0
H1269 H 0.44527 0.38597 0.60662 0.0
H1270 H 0.40041 0.38497 0.60511 0.0
H1271 H 0.47884 0.36862 0.63725 0.0
H1272 H 0.45667 0.36438 0.55286 0.0
H1273 H 0.43653 0.3486 0.5176 0.0
H1274 H 0.47828 0.29333 0.52827 0.0
H1275 H 0.49843 0.3087 0.56381 0.0
C1276 C 0.58987 0.3867 0.59961 0.0
C1277 C 0.60633 0.37066 0.5944 0.0
C1278 C 0.5647 0.38281 0.60188 0.0
C1279 C 0.55554 0.36274 0.59938 0.0
C1280 C 0.57192 0.3467 0.59401 0.0
C1281 C 0.59709 0.35062 0.59153 0.0
C1282 C 0.52878 0.35867 0.60172 0.0
C1283 C 0.51652 0.34897 0.58259 0.0
C1284 C 0.51509 0.3655 0.62191 0.0
C1285 C 0.52717 0.37456 0.64342 0.0
C1286 C 0.54624 0.36401 0.65529 0.0
C1287 C 0.55775 0.37272 0.67536 0.0
C1288 C 0.55026 0.39194 0.68384 0.0
C1289 C 0.53118 0.40246 0.6723 0.0
C1290 C 0.51962 0.39382 0.65221 0.0
C1291 C 0.41183 0.33358 0.59992 0.0
C1292 C 0.39804 0.35183 0.60118 0.0
C1293 C 0.43756 0.33421 0.60083 0.0
C1294 C 0.44987 0.3531 0.60299 0.0
C1295 C 0.43611 0.37124 0.60495 0.0
C1296 C 0.41047 0.37064 0.60397 0.0
C1297 C 0.47709 0.35421 0.60239 0.0
C1298 C 0.48939 0.36335 0.62185 0.0
C1299 C 0.49083 0.34678 0.58258 0.0
C1300 C 0.47884 0.3376 0.56114 0.0
C1301 C 0.46141 0.3488 0.54779 0.0
C1302 C 0.45002 0.33995 0.52774 0.0
C1303 C 0.45607 0.31995 0.52074 0.0
C1304 C 0.47358 0.3088 0.53374 0.0
C1305 C 0.485 0.31758 0.55383 0.0
H1306 H 0.44723 0.31312 0.50521 0.0
H1307 H 0.55921 0.39867 0.69937 0.0
H1308 H 0.08595 0.3303 0.94105 0.0
H1309 H 0.04123 0.3298 0.93588 0.0
H1310 H 0.04658 0.37875 0.88378 0.0
H1311 H 0.09122 0.37949 0.88895 0.0
H1312 H 0.01048 0.38593 0.91632 0.0
H1313 H 0.03621 0.33013 0.86564 0.0
H1314 H 0.05752 0.29775 0.85584 0.0
H1315 H 0.01455 0.26596 0.90899 0.0
H1316 H 0.9932 0.29824 0.91934 0.0
H1317 H 0.89205 0.37946 0.86376 0.0
H1318 H 0.93671 0.37655 0.86828 0.0
H1319 H 0.92681 0.3345 0.92748 0.0
H1320 H 0.88201 0.33757 0.92339 0.0
H1321 H 0.96467 0.32319 0.89233 0.0
H1322 H 0.93909 0.37891 0.94304 0.0
H1323 H 0.91755 0.41123 0.95273 0.0
H1324 H 0.9602 0.44304 0.89938 0.0
H1325 H 0.98176 0.41082 0.88911 0.0
C1326 C 0.07763 0.34092 0.92844 0.0
C1327 C 0.09215 0.35492 0.9154 0.0
C1328 C 0.05208 0.34056 0.92545 0.0
C1329 C 0.04063 0.35414 0.90932 0.0
C1330 C 0.05507 0.36815 0.89632 0.0
C1331 C 0.08059 0.36849 0.89925 0.0
C1332 C 0.01353 0.35404 0.90627 0.0
C1333 C 0.00052 0.37228 0.91078 0.0
C1334 C 0.00049 0.33608 0.89962 0.0
C1335 C 0.0133 0.31665 0.89345 0.0
C1336 C 0.03145 0.31628 0.87539 0.0
C1337 C 0.04351 0.29793 0.8697 0.0
C1338 C 0.03745 0.27982 0.88184 0.0
C1339 C 0.01926 0.28001 0.89964 0.0
C1340 C 0.00716 0.29832 0.90541 0.0
C1341 C 0.89934 0.36939 0.87756 0.0
C1342 C 0.88355 0.35882 0.89331 0.0
C1343 C 0.92484 0.36782 0.88015 0.0
C1344 C 0.93492 0.35544 0.89831 0.0
C1345 C 0.91927 0.34414 0.91339 0.0
C1346 C 0.89375 0.34596 0.91106 0.0
C1347 C 0.96182 0.35507 0.90218 0.0
C1348 C 0.97472 0.33679 0.89788 0.0
C1349 C 0.97479 0.37298 0.90903 0.0
C1350 C 0.96184 0.39239 0.91512 0.0
C1351 C 0.9437 0.39275 0.9332 0.0
C1352 C 0.93152 0.41106 0.93884 0.0
C1353 C 0.93745 0.42916 0.92663 0.0
C1354 C 0.9556 0.42899 0.90879 0.0
C1355 C 0.96782 0.41071 0.90307 0.0
H1356 H 0.92803 0.44332 0.93105 0.0
H1357 H 0.04679 0.26563 0.8774 0.0
H1358 H 0.61135 0.65979 0.42463 0.0
H1359 H 0.56684 0.66447 0.42782 0.0
H1360 H 0.55594 0.62282 0.3683 0.0
H1361 H 0.60048 0.61853 0.36454 0.0
H1362 H 0.52523 0.65428 0.36488 0.0
H1363 H 0.54914 0.60719 0.42747 0.0
H1364 H 0.57294 0.59571 0.46282 0.0
H1365 H 0.54499 0.64648 0.50396 0.0
H1366 H 0.52128 0.65841 0.46873 0.0
H1367 H 0.40134 0.62503 0.38603 0.0
H1368 H 0.44594 0.62606 0.38074 0.0
H1369 H 0.45192 0.66988 0.43874 0.0
H1370 H 0.40727 0.66875 0.44441 0.0
H1371 H 0.48509 0.63935 0.44322 0.0
H1372 H 0.45895 0.68503 0.38047 0.0
H1373 H 0.43485 0.69555 0.34491 0.0
H1374 H 0.46654 0.64632 0.30382 0.0
H1375 H 0.49059 0.63533 0.33924 0.0
C1376 C 0.59949 0.65172 0.41212 0.0
C1377 C 0.60942 0.63866 0.39445 0.0
C1378 C 0.57405 0.65436 0.41402 0.0
C1379 C 0.55804 0.6437 0.39858 0.0
C1380 C 0.56795 0.63116 0.38045 0.0
C1381 C 0.59341 0.62868 0.37837 0.0
C1382 C 0.53098 0.64514 0.40174 0.0
C1383 C 0.51643 0.65082 0.38194 0.0
C1384 C 0.51953 0.64104 0.42414 0.0
C1385 C 0.53363 0.6338 0.44539 0.0
C1386 C 0.5482 0.61598 0.44401 0.0
C1387 C 0.56166 0.60938 0.46403 0.0
C1388 C 0.56053 0.62039 0.48561 0.0
C1389 C 0.54588 0.63798 0.48723 0.0
C1390 C 0.53241 0.64466 0.46724 0.0
C1391 C 0.4121 0.63498 0.39761 0.0
C1392 C 0.40075 0.64682 0.41565 0.0
C1393 C 0.43759 0.63562 0.39447 0.0
C1394 C 0.45221 0.64822 0.40917 0.0
C1395 C 0.44095 0.66009 0.42717 0.0
C1396 C 0.41543 0.65945 0.43034 0.0
C1397 C 0.47934 0.6484 0.40633 0.0
C1398 C 0.4939 0.64297 0.4262 0.0
C1399 C 0.49076 0.6526 0.38396 0.0
C1400 C 0.47642 0.65926 0.36258 0.0
C1401 C 0.46065 0.67636 0.3639 0.0
C1402 C 0.44702 0.68242 0.34376 0.0
C1403 C 0.44912 0.67159 0.32213 0.0
C1404 C 0.46491 0.65469 0.32059 0.0
C1405 C 0.47857 0.64855 0.34068 0.0
H1406 H 0.43855 0.6763 0.30656 0.0
H1407 H 0.57096 0.61526 0.50109 0.0
H1408 H 0.30327 0.14069 0.15623 0.0
H1409 H 0.28848 0.13947 0.1977 0.0
H1410 H 0.2252 0.10441 0.17493 0.0
H1411 H 0.23964 0.10587 0.13324 0.0
H1412 H 0.21205 0.13413 0.20545 0.0
H1413 H 0.27322 0.0813 0.20391 0.0
H1414 H 0.31412 0.06624 0.19621 0.0
H1415 H 0.3469 0.10891 0.24571 0.0
H1416 H 0.30621 0.12443 0.25346 0.0
H1417 H 0.17526 0.10335 0.32287 0.0
H1418 H 0.18992 0.10267 0.28127 0.0
H1419 H 0.25128 0.14127 0.30086 0.0
H1420 H 0.23683 0.142 0.34258 0.0
H1421 H 0.26497 0.10872 0.27195 0.0
H1422 H 0.20338 0.16186 0.2726 0.0
H1423 H 0.16221 0.17644 0.28027 0.0
H1424 H 0.12992 0.13223 0.23233 0.0
H1425 H 0.17088 0.1172 0.22463 0.0
C1426 C 0.28621 0.13268 0.16001 0.0
C1427 C 0.27265 0.12332 0.14143 0.0
C1428 C 0.27785 0.13193 0.18376 0.0
C1429 C 0.2559 0.12162 0.18945 0.0
C1430 C 0.24221 0.1124 0.17093 0.0
C1431 C 0.25053 0.11322 0.14713 0.0
C1432 C 0.24708 0.12075 0.21469 0.0
C1433 C 0.22347 0.12828 0.21993 0.0
C1434 C 0.2622 0.11349 0.23364 0.0
C1435 C 0.28669 0.10415 0.22909 0.0
C1436 C 0.28917 0.08758 0.21301 0.0
C1437 C 0.31232 0.07894 0.20866 0.0
C1438 C 0.33311 0.08665 0.22042 0.0
C1439 C 0.33078 0.10298 0.2366 0.0
C1440 C 0.30768 0.11168 0.24099 0.0
C1441 C 0.19191 0.11166 0.31837 0.0
C1442 C 0.20484 0.12279 0.33601 0.0
C1443 C 0.2002 0.1113 0.29457 0.0
C1444 C 0.22154 0.12207 0.28798 0.0
C1445 C 0.23475 0.13289 0.30561 0.0
C1446 C 0.22641 0.13334 0.32941 0.0
C1447 C 0.23002 0.12217 0.26265 0.0
C1448 C 0.25354 0.1145 0.25741 0.0
C1449 C 0.2148 0.12921 0.24369 0.0
C1450 C 0.19016 0.13827 0.24823 0.0
C1451 C 0.18747 0.15514 0.26385 0.0
C1452 C 0.16418 0.16351 0.26818 0.0
C1453 C 0.14345 0.15523 0.25685 0.0
C1454 C 0.14599 0.13861 0.24112 0.0
C1455 C 0.16924 0.13017 0.23675 0.0
H1456 H 0.12544 0.16173 0.26022 0.0
H1457 H 0.35101 0.07994 0.21703 0.0
H1458 H 0.32237 0.87563 0.81563 0.0
H1459 H 0.30105 0.87792 0.77705 0.0
H1460 H 0.23101 0.87473 0.81356 0.0
H1461 H 0.25226 0.87186 0.85225 0.0
H1462 H 0.23038 0.85104 0.7753 0.0
H1463 H 0.25347 0.9205 0.79083 0.0
H1464 H 0.28138 0.94905 0.80116 0.0
H1465 H 0.32483 0.9365 0.73826 0.0
H1466 H 0.29737 0.90768 0.72772 0.0
H1467 H 0.16124 0.88331 0.67249 0.0
H1468 H 0.18027 0.88315 0.71247 0.0
H1469 H 0.25193 0.87629 0.68 0.0
H1470 H 0.2331 0.87628 0.63998 0.0
H1471 H 0.24983 0.90638 0.71684 0.0
H1472 H 0.22642 0.83578 0.70284 0.0
H1473 H 0.19733 0.80796 0.69287 0.0
H1474 H 0.15269 0.82412 0.75382 0.0
H1475 H 0.18135 0.85225 0.76394 0.0
C1476 C 0.30242 0.87544 0.81548 0.0
C1477 C 0.28899 0.87363 0.83701 0.0
C1478 C 0.29026 0.87686 0.7934 0.0
C1479 C 0.26442 0.87684 0.79244 0.0
C1480 C 0.25096 0.87484 0.81389 0.0
C1481 C 0.26313 0.87323 0.83598 0.0
C1482 C 0.25152 0.87855 0.76898 0.0
C1483 C 0.23435 0.86334 0.7627 0.0
C1484 C 0.25694 0.89443 0.75237 0.0
C1485 C 0.27347 0.91181 0.7586 0.0
C1486 C 0.26908 0.92373 0.77929 0.0
C1487 C 0.28481 0.93998 0.78517 0.0
C1488 C 0.3049 0.94455 0.77041 0.0
C1489 C 0.30927 0.93292 0.74969 0.0
C1490 C 0.29362 0.91664 0.74374 0.0
C1491 C 0.18105 0.88185 0.67385 0.0
C1492 C 0.19567 0.87974 0.6531 0.0
C1493 C 0.19186 0.88171 0.69668 0.0
C1494 C 0.21745 0.8796 0.69911 0.0
C1495 C 0.23214 0.87793 0.67844 0.0
C1496 C 0.22133 0.87785 0.65563 0.0
C1497 C 0.22895 0.87881 0.72322 0.0
C1498 C 0.24581 0.89419 0.72958 0.0
C1499 C 0.22306 0.86322 0.73999 0.0
C1500 C 0.20588 0.84626 0.73398 0.0
C1501 C 0.21028 0.83352 0.71399 0.0
C1502 C 0.1939 0.81767 0.70833 0.0
C1503 C 0.17313 0.81432 0.72266 0.0
C1504 C 0.16875 0.82677 0.74271 0.0
C1505 C 0.18507 0.84265 0.74842 0.0
H1506 H 0.16047 0.80204 0.71826 0.0
H1507 H 0.31705 0.95714 0.77499 0.0
H1508 H 0.7432 0.84553 0.86413 0.0
H1509 H 0.76359 0.84619 0.82496 0.0
H1510 H 0.70673 0.88605 0.79736 0.0
H1511 H 0.6859 0.8851 0.83636 0.0
H1512 H 0.71617 0.85631 0.76634 0.0
H1513 H 0.76464 0.90437 0.81118 0.0
H1514 H 0.78976 0.91666 0.84526 0.0
H1515 H 0.843 0.86929 0.83174 0.0
H1516 H 0.81803 0.85652 0.79777 0.0
H1517 H 0.77871 0.88336 0.65852 0.0
H1518 H 0.75929 0.88542 0.69817 0.0
H1519 H 0.81143 0.84142 0.72596 0.0
H1520 H 0.83105 0.8393 0.68641 0.0
H1521 H 0.8044 0.87432 0.75662 0.0
H1522 H 0.75494 0.82597 0.71232 0.0
H1523 H 0.72977 0.81413 0.67806 0.0
H1524 H 0.67823 0.86301 0.69054 0.0
H1525 H 0.7033 0.87532 0.72469 0.0
C1526 C 0.73507 0.85452 0.84977 0.0
C1527 C 0.71294 0.86529 0.85337 0.0
C1528 C 0.74682 0.85496 0.82741 0.0
C1529 C 0.73685 0.86638 0.80831 0.0
C1530 C 0.71477 0.87716 0.81186 0.0
C1531 C 0.70292 0.87663 0.83418 0.0
C1532 C 0.74906 0.86658 0.78442 0.0
C1533 C 0.73536 0.86058 0.76418 0.0
C1534 C 0.77425 0.87171 0.78167 0.0
C1535 C 0.78934 0.87937 0.80207 0.0
C1536 C 0.78161 0.89647 0.81559 0.0
C1537 C 0.79584 0.90354 0.83487 0.0
C1538 C 0.81793 0.89373 0.8407 0.0
C1539 C 0.82587 0.87685 0.82722 0.0
C1540 C 0.8117 0.86971 0.80794 0.0
C1541 C 0.78611 0.87416 0.67307 0.0
C1542 C 0.80636 0.86109 0.66929 0.0
C1543 C 0.77494 0.87532 0.69569 0.0
C1544 C 0.78381 0.86343 0.7149 0.0
C1545 C 0.80432 0.8507 0.71133 0.0
C1546 C 0.81543 0.84946 0.6887 0.0
C1547 C 0.77149 0.86405 0.73867 0.0
C1548 C 0.78518 0.87017 0.75885 0.0
C1549 C 0.74627 0.85912 0.74136 0.0
C1550 C 0.73113 0.85169 0.7209 0.0
C1551 C 0.73835 0.8343 0.70763 0.0
C1552 C 0.72408 0.82748 0.68826 0.0
C1553 C 0.70245 0.83784 0.68208 0.0
C1554 C 0.69501 0.85501 0.69532 0.0
C1555 C 0.70923 0.86191 0.7147 0.0
H1556 H 0.69142 0.83254 0.66708 0.0
H1557 H 0.82892 0.89923 0.85562 0.0
H1558 H 0.83348 0.1044 0.32258 0.0
H1559 H 0.81093 0.10655 0.28457 0.0
H1560 H 0.75639 0.14519 0.31834 0.0
H1561 H 0.77855 0.14282 0.3565 0.0
H1562 H 0.73495 0.11668 0.29101 0.0
H1563 H 0.80062 0.16538 0.28131 0.0
H1564 H 0.84378 0.17715 0.28105 0.0
H1565 H 0.86105 0.13326 0.22585 0.0
H1566 H 0.81804 0.12103 0.22601 0.0
H1567 H 0.67828 0.15614 0.18542 0.0
H1568 H 0.7009 0.1527 0.22327 0.0
H1569 H 0.75264 0.1119 0.18884 0.0
H1570 H 0.73025 0.11534 0.15086 0.0
H1571 H 0.77563 0.14092 0.21621 0.0
H1572 H 0.70944 0.09273 0.2256 0.0
H1573 H 0.66613 0.08136 0.22588 0.0
H1574 H 0.64967 0.12489 0.28171 0.0
H1575 H 0.69283 0.13672 0.28153 0.0
C1576 C 0.81669 0.11336 0.32193 0.0
C1577 C 0.80785 0.12349 0.34255 0.0
C1578 C 0.80387 0.11464 0.30016 0.0
C1579 C 0.78213 0.12624 0.29855 0.0
C1580 C 0.77314 0.13617 0.31917 0.0
C1581 C 0.78588 0.13484 0.34096 0.0
C1582 C 0.76867 0.12797 0.27541 0.0
C1583 C 0.74376 0.12223 0.27472 0.0
C1584 C 0.78032 0.13477 0.25405 0.0
C1585 C 0.80617 0.14215 0.25386 0.0
C1586 C 0.81367 0.15813 0.26925 0.0
C1587 C 0.83809 0.1649 0.2691 0.0
C1588 C 0.85516 0.15592 0.25349 0.0
C1589 C 0.84782 0.14018 0.23796 0.0
C1590 C 0.82342 0.13333 0.23806 0.0
C1591 C 0.69445 0.14641 0.18589 0.0
C1592 C 0.70243 0.13597 0.16514 0.0
C1593 C 0.7073 0.14441 0.20755 0.0
C1594 C 0.7283 0.1319 0.20889 0.0
C1595 C 0.73645 0.12161 0.18818 0.0
C1596 C 0.72358 0.12355 0.16652 0.0
C1597 C 0.74193 0.1297 0.23186 0.0
C1598 C 0.76685 0.13535 0.2325 0.0
C1599 C 0.73027 0.12288 0.25319 0.0
C1600 C 0.70432 0.11575 0.25338 0.0
C1601 C 0.69654 0.09999 0.2378 0.0
C1602 C 0.67203 0.09344 0.23797 0.0
C1603 C 0.65514 0.10243 0.25376 0.0
C1604 C 0.66276 0.11796 0.26947 0.0
C1605 C 0.68725 0.12458 0.26935 0.0
H1606 H 0.63617 0.09734 0.25386 0.0
H1607 H 0.87407 0.16119 0.2534 0.0
H1608 H 0.70005 0.58194 0.33582 0.0
H1609 H 0.71392 0.58169 0.29396 0.0
H1610 H 0.73896 0.64431 0.30128 0.0
H1611 H 0.72452 0.64486 0.34292 0.0
H1612 H 0.71455 0.63994 0.26085 0.0
H1613 H 0.77939 0.60267 0.30048 0.0
H1614 H 0.79703 0.57547 0.32614 0.0
H1615 H 0.76739 0.52932 0.27909 0.0
H1616 H 0.7493 0.55625 0.25331 0.0
H1617 H 0.78807 0.64665 0.15609 0.0
H1618 H 0.77373 0.64523 0.19771 0.0
H1619 H 0.746 0.58394 0.18595 0.0
H1620 H 0.76061 0.5851 0.14429 0.0
H1621 H 0.77083 0.5868 0.2281 0.0
H1622 H 0.70684 0.62443 0.188 0.0
H1623 H 0.68967 0.65184 0.16234 0.0
H1624 H 0.71832 0.69761 0.21047 0.0
H1625 H 0.73595 0.67048 0.23626 0.0
C1626 C 0.70863 0.59562 0.32856 0.0
C1627 C 0.71121 0.61341 0.34269 0.0
C1628 C 0.71664 0.59543 0.30465 0.0
C1629 C 0.72773 0.61291 0.29455 0.0
C1630 C 0.73044 0.63065 0.30868 0.0
C1631 C 0.72223 0.63092 0.3325 0.0
C1632 C 0.73596 0.61296 0.26908 0.0
C1633 C 0.72712 0.62847 0.25379 0.0
C1634 C 0.75183 0.59768 0.25968 0.0
C1635 C 0.76279 0.58147 0.2751 0.0
C1636 C 0.77648 0.58672 0.29571 0.0
C1637 C 0.78659 0.57135 0.31026 0.0
C1638 C 0.78328 0.55068 0.30429 0.0
C1639 C 0.76991 0.54533 0.28371 0.0
C1640 C 0.75975 0.56064 0.26911 0.0
C1641 C 0.77888 0.63287 0.16231 0.0
C1642 C 0.77539 0.61601 0.14685 0.0
C1643 C 0.77062 0.63212 0.18609 0.0
C1644 C 0.75855 0.61457 0.19483 0.0
C1645 C 0.75524 0.59764 0.17953 0.0
C1646 C 0.76353 0.59836 0.15572 0.0
C1647 C 0.74959 0.61388 0.22002 0.0
C1648 C 0.75824 0.59824 0.23521 0.0
C1649 C 0.7336 0.62908 0.22936 0.0
C1650 C 0.7229 0.64542 0.21395 0.0
C1651 C 0.70963 0.64035 0.19302 0.0
C1652 C 0.69979 0.65583 0.17847 0.0
C1653 C 0.70295 0.67645 0.18474 0.0
C1654 C 0.7159 0.68163 0.20562 0.0
C1655 C 0.7258 0.6662 0.22023 0.0
H1656 H 0.69532 0.68841 0.17345 0.0
H1657 H 0.79111 0.5388 0.31558 0.0
H1658 H 0.70005 0.35462 0.65926 0.0
H1659 H 0.71258 0.35775 0.70128 0.0
H1660 H 0.76804 0.40203 0.68106 0.0
H1661 H 0.75627 0.3982 0.63874 0.0
H1662 H 0.78629 0.37781 0.71291 0.0
H1663 H 0.71154 0.41605 0.70803 0.0
H1664 H 0.66797 0.4225 0.69809 0.0
H1665 H 0.64584 0.37397 0.74577 0.0
H1666 H 0.68932 0.36703 0.75575 0.0
H1667 H 0.80378 0.41421 0.83295 0.0
H1668 H 0.79047 0.41346 0.79085 0.0
H1669 H 0.74878 0.35831 0.80459 0.0
H1670 H 0.76226 0.35875 0.84669 0.0
H1671 H 0.72369 0.38994 0.77647 0.0
H1672 H 0.80044 0.35202 0.77966 0.0
H1673 H 0.84433 0.3478 0.78987 0.0
H1674 H 0.86273 0.39942 0.74522 0.0
H1675 H 0.81886 0.40414 0.73504 0.0
C1676 C 0.71494 0.365 0.66377 0.0
C1677 C 0.72711 0.37626 0.64577 0.0
C1678 C 0.72199 0.36689 0.68782 0.0
C1679 C 0.74088 0.3805 0.69445 0.0
C1680 C 0.75334 0.3915 0.67642 0.0
C1681 C 0.7466 0.38932 0.65225 0.0
C1682 C 0.74777 0.38302 0.72016 0.0
C1683 C 0.7726 0.3808 0.7267 0.0
C1684 C 0.72992 0.38669 0.7383 0.0
C1685 C 0.70372 0.39091 0.73248 0.0
C1686 C 0.6974 0.40666 0.71628 0.0
C1687 C 0.67271 0.41042 0.71065 0.0
C1688 C 0.65415 0.39862 0.72125 0.0
C1689 C 0.66024 0.38308 0.73756 0.0
C1690 C 0.6849 0.37924 0.74323 0.0
C1691 C 0.79162 0.40201 0.82708 0.0
C1692 C 0.78413 0.38648 0.84308 0.0
C1693 C 0.7841 0.40159 0.80304 0.0
C1694 C 0.76879 0.38577 0.7947 0.0
C1695 C 0.76062 0.37063 0.81077 0.0
C1696 C 0.7684 0.37087 0.83474 0.0
C1697 C 0.76201 0.3846 0.76898 0.0
C1698 C 0.73726 0.38708 0.76252 0.0
C1699 C 0.77994 0.38153 0.75089 0.0
C1700 C 0.80634 0.37856 0.7568 0.0
C1701 C 0.81382 0.36258 0.77218 0.0
C1702 C 0.8387 0.36008 0.77794 0.0
C1703 C 0.8563 0.37337 0.76825 0.0
C1704 C 0.84907 0.38916 0.75273 0.0
C1705 C 0.8242 0.39174 0.74695 0.0
H1706 H 0.87556 0.37141 0.77273 0.0
H1707 H 0.63505 0.40154 0.71686 0.0
H1708 H 0.28823 0.38396 0.66272 0.0
H1709 H 0.26955 0.38253 0.70266 0.0
H1710 H 0.26876 0.31632 0.69932 0.0
H1711 H 0.28729 0.31759 0.65917 0.0
H1712 H 0.22541 0.33179 0.71632 0.0
H1713 H 0.31132 0.3401 0.73285 0.0
H1714 H 0.35234 0.35607 0.72938 0.0
H1715 H 0.32346 0.41287 0.75673 0.0
H1716 H 0.28217 0.39732 0.76005 0.0
H1717 H 0.19852 0.31834 0.84096 0.0
H1718 H 0.21818 0.31694 0.80138 0.0
H1719 H 0.22341 0.38308 0.80052 0.0
H1720 H 0.20413 0.38461 0.84021 0.0
H1721 H 0.26561 0.36578 0.786 0.0
H1722 H 0.17942 0.35792 0.76788 0.0
H1723 H 0.1383 0.34209 0.77113 0.0
H1724 H 0.16768 0.28449 0.74671 0.0
H1725 H 0.20907 0.29993 0.74361 0.0
C1726 C 0.28408 0.36908 0.67044 0.0
C1727 C 0.28934 0.35088 0.6578 0.0
C1728 C 0.27349 0.36829 0.69331 0.0
C1729 C 0.26806 0.34931 0.70405 0.0
C1730 C 0.27289 0.33112 0.69136 0.0
C1731 C 0.28353 0.33188 0.66845 0.0
C1732 C 0.25726 0.34854 0.72852 0.0
C1733 C 0.23436 0.33893 0.73166 0.0
C1734 C 0.26876 0.35821 0.74838 0.0
C1735 C 0.2936 0.36759 0.74649 0.0
C1736 C 0.31367 0.35604 0.73795 0.0
C1737 C 0.33698 0.36501 0.73604 0.0
C1738 C 0.34049 0.38548 0.74278 0.0
C1739 C 0.32071 0.39702 0.7515 0.0
C1740 C 0.29735 0.38813 0.75342 0.0
C1741 C 0.20383 0.33259 0.83235 0.0
C1742 C 0.1997 0.35159 0.8437 0.0
C1743 C 0.21499 0.33176 0.80969 0.0
C1744 C 0.22202 0.34992 0.79791 0.0
C1745 C 0.21811 0.36888 0.8093 0.0
C1746 C 0.20703 0.36972 0.83196 0.0
C1747 C 0.23361 0.34924 0.77376 0.0
C1748 C 0.2567 0.35855 0.7707 0.0
C1749 C 0.22226 0.33931 0.75398 0.0
C1750 C 0.19739 0.33002 0.75577 0.0
C1751 C 0.17715 0.34184 0.76339 0.0
C1752 C 0.15379 0.33294 0.76517 0.0
C1753 C 0.1504 0.31228 0.7592 0.0
C1754 C 0.17035 0.30049 0.75137 0.0
C1755 C 0.19375 0.3093 0.74958 0.0
H1756 H 0.1323 0.30542 0.76058 0.0
H1757 H 0.35855 0.3924 0.74129 0.0
H1758 H 0.28975 0.61549 0.34013 0.0
H1759 H 0.27095 0.61655 0.30018 0.0
H1760 H 0.27884 0.68248 0.2988 0.0
H1761 H 0.29756 0.6816 0.33886 0.0
H1762 H 0.23311 0.66994 0.28399 0.0
H1763 H 0.31735 0.65346 0.26663 0.0
H1764 H 0.35606 0.63395 0.27046 0.0
H1765 H 0.3193 0.57914 0.24678 0.0
H1766 H 0.28026 0.59827 0.24313 0.0
H1767 H 0.20595 0.6826 0.15983 0.0
H1768 H 0.22622 0.68297 0.19912 0.0
H1769 H 0.22404 0.61673 0.20121 0.0
H1770 H 0.20426 0.6162 0.16171 0.0
H1771 H 0.26769 0.63034 0.21552 0.0
H1772 H 0.18336 0.64616 0.23395 0.0
H1773 H 0.14428 0.66523 0.23054 0.0
H1774 H 0.18067 0.72069 0.25261 0.0
H1775 H 0.22006 0.702 0.25585 0.0
C1776 C 0.28751 0.63022 0.33135 0.0
C1777 C 0.29521 0.64846 0.34264 0.0
C1778 C 0.27685 0.63079 0.30848 0.0
C1779 C 0.27374 0.64957 0.29647 0.0
C1780 C 0.28114 0.66783 0.30778 0.0
C1781 C 0.29189 0.66728 0.33063 0.0
C1782 C 0.26251 0.65016 0.27219 0.0
C1783 C 0.24084 0.66154 0.2689 0.0
C1784 C 0.27235 0.6388 0.25273 0.0
C1785 C 0.29582 0.62726 0.25482 0.0
C1786 C 0.31747 0.63721 0.26242 0.0
C1787 C 0.33948 0.62622 0.26453 0.0
C1788 C 0.34013 0.6053 0.25892 0.0
C1789 C 0.31877 0.59534 0.25114 0.0
C1790 C 0.2967 0.60625 0.24903 0.0
C1791 C 0.20976 0.66811 0.16866 0.0
C1792 C 0.20341 0.64937 0.1577 0.0
C1793 C 0.22127 0.66835 0.19115 0.0
C1794 C 0.22636 0.64989 0.20323 0.0
C1795 C 0.22026 0.63116 0.19222 0.0
C1796 C 0.2089 0.6309 0.16966 0.0
C1797 C 0.23816 0.65003 0.2273 0.0
C1798 C 0.25996 0.63879 0.23057 0.0
C1799 C 0.22838 0.66146 0.24678 0.0
C1800 C 0.2047 0.67272 0.2449 0.0
C1801 C 0.18307 0.66246 0.2379 0.0
C1802 C 0.16086 0.67319 0.23603 0.0
C1803 C 0.16001 0.69417 0.24129 0.0
C1804 C 0.18136 0.70445 0.2485 0.0
C1805 C 0.20363 0.69379 0.25038 0.0
H1806 H 0.14279 0.70245 0.23983 0.0
H1807 H 0.35719 0.59683 0.26056 0.0
loop_
_geom_bond_atom_site_label_1
_geom_bond_atom_site_label_2
_geom_bond_distance
_geom_bond_site_symmetry_2
_ccdc_geom_bond_type
C0 O1 1.160 . S
C0 O7 1.185 . S
O1 C0 1.160 . S
O2 Zn3 1.899 . S
O2 C10 1.284 . S
Zn3 O2 1.899 . S
Zn3 O4 2.032 . S
Zn3 O7 2.086 . S
Zn3 O12 1.977 . S
O4 Zn3 2.032 . S
O4 C8 1.278 . S
C5 O6 1.203 . S
C5 O12 1.267 . S
O6 C5 1.203 . S
O7 C0 1.185 . S
O7 Zn3 2.086 . S
C8 O4 1.278 . S
C8 O9 1.211 . S
O9 C8 1.211 . S
C10 O2 1.284 . S
C10 O11 1.273 . S
O11 C10 1.273 . S
O12 Zn3 1.977 . S
O12 C5 1.267 . S
C13 O14 1.160 . S
C13 O20 1.185 . S
O14 C13 1.160 . S
O15 Zn16 1.899 . S
O15 C23 1.284 . S
Zn16 O15 1.899 . S
Zn16 O17 2.032 . S
Zn16 O20 2.086 . S
Zn16 O25 1.977 . S
O17 Zn16 2.032 . S
O17 C21 1.278 . S
C18 O19 1.203 . S
C18 O25 1.267 . S
O19 C18 1.203 . S
O20 C13 1.185 . S
O20 Zn16 2.086 . S
C21 O17 1.278 . S
C21 O22 1.211 . S
O22 C21 1.211 . S
C23 O15 1.284 . S
C23 O24 1.273 . S
O24 C23 1.273 . S
O25 Zn16 1.977 . S
O25 C18 1.267 . S
C26 O27 1.160 . S
C26 O33 1.185 . S
O27 C26 1.160 . S
O28 Zn29 1.899 . S
O28 C36 1.284 . S
Zn29 O28 1.899 . S
Zn29 O30 2.032 . S
Zn29 O33 2.086 . S
Zn29 O38 1.977 . S
O30 Zn29 2.032 . S
O30 C34 1.278 . S
C31 O32 1.203 . S
C31 O38 1.267 . S
O32 C31 1.203 . S
O33 C26 1.185 . S
O33 Zn29 2.086 . S
C34 O30 1.278 . S
C34 O35 1.211 . S
O35 C34 1.211 . S
C36 O28 1.284 . S
C36 O37 1.273 . S
O37 C36 1.273 . S
O38 Zn29 1.977 . S
O38 C31 1.267 . S
C39 O40 1.160 . S
C39 O46 1.185 . S
O40 C39 1.160 . S
O41 Zn42 1.899 . S
O41 C49 1.284 . S
Zn42 O41 1.899 . S
Zn42 O43 2.032 . S
Zn42 O46 2.086 . S
Zn42 O51 1.977 . S
O43 Zn42 2.032 . S
O43 C47 1.278 . S
C44 O45 1.203 . S
C44 O51 1.267 . S
O45 C44 1.203 . S
O46 C39 1.185 . S
O46 Zn42 2.086 . S
C47 O43 1.278 . S
C47 O48 1.211 . S
O48 C47 1.211 . S
C49 O41 1.284 . S
C49 O50 1.273 . S
O50 C49 1.273 . S
O51 Zn42 1.977 . S
O51 C44 1.267 . S
C52 O53 1.160 . S
C52 O59 1.185 . S
O53 C52 1.160 . S
O54 Zn55 1.899 . S
O54 C62 1.284 . S
Zn55 O54 1.899 . S
Zn55 O56 2.032 . S
Zn55 O59 2.086 . S
Zn55 O64 1.977 . S
O56 Zn55 2.032 . S
O56 C60 1.278 . S
C57 O58 1.203 . S
C57 O64 1.267 . S
O58 C57 1.203 . S
O59 C52 1.185 . S
O59 Zn55 2.086 . S
C60 O56 1.278 . S
C60 O61 1.211 . S
O61 C60 1.211 . S
C62 O54 1.284 . S
C62 O63 1.273 . S
O63 C62 1.273 . S
O64 Zn55 1.977 . S
O64 C57 1.267 . S
C65 O66 1.160 . S
C65 O72 1.185 . S
O66 C65 1.160 . S
O67 Zn68 1.899 . S
O67 C75 1.284 . S
Zn68 O67 1.899 . S
Zn68 O69 2.032 . S
Zn68 O72 2.086 . S
Zn68 O77 1.977 . S
O69 Zn68 2.032 . S
O69 C73 1.278 . S
C70 O71 1.203 . S
C70 O77 1.267 . S
O71 C70 1.203 . S
O72 C65 1.185 . S
O72 Zn68 2.086 . S
C73 O69 1.278 . S
C73 O74 1.211 . S
O74 C73 1.211 . S
C75 O67 1.284 . S
C75 O76 1.273 . S
O76 C75 1.273 . S
O77 Zn68 1.977 . S
O77 C70 1.267 . S
C78 O79 1.160 . S
C78 O85 1.185 . S
O79 C78 1.160 . S
O80 Zn81 1.899 . S
O80 C88 1.284 . S
Zn81 O80 1.899 . S
Zn81 O82 2.032 . S
Zn81 O85 2.086 . S
Zn81 O90 1.977 . S
O82 Zn81 2.032 . S
O82 C86 1.278 . S
C83 O84 1.203 . S
C83 O90 1.267 . S
O84 C83 1.203 . S
O85 C78 1.185 . S
O85 Zn81 2.086 . S
C86 O82 1.278 . S
C86 O87 1.211 . S
O87 C86 1.211 . S
C88 O80 1.284 . S
C88 O89 1.273 . S
O89 C88 1.273 . S
O90 Zn81 1.977 . S
O90 C83 1.267 . S
C91 O92 1.160 . S
C91 O98 1.185 . S
O92 C91 1.160 . S
O93 Zn94 1.899 . S
O93 C101 1.284 . S
Zn94 O93 1.899 . S
Zn94 O95 2.032 . S
Zn94 O98 2.086 . S
Zn94 O103 1.977 . S
O95 Zn94 2.032 . S
O95 C99 1.278 . S
C96 O97 1.203 . S
C96 O103 1.267 . S
O97 C96 1.203 . S
O98 C91 1.185 . S
O98 Zn94 2.086 . S
C99 O95 1.278 . S
C99 O100 1.211 . S
O100 C99 1.211 . S
C101 O93 1.284 . S
C101 O102 1.273 . S
O102 C101 1.273 . S
O103 Zn94 1.977 . S
O103 C96 1.267 . S
C104 O105 1.160 . S
C104 O111 1.185 . S
O105 C104 1.160 . S
O106 Zn107 1.899 . S
O106 C114 1.284 . S
Zn107 O106 1.899 . S
Zn107 O108 2.032 . S
Zn107 O111 2.086 . S
Zn107 O116 1.977 . S
O108 Zn107 2.032 . S
O108 C112 1.278 . S
C109 O110 1.203 . S
C109 O116 1.267 . S
O110 C109 1.203 . S
O111 C104 1.185 . S
O111 Zn107 2.086 . S
C112 O108 1.278 . S
C112 O113 1.211 . S
O113 C112 1.211 . S
C114 O106 1.284 . S
C114 O115 1.273 . S
O115 C114 1.273 . S
O116 Zn107 1.977 . S
O116 C109 1.267 . S
C117 O118 1.160 . S
C117 O124 1.185 . S
O118 C117 1.160 . S
O119 Zn120 1.899 . S
O119 C127 1.284 . S
Zn120 O119 1.899 . S
Zn120 O121 2.032 . S
Zn120 O124 2.086 . S
Zn120 O129 1.977 . S
O121 Zn120 2.032 . S
O121 C125 1.278 . S
C122 O123 1.203 . S
C122 O129 1.267 . S
O123 C122 1.203 . S
O124 C117 1.185 . S
O124 Zn120 2.086 . S
C125 O121 1.278 . S
C125 O126 1.211 . S
O126 C125 1.211 . S
C127 O119 1.284 . S
C127 O128 1.273 . S
O128 C127 1.273 . S
O129 Zn120 1.977 . S
O129 C122 1.267 . S
C130 O131 1.160 . S
C130 O137 1.185 . S
O131 C130 1.160 . S
O132 Zn133 1.899 . S
O132 C140 1.284 . S
Zn133 O132 1.899 . S
Zn133 O134 2.032 . S
Zn133 O137 2.086 . S
Zn133 O142 1.977 . S
O134 Zn133 2.032 . S
O134 C138 1.278 . S
C135 O136 1.203 . S
C135 O142 1.267 . S
O136 C135 1.203 . S
O137 C130 1.185 . S
O137 Zn133 2.086 . S
C138 O134 1.278 . S
C138 O139 1.211 . S
O139 C138 1.211 . S
C140 O132 1.284 . S
C140 O141 1.273 . S
O141 C140 1.273 . S
O142 Zn133 1.977 . S
O142 C135 1.267 . S
C143 O144 1.160 . S
C143 O150 1.185 . S
O144 C143 1.160 . S
O145 Zn146 1.899 . S
O145 C153 1.284 . S
Zn146 O145 1.899 . S
Zn146 O147 2.032 . S
Zn146 O150 2.086 . S
Zn146 O155 1.977 . S
O147 Zn146 2.032 . S
O147 C151 1.278 . S
C148 O149 1.203 . S
C148 O155 1.267 . S
O149 C148 1.203 . S
O150 C143 1.185 . S
O150 Zn146 2.086 . S
C151 O147 1.278 . S
C151 O152 1.211 . S
O152 C151 1.211 . S
C153 O145 1.284 . S
C153 O154 1.273 . S
O154 C153 1.273 . S
O155 Zn146 1.977 . S
O155 C148 1.267 . S
C156 O157 1.160 . S
C156 O163 1.185 . S
O157 C156 1.160 . S
O158 Zn159 1.899 . S
O158 C166 1.284 . S
Zn159 O158 1.899 . S
Zn159 O160 2.032 . S
Zn159 O163 2.086 . S
Zn159 O168 1.977 . S
O160 Zn159 2.032 . S
O160 C164 1.278 . S
C161 O162 1.203 . S
C161 O168 1.267 . S
O162 C161 1.203 . S
O163 C156 1.185 . S
O163 Zn159 2.086 . S
C164 O160 1.278 . S
C164 O165 1.211 . S
O165 C164 1.211 . S
C166 O158 1.284 . S
C166 O167 1.273 . S
O167 C166 1.273 . S
O168 Zn159 1.977 . S
O168 C161 1.267 . S
C169 O170 1.160 . S
C169 O176 1.185 . S
O170 C169 1.160 . S
O171 Zn172 1.899 . S
O171 C179 1.284 . S
Zn172 O171 1.899 . S
Zn172 O173 2.032 . S
Zn172 O176 2.086 . S
Zn172 O181 1.977 . S
O173 Zn172 2.032 . S
O173 C177 1.278 . S
C174 O175 1.203 . S
C174 O181 1.267 . S
O175 C174 1.203 . S
O176 C169 1.185 . S
O176 Zn172 2.086 . S
C177 O173 1.278 . S
C177 O178 1.211 . S
O178 C177 1.211 . S
C179 O171 1.284 . S
C179 O180 1.273 . S
O180 C179 1.273 . S
O181 Zn172 1.977 . S
O181 C174 1.267 . S
C182 O183 1.160 . S
C182 O189 1.185 . S
O183 C182 1.160 . S
O184 Zn185 1.899 . S
O184 C192 1.284 . S
Zn185 O184 1.899 . S
Zn185 O186 2.032 . S
Zn185 O189 2.086 . S
Zn185 O194 1.977 . S
O186 Zn185 2.032 . S
O186 C190 1.278 . S
C187 O188 1.203 . S
C187 O194 1.267 . S
O188 C187 1.203 . S
O189 C182 1.185 . S
O189 Zn185 2.086 . S
C190 O186 1.278 . S
C190 O191 1.211 . S
O191 C190 1.211 . S
C192 O184 1.284 . S
C192 O193 1.273 . S
O193 C192 1.273 . S
O194 Zn185 1.977 . S
O194 C187 1.267 . S
C195 O196 1.160 . S
C195 O202 1.185 . S
O196 C195 1.160 . S
O197 Zn198 1.899 . S
O197 C205 1.284 . S
Zn198 O197 1.899 . S
Zn198 O199 2.032 . S
Zn198 O202 2.086 . S
Zn198 O207 1.977 . S
O199 Zn198 2.032 . S
O199 C203 1.278 . S
C200 O201 1.203 . S
C200 O207 1.267 . S
O201 C200 1.203 . S
O202 C195 1.185 . S
O202 Zn198 2.086 . S
C203 O199 1.278 . S
C203 O204 1.211 . S
O204 C203 1.211 . S
C205 O197 1.284 . S
C205 O206 1.273 . S
O206 C205 1.273 . S
O207 Zn198 1.977 . S
O207 C200 1.267 . S
H208 C226 0.951 . S
H209 C228 0.951 . S
H210 C230 0.950 . S
H211 C231 0.950 . S
H212 C233 0.950 . S
H213 C236 0.950 . S
H214 C237 0.950 . S
H215 C239 0.950 . S
H216 C240 0.950 . S
H217 C241 0.951 . S
H218 C243 0.951 . S
H219 C245 0.950 . S
H220 C246 0.950 . S
H221 C248 0.950 . S
H222 C251 0.950 . S
H223 C252 0.950 . S
H224 C254 0.950 . S
H225 C255 0.950 . S
C226 H208 0.951 . S
C226 C227 1.366 . S
C226 C228 1.388 . S
C227 C226 1.366 . S
C227 C231 1.385 . S
C228 H209 0.951 . S
C228 C226 1.388 . S
C228 C229 1.366 . S
C229 C228 1.366 . S
C229 C230 1.414 . S
C229 C232 1.499 . S
C230 H210 0.950 . S
C230 C229 1.414 . S
C230 C231 1.374 . S
C231 H211 0.950 . S
C231 C227 1.385 . S
C231 C230 1.374 . S
C232 C229 1.499 . S
C232 C233 1.373 1_554 S
C232 C234 1.389 . S
C233 H212 0.950 . S
C233 C232 1.373 1_556 S
C233 C249 1.377 . S
C234 C232 1.389 . S
C234 C235 1.524 . S
C234 C248 1.377 . S
C235 C234 1.524 . S
C235 C236 1.397 . S
C235 C240 1.363 . S
C236 H213 0.950 . S
C236 C235 1.397 . S
C236 C237 1.334 . S
C237 H214 0.950 . S
C237 C236 1.334 . S
C237 C238 1.287 . S
C238 C237 1.287 . S
C238 C239 1.524 . S
C238 H257 0.913 . S
C239 H215 0.950 . S
C239 C238 1.524 . S
C239 C240 1.415 . S
C240 H216 0.950 . S
C240 C235 1.363 . S
C240 C239 1.415 . S
C241 H217 0.951 . S
C241 C242 1.366 . S
C241 C243 1.388 . S
C242 C241 1.366 . S
C242 C246 1.385 . S
C243 H218 0.951 . S
C243 C241 1.388 . S
C243 C244 1.366 . S
C244 C243 1.366 . S
C244 C245 1.414 . S
C244 C247 1.499 . S
C245 H219 0.950 . S
C245 C244 1.414 . S
C245 C246 1.374 . S
C246 H220 0.950 . S
C246 C242 1.385 . S
C246 C245 1.374 . S
C247 C244 1.499 . S
C247 C248 1.373 1_556 S
C247 C249 1.389 . S
C248 H221 0.950 . S
C248 C234 1.377 . S
C248 C247 1.373 1_554 S
C249 C233 1.377 . S
C249 C247 1.389 . S
C249 C250 1.524 . S
C250 C249 1.524 . S
C250 C251 1.397 . S
C250 C255 1.363 . S
C251 H222 0.950 . S
C251 C250 1.397 . S
C251 C252 1.334 . S
C252 H223 0.950 . S
C252 C251 1.334 . S
C252 C253 1.287 . S
C253 C252 1.287 . S
C253 C254 1.524 . S
C253 H256 0.999 . S
C254 H224 0.950 . S
C254 C253 1.524 . S
C254 C255 1.415 . S
C255 H225 0.950 . S
C255 C250 1.363 . S
C255 C254 1.415 . S
H256 C253 0.999 . S
H257 C238 0.913 . S
H258 C276 0.951 . S
H259 C278 0.951 . S
H260 C280 0.950 . S
H261 C281 0.950 . S
H262 C283 0.950 . S
H263 C286 0.950 . S
H264 C287 0.950 . S
H265 C289 0.950 . S
H266 C290 0.950 . S
H267 C291 0.951 . S
H268 C293 0.951 . S
H269 C295 0.950 . S
H270 C296 0.950 . S
H271 C298 0.950 . S
H272 C301 0.950 . S
H273 C302 0.950 . S
H274 C304 0.950 . S
H275 C305 0.950 . S
C276 H258 0.951 . S
C276 C277 1.366 . S
C276 C278 1.388 . S
C277 C276 1.366 . S
C277 C281 1.385 . S
C278 H259 0.951 . S
C278 C276 1.388 . S
C278 C279 1.366 . S
C279 C278 1.366 . S
C279 C280 1.414 . S
C279 C282 1.499 . S
C280 H260 0.950 . S
C280 C279 1.414 . S
C280 C281 1.374 . S
C281 H261 0.950 . S
C281 C277 1.385 . S
C281 C280 1.374 . S
C282 C279 1.499 . S
C282 C283 1.373 . S
C282 C284 1.389 . S
C283 H262 0.950 . S
C283 C282 1.373 . S
C283 C299 1.377 . S
C284 C282 1.389 . S
C284 C285 1.524 . S
C284 C298 1.377 . S
C285 C284 1.524 . S
C285 C286 1.397 . S
C285 C290 1.363 . S
C286 H263 0.950 . S
C286 C285 1.397 . S
C286 C287 1.334 . S
C287 H264 0.950 . S
C287 C286 1.334 . S
C287 C288 1.287 . S
C288 C287 1.287 . S
C288 C289 1.524 . S
C288 H307 0.913 . S
C289 H265 0.950 . S
C289 C288 1.524 . S
C289 C290 1.415 . S
C290 H266 0.950 . S
C290 C285 1.363 . S
C290 C289 1.415 . S
C291 H267 0.951 . S
C291 C292 1.366 . S
C291 C293 1.388 . S
C292 C291 1.366 . S
C292 C296 1.385 . S
C293 H268 0.951 . S
C293 C291 1.388 . S
C293 C294 1.366 . S
C294 C293 1.366 . S
C294 C295 1.414 . S
C294 C297 1.499 . S
C295 H269 0.950 . S
C295 C294 1.414 . S
C295 C296 1.374 . S
C296 H270 0.950 . S
C296 C292 1.385 . S
C296 C295 1.374 . S
C297 C294 1.499 . S
C297 C298 1.373 . S
C297 C299 1.389 . S
C298 H271 0.950 . S
C298 C284 1.377 . S
C298 C297 1.373 . S
C299 C283 1.377 . S
C299 C297 1.389 . S
C299 C300 1.524 . S
C300 C299 1.524 . S
C300 C301 1.397 . S
C300 C305 1.363 . S
C301 H272 0.950 . S
C301 C300 1.397 . S
C301 C302 1.334 . S
C302 H273 0.950 . S
C302 C301 1.334 . S
C302 C303 1.287 . S
C303 C302 1.287 . S
C303 C304 1.524 . S
C303 H306 0.999 . S
C304 H274 0.950 . S
C304 C303 1.524 . S
C304 C305 1.415 . S
C305 H275 0.950 . S
C305 C300 1.363 . S
C305 C304 1.415 . S
H306 C303 0.999 . S
H307 C288 0.913 . S
H308 C326 0.951 . S
H309 C328 0.951 . S
H310 C330 0.950 . S
H311 C331 0.950 . S
H312 C333 0.950 . S
H313 C336 0.950 . S
H314 C337 0.950 . S
H315 C339 0.950 . S
H316 C340 0.950 . S
H317 C341 0.951 . S
H318 C343 0.951 . S
H319 C345 0.950 . S
H320 C346 0.950 . S
H321 C348 0.950 . S
H322 C351 0.950 . S
H323 C352 0.950 . S
H324 C354 0.950 . S
H325 C355 0.950 . S
C326 H308 0.951 . S
C326 C327 1.366 . S
C326 C328 1.388 . S
C327 C326 1.366 . S
C327 C331 1.385 . S
C328 H309 0.951 . S
C328 C326 1.388 . S
C328 C329 1.366 . S
C329 C328 1.366 . S
C329 C330 1.414 . S
C329 C332 1.499 . S
C330 H310 0.950 . S
C330 C329 1.414 . S
C330 C331 1.374 . S
C331 H311 0.950 . S
C331 C327 1.385 . S
C331 C330 1.374 . S
C332 C329 1.499 . S
C332 C333 1.373 . S
C332 C334 1.389 1_556 S
C333 H312 0.950 . S
C333 C332 1.373 . S
C333 C349 1.377 . S
C334 C332 1.389 1_554 S
C334 C335 1.524 . S
C334 C348 1.377 . S
C335 C334 1.524 . S
C335 C336 1.397 . S
C335 C340 1.363 . S
C336 H313 0.950 . S
C336 C335 1.397 . S
C336 C337 1.334 . S
C337 H314 0.950 . S
C337 C336 1.334 . S
C337 C338 1.287 . S
C338 C337 1.287 . S
C338 C339 1.524 . S
C338 H357 0.913 . S
C339 H315 0.950 . S
C339 C338 1.524 . S
C339 C340 1.415 . S
C340 H316 0.950 . S
C340 C335 1.363 . S
C340 C339 1.415 . S
C341 H317 0.951 . S
C341 C342 1.366 . S
C341 C343 1.388 . S
C342 C341 1.366 . S
C342 C346 1.385 . S
C343 H318 0.951 . S
C343 C341 1.388 . S
C343 C344 1.366 . S
C344 C343 1.366 . S
C344 C345 1.414 . S
C344 C347 1.499 . S
C345 H319 0.950 . S
C345 C344 1.414 . S
C345 C346 1.374 . S
C346 H320 0.950 . S
C346 C342 1.385 . S
C346 C345 1.374 . S
C347 C344 1.499 . S
C347 C348 1.373 . S
C347 C349 1.389 1_554 S
C348 H321 0.950 . S
C348 C334 1.377 . S
C348 C347 1.373 . S
C349 C333 1.377 . S
C349 C347 1.389 1_556 S
C349 C350 1.524 . S
C350 C349 1.524 . S
C350 C351 1.397 . S
C350 C355 1.363 . S
C351 H322 0.950 . S
C351 C350 1.397 . S
C351 C352 1.334 . S
C352 H323 0.950 . S
C352 C351 1.334 . S
C352 C353 1.287 . S
C353 C352 1.287 . S
C353 C354 1.524 . S
C353 H356 0.999 . S
C354 H324 0.950 . S
C354 C353 1.524 . S
C354 C355 1.415 . S
C355 H325 0.950 . S
C355 C350 1.363 . S
C355 C354 1.415 . S
H356 C353 0.999 . S
H357 C338 0.913 . S
H358 C376 0.951 . S
H359 C378 0.951 . S
H360 C380 0.950 . S
H361 C381 0.950 . S
H362 C383 0.950 . S
H363 C386 0.950 . S
H364 C387 0.950 . S
H365 C389 0.950 . S
H366 C390 0.950 . S
H367 C391 0.951 . S
H368 C393 0.951 . S
H369 C395 0.950 . S
H370 C396 0.950 . S
H371 C398 0.950 . S
H372 C401 0.950 . S
H373 C402 0.950 . S
H374 C404 0.950 . S
H375 C405 0.950 . S
C376 H358 0.951 . S
C376 C377 1.366 . S
C376 C378 1.388 . S
C377 C376 1.366 . S
C377 C381 1.385 . S
C378 H359 0.951 . S
C378 C376 1.388 . S
C378 C379 1.366 . S
C379 C378 1.366 . S
C379 C380 1.414 . S
C379 C382 1.499 . S
C380 H360 0.950 . S
C380 C379 1.414 . S
C380 C381 1.374 . S
C381 H361 0.950 . S
C381 C377 1.385 . S
C381 C380 1.374 . S
C382 C379 1.499 . S
C382 C383 1.373 . S
C382 C384 1.389 . S
C383 H362 0.950 . S
C383 C382 1.373 . S
C383 C399 1.377 . S
C384 C382 1.389 . S
C384 C385 1.524 . S
C384 C398 1.377 . S
C385 C384 1.524 . S
C385 C386 1.397 . S
C385 C390 1.363 . S
C386 H363 0.950 . S
C386 C385 1.397 . S
C386 C387 1.334 . S
C387 H364 0.950 . S
C387 C386 1.334 . S
C387 C388 1.287 . S
C388 C387 1.287 . S
C388 C389 1.524 . S
C388 H407 0.913 . S
C389 H365 0.950 . S
C389 C388 1.524 . S
C389 C390 1.415 . S
C390 H366 0.950 . S
C390 C385 1.363 . S
C390 C389 1.415 . S
C391 H367 0.951 . S
C391 C392 1.366 . S
C391 C393 1.388 . S
C392 C391 1.366 . S
C392 C396 1.385 . S
C393 H368 0.951 . S
C393 C391 1.388 . S
C393 C394 1.366 . S
C394 C393 1.366 . S
C394 C395 1.414 . S
C394 C397 1.499 . S
C395 H369 0.950 . S
C395 C394 1.414 . S
C395 C396 1.374 . S
C396 H370 0.950 . S
C396 C392 1.385 . S
C396 C395 1.374 . S
C397 C394 1.499 . S
C397 C398 1.373 . S
C397 C399 1.389 . S
C398 H371 0.950 . S
C398 C384 1.377 . S
C398 C397 1.373 . S
C399 C383 1.377 . S
C399 C397 1.389 . S
C399 C400 1.524 . S
C400 C399 1.524 . S
C400 C401 1.397 . S
C400 C405 1.363 . S
C401 H372 0.950 . S
C401 C400 1.397 . S
C401 C402 1.334 . S
C402 H373 0.950 . S
C402 C401 1.334 . S
C402 C403 1.287 . S
C403 C402 1.287 . S
C403 C404 1.524 . S
C403 H406 0.999 . S
C404 H374 0.950 . S
C404 C403 1.524 . S
C404 C405 1.415 . S
C405 H375 0.950 . S
C405 C400 1.363 . S
C405 C404 1.415 . S
H406 C403 0.999 . S
H407 C388 0.913 . S
H408 C426 0.951 . S
H409 C428 0.951 . S
H410 C430 0.950 . S
H411 C431 0.950 . S
H412 C433 0.950 . S
H413 C436 0.950 . S
H414 C437 0.950 . S
H415 C439 0.950 . S
H416 C440 0.950 . S
H417 C441 0.951 . S
H418 C443 0.951 . S
H419 C445 0.950 . S
H420 C446 0.950 . S
H421 C448 0.950 . S
H422 C451 0.950 . S
H423 C452 0.950 . S
H424 C454 0.950 . S
H425 C455 0.950 . S
C426 H408 0.951 . S
C426 C427 1.366 . S
C426 C428 1.388 . S
C427 C426 1.366 . S
C427 C431 1.385 . S
C428 H409 0.951 . S
C428 C426 1.388 . S
C428 C429 1.366 . S
C429 C428 1.366 . S
C429 C430 1.414 . S
C429 C432 1.499 . S
C430 H410 0.950 . S
C430 C429 1.414 . S
C430 C431 1.374 . S
C431 H411 0.950 . S
C431 C427 1.385 . S
C431 C430 1.374 . S
C432 C429 1.499 . S
C432 C433 1.373 . S
C432 C434 1.389 1_554 S
C433 H412 0.950 . S
C433 C432 1.373 . S
C433 C449 1.377 . S
C434 C432 1.389 1_556 S
C434 C435 1.524 . S
C434 C448 1.377 . S
C435 C434 1.524 . S
C435 C436 1.397 . S
C435 C440 1.363 . S
C436 H413 0.950 . S
C436 C435 1.397 . S
C436 C437 1.334 . S
C437 H414 0.950 . S
C437 C436 1.334 . S
C437 C438 1.287 . S
C438 C437 1.287 . S
C438 C439 1.524 . S
C438 H457 0.913 . S
C439 H415 0.950 . S
C439 C438 1.524 . S
C439 C440 1.415 . S
C440 H416 0.950 . S
C440 C435 1.363 . S
C440 C439 1.415 . S
C441 H417 0.951 . S
C441 C442 1.366 . S
C441 C443 1.388 . S
C442 C441 1.366 . S
C442 C446 1.385 . S
C443 H418 0.951 . S
C443 C441 1.388 . S
C443 C444 1.366 . S
C444 C443 1.366 . S
C444 C445 1.414 . S
C444 C447 1.499 . S
C445 H419 0.950 . S
C445 C444 1.414 . S
C445 C446 1.374 . S
C446 H420 0.950 . S
C446 C442 1.385 . S
C446 C445 1.374 . S
C447 C444 1.499 . S
C447 C448 1.373 . S
C447 C449 1.389 1_556 S
C448 H421 0.950 . S
C448 C434 1.377 . S
C448 C447 1.373 . S
C449 C433 1.377 . S
C449 C447 1.389 1_554 S
C449 C450 1.524 . S
C450 C449 1.524 . S
C450 C451 1.397 . S
C450 C455 1.363 . S
C451 H422 0.950 . S
C451 C450 1.397 . S
C451 C452 1.334 . S
C452 H423 0.950 . S
C452 C451 1.334 . S
C452 C453 1.287 . S
C453 C452 1.287 . S
C453 C454 1.524 . S
C453 H456 0.999 . S
C454 H424 0.950 . S
C454 C453 1.524 . S
C454 C455 1.415 . S
C455 H425 0.950 . S
C455 C450 1.363 . S
C455 C454 1.415 . S
H456 C453 0.999 . S
H457 C438 0.913 . S
H458 C476 0.951 . S
H459 C478 0.951 . S
H460 C480 0.950 . S
H461 C481 0.950 . S
H462 C483 0.950 . S
H463 C486 0.950 . S
H464 C487 0.950 . S
H465 C489 0.950 . S
H466 C490 0.950 . S
H467 C491 0.951 . S
H468 C493 0.951 . S
H469 C495 0.950 . S
H470 C496 0.950 . S
H471 C498 0.950 . S
H472 C501 0.950 . S
H473 C502 0.950 . S
H474 C504 0.950 . S
H475 C505 0.950 . S
C476 H458 0.951 . S
C476 C477 1.366 . S
C476 C478 1.388 . S
C477 C476 1.366 . S
C477 C481 1.385 . S
C478 H459 0.951 . S
C478 C476 1.388 . S
C478 C479 1.366 . S
C479 C478 1.366 . S
C479 C480 1.414 . S
C479 C482 1.499 . S
C480 H460 0.950 . S
C480 C479 1.414 . S
C480 C481 1.374 . S
C481 H461 0.950 . S
C481 C477 1.385 . S
C481 C480 1.374 . S
C482 C479 1.499 . S
C482 C483 1.373 . S
C482 C484 1.389 . S
C483 H462 0.950 . S
C483 C482 1.373 . S
C483 C499 1.377 . S
C484 C482 1.389 . S
C484 C485 1.524 . S
C484 C498 1.377 . S
C485 C484 1.524 . S
C485 C486 1.397 . S
C485 C490 1.363 . S
C486 H463 0.950 . S
C486 C485 1.397 . S
C486 C487 1.334 . S
C487 H464 0.950 . S
C487 C486 1.334 . S
C487 C488 1.287 . S
C488 C487 1.287 . S
C488 C489 1.524 . S
C488 H507 0.913 . S
C489 H465 0.950 . S
C489 C488 1.524 . S
C489 C490 1.415 . S
C490 H466 0.950 . S
C490 C485 1.363 . S
C490 C489 1.415 . S
C491 H467 0.951 . S
C491 C492 1.366 . S
C491 C493 1.388 . S
C492 C491 1.366 . S
C492 C496 1.385 . S
C493 H468 0.951 . S
C493 C491 1.388 . S
C493 C494 1.366 . S
C494 C493 1.366 . S
C494 C495 1.414 . S
C494 C497 1.499 . S
C495 H469 0.950 . S
C495 C494 1.414 . S
C495 C496 1.374 . S
C496 H470 0.950 . S
C496 C492 1.385 . S
C496 C495 1.374 . S
C497 C494 1.499 . S
C497 C498 1.373 . S
C497 C499 1.389 . S
C498 H471 0.950 . S
C498 C484 1.377 . S
C498 C497 1.373 . S
C499 C483 1.377 . S
C499 C497 1.389 . S
C499 C500 1.524 . S
C500 C499 1.524 . S
C500 C501 1.397 . S
C500 C505 1.363 . S
C501 H472 0.950 . S
C501 C500 1.397 . S
C501 C502 1.334 . S
C502 H473 0.950 . S
C502 C501 1.334 . S
C502 C503 1.287 . S
C503 C502 1.287 . S
C503 C504 1.524 . S
C503 H506 0.999 . S
C504 H474 0.950 . S
C504 C503 1.524 . S
C504 C505 1.415 . S
C505 H475 0.950 . S
C505 C500 1.363 . S
C505 C504 1.415 . S
H506 C503 0.999 . S
H507 C488 0.913 . S
H508 C526 0.951 . S
H509 C528 0.951 . S
H510 C530 0.950 1_554 S
H511 C531 0.950 . S
H512 C533 0.950 . S
H513 C536 0.962 . S
H514 C537 0.950 . S
H515 C539 0.950 . S
H516 C540 0.950 . S
H517 C541 0.951 . S
H518 C543 0.951 . S
H519 C545 0.946 . S
H520 C546 0.950 . S
H521 C548 0.950 . S
H522 C551 0.950 . S
H523 C552 0.950 . S
H524 C554 0.950 . S
H525 C555 0.950 . S
C526 H508 0.951 . S
C526 C527 1.366 . S
C526 C528 1.388 . S
C527 C526 1.366 . S
C527 C531 1.385 . S
C528 H509 0.951 . S
C528 C526 1.388 . S
C528 C529 1.366 . S
C529 C528 1.366 . S
C529 C530 1.414 . S
C529 C532 1.499 . S
C530 H510 0.950 1_556 S
C530 C529 1.414 . S
C530 C531 1.374 . S
C531 H511 0.950 . S
C531 C527 1.385 . S
C531 C530 1.374 . S
C532 C529 1.499 . S
C532 C533 1.363 1_556 S
C532 C534 1.389 . S
C533 H512 0.950 . S
C533 C532 1.363 1_554 S
C533 C549 1.387 . S
C534 C532 1.389 . S
C534 C535 1.524 . S
C534 C548 1.377 1_556 S
C535 C534 1.524 . S
C535 C536 1.397 . S
C535 C540 1.363 . S
C536 H513 0.962 . S
C536 C535 1.397 . S
C536 C537 1.334 . S
C537 H514 0.950 . S
C537 C536 1.334 . S
C537 C538 1.287 . S
C538 C537 1.287 . S
C538 C539 1.524 . S
C538 H557 0.913 . S
C539 H515 0.950 . S
C539 C538 1.524 . S
C539 C540 1.415 . S
C540 H516 0.950 . S
C540 C535 1.363 . S
C540 C539 1.415 . S
C541 H517 0.951 . S
C541 C542 1.366 . S
C541 C543 1.388 . S
C542 C541 1.366 . S
C542 C546 1.385 . S
C543 H518 0.951 . S
C543 C541 1.388 . S
C543 C544 1.366 . S
C544 C543 1.366 . S
C544 C545 1.414 . S
C544 C547 1.499 . S
C545 H519 0.946 . S
C545 C544 1.414 . S
C545 C546 1.374 . S
C546 H520 0.950 . S
C546 C542 1.385 . S
C546 C545 1.374 . S
C547 C544 1.499 . S
C547 C548 1.373 . S
C547 C549 1.389 . S
C548 H521 0.950 . S
C548 C534 1.377 1_554 S
C548 C547 1.373 . S
C549 C533 1.387 . S
C549 C547 1.389 . S
C549 C550 1.524 . S
C550 C549 1.524 . S
C550 C551 1.397 . S
C550 C555 1.363 . S
C551 H522 0.950 . S
C551 C550 1.397 . S
C551 C552 1.334 . S
C552 H523 0.950 . S
C552 C551 1.334 . S
C552 C553 1.287 . S
C553 C552 1.287 . S
C553 C554 1.524 . S
C553 H556 0.999 . S
C554 H524 0.950 . S
C554 C553 1.524 . S
C554 C555 1.415 . S
C555 H525 0.950 . S
C555 C550 1.363 . S
C555 C554 1.415 . S
H556 C553 0.999 . S
H557 C538 0.913 . S
H558 C576 0.951 . S
H559 C578 0.951 . S
H560 C580 0.950 . S
H561 C581 0.950 . S
H562 C583 0.950 . S
H563 C586 0.950 . S
H564 C587 0.950 . S
H565 C589 0.950 . S
H566 C590 0.950 . S
H567 C591 0.951 . S
H568 C593 0.951 . S
H569 C595 0.950 . S
H570 C596 0.950 . S
H571 C598 0.950 . S
H572 C601 0.950 . S
H573 C602 0.950 . S
H574 C604 0.950 . S
H575 C605 0.950 . S
C576 H558 0.951 . S
C576 C577 1.366 . S
C576 C578 1.388 . S
C577 C576 1.366 . S
C577 C581 1.385 . S
C578 H559 0.951 . S
C578 C576 1.388 . S
C578 C579 1.366 . S
C579 C578 1.366 . S
C579 C580 1.414 . S
C579 C582 1.499 . S
C580 H560 0.950 . S
C580 C579 1.414 . S
C580 C581 1.374 . S
C581 H561 0.950 . S
C581 C577 1.385 . S
C581 C580 1.374 . S
C582 C579 1.499 . S
C582 C583 1.373 . S
C582 C584 1.389 . S
C583 H562 0.950 . S
C583 C582 1.373 . S
C583 C599 1.377 . S
C584 C582 1.389 . S
C584 C585 1.524 . S
C584 C598 1.377 . S
C585 C584 1.524 . S
C585 C586 1.397 . S
C585 C590 1.363 . S
C586 H563 0.950 . S
C586 C585 1.397 . S
C586 C587 1.334 . S
C587 H564 0.950 . S
C587 C586 1.334 . S
C587 C588 1.287 . S
C588 C587 1.287 . S
C588 C589 1.524 . S
C588 H607 0.913 . S
C589 H565 0.950 . S
C589 C588 1.524 . S
C589 C590 1.415 . S
C590 H566 0.950 . S
C590 C585 1.363 . S
C590 C589 1.415 . S
C591 H567 0.951 . S
C591 C592 1.366 . S
C591 C593 1.388 . S
C592 C591 1.366 . S
C592 C596 1.385 . S
C593 H568 0.951 . S
C593 C591 1.388 . S
C593 C594 1.366 . S
C594 C593 1.366 . S
C594 C595 1.414 . S
C594 C597 1.499 . S
C595 H569 0.950 . S
C595 C594 1.414 . S
C595 C596 1.374 . S
C596 H570 0.950 . S
C596 C592 1.385 . S
C596 C595 1.374 . S
C597 C594 1.499 . S
C597 C598 1.373 . S
C597 C599 1.389 . S
C598 H571 0.950 . S
C598 C584 1.377 . S
C598 C597 1.373 . S
C599 C583 1.377 . S
C599 C597 1.389 . S
C599 C600 1.524 . S
C600 C599 1.524 . S
C600 C601 1.397 . S
C600 C605 1.363 . S
C601 H572 0.950 . S
C601 C600 1.397 . S
C601 C602 1.334 . S
C602 H573 0.950 . S
C602 C601 1.334 . S
C602 C603 1.287 . S
C603 C602 1.287 . S
C603 C604 1.524 . S
C603 H606 0.999 . S
C604 H574 0.950 . S
C604 C603 1.524 . S
C604 C605 1.415 . S
C605 H575 0.950 . S
C605 C600 1.363 . S
C605 C604 1.415 . S
H606 C603 0.999 . S
H607 C588 0.913 . S
H608 C626 0.951 . S
H609 C628 0.951 . S
H610 C630 0.950 . S
H611 C631 0.950 . S
H612 C633 0.950 . S
H613 C636 0.950 . S
H614 C637 0.950 . S
H615 C639 0.950 . S
H616 C640 0.950 . S
H617 C641 0.951 . S
H618 C643 0.951 . S
H619 C645 0.950 . S
H620 C646 0.950 . S
H621 C648 0.950 . S
H622 C651 0.950 . S
H623 C652 0.950 . S
H624 C654 0.950 . S
H625 C655 0.950 . S
C626 H608 0.951 . S
C626 C627 1.366 . S
C626 C628 1.388 . S
C627 C626 1.366 . S
C627 C631 1.385 . S
C628 H609 0.951 . S
C628 C626 1.388 . S
C628 C629 1.366 . S
C629 C628 1.366 . S
C629 C630 1.414 . S
C629 C632 1.499 . S
C630 H610 0.950 . S
C630 C629 1.414 . S
C630 C631 1.374 . S
C631 H611 0.950 . S
C631 C627 1.385 . S
C631 C630 1.374 . S
C632 C629 1.499 . S
C632 C633 1.373 1_554 S
C632 C634 1.370 1_545 S
C633 H612 0.950 . S
C633 C632 1.373 1_556 S
C633 C649 1.396 . S
C634 C632 1.370 1_565 S
C634 C635 1.526 . S
C634 C648 1.396 . S
C635 C634 1.526 . S
C635 C636 1.397 1_565 S
C635 C640 1.363 . S
C636 H613 0.950 . S
C636 C635 1.397 1_545 S
C636 C637 1.334 . S
C637 H614 0.950 . S
C637 C636 1.334 . S
C637 C638 1.287 1_545 S
C638 C637 1.287 1_565 S
C638 C639 1.524 . S
C638 H657 0.913 . S
C639 H615 0.950 . S
C639 C638 1.524 . S
C639 C640 1.415 . S
C640 H616 0.950 . S
C640 C635 1.363 . S
C640 C639 1.415 . S
C641 H617 0.951 . S
C641 C642 1.366 . S
C641 C643 1.388 . S
C642 C641 1.366 . S
C642 C646 1.385 . S
C643 H618 0.951 . S
C643 C641 1.388 . S
C643 C644 1.366 . S
C644 C643 1.366 . S
C644 C645 1.414 . S
C644 C647 1.499 . S
C645 H619 0.950 . S
C645 C644 1.414 . S
C645 C646 1.374 . S
C646 H620 0.950 . S
C646 C642 1.385 . S
C646 C645 1.374 . S
C647 C644 1.499 . S
C647 C648 1.373 1_556 S
C647 C649 1.370 1_565 S
C648 H621 0.950 . S
C648 C634 1.396 . S
C648 C647 1.373 1_554 S
C649 C633 1.396 . S
C649 C647 1.370 1_545 S
C649 C650 1.526 . S
C650 C649 1.526 . S
C650 C651 1.397 1_545 S
C650 C655 1.363 . S
C651 H622 0.950 . S
C651 C650 1.397 1_565 S
C651 C652 1.334 . S
C652 H623 0.950 . S
C652 C651 1.334 . S
C652 C653 1.287 1_565 S
C653 C652 1.287 1_545 S
C653 C654 1.524 . S
C653 H656 0.999 . S
C654 H624 0.950 . S
C654 C653 1.524 . S
C654 C655 1.415 . S
C655 H625 0.950 . S
C655 C650 1.363 . S
C655 C654 1.415 . S
H656 C653 0.999 . S
H657 C638 0.913 . S
H658 C676 0.951 . S
H659 C678 0.951 . S
H660 C680 0.950 . S
H661 C681 0.950 . S
H662 C683 0.950 . S
H663 C686 0.950 . S
H664 C687 0.950 . S
H665 C689 0.950 . S
H666 C690 0.950 . S
H667 C691 0.951 . S
H668 C693 0.951 . S
H669 C695 0.950 . S
H670 C696 0.950 . S
H671 C698 0.950 . S
H672 C701 0.950 . S
H673 C702 0.950 . S
H674 C704 0.950 . S
H675 C705 0.950 . S
C676 H658 0.951 . S
C676 C677 1.366 . S
C676 C678 1.388 . S
C677 C676 1.366 . S
C677 C681 1.385 . S
C678 H659 0.951 . S
C678 C676 1.388 . S
C678 C679 1.366 . S
C679 C678 1.366 . S
C679 C680 1.414 . S
C679 C682 1.499 . S
C680 H660 0.950 . S
C680 C679 1.414 . S
C680 C681 1.374 . S
C681 H661 0.950 . S
C681 C677 1.385 . S
C681 C680 1.374 . S
C682 C679 1.499 . S
C682 C683 1.373 . S
C682 C684 1.389 . S
C683 H662 0.950 . S
C683 C682 1.373 . S
C683 C699 1.377 1_565 S
C684 C682 1.389 . S
C684 C685 1.524 . S
C684 C698 1.377 1_565 S
C685 C684 1.524 . S
C685 C686 1.397 . S
C685 C690 1.363 . S
C686 H663 0.950 . S
C686 C685 1.397 . S
C686 C687 1.334 . S
C687 H664 0.950 . S
C687 C686 1.334 . S
C687 C688 1.287 . S
C688 C687 1.287 . S
C688 C689 1.524 . S
C688 H707 0.913 . S
C689 H665 0.950 . S
C689 C688 1.524 . S
C689 C690 1.415 . S
C690 H666 0.950 . S
C690 C685 1.363 . S
C690 C689 1.415 . S
C691 H667 0.951 . S
C691 C692 1.366 . S
C691 C693 1.388 . S
C692 C691 1.366 . S
C692 C696 1.385 . S
C693 H668 0.951 . S
C693 C691 1.388 . S
C693 C694 1.366 . S
C694 C693 1.366 . S
C694 C695 1.414 . S
C694 C697 1.499 . S
C695 H669 0.950 . S
C695 C694 1.414 . S
C695 C696 1.374 . S
C696 H670 0.950 . S
C696 C692 1.385 . S
C696 C695 1.374 . S
C697 C694 1.499 . S
C697 C698 1.373 . S
C697 C699 1.389 . S
C698 H671 0.950 . S
C698 C684 1.377 1_545 S
C698 C697 1.373 . S
C699 C683 1.377 1_545 S
C699 C697 1.389 . S
C699 C700 1.524 . S
C700 C699 1.524 . S
C700 C701 1.397 . S
C700 C705 1.363 . S
C701 H672 0.950 . S
C701 C700 1.397 . S
C701 C702 1.334 . S
C702 H673 0.950 . S
C702 C701 1.334 . S
C702 C703 1.287 . S
C703 C702 1.287 . S
C703 C704 1.524 . S
C703 H706 0.999 . S
C704 H674 0.950 . S
C704 C703 1.524 . S
C704 C705 1.415 . S
C705 H675 0.950 . S
C705 C700 1.363 . S
C705 C704 1.415 . S
H706 C703 0.999 . S
H707 C688 0.913 . S
H708 C726 0.951 . S
H709 C728 0.951 . S
H710 C730 0.950 . S
H711 C731 0.950 . S
H712 C733 0.950 . S
H713 C736 0.950 . S
H714 C737 0.950 . S
H715 C739 0.950 . S
H716 C740 0.950 . S
H717 C741 0.951 . S
H718 C743 0.951 . S
H719 C745 0.950 . S
H720 C746 0.950 . S
H721 C748 0.950 . S
H722 C751 0.950 . S
H723 C752 0.950 . S
H724 C754 0.950 . S
H725 C755 0.950 . S
C726 H708 0.951 . S
C726 C727 1.366 . S
C726 C728 1.388 . S
C727 C726 1.366 . S
C727 C731 1.385 . S
C728 H709 0.951 . S
C728 C726 1.388 . S
C728 C729 1.366 . S
C729 C728 1.366 . S
C729 C730 1.414 . S
C729 C732 1.499 . S
C730 H710 0.950 . S
C730 C729 1.414 . S
C730 C731 1.374 . S
C731 H711 0.950 . S
C731 C727 1.385 . S
C731 C730 1.374 . S
C732 C729 1.499 . S
C732 C733 1.373 . S
C732 C734 1.389 1_556 S
C733 H712 0.950 . S
C733 C732 1.373 . S
C733 C749 1.377 1_565 S
C734 C732 1.389 1_554 S
C734 C735 1.524 . S
C734 C748 1.377 1_565 S
C735 C734 1.524 . S
C735 C736 1.397 . S
C735 C740 1.363 . S
C736 H713 0.950 . S
C736 C735 1.397 . S
C736 C737 1.334 . S
C737 H714 0.950 . S
C737 C736 1.334 . S
C737 C738 1.287 . S
C738 C737 1.287 . S
C738 C739 1.524 . S
C738 H757 0.913 . S
C739 H715 0.950 . S
C739 C738 1.524 . S
C739 C740 1.415 . S
C740 H716 0.950 . S
C740 C735 1.363 . S
C740 C739 1.415 . S
C741 H717 0.951 . S
C741 C742 1.366 . S
C741 C743 1.388 . S
C742 C741 1.366 . S
C742 C746 1.385 . S
C743 H718 0.951 . S
C743 C741 1.388 . S
C743 C744 1.366 . S
C744 C743 1.366 . S
C744 C745 1.414 . S
C744 C747 1.499 . S
C745 H719 0.950 . S
C745 C744 1.414 . S
C745 C746 1.374 . S
C746 H720 0.950 . S
C746 C742 1.385 . S
C746 C745 1.374 . S
C747 C744 1.499 . S
C747 C748 1.373 . S
C747 C749 1.389 1_554 S
C748 H721 0.950 . S
C748 C734 1.377 1_545 S
C748 C747 1.373 . S
C749 C733 1.377 1_545 S
C749 C747 1.389 1_556 S
C749 C750 1.524 . S
C750 C749 1.524 . S
C750 C751 1.397 . S
C750 C755 1.363 . S
C751 H722 0.950 . S
C751 C750 1.397 . S
C751 C752 1.334 . S
C752 H723 0.950 . S
C752 C751 1.334 . S
C752 C753 1.287 . S
C753 C752 1.287 . S
C753 C754 1.524 . S
C753 H756 0.999 . S
C754 H724 0.950 . S
C754 C753 1.524 . S
C754 C755 1.415 . S
C755 H725 0.950 . S
C755 C750 1.363 . S
C755 C754 1.415 . S
H756 C753 0.999 . S
H757 C738 0.913 . S
H758 C776 0.951 . S
H759 C778 0.951 . S
H760 C780 0.950 . S
H761 C781 0.950 . S
H762 C783 0.950 . S
H763 C786 0.950 . S
H764 C787 0.950 . S
H765 C789 0.950 . S
H766 C790 0.950 . S
H767 C791 0.951 . S
H768 C793 0.951 . S
H769 C795 0.950 . S
H770 C796 0.950 . S
H771 C798 0.950 . S
H772 C801 0.950 . S
H773 C802 0.950 . S
H774 C804 0.950 . S
H775 C805 0.950 . S
C776 H758 0.951 . S
C776 C777 1.366 . S
C776 C778 1.388 . S
C777 C776 1.366 . S
C777 C781 1.385 . S
C778 H759 0.951 . S
C778 C776 1.388 . S
C778 C779 1.366 . S
C779 C778 1.366 . S
C779 C780 1.414 . S
C779 C782 1.499 . S
C780 H760 0.950 . S
C780 C779 1.414 . S
C780 C781 1.374 . S
C781 H761 0.950 . S
C781 C777 1.385 . S
C781 C780 1.374 . S
C782 C779 1.499 . S
C782 C783 1.373 . S
C782 C784 1.389 . S
C783 H762 0.950 . S
C783 C782 1.373 . S
C783 C799 1.377 1_545 S
C784 C782 1.389 . S
C784 C785 1.524 . S
C784 C798 1.377 1_545 S
C785 C784 1.524 . S
C785 C786 1.397 . S
C785 C790 1.363 . S
C786 H763 0.950 . S
C786 C785 1.397 . S
C786 C787 1.334 . S
C787 H764 0.950 . S
C787 C786 1.334 . S
C787 C788 1.287 . S
C788 C787 1.287 . S
C788 C789 1.524 . S
C788 H807 0.913 . S
C789 H765 0.950 . S
C789 C788 1.524 . S
C789 C790 1.415 . S
C790 H766 0.950 . S
C790 C785 1.363 . S
C790 C789 1.415 . S
C791 H767 0.951 . S
C791 C792 1.366 . S
C791 C793 1.388 . S
C792 C791 1.366 . S
C792 C796 1.385 . S
C793 H768 0.951 . S
C793 C791 1.388 . S
C793 C794 1.366 . S
C794 C793 1.366 . S
C794 C795 1.414 . S
C794 C797 1.499 . S
C795 H769 0.950 . S
C795 C794 1.414 . S
C795 C796 1.374 . S
C796 H770 0.950 . S
C796 C792 1.385 . S
C796 C795 1.374 . S
C797 C794 1.499 . S
C797 C798 1.373 . S
C797 C799 1.389 . S
C798 H771 0.950 . S
C798 C784 1.377 1_565 S
C798 C797 1.373 . S
C799 C783 1.377 1_565 S
C799 C797 1.389 . S
C799 C800 1.524 . S
C800 C799 1.524 . S
C800 C801 1.397 . S
C800 C805 1.363 . S
C801 H772 0.950 . S
C801 C800 1.397 . S
C801 C802 1.334 . S
C802 H773 0.950 . S
C802 C801 1.334 . S
C802 C803 1.287 . S
C803 C802 1.287 . S
C803 C804 1.524 . S
C803 H806 0.999 . S
C804 H774 0.950 . S
C804 C803 1.524 . S
C804 C805 1.415 . S
C805 H775 0.950 . S
C805 C800 1.363 . S
C805 C804 1.415 . S
H806 C803 0.999 . S
H807 C788 0.913 . S
H808 C826 0.951 . S
H809 C828 0.951 . S
H810 C830 0.950 . S
H811 C831 0.950 . S
H812 C833 0.950 . S
H813 C836 0.950 . S
H814 C837 0.950 . S
H815 C839 0.950 . S
H816 C840 0.952 . S
H817 C841 0.951 . S
H818 C843 0.951 . S
H819 C845 0.950 . S
H820 C846 0.950 . S
H821 C848 0.950 . S
H822 C851 0.950 . S
H823 C852 0.950 . S
H824 C854 0.950 . S
H825 C855 0.952 . S
C826 H808 0.951 . S
C826 C827 1.366 . S
C826 C828 1.388 . S
C827 C826 1.366 . S
C827 C831 1.385 . S
C828 H809 0.951 . S
C828 C826 1.388 . S
C828 C829 1.366 . S
C829 C828 1.366 . S
C829 C830 1.414 . S
C829 C832 1.499 . S
C830 H810 0.950 . S
C830 C829 1.414 . S
C830 C831 1.374 . S
C831 H811 0.950 . S
C831 C827 1.385 . S
C831 C830 1.374 . S
C832 C829 1.499 . S
C832 C833 1.373 . S
C832 C834 1.389 1_556 S
C833 H812 0.950 . S
C833 C832 1.373 . S
C833 C849 1.377 . S
C834 C832 1.389 1_554 S
C834 C835 1.524 . S
C834 C848 1.377 . S
C835 C834 1.524 . S
C835 C836 1.397 . S
C835 C840 1.363 . S
C836 H813 0.950 . S
C836 C835 1.397 . S
C836 C837 1.334 . S
C837 H814 0.950 . S
C837 C836 1.334 . S
C837 C838 1.287 . S
C838 C837 1.287 . S
C838 C839 1.524 . S
C838 H857 0.913 . S
C839 H815 0.950 . S
C839 C838 1.524 . S
C839 C840 1.415 . S
C840 H816 0.952 . S
C840 C835 1.363 . S
C840 C839 1.415 . S
C841 H817 0.951 . S
C841 C842 1.366 . S
C841 C843 1.388 . S
C842 C841 1.366 . S
C842 C846 1.385 . S
C843 H818 0.951 . S
C843 C841 1.388 . S
C843 C844 1.366 . S
C844 C843 1.366 . S
C844 C845 1.414 . S
C844 C847 1.499 . S
C845 H819 0.950 . S
C845 C844 1.414 . S
C845 C846 1.374 . S
C846 H820 0.950 . S
C846 C842 1.385 . S
C846 C845 1.374 . S
C847 C844 1.499 . S
C847 C848 1.373 . S
C847 C849 1.389 1_554 S
C848 H821 0.950 . S
C848 C834 1.377 . S
C848 C847 1.373 . S
C849 C833 1.377 . S
C849 C847 1.389 1_556 S
C849 C850 1.524 . S
C850 C849 1.524 . S
C850 C851 1.397 . S
C850 C855 1.363 . S
C851 H822 0.950 . S
C851 C850 1.397 . S
C851 C852 1.334 . S
C852 H823 0.950 . S
C852 C851 1.334 . S
C852 C853 1.287 . S
C853 C852 1.287 . S
C853 C854 1.524 . S
C853 H856 0.999 . S
C854 H824 0.950 . S
C854 C853 1.524 . S
C854 C855 1.415 . S
C855 H825 0.952 . S
C855 C850 1.363 . S
C855 C854 1.415 . S
H856 C853 0.999 . S
H857 C838 0.913 . S
H858 C876 0.951 . S
H859 C878 0.951 . S
H860 C880 0.950 . S
H861 C881 0.950 . S
H862 C883 0.950 . S
H863 C886 0.950 . S
H864 C887 0.950 . S
H865 C889 0.950 . S
H866 C890 0.950 . S
H867 C891 0.951 . S
H868 C893 0.951 . S
H869 C895 0.950 . S
H870 C896 0.950 . S
H871 C898 0.950 . S
H872 C901 0.950 . S
H873 C902 0.950 . S
H874 C904 0.950 . S
H875 C905 0.950 . S
C876 H858 0.951 . S
C876 C877 1.366 . S
C876 C878 1.388 . S
C877 C876 1.366 . S
C877 C881 1.385 . S
C878 H859 0.951 . S
C878 C876 1.388 . S
C878 C879 1.366 . S
C879 C878 1.366 . S
C879 C880 1.414 . S
C879 C882 1.499 . S
C880 H860 0.950 . S
C880 C879 1.414 . S
C880 C881 1.374 . S
C881 H861 0.950 . S
C881 C877 1.385 . S
C881 C880 1.374 . S
C882 C879 1.499 . S
C882 C883 1.373 . S
C882 C884 1.389 . S
C883 H862 0.950 . S
C883 C882 1.373 . S
C883 C899 1.377 . S
C884 C882 1.389 . S
C884 C885 1.524 . S
C884 C898 1.377 . S
C885 C884 1.524 . S
C885 C886 1.397 . S
C885 C890 1.363 . S
C886 H863 0.950 . S
C886 C885 1.397 . S
C886 C887 1.334 . S
C887 H864 0.950 . S
C887 C886 1.334 . S
C887 C888 1.287 . S
C888 C887 1.287 . S
C888 C889 1.524 . S
C888 H907 0.913 . S
C889 H865 0.950 . S
C889 C888 1.524 . S
C889 C890 1.415 . S
C890 H866 0.950 . S
C890 C885 1.363 . S
C890 C889 1.415 . S
C891 H867 0.951 . S
C891 C892 1.366 . S
C891 C893 1.388 . S
C892 C891 1.366 . S
C892 C896 1.385 . S
C893 H868 0.951 . S
C893 C891 1.388 . S
C893 C894 1.366 . S
C894 C893 1.366 . S
C894 C895 1.414 . S
C894 C897 1.499 . S
C895 H869 0.950 . S
C895 C894 1.414 . S
C895 C896 1.374 . S
C896 H870 0.950 . S
C896 C892 1.385 . S
C896 C895 1.374 . S
C897 C894 1.499 . S
C897 C898 1.373 . S
C897 C899 1.389 . S
C898 H871 0.950 . S
C898 C884 1.377 . S
C898 C897 1.373 . S
C899 C883 1.377 . S
C899 C897 1.389 . S
C899 C900 1.524 . S
C900 C899 1.524 . S
C900 C901 1.397 . S
C900 C905 1.363 . S
C901 H872 0.950 . S
C901 C900 1.397 . S
C901 C902 1.334 . S
C902 H873 0.950 . S
C902 C901 1.334 . S
C902 C903 1.287 . S
C903 C902 1.287 . S
C903 C904 1.524 . S
C903 H906 0.999 . S
C904 H874 0.950 . S
C904 C903 1.524 . S
C904 C905 1.415 . S
C905 H875 0.950 . S
C905 C900 1.363 . S
C905 C904 1.415 . S
H906 C903 0.999 . S
H907 C888 0.913 . S
H908 C926 0.951 . S
H909 C928 0.951 1_556 S
H910 C930 0.950 . S
H911 C931 0.950 . S
H912 C933 0.950 . S
H913 C936 0.950 . S
H914 C937 0.950 . S
H915 C939 0.950 . S
H916 C940 0.950 . S
H917 C941 0.951 . S
H918 C943 0.951 1_554 S
H919 C945 0.950 . S
H920 C946 0.950 . S
H921 C948 0.950 . S
H922 C951 0.950 . S
H923 C952 0.950 . S
H924 C954 0.950 . S
H925 C955 0.950 . S
C926 H908 0.951 . S
C926 C927 1.366 . S
C926 C928 1.388 . S
C927 C926 1.366 . S
C927 C931 1.385 . S
C928 H909 0.951 1_554 S
C928 C926 1.388 . S
C928 C929 1.366 . S
C929 C928 1.366 . S
C929 C930 1.414 . S
C929 C932 1.499 . S
C930 H910 0.950 . S
C930 C929 1.414 . S
C930 C931 1.374 . S
C931 H911 0.950 . S
C931 C927 1.385 . S
C931 C930 1.374 . S
C932 C929 1.499 . S
C932 C933 1.373 . S
C932 C934 1.389 1_554 S
C933 H912 0.950 . S
C933 C932 1.373 . S
C933 C949 1.377 . S
C934 C932 1.389 1_556 S
C934 C935 1.524 . S
C934 C948 1.377 . S
C935 C934 1.524 . S
C935 C936 1.397 . S
C935 C940 1.363 . S
C936 H913 0.950 . S
C936 C935 1.397 . S
C936 C937 1.334 . S
C937 H914 0.950 . S
C937 C936 1.334 . S
C937 C938 1.287 . S
C938 C937 1.287 . S
C938 C939 1.524 . S
C938 H957 0.913 . S
C939 H915 0.950 . S
C939 C938 1.524 . S
C939 C940 1.415 . S
C940 H916 0.950 . S
C940 C935 1.363 . S
C940 C939 1.415 . S
C941 H917 0.951 . S
C941 C942 1.366 . S
C941 C943 1.388 . S
C942 C941 1.366 . S
C942 C946 1.385 . S
C943 H918 0.951 1_556 S
C943 C941 1.388 . S
C943 C944 1.366 . S
C944 C943 1.366 . S
C944 C945 1.414 . S
C944 C947 1.499 . S
C945 H919 0.950 . S
C945 C944 1.414 . S
C945 C946 1.374 . S
C946 H920 0.950 . S
C946 C942 1.385 . S
C946 C945 1.374 . S
C947 C944 1.499 . S
C947 C948 1.373 . S
C947 C949 1.389 1_556 S
C948 H921 0.950 . S
C948 C934 1.377 . S
C948 C947 1.373 . S
C949 C933 1.377 . S
C949 C947 1.389 1_554 S
C949 C950 1.524 . S
C950 C949 1.524 . S
C950 C951 1.397 . S
C950 C955 1.363 . S
C951 H922 0.950 . S
C951 C950 1.397 . S
C951 C952 1.334 . S
C952 H923 0.950 . S
C952 C951 1.334 . S
C952 C953 1.287 . S
C953 C952 1.287 . S
C953 C954 1.524 . S
C953 H956 0.999 . S
C954 H924 0.950 . S
C954 C953 1.524 . S
C954 C955 1.415 . S
C955 H925 0.950 . S
C955 C950 1.363 . S
C955 C954 1.415 . S
H956 C953 0.999 . S
H957 C938 0.913 . S
H958 C976 0.951 . S
H959 C978 0.951 . S
H960 C980 0.950 . S
H961 C981 0.950 . S
H962 C983 0.950 . S
H963 C986 0.950 . S
H964 C987 0.950 . S
H965 C989 0.950 . S
H966 C990 0.950 . S
H967 C991 0.951 . S
H968 C993 0.951 . S
H969 C995 0.950 . S
H970 C996 0.950 . S
H971 C998 0.950 . S
H972 C1001 0.950 . S
H973 C1002 0.950 . S
H974 C1004 0.950 . S
H975 C1005 0.950 . S
C976 H958 0.951 . S
C976 C977 1.366 . S
C976 C978 1.388 . S
C977 C976 1.366 . S
C977 C981 1.385 . S
C978 H959 0.951 . S
C978 C976 1.388 . S
C978 C979 1.366 . S
C979 C978 1.366 . S
C979 C980 1.414 . S
C979 C982 1.499 . S
C980 H960 0.950 . S
C980 C979 1.414 . S
C980 C981 1.374 . S
C981 H961 0.950 . S
C981 C977 1.385 . S
C981 C980 1.374 . S
C982 C979 1.499 . S
C982 C983 1.373 . S
C982 C984 1.389 . S
C983 H962 0.950 . S
C983 C982 1.373 . S
C983 C999 1.377 . S
C984 C982 1.389 . S
C984 C985 1.524 . S
C984 C998 1.377 . S
C985 C984 1.524 . S
C985 C986 1.397 . S
C985 C990 1.363 . S
C986 H963 0.950 . S
C986 C985 1.397 . S
C986 C987 1.334 . S
C987 H964 0.950 . S
C987 C986 1.334 . S
C987 C988 1.287 . S
C988 C987 1.287 . S
C988 C989 1.524 . S
C988 H1007 0.913 . S
C989 H965 0.950 . S
C989 C988 1.524 . S
C989 C990 1.415 . S
C990 H966 0.950 . S
C990 C985 1.363 . S
C990 C989 1.415 . S
C991 H967 0.951 . S
C991 C992 1.366 . S
C991 C993 1.388 . S
C992 C991 1.366 . S
C992 C996 1.385 . S
C993 H968 0.951 . S
C993 C991 1.388 . S
C993 C994 1.366 . S
C994 C993 1.366 . S
C994 C995 1.414 . S
C994 C997 1.499 . S
C995 H969 0.950 . S
C995 C994 1.414 . S
C995 C996 1.374 . S
C996 H970 0.950 . S
C996 C992 1.385 . S
C996 C995 1.374 . S
C997 C994 1.499 . S
C997 C998 1.373 . S
C997 C999 1.389 . S
C998 H971 0.950 . S
C998 C984 1.377 . S
C998 C997 1.373 . S
C999 C983 1.377 . S
C999 C997 1.389 . S
C999 C1000 1.524 . S
C1000 C999 1.524 . S
C1000 C1001 1.397 . S
C1000 C1005 1.363 . S
C1001 H972 0.950 . S
C1001 C1000 1.397 . S
C1001 C1002 1.334 . S
C1002 H973 0.950 . S
C1002 C1001 1.334 . S
C1002 C1003 1.287 . S
C1003 C1002 1.287 . S
C1003 C1004 1.524 . S
C1003 H1006 0.999 . S
C1004 H974 0.950 . S
C1004 C1003 1.524 . S
C1004 C1005 1.415 . S
C1005 H975 0.950 . S
C1005 C1000 1.363 . S
C1005 C1004 1.415 . S
H1006 C1003 0.999 . S
H1007 C988 0.913 . S
H1008 C1026 0.951 . S
H1009 C1028 0.951 . S
H1010 C1030 0.950 . S
H1011 C1031 0.950 . S
H1012 C1033 0.950 . S
H1013 C1036 0.950 . S
H1014 C1037 0.950 . S
H1015 C1039 0.950 . S
H1016 C1040 0.950 . S
H1017 C1041 0.951 . S
H1018 C1043 0.951 . S
H1019 C1045 0.950 . S
H1020 C1046 0.950 . S
H1021 C1048 0.950 . S
H1022 C1051 0.950 . S
H1023 C1052 0.950 . S
H1024 C1054 0.950 . S
H1025 C1055 0.950 . S
C1026 H1008 0.951 . S
C1026 C1027 1.366 . S
C1026 C1028 1.388 . S
C1027 C1026 1.366 . S
C1027 C1031 1.385 . S
C1028 H1009 0.951 . S
C1028 C1026 1.388 . S
C1028 C1029 1.366 . S
C1029 C1028 1.366 . S
C1029 C1030 1.414 . S
C1029 C1032 1.499 . S
C1030 H1010 0.950 . S
C1030 C1029 1.414 . S
C1030 C1031 1.374 . S
C1031 H1011 0.950 . S
C1031 C1027 1.385 . S
C1031 C1030 1.374 . S
C1032 C1029 1.499 . S
C1032 C1033 1.373 . S
C1032 C1034 1.389 . S
C1033 H1012 0.950 . S
C1033 C1032 1.373 . S
C1033 C1049 1.377 . S
C1034 C1032 1.389 . S
C1034 C1035 1.524 . S
C1034 C1048 1.377 . S
C1035 C1034 1.524 . S
C1035 C1036 1.397 . S
C1035 C1040 1.363 . S
C1036 H1013 0.950 . S
C1036 C1035 1.397 . S
C1036 C1037 1.334 . S
C1037 H1014 0.950 . S
C1037 C1036 1.334 . S
C1037 C1038 1.287 . S
C1038 C1037 1.287 . S
C1038 C1039 1.524 . S
C1038 H1057 0.913 . S
C1039 H1015 0.950 . S
C1039 C1038 1.524 . S
C1039 C1040 1.415 . S
C1040 H1016 0.950 . S
C1040 C1035 1.363 . S
C1040 C1039 1.415 . S
C1041 H1017 0.951 . S
C1041 C1042 1.366 . S
C1041 C1043 1.388 . S
C1042 C1041 1.366 . S
C1042 C1046 1.385 . S
C1043 H1018 0.951 . S
C1043 C1041 1.388 . S
C1043 C1044 1.366 . S
C1044 C1043 1.366 . S
C1044 C1045 1.414 . S
C1044 C1047 1.499 . S
C1045 H1019 0.950 . S
C1045 C1044 1.414 . S
C1045 C1046 1.374 . S
C1046 H1020 0.950 . S
C1046 C1042 1.385 . S
C1046 C1045 1.374 . S
C1047 C1044 1.499 . S
C1047 C1048 1.373 . S
C1047 C1049 1.389 . S
C1048 H1021 0.950 . S
C1048 C1034 1.377 . S
C1048 C1047 1.373 . S
C1049 C1033 1.377 . S
C1049 C1047 1.389 . S
C1049 C1050 1.524 . S
C1050 C1049 1.524 . S
C1050 C1051 1.397 . S
C1050 C1055 1.363 . S
C1051 H1022 0.950 . S
C1051 C1050 1.397 . S
C1051 C1052 1.334 . S
C1052 H1023 0.950 . S
C1052 C1051 1.334 . S
C1052 C1053 1.287 . S
C1053 C1052 1.287 . S
C1053 C1054 1.524 . S
C1053 H1056 0.999 . S
C1054 H1024 0.950 . S
C1054 C1053 1.524 . S
C1054 C1055 1.415 . S
C1055 H1025 0.950 . S
C1055 C1050 1.363 . S
C1055 C1054 1.415 . S
H1056 C1053 0.999 . S
H1057 C1038 0.913 . S
H1058 C1076 0.951 . S
H1059 C1078 0.951 . S
H1060 C1080 0.950 . S
H1061 C1081 0.950 . S
H1062 C1083 0.950 . S
H1063 C1086 0.950 . S
H1064 C1087 0.950 . S
H1065 C1089 0.950 . S
H1066 C1090 0.949 . S
H1067 C1091 0.951 . S
H1068 C1093 0.951 . S
H1069 C1095 0.950 . S
H1070 C1096 0.950 . S
H1071 C1098 0.950 . S
H1072 C1101 0.950 . S
H1073 C1102 0.950 . S
H1074 C1104 0.950 . S
H1075 C1105 0.950 . S
C1076 H1058 0.951 . S
C1076 C1077 1.366 . S
C1076 C1078 1.388 . S
C1077 C1076 1.366 . S
C1077 C1081 1.385 . S
C1078 H1059 0.951 . S
C1078 C1076 1.388 . S
C1078 C1079 1.366 . S
C1079 C1078 1.366 . S
C1079 C1080 1.414 . S
C1079 C1082 1.499 . S
C1080 H1060 0.950 . S
C1080 C1079 1.414 . S
C1080 C1081 1.374 . S
C1081 H1061 0.950 . S
C1081 C1077 1.385 . S
C1081 C1080 1.374 . S
C1082 C1079 1.499 . S
C1082 C1083 1.373 . S
C1082 C1084 1.389 . S
C1083 H1062 0.950 . S
C1083 C1082 1.373 . S
C1083 C1099 1.377 1_655 S
C1084 C1082 1.389 . S
C1084 C1085 1.524 . S
C1084 C1098 1.377 1_655 S
C1085 C1084 1.524 . S
C1085 C1086 1.397 . S
C1085 C1090 1.363 . S
C1086 H1063 0.950 . S
C1086 C1085 1.397 . S
C1086 C1087 1.334 . S
C1087 H1064 0.950 . S
C1087 C1086 1.334 . S
C1087 C1088 1.287 . S
C1088 C1087 1.287 . S
C1088 C1089 1.524 . S
C1088 H1107 0.913 . S
C1089 H1065 0.950 . S
C1089 C1088 1.524 . S
C1089 C1090 1.415 . S
C1090 H1066 0.949 . S
C1090 C1085 1.363 . S
C1090 C1089 1.415 . S
C1091 H1067 0.951 . S
C1091 C1092 1.366 . S
C1091 C1093 1.388 . S
C1092 C1091 1.366 . S
C1092 C1096 1.385 . S
C1093 H1068 0.951 . S
C1093 C1091 1.388 . S
C1093 C1094 1.366 . S
C1094 C1093 1.366 . S
C1094 C1095 1.414 . S
C1094 C1097 1.499 . S
C1095 H1069 0.950 . S
C1095 C1094 1.414 . S
C1095 C1096 1.374 . S
C1096 H1070 0.950 . S
C1096 C1092 1.385 . S
C1096 C1095 1.374 . S
C1097 C1094 1.499 . S
C1097 C1098 1.373 . S
C1097 C1099 1.389 . S
C1098 H1071 0.950 . S
C1098 C1084 1.377 1_455 S
C1098 C1097 1.373 . S
C1099 C1083 1.377 1_455 S
C1099 C1097 1.389 . S
C1099 C1100 1.524 . S
C1100 C1099 1.524 . S
C1100 C1101 1.397 . S
C1100 C1105 1.363 . S
C1101 H1072 0.950 . S
C1101 C1100 1.397 . S
C1101 C1102 1.334 . S
C1102 H1073 0.950 . S
C1102 C1101 1.334 . S
C1102 C1103 1.287 . S
C1103 C1102 1.287 . S
C1103 C1104 1.524 . S
C1103 H1106 0.999 . S
C1104 H1074 0.950 . S
C1104 C1103 1.524 . S
C1104 C1105 1.415 . S
C1105 H1075 0.950 . S
C1105 C1100 1.363 . S
C1105 C1104 1.415 . S
H1106 C1103 0.999 . S
H1107 C1088 0.913 . S
H1108 C1126 0.951 . S
H1109 C1128 0.951 . S
H1110 C1130 0.950 . S
H1111 C1131 0.950 . S
H1112 C1133 0.950 . S
H1113 C1136 0.950 . S
H1114 C1137 0.950 . S
H1115 C1139 0.950 . S
H1116 C1140 0.950 . S
H1117 C1141 0.951 . S
H1118 C1143 0.951 . S
H1119 C1145 0.950 . S
H1120 C1146 0.950 . S
H1121 C1148 0.950 . S
H1122 C1151 0.950 . S
H1123 C1152 0.950 . S
H1124 C1154 0.950 . S
H1125 C1155 0.950 . S
C1126 H1108 0.951 . S
C1126 C1127 1.366 . S
C1126 C1128 1.388 . S
C1127 C1126 1.366 . S
C1127 C1131 1.385 . S
C1128 H1109 0.951 . S
C1128 C1126 1.388 . S
C1128 C1129 1.366 . S
C1129 C1128 1.366 . S
C1129 C1130 1.414 . S
C1129 C1132 1.499 . S
C1130 H1110 0.950 . S
C1130 C1129 1.414 . S
C1130 C1131 1.374 . S
C1131 H1111 0.950 . S
C1131 C1127 1.385 . S
C1131 C1130 1.374 . S
C1132 C1129 1.499 . S
C1132 C1133 1.373 . S
C1132 C1134 1.389 . S
C1133 H1112 0.950 . S
C1133 C1132 1.373 . S
C1133 C1149 1.377 . S
C1134 C1132 1.389 . S
C1134 C1135 1.524 . S
C1134 C1148 1.377 . S
C1135 C1134 1.524 . S
C1135 C1136 1.397 . S
C1135 C1140 1.363 . S
C1136 H1113 0.950 . S
C1136 C1135 1.397 . S
C1136 C1137 1.334 . S
C1137 H1114 0.950 . S
C1137 C1136 1.334 . S
C1137 C1138 1.287 . S
C1138 C1137 1.287 . S
C1138 C1139 1.524 . S
C1138 H1157 0.913 . S
C1139 H1115 0.950 . S
C1139 C1138 1.524 . S
C1139 C1140 1.415 . S
C1140 H1116 0.950 . S
C1140 C1135 1.363 . S
C1140 C1139 1.415 . S
C1141 H1117 0.951 . S
C1141 C1142 1.366 . S
C1141 C1143 1.388 . S
C1142 C1141 1.366 . S
C1142 C1146 1.385 . S
C1143 H1118 0.951 . S
C1143 C1141 1.388 . S
C1143 C1144 1.366 . S
C1144 C1143 1.366 . S
C1144 C1145 1.414 . S
C1144 C1147 1.499 . S
C1145 H1119 0.950 . S
C1145 C1144 1.414 . S
C1145 C1146 1.374 . S
C1146 H1120 0.950 . S
C1146 C1142 1.385 . S
C1146 C1145 1.374 . S
C1147 C1144 1.499 . S
C1147 C1148 1.373 . S
C1147 C1149 1.389 . S
C1148 H1121 0.950 . S
C1148 C1134 1.377 . S
C1148 C1147 1.373 . S
C1149 C1133 1.377 . S
C1149 C1147 1.389 . S
C1149 C1150 1.524 . S
C1150 C1149 1.524 . S
C1150 C1151 1.397 . S
C1150 C1155 1.363 . S
C1151 H1122 0.950 . S
C1151 C1150 1.397 . S
C1151 C1152 1.334 . S
C1152 H1123 0.950 . S
C1152 C1151 1.334 . S
C1152 C1153 1.287 . S
C1153 C1152 1.287 . S
C1153 C1154 1.524 . S
C1153 H1156 0.999 . S
C1154 H1124 0.950 . S
C1154 C1153 1.524 . S
C1154 C1155 1.415 . S
C1155 H1125 0.950 . S
C1155 C1150 1.363 . S
C1155 C1154 1.415 . S
H1156 C1153 0.999 . S
H1157 C1138 0.913 . S
H1158 C1176 0.951 . S
H1159 C1178 0.951 . S
H1160 C1180 0.950 . S
H1161 C1181 0.950 . S
H1162 C1183 0.950 . S
H1163 C1186 0.950 . S
H1164 C1187 0.950 . S
H1165 C1189 0.950 . S
H1166 C1190 0.950 . S
H1167 C1191 0.951 . S
H1168 C1193 0.951 . S
H1169 C1195 0.950 . S
H1170 C1196 0.950 . S
H1171 C1198 0.950 . S
H1172 C1201 0.950 . S
H1173 C1202 0.950 . S
H1174 C1204 0.950 . S
H1175 C1205 0.952 . S
C1176 H1158 0.951 . S
C1176 C1177 1.366 . S
C1176 C1178 1.388 . S
C1177 C1176 1.366 . S
C1177 C1181 1.385 . S
C1178 H1159 0.951 . S
C1178 C1176 1.388 . S
C1178 C1179 1.366 . S
C1179 C1178 1.366 . S
C1179 C1180 1.414 . S
C1179 C1182 1.499 . S
C1180 H1160 0.950 . S
C1180 C1179 1.414 . S
C1180 C1181 1.374 . S
C1181 H1161 0.950 . S
C1181 C1177 1.385 . S
C1181 C1180 1.374 . S
C1182 C1179 1.499 . S
C1182 C1183 1.373 . S
C1182 C1184 1.389 . S
C1183 H1162 0.950 . S
C1183 C1182 1.373 . S
C1183 C1199 1.377 1_455 S
C1184 C1182 1.389 . S
C1184 C1185 1.524 . S
C1184 C1198 1.377 1_455 S
C1185 C1184 1.524 . S
C1185 C1186 1.397 . S
C1185 C1190 1.363 . S
C1186 H1163 0.950 . S
C1186 C1185 1.397 . S
C1186 C1187 1.334 . S
C1187 H1164 0.950 . S
C1187 C1186 1.334 . S
C1187 C1188 1.287 . S
C1188 C1187 1.287 . S
C1188 C1189 1.524 . S
C1188 H1207 0.913 . S
C1189 H1165 0.950 . S
C1189 C1188 1.524 . S
C1189 C1190 1.415 . S
C1190 H1166 0.950 . S
C1190 C1185 1.363 . S
C1190 C1189 1.415 . S
C1191 H1167 0.951 . S
C1191 C1192 1.366 . S
C1191 C1193 1.388 . S
C1192 C1191 1.366 . S
C1192 C1196 1.385 . S
C1193 H1168 0.951 . S
C1193 C1191 1.388 . S
C1193 C1194 1.366 . S
C1194 C1193 1.366 . S
C1194 C1195 1.414 . S
C1194 C1197 1.499 . S
C1195 H1169 0.950 . S
C1195 C1194 1.414 . S
C1195 C1196 1.374 . S
C1196 H1170 0.950 . S
C1196 C1192 1.385 . S
C1196 C1195 1.374 . S
C1197 C1194 1.499 . S
C1197 C1198 1.373 . S
C1197 C1199 1.389 . S
C1198 H1171 0.950 . S
C1198 C1184 1.377 1_655 S
C1198 C1197 1.373 . S
C1199 C1183 1.377 1_655 S
C1199 C1197 1.389 . S
C1199 C1200 1.524 . S
C1200 C1199 1.524 . S
C1200 C1201 1.397 . S
C1200 C1205 1.363 . S
C1201 H1172 0.950 . S
C1201 C1200 1.397 . S
C1201 C1202 1.334 . S
C1202 H1173 0.950 . S
C1202 C1201 1.334 . S
C1202 C1203 1.287 . S
C1203 C1202 1.287 . S
C1203 C1204 1.524 . S
C1203 H1206 0.999 . S
C1204 H1174 0.950 . S
C1204 C1203 1.524 . S
C1204 C1205 1.415 . S
C1205 H1175 0.952 . S
C1205 C1200 1.363 . S
C1205 C1204 1.415 . S
H1206 C1203 0.999 . S
H1207 C1188 0.913 . S
H1208 C1226 0.951 . S
H1209 C1228 0.951 . S
H1210 C1230 0.950 . S
H1211 C1231 0.950 . S
H1212 C1233 0.950 . S
H1213 C1236 0.950 . S
H1214 C1237 0.950 . S
H1215 C1239 0.950 . S
H1216 C1240 0.950 . S
H1217 C1241 0.951 . S
H1218 C1243 0.951 . S
H1219 C1245 0.950 . S
H1220 C1246 0.950 . S
H1221 C1248 0.950 . S
H1222 C1251 0.950 . S
H1223 C1252 0.950 . S
H1224 C1254 0.950 . S
H1225 C1255 0.950 . S
C1226 H1208 0.951 . S
C1226 C1227 1.366 . S
C1226 C1228 1.388 . S
C1227 C1226 1.366 . S
C1227 C1231 1.385 . S
C1228 H1209 0.951 . S
C1228 C1226 1.388 . S
C1228 C1229 1.366 . S
C1229 C1228 1.366 . S
C1229 C1230 1.414 . S
C1229 C1232 1.499 . S
C1230 H1210 0.950 . S
C1230 C1229 1.414 . S
C1230 C1231 1.374 . S
C1231 H1211 0.950 . S
C1231 C1227 1.385 . S
C1231 C1230 1.374 . S
C1232 C1229 1.499 . S
C1232 C1233 1.373 . S
C1232 C1234 1.389 . S
C1233 H1212 0.950 . S
C1233 C1232 1.373 . S
C1233 C1249 1.377 1_455 S
C1234 C1232 1.389 . S
C1234 C1235 1.524 . S
C1234 C1248 1.377 1_455 S
C1235 C1234 1.524 . S
C1235 C1236 1.397 . S
C1235 C1240 1.363 . S
C1236 H1213 0.950 . S
C1236 C1235 1.397 . S
C1236 C1237 1.334 . S
C1237 H1214 0.950 . S
C1237 C1236 1.334 . S
C1237 C1238 1.287 . S
C1238 C1237 1.287 . S
C1238 C1239 1.524 . S
C1238 H1257 0.913 . S
C1239 H1215 0.950 . S
C1239 C1238 1.524 . S
C1239 C1240 1.415 . S
C1240 H1216 0.950 . S
C1240 C1235 1.363 . S
C1240 C1239 1.415 . S
C1241 H1217 0.951 . S
C1241 C1242 1.366 . S
C1241 C1243 1.388 . S
C1242 C1241 1.366 . S
C1242 C1246 1.385 . S
C1243 H1218 0.951 . S
C1243 C1241 1.388 . S
C1243 C1244 1.366 . S
C1244 C1243 1.366 . S
C1244 C1245 1.414 . S
C1244 C1247 1.499 . S
C1245 H1219 0.950 . S
C1245 C1244 1.414 . S
C1245 C1246 1.374 . S
C1246 H1220 0.950 . S
C1246 C1242 1.385 . S
C1246 C1245 1.374 . S
C1247 C1244 1.499 . S
C1247 C1248 1.373 . S
C1247 C1249 1.389 . S
C1248 H1221 0.950 . S
C1248 C1234 1.377 1_655 S
C1248 C1247 1.373 . S
C1249 C1233 1.377 1_655 S
C1249 C1247 1.389 . S
C1249 C1250 1.524 . S
C1250 C1249 1.524 . S
C1250 C1251 1.397 . S
C1250 C1255 1.363 . S
C1251 H1222 0.950 . S
C1251 C1250 1.397 . S
C1251 C1252 1.334 . S
C1252 H1223 0.950 . S
C1252 C1251 1.334 . S
C1252 C1253 1.287 . S
C1253 C1252 1.287 . S
C1253 C1254 1.524 . S
C1253 H1256 0.999 . S
C1254 H1224 0.950 . S
C1254 C1253 1.524 . S
C1254 C1255 1.415 . S
C1255 H1225 0.950 . S
C1255 C1250 1.363 . S
C1255 C1254 1.415 . S
H1256 C1253 0.999 . S
H1257 C1238 0.913 . S
H1258 C1276 0.951 . S
H1259 C1278 0.951 . S
H1260 C1280 0.950 . S
H1261 C1281 0.950 . S
H1262 C1283 0.950 . S
H1263 C1286 0.950 . S
H1264 C1287 0.950 . S
H1265 C1289 0.950 . S
H1266 C1290 0.950 . S
H1267 C1291 0.951 . S
H1268 C1293 0.951 . S
H1269 C1295 0.950 . S
H1270 C1296 0.950 . S
H1271 C1298 0.950 . S
H1272 C1301 0.950 . S
H1273 C1302 0.950 . S
H1274 C1304 0.950 . S
H1275 C1305 0.950 . S
C1276 H1258 0.951 . S
C1276 C1277 1.366 . S
C1276 C1278 1.388 . S
C1277 C1276 1.366 . S
C1277 C1281 1.385 . S
C1278 H1259 0.951 . S
C1278 C1276 1.388 . S
C1278 C1279 1.366 . S
C1279 C1278 1.366 . S
C1279 C1280 1.414 . S
C1279 C1282 1.499 . S
C1280 H1260 0.950 . S
C1280 C1279 1.414 . S
C1280 C1281 1.374 . S
C1281 H1261 0.950 . S
C1281 C1277 1.385 . S
C1281 C1280 1.374 . S
C1282 C1279 1.499 . S
C1282 C1283 1.373 . S
C1282 C1284 1.389 . S
C1283 H1262 0.950 . S
C1283 C1282 1.373 . S
C1283 C1299 1.377 . S
C1284 C1282 1.389 . S
C1284 C1285 1.524 . S
C1284 C1298 1.377 . S
C1285 C1284 1.524 . S
C1285 C1286 1.397 . S
C1285 C1290 1.363 . S
C1286 H1263 0.950 . S
C1286 C1285 1.397 . S
C1286 C1287 1.334 . S
C1287 H1264 0.950 . S
C1287 C1286 1.334 . S
C1287 C1288 1.287 . S
C1288 C1287 1.287 . S
C1288 C1289 1.524 . S
C1288 H1307 0.913 . S
C1289 H1265 0.950 . S
C1289 C1288 1.524 . S
C1289 C1290 1.415 . S
C1290 H1266 0.950 . S
C1290 C1285 1.363 . S
C1290 C1289 1.415 . S
C1291 H1267 0.951 . S
C1291 C1292 1.366 . S
C1291 C1293 1.388 . S
C1292 C1291 1.366 . S
C1292 C1296 1.385 . S
C1293 H1268 0.951 . S
C1293 C1291 1.388 . S
C1293 C1294 1.366 . S
C1294 C1293 1.366 . S
C1294 C1295 1.414 . S
C1294 C1297 1.499 . S
C1295 H1269 0.950 . S
C1295 C1294 1.414 . S
C1295 C1296 1.374 . S
C1296 H1270 0.950 . S
C1296 C1292 1.385 . S
C1296 C1295 1.374 . S
C1297 C1294 1.499 . S
C1297 C1298 1.373 . S
C1297 C1299 1.389 . S
C1298 H1271 0.950 . S
C1298 C1284 1.377 . S
C1298 C1297 1.373 . S
C1299 C1283 1.377 . S
C1299 C1297 1.389 . S
C1299 C1300 1.524 . S
C1300 C1299 1.524 . S
C1300 C1301 1.397 . S
C1300 C1305 1.363 . S
C1301 H1272 0.950 . S
C1301 C1300 1.397 . S
C1301 C1302 1.334 . S
C1302 H1273 0.950 . S
C1302 C1301 1.334 . S
C1302 C1303 1.287 . S
C1303 C1302 1.287 . S
C1303 C1304 1.524 . S
C1303 H1306 0.999 . S
C1304 H1274 0.950 . S
C1304 C1303 1.524 . S
C1304 C1305 1.415 . S
C1305 H1275 0.950 . S
C1305 C1300 1.363 . S
C1305 C1304 1.415 . S
H1306 C1303 0.999 . S
H1307 C1288 0.913 . S
H1308 C1326 0.951 . S
H1309 C1328 0.951 . S
H1310 C1330 0.950 . S
H1311 C1331 0.950 . S
H1312 C1333 0.950 . S
H1313 C1336 0.950 . S
H1314 C1337 0.950 . S
H1315 C1339 0.950 . S
H1316 C1340 0.950 . S
H1317 C1341 0.951 . S
H1318 C1343 0.951 . S
H1319 C1345 0.950 . S
H1320 C1346 0.950 . S
H1321 C1348 0.950 . S
H1322 C1351 0.950 . S
H1323 C1352 0.950 . S
H1324 C1354 0.950 . S
H1325 C1355 0.950 . S
C1326 H1308 0.951 . S
C1326 C1327 1.366 . S
C1326 C1328 1.388 . S
C1327 C1326 1.366 . S
C1327 C1331 1.385 . S
C1328 H1309 0.951 . S
C1328 C1326 1.388 . S
C1328 C1329 1.366 . S
C1329 C1328 1.366 . S
C1329 C1330 1.414 . S
C1329 C1332 1.499 . S
C1330 H1310 0.950 . S
C1330 C1329 1.414 . S
C1330 C1331 1.374 . S
C1331 H1311 0.950 . S
C1331 C1327 1.385 . S
C1331 C1330 1.374 . S
C1332 C1329 1.499 . S
C1332 C1333 1.373 . S
C1332 C1334 1.389 . S
C1333 H1312 0.950 . S
C1333 C1332 1.373 . S
C1333 C1349 1.377 1_455 S
C1334 C1332 1.389 . S
C1334 C1335 1.524 . S
C1334 C1348 1.377 1_455 S
C1335 C1334 1.524 . S
C1335 C1336 1.397 . S
C1335 C1340 1.363 . S
C1336 H1313 0.950 . S
C1336 C1335 1.397 . S
C1336 C1337 1.334 . S
C1337 H1314 0.950 . S
C1337 C1336 1.334 . S
C1337 C1338 1.287 . S
C1338 C1337 1.287 . S
C1338 C1339 1.524 . S
C1338 H1357 0.913 . S
C1339 H1315 0.950 . S
C1339 C1338 1.524 . S
C1339 C1340 1.415 . S
C1340 H1316 0.950 . S
C1340 C1335 1.363 . S
C1340 C1339 1.415 . S
C1341 H1317 0.951 . S
C1341 C1342 1.366 . S
C1341 C1343 1.388 . S
C1342 C1341 1.366 . S
C1342 C1346 1.385 . S
C1343 H1318 0.951 . S
C1343 C1341 1.388 . S
C1343 C1344 1.366 . S
C1344 C1343 1.366 . S
C1344 C1345 1.414 . S
C1344 C1347 1.499 . S
C1345 H1319 0.950 . S
C1345 C1344 1.414 . S
C1345 C1346 1.374 . S
C1346 H1320 0.950 . S
C1346 C1342 1.385 . S
C1346 C1345 1.374 . S
C1347 C1344 1.499 . S
C1347 C1348 1.373 . S
C1347 C1349 1.389 . S
C1348 H1321 0.950 . S
C1348 C1334 1.377 1_655 S
C1348 C1347 1.373 . S
C1349 C1333 1.377 1_655 S
C1349 C1347 1.389 . S
C1349 C1350 1.524 . S
C1350 C1349 1.524 . S
C1350 C1351 1.397 . S
C1350 C1355 1.363 . S
C1351 H1322 0.950 . S
C1351 C1350 1.397 . S
C1351 C1352 1.334 . S
C1352 H1323 0.950 . S
C1352 C1351 1.334 . S
C1352 C1353 1.287 . S
C1353 C1352 1.287 . S
C1353 C1354 1.524 . S
C1353 H1356 0.999 . S
C1354 H1324 0.950 . S
C1354 C1353 1.524 . S
C1354 C1355 1.415 . S
C1355 H1325 0.950 . S
C1355 C1350 1.363 . S
C1355 C1354 1.415 . S
H1356 C1353 0.999 . S
H1357 C1338 0.913 . S
H1358 C1376 0.951 . S
H1359 C1378 0.951 . S
H1360 C1380 0.950 . S
H1361 C1381 0.950 . S
H1362 C1383 0.950 . S
H1363 C1386 0.950 . S
H1364 C1387 0.950 . S
H1365 C1389 0.950 . S
H1366 C1390 0.950 . S
H1367 C1391 0.951 . S
H1368 C1393 0.951 . S
H1369 C1395 0.950 . S
H1370 C1396 0.950 . S
H1371 C1398 0.950 . S
H1372 C1401 0.950 . S
H1373 C1402 0.950 . S
H1374 C1404 0.950 . S
H1375 C1405 0.950 . S
C1376 H1358 0.951 . S
C1376 C1377 1.366 . S
C1376 C1378 1.388 . S
C1377 C1376 1.366 . S
C1377 C1381 1.385 . S
C1378 H1359 0.951 . S
C1378 C1376 1.388 . S
C1378 C1379 1.366 . S
C1379 C1378 1.366 . S
C1379 C1380 1.414 . S
C1379 C1382 1.499 . S
C1380 H1360 0.950 . S
C1380 C1379 1.414 . S
C1380 C1381 1.374 . S
C1381 H1361 0.950 . S
C1381 C1377 1.385 . S
C1381 C1380 1.374 . S
C1382 C1379 1.499 . S
C1382 C1383 1.373 . S
C1382 C1384 1.389 . S
C1383 H1362 0.950 . S
C1383 C1382 1.373 . S
C1383 C1399 1.377 . S
C1384 C1382 1.389 . S
C1384 C1385 1.524 . S
C1384 C1398 1.377 . S
C1385 C1384 1.524 . S
C1385 C1386 1.397 . S
C1385 C1390 1.363 . S
C1386 H1363 0.950 . S
C1386 C1385 1.397 . S
C1386 C1387 1.334 . S
C1387 H1364 0.950 . S
C1387 C1386 1.334 . S
C1387 C1388 1.287 . S
C1388 C1387 1.287 . S
C1388 C1389 1.524 . S
C1388 H1407 0.913 . S
C1389 H1365 0.950 . S
C1389 C1388 1.524 . S
C1389 C1390 1.415 . S
C1390 H1366 0.950 . S
C1390 C1385 1.363 . S
C1390 C1389 1.415 . S
C1391 H1367 0.951 . S
C1391 C1392 1.366 . S
C1391 C1393 1.388 . S
C1392 C1391 1.366 . S
C1392 C1396 1.385 . S
C1393 H1368 0.951 . S
C1393 C1391 1.388 . S
C1393 C1394 1.366 . S
C1394 C1393 1.366 . S
C1394 C1395 1.414 . S
C1394 C1397 1.499 . S
C1395 H1369 0.950 . S
C1395 C1394 1.414 . S
C1395 C1396 1.374 . S
C1396 H1370 0.950 . S
C1396 C1392 1.385 . S
C1396 C1395 1.374 . S
C1397 C1394 1.499 . S
C1397 C1398 1.373 . S
C1397 C1399 1.389 . S
C1398 H1371 0.950 . S
C1398 C1384 1.377 . S
C1398 C1397 1.373 . S
C1399 C1383 1.377 . S
C1399 C1397 1.389 . S
C1399 C1400 1.524 . S
C1400 C1399 1.524 . S
C1400 C1401 1.397 . S
C1400 C1405 1.363 . S
C1401 H1372 0.950 . S
C1401 C1400 1.397 . S
C1401 C1402 1.334 . S
C1402 H1373 0.950 . S
C1402 C1401 1.334 . S
C1402 C1403 1.287 . S
C1403 C1402 1.287 . S
C1403 C1404 1.524 . S
C1403 H1406 0.999 . S
C1404 H1374 0.950 . S
C1404 C1403 1.524 . S
C1404 C1405 1.415 . S
C1405 H1375 0.950 . S
C1405 C1400 1.363 . S
C1405 C1404 1.415 . S
H1406 C1403 0.999 . S
H1407 C1388 0.913 . S
H1408 C1426 0.951 . S
H1409 C1428 0.951 . S
H1410 C1430 0.950 . S
H1411 C1431 0.950 . S
H1412 C1433 0.950 . S
H1413 C1436 0.950 . S
H1414 C1437 0.950 . S
H1415 C1439 0.950 . S
H1416 C1440 0.950 . S
H1417 C1441 0.951 . S
H1418 C1443 0.951 . S
H1419 C1445 0.950 . S
H1420 C1446 0.950 . S
H1421 C1448 0.950 . S
H1422 C1451 0.950 . S
H1423 C1452 0.950 . S
H1424 C1454 0.950 . S
H1425 C1455 0.950 . S
C1426 H1408 0.951 . S
C1426 C1427 1.366 . S
C1426 C1428 1.388 . S
C1427 C1426 1.366 . S
C1427 C1431 1.385 . S
C1428 H1409 0.951 . S
C1428 C1426 1.388 . S
C1428 C1429 1.366 . S
C1429 C1428 1.366 . S
C1429 C1430 1.414 . S
C1429 C1432 1.499 . S
C1430 H1410 0.950 . S
C1430 C1429 1.414 . S
C1430 C1431 1.374 . S
C1431 H1411 0.950 . S
C1431 C1427 1.385 . S
C1431 C1430 1.374 . S
C1432 C1429 1.499 . S
C1432 C1433 1.373 . S
C1432 C1434 1.389 . S
C1433 H1412 0.950 . S
C1433 C1432 1.373 . S
C1433 C1449 1.377 . S
C1434 C1432 1.389 . S
C1434 C1435 1.524 . S
C1434 C1448 1.377 . S
C1435 C1434 1.524 . S
C1435 C1436 1.397 . S
C1435 C1440 1.363 . S
C1436 H1413 0.950 . S
C1436 C1435 1.397 . S
C1436 C1437 1.334 . S
C1437 H1414 0.950 . S
C1437 C1436 1.334 . S
C1437 C1438 1.287 . S
C1438 C1437 1.287 . S
C1438 C1439 1.524 . S
C1438 H1457 0.913 . S
C1439 H1415 0.950 . S
C1439 C1438 1.524 . S
C1439 C1440 1.415 . S
C1440 H1416 0.950 . S
C1440 C1435 1.363 . S
C1440 C1439 1.415 . S
C1441 H1417 0.951 . S
C1441 C1442 1.366 . S
C1441 C1443 1.388 . S
C1442 C1441 1.366 . S
C1442 C1446 1.385 . S
C1443 H1418 0.951 . S
C1443 C1441 1.388 . S
C1443 C1444 1.366 . S
C1444 C1443 1.366 . S
C1444 C1445 1.414 . S
C1444 C1447 1.499 . S
C1445 H1419 0.950 . S
C1445 C1444 1.414 . S
C1445 C1446 1.374 . S
C1446 H1420 0.950 . S
C1446 C1442 1.385 . S
C1446 C1445 1.374 . S
C1447 C1444 1.499 . S
C1447 C1448 1.373 . S
C1447 C1449 1.389 . S
C1448 H1421 0.950 . S
C1448 C1434 1.377 . S
C1448 C1447 1.373 . S
C1449 C1433 1.377 . S
C1449 C1447 1.389 . S
C1449 C1450 1.524 . S
C1450 C1449 1.524 . S
C1450 C1451 1.397 . S
C1450 C1455 1.363 . S
C1451 H1422 0.950 . S
C1451 C1450 1.397 . S
C1451 C1452 1.334 . S
C1452 H1423 0.950 . S
C1452 C1451 1.334 . S
C1452 C1453 1.287 . S
C1453 C1452 1.287 . S
C1453 C1454 1.524 . S
C1453 H1456 0.999 . S
C1454 H1424 0.950 . S
C1454 C1453 1.524 . S
C1454 C1455 1.415 . S
C1455 H1425 0.950 . S
C1455 C1450 1.363 . S
C1455 C1454 1.415 . S
H1456 C1453 0.999 . S
H1457 C1438 0.913 . S
H1458 C1476 0.951 . S
H1459 C1478 0.951 . S
H1460 C1480 0.950 . S
H1461 C1481 0.950 . S
H1462 C1483 0.950 . S
H1463 C1486 0.950 . S
H1464 C1487 0.950 . S
H1465 C1489 0.950 . S
H1466 C1490 0.950 . S
H1467 C1491 0.951 . S
H1468 C1493 0.951 . S
H1469 C1495 0.950 . S
H1470 C1496 0.950 . S
H1471 C1498 0.950 . S
H1472 C1501 0.950 . S
H1473 C1502 0.950 . S
H1474 C1504 0.950 . S
H1475 C1505 0.950 . S
C1476 H1458 0.951 . S
C1476 C1477 1.366 . S
C1476 C1478 1.388 . S
C1477 C1476 1.366 . S
C1477 C1481 1.385 . S
C1478 H1459 0.951 . S
C1478 C1476 1.388 . S
C1478 C1479 1.366 . S
C1479 C1478 1.366 . S
C1479 C1480 1.414 . S
C1479 C1482 1.499 . S
C1480 H1460 0.950 . S
C1480 C1479 1.414 . S
C1480 C1481 1.374 . S
C1481 H1461 0.950 . S
C1481 C1477 1.385 . S
C1481 C1480 1.374 . S
C1482 C1479 1.499 . S
C1482 C1483 1.373 . S
C1482 C1484 1.389 . S
C1483 H1462 0.950 . S
C1483 C1482 1.373 . S
C1483 C1499 1.377 . S
C1484 C1482 1.389 . S
C1484 C1485 1.524 . S
C1484 C1498 1.377 . S
C1485 C1484 1.524 . S
C1485 C1486 1.397 . S
C1485 C1490 1.363 . S
C1486 H1463 0.950 . S
C1486 C1485 1.397 . S
C1486 C1487 1.334 . S
C1487 H1464 0.950 . S
C1487 C1486 1.334 . S
C1487 C1488 1.287 . S
C1488 C1487 1.287 . S
C1488 C1489 1.524 . S
C1488 H1507 0.913 . S
C1489 H1465 0.950 . S
C1489 C1488 1.524 . S
C1489 C1490 1.415 . S
C1490 H1466 0.950 . S
C1490 C1485 1.363 . S
C1490 C1489 1.415 . S
C1491 H1467 0.951 . S
C1491 C1492 1.366 . S
C1491 C1493 1.388 . S
C1492 C1491 1.366 . S
C1492 C1496 1.385 . S
C1493 H1468 0.951 . S
C1493 C1491 1.388 . S
C1493 C1494 1.366 . S
C1494 C1493 1.366 . S
C1494 C1495 1.414 . S
C1494 C1497 1.499 . S
C1495 H1469 0.950 . S
C1495 C1494 1.414 . S
C1495 C1496 1.374 . S
C1496 H1470 0.950 . S
C1496 C1492 1.385 . S
C1496 C1495 1.374 . S
C1497 C1494 1.499 . S
C1497 C1498 1.373 . S
C1497 C1499 1.389 . S
C1498 H1471 0.950 . S
C1498 C1484 1.377 . S
C1498 C1497 1.373 . S
C1499 C1483 1.377 . S
C1499 C1497 1.389 . S
C1499 C1500 1.524 . S
C1500 C1499 1.524 . S
C1500 C1501 1.397 . S
C1500 C1505 1.363 . S
C1501 H1472 0.950 . S
C1501 C1500 1.397 . S
C1501 C1502 1.334 . S
C1502 H1473 0.950 . S
C1502 C1501 1.334 . S
C1502 C1503 1.287 . S
C1503 C1502 1.287 . S
C1503 C1504 1.524 . S
C1503 H1506 0.999 . S
C1504 H1474 0.950 . S
C1504 C1503 1.524 . S
C1504 C1505 1.415 . S
C1505 H1475 0.950 . S
C1505 C1500 1.363 . S
C1505 C1504 1.415 . S
H1506 C1503 0.999 . S
H1507 C1488 0.913 . S
H1508 C1526 0.951 . S
H1509 C1528 0.951 . S
H1510 C1530 0.950 . S
H1511 C1531 0.950 . S
H1512 C1533 0.950 . S
H1513 C1536 0.950 . S
H1514 C1537 0.950 . S
H1515 C1539 0.950 . S
H1516 C1540 0.950 . S
H1517 C1541 0.951 . S
H1518 C1543 0.951 . S
H1519 C1545 0.950 . S
H1520 C1546 0.950 . S
H1521 C1548 0.950 . S
H1522 C1551 0.950 . S
H1523 C1552 0.950 . S
H1524 C1554 0.950 . S
H1525 C1555 0.950 . S
C1526 H1508 0.951 . S
C1526 C1527 1.366 . S
C1526 C1528 1.388 . S
C1527 C1526 1.366 . S
C1527 C1531 1.385 . S
C1528 H1509 0.951 . S
C1528 C1526 1.388 . S
C1528 C1529 1.366 . S
C1529 C1528 1.366 . S
C1529 C1530 1.414 . S
C1529 C1532 1.499 . S
C1530 H1510 0.950 . S
C1530 C1529 1.414 . S
C1530 C1531 1.374 . S
C1531 H1511 0.950 . S
C1531 C1527 1.385 . S
C1531 C1530 1.374 . S
C1532 C1529 1.499 . S
C1532 C1533 1.373 . S
C1532 C1534 1.389 . S
C1533 H1512 0.950 . S
C1533 C1532 1.373 . S
C1533 C1549 1.377 . S
C1534 C1532 1.389 . S
C1534 C1535 1.524 . S
C1534 C1548 1.377 . S
C1535 C1534 1.524 . S
C1535 C1536 1.397 . S
C1535 C1540 1.363 . S
C1536 H1513 0.950 . S
C1536 C1535 1.397 . S
C1536 C1537 1.334 . S
C1537 H1514 0.950 . S
C1537 C1536 1.334 . S
C1537 C1538 1.287 . S
C1538 C1537 1.287 . S
C1538 C1539 1.524 . S
C1538 H1557 0.913 . S
C1539 H1515 0.950 . S
C1539 C1538 1.524 . S
C1539 C1540 1.415 . S
C1540 H1516 0.950 . S
C1540 C1535 1.363 . S
C1540 C1539 1.415 . S
C1541 H1517 0.951 . S
C1541 C1542 1.366 . S
C1541 C1543 1.388 . S
C1542 C1541 1.366 . S
C1542 C1546 1.385 . S
C1543 H1518 0.951 . S
C1543 C1541 1.388 . S
C1543 C1544 1.366 . S
C1544 C1543 1.366 . S
C1544 C1545 1.414 . S
C1544 C1547 1.499 . S
C1545 H1519 0.950 . S
C1545 C1544 1.414 . S
C1545 C1546 1.374 . S
C1546 H1520 0.950 . S
C1546 C1542 1.385 . S
C1546 C1545 1.374 . S
C1547 C1544 1.499 . S
C1547 C1548 1.373 . S
C1547 C1549 1.389 . S
C1548 H1521 0.950 . S
C1548 C1534 1.377 . S
C1548 C1547 1.373 . S
C1549 C1533 1.377 . S
C1549 C1547 1.389 . S
C1549 C1550 1.524 . S
C1550 C1549 1.524 . S
C1550 C1551 1.397 . S
C1550 C1555 1.363 . S
C1551 H1522 0.950 . S
C1551 C1550 1.397 . S
C1551 C1552 1.334 . S
C1552 H1523 0.950 . S
C1552 C1551 1.334 . S
C1552 C1553 1.287 . S
C1553 C1552 1.287 . S
C1553 C1554 1.524 . S
C1553 H1556 0.999 . S
C1554 H1524 0.950 . S
C1554 C1553 1.524 . S
C1554 C1555 1.415 . S
C1555 H1525 0.950 . S
C1555 C1550 1.363 . S
C1555 C1554 1.415 . S
H1556 C1553 0.999 . S
H1557 C1538 0.913 . S
H1558 C1576 0.951 . S
H1559 C1578 0.951 . S
H1560 C1580 0.950 . S
H1561 C1581 0.950 . S
H1562 C1583 0.950 . S
H1563 C1586 0.950 . S
H1564 C1587 0.950 . S
H1565 C1589 0.950 . S
H1566 C1590 0.950 . S
H1567 C1591 0.951 . S
H1568 C1593 0.951 . S
H1569 C1595 0.950 . S
H1570 C1596 0.950 . S
H1571 C1598 0.950 . S
H1572 C1601 0.950 . S
H1573 C1602 0.950 . S
H1574 C1604 0.950 . S
H1575 C1605 0.950 . S
C1576 H1558 0.951 . S
C1576 C1577 1.366 . S
C1576 C1578 1.388 . S
C1577 C1576 1.366 . S
C1577 C1581 1.385 . S
C1578 H1559 0.951 . S
C1578 C1576 1.388 . S
C1578 C1579 1.366 . S
C1579 C1578 1.366 . S
C1579 C1580 1.414 . S
C1579 C1582 1.499 . S
C1580 H1560 0.950 . S
C1580 C1579 1.414 . S
C1580 C1581 1.374 . S
C1581 H1561 0.950 . S
C1581 C1577 1.385 . S
C1581 C1580 1.374 . S
C1582 C1579 1.499 . S
C1582 C1583 1.373 . S
C1582 C1584 1.389 . S
C1583 H1562 0.950 . S
C1583 C1582 1.373 . S
C1583 C1599 1.377 . S
C1584 C1582 1.389 . S
C1584 C1585 1.524 . S
C1584 C1598 1.377 . S
C1585 C1584 1.524 . S
C1585 C1586 1.397 . S
C1585 C1590 1.363 . S
C1586 H1563 0.950 . S
C1586 C1585 1.397 . S
C1586 C1587 1.334 . S
C1587 H1564 0.950 . S
C1587 C1586 1.334 . S
C1587 C1588 1.287 . S
C1588 C1587 1.287 . S
C1588 C1589 1.524 . S
C1588 H1607 0.913 . S
C1589 H1565 0.950 . S
C1589 C1588 1.524 . S
C1589 C1590 1.415 . S
C1590 H1566 0.950 . S
C1590 C1585 1.363 . S
C1590 C1589 1.415 . S
C1591 H1567 0.951 . S
C1591 C1592 1.366 . S
C1591 C1593 1.388 . S
C1592 C1591 1.366 . S
C1592 C1596 1.385 . S
C1593 H1568 0.951 . S
C1593 C1591 1.388 . S
C1593 C1594 1.366 . S
C1594 C1593 1.366 . S
C1594 C1595 1.414 . S
C1594 C1597 1.499 . S
C1595 H1569 0.950 . S
C1595 C1594 1.414 . S
C1595 C1596 1.374 . S
C1596 H1570 0.950 . S
C1596 C1592 1.385 . S
C1596 C1595 1.374 . S
C1597 C1594 1.499 . S
C1597 C1598 1.373 . S
C1597 C1599 1.389 . S
C1598 H1571 0.950 . S
C1598 C1584 1.377 . S
C1598 C1597 1.373 . S
C1599 C1583 1.377 . S
C1599 C1597 1.389 . S
C1599 C1600 1.524 . S
C1600 C1599 1.524 . S
C1600 C1601 1.397 . S
C1600 C1605 1.363 . S
C1601 H1572 0.950 . S
C1601 C1600 1.397 . S
C1601 C1602 1.334 . S
C1602 H1573 0.950 . S
C1602 C1601 1.334 . S
C1602 C1603 1.287 . S
C1603 C1602 1.287 . S
C1603 C1604 1.524 . S
C1603 H1606 0.999 . S
C1604 H1574 0.950 . S
C1604 C1603 1.524 . S
C1604 C1605 1.415 . S
C1605 H1575 0.950 . S
C1605 C1600 1.363 . S
C1605 C1604 1.415 . S
H1606 C1603 0.999 . S
H1607 C1588 0.913 . S
H1608 C1626 0.951 . S
H1609 C1628 0.951 . S
H1610 C1630 0.950 . S
H1611 C1631 0.950 . S
H1612 C1633 0.950 . S
H1613 C1636 0.950 . S
H1614 C1637 0.950 . S
H1615 C1639 0.950 . S
H1616 C1640 0.950 . S
H1617 C1641 0.951 . S
H1618 C1643 0.951 . S
H1619 C1645 0.950 . S
H1620 C1646 0.950 . S
H1621 C1648 0.950 . S
H1622 C1651 0.950 . S
H1623 C1652 0.950 . S
H1624 C1654 0.950 . S
H1625 C1655 0.950 . S
C1626 H1608 0.951 . S
C1626 C1627 1.366 . S
C1626 C1628 1.388 . S
C1627 C1626 1.366 . S
C1627 C1631 1.385 . S
C1628 H1609 0.951 . S
C1628 C1626 1.388 . S
C1628 C1629 1.366 . S
C1629 C1628 1.366 . S
C1629 C1630 1.414 . S
C1629 C1632 1.499 . S
C1630 H1610 0.950 . S
C1630 C1629 1.414 . S
C1630 C1631 1.374 . S
C1631 H1611 0.950 . S
C1631 C1627 1.385 . S
C1631 C1630 1.374 . S
C1632 C1629 1.499 . S
C1632 C1633 1.373 . S
C1632 C1634 1.389 . S
C1633 H1612 0.950 . S
C1633 C1632 1.373 . S
C1633 C1649 1.377 . S
C1634 C1632 1.389 . S
C1634 C1635 1.524 . S
C1634 C1648 1.377 . S
C1635 C1634 1.524 . S
C1635 C1636 1.397 . S
C1635 C1640 1.363 . S
C1636 H1613 0.950 . S
C1636 C1635 1.397 . S
C1636 C1637 1.334 . S
C1637 H1614 0.950 . S
C1637 C1636 1.334 . S
C1637 C1638 1.287 . S
C1638 C1637 1.287 . S
C1638 C1639 1.524 . S
C1638 H1657 0.913 . S
C1639 H1615 0.950 . S
C1639 C1638 1.524 . S
C1639 C1640 1.415 . S
C1640 H1616 0.950 . S
C1640 C1635 1.363 . S
C1640 C1639 1.415 . S
C1641 H1617 0.951 . S
C1641 C1642 1.366 . S
C1641 C1643 1.388 . S
C1642 C1641 1.366 . S
C1642 C1646 1.385 . S
C1643 H1618 0.951 . S
C1643 C1641 1.388 . S
C1643 C1644 1.366 . S
C1644 C1643 1.366 . S
C1644 C1645 1.414 . S
C1644 C1647 1.499 . S
C1645 H1619 0.950 . S
C1645 C1644 1.414 . S
C1645 C1646 1.374 . S
C1646 H1620 0.950 . S
C1646 C1642 1.385 . S
C1646 C1645 1.374 . S
C1647 C1644 1.499 . S
C1647 C1648 1.373 . S
C1647 C1649 1.389 . S
C1648 H1621 0.950 . S
C1648 C1634 1.377 . S
C1648 C1647 1.373 . S
C1649 C1633 1.377 . S
C1649 C1647 1.389 . S
C1649 C1650 1.524 . S
C1650 C1649 1.524 . S
C1650 C1651 1.397 . S
C1650 C1655 1.363 . S
C1651 H1622 0.950 . S
C1651 C1650 1.397 . S
C1651 C1652 1.334 . S
C1652 H1623 0.950 . S
C1652 C1651 1.334 . S
C1652 C1653 1.287 . S
C1653 C1652 1.287 . S
C1653 C1654 1.524 . S
C1653 H1656 0.999 . S
C1654 H1624 0.950 . S
C1654 C1653 1.524 . S
C1654 C1655 1.415 . S
C1655 H1625 0.950 . S
C1655 C1650 1.363 . S
C1655 C1654 1.415 . S
H1656 C1653 0.999 . S
H1657 C1638 0.913 . S
H1658 C1676 0.951 . S
H1659 C1678 0.951 . S
H1660 C1680 0.950 . S
H1661 C1681 0.950 . S
H1662 C1683 0.950 . S
H1663 C1686 0.950 . S
H1664 C1687 0.950 . S
H1665 C1689 0.950 . S
H1666 C1690 0.950 . S
H1667 C1691 0.951 . S
H1668 C1693 0.951 . S
H1669 C1695 0.950 . S
H1670 C1696 0.950 . S
H1671 C1698 0.950 . S
H1672 C1701 0.950 . S
H1673 C1702 0.950 . S
H1674 C1704 0.950 . S
H1675 C1705 0.950 . S
C1676 H1658 0.951 . S
C1676 C1677 1.366 . S
C1676 C1678 1.388 . S
C1677 C1676 1.366 . S
C1677 C1681 1.385 . S
C1678 H1659 0.951 . S
C1678 C1676 1.388 . S
C1678 C1679 1.366 . S
C1679 C1678 1.366 . S
C1679 C1680 1.414 . S
C1679 C1682 1.499 . S
C1680 H1660 0.950 . S
C1680 C1679 1.414 . S
C1680 C1681 1.374 . S
C1681 H1661 0.950 . S
C1681 C1677 1.385 . S
C1681 C1680 1.374 . S
C1682 C1679 1.499 . S
C1682 C1683 1.373 . S
C1682 C1684 1.389 . S
C1683 H1662 0.950 . S
C1683 C1682 1.373 . S
C1683 C1699 1.377 . S
C1684 C1682 1.389 . S
C1684 C1685 1.524 . S
C1684 C1698 1.377 . S
C1685 C1684 1.524 . S
C1685 C1686 1.397 . S
C1685 C1690 1.363 . S
C1686 H1663 0.950 . S
C1686 C1685 1.397 . S
C1686 C1687 1.334 . S
C1687 H1664 0.950 . S
C1687 C1686 1.334 . S
C1687 C1688 1.287 . S
C1688 C1687 1.287 . S
C1688 C1689 1.524 . S
C1688 H1707 0.913 . S
C1689 H1665 0.950 . S
C1689 C1688 1.524 . S
C1689 C1690 1.415 . S
C1690 H1666 0.950 . S
C1690 C1685 1.363 . S
C1690 C1689 1.415 . S
C1691 H1667 0.951 . S
C1691 C1692 1.366 . S
C1691 C1693 1.388 . S
C1692 C1691 1.366 . S
C1692 C1696 1.385 . S
C1693 H1668 0.951 . S
C1693 C1691 1.388 . S
C1693 C1694 1.366 . S
C1694 C1693 1.366 . S
C1694 C1695 1.414 . S
C1694 C1697 1.499 . S
C1695 H1669 0.950 . S
C1695 C1694 1.414 . S
C1695 C1696 1.374 . S
C1696 H1670 0.950 . S
C1696 C1692 1.385 . S
C1696 C1695 1.374 . S
C1697 C1694 1.499 . S
C1697 C1698 1.373 . S
C1697 C1699 1.389 . S
C1698 H1671 0.950 . S
C1698 C1684 1.377 . S
C1698 C1697 1.373 . S
C1699 C1683 1.377 . S
C1699 C1697 1.389 . S
C1699 C1700 1.524 . S
C1700 C1699 1.524 . S
C1700 C1701 1.397 . S
C1700 C1705 1.363 . S
C1701 H1672 0.950 . S
C1701 C1700 1.397 . S
C1701 C1702 1.334 . S
C1702 H1673 0.950 . S
C1702 C1701 1.334 . S
C1702 C1703 1.287 . S
C1703 C1702 1.287 . S
C1703 C1704 1.524 . S
C1703 H1706 0.999 . S
C1704 H1674 0.950 . S
C1704 C1703 1.524 . S
C1704 C1705 1.415 . S
C1705 H1675 0.950 . S
C1705 C1700 1.363 . S
C1705 C1704 1.415 . S
H1706 C1703 0.999 . S
H1707 C1688 0.913 . S
H1708 C1726 0.951 . S
H1709 C1728 0.951 . S
H1710 C1730 0.950 . S
H1711 C1731 0.950 . S
H1712 C1733 0.950 . S
H1713 C1736 0.950 . S
H1714 C1737 0.950 . S
H1715 C1739 0.950 . S
H1716 C1740 0.950 . S
H1717 C1741 0.951 . S
H1718 C1743 0.951 . S
H1719 C1745 0.950 . S
H1720 C1746 0.950 . S
H1721 C1748 0.950 . S
H1722 C1751 0.950 . S
H1723 C1752 0.950 . S
H1724 C1754 0.950 . S
H1725 C1755 0.950 . S
C1726 H1708 0.951 . S
C1726 C1727 1.366 . S
C1726 C1728 1.388 . S
C1727 C1726 1.366 . S
C1727 C1731 1.385 . S
C1728 H1709 0.951 . S
C1728 C1726 1.388 . S
C1728 C1729 1.366 . S
C1729 C1728 1.366 . S
C1729 C1730 1.414 . S
C1729 C1732 1.499 . S
C1730 H1710 0.950 . S
C1730 C1729 1.414 . S
C1730 C1731 1.374 . S
C1731 H1711 0.950 . S
C1731 C1727 1.385 . S
C1731 C1730 1.374 . S
C1732 C1729 1.499 . S
C1732 C1733 1.373 . S
C1732 C1734 1.389 . S
C1733 H1712 0.950 . S
C1733 C1732 1.373 . S
C1733 C1749 1.377 . S
C1734 C1732 1.389 . S
C1734 C1735 1.524 . S
C1734 C1748 1.377 . S
C1735 C1734 1.524 . S
C1735 C1736 1.397 . S
C1735 C1740 1.363 . S
C1736 H1713 0.950 . S
C1736 C1735 1.397 . S
C1736 C1737 1.334 . S
C1737 H1714 0.950 . S
C1737 C1736 1.334 . S
C1737 C1738 1.287 . S
C1738 C1737 1.287 . S
C1738 C1739 1.524 . S
C1738 H1757 0.913 . S
C1739 H1715 0.950 . S
C1739 C1738 1.524 . S
C1739 C1740 1.415 . S
C1740 H1716 0.950 . S
C1740 C1735 1.363 . S
C1740 C1739 1.415 . S
C1741 H1717 0.951 . S
C1741 C1742 1.366 . S
C1741 C1743 1.388 . S
C1742 C1741 1.366 . S
C1742 C1746 1.385 . S
C1743 H1718 0.951 . S
C1743 C1741 1.388 . S
C1743 C1744 1.366 . S
C1744 C1743 1.366 . S
C1744 C1745 1.414 . S
C1744 C1747 1.499 . S
C1745 H1719 0.950 . S
C1745 C1744 1.414 . S
C1745 C1746 1.374 . S
C1746 H1720 0.950 . S
C1746 C1742 1.385 . S
C1746 C1745 1.374 . S
C1747 C1744 1.499 . S
C1747 C1748 1.373 . S
C1747 C1749 1.389 . S
C1748 H1721 0.950 . S
C1748 C1734 1.377 . S
C1748 C1747 1.373 . S
C1749 C1733 1.377 . S
C1749 C1747 1.389 . S
C1749 C1750 1.524 . S
C1750 C1749 1.524 . S
C1750 C1751 1.397 . S
C1750 C1755 1.363 . S
C1751 H1722 0.950 . S
C1751 C1750 1.397 . S
C1751 C1752 1.334 . S
C1752 H1723 0.950 . S
C1752 C1751 1.334 . S
C1752 C1753 1.287 . S
C1753 C1752 1.287 . S
C1753 C1754 1.524 . S
C1753 H1756 0.999 . S
C1754 H1724 0.950 . S
C1754 C1753 1.524 . S
C1754 C1755 1.415 . S
C1755 H1725 0.950 . S
C1755 C1750 1.363 . S
C1755 C1754 1.415 . S
H1756 C1753 0.999 . S
H1757 C1738 0.913 . S
H1758 C1776 0.951 . S
H1759 C1778 0.951 . S
H1760 C1780 0.950 . S
H1761 C1781 0.950 . S
H1762 C1783 0.950 . S
H1763 C1786 0.950 . S
H1764 C1787 0.950 . S
H1765 C1789 0.950 . S
H1766 C1790 0.950 . S
H1767 C1791 0.951 . S
H1768 C1793 0.951 . S
H1769 C1795 0.950 . S
H1770 C1796 0.950 . S
H1771 C1798 0.950 . S
H1772 C1801 0.950 . S
H1773 C1802 0.950 . S
H1774 C1804 0.950 . S
H1775 C1805 0.950 . S
C1776 H1758 0.951 . S
C1776 C1777 1.366 . S
C1776 C1778 1.388 . S
C1777 C1776 1.366 . S
C1777 C1781 1.385 . S
C1778 H1759 0.951 . S
C1778 C1776 1.388 . S
C1778 C1779 1.366 . S
C1779 C1778 1.366 . S
C1779 C1780 1.414 . S
C1779 C1782 1.499 . S
C1780 H1760 0.950 . S
C1780 C1779 1.414 . S
C1780 C1781 1.374 . S
C1781 H1761 0.950 . S
C1781 C1777 1.385 . S
C1781 C1780 1.374 . S
C1782 C1779 1.499 . S
C1782 C1783 1.373 . S
C1782 C1784 1.389 . S
C1783 H1762 0.950 . S
C1783 C1782 1.373 . S
C1783 C1799 1.377 . S
C1784 C1782 1.389 . S
C1784 C1785 1.524 . S
C1784 C1798 1.377 . S
C1785 C1784 1.524 . S
C1785 C1786 1.397 . S
C1785 C1790 1.363 . S
C1786 H1763 0.950 . S
C1786 C1785 1.397 . S
C1786 C1787 1.334 . S
C1787 H1764 0.950 . S
C1787 C1786 1.334 . S
C1787 C1788 1.287 . S
C1788 C1787 1.287 . S
C1788 C1789 1.524 . S
C1788 H1807 0.913 . S
C1789 H1765 0.950 . S
C1789 C1788 1.524 . S
C1789 C1790 1.415 . S
C1790 H1766 0.950 . S
C1790 C1785 1.363 . S
C1790 C1789 1.415 . S
C1791 H1767 0.951 . S
C1791 C1792 1.366 . S
C1791 C1793 1.388 . S
C1792 C1791 1.366 . S
C1792 C1796 1.385 . S
C1793 H1768 0.951 . S
C1793 C1791 1.388 . S
C1793 C1794 1.366 . S
C1794 C1793 1.366 . S
C1794 C1795 1.414 . S
C1794 C1797 1.499 . S
C1795 H1769 0.950 . S
C1795 C1794 1.414 . S
C1795 C1796 1.374 . S
C1796 H1770 0.950 . S
C1796 C1792 1.385 . S
C1796 C1795 1.374 . S
C1797 C1794 1.499 . S
C1797 C1798 1.373 . S
C1797 C1799 1.389 . S
C1798 H1771 0.950 . S
C1798 C1784 1.377 . S
C1798 C1797 1.373 . S
C1799 C1783 1.377 . S
C1799 C1797 1.389 . S
C1799 C1800 1.524 . S
C1800 C1799 1.524 . S
C1800 C1801 1.397 . S
C1800 C1805 1.363 . S
C1801 H1772 0.950 . S
C1801 C1800 1.397 . S
C1801 C1802 1.334 . S
C1802 H1773 0.950 . S
C1802 C1801 1.334 . S
C1802 C1803 1.287 . S
C1803 C1802 1.287 . S
C1803 C1804 1.524 . S
C1803 H1806 0.999 . S
C1804 H1774 0.950 . S
C1804 C1803 1.524 . S
C1804 C1805 1.415 . S
C1805 H1775 0.950 . S
C1805 C1800 1.363 . S
C1805 C1804 1.415 . S
H1806 C1803 0.999 . S
H1807 C1788 0.913 . S
C227 C0 1.379 . S
C242 C164 1.384 . S
C277 C177 1.385 . S
C292 C13 1.379 . S
C327 C26 1.380 . S
C342 C190 1.385 . S
C377 C203 1.384 . S
C392 C39 1.380 . S
C427 C104 1.380 . S
C442 C60 1.385 . S
C477 C73 1.385 . S
C492 C117 1.379 . S
C527 C130 1.379 . S
C542 C86 1.385 . S
C577 C99 1.385 . S
C592 C143 1.380 . S
C627 C5 1.521 . S
C642 C31 1.520 . S
C677 C18 1.520 . S
C692 C44 1.521 . S
C727 C57 1.320 . S
C742 C83 1.320 . S
C777 C70 1.321 . S
C792 C96 1.320 . S
C827 C135 1.521 . S
C842 C109 1.520 . S
C877 C122 1.521 . S
C892 C148 1.520 . S
C927 C187 1.321 . S
C942 C161 1.320 . S
C977 C174 1.321 . S
C992 C200 1.320 . S
C1027 C88 1.449 . S
C1042 C10 1.449 . S
C1077 C101 1.449 . S
C1092 C23 1.449 . S
C1127 C36 1.450 . S
C1142 C62 1.449 . S
C1177 C49 1.449 . S
C1192 C75 1.449 . S
C1227 C192 1.449 . S
C1242 C114 1.449 . S
C1277 C127 1.450 . S
C1292 C205 1.449 . S
C1327 C166 1.449 . S
C1342 C140 1.449 . S
C1377 C153 1.449 . S
C1392 C179 1.449 . S
C1427 C8 1.560 . S
C1442 C47 1.560 . S
C1477 C34 1.561 . S
C1492 C21 1.560 . S
C1527 C52 1.208 . S
C1542 C91 1.208 . S
C1577 C65 1.208 . S
C1592 C78 1.208 . S
C1627 C151 1.561 . S
C1642 C112 1.560 . S
C1677 C125 1.560 . S
C1692 C138 1.560 . S
C1727 C195 1.209 . S
C1742 C156 1.209 . S
C1777 C169 1.209 . S
C1792 C182 1.209 . S
