# Generated by pormake.
# Topology cha, (4)-cn, num edge types: 1
# Building blocks:
#     Node 0, Type 0, BuildingBlock: QUQFOY_clean_sbu_1, # of connection points: 4
#     Node 1, Type 0, BuildingBlock: QUQFOY_clean_sbu_1, # of connection points: 4
#     Node 2, Type 0, BuildingBlock: QUQFOY_clean_sbu_1, # of connection points: 4
#     Node 3, Type 0, BuildingBlock: QUQFOY_clean_sbu_1, # of connection points: 4
#     Node 4, Type 0, BuildingBlock: QUQFOY_clean_sbu_1, # of connection points: 4
#     Node 5, Type 0, BuildingBlock: QUQFOY_clean_sbu_1, # of connection points: 4
#     Node 6, Type 0, BuildingBlock: QUQFOY_clean_sbu_1, # of connection points: 4
#     Node 7, Type 0, BuildingBlock: QUQFOY_clean_sbu_1, # of connection points: 4
#     Node 8, Type 0, BuildingBlock: QUQFOY_clean_sbu_1, # of connection points: 4
#     Node 9, Type 0, BuildingBlock: QUQFOY_clean_sbu_1, # of connection points: 4
#     Node 10, Type 0, BuildingBlock: QUQFOY_clean_sbu_1, # of connection points: 4
#     Node 11, Type 0, BuildingBlock: QUQFOY_clean_sbu_1, # of connection points: 4
#     Node 12, Type 0, BuildingBlock: QUQFOY_clean_sbu_1, # of connection points: 4
#     Node 13, Type 0, BuildingBlock: QUQFOY_clean_sbu_1, # of connection points: 4
#     Node 14, Type 0, BuildingBlock: QUQFOY_clean_sbu_1, # of connection points: 4
#     Node 15, Type 0, BuildingBlock: QUQFOY_clean_sbu_1, # of connection points: 4
#     Node 16, Type 0, BuildingBlock: QUQFOY_clean_sbu_1, # of connection points: 4
#     Node 17, Type 0, BuildingBlock: QUQFOY_clean_sbu_1, # of connection points: 4
#     Node 18, Type 0, BuildingBlock: QUQFOY_clean_sbu_1, # of connection points: 4
#     Node 19, Type 0, BuildingBlock: QUQFOY_clean_sbu_1, # of connection points: 4
#     Node 20, Type 0, BuildingBlock: QUQFOY_clean_sbu_1, # of connection points: 4
#     Node 21, Type 0, BuildingBlock: QUQFOY_clean_sbu_1, # of connection points: 4
#     Node 22, Type 0, BuildingBlock: QUQFOY_clean_sbu_1, # of connection points: 4
#     Node 23, Type 0, BuildingBlock: QUQFOY_clean_sbu_1, # of connection points: 4
#     Node 24, Type 0, BuildingBlock: QUQFOY_clean_sbu_1, # of connection points: 4
#     Node 25, Type 0, BuildingBlock: QUQFOY_clean_sbu_1, # of connection points: 4
#     Node 26, Type 0, BuildingBlock: QUQFOY_clean_sbu_1, # of connection points: 4
#     Node 27, Type 0, BuildingBlock: QUQFOY_clean_sbu_1, # of connection points: 4
#     Node 28, Type 0, BuildingBlock: QUQFOY_clean_sbu_1, # of connection points: 4
#     Node 29, Type 0, BuildingBlock: QUQFOY_clean_sbu_1, # of connection points: 4
#     Node 30, Type 0, BuildingBlock: QUQFOY_clean_sbu_1, # of connection points: 4
#     Node 31, Type 0, BuildingBlock: QUQFOY_clean_sbu_1, # of connection points: 4
#     Node 32, Type 0, BuildingBlock: QUQFOY_clean_sbu_1, # of connection points: 4
#     Node 33, Type 0, BuildingBlock: QUQFOY_clean_sbu_1, # of connection points: 4
#     Node 34, Type 0, BuildingBlock: QUQFOY_clean_sbu_1, # of connection points: 4
#     Node 35, Type 0, BuildingBlock: QUQFOY_clean_sbu_1, # of connection points: 4
#     Edge 36, Type (0, 0), BuildingBlock: EZIPEK_clean_linker_0, # of connection points: 2
#     Edge 37, Type (0, 0), BuildingBlock: EZIPEK_clean_linker_0, # of connection points: 2
#     Edge 38, Type (0, 0), BuildingBlock: EZIPEK_clean_linker_0, # of connection points: 2
#     Edge 39, Type (0, 0), BuildingBlock: EZIPEK_clean_linker_0, # of connection points: 2
#     Edge 40, Type (0, 0), BuildingBlock: EZIPEK_clean_linker_0, # of connection points: 2
#     Edge 41, Type (0, 0), BuildingBlock: EZIPEK_clean_linker_0, # of connection points: 2
#     Edge 42, Type (0, 0), BuildingBlock: EZIPEK_clean_linker_0, # of connection points: 2
#     Edge 43, Type (0, 0), BuildingBlock: EZIPEK_clean_linker_0, # of connection points: 2
#     Edge 44, Type (0, 0), BuildingBlock: EZIPEK_clean_linker_0, # of connection points: 2
#     Edge 45, Type (0, 0), BuildingBlock: EZIPEK_clean_linker_0, # of connection points: 2
#     Edge 46, Type (0, 0), BuildingBlock: EZIPEK_clean_linker_0, # of connection points: 2
#     Edge 47, Type (0, 0), BuildingBlock: EZIPEK_clean_linker_0, # of connection points: 2
#     Edge 48, Type (0, 0), BuildingBlock: EZIPEK_clean_linker_0, # of connection points: 2
#     Edge 49, Type (0, 0), BuildingBlock: EZIPEK_clean_linker_0, # of connection points: 2
#     Edge 50, Type (0, 0), BuildingBlock: EZIPEK_clean_linker_0, # of connection points: 2
#     Edge 51, Type (0, 0), BuildingBlock: EZIPEK_clean_linker_0, # of connection points: 2
#     Edge 52, Type (0, 0), BuildingBlock: EZIPEK_clean_linker_0, # of connection points: 2
#     Edge 53, Type (0, 0), BuildingBlock: EZIPEK_clean_linker_0, # of connection points: 2
#     Edge 54, Type (0, 0), BuildingBlock: EZIPEK_clean_linker_0, # of connection points: 2
#     Edge 55, Type (0, 0), BuildingBlock: EZIPEK_clean_linker_0, # of connection points: 2
#     Edge 56, Type (0, 0), BuildingBlock: EZIPEK_clean_linker_0, # of connection points: 2
#     Edge 57, Type (0, 0), BuildingBlock: EZIPEK_clean_linker_0, # of connection points: 2
#     Edge 58, Type (0, 0), BuildingBlock: EZIPEK_clean_linker_0, # of connection points: 2
#     Edge 59, Type (0, 0), BuildingBlock: EZIPEK_clean_linker_0, # of connection points: 2
#     Edge 60, Type (0, 0), BuildingBlock: EZIPEK_clean_linker_0, # of connection points: 2
#     Edge 61, Type (0, 0), BuildingBlock: EZIPEK_clean_linker_0, # of connection points: 2
#     Edge 62, Type (0, 0), BuildingBlock: EZIPEK_clean_linker_0, # of connection points: 2
#     Edge 63, Type (0, 0), BuildingBlock: EZIPEK_clean_linker_0, # of connection points: 2
#     Edge 64, Type (0, 0), BuildingBlock: EZIPEK_clean_linker_0, # of connection points: 2
#     Edge 65, Type (0, 0), BuildingBlock: EZIPEK_clean_linker_0, # of connection points: 2
#     Edge 66, Type (0, 0), BuildingBlock: EZIPEK_clean_linker_0, # of connection points: 2
#     Edge 67, Type (0, 0), BuildingBlock: EZIPEK_clean_linker_0, # of connection points: 2
#     Edge 68, Type (0, 0), BuildingBlock: EZIPEK_clean_linker_0, # of connection points: 2
#     Edge 69, Type (0, 0), BuildingBlock: EZIPEK_clean_linker_0, # of connection points: 2
#     Edge 70, Type (0, 0), BuildingBlock: EZIPEK_clean_linker_0, # of connection points: 2
#     Edge 71, Type (0, 0), BuildingBlock: EZIPEK_clean_linker_0, # of connection points: 2
#     Edge 72, Type (0, 0), BuildingBlock: EZIPEK_clean_linker_0, # of connection points: 2
#     Edge 73, Type (0, 0), BuildingBlock: EZIPEK_clean_linker_0, # of connection points: 2
#     Edge 74, Type (0, 0), BuildingBlock: EZIPEK_clean_linker_0, # of connection points: 2
#     Edge 75, Type (0, 0), BuildingBlock: EZIPEK_clean_linker_0, # of connection points: 2
#     Edge 76, Type (0, 0), BuildingBlock: EZIPEK_clean_linker_0, # of connection points: 2
#     Edge 77, Type (0, 0), BuildingBlock: EZIPEK_clean_linker_0, # of connection points: 2
#     Edge 78, Type (0, 0), BuildingBlock: EZIPEK_clean_linker_0, # of connection points: 2
#     Edge 79, Type (0, 0), BuildingBlock: EZIPEK_clean_linker_0, # of connection points: 2
#     Edge 80, Type (0, 0), BuildingBlock: EZIPEK_clean_linker_0, # of connection points: 2
#     Edge 81, Type (0, 0), BuildingBlock: EZIPEK_clean_linker_0, # of connection points: 2
#     Edge 82, Type (0, 0), BuildingBlock: EZIPEK_clean_linker_0, # of connection points: 2
#     Edge 83, Type (0, 0), BuildingBlock: EZIPEK_clean_linker_0, # of connection points: 2
#     Edge 84, Type (0, 0), BuildingBlock: EZIPEK_clean_linker_0, # of connection points: 2
#     Edge 85, Type (0, 0), BuildingBlock: EZIPEK_clean_linker_0, # of connection points: 2
#     Edge 86, Type (0, 0), BuildingBlock: EZIPEK_clean_linker_0, # of connection points: 2
#     Edge 87, Type (0, 0), BuildingBlock: EZIPEK_clean_linker_0, # of connection points: 2
#     Edge 88, Type (0, 0), BuildingBlock: EZIPEK_clean_linker_0, # of connection points: 2
#     Edge 89, Type (0, 0), BuildingBlock: EZIPEK_clean_linker_0, # of connection points: 2
#     Edge 90, Type (0, 0), BuildingBlock: EZIPEK_clean_linker_0, # of connection points: 2
#     Edge 91, Type (0, 0), BuildingBlock: EZIPEK_clean_linker_0, # of connection points: 2
#     Edge 92, Type (0, 0), BuildingBlock: EZIPEK_clean_linker_0, # of connection points: 2
#     Edge 93, Type (0, 0), BuildingBlock: EZIPEK_clean_linker_0, # of connection points: 2
#     Edge 94, Type (0, 0), BuildingBlock: EZIPEK_clean_linker_0, # of connection points: 2
#     Edge 95, Type (0, 0), BuildingBlock: EZIPEK_clean_linker_0, # of connection points: 2
#     Edge 96, Type (0, 0), BuildingBlock: EZIPEK_clean_linker_0, # of connection points: 2
#     Edge 97, Type (0, 0), BuildingBlock: EZIPEK_clean_linker_0, # of connection points: 2
#     Edge 98, Type (0, 0), BuildingBlock: EZIPEK_clean_linker_0, # of connection points: 2
#     Edge 99, Type (0, 0), BuildingBlock: EZIPEK_clean_linker_0, # of connection points: 2
#     Edge 100, Type (0, 0), BuildingBlock: EZIPEK_clean_linker_0, # of connection points: 2
#     Edge 101, Type (0, 0), BuildingBlock: EZIPEK_clean_linker_0, # of connection points: 2
#     Edge 102, Type (0, 0), BuildingBlock: EZIPEK_clean_linker_0, # of connection points: 2
#     Edge 103, Type (0, 0), BuildingBlock: EZIPEK_clean_linker_0, # of connection points: 2
#     Edge 104, Type (0, 0), BuildingBlock: EZIPEK_clean_linker_0, # of connection points: 2
#     Edge 105, Type (0, 0), BuildingBlock: EZIPEK_clean_linker_0, # of connection points: 2
#     Edge 106, Type (0, 0), BuildingBlock: EZIPEK_clean_linker_0, # of connection points: 2
#     Edge 107, Type (0, 0), BuildingBlock: EZIPEK_clean_linker_0, # of connection points: 2
# Relax obj value: 0.049
# Max RMSD: 0.075
# Mean RMSD: 0.075
data_MOF--net-cha--node1-QUQFOY_clean_sbu_1--edge1-EZIPEK_clean_linker_0
_symmetry_space_group_name_H-M    P1
_symmetry_Int_Tables_number       1
_symmetry_cell_setting            triclinic
loop_
_symmetry_equiv_pos_as_xyz
'x, y, z'
_cell_length_a     47.295392
_cell_length_b     47.317818
_cell_length_c     61.647093
_cell_angle_alpha  89.951327
_cell_angle_beta   89.966259
_cell_angle_gamma 120.01679
loop_
_atom_site_label
_atom_site_type_symbol
_atom_site_fract_x
_atom_site_fract_y
_atom_site_fract_z
_atom_type_partial_charge
O0 O 0.0411 0.28241 0.06204 0.0
Cd1 Cd 0.04199 0.26093 0.09098 0.0
Cd2 Cd 0.00354 0.28642 0.1022 0.0
O3 O 0.01659 0.3096 0.07234 0.0
O4 O 0.07589 0.24845 0.08595 0.0
O5 O 0.08065 0.28382 0.11121 0.0
C6 C 0.09274 0.26829 0.10121 0.0
C7 C 0.00507 0.31107 0.1351 0.0
C8 C 0.03041 0.30166 0.05779 0.0
C9 C 0.97245 0.21343 0.1009 0.0
O10 O 0.96815 0.23781 0.10158 0.0
O11 O 1.00075 0.21715 0.09831 0.0
O12 O 0.98371 0.30658 0.12049 0.0
O13 O 0.02739 0.3039 0.13043 0.0
O14 O 0.78154 0.78663 0.06243 0.0
Cd15 Cd 0.80199 0.80872 0.09165 0.0
Cd16 Cd 0.7775 0.74485 0.10205 0.0
O17 O 0.75423 0.73477 0.07232 0.0
O18 O 0.8137 0.85485 0.08649 0.0
O19 O 0.77832 0.82386 0.1117 0.0
C20 C 0.79359 0.8515 0.10167 0.0
C21 C 0.75286 0.7219 0.13504 0.0
C22 C 0.76249 0.75675 0.0579 0.0
C23 C 0.85037 0.78784 0.10113 0.0
O24 O 0.82635 0.75887 0.10111 0.0
O25 O 0.846 0.81213 0.09949 0.0
O26 O 0.75733 0.70494 0.12047 0.0
O27 O 0.76008 0.75138 0.13026 0.0
O28 O 0.2787 0.02676 0.06237 0.0
Cd29 Cd 0.25713 0.02623 0.09164 0.0
Cd30 Cd 0.32106 0.06341 0.10197 0.0
O31 O 0.33039 0.04914 0.07238 0.0
O32 O 0.21038 0.99311 0.08692 0.0
O33 O 0.24093 0.98735 0.11176 0.0
C34 C 0.21318 0.97587 0.102 0.0
C35 C 0.34274 0.0608 0.13521 0.0
C36 C 0.30838 0.03625 0.05791 0.0
C37 C 0.2808 0.09612 0.10079 0.0
O38 O 0.30929 0.09982 0.10063 0.0
O39 O 0.25571 0.06794 0.09929 0.0
O40 O 0.3606 0.08183 0.12066 0.0
O41 O 0.313 0.03939 0.1303 0.0
O42 O 0.28749 0.04159 0.96143 0.0
Cd43 Cd 0.26639 0.04187 0.93217 0.0
Cd44 Cd 0.29438 0.00546 0.92112 0.0
O45 O 0.3142 0.01624 0.95198 0.0
O46 O 0.25247 0.07476 0.93715 0.0
O47 O 0.28819 0.08064 0.91183 0.0
C48 C 0.27213 0.09209 0.92191 0.0
C49 C 0.327 0.01385 0.89017 0.0
C50 C 0.30599 0.03022 0.96623 0.0
C51 C 0.2211 0.9719 0.92099 0.0
O52 O 0.24625 0.96889 0.91955 0.0
O53 O 0.2236 0.99946 0.92476 0.0
O54 O 0.31928 0.98995 0.90344 0.0
O55 O 0.31599 0.0332 0.89477 0.0
O56 O 0.03029 0.2776 0.96172 0.0
Cd57 Cd 0.02951 0.25645 0.93219 0.0
Cd58 Cd 0.06528 0.32056 0.92233 0.0
O59 O 0.05057 0.32914 0.95194 0.0
O60 O 0.99668 0.2096 0.93715 0.0
O61 O 0.98987 0.24012 0.91281 0.0
C62 C 0.97872 0.21244 0.92263 0.0
C63 C 0.06181 0.34186 0.88917 0.0
C64 C 0.03858 0.30691 0.96634 0.0
C65 C 0.09956 0.28187 0.92229 0.0
O66 O 0.10249 0.30998 0.9235 0.0
O67 O 0.07164 0.25627 0.92334 0.0
O68 O 0.08278 0.36003 0.90361 0.0
O69 O 0.04095 0.31196 0.89414 0.0
O70 O 0.79071 0.78111 0.96226 0.0
Cd71 Cd 0.81367 0.80313 0.93346 0.0
Cd72 Cd 0.74928 0.77783 0.92236 0.0
O73 O 0.73903 0.75408 0.95192 0.0
O74 O 0.86 0.81589 0.93925 0.0
O75 O 0.83086 0.78158 0.91313 0.0
C76 C 0.85802 0.79692 0.92367 0.0
C77 C 0.72564 0.75329 0.88952 0.0
C78 C 0.76072 0.76185 0.96648 0.0
C79 C 0.79167 0.85087 0.92408 0.0
O80 O 0.76288 0.82656 0.92352 0.0
O81 O 0.8162 0.84692 0.9261 0.0
O82 O 0.70901 0.75779 0.90432 0.0
O83 O 0.75523 0.76051 0.89393 0.0
O84 O 0.03 0.78364 0.96295 0.0
Cd85 Cd 0.02955 0.80472 0.93365 0.0
Cd86 Cd 0.06564 0.77688 0.92315 0.0
O87 O 0.05166 0.75373 0.95288 0.0
O88 O 0.99668 0.81872 0.93835 0.0
O89 O 0.9904 0.78186 0.91382 0.0
C90 C 0.97913 0.79836 0.92352 0.0
C91 C 0.06201 0.75182 0.89014 0.0
C92 C 0.03907 0.76314 0.96738 0.0
C93 C 0.09955 0.84989 0.92349 0.0
O94 O 0.10267 0.82478 0.92384 0.0
O95 O 0.07165 0.84739 0.92542 0.0
O96 O 0.08326 0.75505 0.9045 0.0
O97 O 0.04096 0.76059 0.89514 0.0
O98 O 0.28765 0.27856 0.96089 0.0
Cd99 Cd 0.26635 0.257 0.93174 0.0
Cd100 Cd 0.29504 0.32125 0.91999 0.0
O101 O 0.31523 0.33036 0.95083 0.0
O102 O 0.25185 0.21001 0.93659 0.0
O103 O 0.28854 0.24009 0.91176 0.0
C104 C 0.2719 0.21244 0.92161 0.0
C105 C 0.3274 0.34516 0.88881 0.0
C106 C 0.30673 0.30845 0.96535 0.0
C107 C 0.22162 0.28219 0.92019 0.0
O108 O 0.24699 0.31017 0.91848 0.0
O109 O 0.2238 0.25702 0.92423 0.0
O110 O 0.32004 0.36153 0.90212 0.0
O111 O 0.3162 0.31478 0.89349 0.0
O112 O 0.79084 0.0407 0.96294 0.0
Cd113 Cd 0.81396 0.04199 0.93423 0.0
Cd114 Cd 0.74973 0.00356 0.92236 0.0
O115 O 0.73931 0.01634 0.95223 0.0
O116 O 0.86032 0.07582 0.93968 0.0
O117 O 0.83035 0.0808 0.91402 0.0
C118 C 0.85778 0.0927 0.92423 0.0
C119 C 0.72614 0.00456 0.88945 0.0
C120 C 0.76078 0.02989 0.96697 0.0
C121 C 0.79177 0.97248 0.92411 0.0
O122 O 0.76314 0.9683 0.92303 0.0
O123 O 0.81637 1.00068 0.92696 0.0
O124 O 0.70951 0.98335 0.90423 0.0
O125 O 0.75562 0.02707 0.89397 0.0
O126 O 0.78216 0.02474 0.06261 0.0
Cd127 Cd 0.80281 0.02282 0.0917 0.0
Cd128 Cd 0.77808 0.06152 0.10274 0.0
O129 O 0.75438 0.04852 0.07308 0.0
O130 O 0.81432 0.98827 0.08652 0.0
O131 O 0.77888 0.98394 0.11167 0.0
C132 C 0.79413 0.97153 0.10169 0.0
C133 C 0.75421 0.05963 0.13612 0.0
C134 C 0.76277 0.03529 0.05839 0.0
C135 C 0.85103 0.09193 0.10132 0.0
O136 O 0.82685 0.09663 0.10152 0.0
O137 O 0.84687 0.06337 0.0995 0.0
O138 O 0.75824 0.08107 0.12166 0.0
O139 O 0.76136 0.03743 0.13103 0.0
O140 O 0.042 0.78943 0.06283 0.0
Cd141 Cd 0.04248 0.81214 0.0915 0.0
Cd142 Cd 0.00442 0.74829 0.10306 0.0
O143 O 0.01736 0.73781 0.07332 0.0
O144 O 0.07649 0.85839 0.08613 0.0
O145 O 0.0806 0.82852 0.11225 0.0
C146 C 0.09297 0.85585 0.10185 0.0
C147 C 0.00656 0.72594 0.13615 0.0
C148 C 0.03127 0.75946 0.0587 0.0
C149 C 0.97284 0.78981 0.10117 0.0
O150 O 0.96884 0.76126 0.10234 0.0
O151 O 1.001 0.81448 0.09831 0.0
O152 O 0.98505 0.70867 0.12173 0.0
O153 O 0.02867 0.7554 0.13118 0.0
O154 O 0.28033 0.28633 0.06127 0.0
Cd155 Cd 0.25805 0.26442 0.09017 0.0
Cd156 Cd 0.32191 0.29092 0.10137 0.0
O157 O 0.33203 0.31414 0.0715 0.0
O158 O 0.21155 0.25141 0.08499 0.0
O159 O 0.24133 0.28596 0.11085 0.0
C160 C 0.21391 0.27048 0.10062 0.0
C161 C 0.34287 0.31533 0.1347 0.0
C162 C 0.31021 0.30586 0.05695 0.0
C163 C 0.28127 0.21787 0.09993 0.0
O164 O 0.30974 0.24262 0.10068 0.0
O165 O 0.25635 0.22099 0.09727 0.0
O166 O 0.36096 0.3118 0.12054 0.0
O167 O 0.31337 0.30732 0.12933 0.0
O168 O 0.70375 0.6163 0.39632 0.0
Cd169 Cd 0.70481 0.59451 0.42513 0.0
Cd170 Cd 0.66843 0.62165 0.43717 0.0
O171 O 0.67809 0.64242 0.40653 0.0
O172 O 0.738 0.58116 0.41974 0.0
O173 O 0.74384 0.6168 0.44511 0.0
C174 C 0.75528 0.6008 0.43497 0.0
C175 C 0.67653 0.65015 0.46957 0.0
C176 C 0.69214 0.63476 0.39197 0.0
C177 C 0.63566 0.54837 0.43724 0.0
O178 O 0.63248 0.57335 0.43897 0.0
O179 O 0.6632 0.5512 0.43288 0.0
O180 O 0.652 0.64324 0.4571 0.0
O181 O 0.69812 0.64317 0.46265 0.0
O182 O 0.44969 0.12373 0.39665 0.0
Cd183 Cd 0.47046 0.14649 0.42567 0.0
Cd184 Cd 0.44624 0.08257 0.43706 0.0
O185 O 0.42382 0.072 0.40695 0.0
O186 O 0.48152 0.19244 0.42053 0.0
O187 O 0.44687 0.16132 0.44602 0.0
C188 C 0.46169 0.18896 0.43596 0.0
C189 C 0.42094 0.05848 0.46967 0.0
C190 C 0.43132 0.09364 0.39235 0.0
C191 C 0.51919 0.1264 0.43666 0.0
O192 O 0.4953 0.09739 0.43732 0.0
O193 O 0.51466 0.15039 0.43366 0.0
O194 O 0.42634 0.04224 0.45506 0.0
O195 O 0.4274 0.08778 0.46507 0.0
O196 O 0.94287 0.3558 0.39643 0.0
Cd197 Cd 0.92131 0.35508 0.42583 0.0
Cd198 Cd 0.98468 0.39476 0.4356 0.0
O199 O 0.99517 0.38374 0.40525 0.0
O200 O 0.87525 0.31953 0.42217 0.0
O201 O 0.90784 0.31826 0.44743 0.0
C202 C 0.87965 0.30455 0.43809 0.0
C203 C 0.00641 0.38942 0.46831 0.0
C204 C 0.97283 0.36839 0.39129 0.0
C205 C 0.94118 0.42414 0.43517 0.0
O206 O 0.97013 0.42914 0.43599 0.0
O207 O 0.91711 0.39551 0.43271 0.0
O208 O 0.02321 0.41348 0.45525 0.0
O209 O 0.97796 0.36686 0.46189 0.0
O210 O 0.94823 0.37236 0.29522 0.0
Cd211 Cd 0.92792 0.37462 0.26608 0.0
Cd212 Cd 0.95245 0.33495 0.25494 0.0
O213 O 0.9749 0.34728 0.28506 0.0
O214 O 0.91659 0.40927 0.2714 0.0
O215 O 0.95214 0.4137 0.24631 0.0
C216 C 0.93698 0.42615 0.25636 0.0
C217 C 0.97795 0.33573 0.2225 0.0
C218 C 0.96697 0.36109 0.29961 0.0
C219 C 0.87945 0.30586 0.25492 0.0
O220 O 0.90335 0.30072 0.25466 0.0
O221 O 0.88394 0.33442 0.25765 0.0
O222 O 0.97242 0.31426 0.23729 0.0
O223 O 0.97147 0.35863 0.22681 0.0
O224 O 0.69108 0.60921 0.29642 0.0
Cd225 Cd 0.69115 0.58746 0.26743 0.0
Cd226 Cd 0.72862 0.65138 0.25653 0.0
O227 O 0.71433 0.66086 0.28615 0.0
O228 O 0.65747 0.54086 0.27195 0.0
O229 O 0.65295 0.57188 0.24684 0.0
C230 C 0.64086 0.54405 0.2566 0.0
C231 C 0.72657 0.67349 0.22332 0.0
C232 C 0.70085 0.63897 0.30068 0.0
C233 C 0.76106 0.61075 0.2581 0.0
O234 O 0.76481 0.63924 0.25758 0.0
O235 O 0.73292 0.58579 0.26033 0.0
O236 O 0.74757 0.69107 0.23792 0.0
O237 O 0.70483 0.64383 0.22818 0.0
O238 O 0.45581 0.11391 0.29583 0.0
Cd239 Cd 0.47663 0.13509 0.26643 0.0
Cd240 Cd 0.41283 0.1094 0.25654 0.0
O241 O 0.4037 0.08666 0.28653 0.0
O242 O 0.52306 0.14659 0.26963 0.0
O243 O 0.49028 0.11217 0.24468 0.0
C244 C 0.51863 0.12705 0.25382 0.0
C245 C 0.39026 0.0845 0.22363 0.0
C246 C 0.42602 0.09485 0.30069 0.0
C247 C 0.45416 0.18243 0.25753 0.0
O248 O 0.42553 0.15788 0.25703 0.0
O249 O 0.47892 0.17893 0.25973 0.0
O250 O 0.37289 0.08835 0.23821 0.0
O251 O 0.41991 0.09233 0.22839 0.0
O252 O 0.68794 0.11541 0.28972 0.0
Cd253 Cd 0.68869 0.13346 0.25902 0.0
Cd254 Cd 0.73331 0.11288 0.25604 0.0
O255 O 0.72075 0.09499 0.28725 0.0
O256 O 0.65564 0.14742 0.26311 0.0
O257 O 0.64901 0.1096 0.23944 0.0
C258 C 0.63779 0.12639 0.24876 0.0
C259 C 0.73161 0.08581 0.22435 0.0
C260 C 0.70216 0.10148 0.29847 0.0
C261 C 0.75902 0.1844 0.25192 0.0
O262 O 0.76593 0.162 0.25482 0.0
O263 O 0.7295 0.17789 0.25109 0.0
O264 O 0.75324 0.09153 0.2391 0.0
O265 O 0.70888 0.09266 0.22852 0.0
O266 O 0.9513 0.61125 0.29656 0.0
Cd267 Cd 0.9307 0.58977 0.26722 0.0
Cd268 Cd 0.95625 0.65382 0.25721 0.0
O269 O 0.97982 0.6631 0.28679 0.0
O270 O 0.91814 0.54331 0.27197 0.0
O271 O 0.95426 0.57451 0.24717 0.0
C272 C 0.93841 0.54667 0.2569 0.0
C273 C 0.9808 0.6769 0.22425 0.0
C274 C 0.97105 0.64095 0.30115 0.0
C275 C 0.88329 0.612 0.25808 0.0
O276 O 0.90764 0.64077 0.2584 0.0
O277 O 0.88713 0.58735 0.25938 0.0
O278 O 0.97696 0.69398 0.23905 0.0
O279 O 0.97301 0.64719 0.22878 0.0
O280 O 0.45534 0.3733 0.29573 0.0
Cd281 Cd 0.47688 0.37381 0.26645 0.0
Cd282 Cd 0.41268 0.33553 0.25637 0.0
O283 O 0.40348 0.3499 0.286 0.0
O284 O 0.52341 0.4074 0.27137 0.0
O285 O 0.493 0.4124 0.24607 0.0
C286 C 0.5206 0.42435 0.25608 0.0
C287 C 0.38995 0.33713 0.22326 0.0
C288 C 0.42562 0.36336 0.30033 0.0
C289 C 0.45405 0.30394 0.2575 0.0
O290 O 0.42535 0.29974 0.25766 0.0
O291 O 0.47885 0.33235 0.25883 0.0
O292 O 0.37258 0.31645 0.23813 0.0
O293 O 0.41973 0.35885 0.22782 0.0
O294 O 0.44645 0.35945 0.39738 0.0
Cd295 Cd 0.46584 0.35834 0.4272 0.0
Cd296 Cd 0.43945 0.39627 0.437 0.0
O297 O 0.41977 0.38511 0.4061 0.0
O298 O 0.48007 0.32567 0.42256 0.0
O299 O 0.44239 0.31866 0.44666 0.0
C300 C 0.45935 0.30777 0.43714 0.0
C301 C 0.40692 0.38739 0.46805 0.0
C302 C 0.42823 0.37098 0.39213 0.0
C303 C 0.51235 0.42805 0.43836 0.0
O304 O 0.48785 0.43225 0.43864 0.0
O305 O 0.50873 0.39979 0.43577 0.0
O306 O 0.41455 0.41147 0.45496 0.0
O307 O 0.418 0.36817 0.46322 0.0
O308 O 0.70944 0.12537 0.40154 0.0
Cd309 Cd 0.70892 0.14247 0.43232 0.0
Cd310 Cd 0.66362 0.07768 0.43513 0.0
O311 O 0.67587 0.07226 0.40385 0.0
O312 O 0.74263 0.18929 0.42847 0.0
O313 O 0.74837 0.15731 0.452 0.0
C314 C 0.7601 0.1855 0.44283 0.0
C315 C 0.66536 0.05235 0.46684 0.0
C316 C 0.69478 0.09732 0.3927 0.0
C317 C 0.63895 0.12428 0.43943 0.0
O318 O 0.63155 0.09485 0.43648 0.0
O319 O 0.66862 0.14694 0.44026 0.0
O320 O 0.64347 0.03651 0.45222 0.0
O321 O 0.68828 0.08178 0.46251 0.0
O322 O 0.94256 0.61587 0.39618 0.0
Cd323 Cd 0.91888 0.59314 0.42455 0.0
Cd324 Cd 0.98258 0.61814 0.43682 0.0
O325 O 0.99398 0.64173 0.40713 0.0
O326 O 0.87287 0.58141 0.41877 0.0
O327 O 0.90227 0.61471 0.44528 0.0
C328 C 0.87516 0.60011 0.43462 0.0
C329 C 0.00546 0.64267 0.46978 0.0
C330 C 0.97275 0.63472 0.39234 0.0
C331 C 0.94011 0.54505 0.43466 0.0
O332 O 0.96877 0.56936 0.43627 0.0
O333 O 0.9158 0.54896 0.4313 0.0
O334 O 0.02228 0.63775 0.45536 0.0
O335 O 0.97615 0.63592 0.4649 0.0
O336 O 0.37422 0.95402 0.73086 0.0
Cd337 Cd 0.37535 0.93214 0.75968 0.0
Cd338 Cd 0.33674 0.95733 0.77084 0.0
O339 O 0.34839 0.98003 0.74088 0.0
O340 O 0.40847 0.91888 0.75349 0.0
O341 O 0.41458 0.95343 0.77965 0.0
C342 C 0.42592 0.93781 0.76894 0.0
C343 C 0.34627 0.98372 0.80406 0.0
C344 C 0.36273 0.97257 0.72643 0.0
C345 C 0.30554 0.88451 0.76983 0.0
O346 O 0.3011 0.90881 0.77073 0.0
O347 O 0.33397 0.88849 0.76728 0.0
O348 O 0.32218 0.97942 0.79193 0.0
O349 O 0.36629 0.97492 0.79662 0.0
O350 O 0.11451 0.45388 0.72788 0.0
Cd351 Cd 0.13664 0.47555 0.75688 0.0
Cd352 Cd 0.1086 0.41146 0.76757 0.0
O353 O 0.08468 0.40234 0.73811 0.0
O354 O 0.15046 0.52234 0.752 0.0
O355 O 0.11515 0.49236 0.77753 0.0
C356 C 0.13108 0.51992 0.76747 0.0
C357 C 0.08447 0.38978 0.80086 0.0
C358 C 0.09384 0.42431 0.72359 0.0
C359 C 0.18177 0.45045 0.76607 0.0
O360 O 0.1565 0.42229 0.76616 0.0
O361 O 0.17946 0.47595 0.76418 0.0
O362 O 0.08724 0.37185 0.78622 0.0
O363 O 0.09307 0.4196 0.79603 0.0
O364 O 0.6094 0.68987 0.72911 0.0
Cd365 Cd 0.58702 0.68914 0.75808 0.0
Cd366 Cd 0.65129 0.72713 0.76898 0.0
O367 O 0.66094 0.71269 0.73956 0.0
O368 O 0.54046 0.65568 0.75296 0.0
O369 O 0.57077 0.65015 0.77811 0.0
C370 C 0.54319 0.63849 0.76811 0.0
C371 C 0.67456 0.7262 0.80198 0.0
C372 C 0.6392 0.69952 0.72494 0.0
C373 C 0.60999 0.75893 0.76742 0.0
O374 O 0.6386 0.76292 0.76756 0.0
O375 O 0.58511 0.73065 0.76568 0.0
O376 O 0.69149 0.74704 0.78709 0.0
O377 O 0.64486 0.7041 0.79758 0.0
O378 O 0.61824 0.70412 0.62965 0.0
Cd379 Cd 0.5962 0.70571 0.60113 0.0
Cd380 Cd 0.62277 0.66931 0.58861 0.0
O381 O 0.64414 0.67846 0.61899 0.0
O382 O 0.58473 0.74013 0.60699 0.0
O383 O 0.61864 0.74426 0.58075 0.0
C384 C 0.60393 0.7567 0.59135 0.0
C385 C 0.65071 0.67672 0.55596 0.0
C386 C 0.63663 0.69235 0.63374 0.0
C387 C 0.54929 0.637 0.58965 0.0
O388 O 0.57423 0.63381 0.58756 0.0
O389 O 0.55222 0.66454 0.59406 0.0
O390 O 0.64337 0.65208 0.56844 0.0
O391 O 0.64436 0.6987 0.56293 0.0
O392 O 0.35871 0.94538 0.63109 0.0
Cd393 Cd 0.35737 0.92227 0.60243 0.0
Cd394 Cd 0.39653 0.98576 0.59067 0.0
O395 O 0.38407 0.99691 0.62039 0.0
O396 O 0.32236 0.87648 0.60788 0.0
O397 O 0.31927 0.90703 0.58178 0.0
C398 C 0.3063 0.87965 0.59215 0.0
C399 C 0.39497 0.00845 0.55756 0.0
C400 C 0.36998 0.97547 0.63512 0.0
C401 C 0.42646 0.94273 0.59245 0.0
O402 O 0.43124 0.97158 0.59132 0.0
O403 O 0.39801 0.91854 0.5954 0.0
O404 O 0.41667 0.02535 0.57198 0.0
O405 O 0.37236 0.9792 0.56255 0.0
O406 O 0.12128 0.44587 0.62823 0.0
Cd407 Cd 0.14548 0.46841 0.59994 0.0
Cd408 Cd 0.08235 0.44428 0.58719 0.0
O409 O 0.06977 0.42271 0.61759 0.0
O410 O 0.19124 0.47942 0.60588 0.0
O411 O 0.16185 0.44667 0.57915 0.0
C412 C 0.18889 0.46093 0.58989 0.0
C413 C 0.0606 0.41688 0.55456 0.0
C414 C 0.09092 0.42871 0.63229 0.0
C415 C 0.12584 0.51738 0.58884 0.0
O416 O 0.0973 0.4933 0.58617 0.0
O417 O 0.14959 0.51307 0.5934 0.0
O418 O 0.04413 0.42497 0.56727 0.0
O419 O 0.08873 0.42218 0.56125 0.0
O420 O 0.36012 0.44553 0.62816 0.0
Cd421 Cd 0.35937 0.4669 0.59903 0.0
Cd422 Cd 0.39708 0.44098 0.58829 0.0
O423 O 0.3848 0.41832 0.61831 0.0
O424 O 0.32622 0.48038 0.60425 0.0
O425 O 0.32025 0.44444 0.57911 0.0
C426 C 0.30885 0.46055 0.58914 0.0
C427 C 0.38742 0.41513 0.55485 0.0
C428 C 0.37089 0.42642 0.63271 0.0
C429 C 0.42915 0.51384 0.58893 0.0
O430 O 0.43321 0.48928 0.58855 0.0
O431 O 0.40092 0.51036 0.59135 0.0
O432 O 0.41117 0.41865 0.56704 0.0
O433 O 0.36768 0.42421 0.5624 0.0
O434 O 0.6162 0.94214 0.62912 0.0
Cd435 Cd 0.59472 0.91916 0.60033 0.0
Cd436 Cd 0.61987 0.98261 0.58888 0.0
O437 O 0.64439 0.99348 0.61824 0.0
O438 O 0.58315 0.87321 0.60606 0.0
O439 O 0.61795 0.90346 0.58035 0.0
C440 C 0.60294 0.87614 0.59076 0.0
C441 C 0.64313 0.00417 0.55527 0.0
C442 C 0.63608 0.97204 0.63306 0.0
C443 C 0.54681 0.94056 0.59108 0.0
O444 O 0.57119 0.96931 0.59062 0.0
O445 O 0.55069 0.91597 0.59285 0.0
O446 O 0.63957 0.02182 0.56976 0.0
O447 O 0.63582 0.97479 0.56043 0.0
O448 O 0.12321 0.70477 0.62926 0.0
Cd449 Cd 0.14517 0.70719 0.59979 0.0
Cd450 Cd 0.08114 0.66724 0.58984 0.0
O451 O 0.07129 0.68052 0.61958 0.0
O452 O 0.19116 0.74183 0.6051 0.0
O453 O 0.15981 0.74668 0.58044 0.0
C454 C 0.18749 0.75899 0.59038 0.0
C455 C 0.05668 0.66752 0.55724 0.0
C456 C 0.09338 0.69408 0.63392 0.0
C457 C 0.12498 0.63832 0.58986 0.0
O458 O 0.09587 0.63296 0.59055 0.0
O459 O 0.14909 0.66715 0.59115 0.0
O460 O 0.04052 0.64642 0.57219 0.0
O461 O 0.08619 0.69029 0.56143 0.0
O462 O 0.11813 0.69231 0.72962 0.0
Cd463 Cd 0.1394 0.6916 0.75869 0.0
Cd464 Cd 0.11205 0.72859 0.76969 0.0
O465 O 0.08914 0.71493 0.73986 0.0
O466 O 0.15305 0.65854 0.75369 0.0
O467 O 0.11655 0.65239 0.77853 0.0
C468 C 0.13281 0.64102 0.76862 0.0
C469 C 0.08681 0.72687 0.80237 0.0
C470 C 0.09803 0.70194 0.72532 0.0
C471 C 0.18523 0.7614 0.76897 0.0
O472 O 0.16032 0.76488 0.76924 0.0
O473 O 0.18238 0.73344 0.76659 0.0
O474 O 0.0907 0.7477 0.78748 0.0
O475 O 0.09477 0.70503 0.79805 0.0
O476 O 0.37287 0.45138 0.72883 0.0
Cd477 Cd 0.37306 0.47335 0.75783 0.0
Cd478 Cd 0.33613 0.40946 0.76874 0.0
O479 O 0.34855 0.39945 0.73864 0.0
O480 O 0.40623 0.52003 0.75258 0.0
O481 O 0.4118 0.49029 0.77813 0.0
C482 C 0.4234 0.5177 0.76791 0.0
C483 C 0.34602 0.39309 0.80211 0.0
C484 C 0.36236 0.42156 0.72427 0.0
C485 C 0.30298 0.44934 0.76778 0.0
O486 O 0.29951 0.42097 0.76856 0.0
O487 O 0.33094 0.47441 0.76511 0.0
O488 O 0.32236 0.37285 0.78987 0.0
O489 O 0.36553 0.42206 0.79465 0.0
O490 O 0.61095 0.94986 0.7286 0.0
Cd491 Cd 0.58858 0.9282 0.75753 0.0
Cd492 Cd 0.65269 0.95415 0.76879 0.0
O493 O 0.66267 0.97725 0.73887 0.0
O494 O 0.54206 0.91545 0.75263 0.0
O495 O 0.57265 0.95085 0.77787 0.0
C496 C 0.545 0.93522 0.76792 0.0
C497 C 0.67554 0.97895 0.80174 0.0
C498 C 0.64089 0.96921 0.72433 0.0
C499 C 0.61118 0.88109 0.76738 0.0
O500 O 0.6398 0.90562 0.76816 0.0
O501 O 0.58647 0.88457 0.76475 0.0
O502 O 0.69261 0.97464 0.78718 0.0
O503 O 0.64598 0.97149 0.79699 0.0
C504 C 0.12719 0.24673 0.11614 0.0
C505 C 0.1253 0.27295 0.10656 0.0
C506 C 0.18449 0.30224 0.10025 0.0
C507 C 0.18526 0.27373 0.10642 0.0
N508 N 0.15856 0.21937 0.1213 0.0
N509 N 0.15134 0.32593 0.08959 0.0
C510 C 0.15699 0.24625 0.11496 0.0
C511 C 0.15387 0.30115 0.09908 0.0
N512 N 0.10043 0.22252 0.1265 0.0
N513 N 0.21294 0.33005 0.09513 0.0
H514 H 0.12949 0.3263 0.08896 0.0
H515 H 0.17035 0.34536 0.08135 0.0
H516 H 0.23558 0.33131 0.09517 0.0
H517 H 0.21461 0.35256 0.09248 0.0
H518 H 0.1006 0.20393 0.13542 0.0
H519 H 0.07845 0.2226 0.12771 0.0
H520 H 0.13823 0.19701 0.12518 0.0
H521 H 0.18049 0.21911 0.12199 0.0
C522 C 0.76358 0.91134 0.09505 0.0
C523 C 0.78816 0.9384 0.10662 0.0
C524 C 0.81161 0.90546 0.11931 0.0
C525 C 0.78815 0.87894 0.10679 0.0
N526 N 0.73753 0.85334 0.08702 0.0
N527 N 0.83031 0.95986 0.13369 0.0
C528 C 0.76253 0.88078 0.09619 0.0
C529 C 0.81041 0.93491 0.12014 0.0
N530 N 0.74239 0.91544 0.08214 0.0
N531 N 0.83573 0.90277 0.12965 0.0
H532 H 0.82973 0.9816 0.13451 0.0
H533 H 0.8454 0.95824 0.14529 0.0
H534 H 0.83618 0.88095 0.1302 0.0
H535 H 0.85584 0.92219 0.13702 0.0
H536 H 0.7264 0.89802 0.07122 0.0
H537 H 0.74174 0.93715 0.08167 0.0
H538 H 0.71664 0.85213 0.08056 0.0
H539 H 0.73648 0.83078 0.08739 0.0
C540 C 0.12647 0.91274 0.11595 0.0
C541 C 0.12513 0.88419 0.10753 0.0
C542 C 0.18396 0.91471 0.10002 0.0
C543 C 0.1849 0.94356 0.10744 0.0
N544 N 0.16012 0.96919 0.12735 0.0
N545 N 0.15295 0.85567 0.09636 0.0
C546 C 0.15705 0.94222 0.11704 0.0
C547 C 0.15413 0.88438 0.10135 0.0
N548 N 0.09827 0.91174 0.12228 0.0
N549 N 0.21098 0.9167 0.09043 0.0
H550 H 0.13134 0.83322 0.09652 0.0
H551 H 0.17357 0.85359 0.09371 0.0
H552 H 0.2334 0.93832 0.08965 0.0
H553 H 0.21096 0.89747 0.08225 0.0
H554 H 0.09668 0.93233 0.12605 0.0
H555 H 0.07586 0.89006 0.12302 0.0
H556 H 0.14156 0.96938 0.1363 0.0
H557 H 0.18241 0.99094 0.1285 0.0
C558 C 0.30429 0.15329 0.92308 0.0
C559 C 0.27574 0.12431 0.91654 0.0
C560 C 0.2496 0.15618 0.90679 0.0
C561 C 0.27588 0.184 0.91657 0.0
N562 N 0.32831 0.20992 0.93426 0.0
N563 N 0.22163 0.0975 0.90129 0.0
C564 C 0.30361 0.18302 0.92436 0.0
C565 C 0.24863 0.12565 0.90789 0.0
N566 N 0.33178 0.15221 0.92845 0.0
N567 N 0.22584 0.15925 0.89625 0.0
H568 H 0.22103 0.07517 0.90051 0.0
H569 H 0.19948 0.09586 0.89732 0.0
H570 H 0.22626 0.18147 0.8951 0.0
H571 H 0.20732 0.14076 0.88715 0.0
H572 H 0.35437 0.17287 0.93129 0.0
H573 H 0.33276 0.13069 0.92847 0.0
H574 H 0.34727 0.20981 0.94275 0.0
H575 H 0.32901 0.23227 0.93504 0.0
C576 C 0.91826 0.18353 0.92829 0.0
C577 C 0.94572 0.18452 0.91821 0.0
C578 C 0.91163 0.12779 0.90625 0.0
C579 C 0.88573 0.12538 0.91916 0.0
N580 N 0.86319 0.15008 0.94235 0.0
N581 N 0.9693 0.15882 0.89698 0.0
C582 C 0.88849 0.1532 0.92983 0.0
C583 C 0.9425 0.15707 0.90675 0.0
N584 N 0.92089 0.21153 0.93662 0.0
N585 N 0.90648 0.102 0.89351 0.0
H586 H 0.99172 0.18046 0.89608 0.0
H587 H 0.96984 0.13881 0.89049 0.0
H588 H 0.88403 0.08036 0.89292 0.0
H589 H 0.9233 0.10279 0.88229 0.0
H590 H 0.9012 0.2133 0.94247 0.0
H591 H 0.94258 0.23391 0.93621 0.0
H592 H 0.86477 0.16815 0.95273 0.0
H593 H 0.84066 0.12855 0.94313 0.0
C594 C 0.91527 0.82116 0.9099 0.0
C595 C 0.8868 0.79368 0.91823 0.0
C596 C 0.91792 0.76602 0.92581 0.0
C597 C 0.94664 0.79412 0.91835 0.0
N598 N 0.97185 0.84463 0.89848 0.0
N599 N 0.85881 0.73731 0.92941 0.0
C600 C 0.94498 0.82049 0.9088 0.0
C601 C 0.88737 0.76508 0.92444 0.0
N602 N 0.91398 0.84822 0.90362 0.0
N603 N 0.9202 0.74122 0.93549 0.0
H604 H 0.83621 0.73614 0.92927 0.0
H605 H 0.85702 0.71474 0.93203 0.0
H606 H 0.94198 0.74075 0.93637 0.0
H607 H 0.90104 0.72191 0.9437 0.0
H608 H 0.93447 0.87057 0.89994 0.0
H609 H 0.89216 0.84866 0.90285 0.0
H610 H 0.9718 0.86326 0.88954 0.0
H611 H 0.99377 0.84443 0.89731 0.0
C612 C 0.81651 0.63252 0.43304 0.0
C613 C 0.78751 0.60452 0.44025 0.0
C614 C 0.81804 0.57654 0.44844 0.0
C615 C 0.84676 0.60387 0.44024 0.0
N616 N 0.87562 0.66043 0.4295 0.0
N617 N 0.76147 0.55367 0.45973 0.0
C618 C 0.84677 0.63286 0.4343 0.0
C619 C 0.78861 0.57773 0.44959 0.0
N620 N 0.81475 0.65783 0.42373 0.0
N621 N 0.81882 0.54913 0.4545 0.0
H622 H 0.73975 0.55426 0.46093 0.0
H623 H 0.76111 0.53471 0.46851 0.0
H624 H 0.84043 0.54829 0.45521 0.0
H625 H 0.79811 0.5269 0.45807 0.0
H626 H 0.83412 0.6772 0.4157 0.0
H627 H 0.79317 0.65872 0.42302 0.0
H628 H 0.87784 0.68321 0.42703 0.0
H629 H 0.89801 0.66116 0.42962 0.0
C630 C 0.42822 0.24668 0.43412 0.0
C631 C 0.45545 0.27545 0.44231 0.0
C632 C 0.48341 0.24508 0.45105 0.0
C633 C 0.45697 0.21669 0.44182 0.0
N634 N 0.40128 0.18785 0.42932 0.0
N635 N 0.50472 0.30089 0.46343 0.0
C636 C 0.42824 0.21659 0.43511 0.0
C637 C 0.48168 0.27419 0.45241 0.0
N638 N 0.40341 0.24859 0.42414 0.0
N639 N 0.51053 0.24433 0.45788 0.0
H640 H 0.50368 0.32235 0.46479 0.0
H641 H 0.52314 0.30104 0.47274 0.0
H642 H 0.51165 0.22286 0.4584 0.0
H643 H 0.53231 0.26496 0.4623 0.0
H644 H 0.3848 0.22954 0.41544 0.0
H645 H 0.40224 0.27001 0.42361 0.0
H646 H 0.37857 0.18546 0.42619 0.0
H647 H 0.40089 0.16562 0.42927 0.0
C648 C 0.82457 0.27191 0.4551 0.0
C649 C 0.85222 0.27279 0.44543 0.0
C650 C 0.82115 0.21364 0.43957 0.0
C651 C 0.79294 0.21318 0.44791 0.0
N652 N 0.76919 0.23887 0.46881 0.0
N653 N 0.87984 0.24444 0.43357 0.0
C654 C 0.79522 0.24145 0.45746 0.0
C655 C 0.85155 0.2435 0.43956 0.0
N656 N 0.82619 0.30042 0.46133 0.0
N657 N 0.81836 0.1861 0.43032 0.0
H658 H 0.90225 0.26607 0.43288 0.0
H659 H 0.88173 0.22372 0.43095 0.0
H660 H 0.79672 0.16367 0.43058 0.0
H661 H 0.83689 0.18562 0.42152 0.0
H662 H 0.80604 0.30223 0.46606 0.0
H663 H 0.84793 0.32281 0.46106 0.0
H664 H 0.76975 0.25784 0.47768 0.0
H665 H 0.74763 0.21662 0.47089 0.0
C666 C 0.96881 0.48646 0.26192 0.0
C667 C 0.94282 0.45924 0.25139 0.0
C668 C 0.92113 0.49364 0.23838 0.0
C669 C 0.94382 0.5192 0.25182 0.0
N670 N 0.98986 0.54132 0.27607 0.0
N671 N 0.89493 0.43616 0.22883 0.0
C672 C 0.96828 0.51624 0.26319 0.0
C673 C 0.91943 0.46275 0.23909 0.0
N674 N 0.99367 0.48356 0.27089 0.0
N675 N 0.90131 0.49912 0.225 0.0
H676 H 0.8941 0.41372 0.22818 0.0
H677 H 0.87487 0.43582 0.22164 0.0
H678 H 0.90228 0.52162 0.22426 0.0
H679 H 0.88591 0.48254 0.21346 0.0
H680 H 0.01481 0.50305 0.27725 0.0
H681 H 0.99434 0.46185 0.27046 0.0
H682 H 0.00581 0.53956 0.28686 0.0
H683 H 0.99087 0.56385 0.27665 0.0
C684 C 0.57977 0.51511 0.25893 0.0
C685 C 0.60844 0.51619 0.25096 0.0
C686 C 0.57721 0.4582 0.24146 0.0
C687 C 0.54888 0.45664 0.25052 0.0
N688 N 0.52076 0.48416 0.26317 0.0
N689 N 0.63365 0.49207 0.2299 0.0
C690 C 0.54933 0.48543 0.25751 0.0
C691 C 0.60681 0.4887 0.24062 0.0
N692 N 0.58206 0.54188 0.26909 0.0
N693 N 0.57591 0.43021 0.23432 0.0
H694 H 0.65548 0.51432 0.22896 0.0
H695 H 0.63366 0.47385 0.22046 0.0
H696 H 0.55411 0.40794 0.23343 0.0
H697 H 0.59633 0.42865 0.22995 0.0
H698 H 0.56303 0.54172 0.27766 0.0
H699 H 0.60377 0.56422 0.26986 0.0
H700 H 0.51883 0.50468 0.2665 0.0
H701 H 0.49826 0.46262 0.26294 0.0
C702 C 0.54645 0.0938 0.25219 0.0
C703 C 0.54606 0.12267 0.24653 0.0
C704 C 0.60311 0.14811 0.2346 0.0
C705 C 0.60508 0.12177 0.2439 0.0
N706 N 0.57922 0.06906 0.26126 0.0
N707 N 0.57261 0.17664 0.23105 0.0
C708 C 0.57671 0.09406 0.25213 0.0
C709 C 0.57392 0.14949 0.23704 0.0
N710 N 0.51804 0.06648 0.25807 0.0
N711 N 0.62928 0.17162 0.22336 0.0
H712 H 0.55099 0.17752 0.23134 0.0
H713 H 0.59292 0.19862 0.22649 0.0
H714 H 0.65073 0.17075 0.2212 0.0
H715 H 0.62892 0.19028 0.21465 0.0
H716 H 0.51596 0.04374 0.26044 0.0
H717 H 0.49572 0.06586 0.2589 0.0
H718 H 0.56058 0.05006 0.27002 0.0
H719 H 0.60074 0.06805 0.26099 0.0
C720 C 0.45865 0.91299 0.78214 0.0
C721 C 0.45789 0.9407 0.77405 0.0
C722 C 0.51662 0.96803 0.76624 0.0
C723 C 0.51699 0.9397 0.7734 0.0
N724 N 0.49144 0.88892 0.79297 0.0
N725 N 0.48661 0.99716 0.76307 0.0
C726 C 0.48889 0.91335 0.78295 0.0
C727 C 0.48716 0.96921 0.76783 0.0
N728 N 0.43021 0.88604 0.78848 0.0
N729 N 0.54383 0.99286 0.75666 0.0
H730 H 0.46529 0.99851 0.76336 0.0
H731 H 0.5075 0.01967 0.76045 0.0
H732 H 0.56599 0.99314 0.7557 0.0
H733 H 0.5442 0.0124 0.74865 0.0
H734 H 0.42814 0.86357 0.79199 0.0
H735 H 0.40807 0.88583 0.78949 0.0
H736 H 0.47273 0.87025 0.80189 0.0
H737 H 0.51345 0.88888 0.79391 0.0
C738 C 0.09946 0.54943 0.76635 0.0
C739 C 0.12766 0.5485 0.77311 0.0
C740 C 0.15403 0.60621 0.78355 0.0
C741 C 0.12822 0.60835 0.77354 0.0
N742 N 0.07624 0.58283 0.75528 0.0
N743 N 0.18132 0.57483 0.78902 0.0
C744 C 0.10051 0.58003 0.76531 0.0
C745 C 0.15468 0.57651 0.78223 0.0
N746 N 0.07197 0.52116 0.76054 0.0
N747 N 0.17768 0.63262 0.79447 0.0
H748 H 0.18166 0.55295 0.78956 0.0
H749 H 0.20345 0.59506 0.79338 0.0
H750 H 0.17747 0.65451 0.79577 0.0
H751 H 0.19583 0.63218 0.80373 0.0
H752 H 0.04958 0.51955 0.75743 0.0
H753 H 0.07076 0.49855 0.76042 0.0
H754 H 0.05736 0.56412 0.74653 0.0
H755 H 0.07581 0.60464 0.75471 0.0
C756 C 0.48438 0.54712 0.76516 0.0
C757 C 0.45574 0.54611 0.77313 0.0
C758 C 0.48791 0.60348 0.78418 0.0
C759 C 0.51523 0.60578 0.77311 0.0
N760 N 0.54053 0.58065 0.75304 0.0
N761 N 0.4295 0.57211 0.791 0.0
C762 C 0.51399 0.57766 0.76397 0.0
C763 C 0.4574 0.57389 0.78313 0.0
N764 N 0.48306 0.51895 0.75843 0.0
N765 N 0.49143 0.62966 0.79579 0.0
H766 H 0.40722 0.55028 0.79162 0.0
H767 H 0.42799 0.59224 0.79617 0.0
H768 H 0.51365 0.65149 0.79684 0.0
H769 H 0.47339 0.62906 0.80577 0.0
H770 H 0.50353 0.51732 0.75431 0.0
H771 H 0.46156 0.49639 0.75854 0.0
H772 H 0.54018 0.56219 0.74368 0.0
H773 H 0.56285 0.6024 0.75244 0.0
C774 C 0.6329 0.81621 0.59944 0.0
C775 C 0.60975 0.78985 0.5867 0.0
C776 C 0.59018 0.82476 0.57129 0.0
C777 C 0.6095 0.84918 0.5866 0.0
N778 N 0.65004 0.86962 0.61487 0.0
N779 N 0.56711 0.76825 0.5599 0.0
C780 C 0.63152 0.84554 0.60034 0.0
C781 C 0.58895 0.79407 0.57214 0.0
N782 N 0.65605 0.81298 0.61067 0.0
N783 N 0.57296 0.83102 0.55611 0.0
H784 H 0.56668 0.74598 0.55958 0.0
H785 H 0.54867 0.76828 0.55073 0.0
H786 H 0.57342 0.85328 0.55534 0.0
H787 H 0.56034 0.81543 0.54333 0.0
H788 H 0.67543 0.83201 0.61888 0.0
H789 H 0.65743 0.79165 0.61031 0.0
H790 H 0.66366 0.8671 0.62718 0.0
H791 H 0.65077 0.89203 0.61517 0.0
C792 C 0.23889 0.79828 0.57116 0.0
C793 C 0.21411 0.79273 0.58632 0.0
C794 C 0.24652 0.84891 0.59954 0.0
C795 C 0.27326 0.8525 0.58702 0.0
N796 N 0.29563 0.83219 0.56025 0.0
N797 N 0.1928 0.81212 0.61449 0.0
C798 C 0.26948 0.82782 0.57231 0.0
C799 C 0.21725 0.8181 0.60013 0.0
N800 N 0.23306 0.77511 0.55585 0.0
N801 N 0.24938 0.87504 0.61089 0.0
H802 H 0.17048 0.79031 0.61459 0.0
H803 H 0.19491 0.82803 0.62684 0.0
H804 H 0.27067 0.89781 0.61073 0.0
H805 H 0.23011 0.87511 0.61898 0.0
H806 H 0.24896 0.77839 0.54318 0.0
H807 H 0.21083 0.75329 0.55484 0.0
H808 H 0.29591 0.81395 0.55099 0.0
H809 H 0.31785 0.85411 0.56014 0.0
C810 C 0.27529 0.48333 0.57451 0.0
C811 C 0.27655 0.45667 0.58392 0.0
C812 C 0.21734 0.42826 0.59009 0.0
C813 C 0.21724 0.45717 0.58412 0.0
N814 N 0.24494 0.5118 0.56967 0.0
N815 N 0.24955 0.40348 0.60064 0.0
C816 C 0.24584 0.48447 0.57577 0.0
C817 C 0.24764 0.42869 0.59127 0.0
N818 N 0.3023 0.50733 0.56422 0.0
N819 N 0.18855 0.40069 0.59499 0.0
H820 H 0.27116 0.40266 0.6013 0.0
H821 H 0.23026 0.38416 0.60875 0.0
H822 H 0.16613 0.39992 0.59486 0.0
H823 H 0.1864 0.37794 0.59751 0.0
H824 H 0.30252 0.52619 0.5554 0.0
H825 H 0.32403 0.50678 0.56295 0.0
H826 H 0.26558 0.53401 0.56597 0.0
H827 H 0.22329 0.5126 0.56906 0.0
C828 C 0.02135 0.34809 0.16788 0.0
C829 C 0.9998 0.31791 0.15775 0.0
C830 C 0.96311 0.30158 0.18909 0.0
C831 C 0.98582 0.33048 0.20008 0.0
N832 N 0.03826 0.37968 0.20128 0.0
N833 N 0.95412 0.26299 0.16056 0.0
C834 C 0.01545 0.35342 0.18983 0.0
C835 C 0.97183 0.29382 0.1689 0.0
N836 N 0.04682 0.37187 0.15632 0.0
N837 N 0.93248 0.28219 0.19743 0.0
H838 H 0.9598 0.25599 0.14591 0.0
H839 H 0.93576 0.24347 0.16918 0.0
H840 H 0.9246 0.28718 0.21197 0.0
H841 H 0.91376 0.26295 0.18889 0.0
H842 H 0.06149 0.39562 0.1619 0.0
H843 H 0.05198 0.36838 0.14041 0.0
H844 H 0.06169 0.39557 0.19557 0.0
H845 H 0.03449 0.38427 0.21726 0.0
C846 C 0.76806 0.70383 0.16889 0.0
C847 C 0.74527 0.70968 0.15767 0.0
C848 C 0.71017 0.69323 0.19007 0.0
C849 C 0.73182 0.685 0.20052 0.0
N850 N 0.77772 0.67602 0.19836 0.0
N851 N 0.69302 0.70679 0.1563 0.0
C852 C 0.75972 0.68846 0.18948 0.0
C853 C 0.71585 0.7036 0.16793 0.0
N854 N 0.79841 0.7143 0.1603 0.0
N855 N 0.68479 0.69194 0.20151 0.0
H856 H 0.69665 0.71457 0.14018 0.0
H857 H 0.66969 0.69965 0.16204 0.0
H858 H 0.6798 0.6839 0.21756 0.0
H859 H 0.67003 0.70076 0.19566 0.0
H860 H 0.81732 0.7142 0.1689 0.0
H861 H 0.8059 0.72605 0.14535 0.0
H862 H 0.79593 0.67435 0.18993 0.0
H863 H 0.77253 0.66446 0.21344 0.0
C864 C 0.36114 0.04289 0.1684 0.0
C865 C 0.3542 0.06551 0.158 0.0
C866 C 0.37399 0.10134 0.18975 0.0
C867 C 0.37848 0.07763 0.20091 0.0
N868 N 0.37351 0.02449 0.20212 0.0
N869 N 0.34758 0.11284 0.16027 0.0
C870 C 0.37136 0.04799 0.19057 0.0
C871 C 0.35883 0.09377 0.16911 0.0
N872 N 0.35883 0.01715 0.1569 0.0
N873 N 0.38547 0.13173 0.19848 0.0
H874 H 0.33615 0.10822 0.14519 0.0
H875 H 0.34676 0.13145 0.16875 0.0
H876 H 0.39706 0.1386 0.21351 0.0
H877 H 0.38637 0.15118 0.18996 0.0
H878 H 0.36666 1.00156 0.16273 0.0
H879 H 0.35096 0.01262 0.14082 0.0
H880 H 0.36558 1.00104 0.19633 0.0
H881 H 0.38133 0.0278 0.21822 0.0
C882 C 0.35449 0.99268 0.86556 0.0
C883 C 0.34403 0.0156 0.86909 0.0
C884 C 0.34864 0.02626 0.82975 0.0
C885 C 0.34962 0.99703 0.82638 0.0
N886 N 0.35094 0.95058 0.8419 0.0
N887 N 0.34122 0.06167 0.85474 0.0
C888 C 0.35247 0.98001 0.84446 0.0
C889 C 0.34434 0.03489 0.85123 0.0
N890 N 0.36731 0.98377 0.88227 0.0
N891 N 0.35318 0.04629 0.81249 0.0
H892 H 0.34579 0.07313 0.86978 0.0
H893 H 0.33551 0.07334 0.84263 0.0
H894 H 0.3577 0.04119 0.79683 0.0
H895 H 0.35531 0.06919 0.81382 0.0
H896 H 0.37747 0.96884 0.88018 0.0
H897 H 0.37188 0.99509 0.89741 0.0
H898 H 0.3496 0.93601 0.855 0.0
H899 H 0.34766 0.93907 0.82697 0.0
C900 C 0.10175 0.37355 0.83452 0.0
C901 C 0.07798 0.37823 0.82364 0.0
C902 C 0.0435 0.36052 0.85632 0.0
C903 C 0.06614 0.35331 0.86639 0.0
N904 N 0.11318 0.34626 0.86349 0.0
N905 N 0.02488 0.37346 0.82292 0.0
C906 C 0.09424 0.35793 0.85503 0.0
C907 C 0.04844 0.37104 0.83421 0.0
N908 N 0.13213 0.38521 0.82563 0.0
N909 N 0.01789 0.35813 0.86807 0.0
H910 H 0.02813 0.3816 0.80688 0.0
H911 H 1.00148 0.36549 0.82886 0.0
H912 H 0.01344 0.34995 0.8841 0.0
H913 H 1.00231 0.36612 0.86249 0.0
H914 H 0.15157 0.38579 0.83395 0.0
H915 H 0.13899 0.39734 0.81075 0.0
H916 H 0.13176 0.34563 0.85481 0.0
H917 H 0.10839 0.33422 0.87837 0.0
C918 C 0.69098 0.75992 0.83554 0.0
C919 C 0.68692 0.73179 0.82456 0.0
C920 C 0.70633 0.71601 0.85684 0.0
C921 C 0.71287 0.74558 0.86703 0.0
N922 N 0.71767 0.79877 0.86445 0.0
N923 N 0.69353 0.68458 0.82343 0.0
C924 C 0.70688 0.76836 0.85594 0.0
C925 C 0.69529 0.71014 0.83486 0.0
N926 N 0.67857 0.77805 0.82682 0.0
N927 N 0.70972 0.69322 0.8684 0.0
H928 H 0.68506 0.67947 0.80748 0.0
H929 H 0.70241 0.66979 0.82913 0.0
H930 H 0.71801 0.69701 0.88439 0.0
H931 H 0.70227 0.66981 0.86275 0.0
H932 H 0.67726 0.79641 0.83528 0.0
H933 H 0.66675 0.77287 0.81187 0.0
H934 H 0.7175 0.81768 0.85589 0.0
H935 H 0.72971 0.80628 0.87929 0.0
C936 C 0.04498 0.7145 0.85755 0.0
C937 C 0.06646 0.74495 0.86737 0.0
C938 C 0.10215 0.76144 0.83553 0.0
C939 C 0.07948 0.73217 0.82488 0.0
N940 N 0.02762 0.68228 0.82441 0.0
N941 N 0.11144 0.80017 0.86404 0.0
C942 C 0.05038 0.70898 0.83553 0.0
C943 C 0.09385 0.76922 0.85585 0.0
N944 N 0.02002 0.6907 0.86944 0.0
N945 N 0.13238 0.78117 0.82671 0.0
H946 H 0.10607 0.80712 0.87883 0.0
H947 H 0.12934 0.81976 0.85522 0.0
H948 H 0.13995 0.77618 0.81204 0.0
H949 H 0.15117 0.80077 0.83496 0.0
H950 H 0.00545 0.66681 0.86408 0.0
H951 H 0.01516 0.69441 0.88538 0.0
H952 H 0.00448 0.66607 0.83044 0.0
H953 H 0.03112 0.67753 0.80841 0.0
C954 C 0.34885 0.3536 0.82831 0.0
C955 C 0.34936 0.38351 0.82459 0.0
C956 C 0.35417 0.39341 0.8637 0.0
C957 C 0.34414 0.36019 0.86757 0.0
N958 N 0.34195 0.31137 0.85374 0.0
N959 N 0.34969 0.43104 0.83963 0.0
C960 C 0.34468 0.34104 0.84992 0.0
C961 C 0.35184 0.40353 0.84248 0.0
N962 N 0.35375 0.33803 0.81128 0.0
N963 N 0.36693 0.41552 0.88018 0.0
H964 H 0.34602 0.4388 0.82462 0.0
H965 H 0.34814 0.44434 0.8526 0.0
H966 H 0.37189 0.40926 0.89538 0.0
H967 H 0.37675 0.44054 0.87782 0.0
H968 H 0.35625 0.3175 0.81287 0.0
H969 H 0.35824 0.3474 0.79553 0.0
H970 H 0.33643 0.29384 0.84179 0.0
H971 H 0.34661 0.30483 0.86889 0.0
C972 C 0.70662 0.0218 0.85644 0.0
C973 C 0.71364 0.99924 0.86687 0.0
C974 C 0.69191 0.96241 0.8357 0.0
C975 C 0.68758 0.98611 0.82441 0.0
N976 N 0.69358 0.03966 0.82276 0.0
N977 N 0.7197 0.95155 0.86457 0.0
C978 C 0.69562 0.0162 0.83444 0.0
C979 C 0.70814 0.9705 0.85598 0.0
N980 N 0.70958 0.04795 0.86777 0.0
N981 N 0.67938 0.93161 0.82743 0.0
H982 H 0.73236 0.95681 0.87921 0.0
H983 H 0.71966 0.93245 0.85615 0.0
H984 H 0.66684 0.92435 0.81273 0.0
H985 H 0.67855 0.91232 0.83612 0.0
H986 H 0.70175 0.06354 0.86193 0.0
H987 H 0.71789 0.05279 0.88375 0.0
H988 H 0.70221 0.06337 0.82828 0.0
H989 H 0.68512 0.03599 0.8068 0.0
C990 C 0.71832 0.04271 0.16958 0.0
C991 C 0.748 0.06467 0.159 0.0
C992 C 0.76527 0.10083 0.19061 0.0
C993 C 0.73676 0.07786 0.20192 0.0
N994 N 0.68782 0.02528 0.20348 0.0
N995 N 0.80269 0.11093 0.16102 0.0
C996 C 0.71365 0.0483 0.19175 0.0
C997 C 0.77231 0.09264 0.16999 0.0
N998 N 0.69432 0.01718 0.15824 0.0
N999 N 0.78496 0.13127 0.19907 0.0
H1000 H 0.80903 0.10597 0.14588 0.0
H1001 H 0.82254 0.12917 0.16942 0.0
H1002 H 0.78075 0.13874 0.21403 0.0
H1003 H 0.80374 0.15027 0.19036 0.0
H1004 H 0.67083 0.00216 0.16419 0.0
H1005 H 0.69732 0.0123 0.14216 0.0
H1006 H 0.67179 0.0019 0.1978 0.0
H1007 H 0.68376 0.02884 0.21963 0.0
C1008 C 0.02283 0.70536 0.16901 0.0
C1009 C 1.00157 0.71443 0.15893 0.0
C1010 C 0.96585 0.69611 0.19081 0.0
C1011 C 0.9883 0.68938 0.20167 0.0
N1012 N 0.0399 0.6908 0.20243 0.0
N1013 N 0.95673 0.72495 0.16177 0.0
C1014 C 0.0173 0.6948 0.19112 0.0
C1015 C 0.97421 0.71167 0.17029 0.0
N1016 N 0.04767 0.70602 0.15727 0.0
N1017 N 0.93578 0.68627 0.19965 0.0
H1018 H 0.96199 0.73672 0.14677 0.0
H1019 H 0.93898 0.72708 0.17044 0.0
H1020 H 0.92827 0.67437 0.21456 0.0
H1021 H 0.91703 0.68702 0.19129 0.0
H1022 H 0.06204 0.69657 0.16284 0.0
H1023 H 0.05257 0.7142 0.14125 0.0
H1024 H 0.06299 0.69742 0.19647 0.0
H1025 H 0.03637 0.68288 0.21852 0.0
C1026 C 0.36421 0.35223 0.16749 0.0
C1027 C 0.35345 0.3214 0.15768 0.0
C1028 C 0.36907 0.30247 0.19007 0.0
C1029 C 0.37755 0.33234 0.20065 0.0
N1030 N 0.37964 0.38425 0.20071 0.0
N1031 N 0.33918 0.26496 0.16105 0.0
C1032 C 0.37422 0.35694 0.18969 0.0
C1033 C 0.35395 0.29588 0.16942 0.0
N1034 N 0.36558 0.37712 0.15542 0.0
N1035 N 0.37702 0.281 0.19922 0.0
H1036 H 0.32789 0.25899 0.1459 0.0
H1037 H 0.33541 0.24463 0.16995 0.0
H1038 H 0.38879 0.28496 0.21413 0.0
H1039 H 0.37493 0.26076 0.19108 0.0
H1040 H 0.37636 0.40115 0.16079 0.0
H1041 H 0.35765 0.37405 0.13935 0.0
H1042 H 0.37459 0.40166 0.1944 0.0
H1043 H 0.38701 0.38835 0.2169 0.0
C1044 C 0.68522 0.66472 0.53105 0.0
C1045 C 0.66444 0.67803 0.53388 0.0
C1046 C 0.66548 0.68534 0.49445 0.0
C1047 C 0.67808 0.66395 0.49164 0.0
N1048 N 0.6959 0.62922 0.50895 0.0
N1049 N 0.63082 0.69723 0.51659 0.0
C1050 C 0.68743 0.65286 0.51033 0.0
C1051 C 0.65382 0.68789 0.51519 0.0
N1052 N 0.70287 0.66335 0.54812 0.0
N1053 N 0.6646 0.70324 0.47735 0.0
H1054 H 0.61945 0.69762 0.53091 0.0
H1055 H 0.62037 0.7013 0.50292 0.0
H1056 H 0.6744 0.70307 0.46221 0.0
H1057 H 0.65792 0.72105 0.47904 0.0
H1058 H 0.72025 0.65609 0.54641 0.0
H1059 H 0.70299 0.67329 0.56326 0.0
H1060 H 0.69959 0.61851 0.52263 0.0
H1061 H 0.69586 0.61761 0.49465 0.0
C1062 C 0.38382 0.03924 0.50254 0.0
C1063 C 0.41338 0.04585 0.49222 0.0
C1064 C 0.42788 0.02395 0.52362 0.0
C1065 C 0.39998 0.02017 0.53482 0.0
N1066 N 0.35284 0.02693 0.53618 0.0
N1067 N 0.46687 0.05126 0.49483 0.0
C1068 C 0.37822 0.02847 0.5246 0.0
C1069 C 0.43631 0.04005 0.50328 0.0
N1070 N 0.36081 0.04232 0.49105 0.0
N1071 N 0.44577 0.01108 0.53206 0.0
H1072 H 0.47455 0.06384 0.48016 0.0
H1073 H 0.48574 0.05102 0.50339 0.0
H1074 H 0.44027 0.99864 0.54681 0.0
H1075 H 0.46408 0.00986 0.52344 0.0
H1076 H 0.33742 0.03479 0.49684 0.0
H1077 H 0.36438 0.05037 0.47499 0.0
H1078 H 0.33803 0.03579 0.5305 0.0
H1079 H 0.34793 0.01867 0.55218 0.0
C1080 C 0.05343 0.40226 0.49306 0.0
C1081 C 0.01934 0.38935 0.49042 0.0
C1082 C 0.0134 0.38301 0.52992 0.0
C1083 C 0.0476 0.40352 0.53252 0.0
N1084 N 0.10015 0.43724 0.51496 0.0
N1085 N 0.96708 0.37231 0.50791 0.0
C1086 C 0.06784 0.4141 0.51371 0.0
C1087 C 0.99915 0.38054 0.50923 0.0
N1088 N 0.07213 0.40313 0.4759 0.0
N1089 N 0.99445 0.36577 0.54716 0.0
H1090 H 0.95558 0.37249 0.4936 0.0
H1091 H 0.95278 0.36888 0.52162 0.0
H1092 H 0.00434 0.36578 0.5623 0.0
H1093 H 0.96973 0.34854 0.54562 0.0
H1094 H 0.09669 0.41001 0.47749 0.0
H1095 H 0.06209 0.39317 0.46082 0.0
H1096 H 0.11457 0.44764 0.50123 0.0
H1097 H 0.11189 0.44882 0.52924 0.0
C1098 C 0.38181 0.42035 0.51453 0.0
C1099 C 0.38425 0.40257 0.53231 0.0
C1100 C 0.38928 0.36528 0.50677 0.0
C1101 C 0.38994 0.38525 0.48924 0.0
N1102 N 0.36715 0.41789 0.47677 0.0
N1103 N 0.38001 0.3526 0.54534 0.0
C1104 C 0.37977 0.4083 0.49323 0.0
C1105 C 0.38491 0.37329 0.52843 0.0
N1106 N 0.38376 0.44988 0.51757 0.0
N1107 N 0.39208 0.33843 0.50279 0.0
H1108 H 0.37541 0.35724 0.56111 0.0
H1109 H 0.37763 0.32964 0.54363 0.0
H1110 H 0.3875 0.32745 0.48757 0.0
H1111 H 0.39754 0.32623 0.51465 0.0
H1112 H 0.38537 0.46493 0.50469 0.0
H1113 H 0.38717 0.461 0.53265 0.0
H1114 H 0.35722 0.43296 0.4792 0.0
H1115 H 0.36245 0.40698 0.46149 0.0
C1116 C 0.67853 0.02223 0.52157 0.0
C1117 C 0.64923 0.01534 0.53236 0.0
C1118 C 0.63226 0.03476 0.50084 0.0
C1119 C 0.66031 0.03944 0.48933 0.0
N1120 N 0.7084 0.03436 0.48746 0.0
N1121 N 0.59511 0.00844 0.53073 0.0
C1122 C 0.68306 0.03232 0.49935 0.0
C1123 C 0.62523 0.01971 0.52154 0.0
N1124 N 0.70232 0.02009 0.53275 0.0
N1125 N 0.61302 0.04613 0.49246 0.0
H1126 H 0.58877 0.99727 0.54591 0.0
H1127 H 0.57537 0.00734 0.52246 0.0
H1128 H 0.61721 0.05763 0.47742 0.0
H1129 H 0.59468 0.04701 0.50128 0.0
H1130 H 0.7256 0.02794 0.52662 0.0
H1131 H 0.69944 0.01237 0.54887 0.0
H1132 H 0.72407 0.02647 0.49303 0.0
H1133 H 0.71238 0.04188 0.47128 0.0
C1134 C 0.02032 0.62513 0.50387 0.0
C1135 C 0.01729 0.64952 0.49246 0.0
C1136 C 0.03764 0.68539 0.52434 0.0
C1137 C 0.04351 0.6621 0.53485 0.0
N1138 N 0.04694 0.61287 0.53277 0.0
N1139 N 0.02567 0.70399 0.49056 0.0
C1140 C 0.03658 0.63278 0.52412 0.0
C1141 C 0.02658 0.68 0.50236 0.0
N1142 N 0.00667 0.59418 0.49567 0.0
N1143 N 0.04168 0.71205 0.53556 0.0
H1144 H 0.01714 0.70047 0.47463 0.0
H1145 H 0.03528 0.72789 0.49597 0.0
H1146 H 0.04986 0.71666 0.55157 0.0
H1147 H 0.03475 0.72829 0.52963 0.0
H1148 H 0.00483 0.5745 0.50445 0.0
H1149 H 0.99428 0.58732 0.48091 0.0
H1150 H 0.04594 0.59326 0.52441 0.0
H1151 H 0.05956 0.61768 0.5474 0.0
C1152 C 0.06257 0.33124 0.02503 0.0
C1153 C 0.03167 0.31196 0.03493 0.0
C1154 C 0.00538 0.30099 0.99922 0.0
C1155 C 0.03651 0.31486 0.98931 0.0
N1156 N 0.09526 0.34315 0.9924 0.0
N1157 N 0.97316 0.27787 0.03179 0.0
C1158 C 0.06533 0.33069 1.00207 0.0
C1159 C 1.00279 0.29727 0.02217 0.0
N1160 N 0.0892 0.34983 0.03773 0.0
N1161 N 0.97835 0.29121 0.98656 0.0
H1162 H 0.97007 0.27492 0.04854 0.0
H1163 H 0.95182 0.26318 0.02317 0.0
H1164 H 0.97982 0.29377 0.9697 0.0
H1165 H 0.95513 0.28352 0.99275 0.0
H1166 H 0.11203 0.36669 0.03157 0.0
H1167 H 0.08757 0.35053 0.0546 0.0
H1168 H 0.11691 0.35124 1.00098 0.0
H1169 H 0.0984 0.34375 0.97564 0.0
C1170 C 0.73612 0.76492 1.00193 0.0
C1171 C 0.75151 0.75131 0.9893 0.0
C1172 C 0.76686 0.73336 0.0223 0.0
C1173 C 0.75266 0.74816 0.03494 0.0
N1174 N 0.716 0.76931 0.03733 0.0
N1175 N 0.77291 0.71487 0.98673 0.0
C1176 C 0.73451 0.76088 0.02485 0.0
C1177 C 0.76387 0.73278 0.99932 0.0
N1178 N 0.7252 0.7837 0.99227 0.0
N1179 N 0.7852 0.72201 0.03207 0.0
H1180 H 0.7708 0.71413 0.96985 0.0
H1181 H 0.77943 0.69848 0.99299 0.0
H1182 H 0.78766 0.72148 0.04884 0.0
H1183 H 0.79957 0.71483 0.02355 0.0
H1184 H 0.71761 0.79764 1.00089 0.0
H1185 H 0.7255 0.78703 0.97554 0.0
H1186 H 0.69985 0.77607 0.03096 0.0
H1187 H 0.71453 0.76646 0.05417 0.0
C1188 C 0.29972 1.00176 1.00182 0.0
C1189 C 0.31512 0.0309 0.98929 0.0
C1190 C 0.33319 0.06377 0.02244 0.0
C1191 C 0.3169 0.03468 0.03497 0.0
N1192 N 0.29284 0.97644 0.03721 0.0
N1193 N 0.35371 0.08832 0.98709 0.0
C1194 C 0.30302 0.00379 0.02479 0.0
C1195 C 0.33441 0.06149 0.99949 0.0
N1196 N 0.28007 0.97244 0.99196 0.0
N1197 N 0.3454 0.09351 0.03226 0.0
H1198 H 0.35493 0.08708 0.97023 0.0
H1199 H 0.37067 0.11086 0.99353 0.0
H1200 H 0.34542 0.09641 0.04902 0.0
H1201 H 0.35375 0.11529 0.02376 0.0
H1202 H 0.26495 0.95104 1.00042 0.0
H1203 H 0.27726 0.96974 0.97519 0.0
H1204 H 0.28513 0.95337 0.03079 0.0
H1205 H 0.29514 0.97749 0.05408 0.0
C1206 C 0.06612 0.766 1.00298 0.0
C1207 C 0.03723 0.75281 0.99027 0.0
C1208 C 0.00361 0.73586 0.02316 0.0
C1209 C 0.03253 0.75031 0.03589 0.0
N1210 N 0.09016 0.77052 0.03856 0.0
N1211 N 0.97919 0.7175 0.98755 0.0
C1212 C 0.06343 0.76236 0.02593 0.0
C1213 C 0.00617 0.73499 1.00021 0.0
N1214 N 0.09598 0.78398 0.99332 0.0
N1215 N 0.97392 0.72515 0.03283 0.0
H1216 H 0.98066 0.7166 0.97069 0.0
H1217 H 0.95607 0.7016 0.99376 0.0
H1218 H 0.97083 0.7248 0.04958 0.0
H1219 H 0.95251 0.71829 0.02423 0.0
H1220 H 0.11759 0.79766 1.00192 0.0
H1221 H 0.09909 0.78684 0.97657 0.0
H1222 H 0.11304 0.77682 0.03234 0.0
H1223 H 0.08856 0.76793 0.05541 0.0
C1224 C 0.30653 0.33401 0.02378 0.0
C1225 C 0.3191 0.31581 0.034 0.0
C1226 C 0.33491 0.30469 0.99848 0.0
C1227 C 0.31666 0.31724 0.9883 0.0
N1228 N 0.28442 0.34372 0.99099 0.0
N1229 N 0.34497 0.28299 0.03134 0.0
C1230 C 0.3029 0.3326 1.00082 0.0
C1231 C 0.33395 0.30154 0.02147 0.0
N1232 N 0.29788 0.35242 0.03617 0.0
N1233 N 0.35297 0.29563 0.98604 0.0
H1234 H 0.34523 0.28042 0.04812 0.0
H1235 H 0.35211 0.26855 0.02289 0.0
H1236 H 0.35401 0.29783 0.96917 0.0
H1237 H 0.36919 0.28898 0.99244 0.0
H1238 H 0.29121 0.36859 0.02973 0.0
H1239 H 0.30045 0.35375 0.05302 0.0
H1240 H 0.27033 0.35128 0.99947 0.0
H1241 H 0.28153 0.34366 0.97423 0.0
C1242 C 0.76348 0.06143 1.00004 0.0
C1243 C 0.7513 0.03075 0.9898 0.0
C1244 C 0.73469 0.00357 0.02523 0.0
C1245 C 0.75268 0.03431 0.0355 0.0
N1246 N 0.78468 0.09307 0.03297 0.0
N1247 N 0.72531 0.97204 0.99237 0.0
C1248 C 0.76655 0.06351 0.02303 0.0
C1249 C 0.73614 1.00154 1.00227 0.0
N1250 N 0.77233 0.08855 0.98764 0.0
N1251 N 0.71649 0.97637 0.0376 0.0
H1252 H 0.72542 0.96933 0.97561 0.0
H1253 H 0.71791 0.95037 1.00081 0.0
H1254 H 0.71514 0.97747 0.05446 0.0
H1255 H 0.70047 0.95351 0.03114 0.0
H1256 H 0.77875 0.11133 0.99405 0.0
H1257 H 0.77018 0.08742 0.97076 0.0
H1258 H 0.79884 0.1148 0.02458 0.0
H1259 H 0.78714 0.09578 0.04975 0.0
C1260 C 0.72734 0.6637 0.33636 0.0
C1261 C 0.69865 0.64763 0.32349 0.0
C1262 C 0.66464 0.63026 0.35624 0.0
C1263 C 0.69339 0.64506 0.3691 0.0
N1264 N 0.75077 0.68346 0.37204 0.0
N1265 N 0.64052 0.62405 0.3205 0.0
C1266 C 0.72432 0.6645 0.35929 0.0
C1267 C 0.66743 0.63387 0.33329 0.0
N1268 N 0.7574 0.67605 0.32691 0.0
N1269 N 0.63494 0.61087 0.36578 0.0
H1270 H 0.64217 0.62661 0.30364 0.0
H1271 H 0.61724 0.61638 0.32659 0.0
H1272 H 0.63175 0.60804 0.38252 0.0
H1273 H 0.61368 0.59612 0.35709 0.0
H1274 H 0.77892 0.68425 0.33567 0.0
H1275 H 0.76082 0.67643 0.31019 0.0
H1276 H 0.77357 0.70047 0.3659 0.0
H1277 H 0.74895 0.68435 0.38888 0.0
C1278 C 0.40223 0.09638 0.3594 0.0
C1279 C 0.42106 0.08442 0.36949 0.0
C1280 C 0.43099 0.06761 0.33396 0.0
C1281 C 0.41788 0.08536 0.32379 0.0
N1282 N 0.39148 0.1177 0.32665 0.0
N1283 N 0.45418 0.0589 0.36658 0.0
C1284 C 0.40289 0.09941 0.33641 0.0
C1285 C 0.43506 0.06937 0.35689 0.0
N1286 N 0.3839 0.10499 0.37193 0.0
N1287 N 0.43972 0.04927 0.32155 0.0
H1288 H 0.45754 0.05934 0.38331 0.0
H1289 H 0.46836 0.05156 0.35798 0.0
H1290 H 0.43682 0.04765 0.30473 0.0
H1291 H 0.44675 0.03337 0.328 0.0
H1292 H 0.36727 0.11113 0.3656 0.0
H1293 H 0.38306 0.10285 0.38881 0.0
H1294 H 0.3842 0.13196 0.33519 0.0
H1295 H 0.39112 0.12037 0.30989 0.0
C1296 C 0.969 0.3365 0.3581 0.0
C1297 C 0.98091 0.36731 0.36814 0.0
C1298 C 0.99538 0.39374 0.33241 0.0
C1299 C 0.97755 0.36273 0.32246 0.0
N1300 N 0.94651 0.30398 0.32566 0.0
N1301 N 0.00483 0.42581 0.36498 0.0
C1302 C 0.96474 0.33385 0.33519 0.0
C1303 C 0.99468 0.39623 0.35537 0.0
N1304 N 0.96162 0.30983 0.37061 0.0
N1305 N 0.0128 0.4208 0.31976 0.0
H1306 H 0.00504 0.42894 0.38171 0.0
H1307 H 0.01113 0.44705 0.35631 0.0
H1308 H 0.0137 0.41944 0.30289 0.0
H1309 H 0.02874 0.44385 0.326 0.0
H1310 H 0.95558 0.28712 0.36424 0.0
H1311 H 0.9647 0.31135 0.38742 0.0
H1312 H 0.93313 0.28241 0.33438 0.0
H1313 H 0.94304 0.30082 0.30896 0.0
C1314 C 0.69398 0.12071 0.35661 0.0
C1315 C 0.69544 0.09583 0.36853 0.0
C1316 C 0.69762 0.07106 0.3339 0.0
C1317 C 0.70144 0.09904 0.32263 0.0
N1318 N 0.7158 0.15579 0.32565 0.0
N1319 N 0.70394 0.04954 0.36823 0.0
C1320 C 0.70344 0.12549 0.33469 0.0
C1321 C 0.69871 0.07146 0.35712 0.0
N1322 N 0.68212 0.13899 0.36577 0.0
N1323 N 0.69186 0.04385 0.32266 0.0
H1324 H 0.70575 0.04967 0.38508 0.0
H1325 H 0.7095 0.03328 0.36059 0.0
H1326 H 0.69003 0.04238 0.3058 0.0
H1327 H 0.6859 0.02184 0.3302 0.0
H1328 H 0.67878 0.15587 0.35689 0.0
H1329 H 0.67153 0.13416 0.38115 0.0
H1330 H 0.71952 0.17605 0.33463 0.0
H1331 H 0.72639 0.16158 0.31027 0.0
C1332 C 0.99694 0.63115 0.35689 0.0
C1333 C 0.98261 0.64568 0.36967 0.0
C1334 C 0.96835 0.66507 0.33688 0.0
C1335 C 0.98129 0.64921 0.32407 0.0
N1336 N 0.01596 0.62576 0.32132 0.0
N1337 N 0.96361 0.68402 0.37261 0.0
C1338 C 0.99847 0.63527 0.33398 0.0
C1339 C 0.97147 0.66536 0.35984 0.0
N1340 N 0.00689 0.6115 0.36642 0.0
N1341 N 0.951 0.67768 0.32729 0.0
H1342 H 0.96581 0.68451 0.38948 0.0
H1343 H 0.95802 0.70117 0.3665 0.0
H1344 H 0.94846 0.67842 0.31054 0.0
H1345 H 0.93748 0.68576 0.33594 0.0
H1346 H 0.0136 0.59692 0.35772 0.0
H1347 H 0.00674 0.60824 0.38315 0.0
H1348 H 0.0314 0.61799 0.32754 0.0
H1349 H 0.01737 0.62868 0.30449 0.0
C1350 C 0.43412 0.39866 0.35621 0.0
C1351 C 0.41923 0.36974 0.36896 0.0
C1352 C 0.40153 0.33626 0.33605 0.0
C1353 C 0.41727 0.36515 0.32329 0.0
N1354 N 0.44036 0.42324 0.32061 0.0
N1355 N 0.38142 0.31214 0.37156 0.0
C1356 C 0.43072 0.39619 0.33325 0.0
C1357 C 0.40035 0.33889 0.35898 0.0
N1358 N 0.45337 0.42825 0.36586 0.0
N1359 N 0.38978 0.30641 0.32646 0.0
H1360 H 0.38019 0.31359 0.3884 0.0
H1361 H 0.36473 0.28939 0.36526 0.0
H1362 H 0.38972 0.30325 0.30973 0.0
H1363 H 0.38186 0.28485 0.33514 0.0
H1364 H 0.46813 0.44961 0.35724 0.0
H1365 H 0.45627 0.43127 0.3826 0.0
H1366 H 0.44769 0.44634 0.32684 0.0
H1367 H 0.43798 0.42188 0.30375 0.0
C1368 C 0.39498 1.00129 0.6935 0.0
C1369 C 0.36405 0.98282 0.70353 0.0
C1370 C 0.33769 0.97236 0.66787 0.0
C1371 C 0.36864 0.98488 0.65787 0.0
N1372 N 0.42735 0.01129 0.66094 0.0
N1373 N 0.30535 0.95015 0.70047 0.0
C1374 C 0.39757 1.00013 0.67057 0.0
C1375 C 0.33511 0.96883 0.69082 0.0
N1376 N 0.42184 0.01968 0.70607 0.0
N1377 N 0.3108 0.96357 0.65525 0.0
H1378 H 0.30222 0.9472 0.71721 0.0
H1379 H 0.28388 0.93595 0.69184 0.0
H1380 H 0.31231 0.96607 0.63839 0.0
H1381 H 0.28784 0.95691 0.66151 0.0
H1382 H 0.44475 0.03602 0.69977 0.0
H1383 H 0.42033 0.02086 0.72292 0.0
H1384 H 0.44884 0.01875 0.66958 0.0
H1385 H 0.43047 0.01138 0.6442 0.0
C1386 C 0.09515 0.39905 0.68801 0.0
C1387 C 0.08315 0.41584 0.70074 0.0
C1388 C 0.06777 0.43397 0.66781 0.0
C1389 C 0.08107 0.41837 0.65508 0.0
N1390 N 0.09822 0.37855 0.65247 0.0
N1391 N 0.04986 0.44084 0.70339 0.0
C1392 C 0.09151 0.39821 0.66507 0.0
C1393 C 0.06653 0.43033 0.69076 0.0
N1394 N 0.11215 0.38606 0.6976 0.0
N1395 N 0.0586 0.45417 0.65817 0.0
H1396 H 0.04867 0.4383 0.72025 0.0
H1397 H 0.0348 0.44906 0.69715 0.0
H1398 H 0.05861 0.45717 0.64142 0.0
H1399 H 0.05272 0.46944 0.6668 0.0
H1400 H 0.12506 0.37729 0.68893 0.0
H1401 H 0.11511 0.38576 0.71433 0.0
H1402 H 0.10322 0.36107 0.65874 0.0
H1403 H 0.0956 0.3776 0.63562 0.0
C1404 C 0.6342 0.66641 0.69223 0.0
C1405 C 0.64816 0.6975 0.70218 0.0
C1406 C 0.66634 0.72365 0.66657 0.0
C1407 C 0.64673 0.69298 0.65656 0.0
N1408 N 0.61179 0.6346 0.65948 0.0
N1409 N 0.67756 0.7563 0.69906 0.0
C1410 C 0.63123 0.66404 0.66925 0.0
C1411 C 0.665 0.72636 0.68948 0.0
N1412 N 0.62363 0.63925 0.7049 0.0
N1413 N 0.6859 0.75017 0.65399 0.0
H1414 H 0.67749 0.7595 0.71577 0.0
H1415 H 0.68637 0.77799 0.69039 0.0
H1416 H 0.68714 0.74853 0.63716 0.0
H1417 H 0.70302 0.77277 0.66028 0.0
H1418 H 0.61574 0.61601 0.69872 0.0
H1419 H 0.62572 0.64057 0.72178 0.0
H1420 H 0.59649 0.61329 0.66798 0.0
H1421 H 0.60956 0.63169 0.6427 0.0
C1422 C 0.39519 0.42612 0.69143 0.0
C1423 C 0.3641 0.41319 0.7013 0.0
C1424 C 0.33815 0.39763 0.66549 0.0
C1425 C 0.36922 0.41617 0.65564 0.0
N1426 N 0.42783 0.44902 0.659 0.0
N1427 N 0.30545 0.38704 0.69797 0.0
C1428 C 0.398 0.43007 0.6685 0.0
C1429 C 0.33532 0.39833 0.68845 0.0
N1430 N 0.42198 0.43482 0.70412 0.0
N1431 N 0.3114 0.37957 0.65276 0.0
H1432 H 0.30217 0.38665 0.71471 0.0
H1433 H 0.28406 0.37984 0.68926 0.0
H1434 H 0.31304 0.37873 0.63591 0.0
H1435 H 0.2884 0.36318 0.65892 0.0
H1436 H 0.44503 0.44174 0.69792 0.0
H1437 H 0.42035 0.43203 0.72096 0.0
H1438 H 0.4492 0.46318 0.66774 0.0
H1439 H 0.4311 0.45225 0.64228 0.0
C1440 C 0.63804 0.9984 0.69146 0.0
C1441 C 0.64989 0.9794 0.70143 0.0
C1442 C 0.66484 0.96799 0.66572 0.0
C1443 C 0.64711 0.98131 0.65579 0.0
N1444 N 0.61648 0.00942 0.65889 0.0
N1445 N 0.67467 0.94566 0.69837 0.0
C1446 C 0.63428 0.99734 0.66851 0.0
C1447 C 0.66409 0.96471 0.68869 0.0
N1448 N 0.63013 0.01717 0.70409 0.0
N1449 N 0.6821 0.95823 0.65304 0.0
H1450 H 0.67512 0.94306 0.71514 0.0
H1451 H 0.68133 0.93094 0.6898 0.0
H1452 H 0.68294 0.96054 0.63617 0.0
H1453 H 0.69789 0.95087 0.65921 0.0
H1454 H 0.624 0.03386 0.69785 0.0
H1455 H 0.63276 0.0182 0.72093 0.0
H1456 H 0.60302 0.0176 0.66752 0.0
H1457 H 0.61358 0.00966 0.64215 0.0
C1458 C 0.10138 0.72921 0.68971 0.0
C1459 C 0.08766 0.70033 0.70248 0.0
C1460 C 0.06997 0.6667 0.66965 0.0
C1461 C 0.08494 0.69559 0.65688 0.0
N1462 N 0.10641 0.75344 0.65412 0.0
N1463 N 0.05137 0.64248 0.70534 0.0
C1464 C 0.09768 0.72658 0.66678 0.0
C1465 C 0.06926 0.66933 0.69261 0.0
N1466 N 0.11987 0.75899 0.69932 0.0
N1467 N 0.05857 0.63693 0.66003 0.0
H1468 H 0.05058 0.64401 0.7222 0.0
H1469 H 0.03507 0.61947 0.6992 0.0
H1470 H 0.05814 0.63382 0.64328 0.0
H1471 H 0.05121 0.61542 0.66864 0.0
H1472 H 0.13393 0.7805 0.69068 0.0
H1473 H 0.12274 0.76207 0.71607 0.0
H1474 H 0.11324 0.77644 0.66032 0.0
H1475 H 0.1038 0.75193 0.63727 0.0
C1476 C 0.89729 0.13738 0.12161 0.0
C1477 C 0.88439 0.12048 0.10183 0.0
C1478 C 0.93074 0.16338 0.08169 0.0
C1479 C 0.94366 0.18028 0.10147 0.0
N1480 N 0.94303 0.18193 0.14047 0.0
N1481 N 0.8908 0.11368 0.06371 0.0
C1482 C 0.92803 0.16681 0.12154 0.0
C1483 C 0.90188 0.13226 0.08208 0.0
N1484 N 0.87981 0.12538 0.14036 0.0
N1485 N 0.94519 0.17788 0.06244 0.0
H1486 H 0.86907 0.09135 0.06314 0.0
H1487 H 0.90415 0.11908 0.04937 0.0
H1488 H 0.96675 0.20035 0.06149 0.0
H1489 H 0.93491 0.16884 0.04731 0.0
H1490 H 0.88557 0.13816 0.15493 0.0
H1491 H 0.85852 0.10267 0.14118 0.0
H1492 H 0.93454 0.17223 0.15582 0.0
H1493 H 0.96555 0.2035 0.14085 0.0
C1494 C 0.93148 0.79891 0.08203 0.0
C1495 C 0.94383 0.79382 0.10172 0.0
C1496 C 0.89605 0.78758 0.12151 0.0
C1497 C 0.88384 0.79295 0.10185 0.0
N1498 N 0.8918 0.80924 0.06422 0.0
N1499 N 0.94183 0.78931 0.14064 0.0
C1500 C 0.90231 0.80059 0.08239 0.0
C1501 C 0.92725 0.78993 0.12163 0.0
N1502 N 0.94671 0.80032 0.06284 0.0
N1503 N 0.87753 0.77979 0.13995 0.0
H1504 H 0.96484 0.79137 0.14118 0.0
H1505 H 0.93254 0.78936 0.15594 0.0
H1506 H 0.8557 0.7802 0.14075 0.0
H1507 H 0.88291 0.77161 0.15418 0.0
H1508 H 0.93687 0.79992 0.04767 0.0
H1509 H 0.96842 0.79971 0.06191 0.0
H1510 H 0.90587 0.81864 0.05027 0.0
H1511 H 0.86978 0.80925 0.06351 0.0
C1512 C 0.27898 0.14125 0.12079 0.0
C1513 C 0.27715 0.12532 0.10092 0.0
C1514 C 0.27644 0.16941 0.0805 0.0
C1515 C 0.27756 0.18501 0.10038 0.0
N1516 N 0.27464 0.18423 0.13938 0.0
N1517 N 0.2688 0.12068 0.06221 0.0
C1518 C 0.27724 0.17043 0.12055 0.0
C1519 C 0.27409 0.13828 0.08087 0.0
N1520 N 0.28302 0.12875 0.13979 0.0
N1521 N 0.27901 0.18504 0.06128 0.0
H1522 H 0.268 0.09826 0.06174 0.0
H1523 H 0.26283 0.127 0.04743 0.0
H1524 H 0.27989 0.20748 0.06032 0.0
H1525 H 0.28238 0.17695 0.04633 0.0
H1526 H 0.2884 0.14098 0.15456 0.0
H1527 H 0.28253 0.10648 0.14061 0.0
H1528 H 0.27132 0.17346 0.15458 0.0
H1529 H 0.27338 0.20563 0.13965 0.0
C1530 C 0.17642 0.92625 0.9418 0.0
C1531 C 0.18861 0.94215 0.92158 0.0
C1532 C 0.13988 0.89979 0.90304 0.0
C1533 C 0.12919 0.88247 0.92293 0.0
N1534 N 0.1376 0.87717 0.96097 0.0
N1535 N 0.18402 0.94405 0.8828 0.0
C1536 C 0.1475 0.89521 0.94227 0.0
C1537 C 0.17081 0.92902 0.90214 0.0
N1538 N 0.19231 0.94116 0.96058 0.0
N1539 N 0.12032 0.8883 0.88513 0.0
H1540 H 0.20613 0.96599 0.88174 0.0
H1541 H 0.17418 0.93413 0.86774 0.0
H1542 H 0.098 0.8665 0.88516 0.0
H1543 H 0.12499 0.90116 0.87063 0.0
H1544 H 0.18294 0.93271 0.97601 0.0
H1545 H 0.21405 0.96352 0.96087 0.0
H1546 H 0.15181 0.88298 0.97492 0.0
H1547 H 0.11568 0.85509 0.96228 0.0
C1548 C 0.16891 0.26957 0.90223 0.0
C1549 C 0.18927 0.27984 0.92083 0.0
C1550 C 0.14821 0.28626 0.9411 0.0
C1551 C 0.12937 0.27921 0.92189 0.0
N1552 N 0.12225 0.26685 0.88371 0.0
N1553 N 0.2001 0.30014 0.95757 0.0
C1554 C 0.1397 0.27133 0.90233 0.0
C1555 C 0.17939 0.28875 0.94018 0.0
N1556 N 0.17747 0.25798 0.8846 0.0
N1557 N 0.13575 0.28958 0.96036 0.0
H1558 H 0.22238 0.30062 0.95806 0.0
H1559 H 0.19623 0.31094 0.97109 0.0
H1560 H 0.11299 0.28797 0.96167 0.0
H1561 H 0.14657 0.29124 0.97536 0.0
H1562 H 0.16222 0.24701 0.87136 0.0
H1563 H 0.19915 0.25728 0.88385 0.0
H1564 H 0.13022 0.26461 0.86841 0.0
H1565 H 0.10051 0.26747 0.88334 0.0
C1566 C 0.78984 0.89583 0.90378 0.0
C1567 C 0.79624 0.88415 0.92332 0.0
C1568 C 0.80217 0.9318 0.94305 0.0
C1569 C 0.796 0.9436 0.92348 0.0
N1570 N 0.7894 0.94061 0.88469 0.0
N1571 N 0.81378 0.89289 0.96069 0.0
C1572 C 0.79142 0.92667 0.90365 0.0
C1573 C 0.80432 0.90289 0.94265 0.0
N1574 N 0.78191 0.87716 0.88544 0.0
N1575 N 0.80405 0.94722 0.96223 0.0
H1576 H 0.81394 0.87096 0.96149 0.0
H1577 H 0.82364 0.90726 0.97445 0.0
H1578 H 0.80298 0.96867 0.96321 0.0
H1579 H 0.80443 0.93775 0.97739 0.0
H1580 H 0.77298 0.882 0.87135 0.0
H1581 H 0.78314 0.85578 0.88455 0.0
H1582 H 0.78888 0.93115 0.86938 0.0
H1583 H 0.79068 0.96327 0.88414 0.0
C1584 C 0.56442 0.4668 0.41947 0.0
C1585 C 0.54559 0.45693 0.43885 0.0
C1586 C 0.58893 0.50419 0.45806 0.0
C1587 C 0.60612 0.51568 0.4382 0.0
N1588 N 0.60891 0.51054 0.39942 0.0
N1589 N 0.53835 0.46636 0.47633 0.0
C1590 C 0.59375 0.49749 0.41879 0.0
C1591 C 0.55744 0.47566 0.45811 0.0
N1592 N 0.55405 0.44706 0.40158 0.0
N1593 N 0.60319 0.52019 0.47692 0.0
H1594 H 0.51603 0.44464 0.4773 0.0
H1595 H 0.54369 0.4808 0.49012 0.0
H1596 H 0.62626 0.54109 0.47736 0.0
H1597 H 0.59355 0.51154 0.49226 0.0
H1598 H 0.56861 0.45081 0.388 0.0
H1599 H 0.53156 0.42559 0.40068 0.0
H1600 H 0.59895 0.50054 0.38439 0.0
H1601 H 0.63048 0.53292 0.39811 0.0
C1602 C 0.59173 0.12244 0.45909 0.0
C1603 C 0.61227 0.13196 0.44058 0.0
C1604 C 0.57357 0.1419 0.42026 0.0
C1605 C 0.55271 0.13185 0.43867 0.0
N1606 N 0.54455 0.11976 0.47686 0.0
N1607 N 0.62717 0.15817 0.40556 0.0
C1608 C 0.56264 0.12433 0.45852 0.0
C1609 C 0.6047 0.14435 0.42187 0.0
N1610 N 0.59989 0.11112 0.47705 0.0
N1611 N 0.56279 0.14704 0.40087 0.0
H1612 H 0.64998 0.15983 0.40601 0.0
H1613 H 0.62449 0.17058 0.3925 0.0
H1614 H 0.54021 0.14562 0.39898 0.0
H1615 H 0.57511 0.15042 0.38625 0.0
H1616 H 0.58424 0.0999 0.49011 0.0
H1617 H 0.6223 0.11202 0.47854 0.0
H1618 H 0.55164 0.11681 0.49228 0.0
H1619 H 0.52348 0.12164 0.47693 0.0
C1620 C 0.94222 0.47063 0.45531 0.0
C1621 C 0.93603 0.45248 0.43583 0.0
C1622 C 0.92985 0.49394 0.41587 0.0
C1623 C 0.93561 0.51184 0.43541 0.0
N1624 N 0.94095 0.51499 0.47427 0.0
N1625 N 0.91873 0.44351 0.39839 0.0
C1626 C 0.9399 0.49948 0.45533 0.0
C1627 C 0.9279 0.46296 0.41641 0.0
N1628 N 0.95087 0.46052 0.47366 0.0
N1629 N 0.92823 0.50746 0.39661 0.0
H1630 H 0.91886 0.42157 0.39763 0.0
H1631 H 0.90884 0.4479 0.38459 0.0
H1632 H 0.92917 0.52991 0.39552 0.0
H1633 H 0.92822 0.49767 0.3815 0.0
H1634 H 0.95956 0.47453 0.48766 0.0
H1635 H 0.95082 0.43847 0.47458 0.0
H1636 H 0.94111 0.50584 0.4896 0.0
H1637 H 0.93892 0.53596 0.47475 0.0
C1638 C 0.79363 0.23864 0.26949 0.0
C1639 C 0.7861 0.21859 0.25084 0.0
C1640 C 0.83618 0.2602 0.23306 0.0
C1641 C 0.84594 0.27778 0.25285 0.0
N1642 N 0.83551 0.2832 0.29051 0.0
N1643 N 0.79885 0.20977 0.21457 0.0
C1644 C 0.82486 0.26719 0.27115 0.0
C1645 C 0.80693 0.22936 0.23245 0.0
N1646 N 0.77105 0.23021 0.28569 0.0
N1647 N 0.85458 0.27349 0.2148 0.0
H1648 H 0.77634 0.18839 0.21301 0.0
H1649 H 0.81466 0.21398 0.20165 0.0
H1650 H 0.87579 0.29631 0.21474 0.0
H1651 H 0.84765 0.26337 0.19939 0.0
H1652 H 0.77369 0.24542 0.29866 0.0
H1653 H 0.74821 0.2091 0.28528 0.0
H1654 H 0.82302 0.2744 0.3051 0.0
H1655 H 0.85815 0.30427 0.29245 0.0
C1656 C 0.83164 0.60004 0.2769 0.0
C1657 C 0.85004 0.60749 0.25742 0.0
C1658 C 0.80681 0.61087 0.23766 0.0
C1659 C 0.79024 0.60702 0.25757 0.0
N1660 N 0.78731 0.60048 0.29644 0.0
N1661 N 0.85645 0.62076 0.21934 0.0
C1662 C 0.80256 0.6019 0.27726 0.0
C1663 C 0.83793 0.61303 0.23777 0.0
N1664 N 0.84208 0.59132 0.29506 0.0
N1665 N 0.79229 0.6116 0.21865 0.0
H1666 H 0.87823 0.62027 0.21853 0.0
H1667 H 0.85113 0.62902 0.20512 0.0
H1668 H 0.76936 0.60973 0.21811 0.0
H1669 H 0.80154 0.6115 0.20335 0.0
H1670 H 0.82806 0.58205 0.30905 0.0
H1671 H 0.86401 0.59111 0.29575 0.0
H1672 H 0.7971 0.60081 0.31162 0.0
H1673 H 0.76561 0.60112 0.29735 0.0
C1674 C 0.467 0.26467 0.27595 0.0
C1675 C 0.45829 0.27505 0.25673 0.0
C1676 C 0.45311 0.22758 0.23712 0.0
C1677 C 0.45826 0.21548 0.25687 0.0
N1678 N 0.46742 0.22036 0.29551 0.0
N1679 N 0.4424 0.26695 0.21911 0.0
C1680 C 0.46491 0.23363 0.27637 0.0
C1681 C 0.45124 0.25668 0.23729 0.0
N1682 N 0.47703 0.2844 0.29384 0.0
N1683 N 0.45089 0.2116 0.21815 0.0
H1684 H 0.44318 0.28935 0.21823 0.0
H1685 H 0.43301 0.25287 0.20519 0.0
H1686 H 0.45254 0.19044 0.21755 0.0
H1687 H 0.44999 0.22045 0.20287 0.0
H1688 H 0.4873 0.28007 0.30746 0.0
H1689 H 0.47723 0.3065 0.29461 0.0
H1690 H 0.46821 0.23039 0.31067 0.0
H1691 H 0.4665 0.1979 0.29647 0.0
C1692 C 0.25801 0.83943 0.78966 0.0
C1693 C 0.27682 0.85118 0.77037 0.0
C1694 C 0.23643 0.80281 0.75049 0.0
C1695 C 0.21799 0.7908 0.76987 0.0
N1696 N 0.21306 0.79398 0.80852 0.0
N1697 N 0.28693 0.84257 0.7332 0.0
C1698 C 0.22934 0.80807 0.78967 0.0
C1699 C 0.26708 0.83223 0.75108 0.0
N1700 N 0.2674 0.85851 0.80786 0.0
N1701 N 0.22371 0.78705 0.73127 0.0
H1702 H 0.3084 0.86506 0.73229 0.0
H1703 H 0.28327 0.82806 0.71964 0.0
H1704 H 0.20157 0.76519 0.73017 0.0
H1705 H 0.23382 0.79659 0.71616 0.0
H1706 H 0.25293 0.85333 0.82165 0.0
H1707 H 0.28932 0.88062 0.80887 0.0
H1708 H 0.22145 0.80372 0.82385 0.0
H1709 H 0.19213 0.77095 0.80899 0.0
C1710 C 0.25696 0.44795 0.74725 0.0
C1711 C 0.27354 0.45262 0.76725 0.0
C1712 C 0.2324 0.46089 0.78587 0.0
C1713 C 0.21426 0.45314 0.76629 0.0
N1714 N 0.20738 0.43723 0.72864 0.0
N1715 N 0.27703 0.46146 0.80584 0.0
C1716 C 0.22608 0.4462 0.74703 0.0
C1717 C 0.26139 0.45877 0.78664 0.0
N1718 N 0.27115 0.44587 0.72842 0.0
N1719 N 0.22186 0.47033 0.80364 0.0
H1720 H 0.29876 0.46088 0.8068 0.0
H1721 H 0.26774 0.46243 0.82095 0.0
H1722 H 0.2002 0.4711 0.80377 0.0
H1723 H 0.2354 0.47939 0.8178 0.0
H1724 H 0.26217 0.44598 0.71303 0.0
H1725 H 0.29352 0.4465 0.72798 0.0
H1726 H 0.21251 0.42788 0.71487 0.0
H1727 H 0.18545 0.43739 0.72745 0.0
C1728 C 0.60966 0.80458 0.78779 0.0
C1729 C 0.60604 0.78799 0.76792 0.0
C1730 C 0.60386 0.83163 0.74788 0.0
C1731 C 0.60708 0.84804 0.76777 0.0
N1732 N 0.60814 0.84884 0.8068 0.0
N1733 N 0.59432 0.78222 0.72959 0.0
C1734 C 0.60852 0.83409 0.78781 0.0
C1735 C 0.60129 0.80039 0.74813 0.0
N1736 N 0.61468 0.79226 0.80654 0.0
N1737 N 0.60488 0.84669 0.72869 0.0
H1738 H 0.59346 0.75978 0.72896 0.0
H1739 H 0.58708 0.7881 0.71515 0.0
H1740 H 0.60605 0.86928 0.72782 0.0
H1741 H 0.60672 0.838 0.71356 0.0
H1742 H 0.62138 0.8048 0.8212 0.0
H1743 H 0.61337 0.7696 0.80727 0.0
H1744 H 0.60623 0.83869 0.82208 0.0
H1745 H 0.60747 0.87054 0.80726 0.0
C1746 C 0.49629 0.5984 0.57148 0.0
C1747 C 0.51673 0.60732 0.59002 0.0
C1748 C 0.47678 0.55749 0.60882 0.0
C1749 C 0.45815 0.54686 0.58946 0.0
N1750 N 0.45004 0.55544 0.55201 0.0
N1751 N 0.52796 0.59553 0.62606 0.0
C1752 C 0.46767 0.56698 0.57072 0.0
C1753 C 0.50732 0.58695 0.60866 0.0
N1754 N 0.5043 0.62003 0.55472 0.0
N1755 N 0.46473 0.53978 0.62751 0.0
H1756 H 0.54959 0.6179 0.62721 0.0
H1757 H 0.52466 0.57991 0.63893 0.0
H1758 H 0.44246 0.51797 0.62824 0.0
H1759 H 0.47532 0.54782 0.6427 0.0
H1760 H 0.48904 0.61649 0.54161 0.0
H1761 H 0.52552 0.64285 0.55464 0.0
H1762 H 0.45741 0.56724 0.5371 0.0
H1763 H 0.42867 0.5328 0.55109 0.0
C1764 C 0.47039 0.94019 0.57145 0.0
C1765 C 0.45485 0.93772 0.59161 0.0
C1766 C 0.49608 0.93001 0.61054 0.0
C1767 C 0.51358 0.93613 0.59077 0.0
N1768 N 0.5183 0.94675 0.55235 0.0
N1769 N 0.45321 0.93255 0.63057 0.0
C1770 C 0.50089 0.94099 0.57115 0.0
C1771 C 0.46752 0.9328 0.61121 0.0
N1772 N 0.45551 0.94104 0.55264 0.0
N1773 N 0.5069 0.92167 0.6287 0.0
H1774 H 0.43193 0.93392 0.63171 0.0
H1775 H 0.46339 0.93309 0.64563 0.0
H1776 H 0.52845 0.92074 0.62911 0.0
H1777 H 0.49347 0.91338 0.64299 0.0
H1778 H 0.46391 0.9401 0.53721 0.0
H1779 H 0.43311 0.94036 0.55241 0.0
H1780 H 0.51276 0.95444 0.53797 0.0
H1781 H 0.53931 0.94487 0.55132 0.0
C1782 C 0.13923 0.59967 0.60773 0.0
C1783 C 0.13044 0.61021 0.58864 0.0
C1784 C 0.12581 0.56327 0.56865 0.0
C1785 C 0.13058 0.55072 0.58835 0.0
N1786 N 0.13853 0.55479 0.62716 0.0
N1787 N 0.11498 0.60277 0.55096 0.0
C1788 C 0.13691 0.56855 0.608 0.0
C1789 C 0.12377 0.59226 0.56905 0.0
N1790 N 0.14944 0.61926 0.62567 0.0
N1791 N 0.12403 0.54777 0.54956 0.0
H1792 H 0.11557 0.62509 0.5503 0.0
H1793 H 0.10582 0.58893 0.53692 0.0
H1794 H 0.12567 0.5266 0.54879 0.0
H1795 H 0.12354 0.55707 0.53435 0.0
H1796 H 0.15975 0.61472 0.6392 0.0
H1797 H 0.14999 0.64154 0.62651 0.0
H1798 H 0.13898 0.56468 0.64232 0.0
H1799 H 0.13691 0.53203 0.62818 0.0
loop_
_geom_bond_atom_site_label_1
_geom_bond_atom_site_label_2
_geom_bond_distance
_geom_bond_site_symmetry_2
_ccdc_geom_bond_type
O0 Cd1 2.223 . S
O0 C8 1.315 . S
Cd1 O0 2.223 . S
Cd1 O4 2.297 . S
Cd1 O5 2.439 . S
Cd1 O11 2.240 1_455 S
Cd2 O3 2.240 . S
Cd2 O10 2.223 1_455 S
Cd2 O12 2.297 1_455 S
Cd2 O13 2.439 . S
O3 Cd2 2.240 . S
O3 C8 1.279 . S
O4 Cd1 2.297 . S
O4 C6 1.247 . S
O5 Cd1 2.439 . S
O5 C6 1.208 . S
C6 O4 1.247 . S
C6 O5 1.208 . S
C7 O12 1.247 1_455 S
C7 O13 1.208 . S
C8 O0 1.315 . S
C8 O3 1.279 . S
C9 O10 1.315 . S
C9 O11 1.279 . S
O10 Cd2 2.223 1_655 S
O10 C9 1.315 . S
O11 Cd1 2.240 1_655 S
O11 C9 1.279 . S
O12 Cd2 2.297 1_655 S
O12 C7 1.247 1_655 S
O13 Cd2 2.439 . S
O13 C7 1.208 . S
O14 Cd15 2.223 . S
O14 C22 1.315 . S
Cd15 O14 2.223 . S
Cd15 O18 2.297 . S
Cd15 O19 2.439 . S
Cd15 O25 2.240 . S
Cd16 O17 2.240 . S
Cd16 O24 2.223 . S
Cd16 O26 2.297 . S
Cd16 O27 2.439 . S
O17 Cd16 2.240 . S
O17 C22 1.279 . S
O18 Cd15 2.297 . S
O18 C20 1.247 . S
O19 Cd15 2.439 . S
O19 C20 1.208 . S
C20 O18 1.247 . S
C20 O19 1.208 . S
C21 O26 1.247 . S
C21 O27 1.208 . S
C22 O14 1.315 . S
C22 O17 1.279 . S
C23 O24 1.315 . S
C23 O25 1.279 . S
O24 Cd16 2.223 . S
O24 C23 1.315 . S
O25 Cd15 2.240 . S
O25 C23 1.279 . S
O26 Cd16 2.297 . S
O26 C21 1.247 . S
O27 Cd16 2.439 . S
O27 C21 1.208 . S
O28 Cd29 2.223 . S
O28 C36 1.315 . S
Cd29 O28 2.223 . S
Cd29 O32 2.297 1_545 S
Cd29 O33 2.439 1_545 S
Cd29 O39 2.240 . S
Cd30 O31 2.240 . S
Cd30 O38 2.223 . S
Cd30 O40 2.297 . S
Cd30 O41 2.439 . S
O31 Cd30 2.240 . S
O31 C36 1.279 . S
O32 Cd29 2.297 1_565 S
O32 C34 1.247 . S
O33 Cd29 2.439 1_565 S
O33 C34 1.208 . S
C34 O32 1.247 . S
C34 O33 1.208 . S
C35 O40 1.247 . S
C35 O41 1.208 . S
C36 O28 1.315 . S
C36 O31 1.279 . S
C37 O38 1.315 . S
C37 O39 1.279 . S
O38 Cd30 2.223 . S
O38 C37 1.315 . S
O39 Cd29 2.240 . S
O39 C37 1.279 . S
O40 Cd30 2.297 . S
O40 C35 1.247 . S
O41 Cd30 2.439 . S
O41 C35 1.208 . S
O42 Cd43 2.223 . S
O42 C50 1.315 . S
Cd43 O42 2.223 . S
Cd43 O46 2.297 . S
Cd43 O47 2.439 . S
Cd43 O53 2.240 1_545 S
Cd44 O45 2.240 . S
Cd44 O52 2.223 1_545 S
Cd44 O54 2.297 1_545 S
Cd44 O55 2.439 . S
O45 Cd44 2.240 . S
O45 C50 1.279 . S
O46 Cd43 2.297 . S
O46 C48 1.247 . S
O47 Cd43 2.439 . S
O47 C48 1.208 . S
C48 O46 1.247 . S
C48 O47 1.208 . S
C49 O54 1.247 1_545 S
C49 O55 1.208 . S
C50 O42 1.315 . S
C50 O45 1.279 . S
C51 O52 1.315 . S
C51 O53 1.279 . S
O52 Cd44 2.223 1_565 S
O52 C51 1.315 . S
O53 Cd43 2.240 1_565 S
O53 C51 1.279 . S
O54 Cd44 2.297 1_565 S
O54 C49 1.247 1_565 S
O55 Cd44 2.439 . S
O55 C49 1.208 . S
O56 Cd57 2.223 . S
O56 C64 1.315 . S
Cd57 O56 2.223 . S
Cd57 O60 2.297 1_455 S
Cd57 O61 2.439 1_455 S
Cd57 O67 2.240 . S
Cd58 O59 2.240 . S
Cd58 O66 2.223 . S
Cd58 O68 2.297 . S
Cd58 O69 2.439 . S
O59 Cd58 2.240 . S
O59 C64 1.279 . S
O60 Cd57 2.297 1_655 S
O60 C62 1.247 . S
O61 Cd57 2.439 1_655 S
O61 C62 1.208 . S
C62 O60 1.247 . S
C62 O61 1.208 . S
C63 O68 1.247 . S
C63 O69 1.208 . S
C64 O56 1.315 . S
C64 O59 1.279 . S
C65 O66 1.315 . S
C65 O67 1.279 . S
O66 Cd58 2.223 . S
O66 C65 1.315 . S
O67 Cd57 2.240 . S
O67 C65 1.279 . S
O68 Cd58 2.297 . S
O68 C63 1.247 . S
O69 Cd58 2.439 . S
O69 C63 1.208 . S
O70 Cd71 2.223 . S
O70 C78 1.315 . S
Cd71 O70 2.223 . S
Cd71 O74 2.297 . S
Cd71 O75 2.439 . S
Cd71 O81 2.240 . S
Cd72 O73 2.240 . S
Cd72 O80 2.223 . S
Cd72 O82 2.297 . S
Cd72 O83 2.439 . S
O73 Cd72 2.240 . S
O73 C78 1.279 . S
O74 Cd71 2.297 . S
O74 C76 1.247 . S
O75 Cd71 2.439 . S
O75 C76 1.208 . S
C76 O74 1.247 . S
C76 O75 1.208 . S
C77 O82 1.247 . S
C77 O83 1.208 . S
C78 O70 1.315 . S
C78 O73 1.279 . S
C79 O80 1.315 . S
C79 O81 1.279 . S
O80 Cd72 2.223 . S
O80 C79 1.315 . S
O81 Cd71 2.240 . S
O81 C79 1.279 . S
O82 Cd72 2.297 . S
O82 C77 1.247 . S
O83 Cd72 2.439 . S
O83 C77 1.208 . S
O84 Cd85 2.223 . S
O84 C92 1.315 . S
Cd85 O84 2.223 . S
Cd85 O88 2.297 1_455 S
Cd85 O89 2.439 1_455 S
Cd85 O95 2.240 . S
Cd86 O87 2.240 . S
Cd86 O94 2.223 . S
Cd86 O96 2.297 . S
Cd86 O97 2.439 . S
O87 Cd86 2.240 . S
O87 C92 1.279 . S
O88 Cd85 2.297 1_655 S
O88 C90 1.247 . S
O89 Cd85 2.439 1_655 S
O89 C90 1.208 . S
C90 O88 1.247 . S
C90 O89 1.208 . S
C91 O96 1.247 . S
C91 O97 1.208 . S
C92 O84 1.315 . S
C92 O87 1.279 . S
C93 O94 1.315 . S
C93 O95 1.279 . S
O94 Cd86 2.223 . S
O94 C93 1.315 . S
O95 Cd85 2.240 . S
O95 C93 1.279 . S
O96 Cd86 2.297 . S
O96 C91 1.247 . S
O97 Cd86 2.439 . S
O97 C91 1.208 . S
O98 Cd99 2.223 . S
O98 C106 1.315 . S
Cd99 O98 2.223 . S
Cd99 O102 2.297 . S
Cd99 O103 2.439 . S
Cd99 O109 2.240 . S
Cd100 O101 2.240 . S
Cd100 O108 2.223 . S
Cd100 O110 2.297 . S
Cd100 O111 2.439 . S
O101 Cd100 2.240 . S
O101 C106 1.279 . S
O102 Cd99 2.297 . S
O102 C104 1.247 . S
O103 Cd99 2.439 . S
O103 C104 1.208 . S
C104 O102 1.247 . S
C104 O103 1.208 . S
C105 O110 1.247 . S
C105 O111 1.208 . S
C106 O98 1.315 . S
C106 O101 1.279 . S
C107 O108 1.315 . S
C107 O109 1.279 . S
O108 Cd100 2.223 . S
O108 C107 1.315 . S
O109 Cd99 2.240 . S
O109 C107 1.279 . S
O110 Cd100 2.297 . S
O110 C105 1.247 . S
O111 Cd100 2.439 . S
O111 C105 1.208 . S
O112 Cd113 2.223 . S
O112 C120 1.315 . S
Cd113 O112 2.223 . S
Cd113 O116 2.297 . S
Cd113 O117 2.439 . S
Cd113 O123 2.240 1_545 S
Cd114 O115 2.240 . S
Cd114 O122 2.223 1_545 S
Cd114 O124 2.297 1_545 S
Cd114 O125 2.439 . S
O115 Cd114 2.240 . S
O115 C120 1.279 . S
O116 Cd113 2.297 . S
O116 C118 1.247 . S
O117 Cd113 2.439 . S
O117 C118 1.208 . S
C118 O116 1.247 . S
C118 O117 1.208 . S
C119 O124 1.247 1_545 S
C119 O125 1.208 . S
C120 O112 1.315 . S
C120 O115 1.279 . S
C121 O122 1.315 . S
C121 O123 1.279 . S
O122 Cd114 2.223 1_565 S
O122 C121 1.315 . S
O123 Cd113 2.240 1_565 S
O123 C121 1.279 . S
O124 Cd114 2.297 1_565 S
O124 C119 1.247 1_565 S
O125 Cd114 2.439 . S
O125 C119 1.208 . S
O126 Cd127 2.223 . S
O126 C134 1.315 . S
Cd127 O126 2.223 . S
Cd127 O130 2.297 1_545 S
Cd127 O131 2.439 1_545 S
Cd127 O137 2.240 . S
Cd128 O129 2.240 . S
Cd128 O136 2.223 . S
Cd128 O138 2.297 . S
Cd128 O139 2.439 . S
O129 Cd128 2.240 . S
O129 C134 1.279 . S
O130 Cd127 2.297 1_565 S
O130 C132 1.247 . S
O131 Cd127 2.439 1_565 S
O131 C132 1.208 . S
C132 O130 1.247 . S
C132 O131 1.208 . S
C133 O138 1.247 . S
C133 O139 1.208 . S
C134 O126 1.315 . S
C134 O129 1.279 . S
C135 O136 1.315 . S
C135 O137 1.279 . S
O136 Cd128 2.223 . S
O136 C135 1.315 . S
O137 Cd127 2.240 . S
O137 C135 1.279 . S
O138 Cd128 2.297 . S
O138 C133 1.247 . S
O139 Cd128 2.439 . S
O139 C133 1.208 . S
O140 Cd141 2.223 . S
O140 C148 1.315 . S
Cd141 O140 2.223 . S
Cd141 O144 2.297 . S
Cd141 O145 2.439 . S
Cd141 O151 2.240 1_455 S
Cd142 O143 2.240 . S
Cd142 O150 2.223 1_455 S
Cd142 O152 2.297 1_455 S
Cd142 O153 2.439 . S
O143 Cd142 2.240 . S
O143 C148 1.279 . S
O144 Cd141 2.297 . S
O144 C146 1.247 . S
O145 Cd141 2.439 . S
O145 C146 1.208 . S
C146 O144 1.247 . S
C146 O145 1.208 . S
C147 O152 1.247 1_455 S
C147 O153 1.208 . S
C148 O140 1.315 . S
C148 O143 1.279 . S
C149 O150 1.315 . S
C149 O151 1.279 . S
O150 Cd142 2.223 1_655 S
O150 C149 1.315 . S
O151 Cd141 2.240 1_655 S
O151 C149 1.279 . S
O152 Cd142 2.297 1_655 S
O152 C147 1.247 1_655 S
O153 Cd142 2.439 . S
O153 C147 1.208 . S
O154 Cd155 2.223 . S
O154 C162 1.315 . S
Cd155 O154 2.223 . S
Cd155 O158 2.297 . S
Cd155 O159 2.439 . S
Cd155 O165 2.240 . S
Cd156 O157 2.240 . S
Cd156 O164 2.223 . S
Cd156 O166 2.297 . S
Cd156 O167 2.439 . S
O157 Cd156 2.240 . S
O157 C162 1.279 . S
O158 Cd155 2.297 . S
O158 C160 1.247 . S
O159 Cd155 2.439 . S
O159 C160 1.208 . S
C160 O158 1.247 . S
C160 O159 1.208 . S
C161 O166 1.247 . S
C161 O167 1.208 . S
C162 O154 1.315 . S
C162 O157 1.279 . S
C163 O164 1.315 . S
C163 O165 1.279 . S
O164 Cd156 2.223 . S
O164 C163 1.315 . S
O165 Cd155 2.240 . S
O165 C163 1.279 . S
O166 Cd156 2.297 . S
O166 C161 1.247 . S
O167 Cd156 2.439 . S
O167 C161 1.208 . S
O168 Cd169 2.223 . S
O168 C176 1.315 . S
Cd169 O168 2.223 . S
Cd169 O172 2.297 . S
Cd169 O173 2.439 . S
Cd169 O179 2.240 . S
Cd170 O171 2.240 . S
Cd170 O178 2.223 . S
Cd170 O180 2.297 . S
Cd170 O181 2.439 . S
O171 Cd170 2.240 . S
O171 C176 1.279 . S
O172 Cd169 2.297 . S
O172 C174 1.247 . S
O173 Cd169 2.439 . S
O173 C174 1.208 . S
C174 O172 1.247 . S
C174 O173 1.208 . S
C175 O180 1.247 . S
C175 O181 1.208 . S
C176 O168 1.315 . S
C176 O171 1.279 . S
C177 O178 1.315 . S
C177 O179 1.279 . S
O178 Cd170 2.223 . S
O178 C177 1.315 . S
O179 Cd169 2.240 . S
O179 C177 1.279 . S
O180 Cd170 2.297 . S
O180 C175 1.247 . S
O181 Cd170 2.439 . S
O181 C175 1.208 . S
O182 Cd183 2.223 . S
O182 C190 1.315 . S
Cd183 O182 2.223 . S
Cd183 O186 2.297 . S
Cd183 O187 2.439 . S
Cd183 O193 2.240 . S
Cd184 O185 2.240 . S
Cd184 O192 2.223 . S
Cd184 O194 2.297 . S
Cd184 O195 2.439 . S
O185 Cd184 2.240 . S
O185 C190 1.279 . S
O186 Cd183 2.297 . S
O186 C188 1.247 . S
O187 Cd183 2.439 . S
O187 C188 1.208 . S
C188 O186 1.247 . S
C188 O187 1.208 . S
C189 O194 1.247 . S
C189 O195 1.208 . S
C190 O182 1.315 . S
C190 O185 1.279 . S
C191 O192 1.315 . S
C191 O193 1.279 . S
O192 Cd184 2.223 . S
O192 C191 1.315 . S
O193 Cd183 2.240 . S
O193 C191 1.279 . S
O194 Cd184 2.297 . S
O194 C189 1.247 . S
O195 Cd184 2.439 . S
O195 C189 1.208 . S
O196 Cd197 2.223 . S
O196 C204 1.315 . S
Cd197 O196 2.223 . S
Cd197 O200 2.297 . S
Cd197 O201 2.439 . S
Cd197 O207 2.240 . S
Cd198 O199 2.240 1_455 S
Cd198 O206 2.223 1_455 S
Cd198 O208 2.297 . S
Cd198 O209 2.439 1_455 S
O199 Cd198 2.240 1_655 S
O199 C204 1.279 . S
O200 Cd197 2.297 . S
O200 C202 1.247 . S
O201 Cd197 2.439 . S
O201 C202 1.208 . S
C202 O200 1.247 . S
C202 O201 1.208 . S
C203 O208 1.247 . S
C203 O209 1.208 1_455 S
C204 O196 1.315 . S
C204 O199 1.279 . S
C205 O206 1.315 . S
C205 O207 1.279 . S
O206 Cd198 2.223 1_655 S
O206 C205 1.315 . S
O207 Cd197 2.240 . S
O207 C205 1.279 . S
O208 Cd198 2.297 . S
O208 C203 1.247 . S
O209 Cd198 2.439 1_655 S
O209 C203 1.208 1_655 S
O210 Cd211 2.223 . S
O210 C218 1.315 . S
Cd211 O210 2.223 . S
Cd211 O214 2.297 . S
Cd211 O215 2.439 . S
Cd211 O221 2.240 . S
Cd212 O213 2.240 . S
Cd212 O220 2.223 . S
Cd212 O222 2.297 . S
Cd212 O223 2.439 . S
O213 Cd212 2.240 . S
O213 C218 1.279 . S
O214 Cd211 2.297 . S
O214 C216 1.247 . S
O215 Cd211 2.439 . S
O215 C216 1.208 . S
C216 O214 1.247 . S
C216 O215 1.208 . S
C217 O222 1.247 . S
C217 O223 1.208 . S
C218 O210 1.315 . S
C218 O213 1.279 . S
C219 O220 1.315 . S
C219 O221 1.279 . S
O220 Cd212 2.223 . S
O220 C219 1.315 . S
O221 Cd211 2.240 . S
O221 C219 1.279 . S
O222 Cd212 2.297 . S
O222 C217 1.247 . S
O223 Cd212 2.439 . S
O223 C217 1.208 . S
O224 Cd225 2.223 . S
O224 C232 1.315 . S
Cd225 O224 2.223 . S
Cd225 O228 2.297 . S
Cd225 O229 2.439 . S
Cd225 O235 2.240 . S
Cd226 O227 2.240 . S
Cd226 O234 2.223 . S
Cd226 O236 2.297 . S
Cd226 O237 2.439 . S
O227 Cd226 2.240 . S
O227 C232 1.279 . S
O228 Cd225 2.297 . S
O228 C230 1.247 . S
O229 Cd225 2.439 . S
O229 C230 1.208 . S
C230 O228 1.247 . S
C230 O229 1.208 . S
C231 O236 1.247 . S
C231 O237 1.208 . S
C232 O224 1.315 . S
C232 O227 1.279 . S
C233 O234 1.315 . S
C233 O235 1.279 . S
O234 Cd226 2.223 . S
O234 C233 1.315 . S
O235 Cd225 2.240 . S
O235 C233 1.279 . S
O236 Cd226 2.297 . S
O236 C231 1.247 . S
O237 Cd226 2.439 . S
O237 C231 1.208 . S
O238 Cd239 2.223 . S
O238 C246 1.315 . S
Cd239 O238 2.223 . S
Cd239 O242 2.297 . S
Cd239 O243 2.439 . S
Cd239 O249 2.240 . S
Cd240 O241 2.240 . S
Cd240 O248 2.223 . S
Cd240 O250 2.297 . S
Cd240 O251 2.439 . S
O241 Cd240 2.240 . S
O241 C246 1.279 . S
O242 Cd239 2.297 . S
O242 C244 1.247 . S
O243 Cd239 2.439 . S
O243 C244 1.208 . S
C244 O242 1.247 . S
C244 O243 1.208 . S
C245 O250 1.247 . S
C245 O251 1.208 . S
C246 O238 1.315 . S
C246 O241 1.279 . S
C247 O248 1.315 . S
C247 O249 1.279 . S
O248 Cd240 2.223 . S
O248 C247 1.315 . S
O249 Cd239 2.240 . S
O249 C247 1.279 . S
O250 Cd240 2.297 . S
O250 C245 1.247 . S
O251 Cd240 2.439 . S
O251 C245 1.208 . S
O252 Cd253 2.223 . S
O252 C260 1.315 . S
Cd253 O252 2.223 . S
Cd253 O256 2.297 . S
Cd253 O257 2.439 . S
Cd253 O263 2.240 . S
Cd254 O255 2.240 . S
Cd254 O262 2.223 . S
Cd254 O264 2.297 . S
Cd254 O265 2.439 . S
O255 Cd254 2.240 . S
O255 C260 1.279 . S
O256 Cd253 2.297 . S
O256 C258 1.247 . S
O257 Cd253 2.439 . S
O257 C258 1.208 . S
C258 O256 1.247 . S
C258 O257 1.208 . S
C259 O264 1.247 . S
C259 O265 1.208 . S
C260 O252 1.315 . S
C260 O255 1.279 . S
C261 O262 1.315 . S
C261 O263 1.279 . S
O262 Cd254 2.223 . S
O262 C261 1.315 . S
O263 Cd253 2.240 . S
O263 C261 1.279 . S
O264 Cd254 2.297 . S
O264 C259 1.247 . S
O265 Cd254 2.439 . S
O265 C259 1.208 . S
O266 Cd267 2.223 . S
O266 C274 1.315 . S
Cd267 O266 2.223 . S
Cd267 O270 2.297 . S
Cd267 O271 2.439 . S
Cd267 O277 2.240 . S
Cd268 O269 2.240 . S
Cd268 O276 2.223 . S
Cd268 O278 2.297 . S
Cd268 O279 2.439 . S
O269 Cd268 2.240 . S
O269 C274 1.279 . S
O270 Cd267 2.297 . S
O270 C272 1.247 . S
O271 Cd267 2.439 . S
O271 C272 1.208 . S
C272 O270 1.247 . S
C272 O271 1.208 . S
C273 O278 1.247 . S
C273 O279 1.208 . S
C274 O266 1.315 . S
C274 O269 1.279 . S
C275 O276 1.315 . S
C275 O277 1.279 . S
O276 Cd268 2.223 . S
O276 C275 1.315 . S
O277 Cd267 2.240 . S
O277 C275 1.279 . S
O278 Cd268 2.297 . S
O278 C273 1.247 . S
O279 Cd268 2.439 . S
O279 C273 1.208 . S
O280 Cd281 2.223 . S
O280 C288 1.315 . S
Cd281 O280 2.223 . S
Cd281 O284 2.297 . S
Cd281 O285 2.439 . S
Cd281 O291 2.240 . S
Cd282 O283 2.240 . S
Cd282 O290 2.223 . S
Cd282 O292 2.297 . S
Cd282 O293 2.439 . S
O283 Cd282 2.240 . S
O283 C288 1.279 . S
O284 Cd281 2.297 . S
O284 C286 1.247 . S
O285 Cd281 2.439 . S
O285 C286 1.208 . S
C286 O284 1.247 . S
C286 O285 1.208 . S
C287 O292 1.247 . S
C287 O293 1.208 . S
C288 O280 1.315 . S
C288 O283 1.279 . S
C289 O290 1.315 . S
C289 O291 1.279 . S
O290 Cd282 2.223 . S
O290 C289 1.315 . S
O291 Cd281 2.240 . S
O291 C289 1.279 . S
O292 Cd282 2.297 . S
O292 C287 1.247 . S
O293 Cd282 2.439 . S
O293 C287 1.208 . S
O294 Cd295 2.223 . S
O294 C302 1.315 . S
Cd295 O294 2.223 . S
Cd295 O298 2.297 . S
Cd295 O299 2.439 . S
Cd295 O305 2.240 . S
Cd296 O297 2.240 . S
Cd296 O304 2.223 . S
Cd296 O306 2.297 . S
Cd296 O307 2.439 . S
O297 Cd296 2.240 . S
O297 C302 1.279 . S
O298 Cd295 2.297 . S
O298 C300 1.247 . S
O299 Cd295 2.439 . S
O299 C300 1.208 . S
C300 O298 1.247 . S
C300 O299 1.208 . S
C301 O306 1.247 . S
C301 O307 1.208 . S
C302 O294 1.315 . S
C302 O297 1.279 . S
C303 O304 1.315 . S
C303 O305 1.279 . S
O304 Cd296 2.223 . S
O304 C303 1.315 . S
O305 Cd295 2.240 . S
O305 C303 1.279 . S
O306 Cd296 2.297 . S
O306 C301 1.247 . S
O307 Cd296 2.439 . S
O307 C301 1.208 . S
O308 Cd309 2.223 . S
O308 C316 1.315 . S
Cd309 O308 2.223 . S
Cd309 O312 2.297 . S
Cd309 O313 2.439 . S
Cd309 O319 2.240 . S
Cd310 O311 2.240 . S
Cd310 O318 2.223 . S
Cd310 O320 2.297 . S
Cd310 O321 2.439 . S
O311 Cd310 2.240 . S
O311 C316 1.279 . S
O312 Cd309 2.297 . S
O312 C314 1.247 . S
O313 Cd309 2.439 . S
O313 C314 1.208 . S
C314 O312 1.247 . S
C314 O313 1.208 . S
C315 O320 1.247 . S
C315 O321 1.208 . S
C316 O308 1.315 . S
C316 O311 1.279 . S
C317 O318 1.315 . S
C317 O319 1.279 . S
O318 Cd310 2.223 . S
O318 C317 1.315 . S
O319 Cd309 2.240 . S
O319 C317 1.279 . S
O320 Cd310 2.297 . S
O320 C315 1.247 . S
O321 Cd310 2.439 . S
O321 C315 1.208 . S
O322 Cd323 2.223 . S
O322 C330 1.315 . S
Cd323 O322 2.223 . S
Cd323 O326 2.297 . S
Cd323 O327 2.439 . S
Cd323 O333 2.240 . S
Cd324 O325 2.240 1_455 S
Cd324 O332 2.223 1_455 S
Cd324 O334 2.297 . S
Cd324 O335 2.439 1_455 S
O325 Cd324 2.240 1_655 S
O325 C330 1.279 . S
O326 Cd323 2.297 . S
O326 C328 1.247 . S
O327 Cd323 2.439 . S
O327 C328 1.208 . S
C328 O326 1.247 . S
C328 O327 1.208 . S
C329 O334 1.247 . S
C329 O335 1.208 1_455 S
C330 O322 1.315 . S
C330 O325 1.279 . S
C331 O332 1.315 . S
C331 O333 1.279 . S
O332 Cd324 2.223 1_655 S
O332 C331 1.315 . S
O333 Cd323 2.240 . S
O333 C331 1.279 . S
O334 Cd324 2.297 . S
O334 C329 1.247 . S
O335 Cd324 2.439 1_655 S
O335 C329 1.208 1_655 S
O336 Cd337 2.223 . S
O336 C344 1.315 . S
Cd337 O336 2.223 . S
Cd337 O340 2.297 . S
Cd337 O341 2.439 . S
Cd337 O347 2.240 . S
Cd338 O339 2.240 . S
Cd338 O346 2.223 . S
Cd338 O348 2.297 . S
Cd338 O349 2.439 . S
O339 Cd338 2.240 . S
O339 C344 1.279 . S
O340 Cd337 2.297 . S
O340 C342 1.247 . S
O341 Cd337 2.439 . S
O341 C342 1.208 . S
C342 O340 1.247 . S
C342 O341 1.208 . S
C343 O348 1.247 . S
C343 O349 1.208 . S
C344 O336 1.315 . S
C344 O339 1.279 . S
C345 O346 1.315 . S
C345 O347 1.279 . S
O346 Cd338 2.223 . S
O346 C345 1.315 . S
O347 Cd337 2.240 . S
O347 C345 1.279 . S
O348 Cd338 2.297 . S
O348 C343 1.247 . S
O349 Cd338 2.439 . S
O349 C343 1.208 . S
O350 Cd351 2.223 . S
O350 C358 1.315 . S
Cd351 O350 2.223 . S
Cd351 O354 2.297 . S
Cd351 O355 2.439 . S
Cd351 O361 2.240 . S
Cd352 O353 2.240 . S
Cd352 O360 2.223 . S
Cd352 O362 2.297 . S
Cd352 O363 2.439 . S
O353 Cd352 2.240 . S
O353 C358 1.279 . S
O354 Cd351 2.297 . S
O354 C356 1.247 . S
O355 Cd351 2.439 . S
O355 C356 1.208 . S
C356 O354 1.247 . S
C356 O355 1.208 . S
C357 O362 1.247 . S
C357 O363 1.208 . S
C358 O350 1.315 . S
C358 O353 1.279 . S
C359 O360 1.315 . S
C359 O361 1.279 . S
O360 Cd352 2.223 . S
O360 C359 1.315 . S
O361 Cd351 2.240 . S
O361 C359 1.279 . S
O362 Cd352 2.297 . S
O362 C357 1.247 . S
O363 Cd352 2.439 . S
O363 C357 1.208 . S
O364 Cd365 2.223 . S
O364 C372 1.315 . S
Cd365 O364 2.223 . S
Cd365 O368 2.297 . S
Cd365 O369 2.439 . S
Cd365 O375 2.240 . S
Cd366 O367 2.240 . S
Cd366 O374 2.223 . S
Cd366 O376 2.297 . S
Cd366 O377 2.439 . S
O367 Cd366 2.240 . S
O367 C372 1.279 . S
O368 Cd365 2.297 . S
O368 C370 1.247 . S
O369 Cd365 2.439 . S
O369 C370 1.208 . S
C370 O368 1.247 . S
C370 O369 1.208 . S
C371 O376 1.247 . S
C371 O377 1.208 . S
C372 O364 1.315 . S
C372 O367 1.279 . S
C373 O374 1.315 . S
C373 O375 1.279 . S
O374 Cd366 2.223 . S
O374 C373 1.315 . S
O375 Cd365 2.240 . S
O375 C373 1.279 . S
O376 Cd366 2.297 . S
O376 C371 1.247 . S
O377 Cd366 2.439 . S
O377 C371 1.208 . S
O378 Cd379 2.223 . S
O378 C386 1.315 . S
Cd379 O378 2.223 . S
Cd379 O382 2.297 . S
Cd379 O383 2.439 . S
Cd379 O389 2.240 . S
Cd380 O381 2.240 . S
Cd380 O388 2.223 . S
Cd380 O390 2.297 . S
Cd380 O391 2.439 . S
O381 Cd380 2.240 . S
O381 C386 1.279 . S
O382 Cd379 2.297 . S
O382 C384 1.247 . S
O383 Cd379 2.439 . S
O383 C384 1.208 . S
C384 O382 1.247 . S
C384 O383 1.208 . S
C385 O390 1.247 . S
C385 O391 1.208 . S
C386 O378 1.315 . S
C386 O381 1.279 . S
C387 O388 1.315 . S
C387 O389 1.279 . S
O388 Cd380 2.223 . S
O388 C387 1.315 . S
O389 Cd379 2.240 . S
O389 C387 1.279 . S
O390 Cd380 2.297 . S
O390 C385 1.247 . S
O391 Cd380 2.439 . S
O391 C385 1.208 . S
O392 Cd393 2.223 . S
O392 C400 1.315 . S
Cd393 O392 2.223 . S
Cd393 O396 2.297 . S
Cd393 O397 2.439 . S
Cd393 O403 2.240 . S
Cd394 O395 2.240 1_545 S
Cd394 O402 2.223 1_545 S
Cd394 O404 2.297 . S
Cd394 O405 2.439 1_545 S
O395 Cd394 2.240 1_565 S
O395 C400 1.279 . S
O396 Cd393 2.297 . S
O396 C398 1.247 . S
O397 Cd393 2.439 . S
O397 C398 1.208 . S
C398 O396 1.247 . S
C398 O397 1.208 . S
C399 O404 1.247 . S
C399 O405 1.208 1_545 S
C400 O392 1.315 . S
C400 O395 1.279 . S
C401 O402 1.315 . S
C401 O403 1.279 . S
O402 Cd394 2.223 1_565 S
O402 C401 1.315 . S
O403 Cd393 2.240 . S
O403 C401 1.279 . S
O404 Cd394 2.297 . S
O404 C399 1.247 . S
O405 Cd394 2.439 1_565 S
O405 C399 1.208 1_565 S
O406 Cd407 2.223 . S
O406 C414 1.315 . S
Cd407 O406 2.223 . S
Cd407 O410 2.297 . S
Cd407 O411 2.439 . S
Cd407 O417 2.240 . S
Cd408 O409 2.240 . S
Cd408 O416 2.223 . S
Cd408 O418 2.297 . S
Cd408 O419 2.439 . S
O409 Cd408 2.240 . S
O409 C414 1.279 . S
O410 Cd407 2.297 . S
O410 C412 1.247 . S
O411 Cd407 2.439 . S
O411 C412 1.208 . S
C412 O410 1.247 . S
C412 O411 1.208 . S
C413 O418 1.247 . S
C413 O419 1.208 . S
C414 O406 1.315 . S
C414 O409 1.279 . S
C415 O416 1.315 . S
C415 O417 1.279 . S
O416 Cd408 2.223 . S
O416 C415 1.315 . S
O417 Cd407 2.240 . S
O417 C415 1.279 . S
O418 Cd408 2.297 . S
O418 C413 1.247 . S
O419 Cd408 2.439 . S
O419 C413 1.208 . S
O420 Cd421 2.223 . S
O420 C428 1.315 . S
Cd421 O420 2.223 . S
Cd421 O424 2.297 . S
Cd421 O425 2.439 . S
Cd421 O431 2.240 . S
Cd422 O423 2.240 . S
Cd422 O430 2.223 . S
Cd422 O432 2.297 . S
Cd422 O433 2.439 . S
O423 Cd422 2.240 . S
O423 C428 1.279 . S
O424 Cd421 2.297 . S
O424 C426 1.247 . S
O425 Cd421 2.439 . S
O425 C426 1.208 . S
C426 O424 1.247 . S
C426 O425 1.208 . S
C427 O432 1.247 . S
C427 O433 1.208 . S
C428 O420 1.315 . S
C428 O423 1.279 . S
C429 O430 1.315 . S
C429 O431 1.279 . S
O430 Cd422 2.223 . S
O430 C429 1.315 . S
O431 Cd421 2.240 . S
O431 C429 1.279 . S
O432 Cd422 2.297 . S
O432 C427 1.247 . S
O433 Cd422 2.439 . S
O433 C427 1.208 . S
O434 Cd435 2.223 . S
O434 C442 1.315 . S
Cd435 O434 2.223 . S
Cd435 O438 2.297 . S
Cd435 O439 2.439 . S
Cd435 O445 2.240 . S
Cd436 O437 2.240 1_545 S
Cd436 O444 2.223 1_545 S
Cd436 O446 2.297 . S
Cd436 O447 2.439 1_545 S
O437 Cd436 2.240 1_565 S
O437 C442 1.279 . S
O438 Cd435 2.297 . S
O438 C440 1.247 . S
O439 Cd435 2.439 . S
O439 C440 1.208 . S
C440 O438 1.247 . S
C440 O439 1.208 . S
C441 O446 1.247 . S
C441 O447 1.208 1_545 S
C442 O434 1.315 . S
C442 O437 1.279 . S
C443 O444 1.315 . S
C443 O445 1.279 . S
O444 Cd436 2.223 1_565 S
O444 C443 1.315 . S
O445 Cd435 2.240 . S
O445 C443 1.279 . S
O446 Cd436 2.297 . S
O446 C441 1.247 . S
O447 Cd436 2.439 1_565 S
O447 C441 1.208 1_565 S
O448 Cd449 2.223 . S
O448 C456 1.315 . S
Cd449 O448 2.223 . S
Cd449 O452 2.297 . S
Cd449 O453 2.439 . S
Cd449 O459 2.240 . S
Cd450 O451 2.240 . S
Cd450 O458 2.223 . S
Cd450 O460 2.297 . S
Cd450 O461 2.439 . S
O451 Cd450 2.240 . S
O451 C456 1.279 . S
O452 Cd449 2.297 . S
O452 C454 1.247 . S
O453 Cd449 2.439 . S
O453 C454 1.208 . S
C454 O452 1.247 . S
C454 O453 1.208 . S
C455 O460 1.247 . S
C455 O461 1.208 . S
C456 O448 1.315 . S
C456 O451 1.279 . S
C457 O458 1.315 . S
C457 O459 1.279 . S
O458 Cd450 2.223 . S
O458 C457 1.315 . S
O459 Cd449 2.240 . S
O459 C457 1.279 . S
O460 Cd450 2.297 . S
O460 C455 1.247 . S
O461 Cd450 2.439 . S
O461 C455 1.208 . S
O462 Cd463 2.223 . S
O462 C470 1.315 . S
Cd463 O462 2.223 . S
Cd463 O466 2.297 . S
Cd463 O467 2.439 . S
Cd463 O473 2.240 . S
Cd464 O465 2.240 . S
Cd464 O472 2.223 . S
Cd464 O474 2.297 . S
Cd464 O475 2.439 . S
O465 Cd464 2.240 . S
O465 C470 1.279 . S
O466 Cd463 2.297 . S
O466 C468 1.247 . S
O467 Cd463 2.439 . S
O467 C468 1.208 . S
C468 O466 1.247 . S
C468 O467 1.208 . S
C469 O474 1.247 . S
C469 O475 1.208 . S
C470 O462 1.315 . S
C470 O465 1.279 . S
C471 O472 1.315 . S
C471 O473 1.279 . S
O472 Cd464 2.223 . S
O472 C471 1.315 . S
O473 Cd463 2.240 . S
O473 C471 1.279 . S
O474 Cd464 2.297 . S
O474 C469 1.247 . S
O475 Cd464 2.439 . S
O475 C469 1.208 . S
O476 Cd477 2.223 . S
O476 C484 1.315 . S
Cd477 O476 2.223 . S
Cd477 O480 2.297 . S
Cd477 O481 2.439 . S
Cd477 O487 2.240 . S
Cd478 O479 2.240 . S
Cd478 O486 2.223 . S
Cd478 O488 2.297 . S
Cd478 O489 2.439 . S
O479 Cd478 2.240 . S
O479 C484 1.279 . S
O480 Cd477 2.297 . S
O480 C482 1.247 . S
O481 Cd477 2.439 . S
O481 C482 1.208 . S
C482 O480 1.247 . S
C482 O481 1.208 . S
C483 O488 1.247 . S
C483 O489 1.208 . S
C484 O476 1.315 . S
C484 O479 1.279 . S
C485 O486 1.315 . S
C485 O487 1.279 . S
O486 Cd478 2.223 . S
O486 C485 1.315 . S
O487 Cd477 2.240 . S
O487 C485 1.279 . S
O488 Cd478 2.297 . S
O488 C483 1.247 . S
O489 Cd478 2.439 . S
O489 C483 1.208 . S
O490 Cd491 2.223 . S
O490 C498 1.315 . S
Cd491 O490 2.223 . S
Cd491 O494 2.297 . S
Cd491 O495 2.439 . S
Cd491 O501 2.240 . S
Cd492 O493 2.240 . S
Cd492 O500 2.223 . S
Cd492 O502 2.297 . S
Cd492 O503 2.439 . S
O493 Cd492 2.240 . S
O493 C498 1.279 . S
O494 Cd491 2.297 . S
O494 C496 1.247 . S
O495 Cd491 2.439 . S
O495 C496 1.208 . S
C496 O494 1.247 . S
C496 O495 1.208 . S
C497 O502 1.247 . S
C497 O503 1.208 . S
C498 O490 1.315 . S
C498 O493 1.279 . S
C499 O500 1.315 . S
C499 O501 1.279 . S
O500 Cd492 2.223 . S
O500 C499 1.315 . S
O501 Cd491 2.240 . S
O501 C499 1.279 . S
O502 Cd492 2.297 . S
O502 C497 1.247 . S
O503 Cd492 2.439 . S
O503 C497 1.208 . S
C504 C505 1.363 . S
C504 C510 1.379 . S
C504 N512 1.356 . S
C505 C504 1.363 . S
C505 C511 1.363 . S
C506 C507 1.363 . S
C506 C511 1.379 . S
C506 N513 1.356 . S
C507 C506 1.363 . S
C507 C510 1.363 . S
N508 C510 1.356 . S
N508 H520 0.984 . S
N508 H521 0.985 . S
N509 C511 1.356 . S
N509 H514 0.984 . S
N509 H515 0.985 . S
C510 C504 1.379 . S
C510 C507 1.363 . S
C510 N508 1.356 . S
C511 C505 1.363 . S
C511 C506 1.379 . S
C511 N509 1.356 . S
N512 C504 1.356 . S
N512 H518 0.984 . S
N512 H519 0.984 . S
N513 C506 1.356 . S
N513 H516 0.984 . S
N513 H517 0.985 . S
H514 N509 0.984 . S
H515 N509 0.985 . S
H516 N513 0.984 . S
H517 N513 0.985 . S
H518 N512 0.984 . S
H519 N512 0.984 . S
H520 N508 0.984 . S
H521 N508 0.985 . S
C522 C523 1.363 . S
C522 C528 1.379 . S
C522 N530 1.356 . S
C523 C522 1.363 . S
C523 C529 1.363 . S
C524 C525 1.363 . S
C524 C529 1.379 . S
C524 N531 1.356 . S
C525 C524 1.363 . S
C525 C528 1.363 . S
N526 C528 1.356 . S
N526 H538 0.984 . S
N526 H539 0.985 . S
N527 C529 1.356 . S
N527 H532 0.984 . S
N527 H533 0.985 . S
C528 C522 1.379 . S
C528 C525 1.363 . S
C528 N526 1.356 . S
C529 C523 1.363 . S
C529 C524 1.379 . S
C529 N527 1.356 . S
N530 C522 1.356 . S
N530 H536 0.984 . S
N530 H537 0.984 . S
N531 C524 1.356 . S
N531 H534 0.984 . S
N531 H535 0.985 . S
H532 N527 0.984 . S
H533 N527 0.985 . S
H534 N531 0.984 . S
H535 N531 0.985 . S
H536 N530 0.984 . S
H537 N530 0.984 . S
H538 N526 0.984 . S
H539 N526 0.985 . S
C540 C541 1.363 . S
C540 C546 1.379 . S
C540 N548 1.356 . S
C541 C540 1.363 . S
C541 C547 1.363 . S
C542 C543 1.363 . S
C542 C547 1.379 . S
C542 N549 1.356 . S
C543 C542 1.363 . S
C543 C546 1.363 . S
N544 C546 1.356 . S
N544 H556 0.984 . S
N544 H557 0.985 . S
N545 C547 1.356 . S
N545 H550 0.984 . S
N545 H551 0.985 . S
C546 C540 1.379 . S
C546 C543 1.363 . S
C546 N544 1.356 . S
C547 C541 1.363 . S
C547 C542 1.379 . S
C547 N545 1.356 . S
N548 C540 1.356 . S
N548 H554 0.984 . S
N548 H555 0.984 . S
N549 C542 1.356 . S
N549 H552 0.984 . S
N549 H553 0.985 . S
H550 N545 0.984 . S
H551 N545 0.985 . S
H552 N549 0.984 . S
H553 N549 0.985 . S
H554 N548 0.984 . S
H555 N548 0.984 . S
H556 N544 0.984 . S
H557 N544 0.985 . S
C558 C559 1.363 . S
C558 C564 1.379 . S
C558 N566 1.356 . S
C559 C558 1.363 . S
C559 C565 1.363 . S
C560 C561 1.363 . S
C560 C565 1.379 . S
C560 N567 1.356 . S
C561 C560 1.363 . S
C561 C564 1.363 . S
N562 C564 1.356 . S
N562 H574 0.984 . S
N562 H575 0.985 . S
N563 C565 1.356 . S
N563 H568 0.984 . S
N563 H569 0.985 . S
C564 C558 1.379 . S
C564 C561 1.363 . S
C564 N562 1.356 . S
C565 C559 1.363 . S
C565 C560 1.379 . S
C565 N563 1.356 . S
N566 C558 1.356 . S
N566 H572 0.984 . S
N566 H573 0.984 . S
N567 C560 1.356 . S
N567 H570 0.984 . S
N567 H571 0.985 . S
H568 N563 0.984 . S
H569 N563 0.985 . S
H570 N567 0.984 . S
H571 N567 0.985 . S
H572 N566 0.984 . S
H573 N566 0.984 . S
H574 N562 0.984 . S
H575 N562 0.985 . S
C576 C577 1.363 . S
C576 C582 1.379 . S
C576 N584 1.356 . S
C577 C576 1.363 . S
C577 C583 1.363 . S
C578 C579 1.363 . S
C578 C583 1.379 . S
C578 N585 1.356 . S
C579 C578 1.363 . S
C579 C582 1.363 . S
N580 C582 1.356 . S
N580 H592 0.984 . S
N580 H593 0.985 . S
N581 C583 1.356 . S
N581 H586 0.984 . S
N581 H587 0.985 . S
C582 C576 1.379 . S
C582 C579 1.363 . S
C582 N580 1.356 . S
C583 C577 1.363 . S
C583 C578 1.379 . S
C583 N581 1.356 . S
N584 C576 1.356 . S
N584 H590 0.984 . S
N584 H591 0.984 . S
N585 C578 1.356 . S
N585 H588 0.984 . S
N585 H589 0.985 . S
H586 N581 0.984 . S
H587 N581 0.985 . S
H588 N585 0.984 . S
H589 N585 0.985 . S
H590 N584 0.984 . S
H591 N584 0.984 . S
H592 N580 0.984 . S
H593 N580 0.985 . S
C594 C595 1.363 . S
C594 C600 1.379 . S
C594 N602 1.356 . S
C595 C594 1.363 . S
C595 C601 1.363 . S
C596 C597 1.363 . S
C596 C601 1.379 . S
C596 N603 1.356 . S
C597 C596 1.363 . S
C597 C600 1.363 . S
N598 C600 1.356 . S
N598 H610 0.984 . S
N598 H611 0.985 . S
N599 C601 1.356 . S
N599 H604 0.984 . S
N599 H605 0.985 . S
C600 C594 1.379 . S
C600 C597 1.363 . S
C600 N598 1.356 . S
C601 C595 1.363 . S
C601 C596 1.379 . S
C601 N599 1.356 . S
N602 C594 1.356 . S
N602 H608 0.984 . S
N602 H609 0.984 . S
N603 C596 1.356 . S
N603 H606 0.984 . S
N603 H607 0.985 . S
H604 N599 0.984 . S
H605 N599 0.985 . S
H606 N603 0.984 . S
H607 N603 0.985 . S
H608 N602 0.984 . S
H609 N602 0.984 . S
H610 N598 0.984 . S
H611 N598 0.985 . S
C612 C613 1.363 . S
C612 C618 1.379 . S
C612 N620 1.356 . S
C613 C612 1.363 . S
C613 C619 1.363 . S
C614 C615 1.363 . S
C614 C619 1.379 . S
C614 N621 1.356 . S
C615 C614 1.363 . S
C615 C618 1.363 . S
N616 C618 1.356 . S
N616 H628 0.984 . S
N616 H629 0.985 . S
N617 C619 1.356 . S
N617 H622 0.984 . S
N617 H623 0.985 . S
C618 C612 1.379 . S
C618 C615 1.363 . S
C618 N616 1.356 . S
C619 C613 1.363 . S
C619 C614 1.379 . S
C619 N617 1.356 . S
N620 C612 1.356 . S
N620 H626 0.984 . S
N620 H627 0.984 . S
N621 C614 1.356 . S
N621 H624 0.984 . S
N621 H625 0.985 . S
H622 N617 0.984 . S
H623 N617 0.985 . S
H624 N621 0.984 . S
H625 N621 0.985 . S
H626 N620 0.984 . S
H627 N620 0.984 . S
H628 N616 0.984 . S
H629 N616 0.985 . S
C630 C631 1.363 . S
C630 C636 1.379 . S
C630 N638 1.356 . S
C631 C630 1.363 . S
C631 C637 1.363 . S
C632 C633 1.363 . S
C632 C637 1.379 . S
C632 N639 1.356 . S
C633 C632 1.363 . S
C633 C636 1.363 . S
N634 C636 1.356 . S
N634 H646 0.984 . S
N634 H647 0.985 . S
N635 C637 1.356 . S
N635 H640 0.984 . S
N635 H641 0.985 . S
C636 C630 1.379 . S
C636 C633 1.363 . S
C636 N634 1.356 . S
C637 C631 1.363 . S
C637 C632 1.379 . S
C637 N635 1.356 . S
N638 C630 1.356 . S
N638 H644 0.984 . S
N638 H645 0.984 . S
N639 C632 1.356 . S
N639 H642 0.984 . S
N639 H643 0.985 . S
H640 N635 0.984 . S
H641 N635 0.985 . S
H642 N639 0.984 . S
H643 N639 0.985 . S
H644 N638 0.984 . S
H645 N638 0.984 . S
H646 N634 0.984 . S
H647 N634 0.985 . S
C648 C649 1.363 . S
C648 C654 1.379 . S
C648 N656 1.356 . S
C649 C648 1.363 . S
C649 C655 1.363 . S
C650 C651 1.363 . S
C650 C655 1.379 . S
C650 N657 1.356 . S
C651 C650 1.363 . S
C651 C654 1.363 . S
N652 C654 1.356 . S
N652 H664 0.984 . S
N652 H665 0.985 . S
N653 C655 1.356 . S
N653 H658 0.984 . S
N653 H659 0.985 . S
C654 C648 1.379 . S
C654 C651 1.363 . S
C654 N652 1.356 . S
C655 C649 1.363 . S
C655 C650 1.379 . S
C655 N653 1.356 . S
N656 C648 1.356 . S
N656 H662 0.984 . S
N656 H663 0.984 . S
N657 C650 1.356 . S
N657 H660 0.984 . S
N657 H661 0.985 . S
H658 N653 0.984 . S
H659 N653 0.985 . S
H660 N657 0.984 . S
H661 N657 0.985 . S
H662 N656 0.984 . S
H663 N656 0.984 . S
H664 N652 0.984 . S
H665 N652 0.985 . S
C666 C667 1.363 . S
C666 C672 1.379 . S
C666 N674 1.356 . S
C667 C666 1.363 . S
C667 C673 1.363 . S
C668 C669 1.363 . S
C668 C673 1.379 . S
C668 N675 1.356 . S
C669 C668 1.363 . S
C669 C672 1.363 . S
N670 C672 1.356 . S
N670 H682 0.984 . S
N670 H683 0.985 . S
N671 C673 1.356 . S
N671 H676 0.984 . S
N671 H677 0.985 1_655 S
C672 C666 1.379 . S
C672 C669 1.363 . S
C672 N670 1.356 . S
C673 C667 1.363 . S
C673 C668 1.379 . S
C673 N671 1.356 . S
N674 C666 1.356 . S
N674 H680 0.984 . S
N674 H681 0.984 . S
N675 C668 1.356 . S
N675 H678 0.984 . S
N675 H679 0.985 1_655 S
H676 N671 0.984 . S
H677 N671 0.985 1_455 S
H678 N675 0.984 . S
H679 N675 0.985 1_455 S
H680 N674 0.984 . S
H681 N674 0.984 . S
H682 N670 0.984 . S
H683 N670 0.985 . S
C684 C685 1.363 . S
C684 C690 1.379 . S
C684 N692 1.356 . S
C685 C684 1.363 . S
C685 C691 1.363 . S
C686 C687 1.363 . S
C686 C691 1.379 . S
C686 N693 1.356 . S
C687 C686 1.363 . S
C687 C690 1.363 . S
N688 C690 1.356 . S
N688 H700 0.984 . S
N688 H701 0.985 . S
N689 C691 1.356 . S
N689 H694 0.984 . S
N689 H695 0.985 . S
C690 C684 1.379 . S
C690 C687 1.363 . S
C690 N688 1.356 . S
C691 C685 1.363 . S
C691 C686 1.379 . S
C691 N689 1.356 . S
N692 C684 1.356 . S
N692 H698 0.984 . S
N692 H699 0.984 . S
N693 C686 1.356 . S
N693 H696 0.984 . S
N693 H697 0.985 . S
H694 N689 0.984 . S
H695 N689 0.985 . S
H696 N693 0.984 . S
H697 N693 0.985 . S
H698 N692 0.984 . S
H699 N692 0.984 . S
H700 N688 0.984 . S
H701 N688 0.985 . S
C702 C703 1.363 . S
C702 C708 1.379 . S
C702 N710 1.356 . S
C703 C702 1.363 . S
C703 C709 1.363 . S
C704 C705 1.363 . S
C704 C709 1.379 . S
C704 N711 1.356 . S
C705 C704 1.363 . S
C705 C708 1.363 . S
N706 C708 1.356 . S
N706 H718 0.984 . S
N706 H719 0.985 . S
N707 C709 1.356 . S
N707 H712 0.984 . S
N707 H713 0.985 . S
C708 C702 1.379 . S
C708 C705 1.363 . S
C708 N706 1.356 . S
C709 C703 1.363 . S
C709 C704 1.379 . S
C709 N707 1.356 . S
N710 C702 1.356 . S
N710 H716 0.984 . S
N710 H717 0.984 . S
N711 C704 1.356 . S
N711 H714 0.984 . S
N711 H715 0.985 . S
H712 N707 0.984 . S
H713 N707 0.985 . S
H714 N711 0.984 . S
H715 N711 0.985 . S
H716 N710 0.984 . S
H717 N710 0.984 . S
H718 N706 0.984 . S
H719 N706 0.985 . S
C720 C721 1.363 . S
C720 C726 1.379 . S
C720 N728 1.356 . S
C721 C720 1.363 . S
C721 C727 1.363 . S
C722 C723 1.363 . S
C722 C727 1.379 . S
C722 N729 1.356 1_565 S
C723 C722 1.363 . S
C723 C726 1.363 . S
N724 C726 1.356 . S
N724 H736 0.984 . S
N724 H737 0.985 . S
N725 C727 1.356 1_545 S
N725 H730 0.984 1_545 S
N725 H731 0.985 . S
C726 C720 1.379 . S
C726 C723 1.363 . S
C726 N724 1.356 . S
C727 C721 1.363 . S
C727 C722 1.379 . S
C727 N725 1.356 1_565 S
N728 C720 1.356 . S
N728 H734 0.984 . S
N728 H735 0.984 . S
N729 C722 1.356 1_545 S
N729 H732 0.984 1_545 S
N729 H733 0.985 . S
H730 N725 0.984 1_565 S
H731 N725 0.985 . S
H732 N729 0.984 1_565 S
H733 N729 0.985 . S
H734 N728 0.984 . S
H735 N728 0.984 . S
H736 N724 0.984 . S
H737 N724 0.985 . S
C738 C739 1.363 . S
C738 C744 1.379 . S
C738 N746 1.356 . S
C739 C738 1.363 . S
C739 C745 1.363 . S
C740 C741 1.363 . S
C740 C745 1.379 . S
C740 N747 1.356 . S
C741 C740 1.363 . S
C741 C744 1.363 . S
N742 C744 1.356 . S
N742 H754 0.984 . S
N742 H755 0.985 . S
N743 C745 1.356 . S
N743 H748 0.984 . S
N743 H749 0.985 . S
C744 C738 1.379 . S
C744 C741 1.363 . S
C744 N742 1.356 . S
C745 C739 1.363 . S
C745 C740 1.379 . S
C745 N743 1.356 . S
N746 C738 1.356 . S
N746 H752 0.984 . S
N746 H753 0.984 . S
N747 C740 1.356 . S
N747 H750 0.984 . S
N747 H751 0.985 . S
H748 N743 0.984 . S
H749 N743 0.985 . S
H750 N747 0.984 . S
H751 N747 0.985 . S
H752 N746 0.984 . S
H753 N746 0.984 . S
H754 N742 0.984 . S
H755 N742 0.985 . S
C756 C757 1.363 . S
C756 C762 1.379 . S
C756 N764 1.356 . S
C757 C756 1.363 . S
C757 C763 1.363 . S
C758 C759 1.363 . S
C758 C763 1.379 . S
C758 N765 1.356 . S
C759 C758 1.363 . S
C759 C762 1.363 . S
N760 C762 1.356 . S
N760 H772 0.984 . S
N760 H773 0.985 . S
N761 C763 1.356 . S
N761 H766 0.984 . S
N761 H767 0.985 . S
C762 C756 1.379 . S
C762 C759 1.363 . S
C762 N760 1.356 . S
C763 C757 1.363 . S
C763 C758 1.379 . S
C763 N761 1.356 . S
N764 C756 1.356 . S
N764 H770 0.984 . S
N764 H771 0.984 . S
N765 C758 1.356 . S
N765 H768 0.984 . S
N765 H769 0.985 . S
H766 N761 0.984 . S
H767 N761 0.985 . S
H768 N765 0.984 . S
H769 N765 0.985 . S
H770 N764 0.984 . S
H771 N764 0.984 . S
H772 N760 0.984 . S
H773 N760 0.985 . S
C774 C775 1.363 . S
C774 C780 1.379 . S
C774 N782 1.356 . S
C775 C774 1.363 . S
C775 C781 1.363 . S
C776 C777 1.363 . S
C776 C781 1.379 . S
C776 N783 1.356 . S
C777 C776 1.363 . S
C777 C780 1.363 . S
N778 C780 1.356 . S
N778 H790 0.984 . S
N778 H791 0.985 . S
N779 C781 1.356 . S
N779 H784 0.984 . S
N779 H785 0.985 . S
C780 C774 1.379 . S
C780 C777 1.363 . S
C780 N778 1.356 . S
C781 C775 1.363 . S
C781 C776 1.379 . S
C781 N779 1.356 . S
N782 C774 1.356 . S
N782 H788 0.984 . S
N782 H789 0.984 . S
N783 C776 1.356 . S
N783 H786 0.984 . S
N783 H787 0.985 . S
H784 N779 0.984 . S
H785 N779 0.985 . S
H786 N783 0.984 . S
H787 N783 0.985 . S
H788 N782 0.984 . S
H789 N782 0.984 . S
H790 N778 0.984 . S
H791 N778 0.985 . S
C792 C793 1.363 . S
C792 C798 1.379 . S
C792 N800 1.356 . S
C793 C792 1.363 . S
C793 C799 1.363 . S
C794 C795 1.363 . S
C794 C799 1.379 . S
C794 N801 1.356 . S
C795 C794 1.363 . S
C795 C798 1.363 . S
N796 C798 1.356 . S
N796 H808 0.984 . S
N796 H809 0.985 . S
N797 C799 1.356 . S
N797 H802 0.984 . S
N797 H803 0.985 . S
C798 C792 1.379 . S
C798 C795 1.363 . S
C798 N796 1.356 . S
C799 C793 1.363 . S
C799 C794 1.379 . S
C799 N797 1.356 . S
N800 C792 1.356 . S
N800 H806 0.984 . S
N800 H807 0.984 . S
N801 C794 1.356 . S
N801 H804 0.984 . S
N801 H805 0.985 . S
H802 N797 0.984 . S
H803 N797 0.985 . S
H804 N801 0.984 . S
H805 N801 0.985 . S
H806 N800 0.984 . S
H807 N800 0.984 . S
H808 N796 0.984 . S
H809 N796 0.985 . S
C810 C811 1.363 . S
C810 C816 1.379 . S
C810 N818 1.356 . S
C811 C810 1.363 . S
C811 C817 1.363 . S
C812 C813 1.363 . S
C812 C817 1.379 . S
C812 N819 1.356 . S
C813 C812 1.363 . S
C813 C816 1.363 . S
N814 C816 1.356 . S
N814 H826 0.984 . S
N814 H827 0.985 . S
N815 C817 1.356 . S
N815 H820 0.984 . S
N815 H821 0.985 . S
C816 C810 1.379 . S
C816 C813 1.363 . S
C816 N814 1.356 . S
C817 C811 1.363 . S
C817 C812 1.379 . S
C817 N815 1.356 . S
N818 C810 1.356 . S
N818 H824 0.984 . S
N818 H825 0.984 . S
N819 C812 1.356 . S
N819 H822 0.984 . S
N819 H823 0.985 . S
H820 N815 0.984 . S
H821 N815 0.985 . S
H822 N819 0.984 . S
H823 N819 0.985 . S
H824 N818 0.984 . S
H825 N818 0.984 . S
H826 N814 0.984 . S
H827 N814 0.985 . S
C828 C829 1.363 1_455 S
C828 C834 1.379 . S
C828 N836 1.356 . S
C829 C828 1.363 1_655 S
C829 C835 1.363 . S
C830 C831 1.363 . S
C830 C835 1.379 . S
C830 N837 1.356 . S
C831 C830 1.363 . S
C831 C834 1.363 1_655 S
N832 C834 1.356 . S
N832 H844 0.984 . S
N832 H845 0.985 . S
N833 C835 1.356 . S
N833 H838 0.984 . S
N833 H839 0.985 . S
C834 C828 1.379 . S
C834 C831 1.363 1_455 S
C834 N832 1.356 . S
C835 C829 1.363 . S
C835 C830 1.379 . S
C835 N833 1.356 . S
N836 C828 1.356 . S
N836 H842 0.984 . S
N836 H843 0.984 . S
N837 C830 1.356 . S
N837 H840 0.984 . S
N837 H841 0.985 . S
H838 N833 0.984 . S
H839 N833 0.985 . S
H840 N837 0.984 . S
H841 N837 0.985 . S
H842 N836 0.984 . S
H843 N836 0.984 . S
H844 N832 0.984 . S
H845 N832 0.985 . S
C846 C847 1.363 . S
C846 C852 1.379 . S
C846 N854 1.356 . S
C847 C846 1.363 . S
C847 C853 1.363 . S
C848 C849 1.363 . S
C848 C853 1.379 . S
C848 N855 1.356 . S
C849 C848 1.363 . S
C849 C852 1.363 . S
N850 C852 1.356 . S
N850 H862 0.984 . S
N850 H863 0.985 . S
N851 C853 1.356 . S
N851 H856 0.984 . S
N851 H857 0.985 . S
C852 C846 1.379 . S
C852 C849 1.363 . S
C852 N850 1.356 . S
C853 C847 1.363 . S
C853 C848 1.379 . S
C853 N851 1.356 . S
N854 C846 1.356 . S
N854 H860 0.984 . S
N854 H861 0.984 . S
N855 C848 1.356 . S
N855 H858 0.984 . S
N855 H859 0.985 . S
H856 N851 0.984 . S
H857 N851 0.985 . S
H858 N855 0.984 . S
H859 N855 0.985 . S
H860 N854 0.984 . S
H861 N854 0.984 . S
H862 N850 0.984 . S
H863 N850 0.985 . S
C864 C865 1.363 . S
C864 C870 1.379 . S
C864 N872 1.356 . S
C865 C864 1.363 . S
C865 C871 1.363 . S
C866 C867 1.363 . S
C866 C871 1.379 . S
C866 N873 1.356 . S
C867 C866 1.363 . S
C867 C870 1.363 . S
N868 C870 1.356 . S
N868 H880 0.984 . S
N868 H881 0.985 . S
N869 C871 1.356 . S
N869 H874 0.984 . S
N869 H875 0.985 . S
C870 C864 1.379 . S
C870 C867 1.363 . S
C870 N868 1.356 . S
C871 C865 1.363 . S
C871 C866 1.379 . S
C871 N869 1.356 . S
N872 C864 1.356 . S
N872 H878 0.984 . S
N872 H879 0.984 . S
N873 C866 1.356 . S
N873 H876 0.984 . S
N873 H877 0.985 . S
H874 N869 0.984 . S
H875 N869 0.985 . S
H876 N873 0.984 . S
H877 N873 0.985 . S
H878 N872 0.984 . S
H879 N872 0.984 . S
H880 N868 0.984 . S
H881 N868 0.985 . S
C882 C883 1.363 . S
C882 C888 1.379 . S
C882 N890 1.356 . S
C883 C882 1.363 . S
C883 C889 1.363 1_565 S
C884 C885 1.363 1_545 S
C884 C889 1.379 . S
C884 N891 1.356 . S
C885 C884 1.363 1_565 S
C885 C888 1.363 . S
N886 C888 1.356 . S
N886 H898 0.984 . S
N886 H899 0.985 . S
N887 C889 1.356 . S
N887 H892 0.984 . S
N887 H893 0.985 . S
C888 C882 1.379 . S
C888 C885 1.363 . S
C888 N886 1.356 . S
C889 C883 1.363 1_545 S
C889 C884 1.379 . S
C889 N887 1.356 . S
N890 C882 1.356 . S
N890 H896 0.984 . S
N890 H897 0.984 . S
N891 C884 1.356 . S
N891 H894 0.984 . S
N891 H895 0.985 . S
H892 N887 0.984 . S
H893 N887 0.985 . S
H894 N891 0.984 . S
H895 N891 0.985 . S
H896 N890 0.984 . S
H897 N890 0.984 . S
H898 N886 0.984 . S
H899 N886 0.985 . S
C900 C901 1.363 . S
C900 C906 1.379 . S
C900 N908 1.356 . S
C901 C900 1.363 . S
C901 C907 1.363 . S
C902 C903 1.363 . S
C902 C907 1.379 . S
C902 N909 1.356 . S
C903 C902 1.363 . S
C903 C906 1.363 . S
N904 C906 1.356 . S
N904 H916 0.984 . S
N904 H917 0.985 . S
N905 C907 1.356 . S
N905 H910 0.984 . S
N905 H911 0.985 . S
C906 C900 1.379 . S
C906 C903 1.363 . S
C906 N904 1.356 . S
C907 C901 1.363 . S
C907 C902 1.379 . S
C907 N905 1.356 . S
N908 C900 1.356 . S
N908 H914 0.984 . S
N908 H915 0.984 . S
N909 C902 1.356 . S
N909 H912 0.984 . S
N909 H913 0.985 1_455 S
H910 N905 0.984 . S
H911 N905 0.985 . S
H912 N909 0.984 . S
H913 N909 0.985 1_655 S
H914 N908 0.984 . S
H915 N908 0.984 . S
H916 N904 0.984 . S
H917 N904 0.985 . S
C918 C919 1.363 . S
C918 C924 1.379 . S
C918 N926 1.356 . S
C919 C918 1.363 . S
C919 C925 1.363 . S
C920 C921 1.363 . S
C920 C925 1.379 . S
C920 N927 1.356 . S
C921 C920 1.363 . S
C921 C924 1.363 . S
N922 C924 1.356 . S
N922 H934 0.984 . S
N922 H935 0.985 . S
N923 C925 1.356 . S
N923 H928 0.984 . S
N923 H929 0.985 . S
C924 C918 1.379 . S
C924 C921 1.363 . S
C924 N922 1.356 . S
C925 C919 1.363 . S
C925 C920 1.379 . S
C925 N923 1.356 . S
N926 C918 1.356 . S
N926 H932 0.984 . S
N926 H933 0.984 . S
N927 C920 1.356 . S
N927 H930 0.984 . S
N927 H931 0.985 . S
H928 N923 0.984 . S
H929 N923 0.985 . S
H930 N927 0.984 . S
H931 N927 0.985 . S
H932 N926 0.984 . S
H933 N926 0.984 . S
H934 N922 0.984 . S
H935 N922 0.985 . S
C936 C937 1.363 . S
C936 C942 1.379 . S
C936 N944 1.356 . S
C937 C936 1.363 . S
C937 C943 1.363 . S
C938 C939 1.363 . S
C938 C943 1.379 . S
C938 N945 1.356 . S
C939 C938 1.363 . S
C939 C942 1.363 . S
N940 C942 1.356 . S
N940 H952 0.984 . S
N940 H953 0.985 . S
N941 C943 1.356 . S
N941 H946 0.984 . S
N941 H947 0.985 . S
C942 C936 1.379 . S
C942 C939 1.363 . S
C942 N940 1.356 . S
C943 C937 1.363 . S
C943 C938 1.379 . S
C943 N941 1.356 . S
N944 C936 1.356 . S
N944 H950 0.984 1_455 S
N944 H951 0.984 . S
N945 C938 1.356 . S
N945 H948 0.984 . S
N945 H949 0.985 . S
H946 N941 0.984 . S
H947 N941 0.985 . S
H948 N945 0.984 . S
H949 N945 0.985 . S
H950 N944 0.984 1_655 S
H951 N944 0.984 . S
H952 N940 0.984 . S
H953 N940 0.985 . S
C954 C955 1.363 . S
C954 C960 1.379 . S
C954 N962 1.356 . S
C955 C954 1.363 . S
C955 C961 1.363 . S
C956 C957 1.363 . S
C956 C961 1.379 . S
C956 N963 1.356 . S
C957 C956 1.363 . S
C957 C960 1.363 . S
N958 C960 1.356 . S
N958 H970 0.984 . S
N958 H971 0.985 . S
N959 C961 1.356 . S
N959 H964 0.984 . S
N959 H965 0.985 . S
C960 C954 1.379 . S
C960 C957 1.363 . S
C960 N958 1.356 . S
C961 C955 1.363 . S
C961 C956 1.379 . S
C961 N959 1.356 . S
N962 C954 1.356 . S
N962 H968 0.984 . S
N962 H969 0.984 . S
N963 C956 1.356 . S
N963 H966 0.984 . S
N963 H967 0.985 . S
H964 N959 0.984 . S
H965 N959 0.985 . S
H966 N963 0.984 . S
H967 N963 0.985 . S
H968 N962 0.984 . S
H969 N962 0.984 . S
H970 N958 0.984 . S
H971 N958 0.985 . S
C972 C973 1.363 1_545 S
C972 C978 1.379 . S
C972 N980 1.356 . S
C973 C972 1.363 1_565 S
C973 C979 1.363 . S
C974 C975 1.363 . S
C974 C979 1.379 . S
C974 N981 1.356 . S
C975 C974 1.363 . S
C975 C978 1.363 1_565 S
N976 C978 1.356 . S
N976 H988 0.984 . S
N976 H989 0.985 . S
N977 C979 1.356 . S
N977 H982 0.984 . S
N977 H983 0.985 . S
C978 C972 1.379 . S
C978 C975 1.363 1_545 S
C978 N976 1.356 . S
C979 C973 1.363 . S
C979 C974 1.379 . S
C979 N977 1.356 . S
N980 C972 1.356 . S
N980 H986 0.984 . S
N980 H987 0.984 . S
N981 C974 1.356 . S
N981 H984 0.984 . S
N981 H985 0.985 . S
H982 N977 0.984 . S
H983 N977 0.985 . S
H984 N981 0.984 . S
H985 N981 0.985 . S
H986 N980 0.984 . S
H987 N980 0.984 . S
H988 N976 0.984 . S
H989 N976 0.985 . S
C990 C991 1.363 . S
C990 C996 1.379 . S
C990 N998 1.356 . S
C991 C990 1.363 . S
C991 C997 1.363 . S
C992 C993 1.363 . S
C992 C997 1.379 . S
C992 N999 1.356 . S
C993 C992 1.363 . S
C993 C996 1.363 . S
N994 C996 1.356 . S
N994 H1006 0.984 . S
N994 H1007 0.985 . S
N995 C997 1.356 . S
N995 H1000 0.984 . S
N995 H1001 0.985 . S
C996 C990 1.379 . S
C996 C993 1.363 . S
C996 N994 1.356 . S
C997 C991 1.363 . S
C997 C992 1.379 . S
C997 N995 1.356 . S
N998 C990 1.356 . S
N998 H1004 0.982 1_545 S
N998 H1005 0.984 . S
N999 C992 1.356 . S
N999 H1002 0.984 . S
N999 H1003 0.985 . S
H1000 N995 0.984 . S
H1001 N995 0.985 . S
H1002 N999 0.984 . S
H1003 N999 0.985 . S
H1004 N998 0.982 1_565 S
H1005 N998 0.984 . S
H1006 N994 0.984 . S
H1007 N994 0.985 . S
C1008 C1009 1.363 1_455 S
C1008 C1014 1.379 . S
C1008 N1016 1.356 . S
C1009 C1008 1.363 1_655 S
C1009 C1015 1.363 . S
C1010 C1011 1.363 . S
C1010 C1015 1.379 . S
C1010 N1017 1.356 . S
C1011 C1010 1.363 . S
C1011 C1014 1.363 1_655 S
N1012 C1014 1.356 . S
N1012 H1024 0.984 . S
N1012 H1025 0.985 . S
N1013 C1015 1.356 . S
N1013 H1018 0.984 . S
N1013 H1019 0.985 . S
C1014 C1008 1.379 . S
C1014 C1011 1.363 1_455 S
C1014 N1012 1.356 . S
C1015 C1009 1.363 . S
C1015 C1010 1.379 . S
C1015 N1013 1.356 . S
N1016 C1008 1.356 . S
N1016 H1022 0.984 . S
N1016 H1023 0.984 . S
N1017 C1010 1.356 . S
N1017 H1020 0.984 . S
N1017 H1021 0.985 . S
H1018 N1013 0.984 . S
H1019 N1013 0.985 . S
H1020 N1017 0.984 . S
H1021 N1017 0.985 . S
H1022 N1016 0.984 . S
H1023 N1016 0.984 . S
H1024 N1012 0.984 . S
H1025 N1012 0.985 . S
C1026 C1027 1.363 . S
C1026 C1032 1.379 . S
C1026 N1034 1.356 . S
C1027 C1026 1.363 . S
C1027 C1033 1.363 . S
C1028 C1029 1.363 . S
C1028 C1033 1.379 . S
C1028 N1035 1.356 . S
C1029 C1028 1.363 . S
C1029 C1032 1.363 . S
N1030 C1032 1.356 . S
N1030 H1042 0.984 . S
N1030 H1043 0.985 . S
N1031 C1033 1.356 . S
N1031 H1036 0.984 . S
N1031 H1037 0.985 . S
C1032 C1026 1.379 . S
C1032 C1029 1.363 . S
C1032 N1030 1.356 . S
C1033 C1027 1.363 . S
C1033 C1028 1.379 . S
C1033 N1031 1.356 . S
N1034 C1026 1.356 . S
N1034 H1040 0.984 . S
N1034 H1041 0.984 . S
N1035 C1028 1.356 . S
N1035 H1038 0.984 . S
N1035 H1039 0.985 . S
H1036 N1031 0.984 . S
H1037 N1031 0.985 . S
H1038 N1035 0.984 . S
H1039 N1035 0.985 . S
H1040 N1034 0.984 . S
H1041 N1034 0.984 . S
H1042 N1030 0.984 . S
H1043 N1030 0.985 . S
C1044 C1045 1.363 . S
C1044 C1050 1.379 . S
C1044 N1052 1.356 . S
C1045 C1044 1.363 . S
C1045 C1051 1.363 . S
C1046 C1047 1.363 . S
C1046 C1051 1.379 . S
C1046 N1053 1.356 . S
C1047 C1046 1.363 . S
C1047 C1050 1.363 . S
N1048 C1050 1.356 . S
N1048 H1060 0.984 . S
N1048 H1061 0.985 . S
N1049 C1051 1.356 . S
N1049 H1054 0.984 . S
N1049 H1055 0.985 . S
C1050 C1044 1.379 . S
C1050 C1047 1.363 . S
C1050 N1048 1.356 . S
C1051 C1045 1.363 . S
C1051 C1046 1.379 . S
C1051 N1049 1.356 . S
N1052 C1044 1.356 . S
N1052 H1058 0.984 . S
N1052 H1059 0.984 . S
N1053 C1046 1.356 . S
N1053 H1056 0.984 . S
N1053 H1057 0.985 . S
H1054 N1049 0.984 . S
H1055 N1049 0.985 . S
H1056 N1053 0.984 . S
H1057 N1053 0.985 . S
H1058 N1052 0.984 . S
H1059 N1052 0.984 . S
H1060 N1048 0.984 . S
H1061 N1048 0.985 . S
C1062 C1063 1.363 . S
C1062 C1068 1.379 . S
C1062 N1070 1.356 . S
C1063 C1062 1.363 . S
C1063 C1069 1.363 . S
C1064 C1065 1.363 . S
C1064 C1069 1.379 . S
C1064 N1071 1.356 1_545 S
C1065 C1064 1.363 . S
C1065 C1068 1.363 . S
N1066 C1068 1.356 . S
N1066 H1078 0.984 . S
N1066 H1079 0.985 . S
N1067 C1069 1.356 . S
N1067 H1072 0.984 . S
N1067 H1073 0.985 1_545 S
C1068 C1062 1.379 . S
C1068 C1065 1.363 . S
C1068 N1066 1.356 . S
C1069 C1063 1.363 . S
C1069 C1064 1.379 . S
C1069 N1067 1.356 . S
N1070 C1062 1.356 . S
N1070 H1076 0.984 . S
N1070 H1077 0.984 . S
N1071 C1064 1.356 1_565 S
N1071 H1074 0.984 . S
N1071 H1075 0.985 . S
H1072 N1067 0.984 . S
H1073 N1067 0.985 1_565 S
H1074 N1071 0.984 . S
H1075 N1071 0.985 . S
H1076 N1070 0.984 . S
H1077 N1070 0.984 . S
H1078 N1066 0.984 . S
H1079 N1066 0.985 . S
C1080 C1081 1.363 . S
C1080 C1086 1.379 . S
C1080 N1088 1.356 . S
C1081 C1080 1.363 . S
C1081 C1087 1.362 . S
C1082 C1083 1.363 . S
C1082 C1087 1.378 . S
C1082 N1089 1.363 . S
C1083 C1082 1.363 . S
C1083 C1086 1.363 . S
N1084 C1086 1.356 . S
N1084 H1096 0.984 . S
N1084 H1097 0.985 . S
N1085 C1087 1.359 1_655 S
N1085 H1090 0.984 . S
N1085 H1091 0.985 . S
C1086 C1080 1.379 . S
C1086 C1083 1.363 . S
C1086 N1084 1.356 . S
C1087 C1081 1.362 . S
C1087 C1082 1.378 . S
C1087 N1085 1.359 1_455 S
N1088 C1080 1.356 . S
N1088 H1094 0.984 . S
N1088 H1095 0.984 . S
N1089 C1082 1.363 . S
N1089 H1092 1.002 . S
N1089 H1093 0.961 1_455 S
H1090 N1085 0.984 . S
H1091 N1085 0.985 . S
H1092 N1089 1.002 . S
H1093 N1089 0.961 1_655 S
H1094 N1088 0.984 . S
H1095 N1088 0.984 . S
H1096 N1084 0.984 . S
H1097 N1084 0.985 . S
C1098 C1099 1.363 . S
C1098 C1104 1.379 . S
C1098 N1106 1.356 . S
C1099 C1098 1.363 . S
C1099 C1105 1.363 . S
C1100 C1101 1.363 . S
C1100 C1105 1.379 . S
C1100 N1107 1.356 . S
C1101 C1100 1.363 . S
C1101 C1104 1.363 . S
N1102 C1104 1.356 . S
N1102 H1114 0.984 . S
N1102 H1115 0.985 . S
N1103 C1105 1.356 . S
N1103 H1108 0.984 . S
N1103 H1109 0.985 . S
C1104 C1098 1.379 . S
C1104 C1101 1.363 . S
C1104 N1102 1.356 . S
C1105 C1099 1.363 . S
C1105 C1100 1.379 . S
C1105 N1103 1.356 . S
N1106 C1098 1.356 . S
N1106 H1112 0.984 . S
N1106 H1113 0.984 . S
N1107 C1100 1.356 . S
N1107 H1110 0.984 . S
N1107 H1111 0.985 . S
H1108 N1103 0.984 . S
H1109 N1103 0.985 . S
H1110 N1107 0.984 . S
H1111 N1107 0.985 . S
H1112 N1106 0.984 . S
H1113 N1106 0.984 . S
H1114 N1102 0.984 . S
H1115 N1102 0.985 . S
C1116 C1117 1.363 . S
C1116 C1122 1.379 . S
C1116 N1124 1.356 1_545 S
C1117 C1116 1.363 . S
C1117 C1123 1.363 . S
C1118 C1119 1.363 . S
C1118 C1123 1.379 . S
C1118 N1125 1.356 . S
C1119 C1118 1.363 . S
C1119 C1122 1.363 . S
N1120 C1122 1.356 . S
N1120 H1132 0.984 1_545 S
N1120 H1133 0.985 . S
N1121 C1123 1.356 . S
N1121 H1126 0.984 . S
N1121 H1127 0.985 . S
C1122 C1116 1.379 . S
C1122 C1119 1.363 . S
C1122 N1120 1.356 . S
C1123 C1117 1.363 . S
C1123 C1118 1.379 . S
C1123 N1121 1.356 . S
N1124 C1116 1.356 1_565 S
N1124 H1130 0.984 . S
N1124 H1131 0.984 . S
N1125 C1118 1.356 . S
N1125 H1128 0.984 . S
N1125 H1129 0.985 . S
H1126 N1121 0.984 . S
H1127 N1121 0.985 . S
H1128 N1125 0.984 . S
H1129 N1125 0.985 . S
H1130 N1124 0.984 . S
H1131 N1124 0.984 . S
H1132 N1120 0.984 1_565 S
H1133 N1120 0.985 . S
C1134 C1135 1.363 . S
C1134 C1140 1.379 . S
C1134 N1142 1.356 1_455 S
C1135 C1134 1.363 . S
C1135 C1141 1.363 . S
C1136 C1137 1.363 . S
C1136 C1141 1.379 . S
C1136 N1143 1.356 . S
C1137 C1136 1.363 . S
C1137 C1140 1.363 . S
N1138 C1140 1.356 . S
N1138 H1150 0.984 1_455 S
N1138 H1151 0.985 . S
N1139 C1141 1.356 . S
N1139 H1144 0.984 . S
N1139 H1145 0.985 . S
C1140 C1134 1.379 . S
C1140 C1137 1.363 . S
C1140 N1138 1.356 . S
C1141 C1135 1.363 . S
C1141 C1136 1.379 . S
C1141 N1139 1.356 . S
N1142 C1134 1.356 1_655 S
N1142 H1148 0.984 . S
N1142 H1149 0.984 . S
N1143 C1136 1.356 . S
N1143 H1146 0.984 . S
N1143 H1147 0.985 . S
H1144 N1139 0.984 . S
H1145 N1139 0.985 . S
H1146 N1143 0.984 . S
H1147 N1143 0.985 . S
H1148 N1142 0.984 . S
H1149 N1142 0.984 . S
H1150 N1138 0.984 1_655 S
H1151 N1138 0.985 . S
C1152 C1153 1.363 . S
C1152 C1158 1.379 1_554 S
C1152 N1160 1.356 . S
C1153 C1152 1.363 . S
C1153 C1159 1.363 . S
C1154 C1155 1.363 . S
C1154 C1159 1.379 1_556 S
C1154 N1161 1.356 . S
C1155 C1154 1.363 . S
C1155 C1158 1.363 . S
N1156 C1158 1.356 . S
N1156 H1168 0.984 . S
N1156 H1169 0.985 . S
N1157 C1159 1.356 . S
N1157 H1162 0.984 . S
N1157 H1163 0.985 . S
C1158 C1152 1.379 1_556 S
C1158 C1155 1.363 . S
C1158 N1156 1.356 . S
C1159 C1153 1.363 . S
C1159 C1154 1.379 1_554 S
C1159 N1157 1.356 . S
N1160 C1152 1.356 . S
N1160 H1166 0.984 . S
N1160 H1167 0.984 . S
N1161 C1154 1.356 . S
N1161 H1164 0.984 . S
N1161 H1165 0.985 . S
H1162 N1157 0.984 . S
H1163 N1157 0.985 . S
H1164 N1161 0.984 . S
H1165 N1161 0.985 . S
H1166 N1160 0.984 . S
H1167 N1160 0.984 . S
H1168 N1156 0.984 . S
H1169 N1156 0.985 . S
C1170 C1171 1.363 . S
C1170 C1176 1.379 1_556 S
C1170 N1178 1.356 . S
C1171 C1170 1.363 . S
C1171 C1177 1.363 . S
C1172 C1173 1.363 . S
C1172 C1177 1.379 1_554 S
C1172 N1179 1.356 . S
C1173 C1172 1.363 . S
C1173 C1176 1.363 . S
N1174 C1176 1.356 . S
N1174 H1186 0.984 . S
N1174 H1187 0.985 . S
N1175 C1177 1.356 . S
N1175 H1180 0.984 . S
N1175 H1181 0.985 . S
C1176 C1170 1.379 1_554 S
C1176 C1173 1.363 . S
C1176 N1174 1.356 . S
C1177 C1171 1.363 . S
C1177 C1172 1.379 1_556 S
C1177 N1175 1.356 . S
N1178 C1170 1.356 . S
N1178 H1184 0.984 . S
N1178 H1185 0.984 . S
N1179 C1172 1.356 . S
N1179 H1182 0.984 . S
N1179 H1183 0.985 . S
H1180 N1175 0.984 . S
H1181 N1175 0.985 . S
H1182 N1179 0.984 . S
H1183 N1179 0.985 . S
H1184 N1178 0.984 . S
H1185 N1178 0.984 . S
H1186 N1174 0.984 . S
H1187 N1174 0.985 . S
C1188 C1189 1.363 . S
C1188 C1194 1.379 1_556 S
C1188 N1196 1.356 1_545 S
C1189 C1188 1.363 . S
C1189 C1195 1.363 . S
C1190 C1191 1.363 . S
C1190 C1195 1.379 1_554 S
C1190 N1197 1.356 . S
C1191 C1190 1.363 . S
C1191 C1194 1.363 . S
N1192 C1194 1.356 1_565 S
N1192 H1204 0.984 . S
N1192 H1205 0.985 1_565 S
N1193 C1195 1.356 . S
N1193 H1198 0.984 . S
N1193 H1199 0.985 . S
C1194 C1188 1.379 1_554 S
C1194 C1191 1.363 . S
C1194 N1192 1.356 1_545 S
C1195 C1189 1.363 . S
C1195 C1190 1.379 1_556 S
C1195 N1193 1.356 . S
N1196 C1188 1.356 1_565 S
N1196 H1202 0.984 . S
N1196 H1203 0.984 . S
N1197 C1190 1.356 . S
N1197 H1200 0.984 . S
N1197 H1201 0.985 . S
H1198 N1193 0.984 . S
H1199 N1193 0.985 . S
H1200 N1197 0.984 . S
H1201 N1197 0.985 . S
H1202 N1196 0.984 . S
H1203 N1196 0.984 . S
H1204 N1192 0.984 . S
H1205 N1192 0.985 1_545 S
C1206 C1207 1.363 . S
C1206 C1212 1.379 1_556 S
C1206 N1214 1.356 . S
C1207 C1206 1.363 . S
C1207 C1213 1.363 . S
C1208 C1209 1.363 . S
C1208 C1213 1.379 1_554 S
C1208 N1215 1.356 1_455 S
C1209 C1208 1.363 . S
C1209 C1212 1.363 . S
N1210 C1212 1.356 . S
N1210 H1222 0.984 . S
N1210 H1223 0.985 . S
N1211 C1213 1.356 1_655 S
N1211 H1216 0.984 1_655 S
N1211 H1217 0.985 . S
C1212 C1206 1.379 1_554 S
C1212 C1209 1.363 . S
C1212 N1210 1.356 . S
C1213 C1207 1.363 . S
C1213 C1208 1.379 1_556 S
C1213 N1211 1.356 1_455 S
N1214 C1206 1.356 . S
N1214 H1220 0.984 . S
N1214 H1221 0.984 . S
N1215 C1208 1.356 1_655 S
N1215 H1218 0.984 . S
N1215 H1219 0.985 . S
H1216 N1211 0.984 1_455 S
H1217 N1211 0.985 . S
H1218 N1215 0.984 . S
H1219 N1215 0.985 . S
H1220 N1214 0.984 . S
H1221 N1214 0.984 . S
H1222 N1210 0.984 . S
H1223 N1210 0.985 . S
C1224 C1225 1.363 . S
C1224 C1230 1.379 1_554 S
C1224 N1232 1.356 . S
C1225 C1224 1.363 . S
C1225 C1231 1.363 . S
C1226 C1227 1.363 . S
C1226 C1231 1.379 1_556 S
C1226 N1233 1.356 . S
C1227 C1226 1.363 . S
C1227 C1230 1.363 . S
N1228 C1230 1.356 . S
N1228 H1240 0.984 . S
N1228 H1241 0.985 . S
N1229 C1231 1.356 . S
N1229 H1234 0.984 . S
N1229 H1235 0.985 . S
C1230 C1224 1.379 1_556 S
C1230 C1227 1.363 . S
C1230 N1228 1.356 . S
C1231 C1225 1.363 . S
C1231 C1226 1.379 1_554 S
C1231 N1229 1.356 . S
N1232 C1224 1.356 . S
N1232 H1238 0.984 . S
N1232 H1239 0.984 . S
N1233 C1226 1.356 . S
N1233 H1236 0.984 . S
N1233 H1237 0.985 . S
H1234 N1229 0.984 . S
H1235 N1229 0.985 . S
H1236 N1233 0.984 . S
H1237 N1233 0.985 . S
H1238 N1232 0.984 . S
H1239 N1232 0.984 . S
H1240 N1228 0.984 . S
H1241 N1228 0.985 . S
C1242 C1243 1.363 . S
C1242 C1248 1.379 1_556 S
C1242 N1250 1.356 . S
C1243 C1242 1.363 . S
C1243 C1249 1.363 . S
C1244 C1245 1.363 . S
C1244 C1249 1.379 1_554 S
C1244 N1251 1.356 . S
C1245 C1244 1.363 . S
C1245 C1248 1.363 . S
N1246 C1248 1.356 . S
N1246 H1258 0.984 . S
N1246 H1259 0.985 . S
N1247 C1249 1.356 1_565 S
N1247 H1252 0.984 . S
N1247 H1253 0.985 . S
C1248 C1242 1.379 1_554 S
C1248 C1245 1.363 . S
C1248 N1246 1.356 . S
C1249 C1243 1.363 . S
C1249 C1244 1.379 1_556 S
C1249 N1247 1.356 1_545 S
N1250 C1242 1.356 . S
N1250 H1256 0.984 . S
N1250 H1257 0.984 . S
N1251 C1244 1.356 . S
N1251 H1254 0.984 . S
N1251 H1255 0.985 1_545 S
H1252 N1247 0.984 . S
H1253 N1247 0.985 . S
H1254 N1251 0.984 . S
H1255 N1251 0.985 1_565 S
H1256 N1250 0.984 . S
H1257 N1250 0.984 . S
H1258 N1246 0.984 . S
H1259 N1246 0.985 . S
C1260 C1261 1.363 . S
C1260 C1266 1.379 . S
C1260 N1268 1.356 . S
C1261 C1260 1.363 . S
C1261 C1267 1.363 . S
C1262 C1263 1.363 . S
C1262 C1267 1.379 . S
C1262 N1269 1.356 . S
C1263 C1262 1.363 . S
C1263 C1266 1.363 . S
N1264 C1266 1.356 . S
N1264 H1276 0.984 . S
N1264 H1277 0.985 . S
N1265 C1267 1.356 . S
N1265 H1270 0.984 . S
N1265 H1271 0.985 . S
C1266 C1260 1.379 . S
C1266 C1263 1.363 . S
C1266 N1264 1.356 . S
C1267 C1261 1.363 . S
C1267 C1262 1.379 . S
C1267 N1265 1.356 . S
N1268 C1260 1.356 . S
N1268 H1274 0.984 . S
N1268 H1275 0.984 . S
N1269 C1262 1.356 . S
N1269 H1272 0.984 . S
N1269 H1273 0.985 . S
H1270 N1265 0.984 . S
H1271 N1265 0.985 . S
H1272 N1269 0.984 . S
H1273 N1269 0.985 . S
H1274 N1268 0.984 . S
H1275 N1268 0.984 . S
H1276 N1264 0.984 . S
H1277 N1264 0.985 . S
C1278 C1279 1.363 . S
C1278 C1284 1.379 . S
C1278 N1286 1.356 . S
C1279 C1278 1.363 . S
C1279 C1285 1.363 . S
C1280 C1281 1.363 . S
C1280 C1285 1.379 . S
C1280 N1287 1.356 . S
C1281 C1280 1.363 . S
C1281 C1284 1.363 . S
N1282 C1284 1.356 . S
N1282 H1294 0.984 . S
N1282 H1295 0.985 . S
N1283 C1285 1.356 . S
N1283 H1288 0.984 . S
N1283 H1289 0.985 . S
C1284 C1278 1.379 . S
C1284 C1281 1.363 . S
C1284 N1282 1.356 . S
C1285 C1279 1.363 . S
C1285 C1280 1.379 . S
C1285 N1283 1.356 . S
N1286 C1278 1.356 . S
N1286 H1292 0.984 . S
N1286 H1293 0.984 . S
N1287 C1280 1.356 . S
N1287 H1290 0.984 . S
N1287 H1291 0.985 . S
H1288 N1283 0.984 . S
H1289 N1283 0.985 . S
H1290 N1287 0.984 . S
H1291 N1287 0.985 . S
H1292 N1286 0.984 . S
H1293 N1286 0.984 . S
H1294 N1282 0.984 . S
H1295 N1282 0.985 . S
C1296 C1297 1.363 . S
C1296 C1302 1.379 . S
C1296 N1304 1.356 . S
C1297 C1296 1.363 . S
C1297 C1303 1.363 . S
C1298 C1299 1.363 . S
C1298 C1303 1.379 . S
C1298 N1305 1.356 . S
C1299 C1298 1.363 . S
C1299 C1302 1.363 . S
N1300 C1302 1.356 . S
N1300 H1312 0.984 . S
N1300 H1313 0.985 . S
N1301 C1303 1.356 . S
N1301 H1306 0.984 . S
N1301 H1307 0.985 . S
C1302 C1296 1.379 . S
C1302 C1299 1.363 . S
C1302 N1300 1.356 . S
C1303 C1297 1.363 . S
C1303 C1298 1.379 . S
C1303 N1301 1.356 . S
N1304 C1296 1.356 . S
N1304 H1310 0.984 . S
N1304 H1311 0.984 . S
N1305 C1298 1.356 . S
N1305 H1308 0.984 . S
N1305 H1309 0.985 . S
H1306 N1301 0.984 . S
H1307 N1301 0.985 . S
H1308 N1305 0.984 . S
H1309 N1305 0.985 . S
H1310 N1304 0.984 . S
H1311 N1304 0.984 . S
H1312 N1300 0.984 . S
H1313 N1300 0.985 . S
C1314 C1315 1.363 . S
C1314 C1320 1.379 . S
C1314 N1322 1.356 . S
C1315 C1314 1.363 . S
C1315 C1321 1.363 . S
C1316 C1317 1.363 . S
C1316 C1321 1.379 . S
C1316 N1323 1.356 . S
C1317 C1316 1.363 . S
C1317 C1320 1.363 . S
N1318 C1320 1.356 . S
N1318 H1330 0.984 . S
N1318 H1331 0.985 . S
N1319 C1321 1.356 . S
N1319 H1324 0.984 . S
N1319 H1325 0.985 . S
C1320 C1314 1.379 . S
C1320 C1317 1.363 . S
C1320 N1318 1.356 . S
C1321 C1315 1.363 . S
C1321 C1316 1.379 . S
C1321 N1319 1.356 . S
N1322 C1314 1.356 . S
N1322 H1328 0.984 . S
N1322 H1329 0.984 . S
N1323 C1316 1.356 . S
N1323 H1326 0.984 . S
N1323 H1327 0.985 . S
H1324 N1319 0.984 . S
H1325 N1319 0.985 . S
H1326 N1323 0.984 . S
H1327 N1323 0.985 . S
H1328 N1322 0.984 . S
H1329 N1322 0.984 . S
H1330 N1318 0.984 . S
H1331 N1318 0.985 . S
C1332 C1333 1.363 . S
C1332 C1338 1.379 . S
C1332 N1340 1.356 . S
C1333 C1332 1.363 . S
C1333 C1339 1.363 . S
C1334 C1335 1.363 . S
C1334 C1339 1.379 . S
C1334 N1341 1.356 . S
C1335 C1334 1.363 . S
C1335 C1338 1.363 . S
N1336 C1338 1.356 . S
N1336 H1348 0.984 . S
N1336 H1349 0.985 . S
N1337 C1339 1.356 . S
N1337 H1342 0.984 . S
N1337 H1343 0.985 . S
C1338 C1332 1.379 . S
C1338 C1335 1.363 . S
C1338 N1336 1.356 . S
C1339 C1333 1.363 . S
C1339 C1334 1.379 . S
C1339 N1337 1.356 . S
N1340 C1332 1.356 . S
N1340 H1346 0.984 . S
N1340 H1347 0.984 . S
N1341 C1334 1.356 . S
N1341 H1344 0.984 . S
N1341 H1345 0.985 . S
H1342 N1337 0.984 . S
H1343 N1337 0.985 . S
H1344 N1341 0.984 . S
H1345 N1341 0.985 . S
H1346 N1340 0.984 . S
H1347 N1340 0.984 . S
H1348 N1336 0.984 . S
H1349 N1336 0.985 . S
C1350 C1351 1.363 . S
C1350 C1356 1.379 . S
C1350 N1358 1.356 . S
C1351 C1350 1.363 . S
C1351 C1357 1.363 . S
C1352 C1353 1.363 . S
C1352 C1357 1.379 . S
C1352 N1359 1.356 . S
C1353 C1352 1.363 . S
C1353 C1356 1.363 . S
N1354 C1356 1.356 . S
N1354 H1366 0.984 . S
N1354 H1367 0.985 . S
N1355 C1357 1.356 . S
N1355 H1360 0.984 . S
N1355 H1361 0.985 . S
C1356 C1350 1.379 . S
C1356 C1353 1.363 . S
C1356 N1354 1.356 . S
C1357 C1351 1.363 . S
C1357 C1352 1.379 . S
C1357 N1355 1.356 . S
N1358 C1350 1.356 . S
N1358 H1364 0.984 . S
N1358 H1365 0.984 . S
N1359 C1352 1.356 . S
N1359 H1362 0.984 . S
N1359 H1363 0.985 . S
H1360 N1355 0.984 . S
H1361 N1355 0.985 . S
H1362 N1359 0.984 . S
H1363 N1359 0.985 . S
H1364 N1358 0.984 . S
H1365 N1358 0.984 . S
H1366 N1354 0.984 . S
H1367 N1354 0.985 . S
C1368 C1369 1.363 . S
C1368 C1374 1.379 . S
C1368 N1376 1.356 . S
C1369 C1368 1.363 . S
C1369 C1375 1.363 . S
C1370 C1371 1.363 . S
C1370 C1375 1.379 . S
C1370 N1377 1.356 1_565 S
C1371 C1370 1.363 . S
C1371 C1374 1.363 . S
N1372 C1374 1.356 . S
N1372 H1384 0.984 . S
N1372 H1385 0.985 . S
N1373 C1375 1.356 . S
N1373 H1378 0.984 . S
N1373 H1379 0.985 1_565 S
C1374 C1368 1.379 . S
C1374 C1371 1.363 . S
C1374 N1372 1.356 . S
C1375 C1369 1.363 . S
C1375 C1370 1.379 . S
C1375 N1373 1.356 . S
N1376 C1368 1.356 . S
N1376 H1382 0.984 . S
N1376 H1383 0.984 . S
N1377 C1370 1.356 1_545 S
N1377 H1380 0.979 1_545 S
N1377 H1381 0.985 . S
H1378 N1373 0.984 . S
H1379 N1373 0.985 1_545 S
H1380 N1377 0.979 1_565 S
H1381 N1377 0.985 . S
H1382 N1376 0.984 . S
H1383 N1376 0.984 . S
H1384 N1372 0.984 . S
H1385 N1372 0.985 . S
C1386 C1387 1.363 . S
C1386 C1392 1.379 . S
C1386 N1394 1.356 . S
C1387 C1386 1.363 . S
C1387 C1393 1.363 . S
C1388 C1389 1.363 . S
C1388 C1393 1.379 . S
C1388 N1395 1.356 . S
C1389 C1388 1.363 . S
C1389 C1392 1.363 . S
N1390 C1392 1.356 . S
N1390 H1402 0.984 . S
N1390 H1403 0.985 . S
N1391 C1393 1.356 . S
N1391 H1396 0.984 . S
N1391 H1397 0.985 . S
C1392 C1386 1.379 . S
C1392 C1389 1.363 . S
C1392 N1390 1.356 . S
C1393 C1387 1.363 . S
C1393 C1388 1.379 . S
C1393 N1391 1.356 . S
N1394 C1386 1.356 . S
N1394 H1400 0.984 . S
N1394 H1401 0.984 . S
N1395 C1388 1.356 . S
N1395 H1398 0.984 . S
N1395 H1399 0.985 . S
H1396 N1391 0.984 . S
H1397 N1391 0.985 . S
H1398 N1395 0.984 . S
H1399 N1395 0.985 . S
H1400 N1394 0.984 . S
H1401 N1394 0.984 . S
H1402 N1390 0.984 . S
H1403 N1390 0.985 . S
C1404 C1405 1.363 . S
C1404 C1410 1.379 . S
C1404 N1412 1.356 . S
C1405 C1404 1.363 . S
C1405 C1411 1.363 . S
C1406 C1407 1.363 . S
C1406 C1411 1.379 . S
C1406 N1413 1.356 . S
C1407 C1406 1.363 . S
C1407 C1410 1.363 . S
N1408 C1410 1.356 . S
N1408 H1420 0.984 . S
N1408 H1421 0.985 . S
N1409 C1411 1.356 . S
N1409 H1414 0.984 . S
N1409 H1415 0.985 . S
C1410 C1404 1.379 . S
C1410 C1407 1.363 . S
C1410 N1408 1.356 . S
C1411 C1405 1.363 . S
C1411 C1406 1.379 . S
C1411 N1409 1.356 . S
N1412 C1404 1.356 . S
N1412 H1418 0.984 . S
N1412 H1419 0.984 . S
N1413 C1406 1.356 . S
N1413 H1416 0.984 . S
N1413 H1417 0.985 . S
H1414 N1409 0.984 . S
H1415 N1409 0.985 . S
H1416 N1413 0.984 . S
H1417 N1413 0.985 . S
H1418 N1412 0.984 . S
H1419 N1412 0.984 . S
H1420 N1408 0.984 . S
H1421 N1408 0.985 . S
C1422 C1423 1.363 . S
C1422 C1428 1.379 . S
C1422 N1430 1.356 . S
C1423 C1422 1.363 . S
C1423 C1429 1.363 . S
C1424 C1425 1.363 . S
C1424 C1429 1.379 . S
C1424 N1431 1.356 . S
C1425 C1424 1.363 . S
C1425 C1428 1.363 . S
N1426 C1428 1.356 . S
N1426 H1438 0.984 . S
N1426 H1439 0.985 . S
N1427 C1429 1.356 . S
N1427 H1432 0.984 . S
N1427 H1433 0.985 . S
C1428 C1422 1.379 . S
C1428 C1425 1.363 . S
C1428 N1426 1.356 . S
C1429 C1423 1.363 . S
C1429 C1424 1.379 . S
C1429 N1427 1.356 . S
N1430 C1422 1.356 . S
N1430 H1436 0.984 . S
N1430 H1437 0.984 . S
N1431 C1424 1.356 . S
N1431 H1434 0.984 . S
N1431 H1435 0.985 . S
H1432 N1427 0.984 . S
H1433 N1427 0.985 . S
H1434 N1431 0.984 . S
H1435 N1431 0.985 . S
H1436 N1430 0.984 . S
H1437 N1430 0.984 . S
H1438 N1426 0.984 . S
H1439 N1426 0.985 . S
C1440 C1441 1.363 . S
C1440 C1446 1.379 . S
C1440 N1448 1.356 . S
C1441 C1440 1.363 . S
C1441 C1447 1.363 . S
C1442 C1443 1.363 . S
C1442 C1447 1.379 . S
C1442 N1449 1.356 . S
C1443 C1442 1.363 . S
C1443 C1446 1.363 . S
N1444 C1446 1.359 1_545 S
N1444 H1456 0.981 . S
N1444 H1457 0.985 1_545 S
N1445 C1447 1.356 . S
N1445 H1450 0.984 . S
N1445 H1451 0.985 . S
C1446 C1440 1.379 . S
C1446 C1443 1.363 . S
C1446 N1444 1.359 1_565 S
C1447 C1441 1.363 . S
C1447 C1442 1.379 . S
C1447 N1445 1.356 . S
N1448 C1440 1.356 . S
N1448 H1454 0.984 1_565 S
N1448 H1455 0.984 . S
N1449 C1442 1.356 . S
N1449 H1452 0.984 . S
N1449 H1453 0.985 . S
H1450 N1445 0.984 . S
H1451 N1445 0.985 . S
H1452 N1449 0.984 . S
H1453 N1449 0.985 . S
H1454 N1448 0.984 1_545 S
H1455 N1448 0.984 . S
H1456 N1444 0.981 . S
H1457 N1444 0.985 1_565 S
C1458 C1459 1.363 . S
C1458 C1464 1.379 . S
C1458 N1466 1.356 . S
C1459 C1458 1.363 . S
C1459 C1465 1.363 . S
C1460 C1461 1.363 . S
C1460 C1465 1.379 . S
C1460 N1467 1.356 . S
C1461 C1460 1.363 . S
C1461 C1464 1.363 . S
N1462 C1464 1.356 . S
N1462 H1474 0.984 . S
N1462 H1475 0.985 . S
N1463 C1465 1.356 . S
N1463 H1468 0.984 . S
N1463 H1469 0.985 . S
C1464 C1458 1.379 . S
C1464 C1461 1.363 . S
C1464 N1462 1.356 . S
C1465 C1459 1.363 . S
C1465 C1460 1.379 . S
C1465 N1463 1.356 . S
N1466 C1458 1.356 . S
N1466 H1472 0.984 . S
N1466 H1473 0.984 . S
N1467 C1460 1.356 . S
N1467 H1470 0.984 . S
N1467 H1471 0.985 . S
H1468 N1463 0.984 . S
H1469 N1463 0.985 . S
H1470 N1467 0.984 . S
H1471 N1467 0.985 . S
H1472 N1466 0.984 . S
H1473 N1466 0.984 . S
H1474 N1462 0.984 . S
H1475 N1462 0.985 . S
C1476 C1477 1.363 . S
C1476 C1482 1.379 . S
C1476 N1484 1.356 . S
C1477 C1476 1.363 . S
C1477 C1483 1.363 . S
C1478 C1479 1.363 . S
C1478 C1483 1.379 . S
C1478 N1485 1.356 . S
C1479 C1478 1.363 . S
C1479 C1482 1.363 . S
N1480 C1482 1.356 . S
N1480 H1492 0.984 . S
N1480 H1493 0.985 . S
N1481 C1483 1.356 . S
N1481 H1486 0.984 . S
N1481 H1487 0.985 . S
C1482 C1476 1.379 . S
C1482 C1479 1.363 . S
C1482 N1480 1.356 . S
C1483 C1477 1.363 . S
C1483 C1478 1.379 . S
C1483 N1481 1.356 . S
N1484 C1476 1.356 . S
N1484 H1490 0.984 . S
N1484 H1491 0.984 . S
N1485 C1478 1.356 . S
N1485 H1488 0.984 . S
N1485 H1489 0.985 . S
H1486 N1481 0.984 . S
H1487 N1481 0.985 . S
H1488 N1485 0.984 . S
H1489 N1485 0.985 . S
H1490 N1484 0.984 . S
H1491 N1484 0.984 . S
H1492 N1480 0.984 . S
H1493 N1480 0.985 . S
C1494 C1495 1.363 . S
C1494 C1500 1.379 . S
C1494 N1502 1.356 . S
C1495 C1494 1.363 . S
C1495 C1501 1.363 . S
C1496 C1497 1.363 . S
C1496 C1501 1.379 . S
C1496 N1503 1.356 . S
C1497 C1496 1.363 . S
C1497 C1500 1.363 . S
N1498 C1500 1.356 . S
N1498 H1510 0.984 . S
N1498 H1511 0.985 . S
N1499 C1501 1.356 . S
N1499 H1504 0.984 . S
N1499 H1505 0.985 . S
C1500 C1494 1.379 . S
C1500 C1497 1.363 . S
C1500 N1498 1.356 . S
C1501 C1495 1.363 . S
C1501 C1496 1.379 . S
C1501 N1499 1.356 . S
N1502 C1494 1.356 . S
N1502 H1508 0.984 . S
N1502 H1509 0.984 . S
N1503 C1496 1.356 . S
N1503 H1506 0.984 . S
N1503 H1507 0.985 . S
H1504 N1499 0.984 . S
H1505 N1499 0.985 . S
H1506 N1503 0.984 . S
H1507 N1503 0.985 . S
H1508 N1502 0.984 . S
H1509 N1502 0.984 . S
H1510 N1498 0.984 . S
H1511 N1498 0.985 . S
C1512 C1513 1.363 . S
C1512 C1518 1.379 . S
C1512 N1520 1.356 . S
C1513 C1512 1.363 . S
C1513 C1519 1.363 . S
C1514 C1515 1.363 . S
C1514 C1519 1.379 . S
C1514 N1521 1.356 . S
C1515 C1514 1.363 . S
C1515 C1518 1.363 . S
N1516 C1518 1.356 . S
N1516 H1528 0.984 . S
N1516 H1529 0.985 . S
N1517 C1519 1.356 . S
N1517 H1522 0.984 . S
N1517 H1523 0.985 . S
C1518 C1512 1.379 . S
C1518 C1515 1.363 . S
C1518 N1516 1.356 . S
C1519 C1513 1.363 . S
C1519 C1514 1.379 . S
C1519 N1517 1.356 . S
N1520 C1512 1.356 . S
N1520 H1526 0.984 . S
N1520 H1527 0.984 . S
N1521 C1514 1.356 . S
N1521 H1524 0.984 . S
N1521 H1525 0.985 . S
H1522 N1517 0.984 . S
H1523 N1517 0.985 . S
H1524 N1521 0.984 . S
H1525 N1521 0.985 . S
H1526 N1520 0.984 . S
H1527 N1520 0.984 . S
H1528 N1516 0.984 . S
H1529 N1516 0.985 . S
C1530 C1531 1.363 . S
C1530 C1536 1.379 . S
C1530 N1538 1.356 . S
C1531 C1530 1.363 . S
C1531 C1537 1.363 . S
C1532 C1533 1.363 . S
C1532 C1537 1.379 . S
C1532 N1539 1.356 . S
C1533 C1532 1.363 . S
C1533 C1536 1.363 . S
N1534 C1536 1.356 . S
N1534 H1546 0.984 . S
N1534 H1547 0.985 . S
N1535 C1537 1.356 . S
N1535 H1540 0.984 . S
N1535 H1541 0.985 . S
C1536 C1530 1.379 . S
C1536 C1533 1.363 . S
C1536 N1534 1.356 . S
C1537 C1531 1.363 . S
C1537 C1532 1.379 . S
C1537 N1535 1.356 . S
N1538 C1530 1.356 . S
N1538 H1544 0.984 . S
N1538 H1545 0.984 . S
N1539 C1532 1.356 . S
N1539 H1542 0.984 . S
N1539 H1543 0.985 . S
H1540 N1535 0.984 . S
H1541 N1535 0.985 . S
H1542 N1539 0.984 . S
H1543 N1539 0.985 . S
H1544 N1538 0.984 . S
H1545 N1538 0.984 . S
H1546 N1534 0.984 . S
H1547 N1534 0.985 . S
C1548 C1549 1.363 . S
C1548 C1554 1.379 . S
C1548 N1556 1.356 . S
C1549 C1548 1.363 . S
C1549 C1555 1.363 . S
C1550 C1551 1.363 . S
C1550 C1555 1.379 . S
C1550 N1557 1.356 . S
C1551 C1550 1.363 . S
C1551 C1554 1.363 . S
N1552 C1554 1.356 . S
N1552 H1564 0.984 . S
N1552 H1565 0.985 . S
N1553 C1555 1.356 . S
N1553 H1558 0.984 . S
N1553 H1559 0.985 . S
C1554 C1548 1.379 . S
C1554 C1551 1.363 . S
C1554 N1552 1.356 . S
C1555 C1549 1.363 . S
C1555 C1550 1.379 . S
C1555 N1553 1.356 . S
N1556 C1548 1.356 . S
N1556 H1562 0.984 . S
N1556 H1563 0.984 . S
N1557 C1550 1.356 . S
N1557 H1560 0.984 . S
N1557 H1561 0.985 . S
H1558 N1553 0.984 . S
H1559 N1553 0.985 . S
H1560 N1557 0.984 . S
H1561 N1557 0.985 . S
H1562 N1556 0.984 . S
H1563 N1556 0.984 . S
H1564 N1552 0.984 . S
H1565 N1552 0.985 . S
C1566 C1567 1.363 . S
C1566 C1572 1.379 . S
C1566 N1574 1.356 . S
C1567 C1566 1.363 . S
C1567 C1573 1.363 . S
C1568 C1569 1.363 . S
C1568 C1573 1.379 . S
C1568 N1575 1.356 . S
C1569 C1568 1.363 . S
C1569 C1572 1.363 . S
N1570 C1572 1.356 . S
N1570 H1582 0.984 . S
N1570 H1583 0.985 . S
N1571 C1573 1.356 . S
N1571 H1576 0.984 . S
N1571 H1577 0.985 . S
C1572 C1566 1.379 . S
C1572 C1569 1.363 . S
C1572 N1570 1.356 . S
C1573 C1567 1.363 . S
C1573 C1568 1.379 . S
C1573 N1571 1.356 . S
N1574 C1566 1.356 . S
N1574 H1580 0.984 . S
N1574 H1581 0.984 . S
N1575 C1568 1.356 . S
N1575 H1578 0.984 . S
N1575 H1579 0.985 . S
H1576 N1571 0.984 . S
H1577 N1571 0.985 . S
H1578 N1575 0.984 . S
H1579 N1575 0.985 . S
H1580 N1574 0.984 . S
H1581 N1574 0.984 . S
H1582 N1570 0.984 . S
H1583 N1570 0.985 . S
C1584 C1585 1.363 . S
C1584 C1590 1.379 . S
C1584 N1592 1.356 . S
C1585 C1584 1.363 . S
C1585 C1591 1.363 . S
C1586 C1587 1.363 . S
C1586 C1591 1.379 . S
C1586 N1593 1.356 . S
C1587 C1586 1.363 . S
C1587 C1590 1.363 . S
N1588 C1590 1.356 . S
N1588 H1600 0.984 . S
N1588 H1601 0.985 . S
N1589 C1591 1.356 . S
N1589 H1594 0.984 . S
N1589 H1595 0.985 . S
C1590 C1584 1.379 . S
C1590 C1587 1.363 . S
C1590 N1588 1.356 . S
C1591 C1585 1.363 . S
C1591 C1586 1.379 . S
C1591 N1589 1.356 . S
N1592 C1584 1.356 . S
N1592 H1598 0.984 . S
N1592 H1599 0.984 . S
N1593 C1586 1.356 . S
N1593 H1596 0.984 . S
N1593 H1597 0.985 . S
H1594 N1589 0.984 . S
H1595 N1589 0.985 . S
H1596 N1593 0.984 . S
H1597 N1593 0.985 . S
H1598 N1592 0.984 . S
H1599 N1592 0.984 . S
H1600 N1588 0.984 . S
H1601 N1588 0.985 . S
C1602 C1603 1.363 . S
C1602 C1608 1.379 . S
C1602 N1610 1.356 . S
C1603 C1602 1.363 . S
C1603 C1609 1.363 . S
C1604 C1605 1.363 . S
C1604 C1609 1.379 . S
C1604 N1611 1.356 . S
C1605 C1604 1.363 . S
C1605 C1608 1.363 . S
N1606 C1608 1.356 . S
N1606 H1618 0.984 . S
N1606 H1619 0.985 . S
N1607 C1609 1.356 . S
N1607 H1612 0.984 . S
N1607 H1613 0.985 . S
C1608 C1602 1.379 . S
C1608 C1605 1.363 . S
C1608 N1606 1.356 . S
C1609 C1603 1.363 . S
C1609 C1604 1.379 . S
C1609 N1607 1.356 . S
N1610 C1602 1.356 . S
N1610 H1616 0.984 . S
N1610 H1617 0.984 . S
N1611 C1604 1.356 . S
N1611 H1614 0.984 . S
N1611 H1615 0.985 . S
H1612 N1607 0.984 . S
H1613 N1607 0.985 . S
H1614 N1611 0.984 . S
H1615 N1611 0.985 . S
H1616 N1610 0.984 . S
H1617 N1610 0.984 . S
H1618 N1606 0.984 . S
H1619 N1606 0.985 . S
C1620 C1621 1.363 . S
C1620 C1626 1.379 . S
C1620 N1628 1.356 . S
C1621 C1620 1.363 . S
C1621 C1627 1.363 . S
C1622 C1623 1.363 . S
C1622 C1627 1.379 . S
C1622 N1629 1.356 . S
C1623 C1622 1.363 . S
C1623 C1626 1.363 . S
N1624 C1626 1.356 . S
N1624 H1636 0.984 . S
N1624 H1637 0.985 . S
N1625 C1627 1.356 . S
N1625 H1630 0.984 . S
N1625 H1631 0.985 1_655 S
C1626 C1620 1.379 . S
C1626 C1623 1.363 . S
C1626 N1624 1.356 . S
C1627 C1621 1.363 . S
C1627 C1622 1.379 . S
C1627 N1625 1.356 . S
N1628 C1620 1.356 . S
N1628 H1634 0.984 . S
N1628 H1635 0.984 . S
N1629 C1622 1.356 . S
N1629 H1632 0.984 . S
N1629 H1633 0.985 1_655 S
H1630 N1625 0.984 . S
H1631 N1625 0.985 1_455 S
H1632 N1629 0.984 . S
H1633 N1629 0.985 1_455 S
H1634 N1628 0.984 . S
H1635 N1628 0.984 . S
H1636 N1624 0.984 . S
H1637 N1624 0.985 . S
C1638 C1639 1.363 . S
C1638 C1644 1.379 . S
C1638 N1646 1.356 . S
C1639 C1638 1.363 . S
C1639 C1645 1.363 . S
C1640 C1641 1.363 . S
C1640 C1645 1.379 . S
C1640 N1647 1.356 . S
C1641 C1640 1.363 . S
C1641 C1644 1.363 . S
N1642 C1644 1.356 . S
N1642 H1654 0.984 . S
N1642 H1655 0.985 . S
N1643 C1645 1.356 . S
N1643 H1648 0.984 . S
N1643 H1649 0.985 . S
C1644 C1638 1.379 . S
C1644 C1641 1.363 . S
C1644 N1642 1.356 . S
C1645 C1639 1.363 . S
C1645 C1640 1.379 . S
C1645 N1643 1.356 . S
N1646 C1638 1.356 . S
N1646 H1652 0.984 . S
N1646 H1653 0.984 . S
N1647 C1640 1.356 . S
N1647 H1650 0.984 . S
N1647 H1651 0.985 . S
H1648 N1643 0.984 . S
H1649 N1643 0.985 . S
H1650 N1647 0.984 . S
H1651 N1647 0.985 . S
H1652 N1646 0.984 . S
H1653 N1646 0.984 . S
H1654 N1642 0.984 . S
H1655 N1642 0.985 . S
C1656 C1657 1.363 . S
C1656 C1662 1.379 . S
C1656 N1664 1.356 . S
C1657 C1656 1.363 . S
C1657 C1663 1.363 . S
C1658 C1659 1.363 . S
C1658 C1663 1.379 . S
C1658 N1665 1.356 . S
C1659 C1658 1.363 . S
C1659 C1662 1.363 . S
N1660 C1662 1.356 . S
N1660 H1672 0.984 . S
N1660 H1673 0.985 . S
N1661 C1663 1.356 . S
N1661 H1666 0.984 . S
N1661 H1667 0.985 . S
C1662 C1656 1.379 . S
C1662 C1659 1.363 . S
C1662 N1660 1.356 . S
C1663 C1657 1.363 . S
C1663 C1658 1.379 . S
C1663 N1661 1.356 . S
N1664 C1656 1.356 . S
N1664 H1670 0.984 . S
N1664 H1671 0.984 . S
N1665 C1658 1.356 . S
N1665 H1668 0.984 . S
N1665 H1669 0.985 . S
H1666 N1661 0.984 . S
H1667 N1661 0.985 . S
H1668 N1665 0.984 . S
H1669 N1665 0.985 . S
H1670 N1664 0.984 . S
H1671 N1664 0.984 . S
H1672 N1660 0.984 . S
H1673 N1660 0.985 . S
C1674 C1675 1.363 . S
C1674 C1680 1.379 . S
C1674 N1682 1.356 . S
C1675 C1674 1.363 . S
C1675 C1681 1.363 . S
C1676 C1677 1.363 . S
C1676 C1681 1.379 . S
C1676 N1683 1.356 . S
C1677 C1676 1.363 . S
C1677 C1680 1.363 . S
N1678 C1680 1.356 . S
N1678 H1690 0.984 . S
N1678 H1691 0.985 . S
N1679 C1681 1.356 . S
N1679 H1684 0.984 . S
N1679 H1685 0.985 . S
C1680 C1674 1.379 . S
C1680 C1677 1.363 . S
C1680 N1678 1.356 . S
C1681 C1675 1.363 . S
C1681 C1676 1.379 . S
C1681 N1679 1.356 . S
N1682 C1674 1.356 . S
N1682 H1688 0.984 . S
N1682 H1689 0.984 . S
N1683 C1676 1.356 . S
N1683 H1686 0.984 . S
N1683 H1687 0.985 . S
H1684 N1679 0.984 . S
H1685 N1679 0.985 . S
H1686 N1683 0.984 . S
H1687 N1683 0.985 . S
H1688 N1682 0.984 . S
H1689 N1682 0.984 . S
H1690 N1678 0.984 . S
H1691 N1678 0.985 . S
C1692 C1693 1.363 . S
C1692 C1698 1.379 . S
C1692 N1700 1.356 . S
C1693 C1692 1.363 . S
C1693 C1699 1.363 . S
C1694 C1695 1.363 . S
C1694 C1699 1.379 . S
C1694 N1701 1.356 . S
C1695 C1694 1.363 . S
C1695 C1698 1.363 . S
N1696 C1698 1.356 . S
N1696 H1708 0.984 . S
N1696 H1709 0.985 . S
N1697 C1699 1.356 . S
N1697 H1702 0.984 . S
N1697 H1703 0.985 . S
C1698 C1692 1.379 . S
C1698 C1695 1.363 . S
C1698 N1696 1.356 . S
C1699 C1693 1.363 . S
C1699 C1694 1.379 . S
C1699 N1697 1.356 . S
N1700 C1692 1.356 . S
N1700 H1706 0.984 . S
N1700 H1707 0.984 . S
N1701 C1694 1.356 . S
N1701 H1704 0.984 . S
N1701 H1705 0.985 . S
H1702 N1697 0.984 . S
H1703 N1697 0.985 . S
H1704 N1701 0.984 . S
H1705 N1701 0.985 . S
H1706 N1700 0.984 . S
H1707 N1700 0.984 . S
H1708 N1696 0.984 . S
H1709 N1696 0.985 . S
C1710 C1711 1.363 . S
C1710 C1716 1.379 . S
C1710 N1718 1.356 . S
C1711 C1710 1.363 . S
C1711 C1717 1.363 . S
C1712 C1713 1.363 . S
C1712 C1717 1.379 . S
C1712 N1719 1.356 . S
C1713 C1712 1.363 . S
C1713 C1716 1.363 . S
N1714 C1716 1.356 . S
N1714 H1726 0.984 . S
N1714 H1727 0.985 . S
N1715 C1717 1.356 . S
N1715 H1720 0.984 . S
N1715 H1721 0.985 . S
C1716 C1710 1.379 . S
C1716 C1713 1.363 . S
C1716 N1714 1.356 . S
C1717 C1711 1.363 . S
C1717 C1712 1.379 . S
C1717 N1715 1.356 . S
N1718 C1710 1.356 . S
N1718 H1724 0.984 . S
N1718 H1725 0.984 . S
N1719 C1712 1.356 . S
N1719 H1722 0.984 . S
N1719 H1723 0.985 . S
H1720 N1715 0.984 . S
H1721 N1715 0.985 . S
H1722 N1719 0.984 . S
H1723 N1719 0.985 . S
H1724 N1718 0.984 . S
H1725 N1718 0.984 . S
H1726 N1714 0.984 . S
H1727 N1714 0.985 . S
C1728 C1729 1.363 . S
C1728 C1734 1.379 . S
C1728 N1736 1.356 . S
C1729 C1728 1.363 . S
C1729 C1735 1.363 . S
C1730 C1731 1.363 . S
C1730 C1735 1.379 . S
C1730 N1737 1.356 . S
C1731 C1730 1.363 . S
C1731 C1734 1.363 . S
N1732 C1734 1.356 . S
N1732 H1744 0.984 . S
N1732 H1745 0.985 . S
N1733 C1735 1.356 . S
N1733 H1738 0.984 . S
N1733 H1739 0.985 . S
C1734 C1728 1.379 . S
C1734 C1731 1.363 . S
C1734 N1732 1.356 . S
C1735 C1729 1.363 . S
C1735 C1730 1.379 . S
C1735 N1733 1.356 . S
N1736 C1728 1.356 . S
N1736 H1742 0.984 . S
N1736 H1743 0.984 . S
N1737 C1730 1.356 . S
N1737 H1740 0.984 . S
N1737 H1741 0.985 . S
H1738 N1733 0.984 . S
H1739 N1733 0.985 . S
H1740 N1737 0.984 . S
H1741 N1737 0.985 . S
H1742 N1736 0.984 . S
H1743 N1736 0.984 . S
H1744 N1732 0.984 . S
H1745 N1732 0.985 . S
C1746 C1747 1.363 . S
C1746 C1752 1.379 . S
C1746 N1754 1.356 . S
C1747 C1746 1.363 . S
C1747 C1753 1.363 . S
C1748 C1749 1.363 . S
C1748 C1753 1.379 . S
C1748 N1755 1.356 . S
C1749 C1748 1.363 . S
C1749 C1752 1.363 . S
N1750 C1752 1.356 . S
N1750 H1762 0.984 . S
N1750 H1763 0.985 . S
N1751 C1753 1.356 . S
N1751 H1756 0.984 . S
N1751 H1757 0.985 . S
C1752 C1746 1.379 . S
C1752 C1749 1.363 . S
C1752 N1750 1.356 . S
C1753 C1747 1.363 . S
C1753 C1748 1.379 . S
C1753 N1751 1.356 . S
N1754 C1746 1.356 . S
N1754 H1760 0.984 . S
N1754 H1761 0.984 . S
N1755 C1748 1.356 . S
N1755 H1758 0.984 . S
N1755 H1759 0.985 . S
H1756 N1751 0.984 . S
H1757 N1751 0.985 . S
H1758 N1755 0.984 . S
H1759 N1755 0.985 . S
H1760 N1754 0.984 . S
H1761 N1754 0.984 . S
H1762 N1750 0.984 . S
H1763 N1750 0.985 . S
C1764 C1765 1.363 . S
C1764 C1770 1.379 . S
C1764 N1772 1.356 1_565 S
C1765 C1764 1.363 . S
C1765 C1771 1.363 . S
C1766 C1767 1.363 . S
C1766 C1771 1.379 . S
C1766 N1773 1.356 . S
C1767 C1766 1.363 . S
C1767 C1770 1.363 . S
N1768 C1770 1.356 1_545 S
N1768 H1780 0.984 . S
N1768 H1781 0.985 . S
N1769 C1771 1.356 . S
N1769 H1774 0.984 . S
N1769 H1775 0.985 . S
C1770 C1764 1.379 . S
C1770 C1767 1.363 . S
C1770 N1768 1.356 1_565 S
C1771 C1765 1.363 . S
C1771 C1766 1.379 . S
C1771 N1769 1.356 . S
N1772 C1764 1.356 1_545 S
N1772 H1778 0.984 . S
N1772 H1779 0.984 . S
N1773 C1766 1.356 . S
N1773 H1776 0.984 . S
N1773 H1777 0.985 . S
H1774 N1769 0.984 . S
H1775 N1769 0.985 . S
H1776 N1773 0.984 . S
H1777 N1773 0.985 . S
H1778 N1772 0.984 . S
H1779 N1772 0.984 . S
H1780 N1768 0.984 . S
H1781 N1768 0.985 . S
C1782 C1783 1.363 . S
C1782 C1788 1.379 . S
C1782 N1790 1.356 . S
C1783 C1782 1.363 . S
C1783 C1789 1.363 . S
C1784 C1785 1.363 . S
C1784 C1789 1.379 . S
C1784 N1791 1.356 . S
C1785 C1784 1.363 . S
C1785 C1788 1.363 . S
N1786 C1788 1.356 . S
N1786 H1798 0.984 . S
N1786 H1799 0.985 . S
N1787 C1789 1.356 . S
N1787 H1792 0.984 . S
N1787 H1793 0.985 . S
C1788 C1782 1.379 . S
C1788 C1785 1.363 . S
C1788 N1786 1.356 . S
C1789 C1783 1.363 . S
C1789 C1784 1.379 . S
C1789 N1787 1.356 . S
N1790 C1782 1.356 . S
N1790 H1796 0.984 . S
N1790 H1797 0.984 . S
N1791 C1784 1.356 . S
N1791 H1794 0.984 . S
N1791 H1795 0.985 . S
H1792 N1787 0.984 . S
H1793 N1787 0.985 . S
H1794 N1791 0.984 . S
H1795 N1791 0.985 . S
H1796 N1790 0.984 . S
H1797 N1790 0.984 . S
H1798 N1786 0.984 . S
H1799 N1786 0.985 . S
C505 C6 1.420 . S
C507 C160 1.420 . S
C523 C132 1.420 . S
C525 C20 1.420 . S
C541 C146 1.420 . S
C543 C34 1.420 . S
C559 C48 1.420 . S
C561 C104 1.420 . S
C577 C62 1.420 . S
C579 C118 1.420 . S
C595 C76 1.420 . S
C597 C90 1.420 . S
C613 C174 1.420 . S
C615 C328 1.420 . S
C631 C300 1.420 . S
C633 C188 1.420 . S
C649 C202 1.420 . S
C651 C314 1.420 . S
C667 C216 1.420 . S
C669 C272 1.420 . S
C685 C230 1.420 . S
C687 C286 1.420 . S
C703 C244 1.420 . S
C705 C258 1.420 . S
C721 C342 1.420 . S
C723 C496 1.420 . S
C739 C356 1.420 . S
C741 C468 1.420 . S
C757 C482 1.420 . S
C759 C370 1.420 . S
C775 C384 1.420 . S
C777 C440 1.420 . S
C793 C454 1.420 . S
C795 C398 1.420 . S
C811 C426 1.420 . S
C813 C412 1.420 . S
C829 C7 1.425 1_655 S
C831 C217 1.425 . S
C847 C21 1.425 . S
C849 C231 1.425 . S
C865 C35 1.425 . S
C867 C245 1.425 . S
C883 C49 1.425 1_565 S
C885 C343 1.425 . S
C901 C357 1.425 . S
C903 C63 1.425 . S
C919 C371 1.425 . S
C921 C77 1.425 . S
C937 C91 1.425 . S
C939 C469 1.425 . S
C955 C483 1.425 . S
C957 C105 1.425 . S
C973 C119 1.425 1_565 S
C975 C497 1.425 . S
C991 C133 1.425 . S
C993 C259 1.425 . S
C1009 C147 1.425 1_655 S
C1011 C273 1.425 . S
C1027 C161 1.425 . S
C1029 C287 1.425 . S
C1045 C385 1.425 . S
C1047 C175 1.425 . S
C1063 C189 1.425 . S
C1065 C399 1.425 . S
C1081 C203 1.425 . S
C1083 C413 1.425 . S
C1099 C427 1.425 . S
C1101 C301 1.425 . S
C1117 C441 1.425 . S
C1119 C315 1.425 . S
C1135 C329 1.425 . S
C1137 C455 1.425 . S
C1153 C8 1.327 . S
C1155 C64 1.327 . S
C1171 C78 1.327 . S
C1173 C22 1.327 . S
C1189 C50 1.327 . S
C1191 C36 1.327 . S
C1207 C92 1.327 . S
C1209 C148 1.327 . S
C1225 C162 1.327 . S
C1227 C106 1.327 . S
C1243 C120 1.327 . S
C1245 C134 1.327 . S
C1261 C232 1.327 . S
C1263 C176 1.327 . S
C1279 C190 1.327 . S
C1281 C246 1.327 . S
C1297 C204 1.327 . S
C1299 C218 1.328 . S
C1315 C316 1.327 . S
C1317 C260 1.327 . S
C1333 C330 1.327 . S
C1335 C274 1.327 . S
C1351 C302 1.327 . S
C1353 C288 1.327 . S
C1369 C344 1.328 . S
C1371 C400 1.327 . S
C1387 C358 1.327 . S
C1389 C414 1.327 . S
C1405 C372 1.327 . S
C1407 C386 1.327 . S
C1423 C484 1.327 . S
C1425 C428 1.327 . S
C1441 C498 1.327 . S
C1443 C442 1.327 . S
C1459 C470 1.327 . S
C1461 C456 1.327 . S
C1477 C135 1.902 . S
C1479 C9 1.902 . S
C1495 C149 1.902 . S
C1497 C23 1.902 . S
C1513 C37 1.902 . S
C1515 C163 1.902 . S
C1531 C51 1.902 . S
C1533 C93 1.902 . S
C1549 C107 1.902 . S
C1551 C65 1.902 . S
C1567 C79 1.902 . S
C1569 C121 1.902 . S
C1585 C303 1.902 . S
C1587 C177 1.902 . S
C1603 C317 1.902 . S
C1605 C191 1.902 . S
C1621 C205 1.902 . S
C1623 C331 1.902 . S
C1639 C261 1.902 . S
C1641 C219 1.902 . S
C1657 C275 1.902 . S
C1659 C233 1.902 . S
C1675 C289 1.902 . S
C1677 C247 1.902 . S
C1693 C345 1.902 . S
C1695 C471 1.902 . S
C1711 C485 1.902 . S
C1713 C359 1.902 . S
C1729 C373 1.902 . S
C1731 C499 1.902 . S
C1747 C387 1.902 . S
C1749 C429 1.902 . S
C1765 C401 1.902 . S
C1767 C443 1.902 . S
C1783 C457 1.902 . S
C1785 C415 1.902 . S
