# Generated by pormake.
# Topology rkf, (6)-cn, num edge types: 1
# Building blocks:
#     Node 0, Type 0, BuildingBlock: NUHQIS_clean_sbu_0, # of connection points: 6
#     Node 1, Type 0, BuildingBlock: NUHQIS_clean_sbu_0, # of connection points: 6
#     Node 2, Type 0, BuildingBlock: NUHQIS_clean_sbu_0, # of connection points: 6
#     Node 3, Type 0, BuildingBlock: NUHQIS_clean_sbu_0, # of connection points: 6
#     Node 4, Type 0, BuildingBlock: NUHQIS_clean_sbu_0, # of connection points: 6
#     Node 5, Type 0, BuildingBlock: NUHQIS_clean_sbu_0, # of connection points: 6
#     Edge 6, Type (0, 0), BuildingBlock: OJICUG_clean_linker_0, # of connection points: 2
#     Edge 7, Type (0, 0), BuildingBlock: OJICUG_clean_linker_0, # of connection points: 2
#     Edge 8, Type (0, 0), BuildingBlock: OJICUG_clean_linker_0, # of connection points: 2
#     Edge 9, Type (0, 0), BuildingBlock: OJICUG_clean_linker_0, # of connection points: 2
#     Edge 10, Type (0, 0), BuildingBlock: OJICUG_clean_linker_0, # of connection points: 2
#     Edge 11, Type (0, 0), BuildingBlock: OJICUG_clean_linker_0, # of connection points: 2
#     Edge 12, Type (0, 0), BuildingBlock: OJICUG_clean_linker_0, # of connection points: 2
#     Edge 13, Type (0, 0), BuildingBlock: OJICUG_clean_linker_0, # of connection points: 2
#     Edge 14, Type (0, 0), BuildingBlock: OJICUG_clean_linker_0, # of connection points: 2
#     Edge 15, Type (0, 0), BuildingBlock: OJICUG_clean_linker_0, # of connection points: 2
#     Edge 16, Type (0, 0), BuildingBlock: OJICUG_clean_linker_0, # of connection points: 2
#     Edge 17, Type (0, 0), BuildingBlock: OJICUG_clean_linker_0, # of connection points: 2
#     Edge 18, Type (0, 0), BuildingBlock: OJICUG_clean_linker_0, # of connection points: 2
#     Edge 19, Type (0, 0), BuildingBlock: OJICUG_clean_linker_0, # of connection points: 2
#     Edge 20, Type (0, 0), BuildingBlock: OJICUG_clean_linker_0, # of connection points: 2
#     Edge 21, Type (0, 0), BuildingBlock: OJICUG_clean_linker_0, # of connection points: 2
#     Edge 22, Type (0, 0), BuildingBlock: OJICUG_clean_linker_0, # of connection points: 2
#     Edge 23, Type (0, 0), BuildingBlock: OJICUG_clean_linker_0, # of connection points: 2
# Relax obj value: 1.026
# Max RMSD: 0.253
# Mean RMSD: 0.253
data_MOF--net-rkf--node1-NUHQIS_clean_sbu_0--edge1-OJICUG_clean_linker_0
_symmetry_space_group_name_H-M    P1
_symmetry_Int_Tables_number       1
_symmetry_cell_setting            triclinic
loop_
_symmetry_equiv_pos_as_xyz
'x, y, z'
_cell_length_a     19.436587
_cell_length_b     19.577566
_cell_length_c     31.534464
_cell_angle_alpha  91.420595
_cell_angle_beta   88.178531
_cell_angle_gamma 120.47463
loop_
_atom_site_label
_atom_site_type_symbol
_atom_site_fract_x
_atom_site_fract_y
_atom_site_fract_z
_atom_type_partial_charge
Tb0 Tb 0.26842 0.11543 0.28997 0.0
Eu1 Eu 0.44138 0.25449 0.25568 0.0
C2 C 0.29106 0.26606 0.25095 0.0
C3 C 0.31182 0.11589 1.19022 0.0
C4 C 0.07112 0.93011 0.30773 0.0
C5 C -0.06021 0.82136 0.32569 0.0
C6 C -0.00634 0.9024 0.32348 0.0
C7 C 0.09207 0.87647 0.29007 0.0
C8 C 0.03787 0.79488 0.29203 0.0
C9 C -0.03765 0.76606 0.31199 0.0
C10 C 0.13104 0.0132 0.31553 0.0
O11 O 0.34009 0.06001 0.27746 0.0
O12 O 0.45871 0.16928 0.29347 0.0
O13 O 0.42529 0.29744 0.32244 0.0
O14 O 0.32232 0.18074 0.34927 0.0
C15 C 0.41506 0.09275 0.28773 0.0
O16 O 0.55741 0.29192 1.22509 0.0
O17 O 0.53047 0.37957 0.2511 0.0
O18 O 0.3477 0.27094 1.22589 0.0
O19 O 0.27863 0.23052 0.28708 0.0
O20 O 0.25695 0.09388 1.22092 0.0
O21 O 0.38751 0.17025 1.19753 0.0
C22 C 0.37782 0.25598 0.35459 0.0
O23 O 0.19688 0.02586 0.33274 0.0
O24 O 0.14403 0.06329 0.28546 0.0
C25 C 0.60839 0.41314 1.18791 0.0
C26 C 0.63395 0.48883 1.10937 0.0
C27 C 0.63821 0.41951 1.11214 0.0
C28 C 0.62558 0.38194 1.15111 0.0
C29 C 0.61213 0.48649 1.18574 0.0
C30 C 0.62465 0.52388 1.14693 0.0
C31 C 0.57963 0.36712 1.2275 0.0
H32 H 0.88302 0.80298 0.3416 0.0
H33 H -0.0235 0.94324 0.33694 0.0
H34 H 0.1517 0.8974 0.27714 0.0
H35 H 0.05681 0.75461 0.28004 0.0
H36 H 0.64662 0.39188 1.08382 0.0
H37 H 0.62493 0.32635 1.15193 0.0
H38 H 0.60094 0.51299 1.21371 0.0
H39 H 0.62085 0.57714 1.14612 0.0
Tb40 Tb 0.39278 0.40973 0.62276 0.0
Eu41 Eu 0.27155 0.4628 0.58537 0.0
C42 C 0.23204 0.28482 0.58435 0.0
C43 C 0.36609 0.4037 0.51966 0.0
C44 C 0.45969 0.2711 0.64884 0.0
C45 C 0.37807 0.1329 0.66835 0.0
C46 C 0.38972 0.20896 0.66711 0.0
C47 C 0.51602 0.25454 0.6298 0.0
C48 C 0.50406 0.17767 0.63078 0.0
C49 C 0.43593 0.11633 0.65125 0.0
C50 C 0.47358 0.35261 0.64983 0.0
O51 O 0.46861 0.53619 0.62206 0.0
O52 O 0.38628 0.57846 0.59673 0.0
O53 O 0.22532 0.41023 0.65103 0.0
O54 O 0.34432 0.44314 0.67929 0.0
C55 C 0.45421 0.59217 0.61205 0.0
O56 O 0.21097 0.49482 0.53952 0.0
O57 O 0.18777 0.50011 0.6067 0.0
O58 O 0.218 0.33542 0.56578 0.0
O59 O 0.27698 0.30493 0.61762 0.0
O60 O 0.39859 0.39134 0.55284 0.0
O61 O 0.31962 0.43488 0.52427 0.0
C62 C 0.26931 0.42539 0.68465 0.0
O63 O 0.48807 0.38799 0.61349 0.0
O64 O 0.42392 0.36411 0.67325 0.0
C65 C 0.07995 0.46084 0.56212 0.0
C66 C 0.91421 0.38177 0.54854 0.0
C67 C -0.04883 0.45155 0.57334 0.0
C68 C 0.03344 0.49085 0.57991 0.0
C69 C 0.04289 0.38909 0.53951 0.0
C70 C -0.03878 0.35038 0.53247 0.0
C71 C 0.16647 0.50351 0.56851 0.0
H72 H 0.32547 0.08841 0.68522 0.0
H73 H 0.34437 0.21918 0.68158 0.0
H74 H 0.57002 0.30134 0.61498 0.0
H75 H 0.54924 0.16689 0.61673 0.0
H76 H 0.91704 0.47673 0.587 0.0
H77 H 0.06096 0.54529 0.59843 0.0
H78 H 0.07735 0.36383 0.5263 0.0
H79 H 0.93626 0.29782 0.51253 0.0
Tb80 Tb 0.12709 0.43256 0.95603 0.0
Eu81 Eu -0.03583 0.29763 0.91459 0.0
C82 C 0.11829 0.27657 0.92265 0.0
C83 C 0.12085 0.40539 0.85558 0.0
C84 C 0.33519 0.56432 0.98704 0.0
C85 C 0.43553 0.53353 0.96148 0.0
C86 C 0.36095 0.52679 0.95747 0.0
C87 C 0.38711 0.61416 1.01817 0.0
C88 C 0.46139 0.6206 1.02238 0.0
C89 C 0.48458 0.57676 0.99555 0.0
C90 C 0.25139 0.54322 0.98928 0.0
O91 O 0.069 0.48946 0.92976 0.0
O92 O -0.05673 0.39244 0.94366 0.0
O93 O -0.03323 0.25033 0.97896 0.0
O94 O 0.03634 0.37336 1.00866 0.0
C95 C -0.00454 0.46734 0.93946 0.0
O96 O 0.83402 0.23014 0.92019 0.0
O97 O 0.89273 0.21609 0.86422 0.0
O98 O 0.04772 0.25018 0.90606 0.0
O99 O 0.15225 0.33853 0.94787 0.0
O100 O 0.16417 0.42271 0.89 0.0
O101 O 0.04269 0.37578 0.8595 0.0
C102 C -0.01213 0.29572 1.01311 0.0
O103 O 0.22192 0.55046 0.95436 0.0
O104 O 0.2034 0.47617 1.00783 0.0
C105 C 0.77677 0.22101 0.85411 0.0
C106 C 0.72262 0.26953 0.78566 0.0
C107 C 0.76038 0.32162 0.8199 0.0
C108 C 0.78825 0.29786 0.85357 0.0
C109 C 0.72938 0.16573 0.82343 0.0
C110 C 0.70203 0.18948 0.78961 0.0
C111 C 0.82534 0.20311 0.88141 0.0
H112 H 0.45199 0.4999 0.93998 0.0
H113 H 0.32139 0.48817 0.93306 0.0
H114 H 0.36795 0.64353 1.04117 0.0
H115 H 0.49685 0.6538 1.04928 0.0
H116 H 0.7752 0.38285 0.81879 0.0
H117 H 0.82424 0.34143 0.87731 0.0
H118 H 0.7195 0.10605 0.8235 0.0
H119 H 0.67279 0.14667 0.76437 0.0
Tb120 Tb 0.81908 0.15856 0.28233 0.0
Eu121 Eu 0.79611 -0.00401 1.2439 0.0
C122 C -0.02843 0.15442 0.2518 0.0
C123 C 0.84958 0.14184 1.17965 0.0
C124 C 0.75241 0.2794 0.34199 0.0
C125 C 0.7574 0.36334 0.40057 0.0
C126 C 0.78093 0.35498 0.3595 0.0
C127 C 0.69142 0.21334 0.36326 0.0
C128 C 0.66649 0.22174 0.40407 0.0
C129 C 0.7055 0.29591 0.42483 0.0
C130 C 0.79601 0.26903 0.30606 0.0
O131 O 0.70805 0.0538 0.30087 0.0
O132 O 0.68287 -0.00032 1.23698 0.0
O133 O 0.81535 -0.00818 0.3152 0.0
O134 O 0.84685 0.1156 0.34019 0.0
C135 C 0.65595 0.01491 0.27195 0.0
O136 O 0.80066 0.91353 1.19814 0.0
O137 O 0.73396 0.86895 0.25724 0.0
O138 O 0.92973 0.07697 1.24549 0.0
O139 O -0.05935 0.19685 0.26575 0.0
O140 O 0.84107 0.18123 1.21242 0.0
O141 O 0.83407 0.06858 1.18391 0.0
C142 C 0.83672 0.04423 0.34661 0.0
O143 O 0.85837 0.26471 0.31639 0.0
O144 O 0.7525 0.21515 0.27792 0.0
C145 C 0.80083 0.80507 1.22883 0.0
C146 C 0.86893 0.70818 1.21868 0.0
C147 C 0.78809 0.67537 1.2315 0.0
C148 C 0.75393 0.72331 1.23552 0.0
C149 C 0.88357 0.83958 1.22377 0.0
C150 C 0.91729 0.79192 1.21868 0.0
C151 C 0.76295 0.85276 1.2232 0.0
H152 H 0.78866 0.42174 0.41485 0.0
H153 H 0.82744 0.40682 0.34326 0.0
H154 H 0.66864 0.15461 0.35005 0.0
H155 H 0.62432 0.16882 0.42113 0.0
H156 H 0.74936 0.61195 1.23431 0.0
H157 H 0.69008 0.69588 1.24107 0.0
H158 H 0.92164 0.90314 1.2204 0.0
H159 H -0.01962 0.82177 1.21075 0.0
Tb160 Tb 0.9224 0.00505 0.61621 0.0
Eu161 Eu 0.88926 0.83071 0.58846 0.0
C162 C 0.04976 -0.02131 0.57171 0.0
C163 C 0.87502 0.9501 0.5194 0.0
C164 C 0.92507 0.19565 0.62877 0.0
C165 C 0.92534 0.31529 0.64974 0.0
C166 C -0.03486 0.27301 0.64465 0.0
C167 C 0.84909 0.16517 0.61196 0.0
C168 C 0.80911 0.2075 0.61678 0.0
C169 C 0.84378 0.28028 0.63941 0.0
C170 C -0.04323 0.14361 0.63698 0.0
O171 O 0.79368 0.93016 0.6092 0.0
O172 O 0.79674 0.82527 0.63451 0.0
O173 O -0.04263 0.85963 0.65147 0.0
O174 O 0.92939 0.95414 0.6766 0.0
C175 C 0.75659 0.85995 0.62626 0.0
O176 O 0.79864 0.71006 0.57148 0.0
O177 O 0.9207 0.73887 0.58116 0.0
O178 O -0.00292 0.91676 0.5511 0.0
O179 O 0.02945 -0.00277 0.60822 0.0
O180 O 0.90588 0.00757 0.548 0.0
O181 O 0.85688 0.87673 0.52902 0.0
C182 C -0.04371 0.90527 0.68302 0.0
O183 O 0.90912 0.08068 0.6591 0.0
O184 O -0.00899 0.12773 0.60512 0.0
C185 C 0.84646 0.64099 0.5289 0.0
C186 C 0.84556 0.58525 0.44537 0.0
C187 C 0.77361 0.56811 0.46644 0.0
C188 C 0.77412 0.5959 0.50775 0.0
C189 C 0.91632 0.64815 0.51043 0.0
C190 C 0.91597 0.62072 0.46922 0.0
C191 C 0.84979 0.68534 0.56816 0.0
H192 H -0.04269 0.37186 0.66583 0.0
H193 H 0.02487 0.29809 0.65664 0.0
H194 H 0.81813 0.106 0.59828 0.0
H195 H 0.74881 0.17948 0.60551 0.0
H196 H 0.71729 0.53731 0.45034 0.0
H197 H 0.71854 0.58631 0.52208 0.0
H198 H -0.0273 0.68003 0.52651 0.0
H199 H -0.02685 0.63503 0.4552 0.0
Tb200 Tb 0.058 0.92766 0.95344 0.0
Eu201 Eu 0.20651 0.91235 0.923 0.0
C202 C 0.21126 0.07302 0.91289 0.0
C203 C 0.0782 0.91297 0.85536 0.0
C204 C 0.89875 0.84808 1.02194 0.0
C205 C 0.9277 0.82079 1.09166 0.0
C206 C 0.92302 0.8723 1.06379 0.0
C207 C 0.86748 0.76735 1.01094 0.0
C208 C 0.87156 0.71548 1.03909 0.0
C209 C 0.90639 0.74338 1.07867 0.0
C210 C 0.93358 0.90851 0.98822 0.0
O211 O 0.02119 0.80482 0.94121 0.0
O212 O 0.12998 0.81568 0.96899 0.0
O213 O 0.2462 -0.01731 0.98605 0.0
O214 O 0.1196 0.93363 1.01253 0.0
C215 C 0.05438 0.77235 0.96117 0.0
O216 O 0.23796 0.82571 0.90008 0.0
O217 O 0.33142 0.94708 0.91164 0.0
O218 O 0.23515 0.02742 0.8952 0.0
O219 O 0.15195 0.04767 0.94093 0.0
O220 O 0.05659 0.94639 0.88561 0.0
O221 O 0.12473 0.88374 0.86447 0.0
C222 C 0.19747 -0.02637 1.01847 0.0
O223 O 0.00317 0.97002 0.99678 0.0
O224 O 0.93391 0.8812 0.95012 0.0
C225 C 0.34972 0.87976 0.85271 0.0
C226 C 0.40222 0.90221 0.76716 0.0
C227 C 0.33356 0.83142 0.77976 0.0
C228 C 0.30731 0.8204 0.82215 0.0
C229 C 0.42383 0.94508 0.84115 0.0
C230 C 0.44976 0.9564 0.79883 0.0
C231 C 0.31363 0.87833 0.89494 0.0
H232 H -0.04956 0.84245 1.12308 0.0
H233 H -0.05358 0.93347 1.0736 0.0
H234 H 0.847 0.74591 0.97918 0.0
H235 H 0.85134 0.65496 1.02914 0.0
H236 H 0.29669 0.7874 0.75643 0.0
H237 H 0.2511 0.76786 0.8303 0.0
H238 H 0.45891 -0.00929 0.86423 0.0
H239 H 0.50313 0.01176 0.79075 0.0
C240 C 0.09049 0.16788 1.2121 0.0
C241 C 0.0574 0.19716 1.24243 0.0
H242 H 0.19764 0.17574 1.1871 0.0
C243 C 0.1073 0.26799 0.26432 0.0
H244 H 0.0528 0.11505 1.19363 0.0
C245 C 0.18967 0.30239 0.26057 0.0
C246 C 0.22247 0.26656 1.23469 0.0
H247 H 0.08299 0.29295 0.28712 0.0
H248 H 0.22698 0.35047 0.28199 0.0
C249 C 0.17316 0.20381 1.20754 0.0
C250 C 0.18883 0.07612 0.57324 0.0
C251 C 0.11843 0.04291 0.5504 0.0
H252 H 0.27806 0.18016 0.60393 0.0
C253 C 0.10182 0.09268 0.52692 0.0
H254 H 0.20397 0.03858 0.59059 0.0
C255 C 0.14144 0.1737 0.53622 0.0
C256 C 0.20029 0.20444 0.56715 0.0
H257 H 0.04923 0.06791 0.50762 0.0
H258 H 0.12129 0.21026 0.52216 0.0
C259 C 0.22898 0.15678 0.58227 0.0
C260 C 0.26916 0.21177 0.92571 0.0
C261 C 0.23667 0.15011 0.89582 0.0
H262 H 0.25182 0.29709 0.9601 0.0
C263 C 0.18474 0.14888 0.86559 0.0
H264 H 0.31138 0.21499 0.94848 0.0
C265 C 0.1467 0.19208 0.87351 0.0
C266 C 0.16594 0.24083 0.90973 0.0
H267 H 0.16132 0.10314 0.84119 0.0
H268 H 0.0989 0.1831 0.85313 0.0
C269 C 0.23261 0.25629 0.93333 0.0
C270 C 0.65076 0.59679 1.06133 0.0
C271 C 0.62298 0.51604 1.06801 0.0
H272 H 0.62982 0.68092 1.03091 0.0
C273 C 0.56745 0.4597 1.0399 0.0
H274 H 0.6955 0.64185 1.08164 0.0
C275 C 0.52983 0.48195 1.01102 0.0
C276 C 0.54723 0.56094 1.00981 0.0
H277 H 0.54508 0.39702 1.04383 0.0
H278 H 0.47995 0.43531 0.994 0.0
C279 C 0.61315 0.61915 1.03228 0.0
C280 C 0.80185 0.39778 0.52326 0.0
C281 C 0.83078 0.34761 0.53396 0.0
H282 H 0.72789 0.41542 0.48144 0.0
C283 C 0.78696 0.26763 0.52121 0.0
H284 H 0.83141 0.45914 0.53354 0.0
C285 C 0.72952 0.24394 0.49026 0.0
C286 C 0.71566 0.30033 0.47164 0.0
H287 H 0.80416 0.22566 0.5305 0.0
H288 H 0.70708 0.18546 0.47647 0.0
C289 C 0.74254 0.37301 0.49303 0.0
C290 C 0.67741 0.24944 0.71059 0.0
C291 C 0.72608 0.30109 0.74249 0.0
H292 H 0.67621 0.20318 0.64899 0.0
C293 C 0.79578 0.37082 0.72944 0.0
H294 H 0.61937 0.19932 0.71865 0.0
C295 C 0.82733 0.37494 0.68851 0.0
C296 C 0.79202 0.30727 0.66197 0.0
H297 H 0.83285 0.41637 0.75201 0.0
H298 H 0.88545 0.42527 0.68097 0.0
C299 C 0.71067 0.25193 0.6703 0.0
C300 C -0.02622 0.69961 1.17634 0.0
C301 C 0.89552 0.65886 1.19357 0.0
H302 H 0.03911 0.77148 1.12276 0.0
C303 C 0.83799 0.603 1.1658 0.0
H304 H 0.02395 0.73282 1.19697 0.0
C305 C 0.84505 0.62302 1.12296 0.0
C306 C 0.9142 0.69139 1.10886 0.0
H307 H 0.78042 0.55759 1.17773 0.0
H308 H 0.79335 0.59346 1.10321 0.0
C309 C -0.01731 0.72216 1.1338 0.0
C310 C 0.8027 0.60408 0.3745 0.0
C311 C 0.85181 0.58586 0.39792 0.0
H312 H 0.79852 0.67297 0.32443 0.0
C313 C 0.92149 0.59512 0.37753 0.0
H314 H 0.74566 0.59351 0.38688 0.0
C315 C -0.04586 0.64543 0.34276 0.0
C316 C 0.91453 0.6826 0.32695 0.0
H317 H -0.04274 0.57457 0.39217 0.0
H318 H 0.01491 0.66366 0.3331 0.0
C319 C 0.83361 0.65101 0.33847 0.0
C320 C 0.34683 0.91782 0.70017 0.0
C321 C 0.41361 0.92944 0.72249 0.0
H322 H 0.30222 0.96736 0.65678 0.0
C323 C 0.49004 -0.01439 0.70706 0.0
H324 H 0.28677 0.87372 0.70997 0.0
C325 C 0.49851 0.04104 0.67722 0.0
C326 C 0.43067 0.04027 0.66238 0.0
H327 H 0.54305 -0.00657 0.72198 0.0
H328 H 0.55775 0.08976 0.67043 0.0
C329 C 0.35556 -0.02753 0.66982 0.0
C330 C 0.47823 0.03169 1.24406 0.0
C331 C 0.45664 0.04791 0.28436 0.0
H332 H 0.5594 0.00751 1.20822 0.0
C333 C 0.49006 0.03743 0.32047 0.0
H334 H 0.4536 0.04063 1.21579 0.0
C335 C 0.5489 0.01675 0.31622 0.0
C336 C 0.57753 0.00971 0.27579 0.0
H337 H 0.47457 0.05034 0.35176 0.0
H338 H 0.57678 0.01294 0.34458 0.0
C339 C 0.53864 0.01277 1.23974 0.0
C340 C 0.56044 0.68966 0.65798 0.0
C341 C 0.51882 0.67383 0.62009 0.0
H342 H 0.66901 0.76461 0.69013 0.0
C343 C 0.54835 0.73149 0.58828 0.0
H344 H 0.53818 0.64633 0.68313 0.0
C345 C 0.62373 0.79999 0.59245 0.0
C346 C 0.66922 0.81065 0.62844 0.0
H347 H 0.51709 0.72017 0.55878 0.0
H348 H 0.64968 0.83977 0.56581 0.0
C349 C 0.63492 0.75755 0.66215 0.0
C350 C 0.0232 0.57474 0.98949 0.0
C351 C -0.02006 0.5293 0.95449 0.0
H352 H 0.08093 0.68931 1.01911 0.0
C353 C -0.05427 0.5589 0.92742 0.0
H354 H 0.05056 0.5527 1.01047 0.0
C355 C -0.03722 0.63709 0.9325 0.0
C356 C 0.01549 0.68594 0.96408 0.0
H357 H 0.9133 0.5249 0.89989 0.0
H358 H -0.05817 0.66146 0.90906 0.0
C359 C 0.04129 0.65291 0.99416 0.0
C360 C 0.3065 0.29045 0.41275 0.0
C361 C 0.37794 0.2967 0.39643 0.0
H362 H 0.24752 0.32057 0.46246 0.0
C363 C 0.44708 0.34115 0.42077 0.0
H364 H 0.25193 0.25709 0.39522 0.0
C365 C 0.44396 0.37586 0.46051 0.0
C366 C 0.37243 0.37046 0.4764 0.0
H367 H 0.50326 0.3474 0.40964 0.0
H368 H 0.49787 0.40752 0.4787 0.0
C369 C 0.30408 0.32759 0.45142 0.0
C370 C 0.27594 0.43649 0.76623 0.0
C371 C 0.23261 0.42201 0.72869 0.0
H372 H 0.27627 0.44346 0.83461 0.0
C373 C 0.15262 0.40436 0.7337 0.0
H374 H 0.33746 0.45048 0.76432 0.0
C375 C 0.11713 0.40005 0.77424 0.0
C376 C 0.16019 0.41406 0.8118 0.0
H377 H 0.11677 0.39364 0.70608 0.0
H378 H 0.05537 0.38534 0.77605 0.0
C379 C 0.24055 0.43272 0.80687 0.0
C380 C -0.04392 0.30278 1.09282 0.0
C381 C -0.04742 0.25804 1.05618 0.0
H382 H 0.92603 0.30269 1.15944 0.0
C383 C 0.91288 0.17485 1.06087 0.0
H384 H -0.01445 0.36672 1.09102 0.0
C385 C 0.87914 0.13807 1.10023 0.0
C386 C 0.88215 0.18239 1.13689 0.0
H387 H 0.90837 0.13748 1.03395 0.0
H388 H 0.85057 0.07417 1.10185 0.0
C389 C 0.92114 0.26569 1.13227 0.0
C390 C 0.86864 0.07218 0.42593 0.0
C391 C 0.84705 0.01993 0.39076 0.0
H392 H 0.89385 0.09212 0.49242 0.0
C393 C 0.83392 0.94307 0.39866 0.0
H394 H 0.87929 0.13159 0.42197 0.0
C395 C 0.84178 0.91966 0.43976 0.0
C396 C 0.86348 -0.02786 0.47491 0.0
H397 H 0.81728 0.90032 0.37291 0.0
H398 H 0.83136 0.86036 0.44386 0.0
C399 C 0.87685 0.04899 0.46685 0.0
C400 C -0.02205 0.94748 0.76092 0.0
C401 C -0.01266 0.90448 0.72687 0.0
H402 H -0.00208 -0.01619 0.82624 0.0
C403 C 0.02832 0.86388 0.73557 0.0
H404 H -0.05258 -0.01999 0.75628 0.0
C405 C 0.05854 0.86657 0.77659 0.0
C406 C 0.04839 0.90945 0.8106 0.0
H407 H 0.03774 0.8304 0.71056 0.0
H408 H 0.08956 0.83466 0.78164 0.0
C409 C 0.00735 0.94967 0.80162 0.0
C410 C 0.31104 0.06091 1.0702 0.0
C411 C 0.22901 0.00836 1.06251 0.0
H412 H 0.40166 0.13586 1.11506 0.0
C413 C 0.17594 -0.00837 1.09759 0.0
H414 H 0.35442 0.0763 1.04445 0.0
C415 C 0.20311 0.0257 1.13819 0.0
C416 C 0.28489 0.07887 1.14601 0.0
H417 H 0.11246 0.95203 1.09376 0.0
H418 H 0.15906 0.01048 1.16358 0.0
C419 C 0.33837 0.09557 1.11102 0.0
loop_
_geom_bond_atom_site_label_1
_geom_bond_atom_site_label_2
_geom_bond_distance
_geom_bond_site_symmetry_2
_ccdc_geom_bond_type
Tb0 C10 2.825 . S
Tb0 O11 2.347 . S
Tb0 O14 2.366 . S
Tb0 O19 2.418 . S
Tb0 O20 2.384 1_554 S
Tb0 O23 2.479 . S
Tb0 O24 2.471 . S
Eu1 O12 2.418 . S
Eu1 O13 2.384 1_556 S
Eu1 O16 2.479 . S
Eu1 O17 2.471 . S
Eu1 O18 2.347 1_556 S
Eu1 O21 2.366 . S
Eu1 C31 2.825 . S
C2 O18 1.259 . S
C2 O19 1.265 . S
C3 O20 1.255 . S
C3 O21 1.265 . S
C4 C6 1.380 . S
C4 C7 1.374 . S
C4 C10 1.507 . S
C5 C6 1.384 . S
C5 C9 1.387 . S
C5 H32 0.930 1_545 S
C6 C4 1.380 . S
C6 C5 1.384 . S
C6 H33 0.931 . S
C7 C4 1.374 . S
C7 C8 1.390 . S
C7 H34 0.930 . S
C8 C7 1.390 . S
C8 C9 1.391 . S
C8 H35 0.930 . S
C9 C5 1.387 . S
C9 C8 1.391 . S
C10 Tb0 2.825 . S
C10 C4 1.507 . S
C10 O23 1.238 . S
C10 O24 1.247 . S
O11 Tb0 2.347 . S
O11 C15 1.259 . S
O12 Eu1 2.418 . S
O12 C15 1.265 1_556 S
O13 Eu1 2.384 1_554 S
O13 C22 1.255 . S
O14 Tb0 2.366 . S
O14 C22 1.265 . S
C15 O11 1.259 . S
C15 O12 1.265 1_554 S
O16 Eu1 2.479 . S
O16 C31 1.238 . S
O17 Eu1 2.471 . S
O17 C31 1.247 . S
O18 Eu1 2.347 1_554 S
O18 C2 1.259 . S
O19 Tb0 2.418 . S
O19 C2 1.265 . S
O20 Tb0 2.384 1_556 S
O20 C3 1.255 . S
O21 Eu1 2.366 . S
O21 C3 1.265 . S
C22 O13 1.255 . S
C22 O14 1.265 . S
O23 Tb0 2.479 . S
O23 C10 1.238 . S
O24 Tb0 2.471 . S
O24 C10 1.247 . S
C25 C28 1.380 . S
C25 C29 1.374 . S
C25 C31 1.507 . S
C26 C27 1.387 . S
C26 C30 1.391 . S
C27 C26 1.387 . S
C27 C28 1.384 . S
C27 H36 0.930 . S
C28 C25 1.380 . S
C28 C27 1.384 . S
C28 H37 0.931 . S
C29 C25 1.374 . S
C29 C30 1.390 . S
C29 H38 0.930 . S
C30 C26 1.391 . S
C30 C29 1.390 . S
C30 H39 0.930 . S
C31 Eu1 2.825 . S
C31 O16 1.238 . S
C31 O17 1.247 . S
C31 C25 1.507 . S
H32 C5 0.930 1_565 S
H33 C6 0.931 . S
H34 C7 0.930 . S
H35 C8 0.930 . S
H36 C27 0.930 . S
H37 C28 0.931 . S
H38 C29 0.930 . S
H39 C30 0.930 . S
Tb40 C50 2.825 . S
Tb40 O51 2.347 . S
Tb40 O54 2.366 . S
Tb40 O59 2.418 . S
Tb40 O60 2.384 . S
Tb40 O63 2.479 . S
Tb40 O64 2.471 . S
Eu41 O52 2.418 . S
Eu41 O53 2.384 . S
Eu41 O56 2.479 . S
Eu41 O57 2.471 . S
Eu41 O58 2.347 . S
Eu41 O61 2.366 . S
Eu41 C71 2.825 . S
C42 O58 1.259 . S
C42 O59 1.265 . S
C43 O60 1.255 . S
C43 O61 1.265 . S
C44 C46 1.380 . S
C44 C47 1.374 . S
C44 C50 1.507 . S
C45 C46 1.384 . S
C45 C49 1.387 . S
C45 H72 0.930 . S
C46 C44 1.380 . S
C46 C45 1.384 . S
C46 H73 0.931 . S
C47 C44 1.374 . S
C47 C48 1.390 . S
C47 H74 0.930 . S
C48 C47 1.390 . S
C48 C49 1.391 . S
C48 H75 0.930 . S
C49 C45 1.387 . S
C49 C48 1.391 . S
C50 Tb40 2.825 . S
C50 C44 1.507 . S
C50 O63 1.238 . S
C50 O64 1.247 . S
O51 Tb40 2.347 . S
O51 C55 1.259 . S
O52 Eu41 2.418 . S
O52 C55 1.265 . S
O53 Eu41 2.384 . S
O53 C62 1.255 . S
O54 Tb40 2.366 . S
O54 C62 1.265 . S
C55 O51 1.259 . S
C55 O52 1.265 . S
O56 Eu41 2.479 . S
O56 C71 1.238 . S
O57 Eu41 2.471 . S
O57 C71 1.247 . S
O58 Eu41 2.347 . S
O58 C42 1.259 . S
O59 Tb40 2.418 . S
O59 C42 1.265 . S
O60 Tb40 2.384 . S
O60 C43 1.255 . S
O61 Eu41 2.366 . S
O61 C43 1.265 . S
C62 O53 1.255 . S
C62 O54 1.265 . S
O63 Tb40 2.479 . S
O63 C50 1.238 . S
O64 Tb40 2.471 . S
O64 C50 1.247 . S
C65 C68 1.380 . S
C65 C69 1.374 . S
C65 C71 1.507 . S
C66 C67 1.387 . S
C66 C70 1.391 . S
C67 C66 1.387 . S
C67 C68 1.384 . S
C67 H76 0.930 . S
C68 C65 1.380 . S
C68 C67 1.384 . S
C68 H77 0.931 . S
C69 C65 1.374 . S
C69 C70 1.390 . S
C69 H78 0.930 . S
C70 C66 1.391 . S
C70 C69 1.390 . S
C70 H79 0.930 . S
C71 Eu41 2.825 . S
C71 O56 1.238 . S
C71 O57 1.247 . S
C71 C65 1.507 . S
H72 C45 0.930 . S
H73 C46 0.931 . S
H74 C47 0.930 . S
H75 C48 0.930 . S
H76 C67 0.930 . S
H77 C68 0.931 . S
H78 C69 0.930 . S
H79 C70 0.930 . S
Tb80 C90 2.825 . S
Tb80 O91 2.347 . S
Tb80 O94 2.366 . S
Tb80 O99 2.418 . S
Tb80 O100 2.384 . S
Tb80 O103 2.479 . S
Tb80 O104 2.471 . S
Eu81 O92 2.418 . S
Eu81 O93 2.384 . S
Eu81 O96 2.479 . S
Eu81 O97 2.471 . S
Eu81 O98 2.347 . S
Eu81 O101 2.366 1_655 S
Eu81 C111 2.825 . S
C82 O98 1.259 1_455 S
C82 O99 1.265 . S
C83 O100 1.255 . S
C83 O101 1.265 . S
C84 C86 1.380 . S
C84 C87 1.374 . S
C84 C90 1.507 . S
C85 C86 1.384 . S
C85 C89 1.387 . S
C85 H112 0.930 . S
C86 C84 1.380 . S
C86 C85 1.384 . S
C86 H113 0.931 . S
C87 C84 1.374 . S
C87 C88 1.390 . S
C87 H114 0.930 . S
C88 C87 1.390 . S
C88 C89 1.391 . S
C88 H115 0.930 . S
C89 C85 1.387 . S
C89 C88 1.391 . S
C90 Tb80 2.825 . S
C90 C84 1.507 . S
C90 O103 1.238 . S
C90 O104 1.247 . S
O91 Tb80 2.347 . S
O91 C95 1.259 1_455 S
O92 Eu81 2.418 . S
O92 C95 1.265 . S
O93 Eu81 2.384 . S
O93 C102 1.255 . S
O94 Tb80 2.366 . S
O94 C102 1.265 1_455 S
C95 O91 1.259 1_655 S
C95 O92 1.265 . S
O96 Eu81 2.479 . S
O96 C111 1.238 . S
O97 Eu81 2.471 . S
O97 C111 1.247 . S
O98 Eu81 2.347 . S
O98 C82 1.259 1_655 S
O99 Tb80 2.418 . S
O99 C82 1.265 . S
O100 Tb80 2.384 . S
O100 C83 1.255 . S
O101 Eu81 2.366 1_455 S
O101 C83 1.265 . S
C102 O93 1.255 . S
C102 O94 1.265 1_655 S
O103 Tb80 2.479 . S
O103 C90 1.238 . S
O104 Tb80 2.471 . S
O104 C90 1.247 . S
C105 C108 1.380 . S
C105 C109 1.374 . S
C105 C111 1.507 . S
C106 C107 1.387 . S
C106 C110 1.391 . S
C107 C106 1.387 . S
C107 C108 1.384 . S
C107 H116 0.930 . S
C108 C105 1.380 . S
C108 C107 1.384 . S
C108 H117 0.931 . S
C109 C105 1.374 . S
C109 C110 1.390 . S
C109 H118 0.930 . S
C110 C106 1.391 . S
C110 C109 1.390 . S
C110 H119 0.930 . S
C111 Eu81 2.825 . S
C111 O96 1.238 . S
C111 O97 1.247 . S
C111 C105 1.507 . S
H112 C85 0.930 . S
H113 C86 0.931 . S
H114 C87 0.930 . S
H115 C88 0.930 . S
H116 C107 0.930 . S
H117 C108 0.931 . S
H118 C109 0.930 . S
H119 C110 0.930 . S
Tb120 C130 2.825 . S
Tb120 O131 2.347 . S
Tb120 O134 2.366 . S
Tb120 O139 2.421 . S
Tb120 O140 2.384 1_554 S
Tb120 O143 2.479 . S
Tb120 O144 2.471 . S
Eu121 O132 2.418 . S
Eu121 O133 2.384 1_556 S
Eu121 O136 2.479 . S
Eu121 O137 2.471 . S
Eu121 O138 2.347 1_566 S
Eu121 O141 2.366 1_565 S
Eu121 C151 2.825 . S
C122 O138 1.259 . S
C122 O139 1.264 . S
C123 O140 1.255 . S
C123 O141 1.265 . S
C124 C126 1.380 . S
C124 C127 1.374 . S
C124 C130 1.507 . S
C125 C126 1.384 . S
C125 C129 1.387 . S
C125 H152 0.930 1_655 S
C126 C124 1.380 . S
C126 C125 1.384 . S
C126 H153 0.931 1_655 S
C127 C124 1.374 . S
C127 C128 1.390 . S
C127 H154 0.930 . S
C128 C127 1.390 . S
C128 C129 1.391 . S
C128 H155 0.930 . S
C129 C125 1.387 . S
C129 C128 1.391 . S
C130 Tb120 2.825 . S
C130 C124 1.507 . S
C130 O143 1.238 . S
C130 O144 1.247 . S
O131 Tb120 2.347 . S
O131 C135 1.259 1_545 S
O132 Eu121 2.418 . S
O132 C135 1.265 1_556 S
O133 Eu121 2.384 1_554 S
O133 C142 1.255 . S
O134 Tb120 2.366 . S
O134 C142 1.265 1_545 S
C135 O131 1.259 1_565 S
C135 O132 1.265 1_554 S
O136 Eu121 2.479 . S
O136 C151 1.238 . S
O137 Eu121 2.471 . S
O137 C151 1.247 . S
O138 Eu121 2.347 1_544 S
O138 C122 1.259 . S
O139 Tb120 2.421 . S
O139 C122 1.264 . S
O140 Tb120 2.384 1_556 S
O140 C123 1.255 . S
O141 Eu121 2.366 1_545 S
O141 C123 1.265 . S
C142 O133 1.255 . S
C142 O134 1.265 1_565 S
O143 Tb120 2.479 . S
O143 C130 1.238 . S
O144 Tb120 2.471 . S
O144 C130 1.247 . S
C145 C148 1.380 . S
C145 C149 1.374 . S
C145 C151 1.507 . S
C146 C147 1.387 . S
C146 C150 1.391 . S
C147 C146 1.387 . S
C147 C148 1.384 . S
C147 H156 0.930 . S
C148 C145 1.380 . S
C148 C147 1.384 . S
C148 H157 0.931 . S
C149 C145 1.374 . S
C149 C150 1.390 . S
C149 H158 0.930 . S
C150 C146 1.391 . S
C150 C149 1.390 . S
C150 H159 0.930 . S
C151 Eu121 2.825 . S
C151 O136 1.238 . S
C151 O137 1.247 . S
C151 C145 1.507 . S
H152 C125 0.930 1_455 S
H153 C126 0.931 1_455 S
H154 C127 0.930 . S
H155 C128 0.930 . S
H156 C147 0.930 . S
H157 C148 0.931 . S
H158 C149 0.930 . S
H159 C150 0.930 . S
Tb160 C170 2.825 . S
Tb160 O171 2.347 . S
Tb160 O174 2.366 . S
Tb160 O179 2.418 1_665 S
Tb160 O180 2.384 . S
Tb160 O183 2.479 . S
Tb160 O184 2.471 . S
Eu161 O172 2.418 1_455 S
Eu161 O173 2.384 . S
Eu161 O176 2.479 . S
Eu161 O177 2.471 . S
Eu161 O178 2.347 . S
Eu161 O181 2.366 1_455 S
Eu161 C191 2.825 . S
C162 O178 1.259 . S
C162 O179 1.265 1_565 S
C163 O180 1.255 . S
C163 O181 1.265 . S
C164 C166 1.380 . S
C164 C167 1.374 . S
C164 C170 1.507 . S
C165 C166 1.384 . S
C165 C169 1.387 . S
C165 H192 0.930 1_565 S
C166 C164 1.380 . S
C166 C165 1.384 . S
C166 H193 0.931 1_565 S
C167 C164 1.374 . S
C167 C168 1.390 . S
C167 H194 0.930 . S
C168 C167 1.390 . S
C168 C169 1.391 . S
C168 H195 0.930 . S
C169 C165 1.387 . S
C169 C168 1.391 . S
C170 Tb160 2.825 . S
C170 C164 1.507 . S
C170 O183 1.238 . S
C170 O184 1.247 . S
O171 Tb160 2.347 . S
O171 C175 1.259 . S
O172 Eu161 2.418 1_655 S
O172 C175 1.265 . S
O173 Eu161 2.384 . S
O173 C182 1.255 . S
O174 Tb160 2.366 . S
O174 C182 1.265 1_655 S
C175 O171 1.259 . S
C175 O172 1.265 . S
O176 Eu161 2.479 . S
O176 C191 1.238 . S
O177 Eu161 2.471 . S
O177 C191 1.247 . S
O178 Eu161 2.347 . S
O178 C162 1.259 . S
O179 Tb160 2.418 1_445 S
O179 C162 1.265 1_545 S
O180 Tb160 2.384 . S
O180 C163 1.255 . S
O181 Eu161 2.366 1_655 S
O181 C163 1.265 . S
C182 O173 1.255 . S
C182 O174 1.265 1_455 S
O183 Tb160 2.479 . S
O183 C170 1.238 . S
O184 Tb160 2.471 . S
O184 C170 1.247 . S
C185 C188 1.380 . S
C185 C189 1.374 . S
C185 C191 1.507 . S
C186 C187 1.387 . S
C186 C190 1.391 . S
C187 C186 1.387 . S
C187 C188 1.384 . S
C187 H196 0.930 . S
C188 C185 1.380 . S
C188 C187 1.384 . S
C188 H197 0.931 . S
C189 C185 1.374 . S
C189 C190 1.390 . S
C189 H198 0.930 . S
C190 C186 1.391 . S
C190 C189 1.390 . S
C190 H199 0.930 . S
C191 Eu161 2.825 . S
C191 O176 1.238 . S
C191 O177 1.247 . S
C191 C185 1.507 . S
H192 C165 0.930 1_545 S
H193 C166 0.931 1_545 S
H194 C167 0.930 . S
H195 C168 0.930 . S
H196 C187 0.930 . S
H197 C188 0.931 . S
H198 C189 0.930 . S
H199 C190 0.930 . S
Tb200 C210 2.825 . S
Tb200 O211 2.347 . S
Tb200 O214 2.368 . S
Tb200 O219 2.418 1_565 S
Tb200 O220 2.384 . S
Tb200 O223 2.479 . S
Tb200 O224 2.471 . S
Eu201 O212 2.418 1_545 S
Eu201 O213 2.384 . S
Eu201 O216 2.479 . S
Eu201 O217 2.471 . S
Eu201 O218 2.347 . S
Eu201 O221 2.366 1_545 S
Eu201 C231 2.825 . S
C202 O218 1.259 . S
C202 O219 1.265 . S
C203 O220 1.255 . S
C203 O221 1.265 . S
C204 C206 1.380 . S
C204 C207 1.374 . S
C204 C210 1.507 . S
C205 C206 1.384 . S
C205 C209 1.387 . S
C205 H232 0.930 1_455 S
C206 C204 1.380 . S
C206 C205 1.384 . S
C206 H233 0.931 . S
C207 C204 1.374 . S
C207 C208 1.390 . S
C207 H234 0.930 . S
C208 C207 1.390 . S
C208 C209 1.391 . S
C208 H235 0.930 . S
C209 C205 1.387 . S
C209 C208 1.391 . S
C210 Tb200 2.825 . S
C210 C204 1.507 . S
C210 O223 1.238 . S
C210 O224 1.247 . S
O211 Tb200 2.347 . S
O211 C215 1.259 . S
O212 Eu201 2.418 1_565 S
O212 C215 1.265 . S
O213 Eu201 2.384 . S
O213 C222 1.255 . S
O214 Tb200 2.368 . S
O214 C222 1.266 1_565 S
C215 O211 1.259 . S
C215 O212 1.265 . S
O216 Eu201 2.479 . S
O216 C231 1.238 . S
O217 Eu201 2.471 . S
O217 C231 1.247 . S
O218 Eu201 2.347 . S
O218 C202 1.259 . S
O219 Tb200 2.418 1_545 S
O219 C202 1.265 . S
O220 Tb200 2.384 . S
O220 C203 1.255 . S
O221 Eu201 2.366 1_565 S
O221 C203 1.265 . S
C222 O213 1.255 . S
C222 O214 1.266 1_545 S
O223 Tb200 2.479 . S
O223 C210 1.238 . S
O224 Tb200 2.471 . S
O224 C210 1.247 . S
C225 C228 1.380 . S
C225 C229 1.374 . S
C225 C231 1.507 . S
C226 C227 1.387 . S
C226 C230 1.391 . S
C227 C226 1.387 . S
C227 C228 1.384 . S
C227 H236 0.930 . S
C228 C225 1.380 . S
C228 C227 1.384 . S
C228 H237 0.931 . S
C229 C225 1.374 . S
C229 C230 1.390 . S
C229 H238 0.930 . S
C230 C226 1.391 . S
C230 C229 1.390 . S
C230 H239 0.930 . S
C231 Eu201 2.825 . S
C231 O216 1.238 . S
C231 O217 1.247 . S
C231 C225 1.507 . S
H232 C205 0.930 1_655 S
H233 C206 0.931 . S
H234 C207 0.930 . S
H235 C208 0.930 . S
H236 C227 0.930 . S
H237 C228 0.931 . S
H238 C229 0.930 . S
H239 C230 0.930 . S
C240 C241 1.387 1_556 S
C240 H244 0.950 . S
C240 C249 1.390 . S
C241 C240 1.387 1_554 S
C241 C243 1.387 . S
H242 C249 0.950 . S
C243 C241 1.387 . S
C243 C245 1.390 . S
C243 H247 0.950 . S
H244 C240 0.950 . S
C245 C243 1.390 . S
C245 C246 1.387 . S
C245 H248 0.950 . S
C246 C245 1.387 . S
C246 C249 1.387 1_554 S
H247 C243 0.950 . S
H248 C245 0.950 . S
C249 C240 1.390 . S
C249 H242 0.950 . S
C249 C246 1.387 1_556 S
C250 C251 1.387 . S
C250 H254 0.950 . S
C250 C259 1.390 . S
C251 C250 1.387 . S
C251 C253 1.387 . S
H252 C259 0.950 . S
C253 C251 1.387 . S
C253 C255 1.390 . S
C253 H257 0.950 . S
H254 C250 0.950 . S
C255 C253 1.390 . S
C255 C256 1.387 . S
C255 H258 0.950 . S
C256 C255 1.387 . S
C256 C259 1.387 . S
H257 C253 0.950 . S
H258 C255 0.950 . S
C259 C250 1.390 . S
C259 H252 0.950 . S
C259 C256 1.387 . S
C260 C261 1.387 . S
C260 H264 0.950 . S
C260 C269 1.390 . S
C261 C260 1.387 . S
C261 C263 1.387 . S
H262 C269 0.950 . S
C263 C261 1.387 . S
C263 C265 1.390 . S
C263 H267 0.950 . S
H264 C260 0.950 . S
C265 C263 1.390 . S
C265 C266 1.387 . S
C265 H268 0.950 . S
C266 C265 1.387 . S
C266 C269 1.387 . S
H267 C263 0.950 . S
H268 C265 0.950 . S
C269 C260 1.390 . S
C269 H262 0.950 . S
C269 C266 1.387 . S
C270 C271 1.387 . S
C270 H274 0.950 . S
C270 C279 1.390 . S
C271 C270 1.387 . S
C271 C273 1.387 . S
H272 C279 0.950 . S
C273 C271 1.387 . S
C273 C275 1.390 . S
C273 H277 0.950 . S
H274 C270 0.950 . S
C275 C273 1.390 . S
C275 C276 1.387 . S
C275 H278 0.950 . S
C276 C275 1.387 . S
C276 C279 1.387 . S
H277 C273 0.950 . S
H278 C275 0.950 . S
C279 C270 1.390 . S
C279 H272 0.950 . S
C279 C276 1.387 . S
C280 C281 1.387 . S
C280 H284 0.950 . S
C280 C289 1.390 1_455 S
C281 C280 1.387 . S
C281 C283 1.387 . S
H282 C289 0.950 . S
C283 C281 1.387 . S
C283 C285 1.390 1_455 S
C283 H287 0.950 . S
H284 C280 0.950 . S
C285 C283 1.390 1_655 S
C285 C286 1.387 . S
C285 H288 0.950 . S
C286 C285 1.387 . S
C286 C289 1.387 . S
H287 C283 0.950 . S
H288 C285 0.950 . S
C289 C280 1.390 1_655 S
C289 H282 0.950 . S
C289 C286 1.387 . S
C290 C291 1.387 . S
C290 H294 0.950 . S
C290 C299 1.390 1_545 S
C291 C290 1.387 . S
C291 C293 1.387 . S
H292 C299 0.950 . S
C293 C291 1.387 . S
C293 C295 1.390 1_545 S
C293 H297 0.950 . S
H294 C290 0.950 . S
C295 C293 1.390 1_565 S
C295 C296 1.387 . S
C295 H298 0.950 . S
C296 C295 1.387 . S
C296 C299 1.387 . S
H297 C293 0.950 . S
H298 C295 0.950 . S
C299 C290 1.390 1_565 S
C299 H292 0.950 . S
C299 C296 1.387 . S
C300 C301 1.387 . S
C300 H304 0.950 . S
C300 C309 1.390 . S
C301 C300 1.387 . S
C301 C303 1.387 . S
H302 C309 0.950 1_455 S
C303 C301 1.387 . S
C303 C305 1.390 . S
C303 H307 0.950 . S
H304 C300 0.950 . S
C305 C303 1.390 . S
C305 C306 1.387 . S
C305 H308 0.950 . S
C306 C305 1.387 . S
C306 C309 1.387 . S
H307 C303 0.950 . S
H308 C305 0.950 . S
C309 C300 1.390 . S
C309 H302 0.950 1_655 S
C309 C306 1.387 . S
C310 C311 1.387 . S
C310 H314 0.950 . S
C310 C319 1.390 . S
C311 C310 1.387 . S
C311 C313 1.387 . S
H312 C319 0.950 . S
C313 C311 1.387 . S
C313 C315 1.390 . S
C313 H317 0.950 . S
H314 C310 0.950 . S
C315 C313 1.390 . S
C315 C316 1.387 . S
C315 H318 0.950 . S
C316 C315 1.387 . S
C316 C319 1.387 . S
H317 C313 0.950 . S
H318 C315 0.950 . S
C319 C310 1.390 . S
C319 H312 0.950 . S
C319 C316 1.387 . S
C320 C321 1.387 . S
C320 H324 0.950 . S
C320 C329 1.390 . S
C321 C320 1.387 . S
C321 C323 1.387 . S
H322 C329 0.950 . S
C323 C321 1.387 . S
C323 C325 1.390 . S
C323 H327 0.950 . S
H324 C320 0.950 . S
C325 C323 1.390 . S
C325 C326 1.387 . S
C325 H328 0.950 . S
C326 C325 1.387 . S
C326 C329 1.387 . S
H327 C323 0.950 . S
H328 C325 0.950 . S
C329 C320 1.390 . S
C329 H322 0.950 . S
C329 C326 1.387 . S
C330 C331 1.387 . S
C330 H334 0.950 . S
C330 C339 1.390 . S
C331 C330 1.387 . S
C331 C333 1.387 . S
H332 C339 0.950 . S
C333 C331 1.387 . S
C333 C335 1.390 . S
C333 H337 0.950 . S
H334 C330 0.950 . S
C335 C333 1.390 . S
C335 C336 1.387 . S
C335 H338 0.950 . S
C336 C335 1.387 . S
C336 C339 1.387 . S
H337 C333 0.950 . S
H338 C335 0.950 . S
C339 C330 1.390 . S
C339 H332 0.950 . S
C339 C336 1.387 . S
C340 C341 1.387 . S
C340 H344 0.950 . S
C340 C349 1.390 . S
C341 C340 1.387 . S
C341 C343 1.387 . S
H342 C349 0.950 . S
C343 C341 1.387 . S
C343 C345 1.390 . S
C343 H347 0.950 . S
H344 C340 0.950 . S
C345 C343 1.390 . S
C345 C346 1.387 . S
C345 H348 0.950 . S
C346 C345 1.387 . S
C346 C349 1.387 . S
H347 C343 0.950 . S
H348 C345 0.950 . S
C349 C340 1.390 . S
C349 H342 0.950 . S
C349 C346 1.387 . S
C350 C351 1.387 . S
C350 H354 0.950 . S
C350 C359 1.390 . S
C351 C350 1.387 . S
C351 C353 1.387 . S
H352 C359 0.950 . S
C353 C351 1.387 . S
C353 C355 1.390 . S
C353 H357 0.950 . S
H354 C350 0.950 . S
C355 C353 1.390 . S
C355 C356 1.387 . S
C355 H358 0.950 . S
C356 C355 1.387 . S
C356 C359 1.387 . S
H357 C353 0.950 . S
H358 C355 0.950 . S
C359 C350 1.390 . S
C359 H352 0.950 . S
C359 C356 1.387 . S
C360 C361 1.387 . S
C360 H364 0.950 . S
C360 C369 1.390 . S
C361 C360 1.387 . S
C361 C363 1.387 . S
H362 C369 0.950 . S
C363 C361 1.387 . S
C363 C365 1.390 . S
C363 H367 0.950 . S
H364 C360 0.950 . S
C365 C363 1.390 . S
C365 C366 1.387 . S
C365 H368 0.950 . S
C366 C365 1.387 . S
C366 C369 1.387 . S
H367 C363 0.950 . S
H368 C365 0.950 . S
C369 C360 1.390 . S
C369 H362 0.950 . S
C369 C366 1.387 . S
C370 C371 1.387 . S
C370 H374 0.950 . S
C370 C379 1.390 . S
C371 C370 1.387 . S
C371 C373 1.387 . S
H372 C379 0.950 . S
C373 C371 1.387 . S
C373 C375 1.390 . S
C373 H377 0.950 . S
H374 C370 0.950 . S
C375 C373 1.390 . S
C375 C376 1.387 . S
C375 H378 0.950 . S
C376 C375 1.387 . S
C376 C379 1.387 . S
H377 C373 0.950 . S
H378 C375 0.950 . S
C379 C370 1.390 . S
C379 H372 0.950 . S
C379 C376 1.387 . S
C380 C381 1.387 . S
C380 H384 0.950 . S
C380 C389 1.390 . S
C381 C380 1.387 . S
C381 C383 1.387 . S
H382 C389 0.950 . S
C383 C381 1.387 . S
C383 C385 1.390 . S
C383 H387 0.950 . S
H384 C380 0.950 . S
C385 C383 1.390 . S
C385 C386 1.387 . S
C385 H388 0.950 . S
C386 C385 1.387 . S
C386 C389 1.387 . S
H387 C383 0.950 . S
H388 C385 0.950 . S
C389 C380 1.390 . S
C389 H382 0.950 . S
C389 C386 1.387 . S
C390 C391 1.387 . S
C390 H394 0.950 1_565 S
C390 C399 1.390 . S
C391 C390 1.387 . S
C391 C393 1.387 . S
H392 C399 0.950 . S
C393 C391 1.387 . S
C393 C395 1.390 . S
C393 H397 0.950 . S
H394 C390 0.950 1_545 S
C395 C393 1.390 . S
C395 C396 1.387 . S
C395 H398 0.950 . S
C396 C395 1.387 . S
C396 C399 1.387 . S
H397 C393 0.950 . S
H398 C395 0.950 . S
C399 C390 1.390 . S
C399 H392 0.950 . S
C399 C396 1.387 . S
C400 C401 1.387 . S
C400 H404 0.950 1_455 S
C400 C409 1.390 . S
C401 C400 1.387 . S
C401 C403 1.387 . S
H402 C409 0.950 . S
C403 C401 1.387 . S
C403 C405 1.390 . S
C403 H407 0.950 . S
H404 C400 0.950 1_655 S
C405 C403 1.390 . S
C405 C406 1.387 . S
C405 H408 0.950 . S
C406 C405 1.387 . S
C406 C409 1.387 . S
H407 C403 0.950 . S
H408 C405 0.950 . S
C409 C400 1.390 . S
C409 H402 0.950 . S
C409 C406 1.387 . S
C410 C411 1.387 . S
C410 H414 0.950 . S
C410 C419 1.390 . S
C411 C410 1.387 . S
C411 C413 1.387 . S
H412 C419 0.950 . S
C413 C411 1.387 . S
C413 C415 1.390 . S
C413 H417 0.950 . S
H414 C410 0.950 . S
C415 C413 1.390 . S
C415 C416 1.387 . S
C415 H418 0.950 . S
C416 C415 1.387 . S
C416 C419 1.387 . S
H417 C413 0.950 . S
H418 C415 0.950 . S
C419 C410 1.390 . S
C419 H412 0.950 . S
C419 C416 1.387 . S
C241 C122 1.415 1_455 S
C246 C2 1.415 . S
C251 C162 1.410 1_545 S
C256 C42 1.410 . S
C261 C202 1.410 . S
C266 C82 1.410 . S
C271 C26 1.207 . S
C276 C89 1.208 . S
C281 C66 1.212 . S
C286 C129 1.211 . S
C291 C106 1.210 . S
C296 C169 1.213 . S
C301 C146 1.214 . S
C306 C209 1.214 1_655 S
C311 C186 1.212 . S
C316 C9 1.211 1_565 S
C321 C226 1.211 . S
C326 C49 1.210 . S
C331 C15 1.990 . S
C336 C135 1.991 1_545 S
C341 C55 1.993 . S
C346 C175 1.993 . S
C351 C95 1.989 1_455 S
C356 C215 1.990 . S
C361 C22 4.232 . S
C366 C43 4.262 . S
C371 C62 4.232 . S
C376 C83 4.262 . S
C381 C102 4.232 . S
C386 C123 4.262 . S
C391 C142 4.231 . S
C396 C163 4.262 . S
C401 C182 4.232 . S
C406 C203 4.262 . S
C411 C222 4.232 . S
C416 C3 4.262 . S
