# Generated by pormake.
# Topology yfj, (5)-cn, num edge types: 1
# Building blocks:
#     Node 0, Type 0, BuildingBlock: BEQFEK_clean_sbu_0, # of connection points: 5
#     Node 1, Type 0, BuildingBlock: BEQFEK_clean_sbu_0, # of connection points: 5
#     Node 2, Type 0, BuildingBlock: BEQFEK_clean_sbu_0, # of connection points: 5
#     Node 3, Type 0, BuildingBlock: BEQFEK_clean_sbu_0, # of connection points: 5
#     Node 4, Type 0, BuildingBlock: BEQFEK_clean_sbu_0, # of connection points: 5
#     Node 5, Type 0, BuildingBlock: BEQFEK_clean_sbu_0, # of connection points: 5
#     Node 6, Type 0, BuildingBlock: BEQFEK_clean_sbu_0, # of connection points: 5
#     Node 7, Type 0, BuildingBlock: BEQFEK_clean_sbu_0, # of connection points: 5
#     Node 8, Type 0, BuildingBlock: BEQFEK_clean_sbu_0, # of connection points: 5
#     Node 9, Type 0, BuildingBlock: BEQFEK_clean_sbu_0, # of connection points: 5
#     Node 10, Type 0, BuildingBlock: BEQFEK_clean_sbu_0, # of connection points: 5
#     Node 11, Type 0, BuildingBlock: BEQFEK_clean_sbu_0, # of connection points: 5
#     Node 12, Type 0, BuildingBlock: BEQFEK_clean_sbu_0, # of connection points: 5
#     Node 13, Type 0, BuildingBlock: BEQFEK_clean_sbu_0, # of connection points: 5
#     Node 14, Type 0, BuildingBlock: BEQFEK_clean_sbu_0, # of connection points: 5
#     Node 15, Type 0, BuildingBlock: BEQFEK_clean_sbu_0, # of connection points: 5
#     Edge 16, Type (0, 0), BuildingBlock: CIFDUS_clean_linker_0, # of connection points: 2
#     Edge 17, Type (0, 0), BuildingBlock: CIFDUS_clean_linker_0, # of connection points: 2
#     Edge 18, Type (0, 0), BuildingBlock: CIFDUS_clean_linker_0, # of connection points: 2
#     Edge 19, Type (0, 0), BuildingBlock: CIFDUS_clean_linker_0, # of connection points: 2
#     Edge 20, Type (0, 0), BuildingBlock: CIFDUS_clean_linker_0, # of connection points: 2
#     Edge 21, Type (0, 0), BuildingBlock: CIFDUS_clean_linker_0, # of connection points: 2
#     Edge 22, Type (0, 0), BuildingBlock: CIFDUS_clean_linker_0, # of connection points: 2
#     Edge 23, Type (0, 0), BuildingBlock: CIFDUS_clean_linker_0, # of connection points: 2
#     Edge 24, Type (0, 0), BuildingBlock: CIFDUS_clean_linker_0, # of connection points: 2
#     Edge 25, Type (0, 0), BuildingBlock: CIFDUS_clean_linker_0, # of connection points: 2
#     Edge 26, Type (0, 0), BuildingBlock: CIFDUS_clean_linker_0, # of connection points: 2
#     Edge 27, Type (0, 0), BuildingBlock: CIFDUS_clean_linker_0, # of connection points: 2
#     Edge 28, Type (0, 0), BuildingBlock: CIFDUS_clean_linker_0, # of connection points: 2
#     Edge 29, Type (0, 0), BuildingBlock: CIFDUS_clean_linker_0, # of connection points: 2
#     Edge 30, Type (0, 0), BuildingBlock: CIFDUS_clean_linker_0, # of connection points: 2
#     Edge 31, Type (0, 0), BuildingBlock: CIFDUS_clean_linker_0, # of connection points: 2
#     Edge 32, Type (0, 0), BuildingBlock: CIFDUS_clean_linker_0, # of connection points: 2
#     Edge 33, Type (0, 0), BuildingBlock: CIFDUS_clean_linker_0, # of connection points: 2
#     Edge 34, Type (0, 0), BuildingBlock: CIFDUS_clean_linker_0, # of connection points: 2
#     Edge 35, Type (0, 0), BuildingBlock: CIFDUS_clean_linker_0, # of connection points: 2
#     Edge 36, Type (0, 0), BuildingBlock: CIFDUS_clean_linker_0, # of connection points: 2
#     Edge 37, Type (0, 0), BuildingBlock: CIFDUS_clean_linker_0, # of connection points: 2
#     Edge 38, Type (0, 0), BuildingBlock: CIFDUS_clean_linker_0, # of connection points: 2
#     Edge 39, Type (0, 0), BuildingBlock: CIFDUS_clean_linker_0, # of connection points: 2
#     Edge 40, Type (0, 0), BuildingBlock: CIFDUS_clean_linker_0, # of connection points: 2
#     Edge 41, Type (0, 0), BuildingBlock: CIFDUS_clean_linker_0, # of connection points: 2
#     Edge 42, Type (0, 0), BuildingBlock: CIFDUS_clean_linker_0, # of connection points: 2
#     Edge 43, Type (0, 0), BuildingBlock: CIFDUS_clean_linker_0, # of connection points: 2
#     Edge 44, Type (0, 0), BuildingBlock: CIFDUS_clean_linker_0, # of connection points: 2
#     Edge 45, Type (0, 0), BuildingBlock: CIFDUS_clean_linker_0, # of connection points: 2
#     Edge 46, Type (0, 0), BuildingBlock: CIFDUS_clean_linker_0, # of connection points: 2
#     Edge 47, Type (0, 0), BuildingBlock: CIFDUS_clean_linker_0, # of connection points: 2
#     Edge 48, Type (0, 0), BuildingBlock: CIFDUS_clean_linker_0, # of connection points: 2
#     Edge 49, Type (0, 0), BuildingBlock: CIFDUS_clean_linker_0, # of connection points: 2
#     Edge 50, Type (0, 0), BuildingBlock: CIFDUS_clean_linker_0, # of connection points: 2
#     Edge 51, Type (0, 0), BuildingBlock: CIFDUS_clean_linker_0, # of connection points: 2
#     Edge 52, Type (0, 0), BuildingBlock: CIFDUS_clean_linker_0, # of connection points: 2
#     Edge 53, Type (0, 0), BuildingBlock: CIFDUS_clean_linker_0, # of connection points: 2
#     Edge 54, Type (0, 0), BuildingBlock: CIFDUS_clean_linker_0, # of connection points: 2
#     Edge 55, Type (0, 0), BuildingBlock: CIFDUS_clean_linker_0, # of connection points: 2
# Relax obj value: 0.524
# Max RMSD: 0.230
# Mean RMSD: 0.230
data_MOF--net-yfj--node1-BEQFEK_clean_sbu_0--edge1-CIFDUS_clean_linker_0
_symmetry_space_group_name_H-M    P1
_symmetry_Int_Tables_number       1
_symmetry_cell_setting            triclinic
loop_
_symmetry_equiv_pos_as_xyz
'x, y, z'
_cell_length_a     40.84436
_cell_length_b     40.827198
_cell_length_c     44.43119
_cell_angle_alpha  90.058133
_cell_angle_beta   89.976825
_cell_angle_gamma 90.087941
loop_
_atom_site_label
_atom_site_type_symbol
_atom_site_fract_x
_atom_site_fract_y
_atom_site_fract_z
_atom_type_partial_charge
Co0 Co 0.10209 0.12129 0.37032 0.0
Co1 Co 0.12767 0.14409 0.30572 0.0
C2 C 0.16883 0.10382 0.34725 0.0
O3 O 0.14634 0.10341 0.36697 0.0
O4 O 0.16507 0.11865 0.32228 0.0
C5 C 0.09499 0.07815 0.42071 0.0
O6 O 0.11453 0.05969 0.40447 0.0
C7 C 0.16012 0.14133 0.24563 0.0
C8 C 0.13404 0.17982 0.22043 0.0
C9 C 0.15884 0.15686 0.21772 0.0
N10 N 0.13694 0.15425 0.26374 0.0
N11 N 0.12137 0.17715 0.24837 0.0
C12 C 0.18532 0.11748 0.25629 0.0
H13 H 0.20021 0.1295 0.27401 0.0
H14 H 0.17301 0.09587 0.26636 0.0
H15 H 0.20209 0.10944 0.23818 0.0
C16 C 0.05148 0.09034 0.33354 0.0
N17 N 0.07749 0.11026 0.33612 0.0
N18 N 0.08832 0.11818 0.30912 0.0
C19 C 0.06979 0.10243 0.28845 0.0
C20 C 0.04563 0.08465 0.30329 0.0
C21 C 0.03548 0.07365 0.35968 0.0
H22 H 0.0307 0.09175 0.37778 0.0
H23 H 0.05235 0.0548 0.36872 0.0
H24 H 0.01217 0.06164 0.35312 0.0
O25 O 0.10616 0.1687 0.37391 0.0
O26 O 0.12507 0.18658 0.32997 0.0
H27 H 0.07411 0.12697 0.24625 0.0
H28 H 0.06034 0.08499 0.24325 0.0
C29 C 0.077 0.10191 0.25546 0.0
H30 H 0.10277 0.0943 0.25182 0.0
H31 H 0.10241 0.19137 0.25713 0.0
O32 O 0.08416 0.10467 0.40941 0.0
C33 C 0.11597 0.19194 0.35713 0.0
Co34 Co 0.891 0.60101 0.62562 0.0
Co35 Co 0.86569 0.63191 0.56412 0.0
C36 C 0.90749 0.66972 0.60731 0.0
O37 O 0.90886 0.6454 0.62502 0.0
O38 O 0.89163 0.6682 0.58262 0.0
C39 C 0.93554 0.58982 0.67413 0.0
O40 O 0.95381 0.6104 0.6588 0.0
C41 C 0.86547 0.66814 0.50579 0.0
C42 C 0.82731 0.64171 0.48028 0.0
C43 C 0.84946 0.66735 0.47808 0.0
N44 N 0.85363 0.64382 0.52326 0.0
N45 N 0.83083 0.62816 0.50775 0.0
C46 C 0.88912 0.69343 0.51687 0.0
H47 H 0.87828 0.70583 0.53671 0.0
H48 H 0.91206 0.68129 0.52421 0.0
H49 H 0.89469 0.71231 0.49976 0.0
C50 C 0.92122 0.55448 0.5844 0.0
N51 N 0.90066 0.57945 0.58951 0.0
N52 N 0.8919 0.59268 0.5637 0.0
C53 C 0.90775 0.57683 0.54129 0.0
C54 C 0.92653 0.55192 0.55373 0.0
C55 C 0.93912 0.53656 0.60872 0.0
H56 H 0.9219 0.53016 0.62711 0.0
H57 H 0.9584 0.55277 0.61811 0.0
H58 H 0.95078 0.51393 0.59998 0.0
O59 O 0.84398 0.605 0.63123 0.0
O60 O 0.82416 0.62706 0.5894 0.0
H61 H 0.88324 0.58512 0.49958 0.0
H62 H 0.92562 0.57328 0.49554 0.0
C63 C 0.90814 0.58784 0.50921 0.0
H64 H 0.91492 0.61414 0.50817 0.0
H65 H 0.81752 0.60826 0.516 0.0
O66 O 0.90872 0.5799 0.66267 0.0
C67 C 0.82004 0.61612 0.61613 0.0
Co68 Co 0.40668 0.36379 0.86581 0.0
Co69 Co 0.37872 0.34531 0.80114 0.0
C70 C 0.33917 0.38252 0.84613 0.0
O71 O 0.3621 0.38216 0.86547 0.0
O72 O 0.34244 0.36899 0.82052 0.0
C73 C 0.41641 0.40126 0.91989 0.0
O74 O 0.39438 0.42052 0.90769 0.0
C75 C 0.34719 0.35414 0.74072 0.0
C76 C 0.36151 0.30815 0.71823 0.0
C77 C 0.34303 0.33629 0.71413 0.0
N78 N 0.36697 0.33715 0.75944 0.0
N79 N 0.37573 0.30992 0.74552 0.0
C80 C 0.33102 0.38586 0.74883 0.0
H81 H 0.33625 0.39302 0.77225 0.0
H82 H 0.34071 0.4057 0.73435 0.0
H83 H 0.30419 0.38406 0.74522 0.0
C84 C 0.45263 0.4015 0.82925 0.0
N85 N 0.42971 0.37795 0.83138 0.0
N86 N 0.41785 0.37151 0.80441 0.0
C87 C 0.43271 0.3915 0.78438 0.0
C88 C 0.4551 0.41128 0.79945 0.0
C89 C 0.46679 0.41883 0.85596 0.0
H90 H 0.47477 0.40062 0.87293 0.0
H91 H 0.44767 0.43452 0.86627 0.0
H92 H 0.48795 0.43441 0.84961 0.0
O93 O 0.40243 0.31601 0.86719 0.0
O94 O 0.38098 0.30178 0.82313 0.0
H95 H 0.41928 0.37093 0.74176 0.0
H96 H 0.44051 0.4098 0.73939 0.0
C97 C 0.42229 0.39534 0.75235 0.0
H98 H 0.39847 0.40827 0.75169 0.0
H99 H 0.39054 0.29194 0.75511 0.0
O100 O 0.42702 0.37691 0.90486 0.0
C101 C 0.39095 0.29435 0.84952 0.0
Co102 Co 0.62959 0.9167 0.12333 0.0
Co103 Co 0.64392 0.88237 0.06028 0.0
C104 C 0.60249 0.85065 0.10695 0.0
O105 O 0.60738 0.87389 0.12541 0.0
O106 O 0.61455 0.8512 0.0806 0.0
C107 C 0.58936 0.93277 0.17354 0.0
O108 O 0.56818 0.91466 0.15873 0.0
C109 C 0.63746 0.83917 1.00704 0.0
C110 C 0.65836 0.86863 0.9702 0.0
C111 C 0.64183 0.83964 0.976 0.0
N112 N 0.6495 0.86707 0.01896 0.0
N113 N 0.66267 0.88422 0.99677 0.0
C114 C 0.62387 0.81152 0.02525 0.0
H115 H 0.63773 0.80901 0.04657 0.0
H116 H 0.59787 0.81677 0.03043 0.0
H117 H 0.62534 0.78798 0.01284 0.0
C118 C 0.59892 0.96528 0.08418 0.0
N119 N 0.61832 0.93899 0.08762 0.0
N120 N 0.6223 0.92433 0.06142 0.0
C121 C 0.60388 0.94018 0.04077 0.0
C122 C 0.58884 0.96689 0.05445 0.0
C123 C 0.58549 0.98477 0.10991 0.0
H124 H 0.60487 0.9889 0.12697 0.0
H125 H 0.56517 0.9709 0.12051 0.0
H126 H 0.57592 0.00877 0.10227 0.0
O127 O 0.67656 0.9083 0.12525 0.0
O128 O 0.68751 0.881 0.08306 0.0
H129 H 0.61791 0.93267 0.99507 0.0
H130 H 0.57481 0.93907 0.99997 0.0
C131 C 0.59676 0.92732 1.0099 0.0
H132 H 0.59308 0.90042 1.01072 0.0
H133 H 0.6736 0.90714 0.99959 0.0
O134 O 0.61674 0.93951 0.16126 0.0
C135 C 0.69645 0.89267 0.10856 0.0
Co136 Co 0.09967 0.36984 0.89999 0.0
Co137 Co 0.12581 0.34677 0.96421 0.0
C138 C 0.16815 0.38378 0.92195 0.0
O139 O 0.14552 0.38431 0.90236 0.0
O140 O 0.16394 0.37023 0.94741 0.0
C141 C 0.09516 0.41495 0.85117 0.0
O142 O 0.11509 0.43185 0.86846 0.0
C143 C 0.1593 0.3486 0.02373 0.0
C144 C 0.12935 0.31484 0.05103 0.0
C145 C 0.15619 0.3356 0.05256 0.0
N146 N 0.13509 0.33663 1.0062 0.0
N147 N 0.11734 0.31638 0.02276 0.0
C148 C 0.18665 0.36943 0.01206 0.0
H149 H 0.19871 0.3563 0.99325 0.0
H150 H 0.17657 0.39277 1.00328 0.0
H151 H 0.2055 0.37465 0.02931 0.0
C152 C 0.05376 0.40644 0.93782 0.0
N153 N 0.07693 0.38337 0.9347 0.0
N154 N 0.08842 0.37535 0.96143 0.0
C155 C 0.07353 0.39428 0.98229 0.0
C156 C 0.05088 0.41436 0.96804 0.0
C157 C 0.03878 0.42445 0.91195 0.0
H158 H 0.03306 0.40709 0.89347 0.0
H159 H 0.05654 0.44283 0.90345 0.0
H160 H 0.01609 0.43736 0.91882 0.0
O161 O 0.09937 0.3221 0.89648 0.0
O162 O 0.12069 0.30454 0.93972 0.0
H163 H 0.07943 0.37227 0.02551 0.0
H164 H 0.07002 0.41542 0.02691 0.0
C165 C 0.08381 0.39625 0.01455 0.0
H166 H 0.11041 0.40163 0.01578 0.0
H167 H 0.09694 0.30364 0.01479 0.0
O168 O 0.08294 0.3884 0.86125 0.0
C169 C 0.10943 0.29902 0.91329 0.0
Co170 Co 0.61049 0.60947 0.14821 0.0
Co171 Co 0.64048 0.62746 0.21216 0.0
C172 C 0.60487 0.67649 0.1743 0.0
O173 O 0.59905 0.65581 0.15361 0.0
O174 O 0.6212 0.66868 0.19752 0.0
C175 C 0.56406 0.60999 0.09984 0.0
O176 O 0.55014 0.63273 0.11639 0.0
C177 C 0.63646 0.65464 0.27411 0.0
C178 C 0.68442 0.64106 0.29306 0.0
C179 C 0.65614 0.65855 0.29958 0.0
N180 N 0.65252 0.63601 0.25373 0.0
N181 N 0.68098 0.62761 0.26552 0.0
C182 C 0.60403 0.67049 0.26817 0.0
H183 H 0.59471 0.66429 0.24554 0.0
H184 H 0.58562 0.66142 0.28444 0.0
H185 H 0.60614 0.69745 0.27081 0.0
C186 C 0.57214 0.56406 0.18467 0.0
N187 N 0.59708 0.58533 0.18206 0.0
N188 N 0.60835 0.5928 0.20903 0.0
C189 C 0.5902 0.57649 0.22967 0.0
C190 C 0.56665 0.55792 0.21486 0.0
C191 C 0.551 0.55336 0.15896 0.0
H192 H 0.56658 0.54566 0.13979 0.0
H193 H 0.53566 0.57426 0.15159 0.0
H194 H 0.53473 0.53274 0.1655 0.0
O195 O 0.65796 0.60603 0.14226 0.0
O196 O 0.68094 0.61955 0.18603 0.0
H197 H 0.58125 0.56026 0.27504 0.0
H198 H 0.57962 0.60382 0.26937 0.0
C199 C 0.59271 0.58112 0.26294 0.0
H200 H 0.61872 0.58337 0.26972 0.0
H201 H 0.69868 0.61386 0.25424 0.0
O202 O 0.58919 0.59522 0.10996 0.0
C203 C 0.68322 0.61114 0.15832 0.0
Co204 Co 0.40493 0.12418 0.40609 0.0
Co205 Co 0.37521 0.14547 0.46933 0.0
C206 C 0.33756 0.1043 0.42571 0.0
O207 O 0.36098 0.10467 0.40686 0.0
O208 O 0.3397 0.11902 0.45092 0.0
C209 C 0.41583 0.08512 0.35318 0.0
O210 O 0.39357 0.06612 0.36549 0.0
C211 C 0.33853 0.14377 0.52728 0.0
C212 C 0.36734 0.17757 0.55566 0.0
C213 C 0.34019 0.15718 0.55608 0.0
N214 N 0.36386 0.15521 0.51085 0.0
N215 N 0.3809 0.17546 0.52803 0.0
C216 C 0.31167 0.12303 0.51452 0.0
H217 H 0.30198 0.13496 0.49397 0.0
H218 H 0.32173 0.09878 0.50808 0.0
H219 H 0.29107 0.11971 0.53044 0.0
C220 C 0.45126 0.09031 0.44462 0.0
N221 N 0.42774 0.11295 0.44126 0.0
N222 N 0.41472 0.11983 0.46766 0.0
C223 C 0.42897 0.10054 0.48856 0.0
C224 C 0.45273 0.0813 0.47469 0.0
C225 C 0.46677 0.07276 0.41867 0.0
H226 H 0.47438 0.09075 0.40134 0.0
H227 H 0.44856 0.05589 0.40847 0.0
H228 H 0.48841 0.05836 0.42577 0.0
O229 O 0.39934 0.17128 0.40276 0.0
O230 O 0.37756 0.1883 0.44574 0.0
H231 H 0.41936 0.12026 0.53219 0.0
H232 H 0.42996 0.07738 0.53242 0.0
C233 C 0.41649 0.09672 0.52003 0.0
H234 H 0.39002 0.09059 0.51945 0.0
H235 H 0.40181 0.18795 0.52087 0.0
O236 O 0.42617 0.1099 0.3678 0.0
C237 C 0.38773 0.19408 0.41902 0.0
Co238 Co 0.86816 0.91786 0.64899 0.0
Co239 Co 0.85843 0.8767 0.70899 0.0
C240 C 0.89668 0.85026 0.65805 0.0
O241 O 0.89011 0.87553 0.64258 0.0
O242 O 0.88702 0.84751 0.68517 0.0
C243 C 0.90772 0.93898 0.60043 0.0
O244 O 0.92952 0.92139 0.61491 0.0
C245 C 0.86557 0.83054 0.76035 0.0
C246 C 0.84287 0.85783 0.79779 0.0
C247 C 0.85984 0.82929 0.7913 0.0
N248 N 0.85361 0.85889 0.7494 0.0
N249 N 0.83955 0.87477 0.7719 0.0
C250 C 0.87984 0.80417 0.74096 0.0
H251 H 0.86654 0.80298 0.71924 0.0
H252 H 0.90592 0.80993 0.73637 0.0
H253 H 0.87811 0.77984 0.75195 0.0
C254 C 0.89961 0.96339 0.69093 0.0
N255 N 0.8811 0.93672 0.6858 0.0
N256 N 0.87916 0.9191 0.71058 0.0
C257 C 0.89804 0.93344 0.73184 0.0
C258 C 0.91126 0.96219 0.7202 0.0
C259 C 0.91059 0.98641 0.66674 0.0
H260 H 0.89057 0.99026 0.65028 0.0
H261 H 0.93193 0.97566 0.65487 0.0
H262 H 0.91807 0.01039 0.67626 0.0
O263 O 0.82124 0.90908 0.64812 0.0
O264 O 0.81417 0.87641 0.68765 0.0
H265 H 0.88645 0.92104 0.77722 0.0
H266 H 0.92913 0.92905 0.77117 0.0
C267 C 0.90694 0.91775 0.76115 0.0
H268 H 0.91104 0.89114 0.75786 0.0
H269 H 0.82839 0.89762 0.76976 0.0
O270 O 0.87987 0.94376 0.61254 0.0
C271 C 0.80314 0.89054 0.66401 0.0
Co272 Co 0.58393 0.62794 0.8751 0.0
Co273 Co 0.62361 0.64197 0.81516 0.0
C274 C 0.65296 0.60476 0.86596 0.0
O275 O 0.62722 0.6083 0.88159 0.0
O276 O 0.65497 0.6162 0.8394 0.0
C277 C 0.56539 0.58717 0.92359 0.0
O278 O 0.5833 0.56618 0.90838 0.0
C279 C 0.66551 0.6281 0.76279 0.0
C280 C 0.65912 0.6718 0.73425 0.0
C281 C 0.67655 0.64274 0.7363 0.0
N282 N 0.64327 0.6478 0.77591 0.0
N283 N 0.63932 0.67376 0.75853 0.0
C284 C 0.67499 0.59537 0.77512 0.0
H285 H 0.655 0.58504 0.78907 0.0
H286 H 0.681 0.57808 0.75664 0.0
H287 H 0.6968 0.59835 0.78967 0.0
C288 C 0.54219 0.59144 0.83274 0.0
N289 N 0.56612 0.61341 0.83801 0.0
N290 N 0.58277 0.61841 0.81299 0.0
C291 C 0.57005 0.59908 0.79122 0.0
C292 C 0.54425 0.58097 0.80308 0.0
C293 C 0.52169 0.57625 0.85692 0.0
H294 H 0.51601 0.59458 0.87455 0.0
H295 H 0.53533 0.55561 0.86716 0.0
H296 H 0.49845 0.56652 0.84758 0.0
O297 O 0.59011 0.67567 0.87637 0.0
O298 O 0.62045 0.68608 0.83595 0.0
H299 H 0.59247 0.61868 0.75141 0.0
H300 H 0.56646 0.58345 0.745 0.0
C301 C 0.58453 0.59472 0.76056 0.0
H302 H 0.60602 0.57829 0.76198 0.0
H303 H 0.62375 0.69324 0.76361 0.0
O304 O 0.55907 0.61487 0.91179 0.0
C305 C 0.60645 0.69555 0.86019 0.0
Co306 Co 0.36759 0.09104 0.12235 0.0
Co307 Co 0.3516 0.12084 0.05759 0.0
C308 C 0.38869 0.15852 0.10438 0.0
O309 O 0.3863 0.13555 0.12354 0.0
O310 O 0.37672 0.15573 0.07808 0.0
C311 C 0.40524 0.0788 0.17566 0.0
O312 O 0.4253 0.1001 0.16332 0.0
C313 C 0.35969 0.15974 1.00162 0.0
C314 C 0.33729 0.12841 0.96684 0.0
C315 C 0.35503 0.15708 0.97069 0.0
N316 N 0.34659 0.13337 0.01536 0.0
N317 N 0.33261 0.11508 0.99436 0.0
C318 C 0.37474 0.18799 0.018 0.0
H319 H 0.35996 0.19389 0.03821 0.0
H320 H 0.39986 0.18112 0.025 0.0
H321 H 0.37589 0.21026 1.00376 0.0
C322 C 0.40286 0.04326 0.08563 0.0
N323 N 0.38187 0.06845 0.08779 0.0
N324 N 0.37686 0.08109 0.06088 0.0
C325 C 0.39591 0.06487 0.04092 0.0
C326 C 0.41259 0.04011 0.05591 0.0
C327 C 0.41728 0.02614 0.11228 0.0
H328 H 0.43453 0.04298 0.12383 0.0
H329 H 0.43071 0.00368 0.10565 0.0
H330 H 0.39756 0.01956 0.12834 0.0
O331 O 0.31999 0.09513 0.1225 0.0
O332 O 0.30707 0.11833 0.0787 0.0
H333 H 0.37922 0.06881 0.99562 0.0
H334 H 0.42264 0.06279 0.99883 0.0
C335 C 0.40119 0.07525 1.009 0.0
H336 H 0.40479 0.10215 1.00796 0.0
H337 H 0.32087 0.09285 0.99866 0.0
O338 O 0.38002 0.06964 0.16106 0.0
C339 C 0.29895 0.10706 0.10456 0.0
Co340 Co 0.91065 0.87642 0.37644 0.0
Co341 Co 0.87582 0.85737 0.31456 0.0
C342 C 0.8409 0.89436 0.36286 0.0
O343 O 0.86576 0.89323 0.37995 0.0
O344 O 0.84152 0.88192 0.3366 0.0
C345 C 0.92462 0.91971 0.42488 0.0
O346 O 0.90402 0.93843 0.41011 0.0
C347 C 0.83397 0.8631 0.2601 0.0
C348 C 0.86283 0.83791 0.22516 0.0
C349 C 0.8348 0.85646 0.22936 0.0
N350 N 0.86071 0.85017 0.27331 0.0
N351 N 0.87752 0.83457 0.25225 0.0
C352 C 0.80702 0.87961 0.27706 0.0
H353 H 0.80096 0.86488 0.29725 0.0
H354 H 0.81536 0.90425 0.28434 0.0
H355 H 0.78447 0.88199 0.26336 0.0
C356 C 0.95559 0.90981 0.33542 0.0
N357 N 0.93002 0.88974 0.34012 0.0
N358 N 0.91524 0.88362 0.31434 0.0
C359 C 0.93045 0.90109 0.29255 0.0
C360 C 0.9568 0.91773 0.30518 0.0
C361 C 0.97587 0.92439 0.3601 0.0
H362 H 0.98194 0.9053 0.37692 0.0
H363 H 0.96154 0.94386 0.37149 0.0
H364 H 0.99881 0.93534 0.35128 0.0
O365 O 0.90833 0.82874 0.37854 0.0
O366 O 0.88122 0.81391 0.33711 0.0
H367 H 0.92391 0.88186 0.24833 0.0
H368 H 0.93004 0.92549 0.24933 0.0
C369 C 0.91822 0.90455 0.26099 0.0
H370 H 0.8913 0.90802 0.26109 0.0
H371 H 0.89971 0.82266 0.25613 0.0
O372 O 0.93342 0.89261 0.41322 0.0
C373 C 0.89506 0.80688 0.36219 0.0
Co374 Co 0.12881 0.40414 0.6228 0.0
Co375 Co 0.14923 0.37957 0.55754 0.0
C376 C 0.11125 0.3376 0.60052 0.0
O377 O 0.11117 0.35944 0.62083 0.0
O378 O 0.12498 0.34258 0.5753 0.0
C379 C 0.08582 0.41153 0.67282 0.0
O380 O 0.06681 0.39357 0.65557 0.0
C381 C 0.13211 0.34953 0.50046 0.0
C382 C 0.17896 0.34673 0.47596 0.0
C383 C 0.1466 0.33629 0.47474 0.0
N384 N 0.15488 0.36607 0.51624 0.0
N385 N 0.18278 0.36476 0.50122 0.0
C386 C 0.09709 0.34687 0.51021 0.0
H387 H 0.09036 0.36789 0.52476 0.0
H388 H 0.08061 0.34574 0.49038 0.0
H389 H 0.09366 0.32442 0.52379 0.0
C390 C 0.09658 0.45528 0.58699 0.0
N391 N 0.11594 0.42879 0.58884 0.0
N392 N 0.12423 0.41921 0.56151 0.0
C393 C 0.10999 0.43952 0.5414 0.0
C394 C 0.09209 0.46295 0.55692 0.0
C395 C 0.08011 0.47075 0.61352 0.0
H396 H 0.09837 0.47525 0.63152 0.0
H397 H 0.06138 0.45363 0.62245 0.0
H398 H 0.06802 0.49414 0.60749 0.0
O399 O 0.17688 0.40098 0.62454 0.0
O400 O 0.1925 0.38196 0.57966 0.0
H401 H 0.13645 0.42583 0.5015 0.0
H402 H 0.10923 0.46051 0.49701 0.0
C403 C 0.11244 0.43629 0.50795 0.0
H404 H 0.09271 0.41989 0.49973 0.0
H405 H 0.20483 0.37454 0.50902 0.0
O406 O 0.11302 0.42169 0.6623 0.0
C407 C 0.19907 0.39132 0.60648 0.0
Co408 Co 0.58767 0.86813 0.39783 0.0
Co409 Co 0.62466 0.85138 0.45889 0.0
C410 C 0.6578 0.88769 0.40979 0.0
O411 O 0.63259 0.88521 0.3932 0.0
O412 O 0.65814 0.87618 0.43638 0.0
C413 C 0.57317 0.91061 0.34912 0.0
O414 O 0.59367 0.92964 0.36378 0.0
C415 C 0.666 0.85882 0.51333 0.0
C416 C 0.63874 0.83083 0.54761 0.0
C417 C 0.66553 0.8513 0.54387 0.0
N418 N 0.64015 0.84446 0.49983 0.0
N419 N 0.6243 0.82727 0.52045 0.0
C420 C 0.6917 0.87774 0.49677 0.0
H421 H 0.69932 0.86365 0.47663 0.0
H422 H 0.68138 0.90152 0.48933 0.0
H423 H 0.71377 0.88211 0.51073 0.0
C424 C 0.54623 0.90571 0.43926 0.0
N425 N 0.56943 0.88295 0.43442 0.0
N426 N 0.58552 0.87757 0.45963 0.0
C427 C 0.57376 0.89801 0.48098 0.0
C428 C 0.54837 0.91639 0.46884 0.0
C429 C 0.52661 0.9213 0.41473 0.0
H430 H 0.51968 0.90271 0.39768 0.0
H431 H 0.54158 0.94055 0.40373 0.0
H432 H 0.50412 0.93287 0.42382 0.0
O433 O 0.59018 0.8202 0.39639 0.0
O434 O 0.61963 0.80776 0.437 0.0
H435 H 0.5873 0.8811 0.52466 0.0
H436 H 0.5782 0.92415 0.5233 0.0
C437 C 0.58969 0.90356 0.51088 0.0
H438 H 0.61611 0.90877 0.5076 0.0
H439 H 0.60289 0.81407 0.51623 0.0
O440 O 0.56448 0.88357 0.36098 0.0
C441 C 0.60498 0.79939 0.41272 0.0
Co442 Co 0.12511 0.0966 0.6494 0.0
Co443 Co 0.1458 0.12253 0.71457 0.0
C444 C 0.10839 0.16412 0.67171 0.0
O445 O 0.10899 0.14184 0.65174 0.0
O446 O 0.12137 0.15985 0.69741 0.0
C447 C 0.08247 0.0904 0.59866 0.0
O448 O 0.06429 0.11023 0.61487 0.0
C449 C 0.14381 0.15736 0.77361 0.0
C450 C 0.17575 0.12677 0.80202 0.0
C451 C 0.15626 0.15452 0.80268 0.0
N452 N 0.15487 0.13213 0.75678 0.0
N453 N 0.17403 0.11402 0.77402 0.0
C454 C 0.12458 0.18534 0.76107 0.0
H455 H 0.13778 0.19544 0.74134 0.0
H456 H 0.10031 0.17632 0.75348 0.0
H457 H 0.12126 0.20547 0.7775 0.0
C458 C 0.09096 0.04755 0.68576 0.0
N459 N 0.11183 0.07286 0.68355 0.0
N460 N 0.11902 0.08383 0.7107 0.0
C461 C 0.10174 0.06626 0.73101 0.0
C462 C 0.08378 0.04244 0.71586 0.0
C463 C 0.07481 0.0317 0.65922 0.0
H464 H 0.05655 0.04886 0.64964 0.0
H465 H 0.06217 0.00864 0.66552 0.0
H466 H 0.09337 0.02648 0.64164 0.0
O467 O 0.17282 0.09805 0.64716 0.0
O468 O 0.18873 0.11903 0.69114 0.0
H469 H 0.12405 0.06855 0.77435 0.0
H470 H 0.08083 0.05948 0.77537 0.0
C471 C 0.10006 0.07407 0.76386 0.0
H472 H 0.0951 0.10057 0.76695 0.0
H473 H 0.18606 0.09296 0.76663 0.0
O474 O 0.1087 0.07903 0.61009 0.0
C475 C 0.19517 0.10833 0.6647 0.0
Co476 Co 0.90307 0.61759 0.89913 0.0
Co477 Co 0.86918 0.63727 0.96113 0.0
C478 C 0.83399 0.59769 0.9156 0.0
O479 O 0.85844 0.59935 0.89796 0.0
O480 O 0.83465 0.61088 0.94157 0.0
C481 C 0.91579 0.57402 0.85029 0.0
O482 O 0.89571 0.55514 0.86557 0.0
C483 C 0.82877 0.63817 0.01734 0.0
C484 C 0.86034 0.66617 0.04839 0.0
C485 C 0.8308 0.64947 0.04693 0.0
N486 N 0.85613 0.64713 1.00235 0.0
N487 N 0.87472 0.66407 0.02112 0.0
C488 C 0.80016 0.62172 1.00269 0.0
H489 H 0.79525 0.63349 0.98069 0.0
H490 H 0.80613 0.59557 0.99865 0.0
H491 H 0.77769 0.62346 0.0166 0.0
C492 C 0.94774 0.58374 0.93978 0.0
N493 N 0.92375 0.60568 0.93532 0.0
N494 N 0.90876 0.61163 0.96102 0.0
C495 C 0.92196 0.59217 0.98237 0.0
C496 C 0.94731 0.57406 0.96968 0.0
C497 C 0.9663 0.56763 0.91478 0.0
H498 H 0.97226 0.58584 0.89711 0.0
H499 H 0.95092 0.54806 0.90473 0.0
H500 H 0.98929 0.55642 0.92312 0.0
O501 O 0.89913 0.66502 0.89546 0.0
O502 O 0.87255 0.67981 0.93698 0.0
H503 H 0.9121 0.60926 0.02684 0.0
H504 H 0.91809 0.56567 0.02448 0.0
C505 C 0.90736 0.58721 0.01293 0.0
H506 H 0.88046 0.58403 1.01094 0.0
H507 H 0.89744 0.67399 0.01538 0.0
O508 O 0.92477 0.60119 0.86175 0.0
C509 C 0.88523 0.68682 0.9114 0.0
Co510 Co 0.36613 0.3994 0.15131 0.0
Co511 Co 0.34293 0.37653 0.21612 0.0
C512 C 0.38105 0.33305 0.17349 0.0
O513 O 0.38375 0.35459 0.15303 0.0
O514 O 0.36572 0.33904 0.19773 0.0
C515 C 0.40466 0.4077 0.09753 0.0
O516 O 0.42297 0.38491 0.1098 0.0
C517 C 0.36136 0.34584 0.2723 0.0
C518 C 0.31569 0.34385 0.29869 0.0
C519 C 0.34796 0.33313 0.29871 0.0
N520 N 0.33808 0.36245 0.25731 0.0
N521 N 0.31088 0.36155 0.27339 0.0
C522 C 0.39591 0.34286 0.26124 0.0
H523 H 0.40203 0.36324 0.24578 0.0
H524 H 0.41331 0.34255 0.28043 0.0
H525 H 0.39875 0.31991 0.24824 0.0
C526 C 0.40247 0.44724 0.18743 0.0
N527 N 0.37956 0.42372 0.18531 0.0
N528 N 0.36995 0.41508 0.21251 0.0
C529 C 0.38671 0.4333 0.23279 0.0
C530 C 0.40799 0.45402 0.21756 0.0
C531 C 0.42213 0.45929 0.16123 0.0
H532 H 0.40536 0.46816 0.1434 0.0
H533 H 0.43656 0.43868 0.15183 0.0
H534 H 0.43903 0.47938 0.16775 0.0
O535 O 0.31803 0.39649 0.14939 0.0
O536 O 0.29955 0.38012 0.19413 0.0
H537 H 0.38867 0.45384 0.27724 0.0
H538 H 0.40367 0.41283 0.27424 0.0
C539 C 0.38439 0.42979 0.26622 0.0
H540 H 0.36002 0.42027 0.27283 0.0
H541 H 0.28865 0.37161 0.26647 0.0
O542 O 0.38039 0.41892 0.11226 0.0
C543 C 0.29459 0.38846 0.16675 0.0
H544 H 0.0538 0.10824 0.46048 0.0
H545 H 0.12757 0.03292 0.45446 0.0
H546 H 0.12811 0.02776 0.5091 0.0
H547 H 0.11212 0.04888 0.55887 0.0
H548 H 0.03782 0.12368 0.56487 0.0
H549 H 0.0328 0.12441 0.51023 0.0
C550 C 0.06963 0.09035 0.47109 0.0
C551 C 0.09092 0.07137 0.45332 0.0
C552 C 0.06995 0.08754 0.50265 0.0
C553 C 0.111 0.04802 0.46749 0.0
C554 C 0.11147 0.04512 0.49882 0.0
C555 C 0.09448 0.06498 0.54825 0.0
C556 C 0.07575 0.0865 0.56602 0.0
C557 C 0.09174 0.06541 0.51668 0.0
C558 C 0.05272 0.10694 0.55184 0.0
C559 C 0.0499 0.10751 0.52051 0.0
H560 H 0.95939 0.60435 0.81299 0.0
H561 H 0.88614 0.52805 0.815 0.0
H562 H 0.88856 0.52337 0.76037 0.0
H563 H 0.90607 0.54598 0.71169 0.0
H564 H 0.97968 0.62192 0.70962 0.0
H565 H 0.98285 0.62124 0.76439 0.0
C566 C 0.94438 0.5863 0.80152 0.0
C567 C 0.92222 0.56702 0.81808 0.0
C568 C 0.94573 0.58381 0.76997 0.0
C569 C 0.90328 0.54342 0.80287 0.0
C570 C 0.90451 0.5408 0.77155 0.0
C571 C 0.92324 0.56196 0.72319 0.0
C572 C 0.94216 0.58434 0.70654 0.0
C573 C 0.92481 0.56165 0.7548 0.0
C574 C 0.96463 0.60456 0.7218 0.0
C575 C 0.96635 0.60434 0.75321 0.0
H576 H 0.44617 0.37961 0.05717 0.0
H577 H 0.37198 0.45432 0.06519 0.0
H578 H 0.37227 0.46185 1.01069 0.0
H579 H 0.3887 0.44261 0.9606 0.0
H580 H 0.46091 0.36599 0.95249 0.0
H581 H 0.46657 0.36419 1.00717 0.0
C582 C 0.43044 0.39794 0.04709 0.0
C583 C 0.40878 0.41607 0.06527 0.0
C584 C 0.43018 0.40163 0.01565 0.0
C585 C 0.38868 0.4398 0.05176 0.0
C586 C 0.38878 0.44408 0.02055 0.0
C587 C 0.40612 0.42589 0.97071 0.0
C588 C 0.42406 0.40418 0.95242 0.0
C589 C 0.40867 0.42441 1.00222 0.0
C590 C 0.44658 0.38279 0.96599 0.0
C591 C 0.44977 0.38166 0.9973 0.0
H592 H 0.60314 0.95475 0.31268 0.0
H593 H 0.52746 0.88085 0.31329 0.0
H594 H 0.52248 0.88505 0.25861 0.0
H595 H 0.54469 0.9043 0.21048 0.0
H596 H 0.62352 0.97484 0.20979 0.0
H597 H 0.62188 0.97771 0.26472 0.0
C598 C 0.58507 0.94001 0.30097 0.0
C599 C 0.5659 0.91728 0.31705 0.0
C600 C 0.58315 0.94174 0.26946 0.0
C601 C 0.54269 0.89834 0.30144 0.0
C602 C 0.5399 0.90068 0.27016 0.0
C603 C 0.56109 0.92083 0.22227 0.0
C604 C 0.58441 0.93913 0.20604 0.0
C605 C 0.56078 0.92148 0.25387 0.0
C606 C 0.60551 0.96032 0.22174 0.0
C607 C 0.60464 0.96189 0.25316 0.0
H608 H 0.11679 0.44963 0.71464 0.0
H609 H 0.03864 0.37918 0.70454 0.0
H610 H 0.03242 0.37618 0.759 0.0
H611 H 0.05324 0.38887 0.80966 0.0
H612 H 0.13081 0.45995 0.81978 0.0
H613 H 0.13279 0.46761 0.76543 0.0
C614 C 0.09807 0.43401 0.72434 0.0
C615 C 0.07858 0.41434 0.70546 0.0
C616 C 0.09462 0.43227 0.75581 0.0
C617 C 0.05416 0.39451 0.71844 0.0
C618 C 0.05063 0.39263 0.74967 0.0
C619 C 0.07023 0.4064 0.80001 0.0
C620 C 0.09214 0.42341 0.81882 0.0
C621 C 0.07137 0.41067 0.7686 0.0
C622 C 0.11374 0.44634 0.80592 0.0
C623 C 0.11503 0.45067 0.77475 0.0
H624 H 0.53145 0.62601 0.96266 0.0
H625 H 0.5873 0.53644 0.958 0.0
H626 H 0.58887 0.53364 0.01273 0.0
H627 H 0.58098 0.5606 0.06168 0.0
H628 H 0.52503 0.65005 0.06642 0.0
H629 H 0.51665 0.64863 0.0121 0.0
C630 C 0.54341 0.60553 0.97359 0.0
C631 C 0.55976 0.58185 0.95618 0.0
C632 C 0.54457 0.60421 1.00519 0.0
C633 C 0.57476 0.55523 0.97077 0.0
C634 C 0.57584 0.55366 1.00215 0.0
C635 C 0.56652 0.5795 0.05088 0.0
C636 C 0.55418 0.60567 0.06803 0.0
C637 C 0.56191 0.57866 0.01955 0.0
C638 C 0.53504 0.6297 0.05377 0.0
C639 C 0.53032 0.62901 0.02264 0.0
H640 H 0.38674 0.04472 0.31246 0.0
H641 H 0.46236 0.11815 0.32087 0.0
H642 H 0.46866 0.11942 0.26622 0.0
H643 H 0.44795 0.10479 0.21615 0.0
H644 H 0.3701 0.03372 0.20781 0.0
H645 H 0.36974 0.02616 0.26232 0.0
C646 C 0.40504 0.06058 0.30243 0.0
C647 C 0.42379 0.08159 0.32078 0.0
C648 C 0.40792 0.06185 0.27094 0.0
C649 C 0.44741 0.10192 0.3073 0.0
C650 C 0.45097 0.10274 0.27602 0.0
C651 C 0.43127 0.08721 0.22616 0.0
C652 C 0.40881 0.07014 0.20789 0.0
C653 C 0.43061 0.0836 0.2576 0.0
C654 C 0.38745 0.0474 0.22132 0.0
C655 C 0.38717 0.04312 0.25253 0.0
H656 H 0.89308 0.96235 0.46169 0.0
H657 H 0.97175 0.8919 0.46022 0.0
H658 H 0.97679 0.89591 0.51492 0.0
H659 H 0.95383 0.91352 0.56323 0.0
H660 H 0.87199 0.98026 0.56484 0.0
H661 H 0.87354 0.984 0.50995 0.0
C662 C 0.91181 0.94838 0.47323 0.0
C663 C 0.93183 0.92662 0.45691 0.0
C664 C 0.91377 0.94992 0.50475 0.0
C665 C 0.95588 0.90863 0.47227 0.0
C666 C 0.95871 0.91084 0.50356 0.0
C667 C 0.93676 0.92946 0.55167 0.0
C668 C 0.91262 0.94637 0.56812 0.0
C669 C 0.93702 0.93053 0.52009 0.0
C670 C 0.89065 0.96681 0.55271 0.0
C671 C 0.89146 0.96886 0.52131 0.0
H672 H 0.26663 0.16371 0.11575 0.0
H673 H 0.25845 0.05891 0.12353 0.0
H674 H 0.21176 0.06496 0.1576 0.0
H675 H 0.17787 0.10012 0.19019 0.0
H676 H 0.18856 0.20497 0.18533 0.0
H677 H 0.22901 0.19908 0.14499 0.0
C678 C 0.25372 0.14228 0.12401 0.0
C679 C 0.26545 0.11088 0.11666 0.0
C680 C 0.22782 0.14603 0.14476 0.0
C681 C 0.24936 0.08327 0.12839 0.0
C682 C 0.22295 0.08675 0.14819 0.0
C683 C 0.1892 0.12164 0.18035 0.0
C684 C 0.18104 0.15289 0.1914 0.0
C685 C 0.2128 0.118 0.15746 0.0
C686 C 0.19481 0.18062 0.17755 0.0
C687 C 0.21798 0.17725 0.15449 0.0
H688 H 0.90579 0.68915 0.45152 0.0
H689 H 0.80071 0.69464 0.44487 0.0
H690 H 0.8055 0.73434 0.40384 0.0
H691 H 0.83965 0.77247 0.37393 0.0
H692 H 0.94453 0.76948 0.38334 0.0
H693 H 0.93994 0.72383 0.41872 0.0
C694 C 0.88397 0.69927 0.44122 0.0
C695 C 0.85293 0.68982 0.45191 0.0
C696 C 0.88695 0.7224 0.41786 0.0
C697 C 0.82489 0.70195 0.4374 0.0
C698 C 0.82762 0.72466 0.41391 0.0
C699 C 0.86147 0.76093 0.3829 0.0
C700 C 0.89244 0.77386 0.37563 0.0
C701 C 0.85852 0.73565 0.40438 0.0
C702 C 0.92051 0.7595 0.38821 0.0
C703 C 0.91785 0.73368 0.40874 0.0
H704 H 0.32362 0.3948 0.68823 0.0
H705 H 0.31106 0.29013 0.68112 0.0
H706 H 0.26913 0.29794 0.64276 0.0
H707 H 0.23101 0.33454 0.61589 0.0
H708 H 0.23924 0.43888 0.62779 0.0
H709 H 0.28744 0.43135 0.65986 0.0
C710 C 0.31133 0.37365 0.67899 0.0
C711 C 0.31979 0.34194 0.68871 0.0
C712 C 0.28642 0.37834 0.65753 0.0
C713 C 0.30488 0.3149 0.67453 0.0
C714 C 0.28075 0.31931 0.65257 0.0
C715 C 0.2441 0.35557 0.62478 0.0
C716 C 0.23219 0.38724 0.61907 0.0
C717 C 0.27071 0.35092 0.64445 0.0
C718 C 0.24849 0.41435 0.63148 0.0
C719 C 0.27579 0.41 0.65005 0.0
H720 H 0.67054 0.81794 0.92386 0.0
H721 H 0.58205 0.81003 0.97637 0.0
H722 H 0.56176 0.76721 0.94312 0.0
H723 H 0.57113 0.7284 0.90212 0.0
H724 H 0.65862 0.73605 0.8482 0.0
H725 H 0.6767 0.7831 0.87818 0.0
C726 C 0.64672 0.80698 0.92781 0.0
C727 C 0.62857 0.81608 0.95346 0.0
C728 C 0.63487 0.78242 0.90818 0.0
C729 C 0.59735 0.8023 0.95779 0.0
C730 C 0.58548 0.77806 0.93852 0.0
C731 C 0.59388 0.74072 0.8965 0.0
C732 C 0.61358 0.72845 0.87307 0.0
C733 C 0.60438 0.76731 0.91414 0.0
C734 C 0.64284 0.74499 0.86599 0.0
C735 C 0.65339 0.77171 0.88338 0.0
H736 H 0.17929 0.39366 0.07442 0.0
H737 H 0.1796 0.28983 0.09157 0.0
H738 H 0.21854 0.29775 0.1329 0.0
H739 H 0.25786 0.33357 0.15987 0.0
H740 H 0.26033 0.43667 0.13962 0.0
H741 H 0.215 0.42993 0.10414 0.0
C742 C 0.18804 0.37277 0.08713 0.0
C743 C 0.17744 0.34108 0.07931 0.0
C744 C 0.21086 0.3775 0.11049 0.0
C745 C 0.18782 0.31442 0.09684 0.0
C746 C 0.21013 0.31894 0.12045 0.0
C747 C 0.24758 0.35467 0.14847 0.0
C748 C 0.26189 0.38571 0.15275 0.0
C749 C 0.22248 0.35028 0.12701 0.0
C750 C 0.24921 0.4127 0.13708 0.0
C751 C 0.22358 0.40877 0.11653 0.0
H752 H 0.66205 0.76958 0.39897 0.0
H753 H 0.55746 0.75704 0.39493 0.0
H754 H 0.56413 0.70942 0.36192 0.0
H755 H 0.59948 0.67506 0.33035 0.0
H756 H 0.70372 0.69208 0.32947 0.0
H757 H 0.69766 0.73324 0.36891 0.0
C758 C 0.64085 0.75568 0.39162 0.0
C759 C 0.60933 0.76629 0.39983 0.0
C760 C 0.64484 0.72943 0.3713 0.0
C761 C 0.58195 0.74887 0.38934 0.0
C762 C 0.58577 0.72189 0.3702 0.0
C763 C 0.62083 0.6882 0.33806 0.0
C764 C 0.65187 0.68121 0.32577 0.0
C765 C 0.61705 0.71269 0.36016 0.0
C766 C 0.67942 0.69711 0.33805 0.0
C767 C 0.67599 0.72081 0.36062 0.0
H768 H 0.23318 0.16259 0.65883 0.0
H769 H 0.2298 0.0593 0.63928 0.0
H770 H 0.27687 0.06475 0.60563 0.0
H771 H 0.31459 0.09994 0.5771 0.0
H772 H 0.31575 0.20392 0.59363 0.0
H773 H 0.27455 0.19731 0.63328 0.0
C774 C 0.24358 0.14118 0.648 0.0
C775 C 0.22846 0.11048 0.65185 0.0
C776 C 0.2698 0.1448 0.62757 0.0
C777 C 0.24142 0.08304 0.63697 0.0
C778 C 0.26808 0.08623 0.61747 0.0
C779 C 0.30568 0.12114 0.58931 0.0
C780 C 0.31737 0.1525 0.5818 0.0
C781 C 0.28166 0.11717 0.61173 0.0
C782 C 0.3067 0.17958 0.59869 0.0
C783 C 0.28312 0.17581 0.62134 0.0
H784 H 0.92204 0.71497 0.86784 0.0
H785 H 0.83575 0.73103 0.92178 0.0
H786 H 0.82072 0.77765 0.88991 0.0
H787 H 0.82934 0.81017 0.84327 0.0
H788 H 0.91702 0.79433 0.79108 0.0
H789 H 0.93383 0.75105 0.82528 0.0
C790 C 0.9002 0.729 0.873 0.0
C791 C 0.87996 0.71932 0.8971 0.0
C792 C 0.89146 0.75531 0.85431 0.0
C793 C 0.85193 0.73802 0.90356 0.0
C794 C 0.84312 0.76447 0.88508 0.0
C795 C 0.85218 0.7973 0.83948 0.0
C796 C 0.87097 0.8044 0.81361 0.0
C797 C 0.8622 0.77272 0.85983 0.0
C798 C 0.90099 0.78814 0.80961 0.0
C799 C 0.91097 0.76369 0.82952 0.0
H800 H 0.68369 0.65379 0.67576 0.0
H801 H 0.73318 0.61151 0.75225 0.0
H802 H 0.77867 0.59576 0.72074 0.0
H803 H 0.80644 0.59676 0.67287 0.0
H804 H 0.7619 0.64369 0.59613 0.0
H805 H 0.71257 0.65462 0.62619 0.0
C806 C 0.70433 0.64085 0.6854 0.0
C807 C 0.70405 0.63259 0.71629 0.0
C808 C 0.7315 0.63285 0.66711 0.0
C809 C 0.73141 0.61653 0.72848 0.0
C810 C 0.75794 0.60797 0.71046 0.0
C811 C 0.78595 0.60915 0.66236 0.0
C812 C 0.7881 0.61941 0.63214 0.0
C813 C 0.75835 0.61619 0.6799 0.0
C814 C 0.76102 0.63539 0.61926 0.0
C815 C 0.73287 0.64182 0.63653 0.0
H816 H 0.32636 0.17596 0.91763 0.0
H817 H 0.41584 0.18444 0.96856 0.0
H818 H 0.43659 0.22499 0.93325 0.0
H819 H 0.42695 0.26258 0.89128 0.0
H820 H 0.33893 0.25362 0.83847 0.0
H821 H 0.32051 0.20814 0.8703 0.0
C822 C 0.35051 0.18648 0.92075 0.0
C823 C 0.36878 0.17847 0.94664 0.0
C824 C 0.36268 0.20958 0.89986 0.0
C825 C 0.40047 0.19152 0.94983 0.0
C826 C 0.41258 0.21444 0.9294 0.0
C827 C 0.40411 0.25011 0.88625 0.0
C828 C 0.38429 0.26159 0.86265 0.0
C829 C 0.39351 0.2244 0.90488 0.0
C830 C 0.35482 0.24509 0.85633 0.0
C831 C 0.34408 0.21934 0.8748 0.0
H832 H 0.81224 0.82524 0.17864 0.0
H833 H 0.80972 0.91798 0.22516 0.0
H834 H 0.76951 0.93862 0.18953 0.0
H835 H 0.7311 0.92879 0.14833 0.0
H836 H 0.73328 0.83708 0.10027 0.0
H837 H 0.77819 0.81803 0.13247 0.0
C838 C 0.80302 0.85003 0.18076 0.0
C839 C 0.81279 0.86948 0.20546 0.0
C840 C 0.78 0.86204 0.15974 0.0
C841 C 0.80136 0.90187 0.20738 0.0
C842 C 0.77863 0.91388 0.18675 0.0
C843 C 0.74187 0.90487 0.14443 0.0
C844 C 0.72871 0.88434 0.12201 0.0
C845 C 0.76713 0.89392 0.16335 0.0
C846 C 0.7431 0.85351 0.11717 0.0
C847 C 0.76853 0.84245 0.13587 0.0
H848 H 0.08889 0.21209 0.40931 0.0
H849 H 0.15231 0.24529 0.3379 0.0
H850 H 0.16552 0.29466 0.36719 0.0
H851 H 0.16299 0.32553 0.41568 0.0
H852 H 0.10302 0.28704 0.48751 0.0
H853 H 0.08449 0.24314 0.45549 0.0
C854 C 0.10535 0.23023 0.39982 0.0
C855 C 0.11977 0.22473 0.37147 0.0
C856 C 0.11353 0.25782 0.41705 0.0
C857 C 0.14075 0.24883 0.3596 0.0
C858 C 0.14853 0.27695 0.37649 0.0
C859 C 0.14549 0.30778 0.42412 0.0
C860 C 0.13352 0.31076 0.45385 0.0
C861 C 0.13571 0.28128 0.40566 0.0
C862 C 0.11138 0.28702 0.4645 0.0
C863 C 0.10114 0.26124 0.44624 0.0
H864 H 0.6902 0.81966 0.59319 0.0
H865 H 0.68655 0.91422 0.55019 0.0
H866 H 0.72577 0.93595 0.58639 0.0
H867 H 0.7654 0.92668 0.62671 0.0
H868 H 0.76939 0.83282 0.6709 0.0
H869 H 0.72502 0.81262 0.6387 0.0
C870 C 0.69784 0.84507 0.59198 0.0
C871 C 0.68673 0.86485 0.56811 0.0
C872 C 0.72028 0.85762 0.61326 0.0
C873 C 0.69605 0.89799 0.56735 0.0
C874 C 0.71818 0.91058 0.58829 0.0
C875 C 0.75607 0.90201 0.62979 0.0
C876 C 0.77091 0.88124 0.65104 0.0
C877 C 0.73117 0.89039 0.61078 0.0
C878 C 0.75832 0.84943 0.65489 0.0
C879 C 0.7332 0.83773 0.63617 0.0
H880 H 0.16254 0.25932 0.90761 0.0
H881 H 0.06009 0.26666 0.88571 0.0
H882 H 0.06483 0.22014 0.85129 0.0
H883 H 0.09939 0.18164 0.82299 0.0
H884 H 0.2027 0.17662 0.84183 0.0
H885 H 0.19645 0.21729 0.88203 0.0
C886 C 0.1411 0.24992 0.89605 0.0
C887 C 0.11087 0.26603 0.89951 0.0
C888 C 0.14437 0.22399 0.87521 0.0
C889 C 0.08346 0.25432 0.8837 0.0
C890 C 0.08625 0.22795 0.86378 0.0
C891 C 0.12054 0.1896 0.83582 0.0
C892 C 0.15164 0.17694 0.82879 0.0
C893 C 0.11681 0.21338 0.85853 0.0
C894 C 0.17858 0.18639 0.84648 0.0
C895 C 0.17501 0.20969 0.86945 0.0
H896 H 0.79453 0.59543 0.062 0.0
H897 H 0.81493 0.69456 0.08973 0.0
H898 H 0.77452 0.68986 0.1302 0.0
H899 H 0.72935 0.65921 0.15474 0.0
H900 H 0.70683 0.56151 0.12444 0.0
H901 H 0.75194 0.5638 0.08828 0.0
C902 C 0.78983 0.61615 0.07664 0.0
C903 C 0.807 0.64568 0.07217 0.0
C904 C 0.76628 0.61336 0.0997 0.0
C905 C 0.80171 0.67171 0.09234 0.0
C906 C 0.77859 0.66903 0.11553 0.0
C907 C 0.73508 0.63811 0.14086 0.0
C908 C 0.71519 0.60999 0.1426 0.0
C909 C 0.76028 0.64016 0.11915 0.0
C910 C 0.72216 0.58319 0.12381 0.0
C911 C 0.74773 0.58463 0.10291 0.0
H912 H 0.33394 0.32382 0.35856 0.0
H913 H 0.39167 0.28415 0.28572 0.0
H914 H 0.41325 0.24254 0.31842 0.0
H915 H 0.41239 0.21369 0.36572 0.0
H916 H 0.35023 0.24676 0.43812 0.0
H917 H 0.3342 0.29454 0.40795 0.0
C918 C 0.35158 0.3063 0.35001 0.0
C919 C 0.36218 0.30847 0.31978 0.0
C920 C 0.36299 0.2809 0.36891 0.0
C921 C 0.38444 0.28494 0.30903 0.0
C922 C 0.39643 0.26042 0.32772 0.0
C923 C 0.39559 0.23145 0.37526 0.0
C924 C 0.38241 0.22636 0.40417 0.0
C925 C 0.38556 0.25789 0.35747 0.0
C926 C 0.3609 0.24999 0.41601 0.0
C927 C 0.35148 0.27718 0.3986 0.0
H928 H 0.06407 0.02401 0.28699 0.0
H929 H 0.97989 0.0865 0.29603 0.0
H930 H 0.9434 0.03907 0.29134 0.0
H931 H 0.93641 0.97921 0.29438 0.0
H932 H 0.02093 0.9166 0.2899 0.0
H933 H 0.05651 0.96432 0.28251 0.0
C934 C 0.0377 0.02717 0.28671 0.0
C935 C 0.02443 0.05841 0.29152 0.0
C936 C 0.01708 0.99965 0.28526 0.0
C937 C 0.99037 0.06254 0.29192 0.0
C938 C 0.96961 0.03543 0.28956 0.0
C939 C 0.96248 0.97614 0.29063 0.0
C940 C 0.97625 0.94475 0.29238 0.0
C941 C 0.98275 0.00376 0.28759 0.0
C942 C 0.01002 0.94071 0.28823 0.0
C943 C 0.0303 0.96796 0.2843 0.0
H944 H 0.0334 0.44665 0.53395 0.0
H945 H 0.09463 0.52918 0.55583 0.0
H946 H 0.04802 0.56632 0.54992 0.0
H947 H 0.98827 0.57328 0.54849 0.0
H948 H 0.92622 0.49001 0.5317 0.0
H949 H 0.97444 0.45504 0.52492 0.0
C950 C 0.03659 0.47292 0.53627 0.0
C951 C 0.0671 0.48546 0.54515 0.0
C952 C 0.00939 0.49379 0.53408 0.0
C953 C 0.07123 0.51932 0.54874 0.0
C954 C 0.04457 0.54041 0.54562 0.0
C955 C 0.98555 0.54776 0.5421 0.0
C956 C 0.95411 0.53406 0.5402 0.0
C957 C 0.01329 0.52771 0.53967 0.0
C958 C 0.9504 0.50091 0.53275 0.0
C959 C 0.97791 0.48095 0.52924 0.0
H960 H 0.51794 0.43066 0.79201 0.0
H961 H 0.41837 0.4647 0.78746 0.0
H962 H 0.43741 0.52147 0.78389 0.0
H963 H 0.48233 0.56155 0.78986 0.0
H964 H 0.58184 0.52733 0.795 0.0
H965 H 0.56324 0.47063 0.78995 0.0
C966 C 0.50061 0.45055 0.78927 0.0
C967 C 0.46695 0.44383 0.78992 0.0
C968 C 0.51177 0.48307 0.78765 0.0
C969 C 0.44446 0.46954 0.78671 0.0
C970 C 0.45532 0.50195 0.78495 0.0
C971 C 0.49985 0.54163 0.78896 0.0
C972 C 0.53328 0.54835 0.79274 0.0
C973 C 0.48889 0.50908 0.78649 0.0
C974 C 0.55597 0.52256 0.7918 0.0
C975 C 0.54532 0.49017 0.78921 0.0
H976 H 0.47215 0.06471 0.04279 0.0
H977 H 0.41783 0.97449 0.04842 0.0
H978 H 0.46856 0.94298 0.04328 0.0
H979 H 0.52878 0.94166 0.04527 0.0
H980 H 0.5833 0.03193 0.04313 0.0
H981 H 0.53231 0.06313 0.03832 0.0
C982 C 0.47151 0.03815 0.04188 0.0
C983 C 0.44159 0.02172 0.04572 0.0
C984 C 0.50084 0.02037 0.03988 0.0
C985 C 0.44075 0.98741 0.04518 0.0
C986 C 0.46971 0.96949 0.04248 0.0
C987 C 0.52938 0.96808 0.04271 0.0
C988 C 0.55946 0.98466 0.04425 0.0
C989 C 0.49998 0.98573 0.04093 0.0
C990 C 0.56025 0.01886 0.04163 0.0
C991 C 0.53115 0.03662 0.03914 0.0
H992 H 0.9868 0.4271 0.97719 0.0
H993 H 0.08285 0.47025 0.98228 0.0
H994 H 0.05869 0.52476 0.98829 0.0
H995 H 0.01028 0.5605 0.98348 0.0
H996 H 0.91431 0.51731 0.9774 0.0
H997 H 0.93801 0.46242 0.98102 0.0
C998 C 0.00225 0.44841 0.98066 0.0
C999 C 0.03637 0.44501 0.97941 0.0
C1000 C 0.98814 0.47961 0.98361 0.0
C1001 C 0.05645 0.47256 0.98348 0.0
C1002 C 0.04265 0.50366 0.98664 0.0
C1003 C 0.99465 0.53901 0.98406 0.0
C1004 C 0.96075 0.54263 0.98034 0.0
C1005 C 0.00856 0.5076 0.98556 0.0
C1006 C 0.94049 0.51485 0.98061 0.0
C1007 C 0.95406 0.48353 0.98237 0.0
H1008 H 0.42019 0.51868 0.22413 0.0
H1009 H 0.46316 0.42327 0.23513 0.0
H1010 H 0.51755 0.44792 0.24054 0.0
H1011 H 0.55344 0.49601 0.23287 0.0
H1012 H 0.51032 0.59129 0.22133 0.0
H1013 H 0.45542 0.56775 0.22605 0.0
C1014 C 0.4414 0.50356 0.22885 0.0
C1015 C 0.43802 0.46941 0.22934 0.0
C1016 C 0.47255 0.51793 0.2315 0.0
C1017 C 0.46545 0.44972 0.23499 0.0
C1018 C 0.49651 0.46378 0.2378 0.0
C1019 C 0.53196 0.51161 0.23262 0.0
C1020 C 0.53557 0.54519 0.22695 0.0
C1021 C 0.50051 0.49775 0.23482 0.0
C1022 C 0.50781 0.56536 0.22605 0.0
C1023 C 0.4765 0.55187 0.22843 0.0
H1024 H 0.48621 0.93286 0.48351 0.0
H1025 H 0.58399 0.97162 0.47631 0.0
H1026 H 0.5632 0.02736 0.48286 0.0
H1027 H 0.51623 0.06517 0.48242 0.0
H1028 H 0.4183 0.02656 0.48806 0.0
H1029 H 0.43982 0.97072 0.49108 0.0
C1030 C 0.50289 0.95355 0.48429 0.0
C1031 C 0.53644 0.94846 0.47951 0.0
C1032 C 0.49065 0.9855 0.48759 0.0
C1033 C 0.55805 0.9752 0.48022 0.0
C1034 C 0.54615 0.00701 0.48374 0.0
C1035 C 0.49982 0.0445 0.4854 0.0
C1036 C 0.46589 0.04967 0.48515 0.0
C1037 C 0.51239 0.01252 0.48634 0.0
C1038 C 0.44457 0.02294 0.48857 0.0
C1039 C 0.45686 0.99106 0.48994 0.0
H1040 H 0.02462 0.06363 0.73418 0.0
H1041 H 0.08174 0.9764 0.72036 0.0
H1042 H 0.03259 0.94245 0.72594 0.0
H1043 H 0.97247 0.93878 0.72593 0.0
H1044 H 0.91487 0.02629 0.73613 0.0
H1045 H 0.96487 0.05915 0.74126 0.0
C1046 C 0.02628 0.03712 0.73349 0.0
C1047 C 0.05646 0.02229 0.7271 0.0
C1048 C 0.99776 0.01799 0.73565 0.0
C1049 C 0.05861 0.98807 0.72558 0.0
C1050 C 0.03053 0.96877 0.72849 0.0
C1051 C 0.97102 0.96488 0.73036 0.0
C1052 C 0.94033 0.98027 0.73089 0.0
C1053 C -0.00018 0.98357 0.7323 0.0
C1054 C 0.93842 0.01411 0.73595 0.0
C1055 C 0.96695 0.03285 0.73863 0.0
H1056 H 0.31842 0.09097 0.36868 0.0
H1057 H 0.28482 0.08827 0.46079 0.0
H1058 H 0.22861 0.08065 0.44357 0.0
H1059 H 0.18893 0.08593 0.40289 0.0
H1060 H 0.22229 0.09376 0.31095 0.0
H1061 H 0.27885 0.08745 0.32757 0.0
C1062 C 0.29895 0.0879 0.38506 0.0
C1063 C 0.30561 0.09117 0.41599 0.0
C1064 C 0.26662 0.08491 0.37498 0.0
C1065 C 0.28018 0.08672 0.43687 0.0
C1066 C 0.24804 0.08237 0.42702 0.0
C1067 C 0.20844 0.08553 0.38632 0.0
C1068 C 0.2015 0.09146 0.35578 0.0
C1069 C 0.24088 0.08323 0.39616 0.0
C1070 C 0.22705 0.09024 0.33466 0.0
C1071 C 0.2594 0.08662 0.34416 0.0
H1072 H 0.91114 0.72766 0.57686 0.0
H1073 H 0.93161 0.6836 0.66316 0.0
H1074 H 0.93626 0.73748 0.68599 0.0
H1075 H 0.9231 0.7959 0.68352 0.0
H1076 H 0.90165 0.84004 0.59753 0.0
H1077 H 0.90956 0.78753 0.57256 0.0
C1078 C 0.9173 0.72982 0.60049 0.0
C1079 C 0.91969 0.70162 0.61842 0.0
C1080 C 0.91938 0.76095 0.61372 0.0
C1081 C 0.92882 0.70488 0.64885 0.0
C1082 C 0.93139 0.73574 0.66206 0.0
C1083 C 0.92085 0.79417 0.65926 0.0
C1084 C 0.91067 0.82149 0.6426 0.0
C1085 C 0.92485 0.7638 0.64506 0.0
C1086 C 0.90889 0.81919 0.61103 0.0
C1087 C 0.91323 0.78911 0.59668 0.0
H1088 H 0.18951 0.39793 0.8658 0.0
H1089 H 0.2209 0.39553 0.95854 0.0
H1090 H 0.27776 0.40155 0.94272 0.0
H1091 H 0.31839 0.39711 0.9025 0.0
H1092 H 0.28674 0.39492 0.80976 0.0
H1093 H 0.23006 0.40191 0.82569 0.0
C1094 C 0.20868 0.39941 0.88265 0.0
C1095 C 0.20112 0.39515 0.91327 0.0
C1096 C 0.24131 0.40176 0.87335 0.0
C1097 C 0.22618 0.39771 0.93479 0.0
C1098 C 0.25871 0.40122 0.92575 0.0
C1099 C 0.29921 0.39894 0.8857 0.0
C1100 C 0.30664 0.3947 0.85505 0.0
C1101 C 0.2666 0.40159 0.89505 0.0
C1102 C 0.28156 0.3975 0.83356 0.0
C1103 C 0.24914 0.4014 0.84264 0.0
H1104 H 0.60298 0.8284 0.16405 0.0
H1105 H 0.57023 0.80374 0.07459 0.0
H1106 H 0.56257 0.74676 0.08971 0.0
H1107 H 0.57573 0.70304 0.12521 0.0
H1108 H 0.61241 0.72747 0.21364 0.0
H1109 H 0.60732 0.78562 0.20226 0.0
C1110 C 0.5932 0.81077 0.14811 0.0
C1111 C 0.58819 0.81985 0.11799 0.0
C1112 C 0.59011 0.77794 0.15667 0.0
C1113 C 0.57526 0.79692 0.09763 0.0
C1114 C 0.57088 0.7644 0.10628 0.0
C1115 C 0.58204 0.72103 0.14224 0.0
C1116 C 0.59535 0.71097 0.16988 0.0
C1117 C 0.58004 0.75437 0.13523 0.0
C1118 C 0.60277 0.73459 0.19191 0.0
C1119 C 0.59988 0.76786 0.18543 0.0
H1120 H 0.70832 0.58276 0.8389 0.0
H1121 H 0.66391 0.59676 0.92609 0.0
H1122 H 0.7168 0.58883 0.95033 0.0
H1123 H 0.77655 0.5892 0.94574 0.0
H1124 H 0.82102 0.57757 0.85817 0.0
H1125 H 0.76719 0.57245 0.83525 0.0
C1126 C 0.71012 0.58352 0.86319 0.0
C1127 C 0.68254 0.5915 0.88053 0.0
C1128 C 0.74068 0.57967 0.87695 0.0
C1129 C 0.68494 0.59124 0.91212 0.0
C1130 C 0.71522 0.58686 0.92604 0.0
C1131 C 0.77453 0.58491 0.92175 0.0
C1132 C 0.8027 0.58508 0.90361 0.0
C1133 C 0.74347 0.58285 0.90854 0.0
C1134 C 0.79969 0.57832 0.87266 0.0
C1135 C 0.76888 0.57553 0.85944 0.0
H1136 H 0.39089 0.18147 0.16136 0.0
H1137 H 0.41309 0.20834 0.06975 0.0
H1138 H 0.41831 0.26564 0.08457 0.0
H1139 H 0.40661 0.30855 0.12163 0.0
H1140 H 0.37996 0.28125 0.21233 0.0
H1141 H 0.38733 0.22377 0.19998 0.0
C1142 C 0.39774 0.19971 0.14475 0.0
C1143 C 0.40058 0.19088 0.11431 0.0
C1144 C 0.39958 0.23267 0.15327 0.0
C1145 C 0.40974 0.21472 0.09314 0.0
C1146 C 0.41278 0.24749 0.10163 0.0
C1147 C 0.40309 0.2901 0.13888 0.0
C1148 C 0.39223 0.29925 0.16771 0.0
C1149 C 0.40607 0.2569 0.13133 0.0
C1150 C 0.38811 0.275 0.18988 0.0
C1151 C 0.39214 0.24201 0.18281 0.0
H1152 H 0.7839 0.90601 0.33301 0.0
H1153 H 0.82707 0.90833 0.42165 0.0
H1154 H 0.7729 0.91245 0.44421 0.0
H1155 H 0.71372 0.90488 0.43902 0.0
H1156 H 0.67068 0.89932 0.35043 0.0
H1157 H 0.72432 0.90749 0.32763 0.0
C1158 C 0.78154 0.90781 0.3572 0.0
C1159 C 0.80941 0.90558 0.37557 0.0
C1160 C 0.75029 0.9092 0.3701 0.0
C1161 C 0.80598 0.90932 0.40691 0.0
C1162 C 0.77497 0.91151 0.4199 0.0
C1163 C 0.71599 0.90583 0.41476 0.0
C1164 C 0.68846 0.9003 0.39651 0.0
C1165 C 0.74698 0.90971 0.40176 0.0
C1166 C 0.6916 0.90288 0.36507 0.0
C1167 C 0.7223 0.90743 0.35195 0.0
H1168 H 0.09791 0.18681 0.61542 0.0
H1169 H 0.09273 0.21541 0.70885 0.0
H1170 H 0.08665 0.27264 0.69414 0.0
H1171 H 0.09301 0.31462 0.65531 0.0
H1172 H 0.10366 0.28561 0.56229 0.0
H1173 H 0.09649 0.22846 0.57624 0.0
C1174 C 0.09471 0.20543 0.63261 0.0
C1175 C 0.09678 0.19702 0.66322 0.0
C1176 C 0.09247 0.23829 0.62402 0.0
C1177 C 0.09217 0.22138 0.68516 0.0
C1178 C 0.08865 0.25411 0.67675 0.0
C1179 C 0.09304 0.2959 0.63797 0.0
C1180 C 0.09946 0.30437 0.60786 0.0
C1181 C 0.09044 0.26293 0.6463 0.0
C1182 C 0.09909 0.27981 0.58566 0.0
C1183 C 0.09517 0.24704 0.59364 0.0
loop_
_geom_bond_atom_site_label_1
_geom_bond_atom_site_label_2
_geom_bond_distance
_geom_bond_site_symmetry_2
_ccdc_geom_bond_type
Co0 O3 1.970 . S
Co0 N17 1.989 . S
Co0 O25 1.967 . S
Co0 O32 1.920 . S
Co1 O4 1.966 . S
Co1 N10 2.022 . S
Co1 N18 1.993 . S
Co1 O26 1.941 . S
C2 O3 1.258 . S
C2 O4 1.263 . S
O3 Co0 1.970 . S
O3 C2 1.258 . S
O4 Co1 1.966 . S
O4 C2 1.263 . S
C5 O6 1.235 . S
C5 O32 1.289 . S
O6 C5 1.235 . S
C7 C9 1.400 . S
C7 N10 1.351 . S
C7 C12 1.501 . S
C8 C9 1.387 . S
C8 N11 1.341 . S
C9 C7 1.400 . S
C9 C8 1.387 . S
N10 Co1 2.022 . S
N10 C7 1.351 . S
N10 N11 1.365 . S
N11 C8 1.341 . S
N11 N10 1.365 . S
N11 H31 0.862 . S
C12 C7 1.501 . S
C12 H13 0.961 . S
C12 H14 0.961 . S
C12 H15 0.960 . S
H13 C12 0.961 . S
H14 C12 0.961 . S
H15 C12 0.960 . S
C16 N17 1.342 . S
C16 C20 1.401 . S
C16 C21 1.499 . S
N17 Co0 1.989 . S
N17 C16 1.342 . S
N17 N18 1.388 . S
N18 Co1 1.993 . S
N18 N17 1.388 . S
N18 C19 1.346 . S
C19 N18 1.346 . S
C19 C20 1.396 . S
C19 C29 1.510 . S
C20 C16 1.401 . S
C20 C19 1.396 . S
C21 C16 1.499 . S
C21 H22 0.959 . S
C21 H23 0.960 . S
C21 H24 0.961 . S
H22 C21 0.959 . S
H23 C21 0.960 . S
H24 C21 0.961 . S
O25 Co0 1.967 . S
O25 C33 1.258 . S
O26 Co1 1.941 . S
O26 C33 1.266 . S
H27 C29 0.959 . S
H28 C29 0.961 . S
C29 C19 1.510 . S
C29 H27 0.959 . S
C29 H28 0.961 . S
C29 H30 0.960 . S
H30 C29 0.960 . S
H31 N11 0.862 . S
O32 Co0 1.920 . S
O32 C5 1.289 . S
C33 O25 1.258 . S
C33 O26 1.266 . S
Co34 O37 1.970 . S
Co34 N51 1.989 . S
Co34 O59 1.967 . S
Co34 O66 1.920 . S
Co35 O38 1.966 . S
Co35 N44 2.022 . S
Co35 N52 1.993 . S
Co35 O60 1.941 . S
C36 O37 1.258 . S
C36 O38 1.263 . S
O37 Co34 1.970 . S
O37 C36 1.258 . S
O38 Co35 1.966 . S
O38 C36 1.263 . S
C39 O40 1.235 . S
C39 O66 1.289 . S
O40 C39 1.235 . S
C41 C43 1.400 . S
C41 N44 1.351 . S
C41 C46 1.501 . S
C42 C43 1.387 . S
C42 N45 1.341 . S
C43 C41 1.400 . S
C43 C42 1.387 . S
N44 Co35 2.022 . S
N44 C41 1.351 . S
N44 N45 1.365 . S
N45 C42 1.341 . S
N45 N44 1.365 . S
N45 H65 0.862 . S
C46 C41 1.501 . S
C46 H47 0.961 . S
C46 H48 0.961 . S
C46 H49 0.960 . S
H47 C46 0.961 . S
H48 C46 0.961 . S
H49 C46 0.960 . S
C50 N51 1.342 . S
C50 C54 1.401 . S
C50 C55 1.499 . S
N51 Co34 1.989 . S
N51 C50 1.342 . S
N51 N52 1.388 . S
N52 Co35 1.993 . S
N52 N51 1.388 . S
N52 C53 1.346 . S
C53 N52 1.346 . S
C53 C54 1.396 . S
C53 C63 1.510 . S
C54 C50 1.401 . S
C54 C53 1.396 . S
C55 C50 1.499 . S
C55 H56 0.959 . S
C55 H57 0.960 . S
C55 H58 0.961 . S
H56 C55 0.959 . S
H57 C55 0.960 . S
H58 C55 0.961 . S
O59 Co34 1.967 . S
O59 C67 1.258 . S
O60 Co35 1.941 . S
O60 C67 1.266 . S
H61 C63 0.959 . S
H62 C63 0.961 . S
C63 C53 1.510 . S
C63 H61 0.959 . S
C63 H62 0.961 . S
C63 H64 0.960 . S
H64 C63 0.960 . S
H65 N45 0.862 . S
O66 Co34 1.920 . S
O66 C39 1.289 . S
C67 O59 1.258 . S
C67 O60 1.266 . S
Co68 O71 1.970 . S
Co68 N85 1.989 . S
Co68 O93 1.967 . S
Co68 O100 1.920 . S
Co69 O72 1.966 . S
Co69 N78 2.022 . S
Co69 N86 1.993 . S
Co69 O94 1.941 . S
C70 O71 1.258 . S
C70 O72 1.263 . S
O71 Co68 1.970 . S
O71 C70 1.258 . S
O72 Co69 1.966 . S
O72 C70 1.263 . S
C73 O74 1.235 . S
C73 O100 1.289 . S
O74 C73 1.235 . S
C75 C77 1.400 . S
C75 N78 1.351 . S
C75 C80 1.501 . S
C76 C77 1.387 . S
C76 N79 1.341 . S
C77 C75 1.400 . S
C77 C76 1.387 . S
N78 Co69 2.022 . S
N78 C75 1.351 . S
N78 N79 1.365 . S
N79 C76 1.341 . S
N79 N78 1.365 . S
N79 H99 0.862 . S
C80 C75 1.501 . S
C80 H81 0.961 . S
C80 H82 0.961 . S
C80 H83 0.960 . S
H81 C80 0.961 . S
H82 C80 0.961 . S
H83 C80 0.960 . S
C84 N85 1.342 . S
C84 C88 1.401 . S
C84 C89 1.499 . S
N85 Co68 1.989 . S
N85 C84 1.342 . S
N85 N86 1.388 . S
N86 Co69 1.993 . S
N86 N85 1.388 . S
N86 C87 1.346 . S
C87 N86 1.346 . S
C87 C88 1.396 . S
C87 C97 1.510 . S
C88 C84 1.401 . S
C88 C87 1.396 . S
C89 C84 1.499 . S
C89 H90 0.959 . S
C89 H91 0.960 . S
C89 H92 0.961 . S
H90 C89 0.959 . S
H91 C89 0.960 . S
H92 C89 0.961 . S
O93 Co68 1.967 . S
O93 C101 1.258 . S
O94 Co69 1.941 . S
O94 C101 1.266 . S
H95 C97 0.959 . S
H96 C97 0.961 . S
C97 C87 1.510 . S
C97 H95 0.959 . S
C97 H96 0.961 . S
C97 H98 0.960 . S
H98 C97 0.960 . S
H99 N79 0.862 . S
O100 Co68 1.920 . S
O100 C73 1.289 . S
C101 O93 1.258 . S
C101 O94 1.266 . S
Co102 O105 1.970 . S
Co102 N119 1.989 . S
Co102 O127 1.967 . S
Co102 O134 1.920 . S
Co103 O106 1.966 . S
Co103 N112 2.022 . S
Co103 N120 1.993 . S
Co103 O128 1.941 . S
C104 O105 1.258 . S
C104 O106 1.263 . S
O105 Co102 1.970 . S
O105 C104 1.258 . S
O106 Co103 1.966 . S
O106 C104 1.263 . S
C107 O108 1.235 . S
C107 O134 1.289 . S
O108 C107 1.235 . S
C109 C111 1.400 . S
C109 N112 1.351 1_556 S
C109 C114 1.501 1_556 S
C110 C111 1.387 . S
C110 N113 1.341 . S
C111 C109 1.400 . S
C111 C110 1.387 . S
N112 Co103 2.022 . S
N112 C109 1.351 1_554 S
N112 N113 1.365 1_554 S
N113 C110 1.341 . S
N113 N112 1.365 1_556 S
N113 H133 0.862 . S
C114 C109 1.501 1_554 S
C114 H115 0.961 . S
C114 H116 0.955 1_554 S
C114 H117 0.960 1_554 S
H115 C114 0.961 . S
H116 C114 0.955 1_556 S
H117 C114 0.960 1_556 S
C118 N119 1.342 . S
C118 C122 1.401 . S
C118 C123 1.499 . S
N119 Co102 1.989 . S
N119 C118 1.342 . S
N119 N120 1.388 . S
N120 Co103 1.993 . S
N120 N119 1.388 . S
N120 C121 1.346 . S
C121 N120 1.346 . S
C121 C122 1.396 . S
C121 C131 1.510 . S
C122 C118 1.401 . S
C122 C121 1.396 . S
C123 C118 1.499 . S
C123 H124 0.959 . S
C123 H125 0.960 . S
C123 H126 0.961 . S
H124 C123 0.959 . S
H125 C123 0.960 . S
H126 C123 0.961 . S
O127 Co102 1.967 . S
O127 C135 1.258 . S
O128 Co103 1.941 . S
O128 C135 1.266 . S
H129 C131 0.959 . S
H130 C131 0.961 . S
C131 C121 1.510 . S
C131 H129 0.959 . S
C131 H130 0.961 . S
C131 H132 0.960 . S
H132 C131 0.960 . S
H133 N113 0.862 . S
O134 Co102 1.920 . S
O134 C107 1.289 . S
C135 O127 1.258 . S
C135 O128 1.266 . S
Co136 O139 1.970 . S
Co136 N153 1.989 . S
Co136 O161 1.967 . S
Co136 O168 1.920 . S
Co137 O140 1.966 . S
Co137 N146 2.022 . S
Co137 N154 1.993 . S
Co137 O162 1.941 . S
C138 O139 1.258 . S
C138 O140 1.263 . S
O139 Co136 1.970 . S
O139 C138 1.258 . S
O140 Co137 1.966 . S
O140 C138 1.263 . S
C141 O142 1.235 . S
C141 O168 1.289 . S
O142 C141 1.235 . S
C143 C145 1.400 . S
C143 N146 1.351 1_554 S
C143 C148 1.501 1_554 S
C144 C145 1.387 . S
C144 N147 1.341 . S
C145 C143 1.400 . S
C145 C144 1.387 . S
N146 Co137 2.022 . S
N146 C143 1.351 1_556 S
N146 N147 1.365 1_556 S
N147 C144 1.341 . S
N147 N146 1.365 1_554 S
N147 H167 0.862 . S
C148 C143 1.501 1_556 S
C148 H149 0.961 . S
C148 H150 0.955 1_556 S
C148 H151 0.960 1_556 S
H149 C148 0.961 . S
H150 C148 0.955 1_554 S
H151 C148 0.960 1_554 S
C152 N153 1.342 . S
C152 C156 1.401 . S
C152 C157 1.499 . S
N153 Co136 1.989 . S
N153 C152 1.342 . S
N153 N154 1.388 . S
N154 Co137 1.993 . S
N154 N153 1.388 . S
N154 C155 1.346 . S
C155 N154 1.346 . S
C155 C156 1.396 . S
C155 C165 1.510 . S
C156 C152 1.401 . S
C156 C155 1.396 . S
C157 C152 1.499 . S
C157 H158 0.959 . S
C157 H159 0.960 . S
C157 H160 0.961 . S
H158 C157 0.959 . S
H159 C157 0.960 . S
H160 C157 0.961 . S
O161 Co136 1.967 . S
O161 C169 1.258 . S
O162 Co137 1.941 . S
O162 C169 1.266 . S
H163 C165 0.959 . S
H164 C165 0.961 . S
C165 C155 1.510 . S
C165 H163 0.959 . S
C165 H164 0.961 . S
C165 H166 0.960 . S
H166 C165 0.960 . S
H167 N147 0.862 . S
O168 Co136 1.920 . S
O168 C141 1.289 . S
C169 O161 1.258 . S
C169 O162 1.266 . S
Co170 O173 1.970 . S
Co170 N187 1.989 . S
Co170 O195 1.967 . S
Co170 O202 1.920 . S
Co171 O174 1.966 . S
Co171 N180 2.022 . S
Co171 N188 1.993 . S
Co171 O196 1.941 . S
C172 O173 1.258 . S
C172 O174 1.263 . S
O173 Co170 1.970 . S
O173 C172 1.258 . S
O174 Co171 1.966 . S
O174 C172 1.263 . S
C175 O176 1.235 . S
C175 O202 1.289 . S
O176 C175 1.235 . S
C177 C179 1.400 . S
C177 N180 1.351 . S
C177 C182 1.501 . S
C178 C179 1.387 . S
C178 N181 1.341 . S
C179 C177 1.400 . S
C179 C178 1.387 . S
N180 Co171 2.022 . S
N180 C177 1.351 . S
N180 N181 1.365 . S
N181 C178 1.341 . S
N181 N180 1.365 . S
N181 H201 0.862 . S
C182 C177 1.501 . S
C182 H183 0.961 . S
C182 H184 0.961 . S
C182 H185 0.960 . S
H183 C182 0.961 . S
H184 C182 0.961 . S
H185 C182 0.960 . S
C186 N187 1.342 . S
C186 C190 1.401 . S
C186 C191 1.499 . S
N187 Co170 1.989 . S
N187 C186 1.342 . S
N187 N188 1.388 . S
N188 Co171 1.993 . S
N188 N187 1.388 . S
N188 C189 1.346 . S
C189 N188 1.346 . S
C189 C190 1.396 . S
C189 C199 1.510 . S
C190 C186 1.401 . S
C190 C189 1.396 . S
C191 C186 1.499 . S
C191 H192 0.959 . S
C191 H193 0.960 . S
C191 H194 0.961 . S
H192 C191 0.959 . S
H193 C191 0.960 . S
H194 C191 0.961 . S
O195 Co170 1.967 . S
O195 C203 1.258 . S
O196 Co171 1.941 . S
O196 C203 1.266 . S
H197 C199 0.959 . S
H198 C199 0.961 . S
C199 C189 1.510 . S
C199 H197 0.959 . S
C199 H198 0.961 . S
C199 H200 0.960 . S
H200 C199 0.960 . S
H201 N181 0.862 . S
O202 Co170 1.920 . S
O202 C175 1.289 . S
C203 O195 1.258 . S
C203 O196 1.266 . S
Co204 O207 1.970 . S
Co204 N221 1.989 . S
Co204 O229 1.967 . S
Co204 O236 1.920 . S
Co205 O208 1.966 . S
Co205 N214 2.022 . S
Co205 N222 1.993 . S
Co205 O230 1.941 . S
C206 O207 1.258 . S
C206 O208 1.263 . S
O207 Co204 1.970 . S
O207 C206 1.258 . S
O208 Co205 1.966 . S
O208 C206 1.263 . S
C209 O210 1.235 . S
C209 O236 1.289 . S
O210 C209 1.235 . S
C211 C213 1.400 . S
C211 N214 1.351 . S
C211 C216 1.501 . S
C212 C213 1.387 . S
C212 N215 1.341 . S
C213 C211 1.400 . S
C213 C212 1.387 . S
N214 Co205 2.022 . S
N214 C211 1.351 . S
N214 N215 1.365 . S
N215 C212 1.341 . S
N215 N214 1.365 . S
N215 H235 0.862 . S
C216 C211 1.501 . S
C216 H217 0.961 . S
C216 H218 0.961 . S
C216 H219 0.960 . S
H217 C216 0.961 . S
H218 C216 0.961 . S
H219 C216 0.960 . S
C220 N221 1.342 . S
C220 C224 1.401 . S
C220 C225 1.499 . S
N221 Co204 1.989 . S
N221 C220 1.342 . S
N221 N222 1.388 . S
N222 Co205 1.993 . S
N222 N221 1.388 . S
N222 C223 1.346 . S
C223 N222 1.346 . S
C223 C224 1.396 . S
C223 C233 1.510 . S
C224 C220 1.401 . S
C224 C223 1.396 . S
C225 C220 1.499 . S
C225 H226 0.959 . S
C225 H227 0.960 . S
C225 H228 0.961 . S
H226 C225 0.959 . S
H227 C225 0.960 . S
H228 C225 0.961 . S
O229 Co204 1.967 . S
O229 C237 1.258 . S
O230 Co205 1.941 . S
O230 C237 1.266 . S
H231 C233 0.959 . S
H232 C233 0.961 . S
C233 C223 1.510 . S
C233 H231 0.959 . S
C233 H232 0.961 . S
C233 H234 0.960 . S
H234 C233 0.960 . S
H235 N215 0.862 . S
O236 Co204 1.920 . S
O236 C209 1.289 . S
C237 O229 1.258 . S
C237 O230 1.266 . S
Co238 O241 1.970 . S
Co238 N255 1.989 . S
Co238 O263 1.967 . S
Co238 O270 1.920 . S
Co239 O242 1.966 . S
Co239 N248 2.022 . S
Co239 N256 1.993 . S
Co239 O264 1.941 . S
C240 O241 1.258 . S
C240 O242 1.263 . S
O241 Co238 1.970 . S
O241 C240 1.258 . S
O242 Co239 1.966 . S
O242 C240 1.263 . S
C243 O244 1.235 . S
C243 O270 1.289 . S
O244 C243 1.235 . S
C245 C247 1.400 . S
C245 N248 1.351 . S
C245 C250 1.501 . S
C246 C247 1.387 . S
C246 N249 1.341 . S
C247 C245 1.400 . S
C247 C246 1.387 . S
N248 Co239 2.022 . S
N248 C245 1.351 . S
N248 N249 1.365 . S
N249 C246 1.341 . S
N249 N248 1.365 . S
N249 H269 0.862 . S
C250 C245 1.501 . S
C250 H251 0.961 . S
C250 H252 0.961 . S
C250 H253 0.960 . S
H251 C250 0.961 . S
H252 C250 0.961 . S
H253 C250 0.960 . S
C254 N255 1.342 . S
C254 C258 1.401 . S
C254 C259 1.499 . S
N255 Co238 1.989 . S
N255 C254 1.342 . S
N255 N256 1.388 . S
N256 Co239 1.993 . S
N256 N255 1.388 . S
N256 C257 1.346 . S
C257 N256 1.346 . S
C257 C258 1.396 . S
C257 C267 1.510 . S
C258 C254 1.401 . S
C258 C257 1.396 . S
C259 C254 1.499 . S
C259 H260 0.959 . S
C259 H261 0.960 . S
C259 H262 0.961 . S
H260 C259 0.959 . S
H261 C259 0.960 . S
H262 C259 0.961 . S
O263 Co238 1.967 . S
O263 C271 1.258 . S
O264 Co239 1.941 . S
O264 C271 1.266 . S
H265 C267 0.959 . S
H266 C267 0.961 . S
C267 C257 1.510 . S
C267 H265 0.959 . S
C267 H266 0.961 . S
C267 H268 0.960 . S
H268 C267 0.960 . S
H269 N249 0.862 . S
O270 Co238 1.920 . S
O270 C243 1.289 . S
C271 O263 1.258 . S
C271 O264 1.266 . S
Co272 O275 1.970 . S
Co272 N289 1.989 . S
Co272 O297 1.967 . S
Co272 O304 1.920 . S
Co273 O276 1.966 . S
Co273 N282 2.022 . S
Co273 N290 1.993 . S
Co273 O298 1.941 . S
C274 O275 1.258 . S
C274 O276 1.263 . S
O275 Co272 1.970 . S
O275 C274 1.258 . S
O276 Co273 1.966 . S
O276 C274 1.263 . S
C277 O278 1.235 . S
C277 O304 1.289 . S
O278 C277 1.235 . S
C279 C281 1.400 . S
C279 N282 1.351 . S
C279 C284 1.501 . S
C280 C281 1.387 . S
C280 N283 1.341 . S
C281 C279 1.400 . S
C281 C280 1.387 . S
N282 Co273 2.022 . S
N282 C279 1.351 . S
N282 N283 1.365 . S
N283 C280 1.341 . S
N283 N282 1.365 . S
N283 H303 0.862 . S
C284 C279 1.501 . S
C284 H285 0.961 . S
C284 H286 0.961 . S
C284 H287 0.960 . S
H285 C284 0.961 . S
H286 C284 0.961 . S
H287 C284 0.960 . S
C288 N289 1.342 . S
C288 C292 1.401 . S
C288 C293 1.499 . S
N289 Co272 1.989 . S
N289 C288 1.342 . S
N289 N290 1.388 . S
N290 Co273 1.993 . S
N290 N289 1.388 . S
N290 C291 1.346 . S
C291 N290 1.346 . S
C291 C292 1.396 . S
C291 C301 1.510 . S
C292 C288 1.401 . S
C292 C291 1.396 . S
C293 C288 1.499 . S
C293 H294 0.959 . S
C293 H295 0.960 . S
C293 H296 0.961 . S
H294 C293 0.959 . S
H295 C293 0.960 . S
H296 C293 0.961 . S
O297 Co272 1.967 . S
O297 C305 1.258 . S
O298 Co273 1.941 . S
O298 C305 1.266 . S
H299 C301 0.959 . S
H300 C301 0.961 . S
C301 C291 1.510 . S
C301 H299 0.959 . S
C301 H300 0.961 . S
C301 H302 0.960 . S
H302 C301 0.960 . S
H303 N283 0.862 . S
O304 Co272 1.920 . S
O304 C277 1.289 . S
C305 O297 1.258 . S
C305 O298 1.266 . S
Co306 O309 1.970 . S
Co306 N323 1.989 . S
Co306 O331 1.967 . S
Co306 O338 1.920 . S
Co307 O310 1.966 . S
Co307 N316 2.022 . S
Co307 N324 1.993 . S
Co307 O332 1.941 . S
C308 O309 1.258 . S
C308 O310 1.263 . S
O309 Co306 1.970 . S
O309 C308 1.258 . S
O310 Co307 1.966 . S
O310 C308 1.263 . S
C311 O312 1.235 . S
C311 O338 1.289 . S
O312 C311 1.235 . S
C313 C315 1.400 . S
C313 N316 1.351 1_556 S
C313 C318 1.501 1_556 S
C314 C315 1.387 . S
C314 N317 1.341 . S
C315 C313 1.400 . S
C315 C314 1.387 . S
N316 Co307 2.022 . S
N316 C313 1.351 1_554 S
N316 N317 1.365 1_554 S
N317 C314 1.341 . S
N317 N316 1.365 1_556 S
N317 H337 0.862 . S
C318 C313 1.501 1_554 S
C318 H319 0.961 . S
C318 H320 0.955 1_554 S
C318 H321 0.960 1_554 S
H319 C318 0.961 . S
H320 C318 0.955 1_556 S
H321 C318 0.960 1_556 S
C322 N323 1.342 . S
C322 C326 1.401 . S
C322 C327 1.499 . S
N323 Co306 1.989 . S
N323 C322 1.342 . S
N323 N324 1.388 . S
N324 Co307 1.993 . S
N324 N323 1.388 . S
N324 C325 1.346 . S
C325 N324 1.346 . S
C325 C326 1.396 . S
C325 C335 1.510 . S
C326 C322 1.401 . S
C326 C325 1.396 . S
C327 C322 1.499 . S
C327 H328 0.959 . S
C327 H329 0.960 . S
C327 H330 0.961 . S
H328 C327 0.959 . S
H329 C327 0.960 . S
H330 C327 0.961 . S
O331 Co306 1.967 . S
O331 C339 1.258 . S
O332 Co307 1.941 . S
O332 C339 1.266 . S
H333 C335 0.959 . S
H334 C335 0.961 . S
C335 C325 1.510 . S
C335 H333 0.959 . S
C335 H334 0.961 . S
C335 H336 0.960 . S
H336 C335 0.960 . S
H337 N317 0.862 . S
O338 Co306 1.920 . S
O338 C311 1.289 . S
C339 O331 1.258 . S
C339 O332 1.266 . S
Co340 O343 1.970 . S
Co340 N357 1.989 . S
Co340 O365 1.967 . S
Co340 O372 1.920 . S
Co341 O344 1.966 . S
Co341 N350 2.022 . S
Co341 N358 1.993 . S
Co341 O366 1.941 . S
C342 O343 1.258 . S
C342 O344 1.263 . S
O343 Co340 1.970 . S
O343 C342 1.258 . S
O344 Co341 1.966 . S
O344 C342 1.263 . S
C345 O346 1.235 . S
C345 O372 1.289 . S
O346 C345 1.235 . S
C347 C349 1.400 . S
C347 N350 1.351 . S
C347 C352 1.501 . S
C348 C349 1.387 . S
C348 N351 1.341 . S
C349 C347 1.400 . S
C349 C348 1.387 . S
N350 Co341 2.022 . S
N350 C347 1.351 . S
N350 N351 1.365 . S
N351 C348 1.341 . S
N351 N350 1.365 . S
N351 H371 0.862 . S
C352 C347 1.501 . S
C352 H353 0.961 . S
C352 H354 0.961 . S
C352 H355 0.960 . S
H353 C352 0.961 . S
H354 C352 0.961 . S
H355 C352 0.960 . S
C356 N357 1.342 . S
C356 C360 1.401 . S
C356 C361 1.499 . S
N357 Co340 1.989 . S
N357 C356 1.342 . S
N357 N358 1.388 . S
N358 Co341 1.993 . S
N358 N357 1.388 . S
N358 C359 1.346 . S
C359 N358 1.346 . S
C359 C360 1.396 . S
C359 C369 1.510 . S
C360 C356 1.401 . S
C360 C359 1.396 . S
C361 C356 1.499 . S
C361 H362 0.959 . S
C361 H363 0.960 . S
C361 H364 0.961 . S
H362 C361 0.959 . S
H363 C361 0.960 . S
H364 C361 0.961 . S
O365 Co340 1.967 . S
O365 C373 1.258 . S
O366 Co341 1.941 . S
O366 C373 1.266 . S
H367 C369 0.959 . S
H368 C369 0.961 . S
C369 C359 1.510 . S
C369 H367 0.959 . S
C369 H368 0.961 . S
C369 H370 0.960 . S
H370 C369 0.960 . S
H371 N351 0.862 . S
O372 Co340 1.920 . S
O372 C345 1.289 . S
C373 O365 1.258 . S
C373 O366 1.266 . S
Co374 O377 1.970 . S
Co374 N391 1.989 . S
Co374 O399 1.967 . S
Co374 O406 1.920 . S
Co375 O378 1.966 . S
Co375 N384 2.022 . S
Co375 N392 1.993 . S
Co375 O400 1.941 . S
C376 O377 1.258 . S
C376 O378 1.263 . S
O377 Co374 1.970 . S
O377 C376 1.258 . S
O378 Co375 1.966 . S
O378 C376 1.263 . S
C379 O380 1.235 . S
C379 O406 1.289 . S
O380 C379 1.235 . S
C381 C383 1.400 . S
C381 N384 1.351 . S
C381 C386 1.501 . S
C382 C383 1.387 . S
C382 N385 1.341 . S
C383 C381 1.400 . S
C383 C382 1.387 . S
N384 Co375 2.022 . S
N384 C381 1.351 . S
N384 N385 1.365 . S
N385 C382 1.341 . S
N385 N384 1.365 . S
N385 H405 0.862 . S
C386 C381 1.501 . S
C386 H387 0.961 . S
C386 H388 0.961 . S
C386 H389 0.960 . S
H387 C386 0.961 . S
H388 C386 0.961 . S
H389 C386 0.960 . S
C390 N391 1.342 . S
C390 C394 1.401 . S
C390 C395 1.499 . S
N391 Co374 1.989 . S
N391 C390 1.342 . S
N391 N392 1.388 . S
N392 Co375 1.993 . S
N392 N391 1.388 . S
N392 C393 1.346 . S
C393 N392 1.346 . S
C393 C394 1.396 . S
C393 C403 1.510 . S
C394 C390 1.401 . S
C394 C393 1.396 . S
C395 C390 1.499 . S
C395 H396 0.959 . S
C395 H397 0.960 . S
C395 H398 0.961 . S
H396 C395 0.959 . S
H397 C395 0.960 . S
H398 C395 0.961 . S
O399 Co374 1.967 . S
O399 C407 1.258 . S
O400 Co375 1.941 . S
O400 C407 1.266 . S
H401 C403 0.959 . S
H402 C403 0.961 . S
C403 C393 1.510 . S
C403 H401 0.959 . S
C403 H402 0.961 . S
C403 H404 0.960 . S
H404 C403 0.960 . S
H405 N385 0.862 . S
O406 Co374 1.920 . S
O406 C379 1.289 . S
C407 O399 1.258 . S
C407 O400 1.266 . S
Co408 O411 1.970 . S
Co408 N425 1.989 . S
Co408 O433 1.967 . S
Co408 O440 1.920 . S
Co409 O412 1.966 . S
Co409 N418 2.022 . S
Co409 N426 1.993 . S
Co409 O434 1.941 . S
C410 O411 1.258 . S
C410 O412 1.263 . S
O411 Co408 1.970 . S
O411 C410 1.258 . S
O412 Co409 1.966 . S
O412 C410 1.263 . S
C413 O414 1.235 . S
C413 O440 1.289 . S
O414 C413 1.235 . S
C415 C417 1.400 . S
C415 N418 1.351 . S
C415 C420 1.501 . S
C416 C417 1.387 . S
C416 N419 1.341 . S
C417 C415 1.400 . S
C417 C416 1.387 . S
N418 Co409 2.022 . S
N418 C415 1.351 . S
N418 N419 1.365 . S
N419 C416 1.341 . S
N419 N418 1.365 . S
N419 H439 0.862 . S
C420 C415 1.501 . S
C420 H421 0.961 . S
C420 H422 0.961 . S
C420 H423 0.960 . S
H421 C420 0.961 . S
H422 C420 0.961 . S
H423 C420 0.960 . S
C424 N425 1.342 . S
C424 C428 1.401 . S
C424 C429 1.499 . S
N425 Co408 1.989 . S
N425 C424 1.342 . S
N425 N426 1.388 . S
N426 Co409 1.993 . S
N426 N425 1.388 . S
N426 C427 1.346 . S
C427 N426 1.346 . S
C427 C428 1.396 . S
C427 C437 1.510 . S
C428 C424 1.401 . S
C428 C427 1.396 . S
C429 C424 1.499 . S
C429 H430 0.959 . S
C429 H431 0.960 . S
C429 H432 0.961 . S
H430 C429 0.959 . S
H431 C429 0.960 . S
H432 C429 0.961 . S
O433 Co408 1.967 . S
O433 C441 1.258 . S
O434 Co409 1.941 . S
O434 C441 1.266 . S
H435 C437 0.959 . S
H436 C437 0.961 . S
C437 C427 1.510 . S
C437 H435 0.959 . S
C437 H436 0.961 . S
C437 H438 0.960 . S
H438 C437 0.960 . S
H439 N419 0.862 . S
O440 Co408 1.920 . S
O440 C413 1.289 . S
C441 O433 1.258 . S
C441 O434 1.266 . S
Co442 O445 1.970 . S
Co442 N459 1.989 . S
Co442 O467 1.967 . S
Co442 O474 1.920 . S
Co443 O446 1.966 . S
Co443 N452 2.022 . S
Co443 N460 1.993 . S
Co443 O468 1.941 . S
C444 O445 1.258 . S
C444 O446 1.263 . S
O445 Co442 1.970 . S
O445 C444 1.258 . S
O446 Co443 1.966 . S
O446 C444 1.263 . S
C447 O448 1.235 . S
C447 O474 1.289 . S
O448 C447 1.235 . S
C449 C451 1.400 . S
C449 N452 1.351 . S
C449 C454 1.501 . S
C450 C451 1.387 . S
C450 N453 1.341 . S
C451 C449 1.400 . S
C451 C450 1.387 . S
N452 Co443 2.022 . S
N452 C449 1.351 . S
N452 N453 1.365 . S
N453 C450 1.341 . S
N453 N452 1.365 . S
N453 H473 0.862 . S
C454 C449 1.501 . S
C454 H455 0.961 . S
C454 H456 0.961 . S
C454 H457 0.960 . S
H455 C454 0.961 . S
H456 C454 0.961 . S
H457 C454 0.960 . S
C458 N459 1.342 . S
C458 C462 1.401 . S
C458 C463 1.499 . S
N459 Co442 1.989 . S
N459 C458 1.342 . S
N459 N460 1.388 . S
N460 Co443 1.993 . S
N460 N459 1.388 . S
N460 C461 1.346 . S
C461 N460 1.346 . S
C461 C462 1.396 . S
C461 C471 1.510 . S
C462 C458 1.401 . S
C462 C461 1.396 . S
C463 C458 1.499 . S
C463 H464 0.959 . S
C463 H465 0.960 . S
C463 H466 0.961 . S
H464 C463 0.959 . S
H465 C463 0.960 . S
H466 C463 0.961 . S
O467 Co442 1.967 . S
O467 C475 1.258 . S
O468 Co443 1.941 . S
O468 C475 1.266 . S
H469 C471 0.959 . S
H470 C471 0.961 . S
C471 C461 1.510 . S
C471 H469 0.959 . S
C471 H470 0.961 . S
C471 H472 0.960 . S
H472 C471 0.960 . S
H473 N453 0.862 . S
O474 Co442 1.920 . S
O474 C447 1.289 . S
C475 O467 1.258 . S
C475 O468 1.266 . S
Co476 O479 1.970 . S
Co476 N493 1.989 . S
Co476 O501 1.967 . S
Co476 O508 1.920 . S
Co477 O480 1.966 . S
Co477 N486 2.022 . S
Co477 N494 1.993 . S
Co477 O502 1.941 . S
C478 O479 1.258 . S
C478 O480 1.263 . S
O479 Co476 1.970 . S
O479 C478 1.258 . S
O480 Co477 1.966 . S
O480 C478 1.263 . S
C481 O482 1.235 . S
C481 O508 1.289 . S
O482 C481 1.235 . S
C483 C485 1.400 . S
C483 N486 1.351 1_554 S
C483 C488 1.501 1_554 S
C484 C485 1.387 . S
C484 N487 1.341 . S
C485 C483 1.400 . S
C485 C484 1.387 . S
N486 Co477 2.022 . S
N486 C483 1.351 1_556 S
N486 N487 1.365 1_556 S
N487 C484 1.341 . S
N487 N486 1.365 1_554 S
N487 H507 0.862 . S
C488 C483 1.501 1_556 S
C488 H489 0.961 . S
C488 H490 0.955 1_556 S
C488 H491 0.960 1_556 S
H489 C488 0.961 . S
H490 C488 0.955 1_554 S
H491 C488 0.960 1_554 S
C492 N493 1.342 . S
C492 C496 1.401 . S
C492 C497 1.499 . S
N493 Co476 1.989 . S
N493 C492 1.342 . S
N493 N494 1.388 . S
N494 Co477 1.993 . S
N494 N493 1.388 . S
N494 C495 1.346 . S
C495 N494 1.346 . S
C495 C496 1.396 . S
C495 C505 1.510 . S
C496 C492 1.401 . S
C496 C495 1.396 . S
C497 C492 1.499 . S
C497 H498 0.959 . S
C497 H499 0.960 . S
C497 H500 0.961 . S
H498 C497 0.959 . S
H499 C497 0.960 . S
H500 C497 0.961 . S
O501 Co476 1.967 . S
O501 C509 1.258 . S
O502 Co477 1.941 . S
O502 C509 1.266 . S
H503 C505 0.959 . S
H504 C505 0.961 . S
C505 C495 1.510 . S
C505 H503 0.959 . S
C505 H504 0.961 . S
C505 H506 0.960 . S
H506 C505 0.960 . S
H507 N487 0.862 . S
O508 Co476 1.920 . S
O508 C481 1.289 . S
C509 O501 1.258 . S
C509 O502 1.266 . S
Co510 O513 1.970 . S
Co510 N527 1.989 . S
Co510 O535 1.967 . S
Co510 O542 1.920 . S
Co511 O514 1.966 . S
Co511 N520 2.022 . S
Co511 N528 1.993 . S
Co511 O536 1.941 . S
C512 O513 1.258 . S
C512 O514 1.263 . S
O513 Co510 1.970 . S
O513 C512 1.258 . S
O514 Co511 1.966 . S
O514 C512 1.263 . S
C515 O516 1.235 . S
C515 O542 1.289 . S
O516 C515 1.235 . S
C517 C519 1.400 . S
C517 N520 1.351 . S
C517 C522 1.501 . S
C518 C519 1.387 . S
C518 N521 1.341 . S
C519 C517 1.400 . S
C519 C518 1.387 . S
N520 Co511 2.022 . S
N520 C517 1.351 . S
N520 N521 1.365 . S
N521 C518 1.341 . S
N521 N520 1.365 . S
N521 H541 0.862 . S
C522 C517 1.501 . S
C522 H523 0.961 . S
C522 H524 0.961 . S
C522 H525 0.960 . S
H523 C522 0.961 . S
H524 C522 0.961 . S
H525 C522 0.960 . S
C526 N527 1.342 . S
C526 C530 1.401 . S
C526 C531 1.499 . S
N527 Co510 1.989 . S
N527 C526 1.342 . S
N527 N528 1.388 . S
N528 Co511 1.993 . S
N528 N527 1.388 . S
N528 C529 1.346 . S
C529 N528 1.346 . S
C529 C530 1.396 . S
C529 C539 1.510 . S
C530 C526 1.401 . S
C530 C529 1.396 . S
C531 C526 1.499 . S
C531 H532 0.959 . S
C531 H533 0.960 . S
C531 H534 0.961 . S
H532 C531 0.959 . S
H533 C531 0.960 . S
H534 C531 0.961 . S
O535 Co510 1.967 . S
O535 C543 1.258 . S
O536 Co511 1.941 . S
O536 C543 1.266 . S
H537 C539 0.959 . S
H538 C539 0.961 . S
C539 C529 1.510 . S
C539 H537 0.959 . S
C539 H538 0.961 . S
C539 H540 0.960 . S
H540 C539 0.960 . S
H541 N521 0.862 . S
O542 Co510 1.920 . S
O542 C515 1.289 . S
C543 O535 1.258 . S
C543 O536 1.266 . S
H544 C550 0.930 . S
H545 C553 0.930 . S
H546 C554 0.930 . S
H547 C555 0.930 . S
H548 C558 0.930 . S
H549 C559 0.930 . S
C550 H544 0.930 . S
C550 C551 1.355 . S
C550 C552 1.415 . S
C551 C550 1.355 . S
C551 C553 1.419 . S
C552 C550 1.415 . S
C552 C557 1.425 . S
C552 C559 1.409 . S
C553 H545 0.930 . S
C553 C551 1.419 . S
C553 C554 1.362 . S
C554 H546 0.930 . S
C554 C553 1.362 . S
C554 C557 1.409 . S
C555 H547 0.930 . S
C555 C556 1.355 . S
C555 C557 1.415 . S
C556 C555 1.355 . S
C556 C558 1.419 . S
C557 C552 1.425 . S
C557 C554 1.409 . S
C557 C555 1.415 . S
C558 H548 0.930 . S
C558 C556 1.419 . S
C558 C559 1.362 . S
C559 H549 0.930 . S
C559 C552 1.409 . S
C559 C558 1.362 . S
H560 C566 0.930 . S
H561 C569 0.930 . S
H562 C570 0.930 . S
H563 C571 0.930 . S
H564 C574 0.930 . S
H565 C575 0.930 . S
C566 H560 0.930 . S
C566 C567 1.355 . S
C566 C568 1.415 . S
C567 C566 1.355 . S
C567 C569 1.419 . S
C568 C566 1.415 . S
C568 C573 1.425 . S
C568 C575 1.409 . S
C569 H561 0.930 . S
C569 C567 1.419 . S
C569 C570 1.362 . S
C570 H562 0.930 . S
C570 C569 1.362 . S
C570 C573 1.409 . S
C571 H563 0.930 . S
C571 C572 1.355 . S
C571 C573 1.415 . S
C572 C571 1.355 . S
C572 C574 1.419 . S
C573 C568 1.425 . S
C573 C570 1.409 . S
C573 C571 1.415 . S
C574 H564 0.930 . S
C574 C572 1.419 . S
C574 C575 1.362 . S
C575 H565 0.930 . S
C575 C568 1.409 . S
C575 C574 1.362 . S
H576 C582 0.930 . S
H577 C585 0.930 . S
H578 C586 0.930 . S
H579 C587 0.930 . S
H580 C590 0.930 . S
H581 C591 0.930 . S
C582 H576 0.930 . S
C582 C583 1.355 . S
C582 C584 1.415 . S
C583 C582 1.355 . S
C583 C585 1.419 . S
C584 C582 1.415 . S
C584 C589 1.425 1_554 S
C584 C591 1.409 1_554 S
C585 H577 0.930 . S
C585 C583 1.419 . S
C585 C586 1.362 . S
C586 H578 0.930 . S
C586 C585 1.362 . S
C586 C589 1.409 1_554 S
C587 H579 0.930 . S
C587 C588 1.355 . S
C587 C589 1.415 . S
C588 C587 1.355 . S
C588 C590 1.419 . S
C589 C584 1.425 1_556 S
C589 C586 1.409 1_556 S
C589 C587 1.415 . S
C590 H580 0.930 . S
C590 C588 1.419 . S
C590 C591 1.362 . S
C591 H581 0.930 . S
C591 C584 1.409 1_556 S
C591 C590 1.362 . S
H592 C598 0.930 . S
H593 C601 0.930 . S
H594 C602 0.930 . S
H595 C603 0.930 . S
H596 C606 0.930 . S
H597 C607 0.930 . S
C598 H592 0.930 . S
C598 C599 1.355 . S
C598 C600 1.415 . S
C599 C598 1.355 . S
C599 C601 1.419 . S
C600 C598 1.415 . S
C600 C605 1.425 . S
C600 C607 1.409 . S
C601 H593 0.930 . S
C601 C599 1.419 . S
C601 C602 1.362 . S
C602 H594 0.930 . S
C602 C601 1.362 . S
C602 C605 1.409 . S
C603 H595 0.930 . S
C603 C604 1.355 . S
C603 C605 1.415 . S
C604 C603 1.355 . S
C604 C606 1.419 . S
C605 C600 1.425 . S
C605 C602 1.409 . S
C605 C603 1.415 . S
C606 H596 0.930 . S
C606 C604 1.419 . S
C606 C607 1.362 . S
C607 H597 0.930 . S
C607 C600 1.409 . S
C607 C606 1.362 . S
H608 C614 0.930 . S
H609 C617 0.930 . S
H610 C618 0.930 . S
H611 C619 0.930 . S
H612 C622 0.930 . S
H613 C623 0.930 . S
C614 H608 0.930 . S
C614 C615 1.355 . S
C614 C616 1.415 . S
C615 C614 1.355 . S
C615 C617 1.419 . S
C616 C614 1.415 . S
C616 C621 1.425 . S
C616 C623 1.409 . S
C617 H609 0.930 . S
C617 C615 1.419 . S
C617 C618 1.362 . S
C618 H610 0.930 . S
C618 C617 1.362 . S
C618 C621 1.409 . S
C619 H611 0.930 . S
C619 C620 1.355 . S
C619 C621 1.415 . S
C620 C619 1.355 . S
C620 C622 1.419 . S
C621 C616 1.425 . S
C621 C618 1.409 . S
C621 C619 1.415 . S
C622 H612 0.930 . S
C622 C620 1.419 . S
C622 C623 1.362 . S
C623 H613 0.930 . S
C623 C616 1.409 . S
C623 C622 1.362 . S
H624 C630 0.930 . S
H625 C633 0.930 . S
H626 C634 0.930 . S
H627 C635 0.930 . S
H628 C638 0.930 . S
H629 C639 0.930 . S
C630 H624 0.930 . S
C630 C631 1.355 . S
C630 C632 1.415 . S
C631 C630 1.355 . S
C631 C633 1.419 . S
C632 C630 1.415 . S
C632 C637 1.425 1_556 S
C632 C639 1.409 1_556 S
C633 H625 0.930 . S
C633 C631 1.419 . S
C633 C634 1.362 . S
C634 H626 0.930 . S
C634 C633 1.362 . S
C634 C637 1.409 1_556 S
C635 H627 0.930 . S
C635 C636 1.355 . S
C635 C637 1.415 . S
C636 C635 1.355 . S
C636 C638 1.419 . S
C637 C632 1.425 1_554 S
C637 C634 1.409 1_554 S
C637 C635 1.415 . S
C638 H628 0.930 . S
C638 C636 1.419 . S
C638 C639 1.362 . S
C639 H629 0.930 . S
C639 C632 1.409 1_554 S
C639 C638 1.362 . S
H640 C646 0.930 . S
H641 C649 0.930 . S
H642 C650 0.930 . S
H643 C651 0.930 . S
H644 C654 0.930 . S
H645 C655 0.930 . S
C646 H640 0.930 . S
C646 C647 1.355 . S
C646 C648 1.415 . S
C647 C646 1.355 . S
C647 C649 1.419 . S
C648 C646 1.415 . S
C648 C653 1.425 . S
C648 C655 1.409 . S
C649 H641 0.930 . S
C649 C647 1.419 . S
C649 C650 1.362 . S
C650 H642 0.930 . S
C650 C649 1.362 . S
C650 C653 1.409 . S
C651 H643 0.930 . S
C651 C652 1.355 . S
C651 C653 1.415 . S
C652 C651 1.355 . S
C652 C654 1.419 . S
C653 C648 1.425 . S
C653 C650 1.409 . S
C653 C651 1.415 . S
C654 H644 0.930 . S
C654 C652 1.419 . S
C654 C655 1.362 . S
C655 H645 0.930 . S
C655 C648 1.409 . S
C655 C654 1.362 . S
H656 C662 0.930 . S
H657 C665 0.930 . S
H658 C666 0.930 . S
H659 C667 0.930 . S
H660 C670 0.930 . S
H661 C671 0.930 . S
C662 H656 0.930 . S
C662 C663 1.355 . S
C662 C664 1.415 . S
C663 C662 1.355 . S
C663 C665 1.419 . S
C664 C662 1.415 . S
C664 C669 1.425 . S
C664 C671 1.409 . S
C665 H657 0.930 . S
C665 C663 1.419 . S
C665 C666 1.362 . S
C666 H658 0.930 . S
C666 C665 1.362 . S
C666 C669 1.409 . S
C667 H659 0.930 . S
C667 C668 1.355 . S
C667 C669 1.415 . S
C668 C667 1.355 . S
C668 C670 1.419 . S
C669 C664 1.425 . S
C669 C666 1.409 . S
C669 C667 1.415 . S
C670 H660 0.930 . S
C670 C668 1.419 . S
C670 C671 1.362 . S
C671 H661 0.930 . S
C671 C664 1.409 . S
C671 C670 1.362 . S
H672 C678 0.930 . S
H673 C681 0.930 . S
H674 C682 0.930 . S
H675 C683 0.930 . S
H676 C686 0.930 . S
H677 C687 0.930 . S
C678 H672 0.930 . S
C678 C679 1.355 . S
C678 C680 1.415 . S
C679 C678 1.355 . S
C679 C681 1.419 . S
C680 C678 1.415 . S
C680 C685 1.425 . S
C680 C687 1.409 . S
C681 H673 0.930 . S
C681 C679 1.419 . S
C681 C682 1.362 . S
C682 H674 0.930 . S
C682 C681 1.362 . S
C682 C685 1.409 . S
C683 H675 0.930 . S
C683 C684 1.355 . S
C683 C685 1.415 . S
C684 C683 1.355 . S
C684 C686 1.419 . S
C685 C680 1.425 . S
C685 C682 1.409 . S
C685 C683 1.415 . S
C686 H676 0.930 . S
C686 C684 1.419 . S
C686 C687 1.362 . S
C687 H677 0.930 . S
C687 C680 1.409 . S
C687 C686 1.362 . S
H688 C694 0.930 . S
H689 C697 0.930 . S
H690 C698 0.930 . S
H691 C699 0.930 . S
H692 C702 0.930 . S
H693 C703 0.930 . S
C694 H688 0.930 . S
C694 C695 1.355 . S
C694 C696 1.415 . S
C695 C694 1.355 . S
C695 C697 1.419 . S
C696 C694 1.415 . S
C696 C701 1.425 . S
C696 C703 1.409 . S
C697 H689 0.930 . S
C697 C695 1.419 . S
C697 C698 1.362 . S
C698 H690 0.930 . S
C698 C697 1.362 . S
C698 C701 1.409 . S
C699 H691 0.930 . S
C699 C700 1.355 . S
C699 C701 1.415 . S
C700 C699 1.355 . S
C700 C702 1.419 . S
C701 C696 1.425 . S
C701 C698 1.409 . S
C701 C699 1.415 . S
C702 H692 0.930 . S
C702 C700 1.419 . S
C702 C703 1.362 . S
C703 H693 0.930 . S
C703 C696 1.409 . S
C703 C702 1.362 . S
H704 C710 0.930 . S
H705 C713 0.930 . S
H706 C714 0.930 . S
H707 C715 0.930 . S
H708 C718 0.930 . S
H709 C719 0.930 . S
C710 H704 0.930 . S
C710 C711 1.355 . S
C710 C712 1.415 . S
C711 C710 1.355 . S
C711 C713 1.419 . S
C712 C710 1.415 . S
C712 C717 1.425 . S
C712 C719 1.409 . S
C713 H705 0.930 . S
C713 C711 1.419 . S
C713 C714 1.362 . S
C714 H706 0.930 . S
C714 C713 1.362 . S
C714 C717 1.409 . S
C715 H707 0.930 . S
C715 C716 1.355 . S
C715 C717 1.415 . S
C716 C715 1.355 . S
C716 C718 1.419 . S
C717 C712 1.425 . S
C717 C714 1.409 . S
C717 C715 1.415 . S
C718 H708 0.930 . S
C718 C716 1.419 . S
C718 C719 1.362 . S
C719 H709 0.930 . S
C719 C712 1.409 . S
C719 C718 1.362 . S
H720 C726 0.930 . S
H721 C729 0.930 . S
H722 C730 0.930 . S
H723 C731 0.930 . S
H724 C734 0.930 . S
H725 C735 0.930 . S
C726 H720 0.930 . S
C726 C727 1.355 . S
C726 C728 1.415 . S
C727 C726 1.355 . S
C727 C729 1.419 . S
C728 C726 1.415 . S
C728 C733 1.425 . S
C728 C735 1.409 . S
C729 H721 0.930 . S
C729 C727 1.419 . S
C729 C730 1.362 . S
C730 H722 0.930 . S
C730 C729 1.362 . S
C730 C733 1.409 . S
C731 H723 0.930 . S
C731 C732 1.355 . S
C731 C733 1.415 . S
C732 C731 1.355 . S
C732 C734 1.419 . S
C733 C728 1.425 . S
C733 C730 1.409 . S
C733 C731 1.415 . S
C734 H724 0.930 . S
C734 C732 1.419 . S
C734 C735 1.362 . S
C735 H725 0.930 . S
C735 C728 1.409 . S
C735 C734 1.362 . S
H736 C742 0.930 . S
H737 C745 0.930 . S
H738 C746 0.930 . S
H739 C747 0.930 . S
H740 C750 0.930 . S
H741 C751 0.930 . S
C742 H736 0.930 . S
C742 C743 1.355 . S
C742 C744 1.415 . S
C743 C742 1.355 . S
C743 C745 1.419 . S
C744 C742 1.415 . S
C744 C749 1.425 . S
C744 C751 1.409 . S
C745 H737 0.930 . S
C745 C743 1.419 . S
C745 C746 1.362 . S
C746 H738 0.930 . S
C746 C745 1.362 . S
C746 C749 1.409 . S
C747 H739 0.930 . S
C747 C748 1.355 . S
C747 C749 1.415 . S
C748 C747 1.355 . S
C748 C750 1.419 . S
C749 C744 1.425 . S
C749 C746 1.409 . S
C749 C747 1.415 . S
C750 H740 0.930 . S
C750 C748 1.419 . S
C750 C751 1.362 . S
C751 H741 0.930 . S
C751 C744 1.409 . S
C751 C750 1.362 . S
H752 C758 0.930 . S
H753 C761 0.930 . S
H754 C762 0.930 . S
H755 C763 0.930 . S
H756 C766 0.930 . S
H757 C767 0.930 . S
C758 H752 0.930 . S
C758 C759 1.355 . S
C758 C760 1.415 . S
C759 C758 1.355 . S
C759 C761 1.419 . S
C760 C758 1.415 . S
C760 C765 1.425 . S
C760 C767 1.409 . S
C761 H753 0.930 . S
C761 C759 1.419 . S
C761 C762 1.362 . S
C762 H754 0.930 . S
C762 C761 1.362 . S
C762 C765 1.409 . S
C763 H755 0.930 . S
C763 C764 1.355 . S
C763 C765 1.415 . S
C764 C763 1.355 . S
C764 C766 1.419 . S
C765 C760 1.425 . S
C765 C762 1.409 . S
C765 C763 1.415 . S
C766 H756 0.930 . S
C766 C764 1.419 . S
C766 C767 1.362 . S
C767 H757 0.930 . S
C767 C760 1.409 . S
C767 C766 1.362 . S
H768 C774 0.930 . S
H769 C777 0.930 . S
H770 C778 0.930 . S
H771 C779 0.930 . S
H772 C782 0.930 . S
H773 C783 0.930 . S
C774 H768 0.930 . S
C774 C775 1.355 . S
C774 C776 1.415 . S
C775 C774 1.355 . S
C775 C777 1.419 . S
C776 C774 1.415 . S
C776 C781 1.425 . S
C776 C783 1.409 . S
C777 H769 0.930 . S
C777 C775 1.419 . S
C777 C778 1.362 . S
C778 H770 0.930 . S
C778 C777 1.362 . S
C778 C781 1.409 . S
C779 H771 0.930 . S
C779 C780 1.355 . S
C779 C781 1.415 . S
C780 C779 1.355 . S
C780 C782 1.419 . S
C781 C776 1.425 . S
C781 C778 1.409 . S
C781 C779 1.415 . S
C782 H772 0.930 . S
C782 C780 1.419 . S
C782 C783 1.362 . S
C783 H773 0.930 . S
C783 C776 1.409 . S
C783 C782 1.362 . S
H784 C790 0.930 . S
H785 C793 0.930 . S
H786 C794 0.930 . S
H787 C795 0.930 . S
H788 C798 0.930 . S
H789 C799 0.930 . S
C790 H784 0.930 . S
C790 C791 1.355 . S
C790 C792 1.415 . S
C791 C790 1.355 . S
C791 C793 1.419 . S
C792 C790 1.415 . S
C792 C797 1.425 . S
C792 C799 1.409 . S
C793 H785 0.930 . S
C793 C791 1.419 . S
C793 C794 1.362 . S
C794 H786 0.930 . S
C794 C793 1.362 . S
C794 C797 1.409 . S
C795 H787 0.930 . S
C795 C796 1.355 . S
C795 C797 1.415 . S
C796 C795 1.355 . S
C796 C798 1.419 . S
C797 C792 1.425 . S
C797 C794 1.409 . S
C797 C795 1.415 . S
C798 H788 0.930 . S
C798 C796 1.419 . S
C798 C799 1.362 . S
C799 H789 0.930 . S
C799 C792 1.409 . S
C799 C798 1.362 . S
H800 C806 0.930 . S
H801 C809 0.930 . S
H802 C810 0.930 . S
H803 C811 0.930 . S
H804 C814 0.930 . S
H805 C815 0.930 . S
C806 H800 0.930 . S
C806 C807 1.355 . S
C806 C808 1.415 . S
C807 C806 1.355 . S
C807 C809 1.419 . S
C808 C806 1.415 . S
C808 C813 1.425 . S
C808 C815 1.409 . S
C809 H801 0.930 . S
C809 C807 1.419 . S
C809 C810 1.362 . S
C810 H802 0.930 . S
C810 C809 1.362 . S
C810 C813 1.409 . S
C811 H803 0.930 . S
C811 C812 1.355 . S
C811 C813 1.415 . S
C812 C811 1.355 . S
C812 C814 1.419 . S
C813 C808 1.425 . S
C813 C810 1.409 . S
C813 C811 1.415 . S
C814 H804 0.930 . S
C814 C812 1.419 . S
C814 C815 1.362 . S
C815 H805 0.930 . S
C815 C808 1.409 . S
C815 C814 1.362 . S
H816 C822 0.930 . S
H817 C825 0.930 . S
H818 C826 0.930 . S
H819 C827 0.930 . S
H820 C830 0.930 . S
H821 C831 0.930 . S
C822 H816 0.930 . S
C822 C823 1.355 . S
C822 C824 1.415 . S
C823 C822 1.355 . S
C823 C825 1.419 . S
C824 C822 1.415 . S
C824 C829 1.425 . S
C824 C831 1.409 . S
C825 H817 0.930 . S
C825 C823 1.419 . S
C825 C826 1.362 . S
C826 H818 0.930 . S
C826 C825 1.362 . S
C826 C829 1.409 . S
C827 H819 0.930 . S
C827 C828 1.355 . S
C827 C829 1.415 . S
C828 C827 1.355 . S
C828 C830 1.419 . S
C829 C824 1.425 . S
C829 C826 1.409 . S
C829 C827 1.415 . S
C830 H820 0.930 . S
C830 C828 1.419 . S
C830 C831 1.362 . S
C831 H821 0.930 . S
C831 C824 1.409 . S
C831 C830 1.362 . S
H832 C838 0.930 . S
H833 C841 0.930 . S
H834 C842 0.930 . S
H835 C843 0.930 . S
H836 C846 0.930 . S
H837 C847 0.930 . S
C838 H832 0.930 . S
C838 C839 1.355 . S
C838 C840 1.415 . S
C839 C838 1.355 . S
C839 C841 1.419 . S
C840 C838 1.415 . S
C840 C845 1.425 . S
C840 C847 1.409 . S
C841 H833 0.930 . S
C841 C839 1.419 . S
C841 C842 1.362 . S
C842 H834 0.930 . S
C842 C841 1.362 . S
C842 C845 1.409 . S
C843 H835 0.930 . S
C843 C844 1.355 . S
C843 C845 1.415 . S
C844 C843 1.355 . S
C844 C846 1.419 . S
C845 C840 1.425 . S
C845 C842 1.409 . S
C845 C843 1.415 . S
C846 H836 0.930 . S
C846 C844 1.419 . S
C846 C847 1.362 . S
C847 H837 0.930 . S
C847 C840 1.409 . S
C847 C846 1.362 . S
H848 C854 0.930 . S
H849 C857 0.930 . S
H850 C858 0.930 . S
H851 C859 0.930 . S
H852 C862 0.930 . S
H853 C863 0.930 . S
C854 H848 0.930 . S
C854 C855 1.355 . S
C854 C856 1.415 . S
C855 C854 1.355 . S
C855 C857 1.419 . S
C856 C854 1.415 . S
C856 C861 1.425 . S
C856 C863 1.409 . S
C857 H849 0.930 . S
C857 C855 1.419 . S
C857 C858 1.362 . S
C858 H850 0.930 . S
C858 C857 1.362 . S
C858 C861 1.409 . S
C859 H851 0.930 . S
C859 C860 1.355 . S
C859 C861 1.415 . S
C860 C859 1.355 . S
C860 C862 1.419 . S
C861 C856 1.425 . S
C861 C858 1.409 . S
C861 C859 1.415 . S
C862 H852 0.930 . S
C862 C860 1.419 . S
C862 C863 1.362 . S
C863 H853 0.930 . S
C863 C856 1.409 . S
C863 C862 1.362 . S
H864 C870 0.930 . S
H865 C873 0.930 . S
H866 C874 0.930 . S
H867 C875 0.930 . S
H868 C878 0.930 . S
H869 C879 0.930 . S
C870 H864 0.930 . S
C870 C871 1.355 . S
C870 C872 1.415 . S
C871 C870 1.355 . S
C871 C873 1.419 . S
C872 C870 1.415 . S
C872 C877 1.425 . S
C872 C879 1.409 . S
C873 H865 0.930 . S
C873 C871 1.419 . S
C873 C874 1.362 . S
C874 H866 0.930 . S
C874 C873 1.362 . S
C874 C877 1.409 . S
C875 H867 0.930 . S
C875 C876 1.355 . S
C875 C877 1.415 . S
C876 C875 1.355 . S
C876 C878 1.419 . S
C877 C872 1.425 . S
C877 C874 1.409 . S
C877 C875 1.415 . S
C878 H868 0.930 . S
C878 C876 1.419 . S
C878 C879 1.362 . S
C879 H869 0.930 . S
C879 C872 1.409 . S
C879 C878 1.362 . S
H880 C886 0.930 . S
H881 C889 0.930 . S
H882 C890 0.930 . S
H883 C891 0.930 . S
H884 C894 0.930 . S
H885 C895 0.930 . S
C886 H880 0.930 . S
C886 C887 1.355 . S
C886 C888 1.415 . S
C887 C886 1.355 . S
C887 C889 1.419 . S
C888 C886 1.415 . S
C888 C893 1.425 . S
C888 C895 1.409 . S
C889 H881 0.930 . S
C889 C887 1.419 . S
C889 C890 1.362 . S
C890 H882 0.930 . S
C890 C889 1.362 . S
C890 C893 1.409 . S
C891 H883 0.930 . S
C891 C892 1.355 . S
C891 C893 1.415 . S
C892 C891 1.355 . S
C892 C894 1.419 . S
C893 C888 1.425 . S
C893 C890 1.409 . S
C893 C891 1.415 . S
C894 H884 0.930 . S
C894 C892 1.419 . S
C894 C895 1.362 . S
C895 H885 0.930 . S
C895 C888 1.409 . S
C895 C894 1.362 . S
H896 C902 0.930 . S
H897 C905 0.930 . S
H898 C906 0.930 . S
H899 C907 0.930 . S
H900 C910 0.930 . S
H901 C911 0.930 . S
C902 H896 0.930 . S
C902 C903 1.355 . S
C902 C904 1.415 . S
C903 C902 1.355 . S
C903 C905 1.419 . S
C904 C902 1.415 . S
C904 C909 1.425 . S
C904 C911 1.409 . S
C905 H897 0.930 . S
C905 C903 1.419 . S
C905 C906 1.362 . S
C906 H898 0.930 . S
C906 C905 1.362 . S
C906 C909 1.409 . S
C907 H899 0.930 . S
C907 C908 1.355 . S
C907 C909 1.415 . S
C908 C907 1.355 . S
C908 C910 1.419 . S
C909 C904 1.425 . S
C909 C906 1.409 . S
C909 C907 1.415 . S
C910 H900 0.930 . S
C910 C908 1.419 . S
C910 C911 1.362 . S
C911 H901 0.930 . S
C911 C904 1.409 . S
C911 C910 1.362 . S
H912 C918 0.930 . S
H913 C921 0.930 . S
H914 C922 0.930 . S
H915 C923 0.930 . S
H916 C926 0.930 . S
H917 C927 0.930 . S
C918 H912 0.930 . S
C918 C919 1.355 . S
C918 C920 1.415 . S
C919 C918 1.355 . S
C919 C921 1.419 . S
C920 C918 1.415 . S
C920 C925 1.425 . S
C920 C927 1.409 . S
C921 H913 0.930 . S
C921 C919 1.419 . S
C921 C922 1.362 . S
C922 H914 0.930 . S
C922 C921 1.362 . S
C922 C925 1.409 . S
C923 H915 0.930 . S
C923 C924 1.355 . S
C923 C925 1.415 . S
C924 C923 1.355 . S
C924 C926 1.419 . S
C925 C920 1.425 . S
C925 C922 1.409 . S
C925 C923 1.415 . S
C926 H916 0.930 . S
C926 C924 1.419 . S
C926 C927 1.362 . S
C927 H917 0.930 . S
C927 C920 1.409 . S
C927 C926 1.362 . S
H928 C934 0.930 . S
H929 C937 0.930 . S
H930 C938 0.930 . S
H931 C939 0.930 . S
H932 C942 0.930 . S
H933 C943 0.930 . S
C934 H928 0.930 . S
C934 C935 1.355 . S
C934 C936 1.411 1_545 S
C935 C934 1.355 . S
C935 C937 1.419 1_455 S
C936 C934 1.411 1_565 S
C936 C941 1.425 1_465 S
C936 C943 1.413 . S
C937 H929 0.930 . S
C937 C935 1.419 1_655 S
C937 C938 1.362 . S
C938 H930 0.930 . S
C938 C937 1.362 . S
C938 C941 1.413 . S
C939 H931 0.930 . S
C939 C940 1.355 . S
C939 C941 1.411 1_565 S
C940 C939 1.355 . S
C940 C942 1.419 1_655 S
C941 C936 1.425 1_645 S
C941 C938 1.413 . S
C941 C939 1.411 1_545 S
C942 H932 0.930 . S
C942 C940 1.419 1_455 S
C942 C943 1.362 . S
C943 H933 0.930 . S
C943 C936 1.413 . S
C943 C942 1.362 . S
H944 C950 0.930 . S
H945 C953 0.930 . S
H946 C954 0.930 . S
H947 C955 0.930 . S
H948 C958 0.930 . S
H949 C959 0.930 . S
C950 H944 0.930 . S
C950 C951 1.355 . S
C950 C952 1.407 1_455 S
C951 C950 1.355 . S
C951 C953 1.419 . S
C952 C950 1.407 1_655 S
C952 C957 1.425 1_655 S
C952 C959 1.417 . S
C953 H945 0.930 . S
C953 C951 1.419 . S
C953 C954 1.362 . S
C954 H946 0.930 . S
C954 C953 1.362 . S
C954 C957 1.417 . S
C955 H947 0.930 . S
C955 C956 1.355 . S
C955 C957 1.407 1_655 S
C956 C955 1.355 . S
C956 C958 1.419 . S
C957 C952 1.425 1_455 S
C957 C954 1.417 . S
C957 C955 1.407 1_455 S
C958 H948 0.930 . S
C958 C956 1.419 . S
C958 C959 1.362 . S
C959 H949 0.930 . S
C959 C952 1.417 . S
C959 C958 1.362 . S
H960 C966 0.930 . S
H961 C969 0.930 . S
H962 C970 0.930 . S
H963 C971 0.930 . S
H964 C974 0.930 . S
H965 C975 0.930 . S
C966 H960 0.930 . S
C966 C967 1.355 . S
C966 C968 1.415 . S
C967 C966 1.355 . S
C967 C969 1.419 . S
C968 C966 1.415 . S
C968 C973 1.425 . S
C968 C975 1.409 . S
C969 H961 0.930 . S
C969 C967 1.419 . S
C969 C970 1.362 . S
C970 H962 0.930 . S
C970 C969 1.362 . S
C970 C973 1.409 . S
C971 H963 0.930 . S
C971 C972 1.355 . S
C971 C973 1.415 . S
C972 C971 1.355 . S
C972 C974 1.419 . S
C973 C968 1.425 . S
C973 C970 1.409 . S
C973 C971 1.415 . S
C974 H964 0.930 . S
C974 C972 1.419 . S
C974 C975 1.362 . S
C975 H965 0.930 . S
C975 C968 1.409 . S
C975 C974 1.362 . S
H976 C982 0.930 . S
H977 C985 0.930 . S
H978 C986 0.930 . S
H979 C987 0.930 . S
H980 C990 0.930 . S
H981 C991 0.930 . S
C982 H976 0.930 . S
C982 C983 1.355 . S
C982 C984 1.415 . S
C983 C982 1.355 . S
C983 C985 1.419 1_545 S
C984 C982 1.415 . S
C984 C989 1.425 1_545 S
C984 C991 1.409 . S
C985 H977 0.930 . S
C985 C983 1.419 1_565 S
C985 C986 1.362 . S
C986 H978 0.930 . S
C986 C985 1.362 . S
C986 C989 1.409 . S
C987 H979 0.930 . S
C987 C988 1.355 . S
C987 C989 1.415 . S
C988 C987 1.355 . S
C988 C990 1.419 1_565 S
C989 C984 1.425 1_565 S
C989 C986 1.409 . S
C989 C987 1.415 . S
C990 H980 0.930 . S
C990 C988 1.419 1_545 S
C990 C991 1.362 . S
C991 H981 0.930 . S
C991 C984 1.409 . S
C991 C990 1.362 . S
H992 C998 0.930 . S
H993 C1001 0.930 . S
H994 C1002 0.930 . S
H995 C1003 0.930 . S
H996 C1006 0.930 . S
H997 C1007 0.930 . S
C998 H992 0.930 . S
C998 C999 1.355 1_655 S
C998 C1000 1.415 . S
C999 C998 1.355 1_455 S
C999 C1001 1.419 . S
C1000 C998 1.415 . S
C1000 C1005 1.425 1_655 S
C1000 C1007 1.409 . S
C1001 H993 0.930 . S
C1001 C999 1.419 . S
C1001 C1002 1.362 . S
C1002 H994 0.930 . S
C1002 C1001 1.362 . S
C1002 C1005 1.409 . S
C1003 H995 0.930 . S
C1003 C1004 1.355 1_455 S
C1003 C1005 1.415 . S
C1004 C1003 1.355 1_655 S
C1004 C1006 1.419 . S
C1005 C1000 1.425 1_455 S
C1005 C1002 1.409 . S
C1005 C1003 1.415 . S
C1006 H996 0.930 . S
C1006 C1004 1.419 . S
C1006 C1007 1.362 . S
C1007 H997 0.930 . S
C1007 C1000 1.409 . S
C1007 C1006 1.362 . S
H1008 C1014 0.930 . S
H1009 C1017 0.930 . S
H1010 C1018 0.930 . S
H1011 C1019 0.930 . S
H1012 C1022 0.930 . S
H1013 C1023 0.930 . S
C1014 H1008 0.930 . S
C1014 C1015 1.355 . S
C1014 C1016 1.415 . S
C1015 C1014 1.355 . S
C1015 C1017 1.419 . S
C1016 C1014 1.415 . S
C1016 C1021 1.425 . S
C1016 C1023 1.409 . S
C1017 H1009 0.930 . S
C1017 C1015 1.419 . S
C1017 C1018 1.362 . S
C1018 H1010 0.930 . S
C1018 C1017 1.362 . S
C1018 C1021 1.409 . S
C1019 H1011 0.930 . S
C1019 C1020 1.355 . S
C1019 C1021 1.415 . S
C1020 C1019 1.355 . S
C1020 C1022 1.419 . S
C1021 C1016 1.425 . S
C1021 C1018 1.409 . S
C1021 C1019 1.415 . S
C1022 H1012 0.930 . S
C1022 C1020 1.419 . S
C1022 C1023 1.362 . S
C1023 H1013 0.930 . S
C1023 C1016 1.409 . S
C1023 C1022 1.362 . S
H1024 C1030 0.930 . S
H1025 C1033 0.930 . S
H1026 C1034 0.930 1_545 S
H1027 C1035 0.930 . S
H1028 C1038 0.930 . S
H1029 C1039 0.930 1_565 S
C1030 H1024 0.930 . S
C1030 C1031 1.355 . S
C1030 C1032 1.415 . S
C1031 C1030 1.355 . S
C1031 C1033 1.419 . S
C1032 C1030 1.415 . S
C1032 C1037 1.425 1_565 S
C1032 C1039 1.409 1_565 S
C1033 H1025 0.930 . S
C1033 C1031 1.419 . S
C1033 C1034 1.362 . S
C1034 H1026 0.930 1_565 S
C1034 C1033 1.362 . S
C1034 C1037 1.409 1_565 S
C1035 H1027 0.930 . S
C1035 C1036 1.355 . S
C1035 C1037 1.415 . S
C1036 C1035 1.355 . S
C1036 C1038 1.419 . S
C1037 C1032 1.425 1_545 S
C1037 C1034 1.409 1_545 S
C1037 C1035 1.415 . S
C1038 H1028 0.930 . S
C1038 C1036 1.419 . S
C1038 C1039 1.362 . S
C1039 H1029 0.930 1_545 S
C1039 C1032 1.409 1_545 S
C1039 C1038 1.362 . S
H1040 C1046 0.930 . S
H1041 C1049 0.930 . S
H1042 C1050 0.930 . S
H1043 C1051 0.930 . S
H1044 C1054 0.930 . S
H1045 C1055 0.930 . S
C1046 H1040 0.930 . S
C1046 C1047 1.355 . S
C1046 C1048 1.415 . S
C1047 C1046 1.355 . S
C1047 C1049 1.419 1_545 S
C1048 C1046 1.415 . S
C1048 C1053 1.425 1_445 S
C1048 C1055 1.409 1_455 S
C1049 H1041 0.930 . S
C1049 C1047 1.419 1_565 S
C1049 C1050 1.362 . S
C1050 H1042 0.930 . S
C1050 C1049 1.362 . S
C1050 C1053 1.409 1_455 S
C1051 H1043 0.930 . S
C1051 C1052 1.355 . S
C1051 C1053 1.415 . S
C1052 C1051 1.355 . S
C1052 C1054 1.419 1_565 S
C1053 C1048 1.425 1_665 S
C1053 C1050 1.409 1_655 S
C1053 C1051 1.415 . S
C1054 H1044 0.930 . S
C1054 C1052 1.419 1_545 S
C1054 C1055 1.362 . S
C1055 H1045 0.930 . S
C1055 C1048 1.409 1_655 S
C1055 C1054 1.362 . S
H1056 C1062 0.930 . S
H1057 C1065 0.930 . S
H1058 C1066 0.930 . S
H1059 C1067 0.930 . S
H1060 C1070 0.930 . S
H1061 C1071 0.930 . S
C1062 H1056 0.930 . S
C1062 C1063 1.355 . S
C1062 C1064 1.415 . S
C1063 C1062 1.355 . S
C1063 C1065 1.419 . S
C1064 C1062 1.415 . S
C1064 C1069 1.425 . S
C1064 C1071 1.409 . S
C1065 H1057 0.930 . S
C1065 C1063 1.419 . S
C1065 C1066 1.362 . S
C1066 H1058 0.930 . S
C1066 C1065 1.362 . S
C1066 C1069 1.409 . S
C1067 H1059 0.930 . S
C1067 C1068 1.355 . S
C1067 C1069 1.415 . S
C1068 C1067 1.355 . S
C1068 C1070 1.419 . S
C1069 C1064 1.425 . S
C1069 C1066 1.409 . S
C1069 C1067 1.415 . S
C1070 H1060 0.930 . S
C1070 C1068 1.419 . S
C1070 C1071 1.362 . S
C1071 H1061 0.930 . S
C1071 C1064 1.409 . S
C1071 C1070 1.362 . S
H1072 C1078 0.930 . S
H1073 C1081 0.930 . S
H1074 C1082 0.930 . S
H1075 C1083 0.930 . S
H1076 C1086 0.930 . S
H1077 C1087 0.930 . S
C1078 H1072 0.930 . S
C1078 C1079 1.355 . S
C1078 C1080 1.415 . S
C1079 C1078 1.355 . S
C1079 C1081 1.419 . S
C1080 C1078 1.415 . S
C1080 C1085 1.425 . S
C1080 C1087 1.409 . S
C1081 H1073 0.930 . S
C1081 C1079 1.419 . S
C1081 C1082 1.362 . S
C1082 H1074 0.930 . S
C1082 C1081 1.362 . S
C1082 C1085 1.409 . S
C1083 H1075 0.930 . S
C1083 C1084 1.355 . S
C1083 C1085 1.415 . S
C1084 C1083 1.355 . S
C1084 C1086 1.419 . S
C1085 C1080 1.425 . S
C1085 C1082 1.409 . S
C1085 C1083 1.415 . S
C1086 H1076 0.930 . S
C1086 C1084 1.419 . S
C1086 C1087 1.362 . S
C1087 H1077 0.930 . S
C1087 C1080 1.409 . S
C1087 C1086 1.362 . S
H1088 C1094 0.930 . S
H1089 C1097 0.930 . S
H1090 C1098 0.930 . S
H1091 C1099 0.930 . S
H1092 C1102 0.930 . S
H1093 C1103 0.930 . S
C1094 H1088 0.930 . S
C1094 C1095 1.355 . S
C1094 C1096 1.415 . S
C1095 C1094 1.355 . S
C1095 C1097 1.419 . S
C1096 C1094 1.415 . S
C1096 C1101 1.425 . S
C1096 C1103 1.409 . S
C1097 H1089 0.930 . S
C1097 C1095 1.419 . S
C1097 C1098 1.362 . S
C1098 H1090 0.930 . S
C1098 C1097 1.362 . S
C1098 C1101 1.409 . S
C1099 H1091 0.930 . S
C1099 C1100 1.355 . S
C1099 C1101 1.415 . S
C1100 C1099 1.355 . S
C1100 C1102 1.419 . S
C1101 C1096 1.425 . S
C1101 C1098 1.409 . S
C1101 C1099 1.415 . S
C1102 H1092 0.930 . S
C1102 C1100 1.419 . S
C1102 C1103 1.362 . S
C1103 H1093 0.930 . S
C1103 C1096 1.409 . S
C1103 C1102 1.362 . S
H1104 C1110 0.930 . S
H1105 C1113 0.930 . S
H1106 C1114 0.930 . S
H1107 C1115 0.930 . S
H1108 C1118 0.930 . S
H1109 C1119 0.930 . S
C1110 H1104 0.930 . S
C1110 C1111 1.355 . S
C1110 C1112 1.415 . S
C1111 C1110 1.355 . S
C1111 C1113 1.419 . S
C1112 C1110 1.415 . S
C1112 C1117 1.425 . S
C1112 C1119 1.409 . S
C1113 H1105 0.930 . S
C1113 C1111 1.419 . S
C1113 C1114 1.362 . S
C1114 H1106 0.930 . S
C1114 C1113 1.362 . S
C1114 C1117 1.409 . S
C1115 H1107 0.930 . S
C1115 C1116 1.355 . S
C1115 C1117 1.415 . S
C1116 C1115 1.355 . S
C1116 C1118 1.419 . S
C1117 C1112 1.425 . S
C1117 C1114 1.409 . S
C1117 C1115 1.415 . S
C1118 H1108 0.930 . S
C1118 C1116 1.419 . S
C1118 C1119 1.362 . S
C1119 H1109 0.930 . S
C1119 C1112 1.409 . S
C1119 C1118 1.362 . S
H1120 C1126 0.930 . S
H1121 C1129 0.930 . S
H1122 C1130 0.930 . S
H1123 C1131 0.930 . S
H1124 C1134 0.930 . S
H1125 C1135 0.930 . S
C1126 H1120 0.930 . S
C1126 C1127 1.355 . S
C1126 C1128 1.415 . S
C1127 C1126 1.355 . S
C1127 C1129 1.419 . S
C1128 C1126 1.415 . S
C1128 C1133 1.425 . S
C1128 C1135 1.409 . S
C1129 H1121 0.930 . S
C1129 C1127 1.419 . S
C1129 C1130 1.362 . S
C1130 H1122 0.930 . S
C1130 C1129 1.362 . S
C1130 C1133 1.409 . S
C1131 H1123 0.930 . S
C1131 C1132 1.355 . S
C1131 C1133 1.415 . S
C1132 C1131 1.355 . S
C1132 C1134 1.419 . S
C1133 C1128 1.425 . S
C1133 C1130 1.409 . S
C1133 C1131 1.415 . S
C1134 H1124 0.930 . S
C1134 C1132 1.419 . S
C1134 C1135 1.362 . S
C1135 H1125 0.930 . S
C1135 C1128 1.409 . S
C1135 C1134 1.362 . S
H1136 C1142 0.930 . S
H1137 C1145 0.930 . S
H1138 C1146 0.930 . S
H1139 C1147 0.930 . S
H1140 C1150 0.930 . S
H1141 C1151 0.930 . S
C1142 H1136 0.930 . S
C1142 C1143 1.355 . S
C1142 C1144 1.415 . S
C1143 C1142 1.355 . S
C1143 C1145 1.419 . S
C1144 C1142 1.415 . S
C1144 C1149 1.425 . S
C1144 C1151 1.409 . S
C1145 H1137 0.930 . S
C1145 C1143 1.419 . S
C1145 C1146 1.362 . S
C1146 H1138 0.930 . S
C1146 C1145 1.362 . S
C1146 C1149 1.409 . S
C1147 H1139 0.930 . S
C1147 C1148 1.355 . S
C1147 C1149 1.415 . S
C1148 C1147 1.355 . S
C1148 C1150 1.419 . S
C1149 C1144 1.425 . S
C1149 C1146 1.409 . S
C1149 C1147 1.415 . S
C1150 H1140 0.930 . S
C1150 C1148 1.419 . S
C1150 C1151 1.362 . S
C1151 H1141 0.930 . S
C1151 C1144 1.409 . S
C1151 C1150 1.362 . S
H1152 C1158 0.930 . S
H1153 C1161 0.930 . S
H1154 C1162 0.930 . S
H1155 C1163 0.930 . S
H1156 C1166 0.930 . S
H1157 C1167 0.930 . S
C1158 H1152 0.930 . S
C1158 C1159 1.355 . S
C1158 C1160 1.415 . S
C1159 C1158 1.355 . S
C1159 C1161 1.419 . S
C1160 C1158 1.415 . S
C1160 C1165 1.425 . S
C1160 C1167 1.409 . S
C1161 H1153 0.930 . S
C1161 C1159 1.419 . S
C1161 C1162 1.362 . S
C1162 H1154 0.930 . S
C1162 C1161 1.362 . S
C1162 C1165 1.409 . S
C1163 H1155 0.930 . S
C1163 C1164 1.355 . S
C1163 C1165 1.415 . S
C1164 C1163 1.355 . S
C1164 C1166 1.419 . S
C1165 C1160 1.425 . S
C1165 C1162 1.409 . S
C1165 C1163 1.415 . S
C1166 H1156 0.930 . S
C1166 C1164 1.419 . S
C1166 C1167 1.362 . S
C1167 H1157 0.930 . S
C1167 C1160 1.409 . S
C1167 C1166 1.362 . S
H1168 C1174 0.930 . S
H1169 C1177 0.930 . S
H1170 C1178 0.930 . S
H1171 C1179 0.930 . S
H1172 C1182 0.930 . S
H1173 C1183 0.930 . S
C1174 H1168 0.930 . S
C1174 C1175 1.355 . S
C1174 C1176 1.415 . S
C1175 C1174 1.355 . S
C1175 C1177 1.419 . S
C1176 C1174 1.415 . S
C1176 C1181 1.425 . S
C1176 C1183 1.409 . S
C1177 H1169 0.930 . S
C1177 C1175 1.419 . S
C1177 C1178 1.362 . S
C1178 H1170 0.930 . S
C1178 C1177 1.362 . S
C1178 C1181 1.409 . S
C1179 H1171 0.930 . S
C1179 C1180 1.355 . S
C1179 C1181 1.415 . S
C1180 C1179 1.355 . S
C1180 C1182 1.419 . S
C1181 C1176 1.425 . S
C1181 C1178 1.409 . S
C1181 C1179 1.415 . S
C1182 H1172 0.930 . S
C1182 C1180 1.419 . S
C1182 C1183 1.362 . S
C1183 H1173 0.930 . S
C1183 C1176 1.409 . S
C1183 C1182 1.362 . S
C551 C5 0.916 . S
C556 C447 0.922 . S
C567 C481 0.912 . S
C572 C39 0.930 . S
C583 C515 0.967 . S
C588 C73 0.922 . S
C599 C413 0.985 . S
C604 C107 0.955 . S
C615 C379 0.921 . S
C620 C141 0.966 . S
C631 C277 0.913 . S
C636 C175 0.928 . S
C647 C209 0.985 . S
C652 C311 0.961 . S
C663 C345 0.966 . S
C668 C243 0.921 . S
C679 C339 1.767 . S
C684 C9 1.867 . S
C695 C43 1.856 . S
C700 C373 1.792 . S
C711 C77 1.872 . S
C716 C407 1.750 . S
C727 C111 1.870 . S
C732 C305 1.728 . S
C743 C145 1.866 . S
C748 C543 1.771 . S
C759 C441 1.736 . S
C764 C179 1.873 . S
C775 C475 1.773 . S
C780 C213 1.865 . S
C791 C509 1.757 . S
C796 C247 1.851 . S
C807 C281 1.843 . S
C812 C67 1.788 . S
C823 C315 1.873 . S
C828 C101 1.732 . S
C839 C349 1.861 . S
C844 C135 1.738 . S
C855 C33 1.793 . S
C860 C383 1.842 . S
C871 C417 1.850 . S
C876 C271 1.761 . S
C887 C169 1.786 . S
C892 C451 1.859 . S
C903 C485 1.862 . S
C908 C203 1.780 . S
C919 C519 1.842 . S
C924 C237 1.798 . S
C935 C20 1.768 . S
C940 C360 1.763 . S
C951 C394 1.769 . S
C956 C54 1.761 . S
C967 C88 1.708 . S
C972 C292 1.698 . S
C983 C326 1.757 . S
C988 C122 1.769 . S
C999 C156 1.700 . S
C1004 C496 1.703 . S
C1015 C530 1.734 . S
C1020 C190 1.704 . S
C1031 C428 1.700 . S
C1036 C224 1.704 . S
C1047 C462 1.755 . S
C1052 C258 1.770 . S
C1063 C206 1.023 . S
C1068 C2 1.016 . S
C1079 C36 0.979 . S
C1084 C240 0.989 . S
C1095 C138 1.013 . S
C1100 C70 1.004 . S
C1111 C104 0.999 . S
C1116 C172 1.009 . S
C1127 C274 0.982 . S
C1132 C478 0.992 . S
C1143 C308 1.029 . S
C1148 C512 1.031 . S
C1159 C342 0.959 . S
C1164 C410 0.965 . S
C1175 C444 1.029 . S
C1180 C376 1.032 . S
