# Generated by pormake.
# Topology sxc, (6)-cn, num edge types: 1
# Building blocks:
#     Node 0, Type 0, BuildingBlock: KUMJIN_clean_sbu_1, # of connection points: 6
#     Node 1, Type 0, BuildingBlock: KUMJIN_clean_sbu_1, # of connection points: 6
#     Node 2, Type 0, BuildingBlock: KUMJIN_clean_sbu_1, # of connection points: 6
#     Edge 3, Type (0, 0), BuildingBlock: FUNLAD_clean_linker_0, # of connection points: 2
#     Edge 4, Type (0, 0), BuildingBlock: FUNLAD_clean_linker_0, # of connection points: 2
#     Edge 5, Type (0, 0), BuildingBlock: FUNLAD_clean_linker_0, # of connection points: 2
#     Edge 6, Type (0, 0), BuildingBlock: FUNLAD_clean_linker_0, # of connection points: 2
#     Edge 7, Type (0, 0), BuildingBlock: FUNLAD_clean_linker_0, # of connection points: 2
#     Edge 8, Type (0, 0), BuildingBlock: FUNLAD_clean_linker_0, # of connection points: 2
#     Edge 9, Type (0, 0), BuildingBlock: FUNLAD_clean_linker_0, # of connection points: 2
#     Edge 10, Type (0, 0), BuildingBlock: FUNLAD_clean_linker_0, # of connection points: 2
#     Edge 11, Type (0, 0), BuildingBlock: FUNLAD_clean_linker_0, # of connection points: 2
# Relax obj value: 0.209
# Max RMSD: 0.153
# Mean RMSD: 0.110
data_MOF--net-sxc--node1-KUMJIN_clean_sbu_1--edge1-FUNLAD_clean_linker_0
_symmetry_space_group_name_H-M    P1
_symmetry_Int_Tables_number       1
_symmetry_cell_setting            triclinic
loop_
_symmetry_equiv_pos_as_xyz
'x, y, z'
_cell_length_a     18.471261
_cell_length_b     20.527466
_cell_length_c     52.361746
_cell_angle_alpha  109.39936
_cell_angle_beta   98.413348
_cell_angle_gamma 101.46821
loop_
_atom_site_label
_atom_site_type_symbol
_atom_site_fract_x
_atom_site_fract_y
_atom_site_fract_z
_atom_type_partial_charge
Eu0 Eu 0.94713 0.12157 -0.00571 0.0
C1 C 0.26273 0.095 0.03984 0.0
N2 N 0.21415 0.13338 0.05016 0.0
C3 C 0.25686 0.13085 0.09526 0.0
C4 C 0.30899 0.07157 0.05701 0.0
C5 C 0.21208 0.15277 0.07754 0.0
C6 C 0.30538 0.08986 0.08495 0.0
C7 C 0.31573 1.03837 0.00099 0.0
C8 C 0.26665 0.07931 0.01201 0.0
C9 C 0.3614 1.01494 0.0181 0.0
C10 C 0.3584 1.03187 0.04602 0.0
Eu11 Eu 0.15661 0.18273 0.02048 0.0
N12 N 0.22359 0.10468 -0.00408 0.0
C13 C 0.31872 1.02311 0.97315 0.0
C14 C 0.22932 0.09243 0.96911 0.0
C15 C 0.27539 0.05027 0.95718 0.0
H16 H 0.17987 0.18898 0.08624 0.0
H17 H 0.27909 1.04042 0.93585 0.0
H18 H 0.92248 0.10579 0.92713 0.0
H19 H 0.82463 0.2724 0.07699 0.0
H20 H 0.20153 0.11709 0.95695 0.0
H21 H 0.35551 0.99166 0.96395 0.0
H22 H 0.90422 0.19586 0.05751 0.0
H23 H 0.25543 0.14728 0.11704 0.0
H24 H 0.39995 0.98421 0.00998 0.0
H25 H 0.39475 1.01408 0.059 0.0
H26 H 0.84695 0.1439 0.89498 0.0
H27 H 0.34081 0.07373 0.09884 0.0
H28 H 0.7461 0.3152 0.04704 0.0
N29 N 0.88854 0.16554 0.96276 0.0
C30 C 0.83991 0.20479 0.97236 0.0
C31 C 0.84557 0.16265 0.91678 0.0
C32 C 0.79328 0.22565 0.95431 0.0
C33 C 0.89041 0.14292 0.93529 0.0
C34 C 0.79695 0.20438 0.92632 0.0
N35 N 0.8797 0.20128 0.01735 0.0
C36 C 0.87482 0.21738 0.04442 0.0
C37 C 0.78626 0.26494 0.01049 0.0
C38 C 0.83588 0.22365 0.00029 0.0
C39 C 0.78341 0.2835 0.03847 0.0
C40 C 0.8279 0.25968 0.05548 0.0
H41 H 0.76139 0.21866 0.9118 0.0
H42 H 0.70668 0.28155 0.95083 0.0
H43 H 0.70113 0.31656 -5e-05 0.0
O44 O 0.83389 0.0708 -0.00391 0.0
O45 O 0.99072 0.2501 0.0016 0.0
O46 O 0.121 0.28437 0.01291 0.0
O47 O 0.87212 1.03451 0.9579 0.0
O48 O 0.98524 0.1208 0.03745 0.0
O49 O 0.08522 0.2175 0.05149 0.0
O50 O 0.27086 0.23493 0.0201 0.0
O51 O 0.11232 0.05447 0.01349 0.0
O52 O 0.9823 1.01991 0.00175 0.0
O53 O 0.23016 0.26741 0.05789 0.0
O54 O 0.11775 0.18625 0.97798 0.0
O55 O 1.01867 0.08834 0.96302 0.0
C56 C 0.05552 0.30272 0.00736 0.0
C57 C 0.79104 0.94827 0.96858 0.0
C58 C 0.71847 0.86461 0.98465 0.0
C59 C 0.74206 0.80879 0.96698 0.0
C60 C 0.81391 0.89203 0.95063 0.0
C61 C 0.78919 0.82251 0.94985 0.0
C62 C 0.7419 0.93378 0.98512 0.0
C63 C 1.03644 0.17288 0.05757 0.0
C64 C 0.81957 1.02247 0.97109 0.0
C65 C 0.74333 0.26576 0.96449 0.0
C66 C 0.74011 0.28561 -0.00753 0.0
C67 C 0.04758 1.00173 0.00756 0.0
C68 C 0.31809 0.35575 0.05093 0.0
C69 C 0.37397 0.44817 0.03533 0.0
C70 C 0.38042 0.50041 0.0615 0.0
C71 C 0.32544 0.40826 0.07725 0.0
C72 C 0.34328 0.37611 0.03002 0.0
C73 C 0.35633 0.48036 0.08243 0.0
C74 C 0.06718 0.13456 0.95753 0.0
C75 C 0.28482 0.28024 0.04566 0.0
H76 H 0.72271 0.75447 0.96606 0.0
H77 H 0.85127 0.90167 0.93739 0.0
H78 H 0.80669 0.7793 0.93603 0.0
H79 H 0.72273 0.97635 -0.00131 0.0
H80 H 0.40454 0.55659 0.06572 0.0
H81 H 0.30713 0.39355 0.09378 0.0
H82 H 0.33894 0.33655 0.00966 0.0
H83 H 0.36168 0.52069 0.10266 0.0
Eu84 Eu 1.02476 0.06582 0.32038 0.0
C85 C 0.26086 0.35416 0.40478 0.0
N86 N 0.19528 0.31511 0.40725 0.0
C87 C 0.25276 0.33508 0.45429 0.0
C88 C 0.32592 0.38339 0.42693 0.0
C89 C 0.18992 0.30666 0.43172 0.0
C90 C 0.32125 0.37309 0.45181 0.0
C91 C 0.33115 0.40314 0.37657 0.0
C92 C 0.26334 0.36426 0.37985 0.0
C93 C 0.39616 0.43132 0.39846 0.0
C94 C 0.3935 0.42166 0.42358 0.0
Eu95 Eu 0.09333 0.26742 0.36754 0.0
N96 N 0.20008 0.33457 0.35861 0.0
C97 C 0.3317 0.41258 0.35133 0.0
C98 C 0.19929 0.34731 0.33461 0.0
C99 C 0.26522 0.38533 0.33042 0.0
H100 H 0.13675 0.27961 0.43415 0.0
H101 H 0.26452 0.39413 0.31113 0.0
H102 H 0.9838 0.05941 0.25485 0.0
H103 H 0.83607 0.98449 0.38275 0.0
H104 H 0.14797 0.32964 0.31872 0.0
H105 H 0.3827 0.44191 0.34798 0.0
H106 H 0.95869 1.02693 0.37302 0.0
H107 H 0.2482 0.32799 0.47362 0.0
H108 H 0.44877 0.46099 0.39622 0.0
H109 H 0.44409 0.44406 0.44032 0.0
H110 H 0.87151 1.01993 0.21609 0.0
H111 H 0.3699 0.39487 0.46932 0.0
H112 H 0.71824 0.94551 0.34626 0.0
N113 N 0.92101 1.03355 0.28264 0.0
C114 C 0.85264 1.002 0.28593 0.0
C115 C 0.86526 1.01539 0.23571 0.0
C116 C 0.787 0.97844 0.26425 0.0
C117 C 0.92856 1.0389 0.25785 0.0
C118 C 0.79409 0.98542 0.23896 0.0
N119 N 0.91169 1.01981 0.33231 0.0
C120 C 0.90824 1.01362 0.35729 0.0
C121 C 0.77617 0.96834 0.31589 0.0
C122 C 0.84759 0.99601 0.31149 0.0
C123 C 0.77215 0.96556 0.34199 0.0
C124 C 0.83849 0.9879 0.36269 0.0
H125 H 0.74506 0.96758 0.22178 0.0
H126 H 0.66537 0.93159 0.25216 0.0
H127 H 0.65569 0.92385 0.29741 0.0
O128 O 1.01815 0.95603 0.31676 0.0
O129 O 0.93626 0.13438 0.32352 0.0
O130 O 0.97591 0.20619 0.3689 0.0
O131 O 0.04427 0.98913 0.28329 0.0
O132 O 0.07997 0.0881 0.36578 0.0
O133 O 0.05274 0.19331 0.38883 0.0
O134 O 1.02728 0.3363 0.35885 0.0
O135 O 0.19677 0.22061 0.3601 0.0
O136 O 0.15567 0.10307 0.3291 0.0
O137 O 0.08878 0.3628 0.40134 0.0
O138 O 0.04606 0.2383 0.32099 0.0
O139 O 0.08414 0.13781 0.30119 0.0
C140 C 0.91971 0.1729 0.34665 0.0
C141 C 0.11087 0.91337 0.29487 0.0
C142 C 0.20942 0.89041 0.32418 0.0
C143 C 0.22384 0.84335 0.29991 0.0
C144 C 0.12124 0.86254 0.2712 0.0
C145 C 0.18064 0.83062 0.2736 0.0
C146 C 0.16236 0.93411 0.32036 0.0
C147 C 0.0744 0.13648 0.38891 0.0
C148 C 0.0431 0.94033 0.29396 0.0
C149 C 0.71636 0.94969 0.26855 0.0
C150 C 0.71087 0.94519 0.29433 0.0
C151 C 0.21116 0.1609 0.34481 0.0
C152 C 0.04984 0.45511 0.38954 0.0
C153 C 0.99086 0.54016 0.37834 0.0
C154 C 0.04872 0.59668 0.39884 0.0
C155 C 0.10764 0.5112 0.41001 0.0
C156 C 0.99192 0.46996 0.37391 0.0
C157 C 0.10688 0.58207 0.41457 0.0
C158 C 0.06477 0.19447 0.29985 0.0
C159 C 0.04345 0.38012 0.38475 0.0
H160 H 0.26291 0.81106 0.30102 0.0
H161 H 0.08308 0.84699 0.25114 0.0
H162 H 0.18929 0.79159 0.2553 0.0
H163 H 0.15615 0.97682 0.338 0.0
H164 H 0.05026 0.6519 0.40203 0.0
H165 H 0.15267 0.5004 0.42241 0.0
H166 H 0.94731 0.42658 0.35803 0.0
H167 H 0.1516 0.62566 0.43014 0.0
Eu168 Eu 0.14875 0.16009 0.68667 0.0
C169 C 0.19327 0.86716 0.61351 0.0
N170 N 0.14582 0.90581 0.60766 0.0
C171 C 0.15274 0.86311 0.5598 0.0
C172 C 0.22213 0.82445 0.59238 0.0
C173 C 0.12561 0.90473 0.58136 0.0
C174 C 0.20075 0.82235 0.56527 0.0
C175 C 0.26754 0.83544 0.64763 0.0
C176 C 0.21506 0.87201 0.64095 0.0
C177 C 0.29439 0.79121 0.62644 0.0
C178 C 0.2715 0.78548 0.5989 0.0
Eu179 Eu 0.08766 0.95575 0.64379 0.0
N180 N 0.18758 0.91468 0.66118 0.0
C181 C 0.29231 0.84505 0.67551 0.0
C182 C 0.21294 0.92541 0.6884 0.0
C183 C 0.26574 0.89102 0.696 0.0
H184 H 0.0851 0.93252 0.57666 0.0
H185 H 0.2855 0.8996 0.71766 0.0
H186 H 0.19368 0.20369 0.75631 0.0
H187 H 0.95663 0.25056 0.62423 0.0
H188 H 0.19328 0.96046 0.70437 0.0
H189 H 0.33278 0.81807 0.68148 0.0
H190 H 0.04515 0.18123 0.6322 0.0
H191 H 0.1353 0.86129 0.53886 0.0
H192 H 0.33373 0.76183 0.63118 0.0
H193 H 0.29332 0.75162 0.58285 0.0
H194 H 0.16584 0.28492 0.79815 0.0
H195 H 0.22113 0.78961 0.54844 0.0
H196 H 0.92186 0.33285 0.66409 0.0
N197 N 0.12029 0.22967 0.72807 0.0
C198 C 0.07258 0.27062 0.725 0.0
C199 C 0.13892 0.2811 0.77772 0.0
C200 C 0.05604 0.31845 0.74845 0.0
C201 C 0.1539 0.2346 0.75395 0.0
C202 C 0.08978 0.32318 0.77497 0.0
N203 N 0.0578 0.21941 0.67604 0.0
C204 C 1.02941 0.21497 0.64975 0.0
C205 C 0.99126 0.30776 0.69473 0.0
C206 C 0.0408 0.26565 0.69837 0.0
C207 C 0.96016 0.30149 0.66772 0.0
C208 C 0.97947 0.25499 0.64517 0.0
H209 H 0.07871 0.35953 0.79345 0.0
H210 H 0.99411 0.3978 0.76259 0.0
H211 H 0.93713 0.38811 0.7156 0.0
O212 O 0.21809 0.23445 0.67269 0.0
O213 O 1.01813 0.11678 0.67923 0.0
O214 O 0.98159 0.99923 0.64758 0.0
O215 O 0.23821 0.25049 0.7171 0.0
O216 O 0.1547 0.12213 0.64111 0.0
O217 O 0.0564 1.02141 0.61911 0.0
O218 O 1.038 0.85193 0.64528 0.0
O219 O 0.21125 1.01511 0.64592 0.0
O220 O 0.24152 0.10043 0.68946 0.0
O221 O 1.0107 0.87096 0.60723 0.0
O222 O 0.06647 0.98505 0.68784 0.0
O223 O 0.15562 0.09235 0.7126 0.0
C224 C 0.96471 0.05774 0.66292 0.0
C225 C 0.31854 0.33646 0.70438 0.0
C226 C 0.42684 0.39358 0.69176 0.0
C227 C 0.4496 0.44751 0.71847 0.0
C228 C 0.34101 0.39018 0.73114 0.0
C229 C 0.40621 0.44608 0.73804 0.0
C230 C 0.36064 0.33916 0.68453 0.0
C231 C 0.10418 0.07706 0.61864 0.0
C232 C 0.25737 0.27295 0.69803 0.0
C233 C 1.00712 0.36061 0.74481 0.0
C234 C 0.97471 0.35515 0.71804 0.0
C235 C 0.26373 0.0613 0.66794 0.0
C236 C 0.91766 0.78889 0.61472 0.0
C237 C 0.80989 0.74464 0.63136 0.0
C238 C 0.76768 0.70888 0.60368 0.0
C239 C 0.87545 0.75227 0.58719 0.0
C240 C 0.88424 0.78602 0.63678 0.0
C241 C 0.80039 0.7131 0.58174 0.0
C242 C 0.10099 1.03901 0.71143 0.0
C243 C 0.99735 0.8266 0.61982 0.0
H244 H 0.50101 0.49032 0.72413 0.0
H245 H 0.30906 0.38815 0.74677 0.0
H246 H 0.42393 0.48739 0.75867 0.0
H247 H 0.34444 0.29704 0.664 0.0
H248 H 0.71089 0.67443 0.59889 0.0
H249 H 0.90095 0.75325 0.5699 0.0
H250 H 0.91684 0.81298 0.6581 0.0
H251 H 0.76833 0.68404 0.56048 0.0
C252 C 0.99173 0.41654 0.00613 0.0
C253 C 0.05591 0.38512 0.00724 0.0
C254 C 0.99458 0.49025 0.00635 0.0
C255 C 0.06214 0.54249 0.00744 0.0
C256 C 0.12528 0.51024 0.00838 0.0
C257 C 0.12264 0.43762 0.00843 0.0
C258 C 0.07428 0.62684 0.00763 0.0
C259 C 1.02799 0.67755 0.00729 0.0
C260 C 1.04024 0.7619 0.00746 0.0
C261 C 0.97704 0.79402 0.00622 0.0
C262 C 0.97992 0.86667 0.00618 0.0
C263 C 0.04694 0.91933 0.00769 0.0
H264 H 0.1607 0.79872 0.00989 0.0
C265 C 0.11114 0.88805 0.00911 0.0
C266 C 0.10806 0.81431 0.00888 0.0
H267 H 0.16599 0.92106 0.01025 0.0
H268 H 0.93708 0.38366 0.00526 0.0
H269 H 0.942 0.50596 0.00561 0.0
H270 H 0.18012 0.54259 0.00917 0.0
H271 H 0.17552 0.42239 0.00929 0.0
H272 H 0.13293 0.64983 0.00814 0.0
H273 H 0.96931 0.65458 0.00675 0.0
H274 H 0.92195 0.76161 0.00518 0.0
H275 H 0.92699 0.88181 0.0051 0.0
C276 C 0.35791 0.21087 0.36428 0.0
C277 C 0.29424 0.15917 0.34411 0.0
C278 C 0.43441 0.20903 0.36288 0.0
C279 C 0.4512 0.15562 0.341 0.0
C280 C 0.38733 0.1043 0.32098 0.0
C281 C 0.31139 0.10563 0.32257 0.0
C282 C 0.53219 0.15087 0.33725 0.0
C283 C 0.60073 0.18841 0.35596 0.0
C284 C 0.68132 0.18201 0.3522 0.0
C285 C 0.744 0.21568 0.37546 0.0
C286 C 0.81946 0.21263 0.37358 0.0
C287 C 0.83734 0.17628 0.34818 0.0
H288 H 0.65448 0.11999 0.30784 0.0
C289 C 0.77509 0.14386 0.32467 0.0
C290 C 0.69902 0.14595 0.32663 0.0
H291 H 0.78503 0.11694 0.30447 0.0
H292 H 0.34881 0.25296 0.38145 0.0
H293 H 0.48015 0.25025 0.37889 0.0
H294 H 0.39606 0.06218 0.30366 0.0
H295 H 0.26568 0.06463 0.3064 0.0
H296 H 0.53447 0.11184 0.31765 0.0
H297 H 0.59845 0.22563 0.37597 0.0
H298 H 0.73464 0.24475 0.39559 0.0
H299 H 0.86421 0.23923 0.39233 0.0
C300 C 0.70462 0.71794 0.65389 0.0
C301 C 0.7816 0.72626 0.65355 0.0
C302 C 0.66993 0.67113 0.66521 0.0
C303 C 0.71254 0.63333 0.67625 0.0
C304 C 0.79143 0.65164 0.68056 0.0
C305 C 0.82625 0.69849 0.66925 0.0
C306 C 0.67388 0.56328 0.67527 0.0
C307 C 0.64273 0.51013 0.65031 0.0
C308 C 0.58481 0.4486 0.64882 0.0
C309 C 0.50918 0.44623 0.63905 0.0
C310 C 0.45339 0.41929 0.65084 0.0
C311 C 0.47395 0.39398 0.67184 0.0
H312 H 0.66039 0.41173 0.6731 0.0
C313 C 0.54643 0.38389 0.67751 0.0
C314 C 0.60208 0.41083 0.66576 0.0
H315 H 0.56208 0.36294 0.69336 0.0
H316 H 0.66972 0.7403 0.64242 0.0
H317 H 0.60868 0.6576 0.66213 0.0
H318 H 0.82463 0.62287 0.68929 0.0
H319 H 0.88601 0.70469 0.66952 0.0
H320 H 0.66536 0.55712 0.69454 0.0
H321 H 0.64783 0.51913 0.63123 0.0
H322 H 0.49532 0.47504 0.62582 0.0
H323 H 0.39702 0.42639 0.64614 0.0
C324 C 0.85626 0.11155 0.68025 0.0
C325 C 0.88034 0.05648 0.66165 0.0
C326 C 0.7777 0.10855 0.6791 0.0
C327 C 0.71915 0.0504 0.65911 0.0
C328 C 0.74378 0.99626 0.64042 0.0
C329 C 0.82174 0.99895 0.6417 0.0
C330 C 0.63271 1.04251 0.65634 0.0
C331 C 0.59722 0.08586 0.67349 0.0
C332 C 0.51061 0.07666 0.67089 0.0
C333 C 0.48483 0.12482 0.69168 0.0
C334 C 0.40643 0.11963 0.69078 0.0
C335 C 0.34874 0.06619 0.66886 0.0
H336 H 0.46788 0.98449 0.63207 0.0
C337 C 0.37416 1.01829 0.64778 0.0
C338 C 0.45288 1.02301 0.64882 0.0
H339 H 0.33304 0.97664 0.63023 0.0
H340 H 0.89831 0.15712 0.69606 0.0
H341 H 0.7634 0.15218 0.69397 0.0
H342 H 0.70203 0.95057 0.62452 0.0
H343 H 0.83597 0.95528 0.62676 0.0
H344 H 0.59619 0.9964 0.63891 0.0
H345 H 0.63368 0.13146 0.69115 0.0
H346 H 0.52597 0.16737 0.70903 0.0
H347 H 0.3911 0.1584 0.7074 0.0
C348 C 0.68563 0.81778 0.02026 0.0
C349 C 0.66517 0.84855 0.00107 0.0
C350 C 0.62927 0.77667 0.02759 0.0
C351 C 0.5529 0.7657 0.01529 0.0
C352 C 0.53275 0.80643 5e-05 0.0
C353 C 0.58928 0.84821 -0.0071 0.0
C354 C 0.49978 0.69782 0.01051 0.0
C355 C 0.51235 0.63696 -0.00588 0.0
C356 C 0.47047 0.56784 -0.00671 0.0
C357 C 0.5117 0.52565 0.00202 0.0
C358 C 0.47666 0.47722 0.01267 0.0
C359 C 0.40051 0.47067 0.014 0.0
H360 H 0.3591 0.58377 0.98308 0.0
C361 C 0.35661 0.50366 0.00083 0.0
C362 C 0.39167 0.55243 0.99041 0.0
H363 H 0.2975 0.49816 0.00156 0.0
H364 H 0.74433 0.81879 0.02698 0.0
H365 H 0.64518 0.74573 0.03965 0.0
H366 H 0.4738 0.7984 0.99061 0.0
H367 H 0.57312 0.8725 0.97823 0.0
H368 H 0.45262 0.69756 0.02072 0.0
H369 H 0.56189 0.63899 0.98512 0.0
H370 H 0.57259 0.53674 0.00404 0.0
H371 H 0.51089 0.45161 0.02278 0.0
C372 C 0.93888 0.53126 0.33071 0.0
C373 C 0.93629 0.55458 0.35896 0.0
C374 C 0.92421 0.57405 0.31575 0.0
C375 C 0.91375 0.64129 0.33033 0.0
C376 C 0.88307 0.64869 0.35376 0.0
C377 C 0.89906 0.60756 0.36927 0.0
C378 C 0.9776 0.70279 0.335 0.0
C379 C 0.04668 0.70548 0.34894 0.0
C380 C 0.11266 0.76669 0.35681 0.0
C381 C 0.18225 0.75533 0.3515 0.0
C382 C 0.23595 0.81086 0.34949 0.0
C383 C 0.21526 0.87385 0.35026 0.0
H384 H 0.05568 0.84796 0.37421 0.0
C385 C 0.1618 0.89176 0.36632 0.0
C386 C 0.10606 0.83674 0.36736 0.0
H387 H 0.15158 0.94385 0.37222 0.0
H388 H 0.96483 0.48854 0.32188 0.0
H389 H 0.94192 0.56438 0.29628 0.0
H390 H 0.86749 0.6974 0.36401 0.0
H391 H 0.89305 0.62397 0.39059 0.0
H392 H 0.96706 0.74785 0.32999 0.0
H393 H 0.05639 0.65947 0.35338 0.0
H394 H 0.19129 0.70227 0.34572 0.0
H395 H 0.28489 0.79876 0.34181 0.0
C396 C 0.11356 0.19768 0.25798 0.0
C397 C 0.0557 0.20328 0.27264 0.0
C398 C 0.10163 0.19558 0.23058 0.0
C399 C 1.0306 0.19684 0.21691 0.0
C400 C 0.97303 0.20301 0.23176 0.0
C401 C 0.9859 0.20768 0.25951 0.0
C402 C 1.01365 0.1868 0.18677 0.0
C403 C 0.06511 0.21403 0.17459 0.0
C404 C 0.04963 0.20428 0.14449 0.0
C405 C 0.08568 0.25932 0.1367 0.0
C406 C 0.0781 0.25024 0.10862 0.0
C407 C 1.03601 0.18489 0.08737 0.0
H408 H 0.97711 0.09578 0.12855 0.0
C409 C 0.99814 0.1302 0.0951 0.0
C410 C 1.00466 0.13984 0.12334 0.0
H411 H 0.96556 0.07907 0.07934 0.0
H412 H 0.16765 0.19347 0.26757 0.0
H413 H 0.14693 0.18966 0.21971 0.0
H414 H 0.91754 0.20331 0.22173 0.0
H415 H 0.93982 0.21039 0.27013 0.0
H416 H 0.95616 0.15872 0.1746 0.0
H417 H 0.12021 0.24795 0.18749 0.0
H418 H 0.12069 0.30949 0.15246 0.0
H419 H 0.10765 0.29377 0.10355 0.0
C420 C 0.04687 0.15912 0.4363 0.0
C421 C 0.0785 0.12124 0.41496 0.0
C422 C 0.05099 0.14628 0.46101 0.0
C423 C 0.08524 0.09393 0.46483 0.0
C424 C 0.11535 0.05486 0.44338 0.0
C425 C 0.11311 0.06929 0.41893 0.0
C426 C 0.08714 0.07762 0.49055 0.0
C427 C 0.10108 0.12925 0.516 0.0
C428 C 0.10197 0.11375 0.54183 0.0
C429 C 0.15644 0.15886 0.56621 0.0
C430 C 0.15739 0.14656 0.59099 0.0
C431 C 0.10255 0.0898 0.59216 0.0
H432 H 1.00274 1.02286 0.52459 0.0
C433 C 0.04644 0.04607 0.56788 0.0
C434 C 0.04678 0.05726 0.54289 0.0
H435 H 1.00212 1.00307 0.56812 0.0
H436 H 1.01843 0.19881 0.43393 0.0
H437 H 1.02566 0.17619 0.47685 0.0
H438 H 0.14186 1.01401 0.44576 0.0
H439 H 0.13922 1.04062 0.40328 0.0
H440 H 0.08001 1.0222 0.4886 0.0
H441 H 0.11601 0.18513 0.51821 0.0
H442 H 0.19901 0.20332 0.56602 0.0
H443 H 0.20115 0.18183 0.60925 0.0
C444 C 0.05564 0.08799 0.75496 0.0
C445 C 0.08532 1.03571 0.73816 0.0
C446 C 0.04952 0.09178 0.78181 0.0
C447 C 0.07175 1.04218 0.7924 0.0
C448 C 0.09664 0.98695 0.77476 0.0
C449 C 0.10342 0.98372 0.74799 0.0
C450 C 0.06808 0.04502 0.82125 0.0
C451 C 0.07077 0.1054 0.84276 0.0
C452 C 0.07066 0.11 0.87204 0.0
C453 C 0.09729 0.17759 0.89385 0.0
C454 C 0.09748 0.18514 0.9215 0.0
C455 C 0.06958 0.12544 0.92815 0.0
H456 H 1.02014 0.99717 0.86268 0.0
C457 C 0.04217 0.05776 0.90642 0.0
C458 C 0.04288 0.05001 0.87873 0.0
H459 H 1.01992 1.0107 0.91082 0.0
H460 H 1.03668 0.12595 0.74724 0.0
H461 H 1.02658 0.13316 0.79399 0.0
H462 H 0.11257 0.94688 0.78194 0.0
H463 H 0.12442 0.94143 0.73537 0.0
H464 H 0.06777 0.99623 0.82512 0.0
H465 H 0.07737 0.15531 0.83928 0.0
H466 H 0.11831 0.22504 0.88951 0.0
H467 H 0.1181 0.23815 0.93765 0.0
loop_
_geom_bond_atom_site_label_1
_geom_bond_atom_site_label_2
_geom_bond_distance
_geom_bond_site_symmetry_2
_ccdc_geom_bond_type
Eu0 N29 2.600 . S
Eu0 N35 2.562 1_556 S
Eu0 O44 2.462 1_546 S
Eu0 O45 2.373 1_556 S
Eu0 O47 2.432 1_545 S
Eu0 O48 2.291 1_556 S
Eu0 O52 2.335 1_546 S
Eu0 O55 2.372 . S
Eu0 C64 2.787 1_545 S
C1 N2 1.365 . S
C1 C4 1.405 . S
C1 C8 1.448 . S
N2 C1 1.365 . S
N2 C5 1.319 . S
N2 Eu11 2.600 . S
C3 C5 1.397 . S
C3 C6 1.367 . S
C3 H23 0.931 . S
C4 C1 1.405 . S
C4 C6 1.403 . S
C4 C10 1.439 . S
C5 N2 1.319 . S
C5 C3 1.397 . S
C5 H16 0.930 . S
C6 C3 1.367 . S
C6 C4 1.403 . S
C6 H27 0.929 . S
C7 C8 1.430 . S
C7 C9 1.387 . S
C7 C13 1.404 1_554 S
C8 C1 1.448 . S
C8 C7 1.430 . S
C8 N12 1.351 . S
C9 C7 1.387 . S
C9 C10 1.374 . S
C9 H24 0.931 . S
C10 C4 1.439 . S
C10 C9 1.374 . S
C10 H25 0.931 . S
Eu11 N2 2.600 . S
Eu11 N12 2.562 . S
Eu11 O46 2.335 . S
Eu11 O49 2.372 . S
Eu11 O50 2.462 . S
Eu11 O51 2.373 . S
Eu11 O53 2.432 . S
Eu11 O54 2.291 1_554 S
Eu11 C75 2.787 . S
N12 C8 1.351 . S
N12 Eu11 2.562 . S
N12 C14 1.325 1_554 S
C13 C7 1.404 1_556 S
C13 C15 1.366 . S
C13 H21 0.930 . S
C14 N12 1.325 1_556 S
C14 C15 1.416 . S
C14 H20 0.929 . S
C15 C13 1.366 . S
C15 C14 1.416 . S
C15 H17 0.930 . S
H16 C5 0.930 . S
H17 C15 0.930 . S
H18 C33 0.930 . S
H19 C40 0.930 . S
H20 C14 0.929 . S
H21 C13 0.930 . S
H22 C36 0.929 . S
H23 C3 0.931 . S
H24 C9 0.931 . S
H25 C10 0.931 . S
H26 C31 0.931 . S
H27 C6 0.929 . S
H28 C39 0.930 . S
N29 Eu0 2.600 . S
N29 C30 1.365 . S
N29 C33 1.319 . S
C30 N29 1.365 . S
C30 C32 1.405 . S
C30 C38 1.489 . S
C31 H26 0.931 . S
C31 C33 1.397 . S
C31 C34 1.367 . S
C32 C30 1.405 . S
C32 C34 1.403 . S
C32 C65 1.439 . S
C33 H18 0.930 . S
C33 N29 1.319 . S
C33 C31 1.397 . S
C34 C31 1.367 . S
C34 C32 1.403 . S
C34 H41 0.929 . S
N35 Eu0 2.562 1_554 S
N35 C36 1.325 . S
N35 C38 1.321 1_554 S
C36 H22 0.929 . S
C36 N35 1.325 . S
C36 C40 1.416 . S
C37 C38 1.421 1_554 S
C37 C39 1.404 . S
C37 C66 1.387 1_554 S
C38 C30 1.489 . S
C38 N35 1.321 1_556 S
C38 C37 1.421 1_556 S
C39 H28 0.930 . S
C39 C37 1.404 . S
C39 C40 1.366 . S
C40 H19 0.930 . S
C40 C36 1.416 . S
C40 C39 1.366 . S
H41 C34 0.929 . S
H42 C65 0.931 . S
H43 C66 0.931 . S
O44 Eu0 2.462 1_564 S
O44 C64 1.252 1_554 S
O45 Eu0 2.373 1_554 S
O45 C56 1.249 . S
O46 Eu11 2.335 . S
O46 C56 1.264 1_455 S
O47 Eu0 2.432 1_565 S
O47 C64 1.268 . S
O48 Eu0 2.291 1_554 S
O48 C63 1.248 1_655 S
O49 Eu11 2.372 . S
O49 C63 1.269 . S
O50 Eu11 2.462 . S
O50 C75 1.252 . S
O51 Eu11 2.373 . S
O51 C67 1.249 1_545 S
O52 Eu0 2.335 1_564 S
O52 C67 1.264 1_655 S
O53 Eu11 2.432 . S
O53 C75 1.268 . S
O54 Eu11 2.291 1_556 S
O54 C74 1.255 . S
O55 Eu0 2.372 . S
O55 C74 1.257 1_655 S
C56 O45 1.249 . S
C56 O46 1.264 1_655 S
C57 C60 1.382 . S
C57 C62 1.390 1_556 S
C57 C64 1.506 . S
C58 C59 1.398 1_554 S
C58 C62 1.392 . S
C59 C58 1.398 1_556 S
C59 C61 1.372 . S
C59 H76 0.931 . S
C60 C57 1.382 . S
C60 C61 1.390 . S
C60 H77 0.931 . S
C61 C59 1.372 . S
C61 C60 1.390 . S
C61 H78 0.929 . S
C62 C57 1.390 1_554 S
C62 C58 1.392 . S
C62 H79 0.930 . S
C63 O48 1.248 1_455 S
C63 O49 1.269 . S
C64 Eu0 2.787 1_565 S
C64 O44 1.252 1_556 S
C64 O47 1.268 . S
C64 C57 1.506 . S
C65 C32 1.439 . S
C65 H42 0.931 . S
C65 C66 1.374 . S
C66 C37 1.387 1_556 S
C66 H43 0.931 . S
C66 C65 1.374 . S
C67 O51 1.249 1_565 S
C67 O52 1.264 1_455 S
C68 C71 1.382 . S
C68 C72 1.390 . S
C68 C75 1.506 . S
C69 C70 1.398 . S
C69 C72 1.392 . S
C70 C69 1.398 . S
C70 C73 1.372 . S
C70 H80 0.931 . S
C71 C68 1.382 . S
C71 C73 1.390 . S
C71 H81 0.931 . S
C72 C68 1.390 . S
C72 C69 1.392 . S
C72 H82 0.930 1_554 S
C73 C70 1.372 . S
C73 C71 1.390 . S
C73 H83 0.929 . S
C74 O54 1.255 . S
C74 O55 1.257 1_455 S
C75 Eu11 2.787 . S
C75 O50 1.252 . S
C75 O53 1.268 . S
C75 C68 1.506 . S
H76 C59 0.931 . S
H77 C60 0.931 . S
H78 C61 0.929 . S
H79 C62 0.930 . S
H80 C70 0.931 . S
H81 C71 0.931 . S
H82 C72 0.930 1_556 S
H83 C73 0.929 . S
Eu84 N113 2.600 1_545 S
Eu84 N119 2.562 1_545 S
Eu84 O128 2.462 1_645 S
Eu84 O129 2.373 . S
Eu84 O131 2.432 1_645 S
Eu84 O132 2.291 1_655 S
Eu84 O136 2.335 1_655 S
Eu84 O139 2.372 1_655 S
Eu84 C148 2.787 1_645 S
C85 N86 1.365 . S
C85 C88 1.405 . S
C85 C92 1.448 . S
N86 C85 1.365 . S
N86 C89 1.319 . S
N86 Eu95 2.600 . S
C87 C89 1.397 . S
C87 C90 1.367 . S
C87 H107 0.931 . S
C88 C85 1.405 . S
C88 C90 1.403 . S
C88 C94 1.439 . S
C89 N86 1.319 . S
C89 C87 1.397 . S
C89 H100 0.930 . S
C90 C87 1.367 . S
C90 C88 1.403 . S
C90 H111 0.929 . S
C91 C92 1.430 . S
C91 C93 1.387 . S
C91 C97 1.404 . S
C92 C85 1.448 . S
C92 C91 1.430 . S
C92 N96 1.351 . S
C93 C91 1.387 . S
C93 C94 1.374 . S
C93 H108 0.931 . S
C94 C88 1.439 . S
C94 C93 1.374 . S
C94 H109 0.931 . S
Eu95 N86 2.600 . S
Eu95 N96 2.562 . S
Eu95 O130 2.335 1_455 S
Eu95 O133 2.372 . S
Eu95 O134 2.462 . S
Eu95 O135 2.373 . S
Eu95 O137 2.432 . S
Eu95 O138 2.291 . S
Eu95 C159 2.787 . S
N96 C92 1.351 . S
N96 Eu95 2.562 . S
N96 C98 1.325 . S
C97 C91 1.404 . S
C97 C99 1.366 . S
C97 H105 0.930 . S
C98 N96 1.325 . S
C98 C99 1.416 . S
C98 H104 0.929 . S
C99 C97 1.366 . S
C99 C98 1.416 . S
C99 H101 0.930 . S
H100 C89 0.930 . S
H101 C99 0.930 . S
H102 C117 0.930 . S
H103 C124 0.930 . S
H104 C98 0.929 . S
H105 C97 0.930 . S
H106 C120 0.929 . S
H107 C87 0.931 . S
H108 C93 0.931 . S
H109 C94 0.931 . S
H110 C115 0.931 . S
H111 C90 0.929 . S
H112 C123 0.930 . S
N113 Eu84 2.600 1_565 S
N113 C114 1.365 . S
N113 C117 1.319 . S
C114 N113 1.365 . S
C114 C116 1.405 . S
C114 C122 1.448 . S
C115 H110 0.931 . S
C115 C117 1.397 . S
C115 C118 1.367 . S
C116 C114 1.405 . S
C116 C118 1.403 . S
C116 C149 1.439 . S
C117 H102 0.930 . S
C117 N113 1.319 . S
C117 C115 1.397 . S
C118 C115 1.367 . S
C118 C116 1.403 . S
C118 H125 0.929 . S
N119 Eu84 2.562 1_565 S
N119 C120 1.325 . S
N119 C122 1.351 . S
C120 H106 0.929 . S
C120 N119 1.325 . S
C120 C124 1.416 . S
C121 C122 1.430 . S
C121 C123 1.404 . S
C121 C150 1.387 . S
C122 C114 1.448 . S
C122 N119 1.351 . S
C122 C121 1.430 . S
C123 H112 0.930 . S
C123 C121 1.404 . S
C123 C124 1.366 . S
C124 H103 0.930 . S
C124 C120 1.416 . S
C124 C123 1.366 . S
H125 C118 0.929 . S
H126 C149 0.931 . S
H127 C150 0.931 . S
O128 Eu84 2.462 1_465 S
O128 C148 1.252 . S
O129 Eu84 2.373 . S
O129 C140 1.249 . S
O130 Eu95 2.335 1_655 S
O130 C140 1.264 . S
O131 Eu84 2.432 1_465 S
O131 C148 1.268 . S
O132 Eu84 2.291 1_455 S
O132 C147 1.255 . S
O133 Eu95 2.372 . S
O133 C147 1.257 . S
O134 Eu95 2.462 . S
O134 C159 1.252 . S
O135 Eu95 2.373 . S
O135 C151 1.249 . S
O136 Eu84 2.335 1_455 S
O136 C151 1.264 . S
O137 Eu95 2.432 . S
O137 C159 1.268 . S
O138 Eu95 2.291 . S
O138 C158 1.255 . S
O139 Eu84 2.372 1_455 S
O139 C158 1.257 . S
C140 O129 1.249 . S
C140 O130 1.264 . S
C141 C144 1.382 . S
C141 C146 1.390 . S
C141 C148 1.506 . S
C142 C143 1.398 . S
C142 C146 1.392 . S
C143 C142 1.398 . S
C143 C145 1.372 . S
C143 H160 0.931 . S
C144 C141 1.382 . S
C144 C145 1.390 . S
C144 H161 0.931 . S
C145 C143 1.372 . S
C145 C144 1.390 . S
C145 H162 0.929 . S
C146 C141 1.390 . S
C146 C142 1.392 . S
C146 H163 0.930 . S
C147 O132 1.255 . S
C147 O133 1.257 . S
C148 Eu84 2.787 1_465 S
C148 O128 1.252 . S
C148 O131 1.268 . S
C148 C141 1.506 . S
C149 C116 1.439 . S
C149 H126 0.931 . S
C149 C150 1.374 . S
C150 C121 1.387 . S
C150 H127 0.931 . S
C150 C149 1.374 . S
C151 O135 1.249 . S
C151 O136 1.264 . S
C152 C155 1.382 . S
C152 C156 1.390 . S
C152 C159 1.506 . S
C153 C154 1.394 . S
C153 C156 1.392 1_655 S
C154 C153 1.394 . S
C154 C157 1.369 1_655 S
C154 H164 0.938 . S
C155 C152 1.382 . S
C155 C157 1.390 . S
C155 H165 0.931 . S
C156 C152 1.390 . S
C156 C153 1.392 1_455 S
C156 H166 0.930 . S
C157 C154 1.369 1_455 S
C157 C155 1.390 . S
C157 H167 0.929 . S
C158 O138 1.255 . S
C158 O139 1.257 . S
C159 Eu95 2.787 . S
C159 O134 1.252 . S
C159 O137 1.268 . S
C159 C152 1.506 . S
H160 C143 0.931 . S
H161 C144 0.931 . S
H162 C145 0.929 . S
H163 C146 0.930 . S
H164 C154 0.938 . S
H165 C155 0.931 . S
H166 C156 0.930 . S
H167 C157 0.929 . S
Eu168 N197 2.600 . S
Eu168 N203 2.562 . S
Eu168 O212 2.462 . S
Eu168 O213 2.373 1_455 S
Eu168 O215 2.432 . S
Eu168 O216 2.291 . S
Eu168 O220 2.335 . S
Eu168 O223 2.372 . S
Eu168 C232 2.787 . S
C169 N170 1.365 . S
C169 C172 1.405 . S
C169 C176 1.448 . S
N170 C169 1.365 . S
N170 C173 1.319 . S
N170 Eu179 2.600 . S
C171 C173 1.397 . S
C171 C174 1.367 . S
C171 H191 0.931 . S
C172 C169 1.405 . S
C172 C174 1.403 . S
C172 C178 1.439 . S
C173 N170 1.319 . S
C173 C171 1.397 . S
C173 H184 0.930 . S
C174 C171 1.367 . S
C174 C172 1.403 . S
C174 H195 0.929 . S
C175 C176 1.430 . S
C175 C177 1.387 . S
C175 C181 1.404 . S
C176 C169 1.448 . S
C176 C175 1.430 . S
C176 N180 1.351 . S
C177 C175 1.387 . S
C177 C178 1.374 . S
C177 H192 0.931 . S
C178 C172 1.439 . S
C178 C177 1.374 . S
C178 H193 0.931 . S
Eu179 N170 2.600 . S
Eu179 N180 2.562 . S
Eu179 O214 2.335 1_455 S
Eu179 O217 2.372 . S
Eu179 O218 2.462 1_455 S
Eu179 O219 2.373 . S
Eu179 O221 2.432 1_455 S
Eu179 O222 2.291 . S
Eu179 C243 2.787 1_455 S
N180 C176 1.351 . S
N180 Eu179 2.562 . S
N180 C182 1.325 . S
C181 C175 1.404 . S
C181 C183 1.366 . S
C181 H189 0.930 . S
C182 N180 1.325 . S
C182 C183 1.416 . S
C182 H188 0.929 . S
C183 C181 1.366 . S
C183 C182 1.416 . S
C183 H185 0.930 . S
H184 C173 0.930 . S
H185 C183 0.930 . S
H186 C201 0.930 . S
H187 C208 0.930 . S
H188 C182 0.929 . S
H189 C181 0.930 . S
H190 C204 0.929 . S
H191 C171 0.931 . S
H192 C177 0.931 . S
H193 C178 0.931 . S
H194 C199 0.931 . S
H195 C174 0.929 . S
H196 C207 0.930 . S
N197 Eu168 2.600 . S
N197 C198 1.365 . S
N197 C201 1.319 . S
C198 N197 1.365 . S
C198 C200 1.405 . S
C198 C206 1.448 . S
C199 H194 0.931 . S
C199 C201 1.397 . S
C199 C202 1.367 . S
C200 C198 1.405 . S
C200 C202 1.403 . S
C200 C233 1.439 1_455 S
C201 H186 0.930 . S
C201 N197 1.319 . S
C201 C199 1.397 . S
C202 C199 1.367 . S
C202 C200 1.403 . S
C202 H209 0.929 . S
N203 Eu168 2.562 . S
N203 C204 1.325 . S
N203 C206 1.351 . S
C204 H190 0.929 . S
C204 N203 1.325 . S
C204 C208 1.416 1_455 S
C205 C206 1.430 1_655 S
C205 C207 1.404 . S
C205 C234 1.387 . S
C206 C198 1.448 . S
C206 N203 1.351 . S
C206 C205 1.430 1_455 S
C207 H196 0.930 . S
C207 C205 1.404 . S
C207 C208 1.366 . S
C208 H187 0.930 . S
C208 C204 1.416 1_655 S
C208 C207 1.366 . S
H209 C202 0.929 . S
H210 C233 0.931 . S
H211 C234 0.931 . S
O212 Eu168 2.462 . S
O212 C232 1.252 . S
O213 Eu168 2.373 1_655 S
O213 C224 1.249 . S
O214 Eu179 2.335 1_655 S
O214 C224 1.264 1_565 S
O215 Eu168 2.432 . S
O215 C232 1.268 . S
O216 Eu168 2.291 . S
O216 C231 1.255 . S
O217 Eu179 2.372 . S
O217 C231 1.257 1_565 S
O218 Eu179 2.462 1_655 S
O218 C243 1.252 . S
O219 Eu179 2.373 . S
O219 C235 1.249 1_565 S
O220 Eu168 2.335 . S
O220 C235 1.264 . S
O221 Eu179 2.432 1_655 S
O221 C243 1.268 . S
O222 Eu179 2.291 . S
O222 C242 1.255 1_565 S
O223 Eu168 2.372 . S
O223 C242 1.257 . S
C224 O213 1.249 . S
C224 O214 1.264 1_545 S
C225 C228 1.382 . S
C225 C230 1.390 . S
C225 C232 1.506 . S
C226 C227 1.398 . S
C226 C230 1.392 . S
C227 C226 1.398 . S
C227 C229 1.372 . S
C227 H244 0.931 . S
C228 C225 1.382 . S
C228 C229 1.390 . S
C228 H245 0.931 . S
C229 C227 1.372 . S
C229 C228 1.390 . S
C229 H246 0.929 . S
C230 C225 1.390 . S
C230 C226 1.392 . S
C230 H247 0.930 . S
C231 O216 1.255 . S
C231 O217 1.257 1_545 S
C232 Eu168 2.787 . S
C232 O212 1.252 . S
C232 O215 1.268 . S
C232 C225 1.506 . S
C233 C200 1.439 1_655 S
C233 H210 0.931 . S
C233 C234 1.374 . S
C234 C205 1.387 . S
C234 H211 0.931 . S
C234 C233 1.374 . S
C235 O219 1.249 1_545 S
C235 O220 1.264 . S
C236 C239 1.382 . S
C236 C240 1.390 . S
C236 C243 1.506 . S
C237 C238 1.398 . S
C237 C240 1.392 . S
C238 C237 1.398 . S
C238 C241 1.372 . S
C238 H248 0.931 . S
C239 C236 1.382 . S
C239 C241 1.390 . S
C239 H249 0.931 . S
C240 C236 1.390 . S
C240 C237 1.392 . S
C240 H250 0.930 . S
C241 C238 1.372 . S
C241 C239 1.390 . S
C241 H251 0.929 . S
C242 O222 1.255 1_545 S
C242 O223 1.257 . S
C243 Eu179 2.787 1_655 S
C243 O218 1.252 . S
C243 O221 1.268 . S
C243 C236 1.506 . S
H244 C227 0.931 . S
H245 C228 0.931 . S
H246 C229 0.929 . S
H247 C230 0.930 . S
H248 C238 0.931 . S
H249 C239 0.931 . S
H250 C240 0.930 . S
H251 C241 0.929 . S
C252 C253 1.386 . S
C252 C254 1.383 . S
C252 H268 0.951 . S
C253 C252 1.386 . S
C253 C257 1.383 1_655 S
C254 C252 1.383 . S
C254 C255 1.402 1_655 S
C254 H269 0.951 . S
C255 C254 1.402 1_455 S
C255 C256 1.375 . S
C255 C258 1.481 . S
C256 C255 1.375 . S
C256 C257 1.367 . S
C256 H270 0.951 1_554 S
C257 C253 1.383 1_455 S
C257 C256 1.367 . S
C257 H271 0.950 1_554 S
C258 C255 1.481 . S
C258 C259 1.297 . S
C258 H272 0.950 . S
C259 C258 1.297 . S
C259 C260 1.479 . S
C259 H273 0.950 1_455 S
C260 C259 1.479 . S
C260 C261 1.375 1_455 S
C260 C266 1.404 . S
C261 C260 1.375 1_655 S
C261 C262 1.369 . S
C261 H274 0.950 . S
C262 C261 1.369 . S
C262 C263 1.392 1_655 S
C262 H275 0.951 . S
C263 C262 1.392 1_455 S
C263 C265 1.384 . S
H264 C266 0.949 . S
C265 C263 1.384 . S
C265 C266 1.385 . S
C265 H267 0.950 1_554 S
C266 C260 1.404 . S
C266 H264 0.949 . S
C266 C265 1.385 . S
H267 C265 0.950 1_556 S
H268 C252 0.951 . S
H269 C254 0.951 . S
H270 C256 0.951 1_556 S
H271 C257 0.950 1_556 S
H272 C258 0.950 . S
H273 C259 0.950 1_655 S
H274 C261 0.950 . S
H275 C262 0.951 . S
C276 C277 1.386 . S
C276 C278 1.383 . S
C276 H292 0.951 . S
C277 C276 1.386 . S
C277 C281 1.383 . S
C278 C276 1.383 . S
C278 C279 1.402 . S
C278 H293 0.951 . S
C279 C278 1.402 . S
C279 C280 1.375 . S
C279 C282 1.481 . S
C280 C279 1.375 . S
C280 C281 1.367 . S
C280 H294 0.951 . S
C281 C277 1.383 . S
C281 C280 1.367 . S
C281 H295 0.950 . S
C282 C279 1.481 . S
C282 C283 1.297 . S
C282 H296 0.950 . S
C283 C282 1.297 . S
C283 C284 1.479 . S
C283 H297 0.950 . S
C284 C283 1.479 . S
C284 C285 1.375 . S
C284 C290 1.404 . S
C285 C284 1.375 . S
C285 C286 1.369 . S
C285 H298 0.950 . S
C286 C285 1.369 . S
C286 C287 1.392 . S
C286 H299 0.951 . S
C287 C286 1.392 . S
C287 C289 1.384 . S
H288 C290 0.949 . S
C289 C287 1.384 . S
C289 C290 1.385 . S
C289 H291 0.950 . S
C290 C284 1.404 . S
C290 H288 0.949 . S
C290 C289 1.385 . S
H291 C289 0.950 . S
H292 C276 0.951 . S
H293 C278 0.951 . S
H294 C280 0.951 . S
H295 C281 0.950 . S
H296 C282 0.950 . S
H297 C283 0.950 . S
H298 C285 0.950 . S
H299 C286 0.951 . S
C300 C301 1.386 . S
C300 C302 1.383 . S
C300 H316 0.951 . S
C301 C300 1.386 . S
C301 C305 1.383 . S
C302 C300 1.383 . S
C302 C303 1.402 . S
C302 H317 0.951 . S
C303 C302 1.402 . S
C303 C304 1.375 . S
C303 C306 1.481 . S
C304 C303 1.375 . S
C304 C305 1.367 . S
C304 H318 0.951 . S
C305 C301 1.383 . S
C305 C304 1.367 . S
C305 H319 0.950 . S
C306 C303 1.481 . S
C306 C307 1.297 . S
C306 H320 0.950 . S
C307 C306 1.297 . S
C307 C308 1.479 . S
C307 H321 0.950 . S
C308 C307 1.479 . S
C308 C309 1.375 . S
C308 C314 1.404 . S
C309 C308 1.375 . S
C309 C310 1.369 . S
C309 H322 0.950 . S
C310 C309 1.369 . S
C310 C311 1.392 . S
C310 H323 0.951 . S
C311 C310 1.392 . S
C311 C313 1.384 . S
H312 C314 0.949 . S
C313 C311 1.384 . S
C313 C314 1.385 . S
C313 H315 0.950 . S
C314 C308 1.404 . S
C314 H312 0.949 . S
C314 C313 1.385 . S
H315 C313 0.950 . S
H316 C300 0.951 . S
H317 C302 0.951 . S
H318 C304 0.951 . S
H319 C305 0.950 . S
H320 C306 0.950 . S
H321 C307 0.950 . S
H322 C309 0.950 . S
H323 C310 0.951 . S
C324 C325 1.386 . S
C324 C326 1.383 . S
C324 H340 0.951 . S
C325 C324 1.386 . S
C325 C329 1.383 1_545 S
C326 C324 1.383 . S
C326 C327 1.402 . S
C326 H341 0.951 . S
C327 C326 1.402 . S
C327 C328 1.375 1_545 S
C327 C330 1.481 . S
C328 C327 1.375 1_565 S
C328 C329 1.367 . S
C328 H342 0.951 . S
C329 C325 1.383 1_565 S
C329 C328 1.367 . S
C329 H343 0.950 . S
C330 C327 1.481 . S
C330 C331 1.297 . S
C330 H344 0.950 1_545 S
C331 C330 1.297 . S
C331 C332 1.479 . S
C331 H345 0.950 . S
C332 C331 1.479 . S
C332 C333 1.375 . S
C332 C338 1.404 1_545 S
C333 C332 1.375 . S
C333 C334 1.369 . S
C333 H346 0.950 . S
C334 C333 1.369 . S
C334 C335 1.392 . S
C334 H347 0.951 . S
C335 C334 1.392 . S
C335 C337 1.384 1_545 S
H336 C338 0.949 . S
C337 C335 1.384 1_565 S
C337 C338 1.385 . S
C337 H339 0.950 . S
C338 C332 1.404 1_565 S
C338 H336 0.949 . S
C338 C337 1.385 . S
H339 C337 0.950 . S
H340 C324 0.951 . S
H341 C326 0.951 . S
H342 C328 0.951 . S
H343 C329 0.950 . S
H344 C330 0.950 1_565 S
H345 C331 0.950 . S
H346 C333 0.950 . S
H347 C334 0.951 . S
C348 C349 1.386 . S
C348 C350 1.383 . S
C348 H364 0.951 . S
C349 C348 1.386 . S
C349 C353 1.382 . S
C350 C348 1.383 . S
C350 C351 1.402 . S
C350 H365 0.951 . S
C351 C350 1.402 . S
C351 C352 1.375 1_554 S
C351 C354 1.481 . S
C352 C351 1.375 1_556 S
C352 C353 1.367 1_556 S
C352 H366 0.951 . S
C353 C349 1.382 . S
C353 C352 1.367 1_554 S
C353 H367 0.951 1_554 S
C354 C351 1.481 . S
C354 C355 1.297 . S
C354 H368 0.950 1_554 S
C355 C354 1.297 . S
C355 C356 1.479 . S
C355 H369 0.950 . S
C356 C355 1.479 . S
C356 C357 1.375 . S
C356 C362 1.404 1_554 S
C357 C356 1.375 . S
C357 C358 1.369 . S
C357 H370 0.950 . S
C358 C357 1.369 . S
C358 C359 1.392 . S
C358 H371 0.951 . S
C359 C358 1.392 . S
C359 C361 1.384 1_554 S
H360 C362 0.949 . S
C361 C359 1.384 1_556 S
C361 C362 1.385 . S
C361 H363 0.950 . S
C362 C356 1.404 1_556 S
C362 H360 0.949 . S
C362 C361 1.385 . S
H363 C361 0.950 . S
H364 C348 0.951 . S
H365 C350 0.951 . S
H366 C352 0.951 . S
H367 C353 0.951 1_556 S
H368 C354 0.950 1_556 S
H369 C355 0.950 . S
H370 C357 0.950 . S
H371 C358 0.951 . S
C372 C373 1.386 . S
C372 C374 1.383 . S
C372 H388 0.951 . S
C373 C372 1.386 . S
C373 C377 1.383 . S
C374 C372 1.383 . S
C374 C375 1.402 . S
C374 H389 0.951 1_655 S
C375 C374 1.402 . S
C375 C376 1.375 . S
C375 C378 1.481 . S
C376 C375 1.375 . S
C376 C377 1.367 . S
C376 H390 0.951 . S
C377 C373 1.383 . S
C377 C376 1.367 . S
C377 H391 0.950 . S
C378 C375 1.481 . S
C378 C379 1.297 1_655 S
C378 H392 0.950 . S
C379 C378 1.297 1_455 S
C379 C380 1.479 . S
C379 H393 0.950 . S
C380 C379 1.479 . S
C380 C381 1.375 . S
C380 C386 1.404 . S
C381 C380 1.375 . S
C381 C382 1.369 . S
C381 H394 0.950 . S
C382 C381 1.369 . S
C382 C383 1.392 . S
C382 H395 0.951 . S
C383 C382 1.392 . S
C383 C385 1.384 . S
H384 C386 0.949 1_655 S
C385 C383 1.384 . S
C385 C386 1.385 . S
C385 H387 0.950 . S
C386 C380 1.404 . S
C386 H384 0.949 1_455 S
C386 C385 1.385 . S
H387 C385 0.950 . S
H388 C372 0.951 . S
H389 C374 0.951 1_455 S
H390 C376 0.951 . S
H391 C377 0.950 . S
H392 C378 0.950 . S
H393 C379 0.950 . S
H394 C381 0.950 . S
H395 C382 0.951 . S
C396 C397 1.386 . S
C396 C398 1.383 . S
C396 H412 0.951 . S
C397 C396 1.386 . S
C397 C401 1.383 1_455 S
C398 C396 1.383 . S
C398 C399 1.400 1_455 S
C398 H413 0.951 . S
C399 C398 1.400 1_655 S
C399 C400 1.377 . S
C399 C402 1.481 . S
C400 C399 1.377 . S
C400 C401 1.367 . S
C400 H414 0.951 . S
C401 C397 1.383 1_655 S
C401 C400 1.367 . S
C401 H415 0.950 . S
C402 C399 1.481 . S
C402 C403 1.297 1_655 S
C402 H416 0.950 . S
C403 C402 1.297 1_455 S
C403 C404 1.479 . S
C403 H417 0.950 . S
C404 C403 1.479 . S
C404 C405 1.375 . S
C404 C410 1.404 1_455 S
C405 C404 1.375 . S
C405 C406 1.369 . S
C405 H418 0.950 . S
C406 C405 1.369 . S
C406 C407 1.392 1_455 S
C406 H419 0.951 . S
C407 C406 1.392 1_655 S
C407 C409 1.384 . S
H408 C410 0.949 . S
C409 C407 1.384 . S
C409 C410 1.385 . S
C409 H411 0.950 . S
C410 C404 1.404 1_655 S
C410 H408 0.949 . S
C410 C409 1.385 . S
H411 C409 0.950 . S
H412 C396 0.951 . S
H413 C398 0.951 . S
H414 C400 0.951 . S
H415 C401 0.950 . S
H416 C402 0.950 . S
H417 C403 0.950 . S
H418 C405 0.950 . S
H419 C406 0.951 . S
C420 C421 1.386 . S
C420 C422 1.383 . S
C420 H436 0.951 . S
C421 C420 1.386 . S
C421 C425 1.383 . S
C422 C420 1.383 . S
C422 C423 1.402 . S
C422 H437 0.951 . S
C423 C422 1.402 . S
C423 C424 1.375 . S
C423 C426 1.481 . S
C424 C423 1.375 . S
C424 C425 1.367 . S
C424 H438 0.951 1_545 S
C425 C421 1.383 . S
C425 C424 1.367 . S
C425 H439 0.950 . S
C426 C423 1.481 . S
C426 C427 1.297 . S
C426 H440 0.950 . S
C427 C426 1.297 . S
C427 C428 1.479 . S
C427 H441 0.950 . S
C428 C427 1.479 . S
C428 C429 1.375 . S
C428 C434 1.404 1_545 S
C429 C428 1.375 . S
C429 C430 1.369 . S
C429 H442 0.950 . S
C430 C429 1.369 . S
C430 C431 1.392 . S
C430 H443 0.951 . S
C431 C430 1.392 . S
C431 C433 1.384 1_545 S
H432 C434 0.949 . S
C433 C431 1.384 1_565 S
C433 C434 1.385 . S
C433 H435 0.950 . S
C434 C428 1.404 1_565 S
C434 H432 0.949 . S
C434 C433 1.385 . S
H435 C433 0.950 . S
H436 C420 0.951 . S
H437 C422 0.951 . S
H438 C424 0.951 1_565 S
H439 C425 0.950 . S
H440 C426 0.950 . S
H441 C427 0.950 . S
H442 C429 0.950 . S
H443 C430 0.951 . S
C444 C445 1.386 . S
C444 C446 1.383 . S
C444 H460 0.951 . S
C445 C444 1.386 . S
C445 C449 1.383 1_545 S
C446 C444 1.383 . S
C446 C447 1.402 . S
C446 H461 0.951 . S
C447 C446 1.402 . S
C447 C448 1.375 1_545 S
C447 C450 1.481 . S
C448 C447 1.375 1_565 S
C448 C449 1.367 . S
C448 H462 0.951 . S
C449 C445 1.383 1_565 S
C449 C448 1.367 . S
C449 H463 0.950 . S
C450 C447 1.481 . S
C450 C451 1.297 . S
C450 H464 0.950 1_545 S
C451 C450 1.297 . S
C451 C452 1.479 . S
C451 H465 0.950 . S
C452 C451 1.479 . S
C452 C453 1.375 . S
C452 C458 1.404 . S
C453 C452 1.375 . S
C453 C454 1.369 . S
C453 H466 0.950 . S
C454 C453 1.369 . S
C454 C455 1.392 . S
C454 H467 0.951 . S
C455 C454 1.392 . S
C455 C457 1.384 . S
H456 C458 0.949 1_665 S
C457 C455 1.384 . S
C457 C458 1.385 . S
C457 H459 0.950 1_445 S
C458 C452 1.404 . S
C458 H456 0.949 1_445 S
C458 C457 1.385 . S
H459 C457 0.950 1_665 S
H460 C444 0.951 . S
H461 C446 0.951 . S
H462 C448 0.951 . S
H463 C449 0.950 . S
H464 C450 0.950 1_565 S
H465 C451 0.950 . S
H466 C453 0.950 . S
H467 C454 0.951 . S
C253 C56 4.235 . S
C263 C67 4.223 . S
C277 C151 2.573 . S
C287 C140 2.557 . S
C301 C237 0.674 . S
C311 C226 0.740 . S
C325 C224 2.551 . S
C335 C235 2.520 . S
C349 C58 0.696 . S
C359 C69 0.656 . S
C373 C153 1.296 . S
C383 C142 1.268 . S
C397 C158 1.498 . S
C407 C63 1.513 1_655 S
C421 C147 1.595 . S
C431 C231 1.536 . S
C445 C242 1.583 . S
C455 C74 1.555 . S
