# Generated by pormake.
# Topology vby, (6)-cn, num edge types: 1
# Building blocks:
#     Node 0, Type 0, BuildingBlock: BETFAJ_clean_sbu_0, # of connection points: 6
#     Node 1, Type 0, BuildingBlock: BETFAJ_clean_sbu_0, # of connection points: 6
#     Node 2, Type 0, BuildingBlock: BETFAJ_clean_sbu_0, # of connection points: 6
#     Node 3, Type 0, BuildingBlock: BETFAJ_clean_sbu_0, # of connection points: 6
#     Node 4, Type 0, BuildingBlock: BETFAJ_clean_sbu_0, # of connection points: 6
#     Node 5, Type 0, BuildingBlock: BETFAJ_clean_sbu_0, # of connection points: 6
#     Node 6, Type 0, BuildingBlock: BETFAJ_clean_sbu_0, # of connection points: 6
#     Node 7, Type 0, BuildingBlock: BETFAJ_clean_sbu_0, # of connection points: 6
#     Edge 8, Type (0, 0), BuildingBlock: EZIPEK_clean_linker_0, # of connection points: 2
#     Edge 9, Type (0, 0), BuildingBlock: EZIPEK_clean_linker_0, # of connection points: 2
#     Edge 10, Type (0, 0), BuildingBlock: EZIPEK_clean_linker_0, # of connection points: 2
#     Edge 11, Type (0, 0), BuildingBlock: EZIPEK_clean_linker_0, # of connection points: 2
#     Edge 12, Type (0, 0), BuildingBlock: EZIPEK_clean_linker_0, # of connection points: 2
#     Edge 13, Type (0, 0), BuildingBlock: EZIPEK_clean_linker_0, # of connection points: 2
#     Edge 14, Type (0, 0), BuildingBlock: EZIPEK_clean_linker_0, # of connection points: 2
#     Edge 15, Type (0, 0), BuildingBlock: EZIPEK_clean_linker_0, # of connection points: 2
#     Edge 16, Type (0, 0), BuildingBlock: EZIPEK_clean_linker_0, # of connection points: 2
#     Edge 17, Type (0, 0), BuildingBlock: EZIPEK_clean_linker_0, # of connection points: 2
#     Edge 18, Type (0, 0), BuildingBlock: EZIPEK_clean_linker_0, # of connection points: 2
#     Edge 19, Type (0, 0), BuildingBlock: EZIPEK_clean_linker_0, # of connection points: 2
#     Edge 20, Type (0, 0), BuildingBlock: EZIPEK_clean_linker_0, # of connection points: 2
#     Edge 21, Type (0, 0), BuildingBlock: EZIPEK_clean_linker_0, # of connection points: 2
#     Edge 22, Type (0, 0), BuildingBlock: EZIPEK_clean_linker_0, # of connection points: 2
#     Edge 23, Type (0, 0), BuildingBlock: EZIPEK_clean_linker_0, # of connection points: 2
#     Edge 24, Type (0, 0), BuildingBlock: EZIPEK_clean_linker_0, # of connection points: 2
#     Edge 25, Type (0, 0), BuildingBlock: EZIPEK_clean_linker_0, # of connection points: 2
#     Edge 26, Type (0, 0), BuildingBlock: EZIPEK_clean_linker_0, # of connection points: 2
#     Edge 27, Type (0, 0), BuildingBlock: EZIPEK_clean_linker_0, # of connection points: 2
#     Edge 28, Type (0, 0), BuildingBlock: EZIPEK_clean_linker_0, # of connection points: 2
#     Edge 29, Type (0, 0), BuildingBlock: EZIPEK_clean_linker_0, # of connection points: 2
#     Edge 30, Type (0, 0), BuildingBlock: EZIPEK_clean_linker_0, # of connection points: 2
#     Edge 31, Type (0, 0), BuildingBlock: EZIPEK_clean_linker_0, # of connection points: 2
# Relax obj value: 0.205
# Max RMSD: 0.224
# Mean RMSD: 0.224
data_MOF--net-vby--node1-BETFAJ_clean_sbu_0--edge1-EZIPEK_clean_linker_0
_symmetry_space_group_name_H-M    P1
_symmetry_Int_Tables_number       1
_symmetry_cell_setting            triclinic
loop_
_symmetry_equiv_pos_as_xyz
'x, y, z'
_cell_length_a     11.681809
_cell_length_b     88.611158
_cell_length_c     21.628385
_cell_angle_alpha  89.922408
_cell_angle_beta   85.324141
_cell_angle_gamma 89.355015
loop_
_atom_site_label
_atom_site_type_symbol
_atom_site_fract_x
_atom_site_fract_y
_atom_site_fract_z
_atom_type_partial_charge
Sm0 Sm 0.07552 0.40651 0.0108 0.0
Sm1 Sm 0.08213 0.37289 0.0066 0.0
C2 C 0.11178 0.43591 0.99521 0.0
C3 C 0.07734 0.45203 0.99534 0.0
C4 C 0.1303 0.46155 0.94989 0.0
C5 C 0.11475 0.47721 0.9537 0.0
C6 C 0.04554 0.48365 0.00301 0.0
C7 C 0.98857 0.47414 0.04731 0.0
C8 C 1.00489 0.45843 0.04374 0.0
C9 C 0.03837 0.39359 0.12667 0.0
C10 C 0.82826 0.39081 0.01241 0.0
C11 C 0.06256 0.34308 0.02167 0.0
C12 C 0.12519 0.32834 0.02119 0.0
C13 C 0.12239 0.31963 0.07573 0.0
C14 C 0.16682 0.30486 0.07468 0.0
C15 C 0.21505 0.29846 0.01904 0.0
C16 C 0.2215 0.30726 0.96482 0.0
C17 C 0.17677 0.32203 0.96578 0.0
C18 C 0.10089 0.38631 0.88969 0.0
C19 C 0.32869 0.3886 0.00499 0.0
O20 O 0.08747 0.42706 0.94983 0.0
O21 O 0.11407 0.42895 0.04834 0.0
O22 O 0.11327 0.38911 0.0846 0.0
O23 O 0.98377 0.40538 0.10819 0.0
O24 O 0.8828 0.40356 -0.00047 0.0
O25 O 0.88505 0.37817 0.02367 0.0
O26 O 0.07299 0.35241 0.06758 0.0
O27 O 0.05503 0.35002 0.96893 0.0
O28 O 1.03344 0.39032 0.93541 0.0
O29 O 0.16312 0.37493 0.90576 0.0
O30 O 0.27436 0.37591 0.01813 0.0
O31 O 0.2717 0.40108 0.99271 0.0
H32 H 0.18748 0.45689 0.91257 0.0
H33 H 0.15904 0.48434 0.919 0.0
H34 H 0.9345 0.47891 0.08559 0.0
H35 H 0.96378 0.45135 0.07969 0.0
H36 H 0.08235 0.3241 0.11893 0.0
H37 H 0.16107 0.29827 0.11701 0.0
H38 H 0.25815 0.30252 0.92138 0.0
H39 H 0.17972 0.32833 0.92274 0.0
Sm40 Sm 0.99833 0.66123 0.01326 0.0
Sm41 Sm 1.00052 0.62762 0.00625 0.0
C42 C 1.01533 0.69092 0.99515 0.0
C43 C 0.95753 0.70592 0.00057 0.0
C44 C 0.9718 0.71596 0.95026 0.0
C45 C 0.92772 0.73071 0.95499 0.0
C46 C 0.8681 0.73575 0.01018 0.0
C47 C 0.85062 0.72562 0.06016 0.0
C48 C 0.89538 0.71083 0.05552 0.0
C49 C 0.97038 0.64745 0.12953 0.0
C50 C 0.75183 0.6445 0.01594 0.0
C51 C 1.01447 0.59787 0.01313 0.0
C52 C 1.02336 0.58116 0.01628 0.0
C53 C 0.95609 0.57301 0.06147 0.0
C54 C 0.95811 0.55719 0.0613 0.0
C55 C 1.02767 0.54924 0.01611 0.0
C56 C 0.09645 0.55733 0.97164 0.0
C57 C 0.09406 0.57314 0.97159 0.0
C58 C 0.97874 0.64159 0.89203 0.0
C59 C 0.25042 0.6442 0.01066 0.0
O60 O 0.98311 0.68156 0.95339 0.0
O61 O 0.04285 0.68412 0.04563 0.0
O62 O 0.03827 0.64326 0.08435 0.0
O63 O 0.9125 0.65922 0.11326 0.0
O64 O 0.80862 0.65665 0.99656 0.0
O65 O 0.80777 0.63243 0.03382 0.0
O66 O 0.95526 0.60599 0.05539 0.0
O67 O 0.06889 0.60565 0.9687 0.0
O68 O 0.04531 0.64547 0.93219 0.0
O69 O 0.9201 0.63008 0.91266 0.0
O70 O 0.19522 0.63123 0.01302 0.0
O71 O 0.19505 0.65725 0.00778 0.0
H72 H 1.01953 0.71247 0.9075 0.0
H73 H 0.94167 0.73829 0.91583 0.0
H74 H 0.80438 0.72927 0.10308 0.0
H75 H 0.88302 0.70334 0.09507 0.0
H76 H 0.90029 0.57885 0.09628 0.0
H77 H 0.9047 0.55112 0.09607 0.0
H78 H 0.1508 0.55139 0.93647 0.0
H79 H 0.14646 0.57906 0.93597 0.0
Sm80 Sm 0.07733 0.66011 0.50423 0.0
Sm81 Sm 0.07851 0.62661 0.50786 0.0
C82 C 0.11313 0.68938 0.51132 0.0
C83 C 0.13327 0.70576 0.51542 0.0
C84 C 0.18945 0.71161 0.56498 0.0
C85 C 0.2218 0.72679 0.56515 0.0
C86 C 0.19635 0.73645 0.51637 0.0
C87 C 0.13792 0.73065 0.46747 0.0
C88 C 0.10788 0.71539 0.46665 0.0
C89 C 0.04216 0.64719 0.39048 0.0
C90 C 0.32822 0.64314 0.50668 0.0
C91 C 0.10992 0.597 0.49249 0.0
C92 C 0.07651 0.58106 0.50464 0.0
C93 C 1.00372 0.5736 0.46615 0.0
C94 C 0.98817 0.55795 0.47097 0.0
C95 C 0.04609 0.54947 0.51384 0.0
C96 C 0.11592 0.55692 0.55357 0.0
C97 C 0.13102 0.57255 0.54902 0.0
C98 C 1.02773 0.63963 0.624 0.0
C99 C 0.8292 0.6437 0.51039 0.0
O100 O 0.05549 0.6819 0.55582 0.0
O101 O 0.14815 0.68144 0.46239 0.0
O102 O 0.1155 0.64257 0.42663 0.0
O103 O 0.98941 0.65907 0.4135 0.0
O104 O 0.27114 0.656 0.51248 0.0
O105 O 0.27492 0.63033 0.49954 0.0
O106 O 0.05126 0.60536 0.45606 0.0
O107 O 0.15237 0.60471 0.53661 0.0
O108 O 0.10435 0.64401 0.58342 0.0
O109 O 0.97858 0.62773 0.6042 0.0
O110 O 0.88783 0.63149 0.49108 0.0
O111 O 0.88278 0.65583 0.52873 0.0
H112 H 0.21194 0.7043 0.60243 0.0
H113 H 0.26756 0.731 0.60305 0.0
H114 H 0.11791 0.73788 0.42929 0.0
H115 H 0.06603 0.71105 0.42756 0.0
H116 H 0.96205 0.57973 0.43074 0.0
H117 H 0.93423 0.55238 0.43977 0.0
H118 H 0.16136 0.55055 0.58689 0.0
H119 H 0.18914 0.57786 0.57868 0.0
Sm120 Sm 1.00188 0.40538 0.51021 0.0
Sm121 Sm 1.00981 0.37233 0.51458 0.0
C122 C 1.01341 0.43521 0.51697 0.0
C123 C 1.01731 0.45195 0.51843 0.0
C124 C 0.06837 0.45957 0.56591 0.0
C125 C 0.07254 0.47539 0.5663 0.0
C126 C 1.02468 0.48385 0.51959 0.0
C127 C 0.97286 0.47626 0.47248 0.0
C128 C 0.96954 0.46048 0.47178 0.0
C129 C 0.99874 0.39195 0.39417 0.0
C130 C 0.25631 0.38829 0.50821 0.0
C131 C 0.99792 0.34244 0.5034 0.0
C132 C 0.93407 0.32805 0.50259 0.0
C133 C 0.9581 0.31807 0.45267 0.0
C134 C 0.91618 0.30331 0.45525 0.0
C135 C 0.84937 0.29823 0.50788 0.0
C136 C 0.82067 0.30837 0.55677 0.0
C137 C 0.86293 0.32315 0.55428 0.0
C138 C 1.02855 0.3855 0.62935 0.0
C139 C 0.75693 0.38952 0.51745 0.0
O140 O 1.03245 0.42653 0.56404 0.0
O141 O 0.98994 0.42801 0.46715 0.0
O142 O 0.06426 0.3881 0.43539 0.0
O143 O 0.93263 0.40294 0.41437 0.0
O144 O 0.19623 0.40079 0.52174 0.0
O145 O 0.20421 0.37581 0.49359 0.0
O146 O 1.00007 0.35158 0.45584 0.0
O147 O 1.00246 0.34945 0.55613 0.0
O148 O 0.95696 0.38973 0.5914 0.0
O149 O 0.08607 0.37386 0.60807 0.0
O150 O 0.81712 0.37726 0.5005 0.0
O151 O 0.80899 0.40174 0.53471 0.0
H152 H 0.10593 0.45331 0.6024 0.0
H153 H 0.1132 0.48105 0.60294 0.0
H154 H 0.93564 0.48257 0.436 0.0
H155 H 0.92917 0.45495 0.43469 0.0
H156 H 1.01361 0.32148 0.41263 0.0
H157 H 0.93895 0.29568 0.41698 0.0
H158 H 0.76887 0.30467 0.59769 0.0
H159 H 0.84336 0.33052 0.59371 0.0
Sm160 Sm 0.57739 0.90692 0.01213 0.0
Sm161 Sm 0.58454 0.87328 0.00758 0.0
C162 C 0.61131 0.9364 0.99558 0.0
C163 C 0.57418 0.95245 0.00358 0.0
C164 C 0.50723 0.95961 0.96064 0.0
C165 C 0.48831 0.97528 0.96296 0.0
C166 C 0.53719 0.98409 0.00771 0.0
C167 C 0.6012 0.97694 0.05163 0.0
C168 C 0.61958 0.96129 0.04958 0.0
C169 C 0.54082 0.89405 0.12815 0.0
C170 C 0.32957 0.89108 0.01485 0.0
C171 C 0.5656 0.8434 0.0209 0.0
C172 C 0.62669 0.82861 0.0232 0.0
C173 C 0.6004 0.81888 0.07364 0.0
C174 C 0.64372 0.80405 0.07315 0.0
C175 C 0.71419 0.79863 0.02214 0.0
C176 C 0.74392 0.80845 0.97248 0.0
C177 C 0.70041 0.82329 0.97288 0.0
C178 C 0.60299 0.88689 0.89085 0.0
C179 C 0.82992 0.88905 0.0056 0.0
O180 O 0.56486 0.92787 0.95531 0.0
O181 O 0.6405 0.92892 0.04404 0.0
O182 O 0.6151 0.8895 0.08592 0.0
O183 O 0.48723 0.90596 0.10999 0.0
O184 O 0.38341 0.904 0.00464 0.0
O185 O 0.38693 0.87831 0.02298 0.0
O186 O 0.56696 0.85265 0.06785 0.0
O187 O 0.56859 0.85042 0.96781 0.0
O188 O 0.53563 0.89077 0.93672 0.0
O189 O 0.66595 0.87558 0.9068 0.0
O190 O 0.77544 0.87654 0.02166 0.0
O191 O 0.77269 0.90128 0.99026 0.0
H192 H 0.47254 0.95321 0.92401 0.0
H193 H 0.43867 0.98061 0.92864 0.0
H194 H 0.63948 0.98353 0.08656 0.0
H195 H 0.67307 0.95621 0.08273 0.0
H196 H 0.54311 0.8226 0.11269 0.0
H197 H 0.62004 0.79668 0.11197 0.0
H198 H 0.79831 0.80449 0.9327 0.0
H199 H 0.72193 0.83044 0.93304 0.0
Sm200 Sm 0.50097 0.16098 0.0085 0.0
Sm201 Sm 0.50819 0.12697 0.01004 0.0
C202 C 0.51069 0.19055 0.98614 0.0
C203 C 0.45162 0.20546 0.99496 0.0
C204 C 0.42619 0.21384 0.94246 0.0
C205 C 0.38285 0.22863 0.94842 0.0
C206 C 0.36423 0.23539 0.00707 0.0
C207 C 0.38648 0.22693 0.05992 0.0
C208 C 0.42998 0.21211 0.05397 0.0
C209 C 0.47107 0.14861 0.12737 0.0
C210 C 0.25654 0.14332 0.01376 0.0
C211 C 0.54497 0.09786 0.03125 0.0
C212 C 0.52447 0.08148 0.02717 0.0
C213 C 0.5675 0.07203 0.0722 0.0
C214 C 0.56163 0.05634 0.06708 0.0
C215 C 0.51154 0.04974 0.01703 0.0
C216 C 0.46569 0.05917 0.97253 0.0
C217 C 0.4727 0.07496 0.97735 0.0
C218 C 0.48336 0.13905 0.89274 0.0
C219 C 0.75553 0.14469 0.00716 0.0
O220 O 0.46919 0.18085 0.94845 0.0
O221 O 0.55315 0.1841 0.03382 0.0
O222 O 0.54102 0.14413 0.08362 0.0
O223 O 0.41388 0.16015 0.10864 0.0
O224 O 0.31223 0.15542 0.99273 0.0
O225 O 0.31288 0.13146 0.03385 0.0
O226 O 0.47776 0.10632 0.06862 0.0
O227 O 0.58821 0.10496 0.98183 0.0
O228 O 0.54852 0.144 0.93186 0.0
O229 O 0.43278 0.12702 0.91483 0.0
O230 O 0.70156 0.13172 0.01434 0.0
O231 O 0.69894 0.15752 0.00034 0.0
H232 H 0.44287 0.20909 0.89643 0.0
H233 H 0.36622 0.23493 0.90709 0.0
H234 H 0.37244 0.23193 0.10562 0.0
H235 H 0.44903 0.20601 0.0954 0.0
H236 H 0.60871 0.07682 0.11066 0.0
H237 H 0.59768 0.0493 0.10178 0.0
H238 H 0.42691 0.05429 0.93348 0.0
H239 H 0.4398 0.08203 0.94179 0.0
Sm240 Sm 0.56981 0.16018 0.50363 0.0
Sm241 Sm 0.57318 0.12677 0.50658 0.0
C242 C 0.58552 0.19009 0.50688 0.0
C243 C 0.64358 0.20469 0.51619 0.0
C244 C 0.60105 0.21449 0.56399 0.0
C245 C 0.63921 0.22943 0.56599 0.0
C246 C 0.7203 0.23487 0.52008 0.0
C247 C 0.76657 0.22497 0.47376 0.0
C248 C 0.72858 0.21004 0.47175 0.0
C249 C 0.53253 0.147 0.39021 0.0
C250 C 0.82227 0.14374 0.50543 0.0
C251 C 0.60709 0.09737 0.48689 0.0
C252 C 0.57696 0.08125 0.49401 0.0
C253 C 0.60947 0.07138 0.44478 0.0
C254 C 0.5951 0.0558 0.45157 0.0
C255 C 0.54747 0.04975 0.50776 0.0
C256 C 0.51176 0.05962 0.5567 0.0
C257 C 0.52699 0.07527 0.55001 0.0
C258 C 0.52399 0.13925 0.62365 0.0
C259 C 0.32301 0.14375 0.51262 0.0
O260 O 0.54012 0.18225 0.55401 0.0
O261 O 0.62192 0.18176 0.45934 0.0
O262 O 0.60822 0.14276 0.42546 0.0
O263 O 0.47685 0.15842 0.41461 0.0
O264 O 0.76503 0.15666 0.50912 0.0
O265 O 0.76898 0.13081 0.50082 0.0
O266 O 0.55142 0.10599 0.45008 0.0
O267 O 0.64195 0.10455 0.5345 0.0
O268 O 0.59946 0.14407 0.58306 0.0
O269 O 0.47507 0.12745 0.60285 0.0
O270 O 0.38104 0.1316 0.49192 0.0
O271 O 0.37775 0.1556 0.53212 0.0
H272 H 0.53448 0.21082 0.59833 0.0
H273 H 0.60262 0.2369 0.60216 0.0
H274 H 0.82915 0.22896 0.4379 0.0
H275 H 0.76238 0.20291 0.43376 0.0
H276 H 0.64916 0.07572 0.40141 0.0
H277 H 0.62298 0.04841 0.41327 0.0
H278 H 0.47453 0.05517 0.60037 0.0
H279 H 0.50196 0.08264 0.58881 0.0
Sm280 Sm 0.50216 0.90568 0.51013 0.0
Sm281 Sm 0.51303 0.87252 0.51738 0.0
C282 C 0.51453 0.93549 0.51645 0.0
C283 C 0.52262 0.95221 0.519 0.0
C284 C 0.46565 0.96045 0.56813 0.0
C285 C 0.46827 0.97628 0.56845 0.0
C286 C 0.52818 0.98415 0.5198 0.0
C287 C 0.58613 0.97596 0.47108 0.0
C288 C 0.58319 0.96016 0.4706 0.0
C289 C 0.49757 0.89172 0.39515 0.0
C290 C 0.75497 0.88922 0.51172 0.0
C291 C 0.50542 0.84265 0.50376 0.0
C292 C 0.44118 0.82828 0.51112 0.0
C293 C 0.35805 0.82427 0.47062 0.0
C294 C 0.31123 0.80973 0.47268 0.0
C295 C 0.3476 0.79893 0.51473 0.0
C296 C 0.42785 0.80305 0.5563 0.0
C297 C 0.47411 0.81756 0.55452 0.0
C298 C 0.53403 0.88604 0.63096 0.0
C299 C 0.25583 0.88928 0.51831 0.0
O300 O 0.45876 0.92747 0.55968 0.0
O301 O 0.56596 0.92758 0.47119 0.0
O302 O 0.56263 0.88803 0.43677 0.0
O303 O 0.4323 0.90295 0.41432 0.0
O304 O 0.69266 0.90121 0.52972 0.0
O305 O 0.7048 0.87696 0.49301 0.0
O306 O 0.48034 0.85224 0.46076 0.0
O307 O 0.53738 0.84924 0.55339 0.0
O308 O 0.46237 0.89016 0.5929 0.0
O309 O 0.59118 0.87425 0.61033 0.0
O310 O 0.31552 0.87647 0.51484 0.0
O311 O 0.30716 0.90239 0.52113 0.0
H312 H 0.41788 0.95468 0.60596 0.0
H313 H 0.42315 0.9824 0.6065 0.0
H314 H 0.63269 0.98183 0.4331 0.0
H315 H 0.62739 0.95418 0.43188 0.0
H316 H 0.33167 0.83218 0.43615 0.0
H317 H 0.24931 0.80675 0.44022 0.0
H318 H 0.45681 0.79489 0.58914 0.0
H319 H 0.53893 0.82022 0.58576 0.0
C320 C 0.50493 0.39319 0.06297 0.0
C321 C 0.45684 0.38912 0.00696 0.0
C322 C 0.65174 0.38665 0.95448 0.0
C323 C 0.70009 0.39039 0.01071 0.0
N324 N 0.67553 0.39851 0.11701 0.0
N325 N 0.48274 0.38003 0.90196 0.0
C326 C 0.6272 0.394 0.06463 0.0
C327 C 0.52996 0.38532 0.95342 0.0
N328 N 0.43301 0.3957 0.11515 0.0
N329 N 0.7225 0.38507 0.90129 0.0
H330 H 0.39431 0.3794 0.89889 0.0
H331 H 0.53018 0.37534 0.8638 0.0
H332 H 0.81116 0.38632 0.90031 0.0
H333 H 0.69393 0.38375 0.85734 0.0
H334 H 0.45966 0.39786 0.15891 0.0
H335 H 0.34409 0.39489 0.11552 0.0
H336 H 0.62983 0.40261 0.1568 0.0
H337 H 0.76403 0.39871 0.12016 0.0
C338 C 0.44899 0.64959 0.96046 0.0
C339 C 0.37859 0.64416 0.01223 0.0
C340 C 0.55197 0.63993 0.06856 0.0
C341 C 0.62297 0.64421 0.01488 0.0
N342 N 0.63787 0.64976 0.90527 0.0
N343 N 0.3633 0.63259 0.11362 0.0
C344 C 0.57104 0.64824 0.95976 0.0
C345 C 0.43038 0.63873 0.06546 0.0
N346 N 0.39954 0.6559 0.91126 0.0
N347 N 0.59973 0.63787 0.12366 0.0
H348 H 0.27381 0.6327 0.11597 0.0
H349 H 0.39639 0.6266 0.14972 0.0
H350 H 0.68705 0.63919 0.12859 0.0
H351 H 0.55196 0.63624 0.16585 0.0
H352 H 0.44564 0.66195 0.8764 0.0
H353 H 0.31131 0.65594 0.90696 0.0
H354 H 0.60491 0.65123 0.86234 0.0
H355 H 0.7262 0.64785 0.90167 0.0
C356 C 0.64889 0.64333 0.45225 0.0
C357 C 0.70034 0.64383 0.50974 0.0
C358 C 0.50687 0.64465 0.56528 0.0
C359 C 0.45629 0.64318 0.50795 0.0
N360 N 0.47761 0.63973 0.39725 0.0
N361 N 0.67906 0.64313 0.6214 0.0
C362 C 0.5271 0.64205 0.45161 0.0
C363 C 0.62934 0.64408 0.56641 0.0
N364 N 0.71628 0.64482 0.39802 0.0
N365 N 0.43746 0.64669 0.61873 0.0
H366 H 0.76772 0.64275 0.62399 0.0
H367 H 0.63345 0.64164 0.66427 0.0
H368 H 0.34803 0.64642 0.62011 0.0
H369 H 0.46746 0.6495 0.66116 0.0
H370 H 0.6849 0.64611 0.35466 0.0
H371 H 0.80466 0.64602 0.39675 0.0
H372 H 0.52363 0.63705 0.35542 0.0
H373 H 0.38891 0.63956 0.39444 0.0
C374 C 0.57337 0.39939 0.47545 0.0
C375 C 0.62837 0.38953 0.51628 0.0
C376 C 0.44033 0.37857 0.55062 0.0
C377 C 0.38509 0.38835 0.50948 0.0
N378 N 0.39726 0.40865 0.43513 0.0
N379 N 0.61672 0.36892 0.58913 0.0
C380 C 0.4514 0.39893 0.47271 0.0
C381 C 0.56231 0.3789 0.55274 0.0
N382 N 0.63883 0.40854 0.43618 0.0
N383 N 0.37541 0.3696 0.59083 0.0
H384 H 0.70326 0.36969 0.59701 0.0
H385 H 0.5782 0.35941 0.60954 0.0
H386 H 0.28744 0.36848 0.58964 0.0
H387 H 0.40667 0.36391 0.62813 0.0
H388 H 0.60806 0.41459 0.39969 0.0
H389 H 0.72707 0.40955 0.43754 0.0
H390 H 0.43518 0.4181 0.41404 0.0
H391 H 0.31151 0.40757 0.42625 0.0
C392 C 1.03181 0.88382 0.95798 0.0
C393 C 0.95804 0.88967 0.0079 0.0
C394 C 0.12778 0.89616 0.06374 0.0
C395 C 0.2013 0.89066 0.01286 0.0
N396 N 0.22492 0.88179 0.90743 0.0
N397 N 0.93244 0.90074 0.10965 0.0
C398 C 0.15357 0.8851 0.95901 0.0
C399 C 1.00541 0.89576 0.06106 0.0
N400 N 0.98523 0.87675 0.90993 0.0
N401 N 0.17574 0.90175 0.11449 0.0
H402 H 0.84344 0.90028 0.10936 0.0
H403 H 0.9577 0.90508 0.15091 0.0
H404 H 0.26405 0.90171 0.11841 0.0
H405 H 0.13024 0.90656 0.1529 0.0
H406 H 1.03305 0.87062 0.8757 0.0
H407 H 0.89695 0.87615 0.90636 0.0
H408 H 0.19669 0.87916 0.86438 0.0
H409 H 0.31367 0.88296 0.90614 0.0
C410 C 0.07352 0.13446 0.96971 0.0
C411 C 0.12749 0.14319 0.01403 0.0
C412 C 0.93611 0.15218 0.05668 0.0
C413 C 0.88386 0.14468 0.00841 0.0
N414 N 0.90549 0.13085 0.91242 0.0
N415 N 0.10992 0.16182 0.09561 0.0
C416 C 0.95341 0.13637 0.96323 0.0
C417 C 0.05857 0.15254 0.05607 0.0
N418 N 0.13651 0.12416 0.93405 0.0
N419 N 0.86862 0.15829 0.10505 0.0
H420 H 0.19818 0.16179 0.09933 0.0
H421 H 0.06589 0.17021 0.12186 0.0
H422 H 0.7793 0.15799 0.10755 0.0
H423 H 0.9006 0.1624 0.14522 0.0
H424 H 0.10029 0.11633 0.90576 0.0
H425 H 0.22411 0.12248 0.93693 0.0
H426 H 0.9531 0.12611 0.87437 0.0
H427 H 0.81888 0.13237 0.90545 0.0
C428 C 0.12547 0.13446 0.55256 0.0
C429 C 0.19407 0.14416 0.51269 0.0
C430 C 1.01973 0.15223 0.46379 0.0
C431 C 0.95033 0.14373 0.50762 0.0
N432 N 0.93636 0.12925 0.60232 0.0
N433 N 0.19973 0.16493 0.43978 0.0
C434 C 1.00305 0.13546 0.55426 0.0
C435 C 0.13917 0.15386 0.47125 0.0
N436 N 0.17674 0.12429 0.58929 0.0
N437 N 0.97277 0.15826 0.41329 0.0
H438 H 0.28542 0.16702 0.44545 0.0
H439 H 0.16163 0.17317 0.41354 0.0
H440 H 0.88646 0.15705 0.40543 0.0
H441 H 1.02163 0.16308 0.37608 0.0
H442 H 0.1322 0.11574 0.61361 0.0
H443 H 0.26508 0.12375 0.59231 0.0
H444 H 0.96953 0.12452 0.64128 0.0
H445 H 0.84713 0.13021 0.60637 0.0
C446 C 0.93362 0.89357 0.56862 0.0
C447 C 0.88326 0.88936 0.51348 0.0
C448 C 0.07649 0.8836 0.46402 0.0
C449 C 0.12732 0.88904 0.51722 0.0
N450 N 0.1037 0.90112 0.61749 0.0
N451 N 0.90894 0.88312 0.40469 0.0
C452 C 0.05559 0.89473 0.56843 0.0
C453 C 0.95531 0.885 0.46023 0.0
N454 N 0.86555 0.89548 0.62256 0.0
N455 N 0.14414 0.87724 0.41633 0.0
H456 H 0.82186 0.8847 0.39903 0.0
H457 H 0.95781 0.88149 0.36275 0.0
H458 H 0.23329 0.87737 0.41417 0.0
H459 H 0.11184 0.87112 0.38068 0.0
H460 H 0.89735 0.8971 0.66562 0.0
H461 H 0.77724 0.89385 0.62566 0.0
H462 H 0.05662 0.90735 0.6518 0.0
H463 H 0.1918 0.90101 0.62221 0.0
C464 C 0.09911 0.5242 0.05384 0.0
C465 C 1.02813 0.53238 0.01494 0.0
C466 C 0.96355 0.50862 0.97097 0.0
C467 C 1.03643 0.50044 0.00879 0.0
N468 N 0.16667 0.49986 0.08965 0.0
N469 N 0.90013 0.53292 0.93306 0.0
C470 C 0.10217 0.50809 0.05133 0.0
C471 C 0.96201 0.52472 0.97269 0.0
N472 N 0.16739 0.53195 0.09107 0.0
N473 N 0.89261 0.50089 0.93518 0.0
H474 H 0.89223 0.54465 0.93509 0.0
H475 H 0.86092 0.52833 0.89605 0.0
H476 H 0.89178 0.48914 0.93274 0.0
H477 H 0.82904 0.50591 0.91088 0.0
H478 H 0.22915 0.52702 0.11682 0.0
H479 H 0.16637 0.5437 0.09446 0.0
H480 H 0.20806 0.50435 0.12605 0.0
H481 H 0.17582 0.48816 0.08687 0.0
C482 C 0.11078 0.50794 0.4762 0.0
C483 C 1.0305 0.5007 0.51899 0.0
C484 C 0.96166 0.52544 0.55969 0.0
C485 C 0.03881 0.53265 0.51509 0.0
N486 N 0.17816 0.53118 0.42667 0.0
N487 N 0.87545 0.50205 0.59938 0.0
C488 C 0.11082 0.52399 0.47209 0.0
C489 C 0.95496 0.50933 0.5604 0.0
N490 N 0.19025 0.49943 0.44125 0.0
N491 N 0.8947 0.5341 0.60101 0.0
H492 H 0.86794 0.49034 0.60069 0.0
H493 H 0.81343 0.50739 0.62907 0.0
H494 H 0.89445 0.54587 0.59997 0.0
H495 H 0.84135 0.52987 0.6376 0.0
H496 H 0.25909 0.5039 0.41395 0.0
H497 H 0.19294 0.48766 0.44286 0.0
H498 H 0.22181 0.52568 0.38919 0.0
H499 H 0.18534 0.54289 0.42401 0.0
C500 C 0.59837 1.00957 0.96561 0.0
C501 C 0.52543 1.00092 0.0075 0.0
C502 C 0.43532 0.02425 0.05134 0.0
C503 C 0.51112 0.03291 0.01089 0.0
N504 N 0.6733 0.03417 0.93472 0.0
N505 N 0.36749 0.99946 0.08583 0.0
C506 C 0.59409 0.02565 0.96888 0.0
C507 C 0.44213 1.00813 0.04938 0.0
N508 N 0.67098 1.00234 0.92214 0.0
N509 N 0.3585 0.03156 0.09245 0.0
H510 H 0.37037 0.98769 0.08537 0.0
H511 H 0.29925 1.00365 0.11481 0.0
H512 H 0.34668 0.04325 0.09251 0.0
H513 H 0.30777 0.02631 0.12765 0.0
H514 H 0.71621 1.00775 0.88525 0.0
H515 H 0.68153 0.99065 0.92048 0.0
H516 H 0.74446 0.02972 0.90863 0.0
H517 H 0.6727 0.04593 0.93533 0.0
C518 C 0.61886 0.02484 0.54799 0.0
C519 C 0.53767 0.033 0.51495 0.0
C520 C 0.45063 1.00918 0.48525 0.0
C521 C 0.52981 1.00102 0.51944 0.0
N522 N 0.68518 1.00061 0.58603 0.0
N523 N 0.3666 0.03341 0.45995 0.0
C524 C 0.61242 1.00876 0.55193 0.0
C525 C 0.45091 0.02527 0.48569 0.0
N526 N 0.70394 0.03253 0.57397 0.0
N527 N 0.37682 1.00147 0.45117 0.0
H528 H 0.3642 0.04519 0.45941 0.0
H529 H 0.29416 0.02867 0.44323 0.0
H530 H 0.37025 0.98974 0.45201 0.0
H531 H 0.32657 1.00651 0.4192 0.0
H532 H 0.77061 0.02749 0.59575 0.0
H533 H 0.71123 0.04423 0.57188 0.0
H534 H 0.74301 1.00528 0.6144 0.0
H535 H 0.6854 0.98885 0.58795 0.0
C536 C 0.36701 0.27832 0.02987 0.0
C537 C 0.25326 0.28228 0.01698 0.0
C538 C 0.20888 0.2554 0.00457 0.0
C539 C 0.3251 0.25153 0.01249 0.0
N540 N 0.51911 0.25933 0.02451 0.0
N541 N 0.06886 0.27496 0.98513 0.0
C542 C 0.40531 0.26301 0.02318 0.0
C543 C 0.17503 0.2709 0.00235 0.0
N544 N 0.43796 0.28919 0.04939 0.0
N545 N 0.13004 0.2442 0.00114 0.0
H546 H 0.03935 0.28611 0.98511 0.0
H547 H 1.01277 0.26744 0.96679 0.0
H548 H 0.15179 0.23276 0.00243 0.0
H549 H 0.0419 0.24615 0.00205 0.0
H550 H 0.51701 0.28686 0.06648 0.0
H551 H 0.41431 0.30057 0.05264 0.0
H552 H 0.58395 0.26727 0.0251 0.0
H553 H 0.55039 0.24828 0.0203 0.0
C554 C 0.69082 0.77171 0.98782 0.0
C555 C 0.75323 0.78247 0.01991 0.0
C556 C 0.88966 0.76256 0.04709 0.0
C557 C 0.82649 0.75179 0.01538 0.0
N558 N 0.65959 0.74537 0.96301 0.0
N559 N 0.91528 0.78883 0.07624 0.0
C560 C 0.72526 0.75619 0.98753 0.0
C561 C 0.85321 0.77804 0.04895 0.0
N562 N 0.60014 0.77645 0.95623 0.0
N563 N 0.98396 0.75787 0.07585 0.0
H564 H 0.89055 0.80017 0.07857 0.0
H565 H 0.99354 0.7869 0.09463 0.0
H566 H 1.01585 0.74683 0.07308 0.0
H567 H 1.02958 0.76459 0.1043 0.0
H568 H 0.55902 0.76972 0.92571 0.0
H569 H 0.5692 0.78754 0.95759 0.0
H570 H 0.57878 0.74739 0.94761 0.0
H571 H 0.68227 0.73395 0.96187 0.0
C572 C 0.32561 0.75719 0.473 0.0
C573 C 0.23347 0.75258 0.5156 0.0
C574 C 0.21579 0.77841 0.55805 0.0
C575 C 0.30554 0.78306 0.51401 0.0
N576 N 0.43687 0.77767 0.42477 0.0
N577 N 0.08931 0.75834 0.59849 0.0
C578 C 0.35761 0.77267 0.47003 0.0
C579 C 0.17815 0.76309 0.55822 0.0
N580 N 0.38668 0.74658 0.43768 0.0
N581 N 0.16534 0.78884 0.59859 0.0
H582 H 0.05633 0.74746 0.59778 0.0
H583 H 0.04622 0.76496 0.63265 0.0
H584 H 0.18924 0.80014 0.59846 0.0
H585 H 0.0993 0.78662 0.63233 0.0
H586 H 0.46245 0.7488 0.41069 0.0
H587 H 0.36703 0.73513 0.43889 0.0
H588 H 0.46745 0.77125 0.38657 0.0
H589 H 0.46725 0.7887 0.4229 0.0
C590 C 0.87862 0.27169 0.54695 0.0
C591 C 0.81438 0.28204 0.51267 0.0
C592 C 0.68953 0.2615 0.48331 0.0
C593 C 0.75216 0.25118 0.51844 0.0
N594 N 0.90767 0.2458 0.58168 0.0
N595 N 0.651 0.28755 0.45515 0.0
C596 C 0.84686 0.25614 0.55007 0.0
C597 C 0.71789 0.27713 0.48257 0.0
N598 N 0.96961 0.27686 0.57665 0.0
N599 N 0.60502 0.25622 0.44905 0.0
H600 H 0.66995 0.29902 0.45311 0.0
H601 H 0.57256 0.28514 0.43807 0.0
H602 H 0.57893 0.245 0.45011 0.0
H603 H 0.56497 0.26264 0.4166 0.0
H604 H 1.01808 0.27039 0.60516 0.0
H605 H 0.99717 0.28801 0.57366 0.0
H606 H 0.98089 0.24813 0.60396 0.0
H607 H 0.88584 0.23442 0.58505 0.0
C608 C 0.11145 0.40123 0.22804 0.0
C609 C 0.04715 0.39103 0.19439 0.0
C610 C 0.97122 0.3792 0.29237 0.0
C611 C 1.02856 0.39017 0.32607 0.0
N612 N 0.1487 0.41208 0.32745 0.0
N613 N 0.92818 0.36915 0.19185 0.0
C614 C 0.09919 0.40114 0.29422 0.0
C615 C 0.98134 0.37957 0.2259 0.0
N616 N 0.18467 0.41102 0.19639 0.0
N617 N 0.90268 0.36893 0.32437 0.0
H618 H 0.93277 0.3694 0.14352 0.0
H619 H 0.88338 0.3599 0.21032 0.0
H620 H 0.89509 0.36836 0.37269 0.0
H621 H 0.85134 0.36116 0.30413 0.0
H622 H 0.24403 0.41761 0.21701 0.0
H623 H 0.19231 0.41184 0.14816 0.0
H624 H 0.18958 0.42152 0.30795 0.0
H625 H 0.14391 0.41221 0.37575 0.0
C626 C 0.08293 0.65569 0.21839 0.0
C627 C 1.0024 0.64567 0.19487 0.0
C628 C 0.97404 0.63355 0.29759 0.0
C629 C 0.04741 0.64434 0.322 0.0
N630 N 0.19436 0.66291 0.30389 0.0
N631 N 0.88755 0.62337 0.20762 0.0
C632 C 0.10906 0.65454 0.28161 0.0
C633 C 0.95344 0.63399 0.23318 0.0
N634 N 0.13219 0.66661 0.18056 0.0
N635 N 0.92267 0.62308 0.33667 0.0
H636 H 0.87027 0.6236 0.16106 0.0
H637 H 0.8541 0.61394 0.23097 0.0
H638 H 0.94266 0.62203 0.38248 0.0
H639 H 0.85995 0.61563 0.32485 0.0
H640 H 0.17984 0.67549 0.19599 0.0
H641 H 0.12187 0.66721 0.13326 0.0
H642 H 0.25048 0.66964 0.27651 0.0
H643 H 0.21593 0.66209 0.34966 0.0
C644 C 0.95023 0.65413 0.78925 0.0
C645 C 1.009 0.64328 0.82376 0.0
C646 C 0.10145 0.63265 0.72655 0.0
C647 C 1.03248 0.64229 0.69207 0.0
N648 N 0.90797 0.66395 0.68793 0.0
N649 N 0.14473 0.62266 0.82685 0.0
C650 C 0.96213 0.65363 0.72278 0.0
C651 C 0.0872 0.63282 0.79275 0.0
N652 N 0.88176 0.66469 0.82051 0.0
N653 N 0.18257 0.62356 0.69569 0.0
H654 H 0.14366 0.62317 0.875 0.0
H655 H 0.19084 0.6134 0.8082 0.0
H656 H 0.1949 0.6231 0.64743 0.0
H657 H 0.24389 0.61729 0.71712 0.0
H658 H 0.83091 0.67261 0.79984 0.0
H659 H 0.8761 0.66562 0.86873 0.0
H660 H 0.85561 0.67273 0.70571 0.0
H661 H 0.91912 0.66408 0.63966 0.0
C662 C 0.96088 0.3788 0.73841 0.0
C663 C 1.02222 0.38884 0.69728 0.0
C664 C 0.11654 0.39942 0.78543 0.0
C665 C 0.06815 0.38786 0.82444 0.0
N666 N 0.94764 0.36594 0.83761 0.0
N667 N 0.16056 0.40861 0.68034 0.0
C668 C 0.99031 0.37747 0.80091 0.0
C669 C 0.09944 0.39929 0.72068 0.0
N670 N 0.87386 0.37054 0.71745 0.0
N671 N 0.17918 0.41048 0.81031 0.0
H672 H 0.146 0.4092 0.63357 0.0
H673 H 0.22841 0.41522 0.69234 0.0
H674 H 0.19683 0.41051 0.85682 0.0
H675 H 0.20685 0.42012 0.78625 0.0
H676 H 0.8176 0.3641 0.74615 0.0
H677 H 0.85105 0.37129 0.67191 0.0
H678 H 0.9036 0.35683 0.82106 0.0
H679 H 0.96061 0.36507 0.88453 0.0
C680 C 0.61211 0.90141 0.23061 0.0
C681 C 0.54935 0.89125 0.19575 0.0
C682 C 0.47215 0.87906 0.29261 0.0
C683 C 0.53004 0.88975 0.3273 0.0
N684 N 0.67755 0.90844 0.33032 0.0
N685 N 0.43191 0.86924 0.19139 0.0
C686 C 0.60752 0.90005 0.29647 0.0
C687 C 0.4839 0.87961 0.22623 0.0
N688 N 0.67166 0.91288 0.2009 0.0
N689 N 0.40435 0.8686 0.32361 0.0
H690 H 0.43601 0.86975 0.14312 0.0
H691 H 0.38876 0.8598 0.20927 0.0
H692 H 0.40227 0.86732 0.37156 0.0
H693 H 0.35006 0.86128 0.30289 0.0
H694 H 0.70699 0.92183 0.22363 0.0
H695 H 0.68068 0.91397 0.15279 0.0
H696 H 0.74469 0.91495 0.31077 0.0
H697 H 0.67552 0.90789 0.37853 0.0
C698 C 0.44909 0.13489 0.23041 0.0
C699 C 0.49673 0.14696 0.19383 0.0
C700 C 0.598 0.15554 0.28287 0.0
C701 C 0.53824 0.1448 0.32148 0.0
N702 N 0.40604 0.12422 0.33331 0.0
N703 N 0.61057 0.16957 0.1864 0.0
C704 C 0.46452 0.13434 0.29537 0.0
C705 C 0.57031 0.15743 0.2203 0.0
N706 N 0.38896 0.12397 0.20296 0.0
N707 N 0.6825 0.16387 0.30611 0.0
H708 H 0.59722 0.17109 0.13979 0.0
H709 H 0.65173 0.17863 0.20525 0.0
H710 H 0.70448 0.16275 0.35168 0.0
H711 H 0.73809 0.17076 0.27902 0.0
H712 H 0.36217 0.11401 0.22491 0.0
H713 H 0.37165 0.12445 0.15646 0.0
H714 H 0.34016 0.1175 0.31965 0.0
H715 H 0.42126 0.12296 0.37981 0.0
C716 C 0.44778 0.15186 0.79117 0.0
C717 C 0.50824 0.14087 0.82411 0.0
C718 C 0.5937 0.13036 0.72509 0.0
C719 C 0.53103 0.14113 0.69209 0.0
N720 N 0.41696 0.16386 0.69233 0.0
N721 N 0.65283 0.12126 0.82395 0.0
C722 C 0.4642 0.15247 0.72487 0.0
C723 C 0.58603 0.13066 0.79137 0.0
N724 N 0.37118 0.16131 0.82329 0.0
N725 N 0.6579 0.11952 0.69281 0.0
H726 H 0.6474 0.12087 0.87225 0.0
H727 H 0.71915 0.11451 0.80397 0.0
H728 H 0.66988 0.11938 0.64455 0.0
H729 H 0.69617 0.1103 0.71298 0.0
H730 H 0.31476 0.16853 0.80258 0.0
H731 H 0.35983 0.1614 0.8716 0.0
H732 H 0.37527 0.17326 0.71269 0.0
H733 H 0.42747 0.16449 0.64408 0.0
C734 C 0.58253 0.90113 0.72407 0.0
C735 C 0.52255 0.88903 0.69908 0.0
C736 C 0.49976 0.87694 0.80146 0.0
C737 C 0.56852 0.88833 0.82585 0.0
N738 N 0.66554 0.91208 0.81376 0.0
N739 N 0.39548 0.8681 0.71589 0.0
C740 C 0.60564 0.90082 0.78823 0.0
C741 C 0.47222 0.87778 0.73861 0.0
N742 N 0.61773 0.91276 0.68581 0.0
N743 N 0.46376 0.86503 0.83793 0.0
H744 H 0.37258 0.86871 0.67029 0.0
H745 H 0.34639 0.86048 0.74302 0.0
H746 H 0.47227 0.86465 0.88541 0.0
H747 H 0.42827 0.85528 0.82118 0.0
H748 H 0.66386 0.92201 0.69898 0.0
H749 H 0.59748 0.91328 0.63976 0.0
H750 H 0.69663 0.92158 0.79008 0.0
H751 H 0.68432 0.91196 0.86009 0.0
loop_
_geom_bond_atom_site_label_1
_geom_bond_atom_site_label_2
_geom_bond_distance
_geom_bond_site_symmetry_2
_ccdc_geom_bond_type
Sm0 C2 2.846 1_455 S
Sm0 O20 2.543 1_454 S
Sm0 O21 2.450 . S
Sm0 O22 2.681 . S
Sm0 O23 2.464 . S
Sm0 O24 2.396 1_455 S
Sm0 O28 2.386 1_554 S
Sm0 O31 2.408 . S
Sm1 C11 2.846 . S
Sm1 O22 2.386 . S
Sm1 O25 2.408 1_455 S
Sm1 O26 2.543 . S
Sm1 O27 2.450 1_554 S
Sm1 O28 2.681 1_554 S
Sm1 O29 2.464 1_554 S
Sm1 O30 2.396 1_554 S
C2 Sm0 2.846 1_655 S
C2 C3 1.506 . S
C2 O20 1.261 1_554 S
C2 O21 1.242 1_655 S
C3 C2 1.506 . S
C3 C4 1.358 1_554 S
C3 C8 1.382 . S
C4 C3 1.358 1_556 S
C4 C5 1.385 . S
C4 H32 0.930 . S
C5 C4 1.385 . S
C5 C6 1.396 1_556 S
C5 H33 0.929 . S
C6 C5 1.396 1_554 S
C6 C7 1.333 . S
C7 C6 1.333 . S
C7 C8 1.398 . S
C7 H34 0.930 . S
C8 C3 1.382 . S
C8 C7 1.398 . S
C8 H35 0.929 . S
C9 O22 1.271 . S
C9 O23 1.251 . S
C10 O24 1.252 . S
C10 O25 1.272 . S
C11 Sm1 2.846 . S
C11 C12 1.506 . S
C11 O26 1.261 . S
C11 O27 1.242 1_554 S
C12 C11 1.506 . S
C12 C13 1.358 . S
C12 C17 1.382 1_554 S
C13 C12 1.358 . S
C13 C14 1.385 . S
C13 H36 0.930 . S
C14 C13 1.385 . S
C14 C15 1.395 . S
C14 H37 0.929 . S
C15 C14 1.395 . S
C15 C16 1.335 1_554 S
C16 C15 1.335 1_556 S
C16 C17 1.398 . S
C16 H38 0.930 . S
C17 C12 1.382 1_556 S
C17 C16 1.398 . S
C17 H39 0.929 . S
C18 O28 1.271 . S
C18 O29 1.251 . S
C19 O30 1.252 1_554 S
C19 O31 1.272 . S
O20 Sm0 2.543 1_656 S
O20 C2 1.261 1_556 S
O21 Sm0 2.450 . S
O21 C2 1.242 1_455 S
O22 Sm0 2.681 . S
O22 Sm1 2.386 . S
O22 C9 1.271 . S
O23 Sm0 2.464 . S
O23 C9 1.251 . S
O24 Sm0 2.396 1_655 S
O24 C10 1.252 . S
O25 Sm1 2.408 1_655 S
O25 C10 1.272 . S
O26 Sm1 2.543 . S
O26 C11 1.261 . S
O27 Sm1 2.450 1_556 S
O27 C11 1.242 1_556 S
O28 Sm0 2.386 1_556 S
O28 Sm1 2.681 1_556 S
O28 C18 1.271 . S
O29 Sm1 2.464 1_556 S
O29 C18 1.251 . S
O30 Sm1 2.396 1_556 S
O30 C19 1.252 1_556 S
O31 Sm0 2.408 . S
O31 C19 1.272 . S
H32 C4 0.930 . S
H33 C5 0.929 . S
H34 C7 0.930 . S
H35 C8 0.929 . S
H36 C13 0.930 . S
H37 C14 0.929 . S
H38 C16 0.930 . S
H39 C17 0.929 . S
Sm40 C42 2.846 . S
Sm40 O60 2.543 1_554 S
Sm40 O61 2.450 . S
Sm40 O62 2.681 . S
Sm40 O63 2.464 . S
Sm40 O64 2.396 . S
Sm40 O68 2.386 1_554 S
Sm40 O71 2.408 1_655 S
Sm41 C51 2.846 1_655 S
Sm41 O62 2.386 . S
Sm41 O65 2.408 . S
Sm41 O66 2.543 1_655 S
Sm41 O67 2.450 1_554 S
Sm41 O68 2.681 1_554 S
Sm41 O69 2.464 1_554 S
Sm41 O70 2.396 1_654 S
C42 Sm40 2.846 . S
C42 C43 1.506 . S
C42 O60 1.261 1_554 S
C42 O61 1.242 . S
C43 C42 1.506 . S
C43 C44 1.358 1_554 S
C43 C48 1.382 . S
C44 C43 1.358 1_556 S
C44 C45 1.385 . S
C44 H72 0.930 . S
C45 C44 1.385 . S
C45 C46 1.395 1_556 S
C45 H73 0.929 . S
C46 C45 1.395 1_554 S
C46 C47 1.335 . S
C47 C46 1.335 . S
C47 C48 1.398 . S
C47 H74 0.930 . S
C48 C43 1.382 . S
C48 C47 1.398 . S
C48 H75 0.929 . S
C49 O62 1.271 . S
C49 O63 1.251 . S
C50 O64 1.252 . S
C50 O65 1.272 . S
C51 Sm41 2.846 1_455 S
C51 C52 1.506 . S
C51 O66 1.261 . S
C51 O67 1.242 1_454 S
C52 C51 1.506 . S
C52 C53 1.358 . S
C52 C57 1.382 1_554 S
C53 C52 1.358 . S
C53 C54 1.385 . S
C53 H76 0.930 . S
C54 C53 1.385 . S
C54 C55 1.395 . S
C54 H77 0.929 . S
C55 C54 1.395 . S
C55 C56 1.335 1_554 S
C56 C55 1.335 1_556 S
C56 C57 1.398 . S
C56 H78 0.930 . S
C57 C52 1.382 1_556 S
C57 C56 1.398 . S
C57 H79 0.929 . S
C58 O68 1.271 . S
C58 O69 1.251 . S
C59 O70 1.252 1_554 S
C59 O71 1.272 . S
O60 Sm40 2.543 1_556 S
O60 C42 1.261 1_556 S
O61 Sm40 2.450 . S
O61 C42 1.242 . S
O62 Sm40 2.681 . S
O62 Sm41 2.386 . S
O62 C49 1.271 . S
O63 Sm40 2.464 . S
O63 C49 1.251 . S
O64 Sm40 2.396 . S
O64 C50 1.252 . S
O65 Sm41 2.408 . S
O65 C50 1.272 . S
O66 Sm41 2.543 1_455 S
O66 C51 1.261 . S
O67 Sm41 2.450 1_556 S
O67 C51 1.242 1_656 S
O68 Sm40 2.386 1_556 S
O68 Sm41 2.681 1_556 S
O68 C58 1.271 . S
O69 Sm41 2.464 1_556 S
O69 C58 1.251 . S
O70 Sm41 2.396 1_456 S
O70 C59 1.252 1_556 S
O71 Sm40 2.408 1_455 S
O71 C59 1.272 . S
H72 C44 0.930 . S
H73 C45 0.929 . S
H74 C47 0.930 . S
H75 C48 0.929 . S
H76 C53 0.930 . S
H77 C54 0.929 . S
H78 C56 0.930 . S
H79 C57 0.929 . S
Sm80 C82 2.846 . S
Sm80 O100 2.543 . S
Sm80 O101 2.450 . S
Sm80 O102 2.681 . S
Sm80 O103 2.464 . S
Sm80 O104 2.396 . S
Sm80 O108 2.386 . S
Sm80 O111 2.408 1_455 S
Sm81 C91 2.846 1_455 S
Sm81 O102 2.386 . S
Sm81 O105 2.408 . S
Sm81 O106 2.543 1_455 S
Sm81 O107 2.450 . S
Sm81 O108 2.681 . S
Sm81 O109 2.464 . S
Sm81 O110 2.396 1_455 S
C82 Sm80 2.846 . S
C82 C83 1.506 . S
C82 O100 1.261 . S
C82 O101 1.242 . S
C83 C82 1.506 . S
C83 C84 1.358 . S
C83 C88 1.382 . S
C84 C83 1.358 . S
C84 C85 1.385 . S
C84 H112 0.930 . S
C85 C84 1.385 . S
C85 C86 1.395 . S
C85 H113 0.929 . S
C86 C85 1.395 . S
C86 C87 1.335 . S
C87 C86 1.335 . S
C87 C88 1.398 . S
C87 H114 0.930 . S
C88 C83 1.382 . S
C88 C87 1.398 . S
C88 H115 0.929 . S
C89 O102 1.271 . S
C89 O103 1.251 . S
C90 O104 1.252 . S
C90 O105 1.272 . S
C91 Sm81 2.846 1_655 S
C91 C92 1.506 . S
C91 O106 1.261 . S
C91 O107 1.242 1_655 S
C92 C91 1.506 . S
C92 C93 1.358 . S
C92 C97 1.382 . S
C93 C92 1.358 . S
C93 C94 1.385 . S
C93 H116 0.930 . S
C94 C93 1.385 . S
C94 C95 1.395 . S
C94 H117 0.929 . S
C95 C94 1.395 . S
C95 C96 1.335 . S
C96 C95 1.335 . S
C96 C97 1.398 . S
C96 H118 0.930 . S
C97 C92 1.382 . S
C97 C96 1.398 . S
C97 H119 0.929 . S
C98 O108 1.271 . S
C98 O109 1.251 . S
C99 O110 1.252 . S
C99 O111 1.272 . S
O100 Sm80 2.543 . S
O100 C82 1.261 . S
O101 Sm80 2.450 . S
O101 C82 1.242 . S
O102 Sm80 2.681 . S
O102 Sm81 2.386 . S
O102 C89 1.271 . S
O103 Sm80 2.464 . S
O103 C89 1.251 . S
O104 Sm80 2.396 . S
O104 C90 1.252 . S
O105 Sm81 2.408 . S
O105 C90 1.272 . S
O106 Sm81 2.543 1_655 S
O106 C91 1.261 . S
O107 Sm81 2.450 . S
O107 C91 1.242 1_455 S
O108 Sm80 2.386 . S
O108 Sm81 2.681 . S
O108 C98 1.271 . S
O109 Sm81 2.464 . S
O109 C98 1.251 . S
O110 Sm81 2.396 1_655 S
O110 C99 1.252 . S
O111 Sm80 2.408 1_655 S
O111 C99 1.272 . S
H112 C84 0.930 . S
H113 C85 0.929 . S
H114 C87 0.930 . S
H115 C88 0.929 . S
H116 C93 0.930 . S
H117 C94 0.929 . S
H118 C96 0.930 . S
H119 C97 0.929 . S
Sm120 C122 2.846 1_655 S
Sm120 O140 2.543 1_655 S
Sm120 O141 2.450 . S
Sm120 O142 2.681 . S
Sm120 O143 2.464 . S
Sm120 O144 2.396 1_655 S
Sm120 O148 2.386 . S
Sm120 O151 2.408 . S
Sm121 C131 2.846 . S
Sm121 O142 2.386 . S
Sm121 O145 2.408 1_655 S
Sm121 O146 2.543 . S
Sm121 O147 2.450 . S
Sm121 O148 2.681 . S
Sm121 O149 2.464 . S
Sm121 O150 2.396 . S
C122 Sm120 2.846 1_455 S
C122 C123 1.506 . S
C122 O140 1.261 . S
C122 O141 1.242 1_455 S
C123 C122 1.506 . S
C123 C124 1.358 . S
C123 C128 1.382 . S
C124 C123 1.358 . S
C124 C125 1.385 . S
C124 H152 0.930 . S
C125 C124 1.385 . S
C125 C126 1.395 . S
C125 H153 0.929 . S
C126 C125 1.395 . S
C126 C127 1.335 . S
C127 C126 1.335 . S
C127 C128 1.398 . S
C127 H154 0.930 . S
C128 C123 1.382 . S
C128 C127 1.398 . S
C128 H155 0.929 . S
C129 O142 1.271 . S
C129 O143 1.251 . S
C130 O144 1.252 . S
C130 O145 1.272 . S
C131 Sm121 2.846 . S
C131 C132 1.506 . S
C131 O146 1.261 . S
C131 O147 1.242 . S
C132 C131 1.506 . S
C132 C133 1.358 . S
C132 C137 1.382 . S
C133 C132 1.358 . S
C133 C134 1.385 . S
C133 H156 0.930 . S
C134 C133 1.385 . S
C134 C135 1.395 . S
C134 H157 0.929 . S
C135 C134 1.395 . S
C135 C136 1.335 . S
C136 C135 1.335 . S
C136 C137 1.398 . S
C136 H158 0.930 . S
C137 C132 1.382 . S
C137 C136 1.398 . S
C137 H159 0.929 . S
C138 O148 1.271 . S
C138 O149 1.251 . S
C139 O150 1.252 . S
C139 O151 1.272 . S
O140 Sm120 2.543 1_455 S
O140 C122 1.261 . S
O141 Sm120 2.450 . S
O141 C122 1.242 1_655 S
O142 Sm120 2.681 . S
O142 Sm121 2.386 . S
O142 C129 1.271 . S
O143 Sm120 2.464 . S
O143 C129 1.251 . S
O144 Sm120 2.396 1_455 S
O144 C130 1.252 . S
O145 Sm121 2.408 1_455 S
O145 C130 1.272 . S
O146 Sm121 2.543 . S
O146 C131 1.261 . S
O147 Sm121 2.450 . S
O147 C131 1.242 . S
O148 Sm120 2.386 . S
O148 Sm121 2.681 . S
O148 C138 1.271 . S
O149 Sm121 2.464 . S
O149 C138 1.251 . S
O150 Sm121 2.396 . S
O150 C139 1.252 . S
O151 Sm120 2.408 . S
O151 C139 1.272 . S
H152 C124 0.930 . S
H153 C125 0.929 . S
H154 C127 0.930 . S
H155 C128 0.929 . S
H156 C133 0.930 . S
H157 C134 0.929 . S
H158 C136 0.930 . S
H159 C137 0.929 . S
Sm160 C162 2.846 . S
Sm160 O180 2.543 1_554 S
Sm160 O181 2.450 . S
Sm160 O182 2.681 . S
Sm160 O183 2.464 . S
Sm160 O184 2.396 . S
Sm160 O188 2.386 1_554 S
Sm160 O191 2.408 . S
Sm161 C171 2.846 . S
Sm161 O182 2.386 . S
Sm161 O185 2.408 . S
Sm161 O186 2.543 . S
Sm161 O187 2.450 1_554 S
Sm161 O188 2.681 1_554 S
Sm161 O189 2.464 1_554 S
Sm161 O190 2.396 1_554 S
C162 Sm160 2.846 . S
C162 C163 1.506 . S
C162 O180 1.261 1_554 S
C162 O181 1.242 . S
C163 C162 1.506 . S
C163 C164 1.358 1_554 S
C163 C168 1.382 . S
C164 C163 1.358 1_556 S
C164 C165 1.385 . S
C164 H192 0.930 . S
C165 C164 1.385 . S
C165 C166 1.395 1_556 S
C165 H193 0.929 . S
C166 C165 1.395 1_554 S
C166 C167 1.334 . S
C167 C166 1.334 . S
C167 C168 1.398 . S
C167 H194 0.930 . S
C168 C163 1.382 . S
C168 C167 1.398 . S
C168 H195 0.929 . S
C169 O182 1.271 . S
C169 O183 1.251 . S
C170 O184 1.252 . S
C170 O185 1.272 . S
C171 Sm161 2.846 . S
C171 C172 1.506 . S
C171 O186 1.261 . S
C171 O187 1.242 1_554 S
C172 C171 1.506 . S
C172 C173 1.358 . S
C172 C177 1.382 1_554 S
C173 C172 1.358 . S
C173 C174 1.385 . S
C173 H196 0.930 . S
C174 C173 1.385 . S
C174 C175 1.395 . S
C174 H197 0.929 . S
C175 C174 1.395 . S
C175 C176 1.335 1_554 S
C176 C175 1.335 1_556 S
C176 C177 1.398 . S
C176 H198 0.930 . S
C177 C172 1.382 1_556 S
C177 C176 1.398 . S
C177 H199 0.929 . S
C178 O188 1.271 . S
C178 O189 1.251 . S
C179 O190 1.252 1_554 S
C179 O191 1.272 . S
O180 Sm160 2.543 1_556 S
O180 C162 1.261 1_556 S
O181 Sm160 2.450 . S
O181 C162 1.242 . S
O182 Sm160 2.681 . S
O182 Sm161 2.386 . S
O182 C169 1.271 . S
O183 Sm160 2.464 . S
O183 C169 1.251 . S
O184 Sm160 2.396 . S
O184 C170 1.252 . S
O185 Sm161 2.408 . S
O185 C170 1.272 . S
O186 Sm161 2.543 . S
O186 C171 1.261 . S
O187 Sm161 2.450 1_556 S
O187 C171 1.242 1_556 S
O188 Sm160 2.386 1_556 S
O188 Sm161 2.681 1_556 S
O188 C178 1.271 . S
O189 Sm161 2.464 1_556 S
O189 C178 1.251 . S
O190 Sm161 2.396 1_556 S
O190 C179 1.252 1_556 S
O191 Sm160 2.408 . S
O191 C179 1.272 . S
H192 C164 0.930 . S
H193 C165 0.929 . S
H194 C167 0.930 . S
H195 C168 0.929 . S
H196 C173 0.930 . S
H197 C174 0.929 . S
H198 C176 0.930 . S
H199 C177 0.929 . S
Sm200 C202 2.846 . S
Sm200 O220 2.543 1_554 S
Sm200 O221 2.450 . S
Sm200 O222 2.681 . S
Sm200 O223 2.464 . S
Sm200 O224 2.396 . S
Sm200 O228 2.386 1_554 S
Sm200 O231 2.408 . S
Sm201 C211 2.846 . S
Sm201 O222 2.386 . S
Sm201 O225 2.408 . S
Sm201 O226 2.543 . S
Sm201 O227 2.450 1_554 S
Sm201 O228 2.681 1_554 S
Sm201 O229 2.464 1_554 S
Sm201 O230 2.396 1_554 S
C202 Sm200 2.846 . S
C202 C203 1.506 . S
C202 O220 1.261 1_554 S
C202 O221 1.242 . S
C203 C202 1.506 . S
C203 C204 1.358 1_554 S
C203 C208 1.382 . S
C204 C203 1.358 1_556 S
C204 C205 1.385 . S
C204 H232 0.930 . S
C205 C204 1.385 . S
C205 C206 1.395 1_556 S
C205 H233 0.929 . S
C206 C205 1.395 1_554 S
C206 C207 1.335 . S
C207 C206 1.335 . S
C207 C208 1.398 . S
C207 H234 0.930 . S
C208 C203 1.382 . S
C208 C207 1.398 . S
C208 H235 0.929 . S
C209 O222 1.271 . S
C209 O223 1.251 . S
C210 O224 1.252 . S
C210 O225 1.272 . S
C211 Sm201 2.846 . S
C211 C212 1.506 . S
C211 O226 1.261 . S
C211 O227 1.242 1_554 S
C212 C211 1.506 . S
C212 C213 1.358 . S
C212 C217 1.382 1_554 S
C213 C212 1.358 . S
C213 C214 1.385 . S
C213 H236 0.930 . S
C214 C213 1.385 . S
C214 C215 1.395 . S
C214 H237 0.929 . S
C215 C214 1.395 . S
C215 C216 1.335 1_554 S
C216 C215 1.335 1_556 S
C216 C217 1.398 . S
C216 H238 0.930 . S
C217 C212 1.382 1_556 S
C217 C216 1.398 . S
C217 H239 0.929 . S
C218 O228 1.271 . S
C218 O229 1.251 . S
C219 O230 1.252 1_554 S
C219 O231 1.272 . S
O220 Sm200 2.543 1_556 S
O220 C202 1.261 1_556 S
O221 Sm200 2.450 . S
O221 C202 1.242 . S
O222 Sm200 2.681 . S
O222 Sm201 2.386 . S
O222 C209 1.271 . S
O223 Sm200 2.464 . S
O223 C209 1.251 . S
O224 Sm200 2.396 . S
O224 C210 1.252 . S
O225 Sm201 2.408 . S
O225 C210 1.272 . S
O226 Sm201 2.543 . S
O226 C211 1.261 . S
O227 Sm201 2.450 1_556 S
O227 C211 1.242 1_556 S
O228 Sm200 2.386 1_556 S
O228 Sm201 2.681 1_556 S
O228 C218 1.271 . S
O229 Sm201 2.464 1_556 S
O229 C218 1.251 . S
O230 Sm201 2.396 1_556 S
O230 C219 1.252 1_556 S
O231 Sm200 2.408 . S
O231 C219 1.272 . S
H232 C204 0.930 . S
H233 C205 0.929 . S
H234 C207 0.930 . S
H235 C208 0.929 . S
H236 C213 0.930 . S
H237 C214 0.929 . S
H238 C216 0.930 . S
H239 C217 0.929 . S
Sm240 C242 2.846 . S
Sm240 O260 2.543 . S
Sm240 O261 2.450 . S
Sm240 O262 2.681 . S
Sm240 O263 2.464 . S
Sm240 O264 2.396 . S
Sm240 O268 2.386 . S
Sm240 O271 2.408 . S
Sm241 C251 2.846 . S
Sm241 O262 2.386 . S
Sm241 O265 2.408 . S
Sm241 O266 2.543 . S
Sm241 O267 2.450 . S
Sm241 O268 2.681 . S
Sm241 O269 2.464 . S
Sm241 O270 2.396 . S
C242 Sm240 2.846 . S
C242 C243 1.506 . S
C242 O260 1.261 . S
C242 O261 1.242 . S
C243 C242 1.506 . S
C243 C244 1.358 . S
C243 C248 1.382 . S
C244 C243 1.358 . S
C244 C245 1.385 . S
C244 H272 0.930 . S
C245 C244 1.385 . S
C245 C246 1.395 . S
C245 H273 0.929 . S
C246 C245 1.395 . S
C246 C247 1.335 . S
C247 C246 1.335 . S
C247 C248 1.398 . S
C247 H274 0.930 . S
C248 C243 1.382 . S
C248 C247 1.398 . S
C248 H275 0.929 . S
C249 O262 1.271 . S
C249 O263 1.251 . S
C250 O264 1.252 . S
C250 O265 1.272 . S
C251 Sm241 2.846 . S
C251 C252 1.506 . S
C251 O266 1.261 . S
C251 O267 1.242 . S
C252 C251 1.506 . S
C252 C253 1.358 . S
C252 C257 1.382 . S
C253 C252 1.358 . S
C253 C254 1.385 . S
C253 H276 0.930 . S
C254 C253 1.385 . S
C254 C255 1.395 . S
C254 H277 0.929 . S
C255 C254 1.395 . S
C255 C256 1.335 . S
C256 C255 1.335 . S
C256 C257 1.398 . S
C256 H278 0.930 . S
C257 C252 1.382 . S
C257 C256 1.398 . S
C257 H279 0.929 . S
C258 O268 1.271 . S
C258 O269 1.251 . S
C259 O270 1.252 . S
C259 O271 1.272 . S
O260 Sm240 2.543 . S
O260 C242 1.261 . S
O261 Sm240 2.450 . S
O261 C242 1.242 . S
O262 Sm240 2.681 . S
O262 Sm241 2.386 . S
O262 C249 1.271 . S
O263 Sm240 2.464 . S
O263 C249 1.251 . S
O264 Sm240 2.396 . S
O264 C250 1.252 . S
O265 Sm241 2.408 . S
O265 C250 1.272 . S
O266 Sm241 2.543 . S
O266 C251 1.261 . S
O267 Sm241 2.450 . S
O267 C251 1.242 . S
O268 Sm240 2.386 . S
O268 Sm241 2.681 . S
O268 C258 1.271 . S
O269 Sm241 2.464 . S
O269 C258 1.251 . S
O270 Sm241 2.396 . S
O270 C259 1.252 . S
O271 Sm240 2.408 . S
O271 C259 1.272 . S
H272 C244 0.930 . S
H273 C245 0.929 . S
H274 C247 0.930 . S
H275 C248 0.929 . S
H276 C253 0.930 . S
H277 C254 0.929 . S
H278 C256 0.930 . S
H279 C257 0.929 . S
Sm280 C282 2.846 . S
Sm280 O300 2.543 . S
Sm280 O301 2.450 . S
Sm280 O302 2.681 . S
Sm280 O303 2.464 . S
Sm280 O304 2.396 . S
Sm280 O308 2.386 . S
Sm280 O311 2.408 . S
Sm281 C291 2.846 . S
Sm281 O302 2.386 . S
Sm281 O305 2.408 . S
Sm281 O306 2.543 . S
Sm281 O307 2.450 . S
Sm281 O308 2.681 . S
Sm281 O309 2.464 . S
Sm281 O310 2.396 . S
C282 Sm280 2.846 . S
C282 C283 1.506 . S
C282 O300 1.261 . S
C282 O301 1.242 . S
C283 C282 1.506 . S
C283 C284 1.358 . S
C283 C288 1.382 . S
C284 C283 1.358 . S
C284 C285 1.385 . S
C284 H312 0.930 . S
C285 C284 1.385 . S
C285 C286 1.395 . S
C285 H313 0.929 . S
C286 C285 1.395 . S
C286 C287 1.335 . S
C287 C286 1.335 . S
C287 C288 1.398 . S
C287 H314 0.930 . S
C288 C283 1.382 . S
C288 C287 1.398 . S
C288 H315 0.929 . S
C289 O302 1.271 . S
C289 O303 1.251 . S
C290 O304 1.252 . S
C290 O305 1.272 . S
C291 Sm281 2.846 . S
C291 C292 1.506 . S
C291 O306 1.261 . S
C291 O307 1.242 . S
C292 C291 1.506 . S
C292 C293 1.358 . S
C292 C297 1.382 . S
C293 C292 1.358 . S
C293 C294 1.385 . S
C293 H316 0.930 . S
C294 C293 1.385 . S
C294 C295 1.395 . S
C294 H317 0.929 . S
C295 C294 1.395 . S
C295 C296 1.335 . S
C296 C295 1.335 . S
C296 C297 1.398 . S
C296 H318 0.930 . S
C297 C292 1.382 . S
C297 C296 1.398 . S
C297 H319 0.929 . S
C298 O308 1.271 . S
C298 O309 1.251 . S
C299 O310 1.252 . S
C299 O311 1.272 . S
O300 Sm280 2.543 . S
O300 C282 1.261 . S
O301 Sm280 2.450 . S
O301 C282 1.242 . S
O302 Sm280 2.681 . S
O302 Sm281 2.386 . S
O302 C289 1.271 . S
O303 Sm280 2.464 . S
O303 C289 1.251 . S
O304 Sm280 2.396 . S
O304 C290 1.252 . S
O305 Sm281 2.408 . S
O305 C290 1.272 . S
O306 Sm281 2.543 . S
O306 C291 1.261 . S
O307 Sm281 2.450 . S
O307 C291 1.242 . S
O308 Sm280 2.386 . S
O308 Sm281 2.681 . S
O308 C298 1.271 . S
O309 Sm281 2.464 . S
O309 C298 1.251 . S
O310 Sm281 2.396 . S
O310 C299 1.252 . S
O311 Sm280 2.408 . S
O311 C299 1.272 . S
H312 C284 0.930 . S
H313 C285 0.929 . S
H314 C287 0.930 . S
H315 C288 0.929 . S
H316 C293 0.930 . S
H317 C294 0.929 . S
H318 C296 0.930 . S
H319 C297 0.929 . S
C320 C321 1.363 . S
C320 C326 1.379 . S
C320 N328 1.356 . S
C321 C320 1.363 . S
C321 C327 1.363 1_554 S
C322 C323 1.363 1_556 S
C322 C327 1.379 . S
C322 N329 1.356 . S
C323 C322 1.363 1_554 S
C323 C326 1.363 . S
N324 C326 1.356 . S
N324 H336 0.984 . S
N324 H337 0.985 . S
N325 C327 1.356 . S
N325 H330 0.984 . S
N325 H331 0.985 . S
C326 C320 1.379 . S
C326 C323 1.363 . S
C326 N324 1.356 . S
C327 C321 1.363 1_556 S
C327 C322 1.379 . S
C327 N325 1.356 . S
N328 C320 1.356 . S
N328 H334 0.984 . S
N328 H335 0.984 . S
N329 C322 1.356 . S
N329 H332 0.984 . S
N329 H333 0.985 . S
H330 N325 0.984 . S
H331 N325 0.985 . S
H332 N329 0.984 . S
H333 N329 0.985 . S
H334 N328 0.984 . S
H335 N328 0.984 . S
H336 N324 0.984 . S
H337 N324 0.985 . S
C338 C339 1.363 1_556 S
C338 C344 1.379 . S
C338 N346 1.356 . S
C339 C338 1.363 1_554 S
C339 C345 1.363 . S
C340 C341 1.363 . S
C340 C345 1.379 . S
C340 N347 1.356 . S
C341 C340 1.363 . S
C341 C344 1.363 1_554 S
N342 C344 1.356 . S
N342 H354 0.984 . S
N342 H355 0.985 . S
N343 C345 1.356 . S
N343 H348 0.984 . S
N343 H349 0.985 . S
C344 C338 1.379 . S
C344 C341 1.363 1_556 S
C344 N342 1.356 . S
C345 C339 1.363 . S
C345 C340 1.379 . S
C345 N343 1.356 . S
N346 C338 1.356 . S
N346 H352 0.984 . S
N346 H353 0.984 . S
N347 C340 1.356 . S
N347 H350 0.984 . S
N347 H351 0.985 . S
H348 N343 0.984 . S
H349 N343 0.985 . S
H350 N347 0.984 . S
H351 N347 0.985 . S
H352 N346 0.984 . S
H353 N346 0.984 . S
H354 N342 0.984 . S
H355 N342 0.985 . S
C356 C357 1.363 . S
C356 C362 1.379 . S
C356 N364 1.356 . S
C357 C356 1.363 . S
C357 C363 1.363 . S
C358 C359 1.363 . S
C358 C363 1.379 . S
C358 N365 1.356 . S
C359 C358 1.363 . S
C359 C362 1.363 . S
N360 C362 1.356 . S
N360 H372 0.984 . S
N360 H373 0.985 . S
N361 C363 1.356 . S
N361 H366 0.984 . S
N361 H367 0.985 . S
C362 C356 1.379 . S
C362 C359 1.363 . S
C362 N360 1.356 . S
C363 C357 1.363 . S
C363 C358 1.379 . S
C363 N361 1.356 . S
N364 C356 1.356 . S
N364 H370 0.984 . S
N364 H371 0.984 . S
N365 C358 1.356 . S
N365 H368 0.984 . S
N365 H369 0.985 . S
H366 N361 0.984 . S
H367 N361 0.985 . S
H368 N365 0.984 . S
H369 N365 0.985 . S
H370 N364 0.984 . S
H371 N364 0.984 . S
H372 N360 0.984 . S
H373 N360 0.985 . S
C374 C375 1.363 . S
C374 C380 1.379 . S
C374 N382 1.356 . S
C375 C374 1.363 . S
C375 C381 1.363 . S
C376 C377 1.363 . S
C376 C381 1.379 . S
C376 N383 1.356 . S
C377 C376 1.363 . S
C377 C380 1.363 . S
N378 C380 1.356 . S
N378 H390 0.984 . S
N378 H391 0.985 . S
N379 C381 1.356 . S
N379 H384 0.984 . S
N379 H385 0.985 . S
C380 C374 1.379 . S
C380 C377 1.363 . S
C380 N378 1.356 . S
C381 C375 1.363 . S
C381 C376 1.379 . S
C381 N379 1.356 . S
N382 C374 1.356 . S
N382 H388 0.984 . S
N382 H389 0.984 . S
N383 C376 1.356 . S
N383 H386 0.984 . S
N383 H387 0.985 . S
H384 N379 0.984 . S
H385 N379 0.985 . S
H386 N383 0.984 . S
H387 N383 0.985 . S
H388 N382 0.984 . S
H389 N382 0.984 . S
H390 N378 0.984 . S
H391 N378 0.985 . S
C392 C393 1.363 1_456 S
C392 C398 1.379 . S
C392 N400 1.356 1_455 S
C393 C392 1.363 1_654 S
C393 C399 1.363 . S
C394 C395 1.363 . S
C394 C399 1.379 1_455 S
C394 N401 1.356 . S
C395 C394 1.363 . S
C395 C398 1.363 1_554 S
N396 C398 1.356 . S
N396 H408 0.984 . S
N396 H409 0.985 . S
N397 C399 1.356 . S
N397 H402 0.984 . S
N397 H403 0.985 . S
C398 C392 1.379 . S
C398 C395 1.363 1_556 S
C398 N396 1.356 . S
C399 C393 1.363 . S
C399 C394 1.379 1_655 S
C399 N397 1.356 . S
N400 C392 1.356 1_655 S
N400 H406 0.984 1_655 S
N400 H407 0.984 . S
N401 C394 1.356 . S
N401 H404 0.984 . S
N401 H405 0.985 . S
H402 N397 0.984 . S
H403 N397 0.985 . S
H404 N401 0.984 . S
H405 N401 0.985 . S
H406 N400 0.984 1_455 S
H407 N400 0.984 . S
H408 N396 0.984 . S
H409 N396 0.985 . S
C410 C411 1.363 1_556 S
C410 C416 1.379 1_455 S
C410 N418 1.356 . S
C411 C410 1.363 1_554 S
C411 C417 1.363 1_455 S
C412 C413 1.363 . S
C412 C417 1.379 . S
C412 N419 1.356 . S
C413 C412 1.363 . S
C413 C416 1.363 1_554 S
N414 C416 1.356 . S
N414 H426 0.984 . S
N414 H427 0.985 . S
N415 C417 1.356 1_455 S
N415 H420 0.984 . S
N415 H421 0.985 1_455 S
C416 C410 1.379 1_655 S
C416 C413 1.363 1_556 S
C416 N414 1.356 . S
C417 C411 1.363 1_655 S
C417 C412 1.379 . S
C417 N415 1.356 1_655 S
N418 C410 1.356 . S
N418 H424 0.984 . S
N418 H425 0.984 . S
N419 C412 1.356 . S
N419 H422 0.984 . S
N419 H423 0.985 . S
H420 N415 0.984 . S
H421 N415 0.985 1_655 S
H422 N419 0.984 . S
H423 N419 0.985 . S
H424 N418 0.984 . S
H425 N418 0.984 . S
H426 N414 0.984 . S
H427 N414 0.985 . S
C428 C429 1.363 . S
C428 C434 1.379 1_455 S
C428 N436 1.356 . S
C429 C428 1.363 . S
C429 C435 1.363 . S
C430 C431 1.363 1_455 S
C430 C435 1.379 . S
C430 N437 1.356 1_455 S
C431 C430 1.363 1_655 S
C431 C434 1.363 . S
N432 C434 1.356 . S
N432 H444 0.984 . S
N432 H445 0.985 . S
N433 C435 1.356 . S
N433 H438 0.984 . S
N433 H439 0.985 . S
C434 C428 1.379 1_655 S
C434 C431 1.363 . S
C434 N432 1.356 . S
C435 C429 1.363 . S
C435 C430 1.379 . S
C435 N433 1.356 . S
N436 C428 1.356 . S
N436 H442 0.984 . S
N436 H443 0.984 . S
N437 C430 1.356 1_655 S
N437 H440 0.984 . S
N437 H441 0.985 1_655 S
H438 N433 0.984 . S
H439 N433 0.985 . S
H440 N437 0.984 . S
H441 N437 0.985 1_455 S
H442 N436 0.984 . S
H443 N436 0.984 . S
H444 N432 0.984 . S
H445 N432 0.985 . S
C446 C447 1.363 . S
C446 C452 1.379 1_655 S
C446 N454 1.356 . S
C447 C446 1.363 . S
C447 C453 1.363 . S
C448 C449 1.363 1_655 S
C448 C453 1.379 . S
C448 N455 1.356 1_655 S
C449 C448 1.363 1_455 S
C449 C452 1.363 . S
N450 C452 1.356 . S
N450 H462 0.984 . S
N450 H463 0.985 . S
N451 C453 1.356 . S
N451 H456 0.984 . S
N451 H457 0.985 . S
C452 C446 1.379 1_455 S
C452 C449 1.363 . S
C452 N450 1.356 . S
C453 C447 1.363 . S
C453 C448 1.379 . S
C453 N451 1.356 . S
N454 C446 1.356 . S
N454 H460 0.984 . S
N454 H461 0.984 . S
N455 C448 1.356 1_455 S
N455 H458 0.984 . S
N455 H459 0.985 . S
H456 N451 0.984 . S
H457 N451 0.985 . S
H458 N455 0.984 . S
H459 N455 0.985 . S
H460 N454 0.984 . S
H461 N454 0.984 . S
H462 N450 0.984 . S
H463 N450 0.985 . S
C464 C465 1.363 . S
C464 C470 1.379 1_455 S
C464 N472 1.356 . S
C465 C464 1.363 . S
C465 C471 1.363 1_554 S
C466 C467 1.363 1_556 S
C466 C471 1.379 1_655 S
C466 N473 1.356 . S
C467 C466 1.363 1_554 S
C467 C470 1.363 . S
N468 C470 1.356 . S
N468 H480 0.984 . S
N468 H481 0.985 . S
N469 C471 1.356 . S
N469 H474 0.984 . S
N469 H475 0.985 . S
C470 C464 1.379 1_655 S
C470 C467 1.363 . S
C470 N468 1.356 . S
C471 C465 1.363 1_556 S
C471 C466 1.379 1_455 S
C471 N469 1.356 . S
N472 C464 1.356 . S
N472 H478 0.984 . S
N472 H479 0.984 . S
N473 C466 1.356 . S
N473 H476 0.984 . S
N473 H477 0.985 . S
H474 N469 0.984 . S
H475 N469 0.985 . S
H476 N473 0.984 . S
H477 N473 0.985 . S
H478 N472 0.984 . S
H479 N472 0.984 . S
H480 N468 0.984 . S
H481 N468 0.985 . S
C482 C483 1.363 . S
C482 C488 1.379 . S
C482 N490 1.356 . S
C483 C482 1.363 . S
C483 C489 1.363 1_455 S
C484 C485 1.363 . S
C484 C489 1.379 . S
C484 N491 1.356 . S
C485 C484 1.363 . S
C485 C488 1.363 1_655 S
N486 C488 1.356 1_655 S
N486 H498 0.984 1_655 S
N486 H499 0.985 . S
N487 C489 1.356 1_455 S
N487 H492 0.984 . S
N487 H493 0.985 1_455 S
C488 C482 1.379 . S
C488 C485 1.363 1_455 S
C488 N486 1.356 1_455 S
C489 C483 1.363 1_655 S
C489 C484 1.379 . S
C489 N487 1.356 1_655 S
N490 C482 1.356 . S
N490 H496 0.984 . S
N490 H497 0.984 . S
N491 C484 1.356 . S
N491 H494 0.984 . S
N491 H495 0.985 . S
H492 N487 0.984 . S
H493 N487 0.985 1_655 S
H494 N491 0.984 . S
H495 N491 0.985 . S
H496 N490 0.984 . S
H497 N490 0.984 . S
H498 N486 0.984 1_455 S
H499 N486 0.985 . S
C500 C501 1.363 1_556 S
C500 C506 1.379 1_565 S
C500 N508 1.356 . S
C501 C500 1.363 1_554 S
C501 C507 1.363 . S
C502 C503 1.363 . S
C502 C507 1.379 1_545 S
C502 N509 1.356 . S
C503 C502 1.363 . S
C503 C506 1.363 1_554 S
N504 C506 1.356 . S
N504 H516 0.984 . S
N504 H517 0.985 . S
N505 C507 1.356 . S
N505 H510 0.984 . S
N505 H511 0.985 . S
C506 C500 1.379 1_545 S
C506 C503 1.363 1_556 S
C506 N504 1.356 . S
C507 C501 1.363 . S
C507 C502 1.379 1_565 S
C507 N505 1.356 . S
N508 C500 1.356 . S
N508 H514 0.984 . S
N508 H515 0.984 . S
N509 C502 1.356 . S
N509 H512 0.984 . S
N509 H513 0.985 . S
H510 N505 0.984 . S
H511 N505 0.985 . S
H512 N509 0.984 . S
H513 N509 0.985 . S
H514 N508 0.984 . S
H515 N508 0.984 . S
H516 N504 0.984 . S
H517 N504 0.985 . S
C518 C519 1.363 . S
C518 C524 1.379 . S
C518 N526 1.356 . S
C519 C518 1.363 . S
C519 C525 1.363 1_545 S
C520 C521 1.363 . S
C520 C525 1.379 . S
C520 N527 1.356 . S
C521 C520 1.363 . S
C521 C524 1.363 1_565 S
N522 C524 1.356 1_565 S
N522 H534 0.984 1_565 S
N522 H535 0.985 . S
N523 C525 1.356 1_545 S
N523 H528 0.984 . S
N523 H529 0.985 1_545 S
C524 C518 1.379 . S
C524 C521 1.363 1_545 S
C524 N522 1.356 1_545 S
C525 C519 1.363 1_565 S
C525 C520 1.379 . S
C525 N523 1.356 1_565 S
N526 C518 1.356 . S
N526 H532 0.984 . S
N526 H533 0.984 . S
N527 C520 1.356 . S
N527 H530 0.984 . S
N527 H531 0.985 . S
H528 N523 0.984 . S
H529 N523 0.985 1_565 S
H530 N527 0.984 . S
H531 N527 0.985 . S
H532 N526 0.984 . S
H533 N526 0.984 . S
H534 N522 0.984 1_545 S
H535 N522 0.985 . S
C536 C537 1.363 . S
C536 C542 1.379 . S
C536 N544 1.356 . S
C537 C536 1.363 . S
C537 C543 1.363 1_554 S
C538 C539 1.363 1_556 S
C538 C543 1.379 . S
C538 N545 1.356 . S
C539 C538 1.363 1_554 S
C539 C542 1.363 . S
N540 C542 1.356 . S
N540 H552 0.984 . S
N540 H553 0.985 . S
N541 C543 1.356 . S
N541 H546 0.984 . S
N541 H547 0.985 . S
C542 C536 1.379 . S
C542 C539 1.363 . S
C542 N540 1.356 . S
C543 C537 1.363 1_556 S
C543 C538 1.379 . S
C543 N541 1.356 . S
N544 C536 1.356 . S
N544 H550 0.984 . S
N544 H551 0.984 . S
N545 C538 1.356 . S
N545 H548 0.984 . S
N545 H549 0.985 . S
H546 N541 0.984 . S
H547 N541 0.985 . S
H548 N545 0.984 . S
H549 N545 0.985 . S
H550 N544 0.984 . S
H551 N544 0.984 . S
H552 N540 0.984 . S
H553 N540 0.985 . S
C554 C555 1.363 1_556 S
C554 C560 1.379 . S
C554 N562 1.356 . S
C555 C554 1.363 1_554 S
C555 C561 1.363 . S
C556 C557 1.363 . S
C556 C561 1.379 . S
C556 N563 1.356 . S
C557 C556 1.363 . S
C557 C560 1.363 1_554 S
N558 C560 1.356 . S
N558 H570 0.984 . S
N558 H571 0.985 . S
N559 C561 1.356 . S
N559 H564 0.984 . S
N559 H565 0.985 . S
C560 C554 1.379 . S
C560 C557 1.363 1_556 S
C560 N558 1.356 . S
C561 C555 1.363 . S
C561 C556 1.379 . S
C561 N559 1.356 . S
N562 C554 1.356 . S
N562 H568 0.984 . S
N562 H569 0.984 . S
N563 C556 1.356 . S
N563 H566 0.984 . S
N563 H567 0.985 . S
H564 N559 0.984 . S
H565 N559 0.985 . S
H566 N563 0.984 . S
H567 N563 0.985 . S
H568 N562 0.984 . S
H569 N562 0.984 . S
H570 N558 0.984 . S
H571 N558 0.985 . S
C572 C573 1.363 . S
C572 C578 1.379 . S
C572 N580 1.356 . S
C573 C572 1.363 . S
C573 C579 1.363 . S
C574 C575 1.363 . S
C574 C579 1.379 . S
C574 N581 1.356 . S
C575 C574 1.363 . S
C575 C578 1.363 . S
N576 C578 1.356 . S
N576 H588 0.984 . S
N576 H589 0.985 . S
N577 C579 1.356 . S
N577 H582 0.984 . S
N577 H583 0.985 . S
C578 C572 1.379 . S
C578 C575 1.363 . S
C578 N576 1.356 . S
C579 C573 1.363 . S
C579 C574 1.379 . S
C579 N577 1.356 . S
N580 C572 1.356 . S
N580 H586 0.984 . S
N580 H587 0.984 . S
N581 C574 1.356 . S
N581 H584 0.984 . S
N581 H585 0.985 . S
H582 N577 0.984 . S
H583 N577 0.985 . S
H584 N581 0.984 . S
H585 N581 0.985 . S
H586 N580 0.984 . S
H587 N580 0.984 . S
H588 N576 0.984 . S
H589 N576 0.985 . S
C590 C591 1.363 . S
C590 C596 1.379 . S
C590 N598 1.356 . S
C591 C590 1.363 . S
C591 C597 1.363 . S
C592 C593 1.363 . S
C592 C597 1.379 . S
C592 N599 1.356 . S
C593 C592 1.363 . S
C593 C596 1.363 . S
N594 C596 1.356 . S
N594 H606 0.984 . S
N594 H607 0.985 . S
N595 C597 1.356 . S
N595 H600 0.984 . S
N595 H601 0.985 . S
C596 C590 1.379 . S
C596 C593 1.363 . S
C596 N594 1.356 . S
C597 C591 1.363 . S
C597 C592 1.379 . S
C597 N595 1.356 . S
N598 C590 1.356 . S
N598 H604 0.984 . S
N598 H605 0.984 . S
N599 C592 1.356 . S
N599 H602 0.984 . S
N599 H603 0.985 . S
H600 N595 0.984 . S
H601 N595 0.985 . S
H602 N599 0.984 . S
H603 N599 0.985 . S
H604 N598 0.984 . S
H605 N598 0.984 . S
H606 N594 0.984 . S
H607 N594 0.985 . S
C608 C609 1.363 . S
C608 C614 1.379 . S
C608 N616 1.356 . S
C609 C608 1.363 . S
C609 C615 1.363 1_455 S
C610 C611 1.363 . S
C610 C615 1.379 . S
C610 N617 1.356 . S
C611 C610 1.363 . S
C611 C614 1.363 1_655 S
N612 C614 1.356 . S
N612 H624 0.984 . S
N612 H625 0.985 . S
N613 C615 1.356 . S
N613 H618 0.984 . S
N613 H619 0.985 . S
C614 C608 1.379 . S
C614 C611 1.363 1_455 S
C614 N612 1.356 . S
C615 C609 1.363 1_655 S
C615 C610 1.379 . S
C615 N613 1.356 . S
N616 C608 1.356 . S
N616 H622 0.984 . S
N616 H623 0.984 . S
N617 C610 1.356 . S
N617 H620 0.984 . S
N617 H621 0.985 . S
H618 N613 0.984 . S
H619 N613 0.985 . S
H620 N617 0.984 . S
H621 N617 0.985 . S
H622 N616 0.984 . S
H623 N616 0.984 . S
H624 N612 0.984 . S
H625 N612 0.985 . S
C626 C627 1.363 1_455 S
C626 C632 1.379 . S
C626 N634 1.356 . S
C627 C626 1.363 1_655 S
C627 C633 1.363 . S
C628 C629 1.363 1_655 S
C628 C633 1.379 . S
C628 N635 1.356 . S
C629 C628 1.363 1_455 S
C629 C632 1.363 . S
N630 C632 1.356 . S
N630 H642 0.984 . S
N630 H643 0.985 . S
N631 C633 1.356 . S
N631 H636 0.984 . S
N631 H637 0.985 . S
C632 C626 1.379 . S
C632 C629 1.363 . S
C632 N630 1.356 . S
C633 C627 1.363 . S
C633 C628 1.379 . S
C633 N631 1.356 . S
N634 C626 1.356 . S
N634 H640 0.984 . S
N634 H641 0.984 . S
N635 C628 1.356 . S
N635 H638 0.984 . S
N635 H639 0.985 . S
H636 N631 0.984 . S
H637 N631 0.985 . S
H638 N635 0.984 . S
H639 N635 0.985 . S
H640 N634 0.984 . S
H641 N634 0.984 . S
H642 N630 0.984 . S
H643 N630 0.985 . S
C644 C645 1.363 . S
C644 C650 1.379 . S
C644 N652 1.356 . S
C645 C644 1.363 . S
C645 C651 1.363 1_655 S
C646 C647 1.363 . S
C646 C651 1.379 . S
C646 N653 1.356 . S
C647 C646 1.363 . S
C647 C650 1.363 1_455 S
N648 C650 1.356 . S
N648 H660 0.984 . S
N648 H661 0.985 . S
N649 C651 1.356 . S
N649 H654 0.984 . S
N649 H655 0.985 . S
C650 C644 1.379 . S
C650 C647 1.363 1_655 S
C650 N648 1.356 . S
C651 C645 1.363 1_455 S
C651 C646 1.379 . S
C651 N649 1.356 . S
N652 C644 1.356 . S
N652 H658 0.984 . S
N652 H659 0.984 . S
N653 C646 1.356 . S
N653 H656 0.984 . S
N653 H657 0.985 . S
H654 N649 0.984 . S
H655 N649 0.985 . S
H656 N653 0.984 . S
H657 N653 0.985 . S
H658 N652 0.984 . S
H659 N652 0.984 . S
H660 N648 0.984 . S
H661 N648 0.985 . S
C662 C663 1.363 . S
C662 C668 1.379 . S
C662 N670 1.356 . S
C663 C662 1.363 . S
C663 C669 1.363 1_655 S
C664 C665 1.363 . S
C664 C669 1.379 . S
C664 N671 1.356 . S
C665 C664 1.363 . S
C665 C668 1.363 1_455 S
N666 C668 1.356 . S
N666 H678 0.984 . S
N666 H679 0.985 . S
N667 C669 1.356 . S
N667 H672 0.984 . S
N667 H673 0.985 . S
C668 C662 1.379 . S
C668 C665 1.363 1_655 S
C668 N666 1.356 . S
C669 C663 1.363 1_455 S
C669 C664 1.379 . S
C669 N667 1.356 . S
N670 C662 1.356 . S
N670 H676 0.984 . S
N670 H677 0.984 . S
N671 C664 1.356 . S
N671 H674 0.984 . S
N671 H675 0.985 . S
H672 N667 0.984 . S
H673 N667 0.985 . S
H674 N671 0.984 . S
H675 N671 0.985 . S
H676 N670 0.984 . S
H677 N670 0.984 . S
H678 N666 0.984 . S
H679 N666 0.985 . S
C680 C681 1.363 . S
C680 C686 1.379 . S
C680 N688 1.356 . S
C681 C680 1.363 . S
C681 C687 1.363 . S
C682 C683 1.363 . S
C682 C687 1.379 . S
C682 N689 1.356 . S
C683 C682 1.363 . S
C683 C686 1.363 . S
N684 C686 1.356 . S
N684 H696 0.984 . S
N684 H697 0.985 . S
N685 C687 1.356 . S
N685 H690 0.984 . S
N685 H691 0.985 . S
C686 C680 1.379 . S
C686 C683 1.363 . S
C686 N684 1.356 . S
C687 C681 1.363 . S
C687 C682 1.379 . S
C687 N685 1.356 . S
N688 C680 1.356 . S
N688 H694 0.984 . S
N688 H695 0.984 . S
N689 C682 1.356 . S
N689 H692 0.984 . S
N689 H693 0.985 . S
H690 N685 0.984 . S
H691 N685 0.985 . S
H692 N689 0.984 . S
H693 N689 0.985 . S
H694 N688 0.984 . S
H695 N688 0.984 . S
H696 N684 0.984 . S
H697 N684 0.985 . S
C698 C699 1.363 . S
C698 C704 1.379 . S
C698 N706 1.356 . S
C699 C698 1.363 . S
C699 C705 1.363 . S
C700 C701 1.363 . S
C700 C705 1.379 . S
C700 N707 1.356 . S
C701 C700 1.363 . S
C701 C704 1.363 . S
N702 C704 1.356 . S
N702 H714 0.984 . S
N702 H715 0.985 . S
N703 C705 1.356 . S
N703 H708 0.984 . S
N703 H709 0.985 . S
C704 C698 1.379 . S
C704 C701 1.363 . S
C704 N702 1.356 . S
C705 C699 1.363 . S
C705 C700 1.379 . S
C705 N703 1.356 . S
N706 C698 1.356 . S
N706 H712 0.984 . S
N706 H713 0.984 . S
N707 C700 1.356 . S
N707 H710 0.984 . S
N707 H711 0.985 . S
H708 N703 0.984 . S
H709 N703 0.985 . S
H710 N707 0.984 . S
H711 N707 0.985 . S
H712 N706 0.984 . S
H713 N706 0.984 . S
H714 N702 0.984 . S
H715 N702 0.985 . S
C716 C717 1.363 . S
C716 C722 1.379 . S
C716 N724 1.356 . S
C717 C716 1.363 . S
C717 C723 1.363 . S
C718 C719 1.363 . S
C718 C723 1.379 . S
C718 N725 1.356 . S
C719 C718 1.363 . S
C719 C722 1.363 . S
N720 C722 1.356 . S
N720 H732 0.984 . S
N720 H733 0.985 . S
N721 C723 1.356 . S
N721 H726 0.984 . S
N721 H727 0.985 . S
C722 C716 1.379 . S
C722 C719 1.363 . S
C722 N720 1.356 . S
C723 C717 1.363 . S
C723 C718 1.379 . S
C723 N721 1.356 . S
N724 C716 1.356 . S
N724 H730 0.984 . S
N724 H731 0.984 . S
N725 C718 1.356 . S
N725 H728 0.984 . S
N725 H729 0.985 . S
H726 N721 0.984 . S
H727 N721 0.985 . S
H728 N725 0.984 . S
H729 N725 0.985 . S
H730 N724 0.984 . S
H731 N724 0.984 . S
H732 N720 0.984 . S
H733 N720 0.985 . S
C734 C735 1.363 . S
C734 C740 1.379 . S
C734 N742 1.356 . S
C735 C734 1.363 . S
C735 C741 1.363 . S
C736 C737 1.363 . S
C736 C741 1.379 . S
C736 N743 1.356 . S
C737 C736 1.363 . S
C737 C740 1.363 . S
N738 C740 1.356 . S
N738 H750 0.984 . S
N738 H751 0.985 . S
N739 C741 1.356 . S
N739 H744 0.984 . S
N739 H745 0.985 . S
C740 C734 1.379 . S
C740 C737 1.363 . S
C740 N738 1.356 . S
C741 C735 1.363 . S
C741 C736 1.379 . S
C741 N739 1.356 . S
N742 C734 1.356 . S
N742 H748 0.984 . S
N742 H749 0.984 . S
N743 C736 1.356 . S
N743 H746 0.984 . S
N743 H747 0.985 . S
H744 N739 0.984 . S
H745 N739 0.985 . S
H746 N743 0.984 . S
H747 N743 0.985 . S
H748 N742 0.984 . S
H749 N742 0.984 . S
H750 N738 0.984 . S
H751 N738 0.985 . S
C321 C19 2.276 . S
C323 C10 2.276 . S
C339 C59 2.276 . S
C341 C50 2.276 . S
C357 C99 2.276 . S
C359 C90 2.276 . S
C375 C139 2.276 . S
C377 C130 2.276 . S
C393 C179 2.276 . S
C395 C170 2.276 . S
C411 C210 2.276 . S
C413 C219 2.276 . S
C429 C259 2.276 . S
C431 C250 2.276 . S
C447 C290 2.276 . S
C449 C299 2.276 . S
C465 C55 2.922 . S
C467 C6 2.921 . S
C483 C126 2.920 . S
C485 C95 2.920 . S
C501 C166 2.920 . S
C503 C215 2.920 . S
C519 C255 2.922 . S
C521 C286 2.922 . S
C537 C15 2.041 . S
C539 C206 2.041 . S
C555 C175 2.040 . S
C557 C46 2.040 . S
C573 C86 2.040 . S
C575 C295 2.040 . S
C591 C135 2.039 . S
C593 C246 2.039 . S
C609 C9 1.498 . S
C611 C129 1.497 . S
C627 C49 1.577 . S
C629 C89 1.577 . S
C645 C58 1.497 . S
C647 C98 1.497 . S
C663 C138 1.577 . S
C665 C18 1.577 . S
C681 C169 1.496 . S
C683 C289 1.496 . S
C699 C209 1.577 . S
C701 C249 1.578 . S
C717 C218 1.497 . S
C719 C258 1.496 . S
C735 C298 1.578 . S
C737 C178 1.578 . S
