# Generated by pormake.
# Topology umq, (4)-cn, num edge types: 1
# Building blocks:
#     Node 0, Type 0, BuildingBlock: QUQFOY_clean_sbu_3, # of connection points: 4
#     Node 1, Type 0, BuildingBlock: QUQFOY_clean_sbu_3, # of connection points: 4
#     Node 2, Type 0, BuildingBlock: QUQFOY_clean_sbu_3, # of connection points: 4
#     Node 3, Type 0, BuildingBlock: QUQFOY_clean_sbu_3, # of connection points: 4
#     Node 4, Type 0, BuildingBlock: QUQFOY_clean_sbu_3, # of connection points: 4
#     Node 5, Type 0, BuildingBlock: QUQFOY_clean_sbu_3, # of connection points: 4
#     Node 6, Type 0, BuildingBlock: QUQFOY_clean_sbu_3, # of connection points: 4
#     Node 7, Type 0, BuildingBlock: QUQFOY_clean_sbu_3, # of connection points: 4
#     Node 8, Type 0, BuildingBlock: QUQFOY_clean_sbu_3, # of connection points: 4
#     Node 9, Type 0, BuildingBlock: QUQFOY_clean_sbu_3, # of connection points: 4
#     Node 10, Type 0, BuildingBlock: QUQFOY_clean_sbu_3, # of connection points: 4
#     Node 11, Type 0, BuildingBlock: QUQFOY_clean_sbu_3, # of connection points: 4
#     Node 12, Type 0, BuildingBlock: QUQFOY_clean_sbu_3, # of connection points: 4
#     Node 13, Type 0, BuildingBlock: QUQFOY_clean_sbu_3, # of connection points: 4
#     Node 14, Type 0, BuildingBlock: QUQFOY_clean_sbu_3, # of connection points: 4
#     Node 15, Type 0, BuildingBlock: QUQFOY_clean_sbu_3, # of connection points: 4
#     Node 16, Type 0, BuildingBlock: QUQFOY_clean_sbu_3, # of connection points: 4
#     Node 17, Type 0, BuildingBlock: QUQFOY_clean_sbu_3, # of connection points: 4
#     Node 18, Type 0, BuildingBlock: QUQFOY_clean_sbu_3, # of connection points: 4
#     Node 19, Type 0, BuildingBlock: QUQFOY_clean_sbu_3, # of connection points: 4
#     Node 20, Type 0, BuildingBlock: QUQFOY_clean_sbu_3, # of connection points: 4
#     Node 21, Type 0, BuildingBlock: QUQFOY_clean_sbu_3, # of connection points: 4
#     Node 22, Type 0, BuildingBlock: QUQFOY_clean_sbu_3, # of connection points: 4
#     Node 23, Type 0, BuildingBlock: QUQFOY_clean_sbu_3, # of connection points: 4
#     Node 24, Type 0, BuildingBlock: QUQFOY_clean_sbu_3, # of connection points: 4
#     Node 25, Type 0, BuildingBlock: QUQFOY_clean_sbu_3, # of connection points: 4
#     Node 26, Type 0, BuildingBlock: QUQFOY_clean_sbu_3, # of connection points: 4
#     Node 27, Type 0, BuildingBlock: QUQFOY_clean_sbu_3, # of connection points: 4
#     Node 28, Type 0, BuildingBlock: QUQFOY_clean_sbu_3, # of connection points: 4
#     Node 29, Type 0, BuildingBlock: QUQFOY_clean_sbu_3, # of connection points: 4
#     Node 30, Type 0, BuildingBlock: QUQFOY_clean_sbu_3, # of connection points: 4
#     Node 31, Type 0, BuildingBlock: QUQFOY_clean_sbu_3, # of connection points: 4
#     Edge 32, Type (0, 0), BuildingBlock: OJICUG_clean_linker_0, # of connection points: 2
#     Edge 33, Type (0, 0), BuildingBlock: OJICUG_clean_linker_0, # of connection points: 2
#     Edge 34, Type (0, 0), BuildingBlock: OJICUG_clean_linker_0, # of connection points: 2
#     Edge 35, Type (0, 0), BuildingBlock: OJICUG_clean_linker_0, # of connection points: 2
#     Edge 36, Type (0, 0), BuildingBlock: OJICUG_clean_linker_0, # of connection points: 2
#     Edge 37, Type (0, 0), BuildingBlock: OJICUG_clean_linker_0, # of connection points: 2
#     Edge 38, Type (0, 0), BuildingBlock: OJICUG_clean_linker_0, # of connection points: 2
#     Edge 39, Type (0, 0), BuildingBlock: OJICUG_clean_linker_0, # of connection points: 2
#     Edge 40, Type (0, 0), BuildingBlock: OJICUG_clean_linker_0, # of connection points: 2
#     Edge 41, Type (0, 0), BuildingBlock: OJICUG_clean_linker_0, # of connection points: 2
#     Edge 42, Type (0, 0), BuildingBlock: OJICUG_clean_linker_0, # of connection points: 2
#     Edge 43, Type (0, 0), BuildingBlock: OJICUG_clean_linker_0, # of connection points: 2
#     Edge 44, Type (0, 0), BuildingBlock: OJICUG_clean_linker_0, # of connection points: 2
#     Edge 45, Type (0, 0), BuildingBlock: OJICUG_clean_linker_0, # of connection points: 2
#     Edge 46, Type (0, 0), BuildingBlock: OJICUG_clean_linker_0, # of connection points: 2
#     Edge 47, Type (0, 0), BuildingBlock: OJICUG_clean_linker_0, # of connection points: 2
#     Edge 48, Type (0, 0), BuildingBlock: OJICUG_clean_linker_0, # of connection points: 2
#     Edge 49, Type (0, 0), BuildingBlock: OJICUG_clean_linker_0, # of connection points: 2
#     Edge 50, Type (0, 0), BuildingBlock: OJICUG_clean_linker_0, # of connection points: 2
#     Edge 51, Type (0, 0), BuildingBlock: OJICUG_clean_linker_0, # of connection points: 2
#     Edge 52, Type (0, 0), BuildingBlock: OJICUG_clean_linker_0, # of connection points: 2
#     Edge 53, Type (0, 0), BuildingBlock: OJICUG_clean_linker_0, # of connection points: 2
#     Edge 54, Type (0, 0), BuildingBlock: OJICUG_clean_linker_0, # of connection points: 2
#     Edge 55, Type (0, 0), BuildingBlock: OJICUG_clean_linker_0, # of connection points: 2
#     Edge 56, Type (0, 0), BuildingBlock: OJICUG_clean_linker_0, # of connection points: 2
#     Edge 57, Type (0, 0), BuildingBlock: OJICUG_clean_linker_0, # of connection points: 2
#     Edge 58, Type (0, 0), BuildingBlock: OJICUG_clean_linker_0, # of connection points: 2
#     Edge 59, Type (0, 0), BuildingBlock: OJICUG_clean_linker_0, # of connection points: 2
#     Edge 60, Type (0, 0), BuildingBlock: OJICUG_clean_linker_0, # of connection points: 2
#     Edge 61, Type (0, 0), BuildingBlock: OJICUG_clean_linker_0, # of connection points: 2
#     Edge 62, Type (0, 0), BuildingBlock: OJICUG_clean_linker_0, # of connection points: 2
#     Edge 63, Type (0, 0), BuildingBlock: OJICUG_clean_linker_0, # of connection points: 2
#     Edge 64, Type (0, 0), BuildingBlock: OJICUG_clean_linker_0, # of connection points: 2
#     Edge 65, Type (0, 0), BuildingBlock: OJICUG_clean_linker_0, # of connection points: 2
#     Edge 66, Type (0, 0), BuildingBlock: OJICUG_clean_linker_0, # of connection points: 2
#     Edge 67, Type (0, 0), BuildingBlock: OJICUG_clean_linker_0, # of connection points: 2
#     Edge 68, Type (0, 0), BuildingBlock: OJICUG_clean_linker_0, # of connection points: 2
#     Edge 69, Type (0, 0), BuildingBlock: OJICUG_clean_linker_0, # of connection points: 2
#     Edge 70, Type (0, 0), BuildingBlock: OJICUG_clean_linker_0, # of connection points: 2
#     Edge 71, Type (0, 0), BuildingBlock: OJICUG_clean_linker_0, # of connection points: 2
#     Edge 72, Type (0, 0), BuildingBlock: OJICUG_clean_linker_0, # of connection points: 2
#     Edge 73, Type (0, 0), BuildingBlock: OJICUG_clean_linker_0, # of connection points: 2
#     Edge 74, Type (0, 0), BuildingBlock: OJICUG_clean_linker_0, # of connection points: 2
#     Edge 75, Type (0, 0), BuildingBlock: OJICUG_clean_linker_0, # of connection points: 2
#     Edge 76, Type (0, 0), BuildingBlock: OJICUG_clean_linker_0, # of connection points: 2
#     Edge 77, Type (0, 0), BuildingBlock: OJICUG_clean_linker_0, # of connection points: 2
#     Edge 78, Type (0, 0), BuildingBlock: OJICUG_clean_linker_0, # of connection points: 2
#     Edge 79, Type (0, 0), BuildingBlock: OJICUG_clean_linker_0, # of connection points: 2
#     Edge 80, Type (0, 0), BuildingBlock: OJICUG_clean_linker_0, # of connection points: 2
#     Edge 81, Type (0, 0), BuildingBlock: OJICUG_clean_linker_0, # of connection points: 2
#     Edge 82, Type (0, 0), BuildingBlock: OJICUG_clean_linker_0, # of connection points: 2
#     Edge 83, Type (0, 0), BuildingBlock: OJICUG_clean_linker_0, # of connection points: 2
#     Edge 84, Type (0, 0), BuildingBlock: OJICUG_clean_linker_0, # of connection points: 2
#     Edge 85, Type (0, 0), BuildingBlock: OJICUG_clean_linker_0, # of connection points: 2
#     Edge 86, Type (0, 0), BuildingBlock: OJICUG_clean_linker_0, # of connection points: 2
#     Edge 87, Type (0, 0), BuildingBlock: OJICUG_clean_linker_0, # of connection points: 2
#     Edge 88, Type (0, 0), BuildingBlock: OJICUG_clean_linker_0, # of connection points: 2
#     Edge 89, Type (0, 0), BuildingBlock: OJICUG_clean_linker_0, # of connection points: 2
#     Edge 90, Type (0, 0), BuildingBlock: OJICUG_clean_linker_0, # of connection points: 2
#     Edge 91, Type (0, 0), BuildingBlock: OJICUG_clean_linker_0, # of connection points: 2
#     Edge 92, Type (0, 0), BuildingBlock: OJICUG_clean_linker_0, # of connection points: 2
#     Edge 93, Type (0, 0), BuildingBlock: OJICUG_clean_linker_0, # of connection points: 2
#     Edge 94, Type (0, 0), BuildingBlock: OJICUG_clean_linker_0, # of connection points: 2
#     Edge 95, Type (0, 0), BuildingBlock: OJICUG_clean_linker_0, # of connection points: 2
# Relax obj value: 0.063
# Max RMSD: 0.052
# Mean RMSD: 0.052
data_MOF--net-umq--node1-QUQFOY_clean_sbu_3--edge1-OJICUG_clean_linker_0
_symmetry_space_group_name_H-M    P1
_symmetry_Int_Tables_number       1
_symmetry_cell_setting            triclinic
loop_
_symmetry_equiv_pos_as_xyz
'x, y, z'
_cell_length_a     51.707089
_cell_length_b     51.511227
_cell_length_c     35.260497
_cell_angle_alpha  89.976929
_cell_angle_beta   89.929548
_cell_angle_gamma 89.763332
loop_
_atom_site_label
_atom_site_type_symbol
_atom_site_fract_x
_atom_site_fract_y
_atom_site_fract_z
_atom_type_partial_charge
C0 C 0.19672 0.07962 0.04852 0.0
O1 O 0.18299 0.09986 0.05328 0.0
Cd2 Cd 0.18052 0.12749 0.10643 0.0
O3 O 0.21041 0.07011 0.0753 0.0
Cd4 Cd 0.21517 0.0788 0.14532 0.0
C5 C 0.24686 0.13434 0.12468 0.0
O6 O 0.17278 0.09713 0.15377 0.0
O7 O 0.19733 0.10116 0.20243 0.0
O8 O 0.20298 0.03483 0.15893 0.0
C9 C 0.17547 0.10526 0.18725 0.0
O10 O 0.22467 0.14246 0.11417 0.0
C11 C 0.22273 0.0288 0.17837 0.0
O12 O 0.24996 0.11123 0.13707 0.0
O13 O 0.24037 0.04584 0.18124 0.0
C14 C 0.88138 0.19754 0.04771 0.0
O15 O 0.86137 0.1837 0.05245 0.0
Cd16 Cd 0.83365 0.18124 0.10546 0.0
O17 O 0.89058 0.21141 0.07447 0.0
Cd18 Cd 0.88154 0.21636 0.14442 0.0
C19 C 0.8258 0.2478 0.12354 0.0
O20 O 0.86366 0.17381 0.15324 0.0
O21 O 0.85912 0.19881 0.2015 0.0
O22 O 0.92535 0.20428 0.15898 0.0
C23 C 0.85531 0.17676 0.18659 0.0
O24 O 0.81803 0.22547 0.11308 0.0
C25 C 0.93106 0.22434 0.17799 0.0
O26 O 0.84877 0.25107 0.1359 0.0
O27 O 0.91393 0.24209 0.18015 0.0
C28 C 0.76136 0.88244 0.04695 0.0
O29 O 0.77508 0.86219 0.05163 0.0
Cd30 Cd 0.77744 0.83441 0.10467 0.0
O31 O 0.74762 0.89188 0.07377 0.0
Cd32 Cd 0.74278 0.88299 0.14376 0.0
C33 C 0.71108 0.82751 0.12296 0.0
O34 O 0.78515 0.86462 0.15218 0.0
O35 O 0.76045 0.86042 0.20076 0.0
O36 O 0.755 0.92687 0.15786 0.0
C37 C 0.78236 0.85638 0.18562 0.0
O38 O 0.73327 0.8194 0.11239 0.0
C39 C 0.73516 0.93285 0.17719 0.0
O40 O 0.70799 0.85059 0.13544 0.0
O41 O 0.71746 0.91585 0.17975 0.0
C42 C 0.07674 0.76489 0.04671 0.0
O43 O 0.09693 0.77847 0.05136 0.0
Cd44 Cd 0.12475 0.7804 0.10431 0.0
O45 O 0.06744 0.75104 0.07347 0.0
Cd46 Cd 0.07665 0.74563 0.14329 0.0
C47 C 0.13217 0.71379 0.12217 0.0
O48 O 0.09493 0.78801 0.15248 0.0
O49 O 0.09916 0.76269 0.20048 0.0
O50 O 0.03299 0.75797 0.15849 0.0
C51 C 0.10321 0.78478 0.1858 0.0
O52 O 0.14012 0.73606 0.11171 0.0
C53 C 0.02711 0.73774 0.17703 0.0
O54 O 0.10917 0.7107 0.13458 0.0
O55 O 0.04408 0.71982 0.1787 0.0
C56 C 0.19522 0.88277 0.39243 0.0
O57 O 0.18172 0.86248 0.38788 0.0
Cd58 Cd 0.17976 0.83451 0.33497 0.0
O59 O 0.20897 0.89209 0.3656 0.0
Cd60 Cd 0.21425 0.88276 0.2958 0.0
C61 C 0.24612 0.82715 0.31697 0.0
O62 O 0.172 0.86444 0.28689 0.0
O63 O 0.19708 0.86015 0.23871 0.0
O64 O 0.20196 0.92659 0.28066 0.0
C65 C 0.17509 0.85616 0.25353 0.0
O66 O 0.22396 0.81912 0.32751 0.0
C67 C 0.22209 0.93244 0.26199 0.0
O68 O 0.24911 0.85022 0.30447 0.0
O69 O 0.23991 0.91538 0.26023 0.0
C70 C 0.07685 0.19817 0.39231 0.0
O71 O 0.09693 0.18426 0.38754 0.0
Cd72 Cd 0.12462 0.18181 0.3345 0.0
O73 O 0.06754 0.21207 0.36556 0.0
Cd74 Cd 0.07642 0.21695 0.29555 0.0
C75 C 0.13186 0.24842 0.31644 0.0
O76 O 0.09462 0.1744 0.28682 0.0
O77 O 0.09899 0.19938 0.23852 0.0
O78 O 0.03272 0.20474 0.28133 0.0
C79 C 0.10295 0.17732 0.25346 0.0
O80 O 0.1398 0.22607 0.32691 0.0
C81 C 0.02677 0.2247 0.26211 0.0
O82 O 0.10889 0.2517 0.30401 0.0
O83 O 0.04371 0.24248 0.25968 0.0
C84 C 0.76211 0.07891 0.39161 0.0
O85 O 0.77578 0.09909 0.38695 0.0
Cd86 Cd 0.7782 0.1269 0.33395 0.0
O87 O 0.74841 0.06958 0.36479 0.0
Cd88 Cd 0.74352 0.07867 0.29487 0.0
C89 C 0.7119 0.13449 0.31575 0.0
O90 O 0.78591 0.09668 0.28632 0.0
O91 O 0.76121 0.10109 0.23784 0.0
O92 O 0.75557 0.03469 0.2803 0.0
C93 C 0.78311 0.10496 0.2529 0.0
O94 O 0.73409 0.14241 0.32627 0.0
C95 C 0.7356 0.02898 0.26127 0.0
O96 O 0.7088 0.11142 0.30335 0.0
O97 O 0.71794 0.04618 0.25907 0.0
C98 C 0.88061 0.7633 0.39064 0.0
O99 O 0.86056 0.77723 0.3859 0.0
Cd100 Cd 0.83296 0.77973 0.33284 0.0
O101 O 0.88996 0.74943 0.36387 0.0
Cd102 Cd 0.88125 0.74463 0.29386 0.0
C103 C 0.82581 0.71312 0.31477 0.0
O104 O 0.86304 0.78718 0.28517 0.0
O105 O 0.85884 0.76227 0.2368 0.0
O106 O 0.92502 0.75691 0.28003 0.0
C107 C 0.8548 0.78429 0.25179 0.0
O108 O 0.81786 0.73546 0.32524 0.0
C109 C 0.93106 0.73704 0.26067 0.0
O110 O 0.84881 0.70985 0.30231 0.0
O111 O 0.91413 0.71928 0.25795 0.0
C112 C 0.76137 0.88176 0.89086 0.0
O113 O 0.77492 0.86137 0.8865 0.0
Cd114 Cd 0.77744 0.83346 0.83359 0.0
O115 O 0.74788 0.89124 0.86384 0.0
Cd116 Cd 0.74329 0.88212 0.79393 0.0
C117 C 0.71118 0.82679 0.81469 0.0
O118 O 0.78567 0.86358 0.78605 0.0
O119 O 0.76136 0.85961 0.7371 0.0
O120 O 0.7556 0.92599 0.77976 0.0
C121 C 0.78313 0.85544 0.75254 0.0
O122 O 0.73326 0.81858 0.82553 0.0
C123 C 0.73577 0.93203 0.76052 0.0
O124 O 0.7083 0.84987 0.80207 0.0
O125 O 0.71807 0.91503 0.75793 0.0
C126 C 0.07455 0.76588 0.89002 0.0
O127 O 0.09316 0.78125 0.88366 0.0
Cd128 Cd 0.12039 0.78023 0.83022 0.0
O129 O 0.06691 0.75 0.86468 0.0
Cd130 Cd 0.0769 0.7446 0.79507 0.0
C131 C 0.13088 0.7134 0.8184 0.0
O132 O 0.09295 0.78736 0.7784 0.0
O133 O 0.10727 0.75634 0.74342 0.0
O134 O 0.03466 0.75766 0.77408 0.0
C135 C 0.10588 0.78056 0.74964 0.0
O136 O 0.13829 0.73626 0.82685 0.0
C137 C 0.02866 0.73677 0.75738 0.0
O138 O 0.10794 0.70935 0.80662 0.0
O139 O 0.0449 0.71819 0.75913 0.0
C140 C 0.19688 0.07945 0.8921 0.0
O141 O 0.18291 0.09947 0.88695 0.0
Cd142 Cd 0.18057 0.12669 0.8333 0.0
O143 O 0.21082 0.06995 0.86555 0.0
Cd144 Cd 0.21582 0.07793 0.79536 0.0
C145 C 0.24703 0.13379 0.81549 0.0
O146 O 0.17334 0.09585 0.78651 0.0
O147 O 0.19778 0.09944 0.73761 0.0
O148 O 0.20445 0.03336 0.78481 0.0
C149 C 0.17595 0.10371 0.75286 0.0
O150 O 0.22472 0.14181 0.82566 0.0
C151 C 0.22385 0.02731 0.76458 0.0
O152 O 0.25038 0.11063 0.80347 0.0
O153 O 0.24091 0.04473 0.75966 0.0
C154 C 0.88124 0.19755 0.89148 0.0
O155 O 0.86122 0.18371 0.88682 0.0
Cd156 Cd 0.83355 0.18133 0.83382 0.0
O157 O 0.89048 0.21138 0.86466 0.0
Cd158 Cd 0.88159 0.2163 0.79471 0.0
C159 C 0.82592 0.24792 0.81556 0.0
O160 O 0.86359 0.1738 0.786 0.0
O161 O 0.85928 0.19875 0.73763 0.0
O162 O 0.9254 0.20397 0.78052 0.0
C163 C 0.85532 0.17674 0.75263 0.0
O164 O 0.8181 0.22561 0.82611 0.0
C165 C 0.93133 0.224 0.76154 0.0
O166 O 0.8489 0.25112 0.80312 0.0
O167 O 0.9143 0.24183 0.75913 0.0
C168 C 0.76212 0.07901 0.54777 0.0
O169 O 0.77578 0.0992 0.55234 0.0
Cd170 Cd 0.77814 0.12699 0.60536 0.0
O171 O 0.74845 0.06967 0.57466 0.0
Cd172 Cd 0.7436 0.07865 0.6446 0.0
C173 C 0.71181 0.13438 0.62386 0.0
O174 O 0.78594 0.09678 0.65298 0.0
O175 O 0.76127 0.10102 0.70162 0.0
O176 O 0.75587 0.03468 0.65879 0.0
C177 C 0.78314 0.105 0.68643 0.0
O178 O 0.73397 0.14235 0.61322 0.0
C179 C 0.73593 0.02877 0.67784 0.0
O180 O 0.70877 0.11131 0.63633 0.0
O181 O 0.7182 0.04589 0.6803 0.0
C182 C 0.8807 0.76301 0.54707 0.0
O183 O 0.8608 0.7771 0.55223 0.0
Cd184 Cd 0.83358 0.7795 0.60581 0.0
O185 O 0.89007 0.74895 0.57359 0.0
Cd186 Cd 0.882 0.74392 0.64377 0.0
C187 C 0.82626 0.71281 0.62355 0.0
O188 O 0.86415 0.78656 0.65283 0.0
O189 O 0.86041 0.76186 0.70151 0.0
O190 O 0.92635 0.7554 0.65463 0.0
C191 C 0.85619 0.78382 0.68641 0.0
O192 O 0.81839 0.73524 0.6134 0.0
C193 C 0.93238 0.73588 0.67474 0.0
O194 O 0.84932 0.70933 0.63556 0.0
O195 O 0.91506 0.71869 0.67943 0.0
C196 C 0.19438 0.88474 0.549 0.0
O197 O 0.1792 0.86592 0.55512 0.0
Cd198 Cd 0.18003 0.83856 0.60849 0.0
O199 O 0.21003 0.89249 0.57453 0.0
Cd200 Cd 0.21524 0.88229 0.64416 0.0
C201 C 0.24659 0.82819 0.6208 0.0
O202 O 0.17249 0.86615 0.66004 0.0
O203 O 0.2032 0.85185 0.69549 0.0
O204 O 0.20217 0.92464 0.66526 0.0
C205 C 0.1791 0.85328 0.68895 0.0
O206 O 0.22388 0.82066 0.61217 0.0
C207 C 0.22298 0.93063 0.68198 0.0
O208 O 0.25046 0.85123 0.63267 0.0
O209 O 0.24148 0.91433 0.68021 0.0
C210 C 0.07768 0.19817 0.54842 0.0
O211 O 0.09792 0.18444 0.55275 0.0
Cd212 Cd 0.12577 0.1818 0.60557 0.0
O213 O 0.06835 0.21179 0.57547 0.0
Cd214 Cd 0.07748 0.21639 0.64535 0.0
C215 C 0.13279 0.24827 0.62455 0.0
O216 O 0.09587 0.1738 0.65336 0.0
O217 O 0.09995 0.19837 0.70213 0.0
O218 O 0.03379 0.20407 0.65972 0.0
C219 C 0.10407 0.17647 0.6868 0.0
O220 O 0.14083 0.22606 0.61369 0.0
C221 C 0.02778 0.22403 0.67888 0.0
O222 O 0.10981 0.25133 0.63716 0.0
O223 O 0.04471 0.24181 0.68134 0.0
C224 C 0.69646 0.57949 0.54725 0.0
O225 O 0.68288 0.59984 0.55183 0.0
Cd226 Cd 0.6804 0.62762 0.60486 0.0
O227 O 0.71004 0.56996 0.57415 0.0
Cd228 Cd 0.71478 0.57893 0.64412 0.0
C229 C 0.74668 0.63438 0.62348 0.0
O230 O 0.67241 0.59739 0.65231 0.0
O231 O 0.69687 0.60143 0.70107 0.0
O232 O 0.70255 0.53504 0.65838 0.0
C233 C 0.67505 0.60556 0.68578 0.0
O234 O 0.72455 0.64256 0.61282 0.0
C235 C 0.72242 0.52905 0.67758 0.0
O236 O 0.74967 0.61128 0.63592 0.0
O237 O 0.74011 0.54606 0.68004 0.0
C238 C 0.3811 0.69701 0.5471 0.0
O239 O 0.36107 0.68319 0.55174 0.0
Cd240 Cd 0.33291 0.6812 0.60437 0.0
O241 O 0.39009 0.71109 0.57378 0.0
Cd242 Cd 0.38064 0.71657 0.64341 0.0
C243 C 0.32497 0.74787 0.62086 0.0
O244 O 0.36249 0.67421 0.65291 0.0
O245 O 0.35787 0.69974 0.7006 0.0
O246 O 0.4243 0.70434 0.65855 0.0
C247 C 0.35399 0.67756 0.6861 0.0
O248 O 0.3171 0.72548 0.61082 0.0
C249 C 0.43011 0.72454 0.67718 0.0
O250 O 0.34791 0.75112 0.63337 0.0
O251 O 0.4131 0.74243 0.67891 0.0
C252 C 0.26129 0.38289 0.54891 0.0
O253 O 0.27518 0.36276 0.55365 0.0
Cd254 Cd 0.2777 0.33506 0.60676 0.0
O255 O 0.24745 0.39224 0.5757 0.0
Cd256 Cd 0.24266 0.38346 0.64576 0.0
C257 C 0.21136 0.32772 0.62502 0.0
O258 O 0.28511 0.3653 0.6543 0.0
O259 O 0.26041 0.36103 0.70284 0.0
O260 O 0.25468 0.42746 0.65944 0.0
C261 C 0.28233 0.35704 0.68772 0.0
O262 O 0.23362 0.31979 0.6145 0.0
C263 C 0.23486 0.43344 0.67883 0.0
O264 O 0.20807 0.35079 0.63745 0.0
O265 O 0.21726 0.41635 0.68166 0.0
C266 C 0.57685 0.26388 0.54811 0.0
O267 O 0.59688 0.2777 0.55275 0.0
Cd268 Cd 0.62458 0.28011 0.60569 0.0
O269 O 0.56763 0.25003 0.57493 0.0
Cd270 Cd 0.57659 0.24509 0.64487 0.0
C271 C 0.63229 0.21353 0.62391 0.0
O272 O 0.59456 0.28761 0.65353 0.0
O273 O 0.59898 0.26265 0.70188 0.0
O274 O 0.5328 0.25734 0.65935 0.0
C275 C 0.60288 0.28468 0.68688 0.0
O276 O 0.64009 0.23585 0.61336 0.0
C277 C 0.52696 0.2373 0.67836 0.0
O278 O 0.60932 0.21031 0.63637 0.0
O279 O 0.54403 0.21949 0.68062 0.0
C280 C 0.69612 0.38251 0.89142 0.0
O281 O 0.68248 0.36232 0.88685 0.0
Cd282 Cd 0.68011 0.33451 0.83387 0.0
O283 O 0.7098 0.39186 0.86454 0.0
Cd284 Cd 0.71466 0.38284 0.79459 0.0
C285 C 0.74644 0.3271 0.81542 0.0
O286 O 0.67232 0.36472 0.78626 0.0
O287 O 0.69698 0.36041 0.73764 0.0
O288 O 0.70243 0.4268 0.78023 0.0
C289 C 0.6751 0.35647 0.75283 0.0
O290 O 0.72427 0.31914 0.82605 0.0
C291 C 0.72235 0.43264 0.7611 0.0
O292 O 0.74949 0.35017 0.80293 0.0
O293 O 0.74007 0.4155 0.75872 0.0
C294 C 0.57635 0.69848 0.89067 0.0
O295 O 0.59635 0.68448 0.88587 0.0
Cd296 Cd 0.62401 0.68192 0.83279 0.0
O297 O 0.56709 0.71243 0.86392 0.0
Cd298 Cd 0.57588 0.71726 0.79385 0.0
C299 C 0.63148 0.74851 0.81463 0.0
O300 O 0.59398 0.67466 0.7851 0.0
O301 O 0.59834 0.6996 0.73676 0.0
O302 O 0.53209 0.70511 0.78003 0.0
C303 C 0.60231 0.67755 0.75174 0.0
O304 O 0.6393 0.72613 0.82512 0.0
C305 C 0.5261 0.72501 0.76072 0.0
O306 O 0.60851 0.75191 0.80222 0.0
O307 O 0.54307 0.74274 0.75801 0.0
C308 C 0.26212 0.57907 0.89254 0.0
O309 O 0.27575 0.5993 0.88804 0.0
Cd310 Cd 0.27778 0.62756 0.83545 0.0
O311 O 0.24825 0.56995 0.86577 0.0
Cd312 Cd 0.24292 0.57949 0.79617 0.0
C313 C 0.2114 0.63524 0.81859 0.0
O314 O 0.28513 0.59778 0.78708 0.0
O315 O 0.25999 0.60224 0.73906 0.0
O316 O 0.25517 0.53567 0.78108 0.0
C317 C 0.28199 0.60618 0.75379 0.0
O318 O 0.23363 0.64326 0.82877 0.0
C319 C 0.23511 0.52984 0.76233 0.0
O320 O 0.20833 0.6122 0.80603 0.0
O321 O 0.21729 0.54691 0.7605 0.0
C322 C 0.38068 0.26329 0.89224 0.0
O323 O 0.36049 0.27705 0.88768 0.0
Cd324 Cd 0.3328 0.27963 0.83471 0.0
O325 O 0.39009 0.24959 0.86534 0.0
Cd326 Cd 0.38115 0.24484 0.79537 0.0
C327 C 0.32573 0.21311 0.81601 0.0
O328 O 0.36282 0.2874 0.78704 0.0
O329 O 0.35869 0.26268 0.73845 0.0
O330 O 0.42485 0.25712 0.78102 0.0
C331 C 0.35461 0.28463 0.75362 0.0
O332 O 0.31771 0.23538 0.82668 0.0
C333 C 0.43085 0.23715 0.76186 0.0
O334 O 0.34875 0.20996 0.80359 0.0
O335 O 0.41392 0.21937 0.75945 0.0
C336 C 0.26106 0.38243 0.39269 0.0
O337 O 0.27476 0.36215 0.38812 0.0
Cd338 Cd 0.27724 0.33432 0.33513 0.0
O339 O 0.2474 0.39184 0.36581 0.0
Cd340 Cd 0.24265 0.38281 0.29588 0.0
C341 C 0.21096 0.3273 0.31669 0.0
O342 O 0.28505 0.36443 0.28743 0.0
O343 O 0.26039 0.36028 0.23889 0.0
O344 O 0.25486 0.42668 0.2816 0.0
C345 C 0.28228 0.3562 0.254 0.0
O346 O 0.23313 0.31921 0.32732 0.0
C347 C 0.23499 0.43268 0.26242 0.0
O348 O 0.20787 0.35038 0.30421 0.0
O349 O 0.21728 0.41568 0.25999 0.0
C350 C 0.57688 0.26394 0.39189 0.0
O351 O 0.59688 0.2778 0.38715 0.0
Cd352 Cd 0.62459 0.28024 0.3341 0.0
O353 O 0.56769 0.25007 0.36512 0.0
Cd354 Cd 0.57669 0.24515 0.29517 0.0
C355 C 0.63242 0.21368 0.31598 0.0
O356 O 0.59459 0.28769 0.2863 0.0
O357 O 0.59906 0.26266 0.23805 0.0
O358 O 0.53289 0.2573 0.28079 0.0
C359 C 0.60291 0.28472 0.25294 0.0
O360 O 0.6402 0.23601 0.32645 0.0
C361 C 0.52711 0.23724 0.26182 0.0
O362 O 0.60945 0.21042 0.30364 0.0
O363 O 0.5442 0.21947 0.25956 0.0
C364 C 0.69635 0.57941 0.39107 0.0
O365 O 0.68263 0.59966 0.3864 0.0
Cd366 Cd 0.6803 0.62743 0.33331 0.0
O367 O 0.71008 0.56999 0.36423 0.0
Cd368 Cd 0.71492 0.57888 0.29425 0.0
C369 C 0.74665 0.63433 0.31497 0.0
O370 O 0.67256 0.59728 0.2857 0.0
O371 O 0.69733 0.60142 0.23719 0.0
O372 O 0.70269 0.53499 0.28021 0.0
C373 C 0.6754 0.6055 0.25226 0.0
O374 O 0.72446 0.64245 0.32555 0.0
C375 C 0.72258 0.52897 0.26101 0.0
O376 O 0.74973 0.61124 0.30251 0.0
O377 O 0.74029 0.54596 0.25845 0.0
C378 C 0.38126 0.69722 0.39107 0.0
O379 O 0.36118 0.68347 0.38647 0.0
Cd380 Cd 0.33325 0.68134 0.3338 0.0
O381 O 0.3904 0.71118 0.36432 0.0
Cd382 Cd 0.38121 0.71648 0.29453 0.0
C383 C 0.3256 0.74801 0.31625 0.0
O384 O 0.36319 0.67403 0.28581 0.0
O385 O 0.35871 0.69902 0.23752 0.0
O386 O 0.42497 0.70431 0.27982 0.0
C387 C 0.35481 0.67699 0.25252 0.0
O388 O 0.3178 0.72567 0.32667 0.0
C389 C 0.43076 0.7244 0.26088 0.0
O390 O 0.34852 0.75123 0.3036 0.0
O391 O 0.41367 0.74219 0.25876 0.0
C392 C 0.26207 0.57869 0.0485 0.0
O393 O 0.27573 0.59887 0.05304 0.0
Cd394 Cd 0.27785 0.62692 0.10573 0.0
O395 O 0.24821 0.56949 0.0753 0.0
Cd396 Cd 0.24302 0.57874 0.1451 0.0
C397 C 0.21142 0.63442 0.12339 0.0
O398 O 0.28533 0.59681 0.15355 0.0
O399 O 0.2606 0.60128 0.20206 0.0
O400 O 0.25515 0.53478 0.15961 0.0
C401 C 0.2825 0.60516 0.18691 0.0
O402 O 0.23365 0.64232 0.11291 0.0
C403 C 0.2352 0.52901 0.17872 0.0
O404 O 0.2083 0.61143 0.1361 0.0
O405 O 0.2175 0.54618 0.18103 0.0
C406 C 0.38092 0.26346 0.04846 0.0
O407 O 0.36085 0.27738 0.05322 0.0
Cd408 Cd 0.33317 0.27979 0.10632 0.0
O409 O 0.39022 0.24957 0.07523 0.0
Cd410 Cd 0.38137 0.24472 0.14524 0.0
C411 C 0.32597 0.21319 0.12446 0.0
O412 O 0.36312 0.28726 0.15409 0.0
O413 O 0.35883 0.26221 0.20235 0.0
O414 O 0.42508 0.25697 0.15933 0.0
C415 C 0.35481 0.28428 0.18745 0.0
O416 O 0.31802 0.23552 0.11397 0.0
C417 C 0.43109 0.23699 0.17846 0.0
O418 O 0.34896 0.20993 0.13686 0.0
O419 O 0.41417 0.2192 0.18094 0.0
C420 C 0.69608 0.38247 0.04759 0.0
O421 O 0.6824 0.3623 0.05224 0.0
Cd422 Cd 0.68 0.3345 0.10528 0.0
O423 O 0.70977 0.39179 0.07441 0.0
Cd424 Cd 0.71461 0.38275 0.14433 0.0
C425 C 0.7463 0.32697 0.12355 0.0
O426 O 0.67224 0.3647 0.15292 0.0
O427 O 0.69696 0.36037 0.20141 0.0
O428 O 0.70245 0.42673 0.15866 0.0
C429 C 0.67506 0.35646 0.18636 0.0
O430 O 0.72412 0.31903 0.11301 0.0
C431 C 0.7224 0.43254 0.1777 0.0
O432 O 0.74937 0.35005 0.13594 0.0
O433 O 0.74009 0.41538 0.18004 0.0
C434 C 0.57676 0.69856 0.04691 0.0
O435 O 0.59686 0.68466 0.05149 0.0
Cd436 Cd 0.62463 0.68218 0.1044 0.0
O437 O 0.5675 0.7124 0.07378 0.0
Cd438 Cd 0.57649 0.71718 0.14371 0.0
C439 C 0.63189 0.74873 0.12268 0.0
O440 O 0.59479 0.67463 0.1524 0.0
O441 O 0.59906 0.69963 0.20067 0.0
O442 O 0.53282 0.70485 0.15807 0.0
C443 C 0.60309 0.67759 0.18573 0.0
O444 O 0.63983 0.72642 0.11208 0.0
C445 C 0.5268 0.72482 0.17722 0.0
O446 O 0.60892 0.75198 0.13522 0.0
O447 O 0.54369 0.74264 0.1796 0.0
C448 C 0.31138 0.16788 0.14207 0.0
C449 C 0.30753 0.19129 0.12221 0.0
H450 H 0.29508 0.13117 0.1586 0.0
C451 C 0.28473 0.19456 0.10112 0.0
H452 H 0.3288 0.16476 0.15849 0.0
C453 C 0.2657 0.17561 0.10119 0.0
C454 C 0.26879 0.15271 0.12235 0.0
H455 H 0.28123 0.21211 0.08493 0.0
H456 H 0.24824 0.17925 0.08505 0.0
C457 C 0.2921 0.14868 0.14213 0.0
C458 C 0.81102 0.29324 0.14074 0.0
C459 C 0.80717 0.2697 0.12131 0.0
H460 H 0.79468 0.33013 0.15686 0.0
C461 C 0.78423 0.26635 0.10063 0.0
H462 H 0.82854 0.29642 0.15684 0.0
C463 C 0.76512 0.28537 0.10064 0.0
C464 C 0.76825 0.30843 0.12134 0.0
H465 H 0.7807 0.2487 0.08479 0.0
H466 H 0.74757 0.28168 0.08481 0.0
C467 C 0.79166 0.3125 0.14075 0.0
C468 C 0.67317 0.76737 0.09929 0.0
C469 C 0.65036 0.77062 0.12044 0.0
H470 H 0.70969 0.78267 0.0832 0.0
C471 C 0.64652 0.794 0.14038 0.0
H472 H 0.67667 0.74985 0.08305 0.0
C473 C 0.66581 0.81318 0.14046 0.0
C474 C 0.68913 0.80916 0.12062 0.0
H475 H 0.62909 0.7971 0.15684 0.0
H476 H 0.66284 0.83065 0.15698 0.0
C477 C 0.69222 0.7863 0.09938 0.0
C478 C 0.16605 0.64909 0.14033 0.0
C479 C 0.18947 0.65293 0.12075 0.0
H480 H 0.12923 0.66544 0.15628 0.0
C481 C 0.19264 0.67577 0.09951 0.0
H482 H 0.16301 0.63164 0.15685 0.0
C483 C 0.17357 0.69484 0.09917 0.0
C484 C 0.15065 0.69176 0.12007 0.0
H485 H 0.21019 0.67927 0.08352 0.0
H486 H 0.17713 0.71234 0.08296 0.0
C487 C 0.14674 0.66841 0.13999 0.0
C488 C 0.29144 0.81272 0.29934 0.0
C489 C 0.26814 0.80869 0.31916 0.0
H490 H 0.3282 0.79657 0.2827 0.0
C491 C 0.26514 0.78571 0.34011 0.0
H492 H 0.29434 0.83028 0.28302 0.0
C493 C 0.28425 0.76668 0.33993 0.0
C494 C 0.30705 0.76996 0.31879 0.0
H495 H 0.24768 0.78206 0.35625 0.0
H496 H 0.28082 0.74907 0.35595 0.0
C497 C 0.31079 0.79345 0.29916 0.0
C498 C 0.16574 0.31296 0.29908 0.0
C499 C 0.18904 0.3089 0.31889 0.0
H500 H 0.12907 0.2969 0.28259 0.0
C501 C 0.19212 0.28596 0.33995 0.0
H502 H 0.16277 0.3305 0.28269 0.0
C503 C 0.1731 0.267 0.3399 0.0
C504 C 0.15031 0.2703 0.31878 0.0
H505 H 0.20957 0.28229 0.3561 0.0
H506 H 0.1766 0.24942 0.35601 0.0
C507 C 0.14648 0.29376 0.29902 0.0
C508 C 0.66652 0.14898 0.29865 0.0
C509 C 0.68996 0.15304 0.31801 0.0
H510 H 0.62963 0.16507 0.28265 0.0
C511 C 0.69312 0.17609 0.33871 0.0
H512 H 0.66348 0.13136 0.28254 0.0
C513 C 0.67401 0.19512 0.33878 0.0
C514 C 0.65105 0.19178 0.31816 0.0
H515 H 0.71069 0.17978 0.3545 0.0
H516 H 0.67756 0.21276 0.35462 0.0
C517 C 0.64717 0.16825 0.29872 0.0
C518 C 0.7919 0.64864 0.29731 0.0
C519 C 0.7686 0.65268 0.3172 0.0
H520 H 0.82859 0.6647 0.28077 0.0
C521 C 0.76553 0.67558 0.33836 0.0
H522 H 0.79485 0.63113 0.28085 0.0
C523 C 0.78457 0.69451 0.33833 0.0
C524 C 0.80736 0.69123 0.31712 0.0
H525 H 0.74808 0.67922 0.35458 0.0
H526 H 0.78109 0.71206 0.35451 0.0
C527 C 0.81118 0.66782 0.29727 0.0
C528 C 0.66589 0.81274 0.79694 0.0
C529 C 0.68911 0.80857 0.81689 0.0
H530 H 0.62911 0.79691 0.78041 0.0
C531 C 0.69196 0.78568 0.83815 0.0
H532 H 0.66309 0.83025 0.78041 0.0
C533 C 0.67279 0.76688 0.83817 0.0
C534 C 0.65007 0.77028 0.81692 0.0
H535 H 0.70935 0.78193 0.85441 0.0
H536 H 0.67611 0.74934 0.85444 0.0
C537 C 0.64647 0.79369 0.79696 0.0
C538 C 0.17341 0.69621 0.84006 0.0
C539 C 0.14991 0.69189 0.82124 0.0
H540 H 0.21079 0.68186 0.85428 0.0
C541 C 0.14583 0.66771 0.80367 0.0
H542 H 0.17715 0.71443 0.85433 0.0
C543 C 0.16543 0.64874 0.80357 0.0
C544 C 0.18936 0.65369 0.82107 0.0
H545 H 0.12788 0.66378 0.78898 0.0
H546 H 0.16214 0.63059 0.78887 0.0
C547 C 0.1928 0.67743 0.83999 0.0
C548 C 0.31146 0.16768 0.79851 0.0
C549 C 0.30733 0.19116 0.81808 0.0
H550 H 0.29552 0.13079 0.78218 0.0
C551 C 0.28433 0.19439 0.83878 0.0
H552 H 0.32905 0.16458 0.7824 0.0
C553 C 0.26541 0.17533 0.83864 0.0
C554 C 0.26881 0.15234 0.81781 0.0
H555 H 0.28058 0.21199 0.85473 0.0
H556 H 0.2478 0.17895 0.8545 0.0
C557 C 0.2923 0.14836 0.79839 0.0
C558 C 0.81115 0.29331 0.79807 0.0
C559 C 0.80733 0.26986 0.81777 0.0
H560 H 0.79477 0.33013 0.7817 0.0
C561 C 0.78444 0.26661 0.83869 0.0
H562 H 0.82863 0.29641 0.78178 0.0
C563 C 0.76533 0.28563 0.83864 0.0
C564 C 0.76842 0.3086 0.81767 0.0
H565 H 0.78095 0.24903 0.85474 0.0
H566 H 0.74782 0.28201 0.85466 0.0
C567 C 0.79179 0.31258 0.79802 0.0
C568 C 0.64709 0.16813 0.6413 0.0
C569 C 0.6509 0.19161 0.62165 0.0
H570 H 0.66349 0.1313 0.65758 0.0
C571 C 0.67379 0.1949 0.60074 0.0
H572 H 0.62961 0.16501 0.65758 0.0
C573 C 0.6929 0.17588 0.60074 0.0
C574 C 0.68983 0.15289 0.62166 0.0
H575 H 0.67727 0.2125 0.58473 0.0
H576 H 0.71041 0.17953 0.58473 0.0
C577 C 0.66646 0.14887 0.6413 0.0
C578 C 0.76565 0.67573 0.60044 0.0
C579 C 0.76869 0.65268 0.62129 0.0
H580 H 0.78133 0.71221 0.58448 0.0
C581 C 0.79205 0.64842 0.64086 0.0
H582 H 0.74815 0.67956 0.58448 0.0
C583 C 0.81144 0.6675 0.64085 0.0
C584 C 0.80766 0.69104 0.62128 0.0
H585 H 0.79499 0.6308 0.65708 0.0
H586 H 0.82891 0.6642 0.65708 0.0
C587 C 0.78479 0.69456 0.60043 0.0
C588 C 0.29218 0.81349 0.63563 0.0
C589 C 0.26813 0.80921 0.61806 0.0
H590 H 0.32925 0.79739 0.65047 0.0
C591 C 0.26399 0.78555 0.59929 0.0
H592 H 0.29596 0.83155 0.65029 0.0
C593 C 0.28284 0.76622 0.5994 0.0
C594 C 0.30646 0.76987 0.61831 0.0
H595 H 0.24588 0.78165 0.58502 0.0
H596 H 0.27856 0.74811 0.58515 0.0
C597 C 0.31121 0.79394 0.63577 0.0
C598 C 0.14707 0.29365 0.64236 0.0
C599 C 0.15112 0.27029 0.62246 0.0
H600 H 0.16305 0.33046 0.65896 0.0
C601 C 0.17399 0.26722 0.60139 0.0
H602 H 0.12958 0.29661 0.65877 0.0
C603 C 0.19288 0.28632 0.6015 0.0
C604 C 0.18957 0.30918 0.62269 0.0
H605 H 0.17766 0.24973 0.58517 0.0
H606 H 0.21039 0.28283 0.58537 0.0
C607 C 0.16619 0.31299 0.64247 0.0
C608 C 0.17412 0.06707 -0.00991 0.0
C609 C 0.19747 0.06872 0.01008 0.0
H610 H 0.15584 0.06847 0.93587 0.0
C611 C 0.22099 0.06677 -0.00972 0.0
H612 H 0.15578 0.06848 0.00488 0.0
C613 C 0.22103 0.06678 0.95049 0.0
C614 C 0.19755 0.06873 0.93067 0.0
H615 H 0.23921 0.06827 0.00525 0.0
H616 H 0.23928 0.06825 0.93553 0.0
C617 C 0.17416 0.06708 0.95066 0.0
C618 C 0.89388 0.22188 0.94965 0.0
C619 C 0.89219 0.19829 0.92986 0.0
H620 H 0.89221 0.24018 0.00438 0.0
C621 C 0.89417 0.17484 0.94986 0.0
H622 H 0.89213 0.24018 0.93468 0.0
C623 C 0.89423 0.17484 -0.01071 0.0
C624 C 0.8923 0.19829 0.00928 0.0
H625 H 0.89296 0.15643 0.93508 0.0
H626 H 0.89306 0.15643 0.00409 0.0
C627 C 0.89393 0.22188 -0.01056 0.0
C628 C 0.7371 0.89488 0.94894 0.0
C629 C 0.76061 0.89296 0.92911 0.0
H630 H 0.71887 0.89351 0.00372 0.0
C631 C 0.78396 0.89488 0.94903 0.0
H632 H 0.71888 0.89317 0.93403 0.0
C633 C 0.78396 0.89509 -0.01153 0.0
C634 C 0.7606 0.89336 0.00852 0.0
H635 H 0.8023 0.89349 0.93422 0.0
H636 H 0.8023 0.89384 0.00324 0.0
C637 C 0.7371 0.89509 -0.01127 0.0
C638 C 0.06262 0.7414 0.94859 0.0
C639 C 0.06441 0.76509 0.92899 0.0
H640 H 0.06479 0.72272 0.00305 0.0
C641 C 0.06311 0.78843 0.94938 0.0
H642 H 0.06378 0.72316 0.93339 0.0
C643 C 0.06373 0.78817 -0.01119 0.0
C644 C 0.06555 0.76457 0.00845 0.0
H645 H 0.06429 0.80693 0.93482 0.0
H646 H 0.06539 0.80646 0.00379 0.0
C647 C 0.0632 0.74114 -0.01161 0.0
C648 C 0.21897 0.89628 0.45067 0.0
C649 C 0.19561 0.89404 0.43068 0.0
H650 H 0.23694 0.89555 0.50559 0.0
C651 C 0.17212 0.89594 0.45039 0.0
H652 H 0.2373 0.89463 0.43593 0.0
C653 C 0.1719 0.8965 0.48982 0.0
C654 C 0.19517 0.89508 0.51013 0.0
H655 H 0.15388 0.89435 0.43545 0.0
H656 H 0.15348 0.89535 0.50443 0.0
C657 C 0.21875 0.89682 0.49046 0.0
C658 C 0.06468 0.22259 0.4904 0.0
C659 C 0.06651 0.19898 0.51019 0.0
H660 H 0.06607 0.24088 0.43563 0.0
C661 C 0.06446 0.17555 0.49025 0.0
H662 H 0.06649 0.24087 0.50532 0.0
C663 C 0.0642 0.17555 0.45082 0.0
C664 C 0.06601 0.19898 0.43078 0.0
H665 H 0.06579 0.15713 0.50504 0.0
H666 H 0.06534 0.15713 0.43603 0.0
C667 C 0.06443 0.22259 0.45061 0.0
C668 C 0.78476 0.06604 0.48938 0.0
C669 C 0.7614 0.06799 0.50941 0.0
H670 H 0.80309 0.06722 0.43512 0.0
C671 C 0.7379 0.06625 0.48965 0.0
H672 H 0.80309 0.06729 0.50413 0.0
C673 C 0.73789 0.06621 0.44985 0.0
C674 C 0.7614 0.0679 0.42999 0.0
H675 H 0.71967 0.06798 0.50463 0.0
H676 H 0.71966 0.06792 0.43494 0.0
C677 C 0.78476 0.06599 0.44994 0.0
C678 C 0.89316 0.78581 0.48859 0.0
C679 C 0.89141 0.76232 0.5085 0.0
H680 H 0.89186 0.80432 0.43444 0.0
C681 C 0.89327 0.73876 0.4886 0.0
H682 H 0.89184 0.80419 0.50345 0.0
C683 C 0.89329 0.73884 0.44881 0.0
C684 C 0.89145 0.76248 0.42908 0.0
H685 H 0.89171 0.72043 0.5035 0.0
H686 H 0.89172 0.72057 0.43379 0.0
C687 C 0.89318 0.78588 0.44916 0.0
C688 C 0.67379 0.56671 0.48899 0.0
C689 C 0.69717 0.56845 0.5089 0.0
H690 H 0.65541 0.56807 0.43483 0.0
C691 C 0.72066 0.56657 0.489 0.0
H692 H 0.65547 0.56808 0.50385 0.0
C693 C 0.72063 0.56655 0.44921 0.0
C694 C 0.6971 0.56844 0.42948 0.0
H695 H 0.7389 0.56815 0.50389 0.0
H696 H 0.73884 0.56813 0.43419 0.0
C697 C 0.67376 0.5667 0.44955 0.0
C698 C 0.39416 0.72136 0.44924 0.0
C699 C 0.39231 0.6978 0.42938 0.0
H700 H 0.39249 0.73959 0.50401 0.0
C701 C 0.39409 0.67431 0.44931 0.0
H702 H 0.39257 0.73969 0.43433 0.0
C703 C 0.39403 0.67426 0.48874 0.0
C704 C 0.39219 0.69769 0.50878 0.0
H705 H 0.39277 0.65594 0.43447 0.0
H706 H 0.39266 0.65584 0.50348 0.0
C707 C 0.39411 0.7213 0.48903 0.0
C708 C 0.28371 0.39543 0.45088 0.0
C709 C 0.26033 0.39352 0.43102 0.0
H710 H 0.30213 0.39433 0.50502 0.0
C711 C 0.23685 0.39535 0.45094 0.0
H712 H 0.30203 0.39411 0.43601 0.0
C713 C 0.2369 0.39548 0.49073 0.0
C714 C 0.26045 0.39377 0.51044 0.0
H715 H 0.21861 0.39364 0.43608 0.0
H716 H 0.2187 0.39386 0.50578 0.0
C717 C 0.28377 0.39557 0.49032 0.0
C718 C 0.56396 0.2866 0.48975 0.0
C719 C 0.56591 0.26314 0.50973 0.0
H720 H 0.56516 0.30504 0.43554 0.0
C721 C 0.56426 0.23956 0.48991 0.0
H722 H 0.56513 0.305 0.50455 0.0
C723 C 0.56428 0.23958 0.45011 0.0
C724 C 0.56594 0.26318 0.43031 0.0
H725 H 0.566 0.22125 0.50485 0.0
H726 H 0.56602 0.22129 0.43515 0.0
C727 C 0.56397 0.28662 0.45031 0.0
C728 C 0.72032 0.39523 0.94957 0.0
C729 C 0.69683 0.39353 0.92979 0.0
H730 H 0.73854 0.39349 0.00429 0.0
C731 C 0.67346 0.39544 0.94981 0.0
H732 H 0.73856 0.39352 0.93459 0.0
C733 C 0.67345 0.39542 -0.01075 0.0
C734 C 0.69681 0.39349 0.00921 0.0
H735 H 0.65513 0.39422 0.93504 0.0
H736 H 0.65511 0.39418 0.00406 0.0
C737 C 0.72031 0.39521 -0.01063 0.0
C738 C 0.56377 0.67592 -0.01136 0.0
C739 C 0.56574 0.69936 0.00858 0.0
H740 H 0.5648 0.65748 0.93444 0.0
C741 C 0.56399 0.72296 -0.01126 0.0
H742 H 0.56503 0.65751 0.00345 0.0
C743 C 0.56386 0.72294 0.94894 0.0
C744 C 0.5655 0.69932 0.92915 0.0
H745 H 0.56574 0.74125 0.00365 0.0
H746 H 0.56554 0.74122 0.93395 0.0
C747 C 0.56363 0.6759 0.9492 0.0
C748 C 0.28482 0.56582 -0.00983 0.0
C749 C 0.26143 0.5676 0.01018 0.0
H750 H 0.30317 0.56734 0.93594 0.0
C751 C 0.23795 0.56579 -0.00961 0.0
H752 H 0.30313 0.56711 0.00495 0.0
C753 C 0.23797 0.56591 0.9506 0.0
C754 C 0.26147 0.56785 0.93079 0.0
H755 H 0.2197 0.56739 0.00536 0.0
H756 H 0.21973 0.56759 0.93568 0.0
C757 C 0.28484 0.56595 0.95074 0.0
C758 C 0.39355 0.28602 0.95049 0.0
C759 C 0.39169 0.26255 0.93058 0.0
H760 H 0.39234 0.30449 0.00466 0.0
C761 C 0.39349 0.23897 0.95046 0.0
H762 H 0.39224 0.30441 0.93565 0.0
C763 C 0.39355 0.23902 -0.00974 0.0
C764 C 0.3918 0.26264 0.01001 0.0
H765 H 0.39182 0.22066 0.93557 0.0
H766 H 0.39193 0.22074 0.00527 0.0
C767 C 0.39361 0.28606 -0.01007 0.0
C768 C 0.20015 -0.0081 0.20876 0.0
C769 C 0.22357 0.00394 0.1992 0.0
H770 H 0.1815 0.96035 0.23662 0.0
C771 C 0.24697 -0.00763 0.21067 0.0
H772 H 0.18178 0.00044 0.20063 0.0
C773 C 0.24681 0.96885 0.23089 0.0
C774 C 0.22323 0.95716 0.24085 0.0
H775 H 0.26529 0.00132 0.20369 0.0
H776 H 0.26501 0.96005 0.23915 0.0
C777 C 0.19998 0.96901 0.22968 0.0
C778 C 0.96766 0.20205 0.2097 0.0
C779 C 0.95568 0.22543 0.1991 0.0
H780 H -0.00098 0.18367 0.23845 0.0
C781 C 0.9671 0.24907 0.20972 0.0
H782 H 0.95922 0.18352 0.20225 0.0
C783 C -0.00955 0.24916 0.23007 0.0
C784 C 0.00213 0.22561 0.24102 0.0
H785 H 0.95818 0.26737 0.20192 0.0
H786 H -0.00082 0.26752 0.23761 0.0
C787 C -0.00961 0.20214 0.23075 0.0
C788 C 0.75779 -0.00777 0.22946 0.0
C789 C 0.7345 0.00426 0.24015 0.0
H790 H 0.77607 0.96073 0.20065 0.0
C791 C 0.71095 -0.00721 0.22961 0.0
H792 H 0.77626 0.00071 0.23685 0.0
C793 C 0.71084 0.96933 0.20928 0.0
C794 C 0.73428 0.95761 0.19825 0.0
H795 H 0.69272 0.00174 0.23748 0.0
H796 H 0.69253 0.96056 0.20181 0.0
C797 C 0.75768 0.9694 0.20842 0.0
C798 C -0.00916 0.71289 0.20816 0.0
C799 C 0.00245 0.73657 0.19813 0.0
H800 H 0.95853 0.69433 0.23543 0.0
C801 C -0.00942 0.75991 0.20922 0.0
H802 H -0.00033 0.69463 0.19996 0.0
C803 C 0.96776 0.75973 0.23013 0.0
C804 C 0.95582 0.73621 0.23978 0.0
H805 H -0.00084 0.77847 0.20223 0.0
H806 H 0.95921 0.77816 0.2382 0.0
C807 C 0.9674 0.71272 0.22838 0.0
C808 C 0.71135 0.96867 0.72905 0.0
C809 C 0.73483 0.9569 0.73973 0.0
H810 H 0.69314 0.00127 0.70149 0.0
C811 C 0.7582 0.96882 0.72959 0.0
H812 H 0.69307 0.95982 0.73651 0.0
C813 C 0.75824 -0.00818 0.70893 0.0
C814 C 0.73491 0.0039 0.69861 0.0
H815 H 0.77661 0.96012 0.73712 0.0
H816 H 0.77668 0.00039 0.70156 0.0
C817 C 0.71139 -0.00771 0.70909 0.0
C818 C 0.97142 0.75807 0.69923 0.0
C819 C 0.95766 0.73489 0.69426 0.0
H820 H 0.00424 0.77669 0.72345 0.0
C821 C 0.96778 0.71173 0.70946 0.0
H822 H 0.96413 0.77628 0.68808 0.0
C823 C -0.00869 0.7119 0.72937 0.0
C824 C 0.00453 0.73537 0.73516 0.0
H825 H 0.95753 0.69359 0.70603 0.0
H826 H -0.00119 0.69392 0.74099 0.0
C827 C -0.00563 0.75835 0.71976 0.0
C828 C 0.24774 0.96815 0.70987 0.0
C829 C 0.22438 0.95482 0.70427 0.0
H830 H 0.26595 0.00215 0.73301 0.0
C831 C 0.20151 0.96494 0.71991 0.0
H832 H 0.26563 0.96069 0.69808 0.0
C833 C 0.20178 -0.01201 0.74042 0.0
C834 C 0.22485 0.00189 0.74516 0.0
H835 H 0.18326 0.95496 0.71638 0.0
H836 H 0.18366 -0.00474 0.75174 0.0
C837 C 0.24791 -0.00821 0.72976 0.0
C838 C 0.9682 0.20157 0.73058 0.0
C839 C 0.95614 0.225 0.74081 0.0
H840 H -0.00018 0.18309 0.70248 0.0
C841 C 0.96771 0.2486 0.73025 0.0
H842 H 0.95967 0.18307 0.73801 0.0
C843 C -0.00875 0.2486 0.7103 0.0
C844 C 0.003 0.22502 0.69971 0.0
H845 H 0.95874 0.26693 0.73778 0.0
H846 H 7e-05 0.26694 0.70277 0.0
C847 C -0.00886 0.20158 0.70993 0.0
C848 C 0.74687 0.49253 0.70929 0.0
C849 C 0.72338 0.50424 0.69854 0.0
H850 H 0.76511 0.46005 0.73713 0.0
C851 C 0.70003 0.49237 0.70883 0.0
H852 H 0.76514 0.50135 0.70172 0.0
C853 C 0.70001 0.46946 0.72972 0.0
C854 C 0.72335 0.45743 0.74012 0.0
H855 H 0.68161 0.50103 0.70126 0.0
H856 H 0.68158 0.46091 0.7372 0.0
C857 C 0.74686 0.469 0.72947 0.0
C858 C 0.48981 0.74943 0.72849 0.0
C859 C 0.50134 0.72591 0.73988 0.0
H860 H 0.45761 0.7676 0.70011 0.0
C861 C 0.48935 0.70243 0.73028 0.0
H862 H 0.49872 0.7678 0.73551 0.0
C863 C 0.46654 0.70231 0.70941 0.0
C864 C 0.45473 0.72567 0.69831 0.0
H865 H 0.49785 0.68398 0.73834 0.0
H866 H 0.45793 0.68377 0.70244 0.0
C867 C 0.46638 0.74932 0.70831 0.0
C868 C 0.25728 0.47041 0.7092 0.0
C869 C 0.23391 0.45831 0.69964 0.0
H870 H 0.27579 0.50201 0.73701 0.0
C871 C 0.21045 0.46984 0.71104 0.0
H872 H 0.27568 0.46192 0.70111 0.0
C873 C 0.21051 0.49337 0.73122 0.0
C874 C 0.23404 0.50512 0.74119 0.0
H875 H 0.19218 0.46084 0.70405 0.0
H876 H 0.19228 0.50214 0.73944 0.0
C877 C 0.25735 0.49332 0.73006 0.0
C878 C 0.4674 0.25964 0.73063 0.0
C879 C 0.45558 0.23619 0.74088 0.0
H880 H 0.49874 0.27819 0.70231 0.0
C881 C 0.46727 0.21262 0.7301 0.0
H882 H 0.45876 0.27813 0.73822 0.0
C883 C 0.49073 0.21266 0.70993 0.0
C884 C 0.50225 0.23626 0.69933 0.0
H885 H 0.45849 0.19428 0.73764 0.0
H886 H 0.49966 0.19434 0.70225 0.0
C887 C 0.49024 0.25968 0.70976 0.0
C888 C 0.25747 0.4922 0.2102 0.0
C889 C 0.23415 0.50424 0.19976 0.0
H890 H 0.27582 0.46063 0.23871 0.0
C891 C 0.21062 0.49272 0.21042 0.0
H892 H 0.27591 0.50071 0.2027 0.0
C893 C 0.21057 0.46921 0.23065 0.0
C894 C 0.23405 0.45747 0.24142 0.0
H895 H 0.19238 0.50168 0.20274 0.0
H896 H 0.19229 0.46041 0.23822 0.0
C897 C 0.25742 0.46931 0.23112 0.0
C898 C 0.49094 0.21255 0.23034 0.0
C899 C 0.50242 0.23618 0.24087 0.0
H900 H 0.45873 0.19414 0.20272 0.0
C901 C 0.49042 0.25958 0.23038 0.0
H902 H 0.49986 0.19425 0.23807 0.0
C903 C 0.46761 0.25952 0.20953 0.0
C904 C 0.45581 0.23605 0.19936 0.0
H905 H 0.49891 0.2781 0.23777 0.0
H906 H 0.45897 0.27799 0.2019 0.0
C907 C 0.4675 0.21249 0.21019 0.0
C908 C 0.70015 0.49228 0.22998 0.0
C909 C 0.72352 0.50414 0.24013 0.0
H910 H 0.68166 0.46083 0.20175 0.0
C911 C 0.747 0.4924 0.2293 0.0
H912 H 0.68174 0.50095 0.23761 0.0
C913 C 0.74695 0.46887 0.20916 0.0
C914 C 0.72343 0.45732 0.19864 0.0
H915 H 0.76528 0.50122 0.23676 0.0
H916 H 0.7652 0.45991 0.20143 0.0
C917 C 0.70011 0.46936 0.20914 0.0
C918 C 0.46748 0.70213 0.22934 0.0
C919 C 0.45544 0.72551 0.23985 0.0
H920 H 0.49898 0.68377 0.2008 0.0
C921 C 0.4669 0.74915 0.22928 0.0
H922 H 0.45903 0.6836 0.23677 0.0
C923 C 0.49035 0.74926 0.20907 0.0
C924 C 0.50208 0.72572 0.19822 0.0
H925 H 0.45795 0.76745 0.23702 0.0
H926 H 0.49909 0.76763 0.20156 0.0
C927 C 0.49031 0.70223 0.20844 0.0
C928 C 0.15399 0.12501 0.24378 0.0
C929 C 0.1563 0.12298 0.2043 0.0
H930 H 0.13461 0.14332 0.29031 0.0
C931 C 0.14047 0.13848 0.18098 0.0
H932 H 0.16591 0.11319 0.26229 0.0
C933 C 0.12315 0.15628 0.19693 0.0
C934 C 0.12077 0.15824 0.23642 0.0
H935 H 0.14187 0.1373 0.15039 0.0
H936 H 0.11151 0.16838 0.17842 0.0
C937 C 0.13606 0.14219 0.25972 0.0
C938 C 0.82235 0.14175 0.18038 0.0
C939 C 0.8376 0.15772 0.20366 0.0
H940 H 0.79259 0.1129 0.17785 0.0
C941 C 0.83526 0.15574 0.24315 0.0
H942 H 0.82377 0.1429 0.14979 0.0
C943 C 0.81802 0.138 0.25913 0.0
C944 C 0.80222 0.12259 0.23584 0.0
H945 H 0.84686 0.16777 0.26164 0.0
H946 H 0.81665 0.1368 0.28972 0.0
C947 C 0.80449 0.12464 0.19635 0.0
C948 C 0.83468 0.80537 0.19526 0.0
C949 C 0.83699 0.80338 0.23475 0.0
H950 H 0.81604 0.82439 0.14874 0.0
C951 C 0.82165 0.81939 0.25806 0.0
H952 H 0.84636 0.7933 0.17675 0.0
C953 C 0.80373 0.83657 0.24213 0.0
C954 C 0.8015 0.83864 0.20265 0.0
H955 H 0.82304 0.81823 0.28865 0.0
H956 H 0.79177 0.84836 0.26065 0.0
C957 C 0.81738 0.82318 0.17933 0.0
C958 C 0.15413 0.83669 0.19657 0.0
C959 C 0.15613 0.83857 0.23611 0.0
H960 H 0.13513 0.81866 0.14964 0.0
C961 C 0.14018 0.82305 0.25909 0.0
H962 H 0.16616 0.84851 0.17831 0.0
C963 C 0.12302 0.80542 0.24277 0.0
C964 C 0.12091 0.80365 0.20323 0.0
H965 H 0.14138 0.8241 0.28971 0.0
H966 H 0.11127 0.79332 0.26103 0.0
C967 C 0.13635 0.81968 0.18026 0.0
C968 C 0.83565 0.80458 0.74299 0.0
C969 C 0.8383 0.80285 0.7035 0.0
H970 H 0.81652 0.82321 0.7895 0.0
C971 C 0.82313 0.81903 0.6802 0.0
H972 H 0.84717 0.79238 0.76151 0.0
C973 C 0.80504 0.83606 0.6961 0.0
C974 C 0.80244 0.83783 0.73557 0.0
H975 H 0.82479 0.81812 0.64963 0.0
H976 H 0.79323 0.84797 0.67757 0.0
C977 C 0.81816 0.82223 0.75891 0.0
C978 C 0.16822 0.80917 0.7132 0.0
C979 C 0.16076 0.83494 0.70606 0.0
H980 H 0.15622 0.77133 0.73135 0.0
C981 C 0.13498 0.84249 0.71218 0.0
H982 H 0.18794 0.80282 0.70804 0.0
C983 C 0.11702 0.82466 0.72608 0.0
C984 C 0.12436 0.79879 0.73263 0.0
H985 H 0.12881 0.86222 0.70646 0.0
H986 H 0.09736 0.83099 0.73142 0.0
C987 C 0.15005 0.79111 0.7259 0.0
C988 C 0.12368 0.15481 0.74322 0.0
C989 C 0.12172 0.15719 0.70374 0.0
H990 H 0.14187 0.13533 0.78969 0.0
C991 C 0.13721 0.14135 0.68039 0.0
H992 H 0.11187 0.16673 0.76176 0.0
C993 C 0.15495 0.12396 0.69629 0.0
C994 C 0.15687 0.12152 0.73578 0.0
H995 H 0.13607 0.14282 0.6498 0.0
H996 H 0.16705 0.11233 0.67775 0.0
C997 C 0.14081 0.13681 0.7591 0.0
C998 C 0.82232 0.14176 0.75888 0.0
C999 C 0.83759 0.15773 0.73558 0.0
H1000 H 0.79256 0.11291 0.76147 0.0
C1001 C 0.83528 0.15578 0.69609 0.0
H1002 H 0.82371 0.14289 0.78947 0.0
C1003 C 0.81804 0.13806 0.68015 0.0
C1004 C 0.80223 0.12264 0.70347 0.0
H1005 H 0.84691 0.16781 0.67757 0.0
H1006 H 0.81669 0.13688 0.64956 0.0
C1007 C 0.80447 0.12466 0.74295 0.0
C1008 C 0.64009 0.63882 0.67938 0.0
C1009 C 0.65584 0.62328 0.70275 0.0
H1010 H 0.61114 0.66872 0.67672 0.0
C1011 C 0.65339 0.62523 0.74223 0.0
H1012 H 0.64161 0.6377 0.6488 0.0
C1013 C 0.63539 0.64238 0.7581 0.0
C1014 C 0.62018 0.65848 0.73475 0.0
H1015 H 0.66524 0.61338 0.76078 0.0
H1016 H 0.63383 0.64345 0.78868 0.0
C1017 C 0.62271 0.65659 0.69527 0.0
C1018 C 0.3168 0.63936 0.75937 0.0
C1019 C 0.30094 0.62382 0.73638 0.0
H1020 H 0.34567 0.66913 0.76132 0.0
C1021 C 0.30306 0.62566 0.69685 0.0
H1022 H 0.31552 0.63833 0.78999 0.0
C1023 C 0.32088 0.64267 0.68055 0.0
C1024 C 0.33622 0.65873 0.70353 0.0
H1025 H 0.29111 0.6138 0.67859 0.0
H1026 H 0.3222 0.64364 0.64994 0.0
C1027 C 0.33399 0.657 0.74306 0.0
C1028 C 0.3214 0.31967 0.76005 0.0
C1029 C 0.33684 0.3038 0.73667 0.0
H1030 H 0.29149 0.34862 0.76275 0.0
C1031 C 0.33469 0.30604 0.69719 0.0
H1032 H 0.32267 0.31833 0.79064 0.0
C1033 C 0.31745 0.32394 0.68133 0.0
C1034 C 0.30146 0.33926 0.7047 0.0
H1035 H 0.34646 0.29408 0.67863 0.0
H1036 H 0.31624 0.32532 0.65075 0.0
C1037 C 0.30354 0.33695 0.74418 0.0
C1038 C 0.63586 0.31966 0.68051 0.0
C1039 C 0.62061 0.3037 0.70387 0.0
H1040 H 0.66562 0.34851 0.67783 0.0
C1041 C 0.62296 0.30568 0.74335 0.0
H1042 H 0.63444 0.31852 0.64992 0.0
C1043 C 0.64021 0.32341 0.75923 0.0
C1044 C 0.656 0.33882 0.73586 0.0
H1045 H 0.61136 0.29365 0.7619 0.0
H1046 H 0.64159 0.32461 0.78981 0.0
C1047 C 0.65373 0.33677 0.69638 0.0
C1048 C 0.33462 0.30521 0.2441 0.0
C1049 C 0.33698 0.30332 0.2046 0.0
H1050 H 0.3159 0.32411 0.29072 0.0
C1051 C 0.32166 0.31939 0.18137 0.0
H1052 H 0.34628 0.2931 0.26255 0.0
C1053 C 0.30372 0.33653 0.19739 0.0
C1054 C 0.30144 0.3385 0.23689 0.0
H1055 H 0.32309 0.3183 0.15077 0.0
H1056 H 0.29178 0.34836 0.17893 0.0
C1057 C 0.31729 0.32298 0.26013 0.0
C1058 C 0.63587 0.31973 0.25902 0.0
C1059 C 0.62062 0.30374 0.2358 0.0
H1060 H 0.66563 0.34859 0.26144 0.0
C1061 C 0.62293 0.30569 0.1963 0.0
H1062 H 0.63448 0.31861 0.28961 0.0
C1063 C 0.64015 0.32341 0.18026 0.0
C1064 C 0.65596 0.33884 0.20349 0.0
H1065 H 0.61131 0.29363 0.17785 0.0
H1066 H 0.64151 0.32457 0.14966 0.0
C1067 C 0.65372 0.33683 0.24299 0.0
C1068 C 0.64038 0.63873 0.25837 0.0
C1069 C 0.6563 0.62324 0.23513 0.0
H1070 H 0.6114 0.66861 0.26081 0.0
C1071 C 0.65415 0.62531 0.19563 0.0
H1072 H 0.64167 0.63753 0.28897 0.0
C1073 C 0.63627 0.6425 0.17961 0.0
C1074 C 0.62088 0.65852 0.20285 0.0
H1075 H 0.66615 0.61351 0.17717 0.0
H1076 H 0.63494 0.64366 0.14902 0.0
C1077 C 0.62312 0.65653 0.24235 0.0
C1078 C 0.31737 0.63822 0.18036 0.0
C1079 C 0.30158 0.62286 0.2038 0.0
H1080 H 0.34625 0.66795 0.17754 0.0
C1081 C 0.30386 0.62498 0.24326 0.0
H1082 H 0.31599 0.63696 0.14978 0.0
C1083 C 0.32175 0.6421 0.25905 0.0
C1084 C 0.337 0.65801 0.23562 0.0
H1085 H 0.29197 0.61328 0.26187 0.0
H1086 H 0.3232 0.64328 0.28963 0.0
C1087 C 0.33463 0.65597 0.19615 0.0
loop_
_geom_bond_atom_site_label_1
_geom_bond_atom_site_label_2
_geom_bond_distance
_geom_bond_site_symmetry_2
_ccdc_geom_bond_type
C0 O1 1.306 . S
C0 O3 1.160 . S
O1 C0 1.306 . S
O1 Cd2 2.228 . S
Cd2 O1 2.228 . S
Cd2 O6 2.273 . S
Cd2 O10 2.277 . S
O3 C0 1.160 . S
O3 Cd4 2.203 . S
Cd4 O3 2.203 . S
Cd4 O6 2.411 . S
Cd4 O7 2.333 . S
Cd4 O8 2.352 . S
Cd4 O12 2.277 . S
Cd4 O13 2.356 . S
C5 O10 1.209 . S
C5 O12 1.226 . S
O6 Cd2 2.273 . S
O6 Cd4 2.411 . S
O6 C9 1.320 . S
O7 Cd4 2.333 . S
O7 C9 1.214 . S
O8 Cd4 2.352 . S
O8 C11 1.258 . S
C9 O6 1.320 . S
C9 O7 1.214 . S
O10 Cd2 2.277 . S
O10 C5 1.209 . S
C11 O8 1.258 . S
C11 O13 1.282 . S
O12 Cd4 2.277 . S
O12 C5 1.226 . S
O13 Cd4 2.356 . S
O13 C11 1.282 . S
C14 O15 1.306 . S
C14 O17 1.160 . S
O15 C14 1.306 . S
O15 Cd16 2.228 . S
Cd16 O15 2.228 . S
Cd16 O20 2.273 . S
Cd16 O24 2.277 . S
O17 C14 1.160 . S
O17 Cd18 2.203 . S
Cd18 O17 2.203 . S
Cd18 O20 2.411 . S
Cd18 O21 2.333 . S
Cd18 O22 2.352 . S
Cd18 O26 2.277 . S
Cd18 O27 2.356 . S
C19 O24 1.209 . S
C19 O26 1.226 . S
O20 Cd16 2.273 . S
O20 Cd18 2.411 . S
O20 C23 1.320 . S
O21 Cd18 2.333 . S
O21 C23 1.214 . S
O22 Cd18 2.352 . S
O22 C25 1.258 . S
C23 O20 1.320 . S
C23 O21 1.214 . S
O24 Cd16 2.277 . S
O24 C19 1.209 . S
C25 O22 1.258 . S
C25 O27 1.282 . S
O26 Cd18 2.277 . S
O26 C19 1.226 . S
O27 Cd18 2.356 . S
O27 C25 1.282 . S
C28 O29 1.306 . S
C28 O31 1.160 . S
O29 C28 1.306 . S
O29 Cd30 2.228 . S
Cd30 O29 2.228 . S
Cd30 O34 2.273 . S
Cd30 O38 2.277 . S
O31 C28 1.160 . S
O31 Cd32 2.203 . S
Cd32 O31 2.203 . S
Cd32 O34 2.411 . S
Cd32 O35 2.333 . S
Cd32 O36 2.352 . S
Cd32 O40 2.277 . S
Cd32 O41 2.356 . S
C33 O38 1.209 . S
C33 O40 1.226 . S
O34 Cd30 2.273 . S
O34 Cd32 2.411 . S
O34 C37 1.320 . S
O35 Cd32 2.333 . S
O35 C37 1.214 . S
O36 Cd32 2.352 . S
O36 C39 1.258 . S
C37 O34 1.320 . S
C37 O35 1.214 . S
O38 Cd30 2.277 . S
O38 C33 1.209 . S
C39 O36 1.258 . S
C39 O41 1.282 . S
O40 Cd32 2.277 . S
O40 C33 1.226 . S
O41 Cd32 2.356 . S
O41 C39 1.282 . S
C42 O43 1.306 . S
C42 O45 1.160 . S
O43 C42 1.306 . S
O43 Cd44 2.228 . S
Cd44 O43 2.228 . S
Cd44 O48 2.273 . S
Cd44 O52 2.277 . S
O45 C42 1.160 . S
O45 Cd46 2.203 . S
Cd46 O45 2.203 . S
Cd46 O48 2.411 . S
Cd46 O49 2.333 . S
Cd46 O50 2.352 . S
Cd46 O54 2.277 . S
Cd46 O55 2.356 . S
C47 O52 1.209 . S
C47 O54 1.226 . S
O48 Cd44 2.273 . S
O48 Cd46 2.411 . S
O48 C51 1.320 . S
O49 Cd46 2.333 . S
O49 C51 1.214 . S
O50 Cd46 2.352 . S
O50 C53 1.258 . S
C51 O48 1.320 . S
C51 O49 1.214 . S
O52 Cd44 2.277 . S
O52 C47 1.209 . S
C53 O50 1.258 . S
C53 O55 1.282 . S
O54 Cd46 2.277 . S
O54 C47 1.226 . S
O55 Cd46 2.356 . S
O55 C53 1.282 . S
C56 O57 1.306 . S
C56 O59 1.160 . S
O57 C56 1.306 . S
O57 Cd58 2.228 . S
Cd58 O57 2.228 . S
Cd58 O62 2.273 . S
Cd58 O66 2.277 . S
O59 C56 1.160 . S
O59 Cd60 2.203 . S
Cd60 O59 2.203 . S
Cd60 O62 2.411 . S
Cd60 O63 2.333 . S
Cd60 O64 2.352 . S
Cd60 O68 2.277 . S
Cd60 O69 2.356 . S
C61 O66 1.209 . S
C61 O68 1.226 . S
O62 Cd58 2.273 . S
O62 Cd60 2.411 . S
O62 C65 1.320 . S
O63 Cd60 2.333 . S
O63 C65 1.214 . S
O64 Cd60 2.352 . S
O64 C67 1.258 . S
C65 O62 1.320 . S
C65 O63 1.214 . S
O66 Cd58 2.277 . S
O66 C61 1.209 . S
C67 O64 1.258 . S
C67 O69 1.282 . S
O68 Cd60 2.277 . S
O68 C61 1.226 . S
O69 Cd60 2.356 . S
O69 C67 1.282 . S
C70 O71 1.306 . S
C70 O73 1.160 . S
O71 C70 1.306 . S
O71 Cd72 2.228 . S
Cd72 O71 2.228 . S
Cd72 O76 2.273 . S
Cd72 O80 2.277 . S
O73 C70 1.160 . S
O73 Cd74 2.203 . S
Cd74 O73 2.203 . S
Cd74 O76 2.411 . S
Cd74 O77 2.333 . S
Cd74 O78 2.352 . S
Cd74 O82 2.277 . S
Cd74 O83 2.356 . S
C75 O80 1.209 . S
C75 O82 1.226 . S
O76 Cd72 2.273 . S
O76 Cd74 2.411 . S
O76 C79 1.320 . S
O77 Cd74 2.333 . S
O77 C79 1.214 . S
O78 Cd74 2.352 . S
O78 C81 1.258 . S
C79 O76 1.320 . S
C79 O77 1.214 . S
O80 Cd72 2.277 . S
O80 C75 1.209 . S
C81 O78 1.258 . S
C81 O83 1.282 . S
O82 Cd74 2.277 . S
O82 C75 1.226 . S
O83 Cd74 2.356 . S
O83 C81 1.282 . S
C84 O85 1.306 . S
C84 O87 1.160 . S
O85 C84 1.306 . S
O85 Cd86 2.228 . S
Cd86 O85 2.228 . S
Cd86 O90 2.273 . S
Cd86 O94 2.277 . S
O87 C84 1.160 . S
O87 Cd88 2.203 . S
Cd88 O87 2.203 . S
Cd88 O90 2.411 . S
Cd88 O91 2.333 . S
Cd88 O92 2.352 . S
Cd88 O96 2.277 . S
Cd88 O97 2.356 . S
C89 O94 1.209 . S
C89 O96 1.226 . S
O90 Cd86 2.273 . S
O90 Cd88 2.411 . S
O90 C93 1.320 . S
O91 Cd88 2.333 . S
O91 C93 1.214 . S
O92 Cd88 2.352 . S
O92 C95 1.258 . S
C93 O90 1.320 . S
C93 O91 1.214 . S
O94 Cd86 2.277 . S
O94 C89 1.209 . S
C95 O92 1.258 . S
C95 O97 1.282 . S
O96 Cd88 2.277 . S
O96 C89 1.226 . S
O97 Cd88 2.356 . S
O97 C95 1.282 . S
C98 O99 1.306 . S
C98 O101 1.160 . S
O99 C98 1.306 . S
O99 Cd100 2.228 . S
Cd100 O99 2.228 . S
Cd100 O104 2.273 . S
Cd100 O108 2.277 . S
O101 C98 1.160 . S
O101 Cd102 2.203 . S
Cd102 O101 2.203 . S
Cd102 O104 2.411 . S
Cd102 O105 2.333 . S
Cd102 O106 2.352 . S
Cd102 O110 2.277 . S
Cd102 O111 2.356 . S
C103 O108 1.209 . S
C103 O110 1.226 . S
O104 Cd100 2.273 . S
O104 Cd102 2.411 . S
O104 C107 1.320 . S
O105 Cd102 2.333 . S
O105 C107 1.214 . S
O106 Cd102 2.352 . S
O106 C109 1.258 . S
C107 O104 1.320 . S
C107 O105 1.214 . S
O108 Cd100 2.277 . S
O108 C103 1.209 . S
C109 O106 1.258 . S
C109 O111 1.282 . S
O110 Cd102 2.277 . S
O110 C103 1.226 . S
O111 Cd102 2.356 . S
O111 C109 1.282 . S
C112 O113 1.306 . S
C112 O115 1.160 . S
O113 C112 1.306 . S
O113 Cd114 2.228 . S
Cd114 O113 2.228 . S
Cd114 O118 2.273 . S
Cd114 O122 2.277 . S
O115 C112 1.160 . S
O115 Cd116 2.203 . S
Cd116 O115 2.203 . S
Cd116 O118 2.411 . S
Cd116 O119 2.333 . S
Cd116 O120 2.352 . S
Cd116 O124 2.277 . S
Cd116 O125 2.356 . S
C117 O122 1.209 . S
C117 O124 1.226 . S
O118 Cd114 2.273 . S
O118 Cd116 2.411 . S
O118 C121 1.320 . S
O119 Cd116 2.333 . S
O119 C121 1.214 . S
O120 Cd116 2.352 . S
O120 C123 1.258 . S
C121 O118 1.320 . S
C121 O119 1.214 . S
O122 Cd114 2.277 . S
O122 C117 1.209 . S
C123 O120 1.258 . S
C123 O125 1.282 . S
O124 Cd116 2.277 . S
O124 C117 1.226 . S
O125 Cd116 2.356 . S
O125 C123 1.282 . S
C126 O127 1.306 . S
C126 O129 1.160 . S
O127 C126 1.306 . S
O127 Cd128 2.228 . S
Cd128 O127 2.228 . S
Cd128 O132 2.273 . S
Cd128 O136 2.277 . S
O129 C126 1.160 . S
O129 Cd130 2.203 . S
Cd130 O129 2.203 . S
Cd130 O132 2.411 . S
Cd130 O133 2.333 . S
Cd130 O134 2.352 . S
Cd130 O138 2.277 . S
Cd130 O139 2.356 . S
C131 O136 1.209 . S
C131 O138 1.226 . S
O132 Cd128 2.273 . S
O132 Cd130 2.411 . S
O132 C135 1.320 . S
O133 Cd130 2.333 . S
O133 C135 1.214 . S
O134 Cd130 2.352 . S
O134 C137 1.258 . S
C135 O132 1.320 . S
C135 O133 1.214 . S
O136 Cd128 2.277 . S
O136 C131 1.209 . S
C137 O134 1.258 . S
C137 O139 1.282 . S
O138 Cd130 2.277 . S
O138 C131 1.226 . S
O139 Cd130 2.356 . S
O139 C137 1.282 . S
C140 O141 1.306 . S
C140 O143 1.160 . S
O141 C140 1.306 . S
O141 Cd142 2.228 . S
Cd142 O141 2.228 . S
Cd142 O146 2.273 . S
Cd142 O150 2.277 . S
O143 C140 1.160 . S
O143 Cd144 2.203 . S
Cd144 O143 2.203 . S
Cd144 O146 2.411 . S
Cd144 O147 2.333 . S
Cd144 O148 2.352 . S
Cd144 O152 2.277 . S
Cd144 O153 2.356 . S
C145 O150 1.209 . S
C145 O152 1.226 . S
O146 Cd142 2.273 . S
O146 Cd144 2.411 . S
O146 C149 1.320 . S
O147 Cd144 2.333 . S
O147 C149 1.214 . S
O148 Cd144 2.352 . S
O148 C151 1.258 . S
C149 O146 1.320 . S
C149 O147 1.214 . S
O150 Cd142 2.277 . S
O150 C145 1.209 . S
C151 O148 1.258 . S
C151 O153 1.282 . S
O152 Cd144 2.277 . S
O152 C145 1.226 . S
O153 Cd144 2.356 . S
O153 C151 1.282 . S
C154 O155 1.306 . S
C154 O157 1.160 . S
O155 C154 1.306 . S
O155 Cd156 2.228 . S
Cd156 O155 2.228 . S
Cd156 O160 2.273 . S
Cd156 O164 2.277 . S
O157 C154 1.160 . S
O157 Cd158 2.203 . S
Cd158 O157 2.203 . S
Cd158 O160 2.411 . S
Cd158 O161 2.333 . S
Cd158 O162 2.352 . S
Cd158 O166 2.277 . S
Cd158 O167 2.356 . S
C159 O164 1.209 . S
C159 O166 1.226 . S
O160 Cd156 2.273 . S
O160 Cd158 2.411 . S
O160 C163 1.320 . S
O161 Cd158 2.333 . S
O161 C163 1.214 . S
O162 Cd158 2.352 . S
O162 C165 1.258 . S
C163 O160 1.320 . S
C163 O161 1.214 . S
O164 Cd156 2.277 . S
O164 C159 1.209 . S
C165 O162 1.258 . S
C165 O167 1.282 . S
O166 Cd158 2.277 . S
O166 C159 1.226 . S
O167 Cd158 2.356 . S
O167 C165 1.282 . S
C168 O169 1.306 . S
C168 O171 1.160 . S
O169 C168 1.306 . S
O169 Cd170 2.228 . S
Cd170 O169 2.228 . S
Cd170 O174 2.273 . S
Cd170 O178 2.277 . S
O171 C168 1.160 . S
O171 Cd172 2.203 . S
Cd172 O171 2.203 . S
Cd172 O174 2.411 . S
Cd172 O175 2.333 . S
Cd172 O176 2.352 . S
Cd172 O180 2.277 . S
Cd172 O181 2.356 . S
C173 O178 1.209 . S
C173 O180 1.226 . S
O174 Cd170 2.273 . S
O174 Cd172 2.411 . S
O174 C177 1.320 . S
O175 Cd172 2.333 . S
O175 C177 1.214 . S
O176 Cd172 2.352 . S
O176 C179 1.258 . S
C177 O174 1.320 . S
C177 O175 1.214 . S
O178 Cd170 2.277 . S
O178 C173 1.209 . S
C179 O176 1.258 . S
C179 O181 1.282 . S
O180 Cd172 2.277 . S
O180 C173 1.226 . S
O181 Cd172 2.356 . S
O181 C179 1.282 . S
C182 O183 1.306 . S
C182 O185 1.160 . S
O183 C182 1.306 . S
O183 Cd184 2.228 . S
Cd184 O183 2.228 . S
Cd184 O188 2.273 . S
Cd184 O192 2.277 . S
O185 C182 1.160 . S
O185 Cd186 2.203 . S
Cd186 O185 2.203 . S
Cd186 O188 2.411 . S
Cd186 O189 2.333 . S
Cd186 O190 2.352 . S
Cd186 O194 2.277 . S
Cd186 O195 2.356 . S
C187 O192 1.209 . S
C187 O194 1.226 . S
O188 Cd184 2.273 . S
O188 Cd186 2.411 . S
O188 C191 1.320 . S
O189 Cd186 2.333 . S
O189 C191 1.214 . S
O190 Cd186 2.352 . S
O190 C193 1.258 . S
C191 O188 1.320 . S
C191 O189 1.214 . S
O192 Cd184 2.277 . S
O192 C187 1.209 . S
C193 O190 1.258 . S
C193 O195 1.282 . S
O194 Cd186 2.277 . S
O194 C187 1.226 . S
O195 Cd186 2.356 . S
O195 C193 1.282 . S
C196 O197 1.306 . S
C196 O199 1.160 . S
O197 C196 1.306 . S
O197 Cd198 2.228 . S
Cd198 O197 2.228 . S
Cd198 O202 2.273 . S
Cd198 O206 2.277 . S
O199 C196 1.160 . S
O199 Cd200 2.203 . S
Cd200 O199 2.203 . S
Cd200 O202 2.411 . S
Cd200 O203 2.333 . S
Cd200 O204 2.352 . S
Cd200 O208 2.277 . S
Cd200 O209 2.356 . S
C201 O206 1.209 . S
C201 O208 1.226 . S
O202 Cd198 2.273 . S
O202 Cd200 2.411 . S
O202 C205 1.320 . S
O203 Cd200 2.333 . S
O203 C205 1.214 . S
O204 Cd200 2.352 . S
O204 C207 1.258 . S
C205 O202 1.320 . S
C205 O203 1.214 . S
O206 Cd198 2.277 . S
O206 C201 1.209 . S
C207 O204 1.258 . S
C207 O209 1.282 . S
O208 Cd200 2.277 . S
O208 C201 1.226 . S
O209 Cd200 2.356 . S
O209 C207 1.282 . S
C210 O211 1.306 . S
C210 O213 1.160 . S
O211 C210 1.306 . S
O211 Cd212 2.228 . S
Cd212 O211 2.228 . S
Cd212 O216 2.273 . S
Cd212 O220 2.277 . S
O213 C210 1.160 . S
O213 Cd214 2.203 . S
Cd214 O213 2.203 . S
Cd214 O216 2.411 . S
Cd214 O217 2.333 . S
Cd214 O218 2.352 . S
Cd214 O222 2.277 . S
Cd214 O223 2.356 . S
C215 O220 1.209 . S
C215 O222 1.226 . S
O216 Cd212 2.273 . S
O216 Cd214 2.411 . S
O216 C219 1.320 . S
O217 Cd214 2.333 . S
O217 C219 1.214 . S
O218 Cd214 2.352 . S
O218 C221 1.258 . S
C219 O216 1.320 . S
C219 O217 1.214 . S
O220 Cd212 2.277 . S
O220 C215 1.209 . S
C221 O218 1.258 . S
C221 O223 1.282 . S
O222 Cd214 2.277 . S
O222 C215 1.226 . S
O223 Cd214 2.356 . S
O223 C221 1.282 . S
C224 O225 1.306 . S
C224 O227 1.160 . S
O225 C224 1.306 . S
O225 Cd226 2.228 . S
Cd226 O225 2.228 . S
Cd226 O230 2.273 . S
Cd226 O234 2.277 . S
O227 C224 1.160 . S
O227 Cd228 2.203 . S
Cd228 O227 2.203 . S
Cd228 O230 2.411 . S
Cd228 O231 2.333 . S
Cd228 O232 2.352 . S
Cd228 O236 2.277 . S
Cd228 O237 2.356 . S
C229 O234 1.209 . S
C229 O236 1.226 . S
O230 Cd226 2.273 . S
O230 Cd228 2.411 . S
O230 C233 1.320 . S
O231 Cd228 2.333 . S
O231 C233 1.214 . S
O232 Cd228 2.352 . S
O232 C235 1.258 . S
C233 O230 1.320 . S
C233 O231 1.214 . S
O234 Cd226 2.277 . S
O234 C229 1.209 . S
C235 O232 1.258 . S
C235 O237 1.282 . S
O236 Cd228 2.277 . S
O236 C229 1.226 . S
O237 Cd228 2.356 . S
O237 C235 1.282 . S
C238 O239 1.306 . S
C238 O241 1.160 . S
O239 C238 1.306 . S
O239 Cd240 2.228 . S
Cd240 O239 2.228 . S
Cd240 O244 2.273 . S
Cd240 O248 2.277 . S
O241 C238 1.160 . S
O241 Cd242 2.203 . S
Cd242 O241 2.203 . S
Cd242 O244 2.411 . S
Cd242 O245 2.333 . S
Cd242 O246 2.352 . S
Cd242 O250 2.277 . S
Cd242 O251 2.356 . S
C243 O248 1.209 . S
C243 O250 1.226 . S
O244 Cd240 2.273 . S
O244 Cd242 2.411 . S
O244 C247 1.320 . S
O245 Cd242 2.333 . S
O245 C247 1.214 . S
O246 Cd242 2.352 . S
O246 C249 1.258 . S
C247 O244 1.320 . S
C247 O245 1.214 . S
O248 Cd240 2.277 . S
O248 C243 1.209 . S
C249 O246 1.258 . S
C249 O251 1.282 . S
O250 Cd242 2.277 . S
O250 C243 1.226 . S
O251 Cd242 2.356 . S
O251 C249 1.282 . S
C252 O253 1.306 . S
C252 O255 1.160 . S
O253 C252 1.306 . S
O253 Cd254 2.228 . S
Cd254 O253 2.228 . S
Cd254 O258 2.273 . S
Cd254 O262 2.277 . S
O255 C252 1.160 . S
O255 Cd256 2.203 . S
Cd256 O255 2.203 . S
Cd256 O258 2.411 . S
Cd256 O259 2.333 . S
Cd256 O260 2.352 . S
Cd256 O264 2.277 . S
Cd256 O265 2.356 . S
C257 O262 1.209 . S
C257 O264 1.226 . S
O258 Cd254 2.273 . S
O258 Cd256 2.411 . S
O258 C261 1.320 . S
O259 Cd256 2.333 . S
O259 C261 1.214 . S
O260 Cd256 2.352 . S
O260 C263 1.258 . S
C261 O258 1.320 . S
C261 O259 1.214 . S
O262 Cd254 2.277 . S
O262 C257 1.209 . S
C263 O260 1.258 . S
C263 O265 1.282 . S
O264 Cd256 2.277 . S
O264 C257 1.226 . S
O265 Cd256 2.356 . S
O265 C263 1.282 . S
C266 O267 1.306 . S
C266 O269 1.160 . S
O267 C266 1.306 . S
O267 Cd268 2.228 . S
Cd268 O267 2.228 . S
Cd268 O272 2.273 . S
Cd268 O276 2.277 . S
O269 C266 1.160 . S
O269 Cd270 2.203 . S
Cd270 O269 2.203 . S
Cd270 O272 2.411 . S
Cd270 O273 2.333 . S
Cd270 O274 2.352 . S
Cd270 O278 2.277 . S
Cd270 O279 2.356 . S
C271 O276 1.209 . S
C271 O278 1.226 . S
O272 Cd268 2.273 . S
O272 Cd270 2.411 . S
O272 C275 1.320 . S
O273 Cd270 2.333 . S
O273 C275 1.214 . S
O274 Cd270 2.352 . S
O274 C277 1.258 . S
C275 O272 1.320 . S
C275 O273 1.214 . S
O276 Cd268 2.277 . S
O276 C271 1.209 . S
C277 O274 1.258 . S
C277 O279 1.282 . S
O278 Cd270 2.277 . S
O278 C271 1.226 . S
O279 Cd270 2.356 . S
O279 C277 1.282 . S
C280 O281 1.306 . S
C280 O283 1.160 . S
O281 C280 1.306 . S
O281 Cd282 2.228 . S
Cd282 O281 2.228 . S
Cd282 O286 2.273 . S
Cd282 O290 2.277 . S
O283 C280 1.160 . S
O283 Cd284 2.203 . S
Cd284 O283 2.203 . S
Cd284 O286 2.411 . S
Cd284 O287 2.333 . S
Cd284 O288 2.352 . S
Cd284 O292 2.277 . S
Cd284 O293 2.356 . S
C285 O290 1.209 . S
C285 O292 1.226 . S
O286 Cd282 2.273 . S
O286 Cd284 2.411 . S
O286 C289 1.320 . S
O287 Cd284 2.333 . S
O287 C289 1.214 . S
O288 Cd284 2.352 . S
O288 C291 1.258 . S
C289 O286 1.320 . S
C289 O287 1.214 . S
O290 Cd282 2.277 . S
O290 C285 1.209 . S
C291 O288 1.258 . S
C291 O293 1.282 . S
O292 Cd284 2.277 . S
O292 C285 1.226 . S
O293 Cd284 2.356 . S
O293 C291 1.282 . S
C294 O295 1.306 . S
C294 O297 1.160 . S
O295 C294 1.306 . S
O295 Cd296 2.228 . S
Cd296 O295 2.228 . S
Cd296 O300 2.273 . S
Cd296 O304 2.277 . S
O297 C294 1.160 . S
O297 Cd298 2.203 . S
Cd298 O297 2.203 . S
Cd298 O300 2.411 . S
Cd298 O301 2.333 . S
Cd298 O302 2.352 . S
Cd298 O306 2.277 . S
Cd298 O307 2.356 . S
C299 O304 1.209 . S
C299 O306 1.226 . S
O300 Cd296 2.273 . S
O300 Cd298 2.411 . S
O300 C303 1.320 . S
O301 Cd298 2.333 . S
O301 C303 1.214 . S
O302 Cd298 2.352 . S
O302 C305 1.258 . S
C303 O300 1.320 . S
C303 O301 1.214 . S
O304 Cd296 2.277 . S
O304 C299 1.209 . S
C305 O302 1.258 . S
C305 O307 1.282 . S
O306 Cd298 2.277 . S
O306 C299 1.226 . S
O307 Cd298 2.356 . S
O307 C305 1.282 . S
C308 O309 1.306 . S
C308 O311 1.160 . S
O309 C308 1.306 . S
O309 Cd310 2.228 . S
Cd310 O309 2.228 . S
Cd310 O314 2.273 . S
Cd310 O318 2.277 . S
O311 C308 1.160 . S
O311 Cd312 2.203 . S
Cd312 O311 2.203 . S
Cd312 O314 2.411 . S
Cd312 O315 2.333 . S
Cd312 O316 2.352 . S
Cd312 O320 2.277 . S
Cd312 O321 2.356 . S
C313 O318 1.209 . S
C313 O320 1.226 . S
O314 Cd310 2.273 . S
O314 Cd312 2.411 . S
O314 C317 1.320 . S
O315 Cd312 2.333 . S
O315 C317 1.214 . S
O316 Cd312 2.352 . S
O316 C319 1.258 . S
C317 O314 1.320 . S
C317 O315 1.214 . S
O318 Cd310 2.277 . S
O318 C313 1.209 . S
C319 O316 1.258 . S
C319 O321 1.282 . S
O320 Cd312 2.277 . S
O320 C313 1.226 . S
O321 Cd312 2.356 . S
O321 C319 1.282 . S
C322 O323 1.306 . S
C322 O325 1.160 . S
O323 C322 1.306 . S
O323 Cd324 2.228 . S
Cd324 O323 2.228 . S
Cd324 O328 2.273 . S
Cd324 O332 2.277 . S
O325 C322 1.160 . S
O325 Cd326 2.203 . S
Cd326 O325 2.203 . S
Cd326 O328 2.411 . S
Cd326 O329 2.333 . S
Cd326 O330 2.352 . S
Cd326 O334 2.277 . S
Cd326 O335 2.356 . S
C327 O332 1.209 . S
C327 O334 1.226 . S
O328 Cd324 2.273 . S
O328 Cd326 2.411 . S
O328 C331 1.320 . S
O329 Cd326 2.333 . S
O329 C331 1.214 . S
O330 Cd326 2.352 . S
O330 C333 1.258 . S
C331 O328 1.320 . S
C331 O329 1.214 . S
O332 Cd324 2.277 . S
O332 C327 1.209 . S
C333 O330 1.258 . S
C333 O335 1.282 . S
O334 Cd326 2.277 . S
O334 C327 1.226 . S
O335 Cd326 2.356 . S
O335 C333 1.282 . S
C336 O337 1.306 . S
C336 O339 1.160 . S
O337 C336 1.306 . S
O337 Cd338 2.228 . S
Cd338 O337 2.228 . S
Cd338 O342 2.273 . S
Cd338 O346 2.277 . S
O339 C336 1.160 . S
O339 Cd340 2.203 . S
Cd340 O339 2.203 . S
Cd340 O342 2.411 . S
Cd340 O343 2.333 . S
Cd340 O344 2.352 . S
Cd340 O348 2.277 . S
Cd340 O349 2.356 . S
C341 O346 1.209 . S
C341 O348 1.226 . S
O342 Cd338 2.273 . S
O342 Cd340 2.411 . S
O342 C345 1.320 . S
O343 Cd340 2.333 . S
O343 C345 1.214 . S
O344 Cd340 2.352 . S
O344 C347 1.258 . S
C345 O342 1.320 . S
C345 O343 1.214 . S
O346 Cd338 2.277 . S
O346 C341 1.209 . S
C347 O344 1.258 . S
C347 O349 1.282 . S
O348 Cd340 2.277 . S
O348 C341 1.226 . S
O349 Cd340 2.356 . S
O349 C347 1.282 . S
C350 O351 1.306 . S
C350 O353 1.160 . S
O351 C350 1.306 . S
O351 Cd352 2.228 . S
Cd352 O351 2.228 . S
Cd352 O356 2.273 . S
Cd352 O360 2.277 . S
O353 C350 1.160 . S
O353 Cd354 2.203 . S
Cd354 O353 2.203 . S
Cd354 O356 2.411 . S
Cd354 O357 2.333 . S
Cd354 O358 2.352 . S
Cd354 O362 2.277 . S
Cd354 O363 2.356 . S
C355 O360 1.209 . S
C355 O362 1.226 . S
O356 Cd352 2.273 . S
O356 Cd354 2.411 . S
O356 C359 1.320 . S
O357 Cd354 2.333 . S
O357 C359 1.214 . S
O358 Cd354 2.352 . S
O358 C361 1.258 . S
C359 O356 1.320 . S
C359 O357 1.214 . S
O360 Cd352 2.277 . S
O360 C355 1.209 . S
C361 O358 1.258 . S
C361 O363 1.282 . S
O362 Cd354 2.277 . S
O362 C355 1.226 . S
O363 Cd354 2.356 . S
O363 C361 1.282 . S
C364 O365 1.306 . S
C364 O367 1.160 . S
O365 C364 1.306 . S
O365 Cd366 2.228 . S
Cd366 O365 2.228 . S
Cd366 O370 2.273 . S
Cd366 O374 2.277 . S
O367 C364 1.160 . S
O367 Cd368 2.203 . S
Cd368 O367 2.203 . S
Cd368 O370 2.411 . S
Cd368 O371 2.333 . S
Cd368 O372 2.352 . S
Cd368 O376 2.277 . S
Cd368 O377 2.356 . S
C369 O374 1.209 . S
C369 O376 1.226 . S
O370 Cd366 2.273 . S
O370 Cd368 2.411 . S
O370 C373 1.320 . S
O371 Cd368 2.333 . S
O371 C373 1.214 . S
O372 Cd368 2.352 . S
O372 C375 1.258 . S
C373 O370 1.320 . S
C373 O371 1.214 . S
O374 Cd366 2.277 . S
O374 C369 1.209 . S
C375 O372 1.258 . S
C375 O377 1.282 . S
O376 Cd368 2.277 . S
O376 C369 1.226 . S
O377 Cd368 2.356 . S
O377 C375 1.282 . S
C378 O379 1.306 . S
C378 O381 1.160 . S
O379 C378 1.306 . S
O379 Cd380 2.228 . S
Cd380 O379 2.228 . S
Cd380 O384 2.273 . S
Cd380 O388 2.277 . S
O381 C378 1.160 . S
O381 Cd382 2.203 . S
Cd382 O381 2.203 . S
Cd382 O384 2.411 . S
Cd382 O385 2.333 . S
Cd382 O386 2.352 . S
Cd382 O390 2.277 . S
Cd382 O391 2.356 . S
C383 O388 1.209 . S
C383 O390 1.226 . S
O384 Cd380 2.273 . S
O384 Cd382 2.411 . S
O384 C387 1.320 . S
O385 Cd382 2.333 . S
O385 C387 1.214 . S
O386 Cd382 2.352 . S
O386 C389 1.258 . S
C387 O384 1.320 . S
C387 O385 1.214 . S
O388 Cd380 2.277 . S
O388 C383 1.209 . S
C389 O386 1.258 . S
C389 O391 1.282 . S
O390 Cd382 2.277 . S
O390 C383 1.226 . S
O391 Cd382 2.356 . S
O391 C389 1.282 . S
C392 O393 1.306 . S
C392 O395 1.160 . S
O393 C392 1.306 . S
O393 Cd394 2.228 . S
Cd394 O393 2.228 . S
Cd394 O398 2.273 . S
Cd394 O402 2.277 . S
O395 C392 1.160 . S
O395 Cd396 2.203 . S
Cd396 O395 2.203 . S
Cd396 O398 2.411 . S
Cd396 O399 2.333 . S
Cd396 O400 2.352 . S
Cd396 O404 2.277 . S
Cd396 O405 2.356 . S
C397 O402 1.209 . S
C397 O404 1.226 . S
O398 Cd394 2.273 . S
O398 Cd396 2.411 . S
O398 C401 1.320 . S
O399 Cd396 2.333 . S
O399 C401 1.214 . S
O400 Cd396 2.352 . S
O400 C403 1.258 . S
C401 O398 1.320 . S
C401 O399 1.214 . S
O402 Cd394 2.277 . S
O402 C397 1.209 . S
C403 O400 1.258 . S
C403 O405 1.282 . S
O404 Cd396 2.277 . S
O404 C397 1.226 . S
O405 Cd396 2.356 . S
O405 C403 1.282 . S
C406 O407 1.306 . S
C406 O409 1.160 . S
O407 C406 1.306 . S
O407 Cd408 2.228 . S
Cd408 O407 2.228 . S
Cd408 O412 2.273 . S
Cd408 O416 2.277 . S
O409 C406 1.160 . S
O409 Cd410 2.203 . S
Cd410 O409 2.203 . S
Cd410 O412 2.411 . S
Cd410 O413 2.333 . S
Cd410 O414 2.352 . S
Cd410 O418 2.277 . S
Cd410 O419 2.356 . S
C411 O416 1.209 . S
C411 O418 1.226 . S
O412 Cd408 2.273 . S
O412 Cd410 2.411 . S
O412 C415 1.320 . S
O413 Cd410 2.333 . S
O413 C415 1.214 . S
O414 Cd410 2.352 . S
O414 C417 1.258 . S
C415 O412 1.320 . S
C415 O413 1.214 . S
O416 Cd408 2.277 . S
O416 C411 1.209 . S
C417 O414 1.258 . S
C417 O419 1.282 . S
O418 Cd410 2.277 . S
O418 C411 1.226 . S
O419 Cd410 2.356 . S
O419 C417 1.282 . S
C420 O421 1.306 . S
C420 O423 1.160 . S
O421 C420 1.306 . S
O421 Cd422 2.228 . S
Cd422 O421 2.228 . S
Cd422 O426 2.273 . S
Cd422 O430 2.277 . S
O423 C420 1.160 . S
O423 Cd424 2.203 . S
Cd424 O423 2.203 . S
Cd424 O426 2.411 . S
Cd424 O427 2.333 . S
Cd424 O428 2.352 . S
Cd424 O432 2.277 . S
Cd424 O433 2.356 . S
C425 O430 1.209 . S
C425 O432 1.226 . S
O426 Cd422 2.273 . S
O426 Cd424 2.411 . S
O426 C429 1.320 . S
O427 Cd424 2.333 . S
O427 C429 1.214 . S
O428 Cd424 2.352 . S
O428 C431 1.258 . S
C429 O426 1.320 . S
C429 O427 1.214 . S
O430 Cd422 2.277 . S
O430 C425 1.209 . S
C431 O428 1.258 . S
C431 O433 1.282 . S
O432 Cd424 2.277 . S
O432 C425 1.226 . S
O433 Cd424 2.356 . S
O433 C431 1.282 . S
C434 O435 1.306 . S
C434 O437 1.160 . S
O435 C434 1.306 . S
O435 Cd436 2.228 . S
Cd436 O435 2.228 . S
Cd436 O440 2.273 . S
Cd436 O444 2.277 . S
O437 C434 1.160 . S
O437 Cd438 2.203 . S
Cd438 O437 2.203 . S
Cd438 O440 2.411 . S
Cd438 O441 2.333 . S
Cd438 O442 2.352 . S
Cd438 O446 2.277 . S
Cd438 O447 2.356 . S
C439 O444 1.209 . S
C439 O446 1.226 . S
O440 Cd436 2.273 . S
O440 Cd438 2.411 . S
O440 C443 1.320 . S
O441 Cd438 2.333 . S
O441 C443 1.214 . S
O442 Cd438 2.352 . S
O442 C445 1.258 . S
C443 O440 1.320 . S
C443 O441 1.214 . S
O444 Cd436 2.277 . S
O444 C439 1.209 . S
C445 O442 1.258 . S
C445 O447 1.282 . S
O446 Cd438 2.277 . S
O446 C439 1.226 . S
O447 Cd438 2.356 . S
O447 C445 1.282 . S
C448 C449 1.387 . S
C448 H452 0.950 . S
C448 C457 1.390 . S
C449 C448 1.387 . S
C449 C451 1.387 . S
H450 C457 0.950 . S
C451 C449 1.387 . S
C451 C453 1.390 . S
C451 H455 0.950 . S
H452 C448 0.950 . S
C453 C451 1.390 . S
C453 C454 1.387 . S
C453 H456 0.950 . S
C454 C453 1.387 . S
C454 C457 1.387 . S
H455 C451 0.950 . S
H456 C453 0.950 . S
C457 C448 1.390 . S
C457 H450 0.950 . S
C457 C454 1.387 . S
C458 C459 1.387 . S
C458 H462 0.950 . S
C458 C467 1.390 . S
C459 C458 1.387 . S
C459 C461 1.387 . S
H460 C467 0.950 . S
C461 C459 1.387 . S
C461 C463 1.390 . S
C461 H465 0.950 . S
H462 C458 0.950 . S
C463 C461 1.390 . S
C463 C464 1.387 . S
C463 H466 0.950 . S
C464 C463 1.387 . S
C464 C467 1.387 . S
H465 C461 0.950 . S
H466 C463 0.950 . S
C467 C458 1.390 . S
C467 H460 0.950 . S
C467 C464 1.387 . S
C468 C469 1.387 . S
C468 H472 0.950 . S
C468 C477 1.390 . S
C469 C468 1.387 . S
C469 C471 1.387 . S
H470 C477 0.950 . S
C471 C469 1.387 . S
C471 C473 1.390 . S
C471 H475 0.950 . S
H472 C468 0.950 . S
C473 C471 1.390 . S
C473 C474 1.387 . S
C473 H476 0.950 . S
C474 C473 1.387 . S
C474 C477 1.387 . S
H475 C471 0.950 . S
H476 C473 0.950 . S
C477 C468 1.390 . S
C477 H470 0.950 . S
C477 C474 1.387 . S
C478 C479 1.387 . S
C478 H482 0.950 . S
C478 C487 1.390 . S
C479 C478 1.387 . S
C479 C481 1.387 . S
H480 C487 0.950 . S
C481 C479 1.387 . S
C481 C483 1.390 . S
C481 H485 0.950 . S
H482 C478 0.950 . S
C483 C481 1.390 . S
C483 C484 1.387 . S
C483 H486 0.950 . S
C484 C483 1.387 . S
C484 C487 1.387 . S
H485 C481 0.950 . S
H486 C483 0.950 . S
C487 C478 1.390 . S
C487 H480 0.950 . S
C487 C484 1.387 . S
C488 C489 1.387 . S
C488 H492 0.950 . S
C488 C497 1.390 . S
C489 C488 1.387 . S
C489 C491 1.387 . S
H490 C497 0.950 . S
C491 C489 1.387 . S
C491 C493 1.390 . S
C491 H495 0.950 . S
H492 C488 0.950 . S
C493 C491 1.390 . S
C493 C494 1.387 . S
C493 H496 0.950 . S
C494 C493 1.387 . S
C494 C497 1.387 . S
H495 C491 0.950 . S
H496 C493 0.950 . S
C497 C488 1.390 . S
C497 H490 0.950 . S
C497 C494 1.387 . S
C498 C499 1.387 . S
C498 H502 0.950 . S
C498 C507 1.390 . S
C499 C498 1.387 . S
C499 C501 1.387 . S
H500 C507 0.950 . S
C501 C499 1.387 . S
C501 C503 1.390 . S
C501 H505 0.950 . S
H502 C498 0.950 . S
C503 C501 1.390 . S
C503 C504 1.387 . S
C503 H506 0.950 . S
C504 C503 1.387 . S
C504 C507 1.387 . S
H505 C501 0.950 . S
H506 C503 0.950 . S
C507 C498 1.390 . S
C507 H500 0.950 . S
C507 C504 1.387 . S
C508 C509 1.387 . S
C508 H512 0.950 . S
C508 C517 1.390 . S
C509 C508 1.387 . S
C509 C511 1.387 . S
H510 C517 0.950 . S
C511 C509 1.387 . S
C511 C513 1.390 . S
C511 H515 0.950 . S
H512 C508 0.950 . S
C513 C511 1.390 . S
C513 C514 1.387 . S
C513 H516 0.950 . S
C514 C513 1.387 . S
C514 C517 1.387 . S
H515 C511 0.950 . S
H516 C513 0.950 . S
C517 C508 1.390 . S
C517 H510 0.950 . S
C517 C514 1.387 . S
C518 C519 1.387 . S
C518 H522 0.950 . S
C518 C527 1.390 . S
C519 C518 1.387 . S
C519 C521 1.387 . S
H520 C527 0.950 . S
C521 C519 1.387 . S
C521 C523 1.390 . S
C521 H525 0.950 . S
H522 C518 0.950 . S
C523 C521 1.390 . S
C523 C524 1.387 . S
C523 H526 0.950 . S
C524 C523 1.387 . S
C524 C527 1.387 . S
H525 C521 0.950 . S
H526 C523 0.950 . S
C527 C518 1.390 . S
C527 H520 0.950 . S
C527 C524 1.387 . S
C528 C529 1.387 . S
C528 H532 0.950 . S
C528 C537 1.390 . S
C529 C528 1.387 . S
C529 C531 1.387 . S
H530 C537 0.950 . S
C531 C529 1.387 . S
C531 C533 1.390 . S
C531 H535 0.950 . S
H532 C528 0.950 . S
C533 C531 1.390 . S
C533 C534 1.387 . S
C533 H536 0.950 . S
C534 C533 1.387 . S
C534 C537 1.387 . S
H535 C531 0.950 . S
H536 C533 0.950 . S
C537 C528 1.390 . S
C537 H530 0.950 . S
C537 C534 1.387 . S
C538 C539 1.387 . S
C538 H542 0.950 . S
C538 C547 1.390 . S
C539 C538 1.387 . S
C539 C541 1.387 . S
H540 C547 0.950 . S
C541 C539 1.387 . S
C541 C543 1.390 . S
C541 H545 0.950 . S
H542 C538 0.950 . S
C543 C541 1.390 . S
C543 C544 1.387 . S
C543 H546 0.950 . S
C544 C543 1.387 . S
C544 C547 1.387 . S
H545 C541 0.950 . S
H546 C543 0.950 . S
C547 C538 1.390 . S
C547 H540 0.950 . S
C547 C544 1.387 . S
C548 C549 1.387 . S
C548 H552 0.950 . S
C548 C557 1.390 . S
C549 C548 1.387 . S
C549 C551 1.387 . S
H550 C557 0.950 . S
C551 C549 1.387 . S
C551 C553 1.390 . S
C551 H555 0.950 . S
H552 C548 0.950 . S
C553 C551 1.390 . S
C553 C554 1.387 . S
C553 H556 0.950 . S
C554 C553 1.387 . S
C554 C557 1.387 . S
H555 C551 0.950 . S
H556 C553 0.950 . S
C557 C548 1.390 . S
C557 H550 0.950 . S
C557 C554 1.387 . S
C558 C559 1.387 . S
C558 H562 0.950 . S
C558 C567 1.390 . S
C559 C558 1.387 . S
C559 C561 1.387 . S
H560 C567 0.950 . S
C561 C559 1.387 . S
C561 C563 1.390 . S
C561 H565 0.950 . S
H562 C558 0.950 . S
C563 C561 1.390 . S
C563 C564 1.387 . S
C563 H566 0.950 . S
C564 C563 1.387 . S
C564 C567 1.387 . S
H565 C561 0.950 . S
H566 C563 0.950 . S
C567 C558 1.390 . S
C567 H560 0.950 . S
C567 C564 1.387 . S
C568 C569 1.387 . S
C568 H572 0.950 . S
C568 C577 1.390 . S
C569 C568 1.387 . S
C569 C571 1.387 . S
H570 C577 0.950 . S
C571 C569 1.387 . S
C571 C573 1.390 . S
C571 H575 0.950 . S
H572 C568 0.950 . S
C573 C571 1.390 . S
C573 C574 1.387 . S
C573 H576 0.950 . S
C574 C573 1.387 . S
C574 C577 1.387 . S
H575 C571 0.950 . S
H576 C573 0.950 . S
C577 C568 1.390 . S
C577 H570 0.950 . S
C577 C574 1.387 . S
C578 C579 1.387 . S
C578 H582 0.950 . S
C578 C587 1.390 . S
C579 C578 1.387 . S
C579 C581 1.387 . S
H580 C587 0.950 . S
C581 C579 1.387 . S
C581 C583 1.390 . S
C581 H585 0.950 . S
H582 C578 0.950 . S
C583 C581 1.390 . S
C583 C584 1.387 . S
C583 H586 0.950 . S
C584 C583 1.387 . S
C584 C587 1.387 . S
H585 C581 0.950 . S
H586 C583 0.950 . S
C587 C578 1.390 . S
C587 H580 0.950 . S
C587 C584 1.387 . S
C588 C589 1.387 . S
C588 H592 0.950 . S
C588 C597 1.390 . S
C589 C588 1.387 . S
C589 C591 1.387 . S
H590 C597 0.950 . S
C591 C589 1.387 . S
C591 C593 1.390 . S
C591 H595 0.950 . S
H592 C588 0.950 . S
C593 C591 1.390 . S
C593 C594 1.387 . S
C593 H596 0.950 . S
C594 C593 1.387 . S
C594 C597 1.387 . S
H595 C591 0.950 . S
H596 C593 0.950 . S
C597 C588 1.390 . S
C597 H590 0.950 . S
C597 C594 1.387 . S
C598 C599 1.387 . S
C598 H602 0.950 . S
C598 C607 1.390 . S
C599 C598 1.387 . S
C599 C601 1.387 . S
H600 C607 0.950 . S
C601 C599 1.387 . S
C601 C603 1.390 . S
C601 H605 0.950 . S
H602 C598 0.950 . S
C603 C601 1.390 . S
C603 C604 1.387 . S
C603 H606 0.950 . S
C604 C603 1.387 . S
C604 C607 1.387 . S
H605 C601 0.950 . S
H606 C603 0.950 . S
C607 C598 1.390 . S
C607 H600 0.950 . S
C607 C604 1.387 . S
C608 C609 1.387 . S
C608 H612 0.950 . S
C608 C617 1.390 1_554 S
C609 C608 1.387 . S
C609 C611 1.387 . S
H610 C617 0.950 . S
C611 C609 1.387 . S
C611 C613 1.390 1_554 S
C611 H615 0.950 . S
H612 C608 0.950 . S
C613 C611 1.390 1_556 S
C613 C614 1.387 . S
C613 H616 0.950 . S
C614 C613 1.387 . S
C614 C617 1.387 . S
H615 C611 0.950 . S
H616 C613 0.950 . S
C617 C608 1.390 1_556 S
C617 H610 0.950 . S
C617 C614 1.387 . S
C618 C619 1.387 . S
C618 H622 0.950 . S
C618 C627 1.390 1_556 S
C619 C618 1.387 . S
C619 C621 1.387 . S
H620 C627 0.950 . S
C621 C619 1.387 . S
C621 C623 1.390 1_556 S
C621 H625 0.950 . S
H622 C618 0.950 . S
C623 C621 1.390 1_554 S
C623 C624 1.387 . S
C623 H626 0.950 . S
C624 C623 1.387 . S
C624 C627 1.387 . S
H625 C621 0.950 . S
H626 C623 0.950 . S
C627 C618 1.390 1_554 S
C627 H620 0.950 . S
C627 C624 1.387 . S
C628 C629 1.387 . S
C628 H632 0.950 . S
C628 C637 1.390 1_556 S
C629 C628 1.387 . S
C629 C631 1.387 . S
H630 C637 0.950 . S
C631 C629 1.387 . S
C631 C633 1.390 1_556 S
C631 H635 0.950 . S
H632 C628 0.950 . S
C633 C631 1.390 1_554 S
C633 C634 1.387 . S
C633 H636 0.950 . S
C634 C633 1.387 . S
C634 C637 1.387 . S
H635 C631 0.950 . S
H636 C633 0.950 . S
C637 C628 1.390 1_554 S
C637 H630 0.950 . S
C637 C634 1.387 . S
C638 C639 1.387 . S
C638 H642 0.950 . S
C638 C647 1.390 1_556 S
C639 C638 1.387 . S
C639 C641 1.387 . S
H640 C647 0.950 . S
C641 C639 1.387 . S
C641 C643 1.390 1_556 S
C641 H645 0.950 . S
H642 C638 0.950 . S
C643 C641 1.390 1_554 S
C643 C644 1.387 . S
C643 H646 0.950 . S
C644 C643 1.387 . S
C644 C647 1.387 . S
H645 C641 0.950 . S
H646 C643 0.950 . S
C647 C638 1.390 1_554 S
C647 H640 0.950 . S
C647 C644 1.387 . S
C648 C649 1.387 . S
C648 H652 0.950 . S
C648 C657 1.390 . S
C649 C648 1.387 . S
C649 C651 1.387 . S
H650 C657 0.950 . S
C651 C649 1.387 . S
C651 C653 1.390 . S
C651 H655 0.950 . S
H652 C648 0.950 . S
C653 C651 1.390 . S
C653 C654 1.387 . S
C653 H656 0.950 . S
C654 C653 1.387 . S
C654 C657 1.387 . S
H655 C651 0.950 . S
H656 C653 0.950 . S
C657 C648 1.390 . S
C657 H650 0.950 . S
C657 C654 1.387 . S
C658 C659 1.387 . S
C658 H662 0.950 . S
C658 C667 1.390 . S
C659 C658 1.387 . S
C659 C661 1.387 . S
H660 C667 0.950 . S
C661 C659 1.387 . S
C661 C663 1.390 . S
C661 H665 0.950 . S
H662 C658 0.950 . S
C663 C661 1.390 . S
C663 C664 1.387 . S
C663 H666 0.950 . S
C664 C663 1.387 . S
C664 C667 1.387 . S
H665 C661 0.950 . S
H666 C663 0.950 . S
C667 C658 1.390 . S
C667 H660 0.950 . S
C667 C664 1.387 . S
C668 C669 1.387 . S
C668 H672 0.950 . S
C668 C677 1.390 . S
C669 C668 1.387 . S
C669 C671 1.387 . S
H670 C677 0.950 . S
C671 C669 1.387 . S
C671 C673 1.390 . S
C671 H675 0.950 . S
H672 C668 0.950 . S
C673 C671 1.390 . S
C673 C674 1.387 . S
C673 H676 0.950 . S
C674 C673 1.387 . S
C674 C677 1.387 . S
H675 C671 0.950 . S
H676 C673 0.950 . S
C677 C668 1.390 . S
C677 H670 0.950 . S
C677 C674 1.387 . S
C678 C679 1.387 . S
C678 H682 0.950 . S
C678 C687 1.390 . S
C679 C678 1.387 . S
C679 C681 1.387 . S
H680 C687 0.950 . S
C681 C679 1.387 . S
C681 C683 1.390 . S
C681 H685 0.950 . S
H682 C678 0.950 . S
C683 C681 1.390 . S
C683 C684 1.387 . S
C683 H686 0.950 . S
C684 C683 1.387 . S
C684 C687 1.387 . S
H685 C681 0.950 . S
H686 C683 0.950 . S
C687 C678 1.390 . S
C687 H680 0.950 . S
C687 C684 1.387 . S
C688 C689 1.387 . S
C688 H692 0.950 . S
C688 C697 1.390 . S
C689 C688 1.387 . S
C689 C691 1.387 . S
H690 C697 0.950 . S
C691 C689 1.387 . S
C691 C693 1.390 . S
C691 H695 0.950 . S
H692 C688 0.950 . S
C693 C691 1.390 . S
C693 C694 1.387 . S
C693 H696 0.950 . S
C694 C693 1.387 . S
C694 C697 1.387 . S
H695 C691 0.950 . S
H696 C693 0.950 . S
C697 C688 1.390 . S
C697 H690 0.950 . S
C697 C694 1.387 . S
C698 C699 1.387 . S
C698 H702 0.950 . S
C698 C707 1.390 . S
C699 C698 1.387 . S
C699 C701 1.387 . S
H700 C707 0.950 . S
C701 C699 1.387 . S
C701 C703 1.390 . S
C701 H705 0.950 . S
H702 C698 0.950 . S
C703 C701 1.390 . S
C703 C704 1.387 . S
C703 H706 0.950 . S
C704 C703 1.387 . S
C704 C707 1.387 . S
H705 C701 0.950 . S
H706 C703 0.950 . S
C707 C698 1.390 . S
C707 H700 0.950 . S
C707 C704 1.387 . S
C708 C709 1.387 . S
C708 H712 0.950 . S
C708 C717 1.390 . S
C709 C708 1.387 . S
C709 C711 1.387 . S
H710 C717 0.950 . S
C711 C709 1.387 . S
C711 C713 1.390 . S
C711 H715 0.950 . S
H712 C708 0.950 . S
C713 C711 1.390 . S
C713 C714 1.387 . S
C713 H716 0.950 . S
C714 C713 1.387 . S
C714 C717 1.387 . S
H715 C711 0.950 . S
H716 C713 0.950 . S
C717 C708 1.390 . S
C717 H710 0.950 . S
C717 C714 1.387 . S
C718 C719 1.387 . S
C718 H722 0.950 . S
C718 C727 1.390 . S
C719 C718 1.387 . S
C719 C721 1.387 . S
H720 C727 0.950 . S
C721 C719 1.387 . S
C721 C723 1.390 . S
C721 H725 0.950 . S
H722 C718 0.950 . S
C723 C721 1.390 . S
C723 C724 1.387 . S
C723 H726 0.950 . S
C724 C723 1.387 . S
C724 C727 1.387 . S
H725 C721 0.950 . S
H726 C723 0.950 . S
C727 C718 1.390 . S
C727 H720 0.950 . S
C727 C724 1.387 . S
C728 C729 1.387 . S
C728 H732 0.950 . S
C728 C737 1.390 1_556 S
C729 C728 1.387 . S
C729 C731 1.387 . S
H730 C737 0.950 . S
C731 C729 1.387 . S
C731 C733 1.390 1_556 S
C731 H735 0.950 . S
H732 C728 0.950 . S
C733 C731 1.390 1_554 S
C733 C734 1.387 . S
C733 H736 0.950 . S
C734 C733 1.387 . S
C734 C737 1.387 . S
H735 C731 0.950 . S
H736 C733 0.950 . S
C737 C728 1.390 1_554 S
C737 H730 0.950 . S
C737 C734 1.387 . S
C738 C739 1.387 . S
C738 H742 0.950 . S
C738 C747 1.390 1_554 S
C739 C738 1.387 . S
C739 C741 1.387 . S
H740 C747 0.950 . S
C741 C739 1.387 . S
C741 C743 1.390 1_554 S
C741 H745 0.950 . S
H742 C738 0.950 . S
C743 C741 1.390 1_556 S
C743 C744 1.387 . S
C743 H746 0.950 . S
C744 C743 1.387 . S
C744 C747 1.387 . S
H745 C741 0.950 . S
H746 C743 0.950 . S
C747 C738 1.390 1_556 S
C747 H740 0.950 . S
C747 C744 1.387 . S
C748 C749 1.387 . S
C748 H752 0.950 . S
C748 C757 1.390 1_554 S
C749 C748 1.387 . S
C749 C751 1.387 . S
H750 C757 0.950 . S
C751 C749 1.387 . S
C751 C753 1.390 1_554 S
C751 H755 0.950 . S
H752 C748 0.950 . S
C753 C751 1.390 1_556 S
C753 C754 1.387 . S
C753 H756 0.950 . S
C754 C753 1.387 . S
C754 C757 1.387 . S
H755 C751 0.950 . S
H756 C753 0.950 . S
C757 C748 1.390 1_556 S
C757 H750 0.950 . S
C757 C754 1.387 . S
C758 C759 1.387 . S
C758 H762 0.950 . S
C758 C767 1.390 1_556 S
C759 C758 1.387 . S
C759 C761 1.387 . S
H760 C767 0.950 . S
C761 C759 1.387 . S
C761 C763 1.390 1_556 S
C761 H765 0.950 . S
H762 C758 0.950 . S
C763 C761 1.390 1_554 S
C763 C764 1.387 . S
C763 H766 0.950 . S
C764 C763 1.387 . S
C764 C767 1.387 . S
H765 C761 0.950 . S
H766 C763 0.950 . S
C767 C758 1.390 1_554 S
C767 H760 0.950 . S
C767 C764 1.387 . S
C768 C769 1.387 . S
C768 H772 0.950 . S
C768 C777 1.390 1_545 S
C769 C768 1.387 . S
C769 C771 1.387 . S
H770 C777 0.950 . S
C771 C769 1.387 . S
C771 C773 1.390 1_545 S
C771 H775 0.950 . S
H772 C768 0.950 . S
C773 C771 1.390 1_565 S
C773 C774 1.387 . S
C773 H776 0.950 . S
C774 C773 1.387 . S
C774 C777 1.387 . S
H775 C771 0.950 . S
H776 C773 0.950 . S
C777 C768 1.390 1_565 S
C777 H770 0.950 . S
C777 C774 1.387 . S
C778 C779 1.387 . S
C778 H782 0.950 . S
C778 C787 1.390 1_655 S
C779 C778 1.387 . S
C779 C781 1.387 . S
H780 C787 0.950 . S
C781 C779 1.387 . S
C781 C783 1.390 1_655 S
C781 H785 0.950 . S
H782 C778 0.950 . S
C783 C781 1.390 1_455 S
C783 C784 1.387 . S
C783 H786 0.950 . S
C784 C783 1.387 . S
C784 C787 1.387 . S
H785 C781 0.950 . S
H786 C783 0.950 . S
C787 C778 1.390 1_455 S
C787 H780 0.950 . S
C787 C784 1.387 . S
C788 C789 1.387 . S
C788 H792 0.950 . S
C788 C797 1.390 1_545 S
C789 C788 1.387 . S
C789 C791 1.387 . S
H790 C797 0.950 . S
C791 C789 1.387 . S
C791 C793 1.390 1_545 S
C791 H795 0.950 . S
H792 C788 0.950 . S
C793 C791 1.390 1_565 S
C793 C794 1.387 . S
C793 H796 0.950 . S
C794 C793 1.387 . S
C794 C797 1.387 . S
H795 C791 0.950 . S
H796 C793 0.950 . S
C797 C788 1.390 1_565 S
C797 H790 0.950 . S
C797 C794 1.387 . S
C798 C799 1.387 . S
C798 H802 0.950 . S
C798 C807 1.390 1_455 S
C799 C798 1.387 . S
C799 C801 1.387 . S
H800 C807 0.950 . S
C801 C799 1.387 . S
C801 C803 1.390 1_455 S
C801 H805 0.950 . S
H802 C798 0.950 . S
C803 C801 1.390 1_655 S
C803 C804 1.387 . S
C803 H806 0.950 . S
C804 C803 1.387 . S
C804 C807 1.387 . S
H805 C801 0.950 . S
H806 C803 0.950 . S
C807 C798 1.390 1_655 S
C807 H800 0.950 . S
C807 C804 1.387 . S
C808 C809 1.387 . S
C808 H812 0.950 . S
C808 C817 1.390 1_565 S
C809 C808 1.387 . S
C809 C811 1.387 . S
H810 C817 0.950 . S
C811 C809 1.387 . S
C811 C813 1.390 1_565 S
C811 H815 0.950 . S
H812 C808 0.950 . S
C813 C811 1.390 1_545 S
C813 C814 1.387 . S
C813 H816 0.950 . S
C814 C813 1.387 . S
C814 C817 1.387 . S
H815 C811 0.950 . S
H816 C813 0.950 . S
C817 C808 1.390 1_545 S
C817 H810 0.950 . S
C817 C814 1.387 . S
C818 C819 1.387 . S
C818 H822 0.950 . S
C818 C827 1.390 1_655 S
C819 C818 1.387 . S
C819 C821 1.387 . S
H820 C827 0.950 . S
C821 C819 1.387 . S
C821 C823 1.390 1_655 S
C821 H825 0.950 . S
H822 C818 0.950 . S
C823 C821 1.390 1_455 S
C823 C824 1.387 . S
C823 H826 0.950 . S
C824 C823 1.387 . S
C824 C827 1.387 . S
H825 C821 0.950 . S
H826 C823 0.950 . S
C827 C818 1.390 1_455 S
C827 H820 0.950 . S
C827 C824 1.387 . S
C828 C829 1.387 . S
C828 H832 0.950 . S
C828 C837 1.390 1_565 S
C829 C828 1.387 . S
C829 C831 1.387 . S
H830 C837 0.950 . S
C831 C829 1.387 . S
C831 C833 1.390 1_565 S
C831 H835 0.950 . S
H832 C828 0.950 . S
C833 C831 1.390 1_545 S
C833 C834 1.387 . S
C833 H836 0.950 . S
C834 C833 1.387 . S
C834 C837 1.387 . S
H835 C831 0.950 . S
H836 C833 0.950 . S
C837 C828 1.390 1_545 S
C837 H830 0.950 . S
C837 C834 1.387 . S
C838 C839 1.387 . S
C838 H842 0.950 . S
C838 C847 1.390 1_655 S
C839 C838 1.387 . S
C839 C841 1.387 . S
H840 C847 0.950 . S
C841 C839 1.387 . S
C841 C843 1.390 1_655 S
C841 H845 0.950 . S
H842 C838 0.950 . S
C843 C841 1.390 1_455 S
C843 C844 1.387 . S
C843 H846 0.950 . S
C844 C843 1.387 . S
C844 C847 1.387 . S
H845 C841 0.950 . S
H846 C843 0.950 . S
C847 C838 1.390 1_455 S
C847 H840 0.950 . S
C847 C844 1.387 . S
C848 C849 1.387 . S
C848 H852 0.950 . S
C848 C857 1.390 . S
C849 C848 1.387 . S
C849 C851 1.387 . S
H850 C857 0.950 . S
C851 C849 1.387 . S
C851 C853 1.390 . S
C851 H855 0.950 . S
H852 C848 0.950 . S
C853 C851 1.390 . S
C853 C854 1.387 . S
C853 H856 0.950 . S
C854 C853 1.387 . S
C854 C857 1.387 . S
H855 C851 0.950 . S
H856 C853 0.950 . S
C857 C848 1.390 . S
C857 H850 0.950 . S
C857 C854 1.387 . S
C858 C859 1.387 . S
C858 H862 0.950 . S
C858 C867 1.390 . S
C859 C858 1.387 . S
C859 C861 1.387 . S
H860 C867 0.950 . S
C861 C859 1.387 . S
C861 C863 1.390 . S
C861 H865 0.950 . S
H862 C858 0.950 . S
C863 C861 1.390 . S
C863 C864 1.387 . S
C863 H866 0.950 . S
C864 C863 1.387 . S
C864 C867 1.387 . S
H865 C861 0.950 . S
H866 C863 0.950 . S
C867 C858 1.390 . S
C867 H860 0.950 . S
C867 C864 1.387 . S
C868 C869 1.387 . S
C868 H872 0.950 . S
C868 C877 1.390 . S
C869 C868 1.387 . S
C869 C871 1.387 . S
H870 C877 0.950 . S
C871 C869 1.387 . S
C871 C873 1.390 . S
C871 H875 0.950 . S
H872 C868 0.950 . S
C873 C871 1.390 . S
C873 C874 1.387 . S
C873 H876 0.950 . S
C874 C873 1.387 . S
C874 C877 1.387 . S
H875 C871 0.950 . S
H876 C873 0.950 . S
C877 C868 1.390 . S
C877 H870 0.950 . S
C877 C874 1.387 . S
C878 C879 1.387 . S
C878 H882 0.950 . S
C878 C887 1.390 . S
C879 C878 1.387 . S
C879 C881 1.387 . S
H880 C887 0.950 . S
C881 C879 1.387 . S
C881 C883 1.390 . S
C881 H885 0.950 . S
H882 C878 0.950 . S
C883 C881 1.390 . S
C883 C884 1.387 . S
C883 H886 0.950 . S
C884 C883 1.387 . S
C884 C887 1.387 . S
H885 C881 0.950 . S
H886 C883 0.950 . S
C887 C878 1.390 . S
C887 H880 0.950 . S
C887 C884 1.387 . S
C888 C889 1.387 . S
C888 H892 0.950 . S
C888 C897 1.390 . S
C889 C888 1.387 . S
C889 C891 1.387 . S
H890 C897 0.950 . S
C891 C889 1.387 . S
C891 C893 1.390 . S
C891 H895 0.950 . S
H892 C888 0.950 . S
C893 C891 1.390 . S
C893 C894 1.387 . S
C893 H896 0.950 . S
C894 C893 1.387 . S
C894 C897 1.387 . S
H895 C891 0.950 . S
H896 C893 0.950 . S
C897 C888 1.390 . S
C897 H890 0.950 . S
C897 C894 1.387 . S
C898 C899 1.387 . S
C898 H902 0.950 . S
C898 C907 1.390 . S
C899 C898 1.387 . S
C899 C901 1.387 . S
H900 C907 0.950 . S
C901 C899 1.387 . S
C901 C903 1.390 . S
C901 H905 0.950 . S
H902 C898 0.950 . S
C903 C901 1.390 . S
C903 C904 1.387 . S
C903 H906 0.950 . S
C904 C903 1.387 . S
C904 C907 1.387 . S
H905 C901 0.950 . S
H906 C903 0.950 . S
C907 C898 1.390 . S
C907 H900 0.950 . S
C907 C904 1.387 . S
C908 C909 1.387 . S
C908 H912 0.950 . S
C908 C917 1.390 . S
C909 C908 1.387 . S
C909 C911 1.387 . S
H910 C917 0.950 . S
C911 C909 1.387 . S
C911 C913 1.390 . S
C911 H915 0.950 . S
H912 C908 0.950 . S
C913 C911 1.390 . S
C913 C914 1.387 . S
C913 H916 0.950 . S
C914 C913 1.387 . S
C914 C917 1.387 . S
H915 C911 0.950 . S
H916 C913 0.950 . S
C917 C908 1.390 . S
C917 H910 0.950 . S
C917 C914 1.387 . S
C918 C919 1.387 . S
C918 H922 0.950 . S
C918 C927 1.390 . S
C919 C918 1.387 . S
C919 C921 1.387 . S
H920 C927 0.950 . S
C921 C919 1.387 . S
C921 C923 1.390 . S
C921 H925 0.950 . S
H922 C918 0.950 . S
C923 C921 1.390 . S
C923 C924 1.387 . S
C923 H926 0.950 . S
C924 C923 1.387 . S
C924 C927 1.387 . S
H925 C921 0.950 . S
H926 C923 0.950 . S
C927 C918 1.390 . S
C927 H920 0.950 . S
C927 C924 1.387 . S
C928 C929 1.387 . S
C928 H932 0.950 . S
C928 C937 1.390 . S
C929 C928 1.387 . S
C929 C931 1.387 . S
H930 C937 0.950 . S
C931 C929 1.387 . S
C931 C933 1.390 . S
C931 H935 0.950 . S
H932 C928 0.950 . S
C933 C931 1.390 . S
C933 C934 1.387 . S
C933 H936 0.950 . S
C934 C933 1.387 . S
C934 C937 1.387 . S
H935 C931 0.950 . S
H936 C933 0.950 . S
C937 C928 1.390 . S
C937 H930 0.950 . S
C937 C934 1.387 . S
C938 C939 1.387 . S
C938 H942 0.950 . S
C938 C947 1.390 . S
C939 C938 1.387 . S
C939 C941 1.387 . S
H940 C947 0.950 . S
C941 C939 1.387 . S
C941 C943 1.390 . S
C941 H945 0.950 . S
H942 C938 0.950 . S
C943 C941 1.390 . S
C943 C944 1.387 . S
C943 H946 0.950 . S
C944 C943 1.387 . S
C944 C947 1.387 . S
H945 C941 0.950 . S
H946 C943 0.950 . S
C947 C938 1.390 . S
C947 H940 0.950 . S
C947 C944 1.387 . S
C948 C949 1.387 . S
C948 H952 0.950 . S
C948 C957 1.390 . S
C949 C948 1.387 . S
C949 C951 1.387 . S
H950 C957 0.950 . S
C951 C949 1.387 . S
C951 C953 1.390 . S
C951 H955 0.950 . S
H952 C948 0.950 . S
C953 C951 1.390 . S
C953 C954 1.387 . S
C953 H956 0.950 . S
C954 C953 1.387 . S
C954 C957 1.387 . S
H955 C951 0.950 . S
H956 C953 0.950 . S
C957 C948 1.390 . S
C957 H950 0.950 . S
C957 C954 1.387 . S
C958 C959 1.387 . S
C958 H962 0.950 . S
C958 C967 1.390 . S
C959 C958 1.387 . S
C959 C961 1.387 . S
H960 C967 0.950 . S
C961 C959 1.387 . S
C961 C963 1.390 . S
C961 H965 0.950 . S
H962 C958 0.950 . S
C963 C961 1.390 . S
C963 C964 1.387 . S
C963 H966 0.950 . S
C964 C963 1.387 . S
C964 C967 1.387 . S
H965 C961 0.950 . S
H966 C963 0.950 . S
C967 C958 1.390 . S
C967 H960 0.950 . S
C967 C964 1.387 . S
C968 C969 1.387 . S
C968 H972 0.950 . S
C968 C977 1.390 . S
C969 C968 1.387 . S
C969 C971 1.387 . S
H970 C977 0.950 . S
C971 C969 1.387 . S
C971 C973 1.390 . S
C971 H975 0.950 . S
H972 C968 0.950 . S
C973 C971 1.390 . S
C973 C974 1.387 . S
C973 H976 0.950 . S
C974 C973 1.387 . S
C974 C977 1.387 . S
H975 C971 0.950 . S
H976 C973 0.950 . S
C977 C968 1.390 . S
C977 H970 0.950 . S
C977 C974 1.387 . S
C978 C979 1.387 . S
C978 H982 0.950 . S
C978 C987 1.390 . S
C979 C978 1.387 . S
C979 C981 1.387 . S
H980 C987 0.950 . S
C981 C979 1.387 . S
C981 C983 1.390 . S
C981 H985 0.950 . S
H982 C978 0.950 . S
C983 C981 1.390 . S
C983 C984 1.387 . S
C983 H986 0.950 . S
C984 C983 1.387 . S
C984 C987 1.387 . S
H985 C981 0.950 . S
H986 C983 0.950 . S
C987 C978 1.390 . S
C987 H980 0.950 . S
C987 C984 1.387 . S
C988 C989 1.387 . S
C988 H992 0.950 . S
C988 C997 1.390 . S
C989 C988 1.387 . S
C989 C991 1.387 . S
H990 C997 0.950 . S
C991 C989 1.387 . S
C991 C993 1.390 . S
C991 H995 0.950 . S
H992 C988 0.950 . S
C993 C991 1.390 . S
C993 C994 1.387 . S
C993 H996 0.950 . S
C994 C993 1.387 . S
C994 C997 1.387 . S
H995 C991 0.950 . S
H996 C993 0.950 . S
C997 C988 1.390 . S
C997 H990 0.950 . S
C997 C994 1.387 . S
C998 C999 1.387 . S
C998 H1002 0.950 . S
C998 C1007 1.390 . S
C999 C998 1.387 . S
C999 C1001 1.387 . S
H1000 C1007 0.950 . S
C1001 C999 1.387 . S
C1001 C1003 1.390 . S
C1001 H1005 0.950 . S
H1002 C998 0.950 . S
C1003 C1001 1.390 . S
C1003 C1004 1.387 . S
C1003 H1006 0.950 . S
C1004 C1003 1.387 . S
C1004 C1007 1.387 . S
H1005 C1001 0.950 . S
H1006 C1003 0.950 . S
C1007 C998 1.390 . S
C1007 H1000 0.950 . S
C1007 C1004 1.387 . S
C1008 C1009 1.387 . S
C1008 H1012 0.950 . S
C1008 C1017 1.390 . S
C1009 C1008 1.387 . S
C1009 C1011 1.387 . S
H1010 C1017 0.950 . S
C1011 C1009 1.387 . S
C1011 C1013 1.390 . S
C1011 H1015 0.950 . S
H1012 C1008 0.950 . S
C1013 C1011 1.390 . S
C1013 C1014 1.387 . S
C1013 H1016 0.950 . S
C1014 C1013 1.387 . S
C1014 C1017 1.387 . S
H1015 C1011 0.950 . S
H1016 C1013 0.950 . S
C1017 C1008 1.390 . S
C1017 H1010 0.950 . S
C1017 C1014 1.387 . S
C1018 C1019 1.387 . S
C1018 H1022 0.950 . S
C1018 C1027 1.390 . S
C1019 C1018 1.387 . S
C1019 C1021 1.387 . S
H1020 C1027 0.950 . S
C1021 C1019 1.387 . S
C1021 C1023 1.390 . S
C1021 H1025 0.950 . S
H1022 C1018 0.950 . S
C1023 C1021 1.390 . S
C1023 C1024 1.387 . S
C1023 H1026 0.950 . S
C1024 C1023 1.387 . S
C1024 C1027 1.387 . S
H1025 C1021 0.950 . S
H1026 C1023 0.950 . S
C1027 C1018 1.390 . S
C1027 H1020 0.950 . S
C1027 C1024 1.387 . S
C1028 C1029 1.387 . S
C1028 H1032 0.950 . S
C1028 C1037 1.390 . S
C1029 C1028 1.387 . S
C1029 C1031 1.387 . S
H1030 C1037 0.950 . S
C1031 C1029 1.387 . S
C1031 C1033 1.390 . S
C1031 H1035 0.950 . S
H1032 C1028 0.950 . S
C1033 C1031 1.390 . S
C1033 C1034 1.387 . S
C1033 H1036 0.950 . S
C1034 C1033 1.387 . S
C1034 C1037 1.387 . S
H1035 C1031 0.950 . S
H1036 C1033 0.950 . S
C1037 C1028 1.390 . S
C1037 H1030 0.950 . S
C1037 C1034 1.387 . S
C1038 C1039 1.387 . S
C1038 H1042 0.950 . S
C1038 C1047 1.390 . S
C1039 C1038 1.387 . S
C1039 C1041 1.387 . S
H1040 C1047 0.950 . S
C1041 C1039 1.387 . S
C1041 C1043 1.390 . S
C1041 H1045 0.950 . S
H1042 C1038 0.950 . S
C1043 C1041 1.390 . S
C1043 C1044 1.387 . S
C1043 H1046 0.950 . S
C1044 C1043 1.387 . S
C1044 C1047 1.387 . S
H1045 C1041 0.950 . S
H1046 C1043 0.950 . S
C1047 C1038 1.390 . S
C1047 H1040 0.950 . S
C1047 C1044 1.387 . S
C1048 C1049 1.387 . S
C1048 H1052 0.950 . S
C1048 C1057 1.390 . S
C1049 C1048 1.387 . S
C1049 C1051 1.387 . S
H1050 C1057 0.950 . S
C1051 C1049 1.387 . S
C1051 C1053 1.390 . S
C1051 H1055 0.950 . S
H1052 C1048 0.950 . S
C1053 C1051 1.390 . S
C1053 C1054 1.387 . S
C1053 H1056 0.950 . S
C1054 C1053 1.387 . S
C1054 C1057 1.387 . S
H1055 C1051 0.950 . S
H1056 C1053 0.950 . S
C1057 C1048 1.390 . S
C1057 H1050 0.950 . S
C1057 C1054 1.387 . S
C1058 C1059 1.387 . S
C1058 H1062 0.950 . S
C1058 C1067 1.390 . S
C1059 C1058 1.387 . S
C1059 C1061 1.387 . S
H1060 C1067 0.950 . S
C1061 C1059 1.387 . S
C1061 C1063 1.390 . S
C1061 H1065 0.950 . S
H1062 C1058 0.950 . S
C1063 C1061 1.390 . S
C1063 C1064 1.387 . S
C1063 H1066 0.950 . S
C1064 C1063 1.387 . S
C1064 C1067 1.387 . S
H1065 C1061 0.950 . S
H1066 C1063 0.950 . S
C1067 C1058 1.390 . S
C1067 H1060 0.950 . S
C1067 C1064 1.387 . S
C1068 C1069 1.387 . S
C1068 H1072 0.950 . S
C1068 C1077 1.390 . S
C1069 C1068 1.387 . S
C1069 C1071 1.387 . S
H1070 C1077 0.950 . S
C1071 C1069 1.387 . S
C1071 C1073 1.390 . S
C1071 H1075 0.950 . S
H1072 C1068 0.950 . S
C1073 C1071 1.390 . S
C1073 C1074 1.387 . S
C1073 H1076 0.950 . S
C1074 C1073 1.387 . S
C1074 C1077 1.387 . S
H1075 C1071 0.950 . S
H1076 C1073 0.950 . S
C1077 C1068 1.390 . S
C1077 H1070 0.950 . S
C1077 C1074 1.387 . S
C1078 C1079 1.387 . S
C1078 H1082 0.950 . S
C1078 C1087 1.390 . S
C1079 C1078 1.387 . S
C1079 C1081 1.387 . S
H1080 C1087 0.950 . S
C1081 C1079 1.387 . S
C1081 C1083 1.390 . S
C1081 H1085 0.950 . S
H1082 C1078 0.950 . S
C1083 C1081 1.390 . S
C1083 C1084 1.387 . S
C1083 H1086 0.950 . S
C1084 C1083 1.387 . S
C1084 C1087 1.387 . S
H1085 C1081 0.950 . S
H1086 C1083 0.950 . S
C1087 C1078 1.390 . S
C1087 H1080 0.950 . S
C1087 C1084 1.387 . S
C449 C411 1.546 . S
C454 C5 1.546 . S
C459 C19 1.546 . S
C464 C425 1.546 . S
C469 C439 1.546 . S
C474 C33 1.546 . S
C479 C397 1.546 . S
C484 C47 1.546 . S
C489 C61 1.546 . S
C494 C383 1.546 . S
C499 C341 1.546 . S
C504 C75 1.546 . S
C509 C89 1.546 . S
C514 C355 1.546 . S
C519 C369 1.546 . S
C524 C103 1.546 . S
C529 C117 1.546 . S
C534 C299 1.546 . S
C539 C131 1.546 . S
C544 C313 1.546 . S
C549 C327 1.546 . S
C554 C145 1.546 . S
C559 C159 1.546 . S
C564 C285 1.546 . S
C569 C271 1.546 . S
C574 C173 1.546 . S
C579 C229 1.546 . S
C584 C187 1.546 . S
C589 C201 1.546 . S
C594 C243 1.546 . S
C599 C215 1.546 . S
C604 C257 1.546 . S
C609 C0 1.431 . S
C614 C140 1.428 . S
C619 C154 1.431 . S
C624 C14 1.428 . S
C629 C112 1.430 . S
C634 C28 1.428 . S
C639 C126 1.431 . S
C644 C42 1.428 . S
C649 C56 1.429 . S
C654 C196 1.430 . S
C659 C210 1.431 . S
C664 C70 1.428 . S
C669 C168 1.428 . S
C674 C84 1.431 . S
C679 C182 1.428 . S
C684 C98 1.431 . S
C689 C224 1.430 . S
C694 C364 1.428 . S
C699 C378 1.431 . S
C704 C238 1.428 . S
C709 C336 1.428 . S
C714 C252 1.431 . S
C719 C266 1.430 . S
C724 C350 1.428 . S
C729 C280 1.428 . S
C734 C420 1.430 . S
C739 C434 1.428 . S
C744 C294 1.431 . S
C749 C392 1.429 . S
C754 C308 1.430 . S
C759 C322 1.431 . S
C764 C406 1.428 . S
C769 C11 1.501 . S
C774 C67 1.501 . S
C779 C25 1.501 . S
C784 C81 1.501 . S
C789 C95 1.501 . S
C794 C39 1.501 . S
C799 C53 1.503 . S
C804 C109 1.503 . S
C809 C123 1.501 . S
C814 C179 1.501 . S
C819 C193 1.503 . S
C824 C137 1.503 . S
C829 C207 1.501 . S
C834 C151 1.501 . S
C839 C165 1.503 . S
C844 C221 1.503 . S
C849 C235 1.503 . S
C854 C291 1.503 . S
C859 C305 1.503 . S
C864 C249 1.503 . S
C869 C263 1.501 . S
C874 C319 1.501 . S
C879 C333 1.501 . S
C884 C277 1.501 . S
C889 C403 1.503 . S
C894 C347 1.503 . S
C899 C361 1.501 . S
C904 C417 1.501 . S
C909 C375 1.503 . S
C914 C431 1.503 . S
C919 C389 1.503 . S
C924 C445 1.503 . S
C929 C9 1.434 . S
C934 C79 1.433 . S
C939 C23 1.433 . S
C944 C93 1.434 . S
C949 C107 1.434 . S
C954 C37 1.433 . S
C959 C65 1.434 . S
C964 C51 1.433 . S
C969 C191 1.433 . S
C974 C121 1.434 . S
C979 C205 1.434 . S
C984 C135 1.433 . S
C989 C219 1.433 . S
C994 C149 1.434 . S
C999 C163 1.434 . S
C1004 C177 1.433 . S
C1009 C233 1.433 . S
C1014 C303 1.434 . S
C1019 C317 1.433 . S
C1024 C247 1.434 . S
C1029 C331 1.433 . S
C1034 C261 1.434 . S
C1039 C275 1.433 . S
C1044 C289 1.434 . S
C1049 C415 1.433 . S
C1054 C345 1.434 . S
C1059 C359 1.434 . S
C1064 C429 1.433 . S
C1069 C373 1.434 . S
C1074 C443 1.433 . S
C1079 C401 1.434 . S
C1084 C387 1.433 . S
