# Generated by pormake.
# Topology crs, (6)-cn, num edge types: 1
# Building blocks:
#     Node 0, Type 0, BuildingBlock: PAMTOO_clean_sbu_0, # of connection points: 6
#     Node 1, Type 0, BuildingBlock: PAMTOO_clean_sbu_0, # of connection points: 6
#     Node 2, Type 0, BuildingBlock: PAMTOO_clean_sbu_0, # of connection points: 6
#     Node 3, Type 0, BuildingBlock: PAMTOO_clean_sbu_0, # of connection points: 6
#     Node 4, Type 0, BuildingBlock: PAMTOO_clean_sbu_0, # of connection points: 6
#     Node 5, Type 0, BuildingBlock: PAMTOO_clean_sbu_0, # of connection points: 6
#     Node 6, Type 0, BuildingBlock: PAMTOO_clean_sbu_0, # of connection points: 6
#     Node 7, Type 0, BuildingBlock: PAMTOO_clean_sbu_0, # of connection points: 6
#     Node 8, Type 0, BuildingBlock: PAMTOO_clean_sbu_0, # of connection points: 6
#     Node 9, Type 0, BuildingBlock: PAMTOO_clean_sbu_0, # of connection points: 6
#     Node 10, Type 0, BuildingBlock: PAMTOO_clean_sbu_0, # of connection points: 6
#     Node 11, Type 0, BuildingBlock: PAMTOO_clean_sbu_0, # of connection points: 6
#     Node 12, Type 0, BuildingBlock: PAMTOO_clean_sbu_0, # of connection points: 6
#     Node 13, Type 0, BuildingBlock: PAMTOO_clean_sbu_0, # of connection points: 6
#     Node 14, Type 0, BuildingBlock: PAMTOO_clean_sbu_0, # of connection points: 6
#     Node 15, Type 0, BuildingBlock: PAMTOO_clean_sbu_0, # of connection points: 6
#     Edge 16, Type (0, 0), BuildingBlock: KIFKEQ_clean_linker_1, # of connection points: 2
#     Edge 17, Type (0, 0), BuildingBlock: KIFKEQ_clean_linker_1, # of connection points: 2
#     Edge 18, Type (0, 0), BuildingBlock: KIFKEQ_clean_linker_1, # of connection points: 2
#     Edge 19, Type (0, 0), BuildingBlock: KIFKEQ_clean_linker_1, # of connection points: 2
#     Edge 20, Type (0, 0), BuildingBlock: KIFKEQ_clean_linker_1, # of connection points: 2
#     Edge 21, Type (0, 0), BuildingBlock: KIFKEQ_clean_linker_1, # of connection points: 2
#     Edge 22, Type (0, 0), BuildingBlock: KIFKEQ_clean_linker_1, # of connection points: 2
#     Edge 23, Type (0, 0), BuildingBlock: KIFKEQ_clean_linker_1, # of connection points: 2
#     Edge 24, Type (0, 0), BuildingBlock: KIFKEQ_clean_linker_1, # of connection points: 2
#     Edge 25, Type (0, 0), BuildingBlock: KIFKEQ_clean_linker_1, # of connection points: 2
#     Edge 26, Type (0, 0), BuildingBlock: KIFKEQ_clean_linker_1, # of connection points: 2
#     Edge 27, Type (0, 0), BuildingBlock: KIFKEQ_clean_linker_1, # of connection points: 2
#     Edge 28, Type (0, 0), BuildingBlock: KIFKEQ_clean_linker_1, # of connection points: 2
#     Edge 29, Type (0, 0), BuildingBlock: KIFKEQ_clean_linker_1, # of connection points: 2
#     Edge 30, Type (0, 0), BuildingBlock: KIFKEQ_clean_linker_1, # of connection points: 2
#     Edge 31, Type (0, 0), BuildingBlock: KIFKEQ_clean_linker_1, # of connection points: 2
#     Edge 32, Type (0, 0), BuildingBlock: KIFKEQ_clean_linker_1, # of connection points: 2
#     Edge 33, Type (0, 0), BuildingBlock: KIFKEQ_clean_linker_1, # of connection points: 2
#     Edge 34, Type (0, 0), BuildingBlock: KIFKEQ_clean_linker_1, # of connection points: 2
#     Edge 35, Type (0, 0), BuildingBlock: KIFKEQ_clean_linker_1, # of connection points: 2
#     Edge 36, Type (0, 0), BuildingBlock: KIFKEQ_clean_linker_1, # of connection points: 2
#     Edge 37, Type (0, 0), BuildingBlock: KIFKEQ_clean_linker_1, # of connection points: 2
#     Edge 38, Type (0, 0), BuildingBlock: KIFKEQ_clean_linker_1, # of connection points: 2
#     Edge 39, Type (0, 0), BuildingBlock: KIFKEQ_clean_linker_1, # of connection points: 2
#     Edge 40, Type (0, 0), BuildingBlock: KIFKEQ_clean_linker_1, # of connection points: 2
#     Edge 41, Type (0, 0), BuildingBlock: KIFKEQ_clean_linker_1, # of connection points: 2
#     Edge 42, Type (0, 0), BuildingBlock: KIFKEQ_clean_linker_1, # of connection points: 2
#     Edge 43, Type (0, 0), BuildingBlock: KIFKEQ_clean_linker_1, # of connection points: 2
#     Edge 44, Type (0, 0), BuildingBlock: KIFKEQ_clean_linker_1, # of connection points: 2
#     Edge 45, Type (0, 0), BuildingBlock: KIFKEQ_clean_linker_1, # of connection points: 2
#     Edge 46, Type (0, 0), BuildingBlock: KIFKEQ_clean_linker_1, # of connection points: 2
#     Edge 47, Type (0, 0), BuildingBlock: KIFKEQ_clean_linker_1, # of connection points: 2
#     Edge 48, Type (0, 0), BuildingBlock: KIFKEQ_clean_linker_1, # of connection points: 2
#     Edge 49, Type (0, 0), BuildingBlock: KIFKEQ_clean_linker_1, # of connection points: 2
#     Edge 50, Type (0, 0), BuildingBlock: KIFKEQ_clean_linker_1, # of connection points: 2
#     Edge 51, Type (0, 0), BuildingBlock: KIFKEQ_clean_linker_1, # of connection points: 2
#     Edge 52, Type (0, 0), BuildingBlock: KIFKEQ_clean_linker_1, # of connection points: 2
#     Edge 53, Type (0, 0), BuildingBlock: KIFKEQ_clean_linker_1, # of connection points: 2
#     Edge 54, Type (0, 0), BuildingBlock: KIFKEQ_clean_linker_1, # of connection points: 2
#     Edge 55, Type (0, 0), BuildingBlock: KIFKEQ_clean_linker_1, # of connection points: 2
#     Edge 56, Type (0, 0), BuildingBlock: KIFKEQ_clean_linker_1, # of connection points: 2
#     Edge 57, Type (0, 0), BuildingBlock: KIFKEQ_clean_linker_1, # of connection points: 2
#     Edge 58, Type (0, 0), BuildingBlock: KIFKEQ_clean_linker_1, # of connection points: 2
#     Edge 59, Type (0, 0), BuildingBlock: KIFKEQ_clean_linker_1, # of connection points: 2
#     Edge 60, Type (0, 0), BuildingBlock: KIFKEQ_clean_linker_1, # of connection points: 2
#     Edge 61, Type (0, 0), BuildingBlock: KIFKEQ_clean_linker_1, # of connection points: 2
#     Edge 62, Type (0, 0), BuildingBlock: KIFKEQ_clean_linker_1, # of connection points: 2
#     Edge 63, Type (0, 0), BuildingBlock: KIFKEQ_clean_linker_1, # of connection points: 2
# Relax obj value: 0.380
# Max RMSD: 0.320
# Mean RMSD: 0.271
data_MOF--net-crs--node1-PAMTOO_clean_sbu_0--edge1-KIFKEQ_clean_linker_1
_symmetry_space_group_name_H-M    P1
_symmetry_Int_Tables_number       1
_symmetry_cell_setting            triclinic
loop_
_symmetry_equiv_pos_as_xyz
'x, y, z'
_cell_length_a     65.471753
_cell_length_b     44.513493
_cell_length_c     43.671625
_cell_angle_alpha  89.951278
_cell_angle_beta   89.314984
_cell_angle_gamma 65.65689
loop_
_atom_site_label
_atom_site_type_symbol
_atom_site_fract_x
_atom_site_fract_y
_atom_site_fract_z
_atom_type_partial_charge
Dy0 Dy 0.97128 1.00702 0.0592 0.0
Dy1 Dy -0.01992 0.0508 1.00354 0.0
C2 C -0.02145 0.98138 0.98968 0.0
O3 O 0.00551 1.00406 0.06737 0.0
O4 O 0.01393 1.01513 1.01862 0.0
O5 O -0.0208 0.96073 0.08254 0.0
O6 O 0.95219 1.0054 0.09918 0.0
O7 O -0.01618 0.07463 0.04682 0.0
O8 O 0.96307 0.05711 0.07898 0.0
O9 O 0.94284 0.07055 1.00892 0.0
O10 O 0.94046 0.02531 0.03106 0.0
O11 O 0.97579 0.0974 0.98353 0.0
O12 O -0.00498 0.05164 0.95949 0.0
C13 C 0.02 1.00454 0.04656 0.0
O14 O -0.0168 0.97319 1.01852 0.0
O15 O 0.97266 1.01183 0.98044 0.0
C16 C 0.9462 0.95746 0.10046 0.0
C17 C 0.91216 0.93431 0.10088 0.0
C18 C 0.91737 0.94719 0.07395 0.0
C19 C 0.93428 0.95852 0.07373 0.0
C20 C 0.94155 0.94396 0.1272 0.0
C21 C 0.9247 0.9323 0.1274 0.0
C22 C 0.96181 0.97336 0.10084 0.0
C23 C 0.97291 0.07687 0.07272 0.0
C24 C 0.93137 0.05327 1.01625 0.0
C25 C 0.00855 0.09247 0.95738 0.0
C26 C 0.04692 0.10525 0.94968 0.0
C27 C 0.04291 0.09245 0.97744 0.0
C28 C 0.02389 0.08613 0.98124 0.0
C29 C 0.01223 0.10559 0.92979 0.0
C30 C 0.03128 0.11207 0.92597 0.0
C31 C -0.01039 0.08326 0.96087 0.0
H32 H 0.90786 0.94966 0.05326 0.0
H33 H 0.93758 0.96913 0.05292 0.0
H34 H 0.95057 0.94312 0.14804 0.0
H35 H 0.92132 0.9221 0.14838 0.0
H36 H 0.05445 0.08743 0.99629 0.0
H37 H 0.02128 0.07589 1.0027 0.0
H38 H 0.0006 0.11032 0.91109 0.0
H39 H 0.03402 0.12172 0.90428 0.0
Dy40 Dy 0.97132 0.25479 0.30687 0.0
Dy41 Dy -0.01637 0.30029 0.25642 0.0
C42 C 0.93328 0.32075 0.28134 0.0
O43 O 0.96306 0.24166 0.26047 0.0
O44 O -0.0122 0.25424 0.23149 0.0
O45 O 0.95124 0.22921 0.32119 0.0
O46 O -0.02042 0.22583 0.34844 0.0
O47 O 0.01635 0.26475 0.27512 0.0
O48 O 0.00562 0.22371 0.28903 0.0
O49 O 0.97526 0.32962 0.29972 0.0
O50 O -0.01761 0.28784 0.33433 0.0
O51 O 0.00075 0.3311 0.24429 0.0
O52 O -0.02127 0.32284 0.21183 0.0
C53 C 0.9748 0.23855 0.23513 0.0
O54 O 0.9407 0.30194 0.30547 0.0
O55 O 0.94631 0.31887 0.25763 0.0
C56 C 0.94829 0.22404 0.37456 0.0
C57 C 0.91947 0.22924 0.42465 0.0
C58 C 0.91388 0.2548 0.40302 0.0
C59 C 0.9282 0.25227 0.37825 0.0
C60 C 0.95455 0.19938 0.3969 0.0
C61 C 0.94032 0.20198 0.42181 0.0
C62 C 0.9621 0.21896 0.34666 0.0
C63 C 0.02128 0.23386 0.28216 0.0
C64 C -0.02061 0.31818 0.32774 0.0
C65 C 0.00949 0.33203 0.19186 0.0
C66 C 0.04121 0.3265 0.14547 0.0
C67 C 0.03251 0.30249 0.14838 0.0
C68 C 0.01682 0.30517 0.17145 0.0
C69 C 0.01797 0.35607 0.18889 0.0
C70 C 0.03372 0.35331 0.16605 0.0
C71 C -0.0069 0.33571 0.21645 0.0
H72 H 0.89788 0.27597 0.40422 0.0
H73 H 0.92315 0.27174 0.36134 0.0
H74 H 0.97013 0.17757 0.39453 0.0
H75 H 0.94532 0.18215 0.43832 0.0
H76 H 0.03777 0.28166 0.13281 0.0
H77 H 0.0105 0.28625 0.17338 0.0
H78 H 0.01257 0.3769 0.20451 0.0
H79 H 0.0404 0.37187 0.16503 0.0
Dy80 Dy 0.72947 0.24706 0.49587 0.0
Dy81 Dy 0.72959 0.29783 0.5507 0.0
C82 C 0.68464 0.29191 0.53157 0.0
O83 O 0.71967 0.29664 0.47417 0.0
O84 O 0.73655 0.31869 0.50744 0.0
O85 O 0.71482 0.23879 0.4546 0.0
O86 O 0.74374 0.19918 0.47394 0.0
O87 O 0.7656 0.26479 0.54153 0.0
O88 O 0.76287 0.24865 0.49241 0.0
O89 O 0.72335 0.25796 0.57439 0.0
O90 O 0.73909 0.21683 0.53868 0.0
O91 O 0.73912 0.30553 0.59613 0.0
O92 O 0.7201 0.34741 0.56769 0.0
C93 C 0.72761 0.31854 0.48078 0.0
O94 O 0.69668 0.26249 0.52032 0.0
O95 O 0.69369 0.31244 0.53844 0.0
C96 C 0.71597 0.18589 0.45185 0.0
C97 C 0.68831 0.15191 0.44607 0.0
C98 C 0.68965 0.16637 0.47419 0.0
C99 C 0.70338 0.18321 0.47704 0.0
C100 C 0.71546 0.17047 0.42414 0.0
C101 C 0.70175 0.15348 0.42126 0.0
C102 C 0.72783 0.20738 0.45378 0.0
C103 C 0.77473 0.25218 0.51499 0.0
C104 C 0.7318 0.22665 0.56668 0.0
C105 C 0.74982 0.34927 0.59579 0.0
C106 C 0.78648 0.36565 0.60422 0.0
C107 C 0.78445 0.35045 0.57697 0.0
C108 C 0.76628 0.34236 0.57279 0.0
C109 C 0.75141 0.36511 0.62277 0.0
C110 C 0.76961 0.37346 0.62691 0.0
C111 C 0.7323 0.3372 0.59213 0.0
H112 H 0.67928 0.1661 0.4936 0.0
H113 H 0.7035 0.19525 0.49856 0.0
H114 H 0.72509 0.17243 0.40449 0.0
H115 H 0.70127 0.14228 0.39944 0.0
H116 H 0.797 0.34462 0.5589 0.0
H117 H 0.76532 0.33003 0.55183 0.0
H118 H 0.7389 0.37032 0.64081 0.0
H119 H 0.77084 0.38507 0.64817 0.0
Dy120 Dy 0.73386 0.04693 0.79984 0.0
Dy121 Dy 0.72382 1.00055 0.7477 0.0
C122 C 0.77323 0.9811 0.77473 0.0
O123 O 0.74304 0.06012 0.75366 0.0
O124 O 0.71931 0.04712 0.724 0.0
O125 O 0.74912 0.08006 0.81088 0.0
O126 O 0.72925 0.06886 0.84516 0.0
O127 O 0.68986 0.03626 0.76404 0.0
O128 O 0.69898 0.07655 0.78505 0.0
O129 O 0.7304 0.97192 0.79108 0.0
O130 O 0.72167 1.014 0.82601 0.0
O131 O 0.70897 0.96739 0.73476 0.0
O132 O 0.72953 0.97965 0.70208 0.0
C133 C 0.73177 0.06338 0.72826 0.0
O134 O 0.76482 1.00044 0.79853 0.0
O135 O 0.76119 0.98228 0.75047 0.0
C136 C 0.75993 0.07911 0.86202 0.0
C137 C 0.79435 0.07534 0.90188 0.0
C138 C 0.7984 0.05144 0.87884 0.0
C139 C 0.7813 0.05324 0.85913 0.0
C140 C 0.75558 0.10232 0.88563 0.0
C141 C 0.77265 0.10038 0.90554 0.0
C142 C 0.74255 0.08335 0.83941 0.0
C143 C 0.68417 0.06623 0.77498 0.0
C144 C 0.7251 0.98355 0.81903 0.0
C145 C 0.69974 0.96884 0.68285 0.0
C146 C 0.66642 0.9742 0.64034 0.0
C147 C 0.66387 1.00098 0.6595 0.0
C148 C 0.68041 0.99831 0.68062 0.0
C149 C 0.70273 0.94251 0.66317 0.0
C150 C 0.68622 0.94514 0.64205 0.0
C151 C 0.71635 0.96461 0.70656 0.0
H152 H 0.8149 0.03163 0.87578 0.0
H153 H 0.78491 0.03499 0.84112 0.0
H154 H 0.73916 0.12245 0.88814 0.0
H155 H 0.76911 0.11919 0.923 0.0
H156 H 0.64871 1.02355 0.65902 0.0
H157 H 0.67787 1.01887 0.69574 0.0
H158 H 0.71763 0.91964 0.66457 0.0
H159 H 0.68881 0.92426 0.62736 0.0
Dy160 Dy 0.47286 0.75813 0.30325 0.0
Dy161 Dy 0.48452 0.80329 0.2517 0.0
C162 C 0.43433 0.82341 0.27618 0.0
O163 O 0.48037 0.72855 0.25997 0.0
O164 O 0.47367 0.76977 0.22469 0.0
O165 O 0.45738 0.72574 0.3168 0.0
O166 O 0.47777 0.73793 0.349 0.0
O167 O 0.51474 0.75556 0.2529 0.0
O168 O 0.51005 0.74135 0.30203 0.0
O169 O 0.49218 0.81778 0.29788 0.0
O170 O 0.46762 0.80513 0.32702 0.0
O171 O 0.50536 0.82777 0.23727 0.0
O172 O 0.47657 0.83247 0.21041 0.0
C173 C 0.47634 0.73967 0.23178 0.0
O174 O 0.43971 0.79295 0.28525 0.0
O175 O 0.44963 0.83385 0.2679 0.0
C176 C 0.44663 0.73052 0.36891 0.0
C177 C 0.41317 0.74133 0.41409 0.0
C178 C 0.40834 0.76014 0.38704 0.0
C179 C 0.42493 0.75493 0.36478 0.0
C180 C 0.45174 0.71217 0.39602 0.0
C181 C 0.43517 0.71755 0.41848 0.0
C182 C 0.46399 0.72393 0.34508 0.0
C183 C 0.5227 0.73807 0.27762 0.0
C184 C 0.48039 0.82111 0.3232 0.0
C185 C 0.50781 0.83456 0.18428 0.0
C186 C 0.53717 0.8254 0.13391 0.0
C187 C 0.52994 0.80069 0.14212 0.0
C188 C 0.51543 0.80519 0.16721 0.0
C189 C 0.5144 0.85955 0.17568 0.0
C190 C 0.52895 0.85504 0.15083 0.0
C191 C 0.4942 0.839 0.21221 0.0
H192 H 0.39154 0.77825 0.38252 0.0
H193 H 0.42069 0.76957 0.34408 0.0
H194 H 0.4685 0.69345 0.39969 0.0
H195 H 0.43957 0.70296 0.43917 0.0
H196 H 0.53576 0.77769 0.12947 0.0
H197 H 0.51053 0.78556 0.17366 0.0
H198 H 0.5088 0.88226 0.1888 0.0
H199 H 0.53447 0.87434 0.14574 0.0
Dy200 Dy 0.22507 0.75161 0.49639 0.0
Dy201 Dy 0.22859 0.7988 0.5522 0.0
C202 C 0.18219 0.79422 0.53725 0.0
O203 O 0.21328 0.80281 0.47732 0.0
O204 O 0.23284 0.82214 0.50883 0.0
O205 O 0.20852 0.74504 0.45629 0.0
O206 O 0.23866 0.70493 0.47228 0.0
O207 O 0.26374 0.7649 0.53871 0.0
O208 O 0.25716 0.75642 0.48889 0.0
O209 O 0.22266 0.75864 0.5754 0.0
O210 O 0.23652 0.71916 0.53788 0.0
O211 O 0.2414 0.80327 0.5964 0.0
O212 O 0.22089 0.84712 0.5712 0.0
C213 C 0.22218 0.82375 0.48325 0.0
O214 O 0.19334 0.76614 0.52302 0.0
O215 O 0.1918 0.8138 0.5452 0.0
C216 C 0.21011 0.69197 0.45221 0.0
C217 C 0.18287 0.65718 0.44751 0.0
C218 C 0.18465 0.6714 0.47555 0.0
C219 C 0.19818 0.68862 0.47787 0.0
C220 C 0.20916 0.6768 0.42453 0.0
C221 C 0.19568 0.65941 0.42219 0.0
C222 C 0.22173 0.71382 0.45368 0.0
C223 C 0.27068 0.75756 0.51027 0.0
C224 C 0.23041 0.72776 0.56652 0.0
C225 C 0.25235 0.84683 0.59644 0.0
C226 C 0.28865 0.86463 0.60203 0.0
C227 C 0.28657 0.84792 0.57579 0.0
C228 C 0.26858 0.83912 0.57303 0.0
C229 C 0.25406 0.86396 0.62247 0.0
C230 C 0.27208 0.87295 0.62521 0.0
C231 C 0.23455 0.83514 0.59402 0.0
H232 H 0.17478 0.67063 0.49537 0.0
H233 H 0.19865 0.70044 0.49938 0.0
H234 H 0.21829 0.67925 0.40451 0.0
H235 H 0.19487 0.64838 0.4004 0.0
H236 H 0.29886 0.84165 0.55734 0.0
H237 H 0.26748 0.82585 0.55276 0.0
H238 H 0.2417 0.86989 0.6408 0.0
H239 H 0.27335 0.88567 0.64574 0.0
Dy240 Dy 0.23452 0.54892 0.80147 0.0
Dy241 Dy 0.2242 0.5019 0.75049 0.0
C242 C 0.27386 0.48387 0.77511 0.0
O243 O 0.24221 0.56348 0.75503 0.0
O244 O 0.21958 0.54786 0.72543 0.0
O245 O 0.25287 0.57737 0.81421 0.0
O246 O 0.22719 0.57534 0.84475 0.0
O247 O 0.19058 0.53718 0.76819 0.0
O248 O 0.19979 0.5786 0.7859 0.0
O249 O 0.23312 0.47303 0.79385 0.0
O250 O 0.22269 0.51585 0.82806 0.0
O251 O 0.20913 0.46851 0.73928 0.0
O252 O 0.22919 0.48006 0.7053 0.0
C253 C 0.23146 0.5651 0.72941 0.0
O254 O 0.26562 0.50245 0.79943 0.0
O255 O 0.26144 0.48516 0.75128 0.0
C256 C 0.25811 0.58129 0.86698 0.0
C257 C 0.28905 0.57781 0.91268 0.0
C258 C 0.29344 0.55112 0.89252 0.0
C259 C 0.27807 0.55284 0.86987 0.0
C260 C 0.25316 0.60728 0.88787 0.0
C261 C 0.26846 0.60555 0.91058 0.0
C262 C 0.24315 0.58537 0.84101 0.0
C263 C 0.18487 0.56769 0.77759 0.0
C264 C 0.22745 0.48483 0.82169 0.0
C265 C 0.19911 0.46895 0.68774 0.0
C266 C 0.16548 0.47367 0.64596 0.0
C267 C 0.16286 0.50051 0.66509 0.0
C268 C 0.17955 0.49815 0.68584 0.0
C269 C 0.20213 0.44255 0.66814 0.0
C270 C 0.18547 0.44486 0.64739 0.0
C271 C 0.21607 0.46517 0.71084 0.0
H272 H 0.3092 0.52953 0.89325 0.0
H273 H 0.28215 0.53249 0.85393 0.0
H274 H 0.23776 0.62936 0.88603 0.0
H275 H 0.2644 0.62629 0.92604 0.0
H276 H 0.14756 0.52289 0.66482 0.0
H277 H 0.17699 0.51879 0.70087 0.0
H278 H 0.2172 0.41989 0.66927 0.0
H279 H 0.18813 0.42395 0.63271 0.0
Dy280 Dy 0.97228 0.50642 0.56016 0.0
Dy281 Dy -0.01868 0.54949 0.50427 0.0
C282 C -0.02079 0.48044 0.49081 0.0
O283 O 0.00618 0.50442 0.56856 0.0
O284 O 0.01514 0.51362 0.51957 0.0
O285 O -0.01886 0.46072 0.58486 0.0
O286 O 0.95291 0.50489 0.59984 0.0
O287 O -0.01514 0.57364 0.54742 0.0
O288 O 0.9632 0.55727 0.57887 0.0
O289 O 0.94396 0.56882 0.50893 0.0
O290 O 0.94159 0.52387 0.53188 0.0
O291 O 0.97751 0.59583 0.48412 0.0
O292 O -0.00372 0.54983 0.46015 0.0
C293 C 0.02095 0.50386 0.54778 0.0
O294 O -0.01585 0.47217 0.51959 0.0
O295 O 0.97343 0.51085 0.48157 0.0
C296 C 0.94928 0.45522 0.60452 0.0
C297 C 0.9179 0.42722 0.60863 0.0
C298 C 0.92227 0.43883 0.58042 0.0
C299 C 0.93783 0.45272 0.5784 0.0
C300 C 0.94546 0.44297 0.63252 0.0
C301 C 0.92989 0.429 0.63459 0.0
C302 C 0.96365 0.4731 0.60301 0.0
C303 C 0.97335 0.5767 0.57288 0.0
C304 C 0.93254 0.55147 0.51646 0.0
C305 C 0.01056 0.58978 0.45807 0.0
C306 C 0.04982 0.60023 0.45027 0.0
C307 C 0.04547 0.58789 0.47805 0.0
C308 C 0.02598 0.58277 0.48193 0.0
C309 C 0.0146 0.60251 0.43046 0.0
C310 C 0.03408 0.60787 0.42661 0.0
C311 C -0.00872 0.58135 0.4615 0.0
H312 H 0.91309 0.4383 0.56011 0.0
H313 H 0.94045 0.46241 0.55664 0.0
H314 H 0.95413 0.4449 0.65291 0.0
H315 H 0.92706 0.41994 0.65654 0.0
H316 H 0.0571 0.58226 0.49684 0.0
H317 H 0.02308 0.57286 0.5034 0.0
H318 H 0.00292 0.60774 0.41176 0.0
H319 H 0.03708 0.61723 0.40491 0.0
Dy320 Dy 0.22634 0.25269 0.99974 0.0
Dy321 Dy 0.22982 0.30095 0.05543 0.0
C322 C 0.18283 0.29824 0.03925 0.0
O323 O 0.23076 0.29392 0.97584 0.0
O324 O 0.22029 0.33331 1.01397 0.0
O325 O 0.21371 0.24584 0.9561 0.0
O326 O 0.23726 0.20375 0.9807 0.0
O327 O 0.26147 0.28585 0.02837 0.0
O328 O 0.2627 0.23724 1.00933 0.0
O329 O 0.2395 0.25033 0.07492 0.0
O330 O 0.22005 0.23125 0.04301 0.0
O331 O 0.24668 0.30483 0.09631 0.0
O332 O 0.21833 0.34744 0.07971 0.0
C333 C 0.22473 0.32452 0.98504 0.0
O334 O 0.1908 0.28425 1.01267 0.0
O335 O 0.19547 0.30281 0.06025 0.0
C336 C 0.20807 0.19736 0.95519 0.0
C337 C 0.17736 0.16848 0.94943 0.0
C338 C 0.17823 0.18473 0.97665 0.0
C339 C 0.19343 0.19907 0.97948 0.0
C340 C 0.20747 0.18099 0.92807 0.0
C341 C 0.19218 0.16664 0.92518 0.0
C342 C 0.22326 0.21377 0.95803 0.0
C343 C 0.27247 0.25702 1.0154 0.0
C344 C 0.23018 0.22993 0.06898 0.0
C345 C 0.24821 0.3559 0.10206 0.0
C346 C 0.27923 0.38424 0.10787 0.0
C347 C 0.27097 0.38142 0.07894 0.0
C348 C 0.25568 0.36714 0.07603 0.0
C349 C 0.25567 0.35993 0.13105 0.0
C350 C 0.2711 0.37397 0.13396 0.0
C351 C 0.2349 0.3365 0.09893 0.0
H352 H 0.16678 0.18709 0.99553 0.0
H353 H 0.19357 0.21192 1.00049 0.0
H354 H 0.21866 0.17958 0.90911 0.0
H355 H 0.19195 0.1541 0.90402 0.0
H356 H 0.27716 0.38876 0.05842 0.0
H357 H 0.25035 0.36374 0.05339 0.0
H358 H 0.25019 0.35112 0.15133 0.0
H359 H 0.27708 0.37609 0.15653 0.0
Dy360 Dy 0.23196 0.04909 0.3012 0.0
Dy361 Dy 0.22181 1.0028 0.24941 0.0
C362 C 0.27129 0.98418 0.27369 0.0
O363 O 0.22214 0.07893 0.25853 0.0
O364 O 0.23318 0.03681 0.22363 0.0
O365 O 0.24492 0.08519 0.31125 0.0
O366 O 0.22967 0.06781 0.34749 0.0
O367 O 0.1902 0.04861 0.25302 0.0
O368 O 0.19485 0.06527 0.3013 0.0
O369 O 0.2143 0.98681 0.29513 0.0
O370 O 0.23614 1.00298 0.32588 0.0
O371 O 0.20439 0.9732 0.23611 0.0
O372 O 0.2289 0.97818 0.20523 0.0
C373 C 0.22809 0.06779 0.23057 0.0
O374 O 0.26539 1.01501 0.28214 0.0
O375 O 0.25641 0.97305 0.26571 0.0
C376 C 0.25917 0.08265 0.36074 0.0
C377 C 0.29479 0.08104 0.39717 0.0
C378 C 0.29878 0.05868 0.37272 0.0
C379 C 0.2811 0.0594 0.35471 0.0
C380 C 0.25503 0.10447 0.38549 0.0
C381 C 0.27269 0.10362 0.40366 0.0
C382 C 0.2407 0.08554 0.34053 0.0
C383 C 0.18218 0.06671 0.27772 0.0
C384 C 0.22468 0.98523 0.32103 0.0
C385 C 0.1982 0.9712 0.18357 0.0
C386 C 0.16571 0.97575 0.13997 0.0
C387 C 0.1629 1.00299 0.15863 0.0
C388 C 0.17903 1.00072 0.18028 0.0
C389 C 0.20162 0.94458 0.16404 0.0
C390 C 0.18554 0.94682 0.14236 0.0
C391 C 0.21364 0.96675 0.20895 0.0
H392 H 0.3156 0.04069 0.36747 0.0
H393 H 0.28458 0.04222 0.33577 0.0
H394 H 0.23818 0.1226 0.39039 0.0
H395 H 0.26914 0.12125 0.42222 0.0
H396 H 0.14773 0.02551 0.15762 0.0
H397 H 0.17613 1.02151 0.19527 0.0
H398 H 0.21638 0.92163 0.16627 0.0
H399 H 0.18834 0.9256 0.12803 0.0
Dy400 Dy 0.47514 0.25766 0.80103 0.0
Dy401 Dy 0.48621 0.3037 0.75048 0.0
C402 C 0.43625 0.32206 0.77428 0.0
O403 O 0.48374 0.2283 0.75771 0.0
O404 O 0.4753 0.27039 0.72314 0.0
O405 O 0.462 0.22199 0.81259 0.0
O406 O 0.47807 0.23914 0.84737 0.0
O407 O 0.51668 0.25614 0.75086 0.0
O408 O 0.51229 0.24184 0.80009 0.0
O409 O 0.49421 0.31706 0.79694 0.0
O410 O 0.46901 0.30496 0.82501 0.0
O411 O 0.50579 0.33043 0.73723 0.0
O412 O 0.47809 0.3329 0.70912 0.0
C413 C 0.47891 0.23979 0.72978 0.0
O414 O 0.44196 0.29113 0.78197 0.0
O415 O 0.45138 0.3333 0.76744 0.0
C416 C 0.44803 0.22632 0.86298 0.0
C417 C 0.4125 0.23112 0.90233 0.0
C418 C 0.40836 0.25061 0.87584 0.0
C419 C 0.42601 0.24837 0.8564 0.0
C420 C 0.45232 0.2075 0.8898 0.0
C421 C 0.43468 0.20998 0.90945 0.0
C422 C 0.4665 0.22202 0.84161 0.0
C423 C 0.52478 0.23844 0.77546 0.0
C424 C 0.48186 0.32088 0.82177 0.0
C425 C 0.50869 0.33855 0.68465 0.0
C426 C 0.53939 0.33419 0.63747 0.0
C427 C 0.53816 0.30549 0.64913 0.0
C428 C 0.52294 0.30766 0.67269 0.0
C429 C 0.50908 0.36723 0.67204 0.0
C430 C 0.5243 0.36511 0.64862 0.0
C431 C 0.49483 0.34134 0.71197 0.0
H432 H 0.39144 0.26743 0.87007 0.0
H433 H 0.4224 0.2634 0.83595 0.0
H434 H 0.46926 0.19045 0.89523 0.0
H435 H 0.43828 0.19462 0.92966 0.0
H436 H 0.54973 0.28134 0.64117 0.0
H437 H 0.52287 0.28527 0.68235 0.0
H438 H 0.49815 0.39126 0.68107 0.0
H439 H 0.52474 0.38761 0.63984 0.0
Dy440 Dy 0.97415 0.75193 0.80814 0.0
Dy441 Dy -0.01532 0.79909 0.75799 0.0
C442 C 0.93498 0.81718 0.78244 0.0
O443 O -0.01729 0.72344 0.76433 0.0
O444 O 0.97352 0.76619 0.73039 0.0
O445 O 0.95954 0.71777 0.81941 0.0
O446 O -0.02086 0.72981 0.853 0.0
O447 O 0.01527 0.75179 0.7576 0.0
O448 O 0.01134 0.7363 0.80657 0.0
O449 O -0.0073 0.81197 0.80462 0.0
O450 O 0.96856 0.79823 0.83356 0.0
O451 O 0.00398 0.82658 0.74564 0.0
O452 O 0.9768 0.82845 0.71675 0.0
C453 C 0.97745 0.73538 0.73661 0.0
O454 O 0.94071 0.78621 0.7901 0.0
O455 O 0.95005 0.82846 0.77549 0.0
C456 C 0.94958 0.71699 0.87108 0.0
C457 C 0.91555 0.72116 0.91303 0.0
C458 C 0.91792 0.74982 0.90365 0.0
C459 C 0.93476 0.74776 0.88268 0.0
C460 C 0.94766 0.68834 0.88101 0.0
C461 C 0.93077 0.69038 0.90179 0.0
C462 C 0.96643 0.71431 0.8476 0.0
C463 C 0.02365 0.73375 0.7819 0.0
C464 C -0.01904 0.81483 0.82991 0.0
C465 C 0.00765 0.83456 0.69324 0.0
C466 C 0.03907 0.82807 0.64624 0.0
C467 C 0.03194 0.80268 0.65183 0.0
C468 C 0.01644 0.80583 0.67529 0.0
C469 C 0.014 0.86038 0.68702 0.0
C470 C 0.02958 0.85719 0.66379 0.0
C471 C -0.00663 0.83721 0.72011 0.0
H472 H 0.90626 0.7739 0.91167 0.0
H473 H 0.93596 0.77017 0.87505 0.0
H474 H 0.95899 0.6644 0.87223 0.0
H475 H 0.92946 0.66789 0.90883 0.0
H476 H 0.03867 0.78011 0.6385 0.0
H477 H 0.01176 0.78557 0.67991 0.0
H478 H 0.00749 0.88262 0.70087 0.0
H479 H 0.03491 0.87702 0.66058 0.0
Dy480 Dy 0.73255 0.54875 0.30105 0.0
Dy481 Dy 0.72186 0.5026 0.25007 0.0
C482 C 0.77154 0.48395 0.2733 0.0
O483 O 0.72275 0.57864 0.25846 0.0
O484 O 0.733 0.53653 0.22355 0.0
O485 O 0.74664 0.58345 0.31167 0.0
O486 O 0.72944 0.56828 0.34708 0.0
O487 O 0.69079 0.54904 0.25287 0.0
O488 O 0.69535 0.56469 0.30147 0.0
O489 O 0.71365 0.48894 0.29655 0.0
O490 O 0.73818 0.50161 0.32483 0.0
O491 O 0.70434 0.47267 0.23832 0.0
O492 O 0.72794 0.47787 0.20595 0.0
C493 C 0.72821 0.56748 0.23042 0.0
O494 O 0.76573 0.51495 0.28103 0.0
O495 O 0.75657 0.47275 0.26597 0.0
C496 C 0.75936 0.58132 0.36201 0.0
C497 C 0.79433 0.57728 0.40112 0.0
C498 C 0.79772 0.55259 0.37902 0.0
C499 C 0.78037 0.55458 0.35965 0.0
C500 C 0.75575 0.60568 0.38425 0.0
C501 C 0.77307 0.60369 0.40368 0.0
C502 C 0.74138 0.58484 0.34068 0.0
C503 C 0.68269 0.56683 0.27768 0.0
C504 C 0.72563 0.48531 0.3213 0.0
C505 C 0.69646 0.47154 0.18619 0.0
C506 C 0.66339 0.47746 0.14293 0.0
C507 C 0.65994 0.50293 0.16419 0.0
C508 C 0.67635 0.50003 0.18556 0.0
C509 C 0.70035 0.4466 0.16446 0.0
C510 C 0.68399 0.44954 0.14294 0.0
C511 C 0.71272 0.46653 0.21066 0.0
H512 H 0.81395 0.53213 0.37617 0.0
H513 H 0.78344 0.53557 0.3425 0.0
H514 H 0.73959 0.62645 0.38638 0.0
H515 H 0.76979 0.62283 0.42073 0.0
H516 H 0.64421 0.52459 0.16515 0.0
H517 H 0.67306 0.51955 0.20223 0.0
H518 H 0.71583 0.42447 0.16459 0.0
H519 H 0.68736 0.42973 0.12659 0.0
Dy520 Dy 0.72617 0.74974 0.99747 0.0
Dy521 Dy 0.72466 0.80234 0.05148 0.0
C522 C 0.68006 0.79441 0.03304 0.0
O523 O 0.73173 0.79023 0.97372 0.0
O524 O 0.71399 0.8317 1.00832 0.0
O525 O 0.71623 0.74051 0.95278 0.0
O526 O 0.73892 0.69997 0.97993 0.0
O527 O 0.75742 0.78752 0.02711 0.0
O528 O 0.76162 0.73641 1.01124 0.0
O529 O 0.73462 0.753 0.07396 0.0
O530 O 0.71907 0.729 0.04062 0.0
O531 O 0.73817 0.81066 0.09378 0.0
O532 O 0.7119 0.85134 0.07121 0.0
C533 C 0.7223 0.8217 0.98079 0.0
O534 O 0.68969 0.77953 1.00739 0.0
O535 O 0.69109 0.8014 0.0548 0.0
C536 C 0.71089 0.69187 0.95305 0.0
C537 C 0.67955 0.66423 0.94657 0.0
C538 C 0.68044 0.68032 0.97387 0.0
C539 C 0.69595 0.69401 0.97705 0.0
C540 C 0.71036 0.67555 0.92587 0.0
C541 C 0.69475 0.66179 0.92262 0.0
C542 C 0.72589 0.70858 0.95615 0.0
C543 C 0.77009 0.75784 1.01706 0.0
C544 C 0.72729 0.73035 0.06753 0.0
C545 C 0.74166 0.86043 0.09256 0.0
C546 C 0.7759 0.88287 0.09482 0.0
C547 C 0.77048 0.87242 0.06695 0.0
C548 C 0.75348 0.86134 0.06582 0.0
C549 C 0.74621 0.87236 0.12015 0.0
C550 C 0.76317 0.88377 0.12125 0.0
C551 C 0.72725 0.84256 0.09222 0.0
H552 H 0.66869 0.68324 0.9925 0.0
H553 H 0.69597 0.70692 0.99807 0.0
H554 H 0.72173 0.67391 0.90708 0.0
H555 H 0.69449 0.6494 0.90139 0.0
H556 H 0.77989 0.87184 0.0462 0.0
H557 H 0.75026 0.85202 0.04433 0.0
H558 H 0.7374 0.87144 0.14103 0.0
H559 H 0.76713 0.89157 0.14303 0.0
Dy560 Dy 0.47239 1.0115 0.55379 0.0
Dy561 Dy 0.48245 0.05388 0.49802 0.0
C562 C 0.48014 0.98487 0.48436 0.0
O563 O 0.50659 1.00836 0.56236 0.0
O564 O 0.51596 1.01739 0.5135 0.0
O565 O 0.48079 0.96626 0.57909 0.0
O566 O 0.45228 1.0107 0.59291 0.0
O567 O 0.48636 0.0773 0.54141 0.0
O568 O 0.46366 0.06234 0.57221 0.0
O569 O 0.44507 0.07388 0.50228 0.0
O570 O 0.44207 0.02918 0.52479 0.0
O571 O 0.47932 0.10014 0.47838 0.0
O572 O 0.49752 0.05425 0.45398 0.0
C573 C 0.52156 1.00741 0.54171 0.0
O574 O 0.48385 0.97699 0.51344 0.0
O575 O 0.47512 1.01501 0.47481 0.0
C576 C 0.44869 0.961 0.59817 0.0
C577 C 0.41766 0.93235 0.60221 0.0
C578 C 0.422 0.94398 0.57399 0.0
C579 C 0.43739 0.9582 0.572 0.0
C580 C 0.44489 0.94876 0.62618 0.0
C581 C 0.4295 0.93447 0.62821 0.0
C582 C 0.46301 0.97899 0.59669 0.0
C583 C 0.47443 0.081 0.56657 0.0
C584 C 0.43336 0.05686 0.50945 0.0
C585 C 0.51266 0.0932 0.45262 0.0
C586 C 0.55272 0.10154 0.44538 0.0
C587 C 0.54779 0.08982 0.47314 0.0
C588 C 0.52791 0.08574 0.47673 0.0
C589 C 0.51726 0.10537 0.42505 0.0
C590 C 0.53715 0.10968 0.42147 0.0
C591 C 0.49302 0.08559 0.45571 0.0
H592 H 0.41295 0.94317 0.55364 0.0
H593 H 0.44002 0.96785 0.55022 0.0
H594 H 0.45346 0.95088 0.64659 0.0
H595 H 0.42671 0.92538 0.65017 0.0
H596 H 0.55929 0.08382 0.49211 0.0
H597 H 0.52458 0.07621 0.49817 0.0
H598 H 0.50572 0.11092 0.40615 0.0
H599 H 0.5406 0.11859 0.39979 0.0
Dy600 Dy 0.47248 0.5102 0.05332 0.0
Dy601 Dy 0.47891 0.5566 0.99817 0.0
C602 C 0.47918 0.48553 0.984 0.0
O603 O 0.5096 0.49186 0.04625 0.0
O604 O 0.51091 0.5377 1.02367 0.0
O605 O 0.47936 0.4629 0.0738 0.0
O606 O 0.45753 0.50801 0.09709 0.0
O607 O 0.46706 0.58884 0.04005 0.0
O608 O 0.48056 0.54857 0.07628 0.0
O609 O 0.44484 0.55886 0.991 0.0
O610 O 0.43783 0.54438 0.03925 0.0
O611 O 0.47207 0.60434 0.97835 0.0
O612 O 0.494 0.55978 0.95488 0.0
C613 C 0.52065 0.50947 0.03791 0.0
O614 O 0.46869 0.48665 1.01003 0.0
O615 O 0.48825 0.5063 0.97795 0.0
C616 C 0.44741 0.46321 0.1004 0.0
C617 C 0.41132 0.44463 0.10675 0.0
C618 C 0.42628 0.43323 0.08176 0.0
C619 C 0.44409 0.44257 0.07849 0.0
C620 C 0.43286 0.47378 0.12585 0.0
C621 C 0.41489 0.46474 0.12892 0.0
C622 C 0.46475 0.47597 0.09594 0.0
C623 C 0.47351 0.57954 0.0682 0.0
C624 C 0.43106 0.55631 1.01184 0.0
C625 C 0.50441 0.60368 0.95371 0.0
C626 C 0.5429 0.61623 0.94685 0.0
C627 C 0.53732 0.60696 0.97543 0.0
C628 C 0.51822 0.60079 0.97884 0.0
C629 C 0.50941 0.61406 0.9254 0.0
C630 C 0.52849 0.62053 0.92202 0.0
C631 C 0.48672 0.59172 0.95626 0.0
H632 H 0.42377 0.41793 0.06421 0.0
H633 H 0.45489 0.43426 0.05845 0.0
H634 H 0.43509 0.48972 0.143 0.0
H635 H 0.4037 0.4736 0.14854 0.0
H636 H 0.54796 0.60394 0.99505 0.0
H637 H 0.51465 0.59266 1.00084 0.0
H638 H 0.49903 0.61601 0.90571 0.0
H639 H 0.53248 0.62754 0.89973 0.0
H640 H -0.01587 0.12931 0.06502 0.0
H641 H 0.96058 0.08027 0.13317 0.0
H642 H -0.01632 0.16934 0.10329 0.0
H643 H 0.96106 0.11931 0.17175 0.0
H644 H 0.94458 0.21104 0.22925 0.0
H645 H 0.94326 0.17362 0.18953 0.0
H646 H 0.00221 0.1765 0.14641 0.0
H647 H 0.00288 0.21508 0.18544 0.0
C648 C -0.02104 0.12696 0.08822 0.0
C649 C 0.97231 0.10161 0.09595 0.0
C650 C -0.02115 0.14983 0.1103 0.0
C651 C 0.97237 0.14773 0.14082 0.0
C652 C 0.96575 0.12227 0.14846 0.0
C653 C 0.9656 0.09967 0.1263 0.0
C654 C 0.95721 0.20379 0.21122 0.0
C655 C 0.97383 0.21612 0.21057 0.0
C656 C 0.95657 0.18207 0.18848 0.0
C657 C 0.97269 0.17171 0.16463 0.0
C658 C -0.01073 0.18422 0.164 0.0
C659 C -0.01026 0.20626 0.18655 0.0
H660 H 0.8022 0.27423 0.54594 0.0
H661 H 0.8014 0.2117 0.47074 0.0
H662 H 0.84057 0.26548 0.53171 0.0
H663 H 0.83935 0.20314 0.4566 0.0
H664 H 0.91055 0.17709 0.4428 0.0
H665 H 0.87854 0.17874 0.47258 0.0
H666 H 0.85691 0.28341 0.48688 0.0
H667 H 0.8896 0.28159 0.45812 0.0
C668 C 0.81033 0.25819 0.52675 0.0
C669 C 0.79875 0.24384 0.50929 0.0
C670 C 0.83223 0.25332 0.51854 0.0
C671 C 0.84299 0.23359 0.49307 0.0
C672 C 0.83169 0.21808 0.47661 0.0
C673 C 0.80983 0.22324 0.48455 0.0
C674 C 0.89948 0.20029 0.45315 0.0
C675 C 0.9025 0.22933 0.44764 0.0
C676 C 0.88097 0.20126 0.46998 0.0
C677 C 0.86499 0.23129 0.48156 0.0
C678 C 0.86893 0.25987 0.47824 0.0
C679 C 0.88752 0.25889 0.46144 0.0
H680 H 0.71492 0.07105 0.67027 0.0
H681 H 0.75098 0.10757 0.73147 0.0
H682 H 0.7156 0.10979 0.63115 0.0
H683 H 0.75175 0.14614 0.69219 0.0
H684 H 0.72406 0.23629 0.62833 0.0
H685 H 0.72476 0.19622 0.66681 0.0
H686 H 0.74213 0.12096 0.59685 0.0
H687 H 0.74128 0.16114 0.55816 0.0
C688 C 0.72309 0.08722 0.67537 0.0
C689 C 0.73288 0.08619 0.70409 0.0
C690 C 0.72358 0.1093 0.65284 0.0
C691 C 0.7337 0.13109 0.65854 0.0
C692 C 0.74361 0.12993 0.68718 0.0
C693 C 0.74328 0.10766 0.70964 0.0
C694 C 0.72806 0.2112 0.62108 0.0
C695 C 0.73263 0.20196 0.5901 0.0
C696 C 0.7286 0.18817 0.64322 0.0
C697 C 0.73355 0.15537 0.63494 0.0
C698 C 0.73809 0.1461 0.60396 0.0
C699 C 0.73773 0.1691 0.58181 0.0
H700 H 0.90038 0.02987 0.03321 0.0
H701 H 0.91093 0.09813 0.97129 0.0
H702 H 0.86545 0.03898 1.0075 0.0
H703 H 0.87596 0.10715 0.94566 0.0
H704 H 0.83563 0.06811 0.88212 0.0
H705 H 0.86666 0.06768 0.91269 0.0
H706 H 0.82629 0.08236 0.99487 0.0
H707 H 0.79508 0.08265 0.96412 0.0
C708 C 0.89506 0.04726 1.01448 0.0
C709 C 0.90854 0.06305 1.0041 0.0
C710 C 0.875 0.05257 0.99987 0.0
C711 C 0.86816 0.07349 0.97441 0.0
C712 C 0.88102 0.09058 0.96503 0.0
C713 C 0.90096 0.08557 0.97985 0.0
C714 C 0.8334 0.07113 0.90672 0.0
C715 C 0.81302 0.07518 0.92079 0.0
C716 C 0.85105 0.0713 0.92416 0.0
C717 C 0.8488 0.07523 0.9561 0.0
C718 C 0.82843 0.07928 0.97027 0.0
C719 C 0.81061 0.07954 0.95272 0.0
H720 H 0.04052 0.97183 0.09802 0.0
H721 H 0.05255 1.01695 1.01606 0.0
H722 H 0.0777 0.96207 0.1161 0.0
H723 H 0.08996 1.00696 0.03424 0.0
H724 H 0.13816 0.02613 0.10352 0.0
H725 H 0.10463 0.02954 0.07696 0.0
H726 H 0.11792 0.93029 0.10527 0.0
H727 H 0.15094 0.9272 0.13251 0.0
C728 C 0.05121 0.97928 0.08365 0.0
C729 C 0.04351 0.99529 0.05567 0.0
C730 C 0.07259 0.9735 0.09394 0.0
C731 C 0.08675 0.98378 0.0766 0.0
C732 C 0.07934 0.99899 0.04819 0.0
C733 C 0.05797 1.00451 0.03772 0.0
C734 C 0.13399 1.00498 0.10386 0.0
C735 C 0.14713 0.9765 0.12032 0.0
C736 C 0.11493 1.0068 0.0884 0.0
C737 C 0.10856 0.98025 0.08924 0.0
C738 C 0.12227 0.95127 0.10451 0.0
C739 C 0.14133 0.9494 0.11985 0.0
H740 H -0.00238 0.41272 0.49597 0.0
H741 H 0.96071 0.49184 0.43416 0.0
H742 H -0.0015 0.37247 0.45726 0.0
H743 H 0.96078 0.45212 0.39627 0.0
H744 H -0.01627 0.37621 0.3214 0.0
H745 H -0.01543 0.41362 0.36124 0.0
H746 H 0.97716 0.34897 0.4302 0.0
H747 H 0.97725 0.31069 0.39005 0.0
C748 C -0.01043 0.42153 0.47424 0.0
C749 C -0.02066 0.45552 0.46808 0.0
C750 C -0.01005 0.39847 0.45207 0.0
C751 C -0.02007 0.40889 0.42334 0.0
C752 C 0.96924 0.44296 0.41767 0.0
C753 C 0.96908 0.46587 0.43959 0.0
C754 C -0.01769 0.36988 0.34505 0.0
C755 C -0.0197 0.34049 0.35247 0.0
C756 C -0.01736 0.39152 0.368 0.0
C757 C -0.01935 0.38469 0.39912 0.0
C758 C -0.02105 0.355 0.40658 0.0
C759 C -0.02112 0.33309 0.38353 0.0
H760 H 0.652 0.35315 0.54427 0.0
H761 H 0.66367 0.25049 0.53765 0.0
H762 H 0.61418 0.36652 0.56366 0.0
H763 H 0.62639 0.26347 0.55834 0.0
H764 H 0.55434 0.2957 0.58593 0.0
H765 H 0.58698 0.28856 0.55399 0.0
H766 H 0.59911 0.35906 0.61062 0.0
H767 H 0.56634 0.36677 0.64157 0.0
C768 C 0.64644 0.33347 0.54682 0.0
C769 C 0.6609 0.30074 0.53979 0.0
C770 C 0.6248 0.34108 0.55809 0.0
C771 C 0.61728 0.31603 0.56307 0.0
C772 C 0.63142 0.28351 0.55455 0.0
C773 C 0.65293 0.276 0.54285 0.0
C774 C 0.5639 0.30989 0.59119 0.0
C775 C 0.5578 0.3318 0.61618 0.0
C776 C 0.58263 0.30576 0.573 0.0
C777 C 0.59578 0.32316 0.57971 0.0
C778 C 0.58919 0.34574 0.60425 0.0
C779 C 0.5704 0.3501 0.62214 0.0
H780 H 0.72296 0.92411 0.81141 0.0
H781 H 0.72353 0.99216 0.8815 0.0
H782 H 0.72124 0.88642 0.85051 0.0
H783 H 0.7226 0.95373 0.92092 0.0
H784 H 0.70061 0.88928 0.98378 0.0
H785 H 0.70034 0.92916 0.94517 0.0
H786 H 0.74403 0.84934 0.88719 0.0
H787 H 0.74363 0.80971 0.9251 0.0
C788 C 0.72285 0.93099 0.83522 0.0
C789 C 0.72348 0.96116 0.84327 0.0
C790 C 0.72201 0.90919 0.85773 0.0
C791 C 0.72201 0.91674 0.88901 0.0
C792 C 0.72234 0.94717 0.8971 0.0
C793 C 0.72298 0.96918 0.87449 0.0
C794 C 0.71007 0.88027 0.96271 0.0
C795 C 0.72198 0.84623 0.95748 0.0
C796 C 0.71005 0.90318 0.94063 0.0
C797 C 0.72207 0.8926 0.91287 0.0
C798 C 0.73416 0.85852 0.90791 0.0
C799 C 0.73404 0.83569 0.92981 0.0
H800 H 0.15594 0.34597 0.07835 0.0
H801 H 0.15675 0.26792 1.01896 0.0
H802 H 0.11883 0.35421 0.09745 0.0
H803 H 0.11962 0.27587 0.03857 0.0
H804 H 0.04594 0.37527 0.11167 0.0
H805 H 0.07797 0.37068 0.07978 0.0
H806 H 0.10812 0.26545 0.09385 0.0
H807 H 0.07659 0.26995 0.12665 0.0
C808 C 0.148 0.33096 0.06904 0.0
C809 C 0.1592 0.30628 0.04727 0.0
C810 C 0.12673 0.33579 0.07983 0.0
C811 C 0.11643 0.31562 0.06948 0.0
C812 C 0.12726 0.29168 0.04691 0.0
C813 C 0.1484 0.28728 0.03561 0.0
C814 C 0.05935 0.35111 0.10793 0.0
C815 C 0.05885 0.32306 0.12222 0.0
C816 C 0.07758 0.34851 0.0895 0.0
C817 C 0.09551 0.31776 0.08455 0.0
C818 C 0.09438 0.28942 0.09709 0.0
C819 C 0.07628 0.29204 0.11586 0.0
H820 H 0.69717 0.45455 0.32649 0.0
H821 H 0.75363 0.46243 0.37013 0.0
H822 H 0.69708 0.41521 0.36519 0.0
H823 H 0.75412 0.42216 0.40819 0.0
H824 H 0.73614 0.37315 0.48905 0.0
H825 H 0.73493 0.41396 0.45122 0.0
H826 H 0.71699 0.36035 0.38175 0.0
H827 H 0.71737 0.3202 0.41993 0.0
C828 C 0.70964 0.44778 0.34427 0.0
C829 C 0.72536 0.46174 0.34521 0.0
C830 C 0.7097 0.42498 0.3664 0.0
C831 C 0.72563 0.41529 0.38991 0.0
C832 C 0.74135 0.42935 0.39081 0.0
C833 C 0.74114 0.45238 0.36884 0.0
C834 C 0.73189 0.37008 0.46572 0.0
C835 C 0.72682 0.34338 0.45757 0.0
C836 C 0.73134 0.39343 0.44391 0.0
C837 C 0.72592 0.39056 0.41327 0.0
C838 C 0.72088 0.36378 0.40516 0.0
C839 C 0.72122 0.34058 0.42706 0.0
H840 H 0.54099 0.97395 0.59325 0.0
H841 H 0.55503 1.0188 0.51252 0.0
H842 H 0.57799 0.96313 0.61269 0.0
H843 H 0.59227 1.00786 0.53214 0.0
H844 H 0.63948 0.02554 0.60442 0.0
H845 H 0.60627 0.02991 0.5764 0.0
H846 H 0.61838 0.93052 0.60277 0.0
H847 H 0.65111 0.92644 0.63141 0.0
C848 C 0.55209 0.98113 0.57944 0.0
C849 C 0.54501 0.99741 0.55143 0.0
C850 C 0.57337 0.97473 0.59052 0.0
C851 C 0.58803 0.98469 0.57396 0.0
C852 C 0.58125 1.00013 0.54548 0.0
C853 C 0.55998 1.00621 0.53419 0.0
C854 C 0.6351 1.00458 0.60406 0.0
C855 C 0.64783 0.97575 0.62034 0.0
C856 C 0.61625 1.00695 0.58774 0.0
C857 C 0.60967 0.98062 0.58756 0.0
C858 C 0.62293 0.95133 0.60276 0.0
C859 C 0.6418 0.94891 0.61894 0.0
H860 H -0.01558 0.91738 1.00012 0.0
H861 H 0.97439 0.98799 0.92758 0.0
H862 H -0.01449 0.87622 0.96229 0.0
H863 H 0.97522 0.94714 0.89008 0.0
H864 H 0.00193 0.85673 0.82819 0.0
H865 H 0.0019 0.89565 0.86731 0.0
H866 H 0.96079 0.86456 0.92609 0.0
H867 H 0.961 0.82518 0.88697 0.0
C868 C -0.01752 0.92414 0.97616 0.0
C869 C -0.02058 0.95601 0.96694 0.0
C870 C -0.01705 0.90061 0.9545 0.0
C871 C -0.01946 0.90831 0.92311 0.0
C872 C 0.97746 0.94018 0.91398 0.0
C873 C 0.97686 0.9637 0.93558 0.0
C874 C -0.00705 0.85801 0.84947 0.0
C875 C -0.01857 0.83779 0.85433 0.0
C876 C -0.00718 0.88053 0.87187 0.0
C877 C -0.01875 0.88339 0.89981 0.0
C878 C 0.97003 0.8628 0.90494 0.0
C879 C 0.97006 0.84034 0.88242 0.0
H880 H 0.08959 0.06545 0.9665 0.0
H881 H 0.05039 0.15898 0.92395 0.0
H882 H 0.12278 0.07721 0.96329 0.0
H883 H 0.08355 0.17083 0.92086 0.0
H884 H 0.15076 0.17303 0.9003 0.0
H885 H 0.12063 0.15431 0.89696 0.0
H886 H 0.13507 0.11535 0.98869 0.0
H887 H 0.1656 0.13297 0.99157 0.0
C888 C 0.08808 0.08854 0.95648 0.0
C889 C 0.06735 0.11144 0.94573 0.0
C890 C 0.10708 0.09524 0.95461 0.0
C891 C 0.10576 0.12502 0.94198 0.0
C892 C 0.08518 0.14747 0.93035 0.0
C893 C 0.06617 0.14073 0.93218 0.0
C894 C 0.14776 0.15987 0.91948 0.0
C895 C 0.16044 0.15462 0.94626 0.0
C896 C 0.13037 0.14948 0.9177 0.0
C897 C 0.12538 0.13355 0.94263 0.0
C898 C 0.1386 0.1273 0.96898 0.0
C899 C 0.15593 0.13771 0.97077 0.0
H900 H 0.65156 0.57934 0.23264 0.0
H901 H 0.66014 0.60949 0.32395 0.0
H902 H 0.613 0.62074 0.23286 0.0
H903 H 0.62169 0.65122 0.32386 0.0
H904 H 0.55397 0.72244 0.23123 0.0
H905 H 0.59254 0.68089 0.23159 0.0
H906 H 0.58324 0.65592 0.32479 0.0
H907 H 0.54487 0.69774 0.3247 0.0
C908 C 0.64524 0.59474 0.25278 0.0
C909 C 0.65897 0.59105 0.27829 0.0
C910 C 0.62318 0.61865 0.25279 0.0
C911 C 0.61431 0.63938 0.27831 0.0
C912 C 0.62795 0.63543 0.30395 0.0
C913 C 0.65003 0.61155 0.30394 0.0
C914 C 0.56016 0.70819 0.25184 0.0
C915 C 0.54631 0.71347 0.27793 0.0
C916 C 0.58223 0.68421 0.25197 0.0
C917 C 0.59093 0.66504 0.2782 0.0
C918 C 0.57713 0.67052 0.30434 0.0
C919 C 0.55508 0.69443 0.30421 0.0
H920 H 0.289 0.92276 0.62159 0.0
H921 H 0.33248 0.82525 0.58933 0.0
H922 H 0.32106 0.93732 0.62366 0.0
H923 H 0.36455 0.83962 0.59166 0.0
H924 H 0.40917 0.89184 0.56211 0.0
H925 H 0.37834 0.8747 0.56399 0.0
H926 H 0.35585 0.92602 0.65022 0.0
H927 H 0.38614 0.94437 0.64766 0.0
C928 C 0.30546 0.90432 0.61536 0.0
C929 C 0.30822 0.87298 0.60508 0.0
C930 C 0.32383 0.91261 0.61659 0.0
C931 C 0.34534 0.88966 0.60767 0.0
C932 C 0.34814 0.85804 0.59814 0.0
C933 C 0.32979 0.84981 0.59682 0.0
C934 C 0.39762 0.89952 0.58143 0.0
C935 C 0.40005 0.91957 0.60466 0.0
C936 C 0.38009 0.8894 0.58269 0.0
C937 C 0.36461 0.89905 0.60725 0.0
C938 C 0.36734 0.91849 0.63083 0.0
C939 C 0.38487 0.92865 0.62955 0.0
H940 H 0.05063 0.70795 0.73173 0.0
H941 H 0.04998 0.7039 0.83061 0.0
H942 H 0.0894 0.66644 0.7308 0.0
H943 H 0.08877 0.66275 0.82955 0.0
H944 H 0.16572 0.62379 0.81164 0.0
H945 H 0.12657 0.66333 0.81262 0.0
H946 H 0.11072 0.60441 0.74647 0.0
H947 H 0.15003 0.56436 0.74567 0.0
C948 C 0.05878 0.69834 0.75325 0.0
C949 C 0.04727 0.70928 0.78126 0.0
C950 C 0.08088 0.67441 0.75267 0.0
C951 C 0.09201 0.6614 0.78009 0.0
C952 C 0.08058 0.6725 0.80808 0.0
C953 C 0.05838 0.69599 0.80866 0.0
C954 C 0.15391 0.61917 0.79734 0.0
C955 C 0.16095 0.59096 0.77857 0.0
C956 C 0.13149 0.64174 0.79804 0.0
C957 C 0.11567 0.6369 0.77962 0.0
C958 C 0.12265 0.60876 0.76077 0.0
C959 C 0.14507 0.5858 0.76046 0.0
H960 H 0.83012 0.3247 0.59283 0.0
H961 H 0.78786 0.42235 0.62602 0.0
H962 H 0.8629 0.33715 0.5969 0.0
H963 H 0.82064 0.43509 0.6297 0.0
H964 H 0.88638 0.43963 0.65417 0.0
H965 H 0.85553 0.42241 0.65642 0.0
H966 H 0.87759 0.37136 0.56998 0.0
H967 H 0.90894 0.3873 0.56843 0.0
C968 C 0.82787 0.34887 0.60096 0.0
C969 C 0.80644 0.37269 0.60884 0.0
C970 C 0.84662 0.35601 0.60325 0.0
C971 C 0.84436 0.38719 0.61336 0.0
C972 C 0.82299 0.4107 0.62215 0.0
C973 C 0.80421 0.40347 0.61999 0.0
C974 C 0.88489 0.42416 0.63597 0.0
C975 C 0.90008 0.41486 0.61109 0.0
C976 C 0.86705 0.41466 0.63707 0.0
C977 C 0.86403 0.39566 0.61332 0.0
C978 C 0.87955 0.38571 0.58882 0.0
C979 C 0.89739 0.39516 0.58775 0.0
H980 H 0.28969 0.91913 0.25702 0.0
H981 H 0.30728 0.99644 0.29108 0.0
H982 H 0.32895 0.88065 0.25791 0.0
H983 H 0.34659 0.95763 0.29243 0.0
H984 H 0.41679 0.88785 0.25793 0.0
H985 H 0.37756 0.92666 0.25752 0.0
H986 H 0.35847 0.8517 0.29432 0.0
H987 H 0.3977 0.8126 0.2943 0.0
C988 C 0.30191 0.92797 0.26478 0.0
C989 C 0.29529 0.96097 0.27393 0.0
C990 C 0.32442 0.90577 0.26547 0.0
C991 C 0.34091 0.91601 0.27532 0.0
C992 C 0.33433 0.94904 0.28439 0.0
C993 C 0.31177 0.97128 0.28373 0.0
C994 C 0.40425 0.87956 0.26596 0.0
C995 C 0.41043 0.847 0.27606 0.0
C996 C 0.38175 0.90194 0.26588 0.0
C997 C 0.36487 0.89231 0.27588 0.0
C998 C 0.37104 0.85979 0.28609 0.0
C999 C 0.39356 0.83738 0.28619 0.0
H1000 H 0.29433 0.4304 0.73753 0.0
H1001 H 0.30719 0.48332 0.81248 0.0
H1002 H 0.33351 0.39058 0.73794 0.0
H1003 H 0.34636 0.44359 0.81262 0.0
H1004 H 0.419 0.38923 0.77454 0.0
H1005 H 0.37967 0.42793 0.77509 0.0
H1006 H 0.35988 0.34665 0.77516 0.0
H1007 H 0.39937 0.30764 0.77489 0.0
C1008 C 0.30552 0.43363 0.754 0.0
C1009 C 0.29767 0.46009 0.77491 0.0
C1010 C 0.32788 0.41068 0.75436 0.0
C1011 C 0.34292 0.41403 0.77532 0.0
C1012 C 0.33513 0.44057 0.7961 0.0
C1013 C 0.3127 0.46323 0.79607 0.0
C1014 C 0.4063 0.37952 0.77464 0.0
C1015 C 0.41231 0.34533 0.77458 0.0
C1016 C 0.38378 0.40173 0.77514 0.0
C1017 C 0.36677 0.39026 0.77517 0.0
C1018 C 0.37271 0.35611 0.77494 0.0
C1019 C 0.39528 0.33382 0.77491 0.0
H1020 H 0.15835 0.75712 0.52846 0.0
H1021 H 0.15305 0.84896 0.56845 0.0
H1022 H 0.12173 0.76638 0.54973 0.0
H1023 H 0.1163 0.85804 0.58982 0.0
H1024 H 0.07688 0.77186 0.63543 0.0
H1025 H 0.10926 0.76554 0.60396 0.0
H1026 H 0.07653 0.86743 0.57652 0.0
H1027 H 0.04365 0.8737 0.60745 0.0
C1028 C 0.1493 0.7795 0.54147 0.0
C1029 C 0.15879 0.80214 0.54705 0.0
C1030 C 0.12832 0.78471 0.55372 0.0
C1031 C 0.11627 0.81276 0.57164 0.0
C1032 C 0.12517 0.83628 0.57592 0.0
C1033 C 0.14627 0.83098 0.56381 0.0
C1034 C 0.07623 0.79273 0.62206 0.0
C1035 C 0.05763 0.82335 0.62414 0.0
C1036 C 0.09487 0.78911 0.60409 0.0
C1037 C 0.09546 0.81606 0.58793 0.0
C1038 C 0.07662 0.84637 0.58907 0.0
C1039 C 0.05784 0.84993 0.60684 0.0
H1040 H 0.21338 0.93298 0.31446 0.0
H1041 H 0.23368 0.98563 0.38206 0.0
H1042 H 0.21257 0.89446 0.35345 0.0
H1043 H 0.23179 0.94814 0.42152 0.0
H1044 H 0.24946 0.85617 0.47911 0.0
H1045 H 0.24989 0.89484 0.44017 0.0
H1046 H 0.19361 0.88657 0.39609 0.0
H1047 H 0.19401 0.84644 0.43443 0.0
C1048 C 0.21741 0.93657 0.33777 0.0
C1049 C 0.22365 0.96235 0.34511 0.0
C1050 C 0.2168 0.91455 0.36027 0.0
C1051 C 0.22208 0.91799 0.39086 0.0
C1052 C 0.22804 0.94415 0.3982 0.0
C1053 C 0.22899 0.96585 0.37558 0.0
C1054 C 0.2371 0.8627 0.46118 0.0
C1055 C 0.22165 0.84827 0.45992 0.0
C1056 C 0.23726 0.88512 0.43884 0.0
C1057 C 0.22173 0.89417 0.41484 0.0
C1058 C 0.2061 0.8799 0.41382 0.0
C1059 C 0.20619 0.85702 0.43595 0.0
H1060 H -0.01794 0.67175 0.74216 0.0
H1061 H 0.97033 0.74837 0.67508 0.0
H1062 H -0.01963 0.63489 0.70223 0.0
H1063 H 0.9683 0.71138 0.63502 0.0
H1064 H -0.00829 0.62193 0.56842 0.0
H1065 H -0.00784 0.66095 0.60729 0.0
H1066 H 0.95364 0.62744 0.66844 0.0
H1067 H 0.95345 0.58808 0.62982 0.0
C1068 C -0.02096 0.68084 0.7189 0.0
C1069 C 0.97631 0.71314 0.71192 0.0
C1070 C 0.97791 0.65969 0.69598 0.0
C1071 C 0.97407 0.67016 0.66538 0.0
C1072 C 0.97145 0.70241 0.6583 0.0
C1073 C 0.9725 0.72368 0.68132 0.0
C1074 C -0.01677 0.62295 0.59009 0.0
C1075 C 0.9726 0.60171 0.59596 0.0
C1076 C -0.0166 0.6455 0.61235 0.0
C1077 C 0.97302 0.64729 0.64108 0.0
C1078 C 0.96209 0.62641 0.64674 0.0
C1079 C 0.96186 0.60395 0.62448 0.0
H1080 H 0.2823 0.77349 0.4551 0.0
H1081 H 0.30903 0.73783 0.54447 0.0
H1082 H 0.31843 0.77169 0.43875 0.0
H1083 H 0.3458 0.73517 0.52745 0.0
H1084 H 0.40686 0.69307 0.44685 0.0
H1085 H 0.37368 0.69859 0.47665 0.0
H1086 H 0.34437 0.80338 0.46053 0.0
H1087 H 0.37787 0.79844 0.43191 0.0
C1088 C 0.29599 0.76495 0.47118 0.0
C1089 C 0.29297 0.75537 0.50095 0.0
C1090 C 0.31656 0.76428 0.46189 0.0
C1091 C 0.33471 0.75347 0.48194 0.0
C1092 C 0.33192 0.74367 0.51171 0.0
C1093 C 0.31101 0.74512 0.52135 0.0
C1094 C 0.39375 0.71749 0.45054 0.0
C1095 C 0.3949 0.74526 0.43645 0.0
C1096 C 0.37478 0.72057 0.46761 0.0
C1097 C 0.35657 0.75134 0.47059 0.0
C1098 C 0.35825 0.77937 0.45833 0.0
C1099 C 0.37731 0.77643 0.44169 0.0
H1100 H 0.2372 0.0556 0.16913 0.0
H1101 H 0.22057 0.13258 0.23741 0.0
H1102 H 0.23851 0.09393 0.1299 0.0
H1103 H 0.22153 0.17084 0.19821 0.0
H1104 H 0.24787 0.22111 0.12658 0.0
H1105 H 0.24802 0.18125 0.16501 0.0
H1106 H 0.21354 0.14327 0.10272 0.0
H1107 H 0.21368 0.18273 0.0641 0.0
C1108 C 0.23379 0.08067 0.1758 0.0
C1109 C 0.22881 0.09093 0.20648 0.0
C1110 C 0.23442 0.1027 0.15326 0.0
C1111 C 0.23018 0.13547 0.16089 0.0
C1112 C 0.22521 0.14568 0.19157 0.0
C1113 C 0.22451 0.12373 0.21405 0.0
C1114 C 0.24039 0.20418 0.121 0.0
C1115 C 0.23076 0.20519 0.0922 0.0
C1116 C 0.24036 0.18144 0.14313 0.0
C1117 C 0.23074 0.15908 0.13701 0.0
C1118 C 0.22132 0.15986 0.10809 0.0
C1119 C 0.22129 0.18265 0.08599 0.0
H1120 H 0.79052 0.8002 1.01298 0.0
H1121 H 0.80303 0.6976 1.00175 0.0
H1122 H 0.82742 0.78897 0.99184 0.0
H1123 H 0.84044 0.68601 0.98173 0.0
H1124 H 0.88787 0.69015 0.90511 0.0
H1125 H 0.85481 0.69665 0.93504 0.0
H1126 H 0.86701 0.76374 0.99614 0.0
H1127 H 0.89992 0.75776 0.9654 0.0
C1128 C 0.80134 0.77507 1.00662 0.0
C1129 C 0.7937 0.74987 1.0086 0.0
C1130 C 0.82262 0.76856 0.99464 0.0
C1131 C 0.83687 0.73663 0.98468 0.0
C1132 C 0.82971 0.71105 0.98847 0.0
C1133 C 0.80831 0.71763 1.00012 0.0
C1134 C 0.88369 0.70589 0.92521 0.0
C1135 C 0.89644 0.7235 0.93289 0.0
C1136 C 0.86476 0.70953 0.94251 0.0
C1137 C 0.8582 0.73069 0.96812 0.0
C1138 C 0.87137 0.74761 0.97632 0.0
C1139 C 0.89023 0.74418 0.95878 0.0
H1140 H 0.25156 0.60818 0.73078 0.0
H1141 H 0.2139 0.57236 0.67171 0.0
H1142 H 0.25255 0.64566 0.69072 0.0
H1143 H 0.2147 0.61025 0.63171 0.0
H1144 H 0.23899 0.66244 0.55713 0.0
H1145 H 0.2403 0.62176 0.59575 0.0
H1146 H 0.22572 0.69564 0.66655 0.0
H1147 H 0.22467 0.73593 0.62838 0.0
C1148 C 0.24352 0.60822 0.70926 0.0
C1149 C 0.23257 0.58729 0.70459 0.0
C1150 C 0.244 0.62986 0.6863 0.0
C1151 C 0.23362 0.63108 0.65802 0.0
C1152 C 0.22303 0.60972 0.65311 0.0
C1153 C 0.22245 0.58816 0.67615 0.0
C1154 C 0.2362 0.66991 0.58096 0.0
C1155 C 0.23178 0.70246 0.5896 0.0
C1156 C 0.2368 0.64666 0.60307 0.0
C1157 C 0.2332 0.65541 0.63428 0.0
C1158 C 0.2289 0.68791 0.64281 0.0
C1159 C 0.22816 0.7111 0.62081 0.0
H1160 H 0.29734 0.08502 0.45945 0.0
H1161 H 0.33489 0.07796 0.37575 0.0
H1162 H 0.32892 0.08459 0.48914 0.0
H1163 H 0.36652 0.07694 0.40536 0.0
H1164 H 0.41295 0.10245 0.46486 0.0
H1165 H 0.37774 0.11236 0.43939 0.0
H1166 H 0.36747 0.04283 0.49979 0.0
H1167 H 0.40243 0.03308 0.52541 0.0
C1168 C 0.31229 0.08359 0.44742 0.0
C1169 C 0.31372 0.08132 0.41531 0.0
C1170 C 0.33038 0.08317 0.4644 0.0
C1171 C 0.35016 0.08083 0.44957 0.0
C1172 C 0.3514 0.07919 0.41743 0.0
C1173 C 0.33341 0.07933 0.4005 0.0
C1174 C 0.40297 0.08975 0.47309 0.0
C1175 C 0.41059 0.06678 0.497 0.0
C1176 C 0.3829 0.09525 0.45835 0.0
C1177 C 0.36997 0.07813 0.46741 0.0
C1178 C 0.37699 0.05654 0.49239 0.0
C1179 C 0.3971 0.05084 0.50697 0.0
H1180 H 0.77948 0.93604 0.12156 0.0
H1181 H 0.81757 0.84549 0.07263 0.0
H1182 H 0.81285 0.94761 0.12382 0.0
H1183 H 0.85101 0.85624 0.0757 0.0
H1184 H 0.89964 0.90273 0.05594 0.0
H1185 H 0.86651 0.89119 0.05488 0.0
H1186 H 0.84881 0.93044 0.14666 0.0
H1187 H 0.88121 0.94406 0.1469 0.0
C1188 C 0.79506 0.91855 0.11151 0.0
C1189 C 0.79595 0.89011 0.09663 0.0
C1190 C 0.81419 0.92501 0.11293 0.0
C1191 C 0.83464 0.9029 0.09984 0.0
C1192 C 0.83548 0.87418 0.08543 0.0
C1193 C 0.81634 0.86796 0.08371 0.0
C1194 C 0.8886 0.90916 0.07582 0.0
C1195 C 0.89305 0.92449 0.10143 0.0
C1196 C 0.86972 0.90214 0.07538 0.0
C1197 C 0.85494 0.9099 0.10069 0.0
C1198 C 0.85965 0.92457 0.12659 0.0
C1199 C 0.87845 0.93188 0.12692 0.0
H1200 H 0.66119 0.15893 0.39704 0.0
H1201 H 0.67695 0.114 0.48641 0.0
H1202 H 0.63022 0.14236 0.39324 0.0
H1203 H 0.64527 0.09892 0.48328 0.0
H1204 H 0.59457 0.05796 0.46182 0.0
H1205 H 0.62945 0.06533 0.4584 0.0
H1206 H 0.59376 0.161 0.41738 0.0
H1207 H 0.55904 0.15335 0.42043 0.0
C1208 C 0.65829 0.14503 0.41567 0.0
C1209 C 0.67145 0.13799 0.44214 0.0
C1210 C 0.64034 0.13594 0.41366 0.0
C1211 C 0.63508 0.11973 0.43812 0.0
C1212 C 0.64892 0.11123 0.46394 0.0
C1213 C 0.66693 0.1202 0.46589 0.0
C1214 C 0.59424 0.08052 0.45202 0.0
C1215 C 0.57408 0.1052 0.44157 0.0
C1216 C 0.6142 0.08473 0.45006 0.0
C1217 C 0.61439 0.11378 0.43771 0.0
C1218 C 0.59429 0.13808 0.42656 0.0
C1219 C 0.57436 0.13379 0.42839 0.0
H1220 H 0.78852 0.41679 0.27405 0.0
H1221 H 0.8085 0.49802 0.27558 0.0
H1222 H 0.82772 0.37789 0.27696 0.0
H1223 H 0.84783 0.45882 0.27822 0.0
H1224 H 0.91468 0.37387 0.24365 0.0
H1225 H 0.87566 0.41399 0.24245 0.0
H1226 H 0.85934 0.36293 0.31635 0.0
H1227 H 0.89844 0.32281 0.31783 0.0
C1228 C 0.80128 0.42637 0.27485 0.0
C1229 C 0.7954 0.46053 0.27444 0.0
C1230 C 0.82369 0.40405 0.27676 0.0
C1231 C 0.84076 0.41537 0.27787 0.0
C1232 C 0.83497 0.44948 0.27723 0.0
C1233 C 0.81248 0.47188 0.27579 0.0
C1234 C 0.90279 0.37116 0.25967 0.0
C1235 C 0.90963 0.34508 0.28078 0.0
C1236 C 0.88051 0.39428 0.25908 0.0
C1237 C 0.86454 0.39152 0.27928 0.0
C1238 C 0.87133 0.36547 0.30039 0.0
C1239 C 0.8937 0.34261 0.30131 0.0
H1240 H 0.05455 0.6533 0.4254 0.0
H1241 H 0.09225 0.55815 0.46602 0.0
H1242 H 0.08855 0.66286 0.42171 0.0
H1243 H 0.1264 0.56742 0.46194 0.0
H1244 H 0.17283 0.61833 0.48835 0.0
H1245 H 0.1417 0.60194 0.48627 0.0
H1246 H 0.12455 0.64596 0.3967 0.0
H1247 H 0.15495 0.66386 0.39948 0.0
C1248 C 0.0702 0.63421 0.43306 0.0
C1249 C 0.07073 0.60511 0.44619 0.0
C1250 C 0.08971 0.6396 0.43086 0.0
C1251 C 0.11021 0.61591 0.44158 0.0
C1252 C 0.11083 0.58638 0.45393 0.0
C1253 C 0.09129 0.58107 0.45626 0.0
C1254 C 0.16246 0.62441 0.46817 0.0
C1255 C 0.16624 0.64271 0.44424 0.0
C1256 C 0.14476 0.61469 0.46682 0.0
C1257 C 0.1305 0.62291 0.44142 0.0
C1258 C 0.135 0.63973 0.41681 0.0
C1259 C 0.15263 0.64958 0.41822 0.0
H1260 H 0.64969 0.06556 0.74014 0.0
H1261 H 0.6649 0.12077 0.81088 0.0
H1262 H 0.61077 0.10705 0.73983 0.0
H1263 H 0.62626 0.16175 0.81061 0.0
H1264 H 0.54979 0.20675 0.82455 0.0
H1265 H 0.58788 0.16375 0.82431 0.0
H1266 H 0.5907 0.16914 0.72576 0.0
H1267 H 0.55251 0.21244 0.72587 0.0
C1268 C 0.6447 0.08634 0.75575 0.0
C1269 C 0.66035 0.08992 0.77551 0.0
C1270 C 0.62252 0.11016 0.7554 0.0
C1271 C 0.61556 0.13758 0.7752 0.0
C1272 C 0.63113 0.14075 0.79528 0.0
C1273 C 0.65328 0.11733 0.7953 0.0
C1274 C 0.55851 0.19887 0.80281 0.0
C1275 C 0.54816 0.21314 0.77524 0.0
C1276 C 0.58033 0.17427 0.8027 0.0
C1277 C 0.59219 0.16308 0.77502 0.0
C1278 C 0.58184 0.17712 0.7474 0.0
C1279 C 0.56008 0.20209 0.74752 0.0
H1280 H 0.71899 0.63291 0.23668 0.0
H1281 H 0.73815 0.55487 0.16913 0.0
H1282 H 0.71914 0.6714 0.1973 0.0
H1283 H 0.73874 0.59346 0.12968 0.0
H1284 H 0.71301 0.68075 0.06262 0.0
H1285 H 0.71363 0.64117 0.10151 0.0
H1286 H 0.74444 0.68416 0.16465 0.0
H1287 H 0.74343 0.72425 0.12595 0.0
C1288 C 0.72335 0.62385 0.21344 0.0
C1289 C 0.72857 0.59069 0.20614 0.0
C1290 C 0.72358 0.64597 0.19085 0.0
C1291 C 0.72904 0.63558 0.16029 0.0
C1292 C 0.73423 0.60241 0.15292 0.0
C1293 C 0.73402 0.58022 0.17559 0.0
C1294 C 0.71996 0.68179 0.08477 0.0
C1295 C 0.72813 0.70581 0.09113 0.0
C1296 C 0.72044 0.6589 0.10704 0.0
C1297 C 0.72907 0.65942 0.13627 0.0
C1298 C 0.73739 0.6833 0.14254 0.0
C1299 C 0.73691 0.70621 0.12026 0.0
H1300 H 0.90226 0.52661 0.53283 0.0
H1301 H 0.9115 0.59656 0.47171 0.0
H1302 H 0.86729 0.53546 0.50776 0.0
H1303 H 0.8767 0.60481 0.44611 0.0
H1304 H 0.80509 0.62813 0.4183 0.0
H1305 H 0.83628 0.62546 0.44982 0.0
H1306 H 0.85767 0.52021 0.45899 0.0
H1307 H 0.82596 0.52312 0.42871 0.0
C1308 C 0.89674 0.54413 0.51422 0.0
C1309 C 0.90979 0.56069 0.50411 0.0
C1310 C 0.87674 0.54901 0.49969 0.0
C1311 C 0.86935 0.57044 0.47461 0.0
C1312 C 0.88182 0.58827 0.46548 0.0
C1313 C 0.90181 0.5835 0.48014 0.0
C1314 C 0.81624 0.60451 0.42747 0.0
C1315 C 0.81302 0.57582 0.42095 0.0
C1316 C 0.83427 0.60294 0.44526 0.0
C1317 C 0.8495 0.57265 0.45695 0.0
C1318 C 0.8461 0.54404 0.45073 0.0
C1319 C 0.82808 0.54562 0.43299 0.0
H1320 H 0.13793 0.52497 0.61047 0.0
H1321 H 0.15072 0.42531 0.63694 0.0
H1322 H 0.10483 0.5287 0.58253 0.0
H1323 H 0.11812 0.42875 0.60836 0.0
H1324 H 0.05391 0.51657 0.5186 0.0
H1325 H 0.09105 0.5065 0.53816 0.0
H1326 H 0.0777 0.46031 0.61837 0.0
H1327 H 0.04085 0.47024 0.599 0.0
C1328 C 0.13382 0.50376 0.61003 0.0
C1329 C 0.14685 0.47495 0.62613 0.0
C1330 C 0.11503 0.50577 0.59375 0.0
C1331 C 0.10882 0.47907 0.59341 0.0
C1332 C 0.12237 0.44983 0.60846 0.0
C1333 C 0.14117 0.44778 0.62461 0.0
C1334 C 0.05906 0.50384 0.54018 0.0
C1335 C 0.04438 0.49438 0.55735 0.0
C1336 C 0.08026 0.49826 0.55144 0.0
C1337 C 0.08727 0.48267 0.57982 0.0
C1338 C 0.07291 0.47205 0.59629 0.0
C1339 C 0.05171 0.47794 0.58525 0.0
H1340 H 0.54021 0.86961 0.09217 0.0
H1341 H 0.57398 0.76813 0.12101 0.0
H1342 H 0.57267 0.86313 0.06032 0.0
H1343 H 0.60591 0.76153 0.08817 0.0
H1344 H 0.65716 0.7585 1.01451 0.0
H1345 H 0.61955 0.76562 0.03149 0.0
H1346 H 0.61216 0.85295 0.08194 0.0
H1347 H 0.64975 0.84545 0.06567 0.0
C1348 C 0.55434 0.84578 0.09136 0.0
C1349 C 0.55463 0.8196 0.10971 0.0
C1350 C 0.57283 0.84207 0.07293 0.0
C1351 C 0.59179 0.81194 0.07203 0.0
C1352 C 0.59139 0.78496 0.08829 0.0
C1353 C 0.57303 0.78878 0.10708 0.0
C1354 C 0.64726 0.77958 0.02868 0.0
C1355 C 0.65631 0.8014 0.03893 0.0
C1356 C 0.62584 0.78354 0.03846 0.0
C1357 C 0.613 0.80985 0.05793 0.0
C1358 C 0.62162 0.83266 0.06666 0.0
C1359 C 0.64315 0.82828 0.05751 0.0
H1360 H 0.65145 0.42755 0.12643 0.0
H1361 H 0.63359 0.53146 0.11265 0.0
H1362 H 0.61959 0.43136 0.09597 0.0
H1363 H 0.60102 0.53568 0.08374 0.0
H1364 H 0.5508 0.53289 1.0172 0.0
H1365 H 0.58752 0.52195 0.03789 0.0
H1366 H 0.5799 0.4535 0.10246 0.0
H1367 H 0.54349 0.46365 0.08107 0.0
C1368 C 0.6409 0.45115 0.11661 0.0
C1369 C 0.64505 0.47926 0.12217 0.0
C1370 C 0.62243 0.45342 0.09947 0.0
C1371 C 0.60758 0.48387 0.08759 0.0
C1372 C 0.61218 0.51173 0.09225 0.0
C1373 C 0.63072 0.50942 0.10923 0.0
C1374 C 0.5571 0.51512 0.03552 0.0
C1375 C 0.54413 0.49934 0.04767 0.0
C1376 C 0.57812 0.50901 0.04752 0.0
C1377 C 0.5866 0.48717 0.07215 0.0
C1378 C 0.57405 0.47022 0.08331 0.0
C1379 C 0.55309 0.47613 0.07111 0.0
H1380 H 0.36783 0.48659 0.11824 0.0
H1381 H 0.41052 0.38424 0.10016 0.0
H1382 H 0.3351 0.47328 0.12044 0.0
H1383 H 0.37783 0.37097 0.1022 0.0
H1384 H 0.31763 0.3553 0.1403 0.0
H1385 H 0.34926 0.37086 0.14189 0.0
H1386 H 0.31424 0.45306 0.08222 0.0
H1387 H 0.28242 0.43763 0.08081 0.0
C1388 C 0.3702 0.46123 0.115 0.0
C1389 C 0.39166 0.43639 0.1091 0.0
C1390 C 0.35149 0.45369 0.11601 0.0
C1391 C 0.35398 0.42112 0.11153 0.0
C1392 C 0.37548 0.39624 0.10601 0.0
C1393 C 0.39414 0.40384 0.10463 0.0
C1394 C 0.31654 0.37699 0.12791 0.0
C1395 C 0.29757 0.39533 0.11048 0.0
C1396 C 0.33472 0.38568 0.12859 0.0
C1397 C 0.3342 0.41305 0.11208 0.0
C1398 C 0.31499 0.43195 0.09529 0.0
C1399 C 0.29689 0.42303 0.09434 0.0
H1400 H 0.05915 0.24565 0.28222 0.0
H1401 H 0.03682 0.16685 0.27976 0.0
H1402 H 0.09815 0.20493 0.28095 0.0
H1403 H 0.07572 0.12638 0.27827 0.0
H1404 H 0.14829 0.06902 0.24035 0.0
H1405 H 0.10932 0.10974 0.24103 0.0
H1406 H 0.12354 0.15959 0.31716 0.0
H1407 H 0.1624 0.11892 0.31674 0.0
C1408 C 0.06255 0.21971 0.28135 0.0
C1409 C 0.04491 0.20948 0.28122 0.0
C1410 C 0.08484 0.19643 0.28075 0.0
C1411 C 0.0899 0.16255 0.27951 0.0
C1412 C 0.07228 0.15235 0.279 0.0
C1413 C 0.05002 0.17556 0.28007 0.0
C1414 C 0.1431 0.0886 0.25728 0.0
C1415 C 0.15842 0.09068 0.27854 0.0
C1416 C 0.12079 0.11183 0.25771 0.0
C1417 C 0.11349 0.13783 0.27909 0.0
C1418 C 0.1288 0.13996 0.30027 0.0
C1419 C 0.15099 0.1165 0.30014 0.0
H1420 H 0.22139 0.32074 0.92316 0.0
H1421 H 0.22606 0.3847 0.99446 0.0
H1422 H 0.22118 0.36023 0.88469 0.0
H1423 H 0.22684 0.42386 0.95574 0.0
H1424 H 0.20806 0.50082 0.87892 0.0
H1425 H 0.20636 0.46329 0.91869 0.0
H1426 H 0.24496 0.38018 0.86047 0.0
H1427 H 0.24577 0.4176 0.82052 0.0
C1428 C 0.22251 0.34321 0.93063 0.0
C1429 C 0.2238 0.34949 0.96191 0.0
C1430 C 0.22256 0.36585 0.90848 0.0
C1431 C 0.22427 0.39524 0.9169 0.0
C1432 C 0.22525 0.40174 0.9483 0.0
C1433 C 0.22489 0.37921 0.97055 0.0
C1434 C 0.21615 0.47452 0.87467 0.0
C1435 C 0.22688 0.46226 0.84642 0.0
C1436 C 0.21529 0.45293 0.89756 0.0
C1437 C 0.22537 0.41854 0.89288 0.0
C1438 C 0.23649 0.40643 0.86478 0.0
C1439 C 0.23709 0.42796 0.84183 0.0
H1440 H 0.29918 0.28954 0.02634 0.0
H1441 H 0.2982 0.20479 0.97909 0.0
H1442 H 0.33502 0.2798 1.00171 0.0
H1443 H 0.33404 0.19516 0.95465 0.0
H1444 H 0.37447 0.22688 0.88331 0.0
H1445 H 0.34272 0.22917 0.91446 0.0
H1446 H 0.37608 0.23894 0.99613 0.0
H1447 H 0.408 0.23679 0.96473 0.0
C1448 C 0.30677 0.26852 1.01114 0.0
C1449 C 0.29569 0.24819 1.00437 0.0
C1450 C 0.32735 0.26287 0.99717 0.0
C1451 C 0.33713 0.23696 0.97604 0.0
C1452 C 0.32668 0.21558 0.97056 0.0
C1453 C 0.30621 0.22105 0.98468 0.0
C1454 C 0.37501 0.22955 0.90791 0.0
C1455 C 0.39358 0.23188 0.92163 0.0
C1456 C 0.35697 0.23048 0.92576 0.0
C1457 C 0.35703 0.23403 0.9577 0.0
C1458 C 0.37564 0.23622 0.97153 0.0
C1459 C 0.39388 0.23487 0.95364 0.0
H1460 H 0.40883 0.59331 0.96334 0.0
H1461 H 0.40037 0.53778 0.03995 0.0
H1462 H 0.37222 0.60118 0.94451 0.0
H1463 H 0.36337 0.54604 1.02111 0.0
H1464 H 0.30038 0.62901 0.92545 0.0
H1465 H 0.33195 0.62777 0.95505 0.0
H1466 H 0.35008 0.5252 0.97611 0.0
H1467 H 0.31791 0.52672 0.94735 0.0
C1468 C 0.39899 0.58322 0.97646 0.0
C1469 C 0.40757 0.56479 1.00307 0.0
C1470 C 0.3779 0.58793 0.96575 0.0
C1471 C 0.36489 0.57419 0.98129 0.0
C1472 C 0.3731 0.55671 1.00852 0.0
C1473 C 0.3942 0.55221 1.01943 0.0
C1474 C 0.3107 0.6064 0.93704 0.0
C1475 C 0.30668 0.57788 0.93383 0.0
C1476 C 0.32896 0.60562 0.95376 0.0
C1477 C 0.34366 0.57631 0.96764 0.0
C1478 C 0.339 0.54823 0.96582 0.0
C1479 C 0.32072 0.54899 0.94904 0.0
H1480 H 0.65333 0.66973 0.89672 0.0
H1481 H 0.666 0.6306 0.9885 0.0
H1482 H 0.62167 0.65436 0.89321 0.0
H1483 H 0.63388 0.6167 0.98559 0.0
H1484 H 0.58424 0.57438 0.96598 0.0
H1485 H 0.6191 0.58156 0.96212 0.0
H1486 H 0.58432 0.6741 0.91534 0.0
H1487 H 0.54951 0.6664 0.91864 0.0
C1488 C 0.64954 0.65744 0.91596 0.0
C1489 C 0.66203 0.65158 0.94297 0.0
C1490 C 0.63125 0.64903 0.9141 0.0
C1491 C 0.62512 0.63458 0.93921 0.0
C1492 C 0.63822 0.62751 0.96571 0.0
C1493 C 0.6565 0.63582 0.96753 0.0
C1494 C 0.58409 0.59622 0.95483 0.0
C1495 C 0.56416 0.62005 0.94293 0.0
C1496 C 0.60404 0.60034 0.95262 0.0
C1497 C 0.60447 0.62853 0.93865 0.0
C1498 C 0.58464 0.6519 0.9259 0.0
C1499 C 0.56468 0.64762 0.92791 0.0
H1500 H 0.89805 0.80293 0.77951 0.0
H1501 H 0.91782 0.88419 0.7846 0.0
H1502 H 0.85861 0.84221 0.77754 0.0
H1503 H 0.87863 0.92309 0.78285 0.0
H1504 H 0.80542 0.97918 0.81486 0.0
H1505 H 0.84418 0.93869 0.81734 0.0
H1506 H 0.83353 0.88695 0.73988 0.0
H1507 H 0.7946 0.92763 0.73716 0.0
C1508 C 0.89399 0.82908 0.78035 0.0
C1509 C 0.91105 0.84044 0.78214 0.0
C1510 C 0.87146 0.85152 0.77903 0.0
C1511 C 0.86561 0.88566 0.78004 0.0
C1512 C 0.88265 0.89692 0.78225 0.0
C1513 C 0.9051 0.8746 0.78309 0.0
C1514 C 0.81128 0.95925 0.79829 0.0
C1515 C 0.79691 0.95677 0.7757 0.0
C1516 C 0.83351 0.9361 0.7997 0.0
C1517 C 0.84183 0.90969 0.77882 0.0
C1518 C 0.82747 0.90694 0.7564 0.0
C1519 C 0.80527 0.93038 0.75472 0.0
H1520 H 0.47262 0.25201 0.6681 0.0
H1521 H 0.48278 0.17654 0.73589 0.0
H1522 H 0.47061 0.21484 0.62825 0.0
H1523 H 0.4811 0.13945 0.69613 0.0
H1524 H 0.45397 0.09324 0.62314 0.0
H1525 H 0.45438 0.13247 0.66177 0.0
H1526 H 0.49449 0.16383 0.60138 0.0
H1527 H 0.49384 0.12495 0.56252 0.0
C1528 C 0.47446 0.22752 0.67454 0.0
C1529 C 0.47782 0.21735 0.70527 0.0
C1530 C 0.47342 0.20615 0.65165 0.0
C1531 C 0.47561 0.17417 0.65897 0.0
C1532 C 0.479 0.16406 0.6897 0.0
C1533 C 0.48012 0.18532 0.71252 0.0
C1534 C 0.46278 0.10861 0.61798 0.0
C1535 C 0.47389 0.10584 0.58967 0.0
C1536 C 0.46314 0.13098 0.64024 0.0
C1537 C 0.47455 0.15124 0.63477 0.0
C1538 C 0.48535 0.14887 0.60626 0.0
C1539 C 0.48506 0.12641 0.58402 0.0
H1540 H 0.51104 0.35024 0.8278 0.0
H1541 H 0.45308 0.34423 0.87074 0.0
H1542 H 0.5112 0.38865 0.86733 0.0
H1543 H 0.45263 0.38368 0.90959 0.0
H1544 H 0.46936 0.43179 0.99138 0.0
H1545 H 0.47084 0.39132 0.953 0.0
H1546 H 0.4922 0.44319 0.88486 0.0
H1547 H 0.49159 0.48284 0.9236 0.0
C1548 C 0.49824 0.35725 0.84559 0.0
C1549 C 0.48208 0.34406 0.84609 0.0
C1550 C 0.49822 0.37953 0.86822 0.0
C1551 C 0.48189 0.38952 0.89179 0.0
C1552 C 0.46573 0.37624 0.89222 0.0
C1553 C 0.4659 0.35369 0.86977 0.0
C1554 C 0.47446 0.43449 0.96824 0.0
C1555 C 0.48041 0.46057 0.96064 0.0
C1556 C 0.47516 0.41136 0.94608 0.0
C1557 C 0.48159 0.41385 0.91563 0.0
C1558 C 0.48755 0.43999 0.90811 0.0
C1559 C 0.48708 0.46292 0.93034 0.0
H1560 H 0.46005 0.83224 0.37992 0.0
H1561 H 0.50282 0.86117 0.32208 0.0
H1562 H 0.4607 0.87062 0.41942 0.0
H1563 H 0.50369 0.89908 0.36168 0.0
H1564 H 0.47744 0.99126 0.4222 0.0
H1565 H 0.47798 0.95097 0.38439 0.0
H1566 H 0.48549 0.88067 0.45631 0.0
H1567 H 0.48462 0.92139 0.49452 0.0
C1568 C 0.46969 0.84663 0.37565 0.0
C1569 C 0.4813 0.84368 0.3477 0.0
C1570 C 0.47017 0.86849 0.39841 0.0
C1571 C 0.48218 0.88804 0.39372 0.0
C1572 C 0.49401 0.88475 0.36591 0.0
C1573 C 0.4936 0.86284 0.34323 0.0
C1574 C 0.47924 0.96722 0.4301 0.0
C1575 C 0.48103 0.95961 0.46151 0.0
C1576 C 0.4797 0.944 0.4083 0.0
C1577 C 0.48189 0.91249 0.41724 0.0
C1578 C 0.48362 0.9048 0.44866 0.0
C1579 C 0.48327 0.92807 0.47055 0.0
H1580 H 0.45463 0.64736 0.06457 0.0
H1581 H 0.49294 0.56695 0.12435 0.0
H1582 H 0.45456 0.68678 0.1036 0.0
H1583 H 0.49362 0.60593 0.16259 0.0
H1584 H 0.47248 0.68121 0.23856 0.0
H1585 H 0.47088 0.6441 0.19886 0.0
H1586 H 0.4768 0.70947 0.12948 0.0
H1587 H 0.47754 0.74734 0.16943 0.0
C1588 C 0.46313 0.63808 0.08593 0.0
C1589 C 0.4736 0.60396 0.09137 0.0
C1590 C 0.46322 0.66068 0.10829 0.0
C1591 C 0.47394 0.64969 0.13652 0.0
C1592 C 0.4847 0.61551 0.14157 0.0
C1593 C 0.48443 0.59303 0.11944 0.0
C1594 C 0.47342 0.68774 0.21485 0.0
C1595 C 0.47521 0.71726 0.20726 0.0
C1596 C 0.47264 0.66629 0.19197 0.0
C1597 C 0.47391 0.67347 0.16077 0.0
C1598 C 0.47551 0.7032 0.15317 0.0
C1599 C 0.47606 0.72487 0.17612 0.0
loop_
_geom_bond_atom_site_label_1
_geom_bond_atom_site_label_2
_geom_bond_distance
_geom_bond_site_symmetry_2
_ccdc_geom_bond_type
Dy0 O3 2.307 1_655 S
Dy0 O5 2.395 . S
Dy0 O6 2.379 . S
Dy0 O8 2.339 1_565 S
Dy0 O10 2.298 1_564 S
Dy0 O14 2.275 1_654 S
Dy0 C22 2.738 . S
Dy1 O4 2.298 1_546 S
Dy1 O7 2.275 1_456 S
Dy1 O9 2.307 1_455 S
Dy1 O11 2.395 . S
Dy1 O12 2.379 . S
Dy1 O15 2.339 1_545 S
Dy1 C31 2.738 . S
C2 O14 1.254 . S
C2 O15 1.257 . S
O3 Dy0 2.307 1_455 S
O3 C13 1.266 . S
O4 Dy1 2.298 1_564 S
O4 C13 1.236 . S
O5 Dy0 2.395 . S
O5 C22 1.255 . S
O6 Dy0 2.379 . S
O6 C22 1.249 . S
O7 Dy1 2.275 1_654 S
O7 C23 1.254 . S
O8 Dy0 2.339 1_545 S
O8 C23 1.257 . S
O9 Dy1 2.307 1_655 S
O9 C24 1.266 . S
O10 Dy0 2.298 1_546 S
O10 C24 1.236 . S
O11 Dy1 2.395 . S
O11 C31 1.255 . S
O12 Dy1 2.379 . S
O12 C31 1.249 . S
C13 O3 1.266 . S
C13 O4 1.236 . S
O14 Dy0 2.275 1_456 S
O14 C2 1.254 . S
O15 Dy1 2.339 1_565 S
O15 C2 1.257 . S
C16 C19 1.344 . S
C16 C20 1.328 . S
C16 C22 1.516 . S
C17 C18 1.304 . S
C17 C21 1.323 . S
C18 C17 1.304 . S
C18 C19 1.371 . S
C18 H32 0.930 1_554 S
C19 C16 1.344 . S
C19 C18 1.371 . S
C19 H33 0.931 1_554 S
C20 C16 1.328 . S
C20 C21 1.433 . S
C20 H34 0.931 . S
C21 C17 1.323 . S
C21 C20 1.433 . S
C21 H35 0.933 . S
C22 Dy0 2.738 . S
C22 O5 1.255 . S
C22 O6 1.249 . S
C22 C16 1.516 . S
C23 O7 1.254 . S
C23 O8 1.257 . S
C24 O9 1.266 . S
C24 O10 1.236 . S
C25 C28 1.344 . S
C25 C29 1.328 . S
C25 C31 1.516 . S
C26 C27 1.304 . S
C26 C30 1.323 . S
C27 C26 1.304 . S
C27 C28 1.371 . S
C27 H36 0.930 1_556 S
C28 C25 1.344 . S
C28 C27 1.371 . S
C28 H37 0.931 1_556 S
C29 C25 1.328 . S
C29 C30 1.433 . S
C29 H38 0.931 . S
C30 C26 1.323 . S
C30 C29 1.433 . S
C30 H39 0.933 . S
C31 Dy1 2.738 . S
C31 O11 1.255 . S
C31 O12 1.249 . S
C31 C25 1.516 . S
H32 C18 0.930 1_556 S
H33 C19 0.931 1_556 S
H34 C20 0.931 . S
H35 C21 0.933 . S
H36 C27 0.930 1_554 S
H37 C28 0.931 1_554 S
H38 C29 0.931 . S
H39 C30 0.933 . S
Dy40 O43 2.307 . S
Dy40 O45 2.395 . S
Dy40 O46 2.379 . S
Dy40 O48 2.339 1_655 S
Dy40 O50 2.298 . S
Dy40 O54 2.275 . S
Dy40 C62 2.738 . S
Dy41 O44 2.298 . S
Dy41 O47 2.275 . S
Dy41 O49 2.307 . S
Dy41 O51 2.395 . S
Dy41 O52 2.379 . S
Dy41 O55 2.339 1_455 S
Dy41 C71 2.738 . S
C42 O54 1.254 . S
C42 O55 1.257 . S
O43 Dy40 2.307 . S
O43 C53 1.266 1_655 S
O44 Dy41 2.298 . S
O44 C53 1.236 . S
O45 Dy40 2.395 . S
O45 C62 1.255 . S
O46 Dy40 2.379 . S
O46 C62 1.249 . S
O47 Dy41 2.275 . S
O47 C63 1.254 . S
O48 Dy40 2.339 1_455 S
O48 C63 1.257 . S
O49 Dy41 2.307 . S
O49 C64 1.266 1_455 S
O50 Dy40 2.298 . S
O50 C64 1.236 . S
O51 Dy41 2.395 . S
O51 C71 1.255 . S
O52 Dy41 2.379 . S
O52 C71 1.249 . S
C53 O43 1.266 1_455 S
C53 O44 1.236 . S
O54 Dy40 2.275 . S
O54 C42 1.254 . S
O55 Dy41 2.339 1_655 S
O55 C42 1.257 . S
C56 C59 1.344 . S
C56 C60 1.328 . S
C56 C62 1.516 . S
C57 C58 1.304 . S
C57 C61 1.323 . S
C58 C57 1.304 . S
C58 C59 1.371 . S
C58 H72 0.930 . S
C59 C56 1.344 . S
C59 C58 1.371 . S
C59 H73 0.931 . S
C60 C56 1.328 . S
C60 C61 1.433 . S
C60 H74 0.931 . S
C61 C57 1.323 . S
C61 C60 1.433 . S
C61 H75 0.933 . S
C62 Dy40 2.738 . S
C62 O45 1.255 . S
C62 O46 1.249 . S
C62 C56 1.516 . S
C63 O47 1.254 . S
C63 O48 1.257 . S
C64 O49 1.266 1_655 S
C64 O50 1.236 . S
C65 C68 1.344 . S
C65 C69 1.328 . S
C65 C71 1.516 . S
C66 C67 1.304 . S
C66 C70 1.323 . S
C67 C66 1.304 . S
C67 C68 1.371 . S
C67 H76 0.930 . S
C68 C65 1.344 . S
C68 C67 1.371 . S
C68 H77 0.931 . S
C69 C65 1.328 . S
C69 C70 1.433 . S
C69 H78 0.931 . S
C70 C66 1.323 . S
C70 C69 1.433 . S
C70 H79 0.933 . S
C71 Dy41 2.738 . S
C71 O51 1.255 . S
C71 O52 1.249 . S
C71 C65 1.516 . S
H72 C58 0.930 . S
H73 C59 0.931 . S
H74 C60 0.931 . S
H75 C61 0.933 . S
H76 C67 0.930 . S
H77 C68 0.931 . S
H78 C69 0.931 . S
H79 C70 0.933 . S
Dy80 O83 2.307 . S
Dy80 O85 2.395 . S
Dy80 O86 2.379 . S
Dy80 O88 2.339 . S
Dy80 O90 2.298 . S
Dy80 O94 2.275 . S
Dy80 C102 2.738 . S
Dy81 O84 2.298 . S
Dy81 O87 2.275 . S
Dy81 O89 2.307 . S
Dy81 O91 2.395 . S
Dy81 O92 2.379 . S
Dy81 O95 2.339 . S
Dy81 C111 2.738 . S
C82 O94 1.254 . S
C82 O95 1.257 . S
O83 Dy80 2.307 . S
O83 C93 1.266 . S
O84 Dy81 2.298 . S
O84 C93 1.236 . S
O85 Dy80 2.395 . S
O85 C102 1.255 . S
O86 Dy80 2.379 . S
O86 C102 1.249 . S
O87 Dy81 2.275 . S
O87 C103 1.254 . S
O88 Dy80 2.339 . S
O88 C103 1.257 . S
O89 Dy81 2.307 . S
O89 C104 1.266 . S
O90 Dy80 2.298 . S
O90 C104 1.236 . S
O91 Dy81 2.395 . S
O91 C111 1.255 . S
O92 Dy81 2.379 . S
O92 C111 1.249 . S
C93 O83 1.266 . S
C93 O84 1.236 . S
O94 Dy80 2.275 . S
O94 C82 1.254 . S
O95 Dy81 2.339 . S
O95 C82 1.257 . S
C96 C99 1.344 . S
C96 C100 1.328 . S
C96 C102 1.516 . S
C97 C98 1.304 . S
C97 C101 1.323 . S
C98 C97 1.304 . S
C98 C99 1.371 . S
C98 H112 0.930 . S
C99 C96 1.344 . S
C99 C98 1.371 . S
C99 H113 0.931 . S
C100 C96 1.328 . S
C100 C101 1.433 . S
C100 H114 0.931 . S
C101 C97 1.323 . S
C101 C100 1.433 . S
C101 H115 0.933 . S
C102 Dy80 2.738 . S
C102 O85 1.255 . S
C102 O86 1.249 . S
C102 C96 1.516 . S
C103 O87 1.254 . S
C103 O88 1.257 . S
C104 O89 1.266 . S
C104 O90 1.236 . S
C105 C108 1.344 . S
C105 C109 1.328 . S
C105 C111 1.516 . S
C106 C107 1.304 . S
C106 C110 1.323 . S
C107 C106 1.304 . S
C107 C108 1.371 . S
C107 H116 0.930 . S
C108 C105 1.344 . S
C108 C107 1.371 . S
C108 H117 0.931 . S
C109 C105 1.328 . S
C109 C110 1.433 . S
C109 H118 0.931 . S
C110 C106 1.323 . S
C110 C109 1.433 . S
C110 H119 0.933 . S
C111 Dy81 2.738 . S
C111 O91 1.255 . S
C111 O92 1.249 . S
C111 C105 1.516 . S
H112 C98 0.930 . S
H113 C99 0.931 . S
H114 C100 0.931 . S
H115 C101 0.933 . S
H116 C107 0.930 . S
H117 C108 0.931 . S
H118 C109 0.931 . S
H119 C110 0.933 . S
Dy120 O123 2.307 . S
Dy120 O125 2.395 1_545 S
Dy120 O126 2.379 . S
Dy120 O128 2.339 . S
Dy120 O130 2.298 1_545 S
Dy120 O134 2.275 1_545 S
Dy120 C142 2.738 . S
Dy121 O124 2.298 1_565 S
Dy121 O127 2.275 1_565 S
Dy121 O129 2.307 . S
Dy121 O131 2.395 1_565 S
Dy121 O132 2.379 . S
Dy121 O135 2.339 . S
Dy121 C151 2.738 . S
C122 O134 1.254 . S
C122 O135 1.257 . S
O123 Dy120 2.307 . S
O123 C133 1.266 . S
O124 Dy121 2.298 1_545 S
O124 C133 1.236 . S
O125 Dy120 2.395 1_565 S
O125 C142 1.255 1_565 S
O126 Dy120 2.379 . S
O126 C142 1.249 . S
O127 Dy121 2.275 1_545 S
O127 C143 1.254 . S
O128 Dy120 2.339 . S
O128 C143 1.257 . S
O129 Dy121 2.307 . S
O129 C144 1.266 . S
O130 Dy120 2.298 1_565 S
O130 C144 1.236 . S
O131 Dy121 2.395 1_545 S
O131 C151 1.255 1_545 S
O132 Dy121 2.379 . S
O132 C151 1.249 . S
C133 O123 1.266 . S
C133 O124 1.236 . S
O134 Dy120 2.275 1_565 S
O134 C122 1.254 . S
O135 Dy121 2.339 . S
O135 C122 1.257 . S
C136 C139 1.344 1_545 S
C136 C140 1.328 . S
C136 C142 1.516 . S
C137 C138 1.304 1_545 S
C137 C141 1.323 . S
C138 C137 1.304 1_565 S
C138 C139 1.371 . S
C138 H152 0.930 . S
C139 C136 1.344 1_565 S
C139 C138 1.371 . S
C139 H153 0.931 . S
C140 C136 1.328 . S
C140 C141 1.433 . S
C140 H154 0.931 . S
C141 C137 1.323 . S
C141 C140 1.433 . S
C141 H155 0.933 . S
C142 Dy120 2.738 . S
C142 O125 1.255 1_545 S
C142 O126 1.249 . S
C142 C136 1.516 . S
C143 O127 1.254 . S
C143 O128 1.257 . S
C144 O129 1.266 . S
C144 O130 1.236 . S
C145 C148 1.344 1_565 S
C145 C149 1.328 . S
C145 C151 1.516 . S
C146 C147 1.304 1_565 S
C146 C150 1.323 . S
C147 C146 1.304 1_545 S
C147 C148 1.371 . S
C147 H156 0.930 . S
C148 C145 1.344 1_545 S
C148 C147 1.371 . S
C148 H157 0.931 . S
C149 C145 1.328 . S
C149 C150 1.433 . S
C149 H158 0.931 . S
C150 C146 1.323 . S
C150 C149 1.433 . S
C150 H159 0.933 . S
C151 Dy121 2.738 . S
C151 O131 1.255 1_565 S
C151 O132 1.249 . S
C151 C145 1.516 . S
H152 C138 0.930 . S
H153 C139 0.931 . S
H154 C140 0.931 . S
H155 C141 0.933 . S
H156 C147 0.930 . S
H157 C148 0.931 . S
H158 C149 0.931 . S
H159 C150 0.933 . S
Dy160 O163 2.307 . S
Dy160 O165 2.395 . S
Dy160 O166 2.379 . S
Dy160 O168 2.339 . S
Dy160 O170 2.298 . S
Dy160 O174 2.275 . S
Dy160 C182 2.738 . S
Dy161 O164 2.298 . S
Dy161 O167 2.275 . S
Dy161 O169 2.307 . S
Dy161 O171 2.395 . S
Dy161 O172 2.379 . S
Dy161 O175 2.339 . S
Dy161 C191 2.738 . S
C162 O174 1.254 . S
C162 O175 1.257 . S
O163 Dy160 2.307 . S
O163 C173 1.266 . S
O164 Dy161 2.298 . S
O164 C173 1.236 . S
O165 Dy160 2.395 . S
O165 C182 1.255 . S
O166 Dy160 2.379 . S
O166 C182 1.249 . S
O167 Dy161 2.275 . S
O167 C183 1.254 . S
O168 Dy160 2.339 . S
O168 C183 1.257 . S
O169 Dy161 2.307 . S
O169 C184 1.266 . S
O170 Dy160 2.298 . S
O170 C184 1.236 . S
O171 Dy161 2.395 . S
O171 C191 1.255 . S
O172 Dy161 2.379 . S
O172 C191 1.249 . S
C173 O163 1.266 . S
C173 O164 1.236 . S
O174 Dy160 2.275 . S
O174 C162 1.254 . S
O175 Dy161 2.339 . S
O175 C162 1.257 . S
C176 C179 1.344 . S
C176 C180 1.328 . S
C176 C182 1.516 . S
C177 C178 1.304 . S
C177 C181 1.323 . S
C178 C177 1.304 . S
C178 C179 1.371 . S
C178 H192 0.930 . S
C179 C176 1.344 . S
C179 C178 1.371 . S
C179 H193 0.931 . S
C180 C176 1.328 . S
C180 C181 1.433 . S
C180 H194 0.931 . S
C181 C177 1.323 . S
C181 C180 1.433 . S
C181 H195 0.933 . S
C182 Dy160 2.738 . S
C182 O165 1.255 . S
C182 O166 1.249 . S
C182 C176 1.516 . S
C183 O167 1.254 . S
C183 O168 1.257 . S
C184 O169 1.266 . S
C184 O170 1.236 . S
C185 C188 1.344 . S
C185 C189 1.328 . S
C185 C191 1.516 . S
C186 C187 1.304 . S
C186 C190 1.323 . S
C187 C186 1.304 . S
C187 C188 1.371 . S
C187 H196 0.930 . S
C188 C185 1.344 . S
C188 C187 1.371 . S
C188 H197 0.931 . S
C189 C185 1.328 . S
C189 C190 1.433 . S
C189 H198 0.931 . S
C190 C186 1.323 . S
C190 C189 1.433 . S
C190 H199 0.933 . S
C191 Dy161 2.738 . S
C191 O171 1.255 . S
C191 O172 1.249 . S
C191 C185 1.516 . S
H192 C178 0.930 . S
H193 C179 0.931 . S
H194 C180 0.931 . S
H195 C181 0.933 . S
H196 C187 0.930 . S
H197 C188 0.931 . S
H198 C189 0.931 . S
H199 C190 0.933 . S
Dy200 O203 2.307 . S
Dy200 O205 2.395 . S
Dy200 O206 2.379 . S
Dy200 O208 2.339 . S
Dy200 O210 2.298 . S
Dy200 O214 2.275 . S
Dy200 C222 2.738 . S
Dy201 O204 2.298 . S
Dy201 O207 2.275 . S
Dy201 O209 2.307 . S
Dy201 O211 2.395 . S
Dy201 O212 2.379 . S
Dy201 O215 2.339 . S
Dy201 C231 2.738 . S
C202 O214 1.254 . S
C202 O215 1.257 . S
O203 Dy200 2.307 . S
O203 C213 1.266 . S
O204 Dy201 2.298 . S
O204 C213 1.236 . S
O205 Dy200 2.395 . S
O205 C222 1.255 . S
O206 Dy200 2.379 . S
O206 C222 1.249 . S
O207 Dy201 2.275 . S
O207 C223 1.254 . S
O208 Dy200 2.339 . S
O208 C223 1.257 . S
O209 Dy201 2.307 . S
O209 C224 1.266 . S
O210 Dy200 2.298 . S
O210 C224 1.236 . S
O211 Dy201 2.395 . S
O211 C231 1.255 . S
O212 Dy201 2.379 . S
O212 C231 1.249 . S
C213 O203 1.266 . S
C213 O204 1.236 . S
O214 Dy200 2.275 . S
O214 C202 1.254 . S
O215 Dy201 2.339 . S
O215 C202 1.257 . S
C216 C219 1.344 . S
C216 C220 1.328 . S
C216 C222 1.516 . S
C217 C218 1.304 . S
C217 C221 1.323 . S
C218 C217 1.304 . S
C218 C219 1.371 . S
C218 H232 0.930 . S
C219 C216 1.344 . S
C219 C218 1.371 . S
C219 H233 0.931 . S
C220 C216 1.328 . S
C220 C221 1.433 . S
C220 H234 0.931 . S
C221 C217 1.323 . S
C221 C220 1.433 . S
C221 H235 0.933 . S
C222 Dy200 2.738 . S
C222 O205 1.255 . S
C222 O206 1.249 . S
C222 C216 1.516 . S
C223 O207 1.254 . S
C223 O208 1.257 . S
C224 O209 1.266 . S
C224 O210 1.236 . S
C225 C228 1.344 . S
C225 C229 1.328 . S
C225 C231 1.516 . S
C226 C227 1.304 . S
C226 C230 1.323 . S
C227 C226 1.304 . S
C227 C228 1.371 . S
C227 H236 0.930 . S
C228 C225 1.344 . S
C228 C227 1.371 . S
C228 H237 0.931 . S
C229 C225 1.328 . S
C229 C230 1.433 . S
C229 H238 0.931 . S
C230 C226 1.323 . S
C230 C229 1.433 . S
C230 H239 0.933 . S
C231 Dy201 2.738 . S
C231 O211 1.255 . S
C231 O212 1.249 . S
C231 C225 1.516 . S
H232 C218 0.930 . S
H233 C219 0.931 . S
H234 C220 0.931 . S
H235 C221 0.933 . S
H236 C227 0.930 . S
H237 C228 0.931 . S
H238 C229 0.931 . S
H239 C230 0.933 . S
Dy240 O243 2.307 . S
Dy240 O245 2.395 . S
Dy240 O246 2.379 . S
Dy240 O248 2.339 . S
Dy240 O250 2.298 . S
Dy240 O254 2.275 . S
Dy240 C262 2.738 . S
Dy241 O244 2.298 . S
Dy241 O247 2.275 . S
Dy241 O249 2.307 . S
Dy241 O251 2.395 . S
Dy241 O252 2.379 . S
Dy241 O255 2.339 . S
Dy241 C271 2.738 . S
C242 O254 1.254 . S
C242 O255 1.257 . S
O243 Dy240 2.307 . S
O243 C253 1.266 . S
O244 Dy241 2.298 . S
O244 C253 1.236 . S
O245 Dy240 2.395 . S
O245 C262 1.255 . S
O246 Dy240 2.379 . S
O246 C262 1.249 . S
O247 Dy241 2.275 . S
O247 C263 1.254 . S
O248 Dy240 2.339 . S
O248 C263 1.257 . S
O249 Dy241 2.307 . S
O249 C264 1.266 . S
O250 Dy240 2.298 . S
O250 C264 1.236 . S
O251 Dy241 2.395 . S
O251 C271 1.255 . S
O252 Dy241 2.379 . S
O252 C271 1.249 . S
C253 O243 1.266 . S
C253 O244 1.236 . S
O254 Dy240 2.275 . S
O254 C242 1.254 . S
O255 Dy241 2.339 . S
O255 C242 1.257 . S
C256 C259 1.344 . S
C256 C260 1.328 . S
C256 C262 1.516 . S
C257 C258 1.304 . S
C257 C261 1.323 . S
C258 C257 1.304 . S
C258 C259 1.371 . S
C258 H272 0.930 . S
C259 C256 1.344 . S
C259 C258 1.371 . S
C259 H273 0.931 . S
C260 C256 1.328 . S
C260 C261 1.433 . S
C260 H274 0.931 . S
C261 C257 1.323 . S
C261 C260 1.433 . S
C261 H275 0.933 . S
C262 Dy240 2.738 . S
C262 O245 1.255 . S
C262 O246 1.249 . S
C262 C256 1.516 . S
C263 O247 1.254 . S
C263 O248 1.257 . S
C264 O249 1.266 . S
C264 O250 1.236 . S
C265 C268 1.344 . S
C265 C269 1.328 . S
C265 C271 1.516 . S
C266 C267 1.304 . S
C266 C270 1.323 . S
C267 C266 1.304 . S
C267 C268 1.371 . S
C267 H276 0.930 . S
C268 C265 1.344 . S
C268 C267 1.371 . S
C268 H277 0.931 . S
C269 C265 1.328 . S
C269 C270 1.433 . S
C269 H278 0.931 . S
C270 C266 1.323 . S
C270 C269 1.433 . S
C270 H279 0.933 . S
C271 Dy241 2.738 . S
C271 O251 1.255 . S
C271 O252 1.249 . S
C271 C265 1.516 . S
H272 C258 0.930 . S
H273 C259 0.931 . S
H274 C260 0.931 . S
H275 C261 0.933 . S
H276 C267 0.930 . S
H277 C268 0.931 . S
H278 C269 0.931 . S
H279 C270 0.933 . S
Dy280 O283 2.307 1_655 S
Dy280 O285 2.395 . S
Dy280 O286 2.379 . S
Dy280 O288 2.339 . S
Dy280 O290 2.298 . S
Dy280 O294 2.275 1_655 S
Dy280 C302 2.738 . S
Dy281 O284 2.298 . S
Dy281 O287 2.275 1_455 S
Dy281 O289 2.307 1_455 S
Dy281 O291 2.395 . S
Dy281 O292 2.379 . S
Dy281 O295 2.339 . S
Dy281 C311 2.738 . S
C282 O294 1.254 . S
C282 O295 1.257 . S
O283 Dy280 2.307 1_455 S
O283 C293 1.266 . S
O284 Dy281 2.298 . S
O284 C293 1.236 . S
O285 Dy280 2.395 . S
O285 C302 1.255 . S
O286 Dy280 2.379 . S
O286 C302 1.249 . S
O287 Dy281 2.275 1_655 S
O287 C303 1.254 . S
O288 Dy280 2.339 . S
O288 C303 1.257 . S
O289 Dy281 2.307 1_655 S
O289 C304 1.266 . S
O290 Dy280 2.298 . S
O290 C304 1.236 . S
O291 Dy281 2.395 . S
O291 C311 1.255 . S
O292 Dy281 2.379 . S
O292 C311 1.249 . S
C293 O283 1.266 . S
C293 O284 1.236 . S
O294 Dy280 2.275 1_455 S
O294 C282 1.254 . S
O295 Dy281 2.339 . S
O295 C282 1.257 . S
C296 C299 1.344 . S
C296 C300 1.328 . S
C296 C302 1.516 . S
C297 C298 1.304 . S
C297 C301 1.323 . S
C298 C297 1.304 . S
C298 C299 1.371 . S
C298 H312 0.930 . S
C299 C296 1.344 . S
C299 C298 1.371 . S
C299 H313 0.931 . S
C300 C296 1.328 . S
C300 C301 1.433 . S
C300 H314 0.931 . S
C301 C297 1.323 . S
C301 C300 1.433 . S
C301 H315 0.933 . S
C302 Dy280 2.738 . S
C302 O285 1.255 . S
C302 O286 1.249 . S
C302 C296 1.516 . S
C303 O287 1.254 . S
C303 O288 1.257 . S
C304 O289 1.266 . S
C304 O290 1.236 . S
C305 C308 1.344 . S
C305 C309 1.328 . S
C305 C311 1.516 . S
C306 C307 1.304 . S
C306 C310 1.323 . S
C307 C306 1.304 . S
C307 C308 1.371 . S
C307 H316 0.930 . S
C308 C305 1.344 . S
C308 C307 1.371 . S
C308 H317 0.931 . S
C309 C305 1.328 . S
C309 C310 1.433 . S
C309 H318 0.931 . S
C310 C306 1.323 . S
C310 C309 1.433 . S
C310 H319 0.933 . S
C311 Dy281 2.738 . S
C311 O291 1.255 . S
C311 O292 1.249 . S
C311 C305 1.516 . S
H312 C298 0.930 . S
H313 C299 0.931 . S
H314 C300 0.931 . S
H315 C301 0.933 . S
H316 C307 0.930 . S
H317 C308 0.931 . S
H318 C309 0.931 . S
H319 C310 0.933 . S
Dy320 O323 2.307 . S
Dy320 O325 2.395 . S
Dy320 O326 2.379 . S
Dy320 O328 2.339 . S
Dy320 O330 2.298 1_556 S
Dy320 O334 2.275 1_556 S
Dy320 C342 2.738 . S
Dy321 O324 2.298 1_554 S
Dy321 O327 2.275 1_554 S
Dy321 O329 2.307 . S
Dy321 O331 2.395 . S
Dy321 O332 2.379 . S
Dy321 O335 2.339 . S
Dy321 C351 2.738 . S
C322 O334 1.254 . S
C322 O335 1.257 . S
O323 Dy320 2.307 . S
O323 C333 1.266 . S
O324 Dy321 2.298 1_556 S
O324 C333 1.236 . S
O325 Dy320 2.395 . S
O325 C342 1.255 . S
O326 Dy320 2.379 . S
O326 C342 1.249 . S
O327 Dy321 2.275 1_556 S
O327 C343 1.254 . S
O328 Dy320 2.339 . S
O328 C343 1.257 . S
O329 Dy321 2.307 . S
O329 C344 1.266 . S
O330 Dy320 2.298 1_554 S
O330 C344 1.236 . S
O331 Dy321 2.395 . S
O331 C351 1.255 . S
O332 Dy321 2.379 . S
O332 C351 1.249 . S
C333 O323 1.266 . S
C333 O324 1.236 . S
O334 Dy320 2.275 1_554 S
O334 C322 1.254 . S
O335 Dy321 2.339 . S
O335 C322 1.257 . S
C336 C339 1.344 . S
C336 C340 1.328 . S
C336 C342 1.516 . S
C337 C338 1.304 . S
C337 C341 1.323 . S
C338 C337 1.304 . S
C338 C339 1.371 . S
C338 H352 0.930 1_556 S
C339 C336 1.344 . S
C339 C338 1.371 . S
C339 H353 0.931 1_556 S
C340 C336 1.328 . S
C340 C341 1.433 . S
C340 H354 0.931 . S
C341 C337 1.323 . S
C341 C340 1.433 . S
C341 H355 0.933 . S
C342 Dy320 2.738 . S
C342 O325 1.255 . S
C342 O326 1.249 . S
C342 C336 1.516 . S
C343 O327 1.254 . S
C343 O328 1.257 . S
C344 O329 1.266 . S
C344 O330 1.236 . S
C345 C348 1.344 . S
C345 C349 1.328 . S
C345 C351 1.516 . S
C346 C347 1.304 . S
C346 C350 1.323 . S
C347 C346 1.304 . S
C347 C348 1.371 . S
C347 H356 0.930 1_554 S
C348 C345 1.344 . S
C348 C347 1.371 . S
C348 H357 0.931 1_554 S
C349 C345 1.328 . S
C349 C350 1.433 . S
C349 H358 0.931 . S
C350 C346 1.323 . S
C350 C349 1.433 . S
C350 H359 0.933 . S
C351 Dy321 2.738 . S
C351 O331 1.255 . S
C351 O332 1.249 . S
C351 C345 1.516 . S
H352 C338 0.930 1_554 S
H353 C339 0.931 1_554 S
H354 C340 0.931 . S
H355 C341 0.933 . S
H356 C347 0.930 1_556 S
H357 C348 0.931 1_556 S
H358 C349 0.931 . S
H359 C350 0.933 . S
Dy360 O363 2.307 . S
Dy360 O365 2.395 1_545 S
Dy360 O366 2.379 . S
Dy360 O368 2.339 . S
Dy360 O370 2.298 1_545 S
Dy360 O374 2.275 1_545 S
Dy360 C382 2.738 . S
Dy361 O364 2.298 1_565 S
Dy361 O367 2.275 1_565 S
Dy361 O369 2.307 . S
Dy361 O371 2.395 1_565 S
Dy361 O372 2.379 . S
Dy361 O375 2.339 . S
Dy361 C391 2.738 . S
C362 O374 1.254 . S
C362 O375 1.257 . S
O363 Dy360 2.307 . S
O363 C373 1.266 . S
O364 Dy361 2.298 1_545 S
O364 C373 1.236 . S
O365 Dy360 2.395 1_565 S
O365 C382 1.255 1_565 S
O366 Dy360 2.379 . S
O366 C382 1.249 . S
O367 Dy361 2.275 1_545 S
O367 C383 1.254 . S
O368 Dy360 2.339 . S
O368 C383 1.257 . S
O369 Dy361 2.307 . S
O369 C384 1.266 . S
O370 Dy360 2.298 1_565 S
O370 C384 1.236 . S
O371 Dy361 2.395 1_545 S
O371 C391 1.255 1_545 S
O372 Dy361 2.379 . S
O372 C391 1.249 . S
C373 O363 1.266 . S
C373 O364 1.236 . S
O374 Dy360 2.275 1_565 S
O374 C362 1.254 . S
O375 Dy361 2.339 . S
O375 C362 1.257 . S
C376 C379 1.344 1_545 S
C376 C380 1.328 . S
C376 C382 1.516 . S
C377 C378 1.304 1_545 S
C377 C381 1.323 . S
C378 C377 1.304 1_565 S
C378 C379 1.371 . S
C378 H392 0.930 . S
C379 C376 1.344 1_565 S
C379 C378 1.371 . S
C379 H393 0.931 . S
C380 C376 1.328 . S
C380 C381 1.433 . S
C380 H394 0.931 . S
C381 C377 1.323 . S
C381 C380 1.433 . S
C381 H395 0.933 . S
C382 Dy360 2.738 . S
C382 O365 1.255 1_545 S
C382 O366 1.249 . S
C382 C376 1.516 . S
C383 O367 1.254 . S
C383 O368 1.257 . S
C384 O369 1.266 . S
C384 O370 1.236 . S
C385 C388 1.344 1_565 S
C385 C389 1.328 . S
C385 C391 1.516 . S
C386 C387 1.304 1_565 S
C386 C390 1.323 . S
C387 C386 1.304 1_545 S
C387 C388 1.371 . S
C387 H396 0.930 . S
C388 C385 1.344 1_545 S
C388 C387 1.371 . S
C388 H397 0.931 . S
C389 C385 1.328 . S
C389 C390 1.433 . S
C389 H398 0.931 . S
C390 C386 1.323 . S
C390 C389 1.433 . S
C390 H399 0.933 . S
C391 Dy361 2.738 . S
C391 O371 1.255 1_565 S
C391 O372 1.249 . S
C391 C385 1.516 . S
H392 C378 0.930 . S
H393 C379 0.931 . S
H394 C380 0.931 . S
H395 C381 0.933 . S
H396 C387 0.930 . S
H397 C388 0.931 . S
H398 C389 0.931 . S
H399 C390 0.933 . S
Dy400 O403 2.307 . S
Dy400 O405 2.395 . S
Dy400 O406 2.379 . S
Dy400 O408 2.339 . S
Dy400 O410 2.298 . S
Dy400 O414 2.275 . S
Dy400 C422 2.738 . S
Dy401 O404 2.298 . S
Dy401 O407 2.275 . S
Dy401 O409 2.307 . S
Dy401 O411 2.395 . S
Dy401 O412 2.379 . S
Dy401 O415 2.339 . S
Dy401 C431 2.738 . S
C402 O414 1.254 . S
C402 O415 1.257 . S
O403 Dy400 2.307 . S
O403 C413 1.266 . S
O404 Dy401 2.298 . S
O404 C413 1.236 . S
O405 Dy400 2.395 . S
O405 C422 1.255 . S
O406 Dy400 2.379 . S
O406 C422 1.249 . S
O407 Dy401 2.275 . S
O407 C423 1.254 . S
O408 Dy400 2.339 . S
O408 C423 1.257 . S
O409 Dy401 2.307 . S
O409 C424 1.266 . S
O410 Dy400 2.298 . S
O410 C424 1.236 . S
O411 Dy401 2.395 . S
O411 C431 1.255 . S
O412 Dy401 2.379 . S
O412 C431 1.249 . S
C413 O403 1.266 . S
C413 O404 1.236 . S
O414 Dy400 2.275 . S
O414 C402 1.254 . S
O415 Dy401 2.339 . S
O415 C402 1.257 . S
C416 C419 1.344 . S
C416 C420 1.328 . S
C416 C422 1.516 . S
C417 C418 1.304 . S
C417 C421 1.323 . S
C418 C417 1.304 . S
C418 C419 1.371 . S
C418 H432 0.930 . S
C419 C416 1.344 . S
C419 C418 1.371 . S
C419 H433 0.931 . S
C420 C416 1.328 . S
C420 C421 1.433 . S
C420 H434 0.931 . S
C421 C417 1.323 . S
C421 C420 1.433 . S
C421 H435 0.933 . S
C422 Dy400 2.738 . S
C422 O405 1.255 . S
C422 O406 1.249 . S
C422 C416 1.516 . S
C423 O407 1.254 . S
C423 O408 1.257 . S
C424 O409 1.266 . S
C424 O410 1.236 . S
C425 C428 1.344 . S
C425 C429 1.328 . S
C425 C431 1.516 . S
C426 C427 1.304 . S
C426 C430 1.323 . S
C427 C426 1.304 . S
C427 C428 1.371 . S
C427 H436 0.930 . S
C428 C425 1.344 . S
C428 C427 1.371 . S
C428 H437 0.931 . S
C429 C425 1.328 . S
C429 C430 1.433 . S
C429 H438 0.931 . S
C430 C426 1.323 . S
C430 C429 1.433 . S
C430 H439 0.933 . S
C431 Dy401 2.738 . S
C431 O411 1.255 . S
C431 O412 1.249 . S
C431 C425 1.516 . S
H432 C418 0.930 . S
H433 C419 0.931 . S
H434 C420 0.931 . S
H435 C421 0.933 . S
H436 C427 0.930 . S
H437 C428 0.931 . S
H438 C429 0.931 . S
H439 C430 0.933 . S
Dy440 O443 2.307 . S
Dy440 O445 2.395 . S
Dy440 O446 2.379 . S
Dy440 O448 2.339 1_655 S
Dy440 O450 2.298 . S
Dy440 O454 2.275 . S
Dy440 C462 2.738 . S
Dy441 O444 2.298 . S
Dy441 O447 2.275 . S
Dy441 O449 2.307 . S
Dy441 O451 2.395 . S
Dy441 O452 2.379 . S
Dy441 O455 2.339 1_455 S
Dy441 C471 2.738 . S
C442 O454 1.254 . S
C442 O455 1.257 . S
O443 Dy440 2.307 . S
O443 C453 1.266 1_655 S
O444 Dy441 2.298 . S
O444 C453 1.236 . S
O445 Dy440 2.395 . S
O445 C462 1.255 . S
O446 Dy440 2.379 . S
O446 C462 1.249 . S
O447 Dy441 2.275 . S
O447 C463 1.254 . S
O448 Dy440 2.339 1_455 S
O448 C463 1.257 . S
O449 Dy441 2.307 . S
O449 C464 1.266 1_455 S
O450 Dy440 2.298 . S
O450 C464 1.236 . S
O451 Dy441 2.395 . S
O451 C471 1.255 . S
O452 Dy441 2.379 . S
O452 C471 1.249 . S
C453 O443 1.266 1_455 S
C453 O444 1.236 . S
O454 Dy440 2.275 . S
O454 C442 1.254 . S
O455 Dy441 2.339 1_655 S
O455 C442 1.257 . S
C456 C459 1.344 . S
C456 C460 1.328 . S
C456 C462 1.516 . S
C457 C458 1.304 . S
C457 C461 1.323 . S
C458 C457 1.304 . S
C458 C459 1.371 . S
C458 H472 0.930 . S
C459 C456 1.344 . S
C459 C458 1.371 . S
C459 H473 0.931 . S
C460 C456 1.328 . S
C460 C461 1.433 . S
C460 H474 0.931 . S
C461 C457 1.323 . S
C461 C460 1.433 . S
C461 H475 0.933 . S
C462 Dy440 2.738 . S
C462 O445 1.255 . S
C462 O446 1.249 . S
C462 C456 1.516 . S
C463 O447 1.254 . S
C463 O448 1.257 . S
C464 O449 1.266 1_655 S
C464 O450 1.236 . S
C465 C468 1.344 . S
C465 C469 1.328 . S
C465 C471 1.516 . S
C466 C467 1.304 . S
C466 C470 1.323 . S
C467 C466 1.304 . S
C467 C468 1.371 . S
C467 H476 0.930 . S
C468 C465 1.344 . S
C468 C467 1.371 . S
C468 H477 0.931 . S
C469 C465 1.328 . S
C469 C470 1.433 . S
C469 H478 0.931 . S
C470 C466 1.323 . S
C470 C469 1.433 . S
C470 H479 0.933 . S
C471 Dy441 2.738 . S
C471 O451 1.255 . S
C471 O452 1.249 . S
C471 C465 1.516 . S
H472 C458 0.930 . S
H473 C459 0.931 . S
H474 C460 0.931 . S
H475 C461 0.933 . S
H476 C467 0.930 . S
H477 C468 0.931 . S
H478 C469 0.931 . S
H479 C470 0.933 . S
Dy480 O483 2.307 . S
Dy480 O485 2.395 . S
Dy480 O486 2.379 . S
Dy480 O488 2.339 . S
Dy480 O490 2.298 . S
Dy480 O494 2.275 . S
Dy480 C502 2.738 . S
Dy481 O484 2.298 . S
Dy481 O487 2.275 . S
Dy481 O489 2.307 . S
Dy481 O491 2.395 . S
Dy481 O492 2.379 . S
Dy481 O495 2.339 . S
Dy481 C511 2.738 . S
C482 O494 1.254 . S
C482 O495 1.257 . S
O483 Dy480 2.307 . S
O483 C493 1.266 . S
O484 Dy481 2.298 . S
O484 C493 1.236 . S
O485 Dy480 2.395 . S
O485 C502 1.255 . S
O486 Dy480 2.379 . S
O486 C502 1.249 . S
O487 Dy481 2.275 . S
O487 C503 1.254 . S
O488 Dy480 2.339 . S
O488 C503 1.257 . S
O489 Dy481 2.307 . S
O489 C504 1.266 . S
O490 Dy480 2.298 . S
O490 C504 1.236 . S
O491 Dy481 2.395 . S
O491 C511 1.255 . S
O492 Dy481 2.379 . S
O492 C511 1.249 . S
C493 O483 1.266 . S
C493 O484 1.236 . S
O494 Dy480 2.275 . S
O494 C482 1.254 . S
O495 Dy481 2.339 . S
O495 C482 1.257 . S
C496 C499 1.344 . S
C496 C500 1.328 . S
C496 C502 1.516 . S
C497 C498 1.304 . S
C497 C501 1.323 . S
C498 C497 1.304 . S
C498 C499 1.371 . S
C498 H512 0.930 . S
C499 C496 1.344 . S
C499 C498 1.371 . S
C499 H513 0.931 . S
C500 C496 1.328 . S
C500 C501 1.433 . S
C500 H514 0.931 . S
C501 C497 1.323 . S
C501 C500 1.433 . S
C501 H515 0.933 . S
C502 Dy480 2.738 . S
C502 O485 1.255 . S
C502 O486 1.249 . S
C502 C496 1.516 . S
C503 O487 1.254 . S
C503 O488 1.257 . S
C504 O489 1.266 . S
C504 O490 1.236 . S
C505 C508 1.344 . S
C505 C509 1.328 . S
C505 C511 1.516 . S
C506 C507 1.304 . S
C506 C510 1.323 . S
C507 C506 1.304 . S
C507 C508 1.371 . S
C507 H516 0.930 . S
C508 C505 1.344 . S
C508 C507 1.371 . S
C508 H517 0.931 . S
C509 C505 1.328 . S
C509 C510 1.433 . S
C509 H518 0.931 . S
C510 C506 1.323 . S
C510 C509 1.433 . S
C510 H519 0.933 . S
C511 Dy481 2.738 . S
C511 O491 1.255 . S
C511 O492 1.249 . S
C511 C505 1.516 . S
H512 C498 0.930 . S
H513 C499 0.931 . S
H514 C500 0.931 . S
H515 C501 0.933 . S
H516 C507 0.930 . S
H517 C508 0.931 . S
H518 C509 0.931 . S
H519 C510 0.933 . S
Dy520 O523 2.307 . S
Dy520 O525 2.395 . S
Dy520 O526 2.379 . S
Dy520 O528 2.339 . S
Dy520 O530 2.298 1_556 S
Dy520 O534 2.275 1_556 S
Dy520 C542 2.738 . S
Dy521 O524 2.298 1_554 S
Dy521 O527 2.275 1_554 S
Dy521 O529 2.307 . S
Dy521 O531 2.395 . S
Dy521 O532 2.379 . S
Dy521 O535 2.339 . S
Dy521 C551 2.738 . S
C522 O534 1.254 . S
C522 O535 1.257 . S
O523 Dy520 2.307 . S
O523 C533 1.266 . S
O524 Dy521 2.298 1_556 S
O524 C533 1.236 . S
O525 Dy520 2.395 . S
O525 C542 1.255 . S
O526 Dy520 2.379 . S
O526 C542 1.249 . S
O527 Dy521 2.275 1_556 S
O527 C543 1.254 . S
O528 Dy520 2.339 . S
O528 C543 1.257 . S
O529 Dy521 2.307 . S
O529 C544 1.266 . S
O530 Dy520 2.298 1_554 S
O530 C544 1.236 . S
O531 Dy521 2.395 . S
O531 C551 1.255 . S
O532 Dy521 2.379 . S
O532 C551 1.249 . S
C533 O523 1.266 . S
C533 O524 1.236 . S
O534 Dy520 2.275 1_554 S
O534 C522 1.254 . S
O535 Dy521 2.339 . S
O535 C522 1.257 . S
C536 C539 1.344 . S
C536 C540 1.328 . S
C536 C542 1.516 . S
C537 C538 1.304 . S
C537 C541 1.323 . S
C538 C537 1.304 . S
C538 C539 1.371 . S
C538 H552 0.930 1_556 S
C539 C536 1.344 . S
C539 C538 1.371 . S
C539 H553 0.931 1_556 S
C540 C536 1.328 . S
C540 C541 1.433 . S
C540 H554 0.931 . S
C541 C537 1.323 . S
C541 C540 1.433 . S
C541 H555 0.933 . S
C542 Dy520 2.738 . S
C542 O525 1.255 . S
C542 O526 1.249 . S
C542 C536 1.516 . S
C543 O527 1.254 . S
C543 O528 1.257 . S
C544 O529 1.266 . S
C544 O530 1.236 . S
C545 C548 1.344 . S
C545 C549 1.328 . S
C545 C551 1.516 . S
C546 C547 1.304 . S
C546 C550 1.323 . S
C547 C546 1.304 . S
C547 C548 1.371 . S
C547 H556 0.930 1_554 S
C548 C545 1.344 . S
C548 C547 1.371 . S
C548 H557 0.931 1_554 S
C549 C545 1.328 . S
C549 C550 1.433 . S
C549 H558 0.931 . S
C550 C546 1.323 . S
C550 C549 1.433 . S
C550 H559 0.933 . S
C551 Dy521 2.738 . S
C551 O531 1.255 . S
C551 O532 1.249 . S
C551 C545 1.516 . S
H552 C538 0.930 1_554 S
H553 C539 0.931 1_554 S
H554 C540 0.931 . S
H555 C541 0.933 . S
H556 C547 0.930 1_556 S
H557 C548 0.931 1_556 S
H558 C549 0.931 . S
H559 C550 0.933 . S
Dy560 O563 2.307 . S
Dy560 O565 2.395 . S
Dy560 O566 2.379 . S
Dy560 O568 2.339 1_565 S
Dy560 O570 2.298 1_565 S
Dy560 O574 2.275 . S
Dy560 C582 2.738 . S
Dy561 O564 2.298 1_545 S
Dy561 O567 2.275 . S
Dy561 O569 2.307 . S
Dy561 O571 2.395 . S
Dy561 O572 2.379 . S
Dy561 O575 2.339 1_545 S
Dy561 C591 2.738 . S
C562 O574 1.254 . S
C562 O575 1.257 . S
O563 Dy560 2.307 . S
O563 C573 1.266 . S
O564 Dy561 2.298 1_565 S
O564 C573 1.236 . S
O565 Dy560 2.395 . S
O565 C582 1.255 . S
O566 Dy560 2.379 . S
O566 C582 1.249 . S
O567 Dy561 2.275 . S
O567 C583 1.254 . S
O568 Dy560 2.339 1_545 S
O568 C583 1.257 . S
O569 Dy561 2.307 . S
O569 C584 1.266 . S
O570 Dy560 2.298 1_545 S
O570 C584 1.236 . S
O571 Dy561 2.395 . S
O571 C591 1.255 . S
O572 Dy561 2.379 . S
O572 C591 1.249 . S
C573 O563 1.266 . S
C573 O564 1.236 . S
O574 Dy560 2.275 . S
O574 C562 1.254 . S
O575 Dy561 2.339 1_565 S
O575 C562 1.257 . S
C576 C579 1.344 . S
C576 C580 1.328 . S
C576 C582 1.516 . S
C577 C578 1.304 . S
C577 C581 1.323 . S
C578 C577 1.304 . S
C578 C579 1.371 . S
C578 H592 0.930 . S
C579 C576 1.344 . S
C579 C578 1.371 . S
C579 H593 0.931 . S
C580 C576 1.328 . S
C580 C581 1.433 . S
C580 H594 0.931 . S
C581 C577 1.323 . S
C581 C580 1.433 . S
C581 H595 0.933 . S
C582 Dy560 2.738 . S
C582 O565 1.255 . S
C582 O566 1.249 . S
C582 C576 1.516 . S
C583 O567 1.254 . S
C583 O568 1.257 . S
C584 O569 1.266 . S
C584 O570 1.236 . S
C585 C588 1.344 . S
C585 C589 1.328 . S
C585 C591 1.516 . S
C586 C587 1.304 . S
C586 C590 1.323 . S
C587 C586 1.304 . S
C587 C588 1.371 . S
C587 H596 0.930 . S
C588 C585 1.344 . S
C588 C587 1.371 . S
C588 H597 0.931 . S
C589 C585 1.328 . S
C589 C590 1.433 . S
C589 H598 0.931 . S
C590 C586 1.323 . S
C590 C589 1.433 . S
C590 H599 0.933 . S
C591 Dy561 2.738 . S
C591 O571 1.255 . S
C591 O572 1.249 . S
C591 C585 1.516 . S
H592 C578 0.930 . S
H593 C579 0.931 . S
H594 C580 0.931 . S
H595 C581 0.933 . S
H596 C587 0.930 . S
H597 C588 0.931 . S
H598 C589 0.931 . S
H599 C590 0.933 . S
Dy600 O603 2.307 . S
Dy600 O605 2.395 . S
Dy600 O606 2.379 . S
Dy600 O608 2.339 . S
Dy600 O610 2.298 1_554 S
Dy600 O614 2.275 1_554 S
Dy600 C622 2.738 . S
Dy601 O604 2.298 1_556 S
Dy601 O607 2.275 1_556 S
Dy601 O609 2.307 . S
Dy601 O611 2.395 . S
Dy601 O612 2.379 . S
Dy601 O615 2.339 . S
Dy601 C631 2.738 . S
C602 O614 1.254 . S
C602 O615 1.257 . S
O603 Dy600 2.307 . S
O603 C613 1.266 . S
O604 Dy601 2.298 1_554 S
O604 C613 1.236 . S
O605 Dy600 2.395 . S
O605 C622 1.255 . S
O606 Dy600 2.379 . S
O606 C622 1.249 . S
O607 Dy601 2.275 1_554 S
O607 C623 1.254 . S
O608 Dy600 2.339 . S
O608 C623 1.257 . S
O609 Dy601 2.307 . S
O609 C624 1.266 . S
O610 Dy600 2.298 1_556 S
O610 C624 1.236 . S
O611 Dy601 2.395 . S
O611 C631 1.255 . S
O612 Dy601 2.379 . S
O612 C631 1.249 . S
C613 O603 1.266 . S
C613 O604 1.236 . S
O614 Dy600 2.275 1_556 S
O614 C602 1.254 . S
O615 Dy601 2.339 . S
O615 C602 1.257 . S
C616 C619 1.344 . S
C616 C620 1.328 . S
C616 C622 1.516 . S
C617 C618 1.304 . S
C617 C621 1.323 . S
C618 C617 1.304 . S
C618 C619 1.371 . S
C618 H632 0.930 1_554 S
C619 C616 1.344 . S
C619 C618 1.371 . S
C619 H633 0.931 1_554 S
C620 C616 1.328 . S
C620 C621 1.433 . S
C620 H634 0.931 . S
C621 C617 1.323 . S
C621 C620 1.433 . S
C621 H635 0.933 . S
C622 Dy600 2.738 . S
C622 O605 1.255 . S
C622 O606 1.249 . S
C622 C616 1.516 . S
C623 O607 1.254 . S
C623 O608 1.257 . S
C624 O609 1.266 . S
C624 O610 1.236 . S
C625 C628 1.344 . S
C625 C629 1.328 . S
C625 C631 1.516 . S
C626 C627 1.304 . S
C626 C630 1.323 . S
C627 C626 1.304 . S
C627 C628 1.371 . S
C627 H636 0.930 1_556 S
C628 C625 1.344 . S
C628 C627 1.371 . S
C628 H637 0.931 1_556 S
C629 C625 1.328 . S
C629 C630 1.433 . S
C629 H638 0.931 . S
C630 C626 1.323 . S
C630 C629 1.433 . S
C630 H639 0.933 . S
C631 Dy601 2.738 . S
C631 O611 1.255 . S
C631 O612 1.249 . S
C631 C625 1.516 . S
H632 C618 0.930 1_556 S
H633 C619 0.931 1_556 S
H634 C620 0.931 . S
H635 C621 0.933 . S
H636 C627 0.930 1_554 S
H637 C628 0.931 1_554 S
H638 C629 0.931 . S
H639 C630 0.933 . S
H640 C648 0.945 1_455 S
H641 C653 0.950 . S
H642 C650 0.950 . S
H643 C652 0.950 . S
H644 C654 0.950 . S
H645 C656 0.950 . S
H646 C658 0.950 . S
H647 C659 0.950 . S
C648 H640 0.945 1_655 S
C648 C649 1.395 . S
C648 C650 1.386 1_655 S
C649 C648 1.395 . S
C649 C653 1.393 . S
C650 H642 0.950 . S
C650 C648 1.386 1_455 S
C650 C651 1.400 1_455 S
C651 C650 1.400 1_655 S
C651 C652 1.398 . S
C651 C657 1.491 . S
C652 H643 0.950 . S
C652 C651 1.398 . S
C652 C653 1.391 . S
C653 H641 0.950 . S
C653 C649 1.393 . S
C653 C652 1.391 . S
C654 H644 0.950 . S
C654 C655 1.386 1_655 S
C654 C656 1.391 . S
C655 C654 1.386 1_455 S
C655 C659 1.393 . S
C656 H645 0.950 . S
C656 C654 1.391 . S
C656 C657 1.400 . S
C657 C651 1.491 . S
C657 C656 1.400 . S
C657 C658 1.398 1_655 S
C658 H646 0.950 . S
C658 C657 1.398 1_455 S
C658 C659 1.391 . S
C659 H647 0.950 . S
C659 C655 1.393 . S
C659 C658 1.391 . S
H660 C668 0.950 . S
H661 C673 0.950 . S
H662 C670 0.950 . S
H663 C672 0.950 . S
H664 C674 0.950 . S
H665 C676 0.950 . S
H666 C678 0.950 . S
H667 C679 0.950 . S
C668 H660 0.950 . S
C668 C669 1.386 . S
C668 C670 1.391 . S
C669 C668 1.386 . S
C669 C673 1.393 . S
C670 H662 0.950 . S
C670 C668 1.391 . S
C670 C671 1.400 . S
C671 C670 1.400 . S
C671 C672 1.398 . S
C671 C677 1.491 . S
C672 H663 0.950 . S
C672 C671 1.398 . S
C672 C673 1.391 . S
C673 H661 0.950 . S
C673 C669 1.393 . S
C673 C672 1.391 . S
C674 H664 0.950 . S
C674 C675 1.386 . S
C674 C676 1.391 . S
C675 C674 1.386 . S
C675 C679 1.393 . S
C676 H665 0.950 . S
C676 C674 1.391 . S
C676 C677 1.400 . S
C677 C671 1.491 . S
C677 C676 1.400 . S
C677 C678 1.398 . S
C678 H666 0.950 . S
C678 C677 1.398 . S
C678 C679 1.391 . S
C679 H667 0.950 . S
C679 C675 1.393 . S
C679 C678 1.391 . S
H680 C688 0.950 . S
H681 C693 0.950 . S
H682 C690 0.950 . S
H683 C692 0.950 . S
H684 C694 0.950 . S
H685 C696 0.950 . S
H686 C698 0.950 . S
H687 C699 0.950 . S
C688 H680 0.950 . S
C688 C689 1.386 . S
C688 C690 1.391 . S
C689 C688 1.386 . S
C689 C693 1.393 . S
C690 H682 0.950 . S
C690 C688 1.391 . S
C690 C691 1.400 . S
C691 C690 1.400 . S
C691 C692 1.398 . S
C691 C697 1.491 . S
C692 H683 0.950 . S
C692 C691 1.398 . S
C692 C693 1.391 . S
C693 H681 0.950 . S
C693 C689 1.393 . S
C693 C692 1.391 . S
C694 H684 0.950 . S
C694 C695 1.386 . S
C694 C696 1.391 . S
C695 C694 1.386 . S
C695 C699 1.393 . S
C696 H685 0.950 . S
C696 C694 1.391 . S
C696 C697 1.400 . S
C697 C691 1.491 . S
C697 C696 1.400 . S
C697 C698 1.398 . S
C698 H686 0.950 . S
C698 C697 1.398 . S
C698 C699 1.391 . S
C699 H687 0.950 . S
C699 C695 1.393 . S
C699 C698 1.391 . S
H700 C708 0.950 . S
H701 C713 0.940 1_565 S
H702 C710 0.950 . S
H703 C712 0.958 . S
H704 C714 0.950 . S
H705 C716 0.950 . S
H706 C718 0.950 . S
H707 C719 0.950 . S
C708 H700 0.950 . S
C708 C709 1.386 . S
C708 C710 1.391 . S
C709 C708 1.386 . S
C709 C713 1.419 . S
C710 H702 0.950 . S
C710 C708 1.391 . S
C710 C711 1.400 . S
C711 C710 1.400 . S
C711 C712 1.395 1_545 S
C711 C717 1.491 . S
C712 H703 0.958 . S
C712 C711 1.395 1_565 S
C712 C713 1.372 1_565 S
C713 H701 0.940 1_545 S
C713 C709 1.419 . S
C713 C712 1.372 1_545 S
C714 H704 0.950 . S
C714 C715 1.386 1_565 S
C714 C716 1.391 . S
C715 C714 1.386 1_545 S
C715 C719 1.393 . S
C716 H705 0.950 . S
C716 C714 1.391 . S
C716 C717 1.400 1_565 S
C717 C711 1.491 . S
C717 C716 1.400 1_545 S
C717 C718 1.398 . S
C718 H706 0.950 . S
C718 C717 1.398 . S
C718 C719 1.391 . S
C719 H707 0.950 . S
C719 C715 1.393 . S
C719 C718 1.391 . S
H720 C728 0.950 . S
H721 C733 0.950 . S
H722 C730 0.950 . S
H723 C732 0.950 . S
H724 C734 0.950 . S
H725 C736 0.950 . S
H726 C738 0.950 . S
H727 C739 0.950 . S
C728 H720 0.950 . S
C728 C729 1.386 . S
C728 C730 1.391 . S
C729 C728 1.386 . S
C729 C733 1.393 . S
C730 H722 0.950 . S
C730 C728 1.391 . S
C730 C731 1.400 . S
C731 C730 1.400 . S
C731 C732 1.398 . S
C731 C737 1.491 . S
C732 H723 0.950 . S
C732 C731 1.398 . S
C732 C733 1.391 . S
C733 H721 0.950 . S
C733 C729 1.393 . S
C733 C732 1.391 . S
C734 H724 0.950 . S
C734 C735 1.386 . S
C734 C736 1.391 . S
C735 C734 1.386 . S
C735 C739 1.393 . S
C736 H725 0.950 . S
C736 C734 1.391 . S
C736 C737 1.400 . S
C737 C731 1.491 . S
C737 C736 1.400 . S
C737 C738 1.398 . S
C738 H726 0.950 . S
C738 C737 1.398 . S
C738 C739 1.391 . S
C739 H727 0.950 . S
C739 C735 1.393 . S
C739 C738 1.391 . S
H740 C748 0.950 . S
H741 C753 0.958 . S
H742 C750 0.950 . S
H743 C752 0.950 . S
H744 C754 0.950 . S
H745 C756 0.950 . S
H746 C758 0.950 . S
H747 C759 0.950 . S
C748 H740 0.950 . S
C748 C749 1.386 . S
C748 C750 1.391 . S
C749 C748 1.386 . S
C749 C753 1.365 1_455 S
C750 H742 0.950 . S
C750 C748 1.391 . S
C750 C751 1.400 . S
C751 C750 1.400 . S
C751 C752 1.398 1_455 S
C751 C757 1.491 . S
C752 H743 0.950 . S
C752 C751 1.398 1_655 S
C752 C753 1.414 . S
C753 H741 0.958 . S
C753 C749 1.365 1_655 S
C753 C752 1.414 . S
C754 H744 0.950 . S
C754 C755 1.386 . S
C754 C756 1.391 . S
C755 C754 1.386 . S
C755 C759 1.390 1_655 S
C756 H745 0.950 . S
C756 C754 1.391 . S
C756 C757 1.400 1_655 S
C757 C751 1.491 . S
C757 C756 1.400 1_455 S
C757 C758 1.398 . S
C758 H746 0.950 . S
C758 C757 1.398 . S
C758 C759 1.391 . S
C759 H747 0.950 . S
C759 C755 1.390 1_455 S
C759 C758 1.391 . S
H760 C768 0.950 . S
H761 C773 0.950 . S
H762 C770 0.950 . S
H763 C772 0.950 . S
H764 C774 0.950 . S
H765 C776 0.950 . S
H766 C778 0.950 . S
H767 C779 0.950 . S
C768 H760 0.950 . S
C768 C769 1.386 . S
C768 C770 1.391 . S
C769 C768 1.386 . S
C769 C773 1.393 . S
C770 H762 0.950 . S
C770 C768 1.391 . S
C770 C771 1.400 . S
C771 C770 1.400 . S
C771 C772 1.398 . S
C771 C777 1.491 . S
C772 H763 0.950 . S
C772 C771 1.398 . S
C772 C773 1.391 . S
C773 H761 0.950 . S
C773 C769 1.393 . S
C773 C772 1.391 . S
C774 H764 0.950 . S
C774 C775 1.386 . S
C774 C776 1.391 . S
C775 C774 1.386 . S
C775 C779 1.393 . S
C776 H765 0.950 . S
C776 C774 1.391 . S
C776 C777 1.400 . S
C777 C771 1.491 . S
C777 C776 1.400 . S
C777 C778 1.398 . S
C778 H766 0.950 . S
C778 C777 1.398 . S
C778 C779 1.391 . S
C779 H767 0.950 . S
C779 C775 1.393 . S
C779 C778 1.391 . S
H780 C788 0.950 . S
H781 C793 0.950 . S
H782 C790 0.950 . S
H783 C792 0.950 . S
H784 C794 0.950 . S
H785 C796 0.950 . S
H786 C798 0.950 . S
H787 C799 0.950 . S
C788 H780 0.950 . S
C788 C789 1.386 . S
C788 C790 1.391 . S
C789 C788 1.386 . S
C789 C793 1.393 . S
C790 H782 0.950 . S
C790 C788 1.391 . S
C790 C791 1.400 . S
C791 C790 1.400 . S
C791 C792 1.398 . S
C791 C797 1.491 . S
C792 H783 0.950 . S
C792 C791 1.398 . S
C792 C793 1.391 . S
C793 H781 0.950 . S
C793 C789 1.393 . S
C793 C792 1.391 . S
C794 H784 0.950 . S
C794 C795 1.386 . S
C794 C796 1.391 . S
C795 C794 1.386 . S
C795 C799 1.393 . S
C796 H785 0.950 . S
C796 C794 1.391 . S
C796 C797 1.400 . S
C797 C791 1.491 . S
C797 C796 1.400 . S
C797 C798 1.398 . S
C798 H786 0.950 . S
C798 C797 1.398 . S
C798 C799 1.391 . S
C799 H787 0.950 . S
C799 C795 1.393 . S
C799 C798 1.391 . S
H800 C808 0.950 . S
H801 C813 0.950 . S
H802 C810 0.950 . S
H803 C812 0.950 . S
H804 C814 0.950 . S
H805 C816 0.950 . S
H806 C818 0.950 . S
H807 C819 0.950 . S
C808 H800 0.950 . S
C808 C809 1.386 . S
C808 C810 1.391 . S
C809 C808 1.386 . S
C809 C813 1.393 . S
C810 H802 0.950 . S
C810 C808 1.391 . S
C810 C811 1.400 . S
C811 C810 1.400 . S
C811 C812 1.398 . S
C811 C817 1.491 . S
C812 H803 0.950 . S
C812 C811 1.398 . S
C812 C813 1.391 . S
C813 H801 0.950 . S
C813 C809 1.393 . S
C813 C812 1.391 . S
C814 H804 0.950 . S
C814 C815 1.386 . S
C814 C816 1.391 . S
C815 C814 1.386 . S
C815 C819 1.393 . S
C816 H805 0.950 . S
C816 C814 1.391 . S
C816 C817 1.400 . S
C817 C811 1.491 . S
C817 C816 1.400 . S
C817 C818 1.398 . S
C818 H806 0.950 . S
C818 C817 1.398 . S
C818 C819 1.391 . S
C819 H807 0.950 . S
C819 C815 1.393 . S
C819 C818 1.391 . S
H820 C828 0.950 . S
H821 C833 0.950 . S
H822 C830 0.950 . S
H823 C832 0.950 . S
H824 C834 0.950 . S
H825 C836 0.950 . S
H826 C838 0.950 . S
H827 C839 0.950 . S
C828 H820 0.950 . S
C828 C829 1.386 . S
C828 C830 1.391 . S
C829 C828 1.386 . S
C829 C833 1.393 . S
C830 H822 0.950 . S
C830 C828 1.391 . S
C830 C831 1.400 . S
C831 C830 1.400 . S
C831 C832 1.398 . S
C831 C837 1.491 . S
C832 H823 0.950 . S
C832 C831 1.398 . S
C832 C833 1.391 . S
C833 H821 0.950 . S
C833 C829 1.393 . S
C833 C832 1.391 . S
C834 H824 0.950 . S
C834 C835 1.386 . S
C834 C836 1.391 . S
C835 C834 1.386 . S
C835 C839 1.393 . S
C836 H825 0.950 . S
C836 C834 1.391 . S
C836 C837 1.400 . S
C837 C831 1.491 . S
C837 C836 1.400 . S
C837 C838 1.398 . S
C838 H826 0.950 . S
C838 C837 1.398 . S
C838 C839 1.391 . S
C839 H827 0.950 . S
C839 C835 1.393 . S
C839 C838 1.391 . S
H840 C848 0.950 . S
H841 C853 0.950 . S
H842 C850 0.950 . S
H843 C852 0.950 . S
H844 C854 0.950 . S
H845 C856 0.950 . S
H846 C858 0.950 . S
H847 C859 0.950 . S
C848 H840 0.950 . S
C848 C849 1.386 . S
C848 C850 1.391 . S
C849 C848 1.386 . S
C849 C853 1.393 1_565 S
C850 H842 0.950 . S
C850 C848 1.391 . S
C850 C851 1.400 . S
C851 C850 1.400 . S
C851 C852 1.398 1_565 S
C851 C857 1.491 . S
C852 H843 0.950 . S
C852 C851 1.398 1_545 S
C852 C853 1.391 . S
C853 H841 0.950 . S
C853 C849 1.393 1_545 S
C853 C852 1.391 . S
C854 H844 0.950 . S
C854 C855 1.386 1_545 S
C854 C856 1.391 . S
C855 C854 1.386 1_565 S
C855 C859 1.393 . S
C856 H845 0.950 . S
C856 C854 1.391 . S
C856 C857 1.400 1_545 S
C857 C851 1.491 . S
C857 C856 1.400 1_565 S
C857 C858 1.398 . S
C858 H846 0.950 . S
C858 C857 1.398 . S
C858 C859 1.391 . S
C859 H847 0.950 . S
C859 C855 1.393 . S
C859 C858 1.391 . S
H860 C868 0.950 . S
H861 C873 0.950 . S
H862 C870 0.950 . S
H863 C872 0.950 . S
H864 C874 0.950 . S
H865 C876 0.950 . S
H866 C878 0.950 . S
H867 C879 0.950 . S
C868 H860 0.950 . S
C868 C869 1.386 1_655 S
C868 C870 1.391 . S
C869 C868 1.386 1_455 S
C869 C873 1.393 . S
C870 H862 0.950 . S
C870 C868 1.391 . S
C870 C871 1.400 1_655 S
C871 C870 1.400 1_455 S
C871 C872 1.398 . S
C871 C877 1.491 . S
C872 H863 0.950 . S
C872 C871 1.398 . S
C872 C873 1.391 . S
C873 H861 0.950 . S
C873 C869 1.393 . S
C873 C872 1.391 . S
C874 H864 0.950 . S
C874 C875 1.386 1_455 S
C874 C876 1.391 . S
C875 C874 1.386 1_655 S
C875 C879 1.393 . S
C876 H865 0.950 . S
C876 C874 1.391 . S
C876 C877 1.400 . S
C877 C871 1.491 . S
C877 C876 1.400 . S
C877 C878 1.398 1_455 S
C878 H866 0.950 . S
C878 C877 1.398 1_655 S
C878 C879 1.391 . S
C879 H867 0.950 . S
C879 C875 1.393 . S
C879 C878 1.391 . S
H880 C888 0.950 1_554 S
H881 C893 0.950 . S
H882 C890 0.950 1_554 S
H883 C892 0.950 . S
H884 C894 0.950 . S
H885 C896 0.950 . S
H886 C898 0.950 1_554 S
H887 C899 0.950 1_554 S
C888 H880 0.950 1_556 S
C888 C889 1.386 . S
C888 C890 1.391 . S
C889 C888 1.386 . S
C889 C893 1.393 . S
C890 H882 0.950 1_556 S
C890 C888 1.391 . S
C890 C891 1.400 . S
C891 C890 1.400 . S
C891 C892 1.398 . S
C891 C897 1.491 . S
C892 H883 0.950 . S
C892 C891 1.398 . S
C892 C893 1.391 . S
C893 H881 0.950 . S
C893 C889 1.393 . S
C893 C892 1.391 . S
C894 H884 0.950 . S
C894 C895 1.386 . S
C894 C896 1.391 . S
C895 C894 1.386 . S
C895 C899 1.393 . S
C896 H885 0.950 . S
C896 C894 1.391 . S
C896 C897 1.400 . S
C897 C891 1.491 . S
C897 C896 1.400 . S
C897 C898 1.398 . S
C898 H886 0.950 1_556 S
C898 C897 1.398 . S
C898 C899 1.391 . S
C899 H887 0.950 1_556 S
C899 C895 1.393 . S
C899 C898 1.391 . S
H900 C908 0.950 . S
H901 C913 0.950 . S
H902 C910 0.950 . S
H903 C912 0.950 . S
H904 C914 0.950 . S
H905 C916 0.950 . S
H906 C918 0.950 . S
H907 C919 0.950 . S
C908 H900 0.950 . S
C908 C909 1.386 . S
C908 C910 1.391 . S
C909 C908 1.386 . S
C909 C913 1.393 . S
C910 H902 0.950 . S
C910 C908 1.391 . S
C910 C911 1.400 . S
C911 C910 1.400 . S
C911 C912 1.398 . S
C911 C917 1.491 . S
C912 H903 0.950 . S
C912 C911 1.398 . S
C912 C913 1.391 . S
C913 H901 0.950 . S
C913 C909 1.393 . S
C913 C912 1.391 . S
C914 H904 0.950 . S
C914 C915 1.386 . S
C914 C916 1.391 . S
C915 C914 1.386 . S
C915 C919 1.393 . S
C916 H905 0.950 . S
C916 C914 1.391 . S
C916 C917 1.400 . S
C917 C911 1.491 . S
C917 C916 1.400 . S
C917 C918 1.398 . S
C918 H906 0.950 . S
C918 C917 1.398 . S
C918 C919 1.391 . S
C919 H907 0.950 . S
C919 C915 1.393 . S
C919 C918 1.391 . S
H920 C928 0.950 . S
H921 C933 0.950 . S
H922 C930 0.950 . S
H923 C932 0.950 . S
H924 C934 0.950 . S
H925 C936 0.950 . S
H926 C938 0.950 . S
H927 C939 0.950 . S
C928 H920 0.950 . S
C928 C929 1.386 . S
C928 C930 1.391 . S
C929 C928 1.386 . S
C929 C933 1.393 . S
C930 H922 0.950 . S
C930 C928 1.391 . S
C930 C931 1.400 . S
C931 C930 1.400 . S
C931 C932 1.398 . S
C931 C937 1.491 . S
C932 H923 0.950 . S
C932 C931 1.398 . S
C932 C933 1.391 . S
C933 H921 0.950 . S
C933 C929 1.393 . S
C933 C932 1.391 . S
C934 H924 0.950 . S
C934 C935 1.386 . S
C934 C936 1.391 . S
C935 C934 1.386 . S
C935 C939 1.393 . S
C936 H925 0.950 . S
C936 C934 1.391 . S
C936 C937 1.400 . S
C937 C931 1.491 . S
C937 C936 1.400 . S
C937 C938 1.398 . S
C938 H926 0.950 . S
C938 C937 1.398 . S
C938 C939 1.391 . S
C939 H927 0.950 . S
C939 C935 1.393 . S
C939 C938 1.391 . S
H940 C948 0.950 . S
H941 C953 0.950 . S
H942 C950 0.950 . S
H943 C952 0.950 . S
H944 C954 0.950 . S
H945 C956 0.950 . S
H946 C958 0.950 . S
H947 C959 0.950 . S
C948 H940 0.950 . S
C948 C949 1.386 . S
C948 C950 1.391 . S
C949 C948 1.386 . S
C949 C953 1.393 . S
C950 H942 0.950 . S
C950 C948 1.391 . S
C950 C951 1.400 . S
C951 C950 1.400 . S
C951 C952 1.398 . S
C951 C957 1.491 . S
C952 H943 0.950 . S
C952 C951 1.398 . S
C952 C953 1.391 . S
C953 H941 0.950 . S
C953 C949 1.393 . S
C953 C952 1.391 . S
C954 H944 0.950 . S
C954 C955 1.386 . S
C954 C956 1.391 . S
C955 C954 1.386 . S
C955 C959 1.393 . S
C956 H945 0.950 . S
C956 C954 1.391 . S
C956 C957 1.400 . S
C957 C951 1.491 . S
C957 C956 1.400 . S
C957 C958 1.398 . S
C958 H946 0.950 . S
C958 C957 1.398 . S
C958 C959 1.391 . S
C959 H947 0.950 . S
C959 C955 1.393 . S
C959 C958 1.391 . S
H960 C968 0.950 . S
H961 C973 0.950 . S
H962 C970 0.950 . S
H963 C972 0.950 . S
H964 C974 0.950 . S
H965 C976 0.950 . S
H966 C978 0.950 . S
H967 C979 0.950 . S
C968 H960 0.950 . S
C968 C969 1.386 . S
C968 C970 1.391 . S
C969 C968 1.386 . S
C969 C973 1.393 . S
C970 H962 0.950 . S
C970 C968 1.391 . S
C970 C971 1.400 . S
C971 C970 1.400 . S
C971 C972 1.398 . S
C971 C977 1.491 . S
C972 H963 0.950 . S
C972 C971 1.398 . S
C972 C973 1.391 . S
C973 H961 0.950 . S
C973 C969 1.393 . S
C973 C972 1.391 . S
C974 H964 0.950 . S
C974 C975 1.386 . S
C974 C976 1.391 . S
C975 C974 1.386 . S
C975 C979 1.393 . S
C976 H965 0.950 . S
C976 C974 1.391 . S
C976 C977 1.400 . S
C977 C971 1.491 . S
C977 C976 1.400 . S
C977 C978 1.398 . S
C978 H966 0.950 . S
C978 C977 1.398 . S
C978 C979 1.391 . S
C979 H967 0.950 . S
C979 C975 1.393 . S
C979 C978 1.391 . S
H980 C988 0.950 . S
H981 C993 0.950 . S
H982 C990 0.950 . S
H983 C992 0.950 . S
H984 C994 0.950 . S
H985 C996 0.950 . S
H986 C998 0.950 . S
H987 C999 0.950 . S
C988 H980 0.950 . S
C988 C989 1.386 . S
C988 C990 1.391 . S
C989 C988 1.386 . S
C989 C993 1.393 . S
C990 H982 0.950 . S
C990 C988 1.391 . S
C990 C991 1.400 . S
C991 C990 1.400 . S
C991 C992 1.398 . S
C991 C997 1.491 . S
C992 H983 0.950 . S
C992 C991 1.398 . S
C992 C993 1.391 . S
C993 H981 0.950 . S
C993 C989 1.393 . S
C993 C992 1.391 . S
C994 H984 0.950 . S
C994 C995 1.386 . S
C994 C996 1.391 . S
C995 C994 1.386 . S
C995 C999 1.393 . S
C996 H985 0.950 . S
C996 C994 1.391 . S
C996 C997 1.400 . S
C997 C991 1.491 . S
C997 C996 1.400 . S
C997 C998 1.398 . S
C998 H986 0.950 . S
C998 C997 1.398 . S
C998 C999 1.391 . S
C999 H987 0.950 . S
C999 C995 1.393 . S
C999 C998 1.391 . S
H1000 C1008 0.950 . S
H1001 C1013 0.950 . S
H1002 C1010 0.950 . S
H1003 C1012 0.950 . S
H1004 C1014 0.950 . S
H1005 C1016 0.950 . S
H1006 C1018 0.950 . S
H1007 C1019 0.950 . S
C1008 H1000 0.950 . S
C1008 C1009 1.386 . S
C1008 C1010 1.391 . S
C1009 C1008 1.386 . S
C1009 C1013 1.393 . S
C1010 H1002 0.950 . S
C1010 C1008 1.391 . S
C1010 C1011 1.400 . S
C1011 C1010 1.400 . S
C1011 C1012 1.398 . S
C1011 C1017 1.491 . S
C1012 H1003 0.950 . S
C1012 C1011 1.398 . S
C1012 C1013 1.391 . S
C1013 H1001 0.950 . S
C1013 C1009 1.393 . S
C1013 C1012 1.391 . S
C1014 H1004 0.950 . S
C1014 C1015 1.386 . S
C1014 C1016 1.391 . S
C1015 C1014 1.386 . S
C1015 C1019 1.393 . S
C1016 H1005 0.950 . S
C1016 C1014 1.391 . S
C1016 C1017 1.400 . S
C1017 C1011 1.491 . S
C1017 C1016 1.400 . S
C1017 C1018 1.398 . S
C1018 H1006 0.950 . S
C1018 C1017 1.398 . S
C1018 C1019 1.391 . S
C1019 H1007 0.950 . S
C1019 C1015 1.393 . S
C1019 C1018 1.391 . S
H1020 C1028 0.950 . S
H1021 C1033 0.950 . S
H1022 C1030 0.950 . S
H1023 C1032 0.950 . S
H1024 C1034 0.950 . S
H1025 C1036 0.950 . S
H1026 C1038 0.950 . S
H1027 C1039 0.950 . S
C1028 H1020 0.950 . S
C1028 C1029 1.386 . S
C1028 C1030 1.391 . S
C1029 C1028 1.386 . S
C1029 C1033 1.393 . S
C1030 H1022 0.950 . S
C1030 C1028 1.391 . S
C1030 C1031 1.400 . S
C1031 C1030 1.400 . S
C1031 C1032 1.398 . S
C1031 C1037 1.491 . S
C1032 H1023 0.950 . S
C1032 C1031 1.398 . S
C1032 C1033 1.391 . S
C1033 H1021 0.950 . S
C1033 C1029 1.393 . S
C1033 C1032 1.391 . S
C1034 H1024 0.950 . S
C1034 C1035 1.386 . S
C1034 C1036 1.391 . S
C1035 C1034 1.386 . S
C1035 C1039 1.393 . S
C1036 H1025 0.950 . S
C1036 C1034 1.391 . S
C1036 C1037 1.400 . S
C1037 C1031 1.491 . S
C1037 C1036 1.400 . S
C1037 C1038 1.398 . S
C1038 H1026 0.950 . S
C1038 C1037 1.398 . S
C1038 C1039 1.391 . S
C1039 H1027 0.950 . S
C1039 C1035 1.393 . S
C1039 C1038 1.391 . S
H1040 C1048 0.950 . S
H1041 C1053 0.950 . S
H1042 C1050 0.950 . S
H1043 C1052 0.950 . S
H1044 C1054 0.950 . S
H1045 C1056 0.950 . S
H1046 C1058 0.950 . S
H1047 C1059 0.950 . S
C1048 H1040 0.950 . S
C1048 C1049 1.386 . S
C1048 C1050 1.391 . S
C1049 C1048 1.386 . S
C1049 C1053 1.393 . S
C1050 H1042 0.950 . S
C1050 C1048 1.391 . S
C1050 C1051 1.400 . S
C1051 C1050 1.400 . S
C1051 C1052 1.398 . S
C1051 C1057 1.491 . S
C1052 H1043 0.950 . S
C1052 C1051 1.398 . S
C1052 C1053 1.391 . S
C1053 H1041 0.950 . S
C1053 C1049 1.393 . S
C1053 C1052 1.391 . S
C1054 H1044 0.950 . S
C1054 C1055 1.386 . S
C1054 C1056 1.391 . S
C1055 C1054 1.386 . S
C1055 C1059 1.393 . S
C1056 H1045 0.950 . S
C1056 C1054 1.391 . S
C1056 C1057 1.400 . S
C1057 C1051 1.491 . S
C1057 C1056 1.400 . S
C1057 C1058 1.398 . S
C1058 H1046 0.950 . S
C1058 C1057 1.398 . S
C1058 C1059 1.391 . S
C1059 H1047 0.950 . S
C1059 C1055 1.393 . S
C1059 C1058 1.391 . S
H1060 C1068 0.950 . S
H1061 C1073 0.950 . S
H1062 C1070 0.948 . S
H1063 C1072 0.950 . S
H1064 C1074 0.950 . S
H1065 C1076 0.950 . S
H1066 C1078 0.951 . S
H1067 C1079 0.950 . S
C1068 H1060 0.950 . S
C1068 C1069 1.373 . S
C1068 C1070 1.394 . S
C1069 C1068 1.373 . S
C1069 C1073 1.386 1_455 S
C1070 H1062 0.948 . S
C1070 C1068 1.394 . S
C1070 C1071 1.399 1_455 S
C1071 C1070 1.399 1_655 S
C1071 C1072 1.398 . S
C1071 C1077 1.491 . S
C1072 H1063 0.950 . S
C1072 C1071 1.398 . S
C1072 C1073 1.391 . S
C1073 H1061 0.950 . S
C1073 C1069 1.386 1_655 S
C1073 C1072 1.391 . S
C1074 H1064 0.950 . S
C1074 C1075 1.386 . S
C1074 C1076 1.391 . S
C1075 C1074 1.386 . S
C1075 C1079 1.393 . S
C1076 H1065 0.950 . S
C1076 C1074 1.391 . S
C1076 C1077 1.400 . S
C1077 C1071 1.491 . S
C1077 C1076 1.400 . S
C1077 C1078 1.398 . S
C1078 H1066 0.951 . S
C1078 C1077 1.398 . S
C1078 C1079 1.391 . S
C1079 H1067 0.950 . S
C1079 C1075 1.393 . S
C1079 C1078 1.391 . S
H1080 C1088 0.950 . S
H1081 C1093 0.950 . S
H1082 C1090 0.950 . S
H1083 C1092 0.950 . S
H1084 C1094 0.950 . S
H1085 C1096 0.950 . S
H1086 C1098 0.950 . S
H1087 C1099 0.950 . S
C1088 H1080 0.950 . S
C1088 C1089 1.386 . S
C1088 C1090 1.391 . S
C1089 C1088 1.386 . S
C1089 C1093 1.393 . S
C1090 H1082 0.950 . S
C1090 C1088 1.391 . S
C1090 C1091 1.400 . S
C1091 C1090 1.400 . S
C1091 C1092 1.398 . S
C1091 C1097 1.491 . S
C1092 H1083 0.950 . S
C1092 C1091 1.398 . S
C1092 C1093 1.391 . S
C1093 H1081 0.950 . S
C1093 C1089 1.393 . S
C1093 C1092 1.391 . S
C1094 H1084 0.950 . S
C1094 C1095 1.386 . S
C1094 C1096 1.391 . S
C1095 C1094 1.386 . S
C1095 C1099 1.393 . S
C1096 H1085 0.950 . S
C1096 C1094 1.391 . S
C1096 C1097 1.400 . S
C1097 C1091 1.491 . S
C1097 C1096 1.400 . S
C1097 C1098 1.398 . S
C1098 H1086 0.950 . S
C1098 C1097 1.398 . S
C1098 C1099 1.391 . S
C1099 H1087 0.950 . S
C1099 C1095 1.393 . S
C1099 C1098 1.391 . S
H1100 C1108 0.950 . S
H1101 C1113 0.950 . S
H1102 C1110 0.950 . S
H1103 C1112 0.950 . S
H1104 C1114 0.950 . S
H1105 C1116 0.950 . S
H1106 C1118 0.950 . S
H1107 C1119 0.950 . S
C1108 H1100 0.950 . S
C1108 C1109 1.386 . S
C1108 C1110 1.391 . S
C1109 C1108 1.386 . S
C1109 C1113 1.393 . S
C1110 H1102 0.950 . S
C1110 C1108 1.391 . S
C1110 C1111 1.400 . S
C1111 C1110 1.400 . S
C1111 C1112 1.398 . S
C1111 C1117 1.491 . S
C1112 H1103 0.950 . S
C1112 C1111 1.398 . S
C1112 C1113 1.391 . S
C1113 H1101 0.950 . S
C1113 C1109 1.393 . S
C1113 C1112 1.391 . S
C1114 H1104 0.950 . S
C1114 C1115 1.386 . S
C1114 C1116 1.391 . S
C1115 C1114 1.386 . S
C1115 C1119 1.393 . S
C1116 H1105 0.950 . S
C1116 C1114 1.391 . S
C1116 C1117 1.400 . S
C1117 C1111 1.491 . S
C1117 C1116 1.400 . S
C1117 C1118 1.398 . S
C1118 H1106 0.950 . S
C1118 C1117 1.398 . S
C1118 C1119 1.391 . S
C1119 H1107 0.950 . S
C1119 C1115 1.393 . S
C1119 C1118 1.391 . S
H1120 C1128 0.950 . S
H1121 C1133 0.950 . S
H1122 C1130 0.950 . S
H1123 C1132 0.950 . S
H1124 C1134 0.950 . S
H1125 C1136 0.950 . S
H1126 C1138 0.950 . S
H1127 C1139 0.950 . S
C1128 H1120 0.950 . S
C1128 C1129 1.386 . S
C1128 C1130 1.391 . S
C1129 C1128 1.386 . S
C1129 C1133 1.393 . S
C1130 H1122 0.950 . S
C1130 C1128 1.391 . S
C1130 C1131 1.400 . S
C1131 C1130 1.400 . S
C1131 C1132 1.398 . S
C1131 C1137 1.491 . S
C1132 H1123 0.950 . S
C1132 C1131 1.398 . S
C1132 C1133 1.391 . S
C1133 H1121 0.950 . S
C1133 C1129 1.393 . S
C1133 C1132 1.391 . S
C1134 H1124 0.950 . S
C1134 C1135 1.386 . S
C1134 C1136 1.391 . S
C1135 C1134 1.386 . S
C1135 C1139 1.393 . S
C1136 H1125 0.950 . S
C1136 C1134 1.391 . S
C1136 C1137 1.400 . S
C1137 C1131 1.491 . S
C1137 C1136 1.400 . S
C1137 C1138 1.398 . S
C1138 H1126 0.950 . S
C1138 C1137 1.398 . S
C1138 C1139 1.391 . S
C1139 H1127 0.950 . S
C1139 C1135 1.393 . S
C1139 C1138 1.391 . S
H1140 C1148 0.950 . S
H1141 C1153 0.950 . S
H1142 C1150 0.950 . S
H1143 C1152 0.950 . S
H1144 C1154 0.950 . S
H1145 C1156 0.950 . S
H1146 C1158 0.950 . S
H1147 C1159 0.950 . S
C1148 H1140 0.950 . S
C1148 C1149 1.386 . S
C1148 C1150 1.391 . S
C1149 C1148 1.386 . S
C1149 C1153 1.393 . S
C1150 H1142 0.950 . S
C1150 C1148 1.391 . S
C1150 C1151 1.400 . S
C1151 C1150 1.400 . S
C1151 C1152 1.398 . S
C1151 C1157 1.491 . S
C1152 H1143 0.950 . S
C1152 C1151 1.398 . S
C1152 C1153 1.391 . S
C1153 H1141 0.950 . S
C1153 C1149 1.393 . S
C1153 C1152 1.391 . S
C1154 H1144 0.950 . S
C1154 C1155 1.386 . S
C1154 C1156 1.391 . S
C1155 C1154 1.386 . S
C1155 C1159 1.393 . S
C1156 H1145 0.950 . S
C1156 C1154 1.391 . S
C1156 C1157 1.400 . S
C1157 C1151 1.491 . S
C1157 C1156 1.400 . S
C1157 C1158 1.398 . S
C1158 H1146 0.950 . S
C1158 C1157 1.398 . S
C1158 C1159 1.391 . S
C1159 H1147 0.950 . S
C1159 C1155 1.393 . S
C1159 C1158 1.391 . S
H1160 C1168 0.950 . S
H1161 C1173 0.950 . S
H1162 C1170 0.950 . S
H1163 C1172 0.950 . S
H1164 C1174 0.950 . S
H1165 C1176 0.950 . S
H1166 C1178 0.950 . S
H1167 C1179 0.950 . S
C1168 H1160 0.950 . S
C1168 C1169 1.386 . S
C1168 C1170 1.391 . S
C1169 C1168 1.386 . S
C1169 C1173 1.393 . S
C1170 H1162 0.950 . S
C1170 C1168 1.391 . S
C1170 C1171 1.400 . S
C1171 C1170 1.400 . S
C1171 C1172 1.398 . S
C1171 C1177 1.491 . S
C1172 H1163 0.950 . S
C1172 C1171 1.398 . S
C1172 C1173 1.391 . S
C1173 H1161 0.950 . S
C1173 C1169 1.393 . S
C1173 C1172 1.391 . S
C1174 H1164 0.950 . S
C1174 C1175 1.386 . S
C1174 C1176 1.391 . S
C1175 C1174 1.386 . S
C1175 C1179 1.393 . S
C1176 H1165 0.950 . S
C1176 C1174 1.391 . S
C1176 C1177 1.400 . S
C1177 C1171 1.491 . S
C1177 C1176 1.400 . S
C1177 C1178 1.398 . S
C1178 H1166 0.950 . S
C1178 C1177 1.398 . S
C1178 C1179 1.391 . S
C1179 H1167 0.950 . S
C1179 C1175 1.393 . S
C1179 C1178 1.391 . S
H1180 C1188 0.950 . S
H1181 C1193 0.950 . S
H1182 C1190 0.950 . S
H1183 C1192 0.950 . S
H1184 C1194 0.950 . S
H1185 C1196 0.950 . S
H1186 C1198 0.950 . S
H1187 C1199 0.950 . S
C1188 H1180 0.950 . S
C1188 C1189 1.386 . S
C1188 C1190 1.391 . S
C1189 C1188 1.386 . S
C1189 C1193 1.393 . S
C1190 H1182 0.950 . S
C1190 C1188 1.391 . S
C1190 C1191 1.400 . S
C1191 C1190 1.400 . S
C1191 C1192 1.398 . S
C1191 C1197 1.491 . S
C1192 H1183 0.950 . S
C1192 C1191 1.398 . S
C1192 C1193 1.391 . S
C1193 H1181 0.950 . S
C1193 C1189 1.393 . S
C1193 C1192 1.391 . S
C1194 H1184 0.950 . S
C1194 C1195 1.386 . S
C1194 C1196 1.391 . S
C1195 C1194 1.386 . S
C1195 C1199 1.393 . S
C1196 H1185 0.950 . S
C1196 C1194 1.391 . S
C1196 C1197 1.400 . S
C1197 C1191 1.491 . S
C1197 C1196 1.400 . S
C1197 C1198 1.398 . S
C1198 H1186 0.950 . S
C1198 C1197 1.398 . S
C1198 C1199 1.391 . S
C1199 H1187 0.950 . S
C1199 C1195 1.393 . S
C1199 C1198 1.391 . S
H1200 C1208 0.950 . S
H1201 C1213 0.950 . S
H1202 C1210 0.950 . S
H1203 C1212 0.950 . S
H1204 C1214 0.950 . S
H1205 C1216 0.950 . S
H1206 C1218 0.950 . S
H1207 C1219 0.950 . S
C1208 H1200 0.950 . S
C1208 C1209 1.386 . S
C1208 C1210 1.391 . S
C1209 C1208 1.386 . S
C1209 C1213 1.393 . S
C1210 H1202 0.950 . S
C1210 C1208 1.391 . S
C1210 C1211 1.400 . S
C1211 C1210 1.400 . S
C1211 C1212 1.398 . S
C1211 C1217 1.491 . S
C1212 H1203 0.950 . S
C1212 C1211 1.398 . S
C1212 C1213 1.391 . S
C1213 H1201 0.950 . S
C1213 C1209 1.393 . S
C1213 C1212 1.391 . S
C1214 H1204 0.950 . S
C1214 C1215 1.386 . S
C1214 C1216 1.391 . S
C1215 C1214 1.386 . S
C1215 C1219 1.393 . S
C1216 H1205 0.950 . S
C1216 C1214 1.391 . S
C1216 C1217 1.400 . S
C1217 C1211 1.491 . S
C1217 C1216 1.400 . S
C1217 C1218 1.398 . S
C1218 H1206 0.950 . S
C1218 C1217 1.398 . S
C1218 C1219 1.391 . S
C1219 H1207 0.950 . S
C1219 C1215 1.393 . S
C1219 C1218 1.391 . S
H1220 C1228 0.950 . S
H1221 C1233 0.950 . S
H1222 C1230 0.950 . S
H1223 C1232 0.950 . S
H1224 C1234 0.950 . S
H1225 C1236 0.950 . S
H1226 C1238 0.950 . S
H1227 C1239 0.950 . S
C1228 H1220 0.950 . S
C1228 C1229 1.386 . S
C1228 C1230 1.391 . S
C1229 C1228 1.386 . S
C1229 C1233 1.393 . S
C1230 H1222 0.950 . S
C1230 C1228 1.391 . S
C1230 C1231 1.400 . S
C1231 C1230 1.400 . S
C1231 C1232 1.398 . S
C1231 C1237 1.491 . S
C1232 H1223 0.950 . S
C1232 C1231 1.398 . S
C1232 C1233 1.391 . S
C1233 H1221 0.950 . S
C1233 C1229 1.393 . S
C1233 C1232 1.391 . S
C1234 H1224 0.950 . S
C1234 C1235 1.386 . S
C1234 C1236 1.391 . S
C1235 C1234 1.386 . S
C1235 C1239 1.393 . S
C1236 H1225 0.950 . S
C1236 C1234 1.391 . S
C1236 C1237 1.400 . S
C1237 C1231 1.491 . S
C1237 C1236 1.400 . S
C1237 C1238 1.398 . S
C1238 H1226 0.950 . S
C1238 C1237 1.398 . S
C1238 C1239 1.391 . S
C1239 H1227 0.950 . S
C1239 C1235 1.393 . S
C1239 C1238 1.391 . S
H1240 C1248 0.950 . S
H1241 C1253 0.950 . S
H1242 C1250 0.950 . S
H1243 C1252 0.950 . S
H1244 C1254 0.950 . S
H1245 C1256 0.950 . S
H1246 C1258 0.950 . S
H1247 C1259 0.950 . S
C1248 H1240 0.950 . S
C1248 C1249 1.386 . S
C1248 C1250 1.391 . S
C1249 C1248 1.386 . S
C1249 C1253 1.393 . S
C1250 H1242 0.950 . S
C1250 C1248 1.391 . S
C1250 C1251 1.400 . S
C1251 C1250 1.400 . S
C1251 C1252 1.398 . S
C1251 C1257 1.491 . S
C1252 H1243 0.950 . S
C1252 C1251 1.398 . S
C1252 C1253 1.391 . S
C1253 H1241 0.950 . S
C1253 C1249 1.393 . S
C1253 C1252 1.391 . S
C1254 H1244 0.950 . S
C1254 C1255 1.386 . S
C1254 C1256 1.391 . S
C1255 C1254 1.386 . S
C1255 C1259 1.393 . S
C1256 H1245 0.950 . S
C1256 C1254 1.391 . S
C1256 C1257 1.400 . S
C1257 C1251 1.491 . S
C1257 C1256 1.400 . S
C1257 C1258 1.398 . S
C1258 H1246 0.950 . S
C1258 C1257 1.398 . S
C1258 C1259 1.391 . S
C1259 H1247 0.950 . S
C1259 C1255 1.393 . S
C1259 C1258 1.391 . S
H1260 C1268 0.950 . S
H1261 C1273 0.950 . S
H1262 C1270 0.950 . S
H1263 C1272 0.950 . S
H1264 C1274 0.950 . S
H1265 C1276 0.950 . S
H1266 C1278 0.950 . S
H1267 C1279 0.950 . S
C1268 H1260 0.950 . S
C1268 C1269 1.386 . S
C1268 C1270 1.391 . S
C1269 C1268 1.386 . S
C1269 C1273 1.393 . S
C1270 H1262 0.950 . S
C1270 C1268 1.391 . S
C1270 C1271 1.400 . S
C1271 C1270 1.400 . S
C1271 C1272 1.398 . S
C1271 C1277 1.491 . S
C1272 H1263 0.950 . S
C1272 C1271 1.398 . S
C1272 C1273 1.391 . S
C1273 H1261 0.950 . S
C1273 C1269 1.393 . S
C1273 C1272 1.391 . S
C1274 H1264 0.950 . S
C1274 C1275 1.386 . S
C1274 C1276 1.391 . S
C1275 C1274 1.386 . S
C1275 C1279 1.393 . S
C1276 H1265 0.950 . S
C1276 C1274 1.391 . S
C1276 C1277 1.400 . S
C1277 C1271 1.491 . S
C1277 C1276 1.400 . S
C1277 C1278 1.398 . S
C1278 H1266 0.950 . S
C1278 C1277 1.398 . S
C1278 C1279 1.391 . S
C1279 H1267 0.950 . S
C1279 C1275 1.393 . S
C1279 C1278 1.391 . S
H1280 C1288 0.950 . S
H1281 C1293 0.950 . S
H1282 C1290 0.950 . S
H1283 C1292 0.950 . S
H1284 C1294 0.950 . S
H1285 C1296 0.950 . S
H1286 C1298 0.950 . S
H1287 C1299 0.950 . S
C1288 H1280 0.950 . S
C1288 C1289 1.386 . S
C1288 C1290 1.391 . S
C1289 C1288 1.386 . S
C1289 C1293 1.393 . S
C1290 H1282 0.950 . S
C1290 C1288 1.391 . S
C1290 C1291 1.400 . S
C1291 C1290 1.400 . S
C1291 C1292 1.398 . S
C1291 C1297 1.491 . S
C1292 H1283 0.950 . S
C1292 C1291 1.398 . S
C1292 C1293 1.391 . S
C1293 H1281 0.950 . S
C1293 C1289 1.393 . S
C1293 C1292 1.391 . S
C1294 H1284 0.950 . S
C1294 C1295 1.386 . S
C1294 C1296 1.391 . S
C1295 C1294 1.386 . S
C1295 C1299 1.393 . S
C1296 H1285 0.950 . S
C1296 C1294 1.391 . S
C1296 C1297 1.400 . S
C1297 C1291 1.491 . S
C1297 C1296 1.400 . S
C1297 C1298 1.398 . S
C1298 H1286 0.950 . S
C1298 C1297 1.398 . S
C1298 C1299 1.391 . S
C1299 H1287 0.950 . S
C1299 C1295 1.393 . S
C1299 C1298 1.391 . S
H1300 C1308 0.950 . S
H1301 C1313 0.950 . S
H1302 C1310 0.950 . S
H1303 C1312 0.950 . S
H1304 C1314 0.950 . S
H1305 C1316 0.950 . S
H1306 C1318 0.950 . S
H1307 C1319 0.950 . S
C1308 H1300 0.950 . S
C1308 C1309 1.386 . S
C1308 C1310 1.391 . S
C1309 C1308 1.386 . S
C1309 C1313 1.393 . S
C1310 H1302 0.950 . S
C1310 C1308 1.391 . S
C1310 C1311 1.400 . S
C1311 C1310 1.400 . S
C1311 C1312 1.398 . S
C1311 C1317 1.491 . S
C1312 H1303 0.950 . S
C1312 C1311 1.398 . S
C1312 C1313 1.391 . S
C1313 H1301 0.950 . S
C1313 C1309 1.393 . S
C1313 C1312 1.391 . S
C1314 H1304 0.950 . S
C1314 C1315 1.386 . S
C1314 C1316 1.391 . S
C1315 C1314 1.386 . S
C1315 C1319 1.393 . S
C1316 H1305 0.950 . S
C1316 C1314 1.391 . S
C1316 C1317 1.400 . S
C1317 C1311 1.491 . S
C1317 C1316 1.400 . S
C1317 C1318 1.398 . S
C1318 H1306 0.950 . S
C1318 C1317 1.398 . S
C1318 C1319 1.391 . S
C1319 H1307 0.950 . S
C1319 C1315 1.393 . S
C1319 C1318 1.391 . S
H1320 C1328 0.950 . S
H1321 C1333 0.950 . S
H1322 C1330 0.950 . S
H1323 C1332 0.950 . S
H1324 C1334 0.950 . S
H1325 C1336 0.950 . S
H1326 C1338 0.950 . S
H1327 C1339 0.950 . S
C1328 H1320 0.950 . S
C1328 C1329 1.386 . S
C1328 C1330 1.391 . S
C1329 C1328 1.386 . S
C1329 C1333 1.393 . S
C1330 H1322 0.950 . S
C1330 C1328 1.391 . S
C1330 C1331 1.400 . S
C1331 C1330 1.400 . S
C1331 C1332 1.398 . S
C1331 C1337 1.491 . S
C1332 H1323 0.950 . S
C1332 C1331 1.398 . S
C1332 C1333 1.391 . S
C1333 H1321 0.950 . S
C1333 C1329 1.393 . S
C1333 C1332 1.391 . S
C1334 H1324 0.950 . S
C1334 C1335 1.386 . S
C1334 C1336 1.391 . S
C1335 C1334 1.386 . S
C1335 C1339 1.393 . S
C1336 H1325 0.950 . S
C1336 C1334 1.391 . S
C1336 C1337 1.400 . S
C1337 C1331 1.491 . S
C1337 C1336 1.400 . S
C1337 C1338 1.398 . S
C1338 H1326 0.950 . S
C1338 C1337 1.398 . S
C1338 C1339 1.391 . S
C1339 H1327 0.950 . S
C1339 C1335 1.393 . S
C1339 C1338 1.391 . S
H1340 C1348 0.950 . S
H1341 C1353 0.950 . S
H1342 C1350 0.950 . S
H1343 C1352 0.950 . S
H1344 C1354 0.950 . S
H1345 C1356 0.950 . S
H1346 C1358 0.950 . S
H1347 C1359 0.950 . S
C1348 H1340 0.950 . S
C1348 C1349 1.386 . S
C1348 C1350 1.391 . S
C1349 C1348 1.386 . S
C1349 C1353 1.393 . S
C1350 H1342 0.950 . S
C1350 C1348 1.391 . S
C1350 C1351 1.400 . S
C1351 C1350 1.400 . S
C1351 C1352 1.398 . S
C1351 C1357 1.491 . S
C1352 H1343 0.950 . S
C1352 C1351 1.398 . S
C1352 C1353 1.391 . S
C1353 H1341 0.950 . S
C1353 C1349 1.393 . S
C1353 C1352 1.391 . S
C1354 H1344 0.950 . S
C1354 C1355 1.386 . S
C1354 C1356 1.391 . S
C1355 C1354 1.386 . S
C1355 C1359 1.393 . S
C1356 H1345 0.950 . S
C1356 C1354 1.391 . S
C1356 C1357 1.400 . S
C1357 C1351 1.491 . S
C1357 C1356 1.400 . S
C1357 C1358 1.398 . S
C1358 H1346 0.950 . S
C1358 C1357 1.398 . S
C1358 C1359 1.391 . S
C1359 H1347 0.950 . S
C1359 C1355 1.393 . S
C1359 C1358 1.391 . S
H1360 C1368 0.950 . S
H1361 C1373 0.950 . S
H1362 C1370 0.950 . S
H1363 C1372 0.950 . S
H1364 C1374 0.950 . S
H1365 C1376 0.950 . S
H1366 C1378 0.950 . S
H1367 C1379 0.950 . S
C1368 H1360 0.950 . S
C1368 C1369 1.386 . S
C1368 C1370 1.391 . S
C1369 C1368 1.386 . S
C1369 C1373 1.393 . S
C1370 H1362 0.950 . S
C1370 C1368 1.391 . S
C1370 C1371 1.400 . S
C1371 C1370 1.400 . S
C1371 C1372 1.398 . S
C1371 C1377 1.491 . S
C1372 H1363 0.950 . S
C1372 C1371 1.398 . S
C1372 C1373 1.391 . S
C1373 H1361 0.950 . S
C1373 C1369 1.393 . S
C1373 C1372 1.391 . S
C1374 H1364 0.950 . S
C1374 C1375 1.386 . S
C1374 C1376 1.391 . S
C1375 C1374 1.386 . S
C1375 C1379 1.393 . S
C1376 H1365 0.950 . S
C1376 C1374 1.391 . S
C1376 C1377 1.400 . S
C1377 C1371 1.491 . S
C1377 C1376 1.400 . S
C1377 C1378 1.398 . S
C1378 H1366 0.950 . S
C1378 C1377 1.398 . S
C1378 C1379 1.391 . S
C1379 H1367 0.950 . S
C1379 C1375 1.393 . S
C1379 C1378 1.391 . S
H1380 C1388 0.950 . S
H1381 C1393 0.950 . S
H1382 C1390 0.950 . S
H1383 C1392 0.950 . S
H1384 C1394 0.950 . S
H1385 C1396 0.950 . S
H1386 C1398 0.950 . S
H1387 C1399 0.950 . S
C1388 H1380 0.950 . S
C1388 C1389 1.386 . S
C1388 C1390 1.391 . S
C1389 C1388 1.386 . S
C1389 C1393 1.393 . S
C1390 H1382 0.950 . S
C1390 C1388 1.391 . S
C1390 C1391 1.400 . S
C1391 C1390 1.400 . S
C1391 C1392 1.398 . S
C1391 C1397 1.491 . S
C1392 H1383 0.950 . S
C1392 C1391 1.398 . S
C1392 C1393 1.391 . S
C1393 H1381 0.950 . S
C1393 C1389 1.393 . S
C1393 C1392 1.391 . S
C1394 H1384 0.950 . S
C1394 C1395 1.386 . S
C1394 C1396 1.391 . S
C1395 C1394 1.386 . S
C1395 C1399 1.393 . S
C1396 H1385 0.950 . S
C1396 C1394 1.391 . S
C1396 C1397 1.400 . S
C1397 C1391 1.491 . S
C1397 C1396 1.400 . S
C1397 C1398 1.398 . S
C1398 H1386 0.950 . S
C1398 C1397 1.398 . S
C1398 C1399 1.391 . S
C1399 H1387 0.950 . S
C1399 C1395 1.393 . S
C1399 C1398 1.391 . S
H1400 C1408 0.950 . S
H1401 C1413 0.950 . S
H1402 C1410 0.950 . S
H1403 C1412 0.950 . S
H1404 C1414 0.950 . S
H1405 C1416 0.950 . S
H1406 C1418 0.950 . S
H1407 C1419 0.950 . S
C1408 H1400 0.950 . S
C1408 C1409 1.386 . S
C1408 C1410 1.391 . S
C1409 C1408 1.386 . S
C1409 C1413 1.393 . S
C1410 H1402 0.950 . S
C1410 C1408 1.391 . S
C1410 C1411 1.400 . S
C1411 C1410 1.400 . S
C1411 C1412 1.398 . S
C1411 C1417 1.491 . S
C1412 H1403 0.950 . S
C1412 C1411 1.398 . S
C1412 C1413 1.391 . S
C1413 H1401 0.950 . S
C1413 C1409 1.393 . S
C1413 C1412 1.391 . S
C1414 H1404 0.950 . S
C1414 C1415 1.386 . S
C1414 C1416 1.391 . S
C1415 C1414 1.386 . S
C1415 C1419 1.393 . S
C1416 H1405 0.950 . S
C1416 C1414 1.391 . S
C1416 C1417 1.400 . S
C1417 C1411 1.491 . S
C1417 C1416 1.400 . S
C1417 C1418 1.398 . S
C1418 H1406 0.950 . S
C1418 C1417 1.398 . S
C1418 C1419 1.391 . S
C1419 H1407 0.950 . S
C1419 C1415 1.393 . S
C1419 C1418 1.391 . S
H1420 C1428 0.950 . S
H1421 C1433 0.950 . S
H1422 C1430 0.950 . S
H1423 C1432 0.950 . S
H1424 C1434 0.950 . S
H1425 C1436 0.950 . S
H1426 C1438 0.950 . S
H1427 C1439 0.950 . S
C1428 H1420 0.950 . S
C1428 C1429 1.386 . S
C1428 C1430 1.391 . S
C1429 C1428 1.386 . S
C1429 C1433 1.393 . S
C1430 H1422 0.950 . S
C1430 C1428 1.391 . S
C1430 C1431 1.400 . S
C1431 C1430 1.400 . S
C1431 C1432 1.398 . S
C1431 C1437 1.491 . S
C1432 H1423 0.950 . S
C1432 C1431 1.398 . S
C1432 C1433 1.391 . S
C1433 H1421 0.950 . S
C1433 C1429 1.393 . S
C1433 C1432 1.391 . S
C1434 H1424 0.950 . S
C1434 C1435 1.386 . S
C1434 C1436 1.391 . S
C1435 C1434 1.386 . S
C1435 C1439 1.393 . S
C1436 H1425 0.950 . S
C1436 C1434 1.391 . S
C1436 C1437 1.400 . S
C1437 C1431 1.491 . S
C1437 C1436 1.400 . S
C1437 C1438 1.398 . S
C1438 H1426 0.950 . S
C1438 C1437 1.398 . S
C1438 C1439 1.391 . S
C1439 H1427 0.950 . S
C1439 C1435 1.393 . S
C1439 C1438 1.391 . S
H1440 C1448 0.950 . S
H1441 C1453 0.950 . S
H1442 C1450 0.950 . S
H1443 C1452 0.950 . S
H1444 C1454 0.950 . S
H1445 C1456 0.950 . S
H1446 C1458 0.950 . S
H1447 C1459 0.950 . S
C1448 H1440 0.950 . S
C1448 C1449 1.386 . S
C1448 C1450 1.391 . S
C1449 C1448 1.386 . S
C1449 C1453 1.393 . S
C1450 H1442 0.950 . S
C1450 C1448 1.391 . S
C1450 C1451 1.400 . S
C1451 C1450 1.400 . S
C1451 C1452 1.398 . S
C1451 C1457 1.491 . S
C1452 H1443 0.950 . S
C1452 C1451 1.398 . S
C1452 C1453 1.391 . S
C1453 H1441 0.950 . S
C1453 C1449 1.393 . S
C1453 C1452 1.391 . S
C1454 H1444 0.950 . S
C1454 C1455 1.386 . S
C1454 C1456 1.391 . S
C1455 C1454 1.386 . S
C1455 C1459 1.393 . S
C1456 H1445 0.950 . S
C1456 C1454 1.391 . S
C1456 C1457 1.400 . S
C1457 C1451 1.491 . S
C1457 C1456 1.400 . S
C1457 C1458 1.398 . S
C1458 H1446 0.950 . S
C1458 C1457 1.398 . S
C1458 C1459 1.391 . S
C1459 H1447 0.950 . S
C1459 C1455 1.393 . S
C1459 C1458 1.391 . S
H1460 C1468 0.950 . S
H1461 C1473 0.950 . S
H1462 C1470 0.950 . S
H1463 C1472 0.950 . S
H1464 C1474 0.950 . S
H1465 C1476 0.950 . S
H1466 C1478 0.950 . S
H1467 C1479 0.950 . S
C1468 H1460 0.950 . S
C1468 C1469 1.386 . S
C1468 C1470 1.391 . S
C1469 C1468 1.386 . S
C1469 C1473 1.393 . S
C1470 H1462 0.950 . S
C1470 C1468 1.391 . S
C1470 C1471 1.400 . S
C1471 C1470 1.400 . S
C1471 C1472 1.398 . S
C1471 C1477 1.491 . S
C1472 H1463 0.950 . S
C1472 C1471 1.398 . S
C1472 C1473 1.391 . S
C1473 H1461 0.950 . S
C1473 C1469 1.393 . S
C1473 C1472 1.391 . S
C1474 H1464 0.950 . S
C1474 C1475 1.386 . S
C1474 C1476 1.391 . S
C1475 C1474 1.386 . S
C1475 C1479 1.393 . S
C1476 H1465 0.950 . S
C1476 C1474 1.391 . S
C1476 C1477 1.400 . S
C1477 C1471 1.491 . S
C1477 C1476 1.400 . S
C1477 C1478 1.398 . S
C1478 H1466 0.950 . S
C1478 C1477 1.398 . S
C1478 C1479 1.391 . S
C1479 H1467 0.950 . S
C1479 C1475 1.393 . S
C1479 C1478 1.391 . S
H1480 C1488 0.950 . S
H1481 C1493 0.950 . S
H1482 C1490 0.950 . S
H1483 C1492 0.950 . S
H1484 C1494 0.950 . S
H1485 C1496 0.950 . S
H1486 C1498 0.950 . S
H1487 C1499 0.950 . S
C1488 H1480 0.950 . S
C1488 C1489 1.386 . S
C1488 C1490 1.391 . S
C1489 C1488 1.386 . S
C1489 C1493 1.393 . S
C1490 H1482 0.950 . S
C1490 C1488 1.391 . S
C1490 C1491 1.400 . S
C1491 C1490 1.400 . S
C1491 C1492 1.398 . S
C1491 C1497 1.491 . S
C1492 H1483 0.950 . S
C1492 C1491 1.398 . S
C1492 C1493 1.391 . S
C1493 H1481 0.950 . S
C1493 C1489 1.393 . S
C1493 C1492 1.391 . S
C1494 H1484 0.950 . S
C1494 C1495 1.386 . S
C1494 C1496 1.391 . S
C1495 C1494 1.386 . S
C1495 C1499 1.393 . S
C1496 H1485 0.950 . S
C1496 C1494 1.391 . S
C1496 C1497 1.400 . S
C1497 C1491 1.491 . S
C1497 C1496 1.400 . S
C1497 C1498 1.398 . S
C1498 H1486 0.950 . S
C1498 C1497 1.398 . S
C1498 C1499 1.391 . S
C1499 H1487 0.950 . S
C1499 C1495 1.393 . S
C1499 C1498 1.391 . S
H1500 C1508 0.950 . S
H1501 C1513 0.950 . S
H1502 C1510 0.950 . S
H1503 C1512 0.950 . S
H1504 C1514 0.950 . S
H1505 C1516 0.950 . S
H1506 C1518 0.950 . S
H1507 C1519 0.950 . S
C1508 H1500 0.950 . S
C1508 C1509 1.386 . S
C1508 C1510 1.391 . S
C1509 C1508 1.386 . S
C1509 C1513 1.393 . S
C1510 H1502 0.950 . S
C1510 C1508 1.391 . S
C1510 C1511 1.400 . S
C1511 C1510 1.400 . S
C1511 C1512 1.398 . S
C1511 C1517 1.491 . S
C1512 H1503 0.950 . S
C1512 C1511 1.398 . S
C1512 C1513 1.391 . S
C1513 H1501 0.950 . S
C1513 C1509 1.393 . S
C1513 C1512 1.391 . S
C1514 H1504 0.950 . S
C1514 C1515 1.386 . S
C1514 C1516 1.391 . S
C1515 C1514 1.386 . S
C1515 C1519 1.393 . S
C1516 H1505 0.950 . S
C1516 C1514 1.391 . S
C1516 C1517 1.400 . S
C1517 C1511 1.491 . S
C1517 C1516 1.400 . S
C1517 C1518 1.398 . S
C1518 H1506 0.950 . S
C1518 C1517 1.398 . S
C1518 C1519 1.391 . S
C1519 H1507 0.950 . S
C1519 C1515 1.393 . S
C1519 C1518 1.391 . S
H1520 C1528 0.950 . S
H1521 C1533 0.950 . S
H1522 C1530 0.950 . S
H1523 C1532 0.950 . S
H1524 C1534 0.950 . S
H1525 C1536 0.950 . S
H1526 C1538 0.950 . S
H1527 C1539 0.950 . S
C1528 H1520 0.950 . S
C1528 C1529 1.386 . S
C1528 C1530 1.391 . S
C1529 C1528 1.386 . S
C1529 C1533 1.393 . S
C1530 H1522 0.950 . S
C1530 C1528 1.391 . S
C1530 C1531 1.400 . S
C1531 C1530 1.400 . S
C1531 C1532 1.398 . S
C1531 C1537 1.491 . S
C1532 H1523 0.950 . S
C1532 C1531 1.398 . S
C1532 C1533 1.391 . S
C1533 H1521 0.950 . S
C1533 C1529 1.393 . S
C1533 C1532 1.391 . S
C1534 H1524 0.950 . S
C1534 C1535 1.386 . S
C1534 C1536 1.391 . S
C1535 C1534 1.386 . S
C1535 C1539 1.393 . S
C1536 H1525 0.950 . S
C1536 C1534 1.391 . S
C1536 C1537 1.400 . S
C1537 C1531 1.491 . S
C1537 C1536 1.400 . S
C1537 C1538 1.398 . S
C1538 H1526 0.950 . S
C1538 C1537 1.398 . S
C1538 C1539 1.391 . S
C1539 H1527 0.950 . S
C1539 C1535 1.393 . S
C1539 C1538 1.391 . S
H1540 C1548 0.950 . S
H1541 C1553 0.950 . S
H1542 C1550 0.950 . S
H1543 C1552 0.950 . S
H1544 C1554 0.950 . S
H1545 C1556 0.950 . S
H1546 C1558 0.950 . S
H1547 C1559 0.950 . S
C1548 H1540 0.950 . S
C1548 C1549 1.386 . S
C1548 C1550 1.391 . S
C1549 C1548 1.386 . S
C1549 C1553 1.393 . S
C1550 H1542 0.950 . S
C1550 C1548 1.391 . S
C1550 C1551 1.400 . S
C1551 C1550 1.400 . S
C1551 C1552 1.398 . S
C1551 C1557 1.491 . S
C1552 H1543 0.950 . S
C1552 C1551 1.398 . S
C1552 C1553 1.391 . S
C1553 H1541 0.950 . S
C1553 C1549 1.393 . S
C1553 C1552 1.391 . S
C1554 H1544 0.950 . S
C1554 C1555 1.386 . S
C1554 C1556 1.391 . S
C1555 C1554 1.386 . S
C1555 C1559 1.393 . S
C1556 H1545 0.950 . S
C1556 C1554 1.391 . S
C1556 C1557 1.400 . S
C1557 C1551 1.491 . S
C1557 C1556 1.400 . S
C1557 C1558 1.398 . S
C1558 H1546 0.950 . S
C1558 C1557 1.398 . S
C1558 C1559 1.391 . S
C1559 H1547 0.950 . S
C1559 C1555 1.393 . S
C1559 C1558 1.391 . S
H1560 C1568 0.950 . S
H1561 C1573 0.950 . S
H1562 C1570 0.950 . S
H1563 C1572 0.950 . S
H1564 C1574 0.950 . S
H1565 C1576 0.950 . S
H1566 C1578 0.950 . S
H1567 C1579 0.950 . S
C1568 H1560 0.950 . S
C1568 C1569 1.386 . S
C1568 C1570 1.391 . S
C1569 C1568 1.386 . S
C1569 C1573 1.393 . S
C1570 H1562 0.950 . S
C1570 C1568 1.391 . S
C1570 C1571 1.400 . S
C1571 C1570 1.400 . S
C1571 C1572 1.398 . S
C1571 C1577 1.491 . S
C1572 H1563 0.950 . S
C1572 C1571 1.398 . S
C1572 C1573 1.391 . S
C1573 H1561 0.950 . S
C1573 C1569 1.393 . S
C1573 C1572 1.391 . S
C1574 H1564 0.950 . S
C1574 C1575 1.386 . S
C1574 C1576 1.391 . S
C1575 C1574 1.386 . S
C1575 C1579 1.393 . S
C1576 H1565 0.950 . S
C1576 C1574 1.391 . S
C1576 C1577 1.400 . S
C1577 C1571 1.491 . S
C1577 C1576 1.400 . S
C1577 C1578 1.398 . S
C1578 H1566 0.950 . S
C1578 C1577 1.398 . S
C1578 C1579 1.391 . S
C1579 H1567 0.950 . S
C1579 C1575 1.393 . S
C1579 C1578 1.391 . S
H1580 C1588 0.950 . S
H1581 C1593 0.950 . S
H1582 C1590 0.950 . S
H1583 C1592 0.950 . S
H1584 C1594 0.950 . S
H1585 C1596 0.950 . S
H1586 C1598 0.950 . S
H1587 C1599 0.950 . S
C1588 H1580 0.950 . S
C1588 C1589 1.386 . S
C1588 C1590 1.391 . S
C1589 C1588 1.386 . S
C1589 C1593 1.393 . S
C1590 H1582 0.950 . S
C1590 C1588 1.391 . S
C1590 C1591 1.400 . S
C1591 C1590 1.400 . S
C1591 C1592 1.398 . S
C1591 C1597 1.491 . S
C1592 H1583 0.950 . S
C1592 C1591 1.398 . S
C1592 C1593 1.391 . S
C1593 H1581 0.950 . S
C1593 C1589 1.393 . S
C1593 C1592 1.391 . S
C1594 H1584 0.950 . S
C1594 C1595 1.386 . S
C1594 C1596 1.391 . S
C1595 C1594 1.386 . S
C1595 C1599 1.393 . S
C1596 H1585 0.950 . S
C1596 C1594 1.391 . S
C1596 C1597 1.400 . S
C1597 C1591 1.491 . S
C1597 C1596 1.400 . S
C1597 C1598 1.398 . S
C1598 H1586 0.950 . S
C1598 C1597 1.398 . S
C1598 C1599 1.391 . S
C1599 H1587 0.950 . S
C1599 C1595 1.393 . S
C1599 C1598 1.391 . S
C649 C23 2.246 . S
C655 C53 2.239 . S
C669 C103 1.194 . S
C675 C57 1.123 . S
C689 C133 1.989 . S
C695 C104 2.004 . S
C709 C24 1.108 . S
C715 C137 1.081 . S
C729 C13 1.102 . S
C735 C386 1.063 . S
C749 C282 2.240 . S
C755 C64 2.233 . S
C769 C82 1.195 . S
C775 C426 1.124 . S
C789 C144 1.995 . S
C795 C533 2.004 . S
C809 C322 1.203 . S
C815 C66 1.146 . S
C829 C504 1.989 . S
C835 C93 2.004 . S
C849 C573 1.089 . S
C855 C146 1.047 . S
C869 C2 2.238 . S
C875 C464 2.241 . S
C889 C26 0.388 . S
C895 C337 0.502 . S
C909 C503 1.734 . S
C915 C183 1.736 . S
C929 C226 0.533 . S
C935 C577 0.375 . S
C949 C463 1.738 . S
C955 C263 1.740 . S
C969 C106 0.550 . S
C975 C297 0.452 . S
C989 C362 1.735 . S
C995 C162 1.738 . S
C1009 C242 1.738 . S
C1015 C402 1.739 . S
C1029 C202 1.187 . S
C1035 C466 1.138 . S
C1049 C384 1.992 . S
C1055 C213 2.006 . S
C1069 C453 2.247 . S
C1075 C303 2.237 . S
C1089 C223 1.193 . S
C1095 C177 1.123 . S
C1109 C373 1.988 . S
C1115 C344 2.004 . S
C1129 C543 1.199 . S
C1135 C457 1.128 . S
C1149 C253 1.988 . S
C1155 C224 2.000 . S
C1169 C377 1.064 . S
C1175 C584 1.103 . S
C1189 C546 0.531 . S
C1195 C17 0.375 . S
C1209 C97 0.569 . S
C1215 C586 0.445 . S
C1229 C482 1.736 . S
C1235 C42 1.739 . S
C1249 C306 0.393 . S
C1255 C217 0.564 . S
C1269 C143 1.738 . S
C1275 C423 1.739 . S
C1289 C493 1.990 . S
C1295 C544 2.000 . S
C1309 C304 1.103 . S
C1315 C497 1.063 . S
C1329 C266 1.086 . S
C1335 C293 1.107 . S
C1349 C186 1.125 . S
C1355 C522 1.189 . S
C1369 C506 1.060 . S
C1375 C613 1.101 . S
C1389 C617 0.387 . S
C1395 C346 0.557 . S
C1409 C63 1.734 . S
C1415 C383 1.737 . S
C1429 C333 2.006 . S
C1435 C264 1.996 . S
C1449 C343 1.204 . S
C1455 C417 1.150 . S
C1469 C624 1.083 . S
C1475 C257 1.049 . S
C1489 C537 0.575 . S
C1495 C626 0.414 . S
C1509 C442 1.739 . S
C1515 C122 1.739 . S
C1529 C413 2.241 . S
C1535 C583 2.245 . S
C1549 C424 2.237 . S
C1555 C602 2.246 . S
C1569 C184 2.231 . S
C1575 C562 2.241 . S
C1589 C623 2.238 . S
C1595 C173 2.241 . S
