# Generated by pormake.
# Topology ukg, (4)-cn, num edge types: 1
# Building blocks:
#     Node 0, Type 0, BuildingBlock: KUFVIS_clean_sbu_0, # of connection points: 4
#     Node 1, Type 0, BuildingBlock: KUFVIS_clean_sbu_0, # of connection points: 4
#     Node 2, Type 0, BuildingBlock: KUFVIS_clean_sbu_0, # of connection points: 4
#     Node 3, Type 0, BuildingBlock: KUFVIS_clean_sbu_0, # of connection points: 4
#     Node 4, Type 0, BuildingBlock: KUFVIS_clean_sbu_0, # of connection points: 4
#     Node 5, Type 0, BuildingBlock: KUFVIS_clean_sbu_0, # of connection points: 4
#     Node 6, Type 0, BuildingBlock: KUFVIS_clean_sbu_0, # of connection points: 4
#     Node 7, Type 0, BuildingBlock: KUFVIS_clean_sbu_0, # of connection points: 4
#     Edge 8, Type (0, 0), BuildingBlock: AJUNOK_clean_linker_0, # of connection points: 2
#     Edge 9, Type (0, 0), BuildingBlock: AJUNOK_clean_linker_0, # of connection points: 2
#     Edge 10, Type (0, 0), BuildingBlock: AJUNOK_clean_linker_0, # of connection points: 2
#     Edge 11, Type (0, 0), BuildingBlock: AJUNOK_clean_linker_0, # of connection points: 2
#     Edge 12, Type (0, 0), BuildingBlock: AJUNOK_clean_linker_0, # of connection points: 2
#     Edge 13, Type (0, 0), BuildingBlock: AJUNOK_clean_linker_0, # of connection points: 2
#     Edge 14, Type (0, 0), BuildingBlock: AJUNOK_clean_linker_0, # of connection points: 2
#     Edge 15, Type (0, 0), BuildingBlock: AJUNOK_clean_linker_0, # of connection points: 2
#     Edge 16, Type (0, 0), BuildingBlock: AJUNOK_clean_linker_0, # of connection points: 2
#     Edge 17, Type (0, 0), BuildingBlock: AJUNOK_clean_linker_0, # of connection points: 2
#     Edge 18, Type (0, 0), BuildingBlock: AJUNOK_clean_linker_0, # of connection points: 2
#     Edge 19, Type (0, 0), BuildingBlock: AJUNOK_clean_linker_0, # of connection points: 2
#     Edge 20, Type (0, 0), BuildingBlock: AJUNOK_clean_linker_0, # of connection points: 2
#     Edge 21, Type (0, 0), BuildingBlock: AJUNOK_clean_linker_0, # of connection points: 2
#     Edge 22, Type (0, 0), BuildingBlock: AJUNOK_clean_linker_0, # of connection points: 2
#     Edge 23, Type (0, 0), BuildingBlock: AJUNOK_clean_linker_0, # of connection points: 2
# Relax obj value: 0.155
# Max RMSD: 0.247
# Mean RMSD: 0.247
data_MOF--net-ukg--node1-KUFVIS_clean_sbu_0--edge1-AJUNOK_clean_linker_0
_symmetry_space_group_name_H-M    P1
_symmetry_Int_Tables_number       1
_symmetry_cell_setting            triclinic
loop_
_symmetry_equiv_pos_as_xyz
'x, y, z'
_cell_length_a     22.486245
_cell_length_b     22.492017
_cell_length_c     25.334987
_cell_angle_alpha  90.01114
_cell_angle_beta   90.003796
_cell_angle_gamma 90.034287
loop_
_atom_site_label
_atom_site_type_symbol
_atom_site_fract_x
_atom_site_fract_y
_atom_site_fract_z
_atom_type_partial_charge
Mn0 Mn 0.02545 0.67366 0.19373 0.0
Mn1 Mn 0.0122 0.74742 0.07945 0.0
C2 C 0.00424 0.77397 0.19493 0.0
C3 C 0.97629 0.61737 0.25719 0.0
C4 C 0.13121 0.71918 0.12974 0.0
O5 O 0.01968 0.60699 0.13968 0.0
O6 O 0.00713 0.6595 0.0653 0.0
C7 C 0.88592 0.71611 0.06382 0.0
N8 N 0.92912 0.75836 0.0674 0.0
C9 C 0.8566 0.83697 0.06545 0.0
C10 C 0.81144 0.79427 0.06148 0.0
C11 C 0.82613 0.73358 0.06089 0.0
C12 C 0.91536 0.81687 0.06899 0.0
H13 H 0.89691 0.66939 0.0647 0.0
C14 C 0.01168 0.60978 0.08996 0.0
O15 O 0.0339 0.61397 0.25281 0.0
O16 O 0.94851 0.65118 0.22435 0.0
N17 N 0.01574 0.83216 0.08643 0.0
C18 C 0.06407 0.86737 0.09538 0.0
C19 C 0.05695 0.92935 0.09776 0.0
C20 C 1.00027 0.95445 0.09112 0.0
C21 C 0.9513 0.91734 0.08162 0.0
C22 C 0.96137 0.856 0.07832 0.0
H23 H 0.10773 0.84835 0.10074 0.0
O24 O 0.02501 0.7478 0.23656 0.0
O25 O 0.99498 0.73962 0.15436 0.0
O26 O 0.11115 0.69201 0.17052 0.0
O27 O 0.09823 0.7395 0.09269 0.0
C28 C 0.89275 0.93871 0.07618 0.0
C29 C 0.84535 0.8985 0.06863 0.0
H30 H 0.76531 0.80767 0.06089 0.0
H31 H 0.7915 0.70025 0.05948 0.0
H32 H 0.095 0.95769 0.10498 0.0
H33 H 0.99485 1.00223 0.0936 0.0
H34 H 0.88355 0.98589 0.07878 0.0
H35 H 0.8003 0.91529 0.06599 0.0
Mn36 Mn 0.33989 0.52644 0.68629 0.0
Mn37 Mn 0.25669 0.51393 0.57703 0.0
C38 C 0.23944 0.50736 0.69375 0.0
C39 C 0.39859 0.47691 0.74778 0.0
C40 C 0.29031 0.63247 0.62521 0.0
O41 O 0.40236 0.51952 0.62814 0.0
O42 O 0.34318 0.50798 0.55758 0.0
C43 C 0.28527 0.38719 0.56162 0.0
N44 N 0.24382 0.43093 0.56636 0.0
C45 C 0.1644 0.35927 0.57044 0.0
C46 C 0.20623 0.31354 0.56509 0.0
C47 C 0.26695 0.32758 0.56106 0.0
C48 C 0.18538 0.41786 0.57162 0.0
H49 H 0.33209 0.39768 0.55992 0.0
C50 C 0.395 0.51199 0.57863 0.0
O51 O 0.40322 0.5343 0.74247 0.0
O52 O 0.36324 0.44935 0.71604 0.0
N53 N 0.17269 0.51857 0.58886 0.0
C54 C 0.13884 0.56744 0.59933 0.0
C55 C 0.0771 0.5611 0.60558 0.0
C56 C 0.05083 0.50467 0.60107 0.0
C57 C 0.0865 0.45517 0.58972 0.0
C58 C 0.14757 0.46446 0.58257 0.0
H59 H 0.15878 0.61091 0.60316 0.0
O60 O 0.26928 0.52753 0.73361 0.0
O61 O 0.27025 0.49692 0.65126 0.0
O62 O 0.3209 0.61222 0.66396 0.0
O63 O 0.26664 0.59977 0.58955 0.0
C64 C 0.06405 0.39682 0.58634 0.0
C65 C 0.10307 0.34882 0.57724 0.0
H66 H 0.19229 0.26752 0.56588 0.0
H67 H 0.29979 0.29266 0.55897 0.0
H68 H 0.0499 0.59954 0.6143 0.0
H69 H 0.00332 0.49981 0.6067 0.0
H70 H 0.01706 0.38822 0.59189 0.0
H71 H 0.08558 0.30394 0.57633 0.0
Mn72 Mn 0.49113 0.83269 0.18105 0.0
Mn73 Mn 0.49368 0.75981 0.06473 0.0
C74 C 0.51134 0.73227 0.17953 0.0
C75 C 0.54058 0.8878 0.24561 0.0
C76 C 0.38012 0.78803 0.12337 0.0
O77 O 0.49511 0.90012 0.12747 0.0
O78 O 0.49639 0.84818 0.05174 0.0
C79 C 0.61236 0.79174 0.02338 0.0
N80 N 0.57395 0.74971 0.04172 0.0
C81 C 0.64191 0.67103 0.01919 0.0
C82 C 0.68204 0.71351 0.99995 0.0
C83 C 0.66701 0.77407 1.00178 0.0
C84 C 0.58747 0.69118 0.03912 0.0
H85 H 0.60084 0.83832 0.02406 0.0
C86 C 0.49669 0.8977 0.07717 0.0
O87 O 0.48309 0.89068 0.24107 0.0
O88 O 0.56889 0.85535 0.21178 0.0
N89 N 0.49203 0.67497 0.07147 0.0
C90 C 0.44612 0.63926 0.08673 0.0
C91 C 0.45374 0.57729 0.08685 0.0
C92 C 0.50808 0.55263 0.07058 0.0
C93 C 0.55426 0.59019 0.05406 0.0
C94 C 0.54432 0.65166 0.05532 0.0
H95 H 0.40411 0.6579 0.09903 0.0
O96 O 0.49284 0.75815 0.22219 0.0
O97 O 0.51976 0.76671 0.13859 0.0
O98 O 0.40369 0.81597 0.16202 0.0
O99 O 0.40987 0.76617 0.08522 0.0
C100 C 0.60944 0.56902 0.03567 0.0
C101 C 0.65312 0.6094 1.01796 0.0
H102 H 0.72407 0.70008 0.98285 0.0
H103 H 0.69727 0.80704 0.98606 0.0
H104 H 0.41771 0.54857 0.09922 0.0
H105 H 0.51363 0.50479 0.07036 0.0
H106 H 0.61839 0.52173 0.03419 0.0
H107 H 0.69497 0.59256 1.00298 0.0
Mn108 Mn 0.17691 0.99038 0.68567 0.0
Mn109 Mn 0.24862 0.99414 0.56899 0.0
C110 C 0.27753 0.00888 0.68383 0.0
C111 C 0.12319 0.04071 0.75027 0.0
C112 C 0.21835 0.87996 0.62594 0.0
O113 O 0.10926 0.99575 0.63268 0.0
O114 O 0.16021 1.00003 0.5565 0.0
C115 C 0.22105 0.11457 0.52941 0.0
N116 N 0.2616 0.07457 0.54762 0.0
C117 C 0.34281 0.14 0.52598 0.0
C118 C 0.30189 0.18162 0.50669 0.0
C119 C 0.2408 0.16879 0.50831 0.0
C120 C 0.32062 0.08615 0.54549 0.0
H121 H 0.17409 0.10453 0.52962 0.0
C122 C 0.11103 0.99965 0.58251 0.0
O123 O 0.11913 0.98324 0.74598 0.0
O124 O 0.15595 0.06832 0.71626 0.0
N125 N 0.33337 0.98936 0.57562 0.0
C126 C 0.36741 0.94185 0.58992 0.0
C127 C 0.42962 0.94739 0.59051 0.0
C128 C 0.45624 1.00126 0.57548 0.0
C129 C 0.42038 0.04904 0.55972 0.0
C130 C 0.35857 0.04126 0.5608 0.0
H131 H 0.3473 0.90016 0.60122 0.0
O132 O 0.25161 0.99054 0.72653 0.0
O133 O 0.24292 0.01851 0.64324 0.0
O134 O 0.19228 0.903 0.66584 0.0
O135 O 0.23939 0.9102 0.58774 0.0
C136 C 0.44359 0.10371 0.54209 0.0
C137 C 0.40484 0.14899 0.5248 0.0
H138 H 0.317 0.22304 0.4895 0.0
H139 H 0.20905 0.20019 0.49246 0.0
H140 H 0.457 0.91012 0.60228 0.0
H141 H 0.50426 0.0052 0.57556 0.0
H142 H 0.49119 0.11097 0.54068 0.0
H143 H 0.42323 0.19033 0.51011 0.0
Mn144 Mn 0.99526 0.33245 0.85617 0.0
Mn145 Mn 0.99202 0.25147 0.96795 0.0
C146 C 0.01284 0.23166 0.85256 0.0
C147 C 0.04985 0.39033 0.79733 0.0
C148 C 0.88131 0.28755 0.90813 0.0
O149 O 0.99803 0.39581 0.91363 0.0
O150 O 0.99958 0.33826 0.98613 0.0
C151 C 0.11316 0.27297 1.0094 0.0
N152 N 0.07132 0.23467 0.99059 0.0
C153 C 0.13461 0.15044 1.00731 0.0
C154 C 0.17815 0.18895 0.02716 0.0
C155 C 0.16736 0.25046 0.02826 0.0
C156 C 0.08112 0.17532 0.98974 0.0
H157 H 0.10488 0.32023 1.01078 0.0
C158 C 1.00032 0.38954 0.96366 0.0
O159 O 0.99224 0.3948 0.79931 0.0
O160 O 0.07511 0.35479 0.83055 0.0
N161 N 0.98527 0.16758 0.95603 0.0
C162 C 0.93755 0.13605 0.93811 0.0
C163 C 0.94124 0.07387 0.93443 0.0
C164 C 0.99362 0.04465 0.94978 0.0
C165 C 0.04183 0.07793 0.96875 0.0
C166 C 0.03568 0.13985 0.97128 0.0
H167 H 0.89701 0.15812 0.92646 0.0
O168 O 0.99737 0.26093 0.8107 0.0
O169 O 0.01998 0.26297 0.89547 0.0
O170 O 0.90682 0.31629 0.87094 0.0
O171 O 0.90909 0.26432 0.94687 0.0
C172 C 0.09558 0.05204 0.98562 0.0
C173 C 0.1419 0.08826 1.00501 0.0
H174 H 0.21964 0.17156 0.04233 0.0
H175 H 0.20034 0.28034 0.04435 0.0
H176 H 0.90373 0.0485 0.91994 0.0
H177 H 0.99621 0.99665 0.94713 0.0
H178 H 0.10159 0.00427 0.98423 0.0
H179 H 0.18287 0.06782 1.01827 0.0
Mn180 Mn 0.67634 0.48884 0.34376 0.0
Mn181 Mn 0.74982 0.49677 0.45927 0.0
C182 C 0.77756 0.5058 0.3443 0.0
C183 C 0.6228 0.53967 0.27875 0.0
C184 C 0.71817 0.38023 0.40637 0.0
O185 O 0.60908 0.49584 0.39775 0.0
O186 O 0.66211 0.50445 0.47244 0.0
C187 C 0.72336 0.62363 0.47757 0.0
N188 N 0.76382 0.57889 0.47361 0.0
C189 C 0.84541 0.64771 0.48093 0.0
C190 C 0.80458 0.69443 0.48563 0.0
C191 C 0.74331 0.68234 0.4836 0.0
C192 C 0.82292 0.59013 0.47444 0.0
H193 H 0.67626 0.61468 0.47494 0.0
C194 C 0.61225 0.5021 0.44778 0.0
O195 O 0.61755 0.48232 0.28372 0.0
O196 O 0.6563 0.56677 0.31244 0.0
N197 N 0.83451 0.49014 0.45361 0.0
C198 C 0.86794 0.44089 0.44348 0.0
C199 C 0.93022 0.44553 0.44267 0.0
C200 C 0.95749 0.50062 0.45243 0.0
C201 C 0.92221 0.5505 0.46335 0.0
C202 C 0.86038 0.54293 0.46465 0.0
H203 H 0.84729 0.39842 0.43576 0.0
O204 O 0.75117 0.48748 0.30184 0.0
O205 O 0.74317 0.51622 0.38456 0.0
O206 O 0.69176 0.402 0.3659 0.0
O207 O 0.73907 0.41174 0.44411 0.0
C208 C 0.94589 0.60769 0.47188 0.0
C209 C 0.90749 0.65637 0.48023 0.0
H210 H 0.81993 0.73984 0.48929 0.0
H211 H 0.71149 0.71818 0.48556 0.0
H212 H 0.95712 0.4068 0.43422 0.0
H213 H 0.00552 0.50418 0.45116 0.0
H214 H 0.99351 0.61495 0.47101 0.0
H215 H 0.92614 0.70041 0.48532 0.0
Mn216 Mn 0.52032 0.17895 0.84614 0.0
Mn217 Mn 0.51899 0.25709 0.9597 0.0
C218 C 0.50459 0.28028 0.84418 0.0
C219 C 0.46808 0.12337 0.78359 0.0
C220 C 0.63211 0.22123 0.90363 0.0
O221 O 0.51365 0.11396 0.90228 0.0
O222 O 0.50972 0.17004 0.9756 0.0
C223 C 0.39409 0.23522 0.99067 0.0
N224 N 0.43856 0.27396 0.97862 0.0
C225 C 0.37411 0.35803 0.99216 0.0
C226 C 0.32774 0.31902 1.00499 0.0
C227 C 0.33777 0.25738 1.00409 0.0
C228 C 0.42933 0.3334 0.97909 0.0
H229 H 0.40153 0.1878 0.98991 0.0
C230 C 0.50935 0.11924 0.95236 0.0
O231 O 0.52543 0.11803 0.78809 0.0
O232 O 0.44153 0.15843 0.81644 0.0
N233 N 0.52724 0.34129 0.9505 0.0
C234 C 0.57626 0.37292 0.93575 0.0
C235 C 0.57328 0.43524 0.93348 0.0
C236 C 0.52016 0.46443 0.94672 0.0
C237 C 0.47058 0.43103 0.96245 0.0
C238 C 0.47629 0.36904 0.96427 0.0
H239 H 0.61728 0.35083 0.92553 0.0
O240 O 0.52155 0.25199 0.80223 0.0
O241 O 0.49495 0.24778 0.88592 0.0
O242 O 0.60807 0.19352 0.86504 0.0
O243 O 0.60284 0.24393 0.9418 0.0
C244 C 0.41563 0.4568 0.97613 0.0
C245 C 0.36738 0.42031 0.99088 0.0
H246 H 0.28419 0.33604 1.01505 0.0
H247 H 0.30226 0.22696 1.01359 0.0
H248 H 0.61183 0.46072 0.92153 0.0
H249 H 0.51798 0.5125 0.94478 0.0
H250 H 0.4099 0.5046 0.97516 0.0
H251 H 0.32515 0.44058 1.00082 0.0
Mn252 Mn 0.82768 0.01788 0.355 0.0
Mn253 Mn 0.74901 0.01857 0.46799 0.0
C254 C 0.72669 1.00111 0.35247 0.0
C255 C 0.88311 0.96316 0.29425 0.0
C256 C 0.78444 0.13078 0.41 0.0
O257 O 0.89228 0.01324 0.41109 0.0
O258 O 0.83641 0.01201 0.48459 0.0
C259 C 0.77278 0.89849 0.51045 0.0
N260 N 0.7338 0.93878 0.49015 0.0
C261 C 0.65074 0.87425 0.50805 0.0
C262 C 0.68999 0.83228 0.52933 0.0
C263 C 0.75122 0.84453 0.53068 0.0
C264 C 0.67464 0.92776 0.4894 0.0
H265 H 0.81978 0.90807 0.51243 0.0
C266 C 0.88719 0.01111 0.4612 0.0
O267 O 0.8888 0.02067 0.29675 0.0
O268 O 0.84825 0.93828 0.3282 0.0
N269 N 0.66481 0.02417 0.45747 0.0
C270 C 0.6322 0.07188 0.44124 0.0
C271 C 0.57004 0.06705 0.43795 0.0
C272 C 0.54196 0.01366 0.45222 0.0
C273 C 0.57631 0.96566 0.46999 0.0
C274 C 0.63818 0.97279 0.47175 0.0
H275 H 0.65343 0.1132 0.4305 0.0
O276 O 0.75544 0.01763 0.31066 0.0
O277 O 0.7587 0.99229 0.3948 0.0
O278 O 0.81275 0.10638 0.37189 0.0
O279 O 0.76054 0.10175 0.44766 0.0
C280 C 0.55149 0.9114 0.48689 0.0
C281 C 0.58865 0.86588 0.50628 0.0
H282 H 0.67343 0.79102 0.54575 0.0
H283 H 0.7816 0.81296 0.54824 0.0
H284 H 0.5438 0.1045 0.42466 0.0
H285 H 0.49396 0.01028 0.45006 0.0
H286 H 0.5038 0.90463 0.48607 0.0
H287 H 0.56896 0.82485 0.52029 0.0
C288 C 0.99955 0.50143 0.97359 0.0
C289 C 0.00341 0.44468 0.99718 0.0
C290 C 1.00182 0.55399 1.0037 0.0
C291 C 0.00823 0.55275 0.05905 0.0
H292 H 0.99458 0.50563 0.93123 0.0
H293 H 0.99868 0.59605 0.98308 0.0
S294 S 0.02072 0.41584 0.14088 0.0
N295 N 0.0142 0.39086 0.07994 0.0
N296 N 0.01844 0.48897 0.13627 0.0
C297 C 0.01213 0.49626 0.0833 0.0
C298 C 0.00975 0.44264 0.05256 0.0
C299 C 0.50662 0.51267 0.56627 0.0
C300 C 0.44927 0.50884 0.54388 0.0
C301 C 0.55835 0.511 0.53503 0.0
C302 C 0.55576 0.5054 0.47959 0.0
H303 H 0.51195 0.51708 0.60857 0.0
H304 H 0.6009 0.51399 0.5549 0.0
S305 S 0.41682 0.4941 0.40044 0.0
N306 N 0.39336 0.4994 0.46198 0.0
N307 N 0.49009 0.49633 0.40359 0.0
C308 C 0.49869 0.50167 0.45649 0.0
C309 C 0.44583 0.50331 0.48841 0.0
C310 C 0.50363 0.95422 0.9909 0.0
C311 C 0.49915 0.95499 0.04646 0.0
C312 C 0.50636 0.00707 0.96114 0.0
C313 C 0.50476 0.06365 0.98527 0.0
H314 H 0.50534 0.91232 0.9699 0.0
H315 H 0.51008 0.00325 0.91865 0.0
S316 S 0.49218 0.09124 0.12967 0.0
N317 N 0.49251 0.01815 0.12436 0.0
N318 N 0.49752 0.11671 0.0688 0.0
C319 C 0.49985 0.06517 0.04084 0.0
C320 C 0.49712 0.01129 0.0712 0.0
C321 C 0.99922 0.00504 0.46834 0.0
C322 C 0.94324 0.00799 0.49353 0.0
C323 C 0.05269 1.00273 0.49717 0.0
C324 C 0.05318 0.00318 0.55281 0.0
H325 H 1.0021 0.00445 0.42568 0.0
H326 H 0.09404 1.00034 0.47537 0.0
S327 S 0.91905 0.01159 0.63871 0.0
N328 N 0.89213 0.01189 0.57812 0.0
N329 N 0.99193 0.00767 0.63209 0.0
C330 C 0.99751 0.00636 0.57867 0.0
C331 C 0.94296 0.0087 0.54922 0.0
C332 C 0.22789 0.74302 0.17404 0.0
C333 C 0.19535 0.73392 0.12722 0.0
C334 C 0.28693 0.76326 0.17267 0.0
C335 C 0.31576 0.77445 0.12442 0.0
H336 H 0.20729 0.73559 0.21213 0.0
H337 H 0.31056 0.76873 0.20962 0.0
S338 S 0.25039 0.75776 0.99066 0.0
N339 N 0.19652 0.73789 0.03124 0.0
N340 N 0.30725 0.77556 0.02871 0.0
C341 C 0.28373 0.76557 0.07736 0.0
C342 C 0.22366 0.7454 0.07875 0.0
C343 C 0.26862 0.72795 0.67205 0.0
C344 C 0.27482 0.69637 0.62435 0.0
C345 C 0.24716 0.78651 0.67266 0.0
C346 C 0.23172 0.81571 0.62555 0.0
H347 H 0.2793 0.70694 0.70933 0.0
H348 H 0.24427 0.80958 0.71011 0.0
S349 S 0.23937 0.75276 0.49028 0.0
N350 N 0.26342 0.69877 0.52886 0.0
N351 N 0.22336 0.80862 0.53005 0.0
C352 C 0.23752 0.78459 0.57767 0.0
C353 C 0.25902 0.72505 0.57705 0.0
C354 C 0.72639 0.2439 0.95075 0.0
C355 C 0.6966 0.23401 0.90274 0.0
C356 C 0.78536 0.26333 0.95184 0.0
C357 C 0.81697 0.27448 0.90497 0.0
H358 H 0.70382 0.23682 0.98802 0.0
H359 H 0.80646 0.26949 0.98991 0.0
S360 S 0.75937 0.25603 0.76867 0.0
N361 N 0.7029 0.23727 0.80691 0.0
N362 N 0.81434 0.27374 0.80897 0.0
C363 C 0.7878 0.2651 0.85654 0.0
C364 C 0.72761 0.24462 0.85542 0.0
C365 C 0.74078 0.28393 0.3606 0.0
C366 C 0.73194 0.31582 0.40783 0.0
C367 C 0.76096 0.2248 0.36126 0.0
C368 C 0.77254 0.19543 0.40918 0.0
H369 H 0.7332 0.30509 0.32279 0.0
H370 H 0.76592 0.2015 0.3241 0.0
S371 S 0.75688 0.25901 0.54371 0.0
N372 N 0.7365 0.31326 0.5038 0.0
N373 N 0.77459 0.20282 0.50493 0.0
C374 C 0.76414 0.22692 0.45657 0.0
C375 C 0.74375 0.28684 0.45594 0.0
C376 C 0.84752 0.59041 0.34574 0.0
C377 C 0.83841 0.52913 0.33949 0.0
C378 C 0.89812 0.61795 0.32489 0.0
C379 C 0.94093 0.58521 0.29671 0.0
H380 H 0.81284 0.61808 0.3624 0.0
H381 H 0.90083 0.66605 0.32632 0.0
S382 S 0.94092 0.42256 0.27523 0.0
N383 N 0.87869 0.43554 0.30796 0.0
N384 N 0.97424 0.48767 0.26861 0.0
C385 C 0.93513 0.52325 0.29448 0.0
C386 C 0.88334 0.49515 0.31554 0.0
C387 C 0.49028 0.43385 0.78737 0.0
C388 C 0.42847 0.44209 0.78913 0.0
C389 C 0.51637 0.38362 0.81092 0.0
C390 C 0.48146 0.341 0.83742 0.0
H391 H 0.51764 0.46267 0.76319 0.0
H392 H 0.56337 0.37557 0.80476 0.0
S393 S 0.31825 0.34585 0.85642 0.0
N394 N 0.33387 0.40712 0.82331 0.0
N395 N 0.3826 0.3123 0.86614 0.0
C396 C 0.42041 0.35167 0.84308 0.0
C397 C 0.39402 0.40261 0.81939 0.0
C398 C 0.61327 0.88669 0.31935 0.0
C399 C 0.57406 0.91924 0.28713 0.0
C400 C 0.65836 0.91519 0.34816 0.0
C401 C 0.66651 0.97694 0.34435 0.0
H402 H 0.61179 0.83853 0.31925 0.0
H403 H 0.69083 0.88811 0.36867 0.0
S404 S 0.57129 0.08255 0.27052 0.0
N405 N 0.54163 0.01674 0.25828 0.0
N406 N 0.62826 0.07023 0.31022 0.0
C407 C 0.6245 0.01027 0.31583 0.0
C408 C 0.57769 0.98139 0.28767 0.0
C409 C 0.00351 0.12987 0.81593 0.0
C410 C 0.03711 0.17154 0.84482 0.0
C411 C 0.03099 0.08189 0.79015 0.0
C412 C 0.09299 0.07519 0.79168 0.0
H413 H 0.95641 0.13721 0.80968 0.0
H414 H 0.0044 0.05369 0.76472 0.0
S415 S 0.20007 0.16873 0.86568 0.0
N416 N 0.1348 0.19991 0.87685 0.0
N417 N 0.18649 0.11014 0.82821 0.0
C418 C 0.12633 0.11359 0.8239 0.0
C419 C 0.09834 0.16182 0.8506 0.0
C420 C 0.13006 0.38951 0.73053 0.0
C421 C 0.08679 0.42195 0.75841 0.0
C422 C 0.1763 0.41835 0.70377 0.0
C423 C 0.18105 0.48055 0.70452 0.0
H424 H 0.1303 0.34137 0.73222 0.0
H425 H 0.21127 0.39164 0.68637 0.0
S426 S 0.07642 0.58574 0.76794 0.0
N427 N 0.04849 0.51942 0.78129 0.0
N428 N 0.13689 0.57385 0.73241 0.0
C429 C 0.13607 0.51356 0.72945 0.0
C430 C 0.08826 0.48417 0.75586 0.0
C431 C 0.53077 0.58027 0.23746 0.0
C432 C 0.59292 0.57477 0.2373 0.0
C433 C 0.50309 0.6286 0.21227 0.0
C434 C 0.53658 0.67206 0.18533 0.0
H435 H 0.50401 0.55079 0.26155 0.0
H436 H 0.4557 0.63481 0.21771 0.0
S437 S 0.70003 0.6724 0.16744 0.0
N438 N 0.68659 0.6125 0.20326 0.0
N439 N 0.63452 0.70289 0.15587 0.0
C440 C 0.5981 0.66346 0.18052 0.0
C441 C 0.62629 0.61482 0.2066 0.0
C442 C 0.39157 0.12414 0.71294 0.0
C443 C 0.43273 0.09174 0.74337 0.0
C444 C 0.34524 0.09546 0.6859 0.0
C445 C 0.33784 0.03362 0.68967 0.0
H446 H 0.39263 0.17231 0.71321 0.0
H447 H 0.31149 0.12239 0.66693 0.0
S448 S 0.43795 0.92831 0.75861 0.0
N449 N 0.46758 0.99431 0.77012 0.0
N450 N 0.37883 0.94042 0.72141 0.0
C451 C 0.38169 1.00047 0.71612 0.0
C452 C 0.42969 0.02956 0.74251 0.0
C453 C 0.005 0.87984 0.2237 0.0
C454 C 0.97357 0.83104 0.20279 0.0
C455 C 0.97501 0.92706 0.24859 0.0
C456 C 0.91292 0.92566 0.25449 0.0
H457 H 0.05318 0.87942 0.22409 0.0
H458 H 1.00082 0.96175 0.26746 0.0
S459 S 0.8102 0.8099 0.20394 0.0
N460 N 0.87704 0.78609 0.18723 0.0
N461 N 0.82075 0.87448 0.2335 0.0
C462 C 0.88094 0.87928 0.2304 0.0
C463 C 0.91128 0.83184 0.20477 0.0
loop_
_geom_bond_atom_site_label_1
_geom_bond_atom_site_label_2
_geom_bond_distance
_geom_bond_site_symmetry_2
_ccdc_geom_bond_type
Mn0 O5 2.095 . S
Mn0 O15 2.162 1_455 S
Mn0 O16 2.297 1_455 S
Mn0 O24 2.385 1_455 S
Mn0 O25 2.209 1_455 S
Mn0 O26 2.094 . S
Mn1 O6 2.121 . S
Mn1 N8 2.257 1_455 S
Mn1 N17 2.282 . S
Mn1 O25 2.215 1_455 S
Mn1 O27 2.117 . S
C2 O24 1.234 . S
C2 O25 1.283 . S
C3 O15 1.281 . S
C3 O16 1.236 . S
C4 O26 1.240 . S
C4 O27 1.264 . S
O5 Mn0 2.095 . S
O5 C14 1.250 . S
O6 Mn1 2.121 . S
O6 C14 1.258 . S
C7 N8 1.338 . S
C7 C11 1.451 1_554 S
C7 H13 0.926 1_554 S
N8 Mn1 2.257 1_655 S
N8 C7 1.338 . S
N8 C12 1.362 . S
C9 C10 1.258 1_554 S
C9 C12 1.431 . S
C9 C29 1.449 . S
C10 C9 1.258 1_556 S
C10 C11 1.477 . S
C10 H30 0.931 . S
C11 C7 1.451 1_556 S
C11 C10 1.477 . S
C11 H31 0.930 . S
C12 N8 1.362 . S
C12 C9 1.431 . S
C12 C22 1.476 1_655 S
H13 C7 0.926 1_556 S
C14 O5 1.250 . S
C14 O6 1.258 . S
O15 Mn0 2.162 1_655 S
O15 C3 1.281 . S
O16 Mn0 2.297 1_655 S
O16 C3 1.236 . S
N17 Mn1 2.282 . S
N17 C18 1.328 . S
N17 C22 1.318 . S
C18 N17 1.328 . S
C18 C19 1.457 . S
C18 H23 0.929 . S
C19 C18 1.457 . S
C19 C20 1.291 . S
C19 H32 0.931 . S
C20 C19 1.291 . S
C20 C21 1.373 . S
C20 H33 0.929 . S
C21 C20 1.373 . S
C21 C22 1.396 . S
C21 C28 1.403 . S
C22 C12 1.476 1_455 S
C22 N17 1.318 . S
C22 C21 1.396 . S
H23 C18 0.929 . S
O24 Mn0 2.385 1_655 S
O24 C2 1.234 . S
O25 Mn0 2.209 1_655 S
O25 Mn1 2.215 1_655 S
O25 C2 1.283 . S
O26 Mn0 2.094 . S
O26 C4 1.240 . S
O27 Mn1 2.117 . S
O27 C4 1.264 . S
C28 C21 1.403 . S
C28 C29 1.399 1_455 S
C28 H34 0.929 1_565 S
C29 C9 1.449 . S
C29 C28 1.399 1_655 S
C29 H35 0.930 . S
H30 C10 0.931 . S
H31 C11 0.930 . S
H32 C19 0.931 . S
H33 C20 0.929 . S
H34 C28 0.929 1_545 S
H35 C29 0.930 . S
Mn36 O41 2.095 . S
Mn36 O51 2.162 . S
Mn36 O52 2.297 . S
Mn36 O60 2.385 . S
Mn36 O61 2.209 . S
Mn36 O62 2.094 . S
Mn37 O42 2.121 . S
Mn37 N44 2.257 . S
Mn37 N53 2.282 . S
Mn37 O61 2.215 . S
Mn37 O63 2.117 . S
C38 O60 1.234 . S
C38 O61 1.283 . S
C39 O51 1.281 . S
C39 O52 1.236 . S
C40 O62 1.240 . S
C40 O63 1.264 . S
O41 Mn36 2.095 . S
O41 C50 1.250 . S
O42 Mn37 2.121 . S
O42 C50 1.258 . S
C43 N44 1.326 . S
C43 C47 1.460 . S
C43 H49 0.929 . S
N44 Mn37 2.257 . S
N44 C43 1.326 . S
N44 C48 1.362 . S
C45 C46 1.258 . S
C45 C48 1.431 . S
C45 C65 1.449 . S
C46 C45 1.258 . S
C46 C47 1.477 . S
C46 H66 0.931 . S
C47 C43 1.460 . S
C47 C46 1.477 . S
C47 H67 0.930 . S
C48 N44 1.362 . S
C48 C45 1.431 . S
C48 C58 1.476 . S
H49 C43 0.929 . S
C50 O41 1.250 . S
C50 O42 1.258 . S
O51 Mn36 2.162 . S
O51 C39 1.281 . S
O52 Mn36 2.297 . S
O52 C39 1.236 . S
N53 Mn37 2.282 . S
N53 C54 1.328 . S
N53 C58 1.318 . S
C54 N53 1.328 . S
C54 C55 1.457 . S
C54 H59 0.929 . S
C55 C54 1.457 . S
C55 C56 1.291 . S
C55 H68 0.931 . S
C56 C55 1.291 . S
C56 C57 1.373 . S
C56 H69 0.929 . S
C57 C56 1.373 . S
C57 C58 1.396 . S
C57 C64 1.403 . S
C58 C48 1.476 . S
C58 N53 1.318 . S
C58 C57 1.396 . S
H59 C54 0.929 . S
O60 Mn36 2.385 . S
O60 C38 1.234 . S
O61 Mn36 2.209 . S
O61 Mn37 2.215 . S
O61 C38 1.283 . S
O62 Mn36 2.094 . S
O62 C40 1.240 . S
O63 Mn37 2.117 . S
O63 C40 1.264 . S
C64 C57 1.403 . S
C64 C65 1.399 . S
C64 H70 0.929 1_455 S
C65 C45 1.449 . S
C65 C64 1.399 . S
C65 H71 0.930 . S
H66 C46 0.931 . S
H67 C47 0.930 . S
H68 C55 0.931 . S
H69 C56 0.929 . S
H70 C64 0.929 1_655 S
H71 C65 0.930 . S
Mn72 O77 2.095 . S
Mn72 O87 2.162 . S
Mn72 O88 2.297 . S
Mn72 O96 2.385 . S
Mn72 O97 2.209 . S
Mn72 O98 2.094 . S
Mn73 O78 2.121 . S
Mn73 N80 2.257 . S
Mn73 N89 2.282 . S
Mn73 O97 2.215 . S
Mn73 O99 2.117 . S
C74 O96 1.234 . S
C74 O97 1.283 . S
C75 O87 1.281 . S
C75 O88 1.236 . S
C76 O98 1.240 . S
C76 O99 1.264 . S
O77 Mn72 2.095 . S
O77 C86 1.250 . S
O78 Mn73 2.121 . S
O78 C86 1.258 . S
C79 N80 1.339 . S
C79 C83 1.451 1_554 S
C79 H85 0.926 1_554 S
N80 Mn73 2.257 . S
N80 C79 1.339 . S
N80 C84 1.362 . S
C81 C82 1.258 1_554 S
C81 C84 1.431 . S
C81 C101 1.449 . S
C82 C81 1.258 1_556 S
C82 C83 1.477 . S
C82 H102 0.931 . S
C83 C79 1.451 1_556 S
C83 C82 1.477 . S
C83 H103 0.930 . S
C84 N80 1.362 . S
C84 C81 1.431 . S
C84 C94 1.476 . S
H85 C79 0.926 1_556 S
C86 O77 1.250 . S
C86 O78 1.258 . S
O87 Mn72 2.162 . S
O87 C75 1.281 . S
O88 Mn72 2.297 . S
O88 C75 1.236 . S
N89 Mn73 2.282 . S
N89 C90 1.328 . S
N89 C94 1.318 . S
C90 N89 1.328 . S
C90 C91 1.457 . S
C90 H95 0.929 . S
C91 C90 1.457 . S
C91 C92 1.291 . S
C91 H104 0.931 . S
C92 C91 1.291 . S
C92 C93 1.373 . S
C92 H105 0.929 . S
C93 C92 1.373 . S
C93 C94 1.396 . S
C93 C100 1.403 . S
C94 C84 1.476 . S
C94 N89 1.318 . S
C94 C93 1.396 . S
H95 C90 0.929 . S
O96 Mn72 2.385 . S
O96 C74 1.234 . S
O97 Mn72 2.209 . S
O97 Mn73 2.215 . S
O97 C74 1.283 . S
O98 Mn72 2.094 . S
O98 C76 1.240 . S
O99 Mn73 2.117 . S
O99 C76 1.264 . S
C100 C93 1.403 . S
C100 C101 1.399 . S
C100 H106 0.929 . S
C101 C81 1.449 . S
C101 C100 1.399 . S
C101 H107 0.930 . S
H102 C82 0.931 . S
H103 C83 0.930 . S
H104 C91 0.931 . S
H105 C92 0.929 . S
H106 C100 0.929 . S
H107 C101 0.930 . S
Mn108 O113 2.095 . S
Mn108 O123 2.162 1_565 S
Mn108 O124 2.297 1_565 S
Mn108 O132 2.385 1_565 S
Mn108 O133 2.209 1_565 S
Mn108 O134 2.094 . S
Mn109 O114 2.121 . S
Mn109 N116 2.257 1_565 S
Mn109 N125 2.282 . S
Mn109 O133 2.215 1_565 S
Mn109 O135 2.117 . S
C110 O132 1.234 . S
C110 O133 1.283 . S
C111 O123 1.281 . S
C111 O124 1.236 . S
C112 O134 1.240 . S
C112 O135 1.264 . S
O113 Mn108 2.095 . S
O113 C122 1.250 . S
O114 Mn109 2.121 . S
O114 C122 1.258 . S
C115 N116 1.326 . S
C115 C119 1.460 . S
C115 H121 0.929 . S
N116 Mn109 2.257 1_545 S
N116 C115 1.326 . S
N116 C120 1.362 . S
C117 C118 1.258 . S
C117 C120 1.431 . S
C117 C137 1.449 . S
C118 C117 1.258 . S
C118 C119 1.477 . S
C118 H138 0.931 . S
C119 C115 1.460 . S
C119 C118 1.477 . S
C119 H139 0.930 . S
C120 N116 1.362 . S
C120 C117 1.431 . S
C120 C130 1.476 1_545 S
H121 C115 0.929 . S
C122 O113 1.250 . S
C122 O114 1.258 . S
O123 Mn108 2.162 1_545 S
O123 C111 1.281 . S
O124 Mn108 2.297 1_545 S
O124 C111 1.236 . S
N125 Mn109 2.282 . S
N125 C126 1.328 . S
N125 C130 1.318 . S
C126 N125 1.328 . S
C126 C127 1.457 . S
C126 H131 0.929 . S
C127 C126 1.457 . S
C127 C128 1.291 . S
C127 H140 0.931 . S
C128 C127 1.291 . S
C128 C129 1.373 . S
C128 H141 0.929 . S
C129 C128 1.373 . S
C129 C130 1.396 . S
C129 C136 1.403 . S
C130 C120 1.476 1_565 S
C130 N125 1.318 . S
C130 C129 1.396 . S
H131 C126 0.929 . S
O132 Mn108 2.385 1_545 S
O132 C110 1.234 . S
O133 Mn108 2.209 1_545 S
O133 Mn109 2.215 1_545 S
O133 C110 1.283 . S
O134 Mn108 2.094 . S
O134 C112 1.240 . S
O135 Mn109 2.117 . S
O135 C112 1.264 . S
C136 C129 1.403 . S
C136 C137 1.399 1_565 S
C136 H142 0.929 . S
C137 C117 1.449 . S
C137 C136 1.399 1_545 S
C137 H143 0.930 . S
H138 C118 0.931 . S
H139 C119 0.930 . S
H140 C127 0.931 . S
H141 C128 0.929 . S
H142 C136 0.929 . S
H143 C137 0.930 . S
Mn144 O149 2.095 . S
Mn144 O159 2.162 1_655 S
Mn144 O160 2.297 1_655 S
Mn144 O168 2.385 1_655 S
Mn144 O169 2.209 1_655 S
Mn144 O170 2.094 . S
Mn145 O150 2.121 . S
Mn145 N152 2.257 1_655 S
Mn145 N161 2.282 . S
Mn145 O169 2.215 1_655 S
Mn145 O171 2.117 . S
C146 O168 1.234 . S
C146 O169 1.283 . S
C147 O159 1.281 . S
C147 O160 1.236 . S
C148 O170 1.240 . S
C148 O171 1.264 . S
O149 Mn144 2.095 . S
O149 C158 1.250 . S
O150 Mn145 2.121 . S
O150 C158 1.258 . S
C151 N152 1.338 . S
C151 C155 1.451 1_556 S
C151 H157 0.926 1_556 S
N152 Mn145 2.257 1_455 S
N152 C151 1.338 . S
N152 C156 1.362 . S
C153 C154 1.258 1_556 S
C153 C156 1.431 . S
C153 C173 1.449 . S
C154 C153 1.258 1_554 S
C154 C155 1.477 . S
C154 H174 0.931 . S
C155 C151 1.451 1_554 S
C155 C154 1.477 . S
C155 H175 0.930 . S
C156 N152 1.362 . S
C156 C153 1.431 . S
C156 C166 1.476 1_455 S
H157 C151 0.926 1_554 S
C158 O149 1.250 . S
C158 O150 1.258 . S
O159 Mn144 2.162 1_455 S
O159 C147 1.281 . S
O160 Mn144 2.297 1_455 S
O160 C147 1.236 . S
N161 Mn145 2.282 . S
N161 C162 1.328 . S
N161 C166 1.318 . S
C162 N161 1.328 . S
C162 C163 1.457 . S
C162 H167 0.929 . S
C163 C162 1.457 . S
C163 C164 1.291 . S
C163 H176 0.931 . S
C164 C163 1.291 . S
C164 C165 1.373 . S
C164 H177 0.929 . S
C165 C164 1.373 . S
C165 C166 1.396 . S
C165 C172 1.403 . S
C166 C156 1.476 1_655 S
C166 N161 1.318 . S
C166 C165 1.396 . S
H167 C162 0.929 . S
O168 Mn144 2.385 1_455 S
O168 C146 1.234 . S
O169 Mn144 2.209 1_455 S
O169 Mn145 2.215 1_455 S
O169 C146 1.283 . S
O170 Mn144 2.094 . S
O170 C148 1.240 . S
O171 Mn145 2.117 . S
O171 C148 1.264 . S
C172 C165 1.403 . S
C172 C173 1.399 1_655 S
C172 H178 0.929 1_545 S
C173 C153 1.449 . S
C173 C172 1.399 1_455 S
C173 H179 0.930 . S
H174 C154 0.931 . S
H175 C155 0.930 . S
H176 C163 0.931 . S
H177 C164 0.929 . S
H178 C172 0.929 1_565 S
H179 C173 0.930 . S
Mn180 O185 2.095 . S
Mn180 O195 2.162 . S
Mn180 O196 2.297 . S
Mn180 O204 2.385 . S
Mn180 O205 2.209 . S
Mn180 O206 2.094 . S
Mn181 O186 2.121 . S
Mn181 N188 2.257 . S
Mn181 N197 2.282 . S
Mn181 O205 2.215 . S
Mn181 O207 2.117 . S
C182 O204 1.234 . S
C182 O205 1.283 . S
C183 O195 1.281 . S
C183 O196 1.236 . S
C184 O206 1.240 . S
C184 O207 1.264 . S
O185 Mn180 2.095 . S
O185 C194 1.250 . S
O186 Mn181 2.121 . S
O186 C194 1.258 . S
C187 N188 1.326 . S
C187 C191 1.460 . S
C187 H193 0.929 . S
N188 Mn181 2.257 . S
N188 C187 1.326 . S
N188 C192 1.362 . S
C189 C190 1.258 . S
C189 C192 1.431 . S
C189 C209 1.449 . S
C190 C189 1.258 . S
C190 C191 1.477 . S
C190 H210 0.931 . S
C191 C187 1.460 . S
C191 C190 1.477 . S
C191 H211 0.930 . S
C192 N188 1.362 . S
C192 C189 1.431 . S
C192 C202 1.476 . S
H193 C187 0.929 . S
C194 O185 1.250 . S
C194 O186 1.258 . S
O195 Mn180 2.162 . S
O195 C183 1.281 . S
O196 Mn180 2.297 . S
O196 C183 1.236 . S
N197 Mn181 2.282 . S
N197 C198 1.328 . S
N197 C202 1.318 . S
C198 N197 1.328 . S
C198 C199 1.457 . S
C198 H203 0.929 . S
C199 C198 1.457 . S
C199 C200 1.291 . S
C199 H212 0.931 . S
C200 C199 1.291 . S
C200 C201 1.373 . S
C200 H213 0.929 . S
C201 C200 1.373 . S
C201 C202 1.396 . S
C201 C208 1.403 . S
C202 C192 1.476 . S
C202 N197 1.318 . S
C202 C201 1.396 . S
H203 C198 0.929 . S
O204 Mn180 2.385 . S
O204 C182 1.234 . S
O205 Mn180 2.209 . S
O205 Mn181 2.215 . S
O205 C182 1.283 . S
O206 Mn180 2.094 . S
O206 C184 1.240 . S
O207 Mn181 2.117 . S
O207 C184 1.264 . S
C208 C201 1.403 . S
C208 C209 1.399 . S
C208 H214 0.929 1_655 S
C209 C189 1.449 . S
C209 C208 1.399 . S
C209 H215 0.930 . S
H210 C190 0.931 . S
H211 C191 0.930 . S
H212 C199 0.931 . S
H213 C200 0.929 . S
H214 C208 0.929 1_455 S
H215 C209 0.930 . S
Mn216 O221 2.095 . S
Mn216 O231 2.162 . S
Mn216 O232 2.297 . S
Mn216 O240 2.385 . S
Mn216 O241 2.209 . S
Mn216 O242 2.094 . S
Mn217 O222 2.121 . S
Mn217 N224 2.257 . S
Mn217 N233 2.282 . S
Mn217 O241 2.215 . S
Mn217 O243 2.117 . S
C218 O240 1.234 . S
C218 O241 1.283 . S
C219 O231 1.281 . S
C219 O232 1.236 . S
C220 O242 1.240 . S
C220 O243 1.264 . S
O221 Mn216 2.095 . S
O221 C230 1.250 . S
O222 Mn217 2.121 . S
O222 C230 1.258 . S
C223 N224 1.339 . S
C223 C227 1.451 1_556 S
C223 H229 0.926 1_556 S
N224 Mn217 2.257 . S
N224 C223 1.339 . S
N224 C228 1.362 . S
C225 C226 1.258 1_556 S
C225 C228 1.431 . S
C225 C245 1.449 . S
C226 C225 1.258 1_554 S
C226 C227 1.477 . S
C226 H246 0.931 . S
C227 C223 1.451 1_554 S
C227 C226 1.477 . S
C227 H247 0.930 . S
C228 N224 1.362 . S
C228 C225 1.431 . S
C228 C238 1.476 . S
H229 C223 0.926 1_554 S
C230 O221 1.250 . S
C230 O222 1.258 . S
O231 Mn216 2.162 . S
O231 C219 1.281 . S
O232 Mn216 2.297 . S
O232 C219 1.236 . S
N233 Mn217 2.282 . S
N233 C234 1.328 . S
N233 C238 1.318 . S
C234 N233 1.328 . S
C234 C235 1.457 . S
C234 H239 0.929 . S
C235 C234 1.457 . S
C235 C236 1.291 . S
C235 H248 0.931 . S
C236 C235 1.291 . S
C236 C237 1.373 . S
C236 H249 0.929 . S
C237 C236 1.373 . S
C237 C238 1.396 . S
C237 C244 1.403 . S
C238 C228 1.476 . S
C238 N233 1.318 . S
C238 C237 1.396 . S
H239 C234 0.929 . S
O240 Mn216 2.385 . S
O240 C218 1.234 . S
O241 Mn216 2.209 . S
O241 Mn217 2.215 . S
O241 C218 1.283 . S
O242 Mn216 2.094 . S
O242 C220 1.240 . S
O243 Mn217 2.117 . S
O243 C220 1.264 . S
C244 C237 1.403 . S
C244 C245 1.399 . S
C244 H250 0.929 . S
C245 C225 1.449 . S
C245 C244 1.399 . S
C245 H251 0.930 . S
H246 C226 0.931 . S
H247 C227 0.930 . S
H248 C235 0.931 . S
H249 C236 0.929 . S
H250 C244 0.929 . S
H251 C245 0.930 . S
Mn252 O257 2.095 . S
Mn252 O267 2.162 1_545 S
Mn252 O268 2.297 1_545 S
Mn252 O276 2.385 1_545 S
Mn252 O277 2.209 1_545 S
Mn252 O278 2.094 . S
Mn253 O258 2.121 . S
Mn253 N260 2.257 1_545 S
Mn253 N269 2.282 . S
Mn253 O277 2.215 1_545 S
Mn253 O279 2.117 . S
C254 O276 1.234 . S
C254 O277 1.283 . S
C255 O267 1.281 . S
C255 O268 1.236 . S
C256 O278 1.240 . S
C256 O279 1.264 . S
O257 Mn252 2.095 . S
O257 C266 1.250 . S
O258 Mn253 2.121 . S
O258 C266 1.258 . S
C259 N260 1.326 . S
C259 C263 1.460 . S
C259 H265 0.929 . S
N260 Mn253 2.257 1_565 S
N260 C259 1.326 . S
N260 C264 1.362 . S
C261 C262 1.258 . S
C261 C264 1.431 . S
C261 C281 1.449 . S
C262 C261 1.258 . S
C262 C263 1.477 . S
C262 H282 0.931 . S
C263 C259 1.460 . S
C263 C262 1.477 . S
C263 H283 0.930 . S
C264 N260 1.362 . S
C264 C261 1.431 . S
C264 C274 1.476 1_565 S
H265 C259 0.929 . S
C266 O257 1.250 . S
C266 O258 1.258 . S
O267 Mn252 2.162 1_565 S
O267 C255 1.281 . S
O268 Mn252 2.297 1_565 S
O268 C255 1.236 . S
N269 Mn253 2.282 . S
N269 C270 1.328 . S
N269 C274 1.318 . S
C270 N269 1.328 . S
C270 C271 1.457 . S
C270 H275 0.929 . S
C271 C270 1.457 . S
C271 C272 1.291 . S
C271 H284 0.931 . S
C272 C271 1.291 . S
C272 C273 1.373 . S
C272 H285 0.929 . S
C273 C272 1.373 . S
C273 C274 1.396 . S
C273 C280 1.403 . S
C274 C264 1.476 1_545 S
C274 N269 1.318 . S
C274 C273 1.396 . S
H275 C270 0.929 . S
O276 Mn252 2.385 1_565 S
O276 C254 1.234 . S
O277 Mn252 2.209 1_565 S
O277 Mn253 2.215 1_565 S
O277 C254 1.283 . S
O278 Mn252 2.094 . S
O278 C256 1.240 . S
O279 Mn253 2.117 . S
O279 C256 1.264 . S
C280 C273 1.403 . S
C280 C281 1.399 1_545 S
C280 H286 0.929 . S
C281 C261 1.449 . S
C281 C280 1.399 1_565 S
C281 H287 0.930 . S
H282 C262 0.931 . S
H283 C263 0.930 . S
H284 C271 0.931 . S
H285 C272 0.929 . S
H286 C280 0.929 . S
H287 C281 0.930 . S
C288 C289 1.369 . S
C288 C290 1.419 . S
C288 H292 0.930 . S
C289 C288 1.369 . S
C289 C298 1.429 1_656 S
C290 C288 1.419 . S
C290 C291 1.363 1_656 S
C290 H293 0.929 . S
C291 C290 1.363 1_454 S
C291 C297 1.428 . S
H292 C288 0.930 . S
H293 C290 0.929 . S
S294 N295 1.613 . S
S294 N296 1.610 . S
N295 S294 1.613 . S
N295 C298 1.350 . S
N296 S294 1.610 . S
N296 C297 1.351 . S
C297 C291 1.428 . S
C297 N296 1.351 . S
C297 C298 1.434 . S
C298 C289 1.429 1_454 S
C298 N295 1.350 . S
C298 C297 1.434 . S
C299 C300 1.369 . S
C299 C301 1.419 . S
C299 H303 0.930 . S
C300 C299 1.369 . S
C300 C309 1.429 . S
C301 C299 1.419 . S
C301 C302 1.363 . S
C301 H304 0.929 . S
C302 C301 1.363 . S
C302 C308 1.428 . S
H303 C299 0.930 . S
H304 C301 0.929 . S
S305 N306 1.613 . S
S305 N307 1.610 . S
N306 S305 1.613 . S
N306 C309 1.350 . S
N307 S305 1.610 . S
N307 C308 1.351 . S
C308 C302 1.428 . S
C308 N307 1.351 . S
C308 C309 1.434 . S
C309 C300 1.429 . S
C309 N306 1.350 . S
C309 C308 1.434 . S
C310 C311 1.369 1_556 S
C310 C312 1.419 1_565 S
C310 H314 0.930 . S
C311 C310 1.369 1_554 S
C311 C320 1.429 . S
C312 C310 1.419 1_545 S
C312 C313 1.363 . S
C312 H315 0.929 . S
C313 C312 1.363 . S
C313 C319 1.428 1_556 S
H314 C310 0.930 . S
H315 C312 0.929 . S
S316 N317 1.627 . S
S316 N318 1.610 . S
N317 S316 1.627 . S
N317 C320 1.349 1_545 S
N318 S316 1.610 . S
N318 C319 1.351 . S
C319 C313 1.428 1_554 S
C319 N318 1.351 . S
C319 C320 1.434 1_545 S
C320 C311 1.429 . S
C320 N317 1.349 1_565 S
C320 C319 1.434 1_565 S
C321 C322 1.369 1_565 S
C321 C323 1.419 1_655 S
C321 H325 0.930 . S
C322 C321 1.369 1_545 S
C322 C331 1.429 . S
C323 C321 1.419 1_455 S
C323 C324 1.363 . S
C323 H326 0.929 . S
C324 C323 1.363 . S
C324 C330 1.428 1_565 S
H325 C321 0.930 . S
H326 C323 0.929 . S
S327 N328 1.613 . S
S327 N329 1.610 1_655 S
N328 S327 1.613 . S
N328 C331 1.350 . S
N329 S327 1.610 1_455 S
N329 C330 1.351 . S
C330 C324 1.428 1_545 S
C330 N329 1.351 . S
C330 C331 1.434 1_455 S
C331 C322 1.429 . S
C331 N328 1.350 . S
C331 C330 1.434 1_655 S
C332 C333 1.369 . S
C332 C334 1.419 . S
C332 H336 0.930 . S
C333 C332 1.369 . S
C333 C342 1.429 . S
C334 C332 1.419 . S
C334 C335 1.363 . S
C334 H337 0.929 . S
C335 C334 1.363 . S
C335 C341 1.428 . S
H336 C332 0.930 . S
H337 C334 0.929 . S
S338 N339 1.613 . S
S338 N340 1.610 . S
N339 S338 1.613 . S
N339 C342 1.350 . S
N340 S338 1.610 . S
N340 C341 1.351 . S
C341 C335 1.428 . S
C341 N340 1.351 . S
C341 C342 1.434 . S
C342 C333 1.429 . S
C342 N339 1.350 . S
C342 C341 1.434 . S
C343 C344 1.369 . S
C343 C345 1.419 . S
C343 H347 0.930 . S
C344 C343 1.369 . S
C344 C353 1.429 . S
C345 C343 1.419 . S
C345 C346 1.363 . S
C345 H348 0.929 . S
C346 C345 1.363 . S
C346 C352 1.428 . S
H347 C343 0.930 . S
H348 C345 0.929 . S
S349 N350 1.613 . S
S349 N351 1.610 . S
N350 S349 1.613 . S
N350 C353 1.350 . S
N351 S349 1.610 . S
N351 C352 1.351 . S
C352 C346 1.428 . S
C352 N351 1.351 . S
C352 C353 1.434 . S
C353 C344 1.429 . S
C353 N350 1.350 . S
C353 C352 1.434 . S
C354 C355 1.369 . S
C354 C356 1.419 . S
C354 H358 0.930 . S
C355 C354 1.369 . S
C355 C364 1.429 . S
C356 C354 1.419 . S
C356 C357 1.363 . S
C356 H359 0.929 . S
C357 C356 1.363 . S
C357 C363 1.428 . S
H358 C354 0.930 . S
H359 C356 0.929 . S
S360 N361 1.613 . S
S360 N362 1.610 . S
N361 S360 1.613 . S
N361 C364 1.350 . S
N362 S360 1.610 . S
N362 C363 1.351 . S
C363 C357 1.428 . S
C363 N362 1.351 . S
C363 C364 1.434 . S
C364 C355 1.429 . S
C364 N361 1.350 . S
C364 C363 1.434 . S
C365 C366 1.369 . S
C365 C367 1.419 . S
C365 H369 0.930 . S
C366 C365 1.369 . S
C366 C375 1.429 . S
C367 C365 1.419 . S
C367 C368 1.363 . S
C367 H370 0.929 . S
C368 C367 1.363 . S
C368 C374 1.428 . S
H369 C365 0.930 . S
H370 C367 0.929 . S
S371 N372 1.613 . S
S371 N373 1.610 . S
N372 S371 1.613 . S
N372 C375 1.350 . S
N373 S371 1.610 . S
N373 C374 1.351 . S
C374 C368 1.428 . S
C374 N373 1.351 . S
C374 C375 1.434 . S
C375 C366 1.429 . S
C375 N372 1.350 . S
C375 C374 1.434 . S
C376 C377 1.369 . S
C376 C378 1.419 . S
C376 H380 0.930 . S
C377 C376 1.369 . S
C377 C386 1.429 . S
C378 C376 1.419 . S
C378 C379 1.363 . S
C378 H381 0.929 . S
C379 C378 1.363 . S
C379 C385 1.428 . S
H380 C376 0.930 . S
H381 C378 0.929 . S
S382 N383 1.613 . S
S382 N384 1.610 . S
N383 S382 1.613 . S
N383 C386 1.350 . S
N384 S382 1.610 . S
N384 C385 1.351 . S
C385 C379 1.428 . S
C385 N384 1.351 . S
C385 C386 1.434 . S
C386 C377 1.429 . S
C386 N383 1.350 . S
C386 C385 1.434 . S
C387 C388 1.369 . S
C387 C389 1.419 . S
C387 H391 0.930 . S
C388 C387 1.369 . S
C388 C397 1.429 . S
C389 C387 1.419 . S
C389 C390 1.363 . S
C389 H392 0.929 . S
C390 C389 1.363 . S
C390 C396 1.428 . S
H391 C387 0.930 . S
H392 C389 0.929 . S
S393 N394 1.613 . S
S393 N395 1.610 . S
N394 S393 1.613 . S
N394 C397 1.350 . S
N395 S393 1.610 . S
N395 C396 1.351 . S
C396 C390 1.428 . S
C396 N395 1.351 . S
C396 C397 1.434 . S
C397 C388 1.429 . S
C397 N394 1.350 . S
C397 C396 1.434 . S
C398 C399 1.369 . S
C398 C400 1.419 . S
C398 H402 0.930 . S
C399 C398 1.369 . S
C399 C408 1.429 . S
C400 C398 1.419 . S
C400 C401 1.363 . S
C400 H403 0.929 . S
C401 C400 1.363 . S
C401 C407 1.428 . S
H402 C398 0.930 . S
H403 C400 0.929 . S
S404 N405 1.613 1_545 S
S404 N406 1.610 . S
N405 S404 1.613 1_565 S
N405 C408 1.350 . S
N406 S404 1.610 . S
N406 C407 1.351 1_545 S
C407 C401 1.428 . S
C407 N406 1.351 1_565 S
C407 C408 1.434 . S
C408 C399 1.429 . S
C408 N405 1.350 . S
C408 C407 1.434 . S
C409 C410 1.369 . S
C409 C411 1.419 . S
C409 H413 0.930 1_455 S
C410 C409 1.369 . S
C410 C419 1.429 . S
C411 C409 1.419 . S
C411 C412 1.363 . S
C411 H414 0.929 1_455 S
C412 C411 1.363 . S
C412 C418 1.428 . S
H413 C409 0.930 1_655 S
H414 C411 0.929 1_655 S
S415 N416 1.613 . S
S415 N417 1.610 . S
N416 S415 1.613 . S
N416 C419 1.350 . S
N417 S415 1.610 . S
N417 C418 1.351 . S
C418 C412 1.428 . S
C418 N417 1.351 . S
C418 C419 1.434 . S
C419 C410 1.429 . S
C419 N416 1.350 . S
C419 C418 1.434 . S
C420 C421 1.369 . S
C420 C422 1.419 . S
C420 H424 0.930 . S
C421 C420 1.369 . S
C421 C430 1.429 . S
C422 C420 1.419 . S
C422 C423 1.363 . S
C422 H425 0.929 . S
C423 C422 1.363 . S
C423 C429 1.428 . S
H424 C420 0.930 . S
H425 C422 0.929 . S
S426 N427 1.613 . S
S426 N428 1.610 . S
N427 S426 1.613 . S
N427 C430 1.350 . S
N428 S426 1.610 . S
N428 C429 1.351 . S
C429 C423 1.428 . S
C429 N428 1.351 . S
C429 C430 1.434 . S
C430 C421 1.429 . S
C430 N427 1.350 . S
C430 C429 1.434 . S
C431 C432 1.369 . S
C431 C433 1.419 . S
C431 H435 0.930 . S
C432 C431 1.369 . S
C432 C441 1.429 . S
C433 C431 1.419 . S
C433 C434 1.363 . S
C433 H436 0.929 . S
C434 C433 1.363 . S
C434 C440 1.428 . S
H435 C431 0.930 . S
H436 C433 0.929 . S
S437 N438 1.613 . S
S437 N439 1.610 . S
N438 S437 1.613 . S
N438 C441 1.350 . S
N439 S437 1.610 . S
N439 C440 1.351 . S
C440 C434 1.428 . S
C440 N439 1.351 . S
C440 C441 1.434 . S
C441 C432 1.429 . S
C441 N438 1.350 . S
C441 C440 1.434 . S
C442 C443 1.369 . S
C442 C444 1.419 . S
C442 H446 0.930 . S
C443 C442 1.369 . S
C443 C452 1.429 . S
C444 C442 1.419 . S
C444 C445 1.363 . S
C444 H447 0.929 . S
C445 C444 1.363 . S
C445 C451 1.428 . S
H446 C442 0.930 . S
H447 C444 0.929 . S
S448 N449 1.613 . S
S448 N450 1.610 . S
N449 S448 1.613 . S
N449 C452 1.350 1_565 S
N450 S448 1.610 . S
N450 C451 1.351 1_565 S
C451 C445 1.428 . S
C451 N450 1.351 1_545 S
C451 C452 1.434 . S
C452 C443 1.429 . S
C452 N449 1.350 1_545 S
C452 C451 1.434 . S
C453 C454 1.369 . S
C453 C455 1.419 . S
C453 H457 0.930 . S
C454 C453 1.369 . S
C454 C463 1.429 . S
C455 C453 1.419 . S
C455 C456 1.363 . S
C455 H458 0.929 . S
C456 C455 1.363 . S
C456 C462 1.428 . S
H457 C453 0.930 . S
H458 C455 0.929 . S
S459 N460 1.613 . S
S459 N461 1.610 . S
N460 S459 1.613 . S
N460 C463 1.350 . S
N461 S459 1.610 . S
N461 C462 1.351 . S
C462 C456 1.428 . S
C462 N461 1.351 . S
C462 C463 1.434 . S
C463 C454 1.429 . S
C463 N460 1.350 . S
C463 C462 1.434 . S
C289 C158 1.675 . S
C291 C14 1.673 . S
C300 C50 1.675 . S
C302 C194 1.673 . S
C311 C86 1.673 . S
C313 C230 1.674 . S
C322 C266 1.672 . S
C324 C122 1.675 . S
C333 C4 1.463 . S
C335 C76 1.472 . S
C344 C40 1.464 . S
C346 C112 1.471 . S
C355 C220 1.466 . S
C357 C148 1.473 . S
C366 C184 1.464 . S
C368 C256 1.470 . S
C377 C182 1.123 . S
C379 C3 1.158 . S
C388 C39 1.164 . S
C390 C218 1.130 . S
C399 C75 1.158 . S
C401 C254 1.124 . S
C410 C146 1.133 . S
C412 C111 1.157 . S
C421 C147 1.163 . S
C423 C38 1.124 . S
C432 C183 1.155 . S
C434 C74 1.129 . S
C443 C219 1.163 . S
C445 C110 1.130 . S
C454 C2 1.132 . S
C456 C255 1.162 . S
