# Generated by pormake.
# Topology hjm, (4)-cn, num edge types: 1
# Building blocks:
#     Node 0, Type 0, BuildingBlock: KUFVIS_clean_sbu_0, # of connection points: 4
#     Node 1, Type 0, BuildingBlock: KUFVIS_clean_sbu_0, # of connection points: 4
#     Node 2, Type 0, BuildingBlock: KUFVIS_clean_sbu_0, # of connection points: 4
#     Node 3, Type 0, BuildingBlock: KUFVIS_clean_sbu_0, # of connection points: 4
#     Node 4, Type 0, BuildingBlock: KUFVIS_clean_sbu_0, # of connection points: 4
#     Node 5, Type 0, BuildingBlock: KUFVIS_clean_sbu_0, # of connection points: 4
#     Node 6, Type 0, BuildingBlock: KUFVIS_clean_sbu_0, # of connection points: 4
#     Node 7, Type 0, BuildingBlock: KUFVIS_clean_sbu_0, # of connection points: 4
#     Edge 8, Type (0, 0), BuildingBlock: UVAHIK_clean_linker_0, # of connection points: 2
#     Edge 9, Type (0, 0), BuildingBlock: UVAHIK_clean_linker_0, # of connection points: 2
#     Edge 10, Type (0, 0), BuildingBlock: UVAHIK_clean_linker_0, # of connection points: 2
#     Edge 11, Type (0, 0), BuildingBlock: UVAHIK_clean_linker_0, # of connection points: 2
#     Edge 12, Type (0, 0), BuildingBlock: UVAHIK_clean_linker_0, # of connection points: 2
#     Edge 13, Type (0, 0), BuildingBlock: UVAHIK_clean_linker_0, # of connection points: 2
#     Edge 14, Type (0, 0), BuildingBlock: UVAHIK_clean_linker_0, # of connection points: 2
#     Edge 15, Type (0, 0), BuildingBlock: UVAHIK_clean_linker_0, # of connection points: 2
#     Edge 16, Type (0, 0), BuildingBlock: UVAHIK_clean_linker_0, # of connection points: 2
#     Edge 17, Type (0, 0), BuildingBlock: UVAHIK_clean_linker_0, # of connection points: 2
#     Edge 18, Type (0, 0), BuildingBlock: UVAHIK_clean_linker_0, # of connection points: 2
#     Edge 19, Type (0, 0), BuildingBlock: UVAHIK_clean_linker_0, # of connection points: 2
#     Edge 20, Type (0, 0), BuildingBlock: UVAHIK_clean_linker_0, # of connection points: 2
#     Edge 21, Type (0, 0), BuildingBlock: UVAHIK_clean_linker_0, # of connection points: 2
#     Edge 22, Type (0, 0), BuildingBlock: UVAHIK_clean_linker_0, # of connection points: 2
#     Edge 23, Type (0, 0), BuildingBlock: UVAHIK_clean_linker_0, # of connection points: 2
# Relax obj value: 0.063
# Max RMSD: 0.110
# Mean RMSD: 0.110
data_MOF--net-hjm--node1-KUFVIS_clean_sbu_0--edge1-UVAHIK_clean_linker_0
_symmetry_space_group_name_H-M    P1
_symmetry_Int_Tables_number       1
_symmetry_cell_setting            triclinic
loop_
_symmetry_equiv_pos_as_xyz
'x, y, z'
_cell_length_a     34.571418
_cell_length_b     29.832315
_cell_length_c     33.403204
_cell_angle_alpha  89.946627
_cell_angle_beta   57.574981
_cell_angle_gamma 89.924115
loop_
_atom_site_label
_atom_site_type_symbol
_atom_site_fract_x
_atom_site_fract_y
_atom_site_fract_z
_atom_type_partial_charge
Mn0 Mn 0.19284 0.26315 0.32404 0.0
Mn1 Mn 0.20855 0.37273 0.29281 0.0
C2 C 0.15776 0.31932 0.38095 0.0
C3 C 0.15324 0.19486 0.34363 0.0
C4 C 0.28122 0.31574 0.29267 0.0
O5 O 0.21441 0.26026 0.25344 0.0
O6 O 0.22162 0.33463 0.23874 0.0
C7 C 0.13348 0.38385 0.27556 0.0
N8 N 0.15453 0.39664 0.29842 0.0
C9 C 0.10109 0.45723 0.33735 0.0
C10 C 0.0789 0.44478 0.31413 0.0
C11 C 0.09506 0.40781 0.28327 0.0
C12 C 0.13898 0.43187 0.32855 0.0
H13 H 0.14595 0.35562 0.25159 0.0
C14 C 0.22318 0.2939 0.22587 0.0
O15 O 0.19624 0.19702 0.3293 0.0
O16 O 0.13377 0.23216 0.34368 0.0
N17 N 0.19611 0.41341 0.3426 0.0
C18 C 0.22003 0.41967 0.3639 0.0
C19 C 0.20791 0.45504 0.39624 0.0
C20 C 0.17173 0.48387 0.40591 0.0
C21 C 0.14757 0.47672 0.38361 0.0
C22 C 0.16125 0.44098 0.35165 0.0
H23 H 0.24826 0.39798 0.35612 0.0
O24 O 0.16572 0.2804 0.39248 0.0
O25 O 0.17185 0.32458 0.33673 0.0
O26 O 0.25764 0.27983 0.30671 0.0
O27 O 0.26608 0.35234 0.28635 0.0
C28 C 0.1103 0.50349 0.39201 0.0
C29 C 0.08683 0.49352 0.36922 0.0
H30 H 0.04932 0.46323 0.31991 0.0
H31 H 0.07806 0.39793 0.26531 0.0
H32 H 0.22663 0.46029 0.41342 0.0
H33 H 0.16273 0.5113 0.43062 0.0
H34 H 0.09902 0.53148 0.41641 0.0
H35 H 0.05773 0.51385 0.37662 0.0
Mn36 Mn 0.8232 0.25766 0.18536 0.0
Mn37 Mn 0.80408 0.36528 0.2233 0.0
C38 C 0.86321 0.31659 0.13346 0.0
C39 C 0.86175 0.18853 0.16586 0.0
C40 C 0.7377 0.31233 0.20929 0.0
O41 O 0.79375 0.25027 0.25736 0.0
O42 O 0.78353 0.32368 0.27706 0.0
C43 C 0.8687 0.37118 0.25559 0.0
N44 N 0.85376 0.38651 0.22774 0.0
C45 C 0.90729 0.44775 0.19951 0.0
C46 C 0.92322 0.43269 0.22794 0.0
C47 C 0.90403 0.39407 0.25587 0.0
C48 C 0.87248 0.42321 0.20018 0.0
H49 H 0.85363 0.34185 0.27758 0.0
C50 C 0.7805 0.28206 0.28787 0.0
O51 O 0.82034 0.19235 0.17525 0.0
O52 O 0.88007 0.22455 0.17059 0.0
N53 N 0.82326 0.40897 0.17422 0.0
C54 C 0.80536 0.41793 0.14733 0.0
C55 C 0.82204 0.45458 0.11606 0.0
C56 C 0.85634 0.48204 0.11338 0.0
C57 C 0.87382 0.47244 0.14184 0.0
C58 C 0.85625 0.43518 0.17192 0.0
H59 H 0.7786 0.39723 0.14969 0.0
O60 O 0.85741 0.2792 0.11747 0.0
O61 O 0.8442 0.31885 0.17892 0.0
O62 O 0.76121 0.27633 0.19591 0.0
O63 O 0.7509 0.34783 0.21974 0.0
C64 C 0.90796 0.49838 0.14159 0.0
C65 C 0.92462 0.48609 0.17048 0.0
H66 H 0.95025 0.45043 0.22849 0.0
H67 H 0.91618 0.3822 0.27786 0.0
H68 H 0.80831 0.46181 0.09428 0.0
H69 H 0.86903 0.51036 0.08933 0.0
H70 H 0.92204 0.52756 0.1189 0.0
H71 H 0.95126 0.50601 0.16956 0.0
Mn72 Mn 0.80777 0.76204 0.69142 0.0
Mn73 Mn 0.88875 0.76242 0.7187 0.0
C74 C 0.79242 0.79115 0.76346 0.0
C75 C 0.7444 0.7305 0.69417 0.0
C76 C 0.89151 0.82394 0.64467 0.0
O77 O 0.85297 0.71332 0.64721 0.0
O78 O 0.90072 0.71343 0.67399 0.0
C79 C 0.86744 0.67615 0.77033 0.0
N80 N 0.87279 0.72144 0.7693 0.0
C81 C 0.86008 0.72126 0.84753 0.0
C82 C 0.85472 0.67458 0.84933 0.0
C83 C 0.8581 0.65198 0.81068 0.0
C84 C 0.8687 0.74361 0.80666 0.0
H85 H 0.87036 0.65861 0.74056 0.0
C86 C 0.88689 0.69722 0.64829 0.0
O87 O 0.77076 0.75932 0.66179 0.0
O88 O 0.75647 0.71785 0.72313 0.0
N89 N 0.8797 0.80835 0.76291 0.0
C90 C 0.88354 0.85362 0.75647 0.0
C91 C 0.87959 0.8813 0.79248 0.0
C92 C 0.8723 0.86216 0.83444 0.0
C93 C 0.86878 0.81547 0.84011 0.0
C94 C 0.87271 0.7896 0.80314 0.0
H95 H 0.88972 0.86848 0.72407 0.0
O96 O 0.76875 0.8045 0.7459 0.0
O97 O 0.82496 0.76337 0.73727 0.0
O98 O 0.85304 0.81203 0.65139 0.0
O99 O 0.90845 0.80644 0.66688 0.0
C100 C 0.8611 0.79362 0.88118 0.0
C101 C 0.85696 0.74653 0.88478 0.0
H102 H 0.84771 0.65581 0.8803 0.0
H103 H 0.85379 0.61598 0.81188 0.0
H104 H 0.8824 0.9173 0.78781 0.0
H105 H 0.86929 0.88362 0.86211 0.0
H106 H 0.85791 0.81271 0.91037 0.0
H107 H 0.85085 0.73013 0.91661 0.0
Mn108 Mn 0.21114 0.75667 0.81868 0.0
Mn109 Mn 0.11682 0.73649 0.81498 0.0
C110 C 0.2088 0.77722 0.75286 0.0
C111 C 0.28279 0.73579 0.80466 0.0
C112 C 0.12137 0.81024 0.87506 0.0
O113 O 0.1779 0.70785 0.86898 0.0
O114 O 0.11822 0.69482 0.8604 0.0
C115 C 0.14009 0.64564 0.77267 0.0
N116 N 0.12894 0.68915 0.77118 0.0
C117 C 0.12966 0.676 0.69972 0.0
C118 C 0.14093 0.631 0.70062 0.0
C119 C 0.14632 0.61581 0.73718 0.0
C120 C 0.12399 0.7042 0.73599 0.0
H121 H 0.14424 0.6338 0.8007 0.0
C122 C 0.14166 0.6866 0.87896 0.0
O123 O 0.25727 0.76541 0.83649 0.0
O124 O 0.26625 0.71739 0.78175 0.0
N125 N 0.11203 0.77424 0.77144 0.0
C126 C 0.10347 0.81911 0.77435 0.0
C127 C 0.09818 0.83983 0.73979 0.0
C128 C 0.10136 0.81419 0.70288 0.0
C129 C 0.10993 0.76803 0.70078 0.0
C130 C 0.11477 0.74921 0.73627 0.0
H131 H 0.10072 0.83893 0.80279 0.0
O132 O 0.23659 0.79743 0.76186 0.0
O133 O 0.18283 0.74686 0.78312 0.0
O134 O 0.16309 0.80373 0.8618 0.0
O135 O 0.10075 0.7864 0.86036 0.0
C136 C 0.11436 0.74005 0.66457 0.0
C137 C 0.12448 0.69413 0.66388 0.0
H138 H 0.14583 0.60791 0.67326 0.0
H139 H 0.1552 0.58117 0.73801 0.0
H140 H 0.09162 0.87549 0.74162 0.0
H141 H 0.09746 0.83034 0.67618 0.0
H142 H 0.11059 0.75361 0.63676 0.0
H143 H 0.12856 0.67314 0.63542 0.0
Mn144 Mn 0.69553 0.75326 0.31784 0.0
Mn145 Mn 0.71716 0.85733 0.27006 0.0
C146 C 0.66294 0.81624 0.36543 0.0
C147 C 0.65315 0.68676 0.34616 0.0
C148 C 0.78598 0.80452 0.28055 0.0
O149 O 0.71769 0.74014 0.24841 0.0
O150 O 0.73047 0.81156 0.2217 0.0
C151 C 0.64415 0.86067 0.24903 0.0
N152 N 0.66471 0.87852 0.27055 0.0
C153 C 0.6124 0.94091 0.29999 0.0
C154 C 0.59074 0.92329 0.27803 0.0
C155 C 0.60658 0.8829 0.2526 0.0
C156 C 0.64942 0.91707 0.29556 0.0
H157 H 0.65633 0.82974 0.22928 0.0
C158 C 0.73002 0.76926 0.21551 0.0
O159 O 0.69591 0.6888 0.33279 0.0
O160 O 0.63536 0.72293 0.34086 0.0
N161 N 0.70516 0.90519 0.31331 0.0
C162 C 0.7291 0.91701 0.3334 0.0
C163 C 0.71787 0.95684 0.35973 0.0
C164 C 0.68249 0.98427 0.36473 0.0
C165 C 0.65823 0.97135 0.34386 0.0
C166 C 0.67121 0.93148 0.31771 0.0
H167 H 0.75677 0.89638 0.3291 0.0
O168 O 0.6686 0.7798 0.38299 0.0
O169 O 0.6776 0.81513 0.32075 0.0
O170 O 0.76079 0.76999 0.29904 0.0
O171 O 0.77292 0.83927 0.26864 0.0
C172 C 0.62172 0.99645 0.34793 0.0
C173 C 0.59855 0.98103 0.32638 0.0
H174 H 0.56184 0.9404 0.28058 0.0
H175 H 0.58997 0.86902 0.23565 0.0
H176 H 0.73669 0.96657 0.3758 0.0
H177 H 0.67432 0.01521 0.38463 0.0
H178 H 0.61087 0.02742 0.36795 0.0
H179 H 0.57012 1.00029 0.33033 0.0
Mn180 Mn 0.32335 0.75253 0.1862 0.0
Mn181 Mn 0.30563 0.86186 0.21828 0.0
C182 C 0.36291 0.80884 0.13073 0.0
C183 C 0.362 0.68379 0.16958 0.0
C184 C 0.23783 0.80625 0.20875 0.0
O185 O 0.2951 0.74892 0.25819 0.0
O186 O 0.28585 0.82313 0.27413 0.0
C187 C 0.37256 0.87103 0.24731 0.0
N188 N 0.35642 0.88459 0.21996 0.0
C189 C 0.41219 0.94385 0.18543 0.0
C190 C 0.42932 0.93059 0.21333 0.0
C191 C 0.40952 0.89393 0.24427 0.0
C192 C 0.37541 0.91964 0.18985 0.0
H193 H 0.35733 0.84298 0.27127 0.0
C194 C 0.28276 0.7821 0.28697 0.0
O195 O 0.32026 0.68654 0.17968 0.0
O196 O 0.38044 0.7207 0.17219 0.0
N197 N 0.32413 0.903 0.16711 0.0
C198 C 0.30522 0.90991 0.14082 0.0
C199 C 0.32174 0.94486 0.10745 0.0
C200 C 0.35717 0.97255 0.10179 0.0
C201 C 0.37605 0.96482 0.1293 0.0
C202 C 0.3581 0.92958 0.16209 0.0
H203 H 0.27773 0.88894 0.1453 0.0
O204 O 0.35638 0.77029 0.11731 0.0
O205 O 0.34479 0.81374 0.17589 0.0
O206 O 0.26105 0.77009 0.19698 0.0
O207 O 0.25152 0.8427 0.21708 0.0
C208 C 0.41233 0.99035 0.12509 0.0
C209 C 0.43057 0.97971 0.15293 0.0
H210 H 0.45784 0.94814 0.21107 0.0
H211 H 0.42264 0.88342 0.26581 0.0
H212 H 0.30708 0.95054 0.08625 0.0
H213 H 0.36976 0.9995 0.07607 0.0
H214 H 0.42693 0.01782 0.10004 0.0
H215 H 0.45898 0.99908 0.14877 0.0
Mn216 Mn 0.30516 0.25247 0.68995 0.0
Mn217 Mn 0.38931 0.24658 0.71278 0.0
C218 C 0.29281 0.27676 0.76221 0.0
C219 C 0.24051 0.22414 0.69286 0.0
C220 C 0.38816 0.31582 0.64686 0.0
O221 O 0.34927 0.20598 0.64097 0.0
O222 O 0.40097 0.20412 0.66244 0.0
C223 C 0.37196 0.1546 0.75214 0.0
N224 N 0.37662 0.19928 0.75679 0.0
C225 C 0.36798 0.18802 0.83251 0.0
C226 C 0.36317 0.14186 0.82852 0.0
C227 C 0.36496 0.12512 0.78825 0.0
C228 C 0.37442 0.2158 0.79562 0.0
H229 H 0.37365 0.14157 0.72109 0.0
C230 C 0.38587 0.19063 0.63696 0.0
O231 O 0.26635 0.25449 0.6623 0.0
O232 O 0.25359 0.20839 0.71999 0.0
N233 N 0.38173 0.28593 0.76168 0.0
C234 C 0.38525 0.33144 0.76082 0.0
C235 C 0.38382 0.35359 0.79867 0.0
C236 C 0.3794 0.3287 0.83662 0.0
C237 C 0.37589 0.28187 0.83669 0.0
C238 C 0.37755 0.26166 0.798 0.0
H239 H 0.38941 0.35066 0.73135 0.0
O240 O 0.26804 0.29256 0.74691 0.0
O241 O 0.32444 0.24865 0.73443 0.0
O242 O 0.35035 0.30344 0.65221 0.0
O243 O 0.40566 0.29667 0.66773 0.0
C244 C 0.37074 0.25445 0.87364 0.0
C245 C 0.36633 0.20761 0.87178 0.0
H246 H 0.35793 0.119 0.85622 0.0
H247 H 0.36119 0.08955 0.78495 0.0
H248 H 0.38652 0.38974 0.7984 0.0
H249 H 0.37869 0.34592 0.86554 0.0
H250 H 0.36962 0.26908 0.9039 0.0
H251 H 0.36161 0.18698 0.90077 0.0
Mn252 Mn 0.70684 0.25183 0.81969 0.0
Mn253 Mn 0.61193 0.23688 0.81572 0.0
C254 C 0.70577 0.27297 0.75326 0.0
C255 C 0.77771 0.22856 0.80615 0.0
C256 C 0.6197 0.30993 0.87404 0.0
O257 O 0.67143 0.20402 0.87075 0.0
O258 O 0.61021 0.19659 0.86368 0.0
C259 C 0.63031 0.14421 0.77814 0.0
N260 N 0.62174 0.18805 0.77427 0.0
C261 C 0.62221 0.17308 0.70324 0.0
C262 C 0.63084 0.12773 0.70658 0.0
C263 C 0.63508 0.11328 0.7441 0.0
C264 C 0.618 0.20238 0.73808 0.0
H265 H 0.6335 0.13294 0.80698 0.0
C266 C 0.63312 0.18618 0.88233 0.0
O267 O 0.75299 0.25867 0.83771 0.0
O268 O 0.76067 0.2108 0.78342 0.0
N269 N 0.60968 0.27365 0.77003 0.0
C270 C 0.60315 0.31878 0.7709 0.0
C271 C 0.59885 0.33876 0.73538 0.0
C272 C 0.60085 0.31211 0.69966 0.0
C273 C 0.6073 0.26569 0.69968 0.0
C274 C 0.61126 0.24767 0.73604 0.0
H275 H 0.6012 0.33935 0.79851 0.0
O276 O 0.7341 0.29197 0.76223 0.0
O277 O 0.6784 0.24361 0.78397 0.0
O278 O 0.66055 0.30046 0.86216 0.0
O279 O 0.59843 0.28827 0.85864 0.0
C280 C 0.61026 0.23665 0.66489 0.0
C281 C 0.61805 0.19043 0.66646 0.0
H282 H 0.63453 0.10377 0.6804 0.0
H283 H 0.6419 0.07836 0.74683 0.0
H284 H 0.59389 0.3746 0.73559 0.0
H285 H 0.59758 0.32766 0.6723 0.0
H286 H 0.60705 0.24955 0.63648 0.0
H287 H 0.62096 0.16857 0.6391 0.0
C288 C 0.14794 0.11558 0.37074 0.0
C289 C 0.12665 0.15302 0.3649 0.0
C290 C 0.1221 0.07857 0.39731 0.0
C291 C 0.01193 0.01948 0.44777 0.0
H292 H 0.03602 0.98118 0.54334 0.0
C293 C 0.89686 0.88937 0.59397 0.0
C294 C 0.91791 0.86018 0.60984 0.0
C295 C 0.9217 0.9244 0.56246 0.0
C296 C 0.02921 0.99071 0.5164 0.0
H297 H 0.06167 0.17977 0.38041 0.0
H298 H 0.01653 0.11453 0.42631 0.0
H299 H 0.08072 0.0417 0.48954 0.0
H300 H 0.98218 0.8443 0.60361 0.0
H301 H 0.02561 0.9039 0.54781 0.0
H302 H 0.96094 0.96789 0.47404 0.0
C303 C 0.05329 0.11411 0.41043 0.0
C304 C 0.05484 0.02567 0.4856 0.0
C305 C 0.07915 0.15147 0.38416 0.0
C306 C 0.96462 0.86638 0.59264 0.0
C307 C 0.98954 0.90093 0.56075 0.0
C308 C 0.98657 0.98399 0.47828 0.0
C309 C 0.07435 0.07779 0.4184 0.0
C310 C 0.04667 0.04042 0.45082 0.0
C311 C 0.9684 0.93089 0.54557 0.0
C312 C 0.99495 0.96897 0.51301 0.0
H313 H 0.18444 0.11549 0.35635 0.0
H314 H 0.13944 0.05082 0.40217 0.0
H315 H 1.00497 0.02999 0.42119 0.0
H316 H 0.86089 0.88575 0.60665 0.0
H317 H 0.90393 0.94696 0.55222 0.0
C318 C 0.04804 0.85242 0.92822 0.0
C319 C 0.09541 0.84764 0.90861 0.0
C320 C 0.02354 0.88799 0.95878 0.0
C321 C 0.02883 0.97639 0.03488 0.0
H322 H 0.93253 0.03017 0.02432 0.0
C323 C 0.93548 0.14427 0.12696 0.0
C324 C 0.8882 0.14642 0.14513 0.0
C325 C 0.96126 0.10656 0.1013 0.0
C326 C 0.95893 0.01526 0.02819 0.0
H327 H 0.15391 0.87691 0.90647 0.0
H328 H 0.11134 0.93948 0.95901 0.0
H329 H 0.97664 0.96807 0.97283 0.0
H330 H 0.83065 0.10951 0.15259 0.0
H331 H 0.87529 0.0441 0.10844 0.0
H332 H 0.01128 0.02458 0.08988 0.0
C333 C 0.09294 0.91518 0.95134 0.0
C334 C 0.98429 0.97945 0.99862 0.0
C335 C 0.11747 0.87933 0.92091 0.0
C336 C 0.86702 0.1092 0.13891 0.0
C337 C 0.89271 0.07174 0.11323 0.0
C338 C 1.00355 0.01255 0.06435 0.0
C339 C 0.04563 0.92022 0.97047 0.0
C340 C 0.01938 0.95916 1.00171 0.0
C341 C 0.94034 0.07032 0.09307 0.0
C342 C 0.96799 0.03218 0.06164 0.0
H343 H 0.02964 0.8286 0.92002 0.0
H344 H 0.98704 0.89001 0.97348 0.0
H345 H 0.05521 0.96145 0.03874 0.0
H346 H 0.95292 0.17239 0.13096 0.0
H347 H 0.99789 0.10663 0.08619 0.0
C348 C 0.459 0.36295 0.60097 0.0
C349 C 0.41353 0.35411 0.61469 0.0
C350 C 0.48327 0.39874 0.57078 0.0
C351 C 0.48366 0.47887 0.4847 0.0
H352 H 0.56969 0.54251 0.50462 0.0
C353 C 0.57842 0.64438 0.38685 0.0
C354 C 0.62522 0.64643 0.37083 0.0
C355 C 0.55135 0.60823 0.41472 0.0
C356 C 0.54605 0.52487 0.49834 0.0
H357 H 0.358 0.37648 0.6072 0.0
H358 H 0.39996 0.43973 0.55549 0.0
H359 H 0.52415 0.48196 0.55798 0.0
H360 H 0.6805 0.61128 0.37028 0.0
H361 H 0.63342 0.54878 0.41884 0.0
H362 H 0.50533 0.52293 0.4254 0.0
C363 C 0.41722 0.41832 0.56733 0.0
C364 C 0.51997 0.48994 0.52888 0.0
C365 C 0.393 0.38213 0.59727 0.0
C366 C 0.64458 0.61091 0.38204 0.0
C367 C 0.61753 0.57517 0.41018 0.0
C368 C 0.50949 0.51428 0.45438 0.0
C369 C 0.46271 0.42722 0.55375 0.0
C370 C 0.48883 0.46594 0.52219 0.0
C371 C 0.57046 0.57374 0.42756 0.0
C372 C 0.54144 0.53725 0.46051 0.0
H373 H 0.47621 0.34193 0.61319 0.0
H374 H 0.51849 0.40368 0.56039 0.0
H375 H 0.46044 0.461 0.47801 0.0
H376 H 0.56243 0.67123 0.37892 0.0
H377 H 0.51514 0.60811 0.42767 0.0
C378 C 0.36864 0.60401 0.14329 0.0
C379 C 0.38888 0.64177 0.14991 0.0
C380 C 0.39505 0.56656 0.11845 0.0
C381 C 0.51513 0.53448 0.02882 0.0
H382 H 0.46418 0.41451 0.05693 0.0
C383 C 0.61842 0.37714 0.92073 0.0
C384 C 0.5952 0.34749 0.90788 0.0
C385 C 0.59493 0.41222 0.9528 0.0
C386 C 0.47884 0.44785 0.04846 0.0
H387 H 0.45262 0.66886 0.13734 0.0
H388 H 0.49864 0.60301 0.09495 0.0
H389 H 0.4205 0.47596 0.11044 0.0
H390 H 0.52873 0.33179 0.91916 0.0
H391 H 0.48806 0.39251 0.97498 0.0
H392 H 0.57353 0.50606 0.96677 0.0
C393 C 0.4624 0.60272 0.1081 0.0
C394 C 0.45375 0.48319 0.07913 0.0
C395 C 0.43592 0.64035 0.13288 0.0
C396 C 0.54788 0.35383 0.92808 0.0
C397 C 0.5244 0.38853 0.96044 0.0
C398 C 0.5404 0.49901 0.99834 0.0
C399 C 0.44251 0.56564 0.09965 0.0
C400 C 0.47113 0.52722 0.06936 0.0
C401 C 0.54756 0.41818 0.97324 0.0
C402 C 0.52222 0.45539 0.00735 0.0
H403 H 0.33256 0.60396 0.15572 0.0
H404 H 0.37842 0.5391 0.1123 0.0
H405 H 0.52951 0.5679 0.01959 0.0
H406 H 0.65482 0.37339 0.90592 0.0
H407 H 0.61374 0.43434 0.9621 0.0
C408 C 0.93462 0.3567 0.11152 0.0
C409 C 0.90059 0.3475 0.10193 0.0
C410 C 0.96894 0.38795 0.08446 0.0
C411 C 0.02118 0.45771 0.97416 0.0
H412 H 0.05126 0.53609 0.04631 0.0
C413 C 0.1482 0.6054 0.88871 0.0
C414 C 0.12775 0.64671 0.90925 0.0
C415 C 0.12719 0.56529 0.9119 0.0
C416 C 0.04338 0.51431 0.02568 0.0
H417 H 0.87714 0.3611 0.0548 0.0
H418 H 0.93595 0.41766 0.0084 0.0
H419 H 1.00352 0.4707 0.08416 0.0
H420 H 0.07054 0.67912 0.97022 0.0
H421 H 0.0348 0.60892 0.01213 0.0
H422 H 0.06198 0.50175 0.91534 0.0
C423 C 0.93681 0.40025 0.03636 0.0
C424 C 0.01587 0.47672 0.04733 0.0
C425 C 0.90285 0.36815 0.06306 0.0
C426 C 0.08745 0.64758 0.95443 0.0
C427 C 0.06694 0.6075 0.9781 0.0
C428 C 0.04956 0.49489 0.95218 0.0
C429 C 0.96982 0.41124 0.04735 0.0
C430 C 1.00317 0.44856 0.02238 0.0
C431 C 0.08577 0.56601 0.95628 0.0
C432 C 0.06007 0.52404 0.97807 0.0
H433 H 0.93422 0.34018 0.14064 0.0
H434 H 0.99434 0.39427 0.09327 0.0
H435 H 0.01318 0.43634 0.95337 0.0
H436 H 0.17867 0.60409 0.85329 0.0
H437 H 0.14239 0.53373 0.89444 0.0
C438 C 0.08616 0.36303 0.41348 0.0
C439 C 0.12307 0.34965 0.41711 0.0
C440 C 0.0555 0.39567 0.44372 0.0
C441 C 0.05391 0.49137 0.51371 0.0
H442 H 0.92696 0.50132 0.55088 0.0
C443 C 0.9422 0.63521 0.63028 0.0
C444 C 0.91093 0.65598 0.62135 0.0
C445 C 0.96482 0.59606 0.60708 0.0
C446 C 0.96257 0.49928 0.54005 0.0
H447 H 0.15431 0.35558 0.45818 0.0
H448 H 0.10032 0.41279 0.5119 0.0
H449 H 0.96981 0.4327 0.5129 0.0
H450 H 0.87877 0.65094 0.58088 0.0
H451 H 0.91979 0.58217 0.53881 0.0
H452 H 0.04738 0.55802 0.53956 0.0
C453 C 0.09584 0.39914 0.48462 0.0
C454 C 0.98709 0.45985 0.51857 0.0
C455 C 0.12658 0.36628 0.45421 0.0
C456 C 0.90277 0.63602 0.58841 0.0
C457 C 0.92602 0.59652 0.56461 0.0
C458 C 0.0297 0.53075 0.53459 0.0
C459 C 0.06089 0.41537 0.47862 0.0
C460 C 0.03316 0.45545 0.50506 0.0
C461 C 0.95759 0.57637 0.57355 0.0
C462 C 0.98362 0.53517 0.54841 0.0
H463 H 0.08217 0.34961 0.38576 0.0
H464 H 0.02936 0.40728 0.43768 0.0
H465 H 0.08945 0.48975 0.50308 0.0
H466 H 0.94914 0.64879 0.65587 0.0
H467 H 0.98781 0.58095 0.61594 0.0
C468 C 0.56774 0.14789 0.95084 0.0
C469 C 0.61468 0.14843 0.91583 0.0
C470 C 0.54605 0.10793 0.97329 0.0
C471 C 0.56352 0.98818 0.99045 0.0
H472 H 0.44567 0.97628 1.00335 0.0
C473 C 0.40175 0.85496 0.05628 0.0
C474 C 0.39979 0.83883 0.0967 0.0
C475 C 0.43459 0.88714 0.02747 0.0
C476 C 0.4788 0.97845 0.99936 0.0
H477 H 0.67645 0.10845 0.87844 0.0
H478 H 0.63845 0.038 0.91739 0.0
H479 H 0.48918 0.04464 0.97116 0.0
H480 H 0.43351 0.83873 0.13568 0.0
H481 H 0.48944 0.89545 0.08703 0.0
H482 H 0.55345 0.92145 0.01779 0.0
C483 C 0.61845 0.06859 0.92811 0.0
C484 C 0.50346 0.01824 0.98169 0.0
C485 C 0.64035 0.10893 0.90603 0.0
C486 C 0.43356 0.85191 0.10541 0.0
C487 C 0.46617 0.88398 0.07692 0.0
C488 C 0.53884 0.94817 0.00804 0.0
C489 C 0.57065 0.06737 0.96046 0.0
C490 C 0.54567 0.02404 0.97794 0.0
C491 C 0.46617 0.90331 0.03851 0.0
C492 C 0.49562 0.94311 0.01369 0.0
H493 H 0.54726 0.17798 0.95877 0.0
H494 H 0.50948 0.10849 0.99911 0.0
H495 H 0.59604 0.99138 0.98774 0.0
H496 H 0.37666 0.84433 0.04829 0.0
H497 H 0.4343 0.90025 0.9974 0.0
C498 C 0.63556 0.8735 0.42989 0.0
C499 C 0.63016 0.85076 0.39655 0.0
C500 C 0.60607 0.90891 0.456 0.0
C501 C 0.49438 0.96181 0.49476 0.0
H502 H 0.55676 0.07075 0.49167 0.0
C503 C 0.39709 0.13004 0.57814 0.0
C504 C 0.41272 0.15403 0.60303 0.0
C505 C 0.42234 0.0933 0.54951 0.0
C506 C 0.53851 0.04055 0.49352 0.0
H507 H 0.58768 0.84349 0.36738 0.0
H508 H 0.53601 0.90505 0.41313 0.0
H509 H 0.60069 1.00313 0.45586 0.0
H510 H 0.46788 0.15833 0.61621 0.0
H511 H 0.5097 0.09496 0.56895 0.0
H512 H 0.43166 0.99887 0.53506 0.0
C513 C 0.56315 0.89626 0.41877 0.0
C514 C 0.5639 1.00175 0.47272 0.0
C515 C 0.59294 0.86139 0.3923 0.0
C516 C 0.45435 0.141 0.59782 0.0
C517 C 0.47896 0.10456 0.56998 0.0
C518 C 0.46862 1.00054 0.51687 0.0
C519 C 0.57015 0.92122 0.44993 0.0
C520 C 0.54224 0.96188 0.47327 0.0
C521 C 0.46354 0.08006 0.54537 0.0
C522 C 0.4904 0.04024 0.51716 0.0
H523 H 0.66366 0.86525 0.43416 0.0
H524 H 0.61188 0.92725 0.48028 0.0
H525 H 0.47675 0.93148 0.49565 0.0
H526 H 0.36515 0.13906 0.58144 0.0
H527 H 0.40958 0.07527 0.53078 0.0
C528 C 0.24724 0.81084 0.36953 0.0
C529 C 0.26673 0.77472 0.33759 0.0
C530 C 0.23802 0.80759 0.41542 0.0
C531 C 0.27296 0.74415 0.48613 0.0
H532 H 0.17512 0.81343 0.58901 0.0
C533 C 0.22778 0.73683 0.67979 0.0
C534 C 0.21759 0.77748 0.70461 0.0
C535 C 0.23439 0.73534 0.63479 0.0
C536 C 0.20278 0.79418 0.56054 0.0
H537 H 0.2894 0.70577 0.3302 0.0
H538 H 0.27186 0.69949 0.4115 0.0
H539 H 0.18005 0.80825 0.5137 0.0
H540 H 0.2092 0.84891 0.70118 0.0
H541 H 0.21996 0.84643 0.62216 0.0
H542 H 0.29476 0.72926 0.53389 0.0
C543 C 0.26487 0.73087 0.40025 0.0
C544 C 0.20571 0.79117 0.51725 0.0
C545 C 0.27445 0.73423 0.3538 0.0
C546 C 0.21633 0.81714 0.68283 0.0
C547 C 0.22229 0.8156 0.63788 0.0
C548 C 0.26951 0.74654 0.52979 0.0
C549 C 0.2474 0.76791 0.43133 0.0
C550 C 0.24133 0.76678 0.47909 0.0
C551 C 0.23088 0.77453 0.61367 0.0
C552 C 0.23472 0.77205 0.56725 0.0
H553 H 0.24046 0.84258 0.35866 0.0
H554 H 0.22532 0.83713 0.43768 0.0
H555 H 0.30129 0.72568 0.45752 0.0
H556 H 0.22979 0.70592 0.69567 0.0
H557 H 0.24068 0.70321 0.61723 0.0
C558 C 0.76862 0.82558 0.84203 0.0
C559 C 0.77096 0.78867 0.81507 0.0
C560 C 0.75579 0.81948 0.88926 0.0
C561 C 0.74919 0.72637 0.96857 0.0
H562 H 0.7116 0.8239 0.05843 0.0
C563 C 0.76991 0.7831 0.12921 0.0
C564 C 0.74018 0.75594 0.16826 0.0
C565 C 0.76993 0.78105 0.0876 0.0
C566 C 0.72188 0.79632 0.03363 0.0
H567 H 0.7567 0.71786 0.8168 0.0
H568 H 0.73108 0.70766 0.89942 0.0
H569 H 0.71115 0.8346 0.98643 0.0
H570 H 0.69014 0.70244 0.19286 0.0
H571 H 0.69141 0.6978 0.11851 0.0
H572 H 0.75938 0.68829 0.01682 0.0
C573 C 0.74193 0.74077 0.88422 0.0
C574 C 0.7221 0.80251 0.99206 0.0
C575 C 0.75602 0.74667 0.83692 0.0
C576 C 0.71369 0.72345 0.16317 0.0
C577 C 0.71404 0.72112 0.12097 0.0
C578 C 0.74824 0.72004 0.01057 0.0
C579 C 0.74378 0.77652 0.91056 0.0
C580 C 0.7372 0.76813 0.95804 0.0
C581 C 0.74065 0.75141 0.08387 0.0
C582 C 0.73579 0.75537 0.04272 0.0
H583 H 0.77968 0.85833 0.82578 0.0
H584 H 0.75816 0.84802 0.90777 0.0
H585 H 0.76177 0.69903 0.94341 0.0
H586 H 0.79097 0.80823 0.13199 0.0
H587 H 0.79131 0.80414 0.05904 0.0
C588 C 0.74151 0.30702 0.37189 0.0
C589 C 0.76347 0.27248 0.33837 0.0
C590 C 0.73224 0.30273 0.41768 0.0
C591 C 0.77002 0.23936 0.4864 0.0
H592 H 0.67191 0.30763 0.59009 0.0
C593 C 0.72355 0.23189 0.6809 0.0
C594 C 0.71501 0.27292 0.70481 0.0
C595 C 0.73032 0.23016 0.63583 0.0
C596 C 0.69956 0.28855 0.56143 0.0
H597 H 0.79009 0.20485 0.3281 0.0
H598 H 0.77201 0.1964 0.40945 0.0
H599 H 0.67577 0.30197 0.51547 0.0
H600 H 0.70959 0.34462 0.69973 0.0
H601 H 0.72031 0.34169 0.6207 0.0
H602 H 0.79233 0.22456 0.53381 0.0
C603 C 0.76337 0.22758 0.39947 0.0
C604 C 0.70199 0.28536 0.51843 0.0
C605 C 0.77319 0.23211 0.35298 0.0
C606 C 0.7155 0.31261 0.68207 0.0
C607 C 0.72147 0.31083 0.63713 0.0
C608 C 0.76682 0.24161 0.52996 0.0
C609 C 0.74379 0.26338 0.43209 0.0
C610 C 0.73788 0.26161 0.47981 0.0
C611 C 0.72845 0.26947 0.61384 0.0
C612 C 0.73197 0.26684 0.56764 0.0
H613 H 0.73307 0.33857 0.36226 0.0
H614 H 0.71794 0.33145 0.44097 0.0
H615 H 0.79856 0.22133 0.45754 0.0
H616 H 0.72412 0.20092 0.69756 0.0
H617 H 0.73538 0.19786 0.61891 0.0
C618 C 0.23094 0.24555 0.15935 0.0
C619 C 0.2326 0.28768 0.17724 0.0
C620 C 0.23622 0.24214 0.11466 0.0
C621 C 0.27618 0.30895 1.00418 0.0
H622 H 0.20118 0.22675 0.98459 0.0
C623 C 0.26999 0.32005 0.83602 0.0
C624 C 0.27688 0.27904 0.81276 0.0
C625 C 0.2596 0.3208 0.88275 0.0
C626 C 0.22236 0.24989 0.98957 0.0
H627 H 0.24167 0.35917 0.16134 0.0
H628 H 0.24902 0.35329 0.08613 0.0
H629 H 0.19718 0.22585 0.05991 0.0
H630 H 0.27367 0.20687 0.82075 0.0
H631 H 0.25587 0.208 0.90185 0.0
H632 H 0.30011 0.33407 0.9349 0.0
C633 C 0.24503 0.32259 0.10529 0.0
C634 C 0.22041 0.24907 0.03257 0.0
C635 C 0.24035 0.32592 0.14912 0.0
C636 C 0.26948 0.23894 0.83786 0.0
C637 C 0.25877 0.23961 0.88448 0.0
C638 C 0.27733 0.3104 0.96186 0.0
C639 C 0.24306 0.28081 0.08725 0.0
C640 C 0.24718 0.2788 0.0405 0.0
C641 C 0.25511 0.28051 0.90702 0.0
C642 C 0.25069 0.2808 0.95382 0.0
H643 H 0.22489 0.21544 0.18004 0.0
H644 H 0.2349 0.20931 0.10166 0.0
H645 H 0.29824 0.33162 0.00829 0.0
H646 H 0.2748 0.35134 0.81742 0.0
H647 H 0.25622 0.35289 0.89946 0.0
C648 C 0.3501 0.27445 0.28123 0.0
C649 C 0.32846 0.31516 0.2833 0.0
C650 C 0.39469 0.27403 0.27203 0.0
C651 C 0.47857 0.34461 0.27871 0.0
H652 H 0.56788 0.25934 0.18929 0.0
C653 C 0.66866 0.3533 0.22105 0.0
C654 C 0.6922 0.31274 0.21436 0.0
C655 C 0.62499 0.35361 0.22795 0.0
C656 C 0.54328 0.28302 0.21485 0.0
H657 H 0.33707 0.38744 0.27754 0.0
H658 H 0.41454 0.38659 0.26186 0.0
H659 H 0.4903 0.2594 0.20514 0.0
H660 H 0.68798 0.2406 0.20946 0.0
H661 H 0.61161 0.24103 0.2225 0.0
H662 H 0.53098 0.3678 0.28924 0.0
C663 C 0.39693 0.35499 0.26744 0.0
C664 C 0.49877 0.28308 0.22384 0.0
C665 C 0.35255 0.35542 0.27617 0.0
C666 C 0.67108 0.27252 0.21419 0.0
C667 C 0.62722 0.2728 0.22148 0.0
C668 C 0.52293 0.34432 0.27004 0.0
C669 C 0.4186 0.31431 0.26516 0.0
C670 C 0.4659 0.31396 0.25579 0.0
C671 C 0.60339 0.31333 0.22877 0.0
C672 C 0.55602 0.3136 0.23788 0.0
H673 H 0.33272 0.24278 0.28646 0.0
H674 H 0.41024 0.24214 0.27095 0.0
H675 H 0.4539 0.36842 0.30404 0.0
H676 H 0.68394 0.38499 0.22101 0.0
H677 H 0.60827 0.38558 0.23243 0.0
C678 C 0.6914 0.72187 0.66498 0.0
C679 C 0.69951 0.7178 0.70174 0.0
C680 C 0.64724 0.71597 0.6739 0.0
C681 C 0.52718 0.6803 0.76876 0.0
H682 H 0.49493 0.75494 0.69582 0.0
C683 C 0.34202 0.73435 0.82621 0.0
C684 C 0.32966 0.72557 0.79317 0.0
C685 C 0.3871 0.7274 0.81424 0.0
C686 C 0.5036 0.73365 0.7162 0.0
H687 H 0.66788 0.70358 0.77654 0.0
H688 H 0.59087 0.69558 0.7928 0.0
H689 H 0.57361 0.75398 0.67616 0.0
H690 H 0.35476 0.70246 0.72176 0.0
H691 H 0.43403 0.69194 0.70033 0.0
H692 H 0.45586 0.66255 0.81061 0.0
C693 C 0.61846 0.70163 0.75654 0.0
C694 C 0.54892 0.73269 0.70476 0.0
C695 C 0.66283 0.7064 0.74731 0.0
C696 C 0.3632 0.70927 0.74806 0.0
C697 C 0.40854 0.70341 0.73571 0.0
C698 C 0.48161 0.68219 0.78089 0.0
C699 C 0.6097 0.70713 0.72016 0.0
C700 C 0.56156 0.70613 0.73094 0.0
C701 C 0.42093 0.71261 0.76862 0.0
C702 C 0.46942 0.70895 0.75478 0.0
H703 H 0.7191 0.73041 0.6294 0.0
H704 H 0.64261 0.71914 0.64445 0.0
H705 H 0.53525 0.65858 0.78927 0.0
H706 H 0.31691 0.7469 0.86124 0.0
H707 H 0.39588 0.73496 0.84014 0.0
C708 C 0.17058 0.76508 0.21661 0.0
C709 C 0.19238 0.80584 0.21378 0.0
C710 C 0.12713 0.76469 0.22295 0.0
C711 C 0.0474 0.83304 0.20718 0.0
H712 H 0.95421 0.75406 0.30203 0.0
C713 C 0.85821 0.84429 0.26114 0.0
C714 C 0.83273 0.8044 0.27245 0.0
C715 C 0.90216 0.84426 0.25356 0.0
C716 C 0.97992 0.77586 0.27485 0.0
H717 H 0.18557 0.87823 0.21456 0.0
H718 H 0.11003 0.87742 0.22507 0.0
H719 H 0.0308 0.75399 0.2886 0.0
H720 H 0.8341 0.733 0.28401 0.0
H721 H 0.91097 0.73271 0.26962 0.0
H722 H 0.99701 0.85444 0.19269 0.0
C723 C 0.12662 0.84577 0.22247 0.0
C724 C 0.02386 0.77588 0.26729 0.0
C725 C 0.16984 0.84619 0.2167 0.0
C726 C 0.8525 0.76444 0.27574 0.0
C727 C 0.89663 0.76433 0.26772 0.0
C728 C 1.00359 0.83272 0.21438 0.0
C729 C 0.1046 0.80502 0.22603 0.0
C730 C 0.05807 0.80458 0.23349 0.0
C731 C 0.9221 0.80426 0.25663 0.0
C732 C 0.9691 0.80424 0.24847 0.0
H733 H 0.1868 0.73334 0.21459 0.0
H734 H 0.11127 0.73274 0.22511 0.0
H735 H 0.07318 0.85515 0.18045 0.0
H736 H 0.84407 0.87579 0.25857 0.0
H737 H 0.9202 0.87583 0.24596 0.0
C738 C 0.18671 0.21931 0.66428 0.0
C739 C 0.19543 0.21239 0.7003 0.0
C740 C 0.14253 0.2135 0.67323 0.0
C741 C 0.02382 0.17249 0.76611 0.0
H742 H 0.98855 0.2514 0.69865 0.0
C743 C 0.83716 0.22555 0.82734 0.0
C744 C 0.82456 0.21765 0.79433 0.0
C745 C 0.88241 0.21876 0.81487 0.0
C746 C 0.99808 0.22893 0.71747 0.0
H747 H 0.16482 0.19336 0.77384 0.0
H748 H 0.08768 0.18555 0.79035 0.0
H749 H 0.06738 0.2515 0.67856 0.0
H750 H 0.84943 0.19617 0.72248 0.0
H751 H 0.92904 0.18596 0.70019 0.0
H752 H 0.95309 0.15246 0.80704 0.0
C753 C 0.11487 0.19376 0.75451 0.0
C754 C 0.0435 0.22858 0.70576 0.0
C755 C 0.1593 0.19844 0.74515 0.0
C756 C 0.85804 0.20223 0.74878 0.0
C757 C 0.90356 0.19657 0.73594 0.0
C758 C 0.97812 0.17374 0.77858 0.0
C759 C 0.1055 0.20188 0.7189 0.0
C760 C 0.05724 0.20046 0.72996 0.0
C761 C 0.91619 0.20504 0.76879 0.0
C762 C 0.96486 0.20202 0.75441 0.0
H763 H 0.21398 0.22984 0.62925 0.0
H764 H 0.1375 0.21878 0.64427 0.0
H765 H 0.03273 0.14954 0.78502 0.0
H766 H 0.81211 0.23747 0.86268 0.0
H767 H 0.89139 0.22573 0.84074 0.0
loop_
_geom_bond_atom_site_label_1
_geom_bond_atom_site_label_2
_geom_bond_distance
_geom_bond_site_symmetry_2
_ccdc_geom_bond_type
Mn0 O5 2.095 . S
Mn0 O15 2.162 . S
Mn0 O16 2.297 . S
Mn0 O24 2.385 . S
Mn0 O25 2.209 . S
Mn0 O26 2.094 . S
Mn1 O6 2.121 . S
Mn1 N8 2.257 . S
Mn1 N17 2.282 . S
Mn1 O25 2.215 . S
Mn1 O27 2.117 . S
C2 O24 1.234 . S
C2 O25 1.283 . S
C3 O15 1.281 . S
C3 O16 1.236 . S
C4 O26 1.240 . S
C4 O27 1.264 . S
O5 Mn0 2.095 . S
O5 C14 1.250 . S
O6 Mn1 2.121 . S
O6 C14 1.258 . S
C7 N8 1.326 . S
C7 C11 1.460 . S
C7 H13 0.929 . S
N8 Mn1 2.257 . S
N8 C7 1.326 . S
N8 C12 1.362 . S
C9 C10 1.258 . S
C9 C12 1.431 . S
C9 C29 1.449 . S
C10 C9 1.258 . S
C10 C11 1.477 . S
C10 H30 0.931 . S
C11 C7 1.460 . S
C11 C10 1.477 . S
C11 H31 0.930 . S
C12 N8 1.362 . S
C12 C9 1.431 . S
C12 C22 1.476 . S
H13 C7 0.929 . S
C14 O5 1.250 . S
C14 O6 1.258 . S
O15 Mn0 2.162 . S
O15 C3 1.281 . S
O16 Mn0 2.297 . S
O16 C3 1.236 . S
N17 Mn1 2.282 . S
N17 C18 1.328 . S
N17 C22 1.318 . S
C18 N17 1.328 . S
C18 C19 1.457 . S
C18 H23 0.929 . S
C19 C18 1.457 . S
C19 C20 1.291 . S
C19 H32 0.931 . S
C20 C19 1.291 . S
C20 C21 1.373 . S
C20 H33 0.929 . S
C21 C20 1.373 . S
C21 C22 1.396 . S
C21 C28 1.403 . S
C22 C12 1.476 . S
C22 N17 1.318 . S
C22 C21 1.396 . S
H23 C18 0.929 . S
O24 Mn0 2.385 . S
O24 C2 1.234 . S
O25 Mn0 2.209 . S
O25 Mn1 2.215 . S
O25 C2 1.283 . S
O26 Mn0 2.094 . S
O26 C4 1.240 . S
O27 Mn1 2.117 . S
O27 C4 1.264 . S
C28 C21 1.403 . S
C28 C29 1.399 . S
C28 H34 0.929 . S
C29 C9 1.449 . S
C29 C28 1.399 . S
C29 H35 0.930 . S
H30 C10 0.931 . S
H31 C11 0.930 . S
H32 C19 0.931 . S
H33 C20 0.929 . S
H34 C28 0.929 . S
H35 C29 0.930 . S
Mn36 O41 2.095 . S
Mn36 O51 2.162 . S
Mn36 O52 2.297 . S
Mn36 O60 2.385 . S
Mn36 O61 2.209 . S
Mn36 O62 2.094 . S
Mn37 O42 2.121 . S
Mn37 N44 2.257 . S
Mn37 N53 2.282 . S
Mn37 O61 2.215 . S
Mn37 O63 2.117 . S
C38 O60 1.234 . S
C38 O61 1.283 . S
C39 O51 1.281 . S
C39 O52 1.236 . S
C40 O62 1.240 . S
C40 O63 1.264 . S
O41 Mn36 2.095 . S
O41 C50 1.250 . S
O42 Mn37 2.121 . S
O42 C50 1.258 . S
C43 N44 1.326 . S
C43 C47 1.460 . S
C43 H49 0.929 . S
N44 Mn37 2.257 . S
N44 C43 1.326 . S
N44 C48 1.362 . S
C45 C46 1.258 . S
C45 C48 1.431 . S
C45 C65 1.449 . S
C46 C45 1.258 . S
C46 C47 1.477 . S
C46 H66 0.931 . S
C47 C43 1.460 . S
C47 C46 1.477 . S
C47 H67 0.930 . S
C48 N44 1.362 . S
C48 C45 1.431 . S
C48 C58 1.476 . S
H49 C43 0.929 . S
C50 O41 1.250 . S
C50 O42 1.258 . S
O51 Mn36 2.162 . S
O51 C39 1.281 . S
O52 Mn36 2.297 . S
O52 C39 1.236 . S
N53 Mn37 2.282 . S
N53 C54 1.328 . S
N53 C58 1.318 . S
C54 N53 1.328 . S
C54 C55 1.457 . S
C54 H59 0.929 . S
C55 C54 1.457 . S
C55 C56 1.291 . S
C55 H68 0.931 . S
C56 C55 1.291 . S
C56 C57 1.373 . S
C56 H69 0.929 . S
C57 C56 1.373 . S
C57 C58 1.396 . S
C57 C64 1.403 . S
C58 C48 1.476 . S
C58 N53 1.318 . S
C58 C57 1.396 . S
H59 C54 0.929 . S
O60 Mn36 2.385 . S
O60 C38 1.234 . S
O61 Mn36 2.209 . S
O61 Mn37 2.215 . S
O61 C38 1.283 . S
O62 Mn36 2.094 . S
O62 C40 1.240 . S
O63 Mn37 2.117 . S
O63 C40 1.264 . S
C64 C57 1.403 . S
C64 C65 1.399 . S
C64 H70 0.929 . S
C65 C45 1.449 . S
C65 C64 1.399 . S
C65 H71 0.930 . S
H66 C46 0.931 . S
H67 C47 0.930 . S
H68 C55 0.931 . S
H69 C56 0.929 . S
H70 C64 0.929 . S
H71 C65 0.930 . S
Mn72 O77 2.095 . S
Mn72 O87 2.162 . S
Mn72 O88 2.297 . S
Mn72 O96 2.385 . S
Mn72 O97 2.209 . S
Mn72 O98 2.094 . S
Mn73 O78 2.121 . S
Mn73 N80 2.257 . S
Mn73 N89 2.282 . S
Mn73 O97 2.215 . S
Mn73 O99 2.117 . S
C74 O96 1.234 . S
C74 O97 1.283 . S
C75 O87 1.281 . S
C75 O88 1.236 . S
C76 O98 1.240 . S
C76 O99 1.264 . S
O77 Mn72 2.095 . S
O77 C86 1.250 . S
O78 Mn73 2.121 . S
O78 C86 1.258 . S
C79 N80 1.326 . S
C79 C83 1.460 . S
C79 H85 0.929 . S
N80 Mn73 2.257 . S
N80 C79 1.326 . S
N80 C84 1.362 . S
C81 C82 1.258 . S
C81 C84 1.431 . S
C81 C101 1.449 . S
C82 C81 1.258 . S
C82 C83 1.477 . S
C82 H102 0.931 . S
C83 C79 1.460 . S
C83 C82 1.477 . S
C83 H103 0.930 . S
C84 N80 1.362 . S
C84 C81 1.431 . S
C84 C94 1.476 . S
H85 C79 0.929 . S
C86 O77 1.250 . S
C86 O78 1.258 . S
O87 Mn72 2.162 . S
O87 C75 1.281 . S
O88 Mn72 2.297 . S
O88 C75 1.236 . S
N89 Mn73 2.282 . S
N89 C90 1.328 . S
N89 C94 1.318 . S
C90 N89 1.328 . S
C90 C91 1.457 . S
C90 H95 0.929 . S
C91 C90 1.457 . S
C91 C92 1.291 . S
C91 H104 0.931 . S
C92 C91 1.291 . S
C92 C93 1.373 . S
C92 H105 0.929 . S
C93 C92 1.373 . S
C93 C94 1.396 . S
C93 C100 1.403 . S
C94 C84 1.476 . S
C94 N89 1.318 . S
C94 C93 1.396 . S
H95 C90 0.929 . S
O96 Mn72 2.385 . S
O96 C74 1.234 . S
O97 Mn72 2.209 . S
O97 Mn73 2.215 . S
O97 C74 1.283 . S
O98 Mn72 2.094 . S
O98 C76 1.240 . S
O99 Mn73 2.117 . S
O99 C76 1.264 . S
C100 C93 1.403 . S
C100 C101 1.399 . S
C100 H106 0.929 . S
C101 C81 1.449 . S
C101 C100 1.399 . S
C101 H107 0.930 . S
H102 C82 0.931 . S
H103 C83 0.930 . S
H104 C91 0.931 . S
H105 C92 0.929 . S
H106 C100 0.929 . S
H107 C101 0.930 . S
Mn108 O113 2.095 . S
Mn108 O123 2.162 . S
Mn108 O124 2.297 . S
Mn108 O132 2.385 . S
Mn108 O133 2.209 . S
Mn108 O134 2.094 . S
Mn109 O114 2.121 . S
Mn109 N116 2.257 . S
Mn109 N125 2.282 . S
Mn109 O133 2.215 . S
Mn109 O135 2.117 . S
C110 O132 1.234 . S
C110 O133 1.283 . S
C111 O123 1.281 . S
C111 O124 1.236 . S
C112 O134 1.240 . S
C112 O135 1.264 . S
O113 Mn108 2.095 . S
O113 C122 1.250 . S
O114 Mn109 2.121 . S
O114 C122 1.258 . S
C115 N116 1.326 . S
C115 C119 1.460 . S
C115 H121 0.929 . S
N116 Mn109 2.257 . S
N116 C115 1.326 . S
N116 C120 1.362 . S
C117 C118 1.258 . S
C117 C120 1.431 . S
C117 C137 1.449 . S
C118 C117 1.258 . S
C118 C119 1.477 . S
C118 H138 0.931 . S
C119 C115 1.460 . S
C119 C118 1.477 . S
C119 H139 0.930 . S
C120 N116 1.362 . S
C120 C117 1.431 . S
C120 C130 1.476 . S
H121 C115 0.929 . S
C122 O113 1.250 . S
C122 O114 1.258 . S
O123 Mn108 2.162 . S
O123 C111 1.281 . S
O124 Mn108 2.297 . S
O124 C111 1.236 . S
N125 Mn109 2.282 . S
N125 C126 1.328 . S
N125 C130 1.318 . S
C126 N125 1.328 . S
C126 C127 1.457 . S
C126 H131 0.929 . S
C127 C126 1.457 . S
C127 C128 1.291 . S
C127 H140 0.931 . S
C128 C127 1.291 . S
C128 C129 1.373 . S
C128 H141 0.929 . S
C129 C128 1.373 . S
C129 C130 1.396 . S
C129 C136 1.403 . S
C130 C120 1.476 . S
C130 N125 1.318 . S
C130 C129 1.396 . S
H131 C126 0.929 . S
O132 Mn108 2.385 . S
O132 C110 1.234 . S
O133 Mn108 2.209 . S
O133 Mn109 2.215 . S
O133 C110 1.283 . S
O134 Mn108 2.094 . S
O134 C112 1.240 . S
O135 Mn109 2.117 . S
O135 C112 1.264 . S
C136 C129 1.403 . S
C136 C137 1.399 . S
C136 H142 0.929 . S
C137 C117 1.449 . S
C137 C136 1.399 . S
C137 H143 0.930 . S
H138 C118 0.931 . S
H139 C119 0.930 . S
H140 C127 0.931 . S
H141 C128 0.929 . S
H142 C136 0.929 . S
H143 C137 0.930 . S
Mn144 O149 2.095 . S
Mn144 O159 2.162 . S
Mn144 O160 2.297 . S
Mn144 O168 2.385 . S
Mn144 O169 2.209 . S
Mn144 O170 2.094 . S
Mn145 O150 2.121 . S
Mn145 N152 2.257 . S
Mn145 N161 2.282 . S
Mn145 O169 2.215 . S
Mn145 O171 2.117 . S
C146 O168 1.234 . S
C146 O169 1.283 . S
C147 O159 1.281 . S
C147 O160 1.236 . S
C148 O170 1.240 . S
C148 O171 1.264 . S
O149 Mn144 2.095 . S
O149 C158 1.250 . S
O150 Mn145 2.121 . S
O150 C158 1.258 . S
C151 N152 1.326 . S
C151 C155 1.460 . S
C151 H157 0.929 . S
N152 Mn145 2.257 . S
N152 C151 1.326 . S
N152 C156 1.362 . S
C153 C154 1.258 . S
C153 C156 1.431 . S
C153 C173 1.449 1_565 S
C154 C153 1.258 . S
C154 C155 1.477 . S
C154 H174 0.931 1_565 S
C155 C151 1.460 . S
C155 C154 1.477 . S
C155 H175 0.930 . S
C156 N152 1.362 . S
C156 C153 1.431 . S
C156 C166 1.476 . S
H157 C151 0.929 . S
C158 O149 1.250 . S
C158 O150 1.258 . S
O159 Mn144 2.162 . S
O159 C147 1.281 . S
O160 Mn144 2.297 . S
O160 C147 1.236 . S
N161 Mn145 2.282 . S
N161 C162 1.328 . S
N161 C166 1.318 . S
C162 N161 1.328 . S
C162 C163 1.457 . S
C162 H167 0.929 . S
C163 C162 1.457 . S
C163 C164 1.291 . S
C163 H176 0.931 . S
C164 C163 1.291 . S
C164 C165 1.373 . S
C164 H177 0.929 1_565 S
C165 C164 1.373 . S
C165 C166 1.396 . S
C165 C172 1.403 1_565 S
C166 C156 1.476 . S
C166 N161 1.318 . S
C166 C165 1.396 . S
H167 C162 0.929 . S
O168 Mn144 2.385 . S
O168 C146 1.234 . S
O169 Mn144 2.209 . S
O169 Mn145 2.215 . S
O169 C146 1.283 . S
O170 Mn144 2.094 . S
O170 C148 1.240 . S
O171 Mn145 2.117 . S
O171 C148 1.264 . S
C172 C165 1.403 1_545 S
C172 C173 1.399 . S
C172 H178 0.929 . S
C173 C153 1.449 1_545 S
C173 C172 1.399 . S
C173 H179 0.930 . S
H174 C154 0.931 1_545 S
H175 C155 0.930 . S
H176 C163 0.931 . S
H177 C164 0.929 1_545 S
H178 C172 0.929 . S
H179 C173 0.930 . S
Mn180 O185 2.095 . S
Mn180 O195 2.162 . S
Mn180 O196 2.297 . S
Mn180 O204 2.385 . S
Mn180 O205 2.209 . S
Mn180 O206 2.094 . S
Mn181 O186 2.121 . S
Mn181 N188 2.257 . S
Mn181 N197 2.282 . S
Mn181 O205 2.215 . S
Mn181 O207 2.117 . S
C182 O204 1.234 . S
C182 O205 1.283 . S
C183 O195 1.281 . S
C183 O196 1.236 . S
C184 O206 1.240 . S
C184 O207 1.264 . S
O185 Mn180 2.095 . S
O185 C194 1.250 . S
O186 Mn181 2.121 . S
O186 C194 1.258 . S
C187 N188 1.326 . S
C187 C191 1.460 . S
C187 H193 0.929 . S
N188 Mn181 2.257 . S
N188 C187 1.326 . S
N188 C192 1.362 . S
C189 C190 1.258 . S
C189 C192 1.431 . S
C189 C209 1.449 1_565 S
C190 C189 1.258 . S
C190 C191 1.477 . S
C190 H210 0.931 1_565 S
C191 C187 1.460 . S
C191 C190 1.477 . S
C191 H211 0.930 . S
C192 N188 1.362 . S
C192 C189 1.431 . S
C192 C202 1.476 . S
H193 C187 0.929 . S
C194 O185 1.250 . S
C194 O186 1.258 . S
O195 Mn180 2.162 . S
O195 C183 1.281 . S
O196 Mn180 2.297 . S
O196 C183 1.236 . S
N197 Mn181 2.282 . S
N197 C198 1.328 . S
N197 C202 1.318 . S
C198 N197 1.328 . S
C198 C199 1.457 . S
C198 H203 0.929 . S
C199 C198 1.457 . S
C199 C200 1.291 . S
C199 H212 0.931 . S
C200 C199 1.291 . S
C200 C201 1.373 . S
C200 H213 0.929 1_565 S
C201 C200 1.373 . S
C201 C202 1.396 . S
C201 C208 1.403 1_565 S
C202 C192 1.476 . S
C202 N197 1.318 . S
C202 C201 1.396 . S
H203 C198 0.929 . S
O204 Mn180 2.385 . S
O204 C182 1.234 . S
O205 Mn180 2.209 . S
O205 Mn181 2.215 . S
O205 C182 1.283 . S
O206 Mn180 2.094 . S
O206 C184 1.240 . S
O207 Mn181 2.117 . S
O207 C184 1.264 . S
C208 C201 1.403 1_545 S
C208 C209 1.399 . S
C208 H214 0.929 . S
C209 C189 1.449 1_545 S
C209 C208 1.399 . S
C209 H215 0.930 . S
H210 C190 0.931 1_545 S
H211 C191 0.930 . S
H212 C199 0.931 . S
H213 C200 0.929 1_545 S
H214 C208 0.929 . S
H215 C209 0.930 . S
Mn216 O221 2.095 . S
Mn216 O231 2.162 . S
Mn216 O232 2.297 . S
Mn216 O240 2.385 . S
Mn216 O241 2.209 . S
Mn216 O242 2.094 . S
Mn217 O222 2.121 . S
Mn217 N224 2.257 . S
Mn217 N233 2.282 . S
Mn217 O241 2.215 . S
Mn217 O243 2.117 . S
C218 O240 1.234 . S
C218 O241 1.283 . S
C219 O231 1.281 . S
C219 O232 1.236 . S
C220 O242 1.240 . S
C220 O243 1.264 . S
O221 Mn216 2.095 . S
O221 C230 1.250 . S
O222 Mn217 2.121 . S
O222 C230 1.258 . S
C223 N224 1.326 . S
C223 C227 1.460 . S
C223 H229 0.929 . S
N224 Mn217 2.257 . S
N224 C223 1.326 . S
N224 C228 1.362 . S
C225 C226 1.258 . S
C225 C228 1.431 . S
C225 C245 1.449 . S
C226 C225 1.258 . S
C226 C227 1.477 . S
C226 H246 0.931 . S
C227 C223 1.460 . S
C227 C226 1.477 . S
C227 H247 0.930 . S
C228 N224 1.362 . S
C228 C225 1.431 . S
C228 C238 1.476 . S
H229 C223 0.929 . S
C230 O221 1.250 . S
C230 O222 1.258 . S
O231 Mn216 2.162 . S
O231 C219 1.281 . S
O232 Mn216 2.297 . S
O232 C219 1.236 . S
N233 Mn217 2.282 . S
N233 C234 1.328 . S
N233 C238 1.318 . S
C234 N233 1.328 . S
C234 C235 1.457 . S
C234 H239 0.929 . S
C235 C234 1.457 . S
C235 C236 1.291 . S
C235 H248 0.931 . S
C236 C235 1.291 . S
C236 C237 1.373 . S
C236 H249 0.929 . S
C237 C236 1.373 . S
C237 C238 1.396 . S
C237 C244 1.403 . S
C238 C228 1.476 . S
C238 N233 1.318 . S
C238 C237 1.396 . S
H239 C234 0.929 . S
O240 Mn216 2.385 . S
O240 C218 1.234 . S
O241 Mn216 2.209 . S
O241 Mn217 2.215 . S
O241 C218 1.283 . S
O242 Mn216 2.094 . S
O242 C220 1.240 . S
O243 Mn217 2.117 . S
O243 C220 1.264 . S
C244 C237 1.403 . S
C244 C245 1.399 . S
C244 H250 0.929 . S
C245 C225 1.449 . S
C245 C244 1.399 . S
C245 H251 0.930 . S
H246 C226 0.931 . S
H247 C227 0.930 . S
H248 C235 0.931 . S
H249 C236 0.929 . S
H250 C244 0.929 . S
H251 C245 0.930 . S
Mn252 O257 2.095 . S
Mn252 O267 2.162 . S
Mn252 O268 2.297 . S
Mn252 O276 2.385 . S
Mn252 O277 2.209 . S
Mn252 O278 2.094 . S
Mn253 O258 2.121 . S
Mn253 N260 2.257 . S
Mn253 N269 2.282 . S
Mn253 O277 2.215 . S
Mn253 O279 2.117 . S
C254 O276 1.234 . S
C254 O277 1.283 . S
C255 O267 1.281 . S
C255 O268 1.236 . S
C256 O278 1.240 . S
C256 O279 1.264 . S
O257 Mn252 2.095 . S
O257 C266 1.250 . S
O258 Mn253 2.121 . S
O258 C266 1.258 . S
C259 N260 1.326 . S
C259 C263 1.460 . S
C259 H265 0.929 . S
N260 Mn253 2.257 . S
N260 C259 1.326 . S
N260 C264 1.362 . S
C261 C262 1.258 . S
C261 C264 1.431 . S
C261 C281 1.449 . S
C262 C261 1.258 . S
C262 C263 1.477 . S
C262 H282 0.931 . S
C263 C259 1.460 . S
C263 C262 1.477 . S
C263 H283 0.930 . S
C264 N260 1.362 . S
C264 C261 1.431 . S
C264 C274 1.476 . S
H265 C259 0.929 . S
C266 O257 1.250 . S
C266 O258 1.258 . S
O267 Mn252 2.162 . S
O267 C255 1.281 . S
O268 Mn252 2.297 . S
O268 C255 1.236 . S
N269 Mn253 2.282 . S
N269 C270 1.328 . S
N269 C274 1.318 . S
C270 N269 1.328 . S
C270 C271 1.457 . S
C270 H275 0.929 . S
C271 C270 1.457 . S
C271 C272 1.291 . S
C271 H284 0.931 . S
C272 C271 1.291 . S
C272 C273 1.373 . S
C272 H285 0.929 . S
C273 C272 1.373 . S
C273 C274 1.396 . S
C273 C280 1.403 . S
C274 C264 1.476 . S
C274 N269 1.318 . S
C274 C273 1.396 . S
H275 C270 0.929 . S
O276 Mn252 2.385 . S
O276 C254 1.234 . S
O277 Mn252 2.209 . S
O277 Mn253 2.215 . S
O277 C254 1.283 . S
O278 Mn252 2.094 . S
O278 C256 1.240 . S
O279 Mn253 2.117 . S
O279 C256 1.264 . S
C280 C273 1.403 . S
C280 C281 1.399 . S
C280 H286 0.929 . S
C281 C261 1.449 . S
C281 C280 1.399 . S
C281 H287 0.930 . S
H282 C262 0.931 . S
H283 C263 0.930 . S
H284 C271 0.931 . S
H285 C272 0.929 . S
H286 C280 0.929 . S
H287 C281 0.930 . S
C288 C289 1.349 . S
C288 C290 1.327 . S
C288 H313 0.950 . S
C289 C288 1.349 . S
C289 C305 1.349 . S
C290 C288 1.327 . S
C290 C309 1.429 . S
C290 H314 0.950 . S
C291 C308 1.574 1_545 S
C291 C310 1.368 1_655 S
C291 H315 0.949 . S
H292 C296 0.949 . S
C293 C294 1.349 . S
C293 C295 1.327 . S
C293 H316 0.950 . S
C294 C293 1.349 . S
C294 C306 1.349 . S
C295 C293 1.327 . S
C295 C311 1.429 . S
C295 H317 0.950 . S
C296 H292 0.949 . S
C296 C304 1.574 1_565 S
C296 C312 1.368 1_455 S
H297 C305 0.950 . S
H298 C303 0.950 . S
H299 C304 0.949 . S
H300 C306 0.950 . S
H301 C307 0.952 . S
H302 C308 0.949 . S
C303 H298 0.950 . S
C303 C305 1.327 . S
C303 C309 1.429 . S
C304 C296 1.574 1_545 S
C304 H299 0.949 . S
C304 C310 1.368 . S
C305 C289 1.349 . S
C305 H297 0.950 . S
C305 C303 1.327 . S
C306 C294 1.349 . S
C306 H300 0.950 . S
C306 C307 1.327 . S
C307 H301 0.952 . S
C307 C306 1.327 . S
C307 C311 1.429 . S
C308 C291 1.574 1_565 S
C308 H302 0.949 . S
C308 C312 1.368 . S
C309 C290 1.429 . S
C309 C303 1.429 . S
C309 C310 1.523 . S
C310 C291 1.368 1_455 S
C310 C304 1.368 . S
C310 C309 1.523 . S
C311 C295 1.429 . S
C311 C307 1.429 . S
C311 C312 1.523 . S
C312 C296 1.368 1_655 S
C312 C308 1.368 . S
C312 C311 1.523 . S
H313 C288 0.950 . S
H314 C290 0.950 . S
H315 C291 0.949 . S
H316 C293 0.950 . S
H317 C295 0.950 . S
C318 C319 1.349 . S
C318 C320 1.327 . S
C318 H343 0.950 . S
C319 C318 1.349 . S
C319 C335 1.349 . S
C320 C318 1.327 . S
C320 C339 1.429 . S
C320 H344 0.950 . S
C321 C338 1.574 1_565 S
C321 C340 1.368 1_554 S
C321 H345 0.949 . S
H322 C326 0.960 . S
C323 C324 1.349 . S
C323 C325 1.327 . S
C323 H346 0.950 . S
C324 C323 1.349 . S
C324 C336 1.349 . S
C325 C323 1.327 . S
C325 C341 1.429 . S
C325 H347 0.950 . S
C326 H322 0.960 . S
C326 C334 1.574 1_544 S
C326 C342 1.368 . S
H327 C335 0.950 . S
H328 C333 0.950 . S
H329 C334 0.949 . S
H330 C336 0.950 . S
H331 C337 0.950 . S
H332 C338 0.949 . S
C333 H328 0.950 . S
C333 C335 1.327 . S
C333 C339 1.429 . S
C334 C326 1.574 1_566 S
C334 H329 0.949 . S
C334 C340 1.368 1_655 S
C335 C319 1.349 . S
C335 H327 0.950 . S
C335 C333 1.327 . S
C336 C324 1.349 . S
C336 H330 0.950 . S
C336 C337 1.327 . S
C337 H331 0.950 . S
C337 C336 1.327 . S
C337 C341 1.429 . S
C338 C321 1.574 1_545 S
C338 H332 0.949 . S
C338 C342 1.368 1_455 S
C339 C320 1.429 . S
C339 C333 1.429 . S
C339 C340 1.523 . S
C340 C321 1.368 1_556 S
C340 C334 1.368 1_455 S
C340 C339 1.523 . S
C341 C325 1.429 . S
C341 C337 1.429 . S
C341 C342 1.523 . S
C342 C326 1.368 . S
C342 C338 1.368 1_655 S
C342 C341 1.523 . S
H343 C318 0.950 . S
H344 C320 0.950 . S
H345 C321 0.949 . S
H346 C323 0.950 . S
H347 C325 0.950 . S
C348 C349 1.349 . S
C348 C350 1.327 . S
C348 H373 0.950 . S
C349 C348 1.349 . S
C349 C365 1.349 . S
C350 C348 1.327 . S
C350 C369 1.429 . S
C350 H374 0.950 . S
C351 C368 1.574 . S
C351 C370 1.368 . S
C351 H375 0.949 . S
H352 C356 0.949 . S
C353 C354 1.349 . S
C353 C355 1.327 . S
C353 H376 0.950 . S
C354 C353 1.349 . S
C354 C366 1.349 . S
C355 C353 1.327 . S
C355 C371 1.429 . S
C355 H377 0.950 . S
C356 H352 0.949 . S
C356 C364 1.574 . S
C356 C372 1.368 . S
H357 C365 0.950 . S
H358 C363 0.950 . S
H359 C364 0.949 . S
H360 C366 0.950 . S
H361 C367 0.950 . S
H362 C368 0.949 . S
C363 H358 0.950 . S
C363 C365 1.327 . S
C363 C369 1.429 . S
C364 C356 1.574 . S
C364 H359 0.949 . S
C364 C370 1.368 . S
C365 C349 1.349 . S
C365 H357 0.950 . S
C365 C363 1.327 . S
C366 C354 1.349 . S
C366 H360 0.950 . S
C366 C367 1.327 . S
C367 H361 0.950 . S
C367 C366 1.327 . S
C367 C371 1.429 . S
C368 C351 1.574 . S
C368 H362 0.949 . S
C368 C372 1.368 . S
C369 C350 1.429 . S
C369 C363 1.429 . S
C369 C370 1.523 . S
C370 C351 1.368 . S
C370 C364 1.368 . S
C370 C369 1.523 . S
C371 C355 1.429 . S
C371 C367 1.429 . S
C371 C372 1.523 . S
C372 C356 1.368 . S
C372 C368 1.368 . S
C372 C371 1.523 . S
H373 C348 0.950 . S
H374 C350 0.950 . S
H375 C351 0.949 . S
H376 C353 0.950 . S
H377 C355 0.950 . S
C378 C379 1.349 . S
C378 C380 1.327 . S
C378 H403 0.950 . S
C379 C378 1.349 . S
C379 C395 1.349 . S
C380 C378 1.327 . S
C380 C399 1.429 . S
C380 H404 0.950 . S
C381 C398 1.574 . S
C381 C400 1.368 1_556 S
C381 H405 0.949 . S
H382 C386 0.949 . S
C383 C384 1.349 . S
C383 C385 1.327 . S
C383 H406 0.950 . S
C384 C383 1.349 . S
C384 C396 1.349 . S
C385 C383 1.327 . S
C385 C401 1.429 . S
C385 H407 0.950 . S
C386 H382 0.949 . S
C386 C394 1.574 . S
C386 C402 1.368 1_554 S
H387 C395 0.950 . S
H388 C393 0.950 . S
H389 C394 0.949 . S
H390 C396 0.950 . S
H391 C397 0.950 1_554 S
H392 C398 0.949 . S
C393 H388 0.950 . S
C393 C395 1.327 . S
C393 C399 1.429 . S
C394 C386 1.574 . S
C394 H389 0.949 . S
C394 C400 1.368 . S
C395 C379 1.349 . S
C395 H387 0.950 . S
C395 C393 1.327 . S
C396 C384 1.349 . S
C396 H390 0.950 . S
C396 C397 1.327 . S
C397 H391 0.950 1_556 S
C397 C396 1.327 . S
C397 C401 1.429 . S
C398 C381 1.574 . S
C398 H392 0.949 . S
C398 C402 1.368 . S
C399 C380 1.429 . S
C399 C393 1.429 . S
C399 C400 1.523 . S
C400 C381 1.368 1_554 S
C400 C394 1.368 . S
C400 C399 1.523 . S
C401 C385 1.429 . S
C401 C397 1.429 . S
C401 C402 1.523 . S
C402 C386 1.368 1_556 S
C402 C398 1.368 . S
C402 C401 1.523 . S
H403 C378 0.950 . S
H404 C380 0.950 . S
H405 C381 0.949 . S
H406 C383 0.950 . S
H407 C385 0.950 . S
C408 C409 1.349 . S
C408 C410 1.327 . S
C408 H433 0.950 . S
C409 C408 1.349 . S
C409 C425 1.349 . S
C410 C408 1.327 . S
C410 C429 1.429 . S
C410 H434 0.950 . S
C411 C428 1.574 1_655 S
C411 C430 1.368 1_556 S
C411 H435 0.949 . S
H412 C416 0.949 . S
C413 C414 1.349 . S
C413 C415 1.327 . S
C413 H436 0.950 . S
C414 C413 1.349 . S
C414 C426 1.349 . S
C415 C413 1.327 . S
C415 C431 1.429 . S
C415 H437 0.950 . S
C416 H412 0.949 . S
C416 C424 1.574 1_455 S
C416 C432 1.368 1_554 S
H417 C425 0.950 . S
H418 C423 0.950 . S
H419 C424 0.949 . S
H420 C426 0.950 . S
H421 C427 0.950 . S
H422 C428 0.949 . S
C423 H418 0.950 . S
C423 C425 1.327 . S
C423 C429 1.429 . S
C424 C416 1.574 1_655 S
C424 H419 0.949 . S
C424 C430 1.368 . S
C425 C409 1.349 . S
C425 H417 0.950 . S
C425 C423 1.327 . S
C426 C414 1.349 . S
C426 H420 0.950 . S
C426 C427 1.327 . S
C427 H421 0.950 . S
C427 C426 1.327 . S
C427 C431 1.429 . S
C428 C411 1.574 1_455 S
C428 H422 0.949 . S
C428 C432 1.368 . S
C429 C410 1.429 . S
C429 C423 1.429 . S
C429 C430 1.523 . S
C430 C411 1.368 1_554 S
C430 C424 1.368 . S
C430 C429 1.523 . S
C431 C415 1.429 . S
C431 C427 1.429 . S
C431 C432 1.523 . S
C432 C416 1.368 1_556 S
C432 C428 1.368 . S
C432 C431 1.523 . S
H433 C408 0.950 . S
H434 C410 0.950 . S
H435 C411 0.949 . S
H436 C413 0.950 . S
H437 C415 0.950 . S
C438 C439 1.349 . S
C438 C440 1.327 . S
C438 H463 0.950 . S
C439 C438 1.349 . S
C439 C455 1.349 . S
C440 C438 1.327 . S
C440 C459 1.429 . S
C440 H464 0.950 . S
C441 C458 1.574 1_455 S
C441 C460 1.368 . S
C441 H465 0.949 . S
H442 C446 0.949 . S
C443 C444 1.349 . S
C443 C445 1.327 . S
C443 H466 0.950 . S
C444 C443 1.349 . S
C444 C456 1.349 . S
C445 C443 1.327 . S
C445 C461 1.429 . S
C445 H467 0.950 . S
C446 H442 0.949 . S
C446 C454 1.574 1_655 S
C446 C462 1.368 . S
H447 C455 0.950 . S
H448 C453 0.950 . S
H449 C454 0.949 . S
H450 C456 0.950 . S
H451 C457 0.950 . S
H452 C458 0.949 . S
C453 H448 0.950 . S
C453 C455 1.327 . S
C453 C459 1.429 . S
C454 C446 1.574 1_455 S
C454 H449 0.949 . S
C454 C460 1.368 . S
C455 C439 1.349 . S
C455 H447 0.950 . S
C455 C453 1.327 . S
C456 C444 1.349 . S
C456 H450 0.950 . S
C456 C457 1.327 . S
C457 H451 0.950 . S
C457 C456 1.327 . S
C457 C461 1.429 . S
C458 C441 1.574 1_655 S
C458 H452 0.949 . S
C458 C462 1.368 . S
C459 C440 1.429 . S
C459 C453 1.429 . S
C459 C460 1.523 . S
C460 C441 1.368 . S
C460 C454 1.368 . S
C460 C459 1.523 . S
C461 C445 1.429 . S
C461 C457 1.429 . S
C461 C462 1.523 . S
C462 C446 1.368 . S
C462 C458 1.368 . S
C462 C461 1.523 . S
H463 C438 0.950 . S
H464 C440 0.950 . S
H465 C441 0.949 . S
H466 C443 0.950 . S
H467 C445 0.950 . S
C468 C469 1.349 . S
C468 C470 1.327 . S
C468 H493 0.950 . S
C469 C468 1.349 . S
C469 C485 1.349 . S
C470 C468 1.327 . S
C470 C489 1.429 . S
C470 H494 0.950 . S
C471 C488 1.574 . S
C471 C490 1.368 1_565 S
C471 H495 0.949 . S
H472 C476 0.949 . S
C473 C474 1.349 . S
C473 C475 1.327 . S
C473 H496 0.950 . S
C474 C473 1.349 . S
C474 C486 1.349 . S
C475 C473 1.327 . S
C475 C491 1.429 . S
C475 H497 0.950 . S
C476 H472 0.949 . S
C476 C484 1.574 . S
C476 C492 1.368 1_545 S
H477 C485 0.950 . S
H478 C483 0.950 . S
H479 C484 0.949 . S
H480 C486 0.950 . S
H481 C487 0.950 . S
H482 C488 0.949 . S
C483 H478 0.950 . S
C483 C485 1.327 . S
C483 C489 1.429 . S
C484 C476 1.574 . S
C484 H479 0.949 . S
C484 C490 1.368 1_554 S
C485 C469 1.349 . S
C485 H477 0.950 . S
C485 C483 1.327 . S
C486 C474 1.349 . S
C486 H480 0.950 . S
C486 C487 1.327 . S
C487 H481 0.950 . S
C487 C486 1.327 . S
C487 C491 1.429 . S
C488 C471 1.574 . S
C488 H482 0.949 . S
C488 C492 1.368 1_556 S
C489 C470 1.429 . S
C489 C483 1.429 . S
C489 C490 1.523 . S
C490 C471 1.368 1_545 S
C490 C484 1.368 1_556 S
C490 C489 1.523 . S
C491 C475 1.429 . S
C491 C487 1.429 . S
C491 C492 1.523 . S
C492 C476 1.368 1_565 S
C492 C488 1.368 1_554 S
C492 C491 1.523 . S
H493 C468 0.950 . S
H494 C470 0.950 . S
H495 C471 0.949 . S
H496 C473 0.950 . S
H497 C475 0.950 . S
C498 C499 1.349 . S
C498 C500 1.327 . S
C498 H523 0.950 . S
C499 C498 1.349 . S
C499 C515 1.349 . S
C500 C498 1.327 . S
C500 C519 1.429 . S
C500 H524 0.950 . S
C501 C518 1.574 1_565 S
C501 C520 1.368 . S
C501 H525 0.949 . S
H502 C506 0.949 . S
C503 C504 1.349 . S
C503 C505 1.327 . S
C503 H526 0.950 . S
C504 C503 1.349 . S
C504 C516 1.349 . S
C505 C503 1.327 . S
C505 C521 1.429 . S
C505 H527 0.950 . S
C506 H502 0.949 . S
C506 C514 1.574 1_545 S
C506 C522 1.368 . S
H507 C515 0.950 . S
H508 C513 0.950 . S
H509 C514 0.949 . S
H510 C516 0.950 . S
H511 C517 0.950 . S
H512 C518 0.949 . S
C513 H508 0.950 . S
C513 C515 1.327 . S
C513 C519 1.429 . S
C514 C506 1.574 1_565 S
C514 H509 0.949 . S
C514 C520 1.368 . S
C515 C499 1.349 . S
C515 H507 0.950 . S
C515 C513 1.327 . S
C516 C504 1.349 . S
C516 H510 0.950 . S
C516 C517 1.327 . S
C517 H511 0.950 . S
C517 C516 1.327 . S
C517 C521 1.429 . S
C518 C501 1.574 1_545 S
C518 H512 0.949 . S
C518 C522 1.368 . S
C519 C500 1.429 . S
C519 C513 1.429 . S
C519 C520 1.523 . S
C520 C501 1.368 . S
C520 C514 1.368 . S
C520 C519 1.523 . S
C521 C505 1.429 . S
C521 C517 1.429 . S
C521 C522 1.523 . S
C522 C506 1.368 . S
C522 C518 1.368 . S
C522 C521 1.523 . S
H523 C498 0.950 . S
H524 C500 0.950 . S
H525 C501 0.949 . S
H526 C503 0.950 . S
H527 C505 0.950 . S
C528 C529 1.349 . S
C528 C530 1.327 . S
C528 H553 0.950 . S
C529 C528 1.349 . S
C529 C545 1.349 . S
C530 C528 1.327 . S
C530 C549 1.429 . S
C530 H554 0.950 . S
C531 C548 1.574 . S
C531 C550 1.368 . S
C531 H555 0.949 . S
H532 C536 0.949 . S
C533 C534 1.349 . S
C533 C535 1.327 . S
C533 H556 0.950 . S
C534 C533 1.349 . S
C534 C546 1.349 . S
C535 C533 1.327 . S
C535 C551 1.429 . S
C535 H557 0.950 . S
C536 H532 0.949 . S
C536 C544 1.574 . S
C536 C552 1.368 . S
H537 C545 0.950 . S
H538 C543 0.950 . S
H539 C544 0.949 . S
H540 C546 0.950 . S
H541 C547 0.950 . S
H542 C548 0.949 . S
C543 H538 0.950 . S
C543 C545 1.327 . S
C543 C549 1.429 . S
C544 C536 1.574 . S
C544 H539 0.949 . S
C544 C550 1.368 . S
C545 C529 1.349 . S
C545 H537 0.950 . S
C545 C543 1.327 . S
C546 C534 1.349 . S
C546 H540 0.950 . S
C546 C547 1.327 . S
C547 H541 0.950 . S
C547 C546 1.327 . S
C547 C551 1.429 . S
C548 C531 1.574 . S
C548 H542 0.949 . S
C548 C552 1.368 . S
C549 C530 1.429 . S
C549 C543 1.429 . S
C549 C550 1.523 . S
C550 C531 1.368 . S
C550 C544 1.368 . S
C550 C549 1.523 . S
C551 C535 1.429 . S
C551 C547 1.429 . S
C551 C552 1.523 . S
C552 C536 1.368 . S
C552 C548 1.368 . S
C552 C551 1.523 . S
H553 C528 0.950 . S
H554 C530 0.950 . S
H555 C531 0.949 . S
H556 C533 0.950 . S
H557 C535 0.950 . S
C558 C559 1.349 . S
C558 C560 1.327 . S
C558 H583 0.950 . S
C559 C558 1.349 . S
C559 C575 1.349 . S
C560 C558 1.327 . S
C560 C579 1.429 . S
C560 H584 0.950 . S
C561 C578 1.574 1_556 S
C561 C580 1.368 . S
C561 H585 0.949 . S
H562 C566 0.949 . S
C563 C564 1.349 . S
C563 C565 1.327 . S
C563 H586 0.950 . S
C564 C563 1.349 . S
C564 C576 1.349 . S
C565 C563 1.327 . S
C565 C581 1.429 . S
C565 H587 0.950 . S
C566 H562 0.949 . S
C566 C574 1.574 1_554 S
C566 C582 1.368 . S
H567 C575 0.950 . S
H568 C573 0.950 . S
H569 C574 0.949 . S
H570 C576 0.950 . S
H571 C577 0.950 . S
H572 C578 0.949 . S
C573 H568 0.950 . S
C573 C575 1.327 . S
C573 C579 1.429 . S
C574 C566 1.574 1_556 S
C574 H569 0.949 . S
C574 C580 1.368 . S
C575 C559 1.349 . S
C575 H567 0.950 . S
C575 C573 1.327 . S
C576 C564 1.349 . S
C576 H570 0.950 . S
C576 C577 1.327 . S
C577 H571 0.950 . S
C577 C576 1.327 . S
C577 C581 1.429 . S
C578 C561 1.574 1_554 S
C578 H572 0.949 . S
C578 C582 1.368 . S
C579 C560 1.429 . S
C579 C573 1.429 . S
C579 C580 1.523 . S
C580 C561 1.368 . S
C580 C574 1.368 . S
C580 C579 1.523 . S
C581 C565 1.429 . S
C581 C577 1.429 . S
C581 C582 1.523 . S
C582 C566 1.368 . S
C582 C578 1.368 . S
C582 C581 1.523 . S
H583 C558 0.950 . S
H584 C560 0.950 . S
H585 C561 0.949 . S
H586 C563 0.950 . S
H587 C565 0.950 . S
C588 C589 1.349 . S
C588 C590 1.327 . S
C588 H613 0.950 . S
C589 C588 1.349 . S
C589 C605 1.349 . S
C590 C588 1.327 . S
C590 C609 1.429 . S
C590 H614 0.950 . S
C591 C608 1.574 . S
C591 C610 1.368 . S
C591 H615 0.949 . S
H592 C596 0.949 . S
C593 C594 1.349 . S
C593 C595 1.327 . S
C593 H616 0.950 . S
C594 C593 1.349 . S
C594 C606 1.349 . S
C595 C593 1.327 . S
C595 C611 1.429 . S
C595 H617 0.950 . S
C596 H592 0.949 . S
C596 C604 1.574 . S
C596 C612 1.368 . S
H597 C605 0.950 . S
H598 C603 0.950 . S
H599 C604 0.949 . S
H600 C606 0.950 . S
H601 C607 0.950 . S
H602 C608 0.949 . S
C603 H598 0.950 . S
C603 C605 1.327 . S
C603 C609 1.429 . S
C604 C596 1.574 . S
C604 H599 0.949 . S
C604 C610 1.368 . S
C605 C589 1.349 . S
C605 H597 0.950 . S
C605 C603 1.327 . S
C606 C594 1.349 . S
C606 H600 0.950 . S
C606 C607 1.327 . S
C607 H601 0.950 . S
C607 C606 1.327 . S
C607 C611 1.429 . S
C608 C591 1.574 . S
C608 H602 0.949 . S
C608 C612 1.368 . S
C609 C590 1.429 . S
C609 C603 1.429 . S
C609 C610 1.523 . S
C610 C591 1.368 . S
C610 C604 1.368 . S
C610 C609 1.523 . S
C611 C595 1.429 . S
C611 C607 1.429 . S
C611 C612 1.523 . S
C612 C596 1.368 . S
C612 C608 1.368 . S
C612 C611 1.523 . S
H613 C588 0.950 . S
H614 C590 0.950 . S
H615 C591 0.949 . S
H616 C593 0.950 . S
H617 C595 0.950 . S
C618 C619 1.349 . S
C618 C620 1.327 . S
C618 H643 0.950 . S
C619 C618 1.349 . S
C619 C635 1.349 . S
C620 C618 1.327 . S
C620 C639 1.429 . S
C620 H644 0.950 . S
C621 C638 1.574 1_554 S
C621 C640 1.368 . S
C621 H645 0.949 . S
H622 C626 0.949 . S
C623 C624 1.349 . S
C623 C625 1.327 . S
C623 H646 0.950 . S
C624 C623 1.349 . S
C624 C636 1.349 . S
C625 C623 1.327 . S
C625 C641 1.429 . S
C625 H647 0.950 . S
C626 H622 0.949 . S
C626 C634 1.574 1_556 S
C626 C642 1.368 . S
H627 C635 0.950 . S
H628 C633 0.950 . S
H629 C634 0.949 . S
H630 C636 0.950 . S
H631 C637 0.950 . S
H632 C638 0.949 . S
C633 H628 0.950 . S
C633 C635 1.327 . S
C633 C639 1.429 . S
C634 C626 1.574 1_554 S
C634 H629 0.949 . S
C634 C640 1.368 . S
C635 C619 1.349 . S
C635 H627 0.950 . S
C635 C633 1.327 . S
C636 C624 1.349 . S
C636 H630 0.950 . S
C636 C637 1.327 . S
C637 H631 0.950 . S
C637 C636 1.327 . S
C637 C641 1.429 . S
C638 C621 1.574 1_556 S
C638 H632 0.949 . S
C638 C642 1.368 . S
C639 C620 1.429 . S
C639 C633 1.429 . S
C639 C640 1.523 . S
C640 C621 1.368 . S
C640 C634 1.368 . S
C640 C639 1.523 . S
C641 C625 1.429 . S
C641 C637 1.429 . S
C641 C642 1.523 . S
C642 C626 1.368 . S
C642 C638 1.368 . S
C642 C641 1.523 . S
H643 C618 0.950 . S
H644 C620 0.950 . S
H645 C621 0.949 . S
H646 C623 0.950 . S
H647 C625 0.950 . S
C648 C649 1.349 . S
C648 C650 1.327 . S
C648 H673 0.950 . S
C649 C648 1.349 . S
C649 C665 1.349 . S
C650 C648 1.327 . S
C650 C669 1.429 . S
C650 H674 0.950 . S
C651 C668 1.574 . S
C651 C670 1.368 . S
C651 H675 0.949 . S
H652 C656 0.949 . S
C653 C654 1.349 . S
C653 C655 1.327 . S
C653 H676 0.950 . S
C654 C653 1.349 . S
C654 C666 1.349 . S
C655 C653 1.327 . S
C655 C671 1.429 . S
C655 H677 0.950 . S
C656 H652 0.949 . S
C656 C664 1.574 . S
C656 C672 1.368 . S
H657 C665 0.950 . S
H658 C663 0.950 . S
H659 C664 0.949 . S
H660 C666 0.950 . S
H661 C667 0.950 . S
H662 C668 0.949 . S
C663 H658 0.950 . S
C663 C665 1.327 . S
C663 C669 1.429 . S
C664 C656 1.574 . S
C664 H659 0.949 . S
C664 C670 1.368 . S
C665 C649 1.349 . S
C665 H657 0.950 . S
C665 C663 1.327 . S
C666 C654 1.349 . S
C666 H660 0.950 . S
C666 C667 1.327 . S
C667 H661 0.950 . S
C667 C666 1.327 . S
C667 C671 1.429 . S
C668 C651 1.574 . S
C668 H662 0.949 . S
C668 C672 1.368 . S
C669 C650 1.429 . S
C669 C663 1.429 . S
C669 C670 1.523 . S
C670 C651 1.368 . S
C670 C664 1.368 . S
C670 C669 1.523 . S
C671 C655 1.429 . S
C671 C667 1.429 . S
C671 C672 1.523 . S
C672 C656 1.368 . S
C672 C668 1.368 . S
C672 C671 1.523 . S
H673 C648 0.950 . S
H674 C650 0.950 . S
H675 C651 0.949 . S
H676 C653 0.950 . S
H677 C655 0.950 . S
C678 C679 1.349 . S
C678 C680 1.327 . S
C678 H703 0.950 . S
C679 C678 1.349 . S
C679 C695 1.349 . S
C680 C678 1.327 . S
C680 C699 1.429 . S
C680 H704 0.950 . S
C681 C698 1.574 . S
C681 C700 1.368 . S
C681 H705 0.949 . S
H682 C686 0.949 . S
C683 C684 1.349 . S
C683 C685 1.327 . S
C683 H706 0.950 . S
C684 C683 1.349 . S
C684 C696 1.349 . S
C685 C683 1.327 . S
C685 C701 1.429 . S
C685 H707 0.950 . S
C686 H682 0.949 . S
C686 C694 1.574 . S
C686 C702 1.368 . S
H687 C695 0.950 . S
H688 C693 0.950 . S
H689 C694 0.949 . S
H690 C696 0.950 . S
H691 C697 0.950 . S
H692 C698 0.949 . S
C693 H688 0.950 . S
C693 C695 1.327 . S
C693 C699 1.429 . S
C694 C686 1.574 . S
C694 H689 0.949 . S
C694 C700 1.368 . S
C695 C679 1.349 . S
C695 H687 0.950 . S
C695 C693 1.327 . S
C696 C684 1.349 . S
C696 H690 0.950 . S
C696 C697 1.327 . S
C697 H691 0.950 . S
C697 C696 1.327 . S
C697 C701 1.429 . S
C698 C681 1.574 . S
C698 H692 0.949 . S
C698 C702 1.368 . S
C699 C680 1.429 . S
C699 C693 1.429 . S
C699 C700 1.523 . S
C700 C681 1.368 . S
C700 C694 1.368 . S
C700 C699 1.523 . S
C701 C685 1.429 . S
C701 C697 1.429 . S
C701 C702 1.523 . S
C702 C686 1.368 . S
C702 C698 1.368 . S
C702 C701 1.523 . S
H703 C678 0.950 . S
H704 C680 0.950 . S
H705 C681 0.949 . S
H706 C683 0.950 . S
H707 C685 0.950 . S
C708 C709 1.349 . S
C708 C710 1.327 . S
C708 H733 0.950 . S
C709 C708 1.349 . S
C709 C725 1.349 . S
C710 C708 1.327 . S
C710 C729 1.429 . S
C710 H734 0.950 . S
C711 C728 1.574 1_455 S
C711 C730 1.368 . S
C711 H735 0.949 . S
H712 C716 0.949 . S
C713 C714 1.349 . S
C713 C715 1.327 . S
C713 H736 0.950 . S
C714 C713 1.349 . S
C714 C726 1.349 . S
C715 C713 1.327 . S
C715 C731 1.429 . S
C715 H737 0.950 . S
C716 H712 0.949 . S
C716 C724 1.574 1_655 S
C716 C732 1.368 . S
H717 C725 0.950 . S
H718 C723 0.950 . S
H719 C724 0.949 . S
H720 C726 0.950 . S
H721 C727 0.950 . S
H722 C728 0.949 . S
C723 H718 0.950 . S
C723 C725 1.327 . S
C723 C729 1.429 . S
C724 C716 1.574 1_455 S
C724 H719 0.949 . S
C724 C730 1.368 . S
C725 C709 1.349 . S
C725 H717 0.950 . S
C725 C723 1.327 . S
C726 C714 1.349 . S
C726 H720 0.950 . S
C726 C727 1.327 . S
C727 H721 0.950 . S
C727 C726 1.327 . S
C727 C731 1.429 . S
C728 C711 1.574 1_655 S
C728 H722 0.949 . S
C728 C732 1.368 . S
C729 C710 1.429 . S
C729 C723 1.429 . S
C729 C730 1.523 . S
C730 C711 1.368 . S
C730 C724 1.368 . S
C730 C729 1.523 . S
C731 C715 1.429 . S
C731 C727 1.429 . S
C731 C732 1.523 . S
C732 C716 1.368 . S
C732 C728 1.368 . S
C732 C731 1.523 . S
H733 C708 0.950 . S
H734 C710 0.950 . S
H735 C711 0.949 . S
H736 C713 0.950 . S
H737 C715 0.950 . S
C738 C739 1.349 . S
C738 C740 1.327 . S
C738 H763 0.950 . S
C739 C738 1.349 . S
C739 C755 1.349 . S
C740 C738 1.327 . S
C740 C759 1.429 . S
C740 H764 0.950 . S
C741 C758 1.574 1_455 S
C741 C760 1.368 . S
C741 H765 0.949 . S
H742 C746 0.949 . S
C743 C744 1.349 . S
C743 C745 1.327 . S
C743 H766 0.950 . S
C744 C743 1.349 . S
C744 C756 1.349 . S
C745 C743 1.327 . S
C745 C761 1.429 . S
C745 H767 0.950 . S
C746 H742 0.949 . S
C746 C754 1.574 1_655 S
C746 C762 1.368 . S
H747 C755 0.950 . S
H748 C753 0.950 . S
H749 C754 0.949 . S
H750 C756 0.950 . S
H751 C757 0.950 . S
H752 C758 0.949 . S
C753 H748 0.950 . S
C753 C755 1.327 . S
C753 C759 1.429 . S
C754 C746 1.574 1_455 S
C754 H749 0.949 . S
C754 C760 1.368 . S
C755 C739 1.349 . S
C755 H747 0.950 . S
C755 C753 1.327 . S
C756 C744 1.349 . S
C756 H750 0.950 . S
C756 C757 1.327 . S
C757 H751 0.950 . S
C757 C756 1.327 . S
C757 C761 1.429 . S
C758 C741 1.574 1_655 S
C758 H752 0.949 . S
C758 C762 1.368 . S
C759 C740 1.429 . S
C759 C753 1.429 . S
C759 C760 1.523 . S
C760 C741 1.368 . S
C760 C754 1.368 . S
C760 C759 1.523 . S
C761 C745 1.429 . S
C761 C757 1.429 . S
C761 C762 1.523 . S
C762 C746 1.368 . S
C762 C758 1.368 . S
C762 C761 1.523 . S
H763 C738 0.950 . S
H764 C740 0.950 . S
H765 C741 0.949 . S
H766 C743 0.950 . S
H767 C745 0.950 . S
C289 C3 1.780 . S
C294 C76 1.792 . S
C319 C112 1.792 . S
C324 C39 1.780 . S
C349 C220 1.792 . S
C354 C147 1.780 . S
C379 C183 1.780 . S
C384 C256 1.792 . S
C409 C38 1.269 . S
C414 C122 1.203 . S
C439 C2 1.269 . S
C444 C86 1.203 . S
C469 C266 1.203 . S
C474 C182 1.269 . S
C499 C146 1.269 . S
C504 C230 1.203 . S
C529 C194 1.452 . S
C534 C110 1.505 . S
C559 C74 1.505 . S
C564 C158 1.452 . S
C589 C50 1.452 . S
C594 C254 1.505 . S
C619 C14 1.452 . S
C624 C218 1.505 . S
C649 C4 1.562 . S
C654 C40 1.562 . S
C679 C75 1.546 . S
C684 C111 1.546 . S
C709 C184 1.562 . S
C714 C148 1.562 . S
C739 C219 1.546 . S
C744 C255 1.546 . S
