# Generated by pormake.
# Topology yfa, (5)-cn, num edge types: 1
# Building blocks:
#     Node 0, Type 0, BuildingBlock: BEQFEK_clean_sbu_0, # of connection points: 5
#     Node 1, Type 0, BuildingBlock: BEQFEK_clean_sbu_0, # of connection points: 5
#     Node 2, Type 0, BuildingBlock: BEQFEK_clean_sbu_0, # of connection points: 5
#     Node 3, Type 0, BuildingBlock: BEQFEK_clean_sbu_0, # of connection points: 5
#     Node 4, Type 0, BuildingBlock: BEQFEK_clean_sbu_0, # of connection points: 5
#     Node 5, Type 0, BuildingBlock: BEQFEK_clean_sbu_0, # of connection points: 5
#     Node 6, Type 0, BuildingBlock: BEQFEK_clean_sbu_0, # of connection points: 5
#     Node 7, Type 0, BuildingBlock: BEQFEK_clean_sbu_0, # of connection points: 5
#     Node 8, Type 0, BuildingBlock: BEQFEK_clean_sbu_0, # of connection points: 5
#     Node 9, Type 0, BuildingBlock: BEQFEK_clean_sbu_0, # of connection points: 5
#     Node 10, Type 0, BuildingBlock: BEQFEK_clean_sbu_0, # of connection points: 5
#     Node 11, Type 0, BuildingBlock: BEQFEK_clean_sbu_0, # of connection points: 5
#     Node 12, Type 0, BuildingBlock: BEQFEK_clean_sbu_0, # of connection points: 5
#     Node 13, Type 0, BuildingBlock: BEQFEK_clean_sbu_0, # of connection points: 5
#     Node 14, Type 0, BuildingBlock: BEQFEK_clean_sbu_0, # of connection points: 5
#     Node 15, Type 0, BuildingBlock: BEQFEK_clean_sbu_0, # of connection points: 5
#     Edge 16, Type (0, 0), None
#     Edge 17, Type (0, 0), None
#     Edge 18, Type (0, 0), None
#     Edge 19, Type (0, 0), None
#     Edge 20, Type (0, 0), None
#     Edge 21, Type (0, 0), None
#     Edge 22, Type (0, 0), None
#     Edge 23, Type (0, 0), None
#     Edge 24, Type (0, 0), None
#     Edge 25, Type (0, 0), None
#     Edge 26, Type (0, 0), None
#     Edge 27, Type (0, 0), None
#     Edge 28, Type (0, 0), None
#     Edge 29, Type (0, 0), None
#     Edge 30, Type (0, 0), None
#     Edge 31, Type (0, 0), None
#     Edge 32, Type (0, 0), None
#     Edge 33, Type (0, 0), None
#     Edge 34, Type (0, 0), None
#     Edge 35, Type (0, 0), None
#     Edge 36, Type (0, 0), None
#     Edge 37, Type (0, 0), None
#     Edge 38, Type (0, 0), None
#     Edge 39, Type (0, 0), None
#     Edge 40, Type (0, 0), None
#     Edge 41, Type (0, 0), None
#     Edge 42, Type (0, 0), None
#     Edge 43, Type (0, 0), None
#     Edge 44, Type (0, 0), None
#     Edge 45, Type (0, 0), None
#     Edge 46, Type (0, 0), None
#     Edge 47, Type (0, 0), None
#     Edge 48, Type (0, 0), None
#     Edge 49, Type (0, 0), None
#     Edge 50, Type (0, 0), None
#     Edge 51, Type (0, 0), None
#     Edge 52, Type (0, 0), None
#     Edge 53, Type (0, 0), None
#     Edge 54, Type (0, 0), None
#     Edge 55, Type (0, 0), None
# Relax obj value: 0.908
# Max RMSD: 0.296
# Mean RMSD: 0.296
data_MOF--net-yfa--node1-BEQFEK_clean_sbu_0--edge1-none
_symmetry_space_group_name_H-M    P1
_symmetry_Int_Tables_number       1
_symmetry_cell_setting            triclinic
loop_
_symmetry_equiv_pos_as_xyz
'x, y, z'
_cell_length_a     25.983657
_cell_length_b     25.983706
_cell_length_c     15.193803
_cell_angle_alpha  89.995724
_cell_angle_beta   89.996479
_cell_angle_gamma 90.00062
loop_
_atom_site_label
_atom_site_type_symbol
_atom_site_fract_x
_atom_site_fract_y
_atom_site_fract_z
_atom_type_partial_charge
Co0 Co 0.58712 0.9358 0.23927 0.0
Co1 Co 0.58916 0.03595 0.14707 0.0
C2 C 0.67678 -0.02222 0.2337 0.0
O3 O 0.65791 0.9364 0.20492 0.0
O4 O 0.65725 0.0198 0.20764 0.0
C5 C 0.59554 0.8274 0.26077 0.0
O6 O 0.6094 0.82783 0.17766 0.0
C7 C 0.59705 0.05137 0.96271 0.0
C8 C 0.5679 0.13032 0.94877 0.0
C9 C 0.57649 0.08516 0.90209 0.0
N10 N 0.59866 0.0747 0.04208 0.0
N11 N 0.58307 0.12271 0.03248 0.0
C12 C 0.60613 -0.00486 0.94825 0.0
H13 H 0.56947 -0.02409 0.93024 0.0
H14 H 0.63292 -0.00999 0.89203 0.0
H15 H 0.62273 -0.02302 1.00799 0.0
C16 C 0.4934 0.91617 0.11109 0.0
N17 N 0.53622 0.93964 0.14465 0.0
N18 N 0.53717 -0.01362 0.11351 0.0
C19 C 0.49461 -0.00505 0.06447 0.0
C20 C 0.46764 -0.0516 0.05129 0.0
C21 C 0.46645 0.87354 0.15584 0.0
H22 H 0.47427 0.87368 0.226 0.0
H23 H 0.47861 0.83669 0.1261 0.0
H24 H 0.42431 0.87873 0.15103 0.0
O25 O 0.58121 -0.00069 0.32113 0.0
O26 O 0.56337 0.07275 0.25001 0.0
H27 H 0.42969 0.04683 0.06863 0.0
H28 H 0.48318 0.0679 1.0002 0.0
C29 C 0.47217 0.04809 0.06167 0.0
H30 H 0.48788 0.0716 0.11644 0.0
H31 H 0.57631 0.14794 0.08467 0.0
O32 O 0.58988 0.86978 0.30013 0.0
C33 C 0.57189 0.04798 0.32138 0.0
Co34 Co 0.44973 0.58712 0.23925 0.0
Co35 Co 0.34956 0.58916 0.14709 0.0
C36 C 0.40774 0.67679 0.23371 0.0
O37 O 0.44913 0.65791 0.20492 0.0
O38 O 0.36572 0.65725 0.20766 0.0
C39 C 0.55813 0.59553 0.26073 0.0
O40 O 0.55771 0.60939 0.17762 0.0
C41 C 0.33414 0.59705 0.96274 0.0
C42 C 0.25519 0.56789 0.94883 0.0
C43 C 0.30035 0.57648 0.90213 0.0
N44 N 0.31081 0.59866 0.04211 0.0
N45 N 0.2628 0.58307 0.03254 0.0
C46 C 0.39036 0.60613 0.94826 0.0
H47 H 0.40959 0.56947 0.93025 0.0
H48 H 0.39549 0.63292 0.89203 0.0
H49 H 0.40852 0.62274 1.00799 0.0
C50 C 0.46934 0.49341 0.11107 0.0
N51 N 0.44587 0.53623 0.14462 0.0
N52 N 0.39913 0.53717 0.1135 0.0
C53 C 0.39056 0.49461 0.06448 0.0
C54 C 0.43711 0.46764 0.05129 0.0
C55 C 0.51199 0.46648 0.15579 0.0
H56 H 0.51186 0.47432 0.22595 0.0
H57 H 0.54883 0.47865 0.12603 0.0
H58 H 0.50681 0.42434 0.151 0.0
O59 O 0.38621 0.58121 0.32113 0.0
O60 O 0.31276 0.56338 0.25004 0.0
H61 H 0.33868 0.42968 0.0687 0.0
H62 H 0.3176 0.48316 1.00025 0.0
C63 C 0.33742 0.47216 0.06172 0.0
H64 H 0.31391 0.48788 0.11649 0.0
H65 H 0.23757 0.5763 0.08474 0.0
O66 O 0.51574 0.58985 0.30008 0.0
C67 C 0.33754 0.57189 0.3214 0.0
Co68 Co 0.79839 0.44972 0.23927 0.0
Co69 Co 0.79636 0.34956 0.1471 0.0
C70 C 0.70873 0.40773 0.23371 0.0
O71 O 0.7276 0.44912 0.20491 0.0
O72 O 0.72826 0.36571 0.20765 0.0
C73 C 0.78998 0.55812 0.26076 0.0
O74 O 0.77613 0.5577 0.17764 0.0
C75 C 0.78848 0.33413 0.96274 0.0
C76 C 0.81763 0.25518 0.94883 0.0
C77 C 0.80904 0.30034 0.90213 0.0
N78 N 0.78687 0.31081 0.04212 0.0
N79 N 0.80246 0.2628 0.03254 0.0
C80 C 0.7794 0.39036 0.94826 0.0
H81 H 0.81605 0.40959 0.93025 0.0
H82 H 0.7526 0.39549 0.89205 0.0
H83 H 0.76279 0.40852 1.008 0.0
C84 C 0.89211 0.46934 0.11108 0.0
N85 N 0.84929 0.44587 0.14464 0.0
N86 N 0.84834 0.39913 0.11351 0.0
C87 C 0.89091 0.39056 0.06448 0.0
C88 C 0.91788 0.43711 0.05129 0.0
C89 C 0.91904 0.51198 0.1558 0.0
H90 H 0.91122 0.51185 0.22596 0.0
H91 H 0.90688 0.54883 0.12605 0.0
H92 H -0.03881 0.5068 0.15099 0.0
O93 O 0.8043 0.3862 0.32114 0.0
O94 O 0.82213 0.31276 0.25005 0.0
H95 H -0.04417 0.33868 0.06866 0.0
H96 H 0.90235 0.31761 1.00024 0.0
C97 C 0.91335 0.33742 0.0617 0.0
H98 H 0.89764 0.31391 0.11648 0.0
H99 H 0.80922 0.23757 0.08474 0.0
O100 O 0.79564 0.51573 0.30011 0.0
C101 C 0.81362 0.33754 0.32141 0.0
Co102 Co 0.93579 0.7984 0.23929 0.0
Co103 Co 0.03595 0.79636 0.14708 0.0
C104 C -0.02222 0.70873 0.2337 0.0
O105 O 0.93639 0.72761 0.20492 0.0
O106 O 0.0198 0.72827 0.20764 0.0
C107 C 0.8274 0.78997 0.2608 0.0
O108 O 0.82783 0.77613 0.17768 0.0
C109 C 0.05136 0.78848 0.96271 0.0
C110 C 0.13031 0.81761 0.94877 0.0
C111 C 0.08515 0.80903 0.90208 0.0
N112 N 0.07469 0.78687 0.04208 0.0
N113 N 0.1227 0.80245 0.03248 0.0
C114 C -0.00487 0.7794 0.94826 0.0
H115 H -0.0241 0.81606 0.93024 0.0
H116 H -0.01 0.75261 0.89204 0.0
H117 H -0.02303 0.7628 1.008 0.0
C118 C 0.91617 0.89212 0.1111 0.0
N119 N 0.93964 0.8493 0.14467 0.0
N120 N -0.01362 0.84835 0.11352 0.0
C121 C -0.00506 0.8909 0.06447 0.0
C122 C -0.0516 0.91788 0.05129 0.0
C123 C 0.87355 0.91908 0.15585 0.0
H124 H 0.87369 0.91126 0.22601 0.0
H125 H 0.83669 0.90693 0.12612 0.0
H126 H 0.87874 -0.03878 0.15101 0.0
O127 O -0.00069 0.8043 0.32114 0.0
O128 O 0.07275 0.82214 0.25002 0.0
H129 H 0.04683 -0.04418 0.06859 0.0
H130 H 0.06789 0.90233 1.00018 0.0
C131 C 0.04809 0.91335 0.06165 0.0
H132 H 0.0716 0.89764 0.11642 0.0
H133 H 0.14794 0.80921 0.08466 0.0
O134 O 0.86978 0.79562 0.30015 0.0
C135 C 0.04798 0.81362 0.32139 0.0
Co136 Co 0.58712 0.44969 0.31045 0.0
Co137 Co 0.58918 0.34951 0.40252 0.0
C138 C 0.67681 0.40775 0.31581 0.0
O139 O 0.65796 0.44917 0.34452 0.0
O140 O 0.65726 0.36574 0.3419 0.0
C141 C 0.59551 0.55813 0.28872 0.0
O142 O 0.60949 0.5579 0.37178 0.0
C143 C 0.59709 0.33405 0.58682 0.0
C144 C 0.56784 0.25513 0.60069 0.0
C145 C 0.57646 0.30027 0.6474 0.0
N146 N 0.5987 0.31073 0.50745 0.0
N147 N 0.58305 0.26273 0.517 0.0
C148 C 0.6062 0.39026 0.6013 0.0
H149 H 0.56954 0.40952 0.61926 0.0
H150 H 0.63297 0.39538 0.65755 0.0
H151 H 0.62284 0.40842 0.54158 0.0
C152 C 0.49353 0.46932 0.43875 0.0
N153 N 0.53632 0.4458 0.40518 0.0
N154 N 0.53718 0.39904 0.43617 0.0
C155 C 0.49457 0.39048 0.4851 0.0
C156 C 0.46764 0.43706 0.49835 0.0
C157 C 0.46679 0.51211 0.39414 0.0
H158 H 0.47472 0.51205 0.32402 0.0
H159 H 0.47906 0.54889 0.42405 0.0
H160 H 0.42463 0.50705 0.39878 0.0
O161 O 0.58119 0.38617 0.22857 0.0
O162 O 0.56339 0.3127 0.29961 0.0
H163 H 0.42961 0.33865 0.48058 0.0
H164 H 0.483 0.31748 0.54918 0.0
C165 C 0.47208 0.33735 0.48772 0.0
H166 H 0.48785 0.31386 0.43296 0.0
H167 H 0.57627 0.23752 0.4648 0.0
O168 O 0.58962 0.51571 0.24961 0.0
C169 C 0.57189 0.3375 0.22826 0.0
Co170 Co 0.93582 0.58712 0.31046 0.0
Co171 Co 0.03601 0.58918 0.40249 0.0
C172 C -0.02225 0.67681 0.3158 0.0
O173 O 0.93633 0.65796 0.34452 0.0
O174 O 0.01977 0.65726 0.34189 0.0
C175 C 0.82738 0.59549 0.28875 0.0
O176 O 0.8276 0.60949 0.3718 0.0
C177 C 0.05148 0.59709 0.58678 0.0
C178 C 0.1304 0.56783 0.60062 0.0
C179 C 0.08525 0.57645 0.64735 0.0
N180 N 0.07479 0.5987 0.50741 0.0
N181 N 0.12279 0.58306 0.51694 0.0
C182 C -0.00474 0.6062 0.60128 0.0
H183 H -0.024 0.56955 0.61924 0.0
H184 H -0.00985 0.63297 0.65754 0.0
H185 H -0.02289 0.62284 0.54157 0.0
C186 C 0.9162 0.49354 0.43875 0.0
N187 N 0.93971 0.53633 0.40519 0.0
N188 N -0.01352 0.53718 0.43617 0.0
C189 C -0.00496 0.49457 0.48508 0.0
C190 C -0.05154 0.46764 0.49833 0.0
C191 C 0.87339 0.4668 0.39416 0.0
H192 H 0.87346 0.47475 0.32405 0.0
H193 H 0.83662 0.47908 0.42409 0.0
H194 H 0.87845 0.42464 0.39878 0.0
O195 O -0.00066 0.5812 0.22856 0.0
O196 O 0.07281 0.5634 0.29957 0.0
H197 H 0.04687 0.42961 0.48051 0.0
H198 H 0.06804 0.48299 0.54913 0.0
C199 C 0.04817 0.47208 0.48767 0.0
H200 H 0.07165 0.48785 0.4329 0.0
H201 H 0.148 0.57627 0.46473 0.0
O202 O 0.8698 0.5896 0.24964 0.0
C203 C 0.04801 0.5719 0.22824 0.0
Co204 Co 0.7984 0.93582 0.31049 0.0
Co205 Co 0.79633 0.03601 0.40251 0.0
C206 C 0.70871 -0.02224 0.3158 0.0
O207 O 0.72755 0.93634 0.34452 0.0
O208 O 0.72825 0.01977 0.34189 0.0
C209 C 0.79003 0.82738 0.28878 0.0
O210 O 0.77602 0.8276 0.37183 0.0
C211 C 0.78842 0.05148 0.5868 0.0
C212 C 0.81768 0.1304 0.60063 0.0
C213 C 0.80906 0.08526 0.64736 0.0
N214 N 0.7868 0.0748 0.50742 0.0
N215 N 0.80245 0.12279 0.51695 0.0
C216 C 0.77931 -0.00474 0.60131 0.0
H217 H 0.81596 -0.02399 0.61926 0.0
H218 H 0.75254 -0.00985 0.65757 0.0
H219 H 0.76266 -0.02289 0.5416 0.0
C220 C 0.89197 0.9162 0.43877 0.0
N221 N 0.84918 0.93972 0.40522 0.0
N222 N 0.84833 -0.01351 0.43619 0.0
C223 C 0.89095 -0.00495 0.48508 0.0
C224 C 0.91788 -0.05153 0.49834 0.0
C225 C 0.91869 0.87339 0.39418 0.0
H226 H 0.91074 0.87344 0.32408 0.0
H227 H 0.90641 0.83663 0.42413 0.0
H228 H -0.03914 0.87844 0.39878 0.0
O229 O 0.80433 -0.00066 0.22858 0.0
O230 O 0.82212 0.07282 0.2996 0.0
H231 H -0.0441 0.04687 0.48047 0.0
H232 H 0.90254 0.06805 0.54912 0.0
C233 C 0.91344 0.04817 0.48766 0.0
H234 H 0.89766 0.07166 0.4329 0.0
H235 H 0.80924 0.148 0.46473 0.0
O236 O 0.79594 0.86981 0.24968 0.0
C237 C 0.81363 0.04801 0.22826 0.0
Co238 Co 0.4497 0.7984 0.31048 0.0
Co239 Co 0.34951 0.79633 0.40253 0.0
C240 C 0.40776 0.70871 0.31581 0.0
O241 O 0.44918 0.72755 0.34452 0.0
O242 O 0.36575 0.72825 0.34191 0.0
C243 C 0.55814 0.79002 0.28876 0.0
O244 O 0.55791 0.77602 0.3718 0.0
C245 C 0.33405 0.78841 0.58684 0.0
C246 C 0.25513 0.81766 0.60069 0.0
C247 C 0.30027 0.80904 0.64741 0.0
N248 N 0.31073 0.78679 0.50746 0.0
N249 N 0.26273 0.80244 0.51701 0.0
C250 C 0.39027 0.77931 0.60132 0.0
H251 H 0.40952 0.81596 0.61927 0.0
H252 H 0.39538 0.75253 0.65758 0.0
H253 H 0.40842 0.76266 0.54161 0.0
C254 C 0.46932 0.89197 0.43877 0.0
N255 N 0.4458 0.84919 0.40521 0.0
N256 N 0.39904 0.84833 0.4362 0.0
C257 C 0.39048 0.89094 0.48511 0.0
C258 C 0.43706 0.91787 0.49835 0.0
C259 C 0.51212 0.91871 0.39416 0.0
H260 H 0.51206 0.91077 0.32405 0.0
H261 H 0.54889 0.90644 0.42409 0.0
H262 H 0.50706 -0.03913 0.39877 0.0
O263 O 0.38617 0.80433 0.22859 0.0
O264 O 0.3127 0.82212 0.29963 0.0
H265 H 0.33865 -0.04411 0.48054 0.0
H266 H 0.31748 0.90252 0.54918 0.0
C267 C 0.33735 0.91343 0.48771 0.0
H268 H 0.31386 0.89765 0.43296 0.0
H269 H 0.23752 0.80922 0.4648 0.0
O270 O 0.51571 0.79593 0.24965 0.0
C271 C 0.3375 0.81363 0.22829 0.0
Co272 Co 0.29843 -0.05034 0.81025 0.0
Co273 Co 0.29633 0.84954 0.90253 0.0
C274 C 0.20874 0.90775 0.81596 0.0
O275 O 0.22766 -0.05089 0.84476 0.0
O276 O 0.22825 0.86571 0.84198 0.0
C277 C 0.28998 0.05804 0.78889 0.0
O278 O 0.27616 0.05755 0.87202 0.0
C279 C 0.28851 0.83418 0.08687 0.0
C280 C 0.31765 0.7552 0.10077 0.0
C281 C 0.3092 0.80041 0.14737 0.0
N282 N 0.2868 0.81082 1.00754 0.0
N283 N 0.30237 0.7628 1.01712 0.0
C284 C 0.27946 0.89041 0.10133 0.0
H285 H 0.31613 0.90963 0.11929 0.0
H286 H 0.25268 0.89556 0.15757 0.0
H287 H 0.26284 0.90857 0.0416 0.0
C288 C 0.39225 -0.03077 0.93831 0.0
N289 N 0.34939 -0.05421 0.9048 0.0
N290 N 0.34839 0.89907 0.93602 0.0
C291 C 0.39095 0.89047 0.98504 0.0
C292 C 0.418 0.93698 0.99809 0.0
C293 C 0.41924 0.01184 0.89357 0.0
H294 H 0.41145 0.01173 0.8234 0.0
H295 H 0.4071 0.04869 0.92331 0.0
H296 H 0.46138 0.00663 0.89843 0.0
O297 O 0.30426 0.88612 0.72837 0.0
O298 O 0.32206 0.8127 0.7996 0.0
H299 H 0.45582 0.83852 0.98081 0.0
H300 H 0.40238 0.81753 0.04939 0.0
C301 C 0.41335 0.8373 0.98786 0.0
H302 H 0.39757 0.81378 0.93316 0.0
H303 H 0.30905 0.73755 0.96493 0.0
O304 O 0.29561 0.01569 0.74943 0.0
C305 C 0.31356 0.83744 0.7282 0.0
Co306 Co 0.43585 0.29843 0.81028 0.0
Co307 Co 0.53596 0.29633 0.90252 0.0
C308 C 0.47775 0.20874 0.81595 0.0
O309 O 0.43638 0.22765 0.84474 0.0
O310 O 0.51978 0.22824 0.84197 0.0
C311 C 0.32745 0.29 0.78891 0.0
O312 O 0.32793 0.27616 0.87204 0.0
C313 C 0.55134 0.2885 0.08686 0.0
C314 C 0.63031 0.31766 0.10073 0.0
C315 C 0.5851 0.3092 0.14734 0.0
N316 N 0.57469 0.2868 1.00752 0.0
N317 N 0.62271 0.30237 1.01708 0.0
C318 C 0.49511 0.27945 0.10133 0.0
H319 H 0.47589 0.31612 0.1193 0.0
H320 H 0.48996 0.25268 0.15758 0.0
H321 H 0.47694 0.26283 0.04162 0.0
C322 C 0.41628 0.39222 0.93836 0.0
N323 N 0.43972 0.34937 0.90485 0.0
N324 N 0.48645 0.34838 0.93604 0.0
C325 C 0.49505 0.39095 0.98504 0.0
C326 C 0.44853 0.41799 0.9981 0.0
C327 C 0.37365 0.41918 0.89365 0.0
H328 H 0.37375 0.41138 0.82348 0.0
H329 H 0.3368 0.40703 0.92342 0.0
H330 H 0.37883 0.46133 0.89847 0.0
O331 O 0.49939 0.30426 0.72839 0.0
O332 O 0.57281 0.32206 0.7996 0.0
H333 H 0.54699 0.45582 0.98076 0.0
H334 H 0.56799 0.40239 0.04934 0.0
C335 C 0.54821 0.41335 0.98783 0.0
H336 H 0.57173 0.39757 0.93312 0.0
H337 H 0.64796 0.30905 0.96488 0.0
O338 O 0.36981 0.29565 0.74948 0.0
C339 C 0.54806 0.31356 0.7282 0.0
Co340 Co 0.0871 0.43585 0.81024 0.0
Co341 Co 0.08918 0.53597 0.90249 0.0
C342 C 0.17678 0.47777 0.81595 0.0
O343 O 0.15786 0.4364 0.84474 0.0
O344 O 0.15727 0.5198 0.84196 0.0
C345 C 0.09553 0.32746 0.78889 0.0
O346 O 0.10935 0.32794 0.87202 0.0
C347 C 0.09701 0.55135 0.08682 0.0
C348 C 0.06784 0.63032 0.10069 0.0
C349 C 0.0763 0.58512 0.1473 0.0
N350 N 0.0987 0.5747 1.00747 0.0
N351 N 0.08312 0.62272 1.01704 0.0
C352 C 0.10606 0.49512 0.1013 0.0
H353 H 0.06939 0.4759 0.11927 0.0
H354 H 0.13283 0.48998 0.15754 0.0
H355 H 0.12268 0.47696 0.04158 0.0
C356 C -0.00672 0.41628 0.93832 0.0
N357 N 0.03614 0.43972 0.90481 0.0
N358 N 0.03713 0.48645 0.936 0.0
C359 C -0.00544 0.49505 0.98502 0.0
C360 C -0.03248 0.44853 0.99808 0.0
C361 C -0.03369 0.37366 0.8936 0.0
H362 H -0.0259 0.37377 0.82343 0.0
H363 H -0.02155 0.33681 0.92335 0.0
H364 H 0.92416 0.37885 0.89845 0.0
O365 O 0.08127 0.49939 0.72835 0.0
O366 O 0.06346 0.57281 0.79955 0.0
H367 H 0.92969 0.54699 0.98076 0.0
H368 H -0.01687 0.56799 0.04933 0.0
C369 C -0.02784 0.54821 0.98782 0.0
H370 H -0.01206 0.57173 0.9331 0.0
H371 H 0.07644 0.64797 0.96484 0.0
O372 O 0.08991 0.36982 0.74943 0.0
C373 C 0.07196 0.54806 0.72816 0.0
Co374 Co -0.05034 0.0871 0.81021 0.0
Co375 Co 0.84955 0.08918 0.90249 0.0
C376 C 0.90775 0.17678 0.81596 0.0
O377 O -0.05089 0.15785 0.84475 0.0
O378 O 0.86571 0.15727 0.84197 0.0
C379 C 0.05805 0.09555 0.78886 0.0
O380 O 0.05755 0.10934 0.87201 0.0
C381 C 0.83418 0.097 0.08683 0.0
C382 C 0.7552 0.06785 0.10074 0.0
C383 C 0.80041 0.07631 0.14733 0.0
N384 N 0.81082 0.0987 1.00749 0.0
N385 N 0.7628 0.08313 1.01708 0.0
C386 C 0.89041 0.10606 0.10128 0.0
H387 H 0.90963 0.06939 0.11926 0.0
H388 H 0.89556 0.13283 0.15752 0.0
H389 H 0.90857 0.12267 0.04156 0.0
C390 C -0.03078 -0.00674 0.93827 0.0
N391 N -0.05421 0.03612 0.90476 0.0
N392 N 0.89907 0.03713 0.93599 0.0
C393 C 0.89047 -0.00543 0.98502 0.0
C394 C 0.93698 -0.03249 0.99807 0.0
C395 C 0.01182 -0.03375 0.89352 0.0
H396 H 0.0117 -0.02597 0.82335 0.0
H397 H 0.04868 -0.02162 0.92325 0.0
H398 H 0.00661 0.92411 0.89841 0.0
O399 O 0.88613 0.08127 0.72833 0.0
O400 O 0.81271 0.06346 0.79956 0.0
H401 H 0.83852 0.9297 0.98081 0.0
H402 H 0.81753 -0.01685 0.04937 0.0
C403 C 0.83731 -0.02783 0.98785 0.0
H404 H 0.81378 -0.01205 0.93314 0.0
H405 H 0.73755 0.07645 0.96489 0.0
O406 O 0.0157 0.08995 0.74939 0.0
C407 C 0.83746 0.07197 0.72816 0.0
Co408 Co 0.29844 0.43585 0.73926 0.0
Co409 Co 0.29631 0.53598 0.64706 0.0
C410 C 0.20872 0.47772 0.73386 0.0
O411 O 0.2276 0.43629 0.70522 0.0
O412 O 0.22825 0.51973 0.70772 0.0
C413 C 0.29008 0.32741 0.76099 0.0
O414 O 0.27603 0.32765 0.67797 0.0
C415 C 0.28847 0.55136 0.46275 0.0
C416 C 0.31768 0.63032 0.44891 0.0
C417 C 0.30922 0.58512 0.40229 0.0
N418 N 0.28675 0.57472 0.54209 0.0
N419 N 0.30236 0.62273 0.53254 0.0
C420 C 0.2794 0.49514 0.44829 0.0
H421 H 0.31607 0.4759 0.43037 0.0
H422 H 0.25265 0.49 0.39201 0.0
H423 H 0.26274 0.47698 0.50799 0.0
C424 C 0.39205 0.41623 0.61098 0.0
N425 N 0.34924 0.43974 0.64452 0.0
N426 N 0.34836 0.4865 0.61348 0.0
C427 C 0.39098 0.49507 0.56458 0.0
C428 C 0.41796 0.44851 0.55144 0.0
C429 C 0.41878 0.37341 0.65554 0.0
H430 H 0.41084 0.37344 0.72566 0.0
H431 H 0.40649 0.33666 0.62558 0.0
H432 H 0.46094 0.37846 0.65092 0.0
O433 O 0.30433 0.49942 0.82112 0.0
O434 O 0.32207 0.57285 0.74991 0.0
H435 H 0.45591 0.54694 0.5691 0.0
H436 H 0.40254 0.56805 0.50043 0.0
C437 C 0.41344 0.54821 0.56193 0.0
H438 H 0.39764 0.57171 0.61665 0.0
H439 H 0.30904 0.64797 0.58474 0.0
O440 O 0.296 0.36984 0.8001 0.0
C441 C 0.31362 0.54809 0.82131 0.0
Co442 Co -0.05033 0.29844 0.73923 0.0
Co443 Co 0.84954 0.2963 0.64706 0.0
C444 C 0.90781 0.20871 0.73387 0.0
O445 O -0.05076 0.22759 0.70524 0.0
O446 O 0.8658 0.22825 0.70772 0.0
C447 C 0.05811 0.29009 0.76097 0.0
O448 O 0.05789 0.27603 0.67795 0.0
C449 C 0.83415 0.28846 0.46275 0.0
C450 C 0.75519 0.31768 0.44894 0.0
C451 C 0.80039 0.30921 0.40231 0.0
N452 N 0.8108 0.28673 0.5421 0.0
N453 N 0.76279 0.30234 0.53257 0.0
C454 C 0.89038 0.27939 0.44827 0.0
H455 H 0.90961 0.31607 0.43035 0.0
H456 H 0.89551 0.25265 0.39198 0.0
H457 H 0.90853 0.26273 0.50796 0.0
C458 C -0.03071 0.39203 0.61093 0.0
N459 N -0.05422 0.34923 0.64447 0.0
N460 N 0.89902 0.34835 0.61346 0.0
C461 C 0.89045 0.39098 0.56457 0.0
C462 C 0.93701 0.41795 0.55142 0.0
C463 C 0.01213 0.41874 0.65547 0.0
H464 H 0.01211 0.41079 0.72558 0.0
H465 H 0.04888 0.40644 0.62549 0.0
H466 H 0.0071 0.4609 0.65087 0.0
O467 O 0.8861 0.30433 0.8211 0.0
O468 O 0.81267 0.32206 0.74991 0.0
H469 H 0.83858 0.4559 0.56912 0.0
H470 H 0.81746 0.40254 0.50046 0.0
C471 C 0.83731 0.41344 0.56195 0.0
H472 H 0.81381 0.39764 0.61667 0.0
H473 H 0.73755 0.30902 0.58478 0.0
O474 O 0.01569 0.29604 0.80006 0.0
C475 C 0.83743 0.31361 0.8213 0.0
Co476 Co 0.08707 -0.05033 0.7392 0.0
Co477 Co 0.08923 0.84954 0.64703 0.0
C478 C 0.1768 0.90782 0.73389 0.0
O479 O 0.15793 -0.05075 0.70526 0.0
O480 O 0.15727 0.86581 0.70772 0.0
C481 C 0.0954 0.05811 0.76095 0.0
O482 O 0.1095 0.0579 0.67794 0.0
C483 C 0.09707 0.83416 0.46272 0.0
C484 C 0.06785 0.7552 0.44892 0.0
C485 C 0.07631 0.8004 0.40228 0.0
N486 N 0.0988 0.81081 0.54207 0.0
N487 N 0.08319 0.7628 0.53254 0.0
C488 C 0.10613 0.89038 0.44822 0.0
H489 H 0.06945 0.90961 0.43032 0.0
H490 H 0.13287 0.89552 0.39193 0.0
H491 H 0.12279 0.90854 0.50791 0.0
C492 C -0.0065 -0.0307 0.61089 0.0
N493 N 0.0363 -0.05422 0.64443 0.0
N494 N 0.03717 0.89902 0.61342 0.0
C495 C -0.00546 0.89045 0.56456 0.0
C496 C -0.03243 0.93701 0.5514 0.0
C497 C -0.03318 0.01215 0.65542 0.0
H498 H -0.02522 0.01214 0.72552 0.0
H499 H -0.02088 0.04889 0.62542 0.0
H500 H 0.92465 0.00713 0.65086 0.0
O501 O 0.08117 0.8861 0.82106 0.0
O502 O 0.06345 0.81266 0.74986 0.0
H503 H 0.92961 0.83859 0.56914 0.0
H504 H -0.01703 0.81746 0.50045 0.0
C505 C -0.02792 0.83731 0.56194 0.0
H506 H -0.01212 0.81381 0.61666 0.0
H507 H 0.07651 0.73756 0.58475 0.0
O508 O 0.08943 0.01568 0.80001 0.0
C509 C 0.07188 0.83742 0.82126 0.0
Co510 Co 0.43585 0.08706 0.73923 0.0
Co511 Co 0.53598 0.08922 0.64703 0.0
C512 C 0.4777 0.17679 0.73388 0.0
O513 O 0.43627 0.15792 0.70524 0.0
O514 O 0.51971 0.15726 0.70772 0.0
C515 C 0.32741 0.09541 0.76098 0.0
O516 O 0.32764 0.10949 0.67796 0.0
C517 C 0.55135 0.09706 0.46272 0.0
C518 C 0.63032 0.06785 0.44889 0.0
C519 C 0.58511 0.07631 0.40227 0.0
N520 N 0.57471 0.09879 0.54206 0.0
N521 N 0.62272 0.08319 0.53252 0.0
C522 C 0.49513 0.10612 0.44824 0.0
H523 H 0.4759 0.06945 0.43034 0.0
H524 H 0.48999 0.13287 0.39196 0.0
H525 H 0.47697 0.12278 0.50794 0.0
C526 C 0.41623 -0.00652 0.61095 0.0
N527 N 0.43974 0.03628 0.64447 0.0
N528 N 0.4865 0.03716 0.61345 0.0
C529 C 0.49507 -0.00546 0.56457 0.0
C530 C 0.44851 -0.03244 0.55143 0.0
C531 C 0.37339 -0.03324 0.6555 0.0
H532 H 0.37341 -0.02529 0.7256 0.0
H533 H 0.33665 -0.02094 0.62551 0.0
H534 H 0.37843 0.9246 0.65091 0.0
O535 O 0.49942 0.08117 0.82108 0.0
O536 O 0.57286 0.06345 0.74986 0.0
H537 H 0.54694 0.92961 0.56911 0.0
H538 H 0.56805 -0.01702 0.50042 0.0
C539 C 0.54821 -0.02792 0.56192 0.0
H540 H 0.57171 -0.01212 0.61664 0.0
H541 H 0.64796 0.07651 0.58472 0.0
O542 O 0.36983 0.08946 0.80006 0.0
C543 C 0.5481 0.07189 0.82127 0.0
loop_
_geom_bond_atom_site_label_1
_geom_bond_atom_site_label_2
_geom_bond_distance
_geom_bond_site_symmetry_2
_ccdc_geom_bond_type
Co0 O3 1.970 . S
Co0 N17 1.989 . S
Co0 O25 1.967 . S
Co0 O32 1.920 1_545 S
Co1 O4 1.966 . S
Co1 N10 2.022 1_554 S
Co1 N18 1.993 . S
Co1 O26 1.941 . S
C2 O3 1.258 . S
C2 O4 1.263 . S
O3 Co0 1.970 . S
O3 C2 1.258 . S
O4 Co1 1.966 . S
O4 C2 1.263 . S
C5 O6 1.235 . S
C5 O32 1.289 . S
O6 C5 1.235 . S
C7 C9 1.400 . S
C7 N10 1.351 . S
C7 C12 1.501 . S
C8 C9 1.387 . S
C8 N11 1.341 . S
C9 C7 1.400 . S
C9 C8 1.387 . S
N10 Co1 2.022 1_556 S
N10 C7 1.351 . S
N10 N11 1.365 . S
N11 C8 1.341 . S
N11 N10 1.365 . S
N11 H31 0.862 . S
C12 C7 1.501 . S
C12 H13 0.961 . S
C12 H14 0.961 . S
C12 H15 0.960 . S
H13 C12 0.961 . S
H14 C12 0.961 . S
H15 C12 0.960 . S
C16 N17 1.342 1_565 S
C16 C20 1.401 1_564 S
C16 C21 1.499 . S
N17 Co0 1.989 . S
N17 C16 1.342 1_545 S
N17 N18 1.388 . S
N18 Co1 1.993 . S
N18 N17 1.388 . S
N18 C19 1.346 1_554 S
C19 N18 1.346 1_556 S
C19 C20 1.396 . S
C19 C29 1.510 . S
C20 C16 1.401 1_546 S
C20 C19 1.396 . S
C21 C16 1.499 . S
C21 H22 0.959 . S
C21 H23 0.960 . S
C21 H24 0.961 . S
H22 C21 0.959 . S
H23 C21 0.960 . S
H24 C21 0.961 . S
O25 Co0 1.967 . S
O25 C33 1.258 . S
O26 Co1 1.941 . S
O26 C33 1.266 . S
H27 C29 0.959 . S
H28 C29 0.961 . S
C29 C19 1.510 . S
C29 H27 0.959 . S
C29 H28 0.961 . S
C29 H30 0.960 . S
H30 C29 0.960 . S
H31 N11 0.862 . S
O32 Co0 1.920 1_565 S
O32 C5 1.289 . S
C33 O25 1.258 . S
C33 O26 1.266 . S
Co34 O37 1.970 . S
Co34 N51 1.989 . S
Co34 O59 1.967 . S
Co34 O66 1.920 . S
Co35 O38 1.966 . S
Co35 N44 2.022 1_554 S
Co35 N52 1.993 . S
Co35 O60 1.941 . S
C36 O37 1.258 . S
C36 O38 1.263 . S
O37 Co34 1.970 . S
O37 C36 1.258 . S
O38 Co35 1.966 . S
O38 C36 1.263 . S
C39 O40 1.235 . S
C39 O66 1.289 . S
O40 C39 1.235 . S
C41 C43 1.400 . S
C41 N44 1.351 . S
C41 C46 1.501 . S
C42 C43 1.387 . S
C42 N45 1.341 . S
C43 C41 1.400 . S
C43 C42 1.387 . S
N44 Co35 2.022 1_556 S
N44 C41 1.351 . S
N44 N45 1.365 . S
N45 C42 1.341 . S
N45 N44 1.365 . S
N45 H65 0.862 . S
C46 C41 1.501 . S
C46 H47 0.961 . S
C46 H48 0.961 . S
C46 H49 0.960 . S
H47 C46 0.961 . S
H48 C46 0.961 . S
H49 C46 0.960 . S
C50 N51 1.342 . S
C50 C54 1.401 1_554 S
C50 C55 1.499 . S
N51 Co34 1.989 . S
N51 C50 1.342 . S
N51 N52 1.388 . S
N52 Co35 1.993 . S
N52 N51 1.388 . S
N52 C53 1.346 1_554 S
C53 N52 1.346 1_556 S
C53 C54 1.396 . S
C53 C63 1.510 . S
C54 C50 1.401 1_556 S
C54 C53 1.396 . S
C55 C50 1.499 . S
C55 H56 0.959 . S
C55 H57 0.960 . S
C55 H58 0.961 . S
H56 C55 0.959 . S
H57 C55 0.960 . S
H58 C55 0.961 . S
O59 Co34 1.967 . S
O59 C67 1.258 . S
O60 Co35 1.941 . S
O60 C67 1.266 . S
H61 C63 0.959 . S
H62 C63 0.961 . S
C63 C53 1.510 . S
C63 H61 0.959 . S
C63 H62 0.961 . S
C63 H64 0.960 . S
H64 C63 0.960 . S
H65 N45 0.862 . S
O66 Co34 1.920 . S
O66 C39 1.289 . S
C67 O59 1.258 . S
C67 O60 1.266 . S
Co68 O71 1.970 . S
Co68 N85 1.989 . S
Co68 O93 1.967 . S
Co68 O100 1.920 . S
Co69 O72 1.966 . S
Co69 N78 2.022 1_554 S
Co69 N86 1.993 . S
Co69 O94 1.941 . S
C70 O71 1.258 . S
C70 O72 1.263 . S
O71 Co68 1.970 . S
O71 C70 1.258 . S
O72 Co69 1.966 . S
O72 C70 1.263 . S
C73 O74 1.235 . S
C73 O100 1.289 . S
O74 C73 1.235 . S
C75 C77 1.400 . S
C75 N78 1.351 . S
C75 C80 1.501 . S
C76 C77 1.387 . S
C76 N79 1.341 . S
C77 C75 1.400 . S
C77 C76 1.387 . S
N78 Co69 2.022 1_556 S
N78 C75 1.351 . S
N78 N79 1.365 . S
N79 C76 1.341 . S
N79 N78 1.365 . S
N79 H99 0.862 . S
C80 C75 1.501 . S
C80 H81 0.961 . S
C80 H82 0.961 . S
C80 H83 0.960 . S
H81 C80 0.961 . S
H82 C80 0.961 . S
H83 C80 0.960 . S
C84 N85 1.342 . S
C84 C88 1.401 1_554 S
C84 C89 1.499 . S
N85 Co68 1.989 . S
N85 C84 1.342 . S
N85 N86 1.388 . S
N86 Co69 1.993 . S
N86 N85 1.388 . S
N86 C87 1.346 1_554 S
C87 N86 1.346 1_556 S
C87 C88 1.396 . S
C87 C97 1.510 . S
C88 C84 1.401 1_556 S
C88 C87 1.396 . S
C89 C84 1.499 . S
C89 H90 0.959 . S
C89 H91 0.960 . S
C89 H92 0.961 1_655 S
H90 C89 0.959 . S
H91 C89 0.960 . S
H92 C89 0.961 1_455 S
O93 Co68 1.967 . S
O93 C101 1.258 . S
O94 Co69 1.941 . S
O94 C101 1.266 . S
H95 C97 0.959 . S
H96 C97 0.961 . S
C97 C87 1.510 . S
C97 H95 0.959 . S
C97 H96 0.961 . S
C97 H98 0.960 . S
H98 C97 0.960 . S
H99 N79 0.862 . S
O100 Co68 1.920 . S
O100 C73 1.289 . S
C101 O93 1.258 . S
C101 O94 1.266 . S
Co102 O105 1.970 . S
Co102 N119 1.989 . S
Co102 O127 1.967 . S
Co102 O134 1.920 1_455 S
Co103 O106 1.966 . S
Co103 N112 2.022 1_554 S
Co103 N120 1.993 . S
Co103 O128 1.941 . S
C104 O105 1.258 . S
C104 O106 1.263 . S
O105 Co102 1.970 . S
O105 C104 1.258 . S
O106 Co103 1.966 . S
O106 C104 1.263 . S
C107 O108 1.235 . S
C107 O134 1.289 . S
O108 C107 1.235 . S
C109 C111 1.400 . S
C109 N112 1.351 . S
C109 C114 1.501 . S
C110 C111 1.387 . S
C110 N113 1.341 . S
C111 C109 1.400 . S
C111 C110 1.387 . S
N112 Co103 2.022 1_556 S
N112 C109 1.351 . S
N112 N113 1.365 . S
N113 C110 1.341 . S
N113 N112 1.365 . S
N113 H133 0.862 . S
C114 C109 1.501 . S
C114 H115 0.961 . S
C114 H116 0.961 . S
C114 H117 0.960 . S
H115 C114 0.961 . S
H116 C114 0.961 . S
H117 C114 0.960 . S
C118 N119 1.342 1_655 S
C118 C122 1.401 1_654 S
C118 C123 1.499 . S
N119 Co102 1.989 . S
N119 C118 1.342 1_455 S
N119 N120 1.388 . S
N120 Co103 1.993 . S
N120 N119 1.388 . S
N120 C121 1.346 1_554 S
C121 N120 1.346 1_556 S
C121 C122 1.396 . S
C121 C131 1.510 . S
C122 C118 1.401 1_456 S
C122 C121 1.396 . S
C123 C118 1.499 . S
C123 H124 0.959 . S
C123 H125 0.960 . S
C123 H126 0.961 1_565 S
H124 C123 0.959 . S
H125 C123 0.960 . S
H126 C123 0.961 1_545 S
O127 Co102 1.967 . S
O127 C135 1.258 . S
O128 Co103 1.941 . S
O128 C135 1.266 . S
H129 C131 0.959 . S
H130 C131 0.961 . S
C131 C121 1.510 . S
C131 H129 0.959 . S
C131 H130 0.961 . S
C131 H132 0.960 . S
H132 C131 0.960 . S
H133 N113 0.862 . S
O134 Co102 1.920 1_655 S
O134 C107 1.289 . S
C135 O127 1.258 . S
C135 O128 1.266 . S
Co136 O139 1.970 . S
Co136 N153 1.989 . S
Co136 O161 1.967 . S
Co136 O168 1.920 . S
Co137 O140 1.966 . S
Co137 N146 2.022 . S
Co137 N154 1.993 . S
Co137 O162 1.941 . S
C138 O139 1.258 . S
C138 O140 1.263 . S
O139 Co136 1.970 . S
O139 C138 1.258 . S
O140 Co137 1.966 . S
O140 C138 1.263 . S
C141 O142 1.235 . S
C141 O168 1.289 . S
O142 C141 1.235 . S
C143 C145 1.400 . S
C143 N146 1.351 . S
C143 C148 1.501 . S
C144 C145 1.387 . S
C144 N147 1.341 . S
C145 C143 1.400 . S
C145 C144 1.387 . S
N146 Co137 2.022 . S
N146 C143 1.351 . S
N146 N147 1.365 . S
N147 C144 1.341 . S
N147 N146 1.365 . S
N147 H167 0.862 . S
C148 C143 1.501 . S
C148 H149 0.961 . S
C148 H150 0.961 . S
C148 H151 0.960 . S
H149 C148 0.961 . S
H150 C148 0.961 . S
H151 C148 0.960 . S
C152 N153 1.342 . S
C152 C156 1.401 . S
C152 C157 1.499 . S
N153 Co136 1.989 . S
N153 C152 1.342 . S
N153 N154 1.388 . S
N154 Co137 1.993 . S
N154 N153 1.388 . S
N154 C155 1.346 . S
C155 N154 1.346 . S
C155 C156 1.396 . S
C155 C165 1.510 . S
C156 C152 1.401 . S
C156 C155 1.396 . S
C157 C152 1.499 . S
C157 H158 0.959 . S
C157 H159 0.960 . S
C157 H160 0.961 . S
H158 C157 0.959 . S
H159 C157 0.960 . S
H160 C157 0.961 . S
O161 Co136 1.967 . S
O161 C169 1.258 . S
O162 Co137 1.941 . S
O162 C169 1.266 . S
H163 C165 0.959 . S
H164 C165 0.961 . S
C165 C155 1.510 . S
C165 H163 0.959 . S
C165 H164 0.961 . S
C165 H166 0.960 . S
H166 C165 0.960 . S
H167 N147 0.862 . S
O168 Co136 1.920 . S
O168 C141 1.289 . S
C169 O161 1.258 . S
C169 O162 1.266 . S
Co170 O173 1.970 . S
Co170 N187 1.989 . S
Co170 O195 1.967 . S
Co170 O202 1.920 1_455 S
Co171 O174 1.966 . S
Co171 N180 2.022 . S
Co171 N188 1.993 . S
Co171 O196 1.941 . S
C172 O173 1.258 . S
C172 O174 1.263 . S
O173 Co170 1.970 . S
O173 C172 1.258 . S
O174 Co171 1.966 . S
O174 C172 1.263 . S
C175 O176 1.235 . S
C175 O202 1.289 . S
O176 C175 1.235 . S
C177 C179 1.400 . S
C177 N180 1.351 . S
C177 C182 1.501 . S
C178 C179 1.387 . S
C178 N181 1.341 . S
C179 C177 1.400 . S
C179 C178 1.387 . S
N180 Co171 2.022 . S
N180 C177 1.351 . S
N180 N181 1.365 . S
N181 C178 1.341 . S
N181 N180 1.365 . S
N181 H201 0.862 . S
C182 C177 1.501 . S
C182 H183 0.961 . S
C182 H184 0.961 . S
C182 H185 0.960 . S
H183 C182 0.961 . S
H184 C182 0.961 . S
H185 C182 0.960 . S
C186 N187 1.342 1_655 S
C186 C190 1.401 1_655 S
C186 C191 1.499 . S
N187 Co170 1.989 . S
N187 C186 1.342 1_455 S
N187 N188 1.388 . S
N188 Co171 1.993 . S
N188 N187 1.388 . S
N188 C189 1.346 . S
C189 N188 1.346 . S
C189 C190 1.396 . S
C189 C199 1.510 . S
C190 C186 1.401 1_455 S
C190 C189 1.396 . S
C191 C186 1.499 . S
C191 H192 0.959 . S
C191 H193 0.960 . S
C191 H194 0.961 . S
H192 C191 0.959 . S
H193 C191 0.960 . S
H194 C191 0.961 . S
O195 Co170 1.967 . S
O195 C203 1.258 . S
O196 Co171 1.941 . S
O196 C203 1.266 . S
H197 C199 0.959 . S
H198 C199 0.961 . S
C199 C189 1.510 . S
C199 H197 0.959 . S
C199 H198 0.961 . S
C199 H200 0.960 . S
H200 C199 0.960 . S
H201 N181 0.862 . S
O202 Co170 1.920 1_655 S
O202 C175 1.289 . S
C203 O195 1.258 . S
C203 O196 1.266 . S
Co204 O207 1.970 . S
Co204 N221 1.989 . S
Co204 O229 1.967 . S
Co204 O236 1.920 1_545 S
Co205 O208 1.966 . S
Co205 N214 2.022 . S
Co205 N222 1.993 . S
Co205 O230 1.941 . S
C206 O207 1.258 . S
C206 O208 1.263 . S
O207 Co204 1.970 . S
O207 C206 1.258 . S
O208 Co205 1.966 . S
O208 C206 1.263 . S
C209 O210 1.235 . S
C209 O236 1.289 . S
O210 C209 1.235 . S
C211 C213 1.400 . S
C211 N214 1.351 . S
C211 C216 1.501 . S
C212 C213 1.387 . S
C212 N215 1.341 . S
C213 C211 1.400 . S
C213 C212 1.387 . S
N214 Co205 2.022 . S
N214 C211 1.351 . S
N214 N215 1.365 . S
N215 C212 1.341 . S
N215 N214 1.365 . S
N215 H235 0.862 . S
C216 C211 1.501 . S
C216 H217 0.961 . S
C216 H218 0.961 . S
C216 H219 0.960 . S
H217 C216 0.961 . S
H218 C216 0.961 . S
H219 C216 0.960 . S
C220 N221 1.342 1_565 S
C220 C224 1.401 1_565 S
C220 C225 1.499 . S
N221 Co204 1.989 . S
N221 C220 1.342 1_545 S
N221 N222 1.388 . S
N222 Co205 1.993 . S
N222 N221 1.388 . S
N222 C223 1.346 . S
C223 N222 1.346 . S
C223 C224 1.396 . S
C223 C233 1.510 . S
C224 C220 1.401 1_545 S
C224 C223 1.396 . S
C225 C220 1.499 . S
C225 H226 0.959 . S
C225 H227 0.960 . S
C225 H228 0.961 1_655 S
H226 C225 0.959 . S
H227 C225 0.960 . S
H228 C225 0.961 1_455 S
O229 Co204 1.967 . S
O229 C237 1.258 . S
O230 Co205 1.941 . S
O230 C237 1.266 . S
H231 C233 0.959 . S
H232 C233 0.961 . S
C233 C223 1.510 . S
C233 H231 0.959 . S
C233 H232 0.961 . S
C233 H234 0.960 . S
H234 C233 0.960 . S
H235 N215 0.862 . S
O236 Co204 1.920 1_565 S
O236 C209 1.289 . S
C237 O229 1.258 . S
C237 O230 1.266 . S
Co238 O241 1.970 . S
Co238 N255 1.989 . S
Co238 O263 1.967 . S
Co238 O270 1.920 . S
Co239 O242 1.966 . S
Co239 N248 2.022 . S
Co239 N256 1.993 . S
Co239 O264 1.941 . S
C240 O241 1.258 . S
C240 O242 1.263 . S
O241 Co238 1.970 . S
O241 C240 1.258 . S
O242 Co239 1.966 . S
O242 C240 1.263 . S
C243 O244 1.235 . S
C243 O270 1.289 . S
O244 C243 1.235 . S
C245 C247 1.400 . S
C245 N248 1.351 . S
C245 C250 1.501 . S
C246 C247 1.387 . S
C246 N249 1.341 . S
C247 C245 1.400 . S
C247 C246 1.387 . S
N248 Co239 2.022 . S
N248 C245 1.351 . S
N248 N249 1.365 . S
N249 C246 1.341 . S
N249 N248 1.365 . S
N249 H269 0.862 . S
C250 C245 1.501 . S
C250 H251 0.961 . S
C250 H252 0.961 . S
C250 H253 0.960 . S
H251 C250 0.961 . S
H252 C250 0.961 . S
H253 C250 0.960 . S
C254 N255 1.342 . S
C254 C258 1.401 . S
C254 C259 1.499 . S
N255 Co238 1.989 . S
N255 C254 1.342 . S
N255 N256 1.388 . S
N256 Co239 1.993 . S
N256 N255 1.388 . S
N256 C257 1.346 . S
C257 N256 1.346 . S
C257 C258 1.396 . S
C257 C267 1.510 . S
C258 C254 1.401 . S
C258 C257 1.396 . S
C259 C254 1.499 . S
C259 H260 0.959 . S
C259 H261 0.960 . S
C259 H262 0.961 1_565 S
H260 C259 0.959 . S
H261 C259 0.960 . S
H262 C259 0.961 1_545 S
O263 Co238 1.967 . S
O263 C271 1.258 . S
O264 Co239 1.941 . S
O264 C271 1.266 . S
H265 C267 0.959 . S
H266 C267 0.961 . S
C267 C257 1.510 . S
C267 H265 0.959 . S
C267 H266 0.961 . S
C267 H268 0.960 . S
H268 C267 0.960 . S
H269 N249 0.862 . S
O270 Co238 1.920 . S
O270 C243 1.289 . S
C271 O263 1.258 . S
C271 O264 1.266 . S
Co272 O275 1.970 . S
Co272 N289 1.989 . S
Co272 O297 1.967 . S
Co272 O304 1.920 1_565 S
Co273 O276 1.966 . S
Co273 N282 2.022 1_556 S
Co273 N290 1.993 . S
Co273 O298 1.941 . S
C274 O275 1.258 . S
C274 O276 1.263 . S
O275 Co272 1.970 . S
O275 C274 1.258 . S
O276 Co273 1.966 . S
O276 C274 1.263 . S
C277 O278 1.235 . S
C277 O304 1.289 . S
O278 C277 1.235 . S
C279 C281 1.400 . S
C279 N282 1.351 . S
C279 C284 1.501 . S
C280 C281 1.387 . S
C280 N283 1.341 . S
C281 C279 1.400 . S
C281 C280 1.387 . S
N282 Co273 2.022 1_554 S
N282 C279 1.351 . S
N282 N283 1.365 . S
N283 C280 1.341 . S
N283 N282 1.365 . S
N283 H303 0.862 . S
C284 C279 1.501 . S
C284 H285 0.961 . S
C284 H286 0.961 . S
C284 H287 0.960 . S
H285 C284 0.961 . S
H286 C284 0.961 . S
H287 C284 0.960 . S
C288 N289 1.342 1_545 S
C288 C292 1.401 1_546 S
C288 C293 1.499 . S
N289 Co272 1.989 . S
N289 C288 1.342 1_565 S
N289 N290 1.388 . S
N290 Co273 1.993 . S
N290 N289 1.388 . S
N290 C291 1.346 1_556 S
C291 N290 1.346 1_554 S
C291 C292 1.396 . S
C291 C301 1.510 . S
C292 C288 1.401 1_564 S
C292 C291 1.396 . S
C293 C288 1.499 . S
C293 H294 0.959 . S
C293 H295 0.960 . S
C293 H296 0.961 . S
H294 C293 0.959 . S
H295 C293 0.960 . S
H296 C293 0.961 . S
O297 Co272 1.967 . S
O297 C305 1.258 . S
O298 Co273 1.941 . S
O298 C305 1.266 . S
H299 C301 0.959 . S
H300 C301 0.961 . S
C301 C291 1.510 . S
C301 H299 0.959 . S
C301 H300 0.961 . S
C301 H302 0.960 . S
H302 C301 0.960 . S
H303 N283 0.862 . S
O304 Co272 1.920 1_545 S
O304 C277 1.289 . S
C305 O297 1.258 . S
C305 O298 1.266 . S
Co306 O309 1.970 . S
Co306 N323 1.989 . S
Co306 O331 1.967 . S
Co306 O338 1.920 . S
Co307 O310 1.966 . S
Co307 N316 2.022 1_556 S
Co307 N324 1.993 . S
Co307 O332 1.941 . S
C308 O309 1.258 . S
C308 O310 1.263 . S
O309 Co306 1.970 . S
O309 C308 1.258 . S
O310 Co307 1.966 . S
O310 C308 1.263 . S
C311 O312 1.235 . S
C311 O338 1.289 . S
O312 C311 1.235 . S
C313 C315 1.400 . S
C313 N316 1.351 . S
C313 C318 1.501 . S
C314 C315 1.387 . S
C314 N317 1.341 . S
C315 C313 1.400 . S
C315 C314 1.387 . S
N316 Co307 2.022 1_554 S
N316 C313 1.351 . S
N316 N317 1.365 . S
N317 C314 1.341 . S
N317 N316 1.365 . S
N317 H337 0.862 . S
C318 C313 1.501 . S
C318 H319 0.961 . S
C318 H320 0.961 . S
C318 H321 0.960 . S
H319 C318 0.961 . S
H320 C318 0.961 . S
H321 C318 0.960 . S
C322 N323 1.342 . S
C322 C326 1.401 1_556 S
C322 C327 1.499 . S
N323 Co306 1.989 . S
N323 C322 1.342 . S
N323 N324 1.388 . S
N324 Co307 1.993 . S
N324 N323 1.388 . S
N324 C325 1.346 1_556 S
C325 N324 1.346 1_554 S
C325 C326 1.396 . S
C325 C335 1.510 . S
C326 C322 1.401 1_554 S
C326 C325 1.396 . S
C327 C322 1.499 . S
C327 H328 0.959 . S
C327 H329 0.960 . S
C327 H330 0.961 . S
H328 C327 0.959 . S
H329 C327 0.960 . S
H330 C327 0.961 . S
O331 Co306 1.967 . S
O331 C339 1.258 . S
O332 Co307 1.941 . S
O332 C339 1.266 . S
H333 C335 0.959 . S
H334 C335 0.961 . S
C335 C325 1.510 . S
C335 H333 0.959 . S
C335 H334 0.961 . S
C335 H336 0.960 . S
H336 C335 0.960 . S
H337 N317 0.862 . S
O338 Co306 1.920 . S
O338 C311 1.289 . S
C339 O331 1.258 . S
C339 O332 1.266 . S
Co340 O343 1.970 . S
Co340 N357 1.989 . S
Co340 O365 1.967 . S
Co340 O372 1.920 . S
Co341 O344 1.966 . S
Co341 N350 2.022 1_556 S
Co341 N358 1.993 . S
Co341 O366 1.941 . S
C342 O343 1.258 . S
C342 O344 1.263 . S
O343 Co340 1.970 . S
O343 C342 1.258 . S
O344 Co341 1.966 . S
O344 C342 1.263 . S
C345 O346 1.235 . S
C345 O372 1.289 . S
O346 C345 1.235 . S
C347 C349 1.400 . S
C347 N350 1.351 . S
C347 C352 1.501 . S
C348 C349 1.387 . S
C348 N351 1.341 . S
C349 C347 1.400 . S
C349 C348 1.387 . S
N350 Co341 2.022 1_554 S
N350 C347 1.351 . S
N350 N351 1.365 . S
N351 C348 1.341 . S
N351 N350 1.365 . S
N351 H371 0.862 . S
C352 C347 1.501 . S
C352 H353 0.961 . S
C352 H354 0.961 . S
C352 H355 0.960 . S
H353 C352 0.961 . S
H354 C352 0.961 . S
H355 C352 0.960 . S
C356 N357 1.342 . S
C356 C360 1.401 1_556 S
C356 C361 1.499 . S
N357 Co340 1.989 . S
N357 C356 1.342 . S
N357 N358 1.388 . S
N358 Co341 1.993 . S
N358 N357 1.388 . S
N358 C359 1.346 1_556 S
C359 N358 1.346 1_554 S
C359 C360 1.396 . S
C359 C369 1.510 . S
C360 C356 1.401 1_554 S
C360 C359 1.396 . S
C361 C356 1.499 . S
C361 H362 0.959 . S
C361 H363 0.960 . S
C361 H364 0.961 1_455 S
H362 C361 0.959 . S
H363 C361 0.960 . S
H364 C361 0.961 1_655 S
O365 Co340 1.967 . S
O365 C373 1.258 . S
O366 Co341 1.941 . S
O366 C373 1.266 . S
H367 C369 0.959 . S
H368 C369 0.961 . S
C369 C359 1.510 . S
C369 H367 0.959 . S
C369 H368 0.961 . S
C369 H370 0.960 . S
H370 C369 0.960 . S
H371 N351 0.862 . S
O372 Co340 1.920 . S
O372 C345 1.289 . S
C373 O365 1.258 . S
C373 O366 1.266 . S
Co374 O377 1.970 . S
Co374 N391 1.989 . S
Co374 O399 1.967 . S
Co374 O406 1.920 1_655 S
Co375 O378 1.966 . S
Co375 N384 2.022 1_556 S
Co375 N392 1.993 . S
Co375 O400 1.941 . S
C376 O377 1.258 . S
C376 O378 1.263 . S
O377 Co374 1.970 . S
O377 C376 1.258 . S
O378 Co375 1.966 . S
O378 C376 1.263 . S
C379 O380 1.235 . S
C379 O406 1.289 . S
O380 C379 1.235 . S
C381 C383 1.400 . S
C381 N384 1.351 . S
C381 C386 1.501 . S
C382 C383 1.387 . S
C382 N385 1.341 . S
C383 C381 1.400 . S
C383 C382 1.387 . S
N384 Co375 2.022 1_554 S
N384 C381 1.351 . S
N384 N385 1.365 . S
N385 C382 1.341 . S
N385 N384 1.365 . S
N385 H405 0.862 . S
C386 C381 1.501 . S
C386 H387 0.961 . S
C386 H388 0.961 . S
C386 H389 0.960 . S
H387 C386 0.961 . S
H388 C386 0.961 . S
H389 C386 0.960 . S
C390 N391 1.342 1_455 S
C390 C394 1.401 1_456 S
C390 C395 1.499 . S
N391 Co374 1.989 . S
N391 C390 1.342 1_655 S
N391 N392 1.388 . S
N392 Co375 1.993 . S
N392 N391 1.388 . S
N392 C393 1.346 1_556 S
C393 N392 1.346 1_554 S
C393 C394 1.396 . S
C393 C403 1.510 . S
C394 C390 1.401 1_654 S
C394 C393 1.396 . S
C395 C390 1.499 . S
C395 H396 0.959 . S
C395 H397 0.960 . S
C395 H398 0.961 1_545 S
H396 C395 0.959 . S
H397 C395 0.960 . S
H398 C395 0.961 1_565 S
O399 Co374 1.967 . S
O399 C407 1.258 . S
O400 Co375 1.941 . S
O400 C407 1.266 . S
H401 C403 0.959 . S
H402 C403 0.961 . S
C403 C393 1.510 . S
C403 H401 0.959 . S
C403 H402 0.961 . S
C403 H404 0.960 . S
H404 C403 0.960 . S
H405 N385 0.862 . S
O406 Co374 1.920 1_455 S
O406 C379 1.289 . S
C407 O399 1.258 . S
C407 O400 1.266 . S
Co408 O411 1.970 . S
Co408 N425 1.989 . S
Co408 O433 1.967 . S
Co408 O440 1.920 . S
Co409 O412 1.966 . S
Co409 N418 2.022 . S
Co409 N426 1.993 . S
Co409 O434 1.941 . S
C410 O411 1.258 . S
C410 O412 1.263 . S
O411 Co408 1.970 . S
O411 C410 1.258 . S
O412 Co409 1.966 . S
O412 C410 1.263 . S
C413 O414 1.235 . S
C413 O440 1.289 . S
O414 C413 1.235 . S
C415 C417 1.400 . S
C415 N418 1.351 . S
C415 C420 1.501 . S
C416 C417 1.387 . S
C416 N419 1.341 . S
C417 C415 1.400 . S
C417 C416 1.387 . S
N418 Co409 2.022 . S
N418 C415 1.351 . S
N418 N419 1.365 . S
N419 C416 1.341 . S
N419 N418 1.365 . S
N419 H439 0.862 . S
C420 C415 1.501 . S
C420 H421 0.961 . S
C420 H422 0.961 . S
C420 H423 0.960 . S
H421 C420 0.961 . S
H422 C420 0.961 . S
H423 C420 0.960 . S
C424 N425 1.342 . S
C424 C428 1.401 . S
C424 C429 1.499 . S
N425 Co408 1.989 . S
N425 C424 1.342 . S
N425 N426 1.388 . S
N426 Co409 1.993 . S
N426 N425 1.388 . S
N426 C427 1.346 . S
C427 N426 1.346 . S
C427 C428 1.396 . S
C427 C437 1.510 . S
C428 C424 1.401 . S
C428 C427 1.396 . S
C429 C424 1.499 . S
C429 H430 0.959 . S
C429 H431 0.960 . S
C429 H432 0.961 . S
H430 C429 0.959 . S
H431 C429 0.960 . S
H432 C429 0.961 . S
O433 Co408 1.967 . S
O433 C441 1.258 . S
O434 Co409 1.941 . S
O434 C441 1.266 . S
H435 C437 0.959 . S
H436 C437 0.961 . S
C437 C427 1.510 . S
C437 H435 0.959 . S
C437 H436 0.961 . S
C437 H438 0.960 . S
H438 C437 0.960 . S
H439 N419 0.862 . S
O440 Co408 1.920 . S
O440 C413 1.289 . S
C441 O433 1.258 . S
C441 O434 1.266 . S
Co442 O445 1.970 . S
Co442 N459 1.989 . S
Co442 O467 1.967 . S
Co442 O474 1.920 1_655 S
Co443 O446 1.966 . S
Co443 N452 2.022 . S
Co443 N460 1.993 . S
Co443 O468 1.941 . S
C444 O445 1.258 . S
C444 O446 1.263 . S
O445 Co442 1.970 . S
O445 C444 1.258 . S
O446 Co443 1.966 . S
O446 C444 1.263 . S
C447 O448 1.235 . S
C447 O474 1.289 . S
O448 C447 1.235 . S
C449 C451 1.400 . S
C449 N452 1.351 . S
C449 C454 1.501 . S
C450 C451 1.387 . S
C450 N453 1.341 . S
C451 C449 1.400 . S
C451 C450 1.387 . S
N452 Co443 2.022 . S
N452 C449 1.351 . S
N452 N453 1.365 . S
N453 C450 1.341 . S
N453 N452 1.365 . S
N453 H473 0.862 . S
C454 C449 1.501 . S
C454 H455 0.961 . S
C454 H456 0.961 . S
C454 H457 0.960 . S
H455 C454 0.961 . S
H456 C454 0.961 . S
H457 C454 0.960 . S
C458 N459 1.342 1_455 S
C458 C462 1.401 1_455 S
C458 C463 1.499 . S
N459 Co442 1.989 . S
N459 C458 1.342 1_655 S
N459 N460 1.388 . S
N460 Co443 1.993 . S
N460 N459 1.388 . S
N460 C461 1.346 . S
C461 N460 1.346 . S
C461 C462 1.396 . S
C461 C471 1.510 . S
C462 C458 1.401 1_655 S
C462 C461 1.396 . S
C463 C458 1.499 . S
C463 H464 0.959 . S
C463 H465 0.960 . S
C463 H466 0.961 . S
H464 C463 0.959 . S
H465 C463 0.960 . S
H466 C463 0.961 . S
O467 Co442 1.967 . S
O467 C475 1.258 . S
O468 Co443 1.941 . S
O468 C475 1.266 . S
H469 C471 0.959 . S
H470 C471 0.961 . S
C471 C461 1.510 . S
C471 H469 0.959 . S
C471 H470 0.961 . S
C471 H472 0.960 . S
H472 C471 0.960 . S
H473 N453 0.862 . S
O474 Co442 1.920 1_455 S
O474 C447 1.289 . S
C475 O467 1.258 . S
C475 O468 1.266 . S
Co476 O479 1.970 . S
Co476 N493 1.989 . S
Co476 O501 1.967 . S
Co476 O508 1.920 1_565 S
Co477 O480 1.966 . S
Co477 N486 2.022 . S
Co477 N494 1.993 . S
Co477 O502 1.941 . S
C478 O479 1.258 . S
C478 O480 1.263 . S
O479 Co476 1.970 . S
O479 C478 1.258 . S
O480 Co477 1.966 . S
O480 C478 1.263 . S
C481 O482 1.235 . S
C481 O508 1.289 . S
O482 C481 1.235 . S
C483 C485 1.400 . S
C483 N486 1.351 . S
C483 C488 1.501 . S
C484 C485 1.387 . S
C484 N487 1.341 . S
C485 C483 1.400 . S
C485 C484 1.387 . S
N486 Co477 2.022 . S
N486 C483 1.351 . S
N486 N487 1.365 . S
N487 C484 1.341 . S
N487 N486 1.365 . S
N487 H507 0.862 . S
C488 C483 1.501 . S
C488 H489 0.961 . S
C488 H490 0.961 . S
C488 H491 0.960 . S
H489 C488 0.961 . S
H490 C488 0.961 . S
H491 C488 0.960 . S
C492 N493 1.342 1_545 S
C492 C496 1.401 1_545 S
C492 C497 1.499 . S
N493 Co476 1.989 . S
N493 C492 1.342 1_565 S
N493 N494 1.388 . S
N494 Co477 1.993 . S
N494 N493 1.388 . S
N494 C495 1.346 . S
C495 N494 1.346 . S
C495 C496 1.396 . S
C495 C505 1.510 . S
C496 C492 1.401 1_565 S
C496 C495 1.396 . S
C497 C492 1.499 . S
C497 H498 0.959 . S
C497 H499 0.960 . S
C497 H500 0.961 1_455 S
H498 C497 0.959 . S
H499 C497 0.960 . S
H500 C497 0.961 1_655 S
O501 Co476 1.967 . S
O501 C509 1.258 . S
O502 Co477 1.941 . S
O502 C509 1.266 . S
H503 C505 0.959 . S
H504 C505 0.961 . S
C505 C495 1.510 . S
C505 H503 0.959 . S
C505 H504 0.961 . S
C505 H506 0.960 . S
H506 C505 0.960 . S
H507 N487 0.862 . S
O508 Co476 1.920 1_545 S
O508 C481 1.289 . S
C509 O501 1.258 . S
C509 O502 1.266 . S
Co510 O513 1.970 . S
Co510 N527 1.989 . S
Co510 O535 1.967 . S
Co510 O542 1.920 . S
Co511 O514 1.966 . S
Co511 N520 2.022 . S
Co511 N528 1.993 . S
Co511 O536 1.941 . S
C512 O513 1.258 . S
C512 O514 1.263 . S
O513 Co510 1.970 . S
O513 C512 1.258 . S
O514 Co511 1.966 . S
O514 C512 1.263 . S
C515 O516 1.235 . S
C515 O542 1.289 . S
O516 C515 1.235 . S
C517 C519 1.400 . S
C517 N520 1.351 . S
C517 C522 1.501 . S
C518 C519 1.387 . S
C518 N521 1.341 . S
C519 C517 1.400 . S
C519 C518 1.387 . S
N520 Co511 2.022 . S
N520 C517 1.351 . S
N520 N521 1.365 . S
N521 C518 1.341 . S
N521 N520 1.365 . S
N521 H541 0.862 . S
C522 C517 1.501 . S
C522 H523 0.961 . S
C522 H524 0.961 . S
C522 H525 0.960 . S
H523 C522 0.961 . S
H524 C522 0.961 . S
H525 C522 0.960 . S
C526 N527 1.342 . S
C526 C530 1.401 . S
C526 C531 1.499 . S
N527 Co510 1.989 . S
N527 C526 1.342 . S
N527 N528 1.388 . S
N528 Co511 1.993 . S
N528 N527 1.388 . S
N528 C529 1.346 . S
C529 N528 1.346 . S
C529 C530 1.396 . S
C529 C539 1.510 . S
C530 C526 1.401 . S
C530 C529 1.396 . S
C531 C526 1.499 . S
C531 H532 0.959 . S
C531 H533 0.960 . S
C531 H534 0.961 1_545 S
H532 C531 0.959 . S
H533 C531 0.960 . S
H534 C531 0.961 1_565 S
O535 Co510 1.967 . S
O535 C543 1.258 . S
O536 Co511 1.941 . S
O536 C543 1.266 . S
H537 C539 0.959 . S
H538 C539 0.961 . S
C539 C529 1.510 . S
C539 H537 0.959 . S
C539 H538 0.961 . S
C539 H540 0.960 . S
H540 C539 0.960 . S
H541 N521 0.862 . S
O542 Co510 1.920 . S
O542 C515 1.289 . S
C543 O535 1.258 . S
C543 O536 1.266 . S
C5 C243 1.420 . S
C141 C39 1.420 . S
C73 C175 1.420 . S
C107 C209 1.420 . S
C277 C515 1.420 . S
C413 C311 1.420 . S
C447 C345 1.420 . S
C481 C379 1.420 . S
C206 C2 3.284 . S
C36 C240 3.284 . S
C70 C138 3.284 . S
C172 C104 3.284 . S
C478 C274 3.284 . S
C512 C308 3.284 . S
C342 C410 3.284 . S
C376 C444 3.284 . S
C9 C543 2.842 . S
C43 C441 2.842 . S
C77 C475 2.842 . S
C509 C111 2.842 . S
C339 C145 2.842 . S
C373 C179 2.842 . S
C213 C407 2.842 . S
C247 C305 2.842 . S
C271 C281 2.842 . S
C169 C315 2.842 . S
C349 C203 2.842 . S
C237 C383 2.842 . S
C67 C417 2.842 . S
C101 C451 2.842 . S
C135 C485 2.842 . S
C33 C519 2.842 . S
C20 C292 2.263 1_546 S
C326 C54 2.263 1_554 S
C360 C88 2.263 1_454 S
C122 C394 2.263 1_466 S
C428 C156 2.263 . S
C190 C462 2.263 1_455 S
C496 C224 2.263 1_465 S
C258 C530 2.263 1_565 S
