# Generated by pormake.
# Topology hbo, (4)-cn, num edge types: 1
# Building blocks:
#     Node 0, Type 0, BuildingBlock: KUFVIS_clean_sbu_0, # of connection points: 4
#     Node 1, Type 0, BuildingBlock: KUFVIS_clean_sbu_0, # of connection points: 4
#     Node 2, Type 0, BuildingBlock: KUFVIS_clean_sbu_0, # of connection points: 4
#     Node 3, Type 0, BuildingBlock: KUFVIS_clean_sbu_0, # of connection points: 4
#     Node 4, Type 0, BuildingBlock: KUFVIS_clean_sbu_0, # of connection points: 4
#     Node 5, Type 0, BuildingBlock: KUFVIS_clean_sbu_0, # of connection points: 4
#     Node 6, Type 0, BuildingBlock: KUFVIS_clean_sbu_0, # of connection points: 4
#     Node 7, Type 0, BuildingBlock: KUFVIS_clean_sbu_0, # of connection points: 4
#     Node 8, Type 0, BuildingBlock: KUFVIS_clean_sbu_0, # of connection points: 4
#     Node 9, Type 0, BuildingBlock: KUFVIS_clean_sbu_0, # of connection points: 4
#     Node 10, Type 0, BuildingBlock: KUFVIS_clean_sbu_0, # of connection points: 4
#     Node 11, Type 0, BuildingBlock: KUFVIS_clean_sbu_0, # of connection points: 4
#     Node 12, Type 0, BuildingBlock: KUFVIS_clean_sbu_0, # of connection points: 4
#     Node 13, Type 0, BuildingBlock: KUFVIS_clean_sbu_0, # of connection points: 4
#     Node 14, Type 0, BuildingBlock: KUFVIS_clean_sbu_0, # of connection points: 4
#     Node 15, Type 0, BuildingBlock: KUFVIS_clean_sbu_0, # of connection points: 4
#     Node 16, Type 0, BuildingBlock: KUFVIS_clean_sbu_0, # of connection points: 4
#     Node 17, Type 0, BuildingBlock: KUFVIS_clean_sbu_0, # of connection points: 4
#     Node 18, Type 0, BuildingBlock: KUFVIS_clean_sbu_0, # of connection points: 4
#     Node 19, Type 0, BuildingBlock: KUFVIS_clean_sbu_0, # of connection points: 4
#     Node 20, Type 0, BuildingBlock: KUFVIS_clean_sbu_0, # of connection points: 4
#     Node 21, Type 0, BuildingBlock: KUFVIS_clean_sbu_0, # of connection points: 4
#     Node 22, Type 0, BuildingBlock: KUFVIS_clean_sbu_0, # of connection points: 4
#     Node 23, Type 0, BuildingBlock: KUFVIS_clean_sbu_0, # of connection points: 4
#     Edge 24, Type (0, 0), BuildingBlock: KIFKEQ_clean_linker_1, # of connection points: 2
#     Edge 25, Type (0, 0), BuildingBlock: KIFKEQ_clean_linker_1, # of connection points: 2
#     Edge 26, Type (0, 0), BuildingBlock: KIFKEQ_clean_linker_1, # of connection points: 2
#     Edge 27, Type (0, 0), BuildingBlock: KIFKEQ_clean_linker_1, # of connection points: 2
#     Edge 28, Type (0, 0), BuildingBlock: KIFKEQ_clean_linker_1, # of connection points: 2
#     Edge 29, Type (0, 0), BuildingBlock: KIFKEQ_clean_linker_1, # of connection points: 2
#     Edge 30, Type (0, 0), BuildingBlock: KIFKEQ_clean_linker_1, # of connection points: 2
#     Edge 31, Type (0, 0), BuildingBlock: KIFKEQ_clean_linker_1, # of connection points: 2
#     Edge 32, Type (0, 0), BuildingBlock: KIFKEQ_clean_linker_1, # of connection points: 2
#     Edge 33, Type (0, 0), BuildingBlock: KIFKEQ_clean_linker_1, # of connection points: 2
#     Edge 34, Type (0, 0), BuildingBlock: KIFKEQ_clean_linker_1, # of connection points: 2
#     Edge 35, Type (0, 0), BuildingBlock: KIFKEQ_clean_linker_1, # of connection points: 2
#     Edge 36, Type (0, 0), BuildingBlock: KIFKEQ_clean_linker_1, # of connection points: 2
#     Edge 37, Type (0, 0), BuildingBlock: KIFKEQ_clean_linker_1, # of connection points: 2
#     Edge 38, Type (0, 0), BuildingBlock: KIFKEQ_clean_linker_1, # of connection points: 2
#     Edge 39, Type (0, 0), BuildingBlock: KIFKEQ_clean_linker_1, # of connection points: 2
#     Edge 40, Type (0, 0), BuildingBlock: KIFKEQ_clean_linker_1, # of connection points: 2
#     Edge 41, Type (0, 0), BuildingBlock: KIFKEQ_clean_linker_1, # of connection points: 2
#     Edge 42, Type (0, 0), BuildingBlock: KIFKEQ_clean_linker_1, # of connection points: 2
#     Edge 43, Type (0, 0), BuildingBlock: KIFKEQ_clean_linker_1, # of connection points: 2
#     Edge 44, Type (0, 0), BuildingBlock: KIFKEQ_clean_linker_1, # of connection points: 2
#     Edge 45, Type (0, 0), BuildingBlock: KIFKEQ_clean_linker_1, # of connection points: 2
#     Edge 46, Type (0, 0), BuildingBlock: KIFKEQ_clean_linker_1, # of connection points: 2
#     Edge 47, Type (0, 0), BuildingBlock: KIFKEQ_clean_linker_1, # of connection points: 2
#     Edge 48, Type (0, 0), BuildingBlock: KIFKEQ_clean_linker_1, # of connection points: 2
#     Edge 49, Type (0, 0), BuildingBlock: KIFKEQ_clean_linker_1, # of connection points: 2
#     Edge 50, Type (0, 0), BuildingBlock: KIFKEQ_clean_linker_1, # of connection points: 2
#     Edge 51, Type (0, 0), BuildingBlock: KIFKEQ_clean_linker_1, # of connection points: 2
#     Edge 52, Type (0, 0), BuildingBlock: KIFKEQ_clean_linker_1, # of connection points: 2
#     Edge 53, Type (0, 0), BuildingBlock: KIFKEQ_clean_linker_1, # of connection points: 2
#     Edge 54, Type (0, 0), BuildingBlock: KIFKEQ_clean_linker_1, # of connection points: 2
#     Edge 55, Type (0, 0), BuildingBlock: KIFKEQ_clean_linker_1, # of connection points: 2
#     Edge 56, Type (0, 0), BuildingBlock: KIFKEQ_clean_linker_1, # of connection points: 2
#     Edge 57, Type (0, 0), BuildingBlock: KIFKEQ_clean_linker_1, # of connection points: 2
#     Edge 58, Type (0, 0), BuildingBlock: KIFKEQ_clean_linker_1, # of connection points: 2
#     Edge 59, Type (0, 0), BuildingBlock: KIFKEQ_clean_linker_1, # of connection points: 2
#     Edge 60, Type (0, 0), BuildingBlock: KIFKEQ_clean_linker_1, # of connection points: 2
#     Edge 61, Type (0, 0), BuildingBlock: KIFKEQ_clean_linker_1, # of connection points: 2
#     Edge 62, Type (0, 0), BuildingBlock: KIFKEQ_clean_linker_1, # of connection points: 2
#     Edge 63, Type (0, 0), BuildingBlock: KIFKEQ_clean_linker_1, # of connection points: 2
#     Edge 64, Type (0, 0), BuildingBlock: KIFKEQ_clean_linker_1, # of connection points: 2
#     Edge 65, Type (0, 0), BuildingBlock: KIFKEQ_clean_linker_1, # of connection points: 2
#     Edge 66, Type (0, 0), BuildingBlock: KIFKEQ_clean_linker_1, # of connection points: 2
#     Edge 67, Type (0, 0), BuildingBlock: KIFKEQ_clean_linker_1, # of connection points: 2
#     Edge 68, Type (0, 0), BuildingBlock: KIFKEQ_clean_linker_1, # of connection points: 2
#     Edge 69, Type (0, 0), BuildingBlock: KIFKEQ_clean_linker_1, # of connection points: 2
#     Edge 70, Type (0, 0), BuildingBlock: KIFKEQ_clean_linker_1, # of connection points: 2
#     Edge 71, Type (0, 0), BuildingBlock: KIFKEQ_clean_linker_1, # of connection points: 2
# Relax obj value: 0.252
# Max RMSD: 0.307
# Mean RMSD: 0.266
data_MOF--net-hbo--node1-KUFVIS_clean_sbu_0--edge1-KIFKEQ_clean_linker_1
_symmetry_space_group_name_H-M    P1
_symmetry_Int_Tables_number       1
_symmetry_cell_setting            triclinic
loop_
_symmetry_equiv_pos_as_xyz
'x, y, z'
_cell_length_a     52.076624
_cell_length_b     53.42244
_cell_length_c     53.379553
_cell_angle_alpha  91.622317
_cell_angle_beta   89.930655
_cell_angle_gamma 96.005857
loop_
_atom_site_label
_atom_site_type_symbol
_atom_site_fract_x
_atom_site_fract_y
_atom_site_fract_z
_atom_type_partial_charge
Mn0 Mn 0.12688 0.33315 0.26646 0.0
Mn1 Mn 0.1304 0.34845 0.20555 0.0
C2 C 0.16198 0.32475 0.24261 0.0
C3 C 0.11555 0.30387 0.29713 0.0
C4 C 0.143 0.38622 0.24796 0.0
O5 O 0.08992 0.33891 0.25895 0.0
O6 O 0.09488 0.35039 0.21878 0.0
C7 C 0.09685 0.30431 0.18545 0.0
N8 N 0.1199 0.31893 0.18554 0.0
C9 C 0.1365 0.29313 0.15291 0.0
C10 C 0.11287 0.2779 0.15235 0.0
C11 C 0.09299 0.28349 0.16872 0.0
C12 C 0.13917 0.31371 0.16988 0.0
H13 H 0.08155 0.3085 0.19806 0.0
C14 C 0.08118 0.34661 0.23856 0.0
O15 O 0.11952 0.32779 0.30284 0.0
O16 O 0.11665 0.2974 0.27363 0.0
N17 N 0.16344 0.34742 0.19001 0.0
C18 C 0.18548 0.36319 0.19381 0.0
C19 C 0.20747 0.35973 0.17941 0.0
C20 C 0.20652 0.34026 0.16109 0.0
C21 C 0.18352 0.32449 0.15727 0.0
C22 C 0.16216 0.32895 0.17208 0.0
H23 H 0.18637 0.37803 0.208 0.0
O24 O 0.16379 0.32664 0.26681 0.0
O25 O 0.1396 0.32762 0.23296 0.0
O26 O 0.13711 0.37141 0.26594 0.0
O27 O 0.14201 0.37935 0.22483 0.0
C28 C 0.18113 0.30413 0.13976 0.0
C29 C 0.15765 0.28845 0.13761 0.0
H30 H 0.10986 0.26174 0.13957 0.0
H31 H 0.07474 0.27175 0.16848 0.0
H32 H 0.22517 0.37195 0.18252 0.0
H33 H 0.22362 0.33747 0.15021 0.0
H34 H 0.19735 0.30016 0.12812 0.0
H35 H 0.15615 0.27267 0.12431 0.0
Mn36 Mn 0.13694 0.63235 0.71872 0.0
Mn37 Mn 0.13497 0.60673 0.77556 0.0
C38 C 0.1735 0.63534 0.7433 0.0
C39 C 0.13184 0.66735 0.69513 0.0
C40 C 0.13436 0.57655 0.7264 0.0
O41 O 0.09859 0.62627 0.72634 0.0
O42 O 0.10015 0.61562 0.76695 0.0
C43 C 0.12372 0.65044 0.80754 0.0
N44 N 0.13929 0.63222 0.80153 0.0
C45 C 0.16928 0.64695 0.83433 0.0
C46 C 0.15341 0.66569 0.84103 0.0
C47 C 0.13055 0.66746 0.82755 0.0
C48 C 0.16133 0.63034 0.81439 0.0
H49 H 0.10632 0.65209 0.79702 0.0
C50 C 0.08796 0.62172 0.74756 0.0
O51 O 0.13058 0.645 0.68459 0.0
O52 O 0.13492 0.66892 0.7192 0.0
N53 N 0.16812 0.59807 0.78571 0.0
C54 C 0.18226 0.58021 0.77568 0.0
C55 C 0.20619 0.57668 0.78637 0.0
C56 C 0.21533 0.59154 0.80726 0.0
C57 C 0.20046 0.60981 0.81727 0.0
C58 C 0.17661 0.61226 0.806 0.0
H59 H 0.1754 0.56875 0.75961 0.0
O60 O 0.17554 0.63844 0.71934 0.0
O61 O 0.15028 0.63069 0.75179 0.0
O62 O 0.13877 0.59487 0.71172 0.0
O63 O 0.13105 0.57906 0.75004 0.0
C64 C 0.2086 0.62601 0.83765 0.0
C65 C 0.19305 0.64458 0.84617 0.0
H66 H 0.15875 0.67903 0.85627 0.0
H67 H 0.11832 0.68202 0.83246 0.0
H68 H 0.21759 0.5626 0.77849 0.0
H69 H 0.23386 0.58884 0.81534 0.0
H70 H 0.22695 0.62456 0.84669 0.0
H71 H 0.19974 0.6572 0.86159 0.0
Mn72 Mn 0.85939 0.66623 0.25929 0.0
Mn73 Mn 0.87926 0.65664 0.31802 0.0
C74 C 0.86708 0.69976 0.28713 0.0
C75 C 0.82541 0.66572 0.23106 0.0
C76 C 0.91428 0.65656 0.27252 0.0
O77 O 0.85219 0.62872 0.26287 0.0
O78 O 0.86257 0.62426 0.30335 0.0
C79 C 0.82811 0.64577 0.3418 0.0
N80 N 0.85139 0.6599 0.3408 0.0
C81 C 0.84038 0.68608 0.37578 0.0
C82 C 0.81634 0.67168 0.37732 0.0
C83 C 0.81018 0.65146 0.36023 0.0
C84 C 0.85753 0.6794 0.35713 0.0
H85 H 0.82324 0.63033 0.32857 0.0
C86 C 0.8539 0.6154 0.28207 0.0
O87 O 0.84869 0.66304 0.22341 0.0
O88 O 0.82209 0.66905 0.25496 0.0
N89 N 0.89569 0.68635 0.33448 0.0
C90 C 0.9192 0.69901 0.32975 0.0
C91 C 0.92808 0.7201 0.34484 0.0
C92 C 0.91275 0.72787 0.36468 0.0
C93 C 0.88875 0.71436 0.36937 0.0
C94 C 0.88107 0.69331 0.3539 0.0
H95 H 0.93103 0.69316 0.31448 0.0
O96 O 0.86645 0.70355 0.26323 0.0
O97 O 0.86247 0.67654 0.29388 0.0
O98 O 0.89792 0.66255 0.25657 0.0
O99 O 0.90914 0.65351 0.29575 0.0
C100 C 0.87196 0.72121 0.3885 0.0
C101 C 0.84777 0.70711 0.39168 0.0
H102 H 0.80239 0.67612 0.3914 0.0
H103 H 0.79161 0.64036 0.36121 0.0
H104 H 0.94662 0.73043 0.34111 0.0
H105 H 0.91952 0.74432 0.3761 0.0
H106 H 0.8773 0.73749 0.40067 0.0
H107 H 0.83488 0.71277 0.40623 0.0
Mn108 Mn 0.84798 0.36227 0.72658 0.0
Mn109 Mn 0.86667 0.37642 0.66774 0.0
C110 C 0.84843 0.331 0.69647 0.0
C111 C 0.81645 0.35723 0.757 0.0
C112 C 0.90416 0.37366 0.71065 0.0
O113 O 0.84607 0.39959 0.72581 0.0
O114 O 0.85759 0.40756 0.68582 0.0
C115 C 0.81662 0.38927 0.64829 0.0
N116 N 0.83667 0.37484 0.64692 0.0
C117 C 0.81699 0.35037 0.61213 0.0
C118 C 0.79624 0.36511 0.61305 0.0
C119 C 0.79606 0.38464 0.63121 0.0
C120 C 0.83708 0.35605 0.62945 0.0
H121 H 0.81625 0.40414 0.66237 0.0
C122 C 0.85007 0.41442 0.70763 0.0
O123 O 0.84068 0.36147 0.76308 0.0
O124 O 0.81053 0.35658 0.73338 0.0
N125 N 0.87547 0.34786 0.64832 0.0
C126 C 0.8963 0.33464 0.65069 0.0
C127 C 0.89902 0.31403 0.63434 0.0
C128 C 0.88035 0.30726 0.61572 0.0
C129 C 0.85922 0.3213 0.61348 0.0
C130 C 0.85768 0.34184 0.63012 0.0
H131 H 0.91058 0.33958 0.66513 0.0
O132 O 0.84921 0.32578 0.72003 0.0
O133 O 0.84698 0.35445 0.69125 0.0
O134 O 0.88714 0.3677 0.72716 0.0
O135 O 0.89875 0.37765 0.68784 0.0
C136 C 0.83936 0.31542 0.59572 0.0
C137 C 0.81827 0.32994 0.59504 0.0
H138 H 0.78023 0.36145 0.60006 0.0
H139 H 0.78004 0.39599 0.63214 0.0
H140 H 0.91536 0.30326 0.63622 0.0
H141 H 0.88235 0.29116 0.60334 0.0
H142 H 0.83998 0.29958 0.58268 0.0
H143 H 0.80298 0.32507 0.58147 0.0
Mn144 Mn 0.22366 0.13659 0.3651 0.0
Mn145 Mn 0.28492 0.12219 0.37134 0.0
C146 C 0.24819 0.13112 0.32986 0.0
C147 C 0.19544 0.16768 0.36577 0.0
C148 C 0.23761 0.08434 0.37625 0.0
O149 O 0.23144 0.14291 0.40212 0.0
O150 O 0.27402 0.13881 0.40257 0.0
C151 C 0.31175 0.17381 0.37486 0.0
N152 N 0.30889 0.15046 0.36367 0.0
C153 C 0.34476 0.16115 0.33619 0.0
C154 C 0.34825 0.18526 0.34755 0.0
C155 C 0.33159 0.19165 0.36689 0.0
C156 C 0.3246 0.14421 0.34487 0.0
H157 H 0.299 0.17876 0.38975 0.0
C158 C 0.2533 0.14462 0.41307 0.0
O159 O 0.18727 0.1444 0.37019 0.0
O160 O 0.21983 0.17273 0.36105 0.0
N161 N 0.29855 0.10605 0.34252 0.0
C162 C 0.29184 0.08243 0.33275 0.0
C163 C 0.30614 0.07337 0.31276 0.0
C164 C 0.32747 0.08849 0.30332 0.0
C165 C 0.3343 0.11254 0.31399 0.0
C166 C 0.3193 0.12058 0.33384 0.0
H167 H 0.27565 0.07059 0.34008 0.0
O168 O 0.22332 0.13081 0.32802 0.0
O169 O 0.25811 0.13616 0.352 0.0
O170 O 0.22067 0.09858 0.36987 0.0
O171 O 0.26162 0.09177 0.37895 0.0
C172 C 0.35523 0.12898 0.3055 0.0
C173 C 0.36032 0.15334 0.31645 0.0
H174 H 0.36353 0.19907 0.34146 0.0
H175 H 0.33406 0.21027 0.37565 0.0
H176 H 0.30078 0.05475 0.30468 0.0
H177 H 0.33838 0.08148 0.28783 0.0
H178 H 0.36731 0.1232 0.29032 0.0
H179 H 0.37617 0.16597 0.30943 0.0
Mn180 Mn 0.35553 0.76339 0.83565 0.0
Mn181 Mn 0.36057 0.70173 0.84264 0.0
C182 C 0.31944 0.73446 0.83205 0.0
C183 C 0.35734 0.79698 0.80889 0.0
C184 C 0.36416 0.74065 0.88562 0.0
O185 O 0.3942 0.76058 0.83274 0.0
O186 O 0.39368 0.71817 0.83025 0.0
C187 C 0.36724 0.68479 0.78997 0.0
N188 N 0.3539 0.68297 0.81191 0.0
C189 C 0.32448 0.64896 0.795 0.0
C190 C 0.33804 0.65033 0.77228 0.0
C191 C 0.35944 0.66839 0.76973 0.0
C192 C 0.33317 0.66579 0.81451 0.0
H193 H 0.38363 0.69871 0.78792 0.0
C194 C 0.40513 0.7405 0.82868 0.0
O195 O 0.36002 0.80086 0.83294 0.0
O196 O 0.35437 0.77389 0.80052 0.0
N197 N 0.32916 0.684 0.85426 0.0
C198 C 0.31713 0.68634 0.87676 0.0
C199 C 0.2947 0.67038 0.88192 0.0
C200 C 0.28498 0.65208 0.86399 0.0
C201 C 0.29772 0.64997 0.841 0.0
C202 C 0.32005 0.66633 0.83694 0.0
H203 H 0.32455 0.70028 0.89066 0.0
O204 O 0.31675 0.75806 0.83632 0.0
O205 O 0.34289 0.72888 0.82985 0.0
O206 O 0.35734 0.75912 0.87352 0.0
O207 O 0.36732 0.71923 0.87546 0.0
C208 C 0.28896 0.63251 0.82182 0.0
C209 C 0.30236 0.63196 0.79886 0.0
H210 H 0.33201 0.63779 0.75659 0.0
H211 H 0.36989 0.66968 0.7522 0.0
H212 H 0.28495 0.67215 0.8997 0.0
H213 H 0.26766 0.63985 0.86806 0.0
H214 H 0.27176 0.61963 0.82442 0.0
H215 H 0.29525 0.61865 0.78416 0.0
Mn216 Mn 0.77303 0.87069 0.36033 0.0
Mn217 Mn 0.70934 0.8769 0.36409 0.0
C218 C 0.74755 0.86372 0.32523 0.0
C219 C 0.80603 0.84539 0.36506 0.0
C220 C 0.75106 0.92101 0.36223 0.0
O221 O 0.76622 0.87164 0.39769 0.0
O222 O 0.72281 0.87034 0.39779 0.0
C223 C 0.69011 0.82489 0.37747 0.0
N224 N 0.68971 0.84463 0.36194 0.0
C225 C 0.65664 0.82192 0.33627 0.0
C226 C 0.65653 0.80141 0.35211 0.0
C227 C 0.67341 0.80287 0.37274 0.0
C228 C 0.67369 0.84336 0.34193 0.0
H229 H 0.70311 0.82592 0.3933 0.0
C230 C 0.74452 0.8698 0.40892 0.0
O231 O 0.81088 0.86976 0.36561 0.0
O232 O 0.78224 0.83595 0.36225 0.0
N233 N 0.69367 0.88305 0.33273 0.0
C234 C 0.69712 0.90395 0.31853 0.0
C235 C 0.68229 0.90516 0.29673 0.0
C236 C 0.66384 0.88504 0.28991 0.0
C237 C 0.66034 0.86392 0.30502 0.0
C238 C 0.67565 0.86378 0.32656 0.0
H239 H 0.71118 0.91953 0.32371 0.0
O240 O 0.77241 0.86788 0.32304 0.0
O241 O 0.73845 0.86278 0.34789 0.0
O242 O 0.77029 0.90836 0.35891 0.0
O243 O 0.72797 0.91102 0.36568 0.0
C244 C 0.64253 0.84283 0.29935 0.0
C245 C 0.64078 0.82178 0.31488 0.0
H246 H 0.64374 0.78437 0.34849 0.0
H247 H 0.67355 0.78707 0.38496 0.0
H248 H 0.68509 0.92154 0.28518 0.0
H249 H 0.65257 0.88596 0.27298 0.0
H250 H 0.63037 0.84244 0.28287 0.0
H251 H 0.62734 0.8055 0.31006 0.0
Mn252 Mn 0.63086 0.24342 0.85378 0.0
Mn253 Mn 0.63327 0.30541 0.86874 0.0
C254 C 0.66833 0.26963 0.84786 0.0
C255 C 0.62241 0.21115 0.82363 0.0
C256 C 0.63606 0.26494 0.90731 0.0
O257 O 0.59299 0.24882 0.85769 0.0
O258 O 0.59681 0.29089 0.86464 0.0
C259 C 0.61362 0.32241 0.82078 0.0
N260 N 0.63244 0.32379 0.8386 0.0
C261 C 0.65876 0.35524 0.81597 0.0
C262 C 0.63957 0.35429 0.79745 0.0
C263 C 0.61693 0.33777 0.79985 0.0
C264 C 0.65435 0.33952 0.83641 0.0
H265 H 0.59626 0.30962 0.82247 0.0
C266 C 0.58329 0.2696 0.86139 0.0
O267 O 0.62273 0.20627 0.84736 0.0
O268 O 0.62582 0.2346 0.81777 0.0
N269 N 0.66741 0.32204 0.87314 0.0
C270 C 0.68426 0.32029 0.89237 0.0
C271 C 0.70794 0.33552 0.89275 0.0
C272 C 0.71398 0.3525 0.87346 0.0
C273 C 0.69618 0.35423 0.85406 0.0
C274 C 0.67276 0.3388 0.85485 0.0
H275 H 0.67974 0.30727 0.90723 0.0
O276 O 0.66913 0.24554 0.84906 0.0
O277 O 0.64567 0.2775 0.84971 0.0
O278 O 0.63523 0.24601 0.89201 0.0
O279 O 0.635 0.28758 0.90047 0.0
C280 C 0.70088 0.37046 0.83384 0.0
C281 C 0.68223 0.37089 0.81475 0.0
H282 H 0.64209 0.36604 0.78124 0.0
H283 H 0.6021 0.33683 0.78557 0.0
H284 H 0.72156 0.3341 0.9078 0.0
H285 H 0.73238 0.36402 0.87367 0.0
H286 H 0.7189 0.38248 0.83263 0.0
H287 H 0.6862 0.38322 0.79914 0.0
Mn288 Mn 0.25269 0.85144 0.62553 0.0
Mn289 Mn 0.19516 0.85938 0.59998 0.0
C290 C 0.22038 0.81851 0.62487 0.0
C291 C 0.28019 0.85633 0.65997 0.0
C292 C 0.24403 0.85376 0.57 0.0
O293 O 0.25329 0.88926 0.62215 0.0
O294 O 0.21156 0.89261 0.61248 0.0
C295 C 0.16599 0.87521 0.64425 0.0
N296 N 0.16835 0.85897 0.62446 0.0
C297 C 0.12795 0.8352 0.63427 0.0
C298 C 0.12498 0.8518 0.65465 0.0
C299 C 0.14411 0.87186 0.65968 0.0
C300 C 0.15001 0.83967 0.61937 0.0
H301 H 0.18075 0.89054 0.64826 0.0
C302 C 0.23439 0.90216 0.61857 0.0
O303 O 0.28914 0.8547 0.63733 0.0
O304 O 0.25534 0.85549 0.66258 0.0
N305 N 0.17743 0.82834 0.5875 0.0
C306 C 0.18439 0.81275 0.56861 0.0
C307 C 0.16804 0.79096 0.56208 0.0
C308 C 0.14469 0.78547 0.57497 0.0
C309 C 0.13789 0.80184 0.59428 0.0
C310 C 0.15486 0.82338 0.59983 0.0
H311 H 0.20235 0.81681 0.55869 0.0
O312 O 0.24423 0.81437 0.62828 0.0
O313 O 0.21614 0.84192 0.62282 0.0
O314 O 0.25789 0.84739 0.58787 0.0
O315 O 0.22113 0.8599 0.57289 0.0
C316 C 0.11527 0.79729 0.60867 0.0
C317 C 0.11028 0.81397 0.62863 0.0
H318 H 0.10826 0.84912 0.66675 0.0
H319 H 0.14204 0.88464 0.67547 0.0
H320 H 0.17347 0.77837 0.54722 0.0
H321 H 0.13226 0.76851 0.57005 0.0
H322 H 0.10179 0.78078 0.60482 0.0
H323 H 0.09306 0.81002 0.63984 0.0
Mn324 Mn 0.65354 0.75312 0.14402 0.0
Mn325 Mn 0.64191 0.81292 0.13385 0.0
C326 C 0.65951 0.78274 0.17566 0.0
C327 C 0.68251 0.72288 0.1423 0.0
C328 C 0.59961 0.77075 0.1431 0.0
O329 O 0.65147 0.75413 0.10656 0.0
O330 O 0.64553 0.79479 0.10101 0.0
C331 C 0.69261 0.83095 0.11223 0.0
N332 N 0.6742 0.83299 0.1301 0.0
C333 C 0.69976 0.8677 0.1507 0.0
C334 C 0.71891 0.86612 0.13239 0.0
C335 C 0.71531 0.84765 0.11309 0.0
C336 C 0.67743 0.85072 0.14873 0.0
H337 H 0.69003 0.81663 0.0975 0.0
C338 C 0.64847 0.77253 0.09262 0.0
O339 O 0.65775 0.7163 0.14284 0.0
O340 O 0.69009 0.74673 0.14205 0.0
N341 N 0.63807 0.83263 0.16387 0.0
C342 C 0.61823 0.83098 0.18061 0.0
C343 C 0.61915 0.8477 0.20146 0.0
C344 C 0.64035 0.86603 0.20478 0.0
C345 C 0.66032 0.86765 0.18707 0.0
C346 C 0.65821 0.85064 0.16653 0.0
H347 H 0.60197 0.81681 0.17824 0.0
O348 O 0.65675 0.759 0.18065 0.0
O349 O 0.65944 0.78844 0.15212 0.0
O350 O 0.61427 0.75332 0.14622 0.0
O351 O 0.608 0.79345 0.13822 0.0
C352 C 0.68249 0.8851 0.18927 0.0
C353 C 0.70219 0.88513 0.1711 0.0
H354 H 0.73654 0.87882 0.1331 0.0
H355 H 0.73007 0.84621 0.09898 0.0
H356 H 0.60366 0.84634 0.21504 0.0
H357 H 0.64116 0.87866 0.22106 0.0
H358 H 0.68472 0.89838 0.20503 0.0
H359 H 0.71928 0.89845 0.17315 0.0
Mn360 Mn 0.72782 0.13507 0.64718 0.0
Mn361 Mn 0.78902 0.13171 0.62749 0.0
C362 C 0.75521 0.17139 0.64308 0.0
C363 C 0.69886 0.13351 0.68062 0.0
C364 C 0.74234 0.12545 0.5929 0.0
O365 O 0.73302 0.09817 0.65038 0.0
O366 O 0.77547 0.09909 0.64169 0.0
C367 C 0.81435 0.12704 0.67649 0.0
N368 N 0.81261 0.13938 0.65468 0.0
C369 C 0.84862 0.16942 0.66626 0.0
C370 C 0.85092 0.15693 0.68878 0.0
C371 C 0.83366 0.13568 0.69393 0.0
C372 C 0.82905 0.15989 0.64957 0.0
H373 H 0.80106 0.11075 0.68053 0.0
C374 C 0.75389 0.08768 0.64863 0.0
O375 O 0.69083 0.12887 0.65774 0.0
O376 O 0.72351 0.13859 0.68392 0.0
N377 N 0.80471 0.16209 0.61331 0.0
C378 C 0.79918 0.17262 0.59125 0.0
C379 C 0.81427 0.19439 0.5836 0.0
C380 C 0.83502 0.20497 0.59855 0.0
C381 C 0.84059 0.19358 0.62098 0.0
C382 C 0.82499 0.17181 0.62756 0.0
H383 H 0.7833 0.16455 0.57963 0.0
O384 O 0.73046 0.17241 0.64423 0.0
O385 O 0.76315 0.14932 0.64534 0.0
O386 O 0.7253 0.13065 0.60891 0.0
O387 O 0.76609 0.12422 0.5983 0.0
C388 C 0.86074 0.20321 0.63725 0.0
C389 C 0.8647 0.19119 0.65992 0.0
H390 H 0.86571 0.1636 0.70233 0.0
H391 H 0.83523 0.12602 0.71133 0.0
H392 H 0.80987 0.20304 0.56624 0.0
H393 H 0.84646 0.2219 0.5927 0.0
H394 H 0.87307 0.22006 0.63269 0.0
H395 H 0.88001 0.199 0.67245 0.0
Mn396 Mn 0.33148 0.20543 0.15392 0.0
Mn397 Mn 0.34569 0.15052 0.1279 0.0
C398 C 0.33335 0.17122 0.1783 0.0
C399 C 0.30035 0.23185 0.16435 0.0
C400 C 0.38613 0.19397 0.14078 0.0
O401 O 0.32725 0.21071 0.11719 0.0
O402 O 0.3358 0.17304 0.10103 0.0
C403 C 0.29318 0.13194 0.10997 0.0
N404 N 0.31419 0.12888 0.1243 0.0
C405 C 0.29347 0.0904 0.14068 0.0
C406 C 0.2717 0.09303 0.12594 0.0
C407 C 0.27156 0.1139 0.11053 0.0
C408 C 0.31454 0.10886 0.13918 0.0
H409 H 0.29287 0.1481 0.09832 0.0
C410 C 0.32973 0.19554 0.09879 0.0
O411 O 0.32443 0.24082 0.16207 0.0
O412 O 0.29461 0.20799 0.15987 0.0
N413 N 0.35518 0.12707 0.15181 0.0
C414 C 0.37735 0.12775 0.16547 0.0
C415 C 0.38035 0.10847 0.18223 0.0
C416 C 0.3606 0.08868 0.1847 0.0
C417 C 0.33809 0.08823 0.17022 0.0
C418 C 0.33629 0.10783 0.15364 0.0
H419 H 0.3925 0.14303 0.16379 0.0
O420 O 0.33527 0.19374 0.18832 0.0
O421 O 0.32955 0.1694 0.15422 0.0
O422 O 0.37059 0.20893 0.14964 0.0
O423 O 0.37892 0.1718 0.13198 0.0
C424 C 0.31722 0.06932 0.17187 0.0
C425 C 0.29492 0.07041 0.15711 0.0
H426 H 0.25491 0.07926 0.12645 0.0
H427 H 0.25477 0.11615 0.09921 0.0
H428 H 0.39777 0.10895 0.19334 0.0
H429 H 0.36288 0.07398 0.19784 0.0
H430 H 0.31802 0.05397 0.18458 0.0
H431 H 0.27891 0.05587 0.1587 0.0
Mn432 Mn 0.84907 0.65109 0.74862 0.0
Mn433 Mn 0.85569 0.62905 0.80689 0.0
C434 C 0.81487 0.64916 0.7759 0.0
C435 C 0.8548 0.68403 0.72105 0.0
C436 C 0.84643 0.59524 0.7606 0.0
O437 O 0.88763 0.6506 0.75194 0.0
O438 O 0.89 0.63788 0.7916 0.0
C439 C 0.87867 0.67695 0.83054 0.0
N440 N 0.85999 0.6571 0.83003 0.0
C441 C 0.83992 0.67293 0.867 0.0
C442 C 0.85905 0.69348 0.86803 0.0
C443 C 0.87845 0.69553 0.84966 0.0
C444 C 0.84108 0.65509 0.84743 0.0
H445 H 0.89358 0.67858 0.81642 0.0
C446 C 0.90038 0.6449 0.77089 0.0
O447 O 0.85287 0.66075 0.71299 0.0
O448 O 0.85351 0.68818 0.74507 0.0
N449 N 0.82445 0.61928 0.82462 0.0
C450 C 0.80771 0.59809 0.82118 0.0
C451 C 0.7872 0.59311 0.83804 0.0
C452 C 0.78442 0.60968 0.85853 0.0
C453 C 0.80238 0.63092 0.86216 0.0
C454 C 0.82251 0.63481 0.84482 0.0
H455 H 0.80989 0.58515 0.8056 0.0
O456 O 0.81111 0.65131 0.75209 0.0
O457 O 0.8387 0.64961 0.78335 0.0
O458 O 0.84487 0.61266 0.74493 0.0
O459 O 0.85065 0.59935 0.78404 0.0
C460 C 0.80102 0.64847 0.8822 0.0
C461 C 0.81968 0.66954 0.88453 0.0
H462 H 0.85896 0.70783 0.88277 0.0
H463 H 0.89321 0.71137 0.85027 0.0
H464 H 0.77356 0.57655 0.83523 0.0
H465 H 0.76845 0.6059 0.87137 0.0
H466 H 0.7856 0.64602 0.89583 0.0
H467 H 0.8183 0.68302 0.89989 0.0
Mn468 Mn 0.84483 0.37723 0.26002 0.0
Mn469 Mn 0.85048 0.39266 0.19937 0.0
C470 C 0.80993 0.36942 0.23363 0.0
C471 C 0.84889 0.34859 0.29097 0.0
C472 C 0.84582 0.43062 0.24216 0.0
O473 O 0.88349 0.38282 0.25481 0.0
O474 O 0.88525 0.38812 0.21303 0.0
C475 C 0.86722 0.34536 0.17778 0.0
N476 N 0.8501 0.36298 0.17844 0.0
C477 C 0.82425 0.3407 0.14593 0.0
C478 C 0.84175 0.32246 0.14474 0.0
C479 C 0.8633 0.32479 0.16076 0.0
C480 C 0.82932 0.36095 0.16307 0.0
H481 H 0.88366 0.34693 0.19024 0.0
C482 C 0.89595 0.38532 0.23428 0.0
O483 O 0.84881 0.37239 0.29657 0.0
O484 O 0.84738 0.34165 0.2675 0.0
N485 N 0.81801 0.39696 0.18408 0.0
C486 C 0.80205 0.41519 0.18876 0.0
C487 C 0.77905 0.41498 0.175 0.0
C488 C 0.77273 0.39609 0.15653 0.0
C489 C 0.78956 0.37765 0.15189 0.0
C490 C 0.81235 0.37897 0.16601 0.0
H491 H 0.80668 0.42967 0.20303 0.0
O492 O 0.80654 0.37053 0.25769 0.0
O493 O 0.83365 0.37243 0.22584 0.0
O494 O 0.84235 0.41481 0.25953 0.0
O495 O 0.85025 0.42445 0.21936 0.0
C496 C 0.7843 0.35768 0.13424 0.0
C497 C 0.80164 0.33922 0.13125 0.0
H498 H 0.83866 0.30642 0.13182 0.0
H499 H 0.87678 0.31068 0.16009 0.0
H500 H 0.76613 0.42923 0.17873 0.0
H501 H 0.75481 0.39579 0.1462 0.0
H502 H 0.76676 0.3561 0.12315 0.0
H503 H 0.79717 0.32373 0.1179 0.0
Mn504 Mn 0.13949 0.34323 0.73778 0.0
Mn505 Mn 0.13347 0.37342 0.79352 0.0
C506 C 0.17212 0.34509 0.76684 0.0
C507 C 0.13252 0.30701 0.71259 0.0
C508 C 0.14747 0.40044 0.74567 0.0
O509 O 0.10152 0.34684 0.73933 0.0
O510 O 0.09905 0.36722 0.77662 0.0
C511 C 0.10301 0.33154 0.81876 0.0
N512 N 0.12441 0.34848 0.81789 0.0
C513 C 0.14156 0.33239 0.85533 0.0
C514 C 0.11961 0.31489 0.85672 0.0
C515 C 0.10027 0.31446 0.83834 0.0
C516 C 0.14316 0.34903 0.83546 0.0
H517 H 0.0882 0.33101 0.80456 0.0
C518 C 0.08886 0.35738 0.75628 0.0
O519 O 0.136 0.32915 0.70291 0.0
O520 O 0.13265 0.30606 0.73684 0.0
N521 N 0.16495 0.38066 0.8121 0.0
C522 C 0.185 0.39857 0.80794 0.0
C523 C 0.20602 0.40142 0.82462 0.0
C524 C 0.20614 0.38596 0.84546 0.0
C525 C 0.18506 0.36801 0.84962 0.0
C526 C 0.16449 0.36626 0.83255 0.0
H527 H 0.1851 0.41036 0.79187 0.0
O528 O 0.17686 0.34062 0.74336 0.0
O529 O 0.14832 0.3479 0.77265 0.0
O530 O 0.14647 0.38084 0.73134 0.0
O531 O 0.14355 0.39997 0.76932 0.0
C532 C 0.18379 0.35157 0.86986 0.0
C533 C 0.16208 0.33374 0.87269 0.0
H534 H 0.11748 0.30159 0.87172 0.0
H535 H 0.08333 0.30092 0.83922 0.0
H536 H 0.22219 0.41536 0.82129 0.0
H537 H 0.22255 0.38797 0.85808 0.0
H538 H 0.1995 0.35233 0.88324 0.0
H539 H 0.16141 0.32106 0.88821 0.0
Mn540 Mn 0.14701 0.62146 0.22685 0.0
Mn541 Mn 0.12249 0.5946 0.17323 0.0
C542 C 0.17366 0.61626 0.19329 0.0
C543 C 0.15632 0.65772 0.25127 0.0
C544 C 0.13324 0.56509 0.21923 0.0
O545 O 0.10885 0.62311 0.23084 0.0
O546 O 0.09382 0.60698 0.19359 0.0
C547 C 0.1059 0.63977 0.14965 0.0
N548 N 0.12049 0.62004 0.14903 0.0
C549 C 0.13949 0.63289 0.1097 0.0
C550 C 0.12452 0.65323 0.10984 0.0
C551 C 0.10765 0.65668 0.12991 0.0
C552 C 0.13669 0.61647 0.12974 0.0
H553 H 0.0931 0.64267 0.16516 0.0
C554 C 0.09059 0.6172 0.21528 0.0
O555 O 0.15378 0.63575 0.26144 0.0
O556 O 0.15298 0.65837 0.22728 0.0
N557 N 0.14838 0.5825 0.1519 0.0
C558 C 0.16265 0.5629 0.15538 0.0
C559 C 0.18108 0.55742 0.13737 0.0
C560 C 0.18467 0.57215 0.11602 0.0
C561 C 0.16971 0.59217 0.11281 0.0
C562 C 0.15143 0.59657 0.13124 0.0
H563 H 0.16022 0.55171 0.17189 0.0
O564 O 0.18307 0.61921 0.21581 0.0
O565 O 0.14883 0.61671 0.19123 0.0
O566 O 0.14246 0.58379 0.23295 0.0
O567 O 0.1248 0.56717 0.19696 0.0
C568 C 0.17262 0.60827 0.09232 0.0
C569 C 0.15751 0.6286 0.09075 0.0
H570 H 0.12601 0.66646 0.09477 0.0
H571 H 0.09615 0.67242 0.13022 0.0
H572 H 0.19264 0.54201 0.14004 0.0
H573 H 0.19912 0.56804 0.10231 0.0
H574 H 0.18665 0.60537 0.0778 0.0
H575 H 0.16014 0.64102 0.07506 0.0
Mn576 Mn 0.76413 0.85029 0.64576 0.0
Mn577 Mn 0.70002 0.85392 0.64021 0.0
C578 C 0.73719 0.8403 0.6788 0.0
C579 C 0.79906 0.82693 0.64132 0.0
C580 C 0.73896 0.89939 0.64964 0.0
O581 O 0.75943 0.85246 0.60832 0.0
O582 O 0.71626 0.85317 0.60654 0.0
C583 C 0.6857 0.80365 0.61652 0.0
N584 N 0.68277 0.82078 0.63542 0.0
C585 C 0.65041 0.79252 0.65523 0.0
C586 C 0.65293 0.77464 0.63587 0.0
C587 C 0.67069 0.78023 0.61647 0.0
C588 C 0.66575 0.81561 0.65419 0.0
H589 H 0.69942 0.80783 0.60165 0.0
C590 C 0.73847 0.85314 0.59618 0.0
O591 O 0.80249 0.85138 0.64277 0.0
O592 O 0.77555 0.81633 0.64146 0.0
N593 N 0.6817 0.8547 0.67128 0.0
C594 C 0.68261 0.87347 0.68918 0.0
C595 C 0.6666 0.87053 0.71032 0.0
C596 C 0.64967 0.84847 0.71269 0.0
C597 C 0.64878 0.8296 0.69381 0.0
C598 C 0.66504 0.83366 0.67309 0.0
H599 H 0.69562 0.89045 0.68747 0.0
O600 O 0.7617 0.84602 0.68251 0.0
O601 O 0.72916 0.8399 0.65571 0.0
O602 O 0.75909 0.88766 0.65039 0.0
O603 O 0.71622 0.88856 0.6457 0.0
C604 C 0.63283 0.80668 0.69502 0.0
C605 C 0.63367 0.78814 0.67576 0.0
H606 H 0.64152 0.75649 0.63585 0.0
H607 H 0.67285 0.76647 0.60154 0.0
H608 H 0.6674 0.88518 0.7248 0.0
H609 H 0.63758 0.84614 0.72916 0.0
H610 H 0.62012 0.80296 0.71087 0.0
H611 H 0.62158 0.77045 0.67708 0.0
Mn612 Mn 0.63123 0.23294 0.14602 0.0
Mn613 Mn 0.61822 0.29256 0.13725 0.0
C614 C 0.66325 0.26555 0.15159 0.0
C615 C 0.63124 0.20005 0.17359 0.0
C616 C 0.62602 0.2551 0.09461 0.0
O617 O 0.59223 0.23019 0.14534 0.0
O618 O 0.58541 0.27111 0.14376 0.0
C619 C 0.60047 0.30513 0.18831 0.0
N620 N 0.61696 0.31011 0.16884 0.0
C621 C 0.63919 0.34558 0.19138 0.0
C622 C 0.62232 0.34094 0.2116 0.0
C623 C 0.6029 0.32061 0.21006 0.0
C624 C 0.6357 0.32965 0.1701 0.0
H625 H 0.58565 0.2894 0.18726 0.0
C626 C 0.57736 0.24768 0.14537 0.0
O627 O 0.63146 0.1957 0.1495 0.0
O628 O 0.63055 0.22309 0.18141 0.0
N629 N 0.64828 0.3153 0.13086 0.0
C630 C 0.66379 0.31641 0.11026 0.0
C631 C 0.68468 0.33524 0.10913 0.0
C632 C 0.68931 0.35281 0.12911 0.0
C633 C 0.67286 0.35152 0.14996 0.0
C634 C 0.6522 0.33249 0.14992 0.0
H635 H 0.6604 0.3029 0.09489 0.0
O636 O 0.66911 0.24271 0.14821 0.0
O637 O 0.63881 0.26847 0.15232 0.0
O638 O 0.63212 0.237 0.10782 0.0
O639 O 0.61989 0.27595 0.10398 0.0
C640 C 0.6765 0.36802 0.17101 0.0
C641 C 0.65969 0.36504 0.19171 0.0
H642 H 0.62425 0.35272 0.22849 0.0
H643 H 0.5899 0.31682 0.22566 0.0
H644 H 0.69728 0.33611 0.09298 0.0
H645 H 0.70564 0.3671 0.12833 0.0
H646 H 0.69239 0.38283 0.17162 0.0
H647 H 0.66291 0.37762 0.20793 0.0
Mn648 Mn 0.2444 0.14086 0.64749 0.0
Mn649 Mn 0.30793 0.13527 0.63997 0.0
C650 C 0.27104 0.14246 0.68178 0.0
C651 C 0.21145 0.1668 0.6475 0.0
C652 C 0.26659 0.09089 0.63762 0.0
O653 O 0.24992 0.14613 0.61065 0.0
O654 O 0.29281 0.14426 0.60757 0.0
C655 C 0.3249 0.18882 0.63064 0.0
N656 N 0.32659 0.16788 0.64427 0.0
C657 C 0.35872 0.18997 0.67144 0.0
C658 C 0.35748 0.21171 0.65756 0.0
C659 C 0.34046 0.21114 0.63711 0.0
C660 C 0.34284 0.16825 0.66404 0.0
H661 H 0.3117 0.18853 0.61502 0.0
C662 C 0.27082 0.14761 0.5982 0.0
O663 O 0.20646 0.14265 0.6436 0.0
O664 O 0.23524 0.17555 0.6517 0.0
N665 N 0.32525 0.12694 0.66977 0.0
C666 C 0.32336 0.1047 0.68185 0.0
C667 C 0.3389 0.10222 0.70294 0.0
C668 C 0.35625 0.12262 0.71136 0.0
C669 C 0.35804 0.14525 0.6985 0.0
C670 C 0.34233 0.14649 0.67738 0.0
H671 H 0.30987 0.08907 0.67566 0.0
O672 O 0.24627 0.13762 0.68449 0.0
O673 O 0.27931 0.14693 0.65921 0.0
O674 O 0.24732 0.10327 0.6421 0.0
O675 O 0.28993 0.10097 0.63613 0.0
C676 C 0.37446 0.16677 0.70607 0.0
C677 C 0.37475 0.18913 0.69259 0.0
H678 H 0.36934 0.229 0.66258 0.0
H679 H 0.33928 0.22788 0.6264 0.0
H680 H 0.33735 0.08471 0.71281 0.0
H681 H 0.36796 0.12075 0.72783 0.0
H682 H 0.3867 0.16643 0.72242 0.0
H683 H 0.3872 0.20566 0.69879 0.0
Mn684 Mn 0.35473 0.74663 0.12576 0.0
Mn685 Mn 0.36607 0.68678 0.11128 0.0
C686 C 0.32099 0.71508 0.12399 0.0
C687 C 0.35303 0.77871 0.15606 0.0
C688 C 0.3645 0.72723 0.07262 0.0
O689 O 0.39344 0.74738 0.13005 0.0
O690 O 0.39862 0.70644 0.12287 0.0
C691 C 0.37805 0.67072 0.1622 0.0
N692 N 0.36365 0.66735 0.14085 0.0
C693 C 0.33908 0.63068 0.15703 0.0
C694 C 0.35376 0.63365 0.17912 0.0
C695 C 0.37329 0.65379 0.18173 0.0
C696 C 0.34477 0.64808 0.13817 0.0
H697 H 0.39301 0.68624 0.1643 0.0
C698 C 0.40738 0.72912 0.1289 0.0
O699 O 0.35628 0.78378 0.13253 0.0
O700 O 0.35095 0.75518 0.16184 0.0
N701 N 0.33633 0.6654 0.09991 0.0
C702 C 0.32311 0.6659 0.07794 0.0
C703 C 0.3025 0.64737 0.07268 0.0
C704 C 0.29586 0.62841 0.08994 0.0
C705 C 0.30998 0.62808 0.11225 0.0
C706 C 0.33044 0.64692 0.11639 0.0
H707 H 0.3281 0.68043 0.06461 0.0
O708 O 0.31658 0.73845 0.12251 0.0
O709 O 0.3449 0.71094 0.12716 0.0
O710 O 0.35879 0.74491 0.08754 0.0
O711 O 0.36819 0.70525 0.07978 0.0
C712 C 0.30425 0.61005 0.13076 0.0
C713 C 0.31873 0.6114 0.15317 0.0
H714 H 0.35008 0.6207 0.19428 0.0
H715 H 0.38461 0.65629 0.19878 0.0
H716 H 0.29171 0.64776 0.05542 0.0
H717 H 0.27979 0.6143 0.08593 0.0
H718 H 0.2885 0.59528 0.1281 0.0
H719 H 0.31388 0.59766 0.16742 0.0
Mn720 Mn 0.74144 0.1557 0.35652 0.0
Mn721 Mn 0.80372 0.15643 0.37407 0.0
C722 C 0.76768 0.19313 0.35858 0.0
C723 C 0.71136 0.1496 0.32421 0.0
C724 C 0.75862 0.15113 0.41054 0.0
O725 O 0.74794 0.11907 0.35415 0.0
O726 O 0.79071 0.12197 0.36191 0.0
C727 C 0.82659 0.14761 0.32424 0.0
N728 N 0.82554 0.16208 0.34555 0.0
C729 C 0.8592 0.19238 0.33077 0.0
C730 C 0.86078 0.1777 0.30873 0.0
C731 C 0.84436 0.15525 0.30544 0.0
C732 C 0.84116 0.18377 0.34887 0.0
H733 H 0.8139 0.13041 0.32161 0.0
C734 C 0.76918 0.10936 0.35597 0.0
O735 O 0.70423 0.14718 0.34744 0.0
O736 O 0.73566 0.15561 0.31988 0.0
N737 N 0.81896 0.18862 0.38626 0.0
C738 C 0.81445 0.20096 0.40826 0.0
C739 C 0.82906 0.22394 0.41431 0.0
C740 C 0.84826 0.23388 0.39778 0.0
C741 C 0.85281 0.22066 0.37543 0.0
C742 C 0.83784 0.19771 0.37054 0.0
H743 H 0.79976 0.19337 0.42106 0.0
O744 O 0.74278 0.19323 0.35842 0.0
O745 O 0.77629 0.17122 0.35674 0.0
O746 O 0.74064 0.15391 0.39488 0.0
O747 O 0.78239 0.15118 0.40439 0.0
C748 C 0.87137 0.2295 0.35765 0.0
C749 C 0.8745 0.21541 0.3353 0.0
H750 H 0.87438 0.18359 0.29413 0.0
H751 H 0.84536 0.14389 0.28842 0.0
H752 H 0.82546 0.234 0.43163 0.0
H753 H 0.8593 0.25174 0.40239 0.0
H754 H 0.88311 0.24727 0.36084 0.0
H755 H 0.88859 0.22258 0.32162 0.0
Mn756 Mn 0.33794 0.24904 0.8696 0.0
Mn757 Mn 0.34879 0.30843 0.89294 0.0
C758 C 0.30662 0.27599 0.86654 0.0
C759 C 0.34126 0.21996 0.83735 0.0
C760 C 0.33604 0.26299 0.92509 0.0
O761 O 0.37651 0.25376 0.87423 0.0
O762 O 0.3826 0.29445 0.88734 0.0
C763 C 0.37403 0.33222 0.84858 0.0
N764 N 0.35456 0.33082 0.8657 0.0
C765 C 0.3346 0.36383 0.84593 0.0
C766 C 0.35456 0.36575 0.82821 0.0
C767 C 0.37436 0.34988 0.82955 0.0
C768 C 0.33545 0.34607 0.86463 0.0
H769 H 0.38914 0.31988 0.84935 0.0
C770 C 0.39108 0.27354 0.88063 0.0
O771 O 0.33859 0.21288 0.86036 0.0
O772 O 0.34233 0.24386 0.83317 0.0
N773 N 0.31772 0.32404 0.89861 0.0
C774 C 0.29925 0.31903 0.91641 0.0
C775 C 0.27785 0.33299 0.91735 0.0
C776 C 0.2756 0.35189 0.89997 0.0
C777 C 0.29492 0.35683 0.88193 0.0
C778 C 0.31603 0.34259 0.88216 0.0
H779 H 0.30067 0.3043 0.92959 0.0
O780 O 0.30048 0.25183 0.86483 0.0
O781 O 0.33098 0.28354 0.86966 0.0
O782 O 0.33311 0.24686 0.90708 0.0
O783 O 0.3422 0.28654 0.92218 0.0
C784 C 0.29379 0.37497 0.86342 0.0
C785 C 0.31362 0.37847 0.84544 0.0
H786 H 0.35475 0.37918 0.81337 0.0
H787 H 0.38974 0.35114 0.81585 0.0
H788 H 0.26297 0.329 0.93128 0.0
H789 H 0.25886 0.36235 0.9005 0.0
H790 H 0.27762 0.38614 0.86268 0.0
H791 H 0.31239 0.39227 0.83113 0.0
Mn792 Mn 0.25983 0.85667 0.33385 0.0
Mn793 Mn 0.20191 0.84657 0.36234 0.0
C794 C 0.23647 0.81772 0.33148 0.0
C795 C 0.28526 0.8665 0.29881 0.0
C796 C 0.25232 0.84711 0.38985 0.0
O797 O 0.25066 0.89223 0.33987 0.0
O798 O 0.2137 0.88322 0.36144 0.0
C799 C 0.17163 0.86925 0.32363 0.0
N800 N 0.1757 0.84921 0.33778 0.0
C801 C 0.13927 0.82413 0.31902 0.0
C802 C 0.13459 0.84457 0.30437 0.0
C803 C 0.15087 0.8672 0.30667 0.0
C804 C 0.16016 0.82733 0.33571 0.0
H805 H 0.18414 0.88665 0.32522 0.0
C806 C 0.23147 0.89881 0.35239 0.0
O807 O 0.29508 0.86828 0.32125 0.0
O808 O 0.26052 0.86078 0.29704 0.0
N809 N 0.18779 0.81214 0.36451 0.0
C810 C 0.19555 0.7939 0.37922 0.0
C811 C 0.18168 0.76988 0.37866 0.0
C812 C 0.15984 0.76495 0.3632 0.0
C813 C 0.15194 0.78415 0.34857 0.0
C814 C 0.16642 0.80777 0.35004 0.0
H815 H 0.21237 0.79755 0.39104 0.0
O816 O 0.26128 0.81988 0.32844 0.0
O817 O 0.22591 0.8384 0.33588 0.0
O818 O 0.26692 0.85385 0.37149 0.0
O819 O 0.22778 0.84285 0.38838 0.0
C820 C 0.1306 0.78063 0.33218 0.0
C821 C 0.12429 0.80059 0.31739 0.0
H822 H 0.11868 0.84302 0.29117 0.0
H823 H 0.14746 0.88301 0.29534 0.0
H824 H 0.18791 0.75517 0.39002 0.0
H825 H 0.14936 0.74633 0.36261 0.0
H826 H 0.11911 0.76255 0.33057 0.0
H827 H 0.10803 0.79757 0.30464 0.0
Mn828 Mn 0.64302 0.72595 0.85837 0.0
Mn829 Mn 0.61489 0.67105 0.87917 0.0
C830 C 0.66751 0.69386 0.86644 0.0
C831 C 0.65567 0.75054 0.82481 0.0
C832 C 0.62604 0.71792 0.9123 0.0
O833 O 0.6056 0.72792 0.85075 0.0
O834 O 0.58818 0.69021 0.86398 0.0
C835 C 0.59904 0.64681 0.83026 0.0
N836 N 0.61274 0.64683 0.85199 0.0
C837 C 0.63039 0.60858 0.83931 0.0
C838 C 0.61632 0.60806 0.81689 0.0
C839 C 0.60058 0.62726 0.81236 0.0
C840 C 0.62786 0.62838 0.85659 0.0
H841 H 0.58712 0.66165 0.82656 0.0
C842 C 0.58644 0.71157 0.85401 0.0
O843 O 0.65207 0.76089 0.84671 0.0
O844 O 0.65145 0.72627 0.82256 0.0
N845 N 0.63898 0.65087 0.89366 0.0
C846 C 0.65237 0.65488 0.91557 0.0
C847 C 0.66959 0.63775 0.92255 0.0
C848 C 0.67287 0.61672 0.90694 0.0
C849 C 0.65881 0.61294 0.88452 0.0
C850 C 0.64172 0.6305 0.87867 0.0
H851 H 0.65014 0.67115 0.92752 0.0
O852 O 0.67804 0.71697 0.86613 0.0
O853 O 0.64288 0.69043 0.8619 0.0
O854 O 0.63628 0.73207 0.89539 0.0
O855 O 0.61725 0.69489 0.90827 0.0
C856 C 0.66144 0.5927 0.86754 0.0
C857 C 0.64723 0.59051 0.84496 0.0
H858 H 0.61764 0.59313 0.80292 0.0
H859 H 0.58977 0.62706 0.79503 0.0
H860 H 0.68045 0.64085 0.93983 0.0
H861 H 0.68637 0.60369 0.91226 0.0
H862 H 0.67454 0.57885 0.87154 0.0
H863 H 0.64962 0.57501 0.83193 0.0
H864 H 0.12316 0.5206 0.19315 0.0
H865 H 0.14584 0.55144 0.26667 0.0
H866 H 0.1297 0.4788 0.20682 0.0
H867 H 0.15206 0.50896 0.28031 0.0
H868 H 0.17756 0.41851 0.22409 0.0
H869 H 0.17663 0.46385 0.22237 0.0
H870 H 0.11919 0.46104 0.2808 0.0
H871 H 0.12009 0.41523 0.28265 0.0
C872 C 0.12923 0.51851 0.21231 0.0
C873 C 0.13424 0.53947 0.22872 0.0
C874 C 0.13308 0.49456 0.22006 0.0
C875 C 0.14174 0.49094 0.24443 0.0
C876 C 0.14552 0.51149 0.26138 0.0
C877 C 0.14197 0.53569 0.25352 0.0
C878 C 0.16543 0.42762 0.23723 0.0
C879 C 0.14861 0.41339 0.25322 0.0
C880 C 0.1649 0.45352 0.23622 0.0
C881 C 0.14751 0.46561 0.25114 0.0
C882 C 0.13275 0.45195 0.26916 0.0
C883 C 0.13334 0.42585 0.27026 0.0
H884 H 0.93155 0.62062 0.80045 0.0
H885 H 0.93247 0.66672 0.73507 0.0
H886 H 0.97661 0.61522 0.79409 0.0
H887 H 0.9783 0.66221 0.72931 0.0
H888 H 0.05149 0.62412 0.71094 0.0
H889 H 0.0063 0.63127 0.71676 0.0
H890 H 0.01812 0.63663 0.797 0.0
H891 H 0.06249 0.62823 0.79131 0.0
C892 C 0.94153 0.63007 0.78499 0.0
C893 C 0.92845 0.64414 0.76828 0.0
C894 C 0.96746 0.62702 0.78138 0.0
C895 C 0.9811 0.63832 0.76121 0.0
C896 C 0.96821 0.65293 0.7448 0.0
C897 C 0.94206 0.6557 0.74822 0.0
C898 C 0.0443 0.62667 0.7298 0.0
C899 C 0.06048 0.62538 0.75066 0.0
C900 C 0.01851 0.63101 0.73313 0.0
C901 C 0.00859 0.63447 0.75735 0.0
C902 C 0.02495 0.63352 0.77811 0.0
C903 C 0.05049 0.62877 0.77482 0.0
H904 H 0.834 0.45112 0.28775 0.0
H905 H 0.85389 0.47092 0.21158 0.0
H906 H 0.83168 0.49532 0.29873 0.0
H907 H 0.85215 0.51512 0.22281 0.0
H908 H 0.82708 0.59021 0.24356 0.0
H909 H 0.82196 0.54503 0.23491 0.0
H910 H 0.86155 0.53329 0.30402 0.0
H911 H 0.86621 0.57847 0.31302 0.0
C912 C 0.83795 0.46487 0.27334 0.0
C913 C 0.84428 0.45746 0.24878 0.0
C914 C 0.83666 0.4902 0.27969 0.0
C915 C 0.84169 0.50867 0.26165 0.0
C916 C 0.84776 0.50127 0.23705 0.0
C917 C 0.84899 0.47594 0.23066 0.0
C918 C 0.8344 0.57798 0.2571 0.0
C919 C 0.84737 0.58795 0.27883 0.0
C920 C 0.83157 0.55211 0.25205 0.0
C921 C 0.84173 0.53568 0.26857 0.0
C922 C 0.8534 0.54549 0.29099 0.0
C923 C 0.85612 0.57139 0.29612 0.0
H924 H 0.05992 0.33668 0.71687 0.0
H925 H 0.05534 0.38331 0.78402 0.0
H926 H 0.01573 0.34283 0.70652 0.0
H927 H 0.01098 0.3897 0.7733 0.0
H928 H 0.94699 0.37986 0.68067 0.0
H929 H 0.9917 0.37715 0.69274 0.0
H930 H 0.96801 0.36585 0.76953 0.0
H931 H 0.92344 0.36905 0.75772 0.0
C932 C 0.04951 0.34823 0.72948 0.0
C933 C 0.06127 0.35958 0.75127 0.0
C934 C 0.02422 0.35193 0.72338 0.0
C935 C 0.01004 0.36704 0.7389 0.0
C936 C 0.02147 0.37791 0.76102 0.0
C937 C 0.04686 0.37423 0.76715 0.0
C938 C 0.95132 0.37711 0.70018 0.0
C939 C 0.93157 0.37447 0.71816 0.0
C940 C 0.97691 0.37537 0.70705 0.0
C941 C 0.98327 0.37101 0.73203 0.0
C942 C 0.96371 0.36936 0.75017 0.0
C943 C 0.93813 0.37105 0.74332 0.0
H944 H 0.12624 0.41366 0.70219 0.0
H945 H 0.17534 0.44302 0.76366 0.0
H946 H 0.12438 0.4566 0.68762 0.0
H947 H 0.17427 0.48563 0.74849 0.0
H948 H 0.17622 0.55817 0.70605 0.0
H949 H 0.18323 0.51346 0.70246 0.0
H950 H 0.10366 0.49287 0.72241 0.0
H951 H 0.09701 0.53747 0.72707 0.0
C952 C 0.1374 0.42918 0.71199 0.0
C953 C 0.15085 0.42519 0.7341 0.0
C954 C 0.13632 0.45361 0.70365 0.0
C955 C 0.14937 0.47414 0.71687 0.0
C956 C 0.16439 0.46994 0.73785 0.0
C957 C 0.16486 0.44565 0.7466 0.0
C958 C 0.16003 0.544 0.70858 0.0
C959 C 0.13606 0.55095 0.71666 0.0
C960 C 0.16405 0.51857 0.70661 0.0
C961 C 0.14391 0.49999 0.71202 0.0
C962 C 0.11931 0.50698 0.7178 0.0
C963 C 0.1155 0.53237 0.72048 0.0
H964 H 0.93357 0.66024 0.22472 0.0
H965 H 0.95392 0.64182 0.30007 0.0
H966 H 0.97604 0.65091 0.21012 0.0
H967 H -0.00414 0.63197 0.28533 0.0
H968 H 0.07762 0.64338 0.25714 0.0
H969 H 0.03532 0.65372 0.2699 0.0
H970 H 0.00172 0.61508 0.20367 0.0
H971 H 0.04452 0.6051 0.19036 0.0
C972 C 0.94705 0.65424 0.23818 0.0
C973 C 0.94032 0.65188 0.26361 0.0
C974 C 0.97129 0.64869 0.22974 0.0
C975 C 0.98928 0.64072 0.24656 0.0
C976 C 0.98257 0.63843 0.27196 0.0
C977 C 0.95843 0.644 0.28039 0.0
C978 C 0.0613 0.63696 0.24521 0.0
C979 C 0.0645 0.62319 0.22277 0.0
C980 C 0.03698 0.64285 0.25264 0.0
C981 C 0.01515 0.63504 0.23792 0.0
C982 C 0.01825 0.62152 0.21531 0.0
C983 C 0.04272 0.61566 0.20778 0.0
H984 H 0.84739 0.55312 0.78807 0.0
H985 H 0.83986 0.57739 0.71199 0.0
H986 H 0.84567 0.50985 0.77297 0.0
H987 H 0.83749 0.5336 0.69694 0.0
H988 H 0.87006 0.45572 0.68196 0.0
H989 H 0.86633 0.49989 0.69315 0.0
H990 H 0.81589 0.47687 0.75453 0.0
H991 H 0.82016 0.43303 0.74388 0.0
C992 C 0.84511 0.54925 0.76812 0.0
C993 C 0.84386 0.5688 0.75125 0.0
C994 C 0.84391 0.52435 0.75948 0.0
C995 C 0.8413 0.51832 0.73377 0.0
C996 C 0.8397 0.53775 0.71684 0.0
C997 C 0.84093 0.56278 0.7255 0.0
C998 C 0.85799 0.46016 0.69767 0.0
C999 C 0.84583 0.44098 0.71235 0.0
C1000 C 0.85574 0.48541 0.70399 0.0
C1001 C 0.84113 0.4918 0.72494 0.0
C1002 C 0.8278 0.47253 0.73866 0.0
C1003 C 0.83023 0.44742 0.73252 0.0
H1004 H 0.92745 0.37733 0.19451 0.0
H1005 H 0.92772 0.38686 0.27523 0.0
H1006 H 0.97209 0.36809 0.19568 0.0
H1007 H 0.97276 0.37853 0.2763 0.0
H1008 H 0.04225 0.33314 0.2717 0.0
H1009 H -0.00204 0.34396 0.27057 0.0
H1010 H 0.01512 0.38561 0.20325 0.0
H1011 H 0.05895 0.37404 0.20384 0.0
C1012 C 0.93716 0.37792 0.21248 0.0
C1013 C 0.92394 0.38272 0.23479 0.0
C1014 C 0.96284 0.37268 0.21315 0.0
C1015 C 0.97601 0.37239 0.23611 0.0
C1016 C 0.96304 0.37806 0.25834 0.0
C1017 C 0.93727 0.38306 0.2577 0.0
C1018 C 0.03652 0.34452 0.25662 0.0
C1019 C 0.0541 0.35259 0.2378 0.0
C1020 C 0.01119 0.35091 0.25608 0.0
C1021 C 0.00297 0.36573 0.23685 0.0
C1022 C 0.02063 0.37384 0.2181 0.0
C1023 C 0.04583 0.36724 0.21849 0.0
H1024 H 0.23197 0.16749 0.57385 0.0
H1025 H 0.30624 0.1398 0.56186 0.0
H1026 H 0.22781 0.17312 0.529 0.0
H1027 H 0.30169 0.14458 0.51702 0.0
H1028 H 0.21487 0.14 0.44792 0.0
H1029 H 0.21968 0.14571 0.49313 0.0
H1030 H 0.30017 0.17289 0.48355 0.0
H1031 H 0.29555 0.16621 0.43843 0.0
C1032 C 0.24743 0.16265 0.56164 0.0
C1033 C 0.26932 0.15292 0.57133 0.0
C1034 C 0.24501 0.16583 0.53595 0.0
C1035 C 0.26431 0.15914 0.51942 0.0
C1036 C 0.28662 0.15028 0.52925 0.0
C1037 C 0.28917 0.14735 0.55496 0.0
C1038 C 0.23344 0.14763 0.45547 0.0
C1039 C 0.25493 0.15224 0.43976 0.0
C1040 C 0.23621 0.15102 0.48138 0.0
C1041 C 0.26043 0.15941 0.49196 0.0
C1042 C 0.28143 0.16579 0.47602 0.0
C1043 C 0.27875 0.16208 0.45019 0.0
H1044 H 0.39672 0.71699 0.914 0.0
H1045 H 0.3399 0.77029 0.91892 0.0
H1046 H 0.39945 0.71696 0.95941 0.0
H1047 H 0.34182 0.76953 0.96472 0.0
H1048 H 0.36383 0.77209 0.04847 0.0
H1049 H 0.36661 0.7787 0.00331 0.0
H1050 H 0.37094 0.69903 0.99038 0.0
H1051 H 0.369 0.69255 0.03494 0.0
C1052 C 0.38486 0.72878 0.92486 0.0
C1053 C 0.36784 0.74338 0.91298 0.0
C1054 C 0.38632 0.72868 0.95089 0.0
C1055 C 0.37043 0.7428 0.96572 0.0
C1056 C 0.35438 0.75849 0.95384 0.0
C1057 C 0.35321 0.75888 0.92764 0.0
C1058 C 0.36553 0.75605 0.03594 0.0
C1059 C 0.36635 0.73182 0.0454 0.0
C1060 C 0.36701 0.75983 0.01008 0.0
C1061 C 0.36928 0.73945 0.99324 0.0
C1062 C 0.36989 0.71528 0.00279 0.0
C1063 C 0.36859 0.71154 0.02846 0.0
H1064 H 0.70385 0.85145 0.43746 0.0
H1065 H 0.78453 0.88016 0.44203 0.0
H1066 H 0.703 0.84581 0.48242 0.0
H1067 H 0.7834 0.87545 0.48732 0.0
H1068 H 0.77811 0.84241 0.56524 0.0
H1069 H 0.7799 0.84515 0.51973 0.0
H1070 H 0.70389 0.87088 0.51976 0.0
H1071 H 0.7017 0.86725 0.56489 0.0
C1072 C 0.72136 0.85677 0.44811 0.0
C1073 C 0.74422 0.8664 0.43623 0.0
C1074 C 0.72085 0.85363 0.47392 0.0
C1075 C 0.74307 0.86037 0.4885 0.0
C1076 C 0.76603 0.86977 0.47659 0.0
C1077 C 0.76663 0.87263 0.45067 0.0
C1078 C 0.76177 0.84857 0.55547 0.0
C1079 C 0.73973 0.85452 0.56864 0.0
C1080 C 0.76285 0.85027 0.52943 0.0
C1081 C 0.74202 0.85818 0.5161 0.0
C1082 C 0.72006 0.86422 0.52936 0.0
C1083 C 0.71887 0.86226 0.55529 0.0
H1084 H 0.64899 0.2207 0.06476 0.0
H1085 H 0.60402 0.28419 0.06165 0.0
H1086 H 0.65302 0.22065 0.01887 0.0
H1087 H 0.60789 0.28389 0.0165 0.0
H1088 H 0.64754 0.3004 0.94428 0.0
H1089 H 0.64583 0.29504 0.98916 0.0
H1090 H 0.6261 0.21502 0.97771 0.0
H1091 H 0.62812 0.22025 0.93219 0.0
C1092 C 0.63974 0.23439 0.05435 0.0
C1093 C 0.62656 0.25271 0.06692 0.0
C1094 C 0.64203 0.23433 0.02814 0.0
C1095 C 0.63122 0.2526 0.01424 0.0
C1096 C 0.617 0.26999 0.02678 0.0
C1097 C 0.61474 0.27009 0.05272 0.0
C1098 C 0.643 0.28158 0.95115 0.0
C1099 C 0.63756 0.26081 0.93456 0.0
C1100 C 0.64197 0.27854 0.97694 0.0
C1101 C 0.63534 0.25469 0.98689 0.0
C1102 C 0.63122 0.23362 0.97048 0.0
C1103 C 0.63231 0.23666 0.94447 0.0
H1104 H 0.24616 0.80809 0.42126 0.0
H1105 H 0.2827 0.8839 0.41483 0.0
H1106 H 0.25411 0.81025 0.46633 0.0
H1107 H 0.29027 0.88632 0.46024 0.0
H1108 H 0.23675 0.8872 0.5343 0.0
H1109 H 0.24986 0.88547 0.4905 0.0
H1110 H 0.28769 0.81894 0.50398 0.0
H1111 H 0.27503 0.82106 0.54831 0.0
C1112 C 0.25668 0.82488 0.42945 0.0
C1113 C 0.26368 0.8459 0.41482 0.0
C1114 C 0.2614 0.82607 0.45517 0.0
C1115 C 0.27263 0.84851 0.46667 0.0
C1116 C 0.2816 0.86882 0.4517 0.0
C1117 C 0.27736 0.86742 0.42582 0.0
C1118 C 0.2483 0.8725 0.52802 0.0
C1119 C 0.25467 0.8541 0.54448 0.0
C1120 C 0.25607 0.87169 0.50307 0.0
C1121 C 0.26991 0.85216 0.494 0.0
C1122 C 0.2772 0.83428 0.51067 0.0
C1123 C 0.26992 0.83545 0.53589 0.0
H1124 H 0.66041 0.73019 0.06765 0.0
H1125 H 0.63244 0.80246 0.05595 0.0
H1126 H 0.65304 0.71882 0.02379 0.0
H1127 H 0.62486 0.79075 0.01173 0.0
H1128 H 0.64367 0.76554 0.9291 0.0
H1129 H 0.64898 0.78058 0.97248 0.0
H1130 H 0.61377 0.70886 -0.00241 0.0
H1131 H 0.60877 0.69355 0.95438 0.0
C1132 C 0.65276 0.74372 0.05572 0.0
C1133 C 0.64673 0.76715 0.06538 0.0
C1134 C 0.64837 0.73709 0.03062 0.0
C1135 C 0.63788 0.7537 0.01456 0.0
C1136 C 0.63289 0.77758 0.02382 0.0
C1137 C 0.63727 0.78427 0.04908 0.0
C1138 C 0.63678 0.75304 0.94384 0.0
C1139 C 0.62612 0.72819 0.93826 0.0
C1140 C 0.63974 0.76173 0.96866 0.0
C1141 C 0.63214 0.74573 0.9883 0.0
C1142 C 0.62027 0.72139 0.98273 0.0
C1143 C 0.61727 0.71269 0.95797 0.0
H1144 H 0.76058 0.09388 0.55837 0.0
H1145 H 0.71 0.1526 0.56698 0.0
H1146 H 0.75969 0.09787 0.51308 0.0
H1147 H 0.70952 0.157 0.52134 0.0
H1148 H 0.71051 0.14677 0.4329 0.0
H1149 H 0.70049 0.13671 0.47669 0.0
H1150 H 0.78176 0.13543 0.49174 0.0
H1151 H 0.79182 0.1453 0.44873 0.0
C1152 C 0.7487 0.10717 0.55047 0.0
C1153 C 0.73562 0.12314 0.56609 0.0
C1154 C 0.74829 0.10955 0.52459 0.0
C1155 C 0.73506 0.12818 0.51381 0.0
C1156 C 0.71989 0.14252 0.52921 0.0
C1157 C 0.72012 0.13996 0.55527 0.0
C1158 C 0.72621 0.14441 0.44562 0.0
C1159 C 0.75196 0.14663 0.43716 0.0
C1160 C 0.72043 0.13865 0.47062 0.0
C1161 C 0.74031 0.13476 0.4874 0.0
C1162 C 0.76598 0.13763 0.47905 0.0
C1163 C 0.77174 0.1435 0.45434 0.0
H1164 H 0.33929 0.24401 0.08502 0.0
H1165 H 0.31461 0.16917 0.0557 0.0
H1166 H 0.33878 0.26031 0.04319 0.0
H1167 H 0.31245 0.18573 0.01371 0.0
H1168 H 0.34432 0.2166 0.94032 0.0
H1169 H 0.34026 0.20036 0.98218 0.0
H1170 H 0.31494 0.27088 0.00919 0.0
H1171 H 0.32072 0.28766 0.96731 0.0
C1172 C 0.33319 0.23112 0.06961 0.0
C1173 C 0.32713 0.20529 0.07353 0.0
C1174 C 0.33271 0.24052 0.04558 0.0
C1175 C 0.32563 0.22439 0.02494 0.0
C1176 C 0.31858 0.19863 0.02906 0.0
C1177 C 0.31964 0.18912 0.0531 0.0
C1178 C 0.33782 0.22862 0.95521 0.0
C1179 C 0.33286 0.25341 0.9506 0.0
C1180 C 0.33523 0.21921 0.97922 0.0
C1181 C 0.3271 0.23419 -0.00084 0.0
C1182 C 0.32167 0.25891 0.9944 0.0
C1183 C 0.32484 0.26854 0.9704 0.0
H1184 H 0.55241 0.20117 0.15425 0.0
H1185 H 0.53852 0.2777 0.1389 0.0
H1186 H 0.50616 0.18869 0.15377 0.0
H1187 H 0.49227 0.26499 0.13783 0.0
H1188 H 0.41008 0.23755 0.16191 0.0
H1189 H 0.45618 0.25068 0.16435 0.0
H1190 H 0.47158 0.18304 0.12321 0.0
H1191 H 0.42556 0.16952 0.12128 0.0
C1192 C 0.53953 0.21535 0.15075 0.0
C1193 C 0.54921 0.24043 0.14649 0.0
C1194 C 0.51301 0.20814 0.15033 0.0
C1195 C 0.49559 0.2258 0.14554 0.0
C1196 C 0.5052 0.25098 0.1418 0.0
C1197 C 0.53174 0.25824 0.14232 0.0
C1198 C 0.42326 0.22547 0.15331 0.0
C1199 C 0.41408 0.20245 0.14141 0.0
C1200 C 0.44969 0.23307 0.15464 0.0
C1201 C 0.46751 0.21786 0.14405 0.0
C1202 C 0.45834 0.19498 0.13193 0.0
C1203 C 0.43193 0.18733 0.13067 0.0
H1204 H 0.54166 0.68016 0.85021 0.0
H1205 H 0.57346 0.75721 0.83926 0.0
H1206 H 0.49932 0.69096 0.83799 0.0
H1207 H 0.53099 0.76782 0.82678 0.0
H1208 H 0.44258 0.77539 0.84778 0.0
H1209 H 0.48874 0.77054 0.84933 0.0
H1210 H 0.47633 0.70441 0.80061 0.0
H1211 H 0.43038 0.70899 0.79942 0.0
C1212 C 0.53967 0.69934 0.84507 0.0
C1213 C 0.56089 0.71782 0.84585 0.0
C1214 C 0.51549 0.70547 0.83781 0.0
C1215 C 0.51201 0.7302 0.83126 0.0
C1216 C 0.53321 0.74865 0.83177 0.0
C1217 C 0.55748 0.7425 0.83888 0.0
C1218 C 0.44992 0.76038 0.83674 0.0
C1219 C 0.433 0.74227 0.82391 0.0
C1220 C 0.47628 0.75757 0.83764 0.0
C1221 C 0.48586 0.73672 0.82557 0.0
C1222 C 0.46927 0.72027 0.81056 0.0
C1223 C 0.44304 0.72297 0.8098 0.0
H1224 H 0.79473 0.94992 0.3474 0.0
H1225 H 0.71662 0.95474 0.37342 0.0
H1226 H 0.80027 -0.00458 0.34256 0.0
H1227 H 0.72244 4e-05 0.36915 0.0
H1228 H 0.72998 0.07641 0.33683 0.0
H1229 H 0.72697 0.03065 0.33638 0.0
H1230 H 0.80361 0.03415 0.36812 0.0
H1231 H 0.80698 0.0799 0.368 0.0
C1232 C 0.77884 0.96067 0.35231 0.0
C1233 C 0.75522 0.94868 0.36077 0.0
C1234 C 0.78204 0.98671 0.34954 0.0
C1235 C 0.7617 0.00123 0.35522 0.0
C1236 C 0.73827 0.98928 0.36406 0.0
C1237 C 0.73504 0.96331 0.36674 0.0
C1238 C 0.74632 0.06744 0.34345 0.0
C1239 C 0.76859 0.08179 0.35276 0.0
C1240 C 0.74453 0.04123 0.34331 0.0
C1241 C 0.76488 0.02886 0.35261 0.0
C1242 C 0.78765 0.04316 0.36073 0.0
C1243 C 0.78952 0.06939 0.36073 0.0
H1244 H 0.42992 0.30839 0.89794 0.0
H1245 H 0.41617 0.23605 0.85913 0.0
H1246 H 0.47631 0.30672 0.89351 0.0
H1247 H 0.46229 0.23484 0.85399 0.0
H1248 H 0.54751 0.22949 0.8701 0.0
H1249 H 0.50115 0.23016 0.87604 0.0
H1250 H 0.50871 0.30984 0.86171 0.0
H1251 H 0.55501 0.30933 0.85661 0.0
C1252 C 0.43676 0.29217 0.88846 0.0
C1253 C 0.4193 0.27237 0.87895 0.0
C1254 C 0.46334 0.29128 0.88576 0.0
C1255 C 0.47303 0.27068 0.87329 0.0
C1256 C 0.45555 0.2508 0.86401 0.0
C1257 C 0.42903 0.25158 0.86689 0.0
C1258 C 0.53922 0.24709 0.86806 0.0
C1259 C 0.55494 0.26936 0.86299 0.0
C1260 C 0.51265 0.24749 0.87143 0.0
C1261 C 0.50122 0.27011 0.86955 0.0
C1262 C 0.51693 0.29222 0.86388 0.0
C1263 C 0.54347 0.29187 0.86075 0.0
H1264 H 0.24833 0.93771 0.32249 0.0
H1265 H 0.21003 0.92075 0.3928 0.0
H1266 H 0.24477 0.98264 0.3305 0.0
H1267 H 0.20723 0.96576 0.40099 0.0
H1268 H 0.25613 0.05137 0.40777 0.0
H1269 H 0.25108 0.00534 0.40316 0.0
H1270 H 0.19943 0.00993 0.34074 0.0
H1271 H 0.20376 0.05594 0.34576 0.0
C1272 C 0.23923 0.9436 0.33962 0.0
C1273 C 0.22946 0.92584 0.35703 0.0
C1274 C 0.23704 0.96917 0.34408 0.0
C1275 C 0.22557 0.97733 0.36623 0.0
C1276 C 0.21597 0.95969 0.38373 0.0
C1277 C 0.21759 0.93408 0.37901 0.0
C1278 C 0.24307 0.04247 0.3936 0.0
C1279 C 0.23022 0.05707 0.3772 0.0
C1280 C 0.24024 0.01626 0.39096 0.0
C1281 C 0.22502 0.00441 0.37153 0.0
C1282 C 0.21124 0.01886 0.35585 0.0
C1283 C 0.21355 0.04505 0.35887 0.0
H1284 H 0.57267 0.72598 0.15597 0.0
H1285 H 0.56229 0.80133 0.13312 0.0
H1286 H 0.52593 0.71551 0.15603 0.0
H1287 H 0.51597 0.79063 0.13242 0.0
H1288 H 0.43256 0.77169 0.15078 0.0
H1289 H 0.47876 0.78111 0.15787 0.0
H1290 H 0.49156 0.70824 0.12583 0.0
H1291 H 0.44535 0.69847 0.1195 0.0
C1292 C 0.56048 0.74031 0.151 0.0
C1293 C 0.57129 0.76445 0.14443 0.0
C1294 C 0.5337 0.73427 0.15092 0.0
C1295 C 0.51721 0.75221 0.14418 0.0
C1296 C 0.52804 0.77646 0.13811 0.0
C1297 C 0.55471 0.78254 0.13832 0.0
C1298 C 0.44521 0.75762 0.14538 0.0
C1299 C 0.43527 0.73442 0.13436 0.0
C1300 C 0.47171 0.76304 0.14938 0.0
C1301 C 0.48889 0.74551 0.14224 0.0
C1302 C 0.47887 0.72205 0.13185 0.0
C1303 C 0.45235 0.71653 0.12804 0.0
H1304 H 0.70207 0.93122 0.64306 0.0
H1305 H 0.78206 0.93028 0.66448 0.0
H1306 H 0.70668 0.97669 0.64687 0.0
H1307 H 0.78641 0.9761 0.66911 0.0
H1308 H 0.79102 0.05651 0.63805 0.0
H1309 H 0.78799 0.01119 0.64196 0.0
H1310 H 0.71242 0.01203 0.67539 0.0
H1311 H 0.71503 0.05745 0.67065 0.0
C1312 C 0.7206 0.94068 0.6489 0.0
C1313 C 0.74178 0.92707 0.65325 0.0
C1314 C 0.72316 0.96683 0.65133 0.0
C1315 C 0.74689 0.98005 0.65837 0.0
C1316 C 0.76794 0.96646 0.66335 0.0
C1317 C 0.76544 0.94021 0.66074 0.0
C1318 C 0.77383 0.04712 0.64648 0.0
C1319 C 0.75308 0.06057 0.65369 0.0
C1320 C 0.7722 0.0211 0.6489 0.0
C1321 C 0.74988 0.00796 0.65879 0.0
C1322 C 0.72967 0.02157 0.66721 0.0
C1323 C 0.7312 0.0476 0.66458 0.0
H1324 H 0.30084 0.05635 0.64408 0.0
H1325 H 0.22168 0.06312 0.62355 0.0
H1326 H 0.29277 0.01092 0.64038 0.0
H1327 H 0.21398 0.0176 0.61801 0.0
H1328 H 0.20045 0.93465 0.63436 0.0
H1329 H 0.20828 0.98021 0.63935 0.0
H1330 H 0.28631 0.9773 0.6122 0.0
H1331 H 0.27882 0.93164 0.6089 0.0
C1332 C 0.28174 0.04812 0.63853 0.0
C1333 C 0.26182 0.06331 0.63435 0.0
C1334 C 0.27716 0.022 0.63613 0.0
C1335 C 0.25271 0.01044 0.62883 0.0
C1336 C 0.23289 0.02573 0.6242 0.0
C1337 C 0.23733 0.05186 0.6272 0.0
C1338 C 0.21928 0.94383 0.62959 0.0
C1339 C 0.23909 0.92971 0.6214 0.0
C1340 C 0.22375 0.96998 0.63223 0.0
C1341 C 0.24794 0.98258 0.62615 0.0
C1342 C 0.26763 0.9683 0.61762 0.0
C1343 C 0.26333 0.94213 0.61558 0.0
H1344 H 0.13236 0.3093 0.34571 0.0
H1345 H 0.09915 0.25411 0.29111 0.0
H1346 H 0.14566 0.27552 0.37109 0.0
H1347 H 0.11264 0.22053 0.31613 0.0
H1348 H 0.14257 0.16233 0.36215 0.0
H1349 H 0.11481 0.19555 0.35401 0.0
H1350 H 0.18133 0.25105 0.35893 0.0
H1351 H 0.20875 0.21817 0.36711 0.0
C1352 C 0.12697 0.28995 0.33963 0.0
C1353 C 0.11522 0.28433 0.31619 0.0
C1354 C 0.13477 0.2706 0.35405 0.0
C1355 C 0.13076 0.24538 0.34531 0.0
C1356 C 0.11607 0.2397 0.32344 0.0
C1357 C 0.10843 0.25901 0.309 0.0
C1358 C 0.15108 0.18172 0.36204 0.0
C1359 C 0.17787 0.18764 0.36485 0.0
C1360 C 0.13521 0.20071 0.35737 0.0
C1361 C 0.14585 0.22594 0.35575 0.0
C1362 C 0.17238 0.23191 0.36037 0.0
C1363 C 0.1882 0.21299 0.36477 0.0
H1364 H 0.31718 0.713 0.78624 0.0
H1365 H 0.27347 0.71918 0.8544 0.0
H1366 H 0.28188 0.68539 0.76747 0.0
H1367 H 0.23786 0.69082 0.83583 0.0
H1368 H 0.17151 0.67303 0.77711 0.0
H1369 H 0.2069 0.69428 0.80191 0.0
H1370 H 0.25842 0.64364 0.76981 0.0
H1371 H 0.22263 0.6224 0.74488 0.0
C1372 C 0.30002 0.70801 0.79728 0.0
C1373 C 0.29799 0.71755 0.82182 0.0
C1374 C 0.27992 0.6921 0.78665 0.0
C1375 C 0.2573 0.68564 0.80033 0.0
C1376 C 0.25515 0.6955 0.82491 0.0
C1377 C 0.27535 0.71164 0.83551 0.0
C1378 C 0.19031 0.66609 0.77593 0.0
C1379 C 0.19447 0.64582 0.75974 0.0
C1380 C 0.21051 0.67818 0.79014 0.0
C1381 C 0.23536 0.67047 0.78798 0.0
C1382 C 0.23942 0.64991 0.77189 0.0
C1383 C 0.2191 0.63779 0.75766 0.0
H1384 H 0.90097 0.742 0.29313 0.0
H1385 H 0.82846 0.70567 0.31918 0.0
H1386 H 0.89539 0.77898 0.32015 0.0
H1387 H 0.82211 0.74238 0.3452 0.0
H1388 H 0.80978 0.80411 0.39244 0.0
H1389 H 0.8334 0.76869 0.38 0.0
H1390 H 0.86897 0.81226 0.31969 0.0
H1391 H 0.84681 0.84809 0.33355 0.0
C1392 C 0.88404 0.74192 0.30496 0.0
C1393 C 0.86544 0.72098 0.30478 0.0
C1394 C 0.88077 0.76301 0.32033 0.0
C1395 C 0.85844 0.76367 0.33515 0.0
C1396 C 0.83997 0.74242 0.3348 0.0
C1397 C 0.84343 0.72138 0.31973 0.0
C1398 C 0.8237 0.80639 0.37735 0.0
C1399 C 0.82645 0.82855 0.36376 0.0
C1400 C 0.83696 0.78605 0.36998 0.0
C1401 C 0.85226 0.78725 0.3482 0.0
C1402 C 0.85733 0.81054 0.33649 0.0
C1403 C 0.84464 0.83116 0.3444 0.0
H1404 H 0.81985 0.32625 0.79572 0.0
H1405 H 0.76829 0.37206 0.75954 0.0
H1406 H 0.78423 0.30692 0.82036 0.0
H1407 H 0.73288 0.35466 0.78576 0.0
H1408 H 0.66981 0.29369 0.80446 0.0
H1409 H 0.70642 0.31804 0.78574 0.0
H1410 H 0.75306 0.3055 0.85049 0.0
H1411 H 0.71646 0.27927 0.86799 0.0
C1412 C 0.80098 0.33284 0.79383 0.0
C1413 C 0.79656 0.35034 0.77569 0.0
C1414 C 0.7805 0.32185 0.80802 0.0
C1415 C 0.75535 0.32873 0.80475 0.0
C1416 C 0.75167 0.34808 0.78813 0.0
C1417 C 0.77197 0.35837 0.77334 0.0
C1418 C 0.68794 0.29633 0.81461 0.0
C1419 C 0.6904 0.28531 0.83781 0.0
C1420 C 0.70894 0.31052 0.80408 0.0
C1421 C 0.73282 0.31429 0.81672 0.0
C1422 C 0.73516 0.3029 0.84001 0.0
C1423 C 0.71423 0.28807 0.8502 0.0
H1424 H 0.21629 0.77105 0.6049 0.0
H1425 H 0.17981 0.81992 0.65619 0.0
H1426 H 0.18669 0.73542 0.6178 0.0
H1427 H 0.14805 0.78536 0.66695 0.0
H1428 H 0.13436 0.71512 0.71373 0.0
H1429 H 0.14939 0.75281 0.6925 0.0
H1430 H 0.14773 0.71078 0.62183 0.0
H1431 H 0.1342 0.67216 0.64394 0.0
C1432 C 0.20117 0.77425 0.61821 0.0
C1433 C 0.19974 0.79823 0.62906 0.0
C1434 C 0.18392 0.75392 0.62541 0.0
C1435 C 0.16487 0.75726 0.64364 0.0
C1436 C 0.16274 0.78175 0.65335 0.0
C1437 C 0.18055 0.80178 0.64678 0.0
C1438 C 0.1367 0.71389 0.69358 0.0
C1439 C 0.13373 0.69055 0.68062 0.0
C1440 C 0.14513 0.73576 0.68119 0.0
C1441 C 0.15035 0.73503 0.65532 0.0
C1442 C 0.1447 0.712 0.64187 0.0
C1443 C 0.13663 0.68989 0.65446 0.0
H1444 H 0.7329 0.72906 0.12906 0.0
H1445 H 0.67572 0.6767 0.16366 0.0
H1446 H 0.76709 0.70685 0.14583 0.0
H1447 H 0.71015 0.65405 0.18034 0.0
H1448 H 0.77461 0.66541 0.2428 0.0
H1449 H 0.73899 0.67034 0.21475 0.0
H1450 H 0.79067 0.6701 0.15136 0.0
H1451 H 0.82666 0.66546 0.17971 0.0
C1452 C 0.72764 0.7122 0.13952 0.0
C1453 C 0.70173 0.70487 0.14552 0.0
C1454 C 0.74727 0.69934 0.14902 0.0
C1455 C 0.74135 0.67898 0.16484 0.0
C1456 C 0.71527 0.66996 0.16853 0.0
C1457 C 0.69556 0.68279 0.15884 0.0
C1458 C 0.77836 0.66603 0.22285 0.0
C1459 C 0.80351 0.66554 0.21349 0.0
C1460 C 0.75783 0.66851 0.2067 0.0
C1461 C 0.76199 0.67065 0.18079 0.0
C1462 C 0.78692 0.66867 0.17125 0.0
C1463 C 0.8075 0.66606 0.18747 0.0
H1464 H 0.7898 0.18428 0.67957 0.0
H1465 H 0.75821 0.21099 0.61192 0.0
H1466 H 0.81728 0.22376 0.68505 0.0
H1467 H 0.78625 0.25076 0.61693 0.0
H1468 H 0.8067 0.32571 0.66623 0.0
H1469 H 0.78753 0.28651 0.64654 0.0
H1470 H 0.85387 0.24987 0.66849 0.0
H1471 H 0.87272 0.2892 0.68854 0.0
C1472 C 0.78931 0.19853 0.66557 0.0
C1473 C 0.77267 0.19459 0.64498 0.0
C1474 C 0.80511 0.22105 0.66856 0.0
C1475 C 0.80434 0.2402 0.65111 0.0
C1476 C 0.78738 0.23627 0.63055 0.0
C1477 C 0.77141 0.21366 0.62767 0.0
C1478 C 0.81765 0.30953 0.66576 0.0
C1479 C 0.84123 0.31032 0.67852 0.0
C1480 C 0.80668 0.28706 0.65454 0.0
C1481 C 0.81902 0.26501 0.65632 0.0
C1482 C 0.84375 0.26648 0.66717 0.0
C1483 C 0.85461 0.28893 0.67851 0.0
H1484 H 0.15572 0.28515 0.21009 0.0
H1485 H 0.21367 0.33834 0.24502 0.0
H1486 H 0.18908 0.26517 0.18758 0.0
H1487 H 0.2476 0.3173 0.22389 0.0
H1488 H 0.30243 0.28348 0.16874 0.0
H1489 H 0.2685 0.30799 0.18512 0.0
H1490 H 0.21994 0.23876 0.19785 0.0
H1491 H 0.25282 0.2148 0.18057 0.0
C1492 C 0.17571 0.29272 0.2126 0.0
C1493 C 0.18226 0.31376 0.22838 0.0
C1494 C 0.19488 0.28105 0.20009 0.0
C1495 C 0.2211 0.28958 0.20395 0.0
C1496 C 0.22762 0.31057 0.22007 0.0
C1497 C 0.2083 0.32246 0.23234 0.0
C1498 C 0.28433 0.27368 0.17482 0.0
C1499 C 0.2802 0.24729 0.17326 0.0
C1500 C 0.26499 0.28764 0.18432 0.0
C1501 C 0.24141 0.27536 0.19267 0.0
C1502 C 0.2375 0.24896 0.19101 0.0
C1503 C 0.25652 0.23515 0.18124 0.0
H1504 H 0.36223 0.15876 0.21689 0.0
H1505 H 0.28987 0.13891 0.1785 0.0
H1506 H 0.34408 0.13963 0.25471 0.0
H1507 H 0.27152 0.11994 0.21638 0.0
H1508 H 0.24386 0.09407 0.29371 0.0
H1509 H 0.26921 0.09257 0.25484 0.0
H1510 H 0.31124 0.16403 0.2763 0.0
H1511 H 0.28595 0.16538 0.31461 0.0
C1512 C 0.34292 0.14897 0.2162 0.0
C1513 C 0.32735 0.15027 0.19502 0.0
C1514 C 0.33248 0.13816 0.23785 0.0
C1515 C 0.30622 0.12899 0.23863 0.0
C1516 C 0.29181 0.12693 0.21631 0.0
C1517 C 0.30234 0.13767 0.19456 0.0
C1518 C 0.25882 0.10918 0.29003 0.0
C1519 C 0.26382 0.12941 0.30727 0.0
C1520 C 0.2733 0.10827 0.268 0.0
C1521 C 0.29269 0.12777 0.26295 0.0
C1522 C 0.29711 0.14825 0.28011 0.0
C1523 C 0.28262 0.14915 0.30195 0.0
H1524 H 0.31691 0.82426 0.80841 0.0
H1525 H 0.38773 0.81311 0.76999 0.0
H1526 H 0.30219 0.84582 0.7727 0.0
H1527 H 0.37447 0.83697 0.73481 0.0
H1528 H 0.32441 0.83416 0.66397 0.0
H1529 H 0.34792 0.82775 0.70192 0.0
H1530 H 0.29898 0.87489 0.74353 0.0
H1531 H 0.27406 0.87914 0.70557 0.0
C1532 C 0.32991 0.82774 0.79272 0.0
C1533 C 0.35337 0.81717 0.79179 0.0
C1534 C 0.32153 0.84019 0.77208 0.0
C1535 C 0.33677 0.84278 0.75024 0.0
C1536 C 0.36165 0.83456 0.75072 0.0
C1537 C 0.36958 0.82132 0.77105 0.0
C1538 C 0.31898 0.84342 0.68121 0.0
C1539 C 0.29723 0.85677 0.682 0.0
C1540 C 0.33265 0.83998 0.70312 0.0
C1541 C 0.32532 0.85047 0.72628 0.0
C1542 C 0.30479 0.86572 0.72642 0.0
C1543 C 0.29059 0.86842 0.70462 0.0
H1544 H 0.74431 0.8881 0.28165 0.0
H1545 H 0.71762 0.8199 0.31928 0.0
H1546 H 0.71949 0.87278 0.24417 0.0
H1547 H 0.69319 0.80435 0.28209 0.0
H1548 H 0.63676 0.78909 0.22036 0.0
H1549 H 0.65583 0.81258 0.25684 0.0
H1550 H 0.72263 0.83809 0.21268 0.0
H1551 H 0.70346 0.81436 0.17633 0.0
C1552 C 0.73289 0.86995 0.28184 0.0
C1553 C 0.73193 0.85543 0.30332 0.0
C1554 C 0.71882 0.8612 0.26054 0.0
C1555 C 0.70412 0.83759 0.26043 0.0
C1556 C 0.70375 0.82292 0.28189 0.0
C1557 C 0.71771 0.83172 0.30311 0.0
C1558 C 0.65517 0.80036 0.21844 0.0
C1559 C 0.66842 0.8007 0.19562 0.0
C1560 C 0.6661 0.81371 0.23922 0.0
C1561 C 0.69066 0.8272 0.23755 0.0
C1562 C 0.70349 0.82821 0.21439 0.0
C1563 C 0.69255 0.81476 0.19361 0.0
H1564 H 0.64683 0.13792 0.67957 0.0
H1565 H 0.71074 0.13322 0.73009 0.0
H1566 H 0.61988 0.14878 0.7151 0.0
H1567 H 0.68416 0.14419 0.76527 0.0
H1568 H 0.63492 0.16285 0.82754 0.0
H1569 H 0.64677 0.13544 0.79282 0.0
H1570 H 0.62282 0.18828 0.74001 0.0
H1571 H 0.61081 0.21529 0.77449 0.0
C1572 C 0.65491 0.13859 0.6983 0.0
C1573 C 0.68099 0.13513 0.70203 0.0
C1574 C 0.63953 0.14487 0.71862 0.0
C1575 C 0.64991 0.14755 0.74302 0.0
C1576 C 0.6754 0.14206 0.74684 0.0
C1577 C 0.69077 0.13601 0.72658 0.0
C1578 C 0.6313 0.16809 0.8085 0.0
C1579 C 0.62235 0.19138 0.80369 0.0
C1580 C 0.63826 0.1525 0.78862 0.0
C1581 C 0.63616 0.15988 0.76365 0.0
C1582 C 0.62461 0.18191 0.75895 0.0
C1583 C 0.61787 0.19752 0.77876 0.0
H1584 H 0.81114 0.78735 0.61215 0.0
H1585 H 0.83268 0.83035 0.67971 0.0
H1586 H 0.8352 0.75349 0.62591 0.0
H1587 H 0.85425 0.79591 0.69502 0.0
H1588 H 0.83018 0.68537 0.6766 0.0
H1589 H 0.82577 0.72198 0.652 0.0
H1590 H 0.88068 0.76633 0.70071 0.0
H1591 H 0.88272 0.72982 0.72667 0.0
C1592 C 0.82171 0.78974 0.62968 0.0
C1593 C 0.82019 0.81129 0.64492 0.0
C1594 C 0.83505 0.77012 0.63793 0.0
C1595 C 0.84587 0.77114 0.6622 0.0
C1596 C 0.8464 0.794 0.67624 0.0
C1597 C 0.83398 0.81398 0.66748 0.0
C1598 C 0.84153 0.70293 0.68175 0.0
C1599 C 0.85638 0.705 0.70368 0.0
C1600 C 0.83928 0.72408 0.66746 0.0
C1601 C 0.85252 0.7477 0.67436 0.0
C1602 C 0.86934 0.74894 0.69516 0.0
C1603 C 0.87078 0.72796 0.70998 0.0
H1604 H 0.70819 0.28053 0.12821 0.0
H1605 H 0.66396 0.29251 0.19501 0.0
H1606 H 0.74383 0.30987 0.14491 0.0
H1607 H 0.69939 0.32166 0.21188 0.0
H1608 H 0.76202 0.38468 0.22944 0.0
H1609 H 0.72533 0.36296 0.20596 0.0
H1610 H 0.77362 0.30627 0.18053 0.0
H1611 H 0.80993 0.32801 0.20388 0.0
C1612 C 0.70605 0.28987 0.14627 0.0
C1613 C 0.68327 0.28511 0.16009 0.0
C1614 C 0.72633 0.30652 0.15582 0.0
C1615 C 0.72424 0.31817 0.17958 0.0
C1616 C 0.7013 0.3134 0.19329 0.0
C1617 C 0.68107 0.29678 0.1837 0.0
C1618 C 0.76469 0.36783 0.2184 0.0
C1619 C 0.78876 0.35832 0.21764 0.0
C1620 C 0.74383 0.35541 0.20508 0.0
C1621 C 0.74675 0.3331 0.19125 0.0
C1622 C 0.77096 0.32374 0.19053 0.0
C1623 C 0.79171 0.33612 0.20384 0.0
H1624 H 0.1375 0.30271 0.66168 0.0
H1625 H 0.12573 0.25868 0.72817 0.0
H1626 H 0.14711 0.26513 0.63789 0.0
H1627 H 0.13583 0.22143 0.70463 0.0
H1628 H 0.16073 0.15723 0.66139 0.0
H1629 H 0.13084 0.18894 0.67049 0.0
H1630 H 0.18772 0.24685 0.64382 0.0
H1631 H 0.2171 0.21548 0.63489 0.0
C1632 C 0.13626 0.2849 0.67105 0.0
C1633 C 0.13163 0.28374 0.69693 0.0
C1634 C 0.14175 0.26339 0.65743 0.0
C1635 C 0.14277 0.24045 0.66951 0.0
C1636 C 0.13517 0.23877 0.69472 0.0
C1637 C 0.12964 0.26023 0.70831 0.0
C1638 C 0.16637 0.17665 0.65681 0.0
C1639 C 0.19129 0.18411 0.64792 0.0
C1640 C 0.14935 0.19477 0.66204 0.0
C1641 C 0.15698 0.22041 0.65804 0.0
C1642 C 0.18105 0.22729 0.6469 0.0
C1643 C 0.19806 0.20935 0.64205 0.0
H1644 H 0.17087 0.65222 0.15925 0.0
H1645 H 0.2173 0.59476 0.18248 0.0
H1646 H 0.2069 0.67161 0.13513 0.0
H1647 H 0.25362 0.6141 0.15827 0.0
H1648 H 0.27849 0.70361 0.09453 0.0
H1649 H 0.24126 0.67281 0.10304 0.0
H1650 H 0.27759 0.65427 0.17192 0.0
H1651 H 0.31439 0.6847 0.16322 0.0
C1652 C 0.18837 0.64294 0.15798 0.0
C1653 C 0.19136 0.6219 0.1724 0.0
C1654 C 0.2091 0.65412 0.14427 0.0
C1655 C 0.23323 0.64463 0.14521 0.0
C1656 C 0.23533 0.62201 0.15753 0.0
C1657 C 0.21458 0.61085 0.17124 0.0
C1658 C 0.27846 0.69254 0.11123 0.0
C1659 C 0.29944 0.69571 0.12787 0.0
C1660 C 0.25731 0.67497 0.11607 0.0
C1661 C 0.25675 0.66073 0.13786 0.0
C1662 C 0.27777 0.66429 0.15455 0.0
C1663 C 0.29879 0.68176 0.14969 0.0
H1664 H 0.87372 0.30661 0.29294 0.0
H1665 H 0.81702 0.34709 0.33097 0.0
H1666 H 0.85944 0.26911 0.31623 0.0
H1667 H 0.80109 0.30924 0.35274 0.0
H1668 H 0.77356 0.23597 0.38784 0.0
H1669 H 0.80059 0.27506 0.37885 0.0
H1670 H 0.82297 0.24152 0.30838 0.0
H1671 H 0.79739 0.20257 0.31834 0.0
C1672 C 0.85863 0.30756 0.30683 0.0
C1673 C 0.84624 0.32944 0.31012 0.0
C1674 C 0.85015 0.28605 0.31991 0.0
C1675 C 0.82838 0.28579 0.33561 0.0
C1676 C 0.81785 0.30859 0.34082 0.0
C1677 C 0.82695 0.33036 0.32833 0.0
C1678 C 0.78472 0.23713 0.37069 0.0
C1679 C 0.78419 0.21635 0.35404 0.0
C1680 C 0.80008 0.25943 0.36545 0.0
C1681 C 0.81437 0.26147 0.34304 0.0
C1682 C 0.81313 0.24056 0.32624 0.0
C1683 C 0.79825 0.21826 0.33174 0.0
H1684 H 0.16669 0.31006 0.80215 0.0
H1685 H 0.22083 0.36817 0.77231 0.0
H1686 H 0.19974 0.29786 0.83003 0.0
H1687 H 0.2538 0.35751 0.80158 0.0
H1688 H 0.31325 0.30545 0.82665 0.0
H1689 H 0.28068 0.32655 0.80564 0.0
H1690 H 0.22617 0.30484 0.8645 0.0
H1691 H 0.25869 0.28204 0.88431 0.0
C1692 C 0.1856 0.32068 0.80222 0.0
C1693 C 0.19129 0.34028 0.78561 0.0
C1694 C 0.20456 0.31389 0.81833 0.0
C1695 C 0.22961 0.32671 0.81825 0.0
C1696 C 0.23494 0.34686 0.80192 0.0
C1697 C 0.2161 0.35317 0.78531 0.0
C1698 C 0.29441 0.30571 0.83526 0.0
C1699 C 0.28839 0.29255 0.85716 0.0
C1700 C 0.2757 0.31793 0.82333 0.0
C1701 C 0.25055 0.31732 0.83318 0.0
C1702 C 0.24508 0.3052 0.85598 0.0
C1703 C 0.26368 0.29239 0.86752 0.0
H1704 H 0.19655 0.81296 0.29919 0.0
H1705 H 0.24389 0.77011 0.34416 0.0
H1706 H 0.17255 0.77423 0.28338 0.0
H1707 H 0.22102 0.73092 0.32713 0.0
H1708 H 0.16479 0.66412 0.302 0.0
H1709 H 0.1809 0.70329 0.32445 0.0
H1710 H 0.18265 0.74262 0.25466 0.0
H1711 H 0.16583 0.70432 0.23278 0.0
C1712 C 0.20146 0.79512 0.30596 0.0
C1713 C 0.22131 0.7943 0.32346 0.0
C1714 C 0.18803 0.77295 0.29666 0.0
C1715 C 0.19491 0.74946 0.30396 0.0
C1716 C 0.21491 0.7487 0.32153 0.0
C1717 C 0.22815 0.77101 0.33108 0.0
C1718 C 0.1683 0.68129 0.29166 0.0
C1719 C 0.16411 0.68117 0.26567 0.0
C1720 C 0.17765 0.70363 0.30443 0.0
C1721 C 0.18301 0.72607 0.29135 0.0
C1722 C 0.17823 0.72586 0.26546 0.0
C1723 C 0.16876 0.70376 0.25283 0.0
H1724 H 0.80861 0.68282 0.81332 0.0
H1725 H 0.77174 0.61619 0.77565 0.0
H1726 H 0.77127 0.68434 0.84062 0.0
H1727 H 0.73446 0.61685 0.80363 0.0
H1728 H 0.66398 0.66117 0.82712 0.0
H1729 H 0.70017 0.64266 0.8084 0.0
H1730 H 0.74636 0.66512 0.8741 0.0
H1731 H 0.7099 0.68435 0.8925 0.0
C1732 C 0.79262 0.66819 0.81139 0.0
C1733 C 0.79306 0.64902 0.79308 0.0
C1734 C 0.77134 0.66884 0.82711 0.0
C1735 C 0.75008 0.65033 0.82471 0.0
C1736 C 0.75056 0.63126 0.80606 0.0
C1737 C 0.77177 0.63086 0.79009 0.0
C1738 C 0.68138 0.66085 0.83816 0.0
C1739 C 0.68432 0.67412 0.86118 0.0
C1740 C 0.70227 0.65035 0.82736 0.0
C1741 C 0.7264 0.65317 0.83945 0.0
C1742 C 0.72818 0.66335 0.86406 0.0
C1743 C 0.70731 0.67408 0.87474 0.0
H1744 H 0.73327 0.85968 0.72587 0.0
H1745 H 0.70795 0.79569 0.6778 0.0
H1746 H 0.71109 0.83902 0.76134 0.0
H1747 H 0.68418 0.77569 0.71244 0.0
H1748 H 0.67865 0.73274 0.78379 0.0
H1749 H 0.69598 0.75583 0.74829 0.0
H1750 H 0.67106 0.82438 0.78075 0.0
H1751 H 0.6547 0.80106 0.81739 0.0
C1752 C 0.72231 0.84146 0.72289 0.0
C1753 C 0.72141 0.82949 0.69917 0.0
C1754 C 0.70946 0.82973 0.74304 0.0
C1755 C 0.69583 0.80572 0.73973 0.0
C1756 C 0.69479 0.79402 0.71575 0.0
C1757 C 0.70795 0.80559 0.6958 0.0
C1758 C 0.67672 0.75272 0.78335 0.0
C1759 C 0.66531 0.76515 0.80327 0.0
C1760 C 0.68647 0.76596 0.76284 0.0
C1761 C 0.68461 0.79192 0.76148 0.0
C1762 C 0.67297 0.80441 0.78136 0.0
C1763 C 0.66355 0.79112 0.80224 0.0
H1764 H 0.66691 0.17153 0.32051 0.0
H1765 H 0.71492 0.12288 0.28072 0.0
H1766 H 0.64229 0.17579 0.28258 0.0
H1767 H 0.68891 0.12487 0.24308 0.0
H1768 H 0.67103 0.1716 0.17521 0.0
H1769 H 0.68591 0.15205 0.21214 0.0
H1770 H 0.61497 0.16538 0.25042 0.0
H1771 H 0.60159 0.18713 0.21389 0.0
C1772 C 0.67143 0.16091 0.30377 0.0
C1773 C 0.69286 0.14714 0.30331 0.0
C1774 C 0.65721 0.16315 0.28189 0.0
C1775 C 0.6637 0.15105 0.25921 0.0
C1776 C 0.68377 0.13529 0.25969 0.0
C1777 C 0.69853 0.13382 0.28135 0.0
C1778 C 0.65833 0.16953 0.19128 0.0
C1779 C 0.63528 0.18083 0.19186 0.0
C1780 C 0.6668 0.15826 0.21266 0.0
C1781 C 0.65203 0.15754 0.23489 0.0
C1782 C 0.62747 0.16638 0.2342 0.0
C1783 C 0.61948 0.17843 0.2131 0.0
H1784 H 0.27864 0.11357 0.72169 0.0
H1785 H 0.29767 0.18722 0.69166 0.0
H1786 H 0.30355 0.1266 0.75963 0.0
H1787 H 0.32115 0.20092 0.72962 0.0
H1788 H 0.36749 0.22393 0.79354 0.0
H1789 H 0.35698 0.19933 0.75507 0.0
H1790 H 0.29909 0.1521 0.7952 0.0
H1791 H 0.31121 0.17553 0.8338 0.0
C1792 C 0.28839 0.13249 0.72329 0.0
C1793 C 0.28708 0.14928 0.70378 0.0
C1794 C 0.30251 0.14001 0.74494 0.0
C1795 C 0.31467 0.16475 0.74767 0.0
C1796 C 0.3129 0.18149 0.72799 0.0
C1797 C 0.29926 0.17379 0.70629 0.0
C1798 C 0.3532 0.20769 0.79414 0.0
C1799 C 0.33982 0.20172 0.81632 0.0
C1800 C 0.34697 0.19374 0.77214 0.0
C1801 C 0.32652 0.1743 0.77181 0.0
C1802 C 0.31494 0.16689 0.79464 0.0
C1803 C 0.32178 0.18037 0.81682 0.0
H1804 H 0.27019 0.8682 0.25009 0.0
H1805 H 0.33698 0.8617 0.2964 0.0
H1806 H 0.29314 0.85353 0.21368 0.0
H1807 H 0.36003 0.84706 0.25983 0.0
H1808 H 0.35941 0.77499 0.20618 0.0
H1809 H 0.34928 0.80474 0.23909 0.0
H1810 H 0.33024 0.85683 0.18328 0.0
H1811 H 0.3406 0.82683 0.15006 0.0
C1812 C 0.29011 0.86451 0.25232 0.0
C1813 C 0.30161 0.86566 0.27619 0.0
C1814 C 0.30332 0.85618 0.2314 0.0
C1815 C 0.32823 0.84869 0.23399 0.0
C1816 C 0.3407 0.85237 0.25737 0.0
C1817 C 0.32754 0.86091 0.27828 0.0
C1818 C 0.35354 0.79298 0.20089 0.0
C1819 C 0.3505 0.79848 0.17557 0.0
C1820 C 0.34798 0.81017 0.21977 0.0
C1821 C 0.33896 0.83317 0.21379 0.0
C1822 C 0.33711 0.83923 0.18842 0.0
C1823 C 0.34307 0.8221 0.16945 0.0
loop_
_geom_bond_atom_site_label_1
_geom_bond_atom_site_label_2
_geom_bond_distance
_geom_bond_site_symmetry_2
_ccdc_geom_bond_type
Mn0 O5 2.095 . S
Mn0 O15 2.162 . S
Mn0 O16 2.297 . S
Mn0 O24 2.385 . S
Mn0 O25 2.209 . S
Mn0 O26 2.094 . S
Mn1 O6 2.121 . S
Mn1 N8 2.257 . S
Mn1 N17 2.282 . S
Mn1 O25 2.215 . S
Mn1 O27 2.117 . S
C2 O24 1.234 . S
C2 O25 1.283 . S
C3 O15 1.281 . S
C3 O16 1.236 . S
C4 O26 1.240 . S
C4 O27 1.264 . S
O5 Mn0 2.095 . S
O5 C14 1.250 . S
O6 Mn1 2.121 . S
O6 C14 1.258 . S
C7 N8 1.326 . S
C7 C11 1.460 . S
C7 H13 0.929 . S
N8 Mn1 2.257 . S
N8 C7 1.326 . S
N8 C12 1.362 . S
C9 C10 1.258 . S
C9 C12 1.431 . S
C9 C29 1.449 . S
C10 C9 1.258 . S
C10 C11 1.477 . S
C10 H30 0.931 . S
C11 C7 1.460 . S
C11 C10 1.477 . S
C11 H31 0.930 . S
C12 N8 1.362 . S
C12 C9 1.431 . S
C12 C22 1.476 . S
H13 C7 0.929 . S
C14 O5 1.250 . S
C14 O6 1.258 . S
O15 Mn0 2.162 . S
O15 C3 1.281 . S
O16 Mn0 2.297 . S
O16 C3 1.236 . S
N17 Mn1 2.282 . S
N17 C18 1.328 . S
N17 C22 1.318 . S
C18 N17 1.328 . S
C18 C19 1.457 . S
C18 H23 0.929 . S
C19 C18 1.457 . S
C19 C20 1.291 . S
C19 H32 0.931 . S
C20 C19 1.291 . S
C20 C21 1.373 . S
C20 H33 0.929 . S
C21 C20 1.373 . S
C21 C22 1.396 . S
C21 C28 1.403 . S
C22 C12 1.476 . S
C22 N17 1.318 . S
C22 C21 1.396 . S
H23 C18 0.929 . S
O24 Mn0 2.385 . S
O24 C2 1.234 . S
O25 Mn0 2.209 . S
O25 Mn1 2.215 . S
O25 C2 1.283 . S
O26 Mn0 2.094 . S
O26 C4 1.240 . S
O27 Mn1 2.117 . S
O27 C4 1.264 . S
C28 C21 1.403 . S
C28 C29 1.399 . S
C28 H34 0.929 . S
C29 C9 1.449 . S
C29 C28 1.399 . S
C29 H35 0.930 . S
H30 C10 0.931 . S
H31 C11 0.930 . S
H32 C19 0.931 . S
H33 C20 0.929 . S
H34 C28 0.929 . S
H35 C29 0.930 . S
Mn36 O41 2.095 . S
Mn36 O51 2.162 . S
Mn36 O52 2.297 . S
Mn36 O60 2.385 . S
Mn36 O61 2.209 . S
Mn36 O62 2.094 . S
Mn37 O42 2.121 . S
Mn37 N44 2.257 . S
Mn37 N53 2.282 . S
Mn37 O61 2.215 . S
Mn37 O63 2.117 . S
C38 O60 1.234 . S
C38 O61 1.283 . S
C39 O51 1.281 . S
C39 O52 1.236 . S
C40 O62 1.240 . S
C40 O63 1.264 . S
O41 Mn36 2.095 . S
O41 C50 1.250 . S
O42 Mn37 2.121 . S
O42 C50 1.258 . S
C43 N44 1.326 . S
C43 C47 1.460 . S
C43 H49 0.929 . S
N44 Mn37 2.257 . S
N44 C43 1.326 . S
N44 C48 1.362 . S
C45 C46 1.258 . S
C45 C48 1.431 . S
C45 C65 1.449 . S
C46 C45 1.258 . S
C46 C47 1.477 . S
C46 H66 0.931 . S
C47 C43 1.460 . S
C47 C46 1.477 . S
C47 H67 0.930 . S
C48 N44 1.362 . S
C48 C45 1.431 . S
C48 C58 1.476 . S
H49 C43 0.929 . S
C50 O41 1.250 . S
C50 O42 1.258 . S
O51 Mn36 2.162 . S
O51 C39 1.281 . S
O52 Mn36 2.297 . S
O52 C39 1.236 . S
N53 Mn37 2.282 . S
N53 C54 1.328 . S
N53 C58 1.318 . S
C54 N53 1.328 . S
C54 C55 1.457 . S
C54 H59 0.929 . S
C55 C54 1.457 . S
C55 C56 1.291 . S
C55 H68 0.931 . S
C56 C55 1.291 . S
C56 C57 1.373 . S
C56 H69 0.929 . S
C57 C56 1.373 . S
C57 C58 1.396 . S
C57 C64 1.403 . S
C58 C48 1.476 . S
C58 N53 1.318 . S
C58 C57 1.396 . S
H59 C54 0.929 . S
O60 Mn36 2.385 . S
O60 C38 1.234 . S
O61 Mn36 2.209 . S
O61 Mn37 2.215 . S
O61 C38 1.283 . S
O62 Mn36 2.094 . S
O62 C40 1.240 . S
O63 Mn37 2.117 . S
O63 C40 1.264 . S
C64 C57 1.403 . S
C64 C65 1.399 . S
C64 H70 0.929 . S
C65 C45 1.449 . S
C65 C64 1.399 . S
C65 H71 0.930 . S
H66 C46 0.931 . S
H67 C47 0.930 . S
H68 C55 0.931 . S
H69 C56 0.929 . S
H70 C64 0.929 . S
H71 C65 0.930 . S
Mn72 O77 2.095 . S
Mn72 O87 2.162 . S
Mn72 O88 2.297 . S
Mn72 O96 2.385 . S
Mn72 O97 2.209 . S
Mn72 O98 2.094 . S
Mn73 O78 2.121 . S
Mn73 N80 2.257 . S
Mn73 N89 2.282 . S
Mn73 O97 2.215 . S
Mn73 O99 2.117 . S
C74 O96 1.234 . S
C74 O97 1.283 . S
C75 O87 1.281 . S
C75 O88 1.236 . S
C76 O98 1.240 . S
C76 O99 1.264 . S
O77 Mn72 2.095 . S
O77 C86 1.250 . S
O78 Mn73 2.121 . S
O78 C86 1.258 . S
C79 N80 1.326 . S
C79 C83 1.460 . S
C79 H85 0.929 . S
N80 Mn73 2.257 . S
N80 C79 1.326 . S
N80 C84 1.362 . S
C81 C82 1.258 . S
C81 C84 1.431 . S
C81 C101 1.449 . S
C82 C81 1.258 . S
C82 C83 1.477 . S
C82 H102 0.931 . S
C83 C79 1.460 . S
C83 C82 1.477 . S
C83 H103 0.930 . S
C84 N80 1.362 . S
C84 C81 1.431 . S
C84 C94 1.476 . S
H85 C79 0.929 . S
C86 O77 1.250 . S
C86 O78 1.258 . S
O87 Mn72 2.162 . S
O87 C75 1.281 . S
O88 Mn72 2.297 . S
O88 C75 1.236 . S
N89 Mn73 2.282 . S
N89 C90 1.328 . S
N89 C94 1.318 . S
C90 N89 1.328 . S
C90 C91 1.457 . S
C90 H95 0.929 . S
C91 C90 1.457 . S
C91 C92 1.291 . S
C91 H104 0.931 . S
C92 C91 1.291 . S
C92 C93 1.373 . S
C92 H105 0.929 . S
C93 C92 1.373 . S
C93 C94 1.396 . S
C93 C100 1.403 . S
C94 C84 1.476 . S
C94 N89 1.318 . S
C94 C93 1.396 . S
H95 C90 0.929 . S
O96 Mn72 2.385 . S
O96 C74 1.234 . S
O97 Mn72 2.209 . S
O97 Mn73 2.215 . S
O97 C74 1.283 . S
O98 Mn72 2.094 . S
O98 C76 1.240 . S
O99 Mn73 2.117 . S
O99 C76 1.264 . S
C100 C93 1.403 . S
C100 C101 1.399 . S
C100 H106 0.929 . S
C101 C81 1.449 . S
C101 C100 1.399 . S
C101 H107 0.930 . S
H102 C82 0.931 . S
H103 C83 0.930 . S
H104 C91 0.931 . S
H105 C92 0.929 . S
H106 C100 0.929 . S
H107 C101 0.930 . S
Mn108 O113 2.095 . S
Mn108 O123 2.162 . S
Mn108 O124 2.297 . S
Mn108 O132 2.385 . S
Mn108 O133 2.209 . S
Mn108 O134 2.094 . S
Mn109 O114 2.121 . S
Mn109 N116 2.257 . S
Mn109 N125 2.282 . S
Mn109 O133 2.215 . S
Mn109 O135 2.117 . S
C110 O132 1.234 . S
C110 O133 1.283 . S
C111 O123 1.281 . S
C111 O124 1.236 . S
C112 O134 1.240 . S
C112 O135 1.264 . S
O113 Mn108 2.095 . S
O113 C122 1.250 . S
O114 Mn109 2.121 . S
O114 C122 1.258 . S
C115 N116 1.326 . S
C115 C119 1.460 . S
C115 H121 0.929 . S
N116 Mn109 2.257 . S
N116 C115 1.326 . S
N116 C120 1.362 . S
C117 C118 1.258 . S
C117 C120 1.431 . S
C117 C137 1.449 . S
C118 C117 1.258 . S
C118 C119 1.477 . S
C118 H138 0.931 . S
C119 C115 1.460 . S
C119 C118 1.477 . S
C119 H139 0.930 . S
C120 N116 1.362 . S
C120 C117 1.431 . S
C120 C130 1.476 . S
H121 C115 0.929 . S
C122 O113 1.250 . S
C122 O114 1.258 . S
O123 Mn108 2.162 . S
O123 C111 1.281 . S
O124 Mn108 2.297 . S
O124 C111 1.236 . S
N125 Mn109 2.282 . S
N125 C126 1.328 . S
N125 C130 1.318 . S
C126 N125 1.328 . S
C126 C127 1.457 . S
C126 H131 0.929 . S
C127 C126 1.457 . S
C127 C128 1.291 . S
C127 H140 0.931 . S
C128 C127 1.291 . S
C128 C129 1.373 . S
C128 H141 0.929 . S
C129 C128 1.373 . S
C129 C130 1.396 . S
C129 C136 1.403 . S
C130 C120 1.476 . S
C130 N125 1.318 . S
C130 C129 1.396 . S
H131 C126 0.929 . S
O132 Mn108 2.385 . S
O132 C110 1.234 . S
O133 Mn108 2.209 . S
O133 Mn109 2.215 . S
O133 C110 1.283 . S
O134 Mn108 2.094 . S
O134 C112 1.240 . S
O135 Mn109 2.117 . S
O135 C112 1.264 . S
C136 C129 1.403 . S
C136 C137 1.399 . S
C136 H142 0.929 . S
C137 C117 1.449 . S
C137 C136 1.399 . S
C137 H143 0.930 . S
H138 C118 0.931 . S
H139 C119 0.930 . S
H140 C127 0.931 . S
H141 C128 0.929 . S
H142 C136 0.929 . S
H143 C137 0.930 . S
Mn144 O149 2.095 . S
Mn144 O159 2.162 . S
Mn144 O160 2.297 . S
Mn144 O168 2.385 . S
Mn144 O169 2.209 . S
Mn144 O170 2.094 . S
Mn145 O150 2.121 . S
Mn145 N152 2.257 . S
Mn145 N161 2.282 . S
Mn145 O169 2.215 . S
Mn145 O171 2.117 . S
C146 O168 1.234 . S
C146 O169 1.283 . S
C147 O159 1.281 . S
C147 O160 1.236 . S
C148 O170 1.240 . S
C148 O171 1.264 . S
O149 Mn144 2.095 . S
O149 C158 1.250 . S
O150 Mn145 2.121 . S
O150 C158 1.258 . S
C151 N152 1.326 . S
C151 C155 1.460 . S
C151 H157 0.929 . S
N152 Mn145 2.257 . S
N152 C151 1.326 . S
N152 C156 1.362 . S
C153 C154 1.258 . S
C153 C156 1.431 . S
C153 C173 1.449 . S
C154 C153 1.258 . S
C154 C155 1.477 . S
C154 H174 0.931 . S
C155 C151 1.460 . S
C155 C154 1.477 . S
C155 H175 0.930 . S
C156 N152 1.362 . S
C156 C153 1.431 . S
C156 C166 1.476 . S
H157 C151 0.929 . S
C158 O149 1.250 . S
C158 O150 1.258 . S
O159 Mn144 2.162 . S
O159 C147 1.281 . S
O160 Mn144 2.297 . S
O160 C147 1.236 . S
N161 Mn145 2.282 . S
N161 C162 1.328 . S
N161 C166 1.318 . S
C162 N161 1.328 . S
C162 C163 1.457 . S
C162 H167 0.929 . S
C163 C162 1.457 . S
C163 C164 1.291 . S
C163 H176 0.931 . S
C164 C163 1.291 . S
C164 C165 1.373 . S
C164 H177 0.929 . S
C165 C164 1.373 . S
C165 C166 1.396 . S
C165 C172 1.403 . S
C166 C156 1.476 . S
C166 N161 1.318 . S
C166 C165 1.396 . S
H167 C162 0.929 . S
O168 Mn144 2.385 . S
O168 C146 1.234 . S
O169 Mn144 2.209 . S
O169 Mn145 2.215 . S
O169 C146 1.283 . S
O170 Mn144 2.094 . S
O170 C148 1.240 . S
O171 Mn145 2.117 . S
O171 C148 1.264 . S
C172 C165 1.403 . S
C172 C173 1.399 . S
C172 H178 0.929 . S
C173 C153 1.449 . S
C173 C172 1.399 . S
C173 H179 0.930 . S
H174 C154 0.931 . S
H175 C155 0.930 . S
H176 C163 0.931 . S
H177 C164 0.929 . S
H178 C172 0.929 . S
H179 C173 0.930 . S
Mn180 O185 2.095 . S
Mn180 O195 2.162 . S
Mn180 O196 2.297 . S
Mn180 O204 2.385 . S
Mn180 O205 2.209 . S
Mn180 O206 2.094 . S
Mn181 O186 2.121 . S
Mn181 N188 2.257 . S
Mn181 N197 2.282 . S
Mn181 O205 2.215 . S
Mn181 O207 2.117 . S
C182 O204 1.234 . S
C182 O205 1.283 . S
C183 O195 1.281 . S
C183 O196 1.236 . S
C184 O206 1.240 . S
C184 O207 1.264 . S
O185 Mn180 2.095 . S
O185 C194 1.250 . S
O186 Mn181 2.121 . S
O186 C194 1.258 . S
C187 N188 1.326 . S
C187 C191 1.460 . S
C187 H193 0.929 . S
N188 Mn181 2.257 . S
N188 C187 1.326 . S
N188 C192 1.362 . S
C189 C190 1.258 . S
C189 C192 1.431 . S
C189 C209 1.449 . S
C190 C189 1.258 . S
C190 C191 1.477 . S
C190 H210 0.931 . S
C191 C187 1.460 . S
C191 C190 1.477 . S
C191 H211 0.930 . S
C192 N188 1.362 . S
C192 C189 1.431 . S
C192 C202 1.476 . S
H193 C187 0.929 . S
C194 O185 1.250 . S
C194 O186 1.258 . S
O195 Mn180 2.162 . S
O195 C183 1.281 . S
O196 Mn180 2.297 . S
O196 C183 1.236 . S
N197 Mn181 2.282 . S
N197 C198 1.328 . S
N197 C202 1.318 . S
C198 N197 1.328 . S
C198 C199 1.457 . S
C198 H203 0.929 . S
C199 C198 1.457 . S
C199 C200 1.291 . S
C199 H212 0.931 . S
C200 C199 1.291 . S
C200 C201 1.373 . S
C200 H213 0.929 . S
C201 C200 1.373 . S
C201 C202 1.396 . S
C201 C208 1.403 . S
C202 C192 1.476 . S
C202 N197 1.318 . S
C202 C201 1.396 . S
H203 C198 0.929 . S
O204 Mn180 2.385 . S
O204 C182 1.234 . S
O205 Mn180 2.209 . S
O205 Mn181 2.215 . S
O205 C182 1.283 . S
O206 Mn180 2.094 . S
O206 C184 1.240 . S
O207 Mn181 2.117 . S
O207 C184 1.264 . S
C208 C201 1.403 . S
C208 C209 1.399 . S
C208 H214 0.929 . S
C209 C189 1.449 . S
C209 C208 1.399 . S
C209 H215 0.930 . S
H210 C190 0.931 . S
H211 C191 0.930 . S
H212 C199 0.931 . S
H213 C200 0.929 . S
H214 C208 0.929 . S
H215 C209 0.930 . S
Mn216 O221 2.095 . S
Mn216 O231 2.162 . S
Mn216 O232 2.297 . S
Mn216 O240 2.385 . S
Mn216 O241 2.209 . S
Mn216 O242 2.094 . S
Mn217 O222 2.121 . S
Mn217 N224 2.257 . S
Mn217 N233 2.282 . S
Mn217 O241 2.215 . S
Mn217 O243 2.117 . S
C218 O240 1.234 . S
C218 O241 1.283 . S
C219 O231 1.281 . S
C219 O232 1.236 . S
C220 O242 1.240 . S
C220 O243 1.264 . S
O221 Mn216 2.095 . S
O221 C230 1.250 . S
O222 Mn217 2.121 . S
O222 C230 1.258 . S
C223 N224 1.326 . S
C223 C227 1.460 . S
C223 H229 0.929 . S
N224 Mn217 2.257 . S
N224 C223 1.326 . S
N224 C228 1.362 . S
C225 C226 1.258 . S
C225 C228 1.431 . S
C225 C245 1.449 . S
C226 C225 1.258 . S
C226 C227 1.477 . S
C226 H246 0.931 . S
C227 C223 1.460 . S
C227 C226 1.477 . S
C227 H247 0.930 . S
C228 N224 1.362 . S
C228 C225 1.431 . S
C228 C238 1.476 . S
H229 C223 0.929 . S
C230 O221 1.250 . S
C230 O222 1.258 . S
O231 Mn216 2.162 . S
O231 C219 1.281 . S
O232 Mn216 2.297 . S
O232 C219 1.236 . S
N233 Mn217 2.282 . S
N233 C234 1.328 . S
N233 C238 1.318 . S
C234 N233 1.328 . S
C234 C235 1.457 . S
C234 H239 0.929 . S
C235 C234 1.457 . S
C235 C236 1.291 . S
C235 H248 0.931 . S
C236 C235 1.291 . S
C236 C237 1.373 . S
C236 H249 0.929 . S
C237 C236 1.373 . S
C237 C238 1.396 . S
C237 C244 1.403 . S
C238 C228 1.476 . S
C238 N233 1.318 . S
C238 C237 1.396 . S
H239 C234 0.929 . S
O240 Mn216 2.385 . S
O240 C218 1.234 . S
O241 Mn216 2.209 . S
O241 Mn217 2.215 . S
O241 C218 1.283 . S
O242 Mn216 2.094 . S
O242 C220 1.240 . S
O243 Mn217 2.117 . S
O243 C220 1.264 . S
C244 C237 1.403 . S
C244 C245 1.399 . S
C244 H250 0.929 . S
C245 C225 1.449 . S
C245 C244 1.399 . S
C245 H251 0.930 . S
H246 C226 0.931 . S
H247 C227 0.930 . S
H248 C235 0.931 . S
H249 C236 0.929 . S
H250 C244 0.929 . S
H251 C245 0.930 . S
Mn252 O257 2.095 . S
Mn252 O267 2.162 . S
Mn252 O268 2.297 . S
Mn252 O276 2.385 . S
Mn252 O277 2.209 . S
Mn252 O278 2.094 . S
Mn253 O258 2.121 . S
Mn253 N260 2.257 . S
Mn253 N269 2.282 . S
Mn253 O277 2.215 . S
Mn253 O279 2.117 . S
C254 O276 1.234 . S
C254 O277 1.283 . S
C255 O267 1.281 . S
C255 O268 1.236 . S
C256 O278 1.240 . S
C256 O279 1.264 . S
O257 Mn252 2.095 . S
O257 C266 1.250 . S
O258 Mn253 2.121 . S
O258 C266 1.258 . S
C259 N260 1.326 . S
C259 C263 1.460 . S
C259 H265 0.929 . S
N260 Mn253 2.257 . S
N260 C259 1.326 . S
N260 C264 1.362 . S
C261 C262 1.258 . S
C261 C264 1.431 . S
C261 C281 1.449 . S
C262 C261 1.258 . S
C262 C263 1.477 . S
C262 H282 0.931 . S
C263 C259 1.460 . S
C263 C262 1.477 . S
C263 H283 0.930 . S
C264 N260 1.362 . S
C264 C261 1.431 . S
C264 C274 1.476 . S
H265 C259 0.929 . S
C266 O257 1.250 . S
C266 O258 1.258 . S
O267 Mn252 2.162 . S
O267 C255 1.281 . S
O268 Mn252 2.297 . S
O268 C255 1.236 . S
N269 Mn253 2.282 . S
N269 C270 1.328 . S
N269 C274 1.318 . S
C270 N269 1.328 . S
C270 C271 1.457 . S
C270 H275 0.929 . S
C271 C270 1.457 . S
C271 C272 1.291 . S
C271 H284 0.931 . S
C272 C271 1.291 . S
C272 C273 1.373 . S
C272 H285 0.929 . S
C273 C272 1.373 . S
C273 C274 1.396 . S
C273 C280 1.403 . S
C274 C264 1.476 . S
C274 N269 1.318 . S
C274 C273 1.396 . S
H275 C270 0.929 . S
O276 Mn252 2.385 . S
O276 C254 1.234 . S
O277 Mn252 2.209 . S
O277 Mn253 2.215 . S
O277 C254 1.283 . S
O278 Mn252 2.094 . S
O278 C256 1.240 . S
O279 Mn253 2.117 . S
O279 C256 1.264 . S
C280 C273 1.403 . S
C280 C281 1.399 . S
C280 H286 0.929 . S
C281 C261 1.449 . S
C281 C280 1.399 . S
C281 H287 0.930 . S
H282 C262 0.931 . S
H283 C263 0.930 . S
H284 C271 0.931 . S
H285 C272 0.929 . S
H286 C280 0.929 . S
H287 C281 0.930 . S
Mn288 O293 2.095 . S
Mn288 O303 2.162 . S
Mn288 O304 2.297 . S
Mn288 O312 2.385 . S
Mn288 O313 2.209 . S
Mn288 O314 2.094 . S
Mn289 O294 2.121 . S
Mn289 N296 2.257 . S
Mn289 N305 2.282 . S
Mn289 O313 2.215 . S
Mn289 O315 2.117 . S
C290 O312 1.234 . S
C290 O313 1.283 . S
C291 O303 1.281 . S
C291 O304 1.236 . S
C292 O314 1.240 . S
C292 O315 1.264 . S
O293 Mn288 2.095 . S
O293 C302 1.250 . S
O294 Mn289 2.121 . S
O294 C302 1.258 . S
C295 N296 1.326 . S
C295 C299 1.460 . S
C295 H301 0.929 . S
N296 Mn289 2.257 . S
N296 C295 1.326 . S
N296 C300 1.362 . S
C297 C298 1.258 . S
C297 C300 1.431 . S
C297 C317 1.449 . S
C298 C297 1.258 . S
C298 C299 1.477 . S
C298 H318 0.931 . S
C299 C295 1.460 . S
C299 C298 1.477 . S
C299 H319 0.930 . S
C300 N296 1.362 . S
C300 C297 1.431 . S
C300 C310 1.476 . S
H301 C295 0.929 . S
C302 O293 1.250 . S
C302 O294 1.258 . S
O303 Mn288 2.162 . S
O303 C291 1.281 . S
O304 Mn288 2.297 . S
O304 C291 1.236 . S
N305 Mn289 2.282 . S
N305 C306 1.328 . S
N305 C310 1.318 . S
C306 N305 1.328 . S
C306 C307 1.457 . S
C306 H311 0.929 . S
C307 C306 1.457 . S
C307 C308 1.291 . S
C307 H320 0.931 . S
C308 C307 1.291 . S
C308 C309 1.373 . S
C308 H321 0.929 . S
C309 C308 1.373 . S
C309 C310 1.396 . S
C309 C316 1.403 . S
C310 C300 1.476 . S
C310 N305 1.318 . S
C310 C309 1.396 . S
H311 C306 0.929 . S
O312 Mn288 2.385 . S
O312 C290 1.234 . S
O313 Mn288 2.209 . S
O313 Mn289 2.215 . S
O313 C290 1.283 . S
O314 Mn288 2.094 . S
O314 C292 1.240 . S
O315 Mn289 2.117 . S
O315 C292 1.264 . S
C316 C309 1.403 . S
C316 C317 1.399 . S
C316 H322 0.929 . S
C317 C297 1.449 . S
C317 C316 1.399 . S
C317 H323 0.930 . S
H318 C298 0.931 . S
H319 C299 0.930 . S
H320 C307 0.931 . S
H321 C308 0.929 . S
H322 C316 0.929 . S
H323 C317 0.930 . S
Mn324 O329 2.095 . S
Mn324 O339 2.162 . S
Mn324 O340 2.297 . S
Mn324 O348 2.385 . S
Mn324 O349 2.209 . S
Mn324 O350 2.094 . S
Mn325 O330 2.121 . S
Mn325 N332 2.257 . S
Mn325 N341 2.282 . S
Mn325 O349 2.215 . S
Mn325 O351 2.117 . S
C326 O348 1.234 . S
C326 O349 1.283 . S
C327 O339 1.281 . S
C327 O340 1.236 . S
C328 O350 1.240 . S
C328 O351 1.264 . S
O329 Mn324 2.095 . S
O329 C338 1.250 . S
O330 Mn325 2.121 . S
O330 C338 1.258 . S
C331 N332 1.326 . S
C331 C335 1.460 . S
C331 H337 0.929 . S
N332 Mn325 2.257 . S
N332 C331 1.326 . S
N332 C336 1.362 . S
C333 C334 1.258 . S
C333 C336 1.431 . S
C333 C353 1.449 . S
C334 C333 1.258 . S
C334 C335 1.477 . S
C334 H354 0.931 . S
C335 C331 1.460 . S
C335 C334 1.477 . S
C335 H355 0.930 . S
C336 N332 1.362 . S
C336 C333 1.431 . S
C336 C346 1.476 . S
H337 C331 0.929 . S
C338 O329 1.250 . S
C338 O330 1.258 . S
O339 Mn324 2.162 . S
O339 C327 1.281 . S
O340 Mn324 2.297 . S
O340 C327 1.236 . S
N341 Mn325 2.282 . S
N341 C342 1.328 . S
N341 C346 1.318 . S
C342 N341 1.328 . S
C342 C343 1.457 . S
C342 H347 0.929 . S
C343 C342 1.457 . S
C343 C344 1.291 . S
C343 H356 0.931 . S
C344 C343 1.291 . S
C344 C345 1.373 . S
C344 H357 0.929 . S
C345 C344 1.373 . S
C345 C346 1.396 . S
C345 C352 1.403 . S
C346 C336 1.476 . S
C346 N341 1.318 . S
C346 C345 1.396 . S
H347 C342 0.929 . S
O348 Mn324 2.385 . S
O348 C326 1.234 . S
O349 Mn324 2.209 . S
O349 Mn325 2.215 . S
O349 C326 1.283 . S
O350 Mn324 2.094 . S
O350 C328 1.240 . S
O351 Mn325 2.117 . S
O351 C328 1.264 . S
C352 C345 1.403 . S
C352 C353 1.399 . S
C352 H358 0.929 . S
C353 C333 1.449 . S
C353 C352 1.399 . S
C353 H359 0.930 . S
H354 C334 0.931 . S
H355 C335 0.930 . S
H356 C343 0.931 . S
H357 C344 0.929 . S
H358 C352 0.929 . S
H359 C353 0.930 . S
Mn360 O365 2.095 . S
Mn360 O375 2.162 . S
Mn360 O376 2.297 . S
Mn360 O384 2.385 . S
Mn360 O385 2.209 . S
Mn360 O386 2.094 . S
Mn361 O366 2.121 . S
Mn361 N368 2.257 . S
Mn361 N377 2.282 . S
Mn361 O385 2.215 . S
Mn361 O387 2.117 . S
C362 O384 1.234 . S
C362 O385 1.283 . S
C363 O375 1.281 . S
C363 O376 1.236 . S
C364 O386 1.240 . S
C364 O387 1.264 . S
O365 Mn360 2.095 . S
O365 C374 1.250 . S
O366 Mn361 2.121 . S
O366 C374 1.258 . S
C367 N368 1.326 . S
C367 C371 1.460 . S
C367 H373 0.929 . S
N368 Mn361 2.257 . S
N368 C367 1.326 . S
N368 C372 1.362 . S
C369 C370 1.258 . S
C369 C372 1.431 . S
C369 C389 1.449 . S
C370 C369 1.258 . S
C370 C371 1.477 . S
C370 H390 0.931 . S
C371 C367 1.460 . S
C371 C370 1.477 . S
C371 H391 0.930 . S
C372 N368 1.362 . S
C372 C369 1.431 . S
C372 C382 1.476 . S
H373 C367 0.929 . S
C374 O365 1.250 . S
C374 O366 1.258 . S
O375 Mn360 2.162 . S
O375 C363 1.281 . S
O376 Mn360 2.297 . S
O376 C363 1.236 . S
N377 Mn361 2.282 . S
N377 C378 1.328 . S
N377 C382 1.318 . S
C378 N377 1.328 . S
C378 C379 1.457 . S
C378 H383 0.929 . S
C379 C378 1.457 . S
C379 C380 1.291 . S
C379 H392 0.931 . S
C380 C379 1.291 . S
C380 C381 1.373 . S
C380 H393 0.929 . S
C381 C380 1.373 . S
C381 C382 1.396 . S
C381 C388 1.403 . S
C382 C372 1.476 . S
C382 N377 1.318 . S
C382 C381 1.396 . S
H383 C378 0.929 . S
O384 Mn360 2.385 . S
O384 C362 1.234 . S
O385 Mn360 2.209 . S
O385 Mn361 2.215 . S
O385 C362 1.283 . S
O386 Mn360 2.094 . S
O386 C364 1.240 . S
O387 Mn361 2.117 . S
O387 C364 1.264 . S
C388 C381 1.403 . S
C388 C389 1.399 . S
C388 H394 0.929 . S
C389 C369 1.449 . S
C389 C388 1.399 . S
C389 H395 0.930 . S
H390 C370 0.931 . S
H391 C371 0.930 . S
H392 C379 0.931 . S
H393 C380 0.929 . S
H394 C388 0.929 . S
H395 C389 0.930 . S
Mn396 O401 2.095 . S
Mn396 O411 2.162 . S
Mn396 O412 2.297 . S
Mn396 O420 2.385 . S
Mn396 O421 2.209 . S
Mn396 O422 2.094 . S
Mn397 O402 2.121 . S
Mn397 N404 2.257 . S
Mn397 N413 2.282 . S
Mn397 O421 2.215 . S
Mn397 O423 2.117 . S
C398 O420 1.234 . S
C398 O421 1.283 . S
C399 O411 1.281 . S
C399 O412 1.236 . S
C400 O422 1.240 . S
C400 O423 1.264 . S
O401 Mn396 2.095 . S
O401 C410 1.250 . S
O402 Mn397 2.121 . S
O402 C410 1.258 . S
C403 N404 1.326 . S
C403 C407 1.460 . S
C403 H409 0.929 . S
N404 Mn397 2.257 . S
N404 C403 1.326 . S
N404 C408 1.362 . S
C405 C406 1.258 . S
C405 C408 1.431 . S
C405 C425 1.449 . S
C406 C405 1.258 . S
C406 C407 1.477 . S
C406 H426 0.931 . S
C407 C403 1.460 . S
C407 C406 1.477 . S
C407 H427 0.930 . S
C408 N404 1.362 . S
C408 C405 1.431 . S
C408 C418 1.476 . S
H409 C403 0.929 . S
C410 O401 1.250 . S
C410 O402 1.258 . S
O411 Mn396 2.162 . S
O411 C399 1.281 . S
O412 Mn396 2.297 . S
O412 C399 1.236 . S
N413 Mn397 2.282 . S
N413 C414 1.328 . S
N413 C418 1.318 . S
C414 N413 1.328 . S
C414 C415 1.457 . S
C414 H419 0.929 . S
C415 C414 1.457 . S
C415 C416 1.291 . S
C415 H428 0.931 . S
C416 C415 1.291 . S
C416 C417 1.373 . S
C416 H429 0.929 . S
C417 C416 1.373 . S
C417 C418 1.396 . S
C417 C424 1.403 . S
C418 C408 1.476 . S
C418 N413 1.318 . S
C418 C417 1.396 . S
H419 C414 0.929 . S
O420 Mn396 2.385 . S
O420 C398 1.234 . S
O421 Mn396 2.209 . S
O421 Mn397 2.215 . S
O421 C398 1.283 . S
O422 Mn396 2.094 . S
O422 C400 1.240 . S
O423 Mn397 2.117 . S
O423 C400 1.264 . S
C424 C417 1.403 . S
C424 C425 1.399 . S
C424 H430 0.929 . S
C425 C405 1.449 . S
C425 C424 1.399 . S
C425 H431 0.930 . S
H426 C406 0.931 . S
H427 C407 0.930 . S
H428 C415 0.931 . S
H429 C416 0.929 . S
H430 C424 0.929 . S
H431 C425 0.930 . S
Mn432 O437 2.095 . S
Mn432 O447 2.162 . S
Mn432 O448 2.297 . S
Mn432 O456 2.385 . S
Mn432 O457 2.209 . S
Mn432 O458 2.094 . S
Mn433 O438 2.121 . S
Mn433 N440 2.257 . S
Mn433 N449 2.282 . S
Mn433 O457 2.215 . S
Mn433 O459 2.117 . S
C434 O456 1.234 . S
C434 O457 1.283 . S
C435 O447 1.281 . S
C435 O448 1.236 . S
C436 O458 1.240 . S
C436 O459 1.264 . S
O437 Mn432 2.095 . S
O437 C446 1.250 . S
O438 Mn433 2.121 . S
O438 C446 1.258 . S
C439 N440 1.326 . S
C439 C443 1.460 . S
C439 H445 0.929 . S
N440 Mn433 2.257 . S
N440 C439 1.326 . S
N440 C444 1.362 . S
C441 C442 1.258 . S
C441 C444 1.431 . S
C441 C461 1.449 . S
C442 C441 1.258 . S
C442 C443 1.477 . S
C442 H462 0.931 . S
C443 C439 1.460 . S
C443 C442 1.477 . S
C443 H463 0.930 . S
C444 N440 1.362 . S
C444 C441 1.431 . S
C444 C454 1.476 . S
H445 C439 0.929 . S
C446 O437 1.250 . S
C446 O438 1.258 . S
O447 Mn432 2.162 . S
O447 C435 1.281 . S
O448 Mn432 2.297 . S
O448 C435 1.236 . S
N449 Mn433 2.282 . S
N449 C450 1.328 . S
N449 C454 1.318 . S
C450 N449 1.328 . S
C450 C451 1.457 . S
C450 H455 0.929 . S
C451 C450 1.457 . S
C451 C452 1.291 . S
C451 H464 0.931 . S
C452 C451 1.291 . S
C452 C453 1.373 . S
C452 H465 0.929 . S
C453 C452 1.373 . S
C453 C454 1.396 . S
C453 C460 1.403 . S
C454 C444 1.476 . S
C454 N449 1.318 . S
C454 C453 1.396 . S
H455 C450 0.929 . S
O456 Mn432 2.385 . S
O456 C434 1.234 . S
O457 Mn432 2.209 . S
O457 Mn433 2.215 . S
O457 C434 1.283 . S
O458 Mn432 2.094 . S
O458 C436 1.240 . S
O459 Mn433 2.117 . S
O459 C436 1.264 . S
C460 C453 1.403 . S
C460 C461 1.399 . S
C460 H466 0.929 . S
C461 C441 1.449 . S
C461 C460 1.399 . S
C461 H467 0.930 . S
H462 C442 0.931 . S
H463 C443 0.930 . S
H464 C451 0.931 . S
H465 C452 0.929 . S
H466 C460 0.929 . S
H467 C461 0.930 . S
Mn468 O473 2.095 . S
Mn468 O483 2.162 . S
Mn468 O484 2.297 . S
Mn468 O492 2.385 . S
Mn468 O493 2.209 . S
Mn468 O494 2.094 . S
Mn469 O474 2.121 . S
Mn469 N476 2.257 . S
Mn469 N485 2.282 . S
Mn469 O493 2.215 . S
Mn469 O495 2.117 . S
C470 O492 1.234 . S
C470 O493 1.283 . S
C471 O483 1.281 . S
C471 O484 1.236 . S
C472 O494 1.240 . S
C472 O495 1.264 . S
O473 Mn468 2.095 . S
O473 C482 1.250 . S
O474 Mn469 2.121 . S
O474 C482 1.258 . S
C475 N476 1.326 . S
C475 C479 1.460 . S
C475 H481 0.929 . S
N476 Mn469 2.257 . S
N476 C475 1.326 . S
N476 C480 1.362 . S
C477 C478 1.258 . S
C477 C480 1.431 . S
C477 C497 1.449 . S
C478 C477 1.258 . S
C478 C479 1.477 . S
C478 H498 0.931 . S
C479 C475 1.460 . S
C479 C478 1.477 . S
C479 H499 0.930 . S
C480 N476 1.362 . S
C480 C477 1.431 . S
C480 C490 1.476 . S
H481 C475 0.929 . S
C482 O473 1.250 . S
C482 O474 1.258 . S
O483 Mn468 2.162 . S
O483 C471 1.281 . S
O484 Mn468 2.297 . S
O484 C471 1.236 . S
N485 Mn469 2.282 . S
N485 C486 1.328 . S
N485 C490 1.318 . S
C486 N485 1.328 . S
C486 C487 1.457 . S
C486 H491 0.929 . S
C487 C486 1.457 . S
C487 C488 1.291 . S
C487 H500 0.931 . S
C488 C487 1.291 . S
C488 C489 1.373 . S
C488 H501 0.929 . S
C489 C488 1.373 . S
C489 C490 1.396 . S
C489 C496 1.403 . S
C490 C480 1.476 . S
C490 N485 1.318 . S
C490 C489 1.396 . S
H491 C486 0.929 . S
O492 Mn468 2.385 . S
O492 C470 1.234 . S
O493 Mn468 2.209 . S
O493 Mn469 2.215 . S
O493 C470 1.283 . S
O494 Mn468 2.094 . S
O494 C472 1.240 . S
O495 Mn469 2.117 . S
O495 C472 1.264 . S
C496 C489 1.403 . S
C496 C497 1.399 . S
C496 H502 0.929 . S
C497 C477 1.449 . S
C497 C496 1.399 . S
C497 H503 0.930 . S
H498 C478 0.931 . S
H499 C479 0.930 . S
H500 C487 0.931 . S
H501 C488 0.929 . S
H502 C496 0.929 . S
H503 C497 0.930 . S
Mn504 O509 2.095 . S
Mn504 O519 2.162 . S
Mn504 O520 2.297 . S
Mn504 O528 2.385 . S
Mn504 O529 2.209 . S
Mn504 O530 2.094 . S
Mn505 O510 2.121 . S
Mn505 N512 2.257 . S
Mn505 N521 2.282 . S
Mn505 O529 2.215 . S
Mn505 O531 2.117 . S
C506 O528 1.234 . S
C506 O529 1.283 . S
C507 O519 1.281 . S
C507 O520 1.236 . S
C508 O530 1.240 . S
C508 O531 1.264 . S
O509 Mn504 2.095 . S
O509 C518 1.250 . S
O510 Mn505 2.121 . S
O510 C518 1.258 . S
C511 N512 1.326 . S
C511 C515 1.460 . S
C511 H517 0.929 . S
N512 Mn505 2.257 . S
N512 C511 1.326 . S
N512 C516 1.362 . S
C513 C514 1.258 . S
C513 C516 1.431 . S
C513 C533 1.449 . S
C514 C513 1.258 . S
C514 C515 1.477 . S
C514 H534 0.931 . S
C515 C511 1.460 . S
C515 C514 1.477 . S
C515 H535 0.930 . S
C516 N512 1.362 . S
C516 C513 1.431 . S
C516 C526 1.476 . S
H517 C511 0.929 . S
C518 O509 1.250 . S
C518 O510 1.258 . S
O519 Mn504 2.162 . S
O519 C507 1.281 . S
O520 Mn504 2.297 . S
O520 C507 1.236 . S
N521 Mn505 2.282 . S
N521 C522 1.328 . S
N521 C526 1.318 . S
C522 N521 1.328 . S
C522 C523 1.457 . S
C522 H527 0.929 . S
C523 C522 1.457 . S
C523 C524 1.291 . S
C523 H536 0.931 . S
C524 C523 1.291 . S
C524 C525 1.373 . S
C524 H537 0.929 . S
C525 C524 1.373 . S
C525 C526 1.396 . S
C525 C532 1.403 . S
C526 C516 1.476 . S
C526 N521 1.318 . S
C526 C525 1.396 . S
H527 C522 0.929 . S
O528 Mn504 2.385 . S
O528 C506 1.234 . S
O529 Mn504 2.209 . S
O529 Mn505 2.215 . S
O529 C506 1.283 . S
O530 Mn504 2.094 . S
O530 C508 1.240 . S
O531 Mn505 2.117 . S
O531 C508 1.264 . S
C532 C525 1.403 . S
C532 C533 1.399 . S
C532 H538 0.929 . S
C533 C513 1.449 . S
C533 C532 1.399 . S
C533 H539 0.930 . S
H534 C514 0.931 . S
H535 C515 0.930 . S
H536 C523 0.931 . S
H537 C524 0.929 . S
H538 C532 0.929 . S
H539 C533 0.930 . S
Mn540 O545 2.095 . S
Mn540 O555 2.162 . S
Mn540 O556 2.297 . S
Mn540 O564 2.385 . S
Mn540 O565 2.209 . S
Mn540 O566 2.094 . S
Mn541 O546 2.121 . S
Mn541 N548 2.257 . S
Mn541 N557 2.282 . S
Mn541 O565 2.215 . S
Mn541 O567 2.117 . S
C542 O564 1.234 . S
C542 O565 1.283 . S
C543 O555 1.281 . S
C543 O556 1.236 . S
C544 O566 1.240 . S
C544 O567 1.264 . S
O545 Mn540 2.095 . S
O545 C554 1.250 . S
O546 Mn541 2.121 . S
O546 C554 1.258 . S
C547 N548 1.326 . S
C547 C551 1.460 . S
C547 H553 0.929 . S
N548 Mn541 2.257 . S
N548 C547 1.326 . S
N548 C552 1.362 . S
C549 C550 1.258 . S
C549 C552 1.431 . S
C549 C569 1.449 . S
C550 C549 1.258 . S
C550 C551 1.477 . S
C550 H570 0.931 . S
C551 C547 1.460 . S
C551 C550 1.477 . S
C551 H571 0.930 . S
C552 N548 1.362 . S
C552 C549 1.431 . S
C552 C562 1.476 . S
H553 C547 0.929 . S
C554 O545 1.250 . S
C554 O546 1.258 . S
O555 Mn540 2.162 . S
O555 C543 1.281 . S
O556 Mn540 2.297 . S
O556 C543 1.236 . S
N557 Mn541 2.282 . S
N557 C558 1.328 . S
N557 C562 1.318 . S
C558 N557 1.328 . S
C558 C559 1.457 . S
C558 H563 0.929 . S
C559 C558 1.457 . S
C559 C560 1.291 . S
C559 H572 0.931 . S
C560 C559 1.291 . S
C560 C561 1.373 . S
C560 H573 0.929 . S
C561 C560 1.373 . S
C561 C562 1.396 . S
C561 C568 1.403 . S
C562 C552 1.476 . S
C562 N557 1.318 . S
C562 C561 1.396 . S
H563 C558 0.929 . S
O564 Mn540 2.385 . S
O564 C542 1.234 . S
O565 Mn540 2.209 . S
O565 Mn541 2.215 . S
O565 C542 1.283 . S
O566 Mn540 2.094 . S
O566 C544 1.240 . S
O567 Mn541 2.117 . S
O567 C544 1.264 . S
C568 C561 1.403 . S
C568 C569 1.399 . S
C568 H574 0.929 . S
C569 C549 1.449 . S
C569 C568 1.399 . S
C569 H575 0.930 . S
H570 C550 0.931 . S
H571 C551 0.930 . S
H572 C559 0.931 . S
H573 C560 0.929 . S
H574 C568 0.929 . S
H575 C569 0.930 . S
Mn576 O581 2.095 . S
Mn576 O591 2.162 . S
Mn576 O592 2.297 . S
Mn576 O600 2.385 . S
Mn576 O601 2.209 . S
Mn576 O602 2.094 . S
Mn577 O582 2.121 . S
Mn577 N584 2.257 . S
Mn577 N593 2.282 . S
Mn577 O601 2.215 . S
Mn577 O603 2.117 . S
C578 O600 1.234 . S
C578 O601 1.283 . S
C579 O591 1.281 . S
C579 O592 1.236 . S
C580 O602 1.240 . S
C580 O603 1.264 . S
O581 Mn576 2.095 . S
O581 C590 1.250 . S
O582 Mn577 2.121 . S
O582 C590 1.258 . S
C583 N584 1.326 . S
C583 C587 1.460 . S
C583 H589 0.929 . S
N584 Mn577 2.257 . S
N584 C583 1.326 . S
N584 C588 1.362 . S
C585 C586 1.258 . S
C585 C588 1.431 . S
C585 C605 1.449 . S
C586 C585 1.258 . S
C586 C587 1.477 . S
C586 H606 0.931 . S
C587 C583 1.460 . S
C587 C586 1.477 . S
C587 H607 0.930 . S
C588 N584 1.362 . S
C588 C585 1.431 . S
C588 C598 1.476 . S
H589 C583 0.929 . S
C590 O581 1.250 . S
C590 O582 1.258 . S
O591 Mn576 2.162 . S
O591 C579 1.281 . S
O592 Mn576 2.297 . S
O592 C579 1.236 . S
N593 Mn577 2.282 . S
N593 C594 1.328 . S
N593 C598 1.318 . S
C594 N593 1.328 . S
C594 C595 1.457 . S
C594 H599 0.929 . S
C595 C594 1.457 . S
C595 C596 1.291 . S
C595 H608 0.931 . S
C596 C595 1.291 . S
C596 C597 1.373 . S
C596 H609 0.929 . S
C597 C596 1.373 . S
C597 C598 1.396 . S
C597 C604 1.403 . S
C598 C588 1.476 . S
C598 N593 1.318 . S
C598 C597 1.396 . S
H599 C594 0.929 . S
O600 Mn576 2.385 . S
O600 C578 1.234 . S
O601 Mn576 2.209 . S
O601 Mn577 2.215 . S
O601 C578 1.283 . S
O602 Mn576 2.094 . S
O602 C580 1.240 . S
O603 Mn577 2.117 . S
O603 C580 1.264 . S
C604 C597 1.403 . S
C604 C605 1.399 . S
C604 H610 0.929 . S
C605 C585 1.449 . S
C605 C604 1.399 . S
C605 H611 0.930 . S
H606 C586 0.931 . S
H607 C587 0.930 . S
H608 C595 0.931 . S
H609 C596 0.929 . S
H610 C604 0.929 . S
H611 C605 0.930 . S
Mn612 O617 2.095 . S
Mn612 O627 2.162 . S
Mn612 O628 2.297 . S
Mn612 O636 2.385 . S
Mn612 O637 2.209 . S
Mn612 O638 2.094 . S
Mn613 O618 2.121 . S
Mn613 N620 2.257 . S
Mn613 N629 2.282 . S
Mn613 O637 2.215 . S
Mn613 O639 2.117 . S
C614 O636 1.234 . S
C614 O637 1.283 . S
C615 O627 1.281 . S
C615 O628 1.236 . S
C616 O638 1.240 . S
C616 O639 1.264 . S
O617 Mn612 2.095 . S
O617 C626 1.250 . S
O618 Mn613 2.121 . S
O618 C626 1.258 . S
C619 N620 1.326 . S
C619 C623 1.460 . S
C619 H625 0.929 . S
N620 Mn613 2.257 . S
N620 C619 1.326 . S
N620 C624 1.362 . S
C621 C622 1.258 . S
C621 C624 1.431 . S
C621 C641 1.449 . S
C622 C621 1.258 . S
C622 C623 1.477 . S
C622 H642 0.931 . S
C623 C619 1.460 . S
C623 C622 1.477 . S
C623 H643 0.930 . S
C624 N620 1.362 . S
C624 C621 1.431 . S
C624 C634 1.476 . S
H625 C619 0.929 . S
C626 O617 1.250 . S
C626 O618 1.258 . S
O627 Mn612 2.162 . S
O627 C615 1.281 . S
O628 Mn612 2.297 . S
O628 C615 1.236 . S
N629 Mn613 2.282 . S
N629 C630 1.328 . S
N629 C634 1.318 . S
C630 N629 1.328 . S
C630 C631 1.457 . S
C630 H635 0.929 . S
C631 C630 1.457 . S
C631 C632 1.291 . S
C631 H644 0.931 . S
C632 C631 1.291 . S
C632 C633 1.373 . S
C632 H645 0.929 . S
C633 C632 1.373 . S
C633 C634 1.396 . S
C633 C640 1.403 . S
C634 C624 1.476 . S
C634 N629 1.318 . S
C634 C633 1.396 . S
H635 C630 0.929 . S
O636 Mn612 2.385 . S
O636 C614 1.234 . S
O637 Mn612 2.209 . S
O637 Mn613 2.215 . S
O637 C614 1.283 . S
O638 Mn612 2.094 . S
O638 C616 1.240 . S
O639 Mn613 2.117 . S
O639 C616 1.264 . S
C640 C633 1.403 . S
C640 C641 1.399 . S
C640 H646 0.929 . S
C641 C621 1.449 . S
C641 C640 1.399 . S
C641 H647 0.930 . S
H642 C622 0.931 . S
H643 C623 0.930 . S
H644 C631 0.931 . S
H645 C632 0.929 . S
H646 C640 0.929 . S
H647 C641 0.930 . S
Mn648 O653 2.095 . S
Mn648 O663 2.162 . S
Mn648 O664 2.297 . S
Mn648 O672 2.385 . S
Mn648 O673 2.209 . S
Mn648 O674 2.094 . S
Mn649 O654 2.121 . S
Mn649 N656 2.257 . S
Mn649 N665 2.282 . S
Mn649 O673 2.215 . S
Mn649 O675 2.117 . S
C650 O672 1.234 . S
C650 O673 1.283 . S
C651 O663 1.281 . S
C651 O664 1.236 . S
C652 O674 1.240 . S
C652 O675 1.264 . S
O653 Mn648 2.095 . S
O653 C662 1.250 . S
O654 Mn649 2.121 . S
O654 C662 1.258 . S
C655 N656 1.326 . S
C655 C659 1.460 . S
C655 H661 0.929 . S
N656 Mn649 2.257 . S
N656 C655 1.326 . S
N656 C660 1.362 . S
C657 C658 1.258 . S
C657 C660 1.431 . S
C657 C677 1.449 . S
C658 C657 1.258 . S
C658 C659 1.477 . S
C658 H678 0.931 . S
C659 C655 1.460 . S
C659 C658 1.477 . S
C659 H679 0.930 . S
C660 N656 1.362 . S
C660 C657 1.431 . S
C660 C670 1.476 . S
H661 C655 0.929 . S
C662 O653 1.250 . S
C662 O654 1.258 . S
O663 Mn648 2.162 . S
O663 C651 1.281 . S
O664 Mn648 2.297 . S
O664 C651 1.236 . S
N665 Mn649 2.282 . S
N665 C666 1.328 . S
N665 C670 1.318 . S
C666 N665 1.328 . S
C666 C667 1.457 . S
C666 H671 0.929 . S
C667 C666 1.457 . S
C667 C668 1.291 . S
C667 H680 0.931 . S
C668 C667 1.291 . S
C668 C669 1.373 . S
C668 H681 0.929 . S
C669 C668 1.373 . S
C669 C670 1.396 . S
C669 C676 1.403 . S
C670 C660 1.476 . S
C670 N665 1.318 . S
C670 C669 1.396 . S
H671 C666 0.929 . S
O672 Mn648 2.385 . S
O672 C650 1.234 . S
O673 Mn648 2.209 . S
O673 Mn649 2.215 . S
O673 C650 1.283 . S
O674 Mn648 2.094 . S
O674 C652 1.240 . S
O675 Mn649 2.117 . S
O675 C652 1.264 . S
C676 C669 1.403 . S
C676 C677 1.399 . S
C676 H682 0.929 . S
C677 C657 1.449 . S
C677 C676 1.399 . S
C677 H683 0.930 . S
H678 C658 0.931 . S
H679 C659 0.930 . S
H680 C667 0.931 . S
H681 C668 0.929 . S
H682 C676 0.929 . S
H683 C677 0.930 . S
Mn684 O689 2.095 . S
Mn684 O699 2.162 . S
Mn684 O700 2.297 . S
Mn684 O708 2.385 . S
Mn684 O709 2.209 . S
Mn684 O710 2.094 . S
Mn685 O690 2.121 . S
Mn685 N692 2.257 . S
Mn685 N701 2.282 . S
Mn685 O709 2.215 . S
Mn685 O711 2.117 . S
C686 O708 1.234 . S
C686 O709 1.283 . S
C687 O699 1.281 . S
C687 O700 1.236 . S
C688 O710 1.240 . S
C688 O711 1.264 . S
O689 Mn684 2.095 . S
O689 C698 1.250 . S
O690 Mn685 2.121 . S
O690 C698 1.258 . S
C691 N692 1.326 . S
C691 C695 1.460 . S
C691 H697 0.929 . S
N692 Mn685 2.257 . S
N692 C691 1.326 . S
N692 C696 1.362 . S
C693 C694 1.258 . S
C693 C696 1.431 . S
C693 C713 1.449 . S
C694 C693 1.258 . S
C694 C695 1.477 . S
C694 H714 0.931 . S
C695 C691 1.460 . S
C695 C694 1.477 . S
C695 H715 0.930 . S
C696 N692 1.362 . S
C696 C693 1.431 . S
C696 C706 1.476 . S
H697 C691 0.929 . S
C698 O689 1.250 . S
C698 O690 1.258 . S
O699 Mn684 2.162 . S
O699 C687 1.281 . S
O700 Mn684 2.297 . S
O700 C687 1.236 . S
N701 Mn685 2.282 . S
N701 C702 1.328 . S
N701 C706 1.318 . S
C702 N701 1.328 . S
C702 C703 1.457 . S
C702 H707 0.929 . S
C703 C702 1.457 . S
C703 C704 1.291 . S
C703 H716 0.931 . S
C704 C703 1.291 . S
C704 C705 1.373 . S
C704 H717 0.929 . S
C705 C704 1.373 . S
C705 C706 1.396 . S
C705 C712 1.403 . S
C706 C696 1.476 . S
C706 N701 1.318 . S
C706 C705 1.396 . S
H707 C702 0.929 . S
O708 Mn684 2.385 . S
O708 C686 1.234 . S
O709 Mn684 2.209 . S
O709 Mn685 2.215 . S
O709 C686 1.283 . S
O710 Mn684 2.094 . S
O710 C688 1.240 . S
O711 Mn685 2.117 . S
O711 C688 1.264 . S
C712 C705 1.403 . S
C712 C713 1.399 . S
C712 H718 0.929 . S
C713 C693 1.449 . S
C713 C712 1.399 . S
C713 H719 0.930 . S
H714 C694 0.931 . S
H715 C695 0.930 . S
H716 C703 0.931 . S
H717 C704 0.929 . S
H718 C712 0.929 . S
H719 C713 0.930 . S
Mn720 O725 2.095 . S
Mn720 O735 2.162 . S
Mn720 O736 2.297 . S
Mn720 O744 2.385 . S
Mn720 O745 2.209 . S
Mn720 O746 2.094 . S
Mn721 O726 2.121 . S
Mn721 N728 2.257 . S
Mn721 N737 2.282 . S
Mn721 O745 2.215 . S
Mn721 O747 2.117 . S
C722 O744 1.234 . S
C722 O745 1.283 . S
C723 O735 1.281 . S
C723 O736 1.236 . S
C724 O746 1.240 . S
C724 O747 1.264 . S
O725 Mn720 2.095 . S
O725 C734 1.250 . S
O726 Mn721 2.121 . S
O726 C734 1.258 . S
C727 N728 1.326 . S
C727 C731 1.460 . S
C727 H733 0.929 . S
N728 Mn721 2.257 . S
N728 C727 1.326 . S
N728 C732 1.362 . S
C729 C730 1.258 . S
C729 C732 1.431 . S
C729 C749 1.449 . S
C730 C729 1.258 . S
C730 C731 1.477 . S
C730 H750 0.931 . S
C731 C727 1.460 . S
C731 C730 1.477 . S
C731 H751 0.930 . S
C732 N728 1.362 . S
C732 C729 1.431 . S
C732 C742 1.476 . S
H733 C727 0.929 . S
C734 O725 1.250 . S
C734 O726 1.258 . S
O735 Mn720 2.162 . S
O735 C723 1.281 . S
O736 Mn720 2.297 . S
O736 C723 1.236 . S
N737 Mn721 2.282 . S
N737 C738 1.328 . S
N737 C742 1.318 . S
C738 N737 1.328 . S
C738 C739 1.457 . S
C738 H743 0.929 . S
C739 C738 1.457 . S
C739 C740 1.291 . S
C739 H752 0.931 . S
C740 C739 1.291 . S
C740 C741 1.373 . S
C740 H753 0.929 . S
C741 C740 1.373 . S
C741 C742 1.396 . S
C741 C748 1.403 . S
C742 C732 1.476 . S
C742 N737 1.318 . S
C742 C741 1.396 . S
H743 C738 0.929 . S
O744 Mn720 2.385 . S
O744 C722 1.234 . S
O745 Mn720 2.209 . S
O745 Mn721 2.215 . S
O745 C722 1.283 . S
O746 Mn720 2.094 . S
O746 C724 1.240 . S
O747 Mn721 2.117 . S
O747 C724 1.264 . S
C748 C741 1.403 . S
C748 C749 1.399 . S
C748 H754 0.929 . S
C749 C729 1.449 . S
C749 C748 1.399 . S
C749 H755 0.930 . S
H750 C730 0.931 . S
H751 C731 0.930 . S
H752 C739 0.931 . S
H753 C740 0.929 . S
H754 C748 0.929 . S
H755 C749 0.930 . S
Mn756 O761 2.095 . S
Mn756 O771 2.162 . S
Mn756 O772 2.297 . S
Mn756 O780 2.385 . S
Mn756 O781 2.209 . S
Mn756 O782 2.094 . S
Mn757 O762 2.121 . S
Mn757 N764 2.257 . S
Mn757 N773 2.282 . S
Mn757 O781 2.215 . S
Mn757 O783 2.117 . S
C758 O780 1.234 . S
C758 O781 1.283 . S
C759 O771 1.281 . S
C759 O772 1.236 . S
C760 O782 1.240 . S
C760 O783 1.264 . S
O761 Mn756 2.095 . S
O761 C770 1.250 . S
O762 Mn757 2.121 . S
O762 C770 1.258 . S
C763 N764 1.326 . S
C763 C767 1.460 . S
C763 H769 0.929 . S
N764 Mn757 2.257 . S
N764 C763 1.326 . S
N764 C768 1.362 . S
C765 C766 1.258 . S
C765 C768 1.431 . S
C765 C785 1.449 . S
C766 C765 1.258 . S
C766 C767 1.477 . S
C766 H786 0.931 . S
C767 C763 1.460 . S
C767 C766 1.477 . S
C767 H787 0.930 . S
C768 N764 1.362 . S
C768 C765 1.431 . S
C768 C778 1.476 . S
H769 C763 0.929 . S
C770 O761 1.250 . S
C770 O762 1.258 . S
O771 Mn756 2.162 . S
O771 C759 1.281 . S
O772 Mn756 2.297 . S
O772 C759 1.236 . S
N773 Mn757 2.282 . S
N773 C774 1.328 . S
N773 C778 1.318 . S
C774 N773 1.328 . S
C774 C775 1.457 . S
C774 H779 0.929 . S
C775 C774 1.457 . S
C775 C776 1.291 . S
C775 H788 0.931 . S
C776 C775 1.291 . S
C776 C777 1.373 . S
C776 H789 0.929 . S
C777 C776 1.373 . S
C777 C778 1.396 . S
C777 C784 1.403 . S
C778 C768 1.476 . S
C778 N773 1.318 . S
C778 C777 1.396 . S
H779 C774 0.929 . S
O780 Mn756 2.385 . S
O780 C758 1.234 . S
O781 Mn756 2.209 . S
O781 Mn757 2.215 . S
O781 C758 1.283 . S
O782 Mn756 2.094 . S
O782 C760 1.240 . S
O783 Mn757 2.117 . S
O783 C760 1.264 . S
C784 C777 1.403 . S
C784 C785 1.399 . S
C784 H790 0.929 . S
C785 C765 1.449 . S
C785 C784 1.399 . S
C785 H791 0.930 . S
H786 C766 0.931 . S
H787 C767 0.930 . S
H788 C775 0.931 . S
H789 C776 0.929 . S
H790 C784 0.929 . S
H791 C785 0.930 . S
Mn792 O797 2.095 . S
Mn792 O807 2.162 . S
Mn792 O808 2.297 . S
Mn792 O816 2.385 . S
Mn792 O817 2.209 . S
Mn792 O818 2.094 . S
Mn793 O798 2.121 . S
Mn793 N800 2.257 . S
Mn793 N809 2.282 . S
Mn793 O817 2.215 . S
Mn793 O819 2.117 . S
C794 O816 1.234 . S
C794 O817 1.283 . S
C795 O807 1.281 . S
C795 O808 1.236 . S
C796 O818 1.240 . S
C796 O819 1.264 . S
O797 Mn792 2.095 . S
O797 C806 1.250 . S
O798 Mn793 2.121 . S
O798 C806 1.258 . S
C799 N800 1.326 . S
C799 C803 1.460 . S
C799 H805 0.929 . S
N800 Mn793 2.257 . S
N800 C799 1.326 . S
N800 C804 1.362 . S
C801 C802 1.258 . S
C801 C804 1.431 . S
C801 C821 1.449 . S
C802 C801 1.258 . S
C802 C803 1.477 . S
C802 H822 0.931 . S
C803 C799 1.460 . S
C803 C802 1.477 . S
C803 H823 0.930 . S
C804 N800 1.362 . S
C804 C801 1.431 . S
C804 C814 1.476 . S
H805 C799 0.929 . S
C806 O797 1.250 . S
C806 O798 1.258 . S
O807 Mn792 2.162 . S
O807 C795 1.281 . S
O808 Mn792 2.297 . S
O808 C795 1.236 . S
N809 Mn793 2.282 . S
N809 C810 1.328 . S
N809 C814 1.318 . S
C810 N809 1.328 . S
C810 C811 1.457 . S
C810 H815 0.929 . S
C811 C810 1.457 . S
C811 C812 1.291 . S
C811 H824 0.931 . S
C812 C811 1.291 . S
C812 C813 1.373 . S
C812 H825 0.929 . S
C813 C812 1.373 . S
C813 C814 1.396 . S
C813 C820 1.403 . S
C814 C804 1.476 . S
C814 N809 1.318 . S
C814 C813 1.396 . S
H815 C810 0.929 . S
O816 Mn792 2.385 . S
O816 C794 1.234 . S
O817 Mn792 2.209 . S
O817 Mn793 2.215 . S
O817 C794 1.283 . S
O818 Mn792 2.094 . S
O818 C796 1.240 . S
O819 Mn793 2.117 . S
O819 C796 1.264 . S
C820 C813 1.403 . S
C820 C821 1.399 . S
C820 H826 0.929 . S
C821 C801 1.449 . S
C821 C820 1.399 . S
C821 H827 0.930 . S
H822 C802 0.931 . S
H823 C803 0.930 . S
H824 C811 0.931 . S
H825 C812 0.929 . S
H826 C820 0.929 . S
H827 C821 0.930 . S
Mn828 O833 2.095 . S
Mn828 O843 2.162 . S
Mn828 O844 2.297 . S
Mn828 O852 2.385 . S
Mn828 O853 2.209 . S
Mn828 O854 2.094 . S
Mn829 O834 2.121 . S
Mn829 N836 2.257 . S
Mn829 N845 2.282 . S
Mn829 O853 2.215 . S
Mn829 O855 2.117 . S
C830 O852 1.234 . S
C830 O853 1.283 . S
C831 O843 1.281 . S
C831 O844 1.236 . S
C832 O854 1.240 . S
C832 O855 1.264 . S
O833 Mn828 2.095 . S
O833 C842 1.250 . S
O834 Mn829 2.121 . S
O834 C842 1.258 . S
C835 N836 1.326 . S
C835 C839 1.460 . S
C835 H841 0.929 . S
N836 Mn829 2.257 . S
N836 C835 1.326 . S
N836 C840 1.362 . S
C837 C838 1.258 . S
C837 C840 1.431 . S
C837 C857 1.449 . S
C838 C837 1.258 . S
C838 C839 1.477 . S
C838 H858 0.931 . S
C839 C835 1.460 . S
C839 C838 1.477 . S
C839 H859 0.930 . S
C840 N836 1.362 . S
C840 C837 1.431 . S
C840 C850 1.476 . S
H841 C835 0.929 . S
C842 O833 1.250 . S
C842 O834 1.258 . S
O843 Mn828 2.162 . S
O843 C831 1.281 . S
O844 Mn828 2.297 . S
O844 C831 1.236 . S
N845 Mn829 2.282 . S
N845 C846 1.328 . S
N845 C850 1.318 . S
C846 N845 1.328 . S
C846 C847 1.457 . S
C846 H851 0.929 . S
C847 C846 1.457 . S
C847 C848 1.291 . S
C847 H860 0.931 . S
C848 C847 1.291 . S
C848 C849 1.373 . S
C848 H861 0.929 . S
C849 C848 1.373 . S
C849 C850 1.396 . S
C849 C856 1.403 . S
C850 C840 1.476 . S
C850 N845 1.318 . S
C850 C849 1.396 . S
H851 C846 0.929 . S
O852 Mn828 2.385 . S
O852 C830 1.234 . S
O853 Mn828 2.209 . S
O853 Mn829 2.215 . S
O853 C830 1.283 . S
O854 Mn828 2.094 . S
O854 C832 1.240 . S
O855 Mn829 2.117 . S
O855 C832 1.264 . S
C856 C849 1.403 . S
C856 C857 1.399 . S
C856 H862 0.929 . S
C857 C837 1.449 . S
C857 C856 1.399 . S
C857 H863 0.930 . S
H858 C838 0.931 . S
H859 C839 0.930 . S
H860 C847 0.931 . S
H861 C848 0.929 . S
H862 C856 0.929 . S
H863 C857 0.930 . S
H864 C872 0.950 . S
H865 C877 0.950 . S
H866 C874 0.950 . S
H867 C876 0.950 . S
H868 C878 0.950 . S
H869 C880 0.950 . S
H870 C882 0.950 . S
H871 C883 0.950 . S
C872 H864 0.950 . S
C872 C873 1.386 . S
C872 C874 1.391 . S
C873 C872 1.386 . S
C873 C877 1.393 . S
C874 H866 0.950 . S
C874 C872 1.391 . S
C874 C875 1.400 . S
C875 C874 1.400 . S
C875 C876 1.398 . S
C875 C881 1.491 . S
C876 H867 0.950 . S
C876 C875 1.398 . S
C876 C877 1.391 . S
C877 H865 0.950 . S
C877 C873 1.393 . S
C877 C876 1.391 . S
C878 H868 0.950 . S
C878 C879 1.386 . S
C878 C880 1.391 . S
C879 C878 1.386 . S
C879 C883 1.393 . S
C880 H869 0.950 . S
C880 C878 1.391 . S
C880 C881 1.400 . S
C881 C875 1.491 . S
C881 C880 1.400 . S
C881 C882 1.398 . S
C882 H870 0.950 . S
C882 C881 1.398 . S
C882 C883 1.391 . S
C883 H871 0.950 . S
C883 C879 1.393 . S
C883 C882 1.391 . S
H884 C892 0.950 . S
H885 C897 0.950 . S
H886 C894 0.950 . S
H887 C896 0.950 . S
H888 C898 0.950 . S
H889 C900 0.950 . S
H890 C902 0.950 . S
H891 C903 0.950 . S
C892 H884 0.950 . S
C892 C893 1.386 . S
C892 C894 1.391 . S
C893 C892 1.386 . S
C893 C897 1.393 . S
C894 H886 0.950 . S
C894 C892 1.391 . S
C894 C895 1.400 . S
C895 C894 1.400 . S
C895 C896 1.398 . S
C895 C901 1.491 1_655 S
C896 H887 0.950 . S
C896 C895 1.398 . S
C896 C897 1.391 . S
C897 H885 0.950 . S
C897 C893 1.393 . S
C897 C896 1.391 . S
C898 H888 0.950 . S
C898 C899 1.386 . S
C898 C900 1.391 . S
C899 C898 1.386 . S
C899 C903 1.393 . S
C900 H889 0.950 . S
C900 C898 1.391 . S
C900 C901 1.400 . S
C901 C895 1.491 1_455 S
C901 C900 1.400 . S
C901 C902 1.398 . S
C902 H890 0.950 . S
C902 C901 1.398 . S
C902 C903 1.391 . S
C903 H891 0.950 . S
C903 C899 1.393 . S
C903 C902 1.391 . S
H904 C912 0.950 . S
H905 C917 0.950 . S
H906 C914 0.950 . S
H907 C916 0.950 . S
H908 C918 0.950 . S
H909 C920 0.950 . S
H910 C922 0.950 . S
H911 C923 0.950 . S
C912 H904 0.950 . S
C912 C913 1.386 . S
C912 C914 1.391 . S
C913 C912 1.386 . S
C913 C917 1.393 . S
C914 H906 0.950 . S
C914 C912 1.391 . S
C914 C915 1.400 . S
C915 C914 1.400 . S
C915 C916 1.398 . S
C915 C921 1.491 . S
C916 H907 0.950 . S
C916 C915 1.398 . S
C916 C917 1.391 . S
C917 H905 0.950 . S
C917 C913 1.393 . S
C917 C916 1.391 . S
C918 H908 0.950 . S
C918 C919 1.386 . S
C918 C920 1.391 . S
C919 C918 1.386 . S
C919 C923 1.393 . S
C920 H909 0.950 . S
C920 C918 1.391 . S
C920 C921 1.400 . S
C921 C915 1.491 . S
C921 C920 1.400 . S
C921 C922 1.398 . S
C922 H910 0.950 . S
C922 C921 1.398 . S
C922 C923 1.391 . S
C923 H911 0.950 . S
C923 C919 1.393 . S
C923 C922 1.391 . S
H924 C932 0.950 . S
H925 C937 0.950 . S
H926 C934 0.950 . S
H927 C936 0.950 . S
H928 C938 0.950 . S
H929 C940 0.950 . S
H930 C942 0.950 . S
H931 C943 0.950 . S
C932 H924 0.950 . S
C932 C933 1.386 . S
C932 C934 1.391 . S
C933 C932 1.386 . S
C933 C937 1.393 . S
C934 H926 0.950 . S
C934 C932 1.391 . S
C934 C935 1.400 . S
C935 C934 1.400 . S
C935 C936 1.398 . S
C935 C941 1.491 1_455 S
C936 H927 0.950 . S
C936 C935 1.398 . S
C936 C937 1.391 . S
C937 H925 0.950 . S
C937 C933 1.393 . S
C937 C936 1.391 . S
C938 H928 0.950 . S
C938 C939 1.386 . S
C938 C940 1.391 . S
C939 C938 1.386 . S
C939 C943 1.393 . S
C940 H929 0.950 . S
C940 C938 1.391 . S
C940 C941 1.400 . S
C941 C935 1.491 1_655 S
C941 C940 1.400 . S
C941 C942 1.398 . S
C942 H930 0.950 . S
C942 C941 1.398 . S
C942 C943 1.391 . S
C943 H931 0.950 . S
C943 C939 1.393 . S
C943 C942 1.391 . S
H944 C952 0.950 . S
H945 C957 0.950 . S
H946 C954 0.950 . S
H947 C956 0.950 . S
H948 C958 0.950 . S
H949 C960 0.950 . S
H950 C962 0.950 . S
H951 C963 0.950 . S
C952 H944 0.950 . S
C952 C953 1.386 . S
C952 C954 1.391 . S
C953 C952 1.386 . S
C953 C957 1.393 . S
C954 H946 0.950 . S
C954 C952 1.391 . S
C954 C955 1.400 . S
C955 C954 1.400 . S
C955 C956 1.398 . S
C955 C961 1.491 . S
C956 H947 0.950 . S
C956 C955 1.398 . S
C956 C957 1.391 . S
C957 H945 0.950 . S
C957 C953 1.393 . S
C957 C956 1.391 . S
C958 H948 0.950 . S
C958 C959 1.386 . S
C958 C960 1.391 . S
C959 C958 1.386 . S
C959 C963 1.393 . S
C960 H949 0.950 . S
C960 C958 1.391 . S
C960 C961 1.400 . S
C961 C955 1.491 . S
C961 C960 1.400 . S
C961 C962 1.398 . S
C962 H950 0.950 . S
C962 C961 1.398 . S
C962 C963 1.391 . S
C963 H951 0.950 . S
C963 C959 1.393 . S
C963 C962 1.391 . S
H964 C972 0.950 . S
H965 C977 0.950 . S
H966 C974 0.950 . S
H967 C976 0.950 . S
H968 C978 0.950 . S
H969 C980 0.950 . S
H970 C982 0.950 . S
H971 C983 0.950 . S
C972 H964 0.950 . S
C972 C973 1.386 . S
C972 C974 1.391 . S
C973 C972 1.386 . S
C973 C977 1.393 . S
C974 H966 0.950 . S
C974 C972 1.391 . S
C974 C975 1.400 1_655 S
C975 C974 1.400 1_455 S
C975 C976 1.398 1_455 S
C975 C981 1.491 . S
C976 H967 0.950 . S
C976 C975 1.398 1_655 S
C976 C977 1.391 . S
C977 H965 0.950 . S
C977 C973 1.393 . S
C977 C976 1.391 . S
C978 H968 0.950 . S
C978 C979 1.386 . S
C978 C980 1.391 . S
C979 C978 1.386 . S
C979 C983 1.393 . S
C980 H969 0.950 . S
C980 C978 1.391 . S
C980 C981 1.400 . S
C981 C975 1.491 . S
C981 C980 1.400 . S
C981 C982 1.398 . S
C982 H970 0.950 . S
C982 C981 1.398 . S
C982 C983 1.391 . S
C983 H971 0.950 . S
C983 C979 1.393 . S
C983 C982 1.391 . S
H984 C992 0.950 . S
H985 C997 0.950 . S
H986 C994 0.950 . S
H987 C996 0.950 . S
H988 C998 0.950 . S
H989 C1000 0.950 . S
H990 C1002 0.950 . S
H991 C1003 0.950 . S
C992 H984 0.950 . S
C992 C993 1.386 . S
C992 C994 1.391 . S
C993 C992 1.386 . S
C993 C997 1.393 . S
C994 H986 0.950 . S
C994 C992 1.391 . S
C994 C995 1.400 . S
C995 C994 1.400 . S
C995 C996 1.398 . S
C995 C1001 1.491 . S
C996 H987 0.950 . S
C996 C995 1.398 . S
C996 C997 1.391 . S
C997 H985 0.950 . S
C997 C993 1.393 . S
C997 C996 1.391 . S
C998 H988 0.950 . S
C998 C999 1.386 . S
C998 C1000 1.391 . S
C999 C998 1.386 . S
C999 C1003 1.393 . S
C1000 H989 0.950 . S
C1000 C998 1.391 . S
C1000 C1001 1.400 . S
C1001 C995 1.491 . S
C1001 C1000 1.400 . S
C1001 C1002 1.398 . S
C1002 H990 0.950 . S
C1002 C1001 1.398 . S
C1002 C1003 1.391 . S
C1003 H991 0.950 . S
C1003 C999 1.393 . S
C1003 C1002 1.391 . S
H1004 C1012 0.950 . S
H1005 C1017 0.950 . S
H1006 C1014 0.950 . S
H1007 C1016 0.950 . S
H1008 C1018 0.950 . S
H1009 C1020 0.950 . S
H1010 C1022 0.950 . S
H1011 C1023 0.950 . S
C1012 H1004 0.950 . S
C1012 C1013 1.386 . S
C1012 C1014 1.391 . S
C1013 C1012 1.386 . S
C1013 C1017 1.393 . S
C1014 H1006 0.950 . S
C1014 C1012 1.391 . S
C1014 C1015 1.400 . S
C1015 C1014 1.400 . S
C1015 C1016 1.398 . S
C1015 C1021 1.491 1_655 S
C1016 H1007 0.950 . S
C1016 C1015 1.398 . S
C1016 C1017 1.391 . S
C1017 H1005 0.950 . S
C1017 C1013 1.393 . S
C1017 C1016 1.391 . S
C1018 H1008 0.950 . S
C1018 C1019 1.386 . S
C1018 C1020 1.391 . S
C1019 C1018 1.386 . S
C1019 C1023 1.393 . S
C1020 H1009 0.950 . S
C1020 C1018 1.391 . S
C1020 C1021 1.400 . S
C1021 C1015 1.491 1_455 S
C1021 C1020 1.400 . S
C1021 C1022 1.398 . S
C1022 H1010 0.950 . S
C1022 C1021 1.398 . S
C1022 C1023 1.391 . S
C1023 H1011 0.950 . S
C1023 C1019 1.393 . S
C1023 C1022 1.391 . S
H1024 C1032 0.950 . S
H1025 C1037 0.950 . S
H1026 C1034 0.950 . S
H1027 C1036 0.950 . S
H1028 C1038 0.950 . S
H1029 C1040 0.950 . S
H1030 C1042 0.950 . S
H1031 C1043 0.950 . S
C1032 H1024 0.950 . S
C1032 C1033 1.386 . S
C1032 C1034 1.391 . S
C1033 C1032 1.386 . S
C1033 C1037 1.393 . S
C1034 H1026 0.950 . S
C1034 C1032 1.391 . S
C1034 C1035 1.400 . S
C1035 C1034 1.400 . S
C1035 C1036 1.398 . S
C1035 C1041 1.491 . S
C1036 H1027 0.950 . S
C1036 C1035 1.398 . S
C1036 C1037 1.391 . S
C1037 H1025 0.950 . S
C1037 C1033 1.393 . S
C1037 C1036 1.391 . S
C1038 H1028 0.950 . S
C1038 C1039 1.386 . S
C1038 C1040 1.391 . S
C1039 C1038 1.386 . S
C1039 C1043 1.393 . S
C1040 H1029 0.950 . S
C1040 C1038 1.391 . S
C1040 C1041 1.400 . S
C1041 C1035 1.491 . S
C1041 C1040 1.400 . S
C1041 C1042 1.398 . S
C1042 H1030 0.950 . S
C1042 C1041 1.398 . S
C1042 C1043 1.391 . S
C1043 H1031 0.950 . S
C1043 C1039 1.393 . S
C1043 C1042 1.391 . S
H1044 C1052 0.950 . S
H1045 C1057 0.950 . S
H1046 C1054 0.950 . S
H1047 C1056 0.950 . S
H1048 C1058 0.950 . S
H1049 C1060 0.950 . S
H1050 C1062 0.950 . S
H1051 C1063 0.950 . S
C1052 H1044 0.950 . S
C1052 C1053 1.386 . S
C1052 C1054 1.391 . S
C1053 C1052 1.386 . S
C1053 C1057 1.393 . S
C1054 H1046 0.950 . S
C1054 C1052 1.391 . S
C1054 C1055 1.400 . S
C1055 C1054 1.400 . S
C1055 C1056 1.398 . S
C1055 C1061 1.491 1_556 S
C1056 H1047 0.950 . S
C1056 C1055 1.398 . S
C1056 C1057 1.391 . S
C1057 H1045 0.950 . S
C1057 C1053 1.393 . S
C1057 C1056 1.391 . S
C1058 H1048 0.950 . S
C1058 C1059 1.386 . S
C1058 C1060 1.391 . S
C1059 C1058 1.386 . S
C1059 C1063 1.393 . S
C1060 H1049 0.950 . S
C1060 C1058 1.391 . S
C1060 C1061 1.400 . S
C1061 C1055 1.491 1_554 S
C1061 C1060 1.400 . S
C1061 C1062 1.398 . S
C1062 H1050 0.950 . S
C1062 C1061 1.398 . S
C1062 C1063 1.391 . S
C1063 H1051 0.950 . S
C1063 C1059 1.393 . S
C1063 C1062 1.391 . S
H1064 C1072 0.950 . S
H1065 C1077 0.950 . S
H1066 C1074 0.950 . S
H1067 C1076 0.950 . S
H1068 C1078 0.950 . S
H1069 C1080 0.950 . S
H1070 C1082 0.950 . S
H1071 C1083 0.950 . S
C1072 H1064 0.950 . S
C1072 C1073 1.386 . S
C1072 C1074 1.391 . S
C1073 C1072 1.386 . S
C1073 C1077 1.393 . S
C1074 H1066 0.950 . S
C1074 C1072 1.391 . S
C1074 C1075 1.400 . S
C1075 C1074 1.400 . S
C1075 C1076 1.398 . S
C1075 C1081 1.491 . S
C1076 H1067 0.950 . S
C1076 C1075 1.398 . S
C1076 C1077 1.391 . S
C1077 H1065 0.950 . S
C1077 C1073 1.393 . S
C1077 C1076 1.391 . S
C1078 H1068 0.950 . S
C1078 C1079 1.386 . S
C1078 C1080 1.391 . S
C1079 C1078 1.386 . S
C1079 C1083 1.393 . S
C1080 H1069 0.950 . S
C1080 C1078 1.391 . S
C1080 C1081 1.400 . S
C1081 C1075 1.491 . S
C1081 C1080 1.400 . S
C1081 C1082 1.398 . S
C1082 H1070 0.950 . S
C1082 C1081 1.398 . S
C1082 C1083 1.391 . S
C1083 H1071 0.950 . S
C1083 C1079 1.393 . S
C1083 C1082 1.391 . S
H1084 C1092 0.950 . S
H1085 C1097 0.950 . S
H1086 C1094 0.950 . S
H1087 C1096 0.950 . S
H1088 C1098 0.950 . S
H1089 C1100 0.950 . S
H1090 C1102 0.950 . S
H1091 C1103 0.950 . S
C1092 H1084 0.950 . S
C1092 C1093 1.386 . S
C1092 C1094 1.391 . S
C1093 C1092 1.386 . S
C1093 C1097 1.393 . S
C1094 H1086 0.950 . S
C1094 C1092 1.391 . S
C1094 C1095 1.400 . S
C1095 C1094 1.400 . S
C1095 C1096 1.398 . S
C1095 C1101 1.491 1_554 S
C1096 H1087 0.950 . S
C1096 C1095 1.398 . S
C1096 C1097 1.391 . S
C1097 H1085 0.950 . S
C1097 C1093 1.393 . S
C1097 C1096 1.391 . S
C1098 H1088 0.950 . S
C1098 C1099 1.386 . S
C1098 C1100 1.391 . S
C1099 C1098 1.386 . S
C1099 C1103 1.393 . S
C1100 H1089 0.950 . S
C1100 C1098 1.391 . S
C1100 C1101 1.400 . S
C1101 C1095 1.491 1_556 S
C1101 C1100 1.400 . S
C1101 C1102 1.398 . S
C1102 H1090 0.950 . S
C1102 C1101 1.398 . S
C1102 C1103 1.391 . S
C1103 H1091 0.950 . S
C1103 C1099 1.393 . S
C1103 C1102 1.391 . S
H1104 C1112 0.950 . S
H1105 C1117 0.950 . S
H1106 C1114 0.950 . S
H1107 C1116 0.950 . S
H1108 C1118 0.950 . S
H1109 C1120 0.950 . S
H1110 C1122 0.950 . S
H1111 C1123 0.950 . S
C1112 H1104 0.950 . S
C1112 C1113 1.386 . S
C1112 C1114 1.391 . S
C1113 C1112 1.386 . S
C1113 C1117 1.393 . S
C1114 H1106 0.950 . S
C1114 C1112 1.391 . S
C1114 C1115 1.400 . S
C1115 C1114 1.400 . S
C1115 C1116 1.398 . S
C1115 C1121 1.491 . S
C1116 H1107 0.950 . S
C1116 C1115 1.398 . S
C1116 C1117 1.391 . S
C1117 H1105 0.950 . S
C1117 C1113 1.393 . S
C1117 C1116 1.391 . S
C1118 H1108 0.950 . S
C1118 C1119 1.386 . S
C1118 C1120 1.391 . S
C1119 C1118 1.386 . S
C1119 C1123 1.393 . S
C1120 H1109 0.950 . S
C1120 C1118 1.391 . S
C1120 C1121 1.400 . S
C1121 C1115 1.491 . S
C1121 C1120 1.400 . S
C1121 C1122 1.398 . S
C1122 H1110 0.950 . S
C1122 C1121 1.398 . S
C1122 C1123 1.391 . S
C1123 H1111 0.950 . S
C1123 C1119 1.393 . S
C1123 C1122 1.391 . S
H1124 C1132 0.950 . S
H1125 C1137 0.950 . S
H1126 C1134 0.950 . S
H1127 C1136 0.950 . S
H1128 C1138 0.950 . S
H1129 C1140 0.950 . S
H1130 C1142 0.950 . S
H1131 C1143 0.950 . S
C1132 H1124 0.950 . S
C1132 C1133 1.386 . S
C1132 C1134 1.391 . S
C1133 C1132 1.386 . S
C1133 C1137 1.393 . S
C1134 H1126 0.950 . S
C1134 C1132 1.391 . S
C1134 C1135 1.400 . S
C1135 C1134 1.400 . S
C1135 C1136 1.398 . S
C1135 C1141 1.491 1_554 S
C1136 H1127 0.950 . S
C1136 C1135 1.398 . S
C1136 C1137 1.391 . S
C1137 H1125 0.950 . S
C1137 C1133 1.393 . S
C1137 C1136 1.391 . S
C1138 H1128 0.950 . S
C1138 C1139 1.386 . S
C1138 C1140 1.391 . S
C1139 C1138 1.386 . S
C1139 C1143 1.393 . S
C1140 H1129 0.950 . S
C1140 C1138 1.391 . S
C1140 C1141 1.400 . S
C1141 C1135 1.491 1_556 S
C1141 C1140 1.400 . S
C1141 C1142 1.398 . S
C1142 H1130 0.950 . S
C1142 C1141 1.398 . S
C1142 C1143 1.391 . S
C1143 H1131 0.950 . S
C1143 C1139 1.393 . S
C1143 C1142 1.391 . S
H1144 C1152 0.950 . S
H1145 C1157 0.950 . S
H1146 C1154 0.950 . S
H1147 C1156 0.950 . S
H1148 C1158 0.950 . S
H1149 C1160 0.950 . S
H1150 C1162 0.950 . S
H1151 C1163 0.950 . S
C1152 H1144 0.950 . S
C1152 C1153 1.386 . S
C1152 C1154 1.391 . S
C1153 C1152 1.386 . S
C1153 C1157 1.393 . S
C1154 H1146 0.950 . S
C1154 C1152 1.391 . S
C1154 C1155 1.400 . S
C1155 C1154 1.400 . S
C1155 C1156 1.398 . S
C1155 C1161 1.491 . S
C1156 H1147 0.950 . S
C1156 C1155 1.398 . S
C1156 C1157 1.391 . S
C1157 H1145 0.950 . S
C1157 C1153 1.393 . S
C1157 C1156 1.391 . S
C1158 H1148 0.950 . S
C1158 C1159 1.386 . S
C1158 C1160 1.391 . S
C1159 C1158 1.386 . S
C1159 C1163 1.393 . S
C1160 H1149 0.950 . S
C1160 C1158 1.391 . S
C1160 C1161 1.400 . S
C1161 C1155 1.491 . S
C1161 C1160 1.400 . S
C1161 C1162 1.398 . S
C1162 H1150 0.950 . S
C1162 C1161 1.398 . S
C1162 C1163 1.391 . S
C1163 H1151 0.950 . S
C1163 C1159 1.393 . S
C1163 C1162 1.391 . S
H1164 C1172 0.950 . S
H1165 C1177 0.950 . S
H1166 C1174 0.950 . S
H1167 C1176 0.950 . S
H1168 C1178 0.950 . S
H1169 C1180 0.950 . S
H1170 C1182 0.950 . S
H1171 C1183 0.950 . S
C1172 H1164 0.950 . S
C1172 C1173 1.386 . S
C1172 C1174 1.391 . S
C1173 C1172 1.386 . S
C1173 C1177 1.393 . S
C1174 H1166 0.950 . S
C1174 C1172 1.391 . S
C1174 C1175 1.400 . S
C1175 C1174 1.400 . S
C1175 C1176 1.398 . S
C1175 C1181 1.491 1_554 S
C1176 H1167 0.950 . S
C1176 C1175 1.398 . S
C1176 C1177 1.391 . S
C1177 H1165 0.950 . S
C1177 C1173 1.393 . S
C1177 C1176 1.391 . S
C1178 H1168 0.950 . S
C1178 C1179 1.386 . S
C1178 C1180 1.391 . S
C1179 C1178 1.386 . S
C1179 C1183 1.393 . S
C1180 H1169 0.950 . S
C1180 C1178 1.391 . S
C1180 C1181 1.400 . S
C1181 C1175 1.491 1_556 S
C1181 C1180 1.400 . S
C1181 C1182 1.398 . S
C1182 H1170 0.950 . S
C1182 C1181 1.398 . S
C1182 C1183 1.391 . S
C1183 H1171 0.950 . S
C1183 C1179 1.393 . S
C1183 C1182 1.391 . S
H1184 C1192 0.950 . S
H1185 C1197 0.950 . S
H1186 C1194 0.950 . S
H1187 C1196 0.950 . S
H1188 C1198 0.950 . S
H1189 C1200 0.950 . S
H1190 C1202 0.950 . S
H1191 C1203 0.950 . S
C1192 H1184 0.950 . S
C1192 C1193 1.386 . S
C1192 C1194 1.391 . S
C1193 C1192 1.386 . S
C1193 C1197 1.393 . S
C1194 H1186 0.950 . S
C1194 C1192 1.391 . S
C1194 C1195 1.400 . S
C1195 C1194 1.400 . S
C1195 C1196 1.398 . S
C1195 C1201 1.491 . S
C1196 H1187 0.950 . S
C1196 C1195 1.398 . S
C1196 C1197 1.391 . S
C1197 H1185 0.950 . S
C1197 C1193 1.393 . S
C1197 C1196 1.391 . S
C1198 H1188 0.950 . S
C1198 C1199 1.386 . S
C1198 C1200 1.391 . S
C1199 C1198 1.386 . S
C1199 C1203 1.393 . S
C1200 H1189 0.950 . S
C1200 C1198 1.391 . S
C1200 C1201 1.400 . S
C1201 C1195 1.491 . S
C1201 C1200 1.400 . S
C1201 C1202 1.398 . S
C1202 H1190 0.950 . S
C1202 C1201 1.398 . S
C1202 C1203 1.391 . S
C1203 H1191 0.950 . S
C1203 C1199 1.393 . S
C1203 C1202 1.391 . S
H1204 C1212 0.950 . S
H1205 C1217 0.950 . S
H1206 C1214 0.950 . S
H1207 C1216 0.950 . S
H1208 C1218 0.950 . S
H1209 C1220 0.950 . S
H1210 C1222 0.950 . S
H1211 C1223 0.950 . S
C1212 H1204 0.950 . S
C1212 C1213 1.386 . S
C1212 C1214 1.391 . S
C1213 C1212 1.386 . S
C1213 C1217 1.393 . S
C1214 H1206 0.950 . S
C1214 C1212 1.391 . S
C1214 C1215 1.400 . S
C1215 C1214 1.400 . S
C1215 C1216 1.398 . S
C1215 C1221 1.491 . S
C1216 H1207 0.950 . S
C1216 C1215 1.398 . S
C1216 C1217 1.391 . S
C1217 H1205 0.950 . S
C1217 C1213 1.393 . S
C1217 C1216 1.391 . S
C1218 H1208 0.950 . S
C1218 C1219 1.386 . S
C1218 C1220 1.391 . S
C1219 C1218 1.386 . S
C1219 C1223 1.393 . S
C1220 H1209 0.950 . S
C1220 C1218 1.391 . S
C1220 C1221 1.400 . S
C1221 C1215 1.491 . S
C1221 C1220 1.400 . S
C1221 C1222 1.398 . S
C1222 H1210 0.950 . S
C1222 C1221 1.398 . S
C1222 C1223 1.391 . S
C1223 H1211 0.950 . S
C1223 C1219 1.393 . S
C1223 C1222 1.391 . S
H1224 C1232 0.950 . S
H1225 C1237 0.950 . S
H1226 C1234 0.950 . S
H1227 C1236 0.950 . S
H1228 C1238 0.950 . S
H1229 C1240 0.950 . S
H1230 C1242 0.950 . S
H1231 C1243 0.950 . S
C1232 H1224 0.950 . S
C1232 C1233 1.386 . S
C1232 C1234 1.391 . S
C1233 C1232 1.386 . S
C1233 C1237 1.393 . S
C1234 H1226 0.950 . S
C1234 C1232 1.391 . S
C1234 C1235 1.400 . S
C1235 C1234 1.400 . S
C1235 C1236 1.398 . S
C1235 C1241 1.491 1_565 S
C1236 H1227 0.950 . S
C1236 C1235 1.398 . S
C1236 C1237 1.391 . S
C1237 H1225 0.950 . S
C1237 C1233 1.393 . S
C1237 C1236 1.391 . S
C1238 H1228 0.950 . S
C1238 C1239 1.386 . S
C1238 C1240 1.391 . S
C1239 C1238 1.386 . S
C1239 C1243 1.393 . S
C1240 H1229 0.950 . S
C1240 C1238 1.391 . S
C1240 C1241 1.400 . S
C1241 C1235 1.491 1_545 S
C1241 C1240 1.400 . S
C1241 C1242 1.398 . S
C1242 H1230 0.950 . S
C1242 C1241 1.398 . S
C1242 C1243 1.391 . S
C1243 H1231 0.950 . S
C1243 C1239 1.393 . S
C1243 C1242 1.391 . S
H1244 C1252 0.950 . S
H1245 C1257 0.950 . S
H1246 C1254 0.950 . S
H1247 C1256 0.950 . S
H1248 C1258 0.950 . S
H1249 C1260 0.950 . S
H1250 C1262 0.950 . S
H1251 C1263 0.950 . S
C1252 H1244 0.950 . S
C1252 C1253 1.386 . S
C1252 C1254 1.391 . S
C1253 C1252 1.386 . S
C1253 C1257 1.393 . S
C1254 H1246 0.950 . S
C1254 C1252 1.391 . S
C1254 C1255 1.400 . S
C1255 C1254 1.400 . S
C1255 C1256 1.398 . S
C1255 C1261 1.491 . S
C1256 H1247 0.950 . S
C1256 C1255 1.398 . S
C1256 C1257 1.391 . S
C1257 H1245 0.950 . S
C1257 C1253 1.393 . S
C1257 C1256 1.391 . S
C1258 H1248 0.950 . S
C1258 C1259 1.386 . S
C1258 C1260 1.391 . S
C1259 C1258 1.386 . S
C1259 C1263 1.393 . S
C1260 H1249 0.950 . S
C1260 C1258 1.391 . S
C1260 C1261 1.400 . S
C1261 C1255 1.491 . S
C1261 C1260 1.400 . S
C1261 C1262 1.398 . S
C1262 H1250 0.950 . S
C1262 C1261 1.398 . S
C1262 C1263 1.391 . S
C1263 H1251 0.950 . S
C1263 C1259 1.393 . S
C1263 C1262 1.391 . S
H1264 C1272 0.950 . S
H1265 C1277 0.950 . S
H1266 C1274 0.950 . S
H1267 C1276 0.950 . S
H1268 C1278 0.950 . S
H1269 C1280 0.950 . S
H1270 C1282 0.950 . S
H1271 C1283 0.950 . S
C1272 H1264 0.950 . S
C1272 C1273 1.386 . S
C1272 C1274 1.391 . S
C1273 C1272 1.386 . S
C1273 C1277 1.393 . S
C1274 H1266 0.950 . S
C1274 C1272 1.391 . S
C1274 C1275 1.400 . S
C1275 C1274 1.400 . S
C1275 C1276 1.398 . S
C1275 C1281 1.491 1_565 S
C1276 H1267 0.950 . S
C1276 C1275 1.398 . S
C1276 C1277 1.391 . S
C1277 H1265 0.950 . S
C1277 C1273 1.393 . S
C1277 C1276 1.391 . S
C1278 H1268 0.950 . S
C1278 C1279 1.386 . S
C1278 C1280 1.391 . S
C1279 C1278 1.386 . S
C1279 C1283 1.393 . S
C1280 H1269 0.950 . S
C1280 C1278 1.391 . S
C1280 C1281 1.400 . S
C1281 C1275 1.491 1_545 S
C1281 C1280 1.400 . S
C1281 C1282 1.398 . S
C1282 H1270 0.950 . S
C1282 C1281 1.398 . S
C1282 C1283 1.391 . S
C1283 H1271 0.950 . S
C1283 C1279 1.393 . S
C1283 C1282 1.391 . S
H1284 C1292 0.950 . S
H1285 C1297 0.950 . S
H1286 C1294 0.950 . S
H1287 C1296 0.950 . S
H1288 C1298 0.950 . S
H1289 C1300 0.950 . S
H1290 C1302 0.950 . S
H1291 C1303 0.950 . S
C1292 H1284 0.950 . S
C1292 C1293 1.386 . S
C1292 C1294 1.391 . S
C1293 C1292 1.386 . S
C1293 C1297 1.393 . S
C1294 H1286 0.950 . S
C1294 C1292 1.391 . S
C1294 C1295 1.400 . S
C1295 C1294 1.400 . S
C1295 C1296 1.398 . S
C1295 C1301 1.491 . S
C1296 H1287 0.950 . S
C1296 C1295 1.398 . S
C1296 C1297 1.391 . S
C1297 H1285 0.950 . S
C1297 C1293 1.393 . S
C1297 C1296 1.391 . S
C1298 H1288 0.950 . S
C1298 C1299 1.386 . S
C1298 C1300 1.391 . S
C1299 C1298 1.386 . S
C1299 C1303 1.393 . S
C1300 H1289 0.950 . S
C1300 C1298 1.391 . S
C1300 C1301 1.400 . S
C1301 C1295 1.491 . S
C1301 C1300 1.400 . S
C1301 C1302 1.398 . S
C1302 H1290 0.950 . S
C1302 C1301 1.398 . S
C1302 C1303 1.391 . S
C1303 H1291 0.950 . S
C1303 C1299 1.393 . S
C1303 C1302 1.391 . S
H1304 C1312 0.950 . S
H1305 C1317 0.950 . S
H1306 C1314 0.950 . S
H1307 C1316 0.950 . S
H1308 C1318 0.950 . S
H1309 C1320 0.950 . S
H1310 C1322 0.950 . S
H1311 C1323 0.950 . S
C1312 H1304 0.950 . S
C1312 C1313 1.386 . S
C1312 C1314 1.391 . S
C1313 C1312 1.386 . S
C1313 C1317 1.393 . S
C1314 H1306 0.950 . S
C1314 C1312 1.391 . S
C1314 C1315 1.400 . S
C1315 C1314 1.400 . S
C1315 C1316 1.398 . S
C1315 C1321 1.491 1_565 S
C1316 H1307 0.950 . S
C1316 C1315 1.398 . S
C1316 C1317 1.391 . S
C1317 H1305 0.950 . S
C1317 C1313 1.393 . S
C1317 C1316 1.391 . S
C1318 H1308 0.950 . S
C1318 C1319 1.386 . S
C1318 C1320 1.391 . S
C1319 C1318 1.386 . S
C1319 C1323 1.393 . S
C1320 H1309 0.950 . S
C1320 C1318 1.391 . S
C1320 C1321 1.400 . S
C1321 C1315 1.491 1_545 S
C1321 C1320 1.400 . S
C1321 C1322 1.398 . S
C1322 H1310 0.950 . S
C1322 C1321 1.398 . S
C1322 C1323 1.391 . S
C1323 H1311 0.950 . S
C1323 C1319 1.393 . S
C1323 C1322 1.391 . S
H1324 C1332 0.950 . S
H1325 C1337 0.950 . S
H1326 C1334 0.950 . S
H1327 C1336 0.950 . S
H1328 C1338 0.950 . S
H1329 C1340 0.950 . S
H1330 C1342 0.950 . S
H1331 C1343 0.950 . S
C1332 H1324 0.950 . S
C1332 C1333 1.386 . S
C1332 C1334 1.391 . S
C1333 C1332 1.386 . S
C1333 C1337 1.393 . S
C1334 H1326 0.950 . S
C1334 C1332 1.391 . S
C1334 C1335 1.400 . S
C1335 C1334 1.400 . S
C1335 C1336 1.398 . S
C1335 C1341 1.491 1_545 S
C1336 H1327 0.950 . S
C1336 C1335 1.398 . S
C1336 C1337 1.391 . S
C1337 H1325 0.950 . S
C1337 C1333 1.393 . S
C1337 C1336 1.391 . S
C1338 H1328 0.950 . S
C1338 C1339 1.386 . S
C1338 C1340 1.391 . S
C1339 C1338 1.386 . S
C1339 C1343 1.393 . S
C1340 H1329 0.950 . S
C1340 C1338 1.391 . S
C1340 C1341 1.400 . S
C1341 C1335 1.491 1_565 S
C1341 C1340 1.400 . S
C1341 C1342 1.398 . S
C1342 H1330 0.950 . S
C1342 C1341 1.398 . S
C1342 C1343 1.391 . S
C1343 H1331 0.950 . S
C1343 C1339 1.393 . S
C1343 C1342 1.391 . S
H1344 C1352 0.950 . S
H1345 C1357 0.950 . S
H1346 C1354 0.950 . S
H1347 C1356 0.950 . S
H1348 C1358 0.950 . S
H1349 C1360 0.950 . S
H1350 C1362 0.950 . S
H1351 C1363 0.950 . S
C1352 H1344 0.950 . S
C1352 C1353 1.386 . S
C1352 C1354 1.391 . S
C1353 C1352 1.386 . S
C1353 C1357 1.393 . S
C1354 H1346 0.950 . S
C1354 C1352 1.391 . S
C1354 C1355 1.400 . S
C1355 C1354 1.400 . S
C1355 C1356 1.398 . S
C1355 C1361 1.491 . S
C1356 H1347 0.950 . S
C1356 C1355 1.398 . S
C1356 C1357 1.391 . S
C1357 H1345 0.950 . S
C1357 C1353 1.393 . S
C1357 C1356 1.391 . S
C1358 H1348 0.950 . S
C1358 C1359 1.386 . S
C1358 C1360 1.391 . S
C1359 C1358 1.386 . S
C1359 C1363 1.393 . S
C1360 H1349 0.950 . S
C1360 C1358 1.391 . S
C1360 C1361 1.400 . S
C1361 C1355 1.491 . S
C1361 C1360 1.400 . S
C1361 C1362 1.398 . S
C1362 H1350 0.950 . S
C1362 C1361 1.398 . S
C1362 C1363 1.391 . S
C1363 H1351 0.950 . S
C1363 C1359 1.393 . S
C1363 C1362 1.391 . S
H1364 C1372 0.950 . S
H1365 C1377 0.950 . S
H1366 C1374 0.950 . S
H1367 C1376 0.950 . S
H1368 C1378 0.950 . S
H1369 C1380 0.950 . S
H1370 C1382 0.950 . S
H1371 C1383 0.950 . S
C1372 H1364 0.950 . S
C1372 C1373 1.386 . S
C1372 C1374 1.391 . S
C1373 C1372 1.386 . S
C1373 C1377 1.393 . S
C1374 H1366 0.950 . S
C1374 C1372 1.391 . S
C1374 C1375 1.400 . S
C1375 C1374 1.400 . S
C1375 C1376 1.398 . S
C1375 C1381 1.491 . S
C1376 H1367 0.950 . S
C1376 C1375 1.398 . S
C1376 C1377 1.391 . S
C1377 H1365 0.950 . S
C1377 C1373 1.393 . S
C1377 C1376 1.391 . S
C1378 H1368 0.950 . S
C1378 C1379 1.386 . S
C1378 C1380 1.391 . S
C1379 C1378 1.386 . S
C1379 C1383 1.393 . S
C1380 H1369 0.950 . S
C1380 C1378 1.391 . S
C1380 C1381 1.400 . S
C1381 C1375 1.491 . S
C1381 C1380 1.400 . S
C1381 C1382 1.398 . S
C1382 H1370 0.950 . S
C1382 C1381 1.398 . S
C1382 C1383 1.391 . S
C1383 H1371 0.950 . S
C1383 C1379 1.393 . S
C1383 C1382 1.391 . S
H1384 C1392 0.950 . S
H1385 C1397 0.950 . S
H1386 C1394 0.950 . S
H1387 C1396 0.950 . S
H1388 C1398 0.950 . S
H1389 C1400 0.950 . S
H1390 C1402 0.950 . S
H1391 C1403 0.950 . S
C1392 H1384 0.950 . S
C1392 C1393 1.386 . S
C1392 C1394 1.391 . S
C1393 C1392 1.386 . S
C1393 C1397 1.393 . S
C1394 H1386 0.950 . S
C1394 C1392 1.391 . S
C1394 C1395 1.400 . S
C1395 C1394 1.400 . S
C1395 C1396 1.398 . S
C1395 C1401 1.491 . S
C1396 H1387 0.950 . S
C1396 C1395 1.398 . S
C1396 C1397 1.391 . S
C1397 H1385 0.950 . S
C1397 C1393 1.393 . S
C1397 C1396 1.391 . S
C1398 H1388 0.950 . S
C1398 C1399 1.386 . S
C1398 C1400 1.391 . S
C1399 C1398 1.386 . S
C1399 C1403 1.393 . S
C1400 H1389 0.950 . S
C1400 C1398 1.391 . S
C1400 C1401 1.400 . S
C1401 C1395 1.491 . S
C1401 C1400 1.400 . S
C1401 C1402 1.398 . S
C1402 H1390 0.950 . S
C1402 C1401 1.398 . S
C1402 C1403 1.391 . S
C1403 H1391 0.950 . S
C1403 C1399 1.393 . S
C1403 C1402 1.391 . S
H1404 C1412 0.950 . S
H1405 C1417 0.950 . S
H1406 C1414 0.950 . S
H1407 C1416 0.950 . S
H1408 C1418 0.950 . S
H1409 C1420 0.950 . S
H1410 C1422 0.950 . S
H1411 C1423 0.950 . S
C1412 H1404 0.950 . S
C1412 C1413 1.386 . S
C1412 C1414 1.391 . S
C1413 C1412 1.386 . S
C1413 C1417 1.393 . S
C1414 H1406 0.950 . S
C1414 C1412 1.391 . S
C1414 C1415 1.400 . S
C1415 C1414 1.400 . S
C1415 C1416 1.398 . S
C1415 C1421 1.491 . S
C1416 H1407 0.950 . S
C1416 C1415 1.398 . S
C1416 C1417 1.391 . S
C1417 H1405 0.950 . S
C1417 C1413 1.393 . S
C1417 C1416 1.391 . S
C1418 H1408 0.950 . S
C1418 C1419 1.386 . S
C1418 C1420 1.391 . S
C1419 C1418 1.386 . S
C1419 C1423 1.393 . S
C1420 H1409 0.950 . S
C1420 C1418 1.391 . S
C1420 C1421 1.400 . S
C1421 C1415 1.491 . S
C1421 C1420 1.400 . S
C1421 C1422 1.398 . S
C1422 H1410 0.950 . S
C1422 C1421 1.398 . S
C1422 C1423 1.391 . S
C1423 H1411 0.950 . S
C1423 C1419 1.393 . S
C1423 C1422 1.391 . S
H1424 C1432 0.950 . S
H1425 C1437 0.950 . S
H1426 C1434 0.950 . S
H1427 C1436 0.950 . S
H1428 C1438 0.950 . S
H1429 C1440 0.950 . S
H1430 C1442 0.950 . S
H1431 C1443 0.950 . S
C1432 H1424 0.950 . S
C1432 C1433 1.386 . S
C1432 C1434 1.391 . S
C1433 C1432 1.386 . S
C1433 C1437 1.393 . S
C1434 H1426 0.950 . S
C1434 C1432 1.391 . S
C1434 C1435 1.400 . S
C1435 C1434 1.400 . S
C1435 C1436 1.398 . S
C1435 C1441 1.491 . S
C1436 H1427 0.950 . S
C1436 C1435 1.398 . S
C1436 C1437 1.391 . S
C1437 H1425 0.950 . S
C1437 C1433 1.393 . S
C1437 C1436 1.391 . S
C1438 H1428 0.950 . S
C1438 C1439 1.386 . S
C1438 C1440 1.391 . S
C1439 C1438 1.386 . S
C1439 C1443 1.393 . S
C1440 H1429 0.950 . S
C1440 C1438 1.391 . S
C1440 C1441 1.400 . S
C1441 C1435 1.491 . S
C1441 C1440 1.400 . S
C1441 C1442 1.398 . S
C1442 H1430 0.950 . S
C1442 C1441 1.398 . S
C1442 C1443 1.391 . S
C1443 H1431 0.950 . S
C1443 C1439 1.393 . S
C1443 C1442 1.391 . S
H1444 C1452 0.950 . S
H1445 C1457 0.950 . S
H1446 C1454 0.950 . S
H1447 C1456 0.950 . S
H1448 C1458 0.950 . S
H1449 C1460 0.950 . S
H1450 C1462 0.950 . S
H1451 C1463 0.950 . S
C1452 H1444 0.950 . S
C1452 C1453 1.386 . S
C1452 C1454 1.391 . S
C1453 C1452 1.386 . S
C1453 C1457 1.393 . S
C1454 H1446 0.950 . S
C1454 C1452 1.391 . S
C1454 C1455 1.400 . S
C1455 C1454 1.400 . S
C1455 C1456 1.398 . S
C1455 C1461 1.491 . S
C1456 H1447 0.950 . S
C1456 C1455 1.398 . S
C1456 C1457 1.391 . S
C1457 H1445 0.950 . S
C1457 C1453 1.393 . S
C1457 C1456 1.391 . S
C1458 H1448 0.950 . S
C1458 C1459 1.386 . S
C1458 C1460 1.391 . S
C1459 C1458 1.386 . S
C1459 C1463 1.393 . S
C1460 H1449 0.950 . S
C1460 C1458 1.391 . S
C1460 C1461 1.400 . S
C1461 C1455 1.491 . S
C1461 C1460 1.400 . S
C1461 C1462 1.398 . S
C1462 H1450 0.950 . S
C1462 C1461 1.398 . S
C1462 C1463 1.391 . S
C1463 H1451 0.950 . S
C1463 C1459 1.393 . S
C1463 C1462 1.391 . S
H1464 C1472 0.950 . S
H1465 C1477 0.950 . S
H1466 C1474 0.950 . S
H1467 C1476 0.950 . S
H1468 C1478 0.950 . S
H1469 C1480 0.950 . S
H1470 C1482 0.950 . S
H1471 C1483 0.950 . S
C1472 H1464 0.950 . S
C1472 C1473 1.386 . S
C1472 C1474 1.391 . S
C1473 C1472 1.386 . S
C1473 C1477 1.393 . S
C1474 H1466 0.950 . S
C1474 C1472 1.391 . S
C1474 C1475 1.400 . S
C1475 C1474 1.400 . S
C1475 C1476 1.398 . S
C1475 C1481 1.491 . S
C1476 H1467 0.950 . S
C1476 C1475 1.398 . S
C1476 C1477 1.391 . S
C1477 H1465 0.950 . S
C1477 C1473 1.393 . S
C1477 C1476 1.391 . S
C1478 H1468 0.950 . S
C1478 C1479 1.386 . S
C1478 C1480 1.391 . S
C1479 C1478 1.386 . S
C1479 C1483 1.393 . S
C1480 H1469 0.950 . S
C1480 C1478 1.391 . S
C1480 C1481 1.400 . S
C1481 C1475 1.491 . S
C1481 C1480 1.400 . S
C1481 C1482 1.398 . S
C1482 H1470 0.950 . S
C1482 C1481 1.398 . S
C1482 C1483 1.391 . S
C1483 H1471 0.950 . S
C1483 C1479 1.393 . S
C1483 C1482 1.391 . S
H1484 C1492 0.950 . S
H1485 C1497 0.950 . S
H1486 C1494 0.950 . S
H1487 C1496 0.950 . S
H1488 C1498 0.950 . S
H1489 C1500 0.950 . S
H1490 C1502 0.950 . S
H1491 C1503 0.950 . S
C1492 H1484 0.950 . S
C1492 C1493 1.386 . S
C1492 C1494 1.391 . S
C1493 C1492 1.386 . S
C1493 C1497 1.393 . S
C1494 H1486 0.950 . S
C1494 C1492 1.391 . S
C1494 C1495 1.400 . S
C1495 C1494 1.400 . S
C1495 C1496 1.398 . S
C1495 C1501 1.491 . S
C1496 H1487 0.950 . S
C1496 C1495 1.398 . S
C1496 C1497 1.391 . S
C1497 H1485 0.950 . S
C1497 C1493 1.393 . S
C1497 C1496 1.391 . S
C1498 H1488 0.950 . S
C1498 C1499 1.386 . S
C1498 C1500 1.391 . S
C1499 C1498 1.386 . S
C1499 C1503 1.393 . S
C1500 H1489 0.950 . S
C1500 C1498 1.391 . S
C1500 C1501 1.400 . S
C1501 C1495 1.491 . S
C1501 C1500 1.400 . S
C1501 C1502 1.398 . S
C1502 H1490 0.950 . S
C1502 C1501 1.398 . S
C1502 C1503 1.391 . S
C1503 H1491 0.950 . S
C1503 C1499 1.393 . S
C1503 C1502 1.391 . S
H1504 C1512 0.950 . S
H1505 C1517 0.950 . S
H1506 C1514 0.950 . S
H1507 C1516 0.950 . S
H1508 C1518 0.950 . S
H1509 C1520 0.950 . S
H1510 C1522 0.950 . S
H1511 C1523 0.950 . S
C1512 H1504 0.950 . S
C1512 C1513 1.386 . S
C1512 C1514 1.391 . S
C1513 C1512 1.386 . S
C1513 C1517 1.393 . S
C1514 H1506 0.950 . S
C1514 C1512 1.391 . S
C1514 C1515 1.400 . S
C1515 C1514 1.400 . S
C1515 C1516 1.398 . S
C1515 C1521 1.491 . S
C1516 H1507 0.950 . S
C1516 C1515 1.398 . S
C1516 C1517 1.391 . S
C1517 H1505 0.950 . S
C1517 C1513 1.393 . S
C1517 C1516 1.391 . S
C1518 H1508 0.950 . S
C1518 C1519 1.386 . S
C1518 C1520 1.391 . S
C1519 C1518 1.386 . S
C1519 C1523 1.393 . S
C1520 H1509 0.950 . S
C1520 C1518 1.391 . S
C1520 C1521 1.400 . S
C1521 C1515 1.491 . S
C1521 C1520 1.400 . S
C1521 C1522 1.398 . S
C1522 H1510 0.950 . S
C1522 C1521 1.398 . S
C1522 C1523 1.391 . S
C1523 H1511 0.950 . S
C1523 C1519 1.393 . S
C1523 C1522 1.391 . S
H1524 C1532 0.950 . S
H1525 C1537 0.950 . S
H1526 C1534 0.950 . S
H1527 C1536 0.950 . S
H1528 C1538 0.950 . S
H1529 C1540 0.950 . S
H1530 C1542 0.950 . S
H1531 C1543 0.950 . S
C1532 H1524 0.950 . S
C1532 C1533 1.386 . S
C1532 C1534 1.391 . S
C1533 C1532 1.386 . S
C1533 C1537 1.393 . S
C1534 H1526 0.950 . S
C1534 C1532 1.391 . S
C1534 C1535 1.400 . S
C1535 C1534 1.400 . S
C1535 C1536 1.398 . S
C1535 C1541 1.491 . S
C1536 H1527 0.950 . S
C1536 C1535 1.398 . S
C1536 C1537 1.391 . S
C1537 H1525 0.950 . S
C1537 C1533 1.393 . S
C1537 C1536 1.391 . S
C1538 H1528 0.950 . S
C1538 C1539 1.386 . S
C1538 C1540 1.391 . S
C1539 C1538 1.386 . S
C1539 C1543 1.393 . S
C1540 H1529 0.950 . S
C1540 C1538 1.391 . S
C1540 C1541 1.400 . S
C1541 C1535 1.491 . S
C1541 C1540 1.400 . S
C1541 C1542 1.398 . S
C1542 H1530 0.950 . S
C1542 C1541 1.398 . S
C1542 C1543 1.391 . S
C1543 H1531 0.950 . S
C1543 C1539 1.393 . S
C1543 C1542 1.391 . S
H1544 C1552 0.950 . S
H1545 C1557 0.950 . S
H1546 C1554 0.950 . S
H1547 C1556 0.950 . S
H1548 C1558 0.950 . S
H1549 C1560 0.950 . S
H1550 C1562 0.950 . S
H1551 C1563 0.950 . S
C1552 H1544 0.950 . S
C1552 C1553 1.386 . S
C1552 C1554 1.391 . S
C1553 C1552 1.386 . S
C1553 C1557 1.393 . S
C1554 H1546 0.950 . S
C1554 C1552 1.391 . S
C1554 C1555 1.400 . S
C1555 C1554 1.400 . S
C1555 C1556 1.398 . S
C1555 C1561 1.491 . S
C1556 H1547 0.950 . S
C1556 C1555 1.398 . S
C1556 C1557 1.391 . S
C1557 H1545 0.950 . S
C1557 C1553 1.393 . S
C1557 C1556 1.391 . S
C1558 H1548 0.950 . S
C1558 C1559 1.386 . S
C1558 C1560 1.391 . S
C1559 C1558 1.386 . S
C1559 C1563 1.393 . S
C1560 H1549 0.950 . S
C1560 C1558 1.391 . S
C1560 C1561 1.400 . S
C1561 C1555 1.491 . S
C1561 C1560 1.400 . S
C1561 C1562 1.398 . S
C1562 H1550 0.950 . S
C1562 C1561 1.398 . S
C1562 C1563 1.391 . S
C1563 H1551 0.950 . S
C1563 C1559 1.393 . S
C1563 C1562 1.391 . S
H1564 C1572 0.950 . S
H1565 C1577 0.950 . S
H1566 C1574 0.950 . S
H1567 C1576 0.950 . S
H1568 C1578 0.950 . S
H1569 C1580 0.950 . S
H1570 C1582 0.950 . S
H1571 C1583 0.950 . S
C1572 H1564 0.950 . S
C1572 C1573 1.386 . S
C1572 C1574 1.391 . S
C1573 C1572 1.386 . S
C1573 C1577 1.393 . S
C1574 H1566 0.950 . S
C1574 C1572 1.391 . S
C1574 C1575 1.400 . S
C1575 C1574 1.400 . S
C1575 C1576 1.398 . S
C1575 C1581 1.491 . S
C1576 H1567 0.950 . S
C1576 C1575 1.398 . S
C1576 C1577 1.391 . S
C1577 H1565 0.950 . S
C1577 C1573 1.393 . S
C1577 C1576 1.391 . S
C1578 H1568 0.950 . S
C1578 C1579 1.386 . S
C1578 C1580 1.391 . S
C1579 C1578 1.386 . S
C1579 C1583 1.393 . S
C1580 H1569 0.950 . S
C1580 C1578 1.391 . S
C1580 C1581 1.400 . S
C1581 C1575 1.491 . S
C1581 C1580 1.400 . S
C1581 C1582 1.398 . S
C1582 H1570 0.950 . S
C1582 C1581 1.398 . S
C1582 C1583 1.391 . S
C1583 H1571 0.950 . S
C1583 C1579 1.393 . S
C1583 C1582 1.391 . S
H1584 C1592 0.950 . S
H1585 C1597 0.950 . S
H1586 C1594 0.950 . S
H1587 C1596 0.950 . S
H1588 C1598 0.950 . S
H1589 C1600 0.950 . S
H1590 C1602 0.950 . S
H1591 C1603 0.950 . S
C1592 H1584 0.950 . S
C1592 C1593 1.386 . S
C1592 C1594 1.391 . S
C1593 C1592 1.386 . S
C1593 C1597 1.393 . S
C1594 H1586 0.950 . S
C1594 C1592 1.391 . S
C1594 C1595 1.400 . S
C1595 C1594 1.400 . S
C1595 C1596 1.398 . S
C1595 C1601 1.491 . S
C1596 H1587 0.950 . S
C1596 C1595 1.398 . S
C1596 C1597 1.391 . S
C1597 H1585 0.950 . S
C1597 C1593 1.393 . S
C1597 C1596 1.391 . S
C1598 H1588 0.950 . S
C1598 C1599 1.386 . S
C1598 C1600 1.391 . S
C1599 C1598 1.386 . S
C1599 C1603 1.393 . S
C1600 H1589 0.950 . S
C1600 C1598 1.391 . S
C1600 C1601 1.400 . S
C1601 C1595 1.491 . S
C1601 C1600 1.400 . S
C1601 C1602 1.398 . S
C1602 H1590 0.950 . S
C1602 C1601 1.398 . S
C1602 C1603 1.391 . S
C1603 H1591 0.950 . S
C1603 C1599 1.393 . S
C1603 C1602 1.391 . S
H1604 C1612 0.950 . S
H1605 C1617 0.950 . S
H1606 C1614 0.950 . S
H1607 C1616 0.950 . S
H1608 C1618 0.950 . S
H1609 C1620 0.950 . S
H1610 C1622 0.950 . S
H1611 C1623 0.950 . S
C1612 H1604 0.950 . S
C1612 C1613 1.386 . S
C1612 C1614 1.391 . S
C1613 C1612 1.386 . S
C1613 C1617 1.393 . S
C1614 H1606 0.950 . S
C1614 C1612 1.391 . S
C1614 C1615 1.400 . S
C1615 C1614 1.400 . S
C1615 C1616 1.398 . S
C1615 C1621 1.491 . S
C1616 H1607 0.950 . S
C1616 C1615 1.398 . S
C1616 C1617 1.391 . S
C1617 H1605 0.950 . S
C1617 C1613 1.393 . S
C1617 C1616 1.391 . S
C1618 H1608 0.950 . S
C1618 C1619 1.386 . S
C1618 C1620 1.391 . S
C1619 C1618 1.386 . S
C1619 C1623 1.393 . S
C1620 H1609 0.950 . S
C1620 C1618 1.391 . S
C1620 C1621 1.400 . S
C1621 C1615 1.491 . S
C1621 C1620 1.400 . S
C1621 C1622 1.398 . S
C1622 H1610 0.950 . S
C1622 C1621 1.398 . S
C1622 C1623 1.391 . S
C1623 H1611 0.950 . S
C1623 C1619 1.393 . S
C1623 C1622 1.391 . S
H1624 C1632 0.950 . S
H1625 C1637 0.950 . S
H1626 C1634 0.950 . S
H1627 C1636 0.950 . S
H1628 C1638 0.950 . S
H1629 C1640 0.950 . S
H1630 C1642 0.950 . S
H1631 C1643 0.950 . S
C1632 H1624 0.950 . S
C1632 C1633 1.386 . S
C1632 C1634 1.391 . S
C1633 C1632 1.386 . S
C1633 C1637 1.393 . S
C1634 H1626 0.950 . S
C1634 C1632 1.391 . S
C1634 C1635 1.400 . S
C1635 C1634 1.400 . S
C1635 C1636 1.398 . S
C1635 C1641 1.491 . S
C1636 H1627 0.950 . S
C1636 C1635 1.398 . S
C1636 C1637 1.391 . S
C1637 H1625 0.950 . S
C1637 C1633 1.393 . S
C1637 C1636 1.391 . S
C1638 H1628 0.950 . S
C1638 C1639 1.386 . S
C1638 C1640 1.391 . S
C1639 C1638 1.386 . S
C1639 C1643 1.393 . S
C1640 H1629 0.950 . S
C1640 C1638 1.391 . S
C1640 C1641 1.400 . S
C1641 C1635 1.491 . S
C1641 C1640 1.400 . S
C1641 C1642 1.398 . S
C1642 H1630 0.950 . S
C1642 C1641 1.398 . S
C1642 C1643 1.391 . S
C1643 H1631 0.950 . S
C1643 C1639 1.393 . S
C1643 C1642 1.391 . S
H1644 C1652 0.950 . S
H1645 C1657 0.950 . S
H1646 C1654 0.950 . S
H1647 C1656 0.950 . S
H1648 C1658 0.950 . S
H1649 C1660 0.950 . S
H1650 C1662 0.950 . S
H1651 C1663 0.950 . S
C1652 H1644 0.950 . S
C1652 C1653 1.386 . S
C1652 C1654 1.391 . S
C1653 C1652 1.386 . S
C1653 C1657 1.393 . S
C1654 H1646 0.950 . S
C1654 C1652 1.391 . S
C1654 C1655 1.400 . S
C1655 C1654 1.400 . S
C1655 C1656 1.398 . S
C1655 C1661 1.491 . S
C1656 H1647 0.950 . S
C1656 C1655 1.398 . S
C1656 C1657 1.391 . S
C1657 H1645 0.950 . S
C1657 C1653 1.393 . S
C1657 C1656 1.391 . S
C1658 H1648 0.950 . S
C1658 C1659 1.386 . S
C1658 C1660 1.391 . S
C1659 C1658 1.386 . S
C1659 C1663 1.393 . S
C1660 H1649 0.950 . S
C1660 C1658 1.391 . S
C1660 C1661 1.400 . S
C1661 C1655 1.491 . S
C1661 C1660 1.400 . S
C1661 C1662 1.398 . S
C1662 H1650 0.950 . S
C1662 C1661 1.398 . S
C1662 C1663 1.391 . S
C1663 H1651 0.950 . S
C1663 C1659 1.393 . S
C1663 C1662 1.391 . S
H1664 C1672 0.950 . S
H1665 C1677 0.950 . S
H1666 C1674 0.950 . S
H1667 C1676 0.950 . S
H1668 C1678 0.950 . S
H1669 C1680 0.950 . S
H1670 C1682 0.950 . S
H1671 C1683 0.950 . S
C1672 H1664 0.950 . S
C1672 C1673 1.386 . S
C1672 C1674 1.391 . S
C1673 C1672 1.386 . S
C1673 C1677 1.393 . S
C1674 H1666 0.950 . S
C1674 C1672 1.391 . S
C1674 C1675 1.400 . S
C1675 C1674 1.400 . S
C1675 C1676 1.398 . S
C1675 C1681 1.491 . S
C1676 H1667 0.950 . S
C1676 C1675 1.398 . S
C1676 C1677 1.391 . S
C1677 H1665 0.950 . S
C1677 C1673 1.393 . S
C1677 C1676 1.391 . S
C1678 H1668 0.950 . S
C1678 C1679 1.386 . S
C1678 C1680 1.391 . S
C1679 C1678 1.386 . S
C1679 C1683 1.393 . S
C1680 H1669 0.950 . S
C1680 C1678 1.391 . S
C1680 C1681 1.400 . S
C1681 C1675 1.491 . S
C1681 C1680 1.400 . S
C1681 C1682 1.398 . S
C1682 H1670 0.950 . S
C1682 C1681 1.398 . S
C1682 C1683 1.391 . S
C1683 H1671 0.950 . S
C1683 C1679 1.393 . S
C1683 C1682 1.391 . S
H1684 C1692 0.950 . S
H1685 C1697 0.950 . S
H1686 C1694 0.950 . S
H1687 C1696 0.950 . S
H1688 C1698 0.950 . S
H1689 C1700 0.950 . S
H1690 C1702 0.950 . S
H1691 C1703 0.950 . S
C1692 H1684 0.950 . S
C1692 C1693 1.386 . S
C1692 C1694 1.391 . S
C1693 C1692 1.386 . S
C1693 C1697 1.393 . S
C1694 H1686 0.950 . S
C1694 C1692 1.391 . S
C1694 C1695 1.400 . S
C1695 C1694 1.400 . S
C1695 C1696 1.398 . S
C1695 C1701 1.491 . S
C1696 H1687 0.950 . S
C1696 C1695 1.398 . S
C1696 C1697 1.391 . S
C1697 H1685 0.950 . S
C1697 C1693 1.393 . S
C1697 C1696 1.391 . S
C1698 H1688 0.950 . S
C1698 C1699 1.386 . S
C1698 C1700 1.391 . S
C1699 C1698 1.386 . S
C1699 C1703 1.393 . S
C1700 H1689 0.950 . S
C1700 C1698 1.391 . S
C1700 C1701 1.400 . S
C1701 C1695 1.491 . S
C1701 C1700 1.400 . S
C1701 C1702 1.398 . S
C1702 H1690 0.950 . S
C1702 C1701 1.398 . S
C1702 C1703 1.391 . S
C1703 H1691 0.950 . S
C1703 C1699 1.393 . S
C1703 C1702 1.391 . S
H1704 C1712 0.950 . S
H1705 C1717 0.950 . S
H1706 C1714 0.950 . S
H1707 C1716 0.950 . S
H1708 C1718 0.950 . S
H1709 C1720 0.950 . S
H1710 C1722 0.950 . S
H1711 C1723 0.950 . S
C1712 H1704 0.950 . S
C1712 C1713 1.386 . S
C1712 C1714 1.391 . S
C1713 C1712 1.386 . S
C1713 C1717 1.393 . S
C1714 H1706 0.950 . S
C1714 C1712 1.391 . S
C1714 C1715 1.400 . S
C1715 C1714 1.400 . S
C1715 C1716 1.398 . S
C1715 C1721 1.491 . S
C1716 H1707 0.950 . S
C1716 C1715 1.398 . S
C1716 C1717 1.391 . S
C1717 H1705 0.950 . S
C1717 C1713 1.393 . S
C1717 C1716 1.391 . S
C1718 H1708 0.950 . S
C1718 C1719 1.386 . S
C1718 C1720 1.391 . S
C1719 C1718 1.386 . S
C1719 C1723 1.393 . S
C1720 H1709 0.950 . S
C1720 C1718 1.391 . S
C1720 C1721 1.400 . S
C1721 C1715 1.491 . S
C1721 C1720 1.400 . S
C1721 C1722 1.398 . S
C1722 H1710 0.950 . S
C1722 C1721 1.398 . S
C1722 C1723 1.391 . S
C1723 H1711 0.950 . S
C1723 C1719 1.393 . S
C1723 C1722 1.391 . S
H1724 C1732 0.950 . S
H1725 C1737 0.950 . S
H1726 C1734 0.950 . S
H1727 C1736 0.950 . S
H1728 C1738 0.950 . S
H1729 C1740 0.950 . S
H1730 C1742 0.950 . S
H1731 C1743 0.950 . S
C1732 H1724 0.950 . S
C1732 C1733 1.386 . S
C1732 C1734 1.391 . S
C1733 C1732 1.386 . S
C1733 C1737 1.393 . S
C1734 H1726 0.950 . S
C1734 C1732 1.391 . S
C1734 C1735 1.400 . S
C1735 C1734 1.400 . S
C1735 C1736 1.398 . S
C1735 C1741 1.491 . S
C1736 H1727 0.950 . S
C1736 C1735 1.398 . S
C1736 C1737 1.391 . S
C1737 H1725 0.950 . S
C1737 C1733 1.393 . S
C1737 C1736 1.391 . S
C1738 H1728 0.950 . S
C1738 C1739 1.386 . S
C1738 C1740 1.391 . S
C1739 C1738 1.386 . S
C1739 C1743 1.393 . S
C1740 H1729 0.950 . S
C1740 C1738 1.391 . S
C1740 C1741 1.400 . S
C1741 C1735 1.491 . S
C1741 C1740 1.400 . S
C1741 C1742 1.398 . S
C1742 H1730 0.950 . S
C1742 C1741 1.398 . S
C1742 C1743 1.391 . S
C1743 H1731 0.950 . S
C1743 C1739 1.393 . S
C1743 C1742 1.391 . S
H1744 C1752 0.950 . S
H1745 C1757 0.950 . S
H1746 C1754 0.950 . S
H1747 C1756 0.950 . S
H1748 C1758 0.950 . S
H1749 C1760 0.950 . S
H1750 C1762 0.950 . S
H1751 C1763 0.950 . S
C1752 H1744 0.950 . S
C1752 C1753 1.386 . S
C1752 C1754 1.391 . S
C1753 C1752 1.386 . S
C1753 C1757 1.393 . S
C1754 H1746 0.950 . S
C1754 C1752 1.391 . S
C1754 C1755 1.400 . S
C1755 C1754 1.400 . S
C1755 C1756 1.398 . S
C1755 C1761 1.491 . S
C1756 H1747 0.950 . S
C1756 C1755 1.398 . S
C1756 C1757 1.391 . S
C1757 H1745 0.950 . S
C1757 C1753 1.393 . S
C1757 C1756 1.391 . S
C1758 H1748 0.950 . S
C1758 C1759 1.386 . S
C1758 C1760 1.391 . S
C1759 C1758 1.386 . S
C1759 C1763 1.393 . S
C1760 H1749 0.950 . S
C1760 C1758 1.391 . S
C1760 C1761 1.400 . S
C1761 C1755 1.491 . S
C1761 C1760 1.400 . S
C1761 C1762 1.398 . S
C1762 H1750 0.950 . S
C1762 C1761 1.398 . S
C1762 C1763 1.391 . S
C1763 H1751 0.950 . S
C1763 C1759 1.393 . S
C1763 C1762 1.391 . S
H1764 C1772 0.950 . S
H1765 C1777 0.950 . S
H1766 C1774 0.950 . S
H1767 C1776 0.950 . S
H1768 C1778 0.950 . S
H1769 C1780 0.950 . S
H1770 C1782 0.950 . S
H1771 C1783 0.950 . S
C1772 H1764 0.950 . S
C1772 C1773 1.386 . S
C1772 C1774 1.391 . S
C1773 C1772 1.386 . S
C1773 C1777 1.393 . S
C1774 H1766 0.950 . S
C1774 C1772 1.391 . S
C1774 C1775 1.400 . S
C1775 C1774 1.400 . S
C1775 C1776 1.398 . S
C1775 C1781 1.491 . S
C1776 H1767 0.950 . S
C1776 C1775 1.398 . S
C1776 C1777 1.391 . S
C1777 H1765 0.950 . S
C1777 C1773 1.393 . S
C1777 C1776 1.391 . S
C1778 H1768 0.950 . S
C1778 C1779 1.386 . S
C1778 C1780 1.391 . S
C1779 C1778 1.386 . S
C1779 C1783 1.393 . S
C1780 H1769 0.950 . S
C1780 C1778 1.391 . S
C1780 C1781 1.400 . S
C1781 C1775 1.491 . S
C1781 C1780 1.400 . S
C1781 C1782 1.398 . S
C1782 H1770 0.950 . S
C1782 C1781 1.398 . S
C1782 C1783 1.391 . S
C1783 H1771 0.950 . S
C1783 C1779 1.393 . S
C1783 C1782 1.391 . S
H1784 C1792 0.950 . S
H1785 C1797 0.950 . S
H1786 C1794 0.950 . S
H1787 C1796 0.950 . S
H1788 C1798 0.950 . S
H1789 C1800 0.950 . S
H1790 C1802 0.950 . S
H1791 C1803 0.950 . S
C1792 H1784 0.950 . S
C1792 C1793 1.386 . S
C1792 C1794 1.391 . S
C1793 C1792 1.386 . S
C1793 C1797 1.393 . S
C1794 H1786 0.950 . S
C1794 C1792 1.391 . S
C1794 C1795 1.400 . S
C1795 C1794 1.400 . S
C1795 C1796 1.398 . S
C1795 C1801 1.491 . S
C1796 H1787 0.950 . S
C1796 C1795 1.398 . S
C1796 C1797 1.391 . S
C1797 H1785 0.950 . S
C1797 C1793 1.393 . S
C1797 C1796 1.391 . S
C1798 H1788 0.950 . S
C1798 C1799 1.386 . S
C1798 C1800 1.391 . S
C1799 C1798 1.386 . S
C1799 C1803 1.393 . S
C1800 H1789 0.950 . S
C1800 C1798 1.391 . S
C1800 C1801 1.400 . S
C1801 C1795 1.491 . S
C1801 C1800 1.400 . S
C1801 C1802 1.398 . S
C1802 H1790 0.950 . S
C1802 C1801 1.398 . S
C1802 C1803 1.391 . S
C1803 H1791 0.950 . S
C1803 C1799 1.393 . S
C1803 C1802 1.391 . S
H1804 C1812 0.950 . S
H1805 C1817 0.950 . S
H1806 C1814 0.950 . S
H1807 C1816 0.950 . S
H1808 C1818 0.950 . S
H1809 C1820 0.950 . S
H1810 C1822 0.950 . S
H1811 C1823 0.950 . S
C1812 H1804 0.950 . S
C1812 C1813 1.386 . S
C1812 C1814 1.391 . S
C1813 C1812 1.386 . S
C1813 C1817 1.393 . S
C1814 H1806 0.950 . S
C1814 C1812 1.391 . S
C1814 C1815 1.400 . S
C1815 C1814 1.400 . S
C1815 C1816 1.398 . S
C1815 C1821 1.491 . S
C1816 H1807 0.950 . S
C1816 C1815 1.398 . S
C1816 C1817 1.391 . S
C1817 H1805 0.950 . S
C1817 C1813 1.393 . S
C1817 C1816 1.391 . S
C1818 H1808 0.950 . S
C1818 C1819 1.386 . S
C1818 C1820 1.391 . S
C1819 C1818 1.386 . S
C1819 C1823 1.393 . S
C1820 H1809 0.950 . S
C1820 C1818 1.391 . S
C1820 C1821 1.400 . S
C1821 C1815 1.491 . S
C1821 C1820 1.400 . S
C1821 C1822 1.398 . S
C1822 H1810 0.950 . S
C1822 C1821 1.398 . S
C1822 C1823 1.391 . S
C1823 H1811 0.950 . S
C1823 C1819 1.393 . S
C1823 C1822 1.391 . S
C873 C544 1.236 . S
C879 C4 1.219 . S
C893 C446 1.374 . S
C899 C50 1.377 . S
C913 C472 1.329 . S
C919 C86 1.307 . S
C933 C518 1.251 . S
C939 C112 1.271 . S
C953 C508 1.248 . S
C959 C40 1.252 . S
C973 C76 1.163 . S
C979 C554 1.121 . S
C993 C436 1.345 . S
C999 C122 1.314 . S
C1013 C482 1.229 . S
C1019 C14 1.254 . S
C1033 C662 1.412 . S
C1039 C158 1.431 . S
C1053 C184 1.135 . S
C1059 C688 1.127 . S
C1073 C230 1.428 . S
C1079 C590 1.421 . S
C1093 C616 1.153 . S
C1099 C256 1.135 . S
C1113 C796 1.093 . S
C1119 C292 1.095 . S
C1133 C338 1.380 . S
C1139 C832 1.411 . S
C1153 C364 1.128 . S
C1159 C724 1.105 . S
C1173 C410 1.418 . S
C1179 C760 1.470 . S
C1193 C626 1.258 . S
C1199 C400 1.275 . S
C1213 C842 1.348 . S
C1219 C194 1.345 . S
C1233 C220 1.330 . S
C1239 C734 1.295 . S
C1253 C770 1.267 . S
C1259 C266 1.265 . S
C1273 C806 1.192 . S
C1279 C148 1.206 . S
C1293 C328 1.184 . S
C1299 C698 1.155 . S
C1313 C580 1.320 . S
C1319 C374 1.282 . S
C1333 C652 1.224 . S
C1339 C302 1.182 . S
C1353 C3 0.894 . S
C1359 C147 0.866 . S
C1373 C182 0.924 . S
C1379 C38 0.904 . S
C1393 C74 0.913 . S
C1399 C219 0.953 . S
C1413 C111 0.841 . S
C1419 C254 0.804 . S
C1433 C290 0.844 . S
C1439 C39 0.867 . S
C1453 C327 0.734 . S
C1459 C75 0.744 . S
C1473 C362 0.907 . S
C1479 C110 0.901 . S
C1493 C2 0.793 . S
C1499 C399 0.804 . S
C1513 C398 0.998 . S
C1519 C146 1.015 . S
C1533 C183 0.723 . S
C1539 C291 0.699 . S
C1553 C218 0.994 . S
C1559 C326 1.007 . S
C1573 C363 0.766 . S
C1579 C255 0.737 . S
C1593 C579 0.937 . S
C1599 C435 0.952 . S
C1613 C614 0.930 . S
C1619 C470 0.897 . S
C1633 C507 0.860 . S
C1639 C651 0.854 . S
C1653 C542 0.810 . S
C1659 C686 0.804 . S
C1673 C471 0.897 . S
C1679 C722 0.888 . S
C1693 C506 0.876 . S
C1699 C758 0.904 . S
C1713 C794 0.771 . S
C1719 C543 0.790 . S
C1733 C434 0.981 . S
C1739 C830 0.990 . S
C1753 C578 0.955 . S
C1759 C831 0.965 . S
C1773 C723 0.686 . S
C1779 C615 0.714 . S
C1793 C650 0.959 . S
C1799 C759 0.969 . S
C1813 C795 0.718 . S
C1819 C687 0.708 . S
