# Generated by pormake.
# Topology ukg, (4)-cn, num edge types: 1
# Building blocks:
#     Node 0, Type 0, BuildingBlock: GALJAG_clean_sbu_0, # of connection points: 4
#     Node 1, Type 0, BuildingBlock: GALJAG_clean_sbu_0, # of connection points: 4
#     Node 2, Type 0, BuildingBlock: GALJAG_clean_sbu_0, # of connection points: 4
#     Node 3, Type 0, BuildingBlock: GALJAG_clean_sbu_0, # of connection points: 4
#     Node 4, Type 0, BuildingBlock: GALJAG_clean_sbu_0, # of connection points: 4
#     Node 5, Type 0, BuildingBlock: GALJAG_clean_sbu_0, # of connection points: 4
#     Node 6, Type 0, BuildingBlock: GALJAG_clean_sbu_0, # of connection points: 4
#     Node 7, Type 0, BuildingBlock: GALJAG_clean_sbu_0, # of connection points: 4
#     Edge 8, Type (0, 0), BuildingBlock: FUNLAD_clean_linker_0, # of connection points: 2
#     Edge 9, Type (0, 0), BuildingBlock: FUNLAD_clean_linker_0, # of connection points: 2
#     Edge 10, Type (0, 0), BuildingBlock: FUNLAD_clean_linker_0, # of connection points: 2
#     Edge 11, Type (0, 0), BuildingBlock: FUNLAD_clean_linker_0, # of connection points: 2
#     Edge 12, Type (0, 0), BuildingBlock: FUNLAD_clean_linker_0, # of connection points: 2
#     Edge 13, Type (0, 0), BuildingBlock: FUNLAD_clean_linker_0, # of connection points: 2
#     Edge 14, Type (0, 0), BuildingBlock: FUNLAD_clean_linker_0, # of connection points: 2
#     Edge 15, Type (0, 0), BuildingBlock: FUNLAD_clean_linker_0, # of connection points: 2
#     Edge 16, Type (0, 0), BuildingBlock: FUNLAD_clean_linker_0, # of connection points: 2
#     Edge 17, Type (0, 0), BuildingBlock: FUNLAD_clean_linker_0, # of connection points: 2
#     Edge 18, Type (0, 0), BuildingBlock: FUNLAD_clean_linker_0, # of connection points: 2
#     Edge 19, Type (0, 0), BuildingBlock: FUNLAD_clean_linker_0, # of connection points: 2
#     Edge 20, Type (0, 0), BuildingBlock: FUNLAD_clean_linker_0, # of connection points: 2
#     Edge 21, Type (0, 0), BuildingBlock: FUNLAD_clean_linker_0, # of connection points: 2
#     Edge 22, Type (0, 0), BuildingBlock: FUNLAD_clean_linker_0, # of connection points: 2
#     Edge 23, Type (0, 0), BuildingBlock: FUNLAD_clean_linker_0, # of connection points: 2
# Relax obj value: 0.111
# Max RMSD: 0.188
# Mean RMSD: 0.187
data_MOF--net-ukg--node1-GALJAG_clean_sbu_0--edge1-FUNLAD_clean_linker_0
_symmetry_space_group_name_H-M    P1
_symmetry_Int_Tables_number       1
_symmetry_cell_setting            triclinic
loop_
_symmetry_equiv_pos_as_xyz
'x, y, z'
_cell_length_a     34.797565
_cell_length_b     34.703085
_cell_length_c     45.326818
_cell_angle_alpha  90.035929
_cell_angle_beta   89.828333
_cell_angle_gamma 90.040546
loop_
_atom_site_label
_atom_site_type_symbol
_atom_site_fract_x
_atom_site_fract_y
_atom_site_fract_z
_atom_type_partial_charge
In0 In 0.00408 0.67144 0.13676 0.0
O1 O 0.98131 0.65333 0.09125 0.0
O2 O 0.00194 0.60991 0.12011 0.0
C3 C 0.9811 0.74513 0.14222 0.0
C4 C 0.07968 0.68115 0.12757 0.0
C5 C 0.97117 0.64653 0.18713 0.0
O6 O 0.96214 0.72096 0.12723 0.0
O7 O 0.01148 0.73215 0.15357 0.0
O8 O 0.00705 0.64506 0.18299 0.0
O9 O 0.95221 0.65985 0.16578 0.0
C10 C 0.98794 0.61794 0.09529 0.0
O11 O 0.06671 0.6618 0.14902 0.0
O12 O 0.05452 0.69497 0.11059 0.0
In13 In 0.29903 0.50369 0.63286 0.0
O14 O 0.30428 0.56653 0.64675 0.0
O15 O 0.26836 0.553 0.61012 0.0
C16 C 0.32732 0.47087 0.68219 0.0
C17 C 0.3514 0.49602 0.58904 0.0
C18 C 0.22846 0.47258 0.63816 0.0
O19 O 0.32366 0.50692 0.67968 0.0
O20 O 0.31782 0.45186 0.65965 0.0
O21 O 0.25472 0.45611 0.62348 0.0
O22 O 0.23776 0.50458 0.6492 0.0
C23 C 0.2816 0.57862 0.62708 0.0
O24 O 0.31691 0.48538 0.58607 0.0
O25 O 0.35931 0.50962 0.61406 0.0
In26 In 0.48383 0.82076 0.14106 0.0
O27 O 0.50146 0.84463 0.09584 0.0
O28 O 0.47276 0.88188 0.12604 0.0
C29 C 0.51881 0.7515 0.14119 0.0
C30 C 0.40927 0.80408 0.13376 0.0
C31 C 0.517 0.84798 0.19055 0.0
O32 O 0.5332 0.78011 0.12786 0.0
O33 O 0.48689 0.75789 0.15339 0.0
O34 O 0.48469 0.83139 0.1911 0.0
O35 O 0.53178 0.85125 0.16527 0.0
C36 C 0.48795 0.87784 0.10093 0.0
O37 O 0.42099 0.82484 0.15486 0.0
O38 O 0.43512 0.79218 0.1164 0.0
In39 In 0.19126 0.00124 0.6319 0.0
O40 O 0.18531 0.93893 0.64706 0.0
O41 O 0.21636 0.95024 0.60734 0.0
C42 C 0.17102 0.03633 0.68278 0.0
C43 C 0.1347 0.0113 0.59194 0.0
C44 C 0.26337 0.02935 0.63084 0.0
O45 O 0.17267 9e-05 0.68057 0.0
O46 O 0.17838 0.05432 0.6593 0.0
O47 O 0.23574 0.0472 0.61905 0.0
O48 O 0.25457 0.99743 0.64226 0.0
C49 C 0.2046 0.92552 0.62571 0.0
O50 O 0.1692 0.0203 0.58668 0.0
O51 O 0.12881 0.99781 0.61734 0.0
In52 In 0.98758 0.30415 0.86557 0.0
O53 O 0.92501 0.30789 0.85164 0.0
O54 O 0.93924 0.27181 0.88813 0.0
C55 C 0.01785 0.3401 0.81816 0.0
C56 C 0.9899 0.35535 0.91023 0.0
C57 C 0.02492 0.23637 0.86034 0.0
O58 O 0.98688 0.32123 0.81666 0.0
O59 O 0.03311 0.34075 0.84333 0.0
O60 O 0.03929 0.26443 0.87428 0.0
O61 O 0.99204 0.24252 0.84987 0.0
C62 C 0.91344 0.28474 0.87129 0.0
O63 O 0.00471 0.32219 0.91247 0.0
O64 O 0.9743 0.3622 0.88573 0.0
In65 In 0.66548 0.48799 0.35801 0.0
O66 O 0.66088 0.42462 0.3455 0.0
O67 O 0.69656 0.43984 0.38184 0.0
C68 C 0.63821 0.51899 0.30775 0.0
C69 C 0.61207 0.49686 0.40095 0.0
C70 C 0.7353 0.52075 0.35308 0.0
O71 O 0.64158 0.48303 0.31107 0.0
O72 O 0.64733 0.5388 0.32998 0.0
O73 O 0.70881 0.53586 0.36837 0.0
O74 O 0.72668 0.48901 0.34126 0.0
C75 C 0.68351 0.41347 0.3655 0.0
O76 O 0.6466 0.50709 0.40432 0.0
O77 O 0.60456 0.48306 0.37592 0.0
In78 In 0.49678 0.17766 0.85968 0.0
O79 O 0.47846 0.15659 0.9058 0.0
O80 O 0.5093 0.11842 0.87765 0.0
C81 C 0.45543 0.24319 0.85497 0.0
C82 C 0.57013 0.19861 0.86759 0.0
C83 C 0.47282 0.14388 0.80946 0.0
O84 O 0.44145 0.21305 0.8664 0.0
O85 O 0.49005 0.24032 0.84719 0.0
O86 O 0.50187 0.16565 0.81007 0.0
O87 O 0.45623 0.13933 0.83395 0.0
C88 C 0.49313 0.12353 0.90224 0.0
O89 O 0.55989 0.17605 0.84717 0.0
O90 O 0.54336 0.21026 0.88422 0.0
In91 In 0.82604 0.00983 0.36082 0.0
O92 O 0.8352 0.07247 0.34757 0.0
O93 O 0.79932 0.06027 0.38472 0.0
C94 C 0.8611 0.97352 0.31569 0.0
C95 C 0.87526 0.0019 0.40604 0.0
C96 C 0.75388 0.98443 0.35172 0.0
O97 O 0.85024 0.00815 0.31373 0.0
O98 O 0.85425 0.95764 0.34016 0.0
O99 O 0.77657 0.96659 0.36867 0.0
O100 O 0.76768 0.0143 0.34003 0.0
C101 C 0.81384 0.08544 0.36792 0.0
O102 O 0.8409 0.99005 0.40779 0.0
O103 O 0.88423 0.01709 0.38171 0.0
C104 C 0.97527 0.42122 0.92915 0.0
C105 C 0.99056 0.38435 0.9341 0.0
C106 C 0.97571 0.44909 0.95136 0.0
C107 C 0.99118 0.44057 0.97927 0.0
C108 C 0.00676 0.40372 0.98408 0.0
C109 C 0.0064 0.37584 0.96176 0.0
C110 C 0.99291 0.4695 0.00352 0.0
C111 C 0.97151 0.50193 0.00447 0.0
C112 C 0.97461 0.531 0.02845 0.0
C113 C 0.96486 0.56952 0.02249 0.0
C114 C 0.96854 0.59787 0.04427 0.0
C115 C 0.9817 0.58811 0.07254 0.0
H116 H 0.99292 0.49161 0.06296 0.0
C117 C 0.99021 0.5494 0.0788 0.0
C118 C 0.98659 0.52112 0.05708 0.0
H119 H -1e-05 0.54089 0.10051 0.0
H120 H 0.96318 0.42878 0.90793 0.0
H121 H 0.96455 0.4773 0.94614 0.0
H122 H 0.01918 0.39641 0.00524 0.0
H123 H 0.0185 0.34768 0.96618 0.0
H124 H 0.01299 0.46362 0.02123 0.0
H125 H 0.95162 0.5084 0.9868 0.0
H126 H 0.9551 0.57784 0.00073 0.0
H127 H 0.96161 0.62745 0.03886 0.0
C128 C 0.41722 0.50923 0.56942 0.0
C129 C 0.3801 0.49443 0.56496 0.0
C130 C 0.44413 0.50951 0.5465 0.0
C131 C 0.43464 0.49458 0.51855 0.0
C132 C 0.39747 0.47977 0.51417 0.0
C133 C 0.37048 0.4796 0.53713 0.0
C134 C 0.46199 0.49518 0.49319 0.0
C135 C 0.50046 0.4986 0.49607 0.0
C136 C 0.52793 0.49921 0.47078 0.0
C137 C 0.56524 0.51351 0.47544 0.0
C138 C 0.59246 0.51349 0.45267 0.0
C139 C 0.58297 0.49894 0.42473 0.0
H140 H 0.49064 0.47232 0.43816 0.0
C141 C 0.54568 0.48476 0.41994 0.0
C142 C 0.5185 0.48471 0.44269 0.0
H143 H 0.53763 0.473 0.39869 0.0
H144 H 0.42536 0.52126 0.59055 0.0
H145 H 0.47185 0.52237 0.55078 0.0
H146 H 0.3892 0.46834 0.49286 0.0
H147 H 0.34202 0.46818 0.53299 0.0
H148 H 0.44951 0.49246 0.4714 0.0
H149 H 0.51291 0.50123 0.51788 0.0
H150 H 0.57346 0.52464 0.49686 0.0
H151 H 0.62103 0.52444 0.45706 0.0
C152 C 0.50456 0.90422 0.05098 0.0
C153 C 0.48919 0.90971 0.07934 0.0
C154 C 0.50495 0.93449 0.0306 0.0
C155 C 0.48975 0.97085 0.03818 0.0
C156 C 0.47514 0.97637 0.06674 0.0
C157 C 0.47466 0.94613 0.08705 0.0
C158 C 0.48947 0.00396 0.01734 0.0
C159 C 0.48974 -0.00021 0.9878 0.0
C160 C 0.4901 0.0326 0.96672 0.0
C161 C 0.50458 0.02612 0.93825 0.0
C162 C 0.50557 0.05577 0.91753 0.0
C163 C 0.49164 0.09262 0.92463 0.0
H164 H 0.46327 0.07538 0.99526 0.0
C165 C 0.47653 0.09919 0.95295 0.0
C166 C 0.47574 0.06946 0.97385 0.0
H167 H 0.46533 0.12725 0.95894 0.0
H168 H 0.51629 0.87655 0.04454 0.0
H169 H 0.51774 0.92932 0.00919 0.0
H170 H 0.46363 0.0041 0.07331 0.0
H171 H 0.4628 0.95135 0.10881 0.0
H172 H 0.48842 0.03262 0.0269 0.0
H173 H 0.49058 0.97108 0.97831 0.0
H174 H 0.51552 -0.00198 0.93205 0.0
H175 H 0.51721 0.04968 0.89583 0.0
C176 C 0.94135 0.01094 0.42571 0.0
C177 C 0.90314 -0.00062 0.43047 0.0
C178 C 0.96796 0.01017 0.44862 0.0
C179 C 0.95689 -0.00177 0.47707 0.0
C180 C 0.9189 0.98569 0.48166 0.0
C181 C 0.89218 0.98637 0.45859 0.0
C182 C 0.9846 0.99736 0.50199 0.0
C183 C 0.01594 0.02025 0.50316 0.0
C184 C 0.04539 0.01838 0.5268 0.0
C185 C 0.08248 0.03233 0.52066 0.0
C186 C 0.11145 0.03041 0.54188 0.0
C187 C 0.1038 0.01484 0.56984 0.0
H188 H 0.00909 0.99367 0.56108 0.0
C189 C 0.06648 0.0018 0.57634 0.0
C190 C 0.03752 0.00357 0.55507 0.0
H191 H 0.05966 0.98994 0.59783 0.0
H192 H 0.95084 0.02061 0.40417 0.0
H193 H -0.00275 0.01843 0.44369 0.0
H194 H 0.90974 0.97582 0.50323 0.0
H195 H 0.86295 0.97713 0.46285 0.0
H196 H 0.97875 0.97714 0.51969 0.0
H197 H 0.02125 0.04075 0.48554 0.0
H198 H 0.08928 0.04421 0.49916 0.0
H199 H 0.1399 0.04085 0.53628 0.0
C200 C 0.13269 0.72081 0.1064 0.0
C201 C 0.12088 0.68959 0.12392 0.0
C202 C 0.17141 0.73117 0.105 0.0
C203 C 0.199 0.71012 0.12079 0.0
C204 C 0.18744 0.67782 0.13715 0.0
C205 C 0.14859 0.66791 0.13904 0.0
C206 C 0.23988 0.72167 0.1208 0.0
C207 C 0.2506 0.75887 0.12222 0.0
C208 C 0.29134 0.77063 0.12442 0.0
C209 C 0.30115 0.80239 0.14203 0.0
C210 C 0.33957 0.81335 0.14517 0.0
C211 C 0.36863 0.79328 0.1301 0.0
H212 H 0.31352 0.7268 0.09476 0.0
C213 C 0.35867 0.76224 0.11175 0.0
C214 C 0.32038 0.75085 0.10905 0.0
H215 H 0.38053 0.74635 0.0998 0.0
H216 H 0.1119 0.73795 0.09446 0.0
H217 H 0.17971 0.75569 0.09165 0.0
H218 H 0.20835 0.66101 0.14926 0.0
H219 H 0.1402 0.64356 0.15256 0.0
H220 H 0.26142 0.69909 0.12221 0.0
H221 H 0.22884 0.78121 0.12413 0.0
H222 H 0.27914 0.81822 0.15386 0.0
H223 H 0.34651 0.83755 0.15929 0.0
C224 C 0.29076 0.64822 0.6393 0.0
C225 C 0.26959 0.61922 0.62512 0.0
C226 C 0.27842 0.68649 0.6383 0.0
C227 C 0.24438 0.69627 0.62342 0.0
C228 C 0.2231 0.66723 0.60948 0.0
C229 C 0.23584 0.62909 0.60997 0.0
C230 C 0.2297 0.73626 0.62323 0.0
C231 C 0.25319 0.76689 0.62136 0.0
C232 C 0.23876 0.80697 0.62151 0.0
C233 C 0.25806 0.83491 0.60477 0.0
C234 C 0.24607 0.87327 0.60542 0.0
C235 C 0.21514 0.88452 0.62345 0.0
H236 H 0.19243 0.79724 0.65284 0.0
C237 C 0.19582 0.85661 0.64028 0.0
C238 C 0.20735 0.81806 0.63919 0.0
H239 H 0.17202 0.8646 0.65448 0.0
H240 H 0.31677 0.6413 0.65126 0.0
H241 H 0.29498 0.7082 0.64981 0.0
H242 H 0.19665 0.67409 0.59808 0.0
H243 H 0.21879 0.60721 0.59907 0.0
H244 H 0.19874 0.74045 0.62318 0.0
H245 H 0.28388 0.76252 0.61826 0.0
H246 H 0.28249 0.82704 0.59117 0.0
H247 H 0.26169 0.89429 0.5924 0.0
C248 C 0.63997 0.19222 0.85628 0.0
C249 C 0.61014 0.21159 0.87097 0.0
C250 C 0.67774 0.20536 0.85852 0.0
C251 C 0.68627 0.23836 0.8753 0.0
C252 C 0.65642 0.25783 0.88984 0.0
C253 C 0.6187 0.24429 0.88801 0.0
C254 C 0.72573 0.25404 0.87662 0.0
C255 C 0.75688 0.23119 0.87669 0.0
C256 C 0.79646 0.24665 0.87641 0.0
C257 C 0.82557 0.22617 0.89084 0.0
C258 C 0.86351 0.23917 0.88981 0.0
C259 C 0.87309 0.27238 0.87369 0.0
H260 H 0.78422 0.29609 0.84863 0.0
C261 C 0.844 0.29284 0.85912 0.0
C262 C 0.80594 0.28021 0.86059 0.0
H263 H 0.85069 0.31844 0.84645 0.0
H264 H 0.63409 0.16704 0.84288 0.0
H265 H 0.70003 0.19029 0.84644 0.0
H266 H 0.66233 0.28351 0.90267 0.0
H267 H 0.59614 0.25992 0.89937 0.0
H268 H 0.72912 0.28509 0.87852 0.0
H269 H 0.75336 0.2001 0.87793 0.0
H270 H 0.81894 0.20005 0.90292 0.0
H271 H 0.88547 0.22271 0.90107 0.0
C272 C 0.72818 0.36366 0.38515 0.0
C273 C 0.69533 0.37297 0.36871 0.0
C274 C 0.74065 0.32553 0.38704 0.0
C275 C 0.72017 0.29602 0.37279 0.0
C276 C 0.68666 0.30518 0.35718 0.0
C277 C 0.67457 0.34343 0.35482 0.0
C278 C 0.73285 0.25543 0.37424 0.0
C279 C 0.77017 0.24535 0.37388 0.0
C280 C 0.78239 0.20456 0.37374 0.0
C281 C 0.8143 0.19344 0.35677 0.0
C282 C 0.82497 0.15467 0.35506 0.0
C283 C 0.80439 0.12662 0.37088 0.0
H284 H 0.73835 0.18453 0.40408 0.0
C285 C 0.77348 0.13804 0.38886 0.0
C286 C 0.76246 0.17662 0.39019 0.0
H287 H 0.75722 0.11703 0.40142 0.0
H288 H 0.74465 0.38591 0.39614 0.0
H289 H 0.76608 0.31916 0.39985 0.0
H290 H 0.67025 0.28281 0.34627 0.0
H291 H 0.64901 0.34986 0.34217 0.0
H292 H 0.71083 0.23321 0.37344 0.0
H293 H 0.79219 0.26735 0.37139 0.0
H294 H 0.83028 0.21461 0.34416 0.0
H295 H 0.84908 0.14663 0.34119 0.0
C296 C 0.80099 0.52041 0.33129 0.0
C297 C 0.77167 0.54058 0.34597 0.0
C298 C 0.83213 0.54007 0.319 0.0
C299 C 0.83457 0.58047 0.32113 0.0
C300 C 0.80648 0.60029 0.33751 0.0
C301 C 0.7754 0.5805 0.35001 0.0
C302 C 0.86205 0.60294 0.30279 0.0
C303 C 0.89402 0.58781 0.29061 0.0
C304 C 0.9147 0.6065 0.26575 0.0
C305 C 0.95361 0.59789 0.26076 0.0
C306 C 0.97247 0.61171 0.23557 0.0
C307 C 0.95243 0.63368 0.21465 0.0
H308 H 0.86468 0.63548 0.24757 0.0
C309 C 0.91366 0.64263 0.2198 0.0
C310 C 0.89499 0.62927 0.24505 0.0
H311 H 0.89748 0.65952 0.20404 0.0
H312 H 0.79886 0.48957 0.32788 0.0
H313 H 0.85256 0.52361 0.30613 0.0
H314 H 0.80752 0.6314 0.33937 0.0
H315 H 0.75313 0.59679 0.36116 0.0
H316 H 0.85405 0.63238 0.29746 0.0
H317 H 0.90453 0.55997 0.29792 0.0
H318 H 0.96927 0.57995 0.27614 0.0
H319 H 0.00239 0.60433 0.23209 0.0
C320 C 0.33696 0.41182 0.7125 0.0
C321 C 0.34038 0.45194 0.70955 0.0
C322 C 0.34912 0.39341 0.73817 0.0
C323 C 0.36509 0.41474 0.76153 0.0
C324 C 0.36866 0.45487 0.75854 0.0
C325 C 0.35603 0.4734 0.7329 0.0
C326 C 0.38165 0.3952 0.78772 0.0
C327 C 0.36858 0.36097 0.79764 0.0
C328 C 0.39015 0.3357 0.81828 0.0
C329 C 0.37128 0.30377 0.83078 0.0
C330 C 0.39212 0.27483 0.84508 0.0
C331 C 0.43231 0.27718 0.84681 0.0
H332 H 0.44609 0.36299 0.81258 0.0
C333 C 0.45088 0.31041 0.8363 0.0
C334 C 0.43011 0.33936 0.82217 0.0
H335 H 0.48188 0.31302 0.8374 0.0
H336 H 0.32504 0.39449 0.69486 0.0
H337 H 0.34712 0.36231 0.73916 0.0
H338 H 0.38143 0.47188 0.77601 0.0
H339 H 0.35906 0.50439 0.73118 0.0
H340 H 0.40603 0.40894 0.79827 0.0
H341 H 0.34191 0.34956 0.78876 0.0
H342 H 0.34056 0.30014 0.82808 0.0
H343 H 0.37707 0.24948 0.85293 0.0
C344 C 0.56769 0.8876 0.21428 0.0
C345 C 0.53702 0.86163 0.21722 0.0
C346 C 0.58842 0.89936 0.23892 0.0
C347 C 0.57912 0.88524 0.26713 0.0
C348 C 0.54864 0.85901 0.27014 0.0
C349 C 0.52735 0.84765 0.24539 0.0
C350 C 0.60273 0.8963 0.29299 0.0
C351 C 0.61657 0.93234 0.29564 0.0
C352 C 0.64746 0.94447 0.3162 0.0
C353 C 0.65546 0.984 0.31819 0.0
C354 C 0.68897 0.99696 0.33164 0.0
C355 C 0.71524 0.97068 0.34364 0.0
H356 H 0.66757 0.88744 0.3289 0.0
C357 C 0.70599 0.9313 0.34396 0.0
C358 C 0.6724 0.91817 0.33016 0.0
H359 H 0.72592 0.91048 0.35299 0.0
H360 H 0.57597 0.89863 0.19282 0.0
H361 H 0.61248 0.91874 0.23569 0.0
H362 H 0.54129 0.84739 0.2916 0.0
H363 H 0.50405 0.82725 0.24816 0.0
H364 H 0.60944 0.87435 0.30921 0.0
H365 H 0.60626 0.95414 0.28034 0.0
H366 H 0.6368 0.00493 0.30777 0.0
H367 H 0.69524 0.02755 0.33134 0.0
C368 C 0.08645 0.20021 0.85317 0.0
C369 C 0.04612 0.20076 0.85324 0.0
C370 C 0.10621 0.16949 0.84006 0.0
C371 C 0.0858 0.13885 0.82702 0.0
C372 C 0.04569 0.13774 0.82984 0.0
C373 C 0.02598 0.16857 0.84256 0.0
C374 C 0.10463 0.11011 0.8075 0.0
C375 C 0.13353 0.12014 0.78923 0.0
C376 C 0.14499 0.09691 0.76312 0.0
C377 C 0.15956 0.11645 0.73843 0.0
C378 C 0.16787 0.09663 0.71243 0.0
C379 C 0.16238 0.05662 0.71065 0.0
H380 H 0.13005 0.04048 0.78054 0.0
C381 C 0.1491 0.03665 0.73564 0.0
C382 C 0.14035 0.05663 0.76169 0.0
H383 H 0.14506 0.00571 0.73496 0.0
H384 H 0.10265 0.22456 0.86146 0.0
H385 H 0.13728 0.17057 0.83903 0.0
H386 H 0.02932 0.11427 0.8203 0.0
H387 H 0.99485 0.16808 0.84267 0.0
H388 H 0.09006 0.08273 0.80439 0.0
H389 H 0.14543 0.14904 0.79071 0.0
H390 H 0.16358 0.14742 0.73894 0.0
H391 H 0.17853 0.11277 0.69366 0.0
C392 C 0.02498 0.3506 0.76362 0.0
C393 C 0.0353 0.35999 0.79271 0.0
C394 C 0.04317 0.36875 0.73974 0.0
C395 C 0.0715 0.39693 0.74475 0.0
C396 C 0.08087 0.40691 0.77384 0.0
C397 C 0.06331 0.38837 0.79756 0.0
C398 C 0.09204 0.4169 0.72053 0.0
C399 C 0.10081 0.4004 0.69445 0.0
C400 C 0.12851 0.41905 0.67396 0.0
C401 C 0.15615 0.39644 0.65939 0.0
C402 C 0.18757 0.41391 0.64535 0.0
C403 C 0.19154 0.45419 0.64572 0.0
H404 H 0.10875 0.4776 0.68137 0.0
C405 C 0.16183 0.47675 0.65762 0.0
C406 C 0.13044 0.45937 0.6714 0.0
H407 H 0.16384 0.50791 0.65769 0.0
H408 H 0.00336 0.32885 0.75934 0.0
H409 H 0.0348 0.361 0.71754 0.0
H410 H 0.10245 0.42867 0.77828 0.0
H411 H 0.07165 0.39637 0.81975 0.0
H412 H 0.10439 0.44482 0.7259 0.0
H413 H 0.09213 0.37088 0.69005 0.0
H414 H 0.15498 0.36529 0.66071 0.0
H415 H 0.21003 0.39587 0.6362 0.0
C416 C 0.63189 0.57663 0.27553 0.0
C417 C 0.62611 0.53699 0.2798 0.0
C418 C 0.62047 0.5943 0.24939 0.0
C419 C 0.60279 0.57274 0.2269 0.0
C420 C 0.59697 0.53307 0.23116 0.0
C421 C 0.60897 0.5152 0.25726 0.0
C422 C 0.58638 0.59209 0.20061 0.0
C423 C 0.60131 0.62488 0.18951 0.0
C424 C 0.5797 0.65195 0.17032 0.0
C425 C 0.59967 0.68238 0.15668 0.0
C426 C 0.57977 0.71362 0.14459 0.0
C427 C 0.53954 0.71509 0.14633 0.0
H428 H 0.52254 0.62961 0.18011 0.0
C429 C 0.51947 0.68327 0.15771 0.0
C430 C 0.53925 0.65199 0.16956 0.0
H431 H 0.48838 0.6836 0.15919 0.0
H432 H 0.64507 0.59415 0.29251 0.0
H433 H 0.62424 0.62515 0.24739 0.0
H434 H 0.58283 0.51597 0.21438 0.0
H435 H 0.60416 0.48458 0.26003 0.0
H436 H 0.56017 0.58009 0.19148 0.0
H437 H 0.62949 0.63425 0.19694 0.0
H438 H 0.6308 0.68316 0.157 0.0
H439 H 0.59595 0.73782 0.13598 0.0
C440 C 0.46881 0.13932 0.75433 0.0
C441 C 0.45875 0.12524 0.78237 0.0
C442 C 0.45307 0.12268 0.7289 0.0
C443 C 0.42755 0.09138 0.73129 0.0
C444 C 0.41886 0.07653 0.7593 0.0
C445 C 0.43392 0.09352 0.78459 0.0
C446 C 0.40833 0.0738 0.70549 0.0
C447 C 0.39724 0.09392 0.68156 0.0
C448 C 0.36814 0.07794 0.66101 0.0
C449 C 0.33916 0.10225 0.65019 0.0
C450 C 0.30601 0.0866 0.6375 0.0
C451 C 0.30159 0.04646 0.63554 0.0
H452 H 0.38829 0.01874 0.66239 0.0
C453 C 0.33247 0.02251 0.64316 0.0
C454 C 0.36567 0.03813 0.65548 0.0
H455 H 0.33003 0.99147 0.6413 0.0
H456 H 0.48805 0.1637 0.75209 0.0
H457 H 0.46087 0.13429 0.70754 0.0
H458 H 0.3994 0.05232 0.76172 0.0
H459 H 0.42594 0.08189 0.80592 0.0
H460 H 0.39788 0.04453 0.70845 0.0
H461 H 0.40422 0.12436 0.6799 0.0
H462 H 0.34066 0.13308 0.6538 0.0
H463 H 0.28263 0.10569 0.63163 0.0
C464 C 0.99203 0.81049 0.16296 0.0
C465 C 0.96699 0.78405 0.14957 0.0
C466 C 0.97775 0.84389 0.17608 0.0
C467 C 0.93804 0.85124 0.1764 0.0
C468 C 0.91347 0.82682 0.16045 0.0
C469 C 0.92784 0.79333 0.14715 0.0
C470 C 0.92145 0.88136 0.19589 0.0
C471 C 0.93593 0.88742 0.22304 0.0
C472 C 0.91665 0.91086 0.24599 0.0
C473 C 0.92053 0.89941 0.27549 0.0
C474 C 0.90234 0.91985 0.29799 0.0
C475 C 0.88064 0.95281 0.29154 0.0
H476 H 0.89221 0.95391 0.21686 0.0
C477 C 0.87747 0.96506 0.2621 0.0
C478 C 0.8951 0.94402 0.23939 0.0
H479 H 0.86092 0.99047 0.25661 0.0
H480 H 0.02249 0.80442 0.16465 0.0
H481 H -0.00238 0.86296 0.18724 0.0
H482 H 0.8828 0.83218 0.16007 0.0
H483 H 0.90795 0.7735 0.13679 0.0
H484 H 0.89432 0.89447 0.18968 0.0
H485 H 0.96075 0.87085 0.2301 0.0
H486 H 0.93716 0.87408 0.28114 0.0
H487 H 0.90548 0.90992 0.32052 0.0
loop_
_geom_bond_atom_site_label_1
_geom_bond_atom_site_label_2
_geom_bond_distance
_geom_bond_site_symmetry_2
_ccdc_geom_bond_type
In0 O1 2.293 1_455 S
In0 O2 2.327 . S
In0 O6 2.264 1_455 S
In0 O7 2.325 1_455 S
In0 O8 2.266 1_455 S
In0 O9 2.323 1_455 S
In0 O11 2.297 . S
In0 O12 2.329 . S
O1 In0 2.293 1_655 S
O1 C10 1.240 1_655 S
O2 In0 2.327 . S
O2 C10 1.252 . S
C3 O6 1.252 . S
C3 O7 1.260 . S
C4 O11 1.240 . S
C4 O12 1.252 . S
C5 O8 1.252 . S
C5 O9 1.260 . S
O6 In0 2.264 1_655 S
O6 C3 1.252 . S
O7 In0 2.325 1_655 S
O7 C3 1.260 . S
O8 In0 2.266 1_655 S
O8 C5 1.252 . S
O9 In0 2.323 1_655 S
O9 C5 1.260 . S
C10 O1 1.240 1_455 S
C10 O2 1.252 . S
O11 In0 2.297 . S
O11 C4 1.240 . S
O12 In0 2.329 . S
O12 C4 1.252 . S
In13 O14 2.294 . S
In13 O15 2.326 . S
In13 O19 2.266 . S
In13 O20 2.326 . S
In13 O21 2.266 . S
In13 O22 2.326 . S
In13 O24 2.294 . S
In13 O25 2.326 . S
O14 In13 2.294 . S
O14 C23 1.240 . S
O15 In13 2.326 . S
O15 C23 1.252 . S
C16 O19 1.252 . S
C16 O20 1.260 . S
C17 O24 1.240 . S
C17 O25 1.252 . S
C18 O21 1.252 . S
C18 O22 1.260 . S
O19 In13 2.266 . S
O19 C16 1.252 . S
O20 In13 2.326 . S
O20 C16 1.260 . S
O21 In13 2.266 . S
O21 C18 1.252 . S
O22 In13 2.326 . S
O22 C18 1.260 . S
C23 O14 1.240 . S
C23 O15 1.252 . S
O24 In13 2.294 . S
O24 C17 1.240 . S
O25 In13 2.326 . S
O25 C17 1.252 . S
In26 O27 2.294 . S
In26 O28 2.326 . S
In26 O32 2.266 . S
In26 O33 2.326 . S
In26 O34 2.266 . S
In26 O35 2.326 . S
In26 O37 2.294 . S
In26 O38 2.326 . S
O27 In26 2.294 . S
O27 C36 1.240 . S
O28 In26 2.326 . S
O28 C36 1.252 . S
C29 O32 1.252 . S
C29 O33 1.260 . S
C30 O37 1.240 . S
C30 O38 1.252 . S
C31 O34 1.252 . S
C31 O35 1.260 . S
O32 In26 2.266 . S
O32 C29 1.252 . S
O33 In26 2.326 . S
O33 C29 1.260 . S
O34 In26 2.266 . S
O34 C31 1.252 . S
O35 In26 2.326 . S
O35 C31 1.260 . S
C36 O27 1.240 . S
C36 O28 1.252 . S
O37 In26 2.294 . S
O37 C30 1.240 . S
O38 In26 2.326 . S
O38 C30 1.252 . S
In39 O40 2.297 . S
In39 O41 2.329 . S
In39 O45 2.266 1_565 S
In39 O46 2.323 1_565 S
In39 O47 2.264 1_565 S
In39 O48 2.325 1_565 S
In39 O50 2.293 1_565 S
In39 O51 2.327 . S
O40 In39 2.297 . S
O40 C49 1.240 . S
O41 In39 2.329 . S
O41 C49 1.252 . S
C42 O45 1.252 . S
C42 O46 1.260 . S
C43 O50 1.240 1_565 S
C43 O51 1.252 . S
C44 O47 1.252 . S
C44 O48 1.260 . S
O45 In39 2.266 1_545 S
O45 C42 1.252 . S
O46 In39 2.323 1_545 S
O46 C42 1.260 . S
O47 In39 2.264 1_545 S
O47 C44 1.252 . S
O48 In39 2.325 1_545 S
O48 C44 1.260 . S
C49 O40 1.240 . S
C49 O41 1.252 . S
O50 In39 2.293 1_545 S
O50 C43 1.240 1_545 S
O51 In39 2.327 . S
O51 C43 1.252 . S
In52 O53 2.297 . S
In52 O54 2.329 . S
In52 O58 2.266 1_655 S
In52 O59 2.323 1_655 S
In52 O60 2.264 1_655 S
In52 O61 2.325 1_655 S
In52 O63 2.293 1_655 S
In52 O64 2.327 . S
O53 In52 2.297 . S
O53 C62 1.240 . S
O54 In52 2.329 . S
O54 C62 1.252 . S
C55 O58 1.252 . S
C55 O59 1.260 . S
C56 O63 1.240 1_655 S
C56 O64 1.252 . S
C57 O60 1.252 . S
C57 O61 1.260 . S
O58 In52 2.266 1_455 S
O58 C55 1.252 . S
O59 In52 2.323 1_455 S
O59 C55 1.260 . S
O60 In52 2.264 1_455 S
O60 C57 1.252 . S
O61 In52 2.325 1_455 S
O61 C57 1.260 . S
C62 O53 1.240 . S
C62 O54 1.252 . S
O63 In52 2.293 1_455 S
O63 C56 1.240 1_455 S
O64 In52 2.327 . S
O64 C56 1.252 . S
In65 O66 2.294 . S
In65 O67 2.326 . S
In65 O71 2.266 . S
In65 O72 2.326 . S
In65 O73 2.266 . S
In65 O74 2.326 . S
In65 O76 2.294 . S
In65 O77 2.326 . S
O66 In65 2.294 . S
O66 C75 1.240 . S
O67 In65 2.326 . S
O67 C75 1.252 . S
C68 O71 1.252 . S
C68 O72 1.260 . S
C69 O76 1.240 . S
C69 O77 1.252 . S
C70 O73 1.252 . S
C70 O74 1.260 . S
O71 In65 2.266 . S
O71 C68 1.252 . S
O72 In65 2.326 . S
O72 C68 1.260 . S
O73 In65 2.266 . S
O73 C70 1.252 . S
O74 In65 2.326 . S
O74 C70 1.260 . S
C75 O66 1.240 . S
C75 O67 1.252 . S
O76 In65 2.294 . S
O76 C69 1.240 . S
O77 In65 2.326 . S
O77 C69 1.252 . S
In78 O79 2.294 . S
In78 O80 2.326 . S
In78 O84 2.266 . S
In78 O85 2.326 . S
In78 O86 2.266 . S
In78 O87 2.326 . S
In78 O89 2.294 . S
In78 O90 2.326 . S
O79 In78 2.294 . S
O79 C88 1.240 . S
O80 In78 2.326 . S
O80 C88 1.252 . S
C81 O84 1.252 . S
C81 O85 1.260 . S
C82 O89 1.240 . S
C82 O90 1.252 . S
C83 O86 1.252 . S
C83 O87 1.260 . S
O84 In78 2.266 . S
O84 C81 1.252 . S
O85 In78 2.326 . S
O85 C81 1.260 . S
O86 In78 2.266 . S
O86 C83 1.252 . S
O87 In78 2.326 . S
O87 C83 1.260 . S
C88 O79 1.240 . S
C88 O80 1.252 . S
O89 In78 2.294 . S
O89 C82 1.240 . S
O90 In78 2.326 . S
O90 C82 1.252 . S
In91 O92 2.297 . S
In91 O93 2.329 . S
In91 O97 2.266 1_545 S
In91 O98 2.323 1_545 S
In91 O99 2.264 1_545 S
In91 O100 2.325 1_545 S
In91 O102 2.293 1_545 S
In91 O103 2.327 . S
O92 In91 2.297 . S
O92 C101 1.240 . S
O93 In91 2.329 . S
O93 C101 1.252 . S
C94 O97 1.252 . S
C94 O98 1.260 . S
C95 O102 1.240 1_545 S
C95 O103 1.252 . S
C96 O99 1.252 . S
C96 O100 1.260 . S
O97 In91 2.266 1_565 S
O97 C94 1.252 . S
O98 In91 2.323 1_565 S
O98 C94 1.260 . S
O99 In91 2.264 1_565 S
O99 C96 1.252 . S
O100 In91 2.325 1_565 S
O100 C96 1.260 . S
C101 O92 1.240 . S
C101 O93 1.252 . S
O102 In91 2.293 1_565 S
O102 C95 1.240 1_565 S
O103 In91 2.327 . S
O103 C95 1.252 . S
C104 C105 1.386 1_455 S
C104 C106 1.383 . S
C104 H120 0.951 . S
C105 C104 1.386 1_655 S
C105 C109 1.383 . S
C106 C104 1.383 . S
C106 C107 1.402 1_455 S
C106 H121 0.951 . S
C107 C106 1.402 1_655 S
C107 C108 1.375 . S
C107 C110 1.481 . S
C108 C107 1.375 . S
C108 C109 1.367 . S
C108 H122 0.951 . S
C109 C105 1.383 . S
C109 C108 1.367 . S
C109 H123 0.950 . S
C110 C107 1.481 . S
C110 C111 1.297 . S
C110 H124 0.950 1_556 S
C111 C110 1.297 . S
C111 C112 1.479 1_556 S
C111 H125 0.950 1_655 S
C112 C111 1.479 1_554 S
C112 C113 1.375 1_655 S
C112 C118 1.404 . S
C113 C112 1.375 1_455 S
C113 C114 1.369 . S
C113 H126 0.950 1_554 S
C114 C113 1.369 . S
C114 C115 1.386 1_455 S
C114 H127 0.951 . S
C115 C114 1.386 1_655 S
C115 C117 1.392 . S
H116 C118 0.949 . S
C117 C115 1.392 . S
C117 C118 1.385 . S
C117 H119 0.950 . S
C118 C112 1.404 . S
C118 H116 0.949 . S
C118 C117 1.385 . S
H119 C117 0.950 . S
H120 C104 0.951 . S
H121 C106 0.951 . S
H122 C108 0.951 . S
H123 C109 0.950 . S
H124 C110 0.950 1_554 S
H125 C111 0.950 1_455 S
H126 C113 0.950 1_556 S
H127 C114 0.951 . S
C128 C129 1.386 . S
C128 C130 1.383 . S
C128 H144 0.951 . S
C129 C128 1.386 . S
C129 C133 1.383 . S
C130 C128 1.383 . S
C130 C131 1.402 . S
C130 H145 0.951 . S
C131 C130 1.402 . S
C131 C132 1.375 . S
C131 C134 1.481 . S
C132 C131 1.375 . S
C132 C133 1.367 . S
C132 H146 0.951 . S
C133 C129 1.383 . S
C133 C132 1.367 . S
C133 H147 0.950 . S
C134 C131 1.481 . S
C134 C135 1.297 . S
C134 H148 0.950 . S
C135 C134 1.297 . S
C135 C136 1.479 . S
C135 H149 0.950 . S
C136 C135 1.479 . S
C136 C137 1.375 . S
C136 C142 1.404 . S
C137 C136 1.375 . S
C137 C138 1.369 . S
C137 H150 0.950 . S
C138 C137 1.369 . S
C138 C139 1.392 . S
C138 H151 0.951 . S
C139 C138 1.392 . S
C139 C141 1.384 . S
H140 C142 0.949 . S
C141 C139 1.384 . S
C141 C142 1.385 . S
C141 H143 0.950 . S
C142 C136 1.404 . S
C142 H140 0.949 . S
C142 C141 1.385 . S
H143 C141 0.950 . S
H144 C128 0.951 . S
H145 C130 0.951 . S
H146 C132 0.951 . S
H147 C133 0.950 . S
H148 C134 0.950 . S
H149 C135 0.950 . S
H150 C137 0.950 . S
H151 C138 0.951 . S
C152 C153 1.386 . S
C152 C154 1.383 . S
C152 H168 0.951 . S
C153 C152 1.386 . S
C153 C157 1.383 . S
C154 C152 1.383 . S
C154 C155 1.402 . S
C154 H169 0.951 . S
C155 C154 1.402 . S
C155 C156 1.375 . S
C155 C158 1.481 1_565 S
C156 C155 1.375 . S
C156 C157 1.367 . S
C156 H170 0.951 . S
C157 C153 1.383 . S
C157 C156 1.367 . S
C157 H171 0.950 . S
C158 C155 1.481 1_545 S
C158 C159 1.297 1_554 S
C158 H172 0.950 . S
C159 C158 1.297 1_556 S
C159 C160 1.479 . S
C159 H173 0.950 1_545 S
C160 C159 1.479 . S
C160 C161 1.375 . S
C160 C166 1.404 . S
C161 C160 1.375 . S
C161 C162 1.369 . S
C161 H174 0.950 . S
C162 C161 1.369 . S
C162 C163 1.392 . S
C162 H175 0.951 . S
C163 C162 1.392 . S
C163 C165 1.384 . S
H164 C166 0.949 1_554 S
C165 C163 1.384 . S
C165 C166 1.385 . S
C165 H167 0.950 . S
C166 C160 1.404 . S
C166 H164 0.949 1_556 S
C166 C165 1.385 . S
H167 C165 0.950 . S
H168 C152 0.951 . S
H169 C154 0.951 . S
H170 C156 0.951 . S
H171 C157 0.950 . S
H172 C158 0.950 . S
H173 C159 0.950 1_565 S
H174 C161 0.950 . S
H175 C162 0.951 . S
C176 C177 1.386 1_565 S
C176 C178 1.383 . S
C176 H192 0.951 . S
C177 C176 1.386 1_545 S
C177 C181 1.383 . S
C178 C176 1.383 . S
C178 C179 1.402 1_565 S
C178 H193 0.951 . S
C179 C178 1.402 1_545 S
C179 C180 1.375 . S
C179 C182 1.481 . S
C180 C179 1.375 . S
C180 C181 1.367 . S
C180 H194 0.951 . S
C181 C177 1.383 . S
C181 C180 1.367 . S
C181 H195 0.950 . S
C182 C179 1.481 . S
C182 C183 1.297 1_655 S
C182 H196 0.950 . S
C183 C182 1.297 1_455 S
C183 C184 1.479 . S
C183 H197 0.950 1_545 S
C184 C183 1.479 . S
C184 C185 1.375 1_545 S
C184 C190 1.404 . S
C185 C184 1.375 1_565 S
C185 C186 1.369 . S
C185 H198 0.950 . S
C186 C185 1.369 . S
C186 C187 1.383 1_565 S
C186 H199 0.951 . S
C187 C186 1.383 1_545 S
C187 C189 1.394 . S
H188 C190 0.949 . S
C189 C187 1.394 . S
C189 C190 1.385 . S
C189 H191 0.950 . S
C190 C184 1.404 . S
C190 H188 0.949 . S
C190 C189 1.385 . S
H191 C189 0.950 . S
H192 C176 0.951 . S
H193 C178 0.951 . S
H194 C180 0.951 . S
H195 C181 0.950 . S
H196 C182 0.950 . S
H197 C183 0.950 1_565 S
H198 C185 0.950 . S
H199 C186 0.951 . S
C200 C201 1.386 . S
C200 C202 1.383 . S
C200 H216 0.951 . S
C201 C200 1.386 . S
C201 C205 1.383 . S
C202 C200 1.383 . S
C202 C203 1.402 . S
C202 H217 0.951 . S
C203 C202 1.402 . S
C203 C204 1.375 . S
C203 C206 1.481 . S
C204 C203 1.375 . S
C204 C205 1.367 . S
C204 H218 0.951 . S
C205 C201 1.383 . S
C205 C204 1.367 . S
C205 H219 0.950 . S
C206 C203 1.481 . S
C206 C207 1.297 . S
C206 H220 0.950 . S
C207 C206 1.297 . S
C207 C208 1.479 . S
C207 H221 0.950 . S
C208 C207 1.479 . S
C208 C209 1.375 . S
C208 C214 1.404 . S
C209 C208 1.375 . S
C209 C210 1.369 . S
C209 H222 0.950 . S
C210 C209 1.369 . S
C210 C211 1.392 . S
C210 H223 0.951 . S
C211 C210 1.392 . S
C211 C213 1.384 . S
H212 C214 0.949 . S
C213 C211 1.384 . S
C213 C214 1.385 . S
C213 H215 0.950 . S
C214 C208 1.404 . S
C214 H212 0.949 . S
C214 C213 1.385 . S
H215 C213 0.950 . S
H216 C200 0.951 . S
H217 C202 0.951 . S
H218 C204 0.951 . S
H219 C205 0.950 . S
H220 C206 0.950 . S
H221 C207 0.950 . S
H222 C209 0.950 . S
H223 C210 0.951 . S
C224 C225 1.386 . S
C224 C226 1.383 . S
C224 H240 0.951 . S
C225 C224 1.386 . S
C225 C229 1.383 . S
C226 C224 1.383 . S
C226 C227 1.402 . S
C226 H241 0.951 . S
C227 C226 1.402 . S
C227 C228 1.375 . S
C227 C230 1.481 . S
C228 C227 1.375 . S
C228 C229 1.367 . S
C228 H242 0.951 . S
C229 C225 1.383 . S
C229 C228 1.367 . S
C229 H243 0.950 . S
C230 C227 1.481 . S
C230 C231 1.297 . S
C230 H244 0.950 . S
C231 C230 1.297 . S
C231 C232 1.479 . S
C231 H245 0.950 . S
C232 C231 1.479 . S
C232 C233 1.375 . S
C232 C238 1.404 . S
C233 C232 1.375 . S
C233 C234 1.369 . S
C233 H246 0.950 . S
C234 C233 1.369 . S
C234 C235 1.392 . S
C234 H247 0.951 . S
C235 C234 1.392 . S
C235 C237 1.384 . S
H236 C238 0.949 . S
C237 C235 1.384 . S
C237 C238 1.385 . S
C237 H239 0.950 . S
C238 C232 1.404 . S
C238 H236 0.949 . S
C238 C237 1.385 . S
H239 C237 0.950 . S
H240 C224 0.951 . S
H241 C226 0.951 . S
H242 C228 0.951 . S
H243 C229 0.950 . S
H244 C230 0.950 . S
H245 C231 0.950 . S
H246 C233 0.950 . S
H247 C234 0.951 . S
C248 C249 1.386 . S
C248 C250 1.383 . S
C248 H264 0.951 . S
C249 C248 1.386 . S
C249 C253 1.383 . S
C250 C248 1.383 . S
C250 C251 1.402 . S
C250 H265 0.951 . S
C251 C250 1.402 . S
C251 C252 1.375 . S
C251 C254 1.481 . S
C252 C251 1.375 . S
C252 C253 1.367 . S
C252 H266 0.951 . S
C253 C249 1.383 . S
C253 C252 1.367 . S
C253 H267 0.950 . S
C254 C251 1.481 . S
C254 C255 1.297 . S
C254 H268 0.950 . S
C255 C254 1.297 . S
C255 C256 1.479 . S
C255 H269 0.950 . S
C256 C255 1.479 . S
C256 C257 1.375 . S
C256 C262 1.404 . S
C257 C256 1.375 . S
C257 C258 1.369 . S
C257 H270 0.950 . S
C258 C257 1.369 . S
C258 C259 1.392 . S
C258 H271 0.951 . S
C259 C258 1.392 . S
C259 C261 1.384 . S
H260 C262 0.949 . S
C261 C259 1.384 . S
C261 C262 1.385 . S
C261 H263 0.950 . S
C262 C256 1.404 . S
C262 H260 0.949 . S
C262 C261 1.385 . S
H263 C261 0.950 . S
H264 C248 0.951 . S
H265 C250 0.951 . S
H266 C252 0.951 . S
H267 C253 0.950 . S
H268 C254 0.950 . S
H269 C255 0.950 . S
H270 C257 0.950 . S
H271 C258 0.951 . S
C272 C273 1.386 . S
C272 C274 1.383 . S
C272 H288 0.951 . S
C273 C272 1.386 . S
C273 C277 1.383 . S
C274 C272 1.383 . S
C274 C275 1.402 . S
C274 H289 0.951 . S
C275 C274 1.402 . S
C275 C276 1.375 . S
C275 C278 1.481 . S
C276 C275 1.375 . S
C276 C277 1.367 . S
C276 H290 0.951 . S
C277 C273 1.383 . S
C277 C276 1.367 . S
C277 H291 0.950 . S
C278 C275 1.481 . S
C278 C279 1.297 . S
C278 H292 0.950 . S
C279 C278 1.297 . S
C279 C280 1.479 . S
C279 H293 0.950 . S
C280 C279 1.479 . S
C280 C281 1.375 . S
C280 C286 1.404 . S
C281 C280 1.375 . S
C281 C282 1.369 . S
C281 H294 0.950 . S
C282 C281 1.369 . S
C282 C283 1.392 . S
C282 H295 0.951 . S
C283 C282 1.392 . S
C283 C285 1.384 . S
H284 C286 0.949 . S
C285 C283 1.384 . S
C285 C286 1.385 . S
C285 H287 0.950 . S
C286 C280 1.404 . S
C286 H284 0.949 . S
C286 C285 1.385 . S
H287 C285 0.950 . S
H288 C272 0.951 . S
H289 C274 0.951 . S
H290 C276 0.951 . S
H291 C277 0.950 . S
H292 C278 0.950 . S
H293 C279 0.950 . S
H294 C281 0.950 . S
H295 C282 0.951 . S
C296 C297 1.386 . S
C296 C298 1.383 . S
C296 H312 0.951 . S
C297 C296 1.386 . S
C297 C301 1.383 . S
C298 C296 1.383 . S
C298 C299 1.402 . S
C298 H313 0.951 . S
C299 C298 1.402 . S
C299 C300 1.375 . S
C299 C302 1.481 . S
C300 C299 1.375 . S
C300 C301 1.367 . S
C300 H314 0.951 . S
C301 C297 1.383 . S
C301 C300 1.367 . S
C301 H315 0.950 . S
C302 C299 1.481 . S
C302 C303 1.297 . S
C302 H316 0.950 . S
C303 C302 1.297 . S
C303 C304 1.479 . S
C303 H317 0.950 . S
C304 C303 1.479 . S
C304 C305 1.375 . S
C304 C310 1.404 . S
C305 C304 1.375 . S
C305 C306 1.369 . S
C305 H318 0.950 . S
C306 C305 1.369 . S
C306 C307 1.392 . S
C306 H319 0.951 . S
C307 C306 1.392 . S
C307 C309 1.384 . S
H308 C310 0.949 . S
C309 C307 1.384 . S
C309 C310 1.385 . S
C309 H311 0.950 . S
C310 C304 1.404 . S
C310 H308 0.949 . S
C310 C309 1.385 . S
H311 C309 0.950 . S
H312 C296 0.951 . S
H313 C298 0.951 . S
H314 C300 0.951 . S
H315 C301 0.950 . S
H316 C302 0.950 . S
H317 C303 0.950 . S
H318 C305 0.950 . S
H319 C306 0.951 . S
C320 C321 1.386 . S
C320 C322 1.383 . S
C320 H336 0.951 . S
C321 C320 1.386 . S
C321 C325 1.383 . S
C322 C320 1.383 . S
C322 C323 1.402 . S
C322 H337 0.951 . S
C323 C322 1.402 . S
C323 C324 1.375 . S
C323 C326 1.481 . S
C324 C323 1.375 . S
C324 C325 1.367 . S
C324 H338 0.951 . S
C325 C321 1.383 . S
C325 C324 1.367 . S
C325 H339 0.950 . S
C326 C323 1.481 . S
C326 C327 1.297 . S
C326 H340 0.950 . S
C327 C326 1.297 . S
C327 C328 1.479 . S
C327 H341 0.950 . S
C328 C327 1.479 . S
C328 C329 1.375 . S
C328 C334 1.404 . S
C329 C328 1.375 . S
C329 C330 1.369 . S
C329 H342 0.950 . S
C330 C329 1.369 . S
C330 C331 1.392 . S
C330 H343 0.951 . S
C331 C330 1.392 . S
C331 C333 1.384 . S
H332 C334 0.949 . S
C333 C331 1.384 . S
C333 C334 1.385 . S
C333 H335 0.950 . S
C334 C328 1.404 . S
C334 H332 0.949 . S
C334 C333 1.385 . S
H335 C333 0.950 . S
H336 C320 0.951 . S
H337 C322 0.951 . S
H338 C324 0.951 . S
H339 C325 0.950 . S
H340 C326 0.950 . S
H341 C327 0.950 . S
H342 C329 0.950 . S
H343 C330 0.951 . S
C344 C345 1.386 . S
C344 C346 1.383 . S
C344 H360 0.951 . S
C345 C344 1.386 . S
C345 C349 1.383 . S
C346 C344 1.383 . S
C346 C347 1.402 . S
C346 H361 0.951 . S
C347 C346 1.402 . S
C347 C348 1.375 . S
C347 C350 1.481 . S
C348 C347 1.375 . S
C348 C349 1.367 . S
C348 H362 0.951 . S
C349 C345 1.383 . S
C349 C348 1.367 . S
C349 H363 0.950 . S
C350 C347 1.481 . S
C350 C351 1.297 . S
C350 H364 0.950 . S
C351 C350 1.297 . S
C351 C352 1.479 . S
C351 H365 0.950 . S
C352 C351 1.479 . S
C352 C353 1.375 . S
C352 C358 1.404 . S
C353 C352 1.375 . S
C353 C354 1.369 . S
C353 H366 0.950 . S
C354 C353 1.369 . S
C354 C355 1.392 . S
C354 H367 0.951 . S
C355 C354 1.392 . S
C355 C357 1.384 . S
H356 C358 0.949 . S
C357 C355 1.384 . S
C357 C358 1.385 . S
C357 H359 0.950 . S
C358 C352 1.404 . S
C358 H356 0.949 . S
C358 C357 1.385 . S
H359 C357 0.950 . S
H360 C344 0.951 . S
H361 C346 0.951 . S
H362 C348 0.951 . S
H363 C349 0.950 . S
H364 C350 0.950 . S
H365 C351 0.950 . S
H366 C353 0.950 . S
H367 C354 0.951 . S
C368 C369 1.386 . S
C368 C370 1.383 . S
C368 H384 0.951 . S
C369 C368 1.386 . S
C369 C373 1.383 . S
C370 C368 1.383 . S
C370 C371 1.402 . S
C370 H385 0.951 . S
C371 C370 1.402 . S
C371 C372 1.375 . S
C371 C374 1.481 . S
C372 C371 1.375 . S
C372 C373 1.367 . S
C372 H386 0.951 . S
C373 C369 1.383 . S
C373 C372 1.367 . S
C373 H387 0.950 1_455 S
C374 C371 1.481 . S
C374 C375 1.297 . S
C374 H388 0.950 . S
C375 C374 1.297 . S
C375 C376 1.479 . S
C375 H389 0.950 . S
C376 C375 1.479 . S
C376 C377 1.375 . S
C376 C382 1.404 . S
C377 C376 1.375 . S
C377 C378 1.369 . S
C377 H390 0.950 . S
C378 C377 1.369 . S
C378 C379 1.392 . S
C378 H391 0.951 . S
C379 C378 1.392 . S
C379 C381 1.384 . S
H380 C382 0.949 . S
C381 C379 1.384 . S
C381 C382 1.385 . S
C381 H383 0.950 . S
C382 C376 1.404 . S
C382 H380 0.949 . S
C382 C381 1.385 . S
H383 C381 0.950 . S
H384 C368 0.951 . S
H385 C370 0.951 . S
H386 C372 0.951 . S
H387 C373 0.950 1_655 S
H388 C374 0.950 . S
H389 C375 0.950 . S
H390 C377 0.950 . S
H391 C378 0.951 . S
C392 C393 1.386 . S
C392 C394 1.383 . S
C392 H408 0.951 . S
C393 C392 1.386 . S
C393 C397 1.383 . S
C394 C392 1.383 . S
C394 C395 1.402 . S
C394 H409 0.951 . S
C395 C394 1.402 . S
C395 C396 1.375 . S
C395 C398 1.481 . S
C396 C395 1.375 . S
C396 C397 1.367 . S
C396 H410 0.951 . S
C397 C393 1.383 . S
C397 C396 1.367 . S
C397 H411 0.950 . S
C398 C395 1.481 . S
C398 C399 1.297 . S
C398 H412 0.950 . S
C399 C398 1.297 . S
C399 C400 1.479 . S
C399 H413 0.950 . S
C400 C399 1.479 . S
C400 C401 1.375 . S
C400 C406 1.404 . S
C401 C400 1.375 . S
C401 C402 1.369 . S
C401 H414 0.950 . S
C402 C401 1.369 . S
C402 C403 1.392 . S
C402 H415 0.951 . S
C403 C402 1.392 . S
C403 C405 1.384 . S
H404 C406 0.949 . S
C405 C403 1.384 . S
C405 C406 1.385 . S
C405 H407 0.950 . S
C406 C400 1.404 . S
C406 H404 0.949 . S
C406 C405 1.385 . S
H407 C405 0.950 . S
H408 C392 0.951 . S
H409 C394 0.951 . S
H410 C396 0.951 . S
H411 C397 0.950 . S
H412 C398 0.950 . S
H413 C399 0.950 . S
H414 C401 0.950 . S
H415 C402 0.951 . S
C416 C417 1.386 . S
C416 C418 1.383 . S
C416 H432 0.951 . S
C417 C416 1.386 . S
C417 C421 1.383 . S
C418 C416 1.383 . S
C418 C419 1.402 . S
C418 H433 0.951 . S
C419 C418 1.402 . S
C419 C420 1.375 . S
C419 C422 1.481 . S
C420 C419 1.375 . S
C420 C421 1.367 . S
C420 H434 0.951 . S
C421 C417 1.383 . S
C421 C420 1.367 . S
C421 H435 0.950 . S
C422 C419 1.481 . S
C422 C423 1.297 . S
C422 H436 0.950 . S
C423 C422 1.297 . S
C423 C424 1.479 . S
C423 H437 0.950 . S
C424 C423 1.479 . S
C424 C425 1.375 . S
C424 C430 1.404 . S
C425 C424 1.375 . S
C425 C426 1.369 . S
C425 H438 0.950 . S
C426 C425 1.369 . S
C426 C427 1.392 . S
C426 H439 0.951 . S
C427 C426 1.392 . S
C427 C429 1.384 . S
H428 C430 0.949 . S
C429 C427 1.384 . S
C429 C430 1.385 . S
C429 H431 0.950 . S
C430 C424 1.404 . S
C430 H428 0.949 . S
C430 C429 1.385 . S
H431 C429 0.950 . S
H432 C416 0.951 . S
H433 C418 0.951 . S
H434 C420 0.951 . S
H435 C421 0.950 . S
H436 C422 0.950 . S
H437 C423 0.950 . S
H438 C425 0.950 . S
H439 C426 0.951 . S
C440 C441 1.386 . S
C440 C442 1.383 . S
C440 H456 0.951 . S
C441 C440 1.386 . S
C441 C445 1.383 . S
C442 C440 1.383 . S
C442 C443 1.402 . S
C442 H457 0.951 . S
C443 C442 1.402 . S
C443 C444 1.375 . S
C443 C446 1.481 . S
C444 C443 1.375 . S
C444 C445 1.367 . S
C444 H458 0.951 . S
C445 C441 1.383 . S
C445 C444 1.367 . S
C445 H459 0.950 . S
C446 C443 1.481 . S
C446 C447 1.297 . S
C446 H460 0.950 . S
C447 C446 1.297 . S
C447 C448 1.479 . S
C447 H461 0.950 . S
C448 C447 1.479 . S
C448 C449 1.375 . S
C448 C454 1.404 . S
C449 C448 1.375 . S
C449 C450 1.369 . S
C449 H462 0.950 . S
C450 C449 1.369 . S
C450 C451 1.392 . S
C450 H463 0.951 . S
C451 C450 1.392 . S
C451 C453 1.384 . S
H452 C454 0.949 . S
C453 C451 1.384 . S
C453 C454 1.385 . S
C453 H455 0.950 1_545 S
C454 C448 1.404 . S
C454 H452 0.949 . S
C454 C453 1.385 . S
H455 C453 0.950 1_565 S
H456 C440 0.951 . S
H457 C442 0.951 . S
H458 C444 0.951 . S
H459 C445 0.950 . S
H460 C446 0.950 . S
H461 C447 0.950 . S
H462 C449 0.950 . S
H463 C450 0.951 . S
C464 C465 1.386 . S
C464 C466 1.383 . S
C464 H480 0.951 . S
C465 C464 1.386 . S
C465 C469 1.383 . S
C466 C464 1.383 . S
C466 C467 1.402 . S
C466 H481 0.951 . S
C467 C466 1.402 . S
C467 C468 1.375 . S
C467 C470 1.481 . S
C468 C467 1.375 . S
C468 C469 1.367 . S
C468 H482 0.951 . S
C469 C465 1.383 . S
C469 C468 1.367 . S
C469 H483 0.950 . S
C470 C467 1.481 . S
C470 C471 1.297 . S
C470 H484 0.950 . S
C471 C470 1.297 . S
C471 C472 1.479 . S
C471 H485 0.950 . S
C472 C471 1.479 . S
C472 C473 1.375 . S
C472 C478 1.404 . S
C473 C472 1.375 . S
C473 C474 1.369 . S
C473 H486 0.950 . S
C474 C473 1.369 . S
C474 C475 1.392 . S
C474 H487 0.951 . S
C475 C474 1.392 . S
C475 C477 1.384 . S
H476 C478 0.949 . S
C477 C475 1.384 . S
C477 C478 1.385 . S
C477 H479 0.950 . S
C478 C472 1.404 . S
C478 H476 0.949 . S
C478 C477 1.385 . S
H479 C477 0.950 . S
H480 C464 0.951 . S
H481 C466 0.951 . S
H482 C468 0.951 . S
H483 C469 0.950 . S
H484 C470 0.950 . S
H485 C471 0.950 . S
H486 C473 0.950 . S
H487 C474 0.951 . S
C105 C56 1.718 . S
C115 C10 1.742 1_655 S
C129 C17 1.733 . S
C139 C69 1.734 . S
C153 C36 1.691 . S
C163 C88 1.725 . S
C177 C95 1.706 . S
C187 C43 1.728 1_545 S
C201 C4 1.697 . S
C211 C30 1.681 . S
C225 C23 1.690 . S
C235 C49 1.688 . S
C249 C82 1.689 . S
C259 C62 1.684 . S
C273 C75 1.700 . S
C283 C101 1.681 . S
C297 C70 0.930 . S
C307 C5 1.022 . S
C321 C16 1.015 . S
C331 C81 0.910 . S
C345 C31 0.996 . S
C355 C96 0.959 . S
C369 C57 0.982 . S
C379 C42 0.975 . S
C393 C55 1.010 . S
C403 C18 0.989 . S
C417 C68 1.015 . S
C427 C29 1.044 . S
C441 C83 1.007 . S
C451 C44 1.013 . S
C465 C3 1.004 . S
C475 C94 1.004 . S
