# Generated by pormake.
# Topology swd, (7)-cn, num edge types: 1
# Building blocks:
#     Node 0, Type 0, BuildingBlock: HICVOG_clean_sbu_0, # of connection points: 7
#     Node 1, Type 0, BuildingBlock: HICVOG_clean_sbu_0, # of connection points: 7
#     Node 2, Type 0, BuildingBlock: HICVOG_clean_sbu_0, # of connection points: 7
#     Node 3, Type 0, BuildingBlock: HICVOG_clean_sbu_0, # of connection points: 7
#     Node 4, Type 0, BuildingBlock: HICVOG_clean_sbu_0, # of connection points: 7
#     Node 5, Type 0, BuildingBlock: HICVOG_clean_sbu_0, # of connection points: 7
#     Node 6, Type 0, BuildingBlock: HICVOG_clean_sbu_0, # of connection points: 7
#     Node 7, Type 0, BuildingBlock: HICVOG_clean_sbu_0, # of connection points: 7
#     Node 8, Type 0, BuildingBlock: HICVOG_clean_sbu_0, # of connection points: 7
#     Node 9, Type 0, BuildingBlock: HICVOG_clean_sbu_0, # of connection points: 7
#     Node 10, Type 0, BuildingBlock: HICVOG_clean_sbu_0, # of connection points: 7
#     Node 11, Type 0, BuildingBlock: HICVOG_clean_sbu_0, # of connection points: 7
#     Node 12, Type 0, BuildingBlock: HICVOG_clean_sbu_0, # of connection points: 7
#     Node 13, Type 0, BuildingBlock: HICVOG_clean_sbu_0, # of connection points: 7
#     Node 14, Type 0, BuildingBlock: HICVOG_clean_sbu_0, # of connection points: 7
#     Node 15, Type 0, BuildingBlock: HICVOG_clean_sbu_0, # of connection points: 7
#     Node 16, Type 0, BuildingBlock: HICVOG_clean_sbu_0, # of connection points: 7
#     Node 17, Type 0, BuildingBlock: HICVOG_clean_sbu_0, # of connection points: 7
#     Edge 18, Type (0, 0), BuildingBlock: OJICUG_clean_linker_0, # of connection points: 2
#     Edge 19, Type (0, 0), BuildingBlock: OJICUG_clean_linker_0, # of connection points: 2
#     Edge 20, Type (0, 0), BuildingBlock: OJICUG_clean_linker_0, # of connection points: 2
#     Edge 21, Type (0, 0), BuildingBlock: OJICUG_clean_linker_0, # of connection points: 2
#     Edge 22, Type (0, 0), BuildingBlock: OJICUG_clean_linker_0, # of connection points: 2
#     Edge 23, Type (0, 0), BuildingBlock: OJICUG_clean_linker_0, # of connection points: 2
#     Edge 24, Type (0, 0), BuildingBlock: OJICUG_clean_linker_0, # of connection points: 2
#     Edge 25, Type (0, 0), BuildingBlock: OJICUG_clean_linker_0, # of connection points: 2
#     Edge 26, Type (0, 0), BuildingBlock: OJICUG_clean_linker_0, # of connection points: 2
#     Edge 27, Type (0, 0), BuildingBlock: OJICUG_clean_linker_0, # of connection points: 2
#     Edge 28, Type (0, 0), BuildingBlock: OJICUG_clean_linker_0, # of connection points: 2
#     Edge 29, Type (0, 0), BuildingBlock: OJICUG_clean_linker_0, # of connection points: 2
#     Edge 30, Type (0, 0), BuildingBlock: OJICUG_clean_linker_0, # of connection points: 2
#     Edge 31, Type (0, 0), BuildingBlock: OJICUG_clean_linker_0, # of connection points: 2
#     Edge 32, Type (0, 0), BuildingBlock: OJICUG_clean_linker_0, # of connection points: 2
#     Edge 33, Type (0, 0), BuildingBlock: OJICUG_clean_linker_0, # of connection points: 2
#     Edge 34, Type (0, 0), BuildingBlock: OJICUG_clean_linker_0, # of connection points: 2
#     Edge 35, Type (0, 0), BuildingBlock: OJICUG_clean_linker_0, # of connection points: 2
#     Edge 36, Type (0, 0), BuildingBlock: OJICUG_clean_linker_0, # of connection points: 2
#     Edge 37, Type (0, 0), BuildingBlock: OJICUG_clean_linker_0, # of connection points: 2
#     Edge 38, Type (0, 0), BuildingBlock: OJICUG_clean_linker_0, # of connection points: 2
#     Edge 39, Type (0, 0), BuildingBlock: OJICUG_clean_linker_0, # of connection points: 2
#     Edge 40, Type (0, 0), BuildingBlock: OJICUG_clean_linker_0, # of connection points: 2
#     Edge 41, Type (0, 0), BuildingBlock: OJICUG_clean_linker_0, # of connection points: 2
#     Edge 42, Type (0, 0), BuildingBlock: OJICUG_clean_linker_0, # of connection points: 2
#     Edge 43, Type (0, 0), BuildingBlock: OJICUG_clean_linker_0, # of connection points: 2
#     Edge 44, Type (0, 0), BuildingBlock: OJICUG_clean_linker_0, # of connection points: 2
#     Edge 45, Type (0, 0), BuildingBlock: OJICUG_clean_linker_0, # of connection points: 2
#     Edge 46, Type (0, 0), BuildingBlock: OJICUG_clean_linker_0, # of connection points: 2
#     Edge 47, Type (0, 0), BuildingBlock: OJICUG_clean_linker_0, # of connection points: 2
#     Edge 48, Type (0, 0), BuildingBlock: OJICUG_clean_linker_0, # of connection points: 2
#     Edge 49, Type (0, 0), BuildingBlock: OJICUG_clean_linker_0, # of connection points: 2
#     Edge 50, Type (0, 0), BuildingBlock: OJICUG_clean_linker_0, # of connection points: 2
#     Edge 51, Type (0, 0), BuildingBlock: OJICUG_clean_linker_0, # of connection points: 2
#     Edge 52, Type (0, 0), BuildingBlock: OJICUG_clean_linker_0, # of connection points: 2
#     Edge 53, Type (0, 0), BuildingBlock: OJICUG_clean_linker_0, # of connection points: 2
#     Edge 54, Type (0, 0), BuildingBlock: OJICUG_clean_linker_0, # of connection points: 2
#     Edge 55, Type (0, 0), BuildingBlock: OJICUG_clean_linker_0, # of connection points: 2
#     Edge 56, Type (0, 0), BuildingBlock: OJICUG_clean_linker_0, # of connection points: 2
#     Edge 57, Type (0, 0), BuildingBlock: OJICUG_clean_linker_0, # of connection points: 2
#     Edge 58, Type (0, 0), BuildingBlock: OJICUG_clean_linker_0, # of connection points: 2
#     Edge 59, Type (0, 0), BuildingBlock: OJICUG_clean_linker_0, # of connection points: 2
#     Edge 60, Type (0, 0), BuildingBlock: OJICUG_clean_linker_0, # of connection points: 2
#     Edge 61, Type (0, 0), BuildingBlock: OJICUG_clean_linker_0, # of connection points: 2
#     Edge 62, Type (0, 0), BuildingBlock: OJICUG_clean_linker_0, # of connection points: 2
#     Edge 63, Type (0, 0), BuildingBlock: OJICUG_clean_linker_0, # of connection points: 2
#     Edge 64, Type (0, 0), BuildingBlock: OJICUG_clean_linker_0, # of connection points: 2
#     Edge 65, Type (0, 0), BuildingBlock: OJICUG_clean_linker_0, # of connection points: 2
#     Edge 66, Type (0, 0), BuildingBlock: OJICUG_clean_linker_0, # of connection points: 2
#     Edge 67, Type (0, 0), BuildingBlock: OJICUG_clean_linker_0, # of connection points: 2
#     Edge 68, Type (0, 0), BuildingBlock: OJICUG_clean_linker_0, # of connection points: 2
#     Edge 69, Type (0, 0), BuildingBlock: OJICUG_clean_linker_0, # of connection points: 2
#     Edge 70, Type (0, 0), BuildingBlock: OJICUG_clean_linker_0, # of connection points: 2
#     Edge 71, Type (0, 0), BuildingBlock: OJICUG_clean_linker_0, # of connection points: 2
#     Edge 72, Type (0, 0), BuildingBlock: OJICUG_clean_linker_0, # of connection points: 2
#     Edge 73, Type (0, 0), BuildingBlock: OJICUG_clean_linker_0, # of connection points: 2
#     Edge 74, Type (0, 0), BuildingBlock: OJICUG_clean_linker_0, # of connection points: 2
#     Edge 75, Type (0, 0), BuildingBlock: OJICUG_clean_linker_0, # of connection points: 2
#     Edge 76, Type (0, 0), BuildingBlock: OJICUG_clean_linker_0, # of connection points: 2
#     Edge 77, Type (0, 0), BuildingBlock: OJICUG_clean_linker_0, # of connection points: 2
#     Edge 78, Type (0, 0), BuildingBlock: OJICUG_clean_linker_0, # of connection points: 2
#     Edge 79, Type (0, 0), BuildingBlock: OJICUG_clean_linker_0, # of connection points: 2
#     Edge 80, Type (0, 0), BuildingBlock: OJICUG_clean_linker_0, # of connection points: 2
# Relax obj value: 0.471
# Max RMSD: 0.326
# Mean RMSD: 0.324
data_MOF--net-swd--node1-HICVOG_clean_sbu_0--edge1-OJICUG_clean_linker_0
_symmetry_space_group_name_H-M    P1
_symmetry_Int_Tables_number       1
_symmetry_cell_setting            triclinic
loop_
_symmetry_equiv_pos_as_xyz
'x, y, z'
_cell_length_a     38.680722
_cell_length_b     38.79667
_cell_length_c     23.680222
_cell_angle_alpha  89.883277
_cell_angle_beta   89.876919
_cell_angle_gamma 120.00438
loop_
_atom_site_label
_atom_site_type_symbol
_atom_site_fract_x
_atom_site_fract_y
_atom_site_fract_z
_atom_type_partial_charge
Zn0 Zn 0.23448 0.16105 0.3661 0.0
C1 C 0.21281 0.07103 0.475 0.0
N2 N 0.2081 0.09295 0.51398 0.0
C3 C 0.21912 0.12734 0.48646 0.0
N4 N 0.23034 0.12686 0.4322 0.0
N5 N 0.22651 0.09113 0.42595 0.0
C6 C 0.19296 0.00862 0.31036 0.0
O7 O 0.20482 0.03729 0.27275 0.0
O8 O 0.25851 0.22159 0.37761 0.0
Zn9 Zn 0.25242 0.07411 0.37441 0.0
N10 N 0.1808 0.13904 0.33631 0.0
C11 C 0.12805 0.08237 0.29175 0.0
C12 C 0.16589 0.10172 0.31549 0.0
C13 C 0.159 0.15797 0.33514 0.0
N14 N 0.10646 0.10114 0.28992 0.0
C15 C 0.12048 0.13849 0.3109 0.0
O16 O 0.27563 0.10607 0.30252 0.0
C17 C 0.28233 0.13851 0.27958 0.0
O18 O 0.26899 0.1596 0.30129 0.0
H19 H 0.18357 0.08727 0.3173 0.0
H20 H 0.17177 0.18777 0.35191 0.0
C21 C 0.32733 0.08092 0.38327 0.0
C22 C 0.36564 0.09436 0.40512 0.0
C23 C 0.34596 0.11049 0.49108 0.0
C24 C 0.30837 0.09835 0.46848 0.0
N25 N 0.2995 0.08307 0.4152 0.0
N26 N 0.37376 0.10814 0.459 0.0
H27 H 0.31942 0.06908 0.34097 0.0
C28 C 0.29625 0.24344 0.37186 0.0
O29 O 0.31767 0.22594 0.3665 0.0
O30 O 0.21217 0.0159 0.35654 0.0
H31 H 0.28749 0.10269 0.49307 0.0
H32 H 0.11586 0.05266 0.27483 0.0
H33 H 0.35323 0.12235 0.53343 0.0
Zn34 Zn 0.9302 0.17327 0.37724 0.0
C35 C 0.87653 0.08275 0.48382 0.0
N36 N 0.91165 0.10458 0.51032 0.0
C37 C 0.93333 0.13237 0.47239 0.0
N38 N 0.91242 0.12822 0.42494 0.0
N39 N 0.8763 0.09656 0.43108 0.0
C40 C 0.75825 0.0501 0.37042 0.0
O41 O 0.77654 0.08909 0.36651 0.0
O42 O 0.98906 0.19208 0.36023 0.0
Zn43 Zn 0.84104 0.06948 0.36475 0.0
N44 N 0.92066 0.2093 0.42237 0.0
C45 C 0.89402 0.22566 0.50239 0.0
C46 C 0.90609 0.2012 0.47625 0.0
C47 C 0.92181 0.23978 0.39316 0.0
N48 N 0.89532 0.2563 0.47294 0.0
C49 C 0.90809 0.26338 0.41841 0.0
O50 O 0.84454 0.10842 0.3035 0.0
C51 C 0.86637 0.14305 0.28261 0.0
O52 O 0.89945 0.16772 0.30514 0.0
H53 H 0.90242 0.17547 0.49871 0.0
H54 H 0.93289 0.245 0.35016 0.0
C55 C 0.84399 0.9977 0.33126 0.0
C56 C 0.86271 0.97904 0.30367 0.0
C57 C 0.91608 0.04284 0.27679 0.0
C58 C 0.8975 0.06095 0.30394 0.0
N59 N 0.8619 0.03827 0.33024 0.0
N60 N 0.89832 0.00261 0.27724 0.0
H61 H 0.81556 0.9805 0.35248 0.0
C62 C 0.99724 0.18117 0.3138 0.0
O63 O 0.96915 0.16506 0.27541 0.0
O64 O 0.77958 0.0336 0.37529 0.0
H65 H 0.91121 0.09298 0.30414 0.0
H66 H 0.88289 0.21981 0.54533 0.0
H67 H 0.94442 0.06057 0.25553 0.0
Zn68 Zn 0.93629 0.77184 0.36331 0.0
C69 C 0.86992 0.79435 0.47434 0.0
N70 N 0.89729 0.79949 0.51234 0.0
C71 C 0.92028 0.78822 0.48417 0.0
N72 N 0.90761 0.77649 0.43048 0.0
N73 N 0.87557 0.78035 0.42531 0.0
C74 C 0.82426 0.81479 0.31206 0.0
O75 O 0.83992 0.8027 0.27301 0.0
O76 O 0.97228 0.74679 0.37223 0.0
Zn77 Zn 0.83178 0.75546 0.37544 0.0
N78 N 0.96754 0.82514 0.33252 0.0
C79 C 0.96304 0.87737 0.28703 0.0
C80 C 0.9448 0.83967 0.31123 0.0
C81 C 0.00828 0.84712 0.33134 0.0
N82 N 0.00343 0.89918 0.28528 0.0
C83 C 0.02705 0.88551 0.30671 0.0
O84 O 0.83884 0.73205 0.3032 0.0
C85 C 0.86417 0.72504 0.27947 0.0
O86 O 0.89886 0.73795 0.3001 0.0
H87 H 0.91263 0.82182 0.31307 0.0
H88 H 0.02551 0.83459 0.3485 0.0
C89 C 0.76121 0.68314 0.38775 0.0
C90 C 0.73513 0.6455 0.41055 0.0
C91 C 0.77444 0.66237 0.49312 0.0
C92 C 0.80117 0.69916 0.46929 0.0
N93 N 0.79353 0.70919 0.41742 0.0
N94 N 0.74195 0.63631 0.46326 0.0
H95 H 0.75643 0.69184 0.34633 0.0
C96 C 0.95518 0.70904 0.36731 0.0
O97 O 0.91601 0.68872 0.36509 0.0
O98 O 0.81415 0.79619 0.35899 0.0
H99 H 0.82814 0.71859 0.49176 0.0
H100 H 0.94527 0.88927 0.26975 0.0
H101 H 0.77991 0.65425 0.5345 0.0
Zn102 Zn 0.17335 0.23288 0.67435 0.0
C103 C 0.09751 0.21438 0.54438 0.0
N104 N 0.12529 0.21034 0.51609 0.0
C105 C 0.1549 0.22153 0.55382 0.0
N106 N 0.14574 0.23145 0.60368 0.0
N107 N 0.1101 0.22805 0.59747 0.0
C108 C 0.01659 0.18492 0.70869 0.0
O109 O 0.04171 0.19859 0.75111 0.0
O110 O 0.23465 0.25802 0.66655 0.0
Zn111 Zn 0.0855 0.24814 0.64751 0.0
N112 N 0.14969 0.17856 0.70383 0.0
C113 C 0.09275 0.12803 0.75193 0.0
C114 C 0.11346 0.16583 0.7281 0.0
C115 C 0.16614 0.15446 0.70172 0.0
N116 N 0.10899 0.10414 0.75023 0.0
C117 C 0.14509 0.11584 0.72563 0.0
O118 O 0.1131 0.27143 0.72263 0.0
C119 C 0.14388 0.27868 0.75111 0.0
O120 O 0.16717 0.26626 0.73512 0.0
H121 H 0.10093 0.18522 0.72898 0.0
H122 H 0.19509 0.16527 0.68219 0.0
C123 C 0.08798 0.32145 0.64094 0.0
C124 C 0.09945 0.35953 0.62003 0.0
C125 C 0.11968 0.34376 0.53426 0.0
C126 C 0.10941 0.30641 0.5559 0.0
N127 N 0.0931 0.29568 0.60865 0.0
N128 N 0.11442 0.3695 0.56672 0.0
H129 H 0.07523 0.3121 0.68271 0.0
C130 C 0.25506 0.29592 0.66946 0.0
O131 O 0.23579 0.31581 0.66996 0.0
O132 O 0.02736 0.2031 0.66147 0.0
H133 H 0.11539 0.28692 0.5308 0.0
H134 H 0.06392 0.11766 0.7716 0.0
H135 H 0.13227 0.35245 0.4923 0.0
Zn136 Zn 0.75114 0.82919 0.64747 0.0
C137 C 0.77883 0.92499 0.55296 0.0
N138 N 0.79005 0.90641 0.51558 0.0
C139 C 0.78608 0.87493 0.54448 0.0
N140 N 0.77218 0.874 0.59746 0.0
N141 N 0.76881 0.90617 0.60314 0.0
C142 C 0.70546 0.95168 0.66668 0.0
O143 O 0.68505 0.9126 0.66867 0.0
O144 O 0.79604 0.81591 0.66158 0.0
Zn145 Zn 0.76823 0.93283 0.67344 0.0
N146 N 0.70302 0.78999 0.60833 0.0
C147 C 0.65665 0.76953 0.53199 0.0
C148 C 0.69459 0.79447 0.55374 0.0
C149 C 0.67443 0.76204 0.64197 0.0
N150 N 0.62815 0.74151 0.56584 0.0
C151 C 0.63585 0.73751 0.62071 0.0
O152 O 0.73533 0.89411 0.7358 0.0
C153 C 0.7224 0.85842 0.7522 0.0
O154 O 0.72852 0.83436 0.72321 0.0
H155 H 0.71636 0.81751 0.52702 0.0
H156 H 0.68202 0.75924 0.68503 0.0
C157 C 0.84691 0.00434 0.69868 0.0
C158 C 0.88589 0.02219 0.72136 0.0
C159 C 0.87434 0.958 0.74739 0.0
C160 C 0.83618 0.94062 0.72474 0.0
N161 N 0.82297 0.96382 0.7012 0.0
N162 N 0.89809 0.99811 0.74527 0.0
H163 H 0.83573 0.02225 0.67975 0.0
C164 C 0.81449 0.82427 0.70852 0.0
O165 O 0.80073 0.83608 0.7505 0.0
O166 O 0.74346 0.96882 0.66433 0.0
H167 H 0.81689 0.90872 0.72596 0.0
H168 H 0.64979 0.77267 0.48868 0.0
H169 H 0.88509 0.93978 0.76649 0.0
Zn170 Zn 0.17159 0.91656 0.65308 0.0
C171 C 0.07876 0.84978 0.55335 0.0
N172 N 0.09875 0.87952 0.51618 0.0
C173 C 0.12978 0.90676 0.54604 0.0
N174 N 0.12896 0.8936 0.59955 0.0
N175 N 0.09625 0.85829 0.6043 0.0
C176 C 0.04681 0.74939 0.66425 0.0
O177 O 0.08601 0.76758 0.66433 0.0
O178 O 0.18438 0.97426 0.66797 0.0
Zn179 Zn 0.06765 0.83062 0.67369 0.0
N180 N 0.21297 0.90994 0.61698 0.0
C181 C 0.23634 0.88313 0.54563 0.0
C182 C 0.20867 0.89346 0.56478 0.0
C183 C 0.24321 0.91535 0.65107 0.0
N184 N 0.26667 0.88864 0.5799 0.0
C185 C 0.27047 0.9039 0.63266 0.0
O186 O 0.10447 0.83302 0.73648 0.0
C187 C 0.13994 0.85499 0.75419 0.0
O188 O 0.16458 0.88634 0.72741 0.0
H189 H 0.18364 0.88714 0.53837 0.0
H190 H 0.24552 0.92826 0.69232 0.0
C191 C 0.99672 0.83846 0.69839 0.0
C192 C 0.97866 0.85947 0.72059 0.0
C193 C 0.04289 0.91225 0.74643 0.0
C194 C 0.06048 0.89151 0.72432 0.0
N195 N 0.03733 0.85508 0.70113 0.0
N196 N 1.00266 0.89579 0.7442 0.0
H197 H 0.9789 0.80934 0.67973 0.0
C198 C 0.17665 0.98482 0.71502 0.0
O199 O 0.16479 0.95957 0.75748 0.0
O200 O 0.03015 0.7706 0.66322 0.0
H201 H 0.09248 0.90415 0.72568 0.0
H202 H 0.23342 0.8703 0.50417 0.0
H203 H 0.06104 0.94125 0.76526 0.0
Zn204 Zn 0.89717 0.49641 0.69569 0.0
C205 C 0.8732 0.4078 0.80828 0.0
N206 N 0.86907 0.43076 0.84605 0.0
C207 C 0.88092 0.46483 0.8173 0.0
N208 N 0.89209 0.46316 0.76339 0.0
N209 N 0.88747 0.42701 0.75871 0.0
C210 C 0.85574 0.34306 0.64466 0.0
O211 O 0.86822 0.37146 0.60651 0.0
O212 O 0.92248 0.55706 0.70501 0.0
Zn213 Zn 0.9139 0.40902 0.70954 0.0
N214 N 0.84376 0.47529 0.66536 0.0
C215 C 0.79052 0.41937 0.62023 0.0
C216 C 0.82831 0.438 0.64417 0.0
C217 C 0.82263 0.4949 0.66428 0.0
N218 N 0.76956 0.43878 0.61862 0.0
C219 C 0.78414 0.47614 0.6399 0.0
O220 O 0.93874 0.44017 0.63711 0.0
C221 C 0.94528 0.47199 0.61224 0.0
O222 O 0.93145 0.49322 0.63192 0.0
H223 H 0.8455 0.42301 0.64584 0.0
H224 H 0.8359 0.52467 0.6813 0.0
C225 C 0.98728 0.41301 0.7232 0.0
C226 C 0.02461 0.42476 0.74724 0.0
C227 C 0.00433 0.44259 0.83112 0.0
C228 C 0.96786 0.43244 0.80617 0.0
N229 N 0.95965 0.41696 0.75297 0.0
N230 N 0.03195 0.43853 0.80115 0.0
H231 H 0.98009 0.40126 0.68076 0.0
C232 C 0.96033 0.57774 0.69969 0.0
O233 O 0.98072 0.55903 0.69663 0.0
O234 O 0.87357 0.35089 0.69204 0.0
H235 H 0.94734 0.43833 0.82897 0.0
H236 H 0.77789 0.38969 0.60302 0.0
H237 H 0.01097 0.45446 0.87351 0.0
Zn238 Zn 0.59728 0.51425 0.71149 0.0
C239 C 0.54641 0.42537 0.82065 0.0
N240 N 0.58134 0.44879 0.84674 0.0
C241 C 0.60228 0.47591 0.80771 0.0
N242 N 0.58107 0.47 0.76012 0.0
N243 N 0.54551 0.43772 0.76717 0.0
C244 C 0.42743 0.38692 0.70554 0.0
O245 O 0.44476 0.42583 0.70107 0.0
O246 O 0.65601 0.53351 0.6922 0.0
Zn247 Zn 0.51073 0.40845 0.70139 0.0
N248 N 0.58692 0.55016 0.75608 0.0
C249 C 0.56036 0.56635 0.83645 0.0
C250 C 0.57335 0.54259 0.81051 0.0
C251 C 0.58615 0.57948 0.72624 0.0
N252 N 0.55986 0.59587 0.80644 0.0
C253 C 0.57161 0.60244 0.75147 0.0
O254 O 0.51284 0.44542 0.63824 0.0
C255 C 0.53327 0.4802 0.61723 0.0
O256 O 0.56537 0.50634 0.64032 0.0
H257 H 0.571 0.51769 0.83367 0.0
H258 H 0.59645 0.58436 0.68286 0.0
C259 C 0.51437 0.33699 0.67003 0.0
C260 C 0.53342 0.31812 0.64413 0.0
C261 C 0.58825 0.38173 0.62008 0.0
C262 C 0.5693 0.4001 0.64551 0.0
N263 N 0.5328 0.37759 0.66954 0.0
N264 N 0.56991 0.34145 0.61986 0.0
H265 H 0.48521 0.3199 0.68937 0.0
C266 C 0.66314 0.52193 0.64552 0.0
O267 O 0.63423 0.50545 0.60835 0.0
O268 O 0.44956 0.37143 0.71171 0.0
H269 H 0.5834 0.43217 0.64607 0.0
H270 H 0.54999 0.56085 0.87977 0.0
H271 H 0.61729 0.3993 0.60057 0.0
Zn272 Zn 0.60122 0.1028 0.68852 0.0
C273 C 0.54718 0.13745 0.8039 0.0
N274 N 0.57347 0.13739 0.84046 0.0
C275 C 0.59127 0.1213 0.8098 0.0
N276 N 0.57716 0.11246 0.75646 0.0
N277 N 0.54845 0.12156 0.75372 0.0
C278 C 0.49195 0.1531 0.65007 0.0
O279 O 0.50686 0.14075 0.61032 0.0
O280 O 0.63421 0.07415 0.69799 0.0
Zn281 Zn 0.50066 0.0941 0.71072 0.0
N282 N 0.63337 0.15441 0.65166 0.0
C283 C 0.62926 0.20405 0.59786 0.0
C284 C 0.61087 0.16733 0.62508 0.0
C285 C 0.6741 0.17712 0.65236 0.0
N286 N 0.66958 0.22686 0.59912 0.0
C287 C 0.69292 0.21483 0.62589 0.0
O288 O 0.50189 0.06702 0.63668 0.0
C289 C 0.52512 0.05712 0.61259 0.0
O290 O 0.55998 0.06874 0.63136 0.0
H291 H 0.57873 0.14909 0.62531 0.0
H292 H 0.69154 0.166 0.67281 0.0
C293 C 0.43334 0.02071 0.73225 0.0
C294 C 0.40958 0.98401 0.75914 0.0
C295 C 0.45021 0.00769 0.84012 0.0
C296 C 0.47508 0.04335 0.812 0.0
N297 N 0.46554 0.04967 0.759 0.0
N298 N 0.41796 0.97866 0.81304 0.0
H299 H 0.42703 0.02615 0.68969 0.0
C300 C 0.61733 0.03648 0.69244 0.0
O301 O 0.57833 0.01607 0.68701 0.0
O302 O 0.48228 0.13448 0.69699 0.0
H303 H 0.50219 0.06475 0.83225 0.0
H304 H 0.61162 0.21461 0.57644 0.0
H305 H 0.45715 0.00268 0.88252 0.0
Zn306 Zn 0.75504 0.59116 0.98194 0.0
C307 C 0.82334 0.56481 0.88541 0.0
N308 N 0.79432 0.55547 0.84728 0.0
C309 C 0.7667 0.5595 0.8761 0.0
N310 N 0.77894 0.57166 0.92973 0.0
N311 N 0.81395 0.57374 0.93587 0.0
C312 C 0.92018 0.62991 1.0006 0.0
O313 O 0.90215 0.65096 0.99798 0.0
O314 O 0.69744 0.54588 0.99765 0.0
Zn315 Zn 0.83889 0.57107 1.00661 0.0
N316 N 0.76186 0.63907 0.9453 0.0
C317 C 0.78814 0.68867 0.87288 0.0
C318 C 0.77776 0.65081 0.89251 0.0
C319 C 0.75714 0.66426 0.97949 0.0
N320 N 0.78328 0.71381 0.90725 0.0
C321 C 0.76866 0.70281 0.96057 0.0
O322 O 0.83627 0.60537 0.0686 0.0
C323 C 0.8146 0.61962 0.08459 0.0
O324 O 0.78434 0.614 0.05615 0.0
H325 H 0.78348 0.63181 0.8659 0.0
H326 H 0.74466 0.65404 0.02119 0.0
C327 C 0.82784 0.49198 0.0345 0.0
C328 C 0.80529 0.45312 0.05689 0.0
C329 C 0.75221 0.4656 0.07658 0.0
C330 C 0.77448 0.50376 0.05423 0.0
N331 N 0.81181 0.51639 0.03404 0.0
N332 N 0.76809 0.44137 0.07752 0.0
H333 H 0.8577 0.5028 0.01823 0.0
C334 C 0.68652 0.52982 0.04624 0.0
O335 O 0.71111 0.54585 0.08887 0.0
O336 O 0.89883 0.59211 0.99932 0.0
H337 H 0.76236 0.5235 0.05313 0.0
H338 H 0.80047 0.69819 0.83094 0.0
H339 H 0.7225 0.45526 0.09309 0.0
Zn340 Zn 0.44342 0.2749 1.01361 0.0
C341 C 0.4647 0.21833 0.88484 0.0
N342 N 0.46758 0.24935 0.85579 0.0
C343 C 0.45646 0.2678 0.89351 0.0
N344 N 0.44808 0.24983 0.94417 0.0
N345 N 0.45237 0.21821 0.9388 0.0
C346 C 0.48253 0.16337 0.05349 0.0
O347 O 0.46942 0.1783 0.09214 0.0
O348 O 0.41815 0.30965 1.00049 0.0
Zn349 Zn 0.42493 0.17187 0.98464 0.0
N350 N 0.49627 0.30677 0.047 0.0
C351 C 0.54504 0.30405 0.10479 0.0
C352 C 0.50822 0.28513 0.07791 0.0
C353 C 0.52007 0.34714 0.04146 0.0
N354 N 0.56871 0.34402 0.09943 0.0
C355 C 0.5577 0.36655 0.06837 0.0
O356 O 0.39659 0.17471 0.05616 0.0
C357 C 0.39061 0.19864 0.08579 0.0
O358 O 0.40675 0.23534 0.0728 0.0
H359 H 0.48898 0.25332 0.08177 0.0
H360 H 0.50968 0.36375 0.01702 0.0
C361 C 0.3669 0.09894 0.93134 0.0
C362 C 0.33458 0.07614 0.89551 0.0
C363 C 0.33556 0.13437 0.86399 0.0
C364 C 0.36687 0.15684 0.90092 0.0
N365 N 0.38211 0.13869 0.93366 0.0
N366 N 0.31938 0.09429 0.86307 0.0
H367 H 0.37841 0.08514 0.95969 0.0
C368 C 0.38029 0.29102 0.99552 0.0
O369 O 0.36159 0.25202 0.99171 0.0
O370 O 0.46547 0.1545 1.00556 0.0
H371 H 0.37838 0.18849 0.90392 0.0
H372 H 0.55481 0.28712 0.1297 0.0
H373 H 0.32321 0.14848 0.83794 0.0
Zn374 Zn 0.73135 0.16486 1.01586 0.0
C375 C 0.78682 0.24604 0.88918 0.0
N376 N 0.75825 0.21786 0.85743 0.0
C377 C 0.7401 0.18663 0.89268 0.0
N378 N 0.75583 0.19513 0.94513 0.0
N379 N 0.78653 0.2321 0.94213 0.0
C380 C 0.83819 0.32315 0.05406 0.0
O381 O 0.82583 0.29804 0.09669 0.0
O382 O 0.6964 0.10386 1.00723 0.0
Zn383 Zn 0.83181 0.25449 0.99172 0.0
N384 N 0.70129 0.1876 0.05106 0.0
C385 C 0.7084 0.24421 0.10027 0.0
C386 C 0.72519 0.22368 0.07483 0.0
C387 C 0.66067 0.17101 0.05182 0.0
N388 N 0.6682 0.22827 0.09974 0.0
C389 C 0.64355 0.19231 0.07568 0.0
O390 O 0.82899 0.22605 0.0663 0.0
C391 C 0.80649 0.19329 0.09169 0.0
O392 O 0.77152 0.1695 0.07396 0.0
H393 H 0.75718 0.23634 0.07372 0.0
H394 H 0.64184 0.14175 0.03429 0.0
C395 C 0.90158 0.25005 0.98101 0.0
C396 C 0.92724 0.23786 0.95832 0.0
C397 C 0.89081 0.22066 0.87307 0.0
C398 C 0.8646 0.23154 0.89648 0.0
N399 N 0.87081 0.24667 0.94988 0.0
N400 N 0.92161 0.2241 0.90444 0.0
H401 H 0.90557 0.26191 0.02331 0.0
C402 C 0.71397 0.08349 1.00755 0.0
O403 O 0.75319 0.10252 1.00718 0.0
O404 O 0.84602 0.31236 1.00733 0.0
H405 H 0.83922 0.22671 0.87212 0.0
H406 H 0.72722 0.27293 0.11949 0.0
H407 H 0.88635 0.20897 0.83062 0.0
Zn408 Zn 0.56818 0.8289 0.02292 0.0
C409 C 0.53411 0.74268 0.14132 0.0
N410 N 0.53262 0.76893 0.17632 0.0
C411 C 0.5481 0.80226 0.14451 0.0
N412 N 0.55807 0.79666 0.09191 0.0
N413 N 0.55027 0.75934 0.0908 0.0
C414 C 0.5203 0.67028 0.98325 0.0
O415 O 0.5353 0.6961 0.94161 0.0
O416 O 0.59217 0.88952 0.03301 0.0
Zn417 Zn 0.57731 0.73903 0.04595 0.0
N418 N 0.51809 0.80567 0.98162 0.0
C419 C 0.47257 0.75087 0.92546 0.0
C420 C 0.50837 0.77107 0.95488 0.0
C421 C 0.49322 0.82105 0.98004 0.0
N422 N 0.44724 0.76552 0.92531 0.0
C423 C 0.45623 0.79992 0.95239 0.0
O424 O 0.60545 0.76798 0.97167 0.0
C425 C 0.61767 0.80225 0.94974 0.0
O426 O 0.60651 0.82564 0.9691 0.0
H427 H 0.52834 0.75923 0.95675 0.0
H428 H 0.50193 0.8492 1.00011 0.0
C429 C 0.65131 0.74603 0.06495 0.0
C430 C 0.68845 0.75959 0.09075 0.0
C431 C 0.66407 0.77364 0.17389 0.0
C432 C 0.62789 0.76215 0.14697 0.0
N433 N 0.6218 0.74759 0.09327 0.0
N434 N 0.69368 0.77221 0.14517 0.0
H435 H 0.64591 0.73511 0.022 0.0
C436 C 0.63007 0.91108 0.03451 0.0
O437 O 0.65145 0.89337 0.03605 0.0
O438 O 0.53634 0.68054 0.03177 0.0
H439 H 0.60602 0.76657 0.16857 0.0
H440 H 0.46459 0.72334 0.90386 0.0
H441 H 0.66901 0.78475 0.21671 0.0
Zn442 Zn 0.26181 0.83132 0.03923 0.0
C443 C 0.19064 0.75316 0.15613 0.0
N444 N 0.22164 0.77455 0.19065 0.0
C445 C 0.25029 0.80097 0.1563 0.0
N446 N 0.2364 0.797 0.10269 0.0
N447 N 0.19935 0.76654 0.10261 0.0
C448 C 0.09035 0.71386 0.04815 0.0
O449 O 0.1091 0.75296 0.04762 0.0
O450 O 0.31393 0.83352 0.02081 0.0
Zn451 Zn 0.17072 0.73426 0.03649 0.0
N452 N 0.26967 0.88172 0.06183 0.0
C453 C 0.25656 0.92412 0.11922 0.0
C454 C 0.25833 0.88937 0.1126 0.0
C455 C 0.27914 0.90698 0.01776 0.0
N456 N 0.26489 0.94888 0.07434 0.0
C457 C 0.27592 0.94089 0.02358 0.0
O458 O 0.17047 0.76703 0.96975 0.0
C459 C 0.19443 0.8002 0.9467 0.0
O460 O 0.22837 0.82319 0.96839 0.0
H461 H 0.24915 0.86827 0.14688 0.0
H462 H 0.28648 0.89907 0.97747 0.0
C463 C 0.17803 0.66377 1.0112 0.0
C464 C 0.19961 0.64587 0.99064 0.0
C465 C 0.2562 0.71024 0.97666 0.0
C466 C 0.2347 0.72766 0.99645 0.0
N467 N 0.19616 0.70435 1.01295 0.0
N468 N 0.23819 0.67002 0.97398 0.0
H469 H 0.14718 0.64594 0.02428 0.0
C470 C 0.32461 0.8295 0.97165 0.0
O471 O 0.30123 0.82442 0.92852 0.0
O472 O 0.11115 0.69677 0.04975 0.0
H473 H 0.24832 0.75964 0.99832 0.0
H474 H 0.24745 0.93076 0.15905 0.0
H475 H 0.28691 0.7285 0.96314 0.0
Zn476 Zn 0.16269 0.41849 0.04385 0.0
C477 C 0.25186 0.44429 0.14738 0.0
N478 N 0.23197 0.45772 0.17891 0.0
C479 C 0.20525 0.45693 0.14248 0.0
N480 N 0.20848 0.44343 0.09135 0.0
N481 N 0.23858 0.43635 0.09348 0.0
C482 C 0.28413 0.36677 0.02459 0.0
O483 O 0.2454 0.3452 0.01689 0.0
O484 O 0.14571 0.4602 0.0313 0.0
Zn485 Zn 0.26476 0.43062 0.02485 0.0
N486 N 0.12534 0.37249 0.08786 0.0
C487 C 0.10734 0.32679 0.16497 0.0
C488 C 0.13335 0.36348 0.14022 0.0
C489 C 0.09332 0.34537 0.05866 0.0
N490 N 0.07523 0.29968 0.13552 0.0
C491 C 0.0681 0.30779 0.08236 0.0
O492 O 0.22529 0.39705 0.96532 0.0
C493 C 0.19065 0.38489 0.94531 0.0
O494 O 0.16632 0.39351 0.969 0.0
H495 H 0.16011 0.38347 0.16249 0.0
H496 H 0.08815 0.35311 0.01681 0.0
C497 C 0.33718 0.50615 0.99177 0.0
C498 C 0.35596 0.54469 0.968 0.0
C499 C 0.29224 0.53542 0.9438 0.0
C500 C 0.27386 0.49776 0.96838 0.0
N501 N 0.29643 0.48369 0.99173 0.0
N502 N 0.33262 0.55792 0.94433 0.0
H503 H 0.35473 0.49422 1.00965 0.0
C504 C 0.15625 0.4801 0.98543 0.0
O505 O 0.17092 0.46821 0.94473 0.0
O506 O 0.29938 0.40397 0.03331 0.0
H507 H 0.24173 0.47965 0.96907 0.0
H508 H 0.11317 0.31955 0.20673 0.0
H509 H 0.27455 0.54688 0.92492 0.0
Zn510 Zn 0.41131 0.9106 0.32433 0.0
C511 C 0.47431 0.88047 0.22597 0.0
N512 N 0.4412 0.8668 0.19398 0.0
C513 C 0.41523 0.86875 0.22922 0.0
N514 N 0.43188 0.88368 0.27994 0.0
N515 N 0.46896 0.89016 0.27896 0.0
C516 C 0.58499 0.96373 0.34114 0.0
O517 O 0.56681 0.98465 0.34307 0.0
O518 O 0.35222 0.8707 0.34002 0.0
Zn519 Zn 0.50189 0.89995 0.34805 0.0
N520 N 0.4209 0.95565 0.27741 0.0
C521 C 0.44867 0.99893 0.19771 0.0
C522 C 0.43668 0.96251 0.22422 0.0
C523 C 0.41851 0.98459 0.30565 0.0
N524 N 0.44628 0.02791 0.22629 0.0
C525 C 0.43237 0.0219 0.28024 0.0
O526 O 0.49654 0.9366 0.40368 0.0
C527 C 0.47297 0.94812 0.42162 0.0
O528 O 0.43974 0.93743 0.39755 0.0
H529 H 0.44168 0.94106 0.20272 0.0
H530 H 0.40652 0.97853 0.34816 0.0
C531 C 0.4962 0.82474 0.38814 0.0
C532 C 0.47602 0.78774 0.41627 0.0
C533 C 0.42625 0.80273 0.44558 0.0
C534 C 0.4456 0.83861 0.41612 0.0
N535 N 0.48012 0.84908 0.38798 0.0
N536 N 0.44168 0.77812 0.44465 0.0
H537 H 0.52427 0.83392 0.36696 0.0
C538 C 0.34262 0.85284 0.38758 0.0
O539 O 0.36964 0.86534 0.42759 0.0
O540 O 0.56361 0.9259 0.33832 0.0
H541 H 0.43324 0.85813 0.41547 0.0
H542 H 0.46077 0.00448 0.1553 0.0
H543 H 0.39881 0.79419 0.4683 0.0
Zn544 Zn 0.10069 0.60057 0.33532 0.0
C545 C 0.12204 0.53947 0.21322 0.0
N546 N 0.12626 0.56951 0.18088 0.0
C547 C 0.11519 0.59002 0.21468 0.0
N548 N 0.10377 0.57315 0.26627 0.0
N549 N 0.1072 0.5407 0.26483 0.0
C550 C 0.14423 0.49182 0.38683 0.0
O551 O 0.12904 0.50374 0.42679 0.0
O552 O 0.07756 0.63799 0.3255 0.0
Zn553 Zn 0.08454 0.49732 0.31748 0.0
N554 N 0.15445 0.6304 0.36525 0.0
C555 C 0.2061 0.62393 0.40908 0.0
C556 C 0.16826 0.60681 0.38548 0.0
C557 C 0.17735 0.67097 0.36681 0.0
N558 N 0.22879 0.66413 0.41128 0.0
C559 C 0.2159 0.68862 0.39085 0.0
O560 O 0.05911 0.50355 0.3896 0.0
C561 C 0.05186 0.52782 0.4159 0.0
O562 O 0.06545 0.56326 0.39805 0.0
H563 H 0.14971 0.57483 0.38324 0.0
H564 H 0.16541 0.68891 0.35042 0.0
C565 C 0.01076 0.4273 0.31106 0.0
C566 C 0.97287 0.40079 0.28931 0.0
C567 C 0.99256 0.43342 0.20077 0.0
C568 C 0.02974 0.4603 0.22304 0.0
N569 N 0.03834 0.45647 0.27775 0.0
N570 N 0.96498 0.40423 0.2343 0.0
H571 H 0.01864 0.42521 0.35422 0.0
C572 C 0.03966 0.62175 0.32895 0.0
O573 O 0.01842 0.58269 0.33034 0.0
O574 O 0.12816 0.4842 0.3382 0.0
H575 H 0.05067 0.48437 0.1968 0.0
H576 H 0.21741 0.60546 0.42556 0.0
H577 H 0.98547 0.43604 0.15736 0.0
Zn578 Zn 0.49455 0.58802 0.32692 0.0
C579 C 0.40241 0.5205 0.22884 0.0
N580 N 0.41952 0.55217 0.19418 0.0
C581 C 0.4481 0.58042 0.22589 0.0
N582 N 0.44879 0.56599 0.27819 0.0
N583 N 0.41869 0.52866 0.28093 0.0
C584 C 0.37803 0.41588 0.34321 0.0
O585 O 0.41725 0.43515 0.34181 0.0
O586 O 0.50831 0.64468 0.34753 0.0
Zn587 Zn 0.39474 0.4974 0.3516 0.0
N588 N 0.53425 0.5829 0.28296 0.0
C589 C 0.55545 0.56018 0.20366 0.0
C590 C 0.52821 0.56893 0.22893 0.0
C591 C 0.56587 0.58725 0.31288 0.0
N592 N 0.58706 0.56447 0.23386 0.0
C593 C 0.59259 0.57713 0.28833 0.0
O594 O 0.43518 0.50209 0.4091 0.0
C595 C 0.47051 0.52588 0.4254 0.0
O596 O 0.4926 0.55829 0.39916 0.0
H597 H 0.50221 0.56342 0.20553 0.0
H598 H 0.56966 0.59821 0.3557 0.0
C599 C 0.32374 0.50264 0.38782 0.0
C600 C 0.30616 0.52344 0.41183 0.0
C601 C 0.37057 0.57515 0.43855 0.0
C602 C 0.38785 0.55518 0.41277 0.0
N603 N 0.36436 0.51941 0.38784 0.0
N604 N 0.33035 0.55906 0.43708 0.0
H605 H 0.30521 0.47359 0.3695 0.0
C606 C 0.50283 0.6547 0.39636 0.0
O607 O 0.49174 0.62876 0.43787 0.0
O608 O 0.36024 0.43606 0.34335 0.0
H609 H 0.4199 0.5681 0.41226 0.0
H610 H 0.55115 0.5494 0.16069 0.0
H611 H 0.38903 0.6036 0.45867 0.0
C612 C 0.32273 0.19212 0.20769 0.0
C613 C 0.30883 0.15337 0.22863 0.0
H614 H 0.35939 0.23681 0.14713 0.0
C615 C 0.32224 0.12967 0.20206 0.0
H616 H 0.3134 0.21141 0.22714 0.0
C617 C 0.34868 0.14427 0.15596 0.0
C618 C 0.36284 0.18314 0.13535 0.0
H619 H 0.31246 0.09978 0.21703 0.0
H620 H 0.35824 0.1251 0.13673 0.0
C621 C 0.34942 0.20682 0.16189 0.0
C622 C 0.87504 0.19381 0.20825 0.0
C623 C 0.8517 0.15584 0.23287 0.0
H624 H 0.87933 0.23551 0.14494 0.0
C625 C 0.81334 0.13076 0.21092 0.0
H626 H 0.90465 0.2141 0.22406 0.0
C627 C 0.7987 0.1432 0.1659 0.0
C628 C 0.82196 0.1811 0.14117 0.0
H629 H 0.79431 0.10145 0.22879 0.0
H630 H 0.76905 0.12282 0.15027 0.0
C631 C 0.86042 0.20622 0.16293 0.0
C632 C 0.81474 0.68639 0.20267 0.0
C633 C 0.85186 0.69886 0.22871 0.0
H634 H 0.77381 0.65172 0.13732 0.0
C635 C 0.87622 0.68449 0.20731 0.0
H636 H 0.79505 0.69664 0.21803 0.0
C637 C 0.8638 0.65833 0.16136 0.0
C638 C 0.82675 0.64593 0.1352 0.0
H639 H 0.90483 0.69312 0.22641 0.0
H640 H 0.88353 0.6481 0.14603 0.0
C641 C 0.80244 0.66042 0.15642 0.0
C642 C 0.12936 0.31832 0.82277 0.0
C643 C 0.15472 0.3049 0.8018 0.0
H644 H 0.1205 0.35393 0.88425 0.0
C645 C 0.19181 0.31841 0.82825 0.0
H646 H 0.10063 0.30874 0.80338 0.0
C647 C 0.20335 0.34462 0.87393 0.0
C648 C 0.17812 0.35808 0.89509 0.0
H649 H 0.21234 0.30909 0.81329 0.0
H650 H 0.2322 0.35415 0.89285 0.0
C651 C 0.14083 0.34443 0.86902 0.0
C652 C 0.68138 0.80449 0.82414 0.0
C653 C 0.69729 0.84394 0.80446 0.0
H654 H 0.64399 0.76023 0.88528 0.0
C655 C 0.68741 0.86929 0.83393 0.0
H656 H 0.68823 0.78403 0.80256 0.0
C657 C 0.66196 0.8556 0.88085 0.0
C658 C 0.64551 0.81608 0.90021 0.0
H659 H 0.69888 0.89978 0.82031 0.0
H660 H 0.65505 0.87623 0.90181 0.0
C661 C 0.65591 0.79077 0.87157 0.0
C662 C 0.20631 0.85118 0.87082 0.0
C663 C 0.18108 0.81397 0.89643 0.0
H664 H 0.2133 0.89345 0.80674 0.0
C665 C 0.14204 0.79095 0.87535 0.0
H666 H 0.23648 0.86997 0.88595 0.0
C667 C 0.12863 0.80461 0.83018 0.0
C668 C 0.15382 0.84173 0.80444 0.0
H669 H 0.12155 0.76232 0.89403 0.0
H670 H 0.09845 0.78575 0.81515 0.0
C671 C 0.19291 0.86481 0.82544 0.0
C672 C 0.01152 0.47552 0.48962 0.0
C673 C 0.02501 0.51371 0.46665 0.0
H674 H 0.97609 0.43246 0.55284 0.0
C675 C 0.0114 0.53773 0.49159 0.0
H676 H 0.02113 0.45603 0.47163 0.0
C677 C 0.98512 0.524 0.53797 0.0
C678 C 0.97179 0.48589 0.56112 0.0
H679 H 0.02082 0.56718 0.47504 0.0
H680 H 0.97557 0.54352 0.55603 0.0
C681 C 0.98547 0.4619 0.53625 0.0
C682 C 0.54041 0.52931 0.54152 0.0
C683 C 0.51793 0.49149 0.56685 0.0
H684 H 0.54332 0.56986 0.47745 0.0
C685 C 0.47979 0.46528 0.54516 0.0
H686 H 0.56984 0.5504 0.5571 0.0
C687 C 0.46442 0.47662 0.49979 0.0
C688 C 0.48679 0.51445 0.47455 0.0
H689 H 0.46146 0.43604 0.56364 0.0
H690 H 0.43492 0.45553 0.48442 0.0
C691 C 0.52511 0.54058 0.49587 0.0
C692 C 0.47305 0.01547 0.53946 0.0
C693 C 0.51127 0.0299 0.5629 0.0
H694 H 0.43085 0.97845 0.47659 0.0
C695 C 0.53629 0.01693 0.53949 0.0
H696 H 0.45289 0.02463 0.55647 0.0
C697 C 0.5236 0.99031 0.49431 0.0
C698 C 0.48548 0.97579 0.47074 0.0
H699 H 0.56586 0.02712 0.5563 0.0
H700 H 0.54396 0.98125 0.47774 0.0
C701 C 0.46036 0.98884 0.49377 0.0
C702 C 0.15962 0.00113 0.46216 0.0
C703 C 0.19716 0.02809 0.48399 0.0
H704 H 0.1091 0.94257 0.46562 0.0
C705 C 0.21401 0.01472 0.52494 0.0
H706 H 0.1453 0.011 0.43203 0.0
C707 C 0.19347 0.97502 0.54386 0.0
C708 C 0.15499 0.94827 0.52392 0.0
H709 H 0.24245 0.03531 0.54382 0.0
H710 H 0.2076 0.96597 0.57479 0.0
C711 C 0.1388 0.96189 0.48196 0.0
C712 C 0.02956 0.21033 0.53852 0.0
C713 C 0.0561 0.19749 0.52158 0.0
H714 H 0.96961 0.19987 0.53644 0.0
C715 C 0.04238 0.16621 0.48215 0.0
H716 H 0.03854 0.23442 0.56762 0.0
C717 C 0.00317 0.14756 0.462 0.0
C718 C 0.97644 0.15946 0.48092 0.0
H719 H 0.06159 0.15503 0.4681 0.0
H720 H 0.99313 0.12236 0.43387 0.0
C721 C 0.98998 0.19106 0.51932 0.0
C722 C 0.79061 0.81148 0.53936 0.0
C723 C 0.80367 0.85091 0.52259 0.0
H724 H 0.80141 0.76227 0.53732 0.0
C725 C 0.83579 0.86903 0.48412 0.0
H726 H 0.76574 0.79597 0.56759 0.0
C727 C 0.85505 0.84897 0.46466 0.0
C728 C 0.84295 0.81035 0.48343 0.0
H729 H 0.84705 0.89942 0.47017 0.0
H730 H 0.88076 0.86445 0.43706 0.0
C731 C 0.81052 0.79166 0.52084 0.0
C732 C 0.86308 0.02536 0.54193 0.0
C733 C 0.84789 0.04392 0.50704 0.0
H734 H 0.85141 0.97316 0.58642 0.0
C735 C 0.80679 0.02537 0.49707 0.0
H736 H 0.89467 0.03889 0.55087 0.0
C737 C 0.78179 0.98649 0.51656 0.0
C738 C 0.79801 0.96769 0.5488 0.0
H739 H 0.79441 0.04073 0.47432 0.0
H740 H 0.7506 0.97069 0.50464 0.0
C741 C 0.83827 0.9879 0.5632 0.0
C742 C 0.01761 0.79167 0.51531 0.0
C743 C 0.03603 0.82655 0.54757 0.0
H744 H 0.96355 0.74968 0.47322 0.0
C745 C 0.01545 0.84622 0.56194 0.0
H746 H 0.03374 0.77661 0.50346 0.0
C747 C 0.97773 0.83299 0.54118 0.0
C748 C 0.95947 0.79923 0.50659 0.0
H749 H 0.02992 0.87396 0.58524 0.0
H750 H 0.96369 0.85052 0.55035 0.0
C751 C 0.9786 0.77734 0.49608 0.0
C752 C 0.15981 0.16288 0.56476 0.0
C753 C 0.17917 0.20308 0.55024 0.0
H754 H 0.15627 0.10731 0.55299 0.0
C755 C 0.21473 0.22018 0.51889 0.0
H756 H 0.13164 0.14915 0.58753 0.0
C757 C 0.22982 0.19609 0.50014 0.0
C758 C 0.20794 0.15503 0.50999 0.0
H759 H 0.22962 0.25134 0.50702 0.0
H760 H 0.25791 0.20912 0.47784 0.0
C761 C 0.17374 0.13895 0.54427 0.0
C762 C 0.8517 0.3134 0.88374 0.0
C763 C 0.81259 0.28708 0.86568 0.0
H764 H 0.90206 0.37276 0.87968 0.0
C765 C 0.79703 0.29983 0.82164 0.0
H766 H 0.86589 0.30457 0.91482 0.0
C767 C 0.81886 0.33813 0.7987 0.0
C768 C 0.85683 0.36499 0.81934 0.0
H769 H 0.76718 0.28052 0.80576 0.0
H770 H 0.80501 0.34754 0.76715 0.0
C771 C 0.87319 0.35226 0.86189 0.0
C772 C 0.69823 0.55422 0.87348 0.0
C773 C 0.72528 0.5428 0.85374 0.0
H774 H 0.63765 0.54202 0.8744 0.0
C775 C 0.71184 0.51251 0.81279 0.0
H776 H 0.70702 0.57746 0.90404 0.0
C777 C 0.67242 0.49344 0.79366 0.0
C778 C 0.64521 0.50385 0.81526 0.0
H779 H 0.73138 0.50224 0.79692 0.0
H780 H 0.66261 0.46888 0.76436 0.0
C781 C 0.65842 0.53446 0.85529 0.0
C782 C 0.5125 0.21209 0.81992 0.0
C783 C 0.48233 0.19454 0.86154 0.0
H784 H 0.55523 0.20708 0.76762 0.0
C785 C 0.4711 0.15584 0.87957 0.0
H786 H 0.52236 0.24194 0.80466 0.0
C787 C 0.49109 0.13638 0.85955 0.0
C788 C 0.52133 0.15429 0.81845 0.0
H789 H 0.44713 0.14044 0.90909 0.0
H790 H 0.48327 0.10764 0.87716 0.0
C791 C 0.53141 0.19213 0.79832 0.0
C792 C 0.47835 0.36548 0.83417 0.0
C793 C 0.51938 0.38642 0.84488 0.0
H794 H 0.42425 0.30882 0.84193 0.0
C795 C 0.53619 0.3701 0.88107 0.0
H796 H 0.4646 0.37904 0.81029 0.0
C797 C 0.51313 0.3326 0.90319 0.0
C798 C 0.47318 0.31008 0.88799 0.0
H799 H 0.56784 0.3854 0.89035 0.0
H800 H 0.52756 0.31971 0.92772 0.0
C801 C 0.45524 0.32649 0.85431 0.0
C802 C 0.65858 0.13059 0.79543 0.0
C803 C 0.62635 0.12083 0.83126 0.0
H804 H 0.7215 0.15598 0.7885 0.0
C805 C 0.63149 0.12076 0.88986 0.0
H806 H 0.65585 0.13315 0.75089 0.0
C807 C 0.66978 0.13712 0.91186 0.0
C808 C 0.70259 0.15201 0.87566 0.0
H809 H 0.60681 0.11311 0.91854 0.0
H810 H 0.67396 0.1435 0.95596 0.0
C811 C 0.69643 0.14459 0.81755 0.0
C812 C 0.8809 0.56025 0.84793 0.0
C813 C 0.84613 0.5448 0.88088 0.0
H814 H 0.92183 0.54655 0.80563 0.0
C815 C 0.82574 0.50478 0.89643 0.0
H816 H 0.89657 0.59126 0.83524 0.0
C817 C 0.83793 0.47948 0.87578 0.0
C818 C 0.87132 0.4939 0.84003 0.0
H819 H 0.798 0.49223 0.92012 0.0
H820 H 0.81976 0.44809 0.88575 0.0
C821 C 0.89421 0.53474 0.82888 0.0
C822 C 0.51164 0.64907 0.22225 0.0
C823 C 0.4732 0.62183 0.20283 0.0
H824 H 0.56087 0.709 0.21947 0.0
C825 C 0.45775 0.63406 0.15794 0.0
H826 H 0.526 0.64061 0.25351 0.0
C827 C 0.4792 0.67246 0.13498 0.0
C828 C 0.51651 0.70013 0.15678 0.0
H829 H 0.42842 0.6141 0.14095 0.0
H830 H 0.46569 0.68112 0.10192 0.0
C831 C 0.5325 0.68812 0.20082 0.0
C832 C 0.30319 0.80479 0.22071 0.0
C833 C 0.29314 0.82114 0.17456 0.0
H834 H 0.34895 0.80759 0.27483 0.0
C835 C 0.32429 0.85445 0.14726 0.0
H836 H 0.28068 0.77804 0.24153 0.0
C837 C 0.36401 0.87074 0.16567 0.0
C838 C 0.3733 0.85493 0.21304 0.0
H839 H 0.31848 0.86793 0.11165 0.0
H840 H 0.38748 0.8955 0.14249 0.0
C841 C 0.34248 0.82158 0.23994 0.0
C842 C 0.14828 0.45648 0.19548 0.0
C843 C 0.17982 0.47432 0.15616 0.0
H844 H 0.10336 0.4613 0.24217 0.0
C845 C 0.19148 0.51256 0.13641 0.0
H846 H 0.13934 0.4273 0.21258 0.0
C847 C 0.17257 0.5329 0.15599 0.0
C848 C 0.14068 0.5154 0.19508 0.0
H849 H 0.21635 0.52744 0.10727 0.0
H850 H 0.1836 0.56296 0.14072 0.0
C851 C 0.12827 0.47647 0.21373 0.0
C852 C 0.17205 0.65241 0.18548 0.0
C853 C 0.13219 0.63224 0.20338 0.0
H854 H 0.22027 0.7059 0.15319 0.0
C855 C 0.10964 0.65148 0.20286 0.0
H856 H 0.18996 0.63806 0.18514 0.0
C857 C 0.12776 0.69147 0.18582 0.0
C858 C 0.16763 0.71092 0.16754 0.0
H859 H 0.07836 0.63561 0.21444 0.0
H860 H 0.11102 0.70699 0.18695 0.0
C861 C 0.1893 0.69102 0.16677 0.0
C862 C 0.35969 0.47737 0.15361 0.0
C863 C 0.36575 0.48501 0.21164 0.0
H864 H 0.31792 0.4616 0.08763 0.0
C865 C 0.33316 0.46794 0.24824 0.0
H866 H 0.3846 0.4905 0.12427 0.0
C867 C 0.29459 0.44821 0.22684 0.0
C868 C 0.28874 0.44727 0.16829 0.0
H869 H 0.33724 0.47473 0.29221 0.0
H870 H 0.26976 0.43868 0.25593 0.0
C871 C 0.32131 0.45979 0.13208 0.0
C872 C 0.52707 0.86342 0.24275 0.0
C873 C 0.5081 0.87677 0.20603 0.0
H874 H 0.55682 0.82984 0.25116 0.0
C875 C 0.51321 0.87536 0.14755 0.0
H876 H 0.52268 0.86343 0.28737 0.0
C877 C 0.53115 0.85468 0.12654 0.0
C878 C 0.54536 0.83663 0.16346 0.0
H879 H 0.49879 0.88556 0.11812 0.0
H880 H 0.52894 0.84829 0.0823 0.0
C881 C 0.54605 0.8437 0.22165 0.0
C882 C 0.0943 0.18274 0.34822 0.0
C883 C 0.09405 0.15626 0.30735 0.0
H884 H 0.0644 0.21257 0.38146 0.0
C885 C 0.06505 0.14319 0.26458 0.0
H886 H 0.11605 0.19349 0.3819 0.0
C887 C 0.03545 0.15373 0.26477 0.0
C888 C 0.03367 0.17757 0.30797 0.0
H889 H 0.06425 0.1234 0.23174 0.0
H890 H 0.01267 0.14128 0.23248 0.0
C891 C 0.06444 0.1934 0.34832 0.0
C892 C 0.81214 0.86941 0.34733 0.0
C893 C 0.82686 0.85419 0.30567 0.0
H894 H 0.8121 0.92081 0.38061 0.0
C895 C 0.84847 0.87895 0.26016 0.0
H896 H 0.79447 0.85075 0.38214 0.0
C897 C 0.85793 0.91867 0.25859 0.0
C898 C 0.84608 0.93503 0.30241 0.0
H899 H 0.85993 0.8683 0.22683 0.0
H900 H 0.87593 0.93702 0.2237 0.0
C901 C 0.82187 0.90953 0.34601 0.0
C902 C 0.09754 0.91145 0.34387 0.0
C903 C 0.07126 0.91217 0.30336 0.0
H904 H 0.15733 0.94078 0.37678 0.0
C905 C 0.08714 0.94169 0.2611 0.0
H906 H 0.08661 0.88932 0.37719 0.0
C907 C 0.12728 0.97126 0.26146 0.0
C908 C 0.15294 0.97244 0.30425 0.0
H909 H 0.06814 0.9429 0.22854 0.0
H910 H 0.13759 0.99443 0.22961 0.0
C911 C 0.13807 0.94123 0.34406 0.0
C912 C 0.15003 0.06021 0.77063 0.0
C913 C 0.15987 0.0869 0.72513 0.0
H914 H 0.14828 0.0081 0.80364 0.0
C915 C 0.17932 0.08214 0.67797 0.0
H916 H 0.13532 0.0631 0.80782 0.0
C917 C 0.18631 0.04987 0.67511 0.0
C918 C 0.17465 0.02214 0.71982 0.0
H919 H 0.1873 0.10206 0.64217 0.0
H920 H 0.19965 0.04594 0.6372 0.0
C921 C 0.15756 0.02857 0.76823 0.0
C922 C 0.94141 0.08302 0.7655 0.0
C923 C 0.91466 0.0659 0.72033 0.0
H924 H 0.9935 0.13363 0.79777 0.0
C925 C 0.91927 0.08985 0.67294 0.0
H926 H 0.93863 0.0656 0.80283 0.0
C927 C 0.95151 0.12916 0.66953 0.0
C928 C 0.9793 0.14551 0.71393 0.0
H929 H 0.89927 0.07768 0.63741 0.0
H930 H 0.95535 0.14626 0.63146 0.0
C931 C 0.97298 0.12223 0.76258 0.0
C932 C 0.9109 0.82414 0.67263 0.0
C933 C 0.93477 0.84416 0.71961 0.0
H934 H 0.85412 0.80232 0.6317 0.0
C935 C 0.91727 0.85369 0.76454 0.0
H936 H 0.92338 0.81642 0.63724 0.0
C937 C 0.87769 0.84515 0.76183 0.0
C938 C 0.85438 0.82735 0.71363 0.0
H939 H 0.93463 0.86884 0.80155 0.0
H940 H 0.86597 0.85416 0.79684 0.0
C941 C 0.87119 0.81614 0.66944 0.0
C942 C 0.7309 0.53398 0.6771 0.0
C943 C 0.69904 0.51754 0.6385 0.0
H944 H 0.78275 0.53381 0.70901 0.0
C945 C 0.6992 0.49231 0.59615 0.0
H946 H 0.7322 0.55432 0.70936 0.0
C947 C 0.72823 0.481 0.59534 0.0
C948 C 0.75826 0.4946 0.63669 0.0
H949 H 0.67557 0.47937 0.56511 0.0
H950 H 0.72612 0.46019 0.56323 0.0
C951 C 0.76015 0.52249 0.67647 0.0
C952 C 0.49177 0.2487 0.6859 0.0
C953 C 0.51597 0.27407 0.64221 0.0
H954 H 0.464 0.18986 0.72192 0.0
C955 C 0.52706 0.25752 0.59783 0.0
H956 H 0.48267 0.26027 0.72093 0.0
C957 C 0.51677 0.21756 0.59879 0.0
C958 C 0.49521 0.19283 0.64439 0.0
H959 H 0.54509 0.27589 0.56296 0.0
H960 H 0.52762 0.20668 0.56495 0.0
C961 C 0.48137 0.20838 0.6868 0.0
C962 C 0.8001 0.27624 0.67847 0.0
C963 C 0.81694 0.3058 0.6363 0.0
H964 H 0.74758 0.22429 0.7091 0.0
C965 C 0.79425 0.30173 0.58792 0.0
H966 H 0.81702 0.27811 0.71582 0.0
C967 C 0.75482 0.27079 0.58366 0.0
C968 C 0.73685 0.24279 0.62747 0.0
H969 H 0.80623 0.32359 0.55422 0.0
H970 H 0.73787 0.2697 0.54667 0.0
C971 C 0.76035 0.24509 0.67427 0.0
C972 C 0.80895 0.39764 0.10463 0.0
C973 C 0.81995 0.42422 0.05882 0.0
H974 H 0.80688 0.34588 0.13969 0.0
C975 C 0.84091 0.41972 1.01343 0.0
H976 H 0.79297 0.40039 0.14038 0.0
C977 C 0.84849 0.38784 1.0126 0.0
C978 C 0.83583 0.36026 0.05756 0.0
H979 H 0.84963 0.4395 0.97733 0.0
H980 H 0.86305 0.38407 0.97595 0.0
C981 C 0.81707 0.36637 0.10427 0.0
C982 C 0.62257 0.47162 1.00889 0.0
C983 C 0.64982 0.49017 0.05335 0.0
H984 H 0.5713 0.41844 0.97895 0.0
C985 C 0.64359 0.46894 0.10408 0.0
H986 H 0.62637 0.48711 0.96923 0.0
C987 C 0.61257 0.42959 0.10921 0.0
C988 C 0.58632 0.41026 0.06414 0.0
H989 H 0.66375 0.4821 0.13936 0.0
H990 H 0.6098 0.41387 0.14834 0.0
C991 C 0.59091 0.4322 1.01445 0.0
C992 C 0.57734 0.15936 0.02477 0.0
C993 C 0.60004 0.17821 0.07313 0.0
H994 H 0.52225 0.13968 0.9805 0.0
C995 C 0.58201 0.18799 0.11703 0.0
H996 H 0.59047 0.152 0.98974 0.0
C997 C 0.54297 0.18082 0.11187 0.0
C998 C 0.521 0.16416 0.06227 0.0
H999 H 0.59861 0.20242 0.15488 0.0
H1000 H 0.53075 0.19012 0.14591 0.0
C1001 C 0.53825 0.15251 0.01933 0.0
C1002 C 0.38819 0.83609 1.00897 0.0
C1003 C 0.36089 0.82627 0.96441 0.0
H1004 H 0.43983 0.83575 0.04027 0.0
C1005 C 0.36724 0.81089 0.91429 0.0
H1006 H 0.38413 0.84802 0.04816 0.0
C1007 C 0.39916 0.80376 0.9098 0.0
C1008 C 0.42579 0.81245 0.95493 0.0
H1009 H 0.34672 0.80294 0.87925 0.0
H1010 H 0.40254 0.79064 0.87133 0.0
C1011 C 0.42039 0.8294 1.00423 0.0
C1012 C 0.18564 0.54723 0.94046 0.0
C1013 C 0.16082 0.52051 0.9823 0.0
H1014 H 0.21688 0.60719 0.91042 0.0
C1015 C 0.14458 0.53444 0.02364 0.0
H1016 H 0.19857 0.53772 0.90767 0.0
C1017 C 0.15524 0.57484 0.02526 0.0
C1018 C 0.18237 0.60199 0.98549 0.0
H1019 H 0.12486 0.51445 0.05597 0.0
H1020 H 0.14391 0.58507 0.05927 0.0
C1021 C 0.1964 0.58732 0.94224 0.0
C1022 C 0.46332 0.60515 0.01961 0.0
C1023 C 0.48072 0.63372 0.97623 0.0
H1024 H 0.41016 0.55433 0.05142 0.0
C1025 C 0.45801 0.62945 0.92775 0.0
H1026 H 0.48016 0.60733 0.05722 0.0
C1027 C 0.41817 0.59924 0.92437 0.0
C1028 C 0.39995 0.57204 0.96896 0.0
H1029 H 0.47031 0.65069 0.89333 0.0
H1030 H 0.40116 0.59798 0.88736 0.0
C1031 C 0.4233 0.57454 1.01603 0.0
C1032 C 0.48785 0.69947 0.45466 0.0
C1033 C 0.50228 0.69241 0.40403 0.0
H1034 H 0.46858 0.73527 0.4981 0.0
C1035 C 0.51231 0.71977 0.35926 0.0
H1036 H 0.47987 0.67913 0.49005 0.0
C1037 C 0.50606 0.75227 0.36407 0.0
C1038 C 0.48943 0.75793 0.41368 0.0
H1039 H 0.5235 0.71525 0.31966 0.0
H1040 H 0.51215 0.77153 0.32778 0.0
C1041 C 0.48127 0.73165 0.45926 0.0
C1042 C 0.30382 0.78704 0.43601 0.0
C1043 C 0.30569 0.81336 0.39372 0.0
H1044 H 0.27407 0.72773 0.46838 0.0
C1045 C 0.27426 0.79969 0.35459 0.0
H1046 H 0.32716 0.79645 0.46735 0.0
C1047 C 0.24353 0.7596 0.35476 0.0
C1048 C 0.24356 0.73255 0.39456 0.0
H1049 H 0.27432 0.81957 0.32238 0.0
H1050 H 0.22121 0.74957 0.32187 0.0
C1051 C 0.27335 0.74731 0.43632 0.0
C1052 C 0.24068 0.49074 0.35908 0.0
C1053 C 0.26265 0.50917 0.40815 0.0
H1054 H 0.18597 0.47073 0.31367 0.0
C1055 C 0.24382 0.51813 0.45185 0.0
H1056 H 0.25444 0.48401 0.32417 0.0
C1057 C 0.20462 0.51037 0.44598 0.0
C1058 C 0.1833 0.49395 0.39583 0.0
H1059 H 0.25985 0.53225 0.4902 0.0
H1060 H 0.19169 0.5189 0.47999 0.0
C1061 C 0.20146 0.48336 0.3529 0.0
C1062 C 0.41741 0.07501 0.40012 0.0
C1063 C 0.39507 0.08932 0.37259 0.0
H1064 H 0.44832 0.04263 0.39115 0.0
C1065 C 0.39575 0.09162 0.31329 0.0
H1066 H 0.41821 0.07389 0.4458 0.0
C1067 C 0.41249 0.07326 0.28208 0.0
C1068 C 0.42872 0.05287 0.31018 0.0
H1069 H 0.38021 0.10429 0.29113 0.0
H1070 H 0.40887 0.07142 0.23662 0.0
C1071 C 0.4343 0.05685 0.36891 0.0
C1072 C 0.92124 0.32977 0.29685 0.0
C1073 C 0.94385 0.36677 0.32318 0.0
H1074 H 0.89053 0.26671 0.30769 0.0
C1075 C 0.94361 0.36908 0.38244 0.0
H1076 H 0.9199 0.32721 0.25125 0.0
C1077 C 0.92733 0.33442 0.4147 0.0
C1078 C 0.91099 0.29751 0.38768 0.0
H1079 H 0.95905 0.39749 0.40383 0.0
H1080 H 0.93139 0.33677 0.46007 0.0
C1081 C 0.90472 0.29518 0.32909 0.0
C1082 C 0.62729 0.57977 0.37825 0.0
C1083 C 0.62816 0.58359 0.31913 0.0
H1084 H 0.66158 0.59687 0.45415 0.0
C1085 C 0.66457 0.59907 0.29021 0.0
H1086 H 0.59933 0.56616 0.40138 0.0
C1087 C 0.70005 0.61595 0.32036 0.0
C1088 C 0.69925 0.61758 0.37958 0.0
H1089 H 0.66592 0.60139 0.24455 0.0
H1090 H 0.72804 0.63034 0.29729 0.0
C1091 C 0.66281 0.59684 0.40843 0.0
C1092 C 0.07638 0.40839 0.62574 0.0
C1093 C 0.09169 0.38684 0.65305 0.0
H1094 H 0.04341 0.43865 0.63515 0.0
C1095 C 0.09359 0.38697 0.71232 0.0
H1096 H 0.07547 0.40951 0.58007 0.0
C1097 C 0.07481 0.40315 0.74378 0.0
C1098 C 0.05425 0.41936 0.71605 0.0
H1099 H 0.10689 0.37196 0.7343 0.0
H1100 H 0.0733 0.39967 0.78929 0.0
C1101 C 0.05773 0.42467 0.65719 0.0
C1102 C 0.56634 0.63294 0.66203 0.0
C1103 C 0.57317 0.63586 0.72049 0.0
H1104 H 0.58131 0.66426 0.58359 0.0
C1105 C 0.58953 0.67302 0.74685 0.0
H1106 H 0.55213 0.60427 0.64119 0.0
C1107 C 0.60575 0.70736 0.71395 0.0
C1108 C 0.60582 0.70441 0.6548 0.0
H1109 H 0.59402 0.67582 0.79214 0.0
H1110 H 0.62173 0.73599 0.73469 0.0
C1111 C 0.58273 0.66724 0.62914 0.0
C1112 C 0.3771 0.94671 0.67197 0.0
C1113 C 0.37488 0.95258 0.73005 0.0
H1114 H 0.34472 0.92595 0.59504 0.0
C1115 C 0.338 0.93296 0.7579 0.0
H1116 H 0.40559 0.96047 0.65013 0.0
C1117 C 0.30316 0.91275 0.72648 0.0
C1118 C 0.30526 0.91245 0.66718 0.0
H1119 H 0.33584 0.93641 0.80296 0.0
H1120 H 0.27471 0.90018 0.74818 0.0
C1121 C 0.34234 0.9267 0.64057 0.0
C1122 C 0.64196 0.95391 0.6734 0.0
C1123 C 0.68395 0.97453 0.67189 0.0
H1124 H 0.58853 0.95688 0.6815 0.0
C1125 C 0.70428 0.01623 0.6781 0.0
H1126 H 0.62512 0.92184 0.66897 0.0
C1127 C 0.68297 0.03659 0.68574 0.0
C1128 C 0.64089 0.0157 0.6872 0.0
H1129 H 0.73659 0.03308 0.67749 0.0
H1130 H 0.69944 0.06867 0.69015 0.0
C1131 C 0.62083 0.97411 0.68088 0.0
C1132 C 0.02305 0.64267 0.68366 0.0
C1133 C 0.98146 0.62179 0.69193 0.0
H1134 H 0.07569 0.69837 0.66776 0.0
C1135 C 0.96094 0.64324 0.68974 0.0
H1136 H 0.03998 0.62734 0.68468 0.0
C1137 C 0.98172 0.6846 0.67963 0.0
C1138 C 0.02342 0.70529 0.67149 0.0
H1139 H 0.92887 0.62809 0.69559 0.0
H1140 H 0.96522 0.70036 0.67867 0.0
C1141 C 0.04363 0.68364 0.67357 0.0
C1142 C 0.31978 0.35976 0.68023 0.0
C1143 C 0.29937 0.31795 0.67735 0.0
H1144 H 0.37504 0.41362 0.69192 0.0
C1145 C 0.32152 0.29844 0.68501 0.0
H1146 H 0.30401 0.37605 0.67483 0.0
C1147 C 0.36301 0.32039 0.69525 0.0
C1148 C 0.38319 0.36231 0.69805 0.0
H1149 H 0.3068 0.26627 0.68346 0.0
H1150 H 0.37927 0.30459 0.70057 0.0
C1151 C 0.36082 0.38148 0.69039 0.0
C1152 C 0.97739 0.62547 0.34175 0.0
C1153 C 0.01924 0.64544 0.33701 0.0
H1154 H 0.92499 0.62942 0.35559 0.0
C1155 C 0.04045 0.68716 0.34332 0.0
H1156 H 0.95988 0.59343 0.33745 0.0
C1157 C 0.02009 0.70816 0.35418 0.0
C1158 C 0.97813 0.68785 0.35894 0.0
H1159 H 0.07272 0.70351 0.3403 0.0
H1160 H 0.03715 0.74022 0.35849 0.0
C1161 C 0.95725 0.64625 0.35254 0.0
C1162 C 0.29448 0.30801 0.36562 0.0
C1163 C 0.31615 0.28766 0.36633 0.0
H1164 H 0.29674 0.3644 0.35721 0.0
C1165 C 0.35777 0.30992 0.35866 0.0
H1166 H 0.26237 0.29183 0.37109 0.0
C1167 C 0.37725 0.35109 0.35038 0.0
C1168 C 0.35588 0.37162 0.34951 0.0
H1169 H 0.37559 0.29551 0.35868 0.0
H1170 H 0.40936 0.36685 0.34484 0.0
C1171 C 0.31415 0.34957 0.35729 0.0
C1172 C 0.65063 0.9639 0.3531 0.0
C1173 C 0.62946 0.98457 0.34723 0.0
H1174 H 0.70781 0.96802 0.36566 0.0
C1175 C 0.65111 0.02638 0.35008 0.0
H1176 H 0.63497 0.93169 0.3515 0.0
C1177 C 0.69239 0.04697 0.35852 0.0
C1178 C 0.71378 0.02664 0.36443 0.0
H1179 H 0.63614 0.04353 0.34601 0.0
H1180 H 0.70756 0.07916 0.36014 0.0
C1181 C 0.69235 0.98471 0.36162 0.0
C1182 C 0.74136 0.74164 0.08705 0.0
C1183 C 0.72035 0.75769 0.06021 0.0
H1184 H 0.7751 0.71231 0.07563 0.0
C1185 C 0.72521 0.76549 1.00192 0.0
H1186 H 0.73881 0.73635 0.13222 0.0
C1187 C 0.74531 0.75125 0.96951 0.0
C1188 C 0.76069 0.72928 0.99536 0.0
H1189 H 0.71048 0.77942 0.98076 0.0
H1190 H 0.74511 0.75388 0.92396 0.0
C1191 C 0.76166 0.72754 0.05463 0.0
C1192 C 0.31827 0.97904 0.94196 0.0
C1193 C 0.28443 0.96789 0.97588 0.0
H1194 H 0.36077 0.02331 0.88595 0.0
C1195 C 0.26131 0.98603 0.96796 0.0
H1196 H 0.33639 0.96516 0.9471 0.0
C1197 C 0.2747 0.01846 0.93176 0.0
C1198 C 0.31181 0.03343 0.90494 0.0
H1199 H 0.23459 0.97707 0.99287 0.0
H1200 H 0.25886 0.03493 0.93095 0.0
C1201 C 0.33199 0.01189 0.90648 0.0
C1202 C 0.9608 0.2408 0.04934 0.0
C1203 C 0.9622 0.24374 0.99011 0.0
H1204 H 0.99448 0.2593 0.12573 0.0
C1205 C 0.99881 0.25854 0.96192 0.0
H1206 H 0.93264 0.22778 0.07191 0.0
C1207 C 0.03402 0.27597 0.99266 0.0
C1208 C 0.0327 0.27872 0.05168 0.0
H1209 H 1.00053 0.2602 0.91623 0.0
H1210 H 0.06222 0.29015 0.97007 0.0
C1211 C 0.99606 0.25837 0.08011 0.0
C1212 C 0.3748 0.35251 1.01331 0.0
C1213 C 0.3567 0.31167 1.00067 0.0
H1214 H 0.36625 0.40206 0.03144 0.0
C1215 C 0.31486 0.28955 0.99637 0.0
H1216 H 0.40693 0.37041 0.01727 0.0
C1217 C 0.29169 0.30748 1.00487 0.0
C1218 C 0.30954 0.34817 0.0179 0.0
H1219 H 0.29975 0.25805 0.98687 0.0
H1220 H 0.25958 0.28924 1.00107 0.0
C1221 C 0.35146 0.37058 0.02183 0.0
C1222 C 0.62918 0.97579 0.02414 0.0
C1223 C 0.65054 0.95529 0.02909 0.0
H1224 H 0.63223 0.03235 1.01308 0.0
C1225 C 0.69245 0.97737 0.02617 0.0
H1226 H 0.59687 0.95972 0.02594 0.0
C1227 C 0.71252 0.01859 0.01834 0.0
C1228 C 0.69144 0.03927 1.01338 0.0
H1229 H 0.71003 0.9628 0.02952 0.0
H1230 H 0.74483 0.03427 1.0165 0.0
C1231 C 0.64943 0.01738 1.01646 0.0
C1232 C 0.98508 0.69191 0.01862 0.0
C1233 C 0.96386 0.65037 1.01179 0.0
H1234 H 0.0407 0.74397 0.03637 0.0
C1235 C 0.98444 0.62926 0.01889 0.0
H1236 H 0.97035 0.70925 1.01396 0.0
C1237 C 0.02539 0.64946 0.03207 0.0
C1238 C 0.04645 0.69112 0.03863 0.0
H1239 H 0.96894 0.5972 1.01436 0.0
H1240 H 0.04058 0.63254 0.03656 0.0
C1241 C 0.02561 0.71191 0.03195 0.0
loop_
_geom_bond_atom_site_label_1
_geom_bond_atom_site_label_2
_geom_bond_distance
_geom_bond_site_symmetry_2
_ccdc_geom_bond_type
Zn0 N4 2.020 . S
Zn0 O8 2.019 . S
Zn0 N10 2.119 . S
Zn0 O18 1.975 . S
C1 N2 1.334 . S
C1 N5 1.336 . S
N2 C1 1.334 . S
N2 C3 1.334 . S
C3 N2 1.334 . S
C3 N4 1.336 . S
N4 Zn0 2.020 . S
N4 C3 1.336 . S
N4 N5 1.354 . S
N5 C1 1.336 . S
N5 N4 1.354 . S
N5 Zn9 2.020 . S
C6 O7 1.244 . S
C6 O30 1.257 . S
O7 C6 1.244 . S
O8 Zn0 2.019 . S
O8 C28 1.257 . S
Zn9 N5 2.020 . S
Zn9 O16 1.975 . S
Zn9 N25 2.119 . S
Zn9 O30 2.019 . S
N10 Zn0 2.119 . S
N10 C12 1.334 . S
N10 C13 1.328 . S
C11 C12 1.391 . S
C11 N14 1.329 . S
C11 H32 0.930 . S
C12 N10 1.334 . S
C12 C11 1.391 . S
C12 H19 0.930 . S
C13 N10 1.328 . S
C13 C15 1.392 . S
C13 H20 0.930 . S
N14 C11 1.329 . S
N14 C15 1.331 . S
C15 C13 1.392 . S
C15 N14 1.331 . S
O16 Zn9 1.975 . S
O16 C17 1.252 . S
C17 O16 1.252 . S
C17 O18 1.252 . S
O18 Zn0 1.975 . S
O18 C17 1.252 . S
H19 C12 0.930 . S
H20 C13 0.930 . S
C21 C22 1.392 . S
C21 N25 1.328 . S
C21 H27 0.930 . S
C22 C21 1.392 . S
C22 N26 1.331 . S
C23 C24 1.391 . S
C23 N26 1.329 . S
C23 H33 0.930 . S
C24 C23 1.391 . S
C24 N25 1.334 . S
C24 H31 0.930 . S
N25 Zn9 2.119 . S
N25 C21 1.328 . S
N25 C24 1.334 . S
N26 C22 1.331 . S
N26 C23 1.329 . S
H27 C21 0.930 . S
C28 O8 1.257 . S
C28 O29 1.244 . S
O29 C28 1.244 . S
O30 C6 1.257 . S
O30 Zn9 2.019 . S
H31 C24 0.930 . S
H32 C11 0.930 . S
H33 C23 0.930 . S
Zn34 N38 2.020 . S
Zn34 O42 2.019 . S
Zn34 N44 2.119 . S
Zn34 O52 1.975 . S
C35 N36 1.334 . S
C35 N39 1.336 . S
N36 C35 1.334 . S
N36 C37 1.334 . S
C37 N36 1.334 . S
C37 N38 1.336 . S
N38 Zn34 2.020 . S
N38 C37 1.336 . S
N38 N39 1.354 . S
N39 C35 1.336 . S
N39 N38 1.354 . S
N39 Zn43 2.020 . S
C40 O41 1.244 . S
C40 O64 1.257 . S
O41 C40 1.244 . S
O42 Zn34 2.019 . S
O42 C62 1.257 . S
Zn43 N39 2.020 . S
Zn43 O50 1.975 . S
Zn43 N59 2.119 . S
Zn43 O64 2.019 . S
N44 Zn34 2.119 . S
N44 C46 1.334 . S
N44 C47 1.328 . S
C45 C46 1.391 . S
C45 N48 1.329 . S
C45 H66 0.930 . S
C46 N44 1.334 . S
C46 C45 1.391 . S
C46 H53 0.930 . S
C47 N44 1.328 . S
C47 C49 1.392 . S
C47 H54 0.930 . S
N48 C45 1.329 . S
N48 C49 1.331 . S
C49 C47 1.392 . S
C49 N48 1.331 . S
O50 Zn43 1.975 . S
O50 C51 1.252 . S
C51 O50 1.252 . S
C51 O52 1.252 . S
O52 Zn34 1.975 . S
O52 C51 1.252 . S
H53 C46 0.930 . S
H54 C47 0.930 . S
C55 C56 1.392 . S
C55 N59 1.328 1_565 S
C55 H61 0.930 . S
C56 C55 1.392 . S
C56 N60 1.331 . S
C57 C58 1.391 1_565 S
C57 N60 1.329 . S
C57 H67 0.930 1_565 S
C58 C57 1.391 1_545 S
C58 N59 1.334 . S
C58 H65 0.930 . S
N59 Zn43 2.119 . S
N59 C55 1.328 1_545 S
N59 C58 1.334 . S
N60 C56 1.331 . S
N60 C57 1.329 . S
H61 C55 0.930 . S
C62 O42 1.257 . S
C62 O63 1.244 . S
O63 C62 1.244 . S
O64 C40 1.257 . S
O64 Zn43 2.019 . S
H65 C58 0.930 . S
H66 C45 0.930 . S
H67 C57 0.930 1_545 S
Zn68 N72 2.020 . S
Zn68 O76 2.019 . S
Zn68 N78 2.119 . S
Zn68 O86 1.975 . S
C69 N70 1.334 . S
C69 N73 1.336 . S
N70 C69 1.334 . S
N70 C71 1.334 . S
C71 N70 1.334 . S
C71 N72 1.336 . S
N72 Zn68 2.020 . S
N72 C71 1.336 . S
N72 N73 1.354 . S
N73 C69 1.336 . S
N73 N72 1.354 . S
N73 Zn77 2.020 . S
C74 O75 1.244 . S
C74 O98 1.257 . S
O75 C74 1.244 . S
O76 Zn68 2.019 . S
O76 C96 1.257 . S
Zn77 N73 2.020 . S
Zn77 O84 1.975 . S
Zn77 N93 2.119 . S
Zn77 O98 2.019 . S
N78 Zn68 2.119 . S
N78 C80 1.334 . S
N78 C81 1.328 1_655 S
C79 C80 1.391 1_455 S
C79 N82 1.329 . S
C79 H100 0.930 1_455 S
C80 N78 1.334 . S
C80 C79 1.391 1_655 S
C80 H87 0.930 . S
C81 N78 1.328 1_455 S
C81 C83 1.392 . S
C81 H88 0.930 . S
N82 C79 1.329 . S
N82 C83 1.331 . S
C83 C81 1.392 . S
C83 N82 1.331 . S
O84 Zn77 1.975 . S
O84 C85 1.252 . S
C85 O84 1.252 . S
C85 O86 1.252 . S
O86 Zn68 1.975 . S
O86 C85 1.252 . S
H87 C80 0.930 . S
H88 C81 0.930 . S
C89 C90 1.392 . S
C89 N93 1.328 . S
C89 H95 0.930 . S
C90 C89 1.392 . S
C90 N94 1.331 . S
C91 C92 1.391 . S
C91 N94 1.329 . S
C91 H101 0.930 . S
C92 C91 1.391 . S
C92 N93 1.334 . S
C92 H99 0.930 . S
N93 Zn77 2.119 . S
N93 C89 1.328 . S
N93 C92 1.334 . S
N94 C90 1.331 . S
N94 C91 1.329 . S
H95 C89 0.930 . S
C96 O76 1.257 . S
C96 O97 1.244 . S
O97 C96 1.244 . S
O98 C74 1.257 . S
O98 Zn77 2.019 . S
H99 C92 0.930 . S
H100 C79 0.930 1_655 S
H101 C91 0.930 . S
Zn102 N106 2.020 . S
Zn102 O110 2.019 . S
Zn102 N112 2.119 . S
Zn102 O120 1.975 . S
C103 N104 1.334 . S
C103 N107 1.336 . S
N104 C103 1.334 . S
N104 C105 1.334 . S
C105 N104 1.334 . S
C105 N106 1.336 . S
N106 Zn102 2.020 . S
N106 C105 1.336 . S
N106 N107 1.354 . S
N107 C103 1.336 . S
N107 N106 1.354 . S
N107 Zn111 2.020 . S
C108 O109 1.244 . S
C108 O132 1.257 . S
O109 C108 1.244 . S
O110 Zn102 2.019 . S
O110 C130 1.257 . S
Zn111 N107 2.020 . S
Zn111 O118 1.975 . S
Zn111 N127 2.119 . S
Zn111 O132 2.019 . S
N112 Zn102 2.119 . S
N112 C114 1.334 . S
N112 C115 1.328 . S
C113 C114 1.391 . S
C113 N116 1.329 . S
C113 H134 0.930 . S
C114 N112 1.334 . S
C114 C113 1.391 . S
C114 H121 0.930 . S
C115 N112 1.328 . S
C115 C117 1.392 . S
C115 H122 0.930 . S
N116 C113 1.329 . S
N116 C117 1.331 . S
C117 C115 1.392 . S
C117 N116 1.331 . S
O118 Zn111 1.975 . S
O118 C119 1.252 . S
C119 O118 1.252 . S
C119 O120 1.252 . S
O120 Zn102 1.975 . S
O120 C119 1.252 . S
H121 C114 0.930 . S
H122 C115 0.930 . S
C123 C124 1.392 . S
C123 N127 1.328 . S
C123 H129 0.930 . S
C124 C123 1.392 . S
C124 N128 1.331 . S
C125 C126 1.391 . S
C125 N128 1.329 . S
C125 H135 0.930 . S
C126 C125 1.391 . S
C126 N127 1.334 . S
C126 H133 0.930 . S
N127 Zn111 2.119 . S
N127 C123 1.328 . S
N127 C126 1.334 . S
N128 C124 1.331 . S
N128 C125 1.329 . S
H129 C123 0.930 . S
C130 O110 1.257 . S
C130 O131 1.244 . S
O131 C130 1.244 . S
O132 C108 1.257 . S
O132 Zn111 2.019 . S
H133 C126 0.930 . S
H134 C113 0.930 . S
H135 C125 0.930 . S
Zn136 N140 2.020 . S
Zn136 O144 2.019 . S
Zn136 N146 2.119 . S
Zn136 O154 1.975 . S
C137 N138 1.334 . S
C137 N141 1.336 . S
N138 C137 1.334 . S
N138 C139 1.334 . S
C139 N138 1.334 . S
C139 N140 1.336 . S
N140 Zn136 2.020 . S
N140 C139 1.336 . S
N140 N141 1.354 . S
N141 C137 1.336 . S
N141 N140 1.354 . S
N141 Zn145 2.020 . S
C142 O143 1.244 . S
C142 O166 1.257 . S
O143 C142 1.244 . S
O144 Zn136 2.019 . S
O144 C164 1.257 . S
Zn145 N141 2.020 . S
Zn145 O152 1.975 . S
Zn145 N161 2.119 . S
Zn145 O166 2.019 . S
N146 Zn136 2.119 . S
N146 C148 1.334 . S
N146 C149 1.328 . S
C147 C148 1.391 . S
C147 N150 1.329 . S
C147 H168 0.930 . S
C148 N146 1.334 . S
C148 C147 1.391 . S
C148 H155 0.930 . S
C149 N146 1.328 . S
C149 C151 1.392 . S
C149 H156 0.930 . S
N150 C147 1.329 . S
N150 C151 1.331 . S
C151 C149 1.392 . S
C151 N150 1.331 . S
O152 Zn145 1.975 . S
O152 C153 1.252 . S
C153 O152 1.252 . S
C153 O154 1.252 . S
O154 Zn136 1.975 . S
O154 C153 1.252 . S
H155 C148 0.930 . S
H156 C149 0.930 . S
C157 C158 1.392 . S
C157 N161 1.328 1_545 S
C157 H163 0.930 . S
C158 C157 1.392 . S
C158 N162 1.331 . S
C159 C160 1.391 1_545 S
C159 N162 1.329 . S
C159 H169 0.930 1_545 S
C160 C159 1.391 1_565 S
C160 N161 1.334 . S
C160 H167 0.930 . S
N161 Zn145 2.119 . S
N161 C157 1.328 1_565 S
N161 C160 1.334 . S
N162 C158 1.331 . S
N162 C159 1.329 . S
H163 C157 0.930 . S
C164 O144 1.257 . S
C164 O165 1.244 . S
O165 C164 1.244 . S
O166 C142 1.257 . S
O166 Zn145 2.019 . S
H167 C160 0.930 . S
H168 C147 0.930 . S
H169 C159 0.930 1_565 S
Zn170 N174 2.020 . S
Zn170 O178 2.019 . S
Zn170 N180 2.119 . S
Zn170 O188 1.975 . S
C171 N172 1.334 . S
C171 N175 1.336 . S
N172 C171 1.334 . S
N172 C173 1.334 . S
C173 N172 1.334 . S
C173 N174 1.336 . S
N174 Zn170 2.020 . S
N174 C173 1.336 . S
N174 N175 1.354 . S
N175 C171 1.336 . S
N175 N174 1.354 . S
N175 Zn179 2.020 . S
C176 O177 1.244 . S
C176 O200 1.257 . S
O177 C176 1.244 . S
O178 Zn170 2.019 . S
O178 C198 1.257 . S
Zn179 N175 2.020 . S
Zn179 O186 1.975 . S
Zn179 N195 2.119 . S
Zn179 O200 2.019 . S
N180 Zn170 2.119 . S
N180 C182 1.334 . S
N180 C183 1.328 . S
C181 C182 1.391 . S
C181 N184 1.329 . S
C181 H202 0.930 . S
C182 N180 1.334 . S
C182 C181 1.391 . S
C182 H189 0.930 . S
C183 N180 1.328 . S
C183 C185 1.392 . S
C183 H190 0.930 . S
N184 C181 1.329 . S
N184 C185 1.331 . S
C185 C183 1.392 . S
C185 N184 1.331 . S
O186 Zn179 1.975 . S
O186 C187 1.252 . S
C187 O186 1.252 . S
C187 O188 1.252 . S
O188 Zn170 1.975 . S
O188 C187 1.252 . S
H189 C182 0.930 . S
H190 C183 0.930 . S
C191 C192 1.392 . S
C191 N195 1.328 1_655 S
C191 H197 0.930 . S
C192 C191 1.392 . S
C192 N196 1.331 . S
C193 C194 1.391 1_655 S
C193 N196 1.329 . S
C193 H203 0.930 1_655 S
C194 C193 1.391 1_455 S
C194 N195 1.334 . S
C194 H201 0.930 . S
N195 Zn179 2.119 . S
N195 C191 1.328 1_455 S
N195 C194 1.334 . S
N196 C192 1.331 . S
N196 C193 1.329 . S
H197 C191 0.930 . S
C198 O178 1.257 . S
C198 O199 1.244 . S
O199 C198 1.244 . S
O200 C176 1.257 . S
O200 Zn179 2.019 . S
H201 C194 0.930 . S
H202 C181 0.930 . S
H203 C193 0.930 1_455 S
Zn204 N208 2.020 . S
Zn204 O212 2.019 . S
Zn204 N214 2.119 . S
Zn204 O222 1.975 . S
C205 N206 1.334 . S
C205 N209 1.336 . S
N206 C205 1.334 . S
N206 C207 1.334 . S
C207 N206 1.334 . S
C207 N208 1.336 . S
N208 Zn204 2.020 . S
N208 C207 1.336 . S
N208 N209 1.354 . S
N209 C205 1.336 . S
N209 N208 1.354 . S
N209 Zn213 2.020 . S
C210 O211 1.244 . S
C210 O234 1.257 . S
O211 C210 1.244 . S
O212 Zn204 2.019 . S
O212 C232 1.257 . S
Zn213 N209 2.020 . S
Zn213 O220 1.975 . S
Zn213 N229 2.119 . S
Zn213 O234 2.019 . S
N214 Zn204 2.119 . S
N214 C216 1.334 . S
N214 C217 1.328 . S
C215 C216 1.391 . S
C215 N218 1.329 . S
C215 H236 0.930 . S
C216 N214 1.334 . S
C216 C215 1.391 . S
C216 H223 0.930 . S
C217 N214 1.328 . S
C217 C219 1.392 . S
C217 H224 0.930 . S
N218 C215 1.329 . S
N218 C219 1.331 . S
C219 C217 1.392 . S
C219 N218 1.331 . S
O220 Zn213 1.975 . S
O220 C221 1.252 . S
C221 O220 1.252 . S
C221 O222 1.252 . S
O222 Zn204 1.975 . S
O222 C221 1.252 . S
H223 C216 0.930 . S
H224 C217 0.930 . S
C225 C226 1.392 1_655 S
C225 N229 1.328 . S
C225 H231 0.930 . S
C226 C225 1.392 1_455 S
C226 N230 1.331 . S
C227 C228 1.391 1_455 S
C227 N230 1.329 . S
C227 H237 0.930 . S
C228 C227 1.391 1_655 S
C228 N229 1.334 . S
C228 H235 0.930 . S
N229 Zn213 2.119 . S
N229 C225 1.328 . S
N229 C228 1.334 . S
N230 C226 1.331 . S
N230 C227 1.329 . S
H231 C225 0.930 . S
C232 O212 1.257 . S
C232 O233 1.244 . S
O233 C232 1.244 . S
O234 C210 1.257 . S
O234 Zn213 2.019 . S
H235 C228 0.930 . S
H236 C215 0.930 . S
H237 C227 0.930 . S
Zn238 N242 2.020 . S
Zn238 O246 2.019 . S
Zn238 N248 2.119 . S
Zn238 O256 1.975 . S
C239 N240 1.334 . S
C239 N243 1.336 . S
N240 C239 1.334 . S
N240 C241 1.334 . S
C241 N240 1.334 . S
C241 N242 1.336 . S
N242 Zn238 2.020 . S
N242 C241 1.336 . S
N242 N243 1.354 . S
N243 C239 1.336 . S
N243 N242 1.354 . S
N243 Zn247 2.020 . S
C244 O245 1.244 . S
C244 O268 1.257 . S
O245 C244 1.244 . S
O246 Zn238 2.019 . S
O246 C266 1.257 . S
Zn247 N243 2.020 . S
Zn247 O254 1.975 . S
Zn247 N263 2.119 . S
Zn247 O268 2.019 . S
N248 Zn238 2.119 . S
N248 C250 1.334 . S
N248 C251 1.328 . S
C249 C250 1.391 . S
C249 N252 1.329 . S
C249 H270 0.930 . S
C250 N248 1.334 . S
C250 C249 1.391 . S
C250 H257 0.930 . S
C251 N248 1.328 . S
C251 C253 1.392 . S
C251 H258 0.930 . S
N252 C249 1.329 . S
N252 C253 1.331 . S
C253 C251 1.392 . S
C253 N252 1.331 . S
O254 Zn247 1.975 . S
O254 C255 1.252 . S
C255 O254 1.252 . S
C255 O256 1.252 . S
O256 Zn238 1.975 . S
O256 C255 1.252 . S
H257 C250 0.930 . S
H258 C251 0.930 . S
C259 C260 1.392 . S
C259 N263 1.328 . S
C259 H265 0.930 . S
C260 C259 1.392 . S
C260 N264 1.331 . S
C261 C262 1.391 . S
C261 N264 1.329 . S
C261 H271 0.930 . S
C262 C261 1.391 . S
C262 N263 1.334 . S
C262 H269 0.930 . S
N263 Zn247 2.119 . S
N263 C259 1.328 . S
N263 C262 1.334 . S
N264 C260 1.331 . S
N264 C261 1.329 . S
H265 C259 0.930 . S
C266 O246 1.257 . S
C266 O267 1.244 . S
O267 C266 1.244 . S
O268 C244 1.257 . S
O268 Zn247 2.019 . S
H269 C262 0.930 . S
H270 C249 0.930 . S
H271 C261 0.930 . S
Zn272 N276 2.020 . S
Zn272 O280 2.019 . S
Zn272 N282 2.119 . S
Zn272 O290 1.975 . S
C273 N274 1.334 . S
C273 N277 1.336 . S
N274 C273 1.334 . S
N274 C275 1.334 . S
C275 N274 1.334 . S
C275 N276 1.336 . S
N276 Zn272 2.020 . S
N276 C275 1.336 . S
N276 N277 1.354 . S
N277 C273 1.336 . S
N277 N276 1.354 . S
N277 Zn281 2.020 . S
C278 O279 1.244 . S
C278 O302 1.257 . S
O279 C278 1.244 . S
O280 Zn272 2.019 . S
O280 C300 1.257 . S
Zn281 N277 2.020 . S
Zn281 O288 1.975 . S
Zn281 N297 2.119 . S
Zn281 O302 2.019 . S
N282 Zn272 2.119 . S
N282 C284 1.334 . S
N282 C285 1.328 . S
C283 C284 1.391 . S
C283 N286 1.329 . S
C283 H304 0.930 . S
C284 N282 1.334 . S
C284 C283 1.391 . S
C284 H291 0.930 . S
C285 N282 1.328 . S
C285 C287 1.392 . S
C285 H292 0.930 . S
N286 C283 1.329 . S
N286 C287 1.331 . S
C287 C285 1.392 . S
C287 N286 1.331 . S
O288 Zn281 1.975 . S
O288 C289 1.252 . S
C289 O288 1.252 . S
C289 O290 1.252 . S
O290 Zn272 1.975 . S
O290 C289 1.252 . S
H291 C284 0.930 . S
H292 C285 0.930 . S
C293 C294 1.392 1_545 S
C293 N297 1.328 . S
C293 H299 0.930 . S
C294 C293 1.392 1_565 S
C294 N298 1.331 . S
C295 C296 1.391 1_565 S
C295 N298 1.329 . S
C295 H305 0.930 . S
C296 C295 1.391 1_545 S
C296 N297 1.334 . S
C296 H303 0.930 . S
N297 Zn281 2.119 . S
N297 C293 1.328 . S
N297 C296 1.334 . S
N298 C294 1.331 . S
N298 C295 1.329 . S
H299 C293 0.930 . S
C300 O280 1.257 . S
C300 O301 1.244 . S
O301 C300 1.244 . S
O302 C278 1.257 . S
O302 Zn281 2.019 . S
H303 C296 0.930 . S
H304 C283 0.930 . S
H305 C295 0.930 . S
Zn306 N310 2.020 1_554 S
Zn306 O314 2.019 . S
Zn306 N316 2.119 1_554 S
Zn306 O324 1.975 . S
C307 N308 1.334 . S
C307 N311 1.336 . S
N308 C307 1.334 . S
N308 C309 1.334 . S
C309 N308 1.334 . S
C309 N310 1.336 . S
N310 Zn306 2.020 1_556 S
N310 C309 1.336 . S
N310 N311 1.354 . S
N311 C307 1.336 . S
N311 N310 1.354 . S
N311 Zn315 2.020 1_556 S
C312 O313 1.244 . S
C312 O336 1.257 1_556 S
O313 C312 1.244 . S
O314 Zn306 2.019 . S
O314 C334 1.257 . S
Zn315 N311 2.020 1_554 S
Zn315 O322 1.975 . S
Zn315 N331 2.119 . S
Zn315 O336 2.019 . S
N316 Zn306 2.119 1_556 S
N316 C318 1.334 . S
N316 C319 1.328 . S
C317 C318 1.391 . S
C317 N320 1.329 . S
C317 H338 0.930 . S
C318 N316 1.334 . S
C318 C317 1.391 . S
C318 H325 0.930 . S
C319 N316 1.328 . S
C319 C321 1.392 . S
C319 H326 0.930 1_556 S
N320 C317 1.329 . S
N320 C321 1.331 . S
C321 C319 1.392 . S
C321 N320 1.331 . S
O322 Zn315 1.975 . S
O322 C323 1.252 . S
C323 O322 1.252 . S
C323 O324 1.252 . S
O324 Zn306 1.975 . S
O324 C323 1.252 . S
H325 C318 0.930 . S
H326 C319 0.930 1_554 S
C327 C328 1.392 . S
C327 N331 1.328 . S
C327 H333 0.930 . S
C328 C327 1.392 . S
C328 N332 1.331 . S
C329 C330 1.391 . S
C329 N332 1.329 . S
C329 H339 0.930 . S
C330 C329 1.391 . S
C330 N331 1.334 . S
C330 H337 0.930 . S
N331 Zn315 2.119 . S
N331 C327 1.328 . S
N331 C330 1.334 . S
N332 C328 1.331 . S
N332 C329 1.329 . S
H333 C327 0.930 . S
C334 O314 1.257 . S
C334 O335 1.244 . S
O335 C334 1.244 . S
O336 C312 1.257 1_554 S
O336 Zn315 2.019 . S
H337 C330 0.930 . S
H338 C317 0.930 . S
H339 C329 0.930 . S
Zn340 N344 2.020 1_554 S
Zn340 O348 2.019 . S
Zn340 N350 2.119 . S
Zn340 O358 1.975 . S
C341 N342 1.334 . S
C341 N345 1.336 . S
N342 C341 1.334 . S
N342 C343 1.334 . S
C343 N342 1.334 . S
C343 N344 1.336 . S
N344 Zn340 2.020 1_556 S
N344 C343 1.336 . S
N344 N345 1.354 . S
N345 C341 1.336 . S
N345 N344 1.354 . S
N345 Zn349 2.020 1_556 S
C346 O347 1.244 . S
C346 O370 1.257 . S
O347 C346 1.244 . S
O348 Zn340 2.019 . S
O348 C368 1.257 1_554 S
Zn349 N345 2.020 1_554 S
Zn349 O356 1.975 . S
Zn349 N365 2.119 1_554 S
Zn349 O370 2.019 . S
N350 Zn340 2.119 . S
N350 C352 1.334 . S
N350 C353 1.328 . S
C351 C352 1.391 . S
C351 N354 1.329 . S
C351 H372 0.930 . S
C352 N350 1.334 . S
C352 C351 1.391 . S
C352 H359 0.930 . S
C353 N350 1.328 . S
C353 C355 1.392 . S
C353 H360 0.930 . S
N354 C351 1.329 . S
N354 C355 1.331 . S
C355 C353 1.392 . S
C355 N354 1.331 . S
O356 Zn349 1.975 . S
O356 C357 1.252 . S
C357 O356 1.252 . S
C357 O358 1.252 . S
O358 Zn340 1.975 . S
O358 C357 1.252 . S
H359 C352 0.930 . S
H360 C353 0.930 . S
C361 C362 1.392 . S
C361 N365 1.328 . S
C361 H367 0.930 1_556 S
C362 C361 1.392 . S
C362 N366 1.331 . S
C363 C364 1.391 . S
C363 N366 1.329 . S
C363 H373 0.930 . S
C364 C363 1.391 . S
C364 N365 1.334 . S
C364 H371 0.930 . S
N365 Zn349 2.119 1_556 S
N365 C361 1.328 . S
N365 C364 1.334 . S
N366 C362 1.331 . S
N366 C363 1.329 . S
H367 C361 0.930 1_554 S
C368 O348 1.257 1_556 S
C368 O369 1.244 . S
O369 C368 1.244 . S
O370 C346 1.257 . S
O370 Zn349 2.019 . S
H371 C364 0.930 . S
H372 C351 0.930 . S
H373 C363 0.930 . S
Zn374 N378 2.020 1_554 S
Zn374 O382 2.019 . S
Zn374 N384 2.119 . S
Zn374 O392 1.975 . S
C375 N376 1.334 . S
C375 N379 1.336 . S
N376 C375 1.334 . S
N376 C377 1.334 . S
C377 N376 1.334 . S
C377 N378 1.336 . S
N378 Zn374 2.020 1_556 S
N378 C377 1.336 . S
N378 N379 1.354 . S
N379 C375 1.336 . S
N379 N378 1.354 . S
N379 Zn383 2.020 1_556 S
C380 O381 1.244 . S
C380 O404 1.257 . S
O381 C380 1.244 . S
O382 Zn374 2.019 . S
O382 C402 1.257 1_554 S
Zn383 N379 2.020 1_554 S
Zn383 O390 1.975 . S
Zn383 N399 2.119 1_554 S
Zn383 O404 2.019 . S
N384 Zn374 2.119 . S
N384 C386 1.334 . S
N384 C387 1.328 . S
C385 C386 1.391 . S
C385 N388 1.329 . S
C385 H406 0.930 . S
C386 N384 1.334 . S
C386 C385 1.391 . S
C386 H393 0.930 . S
C387 N384 1.328 . S
C387 C389 1.392 . S
C387 H394 0.930 . S
N388 C385 1.329 . S
N388 C389 1.331 . S
C389 C387 1.392 . S
C389 N388 1.331 . S
O390 Zn383 1.975 . S
O390 C391 1.252 . S
C391 O390 1.252 . S
C391 O392 1.252 . S
O392 Zn374 1.975 . S
O392 C391 1.252 . S
H393 C386 0.930 . S
H394 C387 0.930 . S
C395 C396 1.392 . S
C395 N399 1.328 . S
C395 H401 0.930 1_556 S
C396 C395 1.392 . S
C396 N400 1.331 . S
C397 C398 1.391 . S
C397 N400 1.329 . S
C397 H407 0.930 . S
C398 C397 1.391 . S
C398 N399 1.334 . S
C398 H405 0.930 . S
N399 Zn383 2.119 1_556 S
N399 C395 1.328 . S
N399 C398 1.334 . S
N400 C396 1.331 . S
N400 C397 1.329 . S
H401 C395 0.930 1_554 S
C402 O382 1.257 1_556 S
C402 O403 1.244 . S
O403 C402 1.244 . S
O404 C380 1.257 . S
O404 Zn383 2.019 . S
H405 C398 0.930 . S
H406 C385 0.930 . S
H407 C397 0.930 . S
Zn408 N412 2.020 1_556 S
Zn408 O416 2.019 . S
Zn408 N418 2.119 . S
Zn408 O426 1.975 . S
C409 N410 1.334 . S
C409 N413 1.336 . S
N410 C409 1.334 . S
N410 C411 1.334 . S
C411 N410 1.334 . S
C411 N412 1.336 . S
N412 Zn408 2.020 1_554 S
N412 C411 1.336 . S
N412 N413 1.354 . S
N413 C409 1.336 . S
N413 N412 1.354 . S
N413 Zn417 2.020 1_554 S
C414 O415 1.244 . S
C414 O438 1.257 . S
O415 C414 1.244 . S
O416 Zn408 2.019 . S
O416 C436 1.257 1_556 S
Zn417 N413 2.020 1_556 S
Zn417 O424 1.975 . S
Zn417 N433 2.119 1_556 S
Zn417 O438 2.019 . S
N418 Zn408 2.119 . S
N418 C420 1.334 . S
N418 C421 1.328 . S
C419 C420 1.391 . S
C419 N422 1.329 . S
C419 H440 0.930 . S
C420 N418 1.334 . S
C420 C419 1.391 . S
C420 H427 0.930 . S
C421 N418 1.328 . S
C421 C423 1.392 . S
C421 H428 0.930 . S
N422 C419 1.329 . S
N422 C423 1.331 . S
C423 C421 1.392 . S
C423 N422 1.331 . S
O424 Zn417 1.975 . S
O424 C425 1.252 . S
C425 O424 1.252 . S
C425 O426 1.252 . S
O426 Zn408 1.975 . S
O426 C425 1.252 . S
H427 C420 0.930 . S
H428 C421 0.930 . S
C429 C430 1.392 . S
C429 N433 1.328 . S
C429 H435 0.930 1_554 S
C430 C429 1.392 . S
C430 N434 1.331 . S
C431 C432 1.391 . S
C431 N434 1.329 . S
C431 H441 0.930 . S
C432 C431 1.391 . S
C432 N433 1.334 . S
C432 H439 0.930 . S
N433 Zn417 2.119 1_554 S
N433 C429 1.328 . S
N433 C432 1.334 . S
N434 C430 1.331 . S
N434 C431 1.329 . S
H435 C429 0.930 1_556 S
C436 O416 1.257 1_554 S
C436 O437 1.244 . S
O437 C436 1.244 . S
O438 C414 1.257 . S
O438 Zn417 2.019 . S
H439 C432 0.930 . S
H440 C419 0.930 . S
H441 C431 0.930 . S
Zn442 N446 2.020 1_556 S
Zn442 O450 2.019 . S
Zn442 N452 2.119 1_556 S
Zn442 O460 1.975 . S
C443 N444 1.334 . S
C443 N447 1.336 . S
N444 C443 1.334 . S
N444 C445 1.334 . S
C445 N444 1.334 . S
C445 N446 1.336 . S
N446 Zn442 2.020 1_554 S
N446 C445 1.336 . S
N446 N447 1.354 . S
N447 C443 1.336 . S
N447 N446 1.354 . S
N447 Zn451 2.020 1_554 S
C448 O449 1.244 . S
C448 O472 1.257 1_554 S
O449 C448 1.244 . S
O450 Zn442 2.019 . S
O450 C470 1.257 . S
Zn451 N447 2.020 1_556 S
Zn451 O458 1.975 . S
Zn451 N467 2.119 . S
Zn451 O472 2.019 . S
N452 Zn442 2.119 1_554 S
N452 C454 1.334 . S
N452 C455 1.328 . S
C453 C454 1.391 . S
C453 N456 1.329 . S
C453 H474 0.930 . S
C454 N452 1.334 . S
C454 C453 1.391 . S
C454 H461 0.930 . S
C455 N452 1.328 . S
C455 C457 1.392 . S
C455 H462 0.930 1_554 S
N456 C453 1.329 . S
N456 C457 1.331 . S
C457 C455 1.392 . S
C457 N456 1.331 . S
O458 Zn451 1.975 . S
O458 C459 1.252 . S
C459 O458 1.252 . S
C459 O460 1.252 . S
O460 Zn442 1.975 . S
O460 C459 1.252 . S
H461 C454 0.930 . S
H462 C455 0.930 1_556 S
C463 C464 1.392 . S
C463 N467 1.328 . S
C463 H469 0.930 . S
C464 C463 1.392 . S
C464 N468 1.331 . S
C465 C466 1.391 . S
C465 N468 1.329 . S
C465 H475 0.930 . S
C466 C465 1.391 . S
C466 N467 1.334 . S
C466 H473 0.930 . S
N467 Zn451 2.119 . S
N467 C463 1.328 . S
N467 C466 1.334 . S
N468 C464 1.331 . S
N468 C465 1.329 . S
H469 C463 0.930 . S
C470 O450 1.257 . S
C470 O471 1.244 . S
O471 C470 1.244 . S
O472 C448 1.257 1_556 S
O472 Zn451 2.019 . S
H473 C466 0.930 . S
H474 C453 0.930 . S
H475 C465 0.930 . S
Zn476 N480 2.020 1_556 S
Zn476 O484 2.019 . S
Zn476 N486 2.119 1_556 S
Zn476 O494 1.975 . S
C477 N478 1.334 . S
C477 N481 1.336 . S
N478 C477 1.334 . S
N478 C479 1.334 . S
C479 N478 1.334 . S
C479 N480 1.336 . S
N480 Zn476 2.020 1_554 S
N480 C479 1.336 . S
N480 N481 1.354 . S
N481 C477 1.336 . S
N481 N480 1.354 . S
N481 Zn485 2.020 1_554 S
C482 O483 1.244 . S
C482 O506 1.257 1_554 S
O483 C482 1.244 . S
O484 Zn476 2.019 . S
O484 C504 1.257 . S
Zn485 N481 2.020 1_556 S
Zn485 O492 1.975 . S
Zn485 N501 2.119 . S
Zn485 O506 2.019 . S
N486 Zn476 2.119 1_554 S
N486 C488 1.334 . S
N486 C489 1.328 . S
C487 C488 1.391 . S
C487 N490 1.329 . S
C487 H508 0.930 . S
C488 N486 1.334 . S
C488 C487 1.391 . S
C488 H495 0.930 . S
C489 N486 1.328 . S
C489 C491 1.392 . S
C489 H496 0.930 1_554 S
N490 C487 1.329 . S
N490 C491 1.331 . S
C491 C489 1.392 . S
C491 N490 1.331 . S
O492 Zn485 1.975 . S
O492 C493 1.252 . S
C493 O492 1.252 . S
C493 O494 1.252 . S
O494 Zn476 1.975 . S
O494 C493 1.252 . S
H495 C488 0.930 . S
H496 C489 0.930 1_556 S
C497 C498 1.392 . S
C497 N501 1.328 . S
C497 H503 0.930 . S
C498 C497 1.392 . S
C498 N502 1.331 . S
C499 C500 1.391 . S
C499 N502 1.329 . S
C499 H509 0.930 . S
C500 C499 1.391 . S
C500 N501 1.334 . S
C500 H507 0.930 . S
N501 Zn485 2.119 . S
N501 C497 1.328 . S
N501 C500 1.334 . S
N502 C498 1.331 . S
N502 C499 1.329 . S
H503 C497 0.930 . S
C504 O484 1.257 . S
C504 O505 1.244 . S
O505 C504 1.244 . S
O506 C482 1.257 1_556 S
O506 Zn485 2.019 . S
H507 C500 0.930 . S
H508 C487 0.930 . S
H509 C499 0.930 . S
Zn510 N514 2.020 . S
Zn510 O518 2.019 . S
Zn510 N520 2.119 . S
Zn510 O528 1.975 . S
C511 N512 1.334 . S
C511 N515 1.336 . S
N512 C511 1.334 . S
N512 C513 1.334 . S
C513 N512 1.334 . S
C513 N514 1.336 . S
N514 Zn510 2.020 . S
N514 C513 1.336 . S
N514 N515 1.354 . S
N515 C511 1.336 . S
N515 N514 1.354 . S
N515 Zn519 2.020 . S
C516 O517 1.244 . S
C516 O540 1.257 . S
O517 C516 1.244 . S
O518 Zn510 2.019 . S
O518 C538 1.257 . S
Zn519 N515 2.020 . S
Zn519 O526 1.975 . S
Zn519 N535 2.119 . S
Zn519 O540 2.019 . S
N520 Zn510 2.119 . S
N520 C522 1.334 . S
N520 C523 1.328 . S
C521 C522 1.391 1_545 S
C521 N524 1.329 . S
C521 H542 0.930 . S
C522 N520 1.334 . S
C522 C521 1.391 1_565 S
C522 H529 0.930 . S
C523 N520 1.328 . S
C523 C525 1.392 1_565 S
C523 H530 0.930 . S
N524 C521 1.329 . S
N524 C525 1.331 . S
C525 C523 1.392 1_545 S
C525 N524 1.331 . S
O526 Zn519 1.975 . S
O526 C527 1.252 . S
C527 O526 1.252 . S
C527 O528 1.252 . S
O528 Zn510 1.975 . S
O528 C527 1.252 . S
H529 C522 0.930 . S
H530 C523 0.930 . S
C531 C532 1.392 . S
C531 N535 1.328 . S
C531 H537 0.930 . S
C532 C531 1.392 . S
C532 N536 1.331 . S
C533 C534 1.391 . S
C533 N536 1.329 . S
C533 H543 0.930 . S
C534 C533 1.391 . S
C534 N535 1.334 . S
C534 H541 0.930 . S
N535 Zn519 2.119 . S
N535 C531 1.328 . S
N535 C534 1.334 . S
N536 C532 1.331 . S
N536 C533 1.329 . S
H537 C531 0.930 . S
C538 O518 1.257 . S
C538 O539 1.244 . S
O539 C538 1.244 . S
O540 C516 1.257 . S
O540 Zn519 2.019 . S
H541 C534 0.930 . S
H542 C521 0.930 . S
H543 C533 0.930 . S
Zn544 N548 2.020 . S
Zn544 O552 2.019 . S
Zn544 N554 2.119 . S
Zn544 O562 1.975 . S
C545 N546 1.334 . S
C545 N549 1.336 . S
N546 C545 1.334 . S
N546 C547 1.334 . S
C547 N546 1.334 . S
C547 N548 1.336 . S
N548 Zn544 2.020 . S
N548 C547 1.336 . S
N548 N549 1.354 . S
N549 C545 1.336 . S
N549 N548 1.354 . S
N549 Zn553 2.020 . S
C550 O551 1.244 . S
C550 O574 1.257 . S
O551 C550 1.244 . S
O552 Zn544 2.019 . S
O552 C572 1.257 . S
Zn553 N549 2.020 . S
Zn553 O560 1.975 . S
Zn553 N569 2.119 . S
Zn553 O574 2.019 . S
N554 Zn544 2.119 . S
N554 C556 1.334 . S
N554 C557 1.328 . S
C555 C556 1.391 . S
C555 N558 1.329 . S
C555 H576 0.930 . S
C556 N554 1.334 . S
C556 C555 1.391 . S
C556 H563 0.930 . S
C557 N554 1.328 . S
C557 C559 1.392 . S
C557 H564 0.930 . S
N558 C555 1.329 . S
N558 C559 1.331 . S
C559 C557 1.392 . S
C559 N558 1.331 . S
O560 Zn553 1.975 . S
O560 C561 1.252 . S
C561 O560 1.252 . S
C561 O562 1.252 . S
O562 Zn544 1.975 . S
O562 C561 1.252 . S
H563 C556 0.930 . S
H564 C557 0.930 . S
C565 C566 1.392 1_455 S
C565 N569 1.328 . S
C565 H571 0.930 . S
C566 C565 1.392 1_655 S
C566 N570 1.331 . S
C567 C568 1.391 1_655 S
C567 N570 1.329 . S
C567 H577 0.930 . S
C568 C567 1.391 1_455 S
C568 N569 1.334 . S
C568 H575 0.930 . S
N569 Zn553 2.119 . S
N569 C565 1.328 . S
N569 C568 1.334 . S
N570 C566 1.331 . S
N570 C567 1.329 . S
H571 C565 0.930 . S
C572 O552 1.257 . S
C572 O573 1.244 . S
O573 C572 1.244 . S
O574 C550 1.257 . S
O574 Zn553 2.019 . S
H575 C568 0.930 . S
H576 C555 0.930 . S
H577 C567 0.930 . S
Zn578 N582 2.020 . S
Zn578 O586 2.019 . S
Zn578 N588 2.119 . S
Zn578 O596 1.975 . S
C579 N580 1.334 . S
C579 N583 1.336 . S
N580 C579 1.334 . S
N580 C581 1.334 . S
C581 N580 1.334 . S
C581 N582 1.336 . S
N582 Zn578 2.020 . S
N582 C581 1.336 . S
N582 N583 1.354 . S
N583 C579 1.336 . S
N583 N582 1.354 . S
N583 Zn587 2.020 . S
C584 O585 1.244 . S
C584 O608 1.257 . S
O585 C584 1.244 . S
O586 Zn578 2.019 . S
O586 C606 1.257 . S
Zn587 N583 2.020 . S
Zn587 O594 1.975 . S
Zn587 N603 2.119 . S
Zn587 O608 2.019 . S
N588 Zn578 2.119 . S
N588 C590 1.334 . S
N588 C591 1.328 . S
C589 C590 1.391 . S
C589 N592 1.329 . S
C589 H610 0.930 . S
C590 N588 1.334 . S
C590 C589 1.391 . S
C590 H597 0.930 . S
C591 N588 1.328 . S
C591 C593 1.392 . S
C591 H598 0.930 . S
N592 C589 1.329 . S
N592 C593 1.331 . S
C593 C591 1.392 . S
C593 N592 1.331 . S
O594 Zn587 1.975 . S
O594 C595 1.252 . S
C595 O594 1.252 . S
C595 O596 1.252 . S
O596 Zn578 1.975 . S
O596 C595 1.252 . S
H597 C590 0.930 . S
H598 C591 0.930 . S
C599 C600 1.392 . S
C599 N603 1.328 . S
C599 H605 0.930 . S
C600 C599 1.392 . S
C600 N604 1.331 . S
C601 C602 1.391 . S
C601 N604 1.329 . S
C601 H611 0.930 . S
C602 C601 1.391 . S
C602 N603 1.334 . S
C602 H609 0.930 . S
N603 Zn587 2.119 . S
N603 C599 1.328 . S
N603 C602 1.334 . S
N604 C600 1.331 . S
N604 C601 1.329 . S
H605 C599 0.930 . S
C606 O586 1.257 . S
C606 O607 1.244 . S
O607 C606 1.244 . S
O608 C584 1.257 . S
O608 Zn587 2.019 . S
H609 C602 0.930 . S
H610 C589 0.930 . S
H611 C601 0.930 . S
C612 C613 1.387 . S
C612 H616 0.950 . S
C612 C621 1.390 . S
C613 C612 1.387 . S
C613 C615 1.387 . S
H614 C621 0.950 . S
C615 C613 1.387 . S
C615 C617 1.390 . S
C615 H619 0.950 . S
H616 C612 0.950 . S
C617 C615 1.390 . S
C617 C618 1.387 . S
C617 H620 0.950 . S
C618 C617 1.387 . S
C618 C621 1.387 . S
H619 C615 0.950 . S
H620 C617 0.950 . S
C621 C612 1.390 . S
C621 H614 0.950 . S
C621 C618 1.387 . S
C622 C623 1.387 . S
C622 H626 0.950 . S
C622 C631 1.390 . S
C623 C622 1.387 . S
C623 C625 1.387 . S
H624 C631 0.950 . S
C625 C623 1.387 . S
C625 C627 1.390 . S
C625 H629 0.950 . S
H626 C622 0.950 . S
C627 C625 1.390 . S
C627 C628 1.387 . S
C627 H630 0.950 . S
C628 C627 1.387 . S
C628 C631 1.387 . S
H629 C625 0.950 . S
H630 C627 0.950 . S
C631 C622 1.390 . S
C631 H624 0.950 . S
C631 C628 1.387 . S
C632 C633 1.387 . S
C632 H636 0.950 . S
C632 C641 1.390 . S
C633 C632 1.387 . S
C633 C635 1.387 . S
H634 C641 0.950 . S
C635 C633 1.387 . S
C635 C637 1.390 . S
C635 H639 0.950 . S
H636 C632 0.950 . S
C637 C635 1.390 . S
C637 C638 1.387 . S
C637 H640 0.950 . S
C638 C637 1.387 . S
C638 C641 1.387 . S
H639 C635 0.950 . S
H640 C637 0.950 . S
C641 C632 1.390 . S
C641 H634 0.950 . S
C641 C638 1.387 . S
C642 C643 1.387 . S
C642 H646 0.950 . S
C642 C651 1.390 . S
C643 C642 1.387 . S
C643 C645 1.387 . S
H644 C651 0.950 . S
C645 C643 1.387 . S
C645 C647 1.390 . S
C645 H649 0.950 . S
H646 C642 0.950 . S
C647 C645 1.390 . S
C647 C648 1.387 . S
C647 H650 0.950 . S
C648 C647 1.387 . S
C648 C651 1.387 . S
H649 C645 0.950 . S
H650 C647 0.950 . S
C651 C642 1.390 . S
C651 H644 0.950 . S
C651 C648 1.387 . S
C652 C653 1.387 . S
C652 H656 0.950 . S
C652 C661 1.390 . S
C653 C652 1.387 . S
C653 C655 1.387 . S
H654 C661 0.950 . S
C655 C653 1.387 . S
C655 C657 1.390 . S
C655 H659 0.950 . S
H656 C652 0.950 . S
C657 C655 1.390 . S
C657 C658 1.387 . S
C657 H660 0.950 . S
C658 C657 1.387 . S
C658 C661 1.387 . S
H659 C655 0.950 . S
H660 C657 0.950 . S
C661 C652 1.390 . S
C661 H654 0.950 . S
C661 C658 1.387 . S
C662 C663 1.387 . S
C662 H666 0.950 . S
C662 C671 1.390 . S
C663 C662 1.387 . S
C663 C665 1.387 . S
H664 C671 0.950 . S
C665 C663 1.387 . S
C665 C667 1.390 . S
C665 H669 0.950 . S
H666 C662 0.950 . S
C667 C665 1.390 . S
C667 C668 1.387 . S
C667 H670 0.950 . S
C668 C667 1.387 . S
C668 C671 1.387 . S
H669 C665 0.950 . S
H670 C667 0.950 . S
C671 C662 1.390 . S
C671 H664 0.950 . S
C671 C668 1.387 . S
C672 C673 1.387 . S
C672 H676 0.950 . S
C672 C681 1.390 1_455 S
C673 C672 1.387 . S
C673 C675 1.387 . S
H674 C681 0.950 . S
C675 C673 1.387 . S
C675 C677 1.390 1_455 S
C675 H679 0.950 . S
H676 C672 0.950 . S
C677 C675 1.390 1_655 S
C677 C678 1.387 . S
C677 H680 0.950 . S
C678 C677 1.387 . S
C678 C681 1.387 . S
H679 C675 0.950 . S
H680 C677 0.950 . S
C681 C672 1.390 1_655 S
C681 H674 0.950 . S
C681 C678 1.387 . S
C682 C683 1.387 . S
C682 H686 0.950 . S
C682 C691 1.390 . S
C683 C682 1.387 . S
C683 C685 1.387 . S
H684 C691 0.950 . S
C685 C683 1.387 . S
C685 C687 1.390 . S
C685 H689 0.950 . S
H686 C682 0.950 . S
C687 C685 1.390 . S
C687 C688 1.387 . S
C687 H690 0.950 . S
C688 C687 1.387 . S
C688 C691 1.387 . S
H689 C685 0.950 . S
H690 C687 0.950 . S
C691 C682 1.390 . S
C691 H684 0.950 . S
C691 C688 1.387 . S
C692 C693 1.387 . S
C692 H696 0.950 . S
C692 C701 1.390 1_545 S
C693 C692 1.387 . S
C693 C695 1.387 . S
H694 C701 0.950 . S
C695 C693 1.387 . S
C695 C697 1.390 1_545 S
C695 H699 0.950 . S
H696 C692 0.950 . S
C697 C695 1.390 1_565 S
C697 C698 1.387 . S
C697 H700 0.950 . S
C698 C697 1.387 . S
C698 C701 1.387 . S
H699 C695 0.950 . S
H700 C697 0.950 . S
C701 C692 1.390 1_565 S
C701 H694 0.950 . S
C701 C698 1.387 . S
C702 C703 1.387 . S
C702 H706 0.950 . S
C702 C711 1.390 1_545 S
C703 C702 1.387 . S
C703 C705 1.387 . S
H704 C711 0.950 . S
C705 C703 1.387 . S
C705 C707 1.390 1_545 S
C705 H709 0.950 . S
H706 C702 0.950 . S
C707 C705 1.390 1_565 S
C707 C708 1.387 . S
C707 H710 0.950 . S
C708 C707 1.387 . S
C708 C711 1.387 . S
H709 C705 0.950 . S
H710 C707 0.950 . S
C711 C702 1.390 1_565 S
C711 H704 0.950 . S
C711 C708 1.387 . S
C712 C713 1.387 1_655 S
C712 H716 0.950 . S
C712 C721 1.390 . S
C713 C712 1.387 1_455 S
C713 C715 1.387 . S
H714 C721 0.950 . S
C715 C713 1.387 . S
C715 C717 1.390 . S
C715 H719 0.950 . S
H716 C712 0.950 . S
C717 C715 1.390 . S
C717 C718 1.387 1_455 S
C717 H720 0.950 . S
C718 C717 1.387 1_655 S
C718 C721 1.387 . S
H719 C715 0.950 . S
H720 C717 0.950 . S
C721 C712 1.390 . S
C721 H714 0.950 . S
C721 C718 1.387 . S
C722 C723 1.387 . S
C722 H726 0.950 . S
C722 C731 1.390 . S
C723 C722 1.387 . S
C723 C725 1.387 . S
H724 C731 0.950 . S
C725 C723 1.387 . S
C725 C727 1.390 . S
C725 H729 0.950 . S
H726 C722 0.950 . S
C727 C725 1.390 . S
C727 C728 1.387 . S
C727 H730 0.950 . S
C728 C727 1.387 . S
C728 C731 1.387 . S
H729 C725 0.950 . S
H730 C727 0.950 . S
C731 C722 1.390 . S
C731 H724 0.950 . S
C731 C728 1.387 . S
C732 C733 1.387 . S
C732 H736 0.950 . S
C732 C741 1.390 1_545 S
C733 C732 1.387 . S
C733 C735 1.387 . S
H734 C741 0.950 . S
C735 C733 1.387 . S
C735 C737 1.390 1_545 S
C735 H739 0.950 . S
H736 C732 0.950 . S
C737 C735 1.390 1_565 S
C737 C738 1.387 . S
C737 H740 0.950 . S
C738 C737 1.387 . S
C738 C741 1.387 . S
H739 C735 0.950 . S
H740 C737 0.950 . S
C741 C732 1.390 1_565 S
C741 H734 0.950 . S
C741 C738 1.387 . S
C742 C743 1.387 . S
C742 H746 0.950 . S
C742 C751 1.390 1_455 S
C743 C742 1.387 . S
C743 C745 1.387 . S
H744 C751 0.950 . S
C745 C743 1.387 . S
C745 C747 1.390 1_455 S
C745 H749 0.950 . S
H746 C742 0.950 . S
C747 C745 1.390 1_655 S
C747 C748 1.387 . S
C747 H750 0.950 . S
C748 C747 1.387 . S
C748 C751 1.387 . S
H749 C745 0.950 . S
H750 C747 0.950 . S
C751 C742 1.390 1_655 S
C751 H744 0.950 . S
C751 C748 1.387 . S
C752 C753 1.387 . S
C752 H756 0.950 . S
C752 C761 1.390 . S
C753 C752 1.387 . S
C753 C755 1.387 . S
H754 C761 0.950 . S
C755 C753 1.387 . S
C755 C757 1.390 . S
C755 H759 0.950 . S
H756 C752 0.950 . S
C757 C755 1.390 . S
C757 C758 1.387 . S
C757 H760 0.950 . S
C758 C757 1.387 . S
C758 C761 1.387 . S
H759 C755 0.950 . S
H760 C757 0.950 . S
C761 C752 1.390 . S
C761 H754 0.950 . S
C761 C758 1.387 . S
C762 C763 1.387 . S
C762 H766 0.950 . S
C762 C771 1.390 . S
C763 C762 1.387 . S
C763 C765 1.387 . S
H764 C771 0.950 . S
C765 C763 1.387 . S
C765 C767 1.390 . S
C765 H769 0.950 . S
H766 C762 0.950 . S
C767 C765 1.390 . S
C767 C768 1.387 . S
C767 H770 0.950 . S
C768 C767 1.387 . S
C768 C771 1.387 . S
H769 C765 0.950 . S
H770 C767 0.950 . S
C771 C762 1.390 . S
C771 H764 0.950 . S
C771 C768 1.387 . S
C772 C773 1.387 . S
C772 H776 0.950 . S
C772 C781 1.390 . S
C773 C772 1.387 . S
C773 C775 1.387 . S
H774 C781 0.950 . S
C775 C773 1.387 . S
C775 C777 1.390 . S
C775 H779 0.950 . S
H776 C772 0.950 . S
C777 C775 1.390 . S
C777 C778 1.387 . S
C777 H780 0.950 . S
C778 C777 1.387 . S
C778 C781 1.387 . S
H779 C775 0.950 . S
H780 C777 0.950 . S
C781 C772 1.390 . S
C781 H774 0.950 . S
C781 C778 1.387 . S
C782 C783 1.387 . S
C782 H786 0.950 . S
C782 C791 1.390 . S
C783 C782 1.387 . S
C783 C785 1.387 . S
H784 C791 0.950 . S
C785 C783 1.387 . S
C785 C787 1.390 . S
C785 H789 0.950 . S
H786 C782 0.950 . S
C787 C785 1.390 . S
C787 C788 1.387 . S
C787 H790 0.950 . S
C788 C787 1.387 . S
C788 C791 1.387 . S
H789 C785 0.950 . S
H790 C787 0.950 . S
C791 C782 1.390 . S
C791 H784 0.950 . S
C791 C788 1.387 . S
C792 C793 1.387 . S
C792 H796 0.950 . S
C792 C801 1.390 . S
C793 C792 1.387 . S
C793 C795 1.387 . S
H794 C801 0.950 . S
C795 C793 1.387 . S
C795 C797 1.390 . S
C795 H799 0.950 . S
H796 C792 0.950 . S
C797 C795 1.390 . S
C797 C798 1.387 . S
C797 H800 0.950 . S
C798 C797 1.387 . S
C798 C801 1.387 . S
H799 C795 0.950 . S
H800 C797 0.950 . S
C801 C792 1.390 . S
C801 H794 0.950 . S
C801 C798 1.387 . S
C802 C803 1.387 . S
C802 H806 0.950 . S
C802 C811 1.390 . S
C803 C802 1.387 . S
C803 C805 1.387 . S
H804 C811 0.950 . S
C805 C803 1.387 . S
C805 C807 1.390 . S
C805 H809 0.950 . S
H806 C802 0.950 . S
C807 C805 1.390 . S
C807 C808 1.387 . S
C807 H810 0.950 . S
C808 C807 1.387 . S
C808 C811 1.387 . S
H809 C805 0.950 . S
H810 C807 0.950 . S
C811 C802 1.390 . S
C811 H804 0.950 . S
C811 C808 1.387 . S
C812 C813 1.387 . S
C812 H816 0.950 . S
C812 C821 1.390 . S
C813 C812 1.387 . S
C813 C815 1.387 . S
H814 C821 0.950 . S
C815 C813 1.387 . S
C815 C817 1.390 . S
C815 H819 0.950 . S
H816 C812 0.950 . S
C817 C815 1.390 . S
C817 C818 1.387 . S
C817 H820 0.950 . S
C818 C817 1.387 . S
C818 C821 1.387 . S
H819 C815 0.950 . S
H820 C817 0.950 . S
C821 C812 1.390 . S
C821 H814 0.950 . S
C821 C818 1.387 . S
C822 C823 1.387 . S
C822 H826 0.950 . S
C822 C831 1.390 . S
C823 C822 1.387 . S
C823 C825 1.387 . S
H824 C831 0.950 . S
C825 C823 1.387 . S
C825 C827 1.390 . S
C825 H829 0.950 . S
H826 C822 0.950 . S
C827 C825 1.390 . S
C827 C828 1.387 . S
C827 H830 0.950 . S
C828 C827 1.387 . S
C828 C831 1.387 . S
H829 C825 0.950 . S
H830 C827 0.950 . S
C831 C822 1.390 . S
C831 H824 0.950 . S
C831 C828 1.387 . S
C832 C833 1.387 . S
C832 H836 0.950 . S
C832 C841 1.390 . S
C833 C832 1.387 . S
C833 C835 1.387 . S
H834 C841 0.950 . S
C835 C833 1.387 . S
C835 C837 1.390 . S
C835 H839 0.950 . S
H836 C832 0.950 . S
C837 C835 1.390 . S
C837 C838 1.387 . S
C837 H840 0.950 . S
C838 C837 1.387 . S
C838 C841 1.387 . S
H839 C835 0.950 . S
H840 C837 0.950 . S
C841 C832 1.390 . S
C841 H834 0.950 . S
C841 C838 1.387 . S
C842 C843 1.387 . S
C842 H846 0.950 . S
C842 C851 1.390 . S
C843 C842 1.387 . S
C843 C845 1.387 . S
H844 C851 0.950 . S
C845 C843 1.387 . S
C845 C847 1.390 . S
C845 H849 0.950 . S
H846 C842 0.950 . S
C847 C845 1.390 . S
C847 C848 1.387 . S
C847 H850 0.950 . S
C848 C847 1.387 . S
C848 C851 1.387 . S
H849 C845 0.950 . S
H850 C847 0.950 . S
C851 C842 1.390 . S
C851 H844 0.950 . S
C851 C848 1.387 . S
C852 C853 1.387 . S
C852 H856 0.950 . S
C852 C861 1.390 . S
C853 C852 1.387 . S
C853 C855 1.387 . S
H854 C861 0.950 . S
C855 C853 1.387 . S
C855 C857 1.390 . S
C855 H859 0.950 . S
H856 C852 0.950 . S
C857 C855 1.390 . S
C857 C858 1.387 . S
C857 H860 0.950 . S
C858 C857 1.387 . S
C858 C861 1.387 . S
H859 C855 0.950 . S
H860 C857 0.950 . S
C861 C852 1.390 . S
C861 H854 0.950 . S
C861 C858 1.387 . S
C862 C863 1.387 . S
C862 H866 0.950 . S
C862 C871 1.390 . S
C863 C862 1.387 . S
C863 C865 1.387 . S
H864 C871 0.950 . S
C865 C863 1.387 . S
C865 C867 1.390 . S
C865 H869 0.950 . S
H866 C862 0.950 . S
C867 C865 1.390 . S
C867 C868 1.387 . S
C867 H870 0.950 . S
C868 C867 1.387 . S
C868 C871 1.387 . S
H869 C865 0.950 . S
H870 C867 0.950 . S
C871 C862 1.390 . S
C871 H864 0.950 . S
C871 C868 1.387 . S
C872 C873 1.387 . S
C872 H876 0.950 . S
C872 C881 1.390 . S
C873 C872 1.387 . S
C873 C875 1.387 . S
H874 C881 0.950 . S
C875 C873 1.387 . S
C875 C877 1.390 . S
C875 H879 0.950 . S
H876 C872 0.950 . S
C877 C875 1.390 . S
C877 C878 1.387 . S
C877 H880 0.950 . S
C878 C877 1.387 . S
C878 C881 1.387 . S
H879 C875 0.950 . S
H880 C877 0.950 . S
C881 C872 1.390 . S
C881 H874 0.950 . S
C881 C878 1.387 . S
C882 C883 1.387 . S
C882 H886 0.950 . S
C882 C891 1.390 . S
C883 C882 1.387 . S
C883 C885 1.387 . S
H884 C891 0.950 . S
C885 C883 1.387 . S
C885 C887 1.390 . S
C885 H889 0.950 . S
H886 C882 0.950 . S
C887 C885 1.390 . S
C887 C888 1.387 . S
C887 H890 0.950 . S
C888 C887 1.387 . S
C888 C891 1.387 . S
H889 C885 0.950 . S
H890 C887 0.950 . S
C891 C882 1.390 . S
C891 H884 0.950 . S
C891 C888 1.387 . S
C892 C893 1.387 . S
C892 H896 0.950 . S
C892 C901 1.390 . S
C893 C892 1.387 . S
C893 C895 1.387 . S
H894 C901 0.950 . S
C895 C893 1.387 . S
C895 C897 1.390 . S
C895 H899 0.950 . S
H896 C892 0.950 . S
C897 C895 1.390 . S
C897 C898 1.387 . S
C897 H900 0.950 . S
C898 C897 1.387 . S
C898 C901 1.387 . S
H899 C895 0.950 . S
H900 C897 0.950 . S
C901 C892 1.390 . S
C901 H894 0.950 . S
C901 C898 1.387 . S
C902 C903 1.387 . S
C902 H906 0.950 . S
C902 C911 1.390 . S
C903 C902 1.387 . S
C903 C905 1.387 . S
H904 C911 0.950 . S
C905 C903 1.387 . S
C905 C907 1.390 . S
C905 H909 0.950 . S
H906 C902 0.950 . S
C907 C905 1.390 . S
C907 C908 1.387 . S
C907 H910 0.950 . S
C908 C907 1.387 . S
C908 C911 1.387 . S
H909 C905 0.950 . S
H910 C907 0.950 . S
C911 C902 1.390 . S
C911 H904 0.950 . S
C911 C908 1.387 . S
C912 C913 1.387 . S
C912 H916 0.950 . S
C912 C921 1.390 . S
C913 C912 1.387 . S
C913 C915 1.387 . S
H914 C921 0.950 . S
C915 C913 1.387 . S
C915 C917 1.390 . S
C915 H919 0.950 . S
H916 C912 0.950 . S
C917 C915 1.390 . S
C917 C918 1.387 . S
C917 H920 0.950 . S
C918 C917 1.387 . S
C918 C921 1.387 . S
H919 C915 0.950 . S
H920 C917 0.950 . S
C921 C912 1.390 . S
C921 H914 0.950 . S
C921 C918 1.387 . S
C922 C923 1.387 . S
C922 H926 0.950 . S
C922 C931 1.390 . S
C923 C922 1.387 . S
C923 C925 1.387 . S
H924 C931 0.950 . S
C925 C923 1.387 . S
C925 C927 1.390 . S
C925 H929 0.950 . S
H926 C922 0.950 . S
C927 C925 1.390 . S
C927 C928 1.387 . S
C927 H930 0.950 . S
C928 C927 1.387 . S
C928 C931 1.387 . S
H929 C925 0.950 . S
H930 C927 0.950 . S
C931 C922 1.390 . S
C931 H924 0.950 . S
C931 C928 1.387 . S
C932 C933 1.387 . S
C932 H936 0.950 . S
C932 C941 1.390 . S
C933 C932 1.387 . S
C933 C935 1.387 . S
H934 C941 0.950 . S
C935 C933 1.387 . S
C935 C937 1.390 . S
C935 H939 0.950 . S
H936 C932 0.950 . S
C937 C935 1.390 . S
C937 C938 1.387 . S
C937 H940 0.950 . S
C938 C937 1.387 . S
C938 C941 1.387 . S
H939 C935 0.950 . S
H940 C937 0.950 . S
C941 C932 1.390 . S
C941 H934 0.950 . S
C941 C938 1.387 . S
C942 C943 1.387 . S
C942 H946 0.950 . S
C942 C951 1.390 . S
C943 C942 1.387 . S
C943 C945 1.387 . S
H944 C951 0.950 . S
C945 C943 1.387 . S
C945 C947 1.390 . S
C945 H949 0.950 . S
H946 C942 0.950 . S
C947 C945 1.390 . S
C947 C948 1.387 . S
C947 H950 0.950 . S
C948 C947 1.387 . S
C948 C951 1.387 . S
H949 C945 0.950 . S
H950 C947 0.950 . S
C951 C942 1.390 . S
C951 H944 0.950 . S
C951 C948 1.387 . S
C952 C953 1.387 . S
C952 H956 0.950 . S
C952 C961 1.390 . S
C953 C952 1.387 . S
C953 C955 1.387 . S
H954 C961 0.950 . S
C955 C953 1.387 . S
C955 C957 1.390 . S
C955 H959 0.950 . S
H956 C952 0.950 . S
C957 C955 1.390 . S
C957 C958 1.387 . S
C957 H960 0.950 . S
C958 C957 1.387 . S
C958 C961 1.387 . S
H959 C955 0.950 . S
H960 C957 0.950 . S
C961 C952 1.390 . S
C961 H954 0.950 . S
C961 C958 1.387 . S
C962 C963 1.387 . S
C962 H966 0.950 . S
C962 C971 1.390 . S
C963 C962 1.387 . S
C963 C965 1.387 . S
H964 C971 0.950 . S
C965 C963 1.387 . S
C965 C967 1.390 . S
C965 H969 0.950 . S
H966 C962 0.950 . S
C967 C965 1.390 . S
C967 C968 1.387 . S
C967 H970 0.950 . S
C968 C967 1.387 . S
C968 C971 1.387 . S
H969 C965 0.950 . S
H970 C967 0.950 . S
C971 C962 1.390 . S
C971 H964 0.950 . S
C971 C968 1.387 . S
C972 C973 1.387 . S
C972 H976 0.950 . S
C972 C981 1.390 . S
C973 C972 1.387 . S
C973 C975 1.387 . S
H974 C981 0.950 . S
C975 C973 1.387 . S
C975 C977 1.390 . S
C975 H979 0.950 1_554 S
H976 C972 0.950 . S
C977 C975 1.390 . S
C977 C978 1.387 . S
C977 H980 0.950 1_554 S
C978 C977 1.387 . S
C978 C981 1.387 . S
H979 C975 0.950 1_556 S
H980 C977 0.950 1_556 S
C981 C972 1.390 . S
C981 H974 0.950 . S
C981 C978 1.387 . S
C982 C983 1.387 . S
C982 H986 0.950 1_554 S
C982 C991 1.390 . S
C983 C982 1.387 . S
C983 C985 1.387 . S
H984 C991 0.950 1_556 S
C985 C983 1.387 . S
C985 C987 1.390 . S
C985 H989 0.950 . S
H986 C982 0.950 1_556 S
C987 C985 1.390 . S
C987 C988 1.387 . S
C987 H990 0.950 . S
C988 C987 1.387 . S
C988 C991 1.387 . S
H989 C985 0.950 . S
H990 C987 0.950 . S
C991 C982 1.390 . S
C991 H984 0.950 1_554 S
C991 C988 1.387 . S
C992 C993 1.387 . S
C992 H996 0.950 1_554 S
C992 C1001 1.390 . S
C993 C992 1.387 . S
C993 C995 1.387 . S
H994 C1001 0.950 1_556 S
C995 C993 1.387 . S
C995 C997 1.390 . S
C995 H999 0.950 . S
H996 C992 0.950 1_556 S
C997 C995 1.390 . S
C997 C998 1.387 . S
C997 H1000 0.950 . S
C998 C997 1.387 . S
C998 C1001 1.387 . S
H999 C995 0.950 . S
H1000 C997 0.950 . S
C1001 C992 1.390 . S
C1001 H994 0.950 1_554 S
C1001 C998 1.387 . S
C1002 C1003 1.387 . S
C1002 H1006 0.950 1_556 S
C1002 C1011 1.390 . S
C1003 C1002 1.387 . S
C1003 C1005 1.387 . S
H1004 C1011 0.950 1_554 S
C1005 C1003 1.387 . S
C1005 C1007 1.390 . S
C1005 H1009 0.950 . S
H1006 C1002 0.950 1_554 S
C1007 C1005 1.390 . S
C1007 C1008 1.387 . S
C1007 H1010 0.950 . S
C1008 C1007 1.387 . S
C1008 C1011 1.387 . S
H1009 C1005 0.950 . S
H1010 C1007 0.950 . S
C1011 C1002 1.390 . S
C1011 H1004 0.950 1_556 S
C1011 C1008 1.387 . S
C1012 C1013 1.387 . S
C1012 H1016 0.950 . S
C1012 C1021 1.390 . S
C1013 C1012 1.387 . S
C1013 C1015 1.387 . S
H1014 C1021 0.950 . S
C1015 C1013 1.387 . S
C1015 C1017 1.390 . S
C1015 H1019 0.950 1_556 S
H1016 C1012 0.950 . S
C1017 C1015 1.390 . S
C1017 C1018 1.387 . S
C1017 H1020 0.950 1_556 S
C1018 C1017 1.387 . S
C1018 C1021 1.387 . S
H1019 C1015 0.950 1_554 S
H1020 C1017 0.950 1_554 S
C1021 C1012 1.390 . S
C1021 H1014 0.950 . S
C1021 C1018 1.387 . S
C1022 C1023 1.387 . S
C1022 H1026 0.950 1_556 S
C1022 C1031 1.390 . S
C1023 C1022 1.387 . S
C1023 C1025 1.387 . S
H1024 C1031 0.950 1_554 S
C1025 C1023 1.387 . S
C1025 C1027 1.390 . S
C1025 H1029 0.950 . S
H1026 C1022 0.950 1_554 S
C1027 C1025 1.390 . S
C1027 C1028 1.387 . S
C1027 H1030 0.950 . S
C1028 C1027 1.387 . S
C1028 C1031 1.387 . S
H1029 C1025 0.950 . S
H1030 C1027 0.950 . S
C1031 C1022 1.390 . S
C1031 H1024 0.950 1_556 S
C1031 C1028 1.387 . S
C1032 C1033 1.387 . S
C1032 H1036 0.950 . S
C1032 C1041 1.390 . S
C1033 C1032 1.387 . S
C1033 C1035 1.387 . S
H1034 C1041 0.950 . S
C1035 C1033 1.387 . S
C1035 C1037 1.390 . S
C1035 H1039 0.950 . S
H1036 C1032 0.950 . S
C1037 C1035 1.390 . S
C1037 C1038 1.387 . S
C1037 H1040 0.950 . S
C1038 C1037 1.387 . S
C1038 C1041 1.387 . S
H1039 C1035 0.950 . S
H1040 C1037 0.950 . S
C1041 C1032 1.390 . S
C1041 H1034 0.950 . S
C1041 C1038 1.387 . S
C1042 C1043 1.387 . S
C1042 H1046 0.950 . S
C1042 C1051 1.390 . S
C1043 C1042 1.387 . S
C1043 C1045 1.387 . S
H1044 C1051 0.950 . S
C1045 C1043 1.387 . S
C1045 C1047 1.390 . S
C1045 H1049 0.950 . S
H1046 C1042 0.950 . S
C1047 C1045 1.390 . S
C1047 C1048 1.387 . S
C1047 H1050 0.950 . S
C1048 C1047 1.387 . S
C1048 C1051 1.387 . S
H1049 C1045 0.950 . S
H1050 C1047 0.950 . S
C1051 C1042 1.390 . S
C1051 H1044 0.950 . S
C1051 C1048 1.387 . S
C1052 C1053 1.387 . S
C1052 H1056 0.950 . S
C1052 C1061 1.390 . S
C1053 C1052 1.387 . S
C1053 C1055 1.387 . S
H1054 C1061 0.950 . S
C1055 C1053 1.387 . S
C1055 C1057 1.390 . S
C1055 H1059 0.950 . S
H1056 C1052 0.950 . S
C1057 C1055 1.390 . S
C1057 C1058 1.387 . S
C1057 H1060 0.950 . S
C1058 C1057 1.387 . S
C1058 C1061 1.387 . S
H1059 C1055 0.950 . S
H1060 C1057 0.950 . S
C1061 C1052 1.390 . S
C1061 H1054 0.950 . S
C1061 C1058 1.387 . S
C1062 C1063 1.387 . S
C1062 H1066 0.950 . S
C1062 C1071 1.390 . S
C1063 C1062 1.387 . S
C1063 C1065 1.387 . S
H1064 C1071 0.950 . S
C1065 C1063 1.387 . S
C1065 C1067 1.390 . S
C1065 H1069 0.950 . S
H1066 C1062 0.950 . S
C1067 C1065 1.390 . S
C1067 C1068 1.387 . S
C1067 H1070 0.950 . S
C1068 C1067 1.387 . S
C1068 C1071 1.387 . S
H1069 C1065 0.950 . S
H1070 C1067 0.950 . S
C1071 C1062 1.390 . S
C1071 H1064 0.950 . S
C1071 C1068 1.387 . S
C1072 C1073 1.387 . S
C1072 H1076 0.950 . S
C1072 C1081 1.390 . S
C1073 C1072 1.387 . S
C1073 C1075 1.387 1_655 S
H1074 C1081 0.950 . S
C1075 C1073 1.387 1_455 S
C1075 C1077 1.390 1_455 S
C1075 H1079 0.950 . S
H1076 C1072 0.950 . S
C1077 C1075 1.390 1_655 S
C1077 C1078 1.387 . S
C1077 H1080 0.950 1_655 S
C1078 C1077 1.387 . S
C1078 C1081 1.387 . S
H1079 C1075 0.950 . S
H1080 C1077 0.950 1_455 S
C1081 C1072 1.390 . S
C1081 H1074 0.950 . S
C1081 C1078 1.387 . S
C1082 C1083 1.387 . S
C1082 H1086 0.950 . S
C1082 C1091 1.390 . S
C1083 C1082 1.387 . S
C1083 C1085 1.387 . S
H1084 C1091 0.950 . S
C1085 C1083 1.387 . S
C1085 C1087 1.390 . S
C1085 H1089 0.950 . S
H1086 C1082 0.950 . S
C1087 C1085 1.390 . S
C1087 C1088 1.387 . S
C1087 H1090 0.950 . S
C1088 C1087 1.387 . S
C1088 C1091 1.387 . S
H1089 C1085 0.950 . S
H1090 C1087 0.950 . S
C1091 C1082 1.390 . S
C1091 H1084 0.950 . S
C1091 C1088 1.387 . S
C1092 C1093 1.387 . S
C1092 H1096 0.950 . S
C1092 C1101 1.390 . S
C1093 C1092 1.387 . S
C1093 C1095 1.387 . S
H1094 C1101 0.950 . S
C1095 C1093 1.387 . S
C1095 C1097 1.390 . S
C1095 H1099 0.950 . S
H1096 C1092 0.950 . S
C1097 C1095 1.390 . S
C1097 C1098 1.387 . S
C1097 H1100 0.950 . S
C1098 C1097 1.387 . S
C1098 C1101 1.387 . S
H1099 C1095 0.950 . S
H1100 C1097 0.950 . S
C1101 C1092 1.390 . S
C1101 H1094 0.950 . S
C1101 C1098 1.387 . S
C1102 C1103 1.387 . S
C1102 H1106 0.950 . S
C1102 C1111 1.390 . S
C1103 C1102 1.387 . S
C1103 C1105 1.387 . S
H1104 C1111 0.950 . S
C1105 C1103 1.387 . S
C1105 C1107 1.390 . S
C1105 H1109 0.950 . S
H1106 C1102 0.950 . S
C1107 C1105 1.390 . S
C1107 C1108 1.387 . S
C1107 H1110 0.950 . S
C1108 C1107 1.387 . S
C1108 C1111 1.387 . S
H1109 C1105 0.950 . S
H1110 C1107 0.950 . S
C1111 C1102 1.390 . S
C1111 H1104 0.950 . S
C1111 C1108 1.387 . S
C1112 C1113 1.387 . S
C1112 H1116 0.950 . S
C1112 C1121 1.390 . S
C1113 C1112 1.387 . S
C1113 C1115 1.387 . S
H1114 C1121 0.950 . S
C1115 C1113 1.387 . S
C1115 C1117 1.390 . S
C1115 H1119 0.950 . S
H1116 C1112 0.950 . S
C1117 C1115 1.390 . S
C1117 C1118 1.387 . S
C1117 H1120 0.950 . S
C1118 C1117 1.387 . S
C1118 C1121 1.387 . S
H1119 C1115 0.950 . S
H1120 C1117 0.950 . S
C1121 C1112 1.390 . S
C1121 H1114 0.950 . S
C1121 C1118 1.387 . S
C1122 C1123 1.387 . S
C1122 H1126 0.950 . S
C1122 C1131 1.390 . S
C1123 C1122 1.387 . S
C1123 C1125 1.387 . S
H1124 C1131 0.958 . S
C1125 C1123 1.387 . S
C1125 C1127 1.390 1_565 S
C1125 H1129 0.950 . S
H1126 C1122 0.950 . S
C1127 C1125 1.390 1_545 S
C1127 C1128 1.387 . S
C1127 H1130 0.950 . S
C1128 C1127 1.387 . S
C1128 C1131 1.387 1_545 S
H1129 C1125 0.950 . S
H1130 C1127 0.950 . S
C1131 C1122 1.390 . S
C1131 H1124 0.958 . S
C1131 C1128 1.387 1_565 S
C1132 C1133 1.387 1_455 S
C1132 H1136 0.950 . S
C1132 C1141 1.390 . S
C1133 C1132 1.387 1_655 S
C1133 C1135 1.387 . S
H1134 C1141 0.950 . S
C1135 C1133 1.387 . S
C1135 C1137 1.390 . S
C1135 H1139 0.950 . S
H1136 C1132 0.950 . S
C1137 C1135 1.390 . S
C1137 C1138 1.387 1_655 S
C1137 H1140 0.950 . S
C1138 C1137 1.387 1_455 S
C1138 C1141 1.387 . S
H1139 C1135 0.950 . S
H1140 C1137 0.950 . S
C1141 C1132 1.390 . S
C1141 H1134 0.950 . S
C1141 C1138 1.387 . S
C1142 C1143 1.387 . S
C1142 H1146 0.950 . S
C1142 C1151 1.390 . S
C1143 C1142 1.387 . S
C1143 C1145 1.387 . S
H1144 C1151 0.950 . S
C1145 C1143 1.387 . S
C1145 C1147 1.390 . S
C1145 H1149 0.950 . S
H1146 C1142 0.950 . S
C1147 C1145 1.390 . S
C1147 C1148 1.387 . S
C1147 H1150 0.950 . S
C1148 C1147 1.387 . S
C1148 C1151 1.387 . S
H1149 C1145 0.950 . S
H1150 C1147 0.950 . S
C1151 C1142 1.390 . S
C1151 H1144 0.950 . S
C1151 C1148 1.387 . S
C1152 C1153 1.387 . S
C1152 H1156 0.950 . S
C1152 C1161 1.390 1_455 S
C1153 C1152 1.387 . S
C1153 C1155 1.387 . S
H1154 C1161 0.950 . S
C1155 C1153 1.387 . S
C1155 C1157 1.390 1_455 S
C1155 H1159 0.950 . S
H1156 C1152 0.950 . S
C1157 C1155 1.390 1_655 S
C1157 C1158 1.387 . S
C1157 H1160 0.950 . S
C1158 C1157 1.387 . S
C1158 C1161 1.387 . S
H1159 C1155 0.950 . S
H1160 C1157 0.950 . S
C1161 C1152 1.390 1_655 S
C1161 H1154 0.950 . S
C1161 C1158 1.387 . S
C1162 C1163 1.387 . S
C1162 H1166 0.950 . S
C1162 C1171 1.390 . S
C1163 C1162 1.387 . S
C1163 C1165 1.387 . S
H1164 C1171 0.950 . S
C1165 C1163 1.387 . S
C1165 C1167 1.390 . S
C1165 H1169 0.950 . S
H1166 C1162 0.950 . S
C1167 C1165 1.390 . S
C1167 C1168 1.387 . S
C1167 H1170 0.950 . S
C1168 C1167 1.387 . S
C1168 C1171 1.387 . S
H1169 C1165 0.950 . S
H1170 C1167 0.950 . S
C1171 C1162 1.390 . S
C1171 H1164 0.950 . S
C1171 C1168 1.387 . S
C1172 C1173 1.387 . S
C1172 H1176 0.950 . S
C1172 C1181 1.390 1_565 S
C1173 C1172 1.387 . S
C1173 C1175 1.386 1_565 S
H1174 C1181 0.950 . S
C1175 C1173 1.386 1_545 S
C1175 C1177 1.391 . S
C1175 H1179 0.952 1_545 S
H1176 C1172 0.950 . S
C1177 C1175 1.391 . S
C1177 C1178 1.387 . S
C1177 H1180 0.950 . S
C1178 C1177 1.387 . S
C1178 C1181 1.387 . S
H1179 C1175 0.952 1_565 S
H1180 C1177 0.950 . S
C1181 C1172 1.390 1_545 S
C1181 H1174 0.950 . S
C1181 C1178 1.387 . S
C1182 C1183 1.387 . S
C1182 H1186 0.950 . S
C1182 C1191 1.390 . S
C1183 C1182 1.387 . S
C1183 C1185 1.387 1_554 S
H1184 C1191 0.950 . S
C1185 C1183 1.387 1_556 S
C1185 C1187 1.390 . S
C1185 H1189 0.950 . S
H1186 C1182 0.950 . S
C1187 C1185 1.390 . S
C1187 C1188 1.387 . S
C1187 H1190 0.950 . S
C1188 C1187 1.387 . S
C1188 C1191 1.387 1_556 S
H1189 C1185 0.950 . S
H1190 C1187 0.950 . S
C1191 C1182 1.390 . S
C1191 H1184 0.950 . S
C1191 C1188 1.387 1_554 S
C1192 C1193 1.387 . S
C1192 H1196 0.950 . S
C1192 C1201 1.390 1_564 S
C1193 C1192 1.387 . S
C1193 C1195 1.387 . S
H1194 C1201 0.950 . S
C1195 C1193 1.387 . S
C1195 C1197 1.390 1_564 S
C1195 H1199 0.950 . S
H1196 C1192 0.950 . S
C1197 C1195 1.390 1_546 S
C1197 C1198 1.387 . S
C1197 H1200 0.950 . S
C1198 C1197 1.387 . S
C1198 C1201 1.387 . S
H1199 C1195 0.950 . S
H1200 C1197 0.950 . S
C1201 C1192 1.390 1_546 S
C1201 H1194 0.950 . S
C1201 C1198 1.387 . S
C1202 C1203 1.387 1_554 S
C1202 H1206 0.950 . S
C1202 C1211 1.390 1_655 S
C1203 C1202 1.387 1_556 S
C1203 C1205 1.387 . S
H1204 C1211 0.950 . S
C1205 C1203 1.387 . S
C1205 C1207 1.390 1_655 S
C1205 H1209 0.950 . S
H1206 C1202 0.950 . S
C1207 C1205 1.390 1_455 S
C1207 C1208 1.387 1_556 S
C1207 H1210 0.950 . S
C1208 C1207 1.387 1_554 S
C1208 C1211 1.387 . S
H1209 C1205 0.950 . S
H1210 C1207 0.950 . S
C1211 C1202 1.390 1_455 S
C1211 H1204 0.950 . S
C1211 C1208 1.387 . S
C1212 C1213 1.387 1_554 S
C1212 H1216 0.950 . S
C1212 C1221 1.390 . S
C1213 C1212 1.387 1_556 S
C1213 C1215 1.387 . S
H1214 C1221 0.950 . S
C1215 C1213 1.387 . S
C1215 C1217 1.390 . S
C1215 H1219 0.950 . S
H1216 C1212 0.950 . S
C1217 C1215 1.390 . S
C1217 C1218 1.387 1_556 S
C1217 H1220 0.950 . S
C1218 C1217 1.387 1_554 S
C1218 C1221 1.387 . S
H1219 C1215 0.950 . S
H1220 C1217 0.950 . S
C1221 C1212 1.390 . S
C1221 H1214 0.950 . S
C1221 C1218 1.387 . S
C1222 C1223 1.387 . S
C1222 H1226 0.950 . S
C1222 C1231 1.390 1_564 S
C1223 C1222 1.387 . S
C1223 C1225 1.387 . S
H1224 C1231 0.950 . S
C1225 C1223 1.387 . S
C1225 C1227 1.390 1_564 S
C1225 H1229 0.950 . S
H1226 C1222 0.950 . S
C1227 C1225 1.390 1_546 S
C1227 C1228 1.387 . S
C1227 H1230 0.950 . S
C1228 C1227 1.387 . S
C1228 C1231 1.387 . S
H1229 C1225 0.950 . S
H1230 C1227 0.950 . S
C1231 C1222 1.390 1_546 S
C1231 H1224 0.950 . S
C1231 C1228 1.387 . S
C1232 C1233 1.387 . S
C1232 H1236 0.950 . S
C1232 C1241 1.390 1_655 S
C1233 C1232 1.387 . S
C1233 C1235 1.387 1_556 S
H1234 C1241 0.950 . S
C1235 C1233 1.387 1_554 S
C1235 C1237 1.390 1_655 S
C1235 H1239 0.950 . S
H1236 C1232 0.950 . S
C1237 C1235 1.390 1_455 S
C1237 C1238 1.387 . S
C1237 H1240 0.950 . S
C1238 C1237 1.387 . S
C1238 C1241 1.387 1_554 S
H1239 C1235 0.950 . S
H1240 C1237 0.950 . S
C1241 C1232 1.390 1_455 S
C1241 H1234 0.950 . S
C1241 C1238 1.387 1_556 S
C613 C17 1.709 . S
C618 C357 1.706 . S
C623 C51 1.706 . S
C628 C391 1.703 . S
C633 C85 1.705 . S
C638 C323 1.702 . S
C643 C119 1.706 . S
C648 C493 1.703 . S
C653 C153 1.706 . S
C658 C425 1.703 . S
C663 C459 1.701 . S
C668 C187 1.708 . S
C673 C561 1.566 . S
C678 C221 1.567 . S
C683 C255 1.567 . S
C688 C595 1.567 . S
C693 C289 1.565 . S
C698 C527 1.565 . S
C703 C1 2.177 . S
C708 C173 2.177 . S
C713 C103 2.178 . S
C718 C37 2.179 . S
C723 C139 2.178 . S
C728 C69 2.179 . S
C733 C35 1.676 . S
C738 C137 1.676 . S
C743 C171 1.674 . S
C748 C71 1.674 . S
C753 C105 1.676 . S
C758 C3 1.675 . S
C763 C375 2.132 . S
C768 C205 2.133 . S
C773 C309 2.132 . S
C778 C241 2.133 . S
C783 C341 2.132 . S
C788 C273 2.132 . S
C793 C239 1.624 . S
C798 C343 1.615 . S
C803 C275 1.626 . S
C808 C377 1.616 . S
C813 C307 1.617 . S
C818 C207 1.623 . S
C823 C581 2.135 . S
C828 C409 2.131 . S
C833 C445 2.131 . S
C838 C513 2.132 . S
C843 C479 2.132 . S
C848 C545 2.133 . S
C853 C547 1.625 . S
C858 C443 1.617 . S
C863 C579 1.624 . S
C868 C477 1.618 . S
C873 C511 1.626 . S
C878 C411 1.616 . S
C883 C15 1.415 . S
C888 C62 1.638 1_455 S
C893 C74 1.638 . S
C898 C56 1.414 . S
C903 C83 1.414 . S
C908 C6 1.638 1_565 S
C913 C117 1.419 . S
C918 C198 1.636 1_545 S
C923 C158 1.419 . S
C928 C108 1.637 1_655 S
C933 C192 1.413 . S
C938 C164 1.638 . S
C943 C266 1.640 . S
C948 C219 1.419 . S
C953 C260 1.416 . S
C958 C278 1.641 . S
C963 C210 1.641 . S
C968 C287 1.417 . S
C973 C328 1.402 . S
C978 C380 1.618 . S
C983 C334 1.620 . S
C988 C355 1.396 . S
C993 C389 1.396 . S
C998 C346 1.620 . S
C1003 C470 1.620 . S
C1008 C423 1.396 . S
C1013 C504 1.618 . S
C1018 C464 1.402 . S
C1023 C414 1.620 . S
C1028 C498 1.396 . S
C1033 C606 1.640 . S
C1038 C532 1.422 . S
C1043 C538 1.640 . S
C1048 C559 1.422 . S
C1053 C600 1.417 . S
C1058 C550 1.641 . S
C1063 C22 0.826 . S
C1068 C525 0.829 . S
C1073 C566 0.828 . S
C1078 C49 0.829 . S
C1083 C593 0.830 . S
C1088 C90 0.826 . S
C1093 C124 0.826 . S
C1098 C226 0.829 . S
C1103 C253 0.829 . S
C1108 C151 0.828 . S
C1113 C294 0.830 . S
C1118 C185 0.827 . S
C1123 C142 1.213 . S
C1128 C300 1.214 . S
C1133 C232 1.214 . S
C1138 C176 1.214 . S
C1143 C130 1.214 . S
C1148 C244 1.214 . S
C1153 C572 1.214 . S
C1158 C96 1.214 . S
C1163 C28 1.214 . S
C1168 C584 1.214 . S
C1173 C516 1.214 . S
C1178 C40 1.214 . S
C1183 C430 0.844 . S
C1188 C321 0.847 . S
C1193 C457 0.847 . S
C1198 C362 0.847 . S
C1203 C396 0.847 . S
C1208 C491 0.844 . S
C1213 C368 1.214 . S
C1218 C482 1.213 . S
C1223 C436 1.213 . S
C1228 C402 1.213 . S
C1233 C312 1.214 . S
C1238 C448 1.214 . S
