# Generated by pormake.
# Topology gan, (5)-cn, num edge types: 1
# Building blocks:
#     Node 0, Type 0, BuildingBlock: BEQFEK_clean_sbu_0, # of connection points: 5
#     Node 1, Type 0, BuildingBlock: BEQFEK_clean_sbu_0, # of connection points: 5
#     Node 2, Type 0, BuildingBlock: BEQFEK_clean_sbu_0, # of connection points: 5
#     Node 3, Type 0, BuildingBlock: BEQFEK_clean_sbu_0, # of connection points: 5
#     Node 4, Type 0, BuildingBlock: BEQFEK_clean_sbu_0, # of connection points: 5
#     Node 5, Type 0, BuildingBlock: BEQFEK_clean_sbu_0, # of connection points: 5
#     Node 6, Type 0, BuildingBlock: BEQFEK_clean_sbu_0, # of connection points: 5
#     Node 7, Type 0, BuildingBlock: BEQFEK_clean_sbu_0, # of connection points: 5
#     Node 8, Type 0, BuildingBlock: BEQFEK_clean_sbu_0, # of connection points: 5
#     Node 9, Type 0, BuildingBlock: BEQFEK_clean_sbu_0, # of connection points: 5
#     Node 10, Type 0, BuildingBlock: BEQFEK_clean_sbu_0, # of connection points: 5
#     Node 11, Type 0, BuildingBlock: BEQFEK_clean_sbu_0, # of connection points: 5
#     Node 12, Type 0, BuildingBlock: BEQFEK_clean_sbu_0, # of connection points: 5
#     Node 13, Type 0, BuildingBlock: BEQFEK_clean_sbu_0, # of connection points: 5
#     Node 14, Type 0, BuildingBlock: BEQFEK_clean_sbu_0, # of connection points: 5
#     Node 15, Type 0, BuildingBlock: BEQFEK_clean_sbu_0, # of connection points: 5
#     Edge 16, Type (0, 0), BuildingBlock: OJICUG_clean_linker_0, # of connection points: 2
#     Edge 17, Type (0, 0), BuildingBlock: OJICUG_clean_linker_0, # of connection points: 2
#     Edge 18, Type (0, 0), BuildingBlock: OJICUG_clean_linker_0, # of connection points: 2
#     Edge 19, Type (0, 0), BuildingBlock: OJICUG_clean_linker_0, # of connection points: 2
#     Edge 20, Type (0, 0), BuildingBlock: OJICUG_clean_linker_0, # of connection points: 2
#     Edge 21, Type (0, 0), BuildingBlock: OJICUG_clean_linker_0, # of connection points: 2
#     Edge 22, Type (0, 0), BuildingBlock: OJICUG_clean_linker_0, # of connection points: 2
#     Edge 23, Type (0, 0), BuildingBlock: OJICUG_clean_linker_0, # of connection points: 2
#     Edge 24, Type (0, 0), BuildingBlock: OJICUG_clean_linker_0, # of connection points: 2
#     Edge 25, Type (0, 0), BuildingBlock: OJICUG_clean_linker_0, # of connection points: 2
#     Edge 26, Type (0, 0), BuildingBlock: OJICUG_clean_linker_0, # of connection points: 2
#     Edge 27, Type (0, 0), BuildingBlock: OJICUG_clean_linker_0, # of connection points: 2
#     Edge 28, Type (0, 0), BuildingBlock: OJICUG_clean_linker_0, # of connection points: 2
#     Edge 29, Type (0, 0), BuildingBlock: OJICUG_clean_linker_0, # of connection points: 2
#     Edge 30, Type (0, 0), BuildingBlock: OJICUG_clean_linker_0, # of connection points: 2
#     Edge 31, Type (0, 0), BuildingBlock: OJICUG_clean_linker_0, # of connection points: 2
#     Edge 32, Type (0, 0), BuildingBlock: OJICUG_clean_linker_0, # of connection points: 2
#     Edge 33, Type (0, 0), BuildingBlock: OJICUG_clean_linker_0, # of connection points: 2
#     Edge 34, Type (0, 0), BuildingBlock: OJICUG_clean_linker_0, # of connection points: 2
#     Edge 35, Type (0, 0), BuildingBlock: OJICUG_clean_linker_0, # of connection points: 2
#     Edge 36, Type (0, 0), BuildingBlock: OJICUG_clean_linker_0, # of connection points: 2
#     Edge 37, Type (0, 0), BuildingBlock: OJICUG_clean_linker_0, # of connection points: 2
#     Edge 38, Type (0, 0), BuildingBlock: OJICUG_clean_linker_0, # of connection points: 2
#     Edge 39, Type (0, 0), BuildingBlock: OJICUG_clean_linker_0, # of connection points: 2
#     Edge 40, Type (0, 0), BuildingBlock: OJICUG_clean_linker_0, # of connection points: 2
#     Edge 41, Type (0, 0), BuildingBlock: OJICUG_clean_linker_0, # of connection points: 2
#     Edge 42, Type (0, 0), BuildingBlock: OJICUG_clean_linker_0, # of connection points: 2
#     Edge 43, Type (0, 0), BuildingBlock: OJICUG_clean_linker_0, # of connection points: 2
#     Edge 44, Type (0, 0), BuildingBlock: OJICUG_clean_linker_0, # of connection points: 2
#     Edge 45, Type (0, 0), BuildingBlock: OJICUG_clean_linker_0, # of connection points: 2
#     Edge 46, Type (0, 0), BuildingBlock: OJICUG_clean_linker_0, # of connection points: 2
#     Edge 47, Type (0, 0), BuildingBlock: OJICUG_clean_linker_0, # of connection points: 2
#     Edge 48, Type (0, 0), BuildingBlock: OJICUG_clean_linker_0, # of connection points: 2
#     Edge 49, Type (0, 0), BuildingBlock: OJICUG_clean_linker_0, # of connection points: 2
#     Edge 50, Type (0, 0), BuildingBlock: OJICUG_clean_linker_0, # of connection points: 2
#     Edge 51, Type (0, 0), BuildingBlock: OJICUG_clean_linker_0, # of connection points: 2
#     Edge 52, Type (0, 0), BuildingBlock: OJICUG_clean_linker_0, # of connection points: 2
#     Edge 53, Type (0, 0), BuildingBlock: OJICUG_clean_linker_0, # of connection points: 2
#     Edge 54, Type (0, 0), BuildingBlock: OJICUG_clean_linker_0, # of connection points: 2
#     Edge 55, Type (0, 0), BuildingBlock: OJICUG_clean_linker_0, # of connection points: 2
# Relax obj value: 0.126
# Max RMSD: 0.210
# Mean RMSD: 0.185
data_MOF--net-gan--node1-BEQFEK_clean_sbu_0--edge1-OJICUG_clean_linker_0
_symmetry_space_group_name_H-M    P1
_symmetry_Int_Tables_number       1
_symmetry_cell_setting            triclinic
loop_
_symmetry_equiv_pos_as_xyz
'x, y, z'
_cell_length_a     33.856389
_cell_length_b     33.801375
_cell_length_c     32.722651
_cell_angle_alpha  91.804431
_cell_angle_beta   92.134896
_cell_angle_gamma 93.685788
loop_
_atom_site_label
_atom_site_type_symbol
_atom_site_fract_x
_atom_site_fract_y
_atom_site_fract_z
_atom_type_partial_charge
Co0 Co 0.11792 0.14318 0.09596 0.0
Co1 Co 0.17385 0.19522 0.14892 0.0
C2 C 0.15318 0.11713 0.17911 0.0
O3 O 0.135 0.11036 0.14444 0.0
O4 O 0.16983 0.15129 0.18795 0.0
C5 C 0.049 0.09751 0.09912 0.0
O6 O 0.05551 0.1066 0.13821 0.0
C7 C 0.24671 0.22627 0.18211 0.0
C8 C 0.24744 0.29031 0.17041 0.0
C9 C 0.27068 0.26101 0.18489 0.0
N10 N 0.21092 0.23484 0.16781 0.0
N11 N 0.21167 0.27285 0.15951 0.0
C12 C 0.25882 0.18459 0.18605 0.0
H13 H 0.2428 0.16459 0.16265 0.0
H14 H 0.25073 0.17374 0.21649 0.0
H15 H 0.29115 0.18294 0.18244 0.0
C16 C 0.06464 0.21085 0.10996 0.0
N17 N 0.09963 0.19371 0.11348 0.0
N18 N 0.12323 0.21509 0.13945 0.0
C19 C 0.10349 0.24527 0.15509 0.0
C20 C 0.0657 0.24411 0.13648 0.0
C21 C 0.02962 0.19365 0.08461 0.0
H22 H 0.03952 0.17765 0.05711 0.0
H23 H 1.01218 0.17238 0.1031 0.0
H24 H 1.00996 0.21694 0.0751 0.0
O25 O 0.16026 0.14699 0.05389 0.0
O26 O 0.20072 0.1798 0.09857 0.0
H27 H 0.12695 0.30304 0.1755 0.0
H28 H 0.09779 0.27773 0.21217 0.0
C29 C 0.11983 0.27363 0.18852 0.0
H30 H 0.14674 0.26266 0.20342 0.0
H31 H 0.1887 0.28645 0.14458 0.0
O32 O 0.07235 0.11166 0.07302 0.0
C33 C 0.19452 0.16289 0.06363 0.0
Co34 Co 0.11354 0.94305 0.40873 0.0
Co35 Co 0.16402 0.89015 0.36089 0.0
C36 C 0.195 0.9209 0.44244 0.0
O37 O 0.16167 0.93612 0.44591 0.0
O38 O 0.20262 0.90192 0.40948 0.0
C39 C 0.10059 1.01144 0.45691 0.0
O40 O 0.1394 1.01612 0.46062 0.0
C41 C 0.20381 0.82559 0.32296 0.0
C42 C 0.17541 0.82419 0.26082 0.0
C43 C 0.20007 0.8039 0.28612 0.0
N44 N 0.18254 0.85749 0.31922 0.0
N45 N 0.16544 0.85629 0.28219 0.0
C46 C 0.221 0.81302 0.36294 0.0
H47 H 0.20444 0.82503 0.38866 0.0
H48 H 0.25224 0.8251 0.36656 0.0
H49 H 0.22024 0.78021 0.36419 0.0
C50 C 0.12255 0.99491 0.33644 0.0
N51 N 0.128 0.96135 0.35676 0.0
N52 N 0.15154 0.93937 0.33629 0.0
C53 C 0.16291 0.95901 0.30271 0.0
C54 C 0.14445 0.99468 0.30125 0.0
C55 C 0.09679 0.02658 0.35049 0.0
H56 H 0.06989 1.01301 0.36418 0.0
H57 H 0.11337 0.04581 0.37425 0.0
H58 H 0.08792 0.04518 0.32479 0.0
O59 O 0.07605 0.89493 0.40482 0.0
O60 O 0.11645 0.85474 0.37652 0.0
H61 H 0.18109 0.93257 0.24683 0.0
H62 H 0.21325 0.97339 0.26649 0.0
C63 C 0.19479 0.94691 0.27532 0.0
H64 H 0.21391 0.92601 0.29073 0.0
H65 H 0.14446 0.87562 0.27252 0.0
O66 O 0.0844 0.98286 0.43509 0.0
C67 C 0.08328 0.86039 0.39203 0.0
Co68 Co 0.39467 0.96942 0.61181 0.0
Co69 Co 0.33793 0.92391 0.66428 0.0
C70 C 0.37558 1.00303 0.69457 0.0
O71 O 0.39083 1.00762 0.65996 0.0
O72 O 0.35422 0.97166 0.70099 0.0
C73 C 0.46599 1.01355 0.59737 0.0
O74 O 0.4665 0.02166 0.63691 0.0
C75 C 0.31566 0.87791 0.73357 0.0
C76 C 0.25537 0.85382 0.71454 0.0
C77 C 0.2842 0.85361 0.74569 0.0
N78 N 0.30598 0.8916 0.69678 0.0
N79 N 0.26963 0.87781 0.68584 0.0
C80 C 0.35368 0.88937 0.75709 0.0
H81 H 0.37664 0.90089 0.73642 0.0
H82 H 0.36443 0.86409 0.77411 0.0
H83 H 0.34831 0.91323 0.77989 0.0
C84 C 0.44148 0.89745 0.62131 0.0
N85 N 0.4097 0.91854 0.62847 0.0
N86 N 0.38418 0.89715 0.64927 0.0
C87 C 0.39872 0.86125 0.65528 0.0
C88 C 0.43574 0.86026 0.6381 0.0
C89 C 0.47757 0.91368 0.60083 0.0
H90 H 0.46926 0.92196 0.56927 0.0
H91 H 0.48982 0.94076 0.618 0.0
H92 H 0.50107 0.89239 0.59977 0.0
O93 O 0.34678 0.96215 0.57306 0.0
O94 O 0.30381 0.93309 0.61358 0.0
H95 H 0.34443 0.82947 0.67059 0.0
H96 H 0.38504 0.79864 0.66095 0.0
C97 C 0.37685 0.82732 0.67458 0.0
H98 H 0.38526 0.82781 0.70764 0.0
H99 H 0.25504 0.88382 0.6583 0.0
O100 O 0.4374 0.99217 0.58046 0.0
C101 C 0.31215 0.94674 0.57881 0.0
Co102 Co 0.39486 0.20225 0.85841 0.0
Co103 Co 0.43946 0.14882 0.9126 0.0
C104 C 0.41478 0.12053 0.82731 0.0
O105 O 0.40189 0.15465 0.82198 0.0
O106 O 0.43072 0.11223 0.86181 0.0
C107 C 0.36233 0.23663 0.79032 0.0
O108 O 0.38968 0.21854 0.77093 0.0
C109 C 0.46761 0.08542 0.96433 0.0
C110 C 0.48979 0.12196 1.01877 0.0
C111 C 0.48436 0.08333 1.00346 0.0
N112 N 0.4632 0.12377 0.95702 0.0
N113 N 0.4768 0.1454 0.98948 0.0
C114 C 0.45276 0.05177 0.93587 0.0
H115 H 0.42518 0.05929 0.91935 0.0
H116 H 0.447 0.0241 0.95268 0.0
H117 H 0.47536 0.04671 0.91291 0.0
C118 C 0.33308 0.1917 0.92089 0.0
N119 N 0.36935 0.18671 0.90637 0.0
N120 N 0.38842 0.16335 0.93027 0.0
C121 C 0.36467 0.15243 0.96093 0.0
C122 C 0.32861 0.17001 0.95612 0.0
C123 C 0.30364 0.21718 0.90143 0.0
H124 H 0.29152 0.2024 0.87245 0.0
H125 H 0.27897 0.22263 0.92182 0.0
H126 H 0.31861 0.24601 0.89378 0.0
O127 O 0.44306 0.23723 0.87018 0.0
O128 O 0.47874 0.19665 0.90503 0.0
H129 H 0.34863 0.11269 1.00924 0.0
H130 H 0.38704 0.09696 0.9769 0.0
C131 C 0.37486 0.12296 0.99219 0.0
H132 H 0.39786 0.13676 1.01412 0.0
H133 H 0.4763 0.17622 0.99196 0.0
O134 O 0.36002 0.23393 0.82862 0.0
C135 C 0.47516 0.23018 0.88893 0.0
Co136 Co 0.62692 0.44007 0.93164 0.0
Co137 Co 0.68032 0.39404 0.88004 0.0
C138 C 0.70733 0.41519 0.9656 0.0
O139 O 0.67362 0.4296 0.96919 0.0
O140 O 0.71696 0.40033 0.93111 0.0
C141 C 0.61207 0.50612 0.98151 0.0
O142 O 0.65075 0.51287 0.98405 0.0
C143 C 0.72943 0.3448 0.82736 0.0
C144 C 0.69245 0.3466 0.77021 0.0
C145 C 0.72563 0.33063 0.78697 0.0
N146 N 0.69968 0.36836 0.83383 0.0
N147 N 0.67768 0.36897 0.79967 0.0
C148 C 0.76004 0.33597 0.8593 0.0
H149 H 0.76567 0.36173 0.88106 0.0
H150 H 0.78803 0.32863 0.84506 0.0
H151 H 0.74885 0.31021 0.87672 0.0
C152 C 0.63473 0.49881 0.8648 0.0
N153 N 0.64237 0.46453 0.88292 0.0
N154 N 0.66737 0.44558 0.86124 0.0
C155 C 0.6775 0.46796 0.82909 0.0
C156 C 0.65681 0.50235 0.82988 0.0
C157 C 0.60525 0.52666 0.87942 0.0
H158 H 0.57985 0.50984 0.89262 0.0
H159 H 0.61965 0.54705 0.90356 0.0
H160 H 0.59424 0.54462 0.8541 0.0
O161 O 0.59042 0.39234 0.92075 0.0
O162 O 0.63253 0.35599 0.88957 0.0
H163 H 0.69465 0.44324 0.77198 0.0
H164 H 0.72462 0.4863 0.79009 0.0
C165 C 0.70876 0.45859 0.79976 0.0
H166 H 0.73032 0.43928 0.81395 0.0
H167 H 0.65178 0.38398 0.7968 0.0
O168 O 0.59665 0.47649 0.96076 0.0
C169 C 0.59859 0.35953 0.90429 0.0
Co170 Co 0.84023 0.40498 0.19632 0.0
Co171 Co 0.89158 0.46177 0.15043 0.0
C172 C 0.81593 0.43232 0.10995 0.0
O173 O 0.8076 0.41532 0.14335 0.0
O174 O 0.849 0.45203 0.107 0.0
C175 C 0.79517 0.33286 0.20198 0.0
O176 O 0.79712 0.33269 0.16194 0.0
C177 C 0.94477 0.50647 0.09839 0.0
C178 C 0.98424 0.53767 0.14639 0.0
C179 C 0.97813 0.53207 0.10461 0.0
N180 N 0.93223 0.49671 0.13515 0.0
N181 N 0.95536 0.51591 0.16368 0.0
C182 C 0.92429 0.49231 0.05874 0.0
H183 H 0.89204 0.49569 0.06047 0.0
H184 H 0.92854 0.46032 0.05343 0.0
H185 H 0.93556 0.50928 0.03265 0.0
C186 C 0.90971 0.35297 0.18543 0.0
N187 N 0.89109 0.38715 0.18245 0.0
N188 N 0.91367 0.41282 0.16315 0.0
C189 C 0.94726 0.39597 0.15299 0.0
C190 C 0.94599 0.35721 0.16644 0.0
C191 C 0.89141 0.31594 0.20269 0.0
H192 H 0.87721 0.32322 0.23174 0.0
H193 H 0.86831 0.30263 0.18061 0.0
H194 H 0.9133 0.29356 0.2082 0.0
O195 O 0.84737 0.45032 0.23933 0.0
O196 O 0.87584 0.4927 0.19848 0.0
H197 H 0.98859 0.44578 0.14656 0.0
H198 H 1.0068 0.3994 0.13028 0.0
C199 C 0.98014 0.41676 0.131 0.0
H200 H 0.9698 0.42215 0.09924 0.0
H201 H 0.95218 0.51314 0.19508 0.0
O202 O 0.81154 0.36181 0.2232 0.0
C203 C 0.86195 0.48511 0.23289 0.0
Co204 Co 0.87972 0.69758 0.37868 0.0
Co205 Co 0.93068 0.65083 0.43355 0.0
C206 C 0.89977 0.61349 0.35455 0.0
O207 O 0.88659 0.64699 0.34689 0.0
O208 O 0.91831 0.60863 0.3885 0.0
C209 C 0.81077 0.69875 0.33351 0.0
O210 O 0.80764 0.66182 0.34504 0.0
C211 C 0.97702 0.59598 0.47978 0.0
C212 C 0.99091 0.6314 0.53718 0.0
C213 C 0.99665 0.59545 0.51764 0.0
N214 N 0.95994 0.63057 0.47732 0.0
N215 N 0.96853 0.6517 0.51153 0.0
C216 C 0.97744 0.56614 0.44502 0.0
H217 H 0.98262 0.58161 0.41613 0.0
H218 H 0.94816 0.54937 0.44188 0.0
H219 H 1.00093 0.54515 0.44976 0.0
C220 C 0.82467 0.69253 0.44823 0.0
N221 N 0.85951 0.68697 0.43076 0.0
N222 N 0.88098 0.66545 0.45451 0.0
C223 C 0.85987 0.65561 0.48749 0.0
C224 C 0.82334 0.67245 0.4846 0.0
C225 C 0.79337 0.71731 0.43105 0.0
H226 H 0.8069 0.74161 0.41318 0.0
H227 H 0.77247 0.69842 0.41074 0.0
H228 H 0.77628 0.73017 0.45595 0.0
O229 O 0.92694 0.73537 0.38232 0.0
O230 O 0.9668 0.69857 0.41719 0.0
H231 H 0.89174 0.64369 0.54274 0.0
H232 H 0.84657 0.61307 0.53377 0.0
C233 C 0.87252 0.62726 0.51888 0.0
H234 H 0.88965 0.60401 0.50453 0.0
H235 H 0.95926 0.68015 0.51721 0.0
O236 O 0.8401 0.7215 0.34636 0.0
C237 C 0.96082 0.73043 0.39858 0.0
Co238 Co 0.86096 0.84351 0.87646 0.0
Co239 Co 0.90415 0.89631 0.9408 0.0
C240 C 0.88132 0.93222 0.86336 0.0
O241 O 0.86445 0.89827 0.85402 0.0
O242 O 0.90113 0.93754 0.89719 0.0
C243 C 0.87287 0.82085 0.79789 0.0
O244 O 0.90294 0.84705 0.80458 0.0
C245 C 0.95136 0.95289 0.99233 0.0
C246 C 0.93615 0.9331 0.05401 0.0
C247 C 0.95579 0.96329 0.03362 0.0
N248 N 0.92909 0.91881 0.98856 0.0
N249 N 0.92041 0.90675 1.02537 0.0
C250 C 0.96874 0.97364 0.95674 0.0
H251 H 0.97301 0.95194 0.93139 0.0
H252 H 0.99762 0.9895 0.96574 0.0
H253 H 0.94803 0.99534 0.94542 0.0
C254 C 0.93193 0.79537 0.88798 0.0
N255 N 0.91053 0.82668 0.8972 0.0
N256 N 0.9309 0.85049 0.92371 0.0
C257 C 0.96636 0.8353 0.93192 0.0
C258 C 0.96853 0.79977 0.90912 0.0
C259 C 0.91681 0.7605 0.86123 0.0
H260 H 0.88408 0.75649 0.86192 0.0
H261 H 0.92533 0.76553 0.82931 0.0
H262 H 0.92996 0.73303 0.87137 0.0
O263 O 0.81679 0.84005 0.91669 0.0
O264 O 0.84953 0.88252 0.96015 0.0
H265 H 0.99117 0.84851 0.99201 0.0
H266 H 0.02751 0.84467 0.95329 0.0
C267 C 0.99798 0.85521 0.95995 0.0
H268 H 0.99849 0.88781 0.95695 0.0
H269 H 0.90232 0.88144 0.03081 0.0
O270 O 0.84942 0.81267 0.82643 0.0
C271 C 0.81829 0.86093 0.94999 0.0
Co272 Co 0.84617 0.15273 0.67594 0.0
Co273 Co 0.9043 0.10458 0.6313 0.0
C274 C 0.82749 0.11936 0.58841 0.0
O275 O 0.81786 0.13801 0.62083 0.0
O276 O 0.86089 0.10398 0.58712 0.0
C277 C 0.80041 0.21169 0.69445 0.0
O278 O 0.81167 0.21944 0.65737 0.0
C279 C 0.96051 0.07565 0.57653 0.0
C280 C 1.00795 0.05824 0.61942 0.0
C281 C 0.99861 0.06308 0.57845 0.0
N282 N 0.94758 0.0773 0.61466 0.0
N283 N 0.9762 0.06749 0.64024 0.0
C284 C 0.93985 0.09356 0.54098 0.0
H285 H 0.92549 0.12044 0.55147 0.0
H286 H 0.91645 0.07187 0.52779 0.0
H287 H 0.9607 0.10203 0.51691 0.0
C288 C 0.85646 0.09023 0.73926 0.0
N289 N 0.8638 0.10695 0.70302 0.0
N290 N 0.88573 0.08387 0.68171 0.0
C291 C 0.89121 0.05067 0.70279 0.0
C292 C 0.87378 0.05388 0.74054 0.0
C293 C 0.83149 0.10782 0.77095 0.0
H294 H 0.80065 0.10839 0.75835 0.0
H295 H 0.83159 0.09058 0.79925 0.0
H296 H 0.84256 0.13897 0.77817 0.0
O297 O 0.88993 0.19517 0.67029 0.0
O298 O 0.93122 0.1584 0.63873 0.0
H299 H 0.94086 1.01464 0.70189 0.0
H300 H 0.89403 0.98759 0.69384 0.0
C301 C 0.91111 1.01542 0.68667 0.0
H302 H 0.91373 1.01643 0.65306 0.0
H303 H 0.97524 0.07002 0.67203 0.0
O304 O 0.80976 0.17962 0.71017 0.0
C305 C 0.923 0.19165 0.65405 0.0
Co306 Co 0.62953 0.07342 0.42336 0.0
Co307 Co 0.67803 0.12481 0.3669 0.0
C308 C 0.71426 0.10406 0.44787 0.0
O309 O 0.68171 0.08438 0.45378 0.0
O310 O 0.71936 0.12176 0.41422 0.0
C311 C 0.5957 0.06198 0.4989 0.0
O312 O 0.62087 0.09169 0.51068 0.0
C313 C 0.72315 0.18601 0.32004 0.0
C314 C 0.68808 0.17811 0.26152 0.0
C315 C 0.71969 0.20012 0.28065 0.0
N316 N 0.69439 0.15721 0.32383 0.0
N317 N 0.67381 0.15261 0.2887 0.0
C318 C 0.75368 0.1984 0.35296 0.0
H319 H 0.75976 0.17298 0.37229 0.0
H320 H 0.74224 0.222 0.37275 0.0
H321 H 0.78159 0.21006 0.33965 0.0
C322 C 0.57657 0.14222 0.42065 0.0
N323 N 0.60843 0.12277 0.40942 0.0
N324 N 0.63052 0.14587 0.38673 0.0
C325 C 0.61367 0.18095 0.38317 0.0
C326 C 0.5788 0.18003 0.40468 0.0
C327 C 0.54373 0.12465 0.44506 0.0
H328 H 0.53914 0.09233 0.43817 0.0
H329 H 0.5516 0.12956 0.47812 0.0
H330 H 0.51569 0.13891 0.43829 0.0
O331 O 0.63038 0.03458 0.37539 0.0
O332 O 0.66567 0.07281 0.33527 0.0
H333 H 0.62755 0.21055 0.32833 0.0
H334 H 0.61873 0.24362 0.37095 0.0
C335 C 0.63202 0.21566 0.36188 0.0
H336 H 0.6643 0.21868 0.3693 0.0
H337 H 0.64951 0.13226 0.28346 0.0
O338 O 0.59502 0.04879 0.46217 0.0
C339 C 0.64643 0.04007 0.34131 0.0
Co340 Co 0.58724 0.89795 0.12089 0.0
Co341 Co 0.63338 0.84101 0.17006 0.0
C342 C 0.62186 0.92097 0.20713 0.0
O343 O 0.60309 0.92932 0.17417 0.0
O344 O 0.63553 0.88692 0.21081 0.0
C345 C 0.53705 0.95499 0.09715 0.0
O346 O 0.52516 0.9493 0.1344 0.0
C347 C 0.68506 0.79688 0.22159 0.0
C348 C 0.67786 0.73762 0.19009 0.0
C349 C 0.69683 0.75854 0.22291 0.0
N350 N 0.66062 0.79874 0.18884 0.0
N351 N 0.65603 0.76332 0.17034 0.0
C352 C 0.69373 0.83035 0.25239 0.0
H353 H 0.66545 0.84153 0.26237 0.0
H354 H 0.71064 0.85501 0.23788 0.0
H355 H 0.71044 0.82114 0.27987 0.0
C356 C 0.6522 0.88423 0.06084 0.0
N357 N 0.63331 0.87809 0.09614 0.0
N358 N 0.65424 0.85529 0.11897 0.0
C359 C 0.68733 0.84673 0.09952 0.0
C360 C 0.68723 0.86439 0.06163 0.0
C361 C 0.63827 0.91083 0.02841 0.0
H362 H 0.60722 0.90149 1.01874 0.0
H363 H 0.63852 0.9416 0.04133 0.0
H364 H 0.6573 0.91031 1.00153 0.0
O365 O 0.54326 0.8549 0.12853 0.0
O366 O 0.57993 0.81543 0.16354 0.0
H367 H 0.70762 0.7904 0.11485 0.0
H368 H 0.74641 0.82516 0.10028 0.0
C369 C 0.71858 0.82204 0.11702 0.0
H370 H 0.72477 0.83052 0.14976 0.0
H371 H 0.63799 0.75678 0.14412 0.0
O372 O 0.56474 0.93527 0.08381 0.0
C373 C 0.54688 0.82269 0.14708 0.0
Co374 Co 0.35024 0.65443 0.18463 0.0
Co375 Co 0.40855 0.60609 0.1414 0.0
C376 C 0.33154 0.61742 0.09838 0.0
O377 O 0.32184 0.63725 0.13006 0.0
O378 O 0.36522 0.60249 0.09744 0.0
C379 C 0.2763 0.67335 0.21855 0.0
O380 O 0.25882 0.64715 0.19217 0.0
C381 C 0.4675 0.5768 0.0901 0.0
C382 C 0.51404 0.56319 0.13599 0.0
C383 C 0.50601 0.56563 0.09445 0.0
N384 N 0.45318 0.58002 0.12749 0.0
N385 N 0.48121 0.57253 0.15483 0.0
C386 C 0.44726 0.59162 0.05261 0.0
H387 H 0.43058 0.61772 0.06082 0.0
H388 H 0.42581 0.56798 0.03946 0.0
H389 H 0.46881 0.60025 0.02923 0.0
C390 C 0.36166 0.59342 0.24958 0.0
N391 N 0.36904 0.60991 0.21318 0.0
N392 N 0.39084 0.58658 0.19214 0.0
C393 C 0.39631 0.55353 0.2134 0.0
C394 C 0.3789 0.55704 0.25111 0.0
C395 C 0.33608 0.61072 0.28088 0.0
H396 H 0.34413 0.64294 0.28541 0.0
H397 H 0.30472 0.6071 0.26953 0.0
H398 H 0.33896 0.59579 0.31047 0.0
O399 O 0.39226 0.69841 0.1767 0.0
O400 O 0.43323 0.66069 0.14596 0.0
H401 H 0.44595 0.51744 0.21256 0.0
H402 H 0.39915 0.49034 0.20451 0.0
C403 C 0.41618 0.51819 0.19736 0.0
H404 H 0.41883 0.51912 0.16376 0.0
H405 H 0.47893 0.57648 0.18638 0.0
O406 O 0.3136 0.67942 0.2195 0.0
C407 C 0.42493 0.6945 0.15966 0.0
Co408 Co 0.13713 0.57784 0.92508 0.0
Co409 Co 0.19164 0.62459 0.87301 0.0
C410 C 0.2202 0.60097 0.95665 0.0
O411 O 0.18623 0.58394 0.96107 0.0
O412 O 0.22791 0.61743 0.92313 0.0
C413 C 0.09873 0.57509 0.99506 0.0
O414 O 0.12234 0.60719 1.00197 0.0
C415 C 0.24079 0.69274 0.85166 0.0
C416 C 0.24977 0.68085 0.78602 0.0
C417 C 0.25855 0.70828 0.81793 0.0
N418 N 0.22216 0.65777 0.8402 0.0
N419 N 0.22813 0.65036 0.80114 0.0
C420 C 0.24262 0.70984 0.89452 0.0
H421 H 0.27047 0.70165 0.91008 0.0
H422 H 0.21738 0.69747 0.91183 0.0
H423 H 0.24301 0.74266 0.89492 0.0
C424 C 0.08672 0.64812 0.91588 0.0
N425 N 0.11944 0.62821 0.90889 0.0
N426 N 0.14354 0.64992 0.88681 0.0
C427 C 0.12662 0.68449 0.87902 0.0
C428 C 0.0903 0.68487 0.89803 0.0
C429 C 0.0508 0.63144 0.93635 0.0
H430 H 0.04707 0.59886 0.93104 0.0
H431 H 0.05399 0.6385 0.96968 0.0
H432 H 0.02375 0.6449 0.92454 0.0
O433 O 0.13908 0.53894 0.87797 0.0
O434 O 0.17739 0.57456 0.83788 0.0
H435 H 0.16074 0.70406 0.82855 0.0
H436 H 0.1223 0.73618 0.84215 0.0
C437 C 0.14486 0.71685 0.85432 0.0
H438 H 0.16623 0.73558 0.87418 0.0
H439 H 0.21659 0.62506 0.7846 0.0
O440 O 0.09947 0.55593 0.96126 0.0
C441 C 0.15606 0.54298 0.84418 0.0
Co442 Co 0.08391 0.39859 0.63004 0.0
Co443 Co 0.13096 0.34117 0.67723 0.0
C444 C 0.12022 0.42134 0.71478 0.0
O445 O 0.10067 0.42978 0.68252 0.0
O446 O 0.13316 0.38702 0.71815 0.0
C447 C 0.07682 0.47181 0.59523 0.0
O448 O 0.11007 0.47987 0.61675 0.0
C449 C 0.19824 0.31045 0.71647 0.0
C450 C 0.18739 0.2457 0.7044 0.0
C451 C 0.21489 0.2746 0.72056 0.0
N452 N 0.16258 0.30322 0.69801 0.0
N453 N 0.15574 0.26456 0.69143 0.0
C454 C 0.21752 0.35122 0.72472 0.0
H455 H 0.20591 0.37223 0.70258 0.0
H456 H 0.25018 0.35127 0.72275 0.0
H457 H 0.21052 0.36161 0.75598 0.0
C458 C 0.14749 0.38663 0.5681 0.0
N459 N 0.12953 0.37977 0.60382 0.0
N460 N 0.15035 0.35549 0.62507 0.0
C461 C 0.18203 0.34611 0.60355 0.0
C462 C 0.18159 0.36568 0.56692 0.0
C463 C 0.13354 0.41423 0.53664 0.0
H464 H 0.10077 0.41114 0.53304 0.0
H465 H 0.14251 0.44519 0.54692 0.0
H466 H 0.14676 0.40832 0.50671 0.0
O467 O 0.04142 0.35401 0.63756 0.0
O468 O 0.07839 0.3132 0.67086 0.0
H469 H 0.19678 0.29046 0.62754 0.0
H470 H 0.2308 0.30962 0.5911 0.0
C471 C 0.21198 0.31787 0.61666 0.0
H472 H 0.23142 0.3319 0.64172 0.0
H473 H 0.13037 0.25131 0.67629 0.0
O474 O 0.06015 0.43711 0.59528 0.0
C475 C 0.04534 0.32094 0.65454 0.0
Co476 Co 0.61331 0.64116 0.62187 0.0
Co477 Co 0.6627 0.70206 0.67264 0.0
C478 C 0.64933 0.62499 0.7081 0.0
O479 O 0.63245 0.61501 0.67343 0.0
O480 O 0.66219 0.6609 0.71569 0.0
C481 C 0.54951 0.58663 0.62334 0.0
O482 O 0.55494 0.59313 0.66298 0.0
C483 C 0.72764 0.74974 0.70666 0.0
C484 C 0.73066 0.79748 0.66179 0.0
C485 C 0.75254 0.77956 0.69161 0.0
N486 N 0.69324 0.74885 0.68532 0.0
N487 N 0.69489 0.77769 0.65891 0.0
C488 C 0.73606 0.72139 0.73967 0.0
H489 H 0.70839 0.71271 0.75514 0.0
H490 H 0.758 0.73489 0.76289 0.0
H491 H 0.74763 0.69425 0.72588 0.0
C492 C 0.55476 0.70497 0.62348 0.0
N493 N 0.58996 0.69012 0.63307 0.0
N494 N 0.61078 0.71563 0.65748 0.0
C495 C 0.5892 0.74704 0.66546 0.0
C496 C 0.5529 0.74166 0.64387 0.0
C497 C 0.52283 0.6834 0.59705 0.0
H498 H 0.50798 0.65983 0.61494 0.0
H499 H 0.50023 0.70351 0.58646 0.0
H500 H 0.53599 0.66898 0.57032 0.0
O501 O 0.65681 0.64615 0.58224 0.0
O502 O 0.69426 0.68392 0.62597 0.0
H503 H 0.57905 0.79382 0.70958 0.0
H504 H 0.62719 0.77395 0.71428 0.0
C505 C 0.60355 0.78208 0.69235 0.0
H506 H 0.61551 0.80606 0.67301 0.0
H507 H 0.67329 0.78121 0.63596 0.0
O508 O 0.57168 0.60479 0.59869 0.0
C509 C 0.68998 0.6643 0.59221 0.0
Co510 Co 0.35736 0.34681 0.38593 0.0
Co511 Co 0.40076 0.39764 0.45121 0.0
C512 C 0.38147 0.43453 0.37324 0.0
O513 O 0.36387 0.40106 0.36329 0.0
O514 O 0.4002 0.43934 0.40778 0.0
C515 C 0.3697 0.32 0.30864 0.0
O516 O 0.39916 0.34726 0.31241 0.0
C517 C 0.44922 0.45074 0.50576 0.0
C518 C 0.43315 0.4278 0.56603 0.0
C519 C 0.45422 0.45833 0.54756 0.0
N520 N 0.42537 0.41788 0.49995 0.0
N521 N 0.41615 0.40395 0.53588 0.0
C522 C 0.46763 0.47279 0.47153 0.0
H523 H 0.47129 0.4522 0.44506 0.0
H524 H 0.49693 0.48723 0.48145 0.0
H525 H 0.44782 0.49581 0.46141 0.0
C526 C 0.42524 0.29531 0.39966 0.0
N527 N 0.4052 0.32774 0.40803 0.0
N528 N 0.42608 0.35095 0.43466 0.0
C529 C 0.46061 0.33429 0.44369 0.0
C530 C 0.46148 0.29841 0.42131 0.0
C531 C 0.40923 0.26044 0.37339 0.0
H532 H 0.37643 0.25765 0.37364 0.0
H533 H 0.4186 0.26434 0.34158 0.0
H534 H 0.42111 0.23266 0.3844 0.0
O535 O 0.31244 0.34459 0.42434 0.0
O536 O 0.34543 0.38542 0.46921 0.0
H537 H 0.48352 0.34943 0.5041 0.0
H538 H 0.52105 0.33928 0.46803 0.0
C539 C 0.49252 0.35306 0.4721 0.0
H540 H 0.49627 0.38531 0.46681 0.0
H541 H 0.39715 0.3789 0.53976 0.0
O542 O 0.34581 0.31484 0.33738 0.0
C543 C 0.31385 0.36489 0.4579 0.0
C544 C 0.33108 0.30452 0.20261 0.0
C545 C 0.3089 0.26846 0.20737 0.0
H546 H 0.36983 0.34984 0.23264 0.0
C547 C 0.31816 0.24484 0.24052 0.0
H548 H 0.32497 0.32299 0.17696 0.0
C549 C 0.34426 0.25978 0.27152 0.0
C550 C 0.3606 0.29864 0.27006 0.0
H551 H 0.30171 0.21734 0.24613 0.0
H552 H 0.34728 0.24306 0.29907 0.0
C553 C 0.35702 0.31973 0.23414 0.0
C554 C 0.06609 0.0631 0.5508 0.0
C555 C 0.02489 0.05646 0.54469 0.0
H556 H 0.12302 0.05483 0.52676 0.0
C557 C 1.00915 0.0402 0.50722 0.0
H558 H 0.0788 0.0758 0.57953 0.0
C559 C 0.0342 0.02901 0.47698 0.0
C560 C 0.07544 0.03296 0.4841 0.0
H561 H 0.97759 0.03384 0.50205 0.0
H562 H 0.02119 1.01486 0.44903 0.0
C563 C 0.09131 0.05156 0.52053 0.0
C564 C 0.30663 0.75765 0.79075 0.0
C565 C 0.27207 0.74949 0.81191 0.0
H566 H 0.33807 0.79847 0.75348 0.0
C567 C 0.24577 0.77935 0.81821 0.0
H568 H 0.32679 0.73463 0.78501 0.0
C569 C 0.25206 0.81579 0.80003 0.0
C570 C 0.28491 0.82273 0.77591 0.0
H571 H 0.21831 0.7732 0.83344 0.0
H572 H 0.2296 0.83716 0.80185 0.0
C573 C 0.31318 0.79426 0.77303 0.0
C574 C 0.48609 0.04626 0.06756 0.0
C575 C 0.49436 0.04827 0.02597 0.0
H576 H 0.49254 1.01457 0.12264 0.0
C577 C 0.51491 1.01838 1.00727 0.0
H578 H 0.47027 0.06915 0.08253 0.0
C579 C 0.52811 0.98741 0.03026 0.0
C580 C 0.52054 0.9858 0.07215 0.0
H581 H 0.52218 1.01978 0.97537 0.0
H582 H 0.54484 0.96517 1.01542 0.0
C583 C 0.49873 1.01504 0.09041 0.0
C584 C 0.21421 0.70713 0.23029 0.0
C585 C 0.25353 0.70106 0.24202 0.0
H586 H 0.16627 0.74495 0.23554 0.0
C587 C 0.27312 0.72592 0.27267 0.0
H588 H 0.19843 0.68837 0.20679 0.0
C589 C 0.25497 0.75838 0.28875 0.0
C590 C 0.21674 0.76619 0.27484 0.0
H591 H 0.30343 0.72171 0.28251 0.0
H592 H 0.27194 0.77864 0.30996 0.0
C593 C 0.19599 0.73965 0.24648 0.0
C594 C 0.53011 0.05275 0.58924 0.0
C595 C 0.50001 0.02553 0.57317 0.0
H596 H 0.58456 0.08572 0.57814 0.0
C597 C 0.50279 1.00901 0.53362 0.0
H598 H 0.5287 0.06573 0.6198 0.0
C599 C 0.53469 1.01998 0.51017 0.0
C600 C 0.56433 0.04798 0.52564 0.0
H601 H 0.48027 0.98757 0.52058 0.0
H602 H 0.53559 1.00702 0.47954 0.0
C603 C 0.56207 0.06404 0.56552 0.0
C604 C 0.31548 0.23484 0.73032 0.0
C605 C 0.32902 0.25219 0.76816 0.0
H606 H 0.26734 0.22802 0.68578 0.0
C607 C 0.30634 0.27945 0.7884 0.0
H608 H 0.33242 0.21339 0.71452 0.0
C609 C 0.26941 0.28746 0.77226 0.0
C610 C 0.25484 0.26834 0.73574 0.0
H611 H 0.31631 0.29299 0.81776 0.0
H612 H 0.25153 0.30716 0.78928 0.0
C613 C 0.27823 0.24263 0.71432 0.0
C614 C 1.01602 0.03136 0.10843 0.0
C615 C 0.01958 0.06604 0.08614 0.0
H616 H 0.99342 0.9708 0.10831 0.0
C617 C 0.99861 0.0684 0.04879 0.0
H618 H 0.03218 0.02917 0.1374 0.0
C619 C 0.97589 0.03553 0.03267 0.0
C620 C 0.97537 0.99948 0.05289 0.0
H621 H 1.00057 0.09536 0.03168 0.0
H622 H 0.95945 0.03833 1.00409 0.0
C623 C 0.99414 0.99806 0.09173 0.0
C624 C 0.771 0.27691 0.70046 0.0
C625 C 0.78152 0.24192 0.71877 0.0
H626 H 0.74576 0.33278 0.70836 0.0
C627 C 0.77556 0.23713 0.76066 0.0
H628 H 0.77542 0.28155 0.6683 0.0
C629 C 0.75892 0.2668 0.78372 0.0
C630 C 0.74807 0.30152 0.76512 0.0
H631 H 0.78359 0.21047 0.77558 0.0
H632 H 0.75323 0.26186 0.81555 0.0
C633 C 0.75429 0.30634 0.7234 0.0
C634 C 0.04779 0.52688 1.01914 0.0
C635 C 0.06818 0.56427 1.02345 0.0
H636 H 1.00354 0.48705 0.04235 0.0
C637 C 0.05809 0.59151 0.05389 0.0
H638 H 0.05545 0.50523 0.99612 0.0
C639 C 0.0276 0.58143 0.07964 0.0
C640 C 1.00709 0.54414 0.07503 0.0
H641 H 0.07339 0.62062 0.05756 0.0
H642 H 0.02018 0.60258 0.10326 0.0
C643 C 0.01764 0.51674 0.04504 0.0
C644 C 0.78849 0.75102 0.28863 0.0
C645 C 0.78121 0.71371 0.30545 0.0
H646 H 0.76764 0.79385 0.24803 0.0
C647 C 0.74616 0.69081 0.29448 0.0
H648 H 0.81561 0.769 0.29605 0.0
C649 C 0.71847 0.70542 0.26734 0.0
C650 C 0.72562 0.74301 0.25129 0.0
H651 H 0.74008 0.66182 0.3069 0.0
H652 H 0.69136 0.68764 0.25928 0.0
C653 C 0.76101 0.76539 0.26143 0.0
C654 C 0.05357 0.57269 0.55862 0.0
C655 C 0.01847 0.56352 0.53519 0.0
H656 H 0.10011 0.55058 0.59555 0.0
C657 C 1.00325 0.52401 0.53064 0.0
H658 H 0.06565 0.60309 0.56266 0.0
C659 C 0.02284 0.49401 0.54933 0.0
C660 C 0.05782 0.50313 0.57313 0.0
H661 H 0.9756 0.51639 0.51366 0.0
H662 H 1.01011 0.46381 0.54578 0.0
C663 C 0.07328 0.54267 0.57726 0.0
C664 C 0.6008 0.55002 0.04186 0.0
C665 C 0.5861 0.5289 1.0064 0.0
H666 H 0.58619 0.57859 0.0981 0.0
C667 C 0.54512 0.52467 0.99766 0.0
H668 H 0.63232 0.5536 0.04916 0.0
C669 C 0.51901 0.53822 0.02565 0.0
C670 C 0.53347 0.55707 0.06238 0.0
H671 H 0.53306 0.5087 0.97028 0.0
H672 H 0.48761 0.53156 1.01954 0.0
C673 C 0.5745 0.56393 0.06988 0.0
C674 C 0.8185 0.76106 0.71749 0.0
C675 C 0.79379 0.79032 0.70433 0.0
H676 H 0.86522 0.74847 0.75998 0.0
C677 C 0.80643 0.83044 0.71006 0.0
H678 H 0.81075 0.72993 0.71073 0.0
C679 C 0.83917 0.841 0.73593 0.0
C680 C 0.85825 0.8114 0.75646 0.0
H681 H 0.78845 0.8535 0.69889 0.0
H682 H 0.84556 0.872 0.7446 0.0
C683 C 0.85021 0.77155 0.74465 0.0
C684 C 0.75437 0.26785 0.28434 0.0
C685 C 0.74187 0.23312 0.26166 0.0
H686 H 0.78104 0.32681 0.28313 0.0
C687 C 0.74715 0.23135 0.21928 0.0
H688 H 0.74932 0.2707 0.31671 0.0
C689 C 0.76451 0.26376 0.19984 0.0
C690 C 0.77686 0.29858 0.22245 0.0
H691 H 0.73749 0.20495 0.20104 0.0
H692 H 0.76812 0.26152 0.16711 0.0
C693 C 0.77196 0.30023 0.26493 0.0
C694 C 0.49393 0.48785 0.60753 0.0
C695 C 0.47537 0.49247 0.56906 0.0
H696 H 0.53208 0.51508 0.65553 0.0
C697 C 0.47707 0.52987 0.55156 0.0
H698 H 0.4923 0.45944 0.62201 0.0
C699 C 0.50029 0.56116 0.57017 0.0
C700 C 0.52074 0.5558 0.6073 0.0
H701 H 0.46091 0.53505 0.52334 0.0
H702 H 0.50275 0.58937 0.55531 0.0
C703 C 0.5164 0.51955 0.62674 0.0
C704 C 0.16128 0.09503 0.25195 0.0
C705 C 0.15294 0.08543 0.21015 0.0
H706 H 0.16472 0.07415 0.31334 0.0
C707 C 0.14279 0.04542 0.19867 0.0
H708 H 0.16905 0.12544 0.26208 0.0
C709 C 0.14094 1.01598 0.22809 0.0
C710 C 0.14828 0.02583 0.26987 0.0
H711 H 0.13614 0.03681 0.16687 0.0
H712 H 0.1328 0.98556 0.21825 0.0
C713 C 0.15861 0.06568 0.28142 0.0
C714 C 0.21328 0.93222 0.51775 0.0
C715 C 0.22523 0.92677 0.47723 0.0
H716 H 0.23088 0.94211 0.58128 0.0
C717 C 0.26613 0.9288 0.47046 0.0
H718 H 0.18209 0.93094 0.52423 0.0
C719 C 0.29415 0.93658 0.50315 0.0
C720 C 0.28217 0.94145 0.54374 0.0
H721 H 0.27649 0.92508 0.43974 0.0
H722 H 0.32535 0.93792 0.4967 0.0
C723 C 0.24129 0.93879 0.55054 0.0
C724 C 0.3956 0.073 0.72039 0.0
C725 C 0.38555 0.03309 0.72865 0.0
H726 H 0.41228 0.13168 0.74481 0.0
C727 C 0.38725 0.02179 0.76979 0.0
H728 H 0.39493 0.08277 0.68918 0.0
C729 C 0.39865 0.04963 0.80169 0.0
C730 C 0.40764 0.08976 0.79344 0.0
H731 H 0.38025 0.99122 0.7773 0.0
H732 H 0.39921 0.03997 0.83295 0.0
C733 C 0.40582 0.10101 0.75233 0.0
C734 C 0.29933 0.17501 1.02523 0.0
C735 C 0.29385 0.16692 0.98304 0.0
H736 H 0.27281 0.18008 0.08321 0.0
C737 C 0.25521 0.1563 0.96716 0.0
H738 H 0.32863 0.18342 0.03839 0.0
C739 C 0.22278 0.15401 0.99303 0.0
C740 C 0.22828 0.16282 0.03528 0.0
H741 H 0.25012 0.14962 0.93473 0.0
H742 H 0.19342 0.14601 0.97987 0.0
C743 C 0.26712 0.17318 0.05089 0.0
C744 C 0.01963 0.27772 0.18354 0.0
C745 C 0.03362 0.27155 0.14404 0.0
H746 H 0.98194 0.31024 0.22186 0.0
C747 C 0.01745 0.29265 0.11182 0.0
H748 H 0.03071 0.26124 0.20888 0.0
C749 C 0.98846 0.31967 0.11901 0.0
C750 C 0.97523 0.32668 0.15871 0.0
H751 H 0.02773 0.28874 0.08109 0.0
H752 H 0.97662 0.33545 0.09349 0.0
C753 C 0.9911 0.30525 0.19087 0.0
C754 C 0.57756 0.28592 0.8992 0.0
C755 C 0.56761 0.32581 0.90088 0.0
H756 H 0.55637 0.2243 0.89525 0.0
C757 C 0.52726 0.3335 0.899 0.0
H758 H 0.60833 0.2789 0.90067 0.0
C759 C 0.49774 0.30244 0.89481 0.0
C760 C 0.50748 0.26255 0.89352 0.0
H761 H 0.51841 0.36374 0.90003 0.0
H762 H 0.46705 0.30974 0.89303 0.0
C763 C 0.54781 0.25463 0.89623 0.0
C764 C 0.03322 0.75572 0.39821 0.0
C765 C 0.99274 0.7632 0.39721 0.0
H766 H 0.09345 0.7802 0.39637 0.0
C767 C 0.98262 0.80287 0.39484 0.0
H768 H 0.04214 0.7256 0.39997 0.0
C769 C 1.01194 0.83415 0.3939 0.0
C770 C 0.05237 0.82676 0.39414 0.0
H771 H 0.95184 0.80989 0.39424 0.0
H772 H 1.00282 0.86422 0.3923 0.0
C773 C 0.06262 0.78704 0.39604 0.0
C774 C 0.50232 0.78194 0.67761 0.0
C775 C 0.52064 0.76969 0.64192 0.0
H776 H 0.46125 0.82013 0.70438 0.0
C777 C 0.50914 0.78574 0.60455 0.0
H778 H 0.51017 0.76963 0.70675 0.0
C779 C 0.48086 0.81434 0.60312 0.0
C780 C 0.46356 0.82767 0.63904 0.0
H781 H 0.52276 0.77685 0.57656 0.0
H782 H 0.47288 0.82647 0.57393 0.0
C783 C 0.47406 0.81056 0.67619 0.0
C784 C 0.89488 0.03223 0.81103 0.0
C785 C 0.87339 0.02433 0.77367 0.0
H786 H 0.91472 1.00963 0.8686 0.0
C787 C 0.85344 0.98688 0.76701 0.0
H788 H 0.91066 0.06086 0.81693 0.0
C789 C 0.85555 0.95771 0.79644 0.0
C790 C 0.87801 0.96485 0.83345 0.0
H791 H 0.83638 0.98 0.73873 0.0
H792 H 0.83974 0.92925 0.78987 0.0
C793 C 0.8973 1.00281 0.84054 0.0
C794 C 0.75815 0.11512 0.55705 0.0
C795 C 0.79918 0.11558 0.55184 0.0
H796 H 0.69989 0.11052 0.52883 0.0
C797 C 0.81252 0.11285 0.5115 0.0
H798 H 0.74668 0.11716 0.58746 0.0
C799 C 0.78543 0.11016 0.4774 0.0
C800 C 0.74432 0.10876 0.4829 0.0
H801 H 0.84394 0.11338 0.50627 0.0
H802 H 0.7966 0.10833 0.44686 0.0
C803 C 0.73124 0.11118 0.52326 0.0
C804 C 0.63664 0.9685 0.31501 0.0
C805 C 0.64079 1.00926 0.30721 0.0
H806 H 0.62849 0.90882 0.28979 0.0
C807 C 0.63857 1.02059 0.26613 0.0
H808 H 0.63817 0.95865 0.34618 0.0
C809 C 0.63173 0.99212 0.23389 0.0
C810 C 0.62819 0.95134 0.2416 0.0
H811 H 0.64133 0.05167 0.2589 0.0
H812 H 0.62982 1.00207 0.20278 0.0
C813 C 0.63113 0.93992 0.28263 0.0
C814 C 0.71408 0.84618 0.99258 0.0
C815 C 0.71957 0.86495 0.0316 0.0
H816 H 0.74074 0.82945 0.93628 0.0
C817 C 0.75725 0.88235 0.0431 0.0
H818 H 0.68536 0.83231 0.98298 0.0
C819 C 0.78879 0.88077 1.01664 0.0
C820 C 0.78386 0.86148 0.97772 0.0
H821 H 0.76242 0.89696 0.07294 0.0
H822 H 0.81733 0.89455 0.02702 0.0
C823 C 0.7459 0.84428 0.96599 0.0
C824 C 0.04994 0.73119 0.93889 0.0
C825 C 0.06162 0.7169 0.90055 0.0
H826 H 1.01202 0.76868 0.97178 0.0
C827 C 0.04348 0.73131 0.86517 0.0
H828 H 0.06311 0.72047 0.96676 0.0
C829 C 1.01407 0.75877 0.86807 0.0
C830 C 1.002 0.77272 0.90641 0.0
H831 H 0.05115 0.72042 0.83521 0.0
H832 H 1.00046 0.76889 0.84015 0.0
C833 C 0.02077 0.75895 0.94179 0.0
C834 C 0.44475 0.7684 0.15629 0.0
C835 C 0.45486 0.72855 0.15621 0.0
H836 H 0.4657 0.82987 0.15223 0.0
C837 C 0.49474 0.72065 0.15169 0.0
H838 H 0.41424 0.77549 0.15941 0.0
C839 C 0.5238 0.75138 0.14817 0.0
C840 C 0.51407 0.7912 0.14821 0.0
H841 H 0.5038 0.69047 0.15146 0.0
H842 H 0.55423 0.74382 0.14536 0.0
C843 C 0.47408 0.79948 0.1518 0.0
C844 C 0.94308 0.26551 0.65584 0.0
C845 C 0.95328 0.2257 0.65384 0.0
H846 H 0.964 0.32724 0.65651 0.0
C847 C 0.99344 0.21814 0.65123 0.0
H848 H 0.91236 0.27233 0.65766 0.0
C849 C 0.02268 0.24922 0.6514 0.0
C850 C 1.01278 0.28902 0.65323 0.0
H851 H 1.0025 0.18798 0.64969 0.0
H852 H 0.0533 0.24197 0.64978 0.0
C853 C 0.97255 0.29692 0.65494 0.0
C854 C 0.51002 0.25275 0.45262 0.0
C855 C 0.49389 0.27043 0.418 0.0
H856 H 0.54916 0.2101 0.47558 0.0
C857 C 0.50696 0.25908 0.37926 0.0
H858 H 0.50036 0.26062 0.48282 0.0
C859 C 0.53498 0.23047 0.37511 0.0
C860 C 0.55035 0.21195 0.40954 0.0
H861 H 0.49521 0.2722 0.35198 0.0
H862 H 0.54393 0.2221 0.34477 0.0
C863 C 0.53769 0.22361 0.44841 0.0
C864 C 0.66182 0.57458 0.81074 0.0
C865 C 0.65642 0.5341 0.79895 0.0
H866 H 0.66463 0.63502 0.79156 0.0
C867 C 0.64974 0.52396 0.7572 0.0
H868 H 0.66719 0.58334 0.84268 0.0
C869 C 0.6477 0.55342 0.72803 0.0
C870 C 0.65298 0.59401 0.73961 0.0
H871 H 0.64511 0.49313 0.74712 0.0
H872 H 0.64188 0.54427 0.69624 0.0
C873 C 0.66051 0.60417 0.7814 0.0
C874 C 0.7767 0.42276 0.99835 0.0
C875 C 0.73549 0.41735 1.00231 0.0
H876 H 0.834 0.4328 0.02884 0.0
C877 C 0.721 0.4165 0.0422 0.0
H878 H 0.78896 0.4239 0.96827 0.0
C879 C 0.74688 0.4207 0.07702 0.0
C880 C 0.78799 0.42725 0.07309 0.0
H881 H 0.68946 0.41245 0.04653 0.0
H882 H 0.73458 0.41964 0.10708 0.0
C883 C 0.80249 0.42821 0.03319 0.0
C884 C 0.87773 0.50872 0.30663 0.0
C885 C 0.86749 0.51699 0.26578 0.0
H886 H 0.89722 0.53241 0.36653 0.0
C887 C 0.86837 0.55696 0.25483 0.0
H888 H 0.87817 0.47829 0.31595 0.0
C889 C 0.87915 0.58773 0.28353 0.0
C890 C 0.89032 0.57974 0.32416 0.0
H891 H 0.86113 0.56452 0.22362 0.0
H892 H 0.87917 0.61801 0.27361 0.0
C893 C 0.88934 0.53974 0.33542 0.0
C894 C 0.71881 0.65384 0.52269 0.0
C895 C 0.72417 0.66397 0.56464 0.0
H896 H 0.74592 0.64877 0.46453 0.0
C897 C 0.7628 0.67542 0.58014 0.0
H898 H 0.68959 0.64496 0.50966 0.0
C899 C 0.79504 0.67712 0.5544 0.0
C900 C 0.78945 0.66814 0.51236 0.0
H901 H 0.76819 0.68332 0.6123 0.0
H902 H 0.82424 0.68648 0.56722 0.0
C903 C 0.75104 0.65623 0.4968 0.0
C904 C 0.35805 0.48967 0.27609 0.0
C905 C 0.37744 0.5272 0.28393 0.0
H906 H 0.34418 0.43154 0.2975 0.0
C907 C 0.3973 0.53494 0.32221 0.0
H908 H 0.34215 0.48294 0.24711 0.0
C909 C 0.39858 0.50529 0.35158 0.0
C910 C 0.37984 0.46726 0.34331 0.0
H911 H 0.41262 0.56365 0.32902 0.0
H912 H 0.4146 0.51201 0.38048 0.0
C913 C 0.35924 0.46019 0.30522 0.0
C914 C 0.23567 0.60566 0.03261 0.0
C915 C 0.24935 0.60425 0.99244 0.0
H916 H 0.25048 0.61178 0.09702 0.0
C917 C 0.29055 0.60684 0.98745 0.0
H918 H 0.2042 0.60408 0.03774 0.0
C919 C 0.31723 0.6101 1.02175 0.0
C920 C 0.3034 0.61227 0.06186 0.0
H921 H 0.30216 0.60593 0.95707 0.0
H922 H 0.34875 0.61181 1.01685 0.0
C923 C 0.26224 0.61024 0.06671 0.0
C924 C 0.14242 0.47134 0.82035 0.0
C925 C 0.14863 0.5116 0.81099 0.0
H926 H 0.12956 0.41133 0.7975 0.0
C927 C 0.14543 0.5218 0.76967 0.0
H928 H 0.14455 0.46244 0.85182 0.0
C929 C 0.1354 0.49268 0.73869 0.0
C930 C 0.12955 0.45237 0.748 0.0
H931 H 0.14966 0.55251 0.76136 0.0
H932 H 0.13279 0.50168 0.70728 0.0
C933 C 0.13374 0.44205 0.78922 0.0
C934 C 0.24079 0.3504 0.47113 0.0
C935 C 0.27901 0.36544 0.48474 0.0
H936 H 0.17963 0.3394 0.48621 0.0
C937 C 0.28392 0.38203 0.52481 0.0
H938 H 0.23579 0.33761 0.44048 0.0
C939 C 0.25198 0.38294 0.55069 0.0
C940 C 0.214 0.36779 0.53726 0.0
H941 H 0.31273 0.39393 0.53658 0.0
H942 H 0.25706 0.39514 0.5816 0.0
C943 C 0.20855 0.35176 0.49711 0.0
loop_
_geom_bond_atom_site_label_1
_geom_bond_atom_site_label_2
_geom_bond_distance
_geom_bond_site_symmetry_2
_ccdc_geom_bond_type
Co0 O3 1.970 . S
Co0 N17 1.989 . S
Co0 O25 1.967 . S
Co0 O32 1.920 . S
Co1 O4 1.966 . S
Co1 N10 2.022 . S
Co1 N18 1.993 . S
Co1 O26 1.941 . S
C2 O3 1.258 . S
C2 O4 1.263 . S
O3 Co0 1.970 . S
O3 C2 1.258 . S
O4 Co1 1.966 . S
O4 C2 1.263 . S
C5 O6 1.235 . S
C5 O32 1.289 . S
O6 C5 1.235 . S
C7 C9 1.400 . S
C7 N10 1.351 . S
C7 C12 1.501 . S
C8 C9 1.387 . S
C8 N11 1.341 . S
C9 C7 1.400 . S
C9 C8 1.387 . S
N10 Co1 2.022 . S
N10 C7 1.351 . S
N10 N11 1.365 . S
N11 C8 1.341 . S
N11 N10 1.365 . S
N11 H31 0.862 . S
C12 C7 1.501 . S
C12 H13 0.961 . S
C12 H14 0.961 . S
C12 H15 0.960 . S
H13 C12 0.961 . S
H14 C12 0.961 . S
H15 C12 0.960 . S
C16 N17 1.342 . S
C16 C20 1.401 . S
C16 C21 1.499 . S
N17 Co0 1.989 . S
N17 C16 1.342 . S
N17 N18 1.388 . S
N18 Co1 1.993 . S
N18 N17 1.388 . S
N18 C19 1.346 . S
C19 N18 1.346 . S
C19 C20 1.396 . S
C19 C29 1.510 . S
C20 C16 1.401 . S
C20 C19 1.396 . S
C21 C16 1.499 . S
C21 H22 0.959 . S
C21 H23 0.960 . S
C21 H24 0.961 . S
H22 C21 0.959 . S
H23 C21 0.960 . S
H24 C21 0.961 . S
O25 Co0 1.967 . S
O25 C33 1.258 . S
O26 Co1 1.941 . S
O26 C33 1.266 . S
H27 C29 0.959 . S
H28 C29 0.961 . S
C29 C19 1.510 . S
C29 H27 0.959 . S
C29 H28 0.961 . S
C29 H30 0.960 . S
H30 C29 0.960 . S
H31 N11 0.862 . S
O32 Co0 1.920 . S
O32 C5 1.289 . S
C33 O25 1.258 . S
C33 O26 1.266 . S
Co34 O37 1.970 . S
Co34 N51 1.989 . S
Co34 O59 1.967 . S
Co34 O66 1.920 . S
Co35 O38 1.966 . S
Co35 N44 2.022 . S
Co35 N52 1.993 . S
Co35 O60 1.941 . S
C36 O37 1.258 . S
C36 O38 1.263 . S
O37 Co34 1.970 . S
O37 C36 1.258 . S
O38 Co35 1.966 . S
O38 C36 1.263 . S
C39 O40 1.235 . S
C39 O66 1.289 . S
O40 C39 1.235 . S
C41 C43 1.400 . S
C41 N44 1.351 . S
C41 C46 1.501 . S
C42 C43 1.387 . S
C42 N45 1.341 . S
C43 C41 1.400 . S
C43 C42 1.387 . S
N44 Co35 2.022 . S
N44 C41 1.351 . S
N44 N45 1.365 . S
N45 C42 1.341 . S
N45 N44 1.365 . S
N45 H65 0.862 . S
C46 C41 1.501 . S
C46 H47 0.961 . S
C46 H48 0.961 . S
C46 H49 0.960 . S
H47 C46 0.961 . S
H48 C46 0.961 . S
H49 C46 0.960 . S
C50 N51 1.342 . S
C50 C54 1.401 . S
C50 C55 1.499 . S
N51 Co34 1.989 . S
N51 C50 1.342 . S
N51 N52 1.388 . S
N52 Co35 1.993 . S
N52 N51 1.388 . S
N52 C53 1.346 . S
C53 N52 1.346 . S
C53 C54 1.396 . S
C53 C63 1.510 . S
C54 C50 1.401 . S
C54 C53 1.396 . S
C55 C50 1.499 . S
C55 H56 0.959 . S
C55 H57 0.960 . S
C55 H58 0.961 . S
H56 C55 0.959 . S
H57 C55 0.960 . S
H58 C55 0.961 . S
O59 Co34 1.967 . S
O59 C67 1.258 . S
O60 Co35 1.941 . S
O60 C67 1.266 . S
H61 C63 0.959 . S
H62 C63 0.961 . S
C63 C53 1.510 . S
C63 H61 0.959 . S
C63 H62 0.961 . S
C63 H64 0.960 . S
H64 C63 0.960 . S
H65 N45 0.862 . S
O66 Co34 1.920 . S
O66 C39 1.289 . S
C67 O59 1.258 . S
C67 O60 1.266 . S
Co68 O71 1.970 . S
Co68 N85 1.989 . S
Co68 O93 1.967 . S
Co68 O100 1.920 . S
Co69 O72 1.966 . S
Co69 N78 2.022 . S
Co69 N86 1.993 . S
Co69 O94 1.941 . S
C70 O71 1.258 . S
C70 O72 1.263 . S
O71 Co68 1.970 . S
O71 C70 1.258 . S
O72 Co69 1.966 . S
O72 C70 1.263 . S
C73 O74 1.235 . S
C73 O100 1.289 . S
O74 C73 1.235 . S
C75 C77 1.400 . S
C75 N78 1.351 . S
C75 C80 1.501 . S
C76 C77 1.387 . S
C76 N79 1.341 . S
C77 C75 1.400 . S
C77 C76 1.387 . S
N78 Co69 2.022 . S
N78 C75 1.351 . S
N78 N79 1.365 . S
N79 C76 1.341 . S
N79 N78 1.365 . S
N79 H99 0.862 . S
C80 C75 1.501 . S
C80 H81 0.961 . S
C80 H82 0.961 . S
C80 H83 0.960 . S
H81 C80 0.961 . S
H82 C80 0.961 . S
H83 C80 0.960 . S
C84 N85 1.342 . S
C84 C88 1.401 . S
C84 C89 1.499 . S
N85 Co68 1.989 . S
N85 C84 1.342 . S
N85 N86 1.388 . S
N86 Co69 1.993 . S
N86 N85 1.388 . S
N86 C87 1.346 . S
C87 N86 1.346 . S
C87 C88 1.396 . S
C87 C97 1.510 . S
C88 C84 1.401 . S
C88 C87 1.396 . S
C89 C84 1.499 . S
C89 H90 0.959 . S
C89 H91 0.960 . S
C89 H92 0.961 . S
H90 C89 0.959 . S
H91 C89 0.960 . S
H92 C89 0.961 . S
O93 Co68 1.967 . S
O93 C101 1.258 . S
O94 Co69 1.941 . S
O94 C101 1.266 . S
H95 C97 0.959 . S
H96 C97 0.961 . S
C97 C87 1.510 . S
C97 H95 0.959 . S
C97 H96 0.961 . S
C97 H98 0.960 . S
H98 C97 0.960 . S
H99 N79 0.862 . S
O100 Co68 1.920 . S
O100 C73 1.289 . S
C101 O93 1.258 . S
C101 O94 1.266 . S
Co102 O105 1.970 . S
Co102 N119 1.989 . S
Co102 O127 1.967 . S
Co102 O134 1.920 . S
Co103 O106 1.966 . S
Co103 N112 2.022 . S
Co103 N120 1.993 . S
Co103 O128 1.941 . S
C104 O105 1.258 . S
C104 O106 1.263 . S
O105 Co102 1.970 . S
O105 C104 1.258 . S
O106 Co103 1.966 . S
O106 C104 1.263 . S
C107 O108 1.235 . S
C107 O134 1.289 . S
O108 C107 1.235 . S
C109 C111 1.400 . S
C109 N112 1.351 . S
C109 C114 1.501 . S
C110 C111 1.387 . S
C110 N113 1.341 . S
C111 C109 1.400 . S
C111 C110 1.387 . S
N112 Co103 2.022 . S
N112 C109 1.351 . S
N112 N113 1.365 . S
N113 C110 1.341 . S
N113 N112 1.365 . S
N113 H133 0.862 . S
C114 C109 1.501 . S
C114 H115 0.961 . S
C114 H116 0.959 1_545 S
C114 H117 0.960 . S
H115 C114 0.961 . S
H116 C114 0.959 1_565 S
H117 C114 0.960 . S
C118 N119 1.342 . S
C118 C122 1.401 . S
C118 C123 1.499 . S
N119 Co102 1.989 . S
N119 C118 1.342 . S
N119 N120 1.388 . S
N120 Co103 1.993 . S
N120 N119 1.388 . S
N120 C121 1.346 . S
C121 N120 1.346 . S
C121 C122 1.396 . S
C121 C131 1.510 . S
C122 C118 1.401 . S
C122 C121 1.396 . S
C123 C118 1.499 . S
C123 H124 0.959 . S
C123 H125 0.960 . S
C123 H126 0.961 . S
H124 C123 0.959 . S
H125 C123 0.960 . S
H126 C123 0.961 . S
O127 Co102 1.967 . S
O127 C135 1.258 . S
O128 Co103 1.941 . S
O128 C135 1.266 . S
H129 C131 0.959 1_554 S
H130 C131 0.961 . S
C131 C121 1.510 . S
C131 H129 0.959 1_556 S
C131 H130 0.961 . S
C131 H132 0.960 . S
H132 C131 0.960 . S
H133 N113 0.862 . S
O134 Co102 1.920 . S
O134 C107 1.289 . S
C135 O127 1.258 . S
C135 O128 1.266 . S
Co136 O139 1.970 . S
Co136 N153 1.989 . S
Co136 O161 1.967 . S
Co136 O168 1.920 . S
Co137 O140 1.966 . S
Co137 N146 2.022 . S
Co137 N154 1.993 . S
Co137 O162 1.941 . S
C138 O139 1.258 . S
C138 O140 1.263 . S
O139 Co136 1.970 . S
O139 C138 1.258 . S
O140 Co137 1.966 . S
O140 C138 1.263 . S
C141 O142 1.235 . S
C141 O168 1.289 . S
O142 C141 1.235 . S
C143 C145 1.400 . S
C143 N146 1.351 . S
C143 C148 1.501 . S
C144 C145 1.387 . S
C144 N147 1.341 . S
C145 C143 1.400 . S
C145 C144 1.387 . S
N146 Co137 2.022 . S
N146 C143 1.351 . S
N146 N147 1.365 . S
N147 C144 1.341 . S
N147 N146 1.365 . S
N147 H167 0.862 . S
C148 C143 1.501 . S
C148 H149 0.961 . S
C148 H150 0.961 . S
C148 H151 0.960 . S
H149 C148 0.961 . S
H150 C148 0.961 . S
H151 C148 0.960 . S
C152 N153 1.342 . S
C152 C156 1.401 . S
C152 C157 1.499 . S
N153 Co136 1.989 . S
N153 C152 1.342 . S
N153 N154 1.388 . S
N154 Co137 1.993 . S
N154 N153 1.388 . S
N154 C155 1.346 . S
C155 N154 1.346 . S
C155 C156 1.396 . S
C155 C165 1.510 . S
C156 C152 1.401 . S
C156 C155 1.396 . S
C157 C152 1.499 . S
C157 H158 0.959 . S
C157 H159 0.960 . S
C157 H160 0.961 . S
H158 C157 0.959 . S
H159 C157 0.960 . S
H160 C157 0.961 . S
O161 Co136 1.967 . S
O161 C169 1.258 . S
O162 Co137 1.941 . S
O162 C169 1.266 . S
H163 C165 0.959 . S
H164 C165 0.961 . S
C165 C155 1.510 . S
C165 H163 0.959 . S
C165 H164 0.961 . S
C165 H166 0.960 . S
H166 C165 0.960 . S
H167 N147 0.862 . S
O168 Co136 1.920 . S
O168 C141 1.289 . S
C169 O161 1.258 . S
C169 O162 1.266 . S
Co170 O173 1.970 . S
Co170 N187 1.989 . S
Co170 O195 1.967 . S
Co170 O202 1.920 . S
Co171 O174 1.966 . S
Co171 N180 2.022 . S
Co171 N188 1.993 . S
Co171 O196 1.941 . S
C172 O173 1.258 . S
C172 O174 1.263 . S
O173 Co170 1.970 . S
O173 C172 1.258 . S
O174 Co171 1.966 . S
O174 C172 1.263 . S
C175 O176 1.235 . S
C175 O202 1.289 . S
O176 C175 1.235 . S
C177 C179 1.400 . S
C177 N180 1.351 . S
C177 C182 1.501 . S
C178 C179 1.387 . S
C178 N181 1.341 . S
C179 C177 1.400 . S
C179 C178 1.387 . S
N180 Co171 2.022 . S
N180 C177 1.351 . S
N180 N181 1.365 . S
N181 C178 1.341 . S
N181 N180 1.365 . S
N181 H201 0.862 . S
C182 C177 1.501 . S
C182 H183 0.961 . S
C182 H184 0.961 1_554 S
C182 H185 0.960 1_554 S
H183 C182 0.961 . S
H184 C182 0.961 1_556 S
H185 C182 0.960 1_556 S
C186 N187 1.342 . S
C186 C190 1.401 . S
C186 C191 1.499 . S
N187 Co170 1.989 . S
N187 C186 1.342 . S
N187 N188 1.388 . S
N188 Co171 1.993 . S
N188 N187 1.388 . S
N188 C189 1.346 . S
C189 N188 1.346 . S
C189 C190 1.396 . S
C189 C199 1.510 . S
C190 C186 1.401 . S
C190 C189 1.396 . S
C191 C186 1.499 . S
C191 H192 0.959 . S
C191 H193 0.960 . S
C191 H194 0.961 . S
H192 C191 0.959 . S
H193 C191 0.960 . S
H194 C191 0.961 . S
O195 Co170 1.967 . S
O195 C203 1.258 . S
O196 Co171 1.941 . S
O196 C203 1.266 . S
H197 C199 0.959 . S
H198 C199 0.961 . S
C199 C189 1.510 . S
C199 H197 0.959 . S
C199 H198 0.961 . S
C199 H200 0.960 . S
H200 C199 0.960 . S
H201 N181 0.862 . S
O202 Co170 1.920 . S
O202 C175 1.289 . S
C203 O195 1.258 . S
C203 O196 1.266 . S
Co204 O207 1.970 . S
Co204 N221 1.989 . S
Co204 O229 1.967 . S
Co204 O236 1.920 . S
Co205 O208 1.966 . S
Co205 N214 2.022 . S
Co205 N222 1.993 . S
Co205 O230 1.941 . S
C206 O207 1.258 . S
C206 O208 1.263 . S
O207 Co204 1.970 . S
O207 C206 1.258 . S
O208 Co205 1.966 . S
O208 C206 1.263 . S
C209 O210 1.235 . S
C209 O236 1.289 . S
O210 C209 1.235 . S
C211 C213 1.400 . S
C211 N214 1.351 . S
C211 C216 1.501 . S
C212 C213 1.387 . S
C212 N215 1.341 . S
C213 C211 1.400 . S
C213 C212 1.387 . S
N214 Co205 2.022 . S
N214 C211 1.351 . S
N214 N215 1.365 . S
N215 C212 1.341 . S
N215 N214 1.365 . S
N215 H235 0.862 . S
C216 C211 1.501 . S
C216 H217 0.961 . S
C216 H218 0.961 . S
C216 H219 0.960 . S
H217 C216 0.961 . S
H218 C216 0.961 . S
H219 C216 0.960 . S
C220 N221 1.342 . S
C220 C224 1.401 . S
C220 C225 1.499 . S
N221 Co204 1.989 . S
N221 C220 1.342 . S
N221 N222 1.388 . S
N222 Co205 1.993 . S
N222 N221 1.388 . S
N222 C223 1.346 . S
C223 N222 1.346 . S
C223 C224 1.396 . S
C223 C233 1.510 . S
C224 C220 1.401 . S
C224 C223 1.396 . S
C225 C220 1.499 . S
C225 H226 0.959 . S
C225 H227 0.960 . S
C225 H228 0.961 . S
H226 C225 0.959 . S
H227 C225 0.960 . S
H228 C225 0.961 . S
O229 Co204 1.967 . S
O229 C237 1.258 . S
O230 Co205 1.941 . S
O230 C237 1.266 . S
H231 C233 0.959 . S
H232 C233 0.961 . S
C233 C223 1.510 . S
C233 H231 0.959 . S
C233 H232 0.961 . S
C233 H234 0.960 . S
H234 C233 0.960 . S
H235 N215 0.862 . S
O236 Co204 1.920 . S
O236 C209 1.289 . S
C237 O229 1.258 . S
C237 O230 1.266 . S
Co238 O241 1.970 . S
Co238 N255 1.989 . S
Co238 O263 1.967 . S
Co238 O270 1.920 . S
Co239 O242 1.966 . S
Co239 N248 2.022 . S
Co239 N256 1.993 . S
Co239 O264 1.941 . S
C240 O241 1.258 . S
C240 O242 1.263 . S
O241 Co238 1.970 . S
O241 C240 1.258 . S
O242 Co239 1.966 . S
O242 C240 1.263 . S
C243 O244 1.235 . S
C243 O270 1.289 . S
O244 C243 1.235 . S
C245 C247 1.400 . S
C245 N248 1.351 . S
C245 C250 1.501 . S
C246 C247 1.387 . S
C246 N249 1.341 . S
C247 C245 1.400 . S
C247 C246 1.387 . S
N248 Co239 2.022 . S
N248 C245 1.351 . S
N248 N249 1.365 . S
N249 C246 1.341 . S
N249 N248 1.365 . S
N249 H269 0.866 . S
C250 C245 1.501 . S
C250 H251 0.961 . S
C250 H252 0.961 . S
C250 H253 0.960 1_565 S
H251 C250 0.961 . S
H252 C250 0.961 . S
H253 C250 0.960 1_545 S
C254 N255 1.342 . S
C254 C258 1.401 . S
C254 C259 1.499 . S
N255 Co238 1.989 . S
N255 C254 1.342 . S
N255 N256 1.388 . S
N256 Co239 1.993 . S
N256 N255 1.388 . S
N256 C257 1.346 . S
C257 N256 1.346 . S
C257 C258 1.396 . S
C257 C267 1.510 . S
C258 C254 1.401 . S
C258 C257 1.396 . S
C259 C254 1.499 . S
C259 H260 0.959 . S
C259 H261 0.960 . S
C259 H262 0.961 . S
H260 C259 0.959 . S
H261 C259 0.960 . S
H262 C259 0.961 . S
O263 Co238 1.967 . S
O263 C271 1.258 . S
O264 Co239 1.941 . S
O264 C271 1.266 . S
H265 C267 0.959 . S
H266 C267 0.961 . S
C267 C257 1.510 . S
C267 H265 0.959 . S
C267 H266 0.961 . S
C267 H268 0.960 . S
H268 C267 0.960 . S
H269 N249 0.866 . S
O270 Co238 1.920 . S
O270 C243 1.289 . S
C271 O263 1.258 . S
C271 O264 1.266 . S
Co272 O275 1.970 . S
Co272 N289 1.989 . S
Co272 O297 1.967 . S
Co272 O304 1.920 . S
Co273 O276 1.966 . S
Co273 N282 2.022 . S
Co273 N290 1.993 . S
Co273 O298 1.941 . S
C274 O275 1.258 . S
C274 O276 1.263 . S
O275 Co272 1.970 . S
O275 C274 1.258 . S
O276 Co273 1.966 . S
O276 C274 1.263 . S
C277 O278 1.235 . S
C277 O304 1.289 . S
O278 C277 1.235 . S
C279 C281 1.400 . S
C279 N282 1.351 . S
C279 C284 1.501 . S
C280 C281 1.387 . S
C280 N283 1.341 . S
C281 C279 1.400 . S
C281 C280 1.387 . S
N282 Co273 2.022 . S
N282 C279 1.351 . S
N282 N283 1.365 . S
N283 C280 1.341 . S
N283 N282 1.365 . S
N283 H303 0.862 . S
C284 C279 1.501 . S
C284 H285 0.961 . S
C284 H286 0.961 . S
C284 H287 0.960 . S
H285 C284 0.961 . S
H286 C284 0.961 . S
H287 C284 0.960 . S
C288 N289 1.342 . S
C288 C292 1.401 . S
C288 C293 1.499 . S
N289 Co272 1.989 . S
N289 C288 1.342 . S
N289 N290 1.388 . S
N290 Co273 1.993 . S
N290 N289 1.388 . S
N290 C291 1.346 . S
C291 N290 1.346 . S
C291 C292 1.396 . S
C291 C301 1.510 . S
C292 C288 1.401 . S
C292 C291 1.396 . S
C293 C288 1.499 . S
C293 H294 0.959 . S
C293 H295 0.960 . S
C293 H296 0.961 . S
H294 C293 0.959 . S
H295 C293 0.960 . S
H296 C293 0.961 . S
O297 Co272 1.967 . S
O297 C305 1.258 . S
O298 Co273 1.941 . S
O298 C305 1.266 . S
H299 C301 0.959 . S
H300 C301 0.963 . S
C301 C291 1.510 . S
C301 H299 0.959 . S
C301 H300 0.963 . S
C301 H302 0.960 . S
H302 C301 0.960 . S
H303 N283 0.862 . S
O304 Co272 1.920 . S
O304 C277 1.289 . S
C305 O297 1.258 . S
C305 O298 1.266 . S
Co306 O309 1.970 . S
Co306 N323 1.989 . S
Co306 O331 1.967 . S
Co306 O338 1.920 . S
Co307 O310 1.966 . S
Co307 N316 2.022 . S
Co307 N324 1.993 . S
Co307 O332 1.941 . S
C308 O309 1.258 . S
C308 O310 1.263 . S
O309 Co306 1.970 . S
O309 C308 1.258 . S
O310 Co307 1.966 . S
O310 C308 1.263 . S
C311 O312 1.235 . S
C311 O338 1.289 . S
O312 C311 1.235 . S
C313 C315 1.400 . S
C313 N316 1.351 . S
C313 C318 1.501 . S
C314 C315 1.387 . S
C314 N317 1.341 . S
C315 C313 1.400 . S
C315 C314 1.387 . S
N316 Co307 2.022 . S
N316 C313 1.351 . S
N316 N317 1.365 . S
N317 C314 1.341 . S
N317 N316 1.365 . S
N317 H337 0.862 . S
C318 C313 1.501 . S
C318 H319 0.961 . S
C318 H320 0.961 . S
C318 H321 0.960 . S
H319 C318 0.961 . S
H320 C318 0.961 . S
H321 C318 0.960 . S
C322 N323 1.342 . S
C322 C326 1.401 . S
C322 C327 1.499 . S
N323 Co306 1.989 . S
N323 C322 1.342 . S
N323 N324 1.388 . S
N324 Co307 1.993 . S
N324 N323 1.388 . S
N324 C325 1.346 . S
C325 N324 1.346 . S
C325 C326 1.396 . S
C325 C335 1.510 . S
C326 C322 1.401 . S
C326 C325 1.396 . S
C327 C322 1.499 . S
C327 H328 0.959 . S
C327 H329 0.960 . S
C327 H330 0.961 . S
H328 C327 0.959 . S
H329 C327 0.960 . S
H330 C327 0.961 . S
O331 Co306 1.967 . S
O331 C339 1.258 . S
O332 Co307 1.941 . S
O332 C339 1.266 . S
H333 C335 0.959 . S
H334 C335 0.961 . S
C335 C325 1.510 . S
C335 H333 0.959 . S
C335 H334 0.961 . S
C335 H336 0.960 . S
H336 C335 0.960 . S
H337 N317 0.862 . S
O338 Co306 1.920 . S
O338 C311 1.289 . S
C339 O331 1.258 . S
C339 O332 1.266 . S
Co340 O343 1.970 . S
Co340 N357 1.989 . S
Co340 O365 1.967 . S
Co340 O372 1.920 . S
Co341 O344 1.966 . S
Co341 N350 2.022 . S
Co341 N358 1.993 . S
Co341 O366 1.941 . S
C342 O343 1.258 . S
C342 O344 1.263 . S
O343 Co340 1.970 . S
O343 C342 1.258 . S
O344 Co341 1.966 . S
O344 C342 1.263 . S
C345 O346 1.235 . S
C345 O372 1.289 . S
O346 C345 1.235 . S
C347 C349 1.400 . S
C347 N350 1.351 . S
C347 C352 1.501 . S
C348 C349 1.387 . S
C348 N351 1.341 . S
C349 C347 1.400 . S
C349 C348 1.387 . S
N350 Co341 2.022 . S
N350 C347 1.351 . S
N350 N351 1.365 . S
N351 C348 1.341 . S
N351 N350 1.365 . S
N351 H371 0.862 . S
C352 C347 1.501 . S
C352 H353 0.961 . S
C352 H354 0.961 . S
C352 H355 0.960 . S
H353 C352 0.961 . S
H354 C352 0.961 . S
H355 C352 0.960 . S
C356 N357 1.342 . S
C356 C360 1.401 . S
C356 C361 1.499 . S
N357 Co340 1.989 . S
N357 C356 1.342 . S
N357 N358 1.388 . S
N358 Co341 1.993 . S
N358 N357 1.388 . S
N358 C359 1.346 . S
C359 N358 1.346 . S
C359 C360 1.396 . S
C359 C369 1.510 . S
C360 C356 1.401 . S
C360 C359 1.396 . S
C361 C356 1.499 . S
C361 H362 0.959 . S
C361 H363 0.960 . S
C361 H364 0.961 1_554 S
H362 C361 0.959 . S
H363 C361 0.960 . S
H364 C361 0.961 1_556 S
O365 Co340 1.967 . S
O365 C373 1.258 . S
O366 Co341 1.941 . S
O366 C373 1.266 . S
H367 C369 0.959 . S
H368 C369 0.961 . S
C369 C359 1.510 . S
C369 H367 0.959 . S
C369 H368 0.961 . S
C369 H370 0.960 . S
H370 C369 0.960 . S
H371 N351 0.862 . S
O372 Co340 1.920 . S
O372 C345 1.289 . S
C373 O365 1.258 . S
C373 O366 1.266 . S
Co374 O377 1.970 . S
Co374 N391 1.989 . S
Co374 O399 1.967 . S
Co374 O406 1.920 . S
Co375 O378 1.966 . S
Co375 N384 2.022 . S
Co375 N392 1.993 . S
Co375 O400 1.941 . S
C376 O377 1.258 . S
C376 O378 1.263 . S
O377 Co374 1.970 . S
O377 C376 1.258 . S
O378 Co375 1.966 . S
O378 C376 1.263 . S
C379 O380 1.235 . S
C379 O406 1.289 . S
O380 C379 1.235 . S
C381 C383 1.400 . S
C381 N384 1.351 . S
C381 C386 1.501 . S
C382 C383 1.387 . S
C382 N385 1.341 . S
C383 C381 1.400 . S
C383 C382 1.387 . S
N384 Co375 2.022 . S
N384 C381 1.351 . S
N384 N385 1.365 . S
N385 C382 1.341 . S
N385 N384 1.365 . S
N385 H405 0.862 . S
C386 C381 1.501 . S
C386 H387 0.961 . S
C386 H388 0.961 . S
C386 H389 0.960 1_554 S
H387 C386 0.961 . S
H388 C386 0.961 . S
H389 C386 0.960 1_556 S
C390 N391 1.342 . S
C390 C394 1.401 . S
C390 C395 1.499 . S
N391 Co374 1.989 . S
N391 C390 1.342 . S
N391 N392 1.388 . S
N392 Co375 1.993 . S
N392 N391 1.388 . S
N392 C393 1.346 . S
C393 N392 1.346 . S
C393 C394 1.396 . S
C393 C403 1.510 . S
C394 C390 1.401 . S
C394 C393 1.396 . S
C395 C390 1.499 . S
C395 H396 0.959 . S
C395 H397 0.960 . S
C395 H398 0.961 . S
H396 C395 0.959 . S
H397 C395 0.960 . S
H398 C395 0.961 . S
O399 Co374 1.967 . S
O399 C407 1.258 . S
O400 Co375 1.941 . S
O400 C407 1.266 . S
H401 C403 0.959 . S
H402 C403 0.961 . S
C403 C393 1.510 . S
C403 H401 0.959 . S
C403 H402 0.961 . S
C403 H404 0.960 . S
H404 C403 0.960 . S
H405 N385 0.862 . S
O406 Co374 1.920 . S
O406 C379 1.289 . S
C407 O399 1.258 . S
C407 O400 1.266 . S
Co408 O411 1.970 . S
Co408 N425 1.989 . S
Co408 O433 1.967 . S
Co408 O440 1.920 . S
Co409 O412 1.966 . S
Co409 N418 2.022 . S
Co409 N426 1.993 . S
Co409 O434 1.941 . S
C410 O411 1.258 . S
C410 O412 1.263 . S
O411 Co408 1.970 . S
O411 C410 1.258 . S
O412 Co409 1.966 . S
O412 C410 1.263 . S
C413 O414 1.235 . S
C413 O440 1.289 . S
O414 C413 1.235 . S
C415 C417 1.400 . S
C415 N418 1.351 . S
C415 C420 1.501 . S
C416 C417 1.387 . S
C416 N419 1.341 . S
C417 C415 1.400 . S
C417 C416 1.387 . S
N418 Co409 2.022 . S
N418 C415 1.351 . S
N418 N419 1.365 . S
N419 C416 1.341 . S
N419 N418 1.365 . S
N419 H439 0.862 . S
C420 C415 1.501 . S
C420 H421 0.961 . S
C420 H422 0.961 . S
C420 H423 0.960 . S
H421 C420 0.961 . S
H422 C420 0.961 . S
H423 C420 0.960 . S
C424 N425 1.342 . S
C424 C428 1.401 . S
C424 C429 1.499 . S
N425 Co408 1.989 . S
N425 C424 1.342 . S
N425 N426 1.388 . S
N426 Co409 1.993 . S
N426 N425 1.388 . S
N426 C427 1.346 . S
C427 N426 1.346 . S
C427 C428 1.396 . S
C427 C437 1.510 . S
C428 C424 1.401 . S
C428 C427 1.396 . S
C429 C424 1.499 . S
C429 H430 0.959 . S
C429 H431 0.960 . S
C429 H432 0.961 1_455 S
H430 C429 0.959 . S
H431 C429 0.960 . S
H432 C429 0.961 1_655 S
O433 Co408 1.967 . S
O433 C441 1.258 . S
O434 Co409 1.941 . S
O434 C441 1.266 . S
H435 C437 0.959 . S
H436 C437 0.961 . S
C437 C427 1.510 . S
C437 H435 0.959 . S
C437 H436 0.961 . S
C437 H438 0.960 . S
H438 C437 0.960 . S
H439 N419 0.862 . S
O440 Co408 1.920 . S
O440 C413 1.289 . S
C441 O433 1.258 . S
C441 O434 1.266 . S
Co442 O445 1.970 . S
Co442 N459 1.989 . S
Co442 O467 1.967 . S
Co442 O474 1.920 . S
Co443 O446 1.966 . S
Co443 N452 2.022 . S
Co443 N460 1.993 . S
Co443 O468 1.941 . S
C444 O445 1.258 . S
C444 O446 1.263 . S
O445 Co442 1.970 . S
O445 C444 1.258 . S
O446 Co443 1.966 . S
O446 C444 1.263 . S
C447 O448 1.235 . S
C447 O474 1.289 . S
O448 C447 1.235 . S
C449 C451 1.400 . S
C449 N452 1.351 . S
C449 C454 1.501 . S
C450 C451 1.387 . S
C450 N453 1.341 . S
C451 C449 1.400 . S
C451 C450 1.387 . S
N452 Co443 2.022 . S
N452 C449 1.351 . S
N452 N453 1.365 . S
N453 C450 1.341 . S
N453 N452 1.365 . S
N453 H473 0.862 . S
C454 C449 1.501 . S
C454 H455 0.961 . S
C454 H456 0.961 . S
C454 H457 0.960 . S
H455 C454 0.961 . S
H456 C454 0.961 . S
H457 C454 0.960 . S
C458 N459 1.342 . S
C458 C462 1.401 . S
C458 C463 1.499 . S
N459 Co442 1.989 . S
N459 C458 1.342 . S
N459 N460 1.388 . S
N460 Co443 1.993 . S
N460 N459 1.388 . S
N460 C461 1.346 . S
C461 N460 1.346 . S
C461 C462 1.396 . S
C461 C471 1.510 . S
C462 C458 1.401 . S
C462 C461 1.396 . S
C463 C458 1.499 . S
C463 H464 0.959 . S
C463 H465 0.960 . S
C463 H466 0.961 . S
H464 C463 0.959 . S
H465 C463 0.960 . S
H466 C463 0.961 . S
O467 Co442 1.967 . S
O467 C475 1.258 . S
O468 Co443 1.941 . S
O468 C475 1.266 . S
H469 C471 0.959 . S
H470 C471 0.961 . S
C471 C461 1.510 . S
C471 H469 0.959 . S
C471 H470 0.961 . S
C471 H472 0.960 . S
H472 C471 0.960 . S
H473 N453 0.862 . S
O474 Co442 1.920 . S
O474 C447 1.289 . S
C475 O467 1.258 . S
C475 O468 1.266 . S
Co476 O479 1.970 . S
Co476 N493 1.989 . S
Co476 O501 1.967 . S
Co476 O508 1.920 . S
Co477 O480 1.966 . S
Co477 N486 2.022 . S
Co477 N494 1.993 . S
Co477 O502 1.941 . S
C478 O479 1.258 . S
C478 O480 1.263 . S
O479 Co476 1.970 . S
O479 C478 1.258 . S
O480 Co477 1.966 . S
O480 C478 1.263 . S
C481 O482 1.235 . S
C481 O508 1.289 . S
O482 C481 1.235 . S
C483 C485 1.400 . S
C483 N486 1.351 . S
C483 C488 1.501 . S
C484 C485 1.387 . S
C484 N487 1.341 . S
C485 C483 1.400 . S
C485 C484 1.387 . S
N486 Co477 2.022 . S
N486 C483 1.351 . S
N486 N487 1.365 . S
N487 C484 1.341 . S
N487 N486 1.365 . S
N487 H507 0.862 . S
C488 C483 1.501 . S
C488 H489 0.961 . S
C488 H490 0.961 . S
C488 H491 0.960 . S
H489 C488 0.961 . S
H490 C488 0.961 . S
H491 C488 0.960 . S
C492 N493 1.342 . S
C492 C496 1.401 . S
C492 C497 1.499 . S
N493 Co476 1.989 . S
N493 C492 1.342 . S
N493 N494 1.388 . S
N494 Co477 1.993 . S
N494 N493 1.388 . S
N494 C495 1.346 . S
C495 N494 1.346 . S
C495 C496 1.396 . S
C495 C505 1.510 . S
C496 C492 1.401 . S
C496 C495 1.396 . S
C497 C492 1.499 . S
C497 H498 0.959 . S
C497 H499 0.960 . S
C497 H500 0.961 . S
H498 C497 0.959 . S
H499 C497 0.960 . S
H500 C497 0.961 . S
O501 Co476 1.967 . S
O501 C509 1.258 . S
O502 Co477 1.941 . S
O502 C509 1.266 . S
H503 C505 0.959 . S
H504 C505 0.961 . S
C505 C495 1.510 . S
C505 H503 0.959 . S
C505 H504 0.961 . S
C505 H506 0.960 . S
H506 C505 0.960 . S
H507 N487 0.862 . S
O508 Co476 1.920 . S
O508 C481 1.289 . S
C509 O501 1.258 . S
C509 O502 1.266 . S
Co510 O513 1.970 . S
Co510 N527 1.989 . S
Co510 O535 1.967 . S
Co510 O542 1.920 . S
Co511 O514 1.966 . S
Co511 N520 2.022 . S
Co511 N528 1.993 . S
Co511 O536 1.941 . S
C512 O513 1.258 . S
C512 O514 1.263 . S
O513 Co510 1.970 . S
O513 C512 1.258 . S
O514 Co511 1.966 . S
O514 C512 1.263 . S
C515 O516 1.235 . S
C515 O542 1.289 . S
O516 C515 1.235 . S
C517 C519 1.400 . S
C517 N520 1.351 . S
C517 C522 1.501 . S
C518 C519 1.387 . S
C518 N521 1.341 . S
C519 C517 1.400 . S
C519 C518 1.387 . S
N520 Co511 2.022 . S
N520 C517 1.351 . S
N520 N521 1.365 . S
N521 C518 1.341 . S
N521 N520 1.365 . S
N521 H541 0.862 . S
C522 C517 1.501 . S
C522 H523 0.961 . S
C522 H524 0.961 . S
C522 H525 0.960 . S
H523 C522 0.961 . S
H524 C522 0.961 . S
H525 C522 0.960 . S
C526 N527 1.342 . S
C526 C530 1.401 . S
C526 C531 1.499 . S
N527 Co510 1.989 . S
N527 C526 1.342 . S
N527 N528 1.388 . S
N528 Co511 1.993 . S
N528 N527 1.388 . S
N528 C529 1.346 . S
C529 N528 1.346 . S
C529 C530 1.396 . S
C529 C539 1.510 . S
C530 C526 1.401 . S
C530 C529 1.396 . S
C531 C526 1.499 . S
C531 H532 0.959 . S
C531 H533 0.960 . S
C531 H534 0.961 . S
H532 C531 0.959 . S
H533 C531 0.960 . S
H534 C531 0.961 . S
O535 Co510 1.967 . S
O535 C543 1.258 . S
O536 Co511 1.941 . S
O536 C543 1.266 . S
H537 C539 0.959 . S
H538 C539 0.961 . S
C539 C529 1.510 . S
C539 H537 0.959 . S
C539 H538 0.961 . S
C539 H540 0.960 . S
H540 C539 0.960 . S
H541 N521 0.862 . S
O542 Co510 1.920 . S
O542 C515 1.289 . S
C543 O535 1.258 . S
C543 O536 1.266 . S
C544 C545 1.387 . S
C544 H548 0.950 . S
C544 C553 1.390 . S
C545 C544 1.387 . S
C545 C547 1.387 . S
H546 C553 0.950 . S
C547 C545 1.387 . S
C547 C549 1.390 . S
C547 H551 0.950 . S
H548 C544 0.950 . S
C549 C547 1.390 . S
C549 C550 1.387 . S
C549 H552 0.950 . S
C550 C549 1.387 . S
C550 C553 1.387 . S
H551 C547 0.950 . S
H552 C549 0.950 . S
C553 C544 1.390 . S
C553 H546 0.950 . S
C553 C550 1.387 . S
C554 C555 1.387 1_545 S
C554 H558 0.950 . S
C554 C563 1.390 1_655 S
C555 C554 1.387 1_565 S
C555 C557 1.387 . S
H556 C563 0.950 . S
C557 C555 1.387 . S
C557 C559 1.390 1_655 S
C557 H561 0.950 . S
H558 C554 0.950 . S
C559 C557 1.390 1_455 S
C559 C560 1.387 . S
C559 H562 0.950 . S
C560 C559 1.387 . S
C560 C563 1.387 1_565 S
H561 C557 0.950 . S
H562 C559 0.950 . S
C563 C554 1.390 1_455 S
C563 H556 0.950 . S
C563 C560 1.387 1_545 S
C564 C565 1.387 . S
C564 H568 0.950 . S
C564 C573 1.390 . S
C565 C564 1.387 . S
C565 C567 1.387 . S
H566 C573 0.950 . S
C567 C565 1.387 . S
C567 C569 1.390 . S
C567 H571 0.950 . S
H568 C564 0.950 . S
C569 C567 1.390 . S
C569 C570 1.387 . S
C569 H572 0.950 . S
C570 C569 1.387 . S
C570 C573 1.387 . S
H571 C567 0.950 . S
H572 C569 0.950 . S
C573 C564 1.390 . S
C573 H566 0.950 . S
C573 C570 1.387 . S
C574 C575 1.387 1_554 S
C574 H578 0.950 . S
C574 C583 1.390 . S
C575 C574 1.387 1_556 S
C575 C577 1.387 1_545 S
H576 C583 0.950 . S
C577 C575 1.387 1_565 S
C577 C579 1.405 . S
C577 H581 0.950 . S
H578 C574 0.950 . S
C579 C577 1.405 . S
C579 C580 1.364 1_556 S
C579 H582 0.959 . S
C580 C579 1.364 1_554 S
C580 C583 1.387 1_565 S
H581 C577 0.950 . S
H582 C579 0.959 . S
C583 C574 1.390 . S
C583 H576 0.950 . S
C583 C580 1.387 1_545 S
C584 C585 1.387 . S
C584 H588 0.950 . S
C584 C593 1.390 . S
C585 C584 1.387 . S
C585 C587 1.387 . S
H586 C593 0.950 . S
C587 C585 1.387 . S
C587 C589 1.390 . S
C587 H591 0.950 . S
H588 C584 0.950 . S
C589 C587 1.390 . S
C589 C590 1.387 . S
C589 H592 0.950 . S
C590 C589 1.387 . S
C590 C593 1.387 . S
H591 C587 0.950 . S
H592 C589 0.950 . S
C593 C584 1.390 . S
C593 H586 0.950 . S
C593 C590 1.387 . S
C594 C595 1.387 1_545 S
C594 H598 0.950 . S
C594 C603 1.390 . S
C595 C594 1.387 1_565 S
C595 C597 1.387 . S
H596 C603 0.950 . S
C597 C595 1.387 . S
C597 C599 1.390 1_565 S
C597 H601 0.950 . S
H598 C594 0.950 . S
C599 C597 1.390 1_545 S
C599 C600 1.387 . S
C599 H602 0.950 1_545 S
C600 C599 1.387 . S
C600 C603 1.387 . S
H601 C597 0.950 . S
H602 C599 0.950 1_565 S
C603 C594 1.390 . S
C603 H596 0.950 . S
C603 C600 1.387 . S
C604 C605 1.387 . S
C604 H608 0.950 . S
C604 C613 1.390 . S
C605 C604 1.387 . S
C605 C607 1.387 . S
H606 C613 0.950 . S
C607 C605 1.387 . S
C607 C609 1.390 . S
C607 H611 0.950 . S
H608 C604 0.950 . S
C609 C607 1.390 . S
C609 C610 1.387 . S
C609 H612 0.950 . S
C610 C609 1.387 . S
C610 C613 1.387 . S
H611 C607 0.950 . S
H612 C609 0.950 . S
C613 C604 1.390 . S
C613 H606 0.950 . S
C613 C610 1.387 . S
C614 C615 1.416 . S
C614 H618 0.938 1_545 S
C614 C623 1.374 1_545 S
C615 C614 1.416 . S
C615 C617 1.387 . S
H616 C623 0.950 . S
C617 C615 1.387 . S
C617 C619 1.390 1_454 S
C617 H621 0.950 1_455 S
H618 C614 0.938 1_565 S
C619 C617 1.390 1_656 S
C619 C620 1.387 1_645 S
C619 H622 0.950 . S
C620 C619 1.387 1_465 S
C620 C623 1.387 1_556 S
H621 C617 0.950 1_655 S
H622 C619 0.950 . S
C623 C614 1.374 1_565 S
C623 H616 0.950 . S
C623 C620 1.387 1_554 S
C624 C625 1.387 . S
C624 H628 0.950 . S
C624 C633 1.390 . S
C625 C624 1.387 . S
C625 C627 1.387 . S
H626 C633 0.950 . S
C627 C625 1.387 . S
C627 C629 1.390 . S
C627 H631 0.950 . S
H628 C624 0.950 . S
C629 C627 1.390 . S
C629 C630 1.387 . S
C629 H632 0.950 . S
C630 C629 1.387 . S
C630 C633 1.387 . S
H631 C627 0.950 . S
H632 C629 0.950 . S
C633 C624 1.390 . S
C633 H626 0.950 . S
C633 C630 1.387 . S
C634 C635 1.387 . S
C634 H638 0.950 . S
C634 C643 1.390 . S
C635 C634 1.387 . S
C635 C637 1.387 1_556 S
H636 C643 0.950 1_655 S
C637 C635 1.387 1_554 S
C637 C639 1.390 1_455 S
C637 H641 0.950 . S
H638 C634 0.950 . S
C639 C637 1.390 1_655 S
C639 C640 1.387 . S
C639 H642 0.950 . S
C640 C639 1.387 . S
C640 C643 1.387 1_654 S
H641 C637 0.950 . S
H642 C639 0.950 . S
C643 C634 1.390 . S
C643 H636 0.950 1_455 S
C643 C640 1.387 1_456 S
C644 C645 1.387 . S
C644 H648 0.950 . S
C644 C653 1.390 . S
C645 C644 1.387 . S
C645 C647 1.387 . S
H646 C653 0.950 . S
C647 C645 1.387 . S
C647 C649 1.390 . S
C647 H651 0.950 . S
H648 C644 0.950 . S
C649 C647 1.390 . S
C649 C650 1.387 . S
C649 H652 0.950 . S
C650 C649 1.387 . S
C650 C653 1.387 . S
H651 C647 0.950 . S
H652 C649 0.950 . S
C653 C644 1.390 . S
C653 H646 0.950 . S
C653 C650 1.387 . S
C654 C655 1.387 1_455 S
C654 H658 0.950 . S
C654 C663 1.390 . S
C655 C654 1.387 1_655 S
C655 C657 1.387 . S
H656 C663 0.950 . S
C657 C655 1.387 . S
C657 C659 1.390 . S
C657 H661 0.950 . S
H658 C654 0.950 . S
C659 C657 1.390 . S
C659 C660 1.387 1_655 S
C659 H662 0.950 . S
C660 C659 1.387 1_455 S
C660 C663 1.387 . S
H661 C657 0.950 . S
H662 C659 0.950 . S
C663 C654 1.390 . S
C663 H656 0.950 . S
C663 C660 1.387 . S
C664 C665 1.387 . S
C664 H668 0.950 . S
C664 C673 1.390 . S
C665 C664 1.387 . S
C665 C667 1.387 1_556 S
H666 C673 0.950 . S
C667 C665 1.387 1_554 S
C667 C669 1.390 . S
C667 H671 0.950 . S
H668 C664 0.950 . S
C669 C667 1.390 . S
C669 C670 1.387 . S
C669 H672 0.950 . S
C670 C669 1.387 . S
C670 C673 1.387 1_554 S
H671 C667 0.950 . S
H672 C669 0.950 . S
C673 C664 1.390 . S
C673 H666 0.950 . S
C673 C670 1.387 1_556 S
C674 C675 1.387 . S
C674 H678 0.950 . S
C674 C683 1.390 . S
C675 C674 1.387 . S
C675 C677 1.387 . S
H676 C683 0.950 . S
C677 C675 1.387 . S
C677 C679 1.390 . S
C677 H681 0.950 . S
H678 C674 0.950 . S
C679 C677 1.390 . S
C679 C680 1.387 . S
C679 H682 0.950 . S
C680 C679 1.387 . S
C680 C683 1.387 . S
H681 C677 0.950 . S
H682 C679 0.950 . S
C683 C674 1.390 . S
C683 H676 0.950 . S
C683 C680 1.387 . S
C684 C685 1.387 . S
C684 H688 0.950 . S
C684 C693 1.390 . S
C685 C684 1.387 . S
C685 C687 1.387 . S
H686 C693 0.950 . S
C687 C685 1.387 . S
C687 C689 1.390 . S
C687 H691 0.950 . S
H688 C684 0.950 . S
C689 C687 1.390 . S
C689 C690 1.387 . S
C689 H692 0.950 . S
C690 C689 1.387 . S
C690 C693 1.387 . S
H691 C687 0.950 . S
H692 C689 0.950 . S
C693 C684 1.390 . S
C693 H686 0.950 . S
C693 C690 1.387 . S
C694 C695 1.387 . S
C694 H698 0.950 . S
C694 C703 1.390 . S
C695 C694 1.387 . S
C695 C697 1.387 . S
H696 C703 0.950 . S
C697 C695 1.387 . S
C697 C699 1.390 . S
C697 H701 0.950 . S
H698 C694 0.950 . S
C699 C697 1.390 . S
C699 C700 1.387 . S
C699 H702 0.950 . S
C700 C699 1.387 . S
C700 C703 1.387 . S
H701 C697 0.950 . S
H702 C699 0.950 . S
C703 C694 1.390 . S
C703 H696 0.950 . S
C703 C700 1.387 . S
C704 C705 1.387 . S
C704 H708 0.950 . S
C704 C713 1.409 . S
C705 C704 1.387 . S
C705 C707 1.387 . S
H706 C713 0.945 1_565 S
C707 C705 1.387 . S
C707 C709 1.390 1_545 S
C707 H711 0.950 . S
H708 C704 0.950 . S
C709 C707 1.390 1_565 S
C709 C710 1.387 . S
C709 H712 0.950 . S
C710 C709 1.387 . S
C710 C713 1.374 1_565 S
H711 C707 0.950 . S
H712 C709 0.950 . S
C713 C704 1.409 . S
C713 H706 0.945 1_545 S
C713 C710 1.374 1_545 S
C714 C715 1.387 . S
C714 H718 0.950 . S
C714 C723 1.390 . S
C715 C714 1.387 . S
C715 C717 1.387 . S
H716 C723 0.950 . S
C717 C715 1.387 . S
C717 C719 1.390 . S
C717 H721 0.950 . S
H718 C714 0.950 . S
C719 C717 1.390 . S
C719 C720 1.387 . S
C719 H722 0.950 . S
C720 C719 1.387 . S
C720 C723 1.387 . S
H721 C717 0.950 . S
H722 C719 0.950 . S
C723 C714 1.390 . S
C723 H716 0.950 . S
C723 C720 1.387 . S
C724 C725 1.387 1_545 S
C724 H728 0.950 . S
C724 C733 1.390 . S
C725 C724 1.387 1_565 S
C725 C727 1.387 . S
H726 C733 0.950 . S
C727 C725 1.387 . S
C727 C729 1.390 1_565 S
C727 H731 0.950 . S
H728 C724 0.950 . S
C729 C727 1.390 1_545 S
C729 C730 1.387 . S
C729 H732 0.950 . S
C730 C729 1.387 . S
C730 C733 1.387 . S
H731 C727 0.950 . S
H732 C729 0.950 . S
C733 C724 1.390 . S
C733 H726 0.950 . S
C733 C730 1.387 . S
C734 C735 1.387 . S
C734 H738 0.950 . S
C734 C743 1.390 1_556 S
C735 C734 1.387 . S
C735 C737 1.387 1_556 S
H736 C743 0.950 . S
C737 C735 1.387 1_554 S
C737 C739 1.390 . S
C737 H741 0.950 1_554 S
H738 C734 0.950 . S
C739 C737 1.390 . S
C739 C740 1.387 . S
C739 H742 0.950 . S
C740 C739 1.387 . S
C740 C743 1.387 . S
H741 C737 0.950 1_556 S
H742 C739 0.950 . S
C743 C734 1.390 1_554 S
C743 H736 0.950 . S
C743 C740 1.387 . S
C744 C745 1.387 . S
C744 H748 0.950 . S
C744 C753 1.390 1_455 S
C745 C744 1.387 . S
C745 C747 1.387 . S
H746 C753 0.950 . S
C747 C745 1.387 . S
C747 C749 1.390 1_455 S
C747 H751 0.950 . S
H748 C744 0.950 . S
C749 C747 1.390 1_655 S
C749 C750 1.387 . S
C749 H752 0.950 . S
C750 C749 1.387 . S
C750 C753 1.387 . S
H751 C747 0.950 . S
H752 C749 0.950 . S
C753 C744 1.390 1_655 S
C753 H746 0.950 . S
C753 C750 1.387 . S
C754 C755 1.387 . S
C754 H758 0.950 . S
C754 C763 1.390 . S
C755 C754 1.387 . S
C755 C757 1.387 . S
H756 C763 0.950 . S
C757 C755 1.387 . S
C757 C759 1.390 . S
C757 H761 0.950 . S
H758 C754 0.950 . S
C759 C757 1.390 . S
C759 C760 1.387 . S
C759 H762 0.950 . S
C760 C759 1.387 . S
C760 C763 1.387 . S
H761 C757 0.950 . S
H762 C759 0.950 . S
C763 C754 1.390 . S
C763 H756 0.950 . S
C763 C760 1.387 . S
C764 C765 1.387 . S
C764 H768 0.950 . S
C764 C773 1.390 1_655 S
C765 C764 1.387 . S
C765 C767 1.387 . S
H766 C773 0.950 . S
C767 C765 1.387 . S
C767 C769 1.390 1_655 S
C767 H771 0.950 . S
H768 C764 0.950 . S
C769 C767 1.390 1_455 S
C769 C770 1.387 . S
C769 H772 0.950 . S
C770 C769 1.387 . S
C770 C773 1.387 . S
H771 C767 0.950 . S
H772 C769 0.950 . S
C773 C764 1.390 1_455 S
C773 H766 0.950 . S
C773 C770 1.387 . S
C774 C775 1.387 . S
C774 H778 0.950 . S
C774 C783 1.390 . S
C775 C774 1.387 . S
C775 C777 1.387 . S
H776 C783 0.950 . S
C777 C775 1.387 . S
C777 C779 1.390 . S
C777 H781 0.950 . S
H778 C774 0.950 . S
C779 C777 1.390 . S
C779 C780 1.387 . S
C779 H782 0.950 . S
C780 C779 1.387 . S
C780 C783 1.387 . S
H781 C777 0.950 . S
H782 C779 0.950 . S
C783 C774 1.390 . S
C783 H776 0.950 . S
C783 C780 1.387 . S
C784 C785 1.387 . S
C784 H788 0.950 . S
C784 C793 1.390 . S
C785 C784 1.387 . S
C785 C787 1.387 1_545 S
H786 C793 0.950 . S
C787 C785 1.387 1_565 S
C787 C789 1.390 . S
C787 H791 0.950 . S
H788 C784 0.950 . S
C789 C787 1.390 . S
C789 C790 1.387 . S
C789 H792 0.950 . S
C790 C789 1.387 . S
C790 C793 1.387 1_565 S
H791 C787 0.950 . S
H792 C789 0.950 . S
C793 C784 1.390 . S
C793 H786 0.950 . S
C793 C790 1.387 1_545 S
C794 C795 1.387 . S
C794 H798 0.950 . S
C794 C803 1.390 . S
C795 C794 1.387 . S
C795 C797 1.387 . S
H796 C803 0.950 . S
C797 C795 1.387 . S
C797 C799 1.390 . S
C797 H801 0.950 . S
H798 C794 0.950 . S
C799 C797 1.390 . S
C799 C800 1.387 . S
C799 H802 0.950 . S
C800 C799 1.387 . S
C800 C803 1.387 . S
H801 C797 0.950 . S
H802 C799 0.950 . S
C803 C794 1.390 . S
C803 H796 0.950 . S
C803 C800 1.387 . S
C804 C805 1.387 1_565 S
C804 H808 0.950 . S
C804 C813 1.390 . S
C805 C804 1.387 1_545 S
C805 C807 1.387 . S
H806 C813 0.950 . S
C807 C805 1.387 . S
C807 C809 1.390 1_545 S
C807 H811 0.950 . S
H808 C804 0.950 . S
C809 C807 1.390 1_565 S
C809 C810 1.387 . S
C809 H812 0.950 . S
C810 C809 1.387 . S
C810 C813 1.387 . S
H811 C807 0.950 . S
H812 C809 0.950 . S
C813 C804 1.390 . S
C813 H806 0.950 . S
C813 C810 1.387 . S
C814 C815 1.391 . S
C814 H818 0.952 . S
C814 C823 1.384 1_554 S
C815 C814 1.391 . S
C815 C817 1.387 . S
H816 C823 0.950 . S
C817 C815 1.387 . S
C817 C819 1.390 1_554 S
C817 H821 0.950 . S
H818 C814 0.952 . S
C819 C817 1.390 1_556 S
C819 C820 1.387 . S
C819 H822 0.950 . S
C820 C819 1.387 . S
C820 C823 1.387 . S
H821 C817 0.950 . S
H822 C819 0.950 . S
C823 C814 1.384 1_556 S
C823 H816 0.950 . S
C823 C820 1.387 . S
C824 C825 1.387 . S
C824 H828 0.950 . S
C824 C833 1.390 1_455 S
C825 C824 1.387 . S
C825 C827 1.387 . S
H826 C833 0.950 . S
C827 C825 1.387 . S
C827 C829 1.390 1_455 S
C827 H831 0.950 . S
H828 C824 0.950 . S
C829 C827 1.390 1_655 S
C829 C830 1.387 . S
C829 H832 0.950 . S
C830 C829 1.387 . S
C830 C833 1.387 . S
H831 C827 0.950 . S
H832 C829 0.950 . S
C833 C824 1.390 1_655 S
C833 H826 0.950 . S
C833 C830 1.387 . S
C834 C835 1.387 . S
C834 H838 0.950 . S
C834 C843 1.390 . S
C835 C834 1.387 . S
C835 C837 1.387 . S
H836 C843 0.950 . S
C837 C835 1.387 . S
C837 C839 1.390 . S
C837 H841 0.950 . S
H838 C834 0.950 . S
C839 C837 1.390 . S
C839 C840 1.387 . S
C839 H842 0.950 . S
C840 C839 1.387 . S
C840 C843 1.387 . S
H841 C837 0.950 . S
H842 C839 0.950 . S
C843 C834 1.390 . S
C843 H836 0.950 . S
C843 C840 1.387 . S
C844 C845 1.387 . S
C844 H848 0.950 . S
C844 C853 1.390 . S
C845 C844 1.387 . S
C845 C847 1.387 . S
H846 C853 0.950 . S
C847 C845 1.387 . S
C847 C849 1.390 1_655 S
C847 H851 0.950 . S
H848 C844 0.950 . S
C849 C847 1.390 1_455 S
C849 C850 1.387 . S
C849 H852 0.950 . S
C850 C849 1.387 . S
C850 C853 1.387 1_455 S
H851 C847 0.950 . S
H852 C849 0.950 . S
C853 C844 1.390 . S
C853 H846 0.950 . S
C853 C850 1.387 1_655 S
C854 C855 1.387 . S
C854 H858 0.950 . S
C854 C863 1.390 . S
C855 C854 1.387 . S
C855 C857 1.387 . S
H856 C863 0.950 . S
C857 C855 1.387 . S
C857 C859 1.390 . S
C857 H861 0.950 . S
H858 C854 0.950 . S
C859 C857 1.390 . S
C859 C860 1.387 . S
C859 H862 0.950 . S
C860 C859 1.387 . S
C860 C863 1.387 . S
H861 C857 0.950 . S
H862 C859 0.950 . S
C863 C854 1.390 . S
C863 H856 0.950 . S
C863 C860 1.387 . S
C864 C865 1.387 . S
C864 H868 0.950 . S
C864 C873 1.390 . S
C865 C864 1.387 . S
C865 C867 1.387 . S
H866 C873 0.950 . S
C867 C865 1.387 . S
C867 C869 1.390 . S
C867 H871 0.950 . S
H868 C864 0.950 . S
C869 C867 1.390 . S
C869 C870 1.387 . S
C869 H872 0.950 . S
C870 C869 1.387 . S
C870 C873 1.387 . S
H871 C867 0.950 . S
H872 C869 0.950 . S
C873 C864 1.390 . S
C873 H866 0.950 . S
C873 C870 1.387 . S
C874 C875 1.387 . S
C874 H878 0.950 . S
C874 C883 1.390 1_556 S
C875 C874 1.387 . S
C875 C877 1.387 1_556 S
H876 C883 0.950 . S
C877 C875 1.387 1_554 S
C877 C879 1.390 . S
C877 H881 0.951 . S
H878 C874 0.950 . S
C879 C877 1.390 . S
C879 C880 1.387 . S
C879 H882 0.950 . S
C880 C879 1.387 . S
C880 C883 1.387 . S
H881 C877 0.951 . S
H882 C879 0.950 . S
C883 C874 1.390 1_554 S
C883 H876 0.950 . S
C883 C880 1.387 . S
C884 C885 1.387 . S
C884 H888 0.950 . S
C884 C893 1.390 . S
C885 C884 1.387 . S
C885 C887 1.387 . S
H886 C893 0.950 . S
C887 C885 1.387 . S
C887 C889 1.390 . S
C887 H891 0.950 . S
H888 C884 0.950 . S
C889 C887 1.390 . S
C889 C890 1.387 . S
C889 H892 0.950 . S
C890 C889 1.387 . S
C890 C893 1.387 . S
H891 C887 0.950 . S
H892 C889 0.950 . S
C893 C884 1.390 . S
C893 H886 0.950 . S
C893 C890 1.387 . S
C894 C895 1.387 . S
C894 H898 0.950 . S
C894 C903 1.390 . S
C895 C894 1.387 . S
C895 C897 1.387 . S
H896 C903 0.950 . S
C897 C895 1.387 . S
C897 C899 1.390 . S
C897 H901 0.950 . S
H898 C894 0.950 . S
C899 C897 1.390 . S
C899 C900 1.387 . S
C899 H902 0.950 . S
C900 C899 1.387 . S
C900 C903 1.387 . S
H901 C897 0.950 . S
H902 C899 0.950 . S
C903 C894 1.390 . S
C903 H896 0.950 . S
C903 C900 1.387 . S
C904 C905 1.387 . S
C904 H908 0.950 . S
C904 C913 1.390 . S
C905 C904 1.387 . S
C905 C907 1.387 . S
H906 C913 0.950 . S
C907 C905 1.387 . S
C907 C909 1.390 . S
C907 H911 0.950 . S
H908 C904 0.950 . S
C909 C907 1.390 . S
C909 C910 1.387 . S
C909 H912 0.950 . S
C910 C909 1.387 . S
C910 C913 1.387 . S
H911 C907 0.950 . S
H912 C909 0.950 . S
C913 C904 1.390 . S
C913 H906 0.950 . S
C913 C910 1.387 . S
C914 C915 1.387 . S
C914 H918 0.950 . S
C914 C923 1.390 1_556 S
C915 C914 1.387 . S
C915 C917 1.387 . S
H916 C923 0.950 . S
C917 C915 1.387 . S
C917 C919 1.390 . S
C917 H921 0.950 . S
H918 C914 0.950 . S
C919 C917 1.390 . S
C919 C920 1.387 1_556 S
C919 H922 0.950 . S
C920 C919 1.387 1_554 S
C920 C923 1.387 . S
H921 C917 0.950 . S
H922 C919 0.950 . S
C923 C914 1.390 1_554 S
C923 H916 0.950 . S
C923 C920 1.387 . S
C924 C925 1.387 . S
C924 H928 0.950 . S
C924 C933 1.390 . S
C925 C924 1.387 . S
C925 C927 1.387 . S
H926 C933 0.950 . S
C927 C925 1.387 . S
C927 C929 1.390 . S
C927 H931 0.950 . S
H928 C924 0.950 . S
C929 C927 1.390 . S
C929 C930 1.387 . S
C929 H932 0.950 . S
C930 C929 1.387 . S
C930 C933 1.387 . S
H931 C927 0.950 . S
H932 C929 0.950 . S
C933 C924 1.390 . S
C933 H926 0.950 . S
C933 C930 1.387 . S
C934 C935 1.387 . S
C934 H938 0.950 . S
C934 C943 1.390 . S
C935 C934 1.387 . S
C935 C937 1.387 . S
H936 C943 0.950 . S
C937 C935 1.387 . S
C937 C939 1.390 . S
C937 H941 0.950 . S
H938 C934 0.950 . S
C939 C937 1.390 . S
C939 C940 1.387 . S
C939 H942 0.950 . S
C940 C939 1.387 . S
C940 C943 1.387 . S
H941 C937 0.950 . S
H942 C939 0.950 . S
C943 C934 1.390 . S
C943 H936 0.950 . S
C943 C940 1.387 . S
C545 C9 0.887 . S
C550 C515 0.976 . S
C555 C281 1.536 1_565 S
C560 C39 1.787 . S
C565 C417 1.083 . S
C570 C77 1.098 . S
C575 C111 1.456 . S
C580 C345 1.612 . S
C585 C379 1.550 . S
C590 C43 1.334 . S
C595 C73 1.356 . S
C600 C311 1.348 . S
C605 C107 1.621 . S
C610 C451 1.427 . S
C615 C5 1.135 . S
C620 C247 1.002 1_455 S
C625 C277 1.577 . S
C630 C145 1.366 . S
C635 C413 1.203 . S
C640 C179 1.063 . S
C645 C209 1.694 . S
C650 C349 1.488 . S
C655 C213 1.411 . S
C660 C447 1.570 . S
C665 C141 1.709 . S
C670 C383 1.469 . S
C675 C485 0.924 . S
C680 C243 1.021 . S
C685 C315 1.329 . S
C690 C175 1.532 . S
C695 C519 0.957 . S
C700 C481 1.072 . S
C705 C2 1.860 . S
C710 C54 1.861 . S
C715 C36 2.149 . S
C720 C101 2.173 . S
C725 C70 2.088 . S
C730 C104 2.106 . S
C735 C122 1.561 . S
C740 C33 1.572 . S
C745 C20 1.785 . S
C750 C190 1.787 . S
C755 C169 1.699 . S
C760 C135 1.698 . S
C765 C237 1.881 . S
C770 C67 1.882 . S
C775 C496 1.760 . S
C780 C88 1.759 . S
C785 C292 2.035 . S
C790 C240 2.018 . S
C795 C274 2.095 . S
C800 C308 2.099 . S
C805 C339 2.116 . S
C810 C342 2.071 . S
C815 C360 1.800 . S
C820 C271 1.826 . S
C825 C428 1.724 . S
C830 C258 1.723 . S
C835 C407 1.623 . S
C840 C373 1.618 . S
C845 C305 1.616 . S
C850 C475 1.612 . S
C855 C530 1.681 . S
C860 C326 1.681 . S
C865 C156 1.989 . S
C870 C478 1.984 . S
C875 C138 2.329 . S
C880 C172 2.326 . S
C885 C203 1.926 . S
C890 C206 1.913 . S
C895 C509 1.454 . S
C900 C224 1.442 . S
C905 C394 2.017 . S
C910 C512 1.998 . S
C915 C410 2.039 . S
C920 C376 2.039 . S
C925 C441 2.068 . S
C930 C444 2.021 . S
C935 C543 1.809 . S
C940 C462 1.783 . S
