# Generated by pormake.
# Topology neb, (4)-cn, num edge types: 1
# Building blocks:
#     Node 0, Type 0, BuildingBlock: QUQFOY_clean_sbu_3, # of connection points: 4
#     Node 1, Type 0, BuildingBlock: QUQFOY_clean_sbu_3, # of connection points: 4
#     Node 2, Type 0, BuildingBlock: QUQFOY_clean_sbu_3, # of connection points: 4
#     Node 3, Type 0, BuildingBlock: QUQFOY_clean_sbu_3, # of connection points: 4
#     Node 4, Type 0, BuildingBlock: QUQFOY_clean_sbu_3, # of connection points: 4
#     Node 5, Type 0, BuildingBlock: QUQFOY_clean_sbu_3, # of connection points: 4
#     Node 6, Type 0, BuildingBlock: QUQFOY_clean_sbu_3, # of connection points: 4
#     Node 7, Type 0, BuildingBlock: QUQFOY_clean_sbu_3, # of connection points: 4
#     Node 8, Type 0, BuildingBlock: QUQFOY_clean_sbu_3, # of connection points: 4
#     Node 9, Type 0, BuildingBlock: QUQFOY_clean_sbu_3, # of connection points: 4
#     Node 10, Type 0, BuildingBlock: QUQFOY_clean_sbu_3, # of connection points: 4
#     Node 11, Type 0, BuildingBlock: QUQFOY_clean_sbu_3, # of connection points: 4
#     Node 12, Type 0, BuildingBlock: QUQFOY_clean_sbu_3, # of connection points: 4
#     Node 13, Type 0, BuildingBlock: QUQFOY_clean_sbu_3, # of connection points: 4
#     Node 14, Type 0, BuildingBlock: QUQFOY_clean_sbu_3, # of connection points: 4
#     Node 15, Type 0, BuildingBlock: QUQFOY_clean_sbu_3, # of connection points: 4
#     Edge 16, Type (0, 0), BuildingBlock: CIFDUS_clean_linker_0, # of connection points: 2
#     Edge 17, Type (0, 0), BuildingBlock: CIFDUS_clean_linker_0, # of connection points: 2
#     Edge 18, Type (0, 0), BuildingBlock: CIFDUS_clean_linker_0, # of connection points: 2
#     Edge 19, Type (0, 0), BuildingBlock: CIFDUS_clean_linker_0, # of connection points: 2
#     Edge 20, Type (0, 0), BuildingBlock: CIFDUS_clean_linker_0, # of connection points: 2
#     Edge 21, Type (0, 0), BuildingBlock: CIFDUS_clean_linker_0, # of connection points: 2
#     Edge 22, Type (0, 0), BuildingBlock: CIFDUS_clean_linker_0, # of connection points: 2
#     Edge 23, Type (0, 0), BuildingBlock: CIFDUS_clean_linker_0, # of connection points: 2
#     Edge 24, Type (0, 0), BuildingBlock: CIFDUS_clean_linker_0, # of connection points: 2
#     Edge 25, Type (0, 0), BuildingBlock: CIFDUS_clean_linker_0, # of connection points: 2
#     Edge 26, Type (0, 0), BuildingBlock: CIFDUS_clean_linker_0, # of connection points: 2
#     Edge 27, Type (0, 0), BuildingBlock: CIFDUS_clean_linker_0, # of connection points: 2
#     Edge 28, Type (0, 0), BuildingBlock: CIFDUS_clean_linker_0, # of connection points: 2
#     Edge 29, Type (0, 0), BuildingBlock: CIFDUS_clean_linker_0, # of connection points: 2
#     Edge 30, Type (0, 0), BuildingBlock: CIFDUS_clean_linker_0, # of connection points: 2
#     Edge 31, Type (0, 0), BuildingBlock: CIFDUS_clean_linker_0, # of connection points: 2
#     Edge 32, Type (0, 0), BuildingBlock: CIFDUS_clean_linker_0, # of connection points: 2
#     Edge 33, Type (0, 0), BuildingBlock: CIFDUS_clean_linker_0, # of connection points: 2
#     Edge 34, Type (0, 0), BuildingBlock: CIFDUS_clean_linker_0, # of connection points: 2
#     Edge 35, Type (0, 0), BuildingBlock: CIFDUS_clean_linker_0, # of connection points: 2
#     Edge 36, Type (0, 0), BuildingBlock: CIFDUS_clean_linker_0, # of connection points: 2
#     Edge 37, Type (0, 0), BuildingBlock: CIFDUS_clean_linker_0, # of connection points: 2
#     Edge 38, Type (0, 0), BuildingBlock: CIFDUS_clean_linker_0, # of connection points: 2
#     Edge 39, Type (0, 0), BuildingBlock: CIFDUS_clean_linker_0, # of connection points: 2
#     Edge 40, Type (0, 0), BuildingBlock: CIFDUS_clean_linker_0, # of connection points: 2
#     Edge 41, Type (0, 0), BuildingBlock: CIFDUS_clean_linker_0, # of connection points: 2
#     Edge 42, Type (0, 0), BuildingBlock: CIFDUS_clean_linker_0, # of connection points: 2
#     Edge 43, Type (0, 0), BuildingBlock: CIFDUS_clean_linker_0, # of connection points: 2
#     Edge 44, Type (0, 0), BuildingBlock: CIFDUS_clean_linker_0, # of connection points: 2
#     Edge 45, Type (0, 0), BuildingBlock: CIFDUS_clean_linker_0, # of connection points: 2
#     Edge 46, Type (0, 0), BuildingBlock: CIFDUS_clean_linker_0, # of connection points: 2
#     Edge 47, Type (0, 0), BuildingBlock: CIFDUS_clean_linker_0, # of connection points: 2
# Relax obj value: 0.002
# Max RMSD: 0.026
# Mean RMSD: 0.026
data_MOF--net-neb--node1-QUQFOY_clean_sbu_3--edge1-CIFDUS_clean_linker_0
_symmetry_space_group_name_H-M    P1
_symmetry_Int_Tables_number       1
_symmetry_cell_setting            triclinic
loop_
_symmetry_equiv_pos_as_xyz
'x, y, z'
_cell_length_a     38.619566
_cell_length_b     20.493619
_cell_length_c     69.721715
_cell_angle_alpha  89.942683
_cell_angle_beta   94.091814
_cell_angle_gamma 89.993686
loop_
_atom_site_label
_atom_site_type_symbol
_atom_site_fract_x
_atom_site_fract_y
_atom_site_fract_z
_atom_type_partial_charge
C0 C 0.19082 0.08085 0.46051 0.0
O1 O 0.21097 0.0534 0.44939 0.0
Cd2 Cd 0.18733 0.00086 0.42028 0.0
O3 O 0.15816 0.07532 0.45741 0.0
Cd4 Cd 0.11505 0.02067 0.43562 0.0
C5 C 0.13549 0.12452 0.40129 0.0
O6 O 0.14308 0.92019 0.42447 0.0
O7 O 0.09629 0.95629 0.40878 0.0
O8 O 0.09086 0.97236 0.46322 0.0
C9 C 0.11904 0.91193 0.41119 0.0
O10 O 0.163 0.09042 0.40097 0.0
C11 C 0.06102 -0.00204 0.46039 0.0
O12 O 0.11285 0.11248 0.41323 0.0
O13 O 0.0561 0.03526 0.44585 0.0
C14 C 0.03217 0.12028 0.78427 0.0
O15 O 0.01803 0.09861 0.7989 0.0
Cd16 Cd 0.0495 0.04309 0.82542 0.0
O17 O 0.06428 0.11036 0.78237 0.0
Cd18 Cd 0.11333 0.05693 0.80062 0.0
C19 C 0.10776 0.1628 0.83723 0.0
O20 O 0.08662 0.95976 0.81431 0.0
O21 O 0.13728 -0.01049 0.82646 0.0
O22 O 0.13868 0.00897 0.77258 0.0
C23 C 0.11318 0.9475 0.82555 0.0
O24 O 0.08377 0.12678 0.84304 0.0
C25 C 0.16769 0.0378 0.77567 0.0
O26 O 0.12075 0.15199 0.82128 0.0
O27 O 0.17048 0.07728 0.78972 0.0
C28 C 0.76668 0.87587 0.53396 0.0
O29 O 0.75196 0.89639 0.54852 0.0
Cd30 Cd 0.78362 0.95301 0.57494 0.0
O31 O 0.79866 0.88735 0.53237 0.0
Cd32 Cd 0.84716 0.94152 0.5502 0.0
C33 C 0.84292 0.83513 0.5869 0.0
O34 O 0.82012 0.03832 0.56402 0.0
O35 O 0.87234 0.01225 0.57475 0.0
O36 O 0.86637 -0.01414 0.52023 0.0
C37 C 0.84735 0.05234 0.57456 0.0
O38 O 0.8185 0.87035 0.59257 0.0
C39 C 0.89635 0.96017 0.52227 0.0
O40 O 0.85597 0.84635 0.57097 0.0
O41 O 0.903 0.9252 0.53713 0.0
C42 C 0.93526 0.84562 0.20235 0.0
O43 O 0.95811 0.8778 0.19419 0.0
Cd44 Cd 0.94122 0.94145 0.16603 0.0
O45 O 0.90335 0.85285 0.19705 0.0
Cd46 Cd 0.86641 0.91968 0.17472 0.0
C47 C 0.89315 0.82596 0.13995 0.0
O48 O 0.89737 0.02282 0.17016 0.0
O49 O 0.85895 -0.00819 0.14772 0.0
O50 O 0.83928 0.96139 0.20195 0.0
C51 C 0.87902 0.03594 0.15477 0.0
O52 O 0.92066 0.86009 0.14247 0.0
C53 C 0.80876 0.94232 0.19692 0.0
O54 O 0.86791 0.83416 0.15052 0.0
O55 O 0.8045 0.91139 0.18109 0.0
C56 C 0.20453 0.62269 0.96252 0.0
O57 O 0.22556 0.59263 0.95251 0.0
Cd58 Cd 0.20542 0.53838 0.92338 0.0
O59 O 0.17204 0.6192 0.95816 0.0
Cd60 Cd 0.13261 0.56286 0.93406 0.0
C61 C 0.15906 0.66167 0.90029 0.0
O62 O 0.16066 0.4584 0.92732 0.0
O63 O 0.12417 0.49824 0.9053 0.0
O64 O 0.09856 0.51649 0.95841 0.0
C65 C 0.14217 0.45023 0.91169 0.0
O66 O 0.18612 0.62595 0.90131 0.0
C67 C 0.07008 0.54323 0.95261 0.0
O68 O 0.13492 0.65228 0.91148 0.0
O69 O 0.0706 0.58093 0.93816 0.0
C70 C 0.01936 0.58558 0.27715 0.0
O71 O -0.00245 0.55775 0.2872 0.0
Cd72 Cd 0.01892 0.50459 0.31679 0.0
O73 O 0.05161 0.57862 0.28146 0.0
Cd74 Cd 0.092 0.52071 0.30382 0.0
C75 C 0.07026 0.62623 0.33718 0.0
O76 O 0.06251 0.42074 0.31447 0.0
O77 O 0.10811 0.45745 0.33119 0.0
O78 O 0.11744 0.47134 0.27673 0.0
C79 C 0.08569 0.41277 0.32824 0.0
O80 O 0.04222 0.59343 0.33676 0.0
C81 C 0.14739 0.496 0.28014 0.0
O82 O 0.09385 0.6128 0.32594 0.0
O83 O 0.15177 0.5329 0.29477 0.0
C84 C 0.78292 0.35624 0.0247 0.0
O85 O 0.76805 0.37738 0.03914 0.0
Cd86 Cd 0.79642 0.43847 0.06553 0.0
O87 O 0.81488 0.36814 0.02298 0.0
Cd88 Cd 0.86227 0.42402 0.04168 0.0
C89 C 0.85579 0.32388 0.07998 0.0
O90 O 0.83273 0.52134 0.0534 0.0
O91 O 0.88441 0.49999 0.06579 0.0
O92 O 0.88905 0.46491 0.01318 0.0
C93 C 0.85869 0.53847 0.06445 0.0
O94 O 0.83078 0.35915 0.08489 0.0
C95 C 0.91774 0.43582 0.0172 0.0
O96 O 0.86951 0.33358 0.06417 0.0
O97 O 0.91987 0.40035 0.03218 0.0
C98 C 0.95522 0.37834 0.70648 0.0
O99 O 0.97204 0.41311 0.6953 0.0
Cd100 Cd 0.94448 0.46841 0.66817 0.0
O101 O 0.92216 0.37757 0.70472 0.0
Cd102 Cd 0.87558 0.43321 0.68421 0.0
C103 C 0.89696 0.3418 0.64734 0.0
O104 O 0.89921 0.54086 0.67669 0.0
O105 O 0.85961 0.50079 0.65654 0.0
O106 O 0.84491 0.47253 0.71127 0.0
C107 C 0.87778 0.54941 0.66225 0.0
O108 O 0.92265 0.38061 0.64688 0.0
C109 C 0.81649 0.44388 0.70646 0.0
O110 O 0.87546 0.34703 0.66027 0.0
O111 O 0.81579 0.40831 0.69152 0.0
C112 C 0.71035 0.09777 0.94609 0.0
O113 O 0.72587 0.06975 0.9329 0.0
Cd114 Cd 0.69529 0.00506 0.90808 0.0
O115 O 0.67809 0.08835 0.94754 0.0
Cd116 Cd 0.62907 0.02588 0.93261 0.0
C117 C 0.63291 0.11722 0.89244 0.0
O118 O 0.65797 0.9269 0.92166 0.0
O119 O 0.60444 0.9438 0.91139 0.0
O120 O 0.61436 -0.00905 0.96442 0.0
C121 C 0.63097 0.90731 0.91181 0.0
O122 O 0.65998 0.08422 0.88949 0.0
C123 C 0.58371 0.01374 0.96288 0.0
O124 O 0.61698 0.10875 0.90765 0.0
O125 O 0.57437 0.04323 0.94731 0.0
C126 C 0.55137 0.12999 0.28287 0.0
O127 O 0.53252 0.105 0.29515 0.0
Cd128 Cd 0.55614 0.03618 0.32111 0.0
O129 O 0.5836 0.11714 0.28343 0.0
Cd130 Cd 0.62667 0.05191 0.30255 0.0
C131 C 0.61599 0.14159 0.34226 0.0
O132 O 0.59364 0.95273 0.31011 0.0
O133 O 0.6449 0.96687 0.32446 0.0
O134 O 0.64863 0.01654 0.27251 0.0
C135 C 0.61847 0.93091 0.32126 0.0
O136 O 0.58785 0.10976 0.34317 0.0
C137 C 0.67921 0.03775 0.27633 0.0
O138 O 0.63488 0.1335 0.32819 0.0
O139 O 0.68524 0.06657 0.29236 0.0
C140 C 0.30333 0.86715 0.03691 0.0
O141 O 0.28278 0.89535 0.04765 0.0
Cd142 Cd 0.30587 0.95925 0.07453 0.0
O143 O 0.33578 0.87812 0.0391 0.0
Cd144 Cd 0.37767 0.94653 0.0583 0.0
C145 C 0.36538 0.84933 0.09541 0.0
O146 O 0.34443 0.04434 0.06573 0.0
O147 O 0.38987 0.02112 0.08461 0.0
O148 O 0.39729 -0.00964 0.02881 0.0
C149 C 0.36594 0.06111 0.07947 0.0
O150 O 0.33685 0.88049 0.09566 0.0
C151 C 0.42879 0.97339 0.03182 0.0
O152 O 0.38609 0.8602 0.08233 0.0
O153 O 0.43698 0.9431 0.04743 0.0
C154 C 0.45211 0.85397 0.7049 0.0
O155 O 0.46851 0.88984 0.69378 0.0
Cd156 Cd 0.44049 0.95155 0.66766 0.0
O157 O 0.41904 0.85389 0.70375 0.0
Cd158 Cd 0.37079 0.91032 0.68517 0.0
C159 C 0.39088 0.83026 0.64545 0.0
O160 O 0.39499 0.01871 0.67818 0.0
O161 O 0.34754 -0.01214 0.66214 0.0
O162 O 0.3436 0.94305 0.71383 0.0
C163 C 0.36962 0.03225 0.66621 0.0
O164 O 0.41652 0.86935 0.64548 0.0
C165 C 0.31481 0.91488 0.70957 0.0
O166 O 0.37008 0.83162 0.65883 0.0
O167 O 0.31258 0.88076 0.69431 0.0
C168 C 0.69635 0.62553 0.45245 0.0
O169 O 0.71275 0.59744 0.43964 0.0
Cd170 Cd 0.68362 0.53242 0.41443 0.0
O171 O 0.66392 0.61639 0.45314 0.0
Cd172 Cd 0.6171 0.55298 0.43636 0.0
C173 C 0.62306 0.64328 0.39643 0.0
O174 O 0.64641 0.45156 0.42689 0.0
O175 O 0.59411 0.47108 0.41472 0.0
O176 O 0.60068 0.51801 0.46767 0.0
C177 C 0.61969 0.43242 0.41672 0.0
O178 O 0.65003 0.6092 0.39416 0.0
C179 C 0.56934 0.53661 0.46515 0.0
O180 O 0.60638 0.63657 0.41143 0.0
O181 O 0.56045 0.56526 0.44937 0.0
C182 C 0.52888 0.58524 0.77958 0.0
O183 O 0.51258 0.54927 0.79073 0.0
Cd184 Cd 0.54137 0.49036 0.81722 0.0
O185 O 0.56194 0.58642 0.78095 0.0
Cd186 Cd 0.61088 0.53309 0.79976 0.0
C187 C 0.58881 0.61536 0.83892 0.0
O188 O 0.58777 0.42408 0.80705 0.0
O189 O 0.63529 0.45619 0.82278 0.0
O190 O 0.63878 0.5035 0.77079 0.0
C191 C 0.61334 0.41134 0.81898 0.0
O192 O 0.56349 0.57558 0.839 0.0
C193 C 0.66687 0.53389 0.77519 0.0
O194 O 0.61007 0.61319 0.82577 0.0
O195 O 0.6684 0.56652 0.79073 0.0
C196 C 0.28725 0.33391 0.53312 0.0
O197 O 0.26723 0.35711 0.54507 0.0
Cd198 Cd 0.28972 0.42343 0.57187 0.0
O199 O 0.31914 0.34954 0.53419 0.0
Cd200 Cd 0.35944 0.41969 0.55335 0.0
C201 C 0.35339 0.32189 0.59143 0.0
O202 O 0.32472 0.51442 0.56331 0.0
O203 O 0.37561 0.49625 0.5777 0.0
O204 O 0.37744 0.46623 0.52372 0.0
C205 C 0.34939 0.53317 0.57512 0.0
O206 O 0.3243 0.35015 0.59274 0.0
C207 C 0.40929 0.45165 0.52679 0.0
O208 O 0.3718 0.33414 0.5774 0.0
O209 O 0.41796 0.42037 0.54215 0.0
C210 C 0.44521 0.38122 0.21357 0.0
O211 O 0.46182 0.40093 0.1996 0.0
Cd212 Cd 0.43282 0.45913 0.17248 0.0
O213 O 0.41298 0.39286 0.21381 0.0
Cd214 Cd 0.36665 0.44481 0.19388 0.0
C215 C 0.37636 0.34117 0.15713 0.0
O216 O 0.39419 0.54429 0.18158 0.0
O217 O 0.34306 0.51633 0.16932 0.0
O218 O 0.34493 0.48751 0.22326 0.0
C219 C 0.36745 0.55775 0.17054 0.0
O220 O 0.40123 0.37785 0.15282 0.0
C221 C 0.31513 0.46152 0.22059 0.0
O222 O 0.36108 0.35023 0.1725 0.0
O223 O 0.30953 0.42705 0.20554 0.0
H224 H 0.22308 0.27804 0.52884 0.0
H225 H 0.32249 0.2823 0.50415 0.0
H226 H 0.30224 0.2016 0.4803 0.0
H227 H 0.25605 0.13098 0.46601 0.0
H228 H 0.15639 0.12782 0.49038 0.0
H229 H 0.17719 0.20615 0.51485 0.0
C230 C 0.24029 0.26152 0.51821 0.0
C231 C 0.2742 0.2865 0.51829 0.0
C232 C 0.22855 0.21482 0.50452 0.0
C233 C 0.2962 0.26412 0.50445 0.0
C234 C 0.2847 0.21776 0.4908 0.0
C235 C 0.23901 0.14686 0.4768 0.0
C236 C 0.20476 0.12349 0.47635 0.0
C237 C 0.25093 0.19275 0.49069 0.0
C238 C 0.1829 0.14508 0.49035 0.0
C239 C 0.19471 0.19006 0.50435 0.0
H240 H 0.9621 0.91385 0.52397 0.0
H241 H 0.88981 0.03313 0.48933 0.0
H242 H 0.93436 0.05531 0.46697 0.0
H243 H -0.00574 0.04205 0.45759 0.0
H244 H 0.06609 0.92278 0.49261 0.0
H245 H 0.02125 0.89954 0.51449 0.0
C246 C 0.95601 0.94453 0.5115 0.0
C247 C 0.92273 0.97182 0.50833 0.0
C248 C 0.9817 0.95729 0.4988 0.0
C249 C 0.91527 0.0115 0.4921 0.0
C250 C 0.94073 0.02429 0.47932 0.0
C251 C 6e-05 0.011 0.47001 0.0
C252 C 0.03348 0.98435 0.47348 0.0
C253 C 0.9741 -0.0023 0.48259 0.0
C254 C 0.0406 0.94403 0.48961 0.0
C255 C 0.01497 0.93063 0.50214 0.0
H256 H 0.31 0.00262 0.73815 0.0
H257 H 0.2514 0.85432 0.70618 0.0
H258 H 0.2002 0.88028 0.72351 0.0
H259 H 0.17197 0.94658 0.74746 0.0
H260 H 0.2311 0.09602 0.77873 0.0
H261 H 0.28209 0.06856 0.76174 0.0
C262 C 0.28613 0.97548 0.73507 0.0
C263 C 0.28456 0.92636 0.72098 0.0
C264 C 0.25677 -0.00858 0.7448 0.0
C265 C 0.25332 0.89219 0.71703 0.0
C266 C 0.22401 0.90721 0.72687 0.0
C267 C 0.19596 0.97339 0.75046 0.0
C268 C 0.19767 0.0234 0.76431 0.0
C269 C 0.22536 0.95713 0.74068 0.0
C270 C 0.22901 0.05743 0.76811 0.0
C271 C 0.25826 0.04162 0.75845 0.0
H272 H 0.05787 0.20235 0.75836 0.0
H273 H 0.96152 0.13434 0.77902 0.0
H274 H 0.92909 0.20925 0.75706 0.0
H275 H 0.92832 0.29477 0.73215 0.0
H276 H 0.02536 0.36406 0.7125 0.0
H277 H 0.05723 0.28834 0.7341 0.0
C278 C 0.02975 0.20337 0.75797 0.0
C279 C 0.01215 0.16239 0.77021 0.0
C280 C 0.01138 0.24732 0.74563 0.0
C281 C 0.97571 0.1652 0.7697 0.0
C282 C 0.95717 0.20816 0.75719 0.0
C283 C 0.95644 0.29359 0.73266 0.0
C284 C 0.97433 0.3352 0.72066 0.0
C285 C 0.97476 0.24973 0.74516 0.0
C286 C 0.01082 0.33283 0.72155 0.0
C287 C 0.02914 0.28931 0.73386 0.0
H288 H 0.79342 0.81138 0.50443 0.0
H289 H 0.69734 0.84529 0.53096 0.0
H290 H 0.66725 0.77059 0.50808 0.0
H291 H 0.66858 0.69415 0.48105 0.0
H292 H 0.76507 0.65931 0.45499 0.0
H293 H 0.79469 0.73584 0.47738 0.0
C294 C 0.76582 0.80294 0.50517 0.0
C295 C 0.74766 0.83412 0.5194 0.0
C296 C 0.74883 0.75938 0.49217 0.0
C297 C 0.71196 0.82209 0.52016 0.0
C298 C 0.69476 0.77923 0.50711 0.0
C299 C 0.69612 0.70313 0.48025 0.0
C300 C 0.71456 0.67078 0.46635 0.0
C301 C 0.71301 0.74725 0.49316 0.0
C302 C 0.75022 0.68327 0.46555 0.0
C303 C 0.76718 0.72718 0.47833 0.0
H304 H 0.67375 0.97431 0.24202 0.0
H305 H 0.74646 0.07831 0.28075 0.0
H306 H 0.79259 0.05844 0.25934 0.0
H307 H 0.81248 0.01003 0.23017 0.0
H308 H 0.74053 0.9052 0.19125 0.0
H309 H 0.69369 0.92704 0.21228 0.0
C310 C 0.69966 -0.00716 0.24573 0.0
C311 C 0.70669 0.02768 0.26297 0.0
C312 C 0.72612 0.98098 0.2334 0.0
C313 C 0.74038 0.05135 0.26759 0.0
C314 C 0.76677 0.03995 0.25537 0.0
C315 C 0.78655 -0.00807 0.22622 0.0
C316 C 0.77999 0.95587 0.2092 0.0
C317 C 0.75996 0.00454 0.23833 0.0
C318 C 0.74624 0.93301 0.2043 0.0
C319 C 0.71949 0.94547 0.21631 0.0
H320 H -0.00074 0.79389 0.21079 0.0
H321 H 0.89379 0.78715 0.22743 0.0
H322 H 0.9099 0.70348 0.25138 0.0
H323 H 0.95421 0.6331 0.26793 0.0
H324 H 0.05946 0.63971 0.25081 0.0
H325 H 0.04298 0.72176 0.22661 0.0
C326 C 0.97984 0.77445 0.21974 0.0
C327 C 0.94548 0.79709 0.21741 0.0
C328 C 0.98913 0.72579 0.23331 0.0
C329 C 0.92051 0.7707 0.22896 0.0
C330 C 0.92965 0.72271 0.24263 0.0
C331 C 0.97344 0.65198 0.25877 0.0
C332 C 0.00801 0.6303 0.26125 0.0
C333 C 0.96389 0.69979 0.24492 0.0
C334 C 0.03265 0.65558 0.24929 0.0
C335 C 0.02331 0.70274 0.23546 0.0
H336 H 0.23663 0.82511 0.02964 0.0
H337 H 0.34025 0.80199 0.01104 0.0
H338 H 0.31911 0.72204 0.98719 0.0
H339 H 0.27131 0.65989 0.97121 0.0
H340 H 0.16743 0.68375 0.98926 0.0
H341 H 0.18873 0.76162 0.01383 0.0
C342 C 0.25459 0.80273 0.02035 0.0
C343 C 0.28996 0.81982 0.02214 0.0
C344 C 0.24229 0.75656 0.00662 0.0
C345 C 0.31286 0.79 0.01 0.0
C346 C 0.30084 0.74408 -0.00365 0.0
C347 C 0.25333 0.68162 0.98062 0.0
C348 C 0.21784 0.66588 0.97839 0.0
C349 C 0.26563 0.72703 -0.00548 0.0
C350 C 0.1949 0.69496 0.99064 0.0
C351 C 0.20703 0.73967 0.00468 0.0
H352 H 0.06174 0.45554 0.98085 0.0
H353 H 0.00622 0.60037 0.94577 0.0
H354 H 0.95343 0.57785 0.96209 0.0
H355 H 0.92365 0.51876 0.987 0.0
H356 H 0.98013 0.37432 0.02186 0.0
H357 H 0.0319 0.39467 0.00478 0.0
C358 C 0.03812 0.48229 0.97675 0.0
C359 C 0.03795 0.52985 0.96222 0.0
C360 C 0.00801 0.46899 0.98611 0.0
C361 C 0.00704 0.56365 0.95698 0.0
C362 C 0.97686 0.55076 0.96629 0.0
C363 C 0.94722 0.49141 0.99074 0.0
C364 C 0.94804 0.44523 0.00571 0.0
C365 C 0.9771 0.50371 0.98095 0.0
C366 C 0.97878 0.41024 0.01042 0.0
C367 C 0.00846 0.42191 0.0007 0.0
H368 H 0.24943 0.41428 0.21782 0.0
H369 H 0.31987 0.53328 0.25366 0.0
H370 H 0.27428 0.55402 0.27542 0.0
H371 H 0.21404 0.53987 0.28394 0.0
H372 H 0.14386 0.42103 0.24787 0.0
H373 H 0.18977 0.39881 0.22655 0.0
C374 C 0.25487 0.44458 0.23043 0.0
C375 C 0.28795 0.47224 0.2341 0.0
C376 C 0.22856 0.45651 0.24282 0.0
C377 C 0.29458 0.5114 0.25049 0.0
C378 C 0.26853 0.52337 0.26294 0.0
C379 C 0.20883 0.50906 0.27143 0.0
C380 C 0.17558 0.48231 0.26749 0.0
C381 C 0.23536 0.49644 0.25919 0.0
C382 C 0.16923 0.44235 0.25123 0.0
C383 C 0.19546 0.42956 0.23902 0.0
H384 H 0.68364 0.17048 0.97406 0.0
H385 H 0.77946 0.12949 0.94801 0.0
H386 H 0.8099 0.20802 0.96949 0.0
H387 H 0.8094 0.28732 -0.0042 0.0
H388 H 0.7136 0.32728 0.02198 0.0
H389 H 0.683 0.25039 8e-05 0.0
C390 C 0.71122 0.17846 0.97307 0.0
C391 C 0.72923 0.14385 0.95945 0.0
C392 C 0.72852 0.2238 0.98539 0.0
C393 C 0.76494 0.15522 0.95837 0.0
C394 C 0.78236 0.20026 0.97062 0.0
C395 C 0.78176 0.27969 -0.00336 0.0
C396 C 0.76384 0.31322 0.01052 0.0
C397 C 0.7644 0.23484 0.98416 0.0
C398 C 0.72807 0.30226 0.01145 0.0
C399 C 0.71055 0.25814 -0.00104 0.0
H400 H 0.67262 0.45688 0.74391 0.0
H401 H 0.72931 0.59641 0.78031 0.0
H402 H 0.78065 0.58041 0.76231 0.0
H403 H 0.8098 0.52497 0.73675 0.0
H404 H 0.75321 0.38491 0.70048 0.0
H405 H 0.70149 0.40268 0.71804 0.0
C406 C 0.69611 0.48419 0.74782 0.0
C407 C 0.6971 0.52784 0.76342 0.0
C408 C 0.72563 0.47423 0.73756 0.0
C409 C 0.72782 0.56258 0.76835 0.0
C410 C 0.75723 0.55331 0.75811 0.0
C411 C 0.78618 0.49816 0.73271 0.0
C412 C 0.78542 0.45344 0.71738 0.0
C413 C 0.75652 0.50883 0.7428 0.0
C414 C 0.75454 0.41945 0.71226 0.0
C415 C 0.72493 0.42968 0.72227 0.0
H416 H 0.51643 0.05194 0.96252 0.0
H417 H 0.59698 0.95377 -0.00235 0.0
H418 H 0.55643 0.93362 0.02234 0.0
H419 H 0.49752 0.94133 0.03356 0.0
H420 H 0.41719 0.03876 -0.00199 0.0
H421 H 0.45824 0.06167 0.97394 0.0
C422 C 0.52519 0.02642 0.97562 0.0
C423 C 0.55964 0.00432 0.97822 0.0
C424 C 0.50173 0.01461 0.98968 0.0
C425 C 0.57056 0.97128 -0.00472 0.0
C426 C 0.54738 0.95963 0.0094 0.0
C427 C 0.48905 0.9677 0.02057 0.0
C428 C 0.45432 -0.01193 0.01759 0.0
C429 C 0.51281 0.98064 0.00669 0.0
C430 C 0.44375 0.02231 0.00068 0.0
C431 C 0.46721 0.03551 0.98688 0.0
H432 H 0.50952 0.32505 0.21486 0.0
H433 H 0.4183 0.34339 0.24688 0.0
H434 H 0.44271 0.26671 0.27084 0.0
H435 H 0.489 0.19172 0.28234 0.0
H436 H 0.58059 0.17351 0.2507 0.0
H437 H 0.55687 0.25232 0.227 0.0
C438 C 0.49516 0.31282 0.22719 0.0
C439 C 0.46209 0.33989 0.22898 0.0
C440 C 0.50921 0.26805 0.24092 0.0
C441 C 0.44378 0.32321 0.24504 0.0
C442 C 0.45765 0.27913 0.25877 0.0
C443 C 0.50371 0.20472 0.27021 0.0
C444 C 0.53638 0.17637 0.26825 0.0
C445 C 0.49012 0.2506 0.25673 0.0
C446 C 0.5553 0.19447 0.25256 0.0
C447 C 0.5418 0.23966 0.23899 0.0
H448 H 0.42562 0.76002 0.72733 0.0
H449 H 0.52236 0.8468 0.71298 0.0
H450 H 0.5545 0.77009 0.73429 0.0
H451 H 0.55527 0.67843 0.75692 0.0
H452 H 0.45859 0.5916 0.77134 0.0
H453 H 0.42641 0.66802 0.74991 0.0
C454 C 0.45373 0.76248 0.72892 0.0
C455 C 0.47148 0.80937 0.71857 0.0
C456 C 0.47212 0.71787 0.7411 0.0
C457 C 0.50795 0.81139 0.72076 0.0
C458 C 0.5264 0.76739 0.73292 0.0
C459 C 0.52716 0.67585 0.75531 0.0
C460 C 0.50944 0.62912 0.76573 0.0
C461 C 0.50877 0.72029 0.7431 0.0
C462 C 0.47297 0.62691 0.7635 0.0
C463 C 0.4545 0.67075 0.75128 0.0
H464 H 0.47939 0.43846 0.53138 0.0
H465 H 0.39692 0.51129 0.49204 0.0
H466 H 0.43931 0.54697 0.46992 0.0
H467 H 0.49965 0.55581 0.46148 0.0
H468 H 0.58216 0.48237 0.50067 0.0
H469 H 0.53989 0.44929 0.52321 0.0
C470 C 0.4707 0.46199 0.51794 0.0
C471 C 0.43508 0.4719 0.51332 0.0
C472 C 0.49521 0.48266 0.50532 0.0
C473 C 0.42422 0.50288 0.49592 0.0
C474 C 0.44843 0.52344 0.48327 0.0
C475 C 0.50841 0.53308 0.47502 0.0
C476 C 0.54396 0.52157 0.47939 0.0
C477 C 0.48397 0.5135 0.48781 0.0
C478 C 0.55491 0.49179 0.49696 0.0
C479 C 0.53076 0.47266 0.50983 0.0
H480 H 0.13025 0.67062 0.35567 0.0
H481 H 0.01965 0.70377 0.34914 0.0
H482 H 0.0253 0.79406 0.37183 0.0
H483 H 0.06122 0.86386 0.39313 0.0
H484 H 0.17143 0.82992 0.40163 0.0
H485 H 0.16644 0.7387 0.37873 0.0
C486 C 0.10753 0.69798 0.3592 0.0
C487 C 0.07463 0.68113 0.35069 0.0
C488 C 0.11085 0.74904 0.37266 0.0
C489 C 0.04521 0.71596 0.35555 0.0
C490 C 0.0484 0.76752 0.36851 0.0
C491 C 0.08419 0.83643 0.39001 0.0
C492 C 0.11666 0.85362 0.39886 0.0
C493 C 0.08103 0.78439 0.37711 0.0
C494 C 0.14613 0.81721 0.39497 0.0
C495 C 0.14329 0.76547 0.38182 0.0
H496 H 0.07512 0.1697 0.38331 0.0
H497 H 0.18585 0.20166 0.38899 0.0
H498 H 0.17988 0.29242 0.36642 0.0
H499 H 0.14367 0.36315 0.34556 0.0
H500 H 0.0333 0.33057 0.33779 0.0
H501 H 0.03857 0.23852 0.36049 0.0
C502 C 0.09779 0.19692 0.37961 0.0
C503 C 0.13083 0.17967 0.38786 0.0
C504 C 0.09427 0.24823 0.3662 0.0
C505 C 0.16019 0.21424 0.38278 0.0
C506 C 0.15682 0.26604 0.3699 0.0
C507 C 0.12073 0.33581 0.34879 0.0
C508 C 0.08813 0.35366 0.34024 0.0
C509 C 0.12406 0.28339 0.36158 0.0
C510 C 0.05868 0.31734 0.34424 0.0
C511 C 0.06169 0.26516 0.35727 0.0
H512 H 0.11738 0.17157 0.87602 0.0
H513 H 0.12375 0.28205 0.82371 0.0
H514 H 0.13712 0.38096 0.84236 0.0
H515 H 0.14248 0.43723 0.87344 0.0
H516 H 0.14055 0.32662 0.92594 0.0
H517 H 0.13044 0.22586 0.90737 0.0
C518 C 0.12201 0.21732 0.86879 0.0
C519 C 0.11917 0.22017 0.84861 0.0
C520 C 0.13045 0.27356 0.8796 0.0
C521 C 0.12578 0.27908 0.83927 0.0
C522 C 0.1333 0.33554 0.8499 0.0
C523 C 0.14032 0.39079 0.88076 0.0
C524 C 0.14183 0.38881 0.90091 0.0
C525 C 0.13506 0.33352 0.87004 0.0
C526 C 0.1395 0.32876 0.91038 0.0
C527 C 0.1335 0.27145 0.89979 0.0
H528 H 0.0998 0.71318 0.88322 0.0
H529 H 0.21147 0.72812 0.88518 0.0
H530 H 0.20688 0.81723 0.86189 0.0
H531 H 0.17132 0.89216 0.8416 0.0
H532 H 0.05976 0.8747 0.83801 0.0
H533 H 0.06403 0.78459 0.86122 0.0
C534 C 0.12306 0.73614 0.87855 0.0
C535 C 0.15591 0.7147 0.886 0.0
C536 C 0.12024 0.78648 0.86486 0.0
C537 C 0.18591 0.74391 0.87963 0.0
C538 C 0.18332 0.79485 0.86635 0.0
C539 C 0.14794 0.86847 0.84586 0.0
C540 C 0.11528 0.89013 0.8383 0.0
C541 C 0.15065 0.81664 0.85896 0.0
C542 C 0.08519 0.85861 0.84368 0.0
C543 C 0.08763 0.80741 0.85699 0.0
H544 H 0.83686 0.28477 0.63314 0.0
H545 H 0.94784 0.28202 0.62907 0.0
H546 H 0.94196 0.19324 0.60579 0.0
H547 H 0.90569 0.11451 0.58737 0.0
H548 H 0.79445 0.11978 0.58964 0.0
H549 H 0.79987 0.21014 0.61272 0.0
C550 C 0.85968 0.26458 0.62713 0.0
C551 C 0.89276 0.28934 0.63291 0.0
C552 C 0.85604 0.21436 0.61343 0.0
C553 C 0.92212 0.26368 0.62483 0.0
C554 C 0.91879 0.21291 0.61155 0.0
C555 C 0.88262 0.13567 0.59286 0.0
C556 C 0.84977 0.11041 0.58701 0.0
C557 C 0.88595 0.18767 0.60586 0.0
C558 C 0.82001 0.13869 0.59396 0.0
C559 C 0.82314 0.19001 0.60721 0.0
H560 H 0.87718 0.56122 0.62389 0.0
H561 H 0.87496 0.67318 0.67605 0.0
H562 H 0.86477 0.77346 0.65719 0.0
H563 H 0.85226 0.8271 0.62569 0.0
H564 H 0.85941 0.71567 0.57368 0.0
H565 H 0.87227 0.61695 0.59261 0.0
C566 C 0.87483 0.60783 0.63106 0.0
C567 C 0.87632 0.61038 0.6512 0.0
C568 C 0.86976 0.66491 0.62016 0.0
C569 C 0.87384 0.67064 0.6605 0.0
C570 C 0.86786 0.72767 0.64974 0.0
C571 C 0.85698 0.7812 0.61858 0.0
C572 C 0.85452 0.77804 0.59841 0.0
C573 C 0.8651 0.72511 0.62956 0.0
C574 C 0.8612 0.71891 0.58924 0.0
C575 C 0.86839 0.66255 0.60003 0.0
H576 H 0.91417 0.60305 0.08006 0.0
H577 H 0.80226 0.60378 0.07654 0.0
H578 H 0.80275 0.69381 0.09973 0.0
H579 H 0.83555 0.76882 0.12214 0.0
H580 H 0.9476 0.76864 0.1242 0.0
H581 H 0.94647 0.68174 0.10043 0.0
C582 C 0.88987 0.62316 0.08429 0.0
C583 C 0.85826 0.59669 0.0768 0.0
C584 C 0.8904 0.67469 0.09744 0.0
C585 C 0.82693 0.62363 0.08214 0.0
C586 C 0.82722 0.67476 0.09546 0.0
C587 C 0.85965 0.74969 0.11735 0.0
C588 C 0.8916 0.77476 0.12504 0.0
C589 C 0.85886 0.70007 0.10341 0.0
C590 C 0.92265 0.75023 0.11852 0.0
C591 C 0.92207 0.70044 0.10494 0.0
H592 H 0.89162 0.05236 0.11788 0.0
H593 H 0.8706 0.15767 0.16918 0.0
H594 H 0.86295 0.259 0.1505 0.0
H595 H 0.85647 0.31403 0.11887 0.0
H596 H 0.88097 0.20859 0.06803 0.0
H597 H 0.89349 0.11068 0.08724 0.0
C598 C 0.88608 0.09796 0.12496 0.0
C599 C 0.88144 0.09827 0.1447 0.0
C600 C 0.88206 0.15547 0.1142 0.0
C601 C 0.87446 0.15703 0.15394 0.0
C602 C 0.86982 0.21458 0.14326 0.0
C603 C 0.86491 0.26971 0.11209 0.0
C604 C 0.86729 0.26795 0.09207 0.0
C605 C 0.87261 0.21389 0.12327 0.0
C606 C 0.87885 0.21087 0.08342 0.0
C607 C 0.8859 0.15487 0.09437 0.0
H608 H 0.64761 0.6791 0.85256 0.0
H609 H 0.53747 0.66519 0.85897 0.0
H610 H 0.54141 0.75194 0.88285 0.0
H611 H 0.57528 0.83492 0.90077 0.0
H612 H 0.68572 0.84792 0.89594 0.0
H613 H 0.68272 0.75761 0.87277 0.0
C614 C 0.62456 0.69512 0.85923 0.0
C615 C 0.59225 0.66624 0.85389 0.0
C616 C 0.62708 0.74452 0.87325 0.0
C617 C 0.56264 0.68664 0.86284 0.0
C618 C 0.56483 0.7363 0.87648 0.0
C619 C 0.59875 0.81759 0.89476 0.0
C620 C 0.63059 0.84808 0.89986 0.0
C621 C 0.5968 0.76593 0.88163 0.0
C622 C 0.66091 0.82484 0.89222 0.0
C623 C 0.65915 0.77362 0.8789 0.0
H624 H 0.66761 0.16188 0.86277 0.0
H625 H 0.57203 0.18711 0.89046 0.0
H626 H 0.55514 0.27585 0.86818 0.0
H627 H 0.57004 0.35225 0.84244 0.0
H628 H 0.66807 0.33139 0.81722 0.0
H629 H 0.68134 0.23404 0.83668 0.0
C630 C 0.64288 0.18621 0.86386 0.0
C631 C 0.62121 0.16804 0.87833 0.0
C632 C 0.63378 0.23787 0.85136 0.0
C633 C 0.58933 0.20042 0.87953 0.0
C634 C 0.57963 0.25109 0.86678 0.0
C635 C 0.59386 0.3252 0.84099 0.0
C636 C 0.61795 0.34774 0.82837 0.0
C637 C 0.60194 0.27097 0.85285 0.0
C638 C 0.64917 0.31398 0.8268 0.0
C639 C 0.6568 0.25876 0.83797 0.0
H640 H 0.57679 0.18099 0.37066 0.0
H641 H 0.67591 0.214 0.34735 0.0
H642 H 0.68813 0.3024 0.37046 0.0
H643 H 0.6679 0.37704 0.39533 0.0
H644 H 0.56648 0.34788 0.416 0.0
H645 H 0.55808 0.25043 0.39612 0.0
C646 C 0.60128 0.2069 0.3707 0.0
C647 C 0.62526 0.19118 0.35718 0.0
C648 C 0.60769 0.25841 0.38361 0.0
C649 C 0.65686 0.22543 0.35752 0.0
C650 C 0.66387 0.27597 0.37073 0.0
C651 C 0.64439 0.34826 0.39571 0.0
C652 C 0.61787 0.36884 0.40708 0.0
C653 C 0.63914 0.2938 0.38358 0.0
C654 C 0.58716 0.33244 0.40731 0.0
C655 C 0.58232 0.27703 0.39591 0.0
H656 H 0.65425 0.66989 0.3638 0.0
H657 H 0.56868 0.73006 0.39629 0.0
H658 H 0.55618 0.82017 0.37378 0.0
H659 H 0.5739 0.88879 0.34684 0.0
H660 H 0.6626 0.83195 0.31664 0.0
H661 H 0.66927 0.7328 0.33606 0.0
C662 C 0.6326 0.70219 0.36593 0.0
C663 C 0.61272 0.69363 0.38187 0.0
C664 C 0.62613 0.75447 0.35326 0.0
C665 C 0.5846 0.7358 0.38423 0.0
C666 C 0.57745 0.78738 0.37137 0.0
C667 C 0.59402 0.85355 0.34428 0.0
C668 C 0.61755 0.86656 0.33032 0.0
C669 C 0.59858 0.79812 0.3561 0.0
C670 C 0.64412 0.82203 0.32727 0.0
C671 C 0.64804 0.76577 0.33843 0.0
H672 H 0.37423 0.33655 0.11832 0.0
H673 H 0.3581 0.21991 0.16841 0.0
H674 H 0.35112 0.12221 0.14835 0.0
H675 H 0.35538 0.06886 0.11697 0.0
H676 H 0.36759 0.18581 0.06656 0.0
H677 H 0.37005 0.28518 0.08625 0.0
C678 C 0.36872 0.28978 0.12474 0.0
C679 C 0.3671 0.28486 0.14476 0.0
C680 C 0.36421 0.23424 0.1131 0.0
C681 C 0.35944 0.22454 0.153 0.0
C682 C 0.35564 0.16876 0.14157 0.0
C683 C 0.35795 0.1164 0.11035 0.0
C684 C 0.36157 0.1208 0.09053 0.0
C685 C 0.35881 0.17285 0.12169 0.0
C686 C 0.36467 0.182 0.08186 0.0
C687 C 0.36626 0.23849 0.0931 0.0
H688 H 0.41685 0.61974 0.15126 0.0
H689 H 0.30971 0.63034 0.16469 0.0
H690 H 0.30047 0.72468 0.1436 0.0
H691 H 0.32137 0.79862 0.11983 0.0
H692 H 0.42708 0.78489 0.10389 0.0
H693 H 0.43842 0.69715 0.12742 0.0
C694 C 0.39173 0.64363 0.14973 0.0
C695 C 0.36399 0.61872 0.15949 0.0
C696 C 0.38626 0.69654 0.13699 0.0
C697 C 0.33135 0.64894 0.15725 0.0
C698 C 0.32605 0.70267 0.14519 0.0
C699 C 0.34704 0.77696 0.12155 0.0
C700 C 0.37331 0.79823 0.11008 0.0
C701 C 0.35309 0.726 0.13472 0.0
C702 C 0.40633 0.76918 0.11248 0.0
C703 C 0.41284 0.7191 0.12595 0.0
H704 H 0.332 0.76434 0.63288 0.0
H705 H 0.44084 0.78539 0.62355 0.0
H706 H 0.43642 0.69888 0.59968 0.0
H707 H 0.40317 0.61216 0.58328 0.0
H708 H 0.29411 0.59065 0.59107 0.0
H709 H 0.2968 0.68336 0.61351 0.0
C710 C 0.35463 0.75006 0.62553 0.0
C711 C 0.38679 0.78063 0.63015 0.0
C712 C 0.35185 0.70053 0.61156 0.0
C713 C 0.41581 0.76254 0.62031 0.0
C714 C 0.41336 0.713 0.60667 0.0
C715 C 0.37989 0.62842 0.58972 0.0
C716 C 0.34861 0.59478 0.5858 0.0
C717 C 0.38173 0.68107 0.60244 0.0
C718 C 0.31844 0.61636 0.59392 0.0
C719 C 0.32009 0.66883 0.60684 0.0
H720 H 0.3172 0.2787 0.62066 0.0
H721 H 0.41501 0.25417 0.59515 0.0
H722 H 0.43108 0.16724 0.61821 0.0
H723 H 0.41468 0.09146 0.6438 0.0
H724 H 0.31465 0.11196 0.66682 0.0
H725 H 0.30225 0.20824 0.64679 0.0
C726 C 0.34222 0.25489 0.62018 0.0
C727 C 0.36473 0.27257 0.60607 0.0
C728 C 0.35088 0.20438 0.63313 0.0
C729 C 0.39706 0.24116 0.60577 0.0
C730 C 0.40628 0.19151 0.61896 0.0
C731 C 0.39063 0.11829 0.64467 0.0
C732 C 0.36567 0.09584 0.65679 0.0
C733 C 0.38309 0.17187 0.63248 0.0
C734 C 0.33418 0.12929 0.65763 0.0
C735 C 0.32705 0.18388 0.64613 0.0
loop_
_geom_bond_atom_site_label_1
_geom_bond_atom_site_label_2
_geom_bond_distance
_geom_bond_site_symmetry_2
_ccdc_geom_bond_type
C0 O1 1.306 . S
C0 O3 1.160 . S
O1 C0 1.306 . S
O1 Cd2 2.228 . S
Cd2 O1 2.228 . S
Cd2 O6 2.273 . S
Cd2 O10 2.277 . S
O3 C0 1.160 . S
O3 Cd4 2.203 . S
Cd4 O3 2.203 . S
Cd4 O6 2.411 . S
Cd4 O7 2.333 . S
Cd4 O8 2.352 . S
Cd4 O12 2.277 . S
Cd4 O13 2.356 . S
C5 O10 1.209 . S
C5 O12 1.226 . S
O6 Cd2 2.273 . S
O6 Cd4 2.411 . S
O6 C9 1.320 . S
O7 Cd4 2.333 . S
O7 C9 1.214 . S
O8 Cd4 2.352 . S
O8 C11 1.258 . S
C9 O6 1.320 . S
C9 O7 1.214 . S
O10 Cd2 2.277 . S
O10 C5 1.209 . S
C11 O8 1.258 . S
C11 O13 1.282 . S
O12 Cd4 2.277 . S
O12 C5 1.226 . S
O13 Cd4 2.356 . S
O13 C11 1.282 . S
C14 O15 1.306 . S
C14 O17 1.160 . S
O15 C14 1.306 . S
O15 Cd16 2.228 . S
Cd16 O15 2.228 . S
Cd16 O20 2.273 . S
Cd16 O24 2.277 . S
O17 C14 1.160 . S
O17 Cd18 2.203 . S
Cd18 O17 2.203 . S
Cd18 O20 2.411 . S
Cd18 O21 2.333 . S
Cd18 O22 2.352 . S
Cd18 O26 2.277 . S
Cd18 O27 2.356 . S
C19 O24 1.209 . S
C19 O26 1.226 . S
O20 Cd16 2.273 . S
O20 Cd18 2.411 . S
O20 C23 1.320 . S
O21 Cd18 2.333 . S
O21 C23 1.214 . S
O22 Cd18 2.352 . S
O22 C25 1.258 . S
C23 O20 1.320 . S
C23 O21 1.214 . S
O24 Cd16 2.277 . S
O24 C19 1.209 . S
C25 O22 1.258 . S
C25 O27 1.282 . S
O26 Cd18 2.277 . S
O26 C19 1.226 . S
O27 Cd18 2.356 . S
O27 C25 1.282 . S
C28 O29 1.306 . S
C28 O31 1.160 . S
O29 C28 1.306 . S
O29 Cd30 2.228 . S
Cd30 O29 2.228 . S
Cd30 O34 2.273 . S
Cd30 O38 2.277 . S
O31 C28 1.160 . S
O31 Cd32 2.203 . S
Cd32 O31 2.203 . S
Cd32 O34 2.411 . S
Cd32 O35 2.333 . S
Cd32 O36 2.352 . S
Cd32 O40 2.277 . S
Cd32 O41 2.356 . S
C33 O38 1.209 . S
C33 O40 1.226 . S
O34 Cd30 2.273 . S
O34 Cd32 2.411 . S
O34 C37 1.320 . S
O35 Cd32 2.333 . S
O35 C37 1.214 . S
O36 Cd32 2.352 . S
O36 C39 1.258 . S
C37 O34 1.320 . S
C37 O35 1.214 . S
O38 Cd30 2.277 . S
O38 C33 1.209 . S
C39 O36 1.258 . S
C39 O41 1.282 . S
O40 Cd32 2.277 . S
O40 C33 1.226 . S
O41 Cd32 2.356 . S
O41 C39 1.282 . S
C42 O43 1.306 . S
C42 O45 1.160 . S
O43 C42 1.306 . S
O43 Cd44 2.228 . S
Cd44 O43 2.228 . S
Cd44 O48 2.273 . S
Cd44 O52 2.277 . S
O45 C42 1.160 . S
O45 Cd46 2.203 . S
Cd46 O45 2.203 . S
Cd46 O48 2.411 . S
Cd46 O49 2.333 . S
Cd46 O50 2.352 . S
Cd46 O54 2.277 . S
Cd46 O55 2.356 . S
C47 O52 1.209 . S
C47 O54 1.226 . S
O48 Cd44 2.273 . S
O48 Cd46 2.411 . S
O48 C51 1.320 . S
O49 Cd46 2.333 . S
O49 C51 1.214 . S
O50 Cd46 2.352 . S
O50 C53 1.258 . S
C51 O48 1.320 . S
C51 O49 1.214 . S
O52 Cd44 2.277 . S
O52 C47 1.209 . S
C53 O50 1.258 . S
C53 O55 1.282 . S
O54 Cd46 2.277 . S
O54 C47 1.226 . S
O55 Cd46 2.356 . S
O55 C53 1.282 . S
C56 O57 1.306 . S
C56 O59 1.160 . S
O57 C56 1.306 . S
O57 Cd58 2.228 . S
Cd58 O57 2.228 . S
Cd58 O62 2.273 . S
Cd58 O66 2.277 . S
O59 C56 1.160 . S
O59 Cd60 2.203 . S
Cd60 O59 2.203 . S
Cd60 O62 2.411 . S
Cd60 O63 2.333 . S
Cd60 O64 2.352 . S
Cd60 O68 2.277 . S
Cd60 O69 2.356 . S
C61 O66 1.209 . S
C61 O68 1.226 . S
O62 Cd58 2.273 . S
O62 Cd60 2.411 . S
O62 C65 1.320 . S
O63 Cd60 2.333 . S
O63 C65 1.214 . S
O64 Cd60 2.352 . S
O64 C67 1.258 . S
C65 O62 1.320 . S
C65 O63 1.214 . S
O66 Cd58 2.277 . S
O66 C61 1.209 . S
C67 O64 1.258 . S
C67 O69 1.282 . S
O68 Cd60 2.277 . S
O68 C61 1.226 . S
O69 Cd60 2.356 . S
O69 C67 1.282 . S
C70 O71 1.306 . S
C70 O73 1.160 . S
O71 C70 1.306 . S
O71 Cd72 2.228 . S
Cd72 O71 2.228 . S
Cd72 O76 2.273 . S
Cd72 O80 2.277 . S
O73 C70 1.160 . S
O73 Cd74 2.203 . S
Cd74 O73 2.203 . S
Cd74 O76 2.411 . S
Cd74 O77 2.333 . S
Cd74 O78 2.352 . S
Cd74 O82 2.277 . S
Cd74 O83 2.356 . S
C75 O80 1.209 . S
C75 O82 1.226 . S
O76 Cd72 2.273 . S
O76 Cd74 2.411 . S
O76 C79 1.320 . S
O77 Cd74 2.333 . S
O77 C79 1.214 . S
O78 Cd74 2.352 . S
O78 C81 1.258 . S
C79 O76 1.320 . S
C79 O77 1.214 . S
O80 Cd72 2.277 . S
O80 C75 1.209 . S
C81 O78 1.258 . S
C81 O83 1.282 . S
O82 Cd74 2.277 . S
O82 C75 1.226 . S
O83 Cd74 2.356 . S
O83 C81 1.282 . S
C84 O85 1.306 . S
C84 O87 1.160 . S
O85 C84 1.306 . S
O85 Cd86 2.228 . S
Cd86 O85 2.228 . S
Cd86 O90 2.273 . S
Cd86 O94 2.277 . S
O87 C84 1.160 . S
O87 Cd88 2.203 . S
Cd88 O87 2.203 . S
Cd88 O90 2.411 . S
Cd88 O91 2.333 . S
Cd88 O92 2.352 . S
Cd88 O96 2.277 . S
Cd88 O97 2.356 . S
C89 O94 1.209 . S
C89 O96 1.226 . S
O90 Cd86 2.273 . S
O90 Cd88 2.411 . S
O90 C93 1.320 . S
O91 Cd88 2.333 . S
O91 C93 1.214 . S
O92 Cd88 2.352 . S
O92 C95 1.258 . S
C93 O90 1.320 . S
C93 O91 1.214 . S
O94 Cd86 2.277 . S
O94 C89 1.209 . S
C95 O92 1.258 . S
C95 O97 1.282 . S
O96 Cd88 2.277 . S
O96 C89 1.226 . S
O97 Cd88 2.356 . S
O97 C95 1.282 . S
C98 O99 1.306 . S
C98 O101 1.160 . S
O99 C98 1.306 . S
O99 Cd100 2.228 . S
Cd100 O99 2.228 . S
Cd100 O104 2.273 . S
Cd100 O108 2.277 . S
O101 C98 1.160 . S
O101 Cd102 2.203 . S
Cd102 O101 2.203 . S
Cd102 O104 2.411 . S
Cd102 O105 2.333 . S
Cd102 O106 2.352 . S
Cd102 O110 2.277 . S
Cd102 O111 2.356 . S
C103 O108 1.209 . S
C103 O110 1.226 . S
O104 Cd100 2.273 . S
O104 Cd102 2.411 . S
O104 C107 1.320 . S
O105 Cd102 2.333 . S
O105 C107 1.214 . S
O106 Cd102 2.352 . S
O106 C109 1.258 . S
C107 O104 1.320 . S
C107 O105 1.214 . S
O108 Cd100 2.277 . S
O108 C103 1.209 . S
C109 O106 1.258 . S
C109 O111 1.282 . S
O110 Cd102 2.277 . S
O110 C103 1.226 . S
O111 Cd102 2.356 . S
O111 C109 1.282 . S
C112 O113 1.306 . S
C112 O115 1.160 . S
O113 C112 1.306 . S
O113 Cd114 2.228 . S
Cd114 O113 2.228 . S
Cd114 O118 2.273 . S
Cd114 O122 2.277 . S
O115 C112 1.160 . S
O115 Cd116 2.203 . S
Cd116 O115 2.203 . S
Cd116 O118 2.411 . S
Cd116 O119 2.333 . S
Cd116 O120 2.352 . S
Cd116 O124 2.277 . S
Cd116 O125 2.356 . S
C117 O122 1.209 . S
C117 O124 1.226 . S
O118 Cd114 2.273 . S
O118 Cd116 2.411 . S
O118 C121 1.320 . S
O119 Cd116 2.333 . S
O119 C121 1.214 . S
O120 Cd116 2.352 . S
O120 C123 1.258 . S
C121 O118 1.320 . S
C121 O119 1.214 . S
O122 Cd114 2.277 . S
O122 C117 1.209 . S
C123 O120 1.258 . S
C123 O125 1.282 . S
O124 Cd116 2.277 . S
O124 C117 1.226 . S
O125 Cd116 2.356 . S
O125 C123 1.282 . S
C126 O127 1.306 . S
C126 O129 1.160 . S
O127 C126 1.306 . S
O127 Cd128 2.228 . S
Cd128 O127 2.228 . S
Cd128 O132 2.273 . S
Cd128 O136 2.277 . S
O129 C126 1.160 . S
O129 Cd130 2.203 . S
Cd130 O129 2.203 . S
Cd130 O132 2.411 . S
Cd130 O133 2.333 . S
Cd130 O134 2.352 . S
Cd130 O138 2.277 . S
Cd130 O139 2.356 . S
C131 O136 1.209 . S
C131 O138 1.226 . S
O132 Cd128 2.273 . S
O132 Cd130 2.411 . S
O132 C135 1.320 . S
O133 Cd130 2.333 . S
O133 C135 1.214 . S
O134 Cd130 2.352 . S
O134 C137 1.258 . S
C135 O132 1.320 . S
C135 O133 1.214 . S
O136 Cd128 2.277 . S
O136 C131 1.209 . S
C137 O134 1.258 . S
C137 O139 1.282 . S
O138 Cd130 2.277 . S
O138 C131 1.226 . S
O139 Cd130 2.356 . S
O139 C137 1.282 . S
C140 O141 1.306 . S
C140 O143 1.160 . S
O141 C140 1.306 . S
O141 Cd142 2.228 . S
Cd142 O141 2.228 . S
Cd142 O146 2.273 . S
Cd142 O150 2.277 . S
O143 C140 1.160 . S
O143 Cd144 2.203 . S
Cd144 O143 2.203 . S
Cd144 O146 2.411 . S
Cd144 O147 2.333 . S
Cd144 O148 2.352 . S
Cd144 O152 2.277 . S
Cd144 O153 2.356 . S
C145 O150 1.209 . S
C145 O152 1.226 . S
O146 Cd142 2.273 . S
O146 Cd144 2.411 . S
O146 C149 1.320 . S
O147 Cd144 2.333 . S
O147 C149 1.214 . S
O148 Cd144 2.352 . S
O148 C151 1.258 . S
C149 O146 1.320 . S
C149 O147 1.214 . S
O150 Cd142 2.277 . S
O150 C145 1.209 . S
C151 O148 1.258 . S
C151 O153 1.282 . S
O152 Cd144 2.277 . S
O152 C145 1.226 . S
O153 Cd144 2.356 . S
O153 C151 1.282 . S
C154 O155 1.306 . S
C154 O157 1.160 . S
O155 C154 1.306 . S
O155 Cd156 2.228 . S
Cd156 O155 2.228 . S
Cd156 O160 2.273 . S
Cd156 O164 2.277 . S
O157 C154 1.160 . S
O157 Cd158 2.203 . S
Cd158 O157 2.203 . S
Cd158 O160 2.411 . S
Cd158 O161 2.333 . S
Cd158 O162 2.352 . S
Cd158 O166 2.277 . S
Cd158 O167 2.356 . S
C159 O164 1.209 . S
C159 O166 1.226 . S
O160 Cd156 2.273 . S
O160 Cd158 2.411 . S
O160 C163 1.320 . S
O161 Cd158 2.333 . S
O161 C163 1.214 . S
O162 Cd158 2.352 . S
O162 C165 1.258 . S
C163 O160 1.320 . S
C163 O161 1.214 . S
O164 Cd156 2.277 . S
O164 C159 1.209 . S
C165 O162 1.258 . S
C165 O167 1.282 . S
O166 Cd158 2.277 . S
O166 C159 1.226 . S
O167 Cd158 2.356 . S
O167 C165 1.282 . S
C168 O169 1.306 . S
C168 O171 1.160 . S
O169 C168 1.306 . S
O169 Cd170 2.228 . S
Cd170 O169 2.228 . S
Cd170 O174 2.273 . S
Cd170 O178 2.277 . S
O171 C168 1.160 . S
O171 Cd172 2.203 . S
Cd172 O171 2.203 . S
Cd172 O174 2.411 . S
Cd172 O175 2.333 . S
Cd172 O176 2.352 . S
Cd172 O180 2.277 . S
Cd172 O181 2.356 . S
C173 O178 1.209 . S
C173 O180 1.226 . S
O174 Cd170 2.273 . S
O174 Cd172 2.411 . S
O174 C177 1.320 . S
O175 Cd172 2.333 . S
O175 C177 1.214 . S
O176 Cd172 2.352 . S
O176 C179 1.258 . S
C177 O174 1.320 . S
C177 O175 1.214 . S
O178 Cd170 2.277 . S
O178 C173 1.209 . S
C179 O176 1.258 . S
C179 O181 1.282 . S
O180 Cd172 2.277 . S
O180 C173 1.226 . S
O181 Cd172 2.356 . S
O181 C179 1.282 . S
C182 O183 1.306 . S
C182 O185 1.160 . S
O183 C182 1.306 . S
O183 Cd184 2.228 . S
Cd184 O183 2.228 . S
Cd184 O188 2.273 . S
Cd184 O192 2.277 . S
O185 C182 1.160 . S
O185 Cd186 2.203 . S
Cd186 O185 2.203 . S
Cd186 O188 2.411 . S
Cd186 O189 2.333 . S
Cd186 O190 2.352 . S
Cd186 O194 2.277 . S
Cd186 O195 2.356 . S
C187 O192 1.209 . S
C187 O194 1.226 . S
O188 Cd184 2.273 . S
O188 Cd186 2.411 . S
O188 C191 1.320 . S
O189 Cd186 2.333 . S
O189 C191 1.214 . S
O190 Cd186 2.352 . S
O190 C193 1.258 . S
C191 O188 1.320 . S
C191 O189 1.214 . S
O192 Cd184 2.277 . S
O192 C187 1.209 . S
C193 O190 1.258 . S
C193 O195 1.282 . S
O194 Cd186 2.277 . S
O194 C187 1.226 . S
O195 Cd186 2.356 . S
O195 C193 1.282 . S
C196 O197 1.306 . S
C196 O199 1.160 . S
O197 C196 1.306 . S
O197 Cd198 2.228 . S
Cd198 O197 2.228 . S
Cd198 O202 2.273 . S
Cd198 O206 2.277 . S
O199 C196 1.160 . S
O199 Cd200 2.203 . S
Cd200 O199 2.203 . S
Cd200 O202 2.411 . S
Cd200 O203 2.333 . S
Cd200 O204 2.352 . S
Cd200 O208 2.277 . S
Cd200 O209 2.356 . S
C201 O206 1.209 . S
C201 O208 1.226 . S
O202 Cd198 2.273 . S
O202 Cd200 2.411 . S
O202 C205 1.320 . S
O203 Cd200 2.333 . S
O203 C205 1.214 . S
O204 Cd200 2.352 . S
O204 C207 1.258 . S
C205 O202 1.320 . S
C205 O203 1.214 . S
O206 Cd198 2.277 . S
O206 C201 1.209 . S
C207 O204 1.258 . S
C207 O209 1.282 . S
O208 Cd200 2.277 . S
O208 C201 1.226 . S
O209 Cd200 2.356 . S
O209 C207 1.282 . S
C210 O211 1.306 . S
C210 O213 1.160 . S
O211 C210 1.306 . S
O211 Cd212 2.228 . S
Cd212 O211 2.228 . S
Cd212 O216 2.273 . S
Cd212 O220 2.277 . S
O213 C210 1.160 . S
O213 Cd214 2.203 . S
Cd214 O213 2.203 . S
Cd214 O216 2.411 . S
Cd214 O217 2.333 . S
Cd214 O218 2.352 . S
Cd214 O222 2.277 . S
Cd214 O223 2.356 . S
C215 O220 1.209 . S
C215 O222 1.226 . S
O216 Cd212 2.273 . S
O216 Cd214 2.411 . S
O216 C219 1.320 . S
O217 Cd214 2.333 . S
O217 C219 1.214 . S
O218 Cd214 2.352 . S
O218 C221 1.258 . S
C219 O216 1.320 . S
C219 O217 1.214 . S
O220 Cd212 2.277 . S
O220 C215 1.209 . S
C221 O218 1.258 . S
C221 O223 1.282 . S
O222 Cd214 2.277 . S
O222 C215 1.226 . S
O223 Cd214 2.356 . S
O223 C221 1.282 . S
H224 C230 0.930 . S
H225 C233 0.930 . S
H226 C234 0.930 . S
H227 C235 0.930 . S
H228 C238 0.930 . S
H229 C239 0.930 . S
C230 H224 0.930 . S
C230 C231 1.355 . S
C230 C232 1.415 . S
C231 C230 1.355 . S
C231 C233 1.419 . S
C232 C230 1.415 . S
C232 C237 1.425 . S
C232 C239 1.409 . S
C233 H225 0.930 . S
C233 C231 1.419 . S
C233 C234 1.362 . S
C234 H226 0.930 . S
C234 C233 1.362 . S
C234 C237 1.409 . S
C235 H227 0.930 . S
C235 C236 1.355 . S
C235 C237 1.415 . S
C236 C235 1.355 . S
C236 C238 1.419 . S
C237 C232 1.425 . S
C237 C234 1.409 . S
C237 C235 1.415 . S
C238 H228 0.930 . S
C238 C236 1.419 . S
C238 C239 1.362 . S
C239 H229 0.930 . S
C239 C232 1.409 . S
C239 C238 1.362 . S
H240 C246 0.930 . S
H241 C249 0.930 . S
H242 C250 0.930 . S
H243 C251 0.930 . S
H244 C254 0.930 . S
H245 C255 0.930 . S
C246 H240 0.930 . S
C246 C247 1.355 . S
C246 C248 1.415 1_655 S
C247 C246 1.355 . S
C247 C249 1.419 . S
C248 C246 1.415 1_455 S
C248 C253 1.425 1_465 S
C248 C255 1.409 1_565 S
C249 H241 0.930 . S
C249 C247 1.419 . S
C249 C250 1.362 . S
C250 H242 0.930 . S
C250 C249 1.362 . S
C250 C253 1.409 1_565 S
C251 H243 0.930 . S
C251 C252 1.355 . S
C251 C253 1.415 1_455 S
C252 C251 1.355 . S
C252 C254 1.419 . S
C253 C248 1.425 1_645 S
C253 C250 1.409 1_545 S
C253 C251 1.415 1_655 S
C254 H244 0.930 . S
C254 C252 1.419 . S
C254 C255 1.362 . S
C255 H245 0.930 . S
C255 C248 1.409 1_545 S
C255 C254 1.362 . S
H256 C262 0.930 . S
H257 C265 0.930 . S
H258 C266 0.930 . S
H259 C267 0.930 . S
H260 C270 0.930 . S
H261 C271 0.930 . S
C262 H256 0.930 . S
C262 C263 1.355 1_545 S
C262 C264 1.415 . S
C263 C262 1.355 1_565 S
C263 C265 1.419 . S
C264 C262 1.415 . S
C264 C269 1.425 1_545 S
C264 C271 1.409 . S
C265 H257 0.930 . S
C265 C263 1.419 . S
C265 C266 1.362 . S
C266 H258 0.930 . S
C266 C265 1.362 . S
C266 C269 1.409 . S
C267 H259 0.930 . S
C267 C268 1.355 1_565 S
C267 C269 1.415 . S
C268 C267 1.355 1_545 S
C268 C270 1.419 . S
C269 C264 1.425 1_565 S
C269 C266 1.409 . S
C269 C267 1.415 . S
C270 H260 0.930 . S
C270 C268 1.419 . S
C270 C271 1.362 . S
C271 H261 0.930 . S
C271 C264 1.409 . S
C271 C270 1.362 . S
H272 C278 0.930 . S
H273 C281 0.930 . S
H274 C282 0.930 . S
H275 C283 0.930 . S
H276 C286 0.930 . S
H277 C287 0.930 . S
C278 H272 0.930 . S
C278 C279 1.355 . S
C278 C280 1.415 . S
C279 C278 1.355 . S
C279 C281 1.419 . S
C280 C278 1.415 . S
C280 C285 1.425 1_455 S
C280 C287 1.409 1_455 S
C281 H273 0.930 . S
C281 C279 1.419 . S
C281 C282 1.362 . S
C282 H274 0.930 . S
C282 C281 1.362 . S
C282 C285 1.409 1_455 S
C283 H275 0.930 . S
C283 C284 1.355 . S
C283 C285 1.415 . S
C284 C283 1.355 . S
C284 C286 1.419 . S
C285 C280 1.425 1_655 S
C285 C282 1.409 1_655 S
C285 C283 1.415 . S
C286 H276 0.930 . S
C286 C284 1.419 . S
C286 C287 1.362 . S
C287 H277 0.930 . S
C287 C280 1.409 1_655 S
C287 C286 1.362 . S
H288 C294 0.930 . S
H289 C297 0.930 . S
H290 C298 0.930 . S
H291 C299 0.930 . S
H292 C302 0.930 . S
H293 C303 0.930 . S
C294 H288 0.930 . S
C294 C295 1.355 . S
C294 C296 1.415 . S
C295 C294 1.355 . S
C295 C297 1.419 . S
C296 C294 1.415 . S
C296 C301 1.425 . S
C296 C303 1.409 . S
C297 H289 0.930 . S
C297 C295 1.419 . S
C297 C298 1.362 . S
C298 H290 0.930 . S
C298 C297 1.362 . S
C298 C301 1.409 . S
C299 H291 0.930 . S
C299 C300 1.355 . S
C299 C301 1.415 . S
C300 C299 1.355 . S
C300 C302 1.419 . S
C301 C296 1.425 . S
C301 C298 1.409 . S
C301 C299 1.415 . S
C302 H292 0.930 . S
C302 C300 1.419 . S
C302 C303 1.362 . S
C303 H293 0.930 . S
C303 C296 1.409 . S
C303 C302 1.362 . S
H304 C310 0.930 . S
H305 C313 0.930 . S
H306 C314 0.930 . S
H307 C315 0.930 . S
H308 C318 0.930 . S
H309 C319 0.930 . S
C310 H304 0.930 . S
C310 C311 1.355 1_565 S
C310 C312 1.415 . S
C311 C310 1.355 1_545 S
C311 C313 1.419 . S
C312 C310 1.415 . S
C312 C317 1.425 1_565 S
C312 C319 1.409 . S
C313 H305 0.930 . S
C313 C311 1.419 . S
C313 C314 1.362 . S
C314 H306 0.930 . S
C314 C313 1.362 . S
C314 C317 1.409 . S
C315 H307 0.930 . S
C315 C316 1.355 1_545 S
C315 C317 1.415 . S
C316 C315 1.355 1_565 S
C316 C318 1.419 . S
C317 C312 1.425 1_545 S
C317 C314 1.409 . S
C317 C315 1.415 . S
C318 H308 0.930 . S
C318 C316 1.419 . S
C318 C319 1.362 . S
C319 H309 0.930 . S
C319 C312 1.409 . S
C319 C318 1.362 . S
H320 C326 0.930 . S
H321 C329 0.930 . S
H322 C330 0.930 . S
H323 C331 0.930 . S
H324 C334 0.930 . S
H325 C335 0.930 . S
C326 H320 0.930 . S
C326 C327 1.355 . S
C326 C328 1.415 1_655 S
C327 C326 1.355 . S
C327 C329 1.419 . S
C328 C326 1.415 1_455 S
C328 C333 1.425 1_455 S
C328 C335 1.409 . S
C329 H321 0.930 . S
C329 C327 1.419 . S
C329 C330 1.362 . S
C330 H322 0.930 . S
C330 C329 1.362 . S
C330 C333 1.409 . S
C331 H323 0.930 . S
C331 C332 1.355 . S
C331 C333 1.415 1_455 S
C332 C331 1.355 . S
C332 C334 1.419 . S
C333 C328 1.425 1_655 S
C333 C330 1.409 . S
C333 C331 1.415 1_655 S
C334 H324 0.930 . S
C334 C332 1.419 . S
C334 C335 1.362 . S
C335 H325 0.930 . S
C335 C328 1.409 . S
C335 C334 1.362 . S
H336 C342 0.930 . S
H337 C345 0.930 . S
H338 C346 0.930 . S
H339 C347 0.930 . S
H340 C350 0.930 . S
H341 C351 0.930 . S
C342 H336 0.930 . S
C342 C343 1.355 . S
C342 C344 1.415 1_554 S
C343 C342 1.355 . S
C343 C345 1.419 . S
C344 C342 1.415 1_556 S
C344 C349 1.425 1_556 S
C344 C351 1.409 . S
C345 H337 0.930 . S
C345 C343 1.419 . S
C345 C346 1.362 . S
C346 H338 0.930 . S
C346 C345 1.362 . S
C346 C349 1.409 . S
C347 H339 0.930 . S
C347 C348 1.355 . S
C347 C349 1.415 1_556 S
C348 C347 1.355 . S
C348 C350 1.419 . S
C349 C344 1.425 1_554 S
C349 C346 1.409 . S
C349 C347 1.415 1_554 S
C350 H340 0.930 . S
C350 C348 1.419 . S
C350 C351 1.362 . S
C351 H341 0.930 . S
C351 C344 1.409 . S
C351 C350 1.362 . S
H352 C358 0.930 . S
H353 C361 0.930 . S
H354 C362 0.944 . S
H355 C363 0.930 . S
H356 C366 0.930 . S
H357 C367 0.944 . S
C358 H352 0.930 . S
C358 C359 1.355 . S
C358 C360 1.415 . S
C359 C358 1.355 . S
C359 C361 1.419 . S
C360 C358 1.415 . S
C360 C365 1.425 1_456 S
C360 C367 1.409 1_556 S
C361 H353 0.930 . S
C361 C359 1.419 . S
C361 C362 1.362 1_455 S
C362 H354 0.944 . S
C362 C361 1.362 1_655 S
C362 C365 1.409 1_556 S
C363 H355 0.930 . S
C363 C364 1.355 . S
C363 C365 1.415 . S
C364 C363 1.355 . S
C364 C366 1.419 . S
C365 C360 1.425 1_654 S
C365 C362 1.409 1_554 S
C365 C363 1.415 . S
C366 H356 0.930 . S
C366 C364 1.419 . S
C366 C367 1.362 1_655 S
C367 H357 0.944 . S
C367 C360 1.409 1_554 S
C367 C366 1.362 1_455 S
H368 C374 0.930 . S
H369 C377 0.930 . S
H370 C378 0.930 . S
H371 C379 0.930 . S
H372 C382 0.930 . S
H373 C383 0.930 . S
C374 H368 0.930 . S
C374 C375 1.355 . S
C374 C376 1.415 . S
C375 C374 1.355 . S
C375 C377 1.419 . S
C376 C374 1.415 . S
C376 C381 1.425 . S
C376 C383 1.409 . S
C377 H369 0.930 . S
C377 C375 1.419 . S
C377 C378 1.362 . S
C378 H370 0.930 . S
C378 C377 1.362 . S
C378 C381 1.409 . S
C379 H371 0.930 . S
C379 C380 1.355 . S
C379 C381 1.415 . S
C380 C379 1.355 . S
C380 C382 1.419 . S
C381 C376 1.425 . S
C381 C378 1.409 . S
C381 C379 1.415 . S
C382 H372 0.930 . S
C382 C380 1.419 . S
C382 C383 1.362 . S
C383 H373 0.930 . S
C383 C376 1.409 . S
C383 C382 1.362 . S
H384 C390 0.908 1_554 S
H385 C393 0.930 . S
H386 C394 0.930 . S
H387 C395 0.908 1_556 S
H388 C398 0.930 . S
H389 C399 0.930 . S
C390 H384 0.908 1_556 S
C390 C391 1.355 . S
C390 C392 1.415 1_556 S
C391 C390 1.355 . S
C391 C393 1.419 . S
C392 C390 1.415 1_554 S
C392 C397 1.425 1_554 S
C392 C399 1.409 . S
C393 H385 0.930 . S
C393 C391 1.419 . S
C393 C394 1.362 . S
C394 H386 0.930 . S
C394 C393 1.362 . S
C394 C397 1.409 . S
C395 H387 0.908 1_554 S
C395 C396 1.355 . S
C395 C397 1.415 1_554 S
C396 C395 1.355 . S
C396 C398 1.419 . S
C397 C392 1.425 1_556 S
C397 C394 1.409 . S
C397 C395 1.415 1_556 S
C398 H388 0.930 . S
C398 C396 1.419 . S
C398 C399 1.362 . S
C399 H389 0.930 . S
C399 C392 1.409 . S
C399 C398 1.362 . S
H400 C406 0.930 . S
H401 C409 0.930 . S
H402 C410 0.930 . S
H403 C411 0.930 . S
H404 C414 0.930 . S
H405 C415 0.930 . S
C406 H400 0.930 . S
C406 C407 1.355 . S
C406 C408 1.415 . S
C407 C406 1.355 . S
C407 C409 1.419 . S
C408 C406 1.415 . S
C408 C413 1.425 . S
C408 C415 1.409 . S
C409 H401 0.930 . S
C409 C407 1.419 . S
C409 C410 1.362 . S
C410 H402 0.930 . S
C410 C409 1.362 . S
C410 C413 1.409 . S
C411 H403 0.930 . S
C411 C412 1.355 . S
C411 C413 1.415 . S
C412 C411 1.355 . S
C412 C414 1.419 . S
C413 C408 1.425 . S
C413 C410 1.409 . S
C413 C411 1.415 . S
C414 H404 0.930 . S
C414 C412 1.419 . S
C414 C415 1.362 . S
C415 H405 0.930 . S
C415 C408 1.409 . S
C415 C414 1.362 . S
H416 C422 0.930 . S
H417 C425 0.930 . S
H418 C426 0.930 . S
H419 C427 0.930 . S
H420 C430 0.930 . S
H421 C431 0.930 . S
C422 H416 0.930 . S
C422 C423 1.355 . S
C422 C424 1.415 1_556 S
C423 C422 1.355 . S
C423 C425 1.419 1_545 S
C424 C422 1.415 1_554 S
C424 C429 1.425 1_544 S
C424 C431 1.409 . S
C425 H417 0.930 . S
C425 C423 1.419 1_565 S
C425 C426 1.362 . S
C426 H418 0.930 . S
C426 C425 1.362 . S
C426 C429 1.409 . S
C427 H419 0.930 . S
C427 C428 1.355 . S
C427 C429 1.415 1_554 S
C428 C427 1.355 . S
C428 C430 1.419 1_565 S
C429 C424 1.425 1_566 S
C429 C426 1.409 . S
C429 C427 1.415 1_556 S
C430 H420 0.930 . S
C430 C428 1.419 1_545 S
C430 C431 1.362 . S
C431 H421 0.930 . S
C431 C424 1.409 . S
C431 C430 1.362 . S
H432 C438 0.930 . S
H433 C441 0.930 . S
H434 C442 0.930 . S
H435 C443 0.930 . S
H436 C446 0.930 . S
H437 C447 0.930 . S
C438 H432 0.930 . S
C438 C439 1.355 . S
C438 C440 1.415 . S
C439 C438 1.355 . S
C439 C441 1.419 . S
C440 C438 1.415 . S
C440 C445 1.425 . S
C440 C447 1.409 . S
C441 H433 0.930 . S
C441 C439 1.419 . S
C441 C442 1.362 . S
C442 H434 0.930 . S
C442 C441 1.362 . S
C442 C445 1.409 . S
C443 H435 0.930 . S
C443 C444 1.355 . S
C443 C445 1.415 . S
C444 C443 1.355 . S
C444 C446 1.419 . S
C445 C440 1.425 . S
C445 C442 1.409 . S
C445 C443 1.415 . S
C446 H436 0.930 . S
C446 C444 1.419 . S
C446 C447 1.362 . S
C447 H437 0.930 . S
C447 C440 1.409 . S
C447 C446 1.362 . S
H448 C454 0.930 . S
H449 C457 0.930 . S
H450 C458 0.930 . S
H451 C459 0.930 . S
H452 C462 0.930 . S
H453 C463 0.930 . S
C454 H448 0.930 . S
C454 C455 1.355 . S
C454 C456 1.415 . S
C455 C454 1.355 . S
C455 C457 1.419 . S
C456 C454 1.415 . S
C456 C461 1.425 . S
C456 C463 1.409 . S
C457 H449 0.930 . S
C457 C455 1.419 . S
C457 C458 1.362 . S
C458 H450 0.930 . S
C458 C457 1.362 . S
C458 C461 1.409 . S
C459 H451 0.930 . S
C459 C460 1.355 . S
C459 C461 1.415 . S
C460 C459 1.355 . S
C460 C462 1.419 . S
C461 C456 1.425 . S
C461 C458 1.409 . S
C461 C459 1.415 . S
C462 H452 0.930 . S
C462 C460 1.419 . S
C462 C463 1.362 . S
C463 H453 0.930 . S
C463 C456 1.409 . S
C463 C462 1.362 . S
H464 C470 0.930 . S
H465 C473 0.930 . S
H466 C474 0.930 . S
H467 C475 0.930 . S
H468 C478 0.930 . S
H469 C479 0.930 . S
C470 H464 0.930 . S
C470 C471 1.355 . S
C470 C472 1.415 . S
C471 C470 1.355 . S
C471 C473 1.419 . S
C472 C470 1.415 . S
C472 C477 1.425 . S
C472 C479 1.409 . S
C473 H465 0.930 . S
C473 C471 1.419 . S
C473 C474 1.362 . S
C474 H466 0.930 . S
C474 C473 1.362 . S
C474 C477 1.409 . S
C475 H467 0.930 . S
C475 C476 1.355 . S
C475 C477 1.415 . S
C476 C475 1.355 . S
C476 C478 1.419 . S
C477 C472 1.425 . S
C477 C474 1.409 . S
C477 C475 1.415 . S
C478 H468 0.930 . S
C478 C476 1.419 . S
C478 C479 1.362 . S
C479 H469 0.930 . S
C479 C472 1.409 . S
C479 C478 1.362 . S
H480 C486 0.930 . S
H481 C489 0.930 . S
H482 C490 0.930 . S
H483 C491 0.930 . S
H484 C494 0.930 . S
H485 C495 0.930 . S
C486 H480 0.930 . S
C486 C487 1.355 . S
C486 C488 1.415 . S
C487 C486 1.355 . S
C487 C489 1.419 . S
C488 C486 1.415 . S
C488 C493 1.425 . S
C488 C495 1.409 . S
C489 H481 0.930 . S
C489 C487 1.419 . S
C489 C490 1.362 . S
C490 H482 0.930 . S
C490 C489 1.362 . S
C490 C493 1.409 . S
C491 H483 0.930 . S
C491 C492 1.355 . S
C491 C493 1.415 . S
C492 C491 1.355 . S
C492 C494 1.419 . S
C493 C488 1.425 . S
C493 C490 1.409 . S
C493 C491 1.415 . S
C494 H484 0.930 . S
C494 C492 1.419 . S
C494 C495 1.362 . S
C495 H485 0.930 . S
C495 C488 1.409 . S
C495 C494 1.362 . S
H496 C502 0.930 . S
H497 C505 0.930 . S
H498 C506 0.930 . S
H499 C507 0.930 . S
H500 C510 0.930 . S
H501 C511 0.930 . S
C502 H496 0.930 . S
C502 C503 1.355 . S
C502 C504 1.415 . S
C503 C502 1.355 . S
C503 C505 1.419 . S
C504 C502 1.415 . S
C504 C509 1.425 . S
C504 C511 1.409 . S
C505 H497 0.930 . S
C505 C503 1.419 . S
C505 C506 1.362 . S
C506 H498 0.930 . S
C506 C505 1.362 . S
C506 C509 1.409 . S
C507 H499 0.930 . S
C507 C508 1.355 . S
C507 C509 1.415 . S
C508 C507 1.355 . S
C508 C510 1.419 . S
C509 C504 1.425 . S
C509 C506 1.409 . S
C509 C507 1.415 . S
C510 H500 0.930 . S
C510 C508 1.419 . S
C510 C511 1.362 . S
C511 H501 0.930 . S
C511 C504 1.409 . S
C511 C510 1.362 . S
H512 C518 0.930 . S
H513 C521 0.930 . S
H514 C522 0.930 . S
H515 C523 0.930 . S
H516 C526 0.930 . S
H517 C527 0.930 . S
C518 H512 0.930 . S
C518 C519 1.355 . S
C518 C520 1.415 . S
C519 C518 1.355 . S
C519 C521 1.419 . S
C520 C518 1.415 . S
C520 C525 1.425 . S
C520 C527 1.409 . S
C521 H513 0.930 . S
C521 C519 1.419 . S
C521 C522 1.362 . S
C522 H514 0.930 . S
C522 C521 1.362 . S
C522 C525 1.409 . S
C523 H515 0.930 . S
C523 C524 1.355 . S
C523 C525 1.415 . S
C524 C523 1.355 . S
C524 C526 1.419 . S
C525 C520 1.425 . S
C525 C522 1.409 . S
C525 C523 1.415 . S
C526 H516 0.930 . S
C526 C524 1.419 . S
C526 C527 1.362 . S
C527 H517 0.930 . S
C527 C520 1.409 . S
C527 C526 1.362 . S
H528 C534 0.930 . S
H529 C537 0.930 . S
H530 C538 0.930 . S
H531 C539 0.930 . S
H532 C542 0.930 . S
H533 C543 0.930 . S
C534 H528 0.930 . S
C534 C535 1.355 . S
C534 C536 1.415 . S
C535 C534 1.355 . S
C535 C537 1.419 . S
C536 C534 1.415 . S
C536 C541 1.425 . S
C536 C543 1.409 . S
C537 H529 0.930 . S
C537 C535 1.419 . S
C537 C538 1.362 . S
C538 H530 0.930 . S
C538 C537 1.362 . S
C538 C541 1.409 . S
C539 H531 0.930 . S
C539 C540 1.355 . S
C539 C541 1.415 . S
C540 C539 1.355 . S
C540 C542 1.419 . S
C541 C536 1.425 . S
C541 C538 1.409 . S
C541 C539 1.415 . S
C542 H532 0.930 . S
C542 C540 1.419 . S
C542 C543 1.362 . S
C543 H533 0.930 . S
C543 C536 1.409 . S
C543 C542 1.362 . S
H544 C550 0.930 . S
H545 C553 0.930 . S
H546 C554 0.930 . S
H547 C555 0.930 . S
H548 C558 0.930 . S
H549 C559 0.930 . S
C550 H544 0.930 . S
C550 C551 1.355 . S
C550 C552 1.415 . S
C551 C550 1.355 . S
C551 C553 1.419 . S
C552 C550 1.415 . S
C552 C557 1.425 . S
C552 C559 1.409 . S
C553 H545 0.930 . S
C553 C551 1.419 . S
C553 C554 1.362 . S
C554 H546 0.930 . S
C554 C553 1.362 . S
C554 C557 1.409 . S
C555 H547 0.930 . S
C555 C556 1.355 . S
C555 C557 1.415 . S
C556 C555 1.355 . S
C556 C558 1.419 1_545 S
C557 C552 1.425 . S
C557 C554 1.409 . S
C557 C555 1.415 . S
C558 H548 0.930 . S
C558 C556 1.419 1_565 S
C558 C559 1.362 1_565 S
C559 H549 0.930 . S
C559 C552 1.409 . S
C559 C558 1.362 1_545 S
H560 C566 0.930 . S
H561 C569 0.930 . S
H562 C570 0.930 . S
H563 C571 0.930 . S
H564 C574 0.930 . S
H565 C575 0.930 . S
C566 H560 0.930 . S
C566 C567 1.355 . S
C566 C568 1.415 . S
C567 C566 1.355 . S
C567 C569 1.419 . S
C568 C566 1.415 . S
C568 C573 1.425 . S
C568 C575 1.409 . S
C569 H561 0.930 . S
C569 C567 1.419 . S
C569 C570 1.362 . S
C570 H562 0.930 . S
C570 C569 1.362 . S
C570 C573 1.409 . S
C571 H563 0.930 . S
C571 C572 1.355 . S
C571 C573 1.415 . S
C572 C571 1.355 . S
C572 C574 1.419 . S
C573 C568 1.425 . S
C573 C570 1.409 . S
C573 C571 1.415 . S
C574 H564 0.930 . S
C574 C572 1.419 . S
C574 C575 1.362 . S
C575 H565 0.930 . S
C575 C568 1.409 . S
C575 C574 1.362 . S
H576 C582 0.930 . S
H577 C585 0.930 . S
H578 C586 0.930 . S
H579 C587 0.930 . S
H580 C590 0.930 . S
H581 C591 0.930 . S
C582 H576 0.930 . S
C582 C583 1.355 . S
C582 C584 1.415 . S
C583 C582 1.355 . S
C583 C585 1.419 . S
C584 C582 1.415 . S
C584 C589 1.425 . S
C584 C591 1.409 . S
C585 H577 0.930 . S
C585 C583 1.419 . S
C585 C586 1.362 . S
C586 H578 0.930 . S
C586 C585 1.362 . S
C586 C589 1.409 . S
C587 H579 0.930 . S
C587 C588 1.355 . S
C587 C589 1.415 . S
C588 C587 1.355 . S
C588 C590 1.419 . S
C589 C584 1.425 . S
C589 C586 1.409 . S
C589 C587 1.415 . S
C590 H580 0.930 . S
C590 C588 1.419 . S
C590 C591 1.362 . S
C591 H581 0.930 . S
C591 C584 1.409 . S
C591 C590 1.362 . S
H592 C598 0.930 . S
H593 C601 0.930 1_565 S
H594 C602 0.930 . S
H595 C603 0.930 . S
H596 C606 0.930 . S
H597 C607 0.930 . S
C598 H592 0.930 . S
C598 C599 1.355 . S
C598 C600 1.415 . S
C599 C598 1.355 . S
C599 C601 1.419 . S
C600 C598 1.415 . S
C600 C605 1.425 . S
C600 C607 1.409 . S
C601 H593 0.930 1_545 S
C601 C599 1.419 . S
C601 C602 1.362 . S
C602 H594 0.930 . S
C602 C601 1.362 . S
C602 C605 1.409 . S
C603 H595 0.930 . S
C603 C604 1.355 . S
C603 C605 1.415 . S
C604 C603 1.355 . S
C604 C606 1.419 . S
C605 C600 1.425 . S
C605 C602 1.409 . S
C605 C603 1.415 . S
C606 H596 0.930 . S
C606 C604 1.419 . S
C606 C607 1.362 . S
C607 H597 0.930 . S
C607 C600 1.409 . S
C607 C606 1.362 . S
H608 C614 0.930 . S
H609 C617 0.930 . S
H610 C618 0.930 . S
H611 C619 0.930 . S
H612 C622 0.930 . S
H613 C623 0.930 . S
C614 H608 0.930 . S
C614 C615 1.355 . S
C614 C616 1.415 . S
C615 C614 1.355 . S
C615 C617 1.419 . S
C616 C614 1.415 . S
C616 C621 1.425 . S
C616 C623 1.409 . S
C617 H609 0.930 . S
C617 C615 1.419 . S
C617 C618 1.362 . S
C618 H610 0.930 . S
C618 C617 1.362 . S
C618 C621 1.409 . S
C619 H611 0.930 . S
C619 C620 1.355 . S
C619 C621 1.415 . S
C620 C619 1.355 . S
C620 C622 1.419 . S
C621 C616 1.425 . S
C621 C618 1.409 . S
C621 C619 1.415 . S
C622 H612 0.930 . S
C622 C620 1.419 . S
C622 C623 1.362 . S
C623 H613 0.930 . S
C623 C616 1.409 . S
C623 C622 1.362 . S
H624 C630 0.930 . S
H625 C633 0.930 . S
H626 C634 0.930 . S
H627 C635 0.930 . S
H628 C638 0.930 . S
H629 C639 0.930 . S
C630 H624 0.930 . S
C630 C631 1.355 . S
C630 C632 1.415 . S
C631 C630 1.355 . S
C631 C633 1.419 . S
C632 C630 1.415 . S
C632 C637 1.425 . S
C632 C639 1.409 . S
C633 H625 0.930 . S
C633 C631 1.419 . S
C633 C634 1.362 . S
C634 H626 0.930 . S
C634 C633 1.362 . S
C634 C637 1.409 . S
C635 H627 0.930 . S
C635 C636 1.355 . S
C635 C637 1.415 . S
C636 C635 1.355 . S
C636 C638 1.419 . S
C637 C632 1.425 . S
C637 C634 1.409 . S
C637 C635 1.415 . S
C638 H628 0.930 . S
C638 C636 1.419 . S
C638 C639 1.362 . S
C639 H629 0.930 . S
C639 C632 1.409 . S
C639 C638 1.362 . S
H640 C646 0.930 . S
H641 C649 0.930 . S
H642 C650 0.930 . S
H643 C651 0.930 . S
H644 C654 0.930 . S
H645 C655 0.930 . S
C646 H640 0.930 . S
C646 C647 1.355 . S
C646 C648 1.415 . S
C647 C646 1.355 . S
C647 C649 1.419 . S
C648 C646 1.415 . S
C648 C653 1.425 . S
C648 C655 1.409 . S
C649 H641 0.930 . S
C649 C647 1.419 . S
C649 C650 1.362 . S
C650 H642 0.930 . S
C650 C649 1.362 . S
C650 C653 1.409 . S
C651 H643 0.930 . S
C651 C652 1.355 . S
C651 C653 1.415 . S
C652 C651 1.355 . S
C652 C654 1.419 . S
C653 C648 1.425 . S
C653 C650 1.409 . S
C653 C651 1.415 . S
C654 H644 0.930 . S
C654 C652 1.419 . S
C654 C655 1.362 . S
C655 H645 0.930 . S
C655 C648 1.409 . S
C655 C654 1.362 . S
H656 C662 0.930 . S
H657 C665 0.930 . S
H658 C666 0.930 . S
H659 C667 0.930 . S
H660 C670 0.930 . S
H661 C671 0.930 . S
C662 H656 0.930 . S
C662 C663 1.355 . S
C662 C664 1.415 . S
C663 C662 1.355 . S
C663 C665 1.419 . S
C664 C662 1.415 . S
C664 C669 1.425 . S
C664 C671 1.409 . S
C665 H657 0.930 . S
C665 C663 1.419 . S
C665 C666 1.362 . S
C666 H658 0.930 . S
C666 C665 1.362 . S
C666 C669 1.409 . S
C667 H659 0.930 . S
C667 C668 1.355 . S
C667 C669 1.415 . S
C668 C667 1.355 . S
C668 C670 1.419 . S
C669 C664 1.425 . S
C669 C666 1.409 . S
C669 C667 1.415 . S
C670 H660 0.930 . S
C670 C668 1.419 . S
C670 C671 1.362 . S
C671 H661 0.930 . S
C671 C664 1.409 . S
C671 C670 1.362 . S
H672 C678 0.930 . S
H673 C681 0.930 . S
H674 C682 0.930 . S
H675 C683 0.930 1_565 S
H676 C686 0.930 . S
H677 C687 0.930 . S
C678 H672 0.930 . S
C678 C679 1.355 . S
C678 C680 1.415 . S
C679 C678 1.355 . S
C679 C681 1.419 . S
C680 C678 1.415 . S
C680 C685 1.425 . S
C680 C687 1.409 . S
C681 H673 0.930 . S
C681 C679 1.419 . S
C681 C682 1.362 . S
C682 H674 0.930 . S
C682 C681 1.362 . S
C682 C685 1.409 . S
C683 H675 0.930 1_545 S
C683 C684 1.355 . S
C683 C685 1.415 . S
C684 C683 1.355 . S
C684 C686 1.419 . S
C685 C680 1.425 . S
C685 C682 1.409 . S
C685 C683 1.415 . S
C686 H676 0.930 . S
C686 C684 1.419 . S
C686 C687 1.362 . S
C687 H677 0.930 . S
C687 C680 1.409 . S
C687 C686 1.362 . S
H688 C694 0.930 . S
H689 C697 0.930 . S
H690 C698 0.930 . S
H691 C699 0.930 . S
H692 C702 0.930 . S
H693 C703 0.930 . S
C694 H688 0.930 . S
C694 C695 1.355 . S
C694 C696 1.415 . S
C695 C694 1.355 . S
C695 C697 1.419 . S
C696 C694 1.415 . S
C696 C701 1.425 . S
C696 C703 1.409 . S
C697 H689 0.930 . S
C697 C695 1.419 . S
C697 C698 1.362 . S
C698 H690 0.930 . S
C698 C697 1.362 . S
C698 C701 1.409 . S
C699 H691 0.930 . S
C699 C700 1.355 . S
C699 C701 1.415 . S
C700 C699 1.355 . S
C700 C702 1.419 . S
C701 C696 1.425 . S
C701 C698 1.409 . S
C701 C699 1.415 . S
C702 H692 0.930 . S
C702 C700 1.419 . S
C702 C703 1.362 . S
C703 H693 0.930 . S
C703 C696 1.409 . S
C703 C702 1.362 . S
H704 C710 0.930 . S
H705 C713 0.930 . S
H706 C714 0.930 . S
H707 C715 0.930 . S
H708 C718 0.930 . S
H709 C719 0.930 . S
C710 H704 0.930 . S
C710 C711 1.355 . S
C710 C712 1.415 . S
C711 C710 1.355 . S
C711 C713 1.419 . S
C712 C710 1.415 . S
C712 C717 1.425 . S
C712 C719 1.409 . S
C713 H705 0.930 . S
C713 C711 1.419 . S
C713 C714 1.362 . S
C714 H706 0.930 . S
C714 C713 1.362 . S
C714 C717 1.409 . S
C715 H707 0.930 . S
C715 C716 1.355 . S
C715 C717 1.415 . S
C716 C715 1.355 . S
C716 C718 1.419 . S
C717 C712 1.425 . S
C717 C714 1.409 . S
C717 C715 1.415 . S
C718 H708 0.930 . S
C718 C716 1.419 . S
C718 C719 1.362 . S
C719 H709 0.930 . S
C719 C712 1.409 . S
C719 C718 1.362 . S
H720 C726 0.930 . S
H721 C729 0.930 . S
H722 C730 0.930 . S
H723 C731 0.930 . S
H724 C734 0.930 1_565 S
H725 C735 0.930 . S
C726 H720 0.930 . S
C726 C727 1.355 . S
C726 C728 1.415 . S
C727 C726 1.355 . S
C727 C729 1.419 . S
C728 C726 1.415 . S
C728 C733 1.425 . S
C728 C735 1.409 . S
C729 H721 0.930 . S
C729 C727 1.419 . S
C729 C730 1.362 . S
C730 H722 0.930 . S
C730 C729 1.362 . S
C730 C733 1.409 . S
C731 H723 0.930 . S
C731 C732 1.355 . S
C731 C733 1.415 . S
C732 C731 1.355 . S
C732 C734 1.419 . S
C733 C728 1.425 . S
C733 C730 1.409 . S
C733 C731 1.415 . S
C734 H724 0.930 1_545 S
C734 C732 1.419 . S
C734 C735 1.362 . S
C735 H725 0.930 . S
C735 C728 1.409 . S
C735 C734 1.362 . S
C231 C196 1.494 . S
C236 C0 1.494 . S
C247 C39 1.496 . S
C252 C11 1.496 . S
C263 C165 1.491 . S
C268 C25 1.491 . S
C279 C14 1.480 . S
C284 C98 1.480 . S
C295 C28 1.475 . S
C300 C168 1.475 . S
C311 C137 1.486 . S
C316 C53 1.486 . S
C327 C42 1.491 . S
C332 C70 1.491 . S
C343 C140 1.475 . S
C348 C56 1.475 . S
C359 C67 1.488 . S
C364 C95 1.488 . S
C375 C221 1.497 . S
C380 C81 1.497 . S
C391 C112 1.476 . S
C396 C84 1.476 . S
C407 C193 1.484 . S
C412 C109 1.484 . S
C423 C123 1.489 . S
C428 C151 1.489 . S
C439 C210 1.494 . S
C444 C126 1.494 . S
C455 C154 1.487 . S
C460 C182 1.487 . S
C471 C207 1.497 . S
C476 C179 1.497 . S
C487 C75 1.437 . S
C492 C9 1.451 1_565 S
C503 C5 1.439 . S
C508 C79 1.439 . S
C519 C19 1.446 . S
C524 C65 1.439 . S
C535 C61 1.439 . S
C540 C23 1.450 1_565 S
C551 C103 1.439 . S
C556 C37 1.439 1_545 S
C567 C107 1.442 . S
C572 C33 1.444 . S
C583 C93 1.439 . S
C588 C47 1.439 . S
C599 C51 1.427 1_545 S
C604 C89 1.447 . S
C615 C187 1.440 . S
C620 C121 1.449 1_565 S
C631 C117 1.448 . S
C636 C191 1.430 . S
C647 C131 1.445 . S
C652 C177 1.429 . S
C663 C173 1.448 . S
C668 C135 1.429 1_565 S
C679 C215 1.447 . S
C684 C149 1.434 1_545 S
C695 C219 1.426 . S
C700 C145 1.448 . S
C711 C159 1.437 . S
C716 C205 1.447 . S
C727 C201 1.441 . S
C732 C163 1.434 1_545 S
