# Generated by pormake.
# Topology vmg, (6)-cn, num edge types: 1
# Building blocks:
#     Node 0, Type 0, BuildingBlock: OJICUG_clean_sbu_0, # of connection points: 6
#     Node 1, Type 0, BuildingBlock: OJICUG_clean_sbu_0, # of connection points: 6
#     Node 2, Type 0, BuildingBlock: OJICUG_clean_sbu_0, # of connection points: 6
#     Node 3, Type 0, BuildingBlock: OJICUG_clean_sbu_0, # of connection points: 6
#     Node 4, Type 0, BuildingBlock: OJICUG_clean_sbu_0, # of connection points: 6
#     Node 5, Type 0, BuildingBlock: OJICUG_clean_sbu_0, # of connection points: 6
#     Node 6, Type 0, BuildingBlock: OJICUG_clean_sbu_0, # of connection points: 6
#     Node 7, Type 0, BuildingBlock: OJICUG_clean_sbu_0, # of connection points: 6
#     Edge 8, Type (0, 0), BuildingBlock: UVAHIK_clean_linker_0, # of connection points: 2
#     Edge 9, Type (0, 0), BuildingBlock: UVAHIK_clean_linker_0, # of connection points: 2
#     Edge 10, Type (0, 0), BuildingBlock: UVAHIK_clean_linker_0, # of connection points: 2
#     Edge 11, Type (0, 0), BuildingBlock: UVAHIK_clean_linker_0, # of connection points: 2
#     Edge 12, Type (0, 0), BuildingBlock: UVAHIK_clean_linker_0, # of connection points: 2
#     Edge 13, Type (0, 0), BuildingBlock: UVAHIK_clean_linker_0, # of connection points: 2
#     Edge 14, Type (0, 0), BuildingBlock: UVAHIK_clean_linker_0, # of connection points: 2
#     Edge 15, Type (0, 0), BuildingBlock: UVAHIK_clean_linker_0, # of connection points: 2
#     Edge 16, Type (0, 0), BuildingBlock: UVAHIK_clean_linker_0, # of connection points: 2
#     Edge 17, Type (0, 0), BuildingBlock: UVAHIK_clean_linker_0, # of connection points: 2
#     Edge 18, Type (0, 0), BuildingBlock: UVAHIK_clean_linker_0, # of connection points: 2
#     Edge 19, Type (0, 0), BuildingBlock: UVAHIK_clean_linker_0, # of connection points: 2
#     Edge 20, Type (0, 0), BuildingBlock: UVAHIK_clean_linker_0, # of connection points: 2
#     Edge 21, Type (0, 0), BuildingBlock: UVAHIK_clean_linker_0, # of connection points: 2
#     Edge 22, Type (0, 0), BuildingBlock: UVAHIK_clean_linker_0, # of connection points: 2
#     Edge 23, Type (0, 0), BuildingBlock: UVAHIK_clean_linker_0, # of connection points: 2
#     Edge 24, Type (0, 0), BuildingBlock: UVAHIK_clean_linker_0, # of connection points: 2
#     Edge 25, Type (0, 0), BuildingBlock: UVAHIK_clean_linker_0, # of connection points: 2
#     Edge 26, Type (0, 0), BuildingBlock: UVAHIK_clean_linker_0, # of connection points: 2
#     Edge 27, Type (0, 0), BuildingBlock: UVAHIK_clean_linker_0, # of connection points: 2
#     Edge 28, Type (0, 0), BuildingBlock: UVAHIK_clean_linker_0, # of connection points: 2
#     Edge 29, Type (0, 0), BuildingBlock: UVAHIK_clean_linker_0, # of connection points: 2
#     Edge 30, Type (0, 0), BuildingBlock: UVAHIK_clean_linker_0, # of connection points: 2
#     Edge 31, Type (0, 0), BuildingBlock: UVAHIK_clean_linker_0, # of connection points: 2
# Relax obj value: 0.217
# Max RMSD: 0.229
# Mean RMSD: 0.229
data_MOF--net-vmg--node1-OJICUG_clean_sbu_0--edge1-UVAHIK_clean_linker_0
_symmetry_space_group_name_H-M    P1
_symmetry_Int_Tables_number       1
_symmetry_cell_setting            triclinic
loop_
_symmetry_equiv_pos_as_xyz
'x, y, z'
_cell_length_a     38.521045
_cell_length_b     56.067597
_cell_length_c     34.787834
_cell_angle_alpha  90.031556
_cell_angle_beta   108.43589
_cell_angle_gamma 90.046368
loop_
_atom_site_label
_atom_site_type_symbol
_atom_site_fract_x
_atom_site_fract_y
_atom_site_fract_z
_atom_type_partial_charge
Sc0 Sc 0.16375 0.38627 0.11284 0.0
Sc1 Sc 0.21791 0.42817 0.1781 0.0
Sc2 Sc 0.22283 0.36808 0.20707 0.0
O3 O 0.20175 0.39406 0.16598 0.0
C4 C 0.13988 0.35289 0.17497 0.0
C5 C 0.13232 0.43421 0.13129 0.0
C6 C 0.21024 0.41171 0.26093 0.0
C7 C 0.213 0.42621 0.08753 0.0
C8 C 0.21775 0.34333 0.12179 0.0
C9 C 0.29264 0.39924 0.21677 0.0
O10 O 0.13572 0.36064 0.13937 0.0
O11 O 0.16409 0.44287 0.14791 0.0
O12 O 0.22161 0.39057 0.25824 0.0
O13 O 0.18604 0.41172 0.07934 0.0
O14 O 0.22624 0.34269 0.16041 0.0
O15 O 0.27419 0.41847 0.20908 0.0
O16 O 0.19783 0.35955 0.1004 0.0
O17 O 0.23178 0.43149 0.12361 0.0
O18 O 0.27779 0.37878 0.21351 0.0
O19 O 0.12702 0.41236 0.12195 0.0
O20 O 0.16939 0.3557 0.20406 0.0
O21 O 0.20419 0.42691 0.23261 0.0
Sc22 Sc 0.74845 0.37462 0.28181 0.0
Sc23 Sc 0.75508 0.43367 0.31609 0.0
Sc24 Sc 0.81637 0.39169 0.37091 0.0
O25 O 0.77303 0.39981 0.32287 0.0
C26 C 0.76443 0.34824 0.3682 0.0
C27 C 0.68025 0.40419 0.28474 0.0
C28 C 0.77259 0.42963 0.40821 0.0
C29 C 0.75327 0.42041 0.22807 0.0
C30 C 0.83087 0.35959 0.30125 0.0
C31 C 0.84197 0.44064 0.35121 0.0
O32 O 0.75139 0.34825 0.32945 0.0
O33 O 0.69807 0.42368 0.29124 0.0
O34 O 0.80037 0.41651 0.41093 0.0
O35 O 0.7435 0.39879 0.23054 0.0
O36 O 0.83928 0.36671 0.33782 0.0
O37 O 0.80952 0.44884 0.34151 0.0
O38 O 0.79941 0.36292 0.27577 0.0
O39 O 0.76154 0.43481 0.25778 0.0
O40 O 0.84871 0.41851 0.35534 0.0
O41 O 0.69537 0.38414 0.28417 0.0
O42 O 0.78608 0.36426 0.38812 0.0
O43 O 0.74839 0.43396 0.37455 0.0
Sc44 Sc 0.75231 0.62962 0.78194 0.0
Sc45 Sc 0.75764 0.57037 0.8151 0.0
Sc46 Sc 0.81066 0.61365 0.87782 0.0
O47 O 0.77328 0.60467 0.82495 0.0
C48 C 0.83493 0.64546 0.81411 0.0
C49 C 0.76641 0.58455 0.7318 0.0
C50 C 0.84302 0.56525 0.86388 0.0
C51 C 0.68276 0.59847 0.77316 0.0
C52 C 0.7559 0.65644 0.86512 0.0
C53 C 0.76135 0.57445 0.9049 0.0
O54 O 0.80577 0.64189 0.78488 0.0
O55 O 0.77255 0.57012 0.76127 0.0
O56 O 0.84803 0.58736 0.87091 0.0
O57 O 0.69737 0.61896 0.77556 0.0
O58 O 0.77578 0.64066 0.88778 0.0
O59 O 0.74259 0.56874 0.86902 0.0
O60 O 0.74795 0.6562 0.82653 0.0
O61 O 0.70145 0.57938 0.78215 0.0
O62 O 0.78841 0.58886 0.91251 0.0
O63 O 0.75446 0.60573 0.73275 0.0
O64 O 0.83869 0.63866 0.85015 0.0
O65 O 0.81138 0.55628 0.8477 0.0
Sc66 Sc 0.15895 0.60574 0.61823 0.0
Sc67 Sc 0.22053 0.564 0.67292 0.0
Sc68 Sc 0.22683 0.62298 0.70718 0.0
O69 O 0.20238 0.59778 0.66619 0.0
C70 C 0.21071 0.64926 0.62072 0.0
C71 C 0.20325 0.56808 0.58108 0.0
C72 C 0.2952 0.59353 0.7047 0.0
C73 C 0.13375 0.55671 0.63709 0.0
C74 C 0.14433 0.63785 0.68779 0.0
C75 C 0.22186 0.57713 0.76072 0.0
O76 O 0.18905 0.63322 0.60088 0.0
O77 O 0.22772 0.56407 0.61469 0.0
O78 O 0.27997 0.61358 0.70477 0.0
O79 O 0.1269 0.57885 0.6341 0.0
O80 O 0.17582 0.63458 0.71326 0.0
O81 O 0.21352 0.56276 0.73096 0.0
O82 O 0.13594 0.63071 0.65124 0.0
O83 O 0.16629 0.54869 0.64661 0.0
O84 O 0.23182 0.59872 0.75834 0.0
O85 O 0.17514 0.58087 0.57839 0.0
O86 O 0.22379 0.6493 0.65947 0.0
O87 O 0.27744 0.57401 0.69852 0.0
Sc88 Sc 0.66167 0.89451 0.11763 0.0
Sc89 Sc 0.72536 0.93363 0.17894 0.0
Sc90 Sc 0.72843 0.87288 0.20427 0.0
O91 O 0.70541 0.90021 0.1669 0.0
C92 C 0.64494 0.85965 0.18275 0.0
C93 C 0.63903 0.94275 0.14628 0.0
C94 C 0.72675 0.9157 0.26494 0.0
C95 C 0.70759 0.93373 0.08559 0.0
C96 C 0.71077 0.85026 0.11477 0.0
C97 C 0.79839 0.90209 0.20517 0.0
O98 O 0.63663 0.86897 0.14765 0.0
O99 O 0.67189 0.95026 0.1583 0.0
O100 O 0.73416 0.89408 0.25891 0.0
O101 O 0.67993 0.92012 0.08075 0.0
O102 O 0.72446 0.8489 0.15334 0.0
O103 O 0.78167 0.92196 0.20032 0.0
O104 O 0.68972 0.86707 0.09695 0.0
O105 O 0.73079 0.93768 0.12012 0.0
O106 O 0.78223 0.88225 0.20405 0.0
O107 O 0.63085 0.9213 0.13573 0.0
O108 O 0.67683 0.86104 0.20814 0.0
O109 O 0.72032 0.93174 0.23792 0.0
Sc110 Sc 0.2574 0.86734 0.28757 0.0
Sc111 Sc 0.26196 0.92721 0.3179 0.0
Sc112 Sc 0.31953 0.88566 0.38 0.0
O113 O 0.27934 0.89327 0.32849 0.0
C114 C 0.26656 0.84232 0.37377 0.0
C115 C 0.18753 0.89758 0.28164 0.0
C116 C 0.27175 0.9248 0.40944 0.0
C117 C 0.26669 0.91168 0.23319 0.0
C118 C 0.34045 0.85255 0.31557 0.0
C119 C 0.34815 0.93408 0.36021 0.0
O120 O 0.25622 0.84182 0.335 0.0
O121 O 0.20547 0.91703 0.28926 0.0
O122 O 0.29919 0.91087 0.41573 0.0
O123 O 0.2565 0.89023 0.23608 0.0
O124 O 0.34612 0.86026 0.35147 0.0
O125 O 0.31588 0.94242 0.34605 0.0
O126 O 0.31018 0.85535 0.2877 0.0
O127 O 0.27295 0.92675 0.26178 0.0
O128 O 0.35441 0.91215 0.36816 0.0
O129 O 0.20284 0.87738 0.28363 0.0
O130 O 0.28714 0.85854 0.39446 0.0
O131 O 0.25079 0.92963 0.37407 0.0
Sc132 Sc 0.2581 0.12339 0.7886 0.0
Sc133 Sc 0.26287 0.06477 0.82396 0.0
Sc134 Sc 0.32165 0.1072 0.88074 0.0
O135 O 0.28048 0.09865 0.83101 0.0
C136 C 0.34062 0.13858 0.81325 0.0
C137 C 0.26624 0.07699 0.73767 0.0
C138 C 0.34928 0.05849 0.86523 0.0
C139 C 0.18851 0.09401 0.78647 0.0
C140 C 0.26888 0.1503 0.87372 0.0
C141 C 0.27522 0.06928 0.91468 0.0
O142 O 0.3105 0.13441 0.78585 0.0
O143 O 0.27376 0.06299 0.76787 0.0
O144 O 0.35547 0.08071 0.8672 0.0
O145 O 0.20399 0.11411 0.78762 0.0
O146 O 0.28912 0.13417 0.89514 0.0
O147 O 0.25187 0.06533 0.88027 0.0
O148 O 0.25879 0.15034 0.83489 0.0
O149 O 0.2063 0.07452 0.79412 0.0
O150 O 0.30365 0.08209 0.91885 0.0
O151 O 0.25551 0.09852 0.73882 0.0
O152 O 0.34644 0.13257 0.85004 0.0
O153 O 0.3169 0.05004 0.85444 0.0
Sc154 Sc 0.66563 0.11023 0.61235 0.0
Sc155 Sc 0.72429 0.06867 0.67245 0.0
Sc156 Sc 0.7297 0.12822 0.70379 0.0
O157 O 0.70681 0.10257 0.66286 0.0
C158 C 0.71832 0.15371 0.61749 0.0
C159 C 0.71329 0.07177 0.58117 0.0
C160 C 0.79897 0.09788 0.70802 0.0
C161 C 0.63811 0.06154 0.63093 0.0
C162 C 0.64658 0.14298 0.67855 0.0
C163 C 0.72039 0.08349 0.75756 0.0
O164 O 0.69721 0.13761 0.59704 0.0
O165 O 0.73534 0.06746 0.61621 0.0
O166 O 0.78388 0.11817 0.70578 0.0
O167 O 0.63157 0.0836 0.62528 0.0
O168 O 0.6775 0.14033 0.70543 0.0
O169 O 0.71327 0.06866 0.72852 0.0
O170 O 0.63982 0.13527 0.64247 0.0
O171 O 0.67054 0.05334 0.64358 0.0
O172 O 0.73137 0.10482 0.75508 0.0
O173 O 0.68515 0.08505 0.57557 0.0
O174 O 0.72978 0.15396 0.65628 0.0
O175 O 0.78081 0.07853 0.70148 0.0
C176 C 0.62047 0.38341 0.27488 0.0
C177 C 0.64045 0.40476 0.27873 0.0
C178 C 0.58325 0.38382 0.2707 0.0
C179 C 0.50193 0.42207 0.23932 0.0
H180 H 0.46335 0.37645 0.29919 0.0
C181 C 0.35069 0.42305 0.23339 0.0
C182 C 0.33304 0.40076 0.22874 0.0
C183 C 0.38864 0.42445 0.2426 0.0
C184 C 0.47367 0.38918 0.28204 0.0
H185 H 0.63672 0.44336 0.28084 0.0
H186 H 0.57164 0.44402 0.2735 0.0
H187 H 0.52882 0.3772 0.30854 0.0
H188 H 0.34171 0.36245 0.23095 0.0
H189 H 0.40773 0.36493 0.24646 0.0
H190 H 0.44675 0.4338 0.2123 0.0
C191 C 0.58488 0.42698 0.27354 0.0
C192 C 0.51113 0.38961 0.2874 0.0
C193 C 0.62219 0.42658 0.27788 0.0
C194 C 0.35434 0.37992 0.23436 0.0
C195 C 0.39226 0.38133 0.2435 0.0
C196 C 0.46444 0.42161 0.23387 0.0
C197 C 0.5651 0.4056 0.27014 0.0
C198 C 0.52559 0.40589 0.26578 0.0
C199 C 0.4098 0.4036 0.24734 0.0
C200 C 0.44985 0.405 0.25489 0.0
H201 H 0.63359 0.36627 0.27537 0.0
H202 H 0.56858 0.36707 0.26753 0.0
H203 H 0.51225 0.43465 0.22193 0.0
H204 H 0.33519 0.43949 0.22951 0.0
H205 H 0.40142 0.44187 0.24594 0.0
C206 C 0.62493 0.57446 0.75722 0.0
C207 C 0.64236 0.59678 0.76078 0.0
C208 C 0.58697 0.57297 0.74785 0.0
C209 C 0.5016 0.60775 0.70644 0.0
H210 H 0.4634 0.5636 0.76896 0.0
C211 C 0.35487 0.61427 0.71371 0.0
C212 C 0.33501 0.59293 0.71082 0.0
C213 C 0.39209 0.61379 0.71787 0.0
C214 C 0.47361 0.5758 0.75091 0.0
H215 H 0.63328 0.63505 0.7564 0.0
H216 H 0.56728 0.63244 0.74063 0.0
H217 H 0.52887 0.56435 0.77842 0.0
H218 H 0.33895 0.55429 0.71046 0.0
H219 H 0.40401 0.55352 0.71779 0.0
H220 H 0.44637 0.61947 0.67947 0.0
C221 C 0.58291 0.61606 0.74456 0.0
C222 C 0.51109 0.5762 0.75625 0.0
C223 C 0.62083 0.61756 0.75385 0.0
C224 C 0.35338 0.57107 0.71265 0.0
C225 C 0.39069 0.57061 0.71699 0.0
C226 C 0.46416 0.60739 0.7012 0.0
C227 C 0.56559 0.59377 0.74187 0.0
C228 C 0.52554 0.59235 0.73436 0.0
C229 C 0.41035 0.59197 0.71939 0.0
C230 C 0.44984 0.59158 0.72368 0.0
H231 H 0.64061 0.55807 0.76212 0.0
H232 H 0.57436 0.55553 0.74541 0.0
H233 H 0.5118 0.62011 0.68862 0.0
H234 H 0.34165 0.63144 0.71243 0.0
H235 H 0.40667 0.63053 0.72026 0.0
C236 C 0.12662 0.87724 0.26424 0.0
C237 C 0.14719 0.89845 0.27085 0.0
C238 C 0.08875 0.87794 0.25567 0.0
C239 C 0.00842 0.91705 0.21901 0.0
H240 H 0.96503 0.8725 0.27591 0.0
C241 C 0.85785 0.92354 0.21561 0.0
C242 C 0.83831 0.90201 0.21207 0.0
C243 C 0.89551 0.92336 0.222 0.0
C244 C 0.97666 0.88486 0.25942 0.0
H245 H 0.14383 0.93708 0.27281 0.0
H246 H 0.07765 0.93821 0.25803 0.0
H247 H 0.03078 0.87165 0.28771 0.0
H248 H 0.84309 0.86341 0.212 0.0
H249 H 0.90855 0.86316 0.22267 0.0
H250 H 0.9542 0.93023 0.19065 0.0
C251 C 0.09093 0.92108 0.25925 0.0
C252 C 0.01431 0.88438 0.26618 0.0
C253 C 0.12887 0.9204 0.26793 0.0
C254 C 0.85726 0.88033 0.21486 0.0
C255 C 0.89485 0.88017 0.22117 0.0
C256 C 0.9707 0.9175 0.21216 0.0
C257 C 0.07056 0.89984 0.25343 0.0
C258 C 0.03056 0.90043 0.24601 0.0
C259 C 0.9144 0.90167 0.22494 0.0
C260 C 0.95443 0.90138 0.23226 0.0
H261 H 0.13976 0.86001 0.26607 0.0
H262 H 0.07366 0.8613 0.25075 0.0
H263 H 0.02019 0.92947 0.20272 0.0
H264 H 0.84414 0.94057 0.21366 0.0
H265 H 0.90991 0.94021 0.22525 0.0
C266 C 0.12954 0.07158 0.77419 0.0
C267 C 0.1482 0.09337 0.77644 0.0
C268 C 0.09158 0.07118 0.76575 0.0
C269 C 0.00873 0.10783 0.72233 0.0
H270 H 0.96628 0.06604 0.78431 0.0
C271 C 0.85991 0.11774 0.72108 0.0
C272 C 0.83919 0.09672 0.71743 0.0
C273 C 0.89759 0.11664 0.72807 0.0
C274 C 0.97772 0.07762 0.76648 0.0
H275 H 0.14142 0.13182 0.77142 0.0
H276 H 0.07554 0.13108 0.75723 0.0
H277 H 0.03216 0.06515 0.7959 0.0
H278 H 0.84209 0.05802 0.719 0.0
H279 H 0.9079 0.05619 0.73118 0.0
H280 H 0.95438 0.12047 0.69322 0.0
C281 C 0.09014 0.11428 0.76138 0.0
C282 C 0.01541 0.07708 0.77305 0.0
C283 C 0.128 0.1147 0.76976 0.0
C284 C 0.85717 0.07457 0.72164 0.0
C285 C 0.89491 0.0735 0.7288 0.0
C286 C 0.97112 0.10841 0.71586 0.0
C287 C 0.07151 0.09254 0.75937 0.0
C288 C 0.03134 0.09231 0.75124 0.0
C289 C 0.91543 0.09452 0.73172 0.0
C290 C 0.95526 0.09344 0.73807 0.0
H291 H 0.14421 0.0548 0.77907 0.0
H292 H 0.07793 0.05412 0.76394 0.0
H293 H 0.0201 0.11947 0.70452 0.0
H294 H 0.84702 0.13511 0.71809 0.0
H295 H 0.91282 0.13315 0.73078 0.0
C296 C 0.22872 0.32792 0.05941 0.0
C297 C 0.22935 0.32396 0.09957 0.0
C298 C 0.23457 0.30925 0.03575 0.0
C299 C 0.22559 0.2443 0.02585 0.0
H300 H 0.27818 0.25264 0.94831 0.0
C301 C 0.25964 0.16637 0.9365 0.0
C302 C 0.25836 0.17004 0.89607 0.0
C303 C 0.25426 0.18521 0.96008 0.0
C304 C 0.26293 0.25016 0.96937 0.0
H305 H 0.23839 0.29743 0.14698 0.0
H306 H 0.24897 0.26458 0.10547 0.0
H307 H 0.27679 0.28503 0.99467 0.0
H308 H 0.24895 0.19629 0.84819 0.0
H309 H 0.23926 0.22951 0.88965 0.0
H310 H 0.21173 0.20944 0.00057 0.0
C311 C 0.24342 0.28222 0.09228 0.0
C312 C 0.26232 0.26866 0.99611 0.0
C313 C 0.23773 0.30104 0.11617 0.0
C314 C 0.25006 0.19291 0.87921 0.0
C315 C 0.24487 0.21193 0.90305 0.0
C316 C 0.22621 0.22582 -0.00088 0.0
C317 C 0.24118 0.28607 0.05154 0.0
C318 C 0.24364 0.26595 0.02467 0.0
C319 C 0.24749 0.2083 0.94395 0.0
C320 C 0.24494 0.2285 0.97061 0.0
H321 H 0.22262 0.34541 0.04571 0.0
H322 H 0.23235 0.31284 0.00447 0.0
H323 H 0.21032 0.24181 0.04687 0.0
H324 H 0.2657 0.14893 0.95042 0.0
H325 H 0.2568 0.1818 0.9915 0.0
C326 C 0.7425 0.30642 0.37436 0.0
C327 C 0.7556 0.32855 0.39203 0.0
C328 C 0.73792 0.28741 0.39853 0.0
C329 C 0.72942 0.27335 0.49948 0.0
H330 H 0.76668 0.21137 0.48257 0.0
C331 C 0.74103 0.19542 0.61202 0.0
C332 C 0.72817 0.17328 0.59416 0.0
C333 C 0.74625 0.2144 0.58815 0.0
C334 C 0.75591 0.22853 0.48753 0.0
H335 H 0.77252 0.34834 0.44869 0.0
H336 H 0.76469 0.31546 0.4903 0.0
H337 H 0.76834 0.24427 0.43734 0.0
H338 H 0.71243 0.15346 0.53753 0.0
H339 H 0.72121 0.1863 0.49642 0.0
H340 H 0.71688 0.25761 0.54958 0.0
C341 C 0.75788 0.31266 0.45795 0.0
C342 C 0.7567 0.24734 0.46146 0.0
C343 C 0.76263 0.3315 0.434 0.0
C344 C 0.72212 0.1703 0.55236 0.0
C345 C 0.72743 0.18912 0.52871 0.0
C346 C 0.72859 0.25453 0.52552 0.0
C347 C 0.74599 0.29029 0.44069 0.0
C348 C 0.74348 0.26998 0.46714 0.0
C349 C 0.73898 0.21152 0.5461 0.0
C350 C 0.74177 0.23188 0.51983 0.0
H351 H 0.73685 0.30356 0.34216 0.0
H352 H 0.7283 0.27042 0.38428 0.0
H353 H 0.71867 0.29052 0.50443 0.0
H354 H 0.74596 0.19831 0.64409 0.0
H355 H 0.75562 0.23139 0.60254 0.0
C356 C 0.72907 0.80825 0.10441 0.0
C357 C 0.7178 0.83109 0.08883 0.0
C358 C 0.73168 0.7897 0.07848 0.0
C359 C 0.7398 0.77697 0.9775 0.0
H360 H 0.69616 0.71625 0.98948 0.0
C361 C 0.73288 0.69845 0.86687 0.0
C362 C 0.74352 0.67629 0.88577 0.0
C363 C 0.7259 0.71777 0.88902 0.0
C364 C 0.70869 0.73304 0.98586 0.0
H365 H 0.70211 0.85258 0.03408 0.0
H366 H 0.70693 0.82037 0.98927 0.0
H367 H 0.69529 0.74897 0.0353 0.0
H368 H 0.7531 0.65673 0.94208 0.0
H369 H 0.74152 0.69009 0.98026 0.0
H370 H 0.7539 0.76091 0.92859 0.0
C371 C 0.7136 0.81674 0.02137 0.0
C372 C 0.70829 0.75175 0.01223 0.0
C373 C 0.71066 0.83517 0.04711 0.0
C374 C 0.74527 0.67358 0.92654 0.0
C375 C 0.73828 0.69273 0.94848 0.0
C376 C 0.74043 0.75818 0.95126 0.0
C377 C 0.72351 0.79371 0.03661 0.0
C378 C 0.72413 0.77385 0.00859 0.0
C379 C 0.72916 0.71519 0.93031 0.0
C380 C 0.72525 0.73589 0.95542 0.0
H381 H 0.73471 0.80452 0.13635 0.0
H382 H 0.73985 0.77216 0.09114 0.0
H383 H 0.75236 0.79378 0.97406 0.0
H384 H 0.73127 0.70111 0.83552 0.0
H385 H 0.71847 0.7348 0.87399 0.0
C386 C 0.23357 0.69081 0.61452 0.0
C387 C 0.2197 0.66883 0.59681 0.0
C388 C 0.23868 0.70967 0.59036 0.0
C389 C 0.20716 0.73053 0.48374 0.0
H390 H 0.29108 0.77264 0.51912 0.0
C391 C 0.24304 0.80078 0.37898 0.0
C392 C 0.25607 0.82289 0.39686 0.0
C393 C 0.23721 0.78194 0.40275 0.0
C394 C 0.26728 0.76116 0.50896 0.0
H395 H 0.20221 0.64906 0.54014 0.0
H396 H 0.21168 0.68153 0.49867 0.0
H397 H 0.28503 0.74003 0.56289 0.0
H398 H 0.27106 0.84289 0.45333 0.0
H399 H 0.26061 0.81036 0.49413 0.0
H400 H 0.18953 0.75164 0.42969 0.0
C401 C 0.2176 0.68455 0.53086 0.0
C402 C 0.26381 0.7425 0.5341 0.0
C403 C 0.21238 0.66586 0.55481 0.0
C404 C 0.26159 0.82601 0.43854 0.0
C405 C 0.25579 0.8073 0.4621 0.0
C406 C 0.21068 0.74916 0.45854 0.0
C407 C 0.23016 0.70682 0.54813 0.0
C408 C 0.23373 0.72694 0.52179 0.0
C409 C 0.2443 0.78491 0.44475 0.0
C410 C 0.24072 0.76474 0.47092 0.0
H411 H 0.23941 0.69369 0.64673 0.0
H412 H 0.2483 0.72665 0.6046 0.0
H413 H 0.18331 0.7191 0.47358 0.0
H414 H 0.23855 0.79779 0.34701 0.0
H415 H 0.22835 0.76484 0.38852 0.0
C416 C 0.90996 0.55902 0.89615 0.0
C417 C 0.87448 0.54937 0.88184 0.0
C418 C 0.93846 0.54594 0.92225 0.0
C419 C 0.95092 0.49979 -0.00086 0.0
H420 H 0.05235 0.50199 0.00223 0.0
C421 C 0.06525 0.44101 0.10159 0.0
C422 C 0.10089 0.45042 0.11565 0.0
C423 C 0.03657 0.45465 0.07705 0.0
C424 C 0.02421 0.5016 0.00214 0.0
H425 H 0.84184 0.51761 0.8804 0.0
H426 H 0.89196 0.49458 0.92557 0.0
H427 H 0.0054 0.5201 0.94557 0.0
H428 H 0.13368 0.48229 0.1187 0.0
H429 H 0.08329 0.50623 0.07611 0.0
H430 H 0.96975 0.48116 0.05563 0.0
C431 C 0.89739 0.5125 0.91731 0.0
C432 C -0.00267 0.51178 0.96953 0.0
C433 C 0.86883 0.52559 0.89108 0.0
C434 C 0.10657 0.47449 0.10811 0.0
C435 C 0.07784 0.48811 0.0834 0.0
C436 C 0.9778 0.48959 0.03174 0.0
C437 C 0.93205 0.52294 0.93445 0.0
C438 C 0.96042 0.51093 0.96766 0.0
C439 C 0.04301 0.47794 0.06617 0.0
C440 C 0.0147 0.49038 0.03353 0.0
H441 H 0.91526 0.57724 0.88924 0.0
H442 H 0.96487 0.55447 0.93492 0.0
H443 H 0.92276 0.49935 -0.00102 0.0
H444 H 0.05995 0.42259 0.1073 0.0
H445 H 0.01001 0.44633 0.06428 0.0
C446 C 0.06677 0.54874 0.61139 0.0
C447 C 0.10276 0.54041 0.61934 0.0
C448 C 0.03774 0.53698 0.58343 0.0
C449 C 0.01023 0.48283 0.52054 0.0
H450 H 0.95142 0.52754 0.4413 0.0
C451 C 0.909 0.44851 0.37433 0.0
C452 C 0.8732 0.45698 0.36735 0.0
C453 C 0.93859 0.46043 0.40112 0.0
C454 C 0.96753 0.51487 0.46323 0.0
H455 H 0.13602 0.5117 0.60798 0.0
H456 H 0.0853 0.49119 0.55923 0.0
H457 H -0.00235 0.54248 0.50198 0.0
H458 H 0.84074 0.48607 0.37899 0.0
H459 H 0.89242 0.50683 0.4258 0.0
H460 H 0.98005 0.45523 0.4819 0.0
C461 C 0.07954 0.50687 0.57436 0.0
C462 C -0.00623 0.52339 0.49812 0.0
C463 C 0.10862 0.5186 0.60245 0.0
C464 C 0.86799 0.47906 0.38382 0.0
C465 C 0.89764 0.49095 0.41078 0.0
C466 C 0.984 0.47432 0.48567 0.0
C467 C 0.0442 0.5167 0.56304 0.0
C468 C 0.01526 0.50745 0.52719 0.0
C469 C 0.93288 0.48099 0.42134 0.0
C470 C 0.96238 0.49025 0.45668 0.0
H471 H 0.06134 0.56531 0.62445 0.0
H472 H 0.01054 0.54453 0.57608 0.0
H473 H 0.02628 0.47017 0.54253 0.0
H474 H 0.9139 0.43172 0.3615 0.0
H475 H 0.96567 0.45277 0.40786 0.0
C476 C 0.61497 0.98351 0.12511 0.0
C477 C 0.60879 0.9601 0.13579 0.0
C478 C 0.58582 0.99719 0.10141 0.0
C479 C 0.48527 -0.00051 0.05289 0.0
H480 H 0.51123 0.01592 0.95708 0.0
C481 C 0.37444 0.02158 0.90392 0.0
C482 C 0.38039 0.0429 0.88574 0.0
C483 C 0.40315 0.01082 0.93392 0.0
C484 C 0.50359 0.01164 0.98369 0.0
H485 H 0.56707 0.93414 0.13605 0.0
H486 H 0.51632 0.95801 0.09481 0.0
H487 H 0.55864 0.00318 0.01819 0.0
H488 H 0.42171 0.06805 0.88104 0.0
H489 H 0.47158 0.04938 0.93324 0.0
H490 H 0.43012 0.00787 0.01821 0.0
C491 C 0.54353 0.96571 0.10407 0.0
C492 C 0.53077 0.00457 0.01882 0.0
C493 C 0.57264 0.95199 0.12756 0.0
C494 C 0.41623 0.05175 0.89483 0.0
C495 C 0.44486 0.04102 0.92477 0.0
C496 C 0.45805 0.00671 0.01776 0.0
C497 C 0.55023 0.9877 0.08851 0.0
C498 C 0.52185 0.99827 0.05366 0.0
C499 C 0.43822 0.02114 0.94598 0.0
C500 C 0.46692 0.01265 0.98269 0.0
H501 H 0.64251 0.99035 0.13138 0.0
H502 H 0.59149 0.01438 0.09046 0.0
H503 H 0.47771 0.99469 0.07934 0.0
H504 H 0.34714 0.01428 0.89749 0.0
H505 H 0.39751 0.99511 0.94905 0.0
C506 C 0.41518 0.94173 0.3868 0.0
C507 C 0.37924 0.95061 0.3755 0.0
C508 C 0.44401 0.95505 0.41194 0.0
C509 C 0.45709 0.99786 0.49337 0.0
H510 H 0.55755 -0.00066 0.49291 0.0
C511 C 0.57117 0.05378 0.60305 0.0
C512 C 0.60719 0.04505 0.61415 0.0
C513 C 0.54257 0.04079 0.57682 0.0
C514 C 0.5297 0.99868 0.49376 0.0
H515 H 0.34592 0.98146 0.37768 0.0
H516 H 0.39654 0.00486 0.42131 0.0
H517 H 0.51002 0.98277 0.43486 0.0
H518 H 0.64084 0.01469 0.61023 0.0
H519 H 0.59059 0.99178 0.56493 0.0
H520 H 0.47673 0.01362 0.55233 0.0
C521 C 0.40215 0.98737 0.41143 0.0
C522 C 0.5025 0.98944 0.46036 0.0
C523 C 0.37328 0.97407 0.38611 0.0
C524 C 0.61343 0.02197 0.60202 0.0
C525 C 0.58476 0.00898 0.57569 0.0
C526 C 0.48428 0.00706 0.52678 0.0
C527 C 0.43738 0.97746 0.42617 0.0
C528 C 0.46594 0.98897 0.45985 0.0
C529 C 0.54945 0.0188 0.56135 0.0
C530 C 0.52086 0.00754 0.52733 0.0
H531 H 0.42066 0.92379 0.37866 0.0
H532 H 0.47091 0.94698 0.42271 0.0
H533 H 0.42923 0.99719 0.49422 0.0
H534 H 0.56544 0.07141 0.61229 0.0
H535 H 0.51563 0.04881 0.56641 0.0
C536 C 0.10925 0.33832 0.22427 0.0
C537 C 0.10783 0.34249 0.18393 0.0
C538 C 0.07759 0.33251 0.23361 0.0
C539 C 0.97834 0.34186 0.19203 0.0
H540 H 0.97752 0.30627 0.2873 0.0
C541 C 0.85216 0.34261 0.2458 0.0
C542 C 0.8597 0.34874 0.28688 0.0
C543 C 0.88029 0.33552 0.23097 0.0
C544 C 0.97733 0.31621 0.26055 0.0
H545 H 0.0724 0.34178 0.12147 0.0
H546 H 0.01733 0.33106 0.13773 0.0
H547 H 0.03106 0.30431 0.26406 0.0
H548 H 0.90255 0.35072 0.34501 0.0
H549 H 0.95155 0.33848 0.31899 0.0
H550 H 0.9251 0.35422 0.18903 0.0
C551 C 0.04279 0.33299 0.16227 0.0
C552 C 0.008 0.31514 0.24725 0.0
C553 C 0.07445 0.33899 0.15292 0.0
C554 C 0.89572 0.34624 0.31318 0.0
C555 C 0.92383 0.33907 0.29832 0.0
C556 C 0.94766 0.34279 0.20513 0.0
C557 C 0.04372 0.33051 0.20284 0.0
C558 C 0.00927 0.32847 0.21344 0.0
C559 C 0.91657 0.3343 0.25684 0.0
C560 C 0.94716 0.33047 0.24011 0.0
H561 H 0.13445 0.34079 0.249 0.0
H562 H 0.07942 0.33097 0.26522 0.0
H563 H 0.97845 0.3527 0.16633 0.0
H564 H 0.82474 0.34411 0.22467 0.0
H565 H 0.87377 0.33163 0.19895 0.0
C566 C 0.12294 0.65475 0.74324 0.0
C567 C 0.11545 0.64863 0.70216 0.0
C568 C 0.09478 0.66182 0.75804 0.0
C569 C -0.00229 0.68118 0.72817 0.0
H570 H -0.00351 0.64508 0.82275 0.0
C571 C 0.86572 0.65944 0.76457 0.0
C572 C 0.86706 0.65562 0.80499 0.0
C573 C 0.89741 0.66508 0.75517 0.0
C574 C -0.00336 0.65581 0.79694 0.0
H575 H 0.07264 0.64665 0.644 0.0
H576 H 0.02359 0.65885 0.66994 0.0
H577 H 0.04989 0.64338 0.80011 0.0
H578 H 0.90244 0.65672 0.86746 0.0
H579 H 0.95758 0.6671 0.85106 0.0
H580 H 0.94396 0.69314 0.72446 0.0
C581 C 0.0513 0.65827 0.69065 0.0
C582 C 0.02733 0.65478 0.78387 0.0
C583 C 0.07944 0.65112 0.67583 0.0
C584 C 0.90043 0.65926 0.83596 0.0
C585 C 0.93213 0.66507 0.82654 0.0
C586 C 0.96702 0.68235 0.74141 0.0
C587 C 0.0585 0.66305 0.73212 0.0
C588 C 0.02788 0.66696 0.74877 0.0
C589 C 0.93125 0.66723 0.78594 0.0
C590 C 0.96572 0.66916 0.77535 0.0
H591 H 0.15035 0.65325 0.7644 0.0
H592 H 0.10126 0.66572 0.79004 0.0
H593 H -0.00246 0.69103 0.70134 0.0
H594 H 0.84053 0.65686 0.73986 0.0
H595 H 0.89563 0.66638 0.72355 0.0
C596 C 0.40496 0.8372 0.33468 0.0
C597 C 0.37146 0.84208 0.30473 0.0
C598 C 0.43572 0.83088 0.32382 0.0
C599 C 0.46708 0.81522 0.23524 0.0
H600 H 0.55349 0.85053 0.29628 0.0
C601 C 0.57924 0.848 0.17025 0.0
C602 C 0.6157 0.84844 0.19597 0.0
C603 C 0.55109 0.84046 0.18477 0.0
C604 C 0.52988 0.84016 0.27931 0.0
H605 H 0.34356 0.84264 0.23985 0.0
H606 H 0.39709 0.83243 0.22105 0.0
H607 H 0.50101 0.84911 0.32046 0.0
H608 H 0.65129 0.83967 0.25643 0.0
H609 H 0.60217 0.82666 0.28157 0.0
H610 H 0.49568 0.80752 0.19284 0.0
C611 C 0.3997 0.83301 0.25295 0.0
C612 C 0.49971 0.83925 0.29327 0.0
C613 C 0.3689 0.83906 0.26379 0.0
C614 C 0.62353 0.83983 0.23582 0.0
C615 C 0.59539 0.83241 0.25033 0.0
C616 C 0.49721 0.81634 0.22104 0.0
C617 C 0.43378 0.82956 0.28278 0.0
C618 C 0.46757 0.82726 0.27095 0.0
C619 C 0.5588 0.83328 0.22533 0.0
C620 C 0.52862 0.82925 0.24253 0.0
H621 H 0.4078 0.83906 0.36653 0.0
H622 H 0.46133 0.82781 0.34764 0.0
H623 H 0.44305 0.80543 0.21765 0.0
H624 H 0.57218 0.8544 0.13936 0.0
H625 H 0.5231 0.84149 0.16486 0.0
C626 C 0.62288 0.16141 0.73104 0.0
C627 C 0.61628 0.15324 0.69109 0.0
C628 C 0.59382 0.16723 0.74519 0.0
C629 C 0.49385 0.17854 0.71481 0.0
H630 H 0.50122 0.14552 0.81499 0.0
C631 C 0.36807 0.15105 0.75996 0.0
C632 C 0.37111 0.14894 0.8012 0.0
C633 C 0.39826 0.1576 0.74829 0.0
C634 C 0.49884 0.15538 0.78752 0.0
H635 H 0.57387 0.14651 0.63389 0.0
H636 H 0.52322 0.15656 0.65874 0.0
H637 H 0.5537 0.14678 0.79076 0.0
H638 H 0.40776 0.15378 0.86249 0.0
H639 H 0.4602 0.16579 0.8421 0.0
H640 H 0.43861 0.18671 0.71122 0.0
C641 C 0.55092 0.15852 0.67905 0.0
C642 C 0.52902 0.15605 0.77354 0.0
C643 C 0.58001 0.15265 0.66486 0.0
C644 C 0.40453 0.15495 0.83046 0.0
C645 C 0.43468 0.16171 0.81876 0.0
C646 C 0.46364 0.17802 0.72897 0.0
C647 C 0.55749 0.16509 0.71976 0.0
C648 C 0.52667 0.16718 0.73662 0.0
C649 C 0.43223 0.16243 0.77753 0.0
C650 C 0.4655 0.16594 0.76505 0.0
H651 H 0.65044 0.16237 0.75202 0.0
H652 H 0.59977 0.17264 0.77652 0.0
H653 H 0.49135 0.18749 0.68649 0.0
H654 H 0.3428 0.14657 0.73653 0.0
H655 H 0.39533 0.15767 0.71629 0.0
C656 C 0.19619 0.43804 0.01436 0.0
C657 C 0.22027 0.43966 0.05418 0.0
C658 C 0.2 0.45331 0.98422 0.0
C659 C 0.23738 0.51228 0.97154 0.0
H660 H 0.21627 0.49107 0.86047 0.0
C661 C 0.24839 0.57103 0.83601 0.0
C662 C 0.22019 0.56727 0.79937 0.0
C663 C 0.25021 0.557 0.87004 0.0
C664 C 0.22202 0.4973 0.89134 0.0
H665 H 0.26854 0.45788 0.09289 0.0
H666 H 0.27536 0.48421 0.04013 0.0
H667 H 0.2182 0.46207 0.9131 0.0
H668 H 0.17013 0.54774 0.7704 0.0
H669 H 0.17289 0.52385 0.82951 0.0
H670 H 0.241 0.54764 0.94932 0.0
C671 C 0.25308 0.47146 0.03248 0.0
C672 C 0.22312 0.48068 0.92148 0.0
C673 C 0.24929 0.45619 0.06263 0.0
C674 C 0.19244 0.55076 0.79817 0.0
C675 C 0.19416 0.53696 0.8319 0.0
C676 C 0.2364 0.52897 0.94127 0.0
C677 C 0.22805 0.47052 0.99313 0.0
C678 C 0.23012 0.488 0.96182 0.0
C679 C 0.22382 0.53918 0.86764 0.0
C680 C 0.2279 0.52168 0.90073 0.0
H681 H 0.17346 0.42563 0.00675 0.0
H682 H 0.18003 0.45225 0.95429 0.0
H683 H 0.24257 0.51853 0.00231 0.0
H684 H 0.27019 0.58357 0.83755 0.0
H685 H 0.27328 0.55915 0.89736 0.0
C686 C 0.74016 0.45772 0.4412 0.0
C687 C 0.77071 0.44322 0.44409 0.0
C688 C 0.74058 0.47373 0.47207 0.0
C689 C 0.78645 0.48815 0.57931 0.0
H690 H 0.75255 0.55244 0.54653 0.0
C691 C 0.80275 0.56072 0.69848 0.0
C692 C 0.77209 0.57512 0.69476 0.0
C693 C 0.80482 0.54686 0.66603 0.0
C694 C 0.76183 0.53454 0.55617 0.0
H695 H 0.82497 0.43343 0.48286 0.0
H696 H 0.82547 0.46127 0.53703 0.0
H697 H 0.75036 0.52231 0.49507 0.0
H698 H 0.72049 0.58752 0.65376 0.0
H699 H 0.72359 0.56284 0.59675 0.0
H700 H 0.79734 0.50009 0.64025 0.0
C701 C 0.80125 0.46023 0.51068 0.0
C702 C 0.76054 0.51727 0.52672 0.0
C703 C 0.80092 0.44423 0.47966 0.0
C704 C 0.74458 0.57672 0.65714 0.0
C705 C 0.74637 0.56252 0.62462 0.0
C706 C 0.78757 0.50535 0.6087 0.0
C707 C 0.77143 0.47556 0.50671 0.0
C708 C 0.7728 0.49388 0.538 0.0
C709 C 0.7759 0.54673 0.62928 0.0
C710 C 0.77537 0.52879 0.59755 0.0
H711 H 0.71627 0.45734 0.41441 0.0
H712 H 0.71688 0.48493 0.46854 0.0
H713 H 0.79563 0.47023 0.58893 0.0
H714 H 0.82444 0.55934 0.72721 0.0
H715 H 0.82846 0.5355 0.67031 0.0
C716 C 0.78379 0.4459 0.19061 0.0
C717 C 0.75499 0.43027 0.18947 0.0
C718 C 0.78226 0.46014 0.1574 0.0
C719 C 0.73722 0.47098 0.049 0.0
H720 H 0.76156 0.53684 0.08084 0.0
C721 C 0.72428 0.54559 0.93088 0.0
C722 C 0.75429 0.56128 0.93865 0.0
C723 C 0.7208 0.53013 0.96094 0.0
C724 C 0.75494 0.51853 0.07141 0.0
H725 H 0.70314 0.416 0.15189 0.0
H726 H 0.70035 0.44117 0.09301 0.0
H727 H 0.76369 0.50699 0.13226 0.0
H728 H 0.8032 0.57373 0.98492 0.0
H729 H 0.7972 0.54676 0.03723 0.0
H730 H 0.72908 0.48253 0.98809 0.0
C731 C 0.72415 0.44227 0.11982 0.0
C732 C 0.75616 0.5014 0.10087 0.0
C733 C 0.72579 0.4278 0.15331 0.0
C734 C 0.77967 0.56199 0.97786 0.0
C735 C 0.77619 0.5465 0.00791 0.0
C736 C 0.73612 0.48816 0.01941 0.0
C737 C 0.75172 0.45928 0.1223 0.0
C738 C 0.74798 0.47737 0.09011 0.0
C739 C 0.74718 0.53 -0.00048 0.0
C740 C 0.74552 0.51208 0.03039 0.0
H741 H 0.80678 0.44796 0.21807 0.0
H742 H 0.80439 0.47259 0.15981 0.0
H743 H 0.73082 0.4526 0.03987 0.0
H744 H 0.70402 0.54464 0.9011 0.0
H745 H 0.69774 0.51799 0.95373 0.0
C746 C 0.17295 0.4329 0.29618 0.0
C747 C 0.20489 0.42013 0.29866 0.0
C748 C 0.17089 0.44668 0.32871 0.0
C749 C 0.21715 0.46195 0.43683 0.0
H750 H 0.17658 0.52456 0.40156 0.0
C751 C 0.23642 0.54071 0.54781 0.0
C752 C 0.20507 0.55427 0.5454 0.0
C753 C 0.23619 0.52434 0.51749 0.0
C754 C 0.18766 0.5071 0.41193 0.0
H755 H 0.25891 0.41047 0.33756 0.0
H756 H 0.25571 0.43498 0.39472 0.0
H757 H 0.17503 0.49397 0.35146 0.0
H758 H 0.14946 0.56203 0.50805 0.0
H759 H 0.1492 0.53355 0.45492 0.0
H760 H 0.23023 0.47537 0.4974 0.0
C761 C 0.23197 0.43406 0.36783 0.0
C762 C 0.18664 0.48948 0.38324 0.0
C763 C 0.23383 0.41994 0.33526 0.0
C764 C 0.17414 0.552 0.51081 0.0
C765 C 0.17396 0.53561 0.48039 0.0
C766 C 0.21826 0.47964 0.46558 0.0
C767 C 0.20103 0.44838 0.3642 0.0
C768 C 0.2013 0.46666 0.39529 0.0
C769 C 0.20468 0.52118 0.48393 0.0
C770 C 0.20357 0.50243 0.45341 0.0
H771 H 0.15027 0.43324 0.26816 0.0
H772 H 0.14626 0.45692 0.32532 0.0
H773 H 0.2284 0.44453 0.44715 0.0
H774 H 0.26085 0.5421 0.57386 0.0
H775 H 0.26056 0.51388 0.52063 0.0
C776 C 0.68257 0.948 0.01358 0.0
C777 C 0.71106 0.94765 0.05071 0.0
C778 C 0.68391 0.96359 0.98268 0.0
C779 C 0.72638 0.02024 0.96648 0.0
H780 H 0.6932 0.00054 0.85396 0.0
C781 C 0.74382 0.07667 0.83266 0.0
C782 C 0.71579 0.07461 0.79548 0.0
C783 C 0.7425 0.06308 0.86606 0.0
C784 C 0.70209 0.00646 0.8852 0.0
H785 H 0.76411 0.96279 0.08363 0.0
H786 H 0.76653 0.98962 0.02963 0.0
H787 H 0.69344 0.97188 0.90646 0.0
H788 H 0.66309 0.05863 0.76471 0.0
H789 H 0.6601 0.03576 0.82295 0.0
H790 H 0.73509 0.05489 0.94498 0.0
C791 C 0.74282 0.9782 0.02473 0.0
C792 C 0.70228 0.98998 0.9153 0.0
C793 C 0.74152 0.96263 0.05556 0.0
C794 C 0.6852 0.06035 0.79304 0.0
C795 C 0.68369 0.04707 0.82627 0.0
C796 C 0.72615 0.03679 0.93627 0.0
C797 C 0.71377 0.97917 0.9882 0.0
C798 C 0.71428 0.99667 0.95629 0.0
C799 C 0.71301 0.04743 0.86262 0.0
C800 C 0.71372 0.03012 0.89525 0.0
H801 H 0.65861 0.93684 0.00882 0.0
H802 H 0.66095 0.964 0.95498 0.0
H803 H 0.73539 0.02604 -0.00221 0.0
H804 H 0.76782 0.0874 0.83508 0.0
H805 H 0.76552 0.06377 0.8937 0.0
C806 C 0.24189 0.07028 0.66244 0.0
C807 C 0.26919 0.06671 0.6998 0.0
C808 C 0.24108 0.05605 0.62893 0.0
C809 C 0.27168 0.9964 0.60898 0.0
H810 H 0.2471 0.01725 0.49742 0.0
C811 C 0.29253 0.93703 0.48268 0.0
C812 C 0.26648 0.93829 0.44389 0.0
C813 C 0.29039 0.9524 0.51351 0.0
C814 C 0.25353 0.01111 0.5284 0.0
H815 H 0.31872 0.04724 0.7307 0.0
H816 H 0.31796 0.02311 0.6724 0.0
H817 H 0.24943 0.04639 0.55056 0.0
H818 H 0.21663 0.95599 0.40787 0.0
H819 H 0.21282 0.9825 0.4618 0.0
H820 H 0.27596 0.96122 0.58712 0.0
C821 C 0.29647 0.03616 0.66904 0.0
C822 C 0.25492 0.02782 0.55879 0.0
C823 C 0.2971 0.05013 0.70232 0.0
C824 C 0.23734 0.95456 0.43728 0.0
C825 C 0.23527 0.96994 0.46808 0.0
C826 C 0.27029 0.97976 0.57871 0.0
C827 C 0.26767 0.03822 0.63246 0.0
C828 C 0.26455 0.02068 0.5995 0.0
C829 C 0.26217 0.96938 0.50629 0.0
C830 C 0.2616 0.98693 0.53812 0.0
H831 H 0.21994 0.08286 0.65986 0.0
H832 H 0.21859 0.0581 0.60107 0.0
H833 H 0.27828 0.9902 0.63995 0.0
H834 H 0.3154 0.92482 0.48887 0.0
H835 H 0.31171 0.95161 0.54256 0.0
C836 C 0.30258 0.9336 0.19718 0.0
C837 C 0.27102 0.9205 0.19519 0.0
C838 C 0.30381 0.9477 0.16468 0.0
C839 C 0.2568 0.96307 0.0571 0.0
H840 H 0.29628 0.02592 0.09292 0.0
C841 C 0.24051 0.04154 0.94568 0.0
C842 C 0.27199 0.05536 0.94964 0.0
C843 C 0.23965 0.02522 0.97568 0.0
C844 C 0.2855 0.00841 0.08237 0.0
H845 H 0.21677 0.91061 0.1571 0.0
H846 H 0.21858 0.93561 0.09987 0.0
H847 H 0.29766 0.99525 0.14275 0.0
H848 H 0.32669 0.06348 0.98928 0.0
H849 H 0.32511 0.03505 0.04164 0.0
H850 H 0.24446 0.97644 -0.00341 0.0
C851 C 0.24261 0.93474 0.12643 0.0
C852 C 0.28638 0.99076 0.11093 0.0
C853 C 0.24157 0.92033 0.15902 0.0
C854 C 0.3019 0.05328 0.98531 0.0
C855 C 0.30102 0.03693 0.01533 0.0
C856 C 0.25589 0.98078 0.02845 0.0
C857 C 0.2732 0.94935 0.12968 0.0
C858 C 0.27228 0.96782 0.09869 0.0
C859 C 0.27019 0.02232 0.01041 0.0
C860 C 0.27034 0.00364 0.04079 0.0
H861 H 0.32565 0.93395 0.22485 0.0
H862 H 0.32817 0.95819 0.16774 0.0
H863 H 0.2459 0.94557 0.04668 0.0
H864 H 0.21685 0.04275 0.91874 0.0
H865 H 0.2152 0.0146 0.97137 0.0
C866 C 0.7506 0.04528 0.55162 0.0
C867 C 0.71783 0.05777 0.54693 0.0
C868 C 0.75287 0.02844 0.52292 0.0
C869 C 0.69373 0.9883 0.44634 0.0
H870 H 0.77909 0.9804 0.41126 0.0
C871 C 0.69256 0.93527 0.30519 0.0
C872 C 0.72424 0.92326 0.30439 0.0
C873 C 0.69224 0.94816 0.33931 0.0
C874 C 0.75536 0.98204 0.42142 0.0
H875 H 0.66239 0.06325 0.5071 0.0
H876 H 0.66656 0.03407 0.45666 0.0
H877 H 0.77803 0.01219 0.45883 0.0
H878 H 0.77995 0.91422 0.3389 0.0
H879 H 0.77955 0.93686 0.39933 0.0
H880 H 0.67085 0.95838 0.40856 0.0
C881 C 0.69028 0.03705 0.48301 0.0
C882 C 0.75465 0.00038 0.44844 0.0
C883 C 0.68805 0.05401 0.51165 0.0
C884 C 0.75506 0.9231 0.33918 0.0
C885 C 0.75491 0.93628 0.37342 0.0
C886 C 0.69447 0.96996 0.41941 0.0
C887 C 0.7224 0.02363 0.4889 0.0
C888 C 0.72359 0.00394 0.46071 0.0
C889 C 0.72383 0.94958 0.37328 0.0
C890 C 0.72505 0.96685 0.40612 0.0
H891 H 0.77413 0.04778 0.57838 0.0
H892 H 0.77798 0.0184 0.5284 0.0
H893 H 0.66975 0.9902 0.45598 0.0
H894 H 0.66862 0.93582 0.27841 0.0
H895 H 0.66799 0.95834 0.3379 0.0
loop_
_geom_bond_atom_site_label_1
_geom_bond_atom_site_label_2
_geom_bond_distance
_geom_bond_site_symmetry_2
_ccdc_geom_bond_type
Sc0 O3 2.025 . S
Sc0 O10 2.105 . S
Sc0 O13 2.105 . S
Sc0 O16 2.105 . S
Sc0 O19 2.105 . S
Sc1 O3 2.025 . S
Sc1 O11 2.105 . S
Sc1 O15 2.105 . S
Sc1 O17 2.105 . S
Sc1 O21 2.105 . S
Sc2 O3 2.025 . S
Sc2 O12 2.105 . S
Sc2 O14 2.105 . S
Sc2 O18 2.105 . S
Sc2 O20 2.105 . S
O3 Sc0 2.025 . S
O3 Sc1 2.025 . S
O3 Sc2 2.025 . S
C4 O10 1.268 . S
C4 O20 1.268 . S
C5 O11 1.268 . S
C5 O19 1.268 . S
C6 O12 1.268 . S
C6 O21 1.268 . S
C7 O13 1.268 . S
C7 O17 1.268 . S
C8 O14 1.268 . S
C8 O16 1.268 . S
C9 O15 1.268 . S
C9 O18 1.268 . S
O10 Sc0 2.105 . S
O10 C4 1.268 . S
O11 Sc1 2.105 . S
O11 C5 1.268 . S
O12 Sc2 2.105 . S
O12 C6 1.268 . S
O13 Sc0 2.105 . S
O13 C7 1.268 . S
O14 Sc2 2.105 . S
O14 C8 1.268 . S
O15 Sc1 2.105 . S
O15 C9 1.268 . S
O16 Sc0 2.105 . S
O16 C8 1.268 . S
O17 Sc1 2.105 . S
O17 C7 1.268 . S
O18 Sc2 2.105 . S
O18 C9 1.268 . S
O19 Sc0 2.105 . S
O19 C5 1.268 . S
O20 Sc2 2.105 . S
O20 C4 1.268 . S
O21 Sc1 2.105 . S
O21 C6 1.268 . S
Sc22 O25 2.025 . S
Sc22 O32 2.105 . S
Sc22 O35 2.105 . S
Sc22 O38 2.105 . S
Sc22 O41 2.105 . S
Sc23 O25 2.025 . S
Sc23 O33 2.105 . S
Sc23 O37 2.105 . S
Sc23 O39 2.105 . S
Sc23 O43 2.105 . S
Sc24 O25 2.025 . S
Sc24 O34 2.105 . S
Sc24 O36 2.105 . S
Sc24 O40 2.105 . S
Sc24 O42 2.105 . S
O25 Sc22 2.025 . S
O25 Sc23 2.025 . S
O25 Sc24 2.025 . S
C26 O32 1.268 . S
C26 O42 1.268 . S
C27 O33 1.268 . S
C27 O41 1.268 . S
C28 O34 1.268 . S
C28 O43 1.268 . S
C29 O35 1.268 . S
C29 O39 1.268 . S
C30 O36 1.268 . S
C30 O38 1.268 . S
C31 O37 1.268 . S
C31 O40 1.268 . S
O32 Sc22 2.105 . S
O32 C26 1.268 . S
O33 Sc23 2.105 . S
O33 C27 1.268 . S
O34 Sc24 2.105 . S
O34 C28 1.268 . S
O35 Sc22 2.105 . S
O35 C29 1.268 . S
O36 Sc24 2.105 . S
O36 C30 1.268 . S
O37 Sc23 2.105 . S
O37 C31 1.268 . S
O38 Sc22 2.105 . S
O38 C30 1.268 . S
O39 Sc23 2.105 . S
O39 C29 1.268 . S
O40 Sc24 2.105 . S
O40 C31 1.268 . S
O41 Sc22 2.105 . S
O41 C27 1.268 . S
O42 Sc24 2.105 . S
O42 C26 1.268 . S
O43 Sc23 2.105 . S
O43 C28 1.268 . S
Sc44 O47 2.025 . S
Sc44 O54 2.105 . S
Sc44 O57 2.105 . S
Sc44 O60 2.105 . S
Sc44 O63 2.105 . S
Sc45 O47 2.025 . S
Sc45 O55 2.105 . S
Sc45 O59 2.105 . S
Sc45 O61 2.105 . S
Sc45 O65 2.105 . S
Sc46 O47 2.025 . S
Sc46 O56 2.105 . S
Sc46 O58 2.105 . S
Sc46 O62 2.105 . S
Sc46 O64 2.105 . S
O47 Sc44 2.025 . S
O47 Sc45 2.025 . S
O47 Sc46 2.025 . S
C48 O54 1.268 . S
C48 O64 1.268 . S
C49 O55 1.268 . S
C49 O63 1.268 . S
C50 O56 1.268 . S
C50 O65 1.268 . S
C51 O57 1.268 . S
C51 O61 1.268 . S
C52 O58 1.268 . S
C52 O60 1.268 . S
C53 O59 1.268 . S
C53 O62 1.268 . S
O54 Sc44 2.105 . S
O54 C48 1.268 . S
O55 Sc45 2.105 . S
O55 C49 1.268 . S
O56 Sc46 2.105 . S
O56 C50 1.268 . S
O57 Sc44 2.105 . S
O57 C51 1.268 . S
O58 Sc46 2.105 . S
O58 C52 1.268 . S
O59 Sc45 2.105 . S
O59 C53 1.268 . S
O60 Sc44 2.105 . S
O60 C52 1.268 . S
O61 Sc45 2.105 . S
O61 C51 1.268 . S
O62 Sc46 2.105 . S
O62 C53 1.268 . S
O63 Sc44 2.105 . S
O63 C49 1.268 . S
O64 Sc46 2.105 . S
O64 C48 1.268 . S
O65 Sc45 2.105 . S
O65 C50 1.268 . S
Sc66 O69 2.025 . S
Sc66 O76 2.105 . S
Sc66 O79 2.105 . S
Sc66 O82 2.105 . S
Sc66 O85 2.105 . S
Sc67 O69 2.025 . S
Sc67 O77 2.105 . S
Sc67 O81 2.105 . S
Sc67 O83 2.105 . S
Sc67 O87 2.105 . S
Sc68 O69 2.025 . S
Sc68 O78 2.105 . S
Sc68 O80 2.105 . S
Sc68 O84 2.105 . S
Sc68 O86 2.105 . S
O69 Sc66 2.025 . S
O69 Sc67 2.025 . S
O69 Sc68 2.025 . S
C70 O76 1.268 . S
C70 O86 1.268 . S
C71 O77 1.268 . S
C71 O85 1.268 . S
C72 O78 1.268 . S
C72 O87 1.268 . S
C73 O79 1.268 . S
C73 O83 1.268 . S
C74 O80 1.268 . S
C74 O82 1.268 . S
C75 O81 1.268 . S
C75 O84 1.268 . S
O76 Sc66 2.105 . S
O76 C70 1.268 . S
O77 Sc67 2.105 . S
O77 C71 1.268 . S
O78 Sc68 2.105 . S
O78 C72 1.268 . S
O79 Sc66 2.105 . S
O79 C73 1.268 . S
O80 Sc68 2.105 . S
O80 C74 1.268 . S
O81 Sc67 2.105 . S
O81 C75 1.268 . S
O82 Sc66 2.105 . S
O82 C74 1.268 . S
O83 Sc67 2.105 . S
O83 C73 1.268 . S
O84 Sc68 2.105 . S
O84 C75 1.268 . S
O85 Sc66 2.105 . S
O85 C71 1.268 . S
O86 Sc68 2.105 . S
O86 C70 1.268 . S
O87 Sc67 2.105 . S
O87 C72 1.268 . S
Sc88 O91 2.025 . S
Sc88 O98 2.105 . S
Sc88 O101 2.105 . S
Sc88 O104 2.105 . S
Sc88 O107 2.105 . S
Sc89 O91 2.025 . S
Sc89 O99 2.105 . S
Sc89 O103 2.105 . S
Sc89 O105 2.105 . S
Sc89 O109 2.105 . S
Sc90 O91 2.025 . S
Sc90 O100 2.105 . S
Sc90 O102 2.105 . S
Sc90 O106 2.105 . S
Sc90 O108 2.105 . S
O91 Sc88 2.025 . S
O91 Sc89 2.025 . S
O91 Sc90 2.025 . S
C92 O98 1.268 . S
C92 O108 1.268 . S
C93 O99 1.268 . S
C93 O107 1.268 . S
C94 O100 1.268 . S
C94 O109 1.268 . S
C95 O101 1.268 . S
C95 O105 1.268 . S
C96 O102 1.268 . S
C96 O104 1.268 . S
C97 O103 1.268 . S
C97 O106 1.268 . S
O98 Sc88 2.105 . S
O98 C92 1.268 . S
O99 Sc89 2.105 . S
O99 C93 1.268 . S
O100 Sc90 2.105 . S
O100 C94 1.268 . S
O101 Sc88 2.105 . S
O101 C95 1.268 . S
O102 Sc90 2.105 . S
O102 C96 1.268 . S
O103 Sc89 2.105 . S
O103 C97 1.268 . S
O104 Sc88 2.105 . S
O104 C96 1.268 . S
O105 Sc89 2.105 . S
O105 C95 1.268 . S
O106 Sc90 2.105 . S
O106 C97 1.268 . S
O107 Sc88 2.105 . S
O107 C93 1.268 . S
O108 Sc90 2.105 . S
O108 C92 1.268 . S
O109 Sc89 2.105 . S
O109 C94 1.268 . S
Sc110 O113 2.025 . S
Sc110 O120 2.105 . S
Sc110 O123 2.105 . S
Sc110 O126 2.105 . S
Sc110 O129 2.105 . S
Sc111 O113 2.025 . S
Sc111 O121 2.105 . S
Sc111 O125 2.105 . S
Sc111 O127 2.105 . S
Sc111 O131 2.105 . S
Sc112 O113 2.025 . S
Sc112 O122 2.105 . S
Sc112 O124 2.105 . S
Sc112 O128 2.105 . S
Sc112 O130 2.105 . S
O113 Sc110 2.025 . S
O113 Sc111 2.025 . S
O113 Sc112 2.025 . S
C114 O120 1.268 . S
C114 O130 1.268 . S
C115 O121 1.268 . S
C115 O129 1.268 . S
C116 O122 1.268 . S
C116 O131 1.268 . S
C117 O123 1.268 . S
C117 O127 1.268 . S
C118 O124 1.268 . S
C118 O126 1.268 . S
C119 O125 1.268 . S
C119 O128 1.268 . S
O120 Sc110 2.105 . S
O120 C114 1.268 . S
O121 Sc111 2.105 . S
O121 C115 1.268 . S
O122 Sc112 2.105 . S
O122 C116 1.268 . S
O123 Sc110 2.105 . S
O123 C117 1.268 . S
O124 Sc112 2.105 . S
O124 C118 1.268 . S
O125 Sc111 2.105 . S
O125 C119 1.268 . S
O126 Sc110 2.105 . S
O126 C118 1.268 . S
O127 Sc111 2.105 . S
O127 C117 1.268 . S
O128 Sc112 2.105 . S
O128 C119 1.268 . S
O129 Sc110 2.105 . S
O129 C115 1.268 . S
O130 Sc112 2.105 . S
O130 C114 1.268 . S
O131 Sc111 2.105 . S
O131 C116 1.268 . S
Sc132 O135 2.025 . S
Sc132 O142 2.105 . S
Sc132 O145 2.105 . S
Sc132 O148 2.105 . S
Sc132 O151 2.105 . S
Sc133 O135 2.025 . S
Sc133 O143 2.105 . S
Sc133 O147 2.105 . S
Sc133 O149 2.105 . S
Sc133 O153 2.105 . S
Sc134 O135 2.025 . S
Sc134 O144 2.105 . S
Sc134 O146 2.105 . S
Sc134 O150 2.105 . S
Sc134 O152 2.105 . S
O135 Sc132 2.025 . S
O135 Sc133 2.025 . S
O135 Sc134 2.025 . S
C136 O142 1.268 . S
C136 O152 1.268 . S
C137 O143 1.268 . S
C137 O151 1.268 . S
C138 O144 1.268 . S
C138 O153 1.268 . S
C139 O145 1.268 . S
C139 O149 1.268 . S
C140 O146 1.268 . S
C140 O148 1.268 . S
C141 O147 1.268 . S
C141 O150 1.268 . S
O142 Sc132 2.105 . S
O142 C136 1.268 . S
O143 Sc133 2.105 . S
O143 C137 1.268 . S
O144 Sc134 2.105 . S
O144 C138 1.268 . S
O145 Sc132 2.105 . S
O145 C139 1.268 . S
O146 Sc134 2.105 . S
O146 C140 1.268 . S
O147 Sc133 2.105 . S
O147 C141 1.268 . S
O148 Sc132 2.105 . S
O148 C140 1.268 . S
O149 Sc133 2.105 . S
O149 C139 1.268 . S
O150 Sc134 2.105 . S
O150 C141 1.268 . S
O151 Sc132 2.105 . S
O151 C137 1.268 . S
O152 Sc134 2.105 . S
O152 C136 1.268 . S
O153 Sc133 2.105 . S
O153 C138 1.268 . S
Sc154 O157 2.025 . S
Sc154 O164 2.105 . S
Sc154 O167 2.105 . S
Sc154 O170 2.105 . S
Sc154 O173 2.105 . S
Sc155 O157 2.025 . S
Sc155 O165 2.105 . S
Sc155 O169 2.105 . S
Sc155 O171 2.105 . S
Sc155 O175 2.105 . S
Sc156 O157 2.025 . S
Sc156 O166 2.105 . S
Sc156 O168 2.105 . S
Sc156 O172 2.105 . S
Sc156 O174 2.105 . S
O157 Sc154 2.025 . S
O157 Sc155 2.025 . S
O157 Sc156 2.025 . S
C158 O164 1.268 . S
C158 O174 1.268 . S
C159 O165 1.268 . S
C159 O173 1.268 . S
C160 O166 1.268 . S
C160 O175 1.268 . S
C161 O167 1.268 . S
C161 O171 1.268 . S
C162 O168 1.268 . S
C162 O170 1.268 . S
C163 O169 1.268 . S
C163 O172 1.268 . S
O164 Sc154 2.105 . S
O164 C158 1.268 . S
O165 Sc155 2.105 . S
O165 C159 1.268 . S
O166 Sc156 2.105 . S
O166 C160 1.268 . S
O167 Sc154 2.105 . S
O167 C161 1.268 . S
O168 Sc156 2.105 . S
O168 C162 1.268 . S
O169 Sc155 2.105 . S
O169 C163 1.268 . S
O170 Sc154 2.105 . S
O170 C162 1.268 . S
O171 Sc155 2.105 . S
O171 C161 1.268 . S
O172 Sc156 2.105 . S
O172 C163 1.268 . S
O173 Sc154 2.105 . S
O173 C159 1.268 . S
O174 Sc156 2.105 . S
O174 C158 1.268 . S
O175 Sc155 2.105 . S
O175 C160 1.268 . S
C176 C177 1.349 . S
C176 C178 1.327 . S
C176 H201 0.950 . S
C177 C176 1.349 . S
C177 C193 1.349 . S
C178 C176 1.327 . S
C178 C197 1.429 . S
C178 H202 0.950 . S
C179 C196 1.574 . S
C179 C198 1.368 . S
C179 H203 0.949 . S
H180 C184 0.949 . S
C181 C182 1.349 . S
C181 C183 1.327 . S
C181 H204 0.950 . S
C182 C181 1.349 . S
C182 C194 1.349 . S
C183 C181 1.327 . S
C183 C199 1.429 . S
C183 H205 0.950 . S
C184 H180 0.949 . S
C184 C192 1.574 . S
C184 C200 1.368 . S
H185 C193 0.950 . S
H186 C191 0.950 . S
H187 C192 0.949 . S
H188 C194 0.950 . S
H189 C195 0.950 . S
H190 C196 0.949 . S
C191 H186 0.950 . S
C191 C193 1.327 . S
C191 C197 1.429 . S
C192 C184 1.574 . S
C192 H187 0.949 . S
C192 C198 1.368 . S
C193 C177 1.349 . S
C193 H185 0.950 . S
C193 C191 1.327 . S
C194 C182 1.349 . S
C194 H188 0.950 . S
C194 C195 1.327 . S
C195 H189 0.950 . S
C195 C194 1.327 . S
C195 C199 1.429 . S
C196 C179 1.574 . S
C196 H190 0.949 . S
C196 C200 1.368 . S
C197 C178 1.429 . S
C197 C191 1.429 . S
C197 C198 1.523 . S
C198 C179 1.368 . S
C198 C192 1.368 . S
C198 C197 1.523 . S
C199 C183 1.429 . S
C199 C195 1.429 . S
C199 C200 1.523 . S
C200 C184 1.368 . S
C200 C196 1.368 . S
C200 C199 1.523 . S
H201 C176 0.950 . S
H202 C178 0.950 . S
H203 C179 0.949 . S
H204 C181 0.950 . S
H205 C183 0.950 . S
C206 C207 1.349 . S
C206 C208 1.327 . S
C206 H231 0.950 . S
C207 C206 1.349 . S
C207 C223 1.349 . S
C208 C206 1.327 . S
C208 C227 1.429 . S
C208 H232 0.950 . S
C209 C226 1.574 . S
C209 C228 1.368 . S
C209 H233 0.949 . S
H210 C214 0.949 . S
C211 C212 1.349 . S
C211 C213 1.327 . S
C211 H234 0.950 . S
C212 C211 1.349 . S
C212 C224 1.349 . S
C213 C211 1.327 . S
C213 C229 1.429 . S
C213 H235 0.950 . S
C214 H210 0.949 . S
C214 C222 1.574 . S
C214 C230 1.368 . S
H215 C223 0.950 . S
H216 C221 0.950 . S
H217 C222 0.949 . S
H218 C224 0.950 . S
H219 C225 0.950 . S
H220 C226 0.949 . S
C221 H216 0.950 . S
C221 C223 1.327 . S
C221 C227 1.429 . S
C222 C214 1.574 . S
C222 H217 0.949 . S
C222 C228 1.368 . S
C223 C207 1.349 . S
C223 H215 0.950 . S
C223 C221 1.327 . S
C224 C212 1.349 . S
C224 H218 0.950 . S
C224 C225 1.327 . S
C225 H219 0.950 . S
C225 C224 1.327 . S
C225 C229 1.429 . S
C226 C209 1.574 . S
C226 H220 0.949 . S
C226 C230 1.368 . S
C227 C208 1.429 . S
C227 C221 1.429 . S
C227 C228 1.523 . S
C228 C209 1.368 . S
C228 C222 1.368 . S
C228 C227 1.523 . S
C229 C213 1.429 . S
C229 C225 1.429 . S
C229 C230 1.523 . S
C230 C214 1.368 . S
C230 C226 1.368 . S
C230 C229 1.523 . S
H231 C206 0.950 . S
H232 C208 0.950 . S
H233 C209 0.949 . S
H234 C211 0.950 . S
H235 C213 0.950 . S
C236 C237 1.349 . S
C236 C238 1.327 . S
C236 H261 0.950 . S
C237 C236 1.349 . S
C237 C253 1.349 . S
C238 C236 1.327 . S
C238 C257 1.429 . S
C238 H262 0.950 . S
C239 C256 1.574 1_455 S
C239 C258 1.368 . S
C239 H263 0.949 . S
H240 C244 0.949 . S
C241 C242 1.349 . S
C241 C243 1.327 . S
C241 H264 0.950 . S
C242 C241 1.349 . S
C242 C254 1.349 . S
C243 C241 1.327 . S
C243 C259 1.429 . S
C243 H265 0.950 . S
C244 H240 0.949 . S
C244 C252 1.574 1_655 S
C244 C260 1.368 . S
H245 C253 0.950 . S
H246 C251 0.950 . S
H247 C252 0.949 . S
H248 C254 0.950 . S
H249 C255 0.950 . S
H250 C256 0.949 . S
C251 H246 0.950 . S
C251 C253 1.327 . S
C251 C257 1.429 . S
C252 C244 1.574 1_455 S
C252 H247 0.949 . S
C252 C258 1.368 . S
C253 C237 1.349 . S
C253 H245 0.950 . S
C253 C251 1.327 . S
C254 C242 1.349 . S
C254 H248 0.950 . S
C254 C255 1.327 . S
C255 H249 0.950 . S
C255 C254 1.327 . S
C255 C259 1.429 . S
C256 C239 1.574 1_655 S
C256 H250 0.949 . S
C256 C260 1.368 . S
C257 C238 1.429 . S
C257 C251 1.429 . S
C257 C258 1.523 . S
C258 C239 1.368 . S
C258 C252 1.368 . S
C258 C257 1.523 . S
C259 C243 1.429 . S
C259 C255 1.429 . S
C259 C260 1.523 . S
C260 C244 1.368 . S
C260 C256 1.368 . S
C260 C259 1.523 . S
H261 C236 0.950 . S
H262 C238 0.950 . S
H263 C239 0.949 . S
H264 C241 0.950 . S
H265 C243 0.950 . S
C266 C267 1.349 . S
C266 C268 1.327 . S
C266 H291 0.950 . S
C267 C266 1.349 . S
C267 C283 1.349 . S
C268 C266 1.327 . S
C268 C287 1.429 . S
C268 H292 0.950 . S
C269 C286 1.574 1_455 S
C269 C288 1.368 . S
C269 H293 0.949 . S
H270 C274 0.949 . S
C271 C272 1.349 . S
C271 C273 1.327 . S
C271 H294 0.950 . S
C272 C271 1.349 . S
C272 C284 1.349 . S
C273 C271 1.327 . S
C273 C289 1.429 . S
C273 H295 0.950 . S
C274 H270 0.949 . S
C274 C282 1.574 1_655 S
C274 C290 1.368 . S
H275 C283 0.950 . S
H276 C281 0.950 . S
H277 C282 0.949 . S
H278 C284 0.950 . S
H279 C285 0.950 . S
H280 C286 0.949 . S
C281 H276 0.950 . S
C281 C283 1.327 . S
C281 C287 1.429 . S
C282 C274 1.574 1_455 S
C282 H277 0.949 . S
C282 C288 1.368 . S
C283 C267 1.349 . S
C283 H275 0.950 . S
C283 C281 1.327 . S
C284 C272 1.349 . S
C284 H278 0.950 . S
C284 C285 1.327 . S
C285 H279 0.950 . S
C285 C284 1.327 . S
C285 C289 1.429 . S
C286 C269 1.574 1_655 S
C286 H280 0.949 . S
C286 C290 1.368 . S
C287 C268 1.429 . S
C287 C281 1.429 . S
C287 C288 1.523 . S
C288 C269 1.368 . S
C288 C282 1.368 . S
C288 C287 1.523 . S
C289 C273 1.429 . S
C289 C285 1.429 . S
C289 C290 1.523 . S
C290 C274 1.368 . S
C290 C286 1.368 . S
C290 C289 1.523 . S
H291 C266 0.950 . S
H292 C268 0.950 . S
H293 C269 0.949 . S
H294 C271 0.950 . S
H295 C273 0.950 . S
C296 C297 1.349 . S
C296 C298 1.327 . S
C296 H321 0.950 . S
C297 C296 1.349 . S
C297 C313 1.349 . S
C298 C296 1.327 . S
C298 C317 1.429 . S
C298 H322 0.950 . S
C299 C316 1.574 . S
C299 C318 1.368 . S
C299 H323 0.949 . S
H300 C304 0.949 . S
C301 C302 1.349 . S
C301 C303 1.327 . S
C301 H324 0.950 . S
C302 C301 1.349 . S
C302 C314 1.349 . S
C303 C301 1.327 . S
C303 C319 1.429 . S
C303 H325 0.950 . S
C304 H300 0.949 . S
C304 C312 1.574 . S
C304 C320 1.368 . S
H305 C313 0.950 . S
H306 C311 0.950 . S
H307 C312 0.949 . S
H308 C314 0.950 . S
H309 C315 0.950 . S
H310 C316 0.949 . S
C311 H306 0.950 . S
C311 C313 1.327 . S
C311 C317 1.429 . S
C312 C304 1.574 . S
C312 H307 0.949 . S
C312 C318 1.368 1_556 S
C313 C297 1.349 . S
C313 H305 0.950 . S
C313 C311 1.327 . S
C314 C302 1.349 . S
C314 H308 0.950 . S
C314 C315 1.327 . S
C315 H309 0.950 . S
C315 C314 1.327 . S
C315 C319 1.429 . S
C316 C299 1.574 . S
C316 H310 0.949 . S
C316 C320 1.368 1_554 S
C317 C298 1.429 . S
C317 C311 1.429 . S
C317 C318 1.523 . S
C318 C299 1.368 . S
C318 C312 1.368 1_554 S
C318 C317 1.523 . S
C319 C303 1.429 . S
C319 C315 1.429 . S
C319 C320 1.523 . S
C320 C304 1.368 . S
C320 C316 1.368 1_556 S
C320 C319 1.523 . S
H321 C296 0.950 . S
H322 C298 0.950 . S
H323 C299 0.949 . S
H324 C301 0.950 . S
H325 C303 0.950 . S
C326 C327 1.349 . S
C326 C328 1.327 . S
C326 H351 0.950 . S
C327 C326 1.349 . S
C327 C343 1.349 . S
C328 C326 1.327 . S
C328 C347 1.429 . S
C328 H352 0.950 . S
C329 C346 1.574 . S
C329 C348 1.368 . S
C329 H353 0.949 . S
H330 C334 0.949 . S
C331 C332 1.349 . S
C331 C333 1.327 . S
C331 H354 0.950 . S
C332 C331 1.349 . S
C332 C344 1.349 . S
C333 C331 1.327 . S
C333 C349 1.429 . S
C333 H355 0.950 . S
C334 H330 0.949 . S
C334 C342 1.574 . S
C334 C350 1.368 . S
H335 C343 0.950 . S
H336 C341 0.950 . S
H337 C342 0.949 . S
H338 C344 0.950 . S
H339 C345 0.950 . S
H340 C346 0.949 . S
C341 H336 0.950 . S
C341 C343 1.327 . S
C341 C347 1.429 . S
C342 C334 1.574 . S
C342 H337 0.949 . S
C342 C348 1.368 . S
C343 C327 1.349 . S
C343 H335 0.950 . S
C343 C341 1.327 . S
C344 C332 1.349 . S
C344 H338 0.950 . S
C344 C345 1.327 . S
C345 H339 0.950 . S
C345 C344 1.327 . S
C345 C349 1.429 . S
C346 C329 1.574 . S
C346 H340 0.949 . S
C346 C350 1.368 . S
C347 C328 1.429 . S
C347 C341 1.429 . S
C347 C348 1.523 . S
C348 C329 1.368 . S
C348 C342 1.368 . S
C348 C347 1.523 . S
C349 C333 1.429 . S
C349 C345 1.429 . S
C349 C350 1.523 . S
C350 C334 1.368 . S
C350 C346 1.368 . S
C350 C349 1.523 . S
H351 C326 0.950 . S
H352 C328 0.950 . S
H353 C329 0.949 . S
H354 C331 0.950 . S
H355 C333 0.950 . S
C356 C357 1.349 . S
C356 C358 1.327 . S
C356 H381 0.950 . S
C357 C356 1.349 . S
C357 C373 1.349 . S
C358 C356 1.327 . S
C358 C377 1.429 . S
C358 H382 0.950 . S
C359 C376 1.574 . S
C359 C378 1.368 1_556 S
C359 H383 0.949 . S
H360 C364 0.949 . S
C361 C362 1.349 . S
C361 C363 1.327 . S
C361 H384 0.950 . S
C362 C361 1.349 . S
C362 C374 1.349 . S
C363 C361 1.327 . S
C363 C379 1.429 . S
C363 H385 0.950 . S
C364 H360 0.949 . S
C364 C372 1.574 . S
C364 C380 1.368 1_554 S
H365 C373 0.950 . S
H366 C371 0.950 . S
H367 C372 0.949 . S
H368 C374 0.950 . S
H369 C375 0.950 . S
H370 C376 0.949 . S
C371 H366 0.950 . S
C371 C373 1.327 . S
C371 C377 1.429 . S
C372 C364 1.574 . S
C372 H367 0.949 . S
C372 C378 1.368 . S
C373 C357 1.349 . S
C373 H365 0.950 . S
C373 C371 1.327 . S
C374 C362 1.349 . S
C374 H368 0.950 . S
C374 C375 1.327 . S
C375 H369 0.950 . S
C375 C374 1.327 . S
C375 C379 1.429 . S
C376 C359 1.574 . S
C376 H370 0.949 . S
C376 C380 1.368 . S
C377 C358 1.429 . S
C377 C371 1.429 . S
C377 C378 1.523 . S
C378 C359 1.368 1_554 S
C378 C372 1.368 . S
C378 C377 1.523 . S
C379 C363 1.429 . S
C379 C375 1.429 . S
C379 C380 1.523 . S
C380 C364 1.368 1_556 S
C380 C376 1.368 . S
C380 C379 1.523 . S
H381 C356 0.950 . S
H382 C358 0.950 . S
H383 C359 0.949 . S
H384 C361 0.950 . S
H385 C363 0.950 . S
C386 C387 1.349 . S
C386 C388 1.327 . S
C386 H411 0.950 . S
C387 C386 1.349 . S
C387 C403 1.349 . S
C388 C386 1.327 . S
C388 C407 1.429 . S
C388 H412 0.950 . S
C389 C406 1.574 . S
C389 C408 1.368 . S
C389 H413 0.949 . S
H390 C394 0.949 . S
C391 C392 1.349 . S
C391 C393 1.327 . S
C391 H414 0.950 . S
C392 C391 1.349 . S
C392 C404 1.349 . S
C393 C391 1.327 . S
C393 C409 1.429 . S
C393 H415 0.950 . S
C394 H390 0.949 . S
C394 C402 1.574 . S
C394 C410 1.368 . S
H395 C403 0.950 . S
H396 C401 0.950 . S
H397 C402 0.949 . S
H398 C404 0.950 . S
H399 C405 0.950 . S
H400 C406 0.949 . S
C401 H396 0.950 . S
C401 C403 1.327 . S
C401 C407 1.429 . S
C402 C394 1.574 . S
C402 H397 0.949 . S
C402 C408 1.368 . S
C403 C387 1.349 . S
C403 H395 0.950 . S
C403 C401 1.327 . S
C404 C392 1.349 . S
C404 H398 0.950 . S
C404 C405 1.327 . S
C405 H399 0.950 . S
C405 C404 1.327 . S
C405 C409 1.429 . S
C406 C389 1.574 . S
C406 H400 0.949 . S
C406 C410 1.368 . S
C407 C388 1.429 . S
C407 C401 1.429 . S
C407 C408 1.523 . S
C408 C389 1.368 . S
C408 C402 1.368 . S
C408 C407 1.523 . S
C409 C393 1.429 . S
C409 C405 1.429 . S
C409 C410 1.523 . S
C410 C394 1.368 . S
C410 C406 1.368 . S
C410 C409 1.523 . S
H411 C386 0.950 . S
H412 C388 0.950 . S
H413 C389 0.949 . S
H414 C391 0.950 . S
H415 C393 0.950 . S
C416 C417 1.349 . S
C416 C418 1.327 . S
C416 H441 0.950 . S
C417 C416 1.349 . S
C417 C433 1.349 . S
C418 C416 1.327 . S
C418 C437 1.429 . S
C418 H442 0.950 . S
C419 C436 1.574 1_655 S
C419 C438 1.368 1_554 S
C419 H443 0.949 . S
H420 C424 0.949 . S
C421 C422 1.349 . S
C421 C423 1.327 . S
C421 H444 0.950 . S
C422 C421 1.349 . S
C422 C434 1.349 . S
C423 C421 1.327 . S
C423 C439 1.429 . S
C423 H445 0.950 . S
C424 H420 0.949 . S
C424 C432 1.574 1_455 S
C424 C440 1.368 1_556 S
H425 C433 0.950 . S
H426 C431 0.950 . S
H427 C432 0.949 . S
H428 C434 0.950 . S
H429 C435 0.950 . S
H430 C436 0.949 . S
C431 H426 0.950 . S
C431 C433 1.327 . S
C431 C437 1.429 . S
C432 C424 1.574 1_655 S
C432 H427 0.949 . S
C432 C438 1.368 . S
C433 C417 1.349 . S
C433 H425 0.950 . S
C433 C431 1.327 . S
C434 C422 1.349 . S
C434 H428 0.950 . S
C434 C435 1.327 . S
C435 H429 0.950 . S
C435 C434 1.327 . S
C435 C439 1.429 . S
C436 C419 1.574 1_455 S
C436 H430 0.949 . S
C436 C440 1.368 . S
C437 C418 1.429 . S
C437 C431 1.429 . S
C437 C438 1.523 . S
C438 C419 1.368 1_556 S
C438 C432 1.368 . S
C438 C437 1.523 . S
C439 C423 1.429 . S
C439 C435 1.429 . S
C439 C440 1.523 . S
C440 C424 1.368 1_554 S
C440 C436 1.368 . S
C440 C439 1.523 . S
H441 C416 0.950 . S
H442 C418 0.950 . S
H443 C419 0.949 . S
H444 C421 0.950 . S
H445 C423 0.950 . S
C446 C447 1.349 . S
C446 C448 1.327 . S
C446 H471 0.950 . S
C447 C446 1.349 . S
C447 C463 1.349 . S
C448 C446 1.327 . S
C448 C467 1.429 . S
C448 H472 0.950 . S
C449 C466 1.574 1_455 S
C449 C468 1.368 . S
C449 H473 0.949 . S
H450 C454 0.949 . S
C451 C452 1.349 . S
C451 C453 1.327 . S
C451 H474 0.950 . S
C452 C451 1.349 . S
C452 C464 1.349 . S
C453 C451 1.327 . S
C453 C469 1.429 . S
C453 H475 0.950 . S
C454 H450 0.949 . S
C454 C462 1.574 1_655 S
C454 C470 1.368 . S
H455 C463 0.950 . S
H456 C461 0.950 . S
H457 C462 0.949 . S
H458 C464 0.950 . S
H459 C465 0.950 . S
H460 C466 0.949 . S
C461 H456 0.950 . S
C461 C463 1.327 . S
C461 C467 1.429 . S
C462 C454 1.574 1_455 S
C462 H457 0.949 . S
C462 C468 1.368 . S
C463 C447 1.349 . S
C463 H455 0.950 . S
C463 C461 1.327 . S
C464 C452 1.349 . S
C464 H458 0.950 . S
C464 C465 1.327 . S
C465 H459 0.950 . S
C465 C464 1.327 . S
C465 C469 1.429 . S
C466 C449 1.574 1_655 S
C466 H460 0.949 . S
C466 C470 1.368 . S
C467 C448 1.429 . S
C467 C461 1.429 . S
C467 C468 1.523 . S
C468 C449 1.368 . S
C468 C462 1.368 . S
C468 C467 1.523 . S
C469 C453 1.429 . S
C469 C465 1.429 . S
C469 C470 1.523 . S
C470 C454 1.368 . S
C470 C466 1.368 . S
C470 C469 1.523 . S
H471 C446 0.950 . S
H472 C448 0.950 . S
H473 C449 0.949 . S
H474 C451 0.950 . S
H475 C453 0.950 . S
C476 C477 1.349 . S
C476 C478 1.327 . S
C476 H501 0.950 . S
C477 C476 1.349 . S
C477 C493 1.349 . S
C478 C476 1.327 . S
C478 C497 1.429 . S
C478 H502 0.950 . S
C479 C496 1.574 . S
C479 C498 1.368 1_545 S
C479 H503 0.949 . S
H480 C484 0.949 . S
C481 C482 1.349 . S
C481 C483 1.327 . S
C481 H504 0.950 . S
C482 C481 1.349 . S
C482 C494 1.349 . S
C483 C481 1.327 . S
C483 C499 1.429 . S
C483 H505 0.950 . S
C484 H480 0.949 . S
C484 C492 1.574 . S
C484 C500 1.368 1_565 S
H485 C493 0.950 . S
H486 C491 0.950 . S
H487 C492 0.949 . S
H488 C494 0.950 . S
H489 C495 0.950 . S
H490 C496 0.949 . S
C491 H486 0.950 . S
C491 C493 1.327 . S
C491 C497 1.429 . S
C492 C484 1.574 . S
C492 H487 0.949 . S
C492 C498 1.368 1_556 S
C493 C477 1.349 . S
C493 H485 0.950 . S
C493 C491 1.327 . S
C494 C482 1.349 . S
C494 H488 0.950 . S
C494 C495 1.327 . S
C495 H489 0.950 . S
C495 C494 1.327 . S
C495 C499 1.429 . S
C496 C479 1.574 . S
C496 H490 0.949 . S
C496 C500 1.368 1_554 S
C497 C478 1.429 . S
C497 C491 1.429 . S
C497 C498 1.523 . S
C498 C479 1.368 1_565 S
C498 C492 1.368 1_554 S
C498 C497 1.523 . S
C499 C483 1.429 . S
C499 C495 1.429 . S
C499 C500 1.523 . S
C500 C484 1.368 1_545 S
C500 C496 1.368 1_556 S
C500 C499 1.523 . S
H501 C476 0.950 . S
H502 C478 0.950 . S
H503 C479 0.949 . S
H504 C481 0.950 . S
H505 C483 0.950 . S
C506 C507 1.349 . S
C506 C508 1.327 . S
C506 H531 0.950 . S
C507 C506 1.349 . S
C507 C523 1.349 . S
C508 C506 1.327 . S
C508 C527 1.429 . S
C508 H532 0.950 . S
C509 C526 1.574 . S
C509 C528 1.368 . S
C509 H533 0.949 . S
H510 C514 0.949 . S
C511 C512 1.349 . S
C511 C513 1.327 . S
C511 H534 0.950 . S
C512 C511 1.349 . S
C512 C524 1.349 . S
C513 C511 1.327 . S
C513 C529 1.429 . S
C513 H535 0.950 . S
C514 H510 0.949 . S
C514 C522 1.574 . S
C514 C530 1.368 . S
H515 C523 0.950 . S
H516 C521 0.950 . S
H517 C522 0.949 . S
H518 C524 0.950 . S
H519 C525 0.950 . S
H520 C526 0.949 . S
C521 H516 0.950 . S
C521 C523 1.327 . S
C521 C527 1.429 . S
C522 C514 1.574 . S
C522 H517 0.949 . S
C522 C528 1.368 1_545 S
C523 C507 1.349 . S
C523 H515 0.950 . S
C523 C521 1.327 . S
C524 C512 1.349 . S
C524 H518 0.950 . S
C524 C525 1.327 . S
C525 H519 0.950 . S
C525 C524 1.327 . S
C525 C529 1.429 . S
C526 C509 1.574 . S
C526 H520 0.949 . S
C526 C530 1.368 1_565 S
C527 C508 1.429 . S
C527 C521 1.429 . S
C527 C528 1.523 . S
C528 C509 1.368 . S
C528 C522 1.368 1_565 S
C528 C527 1.523 . S
C529 C513 1.429 . S
C529 C525 1.429 . S
C529 C530 1.523 . S
C530 C514 1.368 . S
C530 C526 1.368 1_545 S
C530 C529 1.523 . S
H531 C506 0.950 . S
H532 C508 0.950 . S
H533 C509 0.949 . S
H534 C511 0.950 . S
H535 C513 0.950 . S
C536 C537 1.349 . S
C536 C538 1.327 . S
C536 H561 0.950 . S
C537 C536 1.349 . S
C537 C553 1.349 . S
C538 C536 1.327 . S
C538 C557 1.429 . S
C538 H562 0.950 . S
C539 C556 1.574 1_455 S
C539 C558 1.368 . S
C539 H563 0.949 . S
H540 C544 0.949 . S
C541 C542 1.349 . S
C541 C543 1.327 . S
C541 H564 0.950 . S
C542 C541 1.349 . S
C542 C554 1.349 . S
C543 C541 1.327 . S
C543 C559 1.429 . S
C543 H565 0.950 . S
C544 H540 0.949 . S
C544 C552 1.574 1_655 S
C544 C560 1.368 . S
H545 C553 0.950 . S
H546 C551 0.950 . S
H547 C552 0.949 . S
H548 C554 0.950 . S
H549 C555 0.950 . S
H550 C556 0.949 . S
C551 H546 0.950 . S
C551 C553 1.327 . S
C551 C557 1.429 . S
C552 C544 1.574 1_455 S
C552 H547 0.949 . S
C552 C558 1.368 . S
C553 C537 1.349 . S
C553 H545 0.950 . S
C553 C551 1.327 . S
C554 C542 1.349 . S
C554 H548 0.950 . S
C554 C555 1.327 . S
C555 H549 0.950 . S
C555 C554 1.327 . S
C555 C559 1.429 . S
C556 C539 1.574 1_655 S
C556 H550 0.949 . S
C556 C560 1.368 . S
C557 C538 1.429 . S
C557 C551 1.429 . S
C557 C558 1.523 . S
C558 C539 1.368 . S
C558 C552 1.368 . S
C558 C557 1.523 . S
C559 C543 1.429 . S
C559 C555 1.429 . S
C559 C560 1.523 . S
C560 C544 1.368 . S
C560 C556 1.368 . S
C560 C559 1.523 . S
H561 C536 0.950 . S
H562 C538 0.950 . S
H563 C539 0.949 . S
H564 C541 0.950 . S
H565 C543 0.950 . S
C566 C567 1.349 . S
C566 C568 1.327 . S
C566 H591 0.950 . S
C567 C566 1.349 . S
C567 C583 1.349 . S
C568 C566 1.327 . S
C568 C587 1.429 . S
C568 H592 0.950 . S
C569 C586 1.574 1_455 S
C569 C588 1.368 . S
C569 H593 0.949 . S
H570 C574 0.949 . S
C571 C572 1.349 . S
C571 C573 1.327 . S
C571 H594 0.950 . S
C572 C571 1.349 . S
C572 C584 1.349 . S
C573 C571 1.327 . S
C573 C589 1.429 . S
C573 H595 0.950 . S
C574 H570 0.949 . S
C574 C582 1.574 1_655 S
C574 C590 1.368 . S
H575 C583 0.950 . S
H576 C581 0.950 . S
H577 C582 0.949 . S
H578 C584 0.950 . S
H579 C585 0.950 . S
H580 C586 0.949 . S
C581 H576 0.950 . S
C581 C583 1.327 . S
C581 C587 1.429 . S
C582 C574 1.574 1_455 S
C582 H577 0.949 . S
C582 C588 1.368 . S
C583 C567 1.349 . S
C583 H575 0.950 . S
C583 C581 1.327 . S
C584 C572 1.349 . S
C584 H578 0.950 . S
C584 C585 1.327 . S
C585 H579 0.950 . S
C585 C584 1.327 . S
C585 C589 1.429 . S
C586 C569 1.574 1_655 S
C586 H580 0.949 . S
C586 C590 1.368 . S
C587 C568 1.429 . S
C587 C581 1.429 . S
C587 C588 1.523 . S
C588 C569 1.368 . S
C588 C582 1.368 . S
C588 C587 1.523 . S
C589 C573 1.429 . S
C589 C585 1.429 . S
C589 C590 1.523 . S
C590 C574 1.368 . S
C590 C586 1.368 . S
C590 C589 1.523 . S
H591 C566 0.950 . S
H592 C568 0.950 . S
H593 C569 0.949 . S
H594 C571 0.950 . S
H595 C573 0.950 . S
C596 C597 1.349 . S
C596 C598 1.327 . S
C596 H621 0.950 . S
C597 C596 1.349 . S
C597 C613 1.349 . S
C598 C596 1.327 . S
C598 C617 1.429 . S
C598 H622 0.950 . S
C599 C616 1.574 . S
C599 C618 1.368 . S
C599 H623 0.949 . S
H600 C604 0.949 . S
C601 C602 1.349 . S
C601 C603 1.327 . S
C601 H624 0.950 . S
C602 C601 1.349 . S
C602 C614 1.349 . S
C603 C601 1.327 . S
C603 C619 1.429 . S
C603 H625 0.950 . S
C604 H600 0.949 . S
C604 C612 1.574 . S
C604 C620 1.368 . S
H605 C613 0.950 . S
H606 C611 0.950 . S
H607 C612 0.949 . S
H608 C614 0.950 . S
H609 C615 0.950 . S
H610 C616 0.949 . S
C611 H606 0.950 . S
C611 C613 1.327 . S
C611 C617 1.429 . S
C612 C604 1.574 . S
C612 H607 0.949 . S
C612 C618 1.368 . S
C613 C597 1.349 . S
C613 H605 0.950 . S
C613 C611 1.327 . S
C614 C602 1.349 . S
C614 H608 0.950 . S
C614 C615 1.327 . S
C615 H609 0.950 . S
C615 C614 1.327 . S
C615 C619 1.429 . S
C616 C599 1.574 . S
C616 H610 0.949 . S
C616 C620 1.368 . S
C617 C598 1.429 . S
C617 C611 1.429 . S
C617 C618 1.523 . S
C618 C599 1.368 . S
C618 C612 1.368 . S
C618 C617 1.523 . S
C619 C603 1.429 . S
C619 C615 1.429 . S
C619 C620 1.523 . S
C620 C604 1.368 . S
C620 C616 1.368 . S
C620 C619 1.523 . S
H621 C596 0.950 . S
H622 C598 0.950 . S
H623 C599 0.949 . S
H624 C601 0.950 . S
H625 C603 0.950 . S
C626 C627 1.349 . S
C626 C628 1.327 . S
C626 H651 0.950 . S
C627 C626 1.349 . S
C627 C643 1.349 . S
C628 C626 1.327 . S
C628 C647 1.429 . S
C628 H652 0.950 . S
C629 C646 1.574 . S
C629 C648 1.368 . S
C629 H653 0.949 . S
H630 C634 0.949 . S
C631 C632 1.349 . S
C631 C633 1.327 . S
C631 H654 0.950 . S
C632 C631 1.349 . S
C632 C644 1.349 . S
C633 C631 1.327 . S
C633 C649 1.429 . S
C633 H655 0.950 . S
C634 H630 0.949 . S
C634 C642 1.574 . S
C634 C650 1.368 . S
H635 C643 0.950 . S
H636 C641 0.950 . S
H637 C642 0.949 . S
H638 C644 0.950 . S
H639 C645 0.950 . S
H640 C646 0.949 . S
C641 H636 0.950 . S
C641 C643 1.327 . S
C641 C647 1.429 . S
C642 C634 1.574 . S
C642 H637 0.949 . S
C642 C648 1.368 . S
C643 C627 1.349 . S
C643 H635 0.950 . S
C643 C641 1.327 . S
C644 C632 1.349 . S
C644 H638 0.950 . S
C644 C645 1.327 . S
C645 H639 0.950 . S
C645 C644 1.327 . S
C645 C649 1.429 . S
C646 C629 1.574 . S
C646 H640 0.949 . S
C646 C650 1.368 . S
C647 C628 1.429 . S
C647 C641 1.429 . S
C647 C648 1.523 . S
C648 C629 1.368 . S
C648 C642 1.368 . S
C648 C647 1.523 . S
C649 C633 1.429 . S
C649 C645 1.429 . S
C649 C650 1.523 . S
C650 C634 1.368 . S
C650 C646 1.368 . S
C650 C649 1.523 . S
H651 C626 0.950 . S
H652 C628 0.950 . S
H653 C629 0.949 . S
H654 C631 0.950 . S
H655 C633 0.950 . S
C656 C657 1.349 1_556 S
C656 C658 1.327 . S
C656 H681 0.950 . S
C657 C656 1.349 1_554 S
C657 C673 1.349 . S
C658 C656 1.327 . S
C658 C677 1.429 . S
C658 H682 0.950 . S
C659 C676 1.574 . S
C659 C678 1.368 . S
C659 H683 0.949 . S
H660 C664 0.949 . S
C661 C662 1.349 . S
C661 C663 1.327 . S
C661 H684 0.950 . S
C662 C661 1.349 . S
C662 C674 1.349 . S
C663 C661 1.327 . S
C663 C679 1.429 . S
C663 H685 0.950 . S
C664 H660 0.949 . S
C664 C672 1.574 . S
C664 C680 1.368 . S
H665 C673 0.950 . S
H666 C671 0.950 . S
H667 C672 0.949 . S
H668 C674 0.950 . S
H669 C675 0.950 . S
H670 C676 0.949 . S
C671 H666 0.950 . S
C671 C673 1.327 1_556 S
C671 C677 1.429 . S
C672 C664 1.574 . S
C672 H667 0.949 . S
C672 C678 1.368 . S
C673 C657 1.349 . S
C673 H665 0.950 . S
C673 C671 1.327 1_554 S
C674 C662 1.349 . S
C674 H668 0.950 . S
C674 C675 1.327 . S
C675 H669 0.950 . S
C675 C674 1.327 . S
C675 C679 1.429 . S
C676 C659 1.574 . S
C676 H670 0.949 . S
C676 C680 1.368 . S
C677 C658 1.429 . S
C677 C671 1.429 . S
C677 C678 1.523 . S
C678 C659 1.368 . S
C678 C672 1.368 . S
C678 C677 1.523 . S
C679 C663 1.429 . S
C679 C675 1.429 . S
C679 C680 1.523 . S
C680 C664 1.368 . S
C680 C676 1.368 . S
C680 C679 1.523 . S
H681 C656 0.950 . S
H682 C658 0.950 . S
H683 C659 0.949 . S
H684 C661 0.950 . S
H685 C663 0.950 . S
C686 C687 1.349 . S
C686 C688 1.327 . S
C686 H711 0.950 . S
C687 C686 1.349 . S
C687 C703 1.349 . S
C688 C686 1.327 . S
C688 C707 1.429 . S
C688 H712 0.950 . S
C689 C706 1.574 . S
C689 C708 1.368 . S
C689 H713 0.949 . S
H690 C694 0.949 . S
C691 C692 1.349 . S
C691 C693 1.327 . S
C691 H714 0.950 . S
C692 C691 1.349 . S
C692 C704 1.349 . S
C693 C691 1.327 . S
C693 C709 1.429 . S
C693 H715 0.950 . S
C694 H690 0.949 . S
C694 C702 1.574 . S
C694 C710 1.368 . S
H695 C703 0.950 . S
H696 C701 0.950 . S
H697 C702 0.949 . S
H698 C704 0.950 . S
H699 C705 0.950 . S
H700 C706 0.949 . S
C701 H696 0.950 . S
C701 C703 1.327 . S
C701 C707 1.429 . S
C702 C694 1.574 . S
C702 H697 0.949 . S
C702 C708 1.368 . S
C703 C687 1.349 . S
C703 H695 0.950 . S
C703 C701 1.327 . S
C704 C692 1.349 . S
C704 H698 0.950 . S
C704 C705 1.327 . S
C705 H699 0.950 . S
C705 C704 1.327 . S
C705 C709 1.429 . S
C706 C689 1.574 . S
C706 H700 0.949 . S
C706 C710 1.368 . S
C707 C688 1.429 . S
C707 C701 1.429 . S
C707 C708 1.523 . S
C708 C689 1.368 . S
C708 C702 1.368 . S
C708 C707 1.523 . S
C709 C693 1.429 . S
C709 C705 1.429 . S
C709 C710 1.523 . S
C710 C694 1.368 . S
C710 C706 1.368 . S
C710 C709 1.523 . S
H711 C686 0.950 . S
H712 C688 0.950 . S
H713 C689 0.949 . S
H714 C691 0.950 . S
H715 C693 0.950 . S
C716 C717 1.349 . S
C716 C718 1.327 . S
C716 H741 0.950 . S
C717 C716 1.349 . S
C717 C733 1.349 . S
C718 C716 1.327 . S
C718 C737 1.429 . S
C718 H742 0.950 . S
C719 C736 1.574 . S
C719 C738 1.368 . S
C719 H743 0.949 . S
H720 C724 0.949 . S
C721 C722 1.349 . S
C721 C723 1.327 1_556 S
C721 H744 0.950 . S
C722 C721 1.349 . S
C722 C734 1.349 1_556 S
C723 C721 1.327 1_554 S
C723 C739 1.429 . S
C723 H745 0.950 . S
C724 H720 0.949 . S
C724 C732 1.574 . S
C724 C740 1.368 . S
H725 C733 0.950 . S
H726 C731 0.950 . S
H727 C732 0.949 . S
H728 C734 0.950 . S
H729 C735 0.950 . S
H730 C736 0.949 . S
C731 H726 0.950 . S
C731 C733 1.327 . S
C731 C737 1.429 . S
C732 C724 1.574 . S
C732 H727 0.949 . S
C732 C738 1.368 . S
C733 C717 1.349 . S
C733 H725 0.950 . S
C733 C731 1.327 . S
C734 C722 1.349 1_554 S
C734 H728 0.950 . S
C734 C735 1.327 . S
C735 H729 0.950 . S
C735 C734 1.327 . S
C735 C739 1.429 . S
C736 C719 1.574 . S
C736 H730 0.949 . S
C736 C740 1.368 . S
C737 C718 1.429 . S
C737 C731 1.429 . S
C737 C738 1.523 . S
C738 C719 1.368 . S
C738 C732 1.368 . S
C738 C737 1.523 . S
C739 C723 1.429 . S
C739 C735 1.429 . S
C739 C740 1.523 . S
C740 C724 1.368 . S
C740 C736 1.368 . S
C740 C739 1.523 . S
H741 C716 0.950 . S
H742 C718 0.950 . S
H743 C719 0.949 . S
H744 C721 0.950 . S
H745 C723 0.950 . S
C746 C747 1.349 . S
C746 C748 1.327 . S
C746 H771 0.950 . S
C747 C746 1.349 . S
C747 C763 1.349 . S
C748 C746 1.327 . S
C748 C767 1.429 . S
C748 H772 0.950 . S
C749 C766 1.574 . S
C749 C768 1.368 . S
C749 H773 0.949 . S
H750 C754 0.949 . S
C751 C752 1.349 . S
C751 C753 1.327 . S
C751 H774 0.950 . S
C752 C751 1.349 . S
C752 C764 1.349 . S
C753 C751 1.327 . S
C753 C769 1.429 . S
C753 H775 0.950 . S
C754 H750 0.949 . S
C754 C762 1.574 . S
C754 C770 1.368 . S
H755 C763 0.950 . S
H756 C761 0.950 . S
H757 C762 0.949 . S
H758 C764 0.950 . S
H759 C765 0.950 . S
H760 C766 0.949 . S
C761 H756 0.950 . S
C761 C763 1.327 . S
C761 C767 1.429 . S
C762 C754 1.574 . S
C762 H757 0.949 . S
C762 C768 1.368 . S
C763 C747 1.349 . S
C763 H755 0.950 . S
C763 C761 1.327 . S
C764 C752 1.349 . S
C764 H758 0.950 . S
C764 C765 1.327 . S
C765 H759 0.950 . S
C765 C764 1.327 . S
C765 C769 1.429 . S
C766 C749 1.574 . S
C766 H760 0.949 . S
C766 C770 1.368 . S
C767 C748 1.429 . S
C767 C761 1.429 . S
C767 C768 1.523 . S
C768 C749 1.368 . S
C768 C762 1.368 . S
C768 C767 1.523 . S
C769 C753 1.429 . S
C769 C765 1.429 . S
C769 C770 1.523 . S
C770 C754 1.368 . S
C770 C766 1.368 . S
C770 C769 1.523 . S
H771 C746 0.950 . S
H772 C748 0.950 . S
H773 C749 0.949 . S
H774 C751 0.950 . S
H775 C753 0.950 . S
C776 C777 1.349 1_556 S
C776 C778 1.327 . S
C776 H801 0.950 . S
C777 C776 1.349 1_554 S
C777 C793 1.349 . S
C778 C776 1.327 . S
C778 C797 1.429 . S
C778 H802 0.950 . S
C779 C796 1.574 1_565 S
C779 C798 1.368 . S
C779 H803 0.949 . S
H780 C784 0.949 . S
C781 C782 1.349 . S
C781 C783 1.327 . S
C781 H804 0.950 . S
C782 C781 1.349 . S
C782 C794 1.349 . S
C783 C781 1.327 . S
C783 C799 1.429 . S
C783 H805 0.950 . S
C784 H780 0.949 . S
C784 C792 1.574 . S
C784 C800 1.368 1_565 S
H785 C793 0.950 . S
H786 C791 0.950 . S
H787 C792 0.949 . S
H788 C794 0.950 . S
H789 C795 0.950 . S
H790 C796 0.949 . S
C791 H786 0.950 . S
C791 C793 1.327 1_556 S
C791 C797 1.429 . S
C792 C784 1.574 . S
C792 H787 0.949 . S
C792 C798 1.368 . S
C793 C777 1.349 . S
C793 H785 0.950 . S
C793 C791 1.327 1_554 S
C794 C782 1.349 . S
C794 H788 0.950 . S
C794 C795 1.327 . S
C795 H789 0.950 . S
C795 C794 1.327 . S
C795 C799 1.429 . S
C796 C779 1.574 1_545 S
C796 H790 0.949 . S
C796 C800 1.368 . S
C797 C778 1.429 . S
C797 C791 1.429 . S
C797 C798 1.523 . S
C798 C779 1.368 . S
C798 C792 1.368 . S
C798 C797 1.523 . S
C799 C783 1.429 . S
C799 C795 1.429 . S
C799 C800 1.523 . S
C800 C784 1.368 1_545 S
C800 C796 1.368 . S
C800 C799 1.523 . S
H801 C776 0.950 . S
H802 C778 0.950 . S
H803 C779 0.949 . S
H804 C781 0.950 . S
H805 C783 0.950 . S
C806 C807 1.349 . S
C806 C808 1.327 . S
C806 H831 0.950 . S
C807 C806 1.349 . S
C807 C823 1.349 . S
C808 C806 1.327 . S
C808 C827 1.429 . S
C808 H832 0.950 . S
C809 C826 1.574 . S
C809 C828 1.368 1_565 S
C809 H833 0.949 . S
H810 C814 0.941 1_545 S
C811 C812 1.349 . S
C811 C813 1.327 . S
C811 H834 0.950 . S
C812 C811 1.349 . S
C812 C824 1.349 . S
C813 C811 1.327 . S
C813 C829 1.429 . S
C813 H835 0.950 . S
C814 H810 0.941 1_565 S
C814 C822 1.574 1_565 S
C814 C830 1.368 . S
H815 C823 0.950 . S
H816 C821 0.934 1_565 S
H817 C822 0.949 . S
H818 C824 0.950 . S
H819 C825 0.950 . S
H820 C826 0.949 . S
C821 H816 0.934 1_545 S
C821 C823 1.327 . S
C821 C827 1.429 . S
C822 C814 1.574 1_545 S
C822 H817 0.949 . S
C822 C828 1.368 . S
C823 C807 1.349 . S
C823 H815 0.950 . S
C823 C821 1.327 . S
C824 C812 1.349 . S
C824 H818 0.950 . S
C824 C825 1.327 . S
C825 H819 0.950 . S
C825 C824 1.327 . S
C825 C829 1.429 . S
C826 C809 1.574 . S
C826 H820 0.949 . S
C826 C830 1.368 . S
C827 C808 1.429 . S
C827 C821 1.429 . S
C827 C828 1.523 . S
C828 C809 1.368 1_545 S
C828 C822 1.368 . S
C828 C827 1.523 . S
C829 C813 1.429 . S
C829 C825 1.429 . S
C829 C830 1.523 . S
C830 C814 1.368 . S
C830 C826 1.368 . S
C830 C829 1.523 . S
H831 C806 0.950 . S
H832 C808 0.950 . S
H833 C809 0.949 . S
H834 C811 0.950 . S
H835 C813 0.950 . S
C836 C837 1.349 . S
C836 C838 1.327 . S
C836 H861 0.950 . S
C837 C836 1.349 . S
C837 C853 1.349 . S
C838 C836 1.327 . S
C838 C857 1.429 . S
C838 H862 0.950 1_565 S
C839 C856 1.576 . S
C839 C858 1.368 . S
C839 H863 0.949 . S
H840 C844 0.949 . S
C841 C842 1.349 . S
C841 C843 1.327 1_556 S
C841 H864 0.950 . S
C842 C841 1.349 . S
C842 C854 1.349 1_556 S
C843 C841 1.327 1_554 S
C843 C859 1.429 . S
C843 H865 0.950 . S
C844 H840 0.949 . S
C844 C852 1.574 . S
C844 C860 1.368 . S
H845 C853 0.950 . S
H846 C851 0.950 . S
H847 C852 0.949 . S
H848 C854 0.950 . S
H849 C855 0.950 . S
H850 C856 0.950 . S
C851 H846 0.950 . S
C851 C853 1.327 . S
C851 C857 1.429 . S
C852 C844 1.574 . S
C852 H847 0.949 . S
C852 C858 1.368 1_545 S
C853 C837 1.349 . S
C853 H845 0.950 . S
C853 C851 1.327 . S
C854 C842 1.349 1_554 S
C854 H848 0.950 . S
C854 C855 1.327 . S
C855 H849 0.950 . S
C855 C854 1.327 . S
C855 C859 1.429 . S
C856 C839 1.576 . S
C856 H850 0.950 . S
C856 C860 1.365 1_565 S
C857 C838 1.429 . S
C857 C851 1.429 . S
C857 C858 1.523 . S
C858 C839 1.368 . S
C858 C852 1.368 1_565 S
C858 C857 1.523 . S
C859 C843 1.429 . S
C859 C855 1.429 . S
C859 C860 1.523 . S
C860 C844 1.368 . S
C860 C856 1.365 1_545 S
C860 C859 1.523 . S
H861 C836 0.950 . S
H862 C838 0.950 1_545 S
H863 C839 0.949 . S
H864 C841 0.950 . S
H865 C843 0.950 . S
C866 C867 1.349 . S
C866 C868 1.327 . S
C866 H891 0.950 . S
C867 C866 1.349 . S
C867 C883 1.349 . S
C868 C866 1.327 . S
C868 C887 1.429 . S
C868 H892 0.950 . S
C869 C886 1.574 1_545 S
C869 C888 1.368 . S
C869 H893 0.949 . S
H870 C874 0.949 . S
C871 C872 1.349 . S
C871 C873 1.327 . S
C871 H894 0.950 . S
C872 C871 1.349 . S
C872 C884 1.349 . S
C873 C871 1.327 . S
C873 C889 1.429 . S
C873 H895 0.950 . S
C874 H870 0.949 . S
C874 C882 1.574 . S
C874 C890 1.368 1_545 S
H875 C883 0.950 . S
H876 C881 0.950 . S
H877 C882 0.949 . S
H878 C884 0.950 . S
H879 C885 0.950 . S
H880 C886 0.949 . S
C881 H876 0.950 . S
C881 C883 1.327 . S
C881 C887 1.429 . S
C882 C874 1.574 . S
C882 H877 0.949 . S
C882 C888 1.368 . S
C883 C867 1.349 . S
C883 H875 0.950 . S
C883 C881 1.327 . S
C884 C872 1.349 . S
C884 H878 0.950 . S
C884 C885 1.327 . S
C885 H879 0.950 . S
C885 C884 1.327 . S
C885 C889 1.429 . S
C886 C869 1.574 1_565 S
C886 H880 0.949 . S
C886 C890 1.368 . S
C887 C868 1.429 . S
C887 C881 1.429 . S
C887 C888 1.523 . S
C888 C869 1.368 . S
C888 C882 1.368 . S
C888 C887 1.523 . S
C889 C873 1.429 . S
C889 C885 1.429 . S
C889 C890 1.523 . S
C890 C874 1.368 1_565 S
C890 C886 1.368 . S
C890 C889 1.523 . S
H891 C866 0.950 . S
H892 C868 0.950 . S
H893 C869 0.949 . S
H894 C871 0.950 . S
H895 C873 0.950 . S
C177 C27 1.389 . S
C182 C9 1.389 . S
C207 C51 1.389 . S
C212 C72 1.389 . S
C237 C115 1.389 . S
C242 C97 1.389 . S
C267 C139 1.389 . S
C272 C160 1.389 . S
C297 C8 1.601 . S
C302 C140 1.601 . S
C327 C26 1.601 . S
C332 C158 1.601 . S
C357 C96 1.601 . S
C362 C52 1.601 . S
C387 C70 1.601 . S
C392 C114 1.601 . S
C417 C50 0.584 . S
C422 C5 0.584 . S
C447 C73 0.584 . S
C452 C31 0.584 . S
C477 C93 0.584 . S
C482 C138 0.584 . S
C507 C119 0.584 . S
C512 C161 0.584 . S
C537 C4 1.784 . S
C542 C30 1.784 . S
C567 C74 1.784 . S
C572 C48 1.784 . S
C597 C118 1.784 . S
C602 C92 1.784 . S
C627 C162 1.784 . S
C632 C136 1.784 . S
C657 C7 1.142 . S
C662 C75 1.210 . S
C687 C28 1.142 . S
C692 C49 1.210 . S
C717 C29 1.210 . S
C722 C53 1.142 . S
C747 C6 1.210 . S
C752 C71 1.142 . S
C777 C95 1.142 . S
C782 C163 1.210 . S
C807 C137 1.210 . S
C812 C116 1.142 . S
C837 C117 1.210 . S
C842 C141 1.142 . S
C867 C159 1.142 . S
C872 C94 1.210 . S
