# Generated by pormake.
# Topology uov, (4)-cn, num edge types: 1
# Building blocks:
#     Node 0, Type 0, BuildingBlock: KUFVIS_clean_sbu_0, # of connection points: 4
#     Node 1, Type 0, BuildingBlock: KUFVIS_clean_sbu_0, # of connection points: 4
#     Node 2, Type 0, BuildingBlock: KUFVIS_clean_sbu_0, # of connection points: 4
#     Node 3, Type 0, BuildingBlock: KUFVIS_clean_sbu_0, # of connection points: 4
#     Node 4, Type 0, BuildingBlock: KUFVIS_clean_sbu_0, # of connection points: 4
#     Node 5, Type 0, BuildingBlock: KUFVIS_clean_sbu_0, # of connection points: 4
#     Node 6, Type 0, BuildingBlock: KUFVIS_clean_sbu_0, # of connection points: 4
#     Node 7, Type 0, BuildingBlock: KUFVIS_clean_sbu_0, # of connection points: 4
#     Edge 8, Type (0, 0), BuildingBlock: KIFKEQ_clean_linker_1, # of connection points: 2
#     Edge 9, Type (0, 0), BuildingBlock: KIFKEQ_clean_linker_1, # of connection points: 2
#     Edge 10, Type (0, 0), BuildingBlock: KIFKEQ_clean_linker_1, # of connection points: 2
#     Edge 11, Type (0, 0), BuildingBlock: KIFKEQ_clean_linker_1, # of connection points: 2
#     Edge 12, Type (0, 0), BuildingBlock: KIFKEQ_clean_linker_1, # of connection points: 2
#     Edge 13, Type (0, 0), BuildingBlock: KIFKEQ_clean_linker_1, # of connection points: 2
#     Edge 14, Type (0, 0), BuildingBlock: KIFKEQ_clean_linker_1, # of connection points: 2
#     Edge 15, Type (0, 0), BuildingBlock: KIFKEQ_clean_linker_1, # of connection points: 2
#     Edge 16, Type (0, 0), BuildingBlock: KIFKEQ_clean_linker_1, # of connection points: 2
#     Edge 17, Type (0, 0), BuildingBlock: KIFKEQ_clean_linker_1, # of connection points: 2
#     Edge 18, Type (0, 0), BuildingBlock: KIFKEQ_clean_linker_1, # of connection points: 2
#     Edge 19, Type (0, 0), BuildingBlock: KIFKEQ_clean_linker_1, # of connection points: 2
#     Edge 20, Type (0, 0), BuildingBlock: KIFKEQ_clean_linker_1, # of connection points: 2
#     Edge 21, Type (0, 0), BuildingBlock: KIFKEQ_clean_linker_1, # of connection points: 2
#     Edge 22, Type (0, 0), BuildingBlock: KIFKEQ_clean_linker_1, # of connection points: 2
#     Edge 23, Type (0, 0), BuildingBlock: KIFKEQ_clean_linker_1, # of connection points: 2
# Relax obj value: 0.168
# Max RMSD: 0.184
# Mean RMSD: 0.181
data_MOF--net-uov--node1-KUFVIS_clean_sbu_0--edge1-KIFKEQ_clean_linker_1
_symmetry_space_group_name_H-M    P1
_symmetry_Int_Tables_number       1
_symmetry_cell_setting            triclinic
loop_
_symmetry_equiv_pos_as_xyz
'x, y, z'
_cell_length_a     29.646361
_cell_length_b     30.634497
_cell_length_c     43.115885
_cell_angle_alpha  89.986642
_cell_angle_beta   89.979443
_cell_angle_gamma 91.5356
loop_
_atom_site_label
_atom_site_type_symbol
_atom_site_fract_x
_atom_site_fract_y
_atom_site_fract_z
_atom_type_partial_charge
Mn0 Mn 0.05665 0.25862 0.59975 0.0
Mn1 Mn 0.96827 0.25051 0.64894 0.0
C2 C 0.9844 0.25251 0.58048 0.0
C3 C 0.11184 0.22348 0.57111 0.0
C4 C 0.01538 0.33681 0.63285 0.0
O5 O 0.08658 0.24343 0.64049 0.0
O6 O 0.02546 0.23766 0.67135 0.0
C7 C 0.9713 0.15549 0.66121 0.0
N8 N 0.94825 0.19073 0.65125 0.0
C9 C 0.88217 0.14592 0.64056 0.0
C10 C 0.9051 0.10924 0.65095 0.0
C11 C 0.94987 0.11406 0.66129 0.0
C12 C 0.9051 0.18648 0.64134 0.0
H13 H 0.00582 0.15889 0.669 0.0
C14 C 0.06806 0.23525 0.66662 0.0
O15 O 0.11634 0.26478 0.57777 0.0
O16 O 0.07636 0.20297 0.58164 0.0
N17 N 0.91079 0.26086 0.63044 0.0
C18 C 0.8944 0.2989 0.61924 0.0
C19 C 0.85055 0.29931 0.60696 0.0
C20 C 0.82393 0.2607 0.60641 0.0
C21 C 0.84137 0.22202 0.61826 0.0
C22 C 0.88518 0.22366 0.63047 0.0
H23 H 0.91486 0.32854 0.61919 0.0
O24 O 0.01705 0.26816 0.56348 0.0
O25 O 0.99518 0.23972 0.60828 0.0
O26 O 0.04535 0.32131 0.61482 0.0
O27 O 0.98581 0.31305 0.647 0.0
C28 C 0.81743 0.18167 0.6177 0.0
C29 C 0.8378 0.14366 0.62886 0.0
H30 H 0.88881 0.07716 0.65081 0.0
H31 H 0.96789 0.08587 0.66917 0.0
H32 H 0.83742 0.32925 0.59771 0.0
H33 H 0.79033 0.26104 0.59658 0.0
H34 H 0.78355 0.17939 0.60832 0.0
H35 H 0.81926 0.11274 0.62795 0.0
Mn36 Mn 0.24614 0.94661 0.39978 0.0
Mn37 Mn 0.29128 0.84683 0.3966 0.0
C38 C 0.21227 0.88908 0.42605 0.0
C39 C 0.24422 0.01449 0.42464 0.0
C40 C 0.2352 0.88472 0.34446 0.0
O41 O 0.30886 0.9591 0.3825 0.0
O42 O 0.33818 0.89216 0.3859 0.0
C43 C 0.35473 0.85651 0.44934 0.0
N44 N 0.3194 0.83489 0.43549 0.0
C45 C 0.31159 0.78541 0.47865 0.0
C46 C 0.34817 0.80689 0.49322 0.0
C47 C 0.36979 0.84261 0.4785 0.0
C48 C 0.29829 0.80052 0.44949 0.0
H49 H 0.37113 0.8843 0.4383 0.0
C50 C 0.34169 0.93321 0.38021 0.0
O51 O 0.2296 0.00968 0.39636 0.0
O52 O 0.26108 0.98055 0.43763 0.0
N53 N 0.24983 0.80007 0.40702 0.0
C54 C 0.21447 0.78344 0.39017 0.0
C55 C 0.18893 0.74782 0.40185 0.0
C56 C 0.20011 0.72954 0.43063 0.0
C57 C 0.2371 0.74671 0.44729 0.0
C58 C 0.26171 0.78184 0.43428 0.0
H59 H 0.20556 0.79741 0.36809 0.0
O60 O 0.18983 0.92377 0.41993 0.0
O61 O 0.25419 0.88963 0.4173 0.0
O62 O 0.22542 0.92041 0.35804 0.0
O63 O 0.2612 0.85642 0.35627 0.0
C64 C 0.25015 0.73071 0.47649 0.0
C65 C 0.28732 0.75009 0.49218 0.0
H66 H 0.3597 0.79646 0.51581 0.0
H67 H 0.39786 0.85955 0.48969 0.0
H68 H 0.1605 0.73468 0.3888 0.0
H69 H 0.17998 0.70243 0.43974 0.0
H70 H 0.23158 0.70377 0.48722 0.0
H71 H 0.29675 0.73778 0.51476 0.0
Mn72 Mn 0.94101 0.74241 0.59984 0.0
Mn73 Mn 0.03445 0.7489 0.64433 0.0
C74 C 0.01128 0.74681 0.57689 0.0
C75 C 0.88415 0.77905 0.57395 0.0
C76 C 0.98151 0.66401 0.63245 0.0
O77 O 0.91617 0.75847 0.64222 0.0
O78 O 0.98116 0.76787 0.66882 0.0
C79 C 0.04087 0.84478 0.65304 0.0
N80 N 0.0597 0.807 0.64348 0.0
C81 C 0.12802 0.84538 0.62813 0.0
C82 C 0.10958 0.88458 0.63822 0.0
C83 C 0.06578 0.88427 0.65067 0.0
C84 C 0.10186 0.80691 0.6315 0.0
H85 H 0.00702 0.84484 0.66224 0.0
C86 C 0.93806 0.7698 0.66655 0.0
O87 O 0.87909 0.73791 0.58093 0.0
O88 O 0.92113 0.79865 0.58275 0.0
N89 N 0.08829 0.73266 0.62312 0.0
C90 C 0.09957 0.69284 0.61184 0.0
C91 C 0.14143 0.68803 0.59718 0.0
C92 C 0.17129 0.72415 0.59423 0.0
C93 C 0.15901 0.76479 0.60603 0.0
C94 C 0.11702 0.76753 0.62072 0.0
H95 H 0.07658 0.66507 0.61361 0.0
O96 O 0.9766 0.73192 0.56154 0.0
O97 O 0.0036 0.75952 0.60514 0.0
O98 O 0.95186 0.67955 0.61427 0.0
O99 O 0.01203 0.68759 0.64577 0.0
C100 C 0.18627 0.80293 0.60298 0.0
C101 C 0.1708 0.84318 0.61405 0.0
H102 H 0.12848 0.91519 0.63611 0.0
H103 H 0.05114 0.91446 0.65823 0.0
H104 H 0.15051 0.65662 0.58794 0.0
H105 H 0.2033 0.72043 0.58254 0.0
H106 H 0.21884 0.80181 0.59165 0.0
H107 H 0.19175 0.87241 0.61111 0.0
Mn108 Mn 0.74614 0.05677 0.40529 0.0
Mn109 Mn 0.7016 0.15678 0.40169 0.0
C110 C 0.7795 0.11397 0.4321 0.0
C111 C 0.74747 0.98885 0.4301 0.0
C112 C 0.7592 0.11903 0.3503 0.0
O113 O 0.68393 0.0446 0.38717 0.0
O114 O 0.65492 0.11173 0.38999 0.0
C115 C 0.63616 0.14684 0.45328 0.0
N116 N 0.67213 0.16841 0.44016 0.0
C117 C 0.67865 0.21731 0.48371 0.0
C118 C 0.64139 0.19589 0.49753 0.0
C119 C 0.6201 0.16047 0.48225 0.0
C120 C 0.69294 0.20246 0.4547 0.0
H121 H 0.61998 0.1193 0.44181 0.0
C122 C 0.65139 0.0707 0.38423 0.0
O123 O 0.76264 0.99371 0.40195 0.0
O124 O 0.73015 0.0227 0.4429 0.0
N125 N 0.74283 0.20329 0.413 0.0
C126 C 0.77874 0.22007 0.39676 0.0
C127 C 0.804 0.25545 0.40903 0.0
C128 C 0.79196 0.27336 0.43775 0.0
C129 C 0.75438 0.25608 0.45377 0.0
C130 C 0.73012 0.22118 0.44019 0.0
H131 H 0.7883 0.20638 0.37472 0.0
O132 O 0.80195 0.07924 0.42614 0.0
O133 O 0.73781 0.11369 0.42285 0.0
O134 O 0.76814 0.0831 0.36388 0.0
O135 O 0.73311 0.14748 0.36183 0.0
C136 C 0.74037 0.27178 0.48283 0.0
C137 C 0.70257 0.25237 0.49781 0.0
H138 H 0.62908 0.20612 0.51997 0.0
H139 H 0.59151 0.14358 0.49286 0.0
H140 H 0.83287 0.2687 0.39647 0.0
H141 H 0.81186 0.3003 0.44732 0.0
H142 H 0.75865 0.29855 0.49398 0.0
H143 H 0.69236 0.26449 0.52027 0.0
Mn144 Mn 0.95986 0.25219 0.10248 0.0
Mn145 Mn 0.04713 0.25205 0.15234 0.0
C146 C 0.03298 0.25015 0.08407 0.0
C147 C 0.90691 0.21291 0.07285 0.0
C148 C 0.99663 0.33382 0.13579 0.0
O149 O 0.9295 0.23534 0.14315 0.0
O150 O 0.99026 0.23416 0.17454 0.0
C151 C 0.04853 0.15714 0.1653 0.0
N152 N 0.06979 0.19429 0.15486 0.0
C153 C 0.13702 0.15528 0.14293 0.0
C154 C 0.11595 0.11671 0.15379 0.0
C155 C 0.07151 0.11766 0.16501 0.0
C156 C 0.11265 0.19378 0.14416 0.0
H157 H 0.01423 0.15756 0.17368 0.0
C158 C 0.94776 0.2287 0.16949 0.0
O159 O 0.90069 0.25361 0.07986 0.0
O160 O 0.94244 0.19518 0.08418 0.0
N161 N 0.10381 0.26753 0.13342 0.0
C162 C 0.11811 0.30682 0.12167 0.0
C163 C 0.16131 0.311 0.10847 0.0
C164 C 0.18931 0.27477 0.10742 0.0
C165 C 0.17387 0.23467 0.11964 0.0
C166 C 0.13068 0.23257 0.13282 0.0
H167 H 0.09654 0.33462 0.12199 0.0
O168 O 0.00081 0.26409 0.06661 0.0
O169 O 0.02118 0.23799 0.11188 0.0
O170 O 0.96838 0.3155 0.11723 0.0
O171 O 0.02691 0.31302 0.15034 0.0
C172 C 0.19925 0.19647 0.1186 0.0
C173 C 0.18086 0.15682 0.13026 0.0
H174 H 0.1334 0.08609 0.15331 0.0
H175 H 0.05491 0.08797 0.17324 0.0
H176 H 0.17287 0.34199 0.0989 0.0
H177 H 0.22242 0.278 0.0969 0.0
H178 H 0.23272 0.19709 0.10851 0.0
H179 H 0.20048 0.12755 0.12897 0.0
Mn180 Mn 0.25379 0.0486 0.89742 0.0
Mn181 Mn 0.24304 0.96703 0.8455 0.0
C182 C 0.24783 0.97701 0.91407 0.0
C183 C 0.21992 0.09896 0.92995 0.0
C184 C 0.33251 0.01271 0.86007 0.0
O185 O 0.23497 0.08052 0.85847 0.0
O186 O 0.22852 0.02382 0.82532 0.0
C187 C 0.14427 0.96993 0.83575 0.0
N188 N 0.18126 0.94745 0.84439 0.0
C189 C 0.13564 0.88332 0.85591 0.0
C190 C 0.09712 0.9057 0.84692 0.0
C191 C 0.10148 0.9492 0.83681 0.0
C192 C 0.17747 0.9055 0.85401 0.0
H193 H 0.14733 0.00348 0.82819 0.0
C194 C 0.22592 0.06462 0.83177 0.0
O195 O 0.2617 0.10461 0.92126 0.0
O196 O 0.19804 0.06546 0.9187 0.0
N197 N 0.25501 0.91064 0.86232 0.0
C198 C 0.295 0.89461 0.87212 0.0
C199 C 0.29621 0.85195 0.88395 0.0
C200 C 0.25634 0.82625 0.8856 0.0
C201 C 0.2156 0.84341 0.87533 0.0
C202 C 0.21653 0.88599 0.86346 0.0
H203 H 0.32565 0.91439 0.8713 0.0
O204 O 0.26623 0.00688 0.93161 0.0
O205 O 0.23368 0.99011 0.88715 0.0
O206 O 0.31714 0.03995 0.8796 0.0
O207 O 0.30771 0.98428 0.84597 0.0
C208 C 0.17396 0.82027 0.87703 0.0
C209 C 0.13402 0.8402 0.86731 0.0
H210 H 0.064 0.88996 0.84797 0.0
H211 H 0.07188 0.96677 0.83 0.0
H212 H 0.32775 0.83903 0.89199 0.0
H213 H 0.25734 0.79352 0.89505 0.0
H214 H 0.1722 0.78732 0.88615 0.0
H215 H 0.10213 0.82226 0.86908 0.0
Mn216 Mn 0.03993 0.74328 0.09679 0.0
Mn217 Mn 0.95233 0.74478 0.14638 0.0
C218 C 0.96682 0.74337 0.0782 0.0
C219 C 0.09227 0.78189 0.06616 0.0
C220 C 0.00407 0.66292 0.13209 0.0
O221 O 0.06986 0.76264 0.13708 0.0
O222 O 0.00883 0.76441 0.16824 0.0
C223 C 0.94966 0.84022 0.15688 0.0
N224 N 0.92892 0.80233 0.14734 0.0
C225 C 0.86133 0.83993 0.13409 0.0
C226 C 0.88185 0.87926 0.144 0.0
C227 C 0.92621 0.87939 0.15544 0.0
C228 C 0.88615 0.8018 0.13645 0.0
H229 H 0.98389 0.84062 0.16541 0.0
C230 C 0.05129 0.77025 0.16319 0.0
O231 O 0.09922 0.7417 0.07424 0.0
O232 O 0.05644 0.79957 0.07705 0.0
N233 N 0.89596 0.72768 0.12771 0.0
C234 C 0.88221 0.68766 0.11697 0.0
C235 C 0.83916 0.68232 0.10372 0.0
C236 C 0.81074 0.71814 0.10158 0.0
C237 C 0.82561 0.75901 0.11278 0.0
C238 C 0.86868 0.76227 0.12607 0.0
H239 H 0.90411 0.66015 0.11812 0.0
O240 O 0.99926 0.72898 0.06118 0.0
O241 O 0.97836 0.75706 0.10569 0.0
O242 O 0.03227 0.68064 0.11317 0.0
O243 O 0.97339 0.68405 0.14598 0.0
C244 C 0.7998 0.79683 0.11061 0.0
C245 C 0.81762 0.83725 0.12128 0.0
H246 H 0.86405 0.90962 0.14264 0.0
H247 H 0.94239 0.90966 0.16295 0.0
H248 H 0.82804 0.65073 0.09494 0.0
H249 H 0.77776 0.714 0.09102 0.0
H250 H 0.76642 0.79531 0.10039 0.0
H251 H 0.79767 0.86621 0.11912 0.0
Mn252 Mn 0.74743 0.95033 0.89639 0.0
Mn253 Mn 0.7603 0.03802 0.84993 0.0
C254 C 0.75409 0.01952 0.91762 0.0
C255 C 0.78093 0.89555 0.92516 0.0
C256 C 0.67014 0.99067 0.86055 0.0
O257 O 0.76548 0.92332 0.85532 0.0
O258 O 0.77753 0.98428 0.82683 0.0
C259 C 0.85973 0.03805 0.84316 0.0
N260 N 0.82165 0.05887 0.8517 0.0
C261 C 0.86501 0.12219 0.86826 0.0
C262 C 0.90461 0.10164 0.85923 0.0
C263 C 0.90194 0.05936 0.84667 0.0
C264 C 0.82383 0.09958 0.86381 0.0
H265 H 0.85799 0.0053 0.83394 0.0
C266 C 0.77793 0.94264 0.83039 0.0
O267 O 0.73895 0.89158 0.91657 0.0
O268 O 0.80311 0.93013 0.916 0.0
N269 N 0.74601 0.09178 0.86991 0.0
C270 C 0.70514 0.10562 0.87981 0.0
C271 C 0.70221 0.14658 0.89415 0.0
C272 C 0.7413 0.17285 0.89826 0.0
C273 C 0.78299 0.15793 0.88791 0.0
C274 C 0.78376 0.11704 0.87342 0.0
H275 H 0.67507 0.08535 0.87717 0.0
O276 O 0.73573 0.98764 0.93334 0.0
O277 O 0.76807 0.00967 0.88998 0.0
O278 O 0.68444 0.96211 0.87949 0.0
O279 O 0.69579 0.01962 0.84765 0.0
C280 C 0.82394 0.18158 0.89211 0.0
C281 C 0.86491 0.16374 0.88228 0.0
H282 H 0.93728 0.11778 0.86222 0.0
H283 H 0.93239 0.0431 0.83993 0.0
H284 H 0.66995 0.15773 0.90227 0.0
H285 H 0.73898 0.20419 0.9097 0.0
H286 H 0.82438 0.21323 0.90331 0.0
H287 H 0.89625 0.18195 0.88606 0.0
H288 H 0.92012 0.6003 0.61364 0.0
H289 H 0.04926 0.61821 0.65923 0.0
H290 H 0.92889 0.52107 0.61553 0.0
H291 H 0.05805 0.53949 0.66034 0.0
H292 H 0.07666 0.40105 0.61479 0.0
H293 H 0.0673 0.48022 0.61676 0.0
H294 H 0.9361 0.46066 0.65856 0.0
H295 H 0.94552 0.38202 0.65744 0.0
C296 C 0.95013 0.5875 0.62425 0.0
C297 C 0.98397 0.61585 0.63618 0.0
C298 C 0.95513 0.54215 0.6253 0.0
C299 C 0.99438 0.52429 0.63781 0.0
C300 C 0.02774 0.55245 0.65023 0.0
C301 C 0.02242 0.59761 0.64973 0.0
C302 C 0.04601 0.4136 0.62466 0.0
C303 C 0.01188 0.38497 0.63586 0.0
C304 C 0.04068 0.45889 0.6258 0.0
C305 C 0.00081 0.47643 0.6376 0.0
C306 C 0.96695 0.44797 0.64905 0.0
C307 C 0.97259 0.40286 0.64851 0.0
H308 H 0.56974 0.10899 0.39075 0.0
H309 H 0.63075 0.99019 0.35952 0.0
H310 H 0.4954 0.07539 0.38406 0.0
H311 H 0.55607 0.95707 0.35146 0.0
H312 H 0.42309 0.89483 0.38773 0.0
H313 H 0.49759 0.92868 0.38303 0.0
H314 H 0.43823 0.04792 0.35095 0.0
H315 H 0.36326 0.01448 0.35699 0.0
C316 C 0.56731 0.07598 0.38179 0.0
C317 C 0.60629 0.05212 0.37605 0.0
C318 C 0.5245 0.05673 0.37772 0.0
C319 C 0.51953 0.01329 0.36743 0.0
C320 C 0.55856 0.99024 0.36009 0.0
C321 C 0.60143 0.00932 0.36454 0.0
C322 C 0.42583 0.9281 0.37928 0.0
C323 C 0.38708 0.95208 0.3731 0.0
C324 C 0.46876 0.94751 0.37638 0.0
C325 C 0.47412 0.99125 0.36682 0.0
C326 C 0.43541 0.01449 0.35902 0.0
C327 C 0.39238 0.99522 0.36231 0.0
H328 H 0.93037 0.3897 0.11847 0.0
H329 H 0.06275 0.38742 0.16046 0.0
H330 H 0.933 0.46945 0.1205 0.0
H331 H 0.06535 0.46702 0.16197 0.0
H332 H 0.07054 0.60659 0.11576 0.0
H333 H 0.06827 0.52694 0.11958 0.0
H334 H 0.93641 0.53072 0.16173 0.0
H335 H 0.93865 0.61017 0.15844 0.0
C336 C 0.95988 0.40609 0.12829 0.0
C337 C 0.9964 0.38204 0.13917 0.0
C338 C 0.96128 0.45174 0.12954 0.0
C339 C -0.00051 0.47433 0.14125 0.0
C340 C 0.03567 0.4504 0.15258 0.0
C341 C 0.03399 0.40477 0.15182 0.0
C342 C 0.04124 0.59052 0.12613 0.0
C343 C 0.00472 0.6149 0.13665 0.0
C344 C 0.04004 0.54493 0.12839 0.0
C345 C 0.00204 0.52274 0.14079 0.0
C346 C 0.96592 0.54702 0.15182 0.0
C347 C 0.9674 0.59258 0.15003 0.0
H348 H 0.38031 0.94874 0.83175 0.0
H349 H 0.39707 0.07394 0.87725 0.0
H350 H 0.46198 0.94318 0.82818 0.0
H351 H 0.47895 0.06833 0.87319 0.0
H352 H 0.62329 0.05752 0.83479 0.0
H353 H 0.5416 0.06401 0.83125 0.0
H354 H 0.52335 0.93496 0.87018 0.0
H355 H 0.60502 0.92845 0.87427 0.0
C356 C 0.40128 0.97535 0.84068 0.0
C357 C 0.382 0.01169 0.85504 0.0
C358 C 0.44809 0.97199 0.83871 0.0
C359 C 0.47669 0.00519 0.85053 0.0
C360 C 0.45759 0.04235 0.86373 0.0
C361 C 0.41072 0.04545 0.86617 0.0
C362 C 0.60199 0.0303 0.84236 0.0
C363 C 0.62082 0.99255 0.85507 0.0
C364 C 0.5552 0.03419 0.84044 0.0
C365 C 0.52626 0.00011 0.85058 0.0
C366 C 0.54496 0.96166 0.86205 0.0
C367 C 0.59173 0.95803 0.86448 0.0
H368 H 0.2792 0.03335 0.4814 0.0
H369 H 0.19392 0.08601 0.41011 0.0
H370 H 0.25691 0.0908 0.51673 0.0
H371 H 0.17164 0.14399 0.44583 0.0
H372 H 0.15729 0.25418 0.51971 0.0
H373 H 0.19872 0.21022 0.48185 0.0
H374 H 0.17762 0.09636 0.53962 0.0
H375 H 0.13588 0.13964 0.57665 0.0
C376 C 0.25641 0.05775 0.473 0.0
C377 C 0.23775 0.05469 0.44307 0.0
C378 C 0.24368 0.09067 0.49331 0.0
C379 C 0.21215 0.1215 0.48416 0.0
C380 C 0.19618 0.12071 0.45343 0.0
C381 C 0.20883 0.08747 0.43302 0.0
C382 C 0.16256 0.21998 0.52451 0.0
C383 C 0.14363 0.20022 0.55109 0.0
C384 C 0.18583 0.19484 0.50279 0.0
C385 C 0.19143 0.14993 0.50784 0.0
C386 C 0.17431 0.13096 0.53523 0.0
C387 C 0.15034 0.1557 0.55642 0.0
H388 H 0.1361 0.83993 0.41855 0.0
H389 H 0.24359 0.86969 0.48316 0.0
H390 H 0.09714 0.79571 0.45823 0.0
H391 H 0.20378 0.82662 0.52333 0.0
H392 H 0.0541 0.82564 0.57704 0.0
H393 H 0.11448 0.85089 0.54231 0.0
H394 H 0.11543 0.72388 0.49918 0.0
H395 H 0.0566 0.69772 0.53545 0.0
C396 C 0.15179 0.83594 0.44103 0.0
C397 C 0.19312 0.85697 0.44779 0.0
C398 C 0.12975 0.81066 0.46358 0.0
C399 C 0.14796 0.80758 0.49351 0.0
C400 C 0.18966 0.82814 0.5002 0.0
C401 C 0.21227 0.85256 0.47735 0.0
C402 C 0.06899 0.8025 0.56133 0.0
C403 C 0.05231 0.75933 0.55971 0.0
C404 C 0.10317 0.81699 0.54134 0.0
C405 C 0.11973 0.78902 0.51852 0.0
C406 C 0.1035 0.74564 0.51702 0.0
C407 C 0.06999 0.73084 0.53759 0.0
H408 H 0.71536 0.97153 0.48794 0.0
H409 H 0.79564 0.91622 0.41488 0.0
H410 H 0.73867 0.91432 0.52315 0.0
H411 H 0.81875 0.85839 0.45046 0.0
H412 H 0.86337 0.86386 0.57946 0.0
H413 H 0.82026 0.90764 0.54346 0.0
H414 H 0.79089 0.79308 0.48799 0.0
H415 H 0.83359 0.74865 0.52484 0.0
C416 C 0.73719 0.94658 0.47913 0.0
C417 C 0.75422 0.94883 0.4487 0.0
C418 C 0.7505 0.91381 0.49938 0.0
C419 C 0.78085 0.88224 0.48964 0.0
C420 C 0.79511 0.88226 0.45851 0.0
C421 C 0.78199 0.9154 0.43819 0.0
C422 C 0.84677 0.84779 0.56001 0.0
C423 C 0.8515 0.80291 0.555 0.0
C424 C 0.82206 0.87282 0.53941 0.0
C425 C 0.80226 0.85374 0.51292 0.0
C426 C 0.80587 0.80853 0.50825 0.0
C427 C 0.82986 0.78313 0.52941 0.0
H428 H 0.85588 0.16279 0.42525 0.0
H429 H 0.74739 0.13303 0.48914 0.0
H430 H 0.89488 0.20587 0.46544 0.0
H431 H 0.78737 0.17485 0.5299 0.0
H432 H 0.94099 0.17371 0.58168 0.0
H433 H 0.87873 0.14924 0.54819 0.0
H434 H 0.87477 0.27757 0.50728 0.0
H435 H 0.93549 0.30281 0.54221 0.0
C436 C 0.83998 0.16657 0.44769 0.0
C437 C 0.79836 0.14586 0.45408 0.0
C438 C 0.86207 0.19116 0.47054 0.0
C439 C 0.84365 0.19382 0.50045 0.0
C440 C 0.80166 0.17362 0.5068 0.0
C441 C 0.77894 0.14994 0.48361 0.0
C442 C 0.92502 0.19726 0.56684 0.0
C443 C 0.94162 0.24047 0.56528 0.0
C444 C 0.88974 0.18324 0.54757 0.0
C445 C 0.87192 0.21182 0.5256 0.0
C446 C 0.88768 0.25534 0.52449 0.0
C447 C 0.92229 0.26962 0.5443 0.0
H448 H 0.8404 0.04896 0.91937 0.0
H449 H 0.70821 0.07305 0.95633 0.0
H450 H 0.8736 0.10209 0.95537 0.0
H451 H 0.74169 0.12608 0.99312 0.0
H452 H 0.9157 0.12873 0.05542 0.0
H453 H 0.87578 0.08936 0.01467 0.0
H454 H 0.7928 0.20065 0.99833 0.0
H455 H 0.83356 0.24107 0.03954 0.0
C456 C 0.8183 0.06692 0.93445 0.0
C457 C 0.77172 0.05788 0.93464 0.0
C458 C 0.8373 0.0969 0.95529 0.0
C459 C 0.81018 0.11787 0.97713 0.0
C460 C 0.76322 0.11058 0.97632 0.0
C461 C 0.74416 0.08029 0.95543 0.0
C462 C 0.8888 0.14499 0.04342 0.0
C463 C 0.87804 0.18822 0.05061 0.0
C464 C 0.86615 0.12244 0.01988 0.0
C465 C 0.83187 0.1423 0.00299 0.0
C466 C 0.81938 0.18481 0.01096 0.0
C467 C 0.84256 0.20778 0.03452 0.0
H468 H 0.25437 0.17285 0.95935 0.0
H469 H 0.13659 0.08678 0.95441 0.0
H470 H 0.21836 0.21372 1.0015 0.0
H471 H 0.1017 0.12673 0.99601 0.0
H472 H 0.06609 0.16937 0.0885 0.0
H473 H 0.12068 0.13639 0.05408 0.0
H474 H 0.14202 0.26004 0.00761 0.0
H475 H 0.08797 0.29353 0.04305 0.0
C476 C 0.22092 0.16282 0.96709 0.0
C477 C 0.1984 0.12652 0.95361 0.0
C478 C 0.20048 0.18606 0.99118 0.0
C479 C 0.15772 0.17273 0.00235 0.0
C480 C 0.13512 0.1371 0.98834 0.0
C481 C 0.15505 0.11444 0.96426 0.0
C482 C 0.08416 0.19004 0.07204 0.0
C483 C 0.07374 0.23416 0.06885 0.0
C484 C 0.11496 0.17106 0.05207 0.0
C485 C 0.13515 0.19563 0.02803 0.0
C486 C 0.12716 0.24053 0.02612 0.0
C487 C 0.09624 0.2596 0.04625 0.0
H488 H 0.081 0.86445 0.04591 0.0
H489 H 0.16721 0.75401 0.03432 0.0
H490 H 0.12115 0.90297 0.00492 0.0
H491 H 0.20818 0.79356 0.99276 0.0
H492 H 0.29247 0.92115 0.95167 0.0
H493 H 0.25768 0.86685 0.98686 0.0
H494 H 0.1274 0.89134 0.9467 0.0
H495 H 0.16184 0.94613 0.91256 0.0
C496 C 0.10877 0.84838 0.03473 0.0
C497 C 0.12074 0.80599 0.04332 0.0
C498 C 0.13153 0.87041 0.01099 0.0
C499 C 0.16712 0.85088 0.99522 0.0
C500 C 0.18056 0.80914 0.00444 0.0
C501 C 0.15727 0.78667 0.02823 0.0
C502 C 0.25665 0.91368 0.9498 0.0
C503 C 0.22989 0.93699 0.92901 0.0
C504 C 0.23682 0.88264 0.96981 0.0
C505 C 0.18984 0.87527 0.96966 0.0
C506 C 0.16367 0.89663 0.94744 0.0
C507 C 0.18343 0.92753 0.92757 0.0
H508 H 0.86851 0.89671 0.94246 0.0
H509 H 0.74214 0.82599 0.95729 0.0
H510 H 0.90321 0.85499 0.98336 0.0
H511 H 0.778 0.78322 0.99858 0.0
H512 H 0.93365 0.82419 0.0805 0.0
H513 H 0.87937 0.85543 0.04499 0.0
H514 H 0.85801 0.72958 1.00178 0.0
H515 H 0.91207 0.69782 0.03816 0.0
C516 C 0.84817 0.87187 0.9542 0.0
C517 C 0.80239 0.86498 0.94683 0.0
C518 C 0.8681 0.84814 0.97773 0.0
C519 C 0.84295 0.81664 0.99437 0.0
C520 C 0.79782 0.80769 0.98609 0.0
C521 C 0.7775 0.83197 0.96249 0.0
C522 C 0.91562 0.80269 0.06455 0.0
C523 C 0.92609 0.75844 0.06249 0.0
C524 C 0.88494 0.82063 0.04405 0.0
C525 C 0.86479 0.79483 0.02071 0.0
C526 C 0.87282 0.7499 0.01986 0.0
C527 C 0.90371 0.73187 0.0405 0.0
H528 H 0.15376 0.20435 0.66245 0.0
H529 H 0.04635 0.22569 0.72813 0.0
H530 H 0.1963 0.16714 0.70253 0.0
H531 H 0.08912 0.18852 0.76812 0.0
H532 H 0.19497 0.14759 0.83894 0.0
H533 H 0.16108 0.19382 0.79963 0.0
H534 H 0.1837 0.09519 0.73029 0.0
H535 H 0.21749 0.0488 0.76945 0.0
C536 C 0.13949 0.20182 0.68553 0.0
C537 C 0.09646 0.21795 0.69198 0.0
C538 C 0.16379 0.18018 0.70842 0.0
C539 C 0.14594 0.17466 0.73841 0.0
C540 C 0.1039 0.19251 0.74528 0.0
C541 C 0.07933 0.21368 0.7223 0.0
C542 C 0.19324 0.1359 0.81525 0.0
C543 C 0.20891 0.09433 0.80742 0.0
C544 C 0.17357 0.16234 0.79279 0.0
C545 C 0.16966 0.14813 0.7619 0.0
C546 C 0.18661 0.10723 0.75384 0.0
C547 C 0.20576 0.08055 0.77635 0.0
H548 H 0.02377 0.8025 0.2192 0.0
H549 H 0.14366 0.77993 0.16502 0.0
H550 H 0.07028 0.8336 0.26062 0.0
H551 H 0.19006 0.81151 0.20647 0.0
H552 H 0.16254 0.92353 0.31737 0.0
H553 H 0.11957 0.89801 0.27225 0.0
H554 H 0.21214 0.79299 0.25984 0.0
H555 H 0.25532 0.81855 0.30456 0.0
C556 C 0.06003 0.80408 0.21607 0.0
C557 C 0.07987 0.7884 0.18873 0.0
C558 C 0.08667 0.82237 0.23975 0.0
C559 C 0.13389 0.82524 0.23682 0.0
C560 C 0.15381 0.80951 0.20955 0.0
C561 C 0.12714 0.79148 0.18575 0.0
C562 C 0.1742 0.89544 0.30473 0.0
C563 C 0.21239 0.87308 0.31475 0.0
C564 C 0.1493 0.88057 0.27904 0.0
C565 C 0.1622 0.84323 0.2626 0.0
C566 C 0.20142 0.822 0.27183 0.0
C567 C 0.2261 0.83664 0.2976 0.0
H568 H 0.84673 0.76608 0.67793 0.0
H569 H 0.97242 0.82048 0.71359 0.0
H570 H 0.80539 0.80621 0.71756 0.0
H571 H 0.93088 0.86114 0.75236 0.0
H572 H 0.83349 0.96997 0.78319 0.0
H573 H 0.87098 0.92512 0.74472 0.0
H574 H 0.80314 0.80987 0.78118 0.0
H575 H 0.76624 0.85449 0.82046 0.0
C576 C 0.86558 0.78624 0.69429 0.0
C577 C 0.91295 0.79011 0.69244 0.0
C578 C 0.84187 0.80914 0.71694 0.0
C579 C 0.86499 0.83704 0.73772 0.0
C580 C 0.91227 0.84015 0.73638 0.0
C581 C 0.93601 0.81662 0.71424 0.0
C582 C 0.8262 0.93514 0.78297 0.0
C583 C 0.79699 0.91584 0.80508 0.0
C584 C 0.84789 0.90948 0.76102 0.0
C585 C 0.84013 0.86408 0.76018 0.0
C586 C 0.80964 0.84483 0.78138 0.0
C587 C 0.78864 0.87039 0.80385 0.0
H588 H 0.74114 0.18576 0.31033 0.0
H589 H 0.83209 0.0795 0.32407 0.0
H590 H 0.78563 0.21075 0.26601 0.0
H591 H 0.87639 0.10448 0.27938 0.0
H592 H 0.97425 0.19774 0.22614 0.0
H593 H 0.92682 0.16832 0.26774 0.0
H594 H 0.808 0.19112 0.21281 0.0
H595 H 0.85529 0.22096 0.17119 0.0
C596 C 0.77026 0.1673 0.30368 0.0
C597 C 0.78302 0.13061 0.32094 0.0
C598 C 0.7957 0.18161 0.27814 0.0
C599 C 0.83476 0.15982 0.26928 0.0
C600 C 0.8468 0.12234 0.28588 0.0
C601 C 0.82113 0.10778 0.31133 0.0
C602 C 0.93801 0.19671 0.22289 0.0
C603 C 0.9187 0.21199 0.19526 0.0
C604 C 0.91084 0.17939 0.24667 0.0
C605 C 0.86363 0.17715 0.24355 0.0
C606 C 0.84424 0.19264 0.21604 0.0
C607 C 0.87143 0.20968 0.19214 0.0
loop_
_geom_bond_atom_site_label_1
_geom_bond_atom_site_label_2
_geom_bond_distance
_geom_bond_site_symmetry_2
_ccdc_geom_bond_type
Mn0 O5 2.095 . S
Mn0 O15 2.162 . S
Mn0 O16 2.297 . S
Mn0 O24 2.385 . S
Mn0 O25 2.209 . S
Mn0 O26 2.094 . S
Mn1 O6 2.121 . S
Mn1 N8 2.257 1_455 S
Mn1 N17 2.282 1_455 S
Mn1 O25 2.215 . S
Mn1 O27 2.117 . S
C2 O24 1.234 . S
C2 O25 1.283 . S
C3 O15 1.281 . S
C3 O16 1.236 . S
C4 O26 1.240 . S
C4 O27 1.264 . S
O5 Mn0 2.095 . S
O5 C14 1.250 . S
O6 Mn1 2.121 . S
O6 C14 1.258 . S
C7 N8 1.326 . S
C7 C11 1.460 . S
C7 H13 0.929 . S
N8 Mn1 2.257 1_655 S
N8 C7 1.326 . S
N8 C12 1.362 . S
C9 C10 1.258 . S
C9 C12 1.431 . S
C9 C29 1.449 . S
C10 C9 1.258 . S
C10 C11 1.477 . S
C10 H30 0.931 . S
C11 C7 1.460 . S
C11 C10 1.477 . S
C11 H31 0.930 . S
C12 N8 1.362 . S
C12 C9 1.431 . S
C12 C22 1.476 . S
H13 C7 0.929 . S
C14 O5 1.250 . S
C14 O6 1.258 . S
O15 Mn0 2.162 . S
O15 C3 1.281 . S
O16 Mn0 2.297 . S
O16 C3 1.236 . S
N17 Mn1 2.282 1_655 S
N17 C18 1.328 . S
N17 C22 1.318 . S
C18 N17 1.328 . S
C18 C19 1.457 . S
C18 H23 0.929 . S
C19 C18 1.457 . S
C19 C20 1.291 . S
C19 H32 0.931 . S
C20 C19 1.291 . S
C20 C21 1.373 . S
C20 H33 0.929 . S
C21 C20 1.373 . S
C21 C22 1.396 . S
C21 C28 1.403 . S
C22 C12 1.476 . S
C22 N17 1.318 . S
C22 C21 1.396 . S
H23 C18 0.929 . S
O24 Mn0 2.385 . S
O24 C2 1.234 . S
O25 Mn0 2.209 . S
O25 Mn1 2.215 . S
O25 C2 1.283 . S
O26 Mn0 2.094 . S
O26 C4 1.240 . S
O27 Mn1 2.117 . S
O27 C4 1.264 . S
C28 C21 1.403 . S
C28 C29 1.399 . S
C28 H34 0.929 . S
C29 C9 1.449 . S
C29 C28 1.399 . S
C29 H35 0.930 . S
H30 C10 0.931 . S
H31 C11 0.930 . S
H32 C19 0.931 . S
H33 C20 0.929 . S
H34 C28 0.929 . S
H35 C29 0.930 . S
Mn36 O41 2.095 . S
Mn36 O51 2.162 . S
Mn36 O52 2.297 . S
Mn36 O60 2.385 . S
Mn36 O61 2.209 . S
Mn36 O62 2.094 . S
Mn37 O42 2.121 . S
Mn37 N44 2.257 . S
Mn37 N53 2.282 . S
Mn37 O61 2.215 . S
Mn37 O63 2.117 . S
C38 O60 1.234 . S
C38 O61 1.283 . S
C39 O51 1.281 . S
C39 O52 1.236 . S
C40 O62 1.240 . S
C40 O63 1.264 . S
O41 Mn36 2.095 . S
O41 C50 1.250 . S
O42 Mn37 2.121 . S
O42 C50 1.258 . S
C43 N44 1.326 . S
C43 C47 1.460 . S
C43 H49 0.929 . S
N44 Mn37 2.257 . S
N44 C43 1.326 . S
N44 C48 1.362 . S
C45 C46 1.258 . S
C45 C48 1.431 . S
C45 C65 1.449 . S
C46 C45 1.258 . S
C46 C47 1.477 . S
C46 H66 0.931 . S
C47 C43 1.460 . S
C47 C46 1.477 . S
C47 H67 0.930 . S
C48 N44 1.362 . S
C48 C45 1.431 . S
C48 C58 1.476 . S
H49 C43 0.929 . S
C50 O41 1.250 . S
C50 O42 1.258 . S
O51 Mn36 2.162 . S
O51 C39 1.281 . S
O52 Mn36 2.297 . S
O52 C39 1.236 . S
N53 Mn37 2.282 . S
N53 C54 1.328 . S
N53 C58 1.318 . S
C54 N53 1.328 . S
C54 C55 1.457 . S
C54 H59 0.929 . S
C55 C54 1.457 . S
C55 C56 1.291 . S
C55 H68 0.931 . S
C56 C55 1.291 . S
C56 C57 1.373 . S
C56 H69 0.929 . S
C57 C56 1.373 . S
C57 C58 1.396 . S
C57 C64 1.403 . S
C58 C48 1.476 . S
C58 N53 1.318 . S
C58 C57 1.396 . S
H59 C54 0.929 . S
O60 Mn36 2.385 . S
O60 C38 1.234 . S
O61 Mn36 2.209 . S
O61 Mn37 2.215 . S
O61 C38 1.283 . S
O62 Mn36 2.094 . S
O62 C40 1.240 . S
O63 Mn37 2.117 . S
O63 C40 1.264 . S
C64 C57 1.403 . S
C64 C65 1.399 . S
C64 H70 0.929 . S
C65 C45 1.449 . S
C65 C64 1.399 . S
C65 H71 0.930 . S
H66 C46 0.931 . S
H67 C47 0.930 . S
H68 C55 0.931 . S
H69 C56 0.929 . S
H70 C64 0.929 . S
H71 C65 0.930 . S
Mn72 O77 2.095 . S
Mn72 O87 2.162 . S
Mn72 O88 2.297 . S
Mn72 O96 2.385 . S
Mn72 O97 2.209 . S
Mn72 O98 2.094 . S
Mn73 O78 2.121 . S
Mn73 N80 2.257 1_655 S
Mn73 N89 2.282 1_655 S
Mn73 O97 2.215 . S
Mn73 O99 2.117 . S
C74 O96 1.234 . S
C74 O97 1.283 . S
C75 O87 1.281 . S
C75 O88 1.236 . S
C76 O98 1.240 . S
C76 O99 1.264 . S
O77 Mn72 2.095 . S
O77 C86 1.250 . S
O78 Mn73 2.121 . S
O78 C86 1.258 . S
C79 N80 1.326 . S
C79 C83 1.460 . S
C79 H85 0.929 . S
N80 Mn73 2.257 1_455 S
N80 C79 1.326 . S
N80 C84 1.362 . S
C81 C82 1.258 . S
C81 C84 1.431 . S
C81 C101 1.449 . S
C82 C81 1.258 . S
C82 C83 1.477 . S
C82 H102 0.931 . S
C83 C79 1.460 . S
C83 C82 1.477 . S
C83 H103 0.930 . S
C84 N80 1.362 . S
C84 C81 1.431 . S
C84 C94 1.476 . S
H85 C79 0.929 . S
C86 O77 1.250 . S
C86 O78 1.258 . S
O87 Mn72 2.162 . S
O87 C75 1.281 . S
O88 Mn72 2.297 . S
O88 C75 1.236 . S
N89 Mn73 2.282 1_455 S
N89 C90 1.328 . S
N89 C94 1.318 . S
C90 N89 1.328 . S
C90 C91 1.457 . S
C90 H95 0.929 . S
C91 C90 1.457 . S
C91 C92 1.291 . S
C91 H104 0.931 . S
C92 C91 1.291 . S
C92 C93 1.373 . S
C92 H105 0.929 . S
C93 C92 1.373 . S
C93 C94 1.396 . S
C93 C100 1.403 . S
C94 C84 1.476 . S
C94 N89 1.318 . S
C94 C93 1.396 . S
H95 C90 0.929 . S
O96 Mn72 2.385 . S
O96 C74 1.234 . S
O97 Mn72 2.209 . S
O97 Mn73 2.215 . S
O97 C74 1.283 . S
O98 Mn72 2.094 . S
O98 C76 1.240 . S
O99 Mn73 2.117 . S
O99 C76 1.264 . S
C100 C93 1.403 . S
C100 C101 1.399 . S
C100 H106 0.929 . S
C101 C81 1.449 . S
C101 C100 1.399 . S
C101 H107 0.930 . S
H102 C82 0.931 . S
H103 C83 0.930 . S
H104 C91 0.931 . S
H105 C92 0.929 . S
H106 C100 0.929 . S
H107 C101 0.930 . S
Mn108 O113 2.095 . S
Mn108 O123 2.162 . S
Mn108 O124 2.297 . S
Mn108 O132 2.385 . S
Mn108 O133 2.209 . S
Mn108 O134 2.094 . S
Mn109 O114 2.121 . S
Mn109 N116 2.257 . S
Mn109 N125 2.282 . S
Mn109 O133 2.215 . S
Mn109 O135 2.117 . S
C110 O132 1.234 . S
C110 O133 1.283 . S
C111 O123 1.281 . S
C111 O124 1.236 . S
C112 O134 1.240 . S
C112 O135 1.264 . S
O113 Mn108 2.095 . S
O113 C122 1.250 . S
O114 Mn109 2.121 . S
O114 C122 1.258 . S
C115 N116 1.326 . S
C115 C119 1.460 . S
C115 H121 0.929 . S
N116 Mn109 2.257 . S
N116 C115 1.326 . S
N116 C120 1.362 . S
C117 C118 1.258 . S
C117 C120 1.431 . S
C117 C137 1.449 . S
C118 C117 1.258 . S
C118 C119 1.477 . S
C118 H138 0.931 . S
C119 C115 1.460 . S
C119 C118 1.477 . S
C119 H139 0.930 . S
C120 N116 1.362 . S
C120 C117 1.431 . S
C120 C130 1.476 . S
H121 C115 0.929 . S
C122 O113 1.250 . S
C122 O114 1.258 . S
O123 Mn108 2.162 . S
O123 C111 1.281 . S
O124 Mn108 2.297 . S
O124 C111 1.236 . S
N125 Mn109 2.282 . S
N125 C126 1.328 . S
N125 C130 1.318 . S
C126 N125 1.328 . S
C126 C127 1.457 . S
C126 H131 0.929 . S
C127 C126 1.457 . S
C127 C128 1.291 . S
C127 H140 0.931 . S
C128 C127 1.291 . S
C128 C129 1.373 . S
C128 H141 0.929 . S
C129 C128 1.373 . S
C129 C130 1.396 . S
C129 C136 1.403 . S
C130 C120 1.476 . S
C130 N125 1.318 . S
C130 C129 1.396 . S
H131 C126 0.929 . S
O132 Mn108 2.385 . S
O132 C110 1.234 . S
O133 Mn108 2.209 . S
O133 Mn109 2.215 . S
O133 C110 1.283 . S
O134 Mn108 2.094 . S
O134 C112 1.240 . S
O135 Mn109 2.117 . S
O135 C112 1.264 . S
C136 C129 1.403 . S
C136 C137 1.399 . S
C136 H142 0.929 . S
C137 C117 1.449 . S
C137 C136 1.399 . S
C137 H143 0.930 . S
H138 C118 0.931 . S
H139 C119 0.930 . S
H140 C127 0.931 . S
H141 C128 0.929 . S
H142 C136 0.929 . S
H143 C137 0.930 . S
Mn144 O149 2.095 . S
Mn144 O159 2.162 . S
Mn144 O160 2.297 . S
Mn144 O168 2.385 . S
Mn144 O169 2.209 . S
Mn144 O170 2.094 . S
Mn145 O150 2.121 . S
Mn145 N152 2.257 1_655 S
Mn145 N161 2.282 1_655 S
Mn145 O169 2.215 . S
Mn145 O171 2.117 . S
C146 O168 1.234 . S
C146 O169 1.283 . S
C147 O159 1.281 . S
C147 O160 1.236 . S
C148 O170 1.240 . S
C148 O171 1.264 . S
O149 Mn144 2.095 . S
O149 C158 1.250 . S
O150 Mn145 2.121 . S
O150 C158 1.258 . S
C151 N152 1.326 . S
C151 C155 1.460 . S
C151 H157 0.929 1_455 S
N152 Mn145 2.257 1_455 S
N152 C151 1.326 . S
N152 C156 1.362 . S
C153 C154 1.258 . S
C153 C156 1.431 . S
C153 C173 1.449 . S
C154 C153 1.258 . S
C154 C155 1.477 . S
C154 H174 0.931 . S
C155 C151 1.460 . S
C155 C154 1.477 . S
C155 H175 0.930 . S
C156 N152 1.362 . S
C156 C153 1.431 . S
C156 C166 1.476 . S
H157 C151 0.929 1_655 S
C158 O149 1.250 . S
C158 O150 1.258 . S
O159 Mn144 2.162 . S
O159 C147 1.281 . S
O160 Mn144 2.297 . S
O160 C147 1.236 . S
N161 Mn145 2.282 1_455 S
N161 C162 1.328 . S
N161 C166 1.318 . S
C162 N161 1.328 . S
C162 C163 1.457 . S
C162 H167 0.929 . S
C163 C162 1.457 . S
C163 C164 1.291 . S
C163 H176 0.931 . S
C164 C163 1.291 . S
C164 C165 1.373 . S
C164 H177 0.929 . S
C165 C164 1.373 . S
C165 C166 1.396 . S
C165 C172 1.403 . S
C166 C156 1.476 . S
C166 N161 1.318 . S
C166 C165 1.396 . S
H167 C162 0.929 . S
O168 Mn144 2.385 . S
O168 C146 1.234 . S
O169 Mn144 2.209 . S
O169 Mn145 2.215 . S
O169 C146 1.283 . S
O170 Mn144 2.094 . S
O170 C148 1.240 . S
O171 Mn145 2.117 . S
O171 C148 1.264 . S
C172 C165 1.403 . S
C172 C173 1.399 . S
C172 H178 0.929 . S
C173 C153 1.449 . S
C173 C172 1.399 . S
C173 H179 0.930 . S
H174 C154 0.931 . S
H175 C155 0.930 . S
H176 C163 0.931 . S
H177 C164 0.929 . S
H178 C172 0.929 . S
H179 C173 0.930 . S
Mn180 O185 2.095 . S
Mn180 O195 2.162 . S
Mn180 O196 2.297 . S
Mn180 O204 2.385 . S
Mn180 O205 2.209 . S
Mn180 O206 2.094 . S
Mn181 O186 2.121 . S
Mn181 N188 2.257 1_545 S
Mn181 N197 2.282 1_545 S
Mn181 O205 2.215 . S
Mn181 O207 2.117 . S
C182 O204 1.234 . S
C182 O205 1.283 . S
C183 O195 1.281 . S
C183 O196 1.236 . S
C184 O206 1.240 . S
C184 O207 1.264 . S
O185 Mn180 2.095 . S
O185 C194 1.250 . S
O186 Mn181 2.121 . S
O186 C194 1.258 . S
C187 N188 1.326 . S
C187 C191 1.460 . S
C187 H193 0.929 1_565 S
N188 Mn181 2.257 1_565 S
N188 C187 1.326 . S
N188 C192 1.362 . S
C189 C190 1.258 . S
C189 C192 1.431 . S
C189 C209 1.449 . S
C190 C189 1.258 . S
C190 C191 1.477 . S
C190 H210 0.931 . S
C191 C187 1.460 . S
C191 C190 1.477 . S
C191 H211 0.930 . S
C192 N188 1.362 . S
C192 C189 1.431 . S
C192 C202 1.476 . S
H193 C187 0.929 1_545 S
C194 O185 1.250 . S
C194 O186 1.258 . S
O195 Mn180 2.162 . S
O195 C183 1.281 . S
O196 Mn180 2.297 . S
O196 C183 1.236 . S
N197 Mn181 2.282 1_565 S
N197 C198 1.328 . S
N197 C202 1.318 . S
C198 N197 1.328 . S
C198 C199 1.457 . S
C198 H203 0.929 . S
C199 C198 1.457 . S
C199 C200 1.291 . S
C199 H212 0.931 . S
C200 C199 1.291 . S
C200 C201 1.373 . S
C200 H213 0.929 . S
C201 C200 1.373 . S
C201 C202 1.396 . S
C201 C208 1.403 . S
C202 C192 1.476 . S
C202 N197 1.318 . S
C202 C201 1.396 . S
H203 C198 0.929 . S
O204 Mn180 2.385 . S
O204 C182 1.234 . S
O205 Mn180 2.209 . S
O205 Mn181 2.215 . S
O205 C182 1.283 . S
O206 Mn180 2.094 . S
O206 C184 1.240 . S
O207 Mn181 2.117 . S
O207 C184 1.264 . S
C208 C201 1.403 . S
C208 C209 1.399 . S
C208 H214 0.929 . S
C209 C189 1.449 . S
C209 C208 1.399 . S
C209 H215 0.930 . S
H210 C190 0.931 . S
H211 C191 0.930 . S
H212 C199 0.931 . S
H213 C200 0.929 . S
H214 C208 0.929 . S
H215 C209 0.930 . S
Mn216 O221 2.095 . S
Mn216 O231 2.162 . S
Mn216 O232 2.297 . S
Mn216 O240 2.385 . S
Mn216 O241 2.209 . S
Mn216 O242 2.094 . S
Mn217 O222 2.121 . S
Mn217 N224 2.257 1_455 S
Mn217 N233 2.282 1_455 S
Mn217 O241 2.215 . S
Mn217 O243 2.117 . S
C218 O240 1.234 . S
C218 O241 1.283 . S
C219 O231 1.281 . S
C219 O232 1.236 . S
C220 O242 1.240 . S
C220 O243 1.264 . S
O221 Mn216 2.095 . S
O221 C230 1.250 . S
O222 Mn217 2.121 . S
O222 C230 1.258 . S
C223 N224 1.326 . S
C223 C227 1.460 . S
C223 H229 0.929 1_655 S
N224 Mn217 2.257 1_655 S
N224 C223 1.326 . S
N224 C228 1.362 . S
C225 C226 1.258 . S
C225 C228 1.431 . S
C225 C245 1.449 . S
C226 C225 1.258 . S
C226 C227 1.477 . S
C226 H246 0.931 . S
C227 C223 1.460 . S
C227 C226 1.477 . S
C227 H247 0.930 . S
C228 N224 1.362 . S
C228 C225 1.431 . S
C228 C238 1.476 . S
H229 C223 0.929 1_455 S
C230 O221 1.250 . S
C230 O222 1.258 . S
O231 Mn216 2.162 . S
O231 C219 1.281 . S
O232 Mn216 2.297 . S
O232 C219 1.236 . S
N233 Mn217 2.282 1_655 S
N233 C234 1.328 . S
N233 C238 1.318 . S
C234 N233 1.328 . S
C234 C235 1.457 . S
C234 H239 0.929 . S
C235 C234 1.457 . S
C235 C236 1.291 . S
C235 H248 0.931 . S
C236 C235 1.291 . S
C236 C237 1.373 . S
C236 H249 0.929 . S
C237 C236 1.373 . S
C237 C238 1.396 . S
C237 C244 1.403 . S
C238 C228 1.476 . S
C238 N233 1.318 . S
C238 C237 1.396 . S
H239 C234 0.929 . S
O240 Mn216 2.385 . S
O240 C218 1.234 . S
O241 Mn216 2.209 . S
O241 Mn217 2.215 . S
O241 C218 1.283 . S
O242 Mn216 2.094 . S
O242 C220 1.240 . S
O243 Mn217 2.117 . S
O243 C220 1.264 . S
C244 C237 1.403 . S
C244 C245 1.399 . S
C244 H250 0.929 . S
C245 C225 1.449 . S
C245 C244 1.399 . S
C245 H251 0.930 . S
H246 C226 0.931 . S
H247 C227 0.930 . S
H248 C235 0.931 . S
H249 C236 0.929 . S
H250 C244 0.929 . S
H251 C245 0.930 . S
Mn252 O257 2.095 . S
Mn252 O267 2.162 . S
Mn252 O268 2.297 . S
Mn252 O276 2.385 . S
Mn252 O277 2.209 . S
Mn252 O278 2.094 . S
Mn253 O258 2.121 . S
Mn253 N260 2.257 1_565 S
Mn253 N269 2.282 1_565 S
Mn253 O277 2.215 . S
Mn253 O279 2.117 . S
C254 O276 1.234 . S
C254 O277 1.283 . S
C255 O267 1.281 . S
C255 O268 1.236 . S
C256 O278 1.240 . S
C256 O279 1.264 . S
O257 Mn252 2.095 . S
O257 C266 1.250 . S
O258 Mn253 2.121 . S
O258 C266 1.258 . S
C259 N260 1.326 . S
C259 C263 1.460 . S
C259 H265 0.929 1_545 S
N260 Mn253 2.257 1_545 S
N260 C259 1.326 . S
N260 C264 1.362 . S
C261 C262 1.258 . S
C261 C264 1.431 . S
C261 C281 1.449 . S
C262 C261 1.258 . S
C262 C263 1.477 . S
C262 H282 0.931 . S
C263 C259 1.460 . S
C263 C262 1.477 . S
C263 H283 0.930 . S
C264 N260 1.362 . S
C264 C261 1.431 . S
C264 C274 1.476 . S
H265 C259 0.929 1_565 S
C266 O257 1.250 . S
C266 O258 1.258 . S
O267 Mn252 2.162 . S
O267 C255 1.281 . S
O268 Mn252 2.297 . S
O268 C255 1.236 . S
N269 Mn253 2.282 1_545 S
N269 C270 1.328 . S
N269 C274 1.318 . S
C270 N269 1.328 . S
C270 C271 1.457 . S
C270 H275 0.929 . S
C271 C270 1.457 . S
C271 C272 1.291 . S
C271 H284 0.931 . S
C272 C271 1.291 . S
C272 C273 1.373 . S
C272 H285 0.929 . S
C273 C272 1.373 . S
C273 C274 1.396 . S
C273 C280 1.403 . S
C274 C264 1.476 . S
C274 N269 1.318 . S
C274 C273 1.396 . S
H275 C270 0.929 . S
O276 Mn252 2.385 . S
O276 C254 1.234 . S
O277 Mn252 2.209 . S
O277 Mn253 2.215 . S
O277 C254 1.283 . S
O278 Mn252 2.094 . S
O278 C256 1.240 . S
O279 Mn253 2.117 . S
O279 C256 1.264 . S
C280 C273 1.403 . S
C280 C281 1.399 . S
C280 H286 0.929 . S
C281 C261 1.449 . S
C281 C280 1.399 . S
C281 H287 0.930 . S
H282 C262 0.931 . S
H283 C263 0.930 . S
H284 C271 0.931 . S
H285 C272 0.929 . S
H286 C280 0.929 . S
H287 C281 0.930 . S
H288 C296 0.950 . S
H289 C301 0.950 . S
H290 C298 0.950 . S
H291 C300 0.950 1_455 S
H292 C302 0.950 . S
H293 C304 0.950 . S
H294 C306 0.950 1_655 S
H295 C307 0.950 . S
C296 H288 0.950 . S
C296 C297 1.386 . S
C296 C298 1.391 . S
C297 C296 1.386 . S
C297 C301 1.393 . S
C298 H290 0.950 . S
C298 C296 1.391 . S
C298 C299 1.400 . S
C299 C298 1.400 . S
C299 C300 1.398 . S
C299 C305 1.491 1_655 S
C300 H291 0.950 1_655 S
C300 C299 1.398 . S
C300 C301 1.391 . S
C301 H289 0.950 . S
C301 C297 1.393 . S
C301 C300 1.391 . S
C302 H292 0.950 . S
C302 C303 1.386 . S
C302 C304 1.391 . S
C303 C302 1.386 . S
C303 C307 1.393 . S
C304 H293 0.950 . S
C304 C302 1.391 . S
C304 C305 1.400 . S
C305 C299 1.491 1_455 S
C305 C304 1.400 . S
C305 C306 1.398 . S
C306 H294 0.950 1_455 S
C306 C305 1.398 . S
C306 C307 1.391 . S
C307 H295 0.950 . S
C307 C303 1.393 . S
C307 C306 1.391 . S
H308 C316 0.950 . S
H309 C321 0.950 . S
H310 C318 0.950 . S
H311 C320 0.950 . S
H312 C322 0.950 . S
H313 C324 0.950 . S
H314 C326 0.950 . S
H315 C327 0.950 . S
C316 H308 0.950 . S
C316 C317 1.386 . S
C316 C318 1.391 . S
C317 C316 1.386 . S
C317 C321 1.393 . S
C318 H310 0.950 . S
C318 C316 1.391 . S
C318 C319 1.400 . S
C319 C318 1.400 . S
C319 C320 1.398 1_545 S
C319 C325 1.491 1_545 S
C320 H311 0.950 . S
C320 C319 1.398 1_565 S
C320 C321 1.391 1_565 S
C321 H309 0.950 . S
C321 C317 1.393 . S
C321 C320 1.391 1_545 S
C322 H312 0.950 . S
C322 C323 1.386 . S
C322 C324 1.391 . S
C323 C322 1.386 . S
C323 C327 1.393 . S
C324 H313 0.950 . S
C324 C322 1.391 . S
C324 C325 1.400 . S
C325 C319 1.491 1_565 S
C325 C324 1.400 . S
C325 C326 1.398 1_565 S
C326 H314 0.950 . S
C326 C325 1.398 1_545 S
C326 C327 1.391 1_545 S
C327 H315 0.950 . S
C327 C323 1.393 . S
C327 C326 1.391 1_565 S
H328 C336 0.950 . S
H329 C341 0.950 . S
H330 C338 0.950 . S
H331 C340 0.950 1_455 S
H332 C342 0.950 . S
H333 C344 0.950 . S
H334 C346 0.950 1_655 S
H335 C347 0.950 . S
C336 H328 0.950 . S
C336 C337 1.386 . S
C336 C338 1.391 . S
C337 C336 1.386 . S
C337 C341 1.393 . S
C338 H330 0.950 . S
C338 C336 1.391 . S
C338 C339 1.400 . S
C339 C338 1.400 . S
C339 C340 1.398 . S
C339 C345 1.491 1_655 S
C340 H331 0.950 1_655 S
C340 C339 1.398 . S
C340 C341 1.391 . S
C341 H329 0.950 . S
C341 C337 1.393 . S
C341 C340 1.391 . S
C342 H332 0.950 . S
C342 C343 1.386 . S
C342 C344 1.391 . S
C343 C342 1.386 . S
C343 C347 1.393 . S
C344 H333 0.950 . S
C344 C342 1.391 . S
C344 C345 1.400 . S
C345 C339 1.491 1_455 S
C345 C344 1.400 . S
C345 C346 1.398 . S
C346 H334 0.950 1_455 S
C346 C345 1.398 . S
C346 C347 1.391 . S
C347 H335 0.950 . S
C347 C343 1.393 . S
C347 C346 1.391 . S
H348 C356 0.950 . S
H349 C361 0.950 . S
H350 C358 0.950 1_565 S
H351 C360 0.950 . S
H352 C362 0.950 . S
H353 C364 0.950 1_545 S
H354 C366 0.950 . S
H355 C367 0.950 . S
C356 H348 0.950 . S
C356 C357 1.386 . S
C356 C358 1.391 . S
C357 C356 1.386 . S
C357 C361 1.393 . S
C358 H350 0.950 1_545 S
C358 C356 1.391 . S
C358 C359 1.400 . S
C359 C358 1.400 . S
C359 C360 1.398 . S
C359 C365 1.491 1_545 S
C360 H351 0.950 . S
C360 C359 1.398 . S
C360 C361 1.391 . S
C361 H349 0.950 . S
C361 C357 1.393 . S
C361 C360 1.391 . S
C362 H352 0.950 . S
C362 C363 1.386 . S
C362 C364 1.391 . S
C363 C362 1.386 . S
C363 C367 1.393 . S
C364 H353 0.950 1_565 S
C364 C362 1.391 . S
C364 C365 1.400 . S
C365 C359 1.491 1_565 S
C365 C364 1.400 . S
C365 C366 1.398 . S
C366 H354 0.950 . S
C366 C365 1.398 . S
C366 C367 1.391 . S
C367 H355 0.950 . S
C367 C363 1.393 . S
C367 C366 1.391 . S
H368 C376 0.950 1_565 S
H369 C381 0.950 . S
H370 C378 0.950 . S
H371 C380 0.950 . S
H372 C382 0.950 . S
H373 C384 0.950 . S
H374 C386 0.950 . S
H375 C387 0.950 . S
C376 H368 0.950 1_545 S
C376 C377 1.386 . S
C376 C378 1.391 . S
C377 C376 1.386 . S
C377 C381 1.393 . S
C378 H370 0.950 . S
C378 C376 1.391 . S
C378 C379 1.400 . S
C379 C378 1.400 . S
C379 C380 1.398 . S
C379 C385 1.491 . S
C380 H371 0.950 . S
C380 C379 1.398 . S
C380 C381 1.391 . S
C381 H369 0.950 . S
C381 C377 1.393 . S
C381 C380 1.391 . S
C382 H372 0.950 . S
C382 C383 1.386 . S
C382 C384 1.391 . S
C383 C382 1.386 . S
C383 C387 1.393 . S
C384 H373 0.950 . S
C384 C382 1.391 . S
C384 C385 1.400 . S
C385 C379 1.491 . S
C385 C384 1.400 . S
C385 C386 1.398 . S
C386 H374 0.950 . S
C386 C385 1.398 . S
C386 C387 1.391 . S
C387 H375 0.950 . S
C387 C383 1.393 . S
C387 C386 1.391 . S
H388 C396 0.950 . S
H389 C401 0.950 . S
H390 C398 0.950 . S
H391 C400 0.950 . S
H392 C402 0.950 . S
H393 C404 0.950 . S
H394 C406 0.950 . S
H395 C407 0.950 1_655 S
C396 H388 0.950 . S
C396 C397 1.386 . S
C396 C398 1.391 . S
C397 C396 1.386 . S
C397 C401 1.393 . S
C398 H390 0.950 . S
C398 C396 1.391 . S
C398 C399 1.400 . S
C399 C398 1.400 . S
C399 C400 1.398 . S
C399 C405 1.491 . S
C400 H391 0.950 . S
C400 C399 1.398 . S
C400 C401 1.391 . S
C401 H389 0.950 . S
C401 C397 1.393 . S
C401 C400 1.391 . S
C402 H392 0.950 . S
C402 C403 1.386 . S
C402 C404 1.391 . S
C403 C402 1.386 . S
C403 C407 1.393 . S
C404 H393 0.950 . S
C404 C402 1.391 . S
C404 C405 1.400 . S
C405 C399 1.491 . S
C405 C404 1.400 . S
C405 C406 1.398 . S
C406 H394 0.950 . S
C406 C405 1.398 . S
C406 C407 1.391 . S
C407 H395 0.950 1_455 S
C407 C403 1.393 . S
C407 C406 1.391 . S
H408 C416 0.950 . S
H409 C421 0.950 1_545 S
H410 C418 0.950 . S
H411 C420 0.950 . S
H412 C422 0.950 . S
H413 C424 0.950 . S
H414 C426 0.950 . S
H415 C427 0.950 . S
C416 H408 0.950 . S
C416 C417 1.386 . S
C416 C418 1.391 . S
C417 C416 1.386 . S
C417 C421 1.393 . S
C418 H410 0.950 . S
C418 C416 1.391 . S
C418 C419 1.400 . S
C419 C418 1.400 . S
C419 C420 1.398 . S
C419 C425 1.491 . S
C420 H411 0.950 . S
C420 C419 1.398 . S
C420 C421 1.391 . S
C421 H409 0.950 1_565 S
C421 C417 1.393 . S
C421 C420 1.391 . S
C422 H412 0.950 . S
C422 C423 1.386 . S
C422 C424 1.391 . S
C423 C422 1.386 . S
C423 C427 1.393 . S
C424 H413 0.950 . S
C424 C422 1.391 . S
C424 C425 1.400 . S
C425 C419 1.491 . S
C425 C424 1.400 . S
C425 C426 1.398 . S
C426 H414 0.950 . S
C426 C425 1.398 . S
C426 C427 1.391 . S
C427 H415 0.950 . S
C427 C423 1.393 . S
C427 C426 1.391 . S
H428 C436 0.950 . S
H429 C441 0.950 . S
H430 C438 0.950 . S
H431 C440 0.950 . S
H432 C442 0.950 . S
H433 C444 0.950 . S
H434 C446 0.950 . S
H435 C447 0.950 1_455 S
C436 H428 0.950 . S
C436 C437 1.386 . S
C436 C438 1.391 . S
C437 C436 1.386 . S
C437 C441 1.393 . S
C438 H430 0.950 . S
C438 C436 1.391 . S
C438 C439 1.400 . S
C439 C438 1.400 . S
C439 C440 1.398 . S
C439 C445 1.491 . S
C440 H431 0.950 . S
C440 C439 1.398 . S
C440 C441 1.391 . S
C441 H429 0.950 . S
C441 C437 1.393 . S
C441 C440 1.391 . S
C442 H432 0.950 . S
C442 C443 1.386 . S
C442 C444 1.391 . S
C443 C442 1.386 . S
C443 C447 1.393 . S
C444 H433 0.950 . S
C444 C442 1.391 . S
C444 C445 1.400 . S
C445 C439 1.491 . S
C445 C444 1.400 . S
C445 C446 1.398 . S
C446 H434 0.950 . S
C446 C445 1.398 . S
C446 C447 1.391 . S
C447 H435 0.950 1_655 S
C447 C443 1.393 . S
C447 C446 1.391 . S
H448 C456 0.950 . S
H449 C461 0.950 . S
H450 C458 0.950 . S
H451 C460 0.950 1_554 S
H452 C462 0.950 . S
H453 C464 0.950 . S
H454 C466 0.950 . S
H455 C467 0.950 1_556 S
C456 H448 0.950 . S
C456 C457 1.365 1_545 S
C456 C458 1.391 . S
C457 C456 1.365 1_565 S
C457 C461 1.395 . S
C458 H450 0.950 . S
C458 C456 1.391 . S
C458 C459 1.400 . S
C459 C458 1.400 . S
C459 C460 1.398 . S
C459 C465 1.491 . S
C460 H451 0.950 1_556 S
C460 C459 1.398 . S
C460 C461 1.391 1_545 S
C461 H449 0.950 . S
C461 C457 1.395 . S
C461 C460 1.391 1_565 S
C462 H452 0.950 . S
C462 C463 1.386 . S
C462 C464 1.391 . S
C463 C462 1.386 . S
C463 C467 1.393 . S
C464 H453 0.950 . S
C464 C462 1.391 . S
C464 C465 1.400 1_554 S
C465 C459 1.491 . S
C465 C464 1.400 1_556 S
C465 C466 1.398 . S
C466 H454 0.950 . S
C466 C465 1.398 . S
C466 C467 1.391 1_556 S
C467 H455 0.950 1_554 S
C467 C463 1.393 . S
C467 C466 1.391 1_554 S
H468 C476 0.950 . S
H469 C481 0.950 . S
H470 C478 0.950 1_554 S
H471 C480 0.950 . S
H472 C482 0.950 1_655 S
H473 C484 0.950 . S
H474 C486 0.950 . S
H475 C487 0.950 . S
C476 H468 0.950 . S
C476 C477 1.386 . S
C476 C478 1.391 . S
C477 C476 1.386 . S
C477 C481 1.393 . S
C478 H470 0.950 1_556 S
C478 C476 1.391 . S
C478 C479 1.400 . S
C479 C478 1.400 . S
C479 C480 1.398 . S
C479 C485 1.491 1_556 S
C480 H471 0.950 . S
C480 C479 1.398 . S
C480 C481 1.391 . S
C481 H469 0.950 . S
C481 C477 1.393 . S
C481 C480 1.391 . S
C482 H472 0.950 1_455 S
C482 C483 1.386 . S
C482 C484 1.391 . S
C483 C482 1.386 . S
C483 C487 1.393 . S
C484 H473 0.950 . S
C484 C482 1.391 . S
C484 C485 1.400 . S
C485 C479 1.491 1_554 S
C485 C484 1.400 . S
C485 C486 1.398 . S
C486 H474 0.950 . S
C486 C485 1.398 . S
C486 C487 1.391 . S
C487 H475 0.950 . S
C487 C483 1.393 . S
C487 C486 1.391 . S
H488 C496 0.950 . S
H489 C501 0.950 . S
H490 C498 0.950 . S
H491 C500 0.964 . S
H492 C502 0.950 . S
H493 C504 0.950 . S
H494 C506 0.950 . S
H495 C507 0.950 1_545 S
C496 H488 0.950 . S
C496 C497 1.386 . S
C496 C498 1.391 . S
C497 C496 1.386 . S
C497 C501 1.393 . S
C498 H490 0.950 . S
C498 C496 1.391 . S
C498 C499 1.400 1_554 S
C499 C498 1.400 1_556 S
C499 C500 1.399 . S
C499 C505 1.491 . S
C500 H491 0.964 . S
C500 C499 1.399 . S
C500 C501 1.377 1_556 S
C501 H489 0.950 . S
C501 C497 1.393 . S
C501 C500 1.377 1_554 S
C502 H492 0.950 . S
C502 C503 1.382 1_565 S
C502 C504 1.391 . S
C503 C502 1.382 1_545 S
C503 C507 1.393 1_545 S
C504 H493 0.950 . S
C504 C502 1.391 . S
C504 C505 1.400 . S
C505 C499 1.491 . S
C505 C504 1.400 . S
C505 C506 1.398 . S
C506 H494 0.950 . S
C506 C505 1.398 . S
C506 C507 1.391 . S
C507 H495 0.950 1_565 S
C507 C503 1.393 1_565 S
C507 C506 1.391 . S
H508 C516 0.950 . S
H509 C521 0.950 . S
H510 C518 0.950 . S
H511 C520 0.950 . S
H512 C522 0.950 . S
H513 C524 0.950 . S
H514 C526 0.950 1_556 S
H515 C527 0.950 . S
C516 H508 0.950 . S
C516 C517 1.386 . S
C516 C518 1.391 . S
C517 C516 1.386 . S
C517 C521 1.393 . S
C518 H510 0.950 . S
C518 C516 1.391 . S
C518 C519 1.400 . S
C519 C518 1.400 . S
C519 C520 1.398 1_556 S
C519 C525 1.491 1_556 S
C520 H511 0.950 . S
C520 C519 1.398 1_554 S
C520 C521 1.391 1_554 S
C521 H509 0.950 . S
C521 C517 1.393 . S
C521 C520 1.391 1_556 S
C522 H512 0.950 . S
C522 C523 1.386 . S
C522 C524 1.391 . S
C523 C522 1.386 . S
C523 C527 1.393 1_655 S
C524 H513 0.950 . S
C524 C522 1.391 . S
C524 C525 1.400 . S
C525 C519 1.491 1_554 S
C525 C524 1.400 . S
C525 C526 1.398 . S
C526 H514 0.950 1_554 S
C526 C525 1.398 . S
C526 C527 1.391 1_655 S
C527 H515 0.950 . S
C527 C523 1.393 1_455 S
C527 C526 1.391 1_455 S
H528 C536 0.950 . S
H529 C541 0.950 . S
H530 C538 0.950 . S
H531 C540 0.950 . S
H532 C542 0.950 . S
H533 C544 0.950 . S
H534 C546 0.950 . S
H535 C547 0.950 . S
C536 H528 0.950 . S
C536 C537 1.386 . S
C536 C538 1.391 . S
C537 C536 1.386 . S
C537 C541 1.393 . S
C538 H530 0.950 . S
C538 C536 1.391 . S
C538 C539 1.400 . S
C539 C538 1.400 . S
C539 C540 1.398 . S
C539 C545 1.491 . S
C540 H531 0.950 . S
C540 C539 1.398 . S
C540 C541 1.391 . S
C541 H529 0.950 . S
C541 C537 1.393 . S
C541 C540 1.391 . S
C542 H532 0.950 . S
C542 C543 1.386 . S
C542 C544 1.391 . S
C543 C542 1.386 . S
C543 C547 1.393 . S
C544 H533 0.950 . S
C544 C542 1.391 . S
C544 C545 1.400 . S
C545 C539 1.491 . S
C545 C544 1.400 . S
C545 C546 1.398 . S
C546 H534 0.950 . S
C546 C545 1.398 . S
C546 C547 1.391 . S
C547 H535 0.950 . S
C547 C543 1.393 . S
C547 C546 1.391 . S
H548 C556 0.950 . S
H549 C561 0.950 . S
H550 C558 0.950 . S
H551 C560 0.950 . S
H552 C562 0.950 . S
H553 C564 0.950 . S
H554 C566 0.950 . S
H555 C567 0.950 . S
C556 H548 0.950 . S
C556 C557 1.386 . S
C556 C558 1.391 . S
C557 C556 1.386 . S
C557 C561 1.393 . S
C558 H550 0.950 . S
C558 C556 1.391 . S
C558 C559 1.400 . S
C559 C558 1.400 . S
C559 C560 1.398 . S
C559 C565 1.491 . S
C560 H551 0.950 . S
C560 C559 1.398 . S
C560 C561 1.391 . S
C561 H549 0.950 . S
C561 C557 1.393 . S
C561 C560 1.391 . S
C562 H552 0.950 . S
C562 C563 1.386 . S
C562 C564 1.391 . S
C563 C562 1.386 . S
C563 C567 1.393 . S
C564 H553 0.950 . S
C564 C562 1.391 . S
C564 C565 1.400 . S
C565 C559 1.491 . S
C565 C564 1.400 . S
C565 C566 1.398 . S
C566 H554 0.950 . S
C566 C565 1.398 . S
C566 C567 1.391 . S
C567 H555 0.950 . S
C567 C563 1.393 . S
C567 C566 1.391 . S
H568 C576 0.950 . S
H569 C581 0.950 . S
H570 C578 0.950 . S
H571 C580 0.950 . S
H572 C582 0.950 . S
H573 C584 0.950 . S
H574 C586 0.950 . S
H575 C587 0.950 . S
C576 H568 0.950 . S
C576 C577 1.386 . S
C576 C578 1.391 . S
C577 C576 1.386 . S
C577 C581 1.393 . S
C578 H570 0.950 . S
C578 C576 1.391 . S
C578 C579 1.400 . S
C579 C578 1.400 . S
C579 C580 1.398 . S
C579 C585 1.491 . S
C580 H571 0.950 . S
C580 C579 1.398 . S
C580 C581 1.391 . S
C581 H569 0.950 . S
C581 C577 1.393 . S
C581 C580 1.391 . S
C582 H572 0.950 . S
C582 C583 1.386 . S
C582 C584 1.391 . S
C583 C582 1.386 . S
C583 C587 1.393 . S
C584 H573 0.950 . S
C584 C582 1.391 . S
C584 C585 1.400 . S
C585 C579 1.491 . S
C585 C584 1.400 . S
C585 C586 1.398 . S
C586 H574 0.950 . S
C586 C585 1.398 . S
C586 C587 1.391 . S
C587 H575 0.950 . S
C587 C583 1.393 . S
C587 C586 1.391 . S
H588 C596 0.950 . S
H589 C601 0.950 . S
H590 C598 0.950 . S
H591 C600 0.950 . S
H592 C602 0.950 . S
H593 C604 0.950 . S
H594 C606 0.950 . S
H595 C607 0.950 . S
C596 H588 0.950 . S
C596 C597 1.386 . S
C596 C598 1.391 . S
C597 C596 1.386 . S
C597 C601 1.393 . S
C598 H590 0.950 . S
C598 C596 1.391 . S
C598 C599 1.400 . S
C599 C598 1.400 . S
C599 C600 1.398 . S
C599 C605 1.491 . S
C600 H591 0.950 . S
C600 C599 1.398 . S
C600 C601 1.391 . S
C601 H589 0.950 . S
C601 C597 1.393 . S
C601 C600 1.391 . S
C602 H592 0.950 . S
C602 C603 1.386 . S
C602 C604 1.391 . S
C603 C602 1.386 . S
C603 C607 1.393 . S
C604 H593 0.950 . S
C604 C602 1.391 . S
C604 C605 1.400 . S
C605 C599 1.491 . S
C605 C604 1.400 . S
C605 C606 1.398 . S
C606 H594 0.950 . S
C606 C605 1.398 . S
C606 C607 1.391 . S
C607 H595 0.950 . S
C607 C603 1.393 . S
C607 C606 1.391 . S
C297 C76 1.377 . S
C303 C4 1.377 . S
C317 C122 1.526 . S
C323 C50 1.534 . S
C337 C148 1.388 . S
C343 C220 1.390 . S
C357 C184 1.439 . S
C363 C256 1.440 . S
C377 C39 0.968 1_545 S
C383 C3 0.945 . S
C397 C38 1.119 . S
C403 C74 1.133 1_455 S
C417 C111 0.973 1_565 S
C423 C75 0.961 . S
C437 C110 1.118 . S
C443 C2 1.136 1_655 S
C457 C254 1.082 . S
C463 C147 1.062 . S
C477 C183 1.015 . S
C483 C146 1.029 1_455 S
C497 C219 1.080 . S
C503 C182 1.092 . S
C517 C255 1.007 . S
C523 C218 1.002 1_655 S
C537 C14 1.684 . S
C543 C194 1.676 . S
C557 C230 1.672 . S
C563 C40 1.662 . S
C577 C86 1.680 . S
C583 C266 1.678 . S
C597 C112 1.664 . S
C603 C158 1.667 . S
