# Generated by pormake.
# Topology wjd, (6)-cn, num edge types: 1
# Building blocks:
#     Node 0, Type 0, BuildingBlock: BETDEL_clean_sbu_0, # of connection points: 6
#     Node 1, Type 0, BuildingBlock: BETDEL_clean_sbu_0, # of connection points: 6
#     Node 2, Type 0, BuildingBlock: BETDEL_clean_sbu_0, # of connection points: 6
#     Node 3, Type 0, BuildingBlock: BETDEL_clean_sbu_0, # of connection points: 6
#     Node 4, Type 0, BuildingBlock: BETDEL_clean_sbu_0, # of connection points: 6
#     Node 5, Type 0, BuildingBlock: BETDEL_clean_sbu_0, # of connection points: 6
#     Node 6, Type 0, BuildingBlock: BETDEL_clean_sbu_0, # of connection points: 6
#     Node 7, Type 0, BuildingBlock: BETDEL_clean_sbu_0, # of connection points: 6
#     Node 8, Type 0, BuildingBlock: BETDEL_clean_sbu_0, # of connection points: 6
#     Node 9, Type 0, BuildingBlock: BETDEL_clean_sbu_0, # of connection points: 6
#     Node 10, Type 0, BuildingBlock: BETDEL_clean_sbu_0, # of connection points: 6
#     Node 11, Type 0, BuildingBlock: BETDEL_clean_sbu_0, # of connection points: 6
#     Edge 12, Type (0, 0), BuildingBlock: UVAHIK_clean_linker_0, # of connection points: 2
#     Edge 13, Type (0, 0), BuildingBlock: UVAHIK_clean_linker_0, # of connection points: 2
#     Edge 14, Type (0, 0), BuildingBlock: UVAHIK_clean_linker_0, # of connection points: 2
#     Edge 15, Type (0, 0), BuildingBlock: UVAHIK_clean_linker_0, # of connection points: 2
#     Edge 16, Type (0, 0), BuildingBlock: UVAHIK_clean_linker_0, # of connection points: 2
#     Edge 17, Type (0, 0), BuildingBlock: UVAHIK_clean_linker_0, # of connection points: 2
#     Edge 18, Type (0, 0), BuildingBlock: UVAHIK_clean_linker_0, # of connection points: 2
#     Edge 19, Type (0, 0), BuildingBlock: UVAHIK_clean_linker_0, # of connection points: 2
#     Edge 20, Type (0, 0), BuildingBlock: UVAHIK_clean_linker_0, # of connection points: 2
#     Edge 21, Type (0, 0), BuildingBlock: UVAHIK_clean_linker_0, # of connection points: 2
#     Edge 22, Type (0, 0), BuildingBlock: UVAHIK_clean_linker_0, # of connection points: 2
#     Edge 23, Type (0, 0), BuildingBlock: UVAHIK_clean_linker_0, # of connection points: 2
#     Edge 24, Type (0, 0), BuildingBlock: UVAHIK_clean_linker_0, # of connection points: 2
#     Edge 25, Type (0, 0), BuildingBlock: UVAHIK_clean_linker_0, # of connection points: 2
#     Edge 26, Type (0, 0), BuildingBlock: UVAHIK_clean_linker_0, # of connection points: 2
#     Edge 27, Type (0, 0), BuildingBlock: UVAHIK_clean_linker_0, # of connection points: 2
#     Edge 28, Type (0, 0), BuildingBlock: UVAHIK_clean_linker_0, # of connection points: 2
#     Edge 29, Type (0, 0), BuildingBlock: UVAHIK_clean_linker_0, # of connection points: 2
#     Edge 30, Type (0, 0), BuildingBlock: UVAHIK_clean_linker_0, # of connection points: 2
#     Edge 31, Type (0, 0), BuildingBlock: UVAHIK_clean_linker_0, # of connection points: 2
#     Edge 32, Type (0, 0), BuildingBlock: UVAHIK_clean_linker_0, # of connection points: 2
#     Edge 33, Type (0, 0), BuildingBlock: UVAHIK_clean_linker_0, # of connection points: 2
#     Edge 34, Type (0, 0), BuildingBlock: UVAHIK_clean_linker_0, # of connection points: 2
#     Edge 35, Type (0, 0), BuildingBlock: UVAHIK_clean_linker_0, # of connection points: 2
#     Edge 36, Type (0, 0), BuildingBlock: UVAHIK_clean_linker_0, # of connection points: 2
#     Edge 37, Type (0, 0), BuildingBlock: UVAHIK_clean_linker_0, # of connection points: 2
#     Edge 38, Type (0, 0), BuildingBlock: UVAHIK_clean_linker_0, # of connection points: 2
#     Edge 39, Type (0, 0), BuildingBlock: UVAHIK_clean_linker_0, # of connection points: 2
#     Edge 40, Type (0, 0), BuildingBlock: UVAHIK_clean_linker_0, # of connection points: 2
#     Edge 41, Type (0, 0), BuildingBlock: UVAHIK_clean_linker_0, # of connection points: 2
#     Edge 42, Type (0, 0), BuildingBlock: UVAHIK_clean_linker_0, # of connection points: 2
#     Edge 43, Type (0, 0), BuildingBlock: UVAHIK_clean_linker_0, # of connection points: 2
#     Edge 44, Type (0, 0), BuildingBlock: UVAHIK_clean_linker_0, # of connection points: 2
#     Edge 45, Type (0, 0), BuildingBlock: UVAHIK_clean_linker_0, # of connection points: 2
#     Edge 46, Type (0, 0), BuildingBlock: UVAHIK_clean_linker_0, # of connection points: 2
#     Edge 47, Type (0, 0), BuildingBlock: UVAHIK_clean_linker_0, # of connection points: 2
# Relax obj value: 0.085
# Max RMSD: 0.176
# Mean RMSD: 0.176
data_MOF--net-wjd--node1-BETDEL_clean_sbu_0--edge1-UVAHIK_clean_linker_0
_symmetry_space_group_name_H-M    P1
_symmetry_Int_Tables_number       1
_symmetry_cell_setting            triclinic
loop_
_symmetry_equiv_pos_as_xyz
'x, y, z'
_cell_length_a     41.916899
_cell_length_b     41.954173
_cell_length_c     69.124937
_cell_angle_alpha  90.102065
_cell_angle_beta   89.980474
_cell_angle_gamma 120.04754
loop_
_atom_site_label
_atom_site_type_symbol
_atom_site_fract_x
_atom_site_fract_y
_atom_site_fract_z
_atom_type_partial_charge
Dy0 Dy 0.3528 0.16853 0.13862 0.0
C1 C 0.24302 0.01701 0.14328 0.0
C2 C 0.40769 0.24079 0.14101 0.0
Dy3 Dy 0.30103 0.08728 0.14655 0.0
O4 O 0.38572 0.22605 0.12633 0.0
O5 O 0.39974 0.21604 0.15424 0.0
O6 O 0.33216 0.15879 0.10748 0.0
O7 O 0.33555 0.11773 0.12257 0.0
C8 C 0.32493 0.12486 0.10708 0.0
C9 C 0.33096 0.12734 0.17838 0.0
O10 O 0.35317 0.08512 0.14228 0.0
O11 O 0.39206 0.14839 0.14537 0.0
O12 O 0.26044 0.03217 0.15925 0.0
O13 O 0.25811 0.03988 0.12904 0.0
O14 O 0.32312 0.09335 0.17632 0.0
O15 O 0.3198 0.13764 0.16388 0.0
O16 O 0.30271 0.17214 0.144 0.0
O17 O 0.26206 0.10934 0.14172 0.0
C18 C 0.3865 0.11436 0.14472 0.0
C19 C 0.26895 0.14387 0.14243 0.0
Dy20 Dy 0.77579 0.69263 0.41071 0.0
C21 C 0.81991 0.57961 0.41382 0.0
C22 C 0.76319 0.74805 0.42078 0.0
Dy23 Dy 0.80312 0.63444 0.41601 0.0
O24 O 0.7459 0.72437 0.40694 0.0
O25 O 0.78621 0.74049 0.42931 0.0
O26 O 0.78561 0.70217 0.37858 0.0
O27 O 0.79734 0.66571 0.39283 0.0
C28 C 0.79784 0.67933 0.37654 0.0
C29 C 0.78965 0.66236 0.44832 0.0
O30 O 0.85681 0.6854 0.41158 0.0
O31 O 0.83651 0.72696 0.41778 0.0
O32 O 0.795 0.57946 0.42509 0.0
O33 O 0.8355 0.60963 0.40362 0.0
O34 O 0.81445 0.65239 0.44759 0.0
O35 O 0.77244 0.65436 0.4326 0.0
O36 O 0.72179 0.63894 0.41101 0.0
O37 O 0.74613 0.60069 0.40398 0.0
C38 C 0.86324 0.71913 0.41498 0.0
C39 C 0.7179 0.60653 0.40583 0.0
Dy40 Dy 0.82086 0.17735 0.13662 0.0
C41 C 0.9706 0.21911 0.15023 0.0
C42 C 0.74864 0.15986 0.13697 0.0
Dy43 Dy 0.90078 0.20799 0.14728 0.0
O44 O 0.76292 0.14719 0.12458 0.0
O45 O 0.77382 0.18208 0.14897 0.0
O46 O 0.8324 0.16309 0.10657 0.0
O47 O 0.87286 0.20886 0.12129 0.0
C48 C 0.86662 0.18941 0.10645 0.0
C49 C 0.85771 0.20128 0.17735 0.0
O50 O 0.90398 0.26249 0.14245 0.0
O51 O 0.84054 0.23761 0.13918 0.0
O52 O 0.94517 0.2041 0.16332 0.0
O53 O 0.95831 0.22932 0.13562 0.0
O54 O 0.89161 0.22772 0.17543 0.0
O55 O 0.84899 0.17819 0.16366 0.0
O56 O 0.81825 0.12592 0.14619 0.0
O57 O 0.8796 0.14808 0.13954 0.0
C58 C 0.87445 0.2662 0.14056 0.0
C59 C 0.84594 0.12023 0.1429 0.0
Dy60 Dy 0.29716 0.08764 0.41012 0.0
C61 C 0.40642 0.24109 0.41511 0.0
C62 C 0.23746 0.01921 0.41567 0.0
Dy63 Dy 0.35098 0.16913 0.41761 0.0
O64 O 0.25957 0.02859 0.40088 0.0
O65 O 0.24862 0.04685 0.42745 0.0
O66 O 0.31554 0.09159 0.37971 0.0
O67 O 0.31659 0.13789 0.39267 0.0
C68 C 0.32575 0.12626 0.37789 0.0
C69 C 0.32424 0.12598 0.44944 0.0
O70 O 0.3013 0.17395 0.4127 0.0
O71 O 0.25938 0.11132 0.41399 0.0
O72 O 0.38367 0.227 0.42951 0.0
O73 O 0.39903 0.21582 0.4022 0.0
O74 O 0.33348 0.1605 0.44935 0.0
O75 O 0.33313 0.11828 0.43358 0.0
O76 O 0.34911 0.08503 0.41468 0.0
O77 O 0.38876 0.14769 0.40991 0.0
C78 C 0.26715 0.14614 0.41371 0.0
C79 C 0.38252 0.1135 0.41119 0.0
Dy80 Dy 0.80712 0.63411 0.1399 0.0
C81 C 0.76602 0.7464 0.13568 0.0
C82 C 0.82395 0.57925 0.14124 0.0
Dy83 Dy 0.77931 0.69157 0.14589 0.0
O84 O 0.79981 0.57996 0.12971 0.0
O85 O 0.83877 0.60844 0.15215 0.0
O86 O 0.81915 0.65381 0.10864 0.0
O87 O 0.77608 0.65388 0.12365 0.0
C88 C 0.79362 0.66278 0.10805 0.0
C89 C 0.80124 0.67804 0.17992 0.0
O90 O 0.7254 0.63783 0.14547 0.0
O91 O 0.74997 0.5995 0.15158 0.0
O92 O 0.74972 0.72355 0.14993 0.0
O93 O 0.78844 0.73835 0.12684 0.0
O94 O 0.78865 0.70061 0.178 0.0
O95 O 0.80113 0.6646 0.16357 0.0
O96 O 0.86086 0.68498 0.14408 0.0
O97 O 0.84036 0.72684 0.13961 0.0
C98 C 0.72165 0.60529 0.15012 0.0
C99 C 0.86722 0.71889 0.14148 0.0
Dy100 Dy 0.898 0.20913 0.40702 0.0
C101 C 0.74541 0.16121 0.417 0.0
C102 C 0.96769 0.21974 0.4042 0.0
Dy103 Dy 0.81775 0.1791 0.41737 0.0
O104 O 0.94186 0.2036 0.39138 0.0
O105 O 0.95585 0.23127 0.41845 0.0
O106 O 0.88938 0.22827 0.37865 0.0
O107 O 0.84618 0.17924 0.39055 0.0
C108 C 0.85539 0.20205 0.37671 0.0
C109 C 0.8633 0.19185 0.44778 0.0
O110 O 0.81521 0.12738 0.40831 0.0
O111 O 0.87644 0.14948 0.41532 0.0
O112 O 0.75998 0.14922 0.42955 0.0
O113 O 0.77037 0.18303 0.40482 0.0
O114 O 0.8289 0.16597 0.44776 0.0
O115 O 0.86969 0.21066 0.43272 0.0
O116 O 0.90129 0.2638 0.41156 0.0
O117 O 0.83778 0.2393 0.41434 0.0
C118 C 0.84277 0.12165 0.41193 0.0
C119 C 0.87181 0.26773 0.41313 0.0
Dy120 Dy 0.08521 0.29981 0.64787 0.0
C121 C 0.24217 0.40674 0.6413 0.0
C122 C 0.01666 0.23977 0.65101 0.0
Dy123 Dy 0.1699 0.35494 0.63717 0.0
O124 O 0.04386 0.24828 0.66283 0.0
O125 O 0.02652 0.26485 0.63767 0.0
O126 O 0.09383 0.33043 0.67562 0.0
O127 O 0.13801 0.32727 0.66342 0.0
C128 C 0.12879 0.34142 0.67693 0.0
C129 C 0.12611 0.32602 0.60547 0.0
O130 O 0.17205 0.30449 0.64427 0.0
O131 O 0.10896 0.26266 0.64201 0.0
O132 O 0.22982 0.37852 0.62969 0.0
O133 O 0.21504 0.40661 0.65051 0.0
O134 O 0.16101 0.35052 0.60416 0.0
O135 O 0.11922 0.31996 0.62307 0.0
O136 O 0.08237 0.34968 0.63853 0.0
O137 O 0.14594 0.39184 0.63923 0.0
C138 C 0.14384 0.27043 0.6433 0.0
C139 C 0.11111 0.38376 0.63766 0.0
Dy140 Dy 0.17853 0.82043 0.91806 0.0
C141 C 0.21765 0.97382 0.91872 0.0
C142 C 0.16276 0.7491 0.91462 0.0
Dy143 Dy 0.20655 0.90557 0.91043 0.0
O144 O 0.15076 0.76159 0.92834 0.0
O145 O 0.1836 0.77565 0.90289 0.0
O146 O 0.16409 0.82728 0.94889 0.0
O147 O 0.20609 0.87194 0.93426 0.0
C148 C 0.18647 0.8627 0.94921 0.0
C149 C 0.18774 0.86815 0.87677 0.0
O150 O 0.26123 0.90758 0.91377 0.0
O151 O 0.23954 0.84418 0.91725 0.0
O152 O 0.23567 0.96704 0.90549 0.0
O153 O 0.19468 0.94359 0.92749 0.0
O154 O 0.20001 0.90335 0.878 0.0
O155 O 0.1866 0.85587 0.89356 0.0
O156 O 0.12664 0.81778 0.90884 0.0
O157 O 0.14506 0.87916 0.91497 0.0
C158 C 0.26659 0.87895 0.91579 0.0
C159 C 0.11908 0.8445 0.91161 0.0
Dy160 Dy 0.68847 0.77994 0.65169 0.0
C161 C 0.58207 0.82608 0.64001 0.0
C162 C 0.7475 0.76936 0.65481 0.0
Dy163 Dy 0.63555 0.80686 0.64045 0.0
O164 O 0.73739 0.78505 0.66767 0.0
O165 O 0.72459 0.75828 0.64036 0.0
O166 O 0.66305 0.76446 0.68092 0.0
O167 O 0.66641 0.81074 0.66689 0.0
C168 C 0.65414 0.78998 0.68158 0.0
C169 C 0.66768 0.79236 0.61047 0.0
O170 O 0.68599 0.86139 0.64185 0.0
O171 O 0.72653 0.83895 0.64266 0.0
O172 O 0.58429 0.80356 0.62787 0.0
O173 O 0.60898 0.83798 0.65233 0.0
O174 O 0.65799 0.81735 0.60982 0.0
O175 O 0.65665 0.77486 0.62608 0.0
O176 O 0.63698 0.72508 0.64862 0.0
O177 O 0.59799 0.74946 0.65107 0.0
C178 C 0.71966 0.86648 0.64123 0.0
C179 C 0.60373 0.72109 0.65101 0.0
Dy180 Dy 0.16843 0.35682 0.91613 0.0
C181 C 0.01318 0.2458 0.91716 0.0
C182 C 0.24069 0.41054 0.9148 0.0
Dy183 Dy 0.08294 0.29949 0.90872 0.0
O184 O 0.21595 0.41097 0.926 0.0
O185 O 0.22589 0.38083 0.90429 0.0
O186 O 0.15888 0.33654 0.94728 0.0
O187 O 0.11652 0.33662 0.9315 0.0
C188 C 0.12425 0.32735 0.94727 0.0
C189 C 0.12138 0.31503 0.8755 0.0
O190 O 0.08329 0.35335 0.90883 0.0
O191 O 0.14677 0.39171 0.90396 0.0
O192 O 0.02223 0.26755 0.90222 0.0
O193 O 0.04208 0.25422 0.92763 0.0
O194 O 0.08609 0.29207 0.87645 0.0
O195 O 0.1329 0.32694 0.89225 0.0
O196 O 0.17045 0.3056 0.91147 0.0
O197 O 0.10783 0.26396 0.91588 0.0
C198 C 0.11256 0.38591 0.90462 0.0
C199 C 0.1426 0.27178 0.914 0.0
Dy200 Dy 0.20977 0.90464 0.64774 0.0
C201 C 0.16228 0.74754 0.63731 0.0
C202 C 0.22031 0.97279 0.63993 0.0
Dy203 Dy 0.1802 0.81975 0.63791 0.0
O204 O 0.23881 0.96608 0.65292 0.0
O205 O 0.1973 0.94258 0.63106 0.0
O206 O 0.20247 0.90036 0.68001 0.0
O207 O 0.18834 0.85347 0.6634 0.0
C208 C 0.1893 0.86492 0.68044 0.0
C209 C 0.19283 0.86595 0.60796 0.0
O210 O 0.12672 0.81683 0.64287 0.0
O211 O 0.14837 0.88007 0.64338 0.0
O212 O 0.18291 0.77216 0.62463 0.0
O213 O 0.15156 0.76243 0.65041 0.0
O214 O 0.16788 0.83115 0.60744 0.0
O215 O 0.21065 0.87261 0.62345 0.0
O216 O 0.26365 0.90495 0.64502 0.0
O217 O 0.23909 0.84087 0.64577 0.0
C218 C 0.12122 0.8452 0.64318 0.0
C219 C 0.26736 0.87517 0.64573 0.0
Dy220 Dy 0.63425 0.81187 0.92136 0.0
C221 C 0.74471 0.76673 0.91707 0.0
C222 C 0.5807 0.83067 0.92119 0.0
Dy223 Dy 0.6904 0.78316 0.91125 0.0
O224 O 0.58438 0.81056 0.93432 0.0
O225 O 0.60621 0.84039 0.90812 0.0
O226 O 0.65798 0.82367 0.95177 0.0
O227 O 0.65655 0.78093 0.93548 0.0
C228 C 0.66759 0.79858 0.95107 0.0
C229 C 0.67148 0.80578 0.87911 0.0
O230 O 0.63655 0.72926 0.91274 0.0
O231 O 0.59678 0.75353 0.91272 0.0
O232 O 0.72134 0.75429 0.90275 0.0
O233 O 0.73766 0.78724 0.92836 0.0
O234 O 0.69433 0.79333 0.87902 0.0
O235 O 0.66111 0.80541 0.89624 0.0
O236 O 0.68514 0.86499 0.91669 0.0
O237 O 0.72723 0.84394 0.91766 0.0
C238 C 0.60298 0.72544 0.91209 0.0
C239 C 0.71919 0.87089 0.91757 0.0
C240 C 0.0317 0.23471 0.13594 0.0
C241 C 0.00486 0.21738 0.15037 0.0
C242 C 0.06184 0.22899 0.13494 0.0
C243 C 0.08588 0.15958 0.14349 0.0
H244 H 0.18789 0.23683 0.14809 0.0
C245 C 0.20342 0.12602 0.14943 0.0
C246 C 0.23816 0.15144 0.14202 0.0
C247 C 0.17517 0.13459 0.14999 0.0
C248 C 0.15964 0.21491 0.14636 0.0
H249 H 0.98874 0.18122 0.17529 0.0
H250 H 0.04081 0.17053 0.17317 0.0
H251 H 0.13908 0.25235 0.14958 0.0
H252 H 0.27027 0.20498 0.12861 0.0
H253 H 0.22074 0.21912 0.12856 0.0
H254 H 0.10585 0.12214 0.13954 0.0
C255 C 0.03871 0.18875 0.1628 0.0
C256 C 0.13176 0.22391 0.14736 0.0
C257 C 0.00911 0.19506 0.16405 0.0
C258 C 0.24384 0.18504 0.13465 0.0
C259 C 0.21544 0.19327 0.13478 0.0
C260 C 0.11372 0.15062 0.14206 0.0
C261 C 0.06501 0.20525 0.1481 0.0
C262 C 0.0947 0.19625 0.14614 0.0
C263 C 0.18081 0.16844 0.14273 0.0
C264 C 0.15105 0.1781 0.14367 0.0
H265 H 0.02891 0.25192 0.12518 0.0
H266 H 0.0819 0.24194 0.12347 0.0
H267 H 0.05737 0.13785 0.14236 0.0
H268 H 0.19841 0.10001 0.15534 0.0
H269 H 0.14921 0.11494 0.15654 0.0
C270 C 0.1907 0.95614 0.40399 0.0
C271 C 0.20162 0.98494 0.41741 0.0
C272 C 0.15492 0.9257 0.40456 0.0
C273 C 0.06191 0.90197 0.41778 0.0
H274 H 0.03915 0.80035 0.41774 0.0
C275 C 0.91211 0.78229 0.42541 0.0
C276 C 0.90206 0.7493 0.41555 0.0
C277 C 0.94902 0.8104 0.42612 0.0
C278 C 0.0449 0.82853 0.41742 0.0
H279 H 0.18429 0.00409 0.44227 0.0
H280 H 0.12177 0.95138 0.44298 0.0
H281 H 0.10336 0.84985 0.41782 0.0
H282 H 0.92265 0.72022 0.39831 0.0
H283 H 0.98647 0.76957 0.39881 0.0
H284 H 0.00389 0.88123 0.41665 0.0
C285 C 0.1408 0.95227 0.43209 0.0
C286 C 0.08174 0.85683 0.41758 0.0
C287 C 0.17662 0.98229 0.43173 0.0
C288 C 0.92957 0.74518 0.40622 0.0
C289 C 0.96631 0.77347 0.40664 0.0
C290 C 0.02512 0.87376 0.41727 0.0
C291 C 0.12942 0.92398 0.41834 0.0
C292 C 0.09054 0.89378 0.4179 0.0
C293 C 0.97667 0.80645 0.41668 0.0
C294 C 0.01602 0.83658 0.41718 0.0
H295 H 0.20946 0.95759 0.39279 0.0
H296 H 0.14673 0.90422 0.39377 0.0
H297 H 0.06802 0.9303 0.41776 0.0
H298 H 0.89156 0.78617 0.43287 0.0
H299 H 0.95584 0.83502 0.43432 0.0
C300 C 0.80659 0.05385 0.15124 0.0
C301 C 0.83831 0.08186 0.14224 0.0
C302 C 0.79754 0.01711 0.14963 0.0
C303 C 0.83601 0.95736 0.13582 0.0
H304 H 0.73261 0.88255 0.1324 0.0
C305 C 0.79028 0.80654 0.11898 0.0
C306 C 0.76618 0.78125 0.13268 0.0
C307 C 0.79645 0.84244 0.11851 0.0
C308 C 0.76155 0.90318 0.13338 0.0
H309 H 0.88567 0.09346 0.12464 0.0
H310 H 0.86936 0.02911 0.12129 0.0
H311 H 0.75004 0.9473 0.13502 0.0
H312 H 0.72771 0.77271 0.15574 0.0
H313 H 0.73794 0.83557 0.15465 0.0
H314 H 0.84736 0.91307 0.13379 0.0
C315 C 0.85183 0.03553 0.12999 0.0
C316 C 0.77162 0.94028 0.13502 0.0
C317 C 0.86119 0.07245 0.13185 0.0
C318 C 0.74638 0.79169 0.14502 0.0
C319 C 0.75226 0.8276 0.1444 0.0
C320 C 0.82593 0.92034 0.13391 0.0
C321 C 0.81967 0.00733 0.13872 0.0
C322 C 0.809 0.96787 0.13643 0.0
C323 C 0.7783 0.85361 0.13158 0.0
C324 C 0.78862 0.89289 0.13279 0.0
H325 H 0.7886 0.0603 0.15953 0.0
H326 H 0.77314 -0.0036 0.15701 0.0
H327 H 0.86497 0.97761 0.13722 0.0
H328 H 0.80581 0.79917 0.10922 0.0
H329 H 0.81625 0.86182 0.1083 0.0
C330 C 0.20185 0.12878 0.4065 0.0
C331 C 0.23678 0.15439 0.41368 0.0
C332 C 0.17372 0.13747 0.40576 0.0
C333 C 0.15798 0.21774 0.40849 0.0
H334 H 0.05603 0.14045 0.41362 0.0
C335 C 0.02942 0.23698 0.41828 0.0
C336 C 0.0021 0.21826 0.40419 0.0
C337 C 0.05988 0.23176 0.41942 0.0
C338 C 0.08444 0.16225 0.41217 0.0
H339 H 0.26939 0.20866 0.42635 0.0
H340 H 0.22004 0.22315 0.42603 0.0
H341 H 0.10488 0.12537 0.41665 0.0
H342 H 0.98543 0.18012 0.38005 0.0
H343 H 0.03802 0.17033 0.38243 0.0
H344 H 0.13693 0.25466 0.40473 0.0
C345 C 0.21451 0.19691 0.42019 0.0
C346 C 0.1125 0.15364 0.41372 0.0
C347 C 0.24281 0.18851 0.42052 0.0
C348 C 0.00615 0.19502 0.39101 0.0
C349 C 0.03607 0.18924 0.39241 0.0
C350 C 0.12987 0.22642 0.40736 0.0
C351 C 0.17962 0.1717 0.4126 0.0
C352 C 0.14971 0.18117 0.41166 0.0
C353 C 0.06289 0.20716 0.40676 0.0
C354 C 0.0929 0.19866 0.40895 0.0
H355 H 0.19652 0.10237 0.40097 0.0
H356 H 0.14759 0.11753 0.39945 0.0
H357 H 0.18612 0.23967 0.40646 0.0
H358 H 0.02681 0.25493 0.42865 0.0
H359 H 0.08031 0.2458 0.43062 0.0
C360 C 0.19013 0.96264 0.15897 0.0
C361 C 0.20741 0.9823 0.1421 0.0
C362 C 0.15419 0.93267 0.15826 0.0
C363 C 0.08338 0.8601 0.15168 0.0
H364 H 0.01347 0.8702 0.11924 0.0
C365 C 0.93484 0.7407 0.14095 0.0
C366 C 0.90622 0.74902 0.14068 0.0
C367 C 0.97167 0.76871 0.14058 0.0
C368 C 0.03256 0.86705 0.12849 0.0
H369 H 0.20138 0.98527 0.11114 0.0
H370 H 0.13886 0.93249 0.10979 0.0
H371 H 0.07791 0.91891 0.11967 0.0
H372 H 0.89415 0.79359 0.13967 0.0
H373 H 0.95863 0.84261 0.13929 0.0
H374 H 0.03791 0.80877 0.16094 0.0
C375 C 0.15273 0.9406 0.12365 0.0
C376 C 0.06965 0.89475 0.12853 0.0
C377 C 0.18867 0.9706 0.12438 0.0
C378 C 0.91544 0.78616 0.13986 0.0
C379 C 0.95243 0.81427 0.13954 0.0
C380 C 0.04632 0.83244 0.15166 0.0
C381 C 0.13477 0.92171 0.14064 0.0
C382 C 0.09552 0.89165 0.14015 0.0
C383 C 0.981 0.80586 0.14001 0.0
C384 C 0.02042 0.83554 0.14007 0.0
H385 H 0.20388 0.97122 0.17286 0.0
H386 H 0.14114 0.91902 0.17166 0.0
H387 H 0.10256 0.85664 0.16069 0.0
H388 H 0.9289 0.71245 0.14143 0.0
H389 H 0.99288 0.76115 0.14059 0.0
C390 C 0.74309 0.79297 0.41147 0.0
C391 C 0.7635 0.78302 0.42362 0.0
C392 C 0.74898 0.82889 0.41191 0.0
C393 C 0.82305 0.92207 0.42151 0.0
H394 H 0.747 0.94884 0.42102 0.0
C395 C 0.85813 0.07411 0.4232 0.0
C396 C 0.83501 0.08325 0.41287 0.0
C397 C 0.84882 0.03725 0.42522 0.0
C398 C 0.76861 0.94186 0.42085 0.0
H399 H 0.80427 0.80187 0.44657 0.0
H400 H 0.81466 0.86449 0.44721 0.0
H401 H 0.72978 0.88419 0.42386 0.0
H402 H 0.78486 0.06121 0.39587 0.0
H403 H 0.76944 -0.00262 0.3987 0.0
H404 H 0.86189 0.97928 0.41784 0.0
C405 C 0.7944 0.84473 0.43726 0.0
C406 C 0.75866 0.90482 0.4226 0.0
C407 C 0.78826 0.80884 0.43697 0.0
C408 C 0.80304 0.055 0.40412 0.0
C409 C 0.79402 0.0183 0.40589 0.0
C410 C 0.83299 0.95902 0.4195 0.0
C411 C 0.77561 0.85539 0.42437 0.0
C412 C 0.7858 0.8946 0.42298 0.0
C413 C 0.81645 0.00882 0.41671 0.0
C414 C 0.80592 0.96945 0.41912 0.0
H415 H 0.72392 0.77357 0.40102 0.0
H416 H 0.73415 0.83646 0.40181 0.0
H417 H 0.84452 0.91486 0.42146 0.0
H418 H 0.8828 0.09531 0.43021 0.0
H419 H 0.86658 0.03105 0.43384 0.0
C420 C 0.24096 0.03796 0.64979 0.0
C421 C 0.21951 0.00739 0.63788 0.0
C422 C 0.23544 0.06828 0.64967 0.0
C423 C 0.16206 0.08894 0.6419 0.0
H424 H 0.23876 0.19098 0.63683 0.0
C425 C 0.12736 0.20552 0.63543 0.0
C426 C 0.15207 0.24001 0.64344 0.0
C427 C 0.13642 0.17764 0.63469 0.0
C428 C 0.217 0.16269 0.63862 0.0
H429 H 0.1769 0.98524 0.61585 0.0
H430 H 0.16703 0.03775 0.61588 0.0
H431 H 0.25479 0.14251 0.63555 0.0
H432 H 0.20507 0.27192 0.6576 0.0
H433 H 0.22015 0.22307 0.6571 0.0
H434 H 0.12432 0.10864 0.64561 0.0
C435 C 0.18792 0.03828 0.62533 0.0
C436 C 0.22628 0.13498 0.63776 0.0
C437 C 0.19375 0.00835 0.62526 0.0
C438 C 0.18559 0.24575 0.65112 0.0
C439 C 0.19438 0.21775 0.65069 0.0
C440 C 0.15284 0.11659 0.64308 0.0
C441 C 0.20807 0.06814 0.63784 0.0
C442 C 0.19883 0.09785 0.63922 0.0
C443 C 0.17014 0.1834 0.64226 0.0
C444 C 0.18012 0.15389 0.64132 0.0
H445 H 0.26094 0.03784 0.65968 0.0
H446 H 0.25134 0.09105 0.65945 0.0
H447 H 0.14042 0.06048 0.64334 0.0
H448 H 0.10144 0.20037 0.62926 0.0
H449 H 0.11723 0.15184 0.62781 0.0
C450 C 0.06985 0.86199 0.91127 0.0
C451 C 0.07987 0.83467 0.91164 0.0
C452 C 0.03269 0.8523 0.91191 0.0
C453 C 0.93774 0.77258 0.90525 0.0
H454 H 0.91044 0.83444 0.93423 0.0
C455 C 0.80088 0.7775 0.93484 0.0
C456 C 0.77883 0.76489 0.91819 0.0
C457 C 0.8363 0.78216 0.93483 0.0
C458 C 0.91742 0.81647 0.92632 0.0
H459 H 0.05866 0.77572 0.91309 0.0
H460 H -0.00565 0.75902 0.91473 0.0
H461 H 0.97474 0.85091 0.93251 0.0
H462 H 0.77554 0.74562 0.88879 0.0
H463 H 0.83764 0.75455 0.88851 0.0
H464 H 0.88023 0.73746 0.89962 0.0
C465 C 0.01494 0.78787 0.91343 0.0
C466 C 0.95451 0.82635 0.92503 0.0
C467 C 0.05196 0.79751 0.91259 0.0
C468 C 0.79196 0.75517 0.90186 0.0
C469 C 0.82758 0.76027 0.90174 0.0
C470 C 0.90059 0.7625 0.9067 0.0
C471 C 0.00475 0.81509 0.91314 0.0
C472 C 0.9652 0.80463 0.91441 0.0
C473 C 0.85059 0.7748 0.91806 0.0
C474 C 0.88993 0.78439 0.9172 0.0
H475 H 0.09066 0.89085 0.91045 0.0
H476 H 0.0259 0.87401 0.91131 0.0
H477 H 0.94491 0.75538 0.89675 0.0
H478 H 0.79124 0.78495 0.94768 0.0
H479 H 0.8528 0.79242 0.94783 0.0
C480 C 0.74499 0.93211 0.63161 0.0
C481 C 0.75066 0.90459 0.6396 0.0
C482 C 0.77339 0.96876 0.63139 0.0
C483 C 0.8748 0.02848 0.63892 0.0
H484 H 0.84868 0.10388 0.64803 0.0
C485 C 0.97992 0.17547 0.66283 0.0
C486 C 0.98268 0.20359 0.65073 0.0
C487 C 0.95049 0.13961 0.66091 0.0
C488 C 0.85624 0.08307 0.64534 0.0
H489 H 0.79056 0.89366 0.65342 0.0
H490 H 0.83975 0.95773 0.6538 0.0
H491 H 0.80017 0.03954 0.64538 0.0
H492 H 0.9562 0.21683 0.62772 0.0
H493 H 0.90366 0.15385 0.62479 0.0
H494 H 0.93101 0.07219 0.63981 0.0
C495 C 0.81376 0.95107 0.64714 0.0
C496 C 0.82852 0.04621 0.64369 0.0
C497 C 0.78551 0.91428 0.64702 0.0
C498 C 0.95457 0.19561 0.63726 0.0
C499 C 0.92466 0.15972 0.63557 0.0
C500 C 0.90245 0.06522 0.64094 0.0
C501 C 0.80797 0.9789 0.6395 0.0
C502 C 0.83744 0.01835 0.64054 0.0
C503 C 0.92294 0.13132 0.64707 0.0
C504 C 0.8934 0.09275 0.64426 0.0
H505 H 0.71847 0.92535 0.62558 0.0
H506 H 0.76808 0.98914 0.62493 0.0
H507 H 0.88282 0.00808 0.63607 0.0
H508 H 0.00126 0.18083 0.67331 0.0
H509 H 0.9495 0.11819 0.67006 0.0
C510 C 0.18396 0.24645 0.90667 0.0
C511 C 0.15109 0.24159 0.9148 0.0
C512 C 0.19274 0.21849 0.90767 0.0
C513 C 0.15133 0.11825 0.9173 0.0
H514 H 0.25358 0.14398 0.92313 0.0
C515 C 0.19222 0.00982 0.93414 0.0
C516 C 0.21727 0.00854 0.9211 0.0
C517 C 0.1867 0.03993 0.93437 0.0
C518 C 0.22497 0.13649 0.92142 0.0
H519 H 0.10169 0.2037 0.93045 0.0
H520 H 0.11752 0.15527 0.93282 0.0
H521 H 0.23783 0.19264 0.9217 0.0
H522 H 0.25781 0.03858 0.8989 0.0
H523 H 0.24868 0.09201 0.89962 0.0
H524 H 0.13857 0.06205 0.91755 0.0
C525 C 0.13615 0.1803 0.92519 0.0
C526 C 0.21587 0.1643 0.92049 0.0
C527 C 0.12709 0.20812 0.92392 0.0
C528 C 0.23839 0.03895 0.9091 0.0
C529 C 0.23314 0.06942 0.9095 0.0
C530 C 0.16041 0.09052 0.91853 0.0
C531 C 0.16914 0.18513 0.91708 0.0
C532 C 0.1789 0.15555 0.91835 0.0
C533 C 0.20642 0.0696 0.92174 0.0
C534 C 0.19728 0.09936 0.92058 0.0
H535 H 0.20286 0.2718 0.89934 0.0
H536 H 0.21792 0.223 0.90085 0.0
H537 H 0.12271 0.11034 0.91522 0.0
H538 H 0.17568 0.98681 0.94363 0.0
H539 H 0.16633 0.03966 0.94413 0.0
C540 C 0.07348 0.86183 0.65216 0.0
C541 C 0.0827 0.83729 0.64345 0.0
C542 C 0.03666 0.8531 0.6533 0.0
C543 C 0.94059 0.77334 0.64889 0.0
H544 H 0.91582 0.85081 0.64785 0.0
C545 C 0.79258 0.75315 0.64062 0.0
C546 C 0.78348 0.77106 0.65493 0.0
C547 C 0.82843 0.75883 0.6395 0.0
C548 C 0.92245 0.82895 0.6482 0.0
H549 H 0.06093 0.78508 0.62845 0.0
H550 H -0.00287 0.77068 0.62952 0.0
H551 H 0.9799 0.86655 0.64433 0.0
H552 H 0.80419 0.80815 0.67953 0.0
H553 H 0.86689 0.81868 0.67724 0.0
H554 H 0.88253 0.73577 0.65203 0.0
C555 C 0.01789 0.79596 0.63623 0.0
C556 C 0.9592 0.83792 0.64634 0.0
C557 C 0.05457 0.80434 0.63546 0.0
C558 C 0.81042 0.79387 0.66839 0.0
C559 C 0.8463 0.8001 0.66704 0.0
C560 C 0.90373 0.76435 0.65035 0.0
C561 C 0.00828 0.81997 0.64538 0.0
C562 C 0.9689 0.81029 0.64684 0.0
C563 C 0.85574 0.78307 0.65242 0.0
C564 C 0.89445 0.79213 0.65022 0.0
H565 H 0.0946 0.88728 0.65859 0.0
H566 H 0.03048 0.87206 0.66078 0.0
H567 H 0.94683 0.75128 0.64973 0.0
H568 H 0.77229 0.73556 0.63003 0.0
H569 H 0.83519 0.74548 0.62809 0.0
C570 C 0.95251 0.19737 0.90423 0.0
C571 C 0.9778 0.21147 0.91956 0.0
C572 C 0.92265 0.16143 0.90503 0.0
C573 C 0.85369 0.08815 0.9129 0.0
H574 H 0.87508 0.01565 0.93461 0.0
C575 C 0.74069 0.93746 0.92276 0.0
C576 C 0.74921 0.90971 0.91869 0.0
C577 C 0.76826 0.97431 0.92339 0.0
C578 C 0.86876 0.03548 0.92834 0.0
H579 H 0.99051 0.20043 0.9483 0.0
H580 H 0.93774 0.13813 0.94999 0.0
H581 H 0.92227 0.08051 0.93503 0.0
H582 H 0.79361 0.89898 0.91228 0.0
H583 H 0.842 0.96379 0.91303 0.0
H584 H 0.80066 0.04302 0.90557 0.0
C585 C 0.94149 0.15425 0.93709 0.0
C586 C 0.89561 0.07277 0.92885 0.0
C587 C 0.97147 0.19005 0.93622 0.0
C588 C 0.78616 0.91969 0.91549 0.0
C589 C 0.81387 0.9568 0.916 0.0
C590 C 0.82692 0.05087 0.91229 0.0
C591 C 0.91742 0.13908 0.92125 0.0
C592 C 0.88837 0.09957 0.92118 0.0
C593 C 0.80513 0.98454 0.91982 0.0
C594 C 0.83407 0.02409 0.92007 0.0
H595 H 0.95695 0.21329 0.89117 0.0
H596 H 0.9048 0.15059 0.89252 0.0
H597 H 0.84709 0.10803 0.90696 0.0
H598 H 0.71259 0.93081 0.92556 0.0
H599 H 0.76061 0.9948 0.92683 0.0
C600 C 0.32465 0.16833 0.35218 0.0
C601 C 0.33695 0.14474 0.3589 0.0
C602 C 0.33028 0.17991 0.33276 0.0
C603 C 0.38421 0.18588 0.28864 0.0
H604 H 0.29562 0.16328 0.26019 0.0
C605 C 0.36088 0.13618 0.21036 0.0
C606 C 0.34101 0.14558 0.19752 0.0
C607 C 0.36601 0.14792 0.22958 0.0
C608 C 0.32086 0.17061 0.2679 0.0
H609 H 0.36642 0.1165 0.35113 0.0
H610 H 0.377 0.13717 0.3177 0.0
H611 H 0.2948 0.1632 0.29557 0.0
H612 H 0.31192 0.1758 0.19448 0.0
H613 H 0.3205 0.19619 0.22848 0.0
H614 H 0.40984 0.19164 0.26108 0.0
C615 C 0.36291 0.14675 0.32715 0.0
C616 C 0.32039 0.17056 0.28821 0.0
C617 C 0.35672 0.13474 0.3463 0.0
C618 C 0.32759 0.16839 0.20408 0.0
C619 C 0.33225 0.17977 0.22354 0.0
C620 C 0.38469 0.18597 0.26841 0.0
C621 C 0.34901 0.16871 0.31995 0.0
C622 C 0.35166 0.17674 0.2988 0.0
C623 C 0.35102 0.1691 0.2366 0.0
C624 C 0.35263 0.17687 0.25777 0.0
H625 H 0.30904 0.17617 0.36159 0.0
H626 H 0.31933 0.19691 0.32765 0.0
H627 H 0.40896 0.19142 0.29636 0.0
H628 H 0.37146 0.11856 0.20568 0.0
H629 H 0.38016 0.13872 0.2392 0.0
C630 C 0.82548 0.70085 0.34425 0.0
C631 C 0.81039 0.67234 0.35789 0.0
C632 C 0.83321 0.69448 0.32551 0.0
C633 C 0.79974 0.62478 0.28851 0.0
H634 H 0.88569 0.69899 0.26113 0.0
C635 C 0.80629 0.63596 0.20422 0.0
C636 C 0.81377 0.6712 0.19859 0.0
C637 C 0.81265 0.62952 0.22345 0.0
C638 C 0.8617 0.67772 0.26855 0.0
H639 H 0.79206 0.61477 0.36284 0.0
H640 H 0.80463 0.60308 0.32943 0.0
H641 H 0.88473 0.69936 0.29642 0.0
H642 H 0.83538 0.72752 0.20805 0.0
H643 H 0.84749 0.71679 0.24103 0.0
H644 H 0.77578 0.6047 0.26051 0.0
C645 C 0.81102 0.63059 0.33351 0.0
C646 C 0.86116 0.67793 0.28876 0.0
C647 C 0.80406 0.63728 0.35259 0.0
C648 C 0.82951 0.70013 0.21202 0.0
C649 C 0.8366 0.69397 0.23092 0.0
C650 C 0.80025 0.62461 0.2682 0.0
C651 C 0.82538 0.65916 0.31974 0.0
C652 C 0.82952 0.65257 0.29895 0.0
C653 C 0.82748 0.65849 0.23706 0.0
C654 C 0.83057 0.65222 0.25802 0.0
H655 H 0.8305 0.7281 0.34796 0.0
H656 H 0.84374 0.71695 0.31523 0.0
H657 H 0.77491 0.60499 0.29595 0.0
H658 H 0.79371 0.61314 0.19413 0.0
H659 H 0.80528 0.60188 0.22778 0.0
C660 C 0.84775 0.22375 0.20869 0.0
C661 C 0.83891 0.19395 0.19628 0.0
C662 C 0.83564 0.21787 0.22784 0.0
C663 C 0.81308 0.15151 0.26684 0.0
H664 H 0.79113 0.21891 0.29432 0.0
C665 C 0.81423 0.1585 0.3508 0.0
C666 C 0.83681 0.19454 0.3577 0.0
C667 C 0.80289 0.15238 0.33135 0.0
C668 C 0.79705 0.19972 0.28688 0.0
H669 H 0.80913 0.13449 0.19389 0.0
H670 H 0.78804 0.12402 0.22771 0.0
H671 H 0.79167 0.21881 0.25903 0.0
H672 H 0.86331 0.2523 0.35019 0.0
H673 H 0.84325 0.24186 0.31664 0.0
H674 H 0.82015 0.13363 0.29475 0.0
C675 C 0.80437 0.15201 0.22252 0.0
C676 C 0.79737 0.19966 0.26665 0.0
C677 C 0.81615 0.15796 0.20315 0.0
C678 C 0.84587 0.22423 0.34524 0.0
C679 C 0.83419 0.2182 0.326 0.0
C680 C 0.81277 0.15157 0.28714 0.0
C681 C 0.81463 0.18197 0.2352 0.0
C682 C 0.80677 0.17657 0.25637 0.0
C683 C 0.81341 0.18224 0.31862 0.0
C684 C 0.80614 0.17668 0.2974 0.0
H685 H 0.8653 0.25177 0.20376 0.0
H686 H 0.8445 0.24161 0.23718 0.0
H687 H 0.82068 0.13353 0.25942 0.0
H688 H 0.80706 0.1351 0.36011 0.0
H689 H 0.78672 0.12435 0.32614 0.0
C690 C 0.1466 0.38033 0.70654 0.0
C691 C 0.14753 0.35243 0.69583 0.0
C692 C 0.1572 0.38593 0.72602 0.0
C693 C 0.19373 0.35144 0.76624 0.0
H694 H 0.13447 0.3785 0.79781 0.0
C695 C 0.136 0.30007 0.84322 0.0
C696 C 0.14206 0.32679 0.85722 0.0
C697 C 0.14849 0.31039 0.82427 0.0
C698 C 0.15172 0.37154 0.78918 0.0
H699 H 0.1612 0.30914 0.69671 0.0
H700 H 0.17746 0.31703 0.73082 0.0
H701 H 0.13331 0.38334 0.76291 0.0
H702 H 0.16651 0.38521 0.8627 0.0
H703 H 0.18704 0.40334 0.82907 0.0
H704 H 0.20899 0.33629 0.79292 0.0
C705 C 0.17022 0.33597 0.72429 0.0
C706 C 0.15132 0.37448 0.76904 0.0
C707 C 0.16077 0.33123 0.70463 0.0
C708 C 0.16216 0.3642 0.8522 0.0
C709 C 0.17368 0.37451 0.83301 0.0
C710 C 0.19327 0.34755 0.7864 0.0
C711 C 0.1675 0.36268 0.7355 0.0
C712 C 0.17177 0.36383 0.75714 0.0
C713 C 0.16622 0.34757 0.81883 0.0
C714 C 0.17185 0.35711 0.798 0.0
H715 H 0.13649 0.39704 0.70001 0.0
H716 H 0.15596 0.40774 0.73374 0.0
H717 H 0.21067 0.34382 0.75783 0.0
H718 H 0.12014 0.27105 0.84676 0.0
H719 H 0.14203 0.28912 0.81356 0.0
C720 C 0.18653 0.82202 0.85286 0.0
C721 C 0.17579 0.84753 0.85836 0.0
C722 C 0.18095 0.80872 0.83371 0.0
C723 C 0.12872 0.80042 0.78871 0.0
H724 H 0.21796 0.82266 0.76104 0.0
C725 C 0.15516 0.85179 0.71115 0.0
C726 C 0.17587 0.84328 0.69842 0.0
C727 C 0.14859 0.83859 0.73008 0.0
C728 C 0.19251 0.81531 0.76853 0.0
H729 H 0.14932 0.87767 0.84874 0.0
H730 H 0.13837 0.85367 0.81589 0.0
H731 H 0.21809 0.8238 0.79645 0.0
H732 H 0.20532 0.8135 0.69521 0.0
H733 H 0.19428 0.7905 0.72879 0.0
H734 H 0.10357 0.79372 0.76092 0.0
C735 C 0.15128 0.84397 0.82606 0.0
C736 C 0.19261 0.81599 0.78885 0.0
C737 C 0.15763 0.85783 0.84488 0.0
C738 C 0.1887 0.81987 0.7047 0.0
C739 C 0.1827 0.80711 0.72394 0.0
C740 C 0.12857 0.7996 0.76848 0.0
C741 C 0.16367 0.82002 0.82004 0.0
C742 C 0.16115 0.81018 0.79912 0.0
C743 C 0.16319 0.81702 0.73696 0.0
C744 C 0.16092 0.80872 0.7581 0.0
H745 H 0.20107 0.81411 0.86296 0.0
H746 H 0.19085 0.79033 0.82947 0.0
H747 H 0.10389 0.79528 0.79621 0.0
H748 H 0.14536 0.87016 0.70669 0.0
H749 H 0.13398 0.84733 0.73967 0.0
C750 C 0.61297 0.77257 0.71011 0.0
C751 C 0.64343 0.7997 0.69999 0.0
C752 C 0.60683 0.77828 0.72937 0.0
C753 C 0.64377 0.84825 0.77005 0.0
H754 H 0.60762 0.76008 0.80122 0.0
C755 C 0.68686 0.84039 0.8484 0.0
C756 C 0.65976 0.81659 0.86145 0.0
C757 C 0.67753 0.84366 0.82939 0.0
C758 C 0.61708 0.7849 0.79273 0.0
H759 H 0.6909 0.85442 0.70163 0.0
H760 H 0.68173 0.86393 0.73552 0.0
H761 H 0.60516 0.755 0.76629 0.0
H762 H 0.60157 0.77834 0.86527 0.0
H763 H 0.58518 0.78307 0.83162 0.0
H764 H 0.65857 0.87808 0.79694 0.0
C765 C 0.6614 0.8387 0.7286 0.0
C766 C 0.61558 0.78208 0.77255 0.0
C767 C 0.66684 0.83335 0.70911 0.0
C768 C 0.62278 0.79744 0.85552 0.0
C769 C 0.61351 0.79993 0.83629 0.0
C770 C 0.64602 0.85107 0.79028 0.0
C771 C 0.63194 0.81072 0.73926 0.0
C772 C 0.62953 0.81375 0.76081 0.0
C773 C 0.64102 0.82229 0.82291 0.0
C774 C 0.63323 0.81944 0.8018 0.0
H775 H 0.59458 0.74635 0.70331 0.0
H776 H 0.58307 0.75651 0.73667 0.0
H777 H 0.65402 0.87328 0.7617 0.0
H778 H 0.71564 0.85495 0.85261 0.0
H779 H 0.69934 0.86076 0.81938 0.0
C780 C 0.1824 0.9105 0.96902 0.0
C781 C 0.196 0.88628 0.96661 0.0
C782 C 0.19513 0.93623 0.98419 0.0
C783 C 0.27303 0.98123 1.01986 0.0
H784 H 0.21151 0.01567 0.04308 0.0
C785 C 0.31277 0.06692 0.09041 0.0
C786 C 0.30969 0.0988 0.09055 0.0
C787 C 0.29853 0.04179 0.07508 0.0
C788 C 0.2291 0.00653 0.03661 0.0
H789 H 0.23222 0.86855 0.97849 0.0
H790 H 0.25299 0.91173 1.00562 0.0
H791 H 0.18633 0.96895 1.01763 0.0
H792 H 0.28872 0.12902 0.07481 0.0
H793 H 0.26298 0.08444 0.04801 0.0
H794 H 0.31533 0.01801 0.03937 0.0
C795 C 0.23365 0.91228 0.99546 0.0
C796 C 0.21474 0.97974 1.02193 0.0
C797 C 0.22136 0.88705 0.98007 0.0
C798 C 0.29164 0.10479 0.07504 0.0
C799 C 0.27676 0.0792 0.05979 0.0
C800 C 0.28712 0.00749 0.03472 0.0
C801 C 0.22137 0.93789 0.99757 0.0
C802 C 0.23645 0.96653 1.01332 0.0
C803 C 0.28029 0.04752 0.05958 0.0
C804 C 0.26536 0.02044 0.04331 0.0
H805 H 0.16242 0.91005 0.95894 0.0
H806 H 0.18508 0.95545 0.98505 0.0
H807 H 0.29117 0.97282 1.01338 0.0
H808 H 0.32644 0.06143 0.10215 0.0
H809 H 0.3014 0.01754 0.07547 0.0
C810 C 0.79877 0.68346 0.4831 0.0
C811 C 0.78044 0.67796 0.46531 0.0
C812 C 0.78887 0.69726 0.49914 0.0
C813 C 0.75912 0.75712 0.51586 0.0
H814 H 0.69664 0.68754 0.55486 0.0
C815 C 0.68996 0.79888 0.57606 0.0
C816 C 0.68289 0.78116 0.59407 0.0
C817 C 0.70335 0.78731 0.56053 0.0
C818 C 0.71469 0.70771 0.54441 0.0
H819 H 0.73716 0.6823 0.4505 0.0
H820 H 0.72111 0.70779 0.47825 0.0
H821 H 0.71926 0.66659 0.52801 0.0
H822 H 0.68406 0.73723 0.60982 0.0
H823 H 0.70957 0.71872 0.58349 0.0
H824 H 0.75571 0.79858 0.53229 0.0
C825 C 0.74293 0.70125 0.47976 0.0
C826 C 0.72741 0.69547 0.52894 0.0
C827 C 0.75224 0.68677 0.46389 0.0
C828 C 0.68978 0.75188 0.59624 0.0
C829 C 0.70385 0.7408 0.58091 0.0
C830 C 0.747 0.76959 0.53154 0.0
C831 C 0.76096 0.70638 0.49754 0.0
C832 C 0.74953 0.72 0.51449 0.0
C833 C 0.71055 0.75802 0.56269 0.0
C834 C 0.72432 0.74503 0.54605 0.0
H835 H 0.82042 0.67671 0.48467 0.0
H836 H 0.80299 0.70086 0.51278 0.0
H837 H 0.77612 0.77651 0.50482 0.0
H838 H 0.68464 0.82136 0.57388 0.0
H839 H 0.70734 0.80098 0.54675 0.0
C840 C 0.10507 0.294 0.97925 0.0
C841 C 0.09763 0.3102 0.9634 0.0
C842 C 0.0794 0.27812 0.99437 0.0
C843 C 0.0051 0.28506 1.01839 0.0
H844 H 0.9744 0.18829 0.03947 0.0
C845 C 0.92486 0.23499 0.09004 0.0
C846 C 0.89271 0.2002 0.08995 0.0
C847 C 0.94941 0.24647 0.07447 0.0
C848 C 0.98264 0.21529 0.03367 0.0
H849 H 0.05742 0.32227 0.95091 0.0
H850 H 0.01323 0.29538 0.97733 0.0
H851 H 0.01861 0.21202 1.01254 0.0
H852 H 0.86162 0.1497 0.07363 0.0
H853 H 0.90521 0.16962 0.04635 0.0
H854 H 0.96978 0.28875 0.03959 0.0
C855 C 0.03873 0.29477 0.97811 0.0
C856 C 0.00814 0.22898 1.01838 0.0
C857 C 0.06404 0.3101 0.96295 0.0
C858 C 0.88609 0.17672 0.07406 0.0
C859 C 0.9111 0.18805 0.05852 0.0
C860 C 0.98021 0.27169 0.03383 0.0
C861 C 0.04611 0.27874 0.99406 0.0
C862 C 0.01955 0.264 1.01052 0.0
C863 C 0.94281 0.22329 0.05847 0.0
C864 C 0.96863 0.23666 0.04167 0.0
H865 H 0.13067 0.29356 0.97995 0.0
H866 H 0.08594 0.26613 1.00652 0.0
H867 H 0.01347 0.31221 1.01276 0.0
H868 H 0.93088 0.25374 0.10208 0.0
H869 H 0.97374 0.27359 0.07498 0.0
C870 C 0.3046 0.11144 0.48438 0.0
C871 C 0.30925 0.10002 0.46601 0.0
C872 C 0.29089 0.08638 0.49986 0.0
C873 C 0.27221 0.99162 0.51421 0.0
H874 H 0.2179 0.00421 0.55607 0.0
C875 C 0.18584 0.88177 0.57363 0.0
C876 C 0.2031 0.89266 0.5918 0.0
C877 C 0.19717 0.90697 0.55824 0.0
C878 C 0.23293 0.00038 0.5444 0.0
H879 H 0.30323 0.05338 0.44951 0.0
H880 H 0.27705 0.00952 0.47568 0.0
H881 H 0.24033 0.04807 0.52927 0.0
H882 H 0.24599 0.93843 0.60796 0.0
H883 H 0.26426 0.9827 0.58142 0.0
H884 H 0.26331 0.94302 0.52921 0.0
C885 C 0.28514 0.0379 0.47867 0.0
C886 C 0.24622 0.02574 0.52909 0.0
C887 C 0.29968 0.06307 0.46343 0.0
C888 C 0.23157 0.92933 0.59428 0.0
C889 C 0.24219 0.95468 0.57909 0.0
C890 C 0.25815 0.96588 0.52927 0.0
C891 C 0.28082 0.04907 0.49726 0.0
C892 C 0.26628 0.02193 0.51372 0.0
C893 C 0.22537 0.94366 0.56089 0.0
C894 C 0.23855 0.9701 0.54452 0.0
H895 H 0.31202 0.13983 0.48686 0.0
H896 H 0.28879 0.09658 0.51391 0.0
H897 H 0.28828 0.98787 0.50314 0.0
H898 H 0.16406 0.85367 0.57121 0.0
H899 H 0.18395 0.89784 0.54427 0.0
C900 C 0.80844 0.69427 0.07554 0.0
C901 C 0.78513 0.68015 0.09168 0.0
C902 C 0.79975 0.71076 0.0603 0.0
C903 C 0.73929 0.7502 0.04809 0.0
H904 H 0.75777 0.73333 0.9952 0.0
C905 C 0.69995 0.81159 0.98325 0.0
C906 C 0.68546 0.78913 0.96681 0.0
C907 C 0.71595 0.8017 0.99822 0.0
C908 C 0.75212 0.73815 1.00987 0.0
H909 H 0.73425 0.67182 0.1044 0.0
H910 H 0.71874 0.69955 0.07791 0.0
H911 H 0.77754 0.70916 1.02172 0.0
H912 H 0.67633 0.7387 0.95317 0.0
H913 H 0.70327 0.72107 0.97922 0.0
H914 H 0.71232 0.77763 0.03628 0.0
C915 C 0.74421 0.69894 0.07705 0.0
C916 C 0.764 0.72468 1.02515 0.0
C917 C 0.75296 0.68269 0.09222 0.0
C918 C 0.68749 0.75676 0.96559 0.0
C919 C 0.70325 0.74678 0.98053 0.0
C920 C 0.72718 0.76341 0.03283 0.0
C921 C 0.76745 0.71333 0.06084 0.0
C922 C 0.75728 0.73002 0.0445 0.0
C923 C 0.71761 0.76897 0.99714 0.0
C924 C 0.73293 0.75716 1.01346 0.0
H925 H 0.83348 0.6928 0.07476 0.0
H926 H 0.81857 0.72182 0.0482 0.0
H927 H 0.73421 0.75559 0.06276 0.0
H928 H 0.69891 0.83679 0.98455 0.0
H929 H 0.72713 0.81984 1.0106 0.0
C930 C 0.10733 0.32766 0.57121 0.0
C931 C 0.09907 0.31066 0.58943 0.0
C932 C 0.08127 0.31369 0.55623 0.0
C933 C -0.00362 0.2297 0.5397 0.0
H934 H 0.9844 0.2987 0.50767 0.0
C935 C 0.88002 0.18285 0.48164 0.0
C936 C 0.88931 0.20306 0.46433 0.0
C937 C 0.90487 0.1948 0.49726 0.0
C938 C 0.98762 0.27896 0.51629 0.0
H939 H 0.05791 0.26477 0.60597 0.0
H940 H 0.0121 0.24056 0.58001 0.0
H941 H 0.02933 0.32159 0.53381 0.0
H942 H 0.93197 0.25147 0.44983 0.0
H943 H 0.97532 0.2716 0.47657 0.0
H944 H 0.95479 0.18705 0.52203 0.0
C945 C 0.0386 0.26478 0.57724 0.0
C946 C 0.01347 0.29216 0.53133 0.0
C947 C 0.06462 0.27891 0.59223 0.0
C948 C 0.92398 0.23514 0.46292 0.0
C949 C 0.94875 0.24696 0.4784 0.0
C950 C 0.97056 0.21645 0.52457 0.0
C951 C 0.04645 0.28216 0.55906 0.0
C952 C 0.01841 0.26777 0.54318 0.0
C953 C 0.93952 0.22724 0.49589 0.0
C954 C 0.96601 0.24093 0.51254 0.0
H955 H 0.13379 0.35205 0.56861 0.0
H956 H 0.08854 0.32748 0.54236 0.0
H957 H -0.00035 0.21009 0.54842 0.0
H958 H 0.85347 0.15806 0.48317 0.0
H959 H 0.89662 0.17902 0.51053 0.0
C960 C 0.68333 0.12422 0.12505 0.0
C961 C 0.7098 0.15086 0.13749 0.0
C962 C 0.64665 0.11636 0.12563 0.0
C963 C 0.59188 0.15893 0.13923 0.0
H964 H 0.50816 0.05961 0.14101 0.0
C965 C 0.44961 0.13605 0.157 0.0
C966 C 0.41954 0.11046 0.14593 0.0
C967 C 0.48327 0.13702 0.1562 0.0
C968 C 0.53124 0.08747 0.14029 0.0
H969 H 0.71874 0.18975 0.16043 0.0
H970 H 0.65509 0.17635 0.16133 0.0
H971 H 0.5708 0.06924 0.13849 0.0
H972 H 0.4004 0.06452 0.12607 0.0
H973 H 0.46001 0.06663 0.12431 0.0
H974 H 0.55297 0.17746 0.14079 0.0
C975 C 0.66254 0.16164 0.15107 0.0
C976 C 0.56706 0.09297 0.13886 0.0
C977 C 0.69897 0.16922 0.1506 0.0
C978 C 0.42319 0.08444 0.13479 0.0
C979 C 0.4573 0.08571 0.13379 0.0
C980 C 0.55631 0.15348 0.14052 0.0
C981 C 0.63601 0.13534 0.13851 0.0
C982 C 0.59775 0.12882 0.13868 0.0
C983 C 0.48803 0.11283 0.14404 0.0
C984 C 0.52554 0.11775 0.14148 0.0
H985 H 0.69099 0.10959 0.11484 0.0
H986 H 0.62681 0.09608 0.11573 0.0
H987 H 0.61491 0.18686 0.13867 0.0
H988 H 0.44738 0.15606 0.16596 0.0
H989 H 0.50593 0.15747 0.16479 0.0
C990 C 0.67582 0.54654 0.39007 0.0
C991 C 0.68079 0.57397 0.40338 0.0
C992 C 0.64346 0.51238 0.39007 0.0
C993 C 0.54797 0.45907 0.40998 0.0
H994 H 0.56519 0.37725 0.4025 0.0
C995 C 0.4396 0.30624 0.42724 0.0
C996 C 0.43603 0.27996 0.41347 0.0
C997 C 0.46777 0.34302 0.42558 0.0
C998 C 0.5598 0.39975 0.40443 0.0
H999 H 0.65512 0.58789 0.42652 0.0
H1000 H 0.59862 0.52765 0.42691 0.0
H1001 H 0.61629 0.43989 0.39995 0.0
H1002 H 0.4588 0.2715 0.38712 0.0
H1003 H 0.50814 0.33549 0.38431 0.0
H1004 H 0.49134 0.4183 0.41497 0.0
C1005 C 0.61949 0.53273 0.41621 0.0
C1006 C 0.58912 0.4358 0.40288 0.0
C1007 C 0.65183 0.56731 0.41599 0.0
C1008 C 0.46099 0.29113 0.39799 0.0
C1009 C 0.48931 0.32775 0.39642 0.0
C1010 C 0.51857 0.42282 0.41171 0.0
C1011 C 0.61545 0.50441 0.40366 0.0
C1012 C 0.58365 0.46604 0.40543 0.0
C1013 C 0.49314 0.35412 0.41023 0.0
C1014 C 0.52415 0.39276 0.4088 0.0
H1015 H 0.69758 0.55108 0.38005 0.0
H1016 H 0.64094 0.4918 0.37974 0.0
H1017 H 0.5426 0.48157 0.41194 0.0
H1018 H 0.42065 0.29836 0.4393 0.0
H1019 H 0.47018 0.36262 0.43653 0.0
C1020 C 0.90394 0.33309 0.15009 0.0
C1021 C 0.87806 0.30296 0.13912 0.0
C1022 C 0.90237 0.36576 0.15073 0.0
C1023 C 0.83364 0.39517 0.14393 0.0
H1024 H 0.91666 0.49478 0.14227 0.0
C1025 C 0.81363 0.51834 0.13003 0.0
C1026 C 0.83317 0.54963 0.14172 0.0
C1027 C 0.82178 0.48993 0.13054 0.0
C1028 C 0.89328 0.46708 0.14296 0.0
H1029 H 0.83248 0.28428 0.11898 0.0
H1030 H 0.83039 0.34096 0.11967 0.0
H1031 H 0.92747 0.44243 0.14127 0.0
H1032 H 0.87698 0.57622 0.16286 0.0
H1033 H 0.89135 0.52629 0.16373 0.0
H1034 H 0.79939 0.41938 0.14536 0.0
C1035 C 0.851 0.33926 0.12835 0.0
C1036 C 0.89947 0.43717 0.1424 0.0
C1037 C 0.85235 0.30682 0.12786 0.0
C1038 C 0.86143 0.55228 0.15374 0.0
C1039 C 0.86979 0.52387 0.15416 0.0
C1040 C 0.82749 0.42486 0.14441 0.0
C1041 C 0.87502 0.36864 0.14031 0.0
C1042 C 0.8696 0.40088 0.14246 0.0
C1043 C 0.84977 0.49223 0.14269 0.0
C1044 C 0.85713 0.46112 0.14356 0.0
H1045 H 0.92399 0.33071 0.15892 0.0
H1046 H 0.92135 0.38803 0.16003 0.0
H1047 H 0.81005 0.36758 0.14457 0.0
H1048 H 0.79185 0.51569 0.12055 0.0
H1049 H 0.80623 0.46613 0.12132 0.0
C1050 C 0.4439 0.1323 0.39736 0.0
C1051 C 0.415 0.10874 0.40964 0.0
C1052 C 0.47759 0.13331 0.39788 0.0
C1053 C 0.52747 0.0869 0.4155 0.0
H1054 H 0.6106 0.18657 0.4135 0.0
C1055 C 0.68056 0.12629 0.42954 0.0
C1056 C 0.70645 0.15187 0.41653 0.0
C1057 C 0.64377 0.1181 0.42906 0.0
C1058 C 0.58773 0.15854 0.41392 0.0
H1059 H 0.39785 0.06621 0.4314 0.0
H1060 H 0.45754 0.06836 0.43262 0.0
H1061 H 0.54834 0.17635 0.41168 0.0
H1062 H 0.71424 0.18847 0.39266 0.0
H1063 H 0.65037 0.17442 0.39186 0.0
H1064 H 0.56751 0.06939 0.41795 0.0
C1065 C 0.45386 0.08583 0.42243 0.0
C1066 C 0.55197 0.15262 0.41282 0.0
C1067 C 0.41971 0.08451 0.42172 0.0
C1068 C 0.69492 0.1688 0.40293 0.0
C1069 C 0.65837 0.16085 0.40253 0.0
C1070 C 0.5635 0.09288 0.4167 0.0
C1071 C 0.48356 0.11119 0.41095 0.0
C1072 C 0.52136 0.11673 0.41321 0.0
C1073 C 0.63241 0.13564 0.41567 0.0
C1074 C 0.594 0.12878 0.41559 0.0
H1075 H 0.4408 0.1509 0.3877 0.0
H1076 H 0.4994 0.15231 0.38839 0.0
H1077 H 0.50452 0.05893 0.41584 0.0
H1078 H 0.68876 0.11277 0.44013 0.0
H1079 H 0.62444 0.09872 0.43942 0.0
C1080 C 0.44151 0.30567 0.12852 0.0
C1081 C 0.43738 0.27967 0.14255 0.0
C1082 C 0.46994 0.3424 0.13009 0.0
C1083 C 0.56192 0.39861 0.15125 0.0
H1084 H 0.54618 0.4813 0.14374 0.0
C1085 C 0.67964 0.5449 0.16545 0.0
C1086 C 0.68457 0.57263 0.15243 0.0
C1087 C 0.64712 0.51087 0.1654 0.0
C1088 C 0.55117 0.45856 0.14567 0.0
H1089 H 0.45942 0.27168 0.16928 0.0
H1090 H 0.50924 0.3355 0.17189 0.0
H1091 H 0.49431 0.41833 0.1407 0.0
H1092 H 0.65874 0.58713 0.12967 0.0
H1093 H 0.60203 0.5271 0.12911 0.0
H1094 H 0.61864 0.43814 0.15565 0.0
C1095 C 0.49061 0.3276 0.15967 0.0
C1096 C 0.52141 0.42248 0.14396 0.0
C1097 C 0.46202 0.29108 0.15821 0.0
C1098 C 0.65549 0.56632 0.13999 0.0
C1099 C 0.62301 0.53185 0.13969 0.0
C1100 C 0.59162 0.43448 0.15275 0.0
C1101 C 0.49504 0.35367 0.14559 0.0
C1102 C 0.52644 0.39212 0.1469 0.0
C1103 C 0.6189 0.50326 0.152 0.0
C1104 C 0.58671 0.46506 0.15021 0.0
H1105 H 0.42282 0.29761 0.11632 0.0
H1106 H 0.4728 0.36179 0.11895 0.0
H1107 H 0.56687 0.37583 0.15322 0.0
H1108 H 0.7015 0.54916 0.17534 0.0
H1109 H 0.6446 0.49013 0.17557 0.0
C1110 C 0.85824 0.55361 0.40122 0.0
C1111 C 0.82928 0.55012 0.41296 0.0
C1112 C 0.86684 0.52538 0.40049 0.0
C1113 C 0.82472 0.42593 0.40881 0.0
H1114 H 0.9248 0.44412 0.41307 0.0
C1115 C 0.84989 0.30855 0.42577 0.0
C1116 C 0.8756 0.30456 0.41455 0.0
C1117 C 0.84857 0.34098 0.42525 0.0
C1118 C 0.89679 0.43872 0.41162 0.0
H1119 H 0.78695 0.51484 0.43331 0.0
H1120 H 0.80178 0.46564 0.43203 0.0
H1121 H 0.91355 0.49621 0.41231 0.0
H1122 H 0.92162 0.33214 0.39483 0.0
H1123 H 0.91906 0.38954 0.39369 0.0
H1124 H 0.80771 0.36876 0.40819 0.0
C1125 C 0.81768 0.48994 0.42324 0.0
C1126 C 0.89034 0.46846 0.41119 0.0
C1127 C 0.80926 0.51815 0.42405 0.0
C1128 C 0.90156 0.33461 0.40362 0.0
C1129 C 0.90004 0.36732 0.40296 0.0
C1130 C 0.83112 0.39642 0.40918 0.0
C1131 C 0.84639 0.4931 0.41137 0.0
C1132 C 0.85411 0.46225 0.41022 0.0
C1133 C 0.87264 0.37024 0.4133 0.0
C1134 C 0.8671 0.40236 0.41108 0.0
H1135 H 0.87416 0.57809 0.39256 0.0
H1136 H 0.88896 0.52848 0.39115 0.0
H1137 H 0.79659 0.42027 0.40756 0.0
H1138 H 0.82997 0.28607 0.43464 0.0
H1139 H 0.8279 0.34275 0.43385 0.0
C1140 C 0.16785 0.69615 0.62263 0.0
C1141 C 0.15262 0.7085 0.63684 0.0
C1142 C 0.15944 0.65945 0.62227 0.0
C1143 C 0.09221 0.56554 0.6386 0.0
H1144 H 0.17409 0.54855 0.63089 0.0
C1145 C 0.08257 0.42197 0.64672 0.0
C1146 C 0.10554 0.41538 0.6346 0.0
C1147 C 0.08418 0.45625 0.64628 0.0
C1148 C 0.15072 0.55263 0.63274 0.0
H1149 H 0.11615 0.6921 0.66162 0.0
H1150 H 0.10135 0.62768 0.661 0.0
H1151 H 0.18525 0.61113 0.63174 0.0
H1152 H 0.14584 0.43774 0.61158 0.0
H1153 H 0.14747 0.49643 0.61015 0.0
H1154 H 0.05765 0.50671 0.6395 0.0
C1155 C 0.11969 0.6464 0.65009 0.0
C1156 C 0.15721 0.58863 0.63329 0.0
C1157 C 0.12832 0.68328 0.65052 0.0
C1158 C 0.12806 0.44233 0.62117 0.0
C1159 C 0.12927 0.47611 0.62052 0.0
C1160 C 0.08564 0.52929 0.63793 0.0
C1161 C 0.13546 0.63417 0.63607 0.0
C1162 C 0.12806 0.59558 0.63605 0.0
C1163 C 0.10858 0.48418 0.63361 0.0
C1164 C 0.11482 0.5224 0.63476 0.0
H1165 H 0.18652 0.71494 0.61185 0.0
H1166 H 0.17167 0.6508 0.61112 0.0
H1167 H 0.06915 0.57003 0.64068 0.0
H1168 H 0.06528 0.40167 0.65734 0.0
H1169 H 0.06788 0.46151 0.65658 0.0
C1170 C 0.33239 0.90565 0.90501 0.0
C1171 C 0.30411 0.88498 0.91827 0.0
C1172 C 0.36536 0.90458 0.90563 0.0
C1173 C 0.39717 0.84169 0.92251 0.0
H1174 H 0.49568 0.92256 0.91247 0.0
C1175 C 0.52428 0.82707 0.9354 0.0
C1176 C 0.5515 0.84055 0.921 0.0
C1177 C 0.49594 0.83541 0.93498 0.0
C1178 C 0.46824 0.89968 0.91515 0.0
H1179 H 0.28888 0.84973 0.94345 0.0
H1180 H 0.34638 0.84896 0.94502 0.0
H1181 H 0.44339 0.93347 0.91224 0.0
H1182 H 0.57103 0.87391 0.8951 0.0
H1183 H 0.52127 0.88846 0.89432 0.0
H1184 H 0.42163 0.80789 0.92548 0.0
C1185 C 0.34299 0.86484 0.93369 0.0
C1186 C 0.43834 0.90593 0.915 0.0
C1187 C 0.31017 0.86553 0.93291 0.0
C1188 C 0.5503 0.86311 0.90636 0.0
C1189 C 0.52198 0.87162 0.90598 0.0
C1190 C 0.42688 0.83552 0.92273 0.0
C1191 C 0.37039 0.88305 0.91961 0.0
C1192 C 0.4025 0.87704 0.91896 0.0
C1193 C 0.49424 0.85748 0.92017 0.0
C1194 C 0.46282 0.86446 0.91929 0.0
H1195 H 0.32815 0.92067 0.89353 0.0
H1196 H 0.38597 0.91896 0.89458 0.0
H1197 H 0.36983 0.81853 0.92504 0.0
H1198 H 0.52466 0.80977 0.94691 0.0
H1199 H 0.47528 0.82453 0.94628 0.0
C1200 C 0.5675 0.65356 0.64321 0.0
C1201 C 0.57109 0.68422 0.65336 0.0
C1202 C 0.53356 0.62053 0.64291 0.0
C1203 C 0.43504 0.59032 0.64848 0.0
H1204 H 0.41986 0.49127 0.64943 0.0
C1205 C 0.29068 0.46528 0.65597 0.0
C1206 C 0.28115 0.4355 0.64345 0.0
C1207 C 0.32722 0.49355 0.65754 0.0
C1208 C 0.42381 0.51882 0.64899 0.0
H1209 H 0.5435 0.70363 0.67253 0.0
H1210 H 0.4851 0.64613 0.67253 0.0
H1211 H 0.48252 0.5442 0.65218 0.0
H1212 H 0.3023 0.4112 0.62314 0.0
H1213 H 0.36657 0.46097 0.62585 0.0
H1214 H 0.37671 0.56536 0.64534 0.0
C1215 C 0.50774 0.6477 0.6642 0.0
C1216 C 0.45962 0.54907 0.65056 0.0
C1217 C 0.54126 0.68058 0.6643 0.0
C1218 C 0.30897 0.43397 0.63287 0.0
C1219 C 0.3457 0.4623 0.63449 0.0
C1220 C 0.39949 0.56028 0.64699 0.0
C1221 C 0.50298 0.61776 0.6529 0.0
C1222 C 0.46551 0.58516 0.65061 0.0
C1223 C 0.35508 0.49265 0.64664 0.0
C1224 C 0.39336 0.5242 0.64748 0.0
H1225 H 0.59014 0.65577 0.63461 0.0
H1226 H 0.53078 0.59792 0.63408 0.0
H1227 H 0.43865 0.61773 0.64786 0.0
H1228 H 0.26981 0.46702 0.66441 0.0
H1229 H 0.33366 0.51628 0.66726 0.0
C1230 C 0.12857 0.68308 0.925 0.0
C1231 C 0.15391 0.71048 0.91253 0.0
C1232 C 0.12043 0.64653 0.92302 0.0
C1233 C 0.16016 0.59202 0.90439 0.0
H1234 H 0.06028 0.50933 0.90679 0.0
C1235 C 0.13285 0.44673 0.88946 0.0
C1236 C 0.10841 0.41853 0.90183 0.0
C1237 C 0.13438 0.4807 0.88925 0.0
C1238 C 0.08835 0.53208 0.90627 0.0
H1239 H 0.19028 0.72127 0.88809 0.0
H1240 H 0.17636 0.65761 0.88471 0.0
H1241 H 0.0713 0.5722 0.90995 0.0
H1242 H 0.06504 0.40299 0.923 0.0
H1243 H 0.06823 0.46292 0.92304 0.0
H1244 H 0.17757 0.55246 0.90121 0.0
C1245 C 0.16288 0.6643 0.89608 0.0
C1246 C 0.09464 0.56809 0.90806 0.0
C1247 C 0.17077 0.70071 0.89797 0.0
C1248 C 0.08395 0.42422 0.91321 0.0
C1249 C 0.08586 0.45859 0.91324 0.0
C1250 C 0.15394 0.5562 0.90275 0.0
C1251 C 0.13775 0.63681 0.90863 0.0
C1252 C 0.13064 0.59844 0.907 0.0
C1253 C 0.11199 0.48764 0.9017 0.0
C1254 C 0.11795 0.5257 0.90349 0.0
H1255 H 0.11511 0.68989 0.93633 0.0
H1256 H 0.1012 0.62604 0.933 0.0
H1257 H 0.18826 0.61475 0.90392 0.0
H1258 H 0.15173 0.44291 0.88035 0.0
H1259 H 0.15399 0.50194 0.87971 0.0
C1260 C 0.33445 0.90366 0.6552 0.0
C1261 C 0.30407 0.87862 0.6441 0.0
C1262 C 0.3672 0.90206 0.65501 0.0
C1263 C 0.39741 0.8346 0.64408 0.0
H1264 H 0.49661 0.91845 0.64447 0.0
C1265 C 0.52255 0.81825 0.62765 0.0
C1266 C 0.55277 0.83585 0.64023 0.0
C1267 C 0.49398 0.82627 0.62846 0.0
C1268 C 0.46902 0.8948 0.64451 0.0
H1269 H 0.28489 0.83457 0.62298 0.0
H1270 H 0.34164 0.83264 0.62212 0.0
H1271 H 0.44372 0.92846 0.64532 0.0
H1272 H 0.5774 0.87629 0.66318 0.0
H1273 H 0.52742 0.89048 0.66452 0.0
H1274 H 0.42233 0.80095 0.64298 0.0
C1275 C 0.34016 0.85244 0.6316 0.0
C1276 C 0.43877 0.90053 0.64505 0.0
C1277 C 0.30766 0.85372 0.63199 0.0
C1278 C 0.55434 0.86227 0.65333 0.0
C1279 C 0.52587 0.87054 0.65403 0.0
C1280 C 0.42744 0.82894 0.64339 0.0
C1281 C 0.36993 0.87561 0.64358 0.0
C1282 C 0.40258 0.87043 0.64448 0.0
C1283 C 0.49513 0.85223 0.64179 0.0
C1284 C 0.46357 0.85891 0.64331 0.0
H1285 H 0.33228 0.92312 0.66464 0.0
H1286 H 0.38972 0.9204 0.66436 0.0
H1287 H 0.36997 0.81071 0.64422 0.0
H1288 H 0.52071 0.79788 0.61737 0.0
H1289 H 0.47085 0.81204 0.61867 0.0
C1290 C 0.56675 0.65836 0.90221 0.0
C1291 C 0.5697 0.68856 0.91257 0.0
C1292 C 0.53275 0.62524 0.90132 0.0
C1293 C 0.43372 0.59399 0.90624 0.0
H1294 H 0.41854 0.49562 0.91287 0.0
C1295 C 0.2919 0.47241 0.9245 0.0
C1296 C 0.27968 0.43982 0.91388 0.0
C1297 C 0.32848 0.50077 0.92317 0.0
C1298 C 0.4225 0.52295 0.91079 0.0
H1299 H 0.54071 0.70693 0.93146 0.0
H1300 H 0.48255 0.64979 0.93026 0.0
H1301 H 0.48153 0.54873 0.91255 0.0
H1302 H 0.29613 0.41079 0.89391 0.0
H1303 H 0.36047 0.46055 0.89169 0.0
H1304 H 0.37509 0.56876 0.90492 0.0
C1305 C 0.50561 0.65169 0.9222 0.0
C1306 C 0.45847 0.55326 0.91056 0.0
C1307 C 0.53905 0.68444 0.92294 0.0
C1308 C 0.30489 0.43574 0.90221 0.0
C1309 C 0.34167 0.46407 0.90101 0.0
C1310 C 0.39804 0.56395 0.90658 0.0
C1311 C 0.50159 0.6221 0.91089 0.0
C1312 C 0.46433 0.58918 0.90879 0.0
C1313 C 0.35368 0.49706 0.91129 0.0
C1314 C 0.39195 0.52821 0.90932 0.0
H1315 H 0.59007 0.66086 0.89416 0.0
H1316 H 0.53046 0.60274 0.89259 0.0
H1317 H 0.43732 0.62123 0.90433 0.0
H1318 H 0.27308 0.47619 0.93367 0.0
H1319 H 0.33708 0.5257 0.93147 0.0
loop_
_geom_bond_atom_site_label_1
_geom_bond_atom_site_label_2
_geom_bond_distance
_geom_bond_site_symmetry_2
_ccdc_geom_bond_type
Dy0 O4 2.398 . S
Dy0 O5 2.491 . S
Dy0 O6 2.403 . S
Dy0 O7 2.664 . S
Dy0 O11 2.326 . S
Dy0 O15 2.310 . S
Dy0 O16 2.351 . S
C1 O12 1.185 . S
C1 O13 1.355 . S
C2 O4 1.185 . S
C2 O5 1.355 . S
Dy3 O7 2.310 . S
Dy3 O10 2.351 . S
Dy3 O12 2.398 . S
Dy3 O13 2.491 . S
Dy3 O14 2.403 . S
Dy3 O15 2.664 . S
Dy3 O17 2.326 . S
O4 Dy0 2.398 . S
O4 C2 1.185 . S
O5 Dy0 2.491 . S
O5 C2 1.355 . S
O6 Dy0 2.403 . S
O6 C8 1.254 . S
O7 Dy0 2.664 . S
O7 Dy3 2.310 . S
O7 C8 1.268 . S
C8 O6 1.254 . S
C8 O7 1.268 . S
C9 O14 1.254 . S
C9 O15 1.268 . S
O10 Dy3 2.351 . S
O10 C18 1.249 . S
O11 Dy0 2.326 . S
O11 C18 1.267 . S
O12 C1 1.185 . S
O12 Dy3 2.398 . S
O13 C1 1.355 . S
O13 Dy3 2.491 . S
O14 Dy3 2.403 . S
O14 C9 1.254 . S
O15 Dy0 2.310 . S
O15 Dy3 2.664 . S
O15 C9 1.268 . S
O16 Dy0 2.351 . S
O16 C19 1.249 . S
O17 Dy3 2.326 . S
O17 C19 1.267 . S
C18 O10 1.249 . S
C18 O11 1.267 . S
C19 O16 1.249 . S
C19 O17 1.267 . S
Dy20 O24 2.398 . S
Dy20 O25 2.491 . S
Dy20 O26 2.403 . S
Dy20 O27 2.664 . S
Dy20 O31 2.326 . S
Dy20 O35 2.310 . S
Dy20 O36 2.351 . S
C21 O32 1.185 . S
C21 O33 1.355 . S
C22 O24 1.185 . S
C22 O25 1.355 . S
Dy23 O27 2.310 . S
Dy23 O30 2.351 . S
Dy23 O32 2.398 . S
Dy23 O33 2.491 . S
Dy23 O34 2.403 . S
Dy23 O35 2.664 . S
Dy23 O37 2.326 . S
O24 Dy20 2.398 . S
O24 C22 1.185 . S
O25 Dy20 2.491 . S
O25 C22 1.355 . S
O26 Dy20 2.403 . S
O26 C28 1.254 . S
O27 Dy20 2.664 . S
O27 Dy23 2.310 . S
O27 C28 1.268 . S
C28 O26 1.254 . S
C28 O27 1.268 . S
C29 O34 1.254 . S
C29 O35 1.268 . S
O30 Dy23 2.351 . S
O30 C38 1.249 . S
O31 Dy20 2.326 . S
O31 C38 1.267 . S
O32 C21 1.185 . S
O32 Dy23 2.398 . S
O33 C21 1.355 . S
O33 Dy23 2.491 . S
O34 Dy23 2.403 . S
O34 C29 1.254 . S
O35 Dy20 2.310 . S
O35 Dy23 2.664 . S
O35 C29 1.268 . S
O36 Dy20 2.351 . S
O36 C39 1.249 . S
O37 Dy23 2.326 . S
O37 C39 1.267 . S
C38 O30 1.249 . S
C38 O31 1.267 . S
C39 O36 1.249 . S
C39 O37 1.267 . S
Dy40 O44 2.398 . S
Dy40 O45 2.491 . S
Dy40 O46 2.403 . S
Dy40 O47 2.664 . S
Dy40 O51 2.326 . S
Dy40 O55 2.310 . S
Dy40 O56 2.351 . S
C41 O52 1.185 . S
C41 O53 1.355 . S
C42 O44 1.185 . S
C42 O45 1.355 . S
Dy43 O47 2.310 . S
Dy43 O50 2.351 . S
Dy43 O52 2.398 . S
Dy43 O53 2.491 . S
Dy43 O54 2.403 . S
Dy43 O55 2.664 . S
Dy43 O57 2.326 . S
O44 Dy40 2.398 . S
O44 C42 1.185 . S
O45 Dy40 2.491 . S
O45 C42 1.355 . S
O46 Dy40 2.403 . S
O46 C48 1.254 . S
O47 Dy40 2.664 . S
O47 Dy43 2.310 . S
O47 C48 1.268 . S
C48 O46 1.254 . S
C48 O47 1.268 . S
C49 O54 1.254 . S
C49 O55 1.268 . S
O50 Dy43 2.351 . S
O50 C58 1.249 . S
O51 Dy40 2.326 . S
O51 C58 1.267 . S
O52 C41 1.185 . S
O52 Dy43 2.398 . S
O53 C41 1.355 . S
O53 Dy43 2.491 . S
O54 Dy43 2.403 . S
O54 C49 1.254 . S
O55 Dy40 2.310 . S
O55 Dy43 2.664 . S
O55 C49 1.268 . S
O56 Dy40 2.351 . S
O56 C59 1.249 . S
O57 Dy43 2.326 . S
O57 C59 1.267 . S
C58 O50 1.249 . S
C58 O51 1.267 . S
C59 O56 1.249 . S
C59 O57 1.267 . S
Dy60 O64 2.398 . S
Dy60 O65 2.491 . S
Dy60 O66 2.403 . S
Dy60 O67 2.664 . S
Dy60 O71 2.326 . S
Dy60 O75 2.310 . S
Dy60 O76 2.351 . S
C61 O72 1.185 . S
C61 O73 1.355 . S
C62 O64 1.185 . S
C62 O65 1.355 . S
Dy63 O67 2.310 . S
Dy63 O70 2.351 . S
Dy63 O72 2.398 . S
Dy63 O73 2.491 . S
Dy63 O74 2.403 . S
Dy63 O75 2.664 . S
Dy63 O77 2.326 . S
O64 Dy60 2.398 . S
O64 C62 1.185 . S
O65 Dy60 2.491 . S
O65 C62 1.355 . S
O66 Dy60 2.403 . S
O66 C68 1.254 . S
O67 Dy60 2.664 . S
O67 Dy63 2.310 . S
O67 C68 1.268 . S
C68 O66 1.254 . S
C68 O67 1.268 . S
C69 O74 1.254 . S
C69 O75 1.268 . S
O70 Dy63 2.351 . S
O70 C78 1.249 . S
O71 Dy60 2.326 . S
O71 C78 1.267 . S
O72 C61 1.185 . S
O72 Dy63 2.398 . S
O73 C61 1.355 . S
O73 Dy63 2.491 . S
O74 Dy63 2.403 . S
O74 C69 1.254 . S
O75 Dy60 2.310 . S
O75 Dy63 2.664 . S
O75 C69 1.268 . S
O76 Dy60 2.351 . S
O76 C79 1.249 . S
O77 Dy63 2.326 . S
O77 C79 1.267 . S
C78 O70 1.249 . S
C78 O71 1.267 . S
C79 O76 1.249 . S
C79 O77 1.267 . S
Dy80 O84 2.398 . S
Dy80 O85 2.491 . S
Dy80 O86 2.403 . S
Dy80 O87 2.664 . S
Dy80 O91 2.326 . S
Dy80 O95 2.310 . S
Dy80 O96 2.351 . S
C81 O92 1.185 . S
C81 O93 1.355 . S
C82 O84 1.185 . S
C82 O85 1.355 . S
Dy83 O87 2.310 . S
Dy83 O90 2.351 . S
Dy83 O92 2.398 . S
Dy83 O93 2.491 . S
Dy83 O94 2.403 . S
Dy83 O95 2.664 . S
Dy83 O97 2.326 . S
O84 Dy80 2.398 . S
O84 C82 1.185 . S
O85 Dy80 2.491 . S
O85 C82 1.355 . S
O86 Dy80 2.403 . S
O86 C88 1.254 . S
O87 Dy80 2.664 . S
O87 Dy83 2.310 . S
O87 C88 1.268 . S
C88 O86 1.254 . S
C88 O87 1.268 . S
C89 O94 1.254 . S
C89 O95 1.268 . S
O90 Dy83 2.351 . S
O90 C98 1.249 . S
O91 Dy80 2.326 . S
O91 C98 1.267 . S
O92 C81 1.185 . S
O92 Dy83 2.398 . S
O93 C81 1.355 . S
O93 Dy83 2.491 . S
O94 Dy83 2.403 . S
O94 C89 1.254 . S
O95 Dy80 2.310 . S
O95 Dy83 2.664 . S
O95 C89 1.268 . S
O96 Dy80 2.351 . S
O96 C99 1.249 . S
O97 Dy83 2.326 . S
O97 C99 1.267 . S
C98 O90 1.249 . S
C98 O91 1.267 . S
C99 O96 1.249 . S
C99 O97 1.267 . S
Dy100 O104 2.398 . S
Dy100 O105 2.491 . S
Dy100 O106 2.403 . S
Dy100 O107 2.664 . S
Dy100 O111 2.326 . S
Dy100 O115 2.310 . S
Dy100 O116 2.351 . S
C101 O112 1.185 . S
C101 O113 1.355 . S
C102 O104 1.185 . S
C102 O105 1.355 . S
Dy103 O107 2.310 . S
Dy103 O110 2.351 . S
Dy103 O112 2.398 . S
Dy103 O113 2.491 . S
Dy103 O114 2.403 . S
Dy103 O115 2.664 . S
Dy103 O117 2.326 . S
O104 Dy100 2.398 . S
O104 C102 1.185 . S
O105 Dy100 2.491 . S
O105 C102 1.355 . S
O106 Dy100 2.403 . S
O106 C108 1.254 . S
O107 Dy100 2.664 . S
O107 Dy103 2.310 . S
O107 C108 1.268 . S
C108 O106 1.254 . S
C108 O107 1.268 . S
C109 O114 1.254 . S
C109 O115 1.268 . S
O110 Dy103 2.351 . S
O110 C118 1.249 . S
O111 Dy100 2.326 . S
O111 C118 1.267 . S
O112 C101 1.185 . S
O112 Dy103 2.398 . S
O113 C101 1.355 . S
O113 Dy103 2.491 . S
O114 Dy103 2.403 . S
O114 C109 1.254 . S
O115 Dy100 2.310 . S
O115 Dy103 2.664 . S
O115 C109 1.268 . S
O116 Dy100 2.351 . S
O116 C119 1.249 . S
O117 Dy103 2.326 . S
O117 C119 1.267 . S
C118 O110 1.249 . S
C118 O111 1.267 . S
C119 O116 1.249 . S
C119 O117 1.267 . S
Dy120 O124 2.398 . S
Dy120 O125 2.491 . S
Dy120 O126 2.403 . S
Dy120 O127 2.664 . S
Dy120 O131 2.326 . S
Dy120 O135 2.310 . S
Dy120 O136 2.351 . S
C121 O132 1.185 . S
C121 O133 1.355 . S
C122 O124 1.185 . S
C122 O125 1.355 . S
Dy123 O127 2.310 . S
Dy123 O130 2.351 . S
Dy123 O132 2.398 . S
Dy123 O133 2.491 . S
Dy123 O134 2.403 . S
Dy123 O135 2.664 . S
Dy123 O137 2.326 . S
O124 Dy120 2.398 . S
O124 C122 1.185 . S
O125 Dy120 2.491 . S
O125 C122 1.355 . S
O126 Dy120 2.403 . S
O126 C128 1.254 . S
O127 Dy120 2.664 . S
O127 Dy123 2.310 . S
O127 C128 1.268 . S
C128 O126 1.254 . S
C128 O127 1.268 . S
C129 O134 1.254 . S
C129 O135 1.268 . S
O130 Dy123 2.351 . S
O130 C138 1.249 . S
O131 Dy120 2.326 . S
O131 C138 1.267 . S
O132 C121 1.185 . S
O132 Dy123 2.398 . S
O133 C121 1.355 . S
O133 Dy123 2.491 . S
O134 Dy123 2.403 . S
O134 C129 1.254 . S
O135 Dy120 2.310 . S
O135 Dy123 2.664 . S
O135 C129 1.268 . S
O136 Dy120 2.351 . S
O136 C139 1.249 . S
O137 Dy123 2.326 . S
O137 C139 1.267 . S
C138 O130 1.249 . S
C138 O131 1.267 . S
C139 O136 1.249 . S
C139 O137 1.267 . S
Dy140 O144 2.398 . S
Dy140 O145 2.491 . S
Dy140 O146 2.403 . S
Dy140 O147 2.664 . S
Dy140 O151 2.326 . S
Dy140 O155 2.310 . S
Dy140 O156 2.351 . S
C141 O152 1.185 . S
C141 O153 1.355 . S
C142 O144 1.185 . S
C142 O145 1.355 . S
Dy143 O147 2.310 . S
Dy143 O150 2.351 . S
Dy143 O152 2.398 . S
Dy143 O153 2.491 . S
Dy143 O154 2.403 . S
Dy143 O155 2.664 . S
Dy143 O157 2.326 . S
O144 Dy140 2.398 . S
O144 C142 1.185 . S
O145 Dy140 2.491 . S
O145 C142 1.355 . S
O146 Dy140 2.403 . S
O146 C148 1.254 . S
O147 Dy140 2.664 . S
O147 Dy143 2.310 . S
O147 C148 1.268 . S
C148 O146 1.254 . S
C148 O147 1.268 . S
C149 O154 1.254 . S
C149 O155 1.268 . S
O150 Dy143 2.351 . S
O150 C158 1.249 . S
O151 Dy140 2.326 . S
O151 C158 1.267 . S
O152 C141 1.185 . S
O152 Dy143 2.398 . S
O153 C141 1.355 . S
O153 Dy143 2.491 . S
O154 Dy143 2.403 . S
O154 C149 1.254 . S
O155 Dy140 2.310 . S
O155 Dy143 2.664 . S
O155 C149 1.268 . S
O156 Dy140 2.351 . S
O156 C159 1.249 . S
O157 Dy143 2.326 . S
O157 C159 1.267 . S
C158 O150 1.249 . S
C158 O151 1.267 . S
C159 O156 1.249 . S
C159 O157 1.267 . S
Dy160 O164 2.398 . S
Dy160 O165 2.491 . S
Dy160 O166 2.403 . S
Dy160 O167 2.664 . S
Dy160 O171 2.326 . S
Dy160 O175 2.310 . S
Dy160 O176 2.351 . S
C161 O172 1.185 . S
C161 O173 1.355 . S
C162 O164 1.185 . S
C162 O165 1.355 . S
Dy163 O167 2.310 . S
Dy163 O170 2.351 . S
Dy163 O172 2.398 . S
Dy163 O173 2.491 . S
Dy163 O174 2.403 . S
Dy163 O175 2.664 . S
Dy163 O177 2.326 . S
O164 Dy160 2.398 . S
O164 C162 1.185 . S
O165 Dy160 2.491 . S
O165 C162 1.355 . S
O166 Dy160 2.403 . S
O166 C168 1.254 . S
O167 Dy160 2.664 . S
O167 Dy163 2.310 . S
O167 C168 1.268 . S
C168 O166 1.254 . S
C168 O167 1.268 . S
C169 O174 1.254 . S
C169 O175 1.268 . S
O170 Dy163 2.351 . S
O170 C178 1.249 . S
O171 Dy160 2.326 . S
O171 C178 1.267 . S
O172 C161 1.185 . S
O172 Dy163 2.398 . S
O173 C161 1.355 . S
O173 Dy163 2.491 . S
O174 Dy163 2.403 . S
O174 C169 1.254 . S
O175 Dy160 2.310 . S
O175 Dy163 2.664 . S
O175 C169 1.268 . S
O176 Dy160 2.351 . S
O176 C179 1.249 . S
O177 Dy163 2.326 . S
O177 C179 1.267 . S
C178 O170 1.249 . S
C178 O171 1.267 . S
C179 O176 1.249 . S
C179 O177 1.267 . S
Dy180 O184 2.398 . S
Dy180 O185 2.491 . S
Dy180 O186 2.403 . S
Dy180 O187 2.664 . S
Dy180 O191 2.326 . S
Dy180 O195 2.310 . S
Dy180 O196 2.351 . S
C181 O192 1.185 . S
C181 O193 1.355 . S
C182 O184 1.185 . S
C182 O185 1.355 . S
Dy183 O187 2.310 . S
Dy183 O190 2.351 . S
Dy183 O192 2.398 . S
Dy183 O193 2.491 . S
Dy183 O194 2.403 . S
Dy183 O195 2.664 . S
Dy183 O197 2.326 . S
O184 Dy180 2.398 . S
O184 C182 1.185 . S
O185 Dy180 2.491 . S
O185 C182 1.355 . S
O186 Dy180 2.403 . S
O186 C188 1.254 . S
O187 Dy180 2.664 . S
O187 Dy183 2.310 . S
O187 C188 1.268 . S
C188 O186 1.254 . S
C188 O187 1.268 . S
C189 O194 1.254 . S
C189 O195 1.268 . S
O190 Dy183 2.351 . S
O190 C198 1.249 . S
O191 Dy180 2.326 . S
O191 C198 1.267 . S
O192 C181 1.185 . S
O192 Dy183 2.398 . S
O193 C181 1.355 . S
O193 Dy183 2.491 . S
O194 Dy183 2.403 . S
O194 C189 1.254 . S
O195 Dy180 2.310 . S
O195 Dy183 2.664 . S
O195 C189 1.268 . S
O196 Dy180 2.351 . S
O196 C199 1.249 . S
O197 Dy183 2.326 . S
O197 C199 1.267 . S
C198 O190 1.249 . S
C198 O191 1.267 . S
C199 O196 1.249 . S
C199 O197 1.267 . S
Dy200 O204 2.398 . S
Dy200 O205 2.491 . S
Dy200 O206 2.403 . S
Dy200 O207 2.664 . S
Dy200 O211 2.326 . S
Dy200 O215 2.310 . S
Dy200 O216 2.351 . S
C201 O212 1.185 . S
C201 O213 1.355 . S
C202 O204 1.185 . S
C202 O205 1.355 . S
Dy203 O207 2.310 . S
Dy203 O210 2.351 . S
Dy203 O212 2.398 . S
Dy203 O213 2.491 . S
Dy203 O214 2.403 . S
Dy203 O215 2.664 . S
Dy203 O217 2.326 . S
O204 Dy200 2.398 . S
O204 C202 1.185 . S
O205 Dy200 2.491 . S
O205 C202 1.355 . S
O206 Dy200 2.403 . S
O206 C208 1.254 . S
O207 Dy200 2.664 . S
O207 Dy203 2.310 . S
O207 C208 1.268 . S
C208 O206 1.254 . S
C208 O207 1.268 . S
C209 O214 1.254 . S
C209 O215 1.268 . S
O210 Dy203 2.351 . S
O210 C218 1.249 . S
O211 Dy200 2.326 . S
O211 C218 1.267 . S
O212 C201 1.185 . S
O212 Dy203 2.398 . S
O213 C201 1.355 . S
O213 Dy203 2.491 . S
O214 Dy203 2.403 . S
O214 C209 1.254 . S
O215 Dy200 2.310 . S
O215 Dy203 2.664 . S
O215 C209 1.268 . S
O216 Dy200 2.351 . S
O216 C219 1.249 . S
O217 Dy203 2.326 . S
O217 C219 1.267 . S
C218 O210 1.249 . S
C218 O211 1.267 . S
C219 O216 1.249 . S
C219 O217 1.267 . S
Dy220 O224 2.398 . S
Dy220 O225 2.491 . S
Dy220 O226 2.403 . S
Dy220 O227 2.664 . S
Dy220 O231 2.326 . S
Dy220 O235 2.310 . S
Dy220 O236 2.351 . S
C221 O232 1.185 . S
C221 O233 1.355 . S
C222 O224 1.185 . S
C222 O225 1.355 . S
Dy223 O227 2.310 . S
Dy223 O230 2.351 . S
Dy223 O232 2.398 . S
Dy223 O233 2.491 . S
Dy223 O234 2.403 . S
Dy223 O235 2.664 . S
Dy223 O237 2.326 . S
O224 Dy220 2.398 . S
O224 C222 1.185 . S
O225 Dy220 2.491 . S
O225 C222 1.355 . S
O226 Dy220 2.403 . S
O226 C228 1.254 . S
O227 Dy220 2.664 . S
O227 Dy223 2.310 . S
O227 C228 1.268 . S
C228 O226 1.254 . S
C228 O227 1.268 . S
C229 O234 1.254 . S
C229 O235 1.268 . S
O230 Dy223 2.351 . S
O230 C238 1.249 . S
O231 Dy220 2.326 . S
O231 C238 1.267 . S
O232 C221 1.185 . S
O232 Dy223 2.398 . S
O233 C221 1.355 . S
O233 Dy223 2.491 . S
O234 Dy223 2.403 . S
O234 C229 1.254 . S
O235 Dy220 2.310 . S
O235 Dy223 2.664 . S
O235 C229 1.268 . S
O236 Dy220 2.351 . S
O236 C239 1.249 . S
O237 Dy223 2.326 . S
O237 C239 1.267 . S
C238 O230 1.249 . S
C238 O231 1.267 . S
C239 O236 1.249 . S
C239 O237 1.267 . S
C240 C241 1.349 1_455 S
C240 C242 1.327 . S
C240 H265 0.950 . S
C241 C240 1.349 1_655 S
C241 C257 1.353 . S
C242 C240 1.327 . S
C242 C261 1.429 . S
C242 H266 0.950 . S
C243 C260 1.574 . S
C243 C262 1.368 . S
C243 H267 0.949 . S
H244 C248 0.949 . S
C245 C246 1.349 . S
C245 C247 1.327 . S
C245 H268 0.950 . S
C246 C245 1.349 . S
C246 C258 1.349 . S
C247 C245 1.327 . S
C247 C263 1.429 . S
C247 H269 0.950 . S
C248 H244 0.949 . S
C248 C256 1.574 . S
C248 C264 1.368 . S
H249 C257 0.955 . S
H250 C255 0.950 . S
H251 C256 0.949 . S
H252 C258 0.950 . S
H253 C259 0.950 . S
H254 C260 0.949 . S
C255 H250 0.950 . S
C255 C257 1.318 1_455 S
C255 C261 1.429 . S
C256 C248 1.574 . S
C256 H251 0.949 . S
C256 C262 1.368 . S
C257 C241 1.353 . S
C257 H249 0.955 . S
C257 C255 1.318 1_655 S
C258 C246 1.349 . S
C258 H252 0.950 . S
C258 C259 1.327 . S
C259 H253 0.950 . S
C259 C258 1.327 . S
C259 C263 1.429 . S
C260 C243 1.574 . S
C260 H254 0.949 . S
C260 C264 1.368 . S
C261 C242 1.429 . S
C261 C255 1.429 . S
C261 C262 1.523 . S
C262 C243 1.368 . S
C262 C256 1.368 . S
C262 C261 1.523 . S
C263 C247 1.429 . S
C263 C259 1.429 . S
C263 C264 1.523 . S
C264 C248 1.368 . S
C264 C260 1.368 . S
C264 C263 1.523 . S
H265 C240 0.950 . S
H266 C242 0.950 . S
H267 C243 0.949 . S
H268 C245 0.950 . S
H269 C247 0.950 . S
C270 C271 1.349 1_565 S
C270 C272 1.327 . S
C270 H295 0.950 . S
C271 C270 1.349 1_545 S
C271 C287 1.349 . S
C272 C270 1.327 . S
C272 C291 1.429 . S
C272 H296 0.950 . S
C273 C290 1.574 . S
C273 C292 1.368 . S
C273 H297 0.949 . S
H274 C278 0.949 . S
C275 C276 1.349 . S
C275 C277 1.327 . S
C275 H298 0.950 . S
C276 C275 1.349 . S
C276 C288 1.349 . S
C277 C275 1.327 . S
C277 C293 1.429 . S
C277 H299 0.950 . S
C278 H274 0.949 . S
C278 C286 1.574 . S
C278 C294 1.368 . S
H279 C287 0.950 . S
H280 C285 0.950 . S
H281 C286 0.949 . S
H282 C288 0.950 . S
H283 C289 0.950 . S
H284 C290 0.949 . S
C285 H280 0.950 . S
C285 C287 1.327 1_565 S
C285 C291 1.429 . S
C286 C278 1.574 . S
C286 H281 0.949 . S
C286 C292 1.368 . S
C287 C271 1.349 . S
C287 H279 0.950 . S
C287 C285 1.327 1_545 S
C288 C276 1.349 . S
C288 H282 0.950 . S
C288 C289 1.327 . S
C289 H283 0.950 . S
C289 C288 1.327 . S
C289 C293 1.429 . S
C290 C273 1.574 . S
C290 H284 0.949 . S
C290 C294 1.368 . S
C291 C272 1.429 . S
C291 C285 1.429 . S
C291 C292 1.523 . S
C292 C273 1.368 . S
C292 C286 1.368 . S
C292 C291 1.523 . S
C293 C277 1.429 . S
C293 C289 1.429 . S
C293 C294 1.523 1_655 S
C294 C278 1.368 . S
C294 C290 1.368 . S
C294 C293 1.523 1_455 S
H295 C270 0.950 . S
H296 C272 0.950 . S
H297 C273 0.949 . S
H298 C275 0.950 . S
H299 C277 0.950 . S
C300 C301 1.349 . S
C300 C302 1.327 . S
C300 H325 0.950 . S
C301 C300 1.349 . S
C301 C317 1.349 . S
C302 C300 1.327 . S
C302 C321 1.429 . S
C302 H326 0.950 . S
C303 C320 1.574 . S
C303 C322 1.368 . S
C303 H327 0.949 . S
H304 C308 0.949 . S
C305 C306 1.349 . S
C305 C307 1.327 . S
C305 H328 0.950 . S
C306 C305 1.349 . S
C306 C318 1.349 . S
C307 C305 1.327 . S
C307 C323 1.429 . S
C307 H329 0.950 . S
C308 H304 0.949 . S
C308 C316 1.574 . S
C308 C324 1.368 . S
H309 C317 0.950 . S
H310 C315 0.950 . S
H311 C316 0.949 . S
H312 C318 0.950 . S
H313 C319 0.950 . S
H314 C320 0.949 . S
C315 H310 0.950 . S
C315 C317 1.327 . S
C315 C321 1.429 . S
C316 C308 1.574 . S
C316 H311 0.949 . S
C316 C322 1.368 . S
C317 C301 1.349 . S
C317 H309 0.950 . S
C317 C315 1.327 . S
C318 C306 1.349 . S
C318 H312 0.950 . S
C318 C319 1.327 . S
C319 H313 0.950 . S
C319 C318 1.327 . S
C319 C323 1.429 . S
C320 C303 1.574 . S
C320 H314 0.949 . S
C320 C324 1.368 . S
C321 C302 1.429 . S
C321 C315 1.429 . S
C321 C322 1.523 1_545 S
C322 C303 1.368 . S
C322 C316 1.368 . S
C322 C321 1.523 1_565 S
C323 C307 1.429 . S
C323 C319 1.429 . S
C323 C324 1.523 . S
C324 C308 1.368 . S
C324 C320 1.368 . S
C324 C323 1.523 . S
H325 C300 0.950 . S
H326 C302 0.950 . S
H327 C303 0.949 . S
H328 C305 0.950 . S
H329 C307 0.950 . S
C330 C331 1.349 . S
C330 C332 1.327 . S
C330 H355 0.950 . S
C331 C330 1.349 . S
C331 C347 1.349 . S
C332 C330 1.327 . S
C332 C351 1.429 . S
C332 H356 0.950 . S
C333 C350 1.574 . S
C333 C352 1.368 . S
C333 H357 0.949 . S
H334 C338 0.949 . S
C335 C336 1.349 1_455 S
C335 C337 1.327 . S
C335 H358 0.950 . S
C336 C335 1.349 1_655 S
C336 C348 1.349 . S
C337 C335 1.327 . S
C337 C353 1.429 . S
C337 H359 0.950 . S
C338 H334 0.949 . S
C338 C346 1.574 . S
C338 C354 1.368 . S
H339 C347 0.950 . S
H340 C345 0.950 . S
H341 C346 0.949 . S
H342 C348 0.950 . S
H343 C349 0.950 . S
H344 C350 0.949 . S
C345 H340 0.950 . S
C345 C347 1.327 . S
C345 C351 1.429 . S
C346 C338 1.574 . S
C346 H341 0.949 . S
C346 C352 1.368 . S
C347 C331 1.349 . S
C347 H339 0.950 . S
C347 C345 1.327 . S
C348 C336 1.349 . S
C348 H342 0.950 . S
C348 C349 1.327 1_655 S
C349 H343 0.950 . S
C349 C348 1.327 1_455 S
C349 C353 1.429 . S
C350 C333 1.574 . S
C350 H344 0.949 . S
C350 C354 1.368 . S
C351 C332 1.429 . S
C351 C345 1.429 . S
C351 C352 1.523 . S
C352 C333 1.368 . S
C352 C346 1.368 . S
C352 C351 1.523 . S
C353 C337 1.429 . S
C353 C349 1.429 . S
C353 C354 1.523 . S
C354 C338 1.368 . S
C354 C350 1.368 . S
C354 C353 1.523 . S
H355 C330 0.950 . S
H356 C332 0.950 . S
H357 C333 0.949 . S
H358 C335 0.950 . S
H359 C337 0.950 . S
C360 C361 1.356 1_565 S
C360 C362 1.336 . S
C360 H385 0.934 1_565 S
C361 C360 1.356 1_545 S
C361 C377 1.349 1_545 S
C362 C360 1.336 . S
C362 C381 1.429 . S
C362 H386 0.950 . S
C363 C380 1.574 . S
C363 C382 1.368 . S
C363 H387 0.949 . S
H364 C368 0.949 1_655 S
C365 C366 1.349 . S
C365 C367 1.327 . S
C365 H388 0.950 . S
C366 C365 1.349 . S
C366 C378 1.349 . S
C367 C365 1.327 . S
C367 C383 1.429 . S
C367 H389 0.950 . S
C368 H364 0.949 1_455 S
C368 C376 1.574 . S
C368 C384 1.368 . S
H369 C377 0.950 . S
H370 C375 0.950 . S
H371 C376 0.949 . S
H372 C378 0.950 . S
H373 C379 0.950 . S
H374 C380 0.949 . S
C375 H370 0.950 . S
C375 C377 1.327 . S
C375 C381 1.429 . S
C376 C368 1.574 . S
C376 H371 0.949 . S
C376 C382 1.368 . S
C377 C361 1.349 1_565 S
C377 H369 0.950 . S
C377 C375 1.327 . S
C378 C366 1.349 . S
C378 H372 0.950 . S
C378 C379 1.327 . S
C379 H373 0.950 . S
C379 C378 1.327 . S
C379 C383 1.429 . S
C380 C363 1.574 . S
C380 H374 0.949 . S
C380 C384 1.368 . S
C381 C362 1.429 . S
C381 C375 1.429 . S
C381 C382 1.523 . S
C382 C363 1.368 . S
C382 C376 1.368 . S
C382 C381 1.523 . S
C383 C367 1.429 . S
C383 C379 1.429 . S
C383 C384 1.523 1_655 S
C384 C368 1.368 . S
C384 C380 1.368 . S
C384 C383 1.523 1_455 S
H385 C360 0.934 1_545 S
H386 C362 0.950 . S
H387 C363 0.949 . S
H388 C365 0.950 . S
H389 C367 0.950 . S
C390 C391 1.349 . S
C390 C392 1.327 . S
C390 H415 0.950 . S
C391 C390 1.349 . S
C391 C407 1.349 . S
C392 C390 1.327 . S
C392 C411 1.429 . S
C392 H416 0.950 . S
C393 C410 1.574 . S
C393 C412 1.368 . S
C393 H417 0.949 . S
H394 C398 0.949 . S
C395 C396 1.349 . S
C395 C397 1.327 . S
C395 H418 0.950 . S
C396 C395 1.349 . S
C396 C408 1.349 . S
C397 C395 1.327 . S
C397 C413 1.429 . S
C397 H419 0.950 . S
C398 H394 0.949 . S
C398 C406 1.574 . S
C398 C414 1.368 . S
H399 C407 0.950 . S
H400 C405 0.950 . S
H401 C406 0.949 . S
H402 C408 0.950 . S
H403 C409 0.950 . S
H404 C410 0.949 . S
C405 H400 0.950 . S
C405 C407 1.327 . S
C405 C411 1.429 . S
C406 C398 1.574 . S
C406 H401 0.949 . S
C406 C412 1.368 . S
C407 C391 1.349 . S
C407 H399 0.950 . S
C407 C405 1.327 . S
C408 C396 1.349 . S
C408 H402 0.950 . S
C408 C409 1.327 . S
C409 H403 0.950 . S
C409 C408 1.327 . S
C409 C413 1.429 . S
C410 C393 1.574 . S
C410 H404 0.949 . S
C410 C414 1.368 . S
C411 C392 1.429 . S
C411 C405 1.429 . S
C411 C412 1.523 . S
C412 C393 1.368 . S
C412 C406 1.368 . S
C412 C411 1.523 . S
C413 C397 1.429 . S
C413 C409 1.429 . S
C413 C414 1.523 1_545 S
C414 C398 1.368 . S
C414 C410 1.368 . S
C414 C413 1.523 1_565 S
H415 C390 0.950 . S
H416 C392 0.950 . S
H417 C393 0.949 . S
H418 C395 0.950 . S
H419 C397 0.950 . S
C420 C421 1.349 1_545 S
C420 C422 1.327 . S
C420 H445 0.950 . S
C421 C420 1.349 1_565 S
C421 C437 1.349 . S
C422 C420 1.327 . S
C422 C441 1.429 . S
C422 H446 0.950 . S
C423 C440 1.574 . S
C423 C442 1.368 . S
C423 H447 0.949 . S
H424 C428 0.949 . S
C425 C426 1.349 . S
C425 C427 1.327 . S
C425 H448 0.950 . S
C426 C425 1.349 . S
C426 C438 1.349 . S
C427 C425 1.327 . S
C427 C443 1.429 . S
C427 H449 0.950 . S
C428 H424 0.949 . S
C428 C436 1.574 . S
C428 C444 1.368 . S
H429 C437 0.950 . S
H430 C435 0.950 . S
H431 C436 0.949 . S
H432 C438 0.950 . S
H433 C439 0.950 . S
H434 C440 0.949 . S
C435 H430 0.950 . S
C435 C437 1.327 1_545 S
C435 C441 1.429 . S
C436 C428 1.574 . S
C436 H431 0.949 . S
C436 C442 1.368 . S
C437 C421 1.349 . S
C437 H429 0.950 . S
C437 C435 1.327 1_565 S
C438 C426 1.349 . S
C438 H432 0.950 . S
C438 C439 1.327 . S
C439 H433 0.950 . S
C439 C438 1.327 . S
C439 C443 1.429 . S
C440 C423 1.574 . S
C440 H434 0.949 . S
C440 C444 1.368 . S
C441 C422 1.429 . S
C441 C435 1.429 . S
C441 C442 1.523 . S
C442 C423 1.368 . S
C442 C436 1.368 . S
C442 C441 1.523 . S
C443 C427 1.429 . S
C443 C439 1.429 . S
C443 C444 1.523 . S
C444 C428 1.368 . S
C444 C440 1.368 . S
C444 C443 1.523 . S
H445 C420 0.950 . S
H446 C422 0.950 . S
H447 C423 0.949 . S
H448 C425 0.950 . S
H449 C427 0.950 . S
C450 C451 1.349 . S
C450 C452 1.327 . S
C450 H475 0.950 . S
C451 C450 1.349 . S
C451 C467 1.349 . S
C452 C450 1.327 . S
C452 C471 1.429 . S
C452 H476 0.950 . S
C453 C470 1.574 . S
C453 C472 1.368 . S
C453 H477 0.949 . S
H454 C458 0.949 . S
C455 C456 1.349 . S
C455 C457 1.327 . S
C455 H478 0.950 . S
C456 C455 1.349 . S
C456 C468 1.349 . S
C457 C455 1.327 . S
C457 C473 1.429 . S
C457 H479 0.950 . S
C458 H454 0.949 . S
C458 C466 1.574 . S
C458 C474 1.368 . S
H459 C467 0.950 . S
H460 C465 0.950 . S
H461 C466 0.949 1_455 S
H462 C468 0.950 . S
H463 C469 0.950 . S
H464 C470 0.949 . S
C465 H460 0.950 . S
C465 C467 1.327 . S
C465 C471 1.429 . S
C466 C458 1.574 . S
C466 H461 0.949 1_655 S
C466 C472 1.368 . S
C467 C451 1.349 . S
C467 H459 0.950 . S
C467 C465 1.327 . S
C468 C456 1.349 . S
C468 H462 0.950 . S
C468 C469 1.327 . S
C469 H463 0.950 . S
C469 C468 1.327 . S
C469 C473 1.429 . S
C470 C453 1.574 . S
C470 H464 0.949 . S
C470 C474 1.368 . S
C471 C452 1.429 . S
C471 C465 1.429 . S
C471 C472 1.523 1_455 S
C472 C453 1.368 . S
C472 C466 1.368 . S
C472 C471 1.523 1_655 S
C473 C457 1.429 . S
C473 C469 1.429 . S
C473 C474 1.523 . S
C474 C458 1.368 . S
C474 C470 1.368 . S
C474 C473 1.523 . S
H475 C450 0.950 . S
H476 C452 0.950 . S
H477 C453 0.949 . S
H478 C455 0.950 . S
H479 C457 0.950 . S
C480 C481 1.349 . S
C480 C482 1.327 . S
C480 H505 0.950 . S
C481 C480 1.349 . S
C481 C497 1.349 . S
C482 C480 1.327 . S
C482 C501 1.429 . S
C482 H506 0.950 . S
C483 C500 1.574 . S
C483 C502 1.368 . S
C483 H507 0.949 1_545 S
H484 C488 0.949 . S
C485 C486 1.342 . S
C485 C487 1.320 1_455 S
C485 H508 0.965 . S
C486 C485 1.342 . S
C486 C498 1.349 1_455 S
C487 C485 1.320 1_655 S
C487 C503 1.429 . S
C487 H509 0.950 . S
C488 H484 0.949 . S
C488 C496 1.574 . S
C488 C504 1.368 . S
H489 C497 0.950 . S
H490 C495 0.950 . S
H491 C496 0.949 . S
H492 C498 0.950 . S
H493 C499 0.950 . S
H494 C500 0.949 . S
C495 H490 0.950 . S
C495 C497 1.327 . S
C495 C501 1.429 . S
C496 C488 1.574 . S
C496 H491 0.949 . S
C496 C502 1.368 . S
C497 C481 1.349 . S
C497 H489 0.950 . S
C497 C495 1.327 . S
C498 C486 1.349 1_655 S
C498 H492 0.950 . S
C498 C499 1.327 . S
C499 H493 0.950 . S
C499 C498 1.327 . S
C499 C503 1.429 . S
C500 C483 1.574 . S
C500 H494 0.949 . S
C500 C504 1.368 . S
C501 C482 1.429 . S
C501 C495 1.429 . S
C501 C502 1.523 1_565 S
C502 C483 1.368 . S
C502 C496 1.368 . S
C502 C501 1.523 1_545 S
C503 C487 1.429 . S
C503 C499 1.429 . S
C503 C504 1.523 . S
C504 C488 1.368 . S
C504 C500 1.368 . S
C504 C503 1.523 . S
H505 C480 0.950 . S
H506 C482 0.950 . S
H507 C483 0.949 1_565 S
H508 C485 0.965 . S
H509 C487 0.950 . S
C510 C511 1.349 . S
C510 C512 1.327 . S
C510 H535 0.950 . S
C511 C510 1.349 . S
C511 C527 1.349 . S
C512 C510 1.327 . S
C512 C531 1.429 . S
C512 H536 0.950 . S
C513 C530 1.574 . S
C513 C532 1.368 . S
C513 H537 0.949 . S
H514 C518 0.949 . S
C515 C516 1.349 . S
C515 C517 1.327 1_565 S
C515 H538 0.950 . S
C516 C515 1.349 . S
C516 C528 1.349 1_565 S
C517 C515 1.327 1_545 S
C517 C533 1.429 . S
C517 H539 0.950 . S
C518 H514 0.949 . S
C518 C526 1.574 . S
C518 C534 1.368 . S
H519 C527 0.950 . S
H520 C525 0.950 . S
H521 C526 0.949 . S
H522 C528 0.950 . S
H523 C529 0.950 . S
H524 C530 0.949 . S
C525 H520 0.950 . S
C525 C527 1.327 . S
C525 C531 1.429 . S
C526 C518 1.574 . S
C526 H521 0.949 . S
C526 C532 1.368 . S
C527 C511 1.349 . S
C527 H519 0.950 . S
C527 C525 1.327 . S
C528 C516 1.349 1_545 S
C528 H522 0.950 . S
C528 C529 1.327 . S
C529 H523 0.950 . S
C529 C528 1.327 . S
C529 C533 1.429 . S
C530 C513 1.574 . S
C530 H524 0.949 . S
C530 C534 1.368 . S
C531 C512 1.429 . S
C531 C525 1.429 . S
C531 C532 1.523 . S
C532 C513 1.368 . S
C532 C526 1.368 . S
C532 C531 1.523 . S
C533 C517 1.429 . S
C533 C529 1.429 . S
C533 C534 1.523 . S
C534 C518 1.368 . S
C534 C530 1.368 . S
C534 C533 1.523 . S
H535 C510 0.950 . S
H536 C512 0.950 . S
H537 C513 0.949 . S
H538 C515 0.950 . S
H539 C517 0.950 . S
C540 C541 1.349 . S
C540 C542 1.327 . S
C540 H565 0.950 . S
C541 C540 1.349 . S
C541 C557 1.349 . S
C542 C540 1.327 . S
C542 C561 1.429 . S
C542 H566 0.950 . S
C543 C560 1.574 . S
C543 C562 1.368 . S
C543 H567 0.949 . S
H544 C548 0.949 . S
C545 C546 1.349 . S
C545 C547 1.327 . S
C545 H568 0.950 . S
C546 C545 1.349 . S
C546 C558 1.349 . S
C547 C545 1.327 . S
C547 C563 1.429 . S
C547 H569 0.950 . S
C548 H544 0.949 . S
C548 C556 1.574 . S
C548 C564 1.368 . S
H549 C557 0.950 . S
H550 C555 0.950 . S
H551 C556 0.949 1_455 S
H552 C558 0.950 . S
H553 C559 0.950 . S
H554 C560 0.949 . S
C555 H550 0.950 . S
C555 C557 1.327 . S
C555 C561 1.429 . S
C556 C548 1.574 . S
C556 H551 0.949 1_655 S
C556 C562 1.368 . S
C557 C541 1.349 . S
C557 H549 0.950 . S
C557 C555 1.327 . S
C558 C546 1.349 . S
C558 H552 0.950 . S
C558 C559 1.327 . S
C559 H553 0.950 . S
C559 C558 1.327 . S
C559 C563 1.429 . S
C560 C543 1.574 . S
C560 H554 0.949 . S
C560 C564 1.368 . S
C561 C542 1.429 . S
C561 C555 1.429 . S
C561 C562 1.523 1_455 S
C562 C543 1.368 . S
C562 C556 1.368 . S
C562 C561 1.523 1_655 S
C563 C547 1.429 . S
C563 C559 1.429 . S
C563 C564 1.523 . S
C564 C548 1.368 . S
C564 C560 1.368 . S
C564 C563 1.523 . S
H565 C540 0.950 . S
H566 C542 0.950 . S
H567 C543 0.949 . S
H568 C545 0.950 . S
H569 C547 0.950 . S
C570 C571 1.349 1_655 S
C570 C572 1.327 . S
C570 H595 0.950 1_655 S
C571 C570 1.349 1_455 S
C571 C587 1.349 1_455 S
C572 C570 1.327 . S
C572 C591 1.429 . S
C572 H596 0.950 . S
C573 C590 1.574 . S
C573 C592 1.368 . S
C573 H597 0.949 . S
H574 C578 0.949 1_565 S
C575 C576 1.349 . S
C575 C577 1.327 . S
C575 H598 0.950 . S
C576 C575 1.349 . S
C576 C588 1.349 . S
C577 C575 1.327 . S
C577 C593 1.429 . S
C577 H599 0.950 . S
C578 H574 0.949 1_545 S
C578 C586 1.574 . S
C578 C594 1.368 . S
H579 C587 0.950 . S
H580 C585 0.950 . S
H581 C586 0.949 . S
H582 C588 0.950 . S
H583 C589 0.950 . S
H584 C590 0.949 . S
C585 H580 0.950 . S
C585 C587 1.327 . S
C585 C591 1.429 . S
C586 C578 1.574 . S
C586 H581 0.949 . S
C586 C592 1.368 . S
C587 C571 1.349 1_655 S
C587 H579 0.950 . S
C587 C585 1.327 . S
C588 C576 1.349 . S
C588 H582 0.950 . S
C588 C589 1.327 . S
C589 H583 0.950 . S
C589 C588 1.327 . S
C589 C593 1.429 . S
C590 C573 1.574 . S
C590 H584 0.949 . S
C590 C594 1.368 . S
C591 C572 1.429 . S
C591 C585 1.429 . S
C591 C592 1.523 . S
C592 C573 1.368 . S
C592 C586 1.368 . S
C592 C591 1.523 . S
C593 C577 1.429 . S
C593 C589 1.429 . S
C593 C594 1.523 1_565 S
C594 C578 1.368 . S
C594 C590 1.368 . S
C594 C593 1.523 1_545 S
H595 C570 0.950 1_455 S
H596 C572 0.950 . S
H597 C573 0.949 . S
H598 C575 0.950 . S
H599 C577 0.950 . S
C600 C601 1.349 . S
C600 C602 1.327 . S
C600 H625 0.950 . S
C601 C600 1.349 . S
C601 C617 1.349 . S
C602 C600 1.327 . S
C602 C621 1.429 . S
C602 H626 0.950 . S
C603 C620 1.574 . S
C603 C622 1.368 . S
C603 H627 0.949 . S
H604 C608 0.949 . S
C605 C606 1.349 . S
C605 C607 1.327 . S
C605 H628 0.950 . S
C606 C605 1.349 . S
C606 C618 1.349 . S
C607 C605 1.327 . S
C607 C623 1.429 . S
C607 H629 0.950 . S
C608 H604 0.949 . S
C608 C616 1.574 . S
C608 C624 1.368 . S
H609 C617 0.950 . S
H610 C615 0.950 . S
H611 C616 0.949 . S
H612 C618 0.950 . S
H613 C619 0.950 . S
H614 C620 0.949 . S
C615 H610 0.950 . S
C615 C617 1.327 . S
C615 C621 1.429 . S
C616 C608 1.574 . S
C616 H611 0.949 . S
C616 C622 1.368 . S
C617 C601 1.349 . S
C617 H609 0.950 . S
C617 C615 1.327 . S
C618 C606 1.349 . S
C618 H612 0.950 . S
C618 C619 1.327 . S
C619 H613 0.950 . S
C619 C618 1.327 . S
C619 C623 1.429 . S
C620 C603 1.574 . S
C620 H614 0.949 . S
C620 C624 1.368 . S
C621 C602 1.429 . S
C621 C615 1.429 . S
C621 C622 1.523 . S
C622 C603 1.368 . S
C622 C616 1.368 . S
C622 C621 1.523 . S
C623 C607 1.429 . S
C623 C619 1.429 . S
C623 C624 1.523 . S
C624 C608 1.368 . S
C624 C620 1.368 . S
C624 C623 1.523 . S
H625 C600 0.950 . S
H626 C602 0.950 . S
H627 C603 0.949 . S
H628 C605 0.950 . S
H629 C607 0.950 . S
C630 C631 1.349 . S
C630 C632 1.327 . S
C630 H655 0.950 . S
C631 C630 1.349 . S
C631 C647 1.349 . S
C632 C630 1.327 . S
C632 C651 1.429 . S
C632 H656 0.950 . S
C633 C650 1.574 . S
C633 C652 1.368 . S
C633 H657 0.949 . S
H634 C638 0.949 . S
C635 C636 1.349 . S
C635 C637 1.327 . S
C635 H658 0.950 . S
C636 C635 1.349 . S
C636 C648 1.349 . S
C637 C635 1.327 . S
C637 C653 1.429 . S
C637 H659 0.950 . S
C638 H634 0.949 . S
C638 C646 1.574 . S
C638 C654 1.368 . S
H639 C647 0.950 . S
H640 C645 0.950 . S
H641 C646 0.949 . S
H642 C648 0.950 . S
H643 C649 0.950 . S
H644 C650 0.949 . S
C645 H640 0.950 . S
C645 C647 1.327 . S
C645 C651 1.429 . S
C646 C638 1.574 . S
C646 H641 0.949 . S
C646 C652 1.368 . S
C647 C631 1.349 . S
C647 H639 0.950 . S
C647 C645 1.327 . S
C648 C636 1.349 . S
C648 H642 0.950 . S
C648 C649 1.327 . S
C649 H643 0.950 . S
C649 C648 1.327 . S
C649 C653 1.429 . S
C650 C633 1.574 . S
C650 H644 0.949 . S
C650 C654 1.368 . S
C651 C632 1.429 . S
C651 C645 1.429 . S
C651 C652 1.523 . S
C652 C633 1.368 . S
C652 C646 1.368 . S
C652 C651 1.523 . S
C653 C637 1.429 . S
C653 C649 1.429 . S
C653 C654 1.523 . S
C654 C638 1.368 . S
C654 C650 1.368 . S
C654 C653 1.523 . S
H655 C630 0.950 . S
H656 C632 0.950 . S
H657 C633 0.949 . S
H658 C635 0.950 . S
H659 C637 0.950 . S
C660 C661 1.349 . S
C660 C662 1.327 . S
C660 H685 0.950 . S
C661 C660 1.349 . S
C661 C677 1.349 . S
C662 C660 1.327 . S
C662 C681 1.429 . S
C662 H686 0.950 . S
C663 C680 1.574 . S
C663 C682 1.368 . S
C663 H687 0.949 . S
H664 C668 0.949 . S
C665 C666 1.349 . S
C665 C667 1.327 . S
C665 H688 0.950 . S
C666 C665 1.349 . S
C666 C678 1.349 . S
C667 C665 1.327 . S
C667 C683 1.429 . S
C667 H689 0.950 . S
C668 H664 0.949 . S
C668 C676 1.574 . S
C668 C684 1.368 . S
H669 C677 0.950 . S
H670 C675 0.950 . S
H671 C676 0.949 . S
H672 C678 0.950 . S
H673 C679 0.950 . S
H674 C680 0.949 . S
C675 H670 0.950 . S
C675 C677 1.327 . S
C675 C681 1.429 . S
C676 C668 1.574 . S
C676 H671 0.949 . S
C676 C682 1.368 . S
C677 C661 1.349 . S
C677 H669 0.950 . S
C677 C675 1.327 . S
C678 C666 1.349 . S
C678 H672 0.950 . S
C678 C679 1.327 . S
C679 H673 0.950 . S
C679 C678 1.327 . S
C679 C683 1.429 . S
C680 C663 1.574 . S
C680 H674 0.949 . S
C680 C684 1.368 . S
C681 C662 1.429 . S
C681 C675 1.429 . S
C681 C682 1.523 . S
C682 C663 1.368 . S
C682 C676 1.368 . S
C682 C681 1.523 . S
C683 C667 1.429 . S
C683 C679 1.429 . S
C683 C684 1.523 . S
C684 C668 1.368 . S
C684 C680 1.368 . S
C684 C683 1.523 . S
H685 C660 0.950 . S
H686 C662 0.950 . S
H687 C663 0.949 . S
H688 C665 0.950 . S
H689 C667 0.950 . S
C690 C691 1.349 . S
C690 C692 1.327 . S
C690 H715 0.950 . S
C691 C690 1.349 . S
C691 C707 1.349 . S
C692 C690 1.327 . S
C692 C711 1.429 . S
C692 H716 0.950 . S
C693 C710 1.574 . S
C693 C712 1.368 . S
C693 H717 0.949 . S
H694 C698 0.949 . S
C695 C696 1.349 . S
C695 C697 1.327 . S
C695 H718 0.950 . S
C696 C695 1.349 . S
C696 C708 1.349 . S
C697 C695 1.327 . S
C697 C713 1.429 . S
C697 H719 0.950 . S
C698 H694 0.949 . S
C698 C706 1.574 . S
C698 C714 1.368 . S
H699 C707 0.950 . S
H700 C705 0.950 . S
H701 C706 0.949 . S
H702 C708 0.950 . S
H703 C709 0.950 . S
H704 C710 0.949 . S
C705 H700 0.950 . S
C705 C707 1.327 . S
C705 C711 1.429 . S
C706 C698 1.574 . S
C706 H701 0.949 . S
C706 C712 1.368 . S
C707 C691 1.349 . S
C707 H699 0.950 . S
C707 C705 1.327 . S
C708 C696 1.349 . S
C708 H702 0.950 . S
C708 C709 1.327 . S
C709 H703 0.950 . S
C709 C708 1.327 . S
C709 C713 1.429 . S
C710 C693 1.574 . S
C710 H704 0.949 . S
C710 C714 1.368 . S
C711 C692 1.429 . S
C711 C705 1.429 . S
C711 C712 1.523 . S
C712 C693 1.368 . S
C712 C706 1.368 . S
C712 C711 1.523 . S
C713 C697 1.429 . S
C713 C709 1.429 . S
C713 C714 1.523 . S
C714 C698 1.368 . S
C714 C710 1.368 . S
C714 C713 1.523 . S
H715 C690 0.950 . S
H716 C692 0.950 . S
H717 C693 0.949 . S
H718 C695 0.950 . S
H719 C697 0.950 . S
C720 C721 1.349 . S
C720 C722 1.327 . S
C720 H745 0.950 . S
C721 C720 1.349 . S
C721 C737 1.349 . S
C722 C720 1.327 . S
C722 C741 1.429 . S
C722 H746 0.950 . S
C723 C740 1.574 . S
C723 C742 1.368 . S
C723 H747 0.949 . S
H724 C728 0.949 . S
C725 C726 1.349 . S
C725 C727 1.327 . S
C725 H748 0.950 . S
C726 C725 1.349 . S
C726 C738 1.349 . S
C727 C725 1.327 . S
C727 C743 1.429 . S
C727 H749 0.950 . S
C728 H724 0.949 . S
C728 C736 1.574 . S
C728 C744 1.368 . S
H729 C737 0.950 . S
H730 C735 0.950 . S
H731 C736 0.949 . S
H732 C738 0.950 . S
H733 C739 0.950 . S
H734 C740 0.949 . S
C735 H730 0.950 . S
C735 C737 1.327 . S
C735 C741 1.429 . S
C736 C728 1.574 . S
C736 H731 0.949 . S
C736 C742 1.368 . S
C737 C721 1.349 . S
C737 H729 0.950 . S
C737 C735 1.327 . S
C738 C726 1.349 . S
C738 H732 0.950 . S
C738 C739 1.327 . S
C739 H733 0.950 . S
C739 C738 1.327 . S
C739 C743 1.429 . S
C740 C723 1.574 . S
C740 H734 0.949 . S
C740 C744 1.368 . S
C741 C722 1.429 . S
C741 C735 1.429 . S
C741 C742 1.523 . S
C742 C723 1.368 . S
C742 C736 1.368 . S
C742 C741 1.523 . S
C743 C727 1.429 . S
C743 C739 1.429 . S
C743 C744 1.523 . S
C744 C728 1.368 . S
C744 C740 1.368 . S
C744 C743 1.523 . S
H745 C720 0.950 . S
H746 C722 0.950 . S
H747 C723 0.949 . S
H748 C725 0.950 . S
H749 C727 0.950 . S
C750 C751 1.349 . S
C750 C752 1.327 . S
C750 H775 0.950 . S
C751 C750 1.349 . S
C751 C767 1.349 . S
C752 C750 1.327 . S
C752 C771 1.429 . S
C752 H776 0.950 . S
C753 C770 1.574 . S
C753 C772 1.368 . S
C753 H777 0.949 . S
H754 C758 0.949 . S
C755 C756 1.349 . S
C755 C757 1.327 . S
C755 H778 0.950 . S
C756 C755 1.349 . S
C756 C768 1.349 . S
C757 C755 1.327 . S
C757 C773 1.429 . S
C757 H779 0.950 . S
C758 H754 0.949 . S
C758 C766 1.574 . S
C758 C774 1.368 . S
H759 C767 0.950 . S
H760 C765 0.950 . S
H761 C766 0.949 . S
H762 C768 0.950 . S
H763 C769 0.950 . S
H764 C770 0.949 . S
C765 H760 0.950 . S
C765 C767 1.327 . S
C765 C771 1.429 . S
C766 C758 1.574 . S
C766 H761 0.949 . S
C766 C772 1.368 . S
C767 C751 1.349 . S
C767 H759 0.950 . S
C767 C765 1.327 . S
C768 C756 1.349 . S
C768 H762 0.950 . S
C768 C769 1.327 . S
C769 H763 0.950 . S
C769 C768 1.327 . S
C769 C773 1.429 . S
C770 C753 1.574 . S
C770 H764 0.949 . S
C770 C774 1.368 . S
C771 C752 1.429 . S
C771 C765 1.429 . S
C771 C772 1.523 . S
C772 C753 1.368 . S
C772 C766 1.368 . S
C772 C771 1.523 . S
C773 C757 1.429 . S
C773 C769 1.429 . S
C773 C774 1.523 . S
C774 C758 1.368 . S
C774 C770 1.368 . S
C774 C773 1.523 . S
H775 C750 0.950 . S
H776 C752 0.950 . S
H777 C753 0.949 . S
H778 C755 0.950 . S
H779 C757 0.950 . S
C780 C781 1.349 . S
C780 C782 1.327 . S
C780 H805 0.950 . S
C781 C780 1.349 . S
C781 C797 1.349 . S
C782 C780 1.327 . S
C782 C801 1.429 . S
C782 H806 0.950 . S
C783 C800 1.574 1_566 S
C783 C802 1.368 . S
C783 H807 0.949 . S
H784 C788 0.949 . S
C785 C786 1.349 . S
C785 C787 1.327 . S
C785 H808 0.950 . S
C786 C785 1.349 . S
C786 C798 1.349 . S
C787 C785 1.327 . S
C787 C803 1.429 . S
C787 H809 0.950 . S
C788 H784 0.949 . S
C788 C796 1.574 1_544 S
C788 C804 1.368 . S
H789 C797 0.950 . S
H790 C795 0.950 . S
H791 C796 0.949 . S
H792 C798 0.950 . S
H793 C799 0.950 . S
H794 C800 0.949 . S
C795 H790 0.950 . S
C795 C797 1.327 . S
C795 C801 1.429 . S
C796 C788 1.574 1_566 S
C796 H791 0.949 . S
C796 C802 1.368 . S
C797 C781 1.349 . S
C797 H789 0.950 . S
C797 C795 1.327 . S
C798 C786 1.349 . S
C798 H792 0.950 . S
C798 C799 1.327 . S
C799 H793 0.950 . S
C799 C798 1.327 . S
C799 C803 1.429 . S
C800 C783 1.574 1_544 S
C800 H794 0.949 . S
C800 C804 1.368 . S
C801 C782 1.429 . S
C801 C795 1.429 . S
C801 C802 1.523 . S
C802 C783 1.368 . S
C802 C796 1.368 . S
C802 C801 1.523 . S
C803 C787 1.429 . S
C803 C799 1.429 . S
C803 C804 1.523 . S
C804 C788 1.368 . S
C804 C800 1.368 . S
C804 C803 1.523 . S
H805 C780 0.950 . S
H806 C782 0.950 . S
H807 C783 0.949 . S
H808 C785 0.950 . S
H809 C787 0.950 . S
C810 C811 1.349 . S
C810 C812 1.327 . S
C810 H835 0.950 . S
C811 C810 1.349 . S
C811 C827 1.349 . S
C812 C810 1.327 . S
C812 C831 1.429 . S
C812 H836 0.950 . S
C813 C830 1.574 . S
C813 C832 1.368 . S
C813 H837 0.949 . S
H814 C818 0.949 . S
C815 C816 1.349 . S
C815 C817 1.327 . S
C815 H838 0.950 . S
C816 C815 1.349 . S
C816 C828 1.349 . S
C817 C815 1.327 . S
C817 C833 1.429 . S
C817 H839 0.950 . S
C818 H814 0.949 . S
C818 C826 1.574 . S
C818 C834 1.368 . S
H819 C827 0.950 . S
H820 C825 0.950 . S
H821 C826 0.949 . S
H822 C828 0.950 . S
H823 C829 0.950 . S
H824 C830 0.949 . S
C825 H820 0.950 . S
C825 C827 1.327 . S
C825 C831 1.429 . S
C826 C818 1.574 . S
C826 H821 0.949 . S
C826 C832 1.368 . S
C827 C811 1.349 . S
C827 H819 0.950 . S
C827 C825 1.327 . S
C828 C816 1.349 . S
C828 H822 0.950 . S
C828 C829 1.327 . S
C829 H823 0.950 . S
C829 C828 1.327 . S
C829 C833 1.429 . S
C830 C813 1.574 . S
C830 H824 0.949 . S
C830 C834 1.368 . S
C831 C812 1.429 . S
C831 C825 1.429 . S
C831 C832 1.523 . S
C832 C813 1.368 . S
C832 C826 1.368 . S
C832 C831 1.523 . S
C833 C817 1.429 . S
C833 C829 1.429 . S
C833 C834 1.523 . S
C834 C818 1.368 . S
C834 C830 1.368 . S
C834 C833 1.523 . S
H835 C810 0.950 . S
H836 C812 0.950 . S
H837 C813 0.949 . S
H838 C815 0.950 . S
H839 C817 0.950 . S
C840 C841 1.349 . S
C840 C842 1.327 . S
C840 H865 0.950 . S
C841 C840 1.349 . S
C841 C857 1.349 . S
C842 C840 1.327 . S
C842 C861 1.429 . S
C842 H866 0.950 . S
C843 C860 1.574 1_456 S
C843 C862 1.368 . S
C843 H867 0.949 . S
H844 C848 0.949 . S
C845 C846 1.349 . S
C845 C847 1.327 . S
C845 H868 0.950 . S
C846 C845 1.349 . S
C846 C858 1.349 . S
C847 C845 1.327 . S
C847 C863 1.429 . S
C847 H869 0.950 . S
C848 H844 0.949 . S
C848 C856 1.574 1_654 S
C848 C864 1.368 . S
H849 C857 0.950 . S
H850 C855 0.950 . S
H851 C856 0.949 . S
H852 C858 0.950 . S
H853 C859 0.950 . S
H854 C860 0.949 . S
C855 H850 0.950 . S
C855 C857 1.327 . S
C855 C861 1.429 . S
C856 C848 1.574 1_456 S
C856 H851 0.949 . S
C856 C862 1.368 . S
C857 C841 1.349 . S
C857 H849 0.950 . S
C857 C855 1.327 . S
C858 C846 1.349 . S
C858 H852 0.950 . S
C858 C859 1.327 . S
C859 H853 0.950 . S
C859 C858 1.327 . S
C859 C863 1.429 . S
C860 C843 1.574 1_654 S
C860 H854 0.949 . S
C860 C864 1.368 . S
C861 C842 1.429 . S
C861 C855 1.429 . S
C861 C862 1.523 . S
C862 C843 1.368 . S
C862 C856 1.368 . S
C862 C861 1.523 . S
C863 C847 1.429 . S
C863 C859 1.429 . S
C863 C864 1.523 . S
C864 C848 1.368 . S
C864 C860 1.368 . S
C864 C863 1.523 . S
H865 C840 0.950 . S
H866 C842 0.950 . S
H867 C843 0.949 . S
H868 C845 0.950 . S
H869 C847 0.950 . S
C870 C871 1.349 . S
C870 C872 1.327 . S
C870 H895 0.950 . S
C871 C870 1.349 . S
C871 C887 1.349 . S
C872 C870 1.327 . S
C872 C891 1.429 . S
C872 H896 0.950 . S
C873 C890 1.574 . S
C873 C892 1.368 1_565 S
C873 H897 0.949 . S
H874 C878 0.949 . S
C875 C876 1.349 . S
C875 C877 1.327 . S
C875 H898 0.950 . S
C876 C875 1.349 . S
C876 C888 1.349 . S
C877 C875 1.327 . S
C877 C893 1.429 . S
C877 H899 0.950 . S
C878 H874 0.949 . S
C878 C886 1.574 . S
C878 C894 1.368 1_545 S
H879 C887 0.950 . S
H880 C885 0.950 . S
H881 C886 0.949 . S
H882 C888 0.950 . S
H883 C889 0.950 . S
H884 C890 0.949 . S
C885 H880 0.950 . S
C885 C887 1.327 . S
C885 C891 1.429 . S
C886 C878 1.574 . S
C886 H881 0.949 . S
C886 C892 1.368 . S
C887 C871 1.349 . S
C887 H879 0.950 . S
C887 C885 1.327 . S
C888 C876 1.349 . S
C888 H882 0.950 . S
C888 C889 1.327 . S
C889 H883 0.950 . S
C889 C888 1.327 . S
C889 C893 1.429 . S
C890 C873 1.574 . S
C890 H884 0.949 . S
C890 C894 1.368 . S
C891 C872 1.429 . S
C891 C885 1.429 . S
C891 C892 1.523 . S
C892 C873 1.368 1_545 S
C892 C886 1.368 . S
C892 C891 1.523 . S
C893 C877 1.429 . S
C893 C889 1.429 . S
C893 C894 1.523 . S
C894 C878 1.368 1_565 S
C894 C890 1.368 . S
C894 C893 1.523 . S
H895 C870 0.950 . S
H896 C872 0.950 . S
H897 C873 0.949 . S
H898 C875 0.950 . S
H899 C877 0.950 . S
C900 C901 1.349 . S
C900 C902 1.327 . S
C900 H925 0.950 . S
C901 C900 1.349 . S
C901 C917 1.349 . S
C902 C900 1.327 . S
C902 C921 1.429 . S
C902 H926 0.950 . S
C903 C920 1.574 . S
C903 C922 1.368 . S
C903 H927 0.949 . S
H904 C908 0.949 . S
C905 C906 1.349 . S
C905 C907 1.327 . S
C905 H928 0.950 . S
C906 C905 1.349 . S
C906 C918 1.349 . S
C907 C905 1.327 . S
C907 C923 1.429 . S
C907 H929 0.950 . S
C908 H904 0.949 . S
C908 C916 1.574 . S
C908 C924 1.368 . S
H909 C917 0.950 . S
H910 C915 0.950 . S
H911 C916 0.949 . S
H912 C918 0.950 . S
H913 C919 0.950 . S
H914 C920 0.949 . S
C915 H910 0.950 . S
C915 C917 1.327 . S
C915 C921 1.429 . S
C916 C908 1.574 . S
C916 H911 0.949 . S
C916 C922 1.368 1_556 S
C917 C901 1.349 . S
C917 H909 0.950 . S
C917 C915 1.327 . S
C918 C906 1.349 . S
C918 H912 0.950 . S
C918 C919 1.327 . S
C919 H913 0.950 . S
C919 C918 1.327 . S
C919 C923 1.429 . S
C920 C903 1.574 . S
C920 H914 0.949 . S
C920 C924 1.368 1_554 S
C921 C902 1.429 . S
C921 C915 1.429 . S
C921 C922 1.523 . S
C922 C903 1.368 . S
C922 C916 1.368 1_554 S
C922 C921 1.523 . S
C923 C907 1.429 . S
C923 C919 1.429 . S
C923 C924 1.523 . S
C924 C908 1.368 . S
C924 C920 1.368 1_556 S
C924 C923 1.523 . S
H925 C900 0.950 . S
H926 C902 0.950 . S
H927 C903 0.949 . S
H928 C905 0.950 . S
H929 C907 0.950 . S
C930 C931 1.349 . S
C930 C932 1.327 . S
C930 H955 0.950 . S
C931 C930 1.349 . S
C931 C947 1.349 . S
C932 C930 1.327 . S
C932 C951 1.429 . S
C932 H956 0.950 . S
C933 C950 1.574 . S
C933 C952 1.368 1_655 S
C933 H957 0.949 . S
H934 C938 0.949 . S
C935 C936 1.349 . S
C935 C937 1.327 . S
C935 H958 0.950 . S
C936 C935 1.349 . S
C936 C948 1.349 . S
C937 C935 1.327 . S
C937 C953 1.429 . S
C937 H959 0.950 . S
C938 H934 0.949 . S
C938 C946 1.574 . S
C938 C954 1.368 1_455 S
H939 C947 0.950 . S
H940 C945 0.950 . S
H941 C946 0.949 . S
H942 C948 0.950 . S
H943 C949 0.950 . S
H944 C950 0.949 . S
C945 H940 0.950 . S
C945 C947 1.327 . S
C945 C951 1.429 . S
C946 C938 1.574 . S
C946 H941 0.949 . S
C946 C952 1.368 . S
C947 C931 1.349 . S
C947 H939 0.950 . S
C947 C945 1.327 . S
C948 C936 1.349 . S
C948 H942 0.950 . S
C948 C949 1.327 . S
C949 H943 0.950 . S
C949 C948 1.327 . S
C949 C953 1.429 . S
C950 C933 1.574 . S
C950 H944 0.949 . S
C950 C954 1.368 . S
C951 C932 1.429 . S
C951 C945 1.429 . S
C951 C952 1.523 . S
C952 C933 1.368 1_455 S
C952 C946 1.368 . S
C952 C951 1.523 . S
C953 C937 1.429 . S
C953 C949 1.429 . S
C953 C954 1.523 . S
C954 C938 1.368 1_655 S
C954 C950 1.368 . S
C954 C953 1.523 . S
H955 C930 0.950 . S
H956 C932 0.950 . S
H957 C933 0.949 . S
H958 C935 0.950 . S
H959 C937 0.950 . S
C960 C961 1.349 . S
C960 C962 1.327 . S
C960 H985 0.950 . S
C961 C960 1.349 . S
C961 C977 1.349 . S
C962 C960 1.327 . S
C962 C981 1.429 . S
C962 H986 0.950 . S
C963 C980 1.574 . S
C963 C982 1.368 . S
C963 H987 0.949 . S
H964 C968 0.949 . S
C965 C966 1.349 . S
C965 C967 1.327 . S
C965 H988 0.950 . S
C966 C965 1.349 . S
C966 C978 1.349 . S
C967 C965 1.327 . S
C967 C983 1.429 . S
C967 H989 0.950 . S
C968 H964 0.949 . S
C968 C976 1.574 . S
C968 C984 1.368 . S
H969 C977 0.950 . S
H970 C975 0.950 . S
H971 C976 0.949 . S
H972 C978 0.950 . S
H973 C979 0.950 . S
H974 C980 0.949 . S
C975 H970 0.950 . S
C975 C977 1.327 . S
C975 C981 1.429 . S
C976 C968 1.574 . S
C976 H971 0.949 . S
C976 C982 1.368 . S
C977 C961 1.349 . S
C977 H969 0.950 . S
C977 C975 1.327 . S
C978 C966 1.349 . S
C978 H972 0.950 . S
C978 C979 1.327 . S
C979 H973 0.950 . S
C979 C978 1.327 . S
C979 C983 1.429 . S
C980 C963 1.574 . S
C980 H974 0.949 . S
C980 C984 1.368 . S
C981 C962 1.429 . S
C981 C975 1.429 . S
C981 C982 1.523 . S
C982 C963 1.368 . S
C982 C976 1.368 . S
C982 C981 1.523 . S
C983 C967 1.429 . S
C983 C979 1.429 . S
C983 C984 1.523 . S
C984 C968 1.368 . S
C984 C980 1.368 . S
C984 C983 1.523 . S
H985 C960 0.950 . S
H986 C962 0.950 . S
H987 C963 0.949 . S
H988 C965 0.950 . S
H989 C967 0.950 . S
C990 C991 1.349 . S
C990 C992 1.327 . S
C990 H1015 0.950 . S
C991 C990 1.349 . S
C991 C1007 1.349 . S
C992 C990 1.327 . S
C992 C1011 1.429 . S
C992 H1016 0.950 . S
C993 C1010 1.574 . S
C993 C1012 1.368 . S
C993 H1017 0.949 . S
H994 C998 0.949 . S
C995 C996 1.349 . S
C995 C997 1.327 . S
C995 H1018 0.950 . S
C996 C995 1.349 . S
C996 C1008 1.349 . S
C997 C995 1.327 . S
C997 C1013 1.429 . S
C997 H1019 0.950 . S
C998 H994 0.949 . S
C998 C1006 1.574 . S
C998 C1014 1.368 . S
H999 C1007 0.950 . S
H1000 C1005 0.950 . S
H1001 C1006 0.949 . S
H1002 C1008 0.950 . S
H1003 C1009 0.950 . S
H1004 C1010 0.949 . S
C1005 H1000 0.950 . S
C1005 C1007 1.327 . S
C1005 C1011 1.429 . S
C1006 C998 1.574 . S
C1006 H1001 0.949 . S
C1006 C1012 1.368 . S
C1007 C991 1.349 . S
C1007 H999 0.950 . S
C1007 C1005 1.327 . S
C1008 C996 1.349 . S
C1008 H1002 0.950 . S
C1008 C1009 1.327 . S
C1009 H1003 0.950 . S
C1009 C1008 1.327 . S
C1009 C1013 1.429 . S
C1010 C993 1.574 . S
C1010 H1004 0.949 . S
C1010 C1014 1.368 . S
C1011 C992 1.429 . S
C1011 C1005 1.429 . S
C1011 C1012 1.523 . S
C1012 C993 1.368 . S
C1012 C1006 1.368 . S
C1012 C1011 1.523 . S
C1013 C997 1.429 . S
C1013 C1009 1.429 . S
C1013 C1014 1.523 . S
C1014 C998 1.368 . S
C1014 C1010 1.368 . S
C1014 C1013 1.523 . S
H1015 C990 0.950 . S
H1016 C992 0.950 . S
H1017 C993 0.949 . S
H1018 C995 0.950 . S
H1019 C997 0.950 . S
C1020 C1021 1.349 . S
C1020 C1022 1.327 . S
C1020 H1045 0.950 . S
C1021 C1020 1.349 . S
C1021 C1037 1.349 . S
C1022 C1020 1.327 . S
C1022 C1041 1.429 . S
C1022 H1046 0.950 . S
C1023 C1040 1.574 . S
C1023 C1042 1.368 . S
C1023 H1047 0.949 . S
H1024 C1028 0.949 . S
C1025 C1026 1.349 . S
C1025 C1027 1.327 . S
C1025 H1048 0.950 . S
C1026 C1025 1.349 . S
C1026 C1038 1.349 . S
C1027 C1025 1.327 . S
C1027 C1043 1.429 . S
C1027 H1049 0.950 . S
C1028 H1024 0.949 . S
C1028 C1036 1.574 . S
C1028 C1044 1.368 . S
H1029 C1037 0.950 . S
H1030 C1035 0.950 . S
H1031 C1036 0.949 . S
H1032 C1038 0.950 . S
H1033 C1039 0.950 . S
H1034 C1040 0.949 . S
C1035 H1030 0.950 . S
C1035 C1037 1.327 . S
C1035 C1041 1.429 . S
C1036 C1028 1.574 . S
C1036 H1031 0.949 . S
C1036 C1042 1.368 . S
C1037 C1021 1.349 . S
C1037 H1029 0.950 . S
C1037 C1035 1.327 . S
C1038 C1026 1.349 . S
C1038 H1032 0.950 . S
C1038 C1039 1.327 . S
C1039 H1033 0.950 . S
C1039 C1038 1.327 . S
C1039 C1043 1.429 . S
C1040 C1023 1.574 . S
C1040 H1034 0.949 . S
C1040 C1044 1.368 . S
C1041 C1022 1.429 . S
C1041 C1035 1.429 . S
C1041 C1042 1.523 . S
C1042 C1023 1.368 . S
C1042 C1036 1.368 . S
C1042 C1041 1.523 . S
C1043 C1027 1.429 . S
C1043 C1039 1.429 . S
C1043 C1044 1.523 . S
C1044 C1028 1.368 . S
C1044 C1040 1.368 . S
C1044 C1043 1.523 . S
H1045 C1020 0.950 . S
H1046 C1022 0.950 . S
H1047 C1023 0.949 . S
H1048 C1025 0.950 . S
H1049 C1027 0.950 . S
C1050 C1051 1.349 . S
C1050 C1052 1.327 . S
C1050 H1075 0.950 . S
C1051 C1050 1.349 . S
C1051 C1067 1.349 . S
C1052 C1050 1.327 . S
C1052 C1071 1.429 . S
C1052 H1076 0.950 . S
C1053 C1070 1.574 . S
C1053 C1072 1.368 . S
C1053 H1077 0.949 . S
H1054 C1058 0.949 . S
C1055 C1056 1.349 . S
C1055 C1057 1.327 . S
C1055 H1078 0.950 . S
C1056 C1055 1.349 . S
C1056 C1068 1.349 . S
C1057 C1055 1.327 . S
C1057 C1073 1.429 . S
C1057 H1079 0.950 . S
C1058 H1054 0.949 . S
C1058 C1066 1.574 . S
C1058 C1074 1.368 . S
H1059 C1067 0.950 . S
H1060 C1065 0.950 . S
H1061 C1066 0.949 . S
H1062 C1068 0.950 . S
H1063 C1069 0.950 . S
H1064 C1070 0.949 . S
C1065 H1060 0.950 . S
C1065 C1067 1.327 . S
C1065 C1071 1.429 . S
C1066 C1058 1.574 . S
C1066 H1061 0.949 . S
C1066 C1072 1.368 . S
C1067 C1051 1.349 . S
C1067 H1059 0.950 . S
C1067 C1065 1.327 . S
C1068 C1056 1.349 . S
C1068 H1062 0.950 . S
C1068 C1069 1.327 . S
C1069 H1063 0.950 . S
C1069 C1068 1.327 . S
C1069 C1073 1.429 . S
C1070 C1053 1.574 . S
C1070 H1064 0.949 . S
C1070 C1074 1.368 . S
C1071 C1052 1.429 . S
C1071 C1065 1.429 . S
C1071 C1072 1.523 . S
C1072 C1053 1.368 . S
C1072 C1066 1.368 . S
C1072 C1071 1.523 . S
C1073 C1057 1.429 . S
C1073 C1069 1.429 . S
C1073 C1074 1.523 . S
C1074 C1058 1.368 . S
C1074 C1070 1.368 . S
C1074 C1073 1.523 . S
H1075 C1050 0.950 . S
H1076 C1052 0.950 . S
H1077 C1053 0.949 . S
H1078 C1055 0.950 . S
H1079 C1057 0.950 . S
C1080 C1081 1.349 . S
C1080 C1082 1.327 . S
C1080 H1105 0.950 . S
C1081 C1080 1.349 . S
C1081 C1097 1.349 . S
C1082 C1080 1.327 . S
C1082 C1101 1.429 . S
C1082 H1106 0.950 . S
C1083 C1100 1.574 . S
C1083 C1102 1.368 . S
C1083 H1107 0.949 . S
H1084 C1088 0.949 . S
C1085 C1086 1.349 . S
C1085 C1087 1.327 . S
C1085 H1108 0.950 . S
C1086 C1085 1.349 . S
C1086 C1098 1.349 . S
C1087 C1085 1.327 . S
C1087 C1103 1.429 . S
C1087 H1109 0.950 . S
C1088 H1084 0.949 . S
C1088 C1096 1.574 . S
C1088 C1104 1.368 . S
H1089 C1097 0.950 . S
H1090 C1095 0.950 . S
H1091 C1096 0.949 . S
H1092 C1098 0.950 . S
H1093 C1099 0.950 . S
H1094 C1100 0.949 . S
C1095 H1090 0.950 . S
C1095 C1097 1.327 . S
C1095 C1101 1.429 . S
C1096 C1088 1.574 . S
C1096 H1091 0.949 . S
C1096 C1102 1.368 . S
C1097 C1081 1.349 . S
C1097 H1089 0.950 . S
C1097 C1095 1.327 . S
C1098 C1086 1.349 . S
C1098 H1092 0.950 . S
C1098 C1099 1.327 . S
C1099 H1093 0.950 . S
C1099 C1098 1.327 . S
C1099 C1103 1.429 . S
C1100 C1083 1.574 . S
C1100 H1094 0.949 . S
C1100 C1104 1.368 . S
C1101 C1082 1.429 . S
C1101 C1095 1.429 . S
C1101 C1102 1.523 . S
C1102 C1083 1.368 . S
C1102 C1096 1.368 . S
C1102 C1101 1.523 . S
C1103 C1087 1.429 . S
C1103 C1099 1.429 . S
C1103 C1104 1.523 . S
C1104 C1088 1.368 . S
C1104 C1100 1.368 . S
C1104 C1103 1.523 . S
H1105 C1080 0.950 . S
H1106 C1082 0.950 . S
H1107 C1083 0.949 . S
H1108 C1085 0.950 . S
H1109 C1087 0.950 . S
C1110 C1111 1.349 . S
C1110 C1112 1.327 . S
C1110 H1135 0.950 . S
C1111 C1110 1.349 . S
C1111 C1127 1.349 . S
C1112 C1110 1.327 . S
C1112 C1131 1.429 . S
C1112 H1136 0.950 . S
C1113 C1130 1.574 . S
C1113 C1132 1.368 . S
C1113 H1137 0.949 . S
H1114 C1118 0.949 . S
C1115 C1116 1.349 . S
C1115 C1117 1.327 . S
C1115 H1138 0.950 . S
C1116 C1115 1.349 . S
C1116 C1128 1.349 . S
C1117 C1115 1.327 . S
C1117 C1133 1.429 . S
C1117 H1139 0.950 . S
C1118 H1114 0.949 . S
C1118 C1126 1.574 . S
C1118 C1134 1.368 . S
H1119 C1127 0.950 . S
H1120 C1125 0.950 . S
H1121 C1126 0.949 . S
H1122 C1128 0.950 . S
H1123 C1129 0.950 . S
H1124 C1130 0.949 . S
C1125 H1120 0.950 . S
C1125 C1127 1.327 . S
C1125 C1131 1.429 . S
C1126 C1118 1.574 . S
C1126 H1121 0.949 . S
C1126 C1132 1.368 . S
C1127 C1111 1.349 . S
C1127 H1119 0.950 . S
C1127 C1125 1.327 . S
C1128 C1116 1.349 . S
C1128 H1122 0.950 . S
C1128 C1129 1.327 . S
C1129 H1123 0.950 . S
C1129 C1128 1.327 . S
C1129 C1133 1.429 . S
C1130 C1113 1.574 . S
C1130 H1124 0.949 . S
C1130 C1134 1.368 . S
C1131 C1112 1.429 . S
C1131 C1125 1.429 . S
C1131 C1132 1.523 . S
C1132 C1113 1.368 . S
C1132 C1126 1.368 . S
C1132 C1131 1.523 . S
C1133 C1117 1.429 . S
C1133 C1129 1.429 . S
C1133 C1134 1.523 . S
C1134 C1118 1.368 . S
C1134 C1130 1.368 . S
C1134 C1133 1.523 . S
H1135 C1110 0.950 . S
H1136 C1112 0.950 . S
H1137 C1113 0.949 . S
H1138 C1115 0.950 . S
H1139 C1117 0.950 . S
C1140 C1141 1.349 . S
C1140 C1142 1.327 . S
C1140 H1165 0.950 . S
C1141 C1140 1.349 . S
C1141 C1157 1.349 . S
C1142 C1140 1.327 . S
C1142 C1161 1.429 . S
C1142 H1166 0.950 . S
C1143 C1160 1.574 . S
C1143 C1162 1.368 . S
C1143 H1167 0.949 . S
H1144 C1148 0.949 . S
C1145 C1146 1.349 . S
C1145 C1147 1.327 . S
C1145 H1168 0.950 . S
C1146 C1145 1.349 . S
C1146 C1158 1.349 . S
C1147 C1145 1.327 . S
C1147 C1163 1.429 . S
C1147 H1169 0.950 . S
C1148 H1144 0.949 . S
C1148 C1156 1.574 . S
C1148 C1164 1.368 . S
H1149 C1157 0.950 . S
H1150 C1155 0.950 . S
H1151 C1156 0.949 . S
H1152 C1158 0.950 . S
H1153 C1159 0.950 . S
H1154 C1160 0.949 . S
C1155 H1150 0.950 . S
C1155 C1157 1.327 . S
C1155 C1161 1.429 . S
C1156 C1148 1.574 . S
C1156 H1151 0.949 . S
C1156 C1162 1.368 . S
C1157 C1141 1.349 . S
C1157 H1149 0.950 . S
C1157 C1155 1.327 . S
C1158 C1146 1.349 . S
C1158 H1152 0.950 . S
C1158 C1159 1.327 . S
C1159 H1153 0.950 . S
C1159 C1158 1.327 . S
C1159 C1163 1.429 . S
C1160 C1143 1.574 . S
C1160 H1154 0.949 . S
C1160 C1164 1.368 . S
C1161 C1142 1.429 . S
C1161 C1155 1.429 . S
C1161 C1162 1.523 . S
C1162 C1143 1.368 . S
C1162 C1156 1.368 . S
C1162 C1161 1.523 . S
C1163 C1147 1.429 . S
C1163 C1159 1.429 . S
C1163 C1164 1.523 . S
C1164 C1148 1.368 . S
C1164 C1160 1.368 . S
C1164 C1163 1.523 . S
H1165 C1140 0.950 . S
H1166 C1142 0.950 . S
H1167 C1143 0.949 . S
H1168 C1145 0.950 . S
H1169 C1147 0.950 . S
C1170 C1171 1.349 . S
C1170 C1172 1.327 . S
C1170 H1195 0.950 . S
C1171 C1170 1.349 . S
C1171 C1187 1.349 . S
C1172 C1170 1.327 . S
C1172 C1191 1.429 . S
C1172 H1196 0.950 . S
C1173 C1190 1.574 . S
C1173 C1192 1.368 . S
C1173 H1197 0.949 . S
H1174 C1178 0.949 . S
C1175 C1176 1.349 . S
C1175 C1177 1.327 . S
C1175 H1198 0.950 . S
C1176 C1175 1.349 . S
C1176 C1188 1.349 . S
C1177 C1175 1.327 . S
C1177 C1193 1.429 . S
C1177 H1199 0.950 . S
C1178 H1174 0.949 . S
C1178 C1186 1.574 . S
C1178 C1194 1.368 . S
H1179 C1187 0.950 . S
H1180 C1185 0.950 . S
H1181 C1186 0.949 . S
H1182 C1188 0.950 . S
H1183 C1189 0.950 . S
H1184 C1190 0.949 . S
C1185 H1180 0.950 . S
C1185 C1187 1.327 . S
C1185 C1191 1.429 . S
C1186 C1178 1.574 . S
C1186 H1181 0.949 . S
C1186 C1192 1.368 . S
C1187 C1171 1.349 . S
C1187 H1179 0.950 . S
C1187 C1185 1.327 . S
C1188 C1176 1.349 . S
C1188 H1182 0.950 . S
C1188 C1189 1.327 . S
C1189 H1183 0.950 . S
C1189 C1188 1.327 . S
C1189 C1193 1.429 . S
C1190 C1173 1.574 . S
C1190 H1184 0.949 . S
C1190 C1194 1.368 . S
C1191 C1172 1.429 . S
C1191 C1185 1.429 . S
C1191 C1192 1.523 . S
C1192 C1173 1.368 . S
C1192 C1186 1.368 . S
C1192 C1191 1.523 . S
C1193 C1177 1.429 . S
C1193 C1189 1.429 . S
C1193 C1194 1.523 . S
C1194 C1178 1.368 . S
C1194 C1190 1.368 . S
C1194 C1193 1.523 . S
H1195 C1170 0.950 . S
H1196 C1172 0.950 . S
H1197 C1173 0.949 . S
H1198 C1175 0.950 . S
H1199 C1177 0.950 . S
C1200 C1201 1.349 . S
C1200 C1202 1.327 . S
C1200 H1225 0.950 . S
C1201 C1200 1.349 . S
C1201 C1217 1.349 . S
C1202 C1200 1.327 . S
C1202 C1221 1.429 . S
C1202 H1226 0.950 . S
C1203 C1220 1.574 . S
C1203 C1222 1.368 . S
C1203 H1227 0.949 . S
H1204 C1208 0.949 . S
C1205 C1206 1.349 . S
C1205 C1207 1.327 . S
C1205 H1228 0.950 . S
C1206 C1205 1.349 . S
C1206 C1218 1.349 . S
C1207 C1205 1.327 . S
C1207 C1223 1.429 . S
C1207 H1229 0.950 . S
C1208 H1204 0.949 . S
C1208 C1216 1.574 . S
C1208 C1224 1.368 . S
H1209 C1217 0.950 . S
H1210 C1215 0.950 . S
H1211 C1216 0.949 . S
H1212 C1218 0.950 . S
H1213 C1219 0.950 . S
H1214 C1220 0.949 . S
C1215 H1210 0.950 . S
C1215 C1217 1.327 . S
C1215 C1221 1.429 . S
C1216 C1208 1.574 . S
C1216 H1211 0.949 . S
C1216 C1222 1.368 . S
C1217 C1201 1.349 . S
C1217 H1209 0.950 . S
C1217 C1215 1.327 . S
C1218 C1206 1.349 . S
C1218 H1212 0.950 . S
C1218 C1219 1.327 . S
C1219 H1213 0.950 . S
C1219 C1218 1.327 . S
C1219 C1223 1.429 . S
C1220 C1203 1.574 . S
C1220 H1214 0.949 . S
C1220 C1224 1.368 . S
C1221 C1202 1.429 . S
C1221 C1215 1.429 . S
C1221 C1222 1.523 . S
C1222 C1203 1.368 . S
C1222 C1216 1.368 . S
C1222 C1221 1.523 . S
C1223 C1207 1.429 . S
C1223 C1219 1.429 . S
C1223 C1224 1.523 . S
C1224 C1208 1.368 . S
C1224 C1220 1.368 . S
C1224 C1223 1.523 . S
H1225 C1200 0.950 . S
H1226 C1202 0.950 . S
H1227 C1203 0.949 . S
H1228 C1205 0.950 . S
H1229 C1207 0.950 . S
C1230 C1231 1.349 . S
C1230 C1232 1.327 . S
C1230 H1255 0.950 . S
C1231 C1230 1.349 . S
C1231 C1247 1.349 . S
C1232 C1230 1.327 . S
C1232 C1251 1.429 . S
C1232 H1256 0.950 . S
C1233 C1250 1.574 . S
C1233 C1252 1.368 . S
C1233 H1257 0.949 . S
H1234 C1238 0.949 . S
C1235 C1236 1.349 . S
C1235 C1237 1.327 . S
C1235 H1258 0.950 . S
C1236 C1235 1.349 . S
C1236 C1248 1.349 . S
C1237 C1235 1.327 . S
C1237 C1253 1.429 . S
C1237 H1259 0.950 . S
C1238 H1234 0.949 . S
C1238 C1246 1.574 . S
C1238 C1254 1.368 . S
H1239 C1247 0.950 . S
H1240 C1245 0.950 . S
H1241 C1246 0.949 . S
H1242 C1248 0.950 . S
H1243 C1249 0.950 . S
H1244 C1250 0.949 . S
C1245 H1240 0.950 . S
C1245 C1247 1.327 . S
C1245 C1251 1.429 . S
C1246 C1238 1.574 . S
C1246 H1241 0.949 . S
C1246 C1252 1.368 . S
C1247 C1231 1.349 . S
C1247 H1239 0.950 . S
C1247 C1245 1.327 . S
C1248 C1236 1.349 . S
C1248 H1242 0.950 . S
C1248 C1249 1.327 . S
C1249 H1243 0.950 . S
C1249 C1248 1.327 . S
C1249 C1253 1.429 . S
C1250 C1233 1.574 . S
C1250 H1244 0.949 . S
C1250 C1254 1.368 . S
C1251 C1232 1.429 . S
C1251 C1245 1.429 . S
C1251 C1252 1.523 . S
C1252 C1233 1.368 . S
C1252 C1246 1.368 . S
C1252 C1251 1.523 . S
C1253 C1237 1.429 . S
C1253 C1249 1.429 . S
C1253 C1254 1.523 . S
C1254 C1238 1.368 . S
C1254 C1250 1.368 . S
C1254 C1253 1.523 . S
H1255 C1230 0.950 . S
H1256 C1232 0.950 . S
H1257 C1233 0.949 . S
H1258 C1235 0.950 . S
H1259 C1237 0.950 . S
C1260 C1261 1.349 . S
C1260 C1262 1.327 . S
C1260 H1285 0.950 . S
C1261 C1260 1.349 . S
C1261 C1277 1.349 . S
C1262 C1260 1.327 . S
C1262 C1281 1.429 . S
C1262 H1286 0.950 . S
C1263 C1280 1.574 . S
C1263 C1282 1.368 . S
C1263 H1287 0.949 . S
H1264 C1268 0.949 . S
C1265 C1266 1.349 . S
C1265 C1267 1.327 . S
C1265 H1288 0.950 . S
C1266 C1265 1.349 . S
C1266 C1278 1.349 . S
C1267 C1265 1.327 . S
C1267 C1283 1.429 . S
C1267 H1289 0.950 . S
C1268 H1264 0.949 . S
C1268 C1276 1.574 . S
C1268 C1284 1.368 . S
H1269 C1277 0.950 . S
H1270 C1275 0.950 . S
H1271 C1276 0.949 . S
H1272 C1278 0.950 . S
H1273 C1279 0.950 . S
H1274 C1280 0.949 . S
C1275 H1270 0.950 . S
C1275 C1277 1.327 . S
C1275 C1281 1.429 . S
C1276 C1268 1.574 . S
C1276 H1271 0.949 . S
C1276 C1282 1.368 . S
C1277 C1261 1.349 . S
C1277 H1269 0.950 . S
C1277 C1275 1.327 . S
C1278 C1266 1.349 . S
C1278 H1272 0.950 . S
C1278 C1279 1.327 . S
C1279 H1273 0.950 . S
C1279 C1278 1.327 . S
C1279 C1283 1.429 . S
C1280 C1263 1.574 . S
C1280 H1274 0.949 . S
C1280 C1284 1.368 . S
C1281 C1262 1.429 . S
C1281 C1275 1.429 . S
C1281 C1282 1.523 . S
C1282 C1263 1.368 . S
C1282 C1276 1.368 . S
C1282 C1281 1.523 . S
C1283 C1267 1.429 . S
C1283 C1279 1.429 . S
C1283 C1284 1.523 . S
C1284 C1268 1.368 . S
C1284 C1280 1.368 . S
C1284 C1283 1.523 . S
H1285 C1260 0.950 . S
H1286 C1262 0.950 . S
H1287 C1263 0.949 . S
H1288 C1265 0.950 . S
H1289 C1267 0.950 . S
C1290 C1291 1.349 . S
C1290 C1292 1.327 . S
C1290 H1315 0.950 . S
C1291 C1290 1.349 . S
C1291 C1307 1.349 . S
C1292 C1290 1.327 . S
C1292 C1311 1.429 . S
C1292 H1316 0.950 . S
C1293 C1310 1.574 . S
C1293 C1312 1.368 . S
C1293 H1317 0.949 . S
H1294 C1298 0.949 . S
C1295 C1296 1.349 . S
C1295 C1297 1.327 . S
C1295 H1318 0.950 . S
C1296 C1295 1.349 . S
C1296 C1308 1.349 . S
C1297 C1295 1.327 . S
C1297 C1313 1.429 . S
C1297 H1319 0.950 . S
C1298 H1294 0.949 . S
C1298 C1306 1.574 . S
C1298 C1314 1.368 . S
H1299 C1307 0.950 . S
H1300 C1305 0.950 . S
H1301 C1306 0.949 . S
H1302 C1308 0.950 . S
H1303 C1309 0.950 . S
H1304 C1310 0.949 . S
C1305 H1300 0.950 . S
C1305 C1307 1.327 . S
C1305 C1311 1.429 . S
C1306 C1298 1.574 . S
C1306 H1301 0.949 . S
C1306 C1312 1.368 . S
C1307 C1291 1.349 . S
C1307 H1299 0.950 . S
C1307 C1305 1.327 . S
C1308 C1296 1.349 . S
C1308 H1302 0.950 . S
C1308 C1309 1.327 . S
C1309 H1303 0.950 . S
C1309 C1308 1.327 . S
C1309 C1313 1.429 . S
C1310 C1293 1.574 . S
C1310 H1304 0.949 . S
C1310 C1314 1.368 . S
C1311 C1292 1.429 . S
C1311 C1305 1.429 . S
C1311 C1312 1.523 . S
C1312 C1293 1.368 . S
C1312 C1306 1.368 . S
C1312 C1311 1.523 . S
C1313 C1297 1.429 . S
C1313 C1309 1.429 . S
C1313 C1314 1.523 . S
C1314 C1298 1.368 . S
C1314 C1310 1.368 . S
C1314 C1313 1.523 . S
H1315 C1290 0.950 . S
H1316 C1292 0.950 . S
H1317 C1293 0.949 . S
H1318 C1295 0.950 . S
H1319 C1297 0.950 . S
C241 C41 1.130 . S
C246 C19 1.112 . S
C271 C62 1.130 . S
C276 C38 1.112 . S
C301 C59 1.112 . S
C306 C81 1.130 . S
C331 C78 1.112 . S
C336 C102 1.130 . S
C361 C1 1.130 . S
C366 C99 1.112 . S
C391 C22 1.130 . S
C396 C118 1.112 . S
C421 C202 1.130 . S
C426 C138 1.112 . S
C451 C159 1.112 . S
C456 C221 1.130 . S
C481 C178 1.112 . S
C486 C122 1.130 . S
C511 C199 1.112 . S
C516 C141 1.130 . S
C541 C218 1.112 . S
C546 C162 1.130 . S
C571 C181 1.130 . S
C576 C239 1.112 . S
C601 C68 1.650 . S
C606 C9 1.650 . S
C631 C28 1.650 . S
C636 C89 1.650 . S
C661 C49 1.650 . S
C666 C108 1.650 . S
C691 C128 1.650 . S
C696 C189 1.650 . S
C721 C149 1.650 . S
C726 C208 1.650 . S
C751 C168 1.650 . S
C756 C229 1.650 . S
C781 C148 2.012 . S
C786 C8 2.012 . S
C811 C29 2.012 . S
C816 C169 2.012 . S
C841 C188 2.011 . S
C846 C48 2.011 . S
C871 C69 2.012 . S
C876 C209 2.012 . S
C901 C88 2.012 . S
C906 C228 2.012 . S
C931 C129 2.011 . S
C936 C109 2.011 . S
C961 C42 1.490 . S
C966 C18 1.514 . S
C991 C39 1.514 . S
C996 C61 1.490 . S
C1021 C58 1.514 . S
C1026 C82 1.490 . S
C1051 C79 1.514 . S
C1056 C101 1.490 . S
C1081 C2 1.490 . S
C1086 C98 1.514 . S
C1111 C21 1.490 . S
C1116 C119 1.514 . S
C1141 C201 1.490 . S
C1146 C139 1.514 . S
C1171 C158 1.514 . S
C1176 C222 1.490 . S
C1201 C179 1.514 . S
C1206 C121 1.490 . S
C1231 C142 1.490 . S
C1236 C198 1.514 . S
C1261 C219 1.514 . S
C1266 C161 1.490 . S
C1291 C238 1.514 . S
C1296 C182 1.490 . S
