# Generated by pormake.
# Topology kag, (6)-cn, num edge types: 1
# Building blocks:
#     Node 0, Type 0, BuildingBlock: GEDQOX_clean_sbu_0, # of connection points: 6
#     Node 1, Type 0, BuildingBlock: GEDQOX_clean_sbu_0, # of connection points: 6
#     Node 2, Type 0, BuildingBlock: GEDQOX_clean_sbu_0, # of connection points: 6
#     Edge 3, Type (0, 0), BuildingBlock: FUNLAD_clean_linker_0, # of connection points: 2
#     Edge 4, Type (0, 0), BuildingBlock: FUNLAD_clean_linker_0, # of connection points: 2
#     Edge 5, Type (0, 0), BuildingBlock: FUNLAD_clean_linker_0, # of connection points: 2
#     Edge 6, Type (0, 0), BuildingBlock: FUNLAD_clean_linker_0, # of connection points: 2
#     Edge 7, Type (0, 0), BuildingBlock: FUNLAD_clean_linker_0, # of connection points: 2
#     Edge 8, Type (0, 0), BuildingBlock: FUNLAD_clean_linker_0, # of connection points: 2
#     Edge 9, Type (0, 0), BuildingBlock: FUNLAD_clean_linker_0, # of connection points: 2
#     Edge 10, Type (0, 0), BuildingBlock: FUNLAD_clean_linker_0, # of connection points: 2
#     Edge 11, Type (0, 0), BuildingBlock: FUNLAD_clean_linker_0, # of connection points: 2
# Relax obj value: 0.063
# Max RMSD: 0.183
# Mean RMSD: 0.104
data_MOF--net-kag--node1-GEDQOX_clean_sbu_0--edge1-FUNLAD_clean_linker_0
_symmetry_space_group_name_H-M    P1
_symmetry_Int_Tables_number       1
_symmetry_cell_setting            triclinic
loop_
_symmetry_equiv_pos_as_xyz
'x, y, z'
_cell_length_a     55.374221
_cell_length_b     47.329114
_cell_length_c     17.199369
_cell_angle_alpha  94.652829
_cell_angle_beta   89.399129
_cell_angle_gamma 139.23604
loop_
_atom_site_label
_atom_site_type_symbol
_atom_site_fract_x
_atom_site_fract_y
_atom_site_fract_z
_atom_type_partial_charge
Nd0 Nd 1.03697 0.57359 0.02042 0.0
Nd1 Nd 0.0452 0.5198 0.97471 0.0
C2 C 1.0179 0.60779 0.07993 0.0
C3 C 0.98737 0.60178 0.07711 0.0
C4 C 0.95357 0.56733 0.10976 0.0
C5 C 0.92638 0.56441 0.1114 0.0
C6 C 0.9323 0.5958 0.0804 0.0
C7 C 0.9659 0.62977 0.04668 0.0
C8 C 0.99307 0.63277 0.04533 0.0
C9 C 0.04435 0.56843 0.86247 0.0
C10 C 0.96164 0.46711 0.97618 0.0
C11 C 0.06392 0.48529 0.91513 0.0
C12 C 0.0942 0.49088 0.91943 0.0
C13 C 0.1241 0.51826 0.872 0.0
C14 C 0.15068 0.52025 0.871 0.0
C15 C 0.148 0.49486 0.91724 0.0
C16 C 0.11852 0.4682 0.96588 0.0
C17 C 0.09189 0.46609 0.96669 0.0
C18 C 1.03762 0.52493 0.1324 0.0
C19 C 0.12106 0.62638 0.01697 0.0
O20 O 1.01298 0.58013 0.114 0.0
O21 O 1.03635 0.61989 0.01779 0.0
O22 O 0.05985 0.60346 0.90469 0.0
O23 O 1.0244 0.53668 0.90286 0.0
O24 O 0.97654 0.50269 0.01825 0.0
O25 O 0.9829 0.46746 0.93955 0.0
O26 O 0.06999 0.51404 0.88225 0.0
O27 O 0.04429 0.47213 0.97562 0.0
O28 O 1.02184 0.48978 0.09007 0.0
O29 O 0.05784 0.55681 0.0922 0.0
O30 O 0.10575 0.58978 0.97914 0.0
O31 O 0.1002 0.62763 0.05009 0.0
H32 H 0.94824 0.54292 0.13497 0.0
H33 H 0.90071 0.53756 0.13711 0.0
H34 H 0.97176 0.65492 0.02334 0.0
H35 H 1.01897 0.65997 0.02064 0.0
H36 H 0.12666 0.53759 0.8344 0.0
H37 H 0.17322 0.5415 0.83348 0.0
H38 H 0.11524 0.44772 1.00142 0.0
H39 H 0.06896 0.44417 0.00306 0.0
Nd40 Nd 0.5375 0.07659 0.99603 0.0
Nd41 Nd 0.54848 1.02101 0.0237 0.0
C42 C 0.53929 0.1305 0.9513 0.0
C43 C 0.52678 0.14939 0.95814 0.0
C44 C 0.51227 0.14891 0.8908 0.0
C45 C 0.50594 0.17257 0.89232 0.0
C46 C 0.51422 0.19763 0.96126 0.0
C47 C 0.52736 0.19666 0.02949 0.0
C48 C 0.53359 0.17288 0.02798 0.0
C49 C 0.53271 0.05875 0.14893 0.0
C50 C 0.6215 0.12449 0.00968 0.0
C51 C 0.55829 0.98054 0.08665 0.0
C52 C 0.55466 0.94592 0.07616 0.0
C53 C 0.54067 0.91905 0.13576 0.0
C54 C 0.54141 0.89002 0.13292 0.0
C55 C 0.55629 0.88712 0.07034 0.0
C56 C 0.56919 0.91309 0.00926 0.0
C57 C 0.56847 0.9422 0.0122 0.0
C58 C 0.54248 1.02254 0.86288 0.0
C59 C 0.46355 0.97244 1.00157 0.0
O60 O 0.51684 0.09089 0.91646 0.0
O61 O 0.56109 0.14083 0.00851 0.0
O62 O 0.51404 0.06225 0.11685 0.0
O63 O 0.55517 0.06785 0.10209 0.0
O64 O 0.59913 0.12279 0.97519 0.0
O65 O 0.60824 0.09153 0.04489 0.0
O66 O 0.52834 0.96934 0.09389 0.0
O67 O 0.58319 1.01462 0.04859 0.0
O68 O 0.54672 1.002 0.89229 0.0
O69 O 0.541 1.03993 0.91883 0.0
O70 O 0.48528 0.9721 0.03208 0.0
O71 O 0.47733 1.00721 0.97267 0.0
H72 H 0.50725 0.13162 0.83588 0.0
H73 H 0.49618 0.1728 0.83844 0.0
H74 H 0.53349 0.21496 0.08396 0.0
H75 H 0.54487 0.1741 0.08095 0.0
H76 H 0.53005 0.92137 0.18592 0.0
H77 H 0.5306 0.87009 0.18035 0.0
H78 H 0.58111 0.91211 0.96039 0.0
H79 H 0.57968 0.96265 0.96548 0.0
Nd80 Nd 0.49578 0.50978 0.97458 0.0
Nd81 Nd 0.58547 0.58399 0.03174 0.0
C82 C 0.43413 0.46898 0.89422 0.0
C83 C 0.40759 0.46902 0.90284 0.0
C84 C 0.38902 0.46277 0.83625 0.0
C85 C 0.366 0.46611 0.84313 0.0
C86 C 0.36105 0.47581 0.91695 0.0
C87 C 0.37947 0.48155 0.98368 0.0
C88 C 0.40262 0.47842 0.97665 0.0
C89 C 0.5087 0.52443 0.13788 0.0
C90 C 0.54889 0.6148 0.02184 0.0
C91 C 0.64697 0.624 0.11163 0.0
C92 C 0.67349 0.62367 0.10413 0.0
C93 C 0.68197 0.61501 0.16802 0.0
C94 C 0.70494 0.61159 0.1609 0.0
C95 C 0.72014 0.61687 0.08959 0.0
C96 C 0.71197 0.62616 0.02592 0.0
C97 C 0.68882 0.62935 0.03298 0.0
C98 C 0.57257 0.56922 0.8684 0.0
C99 C 0.53193 0.47867 0.98531 0.0
O100 O 0.46723 0.50559 0.87661 0.0
O101 O 0.43501 0.45118 0.94703 0.0
O102 O 0.47592 0.49586 0.10105 0.0
O103 O 0.53189 0.54325 0.08656 0.0
O104 O 0.5182 0.57541 0.98708 0.0
O105 O 0.57732 0.62533 0.05144 0.0
O106 O 0.61377 0.58776 0.12972 0.0
O107 O 0.64636 0.64218 0.05915 0.0
O108 O 0.60533 0.59777 0.90527 0.0
O109 O 0.54937 0.55059 0.9197 0.0
O110 O 0.56271 0.5181 0.01979 0.0
O111 O 0.50364 0.46829 0.9554 0.0
H112 H 0.3929 0.45613 0.77864 0.0
H113 H 0.35283 0.46216 0.7903 0.0
H114 H 0.37602 0.48843 0.04158 0.0
H115 H 0.41701 0.48388 0.02887 0.0
H116 H 0.67022 0.61007 0.22329 0.0
H117 H 0.71004 0.60377 0.21092 0.0
H118 H 0.72354 0.63113 0.97043 0.0
H119 H 0.68264 0.63577 0.98241 0.0
C120 C 1.02485 0.52613 0.72998 0.0
C121 C 0.04614 0.56585 0.77621 0.0
C122 C 1.02665 0.52471 0.64826 0.0
C123 C 0.04988 0.56313 0.61107 0.0
C124 C 0.07148 0.60271 0.65803 0.0
C125 C 0.06955 0.60406 0.73918 0.0
C126 C 0.05349 0.56413 0.52446 0.0
C127 C 1.02848 0.52913 0.47046 0.0
C128 C 1.03207 0.53014 0.38382 0.0
C129 C 1.0103 0.49054 0.33677 0.0
C130 C 1.01223 0.48921 0.2556 0.0
C131 C 1.0358 0.52747 0.21866 0.0
H132 H 0.072 0.59976 0.37992 0.0
C133 C 0.05724 0.5672 0.26499 0.0
C134 C 0.05545 0.5686 0.34671 0.0
H135 H 0.07544 0.5972 0.23814 0.0
H136 H 1.00678 0.49618 0.75691 0.0
H137 H 1.01023 0.49358 0.6151 0.0
H138 H 0.08987 0.63291 0.63175 0.0
H139 H 0.08652 0.63528 0.77303 0.0
H140 H 0.07781 0.59557 0.50495 0.0
H141 H 1.00415 0.4977 0.48999 0.0
H142 H 0.9918 0.46031 0.36298 0.0
H143 H 0.99513 0.45797 0.22169 0.0
C144 C 0.5559 0.055 0.27019 0.0
C145 C 0.53273 0.05434 0.23416 0.0
C146 C 0.55607 0.05232 0.35138 0.0
C147 C 0.533 0.04889 0.39856 0.0
C148 C 0.5099 0.04809 0.36182 0.0
C149 C 0.5096 0.05052 0.2812 0.0
C150 C 0.53256 0.04738 0.48598 0.0
C151 C 0.54544 1.03702 0.52672 0.0
C152 C 0.54343 1.03357 0.61358 0.0
C153 C 0.54758 1.0106 0.64376 0.0
C154 C 0.54673 1.00684 0.72402 0.0
C155 C 0.54206 1.02629 0.77746 0.0
H156 H 0.5361 0.07194 0.64725 0.0
C157 C 0.53801 0.04953 0.74805 0.0
C158 C 0.53864 0.05313 0.6671 0.0
H159 H 0.53465 0.0652 0.78762 0.0
H160 H 0.57416 0.05806 0.23582 0.0
H161 H 0.57487 0.05388 0.37681 0.0
H162 H 0.49184 0.0456 0.39576 0.0
H163 H 0.49135 0.04989 0.25581 0.0
H164 H 0.51926 0.05313 0.51727 0.0
H165 H 0.55647 1.02839 0.49468 0.0
H166 H 0.55149 0.99529 0.6049 0.0
H167 H 0.55008 0.98881 0.74433 0.0
C168 C 0.53078 0.53355 0.74148 0.0
C169 C 0.56625 0.56468 0.78144 0.0
C170 C 0.52663 0.53095 0.65922 0.0
C171 C 0.558 0.5595 0.61484 0.0
C172 C 0.59322 0.5902 0.65557 0.0
C173 C 0.59727 0.59278 0.73699 0.0
C174 C 0.55622 0.55872 0.52676 0.0
C175 C 0.52512 0.5349 0.47945 0.0
C176 C 0.52334 0.53409 0.39138 0.0
C177 C 0.48811 0.50313 0.3506 0.0
C178 C 0.48404 0.50055 0.26919 0.0
C179 C 0.51505 0.5289 0.2248 0.0
H180 H 0.5825 0.58782 0.37513 0.0
C181 C 0.55053 0.56027 0.2648 0.0
C182 C 0.55469 0.56288 0.34705 0.0
H183 H 0.57501 0.58304 0.23279 0.0
H184 H 0.50628 0.51099 0.77353 0.0
H185 H 0.49882 0.50622 0.63121 0.0
H186 H 0.61804 0.61263 0.6242 0.0
H187 H 0.6251 0.61714 0.76525 0.0
H188 H 0.58236 0.57934 0.5002 0.0
H189 H 0.49897 0.51424 0.50599 0.0
H190 H 0.4633 0.48052 0.38193 0.0
H191 H 0.45621 0.476 0.2409 0.0
C192 C 0.18804 0.49323 0.97934 0.0
C193 C 0.17474 0.49453 0.9121 0.0
C194 C 0.21171 0.49079 0.97368 0.0
C195 C 0.22271 0.4896 0.90042 0.0
C196 C 0.2095 0.49106 0.83343 0.0
C197 C 0.18602 0.49373 0.83914 0.0
C198 C 0.24619 0.48458 0.89067 0.0
C199 C 0.26941 0.4957 0.94812 0.0
C200 C 0.2926 0.49029 0.93768 0.0
C201 C 0.3252 0.51682 0.98667 0.0
C202 C 0.3474 0.51231 0.97974 0.0
C203 C 0.33732 0.48064 0.9242 0.0
H204 H 0.2568 0.43631 0.84514 0.0
C205 C 0.30441 0.45371 0.87568 0.0
C206 C 0.28231 0.45841 0.88232 0.0
H207 H 0.29526 0.42834 0.83336 0.0
H208 H 0.18003 0.49395 0.03652 0.0
H209 H 0.22045 0.4887 0.02663 0.0
H210 H 0.21716 0.48981 0.77614 0.0
H211 H 0.1759 0.49395 0.78595 0.0
H212 H 0.24522 0.47274 0.83259 0.0
H213 H 0.27305 0.51126 0.00423 0.0
H214 H 0.33378 0.5415 0.03013 0.0
H215 H 0.37275 0.53412 0.01745 0.0
C216 C 0.67783 0.19437 0.95451 0.0
C217 C 0.66252 0.16489 0.01007 0.0
C218 C 0.71638 0.2328 0.9559 0.0
C219 C 0.74059 0.24314 0.0138 0.0
C220 C 0.72522 0.21383 0.06956 0.0
C221 C 0.68681 0.17497 0.06713 0.0
C222 C 0.78156 0.2851 0.0203 0.0
C223 C 0.80165 0.30544 0.95806 0.0
C224 C 0.84274 0.34692 0.96482 0.0
C225 C 0.86421 0.3541 0.90579 0.0
C226 C 0.9027 0.39285 0.90966 0.0
C227 C 0.92064 0.4261 0.97154 0.0
H228 H 0.84497 0.37619 0.07265 0.0
C229 C 0.89906 0.41935 0.02987 0.0
C230 C 0.86067 0.38012 0.02698 0.0
H231 H 0.91193 0.44421 0.07846 0.0
H232 H 0.66001 0.18773 0.90974 0.0
H233 H 0.72704 0.25492 0.91289 0.0
H234 H 0.74305 0.22098 0.11524 0.0
H235 H 0.67607 0.15328 0.11115 0.0
H236 H 0.79594 0.29843 0.0783 0.0
H237 H 0.78795 0.28993 0.89953 0.0
H238 H 0.85121 0.32937 0.85682 0.0
H239 H 0.91835 0.39694 0.86357 0.0
C240 C 0.55291 0.83475 1.00077 0.0
C241 C 0.55939 0.85823 0.0703 0.0
C242 C 0.55597 0.80788 1.00116 0.0
C243 C 0.56554 0.80363 0.07131 0.0
C244 C 0.57264 0.8277 0.14037 0.0
C245 C 0.56945 0.8544 0.14004 0.0
C246 C 0.56896 0.77515 0.0748 0.0
C247 C 0.55109 0.74024 0.02222 0.0
C248 C 0.55184 0.70938 0.0263 0.0
C249 C 0.52322 0.66794 0.98423 0.0
C250 C 0.52244 0.63774 0.98389 0.0
C251 C 0.55059 0.64799 0.02499 0.0
H252 H 0.60317 0.75189 0.09987 0.0
C253 C 0.57957 0.68965 0.06703 0.0
C254 C 0.58018 0.72002 0.06789 0.0
H255 H 0.60179 0.69883 0.09911 0.0
H256 H 0.54511 0.83677 0.9459 0.0
H257 H 0.55128 0.79105 0.94606 0.0
H258 H 0.58046 0.82563 0.19519 0.0
H259 H 0.57544 0.87257 0.19454 0.0
H260 H 0.58485 0.78172 0.12513 0.0
H261 H 0.53285 0.73187 0.97565 0.0
H262 H 0.50109 0.65865 0.95129 0.0
H263 H 0.49964 0.60626 0.95035 0.0
C264 C 0.89714 0.60536 0.02378 0.0
C265 C 0.90434 0.59428 0.08566 0.0
C266 C 0.87255 0.6064 0.03053 0.0
C267 C 0.85431 0.59618 0.09945 0.0
C268 C 0.86128 0.58473 0.16088 0.0
C269 C 0.88578 0.58358 0.15404 0.0
C270 C 0.82951 0.59927 0.11145 0.0
C271 C 0.81306 0.59879 0.05289 0.0
C272 C 0.78898 0.6029 0.06525 0.0
C273 C 0.76406 0.58813 0.00336 0.0
C274 C 0.74172 0.59242 0.01133 0.0
C275 C 0.74393 0.61211 0.08134 0.0
H276 H 0.8109 0.63583 0.18379 0.0
C277 C 0.76906 0.62716 0.14326 0.0
C278 C 0.79133 0.62271 0.13537 0.0
H279 H 0.77215 0.64326 0.19755 0.0
H280 H 0.91071 0.61352 0.97002 0.0
H281 H 0.86882 0.61636 0.98226 0.0
H282 H 0.84798 0.57702 0.21495 0.0
H283 H 0.89097 0.57552 0.20339 0.0
H284 H 0.82384 0.6007 0.17132 0.0
H285 H 0.81609 0.5936 0.99271 0.0
H286 H 0.76168 0.57294 0.94848 0.0
H287 H 0.7224 0.57981 0.96265 0.0
C288 C 0.18026 0.70816 0.04475 0.0
C289 C 0.16238 0.66627 0.02053 0.0
C290 C 0.21906 0.74539 0.04407 0.0
C291 C 0.24099 0.74158 0.01954 0.0
C292 C 0.22304 0.69961 0.99697 0.0
C293 C 0.18445 0.66267 0.99686 0.0
C294 C 0.28252 0.77979 0.01849 0.0
C295 C 0.30236 0.82142 0.01436 0.0
C296 C 0.34379 0.85905 0.00995 0.0
C297 C 0.35988 0.89704 0.98114 0.0
C298 C 0.39843 0.93333 0.97724 0.0
C299 C 0.42229 0.93302 0.00282 0.0
H300 H 0.35688 0.83077 0.06014 0.0
C301 C 0.40628 0.89509 0.03197 0.0
C302 C 0.36766 0.85867 0.03559 0.0
H303 H 0.42362 0.89356 0.05289 0.0
H304 H 0.16424 0.71227 0.06345 0.0
H305 H 0.2317 0.77689 0.06374 0.0
H306 H 0.23894 0.6953 0.97839 0.0
H307 H 0.17194 0.63111 0.97808 0.0
H308 H 0.29696 0.77248 0.01654 0.0
H309 H 0.28762 0.82821 0.01004 0.0
H310 H 0.3425 0.89871 0.96136 0.0
H311 H 0.4095 0.96185 0.95482 0.0
C312 C 0.49921 0.40242 0.94606 0.0
C313 C 0.52964 0.44505 0.98348 0.0
C314 C 0.49756 0.37126 0.94791 0.0
C315 C 0.52632 0.3821 0.98765 0.0
C316 C 0.55656 0.42465 0.02452 0.0
C317 C 0.55834 0.4556 0.02218 0.0
C318 C 0.52603 0.35055 0.99543 0.0
C319 C 0.50572 0.31314 0.94815 0.0
C320 C 0.50793 0.28366 0.95513 0.0
C321 C 0.48027 0.24135 0.9152 0.0
C322 C 0.48187 0.21321 0.91795 0.0
C323 C 0.51127 0.2266 0.9608 0.0
H324 H 0.56023 0.32958 0.02743 0.0
C325 C 0.53893 0.26887 1.0008 0.0
C326 C 0.53746 0.29705 0.99777 0.0
H327 H 0.56251 0.28082 0.03279 0.0
H328 H 0.47652 0.393 0.91596 0.0
H329 H 0.47342 0.33867 0.9198 0.0
H330 H 0.57913 0.43418 0.05571 0.0
H331 H 0.5823 0.48787 0.05199 0.0
H332 H 0.54455 0.35979 0.0423 0.0
H333 H 0.48685 0.30361 0.90173 0.0
H334 H 0.45728 0.22995 0.88142 0.0
H335 H 0.45995 0.18086 0.88663 0.0
loop_
_geom_bond_atom_site_label_1
_geom_bond_atom_site_label_2
_geom_bond_distance
_geom_bond_site_symmetry_2
_ccdc_geom_bond_type
Nd0 C2 2.836 1_556 S
Nd0 O20 2.500 1_556 S
Nd0 O21 2.492 . S
Nd0 O22 2.487 . S
Nd0 O23 2.682 1_655 S
Nd0 O24 2.410 . S
Nd0 O29 2.414 1_556 S
Nd0 O31 2.425 1_656 S
Nd1 C11 2.836 1_554 S
Nd1 O23 2.414 1_554 S
Nd1 O25 2.424 1_454 S
Nd1 O26 2.500 1_554 S
Nd1 O27 2.492 . S
Nd1 O28 2.487 . S
Nd1 O29 2.682 1_455 S
Nd1 O30 2.410 . S
C2 Nd0 2.836 1_554 S
C2 C3 1.498 . S
C2 O20 1.258 . S
C2 O21 1.239 1_554 S
C3 C2 1.498 . S
C3 C4 1.366 . S
C3 C8 1.407 1_554 S
C4 C3 1.366 . S
C4 C5 1.392 . S
C4 H32 0.930 . S
C5 C4 1.392 . S
C5 C6 1.398 . S
C5 H33 0.929 . S
C6 C5 1.398 . S
C6 C7 1.352 1_554 S
C7 C6 1.352 1_556 S
C7 C8 1.384 . S
C7 H34 0.930 . S
C8 C3 1.407 1_556 S
C8 C7 1.384 . S
C8 H35 0.929 . S
C9 O22 1.226 1_455 S
C9 O23 1.281 . S
C10 O24 1.251 . S
C10 O25 1.269 . S
C11 Nd1 2.836 1_556 S
C11 C12 1.498 . S
C11 O26 1.258 . S
C11 O27 1.239 1_556 S
C12 C11 1.498 . S
C12 C13 1.366 . S
C12 C17 1.407 1_556 S
C13 C12 1.366 . S
C13 C14 1.392 . S
C13 H36 0.930 . S
C14 C13 1.392 . S
C14 C15 1.398 . S
C14 H37 0.929 . S
C15 C14 1.398 . S
C15 C16 1.352 1_556 S
C16 C15 1.352 1_554 S
C16 C17 1.384 . S
C16 H38 0.930 . S
C17 C12 1.407 1_554 S
C17 C16 1.384 . S
C17 H39 0.929 . S
C18 O28 1.241 . S
C18 O29 1.273 1_455 S
C19 O30 1.251 . S
C19 O31 1.270 . S
O20 Nd0 2.500 1_554 S
O20 C2 1.258 . S
O21 Nd0 2.492 . S
O21 C2 1.239 1_556 S
O22 Nd0 2.487 . S
O22 C9 1.226 1_655 S
O23 Nd0 2.682 1_455 S
O23 Nd1 2.414 1_556 S
O23 C9 1.281 . S
O24 Nd0 2.410 . S
O24 C10 1.251 . S
O25 Nd1 2.424 1_656 S
O25 C10 1.269 . S
O26 Nd1 2.500 1_556 S
O26 C11 1.258 . S
O27 Nd1 2.492 . S
O27 C11 1.239 1_554 S
O28 Nd1 2.487 . S
O28 C18 1.241 . S
O29 Nd0 2.414 1_554 S
O29 Nd1 2.682 1_655 S
O29 C18 1.273 1_655 S
O30 Nd1 2.410 . S
O30 C19 1.251 . S
O31 Nd0 2.425 1_454 S
O31 C19 1.270 . S
H32 C4 0.930 . S
H33 C5 0.929 . S
H34 C7 0.930 . S
H35 C8 0.929 . S
H36 C13 0.930 . S
H37 C14 0.929 . S
H38 C16 0.930 . S
H39 C17 0.929 . S
Nd40 C42 2.836 . S
Nd40 O60 2.500 1_554 S
Nd40 O61 2.492 . S
Nd40 O62 2.487 . S
Nd40 O63 2.682 1_545 S
Nd40 O64 2.410 . S
Nd40 O69 2.414 1_554 S
Nd40 O71 2.424 1_545 S
Nd41 C51 2.836 . S
Nd41 O63 2.414 1_556 S
Nd41 O65 2.424 1_565 S
Nd41 O66 2.500 1_556 S
Nd41 O67 2.492 . S
Nd41 O68 2.487 . S
Nd41 O69 2.682 1_565 S
Nd41 O70 2.410 . S
C42 Nd40 2.836 . S
C42 C43 1.498 . S
C42 O60 1.258 1_554 S
C42 O61 1.239 . S
C43 C42 1.498 . S
C43 C44 1.366 1_554 S
C43 C48 1.407 . S
C44 C43 1.366 1_556 S
C44 C45 1.392 . S
C44 H72 0.930 . S
C45 C44 1.392 . S
C45 C46 1.398 1_556 S
C45 H73 0.929 . S
C46 C45 1.398 1_554 S
C46 C47 1.352 . S
C47 C46 1.352 . S
C47 C48 1.384 . S
C47 H74 0.930 . S
C48 C43 1.407 . S
C48 C47 1.384 . S
C48 H75 0.929 . S
C49 O62 1.241 . S
C49 O63 1.273 1_545 S
C50 O64 1.251 . S
C50 O65 1.268 1_554 S
C51 Nd41 2.836 . S
C51 C52 1.498 . S
C51 O66 1.258 1_556 S
C51 O67 1.239 . S
C52 C51 1.498 . S
C52 C53 1.366 1_556 S
C52 C57 1.407 . S
C53 C52 1.366 1_554 S
C53 C54 1.392 . S
C53 H76 0.930 . S
C54 C53 1.392 . S
C54 C55 1.398 1_554 S
C54 H77 0.929 . S
C55 C54 1.398 1_556 S
C55 C56 1.352 . S
C56 C55 1.352 . S
C56 C57 1.384 . S
C56 H78 0.930 . S
C57 C52 1.407 . S
C57 C56 1.384 . S
C57 H79 0.929 . S
C58 O68 1.241 . S
C58 O69 1.273 1_565 S
C59 O70 1.251 . S
C59 O71 1.268 1_556 S
O60 Nd40 2.500 1_556 S
O60 C42 1.258 1_556 S
O61 Nd40 2.492 . S
O61 C42 1.239 . S
O62 Nd40 2.487 . S
O62 C49 1.241 . S
O63 Nd40 2.682 1_565 S
O63 Nd41 2.414 1_554 S
O63 C49 1.273 1_565 S
O64 Nd40 2.410 . S
O64 C50 1.251 . S
O65 Nd41 2.424 1_545 S
O65 C50 1.268 1_556 S
O66 Nd41 2.500 1_554 S
O66 C51 1.258 1_554 S
O67 Nd41 2.492 . S
O67 C51 1.239 . S
O68 Nd41 2.487 . S
O68 C58 1.241 . S
O69 Nd40 2.414 1_556 S
O69 Nd41 2.682 1_545 S
O69 C58 1.273 1_545 S
O70 Nd41 2.410 . S
O70 C59 1.251 . S
O71 Nd40 2.424 1_565 S
O71 C59 1.268 1_554 S
H72 C44 0.930 . S
H73 C45 0.929 . S
H74 C47 0.930 . S
H75 C48 0.929 . S
H76 C53 0.930 . S
H77 C54 0.929 . S
H78 C56 0.930 . S
H79 C57 0.929 . S
Nd80 C82 2.836 1_554 S
Nd80 O100 2.500 1_554 S
Nd80 O101 2.492 . S
Nd80 O102 2.487 . S
Nd80 O103 2.682 . S
Nd80 O104 2.410 . S
Nd80 O109 2.414 1_554 S
Nd80 O111 2.424 1_554 S
Nd81 C91 2.836 1_556 S
Nd81 O103 2.414 1_556 S
Nd81 O105 2.424 1_556 S
Nd81 O106 2.500 1_556 S
Nd81 O107 2.492 . S
Nd81 O108 2.487 . S
Nd81 O109 2.682 . S
Nd81 O110 2.410 . S
C82 Nd80 2.836 1_556 S
C82 C83 1.498 . S
C82 O100 1.258 . S
C82 O101 1.239 1_556 S
C83 C82 1.498 . S
C83 C84 1.366 . S
C83 C88 1.407 1_556 S
C84 C83 1.366 . S
C84 C85 1.392 . S
C84 H112 0.930 . S
C85 C84 1.392 . S
C85 C86 1.398 . S
C85 H113 0.929 . S
C86 C85 1.398 . S
C86 C87 1.352 1_556 S
C87 C86 1.352 1_554 S
C87 C88 1.384 . S
C87 H114 0.930 . S
C88 C83 1.407 1_554 S
C88 C87 1.384 . S
C88 H115 0.929 . S
C89 O102 1.241 . S
C89 O103 1.273 . S
C90 O104 1.251 . S
C90 O105 1.268 . S
C91 Nd81 2.836 1_554 S
C91 C92 1.498 . S
C91 O106 1.258 . S
C91 O107 1.239 1_554 S
C92 C91 1.498 . S
C92 C93 1.366 . S
C92 C97 1.407 1_554 S
C93 C92 1.366 . S
C93 C94 1.392 . S
C93 H116 0.930 . S
C94 C93 1.392 . S
C94 C95 1.398 . S
C94 H117 0.929 . S
C95 C94 1.398 . S
C95 C96 1.352 1_554 S
C96 C95 1.352 1_556 S
C96 C97 1.384 . S
C96 H118 0.930 . S
C97 C92 1.407 1_556 S
C97 C96 1.384 . S
C97 H119 0.929 . S
C98 O108 1.241 . S
C98 O109 1.273 . S
C99 O110 1.251 . S
C99 O111 1.268 . S
O100 Nd80 2.500 1_556 S
O100 C82 1.258 . S
O101 Nd80 2.492 . S
O101 C82 1.239 1_554 S
O102 Nd80 2.487 . S
O102 C89 1.241 . S
O103 Nd80 2.682 . S
O103 Nd81 2.414 1_554 S
O103 C89 1.273 . S
O104 Nd80 2.410 . S
O104 C90 1.251 . S
O105 Nd81 2.424 1_554 S
O105 C90 1.268 . S
O106 Nd81 2.500 1_554 S
O106 C91 1.258 . S
O107 Nd81 2.492 . S
O107 C91 1.239 1_556 S
O108 Nd81 2.487 . S
O108 C98 1.241 . S
O109 Nd80 2.414 1_556 S
O109 Nd81 2.682 . S
O109 C98 1.273 . S
O110 Nd81 2.410 . S
O110 C99 1.251 . S
O111 Nd80 2.424 1_556 S
O111 C99 1.268 . S
H112 C84 0.930 . S
H113 C85 0.929 . S
H114 C87 0.930 . S
H115 C88 0.929 . S
H116 C93 0.930 . S
H117 C94 0.929 . S
H118 C96 0.930 . S
H119 C97 0.929 . S
C120 C121 1.386 1_655 S
C120 C122 1.383 . S
C120 H136 0.951 . S
C121 C120 1.386 1_455 S
C121 C125 1.383 . S
C122 C120 1.383 . S
C122 C123 1.402 1_655 S
C122 H137 0.951 . S
C123 C122 1.402 1_455 S
C123 C124 1.375 . S
C123 C126 1.481 . S
C124 C123 1.375 . S
C124 C125 1.367 . S
C124 H138 0.951 . S
C125 C121 1.383 . S
C125 C124 1.367 . S
C125 H139 0.950 . S
C126 C123 1.481 . S
C126 C127 1.297 1_455 S
C126 H140 0.950 . S
C127 C126 1.297 1_655 S
C127 C128 1.479 . S
C127 H141 0.950 . S
C128 C127 1.479 . S
C128 C129 1.375 . S
C128 C134 1.404 1_655 S
C129 C128 1.375 . S
C129 C130 1.369 . S
C129 H142 0.950 . S
C130 C129 1.369 . S
C130 C131 1.392 . S
C130 H143 0.951 . S
C131 C130 1.392 . S
C131 C133 1.384 1_655 S
H132 C134 0.949 . S
C133 C131 1.384 1_455 S
C133 C134 1.385 . S
C133 H135 0.950 . S
C134 C128 1.404 1_455 S
C134 H132 0.949 . S
C134 C133 1.385 . S
H135 C133 0.950 . S
H136 C120 0.951 . S
H137 C122 0.951 . S
H138 C124 0.951 . S
H139 C125 0.950 . S
H140 C126 0.950 . S
H141 C127 0.950 . S
H142 C129 0.950 . S
H143 C130 0.951 . S
C144 C145 1.386 1_565 S
C144 C146 1.383 . S
C144 H160 0.951 . S
C145 C144 1.386 1_545 S
C145 C149 1.383 . S
C146 C144 1.383 . S
C146 C147 1.402 1_565 S
C146 H161 0.951 . S
C147 C146 1.402 1_545 S
C147 C148 1.375 . S
C147 C150 1.481 . S
C148 C147 1.375 . S
C148 C149 1.367 . S
C148 H162 0.951 . S
C149 C145 1.383 . S
C149 C148 1.367 . S
C149 H163 0.950 . S
C150 C147 1.481 . S
C150 C151 1.297 . S
C150 H164 0.950 . S
C151 C150 1.297 . S
C151 C152 1.479 . S
C151 H165 0.950 1_545 S
C152 C151 1.479 . S
C152 C153 1.375 1_545 S
C152 C158 1.404 . S
C153 C152 1.375 1_565 S
C153 C154 1.369 . S
C153 H166 0.950 . S
C154 C153 1.369 . S
C154 C155 1.392 1_565 S
C154 H167 0.951 . S
C155 C154 1.392 1_545 S
C155 C157 1.384 . S
H156 C158 0.949 . S
C157 C155 1.384 . S
C157 C158 1.385 . S
C157 H159 0.950 . S
C158 C152 1.404 . S
C158 H156 0.949 . S
C158 C157 1.385 . S
H159 C157 0.950 . S
H160 C144 0.951 . S
H161 C146 0.951 . S
H162 C148 0.951 . S
H163 C149 0.950 . S
H164 C150 0.950 . S
H165 C151 0.950 1_565 S
H166 C153 0.950 . S
H167 C154 0.951 . S
C168 C169 1.386 . S
C168 C170 1.383 . S
C168 H184 0.951 . S
C169 C168 1.386 . S
C169 C173 1.383 . S
C170 C168 1.383 . S
C170 C171 1.402 . S
C170 H185 0.951 . S
C171 C170 1.402 . S
C171 C172 1.375 . S
C171 C174 1.481 . S
C172 C171 1.375 . S
C172 C173 1.367 . S
C172 H186 0.951 . S
C173 C169 1.383 . S
C173 C172 1.367 . S
C173 H187 0.950 . S
C174 C171 1.481 . S
C174 C175 1.297 . S
C174 H188 0.950 . S
C175 C174 1.297 . S
C175 C176 1.479 . S
C175 H189 0.950 . S
C176 C175 1.479 . S
C176 C177 1.375 . S
C176 C182 1.404 . S
C177 C176 1.375 . S
C177 C178 1.369 . S
C177 H190 0.950 . S
C178 C177 1.369 . S
C178 C179 1.392 . S
C178 H191 0.951 . S
C179 C178 1.392 . S
C179 C181 1.384 . S
H180 C182 0.949 . S
C181 C179 1.384 . S
C181 C182 1.385 . S
C181 H183 0.950 . S
C182 C176 1.404 . S
C182 H180 0.949 . S
C182 C181 1.385 . S
H183 C181 0.950 . S
H184 C168 0.951 . S
H185 C170 0.951 . S
H186 C172 0.951 . S
H187 C173 0.950 . S
H188 C174 0.950 . S
H189 C175 0.950 . S
H190 C177 0.950 . S
H191 C178 0.951 . S
C192 C193 1.386 1_554 S
C192 C194 1.383 . S
C192 H208 0.951 . S
C193 C192 1.386 1_556 S
C193 C197 1.383 . S
C194 C192 1.383 . S
C194 C195 1.402 1_554 S
C194 H209 0.951 . S
C195 C194 1.402 1_556 S
C195 C196 1.375 . S
C195 C198 1.481 . S
C196 C195 1.375 . S
C196 C197 1.367 . S
C196 H210 0.951 . S
C197 C193 1.383 . S
C197 C196 1.367 . S
C197 H211 0.950 . S
C198 C195 1.481 . S
C198 C199 1.297 1_556 S
C198 H212 0.950 . S
C199 C198 1.297 1_554 S
C199 C200 1.479 1_554 S
C199 H213 0.950 . S
C200 C199 1.479 1_556 S
C200 C201 1.375 1_556 S
C200 C206 1.404 . S
C201 C200 1.375 1_554 S
C201 C202 1.369 . S
C201 H214 0.950 . S
C202 C201 1.369 . S
C202 C203 1.392 1_554 S
C202 H215 0.951 . S
C203 C202 1.392 1_556 S
C203 C205 1.384 . S
H204 C206 0.949 . S
C205 C203 1.384 . S
C205 C206 1.385 . S
C205 H207 0.950 . S
C206 C200 1.404 . S
C206 H204 0.949 . S
C206 C205 1.385 . S
H207 C205 0.950 . S
H208 C192 0.951 . S
H209 C194 0.951 . S
H210 C196 0.951 . S
H211 C197 0.950 . S
H212 C198 0.950 . S
H213 C199 0.950 . S
H214 C201 0.950 . S
H215 C202 0.951 . S
C216 C217 1.386 1_556 S
C216 C218 1.383 . S
C216 H232 0.951 . S
C217 C216 1.386 1_554 S
C217 C221 1.383 . S
C218 C216 1.383 . S
C218 C219 1.402 1_556 S
C218 H233 0.951 . S
C219 C218 1.402 1_554 S
C219 C220 1.375 . S
C219 C222 1.481 . S
C220 C219 1.375 . S
C220 C221 1.367 . S
C220 H234 0.951 . S
C221 C217 1.383 . S
C221 C220 1.367 . S
C221 H235 0.950 . S
C222 C219 1.481 . S
C222 C223 1.297 1_554 S
C222 H236 0.950 . S
C223 C222 1.297 1_556 S
C223 C224 1.479 . S
C223 H237 0.950 . S
C224 C223 1.479 . S
C224 C225 1.375 . S
C224 C230 1.404 1_556 S
C225 C224 1.375 . S
C225 C226 1.369 . S
C225 H238 0.950 . S
C226 C225 1.369 . S
C226 C227 1.392 . S
C226 H239 0.951 . S
C227 C226 1.392 . S
C227 C229 1.384 1_556 S
H228 C230 0.949 . S
C229 C227 1.384 1_554 S
C229 C230 1.385 . S
C229 H231 0.950 . S
C230 C224 1.404 1_554 S
C230 H228 0.949 . S
C230 C229 1.385 . S
H231 C229 0.950 . S
H232 C216 0.951 . S
H233 C218 0.951 . S
H234 C220 0.951 . S
H235 C221 0.950 . S
H236 C222 0.950 . S
H237 C223 0.950 . S
H238 C225 0.950 . S
H239 C226 0.951 . S
C240 C241 1.386 . S
C240 C242 1.383 . S
C240 H256 0.951 . S
C241 C240 1.386 . S
C241 C245 1.383 1_556 S
C242 C240 1.383 . S
C242 C243 1.402 1_556 S
C242 H257 0.951 . S
C243 C242 1.402 1_554 S
C243 C244 1.375 . S
C243 C246 1.481 . S
C244 C243 1.375 . S
C244 C245 1.367 . S
C244 H258 0.951 . S
C245 C241 1.383 1_554 S
C245 C244 1.367 . S
C245 H259 0.950 . S
C246 C243 1.481 . S
C246 C247 1.297 1_554 S
C246 H260 0.950 . S
C247 C246 1.297 1_556 S
C247 C248 1.479 . S
C247 H261 0.950 . S
C248 C247 1.479 . S
C248 C249 1.375 . S
C248 C254 1.404 1_556 S
C249 C248 1.375 . S
C249 C250 1.369 . S
C249 H262 0.950 . S
C250 C249 1.369 . S
C250 C251 1.392 . S
C250 H263 0.951 . S
C251 C250 1.392 . S
C251 C253 1.384 1_556 S
H252 C254 0.949 . S
C253 C251 1.384 1_554 S
C253 C254 1.385 . S
C253 H255 0.950 . S
C254 C248 1.404 1_554 S
C254 H252 0.949 . S
C254 C253 1.385 . S
H255 C253 0.950 . S
H256 C240 0.951 . S
H257 C242 0.951 . S
H258 C244 0.951 . S
H259 C245 0.950 . S
H260 C246 0.950 . S
H261 C247 0.950 . S
H262 C249 0.950 . S
H263 C250 0.951 . S
C264 C265 1.386 1_556 S
C264 C266 1.383 . S
C264 H280 0.951 . S
C265 C264 1.386 1_554 S
C265 C269 1.383 . S
C266 C264 1.383 . S
C266 C267 1.402 1_556 S
C266 H281 0.951 . S
C267 C266 1.402 1_554 S
C267 C268 1.375 . S
C267 C270 1.481 . S
C268 C267 1.375 . S
C268 C269 1.367 . S
C268 H282 0.951 . S
C269 C265 1.383 . S
C269 C268 1.367 . S
C269 H283 0.950 . S
C270 C267 1.481 . S
C270 C271 1.297 . S
C270 H284 0.950 . S
C271 C270 1.297 . S
C271 C272 1.479 . S
C271 H285 0.950 1_554 S
C272 C271 1.479 . S
C272 C273 1.375 1_554 S
C272 C278 1.404 . S
C273 C272 1.375 1_556 S
C273 C274 1.369 . S
C273 H286 0.950 . S
C274 C273 1.369 . S
C274 C275 1.392 1_556 S
C274 H287 0.951 . S
C275 C274 1.392 1_554 S
C275 C277 1.384 . S
H276 C278 0.949 . S
C277 C275 1.384 . S
C277 C278 1.385 . S
C277 H279 0.950 . S
C278 C272 1.404 . S
C278 H276 0.949 . S
C278 C277 1.385 . S
H279 C277 0.950 . S
H280 C264 0.951 . S
H281 C266 0.951 . S
H282 C268 0.951 . S
H283 C269 0.950 . S
H284 C270 0.950 . S
H285 C271 0.950 1_556 S
H286 C273 0.950 . S
H287 C274 0.951 . S
C288 C289 1.386 1_556 S
C288 C290 1.383 . S
C288 H304 0.951 . S
C289 C288 1.386 1_554 S
C289 C293 1.383 . S
C290 C288 1.383 . S
C290 C291 1.402 1_556 S
C290 H305 0.951 . S
C291 C290 1.402 1_554 S
C291 C292 1.375 . S
C291 C294 1.481 . S
C292 C291 1.375 . S
C292 C293 1.367 . S
C292 H306 0.951 . S
C293 C289 1.383 . S
C293 C292 1.367 . S
C293 H307 0.950 . S
C294 C291 1.481 . S
C294 C295 1.296 . S
C294 H308 0.950 . S
C295 C294 1.296 . S
C295 C296 1.480 . S
C295 H309 0.951 1_554 S
C296 C295 1.480 . S
C296 C297 1.375 1_554 S
C296 C302 1.404 . S
C297 C296 1.375 1_556 S
C297 C298 1.369 . S
C297 H310 0.950 . S
C298 C297 1.369 . S
C298 C299 1.392 1_556 S
C298 H311 0.951 . S
C299 C298 1.392 1_554 S
C299 C301 1.384 . S
H300 C302 0.949 . S
C301 C299 1.384 . S
C301 C302 1.385 . S
C301 H303 0.950 . S
C302 C296 1.404 . S
C302 H300 0.949 . S
C302 C301 1.385 . S
H303 C301 0.950 . S
H304 C288 0.951 . S
H305 C290 0.951 . S
H306 C292 0.951 . S
H307 C293 0.950 . S
H308 C294 0.950 . S
H309 C295 0.951 1_556 S
H310 C297 0.950 . S
H311 C298 0.951 . S
C312 C313 1.386 . S
C312 C314 1.383 . S
C312 H328 0.951 . S
C313 C312 1.386 . S
C313 C317 1.383 1_556 S
C314 C312 1.383 . S
C314 C315 1.399 1_556 S
C314 H329 0.951 . S
C315 C314 1.399 1_554 S
C315 C316 1.378 . S
C315 C318 1.482 . S
C316 C315 1.378 . S
C316 C317 1.367 . S
C316 H330 0.951 . S
C317 C313 1.383 1_554 S
C317 C316 1.367 . S
C317 H331 0.950 . S
C318 C315 1.482 . S
C318 C319 1.297 1_554 S
C318 H332 0.950 . S
C319 C318 1.297 1_556 S
C319 C320 1.479 . S
C319 H333 0.950 . S
C320 C319 1.479 . S
C320 C321 1.375 . S
C320 C326 1.404 1_556 S
C321 C320 1.375 . S
C321 C322 1.369 . S
C321 H334 0.950 . S
C322 C321 1.369 . S
C322 C323 1.392 . S
C322 H335 0.951 . S
C323 C322 1.392 . S
C323 C325 1.384 1_556 S
H324 C326 0.949 . S
C325 C323 1.384 1_554 S
C325 C326 1.385 . S
C325 H327 0.950 . S
C326 C320 1.404 1_554 S
C326 H324 0.949 . S
C326 C325 1.385 . S
H327 C325 0.950 . S
H328 C312 0.951 . S
H329 C314 0.951 . S
H330 C316 0.951 . S
H331 C317 0.950 . S
H332 C318 0.950 . S
H333 C319 0.950 . S
H334 C321 0.950 . S
H335 C322 0.951 . S
C121 C9 1.419 . S
C131 C18 1.483 1_655 S
C145 C49 1.434 . S
C155 C58 1.432 1_545 S
C169 C98 1.419 . S
C179 C89 1.421 . S
C193 C15 0.888 . S
C203 C86 0.911 . S
C217 C50 2.581 . S
C227 C10 2.606 . S
C241 C55 1.922 . S
C251 C90 1.994 1_556 S
C265 C6 0.925 . S
C275 C95 0.888 . S
C289 C19 2.609 . S
C299 C59 2.551 1_554 S
C313 C99 1.979 . S
C323 C46 1.950 1_556 S
