# Generated by pormake.
# Topology flu-e, (6)-cn, num edge types: 1
# Building blocks:
#     Node 0, Type 0, BuildingBlock: IZENUY_clean_sbu_0, # of connection points: 6
#     Node 1, Type 0, BuildingBlock: IZENUY_clean_sbu_0, # of connection points: 6
#     Node 2, Type 0, BuildingBlock: IZENUY_clean_sbu_0, # of connection points: 6
#     Node 3, Type 0, BuildingBlock: IZENUY_clean_sbu_0, # of connection points: 6
#     Node 4, Type 0, BuildingBlock: IZENUY_clean_sbu_0, # of connection points: 6
#     Node 5, Type 0, BuildingBlock: IZENUY_clean_sbu_0, # of connection points: 6
#     Node 6, Type 0, BuildingBlock: IZENUY_clean_sbu_0, # of connection points: 6
#     Node 7, Type 0, BuildingBlock: IZENUY_clean_sbu_0, # of connection points: 6
#     Node 8, Type 0, BuildingBlock: IZENUY_clean_sbu_0, # of connection points: 6
#     Node 9, Type 0, BuildingBlock: IZENUY_clean_sbu_0, # of connection points: 6
#     Node 10, Type 0, BuildingBlock: IZENUY_clean_sbu_0, # of connection points: 6
#     Node 11, Type 0, BuildingBlock: IZENUY_clean_sbu_0, # of connection points: 6
#     Node 12, Type 0, BuildingBlock: IZENUY_clean_sbu_0, # of connection points: 6
#     Node 13, Type 0, BuildingBlock: IZENUY_clean_sbu_0, # of connection points: 6
#     Node 14, Type 0, BuildingBlock: IZENUY_clean_sbu_0, # of connection points: 6
#     Node 15, Type 0, BuildingBlock: IZENUY_clean_sbu_0, # of connection points: 6
#     Node 16, Type 0, BuildingBlock: IZENUY_clean_sbu_0, # of connection points: 6
#     Node 17, Type 0, BuildingBlock: IZENUY_clean_sbu_0, # of connection points: 6
#     Node 18, Type 0, BuildingBlock: IZENUY_clean_sbu_0, # of connection points: 6
#     Node 19, Type 0, BuildingBlock: IZENUY_clean_sbu_0, # of connection points: 6
#     Node 20, Type 0, BuildingBlock: IZENUY_clean_sbu_0, # of connection points: 6
#     Node 21, Type 0, BuildingBlock: IZENUY_clean_sbu_0, # of connection points: 6
#     Node 22, Type 0, BuildingBlock: IZENUY_clean_sbu_0, # of connection points: 6
#     Node 23, Type 0, BuildingBlock: IZENUY_clean_sbu_0, # of connection points: 6
#     Node 24, Type 0, BuildingBlock: IZENUY_clean_sbu_0, # of connection points: 6
#     Node 25, Type 0, BuildingBlock: IZENUY_clean_sbu_0, # of connection points: 6
#     Node 26, Type 0, BuildingBlock: IZENUY_clean_sbu_0, # of connection points: 6
#     Node 27, Type 0, BuildingBlock: IZENUY_clean_sbu_0, # of connection points: 6
#     Node 28, Type 0, BuildingBlock: IZENUY_clean_sbu_0, # of connection points: 6
#     Node 29, Type 0, BuildingBlock: IZENUY_clean_sbu_0, # of connection points: 6
#     Node 30, Type 0, BuildingBlock: IZENUY_clean_sbu_0, # of connection points: 6
#     Node 31, Type 0, BuildingBlock: IZENUY_clean_sbu_0, # of connection points: 6
#     Edge 32, Type (0, 0), BuildingBlock: OJICUG_clean_linker_0, # of connection points: 2
#     Edge 33, Type (0, 0), BuildingBlock: OJICUG_clean_linker_0, # of connection points: 2
#     Edge 34, Type (0, 0), BuildingBlock: OJICUG_clean_linker_0, # of connection points: 2
#     Edge 35, Type (0, 0), BuildingBlock: OJICUG_clean_linker_0, # of connection points: 2
#     Edge 36, Type (0, 0), BuildingBlock: OJICUG_clean_linker_0, # of connection points: 2
#     Edge 37, Type (0, 0), BuildingBlock: OJICUG_clean_linker_0, # of connection points: 2
#     Edge 38, Type (0, 0), BuildingBlock: OJICUG_clean_linker_0, # of connection points: 2
#     Edge 39, Type (0, 0), BuildingBlock: OJICUG_clean_linker_0, # of connection points: 2
#     Edge 40, Type (0, 0), BuildingBlock: OJICUG_clean_linker_0, # of connection points: 2
#     Edge 41, Type (0, 0), BuildingBlock: OJICUG_clean_linker_0, # of connection points: 2
#     Edge 42, Type (0, 0), BuildingBlock: OJICUG_clean_linker_0, # of connection points: 2
#     Edge 43, Type (0, 0), BuildingBlock: OJICUG_clean_linker_0, # of connection points: 2
#     Edge 44, Type (0, 0), BuildingBlock: OJICUG_clean_linker_0, # of connection points: 2
#     Edge 45, Type (0, 0), BuildingBlock: OJICUG_clean_linker_0, # of connection points: 2
#     Edge 46, Type (0, 0), BuildingBlock: OJICUG_clean_linker_0, # of connection points: 2
#     Edge 47, Type (0, 0), BuildingBlock: OJICUG_clean_linker_0, # of connection points: 2
#     Edge 48, Type (0, 0), BuildingBlock: OJICUG_clean_linker_0, # of connection points: 2
#     Edge 49, Type (0, 0), BuildingBlock: OJICUG_clean_linker_0, # of connection points: 2
#     Edge 50, Type (0, 0), BuildingBlock: OJICUG_clean_linker_0, # of connection points: 2
#     Edge 51, Type (0, 0), BuildingBlock: OJICUG_clean_linker_0, # of connection points: 2
#     Edge 52, Type (0, 0), BuildingBlock: OJICUG_clean_linker_0, # of connection points: 2
#     Edge 53, Type (0, 0), BuildingBlock: OJICUG_clean_linker_0, # of connection points: 2
#     Edge 54, Type (0, 0), BuildingBlock: OJICUG_clean_linker_0, # of connection points: 2
#     Edge 55, Type (0, 0), BuildingBlock: OJICUG_clean_linker_0, # of connection points: 2
#     Edge 56, Type (0, 0), BuildingBlock: OJICUG_clean_linker_0, # of connection points: 2
#     Edge 57, Type (0, 0), BuildingBlock: OJICUG_clean_linker_0, # of connection points: 2
#     Edge 58, Type (0, 0), BuildingBlock: OJICUG_clean_linker_0, # of connection points: 2
#     Edge 59, Type (0, 0), BuildingBlock: OJICUG_clean_linker_0, # of connection points: 2
#     Edge 60, Type (0, 0), BuildingBlock: OJICUG_clean_linker_0, # of connection points: 2
#     Edge 61, Type (0, 0), BuildingBlock: OJICUG_clean_linker_0, # of connection points: 2
#     Edge 62, Type (0, 0), BuildingBlock: OJICUG_clean_linker_0, # of connection points: 2
#     Edge 63, Type (0, 0), BuildingBlock: OJICUG_clean_linker_0, # of connection points: 2
#     Edge 64, Type (0, 0), BuildingBlock: OJICUG_clean_linker_0, # of connection points: 2
#     Edge 65, Type (0, 0), BuildingBlock: OJICUG_clean_linker_0, # of connection points: 2
#     Edge 66, Type (0, 0), BuildingBlock: OJICUG_clean_linker_0, # of connection points: 2
#     Edge 67, Type (0, 0), BuildingBlock: OJICUG_clean_linker_0, # of connection points: 2
#     Edge 68, Type (0, 0), BuildingBlock: OJICUG_clean_linker_0, # of connection points: 2
#     Edge 69, Type (0, 0), BuildingBlock: OJICUG_clean_linker_0, # of connection points: 2
#     Edge 70, Type (0, 0), BuildingBlock: OJICUG_clean_linker_0, # of connection points: 2
#     Edge 71, Type (0, 0), BuildingBlock: OJICUG_clean_linker_0, # of connection points: 2
#     Edge 72, Type (0, 0), BuildingBlock: OJICUG_clean_linker_0, # of connection points: 2
#     Edge 73, Type (0, 0), BuildingBlock: OJICUG_clean_linker_0, # of connection points: 2
#     Edge 74, Type (0, 0), BuildingBlock: OJICUG_clean_linker_0, # of connection points: 2
#     Edge 75, Type (0, 0), BuildingBlock: OJICUG_clean_linker_0, # of connection points: 2
#     Edge 76, Type (0, 0), BuildingBlock: OJICUG_clean_linker_0, # of connection points: 2
#     Edge 77, Type (0, 0), BuildingBlock: OJICUG_clean_linker_0, # of connection points: 2
#     Edge 78, Type (0, 0), BuildingBlock: OJICUG_clean_linker_0, # of connection points: 2
#     Edge 79, Type (0, 0), BuildingBlock: OJICUG_clean_linker_0, # of connection points: 2
#     Edge 80, Type (0, 0), BuildingBlock: OJICUG_clean_linker_0, # of connection points: 2
#     Edge 81, Type (0, 0), BuildingBlock: OJICUG_clean_linker_0, # of connection points: 2
#     Edge 82, Type (0, 0), BuildingBlock: OJICUG_clean_linker_0, # of connection points: 2
#     Edge 83, Type (0, 0), BuildingBlock: OJICUG_clean_linker_0, # of connection points: 2
#     Edge 84, Type (0, 0), BuildingBlock: OJICUG_clean_linker_0, # of connection points: 2
#     Edge 85, Type (0, 0), BuildingBlock: OJICUG_clean_linker_0, # of connection points: 2
#     Edge 86, Type (0, 0), BuildingBlock: OJICUG_clean_linker_0, # of connection points: 2
#     Edge 87, Type (0, 0), BuildingBlock: OJICUG_clean_linker_0, # of connection points: 2
#     Edge 88, Type (0, 0), BuildingBlock: OJICUG_clean_linker_0, # of connection points: 2
#     Edge 89, Type (0, 0), BuildingBlock: OJICUG_clean_linker_0, # of connection points: 2
#     Edge 90, Type (0, 0), BuildingBlock: OJICUG_clean_linker_0, # of connection points: 2
#     Edge 91, Type (0, 0), BuildingBlock: OJICUG_clean_linker_0, # of connection points: 2
#     Edge 92, Type (0, 0), BuildingBlock: OJICUG_clean_linker_0, # of connection points: 2
#     Edge 93, Type (0, 0), BuildingBlock: OJICUG_clean_linker_0, # of connection points: 2
#     Edge 94, Type (0, 0), BuildingBlock: OJICUG_clean_linker_0, # of connection points: 2
#     Edge 95, Type (0, 0), BuildingBlock: OJICUG_clean_linker_0, # of connection points: 2
#     Edge 96, Type (0, 0), BuildingBlock: OJICUG_clean_linker_0, # of connection points: 2
#     Edge 97, Type (0, 0), BuildingBlock: OJICUG_clean_linker_0, # of connection points: 2
#     Edge 98, Type (0, 0), BuildingBlock: OJICUG_clean_linker_0, # of connection points: 2
#     Edge 99, Type (0, 0), BuildingBlock: OJICUG_clean_linker_0, # of connection points: 2
#     Edge 100, Type (0, 0), BuildingBlock: OJICUG_clean_linker_0, # of connection points: 2
#     Edge 101, Type (0, 0), BuildingBlock: OJICUG_clean_linker_0, # of connection points: 2
#     Edge 102, Type (0, 0), BuildingBlock: OJICUG_clean_linker_0, # of connection points: 2
#     Edge 103, Type (0, 0), BuildingBlock: OJICUG_clean_linker_0, # of connection points: 2
#     Edge 104, Type (0, 0), BuildingBlock: OJICUG_clean_linker_0, # of connection points: 2
#     Edge 105, Type (0, 0), BuildingBlock: OJICUG_clean_linker_0, # of connection points: 2
#     Edge 106, Type (0, 0), BuildingBlock: OJICUG_clean_linker_0, # of connection points: 2
#     Edge 107, Type (0, 0), BuildingBlock: OJICUG_clean_linker_0, # of connection points: 2
#     Edge 108, Type (0, 0), BuildingBlock: OJICUG_clean_linker_0, # of connection points: 2
#     Edge 109, Type (0, 0), BuildingBlock: OJICUG_clean_linker_0, # of connection points: 2
#     Edge 110, Type (0, 0), BuildingBlock: OJICUG_clean_linker_0, # of connection points: 2
#     Edge 111, Type (0, 0), BuildingBlock: OJICUG_clean_linker_0, # of connection points: 2
#     Edge 112, Type (0, 0), BuildingBlock: OJICUG_clean_linker_0, # of connection points: 2
#     Edge 113, Type (0, 0), BuildingBlock: OJICUG_clean_linker_0, # of connection points: 2
#     Edge 114, Type (0, 0), BuildingBlock: OJICUG_clean_linker_0, # of connection points: 2
#     Edge 115, Type (0, 0), BuildingBlock: OJICUG_clean_linker_0, # of connection points: 2
#     Edge 116, Type (0, 0), BuildingBlock: OJICUG_clean_linker_0, # of connection points: 2
#     Edge 117, Type (0, 0), BuildingBlock: OJICUG_clean_linker_0, # of connection points: 2
#     Edge 118, Type (0, 0), BuildingBlock: OJICUG_clean_linker_0, # of connection points: 2
#     Edge 119, Type (0, 0), BuildingBlock: OJICUG_clean_linker_0, # of connection points: 2
#     Edge 120, Type (0, 0), BuildingBlock: OJICUG_clean_linker_0, # of connection points: 2
#     Edge 121, Type (0, 0), BuildingBlock: OJICUG_clean_linker_0, # of connection points: 2
#     Edge 122, Type (0, 0), BuildingBlock: OJICUG_clean_linker_0, # of connection points: 2
#     Edge 123, Type (0, 0), BuildingBlock: OJICUG_clean_linker_0, # of connection points: 2
#     Edge 124, Type (0, 0), BuildingBlock: OJICUG_clean_linker_0, # of connection points: 2
#     Edge 125, Type (0, 0), BuildingBlock: OJICUG_clean_linker_0, # of connection points: 2
#     Edge 126, Type (0, 0), BuildingBlock: OJICUG_clean_linker_0, # of connection points: 2
#     Edge 127, Type (0, 0), BuildingBlock: OJICUG_clean_linker_0, # of connection points: 2
# Relax obj value: 0.165
# Max RMSD: 0.166
# Mean RMSD: 0.166
data_MOF--net-flu-e--node1-IZENUY_clean_sbu_0--edge1-OJICUG_clean_linker_0
_symmetry_space_group_name_H-M    P1
_symmetry_Int_Tables_number       1
_symmetry_cell_setting            triclinic
loop_
_symmetry_equiv_pos_as_xyz
'x, y, z'
_cell_length_a     39.655744
_cell_length_b     39.655575
_cell_length_c     39.659685
_cell_angle_alpha  89.995359
_cell_angle_beta   89.999446
_cell_angle_gamma 89.997575
loop_
_atom_site_label
_atom_site_type_symbol
_atom_site_fract_x
_atom_site_fract_y
_atom_site_fract_z
_atom_type_partial_charge
Fe0 Fe 0.14041 0.19607 0.38151 0.0
Fe1 Fe 0.19636 0.1422 0.38244 0.0
O2 O 0.15955 0.15966 0.36377 0.0
Fe3 Fe 0.1422 0.14101 0.32693 0.0
O4 O 0.14794 0.17955 0.30297 0.0
O5 O 0.12667 0.2138 0.34101 0.0
O6 O 0.17869 0.22059 0.37635 0.0
C7 C 0.20758 0.21237 0.38676 0.0
C8 C 0.08418 0.15985 0.36449 0.0
O9 O 0.21362 0.18265 0.3966 0.0
C10 C 0.15843 0.08454 0.36315 0.0
O11 O 0.15096 0.18516 0.42519 0.0
O12 O 0.17509 0.13527 0.42228 0.0
O13 O 0.09848 0.15178 0.33713 0.0
O14 O 0.10052 0.17429 0.38769 0.0
C15 C 0.21223 0.13734 0.31536 0.0
O16 O 0.1859 0.0985 0.37154 0.0
O17 O 0.13557 0.10103 0.34831 0.0
C18 C 0.16007 0.15781 0.43895 0.0
O19 O 0.22047 0.14812 0.34408 0.0
O20 O 0.18265 0.12697 0.30964 0.0
C21 C 0.13714 0.20826 0.31137 0.0
Fe22 Fe 0.88309 0.19593 0.38028 0.0
Fe23 Fe 0.87943 0.13922 0.32782 0.0
O24 O 0.86312 0.15939 0.36416 0.0
Fe25 Fe 0.82644 0.14336 0.384 0.0
O26 O 0.8105 0.18477 0.39766 0.0
O27 O 0.84538 0.22078 0.37423 0.0
O28 O 0.89705 0.21178 0.33889 0.0
C29 C 0.8858 0.20543 0.30965 0.0
C30 C 0.86372 0.15981 0.43929 0.0
O31 O 0.87379 0.17686 0.30278 0.0
C32 C 0.86273 0.08432 0.36552 0.0
O33 O 0.92232 0.17356 0.38714 0.0
O34 O 0.92371 0.14962 0.33719 0.0
O35 O 0.84863 0.1368 0.42336 0.0
O36 O 0.87248 0.18683 0.42454 0.0
C37 C 0.80885 0.13697 0.3176 0.0
O38 O 0.88585 0.10014 0.3505 0.0
O39 O 0.83556 0.09906 0.37374 0.0
C40 C 0.93835 0.15842 0.36425 0.0
O41 O 0.83806 0.12543 0.31164 0.0
O42 O 0.8018 0.14916 0.34607 0.0
C43 C 0.81678 0.21392 0.3862 0.0
Fe44 Fe 0.82697 0.87959 0.38195 0.0
Fe45 Fe 0.88089 0.88413 0.32654 0.0
O46 O 0.86398 0.86365 0.3625 0.0
Fe47 Fe 0.88373 0.82694 0.37865 0.0
O48 O 0.84597 0.80211 0.37224 0.0
O49 O 0.81081 0.8382 0.39515 0.0
O50 O 0.80278 0.87426 0.34347 0.0
C51 C 0.81074 0.88624 0.3151 0.0
C52 C 0.86382 0.86268 0.43767 0.0
O53 O 0.83998 0.89789 0.3099 0.0
C54 C 0.93918 0.86484 0.36348 0.0
O55 O 0.83623 0.92388 0.37217 0.0
O56 O 0.88684 0.92315 0.3496 0.0
O57 O 0.8728 0.83582 0.42282 0.0
O58 O 0.84866 0.88574 0.42178 0.0
C59 C 0.8872 0.81784 0.30807 0.0
O60 O 0.92495 0.87387 0.33636 0.0
O61 O 0.923 0.84915 0.38592 0.0
C62 C 0.86345 0.93876 0.36447 0.0
O63 O 0.8757 0.84662 0.3011 0.0
O64 O 0.89803 0.81129 0.33739 0.0
C65 C 0.81729 0.80897 0.38406 0.0
Fe66 Fe 0.14103 0.88144 0.32636 0.0
Fe67 Fe 0.19621 0.88267 0.38091 0.0
O68 O 0.15964 0.86386 0.36314 0.0
Fe69 Fe 0.14198 0.82712 0.38178 0.0
O70 O 0.14778 0.80306 0.34341 0.0
O71 O 0.12702 0.84103 0.30886 0.0
O72 O 0.17952 0.87576 0.30238 0.0
C73 C 0.20828 0.88636 0.3108 0.0
C74 C 0.08452 0.86532 0.36244 0.0
O75 O 0.21396 0.89654 0.3405 0.0
C76 C 0.15785 0.86317 0.43835 0.0
O77 O 0.15175 0.92514 0.33687 0.0
O78 O 0.17472 0.92262 0.38728 0.0
O79 O 0.09834 0.8378 0.37088 0.0
O80 O 0.10111 0.88811 0.34767 0.0
C81 C 0.21209 0.81541 0.38597 0.0
O82 O 0.1853 0.872 0.42459 0.0
O83 O 0.13517 0.84839 0.42165 0.0
C84 C 0.16 0.9391 0.36436 0.0
O85 O 0.22045 0.84425 0.37554 0.0
O86 O 0.18235 0.80958 0.39592 0.0
C87 C 0.13717 0.81136 0.31466 0.0
Fe88 Fe 0.13935 0.82706 0.64271 0.0
Fe89 Fe 0.19589 0.87986 0.63883 0.0
O90 O 0.15952 0.86349 0.65897 0.0
Fe91 Fe 0.14363 0.88313 0.69582 0.0
O92 O 0.14989 0.84523 0.72023 0.0
O93 O 0.12596 0.81079 0.68412 0.0
O94 O 0.17716 0.80215 0.64798 0.0
C95 C 0.20575 0.80921 0.63607 0.0
C96 C 0.08439 0.86449 0.65994 0.0
O97 O 0.21201 0.83853 0.62496 0.0
C98 C 0.15935 0.93858 0.65856 0.0
O99 O 0.14926 0.83647 0.59837 0.0
O100 O 0.17334 0.88638 0.59971 0.0
O101 O 0.09931 0.87262 0.68703 0.0
O102 O 0.10009 0.84959 0.63665 0.0
C103 C 0.21422 0.88603 0.70509 0.0
O104 O 0.18638 0.92414 0.64928 0.0
O105 O 0.13666 0.92243 0.67386 0.0
C106 C 0.158 0.86355 0.58379 0.0
O107 O 0.22104 0.87415 0.67645 0.0
O108 O 0.18498 0.89712 0.71154 0.0
C109 C 0.1377 0.81677 0.71324 0.0
Fe110 Fe 0.13955 0.14292 0.6959 0.0
Fe111 Fe 0.19622 0.13956 0.64325 0.0
O112 O 0.1595 0.15927 0.6594 0.0
Fe113 Fe 0.14312 0.19575 0.63941 0.0
O114 O 0.1487 0.22061 0.6772 0.0
O115 O 0.12571 0.18427 0.71207 0.0
O116 O 0.17727 0.14871 0.72079 0.0
C117 C 0.2059 0.1369 0.71385 0.0
C118 C 0.08438 0.15914 0.65826 0.0
O119 O 0.21229 0.12581 0.68459 0.0
C120 C 0.15979 0.15821 0.58432 0.0
O121 O 0.14998 0.09862 0.68646 0.0
O122 O 0.17423 0.10023 0.6366 0.0
O123 O 0.09885 0.18631 0.64962 0.0
O124 O 0.10037 0.13632 0.67353 0.0
C125 C 0.21359 0.20598 0.63711 0.0
O126 O 0.18698 0.14981 0.59893 0.0
O127 O 0.13678 0.17332 0.60021 0.0
C128 C 0.15907 0.08413 0.65941 0.0
O129 O 0.22071 0.17748 0.64914 0.0
O130 O 0.18438 0.212 0.62568 0.0
C131 C 0.13686 0.21358 0.70581 0.0
Fe132 Fe 0.88141 0.14011 0.69637 0.0
Fe133 Fe 0.88317 0.19641 0.64318 0.0
O134 O 0.8639 0.15982 0.66022 0.0
Fe135 Fe 0.82677 0.14336 0.64139 0.0
O136 O 0.80294 0.1489 0.68006 0.0
O137 O 0.84077 0.12661 0.71392 0.0
O138 O 0.87662 0.17821 0.72125 0.0
C139 C 0.88755 0.20695 0.71324 0.0
C140 C 0.86366 0.08458 0.65953 0.0
O141 O 0.89807 0.21278 0.68372 0.0
C142 C 0.86286 0.15985 0.58505 0.0
O143 O 0.92526 0.15029 0.6855 0.0
O144 O 0.92244 0.17436 0.6356 0.0
O145 O 0.83643 0.09928 0.65158 0.0
O146 O 0.88708 0.10049 0.67409 0.0
C147 C 0.81661 0.21388 0.63868 0.0
O148 O 0.87158 0.18698 0.59945 0.0
O149 O 0.84801 0.13686 0.60132 0.0
C150 C 0.93903 0.15913 0.65805 0.0
O151 O 0.84543 0.22104 0.64992 0.0
O152 O 0.81013 0.18451 0.62795 0.0
C153 C 0.81123 0.13748 0.70857 0.0
Fe154 Fe 0.87952 0.88364 0.69553 0.0
Fe155 Fe 0.82706 0.87963 0.63878 0.0
O156 O 0.86356 0.86358 0.65893 0.0
Fe157 Fe 0.88376 0.82709 0.64292 0.0
O158 O 0.89742 0.81123 0.6844 0.0
O159 O 0.87357 0.84585 0.72039 0.0
O160 O 0.83817 0.89756 0.71128 0.0
C161 C 0.809 0.88615 0.7051 0.0
C162 C 0.9387 0.86481 0.65965 0.0
O163 O 0.8021 0.87401 0.67657 0.0
C164 C 0.86464 0.86294 0.58364 0.0
O165 O 0.88623 0.92285 0.67307 0.0
O166 O 0.83629 0.92398 0.64899 0.0
O167 O 0.92296 0.8497 0.63651 0.0
O168 O 0.9238 0.87321 0.68667 0.0
C169 C 0.81745 0.80895 0.63657 0.0
O170 O 0.84949 0.88601 0.59946 0.0
O171 O 0.87351 0.83607 0.59856 0.0
C172 C 0.86329 0.93875 0.65782 0.0
O173 O 0.81112 0.83815 0.62521 0.0
O174 O 0.84604 0.80209 0.64859 0.0
C175 C 0.88577 0.81733 0.71352 0.0
Fe176 Fe 0.38091 0.14044 0.19653 0.0
Fe177 Fe 0.38189 0.19616 0.14257 0.0
O178 O 0.36322 0.15938 0.16 0.0
Fe179 Fe 0.32654 0.14189 0.14115 0.0
O180 O 0.30243 0.14739 0.17955 0.0
O181 O 0.34048 0.12653 0.21405 0.0
O182 O 0.3755 0.17883 0.22091 0.0
C183 C 0.38604 0.20766 0.21262 0.0
C184 C 0.36444 0.08414 0.16001 0.0
O185 O 0.39619 0.21343 0.18296 0.0
C186 C 0.36268 0.15835 0.08487 0.0
O187 O 0.42458 0.15108 0.18574 0.0
O188 O 0.42172 0.17473 0.13562 0.0
O189 O 0.337 0.09814 0.15171 0.0
O190 O 0.3873 0.10054 0.17492 0.0
C191 C 0.31476 0.21203 0.13779 0.0
O192 O 0.37081 0.18583 0.09895 0.0
O193 O 0.34807 0.13536 0.10129 0.0
C194 C 0.43834 0.15969 0.15823 0.0
O195 O 0.3435 0.22027 0.14856 0.0
O196 O 0.30908 0.18244 0.12731 0.0
C197 C 0.31082 0.13675 0.2083 0.0
Fe198 Fe 0.88208 0.37913 0.19662 0.0
Fe199 Fe 0.82709 0.38233 0.14203 0.0
O200 O 0.86342 0.36274 0.15937 0.0
Fe201 Fe 0.88074 0.32646 0.13974 0.0
O202 O 0.87457 0.30142 0.17736 0.0
O203 O 0.8958 0.338 0.21306 0.0
O204 O 0.84338 0.37319 0.22037 0.0
C205 C 0.81486 0.38457 0.2121 0.0
C206 C 0.9386 0.36348 0.16018 0.0
O207 O 0.80961 0.39572 0.18268 0.0
C208 C 0.86521 0.36415 0.08424 0.0
O209 O 0.87162 0.42323 0.18706 0.0
O210 O 0.8492 0.42198 0.13636 0.0
O211 O 0.92452 0.33633 0.15097 0.0
O212 O 0.92216 0.386 0.17556 0.0
C213 C 0.81059 0.31548 0.13571 0.0
O214 O 0.83768 0.37237 0.09815 0.0
O215 O 0.88783 0.3489 0.10057 0.0
C216 C 0.86366 0.43792 0.1598 0.0
O217 O 0.80248 0.34413 0.14682 0.0
O218 O 0.84014 0.30978 0.12513 0.0
C219 C 0.88554 0.30854 0.2063 0.0
Fe220 Fe 0.69667 0.88012 0.14037 0.0
Fe221 Fe 0.64252 0.88393 0.1957 0.0
O222 O 0.65958 0.86387 0.15954 0.0
Fe223 Fe 0.6399 0.82723 0.14304 0.0
O224 O 0.67769 0.80241 0.14914 0.0
O225 O 0.71321 0.83878 0.12721 0.0
O226 O 0.72069 0.87481 0.17893 0.0
C227 C 0.71259 0.88652 0.20735 0.0
C228 C 0.66019 0.86341 0.08429 0.0
O229 O 0.68326 0.89787 0.21257 0.0
C230 C 0.58428 0.86471 0.15861 0.0
O231 O 0.6869 0.92445 0.15012 0.0
O232 O 0.63639 0.92307 0.17305 0.0
O233 O 0.65069 0.83657 0.09888 0.0
O234 O 0.6754 0.88625 0.1004 0.0
C235 C 0.63652 0.81751 0.21365 0.0
O236 O 0.59849 0.87353 0.18581 0.0
O237 O 0.60054 0.84936 0.13601 0.0
C238 C 0.6596 0.93902 0.15826 0.0
O239 O 0.64792 0.84627 0.22078 0.0
O240 O 0.62576 0.81108 0.18425 0.0
C241 C 0.7065 0.80938 0.13774 0.0
Fe242 Fe 0.14045 0.64208 0.19646 0.0
Fe243 Fe 0.19602 0.64073 0.14229 0.0
O244 O 0.15937 0.65958 0.15981 0.0
Fe245 Fe 0.14197 0.6963 0.14095 0.0
O246 O 0.14781 0.72048 0.17926 0.0
O247 O 0.12679 0.68265 0.2139 0.0
O248 O 0.17893 0.64739 0.22069 0.0
C249 C 0.20771 0.63673 0.21235 0.0
C250 C 0.084 0.65885 0.16045 0.0
O251 O 0.2134 0.62655 0.18269 0.0
C252 C 0.15806 0.66003 0.08461 0.0
O253 O 0.15088 0.59833 0.1858 0.0
O254 O 0.17443 0.60089 0.13562 0.0
O255 O 0.09826 0.6861 0.15191 0.0
O256 O 0.10042 0.63577 0.17499 0.0
C257 C 0.21211 0.70783 0.1372 0.0
O258 O 0.1855 0.65168 0.09865 0.0
O259 O 0.13514 0.67471 0.10112 0.0
C260 C 0.15941 0.58441 0.15836 0.0
O261 O 0.22031 0.67908 0.14802 0.0
O262 O 0.1825 0.71354 0.1268 0.0
C263 C 0.13711 0.71226 0.20803 0.0
Fe264 Fe 0.32707 0.88232 0.87913 0.0
Fe265 Fe 0.38391 0.88097 0.82636 0.0
O266 O 0.36417 0.86356 0.86255 0.0
Fe267 Fe 0.38132 0.82698 0.88182 0.0
O268 O 0.34068 0.80972 0.89549 0.0
O269 O 0.30309 0.84377 0.87329 0.0
O270 O 0.3105 0.89605 0.838 0.0
C271 C 0.31734 0.88596 0.80847 0.0
C272 C 0.36421 0.86334 0.93773 0.0
O273 O 0.3463 0.87508 0.8013 0.0
C274 C 0.43933 0.86482 0.86373 0.0
O275 O 0.34822 0.92234 0.88597 0.0
O276 O 0.37284 0.92478 0.83634 0.0
O277 O 0.38744 0.84878 0.92156 0.0
O278 O 0.33696 0.87176 0.92321 0.0
C279 C 0.38737 0.81083 0.81495 0.0
O280 O 0.4231 0.88781 0.84892 0.0
O281 O 0.42517 0.83728 0.8715 0.0
C282 C 0.36349 0.93885 0.86344 0.0
O283 O 0.3983 0.84032 0.80947 0.0
O284 O 0.37605 0.80269 0.8435 0.0
C285 C 0.3112 0.81521 0.88465 0.0
Fe286 Fe 0.14252 0.38359 0.8267 0.0
Fe287 Fe 0.1962 0.38161 0.88254 0.0
O288 O 0.15974 0.36424 0.86318 0.0
Fe289 Fe 0.14089 0.3272 0.87988 0.0
O290 O 0.12731 0.31034 0.83878 0.0
O291 O 0.14876 0.34575 0.80201 0.0
O292 O 0.18309 0.39815 0.80996 0.0
C293 C 0.21263 0.38756 0.81564 0.0
C294 C 0.08438 0.36324 0.86356 0.0
O295 O 0.22073 0.37648 0.8443 0.0
C296 C 0.15972 0.36444 0.93843 0.0
O297 O 0.13543 0.42302 0.8488 0.0
O298 O 0.18562 0.42547 0.87227 0.0
O299 O 0.1008 0.34844 0.88646 0.0
O300 O 0.09873 0.37229 0.83649 0.0
C301 C 0.20803 0.3114 0.8856 0.0
O302 O 0.1743 0.38765 0.92226 0.0
O303 O 0.15127 0.33721 0.92393 0.0
C304 C 0.15817 0.43945 0.86382 0.0
O305 O 0.2136 0.34098 0.89619 0.0
O306 O 0.17945 0.30322 0.87432 0.0
C307 C 0.13769 0.31687 0.80927 0.0
Fe308 Fe 0.64259 0.13952 0.82738 0.0
Fe309 Fe 0.64078 0.19614 0.88036 0.0
O310 O 0.65979 0.15912 0.86374 0.0
Fe311 Fe 0.69641 0.14196 0.88303 0.0
O312 O 0.72082 0.14714 0.84469 0.0
O313 O 0.68322 0.12506 0.8106 0.0
O314 O 0.64864 0.17723 0.80251 0.0
C315 C 0.6376 0.20613 0.80966 0.0
C316 C 0.65861 0.08389 0.86465 0.0
O317 O 0.62731 0.21286 0.83916 0.0
C318 C 0.65978 0.15902 0.93892 0.0
O319 O 0.59874 0.15067 0.83711 0.0
O320 O 0.6007 0.17486 0.8869 0.0
O321 O 0.68604 0.09802 0.87288 0.0
O322 O 0.63571 0.1002 0.84972 0.0
C323 C 0.70794 0.21217 0.88606 0.0
O324 O 0.65098 0.18617 0.92448 0.0
O325 O 0.67469 0.13597 0.9228 0.0
C326 C 0.58433 0.15992 0.86407 0.0
O327 O 0.6793 0.22028 0.87488 0.0
O328 O 0.71364 0.18262 0.8966 0.0
C329 C 0.71271 0.1359 0.81609 0.0
Fe330 Fe 0.88099 0.69566 0.88295 0.0
Fe331 Fe 0.88255 0.64283 0.82617 0.0
O332 O 0.86371 0.6594 0.86327 0.0
Fe333 Fe 0.82715 0.64016 0.88045 0.0
O334 O 0.8028 0.67852 0.8752 0.0
O335 O 0.84042 0.71244 0.89753 0.0
O336 O 0.87487 0.72065 0.84532 0.0
C337 C 0.88576 0.71354 0.81635 0.0
C338 C 0.865 0.65837 0.9385 0.0
O339 O 0.89606 0.68405 0.80954 0.0
C340 C 0.86374 0.58427 0.86333 0.0
O341 O 0.92471 0.68586 0.87163 0.0
O342 O 0.9226 0.63612 0.84733 0.0
O343 O 0.83751 0.65046 0.9243 0.0
O344 O 0.888 0.67315 0.92221 0.0
C345 C 0.81538 0.63731 0.81042 0.0
O346 O 0.87227 0.5987 0.83608 0.0
O347 O 0.84896 0.60041 0.88646 0.0
C348 C 0.93898 0.65883 0.86242 0.0
O349 O 0.84397 0.64851 0.8022 0.0
O350 O 0.8099 0.62649 0.83988 0.0
C351 C 0.81097 0.70708 0.88651 0.0
Fe352 Fe 0.19605 0.38123 0.14068 0.0
Fe353 Fe 0.14191 0.38279 0.19632 0.0
O354 O 0.15942 0.36379 0.15971 0.0
Fe355 Fe 0.14061 0.32697 0.14245 0.0
O356 O 0.179 0.30283 0.14824 0.0
O357 O 0.21353 0.34063 0.12705 0.0
O358 O 0.22033 0.37599 0.17909 0.0
C359 C 0.21206 0.38673 0.20784 0.0
C360 C 0.15995 0.36439 0.08434 0.0
O361 O 0.18239 0.39687 0.21363 0.0
C362 C 0.08417 0.36331 0.15854 0.0
O363 O 0.18547 0.42501 0.15103 0.0
O364 O 0.13533 0.42258 0.17464 0.0
O365 O 0.15143 0.33714 0.09866 0.0
O366 O 0.17451 0.38749 0.10071 0.0
C367 C 0.13688 0.31566 0.21262 0.0
O368 O 0.09818 0.37202 0.18588 0.0
O369 O 0.10068 0.34841 0.13574 0.0
C370 C 0.15808 0.439 0.15958 0.0
O371 O 0.14754 0.34448 0.22076 0.0
O372 O 0.12659 0.30981 0.18301 0.0
C373 C 0.20777 0.31104 0.13749 0.0
Fe374 Fe 0.1965 0.64084 0.88114 0.0
Fe375 Fe 0.14125 0.64302 0.82669 0.0
O376 O 0.15998 0.65991 0.8637 0.0
Fe377 Fe 0.14256 0.6963 0.88303 0.0
O378 O 0.18308 0.7133 0.89758 0.0
O379 O 0.22082 0.67918 0.87575 0.0
O380 O 0.21397 0.62696 0.84063 0.0
C381 C 0.20844 0.63742 0.81101 0.0
C382 C 0.15834 0.65956 0.93896 0.0
O383 O 0.17985 0.6486 0.80274 0.0
C384 C 0.08471 0.65913 0.86266 0.0
O385 O 0.17472 0.60111 0.88736 0.0
O386 O 0.15161 0.59905 0.83692 0.0
O387 O 0.13543 0.67417 0.92243 0.0
O388 O 0.18589 0.65142 0.92493 0.0
C389 C 0.1379 0.71355 0.81633 0.0
O390 O 0.10121 0.63634 0.84782 0.0
O391 O 0.09887 0.6863 0.87166 0.0
C392 C 0.15988 0.58487 0.86435 0.0
O393 O 0.12764 0.68403 0.80974 0.0
O394 O 0.14878 0.72092 0.84523 0.0
C395 C 0.2126 0.70782 0.8868 0.0
Fe396 Fe 0.38216 0.19632 0.88152 0.0
Fe397 Fe 0.37969 0.1411 0.82712 0.0
O398 O 0.36296 0.15977 0.86421 0.0
Fe399 Fe 0.32666 0.14231 0.88371 0.0
O400 O 0.30963 0.18289 0.89815 0.0
O401 O 0.34379 0.22064 0.87633 0.0
O402 O 0.39578 0.21378 0.84091 0.0
C403 C 0.38509 0.20826 0.81137 0.0
C404 C 0.36365 0.15829 0.93942 0.0
O405 O 0.37384 0.17967 0.8032 0.0
C406 C 0.36391 0.08451 0.86337 0.0
O407 O 0.42202 0.1746 0.88757 0.0
O408 O 0.42371 0.15171 0.83706 0.0
O409 O 0.34894 0.13537 0.92302 0.0
O410 O 0.3718 0.18578 0.92534 0.0
C411 C 0.30911 0.13739 0.81708 0.0
O412 O 0.38652 0.10105 0.84825 0.0
O413 O 0.33675 0.09854 0.87259 0.0
C414 C 0.43824 0.16015 0.86429 0.0
O415 O 0.33866 0.12728 0.8104 0.0
O416 O 0.30182 0.1483 0.84599 0.0
C417 C 0.31516 0.21245 0.88746 0.0
Fe418 Fe 0.87973 0.38173 0.82677 0.0
Fe419 Fe 0.88239 0.32686 0.88159 0.0
O420 O 0.86312 0.36331 0.86406 0.0
Fe421 Fe 0.82685 0.38089 0.88351 0.0
O422 O 0.80189 0.37473 0.84585 0.0
O423 O 0.83867 0.39544 0.81002 0.0
O424 O 0.8738 0.34299 0.80319 0.0
C425 C 0.88506 0.31446 0.81156 0.0
C426 C 0.86411 0.43857 0.86267 0.0
O427 O 0.89585 0.30914 0.84108 0.0
C428 C 0.86425 0.36531 0.93917 0.0
O429 O 0.92378 0.37119 0.83667 0.0
O430 O 0.92224 0.34862 0.88733 0.0
O431 O 0.83699 0.42459 0.87212 0.0
O432 O 0.88663 0.42194 0.84753 0.0
C433 C 0.81535 0.31082 0.88772 0.0
O434 O 0.87232 0.33768 0.92537 0.0
O435 O 0.8492 0.38799 0.92273 0.0
C436 C 0.93837 0.36295 0.86393 0.0
O437 O 0.84399 0.30251 0.87671 0.0
O438 O 0.80984 0.34044 0.89822 0.0
C439 C 0.80911 0.38544 0.81684 0.0
Fe440 Fe 0.64011 0.88086 0.82718 0.0
Fe441 Fe 0.69698 0.88195 0.87996 0.0
O442 O 0.65984 0.86328 0.8633 0.0
Fe443 Fe 0.64264 0.82662 0.88235 0.0
O444 O 0.64782 0.80254 0.84387 0.0
O445 O 0.62556 0.84037 0.81011 0.0
O446 O 0.67766 0.87495 0.8021 0.0
C447 C 0.70665 0.88573 0.80924 0.0
C448 C 0.58467 0.86473 0.86443 0.0
O449 O 0.71358 0.89571 0.83881 0.0
C450 C 0.65984 0.86271 0.93848 0.0
O451 O 0.65129 0.92456 0.83729 0.0
O452 O 0.67587 0.92195 0.8869 0.0
O453 O 0.59877 0.83713 0.87215 0.0
O454 O 0.60099 0.88774 0.84977 0.0
C455 C 0.71273 0.81475 0.88515 0.0
O456 O 0.68706 0.87141 0.92406 0.0
O457 O 0.63667 0.8481 0.92225 0.0
C458 C 0.66048 0.93848 0.8645 0.0
O459 O 0.72093 0.84339 0.87406 0.0
O460 O 0.68323 0.80919 0.89586 0.0
C461 C 0.6365 0.81086 0.81537 0.0
Fe462 Fe 0.88202 0.64272 0.1964 0.0
Fe463 Fe 0.87952 0.69541 0.1396 0.0
O464 O 0.86294 0.65887 0.1593 0.0
Fe465 Fe 0.82688 0.63879 0.1422 0.0
O466 O 0.80993 0.62496 0.18299 0.0
O467 O 0.8435 0.6483 0.22036 0.0
O468 O 0.89539 0.68409 0.21271 0.0
C469 C 0.88468 0.71344 0.20601 0.0
C470 C 0.86412 0.5837 0.15962 0.0
O471 O 0.87312 0.72031 0.17724 0.0
C472 C 0.86425 0.65788 0.08406 0.0
O473 O 0.92193 0.63623 0.17503 0.0
O474 O 0.92355 0.6861 0.1508 0.0
O475 O 0.84959 0.59957 0.13618 0.0
O476 O 0.87196 0.59845 0.1869 0.0
C477 C 0.80896 0.70518 0.13594 0.0
O478 O 0.88688 0.6731 0.10038 0.0
O479 O 0.83696 0.64924 0.09824 0.0
C480 C 0.93811 0.65912 0.15997 0.0
O481 O 0.83837 0.71149 0.12512 0.0
O482 O 0.80179 0.67648 0.14749 0.0
C483 C 0.81513 0.63641 0.21231 0.0
Fe484 Fe 0.38247 0.88104 0.19574 0.0
Fe485 Fe 0.32681 0.88229 0.14173 0.0
O486 O 0.36363 0.86354 0.15904 0.0
Fe487 Fe 0.38121 0.82699 0.14 0.0
O488 O 0.37599 0.80265 0.17837 0.0
O489 O 0.39663 0.84061 0.21302 0.0
O490 O 0.34415 0.87527 0.22004 0.0
C491 C 0.31538 0.88601 0.21188 0.0
C492 C 0.43883 0.86514 0.15922 0.0
O493 O 0.30957 0.89631 0.18226 0.0
C494 C 0.36429 0.86305 0.08365 0.0
O495 O 0.37164 0.92473 0.1853 0.0
O496 O 0.34824 0.92225 0.13506 0.0
O497 O 0.42497 0.83775 0.15043 0.0
O498 O 0.42227 0.8878 0.17423 0.0
C499 C 0.31103 0.81506 0.13676 0.0
O500 O 0.33702 0.87148 0.09796 0.0
O501 O 0.38744 0.84858 0.10003 0.0
C502 C 0.36318 0.93871 0.15788 0.0
O503 O 0.30273 0.84382 0.14748 0.0
O504 O 0.34065 0.80937 0.12635 0.0
C505 C 0.38657 0.81093 0.20717 0.0
Fe506 Fe 0.63933 0.14211 0.19583 0.0
Fe507 Fe 0.69622 0.14129 0.14302 0.0
O508 O 0.65897 0.15981 0.1597 0.0
Fe509 Fe 0.64163 0.19647 0.14066 0.0
O510 O 0.64662 0.22055 0.17918 0.0
O511 O 0.62483 0.18253 0.21306 0.0
O512 O 0.67698 0.14791 0.2209 0.0
C513 C 0.70603 0.13727 0.21369 0.0
C514 C 0.58369 0.15831 0.1586 0.0
O515 O 0.71295 0.12748 0.18408 0.0
C516 C 0.65901 0.16035 0.08457 0.0
O517 O 0.65051 0.09842 0.18547 0.0
O518 O 0.67539 0.10122 0.13599 0.0
O519 O 0.59772 0.18587 0.15065 0.0
O520 O 0.60005 0.13538 0.17338 0.0
C521 C 0.71175 0.20849 0.13785 0.0
O522 O 0.68628 0.15185 0.09897 0.0
O523 O 0.63582 0.17498 0.10074 0.0
C524 C 0.66013 0.08456 0.15836 0.0
O525 O 0.71998 0.1799 0.149 0.0
O526 O 0.6822 0.21405 0.12724 0.0
C527 C 0.63549 0.21212 0.20774 0.0
Fe528 Fe 0.38275 0.64169 0.69602 0.0
Fe529 Fe 0.38011 0.69626 0.64089 0.0
O530 O 0.36346 0.65909 0.65955 0.0
Fe531 Fe 0.32714 0.63967 0.6421 0.0
O532 O 0.31012 0.62513 0.68261 0.0
O533 O 0.3444 0.64663 0.72044 0.0
O534 O 0.39618 0.68235 0.71353 0.0
C535 C 0.38543 0.71188 0.70801 0.0
C536 C 0.36422 0.58382 0.65794 0.0
O537 O 0.37413 0.72008 0.67945 0.0
C538 C 0.36449 0.66021 0.58427 0.0
O539 O 0.42256 0.63587 0.6742 0.0
O540 O 0.42412 0.68648 0.65158 0.0
O541 O 0.34931 0.60027 0.63515 0.0
O542 O 0.37265 0.59781 0.68538 0.0
C543 C 0.30952 0.70631 0.63715 0.0
O544 O 0.38714 0.67518 0.60086 0.0
O545 O 0.33733 0.65098 0.59838 0.0
C546 C 0.43869 0.65924 0.65982 0.0
O547 O 0.33906 0.71297 0.62699 0.0
O548 O 0.30231 0.67742 0.64817 0.0
C549 C 0.31574 0.6356 0.71223 0.0
Fe550 Fe 0.69561 0.38333 0.64323 0.0
Fe551 Fe 0.63925 0.37939 0.69598 0.0
O552 O 0.65913 0.36325 0.65939 0.0
Fe553 Fe 0.64294 0.32674 0.63937 0.0
O554 O 0.68438 0.31073 0.6258 0.0
O555 O 0.72047 0.34566 0.64913 0.0
O556 O 0.71159 0.39722 0.68461 0.0
C557 C 0.70554 0.38567 0.7138 0.0
C558 C 0.6595 0.36416 0.58418 0.0
O559 O 0.67705 0.37349 0.72074 0.0
C560 C 0.58413 0.36324 0.65824 0.0
O561 O 0.67308 0.42245 0.63654 0.0
O562 O 0.64968 0.42367 0.68676 0.0
O563 O 0.63648 0.34909 0.60009 0.0
O564 O 0.68653 0.37283 0.59894 0.0
C565 C 0.63663 0.30883 0.70575 0.0
O566 O 0.60008 0.38603 0.67365 0.0
O567 O 0.59863 0.33609 0.64953 0.0
C568 C 0.65799 0.43834 0.65957 0.0
O569 O 0.62536 0.33806 0.71197 0.0
O570 O 0.64858 0.30185 0.67717 0.0
C571 C 0.71355 0.31705 0.63723 0.0
Fe572 Fe 0.32655 0.38157 0.38236 0.0
Fe573 Fe 0.38093 0.38273 0.32691 0.0
O574 O 0.36322 0.36393 0.36353 0.0
Fe575 Fe 0.38182 0.3271 0.381 0.0
O576 O 0.34334 0.3031 0.37517 0.0
O577 O 0.30889 0.3411 0.39612 0.0
O578 O 0.30241 0.37623 0.34389 0.0
C579 C 0.31081 0.38679 0.31511 0.0
C580 C 0.36243 0.36485 0.43883 0.0
O581 O 0.34054 0.39678 0.30933 0.0
C582 C 0.43848 0.36318 0.36504 0.0
O583 O 0.33727 0.42528 0.37186 0.0
O584 O 0.38747 0.42266 0.34841 0.0
O585 O 0.37087 0.33751 0.42465 0.0
O586 O 0.34796 0.38793 0.42237 0.0
C587 C 0.38584 0.31546 0.31095 0.0
O588 O 0.4246 0.37195 0.33764 0.0
O589 O 0.42184 0.34835 0.38779 0.0
C590 C 0.36471 0.43918 0.36335 0.0
O591 O 0.37536 0.34431 0.30262 0.0
O592 O 0.39597 0.3097 0.34062 0.0
C593 C 0.31458 0.31143 0.38587 0.0
Fe594 Fe 0.69607 0.63929 0.3808 0.0
Fe595 Fe 0.64092 0.64306 0.32665 0.0
O596 O 0.66007 0.65941 0.36361 0.0
Fe597 Fe 0.64366 0.69615 0.38305 0.0
O598 O 0.68493 0.71218 0.39719 0.0
O599 O 0.7213 0.67676 0.37509 0.0
O600 O 0.71286 0.62501 0.34009 0.0
C601 C 0.70775 0.63644 0.31074 0.0
C602 C 0.65904 0.65911 0.43894 0.0
O603 O 0.67944 0.6484 0.30264 0.0
C604 C 0.58496 0.6598 0.36307 0.0
O605 O 0.67314 0.60032 0.38726 0.0
O606 O 0.65087 0.59888 0.33652 0.0
O607 O 0.63639 0.67424 0.42255 0.0
O608 O 0.68622 0.65019 0.4247 0.0
C609 C 0.6384 0.71368 0.31644 0.0
O610 O 0.60106 0.63683 0.34809 0.0
O611 O 0.59956 0.68682 0.37208 0.0
C612 C 0.65846 0.58436 0.36399 0.0
O613 O 0.62761 0.68432 0.30999 0.0
O614 O 0.64998 0.72073 0.34516 0.0
C615 C 0.71429 0.70558 0.38639 0.0
Fe616 Fe 0.38112 0.69678 0.38179 0.0
Fe617 Fe 0.38277 0.64229 0.32655 0.0
O618 O 0.3638 0.65991 0.36312 0.0
Fe619 Fe 0.32718 0.64107 0.3807 0.0
O620 O 0.30282 0.67938 0.37488 0.0
O621 O 0.34059 0.71403 0.39583 0.0
O622 O 0.37529 0.72076 0.34329 0.0
C623 C 0.38602 0.7124 0.31455 0.0
C624 C 0.36501 0.6608 0.4384 0.0
O625 O 0.39642 0.68278 0.30891 0.0
C626 C 0.3638 0.58468 0.36477 0.0
O627 O 0.42483 0.68657 0.37093 0.0
O628 O 0.42277 0.63611 0.3481 0.0
O629 O 0.33768 0.65215 0.42432 0.0
O630 O 0.38792 0.67546 0.42183 0.0
C631 C 0.31552 0.63684 0.31064 0.0
O632 O 0.37237 0.59857 0.33733 0.0
O633 O 0.34879 0.60123 0.38748 0.0
C634 C 0.43913 0.65929 0.36257 0.0
O635 O 0.3443 0.64747 0.30227 0.0
O636 O 0.30981 0.62677 0.34035 0.0
C637 C 0.31098 0.7082 0.38554 0.0
Fe638 Fe 0.64266 0.32683 0.38237 0.0
Fe639 Fe 0.63989 0.38063 0.32649 0.0
O640 O 0.65925 0.36368 0.36308 0.0
Fe641 Fe 0.69565 0.38339 0.38004 0.0
O642 O 0.7205 0.34569 0.37399 0.0
O643 O 0.6839 0.31023 0.39575 0.0
O644 O 0.64799 0.30244 0.34397 0.0
C645 C 0.63671 0.31045 0.31534 0.0
C646 C 0.65923 0.36347 0.43841 0.0
O647 O 0.62605 0.33994 0.30962 0.0
C648 C 0.65832 0.43884 0.36394 0.0
O649 O 0.59852 0.33677 0.37229 0.0
O650 O 0.60022 0.38689 0.34842 0.0
O651 O 0.68622 0.37237 0.42389 0.0
O652 O 0.63631 0.34843 0.42227 0.0
C653 C 0.70678 0.38643 0.30998 0.0
O654 O 0.65033 0.42454 0.33651 0.0
O655 O 0.67317 0.42265 0.38695 0.0
C656 C 0.58412 0.36397 0.36361 0.0
O657 O 0.67817 0.37511 0.30198 0.0
O658 O 0.71218 0.39775 0.3393 0.0
C659 C 0.71334 0.31685 0.38522 0.0
Fe660 Fe 0.38136 0.38245 0.69621 0.0
Fe661 Fe 0.32666 0.38024 0.64117 0.0
O662 O 0.36371 0.3633 0.65982 0.0
Fe663 Fe 0.38281 0.32679 0.64242 0.0
O664 O 0.3975 0.30983 0.6829 0.0
O665 O 0.37614 0.34418 0.72069 0.0
O666 O 0.34091 0.3963 0.71383 0.0
C667 C 0.31127 0.38585 0.70838 0.0
C668 C 0.43885 0.36347 0.65778 0.0
O669 O 0.30287 0.37471 0.67982 0.0
C670 C 0.36245 0.36402 0.58457 0.0
O671 O 0.38746 0.42213 0.67435 0.0
O672 O 0.33694 0.42422 0.65146 0.0
O673 O 0.4222 0.34868 0.6351 0.0
O674 O 0.42511 0.37194 0.68536 0.0
C675 C 0.31613 0.3097 0.63792 0.0
O676 O 0.34772 0.38686 0.60108 0.0
O677 O 0.37132 0.33678 0.59873 0.0
C678 C 0.36441 0.43839 0.65962 0.0
O679 O 0.30958 0.33923 0.62761 0.0
O680 O 0.34499 0.30234 0.64886 0.0
C681 C 0.38703 0.31547 0.7125 0.0
Fe682 Fe 0.6405 0.64226 0.6966 0.0
Fe683 Fe 0.69587 0.63933 0.64262 0.0
O684 O 0.65974 0.6592 0.65993 0.0
Fe685 Fe 0.64324 0.69624 0.64097 0.0
O686 O 0.64921 0.7204 0.67938 0.0
O687 O 0.62695 0.68301 0.71362 0.0
O688 O 0.67892 0.64756 0.72084 0.0
C689 C 0.70744 0.63616 0.71262 0.0
C690 C 0.5846 0.65938 0.66014 0.0
O691 O 0.71271 0.62497 0.68322 0.0
C692 C 0.65885 0.6596 0.58467 0.0
O693 O 0.65071 0.59833 0.68655 0.0
O694 O 0.67319 0.6001 0.63597 0.0
O695 O 0.59919 0.68656 0.65165 0.0
O696 O 0.6007 0.63616 0.67483 0.0
C697 C 0.71391 0.70586 0.63732 0.0
O698 O 0.68592 0.6504 0.59888 0.0
O699 O 0.63624 0.67485 0.60106 0.0
C700 C 0.6585 0.58395 0.65913 0.0
O701 O 0.72101 0.67695 0.6484 0.0
O702 O 0.6844 0.71264 0.62709 0.0
C703 C 0.63789 0.71242 0.708 0.0
C704 C 0.13576 0.29567 0.27268 0.0
C705 C 0.13562 0.28833 0.23803 0.0
H706 H 0.13577 0.27605 0.32301 0.0
C707 C 0.13534 0.2544 0.22768 0.0
H708 H 0.13605 0.32155 0.28142 0.0
C709 C 0.13574 0.22836 0.25144 0.0
C710 C 0.13573 0.23569 0.28609 0.0
H711 H 0.13555 0.24793 0.20114 0.0
H712 H 0.13601 0.20249 0.24267 0.0
C713 C 0.13546 0.26961 0.29646 0.0
C714 C 0.76462 0.12328 0.23369 0.0
C715 C 0.73202 0.1355 0.24056 0.0
H716 H 0.8144 0.11401 0.25254 0.0
C717 C 0.72474 0.14716 0.27325 0.0
H718 H 0.77113 0.11418 0.20877 0.0
C719 C 0.74951 0.14708 0.29829 0.0
C720 C 0.78224 0.13529 0.29134 0.0
H721 H 0.69998 0.15686 0.27948 0.0
H722 H 0.74304 0.15669 0.32302 0.0
C723 C 0.78944 0.12316 0.2588 0.0
C724 C 0.90058 0.75905 0.28867 0.0
C725 C 0.88845 0.7916 0.28148 0.0
H726 H 0.90896 0.70887 0.27058 0.0
C727 C 0.87602 0.79841 0.24898 0.0
H728 H 0.91021 0.75288 0.31347 0.0
C729 C 0.87527 0.77318 0.22442 0.0
C730 C 0.88692 0.74049 0.23173 0.0
H731 H 0.86635 0.82314 0.24258 0.0
H732 H 0.86511 0.77927 0.19981 0.0
C733 C 0.89982 0.73378 0.26407 0.0
C734 C 0.26958 0.88779 0.29578 0.0
C735 C 0.23564 0.88772 0.28548 0.0
H736 H 0.32146 0.88686 0.28062 0.0
C737 C 0.22822 0.88778 0.25085 0.0
H738 H 0.27608 0.88742 0.32231 0.0
C739 C 0.25419 0.888 0.22702 0.0
C740 C 0.28813 0.88747 0.23731 0.0
H741 H 0.20232 0.88767 0.24214 0.0
H742 H 0.24765 0.88782 0.2005 0.0
C743 C 0.29556 0.88732 0.27194 0.0
C744 C 0.12378 0.75814 0.73281 0.0
C745 C 0.13609 0.79064 0.73986 0.0
H746 H 0.1146 0.70827 0.75139 0.0
C747 C 0.14805 0.79772 0.77247 0.0
H748 H 0.1145 0.75182 0.70791 0.0
C749 C 0.1481 0.77283 0.79732 0.0
C750 C 0.13622 0.7402 0.79022 0.0
H751 H 0.1578 0.82244 0.7788 0.0
H752 H 0.15791 0.77915 0.82202 0.0
C753 C 0.12386 0.73317 0.75773 0.0
C754 C 0.22477 0.14702 0.77325 0.0
C755 C 0.23195 0.13525 0.74059 0.0
H756 H 0.24328 0.15686 0.82287 0.0
C757 C 0.26454 0.12316 0.73355 0.0
H758 H 0.19998 0.1566 0.77958 0.0
C759 C 0.28949 0.12332 0.75849 0.0
C760 C 0.28239 0.13555 0.79101 0.0
H761 H 0.27096 0.11401 0.70863 0.0
H762 H 0.31446 0.11425 0.75212 0.0
C763 C 0.24966 0.14716 0.79814 0.0
C764 C 0.88761 0.25316 0.79687 0.0
C765 C 0.88688 0.28704 0.78637 0.0
H766 H 0.888 0.20119 0.782 0.0
C767 C 0.88713 0.2943 0.75172 0.0
H768 H 0.88714 0.2468 0.82343 0.0
C769 C 0.88823 0.26821 0.72805 0.0
C770 C 0.88841 0.23432 0.73854 0.0
H771 H 0.88657 0.32014 0.74288 0.0
H772 H 0.88815 0.2746 0.70149 0.0
C773 C 0.888 0.22705 0.77319 0.0
C774 C 0.74976 0.87587 0.72451 0.0
C775 C 0.78242 0.88782 0.73133 0.0
H776 H 0.70036 0.86592 0.74356 0.0
C777 C 0.78971 0.90009 0.76381 0.0
H778 H 0.74325 0.86615 0.69983 0.0
C779 C 0.76502 0.89994 0.78901 0.0
C780 C 0.73249 0.88754 0.78228 0.0
H781 H 0.81465 0.90937 0.76996 0.0
H782 H 0.77159 0.90914 0.81387 0.0
C783 C 0.72511 0.87575 0.74965 0.0
C784 C 0.29595 0.13539 0.26952 0.0
C785 C 0.28555 0.13546 0.23562 0.0
H786 H 0.28091 0.13637 0.3214 0.0
C787 C 0.25093 0.13547 0.22822 0.0
H788 H 0.32249 0.13571 0.27598 0.0
C789 C 0.22717 0.13533 0.25421 0.0
C790 C 0.23755 0.13585 0.28811 0.0
H791 H 0.24219 0.13558 0.20234 0.0
H792 H 0.20063 0.13556 0.24773 0.0
C793 C 0.27218 0.13593 0.29552 0.0
C794 C 0.89984 0.26393 0.28979 0.0
C795 C 0.88753 0.23142 0.28285 0.0
H796 H 0.90898 0.31376 0.27113 0.0
C797 C 0.87557 0.22427 0.25023 0.0
H798 H 0.90913 0.27033 0.31466 0.0
C799 C 0.87547 0.24913 0.2253 0.0
C800 C 0.88731 0.28179 0.23235 0.0
H801 H 0.86581 0.19954 0.24398 0.0
H802 H 0.86563 0.2428 0.20062 0.0
C803 C 0.89973 0.28885 0.26482 0.0
C804 C 0.77244 0.88783 0.22765 0.0
C805 C 0.73777 0.88778 0.23483 0.0
H806 H 0.82266 0.88797 0.24751 0.0
C807 C 0.7272 0.88781 0.26868 0.0
H808 H 0.78132 0.88773 0.20182 0.0
C809 C 0.75084 0.88733 0.29485 0.0
C810 C 0.78551 0.88759 0.28767 0.0
H811 H 0.70061 0.8874 0.27497 0.0
H812 H 0.74197 0.88686 0.32068 0.0
C813 C 0.79607 0.88811 0.25382 0.0
C814 C 0.13572 0.75137 0.29502 0.0
C815 C 0.1357 0.78597 0.28746 0.0
H816 H 0.13566 0.70096 0.27575 0.0
C817 C 0.1354 0.79619 0.25351 0.0
H818 H 0.13599 0.74275 0.32094 0.0
C819 C 0.13574 0.77229 0.22763 0.0
C820 C 0.1357 0.73769 0.2352 0.0
H821 H 0.13569 0.8227 0.24691 0.0
H822 H 0.13603 0.7809 0.20171 0.0
C823 C 0.13538 0.72747 0.26915 0.0
C824 C 0.27366 0.87593 0.72405 0.0
C825 C 0.241 0.88779 0.73111 0.0
H826 H 0.32325 0.86614 0.74272 0.0
C827 C 0.23394 0.90007 0.76362 0.0
H828 H 0.27999 0.8662 0.69932 0.0
C829 C 0.25883 0.90002 0.78862 0.0
C830 C 0.29135 0.88771 0.78166 0.0
H831 H 0.20902 0.90929 0.76997 0.0
H832 H 0.25241 0.90923 0.81352 0.0
C833 C 0.29851 0.87591 0.74899 0.0
C834 C 0.14749 0.29781 0.74981 0.0
C835 C 0.13585 0.29073 0.78255 0.0
H836 H 0.15683 0.27928 0.7001 0.0
C837 C 0.12351 0.25822 0.78959 0.0
H838 H 0.15727 0.32252 0.74345 0.0
C839 C 0.12323 0.23328 0.76458 0.0
C840 C 0.13531 0.2403 0.73198 0.0
H841 H 0.11442 0.25186 0.81454 0.0
H842 H 0.11399 0.20839 0.77097 0.0
C843 C 0.14723 0.27294 0.72488 0.0
C844 C 0.75129 0.13559 0.7287 0.0
C845 C 0.78596 0.13574 0.73597 0.0
H846 H 0.70101 0.13491 0.74839 0.0
C847 C 0.7964 0.13517 0.76987 0.0
H848 H 0.74249 0.13605 0.70285 0.0
C849 C 0.77267 0.13506 0.79596 0.0
C850 C 0.738 0.13478 0.78868 0.0
H851 H 0.82295 0.13557 0.77626 0.0
H852 H 0.78146 0.13518 0.82182 0.0
C853 C 0.72757 0.13475 0.75478 0.0
C854 C 0.89989 0.73362 0.75789 0.0
C855 C 0.88738 0.74041 0.79037 0.0
H856 H 0.90933 0.75253 0.70819 0.0
C857 C 0.87532 0.77298 0.79756 0.0
H858 H 0.90929 0.7088 0.75145 0.0
C859 C 0.87533 0.79801 0.77279 0.0
C860 C 0.88743 0.79115 0.74018 0.0
H861 H 0.86539 0.77912 0.82226 0.0
H862 H 0.86542 0.82266 0.77916 0.0
C863 C 0.89993 0.75872 0.73307 0.0
C864 C 0.25353 0.22715 0.13603 0.0
C865 C 0.28748 0.23742 0.13638 0.0
H866 H 0.20167 0.24234 0.13653 0.0
C867 C 0.29495 0.27205 0.13642 0.0
H868 H 0.247 0.20063 0.13631 0.0
C869 C 0.26899 0.29591 0.13599 0.0
C870 C 0.23504 0.28564 0.13622 0.0
H871 H 0.32085 0.28072 0.13674 0.0
H872 H 0.27553 0.32243 0.13624 0.0
C873 C 0.22758 0.25101 0.1363 0.0
C874 C 0.2725 0.72795 0.88762 0.0
C875 C 0.23785 0.73526 0.88778 0.0
H876 H 0.32279 0.74756 0.88704 0.0
C877 C 0.22743 0.76917 0.88747 0.0
H878 H 0.28128 0.70208 0.88776 0.0
C879 C 0.25118 0.79523 0.88644 0.0
C880 C 0.28584 0.7879 0.88643 0.0
H881 H 0.20087 0.77557 0.8872 0.0
H882 H 0.24241 0.82109 0.88574 0.0
C883 C 0.29624 0.754 0.88732 0.0
C884 C 0.25386 0.22749 0.88849 0.0
C885 C 0.2878 0.23779 0.88862 0.0
H886 H 0.20199 0.24264 0.88697 0.0
C887 C 0.29521 0.27243 0.88843 0.0
H888 H 0.24737 0.20095 0.88827 0.0
C889 C 0.26923 0.29626 0.88822 0.0
C890 C 0.2353 0.28598 0.88746 0.0
H891 H 0.32111 0.28113 0.88843 0.0
H892 H 0.27576 0.32279 0.88787 0.0
C893 C 0.22788 0.25134 0.88757 0.0
C894 C 0.72791 0.27222 0.88788 0.0
C895 C 0.73524 0.23757 0.88777 0.0
H896 H 0.74757 0.32254 0.88857 0.0
C897 C 0.76915 0.22718 0.88848 0.0
H898 H 0.70205 0.28099 0.88732 0.0
C899 C 0.7952 0.25093 0.88867 0.0
C900 C 0.7879 0.28558 0.88889 0.0
H901 H 0.77561 0.20064 0.88811 0.0
H902 H 0.82107 0.24214 0.88865 0.0
C903 C 0.75398 0.29598 0.88878 0.0
C904 C 0.77266 0.79457 0.8869 0.0
C905 C 0.73799 0.78735 0.88666 0.0
H906 H 0.8229 0.77475 0.88765 0.0
C907 C 0.72747 0.75348 0.88707 0.0
H908 H 0.78151 0.82041 0.88655 0.0
C909 C 0.75112 0.72734 0.88716 0.0
C910 C 0.78579 0.73455 0.88758 0.0
H911 H 0.7009 0.74712 0.88659 0.0
H912 H 0.74226 0.7015 0.88695 0.0
C913 C 0.79632 0.76843 0.88771 0.0
C914 C 0.74975 0.72455 0.14658 0.0
C915 C 0.78238 0.73147 0.13452 0.0
H916 H 0.70039 0.74348 0.15701 0.0
C917 C 0.78958 0.76408 0.12256 0.0
H918 H 0.74329 0.69977 0.15611 0.0
C919 C 0.76486 0.78927 0.12312 0.0
C920 C 0.73238 0.78243 0.13564 0.0
H921 H 0.81447 0.77033 0.11322 0.0
H922 H 0.77137 0.81422 0.11412 0.0
C923 C 0.72508 0.74968 0.14713 0.0
C924 C 0.27216 0.72775 0.13586 0.0
C925 C 0.23752 0.73514 0.13575 0.0
H926 H 0.32252 0.74726 0.1357 0.0
C927 C 0.22721 0.76908 0.13528 0.0
H928 H 0.28088 0.70186 0.13627 0.0
C929 C 0.25103 0.79509 0.13551 0.0
C930 C 0.28567 0.7877 0.1355 0.0
H931 H 0.20068 0.77559 0.1355 0.0
H932 H 0.24231 0.82097 0.13566 0.0
C933 C 0.29599 0.75375 0.13538 0.0
C934 C 0.72679 0.26966 0.1354 0.0
C935 C 0.73711 0.23574 0.13601 0.0
H936 H 0.74192 0.32153 0.13519 0.0
C937 C 0.77173 0.22829 0.13566 0.0
H938 H 0.70027 0.27618 0.13594 0.0
C939 C 0.79555 0.25426 0.13463 0.0
C940 C 0.78524 0.28819 0.13462 0.0
H941 H 0.78043 0.2024 0.13612 0.0
H942 H 0.82209 0.24775 0.13466 0.0
C943 C 0.75062 0.29563 0.13507 0.0
C944 C 0.76881 0.63492 0.72703 0.0
C945 C 0.73497 0.6351 0.7377 0.0
H946 H 0.82084 0.63597 0.74164 0.0
C947 C 0.72788 0.6355 0.77237 0.0
H948 H 0.77503 0.63499 0.70043 0.0
C949 C 0.75409 0.63551 0.79591 0.0
C950 C 0.78792 0.63586 0.78526 0.0
H951 H 0.70207 0.63574 0.78132 0.0
H952 H 0.74784 0.63598 0.8225 0.0
C953 C 0.79503 0.63566 0.75058 0.0
C954 C 0.22758 0.38878 0.7544 0.0
C955 C 0.23797 0.38871 0.78831 0.0
H956 H 0.24258 0.3875 0.70251 0.0
C957 C 0.27261 0.38839 0.79567 0.0
H958 H 0.20104 0.38866 0.74795 0.0
C959 C 0.29638 0.38825 0.76963 0.0
C960 C 0.28599 0.3877 0.73573 0.0
H961 H 0.28135 0.38824 0.82155 0.0
H962 H 0.32293 0.38778 0.77608 0.0
C963 C 0.25135 0.38794 0.72838 0.0
C964 C 0.29523 0.63547 0.25073 0.0
C965 C 0.28805 0.63545 0.2854 0.0
H966 H 0.27541 0.63534 0.20051 0.0
C967 C 0.25416 0.63519 0.29592 0.0
H968 H 0.32106 0.63575 0.24185 0.0
C969 C 0.228 0.63551 0.27227 0.0
C970 C 0.23518 0.6354 0.23759 0.0
H971 H 0.24781 0.6355 0.32249 0.0
H972 H 0.20216 0.63582 0.28114 0.0
C973 C 0.26907 0.6351 0.22708 0.0
C974 C 0.76816 0.38717 0.29547 0.0
C975 C 0.73431 0.3872 0.28483 0.0
H976 H 0.82019 0.38582 0.28088 0.0
C977 C 0.72723 0.38676 0.25014 0.0
H978 H 0.77439 0.38711 0.32207 0.0
C979 C 0.75348 0.38658 0.22658 0.0
C980 C 0.78732 0.38607 0.23723 0.0
H981 H 0.70142 0.38666 0.2412 0.0
H982 H 0.74724 0.38614 0.19999 0.0
C983 C 0.79439 0.38625 0.27192 0.0
C984 C 0.26969 0.6348 0.79599 0.0
C985 C 0.23576 0.63555 0.78565 0.0
H986 H 0.32159 0.6346 0.78094 0.0
C987 C 0.2284 0.63545 0.751 0.0
H988 H 0.27617 0.63515 0.82252 0.0
C989 C 0.25443 0.63454 0.7272 0.0
C990 C 0.28835 0.63442 0.73755 0.0
H991 H 0.20253 0.63605 0.74226 0.0
H992 H 0.24797 0.63478 0.70066 0.0
C993 C 0.29571 0.6346 0.7722 0.0
C994 C 0.74965 0.37538 0.79797 0.0
C995 C 0.78231 0.38715 0.7908 0.0
H996 H 0.69996 0.36576 0.77952 0.0
C997 C 0.78926 0.39947 0.75826 0.0
H998 H 0.74338 0.36561 0.8227 0.0
C999 C 0.76423 0.39958 0.73338 0.0
C1000 C 0.7317 0.38734 0.74047 0.0
H1001 H 0.81417 0.40866 0.75184 0.0
H1002 H 0.77053 0.4088 0.70846 0.0
C1003 C 0.72468 0.37545 0.77314 0.0
C1004 C 0.25085 0.38834 0.2951 0.0
C1005 C 0.28549 0.38824 0.28775 0.0
H1006 H 0.20053 0.38848 0.27556 0.0
C1007 C 0.29585 0.38838 0.25382 0.0
H1008 H 0.24209 0.38817 0.32098 0.0
C1009 C 0.27207 0.38802 0.22779 0.0
C1010 C 0.23742 0.3882 0.23516 0.0
H1011 H 0.32239 0.38799 0.24735 0.0
H1012 H 0.28081 0.3876 0.20192 0.0
C1013 C 0.22707 0.38866 0.26908 0.0
C1014 C 0.72783 0.63496 0.25085 0.0
C1015 C 0.73513 0.6349 0.2855 0.0
H1016 H 0.7475 0.6349 0.20057 0.0
C1017 C 0.76901 0.6346 0.29596 0.0
H1018 H 0.70196 0.63525 0.24207 0.0
C1019 C 0.79509 0.635 0.27223 0.0
C1020 C 0.78777 0.63495 0.23758 0.0
H1021 H 0.7754 0.6349 0.32252 0.0
H1022 H 0.82095 0.63531 0.28101 0.0
C1023 C 0.75389 0.63461 0.22713 0.0
C1024 C 0.28967 0.76486 0.62286 0.0
C1025 C 0.2827 0.73232 0.63517 0.0
H1026 H 0.27091 0.81463 0.61334 0.0
C1027 C 0.24994 0.7251 0.64667 0.0
H1028 H 0.31464 0.77132 0.61388 0.0
C1029 C 0.22492 0.74987 0.64634 0.0
C1030 C 0.23196 0.78255 0.63449 0.0
H1031 H 0.24363 0.70037 0.65641 0.0
H1032 H 0.20013 0.74345 0.65585 0.0
C1033 C 0.26457 0.7897 0.62252 0.0
C1034 C 0.29475 0.25142 0.3874 0.0
C1035 C 0.28729 0.28605 0.38746 0.0
H1036 H 0.27536 0.20105 0.3877 0.0
C1037 C 0.25334 0.29631 0.38804 0.0
H1038 H 0.32064 0.24274 0.38691 0.0
C1039 C 0.22737 0.27245 0.38797 0.0
C1040 C 0.23484 0.23782 0.388 0.0
H1041 H 0.24679 0.32284 0.3878 0.0
H1042 H 0.20147 0.28112 0.38789 0.0
C1043 C 0.2688 0.22757 0.38801 0.0
C1044 C 0.27207 0.79543 0.38734 0.0
C1045 C 0.23743 0.78805 0.38726 0.0
H1046 H 0.32241 0.77594 0.38738 0.0
C1047 C 0.22711 0.7541 0.38724 0.0
H1048 H 0.2808 0.82132 0.38728 0.0
C1049 C 0.25093 0.72809 0.38674 0.0
C1050 C 0.28556 0.73549 0.38694 0.0
H1051 H 0.20057 0.74761 0.38685 0.0
H1052 H 0.24221 0.70221 0.38624 0.0
C1053 C 0.29587 0.76943 0.38753 0.0
C1054 C 0.77348 0.72452 0.37514 0.0
C1055 C 0.74104 0.73164 0.38759 0.0
H1056 H 0.82287 0.74317 0.36428 0.0
C1057 C 0.73417 0.76421 0.39978 0.0
H1058 H 0.77966 0.69975 0.36541 0.0
C1059 C 0.75905 0.7892 0.3991 0.0
C1060 C 0.79134 0.78217 0.3862 0.0
H1061 H 0.70942 0.77058 0.40943 0.0
H1062 H 0.75279 0.81414 0.40831 0.0
C1063 C 0.79831 0.74947 0.37444 0.0
C1064 C 0.77274 0.29795 0.37516 0.0
C1065 C 0.74011 0.29087 0.38709 0.0
H1066 H 0.82241 0.27942 0.36562 0.0
C1067 C 0.73318 0.25848 0.39976 0.0
H1068 H 0.77898 0.32259 0.36514 0.0
C1069 C 0.7582 0.23361 0.40005 0.0
C1070 C 0.79069 0.24061 0.38766 0.0
H1071 H 0.7083 0.25214 0.40907 0.0
H1072 H 0.75191 0.20879 0.40954 0.0
C1073 C 0.7977 0.27314 0.37544 0.0
C1074 C 0.79758 0.27321 0.64865 0.0
C1075 C 0.79058 0.24056 0.63677 0.0
H1076 H 0.77894 0.32285 0.65798 0.0
C1077 C 0.75824 0.23352 0.62403 0.0
H1078 H 0.82217 0.27951 0.65872 0.0
C1079 C 0.73333 0.25848 0.62359 0.0
C1080 C 0.74025 0.291 0.63589 0.0
H1081 H 0.75199 0.2086 0.61475 0.0
H1082 H 0.70855 0.25212 0.61403 0.0
C1083 C 0.77273 0.29811 0.64821 0.0
C1084 C 0.29742 0.25028 0.64771 0.0
C1085 C 0.29012 0.28297 0.63609 0.0
H1086 H 0.27921 0.20049 0.65703 0.0
C1087 C 0.2576 0.28991 0.62377 0.0
H1088 H 0.32216 0.24402 0.65746 0.0
C1089 C 0.23283 0.26479 0.6235 0.0
C1090 C 0.24008 0.23223 0.63557 0.0
H1091 H 0.25113 0.31485 0.61471 0.0
H1092 H 0.20789 0.27104 0.61429 0.0
C1093 C 0.27273 0.22525 0.64746 0.0
C1094 C 0.75884 0.78919 0.62266 0.0
C1095 C 0.79135 0.78219 0.63499 0.0
H1096 H 0.70892 0.77067 0.61363 0.0
C1097 C 0.79838 0.74959 0.64707 0.0
H1098 H 0.75252 0.81405 0.61327 0.0
C1099 C 0.77341 0.72475 0.64727 0.0
C1100 C 0.74075 0.73185 0.63541 0.0
H1101 H 0.82309 0.74329 0.65684 0.0
H1102 H 0.77966 0.70008 0.6572 0.0
C1103 C 0.73382 0.7643 0.62288 0.0
C1104 C 0.62323 0.26457 0.78965 0.0
C1105 C 0.6357 0.23208 0.78279 0.0
H1106 H 0.61359 0.31425 0.77076 0.0
C1107 C 0.64742 0.22485 0.75011 0.0
H1108 H 0.61408 0.27104 0.81455 0.0
C1109 C 0.64713 0.24957 0.72505 0.0
C1110 C 0.6351 0.2822 0.73197 0.0
H1111 H 0.65729 0.20014 0.74391 0.0
H1112 H 0.6568 0.24315 0.70032 0.0
C1113 C 0.62292 0.28935 0.76451 0.0
C1114 C 0.38822 0.75086 0.7951 0.0
C1115 C 0.38853 0.78548 0.78764 0.0
H1116 H 0.38752 0.70049 0.77571 0.0
C1117 C 0.38848 0.79577 0.75371 0.0
H1118 H 0.38815 0.74219 0.82101 0.0
C1119 C 0.38751 0.77192 0.72776 0.0
C1120 C 0.38728 0.73729 0.73524 0.0
H1121 H 0.38836 0.82231 0.74719 0.0
H1122 H 0.38699 0.78059 0.70186 0.0
C1123 C 0.38796 0.72701 0.76916 0.0
C1124 C 0.62374 0.73356 0.25802 0.0
C1125 C 0.63633 0.74051 0.29045 0.0
H1126 H 0.61378 0.75235 0.20837 0.0
C1127 C 0.64789 0.77326 0.2976 0.0
H1128 H 0.6147 0.7086 0.25162 0.0
C1129 C 0.64732 0.79831 0.27286 0.0
C1130 C 0.63518 0.79129 0.24029 0.0
H1131 H 0.65782 0.77954 0.32226 0.0
H1132 H 0.6569 0.82309 0.27922 0.0
C1133 C 0.62318 0.75867 0.23321 0.0
C1134 C 0.3871 0.29518 0.25102 0.0
C1135 C 0.38713 0.288 0.28569 0.0
H1136 H 0.38729 0.27538 0.2008 0.0
C1137 C 0.38738 0.2541 0.2962 0.0
H1138 H 0.38683 0.32102 0.24215 0.0
C1139 C 0.3871 0.22794 0.27255 0.0
C1140 C 0.38725 0.23512 0.23788 0.0
H1141 H 0.38707 0.24775 0.32277 0.0
H1142 H 0.38682 0.2021 0.28142 0.0
C1143 C 0.38751 0.26902 0.22737 0.0
C1144 C 0.38773 0.26948 0.79629 0.0
C1145 C 0.38688 0.23555 0.78598 0.0
H1146 H 0.38807 0.32137 0.7812 0.0
C1147 C 0.3869 0.22816 0.75133 0.0
H1148 H 0.38745 0.27598 0.82282 0.0
C1149 C 0.38786 0.25417 0.72752 0.0
C1150 C 0.38811 0.2881 0.73784 0.0
H1151 H 0.38623 0.20228 0.74262 0.0
H1152 H 0.38758 0.24769 0.70098 0.0
C1153 C 0.38798 0.29548 0.77248 0.0
C1154 C 0.63552 0.79618 0.75402 0.0
C1155 C 0.63532 0.78571 0.78791 0.0
H1156 H 0.63699 0.78122 0.70208 0.0
C1157 C 0.63542 0.75106 0.7952 0.0
H1158 H 0.63583 0.82275 0.74766 0.0
C1159 C 0.63556 0.72736 0.76915 0.0
C1160 C 0.63633 0.73779 0.73526 0.0
H1161 H 0.63538 0.74225 0.82106 0.0
H1162 H 0.63581 0.7008 0.77558 0.0
C1163 C 0.63638 0.77244 0.72794 0.0
C1164 C 0.63519 0.25042 0.29528 0.0
C1165 C 0.63512 0.28509 0.28803 0.0
H1166 H 0.63475 0.20015 0.27547 0.0
C1167 C 0.63438 0.29557 0.25415 0.0
H1168 H 0.6358 0.2416 0.32112 0.0
C1169 C 0.63431 0.27191 0.22805 0.0
C1170 C 0.63425 0.23725 0.23526 0.0
H1171 H 0.63462 0.32213 0.24776 0.0
H1172 H 0.63429 0.28077 0.20221 0.0
C1173 C 0.63441 0.22673 0.26914 0.0
C1174 C 0.38774 0.75098 0.22721 0.0
C1175 C 0.38782 0.78562 0.23453 0.0
H1176 H 0.38764 0.70069 0.24685 0.0
C1177 C 0.38794 0.79604 0.26843 0.0
H1178 H 0.38758 0.74219 0.20135 0.0
C1179 C 0.38742 0.77231 0.29449 0.0
C1180 C 0.38746 0.73767 0.28718 0.0
H1181 H 0.38766 0.8226 0.27487 0.0
H1182 H 0.38703 0.78111 0.32035 0.0
C1183 C 0.38791 0.72724 0.25328 0.0
C1184 C 0.17701 0.99461 0.3895 0.0
C1185 C 0.1565 0.97618 0.36728 0.0
H1186 H 0.19373 0.0434 0.4055 0.0
C1187 C 0.13427 0.99375 0.34592 0.0
H1188 H 0.19437 0.98186 0.4063 0.0
C1189 C 0.13359 0.02902 0.34573 0.0
C1190 C 0.15554 0.04745 0.36653 0.0
H1191 H 0.11792 0.98024 0.32871 0.0
H1192 H 0.11695 0.04178 0.32824 0.0
C1193 C 0.17673 0.02988 0.38893 0.0
C1194 C 0.99343 0.17052 0.39351 0.0
C1195 C 0.9756 0.15556 0.36669 0.0
H1196 H 0.04174 0.18358 0.41405 0.0
C1197 C 0.9939 0.13963 0.34088 0.0
H1198 H 0.98014 0.18288 0.41392 0.0
C1199 C 0.02909 0.14002 0.34099 0.0
C1200 C 0.04699 0.15638 0.3669 0.0
H1201 H 0.98107 0.12757 0.32001 0.0
H1202 H 0.04224 0.12819 0.32018 0.0
C1203 C 0.02877 0.17093 0.39361 0.0
C1204 C 0.83863 0.02888 0.38368 0.0
C1205 C 0.86507 0.04716 0.36876 0.0
H1206 H 0.81755 0.98048 0.39432 0.0
C1207 C 0.89257 0.02939 0.35509 0.0
H1208 H 0.81721 0.04172 0.39475 0.0
C1209 C 0.89277 0.99412 0.35483 0.0
C1210 C 0.86547 0.97588 0.36823 0.0
H1211 H 0.91348 0.04268 0.3436 0.0
H1212 H 0.91381 0.98121 0.34314 0.0
C1213 C 0.83883 0.99369 0.38343 0.0
C1214 C 0.994 0.89028 0.34507 0.0
C1215 C 0.97625 0.86812 0.36635 0.0
H1216 H 0.04219 0.90725 0.32753 0.0
C1217 C 0.99451 0.84736 0.38851 0.0
H1218 H 0.98062 0.9068 0.3279 0.0
C1219 C 0.02974 0.84735 0.388 0.0
C1220 C 0.04748 0.86846 0.36571 0.0
H1221 H 0.98162 0.83004 0.40525 0.0
H1222 H 0.0431 0.83018 0.40454 0.0
C1223 C 0.02926 0.89064 0.34494 0.0
C1224 C 0.13476 0.02884 0.67793 0.0
C1225 C 0.15653 0.04699 0.6567 0.0
H1226 H 0.1181 0.98036 0.69475 0.0
C1227 C 0.17741 0.02914 0.63424 0.0
H1228 H 0.11822 0.04187 0.69534 0.0
C1229 C 0.17769 0.99389 0.6342 0.0
C1230 C 0.15668 0.97574 0.65619 0.0
H1231 H 0.1945 0.04236 0.61753 0.0
H1232 H 0.1948 0.98086 0.61736 0.0
C1233 C 0.13462 0.99359 0.67748 0.0
C1234 C 0.99402 0.13357 0.67527 0.0
C1235 C 0.97607 0.15625 0.6548 0.0
H1236 H 0.04227 0.11627 0.69201 0.0
C1237 C 0.99409 0.1779 0.63327 0.0
H1238 H 0.98082 0.11641 0.69194 0.0
C1239 C 0.02936 0.17815 0.63363 0.0
C1240 C 0.04729 0.15638 0.65511 0.0
H1241 H 0.98099 0.19568 0.6172 0.0
H1242 H 0.04256 0.19593 0.61763 0.0
C1243 C 0.02924 0.13344 0.67522 0.0
C1244 C 0.89287 0.02912 0.66971 0.0
C1245 C 0.86579 0.04739 0.6559 0.0
H1246 H 0.9135 0.9805 0.68103 0.0
C1247 C 0.83946 0.02955 0.64019 0.0
H1248 H 0.91366 0.04202 0.68183 0.0
C1249 C 0.83935 0.99434 0.63972 0.0
C1250 C 0.86558 0.976 0.65494 0.0
H1251 H 0.81834 0.04275 0.62897 0.0
H1252 H 0.81816 0.98153 0.6282 0.0
C1253 C 0.89276 0.9938 0.66924 0.0
C1254 C 0.99394 0.8544 0.63033 0.0
C1255 C 0.97589 0.86805 0.65764 0.0
H1256 H 0.04233 0.8427 0.60946 0.0
C1257 C 0.99393 0.88303 0.68423 0.0
H1258 H 0.98086 0.84285 0.60932 0.0
C1259 C 0.02914 0.88293 0.68433 0.0
C1260 C 0.04722 0.86785 0.65783 0.0
H1261 H 0.98089 0.89407 0.70554 0.0
H1262 H 0.04215 0.89389 0.7057 0.0
C1263 C 0.02922 0.85431 0.63042 0.0
C1264 C 0.38334 0.18086 0.02983 0.0
C1265 C 0.3662 0.15556 0.04779 0.0
H1266 H 0.3963 0.2013 0.98179 0.0
C1267 C 0.35088 0.12915 0.02974 0.0
H1268 H 0.39582 0.20135 0.04289 0.0
C1269 C 0.35118 0.12912 0.99441 0.0
C1270 C 0.3668 0.15549 0.97654 0.0
H1271 H 0.33764 0.10916 0.04281 0.0
H1272 H 0.33814 0.1091 0.98118 0.0
C1273 C 0.38364 0.18083 0.9947 0.0
C1274 C 0.89019 0.34738 0.99376 0.0
C1275 C 0.86783 0.36852 0.97613 0.0
H1276 H 0.90737 0.32983 0.04181 0.0
C1277 C 0.84708 0.39065 0.99442 0.0
H1278 H 0.90671 0.33027 0.98032 0.0
C1279 C 0.84717 0.3901 0.02965 0.0
C1280 C 0.8684 0.36781 0.04728 0.0
H1281 H 0.82962 0.40728 0.98158 0.0
H1282 H 0.82995 0.4065 0.04309 0.0
C1283 C 0.89067 0.34722 0.02898 0.0
C1284 C 0.63504 0.84475 0.9939 0.0
C1285 C 0.65733 0.86546 0.97569 0.0
H1286 H 0.61861 0.82772 0.04248 0.0
C1287 C 0.67877 0.88733 0.99356 0.0
H1288 H 0.6182 0.82759 0.98093 0.0
C1289 C 0.67869 0.88771 0.02884 0.0
C1290 C 0.65756 0.86582 0.04706 0.0
H1291 H 0.69608 0.90376 0.98027 0.0
H1292 H 0.6961 0.9043 0.0418 0.0
C1293 C 0.63536 0.84472 0.02919 0.0
C1294 C 0.12908 0.6723 0.02936 0.0
C1295 C 0.15531 0.6567 0.04745 0.0
H1296 H 0.10926 0.68538 0.98076 0.0
C1297 C 0.18055 0.63949 0.02946 0.0
H1298 H 0.10915 0.68563 0.04243 0.0
C1299 C 0.18063 0.63935 0.99431 0.0
C1300 C 0.15546 0.65641 0.97611 0.0
H1301 H 0.20092 0.62681 0.04252 0.0
H1302 H 0.20105 0.6266 0.98141 0.0
C1303 C 0.12915 0.67215 0.994 0.0
C1304 C 0.39338 0.85149 0.99297 0.0
C1305 C 0.36659 0.86631 0.97498 0.0
H1306 H 0.41386 0.83887 0.04142 0.0
C1307 C 0.34075 0.88239 0.99315 0.0
H1308 H 0.4138 0.83903 0.9798 0.0
C1309 C 0.34081 0.88232 0.02834 0.0
C1310 C 0.3667 0.86615 0.04641 0.0
H1311 H 0.31989 0.89437 0.9802 0.0
H1312 H 0.31998 0.89426 0.04136 0.0
C1313 C 0.39343 0.8514 0.02833 0.0
C1314 C 0.17164 0.39357 0.02905 0.0
C1315 C 0.15685 0.36684 0.0471 0.0
H1316 H 0.18407 0.41397 0.98054 0.0
C1317 C 0.14063 0.34101 0.029 0.0
H1318 H 0.18421 0.41396 0.04217 0.0
C1319 C 0.14057 0.341 0.99381 0.0
C1320 C 0.1567 0.36683 0.97568 0.0
H1321 H 0.12865 0.32019 0.042 0.0
H1322 H 0.12855 0.32018 0.98085 0.0
C1323 C 0.17156 0.39356 0.9937 0.0
C1324 C 0.67785 0.13525 0.02972 0.0
C1325 C 0.65646 0.15731 0.04741 0.0
H1326 H 0.69526 0.11799 0.98161 0.0
C1327 C 0.63422 0.17794 0.02906 0.0
H1328 H 0.6951 0.11885 0.04314 0.0
C1329 C 0.63463 0.17777 0.99379 0.0
C1330 C 0.65685 0.15655 0.97609 0.0
H1331 H 0.61741 0.19522 0.04191 0.0
H1332 H 0.61797 0.19477 0.98037 0.0
C1333 C 0.67784 0.13465 0.99445 0.0
C1334 C 0.89392 0.67019 0.9938 0.0
C1335 C 0.86762 0.65484 0.97562 0.0
H1336 H 0.91367 0.68313 0.04242 0.0
C1337 C 0.84215 0.63785 0.99351 0.0
H1338 H 0.91403 0.68334 0.98081 0.0
C1339 C 0.84193 0.63774 0.02867 0.0
C1340 C 0.86717 0.65461 0.04693 0.0
H1341 H 0.8217 0.62539 0.98036 0.0
H1342 H 0.82133 0.62521 0.0415 0.0
C1343 C 0.8937 0.67008 0.02913 0.0
C1344 C 0.02928 0.38843 0.17714 0.0
C1345 C 0.04702 0.36635 0.15577 0.0
H1346 H 0.98116 0.4053 0.19495 0.0
C1347 C 0.02871 0.3455 0.13375 0.0
H1348 H 0.04268 0.40502 0.19422 0.0
C1349 C 0.99343 0.34538 0.13447 0.0
C1350 C 0.97571 0.36648 0.15684 0.0
H1351 H 0.04158 0.32822 0.11697 0.0
H1352 H 0.98004 0.32819 0.11801 0.0
C1353 C 0.99401 0.38869 0.17749 0.0
C1354 C 0.0296 0.63027 0.8496 0.0
C1355 C 0.04752 0.65642 0.86555 0.0
H1356 H 0.98117 0.61033 0.83613 0.0
C1357 C 0.02935 0.6815 0.88278 0.0
H1358 H 0.04282 0.61045 0.83624 0.0
C1359 C 0.99419 0.68142 0.88273 0.0
C1360 C 0.97618 0.65626 0.86543 0.0
H1361 H 0.04226 0.70182 0.89569 0.0
H1362 H 0.98115 0.70168 0.89559 0.0
C1363 C 0.99426 0.63019 0.84954 0.0
C1364 C 0.34561 0.99412 0.88859 0.0
C1365 C 0.36645 0.976 0.86638 0.0
H1366 H 0.32844 0.04264 0.90495 0.0
C1367 C 0.38859 0.99394 0.84523 0.0
H1368 H 0.3283 0.98111 0.90523 0.0
C1369 C 0.38895 0.02922 0.84534 0.0
C1370 C 0.36681 0.04734 0.86624 0.0
H1371 H 0.40517 0.9807 0.82802 0.0
H1372 H 0.40562 0.04224 0.82806 0.0
C1373 C 0.34561 0.0294 0.88833 0.0
C1374 C 0.02915 0.35121 0.89276 0.0
C1375 C 0.0471 0.36607 0.866 0.0
H1376 H 0.98072 0.33866 0.9133 0.0
C1377 C 0.02887 0.38216 0.84017 0.0
H1378 H 0.04236 0.33873 0.91315 0.0
C1379 C 0.99367 0.3821 0.84024 0.0
C1380 C 0.97565 0.36597 0.86615 0.0
H1381 H 0.04178 0.39418 0.81931 0.0
H1382 H 0.98061 0.39406 0.81944 0.0
C1383 C 0.99379 0.35118 0.89284 0.0
C1384 C 0.63433 0.99324 0.84706 0.0
C1385 C 0.65709 0.97553 0.86773 0.0
H1386 H 0.61648 0.04136 0.8303 0.0
C1387 C 0.67805 0.99379 0.88968 0.0
H1388 H 0.61762 0.97986 0.8301 0.0
C1389 C 0.67765 0.02905 0.88953 0.0
C1390 C 0.6559 0.04678 0.86781 0.0
H1391 H 0.6958 0.98091 0.90596 0.0
H1392 H 0.69498 0.04245 0.90584 0.0
C1393 C 0.63356 0.02848 0.84729 0.0
C1394 C 0.99329 0.6301 0.17242 0.0
C1395 C 0.97536 0.65668 0.15715 0.0
H1396 H 0.0417 0.60973 0.1854 0.0
C1397 C 0.99357 0.68222 0.14067 0.0
H1398 H 0.98007 0.60991 0.1852 0.0
C1399 C 0.02876 0.68209 0.14077 0.0
C1400 C 0.04677 0.65643 0.15737 0.0
H1401 H 0.98067 0.7029 0.12834 0.0
H1402 H 0.04183 0.7027 0.12849 0.0
C1403 C 0.02864 0.62998 0.17253 0.0
C1404 C 0.38908 0.99328 0.17623 0.0
C1405 C 0.36661 0.9758 0.15504 0.0
H1406 H 0.4065 0.04121 0.19405 0.0
C1407 C 0.34577 0.99434 0.13322 0.0
H1408 H 0.40569 0.97969 0.19314 0.0
C1409 C 0.34597 0.0296 0.13405 0.0
C1410 C 0.36738 0.04708 0.15632 0.0
H1411 H 0.32822 0.98165 0.11657 0.0
H1412 H 0.32872 0.04319 0.1178 0.0
C1413 C 0.38966 0.02854 0.17668 0.0
C1414 C 0.63396 0.9943 0.175 0.0
C1415 C 0.65713 0.97618 0.1552 0.0
H1416 H 0.61689 0.04274 0.19158 0.0
C1417 C 0.67941 0.9941 0.13423 0.0
H1418 H 0.61642 0.9813 0.19142 0.0
C1419 C 0.67936 0.02939 0.134 0.0
C1420 C 0.65741 0.04746 0.15518 0.0
H1421 H 0.6974 0.98086 0.1185 0.0
H1422 H 0.69747 0.04247 0.11828 0.0
C1423 C 0.6343 0.02953 0.1752 0.0
C1424 C 0.17661 0.52945 0.88979 0.0
C1425 C 0.15636 0.5478 0.86724 0.0
H1426 H 0.19307 0.48075 0.9063 0.0
C1427 C 0.13434 0.53016 0.84574 0.0
H1428 H 0.1938 0.54226 0.90672 0.0
C1429 C 0.13359 0.49489 0.84581 0.0
C1430 C 0.15527 0.47654 0.867 0.0
H1431 H 0.1182 0.5436 0.82827 0.0
H1432 H 0.11712 0.48205 0.82822 0.0
C1433 C 0.17626 0.4942 0.88948 0.0
C1434 C 0.84663 0.52885 0.88862 0.0
C1435 C 0.86677 0.54707 0.86585 0.0
H1436 H 0.82994 0.4803 0.90534 0.0
C1437 C 0.8882 0.52922 0.84392 0.0
H1438 H 0.82986 0.54179 0.90587 0.0
C1439 C 0.88856 0.49392 0.84391 0.0
C1440 C 0.86708 0.47573 0.86545 0.0
H1441 H 0.90422 0.54253 0.82625 0.0
H1442 H 0.90466 0.48093 0.82608 0.0
C1443 C 0.84658 0.49359 0.88823 0.0
C1444 C 0.13296 0.49448 0.17672 0.0
C1445 C 0.15512 0.47607 0.1561 0.0
H1446 H 0.11705 0.54322 0.19361 0.0
C1447 C 0.17642 0.49368 0.13385 0.0
H1448 H 0.1162 0.4817 0.19409 0.0
C1449 C 0.17664 0.52895 0.13328 0.0
C1450 C 0.15593 0.54735 0.15534 0.0
H1451 H 0.19359 0.4802 0.11742 0.0
H1452 H 0.19412 0.54173 0.11662 0.0
C1453 C 0.13355 0.52974 0.17652 0.0
C1454 C 0.85345 0.49316 0.13024 0.0
C1455 C 0.86701 0.47512 0.15762 0.0
H1456 H 0.84203 0.54159 0.10922 0.0
C1457 C 0.88215 0.49318 0.18411 0.0
H1458 H 0.84177 0.48006 0.10931 0.0
C1459 C 0.8823 0.52839 0.18405 0.0
C1460 C 0.86732 0.54648 0.1575 0.0
H1461 H 0.89315 0.48016 0.20545 0.0
H1462 H 0.8934 0.54139 0.20535 0.0
C1463 C 0.85361 0.52847 0.13018 0.0
C1464 C 0.39344 0.67353 0.52918 0.0
C1465 C 0.36731 0.65742 0.54704 0.0
H1466 H 0.41341 0.68721 0.48077 0.0
C1467 C 0.34237 0.64012 0.52876 0.0
H1468 H 0.41315 0.68696 0.54247 0.0
C1469 C 0.34254 0.64024 0.49359 0.0
C1470 C 0.36765 0.65769 0.47563 0.0
H1471 H 0.32208 0.62709 0.54159 0.0
H1472 H 0.32236 0.6273 0.4805 0.0
C1473 C 0.3936 0.67366 0.4938 0.0
C1474 C 0.88266 0.83858 0.49299 0.0
C1475 C 0.86702 0.8648 0.47492 0.0
H1476 H 0.89445 0.81758 0.5412 0.0
C1477 C 0.85295 0.89189 0.49301 0.0
H1478 H 0.89403 0.81745 0.47995 0.0
C1479 C 0.85322 0.89197 0.52833 0.0
C1480 C 0.86755 0.86496 0.54636 0.0
H1481 H 0.84087 0.9126 0.47994 0.0
H1482 H 0.8413 0.91274 0.54146 0.0
C1483 C 0.88292 0.83866 0.52821 0.0
C1484 C 0.63031 0.35238 0.52907 0.0
C1485 C 0.65719 0.36714 0.54697 0.0
H1486 H 0.6097 0.33968 0.48074 0.0
C1487 C 0.68308 0.38305 0.52876 0.0
H1488 H 0.60983 0.34006 0.54229 0.0
C1489 C 0.68297 0.38286 0.49357 0.0
C1490 C 0.65698 0.36671 0.47561 0.0
H1491 H 0.704 0.39496 0.54167 0.0
H1492 H 0.70383 0.39466 0.48048 0.0
C1493 C 0.63022 0.35215 0.49375 0.0
C1494 C 0.1793 0.13378 0.52936 0.0
C1495 C 0.15723 0.15502 0.54722 0.0
H1496 H 0.19712 0.11749 0.48103 0.0
C1497 C 0.13411 0.17485 0.52909 0.0
H1498 H 0.19723 0.118 0.54263 0.0
C1499 C 0.13432 0.17485 0.49388 0.0
C1500 C 0.15727 0.15462 0.476 0.0
H1501 H 0.1167 0.19144 0.54205 0.0
H1502 H 0.11698 0.1913 0.48063 0.0
C1503 C 0.17913 0.13337 0.49408 0.0
C1504 C 0.34981 0.39325 0.52954 0.0
C1505 C 0.36539 0.36681 0.54738 0.0
H1506 H 0.3367 0.41358 0.48114 0.0
C1507 C 0.38236 0.34161 0.52914 0.0
H1508 H 0.33667 0.41317 0.54281 0.0
C1509 C 0.3824 0.34187 0.49399 0.0
C1510 C 0.36546 0.36732 0.47603 0.0
H1511 H 0.39499 0.32108 0.542 0.0
H1512 H 0.39506 0.3215 0.4809 0.0
C1513 C 0.34985 0.3935 0.49418 0.0
C1514 C 0.17515 0.88871 0.49332 0.0
C1515 C 0.15466 0.86601 0.47542 0.0
H1516 H 0.19185 0.90618 0.54152 0.0
C1517 C 0.13309 0.84445 0.49349 0.0
H1518 H 0.19185 0.90582 0.4801 0.0
C1519 C 0.13341 0.84433 0.52877 0.0
C1520 C 0.15487 0.86616 0.54667 0.0
H1521 H 0.11701 0.82666 0.48041 0.0
H1522 H 0.11737 0.82662 0.54202 0.0
C1523 C 0.17506 0.88898 0.52855 0.0
C1524 C 0.63018 0.67214 0.49404 0.0
C1525 C 0.65631 0.65613 0.47613 0.0
H1526 H 0.61031 0.68578 0.54246 0.0
C1527 C 0.68136 0.63888 0.49431 0.0
H1528 H 0.61039 0.68553 0.48082 0.0
C1529 C 0.6813 0.63901 0.52948 0.0
C1530 C 0.6562 0.65642 0.54748 0.0
H1531 H 0.70166 0.62594 0.4814 0.0
H1532 H 0.70156 0.62615 0.54253 0.0
C1533 C 0.63013 0.67229 0.52939 0.0
C1534 C 0.88235 0.18337 0.52986 0.0
C1535 C 0.86605 0.15751 0.54785 0.0
H1536 H 0.89466 0.20422 0.48175 0.0
C1537 C 0.85139 0.13077 0.52976 0.0
H1538 H 0.89426 0.2042 0.54292 0.0
C1539 C 0.85167 0.13078 0.49445 0.0
C1540 C 0.86661 0.15754 0.47651 0.0
H1541 H 0.83879 0.11035 0.54282 0.0
H1542 H 0.83927 0.11034 0.48125 0.0
C1543 C 0.88262 0.18339 0.49468 0.0
C1544 C 0.34637 0.52919 0.38976 0.0
C1545 C 0.36719 0.54758 0.36778 0.0
H1546 H 0.32924 0.48046 0.40548 0.0
C1547 C 0.38954 0.52993 0.34661 0.0
H1548 H 0.3289 0.542 0.4064 0.0
C1549 C 0.39002 0.49466 0.34634 0.0
C1550 C 0.36777 0.47627 0.36687 0.0
H1551 H 0.40613 0.54339 0.32957 0.0
H1552 H 0.40678 0.48185 0.32897 0.0
C1553 C 0.34648 0.49392 0.38911 0.0
C1554 C 0.66934 0.52923 0.39344 0.0
C1555 C 0.65492 0.54725 0.36648 0.0
H1556 H 0.68167 0.48078 0.41396 0.0
C1557 C 0.63892 0.52922 0.34051 0.0
H1558 H 0.6817 0.54234 0.41397 0.0
C1559 C 0.63888 0.49405 0.34053 0.0
C1560 C 0.65487 0.47596 0.3665 0.0
H1561 H 0.62721 0.54225 0.31955 0.0
H1562 H 0.62713 0.48107 0.31957 0.0
C1563 C 0.66933 0.49393 0.39344 0.0
C1564 C 0.38975 0.529 0.67601 0.0
C1565 C 0.36729 0.54672 0.65505 0.0
H1566 H 0.4069 0.48089 0.69349 0.0
C1567 C 0.346 0.52843 0.63343 0.0
H1568 H 0.40665 0.5424 0.69278 0.0
C1569 C 0.34582 0.49317 0.63418 0.0
C1570 C 0.36732 0.47546 0.65613 0.0
H1571 H 0.3284 0.54133 0.61699 0.0
H1572 H 0.32828 0.47977 0.61808 0.0
C1573 C 0.38997 0.49375 0.67634 0.0
C1574 C 0.6389 0.4937 0.68304 0.0
C1575 C 0.65472 0.4755 0.6571 0.0
H1576 H 0.62735 0.542 0.7038 0.0
C1577 C 0.66917 0.49337 0.63004 0.0
H1578 H 0.6272 0.4808 0.70409 0.0
C1579 C 0.66929 0.52868 0.62987 0.0
C1580 C 0.65495 0.54682 0.65675 0.0
H1581 H 0.68139 0.48015 0.6095 0.0
H1582 H 0.68162 0.54169 0.60926 0.0
C1583 C 0.639 0.52888 0.68286 0.0
C1584 C 0.49366 0.17215 0.89318 0.0
C1585 C 0.47554 0.15718 0.86657 0.0
H1586 H 0.54221 0.18472 0.91346 0.0
C1587 C 0.49361 0.14092 0.84077 0.0
H1588 H 0.48057 0.18478 0.91355 0.0
C1589 C 0.52882 0.14087 0.84073 0.0
C1590 C 0.54702 0.15711 0.86647 0.0
H1591 H 0.48058 0.12884 0.82003 0.0
H1592 H 0.54175 0.12874 0.81995 0.0
C1593 C 0.52903 0.17212 0.89313 0.0
C1594 C 0.52947 0.84203 0.88442 0.0
C1595 C 0.5476 0.86755 0.86785 0.0
H1596 H 0.48126 0.82139 0.89643 0.0
C1597 C 0.52973 0.8942 0.85269 0.0
H1598 H 0.54239 0.82135 0.89674 0.0
C1599 C 0.49442 0.89422 0.8525 0.0
C1600 C 0.47638 0.8676 0.86746 0.0
H1601 H 0.54295 0.91438 0.83989 0.0
H1602 H 0.48136 0.91441 0.83955 0.0
C1603 C 0.49432 0.84205 0.88423 0.0
C1604 C 0.49308 0.13357 0.17566 0.0
C1605 C 0.47537 0.15627 0.15495 0.0
H1606 H 0.5412 0.1159 0.19263 0.0
C1607 C 0.49363 0.17734 0.13309 0.0
H1608 H 0.47969 0.1168 0.19257 0.0
C1609 C 0.5289 0.1771 0.13343 0.0
C1610 C 0.54662 0.15542 0.15521 0.0
H1611 H 0.48074 0.19508 0.1168 0.0
H1612 H 0.5423 0.19453 0.11721 0.0
C1613 C 0.52833 0.13294 0.1756 0.0
C1614 C 0.52899 0.84736 0.13331 0.0
C1615 C 0.54718 0.86792 0.15573 0.0
H1616 H 0.48045 0.83035 0.11694 0.0
C1617 C 0.52935 0.88985 0.17716 0.0
H1618 H 0.54194 0.83022 0.11644 0.0
C1619 C 0.49407 0.89022 0.17715 0.0
C1620 C 0.47591 0.86827 0.15609 0.0
H1621 H 0.54265 0.9062 0.19453 0.0
H1622 H 0.48109 0.90667 0.19468 0.0
C1623 C 0.49374 0.84735 0.13369 0.0
C1624 C 0.49382 0.38881 0.67523 0.0
C1625 C 0.47589 0.36628 0.6546 0.0
H1626 H 0.54204 0.40594 0.69215 0.0
C1627 C 0.49389 0.34472 0.63297 0.0
H1628 H 0.48061 0.40589 0.69197 0.0
C1629 C 0.52916 0.3444 0.6334 0.0
C1630 C 0.54707 0.36603 0.65503 0.0
H1631 H 0.48078 0.32705 0.61679 0.0
H1632 H 0.54237 0.3267 0.61733 0.0
C1633 C 0.52902 0.38889 0.67524 0.0
C1634 C 0.49451 0.63041 0.3508 0.0
C1635 C 0.47634 0.65696 0.36572 0.0
H1636 H 0.54311 0.61031 0.33832 0.0
C1637 C 0.4943 0.6828 0.3821 0.0
H1638 H 0.4815 0.61002 0.33811 0.0
C1639 C 0.52948 0.683 0.3822 0.0
C1640 C 0.54773 0.65735 0.36595 0.0
H1641 H 0.48118 0.70348 0.3942 0.0
H1642 H 0.54234 0.70381 0.39435 0.0
C1643 C 0.52985 0.6306 0.35092 0.0
C1644 C 0.52858 0.38927 0.3469 0.0
C1645 C 0.54697 0.36665 0.36705 0.0
H1646 H 0.47988 0.40581 0.33047 0.0
C1647 C 0.52929 0.34494 0.38886 0.0
H1648 H 0.54136 0.40636 0.32986 0.0
C1649 C 0.49399 0.34492 0.38953 0.0
C1650 C 0.47562 0.36624 0.36798 0.0
H1651 H 0.54273 0.32739 0.40491 0.0
H1652 H 0.48113 0.3272 0.40586 0.0
C1653 C 0.49332 0.38887 0.34717 0.0
C1654 C 0.49398 0.63005 0.67123 0.0
C1655 C 0.47595 0.65702 0.65684 0.0
H1656 H 0.54244 0.60946 0.68349 0.0
C1657 C 0.49406 0.68318 0.6412 0.0
H1658 H 0.48085 0.60939 0.68334 0.0
C1659 C 0.52926 0.68322 0.64128 0.0
C1660 C 0.54736 0.6571 0.65701 0.0
H1661 H 0.48107 0.7042 0.62956 0.0
H1662 H 0.54226 0.70427 0.62969 0.0
C1663 C 0.52932 0.6301 0.67132 0.0
loop_
_geom_bond_atom_site_label_1
_geom_bond_atom_site_label_2
_geom_bond_distance
_geom_bond_site_symmetry_2
_ccdc_geom_bond_type
Fe0 O2 1.918 . S
Fe0 O5 1.997 . S
Fe0 O6 2.002 . S
Fe0 O11 1.976 . S
Fe0 O14 1.996 . S
Fe1 O2 1.918 . S
Fe1 O9 1.997 . S
Fe1 O12 1.996 . S
Fe1 O16 1.976 . S
Fe1 O19 2.002 . S
O2 Fe0 1.918 . S
O2 Fe1 1.918 . S
O2 Fe3 1.918 . S
Fe3 O2 1.918 . S
Fe3 O4 2.002 . S
Fe3 O13 1.976 . S
Fe3 O17 1.996 . S
Fe3 O20 1.997 . S
O4 Fe3 2.002 . S
O4 C21 1.295 . S
O5 Fe0 1.997 . S
O5 C21 1.235 . S
O6 Fe0 2.002 . S
O6 C7 1.295 . S
C7 O6 1.295 . S
C7 O9 1.235 . S
C8 O13 1.287 . S
C8 O14 1.255 . S
O9 Fe1 1.997 . S
O9 C7 1.235 . S
C10 O16 1.287 . S
C10 O17 1.255 . S
O11 Fe0 1.976 . S
O11 C18 1.287 . S
O12 Fe1 1.996 . S
O12 C18 1.255 . S
O13 Fe3 1.976 . S
O13 C8 1.287 . S
O14 Fe0 1.996 . S
O14 C8 1.255 . S
C15 O19 1.295 . S
C15 O20 1.235 . S
O16 Fe1 1.976 . S
O16 C10 1.287 . S
O17 Fe3 1.996 . S
O17 C10 1.255 . S
C18 O11 1.287 . S
C18 O12 1.255 . S
O19 Fe1 2.002 . S
O19 C15 1.295 . S
O20 Fe3 1.997 . S
O20 C15 1.235 . S
C21 O4 1.295 . S
C21 O5 1.235 . S
Fe22 O24 1.918 . S
Fe22 O27 1.997 . S
Fe22 O28 2.002 . S
Fe22 O33 1.976 . S
Fe22 O36 1.996 . S
Fe23 O24 1.918 . S
Fe23 O31 1.997 . S
Fe23 O34 1.996 . S
Fe23 O38 1.976 . S
Fe23 O41 2.002 . S
O24 Fe22 1.918 . S
O24 Fe23 1.918 . S
O24 Fe25 1.918 . S
Fe25 O24 1.918 . S
Fe25 O26 2.002 . S
Fe25 O35 1.976 . S
Fe25 O39 1.996 . S
Fe25 O42 1.997 . S
O26 Fe25 2.002 . S
O26 C43 1.295 . S
O27 Fe22 1.997 . S
O27 C43 1.235 . S
O28 Fe22 2.002 . S
O28 C29 1.295 . S
C29 O28 1.295 . S
C29 O31 1.235 . S
C30 O35 1.287 . S
C30 O36 1.255 . S
O31 Fe23 1.997 . S
O31 C29 1.235 . S
C32 O38 1.287 . S
C32 O39 1.255 . S
O33 Fe22 1.976 . S
O33 C40 1.287 . S
O34 Fe23 1.996 . S
O34 C40 1.255 . S
O35 Fe25 1.976 . S
O35 C30 1.287 . S
O36 Fe22 1.996 . S
O36 C30 1.255 . S
C37 O41 1.295 . S
C37 O42 1.235 . S
O38 Fe23 1.976 . S
O38 C32 1.287 . S
O39 Fe25 1.996 . S
O39 C32 1.255 . S
C40 O33 1.287 . S
C40 O34 1.255 . S
O41 Fe23 2.002 . S
O41 C37 1.295 . S
O42 Fe25 1.997 . S
O42 C37 1.235 . S
C43 O26 1.295 . S
C43 O27 1.235 . S
Fe44 O46 1.918 . S
Fe44 O49 1.997 . S
Fe44 O50 2.002 . S
Fe44 O55 1.976 . S
Fe44 O58 1.996 . S
Fe45 O46 1.918 . S
Fe45 O53 1.997 . S
Fe45 O56 1.996 . S
Fe45 O60 1.976 . S
Fe45 O63 2.002 . S
O46 Fe44 1.918 . S
O46 Fe45 1.918 . S
O46 Fe47 1.918 . S
Fe47 O46 1.918 . S
Fe47 O48 2.002 . S
Fe47 O57 1.976 . S
Fe47 O61 1.996 . S
Fe47 O64 1.997 . S
O48 Fe47 2.002 . S
O48 C65 1.295 . S
O49 Fe44 1.997 . S
O49 C65 1.235 . S
O50 Fe44 2.002 . S
O50 C51 1.295 . S
C51 O50 1.295 . S
C51 O53 1.235 . S
C52 O57 1.287 . S
C52 O58 1.255 . S
O53 Fe45 1.997 . S
O53 C51 1.235 . S
C54 O60 1.287 . S
C54 O61 1.255 . S
O55 Fe44 1.976 . S
O55 C62 1.287 . S
O56 Fe45 1.996 . S
O56 C62 1.255 . S
O57 Fe47 1.976 . S
O57 C52 1.287 . S
O58 Fe44 1.996 . S
O58 C52 1.255 . S
C59 O63 1.295 . S
C59 O64 1.235 . S
O60 Fe45 1.976 . S
O60 C54 1.287 . S
O61 Fe47 1.996 . S
O61 C54 1.255 . S
C62 O55 1.287 . S
C62 O56 1.255 . S
O63 Fe45 2.002 . S
O63 C59 1.295 . S
O64 Fe47 1.997 . S
O64 C59 1.235 . S
C65 O48 1.295 . S
C65 O49 1.235 . S
Fe66 O68 1.918 . S
Fe66 O71 1.997 . S
Fe66 O72 2.002 . S
Fe66 O77 1.976 . S
Fe66 O80 1.996 . S
Fe67 O68 1.918 . S
Fe67 O75 1.997 . S
Fe67 O78 1.996 . S
Fe67 O82 1.976 . S
Fe67 O85 2.002 . S
O68 Fe66 1.918 . S
O68 Fe67 1.918 . S
O68 Fe69 1.918 . S
Fe69 O68 1.918 . S
Fe69 O70 2.002 . S
Fe69 O79 1.976 . S
Fe69 O83 1.996 . S
Fe69 O86 1.997 . S
O70 Fe69 2.002 . S
O70 C87 1.295 . S
O71 Fe66 1.997 . S
O71 C87 1.235 . S
O72 Fe66 2.002 . S
O72 C73 1.295 . S
C73 O72 1.295 . S
C73 O75 1.235 . S
C74 O79 1.287 . S
C74 O80 1.255 . S
O75 Fe67 1.997 . S
O75 C73 1.235 . S
C76 O82 1.287 . S
C76 O83 1.255 . S
O77 Fe66 1.976 . S
O77 C84 1.287 . S
O78 Fe67 1.996 . S
O78 C84 1.255 . S
O79 Fe69 1.976 . S
O79 C74 1.287 . S
O80 Fe66 1.996 . S
O80 C74 1.255 . S
C81 O85 1.295 . S
C81 O86 1.235 . S
O82 Fe67 1.976 . S
O82 C76 1.287 . S
O83 Fe69 1.996 . S
O83 C76 1.255 . S
C84 O77 1.287 . S
C84 O78 1.255 . S
O85 Fe67 2.002 . S
O85 C81 1.295 . S
O86 Fe69 1.997 . S
O86 C81 1.235 . S
C87 O70 1.295 . S
C87 O71 1.235 . S
Fe88 O90 1.918 . S
Fe88 O93 1.997 . S
Fe88 O94 2.002 . S
Fe88 O99 1.976 . S
Fe88 O102 1.996 . S
Fe89 O90 1.918 . S
Fe89 O97 1.997 . S
Fe89 O100 1.996 . S
Fe89 O104 1.976 . S
Fe89 O107 2.002 . S
O90 Fe88 1.918 . S
O90 Fe89 1.918 . S
O90 Fe91 1.918 . S
Fe91 O90 1.918 . S
Fe91 O92 2.002 . S
Fe91 O101 1.976 . S
Fe91 O105 1.996 . S
Fe91 O108 1.997 . S
O92 Fe91 2.002 . S
O92 C109 1.295 . S
O93 Fe88 1.997 . S
O93 C109 1.235 . S
O94 Fe88 2.002 . S
O94 C95 1.295 . S
C95 O94 1.295 . S
C95 O97 1.235 . S
C96 O101 1.287 . S
C96 O102 1.255 . S
O97 Fe89 1.997 . S
O97 C95 1.235 . S
C98 O104 1.287 . S
C98 O105 1.255 . S
O99 Fe88 1.976 . S
O99 C106 1.287 . S
O100 Fe89 1.996 . S
O100 C106 1.255 . S
O101 Fe91 1.976 . S
O101 C96 1.287 . S
O102 Fe88 1.996 . S
O102 C96 1.255 . S
C103 O107 1.295 . S
C103 O108 1.235 . S
O104 Fe89 1.976 . S
O104 C98 1.287 . S
O105 Fe91 1.996 . S
O105 C98 1.255 . S
C106 O99 1.287 . S
C106 O100 1.255 . S
O107 Fe89 2.002 . S
O107 C103 1.295 . S
O108 Fe91 1.997 . S
O108 C103 1.235 . S
C109 O92 1.295 . S
C109 O93 1.235 . S
Fe110 O112 1.918 . S
Fe110 O115 1.997 . S
Fe110 O116 2.002 . S
Fe110 O121 1.976 . S
Fe110 O124 1.996 . S
Fe111 O112 1.918 . S
Fe111 O119 1.997 . S
Fe111 O122 1.996 . S
Fe111 O126 1.976 . S
Fe111 O129 2.002 . S
O112 Fe110 1.918 . S
O112 Fe111 1.918 . S
O112 Fe113 1.918 . S
Fe113 O112 1.918 . S
Fe113 O114 2.002 . S
Fe113 O123 1.976 . S
Fe113 O127 1.996 . S
Fe113 O130 1.997 . S
O114 Fe113 2.002 . S
O114 C131 1.295 . S
O115 Fe110 1.997 . S
O115 C131 1.235 . S
O116 Fe110 2.002 . S
O116 C117 1.295 . S
C117 O116 1.295 . S
C117 O119 1.235 . S
C118 O123 1.287 . S
C118 O124 1.255 . S
O119 Fe111 1.997 . S
O119 C117 1.235 . S
C120 O126 1.287 . S
C120 O127 1.255 . S
O121 Fe110 1.976 . S
O121 C128 1.287 . S
O122 Fe111 1.996 . S
O122 C128 1.255 . S
O123 Fe113 1.976 . S
O123 C118 1.287 . S
O124 Fe110 1.996 . S
O124 C118 1.255 . S
C125 O129 1.295 . S
C125 O130 1.235 . S
O126 Fe111 1.976 . S
O126 C120 1.287 . S
O127 Fe113 1.996 . S
O127 C120 1.255 . S
C128 O121 1.287 . S
C128 O122 1.255 . S
O129 Fe111 2.002 . S
O129 C125 1.295 . S
O130 Fe113 1.997 . S
O130 C125 1.235 . S
C131 O114 1.295 . S
C131 O115 1.235 . S
Fe132 O134 1.918 . S
Fe132 O137 1.997 . S
Fe132 O138 2.002 . S
Fe132 O143 1.976 . S
Fe132 O146 1.996 . S
Fe133 O134 1.918 . S
Fe133 O141 1.997 . S
Fe133 O144 1.996 . S
Fe133 O148 1.976 . S
Fe133 O151 2.002 . S
O134 Fe132 1.918 . S
O134 Fe133 1.918 . S
O134 Fe135 1.918 . S
Fe135 O134 1.918 . S
Fe135 O136 2.002 . S
Fe135 O145 1.976 . S
Fe135 O149 1.996 . S
Fe135 O152 1.997 . S
O136 Fe135 2.002 . S
O136 C153 1.295 . S
O137 Fe132 1.997 . S
O137 C153 1.235 . S
O138 Fe132 2.002 . S
O138 C139 1.295 . S
C139 O138 1.295 . S
C139 O141 1.235 . S
C140 O145 1.287 . S
C140 O146 1.255 . S
O141 Fe133 1.997 . S
O141 C139 1.235 . S
C142 O148 1.287 . S
C142 O149 1.255 . S
O143 Fe132 1.976 . S
O143 C150 1.287 . S
O144 Fe133 1.996 . S
O144 C150 1.255 . S
O145 Fe135 1.976 . S
O145 C140 1.287 . S
O146 Fe132 1.996 . S
O146 C140 1.255 . S
C147 O151 1.295 . S
C147 O152 1.235 . S
O148 Fe133 1.976 . S
O148 C142 1.287 . S
O149 Fe135 1.996 . S
O149 C142 1.255 . S
C150 O143 1.287 . S
C150 O144 1.255 . S
O151 Fe133 2.002 . S
O151 C147 1.295 . S
O152 Fe135 1.997 . S
O152 C147 1.235 . S
C153 O136 1.295 . S
C153 O137 1.235 . S
Fe154 O156 1.918 . S
Fe154 O159 1.997 . S
Fe154 O160 2.002 . S
Fe154 O165 1.976 . S
Fe154 O168 1.996 . S
Fe155 O156 1.918 . S
Fe155 O163 1.997 . S
Fe155 O166 1.996 . S
Fe155 O170 1.976 . S
Fe155 O173 2.002 . S
O156 Fe154 1.918 . S
O156 Fe155 1.918 . S
O156 Fe157 1.918 . S
Fe157 O156 1.918 . S
Fe157 O158 2.002 . S
Fe157 O167 1.976 . S
Fe157 O171 1.996 . S
Fe157 O174 1.997 . S
O158 Fe157 2.002 . S
O158 C175 1.295 . S
O159 Fe154 1.997 . S
O159 C175 1.235 . S
O160 Fe154 2.002 . S
O160 C161 1.295 . S
C161 O160 1.295 . S
C161 O163 1.235 . S
C162 O167 1.287 . S
C162 O168 1.255 . S
O163 Fe155 1.997 . S
O163 C161 1.235 . S
C164 O170 1.287 . S
C164 O171 1.255 . S
O165 Fe154 1.976 . S
O165 C172 1.287 . S
O166 Fe155 1.996 . S
O166 C172 1.255 . S
O167 Fe157 1.976 . S
O167 C162 1.287 . S
O168 Fe154 1.996 . S
O168 C162 1.255 . S
C169 O173 1.295 . S
C169 O174 1.235 . S
O170 Fe155 1.976 . S
O170 C164 1.287 . S
O171 Fe157 1.996 . S
O171 C164 1.255 . S
C172 O165 1.287 . S
C172 O166 1.255 . S
O173 Fe155 2.002 . S
O173 C169 1.295 . S
O174 Fe157 1.997 . S
O174 C169 1.235 . S
C175 O158 1.295 . S
C175 O159 1.235 . S
Fe176 O178 1.918 . S
Fe176 O181 1.997 . S
Fe176 O182 2.002 . S
Fe176 O187 1.976 . S
Fe176 O190 1.996 . S
Fe177 O178 1.918 . S
Fe177 O185 1.997 . S
Fe177 O188 1.996 . S
Fe177 O192 1.976 . S
Fe177 O195 2.002 . S
O178 Fe176 1.918 . S
O178 Fe177 1.918 . S
O178 Fe179 1.918 . S
Fe179 O178 1.918 . S
Fe179 O180 2.002 . S
Fe179 O189 1.976 . S
Fe179 O193 1.996 . S
Fe179 O196 1.997 . S
O180 Fe179 2.002 . S
O180 C197 1.295 . S
O181 Fe176 1.997 . S
O181 C197 1.235 . S
O182 Fe176 2.002 . S
O182 C183 1.295 . S
C183 O182 1.295 . S
C183 O185 1.235 . S
C184 O189 1.287 . S
C184 O190 1.255 . S
O185 Fe177 1.997 . S
O185 C183 1.235 . S
C186 O192 1.287 . S
C186 O193 1.255 . S
O187 Fe176 1.976 . S
O187 C194 1.287 . S
O188 Fe177 1.996 . S
O188 C194 1.255 . S
O189 Fe179 1.976 . S
O189 C184 1.287 . S
O190 Fe176 1.996 . S
O190 C184 1.255 . S
C191 O195 1.295 . S
C191 O196 1.235 . S
O192 Fe177 1.976 . S
O192 C186 1.287 . S
O193 Fe179 1.996 . S
O193 C186 1.255 . S
C194 O187 1.287 . S
C194 O188 1.255 . S
O195 Fe177 2.002 . S
O195 C191 1.295 . S
O196 Fe179 1.997 . S
O196 C191 1.235 . S
C197 O180 1.295 . S
C197 O181 1.235 . S
Fe198 O200 1.918 . S
Fe198 O203 1.997 . S
Fe198 O204 2.002 . S
Fe198 O209 1.976 . S
Fe198 O212 1.996 . S
Fe199 O200 1.918 . S
Fe199 O207 1.997 . S
Fe199 O210 1.996 . S
Fe199 O214 1.976 . S
Fe199 O217 2.002 . S
O200 Fe198 1.918 . S
O200 Fe199 1.918 . S
O200 Fe201 1.918 . S
Fe201 O200 1.918 . S
Fe201 O202 2.002 . S
Fe201 O211 1.976 . S
Fe201 O215 1.996 . S
Fe201 O218 1.997 . S
O202 Fe201 2.002 . S
O202 C219 1.295 . S
O203 Fe198 1.997 . S
O203 C219 1.235 . S
O204 Fe198 2.002 . S
O204 C205 1.295 . S
C205 O204 1.295 . S
C205 O207 1.235 . S
C206 O211 1.287 . S
C206 O212 1.255 . S
O207 Fe199 1.997 . S
O207 C205 1.235 . S
C208 O214 1.287 . S
C208 O215 1.255 . S
O209 Fe198 1.976 . S
O209 C216 1.287 . S
O210 Fe199 1.996 . S
O210 C216 1.255 . S
O211 Fe201 1.976 . S
O211 C206 1.287 . S
O212 Fe198 1.996 . S
O212 C206 1.255 . S
C213 O217 1.295 . S
C213 O218 1.235 . S
O214 Fe199 1.976 . S
O214 C208 1.287 . S
O215 Fe201 1.996 . S
O215 C208 1.255 . S
C216 O209 1.287 . S
C216 O210 1.255 . S
O217 Fe199 2.002 . S
O217 C213 1.295 . S
O218 Fe201 1.997 . S
O218 C213 1.235 . S
C219 O202 1.295 . S
C219 O203 1.235 . S
Fe220 O222 1.918 . S
Fe220 O225 1.997 . S
Fe220 O226 2.002 . S
Fe220 O231 1.976 . S
Fe220 O234 1.996 . S
Fe221 O222 1.918 . S
Fe221 O229 1.997 . S
Fe221 O232 1.996 . S
Fe221 O236 1.976 . S
Fe221 O239 2.002 . S
O222 Fe220 1.918 . S
O222 Fe221 1.918 . S
O222 Fe223 1.918 . S
Fe223 O222 1.918 . S
Fe223 O224 2.002 . S
Fe223 O233 1.976 . S
Fe223 O237 1.996 . S
Fe223 O240 1.997 . S
O224 Fe223 2.002 . S
O224 C241 1.295 . S
O225 Fe220 1.997 . S
O225 C241 1.235 . S
O226 Fe220 2.002 . S
O226 C227 1.295 . S
C227 O226 1.295 . S
C227 O229 1.235 . S
C228 O233 1.287 . S
C228 O234 1.255 . S
O229 Fe221 1.997 . S
O229 C227 1.235 . S
C230 O236 1.287 . S
C230 O237 1.255 . S
O231 Fe220 1.976 . S
O231 C238 1.287 . S
O232 Fe221 1.996 . S
O232 C238 1.255 . S
O233 Fe223 1.976 . S
O233 C228 1.287 . S
O234 Fe220 1.996 . S
O234 C228 1.255 . S
C235 O239 1.295 . S
C235 O240 1.235 . S
O236 Fe221 1.976 . S
O236 C230 1.287 . S
O237 Fe223 1.996 . S
O237 C230 1.255 . S
C238 O231 1.287 . S
C238 O232 1.255 . S
O239 Fe221 2.002 . S
O239 C235 1.295 . S
O240 Fe223 1.997 . S
O240 C235 1.235 . S
C241 O224 1.295 . S
C241 O225 1.235 . S
Fe242 O244 1.918 . S
Fe242 O247 1.997 . S
Fe242 O248 2.002 . S
Fe242 O253 1.976 . S
Fe242 O256 1.996 . S
Fe243 O244 1.918 . S
Fe243 O251 1.997 . S
Fe243 O254 1.996 . S
Fe243 O258 1.976 . S
Fe243 O261 2.002 . S
O244 Fe242 1.918 . S
O244 Fe243 1.918 . S
O244 Fe245 1.918 . S
Fe245 O244 1.918 . S
Fe245 O246 2.002 . S
Fe245 O255 1.976 . S
Fe245 O259 1.996 . S
Fe245 O262 1.997 . S
O246 Fe245 2.002 . S
O246 C263 1.295 . S
O247 Fe242 1.997 . S
O247 C263 1.235 . S
O248 Fe242 2.002 . S
O248 C249 1.295 . S
C249 O248 1.295 . S
C249 O251 1.235 . S
C250 O255 1.287 . S
C250 O256 1.255 . S
O251 Fe243 1.997 . S
O251 C249 1.235 . S
C252 O258 1.287 . S
C252 O259 1.255 . S
O253 Fe242 1.976 . S
O253 C260 1.287 . S
O254 Fe243 1.996 . S
O254 C260 1.255 . S
O255 Fe245 1.976 . S
O255 C250 1.287 . S
O256 Fe242 1.996 . S
O256 C250 1.255 . S
C257 O261 1.295 . S
C257 O262 1.235 . S
O258 Fe243 1.976 . S
O258 C252 1.287 . S
O259 Fe245 1.996 . S
O259 C252 1.255 . S
C260 O253 1.287 . S
C260 O254 1.255 . S
O261 Fe243 2.002 . S
O261 C257 1.295 . S
O262 Fe245 1.997 . S
O262 C257 1.235 . S
C263 O246 1.295 . S
C263 O247 1.235 . S
Fe264 O266 1.918 . S
Fe264 O269 1.997 . S
Fe264 O270 2.002 . S
Fe264 O275 1.976 . S
Fe264 O278 1.996 . S
Fe265 O266 1.918 . S
Fe265 O273 1.997 . S
Fe265 O276 1.996 . S
Fe265 O280 1.976 . S
Fe265 O283 2.002 . S
O266 Fe264 1.918 . S
O266 Fe265 1.918 . S
O266 Fe267 1.918 . S
Fe267 O266 1.918 . S
Fe267 O268 2.002 . S
Fe267 O277 1.976 . S
Fe267 O281 1.996 . S
Fe267 O284 1.997 . S
O268 Fe267 2.002 . S
O268 C285 1.295 . S
O269 Fe264 1.997 . S
O269 C285 1.235 . S
O270 Fe264 2.002 . S
O270 C271 1.295 . S
C271 O270 1.295 . S
C271 O273 1.235 . S
C272 O277 1.287 . S
C272 O278 1.255 . S
O273 Fe265 1.997 . S
O273 C271 1.235 . S
C274 O280 1.287 . S
C274 O281 1.255 . S
O275 Fe264 1.976 . S
O275 C282 1.287 . S
O276 Fe265 1.996 . S
O276 C282 1.255 . S
O277 Fe267 1.976 . S
O277 C272 1.287 . S
O278 Fe264 1.996 . S
O278 C272 1.255 . S
C279 O283 1.295 . S
C279 O284 1.235 . S
O280 Fe265 1.976 . S
O280 C274 1.287 . S
O281 Fe267 1.996 . S
O281 C274 1.255 . S
C282 O275 1.287 . S
C282 O276 1.255 . S
O283 Fe265 2.002 . S
O283 C279 1.295 . S
O284 Fe267 1.997 . S
O284 C279 1.235 . S
C285 O268 1.295 . S
C285 O269 1.235 . S
Fe286 O288 1.918 . S
Fe286 O291 1.997 . S
Fe286 O292 2.002 . S
Fe286 O297 1.976 . S
Fe286 O300 1.996 . S
Fe287 O288 1.918 . S
Fe287 O295 1.997 . S
Fe287 O298 1.996 . S
Fe287 O302 1.976 . S
Fe287 O305 2.002 . S
O288 Fe286 1.918 . S
O288 Fe287 1.918 . S
O288 Fe289 1.918 . S
Fe289 O288 1.918 . S
Fe289 O290 2.002 . S
Fe289 O299 1.976 . S
Fe289 O303 1.996 . S
Fe289 O306 1.997 . S
O290 Fe289 2.002 . S
O290 C307 1.295 . S
O291 Fe286 1.997 . S
O291 C307 1.235 . S
O292 Fe286 2.002 . S
O292 C293 1.295 . S
C293 O292 1.295 . S
C293 O295 1.235 . S
C294 O299 1.287 . S
C294 O300 1.255 . S
O295 Fe287 1.997 . S
O295 C293 1.235 . S
C296 O302 1.287 . S
C296 O303 1.255 . S
O297 Fe286 1.976 . S
O297 C304 1.287 . S
O298 Fe287 1.996 . S
O298 C304 1.255 . S
O299 Fe289 1.976 . S
O299 C294 1.287 . S
O300 Fe286 1.996 . S
O300 C294 1.255 . S
C301 O305 1.295 . S
C301 O306 1.235 . S
O302 Fe287 1.976 . S
O302 C296 1.287 . S
O303 Fe289 1.996 . S
O303 C296 1.255 . S
C304 O297 1.287 . S
C304 O298 1.255 . S
O305 Fe287 2.002 . S
O305 C301 1.295 . S
O306 Fe289 1.997 . S
O306 C301 1.235 . S
C307 O290 1.295 . S
C307 O291 1.235 . S
Fe308 O310 1.918 . S
Fe308 O313 1.997 . S
Fe308 O314 2.002 . S
Fe308 O319 1.976 . S
Fe308 O322 1.996 . S
Fe309 O310 1.918 . S
Fe309 O317 1.997 . S
Fe309 O320 1.996 . S
Fe309 O324 1.976 . S
Fe309 O327 2.002 . S
O310 Fe308 1.918 . S
O310 Fe309 1.918 . S
O310 Fe311 1.918 . S
Fe311 O310 1.918 . S
Fe311 O312 2.002 . S
Fe311 O321 1.976 . S
Fe311 O325 1.996 . S
Fe311 O328 1.997 . S
O312 Fe311 2.002 . S
O312 C329 1.295 . S
O313 Fe308 1.997 . S
O313 C329 1.235 . S
O314 Fe308 2.002 . S
O314 C315 1.295 . S
C315 O314 1.295 . S
C315 O317 1.235 . S
C316 O321 1.287 . S
C316 O322 1.255 . S
O317 Fe309 1.997 . S
O317 C315 1.235 . S
C318 O324 1.287 . S
C318 O325 1.255 . S
O319 Fe308 1.976 . S
O319 C326 1.287 . S
O320 Fe309 1.996 . S
O320 C326 1.255 . S
O321 Fe311 1.976 . S
O321 C316 1.287 . S
O322 Fe308 1.996 . S
O322 C316 1.255 . S
C323 O327 1.295 . S
C323 O328 1.235 . S
O324 Fe309 1.976 . S
O324 C318 1.287 . S
O325 Fe311 1.996 . S
O325 C318 1.255 . S
C326 O319 1.287 . S
C326 O320 1.255 . S
O327 Fe309 2.002 . S
O327 C323 1.295 . S
O328 Fe311 1.997 . S
O328 C323 1.235 . S
C329 O312 1.295 . S
C329 O313 1.235 . S
Fe330 O332 1.918 . S
Fe330 O335 1.997 . S
Fe330 O336 2.002 . S
Fe330 O341 1.976 . S
Fe330 O344 1.996 . S
Fe331 O332 1.918 . S
Fe331 O339 1.997 . S
Fe331 O342 1.996 . S
Fe331 O346 1.976 . S
Fe331 O349 2.002 . S
O332 Fe330 1.918 . S
O332 Fe331 1.918 . S
O332 Fe333 1.918 . S
Fe333 O332 1.918 . S
Fe333 O334 2.002 . S
Fe333 O343 1.976 . S
Fe333 O347 1.996 . S
Fe333 O350 1.997 . S
O334 Fe333 2.002 . S
O334 C351 1.295 . S
O335 Fe330 1.997 . S
O335 C351 1.235 . S
O336 Fe330 2.002 . S
O336 C337 1.295 . S
C337 O336 1.295 . S
C337 O339 1.235 . S
C338 O343 1.287 . S
C338 O344 1.255 . S
O339 Fe331 1.997 . S
O339 C337 1.235 . S
C340 O346 1.287 . S
C340 O347 1.255 . S
O341 Fe330 1.976 . S
O341 C348 1.287 . S
O342 Fe331 1.996 . S
O342 C348 1.255 . S
O343 Fe333 1.976 . S
O343 C338 1.287 . S
O344 Fe330 1.996 . S
O344 C338 1.255 . S
C345 O349 1.295 . S
C345 O350 1.235 . S
O346 Fe331 1.976 . S
O346 C340 1.287 . S
O347 Fe333 1.996 . S
O347 C340 1.255 . S
C348 O341 1.287 . S
C348 O342 1.255 . S
O349 Fe331 2.002 . S
O349 C345 1.295 . S
O350 Fe333 1.997 . S
O350 C345 1.235 . S
C351 O334 1.295 . S
C351 O335 1.235 . S
Fe352 O354 1.918 . S
Fe352 O357 1.997 . S
Fe352 O358 2.002 . S
Fe352 O363 1.976 . S
Fe352 O366 1.996 . S
Fe353 O354 1.918 . S
Fe353 O361 1.997 . S
Fe353 O364 1.996 . S
Fe353 O368 1.976 . S
Fe353 O371 2.002 . S
O354 Fe352 1.918 . S
O354 Fe353 1.918 . S
O354 Fe355 1.918 . S
Fe355 O354 1.918 . S
Fe355 O356 2.002 . S
Fe355 O365 1.976 . S
Fe355 O369 1.996 . S
Fe355 O372 1.997 . S
O356 Fe355 2.002 . S
O356 C373 1.295 . S
O357 Fe352 1.997 . S
O357 C373 1.235 . S
O358 Fe352 2.002 . S
O358 C359 1.295 . S
C359 O358 1.295 . S
C359 O361 1.235 . S
C360 O365 1.287 . S
C360 O366 1.255 . S
O361 Fe353 1.997 . S
O361 C359 1.235 . S
C362 O368 1.287 . S
C362 O369 1.255 . S
O363 Fe352 1.976 . S
O363 C370 1.287 . S
O364 Fe353 1.996 . S
O364 C370 1.255 . S
O365 Fe355 1.976 . S
O365 C360 1.287 . S
O366 Fe352 1.996 . S
O366 C360 1.255 . S
C367 O371 1.295 . S
C367 O372 1.235 . S
O368 Fe353 1.976 . S
O368 C362 1.287 . S
O369 Fe355 1.996 . S
O369 C362 1.255 . S
C370 O363 1.287 . S
C370 O364 1.255 . S
O371 Fe353 2.002 . S
O371 C367 1.295 . S
O372 Fe355 1.997 . S
O372 C367 1.235 . S
C373 O356 1.295 . S
C373 O357 1.235 . S
Fe374 O376 1.918 . S
Fe374 O379 1.997 . S
Fe374 O380 2.002 . S
Fe374 O385 1.976 . S
Fe374 O388 1.996 . S
Fe375 O376 1.918 . S
Fe375 O383 1.997 . S
Fe375 O386 1.996 . S
Fe375 O390 1.976 . S
Fe375 O393 2.002 . S
O376 Fe374 1.918 . S
O376 Fe375 1.918 . S
O376 Fe377 1.918 . S
Fe377 O376 1.918 . S
Fe377 O378 2.002 . S
Fe377 O387 1.976 . S
Fe377 O391 1.996 . S
Fe377 O394 1.997 . S
O378 Fe377 2.002 . S
O378 C395 1.295 . S
O379 Fe374 1.997 . S
O379 C395 1.235 . S
O380 Fe374 2.002 . S
O380 C381 1.295 . S
C381 O380 1.295 . S
C381 O383 1.235 . S
C382 O387 1.287 . S
C382 O388 1.255 . S
O383 Fe375 1.997 . S
O383 C381 1.235 . S
C384 O390 1.287 . S
C384 O391 1.255 . S
O385 Fe374 1.976 . S
O385 C392 1.287 . S
O386 Fe375 1.996 . S
O386 C392 1.255 . S
O387 Fe377 1.976 . S
O387 C382 1.287 . S
O388 Fe374 1.996 . S
O388 C382 1.255 . S
C389 O393 1.295 . S
C389 O394 1.235 . S
O390 Fe375 1.976 . S
O390 C384 1.287 . S
O391 Fe377 1.996 . S
O391 C384 1.255 . S
C392 O385 1.287 . S
C392 O386 1.255 . S
O393 Fe375 2.002 . S
O393 C389 1.295 . S
O394 Fe377 1.997 . S
O394 C389 1.235 . S
C395 O378 1.295 . S
C395 O379 1.235 . S
Fe396 O398 1.918 . S
Fe396 O401 1.997 . S
Fe396 O402 2.002 . S
Fe396 O407 1.976 . S
Fe396 O410 1.996 . S
Fe397 O398 1.918 . S
Fe397 O405 1.997 . S
Fe397 O408 1.996 . S
Fe397 O412 1.976 . S
Fe397 O415 2.002 . S
O398 Fe396 1.918 . S
O398 Fe397 1.918 . S
O398 Fe399 1.918 . S
Fe399 O398 1.918 . S
Fe399 O400 2.002 . S
Fe399 O409 1.976 . S
Fe399 O413 1.996 . S
Fe399 O416 1.997 . S
O400 Fe399 2.002 . S
O400 C417 1.295 . S
O401 Fe396 1.997 . S
O401 C417 1.235 . S
O402 Fe396 2.002 . S
O402 C403 1.295 . S
C403 O402 1.295 . S
C403 O405 1.235 . S
C404 O409 1.287 . S
C404 O410 1.255 . S
O405 Fe397 1.997 . S
O405 C403 1.235 . S
C406 O412 1.287 . S
C406 O413 1.255 . S
O407 Fe396 1.976 . S
O407 C414 1.287 . S
O408 Fe397 1.996 . S
O408 C414 1.255 . S
O409 Fe399 1.976 . S
O409 C404 1.287 . S
O410 Fe396 1.996 . S
O410 C404 1.255 . S
C411 O415 1.295 . S
C411 O416 1.235 . S
O412 Fe397 1.976 . S
O412 C406 1.287 . S
O413 Fe399 1.996 . S
O413 C406 1.255 . S
C414 O407 1.287 . S
C414 O408 1.255 . S
O415 Fe397 2.002 . S
O415 C411 1.295 . S
O416 Fe399 1.997 . S
O416 C411 1.235 . S
C417 O400 1.295 . S
C417 O401 1.235 . S
Fe418 O420 1.918 . S
Fe418 O423 1.997 . S
Fe418 O424 2.002 . S
Fe418 O429 1.976 . S
Fe418 O432 1.996 . S
Fe419 O420 1.918 . S
Fe419 O427 1.997 . S
Fe419 O430 1.996 . S
Fe419 O434 1.976 . S
Fe419 O437 2.002 . S
O420 Fe418 1.918 . S
O420 Fe419 1.918 . S
O420 Fe421 1.918 . S
Fe421 O420 1.918 . S
Fe421 O422 2.002 . S
Fe421 O431 1.976 . S
Fe421 O435 1.996 . S
Fe421 O438 1.997 . S
O422 Fe421 2.002 . S
O422 C439 1.295 . S
O423 Fe418 1.997 . S
O423 C439 1.235 . S
O424 Fe418 2.002 . S
O424 C425 1.295 . S
C425 O424 1.295 . S
C425 O427 1.235 . S
C426 O431 1.287 . S
C426 O432 1.255 . S
O427 Fe419 1.997 . S
O427 C425 1.235 . S
C428 O434 1.287 . S
C428 O435 1.255 . S
O429 Fe418 1.976 . S
O429 C436 1.287 . S
O430 Fe419 1.996 . S
O430 C436 1.255 . S
O431 Fe421 1.976 . S
O431 C426 1.287 . S
O432 Fe418 1.996 . S
O432 C426 1.255 . S
C433 O437 1.295 . S
C433 O438 1.235 . S
O434 Fe419 1.976 . S
O434 C428 1.287 . S
O435 Fe421 1.996 . S
O435 C428 1.255 . S
C436 O429 1.287 . S
C436 O430 1.255 . S
O437 Fe419 2.002 . S
O437 C433 1.295 . S
O438 Fe421 1.997 . S
O438 C433 1.235 . S
C439 O422 1.295 . S
C439 O423 1.235 . S
Fe440 O442 1.918 . S
Fe440 O445 1.997 . S
Fe440 O446 2.002 . S
Fe440 O451 1.976 . S
Fe440 O454 1.996 . S
Fe441 O442 1.918 . S
Fe441 O449 1.997 . S
Fe441 O452 1.996 . S
Fe441 O456 1.976 . S
Fe441 O459 2.002 . S
O442 Fe440 1.918 . S
O442 Fe441 1.918 . S
O442 Fe443 1.918 . S
Fe443 O442 1.918 . S
Fe443 O444 2.002 . S
Fe443 O453 1.976 . S
Fe443 O457 1.996 . S
Fe443 O460 1.997 . S
O444 Fe443 2.002 . S
O444 C461 1.295 . S
O445 Fe440 1.997 . S
O445 C461 1.235 . S
O446 Fe440 2.002 . S
O446 C447 1.295 . S
C447 O446 1.295 . S
C447 O449 1.235 . S
C448 O453 1.287 . S
C448 O454 1.255 . S
O449 Fe441 1.997 . S
O449 C447 1.235 . S
C450 O456 1.287 . S
C450 O457 1.255 . S
O451 Fe440 1.976 . S
O451 C458 1.287 . S
O452 Fe441 1.996 . S
O452 C458 1.255 . S
O453 Fe443 1.976 . S
O453 C448 1.287 . S
O454 Fe440 1.996 . S
O454 C448 1.255 . S
C455 O459 1.295 . S
C455 O460 1.235 . S
O456 Fe441 1.976 . S
O456 C450 1.287 . S
O457 Fe443 1.996 . S
O457 C450 1.255 . S
C458 O451 1.287 . S
C458 O452 1.255 . S
O459 Fe441 2.002 . S
O459 C455 1.295 . S
O460 Fe443 1.997 . S
O460 C455 1.235 . S
C461 O444 1.295 . S
C461 O445 1.235 . S
Fe462 O464 1.918 . S
Fe462 O467 1.997 . S
Fe462 O468 2.002 . S
Fe462 O473 1.976 . S
Fe462 O476 1.996 . S
Fe463 O464 1.918 . S
Fe463 O471 1.997 . S
Fe463 O474 1.996 . S
Fe463 O478 1.976 . S
Fe463 O481 2.002 . S
O464 Fe462 1.918 . S
O464 Fe463 1.918 . S
O464 Fe465 1.918 . S
Fe465 O464 1.918 . S
Fe465 O466 2.002 . S
Fe465 O475 1.976 . S
Fe465 O479 1.996 . S
Fe465 O482 1.997 . S
O466 Fe465 2.002 . S
O466 C483 1.295 . S
O467 Fe462 1.997 . S
O467 C483 1.235 . S
O468 Fe462 2.002 . S
O468 C469 1.295 . S
C469 O468 1.295 . S
C469 O471 1.235 . S
C470 O475 1.287 . S
C470 O476 1.255 . S
O471 Fe463 1.997 . S
O471 C469 1.235 . S
C472 O478 1.287 . S
C472 O479 1.255 . S
O473 Fe462 1.976 . S
O473 C480 1.287 . S
O474 Fe463 1.996 . S
O474 C480 1.255 . S
O475 Fe465 1.976 . S
O475 C470 1.287 . S
O476 Fe462 1.996 . S
O476 C470 1.255 . S
C477 O481 1.295 . S
C477 O482 1.235 . S
O478 Fe463 1.976 . S
O478 C472 1.287 . S
O479 Fe465 1.996 . S
O479 C472 1.255 . S
C480 O473 1.287 . S
C480 O474 1.255 . S
O481 Fe463 2.002 . S
O481 C477 1.295 . S
O482 Fe465 1.997 . S
O482 C477 1.235 . S
C483 O466 1.295 . S
C483 O467 1.235 . S
Fe484 O486 1.918 . S
Fe484 O489 1.997 . S
Fe484 O490 2.002 . S
Fe484 O495 1.976 . S
Fe484 O498 1.996 . S
Fe485 O486 1.918 . S
Fe485 O493 1.997 . S
Fe485 O496 1.996 . S
Fe485 O500 1.976 . S
Fe485 O503 2.002 . S
O486 Fe484 1.918 . S
O486 Fe485 1.918 . S
O486 Fe487 1.918 . S
Fe487 O486 1.918 . S
Fe487 O488 2.002 . S
Fe487 O497 1.976 . S
Fe487 O501 1.996 . S
Fe487 O504 1.997 . S
O488 Fe487 2.002 . S
O488 C505 1.295 . S
O489 Fe484 1.997 . S
O489 C505 1.235 . S
O490 Fe484 2.002 . S
O490 C491 1.295 . S
C491 O490 1.295 . S
C491 O493 1.235 . S
C492 O497 1.287 . S
C492 O498 1.255 . S
O493 Fe485 1.997 . S
O493 C491 1.235 . S
C494 O500 1.287 . S
C494 O501 1.255 . S
O495 Fe484 1.976 . S
O495 C502 1.287 . S
O496 Fe485 1.996 . S
O496 C502 1.255 . S
O497 Fe487 1.976 . S
O497 C492 1.287 . S
O498 Fe484 1.996 . S
O498 C492 1.255 . S
C499 O503 1.295 . S
C499 O504 1.235 . S
O500 Fe485 1.976 . S
O500 C494 1.287 . S
O501 Fe487 1.996 . S
O501 C494 1.255 . S
C502 O495 1.287 . S
C502 O496 1.255 . S
O503 Fe485 2.002 . S
O503 C499 1.295 . S
O504 Fe487 1.997 . S
O504 C499 1.235 . S
C505 O488 1.295 . S
C505 O489 1.235 . S
Fe506 O508 1.918 . S
Fe506 O511 1.997 . S
Fe506 O512 2.002 . S
Fe506 O517 1.976 . S
Fe506 O520 1.996 . S
Fe507 O508 1.918 . S
Fe507 O515 1.997 . S
Fe507 O518 1.996 . S
Fe507 O522 1.976 . S
Fe507 O525 2.002 . S
O508 Fe506 1.918 . S
O508 Fe507 1.918 . S
O508 Fe509 1.918 . S
Fe509 O508 1.918 . S
Fe509 O510 2.002 . S
Fe509 O519 1.976 . S
Fe509 O523 1.996 . S
Fe509 O526 1.997 . S
O510 Fe509 2.002 . S
O510 C527 1.295 . S
O511 Fe506 1.997 . S
O511 C527 1.235 . S
O512 Fe506 2.002 . S
O512 C513 1.295 . S
C513 O512 1.295 . S
C513 O515 1.235 . S
C514 O519 1.287 . S
C514 O520 1.255 . S
O515 Fe507 1.997 . S
O515 C513 1.235 . S
C516 O522 1.287 . S
C516 O523 1.255 . S
O517 Fe506 1.976 . S
O517 C524 1.287 . S
O518 Fe507 1.996 . S
O518 C524 1.255 . S
O519 Fe509 1.976 . S
O519 C514 1.287 . S
O520 Fe506 1.996 . S
O520 C514 1.255 . S
C521 O525 1.295 . S
C521 O526 1.235 . S
O522 Fe507 1.976 . S
O522 C516 1.287 . S
O523 Fe509 1.996 . S
O523 C516 1.255 . S
C524 O517 1.287 . S
C524 O518 1.255 . S
O525 Fe507 2.002 . S
O525 C521 1.295 . S
O526 Fe509 1.997 . S
O526 C521 1.235 . S
C527 O510 1.295 . S
C527 O511 1.235 . S
Fe528 O530 1.918 . S
Fe528 O533 1.997 . S
Fe528 O534 2.002 . S
Fe528 O539 1.976 . S
Fe528 O542 1.996 . S
Fe529 O530 1.918 . S
Fe529 O537 1.997 . S
Fe529 O540 1.996 . S
Fe529 O544 1.976 . S
Fe529 O547 2.002 . S
O530 Fe528 1.918 . S
O530 Fe529 1.918 . S
O530 Fe531 1.918 . S
Fe531 O530 1.918 . S
Fe531 O532 2.002 . S
Fe531 O541 1.976 . S
Fe531 O545 1.996 . S
Fe531 O548 1.997 . S
O532 Fe531 2.002 . S
O532 C549 1.295 . S
O533 Fe528 1.997 . S
O533 C549 1.235 . S
O534 Fe528 2.002 . S
O534 C535 1.295 . S
C535 O534 1.295 . S
C535 O537 1.235 . S
C536 O541 1.287 . S
C536 O542 1.255 . S
O537 Fe529 1.997 . S
O537 C535 1.235 . S
C538 O544 1.287 . S
C538 O545 1.255 . S
O539 Fe528 1.976 . S
O539 C546 1.287 . S
O540 Fe529 1.996 . S
O540 C546 1.255 . S
O541 Fe531 1.976 . S
O541 C536 1.287 . S
O542 Fe528 1.996 . S
O542 C536 1.255 . S
C543 O547 1.295 . S
C543 O548 1.235 . S
O544 Fe529 1.976 . S
O544 C538 1.287 . S
O545 Fe531 1.996 . S
O545 C538 1.255 . S
C546 O539 1.287 . S
C546 O540 1.255 . S
O547 Fe529 2.002 . S
O547 C543 1.295 . S
O548 Fe531 1.997 . S
O548 C543 1.235 . S
C549 O532 1.295 . S
C549 O533 1.235 . S
Fe550 O552 1.918 . S
Fe550 O555 1.997 . S
Fe550 O556 2.002 . S
Fe550 O561 1.976 . S
Fe550 O564 1.996 . S
Fe551 O552 1.918 . S
Fe551 O559 1.997 . S
Fe551 O562 1.996 . S
Fe551 O566 1.976 . S
Fe551 O569 2.002 . S
O552 Fe550 1.918 . S
O552 Fe551 1.918 . S
O552 Fe553 1.918 . S
Fe553 O552 1.918 . S
Fe553 O554 2.002 . S
Fe553 O563 1.976 . S
Fe553 O567 1.996 . S
Fe553 O570 1.997 . S
O554 Fe553 2.002 . S
O554 C571 1.295 . S
O555 Fe550 1.997 . S
O555 C571 1.235 . S
O556 Fe550 2.002 . S
O556 C557 1.295 . S
C557 O556 1.295 . S
C557 O559 1.235 . S
C558 O563 1.287 . S
C558 O564 1.255 . S
O559 Fe551 1.997 . S
O559 C557 1.235 . S
C560 O566 1.287 . S
C560 O567 1.255 . S
O561 Fe550 1.976 . S
O561 C568 1.287 . S
O562 Fe551 1.996 . S
O562 C568 1.255 . S
O563 Fe553 1.976 . S
O563 C558 1.287 . S
O564 Fe550 1.996 . S
O564 C558 1.255 . S
C565 O569 1.295 . S
C565 O570 1.235 . S
O566 Fe551 1.976 . S
O566 C560 1.287 . S
O567 Fe553 1.996 . S
O567 C560 1.255 . S
C568 O561 1.287 . S
C568 O562 1.255 . S
O569 Fe551 2.002 . S
O569 C565 1.295 . S
O570 Fe553 1.997 . S
O570 C565 1.235 . S
C571 O554 1.295 . S
C571 O555 1.235 . S
Fe572 O574 1.918 . S
Fe572 O577 1.997 . S
Fe572 O578 2.002 . S
Fe572 O583 1.976 . S
Fe572 O586 1.996 . S
Fe573 O574 1.918 . S
Fe573 O581 1.997 . S
Fe573 O584 1.996 . S
Fe573 O588 1.976 . S
Fe573 O591 2.002 . S
O574 Fe572 1.918 . S
O574 Fe573 1.918 . S
O574 Fe575 1.918 . S
Fe575 O574 1.918 . S
Fe575 O576 2.002 . S
Fe575 O585 1.976 . S
Fe575 O589 1.996 . S
Fe575 O592 1.997 . S
O576 Fe575 2.002 . S
O576 C593 1.295 . S
O577 Fe572 1.997 . S
O577 C593 1.235 . S
O578 Fe572 2.002 . S
O578 C579 1.295 . S
C579 O578 1.295 . S
C579 O581 1.235 . S
C580 O585 1.287 . S
C580 O586 1.255 . S
O581 Fe573 1.997 . S
O581 C579 1.235 . S
C582 O588 1.287 . S
C582 O589 1.255 . S
O583 Fe572 1.976 . S
O583 C590 1.287 . S
O584 Fe573 1.996 . S
O584 C590 1.255 . S
O585 Fe575 1.976 . S
O585 C580 1.287 . S
O586 Fe572 1.996 . S
O586 C580 1.255 . S
C587 O591 1.295 . S
C587 O592 1.235 . S
O588 Fe573 1.976 . S
O588 C582 1.287 . S
O589 Fe575 1.996 . S
O589 C582 1.255 . S
C590 O583 1.287 . S
C590 O584 1.255 . S
O591 Fe573 2.002 . S
O591 C587 1.295 . S
O592 Fe575 1.997 . S
O592 C587 1.235 . S
C593 O576 1.295 . S
C593 O577 1.235 . S
Fe594 O596 1.918 . S
Fe594 O599 1.997 . S
Fe594 O600 2.002 . S
Fe594 O605 1.976 . S
Fe594 O608 1.996 . S
Fe595 O596 1.918 . S
Fe595 O603 1.997 . S
Fe595 O606 1.996 . S
Fe595 O610 1.976 . S
Fe595 O613 2.002 . S
O596 Fe594 1.918 . S
O596 Fe595 1.918 . S
O596 Fe597 1.918 . S
Fe597 O596 1.918 . S
Fe597 O598 2.002 . S
Fe597 O607 1.976 . S
Fe597 O611 1.996 . S
Fe597 O614 1.997 . S
O598 Fe597 2.002 . S
O598 C615 1.295 . S
O599 Fe594 1.997 . S
O599 C615 1.235 . S
O600 Fe594 2.002 . S
O600 C601 1.295 . S
C601 O600 1.295 . S
C601 O603 1.235 . S
C602 O607 1.287 . S
C602 O608 1.255 . S
O603 Fe595 1.997 . S
O603 C601 1.235 . S
C604 O610 1.287 . S
C604 O611 1.255 . S
O605 Fe594 1.976 . S
O605 C612 1.287 . S
O606 Fe595 1.996 . S
O606 C612 1.255 . S
O607 Fe597 1.976 . S
O607 C602 1.287 . S
O608 Fe594 1.996 . S
O608 C602 1.255 . S
C609 O613 1.295 . S
C609 O614 1.235 . S
O610 Fe595 1.976 . S
O610 C604 1.287 . S
O611 Fe597 1.996 . S
O611 C604 1.255 . S
C612 O605 1.287 . S
C612 O606 1.255 . S
O613 Fe595 2.002 . S
O613 C609 1.295 . S
O614 Fe597 1.997 . S
O614 C609 1.235 . S
C615 O598 1.295 . S
C615 O599 1.235 . S
Fe616 O618 1.918 . S
Fe616 O621 1.997 . S
Fe616 O622 2.002 . S
Fe616 O627 1.976 . S
Fe616 O630 1.996 . S
Fe617 O618 1.918 . S
Fe617 O625 1.997 . S
Fe617 O628 1.996 . S
Fe617 O632 1.976 . S
Fe617 O635 2.002 . S
O618 Fe616 1.918 . S
O618 Fe617 1.918 . S
O618 Fe619 1.918 . S
Fe619 O618 1.918 . S
Fe619 O620 2.002 . S
Fe619 O629 1.976 . S
Fe619 O633 1.996 . S
Fe619 O636 1.997 . S
O620 Fe619 2.002 . S
O620 C637 1.295 . S
O621 Fe616 1.997 . S
O621 C637 1.235 . S
O622 Fe616 2.002 . S
O622 C623 1.295 . S
C623 O622 1.295 . S
C623 O625 1.235 . S
C624 O629 1.287 . S
C624 O630 1.255 . S
O625 Fe617 1.997 . S
O625 C623 1.235 . S
C626 O632 1.287 . S
C626 O633 1.255 . S
O627 Fe616 1.976 . S
O627 C634 1.287 . S
O628 Fe617 1.996 . S
O628 C634 1.255 . S
O629 Fe619 1.976 . S
O629 C624 1.287 . S
O630 Fe616 1.996 . S
O630 C624 1.255 . S
C631 O635 1.295 . S
C631 O636 1.235 . S
O632 Fe617 1.976 . S
O632 C626 1.287 . S
O633 Fe619 1.996 . S
O633 C626 1.255 . S
C634 O627 1.287 . S
C634 O628 1.255 . S
O635 Fe617 2.002 . S
O635 C631 1.295 . S
O636 Fe619 1.997 . S
O636 C631 1.235 . S
C637 O620 1.295 . S
C637 O621 1.235 . S
Fe638 O640 1.918 . S
Fe638 O643 1.997 . S
Fe638 O644 2.002 . S
Fe638 O649 1.976 . S
Fe638 O652 1.996 . S
Fe639 O640 1.918 . S
Fe639 O647 1.997 . S
Fe639 O650 1.996 . S
Fe639 O654 1.976 . S
Fe639 O657 2.002 . S
O640 Fe638 1.918 . S
O640 Fe639 1.918 . S
O640 Fe641 1.918 . S
Fe641 O640 1.918 . S
Fe641 O642 2.002 . S
Fe641 O651 1.976 . S
Fe641 O655 1.996 . S
Fe641 O658 1.997 . S
O642 Fe641 2.002 . S
O642 C659 1.295 . S
O643 Fe638 1.997 . S
O643 C659 1.235 . S
O644 Fe638 2.002 . S
O644 C645 1.295 . S
C645 O644 1.295 . S
C645 O647 1.235 . S
C646 O651 1.287 . S
C646 O652 1.255 . S
O647 Fe639 1.997 . S
O647 C645 1.235 . S
C648 O654 1.287 . S
C648 O655 1.255 . S
O649 Fe638 1.976 . S
O649 C656 1.287 . S
O650 Fe639 1.996 . S
O650 C656 1.255 . S
O651 Fe641 1.976 . S
O651 C646 1.287 . S
O652 Fe638 1.996 . S
O652 C646 1.255 . S
C653 O657 1.295 . S
C653 O658 1.235 . S
O654 Fe639 1.976 . S
O654 C648 1.287 . S
O655 Fe641 1.996 . S
O655 C648 1.255 . S
C656 O649 1.287 . S
C656 O650 1.255 . S
O657 Fe639 2.002 . S
O657 C653 1.295 . S
O658 Fe641 1.997 . S
O658 C653 1.235 . S
C659 O642 1.295 . S
C659 O643 1.235 . S
Fe660 O662 1.918 . S
Fe660 O665 1.997 . S
Fe660 O666 2.002 . S
Fe660 O671 1.976 . S
Fe660 O674 1.996 . S
Fe661 O662 1.918 . S
Fe661 O669 1.997 . S
Fe661 O672 1.996 . S
Fe661 O676 1.976 . S
Fe661 O679 2.002 . S
O662 Fe660 1.918 . S
O662 Fe661 1.918 . S
O662 Fe663 1.918 . S
Fe663 O662 1.918 . S
Fe663 O664 2.002 . S
Fe663 O673 1.976 . S
Fe663 O677 1.996 . S
Fe663 O680 1.997 . S
O664 Fe663 2.002 . S
O664 C681 1.295 . S
O665 Fe660 1.997 . S
O665 C681 1.235 . S
O666 Fe660 2.002 . S
O666 C667 1.295 . S
C667 O666 1.295 . S
C667 O669 1.235 . S
C668 O673 1.287 . S
C668 O674 1.255 . S
O669 Fe661 1.997 . S
O669 C667 1.235 . S
C670 O676 1.287 . S
C670 O677 1.255 . S
O671 Fe660 1.976 . S
O671 C678 1.287 . S
O672 Fe661 1.996 . S
O672 C678 1.255 . S
O673 Fe663 1.976 . S
O673 C668 1.287 . S
O674 Fe660 1.996 . S
O674 C668 1.255 . S
C675 O679 1.295 . S
C675 O680 1.235 . S
O676 Fe661 1.976 . S
O676 C670 1.287 . S
O677 Fe663 1.996 . S
O677 C670 1.255 . S
C678 O671 1.287 . S
C678 O672 1.255 . S
O679 Fe661 2.002 . S
O679 C675 1.295 . S
O680 Fe663 1.997 . S
O680 C675 1.235 . S
C681 O664 1.295 . S
C681 O665 1.235 . S
Fe682 O684 1.918 . S
Fe682 O687 1.997 . S
Fe682 O688 2.002 . S
Fe682 O693 1.976 . S
Fe682 O696 1.996 . S
Fe683 O684 1.918 . S
Fe683 O691 1.997 . S
Fe683 O694 1.996 . S
Fe683 O698 1.976 . S
Fe683 O701 2.002 . S
O684 Fe682 1.918 . S
O684 Fe683 1.918 . S
O684 Fe685 1.918 . S
Fe685 O684 1.918 . S
Fe685 O686 2.002 . S
Fe685 O695 1.976 . S
Fe685 O699 1.996 . S
Fe685 O702 1.997 . S
O686 Fe685 2.002 . S
O686 C703 1.295 . S
O687 Fe682 1.997 . S
O687 C703 1.235 . S
O688 Fe682 2.002 . S
O688 C689 1.295 . S
C689 O688 1.295 . S
C689 O691 1.235 . S
C690 O695 1.287 . S
C690 O696 1.255 . S
O691 Fe683 1.997 . S
O691 C689 1.235 . S
C692 O698 1.287 . S
C692 O699 1.255 . S
O693 Fe682 1.976 . S
O693 C700 1.287 . S
O694 Fe683 1.996 . S
O694 C700 1.255 . S
O695 Fe685 1.976 . S
O695 C690 1.287 . S
O696 Fe682 1.996 . S
O696 C690 1.255 . S
C697 O701 1.295 . S
C697 O702 1.235 . S
O698 Fe683 1.976 . S
O698 C692 1.287 . S
O699 Fe685 1.996 . S
O699 C692 1.255 . S
C700 O693 1.287 . S
C700 O694 1.255 . S
O701 Fe683 2.002 . S
O701 C697 1.295 . S
O702 Fe685 1.997 . S
O702 C697 1.235 . S
C703 O686 1.295 . S
C703 O687 1.235 . S
C704 C705 1.387 . S
C704 H708 0.950 . S
C704 C713 1.390 . S
C705 C704 1.387 . S
C705 C707 1.387 . S
H706 C713 0.950 . S
C707 C705 1.387 . S
C707 C709 1.390 . S
C707 H711 0.950 . S
H708 C704 0.950 . S
C709 C707 1.390 . S
C709 C710 1.387 . S
C709 H712 0.950 . S
C710 C709 1.387 . S
C710 C713 1.387 . S
H711 C707 0.950 . S
H712 C709 0.950 . S
C713 C704 1.390 . S
C713 H706 0.950 . S
C713 C710 1.387 . S
C714 C715 1.387 . S
C714 H718 0.950 . S
C714 C723 1.390 . S
C715 C714 1.387 . S
C715 C717 1.387 . S
H716 C723 0.950 . S
C717 C715 1.387 . S
C717 C719 1.390 . S
C717 H721 0.950 . S
H718 C714 0.950 . S
C719 C717 1.390 . S
C719 C720 1.387 . S
C719 H722 0.950 . S
C720 C719 1.387 . S
C720 C723 1.387 . S
H721 C717 0.950 . S
H722 C719 0.950 . S
C723 C714 1.390 . S
C723 H716 0.950 . S
C723 C720 1.387 . S
C724 C725 1.387 . S
C724 H728 0.950 . S
C724 C733 1.390 . S
C725 C724 1.387 . S
C725 C727 1.387 . S
H726 C733 0.950 . S
C727 C725 1.387 . S
C727 C729 1.390 . S
C727 H731 0.950 . S
H728 C724 0.950 . S
C729 C727 1.390 . S
C729 C730 1.387 . S
C729 H732 0.950 . S
C730 C729 1.387 . S
C730 C733 1.387 . S
H731 C727 0.950 . S
H732 C729 0.950 . S
C733 C724 1.390 . S
C733 H726 0.950 . S
C733 C730 1.387 . S
C734 C735 1.387 . S
C734 H738 0.950 . S
C734 C743 1.390 . S
C735 C734 1.387 . S
C735 C737 1.387 . S
H736 C743 0.950 . S
C737 C735 1.387 . S
C737 C739 1.390 . S
C737 H741 0.950 . S
H738 C734 0.950 . S
C739 C737 1.390 . S
C739 C740 1.387 . S
C739 H742 0.950 . S
C740 C739 1.387 . S
C740 C743 1.387 . S
H741 C737 0.950 . S
H742 C739 0.950 . S
C743 C734 1.390 . S
C743 H736 0.950 . S
C743 C740 1.387 . S
C744 C745 1.387 . S
C744 H748 0.950 . S
C744 C753 1.390 . S
C745 C744 1.387 . S
C745 C747 1.387 . S
H746 C753 0.950 . S
C747 C745 1.387 . S
C747 C749 1.390 . S
C747 H751 0.950 . S
H748 C744 0.950 . S
C749 C747 1.390 . S
C749 C750 1.387 . S
C749 H752 0.950 . S
C750 C749 1.387 . S
C750 C753 1.387 . S
H751 C747 0.950 . S
H752 C749 0.950 . S
C753 C744 1.390 . S
C753 H746 0.950 . S
C753 C750 1.387 . S
C754 C755 1.387 . S
C754 H758 0.950 . S
C754 C763 1.390 . S
C755 C754 1.387 . S
C755 C757 1.387 . S
H756 C763 0.950 . S
C757 C755 1.387 . S
C757 C759 1.390 . S
C757 H761 0.950 . S
H758 C754 0.950 . S
C759 C757 1.390 . S
C759 C760 1.387 . S
C759 H762 0.950 . S
C760 C759 1.387 . S
C760 C763 1.387 . S
H761 C757 0.950 . S
H762 C759 0.950 . S
C763 C754 1.390 . S
C763 H756 0.950 . S
C763 C760 1.387 . S
C764 C765 1.387 . S
C764 H768 0.950 . S
C764 C773 1.390 . S
C765 C764 1.387 . S
C765 C767 1.387 . S
H766 C773 0.950 . S
C767 C765 1.387 . S
C767 C769 1.390 . S
C767 H771 0.950 . S
H768 C764 0.950 . S
C769 C767 1.390 . S
C769 C770 1.387 . S
C769 H772 0.950 . S
C770 C769 1.387 . S
C770 C773 1.387 . S
H771 C767 0.950 . S
H772 C769 0.950 . S
C773 C764 1.390 . S
C773 H766 0.950 . S
C773 C770 1.387 . S
C774 C775 1.387 . S
C774 H778 0.950 . S
C774 C783 1.390 . S
C775 C774 1.387 . S
C775 C777 1.387 . S
H776 C783 0.950 . S
C777 C775 1.387 . S
C777 C779 1.390 . S
C777 H781 0.950 . S
H778 C774 0.950 . S
C779 C777 1.390 . S
C779 C780 1.387 . S
C779 H782 0.950 . S
C780 C779 1.387 . S
C780 C783 1.387 . S
H781 C777 0.950 . S
H782 C779 0.950 . S
C783 C774 1.390 . S
C783 H776 0.950 . S
C783 C780 1.387 . S
C784 C785 1.387 . S
C784 H788 0.950 . S
C784 C793 1.390 . S
C785 C784 1.387 . S
C785 C787 1.387 . S
H786 C793 0.950 . S
C787 C785 1.387 . S
C787 C789 1.390 . S
C787 H791 0.950 . S
H788 C784 0.950 . S
C789 C787 1.390 . S
C789 C790 1.387 . S
C789 H792 0.950 . S
C790 C789 1.387 . S
C790 C793 1.387 . S
H791 C787 0.950 . S
H792 C789 0.950 . S
C793 C784 1.390 . S
C793 H786 0.950 . S
C793 C790 1.387 . S
C794 C795 1.387 . S
C794 H798 0.950 . S
C794 C803 1.390 . S
C795 C794 1.387 . S
C795 C797 1.387 . S
H796 C803 0.950 . S
C797 C795 1.387 . S
C797 C799 1.390 . S
C797 H801 0.950 . S
H798 C794 0.950 . S
C799 C797 1.390 . S
C799 C800 1.387 . S
C799 H802 0.950 . S
C800 C799 1.387 . S
C800 C803 1.387 . S
H801 C797 0.950 . S
H802 C799 0.950 . S
C803 C794 1.390 . S
C803 H796 0.950 . S
C803 C800 1.387 . S
C804 C805 1.387 . S
C804 H808 0.950 . S
C804 C813 1.390 . S
C805 C804 1.387 . S
C805 C807 1.387 . S
H806 C813 0.950 . S
C807 C805 1.387 . S
C807 C809 1.390 . S
C807 H811 0.950 . S
H808 C804 0.950 . S
C809 C807 1.390 . S
C809 C810 1.387 . S
C809 H812 0.950 . S
C810 C809 1.387 . S
C810 C813 1.387 . S
H811 C807 0.950 . S
H812 C809 0.950 . S
C813 C804 1.390 . S
C813 H806 0.950 . S
C813 C810 1.387 . S
C814 C815 1.387 . S
C814 H818 0.950 . S
C814 C823 1.390 . S
C815 C814 1.387 . S
C815 C817 1.387 . S
H816 C823 0.950 . S
C817 C815 1.387 . S
C817 C819 1.390 . S
C817 H821 0.950 . S
H818 C814 0.950 . S
C819 C817 1.390 . S
C819 C820 1.387 . S
C819 H822 0.950 . S
C820 C819 1.387 . S
C820 C823 1.387 . S
H821 C817 0.950 . S
H822 C819 0.950 . S
C823 C814 1.390 . S
C823 H816 0.950 . S
C823 C820 1.387 . S
C824 C825 1.387 . S
C824 H828 0.950 . S
C824 C833 1.390 . S
C825 C824 1.387 . S
C825 C827 1.387 . S
H826 C833 0.950 . S
C827 C825 1.387 . S
C827 C829 1.390 . S
C827 H831 0.950 . S
H828 C824 0.950 . S
C829 C827 1.390 . S
C829 C830 1.387 . S
C829 H832 0.950 . S
C830 C829 1.387 . S
C830 C833 1.387 . S
H831 C827 0.950 . S
H832 C829 0.950 . S
C833 C824 1.390 . S
C833 H826 0.950 . S
C833 C830 1.387 . S
C834 C835 1.387 . S
C834 H838 0.950 . S
C834 C843 1.390 . S
C835 C834 1.387 . S
C835 C837 1.387 . S
H836 C843 0.950 . S
C837 C835 1.387 . S
C837 C839 1.390 . S
C837 H841 0.950 . S
H838 C834 0.950 . S
C839 C837 1.390 . S
C839 C840 1.387 . S
C839 H842 0.950 . S
C840 C839 1.387 . S
C840 C843 1.387 . S
H841 C837 0.950 . S
H842 C839 0.950 . S
C843 C834 1.390 . S
C843 H836 0.950 . S
C843 C840 1.387 . S
C844 C845 1.387 . S
C844 H848 0.950 . S
C844 C853 1.390 . S
C845 C844 1.387 . S
C845 C847 1.387 . S
H846 C853 0.950 . S
C847 C845 1.387 . S
C847 C849 1.390 . S
C847 H851 0.950 . S
H848 C844 0.950 . S
C849 C847 1.390 . S
C849 C850 1.387 . S
C849 H852 0.950 . S
C850 C849 1.387 . S
C850 C853 1.387 . S
H851 C847 0.950 . S
H852 C849 0.950 . S
C853 C844 1.390 . S
C853 H846 0.950 . S
C853 C850 1.387 . S
C854 C855 1.387 . S
C854 H858 0.950 . S
C854 C863 1.390 . S
C855 C854 1.387 . S
C855 C857 1.387 . S
H856 C863 0.950 . S
C857 C855 1.387 . S
C857 C859 1.390 . S
C857 H861 0.950 . S
H858 C854 0.950 . S
C859 C857 1.390 . S
C859 C860 1.387 . S
C859 H862 0.950 . S
C860 C859 1.387 . S
C860 C863 1.387 . S
H861 C857 0.950 . S
H862 C859 0.950 . S
C863 C854 1.390 . S
C863 H856 0.950 . S
C863 C860 1.387 . S
C864 C865 1.387 . S
C864 H868 0.950 . S
C864 C873 1.390 . S
C865 C864 1.387 . S
C865 C867 1.387 . S
H866 C873 0.950 . S
C867 C865 1.387 . S
C867 C869 1.390 . S
C867 H871 0.950 . S
H868 C864 0.950 . S
C869 C867 1.390 . S
C869 C870 1.387 . S
C869 H872 0.950 . S
C870 C869 1.387 . S
C870 C873 1.387 . S
H871 C867 0.950 . S
H872 C869 0.950 . S
C873 C864 1.390 . S
C873 H866 0.950 . S
C873 C870 1.387 . S
C874 C875 1.387 . S
C874 H878 0.950 . S
C874 C883 1.390 . S
C875 C874 1.387 . S
C875 C877 1.387 . S
H876 C883 0.950 . S
C877 C875 1.387 . S
C877 C879 1.390 . S
C877 H881 0.950 . S
H878 C874 0.950 . S
C879 C877 1.390 . S
C879 C880 1.387 . S
C879 H882 0.950 . S
C880 C879 1.387 . S
C880 C883 1.387 . S
H881 C877 0.950 . S
H882 C879 0.950 . S
C883 C874 1.390 . S
C883 H876 0.950 . S
C883 C880 1.387 . S
C884 C885 1.387 . S
C884 H888 0.950 . S
C884 C893 1.390 . S
C885 C884 1.387 . S
C885 C887 1.387 . S
H886 C893 0.950 . S
C887 C885 1.387 . S
C887 C889 1.390 . S
C887 H891 0.950 . S
H888 C884 0.950 . S
C889 C887 1.390 . S
C889 C890 1.387 . S
C889 H892 0.950 . S
C890 C889 1.387 . S
C890 C893 1.387 . S
H891 C887 0.950 . S
H892 C889 0.950 . S
C893 C884 1.390 . S
C893 H886 0.950 . S
C893 C890 1.387 . S
C894 C895 1.387 . S
C894 H898 0.950 . S
C894 C903 1.390 . S
C895 C894 1.387 . S
C895 C897 1.387 . S
H896 C903 0.950 . S
C897 C895 1.387 . S
C897 C899 1.390 . S
C897 H901 0.950 . S
H898 C894 0.950 . S
C899 C897 1.390 . S
C899 C900 1.387 . S
C899 H902 0.950 . S
C900 C899 1.387 . S
C900 C903 1.387 . S
H901 C897 0.950 . S
H902 C899 0.950 . S
C903 C894 1.390 . S
C903 H896 0.950 . S
C903 C900 1.387 . S
C904 C905 1.387 . S
C904 H908 0.950 . S
C904 C913 1.390 . S
C905 C904 1.387 . S
C905 C907 1.387 . S
H906 C913 0.950 . S
C907 C905 1.387 . S
C907 C909 1.390 . S
C907 H911 0.950 . S
H908 C904 0.950 . S
C909 C907 1.390 . S
C909 C910 1.387 . S
C909 H912 0.950 . S
C910 C909 1.387 . S
C910 C913 1.387 . S
H911 C907 0.950 . S
H912 C909 0.950 . S
C913 C904 1.390 . S
C913 H906 0.950 . S
C913 C910 1.387 . S
C914 C915 1.387 . S
C914 H918 0.950 . S
C914 C923 1.390 . S
C915 C914 1.387 . S
C915 C917 1.387 . S
H916 C923 0.950 . S
C917 C915 1.387 . S
C917 C919 1.390 . S
C917 H921 0.950 . S
H918 C914 0.950 . S
C919 C917 1.390 . S
C919 C920 1.387 . S
C919 H922 0.950 . S
C920 C919 1.387 . S
C920 C923 1.387 . S
H921 C917 0.950 . S
H922 C919 0.950 . S
C923 C914 1.390 . S
C923 H916 0.950 . S
C923 C920 1.387 . S
C924 C925 1.387 . S
C924 H928 0.950 . S
C924 C933 1.390 . S
C925 C924 1.387 . S
C925 C927 1.387 . S
H926 C933 0.950 . S
C927 C925 1.387 . S
C927 C929 1.390 . S
C927 H931 0.950 . S
H928 C924 0.950 . S
C929 C927 1.390 . S
C929 C930 1.387 . S
C929 H932 0.950 . S
C930 C929 1.387 . S
C930 C933 1.387 . S
H931 C927 0.950 . S
H932 C929 0.950 . S
C933 C924 1.390 . S
C933 H926 0.950 . S
C933 C930 1.387 . S
C934 C935 1.387 . S
C934 H938 0.950 . S
C934 C943 1.390 . S
C935 C934 1.387 . S
C935 C937 1.387 . S
H936 C943 0.950 . S
C937 C935 1.387 . S
C937 C939 1.390 . S
C937 H941 0.950 . S
H938 C934 0.950 . S
C939 C937 1.390 . S
C939 C940 1.387 . S
C939 H942 0.950 . S
C940 C939 1.387 . S
C940 C943 1.387 . S
H941 C937 0.950 . S
H942 C939 0.950 . S
C943 C934 1.390 . S
C943 H936 0.950 . S
C943 C940 1.387 . S
C944 C945 1.387 . S
C944 H948 0.950 . S
C944 C953 1.390 . S
C945 C944 1.387 . S
C945 C947 1.387 . S
H946 C953 0.950 . S
C947 C945 1.387 . S
C947 C949 1.390 . S
C947 H951 0.950 . S
H948 C944 0.950 . S
C949 C947 1.390 . S
C949 C950 1.387 . S
C949 H952 0.950 . S
C950 C949 1.387 . S
C950 C953 1.387 . S
H951 C947 0.950 . S
H952 C949 0.950 . S
C953 C944 1.390 . S
C953 H946 0.950 . S
C953 C950 1.387 . S
C954 C955 1.387 . S
C954 H958 0.950 . S
C954 C963 1.390 . S
C955 C954 1.387 . S
C955 C957 1.387 . S
H956 C963 0.950 . S
C957 C955 1.387 . S
C957 C959 1.390 . S
C957 H961 0.950 . S
H958 C954 0.950 . S
C959 C957 1.390 . S
C959 C960 1.387 . S
C959 H962 0.950 . S
C960 C959 1.387 . S
C960 C963 1.387 . S
H961 C957 0.950 . S
H962 C959 0.950 . S
C963 C954 1.390 . S
C963 H956 0.950 . S
C963 C960 1.387 . S
C964 C965 1.387 . S
C964 H968 0.950 . S
C964 C973 1.390 . S
C965 C964 1.387 . S
C965 C967 1.387 . S
H966 C973 0.950 . S
C967 C965 1.387 . S
C967 C969 1.390 . S
C967 H971 0.950 . S
H968 C964 0.950 . S
C969 C967 1.390 . S
C969 C970 1.387 . S
C969 H972 0.950 . S
C970 C969 1.387 . S
C970 C973 1.387 . S
H971 C967 0.950 . S
H972 C969 0.950 . S
C973 C964 1.390 . S
C973 H966 0.950 . S
C973 C970 1.387 . S
C974 C975 1.387 . S
C974 H978 0.950 . S
C974 C983 1.390 . S
C975 C974 1.387 . S
C975 C977 1.387 . S
H976 C983 0.950 . S
C977 C975 1.387 . S
C977 C979 1.390 . S
C977 H981 0.950 . S
H978 C974 0.950 . S
C979 C977 1.390 . S
C979 C980 1.387 . S
C979 H982 0.950 . S
C980 C979 1.387 . S
C980 C983 1.387 . S
H981 C977 0.950 . S
H982 C979 0.950 . S
C983 C974 1.390 . S
C983 H976 0.950 . S
C983 C980 1.387 . S
C984 C985 1.387 . S
C984 H988 0.950 . S
C984 C993 1.390 . S
C985 C984 1.387 . S
C985 C987 1.387 . S
H986 C993 0.950 . S
C987 C985 1.387 . S
C987 C989 1.390 . S
C987 H991 0.950 . S
H988 C984 0.950 . S
C989 C987 1.390 . S
C989 C990 1.387 . S
C989 H992 0.950 . S
C990 C989 1.387 . S
C990 C993 1.387 . S
H991 C987 0.950 . S
H992 C989 0.950 . S
C993 C984 1.390 . S
C993 H986 0.950 . S
C993 C990 1.387 . S
C994 C995 1.387 . S
C994 H998 0.950 . S
C994 C1003 1.390 . S
C995 C994 1.387 . S
C995 C997 1.387 . S
H996 C1003 0.950 . S
C997 C995 1.387 . S
C997 C999 1.390 . S
C997 H1001 0.950 . S
H998 C994 0.950 . S
C999 C997 1.390 . S
C999 C1000 1.387 . S
C999 H1002 0.950 . S
C1000 C999 1.387 . S
C1000 C1003 1.387 . S
H1001 C997 0.950 . S
H1002 C999 0.950 . S
C1003 C994 1.390 . S
C1003 H996 0.950 . S
C1003 C1000 1.387 . S
C1004 C1005 1.387 . S
C1004 H1008 0.950 . S
C1004 C1013 1.390 . S
C1005 C1004 1.387 . S
C1005 C1007 1.387 . S
H1006 C1013 0.950 . S
C1007 C1005 1.387 . S
C1007 C1009 1.390 . S
C1007 H1011 0.950 . S
H1008 C1004 0.950 . S
C1009 C1007 1.390 . S
C1009 C1010 1.387 . S
C1009 H1012 0.950 . S
C1010 C1009 1.387 . S
C1010 C1013 1.387 . S
H1011 C1007 0.950 . S
H1012 C1009 0.950 . S
C1013 C1004 1.390 . S
C1013 H1006 0.950 . S
C1013 C1010 1.387 . S
C1014 C1015 1.387 . S
C1014 H1018 0.950 . S
C1014 C1023 1.390 . S
C1015 C1014 1.387 . S
C1015 C1017 1.387 . S
H1016 C1023 0.950 . S
C1017 C1015 1.387 . S
C1017 C1019 1.390 . S
C1017 H1021 0.950 . S
H1018 C1014 0.950 . S
C1019 C1017 1.390 . S
C1019 C1020 1.387 . S
C1019 H1022 0.950 . S
C1020 C1019 1.387 . S
C1020 C1023 1.387 . S
H1021 C1017 0.950 . S
H1022 C1019 0.950 . S
C1023 C1014 1.390 . S
C1023 H1016 0.950 . S
C1023 C1020 1.387 . S
C1024 C1025 1.387 . S
C1024 H1028 0.950 . S
C1024 C1033 1.390 . S
C1025 C1024 1.387 . S
C1025 C1027 1.387 . S
H1026 C1033 0.950 . S
C1027 C1025 1.387 . S
C1027 C1029 1.390 . S
C1027 H1031 0.950 . S
H1028 C1024 0.950 . S
C1029 C1027 1.390 . S
C1029 C1030 1.387 . S
C1029 H1032 0.950 . S
C1030 C1029 1.387 . S
C1030 C1033 1.387 . S
H1031 C1027 0.950 . S
H1032 C1029 0.950 . S
C1033 C1024 1.390 . S
C1033 H1026 0.950 . S
C1033 C1030 1.387 . S
C1034 C1035 1.387 . S
C1034 H1038 0.950 . S
C1034 C1043 1.390 . S
C1035 C1034 1.387 . S
C1035 C1037 1.387 . S
H1036 C1043 0.950 . S
C1037 C1035 1.387 . S
C1037 C1039 1.390 . S
C1037 H1041 0.950 . S
H1038 C1034 0.950 . S
C1039 C1037 1.390 . S
C1039 C1040 1.387 . S
C1039 H1042 0.950 . S
C1040 C1039 1.387 . S
C1040 C1043 1.387 . S
H1041 C1037 0.950 . S
H1042 C1039 0.950 . S
C1043 C1034 1.390 . S
C1043 H1036 0.950 . S
C1043 C1040 1.387 . S
C1044 C1045 1.387 . S
C1044 H1048 0.950 . S
C1044 C1053 1.390 . S
C1045 C1044 1.387 . S
C1045 C1047 1.387 . S
H1046 C1053 0.950 . S
C1047 C1045 1.387 . S
C1047 C1049 1.390 . S
C1047 H1051 0.950 . S
H1048 C1044 0.950 . S
C1049 C1047 1.390 . S
C1049 C1050 1.387 . S
C1049 H1052 0.950 . S
C1050 C1049 1.387 . S
C1050 C1053 1.387 . S
H1051 C1047 0.950 . S
H1052 C1049 0.950 . S
C1053 C1044 1.390 . S
C1053 H1046 0.950 . S
C1053 C1050 1.387 . S
C1054 C1055 1.387 . S
C1054 H1058 0.950 . S
C1054 C1063 1.390 . S
C1055 C1054 1.387 . S
C1055 C1057 1.387 . S
H1056 C1063 0.950 . S
C1057 C1055 1.387 . S
C1057 C1059 1.390 . S
C1057 H1061 0.950 . S
H1058 C1054 0.950 . S
C1059 C1057 1.390 . S
C1059 C1060 1.387 . S
C1059 H1062 0.950 . S
C1060 C1059 1.387 . S
C1060 C1063 1.387 . S
H1061 C1057 0.950 . S
H1062 C1059 0.950 . S
C1063 C1054 1.390 . S
C1063 H1056 0.950 . S
C1063 C1060 1.387 . S
C1064 C1065 1.387 . S
C1064 H1068 0.950 . S
C1064 C1073 1.390 . S
C1065 C1064 1.387 . S
C1065 C1067 1.387 . S
H1066 C1073 0.950 . S
C1067 C1065 1.387 . S
C1067 C1069 1.390 . S
C1067 H1071 0.950 . S
H1068 C1064 0.950 . S
C1069 C1067 1.390 . S
C1069 C1070 1.387 . S
C1069 H1072 0.950 . S
C1070 C1069 1.387 . S
C1070 C1073 1.387 . S
H1071 C1067 0.950 . S
H1072 C1069 0.950 . S
C1073 C1064 1.390 . S
C1073 H1066 0.950 . S
C1073 C1070 1.387 . S
C1074 C1075 1.387 . S
C1074 H1078 0.950 . S
C1074 C1083 1.390 . S
C1075 C1074 1.387 . S
C1075 C1077 1.387 . S
H1076 C1083 0.950 . S
C1077 C1075 1.387 . S
C1077 C1079 1.390 . S
C1077 H1081 0.950 . S
H1078 C1074 0.950 . S
C1079 C1077 1.390 . S
C1079 C1080 1.387 . S
C1079 H1082 0.950 . S
C1080 C1079 1.387 . S
C1080 C1083 1.387 . S
H1081 C1077 0.950 . S
H1082 C1079 0.950 . S
C1083 C1074 1.390 . S
C1083 H1076 0.950 . S
C1083 C1080 1.387 . S
C1084 C1085 1.387 . S
C1084 H1088 0.950 . S
C1084 C1093 1.390 . S
C1085 C1084 1.387 . S
C1085 C1087 1.387 . S
H1086 C1093 0.950 . S
C1087 C1085 1.387 . S
C1087 C1089 1.390 . S
C1087 H1091 0.950 . S
H1088 C1084 0.950 . S
C1089 C1087 1.390 . S
C1089 C1090 1.387 . S
C1089 H1092 0.950 . S
C1090 C1089 1.387 . S
C1090 C1093 1.387 . S
H1091 C1087 0.950 . S
H1092 C1089 0.950 . S
C1093 C1084 1.390 . S
C1093 H1086 0.950 . S
C1093 C1090 1.387 . S
C1094 C1095 1.387 . S
C1094 H1098 0.950 . S
C1094 C1103 1.390 . S
C1095 C1094 1.387 . S
C1095 C1097 1.387 . S
H1096 C1103 0.950 . S
C1097 C1095 1.387 . S
C1097 C1099 1.390 . S
C1097 H1101 0.950 . S
H1098 C1094 0.950 . S
C1099 C1097 1.390 . S
C1099 C1100 1.387 . S
C1099 H1102 0.950 . S
C1100 C1099 1.387 . S
C1100 C1103 1.387 . S
H1101 C1097 0.950 . S
H1102 C1099 0.950 . S
C1103 C1094 1.390 . S
C1103 H1096 0.950 . S
C1103 C1100 1.387 . S
C1104 C1105 1.387 . S
C1104 H1108 0.950 . S
C1104 C1113 1.390 . S
C1105 C1104 1.387 . S
C1105 C1107 1.387 . S
H1106 C1113 0.950 . S
C1107 C1105 1.387 . S
C1107 C1109 1.390 . S
C1107 H1111 0.950 . S
H1108 C1104 0.950 . S
C1109 C1107 1.390 . S
C1109 C1110 1.387 . S
C1109 H1112 0.950 . S
C1110 C1109 1.387 . S
C1110 C1113 1.387 . S
H1111 C1107 0.950 . S
H1112 C1109 0.950 . S
C1113 C1104 1.390 . S
C1113 H1106 0.950 . S
C1113 C1110 1.387 . S
C1114 C1115 1.387 . S
C1114 H1118 0.950 . S
C1114 C1123 1.390 . S
C1115 C1114 1.387 . S
C1115 C1117 1.387 . S
H1116 C1123 0.950 . S
C1117 C1115 1.387 . S
C1117 C1119 1.390 . S
C1117 H1121 0.950 . S
H1118 C1114 0.950 . S
C1119 C1117 1.390 . S
C1119 C1120 1.387 . S
C1119 H1122 0.950 . S
C1120 C1119 1.387 . S
C1120 C1123 1.387 . S
H1121 C1117 0.950 . S
H1122 C1119 0.950 . S
C1123 C1114 1.390 . S
C1123 H1116 0.950 . S
C1123 C1120 1.387 . S
C1124 C1125 1.387 . S
C1124 H1128 0.950 . S
C1124 C1133 1.390 . S
C1125 C1124 1.387 . S
C1125 C1127 1.387 . S
H1126 C1133 0.950 . S
C1127 C1125 1.387 . S
C1127 C1129 1.390 . S
C1127 H1131 0.950 . S
H1128 C1124 0.950 . S
C1129 C1127 1.390 . S
C1129 C1130 1.387 . S
C1129 H1132 0.950 . S
C1130 C1129 1.387 . S
C1130 C1133 1.387 . S
H1131 C1127 0.950 . S
H1132 C1129 0.950 . S
C1133 C1124 1.390 . S
C1133 H1126 0.950 . S
C1133 C1130 1.387 . S
C1134 C1135 1.387 . S
C1134 H1138 0.950 . S
C1134 C1143 1.390 . S
C1135 C1134 1.387 . S
C1135 C1137 1.387 . S
H1136 C1143 0.950 . S
C1137 C1135 1.387 . S
C1137 C1139 1.390 . S
C1137 H1141 0.950 . S
H1138 C1134 0.950 . S
C1139 C1137 1.390 . S
C1139 C1140 1.387 . S
C1139 H1142 0.950 . S
C1140 C1139 1.387 . S
C1140 C1143 1.387 . S
H1141 C1137 0.950 . S
H1142 C1139 0.950 . S
C1143 C1134 1.390 . S
C1143 H1136 0.950 . S
C1143 C1140 1.387 . S
C1144 C1145 1.387 . S
C1144 H1148 0.950 . S
C1144 C1153 1.390 . S
C1145 C1144 1.387 . S
C1145 C1147 1.387 . S
H1146 C1153 0.950 . S
C1147 C1145 1.387 . S
C1147 C1149 1.390 . S
C1147 H1151 0.950 . S
H1148 C1144 0.950 . S
C1149 C1147 1.390 . S
C1149 C1150 1.387 . S
C1149 H1152 0.950 . S
C1150 C1149 1.387 . S
C1150 C1153 1.387 . S
H1151 C1147 0.950 . S
H1152 C1149 0.950 . S
C1153 C1144 1.390 . S
C1153 H1146 0.950 . S
C1153 C1150 1.387 . S
C1154 C1155 1.387 . S
C1154 H1158 0.950 . S
C1154 C1163 1.390 . S
C1155 C1154 1.387 . S
C1155 C1157 1.387 . S
H1156 C1163 0.950 . S
C1157 C1155 1.387 . S
C1157 C1159 1.390 . S
C1157 H1161 0.950 . S
H1158 C1154 0.950 . S
C1159 C1157 1.390 . S
C1159 C1160 1.387 . S
C1159 H1162 0.950 . S
C1160 C1159 1.387 . S
C1160 C1163 1.387 . S
H1161 C1157 0.950 . S
H1162 C1159 0.950 . S
C1163 C1154 1.390 . S
C1163 H1156 0.950 . S
C1163 C1160 1.387 . S
C1164 C1165 1.387 . S
C1164 H1168 0.950 . S
C1164 C1173 1.390 . S
C1165 C1164 1.387 . S
C1165 C1167 1.387 . S
H1166 C1173 0.950 . S
C1167 C1165 1.387 . S
C1167 C1169 1.390 . S
C1167 H1171 0.950 . S
H1168 C1164 0.950 . S
C1169 C1167 1.390 . S
C1169 C1170 1.387 . S
C1169 H1172 0.950 . S
C1170 C1169 1.387 . S
C1170 C1173 1.387 . S
H1171 C1167 0.950 . S
H1172 C1169 0.950 . S
C1173 C1164 1.390 . S
C1173 H1166 0.950 . S
C1173 C1170 1.387 . S
C1174 C1175 1.387 . S
C1174 H1178 0.950 . S
C1174 C1183 1.390 . S
C1175 C1174 1.387 . S
C1175 C1177 1.387 . S
H1176 C1183 0.950 . S
C1177 C1175 1.387 . S
C1177 C1179 1.390 . S
C1177 H1181 0.950 . S
H1178 C1174 0.950 . S
C1179 C1177 1.390 . S
C1179 C1180 1.387 . S
C1179 H1182 0.950 . S
C1180 C1179 1.387 . S
C1180 C1183 1.387 . S
H1181 C1177 0.950 . S
H1182 C1179 0.950 . S
C1183 C1174 1.390 . S
C1183 H1176 0.950 . S
C1183 C1180 1.387 . S
C1184 C1185 1.387 . S
C1184 H1188 0.950 . S
C1184 C1193 1.390 1_565 S
C1185 C1184 1.387 . S
C1185 C1187 1.387 . S
H1186 C1193 0.950 . S
C1187 C1185 1.387 . S
C1187 C1189 1.390 1_565 S
C1187 H1191 0.950 . S
H1188 C1184 0.950 . S
C1189 C1187 1.390 1_545 S
C1189 C1190 1.387 . S
C1189 H1192 0.950 . S
C1190 C1189 1.387 . S
C1190 C1193 1.387 . S
H1191 C1187 0.950 . S
H1192 C1189 0.950 . S
C1193 C1184 1.390 1_545 S
C1193 H1186 0.950 . S
C1193 C1190 1.387 . S
C1194 C1195 1.387 . S
C1194 H1198 0.950 . S
C1194 C1203 1.390 1_655 S
C1195 C1194 1.387 . S
C1195 C1197 1.387 . S
H1196 C1203 0.950 . S
C1197 C1195 1.387 . S
C1197 C1199 1.390 1_655 S
C1197 H1201 0.950 . S
H1198 C1194 0.950 . S
C1199 C1197 1.390 1_455 S
C1199 C1200 1.387 . S
C1199 H1202 0.950 . S
C1200 C1199 1.387 . S
C1200 C1203 1.387 . S
H1201 C1197 0.950 . S
H1202 C1199 0.950 . S
C1203 C1194 1.390 1_455 S
C1203 H1196 0.950 . S
C1203 C1200 1.387 . S
C1204 C1205 1.387 . S
C1204 H1208 0.950 . S
C1204 C1213 1.390 1_545 S
C1205 C1204 1.387 . S
C1205 C1207 1.387 . S
H1206 C1213 0.950 . S
C1207 C1205 1.387 . S
C1207 C1209 1.390 1_545 S
C1207 H1211 0.950 . S
H1208 C1204 0.950 . S
C1209 C1207 1.390 1_565 S
C1209 C1210 1.387 . S
C1209 H1212 0.950 . S
C1210 C1209 1.387 . S
C1210 C1213 1.387 . S
H1211 C1207 0.950 . S
H1212 C1209 0.950 . S
C1213 C1204 1.390 1_565 S
C1213 H1206 0.950 . S
C1213 C1210 1.387 . S
C1214 C1215 1.387 . S
C1214 H1218 0.950 . S
C1214 C1223 1.390 1_655 S
C1215 C1214 1.387 . S
C1215 C1217 1.387 . S
H1216 C1223 0.950 . S
C1217 C1215 1.387 . S
C1217 C1219 1.390 1_655 S
C1217 H1221 0.950 . S
H1218 C1214 0.950 . S
C1219 C1217 1.390 1_455 S
C1219 C1220 1.387 . S
C1219 H1222 0.950 . S
C1220 C1219 1.387 . S
C1220 C1223 1.387 . S
H1221 C1217 0.950 . S
H1222 C1219 0.950 . S
C1223 C1214 1.390 1_455 S
C1223 H1216 0.950 . S
C1223 C1220 1.387 . S
C1224 C1225 1.387 . S
C1224 H1228 0.950 . S
C1224 C1233 1.390 1_545 S
C1225 C1224 1.387 . S
C1225 C1227 1.387 . S
H1226 C1233 0.950 . S
C1227 C1225 1.387 . S
C1227 C1229 1.390 1_545 S
C1227 H1231 0.950 . S
H1228 C1224 0.950 . S
C1229 C1227 1.390 1_565 S
C1229 C1230 1.387 . S
C1229 H1232 0.950 . S
C1230 C1229 1.387 . S
C1230 C1233 1.387 . S
H1231 C1227 0.950 . S
H1232 C1229 0.950 . S
C1233 C1224 1.390 1_565 S
C1233 H1226 0.950 . S
C1233 C1230 1.387 . S
C1234 C1235 1.387 . S
C1234 H1238 0.950 . S
C1234 C1243 1.390 1_655 S
C1235 C1234 1.387 . S
C1235 C1237 1.387 . S
H1236 C1243 0.950 . S
C1237 C1235 1.387 . S
C1237 C1239 1.390 1_655 S
C1237 H1241 0.950 . S
H1238 C1234 0.950 . S
C1239 C1237 1.390 1_455 S
C1239 C1240 1.387 . S
C1239 H1242 0.950 . S
C1240 C1239 1.387 . S
C1240 C1243 1.387 . S
H1241 C1237 0.950 . S
H1242 C1239 0.950 . S
C1243 C1234 1.390 1_455 S
C1243 H1236 0.950 . S
C1243 C1240 1.387 . S
C1244 C1245 1.387 . S
C1244 H1248 0.950 . S
C1244 C1253 1.390 1_545 S
C1245 C1244 1.387 . S
C1245 C1247 1.387 . S
H1246 C1253 0.950 . S
C1247 C1245 1.387 . S
C1247 C1249 1.390 1_545 S
C1247 H1251 0.950 . S
H1248 C1244 0.950 . S
C1249 C1247 1.390 1_565 S
C1249 C1250 1.387 . S
C1249 H1252 0.950 . S
C1250 C1249 1.387 . S
C1250 C1253 1.387 . S
H1251 C1247 0.950 . S
H1252 C1249 0.950 . S
C1253 C1244 1.390 1_565 S
C1253 H1246 0.950 . S
C1253 C1250 1.387 . S
C1254 C1255 1.387 . S
C1254 H1258 0.950 . S
C1254 C1263 1.390 1_655 S
C1255 C1254 1.387 . S
C1255 C1257 1.387 . S
H1256 C1263 0.950 . S
C1257 C1255 1.387 . S
C1257 C1259 1.390 1_655 S
C1257 H1261 0.950 . S
H1258 C1254 0.950 . S
C1259 C1257 1.390 1_455 S
C1259 C1260 1.387 . S
C1259 H1262 0.950 . S
C1260 C1259 1.387 . S
C1260 C1263 1.387 . S
H1261 C1257 0.950 . S
H1262 C1259 0.950 . S
C1263 C1254 1.390 1_455 S
C1263 H1256 0.950 . S
C1263 C1260 1.387 . S
C1264 C1265 1.387 . S
C1264 H1268 0.950 . S
C1264 C1273 1.390 1_554 S
C1265 C1264 1.387 . S
C1265 C1267 1.387 . S
H1266 C1273 0.950 . S
C1267 C1265 1.387 . S
C1267 C1269 1.390 1_554 S
C1267 H1271 0.950 . S
H1268 C1264 0.950 . S
C1269 C1267 1.390 1_556 S
C1269 C1270 1.387 . S
C1269 H1272 0.950 . S
C1270 C1269 1.387 . S
C1270 C1273 1.387 . S
H1271 C1267 0.950 . S
H1272 C1269 0.950 . S
C1273 C1264 1.390 1_556 S
C1273 H1266 0.950 . S
C1273 C1270 1.387 . S
C1274 C1275 1.387 . S
C1274 H1278 0.950 . S
C1274 C1283 1.390 1_556 S
C1275 C1274 1.387 . S
C1275 C1277 1.387 . S
H1276 C1283 0.950 . S
C1277 C1275 1.387 . S
C1277 C1279 1.390 1_556 S
C1277 H1281 0.950 . S
H1278 C1274 0.950 . S
C1279 C1277 1.390 1_554 S
C1279 C1280 1.387 . S
C1279 H1282 0.950 . S
C1280 C1279 1.387 . S
C1280 C1283 1.387 . S
H1281 C1277 0.950 . S
H1282 C1279 0.950 . S
C1283 C1274 1.390 1_554 S
C1283 H1276 0.950 . S
C1283 C1280 1.387 . S
C1284 C1285 1.387 . S
C1284 H1288 0.950 . S
C1284 C1293 1.390 1_556 S
C1285 C1284 1.387 . S
C1285 C1287 1.387 . S
H1286 C1293 0.950 . S
C1287 C1285 1.387 . S
C1287 C1289 1.390 1_556 S
C1287 H1291 0.950 . S
H1288 C1284 0.950 . S
C1289 C1287 1.390 1_554 S
C1289 C1290 1.387 . S
C1289 H1292 0.950 . S
C1290 C1289 1.387 . S
C1290 C1293 1.387 . S
H1291 C1287 0.950 . S
H1292 C1289 0.950 . S
C1293 C1284 1.390 1_554 S
C1293 H1286 0.950 . S
C1293 C1290 1.387 . S
C1294 C1295 1.387 . S
C1294 H1298 0.950 . S
C1294 C1303 1.390 1_554 S
C1295 C1294 1.387 . S
C1295 C1297 1.387 . S
H1296 C1303 0.950 . S
C1297 C1295 1.387 . S
C1297 C1299 1.390 1_554 S
C1297 H1301 0.950 . S
H1298 C1294 0.950 . S
C1299 C1297 1.390 1_556 S
C1299 C1300 1.387 . S
C1299 H1302 0.950 . S
C1300 C1299 1.387 . S
C1300 C1303 1.387 . S
H1301 C1297 0.950 . S
H1302 C1299 0.950 . S
C1303 C1294 1.390 1_556 S
C1303 H1296 0.950 . S
C1303 C1300 1.387 . S
C1304 C1305 1.387 . S
C1304 H1308 0.950 . S
C1304 C1313 1.390 1_556 S
C1305 C1304 1.387 . S
C1305 C1307 1.387 . S
H1306 C1313 0.950 . S
C1307 C1305 1.387 . S
C1307 C1309 1.390 1_556 S
C1307 H1311 0.950 . S
H1308 C1304 0.950 . S
C1309 C1307 1.390 1_554 S
C1309 C1310 1.387 . S
C1309 H1312 0.950 . S
C1310 C1309 1.387 . S
C1310 C1313 1.387 . S
H1311 C1307 0.950 . S
H1312 C1309 0.950 . S
C1313 C1304 1.390 1_554 S
C1313 H1306 0.950 . S
C1313 C1310 1.387 . S
C1314 C1315 1.387 . S
C1314 H1318 0.950 . S
C1314 C1323 1.390 1_554 S
C1315 C1314 1.387 . S
C1315 C1317 1.387 . S
H1316 C1323 0.950 . S
C1317 C1315 1.387 . S
C1317 C1319 1.390 1_554 S
C1317 H1321 0.950 . S
H1318 C1314 0.950 . S
C1319 C1317 1.390 1_556 S
C1319 C1320 1.387 . S
C1319 H1322 0.950 . S
C1320 C1319 1.387 . S
C1320 C1323 1.387 . S
H1321 C1317 0.950 . S
H1322 C1319 0.950 . S
C1323 C1314 1.390 1_556 S
C1323 H1316 0.950 . S
C1323 C1320 1.387 . S
C1324 C1325 1.387 . S
C1324 H1328 0.950 . S
C1324 C1333 1.390 1_554 S
C1325 C1324 1.387 . S
C1325 C1327 1.387 . S
H1326 C1333 0.950 . S
C1327 C1325 1.387 . S
C1327 C1329 1.390 1_554 S
C1327 H1331 0.950 . S
H1328 C1324 0.950 . S
C1329 C1327 1.390 1_556 S
C1329 C1330 1.387 . S
C1329 H1332 0.950 . S
C1330 C1329 1.387 . S
C1330 C1333 1.387 . S
H1331 C1327 0.950 . S
H1332 C1329 0.950 . S
C1333 C1324 1.390 1_556 S
C1333 H1326 0.950 . S
C1333 C1330 1.387 . S
C1334 C1335 1.387 . S
C1334 H1338 0.950 . S
C1334 C1343 1.390 1_556 S
C1335 C1334 1.387 . S
C1335 C1337 1.387 . S
H1336 C1343 0.950 . S
C1337 C1335 1.387 . S
C1337 C1339 1.390 1_556 S
C1337 H1341 0.950 . S
H1338 C1334 0.950 . S
C1339 C1337 1.390 1_554 S
C1339 C1340 1.387 . S
C1339 H1342 0.950 . S
C1340 C1339 1.387 . S
C1340 C1343 1.387 . S
H1341 C1337 0.950 . S
H1342 C1339 0.950 . S
C1343 C1334 1.390 1_554 S
C1343 H1336 0.950 . S
C1343 C1340 1.387 . S
C1344 C1345 1.387 . S
C1344 H1348 0.950 . S
C1344 C1353 1.390 1_455 S
C1345 C1344 1.387 . S
C1345 C1347 1.387 . S
H1346 C1353 0.950 . S
C1347 C1345 1.387 . S
C1347 C1349 1.390 1_455 S
C1347 H1351 0.950 . S
H1348 C1344 0.950 . S
C1349 C1347 1.390 1_655 S
C1349 C1350 1.387 . S
C1349 H1352 0.950 . S
C1350 C1349 1.387 . S
C1350 C1353 1.387 . S
H1351 C1347 0.950 . S
H1352 C1349 0.950 . S
C1353 C1344 1.390 1_655 S
C1353 H1346 0.950 . S
C1353 C1350 1.387 . S
C1354 C1355 1.387 . S
C1354 H1358 0.950 . S
C1354 C1363 1.390 1_455 S
C1355 C1354 1.387 . S
C1355 C1357 1.387 . S
H1356 C1363 0.950 . S
C1357 C1355 1.387 . S
C1357 C1359 1.390 1_455 S
C1357 H1361 0.950 . S
H1358 C1354 0.950 . S
C1359 C1357 1.390 1_655 S
C1359 C1360 1.387 . S
C1359 H1362 0.950 . S
C1360 C1359 1.387 . S
C1360 C1363 1.387 . S
H1361 C1357 0.950 . S
H1362 C1359 0.950 . S
C1363 C1354 1.390 1_655 S
C1363 H1356 0.950 . S
C1363 C1360 1.387 . S
C1364 C1365 1.387 . S
C1364 H1368 0.950 . S
C1364 C1373 1.390 1_565 S
C1365 C1364 1.387 . S
C1365 C1367 1.387 . S
H1366 C1373 0.950 . S
C1367 C1365 1.387 . S
C1367 C1369 1.390 1_565 S
C1367 H1371 0.950 . S
H1368 C1364 0.950 . S
C1369 C1367 1.390 1_545 S
C1369 C1370 1.387 . S
C1369 H1372 0.950 . S
C1370 C1369 1.387 . S
C1370 C1373 1.387 . S
H1371 C1367 0.950 . S
H1372 C1369 0.950 . S
C1373 C1364 1.390 1_545 S
C1373 H1366 0.950 . S
C1373 C1370 1.387 . S
C1374 C1375 1.387 . S
C1374 H1378 0.950 . S
C1374 C1383 1.390 1_455 S
C1375 C1374 1.387 . S
C1375 C1377 1.387 . S
H1376 C1383 0.950 . S
C1377 C1375 1.387 . S
C1377 C1379 1.390 1_455 S
C1377 H1381 0.950 . S
H1378 C1374 0.950 . S
C1379 C1377 1.390 1_655 S
C1379 C1380 1.387 . S
C1379 H1382 0.950 . S
C1380 C1379 1.387 . S
C1380 C1383 1.387 . S
H1381 C1377 0.950 . S
H1382 C1379 0.950 . S
C1383 C1374 1.390 1_655 S
C1383 H1376 0.950 . S
C1383 C1380 1.387 . S
C1384 C1385 1.387 . S
C1384 H1388 0.950 . S
C1384 C1393 1.390 1_565 S
C1385 C1384 1.387 . S
C1385 C1387 1.387 . S
H1386 C1393 0.950 . S
C1387 C1385 1.387 . S
C1387 C1389 1.390 1_565 S
C1387 H1391 0.950 . S
H1388 C1384 0.950 . S
C1389 C1387 1.390 1_545 S
C1389 C1390 1.387 . S
C1389 H1392 0.950 . S
C1390 C1389 1.387 . S
C1390 C1393 1.387 . S
H1391 C1387 0.950 . S
H1392 C1389 0.950 . S
C1393 C1384 1.390 1_545 S
C1393 H1386 0.950 . S
C1393 C1390 1.387 . S
C1394 C1395 1.387 . S
C1394 H1398 0.950 . S
C1394 C1403 1.390 1_655 S
C1395 C1394 1.387 . S
C1395 C1397 1.387 . S
H1396 C1403 0.950 . S
C1397 C1395 1.387 . S
C1397 C1399 1.390 1_655 S
C1397 H1401 0.950 . S
H1398 C1394 0.950 . S
C1399 C1397 1.390 1_455 S
C1399 C1400 1.387 . S
C1399 H1402 0.950 . S
C1400 C1399 1.387 . S
C1400 C1403 1.387 . S
H1401 C1397 0.950 . S
H1402 C1399 0.950 . S
C1403 C1394 1.390 1_455 S
C1403 H1396 0.950 . S
C1403 C1400 1.387 . S
C1404 C1405 1.387 . S
C1404 H1408 0.950 . S
C1404 C1413 1.390 1_565 S
C1405 C1404 1.387 . S
C1405 C1407 1.387 . S
H1406 C1413 0.950 . S
C1407 C1405 1.387 . S
C1407 C1409 1.390 1_565 S
C1407 H1411 0.950 . S
H1408 C1404 0.950 . S
C1409 C1407 1.390 1_545 S
C1409 C1410 1.387 . S
C1409 H1412 0.950 . S
C1410 C1409 1.387 . S
C1410 C1413 1.387 . S
H1411 C1407 0.950 . S
H1412 C1409 0.950 . S
C1413 C1404 1.390 1_545 S
C1413 H1406 0.950 . S
C1413 C1410 1.387 . S
C1414 C1415 1.387 . S
C1414 H1418 0.950 . S
C1414 C1423 1.390 1_565 S
C1415 C1414 1.387 . S
C1415 C1417 1.387 . S
H1416 C1423 0.950 . S
C1417 C1415 1.387 . S
C1417 C1419 1.390 1_565 S
C1417 H1421 0.950 . S
H1418 C1414 0.950 . S
C1419 C1417 1.390 1_545 S
C1419 C1420 1.387 . S
C1419 H1422 0.950 . S
C1420 C1419 1.387 . S
C1420 C1423 1.387 . S
H1421 C1417 0.950 . S
H1422 C1419 0.950 . S
C1423 C1414 1.390 1_545 S
C1423 H1416 0.950 . S
C1423 C1420 1.387 . S
C1424 C1425 1.387 . S
C1424 H1428 0.950 . S
C1424 C1433 1.390 . S
C1425 C1424 1.387 . S
C1425 C1427 1.387 . S
H1426 C1433 0.950 . S
C1427 C1425 1.387 . S
C1427 C1429 1.390 . S
C1427 H1431 0.950 . S
H1428 C1424 0.950 . S
C1429 C1427 1.390 . S
C1429 C1430 1.387 . S
C1429 H1432 0.950 . S
C1430 C1429 1.387 . S
C1430 C1433 1.387 . S
H1431 C1427 0.950 . S
H1432 C1429 0.950 . S
C1433 C1424 1.390 . S
C1433 H1426 0.950 . S
C1433 C1430 1.387 . S
C1434 C1435 1.387 . S
C1434 H1438 0.950 . S
C1434 C1443 1.390 . S
C1435 C1434 1.387 . S
C1435 C1437 1.387 . S
H1436 C1443 0.950 . S
C1437 C1435 1.387 . S
C1437 C1439 1.390 . S
C1437 H1441 0.950 . S
H1438 C1434 0.950 . S
C1439 C1437 1.390 . S
C1439 C1440 1.387 . S
C1439 H1442 0.950 . S
C1440 C1439 1.387 . S
C1440 C1443 1.387 . S
H1441 C1437 0.950 . S
H1442 C1439 0.950 . S
C1443 C1434 1.390 . S
C1443 H1436 0.950 . S
C1443 C1440 1.387 . S
C1444 C1445 1.387 . S
C1444 H1448 0.950 . S
C1444 C1453 1.390 . S
C1445 C1444 1.387 . S
C1445 C1447 1.387 . S
H1446 C1453 0.950 . S
C1447 C1445 1.387 . S
C1447 C1449 1.390 . S
C1447 H1451 0.950 . S
H1448 C1444 0.950 . S
C1449 C1447 1.390 . S
C1449 C1450 1.387 . S
C1449 H1452 0.950 . S
C1450 C1449 1.387 . S
C1450 C1453 1.387 . S
H1451 C1447 0.950 . S
H1452 C1449 0.950 . S
C1453 C1444 1.390 . S
C1453 H1446 0.950 . S
C1453 C1450 1.387 . S
C1454 C1455 1.387 . S
C1454 H1458 0.950 . S
C1454 C1463 1.390 . S
C1455 C1454 1.387 . S
C1455 C1457 1.387 . S
H1456 C1463 0.950 . S
C1457 C1455 1.387 . S
C1457 C1459 1.390 . S
C1457 H1461 0.950 . S
H1458 C1454 0.950 . S
C1459 C1457 1.390 . S
C1459 C1460 1.387 . S
C1459 H1462 0.950 . S
C1460 C1459 1.387 . S
C1460 C1463 1.387 . S
H1461 C1457 0.950 . S
H1462 C1459 0.950 . S
C1463 C1454 1.390 . S
C1463 H1456 0.950 . S
C1463 C1460 1.387 . S
C1464 C1465 1.387 . S
C1464 H1468 0.950 . S
C1464 C1473 1.390 . S
C1465 C1464 1.387 . S
C1465 C1467 1.387 . S
H1466 C1473 0.950 . S
C1467 C1465 1.387 . S
C1467 C1469 1.390 . S
C1467 H1471 0.950 . S
H1468 C1464 0.950 . S
C1469 C1467 1.390 . S
C1469 C1470 1.387 . S
C1469 H1472 0.950 . S
C1470 C1469 1.387 . S
C1470 C1473 1.387 . S
H1471 C1467 0.950 . S
H1472 C1469 0.950 . S
C1473 C1464 1.390 . S
C1473 H1466 0.950 . S
C1473 C1470 1.387 . S
C1474 C1475 1.387 . S
C1474 H1478 0.950 . S
C1474 C1483 1.390 . S
C1475 C1474 1.387 . S
C1475 C1477 1.387 . S
H1476 C1483 0.950 . S
C1477 C1475 1.387 . S
C1477 C1479 1.390 . S
C1477 H1481 0.950 . S
H1478 C1474 0.950 . S
C1479 C1477 1.390 . S
C1479 C1480 1.387 . S
C1479 H1482 0.950 . S
C1480 C1479 1.387 . S
C1480 C1483 1.387 . S
H1481 C1477 0.950 . S
H1482 C1479 0.950 . S
C1483 C1474 1.390 . S
C1483 H1476 0.950 . S
C1483 C1480 1.387 . S
C1484 C1485 1.387 . S
C1484 H1488 0.950 . S
C1484 C1493 1.390 . S
C1485 C1484 1.387 . S
C1485 C1487 1.387 . S
H1486 C1493 0.950 . S
C1487 C1485 1.387 . S
C1487 C1489 1.390 . S
C1487 H1491 0.950 . S
H1488 C1484 0.950 . S
C1489 C1487 1.390 . S
C1489 C1490 1.387 . S
C1489 H1492 0.950 . S
C1490 C1489 1.387 . S
C1490 C1493 1.387 . S
H1491 C1487 0.950 . S
H1492 C1489 0.950 . S
C1493 C1484 1.390 . S
C1493 H1486 0.950 . S
C1493 C1490 1.387 . S
C1494 C1495 1.387 . S
C1494 H1498 0.950 . S
C1494 C1503 1.390 . S
C1495 C1494 1.387 . S
C1495 C1497 1.387 . S
H1496 C1503 0.950 . S
C1497 C1495 1.387 . S
C1497 C1499 1.390 . S
C1497 H1501 0.950 . S
H1498 C1494 0.950 . S
C1499 C1497 1.390 . S
C1499 C1500 1.387 . S
C1499 H1502 0.950 . S
C1500 C1499 1.387 . S
C1500 C1503 1.387 . S
H1501 C1497 0.950 . S
H1502 C1499 0.950 . S
C1503 C1494 1.390 . S
C1503 H1496 0.950 . S
C1503 C1500 1.387 . S
C1504 C1505 1.387 . S
C1504 H1508 0.950 . S
C1504 C1513 1.390 . S
C1505 C1504 1.387 . S
C1505 C1507 1.387 . S
H1506 C1513 0.950 . S
C1507 C1505 1.387 . S
C1507 C1509 1.390 . S
C1507 H1511 0.950 . S
H1508 C1504 0.950 . S
C1509 C1507 1.390 . S
C1509 C1510 1.387 . S
C1509 H1512 0.950 . S
C1510 C1509 1.387 . S
C1510 C1513 1.387 . S
H1511 C1507 0.950 . S
H1512 C1509 0.950 . S
C1513 C1504 1.390 . S
C1513 H1506 0.950 . S
C1513 C1510 1.387 . S
C1514 C1515 1.387 . S
C1514 H1518 0.950 . S
C1514 C1523 1.390 . S
C1515 C1514 1.387 . S
C1515 C1517 1.387 . S
H1516 C1523 0.950 . S
C1517 C1515 1.387 . S
C1517 C1519 1.390 . S
C1517 H1521 0.950 . S
H1518 C1514 0.950 . S
C1519 C1517 1.390 . S
C1519 C1520 1.387 . S
C1519 H1522 0.950 . S
C1520 C1519 1.387 . S
C1520 C1523 1.387 . S
H1521 C1517 0.950 . S
H1522 C1519 0.950 . S
C1523 C1514 1.390 . S
C1523 H1516 0.950 . S
C1523 C1520 1.387 . S
C1524 C1525 1.387 . S
C1524 H1528 0.950 . S
C1524 C1533 1.390 . S
C1525 C1524 1.387 . S
C1525 C1527 1.387 . S
H1526 C1533 0.950 . S
C1527 C1525 1.387 . S
C1527 C1529 1.390 . S
C1527 H1531 0.950 . S
H1528 C1524 0.950 . S
C1529 C1527 1.390 . S
C1529 C1530 1.387 . S
C1529 H1532 0.950 . S
C1530 C1529 1.387 . S
C1530 C1533 1.387 . S
H1531 C1527 0.950 . S
H1532 C1529 0.950 . S
C1533 C1524 1.390 . S
C1533 H1526 0.950 . S
C1533 C1530 1.387 . S
C1534 C1535 1.387 . S
C1534 H1538 0.950 . S
C1534 C1543 1.390 . S
C1535 C1534 1.387 . S
C1535 C1537 1.387 . S
H1536 C1543 0.950 . S
C1537 C1535 1.387 . S
C1537 C1539 1.390 . S
C1537 H1541 0.950 . S
H1538 C1534 0.950 . S
C1539 C1537 1.390 . S
C1539 C1540 1.387 . S
C1539 H1542 0.950 . S
C1540 C1539 1.387 . S
C1540 C1543 1.387 . S
H1541 C1537 0.950 . S
H1542 C1539 0.950 . S
C1543 C1534 1.390 . S
C1543 H1536 0.950 . S
C1543 C1540 1.387 . S
C1544 C1545 1.387 . S
C1544 H1548 0.950 . S
C1544 C1553 1.390 . S
C1545 C1544 1.387 . S
C1545 C1547 1.387 . S
H1546 C1553 0.950 . S
C1547 C1545 1.387 . S
C1547 C1549 1.390 . S
C1547 H1551 0.950 . S
H1548 C1544 0.950 . S
C1549 C1547 1.390 . S
C1549 C1550 1.387 . S
C1549 H1552 0.950 . S
C1550 C1549 1.387 . S
C1550 C1553 1.387 . S
H1551 C1547 0.950 . S
H1552 C1549 0.950 . S
C1553 C1544 1.390 . S
C1553 H1546 0.950 . S
C1553 C1550 1.387 . S
C1554 C1555 1.387 . S
C1554 H1558 0.950 . S
C1554 C1563 1.390 . S
C1555 C1554 1.387 . S
C1555 C1557 1.387 . S
H1556 C1563 0.950 . S
C1557 C1555 1.387 . S
C1557 C1559 1.390 . S
C1557 H1561 0.950 . S
H1558 C1554 0.950 . S
C1559 C1557 1.390 . S
C1559 C1560 1.387 . S
C1559 H1562 0.950 . S
C1560 C1559 1.387 . S
C1560 C1563 1.387 . S
H1561 C1557 0.950 . S
H1562 C1559 0.950 . S
C1563 C1554 1.390 . S
C1563 H1556 0.950 . S
C1563 C1560 1.387 . S
C1564 C1565 1.387 . S
C1564 H1568 0.950 . S
C1564 C1573 1.390 . S
C1565 C1564 1.387 . S
C1565 C1567 1.387 . S
H1566 C1573 0.950 . S
C1567 C1565 1.387 . S
C1567 C1569 1.390 . S
C1567 H1571 0.950 . S
H1568 C1564 0.950 . S
C1569 C1567 1.390 . S
C1569 C1570 1.387 . S
C1569 H1572 0.950 . S
C1570 C1569 1.387 . S
C1570 C1573 1.387 . S
H1571 C1567 0.950 . S
H1572 C1569 0.950 . S
C1573 C1564 1.390 . S
C1573 H1566 0.950 . S
C1573 C1570 1.387 . S
C1574 C1575 1.387 . S
C1574 H1578 0.950 . S
C1574 C1583 1.390 . S
C1575 C1574 1.387 . S
C1575 C1577 1.387 . S
H1576 C1583 0.950 . S
C1577 C1575 1.387 . S
C1577 C1579 1.390 . S
C1577 H1581 0.950 . S
H1578 C1574 0.950 . S
C1579 C1577 1.390 . S
C1579 C1580 1.387 . S
C1579 H1582 0.950 . S
C1580 C1579 1.387 . S
C1580 C1583 1.387 . S
H1581 C1577 0.950 . S
H1582 C1579 0.950 . S
C1583 C1574 1.390 . S
C1583 H1576 0.950 . S
C1583 C1580 1.387 . S
C1584 C1585 1.387 . S
C1584 H1588 0.950 . S
C1584 C1593 1.390 . S
C1585 C1584 1.387 . S
C1585 C1587 1.387 . S
H1586 C1593 0.950 . S
C1587 C1585 1.387 . S
C1587 C1589 1.390 . S
C1587 H1591 0.950 . S
H1588 C1584 0.950 . S
C1589 C1587 1.390 . S
C1589 C1590 1.387 . S
C1589 H1592 0.950 . S
C1590 C1589 1.387 . S
C1590 C1593 1.387 . S
H1591 C1587 0.950 . S
H1592 C1589 0.950 . S
C1593 C1584 1.390 . S
C1593 H1586 0.950 . S
C1593 C1590 1.387 . S
C1594 C1595 1.387 . S
C1594 H1598 0.950 . S
C1594 C1603 1.390 . S
C1595 C1594 1.387 . S
C1595 C1597 1.387 . S
H1596 C1603 0.950 . S
C1597 C1595 1.387 . S
C1597 C1599 1.390 . S
C1597 H1601 0.950 . S
H1598 C1594 0.950 . S
C1599 C1597 1.390 . S
C1599 C1600 1.387 . S
C1599 H1602 0.950 . S
C1600 C1599 1.387 . S
C1600 C1603 1.387 . S
H1601 C1597 0.950 . S
H1602 C1599 0.950 . S
C1603 C1594 1.390 . S
C1603 H1596 0.950 . S
C1603 C1600 1.387 . S
C1604 C1605 1.387 . S
C1604 H1608 0.950 . S
C1604 C1613 1.390 . S
C1605 C1604 1.387 . S
C1605 C1607 1.387 . S
H1606 C1613 0.950 . S
C1607 C1605 1.387 . S
C1607 C1609 1.390 . S
C1607 H1611 0.950 . S
H1608 C1604 0.950 . S
C1609 C1607 1.390 . S
C1609 C1610 1.387 . S
C1609 H1612 0.950 . S
C1610 C1609 1.387 . S
C1610 C1613 1.387 . S
H1611 C1607 0.950 . S
H1612 C1609 0.950 . S
C1613 C1604 1.390 . S
C1613 H1606 0.950 . S
C1613 C1610 1.387 . S
C1614 C1615 1.387 . S
C1614 H1618 0.950 . S
C1614 C1623 1.390 . S
C1615 C1614 1.387 . S
C1615 C1617 1.387 . S
H1616 C1623 0.950 . S
C1617 C1615 1.387 . S
C1617 C1619 1.390 . S
C1617 H1621 0.950 . S
H1618 C1614 0.950 . S
C1619 C1617 1.390 . S
C1619 C1620 1.387 . S
C1619 H1622 0.950 . S
C1620 C1619 1.387 . S
C1620 C1623 1.387 . S
H1621 C1617 0.950 . S
H1622 C1619 0.950 . S
C1623 C1614 1.390 . S
C1623 H1616 0.950 . S
C1623 C1620 1.387 . S
C1624 C1625 1.387 . S
C1624 H1628 0.950 . S
C1624 C1633 1.390 . S
C1625 C1624 1.387 . S
C1625 C1627 1.387 . S
H1626 C1633 0.950 . S
C1627 C1625 1.387 . S
C1627 C1629 1.390 . S
C1627 H1631 0.950 . S
H1628 C1624 0.950 . S
C1629 C1627 1.390 . S
C1629 C1630 1.387 . S
C1629 H1632 0.950 . S
C1630 C1629 1.387 . S
C1630 C1633 1.387 . S
H1631 C1627 0.950 . S
H1632 C1629 0.950 . S
C1633 C1624 1.390 . S
C1633 H1626 0.950 . S
C1633 C1630 1.387 . S
C1634 C1635 1.387 . S
C1634 H1638 0.950 . S
C1634 C1643 1.390 . S
C1635 C1634 1.387 . S
C1635 C1637 1.387 . S
H1636 C1643 0.950 . S
C1637 C1635 1.387 . S
C1637 C1639 1.390 . S
C1637 H1641 0.950 . S
H1638 C1634 0.950 . S
C1639 C1637 1.390 . S
C1639 C1640 1.387 . S
C1639 H1642 0.950 . S
C1640 C1639 1.387 . S
C1640 C1643 1.387 . S
H1641 C1637 0.950 . S
H1642 C1639 0.950 . S
C1643 C1634 1.390 . S
C1643 H1636 0.950 . S
C1643 C1640 1.387 . S
C1644 C1645 1.387 . S
C1644 H1648 0.950 . S
C1644 C1653 1.390 . S
C1645 C1644 1.387 . S
C1645 C1647 1.387 . S
H1646 C1653 0.950 . S
C1647 C1645 1.387 . S
C1647 C1649 1.390 . S
C1647 H1651 0.950 . S
H1648 C1644 0.950 . S
C1649 C1647 1.390 . S
C1649 C1650 1.387 . S
C1649 H1652 0.950 . S
C1650 C1649 1.387 . S
C1650 C1653 1.387 . S
H1651 C1647 0.950 . S
H1652 C1649 0.950 . S
C1653 C1644 1.390 . S
C1653 H1646 0.950 . S
C1653 C1650 1.387 . S
C1654 C1655 1.387 . S
C1654 H1658 0.950 . S
C1654 C1663 1.390 . S
C1655 C1654 1.387 . S
C1655 C1657 1.387 . S
H1656 C1663 0.950 . S
C1657 C1655 1.387 . S
C1657 C1659 1.390 . S
C1657 H1661 0.950 . S
H1658 C1654 0.950 . S
C1659 C1657 1.390 . S
C1659 C1660 1.387 . S
C1659 H1662 0.950 . S
C1660 C1659 1.387 . S
C1660 C1663 1.387 . S
H1661 C1657 0.950 . S
H1662 C1659 0.950 . S
C1663 C1654 1.390 . S
C1663 H1656 0.950 . S
C1663 C1660 1.387 . S
C705 C367 1.185 . S
C710 C21 1.185 . S
C715 C513 1.185 . S
C720 C37 1.185 . S
C725 C59 1.185 . S
C730 C469 1.185 . S
C735 C73 1.185 . S
C740 C491 1.185 . S
C745 C109 1.185 . S
C750 C389 1.185 . S
C755 C117 1.185 . S
C760 C411 1.185 . S
C765 C425 1.185 . S
C770 C139 1.185 . S
C775 C161 1.185 . S
C780 C447 1.185 . S
C785 C197 1.185 . S
C790 C15 1.185 . S
C795 C29 1.185 . S
C800 C219 1.185 . S
C805 C227 1.185 . S
C810 C51 1.185 . S
C815 C87 1.185 . S
C820 C263 1.185 . S
C825 C103 1.185 . S
C830 C271 1.185 . S
C835 C307 1.185 . S
C840 C131 1.185 . S
C845 C153 1.185 . S
C850 C329 1.185 . S
C855 C337 1.185 . S
C860 C175 1.185 . S
C865 C191 1.185 . S
C870 C373 1.185 . S
C875 C395 1.185 . S
C880 C285 1.185 . S
C885 C417 1.185 . S
C890 C301 1.185 . S
C895 C323 1.185 . S
C900 C433 1.185 . S
C905 C455 1.185 . S
C910 C351 1.185 . S
C915 C477 1.185 . S
C920 C241 1.185 . S
C925 C257 1.185 . S
C930 C499 1.185 . S
C935 C521 1.185 . S
C940 C213 1.185 . S
C945 C689 1.185 . S
C950 C345 1.185 . S
C955 C293 1.185 . S
C960 C667 1.185 . S
C965 C631 1.185 . S
C970 C249 1.185 . S
C975 C653 1.185 . S
C980 C205 1.185 . S
C985 C381 1.185 . S
C990 C549 1.185 . S
C995 C439 1.185 . S
C1000 C557 1.185 . S
C1005 C579 1.185 . S
C1010 C359 1.185 . S
C1015 C601 1.185 . S
C1020 C483 1.185 . S
C1025 C543 1.185 . S
C1030 C95 1.185 . S
C1035 C593 1.185 . S
C1040 C7 1.185 . S
C1045 C81 1.185 . S
C1050 C637 1.185 . S
C1055 C615 1.185 . S
C1060 C65 1.185 . S
C1065 C659 1.185 . S
C1070 C43 1.185 . S
C1075 C147 1.185 . S
C1080 C571 1.185 . S
C1085 C675 1.185 . S
C1090 C125 1.185 . S
C1095 C169 1.185 . S
C1100 C697 1.185 . S
C1105 C315 1.185 . S
C1110 C565 1.185 . S
C1115 C279 1.185 . S
C1120 C535 1.185 . S
C1125 C609 1.185 . S
C1130 C235 1.185 . S
C1135 C587 1.185 . S
C1140 C183 1.185 . S
C1145 C403 1.185 . S
C1150 C681 1.185 . S
C1155 C461 1.185 . S
C1160 C703 1.185 . S
C1165 C645 1.185 . S
C1170 C527 1.185 . S
C1175 C505 1.185 . S
C1180 C623 1.185 . S
C1185 C84 1.554 . S
C1190 C10 1.553 . S
C1195 C40 1.553 . S
C1200 C8 1.553 . S
C1205 C32 1.554 . S
C1210 C62 1.553 . S
C1215 C54 1.553 . S
C1220 C74 1.553 . S
C1225 C128 1.553 . S
C1230 C98 1.554 . S
C1235 C150 1.553 . S
C1240 C118 1.554 . S
C1245 C140 1.553 . S
C1250 C172 1.553 . S
C1255 C162 1.553 . S
C1260 C96 1.553 . S
C1265 C186 1.553 . S
C1270 C404 1.554 . S
C1275 C428 1.553 . S
C1280 C208 1.554 . S
C1285 C450 1.553 . S
C1290 C228 1.553 . S
C1295 C252 1.554 . S
C1300 C382 1.553 . S
C1305 C272 1.553 . S
C1310 C494 1.554 . S
C1315 C360 1.553 . S
C1320 C296 1.553 . S
C1325 C516 1.553 . S
C1330 C318 1.553 . S
C1335 C338 1.554 . S
C1340 C472 1.553 . S
C1345 C362 1.553 . S
C1350 C206 1.553 . S
C1355 C384 1.553 . S
C1360 C348 1.553 . S
C1365 C282 1.553 . S
C1370 C406 1.554 . S
C1375 C294 1.553 . S
C1380 C436 1.553 . S
C1385 C458 1.553 . S
C1390 C316 1.554 . S
C1395 C480 1.553 . S
C1400 C250 1.553 . S
C1405 C502 1.553 . S
C1410 C184 1.554 . S
C1415 C238 1.553 . S
C1420 C524 1.553 . S
C1425 C392 1.553 . S
C1430 C304 1.554 . S
C1435 C340 1.553 . S
C1440 C426 1.553 . S
C1445 C370 1.554 . S
C1450 C260 1.553 . S
C1455 C216 1.553 . S
C1460 C470 1.553 . S
C1465 C538 1.553 . S
C1470 C624 1.553 . S
C1475 C52 1.553 . S
C1480 C164 1.553 . S
C1485 C558 1.553 . S
C1490 C646 1.554 . S
C1495 C120 1.553 . S
C1500 C18 1.554 . S
C1505 C670 1.553 . S
C1510 C580 1.554 . S
C1515 C76 1.553 . S
C1520 C106 1.553 . S
C1525 C602 1.553 . S
C1530 C692 1.553 . S
C1535 C142 1.553 . S
C1540 C30 1.553 . S
C1545 C626 1.554 . S
C1550 C590 1.553 . S
C1555 C612 1.553 . S
C1560 C648 1.554 . S
C1565 C536 1.553 . S
C1570 C678 1.553 . S
C1575 C568 1.553 . S
C1580 C700 1.553 . S
C1585 C414 1.553 . S
C1590 C326 1.553 . S
C1595 C448 1.553 . S
C1600 C274 1.553 . S
C1605 C194 1.553 . S
C1610 C514 1.553 . S
C1615 C230 1.553 . S
C1620 C492 1.553 . S
C1625 C668 1.553 . S
C1630 C560 1.553 . S
C1635 C634 1.553 . S
C1640 C604 1.553 . S
C1645 C656 1.553 . S
C1650 C582 1.553 . S
C1655 C546 1.553 . S
C1660 C690 1.553 . S
