# Generated by pormake.
# Topology uoi, (4)-cn, num edge types: 1
# Building blocks:
#     Node 0, Type 0, BuildingBlock: QUQFOY_clean_sbu_3, # of connection points: 4
#     Node 1, Type 0, BuildingBlock: QUQFOY_clean_sbu_3, # of connection points: 4
#     Node 2, Type 0, BuildingBlock: QUQFOY_clean_sbu_3, # of connection points: 4
#     Node 3, Type 0, BuildingBlock: QUQFOY_clean_sbu_3, # of connection points: 4
#     Node 4, Type 0, BuildingBlock: QUQFOY_clean_sbu_3, # of connection points: 4
#     Node 5, Type 0, BuildingBlock: QUQFOY_clean_sbu_3, # of connection points: 4
#     Node 6, Type 0, BuildingBlock: QUQFOY_clean_sbu_3, # of connection points: 4
#     Node 7, Type 0, BuildingBlock: QUQFOY_clean_sbu_3, # of connection points: 4
#     Node 8, Type 0, BuildingBlock: QUQFOY_clean_sbu_3, # of connection points: 4
#     Node 9, Type 0, BuildingBlock: QUQFOY_clean_sbu_3, # of connection points: 4
#     Node 10, Type 0, BuildingBlock: QUQFOY_clean_sbu_3, # of connection points: 4
#     Node 11, Type 0, BuildingBlock: QUQFOY_clean_sbu_3, # of connection points: 4
#     Node 12, Type 0, BuildingBlock: QUQFOY_clean_sbu_3, # of connection points: 4
#     Node 13, Type 0, BuildingBlock: QUQFOY_clean_sbu_3, # of connection points: 4
#     Node 14, Type 0, BuildingBlock: QUQFOY_clean_sbu_3, # of connection points: 4
#     Node 15, Type 0, BuildingBlock: QUQFOY_clean_sbu_3, # of connection points: 4
#     Node 16, Type 0, BuildingBlock: QUQFOY_clean_sbu_3, # of connection points: 4
#     Node 17, Type 0, BuildingBlock: QUQFOY_clean_sbu_3, # of connection points: 4
#     Node 18, Type 0, BuildingBlock: QUQFOY_clean_sbu_3, # of connection points: 4
#     Node 19, Type 0, BuildingBlock: QUQFOY_clean_sbu_3, # of connection points: 4
#     Node 20, Type 0, BuildingBlock: QUQFOY_clean_sbu_3, # of connection points: 4
#     Node 21, Type 0, BuildingBlock: QUQFOY_clean_sbu_3, # of connection points: 4
#     Node 22, Type 0, BuildingBlock: QUQFOY_clean_sbu_3, # of connection points: 4
#     Node 23, Type 0, BuildingBlock: QUQFOY_clean_sbu_3, # of connection points: 4
#     Node 24, Type 0, BuildingBlock: QUQFOY_clean_sbu_3, # of connection points: 4
#     Node 25, Type 0, BuildingBlock: QUQFOY_clean_sbu_3, # of connection points: 4
#     Node 26, Type 0, BuildingBlock: QUQFOY_clean_sbu_3, # of connection points: 4
#     Node 27, Type 0, BuildingBlock: QUQFOY_clean_sbu_3, # of connection points: 4
#     Node 28, Type 0, BuildingBlock: QUQFOY_clean_sbu_3, # of connection points: 4
#     Node 29, Type 0, BuildingBlock: QUQFOY_clean_sbu_3, # of connection points: 4
#     Node 30, Type 0, BuildingBlock: QUQFOY_clean_sbu_3, # of connection points: 4
#     Node 31, Type 0, BuildingBlock: QUQFOY_clean_sbu_3, # of connection points: 4
#     Edge 32, Type (0, 0), BuildingBlock: OJICUG_clean_linker_0, # of connection points: 2
#     Edge 33, Type (0, 0), BuildingBlock: OJICUG_clean_linker_0, # of connection points: 2
#     Edge 34, Type (0, 0), BuildingBlock: OJICUG_clean_linker_0, # of connection points: 2
#     Edge 35, Type (0, 0), BuildingBlock: OJICUG_clean_linker_0, # of connection points: 2
#     Edge 36, Type (0, 0), BuildingBlock: OJICUG_clean_linker_0, # of connection points: 2
#     Edge 37, Type (0, 0), BuildingBlock: OJICUG_clean_linker_0, # of connection points: 2
#     Edge 38, Type (0, 0), BuildingBlock: OJICUG_clean_linker_0, # of connection points: 2
#     Edge 39, Type (0, 0), BuildingBlock: OJICUG_clean_linker_0, # of connection points: 2
#     Edge 40, Type (0, 0), BuildingBlock: OJICUG_clean_linker_0, # of connection points: 2
#     Edge 41, Type (0, 0), BuildingBlock: OJICUG_clean_linker_0, # of connection points: 2
#     Edge 42, Type (0, 0), BuildingBlock: OJICUG_clean_linker_0, # of connection points: 2
#     Edge 43, Type (0, 0), BuildingBlock: OJICUG_clean_linker_0, # of connection points: 2
#     Edge 44, Type (0, 0), BuildingBlock: OJICUG_clean_linker_0, # of connection points: 2
#     Edge 45, Type (0, 0), BuildingBlock: OJICUG_clean_linker_0, # of connection points: 2
#     Edge 46, Type (0, 0), BuildingBlock: OJICUG_clean_linker_0, # of connection points: 2
#     Edge 47, Type (0, 0), BuildingBlock: OJICUG_clean_linker_0, # of connection points: 2
#     Edge 48, Type (0, 0), BuildingBlock: OJICUG_clean_linker_0, # of connection points: 2
#     Edge 49, Type (0, 0), BuildingBlock: OJICUG_clean_linker_0, # of connection points: 2
#     Edge 50, Type (0, 0), BuildingBlock: OJICUG_clean_linker_0, # of connection points: 2
#     Edge 51, Type (0, 0), BuildingBlock: OJICUG_clean_linker_0, # of connection points: 2
#     Edge 52, Type (0, 0), BuildingBlock: OJICUG_clean_linker_0, # of connection points: 2
#     Edge 53, Type (0, 0), BuildingBlock: OJICUG_clean_linker_0, # of connection points: 2
#     Edge 54, Type (0, 0), BuildingBlock: OJICUG_clean_linker_0, # of connection points: 2
#     Edge 55, Type (0, 0), BuildingBlock: OJICUG_clean_linker_0, # of connection points: 2
#     Edge 56, Type (0, 0), BuildingBlock: OJICUG_clean_linker_0, # of connection points: 2
#     Edge 57, Type (0, 0), BuildingBlock: OJICUG_clean_linker_0, # of connection points: 2
#     Edge 58, Type (0, 0), BuildingBlock: OJICUG_clean_linker_0, # of connection points: 2
#     Edge 59, Type (0, 0), BuildingBlock: OJICUG_clean_linker_0, # of connection points: 2
#     Edge 60, Type (0, 0), BuildingBlock: OJICUG_clean_linker_0, # of connection points: 2
#     Edge 61, Type (0, 0), BuildingBlock: OJICUG_clean_linker_0, # of connection points: 2
#     Edge 62, Type (0, 0), BuildingBlock: OJICUG_clean_linker_0, # of connection points: 2
#     Edge 63, Type (0, 0), BuildingBlock: OJICUG_clean_linker_0, # of connection points: 2
#     Edge 64, Type (0, 0), BuildingBlock: OJICUG_clean_linker_0, # of connection points: 2
#     Edge 65, Type (0, 0), BuildingBlock: OJICUG_clean_linker_0, # of connection points: 2
#     Edge 66, Type (0, 0), BuildingBlock: OJICUG_clean_linker_0, # of connection points: 2
#     Edge 67, Type (0, 0), BuildingBlock: OJICUG_clean_linker_0, # of connection points: 2
#     Edge 68, Type (0, 0), BuildingBlock: OJICUG_clean_linker_0, # of connection points: 2
#     Edge 69, Type (0, 0), BuildingBlock: OJICUG_clean_linker_0, # of connection points: 2
#     Edge 70, Type (0, 0), BuildingBlock: OJICUG_clean_linker_0, # of connection points: 2
#     Edge 71, Type (0, 0), BuildingBlock: OJICUG_clean_linker_0, # of connection points: 2
#     Edge 72, Type (0, 0), BuildingBlock: OJICUG_clean_linker_0, # of connection points: 2
#     Edge 73, Type (0, 0), BuildingBlock: OJICUG_clean_linker_0, # of connection points: 2
#     Edge 74, Type (0, 0), BuildingBlock: OJICUG_clean_linker_0, # of connection points: 2
#     Edge 75, Type (0, 0), BuildingBlock: OJICUG_clean_linker_0, # of connection points: 2
#     Edge 76, Type (0, 0), BuildingBlock: OJICUG_clean_linker_0, # of connection points: 2
#     Edge 77, Type (0, 0), BuildingBlock: OJICUG_clean_linker_0, # of connection points: 2
#     Edge 78, Type (0, 0), BuildingBlock: OJICUG_clean_linker_0, # of connection points: 2
#     Edge 79, Type (0, 0), BuildingBlock: OJICUG_clean_linker_0, # of connection points: 2
#     Edge 80, Type (0, 0), BuildingBlock: OJICUG_clean_linker_0, # of connection points: 2
#     Edge 81, Type (0, 0), BuildingBlock: OJICUG_clean_linker_0, # of connection points: 2
#     Edge 82, Type (0, 0), BuildingBlock: OJICUG_clean_linker_0, # of connection points: 2
#     Edge 83, Type (0, 0), BuildingBlock: OJICUG_clean_linker_0, # of connection points: 2
#     Edge 84, Type (0, 0), BuildingBlock: OJICUG_clean_linker_0, # of connection points: 2
#     Edge 85, Type (0, 0), BuildingBlock: OJICUG_clean_linker_0, # of connection points: 2
#     Edge 86, Type (0, 0), BuildingBlock: OJICUG_clean_linker_0, # of connection points: 2
#     Edge 87, Type (0, 0), BuildingBlock: OJICUG_clean_linker_0, # of connection points: 2
#     Edge 88, Type (0, 0), BuildingBlock: OJICUG_clean_linker_0, # of connection points: 2
#     Edge 89, Type (0, 0), BuildingBlock: OJICUG_clean_linker_0, # of connection points: 2
#     Edge 90, Type (0, 0), BuildingBlock: OJICUG_clean_linker_0, # of connection points: 2
#     Edge 91, Type (0, 0), BuildingBlock: OJICUG_clean_linker_0, # of connection points: 2
#     Edge 92, Type (0, 0), BuildingBlock: OJICUG_clean_linker_0, # of connection points: 2
#     Edge 93, Type (0, 0), BuildingBlock: OJICUG_clean_linker_0, # of connection points: 2
#     Edge 94, Type (0, 0), BuildingBlock: OJICUG_clean_linker_0, # of connection points: 2
#     Edge 95, Type (0, 0), BuildingBlock: OJICUG_clean_linker_0, # of connection points: 2
# Relax obj value: 0.253
# Max RMSD: 0.451
# Mean RMSD: 0.282
data_MOF--net-uoi--node1-QUQFOY_clean_sbu_3--edge1-OJICUG_clean_linker_0
_symmetry_space_group_name_H-M    P1
_symmetry_Int_Tables_number       1
_symmetry_cell_setting            triclinic
loop_
_symmetry_equiv_pos_as_xyz
'x, y, z'
_cell_length_a     38.386774
_cell_length_b     56.243325
_cell_length_c     15.613107
_cell_angle_alpha  89.985805
_cell_angle_beta   89.996405
_cell_angle_gamma 89.99403
loop_
_atom_site_label
_atom_site_type_symbol
_atom_site_fract_x
_atom_site_fract_y
_atom_site_fract_z
_atom_type_partial_charge
C0 C 0.30557 0.16531 0.50561 0.0
O1 O 0.31649 0.15945 0.43242 0.0
Cd2 Cd 0.36287 0.19042 0.41997 0.0
O3 O 0.31517 0.1854 0.53315 0.0
Cd4 Cd 0.32454 0.20902 0.39862 0.0
C5 C 0.35147 0.24073 0.53655 0.0
O6 O 0.37087 0.21064 0.28621 0.0
O7 O 0.35365 0.24331 0.3474 0.0
O8 O 0.2995 0.18465 0.29297 0.0
C9 C 0.36977 0.23333 0.28645 0.0
O10 O 0.37123 0.22263 0.52838 0.0
C11 C 0.27068 0.19542 0.28585 0.0
O12 O 0.3236 0.24188 0.49294 0.0
O13 O 0.26562 0.21334 0.33435 0.0
C14 C 0.16551 0.03359 0.59308 0.0
O15 O 0.15209 0.04822 0.54043 0.0
Cd16 Cd 0.11244 0.03784 0.42512 0.0
O17 O 0.16331 0.01134 0.57971 0.0
Cd18 Cd 0.13932 0.98456 0.47085 0.0
C19 C 0.06114 0.00312 0.55246 0.0
O20 O 0.13115 0.00594 0.33569 0.0
O21 O 0.10094 0.974 0.35999 0.0
O22 O 0.19187 0.96248 0.43567 0.0
C23 C 0.10851 0.99093 0.30988 0.0
O24 O 0.0642 0.0221 0.50852 0.0
C25 C 0.17965 0.94247 0.45905 0.0
O26 O 0.08514 0.98735 0.55323 0.0
O27 O 0.14992 0.94256 0.49513 0.0
C28 C 0.10668 0.84709 0.76069 0.0
O29 O 0.08778 0.82905 0.74663 0.0
Cd30 Cd 0.08569 0.80802 0.60905 0.0
O31 O 0.12597 0.85431 0.70043 0.0
Cd32 Cd 0.15969 0.8233 0.63149 0.0
C33 C 0.12933 0.77333 0.73261 0.0
O34 O 0.12953 0.81344 0.49723 0.0
O35 O 0.17361 0.79224 0.53997 0.0
O36 O 0.19592 0.85522 0.58166 0.0
C37 C 0.15083 0.79637 0.48337 0.0
O38 O 0.10533 0.7723 0.67646 0.0
C39 C 0.22411 0.84726 0.61289 0.0
O40 O 0.14914 0.79159 0.73825 0.0
O41 O 0.22242 0.82809 0.65594 0.0
C42 C 0.41601 0.0137 0.10215 0.0
O43 O 0.42633 0.999 0.04567 0.0
Cd44 Cd 0.46444 0.01091 0.92857 0.0
O45 O 0.41961 0.03591 0.09033 0.0
Cd46 Cd 0.43783 0.06451 0.98151 0.0
C47 C 0.51624 0.04601 0.05746 0.0
O48 O 0.4421 0.04328 0.84675 0.0
O49 O 0.469 0.07705 0.8595 0.0
O50 O 0.37847 0.0765 0.97641 0.0
C51 C 0.46231 0.05888 0.81426 0.0
O52 O 0.5121 0.02725 0.01275 0.0
C53 C 0.38404 0.09858 0.98661 0.0
O54 O 0.49287 0.06223 0.06028 0.0
O55 O 0.41544 0.10522 -0.00183 0.0
C56 C 0.18397 0.83977 0.0653 0.0
O57 O 0.21441 0.84896 0.06609 0.0
Cd58 Cd 0.26919 0.82948 0.13645 0.0
O59 O 0.17886 0.82123 0.10959 0.0
Cd60 Cd 0.23557 0.8194 0.16943 0.0
C61 C 0.27412 0.80873 0.97388 0.0
O62 O 0.27803 0.79307 0.2283 0.0
O63 O 0.22389 0.78133 0.2293 0.0
O64 O 0.25159 0.85933 0.23325 0.0
C65 C 0.25567 0.77707 0.24612 0.0
O66 O 0.30121 0.81551 0.01303 0.0
C67 C 0.22666 0.85863 0.28699 0.0
O68 O 0.24501 0.81022 0.01192 0.0
O69 O 0.20718 0.84038 0.28538 0.0
C70 C 0.4085 0.97741 0.44305 0.0
O71 O 0.42276 0.99016 0.50046 0.0
Cd72 Cd 0.45711 0.9724 0.61499 0.0
O73 O 0.40554 0.95512 0.4537 0.0
Cd74 Cd 0.41508 0.92423 0.56079 0.0
C75 C 0.49638 0.93192 0.48007 0.0
O76 O 0.42794 0.9427 0.69743 0.0
O77 O 0.44543 0.90646 0.67553 0.0
O78 O 0.35325 0.91987 0.57466 0.0
C79 C 0.44449 0.92446 0.72442 0.0
O80 O 0.49821 0.9505 0.52666 0.0
C81 C 0.35266 0.89771 0.55864 0.0
O82 O 0.46869 0.91926 0.4773 0.0
O83 O 0.3815 0.88772 0.54004 0.0
C84 C 0.18286 0.14276 0.69184 0.0
O85 O 0.16124 0.159 0.67482 0.0
Cd86 Cd 0.13373 0.17744 0.8022 0.0
O87 O 0.1859 0.13779 0.77015 0.0
Cd88 Cd 0.20355 0.17493 0.83283 0.0
C89 C 0.17187 0.21889 0.70579 0.0
O90 O 0.16027 0.18558 0.94401 0.0
O91 O 0.20399 0.20889 0.91158 0.0
O92 O 0.23605 0.1497 0.9243 0.0
C93 C 0.17839 0.20423 0.95977 0.0
O94 O 0.1432 0.21562 0.74474 0.0
C95 C 0.26613 0.1561 0.90016 0.0
O96 O 0.19698 0.20402 0.71395 0.0
O97 O 0.26779 0.17227 0.8431 0.0
C98 C 0.15382 0.06455 0.93518 0.0
O99 O 0.1452 0.04903 0.99016 0.0
Cd100 Cd 0.0979 0.0607 0.08389 0.0
O101 O 0.1444 0.08597 0.94602 0.0
Cd102 Cd 0.11801 0.10891 0.06317 0.0
C103 C 0.04787 0.09504 0.95366 0.0
O104 O 0.10424 0.08837 0.19991 0.0
O105 O 0.07236 0.11804 0.1556 0.0
O106 O 0.17438 0.12182 0.10334 0.0
C107 C 0.07985 0.10337 0.2144 0.0
O108 O 0.05153 0.07526 -0.00778 0.0
C109 C 0.16782 0.14393 0.1009 0.0
O110 O 0.07025 0.11161 0.96272 0.0
O111 O 0.13765 0.1503 0.07601 0.0
C112 C 0.81803 0.83449 0.65773 0.0
O113 O 0.78989 0.84652 0.66294 0.0
Cd114 Cd 0.73823 0.83839 0.76704 0.0
O115 O 0.82275 0.8176 0.71031 0.0
Cd116 Cd 0.77221 0.82479 0.79367 0.0
C117 C 0.71374 0.81019 0.63401 0.0
O118 O 0.73002 0.81113 0.89235 0.0
O119 O 0.77806 0.79046 0.88536 0.0
O120 O 0.77229 0.86859 0.8269 0.0
C121 C 0.74814 0.7936 0.91855 0.0
O122 O 0.69297 0.82282 0.67728 0.0
C123 C 0.80087 0.86701 0.86782 0.0
O124 O 0.74558 0.80923 0.65608 0.0
O125 O 0.81478 0.8466 0.87368 0.0
C126 C 0.88302 0.06087 0.44697 0.0
O127 O 0.89458 0.04617 0.50201 0.0
Cd128 Cd 0.93299 0.06004 0.61656 0.0
O129 O 0.88497 0.083 0.46105 0.0
Cd130 Cd 0.89971 0.11199 0.56833 0.0
C131 C 0.9781 0.09716 0.48172 0.0
O132 O 0.91256 0.09258 0.70041 0.0
O133 O 0.93321 0.12826 0.68115 0.0
O134 O 0.84001 0.11487 0.59858 0.0
C135 C 0.93222 0.10947 0.72631 0.0
O136 O 0.9769 0.07841 0.52751 0.0
C137 C 0.8362 0.13625 0.57395 0.0
O138 O 0.95299 0.11217 0.48105 0.0
O139 O 0.86294 0.14702 0.54432 0.0
C140 C 0.70485 0.17314 0.03549 0.0
O141 O 0.7325 0.16054 0.03624 0.0
Cd142 Cd 0.79237 0.17671 0.09491 0.0
O143 O 0.7059 0.19315 0.07219 0.0
Cd144 Cd 0.76459 0.19034 0.11938 0.0
C145 C 0.80363 0.18382 0.92194 0.0
O146 O 0.81101 0.2161 0.15853 0.0
O147 O 0.7593 0.23163 0.15154 0.0
O148 O 0.777 0.15392 0.21245 0.0
C149 C 0.79154 0.23428 0.16649 0.0
O150 O 0.82885 0.17704 0.96803 0.0
C151 C 0.7529 0.15912 0.26501 0.0
O152 O 0.77476 0.18835 0.9579 0.0
O153 O 0.73519 0.17766 0.24919 0.0
C154 C 0.65447 0.96298 0.94874 0.0
O155 O 0.64299 0.97717 0.00552 0.0
Cd156 Cd 0.60225 0.96356 0.11484 0.0
O157 O 0.65029 0.94072 0.95729 0.0
Cd158 Cd 0.62965 0.91116 0.0594 0.0
C159 C 0.55292 0.92963 0.9765 0.0
O160 O 0.62168 0.93032 0.19768 0.0
O161 O 0.59438 0.89721 0.17287 0.0
O162 O 0.68935 0.89974 0.06991 0.0
C163 C 0.60025 0.91444 0.2232 0.0
O164 O 0.5562 0.94798 0.02373 0.0
C165 C 0.68436 0.87771 0.05702 0.0
O166 O 0.5765 0.91356 0.97373 0.0
O167 O 0.6533 0.87092 0.04166 0.0
C168 C 0.60567 0.16849 0.76611 0.0
O169 O 0.586 0.18639 0.75861 0.0
Cd170 Cd 0.56535 0.19603 0.61247 0.0
O171 O 0.61667 0.15925 0.69764 0.0
Cd172 Cd 0.62907 0.19174 0.59835 0.0
C173 C 0.5922 0.24504 0.66104 0.0
O174 O 0.59012 0.18362 0.47202 0.0
O175 O 0.63938 0.20261 0.45923 0.0
O176 O 0.6738 0.16256 0.60663 0.0
C177 C 0.61314 0.19329 0.42399 0.0
O178 O 0.56429 0.23826 0.62517 0.0
C179 C 0.69918 0.17679 0.59868 0.0
O180 O 0.6178 0.23067 0.66821 0.0
O181 O 0.6922 0.19883 0.59312 0.0
C182 C 0.66524 0.99972 0.61112 0.0
O183 O 0.65143 0.98624 0.55531 0.0
Cd184 Cd 0.61453 0.00111 0.44051 0.0
O185 O 0.66567 0.02207 0.59979 0.0
Cd186 Cd 0.64789 0.04991 0.48845 0.0
C187 C 0.56735 0.03841 0.56617 0.0
O188 O 0.6375 0.0314 0.34764 0.0
O189 O 0.61055 0.06409 0.38154 0.0
O190 O 0.70462 0.06656 0.4575 0.0
C191 C 0.61725 0.04841 0.3257 0.0
O192 O 0.5676 0.01941 0.52178 0.0
C193 C 0.69615 0.08764 0.47834 0.0
O194 O 0.59384 0.05211 0.56899 0.0
O195 O 0.6663 0.09053 0.51224 0.0
C196 C 0.91345 0.84027 0.37281 0.0
O197 O 0.94209 0.82948 0.38219 0.0
Cd198 Cd 0.93008 0.78895 0.32958 0.0
O199 O 0.89876 0.83685 0.30131 0.0
Cd200 Cd 0.85513 0.80646 0.28554 0.0
C201 C 0.86515 0.7831 0.47761 0.0
O202 O 0.8919 0.77719 0.20923 0.0
O203 O 0.84626 0.76524 0.27881 0.0
O204 O 0.82947 0.8261 0.16161 0.0
C205 C 0.87055 0.76047 0.22692 0.0
O206 O 0.89472 0.77615 0.44997 0.0
C207 C 0.79836 0.82481 0.18867 0.0
O208 O 0.84641 0.79746 0.43454 0.0
O209 O 0.79369 0.81543 0.26174 0.0
C210 C 0.8923 0.03351 0.09971 0.0
O211 O 0.9029 0.04955 0.04878 0.0
Cd212 Cd 0.94651 0.03904 0.94159 0.0
O213 O 0.89912 0.01193 0.08406 0.0
Cd214 Cd 0.92507 0.98832 0.97218 0.0
C215 C -0.00017 0.0057 0.06566 0.0
O216 O 0.93439 0.00907 0.83462 0.0
O217 O 0.96533 0.9778 0.86707 0.0
O218 O 0.87043 0.96971 0.93812 0.0
C219 C 0.95754 0.99379 0.81315 0.0
O220 O 0.99573 0.02533 0.02635 0.0
C221 C 0.87967 0.94919 0.96362 0.0
O222 O 0.97704 0.98926 0.06075 0.0
O223 O 0.91012 0.9471 -0.00499 0.0
C224 C 0.72375 0.68099 0.96029 0.0
O225 O 0.74844 0.66612 0.94877 0.0
Cd226 Cd 0.80205 0.67313 0.85037 0.0
O227 O 0.72418 0.70021 0.91818 0.0
Cd228 Cd 0.77329 0.69059 0.83437 0.0
C229 C 0.83415 0.68879 -0.00229 0.0
O230 O 0.81927 0.70657 0.754 0.0
O231 O 0.77309 0.72893 0.76698 0.0
O232 O 0.76594 0.64996 0.76661 0.0
C233 C 0.80364 0.72597 0.73749 0.0
O234 O 0.85054 0.67584 0.94525 0.0
C235 C 0.73915 0.65651 0.72497 0.0
O236 O 0.80327 0.69534 0.9797 0.0
O237 O 0.72873 0.6777 0.73578 0.0
C238 C 0.66252 0.48783 0.05053 0.0
O239 O 0.64646 0.50168 -0.00038 0.0
Cd240 Cd 0.60731 0.48784 0.88713 0.0
O241 O 0.66303 0.46564 0.03645 0.0
Cd242 Cd 0.64274 0.43726 0.93271 0.0
C243 C 0.56342 0.44999 0.0192 0.0
O244 O 0.62986 0.45698 0.79755 0.0
O245 O 0.60715 0.42229 0.82296 0.0
O246 O 0.69991 0.42173 0.9036 0.0
C247 C 0.61019 0.43995 0.77316 0.0
O248 O 0.5627 0.46886 0.97403 0.0
C249 C 0.69257 0.40079 0.92849 0.0
O250 O 0.58994 0.43626 0.01906 0.0
O251 O 0.66258 0.39742 0.96114 0.0
C252 C 0.60608 0.32532 0.27291 0.0
O253 O 0.58645 0.30767 0.25919 0.0
Cd254 Cd 0.56565 0.30088 0.11125 0.0
O255 O 0.61672 0.3366 0.20816 0.0
Cd256 Cd 0.6347 0.30824 0.09923 0.0
C257 C 0.60087 0.25278 0.14989 0.0
O258 O 0.59295 0.31689 0.98019 0.0
O259 O 0.64074 0.29695 0.95756 0.0
O260 O 0.67422 0.34066 0.10147 0.0
C261 C 0.61339 0.30635 0.92785 0.0
O262 O 0.573 0.25899 0.11231 0.0
C263 C 0.7021 0.32861 0.09909 0.0
O264 O 0.62521 0.26794 0.16235 0.0
O265 O 0.69912 0.30607 0.09801 0.0
C266 C 0.87411 0.49414 0.58332 0.0
O267 O 0.88468 0.47901 0.52862 0.0
Cd268 Cd 0.92334 0.48973 0.41066 0.0
O269 O 0.87768 0.51622 0.56912 0.0
Cd270 Cd 0.89702 0.54328 0.45731 0.0
C271 C 0.97507 0.52473 0.53783 0.0
O272 O 0.90391 0.52189 0.32278 0.0
O273 O 0.93166 0.5552 0.34066 0.0
O274 O 0.83843 0.55837 0.44343 0.0
C275 C 0.92542 0.53727 0.29386 0.0
O276 O 0.97133 0.50581 0.49383 0.0
C277 C 0.84666 0.57994 0.45694 0.0
O278 O 0.95153 0.54086 0.53908 0.0
O279 O 0.87843 0.5844 0.47432 0.0
C280 C 0.71015 0.31169 0.52742 0.0
O281 O 0.73789 0.32417 0.52996 0.0
Cd282 Cd 0.79695 0.30543 0.58538 0.0
O283 O 0.71146 0.29103 0.559 0.0
Cd284 Cd 0.77044 0.29406 0.60531 0.0
C285 C 0.81039 0.30061 0.41169 0.0
O286 O 0.8133 0.2667 0.6564 0.0
O287 O 0.76079 0.25339 0.64026 0.0
O288 O 0.78329 0.33132 0.69479 0.0
C289 C 0.79189 0.24956 0.66363 0.0
O290 O 0.83535 0.30523 0.46182 0.0
C291 C 0.75793 0.32711 0.74479 0.0
O292 O 0.7805 0.29721 0.44391 0.0
O293 O 0.7398 0.30877 0.72925 0.0
C294 C 0.87442 0.46126 0.92791 0.0
O295 O 0.88805 0.47508 0.98297 0.0
Cd296 Cd 0.9257 0.45966 0.09609 0.0
O297 O 0.87447 0.43896 0.94027 0.0
Cd298 Cd 0.88979 0.40967 0.04825 0.0
C299 C 0.96962 0.42127 0.96431 0.0
O300 O 0.90226 0.4287 0.18418 0.0
O301 O 0.92358 0.39349 0.159 0.0
O302 O 0.83004 0.40284 0.07706 0.0
C303 C 0.92093 0.41117 0.20908 0.0
O304 O 0.96958 0.44023 0.00898 0.0
C305 C 0.82972 0.38103 0.05583 0.0
O306 O 0.94338 0.40722 0.9635 0.0
O307 O 0.85799 0.37219 0.02695 0.0
C308 C 0.62562 0.67461 0.23745 0.0
O309 O 0.60013 0.68888 0.23674 0.0
Cd310 Cd 0.62365 0.72247 0.32199 0.0
O311 O 0.64061 0.6724 0.30907 0.0
Cd312 Cd 0.69796 0.68817 0.32777 0.0
C313 C 0.69022 0.73085 0.17419 0.0
O314 O 0.66858 0.71406 0.42886 0.0
O315 O 0.72336 0.72016 0.40421 0.0
O316 O 0.71546 0.6525 0.40565 0.0
C317 C 0.69526 0.72725 0.43812 0.0
O318 O 0.66272 0.73796 0.21249 0.0
C319 C 0.74578 0.6518 0.37318 0.0
O320 O 0.70586 0.71175 0.19651 0.0
O321 O 0.75325 0.66748 0.31759 0.0
C322 C 0.646 0.51345 0.39402 0.0
O323 O 0.6409 0.49707 0.4484 0.0
Cd324 Cd 0.59083 0.50495 0.54011 0.0
O325 O 0.63185 0.5335 0.40545 0.0
Cd326 Cd 0.60343 0.5528 0.52425 0.0
C327 C 0.53499 0.53494 0.41347 0.0
O328 O 0.59055 0.53188 0.66064 0.0
O329 O 0.55788 0.56142 0.61749 0.0
O330 O 0.65869 0.56659 0.57095 0.0
C331 C 0.56538 0.54633 0.67504 0.0
O332 O 0.54177 0.51513 0.44915 0.0
C333 C 0.65259 0.58844 0.55686 0.0
O334 O 0.55475 0.55287 0.42516 0.0
O335 O 0.62309 0.59387 0.52474 0.0
C336 C 0.17512 0.3636 0.22465 0.0
O337 O 0.15518 0.34733 0.19772 0.0
Cd338 Cd 0.13039 0.32158 0.31142 0.0
O339 O 0.18186 0.36317 0.30373 0.0
Cd340 Cd 0.19712 0.32148 0.31856 0.0
C341 C 0.15667 0.28175 0.19008 0.0
O342 O 0.1624 0.31076 0.4448 0.0
O343 O 0.19863 0.28537 0.38741 0.0
O344 O 0.24783 0.32985 0.40324 0.0
C345 C 0.17976 0.29138 0.45019 0.0
O346 O 0.12984 0.28447 0.23651 0.0
C347 C 0.26956 0.32844 0.34244 0.0
O348 O 0.18206 0.29631 0.1959 0.0
O349 O 0.2576 0.32349 0.26869 0.0
C350 C 0.3689 0.49618 0.90523 0.0
O351 O 0.38292 0.48216 0.95912 0.0
Cd352 Cd 0.42092 0.49625 0.07372 0.0
O353 O 0.36842 0.51842 0.91936 0.0
Cd354 Cd 0.38411 0.54733 0.02919 0.0
C355 C 0.4632 0.53537 0.94031 0.0
O356 O 0.3986 0.52728 0.16168 0.0
O357 O 0.41941 0.5627 0.13915 0.0
O358 O 0.32406 0.55651 0.05675 0.0
C359 C 0.41813 0.54437 0.18637 0.0
O360 O 0.46352 0.51647 0.98543 0.0
C361 C 0.32679 0.57859 0.04038 0.0
O362 O 0.43695 0.54943 0.94053 0.0
O363 O 0.35629 0.58611 0.01445 0.0
C364 C 0.17841 0.67326 0.55637 0.0
O365 O 0.20791 0.66283 0.56154 0.0
Cd366 Cd 0.26325 0.68102 0.63427 0.0
O367 O 0.17447 0.69266 0.5964 0.0
Cd368 Cd 0.23013 0.69239 0.66244 0.0
C369 C 0.2724 0.70073 0.47106 0.0
O370 O 0.27339 0.71715 0.72663 0.0
O371 O 0.22043 0.73097 0.72051 0.0
O372 O 0.24123 0.65198 0.72907 0.0
C373 C 0.25207 0.734 0.74171 0.0
O374 O 0.29832 0.69346 0.51366 0.0
C375 C 0.21486 0.65372 0.77815 0.0
O376 O 0.24256 0.70018 0.50583 0.0
O377 O 0.19709 0.67273 0.77325 0.0
C378 C 0.13073 0.44916 0.42497 0.0
O379 O 0.1204 0.46404 0.48075 0.0
Cd380 Cd 0.07932 0.45264 0.59238 0.0
O381 O 0.12571 0.42706 0.43644 0.0
Cd382 Cd 0.10469 0.39993 0.54761 0.0
C383 C 0.02865 0.41779 0.46144 0.0
O384 O 0.09642 0.42064 0.68387 0.0
O385 O 0.06744 0.38813 0.65879 0.0
O386 O 0.1636 0.38831 0.56447 0.0
C387 C 0.07419 0.40521 0.70911 0.0
O388 O 0.03246 0.43669 0.50546 0.0
C389 C 0.15845 0.36603 0.561 0.0
O390 O 0.05186 0.40146 0.46103 0.0
O391 O 0.12755 0.35891 0.5457 0.0
C392 C 0.09496 0.65792 0.26112 0.0
O393 O 0.0777 0.6763 0.24084 0.0
Cd394 Cd 0.07935 0.69518 0.09944 0.0
O395 O 0.11177 0.6475 0.20237 0.0
Cd396 Cd 0.15402 0.67196 0.12858 0.0
C397 C 0.13192 0.72546 0.22201 0.0
O398 O 0.12335 0.68289 -0.00273 0.0
O399 O 0.17385 0.6985 0.02444 0.0
O400 O 0.18113 0.63486 0.09261 0.0
C401 C 0.1475 0.69738 0.97602 0.0
O402 O 0.10801 0.7282 0.16619 0.0
C403 C 0.21162 0.64085 0.11532 0.0
O404 O 0.14892 0.70591 0.2282 0.0
O405 O 0.21533 0.6613 0.14898 0.0
C406 C 0.13502 0.48326 0.08358 0.0
O407 O 0.12087 0.46919 0.03027 0.0
Cd408 Cd 0.08094 0.48269 0.91951 0.0
O409 O 0.13375 0.50557 0.07119 0.0
Cd410 Cd 0.11138 0.53262 0.96137 0.0
C411 C 0.03296 0.51864 0.04834 0.0
O412 O 0.09987 0.51328 0.82229 0.0
O413 O 0.07082 0.54491 0.85863 0.0
O414 O 0.16588 0.55194 0.92237 0.0
C415 C 0.0779 0.52945 0.80229 0.0
O416 O 0.03394 0.49954 0.00456 0.0
C417 C 0.15599 0.57252 0.94579 0.0
O418 O 0.05845 0.53324 0.04799 0.0
O419 O 0.12663 0.57397 0.98325 0.0
C420 C 0.28822 0.36732 -0.0024 0.0
O421 O 0.29235 0.37413 0.92122 0.0
Cd422 Cd 0.34813 0.35094 0.90555 0.0
O423 O 0.30622 0.34972 0.0212 0.0
Cd424 Cd 0.32146 0.32819 0.88341 0.0
C425 C 0.34895 0.29889 0.02014 0.0
O426 O 0.36418 0.3354 0.76822 0.0
O427 O 0.37132 0.30386 0.84385 0.0
O428 O 0.28809 0.34703 0.77489 0.0
C429 C 0.37642 0.31446 0.77351 0.0
O430 O 0.36271 0.31956 0.01678 0.0
C431 C 0.26657 0.33033 0.7619 0.0
O432 O 0.3248 0.29366 0.9679 0.0
O433 O 0.2686 0.3122 0.81058 0.0
C434 C 0.38408 0.4682 0.56014 0.0
O435 O 0.39369 0.48481 0.51047 0.0
Cd436 Cd 0.44058 0.47733 0.40955 0.0
O437 O 0.39393 0.44707 0.54544 0.0
Cd438 Cd 0.42648 0.4256 0.43516 0.0
C439 C 0.49694 0.4469 0.53587 0.0
O440 O 0.43624 0.44734 0.30021 0.0
O441 O 0.47262 0.41967 0.34068 0.0
O442 O 0.38062 0.40402 0.36861 0.0
C443 C 0.46277 0.43432 0.28378 0.0
O444 O 0.49001 0.46637 0.49792 0.0
C445 C 0.38743 0.38418 0.40347 0.0
O446 O 0.47702 0.42885 0.52817 0.0
O447 O 0.41242 0.38341 0.457 0.0
C448 C 0.21265 0.14824 0.54998 0.0
C449 C 0.21438 0.14142 0.63655 0.0
H450 H 0.24086 0.16054 0.43981 0.0
C451 C 0.24748 0.13828 0.67415 0.0
H452 H 0.18767 0.15081 0.51907 0.0
C453 C 0.27776 0.14477 0.62991 0.0
C454 C 0.27565 0.15324 0.54573 0.0
H455 H 0.2499 0.13277 0.74028 0.0
H456 H 0.3026 0.14423 0.66279 0.0
C457 C 0.24308 0.15384 0.50469 0.0
C458 C 0.17408 0.0664 0.69934 0.0
C459 C 0.17527 0.04202 0.67989 0.0
H460 H 0.16689 0.09268 0.79634 0.0
C461 C 0.1779 0.02561 0.7478 0.0
H462 H 0.17256 0.07956 0.64881 0.0
C463 C 0.17432 0.03316 0.83271 0.0
C464 C 0.16846 0.05726 0.85125 0.0
H465 H 0.17931 0.00669 0.73536 0.0
H466 H 0.17328 0.01988 0.88291 0.0
C467 C 0.17078 0.07393 0.78423 0.0
C468 C 0.12642 0.83481 -0.00807 0.0
C469 C 0.15768 0.84757 0.00158 0.0
H470 H 0.08462 0.82526 0.90829 0.0
C471 C 0.16621 0.8649 0.94018 0.0
H472 H 0.11873 0.8216 0.03875 0.0
C473 C 0.1465 0.86709 0.86524 0.0
C474 C 0.11801 0.8519 0.85008 0.0
H475 H 0.18981 0.87532 0.94626 0.0
H476 H 0.1557 0.87904 0.81573 0.0
C477 C 0.10669 0.83701 0.91701 0.0
C478 C 0.406 0.02077 0.25846 0.0
C479 C 0.40535 0.00513 0.18798 0.0
H480 H 0.40742 0.02431 0.39503 0.0
C481 C 0.39937 0.98086 0.20277 0.0
H482 H 0.41034 0.03963 0.24943 0.0
C483 C 0.39712 0.97216 0.28644 0.0
C484 C 0.40142 0.98748 0.35706 0.0
H485 H 0.39839 0.9684 0.14995 0.0
H486 H 0.39457 0.95314 0.29544 0.0
C487 C 0.40434 0.01201 0.34217 0.0
C488 C 0.90189 0.83368 0.52999 0.0
C489 C 0.8908 0.84238 0.44986 0.0
H490 H 0.88733 0.82392 0.65778 0.0
C491 C 0.85662 0.85122 0.44243 0.0
H492 H 0.92811 0.827 0.53874 0.0
C493 C 0.83338 0.84975 0.51146 0.0
C494 C 0.84374 0.8392 0.58902 0.0
H495 H 0.84736 0.85831 0.38205 0.0
H496 H 0.8068 0.85573 0.50257 0.0
C497 C 0.87849 0.83182 0.59836 0.0
C498 C 0.86997 0.07006 0.29378 0.0
C499 C 0.87409 0.05299 0.35919 0.0
H500 H 0.8725 0.07732 0.15929 0.0
C501 C 0.87601 0.0289 0.33661 0.0
H502 H 0.86775 0.08881 0.30882 0.0
C503 C 0.87804 0.02232 0.25049 0.0
C504 C 0.87879 0.03976 0.18558 0.0
H505 H 0.87869 0.01529 0.38527 0.0
H506 H 0.88216 0.00372 0.2356 0.0
C507 C 0.87265 0.06353 0.20775 0.0
C508 C 0.61936 0.17931 0.91818 0.0
C509 C 0.62479 0.16423 0.84755 0.0
H510 H 0.64038 0.19376 0.03399 0.0
C511 C 0.6534 0.14855 0.84938 0.0
H512 H 0.59752 0.1915 0.91938 0.0
C513 C 0.67805 0.14984 0.91539 0.0
C514 C 0.6746 0.16686 0.98076 0.0
H515 H 0.65836 0.13661 0.79631 0.0
H516 H 0.70117 0.13886 0.91121 0.0
C517 C 0.64406 0.18066 0.98391 0.0
C518 C 0.67083 0.99673 0.85159 0.0
C519 C 0.6672 0.9722 0.86547 0.0
H520 H 0.67429 0.02473 0.75954 0.0
C521 C 0.67061 0.95665 0.79521 0.0
H522 H 0.66877 0.00917 0.90431 0.0
C523 C 0.67332 0.96555 0.71193 0.0
C524 C 0.67325 0.99017 0.69734 0.0
H525 H 0.66842 0.93759 0.80356 0.0
H526 H 0.673 0.95317 0.65878 0.0
C527 C 0.67412 0.00563 0.76834 0.0
C528 C 0.66501 0.6896 0.02173 0.0
C529 C 0.69629 0.67666 0.02466 0.0
H530 H 0.61754 0.6987 0.08538 0.0
C531 C 0.70198 0.6608 0.09271 0.0
H532 H 0.65977 0.70177 0.96949 0.0
C533 C 0.67795 0.65922 0.15978 0.0
C534 C 0.64767 0.67332 0.15967 0.0
H535 H 0.72579 0.65052 0.09642 0.0
H536 H 0.68382 0.64773 0.21358 0.0
C537 C 0.64073 0.68775 0.08807 0.0
C538 C 0.66211 0.52612 0.24616 0.0
C539 C 0.66247 0.50849 0.31029 0.0
H540 H 0.66254 0.53347 0.11177 0.0
C541 C 0.67288 0.48538 0.28853 0.0
H542 H 0.65509 0.54431 0.26108 0.0
C543 C 0.67792 0.4793 0.20269 0.0
C544 C 0.67192 0.49615 0.13738 0.0
H545 H 0.67414 0.47152 0.33663 0.0
H546 H 0.68281 0.46081 0.18744 0.0
C547 C 0.6666 0.51998 0.16029 0.0
C548 C 0.65497 0.34239 0.36011 0.0
C549 C 0.6266 0.32659 0.35358 0.0
H550 H 0.70371 0.35018 0.42089 0.0
C551 C 0.62284 0.30882 0.41629 0.0
H552 H 0.65863 0.35638 0.31328 0.0
C553 C 0.64884 0.3052 0.4777 0.0
C554 C 0.67906 0.31937 0.47816 0.0
H555 H 0.60126 0.29643 0.41378 0.0
H556 H 0.64633 0.29026 0.52101 0.0
C557 C 0.68094 0.33881 0.4218 0.0
C558 C 0.85953 0.45421 0.77403 0.0
C559 C 0.86456 0.47031 0.84208 0.0
H560 H 0.85849 0.44909 0.63813 0.0
C561 C 0.86566 0.49473 0.8239 0.0
H562 H 0.85818 0.43524 0.78565 0.0
C563 C 0.86523 0.50267 0.73904 0.0
C564 C 0.86428 0.48631 0.67069 0.0
H565 H 0.86915 0.50762 0.87474 0.0
H566 H 0.86847 0.52152 0.72722 0.0
C567 C 0.8597 0.46211 0.68917 0.0
C568 C 0.22457 0.37316 0.01909 0.0
C569 C 0.25866 0.37508 0.051 0.0
H570 H 0.1706 0.36825 0.05008 0.0
C571 C 0.26364 0.37894 0.13881 0.0
H572 H 0.22013 0.36997 0.95151 0.0
C573 C 0.23532 0.37848 0.19509 0.0
C574 C 0.20159 0.37333 0.16467 0.0
H575 H 0.28972 0.38061 0.16463 0.0
H576 H 0.24053 0.37966 0.26315 0.0
C577 C 0.19623 0.37211 0.0756 0.0
C578 C 0.35974 0.49746 0.66542 0.0
C579 C 0.36849 0.47392 0.64464 0.0
H580 H 0.35172 0.52289 0.76495 0.0
C581 C 0.3687 0.45675 0.71038 0.0
H582 H 0.35882 0.51105 0.61632 0.0
C583 C 0.36511 0.46356 0.79608 0.0
C584 C 0.36077 0.48763 0.81752 0.0
H585 H 0.37486 0.43834 0.69665 0.0
H586 H 0.36864 0.45027 0.84553 0.0
C587 C 0.35566 0.50421 0.751 0.0
C588 C 0.10003 0.67427 0.41017 0.0
C589 C 0.1091 0.65673 0.34979 0.0
H590 H 0.11485 0.69323 0.5232 0.0
C591 C 0.1373 0.64157 0.36844 0.0
H592 H 0.07834 0.68616 0.39863 0.0
C593 C 0.15838 0.64571 0.44003 0.0
C594 C 0.1516 0.66502 0.4947 0.0
H595 H 0.14491 0.62772 0.32399 0.0
H596 H 0.18138 0.63483 0.44887 0.0
C597 C 0.12113 0.67842 0.48166 0.0
C598 C 0.14449 0.44145 0.27062 0.0
C599 C 0.14258 0.45753 0.33966 0.0
H600 H 0.14403 0.43697 0.13443 0.0
C601 C 0.14639 0.48192 0.32293 0.0
H602 H 0.14219 0.42247 0.28111 0.0
C603 C 0.14803 0.4902 0.23856 0.0
C604 C 0.14534 0.47427 0.16926 0.0
H605 H 0.14556 0.49477 0.37458 0.0
H606 H 0.14823 0.50924 0.22799 0.0
C607 C 0.14562 0.44974 0.18623 0.0
C608 C 0.18403 0.18064 0.18252 0.0
C609 C 0.19379 0.16082 0.13317 0.0
H610 H 0.20111 0.20752 0.27109 0.0
C611 C 0.22898 0.15475 0.12647 0.0
H612 H 0.15685 0.18545 0.18925 0.0
C613 C 0.25399 0.16736 0.17141 0.0
C614 C 0.24427 0.18594 0.22657 0.0
H615 H 0.23703 0.13935 0.09003 0.0
H616 H 0.28083 0.16154 0.16654 0.0
C617 C 0.20924 0.19315 0.22948 0.0
C618 C 0.18914 0.8781 0.39716 0.0
C619 C 0.21867 0.87888 0.34406 0.0
H620 H 0.15408 0.89753 0.47716 0.0
C621 C 0.23846 0.89988 0.34071 0.0
H622 H 0.17357 0.86209 0.40204 0.0
C623 C 0.22728 0.92026 0.38406 0.0
C624 C 0.19616 0.91997 0.43161 0.0
H625 H 0.26159 0.90094 0.30116 0.0
H626 H 0.24195 0.93657 0.37631 0.0
C627 C 0.17803 0.89842 0.44062 0.0
C628 C 0.28793 0.89619 0.56223 0.0
C629 C 0.31995 0.88421 0.56678 0.0
H630 H 0.2326 0.89382 0.57399 0.0
C631 C 0.32035 0.85979 0.5858 0.0
H632 H 0.28686 0.91502 0.54777 0.0
C633 C 0.28918 0.84771 0.60219 0.0
C634 C 0.25722 0.8598 0.59805 0.0
H635 H 0.34476 0.8502 0.59042 0.0
H636 H 0.29007 0.82893 0.61754 0.0
C637 C 0.25687 0.88406 0.57714 0.0
C638 C 0.29257 0.12146 0.97377 0.0
C639 C 0.29711 0.1434 0.93218 0.0
H640 H 0.31669 0.09033 0.0245 0.0
C641 C 0.33104 0.15186 0.91754 0.0
H642 H 0.26681 0.11431 0.98549 0.0
C643 C 0.35991 0.13804 0.9411 0.0
C644 C 0.35501 0.11549 0.97805 0.0
H645 H 0.33523 0.16875 0.88581 0.0
H646 H 0.38584 0.14435 0.92594 0.0
C647 C 0.32116 0.10764 -0.00394 0.0
C648 C 0.8245 0.93095 0.91059 0.0
C649 C 0.85711 0.92838 0.95045 0.0
H650 H 0.78084 0.91341 0.8535 0.0
C651 C 0.86923 0.90553 0.97085 0.0
H652 H 0.81437 0.94838 0.8947 0.0
C653 C 0.8501 0.88556 0.94706 0.0
C654 C 0.8185 0.8881 0.90263 0.0
H655 H 0.89414 0.90302 0.00217 0.0
H656 H 0.86069 0.86813 0.96099 0.0
C657 C 0.80531 0.91095 0.88693 0.0
C658 C 0.74214 0.14547 0.63189 0.0
C659 C 0.73489 0.16756 0.59457 0.0
H660 H 0.77971 0.11846 0.65476 0.0
C661 C 0.76131 0.17973 0.55029 0.0
H662 H 0.72219 0.1357 0.66612 0.0
C663 C 0.79471 0.16986 0.54401 0.0
C664 C 0.80176 0.14761 0.58108 0.0
H665 H 0.75606 0.19669 0.52006 0.0
H666 H 0.81473 0.17942 0.50938 0.0
C667 C 0.77516 0.13562 0.62524 0.0
C668 C 0.74833 0.10449 0.40467 0.0
C669 C 0.71623 0.10811 0.44596 0.0
H670 H 0.7854 0.11803 0.31453 0.0
C671 C 0.69995 0.13039 0.4393 0.0
H672 H 0.76162 0.08754 0.40916 0.0
C673 C 0.71351 0.1478 0.38521 0.0
C674 C 0.74346 0.14316 0.33635 0.0
H675 H 0.67513 0.13371 0.46998 0.0
H676 H 0.69911 0.16422 0.3773 0.0
C677 C 0.76184 0.1219 0.35011 0.0
C678 C 0.74735 0.868 0.05453 0.0
C679 C 0.71301 0.86088 0.07162 0.0
H680 H 0.80152 0.86167 0.07712 0.0
C681 C 0.70703 0.83982 0.11752 0.0
H682 H 0.7525 0.88425 0.01943 0.0
C683 C 0.73504 0.82732 0.15285 0.0
C684 C 0.7693 0.83541 0.14059 0.0
H685 H 0.68073 0.83408 0.13188 0.0
H686 H 0.72985 0.81189 0.19245 0.0
C687 C 0.77532 0.85515 0.08772 0.0
C688 C 0.6681 0.63073 0.58658 0.0
C689 C 0.67747 0.60663 0.58565 0.0
H690 H 0.68054 0.6656 0.63169 0.0
C691 C 0.70943 0.59962 0.62161 0.0
H692 H 0.64376 0.63664 0.55867 0.0
C693 C 0.73041 0.61612 0.66346 0.0
C694 C 0.71973 0.63989 0.67023 0.0
H695 H 0.7176 0.58119 0.62067 0.0
H696 H 0.75422 0.61003 0.69354 0.0
C697 C 0.68909 0.64726 0.62867 0.0
C698 C 0.701 0.35754 0.90556 0.0
C699 C 0.71485 0.38061 0.90429 0.0
H700 H 0.7049 0.32207 0.85855 0.0
C701 C 0.74713 0.38462 0.86437 0.0
H702 H 0.67617 0.35388 0.93574 0.0
C703 C 0.76312 0.36647 0.81776 0.0
C704 C 0.74706 0.34412 0.81117 0.0
H705 H 0.75862 0.40221 0.86333 0.0
H706 H 0.78655 0.37047 0.78189 0.0
C707 C 0.71723 0.33936 0.86025 0.0
C708 C 0.73731 0.36524 0.11244 0.0
C709 C 0.73589 0.34089 0.09339 0.0
H710 H 0.76764 0.39686 0.11437 0.0
C711 C 0.76592 0.32941 0.06272 0.0
H712 H 0.71459 0.37461 0.13605 0.0
C713 C 0.7967 0.34233 0.04973 0.0
C714 C 0.79774 0.36684 0.06756 0.0
H715 H 0.76535 0.31068 0.04668 0.0
H716 H 0.8195 0.33323 0.02538 0.0
C717 C 0.76777 0.37804 0.09959 0.0
C718 C 0.80726 0.63867 0.39262 0.0
C719 C 0.77149 0.63385 0.39977 0.0
H720 H 0.85922 0.62549 0.40796 0.0
C721 C 0.7606 0.61177 0.43202 0.0
H722 H 0.81628 0.65567 0.36871 0.0
C723 C 0.78514 0.59439 0.45326 0.0
C724 C 0.82093 0.59906 0.44457 0.0
H725 H 0.73315 0.60768 0.43814 0.0
H726 H 0.77613 0.57719 0.47528 0.0
C727 C 0.83179 0.62152 0.41586 0.0
C728 C 0.34857 0.35205 0.45457 0.0
C729 C 0.36485 0.3638 0.38641 0.0
H730 H 0.30468 0.33123 0.4934 0.0
C731 C 0.35403 0.35933 0.30209 0.0
H732 H 0.35657 0.35536 0.52004 0.0
C733 C 0.325 0.34509 0.28658 0.0
C734 C 0.30579 0.336 0.35558 0.0
H735 H 0.36654 0.3682 0.24867 0.0
H736 H 0.31577 0.34315 0.2214 0.0
C737 C 0.31888 0.33838 0.43927 0.0
C738 C 0.30288 0.61931 0.06746 0.0
C739 C 0.29732 0.59481 0.05625 0.0
H740 H 0.28004 0.65312 0.09723 0.0
C741 C 0.26354 0.58562 0.06599 0.0
H742 H 0.32873 0.62683 0.06105 0.0
C743 C 0.23583 0.60061 0.08637 0.0
C744 C 0.2414 0.62503 0.0985 0.0
H745 H 0.25848 0.56681 0.05784 0.0
H746 H 0.21002 0.59303 0.09299 0.0
C747 C 0.27516 0.63429 0.08916 0.0
C748 C 0.17217 0.63592 0.87986 0.0
C749 C 0.20334 0.63387 0.83334 0.0
H750 H 0.13303 0.61819 0.95302 0.0
C751 C 0.22137 0.61213 0.83436 0.0
H752 H 0.1577 0.65243 0.88058 0.0
C753 C 0.20714 0.59236 0.8761 0.0
C754 C 0.17478 0.59408 0.91785 0.0
H755 H 0.24562 0.61007 0.79967 0.0
H756 H 0.22071 0.57551 0.87241 0.0
C757 C 0.15803 0.61625 0.92156 0.0
C758 C 0.20654 0.32357 0.70213 0.0
C759 C 0.24021 0.33307 0.69406 0.0
H760 H 0.15311 0.32654 0.6626 0.0
C761 C 0.24758 0.34851 0.62573 0.0
H762 H 0.20038 0.31141 0.75375 0.0
C763 C 0.22092 0.35691 0.57369 0.0
C764 C 0.18643 0.34999 0.58898 0.0
H765 H 0.27357 0.3556 0.61665 0.0
H766 H 0.22683 0.37052 0.52673 0.0
C767 C 0.17962 0.33207 0.64957 0.0
C768 C 0.36313 0.24012 0.13132 0.0
C769 C 0.37662 0.24771 0.21013 0.0
H770 H 0.3428 0.25074 0.00955 0.0
C771 C 0.38583 0.2717 0.22099 0.0
H772 H 0.35526 0.2218 0.12205 0.0
C773 C 0.37856 0.28828 0.15703 0.0
C774 C 0.36148 0.2811 0.08196 0.0
H775 H 0.39586 0.27794 0.28185 0.0
H776 H 0.38402 0.30688 0.16898 0.0
C777 C 0.35527 0.25677 0.06788 0.0
C778 C 0.04076 0.979 0.14302 0.0
C779 C 0.03101 0.00208 0.11911 0.0
H780 H 0.07396 0.95749 0.22046 0.0
C781 C 0.05038 0.02154 0.14977 0.0
H782 H 0.02667 0.96364 0.11946 0.0
C783 C 0.07785 0.018 0.20733 0.0
C784 C 0.08603 0.99495 0.23509 0.0
H785 H 0.04319 0.03954 0.13265 0.0
H786 H 0.09113 0.03329 0.234 0.0
C787 C 0.06801 0.97548 0.20031 0.0
C788 C 0.1603 0.74038 0.35437 0.0
C789 C 0.13829 0.74461 0.28455 0.0
H790 H 0.18202 0.75351 0.46999 0.0
C791 C 0.12099 0.76666 0.27834 0.0
H792 H 0.17335 0.72346 0.36229 0.0
C793 C 0.1252 0.78393 0.3421 0.0
C794 C 0.14711 0.77945 0.41207 0.0
H795 H 0.10369 0.77041 0.22523 0.0
H796 H 0.11116 0.80058 0.33709 0.0
C797 C 0.16504 0.75767 0.41661 0.0
C798 C 0.53192 0.06738 0.6487 0.0
C799 C 0.53657 0.04415 0.6185 0.0
H800 H 0.50379 0.09036 0.73209 0.0
C801 C 0.51293 0.0263 0.64349 0.0
H802 H 0.54928 0.08158 0.62921 0.0
C803 C 0.48682 0.03129 0.70339 0.0
C804 C 0.48392 0.05423 0.73817 0.0
H805 H 0.51579 0.00823 0.62052 0.0
H806 H 0.47031 0.01696 0.72587 0.0
C807 C 0.50572 0.0724 0.70741 0.0
C808 C 0.24865 0.71515 0.334 0.0
C809 C 0.27626 0.7149 0.3928 0.0
H810 H 0.22072 0.73527 0.24035 0.0
C811 C 0.30121 0.73314 0.39031 0.0
H812 H 0.22927 0.70113 0.33444 0.0
C813 C 0.29596 0.75294 0.33758 0.0
C814 C 0.26576 0.75453 0.28709 0.0
H815 H 0.32258 0.7334 0.43564 0.0
H816 H 0.3139 0.76776 0.34174 0.0
C817 C 0.24346 0.73484 0.28143 0.0
C818 C 0.48733 0.90489 0.82067 0.0
C819 C 0.46808 0.9253 0.79886 0.0
H820 H 0.5293 0.89027 0.89347 0.0
C821 C 0.47465 0.94667 0.8423 0.0
H822 H 0.48267 0.88806 0.78894 0.0
C823 C 0.50137 0.94785 0.903 0.0
C824 C 0.5221 0.92774 0.92049 0.0
H825 H 0.46023 0.96266 0.82685 0.0
H826 H 0.50674 0.96478 0.93334 0.0
C827 C 0.51418 0.90613 0.8804 0.0
C828 C 0.19987 0.23349 0.06331 0.0
C829 C 0.17145 0.22076 0.03036 0.0
H830 H 0.21733 0.2627 0.13801 0.0
C831 C 0.13754 0.22693 0.05557 0.0
H832 H 0.22636 0.22882 0.04609 0.0
C833 C 0.13227 0.24666 0.10913 0.0
C834 C 0.16087 0.26036 0.13674 0.0
H835 H 0.11527 0.21737 0.03048 0.0
H836 H 0.10595 0.2517 0.12628 0.0
C837 C 0.19467 0.25308 0.11536 0.0
C838 C 0.03556 0.12216 0.30821 0.0
C839 C 0.05827 0.10302 0.29232 0.0
H840 H 0.9926 0.13543 0.38075 0.0
C841 C 0.05717 0.08306 0.34595 0.0
H842 H 0.03612 0.13797 0.26855 0.0
C843 C 0.03214 0.08166 0.41081 0.0
C844 C 0.00783 0.10018 0.42271 0.0
H845 H 0.07436 0.0681 0.3351 0.0
H846 H 0.03086 0.06558 0.44887 0.0
C847 C 0.01058 0.12075 0.37258 0.0
C848 C 0.75235 0.75685 0.00975 0.0
C849 C 0.73384 0.77714 0.98328 0.0
H850 H 0.75294 0.726 0.09053 0.0
C851 C 0.70062 0.78143 0.01752 0.0
H852 H 0.77791 0.75297 0.98386 0.0
C853 C 0.68634 0.76605 0.07778 0.0
C854 C 0.70486 0.74591 0.10542 0.0
H855 H 0.68555 0.7968 -0.00188 0.0
H856 H 0.6608 0.77015 0.10327 0.0
C857 C 0.73795 0.74133 0.07035 0.0
C858 C 0.99563 0.07954 0.87598 0.0
C859 C 0.01695 0.09882 0.8995 0.0
H860 H 0.95137 0.06783 0.80364 0.0
C861 C 0.00828 0.12174 0.87148 0.0
H862 H 0.00179 0.06167 0.89646 0.0
C863 C 0.97945 0.12528 0.81888 0.0
C864 C 0.95881 0.10591 0.79291 0.0
H865 H 0.02394 0.13699 0.88942 0.0
H866 H 0.97394 0.14308 0.79667 0.0
C867 C 0.96672 0.08309 0.82323 0.0
C868 C 0.84177 0.27524 0.30923 0.0
C869 C 0.81603 0.29252 0.32362 0.0
H870 H 0.85385 0.24239 0.24666 0.0
C871 C 0.78814 0.29447 0.26599 0.0
H872 H 0.86363 0.27347 0.35269 0.0
C873 C 0.78228 0.27657 0.20618 0.0
C874 C 0.80447 0.25673 0.2032 0.0
H875 H 0.76823 0.3079 0.27526 0.0
H876 H 0.75839 0.277 0.16926 0.0
C877 C 0.83589 0.25723 0.24927 0.0
C878 C 0.55224 0.94319 0.40746 0.0
C879 C 0.52601 0.92621 0.42333 0.0
H880 H 0.59659 0.95283 0.3314 0.0
C881 C 0.52712 0.90442 0.37993 0.0
H882 H 0.5522 0.96017 0.44019 0.0
C883 C 0.55273 0.90017 0.31863 0.0
C884 C 0.57759 0.91771 0.29862 0.0
H885 H 0.50759 0.89088 0.39143 0.0
H886 H 0.55209 0.88343 0.28434 0.0
C887 C 0.57775 0.93901 0.34532 0.0
C888 C 0.63456 0.21976 0.21501 0.0
C889 C 0.60221 0.2298 0.19483 0.0
H890 H 0.66301 0.19825 0.30306 0.0
C891 C 0.57195 0.2208 0.23413 0.0
H892 H 0.65815 0.22605 0.18432 0.0
C893 C 0.57473 0.20507 0.30325 0.0
C894 C 0.60777 0.1982 0.33244 0.0
H895 H 0.54659 0.22812 0.21896 0.0
H896 H 0.55162 0.20097 0.34026 0.0
C897 C 0.63724 0.20373 0.28267 0.0
C898 C 0.55397 0.06886 0.15792 0.0
C899 C 0.54697 0.04766 0.11407 0.0
H900 H 0.58256 0.08574 0.25779 0.0
C901 C 0.56747 0.02741 0.13149 0.0
H902 H 0.53909 0.08483 0.14511 0.0
C903 C 0.59243 0.02787 0.19679 0.0
C904 C 0.59728 0.04861 0.24512 0.0
H905 H 0.56287 0.0108 0.09825 0.0
H906 H 0.60628 0.01167 0.21273 0.0
C907 C 0.57894 0.06934 0.22249 0.0
C908 C 0.88942 0.73374 0.1068 0.0
C909 C 0.8693 0.73767 0.18048 0.0
H910 H 0.89437 0.71374 0.99053 0.0
C911 C 0.84339 0.72105 0.20286 0.0
H912 H 0.90968 0.74614 0.08847 0.0
C913 C 0.83439 0.70289 0.14668 0.0
C914 C 0.85189 0.7006 0.06868 0.0
H915 H 0.82783 0.72327 0.2602 0.0
H916 H 0.81186 0.69195 0.16085 0.0
C917 C 0.88086 0.7151 0.05127 0.0
C918 C 0.00915 0.01967 0.62977 0.0
C919 C 0.03037 1.00011 0.60814 0.0
H920 H 0.96903 0.03303 0.71267 0.0
C921 C 0.02353 0.97794 0.64552 0.0
H922 H 0.01372 0.037 0.60167 0.0
C923 C 0.99777 0.9757 0.70767 0.0
C924 C 0.97841 0.99559 0.73428 0.0
H925 H 0.03898 0.96247 0.62922 0.0
H926 H 0.9942 0.95854 0.73798 0.0
C927 C 0.98339 0.01743 0.69274 0.0
C928 C 0.87131 0.75636 0.60335 0.0
C929 C 0.85082 0.77218 0.5555 0.0
H930 H 0.87221 0.72934 0.69917 0.0
C931 C 0.81546 0.77503 0.57639 0.0
H932 H 0.89876 0.75402 0.58962 0.0
C933 C 0.8002 0.76088 0.63943 0.0
C934 C 0.8202 0.74368 0.68199 0.0
H935 H 0.79921 0.78732 0.54114 0.0
H936 H 0.7725 0.76247 0.65128 0.0
C937 C 0.85609 0.74218 0.66588 0.0
C938 C 0.54093 0.423 0.61532 0.0
C939 C 0.52843 0.44529 0.58951 0.0
H940 H 0.57754 0.40395 0.6918 0.0
C941 C 0.54592 0.46595 0.61668 0.0
H942 H 0.52836 0.40676 0.59445 0.0
C943 C 0.5745 0.46434 0.67194 0.0
C944 C 0.58569 0.44205 0.70121 0.0
H945 H 0.53673 0.4834 0.59792 0.0
H946 H 0.58657 0.48049 0.69521 0.0
C947 C 0.56929 0.4214 0.67049 0.0
C948 C 0.5701 0.29203 0.82153 0.0
C949 C 0.60372 0.30049 0.83929 0.0
H950 H 0.53986 0.26735 0.7479 0.0
C951 C 0.63078 0.29573 0.78115 0.0
H952 H 0.54886 0.29541 0.86558 0.0
C953 C 0.62593 0.27932 0.71556 0.0
C954 C 0.5937 0.26797 0.706 0.0
H955 H 0.65685 0.30228 0.79293 0.0
H956 H 0.64823 0.27382 0.67789 0.0
C957 C 0.56506 0.27581 0.7546 0.0
C958 C 0.96967 0.55133 0.1899 0.0
C959 C 0.94827 0.5328 0.2197 0.0
H960 H 0.01323 0.56134 0.11296 0.0
C961 C 0.95262 0.50987 0.18596 0.0
H962 H 0.96672 0.56928 0.21407 0.0
C963 C 0.97939 0.50534 0.12721 0.0
C964 C 0.00225 0.52366 0.10218 0.0
H965 H 0.93663 0.49525 0.2082 0.0
H966 H 0.9832 0.48732 0.10463 0.0
C967 C 0.99647 0.54679 0.13225 0.0
C968 C 0.77467 0.21017 0.72021 0.0
C969 C 0.80081 0.22727 0.70822 0.0
H970 H 0.75648 0.18105 0.79521 0.0
C971 C 0.83279 0.22453 0.75093 0.0
H972 H 0.74973 0.21183 0.6885 0.0
C973 C 0.83649 0.20691 0.8137 0.0
C974 C 0.80818 0.19206 0.83363 0.0
H975 H 0.85353 0.23736 0.7423 0.0
H976 H 0.85956 0.20701 0.85366 0.0
C977 C 0.77859 0.19241 0.7812 0.0
C978 C 0.963 0.39211 0.30818 0.0
C979 C 0.94395 0.41242 0.28433 0.0
H980 H 0.00475 0.37788 0.38262 0.0
C981 C 0.9504 0.43404 0.32613 0.0
H982 H 0.95833 0.37509 0.27776 0.0
C983 C 0.97704 0.43558 0.38692 0.0
C984 C 0.9977 0.41556 0.40614 0.0
H985 H 0.93613 0.44996 0.30892 0.0
H986 H 0.98246 0.4527 0.41576 0.0
C987 C 0.98971 0.39368 0.36809 0.0
C988 C 0.66973 0.75689 0.54069 0.0
C989 C 0.69398 0.75105 0.47684 0.0
H990 H 0.65673 0.78134 0.64138 0.0
C991 C 0.71952 0.76773 0.4534 0.0
H992 H 0.6496 0.7444 0.55901 0.0
C993 C 0.72315 0.78879 0.49889 0.0
C994 C 0.70149 0.79347 0.56887 0.0
H995 H 0.73797 0.76398 0.40261 0.0
H996 H 0.74452 0.80061 0.48336 0.0
C997 C 0.67355 0.77809 0.58689 0.0
C998 C 0.54382 0.52496 0.80561 0.0
C999 C 0.54326 0.54496 0.7521 0.0
H1000 H 0.51892 0.50626 0.90785 0.0
C1001 C 0.51858 0.56297 0.76736 0.0
H1002 H 0.5625 0.51084 0.79532 0.0
C1003 C 0.49351 0.56037 0.83116 0.0
C1004 C 0.49263 0.53972 0.88135 0.0
H1005 H 0.51771 0.57878 0.72774 0.0
H1006 H 0.47409 0.57418 0.83895 0.0
C1007 C 0.51873 0.52237 0.86984 0.0
C1008 C 0.20569 0.2425 0.59989 0.0
C1009 C 0.17533 0.23952 0.64839 0.0
H1010 H 0.23091 0.26175 0.5002 0.0
C1011 C 0.14776 0.25589 0.63886 0.0
H1012 H 0.22757 0.23047 0.60663 0.0
C1013 C 0.14971 0.274 0.57773 0.0
C1014 C 0.17916 0.27578 0.52535 0.0
H1015 H 0.12417 0.25424 0.67646 0.0
H1016 H 0.12763 0.28572 0.56847 0.0
C1017 C 0.20756 0.26044 0.53897 0.0
C1018 C 0.48477 0.51692 0.33401 0.0
C1019 C 0.50348 0.5372 0.36005 0.0
H1020 H 0.44202 0.5033 0.26028 0.0
C1021 C 0.49163 0.55974 0.33522 0.0
H1022 H 0.49341 0.49929 0.35202 0.0
C1023 C 0.46246 0.56196 0.28292 0.0
C1024 C 0.4445 0.5417 0.25414 0.0
H1025 H 0.50515 0.57571 0.35517 0.0
H1026 H 0.45459 0.57961 0.26283 0.0
C1027 C 0.45533 0.51917 0.28183 0.0
C1028 C 0.24726 0.79499 0.839 0.0
C1029 C 0.27574 0.79451 0.89521 0.0
H1030 H 0.21809 0.77627 0.744 0.0
C1031 C 0.30016 0.776 0.88876 0.0
H1032 H 0.22813 0.80915 0.84271 0.0
C1033 C 0.29377 0.75675 0.8342 0.0
C1034 C 0.26306 0.75601 0.78531 0.0
H1035 H 0.32218 0.77516 0.93207 0.0
H1036 H 0.31144 0.74173 0.83524 0.0
C1037 C 0.24118 0.77599 0.78379 0.0
C1038 C 0.04974 0.4306 0.82675 0.0
C1039 C 0.05206 0.40854 0.78528 0.0
H1040 H 0.02162 0.45196 0.91674 0.0
C1041 C 0.0296 0.39003 0.81024 0.0
H1042 H 0.06667 0.44517 0.80867 0.0
C1043 C 0.00364 0.39393 0.87081 0.0
C1044 C -0.0002 0.41636 0.90852 0.0
H1045 H 0.03102 0.3727 0.78015 0.0
H1046 H 0.98594 0.37954 0.88611 0.0
C1047 C 0.02383 0.43446 0.88825 0.0
C1048 C 0.16426 0.73617 0.9137 0.0
C1049 C 0.14308 0.71579 0.90992 0.0
H1050 H 0.17542 0.77052 0.86385 0.0
C1051 C 0.11744 0.71417 0.8463 0.0
H1052 H 0.18407 0.73817 0.96262 0.0
C1053 C 0.11316 0.73273 0.78739 0.0
C1054 C 0.13407 0.75329 0.79251 0.0
H1055 H 0.10078 0.69866 0.8422 0.0
H1056 H 0.09325 0.73108 0.73862 0.0
C1057 C 0.15947 0.75479 0.85663 0.0
C1058 C 0.02708 0.50701 0.61168 0.0
C1059 C 0.00576 0.52688 0.59442 0.0
H1060 H 0.06711 0.49217 0.69162 0.0
C1061 C 0.0122 0.54827 0.6376 0.0
H1062 H 0.02291 0.49027 0.57897 0.0
C1063 C 0.03759 0.54933 0.70107 0.0
C1064 C 0.05699 0.52901 0.72318 0.0
H1065 H 0.99667 0.56396 0.62494 0.0
H1066 H 0.04087 0.56587 0.73572 0.0
C1067 C 0.05251 0.50806 0.67582 0.0
C1068 C 0.35619 0.3026 0.62985 0.0
C1069 C 0.37984 0.29932 0.6974 0.0
H1070 H 0.32767 0.28628 0.52799 0.0
C1071 C 0.39733 0.27746 0.70495 0.0
H1072 H 0.34181 0.31908 0.62352 0.0
C1073 C 0.38889 0.25853 0.65098 0.0
C1074 C 0.36253 0.26111 0.58934 0.0
H1075 H 0.41535 0.27442 0.75725 0.0
H1076 H 0.4016 0.24155 0.66072 0.0
C1077 C 0.34735 0.28358 0.57678 0.0
C1078 C 0.50882 0.4195 0.18641 0.0
C1079 C 0.48408 0.4371 0.20606 0.0
H1080 H 0.55299 0.40968 0.11167 0.0
C1081 C 0.48293 0.45791 0.15667 0.0
H1082 H 0.51 0.40307 0.22256 0.0
C1083 C 0.50781 0.46175 0.09264 0.0
C1084 C 0.53408 0.44477 0.0773 0.0
H1085 H 0.46403 0.47166 0.17028 0.0
H1086 H 0.50739 0.47843 0.05803 0.0
C1087 C 0.53353 0.42329 0.12282 0.0
loop_
_geom_bond_atom_site_label_1
_geom_bond_atom_site_label_2
_geom_bond_distance
_geom_bond_site_symmetry_2
_ccdc_geom_bond_type
C0 O1 1.306 . S
C0 O3 1.160 . S
O1 C0 1.306 . S
O1 Cd2 2.228 . S
Cd2 O1 2.228 . S
Cd2 O6 2.273 . S
Cd2 O10 2.277 . S
O3 C0 1.160 . S
O3 Cd4 2.203 . S
Cd4 O3 2.203 . S
Cd4 O6 2.411 . S
Cd4 O7 2.333 . S
Cd4 O8 2.352 . S
Cd4 O12 2.277 . S
Cd4 O13 2.356 . S
C5 O10 1.209 . S
C5 O12 1.226 . S
O6 Cd2 2.273 . S
O6 Cd4 2.411 . S
O6 C9 1.320 . S
O7 Cd4 2.333 . S
O7 C9 1.214 . S
O8 Cd4 2.352 . S
O8 C11 1.258 . S
C9 O6 1.320 . S
C9 O7 1.214 . S
O10 Cd2 2.277 . S
O10 C5 1.209 . S
C11 O8 1.258 . S
C11 O13 1.282 . S
O12 Cd4 2.277 . S
O12 C5 1.226 . S
O13 Cd4 2.356 . S
O13 C11 1.282 . S
C14 O15 1.306 . S
C14 O17 1.160 . S
O15 C14 1.306 . S
O15 Cd16 2.228 . S
Cd16 O15 2.228 . S
Cd16 O20 2.273 . S
Cd16 O24 2.277 . S
O17 C14 1.160 . S
O17 Cd18 2.203 . S
Cd18 O17 2.203 . S
Cd18 O20 2.411 . S
Cd18 O21 2.333 . S
Cd18 O22 2.352 . S
Cd18 O26 2.277 . S
Cd18 O27 2.356 . S
C19 O24 1.209 . S
C19 O26 1.226 . S
O20 Cd16 2.273 . S
O20 Cd18 2.411 . S
O20 C23 1.320 . S
O21 Cd18 2.333 . S
O21 C23 1.214 . S
O22 Cd18 2.352 . S
O22 C25 1.258 . S
C23 O20 1.320 . S
C23 O21 1.214 . S
O24 Cd16 2.277 . S
O24 C19 1.209 . S
C25 O22 1.258 . S
C25 O27 1.282 . S
O26 Cd18 2.277 . S
O26 C19 1.226 . S
O27 Cd18 2.356 . S
O27 C25 1.282 . S
C28 O29 1.306 . S
C28 O31 1.160 . S
O29 C28 1.306 . S
O29 Cd30 2.228 . S
Cd30 O29 2.228 . S
Cd30 O34 2.273 . S
Cd30 O38 2.277 . S
O31 C28 1.160 . S
O31 Cd32 2.203 . S
Cd32 O31 2.203 . S
Cd32 O34 2.411 . S
Cd32 O35 2.333 . S
Cd32 O36 2.352 . S
Cd32 O40 2.277 . S
Cd32 O41 2.356 . S
C33 O38 1.209 . S
C33 O40 1.226 . S
O34 Cd30 2.273 . S
O34 Cd32 2.411 . S
O34 C37 1.320 . S
O35 Cd32 2.333 . S
O35 C37 1.214 . S
O36 Cd32 2.352 . S
O36 C39 1.258 . S
C37 O34 1.320 . S
C37 O35 1.214 . S
O38 Cd30 2.277 . S
O38 C33 1.209 . S
C39 O36 1.258 . S
C39 O41 1.282 . S
O40 Cd32 2.277 . S
O40 C33 1.226 . S
O41 Cd32 2.356 . S
O41 C39 1.282 . S
C42 O43 1.306 . S
C42 O45 1.160 . S
O43 C42 1.306 . S
O43 Cd44 2.228 . S
Cd44 O43 2.228 . S
Cd44 O48 2.273 . S
Cd44 O52 2.277 . S
O45 C42 1.160 . S
O45 Cd46 2.203 . S
Cd46 O45 2.203 . S
Cd46 O48 2.411 . S
Cd46 O49 2.333 . S
Cd46 O50 2.352 . S
Cd46 O54 2.277 . S
Cd46 O55 2.356 . S
C47 O52 1.209 . S
C47 O54 1.226 . S
O48 Cd44 2.273 . S
O48 Cd46 2.411 . S
O48 C51 1.320 . S
O49 Cd46 2.333 . S
O49 C51 1.214 . S
O50 Cd46 2.352 . S
O50 C53 1.258 . S
C51 O48 1.320 . S
C51 O49 1.214 . S
O52 Cd44 2.277 . S
O52 C47 1.209 . S
C53 O50 1.258 . S
C53 O55 1.282 . S
O54 Cd46 2.277 . S
O54 C47 1.226 . S
O55 Cd46 2.356 . S
O55 C53 1.282 . S
C56 O57 1.306 . S
C56 O59 1.160 . S
O57 C56 1.306 . S
O57 Cd58 2.228 . S
Cd58 O57 2.228 . S
Cd58 O62 2.273 . S
Cd58 O66 2.277 . S
O59 C56 1.160 . S
O59 Cd60 2.203 . S
Cd60 O59 2.203 . S
Cd60 O62 2.411 . S
Cd60 O63 2.333 . S
Cd60 O64 2.352 . S
Cd60 O68 2.277 . S
Cd60 O69 2.356 . S
C61 O66 1.209 . S
C61 O68 1.226 . S
O62 Cd58 2.273 . S
O62 Cd60 2.411 . S
O62 C65 1.320 . S
O63 Cd60 2.333 . S
O63 C65 1.214 . S
O64 Cd60 2.352 . S
O64 C67 1.258 . S
C65 O62 1.320 . S
C65 O63 1.214 . S
O66 Cd58 2.277 . S
O66 C61 1.209 . S
C67 O64 1.258 . S
C67 O69 1.282 . S
O68 Cd60 2.277 . S
O68 C61 1.226 . S
O69 Cd60 2.356 . S
O69 C67 1.282 . S
C70 O71 1.306 . S
C70 O73 1.160 . S
O71 C70 1.306 . S
O71 Cd72 2.228 . S
Cd72 O71 2.228 . S
Cd72 O76 2.273 . S
Cd72 O80 2.277 . S
O73 C70 1.160 . S
O73 Cd74 2.203 . S
Cd74 O73 2.203 . S
Cd74 O76 2.411 . S
Cd74 O77 2.333 . S
Cd74 O78 2.352 . S
Cd74 O82 2.277 . S
Cd74 O83 2.356 . S
C75 O80 1.209 . S
C75 O82 1.226 . S
O76 Cd72 2.273 . S
O76 Cd74 2.411 . S
O76 C79 1.320 . S
O77 Cd74 2.333 . S
O77 C79 1.214 . S
O78 Cd74 2.352 . S
O78 C81 1.258 . S
C79 O76 1.320 . S
C79 O77 1.214 . S
O80 Cd72 2.277 . S
O80 C75 1.209 . S
C81 O78 1.258 . S
C81 O83 1.282 . S
O82 Cd74 2.277 . S
O82 C75 1.226 . S
O83 Cd74 2.356 . S
O83 C81 1.282 . S
C84 O85 1.306 . S
C84 O87 1.160 . S
O85 C84 1.306 . S
O85 Cd86 2.228 . S
Cd86 O85 2.228 . S
Cd86 O90 2.273 . S
Cd86 O94 2.277 . S
O87 C84 1.160 . S
O87 Cd88 2.203 . S
Cd88 O87 2.203 . S
Cd88 O90 2.411 . S
Cd88 O91 2.333 . S
Cd88 O92 2.352 . S
Cd88 O96 2.277 . S
Cd88 O97 2.356 . S
C89 O94 1.209 . S
C89 O96 1.226 . S
O90 Cd86 2.273 . S
O90 Cd88 2.411 . S
O90 C93 1.320 . S
O91 Cd88 2.333 . S
O91 C93 1.214 . S
O92 Cd88 2.352 . S
O92 C95 1.258 . S
C93 O90 1.320 . S
C93 O91 1.214 . S
O94 Cd86 2.277 . S
O94 C89 1.209 . S
C95 O92 1.258 . S
C95 O97 1.282 . S
O96 Cd88 2.277 . S
O96 C89 1.226 . S
O97 Cd88 2.356 . S
O97 C95 1.282 . S
C98 O99 1.306 . S
C98 O101 1.160 . S
O99 C98 1.306 . S
O99 Cd100 2.228 . S
Cd100 O99 2.228 . S
Cd100 O104 2.273 . S
Cd100 O108 2.277 . S
O101 C98 1.160 . S
O101 Cd102 2.203 . S
Cd102 O101 2.203 . S
Cd102 O104 2.411 . S
Cd102 O105 2.333 . S
Cd102 O106 2.352 . S
Cd102 O110 2.277 . S
Cd102 O111 2.356 . S
C103 O108 1.209 . S
C103 O110 1.226 . S
O104 Cd100 2.273 . S
O104 Cd102 2.411 . S
O104 C107 1.320 . S
O105 Cd102 2.333 . S
O105 C107 1.214 . S
O106 Cd102 2.352 . S
O106 C109 1.258 . S
C107 O104 1.320 . S
C107 O105 1.214 . S
O108 Cd100 2.277 . S
O108 C103 1.209 . S
C109 O106 1.258 . S
C109 O111 1.282 . S
O110 Cd102 2.277 . S
O110 C103 1.226 . S
O111 Cd102 2.356 . S
O111 C109 1.282 . S
C112 O113 1.306 . S
C112 O115 1.160 . S
O113 C112 1.306 . S
O113 Cd114 2.228 . S
Cd114 O113 2.228 . S
Cd114 O118 2.273 . S
Cd114 O122 2.277 . S
O115 C112 1.160 . S
O115 Cd116 2.203 . S
Cd116 O115 2.203 . S
Cd116 O118 2.411 . S
Cd116 O119 2.333 . S
Cd116 O120 2.352 . S
Cd116 O124 2.277 . S
Cd116 O125 2.356 . S
C117 O122 1.209 . S
C117 O124 1.226 . S
O118 Cd114 2.273 . S
O118 Cd116 2.411 . S
O118 C121 1.320 . S
O119 Cd116 2.333 . S
O119 C121 1.214 . S
O120 Cd116 2.352 . S
O120 C123 1.258 . S
C121 O118 1.320 . S
C121 O119 1.214 . S
O122 Cd114 2.277 . S
O122 C117 1.209 . S
C123 O120 1.258 . S
C123 O125 1.282 . S
O124 Cd116 2.277 . S
O124 C117 1.226 . S
O125 Cd116 2.356 . S
O125 C123 1.282 . S
C126 O127 1.306 . S
C126 O129 1.160 . S
O127 C126 1.306 . S
O127 Cd128 2.228 . S
Cd128 O127 2.228 . S
Cd128 O132 2.273 . S
Cd128 O136 2.277 . S
O129 C126 1.160 . S
O129 Cd130 2.203 . S
Cd130 O129 2.203 . S
Cd130 O132 2.411 . S
Cd130 O133 2.333 . S
Cd130 O134 2.352 . S
Cd130 O138 2.277 . S
Cd130 O139 2.356 . S
C131 O136 1.209 . S
C131 O138 1.226 . S
O132 Cd128 2.273 . S
O132 Cd130 2.411 . S
O132 C135 1.320 . S
O133 Cd130 2.333 . S
O133 C135 1.214 . S
O134 Cd130 2.352 . S
O134 C137 1.258 . S
C135 O132 1.320 . S
C135 O133 1.214 . S
O136 Cd128 2.277 . S
O136 C131 1.209 . S
C137 O134 1.258 . S
C137 O139 1.282 . S
O138 Cd130 2.277 . S
O138 C131 1.226 . S
O139 Cd130 2.356 . S
O139 C137 1.282 . S
C140 O141 1.306 . S
C140 O143 1.160 . S
O141 C140 1.306 . S
O141 Cd142 2.228 . S
Cd142 O141 2.228 . S
Cd142 O146 2.273 . S
Cd142 O150 2.277 . S
O143 C140 1.160 . S
O143 Cd144 2.203 . S
Cd144 O143 2.203 . S
Cd144 O146 2.411 . S
Cd144 O147 2.333 . S
Cd144 O148 2.352 . S
Cd144 O152 2.277 . S
Cd144 O153 2.356 . S
C145 O150 1.209 . S
C145 O152 1.226 . S
O146 Cd142 2.273 . S
O146 Cd144 2.411 . S
O146 C149 1.320 . S
O147 Cd144 2.333 . S
O147 C149 1.214 . S
O148 Cd144 2.352 . S
O148 C151 1.258 . S
C149 O146 1.320 . S
C149 O147 1.214 . S
O150 Cd142 2.277 . S
O150 C145 1.209 . S
C151 O148 1.258 . S
C151 O153 1.282 . S
O152 Cd144 2.277 . S
O152 C145 1.226 . S
O153 Cd144 2.356 . S
O153 C151 1.282 . S
C154 O155 1.306 . S
C154 O157 1.160 . S
O155 C154 1.306 . S
O155 Cd156 2.228 . S
Cd156 O155 2.228 . S
Cd156 O160 2.273 . S
Cd156 O164 2.277 . S
O157 C154 1.160 . S
O157 Cd158 2.203 . S
Cd158 O157 2.203 . S
Cd158 O160 2.411 . S
Cd158 O161 2.333 . S
Cd158 O162 2.352 . S
Cd158 O166 2.277 . S
Cd158 O167 2.356 . S
C159 O164 1.209 . S
C159 O166 1.226 . S
O160 Cd156 2.273 . S
O160 Cd158 2.411 . S
O160 C163 1.320 . S
O161 Cd158 2.333 . S
O161 C163 1.214 . S
O162 Cd158 2.352 . S
O162 C165 1.258 . S
C163 O160 1.320 . S
C163 O161 1.214 . S
O164 Cd156 2.277 . S
O164 C159 1.209 . S
C165 O162 1.258 . S
C165 O167 1.282 . S
O166 Cd158 2.277 . S
O166 C159 1.226 . S
O167 Cd158 2.356 . S
O167 C165 1.282 . S
C168 O169 1.306 . S
C168 O171 1.160 . S
O169 C168 1.306 . S
O169 Cd170 2.228 . S
Cd170 O169 2.228 . S
Cd170 O174 2.273 . S
Cd170 O178 2.277 . S
O171 C168 1.160 . S
O171 Cd172 2.203 . S
Cd172 O171 2.203 . S
Cd172 O174 2.411 . S
Cd172 O175 2.333 . S
Cd172 O176 2.352 . S
Cd172 O180 2.277 . S
Cd172 O181 2.356 . S
C173 O178 1.209 . S
C173 O180 1.226 . S
O174 Cd170 2.273 . S
O174 Cd172 2.411 . S
O174 C177 1.320 . S
O175 Cd172 2.333 . S
O175 C177 1.214 . S
O176 Cd172 2.352 . S
O176 C179 1.258 . S
C177 O174 1.320 . S
C177 O175 1.214 . S
O178 Cd170 2.277 . S
O178 C173 1.209 . S
C179 O176 1.258 . S
C179 O181 1.282 . S
O180 Cd172 2.277 . S
O180 C173 1.226 . S
O181 Cd172 2.356 . S
O181 C179 1.282 . S
C182 O183 1.306 . S
C182 O185 1.160 . S
O183 C182 1.306 . S
O183 Cd184 2.228 . S
Cd184 O183 2.228 . S
Cd184 O188 2.273 . S
Cd184 O192 2.277 . S
O185 C182 1.160 . S
O185 Cd186 2.203 . S
Cd186 O185 2.203 . S
Cd186 O188 2.411 . S
Cd186 O189 2.333 . S
Cd186 O190 2.352 . S
Cd186 O194 2.277 . S
Cd186 O195 2.356 . S
C187 O192 1.209 . S
C187 O194 1.226 . S
O188 Cd184 2.273 . S
O188 Cd186 2.411 . S
O188 C191 1.320 . S
O189 Cd186 2.333 . S
O189 C191 1.214 . S
O190 Cd186 2.352 . S
O190 C193 1.258 . S
C191 O188 1.320 . S
C191 O189 1.214 . S
O192 Cd184 2.277 . S
O192 C187 1.209 . S
C193 O190 1.258 . S
C193 O195 1.282 . S
O194 Cd186 2.277 . S
O194 C187 1.226 . S
O195 Cd186 2.356 . S
O195 C193 1.282 . S
C196 O197 1.306 . S
C196 O199 1.160 . S
O197 C196 1.306 . S
O197 Cd198 2.228 . S
Cd198 O197 2.228 . S
Cd198 O202 2.273 . S
Cd198 O206 2.277 . S
O199 C196 1.160 . S
O199 Cd200 2.203 . S
Cd200 O199 2.203 . S
Cd200 O202 2.411 . S
Cd200 O203 2.333 . S
Cd200 O204 2.352 . S
Cd200 O208 2.277 . S
Cd200 O209 2.356 . S
C201 O206 1.209 . S
C201 O208 1.226 . S
O202 Cd198 2.273 . S
O202 Cd200 2.411 . S
O202 C205 1.320 . S
O203 Cd200 2.333 . S
O203 C205 1.214 . S
O204 Cd200 2.352 . S
O204 C207 1.258 . S
C205 O202 1.320 . S
C205 O203 1.214 . S
O206 Cd198 2.277 . S
O206 C201 1.209 . S
C207 O204 1.258 . S
C207 O209 1.282 . S
O208 Cd200 2.277 . S
O208 C201 1.226 . S
O209 Cd200 2.356 . S
O209 C207 1.282 . S
C210 O211 1.306 . S
C210 O213 1.160 . S
O211 C210 1.306 . S
O211 Cd212 2.228 . S
Cd212 O211 2.228 . S
Cd212 O216 2.273 . S
Cd212 O220 2.277 . S
O213 C210 1.160 . S
O213 Cd214 2.203 . S
Cd214 O213 2.203 . S
Cd214 O216 2.411 . S
Cd214 O217 2.333 . S
Cd214 O218 2.352 . S
Cd214 O222 2.277 . S
Cd214 O223 2.356 . S
C215 O220 1.209 . S
C215 O222 1.226 . S
O216 Cd212 2.273 . S
O216 Cd214 2.411 . S
O216 C219 1.320 . S
O217 Cd214 2.333 . S
O217 C219 1.214 . S
O218 Cd214 2.352 . S
O218 C221 1.258 . S
C219 O216 1.320 . S
C219 O217 1.214 . S
O220 Cd212 2.277 . S
O220 C215 1.209 . S
C221 O218 1.258 . S
C221 O223 1.282 . S
O222 Cd214 2.277 . S
O222 C215 1.226 . S
O223 Cd214 2.356 . S
O223 C221 1.282 . S
C224 O225 1.306 . S
C224 O227 1.160 . S
O225 C224 1.306 . S
O225 Cd226 2.228 . S
Cd226 O225 2.228 . S
Cd226 O230 2.273 . S
Cd226 O234 2.277 . S
O227 C224 1.160 . S
O227 Cd228 2.203 . S
Cd228 O227 2.203 . S
Cd228 O230 2.411 . S
Cd228 O231 2.333 . S
Cd228 O232 2.352 . S
Cd228 O236 2.277 . S
Cd228 O237 2.356 . S
C229 O234 1.209 . S
C229 O236 1.226 . S
O230 Cd226 2.273 . S
O230 Cd228 2.411 . S
O230 C233 1.320 . S
O231 Cd228 2.333 . S
O231 C233 1.214 . S
O232 Cd228 2.352 . S
O232 C235 1.258 . S
C233 O230 1.320 . S
C233 O231 1.214 . S
O234 Cd226 2.277 . S
O234 C229 1.209 . S
C235 O232 1.258 . S
C235 O237 1.282 . S
O236 Cd228 2.277 . S
O236 C229 1.226 . S
O237 Cd228 2.356 . S
O237 C235 1.282 . S
C238 O239 1.306 . S
C238 O241 1.160 . S
O239 C238 1.306 . S
O239 Cd240 2.228 . S
Cd240 O239 2.228 . S
Cd240 O244 2.273 . S
Cd240 O248 2.277 . S
O241 C238 1.160 . S
O241 Cd242 2.203 . S
Cd242 O241 2.203 . S
Cd242 O244 2.411 . S
Cd242 O245 2.333 . S
Cd242 O246 2.352 . S
Cd242 O250 2.277 . S
Cd242 O251 2.356 . S
C243 O248 1.209 . S
C243 O250 1.226 . S
O244 Cd240 2.273 . S
O244 Cd242 2.411 . S
O244 C247 1.320 . S
O245 Cd242 2.333 . S
O245 C247 1.214 . S
O246 Cd242 2.352 . S
O246 C249 1.258 . S
C247 O244 1.320 . S
C247 O245 1.214 . S
O248 Cd240 2.277 . S
O248 C243 1.209 . S
C249 O246 1.258 . S
C249 O251 1.282 . S
O250 Cd242 2.277 . S
O250 C243 1.226 . S
O251 Cd242 2.356 . S
O251 C249 1.282 . S
C252 O253 1.306 . S
C252 O255 1.160 . S
O253 C252 1.306 . S
O253 Cd254 2.228 . S
Cd254 O253 2.228 . S
Cd254 O258 2.273 . S
Cd254 O262 2.277 . S
O255 C252 1.160 . S
O255 Cd256 2.203 . S
Cd256 O255 2.203 . S
Cd256 O258 2.411 . S
Cd256 O259 2.333 . S
Cd256 O260 2.352 . S
Cd256 O264 2.277 . S
Cd256 O265 2.356 . S
C257 O262 1.209 . S
C257 O264 1.226 . S
O258 Cd254 2.273 . S
O258 Cd256 2.411 . S
O258 C261 1.320 . S
O259 Cd256 2.333 . S
O259 C261 1.214 . S
O260 Cd256 2.352 . S
O260 C263 1.258 . S
C261 O258 1.320 . S
C261 O259 1.214 . S
O262 Cd254 2.277 . S
O262 C257 1.209 . S
C263 O260 1.258 . S
C263 O265 1.282 . S
O264 Cd256 2.277 . S
O264 C257 1.226 . S
O265 Cd256 2.356 . S
O265 C263 1.282 . S
C266 O267 1.306 . S
C266 O269 1.160 . S
O267 C266 1.306 . S
O267 Cd268 2.228 . S
Cd268 O267 2.228 . S
Cd268 O272 2.273 . S
Cd268 O276 2.277 . S
O269 C266 1.160 . S
O269 Cd270 2.203 . S
Cd270 O269 2.203 . S
Cd270 O272 2.411 . S
Cd270 O273 2.333 . S
Cd270 O274 2.352 . S
Cd270 O278 2.277 . S
Cd270 O279 2.356 . S
C271 O276 1.209 . S
C271 O278 1.226 . S
O272 Cd268 2.273 . S
O272 Cd270 2.411 . S
O272 C275 1.320 . S
O273 Cd270 2.333 . S
O273 C275 1.214 . S
O274 Cd270 2.352 . S
O274 C277 1.258 . S
C275 O272 1.320 . S
C275 O273 1.214 . S
O276 Cd268 2.277 . S
O276 C271 1.209 . S
C277 O274 1.258 . S
C277 O279 1.282 . S
O278 Cd270 2.277 . S
O278 C271 1.226 . S
O279 Cd270 2.356 . S
O279 C277 1.282 . S
C280 O281 1.306 . S
C280 O283 1.160 . S
O281 C280 1.306 . S
O281 Cd282 2.228 . S
Cd282 O281 2.228 . S
Cd282 O286 2.273 . S
Cd282 O290 2.277 . S
O283 C280 1.160 . S
O283 Cd284 2.203 . S
Cd284 O283 2.203 . S
Cd284 O286 2.411 . S
Cd284 O287 2.333 . S
Cd284 O288 2.352 . S
Cd284 O292 2.277 . S
Cd284 O293 2.356 . S
C285 O290 1.209 . S
C285 O292 1.226 . S
O286 Cd282 2.273 . S
O286 Cd284 2.411 . S
O286 C289 1.320 . S
O287 Cd284 2.333 . S
O287 C289 1.214 . S
O288 Cd284 2.352 . S
O288 C291 1.258 . S
C289 O286 1.320 . S
C289 O287 1.214 . S
O290 Cd282 2.277 . S
O290 C285 1.209 . S
C291 O288 1.258 . S
C291 O293 1.282 . S
O292 Cd284 2.277 . S
O292 C285 1.226 . S
O293 Cd284 2.356 . S
O293 C291 1.282 . S
C294 O295 1.306 . S
C294 O297 1.160 . S
O295 C294 1.306 . S
O295 Cd296 2.228 . S
Cd296 O295 2.228 . S
Cd296 O300 2.273 . S
Cd296 O304 2.277 . S
O297 C294 1.160 . S
O297 Cd298 2.203 . S
Cd298 O297 2.203 . S
Cd298 O300 2.411 . S
Cd298 O301 2.333 . S
Cd298 O302 2.352 . S
Cd298 O306 2.277 . S
Cd298 O307 2.356 . S
C299 O304 1.209 . S
C299 O306 1.226 . S
O300 Cd296 2.273 . S
O300 Cd298 2.411 . S
O300 C303 1.320 . S
O301 Cd298 2.333 . S
O301 C303 1.214 . S
O302 Cd298 2.352 . S
O302 C305 1.258 . S
C303 O300 1.320 . S
C303 O301 1.214 . S
O304 Cd296 2.277 . S
O304 C299 1.209 . S
C305 O302 1.258 . S
C305 O307 1.282 . S
O306 Cd298 2.277 . S
O306 C299 1.226 . S
O307 Cd298 2.356 . S
O307 C305 1.282 . S
C308 O309 1.306 . S
C308 O311 1.160 . S
O309 C308 1.306 . S
O309 Cd310 2.228 . S
Cd310 O309 2.228 . S
Cd310 O314 2.273 . S
Cd310 O318 2.277 . S
O311 C308 1.160 . S
O311 Cd312 2.203 . S
Cd312 O311 2.203 . S
Cd312 O314 2.411 . S
Cd312 O315 2.333 . S
Cd312 O316 2.352 . S
Cd312 O320 2.277 . S
Cd312 O321 2.356 . S
C313 O318 1.209 . S
C313 O320 1.226 . S
O314 Cd310 2.273 . S
O314 Cd312 2.411 . S
O314 C317 1.320 . S
O315 Cd312 2.333 . S
O315 C317 1.214 . S
O316 Cd312 2.352 . S
O316 C319 1.258 . S
C317 O314 1.320 . S
C317 O315 1.214 . S
O318 Cd310 2.277 . S
O318 C313 1.209 . S
C319 O316 1.258 . S
C319 O321 1.282 . S
O320 Cd312 2.277 . S
O320 C313 1.226 . S
O321 Cd312 2.356 . S
O321 C319 1.282 . S
C322 O323 1.306 . S
C322 O325 1.160 . S
O323 C322 1.306 . S
O323 Cd324 2.228 . S
Cd324 O323 2.228 . S
Cd324 O328 2.273 . S
Cd324 O332 2.277 . S
O325 C322 1.160 . S
O325 Cd326 2.203 . S
Cd326 O325 2.203 . S
Cd326 O328 2.411 . S
Cd326 O329 2.333 . S
Cd326 O330 2.352 . S
Cd326 O334 2.277 . S
Cd326 O335 2.356 . S
C327 O332 1.209 . S
C327 O334 1.226 . S
O328 Cd324 2.273 . S
O328 Cd326 2.411 . S
O328 C331 1.320 . S
O329 Cd326 2.333 . S
O329 C331 1.214 . S
O330 Cd326 2.352 . S
O330 C333 1.258 . S
C331 O328 1.320 . S
C331 O329 1.214 . S
O332 Cd324 2.277 . S
O332 C327 1.209 . S
C333 O330 1.258 . S
C333 O335 1.282 . S
O334 Cd326 2.277 . S
O334 C327 1.226 . S
O335 Cd326 2.356 . S
O335 C333 1.282 . S
C336 O337 1.306 . S
C336 O339 1.160 . S
O337 C336 1.306 . S
O337 Cd338 2.228 . S
Cd338 O337 2.228 . S
Cd338 O342 2.273 . S
Cd338 O346 2.277 . S
O339 C336 1.160 . S
O339 Cd340 2.203 . S
Cd340 O339 2.203 . S
Cd340 O342 2.411 . S
Cd340 O343 2.333 . S
Cd340 O344 2.352 . S
Cd340 O348 2.277 . S
Cd340 O349 2.356 . S
C341 O346 1.209 . S
C341 O348 1.226 . S
O342 Cd338 2.273 . S
O342 Cd340 2.411 . S
O342 C345 1.320 . S
O343 Cd340 2.333 . S
O343 C345 1.214 . S
O344 Cd340 2.352 . S
O344 C347 1.258 . S
C345 O342 1.320 . S
C345 O343 1.214 . S
O346 Cd338 2.277 . S
O346 C341 1.209 . S
C347 O344 1.258 . S
C347 O349 1.282 . S
O348 Cd340 2.277 . S
O348 C341 1.226 . S
O349 Cd340 2.356 . S
O349 C347 1.282 . S
C350 O351 1.306 . S
C350 O353 1.160 . S
O351 C350 1.306 . S
O351 Cd352 2.228 . S
Cd352 O351 2.228 . S
Cd352 O356 2.273 . S
Cd352 O360 2.277 . S
O353 C350 1.160 . S
O353 Cd354 2.203 . S
Cd354 O353 2.203 . S
Cd354 O356 2.411 . S
Cd354 O357 2.333 . S
Cd354 O358 2.352 . S
Cd354 O362 2.277 . S
Cd354 O363 2.356 . S
C355 O360 1.209 . S
C355 O362 1.226 . S
O356 Cd352 2.273 . S
O356 Cd354 2.411 . S
O356 C359 1.320 . S
O357 Cd354 2.333 . S
O357 C359 1.214 . S
O358 Cd354 2.352 . S
O358 C361 1.258 . S
C359 O356 1.320 . S
C359 O357 1.214 . S
O360 Cd352 2.277 . S
O360 C355 1.209 . S
C361 O358 1.258 . S
C361 O363 1.282 . S
O362 Cd354 2.277 . S
O362 C355 1.226 . S
O363 Cd354 2.356 . S
O363 C361 1.282 . S
C364 O365 1.306 . S
C364 O367 1.160 . S
O365 C364 1.306 . S
O365 Cd366 2.228 . S
Cd366 O365 2.228 . S
Cd366 O370 2.273 . S
Cd366 O374 2.277 . S
O367 C364 1.160 . S
O367 Cd368 2.203 . S
Cd368 O367 2.203 . S
Cd368 O370 2.411 . S
Cd368 O371 2.333 . S
Cd368 O372 2.352 . S
Cd368 O376 2.277 . S
Cd368 O377 2.356 . S
C369 O374 1.209 . S
C369 O376 1.226 . S
O370 Cd366 2.273 . S
O370 Cd368 2.411 . S
O370 C373 1.320 . S
O371 Cd368 2.333 . S
O371 C373 1.214 . S
O372 Cd368 2.352 . S
O372 C375 1.258 . S
C373 O370 1.320 . S
C373 O371 1.214 . S
O374 Cd366 2.277 . S
O374 C369 1.209 . S
C375 O372 1.258 . S
C375 O377 1.282 . S
O376 Cd368 2.277 . S
O376 C369 1.226 . S
O377 Cd368 2.356 . S
O377 C375 1.282 . S
C378 O379 1.306 . S
C378 O381 1.160 . S
O379 C378 1.306 . S
O379 Cd380 2.228 . S
Cd380 O379 2.228 . S
Cd380 O384 2.273 . S
Cd380 O388 2.277 . S
O381 C378 1.160 . S
O381 Cd382 2.203 . S
Cd382 O381 2.203 . S
Cd382 O384 2.411 . S
Cd382 O385 2.333 . S
Cd382 O386 2.352 . S
Cd382 O390 2.277 . S
Cd382 O391 2.356 . S
C383 O388 1.209 . S
C383 O390 1.226 . S
O384 Cd380 2.273 . S
O384 Cd382 2.411 . S
O384 C387 1.320 . S
O385 Cd382 2.333 . S
O385 C387 1.214 . S
O386 Cd382 2.352 . S
O386 C389 1.258 . S
C387 O384 1.320 . S
C387 O385 1.214 . S
O388 Cd380 2.277 . S
O388 C383 1.209 . S
C389 O386 1.258 . S
C389 O391 1.282 . S
O390 Cd382 2.277 . S
O390 C383 1.226 . S
O391 Cd382 2.356 . S
O391 C389 1.282 . S
C392 O393 1.306 . S
C392 O395 1.160 . S
O393 C392 1.306 . S
O393 Cd394 2.228 . S
Cd394 O393 2.228 . S
Cd394 O398 2.273 . S
Cd394 O402 2.277 . S
O395 C392 1.160 . S
O395 Cd396 2.203 . S
Cd396 O395 2.203 . S
Cd396 O398 2.411 . S
Cd396 O399 2.333 . S
Cd396 O400 2.352 . S
Cd396 O404 2.277 . S
Cd396 O405 2.356 . S
C397 O402 1.209 . S
C397 O404 1.226 . S
O398 Cd394 2.273 . S
O398 Cd396 2.411 . S
O398 C401 1.320 . S
O399 Cd396 2.333 . S
O399 C401 1.214 . S
O400 Cd396 2.352 . S
O400 C403 1.258 . S
C401 O398 1.320 . S
C401 O399 1.214 . S
O402 Cd394 2.277 . S
O402 C397 1.209 . S
C403 O400 1.258 . S
C403 O405 1.282 . S
O404 Cd396 2.277 . S
O404 C397 1.226 . S
O405 Cd396 2.356 . S
O405 C403 1.282 . S
C406 O407 1.306 . S
C406 O409 1.160 . S
O407 C406 1.306 . S
O407 Cd408 2.228 . S
Cd408 O407 2.228 . S
Cd408 O412 2.273 . S
Cd408 O416 2.277 . S
O409 C406 1.160 . S
O409 Cd410 2.203 . S
Cd410 O409 2.203 . S
Cd410 O412 2.411 . S
Cd410 O413 2.333 . S
Cd410 O414 2.352 . S
Cd410 O418 2.277 . S
Cd410 O419 2.356 . S
C411 O416 1.209 . S
C411 O418 1.226 . S
O412 Cd408 2.273 . S
O412 Cd410 2.411 . S
O412 C415 1.320 . S
O413 Cd410 2.333 . S
O413 C415 1.214 . S
O414 Cd410 2.352 . S
O414 C417 1.258 . S
C415 O412 1.320 . S
C415 O413 1.214 . S
O416 Cd408 2.277 . S
O416 C411 1.209 . S
C417 O414 1.258 . S
C417 O419 1.282 . S
O418 Cd410 2.277 . S
O418 C411 1.226 . S
O419 Cd410 2.356 . S
O419 C417 1.282 . S
C420 O421 1.306 . S
C420 O423 1.160 . S
O421 C420 1.306 . S
O421 Cd422 2.228 . S
Cd422 O421 2.228 . S
Cd422 O426 2.273 . S
Cd422 O430 2.277 . S
O423 C420 1.160 . S
O423 Cd424 2.203 . S
Cd424 O423 2.203 . S
Cd424 O426 2.411 . S
Cd424 O427 2.333 . S
Cd424 O428 2.352 . S
Cd424 O432 2.277 . S
Cd424 O433 2.356 . S
C425 O430 1.209 . S
C425 O432 1.226 . S
O426 Cd422 2.273 . S
O426 Cd424 2.411 . S
O426 C429 1.320 . S
O427 Cd424 2.333 . S
O427 C429 1.214 . S
O428 Cd424 2.352 . S
O428 C431 1.258 . S
C429 O426 1.320 . S
C429 O427 1.214 . S
O430 Cd422 2.277 . S
O430 C425 1.209 . S
C431 O428 1.258 . S
C431 O433 1.282 . S
O432 Cd424 2.277 . S
O432 C425 1.226 . S
O433 Cd424 2.356 . S
O433 C431 1.282 . S
C434 O435 1.306 . S
C434 O437 1.160 . S
O435 C434 1.306 . S
O435 Cd436 2.228 . S
Cd436 O435 2.228 . S
Cd436 O440 2.273 . S
Cd436 O444 2.277 . S
O437 C434 1.160 . S
O437 Cd438 2.203 . S
Cd438 O437 2.203 . S
Cd438 O440 2.411 . S
Cd438 O441 2.333 . S
Cd438 O442 2.352 . S
Cd438 O446 2.277 . S
Cd438 O447 2.356 . S
C439 O444 1.209 . S
C439 O446 1.226 . S
O440 Cd436 2.273 . S
O440 Cd438 2.411 . S
O440 C443 1.320 . S
O441 Cd438 2.333 . S
O441 C443 1.214 . S
O442 Cd438 2.352 . S
O442 C445 1.258 . S
C443 O440 1.320 . S
C443 O441 1.214 . S
O444 Cd436 2.277 . S
O444 C439 1.209 . S
C445 O442 1.258 . S
C445 O447 1.282 . S
O446 Cd438 2.277 . S
O446 C439 1.226 . S
O447 Cd438 2.356 . S
O447 C445 1.282 . S
C448 C449 1.387 . S
C448 H452 0.950 . S
C448 C457 1.390 . S
C449 C448 1.387 . S
C449 C451 1.387 . S
H450 C457 0.950 . S
C451 C449 1.387 . S
C451 C453 1.390 . S
C451 H455 0.950 . S
H452 C448 0.950 . S
C453 C451 1.390 . S
C453 C454 1.387 . S
C453 H456 0.950 . S
C454 C453 1.387 . S
C454 C457 1.387 . S
H455 C451 0.950 . S
H456 C453 0.950 . S
C457 C448 1.390 . S
C457 H450 0.950 . S
C457 C454 1.387 . S
C458 C459 1.387 . S
C458 H462 0.950 . S
C458 C467 1.390 1_565 S
C459 C458 1.387 . S
C459 C461 1.387 . S
H460 C467 0.950 . S
C461 C459 1.387 . S
C461 C463 1.390 1_565 S
C461 H465 0.950 . S
H462 C458 0.950 . S
C463 C461 1.390 1_545 S
C463 C464 1.387 . S
C463 H466 0.950 . S
C464 C463 1.387 . S
C464 C467 1.387 . S
H465 C461 0.950 . S
H466 C463 0.950 . S
C467 C458 1.390 1_545 S
C467 H460 0.950 . S
C467 C464 1.387 . S
C468 C469 1.387 . S
C468 H472 0.950 . S
C468 C477 1.390 1_554 S
C469 C468 1.387 . S
C469 C471 1.387 . S
H470 C477 0.950 . S
C471 C469 1.387 . S
C471 C473 1.390 1_554 S
C471 H475 0.950 . S
H472 C468 0.950 . S
C473 C471 1.390 1_556 S
C473 C474 1.387 . S
C473 H476 0.950 . S
C474 C473 1.387 . S
C474 C477 1.387 . S
H475 C471 0.950 . S
H476 C473 0.950 . S
C477 C468 1.390 1_556 S
C477 H470 0.950 . S
C477 C474 1.387 . S
C478 C479 1.387 . S
C478 H482 0.950 . S
C478 C487 1.390 1_545 S
C479 C478 1.387 . S
C479 C481 1.387 . S
H480 C487 0.950 . S
C481 C479 1.387 . S
C481 C483 1.390 1_545 S
C481 H485 0.950 . S
H482 C478 0.950 . S
C483 C481 1.390 1_565 S
C483 C484 1.387 . S
C483 H486 0.950 . S
C484 C483 1.387 . S
C484 C487 1.387 . S
H485 C481 0.950 . S
H486 C483 0.950 . S
C487 C478 1.390 1_565 S
C487 H480 0.950 . S
C487 C484 1.387 . S
C488 C489 1.387 . S
C488 H492 0.950 . S
C488 C497 1.390 . S
C489 C488 1.387 . S
C489 C491 1.387 . S
H490 C497 0.950 . S
C491 C489 1.387 . S
C491 C493 1.390 . S
C491 H495 0.950 . S
H492 C488 0.950 . S
C493 C491 1.390 . S
C493 C494 1.387 . S
C493 H496 0.950 . S
C494 C493 1.387 . S
C494 C497 1.387 . S
H495 C491 0.950 . S
H496 C493 0.950 . S
C497 C488 1.390 . S
C497 H490 0.950 . S
C497 C494 1.387 . S
C498 C499 1.387 . S
C498 H502 0.950 . S
C498 C507 1.390 1_545 S
C499 C498 1.387 . S
C499 C501 1.387 . S
H500 C507 0.950 . S
C501 C499 1.387 . S
C501 C503 1.390 1_545 S
C501 H505 0.950 . S
H502 C498 0.950 . S
C503 C501 1.390 1_565 S
C503 C504 1.387 . S
C503 H506 0.950 . S
C504 C503 1.387 . S
C504 C507 1.387 . S
H505 C501 0.950 . S
H506 C503 0.950 . S
C507 C498 1.390 1_565 S
C507 H500 0.950 . S
C507 C504 1.387 . S
C508 C509 1.387 . S
C508 H512 0.950 . S
C508 C517 1.390 1_556 S
C509 C508 1.387 . S
C509 C511 1.387 . S
H510 C517 0.950 . S
C511 C509 1.387 . S
C511 C513 1.390 1_556 S
C511 H515 0.950 . S
H512 C508 0.950 . S
C513 C511 1.390 1_554 S
C513 C514 1.387 . S
C513 H516 0.950 . S
C514 C513 1.387 . S
C514 C517 1.387 . S
H515 C511 0.950 . S
H516 C513 0.950 . S
C517 C508 1.390 1_554 S
C517 H510 0.950 . S
C517 C514 1.387 . S
C518 C519 1.387 . S
C518 H522 0.950 . S
C518 C527 1.390 1_565 S
C519 C518 1.387 . S
C519 C521 1.387 . S
H520 C527 0.950 . S
C521 C519 1.387 . S
C521 C523 1.390 1_565 S
C521 H525 0.950 . S
H522 C518 0.950 . S
C523 C521 1.390 1_545 S
C523 C524 1.387 . S
C523 H526 0.950 . S
C524 C523 1.387 . S
C524 C527 1.387 . S
H525 C521 0.950 . S
H526 C523 0.950 . S
C527 C518 1.390 1_545 S
C527 H520 0.950 . S
C527 C524 1.387 . S
C528 C529 1.387 . S
C528 H532 0.950 . S
C528 C537 1.390 1_556 S
C529 C528 1.387 . S
C529 C531 1.387 . S
H530 C537 0.950 . S
C531 C529 1.387 . S
C531 C533 1.390 1_556 S
C531 H535 0.950 . S
H532 C528 0.950 . S
C533 C531 1.390 1_554 S
C533 C534 1.387 . S
C533 H536 0.950 . S
C534 C533 1.387 . S
C534 C537 1.387 . S
H535 C531 0.950 . S
H536 C533 0.950 . S
C537 C528 1.390 1_554 S
C537 H530 0.950 . S
C537 C534 1.387 . S
C538 C539 1.387 . S
C538 H542 0.950 . S
C538 C547 1.390 . S
C539 C538 1.387 . S
C539 C541 1.387 . S
H540 C547 0.950 . S
C541 C539 1.387 . S
C541 C543 1.390 . S
C541 H545 0.950 . S
H542 C538 0.950 . S
C543 C541 1.390 . S
C543 C544 1.387 . S
C543 H546 0.950 . S
C544 C543 1.387 . S
C544 C547 1.387 . S
H545 C541 0.950 . S
H546 C543 0.950 . S
C547 C538 1.390 . S
C547 H540 0.950 . S
C547 C544 1.387 . S
C548 C549 1.387 . S
C548 H552 0.950 . S
C548 C557 1.390 . S
C549 C548 1.387 . S
C549 C551 1.387 . S
H550 C557 0.950 . S
C551 C549 1.387 . S
C551 C553 1.390 . S
C551 H555 0.950 . S
H552 C548 0.950 . S
C553 C551 1.390 . S
C553 C554 1.387 . S
C553 H556 0.950 . S
C554 C553 1.387 . S
C554 C557 1.387 . S
H555 C551 0.950 . S
H556 C553 0.950 . S
C557 C548 1.390 . S
C557 H550 0.950 . S
C557 C554 1.387 . S
C558 C559 1.387 . S
C558 H562 0.950 . S
C558 C567 1.390 . S
C559 C558 1.387 . S
C559 C561 1.387 . S
H560 C567 0.950 . S
C561 C559 1.387 . S
C561 C563 1.390 . S
C561 H565 0.950 . S
H562 C558 0.950 . S
C563 C561 1.390 . S
C563 C564 1.387 . S
C563 H566 0.950 . S
C564 C563 1.387 . S
C564 C567 1.387 . S
H565 C561 0.950 . S
H566 C563 0.950 . S
C567 C558 1.390 . S
C567 H560 0.950 . S
C567 C564 1.387 . S
C568 C569 1.387 . S
C568 H572 0.950 . S
C568 C577 1.390 1_556 S
C569 C568 1.387 . S
C569 C571 1.387 . S
H570 C577 0.950 . S
C571 C569 1.387 . S
C571 C573 1.390 1_556 S
C571 H575 0.950 . S
H572 C568 0.950 . S
C573 C571 1.390 1_554 S
C573 C574 1.387 . S
C573 H576 0.950 . S
C574 C573 1.387 . S
C574 C577 1.387 . S
H575 C571 0.950 . S
H576 C573 0.950 . S
C577 C568 1.390 1_554 S
C577 H570 0.950 . S
C577 C574 1.387 . S
C578 C579 1.387 . S
C578 H582 0.950 . S
C578 C587 1.390 . S
C579 C578 1.387 . S
C579 C581 1.387 . S
H580 C587 0.950 . S
C581 C579 1.387 . S
C581 C583 1.390 . S
C581 H585 0.950 . S
H582 C578 0.950 . S
C583 C581 1.390 . S
C583 C584 1.387 . S
C583 H586 0.950 . S
C584 C583 1.387 . S
C584 C587 1.387 . S
H585 C581 0.950 . S
H586 C583 0.950 . S
C587 C578 1.390 . S
C587 H580 0.950 . S
C587 C584 1.387 . S
C588 C589 1.387 . S
C588 H592 0.950 . S
C588 C597 1.390 . S
C589 C588 1.387 . S
C589 C591 1.387 . S
H590 C597 0.950 . S
C591 C589 1.387 . S
C591 C593 1.390 . S
C591 H595 0.950 . S
H592 C588 0.950 . S
C593 C591 1.390 . S
C593 C594 1.387 . S
C593 H596 0.950 . S
C594 C593 1.387 . S
C594 C597 1.387 . S
H595 C591 0.950 . S
H596 C593 0.950 . S
C597 C588 1.390 . S
C597 H590 0.950 . S
C597 C594 1.387 . S
C598 C599 1.387 . S
C598 H602 0.950 . S
C598 C607 1.390 . S
C599 C598 1.387 . S
C599 C601 1.387 . S
H600 C607 0.950 . S
C601 C599 1.387 . S
C601 C603 1.390 . S
C601 H605 0.950 . S
H602 C598 0.950 . S
C603 C601 1.390 . S
C603 C604 1.387 . S
C603 H606 0.950 . S
C604 C603 1.387 . S
C604 C607 1.387 . S
H605 C601 0.950 . S
H606 C603 0.950 . S
C607 C598 1.390 . S
C607 H600 0.950 . S
C607 C604 1.387 . S
C608 C609 1.387 . S
C608 H612 0.950 . S
C608 C617 1.390 . S
C609 C608 1.387 . S
C609 C611 1.387 1_556 S
H610 C617 0.950 . S
C611 C609 1.387 1_554 S
C611 C613 1.390 . S
C611 H615 0.950 . S
H612 C608 0.950 . S
C613 C611 1.390 . S
C613 C614 1.387 . S
C613 H616 0.950 . S
C614 C613 1.387 . S
C614 C617 1.387 1_554 S
H615 C611 0.950 . S
H616 C613 0.950 . S
C617 C608 1.390 . S
C617 H610 0.950 . S
C617 C614 1.387 1_556 S
C618 C619 1.387 . S
C618 H622 0.950 . S
C618 C627 1.390 . S
C619 C618 1.387 . S
C619 C621 1.387 . S
H620 C627 0.950 . S
C621 C619 1.387 . S
C621 C623 1.390 . S
C621 H625 0.950 . S
H622 C618 0.950 . S
C623 C621 1.390 . S
C623 C624 1.387 . S
C623 H626 0.950 . S
C624 C623 1.387 . S
C624 C627 1.387 . S
H625 C621 0.950 . S
H626 C623 0.950 . S
C627 C618 1.390 . S
C627 H620 0.950 . S
C627 C624 1.387 . S
C628 C629 1.387 . S
C628 H632 0.950 . S
C628 C637 1.390 . S
C629 C628 1.387 . S
C629 C631 1.387 . S
H630 C637 0.950 . S
C631 C629 1.387 . S
C631 C633 1.390 . S
C631 H635 0.950 . S
H632 C628 0.950 . S
C633 C631 1.390 . S
C633 C634 1.387 . S
C633 H636 0.950 . S
C634 C633 1.387 . S
C634 C637 1.387 . S
H635 C631 0.950 . S
H636 C633 0.950 . S
C637 C628 1.390 . S
C637 H630 0.950 . S
C637 C634 1.387 . S
C638 C639 1.387 . S
C638 H642 0.950 . S
C638 C647 1.390 . S
C639 C638 1.387 . S
C639 C641 1.387 1_556 S
H640 C647 0.950 . S
C641 C639 1.387 1_554 S
C641 C643 1.390 . S
C641 H645 0.950 . S
H642 C638 0.950 . S
C643 C641 1.390 . S
C643 C644 1.387 . S
C643 H646 0.950 . S
C644 C643 1.387 . S
C644 C647 1.387 1_554 S
H645 C641 0.950 . S
H646 C643 0.950 . S
C647 C638 1.390 . S
C647 H640 0.950 . S
C647 C644 1.387 1_556 S
C648 C649 1.387 1_556 S
C648 H652 0.950 . S
C648 C657 1.390 . S
C649 C648 1.387 1_554 S
C649 C651 1.387 . S
H650 C657 0.950 . S
C651 C649 1.387 . S
C651 C653 1.390 1_554 S
C651 H655 0.950 . S
H652 C648 0.950 . S
C653 C651 1.390 1_556 S
C653 C654 1.387 . S
C653 H656 0.950 . S
C654 C653 1.387 . S
C654 C657 1.387 . S
H655 C651 0.950 . S
H656 C653 0.950 . S
C657 C648 1.390 . S
C657 H650 0.950 . S
C657 C654 1.387 . S
C658 C659 1.387 . S
C658 H662 0.950 . S
C658 C667 1.390 . S
C659 C658 1.387 . S
C659 C661 1.387 . S
H660 C667 0.950 . S
C661 C659 1.387 . S
C661 C663 1.390 . S
C661 H665 0.950 . S
H662 C658 0.950 . S
C663 C661 1.390 . S
C663 C664 1.387 . S
C663 H666 0.950 . S
C664 C663 1.387 . S
C664 C667 1.387 . S
H665 C661 0.950 . S
H666 C663 0.950 . S
C667 C658 1.390 . S
C667 H660 0.950 . S
C667 C664 1.387 . S
C668 C669 1.387 . S
C668 H672 0.950 . S
C668 C677 1.390 . S
C669 C668 1.387 . S
C669 C671 1.387 . S
H670 C677 0.950 . S
C671 C669 1.387 . S
C671 C673 1.390 . S
C671 H675 0.950 . S
H672 C668 0.950 . S
C673 C671 1.390 . S
C673 C674 1.387 . S
C673 H676 0.950 . S
C674 C673 1.387 . S
C674 C677 1.387 . S
H675 C671 0.950 . S
H676 C673 0.950 . S
C677 C668 1.390 . S
C677 H670 0.950 . S
C677 C674 1.387 . S
C678 C679 1.387 1_554 S
C678 H682 0.950 . S
C678 C687 1.390 . S
C679 C678 1.387 1_556 S
C679 C681 1.387 . S
H680 C687 0.950 . S
C681 C679 1.387 . S
C681 C683 1.390 1_556 S
C681 H685 0.950 . S
H682 C678 0.950 . S
C683 C681 1.390 1_554 S
C683 C684 1.387 . S
C683 H686 0.950 . S
C684 C683 1.387 . S
C684 C687 1.387 . S
H685 C681 0.950 . S
H686 C683 0.950 . S
C687 C678 1.390 . S
C687 H680 0.950 . S
C687 C684 1.387 . S
C688 C689 1.387 . S
C688 H692 0.950 . S
C688 C697 1.390 . S
C689 C688 1.387 . S
C689 C691 1.387 . S
H690 C697 0.950 . S
C691 C689 1.387 . S
C691 C693 1.390 . S
C691 H695 0.950 . S
H692 C688 0.950 . S
C693 C691 1.390 . S
C693 C694 1.387 . S
C693 H696 0.950 . S
C694 C693 1.387 . S
C694 C697 1.387 . S
H695 C691 0.950 . S
H696 C693 0.950 . S
C697 C688 1.390 . S
C697 H690 0.950 . S
C697 C694 1.387 . S
C698 C699 1.387 . S
C698 H702 0.950 . S
C698 C707 1.390 . S
C699 C698 1.387 . S
C699 C701 1.387 1_554 S
H700 C707 0.950 . S
C701 C699 1.387 1_556 S
C701 C703 1.390 . S
C701 H705 0.950 . S
H702 C698 0.950 . S
C703 C701 1.390 . S
C703 C704 1.387 . S
C703 H706 0.950 . S
C704 C703 1.387 . S
C704 C707 1.387 1_556 S
H705 C701 0.950 . S
H706 C703 0.950 . S
C707 C698 1.390 . S
C707 H700 0.950 . S
C707 C704 1.387 1_554 S
C708 C709 1.387 . S
C708 H712 0.950 . S
C708 C717 1.390 . S
C709 C708 1.387 . S
C709 C711 1.387 . S
H710 C717 0.950 . S
C711 C709 1.387 . S
C711 C713 1.390 1_554 S
C711 H715 0.950 . S
H712 C708 0.950 . S
C713 C711 1.390 1_556 S
C713 C714 1.387 . S
C713 H716 0.950 . S
C714 C713 1.387 . S
C714 C717 1.387 1_556 S
H715 C711 0.950 . S
H716 C713 0.950 . S
C717 C708 1.390 . S
C717 H710 0.950 . S
C717 C714 1.387 1_554 S
C718 C719 1.387 . S
C718 H722 0.950 . S
C718 C727 1.390 . S
C719 C718 1.387 . S
C719 C721 1.387 . S
H720 C727 0.950 . S
C721 C719 1.387 . S
C721 C723 1.390 . S
C721 H725 0.950 . S
H722 C718 0.950 . S
C723 C721 1.390 . S
C723 C724 1.387 . S
C723 H726 0.950 . S
C724 C723 1.387 . S
C724 C727 1.387 . S
H725 C721 0.950 . S
H726 C723 0.950 . S
C727 C718 1.390 . S
C727 H720 0.950 . S
C727 C724 1.387 . S
C728 C729 1.387 . S
C728 H732 0.950 . S
C728 C737 1.390 . S
C729 C728 1.387 . S
C729 C731 1.387 . S
H730 C737 0.950 . S
C731 C729 1.387 . S
C731 C733 1.390 . S
C731 H735 0.950 . S
H732 C728 0.950 . S
C733 C731 1.390 . S
C733 C734 1.387 . S
C733 H736 0.950 . S
C734 C733 1.387 . S
C734 C737 1.387 . S
H735 C731 0.950 . S
H736 C733 0.950 . S
C737 C728 1.390 . S
C737 H730 0.950 . S
C737 C734 1.387 . S
C738 C739 1.387 . S
C738 H742 0.950 . S
C738 C747 1.390 . S
C739 C738 1.387 . S
C739 C741 1.387 1_556 S
H740 C747 0.950 . S
C741 C739 1.387 1_554 S
C741 C743 1.390 . S
C741 H745 0.950 . S
H742 C738 0.950 . S
C743 C741 1.390 . S
C743 C744 1.387 . S
C743 H746 0.950 . S
C744 C743 1.387 . S
C744 C747 1.387 1_554 S
H745 C741 0.950 . S
H746 C743 0.950 . S
C747 C738 1.390 . S
C747 H740 0.950 . S
C747 C744 1.387 1_556 S
C748 C749 1.387 . S
C748 H752 0.950 . S
C748 C757 1.390 1_556 S
C749 C748 1.387 . S
C749 C751 1.387 . S
H750 C757 0.950 . S
C751 C749 1.387 . S
C751 C753 1.390 . S
C751 H755 0.950 . S
H752 C748 0.950 . S
C753 C751 1.390 . S
C753 C754 1.387 1_556 S
C753 H756 0.950 1_556 S
C754 C753 1.387 1_554 S
C754 C757 1.387 . S
H755 C751 0.950 . S
H756 C753 0.950 1_554 S
C757 C748 1.390 1_554 S
C757 H750 0.950 . S
C757 C754 1.387 . S
C758 C759 1.387 . S
C758 H762 0.950 . S
C758 C767 1.390 . S
C759 C758 1.387 . S
C759 C761 1.387 . S
H760 C767 0.950 . S
C761 C759 1.387 . S
C761 C763 1.390 . S
C761 H765 0.950 . S
H762 C758 0.950 . S
C763 C761 1.390 . S
C763 C764 1.387 . S
C763 H766 0.950 . S
C764 C763 1.387 . S
C764 C767 1.387 . S
H765 C761 0.950 . S
H766 C763 0.950 . S
C767 C758 1.390 . S
C767 H760 0.950 . S
C767 C764 1.387 . S
C768 C769 1.387 1_556 S
C768 H772 0.950 . S
C768 C777 1.390 . S
C769 C768 1.387 1_554 S
C769 C771 1.387 . S
H770 C777 0.950 . S
C771 C769 1.387 . S
C771 C773 1.390 1_554 S
C771 H775 0.950 . S
H772 C768 0.950 . S
C773 C771 1.390 1_556 S
C773 C774 1.387 . S
C773 H776 0.950 . S
C774 C773 1.387 . S
C774 C777 1.387 . S
H775 C771 0.950 . S
H776 C773 0.950 . S
C777 C768 1.390 . S
C777 H770 0.950 . S
C777 C774 1.387 . S
C778 C779 1.387 . S
C778 H782 0.950 . S
C778 C787 1.390 1_655 S
C779 C778 1.387 . S
C779 C781 1.387 . S
H780 C787 0.950 . S
C781 C779 1.387 . S
C781 C783 1.390 1_655 S
C781 H785 0.950 . S
H782 C778 0.950 . S
C783 C781 1.390 1_455 S
C783 C784 1.387 . S
C783 H786 0.950 . S
C784 C783 1.387 . S
C784 C787 1.387 . S
H785 C781 0.950 . S
H786 C783 0.950 . S
C787 C778 1.390 1_455 S
C787 H780 0.950 . S
C787 C784 1.387 . S
C788 C789 1.387 . S
C788 H792 0.950 . S
C788 C797 1.390 . S
C789 C788 1.387 . S
C789 C791 1.387 . S
H790 C797 0.950 . S
C791 C789 1.387 . S
C791 C793 1.390 . S
C791 H795 0.950 . S
H792 C788 0.950 . S
C793 C791 1.390 . S
C793 C794 1.387 . S
C793 H796 0.950 . S
C794 C793 1.387 . S
C794 C797 1.387 . S
H795 C791 0.950 . S
H796 C793 0.950 . S
C797 C788 1.390 . S
C797 H790 0.950 . S
C797 C794 1.387 . S
C798 C799 1.387 . S
C798 H802 0.950 . S
C798 C807 1.390 . S
C799 C798 1.387 . S
C799 C801 1.387 . S
H800 C807 0.950 . S
C801 C799 1.387 . S
C801 C803 1.390 . S
C801 H805 0.950 . S
H802 C798 0.950 . S
C803 C801 1.390 . S
C803 C804 1.387 . S
C803 H806 0.950 . S
C804 C803 1.387 . S
C804 C807 1.387 . S
H805 C801 0.950 . S
H806 C803 0.950 . S
C807 C798 1.390 . S
C807 H800 0.950 . S
C807 C804 1.387 . S
C808 C809 1.387 . S
C808 H812 0.950 . S
C808 C817 1.390 . S
C809 C808 1.387 . S
C809 C811 1.387 . S
H810 C817 0.950 . S
C811 C809 1.387 . S
C811 C813 1.390 . S
C811 H815 0.950 . S
H812 C808 0.950 . S
C813 C811 1.390 . S
C813 C814 1.387 . S
C813 H816 0.950 . S
C814 C813 1.387 . S
C814 C817 1.387 . S
H815 C811 0.950 . S
H816 C813 0.950 . S
C817 C808 1.390 . S
C817 H810 0.950 . S
C817 C814 1.387 . S
C818 C819 1.387 . S
C818 H822 0.950 . S
C818 C827 1.390 . S
C819 C818 1.387 . S
C819 C821 1.387 . S
H820 C827 0.950 . S
C821 C819 1.387 . S
C821 C823 1.390 . S
C821 H825 0.950 . S
H822 C818 0.950 . S
C823 C821 1.390 . S
C823 C824 1.387 . S
C823 H826 0.950 . S
C824 C823 1.387 . S
C824 C827 1.387 . S
H825 C821 0.950 . S
H826 C823 0.950 . S
C827 C818 1.390 . S
C827 H820 0.950 . S
C827 C824 1.387 . S
C828 C829 1.387 1_554 S
C828 H832 0.950 . S
C828 C837 1.390 . S
C829 C828 1.387 1_556 S
C829 C831 1.387 . S
H830 C837 0.950 . S
C831 C829 1.387 . S
C831 C833 1.390 1_556 S
C831 H835 0.950 . S
H832 C828 0.950 . S
C833 C831 1.390 1_554 S
C833 C834 1.387 . S
C833 H836 0.950 . S
C834 C833 1.387 . S
C834 C837 1.387 . S
H835 C831 0.950 . S
H836 C833 0.950 . S
C837 C828 1.390 . S
C837 H830 0.950 . S
C837 C834 1.387 . S
C838 C839 1.387 . S
C838 H842 0.950 . S
C838 C847 1.390 1_455 S
C839 C838 1.387 . S
C839 C841 1.387 . S
H840 C847 0.950 . S
C841 C839 1.387 . S
C841 C843 1.390 1_455 S
C841 H845 0.950 . S
H842 C838 0.950 . S
C843 C841 1.390 1_655 S
C843 C844 1.387 . S
C843 H846 0.950 . S
C844 C843 1.387 . S
C844 C847 1.387 . S
H845 C841 0.950 . S
H846 C843 0.950 . S
C847 C838 1.390 1_655 S
C847 H840 0.950 . S
C847 C844 1.387 . S
C848 C849 1.387 . S
C848 H852 0.950 . S
C848 C857 1.390 1_556 S
C849 C848 1.387 . S
C849 C851 1.387 1_556 S
H850 C857 0.950 1_556 S
C851 C849 1.387 1_554 S
C851 C853 1.390 . S
C851 H855 0.950 . S
H852 C848 0.950 . S
C853 C851 1.390 . S
C853 C854 1.387 . S
C853 H856 0.950 . S
C854 C853 1.387 . S
C854 C857 1.387 . S
H855 C851 0.950 . S
H856 C853 0.950 . S
C857 C848 1.390 1_554 S
C857 H850 0.950 1_554 S
C857 C854 1.387 . S
C858 C859 1.387 . S
C858 H862 0.950 . S
C858 C867 1.390 1_455 S
C859 C858 1.387 . S
C859 C861 1.387 . S
H860 C867 0.950 . S
C861 C859 1.387 . S
C861 C863 1.390 1_455 S
C861 H865 0.950 . S
H862 C858 0.950 . S
C863 C861 1.390 1_655 S
C863 C864 1.387 . S
C863 H866 0.950 . S
C864 C863 1.387 . S
C864 C867 1.387 . S
H865 C861 0.950 . S
H866 C863 0.950 . S
C867 C858 1.390 1_655 S
C867 H860 0.950 . S
C867 C864 1.387 . S
C868 C869 1.387 . S
C868 H872 0.950 . S
C868 C877 1.390 . S
C869 C868 1.387 . S
C869 C871 1.387 . S
H870 C877 0.950 . S
C871 C869 1.387 . S
C871 C873 1.390 . S
C871 H875 0.950 . S
H872 C868 0.950 . S
C873 C871 1.390 . S
C873 C874 1.387 . S
C873 H876 0.950 . S
C874 C873 1.387 . S
C874 C877 1.387 . S
H875 C871 0.950 . S
H876 C873 0.950 . S
C877 C868 1.390 . S
C877 H870 0.950 . S
C877 C874 1.387 . S
C878 C879 1.387 . S
C878 H882 0.950 . S
C878 C887 1.390 . S
C879 C878 1.387 . S
C879 C881 1.387 . S
H880 C887 0.950 . S
C881 C879 1.387 . S
C881 C883 1.390 . S
C881 H885 0.950 . S
H882 C878 0.950 . S
C883 C881 1.390 . S
C883 C884 1.387 . S
C883 H886 0.950 . S
C884 C883 1.387 . S
C884 C887 1.387 . S
H885 C881 0.950 . S
H886 C883 0.950 . S
C887 C878 1.390 . S
C887 H880 0.950 . S
C887 C884 1.387 . S
C888 C889 1.387 . S
C888 H892 0.950 . S
C888 C897 1.390 . S
C889 C888 1.387 . S
C889 C891 1.387 . S
H890 C897 0.950 . S
C891 C889 1.387 . S
C891 C893 1.390 . S
C891 H895 0.950 . S
H892 C888 0.950 . S
C893 C891 1.390 . S
C893 C894 1.387 . S
C893 H896 0.950 . S
C894 C893 1.387 . S
C894 C897 1.387 . S
H895 C891 0.950 . S
H896 C893 0.950 . S
C897 C888 1.390 . S
C897 H890 0.950 . S
C897 C894 1.387 . S
C898 C899 1.387 . S
C898 H902 0.950 . S
C898 C907 1.390 . S
C899 C898 1.387 . S
C899 C901 1.387 . S
H900 C907 0.950 . S
C901 C899 1.387 . S
C901 C903 1.390 . S
C901 H905 0.950 . S
H902 C898 0.950 . S
C903 C901 1.390 . S
C903 C904 1.387 . S
C903 H906 0.950 . S
C904 C903 1.387 . S
C904 C907 1.387 . S
H905 C901 0.950 . S
H906 C903 0.950 . S
C907 C898 1.390 . S
C907 H900 0.950 . S
C907 C904 1.387 . S
C908 C909 1.387 1_556 S
C908 H912 0.950 . S
C908 C917 1.390 . S
C909 C908 1.387 1_554 S
C909 C911 1.387 . S
H910 C917 0.950 . S
C911 C909 1.387 . S
C911 C913 1.390 1_554 S
C911 H915 0.950 . S
H912 C908 0.950 . S
C913 C911 1.390 1_556 S
C913 C914 1.387 . S
C913 H916 0.950 1_556 S
C914 C913 1.387 . S
C914 C917 1.387 . S
H915 C911 0.950 . S
H916 C913 0.950 1_554 S
C917 C908 1.390 . S
C917 H910 0.950 . S
C917 C914 1.387 . S
C918 C919 1.387 . S
C918 H922 0.950 . S
C918 C927 1.390 1_455 S
C919 C918 1.387 . S
C919 C921 1.387 . S
H920 C927 0.950 . S
C921 C919 1.387 . S
C921 C923 1.390 1_455 S
C921 H925 0.950 . S
H922 C918 0.950 . S
C923 C921 1.390 1_655 S
C923 C924 1.387 . S
C923 H926 0.950 . S
C924 C923 1.387 . S
C924 C927 1.387 . S
H925 C921 0.950 . S
H926 C923 0.950 . S
C927 C918 1.390 1_655 S
C927 H920 0.950 . S
C927 C924 1.387 . S
C928 C929 1.387 . S
C928 H932 0.950 . S
C928 C937 1.390 . S
C929 C928 1.387 . S
C929 C931 1.387 . S
H930 C937 0.950 . S
C931 C929 1.387 . S
C931 C933 1.390 . S
C931 H935 0.950 . S
H932 C928 0.950 . S
C933 C931 1.390 . S
C933 C934 1.387 . S
C933 H936 0.950 . S
C934 C933 1.387 . S
C934 C937 1.387 . S
H935 C931 0.950 . S
H936 C933 0.950 . S
C937 C928 1.390 . S
C937 H930 0.950 . S
C937 C934 1.387 . S
C938 C939 1.387 . S
C938 H942 0.950 . S
C938 C947 1.390 . S
C939 C938 1.387 . S
C939 C941 1.387 . S
H940 C947 0.950 . S
C941 C939 1.387 . S
C941 C943 1.390 . S
C941 H945 0.950 . S
H942 C938 0.950 . S
C943 C941 1.390 . S
C943 C944 1.387 . S
C943 H946 0.950 . S
C944 C943 1.387 . S
C944 C947 1.387 . S
H945 C941 0.950 . S
H946 C943 0.950 . S
C947 C938 1.390 . S
C947 H940 0.950 . S
C947 C944 1.387 . S
C948 C949 1.387 1_556 S
C948 H952 0.950 . S
C948 C957 1.390 . S
C949 C948 1.387 1_554 S
C949 C951 1.387 . S
H950 C957 0.950 . S
C951 C949 1.387 . S
C951 C953 1.390 1_554 S
C951 H955 0.950 . S
H952 C948 0.950 . S
C953 C951 1.390 1_556 S
C953 C954 1.387 . S
C953 H956 0.950 . S
C954 C953 1.387 . S
C954 C957 1.387 . S
H955 C951 0.950 . S
H956 C953 0.950 . S
C957 C948 1.390 . S
C957 H950 0.950 . S
C957 C954 1.387 . S
C958 C959 1.387 . S
C958 H962 0.950 . S
C958 C967 1.390 1_655 S
C959 C958 1.387 . S
C959 C961 1.387 . S
H960 C967 0.950 . S
C961 C959 1.387 . S
C961 C963 1.390 1_655 S
C961 H965 0.950 . S
H962 C958 0.950 . S
C963 C961 1.390 1_455 S
C963 C964 1.387 . S
C963 H966 0.950 . S
C964 C963 1.387 . S
C964 C967 1.387 . S
H965 C961 0.950 . S
H966 C963 0.950 . S
C967 C958 1.390 1_455 S
C967 H960 0.950 . S
C967 C964 1.387 . S
C968 C969 1.387 1_554 S
C968 H972 0.950 . S
C968 C977 1.390 . S
C969 C968 1.387 1_556 S
C969 C971 1.387 1_556 S
H970 C977 0.950 . S
C971 C969 1.387 1_554 S
C971 C973 1.390 . S
C971 H975 0.950 1_554 S
H972 C968 0.950 . S
C973 C971 1.390 . S
C973 C974 1.387 . S
C973 H976 0.950 . S
C974 C973 1.387 . S
C974 C977 1.387 . S
H975 C971 0.950 1_556 S
H976 C973 0.950 . S
C977 C968 1.390 . S
C977 H970 0.950 . S
C977 C974 1.387 . S
C978 C979 1.387 . S
C978 H982 0.950 . S
C978 C987 1.390 1_655 S
C979 C978 1.387 . S
C979 C981 1.387 . S
H980 C987 0.950 . S
C981 C979 1.387 . S
C981 C983 1.390 1_655 S
C981 H985 0.950 . S
H982 C978 0.950 . S
C983 C981 1.390 1_455 S
C983 C984 1.387 . S
C983 H986 0.950 . S
C984 C983 1.387 . S
C984 C987 1.387 . S
H985 C981 0.950 . S
H986 C983 0.950 . S
C987 C978 1.390 1_455 S
C987 H980 0.950 . S
C987 C984 1.387 . S
C988 C989 1.387 . S
C988 H992 0.950 . S
C988 C997 1.390 . S
C989 C988 1.387 . S
C989 C991 1.387 . S
H990 C997 0.950 . S
C991 C989 1.387 . S
C991 C993 1.390 . S
C991 H995 0.950 . S
H992 C988 0.950 . S
C993 C991 1.390 . S
C993 C994 1.387 . S
C993 H996 0.950 . S
C994 C993 1.387 . S
C994 C997 1.387 . S
H995 C991 0.950 . S
H996 C993 0.950 . S
C997 C988 1.390 . S
C997 H990 0.950 . S
C997 C994 1.387 . S
C998 C999 1.387 . S
C998 H1002 0.950 . S
C998 C1007 1.390 . S
C999 C998 1.387 . S
C999 C1001 1.387 . S
H1000 C1007 0.950 . S
C1001 C999 1.387 . S
C1001 C1003 1.390 . S
C1001 H1005 0.950 . S
H1002 C998 0.950 . S
C1003 C1001 1.390 . S
C1003 C1004 1.387 . S
C1003 H1006 0.950 . S
C1004 C1003 1.387 . S
C1004 C1007 1.387 . S
H1005 C1001 0.950 . S
H1006 C1003 0.950 . S
C1007 C998 1.390 . S
C1007 H1000 0.950 . S
C1007 C1004 1.387 . S
C1008 C1009 1.387 . S
C1008 H1012 0.950 . S
C1008 C1017 1.390 . S
C1009 C1008 1.387 . S
C1009 C1011 1.387 . S
H1010 C1017 0.950 . S
C1011 C1009 1.387 . S
C1011 C1013 1.390 . S
C1011 H1015 0.950 . S
H1012 C1008 0.950 . S
C1013 C1011 1.390 . S
C1013 C1014 1.387 . S
C1013 H1016 0.950 . S
C1014 C1013 1.387 . S
C1014 C1017 1.387 . S
H1015 C1011 0.950 . S
H1016 C1013 0.950 . S
C1017 C1008 1.390 . S
C1017 H1010 0.950 . S
C1017 C1014 1.387 . S
C1018 C1019 1.387 . S
C1018 H1022 0.950 . S
C1018 C1027 1.390 . S
C1019 C1018 1.387 . S
C1019 C1021 1.387 . S
H1020 C1027 0.950 . S
C1021 C1019 1.387 . S
C1021 C1023 1.390 . S
C1021 H1025 0.950 . S
H1022 C1018 0.950 . S
C1023 C1021 1.390 . S
C1023 C1024 1.387 . S
C1023 H1026 0.950 . S
C1024 C1023 1.387 . S
C1024 C1027 1.387 . S
H1025 C1021 0.950 . S
H1026 C1023 0.950 . S
C1027 C1018 1.390 . S
C1027 H1020 0.950 . S
C1027 C1024 1.387 . S
C1028 C1029 1.387 . S
C1028 H1032 0.950 . S
C1028 C1037 1.390 . S
C1029 C1028 1.387 . S
C1029 C1031 1.387 . S
H1030 C1037 0.950 1_556 S
C1031 C1029 1.387 . S
C1031 C1033 1.390 . S
C1031 H1035 0.950 . S
H1032 C1028 0.950 . S
C1033 C1031 1.390 . S
C1033 C1034 1.387 1_554 S
C1033 H1036 0.950 . S
C1034 C1033 1.387 1_556 S
C1034 C1037 1.387 1_556 S
H1035 C1031 0.950 . S
H1036 C1033 0.950 . S
C1037 C1028 1.390 . S
C1037 H1030 0.950 1_554 S
C1037 C1034 1.387 1_554 S
C1038 C1039 1.387 . S
C1038 H1042 0.950 . S
C1038 C1047 1.390 1_455 S
C1039 C1038 1.387 . S
C1039 C1041 1.387 . S
H1040 C1047 0.950 . S
C1041 C1039 1.387 . S
C1041 C1043 1.390 1_455 S
C1041 H1045 0.950 . S
H1042 C1038 0.950 . S
C1043 C1041 1.390 1_655 S
C1043 C1044 1.387 . S
C1043 H1046 0.950 . S
C1044 C1043 1.387 . S
C1044 C1047 1.387 . S
H1045 C1041 0.950 . S
H1046 C1043 0.950 . S
C1047 C1038 1.390 1_655 S
C1047 H1040 0.950 . S
C1047 C1044 1.387 . S
C1048 C1049 1.387 . S
C1048 H1052 0.950 . S
C1048 C1057 1.390 1_554 S
C1049 C1048 1.387 . S
C1049 C1051 1.387 1_554 S
H1050 C1057 0.950 1_554 S
C1051 C1049 1.387 1_556 S
C1051 C1053 1.390 . S
C1051 H1055 0.950 . S
H1052 C1048 0.950 . S
C1053 C1051 1.390 . S
C1053 C1054 1.387 . S
C1053 H1056 0.950 . S
C1054 C1053 1.387 . S
C1054 C1057 1.387 . S
H1055 C1051 0.950 . S
H1056 C1053 0.950 . S
C1057 C1048 1.390 1_556 S
C1057 H1050 0.950 1_556 S
C1057 C1054 1.387 . S
C1058 C1059 1.387 . S
C1058 H1062 0.950 . S
C1058 C1067 1.390 1_655 S
C1059 C1058 1.387 . S
C1059 C1061 1.387 . S
H1060 C1067 0.950 . S
C1061 C1059 1.387 . S
C1061 C1063 1.390 1_655 S
C1061 H1065 0.950 . S
H1062 C1058 0.950 . S
C1063 C1061 1.390 1_455 S
C1063 C1064 1.387 . S
C1063 H1066 0.950 . S
C1064 C1063 1.387 . S
C1064 C1067 1.387 . S
H1065 C1061 0.950 . S
H1066 C1063 0.950 . S
C1067 C1058 1.390 1_455 S
C1067 H1060 0.950 . S
C1067 C1064 1.387 . S
C1068 C1069 1.387 . S
C1068 H1072 0.950 . S
C1068 C1077 1.390 . S
C1069 C1068 1.387 . S
C1069 C1071 1.387 . S
H1070 C1077 0.950 . S
C1071 C1069 1.387 . S
C1071 C1073 1.390 . S
C1071 H1075 0.950 . S
H1072 C1068 0.950 . S
C1073 C1071 1.390 . S
C1073 C1074 1.387 . S
C1073 H1076 0.950 . S
C1074 C1073 1.387 . S
C1074 C1077 1.387 . S
H1075 C1071 0.950 . S
H1076 C1073 0.950 . S
C1077 C1068 1.390 . S
C1077 H1070 0.950 . S
C1077 C1074 1.387 . S
C1078 C1079 1.387 . S
C1078 H1082 0.950 . S
C1078 C1087 1.390 . S
C1079 C1078 1.387 . S
C1079 C1081 1.387 . S
H1080 C1087 0.950 . S
C1081 C1079 1.387 . S
C1081 C1083 1.390 . S
C1081 H1085 0.950 . S
H1082 C1078 0.950 . S
C1083 C1081 1.390 . S
C1083 C1084 1.387 . S
C1083 H1086 0.950 . S
C1084 C1083 1.387 . S
C1084 C1087 1.387 . S
H1085 C1081 0.950 . S
H1086 C1083 0.950 . S
C1087 C1078 1.390 . S
C1087 H1080 0.950 . S
C1087 C1084 1.387 . S
C449 C84 2.576 . S
C454 C0 2.576 . S
C459 C14 1.430 . S
C464 C98 1.430 . S
C469 C56 2.576 . S
C474 C28 2.576 . S
C479 C42 1.430 . S
C484 C70 1.430 . S
C489 C196 2.576 . S
C494 C112 2.576 . S
C499 C126 1.430 . S
C504 C210 1.430 . S
C509 C168 2.576 . S
C514 C140 2.576 . S
C519 C154 1.430 . S
C524 C182 1.430 . S
C529 C224 2.574 . S
C534 C308 2.574 . S
C539 C322 1.430 . S
C544 C238 1.430 . S
C549 C252 2.574 . S
C554 C280 2.574 . S
C559 C294 1.430 . S
C564 C266 1.430 . S
C569 C420 2.574 . S
C574 C336 2.574 . S
C579 C434 1.430 . S
C584 C350 1.430 . S
C589 C392 2.574 . S
C594 C364 2.574 . S
C599 C378 1.430 . S
C604 C406 1.430 . S
C609 C109 1.378 . S
C614 C11 1.387 . S
C619 C67 1.388 . S
C624 C25 1.377 . S
C629 C81 1.376 . S
C634 C39 1.387 . S
C639 C95 1.388 . S
C644 C53 1.376 . S
C649 C221 1.378 . S
C654 C123 1.387 . S
C659 C179 1.388 . S
C664 C137 1.377 . S
C669 C193 1.377 . S
C674 C151 1.388 . S
C679 C165 1.378 . S
C684 C207 1.387 . S
C689 C333 1.377 . S
C694 C235 1.388 . S
C699 C249 1.377 . S
C704 C291 1.387 . S
C709 C263 1.387 . S
C714 C305 1.376 . S
C719 C319 1.387 . S
C724 C277 1.378 . S
C729 C445 1.376 . S
C734 C347 1.388 . S
C739 C361 1.376 . S
C744 C403 1.387 . S
C749 C375 1.387 . S
C754 C417 1.376 . S
C759 C431 1.387 . S
C764 C389 1.376 . S
C769 C9 1.752 . S
C774 C425 2.089 . S
C779 C215 1.330 . S
C784 C23 1.353 . S
C789 C397 2.089 . S
C794 C37 1.752 . S
C799 C187 1.330 . S
C804 C51 1.353 1_556 S
C809 C369 2.088 . S
C814 C65 1.747 . S
C819 C79 1.353 . S
C824 C159 1.330 . S
C829 C93 1.752 . S
C834 C341 2.089 . S
C839 C107 1.353 1_554 S
C844 C131 1.330 . S
C849 C121 1.751 . S
C854 C313 2.089 . S
C859 C103 1.330 . S
C864 C135 1.353 . S
C869 C285 2.088 . S
C874 C149 1.748 . S
C879 C75 1.330 . S
C884 C163 1.353 1_554 S
C889 C257 2.087 . S
C894 C177 1.747 . S
C899 C47 1.328 . S
C904 C191 1.352 . S
C909 C205 1.748 . S
C914 C229 2.088 . S
C919 C19 1.330 . S
C924 C219 1.353 1_556 S
C929 C201 2.088 . S
C934 C233 1.747 . S
C939 C439 1.330 . S
C944 C247 1.353 1_556 S
C949 C261 1.750 . S
C954 C173 2.089 . S
C959 C275 1.353 . S
C964 C411 1.330 . S
C969 C289 1.749 . S
C974 C145 2.089 . S
C979 C303 1.353 1_554 S
C984 C383 1.330 . S
C989 C317 1.751 . S
C994 C117 2.089 . S
C999 C331 1.352 . S
C1004 C355 1.328 . S
C1009 C89 2.089 . S
C1014 C345 1.752 . S
C1019 C327 1.330 . S
C1024 C359 1.353 1_554 S
C1029 C61 2.089 . S
C1034 C373 1.752 . S
C1039 C387 1.353 . S
C1044 C299 1.330 . S
C1049 C401 1.751 . S
C1054 C33 2.089 . S
C1059 C271 1.330 . S
C1064 C415 1.353 1_556 S
C1069 C429 1.748 . S
C1074 C5 2.088 . S
C1079 C443 1.352 . S
C1084 C243 1.329 . S
