# Generated by pormake.
# Topology wiu, (6)-cn, num edge types: 1
# Building blocks:
#     Node 0, Type 0, BuildingBlock: BETDAH_clean_sbu_0, # of connection points: 6
#     Node 1, Type 0, BuildingBlock: BETDAH_clean_sbu_0, # of connection points: 6
#     Node 2, Type 0, BuildingBlock: BETDAH_clean_sbu_0, # of connection points: 6
#     Node 3, Type 0, BuildingBlock: BETDAH_clean_sbu_0, # of connection points: 6
#     Node 4, Type 0, BuildingBlock: BETDAH_clean_sbu_0, # of connection points: 6
#     Node 5, Type 0, BuildingBlock: BETDAH_clean_sbu_0, # of connection points: 6
#     Node 6, Type 0, BuildingBlock: BETDAH_clean_sbu_0, # of connection points: 6
#     Node 7, Type 0, BuildingBlock: BETDAH_clean_sbu_0, # of connection points: 6
#     Node 8, Type 0, BuildingBlock: BETDAH_clean_sbu_0, # of connection points: 6
#     Node 9, Type 0, BuildingBlock: BETDAH_clean_sbu_0, # of connection points: 6
#     Node 10, Type 0, BuildingBlock: BETDAH_clean_sbu_0, # of connection points: 6
#     Node 11, Type 0, BuildingBlock: BETDAH_clean_sbu_0, # of connection points: 6
#     Node 12, Type 0, BuildingBlock: BETDAH_clean_sbu_0, # of connection points: 6
#     Node 13, Type 0, BuildingBlock: BETDAH_clean_sbu_0, # of connection points: 6
#     Node 14, Type 0, BuildingBlock: BETDAH_clean_sbu_0, # of connection points: 6
#     Node 15, Type 0, BuildingBlock: BETDAH_clean_sbu_0, # of connection points: 6
#     Edge 16, Type (0, 0), BuildingBlock: TEMPAE_clean_linker_10, # of connection points: 2
#     Edge 17, Type (0, 0), BuildingBlock: TEMPAE_clean_linker_10, # of connection points: 2
#     Edge 18, Type (0, 0), BuildingBlock: TEMPAE_clean_linker_10, # of connection points: 2
#     Edge 19, Type (0, 0), BuildingBlock: TEMPAE_clean_linker_10, # of connection points: 2
#     Edge 20, Type (0, 0), BuildingBlock: TEMPAE_clean_linker_10, # of connection points: 2
#     Edge 21, Type (0, 0), BuildingBlock: TEMPAE_clean_linker_10, # of connection points: 2
#     Edge 22, Type (0, 0), BuildingBlock: TEMPAE_clean_linker_10, # of connection points: 2
#     Edge 23, Type (0, 0), BuildingBlock: TEMPAE_clean_linker_10, # of connection points: 2
#     Edge 24, Type (0, 0), BuildingBlock: TEMPAE_clean_linker_10, # of connection points: 2
#     Edge 25, Type (0, 0), BuildingBlock: TEMPAE_clean_linker_10, # of connection points: 2
#     Edge 26, Type (0, 0), BuildingBlock: TEMPAE_clean_linker_10, # of connection points: 2
#     Edge 27, Type (0, 0), BuildingBlock: TEMPAE_clean_linker_10, # of connection points: 2
#     Edge 28, Type (0, 0), BuildingBlock: TEMPAE_clean_linker_10, # of connection points: 2
#     Edge 29, Type (0, 0), BuildingBlock: TEMPAE_clean_linker_10, # of connection points: 2
#     Edge 30, Type (0, 0), BuildingBlock: TEMPAE_clean_linker_10, # of connection points: 2
#     Edge 31, Type (0, 0), BuildingBlock: TEMPAE_clean_linker_10, # of connection points: 2
#     Edge 32, Type (0, 0), BuildingBlock: TEMPAE_clean_linker_10, # of connection points: 2
#     Edge 33, Type (0, 0), BuildingBlock: TEMPAE_clean_linker_10, # of connection points: 2
#     Edge 34, Type (0, 0), BuildingBlock: TEMPAE_clean_linker_10, # of connection points: 2
#     Edge 35, Type (0, 0), BuildingBlock: TEMPAE_clean_linker_10, # of connection points: 2
#     Edge 36, Type (0, 0), BuildingBlock: TEMPAE_clean_linker_10, # of connection points: 2
#     Edge 37, Type (0, 0), BuildingBlock: TEMPAE_clean_linker_10, # of connection points: 2
#     Edge 38, Type (0, 0), BuildingBlock: TEMPAE_clean_linker_10, # of connection points: 2
#     Edge 39, Type (0, 0), BuildingBlock: TEMPAE_clean_linker_10, # of connection points: 2
#     Edge 40, Type (0, 0), BuildingBlock: TEMPAE_clean_linker_10, # of connection points: 2
#     Edge 41, Type (0, 0), BuildingBlock: TEMPAE_clean_linker_10, # of connection points: 2
#     Edge 42, Type (0, 0), BuildingBlock: TEMPAE_clean_linker_10, # of connection points: 2
#     Edge 43, Type (0, 0), BuildingBlock: TEMPAE_clean_linker_10, # of connection points: 2
#     Edge 44, Type (0, 0), BuildingBlock: TEMPAE_clean_linker_10, # of connection points: 2
#     Edge 45, Type (0, 0), BuildingBlock: TEMPAE_clean_linker_10, # of connection points: 2
#     Edge 46, Type (0, 0), BuildingBlock: TEMPAE_clean_linker_10, # of connection points: 2
#     Edge 47, Type (0, 0), BuildingBlock: TEMPAE_clean_linker_10, # of connection points: 2
#     Edge 48, Type (0, 0), BuildingBlock: TEMPAE_clean_linker_10, # of connection points: 2
#     Edge 49, Type (0, 0), BuildingBlock: TEMPAE_clean_linker_10, # of connection points: 2
#     Edge 50, Type (0, 0), BuildingBlock: TEMPAE_clean_linker_10, # of connection points: 2
#     Edge 51, Type (0, 0), BuildingBlock: TEMPAE_clean_linker_10, # of connection points: 2
#     Edge 52, Type (0, 0), BuildingBlock: TEMPAE_clean_linker_10, # of connection points: 2
#     Edge 53, Type (0, 0), BuildingBlock: TEMPAE_clean_linker_10, # of connection points: 2
#     Edge 54, Type (0, 0), BuildingBlock: TEMPAE_clean_linker_10, # of connection points: 2
#     Edge 55, Type (0, 0), BuildingBlock: TEMPAE_clean_linker_10, # of connection points: 2
#     Edge 56, Type (0, 0), BuildingBlock: TEMPAE_clean_linker_10, # of connection points: 2
#     Edge 57, Type (0, 0), BuildingBlock: TEMPAE_clean_linker_10, # of connection points: 2
#     Edge 58, Type (0, 0), BuildingBlock: TEMPAE_clean_linker_10, # of connection points: 2
#     Edge 59, Type (0, 0), BuildingBlock: TEMPAE_clean_linker_10, # of connection points: 2
#     Edge 60, Type (0, 0), BuildingBlock: TEMPAE_clean_linker_10, # of connection points: 2
#     Edge 61, Type (0, 0), BuildingBlock: TEMPAE_clean_linker_10, # of connection points: 2
#     Edge 62, Type (0, 0), BuildingBlock: TEMPAE_clean_linker_10, # of connection points: 2
#     Edge 63, Type (0, 0), BuildingBlock: TEMPAE_clean_linker_10, # of connection points: 2
# Relax obj value: 0.554
# Max RMSD: 0.323
# Mean RMSD: 0.323
data_MOF--net-wiu--node1-BETDAH_clean_sbu_0--edge1-TEMPAE_clean_linker_10
_symmetry_space_group_name_H-M    P1
_symmetry_Int_Tables_number       1
_symmetry_cell_setting            triclinic
loop_
_symmetry_equiv_pos_as_xyz
'x, y, z'
_cell_length_a     38.263871
_cell_length_b     38.246946
_cell_length_c     58.499862
_cell_angle_alpha  89.769877
_cell_angle_beta   89.832448
_cell_angle_gamma 90.054067
loop_
_atom_site_label
_atom_site_type_symbol
_atom_site_fract_x
_atom_site_fract_y
_atom_site_fract_z
_atom_type_partial_charge
Ho0 Ho 0.32562 0.16283 0.26411 0.0
Ho1 Ho 0.3667 0.10707 0.25022 0.0
C2 C 0.354 0.10603 0.30411 0.0
C3 C 0.28599 0.21228 0.28004 0.0
C4 C 0.27865 0.24904 0.2732 0.0
C5 C 0.24913 0.25697 0.25989 0.0
C6 C 0.2422 0.2914 0.25312 0.0
C7 C 0.26444 0.31889 0.25964 0.0
C8 C 0.29375 0.31106 0.27319 0.0
C9 C 0.30078 0.27657 0.27989 0.0
C10 C 0.39172 0.18673 0.25154 0.0
C11 C 0.31436 0.13911 0.20969 0.0
C12 C 0.41876 0.07125 0.2355 0.0
C13 C 0.43942 0.05001 0.21992 0.0
C14 C 0.4401 0.05689 0.19643 0.0
C15 C 0.46619 0.04211 0.18291 0.0
C16 C 0.49192 0.02063 0.19285 0.0
C17 C 0.48954 1.01185 0.21606 0.0
C18 C 0.46328 0.02639 0.22951 0.0
C19 C 0.30029 0.08562 0.2598 0.0
O20 O 0.32892 0.12896 0.29826 0.0
O21 O 0.37677 0.09785 0.28804 0.0
O22 O 0.27498 0.18795 0.26629 0.0
O23 O 0.31706 0.20532 0.28796 0.0
O24 O 0.36215 0.19901 0.2445 0.0
O25 O 0.38462 0.15965 0.26374 0.0
O26 O 0.34133 0.11783 0.21431 0.0
O27 O 0.30291 0.15921 0.22691 0.0
O28 O 0.39305 0.05712 0.24694 0.0
O29 O 0.41442 0.10446 0.2308 0.0
O30 O 0.32779 0.06661 0.26343 0.0
O31 O 0.30962 0.11327 0.24999 0.0
H32 H 0.23129 0.23651 0.25468 0.0
H33 H 0.21907 0.29657 0.24303 0.0
H34 H 0.31152 0.33157 0.27841 0.0
H35 H 0.32365 0.27152 0.29025 0.0
H36 H 0.42191 0.07524 0.18884 0.0
H37 H 0.46772 0.04952 0.16504 0.0
H38 H 0.50896 0.9952 0.22399 0.0
H39 H 0.46305 0.02102 0.24772 0.0
Ho40 Ho 0.61219 0.59187 0.51013 0.0
Ho41 Ho 0.6676 0.63214 0.49439 0.0
C42 C 0.67125 0.62126 0.54855 0.0
C43 C 0.56273 0.55335 0.52757 0.0
C44 C 0.52606 0.54523 0.5209 0.0
C45 C 0.51831 0.51401 0.50934 0.0
C46 C 0.48403 0.50626 0.50271 0.0
C47 C 0.45647 0.5294 0.50763 0.0
C48 C 0.46412 0.56046 0.51942 0.0
C49 C 0.49847 0.5683 0.52597 0.0
C50 C 0.58851 0.65781 0.49704 0.0
C51 C 0.63426 0.57659 0.45591 0.0
C52 C 0.6991 0.68245 0.47316 0.0
C53 C 0.70135 0.72101 0.47404 0.0
C54 C 0.67438 0.7418 0.46505 0.0
C55 C 0.67976 0.77733 0.46097 0.0
C56 C 0.71223 0.79292 0.4658 0.0
C57 C 0.7376 0.77296 0.47735 0.0
C58 C 0.73237 0.73722 0.48118 0.0
C59 C 0.68986 0.5666 0.50481 0.0
O60 O 0.64713 0.59679 0.54356 0.0
O61 O 0.68005 0.64313 0.53186 0.0
O62 O 0.58731 0.54127 0.51432 0.0
O63 O 0.56953 0.58509 0.53432 0.0
O64 O 0.57588 0.62811 0.49051 0.0
O65 O 0.61592 0.65091 0.50876 0.0
O66 O 0.65674 0.60267 0.45994 0.0
O67 O 0.61359 0.56704 0.47341 0.0
O68 O 0.66925 0.66917 0.46667 0.0
O69 O 0.71359 0.66466 0.48972 0.0
O70 O 0.70934 0.59427 0.50661 0.0
O71 O 0.66151 0.57516 0.49568 0.0
H72 H 0.53882 0.49545 0.50539 0.0
H73 H 0.47904 0.48183 0.49401 0.0
H74 H 0.4436 0.57898 0.52337 0.0
H75 H 0.50335 0.59253 0.53494 0.0
H76 H 0.64993 0.73027 0.45959 0.0
H77 H 0.65958 0.7916 0.45196 0.0
H78 H 0.76262 0.7843 0.48177 0.0
H79 H 0.75346 0.7219 0.48839 0.0
Ho80 Ho 0.18338 0.86949 0.76464 0.0
Ho81 Ho 0.14748 0.92716 0.75082 0.0
C82 C 0.15513 0.92682 0.8045 0.0
C83 C 0.21862 0.81722 0.78163 0.0
C84 C 0.22466 0.78061 0.7746 0.0
C85 C 0.24395 0.75811 0.7887 0.0
C86 C 0.25056 0.72357 0.78201 0.0
C87 C 0.23796 0.71071 0.76103 0.0
C88 C 0.21838 0.73342 0.74702 0.0
C89 C 0.21184 0.76799 0.75373 0.0
C90 C 0.11702 0.84914 0.75045 0.0
C91 C 0.19988 0.89306 0.71096 0.0
C92 C 0.10666 0.97 0.72986 0.0
C93 C 0.11374 0.99137 0.70968 0.0
C94 C 0.08605 1.00513 0.69704 0.0
C95 C 0.09246 0.0197 0.67557 0.0
C96 C 0.12656 0.02012 0.6665 0.0
C97 C 0.15455 1.00869 0.67991 0.0
C98 C 0.14819 0.99464 0.70154 0.0
C99 C 0.21438 0.94497 0.76194 0.0
O100 O 0.17961 0.90302 0.79891 0.0
O101 O 0.13351 0.9361 0.78805 0.0
O102 O 0.23212 0.84119 0.76844 0.0
O103 O 0.18693 0.82517 0.78788 0.0
O104 O 0.14645 0.83644 0.74348 0.0
O105 O 0.12441 0.87551 0.76308 0.0
O106 O 0.17449 0.9159 0.7156 0.0
O107 O 0.20889 0.87145 0.72803 0.0
O108 O 0.12451 0.97848 0.74794 0.0
O109 O 0.10643 0.93628 0.72619 0.0
O110 O 0.18741 0.96438 0.76598 0.0
O111 O 0.20445 0.91825 0.75144 0.0
H112 H 0.25423 0.76735 0.80482 0.0
H113 H 0.26618 0.70716 0.7931 0.0
H114 H 0.20791 0.72445 0.73089 0.0
H115 H 0.1969 0.78491 0.74256 0.0
H116 H 0.05939 1.00275 0.70314 0.0
H117 H 0.07042 0.02793 0.66528 0.0
H118 H 0.18093 1.0088 0.67316 0.0
H119 H 0.16994 0.9845 0.71133 0.0
Ho120 Ho 0.90028 0.44142 1.01018 0.0
Ho121 Ho 0.84545 0.40077 0.995 0.0
C122 C 0.84147 0.41176 1.04903 0.0
C123 C 0.94931 0.48022 1.02777 0.0
C124 C 0.98623 0.48739 1.02178 0.0
C125 C 1.00652 0.50906 1.03574 0.0
C126 C 0.0413 0.51672 1.02994 0.0
C127 C 0.0566 0.50282 1.01 0.0
C128 C 0.0361 0.48085 0.99613 0.0
C129 C 1.00132 0.47327 1.00195 0.0
C130 C 0.92468 0.37562 0.99726 0.0
C131 C 0.87772 0.4568 0.95612 0.0
C132 C 0.81439 0.35018 0.97414 0.0
C133 C 0.81485 0.31176 0.97476 0.0
C134 C 0.7846 0.29355 0.96868 0.0
C135 C 0.78627 0.25791 0.96384 0.0
C136 C 0.81838 0.23999 0.9648 0.0
C137 C 0.84789 0.25756 0.97328 0.0
C138 C 0.84613 0.29325 0.97829 0.0
C139 C 0.82192 0.46583 1.00546 0.0
O140 O 0.86524 0.43654 1.04375 0.0
O141 O 0.8331 0.38963 1.03256 0.0
O142 O 0.9261 0.49165 1.01334 0.0
O143 O 0.94209 0.44864 1.03479 0.0
O144 O 0.93683 0.40548 0.99049 0.0
O145 O 0.8973 0.38227 1.00912 0.0
O146 O 0.85562 0.43042 0.96039 0.0
O147 O 0.89835 0.46655 0.97345 0.0
O148 O 0.84303 0.3651 0.96676 0.0
O149 O 0.80063 0.36625 0.99163 0.0
O150 O 0.80308 0.43772 1.00737 0.0
O151 O 0.85048 0.45801 0.99617 0.0
H152 H 0.99536 0.52037 1.05106 0.0
H153 H 0.05596 0.53413 1.04088 0.0
H154 H 0.04699 0.46929 0.98082 0.0
H155 H 0.98614 0.45653 0.99087 0.0
H156 H 0.76024 0.30737 0.96599 0.0
H157 H 0.76311 0.24537 0.95709 0.0
H158 H 0.87291 0.24441 0.9743 0.0
H159 H 0.86975 0.30681 0.98331 0.0
Ho160 Ho 0.64734 0.92794 0.97925 0.0
Ho161 Ho 0.68326 0.87033 0.96542 0.0
C162 C 0.69952 0.89334 1.01909 0.0
C163 C 0.60649 0.97056 1.00027 0.0
C164 C 0.6137 0.99176 1.02037 0.0
C165 C 0.64824 0.99508 1.0282 0.0
C166 C 0.65481 1.00884 1.04978 0.0
C167 C 0.62692 0.01989 1.06347 0.0
C168 C 0.59272 0.01948 1.0547 0.0
C169 C 0.58611 1.00521 1.03327 0.0
C170 C 0.71439 0.9458 0.96812 0.0
C171 C 0.6551 0.92793 0.92552 0.0
C172 C 0.71838 0.81787 0.94889 0.0
C173 C 0.72546 0.78129 0.95647 0.0
C174 C 0.75077 0.77398 0.97324 0.0
C175 C 0.7576 0.73949 0.98005 0.0
C176 C 0.7394 0.71128 0.97027 0.0
C177 C 0.71408 0.71862 0.9535 0.0
C178 C 0.70729 0.75314 0.94666 0.0
C179 C 0.61672 0.8501 0.97958 0.0
O180 O 0.67427 0.91635 1.01443 0.0
O181 O 0.70845 0.87177 1.00205 0.0
O182 O 0.62426 0.97918 0.98207 0.0
O183 O 0.60628 0.9368 1.00401 0.0
O184 O 0.68748 0.9653 0.96409 0.0
O185 O 0.70431 0.91893 0.97857 0.0
O186 O 0.67947 0.90398 0.93106 0.0
O187 O 0.63357 0.93727 0.94205 0.0
O188 O 0.73236 0.84298 0.96077 0.0
O189 O 0.68645 0.82532 0.94292 0.0
O190 O 0.64602 0.83726 0.98667 0.0
O191 O 0.62439 0.87652 0.9669 0.0
H192 H 0.66992 0.98516 1.0182 0.0
H193 H 0.68126 1.00897 1.05629 0.0
H194 H 0.57078 0.02746 1.0652 0.0
H195 H 0.55939 1.00279 1.02741 0.0
H196 H 0.76557 0.79489 0.98107 0.0
H197 H 0.77771 0.73492 0.9927 0.0
H198 H 0.69928 0.69769 0.94572 0.0
H199 H 0.68776 0.75778 0.93363 0.0
Ho200 Ho 0.345 0.40137 0.7342 0.0
Ho201 Ho 0.39972 0.44212 0.71866 0.0
C202 C 0.37726 0.45736 0.77275 0.0
C203 C 0.31409 0.35059 0.75532 0.0
C204 C 0.31475 0.31219 0.75461 0.0
C205 C 0.28472 0.29368 0.76098 0.0
C206 C 0.28666 0.25793 0.76562 0.0
C207 C 0.31884 0.2402 0.76417 0.0
C208 C 0.3481 0.25813 0.75545 0.0
C209 C 0.34605 0.29392 0.75063 0.0
C210 C 0.32132 0.46656 0.72372 0.0
C211 C 0.34136 0.41206 0.68008 0.0
C212 C 0.44917 0.48074 0.7012 0.0
C213 C 0.486 0.48882 0.70763 0.0
C214 C 0.49362 0.51451 0.72405 0.0
C215 C 0.52825 0.52203 0.73003 0.0
C216 C 0.55632 0.50422 0.71971 0.0
C217 C 0.54869 0.4787 0.70316 0.0
C218 C 0.51402 0.47117 0.69717 0.0
C219 C 0.42417 0.37641 0.73185 0.0
O220 O 0.35518 0.43095 0.76868 0.0
O221 O 0.39788 0.46714 0.75529 0.0
O222 O 0.34273 0.3655 0.76254 0.0
O223 O 0.30019 0.36685 0.73792 0.0
O224 O 0.30258 0.4384 0.72186 0.0
O225 O 0.34992 0.45864 0.73283 0.0
O226 O 0.36488 0.43705 0.68518 0.0
O227 O 0.33305 0.38994 0.69672 0.0
O228 O 0.42459 0.49272 0.71449 0.0
O229 O 0.44243 0.449 0.69445 0.0
O230 O 0.43621 0.40627 0.73852 0.0
O231 O 0.39686 0.38304 0.71997 0.0
H232 H 0.26034 0.30731 0.76401 0.0
H233 H 0.26369 0.24511 0.77256 0.0
H234 H 0.37317 0.24514 0.75407 0.0
H235 H 0.3695 0.30773 0.74539 0.0
H236 H 0.47283 0.52897 0.7323 0.0
H237 H 0.53303 0.54229 0.74252 0.0
H238 H 0.56953 0.46422 0.69498 0.0
H239 H 0.50917 0.45141 0.68435 0.0
Ho240 Ho 0.8673 0.10725 0.47834 0.0
Ho241 Ho 0.82641 0.16309 0.46447 0.0
C242 C 0.81479 0.1392 0.51888 0.0
C243 C 0.91919 0.07118 0.49309 0.0
C244 C 0.93959 0.05029 0.50904 0.0
C245 C 0.93966 0.05752 0.53246 0.0
C246 C 0.96562 0.04324 0.5463 0.0
C247 C 0.9918 0.02192 0.53675 0.0
C248 C 0.99002 1.01275 0.51363 0.0
C249 C 0.9639 0.02678 0.49987 0.0
C250 C 0.80098 0.08566 0.46876 0.0
C251 C 0.85517 0.10678 0.42446 0.0
C252 C 0.78738 0.21313 0.44851 0.0
C253 C 0.77998 0.24985 0.45538 0.0
C254 C 0.75491 0.25734 0.47232 0.0
C255 C 0.74802 0.2919 0.47872 0.0
C256 C 0.76588 0.31998 0.46832 0.0
C257 C 0.79077 0.31249 0.45127 0.0
C258 C 0.79766 0.2779 0.44485 0.0
C259 C 0.89244 0.1866 0.47716 0.0
O260 O 0.84179 0.11796 0.51427 0.0
O261 O 0.8034 0.15937 0.50163 0.0
O262 O 0.89306 0.05704 0.48225 0.0
O263 O 0.91535 0.10459 0.49718 0.0
O264 O 0.82865 0.06704 0.46483 0.0
O265 O 0.8101 0.11325 0.4786 0.0
O266 O 0.82987 0.12945 0.43037 0.0
O267 O 0.87792 0.09863 0.44051 0.0
O268 O 0.7759 0.18839 0.46196 0.0
O269 O 0.8187 0.20637 0.44087 0.0
O270 O 0.86283 0.19869 0.48433 0.0
O271 O 0.88536 0.15988 0.46479 0.0
H272 H 0.92113 0.07581 0.53972 0.0
H273 H 0.96668 0.05092 0.56409 0.0
H274 H 1.0098 0.9962 0.506 0.0
H275 H 0.96413 0.02115 0.48172 0.0
H276 H 0.74044 0.2365 0.48064 0.0
H277 H 0.72823 0.29664 0.49161 0.0
H278 H 0.80524 0.33338 0.443 0.0
H279 H 0.81695 0.27313 0.43164 0.0
Ho280 Ho 0.16898 0.63171 0.23424 0.0
Ho281 Ho 0.11211 0.59363 0.21922 0.0
C282 C 0.1341 0.57732 0.27326 0.0
C283 C 0.20753 0.67412 0.25727 0.0
C284 C 0.22653 0.66939 0.27895 0.0
C285 C 0.20931 0.65691 0.2986 0.0
C286 C 0.22788 0.65072 0.31867 0.0
C287 C 0.26403 0.6569 0.31957 0.0
C288 C 0.28133 0.66918 0.29987 0.0
C289 C 0.26271 0.67529 0.27971 0.0
C290 C 0.18818 0.56541 0.22321 0.0
C291 C 0.17095 0.62293 0.18014 0.0
C292 C 0.06189 0.55645 0.2018 0.0
C293 C 0.02538 0.54767 0.20865 0.0
C294 C 0.01826 0.51745 0.22165 0.0
C295 C 0.98398 0.50901 0.22806 0.0
C296 C 0.95581 0.53042 0.22152 0.0
C297 C 0.96289 0.56051 0.20836 0.0
C298 C 0.99721 0.569 0.20199 0.0
C299 C 0.09004 0.65967 0.2327 0.0
O300 O 0.1568 0.60314 0.26897 0.0
O301 O 0.11323 0.56813 0.2559 0.0
O302 O 0.21932 0.65576 0.24016 0.0
O303 O 0.17334 0.67413 0.2584 0.0
O304 O 0.20793 0.59254 0.21995 0.0
O305 O 0.16085 0.57494 0.23323 0.0
O306 O 0.14656 0.59873 0.18538 0.0
O307 O 0.18046 0.64426 0.1968 0.0
O308 O 0.08688 0.54345 0.21429 0.0
O309 O 0.06837 0.58872 0.19588 0.0
O310 O 0.07716 0.63007 0.23942 0.0
O311 O 0.11731 0.6526 0.22068 0.0
H312 H 0.18143 0.65209 0.29859 0.0
H313 H 0.21367 0.64226 0.33375 0.0
H314 H 0.30916 0.67435 0.30014 0.0
H315 H 0.27657 0.6846 0.2647 0.0
H316 H 0.03921 0.50014 0.22683 0.0
H317 H 0.97949 0.48532 0.23784 0.0
H318 H 0.94189 0.57774 0.20316 0.0
H319 H 1.00163 0.59235 0.19183 0.0
Ho320 Ho 0.82949 0.65958 0.76005 0.0
Ho321 Ho 0.86941 0.60432 0.74444 0.0
C322 C 0.85885 0.60029 0.79857 0.0
C323 C 0.79097 0.7088 0.77751 0.0
C324 C 0.78255 0.74549 0.77086 0.0
C325 C 0.7536 0.75282 0.75686 0.0
C326 C 0.74577 0.78723 0.75041 0.0
C327 C 0.7665 0.81533 0.7579 0.0
C328 C 0.79521 0.80806 0.77214 0.0
C329 C 0.8031 0.7736 0.77855 0.0
C330 C 0.89561 0.68339 0.7473 0.0
C331 C 0.81446 0.63817 0.70573 0.0
C332 C 0.91967 0.57278 0.72346 0.0
C333 C 0.95817 0.57022 0.72481 0.0
C334 C 0.97942 0.59697 0.71583 0.0
C335 C 0.01504 0.59139 0.71239 0.0
C336 C 0.03025 0.55895 0.71785 0.0
C337 C 1.00974 0.53379 0.72932 0.0
C338 C 0.97392 0.53922 0.73252 0.0
C339 C 0.80361 0.58209 0.7546 0.0
O340 O 0.83438 0.6244 0.79353 0.0
O341 O 0.8806 0.59159 0.78188 0.0
O342 O 0.77886 0.68411 0.76444 0.0
O343 O 0.82287 0.70229 0.78404 0.0
O344 O 0.86601 0.69613 0.74064 0.0
O345 O 0.8885 0.65577 0.75892 0.0
O346 O 0.84041 0.61561 0.70986 0.0
O347 O 0.80489 0.65869 0.7232 0.0
O348 O 0.90687 0.60292 0.717 0.0
O349 O 0.90135 0.55804 0.73974 0.0
O350 O 0.83122 0.56261 0.75664 0.0
O351 O 0.8124 0.61052 0.74549 0.0
H352 H 0.73689 0.73194 0.75084 0.0
H353 H 0.72309 0.79186 0.73978 0.0
H354 H 0.81189 0.82899 0.77811 0.0
H355 H 0.82544 0.76902 0.78949 0.0
H356 H 0.96825 0.62139 0.70993 0.0
H357 H 0.02973 0.6114 0.70339 0.0
H358 H 0.02076 0.50878 0.73419 0.0
H359 H 0.95824 0.5183 0.73974 0.0
Ho360 Ho 0.11396 0.09019 1.01347 0.0
Ho361 Ho 0.17122 0.12757 0.99776 0.0
C362 C 0.17297 0.11941 1.05201 0.0
C363 C 0.06259 0.05405 1.03077 0.0
C364 C 0.02648 0.04537 1.02308 0.0
C365 C 0.02012 0.01559 1.00965 0.0
C366 C 0.98626 1.00751 1.0023 0.0
C367 C 0.95772 0.02884 1.00827 0.0
C368 C 0.96402 0.05845 1.02188 0.0
C369 C 0.99793 0.06657 1.02921 0.0
C370 C 0.09263 0.15612 0.99898 0.0
C371 C 0.13556 0.07341 0.95954 0.0
C372 C 0.2101 0.17035 0.97467 0.0
C373 C 0.22855 0.16724 0.95278 0.0
C374 C 0.23054 0.13494 0.94152 0.0
C375 C 0.2452 0.1328 0.91966 0.0
C376 C 0.25855 0.1629 0.90888 0.0
C377 C 0.25823 0.1948 0.92089 0.0
C378 C 0.24305 0.19698 0.94255 0.0
C379 C 0.18975 0.06101 1.00907 0.0
O380 O 0.14833 0.09539 1.04717 0.0
O381 O 0.18264 0.14042 1.03507 0.0
O382 O 0.08836 0.04031 1.0193 0.0
O383 O 0.06897 0.08649 1.0361 0.0
O384 O 0.07969 0.12649 0.99258 0.0
O385 O 0.11967 0.14911 1.01114 0.0
O386 O 0.15778 0.09971 0.96326 0.0
O387 O 0.11535 0.06388 0.97724 0.0
O388 O 0.22184 0.15066 0.99119 0.0
O389 O 0.17599 0.17004 0.97341 0.0
O390 O 0.20981 0.08795 1.01195 0.0
O391 O 0.1624 0.07085 0.99925 0.0
H392 H 0.04134 0.99839 1.00482 0.0
H393 H 0.98237 0.98416 0.99221 0.0
H394 H 0.94277 0.07562 1.02669 0.0
H395 H 1.00175 0.08958 1.03965 0.0
H396 H 0.22015 0.1115 0.94941 0.0
H397 H 0.24497 0.10786 0.91096 0.0
H398 H 0.26921 0.21831 0.91339 0.0
H399 H 0.24212 0.22201 0.95115 0.0
Ho400 Ho 0.67998 0.3734 0.26035 0.0
Ho401 Ho 0.64303 0.43066 0.24489 0.0
C402 C 0.65127 0.43281 0.29901 0.0
C403 C 0.71638 0.32269 0.27827 0.0
C404 C 0.72423 0.2864 0.27134 0.0
C405 C 0.74366 0.26457 0.2858 0.0
C406 C 0.75177 0.2303 0.27923 0.0
C407 C 0.7406 0.21709 0.25801 0.0
C408 C 0.72091 0.23914 0.24362 0.0
C409 C 0.71283 0.27341 0.25021 0.0
C410 C 0.61346 0.35225 0.24714 0.0
C411 C 0.69659 0.39468 0.20616 0.0
C412 C 0.60146 0.46946 0.22127 0.0
C413 C 0.60637 0.48672 0.19889 0.0
C414 C 0.61689 0.46746 0.17966 0.0
C415 C 0.62355 0.48427 0.15892 0.0
C416 C 0.61981 0.52065 0.15691 0.0
C417 C 0.60931 0.53998 0.17612 0.0
C418 C 0.60275 0.52313 0.19697 0.0
C419 C 0.70949 0.44906 0.25599 0.0
O420 O 0.67514 0.40804 0.29402 0.0
O421 O 0.63031 0.4426 0.28218 0.0
O422 O 0.72964 0.34723 0.26543 0.0
O423 O 0.68403 0.3293 0.28371 0.0
O424 O 0.64277 0.33892 0.24041 0.0
O425 O 0.62111 0.37951 0.25889 0.0
O426 O 0.671 0.41759 0.21021 0.0
O427 O 0.70562 0.37399 0.22372 0.0
O428 O 0.62086 0.48157 0.23774 0.0
O429 O 0.59989 0.43526 0.22129 0.0
O430 O 0.68255 0.46894 0.25932 0.0
O431 O 0.69973 0.4218 0.246 0.0
H432 H 0.75282 0.27412 0.30213 0.0
H433 H 0.76739 0.21438 0.29063 0.0
H434 H 0.71148 0.22984 0.2273 0.0
H435 H 0.69777 0.28983 0.23878 0.0
H436 H 0.61992 0.43935 0.18053 0.0
H437 H 0.63051 0.46859 0.14423 0.0
H438 H 0.60597 0.56805 0.17497 0.0
H439 H 0.59493 0.53854 0.21162 0.0
Ho440 Ho 0.39956 0.94389 0.51373 0.0
Ho441 Ho 0.34368 0.90464 0.49874 0.0
C442 C 0.34124 0.91425 0.55293 0.0
C443 C 0.45058 0.98113 0.53009 0.0
C444 C 0.48713 0.98853 0.5225 0.0
C445 C 0.49476 0.01866 0.50952 0.0
C446 C 0.52894 0.02565 0.50212 0.0
C447 C 0.55657 1.00287 0.50762 0.0
C448 C 0.54901 0.9729 0.5208 0.0
C449 C 0.51477 0.96583 0.52814 0.0
C450 C 0.42249 0.87834 0.49945 0.0
C451 C 0.37565 0.96075 0.4601 0.0
C452 C 0.31193 0.85478 0.47759 0.0
C453 C 0.3136 0.81624 0.47668 0.0
C454 C 0.34295 0.79931 0.46737 0.0
C455 C 0.34122 0.76407 0.46147 0.0
C456 C 0.3102 0.74494 0.46489 0.0
C457 C 0.28259 0.76082 0.47697 0.0
C458 C 0.2841 0.79631 0.48252 0.0
C459 C 0.32146 0.9701 0.5097 0.0
O460 O 0.36596 0.93818 0.54785 0.0
O461 O 0.33129 0.89333 0.53619 0.0
O462 O 0.42555 0.99397 0.51755 0.0
O463 O 0.44342 0.94943 0.53696 0.0
O464 O 0.43478 0.90823 0.49285 0.0
O465 O 0.39567 0.88493 0.51185 0.0
O466 O 0.35343 0.93452 0.46429 0.0
O467 O 0.39671 0.96999 0.47733 0.0
O468 O 0.33887 0.87162 0.46931 0.0
O469 O 0.29953 0.86903 0.49617 0.0
O470 O 0.3021 0.9423 0.51142 0.0
O471 O 0.34981 0.96176 0.50036 0.0
H472 H 0.47427 0.03696 0.50506 0.0
H473 H 0.53381 0.0493 0.49237 0.0
H474 H 0.56954 0.95465 0.52525 0.0
H475 H 0.51 0.94246 0.5382 0.0
H476 H 0.36644 0.81375 0.46306 0.0
H477 H 0.36309 0.75299 0.45222 0.0
H478 H 0.25868 0.74659 0.48049 0.0
H479 H 0.26135 0.80863 0.49005 0.0
Ho480 Ho 0.14396 0.42985 0.48464 0.0
Ho481 Ho 0.18109 0.37271 0.46908 0.0
C482 C 0.19755 0.39362 0.52321 0.0
C483 C 0.10198 0.46778 0.50853 0.0
C484 C 0.10622 0.48328 0.53141 0.0
C485 C 0.11586 0.46245 0.5502 0.0
C486 C 0.12216 0.47758 0.57142 0.0
C487 C 0.11891 0.51382 0.57437 0.0
C488 C 0.10912 0.53472 0.55564 0.0
C489 C 0.10295 0.51955 0.5343 0.0
C490 C 0.21042 0.4486 0.47332 0.0
C491 C 0.15236 0.4326 0.43048 0.0
C492 C 0.21735 0.32186 0.45125 0.0
C493 C 0.22466 0.28528 0.45805 0.0
C494 C 0.24583 0.26418 0.44421 0.0
C495 C 0.25345 0.22967 0.45067 0.0
C496 C 0.24003 0.21541 0.47115 0.0
C497 C 0.21862 0.23673 0.48492 0.0
C498 C 0.21106 0.27127 0.47845 0.0
C499 C 0.11442 0.35166 0.4824 0.0
O500 O 0.17161 0.41619 0.51929 0.0
O501 O 0.20692 0.37339 0.50556 0.0
O502 O 0.12231 0.48065 0.49265 0.0
O503 O 0.09981 0.43364 0.50763 0.0
O504 O 0.18338 0.46841 0.47005 0.0
O505 O 0.20072 0.42113 0.48328 0.0
O506 O 0.17621 0.40774 0.43539 0.0
O507 O 0.13144 0.44231 0.4474 0.0
O508 O 0.23056 0.34598 0.46427 0.0
O509 O 0.18523 0.329 0.44562 0.0
O510 O 0.14363 0.33825 0.48921 0.0
O511 O 0.1223 0.37892 0.47057 0.0
H512 H 0.11859 0.43439 0.54859 0.0
H513 H 0.12857 0.46073 0.58572 0.0
H514 H 0.10615 0.56272 0.55754 0.0
H515 H 0.09579 0.53616 0.52001 0.0
H516 H 0.25673 0.2745 0.42846 0.0
H517 H 0.27045 0.21437 0.43977 0.0
H518 H 0.20744 0.22666 0.50065 0.0
H519 H 0.19468 0.28708 0.48943 0.0
Ho520 Ho 0.8421 0.90654 0.2311 0.0
Ho521 Ho 0.89924 0.94386 0.21534 0.0
C522 C 0.8771 0.9613 0.26913 0.0
C523 C 0.80409 0.86463 0.25528 0.0
C524 C 0.7884 0.86899 0.27816 0.0
C525 C 0.80904 0.87897 0.29687 0.0
C526 C 0.79375 0.88514 0.31812 0.0
C527 C 0.75754 0.88142 0.32118 0.0
C528 C 0.73684 0.87137 0.3025 0.0
C529 C 0.75217 0.86532 0.28114 0.0
C530 C 0.8231 0.97279 0.21925 0.0
C531 C 0.84049 0.91375 0.17678 0.0
C532 C 0.95066 0.97981 0.19787 0.0
C533 C 0.98682 0.98854 0.20539 0.0
C534 C 0.99301 0.01501 0.22154 0.0
C535 C 0.0271 0.02302 0.22851 0.0
C536 C 0.05601 1.00489 0.2195 0.0
C537 C 0.04979 0.97855 0.20326 0.0
C538 C 0.01569 0.97056 0.19626 0.0
C539 C 0.9207 0.87822 0.23019 0.0
O540 O 0.85504 0.93486 0.26549 0.0
O541 O 0.89732 0.97076 0.2514 0.0
O542 O 0.7913 0.88476 0.23932 0.0
O543 O 0.83821 0.86263 0.25435 0.0
O544 O 0.80347 0.94553 0.21628 0.0
O545 O 0.85052 0.96338 0.22922 0.0
O546 O 0.8655 0.9375 0.18145 0.0
O547 O 0.83008 0.89347 0.19393 0.0
O548 O 0.92485 0.99367 0.20924 0.0
O549 O 0.94437 0.94726 0.19279 0.0
O550 O 0.9334 0.90796 0.23658 0.0
O551 O 0.89375 0.88504 0.21788 0.0
H552 H 0.83706 0.88201 0.29519 0.0
H553 H 0.81046 0.89178 0.33236 0.0
H554 H 0.70887 0.86807 0.30446 0.0
H555 H 0.73572 0.8579 0.26691 0.0
H556 H 0.97153 0.0297 0.22882 0.0
H557 H 0.03081 0.04389 0.24073 0.0
H558 H 0.07129 0.96377 0.19609 0.0
H559 H 1.01192 0.95017 0.18371 0.0
Ho560 Ho 0.36911 0.60545 0.98376 0.0
Ho561 Ho 0.32927 0.66055 0.96794 0.0
C562 C 0.31377 0.63912 1.0223 0.0
C563 C 0.41946 0.57459 1.00506 0.0
C564 C 0.45807 0.57396 1.00443 0.0
C565 C 0.47755 0.602 1.01326 0.0
C566 C 0.51316 0.59819 1.01757 0.0
C567 C 0.53012 0.56631 1.01309 0.0
C568 C 0.51149 0.53992 1.00164 0.0
C569 C 0.47567 0.54355 0.99762 0.0
C570 C 0.30346 0.5827 0.97387 0.0
C571 C 0.35856 0.60108 0.92968 0.0
C572 C 0.29091 0.70963 0.94994 0.0
C573 C 0.28316 0.74605 0.95653 0.0
C574 C 0.26243 0.76719 0.94242 0.0
C575 C 0.25444 0.80157 0.9488 0.0
C576 C 0.26707 0.81554 0.96946 0.0
C577 C 0.28809 0.79418 0.98346 0.0
C578 C 0.29599 0.75981 0.97708 0.0
C579 C 0.3952 0.68431 0.98088 0.0
O580 O 0.33976 0.61659 1.01826 0.0
O581 O 0.30429 0.65963 1.00474 0.0
O582 O 0.40494 0.60363 1.01195 0.0
O583 O 0.40272 0.56019 0.98807 0.0
O584 O 0.33121 0.56335 0.97212 0.0
O585 O 0.312 0.61133 0.98264 0.0
O586 O 0.3342 0.62532 0.93463 0.0
O587 O 0.38024 0.59235 0.94637 0.0
O588 O 0.27886 0.68551 0.96362 0.0
O589 O 0.32296 0.7032 0.94368 0.0
O590 O 0.36548 0.69684 0.98749 0.0
O591 O 0.38827 0.65693 0.96915 0.0
H592 H 0.46494 0.62607 1.01841 0.0
H593 H 0.52639 0.61914 1.02646 0.0
H594 H 0.52393 0.51534 0.99745 0.0
H595 H 0.46138 0.5217 0.9905 0.0
H596 H 0.25215 0.75702 0.92654 0.0
H597 H 0.2378 0.81699 0.93773 0.0
H598 H 0.29867 0.80408 0.99932 0.0
H599 H 0.31202 0.74392 0.98825 0.0
Ho600 Ho 0.67112 0.12873 0.7313 0.0
Ho601 Ho 0.61388 0.09128 0.71598 0.0
C602 C 0.63539 0.07457 0.76991 0.0
C603 C 0.70982 0.17154 0.75413 0.0
C604 C 0.728 0.1684 0.77606 0.0
C605 C 0.73011 0.13601 0.78737 0.0
C606 C 0.74444 0.1338 0.80927 0.0
C607 C 0.75737 0.16391 0.82005 0.0
C608 C 0.75692 0.19592 0.80801 0.0
C609 C 0.74205 0.19817 0.7863 0.0
C610 C 0.68975 0.06211 0.72034 0.0
C611 C 0.67305 0.12042 0.67711 0.0
C612 C 0.56258 0.05511 0.69901 0.0
C613 C 0.52648 0.04631 0.70683 0.0
C614 C 0.52013 0.01625 0.72018 0.0
C615 C 0.48626 1.008 0.72762 0.0
C616 C 0.45772 0.02943 0.72183 0.0
C617 C 0.46402 0.05934 0.70832 0.0
C618 C 0.49792 0.06764 0.7009 0.0
C619 C 0.59259 0.15718 0.73027 0.0
O620 O 0.6576 0.10089 0.76598 0.0
O621 O 0.61522 0.06499 0.75233 0.0
O622 O 0.72169 0.15182 0.73772 0.0
O623 O 0.67569 0.17131 0.75535 0.0
O624 O 0.70979 0.08907 0.71724 0.0
O625 O 0.66236 0.07199 0.73014 0.0
O626 O 0.64837 0.09643 0.68217 0.0
O627 O 0.68268 0.14148 0.69389 0.0
O628 O 0.58835 0.04138 0.71045 0.0
O629 O 0.56889 0.08759 0.69354 0.0
O630 O 0.57968 0.12754 0.73687 0.0
O631 O 0.61956 0.15016 0.71796 0.0
H632 H 0.72005 0.11255 0.77948 0.0
H633 H 0.74432 0.10877 0.81799 0.0
H634 H 0.76759 0.21946 0.8155 0.0
H635 H 0.74102 0.22328 0.77767 0.0
H636 H 0.54135 0.99895 0.72486 0.0
H637 H 0.48238 0.98443 0.73763 0.0
H638 H 0.44276 0.0766 0.70365 0.0
H639 H 0.50173 0.09086 0.69053 0.0
C640 C 0.42733 0.23981 0.23738 0.0
C641 C 0.42532 0.20967 0.25149 0.0
C642 C 0.45678 0.26298 0.23709 0.0
C643 C 0.48626 0.25717 0.25147 0.0
C644 C 0.48451 0.22677 0.26584 0.0
C645 C 0.45467 0.20369 0.26563 0.0
C646 C 0.45628 0.29399 0.22109 0.0
C647 C 0.51435 0.21862 0.28172 0.0
C648 C 0.57687 0.29907 0.23466 0.0
C649 C 0.57972 0.32956 0.24821 0.0
C650 C 0.54742 0.27592 0.23561 0.0
C651 C 0.51885 0.2821 0.25077 0.0
C652 C 0.52145 0.31287 0.26458 0.0
C653 C 0.55124 0.33591 0.26311 0.0
C654 C 0.54697 0.24451 0.22012 0.0
C655 C 0.49262 0.32141 0.28122 0.0
H656 H 0.40543 0.2455 0.22627 0.0
H657 H 0.45423 0.18109 0.27685 0.0
H658 H 0.45893 0.31854 0.23096 0.0
H659 H 0.47887 0.29264 0.20919 0.0
H660 H 0.43187 0.29533 0.21089 0.0
H661 H 0.50928 0.19497 0.29231 0.0
H662 H 0.53864 0.2145 0.2717 0.0
H663 H 0.51905 0.24115 0.29322 0.0
H664 H 0.59811 0.29307 0.22303 0.0
H665 H 0.55239 0.35874 0.27398 0.0
H666 H 0.52363 0.24551 0.20892 0.0
H667 H 0.54501 0.22021 0.23046 0.0
H668 H 0.5707 0.24294 0.20919 0.0
H669 H 0.46769 0.32516 0.27189 0.0
H670 H 0.49826 0.34538 0.29121 0.0
H671 H 0.48875 0.29922 0.29325 0.0
C672 C 0.53502 0.69352 0.48409 0.0
C673 C 0.56557 0.69127 0.49762 0.0
C674 C 0.51181 0.72287 0.4846 0.0
C675 C 0.51803 0.75187 0.4993 0.0
C676 C 0.54888 0.74986 0.51306 0.0
C677 C 0.572 0.7202 0.512 0.0
C678 C 0.48035 0.72281 0.46913 0.0
C679 C 0.55739 0.77916 0.52926 0.0
C680 C 0.47545 0.843 0.48517 0.0
C681 C 0.44543 0.84487 0.49934 0.0
C682 C 0.49864 0.81362 0.48503 0.0
C683 C 0.49297 0.78422 0.49965 0.0
C684 C 0.46266 0.78585 0.51404 0.0
C685 C 0.43952 0.81554 0.51363 0.0
C686 C 0.5295 0.81411 0.46893 0.0
C687 C 0.45473 0.7561 0.53019 0.0
H688 H 0.52904 0.67191 0.47282 0.0
H689 H 0.59496 0.71951 0.52279 0.0
H690 H 0.45608 0.72468 0.47946 0.0
H691 H 0.48113 0.746 0.45768 0.0
H692 H 0.47892 0.69889 0.45846 0.0
H693 H 0.58135 0.77382 0.53937 0.0
H694 H 0.56118 0.80384 0.51954 0.0
H695 H 0.5352 0.78332 0.5412 0.0
H696 H 0.48101 0.86491 0.47394 0.0
H697 H 0.41698 0.81593 0.52488 0.0
H698 H 0.52828 0.79122 0.45736 0.0
H699 H 0.55415 0.81197 0.47876 0.0
H700 H 0.53052 0.8383 0.45838 0.0
H701 H 0.45053 0.7317 0.52039 0.0
H702 H 0.43118 0.76116 0.54082 0.0
H703 H 0.47737 0.75157 0.54164 0.0
C704 C 0.05452 0.83146 0.76528 0.0
C705 C 0.0833 0.82641 0.75041 0.0
C706 C 0.02475 0.80831 0.76564 0.0
C707 C 0.02247 0.7788 0.75068 0.0
C708 C 0.05135 0.77395 0.73556 0.0
C709 C 0.08077 0.79715 0.73572 0.0
C710 C 0.9956 0.81535 0.78235 0.0
C711 C 0.05124 0.74394 0.71891 0.0
C712 C 0.95832 0.69918 0.76218 0.0
C713 C 0.92913 0.70636 0.74814 0.0
C714 C 0.9881 0.72221 0.76342 0.0
C715 C 0.98996 0.75381 0.75022 0.0
C716 C 0.96067 0.76082 0.73589 0.0
C717 C 0.93125 0.73764 0.73516 0.0
C718 C 0.01774 0.71273 0.77915 0.0
C719 C 0.96034 0.79314 0.72104 0.0
H720 H 0.05543 0.85331 0.77699 0.0
H721 H 0.10225 0.79216 0.72407 0.0
H722 H 0.97084 0.81988 0.77298 0.0
H723 H 0.99156 0.79214 0.7935 0.0
H724 H 1.00101 0.83842 0.79326 0.0
H725 H 0.07515 0.74337 0.70811 0.0
H726 H 0.04919 0.71878 0.72832 0.0
H727 H 0.02808 0.74586 0.7076 0.0
H728 H 0.95779 0.67564 0.77254 0.0
H729 H 0.90947 0.74424 0.72416 0.0
H730 H 0.02231 0.73424 0.79146 0.0
H731 H 0.04215 0.70942 0.76911 0.0
H732 H 1.01255 0.68822 0.78884 0.0
H733 H 0.96272 0.81681 0.73182 0.0
H734 H 0.93612 0.79528 0.71071 0.0
H735 H 0.98316 0.79288 0.70929 0.0
C736 C 0.07466 0.21829 1.01394 0.0
C737 C 0.06968 0.18967 0.99905 0.0
C738 C 0.05119 0.24777 1.0145 0.0
C739 C 0.02145 0.2499 0.99972 0.0
C740 C 0.01669 0.2212 0.98455 0.0
C741 C 0.04019 0.19205 0.98453 0.0
C742 C 0.0581 0.27671 1.03128 0.0
C743 C 0.98648 0.22122 0.96804 0.0
C744 C 0.94129 0.3128 1.0118 0.0
C745 C 0.94803 0.34239 0.99788 0.0
C746 C 0.96464 0.28327 1.0128 0.0
C747 C 0.99611 0.2821 0.99948 0.0
C748 C 1.00264 0.31179 0.98526 0.0
C749 C 0.97916 0.34095 0.98476 0.0
C750 C 0.95561 0.25316 1.02842 0.0
C751 C 0.03474 0.31281 0.97026 0.0
H752 H 0.09666 0.21747 1.02554 0.0
H753 H 0.03526 0.17067 0.97287 0.0
H754 H 0.06223 0.30171 1.02197 0.0
H755 H 0.03501 0.28024 1.04255 0.0
H756 H 0.08136 0.27141 1.04206 0.0
H757 H 0.98607 0.19751 0.95715 0.0
H758 H 0.96142 0.22273 0.97757 0.0
H759 H 0.98798 0.24464 0.95682 0.0
H760 H 0.91785 0.3128 1.02223 0.0
H761 H 0.9854 0.36305 0.97384 0.0
H762 H 0.97739 0.24841 1.04053 0.0
H763 H 0.95221 0.22898 1.01825 0.0
H764 H 0.93129 0.25794 1.03833 0.0
H765 H 0.05857 0.31054 0.98091 0.0
H766 H 0.03648 0.33726 0.96 0.0
H767 H 0.03458 0.2902 0.95842 0.0
C768 C 0.58001 0.79797 0.9941 0.0
C769 C 0.583 0.82735 0.97938 0.0
C770 C 0.55059 0.77476 0.99402 0.0
C771 C 0.52219 0.77972 0.9786 0.0
C772 C 0.52494 0.80935 0.96362 0.0
C773 C 0.55469 0.8325 0.96423 0.0
C774 C 0.54995 0.74461 1.01071 0.0
C775 C 0.49633 0.81651 0.94661 0.0
C776 C 0.45839 0.70021 0.96657 0.0
C777 C 0.42874 0.70728 0.98029 0.0
C778 C 0.48822 0.72324 0.96561 0.0
C779 C 0.48967 0.75472 0.97878 0.0
C780 C 0.45991 0.76161 0.9928 0.0
C781 C 0.43046 0.73844 0.99326 0.0
C782 C 0.51838 0.71387 0.95021 0.0
C783 C 0.45912 0.7938 1.0076 0.0
H784 H 0.60112 0.79291 1.00597 0.0
H785 H 0.55596 0.85444 0.95248 0.0
H786 H 0.52642 0.74642 1.02178 0.0
H787 H 0.54824 0.71953 1.00133 0.0
H788 H 0.5735 0.74398 1.02176 0.0
H789 H 0.50208 0.83968 0.93571 0.0
H790 H 0.49266 0.7934 0.93545 0.0
H791 H 0.47127 0.82096 0.95572 0.0
H792 H 0.45819 0.67676 0.95624 0.0
H793 H 0.40833 0.74496 1.00403 0.0
H794 H 0.54244 0.71042 0.96051 0.0
H795 H 0.5234 0.7355 0.93793 0.0
H796 H 0.51347 0.68947 0.94049 0.0
H797 H 0.48153 0.79341 1.01959 0.0
H798 H 0.43455 0.79587 1.01766 0.0
H799 H 0.46187 0.81756 0.99681 0.0
C800 C 0.54007 0.19297 0.74476 0.0
C801 C 0.56959 0.19071 0.73015 0.0
C802 C 0.51652 0.22209 0.74473 0.0
C803 C 0.52125 0.25088 0.72946 0.0
C804 C 0.55103 0.24887 0.71459 0.0
C805 C 0.57454 0.21942 0.71516 0.0
C806 C 0.48627 0.22195 0.76132 0.0
C807 C 0.55793 0.27793 0.69772 0.0
C808 C 0.44101 0.31372 0.71742 0.0
C809 C 0.44761 0.34323 0.73126 0.0
C810 C 0.46441 0.28424 0.71643 0.0
C811 C 0.49584 0.28304 0.72968 0.0
C812 C 0.50225 0.31264 0.74382 0.0
C813 C 0.4787 0.34175 0.74432 0.0
C814 C 0.45549 0.25421 0.70092 0.0
C815 C 0.53431 0.31363 0.75874 0.0
H816 H 0.53516 0.17153 0.7565 0.0
H817 H 0.59656 0.2187 0.7035 0.0
H818 H 0.4877 0.24529 0.77248 0.0
H819 H 0.46123 0.22349 0.75185 0.0
H820 H 0.48586 0.19816 0.77227 0.0
H821 H 0.58124 0.27274 0.6869 0.0
H822 H 0.53487 0.28147 0.68649 0.0
H823 H 0.56197 0.30289 0.70695 0.0
H824 H 0.4176 0.31374 0.70704 0.0
H825 H 0.48485 0.36378 0.75518 0.0
H826 H 0.4521 0.22996 0.71116 0.0
H827 H 0.47731 0.24958 0.68877 0.0
H828 H 0.43118 0.25901 0.69106 0.0
H829 H 0.53416 0.29095 0.77063 0.0
H830 H 0.53597 0.33802 0.76893 0.0
H831 H 0.55817 0.31148 0.74803 0.0
C832 C 0.05238 0.33568 0.46631 0.0
C833 C 0.08069 0.32899 0.48121 0.0
C834 C 0.02257 0.31272 0.46474 0.0
C835 C 0.01977 0.28167 0.47843 0.0
C836 C 0.04818 0.27513 0.49359 0.0
C837 C 0.07765 0.29823 0.49466 0.0
C838 C 0.99393 0.32166 0.44812 0.0
C839 C 0.04752 0.24339 0.50896 0.0
C840 C 0.92802 0.23928 0.49159 0.0
C841 C 0.92608 0.20948 0.47733 0.0
C842 C 0.95752 0.26238 0.492 0.0
C843 C 0.98715 0.25682 0.47762 0.0
C844 C 0.98547 0.22675 0.46311 0.0
C845 C 0.95557 0.20375 0.46319 0.0
C846 C 0.95693 0.29302 0.50814 0.0
C847 C 0.01546 0.21889 0.44721 0.0
H848 H 0.05368 0.35874 0.45553 0.0
H849 H 0.09876 0.29196 0.50628 0.0
H850 H 0.99013 0.29974 0.436 0.0
H851 H 0.96892 0.32527 0.45745 0.0
H852 H 0.99972 0.34584 0.43822 0.0
H853 H 0.07115 0.24153 0.51988 0.0
H854 H 0.02409 0.2442 0.52016 0.0
H855 H 0.04561 0.21932 0.49852 0.0
H856 H 0.90602 0.24476 0.50272 0.0
H857 H 0.95519 0.18141 0.45187 0.0
H858 H 0.95974 0.31779 0.49838 0.0
H859 H 0.97939 0.29135 0.52005 0.0
H860 H 0.93241 0.29419 0.51833 0.0
H861 H 0.02032 0.24165 0.43581 0.0
H862 H 1.01046 0.19547 0.43654 0.0
H863 H 0.03964 0.21451 0.45724 0.0
C864 C 0.03625 0.69497 0.24563 0.0
C865 C 0.06676 0.69298 0.2319 0.0
C866 C 1.01251 0.72391 0.24494 0.0
C867 C 0.01811 0.75286 0.22993 0.0
C868 C 0.04891 0.75114 0.21596 0.0
C869 C 0.07253 0.72182 0.21713 0.0
C870 C 0.9811 0.72342 0.26057 0.0
C871 C 0.05689 0.78044 0.19947 0.0
C872 C 0.93856 0.81566 0.2158 0.0
C873 C 0.94394 0.84486 0.23015 0.0
C874 C 0.96218 0.78629 0.21531 0.0
C875 C 0.99257 0.78491 0.22956 0.0
C876 C 0.99776 0.81422 0.24416 0.0
C877 C 0.97404 0.84319 0.24417 0.0
C878 C 0.95465 0.75658 0.19923 0.0
C879 C 0.02872 0.8151 0.26004 0.0
H880 H 0.03068 0.67344 0.25717 0.0
H881 H 0.09536 0.72132 0.20614 0.0
H882 H 0.98165 0.74656 0.27194 0.0
H883 H 0.95679 0.72507 0.25033 0.0
H884 H 0.97996 0.69944 0.27132 0.0
H885 H 0.08099 0.77551 0.18937 0.0
H886 H 0.03466 0.78401 0.18754 0.0
H887 H 0.06009 0.8053 0.20895 0.0
H888 H 0.91606 0.81589 0.20461 0.0
H889 H 0.97929 0.86501 0.25541 0.0
H890 H 0.95118 0.73196 0.20908 0.0
H891 H 0.9772 0.75271 0.18754 0.0
H892 H 0.93083 0.76125 0.18886 0.0
H893 H 0.02782 0.79223 0.27177 0.0
H894 H 0.02955 0.83933 0.27042 0.0
H895 H 0.05331 0.81319 0.25004 0.0
C896 C 0.51989 0.99995 0.15716 0.0
C897 C 0.52337 1.0117 0.17958 0.0
C898 C 0.54858 0.99973 0.14239 0.0
C899 C 0.58153 1.01148 0.15043 0.0
C900 C 0.58596 0.01979 0.17374 0.0
C901 C 0.5566 0.01998 0.18811 0.0
C902 C 0.54271 0.98988 0.11768 0.0
C903 C 0.62074 0.03127 0.18323 0.0
C904 C 0.6396 0.99462 1.10125 0.0
C905 C 0.63139 0.02427 1.08818 0.0
C906 C 0.6288 0.99221 0.12407 0.0
C907 C 0.60887 0.01976 0.13337 0.0
C908 C 0.60649 0.05207 0.12156 0.0
C909 C 0.61765 0.05387 1.09881 0.0
C910 C 0.63335 0.95811 0.13675 0.0
C911 C 0.58677 0.08267 0.13142 0.0
H912 H 0.49422 0.99297 0.1508 0.0
H913 H 0.55931 0.02905 0.20556 0.0
H914 H 0.54602 1.0133 1.10663 0.0
H915 H 0.56211 0.97011 1.11215 0.0
H916 H 0.51614 0.97908 1.11475 0.0
H917 H 0.6234 0.02308 0.20138 0.0
H918 H 0.64304 0.02056 0.17332 0.0
H919 H 0.62234 0.06022 0.18266 0.0
H920 H 0.65004 0.97161 1.09291 0.0
H921 H 0.61178 0.07686 1.08861 0.0
H922 H 0.60913 0.94231 0.13521 0.0
H923 H 0.638 0.96281 0.1552 0.0
H924 H 0.65534 0.9426 0.12967 0.0
H925 H 0.55826 0.07763 0.13015 0.0
H926 H 0.59273 0.10734 0.12211 0.0
H927 H 0.5932 0.08614 0.14974 0.0
C928 C 0.6968 0.85172 0.44922 0.0
C929 C 0.72199 0.8259 0.45379 0.0
C930 C 0.70083 0.87454 0.43052 0.0
C931 C 0.73041 0.87093 0.4162 0.0
C932 C 0.75861 0.84969 0.42336 0.0
C933 C 0.75405 0.82736 0.44211 0.0
C934 C 0.67157 0.89924 0.42452 0.0
C935 C 0.79153 0.84639 0.40921 0.0
C936 C 0.72189 0.85699 0.35302 0.0
C937 C 0.74253 0.88425 0.34445 0.0
C938 C 0.71453 0.85449 0.37641 0.0
C939 C 0.72812 0.88001 0.39155 0.0
C940 C 0.7454 0.90979 0.38259 0.0
C941 C 0.75259 0.91144 0.35906 0.0
C942 C 0.69532 0.8225 0.3851 0.0
C943 C 0.75887 0.93856 0.39777 0.0
H944 H 0.67254 0.8519 0.45884 0.0
H945 H 0.77411 0.80812 0.44563 0.0
H946 H 0.68174 0.92316 0.41599 0.0
H947 H 0.65335 0.88612 0.41258 0.0
H948 H 0.65655 0.90687 0.44 0.0
H949 H 0.81264 0.83268 0.41867 0.0
H950 H 0.78577 0.83137 0.39346 0.0
H951 H 0.80122 0.87253 0.40396 0.0
H952 H 0.71391 0.83603 0.34175 0.0
H953 H 0.76756 0.93317 0.35226 0.0
H954 H 0.67376 0.8302 0.39672 0.0
H955 H 0.71353 0.80567 0.39496 0.0
H956 H 0.68415 0.80671 0.37098 0.0
H957 H 0.74475 0.93964 0.41435 0.0
H958 H 0.75652 0.96432 0.38906 0.0
H959 H 0.78703 0.93418 0.40121 0.0
C960 C 0.11693 0.05473 0.63131 0.0
C961 C 0.13075 0.02492 0.64176 0.0
C962 C 0.10566 0.05339 0.60862 0.0
C963 C 0.108 0.02133 0.59668 0.0
C964 C 0.12792 0.99356 0.6058 0.0
C965 C 0.13887 0.99554 0.62855 0.0
C966 C 0.08593 0.08419 0.59896 0.0
C967 C 0.13236 0.95969 0.593 0.0
C968 C 0.01925 1.00181 0.57277 0.0
C969 C 0.02306 1.01351 0.55028 0.0
C970 C 0.04772 1.00165 0.58761 0.0
C971 C 0.08076 1.01347 0.57961 0.0
C972 C 0.08551 0.02197 0.55629 0.0
C973 C 0.05638 0.02205 0.54183 0.0
C974 C 0.04156 0.99158 0.61234 0.0
C975 C 0.12038 0.03369 0.54688 0.0
H976 H 0.11112 0.07752 0.64162 0.0
H977 H 0.14937 0.97237 0.63675 0.0
H978 H 0.0922 0.08796 0.5806 0.0
H979 H 0.05742 0.07921 0.60045 0.0
H980 H 0.09205 0.1087 0.60827 0.0
H981 H 0.1545 0.94413 0.59983 0.0
H982 H 0.1082 0.94381 0.59478 0.0
H983 H 0.13672 0.96467 0.57451 0.0
H984 H 0.99351 0.99468 0.57907 0.0
H985 H 0.05933 0.03114 0.52434 0.0
H986 H 0.04476 0.0149 0.62336 0.0
H987 H 0.0609 0.97176 0.61791 0.0
H988 H 0.01495 0.98077 0.61525 0.0
H989 H 0.14257 0.02267 0.55671 0.0
H990 H 0.12201 0.06262 0.54768 0.0
H991 H 0.12322 0.02605 0.52866 0.0
C992 C 0.79532 0.18234 0.95142 0.0
C993 C 0.82221 0.20731 0.95145 0.0
C994 C 0.78959 0.16152 0.93208 0.0
C995 C 0.8107 0.16678 0.91248 0.0
C996 C 0.84193 0.18637 0.91438 0.0
C997 C 0.84744 0.20644 0.93401 0.0
C998 C 0.75777 0.13833 0.93134 0.0
C999 C 0.86617 0.19137 0.89424 0.0
C1000 C 0.78905 0.13431 0.85266 0.0
C1001 C 0.76964 0.16269 0.84414 0.0
C1002 C 0.80164 0.13424 0.87526 0.0
C1003 C 0.79473 0.16328 0.88949 0.0
C1004 C 0.7741 0.19135 0.88114 0.0
C1005 C 0.76157 0.19044 0.85876 0.0
C1006 C 0.82193 0.10303 0.88382 0.0
C1007 C 0.76579 0.22299 0.89564 0.0
H1008 H 0.77647 0.18195 0.9653 0.0
H1009 H 0.86881 0.22506 0.93408 0.0
H1010 H 0.73568 0.15303 0.92369 0.0
H1011 H 0.76269 0.11495 0.92063 0.0
H1012 H 0.74989 0.12974 0.94877 0.0
H1013 H 0.8924 0.20051 0.89973 0.0
H1014 H 0.8692 0.16675 0.88449 0.0
H1015 H 0.85497 0.21135 0.88255 0.0
H1016 H 0.79507 0.1125 0.84157 0.0
H1017 H 0.74545 0.21178 0.85265 0.0
H1018 H 0.80428 0.08622 0.89419 0.0
H1019 H 0.84395 0.11097 0.89495 0.0
H1020 H 0.83235 0.08709 0.8695 0.0
H1021 H 0.75102 0.2149 0.91112 0.0
H1022 H 0.74998 0.24274 0.88631 0.0
H1023 H 0.7903 0.23573 0.90134 0.0
C1024 C 0.29625 0.18214 0.77749 0.0
C1025 C 0.32306 0.20719 0.77727 0.0
C1026 C 0.29079 0.16103 0.79686 0.0
C1027 C 0.31211 0.16606 0.81628 0.0
C1028 C 0.34335 0.18562 0.81409 0.0
C1029 C 0.34858 0.206 0.79443 0.0
C1030 C 0.25898 0.13783 0.79789 0.0
C1031 C 0.36787 0.19029 0.834 0.0
C1032 C 0.26322 0.18975 0.87014 0.0
C1033 C 0.27104 0.16183 0.8848 0.0
C1034 C 0.27581 0.19074 0.84773 0.0
C1035 C 0.29627 0.16259 0.83939 0.0
C1036 C 0.303 0.13343 0.85368 0.0
C1037 C 0.29033 0.13342 0.8763 0.0
C1038 C 0.26766 0.22251 0.83318 0.0
C1039 C 0.32314 0.10215 0.84515 0.0
H1040 H 0.27719 0.18197 0.76381 0.0
H1041 H 0.36994 0.22465 0.7942 0.0
H1042 H 0.26401 0.11434 0.80858 0.0
H1043 H 0.23697 0.15246 0.80571 0.0
H1044 H 0.25091 0.12942 0.78053 0.0
H1045 H 0.39408 0.19929 0.82824 0.0
H1046 H 0.35695 0.21026 0.84574 0.0
H1047 H 0.37084 0.16556 0.84376 0.0
H1048 H 0.2472 0.21114 0.87625 0.0
H1049 H 0.29615 0.11148 0.88743 0.0
H1050 H 0.25278 0.2146 0.8178 0.0
H1051 H 0.29224 0.23513 0.82731 0.0
H1052 H 0.25201 0.24232 0.84253 0.0
H1053 H 0.30527 0.08523 0.83518 0.0
H1054 H 0.33383 0.08636 0.85949 0.0
H1055 H 0.34494 0.10996 0.83368 0.0
C1056 C 0.27235 0.70946 0.43941 0.0
C1057 C 0.30407 0.71282 0.45118 0.0
C1058 C 0.26972 0.6881 0.42017 0.0
C1059 C 0.29955 0.6696 0.41254 0.0
C1060 C 0.32969 0.6683 0.42644 0.0
C1061 C 0.3317 0.69013 0.44567 0.0
C1062 C 0.2365 0.68941 0.40627 0.0
C1063 C 0.36119 0.64698 0.41976 0.0
C1064 C 0.27572 0.62687 0.35696 0.0
C1065 C 0.28226 0.65469 0.34181 0.0
C1066 C 0.28553 0.62905 0.38002 0.0
C1067 C 0.30143 0.66007 0.388 0.0
C1068 C 0.31182 0.68626 0.37214 0.0
C1069 C 0.30216 0.68316 0.34919 0.0
C1070 C 0.27586 0.59956 0.39603 0.0
C1071 C 0.32945 0.7196 0.37977 0.0
H1072 H 0.25061 0.72647 0.44347 0.0
H1073 H 0.35591 0.69148 0.4552 0.0
H1074 H 0.24115 0.70474 0.39039 0.0
H1075 H 0.22836 0.66273 0.40121 0.0
H1076 H 0.21462 0.70175 0.41579 0.0
H1077 H 0.37636 0.639 0.43508 0.0
H1078 H 0.35358 0.62326 0.41009 0.0
H1079 H 0.3786 0.66301 0.40871 0.0
H1080 H 0.26124 0.60427 0.35109 0.0
H1081 H 0.30746 0.70462 0.33752 0.0
H1082 H 0.24866 0.60329 0.40216 0.0
H1083 H 0.29334 0.59854 0.41113 0.0
H1084 H 0.27694 0.57403 0.38706 0.0
H1085 H 0.31075 0.7355 0.38988 0.0
H1086 H 0.33876 0.73565 0.3651 0.0
H1087 H 0.35209 0.71362 0.39089 0.0
C1088 C 0.09489 0.54933 0.60619 0.0
C1089 C 0.12199 0.5287 0.59759 0.0
C1090 C 0.09257 0.55652 0.62958 0.0
C1091 C 0.11814 0.54275 0.64468 0.0
C1092 C 0.14778 0.52549 0.63567 0.0
C1093 C 0.14924 0.51847 0.61215 0.0
C1094 C 0.06072 0.57574 0.6383 0.0
C1095 C 0.17663 0.51186 0.65079 0.0
C1096 C 0.08963 0.57402 0.70203 0.0
C1097 C 0.06359 0.54892 0.70649 0.0
C1098 C 0.11275 0.56987 0.68355 0.0
C1099 C 0.10921 0.54029 0.66935 0.0
C1100 C 0.08787 0.51207 0.67655 0.0
C1101 C 0.06523 0.51673 0.69509 0.0
C1102 C 0.13764 0.59908 0.67756 0.0
C1103 C 0.08474 0.47909 0.66259 0.0
H1104 H 0.0739 0.55745 0.59495 0.0
H1105 H 0.17086 0.50352 0.60531 0.0
H1106 H 0.04397 0.55754 0.64831 0.0
H1107 H 0.0686 0.59732 0.64978 0.0
H1108 H 0.04481 0.58691 0.6242 0.0
H1109 H 0.20236 0.51478 0.64213 0.0
H1110 H 0.17758 0.52545 0.6675 0.0
H1111 H 0.17253 0.48352 0.65394 0.0
H1112 H 0.08969 0.59835 0.71148 0.0
H1113 H 0.04588 0.4967 0.69857 0.0
H1114 H 0.12473 0.61739 0.6655 0.0
H1115 H 0.16157 0.58885 0.66917 0.0
H1116 H 0.14521 0.61403 0.69303 0.0
H1117 H 0.06989 0.48475 0.64672 0.0
H1118 H 0.07094 0.45797 0.6721 0.0
H1119 H 0.11093 0.46944 0.65754 0.0
C1120 C 0.64999 0.52828 0.11911 0.0
C1121 C 0.62273 0.53725 0.13408 0.0
C1122 C 0.64817 0.53672 1.09576 0.0
C1123 C 0.61806 0.55383 1.08733 0.0
C1124 C 0.59257 0.5665 1.10291 0.0
C1125 C 0.59532 0.55811 0.12613 0.0
C1126 C 0.67703 0.52452 1.0801 0.0
C1127 C 0.56021 0.58548 1.09481 0.0
C1128 C 0.58792 0.58434 1.02986 0.0
C1129 C 0.56315 0.5581 1.02537 0.0
C1130 C 0.61085 0.58122 1.04847 0.0
C1131 C 0.60838 0.55149 1.06283 0.0
C1132 C 0.58797 0.52256 1.0559 0.0
C1133 C 0.56559 0.52621 1.0372 0.0
C1134 C 0.63457 0.61138 1.05423 0.0
C1135 C 0.58566 0.48961 1.07017 0.0
H1136 H 0.67183 0.51308 0.12542 0.0
H1137 H 0.57433 0.56527 0.13768 0.0
H1138 H 0.67295 0.49653 1.07597 0.0
H1139 H 0.67788 0.53967 1.06388 0.0
H1140 H 0.70277 0.5267 1.08872 0.0
H1141 H 0.54452 0.596 1.10923 0.0
H1142 H 0.56743 0.6075 1.08336 0.0
H1143 H 0.54348 0.56729 1.08493 0.0
H1144 H 0.5873 0.60855 1.02017 0.0
H1145 H 0.54709 0.50543 1.0338 0.0
H1146 H 0.65853 0.60224 1.06308 0.0
H1147 H 0.62063 0.62964 1.06578 0.0
H1148 H 0.6422 0.62612 1.03859 0.0
H1149 H 0.61211 0.48035 1.07488 0.0
H1150 H 0.57191 0.46821 1.06107 0.0
H1151 H 0.5712 0.49516 1.08623 0.0
C1152 C 0.24546 0.36314 0.23029 0.0
C1153 C 0.25668 0.3556 0.2526 0.0
C1154 C 0.23643 0.39735 0.22373 0.0
C1155 C 0.23851 0.42477 0.23986 0.0
C1156 C 0.25055 0.41749 0.26227 0.0
C1157 C 0.25956 0.38305 0.26834 0.0
C1158 C 0.22374 0.40397 0.19969 0.0
C1159 C 0.25279 0.44586 0.28009 0.0
C1160 C 0.23597 0.52033 0.22064 0.0
C1161 C 0.20103 0.52898 0.22509 0.0
C1162 C 0.2485 0.48628 0.22491 0.0
C1163 C 0.22555 0.46047 0.2339 0.0
C1164 C 0.19005 0.46898 0.23781 0.0
C1165 C 0.17825 0.50297 0.23325 0.0
C1166 C 0.28648 0.47816 0.22041 0.0
C1167 C 0.16465 0.44244 0.24746 0.0
H1168 H 0.24363 0.34218 0.21793 0.0
H1169 H 0.26784 0.37743 0.28567 0.0
H1170 H 0.19599 0.41235 0.20013 0.0
H1171 H 0.23897 0.42548 0.19167 0.0
H1172 H 0.22587 0.38038 0.18875 0.0
H1173 H 0.26498 0.43648 0.2962 0.0
H1174 H 0.26818 0.46832 0.27344 0.0
H1175 H 0.22619 0.45566 0.2841 0.0
H1176 H 0.25367 0.54034 0.21436 0.0
H1177 H 0.15116 0.50943 0.23668 0.0
H1178 H 0.28878 0.45497 0.20918 0.0
H1179 H 0.29967 0.47164 0.23675 0.0
H1180 H 0.30046 0.50044 0.21226 0.0
H1181 H 0.16408 0.41885 0.2365 0.0
H1182 H 0.13767 0.45296 0.24886 0.0
H1183 H 0.17329 0.43402 0.26471 0.0
C1184 C 0.41289 0.50619 0.47926 0.0
C1185 C 0.41986 0.52077 0.50077 0.0
C1186 C 0.37879 0.49638 0.473 0.0
C1187 C 0.35086 0.50108 0.48863 0.0
C1188 C 0.35757 0.51654 0.51016 0.0
C1189 C 0.3919 0.52623 0.51594 0.0
C1190 C 0.37282 0.48012 0.44987 0.0
C1191 C 0.32865 0.52175 0.52743 0.0
C1192 C 0.25587 0.4959 0.46868 0.0
C1193 C 0.24682 0.46174 0.4752 0.0
C1194 C 0.28985 0.50895 0.47247 0.0
C1195 C 0.31519 0.48741 0.48322 0.0
C1196 C 0.30625 0.45268 0.48938 0.0
C1197 C 0.27238 0.44027 0.48515 0.0
C1198 C 0.29841 0.54602 0.46547 0.0
C1199 C 0.33222 0.42879 0.50098 0.0
H1200 H 0.4342 0.50236 0.46729 0.0
H1201 H 0.39702 0.53713 0.53267 0.0
H1202 H 0.36412 0.45262 0.45205 0.0
H1203 H 0.35177 0.49422 0.44066 0.0
H1204 H 0.39678 0.48038 0.43909 0.0
H1205 H 0.33764 0.53631 0.54272 0.0
H1206 H 0.30662 0.53622 0.51955 0.0
H1207 H 0.31842 0.49596 0.53309 0.0
H1208 H 0.23625 0.5126 0.46098 0.0
H1209 H 0.26566 0.4138 0.4902 0.0
H1210 H 0.32204 0.54648 0.45444 0.0
H1211 H 0.30437 0.56175 0.48087 0.0
H1212 H 0.27657 0.55869 0.45611 0.0
H1213 H 0.32133 0.4023 0.50427 0.0
H1214 H 0.34036 0.44021 0.51753 0.0
H1215 H 0.35603 0.42616 0.49026 0.0
C1216 C 0.25473 0.66671 0.73085 0.0
C1217 C 0.24593 0.67407 0.75367 0.0
C1218 C 0.26433 0.63276 0.72401 0.0
C1219 C 0.26527 0.60533 0.74036 0.0
C1220 C 0.25541 0.61233 0.76326 0.0
C1221 C 0.24586 0.64648 0.76961 0.0
C1222 C 0.2748 0.62657 0.69946 0.0
C1223 C 0.25598 0.58394 0.78127 0.0
C1224 C 0.27114 0.5094 0.72219 0.0
C1225 C 0.30677 0.50248 0.72553 0.0
C1226 C 0.25726 0.543 0.72634 0.0
C1227 C 0.27953 0.57017 0.73408 0.0
C1228 C 0.31569 0.56344 0.73673 0.0
C1229 C 0.3288 0.52986 0.73235 0.0
C1230 C 0.21862 0.54913 0.72309 0.0
C1231 C 0.34051 0.59147 0.74486 0.0
H1232 H 0.25528 0.68776 0.7184 0.0
H1233 H 0.23851 0.65161 0.78718 0.0
H1234 H 0.30304 0.62017 0.6986 0.0
H1235 H 0.26031 0.60392 0.69242 0.0
H1236 H 0.26985 0.64977 0.68845 0.0
H1237 H 0.24519 0.59293 0.79789 0.0
H1238 H 0.2407 0.56098 0.77546 0.0
H1239 H 0.28325 0.57504 0.78403 0.0
H1240 H 0.25398 0.4884 0.71689 0.0
H1241 H 0.3564 0.52482 0.73487 0.0
H1242 H 0.21424 0.57218 0.7119 0.0
H1243 H 0.20628 0.55488 0.73985 0.0
H1244 H 0.20528 0.52616 0.71547 0.0
H1245 H 0.33856 0.61495 0.73374 0.0
H1246 H 0.36812 0.5825 0.74498 0.0
H1247 H 0.33329 0.59955 0.76245 0.0
C1248 C 0.1026 0.51831 0.98061 0.0
C1249 C 0.0935 0.51172 1.00352 0.0
C1250 C 0.13687 0.52792 0.97436 0.0
C1251 C 0.1629 0.53116 0.9914 0.0
C1252 C 0.15409 0.52403 1.01451 0.0
C1253 C 0.11964 0.51438 1.02026 0.0
C1254 C 0.14497 0.53558 0.94957 0.0
C1255 C 0.18094 0.52724 1.03327 0.0
C1256 C 0.25981 0.53316 0.97488 0.0
C1257 C 0.26722 0.56902 0.97605 0.0
C1258 C 0.22586 0.52041 0.97948 0.0
C1259 C 0.19873 0.54409 0.9853 0.0
C1260 C 0.20601 0.58038 0.98583 0.0
C1261 C 0.24002 0.59233 0.9812 0.0
C1262 C 0.21923 0.48155 0.97872 0.0
C1263 C 0.17806 0.60665 0.99189 0.0
H1264 H 0.08266 0.51686 0.96753 0.0
H1265 H 0.11317 0.50885 1.03796 0.0
H1266 H 0.15216 0.56353 0.94753 0.0
H1267 H 0.16771 0.51988 0.94385 0.0
H1268 H 0.12247 0.52988 0.93822 0.0
H1269 H 0.17042 0.51922 1.05022 0.0
H1270 H 0.20407 0.51087 1.02927 0.0
H1271 H 0.1901 0.55471 1.03443 0.0
H1272 H 0.2807 0.515 0.97099 0.0
H1273 H 0.24551 0.62011 0.9821 0.0
H1274 H 0.19722 0.47578 0.96701 0.0
H1275 H 0.21154 0.47204 0.99596 0.0
H1276 H 0.24258 0.46671 0.97297 0.0
H1277 H 0.15523 0.60358 0.98042 0.0
H1278 H 0.18759 0.63404 0.99061 0.0
H1279 H 0.16877 0.60193 1.00962 0.0
C1280 C 0.77169 0.50853 1.00649 0.0
C1281 C 0.80752 0.50182 1.00393 0.0
C1282 C 0.75802 0.54227 1.00249 0.0
C1283 C 0.78076 0.56984 0.99579 0.0
C1284 C 0.81709 0.56332 0.994 0.0
C1285 C 0.82995 0.52952 0.99811 0.0
C1286 C 0.71916 0.54812 1.00469 0.0
C1287 C 0.84239 0.59183 0.9871 0.0
C1288 C 0.74914 0.64777 0.96069 0.0
C1289 C 0.7475 0.6744 0.97714 0.0
C1290 C 0.7586 0.61339 0.96669 0.0
C1291 C 0.76681 0.60524 0.98972 0.0
C1292 C 0.76433 0.63172 1.00651 0.0
C1293 C 0.75467 0.66586 1.00004 0.0
C1294 C 0.76095 0.58603 0.9482 0.0
C1295 C 0.77293 0.62425 1.03122 0.0
H1296 H 0.75422 0.48725 1.01099 0.0
H1297 H 0.85771 0.5246 0.9962 0.0
H1298 H 0.71381 0.57057 1.01612 0.0
H1299 H 0.70813 0.55472 0.98769 0.0
H1300 H 0.70533 0.52474 1.01151 0.0
H1301 H 0.87001 0.58296 0.98767 0.0
H1302 H 0.83654 0.6008 0.96946 0.0
H1303 H 0.83944 0.61472 0.99853 0.0
H1304 H 0.74409 0.654 0.94292 0.0
H1305 H 0.75292 0.68599 1.01298 0.0
H1306 H 0.74577 0.56246 0.9532 0.0
H1307 H 0.78855 0.57783 0.94595 0.0
H1308 H 0.75107 0.59575 0.93151 0.0
H1309 H 0.75746 0.60164 1.03755 0.0
H1310 H 0.76771 0.64705 1.04242 0.0
H1311 H 0.80094 0.61713 1.03274 0.0
C1312 C 0.60238 0.51938 0.74883 0.0
C1313 C 0.5933 0.51262 0.72601 0.0
C1314 C 0.63671 0.52872 0.75489 0.0
C1315 C 0.66285 0.53134 0.73777 0.0
C1316 C 0.65408 0.52388 0.71477 0.0
C1317 C 0.61952 0.51464 0.70919 0.0
C1318 C 0.64482 0.53659 0.77958 0.0
C1319 C 0.68102 0.52656 0.69591 0.0
C1320 C 0.74035 0.59205 0.74714 0.0
C1321 C 0.76731 0.56863 0.7526 0.0
C1322 C 0.7063 0.58029 0.74264 0.0
C1323 C 0.69875 0.54406 0.74364 0.0
C1324 C 0.72564 0.52028 0.74977 0.0
C1325 C 0.75963 0.53285 0.75421 0.0
C1326 C 0.6786 0.60667 0.73625 0.0
C1327 C 0.7187 0.48148 0.751 0.0
H1328 H 0.58256 0.51738 0.76205 0.0
H1329 H 0.61283 0.50992 0.69148 0.0
H1330 H 0.66705 0.52033 0.78549 0.0
H1331 H 0.65281 0.56435 0.78127 0.0
H1332 H 0.62208 0.53175 0.79101 0.0
H1333 H 0.67065 0.51781 0.67916 0.0
H1334 H 0.68994 0.55406 0.69414 0.0
H1335 H 0.70427 0.51055 0.70022 0.0
H1336 H 0.74604 0.61977 0.74588 0.0
H1337 H 0.78035 0.51461 0.75834 0.0
H1338 H 0.65573 0.60406 0.74783 0.0
H1339 H 0.66931 0.60163 0.71862 0.0
H1340 H 0.68838 0.63399 0.73709 0.0
H1341 H 0.69653 0.47606 0.76276 0.0
H1342 H 0.74188 0.46657 0.75695 0.0
H1343 H 0.71112 0.47175 0.73387 0.0
C1344 C 0.75555 0.38329 0.45837 0.0
C1345 C 0.7581 0.35686 0.47501 0.0
C1346 C 0.74672 0.41778 0.46433 0.0
C1347 C 0.74024 0.4262 0.48753 0.0
C1348 C 0.74347 0.39985 0.50447 0.0
C1349 C 0.75238 0.36559 0.49802 0.0
C1350 C 0.74332 0.44499 0.44568 0.0
C1351 C 0.73663 0.40763 0.52936 0.0
C1352 C 0.73909 0.52285 0.50403 0.0
C1353 C 0.70328 0.53034 0.50299 0.0
C1354 C 0.75158 0.48889 0.49946 0.0
C1355 C 0.72765 0.46191 0.49382 0.0
C1356 C 0.6914 0.46924 0.49351 0.0
C1357 C 0.67973 0.50325 0.49812 0.0
C1358 C 0.79041 0.48212 0.49996 0.0
C1359 C 0.6649 0.4414 0.48766 0.0
H1360 H 0.75948 0.37683 0.44052 0.0
H1361 H 0.7548 0.34555 0.51107 0.0
H1362 H 0.71576 0.45381 0.44449 0.0
H1363 H 0.75942 0.46826 0.44979 0.0
H1364 H 0.75149 0.4349 0.4287 0.0
H1365 H 0.74212 0.3848 0.54058 0.0
H1366 H 0.75296 0.42996 0.53499 0.0
H1367 H 0.70891 0.41533 0.53172 0.0
H1368 H 0.75741 0.5437 0.5077 0.0
H1369 H 0.65199 0.50884 0.49734 0.0
H1370 H 0.79961 0.47498 0.48259 0.0
H1371 H 0.79627 0.45971 0.51141 0.0
H1372 H 0.80542 0.50526 0.50583 0.0
H1373 H 0.66918 0.43236 0.46987 0.0
H1374 H 0.63759 0.45097 0.4892 0.0
H1375 H 0.66815 0.4184 0.49907 0.0
C1376 C 0.77186 0.43972 0.24534 0.0
C1377 C 0.74596 0.46198 0.25407 0.0
C1378 C 0.80586 0.45183 0.24097 0.0
C1379 C 0.81449 0.48708 0.24564 0.0
C1380 C 0.78874 0.50948 0.25512 0.0
C1381 C 0.75471 0.49666 0.2592 0.0
C1382 C 0.83232 0.42702 0.23079 0.0
C1383 C 0.79691 0.54719 0.2604 0.0
C1384 C 0.91165 0.50804 0.25006 0.0
C1385 C 0.91921 0.52101 0.2281 0.0
C1386 C 0.87756 0.49779 0.2562 0.0
C1387 C 0.85023 0.50047 0.24001 0.0
C1388 C 0.85754 0.51411 0.21795 0.0
C1389 C 0.89186 0.52423 0.21228 0.0
C1390 C 0.87093 0.48339 0.27989 0.0
C1391 C 0.82927 0.51714 0.20008 0.0
H1392 H 0.76532 0.41285 0.24135 0.0
H1393 H 0.73481 0.51398 0.26593 0.0
H1394 H 0.8408 0.43675 0.21377 0.0
H1395 H 0.85588 0.42573 0.24177 0.0
H1396 H 0.82172 0.40016 0.22875 0.0
H1397 H 0.7746 0.56074 0.2687 0.0
H1398 H 0.81997 0.54882 0.2718 0.0
H1399 H 0.80365 0.56129 0.24437 0.0
H1400 H 0.93245 0.50592 0.26252 0.0
H1401 H 0.89744 0.53379 0.19519 0.0
H1402 H 0.86235 0.45574 0.27873 0.0
H1403 H 0.84956 0.49815 0.28831 0.0
H1404 H 0.89455 0.48461 0.29086 0.0
H1405 H 0.81954 0.49071 0.19559 0.0
H1406 H 0.8387 0.5302 0.18422 0.0
H1407 H 0.80677 0.5321 0.20694 0.0
C1408 C 0.74723 0.85977 0.72865 0.0
C1409 C 0.7579 0.85204 0.75106 0.0
C1410 C 0.73782 0.89394 0.72216 0.0
C1411 C 0.73904 0.92122 0.73845 0.0
C1412 C 0.75035 0.91375 0.761 0.0
C1413 C 0.75967 0.87934 0.76701 0.0
C1414 C 0.72584 0.9007 0.69798 0.0
C1415 C 0.75171 0.94195 0.77898 0.0
C1416 C 0.7375 0.01678 0.71892 0.0
C1417 C 0.70241 0.0256 0.72269 0.0
C1418 C 0.74978 0.98274 0.72362 0.0
C1419 C 0.72642 0.95705 0.73232 0.0
C1420 C 0.69081 0.96575 0.73561 0.0
C1421 C 0.67928 0.99975 0.73067 0.0
C1422 C 0.7879 0.97449 0.71984 0.0
C1423 C 0.66495 0.93939 0.74492 0.0
H1424 H 0.74626 0.83902 0.7161 0.0
H1425 H 0.76747 0.87363 0.78442 0.0
H1426 H 0.69819 0.90942 0.6981 0.0
H1427 H 0.74154 0.92203 0.69015 0.0
H1428 H 0.72798 0.87709 0.68706 0.0
H1429 H 0.76298 0.93237 0.79532 0.0
H1430 H 0.76755 0.96438 0.77276 0.0
H1431 H 0.72496 0.95186 0.7824 0.0
H1432 H 0.7555 0.03665 0.71283 0.0
H1433 H 0.65209 1.00633 0.7336 0.0
H1434 H 0.79061 0.95142 0.70854 0.0
H1435 H 0.8003 0.96769 0.73639 0.0
H1436 H 0.80236 0.99679 0.71208 0.0
H1437 H 0.66471 0.91573 0.73402 0.0
H1438 H 0.63798 0.95003 0.74587 0.0
H1439 H 0.67291 0.93105 0.76233 0.0
C1440 C 0.75914 0.9941 0.96538 0.0
C1441 C 0.75058 0.9593 0.97061 0.0
C1442 C 0.79271 1.00751 0.9701 0.0
C1443 C 0.81821 0.98559 0.98035 0.0
C1444 C 0.80984 0.95021 0.98508 0.0
C1445 C 0.7763 0.93753 0.98008 0.0
C1446 C 0.80058 0.04533 0.9647 0.0
C1447 C 0.83604 0.92585 0.99601 0.0
C1448 C 0.91551 1.00724 0.97845 0.0
C1449 C 0.92153 0.01982 1.00062 0.0
C1450 C 0.88187 0.9971 0.97137 0.0
C1451 C 0.85338 0.99954 0.9868 0.0
C1452 C 0.8591 1.01299 1.00902 0.0
C1453 C 0.893 0.02295 1.01564 0.0
C1454 C 0.877 0.98291 0.94755 0.0
C1455 C 0.82956 0.01582 1.0261 0.0
H1456 H 0.73938 1.01107 0.95809 0.0
H1457 H 0.76993 0.91058 0.98414 0.0
H1458 H 0.8058 0.05969 0.98078 0.0
H1459 H 0.82445 0.04735 0.95397 0.0
H1460 H 0.77868 0.0584 0.95563 0.0
H1461 H 0.82584 0.89878 0.99785 0.0
H1462 H 0.86038 0.9251 0.98567 0.0
H1463 H 0.84312 0.93564 1.01322 0.0
H1464 H 0.93719 1.00522 0.96657 0.0
H1465 H 0.89733 0.03225 1.03288 0.0
H1466 H 0.85597 0.99744 0.93861 0.0
H1467 H 0.86877 0.95511 0.94852 0.0
H1468 H 0.90129 0.98461 0.93716 0.0
H1469 H 0.80733 0.03036 1.0185 0.0
H1470 H 0.8377 0.02922 1.04204 0.0
H1471 H 0.81993 0.9893 1.03063 0.0
C1472 C 0.77429 0.01704 0.21797 0.0
C1473 C 0.80965 1.00906 0.22142 0.0
C1474 C 0.76119 0.05073 0.22272 0.0
C1475 C 0.78401 0.07697 0.23111 0.0
C1476 C 0.81991 0.06918 0.23397 0.0
C1477 C 0.83224 0.03548 0.22903 0.0
C1478 C 0.72276 0.05793 0.21941 0.0
C1479 C 0.84525 0.09617 0.24289 0.0
C1480 C 0.76002 0.17373 0.22816 0.0
C1481 C 0.74997 0.18073 0.25081 0.0
C1482 C 0.77023 0.13996 0.22137 0.0
C1483 C 0.77048 0.11233 0.23757 0.0
C1484 C 0.75978 0.11903 0.26035 0.0
C1485 C 0.74966 0.15304 0.26666 0.0
C1486 C 0.78176 0.13409 0.19698 0.0
C1487 C 0.75966 0.0904 0.27821 0.0
H1488 H 0.75668 0.99674 0.21217 0.0
H1489 H 0.85963 0.02956 0.23172 0.0
H1490 H 0.71046 0.0638 0.23616 0.0
H1491 H 0.71913 0.08126 0.20835 0.0
H1492 H 0.70884 0.03545 0.21162 0.0
H1493 H 0.8726 0.08644 0.24313 0.0
H1494 H 0.84418 0.12016 0.23219 0.0
H1495 H 0.8378 0.10367 0.26054 0.0
H1496 H 0.76086 0.19491 0.21581 0.0
H1497 H 0.74144 0.15792 0.2841 0.0
H1498 H 0.76689 0.11213 0.18939 0.0
H1499 H 0.8098 0.12674 0.19664 0.0
H1500 H 0.77813 0.15771 0.18613 0.0
H1501 H 0.74383 0.06791 0.27224 0.0
H1502 H 0.74904 0.09941 0.29487 0.0
H1503 H 0.78667 0.08076 0.28094 0.0
C1504 C 0.75677 0.03676 0.46559 0.0
C1505 C 0.76499 0.0714 0.47127 0.0
C1506 C 0.72315 0.02295 0.47 0.0
C1507 C 0.69731 0.04425 0.48046 0.0
C1508 C 0.70543 0.07943 0.48574 0.0
C1509 C 0.73894 0.09254 0.48097 0.0
C1510 C 0.71548 0.98541 0.4639 0.0
C1511 C 0.67894 0.10314 0.49697 0.0
C1512 C 0.59974 0.02409 0.47797 0.0
C1513 C 0.59313 1.01083 0.5 0.0
C1514 C 0.63371 0.03363 0.47103 0.0
C1515 C 0.66195 0.02999 0.48647 0.0
C1516 C 0.65565 0.01564 0.50848 0.0
C1517 C 0.62142 1.00622 0.51495 0.0
C1518 C 0.63918 0.04872 0.4474 0.0
C1519 C 0.68486 1.01153 0.52558 0.0
H1520 H 0.77674 0.0203 0.45807 0.0
H1521 H 0.74496 0.11938 0.48536 0.0
H1522 H 0.70873 0.97041 0.47958 0.0
H1523 H 0.69255 0.98409 0.45237 0.0
H1524 H 0.73801 0.97253 0.45539 0.0
H1525 H 0.68917 0.13003 0.49956 0.0
H1526 H 0.65499 0.10471 0.48637 0.0
H1527 H 0.67121 0.09224 0.51385 0.0
H1528 H 0.57822 0.02723 0.46613 0.0
H1529 H 0.61666 0.99633 0.53207 0.0
H1530 H 0.66056 0.03469 0.43848 0.0
H1531 H 0.64715 0.07654 0.44875 0.0
H1532 H 0.61519 0.04724 0.4368 0.0
H1533 H 0.70715 0.99735 0.51776 0.0
H1534 H 0.67635 0.99719 0.54118 0.0
H1535 H 0.69454 0.03769 0.53072 0.0
C1536 C 0.25091 0.15182 0.46201 0.0
C1537 C 0.24885 0.17873 0.47825 0.0
C1538 C 0.26063 0.11761 0.46828 0.0
C1539 C 0.26847 0.10982 0.49142 0.0
C1540 C 0.26573 0.13662 0.50798 0.0
C1541 C 0.25602 0.17064 0.50122 0.0
C1542 C 0.26325 0.08992 0.45001 0.0
C1543 C 0.27413 0.12963 0.53278 0.0
C1544 C 0.2717 1.01346 0.50943 0.0
C1545 C 0.30753 1.00626 0.50759 0.0
C1546 C 0.25856 0.04721 0.50469 0.0
C1547 C 0.28182 0.07433 0.49795 0.0
C1548 C 0.31812 0.06731 0.49678 0.0
C1549 C 0.33045 0.03353 0.50165 0.0
C1550 C 0.21971 0.05357 0.50622 0.0
C1551 C 0.34396 0.09524 0.48973 0.0
H1552 H 0.2449 0.15749 0.44429 0.0
H1553 H 0.25501 0.19117 0.51391 0.0
H1554 H 0.29069 0.08087 0.44846 0.0
H1555 H 0.24714 0.06688 0.4548 0.0
H1556 H 0.25457 0.09963 0.43303 0.0
H1557 H 0.26858 0.15256 0.5438 0.0
H1558 H 0.2588 0.10698 0.53918 0.0
H1559 H 0.30219 0.1228 0.53448 0.0
H1560 H 0.25382 0.99254 0.51395 0.0
H1561 H 0.3582 0.02823 0.50022 0.0
H1562 H 0.20939 0.06 0.489 0.0
H1563 H 0.21426 0.07629 0.5174 0.0
H1564 H 0.20534 0.03047 0.51299 0.0
H1565 H 0.33868 0.10365 0.4719 0.0
H1566 H 0.37145 0.08603 0.49073 0.0
H1567 H 0.34102 0.11857 0.50077 0.0
C1568 C 0.09973 0.0219 0.24972 0.0
C1569 C 0.09243 1.0138 0.22681 0.0
C1570 C 0.13355 0.03168 0.25666 0.0
C1571 C 0.16097 0.03334 0.24037 0.0
C1572 C 0.15399 0.02452 0.21731 0.0
C1573 C 0.11991 0.01492 0.21083 0.0
C1574 C 0.13973 0.04105 0.28136 0.0
C1575 C 0.18234 0.02615 0.19932 0.0
C1576 C 0.23755 0.09487 0.25045 0.0
C1577 C 0.26417 0.07191 0.2573 0.0
C1578 C 0.20388 0.08272 0.2453 0.0
C1579 C 0.19633 0.04656 0.24707 0.0
C1580 C 0.2228 0.02328 0.25464 0.0
C1581 C 0.25645 0.03624 0.2597 0.0
C1582 C 0.17662 0.10858 0.23737 0.0
C1583 C 0.21586 0.98456 0.25672 0.0
H1584 H 0.07893 0.02062 0.2623 0.0
H1585 H 0.11461 1.00918 0.19305 0.0
H1586 H 0.16152 0.02526 0.28841 0.0
H1587 H 0.1475 0.06893 0.2826 0.0
H1588 H 0.11616 0.03679 0.29215 0.0
H1589 H 0.17331 0.01631 0.18249 0.0
H1590 H 0.19131 0.05355 0.1971 0.0
H1591 H 0.20527 1.01052 0.20481 0.0
H1592 H 0.24329 0.1225 0.24858 0.0
H1593 H 0.27692 0.01835 0.26489 0.0
H1594 H 0.15288 0.10651 0.24823 0.0
H1595 H 0.16873 0.10249 0.21958 0.0
H1596 H 0.18622 0.13599 0.23785 0.0
H1597 H 0.19278 0.97981 0.26783 0.0
H1598 H 0.23856 0.97015 0.26387 0.0
H1599 H 0.20971 0.9737 0.23963 0.0
C1600 C 0.23796 0.01616 1.00884 0.0
C1601 C 0.20245 0.02454 1.00677 0.0
C1602 C 0.25012 0.98226 1.00376 0.0
C1603 C 0.22618 0.95622 0.99651 0.0
C1604 C 0.19018 0.96441 0.9951 0.0
C1605 C 0.17881 0.99835 1.00027 0.0
C1606 C 0.28869 0.97458 1.00547 0.0
C1607 C 0.16368 0.93762 0.98746 0.0
C1608 C 0.25676 0.87924 0.9604 0.0
C1609 C 0.25791 0.85196 0.97654 0.0
C1610 C 0.2472 0.91338 0.96674 0.0
C1611 C 0.23862 0.92062 0.98983 0.0
C1612 C 0.24017 0.89337 1.00626 0.0
C1613 C 0.24974 0.85946 0.99943 0.0
C1614 C 0.24578 0.94162 0.94864 0.0
C1615 C 0.23086 0.89983 1.03098 0.0
H1616 H 0.25636 0.03632 1.01375 0.0
H1617 H 0.15131 1.00463 0.99865 0.0
H1618 H 0.29311 0.95154 1.01667 0.0
H1619 H 0.29918 0.96801 0.98832 0.0
H1620 H 0.30369 0.99709 1.01233 0.0
H1621 H 0.13648 0.94767 0.98834 0.0
H1622 H 0.16925 0.92978 0.96958 0.0
H1623 H 0.16553 0.91376 0.99824 0.0
H1624 H 0.26349 0.87394 0.94275 0.0
H1625 H 0.24999 0.83857 1.012 0.0
H1626 H 0.26249 0.96402 0.95366 0.0
H1627 H 0.21866 0.95157 0.94703 0.0
H1628 H 0.25451 0.93211 0.93163 0.0
H1629 H 0.24673 0.92167 1.03783 0.0
H1630 H 0.23507 0.87635 1.04186 0.0
H1631 H 0.20302 0.90765 1.03231 0.0
C1632 C 0.41544 1.00712 0.75167 0.0
C1633 C 0.42152 0.02019 0.72953 0.0
C1634 C 0.3818 0.99676 0.75877 0.0
C1635 C 0.35337 0.99945 0.74341 0.0
C1636 C 0.35914 1.0134 0.72123 0.0
C1637 C 0.39305 0.02359 0.71458 0.0
C1638 C 0.37685 0.98205 0.78255 0.0
C1639 C 0.32968 0.01652 0.70422 0.0
C1640 C 0.27641 0.93709 0.74994 0.0
C1641 C 0.25057 0.95859 0.7595 0.0
C1642 C 0.30997 0.94996 0.74498 0.0
C1643 C 0.31821 0.98525 0.74985 0.0
C1644 C 0.29258 1.00688 0.76021 0.0
C1645 C 0.259 0.99329 0.76489 0.0
C1646 C 0.33632 0.92591 0.73394 0.0
C1647 C 0.30031 0.0446 0.76577 0.0
H1648 H 0.43708 1.0049 0.76349 0.0
H1649 H 0.39743 0.03326 0.69737 0.0
H1650 H 0.35573 0.99632 0.79158 0.0
H1651 H 0.36873 0.95425 0.78149 0.0
H1652 H 0.40109 0.98363 0.79291 0.0
H1653 H 0.33785 0.03027 0.68832 0.0
H1654 H 0.32013 0.99008 0.69961 0.0
H1655 H 0.30738 0.03084 0.71191 0.0
H1656 H 0.27014 0.91022 0.74576 0.0
H1657 H 0.23914 1.01005 0.77225 0.0
H1658 H 0.36058 0.925 0.74426 0.0
H1659 H 0.34349 0.93608 0.71676 0.0
H1660 H 0.3262 0.89885 0.732 0.0
H1661 H 0.32412 0.04644 0.77647 0.0
H1662 H 0.27833 0.05741 0.77492 0.0
H1663 H 0.30559 0.05934 0.74975 0.0
C1664 C 0.30424 0.11481 0.16809 0.0
C1665 C 0.29377 0.1368 0.18639 0.0
C1666 C 0.28475 0.11143 0.14704 0.0
C1667 C 0.25284 0.13012 0.1431 0.0
C1668 C 0.24208 0.15223 0.16156 0.0
C1669 C 0.26212 0.15522 0.1824 0.0
C1670 C 0.29856 0.08738 0.12881 0.0
C1671 C 0.20881 0.17299 0.15937 0.0
C1672 C 0.21895 0.14716 1.07971 0.0
C1673 C 0.19217 0.12206 1.07585 0.0
C1674 C 0.23813 0.14996 1.10084 0.0
C1675 C 0.23155 0.12724 0.11987 0.0
C1676 C 0.20445 0.10186 0.11621 0.0
C1677 C 0.1856 0.09958 1.09478 0.0
C1678 C 0.26601 0.17765 1.10271 0.0
C1679 C 0.19529 0.07662 0.13514 0.0
H1680 H 0.32803 0.09982 0.17018 0.0
H1681 H 0.25253 0.17212 0.19584 0.0
H1682 H 0.27883 0.06698 0.12495 0.0
H1683 H 0.30323 0.10234 1.1128 0.0
H1684 H 0.32329 0.0744 0.13394 0.0
H1685 H 0.20331 0.18891 0.17481 0.0
H1686 H 0.21052 0.19065 0.14432 0.0
H1687 H 0.18647 0.15504 0.15647 0.0
H1688 H 0.22533 0.16501 1.06589 0.0
H1689 H 0.1656 0.07975 1.09289 0.0
H1690 H 0.29162 0.16523 1.10629 0.0
H1691 H 0.26003 0.19524 0.11725 0.0
H1692 H 0.26841 0.19365 1.0869 0.0
H1693 H 0.21857 0.06079 0.13968 0.0
H1694 H 0.1737 0.05869 0.13034 0.0
H1695 H 0.18749 0.09123 0.15069 0.0
C1696 C 0.67111 0.44526 0.34173 0.0
C1697 C 0.64887 0.45213 0.32282 0.0
C1698 C 0.66902 0.46421 0.36313 0.0
C1699 C 0.64412 0.49175 0.36678 0.0
C1700 C 0.62165 0.49863 0.34777 0.0
C1701 C 0.62422 0.47931 0.32668 0.0
C1702 C 0.69395 0.45469 0.38204 0.0
C1703 C 0.59452 0.52702 0.34962 0.0
C1704 C 0.6167 0.52392 0.42923 0.0
C1705 C 0.63594 0.55519 0.43289 0.0
C1706 C 0.61926 0.50345 0.40852 0.0
C1707 C 0.64168 0.51339 0.3899 0.0
C1708 C 0.66116 0.54491 0.39353 0.0
C1709 C 0.65822 0.56479 0.41442 0.0
C1710 C 0.59772 0.47062 0.40666 0.0
C1711 C 0.68553 0.55791 0.37509 0.0
H1712 H 0.69059 0.42494 0.33983 0.0
H1713 H 0.60657 0.48594 0.31289 0.0
H1714 H 0.71037 0.47765 0.38636 0.0
H1715 H 0.6791 0.44746 0.39768 0.0
H1716 H 0.71131 0.4326 0.37732 0.0
H1717 H 0.5786 0.52956 0.33385 0.0
H1718 H 0.5768 0.52151 0.36424 0.0
H1719 H 0.60744 0.55245 0.35302 0.0
H1720 H 0.59952 0.51501 0.44281 0.0
H1721 H 0.6738 0.58827 0.41625 0.0
H1722 H 0.6151 0.44784 0.40378 0.0
H1723 H 0.58006 0.47253 0.3917 0.0
H1724 H 0.58173 0.46566 0.42222 0.0
H1725 H 0.70545 0.53767 0.37129 0.0
H1726 H 0.6991 0.58244 0.37999 0.0
H1727 H 0.67071 0.56268 0.35911 0.0
C1728 C 0.24907 0.8725 0.68224 0.0
C1729 C 0.22115 0.8954 0.68784 0.0
C1730 C 0.26933 0.87542 0.66137 0.0
C1731 C 0.26287 0.90227 0.64473 0.0
C1732 C 0.23518 0.92583 0.65051 0.0
C1733 C 0.21498 0.92199 0.67129 0.0
C1734 C 0.2982 0.84947 0.65719 0.0
C1735 C 0.22635 0.95542 0.63449 0.0
C1736 C 0.33297 0.92933 0.59691 0.0
C1737 C 0.32229 0.91139 0.57689 0.0
C1738 C 0.31477 0.92633 0.61862 0.0
C1739 C 0.28397 0.90519 0.62136 0.0
C1740 C 0.273 0.8874 0.60116 0.0
C1741 C 0.2919 0.8904 0.57986 0.0
C1742 C 0.32858 0.94627 0.63883 0.0
C1743 C 0.24046 0.8652 0.60188 0.0
H1744 H 0.25532 0.8519 0.69432 0.0
H1745 H 0.19416 0.94044 0.67461 0.0
H1746 H 0.29301 0.83488 0.6412 0.0
H1747 H 0.32338 0.86348 0.65485 0.0
H1748 H 0.30096 0.83045 0.67147 0.0
H1749 H 0.21166 0.97641 0.6433 0.0
H1750 H 0.25021 0.96709 0.62681 0.0
H1751 H 0.21013 0.94518 0.62034 0.0
H1752 H 0.35592 0.94585 0.59573 0.0
H1753 H 0.28222 0.87628 0.56516 0.0
H1754 H 0.33364 0.92803 0.65325 0.0
H1755 H 0.30867 0.96529 0.64475 0.0
H1756 H 0.35307 0.96062 0.63473 0.0
H1757 H 0.24302 0.84468 0.61524 0.0
H1758 H 0.23505 0.85242 0.58525 0.0
H1759 H 0.21768 0.88166 0.60657 0.0
C1760 C 0.83893 0.5872 0.8413 0.0
C1761 C 0.8614 0.58081 0.82239 0.0
C1762 C 0.84129 0.56827 0.86278 0.0
C1763 C 0.8667 0.54123 0.86651 0.0
C1764 C 0.88938 0.53479 0.8475 0.0
C1765 C 0.88656 0.55411 0.82632 0.0
C1766 C 0.81611 0.57731 0.8817 0.0
C1767 C 0.91702 0.50689 0.84941 0.0
C1768 C 0.89449 0.50967 0.92907 0.0
C1769 C 0.87575 0.47811 0.93299 0.0
C1770 C 0.89166 0.53004 0.90825 0.0
C1771 C 0.86946 0.51967 0.88974 0.0
C1772 C 0.85051 0.48784 0.89362 0.0
C1773 C 0.85369 0.46809 0.91464 0.0
C1774 C 0.91265 0.56323 0.90612 0.0
C1775 C 0.82644 0.47437 0.87532 0.0
H1776 H 0.81909 0.60716 0.83935 0.0
H1777 H 0.90441 0.54786 0.81253 0.0
H1778 H 0.80007 0.55406 0.88615 0.0
H1779 H 0.83077 0.58476 0.89729 0.0
H1780 H 0.79839 0.59911 0.87692 0.0
H1781 H 0.93298 0.5046 0.8336 0.0
H1782 H 0.93464 0.51276 0.86393 0.0
H1783 H 0.90456 0.48125 0.85303 0.0
H1784 H 0.91149 0.51889 0.94255 0.0
H1785 H 0.8385 0.44435 0.91666 0.0
H1786 H 0.89489 0.58569 0.90309 0.0
H1787 H 0.93044 0.56154 0.89115 0.0
H1788 H 0.92844 0.56853 0.92162 0.0
H1789 H 0.80614 0.49421 0.87146 0.0
H1790 H 0.81334 0.44958 0.88038 0.0
H1791 H 0.8414 0.46988 0.85932 0.0
C1792 C 0.79084 0.89031 0.15018 0.0
C1793 C 0.82162 0.91074 0.15288 0.0
C1794 C 0.77199 0.88738 0.12893 0.0
C1795 C 0.78341 0.90466 1.1085 0.0
C1796 C 0.81461 0.92521 1.11097 0.0
C1797 C 0.83275 0.92816 0.13262 0.0
C1798 C 0.73902 0.86582 0.1285 0.0
C1799 C 0.82896 0.94457 1.09052 0.0
C1800 C 0.74817 0.87206 1.04794 0.0
C1801 C 0.72073 0.89546 1.04216 0.0
C1802 C 0.76835 0.87475 1.06877 0.0
C1803 C 0.76235 0.9019 1.08519 0.0
C1804 C 0.7352 0.92596 1.0792 0.0
C1805 C 0.71501 0.92232 1.05849 0.0
C1806 C 0.79665 0.84825 1.07317 0.0
C1807 C 0.727 0.95595 1.09493 0.0
H1808 H 0.7808 0.87661 0.16505 0.0
H1809 H 0.856 0.94426 0.13359 0.0
H1810 H 0.71659 0.88268 0.1237 0.0
H1811 H 0.74122 0.84512 1.11534 0.0
H1812 H 0.73331 0.85332 0.14527 0.0
H1813 H 0.85375 0.95842 1.09441 0.0
H1814 H 0.83367 0.92603 1.07629 0.0
H1815 H 0.80951 0.96396 1.08442 0.0
H1816 H 0.75407 0.85124 1.03605 0.0
H1817 H 0.69461 0.94116 1.05502 0.0
H1818 H 0.7911 0.83398 1.08933 0.0
H1819 H 0.8221 0.86176 1.07531 0.0
H1820 H 0.79905 0.82901 1.05908 0.0
H1821 H 0.71109 0.94614 1.10947 0.0
H1822 H 0.71229 0.97691 1.08605 0.0
H1823 H 0.75117 0.96753 1.10209 0.0
C1824 C 0.38617 0.55476 0.90206 0.0
C1825 C 0.36109 0.58154 0.90595 0.0
C1826 C 0.38897 0.53542 0.88098 0.0
C1827 C 0.36631 0.54189 0.862 0.0
C1828 C 0.34097 0.569 0.86568 0.0
C1829 C 0.33864 0.58796 0.88707 0.0
C1830 C 0.41654 0.50746 0.87912 0.0
C1831 C 0.31582 0.57808 0.8468 0.0
C1832 C 0.39406 0.51023 0.79947 0.0
C1833 C 0.37528 0.47869 0.79579 0.0
C1834 C 0.39125 0.53062 0.82021 0.0
C1835 C 0.36905 0.5203 0.83886 0.0
C1836 C 0.35004 0.4885 0.83522 0.0
C1837 C 0.3532 0.46871 0.81429 0.0
C1838 C 0.4123 0.56377 0.82208 0.0
C1839 C 0.32593 0.47507 0.85367 0.0
H1840 H 0.404 0.54849 0.91582 0.0
H1841 H 0.31886 0.60798 0.88897 0.0
H1842 H 0.40402 0.48184 0.87569 0.0
H1843 H 0.43418 0.51328 0.8645 0.0
H1844 H 0.43249 0.50515 0.89489 0.0
H1845 H 0.29814 0.59992 0.85153 0.0
H1846 H 0.33049 0.5855 0.83112 0.0
H1847 H 0.29973 0.55487 0.84254 0.0
H1848 H 0.41107 0.51944 0.78589 0.0
H1849 H 0.33798 0.445 0.81245 0.0
H1850 H 0.43005 0.56208 0.837 0.0
H1851 H 0.39457 0.58627 0.82501 0.0
H1852 H 0.42814 0.56902 0.80649 0.0
H1853 H 0.34087 0.47056 0.86964 0.0
H1854 H 0.31278 0.45031 0.84878 0.0
H1855 H 0.30567 0.49496 0.8575 0.0
C1856 C 0.71912 0.14803 0.64909 0.0
C1857 C 0.69234 0.12294 0.65322 0.0
C1858 C 0.73838 0.15069 0.62789 0.0
C1859 C 0.73189 0.12782 0.60907 0.0
C1860 C 0.7048 0.10244 0.61301 0.0
C1861 C 0.68587 0.1003 0.63449 0.0
C1862 C 0.76624 0.17839 0.62572 0.0
C1863 C 0.69575 0.07704 0.59432 0.0
C1864 C 0.76251 0.15539 0.54622 0.0
C1865 C 0.79419 0.13696 0.54227 0.0
C1866 C 0.74246 0.15253 0.56715 0.0
C1867 C 0.75322 0.13056 0.58575 0.0
C1868 C 0.78516 0.11187 0.58186 0.0
C1869 C 0.80466 0.11511 0.56071 0.0
C1870 C 0.70917 0.17327 0.56928 0.0
C1871 C 0.79897 0.08797 0.60025 0.0
H1872 H 0.72543 0.16599 0.66275 0.0
H1873 H 0.66589 0.08047 0.6366 0.0
H1874 H 0.79187 0.16596 0.62217 0.0
H1875 H 0.76029 0.19588 0.61107 0.0
H1876 H 0.76859 0.19449 0.64141 0.0
H1877 H 0.67411 0.05918 0.59931 0.0
H1878 H 0.68809 0.09151 0.57864 0.0
H1879 H 0.71905 0.06114 0.58993 0.0
H1880 H 0.75293 0.17219 0.53268 0.0
H1881 H 0.82847 0.10013 0.55866 0.0
H1882 H 0.71087 0.19108 0.58416 0.0
H1883 H 0.68685 0.15534 0.57243 0.0
H1884 H 0.70366 0.18905 0.55372 0.0
H1885 H 0.82373 0.07499 0.59514 0.0
H1886 H 0.77927 0.06757 0.60435 0.0
H1887 H 0.80361 0.10306 0.61612 0.0
C1888 C 0.1255 0.47967 0.403 0.0
C1889 C 0.14984 0.45212 0.40665 0.0
C1890 C 0.12276 0.49914 0.38189 0.0
C1891 C 0.1447 0.492 0.36261 0.0
C1892 C 0.1693 0.46413 0.36604 0.0
C1893 C 0.1716 0.44506 0.38749 0.0
C1894 C 0.0961 0.52801 0.38032 0.0
C1895 C 0.1937 0.45437 0.34685 0.0
C1896 C 0.11623 0.52486 0.30042 0.0
C1897 C 0.13587 0.55582 0.29635 0.0
C1898 C 0.11898 0.50427 0.32117 0.0
C1899 C 0.14202 0.51377 0.33944 0.0
C1900 C 0.16188 0.54499 0.33541 0.0
C1901 C 0.1588 0.56494 0.31446 0.0
C1902 C 0.09699 0.47176 0.32347 0.0
C1903 C 0.187 0.55751 0.35342 0.0
H1904 H 0.10824 0.4865 0.41699 0.0
H1905 H 0.19084 0.42446 0.3892 0.0
H1906 H 0.10938 0.55322 0.37662 0.0
H1907 H 0.07791 0.52285 0.36599 0.0
H1908 H 0.08065 0.5308 0.39632 0.0
H1909 H 0.21063 0.4318 0.35135 0.0
H1910 H 0.17846 0.44776 0.33134 0.0
H1911 H 0.21058 0.47702 0.34242 0.0
H1912 H 0.09858 0.51627 0.28712 0.0
H1913 H 0.17482 0.58805 0.31229 0.0
H1914 H 0.07968 0.47394 0.33865 0.0
H1915 H 0.11408 0.44872 0.32623 0.0
H1916 H 0.08059 0.46708 0.30814 0.0
H1917 H 0.17341 0.55995 0.37012 0.0
H1918 H 0.19885 0.58313 0.34894 0.0
H1919 H 0.20823 0.53807 0.35562 0.0
C1920 C 0.71744 0.64871 0.57625 0.0
C1921 C 0.69066 0.62364 0.57233 0.0
C1922 C 0.7367 0.65131 0.59738 0.0
C1923 C 0.73013 0.62848 0.61636 0.0
C1924 C 0.70299 0.60316 0.61264 0.0
C1925 C 0.68412 0.60102 0.59121 0.0
C1926 C 0.7647 0.67888 0.59927 0.0
C1927 C 0.69378 0.57785 0.63152 0.0
C1928 C 0.80312 0.61473 0.66416 0.0
C1929 C 0.79321 0.63664 0.68264 0.0
C1930 C 0.78338 0.61185 0.6432 0.0
C1931 C 0.75168 0.63096 0.63952 0.0
C1932 C 0.74141 0.653 0.65816 0.0
C1933 C 0.76176 0.65554 0.67892 0.0
C1934 C 0.79675 0.58791 0.62476 0.0
C1935 C 0.70834 0.67411 0.65625 0.0
H1936 H 0.7238 0.66666 0.56249 0.0
H1937 H 0.66409 0.58123 0.58928 0.0
H1938 H 0.75889 0.69637 0.61389 0.0
H1939 H 0.79028 0.66631 0.60274 0.0
H1940 H 0.76707 0.695 0.58351 0.0
H1941 H 0.67193 0.56021 0.62677 0.0
H1942 H 0.71693 0.56171 0.63586 0.0
H1943 H 0.68635 0.5924 0.64717 0.0
H1944 H 0.82674 0.59942 0.66603 0.0
H1945 H 0.7526 0.67241 0.6925 0.0
H1946 H 0.8013 0.60302 0.60879 0.0
H1947 H 0.77682 0.5677 0.62092 0.0
H1948 H 0.82146 0.57469 0.62967 0.0
H1949 H 0.71008 0.692 0.64131 0.0
H1950 H 0.70315 0.68983 0.67182 0.0
H1951 H 0.6858 0.65643 0.65331 0.0
C1952 C 0.17579 0.94067 0.84686 0.0
C1953 C 0.1527 0.94618 0.82822 0.0
C1954 C 0.17349 0.96007 0.86807 0.0
C1955 C 0.14755 0.98662 0.8717 0.0
C1956 C 0.12426 0.9921 0.85296 0.0
C1957 C 0.12704 0.97238 0.8321 0.0
C1958 C 0.19929 0.9521 0.88678 0.0
C1959 C 0.09606 0.01944 0.85483 0.0
C1960 C 0.1198 0.01935 0.93379 0.0
C1961 C 0.13762 0.05157 0.93683 0.0
C1962 C 0.12304 0.99833 0.91341 0.0
C1963 C 0.14473 1.00871 0.89453 0.0
C1964 C 0.16279 0.0412 0.89753 0.0
C1965 C 0.15922 0.06159 0.91812 0.0
C1966 C 0.10306 0.96444 0.91216 0.0
C1967 C 0.18638 0.05466 0.87878 0.0
H1968 H 0.19606 0.92116 0.84489 0.0
H1969 H 0.10874 0.97796 0.81848 0.0
H1970 H 0.21478 0.97586 0.8907 0.0
H1971 H 0.18517 0.94458 0.90265 0.0
H1972 H 0.2175 0.93069 0.88207 0.0
H1973 H 0.07963 0.02094 0.83924 0.0
H1974 H 0.07896 1.01359 0.86972 0.0
H1975 H 0.10803 0.04545 0.85782 0.0
H1976 H 0.1033 1.0101 0.94763 0.0
H1977 H 0.17372 0.08582 0.91953 0.0
H1978 H 0.12146 0.94244 0.90943 0.0
H1979 H 0.08503 0.96505 0.89734 0.0
H1980 H 0.08763 0.95922 0.92793 0.0
H1981 H 0.20789 0.03577 0.87579 0.0
H1982 H 0.19793 0.08052 0.88292 0.0
H1983 H 0.17156 0.05702 0.86258 0.0
C1984 C 0.79571 0.3836 1.07702 0.0
C1985 C 0.82185 0.40932 1.07281 0.0
C1986 C 0.7762 0.38091 1.09812 0.0
C1987 C 0.78187 0.40429 0.11679 0.0
C1988 C 0.80826 0.43035 1.11275 0.0
C1989 C 0.82742 0.43255 1.09135 0.0
C1990 C 0.7487 0.35285 1.10028 0.0
C1991 C 0.81616 0.45652 0.1312 0.0
C1992 C 0.70794 0.4174 0.16425 0.0
C1993 C 0.71802 0.39604 0.18305 0.0
C1994 C 0.72773 0.4201 0.14322 0.0
C1995 C 0.75997 0.40174 0.1399 0.0
C1996 C 0.77047 0.38032 0.15887 0.0
C1997 C 0.74987 0.37769 0.17962 0.0
C1998 C 0.71396 0.44346 0.1245 0.0
C1999 C 0.80409 0.36001 0.15734 0.0
H2000 H 0.79002 0.36523 1.06349 0.0
H2001 H 0.84685 0.45292 1.08916 0.0
H2002 H 0.75445 0.33586 1.11522 0.0
H2003 H 0.7228 0.36505 1.10336 0.0
H2004 H 0.74704 0.3363 1.08476 0.0
H2005 H 0.83794 0.47434 0.1264 0.0
H2006 H 0.79252 0.47241 0.13474 0.0
H2007 H 0.82305 0.44273 0.1473 0.0
H2008 H 0.68413 0.43242 0.1659 0.0
H2009 H 0.75922 0.36132 0.19345 0.0
H2010 H 0.71755 0.43136 1.10745 0.0
H2011 H 0.72866 0.46848 0.12457 0.0
H2012 H 0.6858 0.44933 0.1269 0.0
H2013 H 0.80297 0.3417 0.1427 0.0
H2014 H 0.80949 0.34484 0.17317 0.0
H2015 H 0.82621 0.37819 0.15413 0.0
C2016 C 0.35139 0.97237 0.41887 0.0
C2017 C 0.37307 0.98264 0.43733 0.0
C2018 C 0.34758 0.99261 0.39814 0.0
C2019 C 0.3654 0.02518 0.39479 0.0
C2020 C 0.38711 0.03585 0.41344 0.0
C2021 C 0.39067 0.01495 0.43395 0.0
C2022 C 0.32418 0.9788 0.37958 0.0
C2023 C 0.40679 0.0699 0.41182 0.0
C2024 C 0.38254 0.06104 0.33198 0.0
C2025 C 0.35648 0.08679 0.32794 0.0
C2026 C 0.38562 0.04161 0.35301 0.0
C2027 C 0.3623 0.04702 0.37179 0.0
C2028 C 0.33597 0.07315 0.36801 0.0
C2029 C 0.33333 0.09221 0.34661 0.0
C2030 C 0.4142 0.01467 0.35503 0.0
C2031 C 0.31016 0.08105 0.38679 0.0
H2032 H 0.33708 0.94805 0.42056 0.0
H2033 H 0.40725 0.02435 0.44759 0.0
H2034 H 0.3033 0.99807 0.37579 0.0
H2035 H 0.33948 0.97515 0.36363 0.0
H2036 H 0.31181 0.9535 0.38433 0.0
H2037 H 0.42205 0.07547 0.42751 0.0
H2038 H 0.42494 0.06927 0.397 0.0
H2039 H 0.38821 0.0917 0.40885 0.0
H2040 H 0.40093 0.05558 0.31834 0.0
H2041 H 0.3128 0.11143 0.34454 0.0
H2042 H 0.40258 0.98855 0.35838 0.0
H2043 H 0.4313 0.02096 0.36974 0.0
H2044 H 0.43056 1.01315 0.33935 0.0
H2045 H 0.29487 0.05721 0.391 0.0
H2046 H 0.29176 0.10228 0.38198 0.0
H2047 H 0.32426 0.08882 0.40252 0.0
C2048 C 0.29808 0.3818 0.65164 0.0
C2049 C 0.32209 0.40928 0.65628 0.0
C2050 C 0.27888 0.37871 0.63052 0.0
C2051 C 0.28252 0.40362 0.61234 0.0
C2052 C 0.3067 0.43149 0.61683 0.0
C2053 C 0.32576 0.43391 0.63817 0.0
C2054 C 0.25396 0.3485 0.62781 0.0
C2055 C 0.31221 0.45943 0.59897 0.0
C2056 C 0.25226 0.3791 0.549 0.0
C2057 C 0.21893 0.39492 0.54626 0.0
C2058 C 0.27279 0.38191 0.56969 0.0
C2059 C 0.26067 0.40082 0.58931 0.0
C2060 C 0.22689 0.41647 0.58671 0.0
C2061 C 0.20723 0.41381 0.56571 0.0
C2062 C 0.30805 0.36451 0.57044 0.0
C2063 C 0.21127 0.43681 0.60622 0.0
H2064 H 0.29394 0.36224 0.66481 0.0
H2065 H 0.34347 0.45565 0.64071 0.0
H2066 H 0.22703 0.35853 0.62528 0.0
H2067 H 0.26096 0.33323 0.61238 0.0
H2068 H 0.25402 0.33072 0.64287 0.0
H2069 H 0.33235 0.47878 0.60411 0.0
H2070 H 0.32024 0.44737 0.58255 0.0
H2071 H 0.28724 0.47339 0.59587 0.0
H2072 H 0.26286 0.36472 0.53466 0.0
H2073 H 0.18217 0.42677 0.56463 0.0
H2074 H 0.30873 0.34517 0.58462 0.0
H2075 H 0.32856 0.3843 0.57394 0.0
H2076 H 0.31451 0.351 0.5542 0.0
H2077 H 0.18271 0.44052 0.60408 0.0
H2078 H 0.22394 0.46288 0.60702 0.0
H2079 H 0.21586 0.42348 0.62281 0.0
C2080 C 0.83282 0.09039 0.38289 0.0
C2081 C 0.85795 0.08781 0.40064 0.0
C2082 C 0.83555 0.07116 0.36164 0.0
C2083 C 0.86419 0.04797 0.357 0.0
C2084 C 0.88957 0.04551 0.37481 0.0
C2085 C 0.8862 0.06485 0.39579 0.0
C2086 C 0.80718 0.0754 0.34406 0.0
C2087 C 0.9206 0.02167 0.37188 0.0
C2088 C 0.85653 0.97126 0.31147 0.0
C2089 C 0.87498 0.98321 0.29183 0.0
C2090 C 0.8531 0.99139 0.33218 0.0
C2091 C 0.86743 0.02583 0.33421 0.0
C2092 C 0.88581 0.03823 0.31437 0.0
C2093 C 0.88946 0.01723 0.29399 0.0
C2094 C 0.83344 0.97552 0.35202 0.0
C2095 C 0.90175 0.07424 0.31457 0.0
H2096 H 0.8105 0.10727 0.38565 0.0
H2097 H 0.90616 0.06159 0.40871 0.0
H2098 H 0.81869 0.08356 0.32744 0.0
H2099 H 0.79401 0.0499 0.34132 0.0
H2100 H 0.78727 0.09495 0.34927 0.0
H2101 H 0.93866 0.02264 0.3867 0.0
H2102 H 0.9115 0.99433 0.36968 0.0
H2103 H 0.93531 0.029 0.3562 0.0
H2104 H 0.8446 0.94563 0.31077 0.0
H2105 H 0.90339 0.02798 0.27942 0.0
H2106 H 0.847 0.98062 0.36841 0.0
H2107 H 0.83028 0.94684 0.35011 0.0
H2108 H 0.80715 0.98762 0.35311 0.0
H2109 H 0.88121 0.09398 0.31809 0.0
H2110 H 0.91472 0.08091 0.2981 0.0
H2111 H 0.92127 0.07605 0.3285 0.0
C2112 C 0.1833 0.60279 0.13747 0.0
C2113 C 0.19013 0.6253 0.15621 0.0
C2114 C 0.2021 0.60481 0.11594 0.0
C2115 C 0.22945 0.6299 1.11198 0.0
C2116 C 0.2363 0.65265 0.13082 0.0
C2117 C 0.21711 0.65015 0.15205 0.0
C2118 C 0.19263 0.57961 1.09722 0.0
C2119 C 0.26452 0.67998 0.12864 0.0
C2120 C 0.30226 0.61565 1.06397 0.0
C2121 C 0.29249 0.63767 1.04544 0.0
C2122 C 0.28251 0.61287 1.08501 0.0
C2123 C 0.25096 0.63222 1.08872 0.0
C2124 C 0.24084 0.65437 1.07004 0.0
C2125 C 0.26119 0.6568 1.04918 0.0
C2126 C 0.29569 0.58879 1.10351 0.0
C2127 C 0.20794 0.67575 1.07199 0.0
H2128 H 0.16312 0.58316 0.13961 0.0
H2129 H 0.22369 0.66799 0.16571 0.0
H2130 H 0.18533 0.59424 1.08153 0.0
H2131 H 0.21562 0.56324 1.09287 0.0
H2132 H 0.17061 0.56218 1.10216 0.0
H2133 H 0.26704 0.69609 0.1443 0.0
H2134 H 0.28999 0.6672 0.12514 0.0
H2135 H 0.25884 0.6975 1.11396 0.0
H2136 H 0.32577 0.60018 1.06208 0.0
H2137 H 0.25216 0.67377 1.03556 0.0
H2138 H 0.27558 0.56876 1.10754 0.0
H2139 H 0.30042 0.60384 0.11938 0.0
H2140 H 0.32026 0.57534 1.09854 0.0
H2141 H 0.18526 0.65825 1.07512 0.0
H2142 H 0.20285 0.69152 1.05637 0.0
H2143 H 0.20985 0.69361 1.08683 0.0
C2144 C 0.62686 0.97339 0.89781 0.0
C2145 C 0.65264 0.94731 0.90174 0.0
C2146 C 0.62405 0.99312 0.87687 0.0
C2147 C 0.64744 0.98779 0.85811 0.0
C2148 C 0.67351 0.96136 0.86179 0.0
C2149 C 0.67582 0.94194 0.88307 0.0
C2150 C 0.5957 0.02031 0.87493 0.0
C2151 C 0.69945 0.95361 0.84307 0.0
C2152 C 0.61979 0.02042 0.79593 0.0
C2153 C 0.63744 0.05274 0.79272 0.0
C2154 C 0.62305 0.9994 0.81641 0.0
C2155 C 0.64459 1.00989 0.8352 0.0
C2156 C 0.66248 0.04248 0.83202 0.0
C2157 C 0.6589 0.06287 0.81133 0.0
C2158 C 0.60325 0.9654 0.81785 0.0
C2159 C 0.68591 0.05606 0.85065 0.0
H2160 H 0.60849 0.97885 0.91145 0.0
H2161 H 0.69619 0.92253 0.88508 0.0
H2162 H 0.60755 0.04639 0.87181 0.0
H2163 H 0.5787 0.0144 0.86011 0.0
H2164 H 0.5792 0.02168 0.89056 0.0
H2165 H 0.71756 0.93208 0.84776 0.0
H2166 H 0.68548 0.94638 0.82718 0.0
H2167 H 0.71504 0.97739 0.8392 0.0
H2168 H 0.60341 1.0111 0.78216 0.0
H2169 H 0.67327 0.08718 0.80979 0.0
H2170 H 0.58511 0.96591 0.83268 0.0
H2171 H 0.62175 0.9435 0.82069 0.0
H2172 H 0.58796 0.96009 0.80213 0.0
H2173 H 0.67106 0.05816 0.86691 0.0
H2174 H 0.69721 0.08206 0.84642 0.0
H2175 H 0.7076 0.03736 0.85362 0.0
loop_
_geom_bond_atom_site_label_1
_geom_bond_atom_site_label_2
_geom_bond_distance
_geom_bond_site_symmetry_2
_ccdc_geom_bond_type
Ho0 C3 2.811 . S
Ho0 O20 2.322 . S
Ho0 O22 2.378 . S
Ho0 O23 2.524 . S
Ho0 O24 2.381 . S
Ho0 O25 2.669 . S
Ho0 O27 2.346 . S
Ho0 O31 2.305 . S
Ho1 C12 2.811 . S
Ho1 O21 2.346 . S
Ho1 O25 2.305 . S
Ho1 O26 2.322 . S
Ho1 O28 2.378 . S
Ho1 O29 2.524 . S
Ho1 O30 2.381 . S
Ho1 O31 2.669 . S
C2 O20 1.259 . S
C2 O21 1.268 . S
C3 Ho0 2.811 . S
C3 C4 1.488 . S
C3 O22 1.215 . S
C3 O23 1.289 . S
C4 C3 1.488 . S
C4 C5 1.348 . S
C4 C9 1.413 . S
C5 C4 1.348 . S
C5 C6 1.442 . S
C5 H32 0.930 . S
C6 C5 1.442 . S
C6 C7 1.381 . S
C6 H33 0.931 . S
C7 C6 1.381 . S
C7 C8 1.321 . S
C8 C7 1.321 . S
C8 C9 1.403 . S
C8 H34 0.934 . S
C9 C4 1.413 . S
C9 C8 1.403 . S
C9 H35 0.930 . S
C10 O24 1.275 . S
C10 O25 1.256 . S
C11 O26 1.259 . S
C11 O27 1.268 . S
C12 Ho1 2.811 . S
C12 C13 1.488 . S
C12 O28 1.215 . S
C12 O29 1.289 . S
C13 C12 1.488 . S
C13 C14 1.348 . S
C13 C18 1.413 . S
C14 C13 1.348 . S
C14 C15 1.442 . S
C14 H36 0.930 . S
C15 C14 1.442 . S
C15 C16 1.375 1_545 S
C15 H37 0.931 . S
C16 C15 1.375 1_565 S
C16 C17 1.324 . S
C17 C16 1.324 . S
C17 C18 1.403 1_565 S
C17 H38 0.934 . S
C18 C13 1.413 . S
C18 C17 1.403 1_545 S
C18 H39 0.937 . S
C19 O30 1.275 . S
C19 O31 1.256 . S
O20 Ho0 2.322 . S
O20 C2 1.259 . S
O21 Ho1 2.346 . S
O21 C2 1.268 . S
O22 Ho0 2.378 . S
O22 C3 1.215 . S
O23 Ho0 2.524 . S
O23 C3 1.289 . S
O24 Ho0 2.381 . S
O24 C10 1.275 . S
O25 Ho0 2.669 . S
O25 Ho1 2.305 . S
O25 C10 1.256 . S
O26 Ho1 2.322 . S
O26 C11 1.259 . S
O27 Ho0 2.346 . S
O27 C11 1.268 . S
O28 Ho1 2.378 . S
O28 C12 1.215 . S
O29 Ho1 2.524 . S
O29 C12 1.289 . S
O30 Ho1 2.381 . S
O30 C19 1.275 . S
O31 Ho0 2.305 . S
O31 Ho1 2.669 . S
O31 C19 1.256 . S
H32 C5 0.930 . S
H33 C6 0.931 . S
H34 C8 0.934 . S
H35 C9 0.930 . S
H36 C14 0.930 . S
H37 C15 0.931 . S
H38 C17 0.934 . S
H39 C18 0.937 . S
Ho40 C43 2.811 . S
Ho40 O60 2.322 . S
Ho40 O62 2.378 . S
Ho40 O63 2.524 . S
Ho40 O64 2.381 . S
Ho40 O65 2.669 . S
Ho40 O67 2.346 . S
Ho40 O71 2.305 . S
Ho41 C52 2.811 . S
Ho41 O61 2.346 . S
Ho41 O65 2.305 . S
Ho41 O66 2.322 . S
Ho41 O68 2.378 . S
Ho41 O69 2.524 . S
Ho41 O70 2.381 . S
Ho41 O71 2.669 . S
C42 O60 1.259 . S
C42 O61 1.268 . S
C43 Ho40 2.811 . S
C43 C44 1.488 . S
C43 O62 1.215 . S
C43 O63 1.289 . S
C44 C43 1.488 . S
C44 C45 1.348 . S
C44 C49 1.413 . S
C45 C44 1.348 . S
C45 C46 1.442 . S
C45 H72 0.930 . S
C46 C45 1.442 . S
C46 C47 1.381 . S
C46 H73 0.931 . S
C47 C46 1.381 . S
C47 C48 1.321 . S
C48 C47 1.321 . S
C48 C49 1.403 . S
C48 H74 0.934 . S
C49 C44 1.413 . S
C49 C48 1.403 . S
C49 H75 0.930 . S
C50 O64 1.275 . S
C50 O65 1.256 . S
C51 O66 1.259 . S
C51 O67 1.268 . S
C52 Ho41 2.811 . S
C52 C53 1.488 . S
C52 O68 1.215 . S
C52 O69 1.289 . S
C53 C52 1.488 . S
C53 C54 1.348 . S
C53 C58 1.413 . S
C54 C53 1.348 . S
C54 C55 1.442 . S
C54 H76 0.930 . S
C55 C54 1.442 . S
C55 C56 1.381 . S
C55 H77 0.931 . S
C56 C55 1.381 . S
C56 C57 1.321 . S
C57 C56 1.321 . S
C57 C58 1.403 . S
C57 H78 0.934 . S
C58 C53 1.413 . S
C58 C57 1.403 . S
C58 H79 0.930 . S
C59 O70 1.275 . S
C59 O71 1.256 . S
O60 Ho40 2.322 . S
O60 C42 1.259 . S
O61 Ho41 2.346 . S
O61 C42 1.268 . S
O62 Ho40 2.378 . S
O62 C43 1.215 . S
O63 Ho40 2.524 . S
O63 C43 1.289 . S
O64 Ho40 2.381 . S
O64 C50 1.275 . S
O65 Ho40 2.669 . S
O65 Ho41 2.305 . S
O65 C50 1.256 . S
O66 Ho41 2.322 . S
O66 C51 1.259 . S
O67 Ho40 2.346 . S
O67 C51 1.268 . S
O68 Ho41 2.378 . S
O68 C52 1.215 . S
O69 Ho41 2.524 . S
O69 C52 1.289 . S
O70 Ho41 2.381 . S
O70 C59 1.275 . S
O71 Ho40 2.305 . S
O71 Ho41 2.669 . S
O71 C59 1.256 . S
H72 C45 0.930 . S
H73 C46 0.931 . S
H74 C48 0.934 . S
H75 C49 0.930 . S
H76 C54 0.930 . S
H77 C55 0.931 . S
H78 C57 0.934 . S
H79 C58 0.930 . S
Ho80 C83 2.811 . S
Ho80 O100 2.322 . S
Ho80 O102 2.378 . S
Ho80 O103 2.524 . S
Ho80 O104 2.381 . S
Ho80 O105 2.669 . S
Ho80 O107 2.346 . S
Ho80 O111 2.305 . S
Ho81 C92 2.811 . S
Ho81 O101 2.346 . S
Ho81 O105 2.305 . S
Ho81 O106 2.322 . S
Ho81 O108 2.378 . S
Ho81 O109 2.524 . S
Ho81 O110 2.381 . S
Ho81 O111 2.669 . S
C82 O100 1.259 . S
C82 O101 1.268 . S
C83 Ho80 2.811 . S
C83 C84 1.488 . S
C83 O102 1.215 . S
C83 O103 1.289 . S
C84 C83 1.488 . S
C84 C85 1.348 . S
C84 C89 1.413 . S
C85 C84 1.348 . S
C85 C86 1.442 . S
C85 H112 0.930 . S
C86 C85 1.442 . S
C86 C87 1.381 . S
C86 H113 0.931 . S
C87 C86 1.381 . S
C87 C88 1.321 . S
C88 C87 1.321 . S
C88 C89 1.403 . S
C88 H114 0.934 . S
C89 C84 1.413 . S
C89 C88 1.403 . S
C89 H115 0.930 . S
C90 O104 1.275 . S
C90 O105 1.256 . S
C91 O106 1.259 . S
C91 O107 1.268 . S
C92 Ho81 2.811 . S
C92 C93 1.488 . S
C92 O108 1.215 . S
C92 O109 1.289 . S
C93 C92 1.488 . S
C93 C94 1.348 . S
C93 C98 1.413 . S
C94 C93 1.348 . S
C94 C95 1.442 . S
C94 H116 0.930 . S
C95 C94 1.442 . S
C95 C96 1.375 1_565 S
C95 H117 0.931 . S
C96 C95 1.375 1_545 S
C96 C97 1.324 . S
C97 C96 1.324 . S
C97 C98 1.403 1_545 S
C97 H118 0.934 . S
C98 C93 1.413 . S
C98 C97 1.403 1_565 S
C98 H119 0.937 . S
C99 O110 1.275 . S
C99 O111 1.256 . S
O100 Ho80 2.322 . S
O100 C82 1.259 . S
O101 Ho81 2.346 . S
O101 C82 1.268 . S
O102 Ho80 2.378 . S
O102 C83 1.215 . S
O103 Ho80 2.524 . S
O103 C83 1.289 . S
O104 Ho80 2.381 . S
O104 C90 1.275 . S
O105 Ho80 2.669 . S
O105 Ho81 2.305 . S
O105 C90 1.256 . S
O106 Ho81 2.322 . S
O106 C91 1.259 . S
O107 Ho80 2.346 . S
O107 C91 1.268 . S
O108 Ho81 2.378 . S
O108 C92 1.215 . S
O109 Ho81 2.524 . S
O109 C92 1.289 . S
O110 Ho81 2.381 . S
O110 C99 1.275 . S
O111 Ho80 2.305 . S
O111 Ho81 2.669 . S
O111 C99 1.256 . S
H112 C85 0.930 . S
H113 C86 0.931 . S
H114 C88 0.934 . S
H115 C89 0.930 . S
H116 C94 0.930 . S
H117 C95 0.931 . S
H118 C97 0.934 . S
H119 C98 0.937 . S
Ho120 C123 2.811 . S
Ho120 O140 2.322 . S
Ho120 O142 2.378 . S
Ho120 O143 2.524 . S
Ho120 O144 2.381 . S
Ho120 O145 2.669 . S
Ho120 O147 2.346 . S
Ho120 O151 2.305 . S
Ho121 C132 2.811 . S
Ho121 O141 2.346 . S
Ho121 O145 2.305 . S
Ho121 O146 2.322 . S
Ho121 O148 2.378 . S
Ho121 O149 2.524 . S
Ho121 O150 2.381 . S
Ho121 O151 2.669 . S
C122 O140 1.259 . S
C122 O141 1.268 . S
C123 Ho120 2.811 . S
C123 C124 1.488 . S
C123 O142 1.215 . S
C123 O143 1.289 . S
C124 C123 1.488 . S
C124 C125 1.348 . S
C124 C129 1.414 1_655 S
C125 C124 1.348 . S
C125 C126 1.442 1_655 S
C125 H152 0.930 . S
C126 C125 1.442 1_455 S
C126 C127 1.381 . S
C126 H153 0.930 . S
C127 C126 1.381 . S
C127 C128 1.321 . S
C128 C127 1.321 . S
C128 C129 1.403 . S
C128 H154 0.934 . S
C129 C124 1.414 1_455 S
C129 C128 1.403 . S
C129 H155 0.930 . S
C130 O144 1.275 . S
C130 O145 1.256 . S
C131 O146 1.259 . S
C131 O147 1.268 . S
C132 Ho121 2.811 . S
C132 C133 1.488 . S
C132 O148 1.215 . S
C132 O149 1.289 . S
C133 C132 1.488 . S
C133 C134 1.348 . S
C133 C138 1.413 . S
C134 C133 1.348 . S
C134 C135 1.442 . S
C134 H156 0.930 . S
C135 C134 1.442 . S
C135 C136 1.381 . S
C135 H157 0.931 . S
C136 C135 1.381 . S
C136 C137 1.321 . S
C137 C136 1.321 . S
C137 C138 1.403 . S
C137 H158 0.934 . S
C138 C133 1.413 . S
C138 C137 1.403 . S
C138 H159 0.930 . S
C139 O150 1.275 . S
C139 O151 1.256 . S
O140 Ho120 2.322 . S
O140 C122 1.259 . S
O141 Ho121 2.346 . S
O141 C122 1.268 . S
O142 Ho120 2.378 . S
O142 C123 1.215 . S
O143 Ho120 2.524 . S
O143 C123 1.289 . S
O144 Ho120 2.381 . S
O144 C130 1.275 . S
O145 Ho120 2.669 . S
O145 Ho121 2.305 . S
O145 C130 1.256 . S
O146 Ho121 2.322 . S
O146 C131 1.259 . S
O147 Ho120 2.346 . S
O147 C131 1.268 . S
O148 Ho121 2.378 . S
O148 C132 1.215 . S
O149 Ho121 2.524 . S
O149 C132 1.289 . S
O150 Ho121 2.381 . S
O150 C139 1.275 . S
O151 Ho120 2.305 . S
O151 Ho121 2.669 . S
O151 C139 1.256 . S
H152 C125 0.930 . S
H153 C126 0.930 . S
H154 C128 0.934 . S
H155 C129 0.930 . S
H156 C134 0.930 . S
H157 C135 0.931 . S
H158 C137 0.934 . S
H159 C138 0.930 . S
Ho160 C163 2.811 . S
Ho160 O180 2.322 . S
Ho160 O182 2.378 . S
Ho160 O183 2.524 . S
Ho160 O184 2.381 . S
Ho160 O185 2.669 . S
Ho160 O187 2.346 . S
Ho160 O191 2.305 . S
Ho161 C172 2.811 . S
Ho161 O181 2.346 . S
Ho161 O185 2.305 . S
Ho161 O186 2.322 . S
Ho161 O188 2.378 . S
Ho161 O189 2.524 . S
Ho161 O190 2.381 . S
Ho161 O191 2.669 . S
C162 O180 1.259 . S
C162 O181 1.268 . S
C163 Ho160 2.811 . S
C163 C164 1.488 . S
C163 O182 1.215 . S
C163 O183 1.289 . S
C164 C163 1.488 . S
C164 C165 1.348 . S
C164 C169 1.413 . S
C165 C164 1.348 . S
C165 C166 1.442 . S
C165 H192 0.930 . S
C166 C165 1.442 . S
C166 C167 1.375 1_565 S
C166 H193 0.931 . S
C167 C166 1.375 1_545 S
C167 C168 1.324 . S
C168 C167 1.324 . S
C168 C169 1.403 1_545 S
C168 H194 0.934 . S
C169 C164 1.413 . S
C169 C168 1.403 1_565 S
C169 H195 0.937 . S
C170 O184 1.275 . S
C170 O185 1.256 . S
C171 O186 1.259 . S
C171 O187 1.268 . S
C172 Ho161 2.811 . S
C172 C173 1.488 . S
C172 O188 1.215 . S
C172 O189 1.289 . S
C173 C172 1.488 . S
C173 C174 1.348 . S
C173 C178 1.413 . S
C174 C173 1.348 . S
C174 C175 1.442 . S
C174 H196 0.930 . S
C175 C174 1.442 . S
C175 C176 1.381 . S
C175 H197 0.931 . S
C176 C175 1.381 . S
C176 C177 1.321 . S
C177 C176 1.321 . S
C177 C178 1.403 . S
C177 H198 0.934 . S
C178 C173 1.413 . S
C178 C177 1.403 . S
C178 H199 0.930 . S
C179 O190 1.275 . S
C179 O191 1.256 . S
O180 Ho160 2.322 . S
O180 C162 1.259 . S
O181 Ho161 2.346 . S
O181 C162 1.268 . S
O182 Ho160 2.378 . S
O182 C163 1.215 . S
O183 Ho160 2.524 . S
O183 C163 1.289 . S
O184 Ho160 2.381 . S
O184 C170 1.275 . S
O185 Ho160 2.669 . S
O185 Ho161 2.305 . S
O185 C170 1.256 . S
O186 Ho161 2.322 . S
O186 C171 1.259 . S
O187 Ho160 2.346 . S
O187 C171 1.268 . S
O188 Ho161 2.378 . S
O188 C172 1.215 . S
O189 Ho161 2.524 . S
O189 C172 1.289 . S
O190 Ho161 2.381 . S
O190 C179 1.275 . S
O191 Ho160 2.305 . S
O191 Ho161 2.669 . S
O191 C179 1.256 . S
H192 C165 0.930 . S
H193 C166 0.931 . S
H194 C168 0.934 . S
H195 C169 0.937 . S
H196 C174 0.930 . S
H197 C175 0.931 . S
H198 C177 0.934 . S
H199 C178 0.930 . S
Ho200 C203 2.811 . S
Ho200 O220 2.322 . S
Ho200 O222 2.378 . S
Ho200 O223 2.524 . S
Ho200 O224 2.381 . S
Ho200 O225 2.669 . S
Ho200 O227 2.346 . S
Ho200 O231 2.305 . S
Ho201 C212 2.811 . S
Ho201 O221 2.346 . S
Ho201 O225 2.305 . S
Ho201 O226 2.322 . S
Ho201 O228 2.378 . S
Ho201 O229 2.524 . S
Ho201 O230 2.381 . S
Ho201 O231 2.669 . S
C202 O220 1.259 . S
C202 O221 1.268 . S
C203 Ho200 2.811 . S
C203 C204 1.488 . S
C203 O222 1.215 . S
C203 O223 1.289 . S
C204 C203 1.488 . S
C204 C205 1.348 . S
C204 C209 1.413 . S
C205 C204 1.348 . S
C205 C206 1.442 . S
C205 H232 0.930 . S
C206 C205 1.442 . S
C206 C207 1.381 . S
C206 H233 0.931 . S
C207 C206 1.381 . S
C207 C208 1.321 . S
C208 C207 1.321 . S
C208 C209 1.403 . S
C208 H234 0.934 . S
C209 C204 1.413 . S
C209 C208 1.403 . S
C209 H235 0.930 . S
C210 O224 1.275 . S
C210 O225 1.256 . S
C211 O226 1.259 . S
C211 O227 1.268 . S
C212 Ho201 2.811 . S
C212 C213 1.488 . S
C212 O228 1.215 . S
C212 O229 1.289 . S
C213 C212 1.488 . S
C213 C214 1.348 . S
C213 C218 1.413 . S
C214 C213 1.348 . S
C214 C215 1.442 . S
C214 H236 0.930 . S
C215 C214 1.442 . S
C215 C216 1.381 . S
C215 H237 0.931 . S
C216 C215 1.381 . S
C216 C217 1.321 . S
C217 C216 1.321 . S
C217 C218 1.403 . S
C217 H238 0.934 . S
C218 C213 1.413 . S
C218 C217 1.403 . S
C218 H239 0.930 . S
C219 O230 1.275 . S
C219 O231 1.256 . S
O220 Ho200 2.322 . S
O220 C202 1.259 . S
O221 Ho201 2.346 . S
O221 C202 1.268 . S
O222 Ho200 2.378 . S
O222 C203 1.215 . S
O223 Ho200 2.524 . S
O223 C203 1.289 . S
O224 Ho200 2.381 . S
O224 C210 1.275 . S
O225 Ho200 2.669 . S
O225 Ho201 2.305 . S
O225 C210 1.256 . S
O226 Ho201 2.322 . S
O226 C211 1.259 . S
O227 Ho200 2.346 . S
O227 C211 1.268 . S
O228 Ho201 2.378 . S
O228 C212 1.215 . S
O229 Ho201 2.524 . S
O229 C212 1.289 . S
O230 Ho201 2.381 . S
O230 C219 1.275 . S
O231 Ho200 2.305 . S
O231 Ho201 2.669 . S
O231 C219 1.256 . S
H232 C205 0.930 . S
H233 C206 0.931 . S
H234 C208 0.934 . S
H235 C209 0.930 . S
H236 C214 0.930 . S
H237 C215 0.931 . S
H238 C217 0.934 . S
H239 C218 0.930 . S
Ho240 C243 2.811 . S
Ho240 O260 2.322 . S
Ho240 O262 2.378 . S
Ho240 O263 2.524 . S
Ho240 O264 2.381 . S
Ho240 O265 2.669 . S
Ho240 O267 2.346 . S
Ho240 O271 2.305 . S
Ho241 C252 2.811 . S
Ho241 O261 2.346 . S
Ho241 O265 2.305 . S
Ho241 O266 2.322 . S
Ho241 O268 2.378 . S
Ho241 O269 2.524 . S
Ho241 O270 2.381 . S
Ho241 O271 2.669 . S
C242 O260 1.259 . S
C242 O261 1.268 . S
C243 Ho240 2.811 . S
C243 C244 1.488 . S
C243 O262 1.215 . S
C243 O263 1.289 . S
C244 C243 1.488 . S
C244 C245 1.348 . S
C244 C249 1.413 . S
C245 C244 1.348 . S
C245 C246 1.442 . S
C245 H272 0.930 . S
C246 C245 1.442 . S
C246 C247 1.375 1_545 S
C246 H273 0.931 . S
C247 C246 1.375 1_565 S
C247 C248 1.324 . S
C248 C247 1.324 . S
C248 C249 1.403 1_565 S
C248 H274 0.934 . S
C249 C244 1.413 . S
C249 C248 1.403 1_545 S
C249 H275 0.937 . S
C250 O264 1.275 . S
C250 O265 1.256 . S
C251 O266 1.259 . S
C251 O267 1.268 . S
C252 Ho241 2.811 . S
C252 C253 1.488 . S
C252 O268 1.215 . S
C252 O269 1.289 . S
C253 C252 1.488 . S
C253 C254 1.348 . S
C253 C258 1.413 . S
C254 C253 1.348 . S
C254 C255 1.442 . S
C254 H276 0.930 . S
C255 C254 1.442 . S
C255 C256 1.381 . S
C255 H277 0.931 . S
C256 C255 1.381 . S
C256 C257 1.321 . S
C257 C256 1.321 . S
C257 C258 1.403 . S
C257 H278 0.934 . S
C258 C253 1.413 . S
C258 C257 1.403 . S
C258 H279 0.930 . S
C259 O270 1.275 . S
C259 O271 1.256 . S
O260 Ho240 2.322 . S
O260 C242 1.259 . S
O261 Ho241 2.346 . S
O261 C242 1.268 . S
O262 Ho240 2.378 . S
O262 C243 1.215 . S
O263 Ho240 2.524 . S
O263 C243 1.289 . S
O264 Ho240 2.381 . S
O264 C250 1.275 . S
O265 Ho240 2.669 . S
O265 Ho241 2.305 . S
O265 C250 1.256 . S
O266 Ho241 2.322 . S
O266 C251 1.259 . S
O267 Ho240 2.346 . S
O267 C251 1.268 . S
O268 Ho241 2.378 . S
O268 C252 1.215 . S
O269 Ho241 2.524 . S
O269 C252 1.289 . S
O270 Ho241 2.381 . S
O270 C259 1.275 . S
O271 Ho240 2.305 . S
O271 Ho241 2.669 . S
O271 C259 1.256 . S
H272 C245 0.930 . S
H273 C246 0.931 . S
H274 C248 0.934 . S
H275 C249 0.937 . S
H276 C254 0.930 . S
H277 C255 0.931 . S
H278 C257 0.934 . S
H279 C258 0.930 . S
Ho280 C283 2.811 . S
Ho280 O300 2.322 . S
Ho280 O302 2.378 . S
Ho280 O303 2.524 . S
Ho280 O304 2.381 . S
Ho280 O305 2.669 . S
Ho280 O307 2.346 . S
Ho280 O311 2.305 . S
Ho281 C292 2.811 . S
Ho281 O301 2.346 . S
Ho281 O305 2.305 . S
Ho281 O306 2.322 . S
Ho281 O308 2.378 . S
Ho281 O309 2.524 . S
Ho281 O310 2.381 . S
Ho281 O311 2.669 . S
C282 O300 1.259 . S
C282 O301 1.268 . S
C283 Ho280 2.811 . S
C283 C284 1.488 . S
C283 O302 1.215 . S
C283 O303 1.289 . S
C284 C283 1.488 . S
C284 C285 1.348 . S
C284 C289 1.413 . S
C285 C284 1.348 . S
C285 C286 1.442 . S
C285 H312 0.930 . S
C286 C285 1.442 . S
C286 C287 1.381 . S
C286 H313 0.931 . S
C287 C286 1.381 . S
C287 C288 1.321 . S
C288 C287 1.321 . S
C288 C289 1.403 . S
C288 H314 0.934 . S
C289 C284 1.413 . S
C289 C288 1.403 . S
C289 H315 0.930 . S
C290 O304 1.275 . S
C290 O305 1.256 . S
C291 O306 1.259 . S
C291 O307 1.268 . S
C292 Ho281 2.811 . S
C292 C293 1.488 . S
C292 O308 1.215 . S
C292 O309 1.289 . S
C293 C292 1.488 . S
C293 C294 1.348 . S
C293 C298 1.414 1_455 S
C294 C293 1.348 . S
C294 C295 1.442 1_455 S
C294 H316 0.930 . S
C295 C294 1.442 1_655 S
C295 C296 1.381 . S
C295 H317 0.930 . S
C296 C295 1.381 . S
C296 C297 1.321 . S
C297 C296 1.321 . S
C297 C298 1.403 . S
C297 H318 0.934 . S
C298 C293 1.414 1_655 S
C298 C297 1.403 . S
C298 H319 0.930 . S
C299 O310 1.275 . S
C299 O311 1.256 . S
O300 Ho280 2.322 . S
O300 C282 1.259 . S
O301 Ho281 2.346 . S
O301 C282 1.268 . S
O302 Ho280 2.378 . S
O302 C283 1.215 . S
O303 Ho280 2.524 . S
O303 C283 1.289 . S
O304 Ho280 2.381 . S
O304 C290 1.275 . S
O305 Ho280 2.669 . S
O305 Ho281 2.305 . S
O305 C290 1.256 . S
O306 Ho281 2.322 . S
O306 C291 1.259 . S
O307 Ho280 2.346 . S
O307 C291 1.268 . S
O308 Ho281 2.378 . S
O308 C292 1.215 . S
O309 Ho281 2.524 . S
O309 C292 1.289 . S
O310 Ho281 2.381 . S
O310 C299 1.275 . S
O311 Ho280 2.305 . S
O311 Ho281 2.669 . S
O311 C299 1.256 . S
H312 C285 0.930 . S
H313 C286 0.931 . S
H314 C288 0.934 . S
H315 C289 0.930 . S
H316 C294 0.930 . S
H317 C295 0.930 . S
H318 C297 0.934 . S
H319 C298 0.930 . S
Ho320 C323 2.811 . S
Ho320 O340 2.322 . S
Ho320 O342 2.378 . S
Ho320 O343 2.524 . S
Ho320 O344 2.381 . S
Ho320 O345 2.669 . S
Ho320 O347 2.346 . S
Ho320 O351 2.305 . S
Ho321 C332 2.811 . S
Ho321 O341 2.346 . S
Ho321 O345 2.305 . S
Ho321 O346 2.322 . S
Ho321 O348 2.378 . S
Ho321 O349 2.524 . S
Ho321 O350 2.381 . S
Ho321 O351 2.669 . S
C322 O340 1.259 . S
C322 O341 1.268 . S
C323 Ho320 2.811 . S
C323 C324 1.488 . S
C323 O342 1.215 . S
C323 O343 1.289 . S
C324 C323 1.488 . S
C324 C325 1.348 . S
C324 C329 1.413 . S
C325 C324 1.348 . S
C325 C326 1.442 . S
C325 H352 0.930 . S
C326 C325 1.442 . S
C326 C327 1.381 . S
C326 H353 0.931 . S
C327 C326 1.381 . S
C327 C328 1.321 . S
C328 C327 1.321 . S
C328 C329 1.403 . S
C328 H354 0.934 . S
C329 C324 1.413 . S
C329 C328 1.403 . S
C329 H355 0.930 . S
C330 O344 1.275 . S
C330 O345 1.256 . S
C331 O346 1.259 . S
C331 O347 1.268 . S
C332 Ho321 2.811 . S
C332 C333 1.488 . S
C332 O348 1.215 . S
C332 O349 1.289 . S
C333 C332 1.488 . S
C333 C334 1.348 . S
C333 C338 1.413 . S
C334 C333 1.348 . S
C334 C335 1.442 . S
C334 H356 0.930 . S
C335 C334 1.442 . S
C335 C336 1.381 . S
C335 H357 0.931 . S
C336 C335 1.381 . S
C336 C337 1.321 . S
C337 C336 1.321 . S
C337 C338 1.403 . S
C337 H358 0.934 . S
C338 C333 1.413 . S
C338 C337 1.403 . S
C338 H359 0.930 . S
C339 O350 1.275 . S
C339 O351 1.256 . S
O340 Ho320 2.322 . S
O340 C322 1.259 . S
O341 Ho321 2.346 . S
O341 C322 1.268 . S
O342 Ho320 2.378 . S
O342 C323 1.215 . S
O343 Ho320 2.524 . S
O343 C323 1.289 . S
O344 Ho320 2.381 . S
O344 C330 1.275 . S
O345 Ho320 2.669 . S
O345 Ho321 2.305 . S
O345 C330 1.256 . S
O346 Ho321 2.322 . S
O346 C331 1.259 . S
O347 Ho320 2.346 . S
O347 C331 1.268 . S
O348 Ho321 2.378 . S
O348 C332 1.215 . S
O349 Ho321 2.524 . S
O349 C332 1.289 . S
O350 Ho321 2.381 . S
O350 C339 1.275 . S
O351 Ho320 2.305 . S
O351 Ho321 2.669 . S
O351 C339 1.256 . S
H352 C325 0.930 . S
H353 C326 0.931 . S
H354 C328 0.934 . S
H355 C329 0.930 . S
H356 C334 0.930 . S
H357 C335 0.931 . S
H358 C337 0.934 . S
H359 C338 0.930 . S
Ho360 C363 2.811 . S
Ho360 O380 2.322 . S
Ho360 O382 2.378 . S
Ho360 O383 2.524 1_545 S
Ho360 O384 2.381 . S
Ho360 O385 2.669 . S
Ho360 O387 2.346 . S
Ho360 O391 2.305 . S
Ho361 C372 2.811 . S
Ho361 O381 2.346 . S
Ho361 O385 2.305 . S
Ho361 O386 2.322 . S
Ho361 O388 2.378 . S
Ho361 O389 2.524 . S
Ho361 O390 2.381 . S
Ho361 O391 2.669 . S
C362 O380 1.259 . S
C362 O381 1.268 . S
C363 Ho360 2.811 . S
C363 C364 1.488 1_545 S
C363 O382 1.215 . S
C363 O383 1.289 1_545 S
C364 C363 1.488 1_565 S
C364 C365 1.348 . S
C364 C369 1.414 1_465 S
C365 C364 1.348 . S
C365 C366 1.442 1_455 S
C365 H392 0.930 . S
C366 C365 1.442 1_655 S
C366 C367 1.381 . S
C366 H393 0.930 . S
C367 C366 1.381 . S
C367 C368 1.321 . S
C368 C367 1.321 . S
C368 C369 1.403 1_565 S
C368 H394 0.934 . S
C369 C364 1.414 1_645 S
C369 C368 1.403 1_545 S
C369 H395 0.930 . S
C370 O384 1.275 . S
C370 O385 1.256 . S
C371 O386 1.259 . S
C371 O387 1.268 . S
C372 Ho361 2.811 . S
C372 C373 1.488 . S
C372 O388 1.215 . S
C372 O389 1.289 . S
C373 C372 1.488 . S
C373 C374 1.348 . S
C373 C378 1.413 . S
C374 C373 1.348 . S
C374 C375 1.442 . S
C374 H396 0.930 . S
C375 C374 1.442 . S
C375 C376 1.381 . S
C375 H397 0.931 . S
C376 C375 1.381 . S
C376 C377 1.321 . S
C377 C376 1.321 . S
C377 C378 1.403 . S
C377 H398 0.934 . S
C378 C373 1.413 . S
C378 C377 1.403 . S
C378 H399 0.930 . S
C379 O390 1.275 . S
C379 O391 1.256 . S
O380 Ho360 2.322 . S
O380 C362 1.259 . S
O381 Ho361 2.346 . S
O381 C362 1.268 . S
O382 Ho360 2.378 . S
O382 C363 1.215 . S
O383 Ho360 2.524 1_565 S
O383 C363 1.289 1_565 S
O384 Ho360 2.381 . S
O384 C370 1.275 . S
O385 Ho360 2.669 . S
O385 Ho361 2.305 . S
O385 C370 1.256 . S
O386 Ho361 2.322 . S
O386 C371 1.259 . S
O387 Ho360 2.346 . S
O387 C371 1.268 . S
O388 Ho361 2.378 . S
O388 C372 1.215 . S
O389 Ho361 2.524 . S
O389 C372 1.289 . S
O390 Ho361 2.381 . S
O390 C379 1.275 . S
O391 Ho360 2.305 . S
O391 Ho361 2.669 . S
O391 C379 1.256 . S
H392 C365 0.930 . S
H393 C366 0.930 . S
H394 C368 0.934 . S
H395 C369 0.930 . S
H396 C374 0.930 . S
H397 C375 0.931 . S
H398 C377 0.934 . S
H399 C378 0.930 . S
Ho400 C403 2.811 . S
Ho400 O420 2.322 . S
Ho400 O422 2.378 . S
Ho400 O423 2.524 . S
Ho400 O424 2.381 . S
Ho400 O425 2.669 . S
Ho400 O427 2.346 . S
Ho400 O431 2.305 . S
Ho401 C412 2.811 . S
Ho401 O421 2.346 . S
Ho401 O425 2.305 . S
Ho401 O426 2.322 . S
Ho401 O428 2.378 . S
Ho401 O429 2.524 . S
Ho401 O430 2.381 . S
Ho401 O431 2.669 . S
C402 O420 1.259 . S
C402 O421 1.268 . S
C403 Ho400 2.811 . S
C403 C404 1.488 . S
C403 O422 1.215 . S
C403 O423 1.289 . S
C404 C403 1.488 . S
C404 C405 1.348 . S
C404 C409 1.413 . S
C405 C404 1.348 . S
C405 C406 1.442 . S
C405 H432 0.930 . S
C406 C405 1.442 . S
C406 C407 1.381 . S
C406 H433 0.931 . S
C407 C406 1.381 . S
C407 C408 1.321 . S
C408 C407 1.321 . S
C408 C409 1.403 . S
C408 H434 0.934 . S
C409 C404 1.413 . S
C409 C408 1.403 . S
C409 H435 0.930 . S
C410 O424 1.275 . S
C410 O425 1.256 . S
C411 O426 1.259 . S
C411 O427 1.268 . S
C412 Ho401 2.811 . S
C412 C413 1.488 . S
C412 O428 1.215 . S
C412 O429 1.289 . S
C413 C412 1.488 . S
C413 C414 1.348 . S
C413 C418 1.413 . S
C414 C413 1.348 . S
C414 C415 1.442 . S
C414 H436 0.930 . S
C415 C414 1.442 . S
C415 C416 1.381 . S
C415 H437 0.931 . S
C416 C415 1.381 . S
C416 C417 1.321 . S
C417 C416 1.321 . S
C417 C418 1.403 . S
C417 H438 0.934 . S
C418 C413 1.413 . S
C418 C417 1.403 . S
C418 H439 0.930 . S
C419 O430 1.275 . S
C419 O431 1.256 . S
O420 Ho400 2.322 . S
O420 C402 1.259 . S
O421 Ho401 2.346 . S
O421 C402 1.268 . S
O422 Ho400 2.378 . S
O422 C403 1.215 . S
O423 Ho400 2.524 . S
O423 C403 1.289 . S
O424 Ho400 2.381 . S
O424 C410 1.275 . S
O425 Ho400 2.669 . S
O425 Ho401 2.305 . S
O425 C410 1.256 . S
O426 Ho401 2.322 . S
O426 C411 1.259 . S
O427 Ho400 2.346 . S
O427 C411 1.268 . S
O428 Ho401 2.378 . S
O428 C412 1.215 . S
O429 Ho401 2.524 . S
O429 C412 1.289 . S
O430 Ho401 2.381 . S
O430 C419 1.275 . S
O431 Ho400 2.305 . S
O431 Ho401 2.669 . S
O431 C419 1.256 . S
H432 C405 0.930 . S
H433 C406 0.931 . S
H434 C408 0.934 . S
H435 C409 0.930 . S
H436 C414 0.930 . S
H437 C415 0.931 . S
H438 C417 0.934 . S
H439 C418 0.930 . S
Ho440 C443 2.811 . S
Ho440 O460 2.322 . S
Ho440 O462 2.378 . S
Ho440 O463 2.524 1_565 S
Ho440 O464 2.381 . S
Ho440 O465 2.669 . S
Ho440 O467 2.346 . S
Ho440 O471 2.305 . S
Ho441 C452 2.811 . S
Ho441 O461 2.346 . S
Ho441 O465 2.305 . S
Ho441 O466 2.322 . S
Ho441 O468 2.378 . S
Ho441 O469 2.524 . S
Ho441 O470 2.381 . S
Ho441 O471 2.669 . S
C442 O460 1.259 . S
C442 O461 1.268 . S
C443 Ho440 2.811 . S
C443 C444 1.488 1_565 S
C443 O462 1.215 . S
C443 O463 1.289 1_565 S
C444 C443 1.488 1_545 S
C444 C445 1.348 . S
C444 C449 1.413 1_545 S
C445 C444 1.348 . S
C445 C446 1.442 . S
C445 H472 0.930 . S
C446 C445 1.442 . S
C446 C447 1.381 . S
C446 H473 0.931 . S
C447 C446 1.381 . S
C447 C448 1.321 . S
C448 C447 1.321 . S
C448 C449 1.403 1_545 S
C448 H474 0.934 . S
C449 C444 1.413 1_565 S
C449 C448 1.403 1_565 S
C449 H475 0.930 . S
C450 O464 1.275 . S
C450 O465 1.256 . S
C451 O466 1.259 . S
C451 O467 1.268 . S
C452 Ho441 2.811 . S
C452 C453 1.488 . S
C452 O468 1.215 . S
C452 O469 1.289 . S
C453 C452 1.488 . S
C453 C454 1.348 . S
C453 C458 1.413 . S
C454 C453 1.348 . S
C454 C455 1.442 . S
C454 H476 0.930 . S
C455 C454 1.442 . S
C455 C456 1.381 . S
C455 H477 0.931 . S
C456 C455 1.381 . S
C456 C457 1.321 . S
C457 C456 1.321 . S
C457 C458 1.403 . S
C457 H478 0.934 . S
C458 C453 1.413 . S
C458 C457 1.403 . S
C458 H479 0.930 . S
C459 O470 1.275 . S
C459 O471 1.256 . S
O460 Ho440 2.322 . S
O460 C442 1.259 . S
O461 Ho441 2.346 . S
O461 C442 1.268 . S
O462 Ho440 2.378 . S
O462 C443 1.215 . S
O463 Ho440 2.524 1_545 S
O463 C443 1.289 1_545 S
O464 Ho440 2.381 . S
O464 C450 1.275 . S
O465 Ho440 2.669 . S
O465 Ho441 2.305 . S
O465 C450 1.256 . S
O466 Ho441 2.322 . S
O466 C451 1.259 . S
O467 Ho440 2.346 . S
O467 C451 1.268 . S
O468 Ho441 2.378 . S
O468 C452 1.215 . S
O469 Ho441 2.524 . S
O469 C452 1.289 . S
O470 Ho441 2.381 . S
O470 C459 1.275 . S
O471 Ho440 2.305 . S
O471 Ho441 2.669 . S
O471 C459 1.256 . S
H472 C445 0.930 . S
H473 C446 0.931 . S
H474 C448 0.934 . S
H475 C449 0.930 . S
H476 C454 0.930 . S
H477 C455 0.931 . S
H478 C457 0.934 . S
H479 C458 0.930 . S
Ho480 C483 2.811 . S
Ho480 O500 2.322 . S
Ho480 O502 2.378 . S
Ho480 O503 2.524 . S
Ho480 O504 2.381 . S
Ho480 O505 2.669 . S
Ho480 O507 2.346 . S
Ho480 O511 2.305 . S
Ho481 C492 2.811 . S
Ho481 O501 2.346 . S
Ho481 O505 2.305 . S
Ho481 O506 2.322 . S
Ho481 O508 2.378 . S
Ho481 O509 2.524 . S
Ho481 O510 2.381 . S
Ho481 O511 2.669 . S
C482 O500 1.259 . S
C482 O501 1.268 . S
C483 Ho480 2.811 . S
C483 C484 1.488 . S
C483 O502 1.215 . S
C483 O503 1.289 . S
C484 C483 1.488 . S
C484 C485 1.348 . S
C484 C489 1.413 . S
C485 C484 1.348 . S
C485 C486 1.442 . S
C485 H512 0.930 . S
C486 C485 1.442 . S
C486 C487 1.381 . S
C486 H513 0.931 . S
C487 C486 1.381 . S
C487 C488 1.321 . S
C488 C487 1.321 . S
C488 C489 1.403 . S
C488 H514 0.934 . S
C489 C484 1.413 . S
C489 C488 1.403 . S
C489 H515 0.930 . S
C490 O504 1.275 . S
C490 O505 1.256 . S
C491 O506 1.259 . S
C491 O507 1.268 . S
C492 Ho481 2.811 . S
C492 C493 1.488 . S
C492 O508 1.215 . S
C492 O509 1.289 . S
C493 C492 1.488 . S
C493 C494 1.348 . S
C493 C498 1.413 . S
C494 C493 1.348 . S
C494 C495 1.442 . S
C494 H516 0.930 . S
C495 C494 1.442 . S
C495 C496 1.381 . S
C495 H517 0.931 . S
C496 C495 1.381 . S
C496 C497 1.321 . S
C497 C496 1.321 . S
C497 C498 1.403 . S
C497 H518 0.934 . S
C498 C493 1.413 . S
C498 C497 1.403 . S
C498 H519 0.930 . S
C499 O510 1.275 . S
C499 O511 1.256 . S
O500 Ho480 2.322 . S
O500 C482 1.259 . S
O501 Ho481 2.346 . S
O501 C482 1.268 . S
O502 Ho480 2.378 . S
O502 C483 1.215 . S
O503 Ho480 2.524 . S
O503 C483 1.289 . S
O504 Ho480 2.381 . S
O504 C490 1.275 . S
O505 Ho480 2.669 . S
O505 Ho481 2.305 . S
O505 C490 1.256 . S
O506 Ho481 2.322 . S
O506 C491 1.259 . S
O507 Ho480 2.346 . S
O507 C491 1.268 . S
O508 Ho481 2.378 . S
O508 C492 1.215 . S
O509 Ho481 2.524 . S
O509 C492 1.289 . S
O510 Ho481 2.381 . S
O510 C499 1.275 . S
O511 Ho480 2.305 . S
O511 Ho481 2.669 . S
O511 C499 1.256 . S
H512 C485 0.930 . S
H513 C486 0.931 . S
H514 C488 0.934 . S
H515 C489 0.930 . S
H516 C494 0.930 . S
H517 C495 0.931 . S
H518 C497 0.934 . S
H519 C498 0.930 . S
Ho520 C523 2.811 . S
Ho520 O540 2.322 . S
Ho520 O542 2.378 . S
Ho520 O543 2.524 . S
Ho520 O544 2.381 . S
Ho520 O545 2.669 . S
Ho520 O547 2.346 . S
Ho520 O551 2.305 . S
Ho521 C532 2.811 . S
Ho521 O541 2.346 . S
Ho521 O545 2.305 . S
Ho521 O546 2.322 . S
Ho521 O548 2.378 . S
Ho521 O549 2.524 1_565 S
Ho521 O550 2.381 . S
Ho521 O551 2.669 . S
C522 O540 1.259 . S
C522 O541 1.268 . S
C523 Ho520 2.811 . S
C523 C524 1.488 . S
C523 O542 1.215 . S
C523 O543 1.289 . S
C524 C523 1.488 . S
C524 C525 1.348 . S
C524 C529 1.413 . S
C525 C524 1.348 . S
C525 C526 1.442 . S
C525 H552 0.930 . S
C526 C525 1.442 . S
C526 C527 1.381 . S
C526 H553 0.931 . S
C527 C526 1.381 . S
C527 C528 1.321 . S
C528 C527 1.321 . S
C528 C529 1.403 . S
C528 H554 0.934 . S
C529 C524 1.413 . S
C529 C528 1.403 . S
C529 H555 0.930 . S
C530 O544 1.275 . S
C530 O545 1.256 . S
C531 O546 1.259 . S
C531 O547 1.268 . S
C532 Ho521 2.811 . S
C532 C533 1.488 1_565 S
C532 O548 1.215 . S
C532 O549 1.289 1_565 S
C533 C532 1.488 1_545 S
C533 C534 1.348 . S
C533 C538 1.414 1_645 S
C534 C533 1.348 . S
C534 C535 1.442 1_655 S
C534 H556 0.930 . S
C535 C534 1.442 1_455 S
C535 C536 1.381 . S
C535 H557 0.930 . S
C536 C535 1.381 . S
C536 C537 1.321 . S
C537 C536 1.321 . S
C537 C538 1.403 1_545 S
C537 H558 0.934 . S
C538 C533 1.414 1_465 S
C538 C537 1.403 1_565 S
C538 H559 0.930 . S
C539 O550 1.275 . S
C539 O551 1.256 . S
O540 Ho520 2.322 . S
O540 C522 1.259 . S
O541 Ho521 2.346 . S
O541 C522 1.268 . S
O542 Ho520 2.378 . S
O542 C523 1.215 . S
O543 Ho520 2.524 . S
O543 C523 1.289 . S
O544 Ho520 2.381 . S
O544 C530 1.275 . S
O545 Ho520 2.669 . S
O545 Ho521 2.305 . S
O545 C530 1.256 . S
O546 Ho521 2.322 . S
O546 C531 1.259 . S
O547 Ho520 2.346 . S
O547 C531 1.268 . S
O548 Ho521 2.378 . S
O548 C532 1.215 . S
O549 Ho521 2.524 1_545 S
O549 C532 1.289 1_545 S
O550 Ho521 2.381 . S
O550 C539 1.275 . S
O551 Ho520 2.305 . S
O551 Ho521 2.669 . S
O551 C539 1.256 . S
H552 C525 0.930 . S
H553 C526 0.931 . S
H554 C528 0.934 . S
H555 C529 0.930 . S
H556 C534 0.930 . S
H557 C535 0.930 . S
H558 C537 0.934 . S
H559 C538 0.930 . S
Ho560 C563 2.811 . S
Ho560 O580 2.322 . S
Ho560 O582 2.378 . S
Ho560 O583 2.524 . S
Ho560 O584 2.381 . S
Ho560 O585 2.669 . S
Ho560 O587 2.346 . S
Ho560 O591 2.305 . S
Ho561 C572 2.811 . S
Ho561 O581 2.346 . S
Ho561 O585 2.305 . S
Ho561 O586 2.322 . S
Ho561 O588 2.378 . S
Ho561 O589 2.524 . S
Ho561 O590 2.381 . S
Ho561 O591 2.669 . S
C562 O580 1.259 . S
C562 O581 1.268 . S
C563 Ho560 2.811 . S
C563 C564 1.488 . S
C563 O582 1.215 . S
C563 O583 1.289 . S
C564 C563 1.488 . S
C564 C565 1.348 . S
C564 C569 1.413 . S
C565 C564 1.348 . S
C565 C566 1.442 . S
C565 H592 0.930 . S
C566 C565 1.442 . S
C566 C567 1.381 . S
C566 H593 0.931 . S
C567 C566 1.381 . S
C567 C568 1.321 . S
C568 C567 1.321 . S
C568 C569 1.403 . S
C568 H594 0.934 . S
C569 C564 1.413 . S
C569 C568 1.403 . S
C569 H595 0.930 . S
C570 O584 1.275 . S
C570 O585 1.256 . S
C571 O586 1.259 . S
C571 O587 1.268 . S
C572 Ho561 2.811 . S
C572 C573 1.488 . S
C572 O588 1.215 . S
C572 O589 1.289 . S
C573 C572 1.488 . S
C573 C574 1.348 . S
C573 C578 1.413 . S
C574 C573 1.348 . S
C574 C575 1.442 . S
C574 H596 0.930 . S
C575 C574 1.442 . S
C575 C576 1.381 . S
C575 H597 0.931 . S
C576 C575 1.381 . S
C576 C577 1.321 . S
C577 C576 1.321 . S
C577 C578 1.403 . S
C577 H598 0.934 . S
C578 C573 1.413 . S
C578 C577 1.403 . S
C578 H599 0.930 . S
C579 O590 1.275 . S
C579 O591 1.256 . S
O580 Ho560 2.322 . S
O580 C562 1.259 . S
O581 Ho561 2.346 . S
O581 C562 1.268 . S
O582 Ho560 2.378 . S
O582 C563 1.215 . S
O583 Ho560 2.524 . S
O583 C563 1.289 . S
O584 Ho560 2.381 . S
O584 C570 1.275 . S
O585 Ho560 2.669 . S
O585 Ho561 2.305 . S
O585 C570 1.256 . S
O586 Ho561 2.322 . S
O586 C571 1.259 . S
O587 Ho560 2.346 . S
O587 C571 1.268 . S
O588 Ho561 2.378 . S
O588 C572 1.215 . S
O589 Ho561 2.524 . S
O589 C572 1.289 . S
O590 Ho561 2.381 . S
O590 C579 1.275 . S
O591 Ho560 2.305 . S
O591 Ho561 2.669 . S
O591 C579 1.256 . S
H592 C565 0.930 . S
H593 C566 0.931 . S
H594 C568 0.934 . S
H595 C569 0.930 . S
H596 C574 0.930 . S
H597 C575 0.931 . S
H598 C577 0.934 . S
H599 C578 0.930 . S
Ho600 C603 2.811 . S
Ho600 O620 2.322 . S
Ho600 O622 2.378 . S
Ho600 O623 2.524 . S
Ho600 O624 2.381 . S
Ho600 O625 2.669 . S
Ho600 O627 2.346 . S
Ho600 O631 2.305 . S
Ho601 C612 2.811 . S
Ho601 O621 2.346 . S
Ho601 O625 2.305 . S
Ho601 O626 2.322 . S
Ho601 O628 2.378 . S
Ho601 O629 2.524 1_545 S
Ho601 O630 2.381 . S
Ho601 O631 2.669 . S
C602 O620 1.259 . S
C602 O621 1.268 . S
C603 Ho600 2.811 . S
C603 C604 1.488 . S
C603 O622 1.215 . S
C603 O623 1.289 . S
C604 C603 1.488 . S
C604 C605 1.348 . S
C604 C609 1.413 . S
C605 C604 1.348 . S
C605 C606 1.442 . S
C605 H632 0.930 . S
C606 C605 1.442 . S
C606 C607 1.381 . S
C606 H633 0.931 . S
C607 C606 1.381 . S
C607 C608 1.321 . S
C608 C607 1.321 . S
C608 C609 1.403 . S
C608 H634 0.934 . S
C609 C604 1.413 . S
C609 C608 1.403 . S
C609 H635 0.930 . S
C610 O624 1.275 . S
C610 O625 1.256 . S
C611 O626 1.259 . S
C611 O627 1.268 . S
C612 Ho601 2.811 . S
C612 C613 1.488 1_545 S
C612 O628 1.215 . S
C612 O629 1.289 1_545 S
C613 C612 1.488 1_565 S
C613 C614 1.348 . S
C613 C618 1.413 1_565 S
C614 C613 1.348 . S
C614 C615 1.442 . S
C614 H636 0.930 . S
C615 C614 1.442 . S
C615 C616 1.381 . S
C615 H637 0.931 . S
C616 C615 1.381 . S
C616 C617 1.321 . S
C617 C616 1.321 . S
C617 C618 1.403 1_565 S
C617 H638 0.934 . S
C618 C613 1.413 1_545 S
C618 C617 1.403 1_545 S
C618 H639 0.930 . S
C619 O630 1.275 . S
C619 O631 1.256 . S
O620 Ho600 2.322 . S
O620 C602 1.259 . S
O621 Ho601 2.346 . S
O621 C602 1.268 . S
O622 Ho600 2.378 . S
O622 C603 1.215 . S
O623 Ho600 2.524 . S
O623 C603 1.289 . S
O624 Ho600 2.381 . S
O624 C610 1.275 . S
O625 Ho600 2.669 . S
O625 Ho601 2.305 . S
O625 C610 1.256 . S
O626 Ho601 2.322 . S
O626 C611 1.259 . S
O627 Ho600 2.346 . S
O627 C611 1.268 . S
O628 Ho601 2.378 . S
O628 C612 1.215 . S
O629 Ho601 2.524 1_565 S
O629 C612 1.289 1_565 S
O630 Ho601 2.381 . S
O630 C619 1.275 . S
O631 Ho600 2.305 . S
O631 Ho601 2.669 . S
O631 C619 1.256 . S
H632 C605 0.930 . S
H633 C606 0.931 . S
H634 C608 0.934 . S
H635 C609 0.930 . S
H636 C614 0.930 . S
H637 C615 0.931 . S
H638 C617 0.934 . S
H639 C618 0.930 . S
C640 C641 1.391 . S
C640 C642 1.394 . S
C640 H656 0.931 . S
C641 C640 1.391 . S
C641 C645 1.376 . S
C642 C640 1.394 . S
C642 C643 1.369 . S
C642 C646 1.531 . S
C643 C642 1.369 . S
C643 C644 1.410 . S
C643 C651 1.503 . S
C644 C643 1.410 . S
C644 C645 1.392 . S
C644 C647 1.511 . S
C645 C641 1.376 . S
C645 C644 1.392 . S
C645 H657 0.929 . S
C646 C642 1.531 . S
C646 H658 0.960 . S
C646 H659 0.962 . S
C646 H660 0.960 . S
C647 C644 1.511 . S
C647 H661 0.961 . S
C647 H662 0.961 . S
C647 H663 0.961 . S
C648 C649 1.370 . S
C648 C650 1.363 . S
C648 H664 0.931 . S
C649 C648 1.370 . S
C649 C653 1.408 . S
C650 C648 1.363 . S
C650 C651 1.370 . S
C650 C654 1.524 . S
C651 C643 1.503 . S
C651 C650 1.370 . S
C651 C652 1.403 . S
C652 C651 1.403 . S
C652 C653 1.404 . S
C652 C655 1.539 . S
C653 C649 1.408 . S
C653 C652 1.404 . S
C653 H665 0.930 . S
C654 C650 1.524 . S
C654 H666 0.956 . S
C654 H667 0.961 . S
C654 H668 0.961 . S
C655 C652 1.539 . S
C655 H669 0.958 . S
C655 H670 0.961 . S
C655 H671 0.960 . S
H656 C640 0.931 . S
H657 C645 0.929 . S
H658 C646 0.960 . S
H659 C646 0.962 . S
H660 C646 0.960 . S
H661 C647 0.961 . S
H662 C647 0.961 . S
H663 C647 0.961 . S
H664 C648 0.931 . S
H665 C653 0.930 . S
H666 C654 0.956 . S
H667 C654 0.961 . S
H668 C654 0.961 . S
H669 C655 0.958 . S
H670 C655 0.961 . S
H671 C655 0.960 . S
C672 C673 1.391 . S
C672 C674 1.394 . S
C672 H688 0.931 . S
C673 C672 1.391 . S
C673 C677 1.376 . S
C674 C672 1.394 . S
C674 C675 1.369 . S
C674 C678 1.531 . S
C675 C674 1.369 . S
C675 C676 1.410 . S
C675 C683 1.503 . S
C676 C675 1.410 . S
C676 C677 1.392 . S
C676 C679 1.511 . S
C677 C673 1.376 . S
C677 C676 1.392 . S
C677 H689 0.929 . S
C678 C674 1.531 . S
C678 H690 0.960 . S
C678 H691 0.962 . S
C678 H692 0.960 . S
C679 C676 1.511 . S
C679 H693 0.961 . S
C679 H694 0.961 . S
C679 H695 0.961 . S
C680 C681 1.370 . S
C680 C682 1.363 . S
C680 H696 0.931 . S
C681 C680 1.370 . S
C681 C685 1.408 . S
C682 C680 1.363 . S
C682 C683 1.370 . S
C682 C686 1.524 . S
C683 C675 1.503 . S
C683 C682 1.370 . S
C683 C684 1.403 . S
C684 C683 1.403 . S
C684 C685 1.404 . S
C684 C687 1.539 . S
C685 C681 1.408 . S
C685 C684 1.404 . S
C685 H697 0.930 . S
C686 C682 1.524 . S
C686 H698 0.956 . S
C686 H699 0.961 . S
C686 H700 0.961 . S
C687 C684 1.539 . S
C687 H701 0.958 . S
C687 H702 0.961 . S
C687 H703 0.960 . S
H688 C672 0.931 . S
H689 C677 0.929 . S
H690 C678 0.960 . S
H691 C678 0.962 . S
H692 C678 0.960 . S
H693 C679 0.961 . S
H694 C679 0.961 . S
H695 C679 0.961 . S
H696 C680 0.931 . S
H697 C685 0.930 . S
H698 C686 0.956 . S
H699 C686 0.961 . S
H700 C686 0.961 . S
H701 C687 0.958 . S
H702 C687 0.961 . S
H703 C687 0.960 . S
C704 C705 1.391 . S
C704 C706 1.394 . S
C704 H720 0.931 . S
C705 C704 1.391 . S
C705 C709 1.376 . S
C706 C704 1.394 . S
C706 C707 1.369 . S
C706 C710 1.531 1_455 S
C707 C706 1.369 . S
C707 C708 1.410 . S
C707 C715 1.503 1_455 S
C708 C707 1.410 . S
C708 C709 1.392 . S
C708 C711 1.511 . S
C709 C705 1.376 . S
C709 C708 1.392 . S
C709 H721 0.929 . S
C710 C706 1.531 1_655 S
C710 H722 0.960 . S
C710 H723 0.962 . S
C710 H724 0.960 . S
C711 C708 1.511 . S
C711 H725 0.961 . S
C711 H726 0.961 . S
C711 H727 0.961 . S
C712 C713 1.370 . S
C712 C714 1.363 . S
C712 H728 0.931 . S
C713 C712 1.370 . S
C713 C717 1.408 . S
C714 C712 1.363 . S
C714 C715 1.370 . S
C714 C718 1.524 . S
C715 C707 1.503 1_655 S
C715 C714 1.370 . S
C715 C716 1.403 . S
C716 C715 1.403 . S
C716 C717 1.404 . S
C716 C719 1.539 . S
C717 C713 1.408 . S
C717 C716 1.404 . S
C717 H729 0.930 . S
C718 C714 1.524 . S
C718 H730 0.956 . S
C718 H731 0.930 1_655 S
C718 H732 0.961 . S
C719 C716 1.539 . S
C719 H733 0.958 . S
C719 H734 0.961 . S
C719 H735 0.960 1_655 S
H720 C704 0.931 . S
H721 C709 0.929 . S
H722 C710 0.960 . S
H723 C710 0.962 . S
H724 C710 0.960 . S
H725 C711 0.961 . S
H726 C711 0.961 . S
H727 C711 0.961 . S
H728 C712 0.931 . S
H729 C717 0.930 . S
H730 C718 0.956 . S
H731 C718 0.930 1_455 S
H732 C718 0.961 . S
H733 C719 0.958 . S
H734 C719 0.961 . S
H735 C719 0.960 1_455 S
C736 C737 1.391 . S
C736 C738 1.394 . S
C736 H752 0.931 . S
C737 C736 1.391 . S
C737 C741 1.376 . S
C738 C736 1.394 . S
C738 C739 1.369 . S
C738 C742 1.531 . S
C739 C738 1.369 . S
C739 C740 1.410 1_455 S
C739 C747 1.503 1_455 S
C740 C739 1.410 1_655 S
C740 C741 1.392 1_655 S
C740 C743 1.511 . S
C741 C737 1.376 . S
C741 C740 1.392 1_455 S
C741 H753 0.929 1_455 S
C742 C738 1.531 . S
C742 H754 0.960 . S
C742 H755 0.962 . S
C742 H756 0.960 . S
C743 C740 1.511 . S
C743 H757 0.961 . S
C743 H758 0.961 . S
C743 H759 0.961 . S
C744 C745 1.370 . S
C744 C746 1.363 . S
C744 H760 0.931 . S
C745 C744 1.370 . S
C745 C749 1.408 . S
C746 C744 1.363 . S
C746 C747 1.370 . S
C746 C750 1.524 1_655 S
C747 C739 1.503 1_655 S
C747 C746 1.370 . S
C747 C748 1.403 . S
C748 C747 1.403 . S
C748 C749 1.404 . S
C748 C751 1.539 . S
C749 C745 1.408 . S
C749 C748 1.404 . S
C749 H761 0.930 . S
C750 C746 1.524 1_455 S
C750 H762 0.956 . S
C750 H763 0.961 . S
C750 H764 0.961 . S
C751 C748 1.539 . S
C751 H765 0.958 . S
C751 H766 0.961 . S
C751 H767 0.960 . S
H752 C736 0.931 . S
H753 C741 0.929 1_655 S
H754 C742 0.960 . S
H755 C742 0.962 . S
H756 C742 0.960 . S
H757 C743 0.961 . S
H758 C743 0.961 . S
H759 C743 0.961 . S
H760 C744 0.931 . S
H761 C749 0.930 . S
H762 C750 0.956 . S
H763 C750 0.961 . S
H764 C750 0.961 . S
H765 C751 0.958 . S
H766 C751 0.961 . S
H767 C751 0.960 . S
C768 C769 1.391 . S
C768 C770 1.394 . S
C768 H784 0.931 . S
C769 C768 1.391 . S
C769 C773 1.376 . S
C770 C768 1.394 . S
C770 C771 1.369 . S
C770 C774 1.531 . S
C771 C770 1.369 . S
C771 C772 1.410 . S
C771 C779 1.503 . S
C772 C771 1.410 . S
C772 C773 1.392 . S
C772 C775 1.511 . S
C773 C769 1.376 . S
C773 C772 1.392 . S
C773 H785 0.929 . S
C774 C770 1.531 . S
C774 H786 0.960 . S
C774 H787 0.962 . S
C774 H788 0.960 . S
C775 C772 1.511 . S
C775 H789 0.961 . S
C775 H790 0.961 . S
C775 H791 0.961 . S
C776 C777 1.370 . S
C776 C778 1.363 . S
C776 H792 0.931 . S
C777 C776 1.370 . S
C777 C781 1.408 . S
C778 C776 1.363 . S
C778 C779 1.370 . S
C778 C782 1.524 . S
C779 C771 1.503 . S
C779 C778 1.370 . S
C779 C780 1.403 . S
C780 C779 1.403 . S
C780 C781 1.404 . S
C780 C783 1.539 . S
C781 C777 1.408 . S
C781 C780 1.404 . S
C781 H793 0.930 . S
C782 C778 1.524 . S
C782 H794 0.956 . S
C782 H795 0.961 . S
C782 H796 0.961 . S
C783 C780 1.539 . S
C783 H797 0.958 . S
C783 H798 0.961 . S
C783 H799 0.960 . S
H784 C768 0.931 . S
H785 C773 0.929 . S
H786 C774 0.960 . S
H787 C774 0.962 . S
H788 C774 0.960 . S
H789 C775 0.961 . S
H790 C775 0.961 . S
H791 C775 0.961 . S
H792 C776 0.931 . S
H793 C781 0.930 . S
H794 C782 0.956 . S
H795 C782 0.961 . S
H796 C782 0.961 . S
H797 C783 0.958 . S
H798 C783 0.961 . S
H799 C783 0.960 . S
C800 C801 1.391 . S
C800 C802 1.394 . S
C800 H816 0.931 . S
C801 C800 1.391 . S
C801 C805 1.376 . S
C802 C800 1.394 . S
C802 C803 1.369 . S
C802 C806 1.531 . S
C803 C802 1.369 . S
C803 C804 1.410 . S
C803 C811 1.503 . S
C804 C803 1.410 . S
C804 C805 1.392 . S
C804 C807 1.511 . S
C805 C801 1.376 . S
C805 C804 1.392 . S
C805 H817 0.929 . S
C806 C802 1.531 . S
C806 H818 0.960 . S
C806 H819 0.962 . S
C806 H820 0.960 . S
C807 C804 1.511 . S
C807 H821 0.961 . S
C807 H822 0.961 . S
C807 H823 0.961 . S
C808 C809 1.370 . S
C808 C810 1.363 . S
C808 H824 0.931 . S
C809 C808 1.370 . S
C809 C813 1.408 . S
C810 C808 1.363 . S
C810 C811 1.370 . S
C810 C814 1.524 . S
C811 C803 1.503 . S
C811 C810 1.370 . S
C811 C812 1.403 . S
C812 C811 1.403 . S
C812 C813 1.404 . S
C812 C815 1.539 . S
C813 C809 1.408 . S
C813 C812 1.404 . S
C813 H825 0.930 . S
C814 C810 1.524 . S
C814 H826 0.956 . S
C814 H827 0.961 . S
C814 H828 0.961 . S
C815 C812 1.539 . S
C815 H829 0.958 . S
C815 H830 0.961 . S
C815 H831 0.960 . S
H816 C800 0.931 . S
H817 C805 0.929 . S
H818 C806 0.960 . S
H819 C806 0.962 . S
H820 C806 0.960 . S
H821 C807 0.961 . S
H822 C807 0.961 . S
H823 C807 0.961 . S
H824 C808 0.931 . S
H825 C813 0.930 . S
H826 C814 0.956 . S
H827 C814 0.961 . S
H828 C814 0.961 . S
H829 C815 0.958 . S
H830 C815 0.961 . S
H831 C815 0.960 . S
C832 C833 1.391 . S
C832 C834 1.394 . S
C832 H848 0.931 . S
C833 C832 1.391 . S
C833 C837 1.376 . S
C834 C832 1.394 . S
C834 C835 1.369 . S
C834 C838 1.531 . S
C835 C834 1.369 . S
C835 C836 1.410 . S
C835 C843 1.503 1_455 S
C836 C835 1.410 . S
C836 C837 1.392 . S
C836 C839 1.511 . S
C837 C833 1.376 . S
C837 C836 1.392 . S
C837 H849 0.929 . S
C838 C834 1.531 . S
C838 H850 0.960 . S
C838 H851 0.962 . S
C838 H852 0.960 . S
C839 C836 1.511 . S
C839 H853 0.961 . S
C839 H854 0.961 1_455 S
C839 H855 0.961 . S
C840 C841 1.370 . S
C840 C842 1.363 . S
C840 H856 0.931 . S
C841 C840 1.370 . S
C841 C845 1.408 . S
C842 C840 1.363 . S
C842 C843 1.370 . S
C842 C846 1.524 . S
C843 C835 1.503 1_655 S
C843 C842 1.370 . S
C843 C844 1.403 . S
C844 C843 1.403 . S
C844 C845 1.404 . S
C844 C847 1.539 1_655 S
C845 C841 1.408 . S
C845 C844 1.404 . S
C845 H857 0.930 . S
C846 C842 1.524 . S
C846 H858 0.956 . S
C846 H859 0.961 . S
C846 H860 0.961 . S
C847 C844 1.539 1_455 S
C847 H861 0.958 . S
C847 H862 0.961 . S
C847 H863 0.960 . S
H848 C832 0.931 . S
H849 C837 0.929 . S
H850 C838 0.960 . S
H851 C838 0.962 . S
H852 C838 0.960 . S
H853 C839 0.961 . S
H854 C839 0.961 1_655 S
H855 C839 0.961 . S
H856 C840 0.931 . S
H857 C845 0.930 . S
H858 C846 0.956 . S
H859 C846 0.961 . S
H860 C846 0.961 . S
H861 C847 0.958 . S
H862 C847 0.961 . S
H863 C847 0.960 . S
C864 C865 1.391 . S
C864 C866 1.394 . S
C864 H880 0.931 . S
C865 C864 1.391 . S
C865 C869 1.376 . S
C866 C864 1.394 . S
C866 C867 1.369 . S
C866 C870 1.531 . S
C867 C866 1.369 . S
C867 C868 1.410 . S
C867 C875 1.503 1_455 S
C868 C867 1.410 . S
C868 C869 1.392 . S
C868 C871 1.511 . S
C869 C865 1.376 . S
C869 C868 1.392 . S
C869 H881 0.929 . S
C870 C866 1.531 . S
C870 H882 0.960 . S
C870 H883 0.962 1_455 S
C870 H884 0.960 . S
C871 C868 1.511 . S
C871 H885 0.961 . S
C871 H886 0.961 1_455 S
C871 H887 0.961 . S
C872 C873 1.370 . S
C872 C874 1.363 . S
C872 H888 0.931 . S
C873 C872 1.370 . S
C873 C877 1.408 . S
C874 C872 1.363 . S
C874 C875 1.370 . S
C874 C878 1.524 . S
C875 C867 1.503 1_655 S
C875 C874 1.370 . S
C875 C876 1.403 1_655 S
C876 C875 1.403 1_455 S
C876 C877 1.404 1_455 S
C876 C879 1.539 . S
C877 C873 1.408 . S
C877 C876 1.404 1_655 S
C877 H889 0.930 1_655 S
C878 C874 1.524 . S
C878 H890 0.956 . S
C878 H891 0.961 . S
C878 H892 0.961 . S
C879 C876 1.539 . S
C879 H893 0.958 . S
C879 H894 0.961 . S
C879 H895 0.960 . S
H880 C864 0.931 . S
H881 C869 0.929 . S
H882 C870 0.960 . S
H883 C870 0.962 1_655 S
H884 C870 0.960 . S
H885 C871 0.961 . S
H886 C871 0.961 1_655 S
H887 C871 0.961 . S
H888 C872 0.931 . S
H889 C877 0.930 1_455 S
H890 C878 0.956 . S
H891 C878 0.961 . S
H892 C878 0.961 . S
H893 C879 0.958 . S
H894 C879 0.961 . S
H895 C879 0.960 . S
C896 C897 1.391 1_556 S
C896 C898 1.394 . S
C896 H912 0.931 . S
C897 C896 1.391 1_554 S
C897 C901 1.369 1_565 S
C898 C896 1.394 . S
C898 C899 1.369 1_566 S
C898 C902 1.531 . S
C899 C898 1.369 1_544 S
C899 C900 1.410 . S
C899 C907 1.503 1_554 S
C900 C899 1.410 . S
C900 C901 1.398 . S
C900 C903 1.511 . S
C901 C897 1.369 1_545 S
C901 C900 1.398 . S
C901 H913 0.931 . S
C902 C898 1.531 . S
C902 H914 0.960 1_565 S
C902 H915 0.962 . S
C902 H916 0.960 1_565 S
C903 C900 1.511 . S
C903 H917 0.961 . S
C903 H918 0.961 . S
C903 H919 0.961 . S
C904 C905 1.370 1_565 S
C904 C906 1.363 . S
C904 H920 0.931 . S
C905 C904 1.370 1_545 S
C905 C909 1.408 . S
C906 C904 1.363 . S
C906 C907 1.370 1_565 S
C906 C910 1.524 1_556 S
C907 C899 1.503 1_556 S
C907 C906 1.370 1_545 S
C907 C908 1.403 . S
C908 C907 1.403 . S
C908 C909 1.404 . S
C908 C911 1.539 . S
C909 C905 1.408 . S
C909 C908 1.404 . S
C909 H921 0.930 . S
C910 C906 1.524 1_554 S
C910 H922 0.956 1_554 S
C910 H923 0.961 . S
C910 H924 0.961 . S
C911 C908 1.539 . S
C911 H925 0.958 . S
C911 H926 0.961 . S
C911 H927 0.960 1_556 S
H912 C896 0.931 . S
H913 C901 0.931 . S
H914 C902 0.960 1_545 S
H915 C902 0.962 . S
H916 C902 0.960 1_545 S
H917 C903 0.961 . S
H918 C903 0.961 . S
H919 C903 0.961 . S
H920 C904 0.931 . S
H921 C909 0.930 . S
H922 C910 0.956 1_556 S
H923 C910 0.961 . S
H924 C910 0.961 . S
H925 C911 0.958 . S
H926 C911 0.961 . S
H927 C911 0.960 1_554 S
C928 C929 1.391 . S
C928 C930 1.394 . S
C928 H944 0.931 . S
C929 C928 1.391 . S
C929 C933 1.376 . S
C930 C928 1.394 . S
C930 C931 1.369 . S
C930 C934 1.531 . S
C931 C930 1.369 . S
C931 C932 1.410 . S
C931 C939 1.503 . S
C932 C931 1.410 . S
C932 C933 1.392 . S
C932 C935 1.511 . S
C933 C929 1.376 . S
C933 C932 1.392 . S
C933 H945 0.929 . S
C934 C930 1.531 . S
C934 H946 0.960 . S
C934 H947 0.962 . S
C934 H948 0.960 . S
C935 C932 1.511 . S
C935 H949 0.961 . S
C935 H950 0.961 . S
C935 H951 0.961 . S
C936 C937 1.370 . S
C936 C938 1.363 . S
C936 H952 0.931 . S
C937 C936 1.370 . S
C937 C941 1.408 . S
C938 C936 1.363 . S
C938 C939 1.370 . S
C938 C942 1.524 . S
C939 C931 1.503 . S
C939 C938 1.370 . S
C939 C940 1.403 . S
C940 C939 1.403 . S
C940 C941 1.404 . S
C940 C943 1.539 . S
C941 C937 1.408 . S
C941 C940 1.404 . S
C941 H953 0.930 . S
C942 C938 1.524 . S
C942 H954 0.956 . S
C942 H955 0.961 . S
C942 H956 0.961 . S
C943 C940 1.539 . S
C943 H957 0.958 . S
C943 H958 0.961 . S
C943 H959 0.960 . S
H944 C928 0.931 . S
H945 C933 0.929 . S
H946 C934 0.960 . S
H947 C934 0.962 . S
H948 C934 0.960 . S
H949 C935 0.961 . S
H950 C935 0.961 . S
H951 C935 0.961 . S
H952 C936 0.931 . S
H953 C941 0.930 . S
H954 C942 0.956 . S
H955 C942 0.961 . S
H956 C942 0.961 . S
H957 C943 0.958 . S
H958 C943 0.961 . S
H959 C943 0.960 . S
C960 C961 1.391 . S
C960 C962 1.394 . S
C960 H976 0.931 . S
C961 C960 1.391 . S
C961 C965 1.376 1_545 S
C962 C960 1.394 . S
C962 C963 1.369 . S
C962 C966 1.531 . S
C963 C962 1.369 . S
C963 C964 1.410 1_545 S
C963 C971 1.504 1_445 S
C964 C963 1.410 1_565 S
C964 C965 1.392 . S
C964 C967 1.511 . S
C965 C961 1.376 1_565 S
C965 C964 1.392 . S
C965 H977 0.929 . S
C966 C962 1.531 . S
C966 H978 0.960 1_455 S
C966 H979 0.962 1_455 S
C966 H980 0.960 . S
C967 C964 1.511 . S
C967 H981 0.961 . S
C967 H982 0.961 . S
C967 H983 0.961 . S
C968 C969 1.370 . S
C968 C970 1.363 . S
C968 H984 0.931 . S
C969 C968 1.370 . S
C969 C973 1.408 1_565 S
C970 C968 1.363 . S
C970 C971 1.370 . S
C970 C974 1.524 . S
C971 C963 1.504 1_665 S
C971 C970 1.370 . S
C971 C972 1.403 1_565 S
C972 C971 1.403 1_545 S
C972 C973 1.404 . S
C972 C975 1.539 . S
C973 C969 1.408 1_545 S
C973 C972 1.404 . S
C973 H985 0.930 . S
C974 C970 1.524 . S
C974 H986 0.956 . S
C974 H987 0.961 . S
C974 H988 0.961 . S
C975 C972 1.539 . S
C975 H989 0.958 . S
C975 H990 0.961 . S
C975 H991 0.960 1_655 S
H976 C960 0.931 . S
H977 C965 0.929 . S
H978 C966 0.960 1_655 S
H979 C966 0.962 1_655 S
H980 C966 0.960 . S
H981 C967 0.961 . S
H982 C967 0.961 . S
H983 C967 0.961 . S
H984 C968 0.931 . S
H985 C973 0.930 . S
H986 C974 0.956 . S
H987 C974 0.961 . S
H988 C974 0.961 . S
H989 C975 0.958 . S
H990 C975 0.961 . S
H991 C975 0.960 1_455 S
C992 C993 1.391 . S
C992 C994 1.394 . S
C992 H1008 0.931 . S
C993 C992 1.391 . S
C993 C997 1.376 . S
C994 C992 1.394 . S
C994 C995 1.369 . S
C994 C998 1.531 . S
C995 C994 1.369 . S
C995 C996 1.410 . S
C995 C1003 1.503 . S
C996 C995 1.410 . S
C996 C997 1.392 . S
C996 C999 1.511 . S
C997 C993 1.376 . S
C997 C996 1.392 . S
C997 H1009 0.929 . S
C998 C994 1.531 . S
C998 H1010 0.960 . S
C998 H1011 0.962 . S
C998 H1012 0.960 . S
C999 C996 1.511 . S
C999 H1013 0.961 . S
C999 H1014 0.961 . S
C999 H1015 0.961 . S
C1000 C1001 1.370 . S
C1000 C1002 1.363 . S
C1000 H1016 0.931 . S
C1001 C1000 1.370 . S
C1001 C1005 1.408 . S
C1002 C1000 1.363 . S
C1002 C1003 1.370 . S
C1002 C1006 1.524 . S
C1003 C995 1.503 . S
C1003 C1002 1.370 . S
C1003 C1004 1.403 . S
C1004 C1003 1.403 . S
C1004 C1005 1.404 . S
C1004 C1007 1.539 . S
C1005 C1001 1.408 . S
C1005 C1004 1.404 . S
C1005 H1017 0.930 . S
C1006 C1002 1.524 . S
C1006 H1018 0.956 . S
C1006 H1019 0.961 . S
C1006 H1020 0.961 . S
C1007 C1004 1.539 . S
C1007 H1021 0.958 . S
C1007 H1022 0.961 . S
C1007 H1023 0.960 . S
H1008 C992 0.931 . S
H1009 C997 0.929 . S
H1010 C998 0.960 . S
H1011 C998 0.962 . S
H1012 C998 0.960 . S
H1013 C999 0.961 . S
H1014 C999 0.961 . S
H1015 C999 0.961 . S
H1016 C1000 0.931 . S
H1017 C1005 0.930 . S
H1018 C1006 0.956 . S
H1019 C1006 0.961 . S
H1020 C1006 0.961 . S
H1021 C1007 0.958 . S
H1022 C1007 0.961 . S
H1023 C1007 0.960 . S
C1024 C1025 1.391 . S
C1024 C1026 1.394 . S
C1024 H1040 0.931 . S
C1025 C1024 1.391 . S
C1025 C1029 1.376 . S
C1026 C1024 1.394 . S
C1026 C1027 1.369 . S
C1026 C1030 1.531 . S
C1027 C1026 1.369 . S
C1027 C1028 1.410 . S
C1027 C1035 1.503 . S
C1028 C1027 1.410 . S
C1028 C1029 1.392 . S
C1028 C1031 1.511 . S
C1029 C1025 1.376 . S
C1029 C1028 1.392 . S
C1029 H1041 0.929 . S
C1030 C1026 1.531 . S
C1030 H1042 0.960 . S
C1030 H1043 0.962 . S
C1030 H1044 0.960 . S
C1031 C1028 1.511 . S
C1031 H1045 0.961 . S
C1031 H1046 0.961 . S
C1031 H1047 0.961 . S
C1032 C1033 1.370 . S
C1032 C1034 1.363 . S
C1032 H1048 0.931 . S
C1033 C1032 1.370 . S
C1033 C1037 1.408 . S
C1034 C1032 1.363 . S
C1034 C1035 1.370 . S
C1034 C1038 1.524 . S
C1035 C1027 1.503 . S
C1035 C1034 1.370 . S
C1035 C1036 1.403 . S
C1036 C1035 1.403 . S
C1036 C1037 1.404 . S
C1036 C1039 1.539 . S
C1037 C1033 1.408 . S
C1037 C1036 1.404 . S
C1037 H1049 0.930 . S
C1038 C1034 1.524 . S
C1038 H1050 0.956 . S
C1038 H1051 0.961 . S
C1038 H1052 0.961 . S
C1039 C1036 1.539 . S
C1039 H1053 0.958 . S
C1039 H1054 0.961 . S
C1039 H1055 0.960 . S
H1040 C1024 0.931 . S
H1041 C1029 0.929 . S
H1042 C1030 0.960 . S
H1043 C1030 0.962 . S
H1044 C1030 0.960 . S
H1045 C1031 0.961 . S
H1046 C1031 0.961 . S
H1047 C1031 0.961 . S
H1048 C1032 0.931 . S
H1049 C1037 0.930 . S
H1050 C1038 0.956 . S
H1051 C1038 0.961 . S
H1052 C1038 0.961 . S
H1053 C1039 0.958 . S
H1054 C1039 0.961 . S
H1055 C1039 0.960 . S
C1056 C1057 1.391 . S
C1056 C1058 1.394 . S
C1056 H1072 0.931 . S
C1057 C1056 1.391 . S
C1057 C1061 1.376 . S
C1058 C1056 1.394 . S
C1058 C1059 1.369 . S
C1058 C1062 1.531 . S
C1059 C1058 1.369 . S
C1059 C1060 1.410 . S
C1059 C1067 1.503 . S
C1060 C1059 1.410 . S
C1060 C1061 1.392 . S
C1060 C1063 1.511 . S
C1061 C1057 1.376 . S
C1061 C1060 1.392 . S
C1061 H1073 0.929 . S
C1062 C1058 1.531 . S
C1062 H1074 0.960 . S
C1062 H1075 0.962 . S
C1062 H1076 0.960 . S
C1063 C1060 1.511 . S
C1063 H1077 0.961 . S
C1063 H1078 0.961 . S
C1063 H1079 0.961 . S
C1064 C1065 1.370 . S
C1064 C1066 1.363 . S
C1064 H1080 0.931 . S
C1065 C1064 1.370 . S
C1065 C1069 1.408 . S
C1066 C1064 1.363 . S
C1066 C1067 1.370 . S
C1066 C1070 1.524 . S
C1067 C1059 1.503 . S
C1067 C1066 1.370 . S
C1067 C1068 1.403 . S
C1068 C1067 1.403 . S
C1068 C1069 1.404 . S
C1068 C1071 1.539 . S
C1069 C1065 1.408 . S
C1069 C1068 1.404 . S
C1069 H1081 0.930 . S
C1070 C1066 1.524 . S
C1070 H1082 0.956 . S
C1070 H1083 0.961 . S
C1070 H1084 0.961 . S
C1071 C1068 1.539 . S
C1071 H1085 0.958 . S
C1071 H1086 0.961 . S
C1071 H1087 0.960 . S
H1072 C1056 0.931 . S
H1073 C1061 0.929 . S
H1074 C1062 0.960 . S
H1075 C1062 0.962 . S
H1076 C1062 0.960 . S
H1077 C1063 0.961 . S
H1078 C1063 0.961 . S
H1079 C1063 0.961 . S
H1080 C1064 0.931 . S
H1081 C1069 0.930 . S
H1082 C1070 0.956 . S
H1083 C1070 0.961 . S
H1084 C1070 0.961 . S
H1085 C1071 0.958 . S
H1086 C1071 0.961 . S
H1087 C1071 0.960 . S
C1088 C1089 1.391 . S
C1088 C1090 1.394 . S
C1088 H1104 0.931 . S
C1089 C1088 1.391 . S
C1089 C1093 1.376 . S
C1090 C1088 1.394 . S
C1090 C1091 1.369 . S
C1090 C1094 1.531 . S
C1091 C1090 1.369 . S
C1091 C1092 1.410 . S
C1091 C1099 1.503 1_455 S
C1092 C1091 1.410 . S
C1092 C1093 1.392 . S
C1092 C1095 1.511 . S
C1093 C1089 1.376 . S
C1093 C1092 1.392 . S
C1093 H1105 0.929 . S
C1094 C1090 1.531 . S
C1094 H1106 0.960 1_455 S
C1094 H1107 0.962 1_455 S
C1094 H1108 0.960 . S
C1095 C1092 1.511 . S
C1095 H1109 0.961 . S
C1095 H1110 0.961 . S
C1095 H1111 0.961 . S
C1096 C1097 1.370 . S
C1096 C1098 1.363 . S
C1096 H1112 0.931 . S
C1097 C1096 1.370 . S
C1097 C1101 1.408 . S
C1098 C1096 1.363 . S
C1098 C1099 1.370 . S
C1098 C1102 1.524 . S
C1099 C1091 1.503 1_655 S
C1099 C1098 1.370 . S
C1099 C1100 1.403 . S
C1100 C1099 1.403 . S
C1100 C1101 1.404 . S
C1100 C1103 1.539 . S
C1101 C1097 1.408 . S
C1101 C1100 1.404 . S
C1101 H1113 0.930 . S
C1102 C1098 1.524 . S
C1102 H1114 0.953 1_655 S
C1102 H1115 0.961 1_655 S
C1102 H1116 0.961 . S
C1103 C1100 1.539 . S
C1103 H1117 0.958 . S
C1103 H1118 0.961 . S
C1103 H1119 0.960 . S
H1104 C1088 0.931 . S
H1105 C1093 0.929 . S
H1106 C1094 0.960 1_655 S
H1107 C1094 0.962 1_655 S
H1108 C1094 0.960 . S
H1109 C1095 0.961 . S
H1110 C1095 0.961 . S
H1111 C1095 0.961 . S
H1112 C1096 0.931 . S
H1113 C1101 0.930 . S
H1114 C1102 0.953 1_455 S
H1115 C1102 0.961 1_455 S
H1116 C1102 0.961 . S
H1117 C1103 0.958 . S
H1118 C1103 0.961 . S
H1119 C1103 0.960 . S
C1120 C1121 1.391 1_556 S
C1120 C1122 1.394 . S
C1120 H1136 0.931 . S
C1121 C1120 1.391 1_554 S
C1121 C1125 1.376 . S
C1122 C1120 1.394 . S
C1122 C1123 1.369 1_556 S
C1122 C1126 1.531 . S
C1123 C1122 1.369 1_554 S
C1123 C1124 1.410 . S
C1123 C1131 1.503 1_554 S
C1124 C1123 1.410 . S
C1124 C1125 1.392 . S
C1124 C1127 1.511 . S
C1125 C1121 1.376 . S
C1125 C1124 1.392 . S
C1125 H1137 0.929 . S
C1126 C1122 1.531 . S
C1126 H1138 0.960 . S
C1126 H1139 0.962 . S
C1126 H1140 0.960 . S
C1127 C1124 1.511 . S
C1127 H1141 0.961 . S
C1127 H1142 0.961 . S
C1127 H1143 0.961 . S
C1128 C1129 1.370 . S
C1128 C1130 1.363 . S
C1128 H1144 0.931 . S
C1129 C1128 1.370 . S
C1129 C1133 1.408 . S
C1130 C1128 1.363 . S
C1130 C1131 1.370 . S
C1130 C1134 1.524 . S
C1131 C1123 1.503 1_556 S
C1131 C1130 1.370 . S
C1131 C1132 1.403 1_556 S
C1132 C1131 1.403 1_554 S
C1132 C1133 1.404 1_554 S
C1132 C1135 1.539 . S
C1133 C1129 1.408 . S
C1133 C1132 1.404 1_556 S
C1133 H1145 0.937 . S
C1134 C1130 1.524 . S
C1134 H1146 0.956 . S
C1134 H1147 0.993 . S
C1134 H1148 0.961 . S
C1135 C1132 1.539 . S
C1135 H1149 0.958 . S
C1135 H1150 0.961 . S
C1135 H1151 0.960 . S
H1136 C1120 0.931 . S
H1137 C1125 0.929 . S
H1138 C1126 0.960 . S
H1139 C1126 0.962 . S
H1140 C1126 0.960 . S
H1141 C1127 0.961 . S
H1142 C1127 0.961 . S
H1143 C1127 0.961 . S
H1144 C1128 0.931 . S
H1145 C1133 0.937 . S
H1146 C1134 0.956 . S
H1147 C1134 0.993 . S
H1148 C1134 0.961 . S
H1149 C1135 0.958 . S
H1150 C1135 0.961 . S
H1151 C1135 0.960 . S
C1152 C1153 1.391 . S
C1152 C1154 1.394 . S
C1152 H1168 0.931 . S
C1153 C1152 1.391 . S
C1153 C1157 1.376 . S
C1154 C1152 1.394 . S
C1154 C1155 1.369 . S
C1154 C1158 1.531 . S
C1155 C1154 1.369 . S
C1155 C1156 1.410 . S
C1155 C1163 1.503 . S
C1156 C1155 1.410 . S
C1156 C1157 1.392 . S
C1156 C1159 1.511 . S
C1157 C1153 1.376 . S
C1157 C1156 1.392 . S
C1157 H1169 0.929 . S
C1158 C1154 1.531 . S
C1158 H1170 0.960 . S
C1158 H1171 0.962 . S
C1158 H1172 0.960 . S
C1159 C1156 1.511 . S
C1159 H1173 0.961 . S
C1159 H1174 0.961 . S
C1159 H1175 0.961 . S
C1160 C1161 1.370 . S
C1160 C1162 1.363 . S
C1160 H1176 0.931 . S
C1161 C1160 1.370 . S
C1161 C1165 1.408 . S
C1162 C1160 1.363 . S
C1162 C1163 1.370 . S
C1162 C1166 1.524 . S
C1163 C1155 1.503 . S
C1163 C1162 1.370 . S
C1163 C1164 1.403 . S
C1164 C1163 1.403 . S
C1164 C1165 1.404 . S
C1164 C1167 1.539 . S
C1165 C1161 1.408 . S
C1165 C1164 1.404 . S
C1165 H1177 0.930 . S
C1166 C1162 1.524 . S
C1166 H1178 0.956 . S
C1166 H1179 0.961 . S
C1166 H1180 0.961 . S
C1167 C1164 1.539 . S
C1167 H1181 0.958 . S
C1167 H1182 0.961 . S
C1167 H1183 0.960 . S
H1168 C1152 0.931 . S
H1169 C1157 0.929 . S
H1170 C1158 0.960 . S
H1171 C1158 0.962 . S
H1172 C1158 0.960 . S
H1173 C1159 0.961 . S
H1174 C1159 0.961 . S
H1175 C1159 0.961 . S
H1176 C1160 0.931 . S
H1177 C1165 0.930 . S
H1178 C1166 0.956 . S
H1179 C1166 0.961 . S
H1180 C1166 0.961 . S
H1181 C1167 0.958 . S
H1182 C1167 0.961 . S
H1183 C1167 0.960 . S
C1184 C1185 1.391 . S
C1184 C1186 1.394 . S
C1184 H1200 0.931 . S
C1185 C1184 1.391 . S
C1185 C1189 1.376 . S
C1186 C1184 1.394 . S
C1186 C1187 1.369 . S
C1186 C1190 1.531 . S
C1187 C1186 1.369 . S
C1187 C1188 1.410 . S
C1187 C1195 1.503 . S
C1188 C1187 1.410 . S
C1188 C1189 1.392 . S
C1188 C1191 1.511 . S
C1189 C1185 1.376 . S
C1189 C1188 1.392 . S
C1189 H1201 0.929 . S
C1190 C1186 1.531 . S
C1190 H1202 0.960 . S
C1190 H1203 0.962 . S
C1190 H1204 0.960 . S
C1191 C1188 1.511 . S
C1191 H1205 0.961 . S
C1191 H1206 0.961 . S
C1191 H1207 0.961 . S
C1192 C1193 1.370 . S
C1192 C1194 1.363 . S
C1192 H1208 0.931 . S
C1193 C1192 1.370 . S
C1193 C1197 1.408 . S
C1194 C1192 1.363 . S
C1194 C1195 1.370 . S
C1194 C1198 1.524 . S
C1195 C1187 1.503 . S
C1195 C1194 1.370 . S
C1195 C1196 1.403 . S
C1196 C1195 1.403 . S
C1196 C1197 1.404 . S
C1196 C1199 1.539 . S
C1197 C1193 1.408 . S
C1197 C1196 1.404 . S
C1197 H1209 0.930 . S
C1198 C1194 1.524 . S
C1198 H1210 0.956 . S
C1198 H1211 0.961 . S
C1198 H1212 0.961 . S
C1199 C1196 1.539 . S
C1199 H1213 0.958 . S
C1199 H1214 0.961 . S
C1199 H1215 0.960 . S
H1200 C1184 0.931 . S
H1201 C1189 0.929 . S
H1202 C1190 0.960 . S
H1203 C1190 0.962 . S
H1204 C1190 0.960 . S
H1205 C1191 0.961 . S
H1206 C1191 0.961 . S
H1207 C1191 0.961 . S
H1208 C1192 0.931 . S
H1209 C1197 0.930 . S
H1210 C1198 0.956 . S
H1211 C1198 0.961 . S
H1212 C1198 0.961 . S
H1213 C1199 0.958 . S
H1214 C1199 0.961 . S
H1215 C1199 0.960 . S
C1216 C1217 1.391 . S
C1216 C1218 1.394 . S
C1216 H1232 0.931 . S
C1217 C1216 1.391 . S
C1217 C1221 1.376 . S
C1218 C1216 1.394 . S
C1218 C1219 1.369 . S
C1218 C1222 1.531 . S
C1219 C1218 1.369 . S
C1219 C1220 1.410 . S
C1219 C1227 1.503 . S
C1220 C1219 1.410 . S
C1220 C1221 1.392 . S
C1220 C1223 1.511 . S
C1221 C1217 1.376 . S
C1221 C1220 1.392 . S
C1221 H1233 0.929 . S
C1222 C1218 1.531 . S
C1222 H1234 0.960 . S
C1222 H1235 0.962 . S
C1222 H1236 0.960 . S
C1223 C1220 1.511 . S
C1223 H1237 0.961 . S
C1223 H1238 0.961 . S
C1223 H1239 0.961 . S
C1224 C1225 1.370 . S
C1224 C1226 1.363 . S
C1224 H1240 0.931 . S
C1225 C1224 1.370 . S
C1225 C1229 1.408 . S
C1226 C1224 1.363 . S
C1226 C1227 1.370 . S
C1226 C1230 1.524 . S
C1227 C1219 1.503 . S
C1227 C1226 1.370 . S
C1227 C1228 1.403 . S
C1228 C1227 1.403 . S
C1228 C1229 1.404 . S
C1228 C1231 1.539 . S
C1229 C1225 1.408 . S
C1229 C1228 1.404 . S
C1229 H1241 0.930 . S
C1230 C1226 1.524 . S
C1230 H1242 0.956 . S
C1230 H1243 0.961 . S
C1230 H1244 0.961 . S
C1231 C1228 1.539 . S
C1231 H1245 0.958 . S
C1231 H1246 0.961 . S
C1231 H1247 0.960 . S
H1232 C1216 0.931 . S
H1233 C1221 0.929 . S
H1234 C1222 0.960 . S
H1235 C1222 0.962 . S
H1236 C1222 0.960 . S
H1237 C1223 0.961 . S
H1238 C1223 0.961 . S
H1239 C1223 0.961 . S
H1240 C1224 0.931 . S
H1241 C1229 0.930 . S
H1242 C1230 0.956 . S
H1243 C1230 0.961 . S
H1244 C1230 0.961 . S
H1245 C1231 0.958 . S
H1246 C1231 0.961 . S
H1247 C1231 0.960 . S
C1248 C1249 1.391 . S
C1248 C1250 1.394 . S
C1248 H1264 0.931 . S
C1249 C1248 1.391 . S
C1249 C1253 1.376 . S
C1250 C1248 1.394 . S
C1250 C1251 1.369 . S
C1250 C1254 1.531 . S
C1251 C1250 1.369 . S
C1251 C1252 1.410 . S
C1251 C1259 1.503 . S
C1252 C1251 1.410 . S
C1252 C1253 1.392 . S
C1252 C1255 1.511 . S
C1253 C1249 1.376 . S
C1253 C1252 1.392 . S
C1253 H1265 0.929 . S
C1254 C1250 1.531 . S
C1254 H1266 0.960 . S
C1254 H1267 0.962 . S
C1254 H1268 0.960 . S
C1255 C1252 1.511 . S
C1255 H1269 0.961 . S
C1255 H1270 0.961 . S
C1255 H1271 0.961 . S
C1256 C1257 1.370 . S
C1256 C1258 1.363 . S
C1256 H1272 0.931 . S
C1257 C1256 1.370 . S
C1257 C1261 1.408 . S
C1258 C1256 1.363 . S
C1258 C1259 1.370 . S
C1258 C1262 1.524 . S
C1259 C1251 1.503 . S
C1259 C1258 1.370 . S
C1259 C1260 1.403 . S
C1260 C1259 1.403 . S
C1260 C1261 1.404 . S
C1260 C1263 1.539 . S
C1261 C1257 1.408 . S
C1261 C1260 1.404 . S
C1261 H1273 0.930 . S
C1262 C1258 1.524 . S
C1262 H1274 0.956 . S
C1262 H1275 0.961 . S
C1262 H1276 0.961 . S
C1263 C1260 1.539 . S
C1263 H1277 0.958 . S
C1263 H1278 0.961 . S
C1263 H1279 0.960 . S
H1264 C1248 0.931 . S
H1265 C1253 0.929 . S
H1266 C1254 0.960 . S
H1267 C1254 0.962 . S
H1268 C1254 0.960 . S
H1269 C1255 0.961 . S
H1270 C1255 0.961 . S
H1271 C1255 0.961 . S
H1272 C1256 0.931 . S
H1273 C1261 0.930 . S
H1274 C1262 0.956 . S
H1275 C1262 0.961 . S
H1276 C1262 0.961 . S
H1277 C1263 0.958 . S
H1278 C1263 0.961 . S
H1279 C1263 0.960 . S
C1280 C1281 1.391 . S
C1280 C1282 1.394 . S
C1280 H1296 0.931 . S
C1281 C1280 1.391 . S
C1281 C1285 1.376 . S
C1282 C1280 1.394 . S
C1282 C1283 1.369 . S
C1282 C1286 1.531 . S
C1283 C1282 1.369 . S
C1283 C1284 1.410 . S
C1283 C1291 1.503 . S
C1284 C1283 1.410 . S
C1284 C1285 1.392 . S
C1284 C1287 1.511 . S
C1285 C1281 1.376 . S
C1285 C1284 1.392 . S
C1285 H1297 0.929 . S
C1286 C1282 1.531 . S
C1286 H1298 0.960 . S
C1286 H1299 0.962 . S
C1286 H1300 0.960 . S
C1287 C1284 1.511 . S
C1287 H1301 0.961 . S
C1287 H1302 0.961 . S
C1287 H1303 0.961 . S
C1288 C1289 1.370 . S
C1288 C1290 1.363 . S
C1288 H1304 0.931 . S
C1289 C1288 1.370 . S
C1289 C1293 1.408 . S
C1290 C1288 1.363 . S
C1290 C1291 1.370 . S
C1290 C1294 1.524 . S
C1291 C1283 1.503 . S
C1291 C1290 1.370 . S
C1291 C1292 1.403 . S
C1292 C1291 1.403 . S
C1292 C1293 1.404 . S
C1292 C1295 1.539 . S
C1293 C1289 1.408 . S
C1293 C1292 1.404 . S
C1293 H1305 0.930 . S
C1294 C1290 1.524 . S
C1294 H1306 0.956 . S
C1294 H1307 0.961 . S
C1294 H1308 0.961 . S
C1295 C1292 1.539 . S
C1295 H1309 0.958 . S
C1295 H1310 0.961 . S
C1295 H1311 0.960 . S
H1296 C1280 0.931 . S
H1297 C1285 0.929 . S
H1298 C1286 0.960 . S
H1299 C1286 0.962 . S
H1300 C1286 0.960 . S
H1301 C1287 0.961 . S
H1302 C1287 0.961 . S
H1303 C1287 0.961 . S
H1304 C1288 0.931 . S
H1305 C1293 0.930 . S
H1306 C1294 0.956 . S
H1307 C1294 0.961 . S
H1308 C1294 0.961 . S
H1309 C1295 0.958 . S
H1310 C1295 0.961 . S
H1311 C1295 0.960 . S
C1312 C1313 1.391 . S
C1312 C1314 1.394 . S
C1312 H1328 0.931 . S
C1313 C1312 1.391 . S
C1313 C1317 1.376 . S
C1314 C1312 1.394 . S
C1314 C1315 1.369 . S
C1314 C1318 1.531 . S
C1315 C1314 1.369 . S
C1315 C1316 1.410 . S
C1315 C1323 1.503 . S
C1316 C1315 1.410 . S
C1316 C1317 1.392 . S
C1316 C1319 1.511 . S
C1317 C1313 1.376 . S
C1317 C1316 1.392 . S
C1317 H1329 0.929 . S
C1318 C1314 1.531 . S
C1318 H1330 0.960 . S
C1318 H1331 0.962 . S
C1318 H1332 0.960 . S
C1319 C1316 1.511 . S
C1319 H1333 0.961 . S
C1319 H1334 0.961 . S
C1319 H1335 0.961 . S
C1320 C1321 1.370 . S
C1320 C1322 1.363 . S
C1320 H1336 0.931 . S
C1321 C1320 1.370 . S
C1321 C1325 1.408 . S
C1322 C1320 1.363 . S
C1322 C1323 1.370 . S
C1322 C1326 1.524 . S
C1323 C1315 1.503 . S
C1323 C1322 1.370 . S
C1323 C1324 1.403 . S
C1324 C1323 1.403 . S
C1324 C1325 1.404 . S
C1324 C1327 1.539 . S
C1325 C1321 1.408 . S
C1325 C1324 1.404 . S
C1325 H1337 0.930 . S
C1326 C1322 1.524 . S
C1326 H1338 0.956 . S
C1326 H1339 0.961 . S
C1326 H1340 0.961 . S
C1327 C1324 1.539 . S
C1327 H1341 0.958 . S
C1327 H1342 0.961 . S
C1327 H1343 0.960 . S
H1328 C1312 0.931 . S
H1329 C1317 0.929 . S
H1330 C1318 0.960 . S
H1331 C1318 0.962 . S
H1332 C1318 0.960 . S
H1333 C1319 0.961 . S
H1334 C1319 0.961 . S
H1335 C1319 0.961 . S
H1336 C1320 0.931 . S
H1337 C1325 0.930 . S
H1338 C1326 0.956 . S
H1339 C1326 0.961 . S
H1340 C1326 0.961 . S
H1341 C1327 0.958 . S
H1342 C1327 0.961 . S
H1343 C1327 0.960 . S
C1344 C1345 1.391 . S
C1344 C1346 1.394 . S
C1344 H1360 0.931 . S
C1345 C1344 1.391 . S
C1345 C1349 1.376 . S
C1346 C1344 1.394 . S
C1346 C1347 1.369 . S
C1346 C1350 1.531 . S
C1347 C1346 1.369 . S
C1347 C1348 1.410 . S
C1347 C1355 1.503 . S
C1348 C1347 1.410 . S
C1348 C1349 1.392 . S
C1348 C1351 1.511 . S
C1349 C1345 1.376 . S
C1349 C1348 1.392 . S
C1349 H1361 0.929 . S
C1350 C1346 1.531 . S
C1350 H1362 0.960 . S
C1350 H1363 0.962 . S
C1350 H1364 0.960 . S
C1351 C1348 1.511 . S
C1351 H1365 0.961 . S
C1351 H1366 0.961 . S
C1351 H1367 0.961 . S
C1352 C1353 1.370 . S
C1352 C1354 1.363 . S
C1352 H1368 0.931 . S
C1353 C1352 1.370 . S
C1353 C1357 1.408 . S
C1354 C1352 1.363 . S
C1354 C1355 1.370 . S
C1354 C1358 1.524 . S
C1355 C1347 1.503 . S
C1355 C1354 1.370 . S
C1355 C1356 1.403 . S
C1356 C1355 1.403 . S
C1356 C1357 1.404 . S
C1356 C1359 1.539 . S
C1357 C1353 1.408 . S
C1357 C1356 1.404 . S
C1357 H1369 0.930 . S
C1358 C1354 1.524 . S
C1358 H1370 0.956 . S
C1358 H1371 0.961 . S
C1358 H1372 0.961 . S
C1359 C1356 1.539 . S
C1359 H1373 0.958 . S
C1359 H1374 0.961 . S
C1359 H1375 0.960 . S
H1360 C1344 0.931 . S
H1361 C1349 0.929 . S
H1362 C1350 0.960 . S
H1363 C1350 0.962 . S
H1364 C1350 0.960 . S
H1365 C1351 0.961 . S
H1366 C1351 0.961 . S
H1367 C1351 0.961 . S
H1368 C1352 0.931 . S
H1369 C1357 0.930 . S
H1370 C1358 0.956 . S
H1371 C1358 0.961 . S
H1372 C1358 0.961 . S
H1373 C1359 0.958 . S
H1374 C1359 0.961 . S
H1375 C1359 0.960 . S
C1376 C1377 1.391 . S
C1376 C1378 1.394 . S
C1376 H1392 0.931 . S
C1377 C1376 1.391 . S
C1377 C1381 1.376 . S
C1378 C1376 1.394 . S
C1378 C1379 1.369 . S
C1378 C1382 1.531 . S
C1379 C1378 1.369 . S
C1379 C1380 1.410 . S
C1379 C1387 1.503 . S
C1380 C1379 1.410 . S
C1380 C1381 1.392 . S
C1380 C1383 1.511 . S
C1381 C1377 1.376 . S
C1381 C1380 1.392 . S
C1381 H1393 0.929 . S
C1382 C1378 1.531 . S
C1382 H1394 0.960 . S
C1382 H1395 0.962 . S
C1382 H1396 0.960 . S
C1383 C1380 1.511 . S
C1383 H1397 0.961 . S
C1383 H1398 0.961 . S
C1383 H1399 0.961 . S
C1384 C1385 1.370 . S
C1384 C1386 1.363 . S
C1384 H1400 0.931 . S
C1385 C1384 1.370 . S
C1385 C1389 1.408 . S
C1386 C1384 1.363 . S
C1386 C1387 1.370 . S
C1386 C1390 1.524 . S
C1387 C1379 1.503 . S
C1387 C1386 1.370 . S
C1387 C1388 1.403 . S
C1388 C1387 1.403 . S
C1388 C1389 1.404 . S
C1388 C1391 1.539 . S
C1389 C1385 1.408 . S
C1389 C1388 1.404 . S
C1389 H1401 0.930 . S
C1390 C1386 1.524 . S
C1390 H1402 0.956 . S
C1390 H1403 0.961 . S
C1390 H1404 0.961 . S
C1391 C1388 1.539 . S
C1391 H1405 0.958 . S
C1391 H1406 0.961 . S
C1391 H1407 0.960 . S
H1392 C1376 0.931 . S
H1393 C1381 0.929 . S
H1394 C1382 0.960 . S
H1395 C1382 0.962 . S
H1396 C1382 0.960 . S
H1397 C1383 0.961 . S
H1398 C1383 0.961 . S
H1399 C1383 0.961 . S
H1400 C1384 0.931 . S
H1401 C1389 0.930 . S
H1402 C1390 0.956 . S
H1403 C1390 0.961 . S
H1404 C1390 0.961 . S
H1405 C1391 0.958 . S
H1406 C1391 0.961 . S
H1407 C1391 0.960 . S
C1408 C1409 1.391 . S
C1408 C1410 1.394 . S
C1408 H1424 0.931 . S
C1409 C1408 1.391 . S
C1409 C1413 1.376 . S
C1410 C1408 1.394 . S
C1410 C1411 1.369 . S
C1410 C1414 1.531 . S
C1411 C1410 1.369 . S
C1411 C1412 1.410 . S
C1411 C1419 1.503 . S
C1412 C1411 1.410 . S
C1412 C1413 1.392 . S
C1412 C1415 1.511 . S
C1413 C1409 1.376 . S
C1413 C1412 1.392 . S
C1413 H1425 0.929 . S
C1414 C1410 1.531 . S
C1414 H1426 0.960 . S
C1414 H1427 0.962 . S
C1414 H1428 0.960 . S
C1415 C1412 1.511 . S
C1415 H1429 0.961 . S
C1415 H1430 0.961 . S
C1415 H1431 0.961 . S
C1416 C1417 1.370 . S
C1416 C1418 1.363 . S
C1416 H1432 0.931 . S
C1417 C1416 1.370 . S
C1417 C1421 1.408 . S
C1418 C1416 1.363 . S
C1418 C1419 1.370 . S
C1418 C1422 1.524 . S
C1419 C1411 1.503 . S
C1419 C1418 1.370 . S
C1419 C1420 1.403 . S
C1420 C1419 1.403 . S
C1420 C1421 1.404 . S
C1420 C1423 1.539 . S
C1421 C1417 1.408 . S
C1421 C1420 1.404 . S
C1421 H1433 0.930 . S
C1422 C1418 1.524 . S
C1422 H1434 0.956 . S
C1422 H1435 0.961 . S
C1422 H1436 0.961 . S
C1423 C1420 1.539 . S
C1423 H1437 0.958 . S
C1423 H1438 0.961 . S
C1423 H1439 0.960 . S
H1424 C1408 0.931 . S
H1425 C1413 0.929 . S
H1426 C1414 0.960 . S
H1427 C1414 0.962 . S
H1428 C1414 0.960 . S
H1429 C1415 0.961 . S
H1430 C1415 0.961 . S
H1431 C1415 0.961 . S
H1432 C1416 0.931 . S
H1433 C1421 0.930 . S
H1434 C1422 0.956 . S
H1435 C1422 0.961 . S
H1436 C1422 0.961 . S
H1437 C1423 0.958 . S
H1438 C1423 0.961 . S
H1439 C1423 0.960 . S
C1440 C1441 1.391 . S
C1440 C1442 1.394 . S
C1440 H1456 0.931 . S
C1441 C1440 1.391 . S
C1441 C1445 1.376 . S
C1442 C1440 1.394 . S
C1442 C1443 1.369 . S
C1442 C1446 1.531 . S
C1443 C1442 1.369 . S
C1443 C1444 1.410 . S
C1443 C1451 1.503 . S
C1444 C1443 1.410 . S
C1444 C1445 1.392 . S
C1444 C1447 1.511 . S
C1445 C1441 1.376 . S
C1445 C1444 1.392 . S
C1445 H1457 0.929 . S
C1446 C1442 1.531 . S
C1446 H1458 0.960 . S
C1446 H1459 0.962 . S
C1446 H1460 0.960 . S
C1447 C1444 1.511 . S
C1447 H1461 0.961 . S
C1447 H1462 0.961 . S
C1447 H1463 0.961 . S
C1448 C1449 1.370 . S
C1448 C1450 1.363 . S
C1448 H1464 0.931 . S
C1449 C1448 1.370 . S
C1449 C1453 1.408 . S
C1450 C1448 1.363 . S
C1450 C1451 1.370 . S
C1450 C1454 1.524 . S
C1451 C1443 1.503 . S
C1451 C1450 1.370 . S
C1451 C1452 1.403 . S
C1452 C1451 1.403 . S
C1452 C1453 1.404 . S
C1452 C1455 1.539 . S
C1453 C1449 1.408 . S
C1453 C1452 1.404 . S
C1453 H1465 0.930 . S
C1454 C1450 1.524 . S
C1454 H1466 0.956 . S
C1454 H1467 0.961 . S
C1454 H1468 0.961 . S
C1455 C1452 1.539 . S
C1455 H1469 0.958 . S
C1455 H1470 0.961 1_565 S
C1455 H1471 0.960 . S
H1456 C1440 0.931 . S
H1457 C1445 0.929 . S
H1458 C1446 0.960 . S
H1459 C1446 0.962 . S
H1460 C1446 0.960 . S
H1461 C1447 0.961 . S
H1462 C1447 0.961 . S
H1463 C1447 0.961 . S
H1464 C1448 0.931 . S
H1465 C1453 0.930 . S
H1466 C1454 0.956 . S
H1467 C1454 0.961 . S
H1468 C1454 0.961 . S
H1469 C1455 0.958 . S
H1470 C1455 0.961 1_545 S
H1471 C1455 0.960 . S
C1472 C1473 1.391 . S
C1472 C1474 1.394 . S
C1472 H1488 0.931 . S
C1473 C1472 1.391 . S
C1473 C1477 1.376 . S
C1474 C1472 1.394 . S
C1474 C1475 1.369 . S
C1474 C1478 1.531 . S
C1475 C1474 1.369 . S
C1475 C1476 1.410 . S
C1475 C1483 1.503 . S
C1476 C1475 1.410 . S
C1476 C1477 1.392 . S
C1476 C1479 1.511 . S
C1477 C1473 1.376 . S
C1477 C1476 1.392 . S
C1477 H1489 0.929 . S
C1478 C1474 1.531 . S
C1478 H1490 0.960 . S
C1478 H1491 0.962 . S
C1478 H1492 0.960 . S
C1479 C1476 1.511 . S
C1479 H1493 0.961 . S
C1479 H1494 0.961 . S
C1479 H1495 0.961 . S
C1480 C1481 1.370 . S
C1480 C1482 1.363 . S
C1480 H1496 0.931 . S
C1481 C1480 1.370 . S
C1481 C1485 1.408 . S
C1482 C1480 1.363 . S
C1482 C1483 1.370 . S
C1482 C1486 1.524 . S
C1483 C1475 1.503 . S
C1483 C1482 1.370 . S
C1483 C1484 1.403 . S
C1484 C1483 1.403 . S
C1484 C1485 1.404 . S
C1484 C1487 1.539 . S
C1485 C1481 1.408 . S
C1485 C1484 1.404 . S
C1485 H1497 0.930 . S
C1486 C1482 1.524 . S
C1486 H1498 0.956 . S
C1486 H1499 0.961 . S
C1486 H1500 0.961 . S
C1487 C1484 1.539 . S
C1487 H1501 0.958 . S
C1487 H1502 0.961 . S
C1487 H1503 0.960 . S
H1488 C1472 0.931 . S
H1489 C1477 0.929 . S
H1490 C1478 0.960 . S
H1491 C1478 0.962 . S
H1492 C1478 0.960 . S
H1493 C1479 0.961 . S
H1494 C1479 0.961 . S
H1495 C1479 0.961 . S
H1496 C1480 0.931 . S
H1497 C1485 0.930 . S
H1498 C1486 0.956 . S
H1499 C1486 0.961 . S
H1500 C1486 0.961 . S
H1501 C1487 0.958 . S
H1502 C1487 0.961 . S
H1503 C1487 0.960 . S
C1504 C1505 1.391 . S
C1504 C1506 1.394 . S
C1504 H1520 0.931 . S
C1505 C1504 1.391 . S
C1505 C1509 1.376 . S
C1506 C1504 1.394 . S
C1506 C1507 1.369 . S
C1506 C1510 1.531 . S
C1507 C1506 1.369 . S
C1507 C1508 1.410 . S
C1507 C1515 1.503 . S
C1508 C1507 1.410 . S
C1508 C1509 1.392 . S
C1508 C1511 1.511 . S
C1509 C1505 1.376 . S
C1509 C1508 1.392 . S
C1509 H1521 0.929 . S
C1510 C1506 1.531 . S
C1510 H1522 0.960 . S
C1510 H1523 0.962 . S
C1510 H1524 0.960 . S
C1511 C1508 1.511 . S
C1511 H1525 0.961 . S
C1511 H1526 0.961 . S
C1511 H1527 0.961 . S
C1512 C1513 1.370 . S
C1512 C1514 1.363 . S
C1512 H1528 0.931 . S
C1513 C1512 1.370 . S
C1513 C1517 1.408 . S
C1514 C1512 1.363 . S
C1514 C1515 1.370 . S
C1514 C1518 1.524 . S
C1515 C1507 1.503 . S
C1515 C1514 1.370 . S
C1515 C1516 1.403 . S
C1516 C1515 1.403 . S
C1516 C1517 1.404 . S
C1516 C1519 1.539 . S
C1517 C1513 1.408 . S
C1517 C1516 1.404 . S
C1517 H1529 0.930 1_545 S
C1518 C1514 1.524 . S
C1518 H1530 0.956 . S
C1518 H1531 0.961 . S
C1518 H1532 0.961 . S
C1519 C1516 1.539 . S
C1519 H1533 0.958 . S
C1519 H1534 0.961 1_545 S
C1519 H1535 0.960 . S
H1520 C1504 0.931 . S
H1521 C1509 0.929 . S
H1522 C1510 0.960 . S
H1523 C1510 0.962 . S
H1524 C1510 0.960 . S
H1525 C1511 0.961 . S
H1526 C1511 0.961 . S
H1527 C1511 0.961 . S
H1528 C1512 0.931 . S
H1529 C1517 0.930 1_565 S
H1530 C1518 0.956 . S
H1531 C1518 0.961 . S
H1532 C1518 0.961 . S
H1533 C1519 0.958 . S
H1534 C1519 0.961 1_565 S
H1535 C1519 0.960 . S
C1536 C1537 1.391 . S
C1536 C1538 1.394 . S
C1536 H1552 0.931 . S
C1537 C1536 1.391 . S
C1537 C1541 1.376 . S
C1538 C1536 1.394 . S
C1538 C1539 1.369 . S
C1538 C1542 1.531 . S
C1539 C1538 1.369 . S
C1539 C1540 1.410 . S
C1539 C1547 1.503 . S
C1540 C1539 1.410 . S
C1540 C1541 1.392 . S
C1540 C1543 1.511 . S
C1541 C1537 1.376 . S
C1541 C1540 1.392 . S
C1541 H1553 0.929 . S
C1542 C1538 1.531 . S
C1542 H1554 0.960 . S
C1542 H1555 0.962 . S
C1542 H1556 0.960 . S
C1543 C1540 1.511 . S
C1543 H1557 0.961 . S
C1543 H1558 0.961 . S
C1543 H1559 0.961 . S
C1544 C1545 1.370 . S
C1544 C1546 1.363 . S
C1544 H1560 0.931 . S
C1545 C1544 1.370 . S
C1545 C1549 1.408 . S
C1546 C1544 1.363 . S
C1546 C1547 1.370 . S
C1546 C1550 1.524 . S
C1547 C1539 1.503 . S
C1547 C1546 1.370 . S
C1547 C1548 1.403 . S
C1548 C1547 1.403 . S
C1548 C1549 1.404 . S
C1548 C1551 1.539 . S
C1549 C1545 1.408 . S
C1549 C1548 1.404 . S
C1549 H1561 0.930 . S
C1550 C1546 1.524 . S
C1550 H1562 0.956 . S
C1550 H1563 0.961 . S
C1550 H1564 0.961 . S
C1551 C1548 1.539 . S
C1551 H1565 0.958 . S
C1551 H1566 0.961 . S
C1551 H1567 0.960 . S
H1552 C1536 0.931 . S
H1553 C1541 0.929 . S
H1554 C1542 0.960 . S
H1555 C1542 0.962 . S
H1556 C1542 0.960 . S
H1557 C1543 0.961 . S
H1558 C1543 0.961 . S
H1559 C1543 0.961 . S
H1560 C1544 0.931 . S
H1561 C1549 0.930 . S
H1562 C1550 0.956 . S
H1563 C1550 0.961 . S
H1564 C1550 0.961 . S
H1565 C1551 0.958 . S
H1566 C1551 0.961 . S
H1567 C1551 0.960 . S
C1568 C1569 1.391 . S
C1568 C1570 1.394 . S
C1568 H1584 0.931 . S
C1569 C1568 1.391 . S
C1569 C1573 1.376 . S
C1570 C1568 1.394 . S
C1570 C1571 1.369 . S
C1570 C1574 1.531 . S
C1571 C1570 1.369 . S
C1571 C1572 1.410 . S
C1571 C1579 1.503 . S
C1572 C1571 1.410 . S
C1572 C1573 1.392 . S
C1572 C1575 1.511 . S
C1573 C1569 1.376 . S
C1573 C1572 1.392 . S
C1573 H1585 0.929 . S
C1574 C1570 1.531 . S
C1574 H1586 0.960 . S
C1574 H1587 0.962 . S
C1574 H1588 0.960 . S
C1575 C1572 1.511 . S
C1575 H1589 0.961 . S
C1575 H1590 0.961 . S
C1575 H1591 0.961 . S
C1576 C1577 1.370 . S
C1576 C1578 1.363 . S
C1576 H1592 0.931 . S
C1577 C1576 1.370 . S
C1577 C1581 1.408 . S
C1578 C1576 1.363 . S
C1578 C1579 1.370 . S
C1578 C1582 1.524 . S
C1579 C1571 1.503 . S
C1579 C1578 1.370 . S
C1579 C1580 1.403 . S
C1580 C1579 1.403 . S
C1580 C1581 1.404 . S
C1580 C1583 1.539 . S
C1581 C1577 1.408 . S
C1581 C1580 1.404 . S
C1581 H1593 0.930 . S
C1582 C1578 1.524 . S
C1582 H1594 0.956 . S
C1582 H1595 0.961 . S
C1582 H1596 0.961 . S
C1583 C1580 1.539 . S
C1583 H1597 0.958 . S
C1583 H1598 0.961 . S
C1583 H1599 0.960 . S
H1584 C1568 0.931 . S
H1585 C1573 0.929 . S
H1586 C1574 0.960 . S
H1587 C1574 0.962 . S
H1588 C1574 0.960 . S
H1589 C1575 0.961 . S
H1590 C1575 0.961 . S
H1591 C1575 0.961 . S
H1592 C1576 0.931 . S
H1593 C1581 0.930 . S
H1594 C1582 0.956 . S
H1595 C1582 0.961 . S
H1596 C1582 0.961 . S
H1597 C1583 0.958 . S
H1598 C1583 0.961 . S
H1599 C1583 0.960 . S
C1600 C1601 1.391 . S
C1600 C1602 1.394 . S
C1600 H1616 0.931 . S
C1601 C1600 1.391 . S
C1601 C1605 1.376 . S
C1602 C1600 1.394 . S
C1602 C1603 1.369 . S
C1602 C1606 1.531 . S
C1603 C1602 1.369 . S
C1603 C1604 1.410 . S
C1603 C1611 1.503 . S
C1604 C1603 1.410 . S
C1604 C1605 1.392 . S
C1604 C1607 1.511 . S
C1605 C1601 1.376 . S
C1605 C1604 1.392 . S
C1605 H1617 0.929 . S
C1606 C1602 1.531 . S
C1606 H1618 0.960 . S
C1606 H1619 0.962 . S
C1606 H1620 0.960 . S
C1607 C1604 1.511 . S
C1607 H1621 0.961 . S
C1607 H1622 0.961 . S
C1607 H1623 0.961 . S
C1608 C1609 1.370 . S
C1608 C1610 1.363 . S
C1608 H1624 0.931 . S
C1609 C1608 1.370 . S
C1609 C1613 1.408 . S
C1610 C1608 1.363 . S
C1610 C1611 1.370 . S
C1610 C1614 1.524 . S
C1611 C1603 1.503 . S
C1611 C1610 1.370 . S
C1611 C1612 1.403 . S
C1612 C1611 1.403 . S
C1612 C1613 1.404 . S
C1612 C1615 1.539 . S
C1613 C1609 1.408 . S
C1613 C1612 1.404 . S
C1613 H1625 0.930 . S
C1614 C1610 1.524 . S
C1614 H1626 0.956 . S
C1614 H1627 0.961 . S
C1614 H1628 0.961 . S
C1615 C1612 1.539 . S
C1615 H1629 0.958 . S
C1615 H1630 0.961 . S
C1615 H1631 0.960 . S
H1616 C1600 0.931 . S
H1617 C1605 0.929 . S
H1618 C1606 0.960 . S
H1619 C1606 0.962 . S
H1620 C1606 0.960 . S
H1621 C1607 0.961 . S
H1622 C1607 0.961 . S
H1623 C1607 0.961 . S
H1624 C1608 0.931 . S
H1625 C1613 0.930 . S
H1626 C1614 0.956 . S
H1627 C1614 0.961 . S
H1628 C1614 0.961 . S
H1629 C1615 0.958 . S
H1630 C1615 0.961 . S
H1631 C1615 0.960 . S
C1632 C1633 1.391 . S
C1632 C1634 1.394 . S
C1632 H1648 0.931 . S
C1633 C1632 1.391 . S
C1633 C1637 1.376 . S
C1634 C1632 1.394 . S
C1634 C1635 1.369 . S
C1634 C1638 1.531 . S
C1635 C1634 1.369 . S
C1635 C1636 1.410 . S
C1635 C1643 1.503 . S
C1636 C1635 1.410 . S
C1636 C1637 1.392 . S
C1636 C1639 1.511 . S
C1637 C1633 1.376 . S
C1637 C1636 1.392 . S
C1637 H1649 0.929 . S
C1638 C1634 1.531 . S
C1638 H1650 0.960 . S
C1638 H1651 0.962 . S
C1638 H1652 0.960 . S
C1639 C1636 1.511 . S
C1639 H1653 0.961 . S
C1639 H1654 0.961 . S
C1639 H1655 0.939 1_565 S
C1640 C1641 1.370 . S
C1640 C1642 1.363 . S
C1640 H1656 0.931 . S
C1641 C1640 1.370 . S
C1641 C1645 1.408 . S
C1642 C1640 1.363 . S
C1642 C1643 1.370 . S
C1642 C1646 1.524 . S
C1643 C1635 1.503 . S
C1643 C1642 1.370 . S
C1643 C1644 1.403 . S
C1644 C1643 1.403 . S
C1644 C1645 1.404 . S
C1644 C1647 1.539 . S
C1645 C1641 1.408 . S
C1645 C1644 1.404 . S
C1645 H1657 0.930 . S
C1646 C1642 1.524 . S
C1646 H1658 0.956 . S
C1646 H1659 0.961 . S
C1646 H1660 0.961 . S
C1647 C1644 1.539 . S
C1647 H1661 0.958 . S
C1647 H1662 0.961 . S
C1647 H1663 0.960 . S
H1648 C1632 0.931 . S
H1649 C1637 0.929 . S
H1650 C1638 0.960 . S
H1651 C1638 0.962 . S
H1652 C1638 0.960 . S
H1653 C1639 0.961 . S
H1654 C1639 0.961 . S
H1655 C1639 0.939 1_545 S
H1656 C1640 0.931 . S
H1657 C1645 0.930 . S
H1658 C1646 0.956 . S
H1659 C1646 0.961 . S
H1660 C1646 0.961 . S
H1661 C1647 0.958 . S
H1662 C1647 0.961 . S
H1663 C1647 0.960 . S
C1664 C1665 1.391 1_556 S
C1664 C1666 1.394 . S
C1664 H1680 0.931 . S
C1665 C1664 1.391 1_554 S
C1665 C1669 1.376 . S
C1666 C1664 1.394 . S
C1666 C1667 1.369 . S
C1666 C1670 1.531 . S
C1667 C1666 1.369 . S
C1667 C1668 1.410 . S
C1667 C1675 1.503 . S
C1668 C1667 1.410 . S
C1668 C1669 1.392 1_556 S
C1668 C1671 1.511 . S
C1669 C1665 1.376 . S
C1669 C1668 1.392 1_554 S
C1669 H1681 0.929 . S
C1670 C1666 1.531 . S
C1670 H1682 0.960 . S
C1670 H1683 0.962 . S
C1670 H1684 0.960 . S
C1671 C1668 1.511 . S
C1671 H1685 0.961 1_556 S
C1671 H1686 0.961 . S
C1671 H1687 0.961 . S
C1672 C1673 1.370 . S
C1672 C1674 1.363 . S
C1672 H1688 0.931 . S
C1673 C1672 1.370 . S
C1673 C1677 1.408 . S
C1674 C1672 1.363 . S
C1674 C1675 1.370 . S
C1674 C1678 1.524 . S
C1675 C1667 1.503 . S
C1675 C1674 1.370 . S
C1675 C1676 1.403 . S
C1676 C1675 1.403 . S
C1676 C1677 1.404 . S
C1676 C1679 1.539 . S
C1677 C1673 1.408 . S
C1677 C1676 1.404 . S
C1677 H1689 0.930 . S
C1678 C1674 1.524 . S
C1678 H1690 0.956 . S
C1678 H1691 0.961 . S
C1678 H1692 0.961 . S
C1679 C1676 1.539 . S
C1679 H1693 0.958 . S
C1679 H1694 0.961 . S
C1679 H1695 0.960 . S
H1680 C1664 0.931 . S
H1681 C1669 0.929 . S
H1682 C1670 0.960 . S
H1683 C1670 0.962 . S
H1684 C1670 0.960 . S
H1685 C1671 0.961 1_554 S
H1686 C1671 0.961 . S
H1687 C1671 0.961 . S
H1688 C1672 0.931 . S
H1689 C1677 0.930 . S
H1690 C1678 0.956 . S
H1691 C1678 0.961 . S
H1692 C1678 0.961 . S
H1693 C1679 0.958 . S
H1694 C1679 0.961 . S
H1695 C1679 0.960 . S
C1696 C1697 1.391 . S
C1696 C1698 1.394 . S
C1696 H1712 0.931 . S
C1697 C1696 1.391 . S
C1697 C1701 1.376 . S
C1698 C1696 1.394 . S
C1698 C1699 1.369 . S
C1698 C1702 1.531 . S
C1699 C1698 1.369 . S
C1699 C1700 1.410 . S
C1699 C1707 1.503 . S
C1700 C1699 1.410 . S
C1700 C1701 1.392 . S
C1700 C1703 1.511 . S
C1701 C1697 1.376 . S
C1701 C1700 1.392 . S
C1701 H1713 0.929 . S
C1702 C1698 1.531 . S
C1702 H1714 0.960 . S
C1702 H1715 0.962 . S
C1702 H1716 0.960 . S
C1703 C1700 1.511 . S
C1703 H1717 0.961 . S
C1703 H1718 0.961 . S
C1703 H1719 0.961 . S
C1704 C1705 1.370 . S
C1704 C1706 1.363 . S
C1704 H1720 0.931 . S
C1705 C1704 1.370 . S
C1705 C1709 1.408 . S
C1706 C1704 1.363 . S
C1706 C1707 1.370 . S
C1706 C1710 1.524 . S
C1707 C1699 1.503 . S
C1707 C1706 1.370 . S
C1707 C1708 1.403 . S
C1708 C1707 1.403 . S
C1708 C1709 1.404 . S
C1708 C1711 1.539 . S
C1709 C1705 1.408 . S
C1709 C1708 1.404 . S
C1709 H1721 0.930 . S
C1710 C1706 1.524 . S
C1710 H1722 0.956 . S
C1710 H1723 0.961 . S
C1710 H1724 0.961 . S
C1711 C1708 1.539 . S
C1711 H1725 0.958 . S
C1711 H1726 0.961 . S
C1711 H1727 0.960 . S
H1712 C1696 0.931 . S
H1713 C1701 0.929 . S
H1714 C1702 0.960 . S
H1715 C1702 0.962 . S
H1716 C1702 0.960 . S
H1717 C1703 0.961 . S
H1718 C1703 0.961 . S
H1719 C1703 0.961 . S
H1720 C1704 0.931 . S
H1721 C1709 0.930 . S
H1722 C1710 0.956 . S
H1723 C1710 0.961 . S
H1724 C1710 0.961 . S
H1725 C1711 0.958 . S
H1726 C1711 0.961 . S
H1727 C1711 0.960 . S
C1728 C1729 1.391 . S
C1728 C1730 1.394 . S
C1728 H1744 0.931 . S
C1729 C1728 1.391 . S
C1729 C1733 1.376 . S
C1730 C1728 1.394 . S
C1730 C1731 1.369 . S
C1730 C1734 1.531 . S
C1731 C1730 1.369 . S
C1731 C1732 1.410 . S
C1731 C1739 1.503 . S
C1732 C1731 1.410 . S
C1732 C1733 1.392 . S
C1732 C1735 1.511 . S
C1733 C1729 1.376 . S
C1733 C1732 1.392 . S
C1733 H1745 0.929 . S
C1734 C1730 1.531 . S
C1734 H1746 0.960 . S
C1734 H1747 0.962 . S
C1734 H1748 0.960 . S
C1735 C1732 1.511 . S
C1735 H1749 0.961 . S
C1735 H1750 0.961 . S
C1735 H1751 0.961 . S
C1736 C1737 1.370 . S
C1736 C1738 1.363 . S
C1736 H1752 0.931 . S
C1737 C1736 1.370 . S
C1737 C1741 1.408 . S
C1738 C1736 1.363 . S
C1738 C1739 1.370 . S
C1738 C1742 1.524 . S
C1739 C1731 1.503 . S
C1739 C1738 1.370 . S
C1739 C1740 1.403 . S
C1740 C1739 1.403 . S
C1740 C1741 1.404 . S
C1740 C1743 1.539 . S
C1741 C1737 1.408 . S
C1741 C1740 1.404 . S
C1741 H1753 0.930 . S
C1742 C1738 1.524 . S
C1742 H1754 0.956 . S
C1742 H1755 0.961 . S
C1742 H1756 0.961 . S
C1743 C1740 1.539 . S
C1743 H1757 0.958 . S
C1743 H1758 0.961 . S
C1743 H1759 0.960 . S
H1744 C1728 0.931 . S
H1745 C1733 0.929 . S
H1746 C1734 0.960 . S
H1747 C1734 0.962 . S
H1748 C1734 0.960 . S
H1749 C1735 0.961 . S
H1750 C1735 0.961 . S
H1751 C1735 0.961 . S
H1752 C1736 0.931 . S
H1753 C1741 0.930 . S
H1754 C1742 0.956 . S
H1755 C1742 0.961 . S
H1756 C1742 0.961 . S
H1757 C1743 0.958 . S
H1758 C1743 0.961 . S
H1759 C1743 0.960 . S
C1760 C1761 1.391 . S
C1760 C1762 1.394 . S
C1760 H1776 0.931 . S
C1761 C1760 1.391 . S
C1761 C1765 1.376 . S
C1762 C1760 1.394 . S
C1762 C1763 1.369 . S
C1762 C1766 1.531 . S
C1763 C1762 1.369 . S
C1763 C1764 1.410 . S
C1763 C1771 1.503 . S
C1764 C1763 1.410 . S
C1764 C1765 1.392 . S
C1764 C1767 1.511 . S
C1765 C1761 1.376 . S
C1765 C1764 1.392 . S
C1765 H1777 0.929 . S
C1766 C1762 1.531 . S
C1766 H1778 0.960 . S
C1766 H1779 0.962 . S
C1766 H1780 0.960 . S
C1767 C1764 1.511 . S
C1767 H1781 0.961 . S
C1767 H1782 0.961 . S
C1767 H1783 0.961 . S
C1768 C1769 1.370 . S
C1768 C1770 1.363 . S
C1768 H1784 0.931 . S
C1769 C1768 1.370 . S
C1769 C1773 1.408 . S
C1770 C1768 1.363 . S
C1770 C1771 1.370 . S
C1770 C1774 1.524 . S
C1771 C1763 1.503 . S
C1771 C1770 1.370 . S
C1771 C1772 1.403 . S
C1772 C1771 1.403 . S
C1772 C1773 1.404 . S
C1772 C1775 1.539 . S
C1773 C1769 1.408 . S
C1773 C1772 1.404 . S
C1773 H1785 0.930 . S
C1774 C1770 1.524 . S
C1774 H1786 0.956 . S
C1774 H1787 0.961 . S
C1774 H1788 0.961 . S
C1775 C1772 1.539 . S
C1775 H1789 0.958 . S
C1775 H1790 0.961 . S
C1775 H1791 0.960 . S
H1776 C1760 0.931 . S
H1777 C1765 0.929 . S
H1778 C1766 0.960 . S
H1779 C1766 0.962 . S
H1780 C1766 0.960 . S
H1781 C1767 0.961 . S
H1782 C1767 0.961 . S
H1783 C1767 0.961 . S
H1784 C1768 0.931 . S
H1785 C1773 0.930 . S
H1786 C1774 0.956 . S
H1787 C1774 0.961 . S
H1788 C1774 0.961 . S
H1789 C1775 0.958 . S
H1790 C1775 0.961 . S
H1791 C1775 0.960 . S
C1792 C1793 1.391 . S
C1792 C1794 1.394 . S
C1792 H1808 0.931 . S
C1793 C1792 1.391 . S
C1793 C1797 1.376 . S
C1794 C1792 1.394 . S
C1794 C1795 1.369 . S
C1794 C1798 1.531 . S
C1795 C1794 1.369 . S
C1795 C1796 1.410 . S
C1795 C1803 1.503 . S
C1796 C1795 1.410 . S
C1796 C1797 1.392 . S
C1796 C1799 1.511 . S
C1797 C1793 1.376 . S
C1797 C1796 1.392 . S
C1797 H1809 0.929 . S
C1798 C1794 1.531 . S
C1798 H1810 0.960 . S
C1798 H1811 0.962 . S
C1798 H1812 0.960 . S
C1799 C1796 1.511 . S
C1799 H1813 0.961 . S
C1799 H1814 0.961 . S
C1799 H1815 0.961 . S
C1800 C1801 1.370 1_554 S
C1800 C1802 1.363 . S
C1800 H1816 0.931 . S
C1801 C1800 1.370 1_556 S
C1801 C1805 1.408 . S
C1802 C1800 1.363 . S
C1802 C1803 1.370 . S
C1802 C1806 1.524 . S
C1803 C1795 1.503 . S
C1803 C1802 1.370 . S
C1803 C1804 1.403 . S
C1804 C1803 1.403 . S
C1804 C1805 1.404 1_554 S
C1804 C1807 1.539 . S
C1805 C1801 1.408 . S
C1805 C1804 1.404 1_556 S
C1805 H1817 0.930 . S
C1806 C1802 1.524 . S
C1806 H1818 0.956 . S
C1806 H1819 0.961 . S
C1806 H1820 0.961 . S
C1807 C1804 1.539 . S
C1807 H1821 0.958 . S
C1807 H1822 0.961 1_554 S
C1807 H1823 0.960 . S
H1808 C1792 0.931 . S
H1809 C1797 0.929 . S
H1810 C1798 0.960 . S
H1811 C1798 0.962 . S
H1812 C1798 0.960 . S
H1813 C1799 0.961 . S
H1814 C1799 0.961 . S
H1815 C1799 0.961 . S
H1816 C1800 0.931 . S
H1817 C1805 0.930 . S
H1818 C1806 0.956 . S
H1819 C1806 0.961 . S
H1820 C1806 0.961 . S
H1821 C1807 0.958 . S
H1822 C1807 0.961 1_556 S
H1823 C1807 0.960 . S
C1824 C1825 1.391 . S
C1824 C1826 1.394 . S
C1824 H1840 0.931 . S
C1825 C1824 1.391 . S
C1825 C1829 1.376 . S
C1826 C1824 1.394 . S
C1826 C1827 1.369 . S
C1826 C1830 1.531 . S
C1827 C1826 1.369 . S
C1827 C1828 1.410 . S
C1827 C1835 1.503 . S
C1828 C1827 1.410 . S
C1828 C1829 1.392 . S
C1828 C1831 1.511 . S
C1829 C1825 1.376 . S
C1829 C1828 1.392 . S
C1829 H1841 0.929 . S
C1830 C1826 1.531 . S
C1830 H1842 0.960 . S
C1830 H1843 0.962 . S
C1830 H1844 0.960 . S
C1831 C1828 1.511 . S
C1831 H1845 0.961 . S
C1831 H1846 0.961 . S
C1831 H1847 0.961 . S
C1832 C1833 1.370 . S
C1832 C1834 1.363 . S
C1832 H1848 0.931 . S
C1833 C1832 1.370 . S
C1833 C1837 1.408 . S
C1834 C1832 1.363 . S
C1834 C1835 1.370 . S
C1834 C1838 1.524 . S
C1835 C1827 1.503 . S
C1835 C1834 1.370 . S
C1835 C1836 1.403 . S
C1836 C1835 1.403 . S
C1836 C1837 1.404 . S
C1836 C1839 1.539 . S
C1837 C1833 1.408 . S
C1837 C1836 1.404 . S
C1837 H1849 0.930 . S
C1838 C1834 1.524 . S
C1838 H1850 0.956 . S
C1838 H1851 0.961 . S
C1838 H1852 0.961 . S
C1839 C1836 1.539 . S
C1839 H1853 0.958 . S
C1839 H1854 0.961 . S
C1839 H1855 0.960 . S
H1840 C1824 0.931 . S
H1841 C1829 0.929 . S
H1842 C1830 0.960 . S
H1843 C1830 0.962 . S
H1844 C1830 0.960 . S
H1845 C1831 0.961 . S
H1846 C1831 0.961 . S
H1847 C1831 0.961 . S
H1848 C1832 0.931 . S
H1849 C1837 0.930 . S
H1850 C1838 0.956 . S
H1851 C1838 0.961 . S
H1852 C1838 0.961 . S
H1853 C1839 0.958 . S
H1854 C1839 0.961 . S
H1855 C1839 0.960 . S
C1856 C1857 1.391 . S
C1856 C1858 1.394 . S
C1856 H1872 0.931 . S
C1857 C1856 1.391 . S
C1857 C1861 1.376 . S
C1858 C1856 1.394 . S
C1858 C1859 1.369 . S
C1858 C1862 1.531 . S
C1859 C1858 1.369 . S
C1859 C1860 1.410 . S
C1859 C1867 1.503 . S
C1860 C1859 1.410 . S
C1860 C1861 1.392 . S
C1860 C1863 1.511 . S
C1861 C1857 1.376 . S
C1861 C1860 1.392 . S
C1861 H1873 0.929 . S
C1862 C1858 1.531 . S
C1862 H1874 0.960 . S
C1862 H1875 0.962 . S
C1862 H1876 0.960 . S
C1863 C1860 1.511 . S
C1863 H1877 0.961 . S
C1863 H1878 0.961 . S
C1863 H1879 0.961 . S
C1864 C1865 1.370 . S
C1864 C1866 1.363 . S
C1864 H1880 0.931 . S
C1865 C1864 1.370 . S
C1865 C1869 1.408 . S
C1866 C1864 1.363 . S
C1866 C1867 1.370 . S
C1866 C1870 1.524 . S
C1867 C1859 1.503 . S
C1867 C1866 1.370 . S
C1867 C1868 1.403 . S
C1868 C1867 1.403 . S
C1868 C1869 1.404 . S
C1868 C1871 1.539 . S
C1869 C1865 1.408 . S
C1869 C1868 1.404 . S
C1869 H1881 0.930 . S
C1870 C1866 1.524 . S
C1870 H1882 0.956 . S
C1870 H1883 0.961 . S
C1870 H1884 0.961 . S
C1871 C1868 1.539 . S
C1871 H1885 0.958 . S
C1871 H1886 0.961 . S
C1871 H1887 0.960 . S
H1872 C1856 0.931 . S
H1873 C1861 0.929 . S
H1874 C1862 0.960 . S
H1875 C1862 0.962 . S
H1876 C1862 0.960 . S
H1877 C1863 0.961 . S
H1878 C1863 0.961 . S
H1879 C1863 0.961 . S
H1880 C1864 0.931 . S
H1881 C1869 0.930 . S
H1882 C1870 0.956 . S
H1883 C1870 0.961 . S
H1884 C1870 0.961 . S
H1885 C1871 0.958 . S
H1886 C1871 0.961 . S
H1887 C1871 0.960 . S
C1888 C1889 1.391 . S
C1888 C1890 1.394 . S
C1888 H1904 0.931 . S
C1889 C1888 1.391 . S
C1889 C1893 1.376 . S
C1890 C1888 1.394 . S
C1890 C1891 1.369 . S
C1890 C1894 1.531 . S
C1891 C1890 1.369 . S
C1891 C1892 1.410 . S
C1891 C1899 1.503 . S
C1892 C1891 1.410 . S
C1892 C1893 1.392 . S
C1892 C1895 1.511 . S
C1893 C1889 1.376 . S
C1893 C1892 1.392 . S
C1893 H1905 0.929 . S
C1894 C1890 1.531 . S
C1894 H1906 0.960 . S
C1894 H1907 0.962 . S
C1894 H1908 0.960 . S
C1895 C1892 1.511 . S
C1895 H1909 0.961 . S
C1895 H1910 0.961 . S
C1895 H1911 0.961 . S
C1896 C1897 1.370 . S
C1896 C1898 1.363 . S
C1896 H1912 0.931 . S
C1897 C1896 1.370 . S
C1897 C1901 1.408 . S
C1898 C1896 1.363 . S
C1898 C1899 1.370 . S
C1898 C1902 1.524 . S
C1899 C1891 1.503 . S
C1899 C1898 1.370 . S
C1899 C1900 1.403 . S
C1900 C1899 1.403 . S
C1900 C1901 1.404 . S
C1900 C1903 1.539 . S
C1901 C1897 1.408 . S
C1901 C1900 1.404 . S
C1901 H1913 0.930 . S
C1902 C1898 1.524 . S
C1902 H1914 0.956 . S
C1902 H1915 0.961 . S
C1902 H1916 0.961 . S
C1903 C1900 1.539 . S
C1903 H1917 0.958 . S
C1903 H1918 0.961 . S
C1903 H1919 0.960 . S
H1904 C1888 0.931 . S
H1905 C1893 0.929 . S
H1906 C1894 0.960 . S
H1907 C1894 0.962 . S
H1908 C1894 0.960 . S
H1909 C1895 0.961 . S
H1910 C1895 0.961 . S
H1911 C1895 0.961 . S
H1912 C1896 0.931 . S
H1913 C1901 0.930 . S
H1914 C1902 0.956 . S
H1915 C1902 0.961 . S
H1916 C1902 0.961 . S
H1917 C1903 0.958 . S
H1918 C1903 0.961 . S
H1919 C1903 0.960 . S
C1920 C1921 1.391 . S
C1920 C1922 1.394 . S
C1920 H1936 0.931 . S
C1921 C1920 1.391 . S
C1921 C1925 1.376 . S
C1922 C1920 1.394 . S
C1922 C1923 1.369 . S
C1922 C1926 1.531 . S
C1923 C1922 1.369 . S
C1923 C1924 1.410 . S
C1923 C1931 1.503 . S
C1924 C1923 1.410 . S
C1924 C1925 1.392 . S
C1924 C1927 1.511 . S
C1925 C1921 1.376 . S
C1925 C1924 1.392 . S
C1925 H1937 0.929 . S
C1926 C1922 1.531 . S
C1926 H1938 0.960 . S
C1926 H1939 0.962 . S
C1926 H1940 0.960 . S
C1927 C1924 1.511 . S
C1927 H1941 0.961 . S
C1927 H1942 0.961 . S
C1927 H1943 0.961 . S
C1928 C1929 1.370 . S
C1928 C1930 1.363 . S
C1928 H1944 0.931 . S
C1929 C1928 1.370 . S
C1929 C1933 1.408 . S
C1930 C1928 1.363 . S
C1930 C1931 1.370 . S
C1930 C1934 1.524 . S
C1931 C1923 1.503 . S
C1931 C1930 1.370 . S
C1931 C1932 1.403 . S
C1932 C1931 1.403 . S
C1932 C1933 1.404 . S
C1932 C1935 1.539 . S
C1933 C1929 1.408 . S
C1933 C1932 1.404 . S
C1933 H1945 0.930 . S
C1934 C1930 1.524 . S
C1934 H1946 0.956 . S
C1934 H1947 0.961 . S
C1934 H1948 0.961 . S
C1935 C1932 1.539 . S
C1935 H1949 0.958 . S
C1935 H1950 0.961 . S
C1935 H1951 0.960 . S
H1936 C1920 0.931 . S
H1937 C1925 0.929 . S
H1938 C1926 0.960 . S
H1939 C1926 0.962 . S
H1940 C1926 0.960 . S
H1941 C1927 0.961 . S
H1942 C1927 0.961 . S
H1943 C1927 0.961 . S
H1944 C1928 0.931 . S
H1945 C1933 0.930 . S
H1946 C1934 0.956 . S
H1947 C1934 0.961 . S
H1948 C1934 0.961 . S
H1949 C1935 0.958 . S
H1950 C1935 0.961 . S
H1951 C1935 0.960 . S
C1952 C1953 1.391 . S
C1952 C1954 1.394 . S
C1952 H1968 0.931 . S
C1953 C1952 1.391 . S
C1953 C1957 1.376 . S
C1954 C1952 1.394 . S
C1954 C1955 1.369 . S
C1954 C1958 1.531 . S
C1955 C1954 1.369 . S
C1955 C1956 1.410 . S
C1955 C1963 1.503 . S
C1956 C1955 1.410 . S
C1956 C1957 1.392 . S
C1956 C1959 1.511 . S
C1957 C1953 1.376 . S
C1957 C1956 1.392 . S
C1957 H1969 0.929 . S
C1958 C1954 1.531 . S
C1958 H1970 0.960 . S
C1958 H1971 0.962 . S
C1958 H1972 0.960 . S
C1959 C1956 1.511 . S
C1959 H1973 0.961 . S
C1959 H1974 0.961 . S
C1959 H1975 0.961 . S
C1960 C1961 1.370 . S
C1960 C1962 1.363 1_545 S
C1960 H1976 0.931 . S
C1961 C1960 1.370 . S
C1961 C1965 1.405 1_545 S
C1962 C1960 1.363 1_565 S
C1962 C1963 1.370 . S
C1962 C1966 1.524 . S
C1963 C1955 1.503 . S
C1963 C1962 1.370 . S
C1963 C1964 1.403 . S
C1964 C1963 1.403 . S
C1964 C1965 1.404 . S
C1964 C1967 1.539 . S
C1965 C1961 1.405 1_565 S
C1965 C1964 1.404 . S
C1965 H1977 0.930 . S
C1966 C1962 1.524 . S
C1966 H1978 0.956 . S
C1966 H1979 0.961 . S
C1966 H1980 0.961 1_565 S
C1967 C1964 1.539 . S
C1967 H1981 0.958 . S
C1967 H1982 0.961 . S
C1967 H1983 0.960 . S
H1968 C1952 0.931 . S
H1969 C1957 0.929 . S
H1970 C1958 0.960 . S
H1971 C1958 0.962 . S
H1972 C1958 0.960 . S
H1973 C1959 0.961 . S
H1974 C1959 0.961 . S
H1975 C1959 0.961 . S
H1976 C1960 0.931 . S
H1977 C1965 0.930 . S
H1978 C1966 0.956 . S
H1979 C1966 0.961 . S
H1980 C1966 0.961 1_545 S
H1981 C1967 0.958 . S
H1982 C1967 0.961 . S
H1983 C1967 0.960 . S
C1984 C1985 1.391 . S
C1984 C1986 1.394 . S
C1984 H2000 0.931 . S
C1985 C1984 1.391 . S
C1985 C1989 1.376 . S
C1986 C1984 1.394 . S
C1986 C1987 1.369 . S
C1986 C1990 1.531 . S
C1987 C1986 1.369 . S
C1987 C1988 1.410 . S
C1987 C1995 1.503 . S
C1988 C1987 1.410 . S
C1988 C1989 1.392 . S
C1988 C1991 1.511 . S
C1989 C1985 1.376 . S
C1989 C1988 1.392 . S
C1989 H2001 0.929 . S
C1990 C1986 1.531 . S
C1990 H2002 0.960 . S
C1990 H2003 0.962 . S
C1990 H2004 0.960 . S
C1991 C1988 1.511 . S
C1991 H2005 0.961 . S
C1991 H2006 0.961 . S
C1991 H2007 0.961 . S
C1992 C1993 1.370 . S
C1992 C1994 1.363 1_554 S
C1992 H2008 0.931 . S
C1993 C1992 1.370 . S
C1993 C1997 1.408 1_554 S
C1994 C1992 1.363 1_556 S
C1994 C1995 1.370 . S
C1994 C1998 1.524 . S
C1995 C1987 1.503 . S
C1995 C1994 1.370 . S
C1995 C1996 1.403 . S
C1996 C1995 1.403 . S
C1996 C1997 1.404 . S
C1996 C1999 1.539 . S
C1997 C1993 1.408 1_556 S
C1997 C1996 1.404 . S
C1997 H2009 0.930 . S
C1998 C1994 1.524 . S
C1998 H2010 0.956 . S
C1998 H2011 0.961 . S
C1998 H2012 0.961 1_556 S
C1999 C1996 1.539 . S
C1999 H2013 0.958 . S
C1999 H2014 0.961 . S
C1999 H2015 0.960 . S
H2000 C1984 0.931 . S
H2001 C1989 0.929 . S
H2002 C1990 0.960 . S
H2003 C1990 0.962 . S
H2004 C1990 0.960 . S
H2005 C1991 0.961 . S
H2006 C1991 0.961 . S
H2007 C1991 0.961 . S
H2008 C1992 0.931 . S
H2009 C1997 0.930 . S
H2010 C1998 0.956 . S
H2011 C1998 0.961 . S
H2012 C1998 0.961 1_554 S
H2013 C1999 0.958 . S
H2014 C1999 0.961 . S
H2015 C1999 0.960 . S
C2016 C2017 1.391 . S
C2016 C2018 1.394 . S
C2016 H2032 0.931 . S
C2017 C2016 1.391 . S
C2017 C2021 1.376 . S
C2018 C2016 1.394 . S
C2018 C2019 1.369 . S
C2018 C2022 1.531 . S
C2019 C2018 1.369 . S
C2019 C2020 1.410 . S
C2019 C2027 1.503 . S
C2020 C2019 1.410 . S
C2020 C2021 1.392 . S
C2020 C2023 1.511 . S
C2021 C2017 1.376 . S
C2021 C2020 1.392 . S
C2021 H2033 0.929 1_545 S
C2022 C2018 1.531 . S
C2022 H2034 0.960 . S
C2022 H2035 0.962 . S
C2022 H2036 0.960 . S
C2023 C2020 1.511 . S
C2023 H2037 0.961 . S
C2023 H2038 0.961 . S
C2023 H2039 0.961 . S
C2024 C2025 1.370 . S
C2024 C2026 1.363 . S
C2024 H2040 0.931 . S
C2025 C2024 1.370 . S
C2025 C2029 1.408 . S
C2026 C2024 1.363 . S
C2026 C2027 1.370 . S
C2026 C2030 1.524 . S
C2027 C2019 1.503 . S
C2027 C2026 1.370 . S
C2027 C2028 1.403 . S
C2028 C2027 1.403 . S
C2028 C2029 1.404 . S
C2028 C2031 1.539 . S
C2029 C2025 1.408 . S
C2029 C2028 1.404 . S
C2029 H2041 0.930 . S
C2030 C2026 1.524 . S
C2030 H2042 0.956 . S
C2030 H2043 0.961 1_545 S
C2030 H2044 0.961 . S
C2031 C2028 1.539 . S
C2031 H2045 0.958 . S
C2031 H2046 0.961 . S
C2031 H2047 0.960 . S
H2032 C2016 0.931 . S
H2033 C2021 0.929 1_565 S
H2034 C2022 0.960 . S
H2035 C2022 0.962 . S
H2036 C2022 0.960 . S
H2037 C2023 0.961 . S
H2038 C2023 0.961 . S
H2039 C2023 0.961 . S
H2040 C2024 0.931 . S
H2041 C2029 0.930 . S
H2042 C2030 0.956 . S
H2043 C2030 0.961 1_565 S
H2044 C2030 0.961 . S
H2045 C2031 0.958 . S
H2046 C2031 0.961 . S
H2047 C2031 0.960 . S
C2048 C2049 1.391 . S
C2048 C2050 1.394 . S
C2048 H2064 0.931 . S
C2049 C2048 1.391 . S
C2049 C2053 1.376 . S
C2050 C2048 1.394 . S
C2050 C2051 1.369 . S
C2050 C2054 1.531 . S
C2051 C2050 1.369 . S
C2051 C2052 1.410 . S
C2051 C2059 1.503 . S
C2052 C2051 1.410 . S
C2052 C2053 1.392 . S
C2052 C2055 1.511 . S
C2053 C2049 1.376 . S
C2053 C2052 1.392 . S
C2053 H2065 0.929 . S
C2054 C2050 1.531 . S
C2054 H2066 0.960 . S
C2054 H2067 0.962 . S
C2054 H2068 0.960 . S
C2055 C2052 1.511 . S
C2055 H2069 0.961 . S
C2055 H2070 0.961 . S
C2055 H2071 0.961 . S
C2056 C2057 1.370 . S
C2056 C2058 1.363 . S
C2056 H2072 0.931 . S
C2057 C2056 1.370 . S
C2057 C2061 1.408 . S
C2058 C2056 1.363 . S
C2058 C2059 1.370 . S
C2058 C2062 1.524 . S
C2059 C2051 1.503 . S
C2059 C2058 1.370 . S
C2059 C2060 1.403 . S
C2060 C2059 1.403 . S
C2060 C2061 1.404 . S
C2060 C2063 1.539 . S
C2061 C2057 1.408 . S
C2061 C2060 1.404 . S
C2061 H2073 0.930 . S
C2062 C2058 1.524 . S
C2062 H2074 0.956 . S
C2062 H2075 0.961 . S
C2062 H2076 0.961 . S
C2063 C2060 1.539 . S
C2063 H2077 0.958 . S
C2063 H2078 0.961 . S
C2063 H2079 0.960 . S
H2064 C2048 0.931 . S
H2065 C2053 0.929 . S
H2066 C2054 0.960 . S
H2067 C2054 0.962 . S
H2068 C2054 0.960 . S
H2069 C2055 0.961 . S
H2070 C2055 0.961 . S
H2071 C2055 0.961 . S
H2072 C2056 0.931 . S
H2073 C2061 0.930 . S
H2074 C2062 0.956 . S
H2075 C2062 0.961 . S
H2076 C2062 0.961 . S
H2077 C2063 0.958 . S
H2078 C2063 0.961 . S
H2079 C2063 0.960 . S
C2080 C2081 1.391 . S
C2080 C2082 1.394 . S
C2080 H2096 0.931 . S
C2081 C2080 1.391 . S
C2081 C2085 1.376 . S
C2082 C2080 1.394 . S
C2082 C2083 1.369 . S
C2082 C2086 1.531 . S
C2083 C2082 1.369 . S
C2083 C2084 1.410 . S
C2083 C2091 1.503 . S
C2084 C2083 1.410 . S
C2084 C2085 1.392 . S
C2084 C2087 1.511 . S
C2085 C2081 1.376 . S
C2085 C2084 1.392 . S
C2085 H2097 0.929 . S
C2086 C2082 1.531 . S
C2086 H2098 0.960 . S
C2086 H2099 0.962 . S
C2086 H2100 0.960 . S
C2087 C2084 1.511 . S
C2087 H2101 0.961 . S
C2087 H2102 0.961 . S
C2087 H2103 0.961 . S
C2088 C2089 1.366 1_565 S
C2088 C2090 1.363 1_565 S
C2088 H2104 0.931 . S
C2089 C2088 1.366 1_545 S
C2089 C2093 1.419 . S
C2090 C2088 1.363 1_545 S
C2090 C2091 1.370 . S
C2090 C2094 1.524 1_545 S
C2091 C2083 1.503 . S
C2091 C2090 1.370 . S
C2091 C2092 1.403 . S
C2092 C2091 1.403 . S
C2092 C2093 1.404 . S
C2092 C2095 1.539 . S
C2093 C2089 1.419 . S
C2093 C2092 1.404 . S
C2093 H2105 0.930 . S
C2094 C2090 1.524 1_565 S
C2094 H2106 0.955 1_565 S
C2094 H2107 0.961 1_565 S
C2094 H2108 0.961 . S
C2095 C2092 1.539 . S
C2095 H2109 0.958 . S
C2095 H2110 0.961 . S
C2095 H2111 0.960 . S
H2096 C2080 0.931 . S
H2097 C2085 0.929 . S
H2098 C2086 0.960 . S
H2099 C2086 0.962 . S
H2100 C2086 0.960 . S
H2101 C2087 0.961 . S
H2102 C2087 0.961 . S
H2103 C2087 0.961 . S
H2104 C2088 0.931 . S
H2105 C2093 0.930 . S
H2106 C2094 0.955 1_545 S
H2107 C2094 0.961 1_545 S
H2108 C2094 0.961 . S
H2109 C2095 0.958 . S
H2110 C2095 0.961 . S
H2111 C2095 0.960 . S
C2112 C2113 1.391 . S
C2112 C2114 1.394 . S
C2112 H2128 0.931 . S
C2113 C2112 1.391 . S
C2113 C2117 1.376 . S
C2114 C2112 1.394 . S
C2114 C2115 1.369 . S
C2114 C2118 1.531 . S
C2115 C2114 1.369 . S
C2115 C2116 1.410 . S
C2115 C2123 1.503 . S
C2116 C2115 1.410 . S
C2116 C2117 1.392 . S
C2116 C2119 1.511 . S
C2117 C2113 1.376 . S
C2117 C2116 1.392 . S
C2117 H2129 0.929 . S
C2118 C2114 1.531 . S
C2118 H2130 0.960 . S
C2118 H2131 0.962 . S
C2118 H2132 0.960 . S
C2119 C2116 1.511 . S
C2119 H2133 0.961 . S
C2119 H2134 0.961 . S
C2119 H2135 0.961 . S
C2120 C2121 1.370 . S
C2120 C2122 1.363 1_556 S
C2120 H2136 0.931 . S
C2121 C2120 1.370 . S
C2121 C2125 1.408 1_556 S
C2122 C2120 1.363 1_554 S
C2122 C2123 1.370 . S
C2122 C2126 1.524 . S
C2123 C2115 1.503 . S
C2123 C2122 1.370 . S
C2123 C2124 1.403 . S
C2124 C2123 1.403 . S
C2124 C2125 1.404 . S
C2124 C2127 1.539 . S
C2125 C2121 1.408 1_554 S
C2125 C2124 1.404 . S
C2125 H2137 0.930 . S
C2126 C2122 1.524 . S
C2126 H2138 0.956 . S
C2126 H2139 0.961 . S
C2126 H2140 0.961 . S
C2127 C2124 1.539 . S
C2127 H2141 0.958 . S
C2127 H2142 0.961 . S
C2127 H2143 0.960 . S
H2128 C2112 0.931 . S
H2129 C2117 0.929 . S
H2130 C2118 0.960 . S
H2131 C2118 0.962 . S
H2132 C2118 0.960 . S
H2133 C2119 0.961 . S
H2134 C2119 0.961 . S
H2135 C2119 0.961 . S
H2136 C2120 0.931 . S
H2137 C2125 0.930 . S
H2138 C2126 0.956 . S
H2139 C2126 0.961 . S
H2140 C2126 0.961 . S
H2141 C2127 0.958 . S
H2142 C2127 0.961 . S
H2143 C2127 0.960 . S
C2144 C2145 1.391 . S
C2144 C2146 1.394 . S
C2144 H2160 0.931 . S
C2145 C2144 1.391 . S
C2145 C2149 1.376 . S
C2146 C2144 1.394 . S
C2146 C2147 1.369 . S
C2146 C2150 1.531 . S
C2147 C2146 1.369 . S
C2147 C2148 1.410 . S
C2147 C2155 1.503 . S
C2148 C2147 1.410 . S
C2148 C2149 1.392 . S
C2148 C2151 1.511 . S
C2149 C2145 1.376 . S
C2149 C2148 1.392 . S
C2149 H2161 0.929 . S
C2150 C2146 1.531 . S
C2150 H2162 0.960 . S
C2150 H2163 0.962 . S
C2150 H2164 0.960 . S
C2151 C2148 1.511 . S
C2151 H2165 0.961 . S
C2151 H2166 0.961 . S
C2151 H2167 0.961 . S
C2152 C2153 1.370 1_565 S
C2152 C2154 1.363 . S
C2152 H2168 0.931 . S
C2153 C2152 1.370 1_545 S
C2153 C2157 1.408 . S
C2154 C2152 1.363 . S
C2154 C2155 1.370 . S
C2154 C2158 1.524 . S
C2155 C2147 1.503 . S
C2155 C2154 1.370 . S
C2155 C2156 1.388 1_565 S
C2156 C2155 1.388 1_545 S
C2156 C2157 1.412 . S
C2156 C2159 1.547 . S
C2157 C2153 1.408 . S
C2157 C2156 1.412 . S
C2157 H2169 0.930 . S
C2158 C2154 1.524 . S
C2158 H2170 0.956 . S
C2158 H2171 0.961 . S
C2158 H2172 0.961 . S
C2159 C2156 1.547 . S
C2159 H2173 0.958 . S
C2159 H2174 0.961 . S
C2159 H2175 0.960 . S
H2160 C2144 0.931 . S
H2161 C2149 0.929 . S
H2162 C2150 0.960 . S
H2163 C2150 0.962 . S
H2164 C2150 0.960 . S
H2165 C2151 0.961 . S
H2166 C2151 0.961 . S
H2167 C2151 0.961 . S
H2168 C2152 0.931 . S
H2169 C2157 0.930 . S
H2170 C2158 0.956 . S
H2171 C2158 0.961 . S
H2172 C2158 0.961 . S
H2173 C2159 0.958 . S
H2174 C2159 0.961 . S
H2175 C2159 0.960 . S
C641 C10 2.628 . S
C649 C410 2.645 . S
C673 C50 2.636 . S
C681 C450 2.641 . S
C705 C90 2.642 . S
C713 C330 2.650 . S
C737 C370 2.641 . S
C745 C130 2.650 . S
C769 C179 2.644 . S
C777 C579 2.648 . S
C801 C619 2.645 . S
C809 C219 2.648 . S
C833 C499 2.628 . S
C841 C259 2.651 . S
C865 C299 2.652 . S
C873 C539 2.640 . S
C897 C16 0.905 . S
C905 C167 0.987 . S
C929 C56 0.972 . S
C937 C527 0.947 . S
C961 C96 1.030 . S
C969 C247 0.934 . S
C993 C136 0.950 . S
C1001 C607 0.968 . S
C1025 C207 0.924 . S
C1033 C376 0.977 . S
C1057 C456 0.989 . S
C1065 C287 0.951 . S
C1089 C487 0.876 . S
C1097 C336 0.992 . S
C1121 C416 0.878 . S
C1129 C567 0.991 . S
C1153 C7 1.114 . S
C1161 C290 1.159 . S
C1185 C47 1.140 . S
C1193 C490 1.161 . S
C1217 C87 1.045 . S
C1225 C210 1.185 . S
C1249 C127 1.099 . S
C1257 C570 1.176 . S
C1281 C139 1.203 . S
C1289 C176 1.052 . S
C1313 C216 1.003 . S
C1321 C339 1.182 . S
C1345 C256 1.140 . S
C1353 C59 1.163 . S
C1377 C419 1.144 . S
C1385 C296 1.071 . S
C1409 C327 1.134 . S
C1417 C610 1.158 1_565 S
C1441 C170 1.173 . S
C1449 C367 1.056 . S
C1473 C530 1.148 1_545 S
C1481 C407 1.101 . S
C1505 C250 1.168 . S
C1513 C447 1.060 . S
C1537 C496 1.068 . S
C1545 C459 1.185 1_545 S
C1569 C536 1.030 . S
C1577 C19 1.169 . S
C1601 C379 1.181 1_565 S
C1609 C576 1.047 . S
C1633 C616 1.014 . S
C1641 C99 1.173 . S
C1665 C11 4.046 . S
C1673 C362 4.099 . S
C1697 C402 4.100 . S
C1705 C51 4.057 . S
C1729 C91 4.069 . S
C1737 C442 4.088 . S
C1761 C322 4.076 . S
C1769 C131 4.067 . S
C1793 C531 4.099 . S
C1801 C162 4.056 . S
C1825 C571 4.080 . S
C1833 C202 4.065 . S
C1857 C611 4.100 . S
C1865 C242 4.056 . S
C1889 C491 4.075 . S
C1897 C282 4.067 . S
C1921 C42 4.085 . S
C1929 C331 4.060 . S
C1953 C82 4.100 . S
C1961 C371 4.059 . S
C1985 C122 4.074 . S
C1993 C411 4.067 . S
C2017 C451 4.043 1_545 S
C2025 C2 4.096 . S
C2049 C211 4.074 . S
C2057 C482 4.067 . S
C2081 C251 4.097 . S
C2089 C522 4.051 1_545 S
C2113 C291 4.079 . S
C2121 C562 4.064 . S
C2145 C171 4.080 . S
C2153 C602 4.065 . S
