# Generated by pormake.
# Topology snk, (6)-cn, num edge types: 1
# Building blocks:
#     Node 0, Type 0, BuildingBlock: INOVEN_clean_sbu_0, # of connection points: 6
#     Node 1, Type 0, BuildingBlock: INOVEN_clean_sbu_0, # of connection points: 6
#     Node 2, Type 0, BuildingBlock: INOVEN_clean_sbu_0, # of connection points: 6
#     Node 3, Type 0, BuildingBlock: INOVEN_clean_sbu_0, # of connection points: 6
#     Node 4, Type 0, BuildingBlock: INOVEN_clean_sbu_0, # of connection points: 6
#     Node 5, Type 0, BuildingBlock: INOVEN_clean_sbu_0, # of connection points: 6
#     Node 6, Type 0, BuildingBlock: INOVEN_clean_sbu_0, # of connection points: 6
#     Node 7, Type 0, BuildingBlock: INOVEN_clean_sbu_0, # of connection points: 6
#     Edge 8, Type (0, 0), BuildingBlock: KIFKEQ_clean_linker_1, # of connection points: 2
#     Edge 9, Type (0, 0), BuildingBlock: KIFKEQ_clean_linker_1, # of connection points: 2
#     Edge 10, Type (0, 0), BuildingBlock: KIFKEQ_clean_linker_1, # of connection points: 2
#     Edge 11, Type (0, 0), BuildingBlock: KIFKEQ_clean_linker_1, # of connection points: 2
#     Edge 12, Type (0, 0), BuildingBlock: KIFKEQ_clean_linker_1, # of connection points: 2
#     Edge 13, Type (0, 0), BuildingBlock: KIFKEQ_clean_linker_1, # of connection points: 2
#     Edge 14, Type (0, 0), BuildingBlock: KIFKEQ_clean_linker_1, # of connection points: 2
#     Edge 15, Type (0, 0), BuildingBlock: KIFKEQ_clean_linker_1, # of connection points: 2
#     Edge 16, Type (0, 0), BuildingBlock: KIFKEQ_clean_linker_1, # of connection points: 2
#     Edge 17, Type (0, 0), BuildingBlock: KIFKEQ_clean_linker_1, # of connection points: 2
#     Edge 18, Type (0, 0), BuildingBlock: KIFKEQ_clean_linker_1, # of connection points: 2
#     Edge 19, Type (0, 0), BuildingBlock: KIFKEQ_clean_linker_1, # of connection points: 2
#     Edge 20, Type (0, 0), BuildingBlock: KIFKEQ_clean_linker_1, # of connection points: 2
#     Edge 21, Type (0, 0), BuildingBlock: KIFKEQ_clean_linker_1, # of connection points: 2
#     Edge 22, Type (0, 0), BuildingBlock: KIFKEQ_clean_linker_1, # of connection points: 2
#     Edge 23, Type (0, 0), BuildingBlock: KIFKEQ_clean_linker_1, # of connection points: 2
#     Edge 24, Type (0, 0), BuildingBlock: KIFKEQ_clean_linker_1, # of connection points: 2
#     Edge 25, Type (0, 0), BuildingBlock: KIFKEQ_clean_linker_1, # of connection points: 2
#     Edge 26, Type (0, 0), BuildingBlock: KIFKEQ_clean_linker_1, # of connection points: 2
#     Edge 27, Type (0, 0), BuildingBlock: KIFKEQ_clean_linker_1, # of connection points: 2
#     Edge 28, Type (0, 0), BuildingBlock: KIFKEQ_clean_linker_1, # of connection points: 2
#     Edge 29, Type (0, 0), BuildingBlock: KIFKEQ_clean_linker_1, # of connection points: 2
#     Edge 30, Type (0, 0), BuildingBlock: KIFKEQ_clean_linker_1, # of connection points: 2
#     Edge 31, Type (0, 0), BuildingBlock: KIFKEQ_clean_linker_1, # of connection points: 2
# Relax obj value: 0.071
# Max RMSD: 0.137
# Mean RMSD: 0.115
data_MOF--net-snk--node1-INOVEN_clean_sbu_0--edge1-KIFKEQ_clean_linker_1
_symmetry_space_group_name_H-M    P1
_symmetry_Int_Tables_number       1
_symmetry_cell_setting            triclinic
loop_
_symmetry_equiv_pos_as_xyz
'x, y, z'
_cell_length_a     38.319223
_cell_length_b     38.385734
_cell_length_c     25.627798
_cell_angle_alpha  96.222933
_cell_angle_beta   96.098798
_cell_angle_gamma 90.791831
loop_
_atom_site_label
_atom_site_type_symbol
_atom_site_fract_x
_atom_site_fract_y
_atom_site_fract_z
_atom_type_partial_charge
Gd0 Gd 0.99567 0.99084 0.46652 0.0
Gd1 Gd 0.02253 0.02717 0.57538 0.0
C2 C 0.06047 0.04894 0.47924 0.0
C3 C 0.97182 0.97609 0.36791 0.0
C4 C 0.98077 0.98206 0.31454 0.0
C5 C 0.99577 0.95522 0.28311 0.0
C6 C 0.97242 0.01351 0.29307 0.0
C7 C 0.9936 0.99093 0.20974 0.0
C8 C 0.97883 0.01791 0.24137 0.0
C9 C 1.00223 0.95963 0.23146 0.0
C10 C 0.04291 0.95469 0.52315 0.0
C11 C 0.95857 0.96862 0.56279 0.0
C12 C 0.04612 0.04391 0.67368 0.0
C13 C 0.03978 0.03649 0.72719 0.0
C14 C 0.04641 0.06319 0.76904 0.0
C15 C 0.02764 1.00347 0.7374 0.0
C16 C 0.02963 0.02397 0.83133 0.0
C17 C 0.02258 0.99727 0.78904 0.0
C18 C 0.04138 0.05706 0.8205 0.0
C19 C 0.97515 0.06298 0.51807 0.0
O20 O 0.0352 0.03095 0.44794 0.0
O21 O 0.06366 0.04866 0.53103 0.0
O22 O 0.99188 0.95524 0.39428 0.0
O23 O 0.96187 1.00309 0.39802 0.0
O24 O 0.01651 0.9402 0.49206 0.0
O25 O 0.04426 0.98733 0.52062 0.0
O26 O 0.98525 0.98482 0.59344 0.0
O27 O 0.95387 0.97113 0.51151 0.0
O28 O 0.02202 0.06142 0.64841 0.0
O29 O 0.05895 0.01877 0.64323 0.0
O30 O 1.00172 0.07762 0.54852 0.0
O31 O 0.97392 0.03047 0.52142 0.0
H32 H 1.0022 0.93054 0.29823 0.0
H33 H 0.96038 0.0346 0.31583 0.0
H34 H 0.97138 0.04217 0.22577 0.0
H35 H 0.01404 0.93847 0.20856 0.0
H36 H 0.0556 0.0889 0.76192 0.0
H37 H 0.02235 0.98246 0.70561 0.0
H38 H 0.01375 0.97141 0.79596 0.0
H39 H 0.04644 0.07841 0.8518 0.0
Gd40 Gd 0.26734 0.73913 0.72058 0.0
Gd41 Gd 0.24702 0.77635 0.8247 0.0
C42 C 0.21743 0.80813 0.72071 0.0
C43 C 0.26795 0.70916 0.62499 0.0
C44 C 0.26462 0.71878 0.57031 0.0
C45 C 0.28019 0.74975 0.55782 0.0
C46 C 0.24675 0.69585 0.52951 0.0
C47 C 0.26134 0.73386 0.46406 0.0
C48 C 0.24504 0.70332 0.47699 0.0
C49 C 0.27867 0.75714 0.50526 0.0
C50 C 0.31337 0.78867 0.77005 0.0
C51 C 0.29686 0.70745 0.82457 0.0
C52 C 0.24563 0.80667 0.92002 0.0
C53 C 0.25085 0.79795 0.97493 0.0
C54 C 0.2551 0.76323 0.98646 0.0
C55 C 0.25016 0.82475 1.0165 0.0
C56 C 0.25695 0.78226 0.08095 0.0
C57 C 0.25318 0.81704 0.0689 0.0
C58 C 0.25809 0.75545 0.03899 0.0
C59 C 0.20103 0.72694 0.77444 0.0
O60 O 0.22744 0.77881 0.69482 0.0
O61 O 0.22699 0.81617 0.77178 0.0
O62 O 0.29627 0.72047 0.65555 0.0
O63 O 0.23966 0.71092 0.64957 0.0
O64 O 0.3227 0.75989 0.74459 0.0
O65 O 0.28052 0.79075 0.7658 0.0
O66 O 0.28736 0.73704 0.85033 0.0
O67 O 0.28674 0.69919 0.7737 0.0
O68 O 0.218 0.7923 0.89088 0.0
O69 O 0.27346 0.80687 0.89447 0.0
O70 O 0.19162 0.75592 0.7993 0.0
O71 O 0.23386 0.72484 0.77945 0.0
H72 H 0.29391 0.76805 0.58859 0.0
H73 H 0.23458 0.6718 0.53819 0.0
H74 H 0.23173 0.68465 0.44635 0.0
H75 H 0.29103 0.78116 0.49688 0.0
H76 H 0.25574 0.74215 0.95486 0.0
H77 H 0.24673 0.85168 1.00837 0.0
H78 H 0.25169 0.83832 0.09992 0.0
H79 H 0.26141 0.72845 0.04672 0.0
Gd80 Gd 0.52825 0.99962 0.0651 0.0
Gd81 Gd 0.4912 0.02131 0.9625 0.0
C82 C 0.45925 0.04927 0.06703 0.0
C83 C 0.55756 0.99688 0.16046 0.0
C84 C 0.54779 1.00029 0.21533 0.0
C85 C 0.54567 0.9702 0.2417 0.0
C86 C 0.54188 0.03314 0.24264 0.0
C87 C 0.53185 1.00553 0.32141 0.0
C88 C 0.53406 0.03571 0.29513 0.0
C89 C 0.53763 0.97275 0.29393 0.0
C90 C 0.47899 0.95395 1.01379 0.0
C91 C 0.56029 0.97159 0.96077 0.0
C92 C 0.4616 0.02352 0.86721 0.0
C93 C 0.47123 0.02016 0.81239 0.0
C94 C 0.49724 0.04198 0.79713 0.0
C95 C 0.453 0.99575 0.77402 0.0
C96 C 0.48568 0.01576 0.70561 0.0
C97 C 0.46018 0.99347 0.72133 0.0
C98 C 0.50432 0.03984 0.74439 0.0
C99 C 0.54061 0.0669 1.01389 0.0
O100 O 0.48885 0.03942 0.0923 0.0
O101 O 0.45105 0.03991 1.01597 0.0
O102 O 0.54494 0.9693 0.12937 0.0
O103 O 0.5579 0.02521 0.13617 0.0
O104 O 0.50809 0.94448 0.0381 0.0
O105 O 0.47656 0.98672 0.01967 0.0
O106 O 0.5308 0.9816 0.93537 0.0
O107 O 0.56842 0.98088 1.01186 0.0
O108 O 0.47352 0.05132 0.89847 0.0
O109 O 0.46221 0.99503 0.89114 0.0
O110 O 0.5116 0.07648 0.98937 0.0
O111 O 0.54282 0.03413 1.00783 0.0
H112 H 0.55056 0.94459 0.22203 0.0
H113 H 0.54345 0.05691 0.22367 0.0
H114 H 0.52948 0.06133 0.31504 0.0
H115 H 0.53667 0.94904 0.31317 0.0
H116 H 0.51179 0.06112 0.82572 0.0
H117 H 0.43285 0.9786 0.78473 0.0
H118 H 0.44572 0.97416 0.69292 0.0
H119 H 0.52383 0.05773 0.73386 0.0
Gd120 Gd 0.27765 0.27116 0.32362 0.0
Gd121 Gd 0.24104 0.24465 0.2148 0.0
C122 C 0.21898 0.207 0.31092 0.0
C123 C 0.2931 0.29461 0.42214 0.0
C124 C 0.28618 0.28624 0.47511 0.0
C125 C 0.31466 0.28343 0.51348 0.0
C126 C 0.25187 0.282 0.48862 0.0
C127 C 0.27485 0.27301 0.57851 0.0
C128 C 0.24628 0.27559 0.53991 0.0
C129 C 0.3091 0.27678 0.56455 0.0
C130 C 0.31348 0.22393 0.2663 0.0
C131 C 0.29954 0.30908 0.22775 0.0
C132 C 0.22631 0.22085 0.11621 0.0
C133 C 0.23359 0.22883 0.06297 0.0
C134 C 0.21484 0.2545 0.03731 0.0
C135 C 0.2579 0.20898 0.03579 0.0
C136 C 0.24408 0.23978 0.95807 0.0
C137 C 0.26318 0.21448 0.98409 0.0
C138 C 0.22007 0.25994 0.98556 0.0
C139 C 0.20526 0.29199 0.27211 0.0
O140 O 0.23688 0.23234 0.34217 0.0
O141 O 0.21954 0.20359 0.25916 0.0
O142 O 0.31274 0.27287 0.39614 0.0
O143 O 0.26698 0.30607 0.39196 0.0
O144 O 0.32817 0.25024 0.29729 0.0
O145 O 0.28082 0.22272 0.2692 0.0
O146 O 0.28158 0.28383 0.19637 0.0
O147 O 0.29907 0.31234 0.27951 0.0
O148 O 0.20622 0.2422 0.14211 0.0
O149 O 0.25244 0.20974 0.14672 0.0
O150 O 0.19049 0.26576 0.24096 0.0
O151 O 0.2379 0.29309 0.26909 0.0
H152 H 0.34133 0.28677 0.50408 0.0
H153 H 0.22936 0.28385 0.45975 0.0
H154 H 0.21959 0.27244 0.5493 0.0
H155 H 0.33165 0.27536 0.59346 0.0
H156 H 0.19559 0.27 0.05678 0.0
H157 H 0.27255 0.18881 0.05425 0.0
H158 H 0.28224 0.1988 0.96449 0.0
H159 H 0.20454 0.27931 0.9666 0.0
Gd160 Gd 0.7697 0.2396 0.2176 0.0
Gd161 Gd 0.74886 0.277 0.32097 0.0
C162 C 0.71994 0.30868 0.21677 0.0
C163 C 0.77107 0.21007 0.12196 0.0
C164 C 0.76821 0.22006 0.06724 0.0
C165 C 0.79613 0.23748 0.04851 0.0
C166 C 0.738 0.21054 0.03221 0.0
C167 C 0.76381 0.23531 0.96082 0.0
C168 C 0.73578 0.21813 0.9797 0.0
C169 C 0.79392 0.24504 0.99606 0.0
C170 C 0.81567 0.28909 0.26756 0.0
C171 C 0.79841 0.20788 0.32182 0.0
C172 C 0.7475 0.30714 0.41626 0.0
C173 C 0.75188 0.29784 0.471 0.0
C174 C 0.74052 0.26506 0.48338 0.0
C175 C 0.76645 0.32271 0.51186 0.0
C176 C 0.7567 0.28294 0.57737 0.0
C177 C 0.7689 0.31537 0.56443 0.0
C178 C 0.74283 0.25772 0.53602 0.0
C179 C 0.70285 0.22766 0.27048 0.0
O180 O 0.72988 0.27921 0.19119 0.0
O181 O 0.72947 0.31688 0.2678 0.0
O182 O 0.79924 0.22082 0.15332 0.0
O183 O 0.74259 0.21151 0.14618 0.0
O184 O 0.82504 0.26016 0.24261 0.0
O185 O 0.78283 0.29127 0.26266 0.0
O186 O 0.78879 0.23751 0.34731 0.0
O187 O 0.78859 0.19958 0.27088 0.0
O188 O 0.71957 0.29419 0.38623 0.0
O189 O 0.77562 0.30675 0.39132 0.0
O190 O 0.69347 0.25668 0.29526 0.0
O191 O 0.73567 0.22542 0.27585 0.0
H192 H 0.82 0.2449 0.07411 0.0
H193 H 0.71615 0.19689 0.04529 0.0
H194 H 0.71201 0.21061 0.95393 0.0
H195 H 0.81624 0.2578 0.98282 0.0
H196 H 0.72928 0.24535 0.45248 0.0
H197 H 0.77557 0.34808 0.50315 0.0
H198 H 0.78039 0.33517 0.59496 0.0
H199 H 0.73288 0.2326 0.54434 0.0
Gd200 Gd 0.77582 0.77189 0.82145 0.0
Gd201 Gd 0.7406 0.74406 0.71222 0.0
C202 C 0.71792 0.70681 0.80848 0.0
C203 C 0.78934 0.79721 0.91963 0.0
C204 C 0.7852 0.7877 0.97292 0.0
C205 C 0.81005 0.80032 1.01507 0.0
C206 C 0.75653 0.76709 0.98272 0.0
C207 C 0.77726 0.77277 0.07678 0.0
C208 C 0.75258 0.75973 0.03419 0.0
C209 C 0.80617 0.79296 0.06643 0.0
C210 C 0.81227 0.72353 0.76717 0.0
C211 C 0.799 0.80813 0.72506 0.0
C212 C 0.72575 0.72029 0.6136 0.0
C213 C 0.73318 0.72794 0.5604 0.0
C214 C 0.70505 0.7341 0.52308 0.0
C215 C 0.76745 0.72787 0.54541 0.0
C216 C 0.74502 0.73945 0.45633 0.0
C217 C 0.77328 0.73348 0.49385 0.0
C218 C 0.71087 0.7399 0.47175 0.0
C219 C 0.70452 0.79253 0.76724 0.0
O220 O 0.73582 0.73214 0.83977 0.0
O221 O 0.7185 0.70337 0.7567 0.0
O222 O 0.81189 0.77938 0.89332 0.0
O223 O 0.76063 0.80356 0.89006 0.0
O224 O 0.82677 0.7499 0.79827 0.0
O225 O 0.77948 0.72274 0.76871 0.0
O226 O 0.78335 0.7811 0.6946 0.0
O227 O 0.7956 0.81338 0.77608 0.0
O228 O 0.70633 0.74262 0.63895 0.0
O229 O 0.7513 0.7085 0.64447 0.0
O230 O 0.68987 0.76587 0.737 0.0
O231 O 0.7372 0.79324 0.7648 0.0
H232 H 0.83229 0.81635 1.00835 0.0
H233 H 0.73706 0.75694 0.95073 0.0
H234 H 0.73025 0.74374 0.04059 0.0
H235 H 0.82543 0.80382 0.09824 0.0
H236 H 0.67837 0.73401 0.53347 0.0
H237 H 0.78973 0.72325 0.57331 0.0
H238 H 0.79994 0.73332 0.48342 0.0
H239 H 0.68847 0.74395 0.44375 0.0
Gd240 Gd 0.49572 0.48996 0.96466 0.0
Gd241 Gd 0.52263 0.52623 0.07356 0.0
C242 C 0.56045 0.54814 0.97736 0.0
C243 C 0.47131 0.47613 0.86626 0.0
C244 C 0.47986 0.48305 0.81326 0.0
C245 C 0.51062 0.47062 0.79298 0.0
C246 C 0.45596 0.50116 0.78138 0.0
C247 C 0.49288 0.49364 0.70941 0.0
C248 C 0.46244 0.50653 0.73013 0.0
C249 C 0.51699 0.47579 0.74154 0.0
C250 C 0.54345 0.45402 0.02069 0.0
C251 C 0.45837 0.46764 0.06091 0.0
C252 C 0.54641 0.54148 0.172 0.0
C253 C 0.53843 0.53473 0.22538 0.0
C254 C 0.52895 0.56274 0.26055 0.0
C255 C 0.54188 0.50133 0.24287 0.0
C256 C 0.52735 0.52446 0.33025 0.0
C257 C 0.53639 0.49627 0.29473 0.0
C258 C 0.52331 0.55766 0.31221 0.0
C259 C 0.4749 0.56196 1.017 0.0
O260 O 0.53523 0.53008 0.94608 0.0
O261 O 0.56368 0.54784 0.02915 0.0
O262 O 0.49159 0.45506 0.89189 0.0
O263 O 0.46149 0.50292 0.89686 0.0
O264 O 0.51722 0.43936 0.98941 0.0
O265 O 0.54445 0.48671 1.01843 0.0
O266 O 0.4839 0.48533 0.09209 0.0
O267 O 0.45471 0.46851 1.00923 0.0
O268 O 0.52466 0.56119 0.14625 0.0
O269 O 0.55775 0.51541 0.14152 0.0
O270 O 0.50136 0.57668 0.04768 0.0
O271 O 0.4739 0.52937 0.01992 0.0
H272 H 0.52963 0.45662 0.81657 0.0
H273 H 0.43194 0.51078 0.7959 0.0
H274 H 0.44316 0.52005 0.70625 0.0
H275 H 0.54088 0.4659 0.72695 0.0
H276 H 0.52624 0.58878 0.24822 0.0
H277 H 0.54936 0.47919 0.21687 0.0
H278 H 0.54012 0.47042 0.30733 0.0
H279 H 0.51577 0.57986 0.33804 0.0
Gd280 Gd 0.02781 0.49825 0.56994 0.0
Gd281 Gd 0.99054 0.51931 0.46696 0.0
C282 C 0.95837 0.54742 0.57124 0.0
C283 C 0.05765 0.4969 0.66527 0.0
C284 C 0.04779 0.50034 0.71986 0.0
C285 C 0.01883 0.48168 0.73335 0.0
C286 C 0.06845 0.52174 0.75962 0.0
C287 C 0.03223 0.50482 0.82593 0.0
C288 C 0.06073 0.52406 0.81206 0.0
C289 C 0.01123 0.4838 0.78585 0.0
C290 C 0.97856 0.45224 0.51939 0.0
C291 C 0.05975 0.46984 0.46565 0.0
C292 C 0.9611 0.52168 0.37156 0.0
C293 C 0.97079 0.51894 0.31662 0.0
C294 C 0.97759 0.54946 0.2932 0.0
C295 C 0.97148 0.48627 0.28603 0.0
C296 C 0.98528 0.51484 0.20977 0.0
C297 C 0.97871 0.48425 0.23331 0.0
C298 C 0.9849 0.54744 0.24065 0.0
C299 C 0.03982 0.56521 0.51795 0.0
O300 O 0.98797 0.53775 0.59671 0.0
O301 O 0.95025 0.53786 0.52021 0.0
O302 O 0.04609 0.46882 0.63436 0.0
O303 O 0.0565 0.52525 0.64101 0.0
O304 O 1.00757 0.44294 0.54422 0.0
O305 O 0.97616 0.48501 0.52467 0.0
O306 O 0.03013 0.4795 0.44018 0.0
O307 O 0.06795 0.47953 0.51662 0.0
O308 O 0.97279 0.54946 0.40304 0.0
O309 O 0.96175 0.49317 0.3955 0.0
O310 O 0.01072 0.57459 0.49349 0.0
O311 O 0.04213 0.53246 0.51215 0.0
H312 H 1.00222 0.46517 0.70346 0.0
H313 H 0.09094 0.53632 0.7502 0.0
H314 H 0.07761 0.54026 0.84196 0.0
H315 H 0.9888 0.46905 0.79504 0.0
H316 H 0.97696 0.57509 0.31537 0.0
H317 H 0.96593 0.46224 0.30253 0.0
H318 H 0.9783 0.45872 0.21065 0.0
H319 H 0.99035 0.57153 0.22429 0.0
H320 H 0.09932 0.10633 0.52581 0.0
H321 H 0.07791 0.04025 0.37815 0.0
H322 H 0.13772 0.14372 0.48499 0.0
H323 H 0.11799 0.07621 0.33786 0.0
H324 H 0.1621 0.16741 0.26402 0.0
H325 H 0.12462 0.12907 0.30484 0.0
H326 H 0.19093 0.1506 0.45278 0.0
H327 H 0.22694 0.19057 0.41245 0.0
C328 C 0.10333 0.09946 0.48479 0.0
C329 C 0.08553 0.07039 0.4552 0.0
C330 C 0.1256 0.12081 0.4613 0.0
C331 C 0.13122 0.11323 0.40782 0.0
C332 C 0.11388 0.08355 0.37868 0.0
C333 C 0.09105 0.06266 0.40192 0.0
C334 C 0.16868 0.16381 0.30522 0.0
C335 C 0.19742 0.18206 0.33501 0.0
C336 C 0.14729 0.14159 0.32872 0.0
C337 C 0.1545 0.13648 0.38242 0.0
C338 C 0.18385 0.15429 0.41176 0.0
C339 C 0.20478 0.17706 0.38851 0.0
H340 H 0.10311 0.97968 0.58412 0.0
H341 H 0.04225 0.8847 0.53002 0.0
H342 H 0.14679 0.94574 0.63266 0.0
H343 H 0.08569 0.85092 0.57802 0.0
H344 H 0.18801 0.79701 0.61832 0.0
H345 H 0.14715 0.83378 0.57147 0.0
H346 H 0.15283 0.90963 0.70959 0.0
H347 H 0.19413 0.87284 0.75681 0.0
C348 C 0.09898 0.95163 0.58291 0.0
C349 C 0.06929 0.93482 0.55337 0.0
C350 C 0.12393 0.93222 0.61069 0.0
C351 C 0.11981 0.89561 0.6089 0.0
C352 C 0.08993 0.87898 0.57955 0.0
C353 C 0.06495 0.89837 0.55224 0.0
C354 C 0.18083 0.82162 0.63878 0.0
C355 C 0.19431 0.83186 0.6915 0.0
C356 C 0.1572 0.8426 0.61193 0.0
C357 C 0.14651 0.87448 0.63694 0.0
C358 C 0.1607 0.88529 0.68916 0.0
C359 C 0.18425 0.86413 0.71626 0.0
H360 H 0.37445 0.77333 0.82488 0.0
H361 H 0.30599 0.8586 0.79397 0.0
H362 H 0.41357 0.81299 0.88543 0.0
H363 H 0.3465 0.89938 0.85071 0.0
H364 H 0.49504 0.89465 0.95507 0.0
H365 H 0.45548 0.85589 0.89378 0.0
H366 H 0.36809 0.9201 0.93433 0.0
H367 H 0.40868 0.96038 0.99185 0.0
C368 C 0.36826 0.80085 0.83044 0.0
C369 C 0.33749 0.81312 0.80486 0.0
C370 C 0.3908 0.82378 0.86483 0.0
C371 C 0.38364 0.85977 0.87306 0.0
C372 C 0.35277 0.87189 0.8466 0.0
C373 C 0.32965 0.84866 0.81355 0.0
C374 C 0.46732 0.90031 0.95059 0.0
C375 C 0.45468 0.93019 0.97813 0.0
C376 C 0.44446 0.87796 0.91577 0.0
C377 C 0.40821 0.88438 0.90905 0.0
C378 C 0.39576 0.91442 0.93728 0.0
C379 C 0.41889 0.93739 0.97077 0.0
H380 H 0.39426 0.07237 0.03194 0.0
H381 H 0.47072 0.07835 0.16962 0.0
H382 H 0.35762 0.11355 0.07983 0.0
H383 H 0.43407 0.11911 0.21715 0.0
H384 H 0.2881 0.16364 0.20602 0.0
H385 H 0.32181 0.11973 0.1573 0.0
H386 H 0.41705 0.18057 0.21064 0.0
H387 H 0.3835 0.22427 0.25875 0.0
C388 C 0.40313 0.08218 0.07247 0.0
C389 C 0.43554 0.07214 0.09678 0.0
C390 C 0.38205 0.10566 0.09994 0.0
C391 C 0.39309 0.1198 0.15211 0.0
C392 C 0.42507 0.10909 0.17673 0.0
C393 C 0.44599 0.08552 0.1495 0.0
C394 C 0.31619 0.16767 0.2069 0.0
C395 C 0.33319 0.19738 0.23606 0.0
C396 C 0.33547 0.14258 0.17904 0.0
C397 C 0.37212 0.14657 0.18042 0.0
C398 C 0.38894 0.17644 0.20944 0.0
C399 C 0.3697 0.20156 0.23681 0.0
H400 H 0.89764 0.93537 0.51563 0.0
H401 H 0.96339 0.95191 0.66439 0.0
H402 H 0.85782 0.89828 0.55482 0.0
H403 H 0.92422 0.91409 0.70305 0.0
H404 H 0.83053 0.87 0.77151 0.0
H405 H 0.8673 0.91007 0.73225 0.0
H406 H 0.85486 0.84183 0.58553 0.0
H407 H 0.81732 0.80236 0.62422 0.0
C408 C 0.90368 0.93107 0.55664 0.0
C409 C 0.93378 0.94666 0.58678 0.0
C410 C 0.88092 0.90959 0.57908 0.0
C411 C 0.88777 0.90303 0.63214 0.0
C412 C 0.91775 0.91891 0.66233 0.0
C413 C 0.9404 0.94049 0.63999 0.0
C414 C 0.83553 0.8636 0.73081 0.0
C415 C 0.82094 0.83292 0.7011 0.0
C416 C 0.85681 0.8865 0.70834 0.0
C417 C 0.86419 0.87923 0.65567 0.0
C418 C 0.84937 0.84862 0.62591 0.0
C419 C 0.82796 0.82582 0.64828 0.0
H420 H 0.97515 0.1329 0.51061 0.0
H421 H 0.91468 0.03741 0.45843 0.0
H422 H 0.93096 0.16622 0.4632 0.0
H423 H 0.87027 0.07088 0.41046 0.0
H424 H 0.82805 0.21933 0.42409 0.0
H425 H 0.86938 0.18292 0.4708 0.0
H426 H 0.86335 0.10665 0.33315 0.0
H427 H 0.82162 0.14307 0.28607 0.0
C428 C 0.95237 0.11903 0.48894 0.0
C429 C 0.94836 0.08257 0.48817 0.0
C430 C 0.92697 0.13814 0.46197 0.0
C431 C 0.89699 0.12123 0.43333 0.0
C432 C 0.89319 0.08461 0.43191 0.0
C433 C 0.91856 0.06548 0.45936 0.0
C434 C 0.83524 0.19469 0.40372 0.0
C435 C 0.82157 0.18424 0.35114 0.0
C436 C 0.85914 0.17392 0.43048 0.0
C437 C 0.86989 0.14205 0.40553 0.0
C438 C 0.85544 0.13099 0.35352 0.0
C439 C 0.83164 0.15194 0.32651 0.0
H440 H 0.70959 0.15783 0.24476 0.0
H441 H 0.64343 0.24464 0.21285 0.0
H442 H 0.66992 0.11834 0.18432 0.0
H443 H 0.60525 0.20627 0.14886 0.0
H444 H 0.52391 0.12594 0.07272 0.0
H445 H 0.56263 0.16375 0.13674 0.0
H446 H 0.65043 0.09929 0.09902 0.0
H447 H 0.6106 0.05997 0.03855 0.0
C448 C 0.68661 0.16839 0.22422 0.0
C449 C 0.67914 0.20397 0.23368 0.0
C450 C 0.664 0.1459 0.18905 0.0
C451 C 0.63406 0.15884 0.16128 0.0
C452 C 0.62728 0.19488 0.17034 0.0
C453 C 0.64928 0.21705 0.20676 0.0
C454 C 0.55155 0.12005 0.07834 0.0
C455 C 0.56449 0.09035 0.05078 0.0
C456 C 0.57392 0.14184 0.11477 0.0
C457 C 0.61002 0.13502 0.12319 0.0
C458 C 0.62283 0.10523 0.09478 0.0
C459 C 0.60015 0.08283 0.05961 0.0
H460 H 0.73051 0.85271 0.82689 0.0
H461 H 0.6342 0.79403 0.77235 0.0
H462 H 0.69719 0.89796 0.87351 0.0
H463 H 0.60102 0.83903 0.81859 0.0
H464 H 0.62475 0.94778 0.99665 0.0
H465 H 0.66092 0.90565 0.94973 0.0
H466 H 0.58527 0.90064 0.81152 0.0
H467 H 0.54904 0.94237 0.85818 0.0
C468 C 0.70228 0.84944 0.82509 0.0
C469 C 0.68493 0.81987 0.79608 0.0
C470 C 0.68322 0.87528 0.85181 0.0
C471 C 0.64645 0.87218 0.84948 0.0
C472 C 0.62925 0.84248 0.8205 0.0
C473 C 0.64828 0.81661 0.79424 0.0
C474 C 0.61597 0.93792 0.95611 0.0
C475 C 0.58388 0.94837 0.93133 0.0
C476 C 0.63678 0.91388 0.92918 0.0
C477 C 0.62581 0.89959 0.87707 0.0
C478 C 0.59419 0.91076 0.85191 0.0
C479 C 0.57353 0.9349 0.87863 0.0
H480 H 0.59934 0.60552 0.02389 0.0
H481 H 0.57772 0.53951 0.87619 0.0
H482 H 0.63757 0.64302 0.98292 0.0
H483 H 0.61758 0.57562 0.83572 0.0
H484 H 0.66093 0.66727 0.76191 0.0
H485 H 0.62376 0.62871 0.80289 0.0
H486 H 0.69073 0.64986 0.95026 0.0
H487 H 0.7265 0.68995 0.90976 0.0
C488 C 0.60327 0.59869 0.98283 0.0
C489 C 0.58545 0.56962 0.95327 0.0
C490 C 0.62542 0.6201 0.95925 0.0
C491 C 0.6309 0.61259 0.9057 0.0
C492 C 0.61357 0.5829 0.8766 0.0
C493 C 0.59087 0.56193 0.89993 0.0
C494 C 0.66772 0.66354 0.80301 0.0
C495 C 0.69656 0.68174 0.83261 0.0
C496 C 0.64651 0.6412 0.8266 0.0
C497 C 0.654 0.63593 0.88019 0.0
C498 C 0.68346 0.65368 0.90934 0.0
C499 C 0.70422 0.67654 0.886 0.0
H500 H 0.69055 0.29735 0.11433 0.0
H501 H 0.69643 0.37331 0.25265 0.0
H502 H 0.64934 0.33383 0.06751 0.0
H503 H 0.65478 0.40976 0.20553 0.0
H504 H 0.54378 0.38393 0.02671 0.0
H505 H 0.58787 0.35045 0.07401 0.0
H506 H 0.64794 0.44584 0.12907 0.0
H507 H 0.60362 0.47947 0.08128 0.0
C508 C 0.68326 0.32193 0.13475 0.0
C509 C 0.69677 0.33229 0.18742 0.0
C510 C 0.65942 0.34275 0.10792 0.0
C511 C 0.64854 0.37455 0.13294 0.0
C512 C 0.66279 0.38549 0.18509 0.0
C513 C 0.68655 0.36451 0.21213 0.0
C514 C 0.56641 0.39778 0.04886 0.0
C515 C 0.57025 0.43431 0.05037 0.0
C516 C 0.59176 0.37857 0.07576 0.0
C517 C 0.62153 0.39545 0.10505 0.0
C518 C 0.62518 0.43212 0.10715 0.0
C519 C 0.59985 0.45135 0.07979 0.0
H520 H 0.90846 0.45866 0.49542 0.0
H521 H 0.99528 0.39286 0.46136 0.0
H522 H 0.86855 0.41877 0.43607 0.0
H523 H 0.95646 0.35447 0.39832 0.0
H524 H 0.8757 0.27282 0.32434 0.0
H525 H 0.91413 0.31176 0.38713 0.0
H526 H 0.84859 0.39903 0.35136 0.0
H527 H 0.8087 0.35899 0.29224 0.0
C528 C 0.91892 0.43571 0.47461 0.0
C529 C 0.95464 0.42841 0.48317 0.0
C530 C 0.8962 0.41298 0.44005 0.0
C531 C 0.90901 0.38308 0.41194 0.0
C532 C 0.94517 0.37646 0.42008 0.0
C533 C 0.9676 0.39859 0.45595 0.0
C534 C 0.86971 0.30039 0.33012 0.0
C535 C 0.83953 0.31312 0.30354 0.0
C536 C 0.89186 0.3229 0.36584 0.0
C537 C 0.8849 0.35891 0.37449 0.0
C538 C 0.85466 0.3715 0.34698 0.0
C539 C 0.83192 0.3487 0.31256 0.0
H540 H 0.88259 0.72295 0.762 0.0
H541 H 0.78689 0.66351 0.70637 0.0
H542 H 0.91623 0.67884 0.71481 0.0
H543 H 0.82067 0.61917 0.6587 0.0
H544 H 0.89378 0.57099 0.53524 0.0
H545 H 0.85714 0.6125 0.58249 0.0
H546 H 0.93257 0.61733 0.72095 0.0
H547 H 0.96923 0.57626 0.67401 0.0
C548 C 0.86875 0.7004 0.73966 0.0
C549 C 0.83213 0.69668 0.73778 0.0
C550 C 0.88804 0.67504 0.71282 0.0
C551 C 0.87115 0.64539 0.68324 0.0
C552 C 0.8344 0.64184 0.68085 0.0
C553 C 0.81508 0.66717 0.70813 0.0
C554 C 0.90241 0.5807 0.57589 0.0
C555 C 0.93456 0.57037 0.60068 0.0
C556 C 0.88134 0.60437 0.603 0.0
C557 C 0.8921 0.61842 0.65531 0.0
C558 C 0.9238 0.60741 0.68042 0.0
C559 C 0.94472 0.58365 0.65353 0.0
H560 H 0.29105 0.32673 0.12686 0.0
H561 H 0.35709 0.34757 0.27458 0.0
H562 H 0.32725 0.36681 0.08697 0.0
H563 H 0.39472 0.38596 0.23418 0.0
H564 H 0.44193 0.47527 0.16255 0.0
H565 H 0.40178 0.4392 0.20255 0.0
H566 H 0.38029 0.37342 0.05406 0.0
H567 H 0.41878 0.41094 1.01361 0.0
C568 C 0.31351 0.33975 0.15072 0.0
C569 C 0.32116 0.33407 0.2039 0.0
C570 C 0.33454 0.36257 0.12773 0.0
C571 C 0.36427 0.37975 0.15701 0.0
C572 C 0.37177 0.37396 0.21039 0.0
C573 C 0.35029 0.3517 0.23364 0.0
C574 C 0.4284 0.45321 0.13844 0.0
C575 C 0.43344 0.446 0.08489 0.0
C576 C 0.40553 0.43225 0.16149 0.0
C577 C 0.38765 0.40304 0.13187 0.0
C578 C 0.39283 0.39597 0.07814 0.0
C579 C 0.41515 0.41739 0.05486 0.0
H580 H 0.41427 0.5364 0.95771 0.0
H581 H 0.47431 0.63201 1.01092 0.0
H582 H 0.36941 0.56999 0.91089 0.0
H583 H 0.42967 0.66545 0.96469 0.0
H584 H 0.32649 0.71832 0.92693 0.0
H585 H 0.36801 0.68171 0.97295 0.0
H586 H 0.36211 0.60633 0.83426 0.0
H587 H 0.32022 0.64293 0.78789 0.0
C588 C 0.41796 0.56452 0.95912 0.0
C589 C 0.44779 0.5816 0.98784 0.0
C590 C 0.39232 0.58373 0.93234 0.0
C591 C 0.39588 0.6204 0.93439 0.0
C592 C 0.42586 0.63731 0.963 0.0
C593 C 0.45153 0.61813 0.98928 0.0
C594 C 0.33377 0.69384 0.90618 0.0
C595 C 0.32011 0.68371 0.85351 0.0
C596 C 0.35776 0.67295 0.93256 0.0
C597 C 0.3686 0.64128 0.9071 0.0
C598 C 0.35413 0.63051 0.85501 0.0
C599 C 0.33024 0.65157 0.8284 0.0
H600 H 0.20806 0.65716 0.74909 0.0
H601 H 0.14131 0.74353 0.71714 0.0
H602 H 0.16855 0.6174 0.68884 0.0
H603 H 0.10328 0.7049 0.6533 0.0
H604 H 0.0226 0.62405 0.57677 0.0
H605 H 0.06097 0.66207 0.64099 0.0
H606 H 0.14932 0.59835 0.60347 0.0
H607 H 0.10984 0.5588 0.54282 0.0
C608 C 0.18497 0.66755 0.72858 0.0
C609 C 0.17731 0.7031 0.73793 0.0
C610 C 0.16246 0.64492 0.69352 0.0
C611 C 0.13243 0.65767 0.66573 0.0
C612 C 0.12541 0.69365 0.67477 0.0
C613 C 0.14732 0.71598 0.7111 0.0
C614 C 0.05028 0.61836 0.58248 0.0
C615 C 0.06349 0.58881 0.55493 0.0
C616 C 0.07245 0.64027 0.61903 0.0
C617 C 0.1086 0.63371 0.62757 0.0
C618 C 0.12167 0.60407 0.59916 0.0
C619 C 0.09919 0.58154 0.56388 0.0
H620 H 0.13508 0.29259 0.27829 0.0
H621 H 0.23089 0.35237 0.3318 0.0
H622 H 0.1016 0.33719 0.32472 0.0
H623 H 0.19724 0.39724 0.37867 0.0
H624 H 0.12451 0.44679 0.50167 0.0
H625 H 0.16104 0.40487 0.45505 0.0
H626 H 0.08514 0.39852 0.317 0.0
H627 H 0.04855 0.44002 0.36336 0.0
C628 C 0.14899 0.31531 0.30003 0.0
C629 C 0.18558 0.31901 0.30147 0.0
C630 C 0.12978 0.34096 0.3264 0.0
C631 C 0.14673 0.37088 0.35509 0.0
C632 C 0.18347 0.37437 0.35717 0.0
C633 C 0.20271 0.34874 0.33035 0.0
C634 C 0.11574 0.43667 0.46123 0.0
C635 C 0.08348 0.44668 0.4364 0.0
C636 C 0.13677 0.41275 0.43448 0.0
C637 C 0.12584 0.39815 0.3825 0.0
C638 C 0.09404 0.40888 0.3573 0.0
C639 C 0.07316 0.43288 0.38384 0.0
H640 H 0.07216 0.04666 0.92171 0.0
H641 H 0.97663 0.98676 0.86634 0.0
H642 H 0.06376 0.03821 1.01236 0.0
H643 H 0.96821 0.97827 0.95725 0.0
H644 H 0.9826 0.94208 0.12277 0.0
H645 H 0.9922 0.94891 0.03187 0.0
H646 H 0.02573 0.05666 0.07908 0.0
H647 H 0.01751 0.04942 0.17032 0.0
C648 C 0.0492 0.03188 0.92887 0.0
C649 C 0.02496 0.01759 0.88661 0.0
C650 C 0.04437 0.02705 0.98095 0.0
C651 C 0.01519 1.00773 0.99228 0.0
C652 C 0.9912 0.99296 0.94999 0.0
C653 C 0.99603 0.99781 0.8978 0.0
C654 C 0.99243 0.96712 0.11393 0.0
C655 C 0.99937 0.99516 0.15406 0.0
C656 C 0.99751 0.97116 0.0616 0.0
C657 C 0.00973 1.00334 0.04801 0.0
C658 C 0.01669 0.03137 0.08814 0.0
C659 C 0.01157 0.02735 0.14045 0.0
H660 H 0.20652 0.72463 0.38519 0.0
H661 H 0.31526 0.75899 0.41527 0.0
H662 H 0.20612 0.73564 0.29315 0.0
H663 H 0.31502 0.76968 0.3232 0.0
H664 H 0.29177 0.81949 0.16922 0.0
H665 H 0.29238 0.80811 0.26094 0.0
H666 H 0.22825 0.71449 0.21161 0.0
H667 H 0.22638 0.72674 0.11997 0.0
C668 C 0.23044 0.73428 0.37209 0.0
C669 C 0.2609 0.74099 0.40781 0.0
C670 C 0.23025 0.74053 0.31918 0.0
C671 C 0.26055 0.75355 0.30044 0.0
C672 C 0.29101 0.76022 0.33623 0.0
C673 C 0.29115 0.75409 0.38915 0.0
C674 C 0.27756 0.7966 0.17788 0.0
C675 C 0.2589 0.77414 0.13696 0.0
C676 C 0.27825 0.78982 0.23059 0.0
C677 C 0.26033 0.76037 0.244 0.0
C678 C 0.242 0.73768 0.20301 0.0
C679 C 0.24132 0.74445 0.15026 0.0
H680 H 0.54868 0.02323 0.66496 0.0
H681 H 0.4377 1.00538 0.61741 0.0
H682 H 0.55915 0.02186 0.57254 0.0
H683 H 0.44837 1.0034 0.52511 0.0
H684 H 0.48761 0.96352 0.36582 0.0
H685 H 0.47666 0.96606 0.45824 0.0
H686 H 0.54718 0.05609 0.49639 0.0
H687 H 0.55869 0.05309 0.40403 0.0
C688 C 0.52645 0.01925 0.63495 0.0
C689 C 0.49231 0.01438 0.64896 0.0
C690 C 0.53249 0.01844 0.58188 0.0
C691 C 0.50461 0.01251 0.54135 0.0
C692 C 0.47052 1.00754 0.55526 0.0
C693 C 0.46443 0.00856 0.60831 0.0
C694 C 0.50088 0.98378 0.39396 0.0
C695 C 0.52409 1.00805 0.37749 0.0
C696 C 0.49437 0.98543 0.44687 0.0
C697 C 0.51107 0.01125 0.48481 0.0
C698 C 0.53414 0.03565 0.46831 0.0
C699 C 0.54045 0.03417 0.41527 0.0
H700 H 0.25253 0.18901 0.87679 0.0
H701 H 0.24538 0.30117 0.91219 0.0
H702 H 0.2593 0.19653 0.78517 0.0
H703 H 0.25171 0.30858 0.82027 0.0
H704 H 0.22737 0.30427 0.64009 0.0
H705 H 0.21938 0.29586 0.73128 0.0
H706 H 0.30219 0.22067 0.73276 0.0
H707 H 0.30965 0.22852 0.64131 0.0
C708 C 0.25274 0.21532 0.86524 0.0
C709 C 0.2485 0.24449 0.90209 0.0
C710 C 0.25653 0.2196 0.81261 0.0
C711 C 0.25601 0.25315 0.79536 0.0
C712 C 0.2517 0.28233 0.83209 0.0
C713 C 0.24806 0.27807 0.88481 0.0
C714 C 0.24359 0.28566 0.65972 0.0
C715 C 0.26915 0.26707 0.63345 0.0
C716 C 0.23928 0.28113 0.71214 0.0
C717 C 0.26023 0.25768 0.73938 0.0
C718 C 0.28545 0.23874 0.71283 0.0
C719 C 0.28993 0.24346 0.66057 0.0
H720 H 0.78705 0.29413 0.92145 0.0
H721 H 0.73664 0.19281 0.87227 0.0
H722 H 0.78589 0.30512 0.82938 0.0
H723 H 0.73431 0.20437 0.78024 0.0
H724 H 0.77188 0.22134 0.61986 0.0
H725 H 0.773 0.20991 0.71181 0.0
H726 H 0.74499 0.31698 0.75477 0.0
H727 H 0.74358 0.32837 0.66296 0.0
C728 C 0.7757 0.27417 0.89104 0.0
C729 C 0.762 0.24253 0.90448 0.0
C730 C 0.77468 0.28064 0.83818 0.0
C731 C 0.75999 0.25565 0.79724 0.0
C732 C 0.74617 0.22406 0.81065 0.0
C733 C 0.74711 0.21761 0.86354 0.0
C734 C 0.76565 0.24239 0.64878 0.0
C735 C 0.75774 0.27584 0.63374 0.0
C736 C 0.7663 0.23582 0.7016 0.0
C737 C 0.75913 0.26252 0.74086 0.0
C738 C 0.75121 0.29593 0.72582 0.0
C739 C 0.75047 0.30248 0.67304 0.0
H740 H 0.78857 0.70331 0.3927 0.0
H741 H 0.71449 0.78706 0.39465 0.0
H742 H 0.79627 0.7102 0.30102 0.0
H743 H 0.72236 0.79419 0.30324 0.0
H744 H 0.71637 0.77375 0.12423 0.0
H745 H 0.70899 0.76485 0.21519 0.0
H746 H 0.82045 0.7496 0.24613 0.0
H747 H 0.82759 0.7571 0.15459 0.0
C748 C 0.77424 0.72348 0.37377 0.0
C749 C 0.75085 0.74457 0.40104 0.0
C750 C 0.77863 0.72743 0.32114 0.0
C751 C 0.75981 0.75265 0.2945 0.0
C752 C 0.73675 0.77402 0.32207 0.0
C753 C 0.7323 0.77 0.37459 0.0
C754 C 0.73924 0.76799 0.15019 0.0
C755 C 0.77259 0.76618 0.13197 0.0
C756 C 0.73508 0.76334 0.20263 0.0
C757 C 0.76415 0.75672 0.23826 0.0
C758 C 0.79742 0.75439 0.2198 0.0
C759 C 0.80158 0.75908 0.16738 0.0
H760 H 0.51589 0.4451 0.63523 0.0
H761 H 0.48348 0.55247 0.65849 0.0
H762 H 0.52488 0.45231 0.544 0.0
H763 H 0.49177 0.55945 0.56701 0.0
H764 H 0.54784 0.56929 0.41933 0.0
H765 H 0.53991 0.56183 0.51052 0.0
H766 H 0.48943 0.46079 0.45972 0.0
H767 H 0.49681 0.46843 0.36816 0.0
C768 C 0.51086 0.47029 0.62094 0.0
C769 C 0.49901 0.49823 0.65415 0.0
C770 C 0.51566 0.4743 0.56852 0.0
C771 C 0.50899 0.50643 0.54819 0.0
C772 C 0.49743 0.53445 0.58155 0.0
C773 C 0.49238 0.53036 0.63383 0.0
C774 C 0.53465 0.54564 0.42738 0.0
C775 C 0.5228 0.51955 0.38614 0.0
C776 C 0.53019 0.54134 0.47977 0.0
C777 C 0.51398 0.51075 0.49241 0.0
C778 C 0.50242 0.48449 0.45136 0.0
C779 C 0.50669 0.48887 0.39886 0.0
H780 H 0.01473 0.45032 0.87971 0.0
H781 H 0.03321 0.56244 0.89939 0.0
H782 H 1.00298 0.45249 0.97181 0.0
H783 H 0.02224 0.5645 0.9918 0.0
H784 H 0.96212 0.55897 0.13675 0.0
H785 H 0.97343 0.55653 0.0447 0.0
H786 H 0.03418 0.46374 0.06147 0.0
H787 H 0.02331 0.46638 0.15394 0.0
C788 C 0.01614 0.47546 0.90363 0.0
C789 C 0.02484 0.50622 0.88209 0.0
C790 C 0.00978 0.47664 0.95659 0.0
C791 C 0.0117 0.50866 0.98928 0.0
C792 C 0.02023 0.53944 0.96765 0.0
C793 C 0.02684 0.53822 0.91479 0.0
C794 C 0.97826 0.53825 0.12113 0.0
C795 C 0.99192 0.51297 0.15311 0.0
C796 C 0.98468 0.53683 0.06821 0.0
C797 C 1.00478 0.50999 0.04565 0.0
C798 C 0.01822 0.48452 0.07739 0.0
C799 C 0.01194 0.48603 0.13045 0.0
loop_
_geom_bond_atom_site_label_1
_geom_bond_atom_site_label_2
_geom_bond_distance
_geom_bond_site_symmetry_2
_ccdc_geom_bond_type
Gd0 C3 2.818 1_655 S
Gd0 O20 2.377 1_665 S
Gd0 O22 2.448 1_655 S
Gd0 O23 2.506 . S
Gd0 O24 2.435 1_655 S
Gd0 O25 2.717 1_655 S
Gd0 O27 2.395 . S
Gd0 O31 2.327 1_565 S
Gd1 C12 2.818 1_455 S
Gd1 O21 2.395 . S
Gd1 O25 2.327 1_545 S
Gd1 O26 2.377 1_445 S
Gd1 O28 2.448 1_455 S
Gd1 O29 2.506 . S
Gd1 O30 2.435 1_455 S
Gd1 O31 2.717 1_455 S
C2 O20 1.240 . S
C2 O21 1.240 . S
C3 Gd0 2.818 1_455 S
C3 C4 1.510 . S
C3 O22 1.249 . S
C3 O23 1.252 1_455 S
C4 C3 1.510 . S
C4 C5 1.404 . S
C4 C6 1.352 1_565 S
C5 C4 1.404 . S
C5 C9 1.389 . S
C5 H32 0.930 . S
C6 C4 1.352 1_545 S
C6 C8 1.374 . S
C6 H33 0.931 1_455 S
C7 C8 1.359 1_565 S
C7 C9 1.364 . S
C8 C6 1.374 . S
C8 C7 1.359 1_545 S
C8 H34 0.937 . S
C9 C5 1.389 . S
C9 C7 1.364 . S
C9 H35 0.931 . S
C10 O24 1.256 . S
C10 O25 1.257 . S
C11 O26 1.240 . S
C11 O27 1.240 . S
C12 Gd1 2.818 1_655 S
C12 C13 1.510 . S
C12 O28 1.249 . S
C12 O29 1.252 1_655 S
C13 C12 1.510 . S
C13 C14 1.404 . S
C13 C15 1.352 1_545 S
C14 C13 1.404 . S
C14 C18 1.389 . S
C14 H36 0.930 . S
C15 C13 1.352 1_565 S
C15 C17 1.374 . S
C15 H37 0.931 1_655 S
C16 C17 1.359 1_545 S
C16 C18 1.364 . S
C17 C15 1.374 . S
C17 C16 1.359 1_565 S
C17 H38 0.935 . S
C18 C14 1.389 . S
C18 C16 1.364 . S
C18 H39 0.931 . S
C19 O30 1.256 . S
C19 O31 1.257 . S
O20 Gd0 2.377 1_445 S
O20 C2 1.240 . S
O21 Gd1 2.395 . S
O21 C2 1.240 . S
O22 Gd0 2.448 1_455 S
O22 C3 1.249 . S
O23 Gd0 2.506 . S
O23 C3 1.252 1_655 S
O24 Gd0 2.435 1_455 S
O24 C10 1.256 . S
O25 Gd0 2.717 1_455 S
O25 Gd1 2.327 1_565 S
O25 C10 1.257 . S
O26 Gd1 2.377 1_665 S
O26 C11 1.240 . S
O27 Gd0 2.395 . S
O27 C11 1.240 . S
O28 Gd1 2.448 1_655 S
O28 C12 1.249 . S
O29 Gd1 2.506 . S
O29 C12 1.252 1_455 S
O30 Gd1 2.435 1_655 S
O30 C19 1.256 . S
O31 Gd0 2.327 1_545 S
O31 Gd1 2.717 1_655 S
O31 C19 1.257 . S
H32 C5 0.930 . S
H33 C6 0.931 1_655 S
H34 C8 0.937 . S
H35 C9 0.931 . S
H36 C14 0.930 . S
H37 C15 0.931 1_455 S
H38 C17 0.935 . S
H39 C18 0.931 . S
Gd40 C43 2.818 . S
Gd40 O60 2.377 . S
Gd40 O62 2.448 . S
Gd40 O63 2.506 . S
Gd40 O64 2.435 . S
Gd40 O65 2.717 . S
Gd40 O67 2.395 . S
Gd40 O71 2.327 . S
Gd41 C52 2.818 . S
Gd41 O61 2.395 . S
Gd41 O65 2.327 . S
Gd41 O66 2.377 . S
Gd41 O68 2.448 . S
Gd41 O69 2.506 . S
Gd41 O70 2.435 . S
Gd41 O71 2.717 . S
C42 O60 1.240 . S
C42 O61 1.240 . S
C43 Gd40 2.818 . S
C43 C44 1.510 . S
C43 O62 1.249 . S
C43 O63 1.252 . S
C44 C43 1.510 . S
C44 C45 1.404 . S
C44 C46 1.352 . S
C45 C44 1.404 . S
C45 C49 1.389 . S
C45 H72 0.930 . S
C46 C44 1.352 . S
C46 C48 1.374 . S
C46 H73 0.931 . S
C47 C48 1.359 . S
C47 C49 1.364 . S
C48 C46 1.374 . S
C48 C47 1.359 . S
C48 H74 0.931 . S
C49 C45 1.389 . S
C49 C47 1.364 . S
C49 H75 0.931 . S
C50 O64 1.256 . S
C50 O65 1.257 . S
C51 O66 1.240 . S
C51 O67 1.240 . S
C52 Gd41 2.818 . S
C52 C53 1.510 . S
C52 O68 1.249 . S
C52 O69 1.252 . S
C53 C52 1.510 . S
C53 C54 1.404 . S
C53 C55 1.352 . S
C54 C53 1.404 . S
C54 C58 1.389 1_556 S
C54 H76 0.930 . S
C55 C53 1.352 . S
C55 C57 1.374 1_556 S
C55 H77 0.931 . S
C56 C57 1.359 . S
C56 C58 1.364 . S
C57 C55 1.374 1_554 S
C57 C56 1.359 . S
C57 H78 0.931 . S
C58 C54 1.389 1_554 S
C58 C56 1.364 . S
C58 H79 0.931 . S
C59 O70 1.256 . S
C59 O71 1.257 . S
O60 Gd40 2.377 . S
O60 C42 1.240 . S
O61 Gd41 2.395 . S
O61 C42 1.240 . S
O62 Gd40 2.448 . S
O62 C43 1.249 . S
O63 Gd40 2.506 . S
O63 C43 1.252 . S
O64 Gd40 2.435 . S
O64 C50 1.256 . S
O65 Gd40 2.717 . S
O65 Gd41 2.327 . S
O65 C50 1.257 . S
O66 Gd41 2.377 . S
O66 C51 1.240 . S
O67 Gd40 2.395 . S
O67 C51 1.240 . S
O68 Gd41 2.448 . S
O68 C52 1.249 . S
O69 Gd41 2.506 . S
O69 C52 1.252 . S
O70 Gd41 2.435 . S
O70 C59 1.256 . S
O71 Gd40 2.327 . S
O71 Gd41 2.717 . S
O71 C59 1.257 . S
H72 C45 0.930 . S
H73 C46 0.931 . S
H74 C48 0.931 . S
H75 C49 0.931 . S
H76 C54 0.930 . S
H77 C55 0.931 . S
H78 C57 0.931 . S
H79 C58 0.931 . S
Gd80 C83 2.818 . S
Gd80 O100 2.377 1_565 S
Gd80 O102 2.448 . S
Gd80 O103 2.506 1_565 S
Gd80 O104 2.435 . S
Gd80 O105 2.717 1_554 S
Gd80 O107 2.395 1_554 S
Gd80 O111 2.327 1_565 S
Gd81 C92 2.818 . S
Gd81 O101 2.395 1_556 S
Gd81 O105 2.327 1_545 S
Gd81 O106 2.377 1_545 S
Gd81 O108 2.448 . S
Gd81 O109 2.506 1_545 S
Gd81 O110 2.435 . S
Gd81 O111 2.717 1_556 S
C82 O100 1.240 . S
C82 O101 1.240 . S
C83 Gd80 2.818 . S
C83 C84 1.510 . S
C83 O102 1.249 . S
C83 O103 1.252 1_565 S
C84 C83 1.510 . S
C84 C85 1.404 . S
C84 C86 1.352 1_565 S
C85 C84 1.404 . S
C85 C89 1.389 . S
C85 H112 0.930 . S
C86 C84 1.352 1_545 S
C86 C88 1.374 . S
C86 H113 0.931 . S
C87 C88 1.359 . S
C87 C89 1.364 1_545 S
C88 C86 1.374 . S
C88 C87 1.359 . S
C88 H114 0.931 . S
C89 C85 1.389 . S
C89 C87 1.364 1_565 S
C89 H115 0.931 . S
C90 O104 1.256 1_556 S
C90 O105 1.257 . S
C91 O106 1.240 . S
C91 O107 1.240 . S
C92 Gd81 2.818 . S
C92 C93 1.510 . S
C92 O108 1.249 . S
C92 O109 1.252 1_545 S
C93 C92 1.510 . S
C93 C94 1.404 . S
C93 C95 1.352 1_545 S
C94 C93 1.404 . S
C94 C98 1.389 . S
C94 H116 0.930 . S
C95 C93 1.352 1_565 S
C95 C97 1.374 . S
C95 H117 0.931 . S
C96 C97 1.359 . S
C96 C98 1.364 1_565 S
C97 C95 1.374 . S
C97 C96 1.359 . S
C97 H118 0.931 . S
C98 C94 1.389 . S
C98 C96 1.364 1_545 S
C98 H119 0.931 . S
C99 O110 1.256 1_554 S
C99 O111 1.257 . S
O100 Gd80 2.377 1_545 S
O100 C82 1.240 . S
O101 Gd81 2.395 1_554 S
O101 C82 1.240 . S
O102 Gd80 2.448 . S
O102 C83 1.249 . S
O103 Gd80 2.506 1_545 S
O103 C83 1.252 1_545 S
O104 Gd80 2.435 . S
O104 C90 1.256 1_554 S
O105 Gd80 2.717 1_556 S
O105 Gd81 2.327 1_565 S
O105 C90 1.257 . S
O106 Gd81 2.377 1_565 S
O106 C91 1.240 . S
O107 Gd80 2.395 1_556 S
O107 C91 1.240 . S
O108 Gd81 2.448 . S
O108 C92 1.249 . S
O109 Gd81 2.506 1_565 S
O109 C92 1.252 1_565 S
O110 Gd81 2.435 . S
O110 C99 1.256 1_556 S
O111 Gd80 2.327 1_545 S
O111 Gd81 2.717 1_554 S
O111 C99 1.257 . S
H112 C85 0.930 . S
H113 C86 0.931 . S
H114 C88 0.931 . S
H115 C89 0.931 . S
H116 C94 0.930 . S
H117 C95 0.931 . S
H118 C97 0.931 . S
H119 C98 0.931 . S
Gd120 C123 2.818 . S
Gd120 O140 2.377 . S
Gd120 O142 2.448 . S
Gd120 O143 2.506 . S
Gd120 O144 2.435 . S
Gd120 O145 2.717 . S
Gd120 O147 2.395 . S
Gd120 O151 2.327 . S
Gd121 C132 2.818 . S
Gd121 O141 2.395 . S
Gd121 O145 2.327 . S
Gd121 O146 2.377 . S
Gd121 O148 2.448 . S
Gd121 O149 2.506 . S
Gd121 O150 2.435 . S
Gd121 O151 2.717 . S
C122 O140 1.240 . S
C122 O141 1.240 . S
C123 Gd120 2.818 . S
C123 C124 1.510 . S
C123 O142 1.249 . S
C123 O143 1.252 . S
C124 C123 1.510 . S
C124 C125 1.404 . S
C124 C126 1.352 . S
C125 C124 1.404 . S
C125 C129 1.389 . S
C125 H152 0.930 . S
C126 C124 1.352 . S
C126 C128 1.374 . S
C126 H153 0.931 . S
C127 C128 1.359 . S
C127 C129 1.364 . S
C128 C126 1.374 . S
C128 C127 1.359 . S
C128 H154 0.931 . S
C129 C125 1.389 . S
C129 C127 1.364 . S
C129 H155 0.931 . S
C130 O144 1.256 . S
C130 O145 1.257 . S
C131 O146 1.240 . S
C131 O147 1.240 . S
C132 Gd121 2.818 . S
C132 C133 1.510 . S
C132 O148 1.249 . S
C132 O149 1.252 . S
C133 C132 1.510 . S
C133 C134 1.404 . S
C133 C135 1.352 . S
C134 C133 1.404 . S
C134 C138 1.389 1_554 S
C134 H156 0.930 . S
C135 C133 1.352 . S
C135 C137 1.374 1_554 S
C135 H157 0.931 . S
C136 C137 1.359 . S
C136 C138 1.364 . S
C137 C135 1.374 1_556 S
C137 C136 1.359 . S
C137 H158 0.931 . S
C138 C134 1.389 1_556 S
C138 C136 1.364 . S
C138 H159 0.931 . S
C139 O150 1.256 . S
C139 O151 1.257 . S
O140 Gd120 2.377 . S
O140 C122 1.240 . S
O141 Gd121 2.395 . S
O141 C122 1.240 . S
O142 Gd120 2.448 . S
O142 C123 1.249 . S
O143 Gd120 2.506 . S
O143 C123 1.252 . S
O144 Gd120 2.435 . S
O144 C130 1.256 . S
O145 Gd120 2.717 . S
O145 Gd121 2.327 . S
O145 C130 1.257 . S
O146 Gd121 2.377 . S
O146 C131 1.240 . S
O147 Gd120 2.395 . S
O147 C131 1.240 . S
O148 Gd121 2.448 . S
O148 C132 1.249 . S
O149 Gd121 2.506 . S
O149 C132 1.252 . S
O150 Gd121 2.435 . S
O150 C139 1.256 . S
O151 Gd120 2.327 . S
O151 Gd121 2.717 . S
O151 C139 1.257 . S
H152 C125 0.930 . S
H153 C126 0.931 . S
H154 C128 0.931 . S
H155 C129 0.931 . S
H156 C134 0.930 . S
H157 C135 0.931 . S
H158 C137 0.931 . S
H159 C138 0.931 . S
Gd160 C163 2.818 . S
Gd160 O180 2.377 . S
Gd160 O182 2.448 . S
Gd160 O183 2.506 . S
Gd160 O184 2.435 . S
Gd160 O185 2.717 . S
Gd160 O187 2.395 . S
Gd160 O191 2.327 . S
Gd161 C172 2.818 . S
Gd161 O181 2.395 . S
Gd161 O185 2.327 . S
Gd161 O186 2.377 . S
Gd161 O188 2.448 . S
Gd161 O189 2.506 . S
Gd161 O190 2.435 . S
Gd161 O191 2.717 . S
C162 O180 1.240 . S
C162 O181 1.240 . S
C163 Gd160 2.818 . S
C163 C164 1.510 . S
C163 O182 1.249 . S
C163 O183 1.252 . S
C164 C163 1.510 . S
C164 C165 1.404 . S
C164 C166 1.352 . S
C165 C164 1.404 . S
C165 C169 1.389 1_554 S
C165 H192 0.930 . S
C166 C164 1.352 . S
C166 C168 1.374 1_554 S
C166 H193 0.931 . S
C167 C168 1.359 . S
C167 C169 1.364 . S
C168 C166 1.374 1_556 S
C168 C167 1.359 . S
C168 H194 0.931 . S
C169 C165 1.389 1_556 S
C169 C167 1.364 . S
C169 H195 0.931 . S
C170 O184 1.256 . S
C170 O185 1.257 . S
C171 O186 1.240 . S
C171 O187 1.240 . S
C172 Gd161 2.818 . S
C172 C173 1.510 . S
C172 O188 1.249 . S
C172 O189 1.252 . S
C173 C172 1.510 . S
C173 C174 1.404 . S
C173 C175 1.352 . S
C174 C173 1.404 . S
C174 C178 1.389 . S
C174 H196 0.930 . S
C175 C173 1.352 . S
C175 C177 1.374 . S
C175 H197 0.931 . S
C176 C177 1.359 . S
C176 C178 1.364 . S
C177 C175 1.374 . S
C177 C176 1.359 . S
C177 H198 0.931 . S
C178 C174 1.389 . S
C178 C176 1.364 . S
C178 H199 0.931 . S
C179 O190 1.256 . S
C179 O191 1.257 . S
O180 Gd160 2.377 . S
O180 C162 1.240 . S
O181 Gd161 2.395 . S
O181 C162 1.240 . S
O182 Gd160 2.448 . S
O182 C163 1.249 . S
O183 Gd160 2.506 . S
O183 C163 1.252 . S
O184 Gd160 2.435 . S
O184 C170 1.256 . S
O185 Gd160 2.717 . S
O185 Gd161 2.327 . S
O185 C170 1.257 . S
O186 Gd161 2.377 . S
O186 C171 1.240 . S
O187 Gd160 2.395 . S
O187 C171 1.240 . S
O188 Gd161 2.448 . S
O188 C172 1.249 . S
O189 Gd161 2.506 . S
O189 C172 1.252 . S
O190 Gd161 2.435 . S
O190 C179 1.256 . S
O191 Gd160 2.327 . S
O191 Gd161 2.717 . S
O191 C179 1.257 . S
H192 C165 0.930 . S
H193 C166 0.931 . S
H194 C168 0.931 . S
H195 C169 0.931 . S
H196 C174 0.930 . S
H197 C175 0.931 . S
H198 C177 0.931 . S
H199 C178 0.931 . S
Gd200 C203 2.818 . S
Gd200 O220 2.377 . S
Gd200 O222 2.448 . S
Gd200 O223 2.506 . S
Gd200 O224 2.435 . S
Gd200 O225 2.717 . S
Gd200 O227 2.395 . S
Gd200 O231 2.327 . S
Gd201 C212 2.818 . S
Gd201 O221 2.395 . S
Gd201 O225 2.327 . S
Gd201 O226 2.377 . S
Gd201 O228 2.448 . S
Gd201 O229 2.506 . S
Gd201 O230 2.435 . S
Gd201 O231 2.717 . S
C202 O220 1.240 . S
C202 O221 1.240 . S
C203 Gd200 2.818 . S
C203 C204 1.510 . S
C203 O222 1.249 . S
C203 O223 1.252 . S
C204 C203 1.510 . S
C204 C205 1.404 . S
C204 C206 1.352 . S
C205 C204 1.404 . S
C205 C209 1.389 1_556 S
C205 H232 0.930 . S
C206 C204 1.352 . S
C206 C208 1.374 1_556 S
C206 H233 0.931 . S
C207 C208 1.359 . S
C207 C209 1.364 . S
C208 C206 1.374 1_554 S
C208 C207 1.359 . S
C208 H234 0.931 . S
C209 C205 1.389 1_554 S
C209 C207 1.364 . S
C209 H235 0.931 . S
C210 O224 1.256 . S
C210 O225 1.257 . S
C211 O226 1.240 . S
C211 O227 1.240 . S
C212 Gd201 2.818 . S
C212 C213 1.510 . S
C212 O228 1.249 . S
C212 O229 1.252 . S
C213 C212 1.510 . S
C213 C214 1.404 . S
C213 C215 1.352 . S
C214 C213 1.404 . S
C214 C218 1.389 . S
C214 H236 0.930 . S
C215 C213 1.352 . S
C215 C217 1.374 . S
C215 H237 0.931 . S
C216 C217 1.359 . S
C216 C218 1.364 . S
C217 C215 1.374 . S
C217 C216 1.359 . S
C217 H238 0.931 . S
C218 C214 1.389 . S
C218 C216 1.364 . S
C218 H239 0.931 . S
C219 O230 1.256 . S
C219 O231 1.257 . S
O220 Gd200 2.377 . S
O220 C202 1.240 . S
O221 Gd201 2.395 . S
O221 C202 1.240 . S
O222 Gd200 2.448 . S
O222 C203 1.249 . S
O223 Gd200 2.506 . S
O223 C203 1.252 . S
O224 Gd200 2.435 . S
O224 C210 1.256 . S
O225 Gd200 2.717 . S
O225 Gd201 2.327 . S
O225 C210 1.257 . S
O226 Gd201 2.377 . S
O226 C211 1.240 . S
O227 Gd200 2.395 . S
O227 C211 1.240 . S
O228 Gd201 2.448 . S
O228 C212 1.249 . S
O229 Gd201 2.506 . S
O229 C212 1.252 . S
O230 Gd201 2.435 . S
O230 C219 1.256 . S
O231 Gd200 2.327 . S
O231 Gd201 2.717 . S
O231 C219 1.257 . S
H232 C205 0.930 . S
H233 C206 0.931 . S
H234 C208 0.931 . S
H235 C209 0.931 . S
H236 C214 0.930 . S
H237 C215 0.931 . S
H238 C217 0.931 . S
H239 C218 0.931 . S
Gd240 C243 2.818 . S
Gd240 O260 2.377 . S
Gd240 O262 2.448 . S
Gd240 O263 2.506 . S
Gd240 O264 2.435 . S
Gd240 O265 2.717 1_556 S
Gd240 O267 2.395 . S
Gd240 O271 2.327 . S
Gd241 C252 2.818 . S
Gd241 O261 2.395 . S
Gd241 O265 2.327 . S
Gd241 O266 2.377 . S
Gd241 O268 2.448 . S
Gd241 O269 2.506 . S
Gd241 O270 2.435 . S
Gd241 O271 2.717 1_554 S
C242 O260 1.240 . S
C242 O261 1.240 1_556 S
C243 Gd240 2.818 . S
C243 C244 1.510 . S
C243 O262 1.249 . S
C243 O263 1.252 . S
C244 C243 1.510 . S
C244 C245 1.404 . S
C244 C246 1.352 . S
C245 C244 1.404 . S
C245 C249 1.389 . S
C245 H272 0.930 . S
C246 C244 1.352 . S
C246 C248 1.374 . S
C246 H273 0.931 . S
C247 C248 1.359 . S
C247 C249 1.364 . S
C248 C246 1.374 . S
C248 C247 1.359 . S
C248 H274 0.931 . S
C249 C245 1.389 . S
C249 C247 1.364 . S
C249 H275 0.931 . S
C250 O264 1.256 1_554 S
C250 O265 1.257 . S
C251 O266 1.240 . S
C251 O267 1.240 1_554 S
C252 Gd241 2.818 . S
C252 C253 1.510 . S
C252 O268 1.249 . S
C252 O269 1.252 . S
C253 C252 1.510 . S
C253 C254 1.404 . S
C253 C255 1.352 . S
C254 C253 1.404 . S
C254 C258 1.389 . S
C254 H276 0.930 . S
C255 C253 1.352 . S
C255 C257 1.374 . S
C255 H277 0.931 . S
C256 C257 1.359 . S
C256 C258 1.364 . S
C257 C255 1.374 . S
C257 C256 1.359 . S
C257 H278 0.931 . S
C258 C254 1.389 . S
C258 C256 1.364 . S
C258 H279 0.931 . S
C259 O270 1.256 1_556 S
C259 O271 1.257 . S
O260 Gd240 2.377 . S
O260 C242 1.240 . S
O261 Gd241 2.395 . S
O261 C242 1.240 1_554 S
O262 Gd240 2.448 . S
O262 C243 1.249 . S
O263 Gd240 2.506 . S
O263 C243 1.252 . S
O264 Gd240 2.435 . S
O264 C250 1.256 1_556 S
O265 Gd240 2.717 1_554 S
O265 Gd241 2.327 . S
O265 C250 1.257 . S
O266 Gd241 2.377 . S
O266 C251 1.240 . S
O267 Gd240 2.395 . S
O267 C251 1.240 1_556 S
O268 Gd241 2.448 . S
O268 C252 1.249 . S
O269 Gd241 2.506 . S
O269 C252 1.252 . S
O270 Gd241 2.435 . S
O270 C259 1.256 1_554 S
O271 Gd240 2.327 . S
O271 Gd241 2.717 1_556 S
O271 C259 1.257 . S
H272 C245 0.930 . S
H273 C246 0.931 . S
H274 C248 0.931 . S
H275 C249 0.931 . S
H276 C254 0.930 . S
H277 C255 0.931 . S
H278 C257 0.931 . S
H279 C258 0.931 . S
Gd280 C283 2.818 1_455 S
Gd280 O300 2.377 1_455 S
Gd280 O302 2.448 1_455 S
Gd280 O303 2.506 . S
Gd280 O304 2.435 1_455 S
Gd280 O305 2.717 1_455 S
Gd280 O307 2.395 . S
Gd280 O311 2.327 . S
Gd281 C292 2.818 1_655 S
Gd281 O301 2.395 . S
Gd281 O305 2.327 . S
Gd281 O306 2.377 1_655 S
Gd281 O308 2.448 1_655 S
Gd281 O309 2.506 . S
Gd281 O310 2.435 1_655 S
Gd281 O311 2.717 1_655 S
C282 O300 1.240 . S
C282 O301 1.240 . S
C283 Gd280 2.818 1_655 S
C283 C284 1.510 . S
C283 O302 1.249 . S
C283 O303 1.252 1_655 S
C284 C283 1.510 . S
C284 C285 1.404 . S
C284 C286 1.356 . S
C285 C284 1.404 . S
C285 C289 1.389 . S
C285 H312 0.930 . S
C286 C284 1.356 . S
C286 C288 1.381 . S
C286 H313 0.920 1_655 S
C287 C288 1.359 . S
C287 C289 1.364 . S
C288 C286 1.381 . S
C288 C287 1.359 . S
C288 H314 0.931 1_655 S
C289 C285 1.389 . S
C289 C287 1.364 . S
C289 H315 0.931 . S
C290 O304 1.256 . S
C290 O305 1.257 . S
C291 O306 1.240 . S
C291 O307 1.240 . S
C292 Gd281 2.818 1_455 S
C292 C293 1.510 . S
C292 O308 1.249 . S
C292 O309 1.252 1_455 S
C293 C292 1.510 . S
C293 C294 1.404 . S
C293 C295 1.357 . S
C294 C293 1.404 . S
C294 C298 1.389 . S
C294 H316 0.930 . S
C295 C293 1.357 . S
C295 C297 1.383 . S
C295 H317 0.916 1_455 S
C296 C297 1.359 . S
C296 C298 1.364 . S
C297 C295 1.383 . S
C297 C296 1.359 . S
C297 H318 0.931 . S
C298 C294 1.389 . S
C298 C296 1.364 . S
C298 H319 0.931 . S
C299 O310 1.256 . S
C299 O311 1.257 . S
O300 Gd280 2.377 1_655 S
O300 C282 1.240 . S
O301 Gd281 2.395 . S
O301 C282 1.240 . S
O302 Gd280 2.448 1_655 S
O302 C283 1.249 . S
O303 Gd280 2.506 . S
O303 C283 1.252 1_455 S
O304 Gd280 2.435 1_655 S
O304 C290 1.256 . S
O305 Gd280 2.717 1_655 S
O305 Gd281 2.327 . S
O305 C290 1.257 . S
O306 Gd281 2.377 1_455 S
O306 C291 1.240 . S
O307 Gd280 2.395 . S
O307 C291 1.240 . S
O308 Gd281 2.448 1_455 S
O308 C292 1.249 . S
O309 Gd281 2.506 . S
O309 C292 1.252 1_655 S
O310 Gd281 2.435 1_455 S
O310 C299 1.256 . S
O311 Gd280 2.327 . S
O311 Gd281 2.717 1_455 S
O311 C299 1.257 . S
H312 C285 0.930 . S
H313 C286 0.920 1_455 S
H314 C288 0.931 1_455 S
H315 C289 0.931 . S
H316 C294 0.930 . S
H317 C295 0.916 1_655 S
H318 C297 0.931 . S
H319 C298 0.931 . S
H320 C328 0.950 . S
H321 C333 0.950 . S
H322 C330 0.950 . S
H323 C332 0.950 . S
H324 C334 0.950 . S
H325 C336 0.950 . S
H326 C338 0.950 . S
H327 C339 0.950 . S
C328 H320 0.950 . S
C328 C329 1.386 . S
C328 C330 1.391 . S
C329 C328 1.386 . S
C329 C333 1.393 . S
C330 H322 0.950 . S
C330 C328 1.391 . S
C330 C331 1.400 . S
C331 C330 1.400 . S
C331 C332 1.398 . S
C331 C337 1.491 . S
C332 H323 0.950 . S
C332 C331 1.398 . S
C332 C333 1.391 . S
C333 H321 0.950 . S
C333 C329 1.393 . S
C333 C332 1.391 . S
C334 H324 0.950 . S
C334 C335 1.386 . S
C334 C336 1.391 . S
C335 C334 1.386 . S
C335 C339 1.393 . S
C336 H325 0.950 . S
C336 C334 1.391 . S
C336 C337 1.400 . S
C337 C331 1.491 . S
C337 C336 1.400 . S
C337 C338 1.398 . S
C338 H326 0.950 . S
C338 C337 1.398 . S
C338 C339 1.391 . S
C339 H327 0.950 . S
C339 C335 1.393 . S
C339 C338 1.391 . S
H340 C348 0.950 . S
H341 C353 0.950 . S
H342 C350 0.950 . S
H343 C352 0.950 . S
H344 C354 0.950 . S
H345 C356 0.950 . S
H346 C358 0.950 . S
H347 C359 0.950 . S
C348 H340 0.950 . S
C348 C349 1.386 . S
C348 C350 1.391 . S
C349 C348 1.386 . S
C349 C353 1.393 . S
C350 H342 0.950 . S
C350 C348 1.391 . S
C350 C351 1.400 . S
C351 C350 1.400 . S
C351 C352 1.398 . S
C351 C357 1.491 . S
C352 H343 0.950 . S
C352 C351 1.398 . S
C352 C353 1.391 . S
C353 H341 0.950 . S
C353 C349 1.393 . S
C353 C352 1.391 . S
C354 H344 0.950 . S
C354 C355 1.386 . S
C354 C356 1.391 . S
C355 C354 1.386 . S
C355 C359 1.393 . S
C356 H345 0.950 . S
C356 C354 1.391 . S
C356 C357 1.400 . S
C357 C351 1.491 . S
C357 C356 1.400 . S
C357 C358 1.398 . S
C358 H346 0.950 . S
C358 C357 1.398 . S
C358 C359 1.391 . S
C359 H347 0.950 . S
C359 C355 1.393 . S
C359 C358 1.391 . S
H360 C368 0.950 . S
H361 C373 0.950 . S
H362 C370 0.950 . S
H363 C372 0.950 . S
H364 C374 0.950 . S
H365 C376 0.950 . S
H366 C378 0.950 . S
H367 C379 0.950 1_554 S
C368 H360 0.950 . S
C368 C369 1.386 . S
C368 C370 1.391 . S
C369 C368 1.386 . S
C369 C373 1.393 . S
C370 H362 0.950 . S
C370 C368 1.391 . S
C370 C371 1.400 . S
C371 C370 1.400 . S
C371 C372 1.398 . S
C371 C377 1.491 . S
C372 H363 0.950 . S
C372 C371 1.398 . S
C372 C373 1.391 . S
C373 H361 0.950 . S
C373 C369 1.393 . S
C373 C372 1.391 . S
C374 H364 0.950 . S
C374 C375 1.386 . S
C374 C376 1.391 . S
C375 C374 1.386 . S
C375 C379 1.393 . S
C376 H365 0.950 . S
C376 C374 1.391 . S
C376 C377 1.400 . S
C377 C371 1.491 . S
C377 C376 1.400 . S
C377 C378 1.398 . S
C378 H366 0.950 . S
C378 C377 1.398 . S
C378 C379 1.391 . S
C379 H367 0.950 1_556 S
C379 C375 1.393 . S
C379 C378 1.391 . S
H380 C388 0.950 . S
H381 C393 0.950 . S
H382 C390 0.950 . S
H383 C392 0.950 . S
H384 C394 0.950 . S
H385 C396 0.950 . S
H386 C398 0.950 . S
H387 C399 0.950 . S
C388 H380 0.950 . S
C388 C389 1.386 . S
C388 C390 1.391 . S
C389 C388 1.386 . S
C389 C393 1.393 . S
C390 H382 0.950 . S
C390 C388 1.391 . S
C390 C391 1.400 . S
C391 C390 1.400 . S
C391 C392 1.398 . S
C391 C397 1.491 . S
C392 H383 0.950 . S
C392 C391 1.398 . S
C392 C393 1.391 . S
C393 H381 0.950 . S
C393 C389 1.393 . S
C393 C392 1.391 . S
C394 H384 0.950 . S
C394 C395 1.386 . S
C394 C396 1.391 . S
C395 C394 1.386 . S
C395 C399 1.393 . S
C396 H385 0.950 . S
C396 C394 1.391 . S
C396 C397 1.400 . S
C397 C391 1.491 . S
C397 C396 1.400 . S
C397 C398 1.398 . S
C398 H386 0.950 . S
C398 C397 1.398 . S
C398 C399 1.391 . S
C399 H387 0.950 . S
C399 C395 1.393 . S
C399 C398 1.391 . S
H400 C408 0.950 . S
H401 C413 0.950 . S
H402 C410 0.950 . S
H403 C412 0.950 . S
H404 C414 0.950 . S
H405 C416 0.950 . S
H406 C418 0.950 . S
H407 C419 0.950 . S
C408 H400 0.950 . S
C408 C409 1.386 . S
C408 C410 1.391 . S
C409 C408 1.386 . S
C409 C413 1.393 . S
C410 H402 0.950 . S
C410 C408 1.391 . S
C410 C411 1.400 . S
C411 C410 1.400 . S
C411 C412 1.398 . S
C411 C417 1.491 . S
C412 H403 0.950 . S
C412 C411 1.398 . S
C412 C413 1.391 . S
C413 H401 0.950 . S
C413 C409 1.393 . S
C413 C412 1.391 . S
C414 H404 0.950 . S
C414 C415 1.386 . S
C414 C416 1.391 . S
C415 C414 1.386 . S
C415 C419 1.393 . S
C416 H405 0.950 . S
C416 C414 1.391 . S
C416 C417 1.400 . S
C417 C411 1.491 . S
C417 C416 1.400 . S
C417 C418 1.398 . S
C418 H406 0.950 . S
C418 C417 1.398 . S
C418 C419 1.391 . S
C419 H407 0.950 . S
C419 C415 1.393 . S
C419 C418 1.391 . S
H420 C428 0.950 . S
H421 C433 0.950 . S
H422 C430 0.950 . S
H423 C432 0.950 . S
H424 C434 0.950 . S
H425 C436 0.950 . S
H426 C438 0.950 . S
H427 C439 0.950 . S
C428 H420 0.950 . S
C428 C429 1.386 . S
C428 C430 1.391 . S
C429 C428 1.386 . S
C429 C433 1.393 . S
C430 H422 0.950 . S
C430 C428 1.391 . S
C430 C431 1.400 . S
C431 C430 1.400 . S
C431 C432 1.398 . S
C431 C437 1.491 . S
C432 H423 0.950 . S
C432 C431 1.398 . S
C432 C433 1.391 . S
C433 H421 0.950 . S
C433 C429 1.393 . S
C433 C432 1.391 . S
C434 H424 0.950 . S
C434 C435 1.386 . S
C434 C436 1.391 . S
C435 C434 1.386 . S
C435 C439 1.393 . S
C436 H425 0.950 . S
C436 C434 1.391 . S
C436 C437 1.400 . S
C437 C431 1.491 . S
C437 C436 1.400 . S
C437 C438 1.398 . S
C438 H426 0.950 . S
C438 C437 1.398 . S
C438 C439 1.391 . S
C439 H427 0.950 . S
C439 C435 1.393 . S
C439 C438 1.391 . S
H440 C448 0.950 . S
H441 C453 0.950 . S
H442 C450 0.950 . S
H443 C452 0.950 . S
H444 C454 0.950 . S
H445 C456 0.950 . S
H446 C458 0.950 . S
H447 C459 0.950 . S
C448 H440 0.950 . S
C448 C449 1.386 . S
C448 C450 1.391 . S
C449 C448 1.386 . S
C449 C453 1.393 . S
C450 H442 0.950 . S
C450 C448 1.391 . S
C450 C451 1.400 . S
C451 C450 1.400 . S
C451 C452 1.398 . S
C451 C457 1.491 . S
C452 H443 0.950 . S
C452 C451 1.398 . S
C452 C453 1.391 . S
C453 H441 0.950 . S
C453 C449 1.393 . S
C453 C452 1.391 . S
C454 H444 0.950 . S
C454 C455 1.386 . S
C454 C456 1.391 . S
C455 C454 1.386 . S
C455 C459 1.393 . S
C456 H445 0.950 . S
C456 C454 1.391 . S
C456 C457 1.400 . S
C457 C451 1.491 . S
C457 C456 1.400 . S
C457 C458 1.398 . S
C458 H446 0.950 . S
C458 C457 1.398 . S
C458 C459 1.391 . S
C459 H447 0.950 . S
C459 C455 1.393 . S
C459 C458 1.391 . S
H460 C468 0.950 . S
H461 C473 0.950 . S
H462 C470 0.950 . S
H463 C472 0.950 . S
H464 C474 0.950 . S
H465 C476 0.950 . S
H466 C478 0.950 . S
H467 C479 0.950 . S
C468 H460 0.950 . S
C468 C469 1.386 . S
C468 C470 1.391 . S
C469 C468 1.386 . S
C469 C473 1.393 . S
C470 H462 0.950 . S
C470 C468 1.391 . S
C470 C471 1.400 . S
C471 C470 1.400 . S
C471 C472 1.398 . S
C471 C477 1.491 . S
C472 H463 0.950 . S
C472 C471 1.398 . S
C472 C473 1.391 . S
C473 H461 0.950 . S
C473 C469 1.393 . S
C473 C472 1.391 . S
C474 H464 0.950 . S
C474 C475 1.386 . S
C474 C476 1.391 . S
C475 C474 1.386 . S
C475 C479 1.393 . S
C476 H465 0.950 . S
C476 C474 1.391 . S
C476 C477 1.400 . S
C477 C471 1.491 . S
C477 C476 1.400 . S
C477 C478 1.398 . S
C478 H466 0.950 . S
C478 C477 1.398 . S
C478 C479 1.391 . S
C479 H467 0.950 . S
C479 C475 1.393 . S
C479 C478 1.391 . S
H480 C488 0.950 . S
H481 C493 0.950 . S
H482 C490 0.950 . S
H483 C492 0.950 . S
H484 C494 0.950 . S
H485 C496 0.950 . S
H486 C498 0.950 . S
H487 C499 0.950 . S
C488 H480 0.950 . S
C488 C489 1.386 . S
C488 C490 1.391 . S
C489 C488 1.386 . S
C489 C493 1.393 . S
C490 H482 0.950 . S
C490 C488 1.391 . S
C490 C491 1.400 . S
C491 C490 1.400 . S
C491 C492 1.398 . S
C491 C497 1.491 . S
C492 H483 0.950 . S
C492 C491 1.398 . S
C492 C493 1.391 . S
C493 H481 0.950 . S
C493 C489 1.393 . S
C493 C492 1.391 . S
C494 H484 0.950 . S
C494 C495 1.386 . S
C494 C496 1.391 . S
C495 C494 1.386 . S
C495 C499 1.393 . S
C496 H485 0.950 . S
C496 C494 1.391 . S
C496 C497 1.400 . S
C497 C491 1.491 . S
C497 C496 1.400 . S
C497 C498 1.398 . S
C498 H486 0.950 . S
C498 C497 1.398 . S
C498 C499 1.391 . S
C499 H487 0.950 . S
C499 C495 1.393 . S
C499 C498 1.391 . S
H500 C508 0.950 . S
H501 C513 0.950 . S
H502 C510 0.950 . S
H503 C512 0.950 . S
H504 C514 0.950 . S
H505 C516 0.950 . S
H506 C518 0.950 . S
H507 C519 0.950 . S
C508 H500 0.950 . S
C508 C509 1.386 . S
C508 C510 1.391 . S
C509 C508 1.386 . S
C509 C513 1.393 . S
C510 H502 0.950 . S
C510 C508 1.391 . S
C510 C511 1.400 . S
C511 C510 1.400 . S
C511 C512 1.398 . S
C511 C517 1.491 . S
C512 H503 0.950 . S
C512 C511 1.398 . S
C512 C513 1.391 . S
C513 H501 0.950 . S
C513 C509 1.393 . S
C513 C512 1.391 . S
C514 H504 0.950 . S
C514 C515 1.386 . S
C514 C516 1.391 . S
C515 C514 1.386 . S
C515 C519 1.393 . S
C516 H505 0.950 . S
C516 C514 1.391 . S
C516 C517 1.400 . S
C517 C511 1.491 . S
C517 C516 1.400 . S
C517 C518 1.398 . S
C518 H506 0.950 . S
C518 C517 1.398 . S
C518 C519 1.391 . S
C519 H507 0.950 . S
C519 C515 1.393 . S
C519 C518 1.391 . S
H520 C528 0.950 . S
H521 C533 0.950 . S
H522 C530 0.950 . S
H523 C532 0.950 . S
H524 C534 0.950 . S
H525 C536 0.950 . S
H526 C538 0.950 . S
H527 C539 0.950 . S
C528 H520 0.950 . S
C528 C529 1.386 . S
C528 C530 1.391 . S
C529 C528 1.386 . S
C529 C533 1.393 . S
C530 H522 0.950 . S
C530 C528 1.391 . S
C530 C531 1.400 . S
C531 C530 1.400 . S
C531 C532 1.398 . S
C531 C537 1.491 . S
C532 H523 0.950 . S
C532 C531 1.398 . S
C532 C533 1.391 . S
C533 H521 0.950 . S
C533 C529 1.393 . S
C533 C532 1.391 . S
C534 H524 0.950 . S
C534 C535 1.386 . S
C534 C536 1.391 . S
C535 C534 1.386 . S
C535 C539 1.393 . S
C536 H525 0.950 . S
C536 C534 1.391 . S
C536 C537 1.400 . S
C537 C531 1.491 . S
C537 C536 1.400 . S
C537 C538 1.398 . S
C538 H526 0.950 . S
C538 C537 1.398 . S
C538 C539 1.391 . S
C539 H527 0.950 . S
C539 C535 1.393 . S
C539 C538 1.391 . S
H540 C548 0.950 . S
H541 C553 0.950 . S
H542 C550 0.950 . S
H543 C552 0.950 . S
H544 C554 0.950 . S
H545 C556 0.950 . S
H546 C558 0.950 . S
H547 C559 0.950 . S
C548 H540 0.950 . S
C548 C549 1.386 . S
C548 C550 1.391 . S
C549 C548 1.386 . S
C549 C553 1.393 . S
C550 H542 0.950 . S
C550 C548 1.391 . S
C550 C551 1.400 . S
C551 C550 1.400 . S
C551 C552 1.398 . S
C551 C557 1.491 . S
C552 H543 0.950 . S
C552 C551 1.398 . S
C552 C553 1.391 . S
C553 H541 0.950 . S
C553 C549 1.393 . S
C553 C552 1.391 . S
C554 H544 0.950 . S
C554 C555 1.386 . S
C554 C556 1.391 . S
C555 C554 1.386 . S
C555 C559 1.393 . S
C556 H545 0.950 . S
C556 C554 1.391 . S
C556 C557 1.400 . S
C557 C551 1.491 . S
C557 C556 1.400 . S
C557 C558 1.398 . S
C558 H546 0.950 . S
C558 C557 1.398 . S
C558 C559 1.391 . S
C559 H547 0.950 . S
C559 C555 1.393 . S
C559 C558 1.391 . S
H560 C568 0.950 . S
H561 C573 0.950 . S
H562 C570 0.950 . S
H563 C572 0.950 . S
H564 C574 0.950 . S
H565 C576 0.950 . S
H566 C578 0.950 . S
H567 C579 0.950 . S
C568 H560 0.950 . S
C568 C569 1.386 . S
C568 C570 1.391 . S
C569 C568 1.386 . S
C569 C573 1.393 . S
C570 H562 0.950 . S
C570 C568 1.391 . S
C570 C571 1.400 . S
C571 C570 1.400 . S
C571 C572 1.398 . S
C571 C577 1.491 . S
C572 H563 0.950 . S
C572 C571 1.398 . S
C572 C573 1.391 . S
C573 H561 0.950 . S
C573 C569 1.393 . S
C573 C572 1.391 . S
C574 H564 0.950 . S
C574 C575 1.386 . S
C574 C576 1.391 . S
C575 C574 1.386 . S
C575 C579 1.393 . S
C576 H565 0.950 . S
C576 C574 1.391 . S
C576 C577 1.400 . S
C577 C571 1.491 . S
C577 C576 1.400 . S
C577 C578 1.398 . S
C578 H566 0.950 . S
C578 C577 1.398 . S
C578 C579 1.391 . S
C579 H567 0.950 . S
C579 C575 1.393 . S
C579 C578 1.391 . S
H580 C588 0.950 . S
H581 C593 0.950 1_554 S
H582 C590 0.950 . S
H583 C592 0.950 . S
H584 C594 0.950 . S
H585 C596 0.950 . S
H586 C598 0.950 . S
H587 C599 0.950 . S
C588 H580 0.950 . S
C588 C589 1.386 . S
C588 C590 1.391 . S
C589 C588 1.386 . S
C589 C593 1.393 . S
C590 H582 0.950 . S
C590 C588 1.391 . S
C590 C591 1.400 . S
C591 C590 1.400 . S
C591 C592 1.398 . S
C591 C597 1.491 . S
C592 H583 0.950 . S
C592 C591 1.398 . S
C592 C593 1.391 . S
C593 H581 0.950 1_556 S
C593 C589 1.393 . S
C593 C592 1.391 . S
C594 H584 0.950 . S
C594 C595 1.386 . S
C594 C596 1.391 . S
C595 C594 1.386 . S
C595 C599 1.393 . S
C596 H585 0.950 . S
C596 C594 1.391 . S
C596 C597 1.400 . S
C597 C591 1.491 . S
C597 C596 1.400 . S
C597 C598 1.398 . S
C598 H586 0.950 . S
C598 C597 1.398 . S
C598 C599 1.391 . S
C599 H587 0.950 . S
C599 C595 1.393 . S
C599 C598 1.391 . S
H600 C608 0.950 . S
H601 C613 0.950 . S
H602 C610 0.950 . S
H603 C612 0.950 . S
H604 C614 0.950 . S
H605 C616 0.950 . S
H606 C618 0.950 . S
H607 C619 0.950 . S
C608 H600 0.950 . S
C608 C609 1.386 . S
C608 C610 1.391 . S
C609 C608 1.386 . S
C609 C613 1.393 . S
C610 H602 0.950 . S
C610 C608 1.391 . S
C610 C611 1.400 . S
C611 C610 1.400 . S
C611 C612 1.398 . S
C611 C617 1.491 . S
C612 H603 0.950 . S
C612 C611 1.398 . S
C612 C613 1.391 . S
C613 H601 0.950 . S
C613 C609 1.393 . S
C613 C612 1.391 . S
C614 H604 0.950 . S
C614 C615 1.386 . S
C614 C616 1.391 . S
C615 C614 1.386 . S
C615 C619 1.393 . S
C616 H605 0.950 . S
C616 C614 1.391 . S
C616 C617 1.400 . S
C617 C611 1.491 . S
C617 C616 1.400 . S
C617 C618 1.398 . S
C618 H606 0.950 . S
C618 C617 1.398 . S
C618 C619 1.391 . S
C619 H607 0.950 . S
C619 C615 1.393 . S
C619 C618 1.391 . S
H620 C628 0.950 . S
H621 C633 0.950 . S
H622 C630 0.950 . S
H623 C632 0.950 . S
H624 C634 0.950 . S
H625 C636 0.950 . S
H626 C638 0.950 . S
H627 C639 0.950 . S
C628 H620 0.950 . S
C628 C629 1.386 . S
C628 C630 1.391 . S
C629 C628 1.386 . S
C629 C633 1.393 . S
C630 H622 0.950 . S
C630 C628 1.391 . S
C630 C631 1.400 . S
C631 C630 1.400 . S
C631 C632 1.398 . S
C631 C637 1.491 . S
C632 H623 0.950 . S
C632 C631 1.398 . S
C632 C633 1.391 . S
C633 H621 0.950 . S
C633 C629 1.393 . S
C633 C632 1.391 . S
C634 H624 0.950 . S
C634 C635 1.386 . S
C634 C636 1.391 . S
C635 C634 1.386 . S
C635 C639 1.393 . S
C636 H625 0.950 . S
C636 C634 1.391 . S
C636 C637 1.400 . S
C637 C631 1.491 . S
C637 C636 1.400 . S
C637 C638 1.398 . S
C638 H626 0.950 . S
C638 C637 1.398 . S
C638 C639 1.391 . S
C639 H627 0.950 . S
C639 C635 1.393 . S
C639 C638 1.391 . S
H640 C648 0.950 . S
H641 C653 0.950 . S
H642 C650 0.950 . S
H643 C652 0.950 . S
H644 C654 0.950 . S
H645 C656 0.950 . S
H646 C658 0.950 . S
H647 C659 0.950 . S
C648 H640 0.950 . S
C648 C649 1.386 1_455 S
C648 C650 1.391 . S
C649 C648 1.386 1_655 S
C649 C653 1.393 1_545 S
C650 H642 0.950 . S
C650 C648 1.391 . S
C650 C651 1.400 1_455 S
C651 C650 1.400 1_655 S
C651 C652 1.398 1_545 S
C651 C657 1.491 1_646 S
C652 H643 0.950 . S
C652 C651 1.398 1_565 S
C652 C653 1.391 . S
C653 H641 0.950 . S
C653 C649 1.393 1_565 S
C653 C652 1.391 . S
C654 H644 0.950 . S
C654 C655 1.386 1_655 S
C654 C656 1.391 . S
C655 C654 1.386 1_455 S
C655 C659 1.393 1_565 S
C656 H645 0.950 . S
C656 C654 1.391 . S
C656 C657 1.400 1_655 S
C657 C651 1.491 1_464 S
C657 C656 1.400 1_455 S
C657 C658 1.398 1_565 S
C658 H646 0.950 . S
C658 C657 1.398 1_545 S
C658 C659 1.391 . S
C659 H647 0.950 . S
C659 C655 1.393 1_545 S
C659 C658 1.391 . S
H660 C668 0.950 . S
H661 C673 0.950 . S
H662 C670 0.950 . S
H663 C672 0.950 . S
H664 C674 0.950 . S
H665 C676 0.950 . S
H666 C678 0.950 . S
H667 C679 0.950 . S
C668 H660 0.950 . S
C668 C669 1.386 . S
C668 C670 1.391 . S
C669 C668 1.386 . S
C669 C673 1.393 . S
C670 H662 0.950 . S
C670 C668 1.391 . S
C670 C671 1.400 . S
C671 C670 1.400 . S
C671 C672 1.398 . S
C671 C677 1.491 . S
C672 H663 0.950 . S
C672 C671 1.398 . S
C672 C673 1.391 . S
C673 H661 0.950 . S
C673 C669 1.393 . S
C673 C672 1.391 . S
C674 H664 0.950 . S
C674 C675 1.386 . S
C674 C676 1.391 . S
C675 C674 1.386 . S
C675 C679 1.393 . S
C676 H665 0.950 . S
C676 C674 1.391 . S
C676 C677 1.400 . S
C677 C671 1.491 . S
C677 C676 1.400 . S
C677 C678 1.398 . S
C678 H666 0.950 . S
C678 C677 1.398 . S
C678 C679 1.391 . S
C679 H667 0.950 . S
C679 C675 1.393 . S
C679 C678 1.391 . S
H680 C688 0.950 . S
H681 C693 0.950 . S
H682 C690 0.950 . S
H683 C692 0.950 . S
H684 C694 0.950 . S
H685 C696 0.950 . S
H686 C698 0.950 . S
H687 C699 0.950 . S
C688 H680 0.950 . S
C688 C689 1.386 1_545 S
C688 C690 1.391 . S
C689 C688 1.386 1_565 S
C689 C693 1.393 . S
C690 H682 0.950 . S
C690 C688 1.391 . S
C690 C691 1.400 1_545 S
C691 C690 1.400 1_565 S
C691 C692 1.398 . S
C691 C697 1.491 1_565 S
C692 H683 0.950 . S
C692 C691 1.398 . S
C692 C693 1.391 . S
C693 H681 0.950 . S
C693 C689 1.393 . S
C693 C692 1.391 . S
C694 H684 0.950 . S
C694 C695 1.386 1_565 S
C694 C696 1.391 . S
C695 C694 1.386 1_545 S
C695 C699 1.393 . S
C696 H685 0.950 . S
C696 C694 1.391 . S
C696 C697 1.400 1_565 S
C697 C691 1.491 1_545 S
C697 C696 1.400 1_545 S
C697 C698 1.398 . S
C698 H686 0.950 . S
C698 C697 1.398 . S
C698 C699 1.391 . S
C699 H687 0.950 . S
C699 C695 1.393 . S
C699 C698 1.391 . S
H700 C708 0.950 . S
H701 C713 0.950 . S
H702 C710 0.950 . S
H703 C712 0.950 . S
H704 C714 0.950 . S
H705 C716 0.950 . S
H706 C718 0.950 . S
H707 C719 0.950 . S
C708 H700 0.950 . S
C708 C709 1.386 . S
C708 C710 1.391 . S
C709 C708 1.386 . S
C709 C713 1.393 . S
C710 H702 0.950 . S
C710 C708 1.391 . S
C710 C711 1.400 . S
C711 C710 1.400 . S
C711 C712 1.398 . S
C711 C717 1.491 . S
C712 H703 0.950 . S
C712 C711 1.398 . S
C712 C713 1.391 . S
C713 H701 0.950 . S
C713 C709 1.393 . S
C713 C712 1.391 . S
C714 H704 0.950 . S
C714 C715 1.386 . S
C714 C716 1.391 . S
C715 C714 1.386 . S
C715 C719 1.393 . S
C716 H705 0.950 . S
C716 C714 1.391 . S
C716 C717 1.400 . S
C717 C711 1.491 . S
C717 C716 1.400 . S
C717 C718 1.398 . S
C718 H706 0.950 . S
C718 C717 1.398 . S
C718 C719 1.391 . S
C719 H707 0.950 . S
C719 C715 1.393 . S
C719 C718 1.391 . S
H720 C728 0.950 . S
H721 C733 0.950 . S
H722 C730 0.950 . S
H723 C732 0.950 . S
H724 C734 0.950 . S
H725 C736 0.950 . S
H726 C738 0.950 . S
H727 C739 0.950 . S
C728 H720 0.950 . S
C728 C729 1.386 . S
C728 C730 1.391 . S
C729 C728 1.386 . S
C729 C733 1.393 . S
C730 H722 0.950 . S
C730 C728 1.391 . S
C730 C731 1.400 . S
C731 C730 1.400 . S
C731 C732 1.398 . S
C731 C737 1.491 . S
C732 H723 0.950 . S
C732 C731 1.398 . S
C732 C733 1.391 . S
C733 H721 0.950 . S
C733 C729 1.393 . S
C733 C732 1.391 . S
C734 H724 0.950 . S
C734 C735 1.386 . S
C734 C736 1.391 . S
C735 C734 1.386 . S
C735 C739 1.393 . S
C736 H725 0.950 . S
C736 C734 1.391 . S
C736 C737 1.400 . S
C737 C731 1.491 . S
C737 C736 1.400 . S
C737 C738 1.398 . S
C738 H726 0.950 . S
C738 C737 1.398 . S
C738 C739 1.391 . S
C739 H727 0.950 . S
C739 C735 1.393 . S
C739 C738 1.391 . S
H740 C748 0.950 . S
H741 C753 0.950 . S
H742 C750 0.950 . S
H743 C752 0.950 . S
H744 C754 0.950 . S
H745 C756 0.950 . S
H746 C758 0.950 . S
H747 C759 0.950 . S
C748 H740 0.950 . S
C748 C749 1.386 . S
C748 C750 1.391 . S
C749 C748 1.386 . S
C749 C753 1.393 . S
C750 H742 0.950 . S
C750 C748 1.391 . S
C750 C751 1.400 . S
C751 C750 1.400 . S
C751 C752 1.398 . S
C751 C757 1.491 . S
C752 H743 0.950 . S
C752 C751 1.398 . S
C752 C753 1.391 . S
C753 H741 0.950 . S
C753 C749 1.393 . S
C753 C752 1.391 . S
C754 H744 0.950 . S
C754 C755 1.386 . S
C754 C756 1.391 . S
C755 C754 1.386 . S
C755 C759 1.393 . S
C756 H745 0.950 . S
C756 C754 1.391 . S
C756 C757 1.400 . S
C757 C751 1.491 . S
C757 C756 1.400 . S
C757 C758 1.398 . S
C758 H746 0.950 . S
C758 C757 1.398 . S
C758 C759 1.391 . S
C759 H747 0.950 . S
C759 C755 1.393 . S
C759 C758 1.391 . S
H760 C768 0.950 . S
H761 C773 0.950 . S
H762 C770 0.950 . S
H763 C772 0.950 . S
H764 C774 0.950 . S
H765 C776 0.950 . S
H766 C778 0.950 . S
H767 C779 0.950 . S
C768 H760 0.950 . S
C768 C769 1.386 . S
C768 C770 1.391 . S
C769 C768 1.386 . S
C769 C773 1.393 . S
C770 H762 0.950 . S
C770 C768 1.391 . S
C770 C771 1.400 . S
C771 C770 1.400 . S
C771 C772 1.398 . S
C771 C777 1.491 . S
C772 H763 0.950 . S
C772 C771 1.398 . S
C772 C773 1.391 . S
C773 H761 0.950 . S
C773 C769 1.393 . S
C773 C772 1.391 . S
C774 H764 0.950 . S
C774 C775 1.386 . S
C774 C776 1.391 . S
C775 C774 1.386 . S
C775 C779 1.393 . S
C776 H765 0.950 . S
C776 C774 1.391 . S
C776 C777 1.400 . S
C777 C771 1.491 . S
C777 C776 1.400 . S
C777 C778 1.398 . S
C778 H766 0.950 . S
C778 C777 1.398 . S
C778 C779 1.391 . S
C779 H767 0.950 . S
C779 C775 1.393 . S
C779 C778 1.391 . S
H780 C788 0.950 . S
H781 C793 0.950 . S
H782 C790 0.950 . S
H783 C792 0.950 . S
H784 C794 0.950 . S
H785 C796 0.950 . S
H786 C798 0.950 . S
H787 C799 0.950 . S
C788 H780 0.950 . S
C788 C789 1.386 1_455 S
C788 C790 1.391 . S
C789 C788 1.386 1_655 S
C789 C793 1.393 . S
C790 H782 0.950 . S
C790 C788 1.391 . S
C790 C791 1.400 1_455 S
C791 C790 1.400 1_655 S
C791 C792 1.398 . S
C791 C797 1.491 1_656 S
C792 H783 0.950 . S
C792 C791 1.398 . S
C792 C793 1.391 . S
C793 H781 0.950 . S
C793 C789 1.393 . S
C793 C792 1.391 . S
C794 H784 0.950 . S
C794 C795 1.386 1_655 S
C794 C796 1.391 . S
C795 C794 1.386 1_455 S
C795 C799 1.393 . S
C796 H785 0.950 . S
C796 C794 1.391 . S
C796 C797 1.400 1_655 S
C797 C791 1.491 1_454 S
C797 C796 1.400 1_455 S
C797 C798 1.398 . S
C798 H786 0.950 . S
C798 C797 1.398 . S
C798 C799 1.391 . S
C799 H787 0.950 . S
C799 C795 1.393 . S
C799 C798 1.391 . S
C329 C2 2.012 . S
C335 C122 2.010 . S
C349 C10 1.514 . S
C355 C42 1.529 . S
C369 C50 0.925 . S
C375 C90 0.942 . S
C389 C82 1.522 . S
C395 C130 1.501 . S
C409 C11 2.016 . S
C415 C211 2.020 . S
C429 C19 1.519 . S
C435 C171 1.531 . S
C449 C179 0.919 . S
C455 C99 0.926 . S
C469 C219 1.504 . S
C475 C91 1.525 . S
C489 C242 2.012 . S
C495 C202 2.015 . S
C509 C162 1.531 . S
C515 C250 1.519 . S
C529 C290 0.947 . S
C535 C170 0.941 . S
C549 C210 1.508 . S
C555 C282 1.526 . S
C569 C131 2.014 . S
C575 C251 2.015 . S
C589 C259 1.513 . S
C595 C51 1.527 . S
C609 C59 0.922 . S
C615 C299 0.919 . S
C629 C139 1.518 . S
C635 C291 1.528 . S
C649 C16 1.587 . S
C655 C7 1.587 . S
C669 C47 1.464 . S
C675 C56 1.464 . S
C689 C96 1.461 . S
C695 C87 1.461 . S
C709 C136 1.580 . S
C715 C127 1.580 . S
C729 C167 1.444 . S
C735 C176 1.444 . S
C749 C216 1.575 . S
C755 C207 1.575 . S
C769 C247 1.565 . S
C775 C256 1.565 . S
C789 C287 1.448 . S
C795 C296 1.448 . S
