# Generated by pormake.
# Topology ana, (4)-cn, num edge types: 1
# Building blocks:
#     Node 0, Type 0, BuildingBlock: QUQFOY_clean_sbu_1, # of connection points: 4
#     Node 1, Type 0, BuildingBlock: QUQFOY_clean_sbu_1, # of connection points: 4
#     Node 2, Type 0, BuildingBlock: QUQFOY_clean_sbu_1, # of connection points: 4
#     Node 3, Type 0, BuildingBlock: QUQFOY_clean_sbu_1, # of connection points: 4
#     Node 4, Type 0, BuildingBlock: QUQFOY_clean_sbu_1, # of connection points: 4
#     Node 5, Type 0, BuildingBlock: QUQFOY_clean_sbu_1, # of connection points: 4
#     Node 6, Type 0, BuildingBlock: QUQFOY_clean_sbu_1, # of connection points: 4
#     Node 7, Type 0, BuildingBlock: QUQFOY_clean_sbu_1, # of connection points: 4
#     Node 8, Type 0, BuildingBlock: QUQFOY_clean_sbu_1, # of connection points: 4
#     Node 9, Type 0, BuildingBlock: QUQFOY_clean_sbu_1, # of connection points: 4
#     Node 10, Type 0, BuildingBlock: QUQFOY_clean_sbu_1, # of connection points: 4
#     Node 11, Type 0, BuildingBlock: QUQFOY_clean_sbu_1, # of connection points: 4
#     Node 12, Type 0, BuildingBlock: QUQFOY_clean_sbu_1, # of connection points: 4
#     Node 13, Type 0, BuildingBlock: QUQFOY_clean_sbu_1, # of connection points: 4
#     Node 14, Type 0, BuildingBlock: QUQFOY_clean_sbu_1, # of connection points: 4
#     Node 15, Type 0, BuildingBlock: QUQFOY_clean_sbu_1, # of connection points: 4
#     Node 16, Type 0, BuildingBlock: QUQFOY_clean_sbu_1, # of connection points: 4
#     Node 17, Type 0, BuildingBlock: QUQFOY_clean_sbu_1, # of connection points: 4
#     Node 18, Type 0, BuildingBlock: QUQFOY_clean_sbu_1, # of connection points: 4
#     Node 19, Type 0, BuildingBlock: QUQFOY_clean_sbu_1, # of connection points: 4
#     Node 20, Type 0, BuildingBlock: QUQFOY_clean_sbu_1, # of connection points: 4
#     Node 21, Type 0, BuildingBlock: QUQFOY_clean_sbu_1, # of connection points: 4
#     Node 22, Type 0, BuildingBlock: QUQFOY_clean_sbu_1, # of connection points: 4
#     Node 23, Type 0, BuildingBlock: QUQFOY_clean_sbu_1, # of connection points: 4
#     Node 24, Type 0, BuildingBlock: QUQFOY_clean_sbu_1, # of connection points: 4
#     Node 25, Type 0, BuildingBlock: QUQFOY_clean_sbu_1, # of connection points: 4
#     Node 26, Type 0, BuildingBlock: QUQFOY_clean_sbu_1, # of connection points: 4
#     Node 27, Type 0, BuildingBlock: QUQFOY_clean_sbu_1, # of connection points: 4
#     Node 28, Type 0, BuildingBlock: QUQFOY_clean_sbu_1, # of connection points: 4
#     Node 29, Type 0, BuildingBlock: QUQFOY_clean_sbu_1, # of connection points: 4
#     Node 30, Type 0, BuildingBlock: QUQFOY_clean_sbu_1, # of connection points: 4
#     Node 31, Type 0, BuildingBlock: QUQFOY_clean_sbu_1, # of connection points: 4
#     Node 32, Type 0, BuildingBlock: QUQFOY_clean_sbu_1, # of connection points: 4
#     Node 33, Type 0, BuildingBlock: QUQFOY_clean_sbu_1, # of connection points: 4
#     Node 34, Type 0, BuildingBlock: QUQFOY_clean_sbu_1, # of connection points: 4
#     Node 35, Type 0, BuildingBlock: QUQFOY_clean_sbu_1, # of connection points: 4
#     Node 36, Type 0, BuildingBlock: QUQFOY_clean_sbu_1, # of connection points: 4
#     Node 37, Type 0, BuildingBlock: QUQFOY_clean_sbu_1, # of connection points: 4
#     Node 38, Type 0, BuildingBlock: QUQFOY_clean_sbu_1, # of connection points: 4
#     Node 39, Type 0, BuildingBlock: QUQFOY_clean_sbu_1, # of connection points: 4
#     Node 40, Type 0, BuildingBlock: QUQFOY_clean_sbu_1, # of connection points: 4
#     Node 41, Type 0, BuildingBlock: QUQFOY_clean_sbu_1, # of connection points: 4
#     Node 42, Type 0, BuildingBlock: QUQFOY_clean_sbu_1, # of connection points: 4
#     Node 43, Type 0, BuildingBlock: QUQFOY_clean_sbu_1, # of connection points: 4
#     Node 44, Type 0, BuildingBlock: QUQFOY_clean_sbu_1, # of connection points: 4
#     Node 45, Type 0, BuildingBlock: QUQFOY_clean_sbu_1, # of connection points: 4
#     Node 46, Type 0, BuildingBlock: QUQFOY_clean_sbu_1, # of connection points: 4
#     Node 47, Type 0, BuildingBlock: QUQFOY_clean_sbu_1, # of connection points: 4
#     Edge 48, Type (0, 0), BuildingBlock: EZIPEK_clean_linker_0, # of connection points: 2
#     Edge 49, Type (0, 0), BuildingBlock: EZIPEK_clean_linker_0, # of connection points: 2
#     Edge 50, Type (0, 0), BuildingBlock: EZIPEK_clean_linker_0, # of connection points: 2
#     Edge 51, Type (0, 0), BuildingBlock: EZIPEK_clean_linker_0, # of connection points: 2
#     Edge 52, Type (0, 0), BuildingBlock: EZIPEK_clean_linker_0, # of connection points: 2
#     Edge 53, Type (0, 0), BuildingBlock: EZIPEK_clean_linker_0, # of connection points: 2
#     Edge 54, Type (0, 0), BuildingBlock: EZIPEK_clean_linker_0, # of connection points: 2
#     Edge 55, Type (0, 0), BuildingBlock: EZIPEK_clean_linker_0, # of connection points: 2
#     Edge 56, Type (0, 0), BuildingBlock: EZIPEK_clean_linker_0, # of connection points: 2
#     Edge 57, Type (0, 0), BuildingBlock: EZIPEK_clean_linker_0, # of connection points: 2
#     Edge 58, Type (0, 0), BuildingBlock: EZIPEK_clean_linker_0, # of connection points: 2
#     Edge 59, Type (0, 0), BuildingBlock: EZIPEK_clean_linker_0, # of connection points: 2
#     Edge 60, Type (0, 0), BuildingBlock: EZIPEK_clean_linker_0, # of connection points: 2
#     Edge 61, Type (0, 0), BuildingBlock: EZIPEK_clean_linker_0, # of connection points: 2
#     Edge 62, Type (0, 0), BuildingBlock: EZIPEK_clean_linker_0, # of connection points: 2
#     Edge 63, Type (0, 0), BuildingBlock: EZIPEK_clean_linker_0, # of connection points: 2
#     Edge 64, Type (0, 0), BuildingBlock: EZIPEK_clean_linker_0, # of connection points: 2
#     Edge 65, Type (0, 0), BuildingBlock: EZIPEK_clean_linker_0, # of connection points: 2
#     Edge 66, Type (0, 0), BuildingBlock: EZIPEK_clean_linker_0, # of connection points: 2
#     Edge 67, Type (0, 0), BuildingBlock: EZIPEK_clean_linker_0, # of connection points: 2
#     Edge 68, Type (0, 0), BuildingBlock: EZIPEK_clean_linker_0, # of connection points: 2
#     Edge 69, Type (0, 0), BuildingBlock: EZIPEK_clean_linker_0, # of connection points: 2
#     Edge 70, Type (0, 0), BuildingBlock: EZIPEK_clean_linker_0, # of connection points: 2
#     Edge 71, Type (0, 0), BuildingBlock: EZIPEK_clean_linker_0, # of connection points: 2
#     Edge 72, Type (0, 0), BuildingBlock: EZIPEK_clean_linker_0, # of connection points: 2
#     Edge 73, Type (0, 0), BuildingBlock: EZIPEK_clean_linker_0, # of connection points: 2
#     Edge 74, Type (0, 0), BuildingBlock: EZIPEK_clean_linker_0, # of connection points: 2
#     Edge 75, Type (0, 0), BuildingBlock: EZIPEK_clean_linker_0, # of connection points: 2
#     Edge 76, Type (0, 0), BuildingBlock: EZIPEK_clean_linker_0, # of connection points: 2
#     Edge 77, Type (0, 0), BuildingBlock: EZIPEK_clean_linker_0, # of connection points: 2
#     Edge 78, Type (0, 0), BuildingBlock: EZIPEK_clean_linker_0, # of connection points: 2
#     Edge 79, Type (0, 0), BuildingBlock: EZIPEK_clean_linker_0, # of connection points: 2
#     Edge 80, Type (0, 0), BuildingBlock: EZIPEK_clean_linker_0, # of connection points: 2
#     Edge 81, Type (0, 0), BuildingBlock: EZIPEK_clean_linker_0, # of connection points: 2
#     Edge 82, Type (0, 0), BuildingBlock: EZIPEK_clean_linker_0, # of connection points: 2
#     Edge 83, Type (0, 0), BuildingBlock: EZIPEK_clean_linker_0, # of connection points: 2
#     Edge 84, Type (0, 0), BuildingBlock: EZIPEK_clean_linker_0, # of connection points: 2
#     Edge 85, Type (0, 0), BuildingBlock: EZIPEK_clean_linker_0, # of connection points: 2
#     Edge 86, Type (0, 0), BuildingBlock: EZIPEK_clean_linker_0, # of connection points: 2
#     Edge 87, Type (0, 0), BuildingBlock: EZIPEK_clean_linker_0, # of connection points: 2
#     Edge 88, Type (0, 0), BuildingBlock: EZIPEK_clean_linker_0, # of connection points: 2
#     Edge 89, Type (0, 0), BuildingBlock: EZIPEK_clean_linker_0, # of connection points: 2
#     Edge 90, Type (0, 0), BuildingBlock: EZIPEK_clean_linker_0, # of connection points: 2
#     Edge 91, Type (0, 0), BuildingBlock: EZIPEK_clean_linker_0, # of connection points: 2
#     Edge 92, Type (0, 0), BuildingBlock: EZIPEK_clean_linker_0, # of connection points: 2
#     Edge 93, Type (0, 0), BuildingBlock: EZIPEK_clean_linker_0, # of connection points: 2
#     Edge 94, Type (0, 0), BuildingBlock: EZIPEK_clean_linker_0, # of connection points: 2
#     Edge 95, Type (0, 0), BuildingBlock: EZIPEK_clean_linker_0, # of connection points: 2
#     Edge 96, Type (0, 0), BuildingBlock: EZIPEK_clean_linker_0, # of connection points: 2
#     Edge 97, Type (0, 0), BuildingBlock: EZIPEK_clean_linker_0, # of connection points: 2
#     Edge 98, Type (0, 0), BuildingBlock: EZIPEK_clean_linker_0, # of connection points: 2
#     Edge 99, Type (0, 0), BuildingBlock: EZIPEK_clean_linker_0, # of connection points: 2
#     Edge 100, Type (0, 0), BuildingBlock: EZIPEK_clean_linker_0, # of connection points: 2
#     Edge 101, Type (0, 0), BuildingBlock: EZIPEK_clean_linker_0, # of connection points: 2
#     Edge 102, Type (0, 0), BuildingBlock: EZIPEK_clean_linker_0, # of connection points: 2
#     Edge 103, Type (0, 0), BuildingBlock: EZIPEK_clean_linker_0, # of connection points: 2
#     Edge 104, Type (0, 0), BuildingBlock: EZIPEK_clean_linker_0, # of connection points: 2
#     Edge 105, Type (0, 0), BuildingBlock: EZIPEK_clean_linker_0, # of connection points: 2
#     Edge 106, Type (0, 0), BuildingBlock: EZIPEK_clean_linker_0, # of connection points: 2
#     Edge 107, Type (0, 0), BuildingBlock: EZIPEK_clean_linker_0, # of connection points: 2
#     Edge 108, Type (0, 0), BuildingBlock: EZIPEK_clean_linker_0, # of connection points: 2
#     Edge 109, Type (0, 0), BuildingBlock: EZIPEK_clean_linker_0, # of connection points: 2
#     Edge 110, Type (0, 0), BuildingBlock: EZIPEK_clean_linker_0, # of connection points: 2
#     Edge 111, Type (0, 0), BuildingBlock: EZIPEK_clean_linker_0, # of connection points: 2
#     Edge 112, Type (0, 0), BuildingBlock: EZIPEK_clean_linker_0, # of connection points: 2
#     Edge 113, Type (0, 0), BuildingBlock: EZIPEK_clean_linker_0, # of connection points: 2
#     Edge 114, Type (0, 0), BuildingBlock: EZIPEK_clean_linker_0, # of connection points: 2
#     Edge 115, Type (0, 0), BuildingBlock: EZIPEK_clean_linker_0, # of connection points: 2
#     Edge 116, Type (0, 0), BuildingBlock: EZIPEK_clean_linker_0, # of connection points: 2
#     Edge 117, Type (0, 0), BuildingBlock: EZIPEK_clean_linker_0, # of connection points: 2
#     Edge 118, Type (0, 0), BuildingBlock: EZIPEK_clean_linker_0, # of connection points: 2
#     Edge 119, Type (0, 0), BuildingBlock: EZIPEK_clean_linker_0, # of connection points: 2
#     Edge 120, Type (0, 0), BuildingBlock: EZIPEK_clean_linker_0, # of connection points: 2
#     Edge 121, Type (0, 0), BuildingBlock: EZIPEK_clean_linker_0, # of connection points: 2
#     Edge 122, Type (0, 0), BuildingBlock: EZIPEK_clean_linker_0, # of connection points: 2
#     Edge 123, Type (0, 0), BuildingBlock: EZIPEK_clean_linker_0, # of connection points: 2
#     Edge 124, Type (0, 0), BuildingBlock: EZIPEK_clean_linker_0, # of connection points: 2
#     Edge 125, Type (0, 0), BuildingBlock: EZIPEK_clean_linker_0, # of connection points: 2
#     Edge 126, Type (0, 0), BuildingBlock: EZIPEK_clean_linker_0, # of connection points: 2
#     Edge 127, Type (0, 0), BuildingBlock: EZIPEK_clean_linker_0, # of connection points: 2
#     Edge 128, Type (0, 0), BuildingBlock: EZIPEK_clean_linker_0, # of connection points: 2
#     Edge 129, Type (0, 0), BuildingBlock: EZIPEK_clean_linker_0, # of connection points: 2
#     Edge 130, Type (0, 0), BuildingBlock: EZIPEK_clean_linker_0, # of connection points: 2
#     Edge 131, Type (0, 0), BuildingBlock: EZIPEK_clean_linker_0, # of connection points: 2
#     Edge 132, Type (0, 0), BuildingBlock: EZIPEK_clean_linker_0, # of connection points: 2
#     Edge 133, Type (0, 0), BuildingBlock: EZIPEK_clean_linker_0, # of connection points: 2
#     Edge 134, Type (0, 0), BuildingBlock: EZIPEK_clean_linker_0, # of connection points: 2
#     Edge 135, Type (0, 0), BuildingBlock: EZIPEK_clean_linker_0, # of connection points: 2
#     Edge 136, Type (0, 0), BuildingBlock: EZIPEK_clean_linker_0, # of connection points: 2
#     Edge 137, Type (0, 0), BuildingBlock: EZIPEK_clean_linker_0, # of connection points: 2
#     Edge 138, Type (0, 0), BuildingBlock: EZIPEK_clean_linker_0, # of connection points: 2
#     Edge 139, Type (0, 0), BuildingBlock: EZIPEK_clean_linker_0, # of connection points: 2
#     Edge 140, Type (0, 0), BuildingBlock: EZIPEK_clean_linker_0, # of connection points: 2
#     Edge 141, Type (0, 0), BuildingBlock: EZIPEK_clean_linker_0, # of connection points: 2
#     Edge 142, Type (0, 0), BuildingBlock: EZIPEK_clean_linker_0, # of connection points: 2
#     Edge 143, Type (0, 0), BuildingBlock: EZIPEK_clean_linker_0, # of connection points: 2
# Relax obj value: 0.115
# Max RMSD: 0.186
# Mean RMSD: 0.142
data_MOF--net-ana--node1-QUQFOY_clean_sbu_1--edge1-EZIPEK_clean_linker_0
_symmetry_space_group_name_H-M    P1
_symmetry_Int_Tables_number       1
_symmetry_cell_setting            triclinic
loop_
_symmetry_equiv_pos_as_xyz
'x, y, z'
_cell_length_a     49.63302
_cell_length_b     51.157796
_cell_length_c     50.156394
_cell_angle_alpha  91.358725
_cell_angle_beta   91.964748
_cell_angle_gamma 96.173539
loop_
_atom_site_label
_atom_site_type_symbol
_atom_site_fract_x
_atom_site_fract_y
_atom_site_fract_z
_atom_type_partial_charge
O0 O 0.1387 0.1431 0.45788 0.0
Cd1 Cd 0.13971 0.14198 0.41668 0.0
Cd2 Cd 0.12192 0.1916 0.42479 0.0
O3 O 0.12882 0.1839 0.46435 0.0
O4 O 0.16321 0.11386 0.40796 0.0
O5 O 0.17407 0.15585 0.39915 0.0
C6 C 0.18048 0.13201 0.39921 0.0
C7 C 0.12972 0.23428 0.40943 0.0
C8 C 0.13441 0.16208 0.47345 0.0
C9 C 0.08434 0.14878 0.39568 0.0
O10 O 0.08812 0.1715 0.40666 0.0
O11 O 0.10305 0.13365 0.39566 0.0
O12 O 0.11062 0.22767 0.42543 0.0
O13 O 0.14566 0.217 0.40297 0.0
O14 O 0.07781 0.92333 0.65866 0.0
Cd15 Cd 0.06994 0.88761 0.67636 0.0
Cd16 Cd 0.08397 0.87226 0.63045 0.0
O17 O 0.10637 0.90905 0.63081 0.0
O18 O 0.07348 0.89598 0.71531 0.0
O19 O 0.10044 0.87101 0.69438 0.0
C20 C 0.094 0.88254 0.71605 0.0
C21 C 0.1023 0.83268 0.62391 0.0
C22 C 0.09691 0.9281 0.64275 0.0
C23 C 0.0247 0.86724 0.64318 0.0
O24 O 0.04203 0.87061 0.6251 0.0
O25 O 0.03223 0.869 0.66762 0.0
O26 O 0.09667 0.8469 0.60394 0.0
O27 O 0.09901 0.84178 0.64769 0.0
O28 O 0.42413 0.83109 0.91282 0.0
Cd29 Cd 0.38934 0.81283 0.92849 0.0
Cd30 Cd 0.37405 0.86105 0.91896 0.0
O31 O 0.40878 0.86712 0.89771 0.0
O32 O 0.36508 0.78813 0.90378 0.0
O33 O 0.39809 0.77592 0.92999 0.0
C34 C 0.37942 0.76999 0.91176 0.0
C35 C 0.33119 0.86568 0.90154 0.0
C36 C 0.42753 0.85219 0.89998 0.0
C37 C 0.37781 0.84593 0.97563 0.0
O38 O 0.37766 0.86488 0.95981 0.0
O39 O 0.37968 0.82267 0.96698 0.0
O40 O 0.34801 0.886 0.90812 0.0
O41 O 0.33919 0.84255 0.90346 0.0
O42 O 0.44605 0.12937 0.12107 0.0
Cd43 Cd 0.40502 0.12903 0.12752 0.0
Cd44 Cd 0.42232 0.11813 0.17587 0.0
O45 O 0.46019 0.13112 0.16337 0.0
O46 O 0.39032 0.15219 0.10051 0.0
O47 O 0.39225 0.16121 0.14411 0.0
C48 C 0.3869 0.16822 0.12007 0.0
C49 C 0.40756 0.12839 0.21798 0.0
C50 C 0.46522 0.13187 0.13873 0.0
C51 C 0.38918 0.07537 0.14334 0.0
O52 O 0.40686 0.08131 0.16201 0.0
O53 O 0.38215 0.0929 0.12783 0.0
O54 O 0.42623 0.11307 0.21491 0.0
O55 O 0.39827 0.13946 0.19723 0.0
O56 O 0.11594 0.79608 0.1181 0.0
Cd57 Cd 0.11716 0.83606 0.11316 0.0
Cd58 Cd 0.13169 0.82246 0.06511 0.0
O59 O 0.11822 0.78468 0.07571 0.0
O60 O 0.09159 0.84966 0.13824 0.0
O61 O 0.08689 0.8517 0.09414 0.0
C62 C 0.07783 0.85603 0.11753 0.0
C63 C 0.12485 0.83462 0.02093 0.0
C64 C 0.11541 0.77834 0.09986 0.0
C65 C 0.17323 0.85258 0.10356 0.0
O66 O 0.16828 0.83884 0.0822 0.0
O67 O 0.15442 0.85662 0.11909 0.0
O68 O 0.14252 0.81909 0.02766 0.0
O69 O 0.10988 0.84255 0.03935 0.0
O70 O 0.38367 0.87805 0.30754 0.0
Cd71 Cd 0.38897 0.88538 0.34793 0.0
Cd72 Cd 0.43937 0.87092 0.33707 0.0
O73 O 0.42717 0.87963 0.29885 0.0
O74 O 0.36098 0.90893 0.35683 0.0
O75 O 0.40529 0.92167 0.35897 0.0
C76 C 0.38065 0.92739 0.36073 0.0
C77 C 0.48483 0.8772 0.35078 0.0
C78 C 0.40251 0.87914 0.29099 0.0
C79 C 0.40114 0.83529 0.36963 0.0
O80 O 0.42115 0.83784 0.35448 0.0
O81 O 0.38619 0.85371 0.37267 0.0
O82 O 0.47604 0.85975 0.33279 0.0
O83 O 0.46825 0.89287 0.35966 0.0
O84 O 0.32875 0.15525 0.58143 0.0
Cd85 Cd 0.36191 0.17644 0.56563 0.0
Cd86 Cd 0.37787 0.17674 0.61706 0.0
O87 O 0.33995 0.15931 0.6244 0.0
O88 O 0.3535 0.17185 0.52669 0.0
O89 O 0.3898 0.15806 0.54633 0.0
C90 C 0.37493 0.15991 0.52501 0.0
C91 C 0.41583 0.15468 0.62254 0.0
C92 C 0.32292 0.15167 0.60565 0.0
C93 C 0.37424 0.22908 0.59324 0.0
O94 O 0.38091 0.21688 0.6138 0.0
O95 O 0.36601 0.21674 0.57174 0.0
O96 O 0.40595 0.16614 0.64267 0.0
O97 O 0.40373 0.1554 0.59938 0.0
O98 O 0.12476 0.11203 0.80374 0.0
Cd99 Cd 0.12548 0.10918 0.84437 0.0
Cd100 Cd 0.06975 0.11758 0.83663 0.0
O101 O 0.08069 0.11414 0.79718 0.0
O102 O 0.15364 0.08574 0.85381 0.0
O103 O 0.10961 0.07528 0.85947 0.0
C104 C 0.13405 0.06858 0.86016 0.0
C105 C 0.02289 0.11463 0.84354 0.0
C106 C 0.10422 0.11313 0.7882 0.0
C107 C 0.11083 0.15791 0.86842 0.0
O108 O 0.08726 0.14909 0.85964 0.0
O109 O 0.13072 0.14461 0.86526 0.0
O110 O 0.03546 0.13365 0.83121 0.0
O111 O 0.03659 0.09574 0.85056 0.0
O112 O 0.12952 0.45521 0.12862 0.0
Cd113 Cd 0.12988 0.41495 0.12982 0.0
Cd114 Cd 0.17924 0.42749 0.10836 0.0
O115 O 0.17196 0.46572 0.11748 0.0
O116 O 0.1041 0.40323 0.15772 0.0
O117 O 0.14825 0.39981 0.16123 0.0
C118 C 0.1247 0.39707 0.17168 0.0
C119 C 0.22146 0.41255 0.11549 0.0
C120 C 0.14915 0.47243 0.12418 0.0
C121 C 0.13563 0.39388 0.07541 0.0
O122 O 0.15831 0.40799 0.07642 0.0
O123 O 0.12052 0.39263 0.09537 0.0
O124 O 0.21736 0.42884 0.09698 0.0
O125 O 0.20206 0.40588 0.13132 0.0
O126 O 0.64858 0.09053 0.82377 0.0
Cd127 Cd 0.6659 0.07971 0.85925 0.0
Cd128 Cd 0.65877 0.13033 0.86994 0.0
O129 O 0.63932 0.13084 0.83332 0.0
O130 O 0.66859 0.04199 0.85127 0.0
O131 O 0.64357 0.0559 0.88333 0.0
C132 C 0.65175 0.03666 0.86981 0.0
C133 C 0.64042 0.13489 0.91089 0.0
C134 C 0.63886 0.11148 0.81695 0.0
C135 C 0.71511 0.11754 0.87271 0.0
O136 O 0.70009 0.136 0.87096 0.0
O137 O 0.70527 0.09364 0.87019 0.0
O138 O 0.64668 0.15522 0.89663 0.0
O139 O 0.64258 0.1117 0.90091 0.0
O140 O 0.84339 0.90925 0.32037 0.0
Cd141 Cd 0.83034 0.92221 0.35669 0.0
Cd142 Cd 0.84639 0.87792 0.36943 0.0
O143 O 0.87074 0.88216 0.33718 0.0
O144 O 0.82234 0.95868 0.35019 0.0
O145 O 0.85684 0.94908 0.37605 0.0
C146 C 0.84394 0.96653 0.36443 0.0
C147 C 0.8594 0.87718 0.41389 0.0
C148 C 0.8625 0.89485 0.31761 0.0
C149 C 0.78884 0.87974 0.36981 0.0
O150 O 0.80613 0.86486 0.36227 0.0
O151 O 0.79579 0.90424 0.37316 0.0
O152 O 0.85992 0.85658 0.39856 0.0
O153 O 0.85398 0.89895 0.40336 0.0
O154 O 0.79824 0.12533 0.12244 0.0
Cd155 Cd 0.83939 0.12133 0.12334 0.0
Cd156 Cd 0.82091 0.07326 0.13814 0.0
O157 O 0.78363 0.08317 0.12502 0.0
O158 O 0.85544 0.1479 0.09839 0.0
O159 O 0.85422 0.10485 0.09118 0.0
C160 C 0.85978 0.12844 0.08283 0.0
C161 C 0.83746 0.03391 0.126 0.0
C162 C 0.77895 0.10681 0.12158 0.0
C163 C 0.85443 0.10827 0.17835 0.0
O164 O 0.83638 0.08885 0.17444 0.0
O165 O 0.86112 0.12339 0.15938 0.0
O166 O 0.81831 0.03446 0.14266 0.0
O167 O 0.84619 0.0555 0.11479 0.0
O168 O 0.28688 0.62579 0.62099 0.0
Cd169 Cd 0.32822 0.62334 0.62239 0.0
Cd170 Cd 0.31173 0.57421 0.64018 0.0
O171 O 0.27377 0.58405 0.62878 0.0
O172 O 0.34385 0.64912 0.59665 0.0
O173 O 0.3444 0.60597 0.59144 0.0
C174 C 0.34972 0.62934 0.58237 0.0
C175 C 0.32443 0.5323 0.63174 0.0
C176 C 0.26821 0.60695 0.62291 0.0
C177 C 0.34686 0.61285 0.67711 0.0
O178 O 0.33124 0.59154 0.67411 0.0
O179 O 0.35009 0.6287 0.65811 0.0
O180 O 0.33366 0.5518 0.61756 0.0
O181 O 0.30688 0.53634 0.64931 0.0
O182 O 0.15461 0.5978 0.32271 0.0
Cd183 Cd 0.16957 0.5852 0.35828 0.0
Cd184 Cd 0.15538 0.63094 0.37498 0.0
O185 O 0.13164 0.62801 0.34033 0.0
O186 O 0.17672 0.54883 0.34912 0.0
O187 O 0.14509 0.55812 0.37687 0.0
C188 C 0.15682 0.5408 0.36371 0.0
C189 C 0.13876 0.63491 0.41748 0.0
C190 C 0.13738 0.61426 0.32036 0.0
C191 C 0.21355 0.62674 0.37526 0.0
O192 O 0.19616 0.64314 0.37309 0.0
O193 O 0.20639 0.60219 0.37324 0.0
O194 O 0.13856 0.65373 0.40082 0.0
O195 O 0.14673 0.61304 0.40903 0.0
O196 O 0.34265 0.40492 0.81682 0.0
Cd197 Cd 0.33201 0.42009 0.85298 0.0
Cd198 Cd 0.34364 0.37265 0.86658 0.0
O199 O 0.36492 0.37293 0.83203 0.0
O200 O 0.32742 0.457 0.84447 0.0
O201 O 0.36033 0.446 0.87151 0.0
C202 C 0.34909 0.46395 0.85889 0.0
C203 C 0.35929 0.36637 0.90942 0.0
C204 C 0.35825 0.38719 0.81301 0.0
C205 C 0.28692 0.3822 0.86893 0.0
O206 O 0.30234 0.36478 0.86338 0.0
O207 O 0.29581 0.40641 0.8693 0.0
O208 O 0.35493 0.34685 0.89246 0.0
O209 O 0.35736 0.38992 0.90127 0.0
O210 O 0.86514 0.874 0.54461 0.0
Cd211 Cd 0.86078 0.86821 0.58492 0.0
Cd212 Cd 0.87287 0.81918 0.57043 0.0
O213 O 0.86587 0.83226 0.53244 0.0
O214 O 0.83652 0.89414 0.59751 0.0
O215 O 0.82526 0.85092 0.59694 0.0
C216 C 0.81866 0.87441 0.60114 0.0
C217 C 0.86246 0.77463 0.57975 0.0
C218 C 0.86521 0.85621 0.52649 0.0
C219 C 0.91316 0.85473 0.60561 0.0
O220 O 0.90805 0.83446 0.5905 0.0
O221 O 0.89568 0.87084 0.60861 0.0
O222 O 0.88231 0.78277 0.56516 0.0
O223 O 0.84701 0.79174 0.58775 0.0
O224 O 0.9087 0.07699 0.34211 0.0
Cd225 Cd 0.92475 0.11179 0.32653 0.0
Cd226 Cd 0.9138 0.12832 0.37539 0.0
O227 O 0.88973 0.09296 0.37721 0.0
O228 O 0.92703 0.10233 0.28814 0.0
O229 O 0.8993 0.13002 0.30295 0.0
C230 C 0.90777 0.1167 0.28332 0.0
C231 C 0.89699 0.16854 0.38119 0.0
C232 C 0.89326 0.07374 0.36171 0.0
C233 C 0.9722 0.12884 0.36174 0.0
O234 O 0.95543 0.12858 0.38037 0.0
O235 O 0.96395 0.12531 0.33759 0.0
O236 O 0.90249 0.15463 0.40142 0.0
O237 O 0.89971 0.15891 0.35747 0.0
O238 O 0.57766 0.16586 0.0867 0.0
Cd239 Cd 0.61305 0.18263 0.07131 0.0
Cd240 Cd 0.62606 0.13314 0.07923 0.0
O241 O 0.59102 0.12847 0.10048 0.0
O242 O 0.60624 0.22008 0.07066 0.0
O243 O 0.63854 0.20584 0.09633 0.0
C244 C 0.6251 0.22483 0.0889 0.0
C245 C 0.66867 0.12763 0.09692 0.0
C246 C 0.57318 0.14449 0.09893 0.0
C247 C 0.62304 0.15041 0.023 0.0
O248 O 0.62298 0.13088 0.03816 0.0
O249 O 0.62146 0.17342 0.03246 0.0
O250 O 0.65159 0.10755 0.09012 0.0
O251 O 0.66097 0.15091 0.0952 0.0
O252 O 0.55501 0.87087 0.88267 0.0
Cd253 Cd 0.59619 0.8725 0.87759 0.0
Cd254 Cd 0.58114 0.8863 0.82772 0.0
O255 O 0.54283 0.87363 0.84005 0.0
O256 O 0.61205 0.85314 0.90722 0.0
O257 O 0.60944 0.83864 0.86533 0.0
C258 C 0.61546 0.83473 0.8901 0.0
C259 C 0.59405 0.8774 0.78447 0.0
C260 C 0.5367 0.8703 0.86424 0.0
C261 C 0.61305 0.92726 0.86392 0.0
O262 O 0.59798 0.92222 0.84308 0.0
O263 O 0.61748 0.90927 0.87995 0.0
O264 O 0.57651 0.89356 0.78912 0.0
O265 O 0.60363 0.86514 0.80427 0.0
O266 O 0.88526 0.20817 0.88386 0.0
Cd267 Cd 0.88384 0.16795 0.88841 0.0
Cd268 Cd 0.86805 0.18121 0.93689 0.0
O269 O 0.88022 0.21908 0.92621 0.0
O270 O 0.90247 0.15319 0.85792 0.0
O271 O 0.91806 0.15283 0.89965 0.0
C272 C 0.92097 0.14733 0.8747 0.0
C273 C 0.87853 0.1647 0.97815 0.0
C274 C 0.88431 0.22557 0.90227 0.0
C275 C 0.82691 0.1511 0.90009 0.0
O276 O 0.831 0.16549 0.92106 0.0
O277 O 0.84623 0.14712 0.88517 0.0
O278 O 0.86199 0.18231 0.97573 0.0
O279 O 0.89071 0.15748 0.95728 0.0
O280 O 0.58282 0.16096 0.64686 0.0
Cd281 Cd 0.56445 0.12661 0.66222 0.0
Cd282 Cd 0.61295 0.11376 0.64956 0.0
O283 O 0.61588 0.14544 0.62517 0.0
O284 O 0.52796 0.13751 0.66824 0.0
O285 O 0.53519 0.10629 0.6388 0.0
C286 C 0.51882 0.12129 0.64924 0.0
C287 C 0.61644 0.07062 0.63659 0.0
C288 C 0.60185 0.16407 0.63057 0.0
C289 C 0.60203 0.1176 0.70666 0.0
O290 O 0.62015 0.1219 0.68959 0.0
O291 O 0.57717 0.11446 0.69916 0.0
O292 O 0.63777 0.08739 0.63961 0.0
O293 O 0.59285 0.0788 0.63915 0.0
O294 O 0.67697 0.83077 0.42085 0.0
Cd295 Cd 0.64271 0.81129 0.43652 0.0
Cd296 Cd 0.62312 0.81897 0.38703 0.0
O297 O 0.66126 0.8359 0.37976 0.0
O298 O 0.64918 0.81474 0.47599 0.0
O299 O 0.61551 0.8314 0.45451 0.0
C300 C 0.62889 0.8285 0.47657 0.0
C301 C 0.58594 0.84241 0.38099 0.0
C302 C 0.68055 0.83853 0.39721 0.0
C303 C 0.62474 0.76304 0.4036 0.0
O304 O 0.61839 0.7785 0.38553 0.0
O305 O 0.63448 0.77185 0.42622 0.0
O306 O 0.59648 0.83151 0.36095 0.0
O307 O 0.59692 0.84039 0.40445 0.0
O308 O 0.87941 0.89009 0.19321 0.0
Cd309 Cd 0.88125 0.89163 0.1523 0.0
Cd310 Cd 0.93158 0.87705 0.16433 0.0
O311 O 0.92283 0.88749 0.20283 0.0
O312 O 0.85351 0.91518 0.14189 0.0
O313 O 0.89751 0.92493 0.13612 0.0
C314 C 0.87321 0.9319 0.13499 0.0
C315 C 0.97543 0.88344 0.14923 0.0
C316 C 0.89898 0.88997 0.21016 0.0
C317 C 0.88994 0.83843 0.13429 0.0
O318 O 0.91191 0.84263 0.14811 0.0
O319 O 0.87445 0.8564 0.13108 0.0
O320 O 0.96899 0.86694 0.16749 0.0
O321 O 0.95745 0.89799 0.14063 0.0
O322 O 0.88018 0.55287 0.87692 0.0
Cd323 Cd 0.87673 0.59277 0.87539 0.0
Cd324 Cd 0.82714 0.57684 0.89467 0.0
O325 O 0.8378 0.53952 0.88642 0.0
O326 O 0.90081 0.60628 0.84671 0.0
O327 O 0.85596 0.60534 0.84411 0.0
C328 C 0.87907 0.60977 0.83299 0.0
C329 C 0.78262 0.58695 0.88677 0.0
C330 C 0.86145 0.53443 0.88054 0.0
C331 C 0.86785 0.61286 0.92927 0.0
O332 O 0.84588 0.59769 0.927 0.0
O333 O 0.88384 0.61544 0.91004 0.0
O334 O 0.78906 0.57286 0.90647 0.0
O335 O 0.80129 0.59404 0.8703 0.0
O336 O 0.34893 0.907 0.17992 0.0
Cd337 Cd 0.3338 0.92104 0.14486 0.0
Cd338 Cd 0.34345 0.87272 0.12855 0.0
O339 O 0.36628 0.87235 0.16341 0.0
O340 O 0.32859 0.95763 0.15532 0.0
O341 O 0.35846 0.94781 0.12593 0.0
C342 C 0.34772 0.96536 0.13972 0.0
C343 C 0.35969 0.86686 0.08668 0.0
C344 C 0.3631 0.88795 0.18284 0.0
C345 C 0.28641 0.88322 0.12799 0.0
O346 O 0.30205 0.86526 0.12991 0.0
O347 O 0.29563 0.90726 0.13048 0.0
O348 O 0.35472 0.84715 0.10203 0.0
O349 O 0.35713 0.89029 0.0958 0.0
O350 O 0.15077 0.09241 0.67617 0.0
Cd351 Cd 0.16467 0.07811 0.64093 0.0
Cd352 Cd 0.15589 0.12796 0.62784 0.0
O353 O 0.13263 0.12699 0.66107 0.0
O354 O 0.16707 0.04096 0.64977 0.0
O355 O 0.13802 0.05303 0.6191 0.0
C356 C 0.14709 0.0347 0.63299 0.0
C357 C 0.1422 0.13996 0.58577 0.0
C358 C 0.13633 0.11115 0.67962 0.0
C359 C 0.21265 0.11486 0.6295 0.0
O360 O 0.19741 0.13301 0.63282 0.0
O361 O 0.20293 0.09088 0.62882 0.0
O362 O 0.14653 0.15724 0.60503 0.0
O363 O 0.14296 0.11543 0.59114 0.0
O364 O 0.20174 0.87207 0.87243 0.0
Cd365 Cd 0.16201 0.88144 0.87388 0.0
Cd366 Cd 0.18549 0.9257 0.85797 0.0
O367 O 0.21991 0.9134 0.8749 0.0
O368 O 0.14148 0.85268 0.89317 0.0
O369 O 0.15218 0.89269 0.91054 0.0
C370 C 0.14206 0.86863 0.91351 0.0
C371 C 0.16928 0.96557 0.86785 0.0
C372 C 0.22237 0.889 0.87598 0.0
C373 C 0.1502 0.89478 0.81871 0.0
O374 O 0.17279 0.90889 0.82143 0.0
O375 O 0.1391 0.88497 0.83914 0.0
O376 O 0.18996 0.9644 0.85313 0.0
O377 O 0.15862 0.94421 0.87835 0.0
O378 O 0.70161 0.37103 0.37021 0.0
Cd379 Cd 0.66146 0.37841 0.3725 0.0
Cd380 Cd 0.68273 0.42478 0.35912 0.0
O381 O 0.71809 0.41278 0.37488 0.0
O382 O 0.64222 0.34853 0.39128 0.0
O383 O 0.65101 0.38852 0.4093 0.0
C384 C 0.64184 0.36411 0.41181 0.0
C385 C 0.66491 0.46369 0.36993 0.0
C386 C 0.72158 0.38852 0.37477 0.0
C387 C 0.64856 0.3941 0.31836 0.0
O388 O 0.66997 0.40989 0.32184 0.0
O389 O 0.63852 0.38174 0.33794 0.0
O390 O 0.68588 0.46363 0.35542 0.0
O391 O 0.65534 0.44186 0.38028 0.0
O392 O 0.84518 0.4084 0.67882 0.0
Cd393 Cd 0.82921 0.42242 0.64414 0.0
Cd394 Cd 0.84183 0.37509 0.62608 0.0
O395 O 0.86337 0.37442 0.66177 0.0
O396 O 0.82142 0.45825 0.65498 0.0
O397 O 0.85261 0.45089 0.62614 0.0
C398 C 0.84043 0.46743 0.63988 0.0
C399 C 0.86 0.37243 0.58459 0.0
C400 C 0.85968 0.38956 0.68144 0.0
C401 C 0.78376 0.38274 0.62527 0.0
O402 O 0.80053 0.36568 0.62575 0.0
O403 O 0.7916 0.4069 0.62964 0.0
O404 O 0.85575 0.35177 0.59877 0.0
O405 O 0.85566 0.39501 0.59476 0.0
O406 O 0.65842 0.59908 0.08179 0.0
Cd407 Cd 0.6726 0.5833 0.11614 0.0
Cd408 Cd 0.61967 0.58413 0.12595 0.0
O409 O 0.6163 0.6046 0.09125 0.0
O410 O 0.71169 0.58574 0.10883 0.0
O411 O 0.69551 0.60724 0.14251 0.0
C412 C 0.71584 0.60237 0.12853 0.0
C413 C 0.61354 0.59839 0.16911 0.0
C414 C 0.63573 0.60688 0.07529 0.0
C415 C 0.63967 0.53171 0.12163 0.0
O416 O 0.61892 0.5442 0.12133 0.0
O417 O 0.6634 0.54371 0.12159 0.0
O418 O 0.59292 0.59109 0.15323 0.0
O419 O 0.63763 0.5995 0.15984 0.0
O420 O 0.62659 0.62823 0.94826 0.0
Cd421 Cd 0.63486 0.63587 0.90898 0.0
Cd422 Cd 0.62393 0.68418 0.92633 0.0
O423 O 0.63333 0.66945 0.96305 0.0
O424 O 0.65384 0.60603 0.89542 0.0
O425 O 0.67406 0.64643 0.90156 0.0
C426 C 0.67578 0.62198 0.89546 0.0
C427 C 0.63309 0.72926 0.91882 0.0
C428 C 0.62996 0.64499 0.96756 0.0
C429 C 0.58339 0.65126 0.88964 0.0
O430 O 0.58778 0.66913 0.90768 0.0
O431 O 0.60182 0.63709 0.88348 0.0
O432 O 0.61415 0.72008 0.93401 0.0
O433 O 0.64839 0.71282 0.90912 0.0
O434 O 0.5937 0.42048 0.15388 0.0
Cd435 Cd 0.57694 0.38713 0.17135 0.0
Cd436 Cd 0.58808 0.36705 0.12434 0.0
O437 O 0.6101 0.40257 0.11827 0.0
O438 O 0.57633 0.3989 0.20915 0.0
O439 O 0.60167 0.36856 0.19504 0.0
C440 C 0.59464 0.38349 0.21414 0.0
C441 C 0.60744 0.32796 0.12088 0.0
C442 C 0.60743 0.42254 0.13303 0.0
C443 C 0.52945 0.36799 0.13723 0.0
O444 O 0.54643 0.3653 0.11923 0.0
O445 O 0.53736 0.37448 0.161 0.0
O446 O 0.59993 0.33982 0.0999 0.0
O447 O 0.60494 0.33895 0.14401 0.0
O448 O 0.92565 0.3361 0.41115 0.0
Cd449 Cd 0.89114 0.31791 0.42769 0.0
Cd450 Cd 0.87513 0.36531 0.41575 0.0
O451 O 0.90945 0.3708 0.39387 0.0
O452 O 0.90072 0.28133 0.43128 0.0
O453 O 0.86761 0.29153 0.40401 0.0
C454 C 0.8823 0.27414 0.41312 0.0
C455 C 0.83156 0.367 0.39828 0.0
C456 C 0.92857 0.35643 0.39704 0.0
C457 C 0.87879 0.35325 0.47311 0.0
O458 O 0.87953 0.3715 0.45637 0.0
O459 O 0.88046 0.3296 0.46548 0.0
O460 O 0.84756 0.38825 0.40348 0.0
O461 O 0.84087 0.34458 0.40149 0.0
O462 O 0.93476 0.63177 0.6203 0.0
Cd463 Cd 0.89405 0.63189 0.62751 0.0
Cd464 Cd 0.91287 0.61952 0.67767 0.0
O465 O 0.94937 0.63415 0.66258 0.0
O466 O 0.87753 0.65003 0.59733 0.0
O467 O 0.88295 0.66713 0.63826 0.0
C468 C 0.87593 0.66974 0.61348 0.0
C469 C 0.90372 0.62503 0.72276 0.0
C470 C 0.95404 0.63494 0.63784 0.0
C471 C 0.87795 0.57815 0.64416 0.0
O472 O 0.89581 0.5834 0.66281 0.0
O473 O 0.87103 0.59605 0.62911 0.0
O474 O 0.92231 0.61107 0.71525 0.0
O475 O 0.89138 0.63755 0.70484 0.0
O476 O 0.61394 0.28788 0.61591 0.0
Cd477 Cd 0.61526 0.32808 0.61228 0.0
Cd478 Cd 0.6312 0.31629 0.56253 0.0
O479 O 0.62043 0.27816 0.5735 0.0
O480 O 0.59454 0.34213 0.64161 0.0
O481 O 0.5812 0.34228 0.59915 0.0
C482 C 0.57661 0.34728 0.62387 0.0
C483 C 0.62367 0.32796 0.51829 0.0
C484 C 0.61555 0.27106 0.59711 0.0
C485 C 0.67158 0.34705 0.60075 0.0
O486 O 0.66717 0.33427 0.57882 0.0
O487 O 0.65273 0.34905 0.61683 0.0
O488 O 0.6421 0.31329 0.52509 0.0
O489 O 0.60815 0.33506 0.53664 0.0
O490 O 0.87962 0.37905 0.80647 0.0
Cd491 Cd 0.88515 0.38364 0.84725 0.0
Cd492 Cd 0.93447 0.36781 0.83523 0.0
O493 O 0.92268 0.37756 0.79724 0.0
O494 O 0.85978 0.40921 0.85825 0.0
O495 O 0.90466 0.41792 0.86089 0.0
C496 C 0.88093 0.4258 0.86328 0.0
C497 C 0.97976 0.37324 0.84942 0.0
C498 C 0.89822 0.3791 0.78971 0.0
C499 C 0.8951 0.33169 0.86617 0.0
O500 O 0.91552 0.33454 0.85158 0.0
O501 O 0.88042 0.35025 0.8697 0.0
O502 O 0.97099 0.35629 0.83096 0.0
O503 O 0.96327 0.38882 0.85864 0.0
O504 O 0.82316 0.66048 0.09244 0.0
Cd505 Cd 0.85545 0.67982 0.07335 0.0
Cd506 Cd 0.87948 0.6738 0.12158 0.0
O507 O 0.84292 0.65502 0.13183 0.0
O508 O 0.84607 0.67579 0.03433 0.0
O509 O 0.88148 0.65984 0.05349 0.0
C510 C 0.86672 0.66268 0.0323 0.0
C511 C 0.91795 0.65184 0.12429 0.0
C512 C 0.8222 0.65209 0.11609 0.0
C513 C 0.87511 0.72908 0.10376 0.0
O514 O 0.88279 0.71442 0.12203 0.0
O515 O 0.8641 0.71935 0.08201 0.0
O516 O 0.90878 0.66239 0.1453 0.0
O517 O 0.90499 0.65349 0.10175 0.0
O518 O 0.61597 0.60645 0.29859 0.0
Cd519 Cd 0.61603 0.60435 0.33976 0.0
Cd520 Cd 0.56493 0.62318 0.32967 0.0
O521 O 0.57351 0.61441 0.29059 0.0
O522 O 0.64461 0.58103 0.34871 0.0
O523 O 0.60107 0.57044 0.356 0.0
C524 C 0.62558 0.56403 0.35645 0.0
C525 C 0.5207 0.61853 0.34426 0.0
C526 C 0.59643 0.60953 0.2823 0.0
C527 C 0.60905 0.65738 0.36198 0.0
O528 O 0.5865 0.65502 0.349 0.0
O529 O 0.62402 0.63875 0.3625 0.0
O530 O 0.52853 0.63599 0.32734 0.0
O531 O 0.53735 0.60209 0.35158 0.0
O532 O 0.61685 0.94322 0.62825 0.0
Cd533 Cd 0.6206 0.90352 0.63131 0.0
Cd534 Cd 0.66915 0.91859 0.61031 0.0
O535 O 0.65949 0.95604 0.61937 0.0
O536 O 0.59671 0.89098 0.66053 0.0
O537 O 0.64157 0.89229 0.66318 0.0
C538 C 0.61851 0.88807 0.67444 0.0
C539 C 0.71279 0.90659 0.6167 0.0
C540 C 0.6358 0.96144 0.62469 0.0
C541 C 0.62782 0.88241 0.57732 0.0
O542 O 0.64922 0.89844 0.57822 0.0
O543 O 0.6131 0.87954 0.59751 0.0
O544 O 0.70711 0.92244 0.59828 0.0
O545 O 0.6941 0.89867 0.63285 0.0
O546 O 0.36537 0.36493 0.03858 0.0
Cd547 Cd 0.36392 0.36368 0.07962 0.0
Cd548 Cd 0.37863 0.3135 0.0691 0.0
O549 O 0.37032 0.32306 0.03011 0.0
O550 O 0.34118 0.39174 0.09018 0.0
O551 O 0.32923 0.34927 0.09599 0.0
C552 C 0.32343 0.37329 0.09756 0.0
C553 C 0.36984 0.2706 0.08364 0.0
C554 C 0.36712 0.34597 0.02212 0.0
C555 C 0.41816 0.35355 0.09997 0.0
O556 O 0.41352 0.33167 0.08736 0.0
O557 O 0.40025 0.36945 0.10117 0.0
O558 O 0.38821 0.2768 0.06674 0.0
O559 O 0.35494 0.28838 0.09122 0.0
O560 O 0.41315 0.57714 0.83539 0.0
Cd561 Cd 0.42455 0.61409 0.82123 0.0
Cd562 Cd 0.41243 0.62679 0.86961 0.0
O563 O 0.39047 0.59026 0.86934 0.0
O564 O 0.42696 0.60814 0.78221 0.0
O565 O 0.39563 0.63004 0.79995 0.0
C566 C 0.40543 0.61988 0.77907 0.0
C567 C 0.39392 0.6659 0.87599 0.0
C568 C 0.3968 0.57196 0.85399 0.0
C569 C 0.47068 0.63326 0.85653 0.0
O570 O 0.45411 0.62893 0.87508 0.0
O571 O 0.46239 0.63187 0.83231 0.0
O572 O 0.39923 0.65159 0.89598 0.0
O573 O 0.39749 0.65708 0.85214 0.0
O574 O 0.07091 0.66866 0.58869 0.0
Cd575 Cd 0.10947 0.68384 0.57751 0.0
Cd576 Cd 0.1141 0.63365 0.58459 0.0
O577 O 0.08095 0.63229 0.60762 0.0
O578 O 0.10379 0.72145 0.57265 0.0
O579 O 0.13108 0.7086 0.60439 0.0
C580 C 0.11942 0.72723 0.59341 0.0
C581 C 0.15724 0.62648 0.59946 0.0
C582 C 0.06423 0.6488 0.60278 0.0
C583 C 0.1173 0.6501 0.53021 0.0
O584 O 0.10617 0.63186 0.54403 0.0
O585 O 0.12532 0.67214 0.54169 0.0
O586 O 0.13901 0.60697 0.59377 0.0
O587 O 0.15061 0.65018 0.59782 0.0
O588 O 0.05551 0.37627 0.37584 0.0
Cd589 Cd 0.09655 0.37715 0.36952 0.0
Cd590 Cd 0.07987 0.39013 0.32146 0.0
O591 O 0.04188 0.37646 0.33347 0.0
O592 O 0.11107 0.35295 0.39552 0.0
O593 O 0.10925 0.34559 0.35163 0.0
C594 C 0.11444 0.33764 0.37535 0.0
C595 C 0.09479 0.38083 0.27913 0.0
C596 C 0.03656 0.37436 0.35796 0.0
C597 C 0.11317 0.43143 0.35593 0.0
O598 O 0.09585 0.42637 0.33677 0.0
O599 O 0.11954 0.41323 0.37093 0.0
O600 O 0.07634 0.39634 0.28255 0.0
O601 O 0.10384 0.36916 0.2996 0.0
O602 O 0.38893 0.71315 0.38799 0.0
Cd603 Cd 0.38419 0.67269 0.38968 0.0
Cd604 Cd 0.36916 0.68454 0.43873 0.0
O605 O 0.38367 0.7226 0.4306 0.0
O606 O 0.4076 0.65942 0.3621 0.0
O607 O 0.41341 0.65292 0.4054 0.0
C608 C 0.42136 0.65016 0.38131 0.0
C609 C 0.37622 0.666 0.47983 0.0
C610 C 0.38873 0.72987 0.4071 0.0
C611 C 0.32659 0.65929 0.39912 0.0
O612 O 0.33199 0.67145 0.42131 0.0
O613 O 0.34522 0.6553 0.38328 0.0
O614 O 0.361 0.68469 0.47716 0.0
O615 O 0.38909 0.65878 0.45945 0.0
O616 O 0.08259 0.66228 0.14529 0.0
Cd617 Cd 0.06702 0.62777 0.16207 0.0
Cd618 Cd 0.12168 0.62188 0.15619 0.0
O619 O 0.12484 0.65681 0.13652 0.0
O620 O 0.02994 0.63767 0.16681 0.0
O621 O 0.03837 0.60524 0.13948 0.0
C622 C 0.02138 0.62018 0.14886 0.0
C623 C 0.12967 0.58111 0.13961 0.0
C624 C 0.10521 0.67082 0.13595 0.0
C625 C 0.1019 0.62172 0.2113 0.0
O626 O 0.12242 0.62492 0.19687 0.0
O627 O 0.07795 0.62003 0.20112 0.0
O628 O 0.14961 0.59857 0.1465 0.0
O629 O 0.10516 0.58749 0.1403 0.0
O630 O 0.17803 0.32995 0.92112 0.0
Cd631 Cd 0.14297 0.31395 0.93836 0.0
Cd632 Cd 0.12247 0.32374 0.8906 0.0
O633 O 0.15897 0.3448 0.88488 0.0
O634 O 0.14986 0.31873 0.97753 0.0
O635 O 0.11877 0.33814 0.95485 0.0
C636 C 0.13158 0.33486 0.97714 0.0
C637 C 0.08285 0.34317 0.8828 0.0
C638 C 0.1798 0.3427 0.89969 0.0
C639 C 0.12388 0.26695 0.90569 0.0
O640 O 0.12154 0.28333 0.88728 0.0
O641 O 0.12971 0.27507 0.92952 0.0
O642 O 0.09596 0.33448 0.86328 0.0
O643 O 0.09245 0.34111 0.9068 0.0
O644 O 0.36911 0.3822 0.68671 0.0
Cd645 Cd 0.37139 0.38797 0.64622 0.0
Cd646 Cd 0.42419 0.37262 0.65765 0.0
O647 O 0.41256 0.37905 0.69613 0.0
O648 O 0.34238 0.41072 0.63745 0.0
O649 O 0.38633 0.4239 0.63514 0.0
C650 C 0.36145 0.4292 0.63339 0.0
C651 C 0.47093 0.37497 0.65078 0.0
C652 C 0.38858 0.38071 0.70354 0.0
C653 C 0.38243 0.33772 0.6221 0.0
O654 O 0.40447 0.34136 0.63585 0.0
O655 O 0.36617 0.35523 0.62116 0.0
O656 O 0.45827 0.35629 0.66359 0.0
O657 O 0.45728 0.39362 0.64293 0.0
O658 O 0.37637 0.05283 0.36793 0.0
Cd659 Cd 0.37479 0.09288 0.3669 0.0
Cd660 Cd 0.326 0.07918 0.38811 0.0
O661 O 0.33364 0.04136 0.37753 0.0
O662 O 0.39988 0.1055 0.3388 0.0
O663 O 0.35552 0.10805 0.33611 0.0
C664 C 0.37888 0.11142 0.3253 0.0
C665 C 0.28353 0.09411 0.38174 0.0
C666 C 0.35688 0.0352 0.37151 0.0
C667 C 0.3699 0.11153 0.42194 0.0
O668 O 0.3474 0.09708 0.42073 0.0
O669 O 0.38441 0.11439 0.40166 0.0
O670 O 0.28774 0.07716 0.39956 0.0
O671 O 0.30297 0.1016 0.36624 0.0
C672 C 0.14529 0.30698 0.39541 0.0
C673 C 0.12163 0.31066 0.37979 0.0
C674 C 0.10947 0.26297 0.37694 0.0
C675 C 0.13031 0.25981 0.3962 0.0
N676 N 0.1681 0.27822 0.42441 0.0
N677 N 0.07916 0.29219 0.35826 0.0
C678 C 0.14851 0.28162 0.40539 0.0
C679 C 0.10337 0.28865 0.37081 0.0
N680 N 0.16479 0.32767 0.40026 0.0
N681 N 0.09542 0.24129 0.36463 0.0
H682 H 0.07315 0.31058 0.35402 0.0
H683 H 0.06381 0.27695 0.35418 0.0
H684 H 0.09946 0.22217 0.36878 0.0
H685 H 0.08179 0.2423 0.34851 0.0
H686 H 0.18357 0.32585 0.40951 0.0
H687 H 0.16313 0.34633 0.3928 0.0
H688 H 0.18003 0.29371 0.43428 0.0
H689 H 0.17148 0.25972 0.43132 0.0
C690 C 0.97844 0.84187 0.64164 0.0
C691 C 0.99549 0.86488 0.63575 0.0
C692 C 0.95799 0.88226 0.61145 0.0
C693 C 0.94054 0.85984 0.61839 0.0
N694 N 0.93239 0.82112 0.64466 0.0
N695 N 5e-05 0.9098 0.62133 0.0
C696 C 0.95025 0.84049 0.63495 0.0
C697 C 0.98481 0.88596 0.62258 0.0
N698 N 0.98935 0.82095 0.65253 0.0
N699 N 0.9496 0.89924 0.59303 0.0
H700 H 0.01971 0.91348 0.6296 0.0
H701 H 0.99226 0.92662 0.61447 0.0
H702 H 0.93023 0.89724 0.58402 0.0
H703 H 0.96262 0.91406 0.58492 0.0
H704 H 0.97845 0.80259 0.65456 0.0
H705 H 0.00993 0.82127 0.65766 0.0
H706 H 0.9378 0.80789 0.65883 0.0
H707 H 0.91154 0.81982 0.64044 0.0
C708 C 0.36128 0.72226 0.90752 0.0
C709 C 0.37777 0.74405 0.8979 0.0
C710 C 0.40288 0.71483 0.87136 0.0
C711 C 0.3863 0.69281 0.88078 0.0
N712 N 0.34573 0.67569 0.90235 0.0
N713 N 0.4086 0.76193 0.86533 0.0
C714 C 0.36416 0.69658 0.89715 0.0
C715 C 0.39655 0.74054 0.87787 0.0
N716 N 0.34358 0.72606 0.92715 0.0
N717 N 0.42596 0.71143 0.85813 0.0
H718 H 0.4044 0.78104 0.86986 0.0
H719 H 0.42051 0.76051 0.84876 0.0
H720 H 0.43225 0.69311 0.85369 0.0
H721 H 0.44036 0.7269 0.85368 0.0
H722 H 0.33322 0.71079 0.93728 0.0
H723 H 0.34029 0.74477 0.9342 0.0
H724 H 0.32788 0.67746 0.91224 0.0
H725 H 0.34707 0.6568 0.89455 0.0
C726 C 0.51188 0.15624 0.13835 0.0
C727 C 0.49364 0.13396 0.13039 0.0
C728 C 0.52822 0.1174 0.1027 0.0
C729 C 0.54686 0.13899 0.11174 0.0
N730 N 0.55871 0.17523 0.14302 0.0
N731 N 0.48638 0.09019 0.11051 0.0
C732 C 0.53936 0.15727 0.13111 0.0
C733 C 0.50239 0.11356 0.11421 0.0
N734 N 0.50272 0.17697 0.15169 0.0
N735 N 0.53457 0.10131 0.08222 0.0
H736 H 0.46754 0.08638 0.11907 0.0
H737 H 0.4929 0.0737 0.10119 0.0
H738 H 0.55327 0.10339 0.0732 0.0
H739 H 0.52054 0.0872 0.07274 0.0
H740 H 0.51447 0.19489 0.1554 0.0
H741 H 0.48262 0.17717 0.15701 0.0
H742 H 0.55499 0.18751 0.15903 0.0
H743 H 0.57918 0.1759 0.13871 0.0
C744 C 0.09637 0.71809 0.14011 0.0
C745 C 0.10858 0.69818 0.12617 0.0
C746 C 0.12784 0.73152 0.09589 0.0
C747 C 0.11198 0.75022 0.10732 0.0
N748 N 0.07459 0.75765 0.13526 0.0
N749 N 0.13054 0.68536 0.08629 0.0
C750 C 0.09418 0.74239 0.12786 0.0
C751 C 0.12275 0.70465 0.10268 0.0
N752 N 0.08812 0.71455 0.16562 0.0
N753 N 0.14873 0.73928 0.07983 0.0
H754 H 0.126 0.66538 0.08967 0.0
H755 H 0.13878 0.68926 0.06777 0.0
H756 H 0.15473 0.75887 0.07576 0.0
H757 H 0.16216 0.72645 0.07313 0.0
H758 H 0.08101 0.72951 0.17699 0.0
H759 H 0.09172 0.69813 0.17659 0.0
H760 H 0.05993 0.75148 0.14884 0.0
H761 H 0.07089 0.77474 0.12546 0.0
C762 C 0.51451 0.86244 0.38692 0.0
C763 C 0.51221 0.87625 0.36297 0.0
C764 C 0.56067 0.87487 0.35637 0.0
C765 C 0.56142 0.8563 0.37694 0.0
N766 N 0.53755 0.82996 0.41006 0.0
N767 N 0.53275 0.89617 0.32465 0.0
C768 C 0.53813 0.84978 0.39219 0.0
C769 C 0.5353 0.88287 0.34774 0.0
N770 N 0.49382 0.86082 0.40427 0.0
N771 N 0.58424 0.88525 0.34557 0.0
H772 H 0.51473 0.90356 0.31876 0.0
H773 H 0.54802 0.89884 0.31092 0.0
H774 H 0.60323 0.8805 0.35217 0.0
H775 H 0.58521 0.90047 0.33209 0.0
H776 H 0.49535 0.85299 0.42318 0.0
H777 H 0.47623 0.86989 0.40092 0.0
H778 H 0.52001 0.82253 0.41936 0.0
H779 H 0.5537 0.81899 0.41374 0.0
C780 C 0.39342 0.27542 0.5848 0.0
C781 C 0.373 0.2577 0.59559 0.0
C782 C 0.3546 0.29386 0.61917 0.0
C783 C 0.37546 0.31161 0.60896 0.0
N784 N 0.41022 0.32094 0.57723 0.0
N785 N 0.32986 0.2503 0.61631 0.0
C786 C 0.39337 0.30286 0.59006 0.0
C787 C 0.35212 0.26707 0.61052 0.0
N788 N 0.41347 0.26593 0.57062 0.0
N789 N 0.33844 0.30208 0.63853 0.0
H790 H 0.32747 0.23048 0.61029 0.0
H791 H 0.31268 0.25648 0.6248 0.0
H792 H 0.33924 0.32157 0.6453 0.0
H793 H 0.32536 0.28929 0.6492 0.0
H794 H 0.43067 0.27752 0.56477 0.0
H795 H 0.41364 0.24597 0.56591 0.0
H796 H 0.42228 0.31618 0.56165 0.0
H797 H 0.41025 0.34115 0.58065 0.0
C798 C 0.97799 0.12883 0.83132 0.0
C799 C 0.99394 0.11606 0.84983 0.0
C800 C 0.95715 0.11657 0.88119 0.0
C801 C 0.94515 0.13526 0.8654 0.0
N802 N 0.94922 0.16344 0.82705 0.0
N803 N 0.99912 0.10021 0.89486 0.0
C804 C 0.95669 0.1424 0.84069 0.0
C805 C 0.98361 0.11024 0.87542 0.0
N806 N 0.98344 0.12836 0.80483 0.0
N807 N 0.94318 0.10424 0.90116 0.0
H808 H 0.01871 0.09547 0.89226 0.0
H809 H 0.99314 0.09863 0.91454 0.0
H810 H 0.92309 0.10689 0.90482 0.0
H811 H 0.95039 0.08895 0.91171 0.0
H812 H 0.97107 0.13597 0.79037 0.0
H813 H 0.9983 0.11759 0.79721 0.0
H814 H 0.95891 0.17018 0.81 0.0
H815 H 0.93625 0.17633 0.83444 0.0
C816 C 0.41127 0.14424 0.26573 0.0
C817 C 0.39571 0.13077 0.24447 0.0
C818 C 0.36623 0.10723 0.27609 0.0
C819 C 0.38184 0.12059 0.29758 0.0
N820 N 0.41387 0.15716 0.31269 0.0
N821 N 0.35369 0.10636 0.22894 0.0
C822 C 0.40268 0.14089 0.29232 0.0
C823 C 0.37144 0.1148 0.24954 0.0
N824 N 0.43461 0.15964 0.26052 0.0
N825 N 0.34812 0.08584 0.2806 0.0
H826 H 0.35696 0.1116 0.20927 0.0
H827 H 0.33451 0.09658 0.23174 0.0
H828 H 0.34428 0.07858 0.29946 0.0
H829 H 0.33871 0.07363 0.26533 0.0
H830 H 0.44862 0.16747 0.27531 0.0
H831 H 0.44051 0.1636 0.24111 0.0
H832 H 0.42756 0.17367 0.30982 0.0
H833 H 0.40735 0.15565 0.33221 0.0
C834 C 0.15545 0.17276 0.51911 0.0
C835 C 0.13505 0.15826 0.50264 0.0
C836 C 0.11612 0.13615 0.54187 0.0
C837 C 0.13847 0.14812 0.55776 0.0
N838 N 0.18106 0.17625 0.56113 0.0
N839 N 0.0961 0.1257 0.4976 0.0
C840 C 0.15837 0.16634 0.54641 0.0
C841 C 0.11543 0.13979 0.51382 0.0
N842 N 0.17232 0.1925 0.50859 0.0
N843 N 0.09492 0.12233 0.55385 0.0
H844 H 0.09339 0.12928 0.47735 0.0
H845 H 0.08354 0.10956 0.50385 0.0
H846 H 0.09439 0.12006 0.57445 0.0
H847 H 0.07676 0.11526 0.5439 0.0
H848 H 0.18499 0.20619 0.52017 0.0
H849 H 0.17252 0.19645 0.48831 0.0
H850 H 0.19781 0.18679 0.55306 0.0
H851 H 0.18449 0.17234 0.58114 0.0
C852 C 0.13779 0.91141 0.77367 0.0
C853 C 0.13672 0.89042 0.7918 0.0
C854 C 0.10798 0.86262 0.75911 0.0
C855 C 0.1113 0.88303 0.7406 0.0
N856 N 0.13788 0.92223 0.72715 0.0
N857 N 0.12695 0.84357 0.79826 0.0
C858 C 0.12894 0.90598 0.74689 0.0
C859 C 0.12353 0.86522 0.7836 0.0
N860 N 0.14564 0.93678 0.78208 0.0
N861 N 0.08993 0.84098 0.75346 0.0
H862 H 0.13974 0.84415 0.81523 0.0
H863 H 0.11958 0.82453 0.79187 0.0
H864 H 0.0791 0.83813 0.73523 0.0
H865 H 0.08455 0.82681 0.76748 0.0
H866 H 0.1445 0.9527 0.76964 0.0
H867 H 0.14993 0.94233 0.80203 0.0
H868 H 0.15229 0.93846 0.73059 0.0
H869 H 0.13363 0.91722 0.70704 0.0
C870 C 0.3957 0.86088 0.02138 0.0
C871 C 0.3735 0.85084 0.00418 0.0
C872 C 0.34256 0.8511 0.04118 0.0
C873 C 0.36457 0.86213 0.05818 0.0
N874 N 0.41114 0.88048 0.06462 0.0
N875 N 0.32551 0.8393 0.99607 0.0
C876 C 0.3909 0.86796 0.0483 0.0
C877 C 0.34684 0.84665 0.01365 0.0
N878 N 0.4214 0.86292 0.01205 0.0
N879 N 0.31756 0.84475 0.05144 0.0
H880 H 0.32793 0.83493 0.97593 0.0
H881 H 0.30525 0.83904 0.00085 0.0
H882 H 0.31294 0.84951 0.07098 0.0
H883 H 0.30156 0.83365 0.0411 0.0
H884 H 0.43885 0.86758 0.02403 0.0
H885 H 0.42549 0.85822 0.99234 0.0
H886 H 0.43009 0.88778 0.05809 0.0
H887 H 0.40847 0.88507 0.08466 0.0
C888 C 0.40196 0.90381 0.2485 0.0
C889 C 0.39536 0.88024 0.26229 0.0
C890 C 0.36824 0.86108 0.22355 0.0
C891 C 0.37585 0.8842 0.20931 0.0
N892 N 0.40455 0.92505 0.20585 0.0
N893 N 0.37738 0.83455 0.26157 0.0
C894 C 0.39416 0.90482 0.22108 0.0
C895 C 0.38012 0.85824 0.24934 0.0
N896 N 0.41448 0.92564 0.2619 0.0
N897 N 0.34856 0.84251 0.21315 0.0
H898 H 0.38588 0.83181 0.28048 0.0
H899 H 0.36889 0.81713 0.25205 0.0
H900 H 0.33907 0.84391 0.19445 0.0
H901 H 0.33998 0.82678 0.22394 0.0
H902 H 0.41683 0.94423 0.25371 0.0
H903 H 0.42069 0.9257 0.28198 0.0
H904 H 0.42 0.93929 0.21262 0.0
H905 H 0.39956 0.92623 0.18557 0.0
C906 C 0.38334 0.16427 0.47664 0.0
C907 C 0.38129 0.14806 0.49916 0.0
C908 C 0.38239 0.10912 0.47012 0.0
C909 C 0.37879 0.12482 0.44766 0.0
N910 N 0.37498 0.16741 0.42904 0.0
N911 N 0.37762 0.10464 0.51766 0.0
C912 C 0.37958 0.15252 0.45067 0.0
C913 C 0.38108 0.12037 0.49612 0.0
N914 N 0.38896 0.19089 0.48022 0.0
N915 N 0.38701 0.08344 0.46646 0.0
H916 H 0.37647 0.1119 0.53712 0.0
H917 H 0.37395 0.08422 0.51606 0.0
H918 H 0.38821 0.0748 0.44753 0.0
H919 H 0.39229 0.07159 0.48198 0.0
H920 H 0.39312 0.20363 0.46464 0.0
H921 H 0.39217 0.19991 0.49912 0.0
H922 H 0.37199 0.18722 0.43052 0.0
H923 H 0.37238 0.15961 0.40962 0.0
C924 C 0.12423 0.13682 0.74945 0.0
C925 C 0.10838 0.11459 0.75922 0.0
C926 C 0.1047 0.09423 0.71441 0.0
C927 C 0.12415 0.11433 0.70582 0.0
N928 N 0.15404 0.15411 0.71531 0.0
N929 N 0.08466 0.07121 0.75181 0.0
C930 C 0.13411 0.13569 0.72325 0.0
C931 C 0.09858 0.09314 0.74186 0.0
N932 N 0.12944 0.15914 0.76515 0.0
N933 N 0.09178 0.0765 0.69615 0.0
H934 H 0.07956 0.06979 0.77176 0.0
H935 H 0.07981 0.05375 0.74076 0.0
H936 H 0.09557 0.07714 0.67582 0.0
H937 H 0.07563 0.06279 0.70067 0.0
H938 H 0.13859 0.17686 0.75828 0.0
H939 H 0.12228 0.16066 0.78438 0.0
H940 H 0.16442 0.16828 0.72821 0.0
H941 H 0.16163 0.15417 0.69618 0.0
C942 C 0.12772 0.82423 0.97254 0.0
C943 C 0.12276 0.84277 0.99269 0.0
C944 C 0.12154 0.87587 0.95821 0.0
C945 C 0.13333 0.85904 0.94005 0.0
N946 N 0.154 0.81831 0.93407 0.0
N947 N 0.11857 0.88845 0.00459 0.0
C948 C 0.13794 0.83335 0.94811 0.0
C949 C 0.12031 0.86922 0.98557 0.0
N950 N 0.12298 0.79789 0.97675 0.0
N951 N 0.11099 0.89782 0.94943 0.0
H952 H 0.11874 0.8852 0.02497 0.0
H953 H 0.1196 0.90832 8e-05 0.0
H954 H 0.10991 0.90243 0.9293 0.0
H955 H 0.10032 0.90949 0.96168 0.0
H956 H 0.12468 0.78374 0.96175 0.0
H957 H 0.11421 0.79051 0.99403 0.0
H958 H 0.15916 0.80031 0.94081 0.0
H959 H 0.16531 0.8251 0.91807 0.0
C960 C 0.27264 0.36917 0.09107 0.0
C961 C 0.29643 0.37979 0.10583 0.0
C962 C 0.27006 0.41001 0.1301 0.0
C963 C 0.24639 0.3991 0.11557 0.0
N964 N 0.22349 0.36415 0.08752 0.0
N965 N 0.31682 0.40565 0.14351 0.0
C966 C 0.24717 0.37718 0.09792 0.0
C967 C 0.29482 0.39879 0.12668 0.0
N968 N 0.27447 0.35304 0.06921 0.0
N969 N 0.269 0.43157 0.14649 0.0
H970 H 0.33501 0.39734 0.14181 0.0
H971 H 0.31632 0.41762 0.16052 0.0
H972 H 0.25091 0.43946 0.15019 0.0
H973 H 0.28611 0.4424 0.15527 0.0
H974 H 0.25823 0.34733 0.05589 0.0
H975 H 0.29267 0.34712 0.06281 0.0
H976 H 0.22256 0.34641 0.07672 0.0
H977 H 0.20447 0.36975 0.09182 0.0
C978 C 0.75557 0.11729 0.90366 0.0
C979 C 0.74426 0.12407 0.87874 0.0
C980 C 0.78711 0.14892 0.86793 0.0
C981 C 0.799 0.14057 0.89199 0.0
N982 N 0.79644 0.11274 0.93016 0.0
N983 N 0.75023 0.14147 0.83483 0.0
C984 C 0.78378 0.1235 0.90911 0.0
C985 C 0.76035 0.1384 0.86013 0.0
N986 N 0.7392 0.10609 0.92261 0.0
N987 N 0.80073 0.16796 0.8533 0.0
H988 H 0.73067 0.13389 0.82839 0.0
H989 H 0.76201 0.14936 0.81956 0.0
H990 H 0.82021 0.1767 0.85851 0.0
H991 H 0.79181 0.17687 0.83729 0.0
H992 H 0.74587 0.10351 0.94219 0.0
H993 H 0.71834 0.10136 0.91951 0.0
H994 H 0.78694 0.09813 0.94177 0.0
H995 H 0.81721 0.11665 0.93448 0.0
C996 C 0.13941 0.5101 0.15369 0.0
C997 C 0.14539 0.50061 0.12799 0.0
C998 C 0.14316 0.54467 0.11008 0.0
C999 C 0.13467 0.55339 0.13515 0.0
N1000 N 0.12193 0.54421 0.18029 0.0
N1001 N 0.14966 0.50754 0.08084 0.0
C1002 C 0.13192 0.536 0.15679 0.0
C1003 C 0.14655 0.51758 0.10592 0.0
N1004 N 0.14212 0.49471 0.17537 0.0
N1005 N 0.1482 0.56234 0.09037 0.0
H1006 H 0.15213 0.48783 0.077 0.0
H1007 H 0.14773 0.51818 0.06357 0.0
H1008 H 0.14494 0.58208 0.09248 0.0
H1009 H 0.15731 0.55793 0.07266 0.0
H1010 H 0.14094 0.50143 0.195 0.0
H1011 H 0.14806 0.47578 0.17399 0.0
H1012 H 0.11631 0.53162 0.19562 0.0
H1013 H 0.11746 0.56341 0.1839 0.0
C1014 C 0.7302 0.83429 0.39535 0.0
C1015 C 0.70807 0.84888 0.3895 0.0
C1016 C 0.73839 0.88092 0.36633 0.0
C1017 C 0.76101 0.86856 0.37584 0.0
N1018 N 0.7783 0.8364 0.40482 0.0
N1019 N 0.69201 0.88885 0.3736 0.0
C1020 C 0.75694 0.84602 0.39185 0.0
C1021 C 0.71236 0.87299 0.37611 0.0
N1022 N 0.72576 0.8088 0.40316 0.0
N1023 N 0.74146 0.89944 0.34715 0.0
H1024 H 0.67286 0.88419 0.38125 0.0
H1025 H 0.695 0.90782 0.36633 0.0
H1026 H 0.75991 0.90486 0.3384 0.0
H1027 H 0.72513 0.9072 0.33782 0.0
H1028 H 0.74124 0.79665 0.4051 0.0
H1029 H 0.70644 0.79884 0.4047 0.0
H1030 H 0.77576 0.82175 0.41889 0.0
H1031 H 0.79831 0.84475 0.40388 0.0
C1032 C 0.88232 0.98125 0.14125 0.0
C1033 C 0.86781 0.95895 0.12784 0.0
C1034 C 0.83551 0.98722 0.1088 0.0
C1035 C 0.8503 0.00934 0.12191 0.0
N1036 N 0.89231 0.02863 0.14315 0.0
N1037 N 0.83544 0.94198 0.09307 0.0
C1038 C 0.87536 0.00676 0.13541 0.0
C1039 C 0.84589 0.96236 0.10973 0.0
N1040 N 0.90106 0.9782 0.16125 0.0
N1041 N 0.8113 0.98988 0.09592 0.0
H1042 H 0.84327 0.92385 0.09267 0.0
H1043 H 0.82099 0.94385 0.07788 0.0
H1044 H 0.80401 0.00812 0.09358 0.0
H1045 H 0.79795 0.97399 0.08871 0.0
H1046 H 0.90976 0.99373 0.1736 0.0
H1047 H 0.906 0.96002 0.16755 0.0
H1048 H 0.91193 0.02779 0.15094 0.0
H1049 H 0.88793 0.04763 0.13911 0.0
C1050 C 0.20056 0.60997 0.58583 0.0
C1051 C 0.18568 0.62168 0.60572 0.0
C1052 C 0.2256 0.62534 0.6364 0.0
C1053 C 0.23967 0.61165 0.61727 0.0
N1054 N 0.23997 0.58814 0.57504 0.0
N1055 N 0.18237 0.63758 0.65095 0.0
C1056 C 0.22691 0.60302 0.5924 0.0
C1057 C 0.19779 0.62871 0.63128 0.0
N1058 N 0.19007 0.6068 0.56023 0.0
N1059 N 0.23892 0.63526 0.65937 0.0
H1060 H 0.16198 0.64029 0.64788 0.0
H1061 H 0.18907 0.64037 0.67081 0.0
H1062 H 0.25885 0.63207 0.6644 0.0
H1063 H 0.2309 0.64801 0.6727 0.0
H1064 H 0.20101 0.60107 0.54416 0.0
H1065 H 0.17114 0.61226 0.55443 0.0
H1066 H 0.23055 0.57857 0.5581 0.0
H1067 H 0.25983 0.58379 0.57844 0.0
C1068 C 0.12762 0.47246 0.38438 0.0
C1069 C 0.12662 0.45866 0.35935 0.0
C1070 C 0.14182 0.49944 0.3375 0.0
C1071 C 0.14608 0.51264 0.36274 0.0
N1072 N 0.14805 0.5102 0.41079 0.0
N1073 N 0.14055 0.45788 0.31366 0.0
C1074 C 0.14046 0.49873 0.38643 0.0
C1075 C 0.13619 0.4718 0.33641 0.0
N1076 N 0.1152 0.46117 0.4058 0.0
N1077 N 0.14155 0.51328 0.31451 0.0
H1078 H 0.13798 0.43739 0.31248 0.0
H1079 H 0.14974 0.46654 0.29718 0.0
H1080 H 0.14344 0.53377 0.31428 0.0
H1081 H 0.13607 0.5044 0.2959 0.0
H1082 H 0.11298 0.47148 0.42362 0.0
H1083 H 0.10486 0.44232 0.40504 0.0
H1084 H 0.14678 0.49997 0.4285 0.0
H1085 H 0.15806 0.52915 0.41307 0.0
C1086 C 0.37243 0.53105 0.83285 0.0
C1087 C 0.38385 0.54465 0.85621 0.0
C1088 C 0.37001 0.50591 0.88244 0.0
C1089 C 0.36192 0.49146 0.85846 0.0
N1090 N 0.36311 0.4888 0.81026 0.0
N1091 N 0.39818 0.54324 0.90267 0.0
C1092 C 0.36534 0.50358 0.83347 0.0
C1093 C 0.38393 0.53164 0.88094 0.0
N1094 N 0.36727 0.54442 0.81029 0.0
N1095 N 0.36359 0.49559 0.90658 0.0
H1096 H 0.40931 0.5617 0.90223 0.0
H1097 H 0.40111 0.53347 0.92036 0.0
H1098 H 0.35287 0.4771 0.90849 0.0
H1099 H 0.36662 0.5064 0.9245 0.0
H1100 H 0.35677 0.5355 0.79353 0.0
H1101 H 0.37055 0.56487 0.8094 0.0
H1102 H 0.36792 0.49667 0.79182 0.0
H1103 H 0.35969 0.46832 0.80974 0.0
C1104 C 0.85379 0.71159 0.62008 0.0
C1105 C 0.86797 0.69522 0.60353 0.0
C1106 C 0.86631 0.72758 0.56857 0.0
C1107 C 0.85896 0.74646 0.5873 0.0
N1108 N 0.84897 0.75639 0.63337 0.0
N1109 N 0.89352 0.69194 0.56319 0.0
C1110 C 0.85322 0.7385 0.61373 0.0
C1111 C 0.87558 0.70414 0.57789 0.0
N1112 N 0.84038 0.70149 0.64149 0.0
N1113 N 0.86481 0.73214 0.54188 0.0
H1114 H 0.90405 0.67684 0.57024 0.0
H1115 H 0.90084 0.6994 0.54534 0.0
H1116 H 0.85689 0.74868 0.53433 0.0
H1117 H 0.86828 0.71799 0.52744 0.0
H1118 H 0.82803 0.71231 0.65283 0.0
H1119 H 0.8388 0.68155 0.64575 0.0
H1120 H 0.84763 0.75142 0.65336 0.0
H1121 H 0.84932 0.77647 0.6305 0.0
C1122 C 0.01833 0.15353 0.35785 0.0
C1123 C 0.00165 0.13222 0.36833 0.0
C1124 C 0.04027 0.1196 0.39493 0.0
C1125 C 0.05717 0.14024 0.38358 0.0
N1126 N 0.06407 0.17251 0.34961 0.0
N1127 N 0.99801 0.09109 0.39125 0.0
C1128 C 0.04672 0.15579 0.36349 0.0
C1129 C 0.01302 0.11403 0.38516 0.0
N1130 N 0.00696 0.17238 0.34376 0.0
N1131 N 0.04967 0.10629 0.41603 0.0
H1132 H 0.97809 0.08608 0.38411 0.0
H1133 H 0.00614 0.07592 0.40118 0.0
H1134 H 0.06951 0.10962 0.42384 0.0
H1135 H 0.0372 0.09334 0.42713 0.0
H1136 H 0.01784 0.18982 0.33818 0.0
H1137 H 0.98616 0.17179 0.33967 0.0
H1138 H 0.05798 0.18267 0.33309 0.0
H1139 H 0.08506 0.17415 0.35299 0.0
C1140 C 0.64142 0.27282 0.08957 0.0
C1141 C 0.62859 0.2509 0.10258 0.0
C1142 C 0.60539 0.27977 0.13138 0.0
C1143 C 0.61773 0.3019 0.11797 0.0
N1144 N 0.65362 0.32005 0.09046 0.0
N1145 N 0.60599 0.2336 0.14104 0.0
C1146 C 0.63783 0.29858 0.09904 0.0
C1147 C 0.61338 0.25451 0.12545 0.0
N1148 N 0.65624 0.26893 0.06765 0.0
N1149 N 0.58445 0.28229 0.14795 0.0
H1150 H 0.6117 0.21492 0.13704 0.0
H1151 H 0.59686 0.23539 0.15929 0.0
H1152 H 0.57696 0.30008 0.15228 0.0
H1153 H 0.57276 0.26627 0.15564 0.0
H1154 H 0.66344 0.28399 0.05529 0.0
H1155 H 0.6603 0.25023 0.06124 0.0
H1156 H 0.67006 0.31879 0.07831 0.0
H1157 H 0.65194 0.33907 0.09772 0.0
C1158 C 0.47204 0.88032 0.89958 0.0
C1159 C 0.45406 0.85933 0.88816 0.0
C1160 C 0.49014 0.84545 0.86073 0.0
C1161 C 0.50786 0.8671 0.87134 0.0
N1162 N 0.51392 0.90871 0.8957 0.0
N1163 N 0.44363 0.826 0.85357 0.0
C1164 C 0.49827 0.88564 0.88923 0.0
C1165 C 0.46241 0.84315 0.86735 0.0
N1166 N 0.46456 0.89444 0.92108 0.0
N1167 N 0.50002 0.82641 0.84546 0.0
H1168 H 0.42303 0.8245 0.85755 0.0
H1169 H 0.44794 0.81533 0.83659 0.0
H1170 H 0.5203 0.82716 0.84044 0.0
H1171 H 0.48866 0.80876 0.83965 0.0
H1172 H 0.478 0.90781 0.93224 0.0
H1173 H 0.44538 0.89142 0.92906 0.0
H1174 H 0.5069 0.92414 0.90641 0.0
H1175 H 0.53308 0.91351 0.88817 0.0
C1176 C 0.90631 0.27217 0.90622 0.0
C1177 C 0.88537 0.25358 0.89524 0.0
C1178 C 0.86832 0.28743 0.86738 0.0
C1179 C 0.88888 0.30608 0.8788 0.0
N1180 N 0.92301 0.31824 0.91337 0.0
N1181 N 0.84245 0.24477 0.87077 0.0
C1182 C 0.90647 0.29906 0.89965 0.0
C1183 C 0.86513 0.26159 0.87742 0.0
N1184 N 0.92675 0.26399 0.92182 0.0
N1185 N 0.85258 0.29407 0.84622 0.0
H1186 H 0.83909 0.22585 0.87814 0.0
H1187 H 0.82578 0.25038 0.86003 0.0
H1188 H 0.85375 0.31305 0.83886 0.0
H1189 H 0.83958 0.28043 0.8349 0.0
H1190 H 0.94413 0.27617 0.92796 0.0
H1191 H 0.92745 0.24442 0.9269 0.0
H1192 H 0.93463 0.31479 0.93034 0.0
H1193 H 0.92299 0.33815 0.90927 0.0
C1194 C 0.46362 0.14898 0.61022 0.0
C1195 C 0.44094 0.14165 0.626 0.0
C1196 C 0.46856 0.11532 0.65395 0.0
C1197 C 0.49107 0.12267 0.63814 0.0
N1198 N 0.50816 0.13978 0.5969 0.0
N1199 N 0.41974 0.11217 0.65784 0.0
C1200 C 0.48784 0.13702 0.61464 0.0
C1201 C 0.44275 0.12298 0.64633 0.0
N1202 N 0.46295 0.16889 0.59254 0.0
N1203 N 0.47207 0.10159 0.67662 0.0
H1204 H 0.40045 0.11681 0.6521 0.0
H1205 H 0.41945 0.09681 0.67111 0.0
H1206 H 0.49038 0.09436 0.68175 0.0
H1207 H 0.45732 0.0984 0.69081 0.0
H1208 H 0.47997 0.17704 0.58287 0.0
H1209 H 0.44618 0.17916 0.58933 0.0
H1210 H 0.50595 0.14794 0.57822 0.0
H1211 H 0.52627 0.13146 0.59963 0.0
C1212 C 0.6035 0.71648 0.40702 0.0
C1213 C 0.62379 0.73471 0.39676 0.0
C1214 C 0.63781 0.70071 0.36659 0.0
C1215 C 0.61732 0.68252 0.37663 0.0
N1216 N 0.5855 0.67069 0.41059 0.0
N1217 N 0.66468 0.74308 0.37232 0.0
C1218 C 0.60171 0.68968 0.39827 0.0
C1219 C 0.64241 0.72642 0.37831 0.0
N1220 N 0.58524 0.72499 0.42414 0.0
N1221 N 0.65182 0.69391 0.34494 0.0
H1222 H 0.66869 0.76205 0.38064 0.0
H1223 H 0.68042 0.73737 0.36109 0.0
H1224 H 0.64946 0.67507 0.33618 0.0
H1225 H 0.66456 0.7073 0.33461 0.0
H1226 H 0.56806 0.71332 0.42993 0.0
H1227 H 0.58636 0.74439 0.43135 0.0
H1228 H 0.57525 0.67411 0.42787 0.0
H1229 H 0.58437 0.65084 0.40486 0.0
C1230 C 0.02736 0.85412 0.10915 0.0
C1231 C 0.05176 0.86715 0.12095 0.0
C1232 C 0.02562 0.89547 0.14778 0.0
C1233 C 0.00143 0.88231 0.13607 0.0
N1234 N 0.97903 0.85468 0.10068 0.0
N1235 N 0.0745 0.90459 0.14573 0.0
C1236 C 0.00231 0.86366 0.11489 0.0
C1237 C 0.05099 0.88929 0.13845 0.0
N1238 N 0.02774 0.83141 0.09427 0.0
N1239 N 0.02429 0.91318 0.16839 0.0
H1240 H 0.09329 0.90088 0.13865 0.0
H1241 H 0.07511 0.92224 0.15661 0.0
H1242 H 0.00593 0.91895 0.17467 0.0
H1243 H 0.04112 0.92116 0.17997 0.0
H1244 H 0.01027 0.81947 0.08791 0.0
H1245 H 0.04541 0.82305 0.09013 0.0
H1246 H 0.9787 0.84294 0.08339 0.0
H1247 H 0.96031 0.86112 0.10469 0.0
C1248 C 0.63015 0.89954 0.72292 0.0
C1249 C 0.61676 0.88186 0.70316 0.0
C1250 C 0.59137 0.85794 0.73788 0.0
C1251 C 0.60479 0.8756 0.75742 0.0
N1252 N 0.64181 0.90839 0.76988 0.0
N1253 N 0.5901 0.84057 0.69232 0.0
C1254 C 0.62594 0.89468 0.75033 0.0
C1255 C 0.59907 0.85984 0.71084 0.0
N1256 N 0.64514 0.92209 0.71566 0.0
N1257 N 0.57069 0.83997 0.74507 0.0
H1258 H 0.59594 0.84118 0.67253 0.0
H1259 H 0.57907 0.82291 0.69701 0.0
H1260 H 0.56548 0.8374 0.7649 0.0
H1261 H 0.5579 0.8286 0.7314 0.0
H1262 H 0.65245 0.93718 0.72917 0.0
H1263 H 0.64846 0.92702 0.69594 0.0
H1264 H 0.65931 0.92067 0.76604 0.0
H1265 H 0.63897 0.90552 0.79016 0.0
C1266 C 0.88709 0.86009 0.48212 0.0
C1267 C 0.86452 0.86351 0.49807 0.0
C1268 C 0.8393 0.8778 0.45908 0.0
C1269 C 0.86208 0.87491 0.44324 0.0
N1270 N 0.90905 0.86805 0.44002 0.0
N1271 N 0.82071 0.87912 0.50309 0.0
C1272 C 0.88638 0.86734 0.45487 0.0
C1273 C 0.84121 0.87365 0.48698 0.0
N1274 N 0.90917 0.84984 0.49303 0.0
N1275 N 0.81523 0.88288 0.44722 0.0
H1276 H 0.82007 0.87437 0.52315 0.0
H1277 H 0.80499 0.88983 0.49703 0.0
H1278 H 0.81284 0.88663 0.42702 0.0
H1279 H 0.79694 0.88157 0.4569 0.0
H1280 H 0.92478 0.84374 0.48191 0.0
H1281 H 0.91143 0.84624 0.51332 0.0
H1282 H 0.92821 0.86527 0.44777 0.0
H1283 H 0.9092 0.87365 0.42016 0.0
C1284 C 0.8729 0.1362 0.2187 0.0
C1285 C 0.8691 0.11149 0.20474 0.0
C1286 C 0.88686 0.09041 0.24381 0.0
C1287 C 0.89402 0.11541 0.2565 0.0
N1288 N 0.89843 0.16273 0.25359 0.0
N1289 N 0.88007 0.06657 0.20176 0.0
C1290 C 0.88834 0.13856 0.24329 0.0
C1291 C 0.87836 0.08904 0.21661 0.0
N1292 N 0.86086 0.15709 0.20924 0.0
N1293 N 0.88681 0.06785 0.25791 0.0
H1294 H 0.87552 0.06506 0.18132 0.0
H1295 H 0.88909 0.05057 0.20911 0.0
H1296 H 0.89119 0.06775 0.27837 0.0
H1297 H 0.8792 0.04943 0.2499 0.0
H1298 H 0.86079 0.17472 0.22006 0.0
H1299 H 0.84868 0.15599 0.19182 0.0
H1300 H 0.8971 0.18007 0.24338 0.0
H1301 H 0.91046 0.16526 0.27111 0.0
C1302 C 0.6093 0.13185 0.94941 0.0
C1303 C 0.63548 0.13846 0.93951 0.0
C1304 C 0.6528 0.15452 0.98391 0.0
C1305 C 0.62704 0.14655 0.9942 0.0
N1306 N 0.58146 0.12513 0.9881 0.0
N1307 N 0.68339 0.15105 0.94772 0.0
C1308 C 0.60547 0.13438 0.97734 0.0
C1309 C 0.65758 0.14849 0.95685 0.0
N1310 N 0.58802 0.124 0.93198 0.0
N1311 N 0.6727 0.168 -3e-05 0.0
H1312 H 0.68789 0.14664 0.92807 0.0
H1313 H 0.70068 0.15527 0.96007 0.0
H1314 H 0.67059 0.1717 0.02028 0.0
H1315 H 0.6907 0.17715 0.99285 0.0
H1316 H 0.56788 0.12147 0.9374 0.0
H1317 H 0.59033 0.12166 0.91149 0.0
H1318 H 0.56596 0.11356 0.97753 0.0
H1319 H 0.57754 0.12776 0.00824 0.0
C1320 C 0.60416 0.12392 0.78278 0.0
C1321 C 0.62902 0.11364 0.78893 0.0
C1322 C 0.63278 0.10167 0.74189 0.0
C1323 C 0.61032 0.1155 0.73517 0.0
N1324 N 0.57846 0.14523 0.74951 0.0
N1325 N 0.67087 0.10003 0.77258 0.0
C1326 C 0.59696 0.12816 0.75568 0.0
C1327 C 0.6445 0.10461 0.76799 0.0
N1328 N 0.58691 0.12876 0.80252 0.0
N1329 N 0.64243 0.08492 0.72381 0.0
H1330 H 0.68118 0.10393 0.79095 0.0
H1331 H 0.68343 0.09554 0.75726 0.0
H1332 H 0.63342 0.08073 0.7049 0.0
H1333 H 0.65733 0.07281 0.72883 0.0
H1334 H 0.56744 0.13392 0.79859 0.0
H1335 H 0.59082 0.12489 0.82251 0.0
H1336 H 0.57018 0.15668 0.76392 0.0
H1337 H 0.57365 0.1502 0.73003 0.0
C1338 C 0.61931 0.8266 0.52521 0.0
C1339 C 0.62231 0.84161 0.50185 0.0
C1340 C 0.61801 0.88164 0.52841 0.0
C1341 C 0.62063 0.86738 0.55203 0.0
N1342 N 0.62529 0.82618 0.57331 0.0
N1343 N 0.62735 0.8843 0.48157 0.0
C1344 C 0.62122 0.83972 0.55063 0.0
C1345 C 0.62191 0.86935 0.50338 0.0
N1346 N 0.61432 0.79983 0.52302 0.0
N1347 N 0.61191 0.90704 0.53 0.0
H1348 H 0.63135 0.87651 0.46294 0.0
H1349 H 0.63038 0.90477 0.48253 0.0
H1350 H 0.60871 0.91643 0.54816 0.0
H1351 H 0.60723 0.91771 0.51334 0.0
H1352 H 0.6095 0.78798 0.53915 0.0
H1353 H 0.61224 0.78973 0.50461 0.0
H1354 H 0.62925 0.80658 0.57312 0.0
H1355 H 0.62657 0.83494 0.59235 0.0
C1356 C 0.88724 0.91624 0.27984 0.0
C1357 C 0.87489 0.89302 0.2913 0.0
C1358 C 0.88417 0.86729 0.25145 0.0
C1359 C 0.89323 0.89096 0.2388 0.0
N1360 N 0.9018 0.93821 0.23959 0.0
N1361 N 0.85856 0.84684 0.28711 0.0
C1362 C 0.89447 0.91554 0.25266 0.0
C1363 C 0.87281 0.86854 0.27701 0.0
N1364 N 0.89273 0.93876 0.2952 0.0
N1365 N 0.88652 0.84361 0.23899 0.0
H1366 H 0.8496 0.84693 0.3056 0.0
H1367 H 0.85365 0.82926 0.27628 0.0
H1368 H 0.89429 0.84199 0.22002 0.0
H1369 H 0.88297 0.82564 0.24828 0.0
H1370 H 0.90396 0.95567 0.28881 0.0
H1371 H 0.88815 0.93984 0.31532 0.0
H1372 H 0.90001 0.95691 0.24753 0.0
H1373 H 0.90818 0.93832 0.21997 0.0
C1374 C 0.8621 0.12804 0.00688 0.0
C1375 C 0.88019 0.15095 0.00362 0.0
C1376 C 0.89124 0.15286 0.0516 0.0
C1377 C 0.86911 0.13343 0.0554 0.0
N1378 N 0.831 0.1046 0.03615 0.0
N1379 N 0.91238 0.18556 0.02232 0.0
C1380 C 0.85417 0.1211 0.03292 0.0
C1381 C 0.89512 0.16335 0.02582 0.0
N1382 N 0.85196 0.11328 0.98502 0.0
N1383 N 0.90874 0.16089 0.07255 0.0
H1384 H 0.91659 0.1928 0.00345 0.0
H1385 H 0.92146 0.19736 0.03805 0.0
H1386 H 0.90686 0.15291 0.09143 0.0
H1387 H 0.92651 0.1734 0.07059 0.0
H1388 H 0.84062 0.09502 0.98629 0.0
H1389 H 0.8573 0.11801 0.96565 0.0
H1390 H 0.81778 0.09772 0.02034 0.0
H1391 H 0.82332 0.09967 0.05461 0.0
C1392 C 0.74975 0.62109 0.8774 0.0
C1393 C 0.75464 0.59509 0.88428 0.0
C1394 C 0.70836 0.58733 0.89975 0.0
C1395 C 0.70244 0.61215 0.89023 0.0
N1396 N 0.716 0.64862 0.86207 0.0
N1397 N 0.73473 0.55099 0.8927 0.0
C1398 C 0.72263 0.62778 0.8765 0.0
C1399 C 0.73265 0.57738 0.89232 0.0
N1400 N 0.77069 0.64002 0.87341 0.0
N1401 N 0.69216 0.57394 0.9175 0.0
H1402 H 0.75164 0.54276 0.88582 0.0
H1403 H 0.71836 0.53725 0.89664 0.0
H1404 H 0.67579 0.5815 0.92618 0.0
H1405 H 0.69727 0.55681 0.92634 0.0
H1406 H 0.76779 0.65972 0.87092 0.0
H1407 H 0.79103 0.63699 0.87551 0.0
H1408 H 0.72972 0.6592 0.85 0.0
H1409 H 0.69613 0.65321 0.85952 0.0
C1410 C 0.24138 0.86199 0.14121 0.0
C1411 C 0.25722 0.8762 0.12231 0.0
C1412 C 0.21681 0.87891 0.09363 0.0
C1413 C 0.20159 0.86216 0.11104 0.0
N1414 N 0.20024 0.83385 0.14902 0.0
N1415 N 0.26132 0.89467 0.07859 0.0
C1416 C 0.21402 0.85272 0.1343 0.0
C1417 C 0.2453 0.88382 0.09799 0.0
N1418 N 0.25224 0.85797 0.16601 0.0
N1419 N 0.20391 0.89061 0.07335 0.0
H1420 H 0.28237 0.89825 0.08085 0.0
H1421 H 0.25404 0.89795 0.05937 0.0
H1422 H 0.18296 0.88768 0.06979 0.0
H1423 H 0.21358 0.90508 0.06167 0.0
H1424 H 0.24076 0.85026 0.18156 0.0
H1425 H 0.27225 0.86452 0.17184 0.0
H1426 H 0.20938 0.82415 0.16435 0.0
H1427 H 0.18028 0.82607 0.1445 0.0
C1428 C 0.87512 0.49802 0.85125 0.0
C1429 C 0.86711 0.50669 0.8766 0.0
C1430 C 0.86794 0.46204 0.89342 0.0
C1431 C 0.87774 0.45389 0.86866 0.0
N1432 N 0.89408 0.46455 0.82501 0.0
N1433 N 0.86021 0.49843 0.92314 0.0
C1434 C 0.88256 0.47209 0.84796 0.0
C1435 C 0.86461 0.48908 0.89807 0.0
N1436 N 0.8741 0.51406 0.82988 0.0
N1437 N 0.86159 0.44386 0.9124 0.0
H1438 H 0.85799 0.51813 0.92736 0.0
H1439 H 0.861 0.48725 0.94016 0.0
H1440 H 0.86515 0.4242 0.91024 0.0
H1441 H 0.85135 0.44784 0.92955 0.0
H1442 H 0.87662 0.50791 0.81028 0.0
H1443 H 0.86828 0.533 0.83127 0.0
H1444 H 0.90119 0.47768 0.81065 0.0
H1445 H 0.89834 0.44537 0.821 0.0
C1446 C 0.26288 0.11392 0.63847 0.0
C1447 C 0.24115 0.12214 0.62282 0.0
C1448 C 0.27284 0.15122 0.59829 0.0
C1449 C 0.29494 0.14116 0.61182 0.0
N1450 N 0.31082 0.10853 0.64085 0.0
N1451 N 0.2266 0.14134 0.58203 0.0
C1452 C 0.28997 0.1212 0.63085 0.0
C1453 C 0.24647 0.13855 0.60092 0.0
N1454 N 0.25777 0.09993 0.66094 0.0
N1455 N 0.27657 0.1738 0.58419 0.0
H1456 H 0.20718 0.1313 0.58258 0.0
H1457 H 0.23049 0.1511 0.56431 0.0
H1458 H 0.29517 0.18532 0.58352 0.0
H1459 H 0.26044 0.18278 0.57596 0.0
H1460 H 0.27296 0.09581 0.67456 0.0
H1461 H 0.23818 0.0943 0.6671 0.0
H1462 H 0.30789 0.09221 0.65287 0.0
H1463 H 0.33075 0.1126 0.63499 0.0
C1464 C 0.16978 0.01174 0.88629 0.0
C1465 C 0.1568 0.99052 0.87029 0.0
C1466 C 0.12704 0.01995 0.84929 0.0
C1467 C 0.13956 0.0412 0.86572 0.0
N1468 N 0.16826 0.05617 0.90395 0.0
N1469 N 0.119 0.97277 0.8415 0.0
C1470 C 0.15955 0.03671 0.88553 0.0
C1471 C 0.13392 0.99408 0.85362 0.0
N1472 N 0.19221 0.00813 0.90175 0.0
N1473 N 0.11026 0.02463 0.82811 0.0
H1474 H 0.12382 0.95357 0.84356 0.0
H1475 H 0.10047 0.97386 0.83142 0.0
H1476 H 0.10524 0.04326 0.82337 0.0
H1477 H 0.10326 0.01037 0.81362 0.0
H1478 H 0.20457 0.02346 0.91142 0.0
H1479 H 0.19928 0.98977 0.90382 0.0
H1480 H 0.18097 0.05348 0.92037 0.0
H1481 H 0.1607 0.07443 0.9042 0.0
C1482 C 0.79659 0.38189 0.36654 0.0
C1483 C 0.80274 0.36873 0.39024 0.0
C1484 C 0.75497 0.36626 0.40258 0.0
C1485 C 0.74919 0.38064 0.37957 0.0
N1486 N 0.7623 0.39744 0.33691 0.0
N1487 N 0.78872 0.34904 0.43151 0.0
C1488 C 0.76944 0.38723 0.3608 0.0
C1489 C 0.78206 0.36058 0.40818 0.0
N1490 N 0.81696 0.38969 0.34982 0.0
N1491 N 0.73449 0.35808 0.41907 0.0
H1492 H 0.80797 0.34371 0.43606 0.0
H1493 H 0.77571 0.34565 0.44716 0.0
H1494 H 0.71495 0.36364 0.41698 0.0
H1495 H 0.73621 0.34481 0.43425 0.0
H1496 H 0.81498 0.40226 0.33405 0.0
H1497 H 0.83652 0.38419 0.35223 0.0
H1498 H 0.77525 0.4005 0.32115 0.0
H1499 H 0.74254 0.40118 0.33185 0.0
C1500 C 0.85033 0.51087 0.66433 0.0
C1501 C 0.84883 0.49616 0.63983 0.0
C1502 C 0.86605 0.53603 0.61691 0.0
C1503 C 0.86482 0.55086 0.64104 0.0
N1504 N 0.84659 0.55338 0.68479 0.0
N1505 N 0.84857 0.4966 0.59158 0.0
C1506 C 0.85394 0.53857 0.6638 0.0
C1507 C 0.85471 0.50924 0.61567 0.0
N1508 N 0.8502 0.49863 0.68827 0.0
N1509 N 0.87896 0.54698 0.59559 0.0
H1510 H 0.83898 0.47747 0.58974 0.0
H1511 H 0.85028 0.50612 0.57348 0.0
H1512 H 0.88774 0.56643 0.59571 0.0
H1513 H 0.88289 0.53607 0.57863 0.0
H1514 H 0.85348 0.50897 0.70646 0.0
H1515 H 0.85044 0.47839 0.68996 0.0
H1516 H 0.83646 0.54514 0.70097 0.0
H1517 H 0.84785 0.57387 0.68444 0.0
C1518 C 0.64481 0.4897 0.14488 0.0
C1519 C 0.63587 0.5028 0.12215 0.0
C1520 C 0.61142 0.46183 0.10402 0.0
C1521 C 0.62048 0.44873 0.12668 0.0
N1522 N 0.65131 0.448 0.16473 0.0
N1523 N 0.61716 0.50061 0.07707 0.0
C1524 C 0.63908 0.462 0.1458 0.0
C1525 C 0.62128 0.48858 0.10069 0.0
N1526 N 0.65727 0.50378 0.16623 0.0
N1527 N 0.59218 0.44931 0.0866 0.0
H1528 H 0.6244 0.52019 0.07396 0.0
H1529 H 0.60894 0.4906 0.05985 0.0
H1530 H 0.58452 0.42965 0.0882 0.0
H1531 H 0.58242 0.45889 0.0716 0.0
H1532 H 0.66121 0.49554 0.18455 0.0
H1533 H 0.66188 0.52415 0.16645 0.0
H1534 H 0.6669 0.4562 0.17776 0.0
H1535 H 0.64765 0.42756 0.16567 0.0
C1536 C 0.64106 0.76722 0.88651 0.0
C1537 C 0.63565 0.7578 0.91253 0.0
C1538 C 0.6172 0.79875 0.92395 0.0
C1539 C 0.62448 0.80921 0.89881 0.0
N1540 N 0.65293 0.80598 0.8609 0.0
N1541 N 0.62975 0.76999 0.95859 0.0
C1542 C 0.63954 0.79432 0.88157 0.0
C1543 C 0.62769 0.77549 0.93215 0.0
N1544 N 0.64594 0.7506 0.86596 0.0
N1545 N 0.59851 0.80921 0.93919 0.0
H1546 H 0.63869 0.75368 0.96533 0.0
H1547 H 0.62571 0.78332 0.97361 0.0
H1548 H 0.58697 0.82384 0.9328 0.0
H1549 H 0.59163 0.8006 0.9567 0.0
H1550 H 0.64709 0.75668 0.84629 0.0
H1551 H 0.64632 0.73046 0.86769 0.0
H1552 H 0.66579 0.79621 0.84911 0.0
H1553 H 0.65401 0.82615 0.85781 0.0
C1554 C 0.482 0.3462 0.14074 0.0
C1555 C 0.50027 0.36598 0.1298 0.0
C1556 C 0.46379 0.37967 0.10098 0.0
C1557 C 0.44537 0.36043 0.11251 0.0
N1558 N 0.43509 0.32972 0.14731 0.0
N1559 N 0.50755 0.40569 0.10473 0.0
C1560 C 0.45394 0.34505 0.1337 0.0
C1561 C 0.49085 0.38401 0.11149 0.0
N1562 N 0.49161 0.3278 0.15681 0.0
N1563 N 0.45585 0.39286 0.07917 0.0
H1564 H 0.52744 0.40978 0.1123 0.0
H1565 H 0.50094 0.42091 0.09367 0.0
H1566 H 0.43608 0.39057 0.07107 0.0
H1567 H 0.46931 0.40468 0.06792 0.0
H1568 H 0.47967 0.31122 0.16299 0.0
H1569 H 0.51208 0.32795 0.16232 0.0
H1570 H 0.43971 0.31981 0.16449 0.0
H1571 H 0.41432 0.32899 0.14288 0.0
C1572 C 0.90546 0.21731 0.37461 0.0
C1573 C 0.88955 0.19563 0.38549 0.0
C1574 C 0.86542 0.226 0.41207 0.0
C1575 C 0.88104 0.24747 0.4008 0.0
N1576 N 0.91027 0.26402 0.36632 0.0
N1577 N 0.85009 0.17929 0.40927 0.0
C1578 C 0.89905 0.2432 0.38025 0.0
C1579 C 0.86814 0.19998 0.4026 0.0
N1580 N 0.92801 0.2135 0.36068 0.0
N1581 N 0.84864 0.23048 0.43233 0.0
H1582 H 0.85117 0.16014 0.40208 0.0
H1583 H 0.83267 0.18143 0.41974 0.0
H1584 H 0.84539 0.24939 0.4388 0.0
H1585 H 0.8391 0.21558 0.44358 0.0
H1586 H 0.94199 0.22885 0.35503 0.0
H1587 H 0.9344 0.19509 0.35688 0.0
H1588 H 0.92147 0.26193 0.34935 0.0
H1589 H 0.90603 0.28324 0.37017 0.0
C1590 C 0.9925 0.61791 0.61422 0.0
C1591 C 0.9824 0.63831 0.62932 0.0
C1592 C 0.0272 0.66369 0.63021 0.0
C1593 C 0.0364 0.64465 0.61269 0.0
N1594 N 0.02657 0.60581 0.58424 0.0
N1595 N 0.98866 0.68241 0.64831 0.0
C1596 C 0.01875 0.62228 0.60369 0.0
C1597 C -0.00064 0.66171 0.63646 0.0
N1598 N 0.97744 0.59399 0.61077 0.0
N1599 N 0.04527 0.68314 0.64162 0.0
H1600 H 0.96829 0.6818 0.65299 0.0
H1601 H -0.00064 0.70096 0.65135 0.0
H1602 H 0.06591 0.68473 0.63795 0.0
H1603 H 0.04034 0.69607 0.65658 0.0
H1604 H 0.98498 0.57753 0.60246 0.0
H1605 H 0.95823 0.58982 0.61846 0.0
H1606 H 0.01341 0.59093 0.57479 0.0
H1607 H 0.04553 0.60841 0.57575 0.0
C1608 C 0.6344 0.23324 0.61886 0.0
C1609 C 0.61342 0.24286 0.60324 0.0
C1610 C 0.58867 0.19877 0.60019 0.0
C1611 C 0.60777 0.19008 0.6187 0.0
N1612 N 0.64772 0.19906 0.6476 0.0
N1613 N 0.56959 0.23582 0.5804 0.0
C1614 C 0.63053 0.20723 0.62838 0.0
C1615 C 0.59036 0.22586 0.59403 0.0
N1616 N 0.65826 0.24882 0.62406 0.0
N1617 N 0.56923 0.18094 0.5882 0.0
H1618 H 0.57026 0.25553 0.57532 0.0
H1619 H 0.55093 0.22509 0.57577 0.0
H1620 H 0.56789 0.1609 0.59207 0.0
H1621 H 0.55613 0.18546 0.57275 0.0
H1622 H 0.67537 0.24205 0.63295 0.0
H1623 H 0.66182 0.268 0.61739 0.0
H1624 H 0.66269 0.21162 0.65783 0.0
H1625 H 0.64593 0.17996 0.65466 0.0
C1626 C 0.05604 0.37492 0.85885 0.0
C1627 C 0.05703 0.35458 0.87757 0.0
C1628 C 0.00842 0.35487 0.88418 0.0
C1629 C 0.00673 0.3715 0.86215 0.0
N1630 N 0.0283 0.39716 0.82775 0.0
N1631 N 0.03327 0.32263 0.90569 0.0
C1632 C 0.03042 0.38166 0.84937 0.0
C1633 C 0.03308 0.34414 0.89001 0.0
N1634 N 0.07958 0.38819 0.85071 0.0
N1635 N 0.98625 0.34892 0.89921 0.0
H1636 H 0.05051 0.31322 0.90965 0.0
H1637 H 0.01574 0.31245 0.91272 0.0
H1638 H 0.96779 0.35631 0.89526 0.0
H1639 H 0.98693 0.33894 0.91704 0.0
H1640 H 0.08017 0.40472 0.83893 0.0
H1641 H 0.09867 0.38426 0.85791 0.0
H1642 H 0.04439 0.40264 0.81554 0.0
H1643 H 0.00992 0.40349 0.8213 0.0
C1644 C 0.89545 0.77515 0.09571 0.0
C1645 C 0.8766 0.75772 0.10906 0.0
C1646 C 0.86361 0.79419 0.1366 0.0
C1647 C 0.88227 0.81165 0.1231 0.0
N1648 N 0.91171 0.82043 0.08652 0.0
N1649 N 0.83838 0.75096 0.13749 0.0
C1650 C 0.89683 0.80261 0.10153 0.0
C1651 C 0.8593 0.76737 0.12806 0.0
N1652 N 0.91278 0.76532 0.07839 0.0
N1653 N 0.85101 0.80296 0.15839 0.0
H1654 H 0.83465 0.73115 0.13171 0.0
H1655 H 0.82334 0.7574 0.14918 0.0
H1656 H 0.85302 0.82265 0.16479 0.0
H1657 H 0.83991 0.79055 0.17114 0.0
H1658 H 0.92899 0.77663 0.07024 0.0
H1659 H 0.91208 0.74533 0.07346 0.0
H1660 H 0.92101 0.81549 0.06909 0.0
H1661 H 0.91275 0.84068 0.09026 0.0
C1662 C 0.4715 0.64738 0.38842 0.0
C1663 C 0.44631 0.63772 0.37555 0.0
C1664 C 0.46992 0.61093 0.34458 0.0
C1665 C 0.49488 0.62045 0.35764 0.0
N1666 N 0.51894 0.64161 0.39618 0.0
N1667 N 0.42085 0.60513 0.34639 0.0
C1668 C 0.4954 0.63644 0.38114 0.0
C1669 C 0.44531 0.61781 0.35516 0.0
N1670 N 0.47316 0.66846 0.40593 0.0
N1671 N 0.46983 0.59595 0.32165 0.0
H1672 H 0.40255 0.60919 0.35436 0.0
H1673 H 0.41888 0.58894 0.33323 0.0
H1674 H 0.48748 0.58956 0.31425 0.0
H1675 H 0.45261 0.591 0.30937 0.0
H1676 H 0.49148 0.67816 0.41341 0.0
H1677 H 0.45655 0.67802 0.41117 0.0
H1678 H 0.51999 0.65104 0.41488 0.0
H1679 H 0.53688 0.63412 0.39116 0.0
C1680 C 0.87212 0.59585 0.78494 0.0
C1681 C 0.88084 0.61592 0.8043 0.0
C1682 C 0.89951 0.64436 0.76897 0.0
C1683 C 0.89409 0.62296 0.75039 0.0
N1684 N 0.87707 0.57758 0.7407 0.0
N1685 N 0.90284 0.65923 0.81554 0.0
C1686 C 0.8807 0.59857 0.75834 0.0
C1687 C 0.89439 0.64028 0.79649 0.0
N1688 N 0.85568 0.57406 0.7919 0.0
N1689 N 0.90968 0.66844 0.7603 0.0
H1690 H 0.89792 0.65743 0.83552 0.0
H1691 H 0.91552 0.67621 0.81189 0.0
H1692 H 0.91442 0.67173 0.74048 0.0
H1693 H 0.91178 0.68552 0.7722 0.0
H1694 H 0.84604 0.56033 0.7781 0.0
H1695 H 0.84966 0.5706 0.81129 0.0
H1696 H 0.87099 0.55839 0.74615 0.0
H1697 H 0.88191 0.57886 0.72071 0.0
C1698 C 0.64194 0.60196 0.02633 0.0
C1699 C 0.63187 0.61623 0.04776 0.0
C1700 C 0.61652 0.64743 0.01575 0.0
C1701 C 0.6308 0.63562 0.99536 0.0
N1702 N 0.66343 0.60554 0.98407 0.0
N1703 N 0.61373 0.65565 0.06326 0.0
C1704 C 0.64533 0.61397 0.00142 0.0
C1705 C 0.62023 0.63985 0.04265 0.0
N1706 N 0.64741 0.57656 0.02937 0.0
N1707 N 0.59854 0.66497 0.00949 0.0
H1708 H 0.61685 0.6513 0.08324 0.0
H1709 H 0.60772 0.67433 0.06045 0.0
H1710 H 0.59404 0.67004 0.98996 0.0
H1711 H 0.58589 0.6722 0.02341 0.0
H1712 H 0.65268 0.56481 0.01351 0.0
H1713 H 0.64343 0.56625 0.04675 0.0
H1714 H 0.67604 0.59116 0.98886 0.0
H1715 H 0.66833 0.61504 0.96643 0.0
C1716 C 0.61156 0.36283 0.25574 0.0
C1717 C 0.60926 0.38544 0.24038 0.0
C1718 C 0.62997 0.41359 0.27721 0.0
C1719 C 0.63491 0.39092 0.29159 0.0
N1720 N 0.63579 0.34374 0.29179 0.0
N1721 N 0.62343 0.43149 0.23371 0.0
C1722 C 0.6272 0.36541 0.28012 0.0
C1723 C 0.62056 0.41059 0.25028 0.0
N1724 N 0.5981 0.33913 0.2476 0.0
N1725 N 0.63309 0.43795 0.28946 0.0
H1726 H 0.61809 0.42997 0.2134 0.0
H1727 H 0.63399 0.44958 0.23946 0.0
H1728 H 0.63897 0.44114 0.30951 0.0
H1729 H 0.62699 0.45461 0.28045 0.0
H1730 H 0.59681 0.32263 0.25947 0.0
H1731 H 0.58617 0.33654 0.23002 0.0
H1732 H 0.63294 0.32502 0.28282 0.0
H1733 H 0.6482 0.34481 0.30906 0.0
C1734 C 0.84489 0.37206 0.53663 0.0
C1735 C 0.86586 0.36954 0.55604 0.0
C1736 C 0.8953 0.3558 0.52119 0.0
C1737 C 0.87474 0.35951 0.50162 0.0
N1738 N 0.83147 0.37474 0.49003 0.0
N1739 N 0.91198 0.3626 0.5673 0.0
C1740 C 0.85008 0.36892 0.50914 0.0
C1741 C 0.89135 0.36234 0.54846 0.0
N1742 N 0.81944 0.3759 0.54455 0.0
N1743 N 0.91856 0.34602 0.51367 0.0
H1744 H 0.90961 0.36732 0.58738 0.0
H1745 H 0.9319 0.3601 0.56294 0.0
H1746 H 0.92309 0.34285 0.49378 0.0
H1747 H 0.93291 0.33986 0.52706 0.0
H1748 H 0.80244 0.37461 0.53166 0.0
H1749 H 0.81464 0.37826 0.56447 0.0
H1750 H 0.81494 0.38492 0.49409 0.0
H1751 H 0.83329 0.37096 0.46973 0.0
C1752 C 0.87449 0.3593 0.74817 0.0
C1753 C 0.89099 0.38058 0.76103 0.0
C1754 C 0.89134 0.40513 0.7197 0.0
C1755 C 0.87206 0.38533 0.70797 0.0
N1756 N 0.84272 0.34486 0.71169 0.0
N1757 N 0.91327 0.42485 0.76036 0.0
C1758 C 0.8631 0.3626 0.72226 0.0
C1759 C 0.89914 0.40374 0.7471 0.0
N1760 N 0.87019 0.33576 0.76055 0.0
N1761 N 0.90263 0.42492 0.70442 0.0
H1762 H 0.9197 0.42448 0.78035 0.0
H1763 H 0.91694 0.44335 0.75217 0.0
H1764 H 0.89748 0.42641 0.6842 0.0
H1765 H 0.91877 0.43846 0.71105 0.0
H1766 H 0.86071 0.31868 0.75114 0.0
H1767 H 0.87829 0.33265 0.77955 0.0
H1768 H 0.83314 0.3296 0.72243 0.0
H1769 H 0.8338 0.34652 0.69276 0.0
C1770 C 0.8767 0.61148 0.97822 0.0
C1771 C 0.87451 0.62677 0.95523 0.0
C1772 C 0.87555 0.6665 0.98362 0.0
C1773 C 0.87257 0.65054 0.00632 0.0
N1774 N 0.86771 0.6072 0.02505 0.0
N1775 N 0.87058 0.6688 0.93551 0.0
C1776 C 0.87292 0.62287 0.00371 0.0
C1777 C 0.87403 0.65438 0.95772 0.0
N1778 N 0.88242 0.58602 0.97556 0.0
N1779 N 0.88029 0.69322 0.9869 0.0
H1780 H 0.86985 0.66072 0.91618 0.0
H1781 H 0.86672 0.68841 0.93629 0.0
H1782 H 0.88201 0.70263 0.00567 0.0
H1783 H 0.88516 0.70578 0.97133 0.0
H1784 H 0.88683 0.57458 0.99172 0.0
H1785 H 0.8855 0.57726 0.95706 0.0
H1786 H 0.86461 0.58675 0.02346 0.0
H1787 H 0.86409 0.61446 0.04403 0.0
C1788 C 0.59781 0.62847 0.23639 0.0
C1789 C 0.60047 0.60684 0.25321 0.0
C1790 C 0.61442 0.58098 0.21524 0.0
C1791 C 0.60973 0.60186 0.19809 0.0
N1792 N 0.59368 0.64404 0.1912 0.0
N1793 N 0.60648 0.56099 0.25801 0.0
C1794 C 0.60035 0.62517 0.20833 0.0
C1795 C 0.6076 0.5827 0.24248 0.0
N1796 N 0.59415 0.6525 0.24737 0.0
N1797 N 0.62543 0.55946 0.20548 0.0
H1798 H 0.60098 0.56125 0.27789 0.0
H1799 H 0.60853 0.54214 0.25065 0.0
H1800 H 0.62937 0.55668 0.18538 0.0
H1801 H 0.63242 0.54515 0.21755 0.0
H1802 H 0.59496 0.66968 0.23657 0.0
H1803 H 0.59257 0.65582 0.26782 0.0
H1804 H 0.58379 0.66009 0.19698 0.0
H1805 H 0.59642 0.64274 0.17069 0.0
C1806 C 0.61797 0.36261 0.48318 0.0
C1807 C 0.62159 0.33633 0.4901 0.0
C1808 C 0.63858 0.32841 0.44593 0.0
C1809 C 0.63292 0.35384 0.43802 0.0
N1810 N 0.60825 0.39115 0.44709 0.0
N1811 N 0.62453 0.292 0.47375 0.0
C1812 C 0.61969 0.36971 0.45596 0.0
C1813 C 0.62807 0.31846 0.46993 0.0
N1814 N 0.61466 0.38136 0.50227 0.0
N1815 N 0.65585 0.31446 0.43218 0.0
H1816 H 0.61558 0.28399 0.49069 0.0
H1817 H 0.62739 0.27825 0.4587 0.0
H1818 H 0.66726 0.32201 0.41654 0.0
H1819 H 0.66175 0.2967 0.43885 0.0
H1820 H 0.61486 0.40122 0.49798 0.0
H1821 H 0.61425 0.37785 0.52258 0.0
H1822 H 0.59656 0.40203 0.45911 0.0
H1823 H 0.60757 0.39603 0.42703 0.0
C1824 C 0.74214 0.87614 0.59571 0.0
C1825 C 0.73875 0.89486 0.61626 0.0
C1826 C 0.78632 0.89449 0.63096 0.0
C1827 C 0.79064 0.87903 0.60789 0.0
N1828 N 0.77318 0.85775 0.56628 0.0
N1829 N 0.75718 0.92279 0.65318 0.0
C1830 C 0.76863 0.8702 0.58989 0.0
C1831 C 0.76066 0.90413 0.63403 0.0
N1832 N 0.71991 0.86392 0.58182 0.0
N1833 N 0.80658 0.89944 0.65013 0.0
H1834 H 0.73841 0.92952 0.6564 0.0
H1835 H 0.77305 0.93264 0.66481 0.0
H1836 H 0.82538 0.89226 0.64861 0.0
H1837 H 0.80404 0.90855 0.66851 0.0
H1838 H 0.7208 0.84811 0.56852 0.0
H1839 H 0.70016 0.86785 0.58554 0.0
H1840 H 0.75841 0.85384 0.55103 0.0
H1841 H 0.79223 0.85331 0.56073 0.0
C1842 C 0.25755 0.65142 0.36293 0.0
C1843 C 0.24231 0.63588 0.38135 0.0
C1844 C 0.28334 0.63245 0.40884 0.0
C1845 C 0.29806 0.6501 0.39191 0.0
N1846 N 0.29841 0.68028 0.35555 0.0
N1847 N 0.23934 0.61596 0.42446 0.0
C1848 C 0.28501 0.66065 0.36962 0.0
C1849 C 0.25482 0.62758 0.40507 0.0
N1850 N 0.24613 0.65657 0.33868 0.0
N1851 N 0.29674 0.61969 0.42798 0.0
H1852 H 0.21823 0.61264 0.42275 0.0
H1853 H 0.24713 0.61199 0.44331 0.0
H1854 H 0.31778 0.62232 0.43088 0.0
H1855 H 0.28737 0.60463 0.43916 0.0
H1856 H 0.25718 0.66531 0.32335 0.0
H1857 H 0.22606 0.65011 0.333 0.0
H1858 H 0.28891 0.69071 0.34105 0.0
H1859 H 0.3185 0.68776 0.35988 0.0
C1860 C 0.61399 0.02493 0.6539 0.0
C1861 C 0.61936 0.04228 0.63255 0.0
C1862 C 0.63304 0.00592 0.60509 0.0
C1863 C 0.63018 0.98927 0.62731 0.0
N1864 N 0.6222 0.98381 0.67412 0.0
N1865 N 0.63628 0.05038 0.5887 0.0
C1866 C 0.6216 0.99895 0.65202 0.0
C1867 C 0.62964 0.03309 0.60841 0.0
N1868 N 0.60173 0.03327 0.6761 0.0
N1869 N 0.63781 0.99551 0.58055 0.0
H1870 H 0.63243 0.07002 0.58968 0.0
H1871 H 0.64696 0.04569 0.57205 0.0
H1872 H 0.64007 0.97567 0.57726 0.0
H1873 H 0.63726 0.00594 0.56301 0.0
H1874 H 0.59436 0.02069 0.69083 0.0
H1875 H 0.59702 0.05246 0.67905 0.0
H1876 H 0.61927 0.99078 0.69336 0.0
H1877 H 0.62809 0.96486 0.67374 0.0
C1878 C 0.21624 0.34622 0.86629 0.0
C1879 C 0.20662 0.3541 0.89125 0.0
C1880 C 0.25014 0.37997 0.90203 0.0
C1881 C 0.25881 0.37394 0.87613 0.0
N1882 N 0.24822 0.35607 0.83161 0.0
N1883 N 0.21206 0.38268 0.93049 0.0
C1884 C 0.24126 0.3585 0.85763 0.0
C1885 C 0.22288 0.37224 0.90845 0.0
N1886 N 0.20229 0.32604 0.85149 0.0
N1887 N 0.2682 0.39186 0.92093 0.0
H1888 H 0.19198 0.37783 0.93562 0.0
H1889 H 0.22218 0.398 0.94221 0.0
H1890 H 0.28853 0.3975 0.91727 0.0
H1891 H 0.26366 0.39395 0.94094 0.0
H1892 H 0.20993 0.3177 0.83459 0.0
H1893 H 0.18428 0.31582 0.85744 0.0
H1894 H 0.23495 0.34728 0.81665 0.0
H1895 H 0.2663 0.36512 0.82444 0.0
C1896 C 0.35756 0.47293 0.65495 0.0
C1897 C 0.35491 0.45664 0.63154 0.0
C1898 C 0.33273 0.49023 0.60747 0.0
C1899 C 0.33614 0.50682 0.63071 0.0
N1900 N 0.3568 0.51645 0.67463 0.0
N1901 N 0.34416 0.45066 0.58453 0.0
C1902 C 0.35006 0.49888 0.65387 0.0
C1903 C 0.34379 0.4656 0.60744 0.0
N1904 N 0.36611 0.46318 0.67861 0.0
N1905 N 0.31786 0.49748 0.58597 0.0
H1906 H 0.35194 0.4325 0.58409 0.0
H1907 H 0.33877 0.457 0.56572 0.0
H1908 H 0.30963 0.51539 0.58535 0.0
H1909 H 0.31212 0.48518 0.56948 0.0
H1910 H 0.36509 0.47283 0.697 0.0
H1911 H 0.37245 0.44449 0.68029 0.0
H1912 H 0.36974 0.51293 0.69063 0.0
H1913 H 0.35139 0.53556 0.67486 0.0
C1914 C 0.73092 0.1084 0.13526 0.0
C1915 C 0.75084 0.11287 0.11575 0.0
C1916 C 0.71761 0.13045 0.08562 0.0
C1917 C 0.69716 0.1239 0.10421 0.0
N1918 N 0.68321 0.10445 0.14551 0.0
N1919 N 0.76266 0.12443 0.07096 0.0
C1920 C 0.70349 0.11217 0.12868 0.0
C1921 C 0.74413 0.12311 0.09061 0.0
N1922 N 0.73846 0.1016 0.16043 0.0
N1923 N 0.71166 0.14351 0.06304 0.0
H1924 H 0.7822 0.11899 0.0737 0.0
H1925 H 0.75812 0.12878 0.05126 0.0
H1926 H 0.69216 0.14774 0.05766 0.0
H1927 H 0.72629 0.15172 0.05041 0.0
H1928 H 0.72557 0.10076 0.17639 0.0
H1929 H 0.75837 0.09884 0.16602 0.0
H1930 H 0.68585 0.09293 0.16203 0.0
H1931 H 0.66319 0.10832 0.14211 0.0
C1932 C 0.61321 0.00073 0.87111 0.0
C1933 C 0.64139 0.00899 0.8741 0.0
C1934 C 0.65137 0.9631 0.87299 0.0
C1935 C 0.62317 0.95493 0.87054 0.0
N1936 N 0.57737 0.96538 0.87582 0.0
N1937 N 0.68649 0.99841 0.88531 0.0
C1938 C 0.60413 0.9736 0.87242 0.0
C1939 C 0.66023 0.99023 0.87748 0.0
N1940 N 0.5952 0.01837 0.86515 0.0
N1941 N 0.66968 0.94528 0.86955 0.0
H1942 H 0.69338 0.01816 0.8893 0.0
H1943 H 0.70059 0.98553 0.89044 0.0
H1944 H 0.664 0.92524 0.86608 0.0
H1945 H 0.69041 0.95063 0.8681 0.0
H1946 H 0.57493 0.01273 0.85966 0.0
H1947 H 0.60075 0.03844 0.86332 0.0
H1948 H 0.56303 0.97823 0.87992 0.0
H1949 H 0.57011 0.9456 0.87738 0.0
C1950 C 0.8787 0.03354 0.38837 0.0
C1951 C 0.87769 0.04765 0.36437 0.0
C1952 C 0.85655 0.00822 0.34056 0.0
C1953 C 0.85503 0.99462 0.36491 0.0
N1954 N 0.85917 0.99642 0.41307 0.0
N1955 N 0.85747 0.0505 0.32021 0.0
C1956 C 0.86446 0.00789 0.38922 0.0
C1957 C 0.86392 0.03565 0.34131 0.0
N1958 N 0.89418 0.04395 0.40988 0.0
N1959 N 0.85283 0.99491 0.31652 0.0
H1960 H 0.86151 0.07095 0.32047 0.0
H1961 H 0.84541 0.04279 0.30384 0.0
H1962 H 0.84971 0.97447 0.31462 0.0
H1963 H 0.85628 0.00403 0.29838 0.0
H1964 H 0.89788 0.03327 0.4268 0.0
H1965 H 0.9052 0.06249 0.40997 0.0
H1966 H 0.86341 0.00627 0.4314 0.0
H1967 H 0.84806 0.97805 0.41449 0.0
C1968 C 0.39009 0.24279 0.11702 0.0
C1969 C 0.36964 0.24521 0.09712 0.0
C1970 C 0.35594 0.1978 0.09818 0.0
C1971 C 0.3793 0.19491 0.11459 0.0
N1972 N 0.42096 0.2147 0.13671 0.0
N1973 N 0.33322 0.22555 0.06795 0.0
C1974 C 0.39681 0.21743 0.12365 0.0
C1975 C 0.35236 0.22288 0.08763 0.0
N1976 N 0.40326 0.26487 0.12941 0.0
N1977 N 0.33698 0.1767 0.09317 0.0
H1978 H 0.32952 0.24383 0.0607 0.0
H1979 H 0.32205 0.20968 0.05792 0.0
H1980 H 0.33879 0.15827 0.1011 0.0
H1981 H 0.31839 0.17798 0.0833 0.0
H1982 H 0.41647 0.26435 0.14594 0.0
H1983 H 0.39887 0.28377 0.12483 0.0
H1984 H 0.4358 0.23037 0.14095 0.0
H1985 H 0.42757 0.19659 0.14113 0.0
C1986 C 0.54353 0.66508 0.86396 0.0
C1987 C 0.55558 0.64538 0.87811 0.0
C1988 C 0.51296 0.61644 0.87403 0.0
C1989 C 0.50007 0.63734 0.86301 0.0
N1990 N 0.50196 0.68239 0.84946 0.0
N1991 N 0.55092 0.60378 0.90033 0.0
C1992 C 0.51507 0.66188 0.85829 0.0
C1993 C 0.54017 0.62133 0.88397 0.0
N1994 N 0.55943 0.68658 0.85553 0.0
N1995 N 0.49942 0.59171 0.87437 0.0
H1996 H 0.5707 0.60652 0.90835 0.0
H1997 H 0.53949 0.5875 0.90785 0.0
H1998 H 0.47945 0.58726 0.86714 0.0
H1999 H 0.50875 0.57514 0.87946 0.0
H2000 H 0.55237 0.70043 0.84292 0.0
H2001 H 0.58038 0.68936 0.85923 0.0
H2002 H 0.51124 0.70156 0.84846 0.0
H2003 H 0.48116 0.68068 0.84497 0.0
C2004 C 0.13434 0.77569 0.59221 0.0
C2005 C 0.12111 0.75409 0.60553 0.0
C2006 C 0.09668 0.78395 0.63204 0.0
C2007 C 0.11052 0.80584 0.6194 0.0
N2008 N 0.14772 0.82274 0.59276 0.0
N2009 N 0.09633 0.73822 0.64344 0.0
C2010 C 0.131 0.80177 0.60108 0.0
C2011 C 0.10472 0.75848 0.6274 0.0
N2012 N 0.14965 0.77124 0.57079 0.0
N2013 N 0.07436 0.7869 0.64662 0.0
H2014 H 0.10198 0.71934 0.64069 0.0
H2015 H 0.08635 0.74083 0.6611 0.0
H2016 H 0.06628 0.80471 0.6492 0.0
H2017 H 0.06193 0.77107 0.65374 0.0
H2018 H 0.15716 0.78602 0.55824 0.0
H2019 H 0.15372 0.75241 0.56486 0.0
H2020 H 0.16449 0.82083 0.58124 0.0
H2021 H 0.14645 0.84196 0.59963 0.0
C2022 C 0.99837 0.3904 0.38277 0.0
C2023 C 0.00803 0.37097 0.366 0.0
C2024 C 0.96315 0.3458 0.36466 0.0
C2025 C 0.95482 0.36315 0.38446 0.0
N2026 N 0.96513 0.40062 0.4146 0.0
N2027 N 0.00078 0.32849 0.34334 0.0
C2028 C 0.97251 0.38524 0.39401 0.0
C2029 C 0.99069 0.34827 0.35738 0.0
N2030 N 0.01355 0.41412 0.38729 0.0
N2031 N 0.94451 0.32742 0.35237 0.0
H2032 H 0.02094 0.32939 0.33786 0.0
H2033 H 0.98981 0.31027 0.33909 0.0
H2034 H 0.924 0.32583 0.35671 0.0
H2035 H 0.94875 0.31573 0.33609 0.0
H2036 H 0.00638 0.43002 0.39709 0.0
H2037 H 0.03241 0.41883 0.37903 0.0
H2038 H 0.97845 0.41506 0.42451 0.0
H2039 H 0.94623 0.39771 0.42317 0.0
C2040 C 0.37244 0.79245 0.37449 0.0
C2041 C 0.39528 0.81004 0.38306 0.0
C2042 C 0.41329 0.7755 0.40926 0.0
C2043 C 0.3903 0.75804 0.4009 0.0
N2044 N 0.34483 0.75135 0.38149 0.0
N2045 N 0.43398 0.8207 0.41311 0.0
C2046 C 0.36885 0.76702 0.38538 0.0
C2047 C 0.41464 0.80227 0.40193 0.0
N2048 N 0.355 0.79947 0.35488 0.0
N2049 N 0.43427 0.76623 0.42318 0.0
H2050 H 0.43493 0.84055 0.4085 0.0
H2051 H 0.44733 0.8169 0.42864 0.0
H2052 H 0.43371 0.74681 0.4292 0.0
H2053 H 0.45291 0.77724 0.42725 0.0
H2054 H 0.33998 0.78632 0.34547 0.0
H2055 H 0.35668 0.81804 0.34658 0.0
H2056 H 0.32751 0.7578 0.37268 0.0
H2057 H 0.34137 0.73263 0.38934 0.0
C2058 C 0.99014 0.6355 0.11453 0.0
C2059 C 0.99365 0.62032 0.13736 0.0
C2060 C 0.94522 0.619 0.14555 0.0
C2061 C 0.94305 0.6386 0.12624 0.0
N2062 N 0.96424 0.66723 0.09342 0.0
N2063 N 0.97506 0.59681 0.1746 0.0
C2064 C 0.96552 0.64692 0.11052 0.0
C2065 C 0.97122 0.61153 0.15269 0.0
N2066 N 0.01068 0.63966 0.09715 0.0
N2067 N 0.92238 0.60729 0.15665 0.0
H2068 H 0.99364 0.58989 0.17931 0.0
H2069 H 0.96031 0.59243 0.18857 0.0
H2070 H 0.90298 0.61188 0.15123 0.0
H2071 H 0.92235 0.59134 0.16917 0.0
H2072 H 0.00847 0.64848 0.07882 0.0
H2073 H 0.02914 0.6319 0.09986 0.0
H2074 H 0.98102 0.67609 0.08389 0.0
H2075 H 0.94706 0.67697 0.09041 0.0
C2076 C 0.09929 0.22925 0.87925 0.0
C2077 C 0.11972 0.23832 0.8987 0.0
C2078 C 0.13205 0.19318 0.90166 0.0
C2079 C 0.1149 0.18556 0.87895 0.0
N2080 N 0.08932 0.20026 0.84104 0.0
N2081 N 0.16 0.2292 0.92415 0.0
C2082 C 0.1005 0.20469 0.86625 0.0
C2083 C 0.13736 0.22039 0.90892 0.0
N2084 N 0.07835 0.2437 0.87346 0.0
N2085 N 0.14269 0.17466 0.91675 0.0
H2086 H 0.1659 0.249 0.92863 0.0
H2087 H 0.17457 0.21697 0.92983 0.0
H2088 H 0.13847 0.15453 0.91273 0.0
H2089 H 0.15331 0.17928 0.93484 0.0
H2090 H 0.06204 0.23666 0.86066 0.0
H2091 H 0.07558 0.26104 0.8839 0.0
H2092 H 0.0804 0.21469 0.83059 0.0
H2093 H 0.09221 0.1838 0.82924 0.0
C2094 C 0.53827 0.37526 0.61531 0.0
C2095 C 0.55101 0.35766 0.63186 0.0
C2096 C 0.51615 0.36199 0.6644 0.0
C2097 C 0.50008 0.37376 0.64518 0.0
N2098 N 0.49531 0.3881 0.59954 0.0
N2099 N 0.54679 0.32916 0.67 0.0
C2100 C 0.51098 0.37975 0.61987 0.0
C2101 C 0.53871 0.34973 0.656 0.0
N2102 N 0.55223 0.38832 0.59578 0.0
N2103 N 0.50983 0.36233 0.69068 0.0
H2104 H 0.56075 0.31701 0.66314 0.0
H2105 H 0.5367 0.32189 0.68663 0.0
H2106 H 0.49418 0.3724 0.69775 0.0
H2107 H 0.5222 0.35543 0.70558 0.0
H2108 H 0.54425 0.40286 0.58468 0.0
H2109 H 0.57279 0.38713 0.59304 0.0
H2110 H 0.50206 0.38997 0.58014 0.0
H2111 H 0.47494 0.3907 0.60106 0.0
C2112 C 0.13104 0.39433 0.24759 0.0
C2113 C 0.10654 0.37866 0.25255 0.0
C2114 C 0.09983 0.3684 0.20469 0.0
C2115 C 0.12108 0.38831 0.19949 0.0
N2116 N 0.15512 0.42273 0.21653 0.0
N2117 N 0.0673 0.35036 0.23629 0.0
C2118 C 0.13664 0.40163 0.22104 0.0
C2119 C 0.09094 0.36536 0.23122 0.0
N2120 N 0.14871 0.40266 0.2683 0.0
N2121 N 0.08856 0.35214 0.18434 0.0
H2122 H 0.06113 0.3466 0.25565 0.0
H2123 H 0.0533 0.34272 0.22141 0.0
H2124 H 0.09529 0.35338 0.16488 0.0
H2125 H 0.07458 0.33585 0.1872 0.0
H2126 H 0.16802 0.41219 0.26561 0.0
H2127 H 0.14521 0.39756 0.28797 0.0
H2128 H 0.16455 0.43494 0.23179 0.0
H2129 H 0.15927 0.42977 0.19764 0.0
C2130 C 0.33872 0.34931 0.95115 0.0
C2131 C 0.36177 0.36129 0.93827 0.0
C2132 C 0.38793 0.36466 0.98082 0.0
C2133 C 0.36551 0.35082 0.99318 0.0
N2134 N 0.32072 0.32722 0.99 0.0
N2135 N 0.40899 0.37803 0.9395 0.0
C2136 C 0.34128 0.34224 0.97827 0.0
C2137 C 0.38657 0.36845 0.95276 0.0
N2138 N 0.31401 0.34589 0.93782 0.0
N2139 N 0.4104 0.3743 0.99597 0.0
H2140 H 0.4085 0.38127 0.91904 0.0
H2141 H 0.42844 0.38108 0.94823 0.0
H2142 H 0.41271 0.37074 0.01628 0.0
H2143 H 0.42615 0.38706 0.98891 0.0
H2144 H 0.29586 0.3402 0.94695 0.0
H2145 H 0.31111 0.35093 0.91799 0.0
H2146 H 0.30395 0.31766 0.97943 0.0
H2147 H 0.32121 0.32276 0.01019 0.0
C2148 C 0.37926 0.59647 0.70981 0.0
C2149 C 0.36397 0.61694 0.70192 0.0
C2150 C 0.38016 0.64201 0.74267 0.0
C2151 C 0.39121 0.61939 0.75249 0.0
N2152 N 0.39397 0.57245 0.74714 0.0
N2153 N 0.34724 0.65844 0.71226 0.0
C2154 C 0.38884 0.59587 0.73654 0.0
C2155 C 0.36373 0.63964 0.71868 0.0
N2156 N 0.38528 0.57789 0.69161 0.0
N2157 N 0.38614 0.66587 0.75553 0.0
H2158 H 0.33494 0.65732 0.6949 0.0
H2159 H 0.34417 0.67399 0.7252 0.0
H2160 H 0.39911 0.66867 0.77238 0.0
H2161 H 0.38057 0.68333 0.74783 0.0
H2162 H 0.39841 0.56388 0.69612 0.0
H2163 H 0.37969 0.57841 0.67139 0.0
H2164 H 0.39013 0.5546 0.7365 0.0
H2165 H 0.39861 0.57021 0.76731 0.0
C2166 C 0.1236 0.66756 0.48381 0.0
C2167 C 0.12109 0.6458 0.50099 0.0
C2168 C 0.12248 0.61694 0.46148 0.0
C2169 C 0.13147 0.6388 0.4459 0.0
N2170 N 0.14906 0.68523 0.44737 0.0
N2171 N 0.12648 0.59921 0.50518 0.0
C2172 C 0.13448 0.6643 0.4584 0.0
C2173 C 0.12286 0.62021 0.48966 0.0
N2174 N 0.1149 0.69107 0.49095 0.0
N2175 N 0.11276 0.59328 0.44977 0.0
H2176 H 0.13029 0.60071 0.5257 0.0
H2177 H 0.12958 0.58088 0.497 0.0
H2178 H 0.10931 0.59062 0.42922 0.0
H2179 H 0.10458 0.5775 0.46079 0.0
H2180 H 0.11533 0.70671 0.47793 0.0
H2181 H 0.10376 0.69366 0.50786 0.0
H2182 H 0.15256 0.70355 0.45719 0.0
H2183 H 0.16101 0.68353 0.4309 0.0
C2184 C 0.11825 0.64374 0.25446 0.0
C2185 C 0.10636 0.62077 0.24044 0.0
C2186 C 0.10882 0.59552 0.28112 0.0
C2187 C 0.12441 0.61746 0.2939 0.0
N2188 N 0.14639 0.66186 0.29223 0.0
N2189 N 0.09125 0.57434 0.23939 0.0
C2190 C 0.12949 0.64157 0.2806 0.0
C2191 C 0.10156 0.59656 0.25355 0.0
N2192 N 0.11848 0.66765 0.2428 0.0
N2193 N 0.10056 0.57394 0.29554 0.0
H2194 H 0.08491 0.5745 0.21936 0.0
H2195 H 0.09049 0.55552 0.24697 0.0
H2196 H 0.10531 0.57271 0.31587 0.0
H2197 H 0.08704 0.55831 0.28806 0.0
H2198 H 0.12439 0.68546 0.25294 0.0
H2199 H 0.11027 0.66986 0.22364 0.0
H2200 H 0.15338 0.6787 0.2822 0.0
H2201 H 0.15528 0.6611 0.31129 0.0
C2202 C 0.12749 0.39205 0.02621 0.0
C2203 C 0.12764 0.37852 0.05051 0.0
C2204 C 0.1213 0.33649 0.02552 0.0
C2205 C 0.12663 0.35005 0.00162 0.0
N2206 N 0.13785 0.39119 0.97953 0.0
N2207 N 0.12678 0.33752 0.07365 0.0
C2208 C 0.13009 0.37799 0.00188 0.0
C2209 C 0.12464 0.35061 0.05036 0.0
N2210 N 0.12491 0.41838 0.02647 0.0
N2211 N 0.1128 0.31017 0.02441 0.0
H2212 H 0.12934 0.34696 0.09234 0.0
H2213 H 0.12805 0.31735 0.0743 0.0
H2214 H 0.10969 0.29941 0.00643 0.0
H2215 H 0.10618 0.2997 0.04096 0.0
H2216 H 0.12215 0.42886 0.00921 0.0
H2217 H 0.12265 0.4291 0.04408 0.0
H2218 H 0.14365 0.41138 0.97963 0.0
H2219 H 0.14094 0.38189 0.96137 0.0
C2220 C 0.36025 0.36093 0.77033 0.0
C2221 C 0.36889 0.38388 0.78612 0.0
C2222 C 0.39096 0.40461 0.7478 0.0
C2223 C 0.38316 0.38132 0.73229 0.0
N2224 N 0.36513 0.33565 0.72954 0.0
N2225 N 0.39687 0.42529 0.79193 0.0
C2226 C 0.36927 0.35893 0.74383 0.0
C2227 C 0.38562 0.40505 0.77544 0.0
N2228 N 0.34233 0.34166 0.78017 0.0
N2229 N 0.40246 0.42664 0.73586 0.0
H2230 H 0.39357 0.4261 0.81236 0.0
H2231 H 0.41134 0.44004 0.78597 0.0
H2232 H 0.40713 0.42696 0.71574 0.0
H2233 H 0.40558 0.4451 0.74533 0.0
H2234 H 0.33279 0.32595 0.76861 0.0
H2235 H 0.3354 0.3423 0.79955 0.0
H2236 H 0.3577 0.31791 0.73771 0.0
H2237 H 0.37126 0.33359 0.70998 0.0
C2238 C 0.35718 0.62901 0.507 0.0
C2239 C 0.37601 0.65164 0.50503 0.0
C2240 C 0.38402 0.65283 0.55346 0.0
C2241 C 0.36123 0.6338 0.55575 0.0
N2242 N 0.32433 0.60513 0.53435 0.0
N2243 N 0.40807 0.68521 0.52576 0.0
C2244 C 0.34764 0.62175 0.53245 0.0
C2245 C 0.38991 0.66342 0.5281 0.0
N2246 N 0.34794 0.61486 0.48446 0.0
N2247 N 0.40015 0.66042 0.57552 0.0
H2248 H 0.41378 0.69247 0.50727 0.0
H2249 H 0.41651 0.69667 0.54201 0.0
H2250 H 0.39666 0.65242 0.5942 0.0
H2251 H 0.41831 0.67259 0.57483 0.0
H2252 H 0.33607 0.59681 0.48479 0.0
H2253 H 0.35447 0.61988 0.46553 0.0
H2254 H 0.31193 0.59839 0.5179 0.0
H2255 H 0.31586 0.59975 0.55238 0.0
C2256 C 0.23149 0.13763 0.4045 0.0
C2257 C 0.20755 0.12547 0.39102 0.0
C2258 C 0.23422 0.09426 0.36851 0.0
C2259 C 0.25806 0.10678 0.38161 0.0
N2260 N 0.28067 0.14394 0.40686 0.0
N2261 N 0.18692 0.09653 0.35568 0.0
C2262 C 0.25708 0.12977 0.39774 0.0
C2263 C 0.20918 0.10507 0.37159 0.0
N2264 N 0.22975 0.15521 0.42519 0.0
N2265 N 0.23542 0.07166 0.35373 0.0
H2266 H 0.1685 0.10449 0.35705 0.0
H2267 H 0.18734 0.08342 0.33954 0.0
H2268 H 0.25365 0.06399 0.35013 0.0
H2269 H 0.21834 0.05981 0.34625 0.0
H2270 H 0.24619 0.16225 0.43777 0.0
H2271 H 0.21151 0.16111 0.4315 0.0
H2272 H 0.28137 0.16236 0.41632 0.0
H2273 H 0.29978 0.13842 0.40283 0.0
C2274 C 0.74157 0.38381 0.59675 0.0
C2275 C 0.75473 0.37447 0.61965 0.0
C2276 C 0.71328 0.34695 0.63009 0.0
C2277 C 0.69958 0.35776 0.60836 0.0
N2278 N 0.69891 0.38975 0.5739 0.0
N2279 N 0.752 0.35162 0.66117 0.0
C2280 C 0.71322 0.37719 0.59253 0.0
C2281 C 0.74026 0.35733 0.63724 0.0
N2282 N 0.75633 0.398 0.57844 0.0
N2283 N 0.70105 0.3259 0.64308 0.0
H2284 H 0.7717 0.35905 0.66728 0.0
H2285 H 0.74138 0.34154 0.67603 0.0
H2286 H 0.68135 0.31744 0.6384 0.0
H2287 H 0.71125 0.31533 0.65695 0.0
H2288 H 0.74836 0.40275 0.55992 0.0
H2289 H 0.77719 0.40321 0.58071 0.0
H2290 H 0.70719 0.40598 0.56365 0.0
H2291 H 0.67804 0.38545 0.57042 0.0
C2292 C 0.37088 0.96582 0.38942 0.0
C2293 C 0.37479 0.95501 0.36376 0.0
C2294 C 0.36684 0.99669 0.34315 0.0
C2295 C 0.3617 0.0072 0.36871 0.0
N2296 N 0.35641 0.00178 0.41597 0.0
N2297 N 0.37364 0.95827 0.31585 0.0
C2298 C 0.3629 0.9917 0.3918 0.0
C2299 C 0.37204 0.96995 0.34051 0.0
N2300 N 0.37558 0.95153 0.41149 0.0
N2301 N 0.36698 0.01241 0.32144 0.0
H2302 H 0.37829 0.939 0.31308 0.0
H2303 H 0.3688 0.96693 0.298 0.0
H2304 H 0.36134 0.03147 0.32216 0.0
H2305 H 0.37391 0.0072 0.30291 0.0
H2306 H 0.37586 0.95897 0.43099 0.0
H2307 H 0.38101 0.9324 0.4103 0.0
H2308 H 0.35396 0.99076 0.43305 0.0
H2309 H 0.35197 0.02109 0.41882 0.0
C2310 C 0.79183 0.61318 0.1311 0.0
C2311 C 0.79596 0.64035 0.12565 0.0
C2312 C 0.74739 0.64398 0.12823 0.0
C2313 C 0.74311 0.61665 0.13308 0.0
N2314 N 0.76107 0.57695 0.14645 0.0
N2315 N 0.77963 0.683 0.12712 0.0
C2316 C 0.76538 0.60184 0.13702 0.0
C2317 C 0.77432 0.65621 0.12695 0.0
N2318 N 0.81274 0.59798 0.12912 0.0
N2319 N 0.72589 0.65789 0.12289 0.0
H2320 H 0.79925 0.69252 0.12633 0.0
H2321 H 0.76503 0.69571 0.1307 0.0
H2322 H 0.70574 0.64992 0.12373 0.0
H2323 H 0.72799 0.67695 0.11581 0.0
H2324 H 0.81027 0.57754 0.12981 0.0
H2325 H 0.83245 0.60566 0.12508 0.0
H2326 H 0.77663 0.56583 0.15197 0.0
H2327 H 0.74182 0.56842 0.15118 0.0
C2328 C 0.61877 0.51458 0.35076 0.0
C2329 C 0.63198 0.53743 0.36424 0.0
C2330 C 0.66452 0.5107 0.38548 0.0
C2331 C 0.65108 0.48793 0.37223 0.0
N2332 N 0.61102 0.46702 0.34853 0.0
N2333 N 0.66265 0.55617 0.39962 0.0
C2334 C 0.62659 0.48948 0.35718 0.0
C2335 C 0.6534 0.53513 0.38327 0.0
N2336 N 0.60035 0.51683 0.33024 0.0
N2337 N 0.68818 0.50903 0.39976 0.0
H2338 H 0.65438 0.57407 0.39897 0.0
H2339 H 0.67656 0.55517 0.41549 0.0
H2340 H 0.69587 0.49115 0.40316 0.0
H2341 H 0.70076 0.52538 0.40717 0.0
H2342 H 0.5927 0.50111 0.31763 0.0
H2343 H 0.59454 0.53472 0.32399 0.0
H2344 H 0.59165 0.467 0.33983 0.0
H2345 H 0.61623 0.44824 0.35228 0.0
C2346 C 0.2643 0.86925 0.86277 0.0
C2347 C 0.24922 0.88045 0.88284 0.0
C2348 C 0.2863 0.87738 0.91578 0.0
C2349 C 0.30248 0.86899 0.89511 0.0
N2350 N 0.30822 0.85814 0.84884 0.0
N2351 N 0.24557 0.89625 0.92813 0.0
C2352 C 0.29175 0.86494 0.86859 0.0
C2353 C 0.26013 0.88476 0.90929 0.0
N2354 N 0.25234 0.86285 0.83817 0.0
N2355 N 0.2957 0.87743 0.94177 0.0
H2356 H 0.22559 0.90027 0.92471 0.0
H2357 H 0.25363 0.90309 0.94675 0.0
H2358 H 0.3148 0.8722 0.94731 0.0
H2359 H 0.28389 0.8805 0.95807 0.0
H2360 H 0.2611 0.85216 0.82351 0.0
H2361 H 0.23269 0.86675 0.83289 0.0
H2362 H 0.30274 0.85767 0.82861 0.0
H2363 H 0.32824 0.85442 0.85257 0.0
C2364 C 0.36246 0.00693 0.1154 0.0
C2365 C 0.35824 0.99356 0.13965 0.0
C2366 C 0.368 0.03517 0.16466 0.0
C2367 C 0.37629 0.04787 0.14103 0.0
N2368 N 0.38618 0.04425 0.09424 0.0
N2369 N 0.3647 0.99431 0.18776 0.0
C2370 C 0.37477 0.03339 0.11638 0.0
C2371 C 0.36316 0.00747 0.16443 0.0
N2372 N 0.35397 0.99482 0.09156 0.0
N2373 N 0.36405 0.04954 0.18724 0.0
H2374 H 0.36343 0.97386 0.18849 0.0
H2375 H 0.37063 0.00378 0.20599 0.0
H2376 H 0.36598 0.07004 0.18782 0.0
H2377 H 0.35577 0.04112 0.20427 0.0
H2378 H 0.35423 0.00467 0.0736 0.0
H2379 H 0.34414 0.97576 0.09004 0.0
H2380 H 0.38798 0.03348 0.07662 0.0
H2381 H 0.39619 0.06322 0.09418 0.0
C2382 C 0.11294 0.97327 0.66212 0.0
C2383 C 0.10862 0.95585 0.63938 0.0
C2384 C 0.12958 0.99073 0.61142 0.0
C2385 C 0.13207 0.00823 0.63388 0.0
N2386 N 0.11849 0.01836 0.67834 0.0
N2387 N 0.10629 0.95071 0.59124 0.0
C2388 C 0.12134 0.00016 0.65849 0.0
C2389 C 0.11511 0.96531 0.61363 0.0
N2390 N 0.1105 0.96421 0.68744 0.0
N2391 N 0.14158 0.99808 0.58827 0.0
H2392 H 0.09423 0.93277 0.59185 0.0
H2393 H 0.10835 0.95773 0.57201 0.0
H2394 H 0.15194 0.01669 0.58594 0.0
H2395 H 0.14299 0.9851 0.57218 0.0
H2396 H 0.11676 0.97573 0.7044 0.0
H2397 H 0.10491 0.94472 0.69185 0.0
H2398 H 0.10792 0.01388 0.69555 0.0
H2399 H 0.12404 0.03845 0.67642 0.0
loop_
_geom_bond_atom_site_label_1
_geom_bond_atom_site_label_2
_geom_bond_distance
_geom_bond_site_symmetry_2
_ccdc_geom_bond_type
O0 Cd1 2.223 . S
O0 C8 1.315 . S
Cd1 O0 2.223 . S
Cd1 O4 2.297 . S
Cd1 O5 2.439 . S
Cd1 O11 2.240 . S
Cd2 O3 2.240 . S
Cd2 O10 2.223 . S
Cd2 O12 2.297 . S
Cd2 O13 2.439 . S
O3 Cd2 2.240 . S
O3 C8 1.279 . S
O4 Cd1 2.297 . S
O4 C6 1.247 . S
O5 Cd1 2.439 . S
O5 C6 1.208 . S
C6 O4 1.247 . S
C6 O5 1.208 . S
C7 O12 1.247 . S
C7 O13 1.208 . S
C8 O0 1.315 . S
C8 O3 1.279 . S
C9 O10 1.315 . S
C9 O11 1.279 . S
O10 Cd2 2.223 . S
O10 C9 1.315 . S
O11 Cd1 2.240 . S
O11 C9 1.279 . S
O12 Cd2 2.297 . S
O12 C7 1.247 . S
O13 Cd2 2.439 . S
O13 C7 1.208 . S
O14 Cd15 2.223 . S
O14 C22 1.315 . S
Cd15 O14 2.223 . S
Cd15 O18 2.297 . S
Cd15 O19 2.439 . S
Cd15 O25 2.240 . S
Cd16 O17 2.240 . S
Cd16 O24 2.223 . S
Cd16 O26 2.297 . S
Cd16 O27 2.439 . S
O17 Cd16 2.240 . S
O17 C22 1.279 . S
O18 Cd15 2.297 . S
O18 C20 1.247 . S
O19 Cd15 2.439 . S
O19 C20 1.208 . S
C20 O18 1.247 . S
C20 O19 1.208 . S
C21 O26 1.247 . S
C21 O27 1.208 . S
C22 O14 1.315 . S
C22 O17 1.279 . S
C23 O24 1.315 . S
C23 O25 1.279 . S
O24 Cd16 2.223 . S
O24 C23 1.315 . S
O25 Cd15 2.240 . S
O25 C23 1.279 . S
O26 Cd16 2.297 . S
O26 C21 1.247 . S
O27 Cd16 2.439 . S
O27 C21 1.208 . S
O28 Cd29 2.223 . S
O28 C36 1.315 . S
Cd29 O28 2.223 . S
Cd29 O32 2.297 . S
Cd29 O33 2.439 . S
Cd29 O39 2.240 . S
Cd30 O31 2.240 . S
Cd30 O38 2.223 . S
Cd30 O40 2.297 . S
Cd30 O41 2.439 . S
O31 Cd30 2.240 . S
O31 C36 1.279 . S
O32 Cd29 2.297 . S
O32 C34 1.247 . S
O33 Cd29 2.439 . S
O33 C34 1.208 . S
C34 O32 1.247 . S
C34 O33 1.208 . S
C35 O40 1.247 . S
C35 O41 1.208 . S
C36 O28 1.315 . S
C36 O31 1.279 . S
C37 O38 1.315 . S
C37 O39 1.279 . S
O38 Cd30 2.223 . S
O38 C37 1.315 . S
O39 Cd29 2.240 . S
O39 C37 1.279 . S
O40 Cd30 2.297 . S
O40 C35 1.247 . S
O41 Cd30 2.439 . S
O41 C35 1.208 . S
O42 Cd43 2.223 . S
O42 C50 1.315 . S
Cd43 O42 2.223 . S
Cd43 O46 2.297 . S
Cd43 O47 2.439 . S
Cd43 O53 2.240 . S
Cd44 O45 2.240 . S
Cd44 O52 2.223 . S
Cd44 O54 2.297 . S
Cd44 O55 2.439 . S
O45 Cd44 2.240 . S
O45 C50 1.279 . S
O46 Cd43 2.297 . S
O46 C48 1.247 . S
O47 Cd43 2.439 . S
O47 C48 1.208 . S
C48 O46 1.247 . S
C48 O47 1.208 . S
C49 O54 1.247 . S
C49 O55 1.208 . S
C50 O42 1.315 . S
C50 O45 1.279 . S
C51 O52 1.315 . S
C51 O53 1.279 . S
O52 Cd44 2.223 . S
O52 C51 1.315 . S
O53 Cd43 2.240 . S
O53 C51 1.279 . S
O54 Cd44 2.297 . S
O54 C49 1.247 . S
O55 Cd44 2.439 . S
O55 C49 1.208 . S
O56 Cd57 2.223 . S
O56 C64 1.315 . S
Cd57 O56 2.223 . S
Cd57 O60 2.297 . S
Cd57 O61 2.439 . S
Cd57 O67 2.240 . S
Cd58 O59 2.240 . S
Cd58 O66 2.223 . S
Cd58 O68 2.297 . S
Cd58 O69 2.439 . S
O59 Cd58 2.240 . S
O59 C64 1.279 . S
O60 Cd57 2.297 . S
O60 C62 1.247 . S
O61 Cd57 2.439 . S
O61 C62 1.208 . S
C62 O60 1.247 . S
C62 O61 1.208 . S
C63 O68 1.247 . S
C63 O69 1.208 . S
C64 O56 1.315 . S
C64 O59 1.279 . S
C65 O66 1.315 . S
C65 O67 1.279 . S
O66 Cd58 2.223 . S
O66 C65 1.315 . S
O67 Cd57 2.240 . S
O67 C65 1.279 . S
O68 Cd58 2.297 . S
O68 C63 1.247 . S
O69 Cd58 2.439 . S
O69 C63 1.208 . S
O70 Cd71 2.223 . S
O70 C78 1.315 . S
Cd71 O70 2.223 . S
Cd71 O74 2.297 . S
Cd71 O75 2.439 . S
Cd71 O81 2.240 . S
Cd72 O73 2.240 . S
Cd72 O80 2.223 . S
Cd72 O82 2.297 . S
Cd72 O83 2.439 . S
O73 Cd72 2.240 . S
O73 C78 1.279 . S
O74 Cd71 2.297 . S
O74 C76 1.247 . S
O75 Cd71 2.439 . S
O75 C76 1.208 . S
C76 O74 1.247 . S
C76 O75 1.208 . S
C77 O82 1.247 . S
C77 O83 1.208 . S
C78 O70 1.315 . S
C78 O73 1.279 . S
C79 O80 1.315 . S
C79 O81 1.279 . S
O80 Cd72 2.223 . S
O80 C79 1.315 . S
O81 Cd71 2.240 . S
O81 C79 1.279 . S
O82 Cd72 2.297 . S
O82 C77 1.247 . S
O83 Cd72 2.439 . S
O83 C77 1.208 . S
O84 Cd85 2.223 . S
O84 C92 1.315 . S
Cd85 O84 2.223 . S
Cd85 O88 2.297 . S
Cd85 O89 2.439 . S
Cd85 O95 2.240 . S
Cd86 O87 2.240 . S
Cd86 O94 2.223 . S
Cd86 O96 2.297 . S
Cd86 O97 2.439 . S
O87 Cd86 2.240 . S
O87 C92 1.279 . S
O88 Cd85 2.297 . S
O88 C90 1.247 . S
O89 Cd85 2.439 . S
O89 C90 1.208 . S
C90 O88 1.247 . S
C90 O89 1.208 . S
C91 O96 1.247 . S
C91 O97 1.208 . S
C92 O84 1.315 . S
C92 O87 1.279 . S
C93 O94 1.315 . S
C93 O95 1.279 . S
O94 Cd86 2.223 . S
O94 C93 1.315 . S
O95 Cd85 2.240 . S
O95 C93 1.279 . S
O96 Cd86 2.297 . S
O96 C91 1.247 . S
O97 Cd86 2.439 . S
O97 C91 1.208 . S
O98 Cd99 2.223 . S
O98 C106 1.315 . S
Cd99 O98 2.223 . S
Cd99 O102 2.297 . S
Cd99 O103 2.439 . S
Cd99 O109 2.240 . S
Cd100 O101 2.240 . S
Cd100 O108 2.223 . S
Cd100 O110 2.297 . S
Cd100 O111 2.439 . S
O101 Cd100 2.240 . S
O101 C106 1.279 . S
O102 Cd99 2.297 . S
O102 C104 1.247 . S
O103 Cd99 2.439 . S
O103 C104 1.208 . S
C104 O102 1.247 . S
C104 O103 1.208 . S
C105 O110 1.247 . S
C105 O111 1.208 . S
C106 O98 1.315 . S
C106 O101 1.279 . S
C107 O108 1.315 . S
C107 O109 1.279 . S
O108 Cd100 2.223 . S
O108 C107 1.315 . S
O109 Cd99 2.240 . S
O109 C107 1.279 . S
O110 Cd100 2.297 . S
O110 C105 1.247 . S
O111 Cd100 2.439 . S
O111 C105 1.208 . S
O112 Cd113 2.223 . S
O112 C120 1.315 . S
Cd113 O112 2.223 . S
Cd113 O116 2.297 . S
Cd113 O117 2.439 . S
Cd113 O123 2.240 . S
Cd114 O115 2.240 . S
Cd114 O122 2.223 . S
Cd114 O124 2.297 . S
Cd114 O125 2.439 . S
O115 Cd114 2.240 . S
O115 C120 1.279 . S
O116 Cd113 2.297 . S
O116 C118 1.247 . S
O117 Cd113 2.439 . S
O117 C118 1.208 . S
C118 O116 1.247 . S
C118 O117 1.208 . S
C119 O124 1.247 . S
C119 O125 1.208 . S
C120 O112 1.315 . S
C120 O115 1.279 . S
C121 O122 1.315 . S
C121 O123 1.279 . S
O122 Cd114 2.223 . S
O122 C121 1.315 . S
O123 Cd113 2.240 . S
O123 C121 1.279 . S
O124 Cd114 2.297 . S
O124 C119 1.247 . S
O125 Cd114 2.439 . S
O125 C119 1.208 . S
O126 Cd127 2.223 . S
O126 C134 1.315 . S
Cd127 O126 2.223 . S
Cd127 O130 2.297 . S
Cd127 O131 2.439 . S
Cd127 O137 2.240 . S
Cd128 O129 2.240 . S
Cd128 O136 2.223 . S
Cd128 O138 2.297 . S
Cd128 O139 2.439 . S
O129 Cd128 2.240 . S
O129 C134 1.279 . S
O130 Cd127 2.297 . S
O130 C132 1.247 . S
O131 Cd127 2.439 . S
O131 C132 1.208 . S
C132 O130 1.247 . S
C132 O131 1.208 . S
C133 O138 1.247 . S
C133 O139 1.208 . S
C134 O126 1.315 . S
C134 O129 1.279 . S
C135 O136 1.315 . S
C135 O137 1.279 . S
O136 Cd128 2.223 . S
O136 C135 1.315 . S
O137 Cd127 2.240 . S
O137 C135 1.279 . S
O138 Cd128 2.297 . S
O138 C133 1.247 . S
O139 Cd128 2.439 . S
O139 C133 1.208 . S
O140 Cd141 2.223 . S
O140 C148 1.315 . S
Cd141 O140 2.223 . S
Cd141 O144 2.297 . S
Cd141 O145 2.439 . S
Cd141 O151 2.240 . S
Cd142 O143 2.240 . S
Cd142 O150 2.223 . S
Cd142 O152 2.297 . S
Cd142 O153 2.439 . S
O143 Cd142 2.240 . S
O143 C148 1.279 . S
O144 Cd141 2.297 . S
O144 C146 1.247 . S
O145 Cd141 2.439 . S
O145 C146 1.208 . S
C146 O144 1.247 . S
C146 O145 1.208 . S
C147 O152 1.247 . S
C147 O153 1.208 . S
C148 O140 1.315 . S
C148 O143 1.279 . S
C149 O150 1.315 . S
C149 O151 1.279 . S
O150 Cd142 2.223 . S
O150 C149 1.315 . S
O151 Cd141 2.240 . S
O151 C149 1.279 . S
O152 Cd142 2.297 . S
O152 C147 1.247 . S
O153 Cd142 2.439 . S
O153 C147 1.208 . S
O154 Cd155 2.223 . S
O154 C162 1.315 . S
Cd155 O154 2.223 . S
Cd155 O158 2.297 . S
Cd155 O159 2.439 . S
Cd155 O165 2.240 . S
Cd156 O157 2.240 . S
Cd156 O164 2.223 . S
Cd156 O166 2.297 . S
Cd156 O167 2.439 . S
O157 Cd156 2.240 . S
O157 C162 1.279 . S
O158 Cd155 2.297 . S
O158 C160 1.247 . S
O159 Cd155 2.439 . S
O159 C160 1.208 . S
C160 O158 1.247 . S
C160 O159 1.208 . S
C161 O166 1.247 . S
C161 O167 1.208 . S
C162 O154 1.315 . S
C162 O157 1.279 . S
C163 O164 1.315 . S
C163 O165 1.279 . S
O164 Cd156 2.223 . S
O164 C163 1.315 . S
O165 Cd155 2.240 . S
O165 C163 1.279 . S
O166 Cd156 2.297 . S
O166 C161 1.247 . S
O167 Cd156 2.439 . S
O167 C161 1.208 . S
O168 Cd169 2.223 . S
O168 C176 1.315 . S
Cd169 O168 2.223 . S
Cd169 O172 2.297 . S
Cd169 O173 2.439 . S
Cd169 O179 2.240 . S
Cd170 O171 2.240 . S
Cd170 O178 2.223 . S
Cd170 O180 2.297 . S
Cd170 O181 2.439 . S
O171 Cd170 2.240 . S
O171 C176 1.279 . S
O172 Cd169 2.297 . S
O172 C174 1.247 . S
O173 Cd169 2.439 . S
O173 C174 1.208 . S
C174 O172 1.247 . S
C174 O173 1.208 . S
C175 O180 1.247 . S
C175 O181 1.208 . S
C176 O168 1.315 . S
C176 O171 1.279 . S
C177 O178 1.315 . S
C177 O179 1.279 . S
O178 Cd170 2.223 . S
O178 C177 1.315 . S
O179 Cd169 2.240 . S
O179 C177 1.279 . S
O180 Cd170 2.297 . S
O180 C175 1.247 . S
O181 Cd170 2.439 . S
O181 C175 1.208 . S
O182 Cd183 2.223 . S
O182 C190 1.315 . S
Cd183 O182 2.223 . S
Cd183 O186 2.297 . S
Cd183 O187 2.439 . S
Cd183 O193 2.240 . S
Cd184 O185 2.240 . S
Cd184 O192 2.223 . S
Cd184 O194 2.297 . S
Cd184 O195 2.439 . S
O185 Cd184 2.240 . S
O185 C190 1.279 . S
O186 Cd183 2.297 . S
O186 C188 1.247 . S
O187 Cd183 2.439 . S
O187 C188 1.208 . S
C188 O186 1.247 . S
C188 O187 1.208 . S
C189 O194 1.247 . S
C189 O195 1.208 . S
C190 O182 1.315 . S
C190 O185 1.279 . S
C191 O192 1.315 . S
C191 O193 1.279 . S
O192 Cd184 2.223 . S
O192 C191 1.315 . S
O193 Cd183 2.240 . S
O193 C191 1.279 . S
O194 Cd184 2.297 . S
O194 C189 1.247 . S
O195 Cd184 2.439 . S
O195 C189 1.208 . S
O196 Cd197 2.223 . S
O196 C204 1.315 . S
Cd197 O196 2.223 . S
Cd197 O200 2.297 . S
Cd197 O201 2.439 . S
Cd197 O207 2.240 . S
Cd198 O199 2.240 . S
Cd198 O206 2.223 . S
Cd198 O208 2.297 . S
Cd198 O209 2.439 . S
O199 Cd198 2.240 . S
O199 C204 1.279 . S
O200 Cd197 2.297 . S
O200 C202 1.247 . S
O201 Cd197 2.439 . S
O201 C202 1.208 . S
C202 O200 1.247 . S
C202 O201 1.208 . S
C203 O208 1.247 . S
C203 O209 1.208 . S
C204 O196 1.315 . S
C204 O199 1.279 . S
C205 O206 1.315 . S
C205 O207 1.279 . S
O206 Cd198 2.223 . S
O206 C205 1.315 . S
O207 Cd197 2.240 . S
O207 C205 1.279 . S
O208 Cd198 2.297 . S
O208 C203 1.247 . S
O209 Cd198 2.439 . S
O209 C203 1.208 . S
O210 Cd211 2.223 . S
O210 C218 1.315 . S
Cd211 O210 2.223 . S
Cd211 O214 2.297 . S
Cd211 O215 2.439 . S
Cd211 O221 2.240 . S
Cd212 O213 2.240 . S
Cd212 O220 2.223 . S
Cd212 O222 2.297 . S
Cd212 O223 2.439 . S
O213 Cd212 2.240 . S
O213 C218 1.279 . S
O214 Cd211 2.297 . S
O214 C216 1.247 . S
O215 Cd211 2.439 . S
O215 C216 1.208 . S
C216 O214 1.247 . S
C216 O215 1.208 . S
C217 O222 1.247 . S
C217 O223 1.208 . S
C218 O210 1.315 . S
C218 O213 1.279 . S
C219 O220 1.315 . S
C219 O221 1.279 . S
O220 Cd212 2.223 . S
O220 C219 1.315 . S
O221 Cd211 2.240 . S
O221 C219 1.279 . S
O222 Cd212 2.297 . S
O222 C217 1.247 . S
O223 Cd212 2.439 . S
O223 C217 1.208 . S
O224 Cd225 2.223 . S
O224 C232 1.315 . S
Cd225 O224 2.223 . S
Cd225 O228 2.297 . S
Cd225 O229 2.439 . S
Cd225 O235 2.240 . S
Cd226 O227 2.240 . S
Cd226 O234 2.223 . S
Cd226 O236 2.297 . S
Cd226 O237 2.439 . S
O227 Cd226 2.240 . S
O227 C232 1.279 . S
O228 Cd225 2.297 . S
O228 C230 1.247 . S
O229 Cd225 2.439 . S
O229 C230 1.208 . S
C230 O228 1.247 . S
C230 O229 1.208 . S
C231 O236 1.247 . S
C231 O237 1.208 . S
C232 O224 1.315 . S
C232 O227 1.279 . S
C233 O234 1.315 . S
C233 O235 1.279 . S
O234 Cd226 2.223 . S
O234 C233 1.315 . S
O235 Cd225 2.240 . S
O235 C233 1.279 . S
O236 Cd226 2.297 . S
O236 C231 1.247 . S
O237 Cd226 2.439 . S
O237 C231 1.208 . S
O238 Cd239 2.223 . S
O238 C246 1.315 . S
Cd239 O238 2.223 . S
Cd239 O242 2.297 . S
Cd239 O243 2.439 . S
Cd239 O249 2.240 . S
Cd240 O241 2.240 . S
Cd240 O248 2.223 . S
Cd240 O250 2.297 . S
Cd240 O251 2.439 . S
O241 Cd240 2.240 . S
O241 C246 1.279 . S
O242 Cd239 2.297 . S
O242 C244 1.247 . S
O243 Cd239 2.439 . S
O243 C244 1.208 . S
C244 O242 1.247 . S
C244 O243 1.208 . S
C245 O250 1.247 . S
C245 O251 1.208 . S
C246 O238 1.315 . S
C246 O241 1.279 . S
C247 O248 1.315 . S
C247 O249 1.279 . S
O248 Cd240 2.223 . S
O248 C247 1.315 . S
O249 Cd239 2.240 . S
O249 C247 1.279 . S
O250 Cd240 2.297 . S
O250 C245 1.247 . S
O251 Cd240 2.439 . S
O251 C245 1.208 . S
O252 Cd253 2.223 . S
O252 C260 1.315 . S
Cd253 O252 2.223 . S
Cd253 O256 2.297 . S
Cd253 O257 2.439 . S
Cd253 O263 2.240 . S
Cd254 O255 2.240 . S
Cd254 O262 2.223 . S
Cd254 O264 2.297 . S
Cd254 O265 2.439 . S
O255 Cd254 2.240 . S
O255 C260 1.279 . S
O256 Cd253 2.297 . S
O256 C258 1.247 . S
O257 Cd253 2.439 . S
O257 C258 1.208 . S
C258 O256 1.247 . S
C258 O257 1.208 . S
C259 O264 1.247 . S
C259 O265 1.208 . S
C260 O252 1.315 . S
C260 O255 1.279 . S
C261 O262 1.315 . S
C261 O263 1.279 . S
O262 Cd254 2.223 . S
O262 C261 1.315 . S
O263 Cd253 2.240 . S
O263 C261 1.279 . S
O264 Cd254 2.297 . S
O264 C259 1.247 . S
O265 Cd254 2.439 . S
O265 C259 1.208 . S
O266 Cd267 2.223 . S
O266 C274 1.315 . S
Cd267 O266 2.223 . S
Cd267 O270 2.297 . S
Cd267 O271 2.439 . S
Cd267 O277 2.240 . S
Cd268 O269 2.240 . S
Cd268 O276 2.223 . S
Cd268 O278 2.297 . S
Cd268 O279 2.439 . S
O269 Cd268 2.240 . S
O269 C274 1.279 . S
O270 Cd267 2.297 . S
O270 C272 1.247 . S
O271 Cd267 2.439 . S
O271 C272 1.208 . S
C272 O270 1.247 . S
C272 O271 1.208 . S
C273 O278 1.247 . S
C273 O279 1.208 . S
C274 O266 1.315 . S
C274 O269 1.279 . S
C275 O276 1.315 . S
C275 O277 1.279 . S
O276 Cd268 2.223 . S
O276 C275 1.315 . S
O277 Cd267 2.240 . S
O277 C275 1.279 . S
O278 Cd268 2.297 . S
O278 C273 1.247 . S
O279 Cd268 2.439 . S
O279 C273 1.208 . S
O280 Cd281 2.223 . S
O280 C288 1.315 . S
Cd281 O280 2.223 . S
Cd281 O284 2.297 . S
Cd281 O285 2.439 . S
Cd281 O291 2.240 . S
Cd282 O283 2.240 . S
Cd282 O290 2.223 . S
Cd282 O292 2.297 . S
Cd282 O293 2.439 . S
O283 Cd282 2.240 . S
O283 C288 1.279 . S
O284 Cd281 2.297 . S
O284 C286 1.247 . S
O285 Cd281 2.439 . S
O285 C286 1.208 . S
C286 O284 1.247 . S
C286 O285 1.208 . S
C287 O292 1.247 . S
C287 O293 1.208 . S
C288 O280 1.315 . S
C288 O283 1.279 . S
C289 O290 1.315 . S
C289 O291 1.279 . S
O290 Cd282 2.223 . S
O290 C289 1.315 . S
O291 Cd281 2.240 . S
O291 C289 1.279 . S
O292 Cd282 2.297 . S
O292 C287 1.247 . S
O293 Cd282 2.439 . S
O293 C287 1.208 . S
O294 Cd295 2.223 . S
O294 C302 1.315 . S
Cd295 O294 2.223 . S
Cd295 O298 2.297 . S
Cd295 O299 2.439 . S
Cd295 O305 2.240 . S
Cd296 O297 2.240 . S
Cd296 O304 2.223 . S
Cd296 O306 2.297 . S
Cd296 O307 2.439 . S
O297 Cd296 2.240 . S
O297 C302 1.279 . S
O298 Cd295 2.297 . S
O298 C300 1.247 . S
O299 Cd295 2.439 . S
O299 C300 1.208 . S
C300 O298 1.247 . S
C300 O299 1.208 . S
C301 O306 1.247 . S
C301 O307 1.208 . S
C302 O294 1.315 . S
C302 O297 1.279 . S
C303 O304 1.315 . S
C303 O305 1.279 . S
O304 Cd296 2.223 . S
O304 C303 1.315 . S
O305 Cd295 2.240 . S
O305 C303 1.279 . S
O306 Cd296 2.297 . S
O306 C301 1.247 . S
O307 Cd296 2.439 . S
O307 C301 1.208 . S
O308 Cd309 2.223 . S
O308 C316 1.315 . S
Cd309 O308 2.223 . S
Cd309 O312 2.297 . S
Cd309 O313 2.439 . S
Cd309 O319 2.240 . S
Cd310 O311 2.240 . S
Cd310 O318 2.223 . S
Cd310 O320 2.297 . S
Cd310 O321 2.439 . S
O311 Cd310 2.240 . S
O311 C316 1.279 . S
O312 Cd309 2.297 . S
O312 C314 1.247 . S
O313 Cd309 2.439 . S
O313 C314 1.208 . S
C314 O312 1.247 . S
C314 O313 1.208 . S
C315 O320 1.247 . S
C315 O321 1.208 . S
C316 O308 1.315 . S
C316 O311 1.279 . S
C317 O318 1.315 . S
C317 O319 1.279 . S
O318 Cd310 2.223 . S
O318 C317 1.315 . S
O319 Cd309 2.240 . S
O319 C317 1.279 . S
O320 Cd310 2.297 . S
O320 C315 1.247 . S
O321 Cd310 2.439 . S
O321 C315 1.208 . S
O322 Cd323 2.223 . S
O322 C330 1.315 . S
Cd323 O322 2.223 . S
Cd323 O326 2.297 . S
Cd323 O327 2.439 . S
Cd323 O333 2.240 . S
Cd324 O325 2.240 . S
Cd324 O332 2.223 . S
Cd324 O334 2.297 . S
Cd324 O335 2.439 . S
O325 Cd324 2.240 . S
O325 C330 1.279 . S
O326 Cd323 2.297 . S
O326 C328 1.247 . S
O327 Cd323 2.439 . S
O327 C328 1.208 . S
C328 O326 1.247 . S
C328 O327 1.208 . S
C329 O334 1.247 . S
C329 O335 1.208 . S
C330 O322 1.315 . S
C330 O325 1.279 . S
C331 O332 1.315 . S
C331 O333 1.279 . S
O332 Cd324 2.223 . S
O332 C331 1.315 . S
O333 Cd323 2.240 . S
O333 C331 1.279 . S
O334 Cd324 2.297 . S
O334 C329 1.247 . S
O335 Cd324 2.439 . S
O335 C329 1.208 . S
O336 Cd337 2.223 . S
O336 C344 1.315 . S
Cd337 O336 2.223 . S
Cd337 O340 2.297 . S
Cd337 O341 2.439 . S
Cd337 O347 2.240 . S
Cd338 O339 2.240 . S
Cd338 O346 2.223 . S
Cd338 O348 2.297 . S
Cd338 O349 2.439 . S
O339 Cd338 2.240 . S
O339 C344 1.279 . S
O340 Cd337 2.297 . S
O340 C342 1.247 . S
O341 Cd337 2.439 . S
O341 C342 1.208 . S
C342 O340 1.247 . S
C342 O341 1.208 . S
C343 O348 1.247 . S
C343 O349 1.208 . S
C344 O336 1.315 . S
C344 O339 1.279 . S
C345 O346 1.315 . S
C345 O347 1.279 . S
O346 Cd338 2.223 . S
O346 C345 1.315 . S
O347 Cd337 2.240 . S
O347 C345 1.279 . S
O348 Cd338 2.297 . S
O348 C343 1.247 . S
O349 Cd338 2.439 . S
O349 C343 1.208 . S
O350 Cd351 2.223 . S
O350 C358 1.315 . S
Cd351 O350 2.223 . S
Cd351 O354 2.297 . S
Cd351 O355 2.439 . S
Cd351 O361 2.240 . S
Cd352 O353 2.240 . S
Cd352 O360 2.223 . S
Cd352 O362 2.297 . S
Cd352 O363 2.439 . S
O353 Cd352 2.240 . S
O353 C358 1.279 . S
O354 Cd351 2.297 . S
O354 C356 1.247 . S
O355 Cd351 2.439 . S
O355 C356 1.208 . S
C356 O354 1.247 . S
C356 O355 1.208 . S
C357 O362 1.247 . S
C357 O363 1.208 . S
C358 O350 1.315 . S
C358 O353 1.279 . S
C359 O360 1.315 . S
C359 O361 1.279 . S
O360 Cd352 2.223 . S
O360 C359 1.315 . S
O361 Cd351 2.240 . S
O361 C359 1.279 . S
O362 Cd352 2.297 . S
O362 C357 1.247 . S
O363 Cd352 2.439 . S
O363 C357 1.208 . S
O364 Cd365 2.223 . S
O364 C372 1.315 . S
Cd365 O364 2.223 . S
Cd365 O368 2.297 . S
Cd365 O369 2.439 . S
Cd365 O375 2.240 . S
Cd366 O367 2.240 . S
Cd366 O374 2.223 . S
Cd366 O376 2.297 . S
Cd366 O377 2.439 . S
O367 Cd366 2.240 . S
O367 C372 1.279 . S
O368 Cd365 2.297 . S
O368 C370 1.247 . S
O369 Cd365 2.439 . S
O369 C370 1.208 . S
C370 O368 1.247 . S
C370 O369 1.208 . S
C371 O376 1.247 . S
C371 O377 1.208 . S
C372 O364 1.315 . S
C372 O367 1.279 . S
C373 O374 1.315 . S
C373 O375 1.279 . S
O374 Cd366 2.223 . S
O374 C373 1.315 . S
O375 Cd365 2.240 . S
O375 C373 1.279 . S
O376 Cd366 2.297 . S
O376 C371 1.247 . S
O377 Cd366 2.439 . S
O377 C371 1.208 . S
O378 Cd379 2.223 . S
O378 C386 1.315 . S
Cd379 O378 2.223 . S
Cd379 O382 2.297 . S
Cd379 O383 2.439 . S
Cd379 O389 2.240 . S
Cd380 O381 2.240 . S
Cd380 O388 2.223 . S
Cd380 O390 2.297 . S
Cd380 O391 2.439 . S
O381 Cd380 2.240 . S
O381 C386 1.279 . S
O382 Cd379 2.297 . S
O382 C384 1.247 . S
O383 Cd379 2.439 . S
O383 C384 1.208 . S
C384 O382 1.247 . S
C384 O383 1.208 . S
C385 O390 1.247 . S
C385 O391 1.208 . S
C386 O378 1.315 . S
C386 O381 1.279 . S
C387 O388 1.315 . S
C387 O389 1.279 . S
O388 Cd380 2.223 . S
O388 C387 1.315 . S
O389 Cd379 2.240 . S
O389 C387 1.279 . S
O390 Cd380 2.297 . S
O390 C385 1.247 . S
O391 Cd380 2.439 . S
O391 C385 1.208 . S
O392 Cd393 2.223 . S
O392 C400 1.315 . S
Cd393 O392 2.223 . S
Cd393 O396 2.297 . S
Cd393 O397 2.439 . S
Cd393 O403 2.240 . S
Cd394 O395 2.240 . S
Cd394 O402 2.223 . S
Cd394 O404 2.297 . S
Cd394 O405 2.439 . S
O395 Cd394 2.240 . S
O395 C400 1.279 . S
O396 Cd393 2.297 . S
O396 C398 1.247 . S
O397 Cd393 2.439 . S
O397 C398 1.208 . S
C398 O396 1.247 . S
C398 O397 1.208 . S
C399 O404 1.247 . S
C399 O405 1.208 . S
C400 O392 1.315 . S
C400 O395 1.279 . S
C401 O402 1.315 . S
C401 O403 1.279 . S
O402 Cd394 2.223 . S
O402 C401 1.315 . S
O403 Cd393 2.240 . S
O403 C401 1.279 . S
O404 Cd394 2.297 . S
O404 C399 1.247 . S
O405 Cd394 2.439 . S
O405 C399 1.208 . S
O406 Cd407 2.223 . S
O406 C414 1.315 . S
Cd407 O406 2.223 . S
Cd407 O410 2.297 . S
Cd407 O411 2.439 . S
Cd407 O417 2.240 . S
Cd408 O409 2.240 . S
Cd408 O416 2.223 . S
Cd408 O418 2.297 . S
Cd408 O419 2.439 . S
O409 Cd408 2.240 . S
O409 C414 1.279 . S
O410 Cd407 2.297 . S
O410 C412 1.247 . S
O411 Cd407 2.439 . S
O411 C412 1.208 . S
C412 O410 1.247 . S
C412 O411 1.208 . S
C413 O418 1.247 . S
C413 O419 1.208 . S
C414 O406 1.315 . S
C414 O409 1.279 . S
C415 O416 1.315 . S
C415 O417 1.279 . S
O416 Cd408 2.223 . S
O416 C415 1.315 . S
O417 Cd407 2.240 . S
O417 C415 1.279 . S
O418 Cd408 2.297 . S
O418 C413 1.247 . S
O419 Cd408 2.439 . S
O419 C413 1.208 . S
O420 Cd421 2.223 . S
O420 C428 1.315 . S
Cd421 O420 2.223 . S
Cd421 O424 2.297 . S
Cd421 O425 2.439 . S
Cd421 O431 2.240 . S
Cd422 O423 2.240 . S
Cd422 O430 2.223 . S
Cd422 O432 2.297 . S
Cd422 O433 2.439 . S
O423 Cd422 2.240 . S
O423 C428 1.279 . S
O424 Cd421 2.297 . S
O424 C426 1.247 . S
O425 Cd421 2.439 . S
O425 C426 1.208 . S
C426 O424 1.247 . S
C426 O425 1.208 . S
C427 O432 1.247 . S
C427 O433 1.208 . S
C428 O420 1.315 . S
C428 O423 1.279 . S
C429 O430 1.315 . S
C429 O431 1.279 . S
O430 Cd422 2.223 . S
O430 C429 1.315 . S
O431 Cd421 2.240 . S
O431 C429 1.279 . S
O432 Cd422 2.297 . S
O432 C427 1.247 . S
O433 Cd422 2.439 . S
O433 C427 1.208 . S
O434 Cd435 2.223 . S
O434 C442 1.315 . S
Cd435 O434 2.223 . S
Cd435 O438 2.297 . S
Cd435 O439 2.439 . S
Cd435 O445 2.240 . S
Cd436 O437 2.240 . S
Cd436 O444 2.223 . S
Cd436 O446 2.297 . S
Cd436 O447 2.439 . S
O437 Cd436 2.240 . S
O437 C442 1.279 . S
O438 Cd435 2.297 . S
O438 C440 1.247 . S
O439 Cd435 2.439 . S
O439 C440 1.208 . S
C440 O438 1.247 . S
C440 O439 1.208 . S
C441 O446 1.247 . S
C441 O447 1.208 . S
C442 O434 1.315 . S
C442 O437 1.279 . S
C443 O444 1.315 . S
C443 O445 1.279 . S
O444 Cd436 2.223 . S
O444 C443 1.315 . S
O445 Cd435 2.240 . S
O445 C443 1.279 . S
O446 Cd436 2.297 . S
O446 C441 1.247 . S
O447 Cd436 2.439 . S
O447 C441 1.208 . S
O448 Cd449 2.223 . S
O448 C456 1.315 . S
Cd449 O448 2.223 . S
Cd449 O452 2.297 . S
Cd449 O453 2.439 . S
Cd449 O459 2.240 . S
Cd450 O451 2.240 . S
Cd450 O458 2.223 . S
Cd450 O460 2.297 . S
Cd450 O461 2.439 . S
O451 Cd450 2.240 . S
O451 C456 1.279 . S
O452 Cd449 2.297 . S
O452 C454 1.247 . S
O453 Cd449 2.439 . S
O453 C454 1.208 . S
C454 O452 1.247 . S
C454 O453 1.208 . S
C455 O460 1.247 . S
C455 O461 1.208 . S
C456 O448 1.315 . S
C456 O451 1.279 . S
C457 O458 1.315 . S
C457 O459 1.279 . S
O458 Cd450 2.223 . S
O458 C457 1.315 . S
O459 Cd449 2.240 . S
O459 C457 1.279 . S
O460 Cd450 2.297 . S
O460 C455 1.247 . S
O461 Cd450 2.439 . S
O461 C455 1.208 . S
O462 Cd463 2.223 . S
O462 C470 1.315 . S
Cd463 O462 2.223 . S
Cd463 O466 2.297 . S
Cd463 O467 2.439 . S
Cd463 O473 2.240 . S
Cd464 O465 2.240 . S
Cd464 O472 2.223 . S
Cd464 O474 2.297 . S
Cd464 O475 2.439 . S
O465 Cd464 2.240 . S
O465 C470 1.279 . S
O466 Cd463 2.297 . S
O466 C468 1.247 . S
O467 Cd463 2.439 . S
O467 C468 1.208 . S
C468 O466 1.247 . S
C468 O467 1.208 . S
C469 O474 1.247 . S
C469 O475 1.208 . S
C470 O462 1.315 . S
C470 O465 1.279 . S
C471 O472 1.315 . S
C471 O473 1.279 . S
O472 Cd464 2.223 . S
O472 C471 1.315 . S
O473 Cd463 2.240 . S
O473 C471 1.279 . S
O474 Cd464 2.297 . S
O474 C469 1.247 . S
O475 Cd464 2.439 . S
O475 C469 1.208 . S
O476 Cd477 2.223 . S
O476 C484 1.315 . S
Cd477 O476 2.223 . S
Cd477 O480 2.297 . S
Cd477 O481 2.439 . S
Cd477 O487 2.240 . S
Cd478 O479 2.240 . S
Cd478 O486 2.223 . S
Cd478 O488 2.297 . S
Cd478 O489 2.439 . S
O479 Cd478 2.240 . S
O479 C484 1.279 . S
O480 Cd477 2.297 . S
O480 C482 1.247 . S
O481 Cd477 2.439 . S
O481 C482 1.208 . S
C482 O480 1.247 . S
C482 O481 1.208 . S
C483 O488 1.247 . S
C483 O489 1.208 . S
C484 O476 1.315 . S
C484 O479 1.279 . S
C485 O486 1.315 . S
C485 O487 1.279 . S
O486 Cd478 2.223 . S
O486 C485 1.315 . S
O487 Cd477 2.240 . S
O487 C485 1.279 . S
O488 Cd478 2.297 . S
O488 C483 1.247 . S
O489 Cd478 2.439 . S
O489 C483 1.208 . S
O490 Cd491 2.223 . S
O490 C498 1.315 . S
Cd491 O490 2.223 . S
Cd491 O494 2.297 . S
Cd491 O495 2.439 . S
Cd491 O501 2.240 . S
Cd492 O493 2.240 . S
Cd492 O500 2.223 . S
Cd492 O502 2.297 . S
Cd492 O503 2.439 . S
O493 Cd492 2.240 . S
O493 C498 1.279 . S
O494 Cd491 2.297 . S
O494 C496 1.247 . S
O495 Cd491 2.439 . S
O495 C496 1.208 . S
C496 O494 1.247 . S
C496 O495 1.208 . S
C497 O502 1.247 . S
C497 O503 1.208 . S
C498 O490 1.315 . S
C498 O493 1.279 . S
C499 O500 1.315 . S
C499 O501 1.279 . S
O500 Cd492 2.223 . S
O500 C499 1.315 . S
O501 Cd491 2.240 . S
O501 C499 1.279 . S
O502 Cd492 2.297 . S
O502 C497 1.247 . S
O503 Cd492 2.439 . S
O503 C497 1.208 . S
O504 Cd505 2.223 . S
O504 C512 1.315 . S
Cd505 O504 2.223 . S
Cd505 O508 2.297 . S
Cd505 O509 2.439 . S
Cd505 O515 2.240 . S
Cd506 O507 2.240 . S
Cd506 O514 2.223 . S
Cd506 O516 2.297 . S
Cd506 O517 2.439 . S
O507 Cd506 2.240 . S
O507 C512 1.279 . S
O508 Cd505 2.297 . S
O508 C510 1.247 . S
O509 Cd505 2.439 . S
O509 C510 1.208 . S
C510 O508 1.247 . S
C510 O509 1.208 . S
C511 O516 1.247 . S
C511 O517 1.208 . S
C512 O504 1.315 . S
C512 O507 1.279 . S
C513 O514 1.315 . S
C513 O515 1.279 . S
O514 Cd506 2.223 . S
O514 C513 1.315 . S
O515 Cd505 2.240 . S
O515 C513 1.279 . S
O516 Cd506 2.297 . S
O516 C511 1.247 . S
O517 Cd506 2.439 . S
O517 C511 1.208 . S
O518 Cd519 2.223 . S
O518 C526 1.315 . S
Cd519 O518 2.223 . S
Cd519 O522 2.297 . S
Cd519 O523 2.439 . S
Cd519 O529 2.240 . S
Cd520 O521 2.240 . S
Cd520 O528 2.223 . S
Cd520 O530 2.297 . S
Cd520 O531 2.439 . S
O521 Cd520 2.240 . S
O521 C526 1.279 . S
O522 Cd519 2.297 . S
O522 C524 1.247 . S
O523 Cd519 2.439 . S
O523 C524 1.208 . S
C524 O522 1.247 . S
C524 O523 1.208 . S
C525 O530 1.247 . S
C525 O531 1.208 . S
C526 O518 1.315 . S
C526 O521 1.279 . S
C527 O528 1.315 . S
C527 O529 1.279 . S
O528 Cd520 2.223 . S
O528 C527 1.315 . S
O529 Cd519 2.240 . S
O529 C527 1.279 . S
O530 Cd520 2.297 . S
O530 C525 1.247 . S
O531 Cd520 2.439 . S
O531 C525 1.208 . S
O532 Cd533 2.223 . S
O532 C540 1.315 . S
Cd533 O532 2.223 . S
Cd533 O536 2.297 . S
Cd533 O537 2.439 . S
Cd533 O543 2.240 . S
Cd534 O535 2.240 . S
Cd534 O542 2.223 . S
Cd534 O544 2.297 . S
Cd534 O545 2.439 . S
O535 Cd534 2.240 . S
O535 C540 1.279 . S
O536 Cd533 2.297 . S
O536 C538 1.247 . S
O537 Cd533 2.439 . S
O537 C538 1.208 . S
C538 O536 1.247 . S
C538 O537 1.208 . S
C539 O544 1.247 . S
C539 O545 1.208 . S
C540 O532 1.315 . S
C540 O535 1.279 . S
C541 O542 1.315 . S
C541 O543 1.279 . S
O542 Cd534 2.223 . S
O542 C541 1.315 . S
O543 Cd533 2.240 . S
O543 C541 1.279 . S
O544 Cd534 2.297 . S
O544 C539 1.247 . S
O545 Cd534 2.439 . S
O545 C539 1.208 . S
O546 Cd547 2.223 . S
O546 C554 1.315 . S
Cd547 O546 2.223 . S
Cd547 O550 2.297 . S
Cd547 O551 2.439 . S
Cd547 O557 2.240 . S
Cd548 O549 2.240 . S
Cd548 O556 2.223 . S
Cd548 O558 2.297 . S
Cd548 O559 2.439 . S
O549 Cd548 2.240 . S
O549 C554 1.279 . S
O550 Cd547 2.297 . S
O550 C552 1.247 . S
O551 Cd547 2.439 . S
O551 C552 1.208 . S
C552 O550 1.247 . S
C552 O551 1.208 . S
C553 O558 1.247 . S
C553 O559 1.208 . S
C554 O546 1.315 . S
C554 O549 1.279 . S
C555 O556 1.315 . S
C555 O557 1.279 . S
O556 Cd548 2.223 . S
O556 C555 1.315 . S
O557 Cd547 2.240 . S
O557 C555 1.279 . S
O558 Cd548 2.297 . S
O558 C553 1.247 . S
O559 Cd548 2.439 . S
O559 C553 1.208 . S
O560 Cd561 2.223 . S
O560 C568 1.315 . S
Cd561 O560 2.223 . S
Cd561 O564 2.297 . S
Cd561 O565 2.439 . S
Cd561 O571 2.240 . S
Cd562 O563 2.240 . S
Cd562 O570 2.223 . S
Cd562 O572 2.297 . S
Cd562 O573 2.439 . S
O563 Cd562 2.240 . S
O563 C568 1.279 . S
O564 Cd561 2.297 . S
O564 C566 1.247 . S
O565 Cd561 2.439 . S
O565 C566 1.208 . S
C566 O564 1.247 . S
C566 O565 1.208 . S
C567 O572 1.247 . S
C567 O573 1.208 . S
C568 O560 1.315 . S
C568 O563 1.279 . S
C569 O570 1.315 . S
C569 O571 1.279 . S
O570 Cd562 2.223 . S
O570 C569 1.315 . S
O571 Cd561 2.240 . S
O571 C569 1.279 . S
O572 Cd562 2.297 . S
O572 C567 1.247 . S
O573 Cd562 2.439 . S
O573 C567 1.208 . S
O574 Cd575 2.223 . S
O574 C582 1.315 . S
Cd575 O574 2.223 . S
Cd575 O578 2.297 . S
Cd575 O579 2.439 . S
Cd575 O585 2.240 . S
Cd576 O577 2.240 . S
Cd576 O584 2.223 . S
Cd576 O586 2.297 . S
Cd576 O587 2.439 . S
O577 Cd576 2.240 . S
O577 C582 1.279 . S
O578 Cd575 2.297 . S
O578 C580 1.247 . S
O579 Cd575 2.439 . S
O579 C580 1.208 . S
C580 O578 1.247 . S
C580 O579 1.208 . S
C581 O586 1.247 . S
C581 O587 1.208 . S
C582 O574 1.315 . S
C582 O577 1.279 . S
C583 O584 1.315 . S
C583 O585 1.279 . S
O584 Cd576 2.223 . S
O584 C583 1.315 . S
O585 Cd575 2.240 . S
O585 C583 1.279 . S
O586 Cd576 2.297 . S
O586 C581 1.247 . S
O587 Cd576 2.439 . S
O587 C581 1.208 . S
O588 Cd589 2.223 . S
O588 C596 1.315 . S
Cd589 O588 2.223 . S
Cd589 O592 2.297 . S
Cd589 O593 2.439 . S
Cd589 O599 2.240 . S
Cd590 O591 2.240 . S
Cd590 O598 2.223 . S
Cd590 O600 2.297 . S
Cd590 O601 2.439 . S
O591 Cd590 2.240 . S
O591 C596 1.279 . S
O592 Cd589 2.297 . S
O592 C594 1.247 . S
O593 Cd589 2.439 . S
O593 C594 1.208 . S
C594 O592 1.247 . S
C594 O593 1.208 . S
C595 O600 1.247 . S
C595 O601 1.208 . S
C596 O588 1.315 . S
C596 O591 1.279 . S
C597 O598 1.315 . S
C597 O599 1.279 . S
O598 Cd590 2.223 . S
O598 C597 1.315 . S
O599 Cd589 2.240 . S
O599 C597 1.279 . S
O600 Cd590 2.297 . S
O600 C595 1.247 . S
O601 Cd590 2.439 . S
O601 C595 1.208 . S
O602 Cd603 2.223 . S
O602 C610 1.315 . S
Cd603 O602 2.223 . S
Cd603 O606 2.297 . S
Cd603 O607 2.439 . S
Cd603 O613 2.240 . S
Cd604 O605 2.240 . S
Cd604 O612 2.223 . S
Cd604 O614 2.297 . S
Cd604 O615 2.439 . S
O605 Cd604 2.240 . S
O605 C610 1.279 . S
O606 Cd603 2.297 . S
O606 C608 1.247 . S
O607 Cd603 2.439 . S
O607 C608 1.208 . S
C608 O606 1.247 . S
C608 O607 1.208 . S
C609 O614 1.247 . S
C609 O615 1.208 . S
C610 O602 1.315 . S
C610 O605 1.279 . S
C611 O612 1.315 . S
C611 O613 1.279 . S
O612 Cd604 2.223 . S
O612 C611 1.315 . S
O613 Cd603 2.240 . S
O613 C611 1.279 . S
O614 Cd604 2.297 . S
O614 C609 1.247 . S
O615 Cd604 2.439 . S
O615 C609 1.208 . S
O616 Cd617 2.223 . S
O616 C624 1.315 . S
Cd617 O616 2.223 . S
Cd617 O620 2.297 . S
Cd617 O621 2.439 . S
Cd617 O627 2.240 . S
Cd618 O619 2.240 . S
Cd618 O626 2.223 . S
Cd618 O628 2.297 . S
Cd618 O629 2.439 . S
O619 Cd618 2.240 . S
O619 C624 1.279 . S
O620 Cd617 2.297 . S
O620 C622 1.247 . S
O621 Cd617 2.439 . S
O621 C622 1.208 . S
C622 O620 1.247 . S
C622 O621 1.208 . S
C623 O628 1.247 . S
C623 O629 1.208 . S
C624 O616 1.315 . S
C624 O619 1.279 . S
C625 O626 1.315 . S
C625 O627 1.279 . S
O626 Cd618 2.223 . S
O626 C625 1.315 . S
O627 Cd617 2.240 . S
O627 C625 1.279 . S
O628 Cd618 2.297 . S
O628 C623 1.247 . S
O629 Cd618 2.439 . S
O629 C623 1.208 . S
O630 Cd631 2.223 . S
O630 C638 1.315 . S
Cd631 O630 2.223 . S
Cd631 O634 2.297 . S
Cd631 O635 2.439 . S
Cd631 O641 2.240 . S
Cd632 O633 2.240 . S
Cd632 O640 2.223 . S
Cd632 O642 2.297 . S
Cd632 O643 2.439 . S
O633 Cd632 2.240 . S
O633 C638 1.279 . S
O634 Cd631 2.297 . S
O634 C636 1.247 . S
O635 Cd631 2.439 . S
O635 C636 1.208 . S
C636 O634 1.247 . S
C636 O635 1.208 . S
C637 O642 1.247 . S
C637 O643 1.208 . S
C638 O630 1.315 . S
C638 O633 1.279 . S
C639 O640 1.315 . S
C639 O641 1.279 . S
O640 Cd632 2.223 . S
O640 C639 1.315 . S
O641 Cd631 2.240 . S
O641 C639 1.279 . S
O642 Cd632 2.297 . S
O642 C637 1.247 . S
O643 Cd632 2.439 . S
O643 C637 1.208 . S
O644 Cd645 2.223 . S
O644 C652 1.315 . S
Cd645 O644 2.223 . S
Cd645 O648 2.297 . S
Cd645 O649 2.439 . S
Cd645 O655 2.240 . S
Cd646 O647 2.240 . S
Cd646 O654 2.223 . S
Cd646 O656 2.297 . S
Cd646 O657 2.439 . S
O647 Cd646 2.240 . S
O647 C652 1.279 . S
O648 Cd645 2.297 . S
O648 C650 1.247 . S
O649 Cd645 2.439 . S
O649 C650 1.208 . S
C650 O648 1.247 . S
C650 O649 1.208 . S
C651 O656 1.247 . S
C651 O657 1.208 . S
C652 O644 1.315 . S
C652 O647 1.279 . S
C653 O654 1.315 . S
C653 O655 1.279 . S
O654 Cd646 2.223 . S
O654 C653 1.315 . S
O655 Cd645 2.240 . S
O655 C653 1.279 . S
O656 Cd646 2.297 . S
O656 C651 1.247 . S
O657 Cd646 2.439 . S
O657 C651 1.208 . S
O658 Cd659 2.223 . S
O658 C666 1.315 . S
Cd659 O658 2.223 . S
Cd659 O662 2.297 . S
Cd659 O663 2.439 . S
Cd659 O669 2.240 . S
Cd660 O661 2.240 . S
Cd660 O668 2.223 . S
Cd660 O670 2.297 . S
Cd660 O671 2.439 . S
O661 Cd660 2.240 . S
O661 C666 1.279 . S
O662 Cd659 2.297 . S
O662 C664 1.247 . S
O663 Cd659 2.439 . S
O663 C664 1.208 . S
C664 O662 1.247 . S
C664 O663 1.208 . S
C665 O670 1.247 . S
C665 O671 1.208 . S
C666 O658 1.315 . S
C666 O661 1.279 . S
C667 O668 1.315 . S
C667 O669 1.279 . S
O668 Cd660 2.223 . S
O668 C667 1.315 . S
O669 Cd659 2.240 . S
O669 C667 1.279 . S
O670 Cd660 2.297 . S
O670 C665 1.247 . S
O671 Cd660 2.439 . S
O671 C665 1.208 . S
C672 C673 1.363 . S
C672 C678 1.379 . S
C672 N680 1.356 . S
C673 C672 1.363 . S
C673 C679 1.363 . S
C674 C675 1.363 . S
C674 C679 1.379 . S
C674 N681 1.356 . S
C675 C674 1.363 . S
C675 C678 1.363 . S
N676 C678 1.356 . S
N676 H688 0.984 . S
N676 H689 0.985 . S
N677 C679 1.356 . S
N677 H682 0.984 . S
N677 H683 0.985 . S
C678 C672 1.379 . S
C678 C675 1.363 . S
C678 N676 1.356 . S
C679 C673 1.363 . S
C679 C674 1.379 . S
C679 N677 1.356 . S
N680 C672 1.356 . S
N680 H686 0.984 . S
N680 H687 0.984 . S
N681 C674 1.356 . S
N681 H684 0.984 . S
N681 H685 0.985 . S
H682 N677 0.984 . S
H683 N677 0.985 . S
H684 N681 0.984 . S
H685 N681 0.985 . S
H686 N680 0.984 . S
H687 N680 0.984 . S
H688 N676 0.984 . S
H689 N676 0.985 . S
C690 C691 1.363 . S
C690 C696 1.379 1_455 S
C690 N698 1.356 . S
C691 C690 1.363 . S
C691 C697 1.363 . S
C692 C693 1.363 . S
C692 C697 1.379 1_655 S
C692 N699 1.356 . S
C693 C692 1.363 . S
C693 C696 1.363 . S
N694 C696 1.356 . S
N694 H706 0.984 . S
N694 H707 0.985 . S
N695 C697 1.356 . S
N695 H700 0.984 . S
N695 H701 0.985 . S
C696 C690 1.379 1_655 S
C696 C693 1.363 . S
C696 N694 1.356 . S
C697 C691 1.363 . S
C697 C692 1.379 1_455 S
C697 N695 1.356 . S
N698 C690 1.356 . S
N698 H704 0.984 . S
N698 H705 0.984 . S
N699 C692 1.356 . S
N699 H702 0.984 . S
N699 H703 0.985 . S
H700 N695 0.984 . S
H701 N695 0.985 . S
H702 N699 0.984 . S
H703 N699 0.985 . S
H704 N698 0.984 . S
H705 N698 0.984 . S
H706 N694 0.984 . S
H707 N694 0.985 . S
C708 C709 1.363 . S
C708 C714 1.379 . S
C708 N716 1.356 . S
C709 C708 1.363 . S
C709 C715 1.363 . S
C710 C711 1.363 . S
C710 C715 1.379 . S
C710 N717 1.356 . S
C711 C710 1.363 . S
C711 C714 1.363 . S
N712 C714 1.356 . S
N712 H724 0.984 . S
N712 H725 0.985 . S
N713 C715 1.356 . S
N713 H718 0.984 . S
N713 H719 0.985 . S
C714 C708 1.379 . S
C714 C711 1.363 . S
C714 N712 1.356 . S
C715 C709 1.363 . S
C715 C710 1.379 . S
C715 N713 1.356 . S
N716 C708 1.356 . S
N716 H722 0.984 . S
N716 H723 0.984 . S
N717 C710 1.356 . S
N717 H720 0.984 . S
N717 H721 0.985 . S
H718 N713 0.984 . S
H719 N713 0.985 . S
H720 N717 0.984 . S
H721 N717 0.985 . S
H722 N716 0.984 . S
H723 N716 0.984 . S
H724 N712 0.984 . S
H725 N712 0.985 . S
C726 C727 1.363 . S
C726 C732 1.379 . S
C726 N734 1.356 . S
C727 C726 1.363 . S
C727 C733 1.363 . S
C728 C729 1.363 . S
C728 C733 1.379 . S
C728 N735 1.356 . S
C729 C728 1.363 . S
C729 C732 1.363 . S
N730 C732 1.356 . S
N730 H742 0.984 . S
N730 H743 0.985 . S
N731 C733 1.356 . S
N731 H736 0.984 . S
N731 H737 0.985 . S
C732 C726 1.379 . S
C732 C729 1.363 . S
C732 N730 1.356 . S
C733 C727 1.363 . S
C733 C728 1.379 . S
C733 N731 1.356 . S
N734 C726 1.356 . S
N734 H740 0.984 . S
N734 H741 0.984 . S
N735 C728 1.356 . S
N735 H738 0.984 . S
N735 H739 0.985 . S
H736 N731 0.984 . S
H737 N731 0.985 . S
H738 N735 0.984 . S
H739 N735 0.985 . S
H740 N734 0.984 . S
H741 N734 0.984 . S
H742 N730 0.984 . S
H743 N730 0.985 . S
C744 C745 1.363 . S
C744 C750 1.379 . S
C744 N752 1.356 . S
C745 C744 1.363 . S
C745 C751 1.363 . S
C746 C747 1.363 . S
C746 C751 1.379 . S
C746 N753 1.356 . S
C747 C746 1.363 . S
C747 C750 1.363 . S
N748 C750 1.356 . S
N748 H760 0.984 . S
N748 H761 0.985 . S
N749 C751 1.356 . S
N749 H754 0.984 . S
N749 H755 0.985 . S
C750 C744 1.379 . S
C750 C747 1.363 . S
C750 N748 1.356 . S
C751 C745 1.363 . S
C751 C746 1.379 . S
C751 N749 1.356 . S
N752 C744 1.356 . S
N752 H758 0.984 . S
N752 H759 0.984 . S
N753 C746 1.356 . S
N753 H756 0.984 . S
N753 H757 0.985 . S
H754 N749 0.984 . S
H755 N749 0.985 . S
H756 N753 0.984 . S
H757 N753 0.985 . S
H758 N752 0.984 . S
H759 N752 0.984 . S
H760 N748 0.984 . S
H761 N748 0.985 . S
C762 C763 1.363 . S
C762 C768 1.379 . S
C762 N770 1.356 . S
C763 C762 1.363 . S
C763 C769 1.363 . S
C764 C765 1.363 . S
C764 C769 1.379 . S
C764 N771 1.356 . S
C765 C764 1.363 . S
C765 C768 1.363 . S
N766 C768 1.356 . S
N766 H778 0.984 . S
N766 H779 0.985 . S
N767 C769 1.356 . S
N767 H772 0.984 . S
N767 H773 0.985 . S
C768 C762 1.379 . S
C768 C765 1.363 . S
C768 N766 1.356 . S
C769 C763 1.363 . S
C769 C764 1.379 . S
C769 N767 1.356 . S
N770 C762 1.356 . S
N770 H776 0.984 . S
N770 H777 0.984 . S
N771 C764 1.356 . S
N771 H774 0.984 . S
N771 H775 0.985 . S
H772 N767 0.984 . S
H773 N767 0.985 . S
H774 N771 0.984 . S
H775 N771 0.985 . S
H776 N770 0.984 . S
H777 N770 0.984 . S
H778 N766 0.984 . S
H779 N766 0.985 . S
C780 C781 1.363 . S
C780 C786 1.379 . S
C780 N788 1.356 . S
C781 C780 1.363 . S
C781 C787 1.363 . S
C782 C783 1.363 . S
C782 C787 1.379 . S
C782 N789 1.356 . S
C783 C782 1.363 . S
C783 C786 1.363 . S
N784 C786 1.356 . S
N784 H796 0.984 . S
N784 H797 0.985 . S
N785 C787 1.356 . S
N785 H790 0.984 . S
N785 H791 0.985 . S
C786 C780 1.379 . S
C786 C783 1.363 . S
C786 N784 1.356 . S
C787 C781 1.363 . S
C787 C782 1.379 . S
C787 N785 1.356 . S
N788 C780 1.356 . S
N788 H794 0.984 . S
N788 H795 0.984 . S
N789 C782 1.356 . S
N789 H792 0.984 . S
N789 H793 0.985 . S
H790 N785 0.984 . S
H791 N785 0.985 . S
H792 N789 0.984 . S
H793 N789 0.985 . S
H794 N788 0.984 . S
H795 N788 0.984 . S
H796 N784 0.984 . S
H797 N784 0.985 . S
C798 C799 1.363 1_655 S
C798 C804 1.379 . S
C798 N806 1.356 1_655 S
C799 C798 1.363 1_455 S
C799 C805 1.363 1_455 S
C800 C801 1.363 . S
C800 C805 1.379 . S
C800 N807 1.356 . S
C801 C800 1.363 . S
C801 C804 1.363 . S
N802 C804 1.356 . S
N802 H814 0.984 . S
N802 H815 0.985 . S
N803 C805 1.356 1_455 S
N803 H808 0.984 . S
N803 H809 0.985 . S
C804 C798 1.379 . S
C804 C801 1.363 . S
C804 N802 1.356 . S
C805 C799 1.363 1_655 S
C805 C800 1.379 . S
C805 N803 1.356 1_655 S
N806 C798 1.356 1_455 S
N806 H812 0.984 . S
N806 H813 0.984 . S
N807 C800 1.356 . S
N807 H810 0.984 . S
N807 H811 0.985 . S
H808 N803 0.984 . S
H809 N803 0.985 . S
H810 N807 0.984 . S
H811 N807 0.985 . S
H812 N806 0.984 . S
H813 N806 0.984 . S
H814 N802 0.984 . S
H815 N802 0.985 . S
C816 C817 1.363 . S
C816 C822 1.379 . S
C816 N824 1.356 . S
C817 C816 1.363 . S
C817 C823 1.363 . S
C818 C819 1.363 . S
C818 C823 1.379 . S
C818 N825 1.356 . S
C819 C818 1.363 . S
C819 C822 1.363 . S
N820 C822 1.356 . S
N820 H832 0.984 . S
N820 H833 0.985 . S
N821 C823 1.356 . S
N821 H826 0.984 . S
N821 H827 0.985 . S
C822 C816 1.379 . S
C822 C819 1.363 . S
C822 N820 1.356 . S
C823 C817 1.363 . S
C823 C818 1.379 . S
C823 N821 1.356 . S
N824 C816 1.356 . S
N824 H830 0.984 . S
N824 H831 0.984 . S
N825 C818 1.356 . S
N825 H828 0.984 . S
N825 H829 0.985 . S
H826 N821 0.984 . S
H827 N821 0.985 . S
H828 N825 0.984 . S
H829 N825 0.985 . S
H830 N824 0.984 . S
H831 N824 0.984 . S
H832 N820 0.984 . S
H833 N820 0.985 . S
C834 C835 1.363 . S
C834 C840 1.379 . S
C834 N842 1.356 . S
C835 C834 1.363 . S
C835 C841 1.363 . S
C836 C837 1.363 . S
C836 C841 1.379 . S
C836 N843 1.356 . S
C837 C836 1.363 . S
C837 C840 1.363 . S
N838 C840 1.356 . S
N838 H850 0.984 . S
N838 H851 0.985 . S
N839 C841 1.356 . S
N839 H844 0.984 . S
N839 H845 0.985 . S
C840 C834 1.379 . S
C840 C837 1.363 . S
C840 N838 1.356 . S
C841 C835 1.363 . S
C841 C836 1.379 . S
C841 N839 1.356 . S
N842 C834 1.356 . S
N842 H848 0.984 . S
N842 H849 0.984 . S
N843 C836 1.356 . S
N843 H846 0.984 . S
N843 H847 0.985 . S
H844 N839 0.984 . S
H845 N839 0.985 . S
H846 N843 0.984 . S
H847 N843 0.985 . S
H848 N842 0.984 . S
H849 N842 0.984 . S
H850 N838 0.984 . S
H851 N838 0.985 . S
C852 C853 1.363 . S
C852 C858 1.379 . S
C852 N860 1.356 . S
C853 C852 1.363 . S
C853 C859 1.363 . S
C854 C855 1.363 . S
C854 C859 1.379 . S
C854 N861 1.356 . S
C855 C854 1.363 . S
C855 C858 1.363 . S
N856 C858 1.356 . S
N856 H868 0.984 . S
N856 H869 0.985 . S
N857 C859 1.356 . S
N857 H862 0.984 . S
N857 H863 0.985 . S
C858 C852 1.379 . S
C858 C855 1.363 . S
C858 N856 1.356 . S
C859 C853 1.363 . S
C859 C854 1.379 . S
C859 N857 1.356 . S
N860 C852 1.356 . S
N860 H866 0.984 . S
N860 H867 0.984 . S
N861 C854 1.356 . S
N861 H864 0.984 . S
N861 H865 0.985 . S
H862 N857 0.984 . S
H863 N857 0.985 . S
H864 N861 0.984 . S
H865 N861 0.985 . S
H866 N860 0.984 . S
H867 N860 0.984 . S
H868 N856 0.984 . S
H869 N856 0.985 . S
C870 C871 1.363 . S
C870 C876 1.379 1_556 S
C870 N878 1.356 . S
C871 C870 1.363 . S
C871 C877 1.363 . S
C872 C873 1.363 . S
C872 C877 1.379 1_554 S
C872 N879 1.356 . S
C873 C872 1.363 . S
C873 C876 1.363 . S
N874 C876 1.356 . S
N874 H886 0.984 . S
N874 H887 0.985 . S
N875 C877 1.356 . S
N875 H880 0.984 . S
N875 H881 0.985 . S
C876 C870 1.379 1_554 S
C876 C873 1.363 . S
C876 N874 1.356 . S
C877 C871 1.363 . S
C877 C872 1.379 1_556 S
C877 N875 1.356 . S
N878 C870 1.356 . S
N878 H884 0.984 . S
N878 H885 0.984 . S
N879 C872 1.356 . S
N879 H882 0.984 . S
N879 H883 0.985 . S
H880 N875 0.984 . S
H881 N875 0.985 . S
H882 N879 0.984 . S
H883 N879 0.985 . S
H884 N878 0.984 . S
H885 N878 0.984 . S
H886 N874 0.984 . S
H887 N874 0.985 . S
C888 C889 1.363 . S
C888 C894 1.379 . S
C888 N896 1.356 . S
C889 C888 1.363 . S
C889 C895 1.363 . S
C890 C891 1.363 . S
C890 C895 1.379 . S
C890 N897 1.356 . S
C891 C890 1.363 . S
C891 C894 1.363 . S
N892 C894 1.356 . S
N892 H904 0.984 . S
N892 H905 0.985 . S
N893 C895 1.356 . S
N893 H898 0.984 . S
N893 H899 0.985 . S
C894 C888 1.379 . S
C894 C891 1.363 . S
C894 N892 1.356 . S
C895 C889 1.363 . S
C895 C890 1.379 . S
C895 N893 1.356 . S
N896 C888 1.356 . S
N896 H902 0.984 . S
N896 H903 0.984 . S
N897 C890 1.356 . S
N897 H900 0.984 . S
N897 H901 0.985 . S
H898 N893 0.984 . S
H899 N893 0.985 . S
H900 N897 0.984 . S
H901 N897 0.985 . S
H902 N896 0.984 . S
H903 N896 0.984 . S
H904 N892 0.984 . S
H905 N892 0.985 . S
C906 C907 1.363 . S
C906 C912 1.379 . S
C906 N914 1.356 . S
C907 C906 1.363 . S
C907 C913 1.363 . S
C908 C909 1.363 . S
C908 C913 1.379 . S
C908 N915 1.356 . S
C909 C908 1.363 . S
C909 C912 1.363 . S
N910 C912 1.356 . S
N910 H922 0.984 . S
N910 H923 0.985 . S
N911 C913 1.356 . S
N911 H916 0.984 . S
N911 H917 0.985 . S
C912 C906 1.379 . S
C912 C909 1.363 . S
C912 N910 1.356 . S
C913 C907 1.363 . S
C913 C908 1.379 . S
C913 N911 1.356 . S
N914 C906 1.356 . S
N914 H920 0.984 . S
N914 H921 0.984 . S
N915 C908 1.356 . S
N915 H918 0.984 . S
N915 H919 0.985 . S
H916 N911 0.984 . S
H917 N911 0.985 . S
H918 N915 0.984 . S
H919 N915 0.985 . S
H920 N914 0.984 . S
H921 N914 0.984 . S
H922 N910 0.984 . S
H923 N910 0.985 . S
C924 C925 1.363 . S
C924 C930 1.379 . S
C924 N932 1.356 . S
C925 C924 1.363 . S
C925 C931 1.363 . S
C926 C927 1.363 . S
C926 C931 1.379 . S
C926 N933 1.356 . S
C927 C926 1.363 . S
C927 C930 1.363 . S
N928 C930 1.356 . S
N928 H940 0.984 . S
N928 H941 0.985 . S
N929 C931 1.356 . S
N929 H934 0.984 . S
N929 H935 0.985 . S
C930 C924 1.379 . S
C930 C927 1.363 . S
C930 N928 1.356 . S
C931 C925 1.363 . S
C931 C926 1.379 . S
C931 N929 1.356 . S
N932 C924 1.356 . S
N932 H938 0.984 . S
N932 H939 0.984 . S
N933 C926 1.356 . S
N933 H936 0.984 . S
N933 H937 0.985 . S
H934 N929 0.984 . S
H935 N929 0.985 . S
H936 N933 0.984 . S
H937 N933 0.985 . S
H938 N932 0.984 . S
H939 N932 0.984 . S
H940 N928 0.984 . S
H941 N928 0.985 . S
C942 C943 1.363 . S
C942 C948 1.379 1_554 S
C942 N950 1.356 . S
C943 C942 1.363 . S
C943 C949 1.363 . S
C944 C945 1.363 . S
C944 C949 1.379 1_556 S
C944 N951 1.356 . S
C945 C944 1.363 . S
C945 C948 1.363 . S
N946 C948 1.356 . S
N946 H958 0.984 . S
N946 H959 0.985 . S
N947 C949 1.356 . S
N947 H952 0.984 . S
N947 H953 0.985 . S
C948 C942 1.379 1_556 S
C948 C945 1.363 . S
C948 N946 1.356 . S
C949 C943 1.363 . S
C949 C944 1.379 1_554 S
C949 N947 1.356 . S
N950 C942 1.356 . S
N950 H956 0.984 . S
N950 H957 0.984 . S
N951 C944 1.356 . S
N951 H954 0.984 . S
N951 H955 0.985 . S
H952 N947 0.984 . S
H953 N947 0.985 . S
H954 N951 0.984 . S
H955 N951 0.985 . S
H956 N950 0.984 . S
H957 N950 0.984 . S
H958 N946 0.984 . S
H959 N946 0.985 . S
C960 C961 1.363 . S
C960 C966 1.379 . S
C960 N968 1.356 . S
C961 C960 1.363 . S
C961 C967 1.363 . S
C962 C963 1.363 . S
C962 C967 1.379 . S
C962 N969 1.356 . S
C963 C962 1.363 . S
C963 C966 1.363 . S
N964 C966 1.356 . S
N964 H976 0.984 . S
N964 H977 0.985 . S
N965 C967 1.356 . S
N965 H970 0.984 . S
N965 H971 0.985 . S
C966 C960 1.379 . S
C966 C963 1.363 . S
C966 N964 1.356 . S
C967 C961 1.363 . S
C967 C962 1.379 . S
C967 N965 1.356 . S
N968 C960 1.356 . S
N968 H974 0.984 . S
N968 H975 0.984 . S
N969 C962 1.356 . S
N969 H972 0.984 . S
N969 H973 0.985 . S
H970 N965 0.984 . S
H971 N965 0.985 . S
H972 N969 0.984 . S
H973 N969 0.985 . S
H974 N968 0.984 . S
H975 N968 0.984 . S
H976 N964 0.984 . S
H977 N964 0.985 . S
C978 C979 1.363 . S
C978 C984 1.379 . S
C978 N986 1.356 . S
C979 C978 1.363 . S
C979 C985 1.363 . S
C980 C981 1.363 . S
C980 C985 1.379 . S
C980 N987 1.356 . S
C981 C980 1.363 . S
C981 C984 1.363 . S
N982 C984 1.356 . S
N982 H994 0.984 . S
N982 H995 0.985 . S
N983 C985 1.356 . S
N983 H988 0.984 . S
N983 H989 0.985 . S
C984 C978 1.379 . S
C984 C981 1.363 . S
C984 N982 1.356 . S
C985 C979 1.363 . S
C985 C980 1.379 . S
C985 N983 1.356 . S
N986 C978 1.356 . S
N986 H992 0.984 . S
N986 H993 0.984 . S
N987 C980 1.356 . S
N987 H990 0.984 . S
N987 H991 0.985 . S
H988 N983 0.984 . S
H989 N983 0.985 . S
H990 N987 0.984 . S
H991 N987 0.985 . S
H992 N986 0.984 . S
H993 N986 0.984 . S
H994 N982 0.984 . S
H995 N982 0.985 . S
C996 C997 1.363 . S
C996 C1002 1.379 . S
C996 N1004 1.356 . S
C997 C996 1.363 . S
C997 C1003 1.363 . S
C998 C999 1.363 . S
C998 C1003 1.379 . S
C998 N1005 1.356 . S
C999 C998 1.363 . S
C999 C1002 1.363 . S
N1000 C1002 1.356 . S
N1000 H1012 0.984 . S
N1000 H1013 0.985 . S
N1001 C1003 1.356 . S
N1001 H1006 0.984 . S
N1001 H1007 0.985 . S
C1002 C996 1.379 . S
C1002 C999 1.363 . S
C1002 N1000 1.356 . S
C1003 C997 1.363 . S
C1003 C998 1.379 . S
C1003 N1001 1.356 . S
N1004 C996 1.356 . S
N1004 H1010 0.984 . S
N1004 H1011 0.984 . S
N1005 C998 1.356 . S
N1005 H1008 0.984 . S
N1005 H1009 0.985 . S
H1006 N1001 0.984 . S
H1007 N1001 0.985 . S
H1008 N1005 0.984 . S
H1009 N1005 0.985 . S
H1010 N1004 0.984 . S
H1011 N1004 0.984 . S
H1012 N1000 0.984 . S
H1013 N1000 0.985 . S
C1014 C1015 1.363 . S
C1014 C1020 1.379 . S
C1014 N1022 1.356 . S
C1015 C1014 1.363 . S
C1015 C1021 1.363 . S
C1016 C1017 1.363 . S
C1016 C1021 1.379 . S
C1016 N1023 1.356 . S
C1017 C1016 1.363 . S
C1017 C1020 1.363 . S
N1018 C1020 1.356 . S
N1018 H1030 0.984 . S
N1018 H1031 0.985 . S
N1019 C1021 1.356 . S
N1019 H1024 0.984 . S
N1019 H1025 0.985 . S
C1020 C1014 1.379 . S
C1020 C1017 1.363 . S
C1020 N1018 1.356 . S
C1021 C1015 1.363 . S
C1021 C1016 1.379 . S
C1021 N1019 1.356 . S
N1022 C1014 1.356 . S
N1022 H1028 0.984 . S
N1022 H1029 0.984 . S
N1023 C1016 1.356 . S
N1023 H1026 0.984 . S
N1023 H1027 0.985 . S
H1024 N1019 0.984 . S
H1025 N1019 0.985 . S
H1026 N1023 0.984 . S
H1027 N1023 0.985 . S
H1028 N1022 0.984 . S
H1029 N1022 0.984 . S
H1030 N1018 0.984 . S
H1031 N1018 0.985 . S
C1032 C1033 1.363 . S
C1032 C1038 1.379 . S
C1032 N1040 1.356 . S
C1033 C1032 1.363 . S
C1033 C1039 1.363 . S
C1034 C1035 1.363 . S
C1034 C1039 1.379 . S
C1034 N1041 1.356 . S
C1035 C1034 1.363 . S
C1035 C1038 1.363 . S
N1036 C1038 1.356 1_545 S
N1036 H1048 0.984 . S
N1036 H1049 0.985 . S
N1037 C1039 1.356 . S
N1037 H1042 0.984 . S
N1037 H1043 0.985 . S
C1038 C1032 1.379 . S
C1038 C1035 1.363 . S
C1038 N1036 1.356 1_565 S
C1039 C1033 1.363 . S
C1039 C1034 1.379 . S
C1039 N1037 1.356 . S
N1040 C1032 1.356 . S
N1040 H1046 0.984 . S
N1040 H1047 0.984 . S
N1041 C1034 1.356 . S
N1041 H1044 0.984 . S
N1041 H1045 0.985 . S
H1042 N1037 0.984 . S
H1043 N1037 0.985 . S
H1044 N1041 0.984 . S
H1045 N1041 0.985 . S
H1046 N1040 0.984 . S
H1047 N1040 0.984 . S
H1048 N1036 0.984 . S
H1049 N1036 0.985 . S
C1050 C1051 1.363 . S
C1050 C1056 1.379 . S
C1050 N1058 1.356 . S
C1051 C1050 1.363 . S
C1051 C1057 1.363 . S
C1052 C1053 1.363 . S
C1052 C1057 1.379 . S
C1052 N1059 1.356 . S
C1053 C1052 1.363 . S
C1053 C1056 1.363 . S
N1054 C1056 1.356 . S
N1054 H1066 0.984 . S
N1054 H1067 0.985 . S
N1055 C1057 1.356 . S
N1055 H1060 0.984 . S
N1055 H1061 0.985 . S
C1056 C1050 1.379 . S
C1056 C1053 1.363 . S
C1056 N1054 1.356 . S
C1057 C1051 1.363 . S
C1057 C1052 1.379 . S
C1057 N1055 1.356 . S
N1058 C1050 1.356 . S
N1058 H1064 0.984 . S
N1058 H1065 0.984 . S
N1059 C1052 1.356 . S
N1059 H1062 0.984 . S
N1059 H1063 0.985 . S
H1060 N1055 0.984 . S
H1061 N1055 0.985 . S
H1062 N1059 0.984 . S
H1063 N1059 0.985 . S
H1064 N1058 0.984 . S
H1065 N1058 0.984 . S
H1066 N1054 0.984 . S
H1067 N1054 0.985 . S
C1068 C1069 1.363 . S
C1068 C1074 1.379 . S
C1068 N1076 1.356 . S
C1069 C1068 1.363 . S
C1069 C1075 1.363 . S
C1070 C1071 1.363 . S
C1070 C1075 1.379 . S
C1070 N1077 1.356 . S
C1071 C1070 1.363 . S
C1071 C1074 1.363 . S
N1072 C1074 1.356 . S
N1072 H1084 0.984 . S
N1072 H1085 0.985 . S
N1073 C1075 1.356 . S
N1073 H1078 0.984 . S
N1073 H1079 0.985 . S
C1074 C1068 1.379 . S
C1074 C1071 1.363 . S
C1074 N1072 1.356 . S
C1075 C1069 1.363 . S
C1075 C1070 1.379 . S
C1075 N1073 1.356 . S
N1076 C1068 1.356 . S
N1076 H1082 0.984 . S
N1076 H1083 0.984 . S
N1077 C1070 1.356 . S
N1077 H1080 0.984 . S
N1077 H1081 0.985 . S
H1078 N1073 0.984 . S
H1079 N1073 0.985 . S
H1080 N1077 0.984 . S
H1081 N1077 0.985 . S
H1082 N1076 0.984 . S
H1083 N1076 0.984 . S
H1084 N1072 0.984 . S
H1085 N1072 0.985 . S
C1086 C1087 1.363 . S
C1086 C1092 1.379 . S
C1086 N1094 1.356 . S
C1087 C1086 1.363 . S
C1087 C1093 1.363 . S
C1088 C1089 1.363 . S
C1088 C1093 1.379 . S
C1088 N1095 1.356 . S
C1089 C1088 1.363 . S
C1089 C1092 1.363 . S
N1090 C1092 1.356 . S
N1090 H1102 0.984 . S
N1090 H1103 0.985 . S
N1091 C1093 1.356 . S
N1091 H1096 0.984 . S
N1091 H1097 0.985 . S
C1092 C1086 1.379 . S
C1092 C1089 1.363 . S
C1092 N1090 1.356 . S
C1093 C1087 1.363 . S
C1093 C1088 1.379 . S
C1093 N1091 1.356 . S
N1094 C1086 1.356 . S
N1094 H1100 0.984 . S
N1094 H1101 0.984 . S
N1095 C1088 1.356 . S
N1095 H1098 0.984 . S
N1095 H1099 0.985 . S
H1096 N1091 0.984 . S
H1097 N1091 0.985 . S
H1098 N1095 0.984 . S
H1099 N1095 0.985 . S
H1100 N1094 0.984 . S
H1101 N1094 0.984 . S
H1102 N1090 0.984 . S
H1103 N1090 0.985 . S
C1104 C1105 1.363 . S
C1104 C1110 1.379 . S
C1104 N1112 1.356 . S
C1105 C1104 1.363 . S
C1105 C1111 1.363 . S
C1106 C1107 1.363 . S
C1106 C1111 1.379 . S
C1106 N1113 1.356 . S
C1107 C1106 1.363 . S
C1107 C1110 1.363 . S
N1108 C1110 1.356 . S
N1108 H1120 0.984 . S
N1108 H1121 0.985 . S
N1109 C1111 1.356 . S
N1109 H1114 0.984 . S
N1109 H1115 0.985 . S
C1110 C1104 1.379 . S
C1110 C1107 1.363 . S
C1110 N1108 1.356 . S
C1111 C1105 1.363 . S
C1111 C1106 1.379 . S
C1111 N1109 1.356 . S
N1112 C1104 1.356 . S
N1112 H1118 0.984 . S
N1112 H1119 0.984 . S
N1113 C1106 1.356 . S
N1113 H1116 0.984 . S
N1113 H1117 0.985 . S
H1114 N1109 0.984 . S
H1115 N1109 0.985 . S
H1116 N1113 0.984 . S
H1117 N1113 0.985 . S
H1118 N1112 0.984 . S
H1119 N1112 0.984 . S
H1120 N1108 0.984 . S
H1121 N1108 0.985 . S
C1122 C1123 1.363 . S
C1122 C1128 1.379 1_655 S
C1122 N1130 1.356 . S
C1123 C1122 1.363 . S
C1123 C1129 1.363 . S
C1124 C1125 1.363 . S
C1124 C1129 1.379 1_455 S
C1124 N1131 1.356 . S
C1125 C1124 1.363 . S
C1125 C1128 1.363 . S
N1126 C1128 1.356 . S
N1126 H1138 0.984 . S
N1126 H1139 0.985 . S
N1127 C1129 1.356 . S
N1127 H1132 0.984 . S
N1127 H1133 0.985 . S
C1128 C1122 1.379 1_455 S
C1128 C1125 1.363 . S
C1128 N1126 1.356 . S
C1129 C1123 1.363 . S
C1129 C1124 1.379 1_655 S
C1129 N1127 1.356 . S
N1130 C1122 1.356 . S
N1130 H1136 0.984 . S
N1130 H1137 0.984 . S
N1131 C1124 1.356 . S
N1131 H1134 0.984 . S
N1131 H1135 0.985 . S
H1132 N1127 0.984 . S
H1133 N1127 0.985 . S
H1134 N1131 0.984 . S
H1135 N1131 0.985 . S
H1136 N1130 0.984 . S
H1137 N1130 0.984 . S
H1138 N1126 0.984 . S
H1139 N1126 0.985 . S
C1140 C1141 1.363 . S
C1140 C1146 1.379 . S
C1140 N1148 1.356 . S
C1141 C1140 1.363 . S
C1141 C1147 1.363 . S
C1142 C1143 1.363 . S
C1142 C1147 1.379 . S
C1142 N1149 1.356 . S
C1143 C1142 1.363 . S
C1143 C1146 1.363 . S
N1144 C1146 1.356 . S
N1144 H1156 0.984 . S
N1144 H1157 0.985 . S
N1145 C1147 1.356 . S
N1145 H1150 0.984 . S
N1145 H1151 0.985 . S
C1146 C1140 1.379 . S
C1146 C1143 1.363 . S
C1146 N1144 1.356 . S
C1147 C1141 1.363 . S
C1147 C1142 1.379 . S
C1147 N1145 1.356 . S
N1148 C1140 1.356 . S
N1148 H1154 0.984 . S
N1148 H1155 0.984 . S
N1149 C1142 1.356 . S
N1149 H1152 0.984 . S
N1149 H1153 0.985 . S
H1150 N1145 0.984 . S
H1151 N1145 0.985 . S
H1152 N1149 0.984 . S
H1153 N1149 0.985 . S
H1154 N1148 0.984 . S
H1155 N1148 0.984 . S
H1156 N1144 0.984 . S
H1157 N1144 0.985 . S
C1158 C1159 1.363 . S
C1158 C1164 1.379 . S
C1158 N1166 1.356 . S
C1159 C1158 1.363 . S
C1159 C1165 1.363 . S
C1160 C1161 1.363 . S
C1160 C1165 1.379 . S
C1160 N1167 1.356 . S
C1161 C1160 1.363 . S
C1161 C1164 1.363 . S
N1162 C1164 1.356 . S
N1162 H1174 0.984 . S
N1162 H1175 0.985 . S
N1163 C1165 1.356 . S
N1163 H1168 0.984 . S
N1163 H1169 0.985 . S
C1164 C1158 1.379 . S
C1164 C1161 1.363 . S
C1164 N1162 1.356 . S
C1165 C1159 1.363 . S
C1165 C1160 1.379 . S
C1165 N1163 1.356 . S
N1166 C1158 1.356 . S
N1166 H1172 0.984 . S
N1166 H1173 0.984 . S
N1167 C1160 1.356 . S
N1167 H1170 0.984 . S
N1167 H1171 0.985 . S
H1168 N1163 0.984 . S
H1169 N1163 0.985 . S
H1170 N1167 0.984 . S
H1171 N1167 0.985 . S
H1172 N1166 0.984 . S
H1173 N1166 0.984 . S
H1174 N1162 0.984 . S
H1175 N1162 0.985 . S
C1176 C1177 1.363 . S
C1176 C1182 1.379 . S
C1176 N1184 1.356 . S
C1177 C1176 1.363 . S
C1177 C1183 1.363 . S
C1178 C1179 1.363 . S
C1178 C1183 1.379 . S
C1178 N1185 1.356 . S
C1179 C1178 1.363 . S
C1179 C1182 1.363 . S
N1180 C1182 1.356 . S
N1180 H1192 0.984 . S
N1180 H1193 0.985 . S
N1181 C1183 1.356 . S
N1181 H1186 0.984 . S
N1181 H1187 0.985 . S
C1182 C1176 1.379 . S
C1182 C1179 1.363 . S
C1182 N1180 1.356 . S
C1183 C1177 1.363 . S
C1183 C1178 1.379 . S
C1183 N1181 1.356 . S
N1184 C1176 1.356 . S
N1184 H1190 0.984 . S
N1184 H1191 0.984 . S
N1185 C1178 1.356 . S
N1185 H1188 0.984 . S
N1185 H1189 0.985 . S
H1186 N1181 0.984 . S
H1187 N1181 0.985 . S
H1188 N1185 0.984 . S
H1189 N1185 0.985 . S
H1190 N1184 0.984 . S
H1191 N1184 0.984 . S
H1192 N1180 0.984 . S
H1193 N1180 0.985 . S
C1194 C1195 1.363 . S
C1194 C1200 1.379 . S
C1194 N1202 1.356 . S
C1195 C1194 1.363 . S
C1195 C1201 1.363 . S
C1196 C1197 1.363 . S
C1196 C1201 1.379 . S
C1196 N1203 1.356 . S
C1197 C1196 1.363 . S
C1197 C1200 1.363 . S
N1198 C1200 1.356 . S
N1198 H1210 0.984 . S
N1198 H1211 0.985 . S
N1199 C1201 1.356 . S
N1199 H1204 0.984 . S
N1199 H1205 0.985 . S
C1200 C1194 1.379 . S
C1200 C1197 1.363 . S
C1200 N1198 1.356 . S
C1201 C1195 1.363 . S
C1201 C1196 1.379 . S
C1201 N1199 1.356 . S
N1202 C1194 1.356 . S
N1202 H1208 0.984 . S
N1202 H1209 0.984 . S
N1203 C1196 1.356 . S
N1203 H1206 0.984 . S
N1203 H1207 0.985 . S
H1204 N1199 0.984 . S
H1205 N1199 0.985 . S
H1206 N1203 0.984 . S
H1207 N1203 0.985 . S
H1208 N1202 0.984 . S
H1209 N1202 0.984 . S
H1210 N1198 0.984 . S
H1211 N1198 0.985 . S
C1212 C1213 1.363 . S
C1212 C1218 1.379 . S
C1212 N1220 1.356 . S
C1213 C1212 1.363 . S
C1213 C1219 1.363 . S
C1214 C1215 1.363 . S
C1214 C1219 1.379 . S
C1214 N1221 1.356 . S
C1215 C1214 1.363 . S
C1215 C1218 1.363 . S
N1216 C1218 1.356 . S
N1216 H1228 0.984 . S
N1216 H1229 0.985 . S
N1217 C1219 1.356 . S
N1217 H1222 0.984 . S
N1217 H1223 0.985 . S
C1218 C1212 1.379 . S
C1218 C1215 1.363 . S
C1218 N1216 1.356 . S
C1219 C1213 1.363 . S
C1219 C1214 1.379 . S
C1219 N1217 1.356 . S
N1220 C1212 1.356 . S
N1220 H1226 0.984 . S
N1220 H1227 0.984 . S
N1221 C1214 1.356 . S
N1221 H1224 0.984 . S
N1221 H1225 0.985 . S
H1222 N1217 0.984 . S
H1223 N1217 0.985 . S
H1224 N1221 0.984 . S
H1225 N1221 0.985 . S
H1226 N1220 0.984 . S
H1227 N1220 0.984 . S
H1228 N1216 0.984 . S
H1229 N1216 0.985 . S
C1230 C1231 1.363 . S
C1230 C1236 1.379 . S
C1230 N1238 1.356 . S
C1231 C1230 1.363 . S
C1231 C1237 1.363 . S
C1232 C1233 1.363 1_455 S
C1232 C1237 1.379 . S
C1232 N1239 1.356 1_455 S
C1233 C1232 1.363 1_655 S
C1233 C1236 1.363 1_655 S
N1234 C1236 1.356 1_655 S
N1234 H1246 0.984 . S
N1234 H1247 0.985 . S
N1235 C1237 1.356 . S
N1235 H1240 0.984 . S
N1235 H1241 0.985 . S
C1236 C1230 1.379 . S
C1236 C1233 1.363 1_455 S
C1236 N1234 1.356 1_455 S
C1237 C1231 1.363 . S
C1237 C1232 1.379 . S
C1237 N1235 1.356 . S
N1238 C1230 1.356 . S
N1238 H1244 0.984 . S
N1238 H1245 0.984 . S
N1239 C1232 1.356 1_655 S
N1239 H1242 0.984 . S
N1239 H1243 0.985 . S
H1240 N1235 0.984 . S
H1241 N1235 0.985 . S
H1242 N1239 0.984 . S
H1243 N1239 0.985 . S
H1244 N1238 0.984 . S
H1245 N1238 0.984 . S
H1246 N1234 0.984 . S
H1247 N1234 0.985 . S
C1248 C1249 1.363 . S
C1248 C1254 1.379 . S
C1248 N1256 1.356 . S
C1249 C1248 1.363 . S
C1249 C1255 1.363 . S
C1250 C1251 1.363 . S
C1250 C1255 1.379 . S
C1250 N1257 1.356 . S
C1251 C1250 1.363 . S
C1251 C1254 1.363 . S
N1252 C1254 1.356 . S
N1252 H1264 0.984 . S
N1252 H1265 0.985 . S
N1253 C1255 1.356 . S
N1253 H1258 0.984 . S
N1253 H1259 0.985 . S
C1254 C1248 1.379 . S
C1254 C1251 1.363 . S
C1254 N1252 1.356 . S
C1255 C1249 1.363 . S
C1255 C1250 1.379 . S
C1255 N1253 1.356 . S
N1256 C1248 1.356 . S
N1256 H1262 0.984 . S
N1256 H1263 0.984 . S
N1257 C1250 1.356 . S
N1257 H1260 0.984 . S
N1257 H1261 0.985 . S
H1258 N1253 0.984 . S
H1259 N1253 0.985 . S
H1260 N1257 0.984 . S
H1261 N1257 0.985 . S
H1262 N1256 0.984 . S
H1263 N1256 0.984 . S
H1264 N1252 0.984 . S
H1265 N1252 0.985 . S
C1266 C1267 1.363 . S
C1266 C1272 1.379 . S
C1266 N1274 1.356 . S
C1267 C1266 1.363 . S
C1267 C1273 1.363 . S
C1268 C1269 1.363 . S
C1268 C1273 1.379 . S
C1268 N1275 1.356 . S
C1269 C1268 1.363 . S
C1269 C1272 1.363 . S
N1270 C1272 1.356 . S
N1270 H1282 0.984 . S
N1270 H1283 0.985 . S
N1271 C1273 1.356 . S
N1271 H1276 0.984 . S
N1271 H1277 0.985 . S
C1272 C1266 1.379 . S
C1272 C1269 1.363 . S
C1272 N1270 1.356 . S
C1273 C1267 1.363 . S
C1273 C1268 1.379 . S
C1273 N1271 1.356 . S
N1274 C1266 1.356 . S
N1274 H1280 0.984 . S
N1274 H1281 0.984 . S
N1275 C1268 1.356 . S
N1275 H1278 0.984 . S
N1275 H1279 0.985 . S
H1276 N1271 0.984 . S
H1277 N1271 0.985 . S
H1278 N1275 0.984 . S
H1279 N1275 0.985 . S
H1280 N1274 0.984 . S
H1281 N1274 0.984 . S
H1282 N1270 0.984 . S
H1283 N1270 0.985 . S
C1284 C1285 1.363 . S
C1284 C1290 1.379 . S
C1284 N1292 1.356 . S
C1285 C1284 1.363 . S
C1285 C1291 1.363 . S
C1286 C1287 1.363 . S
C1286 C1291 1.379 . S
C1286 N1293 1.356 . S
C1287 C1286 1.363 . S
C1287 C1290 1.363 . S
N1288 C1290 1.356 . S
N1288 H1300 0.984 . S
N1288 H1301 0.985 . S
N1289 C1291 1.356 . S
N1289 H1294 0.984 . S
N1289 H1295 0.985 . S
C1290 C1284 1.379 . S
C1290 C1287 1.363 . S
C1290 N1288 1.356 . S
C1291 C1285 1.363 . S
C1291 C1286 1.379 . S
C1291 N1289 1.356 . S
N1292 C1284 1.356 . S
N1292 H1298 0.984 . S
N1292 H1299 0.984 . S
N1293 C1286 1.356 . S
N1293 H1296 0.984 . S
N1293 H1297 0.985 . S
H1294 N1289 0.984 . S
H1295 N1289 0.985 . S
H1296 N1293 0.984 . S
H1297 N1293 0.985 . S
H1298 N1292 0.984 . S
H1299 N1292 0.984 . S
H1300 N1288 0.984 . S
H1301 N1288 0.985 . S
C1302 C1303 1.363 . S
C1302 C1308 1.379 1_556 S
C1302 N1310 1.356 . S
C1303 C1302 1.363 . S
C1303 C1309 1.363 . S
C1304 C1305 1.363 . S
C1304 C1309 1.379 1_554 S
C1304 N1311 1.356 . S
C1305 C1304 1.363 . S
C1305 C1308 1.363 . S
N1306 C1308 1.356 . S
N1306 H1318 0.984 . S
N1306 H1319 0.985 . S
N1307 C1309 1.356 . S
N1307 H1312 0.984 . S
N1307 H1313 0.985 . S
C1308 C1302 1.379 1_554 S
C1308 C1305 1.363 . S
C1308 N1306 1.356 . S
C1309 C1303 1.363 . S
C1309 C1304 1.379 1_556 S
C1309 N1307 1.356 . S
N1310 C1302 1.356 . S
N1310 H1316 0.984 . S
N1310 H1317 0.984 . S
N1311 C1304 1.356 . S
N1311 H1314 0.984 . S
N1311 H1315 0.985 . S
H1312 N1307 0.984 . S
H1313 N1307 0.985 . S
H1314 N1311 0.984 . S
H1315 N1311 0.985 . S
H1316 N1310 0.984 . S
H1317 N1310 0.984 . S
H1318 N1306 0.984 . S
H1319 N1306 0.985 . S
C1320 C1321 1.363 . S
C1320 C1326 1.379 . S
C1320 N1328 1.356 . S
C1321 C1320 1.363 . S
C1321 C1327 1.363 . S
C1322 C1323 1.363 . S
C1322 C1327 1.379 . S
C1322 N1329 1.356 . S
C1323 C1322 1.363 . S
C1323 C1326 1.363 . S
N1324 C1326 1.356 . S
N1324 H1336 0.984 . S
N1324 H1337 0.985 . S
N1325 C1327 1.356 . S
N1325 H1330 0.984 . S
N1325 H1331 0.985 . S
C1326 C1320 1.379 . S
C1326 C1323 1.363 . S
C1326 N1324 1.356 . S
C1327 C1321 1.363 . S
C1327 C1322 1.379 . S
C1327 N1325 1.356 . S
N1328 C1320 1.356 . S
N1328 H1334 0.984 . S
N1328 H1335 0.984 . S
N1329 C1322 1.356 . S
N1329 H1332 0.984 . S
N1329 H1333 0.985 . S
H1330 N1325 0.984 . S
H1331 N1325 0.985 . S
H1332 N1329 0.984 . S
H1333 N1329 0.985 . S
H1334 N1328 0.984 . S
H1335 N1328 0.984 . S
H1336 N1324 0.984 . S
H1337 N1324 0.985 . S
C1338 C1339 1.363 . S
C1338 C1344 1.379 . S
C1338 N1346 1.356 . S
C1339 C1338 1.363 . S
C1339 C1345 1.363 . S
C1340 C1341 1.363 . S
C1340 C1345 1.379 . S
C1340 N1347 1.356 . S
C1341 C1340 1.363 . S
C1341 C1344 1.363 . S
N1342 C1344 1.356 . S
N1342 H1354 0.984 . S
N1342 H1355 0.985 . S
N1343 C1345 1.356 . S
N1343 H1348 0.984 . S
N1343 H1349 0.985 . S
C1344 C1338 1.379 . S
C1344 C1341 1.363 . S
C1344 N1342 1.356 . S
C1345 C1339 1.363 . S
C1345 C1340 1.379 . S
C1345 N1343 1.356 . S
N1346 C1338 1.356 . S
N1346 H1352 0.984 . S
N1346 H1353 0.984 . S
N1347 C1340 1.356 . S
N1347 H1350 0.984 . S
N1347 H1351 0.985 . S
H1348 N1343 0.984 . S
H1349 N1343 0.985 . S
H1350 N1347 0.984 . S
H1351 N1347 0.985 . S
H1352 N1346 0.984 . S
H1353 N1346 0.984 . S
H1354 N1342 0.984 . S
H1355 N1342 0.985 . S
C1356 C1357 1.363 . S
C1356 C1362 1.379 . S
C1356 N1364 1.356 . S
C1357 C1356 1.363 . S
C1357 C1363 1.363 . S
C1358 C1359 1.363 . S
C1358 C1363 1.379 . S
C1358 N1365 1.356 . S
C1359 C1358 1.363 . S
C1359 C1362 1.363 . S
N1360 C1362 1.356 . S
N1360 H1372 0.984 . S
N1360 H1373 0.985 . S
N1361 C1363 1.356 . S
N1361 H1366 0.984 . S
N1361 H1367 0.985 . S
C1362 C1356 1.379 . S
C1362 C1359 1.363 . S
C1362 N1360 1.356 . S
C1363 C1357 1.363 . S
C1363 C1358 1.379 . S
C1363 N1361 1.356 . S
N1364 C1356 1.356 . S
N1364 H1370 0.984 . S
N1364 H1371 0.984 . S
N1365 C1358 1.356 . S
N1365 H1368 0.984 . S
N1365 H1369 0.985 . S
H1366 N1361 0.984 . S
H1367 N1361 0.985 . S
H1368 N1365 0.984 . S
H1369 N1365 0.985 . S
H1370 N1364 0.984 . S
H1371 N1364 0.984 . S
H1372 N1360 0.984 . S
H1373 N1360 0.985 . S
C1374 C1375 1.363 . S
C1374 C1380 1.379 1_556 S
C1374 N1382 1.356 . S
C1375 C1374 1.363 . S
C1375 C1381 1.363 . S
C1376 C1377 1.363 . S
C1376 C1381 1.379 1_554 S
C1376 N1383 1.356 . S
C1377 C1376 1.363 . S
C1377 C1380 1.363 . S
N1378 C1380 1.356 . S
N1378 H1390 0.984 . S
N1378 H1391 0.985 . S
N1379 C1381 1.356 . S
N1379 H1384 0.984 . S
N1379 H1385 0.985 . S
C1380 C1374 1.379 1_554 S
C1380 C1377 1.363 . S
C1380 N1378 1.356 . S
C1381 C1375 1.363 . S
C1381 C1376 1.379 1_556 S
C1381 N1379 1.356 . S
N1382 C1374 1.356 . S
N1382 H1388 0.984 . S
N1382 H1389 0.984 . S
N1383 C1376 1.356 . S
N1383 H1386 0.984 . S
N1383 H1387 0.985 . S
H1384 N1379 0.984 . S
H1385 N1379 0.985 . S
H1386 N1383 0.984 . S
H1387 N1383 0.985 . S
H1388 N1382 0.984 . S
H1389 N1382 0.984 . S
H1390 N1378 0.984 . S
H1391 N1378 0.985 . S
C1392 C1393 1.363 . S
C1392 C1398 1.379 . S
C1392 N1400 1.356 . S
C1393 C1392 1.363 . S
C1393 C1399 1.363 . S
C1394 C1395 1.363 . S
C1394 C1399 1.379 . S
C1394 N1401 1.356 . S
C1395 C1394 1.363 . S
C1395 C1398 1.363 . S
N1396 C1398 1.356 . S
N1396 H1408 0.984 . S
N1396 H1409 0.985 . S
N1397 C1399 1.356 . S
N1397 H1402 0.984 . S
N1397 H1403 0.985 . S
C1398 C1392 1.379 . S
C1398 C1395 1.363 . S
C1398 N1396 1.356 . S
C1399 C1393 1.363 . S
C1399 C1394 1.379 . S
C1399 N1397 1.356 . S
N1400 C1392 1.356 . S
N1400 H1406 0.984 . S
N1400 H1407 0.984 . S
N1401 C1394 1.356 . S
N1401 H1404 0.984 . S
N1401 H1405 0.985 . S
H1402 N1397 0.984 . S
H1403 N1397 0.985 . S
H1404 N1401 0.984 . S
H1405 N1401 0.985 . S
H1406 N1400 0.984 . S
H1407 N1400 0.984 . S
H1408 N1396 0.984 . S
H1409 N1396 0.985 . S
C1410 C1411 1.363 . S
C1410 C1416 1.379 . S
C1410 N1418 1.356 . S
C1411 C1410 1.363 . S
C1411 C1417 1.363 . S
C1412 C1413 1.363 . S
C1412 C1417 1.379 . S
C1412 N1419 1.356 . S
C1413 C1412 1.363 . S
C1413 C1416 1.363 . S
N1414 C1416 1.356 . S
N1414 H1426 0.984 . S
N1414 H1427 0.985 . S
N1415 C1417 1.356 . S
N1415 H1420 0.984 . S
N1415 H1421 0.985 . S
C1416 C1410 1.379 . S
C1416 C1413 1.363 . S
C1416 N1414 1.356 . S
C1417 C1411 1.363 . S
C1417 C1412 1.379 . S
C1417 N1415 1.356 . S
N1418 C1410 1.356 . S
N1418 H1424 0.984 . S
N1418 H1425 0.984 . S
N1419 C1412 1.356 . S
N1419 H1422 0.984 . S
N1419 H1423 0.985 . S
H1420 N1415 0.984 . S
H1421 N1415 0.985 . S
H1422 N1419 0.984 . S
H1423 N1419 0.985 . S
H1424 N1418 0.984 . S
H1425 N1418 0.984 . S
H1426 N1414 0.984 . S
H1427 N1414 0.985 . S
C1428 C1429 1.363 . S
C1428 C1434 1.379 . S
C1428 N1436 1.356 . S
C1429 C1428 1.363 . S
C1429 C1435 1.363 . S
C1430 C1431 1.363 . S
C1430 C1435 1.379 . S
C1430 N1437 1.356 . S
C1431 C1430 1.363 . S
C1431 C1434 1.363 . S
N1432 C1434 1.356 . S
N1432 H1444 0.984 . S
N1432 H1445 0.985 . S
N1433 C1435 1.356 . S
N1433 H1438 0.984 . S
N1433 H1439 0.985 . S
C1434 C1428 1.379 . S
C1434 C1431 1.363 . S
C1434 N1432 1.356 . S
C1435 C1429 1.363 . S
C1435 C1430 1.379 . S
C1435 N1433 1.356 . S
N1436 C1428 1.356 . S
N1436 H1442 0.984 . S
N1436 H1443 0.984 . S
N1437 C1430 1.356 . S
N1437 H1440 0.984 . S
N1437 H1441 0.985 . S
H1438 N1433 0.984 . S
H1439 N1433 0.985 . S
H1440 N1437 0.984 . S
H1441 N1437 0.985 . S
H1442 N1436 0.984 . S
H1443 N1436 0.984 . S
H1444 N1432 0.984 . S
H1445 N1432 0.985 . S
C1446 C1447 1.363 . S
C1446 C1452 1.379 . S
C1446 N1454 1.356 . S
C1447 C1446 1.363 . S
C1447 C1453 1.363 . S
C1448 C1449 1.363 . S
C1448 C1453 1.379 . S
C1448 N1455 1.356 . S
C1449 C1448 1.363 . S
C1449 C1452 1.363 . S
N1450 C1452 1.356 . S
N1450 H1462 0.984 . S
N1450 H1463 0.985 . S
N1451 C1453 1.356 . S
N1451 H1456 0.984 . S
N1451 H1457 0.985 . S
C1452 C1446 1.379 . S
C1452 C1449 1.363 . S
C1452 N1450 1.356 . S
C1453 C1447 1.363 . S
C1453 C1448 1.379 . S
C1453 N1451 1.356 . S
N1454 C1446 1.356 . S
N1454 H1460 0.984 . S
N1454 H1461 0.984 . S
N1455 C1448 1.356 . S
N1455 H1458 0.984 . S
N1455 H1459 0.985 . S
H1456 N1451 0.984 . S
H1457 N1451 0.985 . S
H1458 N1455 0.984 . S
H1459 N1455 0.985 . S
H1460 N1454 0.984 . S
H1461 N1454 0.984 . S
H1462 N1450 0.984 . S
H1463 N1450 0.985 . S
C1464 C1465 1.363 . S
C1464 C1470 1.379 . S
C1464 N1472 1.356 . S
C1465 C1464 1.363 . S
C1465 C1471 1.363 . S
C1466 C1467 1.363 . S
C1466 C1471 1.379 . S
C1466 N1473 1.356 . S
C1467 C1466 1.363 . S
C1467 C1470 1.363 . S
N1468 C1470 1.356 . S
N1468 H1480 0.984 . S
N1468 H1481 0.985 . S
N1469 C1471 1.356 1_565 S
N1469 H1474 0.984 . S
N1469 H1475 0.985 . S
C1470 C1464 1.379 . S
C1470 C1467 1.363 . S
C1470 N1468 1.356 . S
C1471 C1465 1.363 . S
C1471 C1466 1.379 . S
C1471 N1469 1.356 1_545 S
N1472 C1464 1.356 . S
N1472 H1478 0.984 . S
N1472 H1479 0.984 . S
N1473 C1466 1.356 . S
N1473 H1476 0.984 . S
N1473 H1477 0.985 . S
H1474 N1469 0.984 . S
H1475 N1469 0.985 . S
H1476 N1473 0.984 . S
H1477 N1473 0.985 . S
H1478 N1472 0.984 . S
H1479 N1472 0.984 . S
H1480 N1468 0.984 . S
H1481 N1468 0.985 . S
C1482 C1483 1.363 . S
C1482 C1488 1.379 . S
C1482 N1490 1.356 . S
C1483 C1482 1.363 . S
C1483 C1489 1.363 . S
C1484 C1485 1.363 . S
C1484 C1489 1.379 . S
C1484 N1491 1.356 . S
C1485 C1484 1.363 . S
C1485 C1488 1.363 . S
N1486 C1488 1.356 . S
N1486 H1498 0.984 . S
N1486 H1499 0.985 . S
N1487 C1489 1.356 . S
N1487 H1492 0.984 . S
N1487 H1493 0.985 . S
C1488 C1482 1.379 . S
C1488 C1485 1.363 . S
C1488 N1486 1.356 . S
C1489 C1483 1.363 . S
C1489 C1484 1.379 . S
C1489 N1487 1.356 . S
N1490 C1482 1.356 . S
N1490 H1496 0.984 . S
N1490 H1497 0.984 . S
N1491 C1484 1.356 . S
N1491 H1494 0.984 . S
N1491 H1495 0.985 . S
H1492 N1487 0.984 . S
H1493 N1487 0.985 . S
H1494 N1491 0.984 . S
H1495 N1491 0.985 . S
H1496 N1490 0.984 . S
H1497 N1490 0.984 . S
H1498 N1486 0.984 . S
H1499 N1486 0.985 . S
C1500 C1501 1.363 . S
C1500 C1506 1.379 . S
C1500 N1508 1.356 . S
C1501 C1500 1.363 . S
C1501 C1507 1.363 . S
C1502 C1503 1.363 . S
C1502 C1507 1.379 . S
C1502 N1509 1.356 . S
C1503 C1502 1.363 . S
C1503 C1506 1.363 . S
N1504 C1506 1.356 . S
N1504 H1516 0.984 . S
N1504 H1517 0.985 . S
N1505 C1507 1.356 . S
N1505 H1510 0.984 . S
N1505 H1511 0.985 . S
C1506 C1500 1.379 . S
C1506 C1503 1.363 . S
C1506 N1504 1.356 . S
C1507 C1501 1.363 . S
C1507 C1502 1.379 . S
C1507 N1505 1.356 . S
N1508 C1500 1.356 . S
N1508 H1514 0.984 . S
N1508 H1515 0.984 . S
N1509 C1502 1.356 . S
N1509 H1512 0.984 . S
N1509 H1513 0.985 . S
H1510 N1505 0.984 . S
H1511 N1505 0.985 . S
H1512 N1509 0.984 . S
H1513 N1509 0.985 . S
H1514 N1508 0.984 . S
H1515 N1508 0.984 . S
H1516 N1504 0.984 . S
H1517 N1504 0.985 . S
C1518 C1519 1.363 . S
C1518 C1524 1.379 . S
C1518 N1526 1.356 . S
C1519 C1518 1.363 . S
C1519 C1525 1.363 . S
C1520 C1521 1.363 . S
C1520 C1525 1.379 . S
C1520 N1527 1.356 . S
C1521 C1520 1.363 . S
C1521 C1524 1.363 . S
N1522 C1524 1.356 . S
N1522 H1534 0.984 . S
N1522 H1535 0.985 . S
N1523 C1525 1.356 . S
N1523 H1528 0.984 . S
N1523 H1529 0.985 . S
C1524 C1518 1.379 . S
C1524 C1521 1.363 . S
C1524 N1522 1.356 . S
C1525 C1519 1.363 . S
C1525 C1520 1.379 . S
C1525 N1523 1.356 . S
N1526 C1518 1.356 . S
N1526 H1532 0.984 . S
N1526 H1533 0.984 . S
N1527 C1520 1.356 . S
N1527 H1530 0.984 . S
N1527 H1531 0.985 . S
H1528 N1523 0.984 . S
H1529 N1523 0.985 . S
H1530 N1527 0.984 . S
H1531 N1527 0.985 . S
H1532 N1526 0.984 . S
H1533 N1526 0.984 . S
H1534 N1522 0.984 . S
H1535 N1522 0.985 . S
C1536 C1537 1.363 . S
C1536 C1542 1.379 . S
C1536 N1544 1.356 . S
C1537 C1536 1.363 . S
C1537 C1543 1.363 . S
C1538 C1539 1.363 . S
C1538 C1543 1.379 . S
C1538 N1545 1.356 . S
C1539 C1538 1.363 . S
C1539 C1542 1.363 . S
N1540 C1542 1.356 . S
N1540 H1552 0.984 . S
N1540 H1553 0.985 . S
N1541 C1543 1.356 . S
N1541 H1546 0.984 . S
N1541 H1547 0.985 . S
C1542 C1536 1.379 . S
C1542 C1539 1.363 . S
C1542 N1540 1.356 . S
C1543 C1537 1.363 . S
C1543 C1538 1.379 . S
C1543 N1541 1.356 . S
N1544 C1536 1.356 . S
N1544 H1550 0.984 . S
N1544 H1551 0.984 . S
N1545 C1538 1.356 . S
N1545 H1548 0.984 . S
N1545 H1549 0.985 . S
H1546 N1541 0.984 . S
H1547 N1541 0.985 . S
H1548 N1545 0.984 . S
H1549 N1545 0.985 . S
H1550 N1544 0.984 . S
H1551 N1544 0.984 . S
H1552 N1540 0.984 . S
H1553 N1540 0.985 . S
C1554 C1555 1.363 . S
C1554 C1560 1.379 . S
C1554 N1562 1.356 . S
C1555 C1554 1.363 . S
C1555 C1561 1.363 . S
C1556 C1557 1.363 . S
C1556 C1561 1.379 . S
C1556 N1563 1.356 . S
C1557 C1556 1.363 . S
C1557 C1560 1.363 . S
N1558 C1560 1.356 . S
N1558 H1570 0.984 . S
N1558 H1571 0.985 . S
N1559 C1561 1.356 . S
N1559 H1564 0.984 . S
N1559 H1565 0.985 . S
C1560 C1554 1.379 . S
C1560 C1557 1.363 . S
C1560 N1558 1.356 . S
C1561 C1555 1.363 . S
C1561 C1556 1.379 . S
C1561 N1559 1.356 . S
N1562 C1554 1.356 . S
N1562 H1568 0.984 . S
N1562 H1569 0.984 . S
N1563 C1556 1.356 . S
N1563 H1566 0.984 . S
N1563 H1567 0.985 . S
H1564 N1559 0.984 . S
H1565 N1559 0.985 . S
H1566 N1563 0.984 . S
H1567 N1563 0.985 . S
H1568 N1562 0.984 . S
H1569 N1562 0.984 . S
H1570 N1558 0.984 . S
H1571 N1558 0.985 . S
C1572 C1573 1.363 . S
C1572 C1578 1.379 . S
C1572 N1580 1.356 . S
C1573 C1572 1.363 . S
C1573 C1579 1.363 . S
C1574 C1575 1.363 . S
C1574 C1579 1.379 . S
C1574 N1581 1.356 . S
C1575 C1574 1.363 . S
C1575 C1578 1.363 . S
N1576 C1578 1.356 . S
N1576 H1588 0.984 . S
N1576 H1589 0.985 . S
N1577 C1579 1.356 . S
N1577 H1582 0.984 . S
N1577 H1583 0.985 . S
C1578 C1572 1.379 . S
C1578 C1575 1.363 . S
C1578 N1576 1.356 . S
C1579 C1573 1.363 . S
C1579 C1574 1.379 . S
C1579 N1577 1.356 . S
N1580 C1572 1.356 . S
N1580 H1586 0.984 . S
N1580 H1587 0.984 . S
N1581 C1574 1.356 . S
N1581 H1584 0.984 . S
N1581 H1585 0.985 . S
H1582 N1577 0.984 . S
H1583 N1577 0.985 . S
H1584 N1581 0.984 . S
H1585 N1581 0.985 . S
H1586 N1580 0.984 . S
H1587 N1580 0.984 . S
H1588 N1576 0.984 . S
H1589 N1576 0.985 . S
C1590 C1591 1.363 1_455 S
C1590 C1596 1.379 . S
C1590 N1598 1.356 1_455 S
C1591 C1590 1.363 1_655 S
C1591 C1597 1.363 1_655 S
C1592 C1593 1.363 . S
C1592 C1597 1.379 . S
C1592 N1599 1.356 . S
C1593 C1592 1.363 . S
C1593 C1596 1.363 . S
N1594 C1596 1.356 . S
N1594 H1606 0.984 . S
N1594 H1607 0.985 . S
N1595 C1597 1.356 1_655 S
N1595 H1600 0.984 . S
N1595 H1601 0.985 . S
C1596 C1590 1.379 . S
C1596 C1593 1.363 . S
C1596 N1594 1.356 . S
C1597 C1591 1.363 1_455 S
C1597 C1592 1.379 . S
C1597 N1595 1.356 1_455 S
N1598 C1590 1.356 1_655 S
N1598 H1604 0.984 . S
N1598 H1605 0.984 . S
N1599 C1592 1.356 . S
N1599 H1602 0.984 . S
N1599 H1603 0.985 . S
H1600 N1595 0.984 . S
H1601 N1595 0.985 . S
H1602 N1599 0.984 . S
H1603 N1599 0.985 . S
H1604 N1598 0.984 . S
H1605 N1598 0.984 . S
H1606 N1594 0.984 . S
H1607 N1594 0.985 . S
C1608 C1609 1.363 . S
C1608 C1614 1.379 . S
C1608 N1616 1.356 . S
C1609 C1608 1.363 . S
C1609 C1615 1.363 . S
C1610 C1611 1.363 . S
C1610 C1615 1.379 . S
C1610 N1617 1.356 . S
C1611 C1610 1.363 . S
C1611 C1614 1.363 . S
N1612 C1614 1.356 . S
N1612 H1624 0.984 . S
N1612 H1625 0.985 . S
N1613 C1615 1.356 . S
N1613 H1618 0.984 . S
N1613 H1619 0.985 . S
C1614 C1608 1.379 . S
C1614 C1611 1.363 . S
C1614 N1612 1.356 . S
C1615 C1609 1.363 . S
C1615 C1610 1.379 . S
C1615 N1613 1.356 . S
N1616 C1608 1.356 . S
N1616 H1622 0.984 . S
N1616 H1623 0.984 . S
N1617 C1610 1.356 . S
N1617 H1620 0.984 . S
N1617 H1621 0.985 . S
H1618 N1613 0.984 . S
H1619 N1613 0.985 . S
H1620 N1617 0.984 . S
H1621 N1617 0.985 . S
H1622 N1616 0.984 . S
H1623 N1616 0.984 . S
H1624 N1612 0.984 . S
H1625 N1612 0.985 . S
C1626 C1627 1.363 . S
C1626 C1632 1.379 . S
C1626 N1634 1.356 . S
C1627 C1626 1.363 . S
C1627 C1633 1.363 . S
C1628 C1629 1.363 . S
C1628 C1633 1.379 1_655 S
C1628 N1635 1.356 . S
C1629 C1628 1.363 . S
C1629 C1632 1.363 1_655 S
N1630 C1632 1.356 1_655 S
N1630 H1642 0.984 . S
N1630 H1643 0.985 . S
N1631 C1633 1.356 . S
N1631 H1636 0.984 . S
N1631 H1637 0.985 . S
C1632 C1626 1.379 . S
C1632 C1629 1.363 1_455 S
C1632 N1630 1.356 1_455 S
C1633 C1627 1.363 . S
C1633 C1628 1.379 1_455 S
C1633 N1631 1.356 . S
N1634 C1626 1.356 . S
N1634 H1640 0.984 . S
N1634 H1641 0.984 . S
N1635 C1628 1.356 . S
N1635 H1638 0.984 . S
N1635 H1639 0.985 . S
H1636 N1631 0.984 . S
H1637 N1631 0.985 . S
H1638 N1635 0.984 . S
H1639 N1635 0.985 . S
H1640 N1634 0.984 . S
H1641 N1634 0.984 . S
H1642 N1630 0.984 . S
H1643 N1630 0.985 . S
C1644 C1645 1.363 . S
C1644 C1650 1.379 . S
C1644 N1652 1.356 . S
C1645 C1644 1.363 . S
C1645 C1651 1.363 . S
C1646 C1647 1.363 . S
C1646 C1651 1.379 . S
C1646 N1653 1.356 . S
C1647 C1646 1.363 . S
C1647 C1650 1.363 . S
N1648 C1650 1.356 . S
N1648 H1660 0.984 . S
N1648 H1661 0.985 . S
N1649 C1651 1.356 . S
N1649 H1654 0.984 . S
N1649 H1655 0.985 . S
C1650 C1644 1.379 . S
C1650 C1647 1.363 . S
C1650 N1648 1.356 . S
C1651 C1645 1.363 . S
C1651 C1646 1.379 . S
C1651 N1649 1.356 . S
N1652 C1644 1.356 . S
N1652 H1658 0.984 . S
N1652 H1659 0.984 . S
N1653 C1646 1.356 . S
N1653 H1656 0.984 . S
N1653 H1657 0.985 . S
H1654 N1649 0.984 . S
H1655 N1649 0.985 . S
H1656 N1653 0.984 . S
H1657 N1653 0.985 . S
H1658 N1652 0.984 . S
H1659 N1652 0.984 . S
H1660 N1648 0.984 . S
H1661 N1648 0.985 . S
C1662 C1663 1.363 . S
C1662 C1668 1.379 . S
C1662 N1670 1.356 . S
C1663 C1662 1.363 . S
C1663 C1669 1.363 . S
C1664 C1665 1.363 . S
C1664 C1669 1.379 . S
C1664 N1671 1.356 . S
C1665 C1664 1.363 . S
C1665 C1668 1.363 . S
N1666 C1668 1.356 . S
N1666 H1678 0.984 . S
N1666 H1679 0.985 . S
N1667 C1669 1.356 . S
N1667 H1672 0.984 . S
N1667 H1673 0.985 . S
C1668 C1662 1.379 . S
C1668 C1665 1.363 . S
C1668 N1666 1.356 . S
C1669 C1663 1.363 . S
C1669 C1664 1.379 . S
C1669 N1667 1.356 . S
N1670 C1662 1.356 . S
N1670 H1676 0.984 . S
N1670 H1677 0.984 . S
N1671 C1664 1.356 . S
N1671 H1674 0.984 . S
N1671 H1675 0.985 . S
H1672 N1667 0.984 . S
H1673 N1667 0.985 . S
H1674 N1671 0.984 . S
H1675 N1671 0.985 . S
H1676 N1670 0.984 . S
H1677 N1670 0.984 . S
H1678 N1666 0.984 . S
H1679 N1666 0.985 . S
C1680 C1681 1.363 . S
C1680 C1686 1.379 . S
C1680 N1688 1.356 . S
C1681 C1680 1.363 . S
C1681 C1687 1.363 . S
C1682 C1683 1.363 . S
C1682 C1687 1.379 . S
C1682 N1689 1.356 . S
C1683 C1682 1.363 . S
C1683 C1686 1.363 . S
N1684 C1686 1.356 . S
N1684 H1696 0.984 . S
N1684 H1697 0.985 . S
N1685 C1687 1.356 . S
N1685 H1690 0.984 . S
N1685 H1691 0.985 . S
C1686 C1680 1.379 . S
C1686 C1683 1.363 . S
C1686 N1684 1.356 . S
C1687 C1681 1.363 . S
C1687 C1682 1.379 . S
C1687 N1685 1.356 . S
N1688 C1680 1.356 . S
N1688 H1694 0.984 . S
N1688 H1695 0.984 . S
N1689 C1682 1.356 . S
N1689 H1692 0.984 . S
N1689 H1693 0.985 . S
H1690 N1685 0.984 . S
H1691 N1685 0.985 . S
H1692 N1689 0.984 . S
H1693 N1689 0.985 . S
H1694 N1688 0.984 . S
H1695 N1688 0.984 . S
H1696 N1684 0.984 . S
H1697 N1684 0.985 . S
C1698 C1699 1.363 . S
C1698 C1704 1.393 . S
C1698 N1706 1.356 . S
C1699 C1698 1.363 . S
C1699 C1705 1.363 . S
C1700 C1701 1.363 1_554 S
C1700 C1705 1.379 . S
C1700 N1707 1.358 . S
C1701 C1700 1.363 1_556 S
C1701 C1704 1.359 1_556 S
N1702 C1704 1.343 1_556 S
N1702 H1714 0.984 . S
N1702 H1715 0.985 . S
N1703 C1705 1.356 . S
N1703 H1708 0.984 . S
N1703 H1709 0.985 . S
C1704 C1698 1.393 . S
C1704 C1701 1.359 1_554 S
C1704 N1702 1.343 1_554 S
C1705 C1699 1.363 . S
C1705 C1700 1.379 . S
C1705 N1703 1.356 . S
N1706 C1698 1.356 . S
N1706 H1712 0.984 . S
N1706 H1713 0.984 . S
N1707 C1700 1.358 . S
N1707 H1710 0.982 1_554 S
N1707 H1711 0.986 . S
H1708 N1703 0.984 . S
H1709 N1703 0.985 . S
H1710 N1707 0.982 1_556 S
H1711 N1707 0.986 . S
H1712 N1706 0.984 . S
H1713 N1706 0.984 . S
H1714 N1702 0.984 . S
H1715 N1702 0.985 . S
C1716 C1717 1.363 . S
C1716 C1722 1.379 . S
C1716 N1724 1.356 . S
C1717 C1716 1.363 . S
C1717 C1723 1.363 . S
C1718 C1719 1.363 . S
C1718 C1723 1.379 . S
C1718 N1725 1.356 . S
C1719 C1718 1.363 . S
C1719 C1722 1.363 . S
N1720 C1722 1.356 . S
N1720 H1732 0.984 . S
N1720 H1733 0.985 . S
N1721 C1723 1.356 . S
N1721 H1726 0.984 . S
N1721 H1727 0.985 . S
C1722 C1716 1.379 . S
C1722 C1719 1.363 . S
C1722 N1720 1.356 . S
C1723 C1717 1.363 . S
C1723 C1718 1.379 . S
C1723 N1721 1.356 . S
N1724 C1716 1.356 . S
N1724 H1730 0.984 . S
N1724 H1731 0.984 . S
N1725 C1718 1.356 . S
N1725 H1728 0.984 . S
N1725 H1729 0.985 . S
H1726 N1721 0.984 . S
H1727 N1721 0.985 . S
H1728 N1725 0.984 . S
H1729 N1725 0.985 . S
H1730 N1724 0.984 . S
H1731 N1724 0.984 . S
H1732 N1720 0.984 . S
H1733 N1720 0.985 . S
C1734 C1735 1.363 . S
C1734 C1740 1.379 . S
C1734 N1742 1.356 . S
C1735 C1734 1.363 . S
C1735 C1741 1.363 . S
C1736 C1737 1.363 . S
C1736 C1741 1.379 . S
C1736 N1743 1.356 . S
C1737 C1736 1.363 . S
C1737 C1740 1.363 . S
N1738 C1740 1.356 . S
N1738 H1750 0.984 . S
N1738 H1751 0.985 . S
N1739 C1741 1.356 . S
N1739 H1744 0.984 . S
N1739 H1745 0.985 . S
C1740 C1734 1.379 . S
C1740 C1737 1.363 . S
C1740 N1738 1.356 . S
C1741 C1735 1.363 . S
C1741 C1736 1.379 . S
C1741 N1739 1.356 . S
N1742 C1734 1.356 . S
N1742 H1748 0.984 . S
N1742 H1749 0.984 . S
N1743 C1736 1.356 . S
N1743 H1746 0.984 . S
N1743 H1747 0.985 . S
H1744 N1739 0.984 . S
H1745 N1739 0.985 . S
H1746 N1743 0.984 . S
H1747 N1743 0.985 . S
H1748 N1742 0.984 . S
H1749 N1742 0.984 . S
H1750 N1738 0.984 . S
H1751 N1738 0.985 . S
C1752 C1753 1.363 . S
C1752 C1758 1.379 . S
C1752 N1760 1.356 . S
C1753 C1752 1.363 . S
C1753 C1759 1.363 . S
C1754 C1755 1.363 . S
C1754 C1759 1.379 . S
C1754 N1761 1.356 . S
C1755 C1754 1.363 . S
C1755 C1758 1.363 . S
N1756 C1758 1.356 . S
N1756 H1768 0.984 . S
N1756 H1769 0.985 . S
N1757 C1759 1.356 . S
N1757 H1762 0.984 . S
N1757 H1763 0.985 . S
C1758 C1752 1.379 . S
C1758 C1755 1.363 . S
C1758 N1756 1.356 . S
C1759 C1753 1.363 . S
C1759 C1754 1.379 . S
C1759 N1757 1.356 . S
N1760 C1752 1.356 . S
N1760 H1766 0.984 . S
N1760 H1767 0.984 . S
N1761 C1754 1.356 . S
N1761 H1764 0.984 . S
N1761 H1765 0.985 . S
H1762 N1757 0.984 . S
H1763 N1757 0.985 . S
H1764 N1761 0.984 . S
H1765 N1761 0.985 . S
H1766 N1760 0.984 . S
H1767 N1760 0.984 . S
H1768 N1756 0.984 . S
H1769 N1756 0.985 . S
C1770 C1771 1.363 . S
C1770 C1776 1.379 . S
C1770 N1778 1.356 . S
C1771 C1770 1.363 . S
C1771 C1777 1.363 . S
C1772 C1773 1.363 . S
C1772 C1777 1.379 . S
C1772 N1779 1.356 . S
C1773 C1772 1.363 . S
C1773 C1776 1.363 . S
N1774 C1776 1.356 1_554 S
N1774 H1786 0.984 . S
N1774 H1787 0.985 . S
N1775 C1777 1.356 . S
N1775 H1780 0.984 . S
N1775 H1781 0.985 . S
C1776 C1770 1.379 . S
C1776 C1773 1.363 . S
C1776 N1774 1.356 1_556 S
C1777 C1771 1.363 . S
C1777 C1772 1.379 . S
C1777 N1775 1.356 . S
N1778 C1770 1.356 . S
N1778 H1784 0.984 . S
N1778 H1785 0.984 . S
N1779 C1772 1.356 . S
N1779 H1782 0.984 1_556 S
N1779 H1783 0.985 . S
H1780 N1775 0.984 . S
H1781 N1775 0.985 . S
H1782 N1779 0.984 1_554 S
H1783 N1779 0.985 . S
H1784 N1778 0.984 . S
H1785 N1778 0.984 . S
H1786 N1774 0.984 . S
H1787 N1774 0.985 . S
C1788 C1789 1.363 . S
C1788 C1794 1.379 . S
C1788 N1796 1.356 . S
C1789 C1788 1.363 . S
C1789 C1795 1.363 . S
C1790 C1791 1.363 . S
C1790 C1795 1.379 . S
C1790 N1797 1.356 . S
C1791 C1790 1.363 . S
C1791 C1794 1.363 . S
N1792 C1794 1.356 . S
N1792 H1804 0.984 . S
N1792 H1805 0.985 . S
N1793 C1795 1.356 . S
N1793 H1798 0.984 . S
N1793 H1799 0.985 . S
C1794 C1788 1.379 . S
C1794 C1791 1.363 . S
C1794 N1792 1.356 . S
C1795 C1789 1.363 . S
C1795 C1790 1.379 . S
C1795 N1793 1.356 . S
N1796 C1788 1.356 . S
N1796 H1802 0.984 . S
N1796 H1803 0.984 . S
N1797 C1790 1.356 . S
N1797 H1800 0.984 . S
N1797 H1801 0.985 . S
H1798 N1793 0.984 . S
H1799 N1793 0.985 . S
H1800 N1797 0.984 . S
H1801 N1797 0.985 . S
H1802 N1796 0.984 . S
H1803 N1796 0.984 . S
H1804 N1792 0.984 . S
H1805 N1792 0.985 . S
C1806 C1807 1.363 . S
C1806 C1812 1.379 . S
C1806 N1814 1.356 . S
C1807 C1806 1.363 . S
C1807 C1813 1.363 . S
C1808 C1809 1.363 . S
C1808 C1813 1.379 . S
C1808 N1815 1.356 . S
C1809 C1808 1.363 . S
C1809 C1812 1.363 . S
N1810 C1812 1.356 . S
N1810 H1822 0.984 . S
N1810 H1823 0.985 . S
N1811 C1813 1.356 . S
N1811 H1816 0.984 . S
N1811 H1817 0.985 . S
C1812 C1806 1.379 . S
C1812 C1809 1.363 . S
C1812 N1810 1.356 . S
C1813 C1807 1.363 . S
C1813 C1808 1.379 . S
C1813 N1811 1.356 . S
N1814 C1806 1.356 . S
N1814 H1820 0.984 . S
N1814 H1821 0.984 . S
N1815 C1808 1.356 . S
N1815 H1818 0.984 . S
N1815 H1819 0.985 . S
H1816 N1811 0.984 . S
H1817 N1811 0.985 . S
H1818 N1815 0.984 . S
H1819 N1815 0.985 . S
H1820 N1814 0.984 . S
H1821 N1814 0.984 . S
H1822 N1810 0.984 . S
H1823 N1810 0.985 . S
C1824 C1825 1.363 . S
C1824 C1830 1.379 . S
C1824 N1832 1.356 . S
C1825 C1824 1.363 . S
C1825 C1831 1.363 . S
C1826 C1827 1.363 . S
C1826 C1831 1.379 . S
C1826 N1833 1.356 . S
C1827 C1826 1.363 . S
C1827 C1830 1.363 . S
N1828 C1830 1.356 . S
N1828 H1840 0.984 . S
N1828 H1841 0.985 . S
N1829 C1831 1.356 . S
N1829 H1834 0.984 . S
N1829 H1835 0.985 . S
C1830 C1824 1.379 . S
C1830 C1827 1.363 . S
C1830 N1828 1.356 . S
C1831 C1825 1.363 . S
C1831 C1826 1.379 . S
C1831 N1829 1.356 . S
N1832 C1824 1.356 . S
N1832 H1838 0.984 . S
N1832 H1839 0.984 . S
N1833 C1826 1.356 . S
N1833 H1836 0.984 . S
N1833 H1837 0.985 . S
H1834 N1829 0.984 . S
H1835 N1829 0.985 . S
H1836 N1833 0.984 . S
H1837 N1833 0.985 . S
H1838 N1832 0.984 . S
H1839 N1832 0.984 . S
H1840 N1828 0.984 . S
H1841 N1828 0.985 . S
C1842 C1843 1.363 . S
C1842 C1848 1.379 . S
C1842 N1850 1.356 . S
C1843 C1842 1.363 . S
C1843 C1849 1.363 . S
C1844 C1845 1.363 . S
C1844 C1849 1.379 . S
C1844 N1851 1.356 . S
C1845 C1844 1.363 . S
C1845 C1848 1.363 . S
N1846 C1848 1.356 . S
N1846 H1858 0.984 . S
N1846 H1859 0.985 . S
N1847 C1849 1.356 . S
N1847 H1852 0.984 . S
N1847 H1853 0.985 . S
C1848 C1842 1.379 . S
C1848 C1845 1.363 . S
C1848 N1846 1.356 . S
C1849 C1843 1.363 . S
C1849 C1844 1.379 . S
C1849 N1847 1.356 . S
N1850 C1842 1.356 . S
N1850 H1856 0.984 . S
N1850 H1857 0.984 . S
N1851 C1844 1.356 . S
N1851 H1854 0.984 . S
N1851 H1855 0.985 . S
H1852 N1847 0.984 . S
H1853 N1847 0.985 . S
H1854 N1851 0.984 . S
H1855 N1851 0.985 . S
H1856 N1850 0.984 . S
H1857 N1850 0.984 . S
H1858 N1846 0.984 . S
H1859 N1846 0.985 . S
C1860 C1861 1.363 . S
C1860 C1866 1.379 1_545 S
C1860 N1868 1.356 . S
C1861 C1860 1.363 . S
C1861 C1867 1.363 . S
C1862 C1863 1.363 1_545 S
C1862 C1867 1.379 . S
C1862 N1869 1.356 1_545 S
C1863 C1862 1.363 1_565 S
C1863 C1866 1.363 . S
N1864 C1866 1.356 . S
N1864 H1876 0.984 . S
N1864 H1877 0.985 . S
N1865 C1867 1.356 . S
N1865 H1870 0.984 . S
N1865 H1871 0.985 . S
C1866 C1860 1.379 1_565 S
C1866 C1863 1.363 . S
C1866 N1864 1.356 . S
C1867 C1861 1.363 . S
C1867 C1862 1.379 . S
C1867 N1865 1.356 . S
N1868 C1860 1.356 . S
N1868 H1874 0.984 . S
N1868 H1875 0.984 . S
N1869 C1862 1.356 1_565 S
N1869 H1872 0.984 . S
N1869 H1873 0.985 . S
H1870 N1865 0.984 . S
H1871 N1865 0.985 . S
H1872 N1869 0.984 . S
H1873 N1869 0.985 . S
H1874 N1868 0.984 . S
H1875 N1868 0.984 . S
H1876 N1864 0.984 . S
H1877 N1864 0.985 . S
C1878 C1879 1.363 . S
C1878 C1884 1.379 . S
C1878 N1886 1.356 . S
C1879 C1878 1.363 . S
C1879 C1885 1.363 . S
C1880 C1881 1.363 . S
C1880 C1885 1.379 . S
C1880 N1887 1.356 . S
C1881 C1880 1.363 . S
C1881 C1884 1.363 . S
N1882 C1884 1.356 . S
N1882 H1894 0.984 . S
N1882 H1895 0.985 . S
N1883 C1885 1.356 . S
N1883 H1888 0.984 . S
N1883 H1889 0.985 . S
C1884 C1878 1.379 . S
C1884 C1881 1.363 . S
C1884 N1882 1.356 . S
C1885 C1879 1.363 . S
C1885 C1880 1.379 . S
C1885 N1883 1.356 . S
N1886 C1878 1.356 . S
N1886 H1892 0.984 . S
N1886 H1893 0.984 . S
N1887 C1880 1.356 . S
N1887 H1890 0.984 . S
N1887 H1891 0.985 . S
H1888 N1883 0.984 . S
H1889 N1883 0.985 . S
H1890 N1887 0.984 . S
H1891 N1887 0.985 . S
H1892 N1886 0.984 . S
H1893 N1886 0.984 . S
H1894 N1882 0.984 . S
H1895 N1882 0.985 . S
C1896 C1897 1.363 . S
C1896 C1902 1.379 . S
C1896 N1904 1.356 . S
C1897 C1896 1.363 . S
C1897 C1903 1.363 . S
C1898 C1899 1.363 . S
C1898 C1903 1.379 . S
C1898 N1905 1.356 . S
C1899 C1898 1.363 . S
C1899 C1902 1.363 . S
N1900 C1902 1.356 . S
N1900 H1912 0.984 . S
N1900 H1913 0.985 . S
N1901 C1903 1.356 . S
N1901 H1906 0.984 . S
N1901 H1907 0.985 . S
C1902 C1896 1.379 . S
C1902 C1899 1.363 . S
C1902 N1900 1.356 . S
C1903 C1897 1.363 . S
C1903 C1898 1.379 . S
C1903 N1901 1.356 . S
N1904 C1896 1.356 . S
N1904 H1910 0.984 . S
N1904 H1911 0.984 . S
N1905 C1898 1.356 . S
N1905 H1908 0.984 . S
N1905 H1909 0.985 . S
H1906 N1901 0.984 . S
H1907 N1901 0.985 . S
H1908 N1905 0.984 . S
H1909 N1905 0.985 . S
H1910 N1904 0.984 . S
H1911 N1904 0.984 . S
H1912 N1900 0.984 . S
H1913 N1900 0.985 . S
C1914 C1915 1.363 . S
C1914 C1920 1.379 . S
C1914 N1922 1.356 . S
C1915 C1914 1.363 . S
C1915 C1921 1.363 . S
C1916 C1917 1.363 . S
C1916 C1921 1.379 . S
C1916 N1923 1.356 . S
C1917 C1916 1.363 . S
C1917 C1920 1.363 . S
N1918 C1920 1.356 . S
N1918 H1930 0.984 . S
N1918 H1931 0.985 . S
N1919 C1921 1.356 . S
N1919 H1924 0.984 . S
N1919 H1925 0.985 . S
C1920 C1914 1.379 . S
C1920 C1917 1.363 . S
C1920 N1918 1.356 . S
C1921 C1915 1.363 . S
C1921 C1916 1.379 . S
C1921 N1919 1.356 . S
N1922 C1914 1.356 . S
N1922 H1928 0.984 . S
N1922 H1929 0.984 . S
N1923 C1916 1.356 . S
N1923 H1926 0.984 . S
N1923 H1927 0.985 . S
H1924 N1919 0.984 . S
H1925 N1919 0.985 . S
H1926 N1923 0.984 . S
H1927 N1923 0.985 . S
H1928 N1922 0.984 . S
H1929 N1922 0.984 . S
H1930 N1918 0.984 . S
H1931 N1918 0.985 . S
C1932 C1933 1.363 1_565 S
C1932 C1938 1.379 . S
C1932 N1940 1.356 1_565 S
C1933 C1932 1.363 1_545 S
C1933 C1939 1.363 1_545 S
C1934 C1935 1.363 . S
C1934 C1939 1.379 . S
C1934 N1941 1.356 . S
C1935 C1934 1.363 . S
C1935 C1938 1.363 . S
N1936 C1938 1.356 . S
N1936 H1948 0.984 . S
N1936 H1949 0.985 . S
N1937 C1939 1.356 1_545 S
N1937 H1942 0.984 . S
N1937 H1943 0.985 . S
C1938 C1932 1.379 . S
C1938 C1935 1.363 . S
C1938 N1936 1.356 . S
C1939 C1933 1.363 1_565 S
C1939 C1934 1.379 . S
C1939 N1937 1.356 1_565 S
N1940 C1932 1.356 1_545 S
N1940 H1946 0.984 . S
N1940 H1947 0.984 . S
N1941 C1934 1.356 . S
N1941 H1944 0.984 . S
N1941 H1945 0.985 . S
H1942 N1937 0.984 . S
H1943 N1937 0.985 . S
H1944 N1941 0.984 . S
H1945 N1941 0.985 . S
H1946 N1940 0.984 . S
H1947 N1940 0.984 . S
H1948 N1936 0.984 . S
H1949 N1936 0.985 . S
C1950 C1951 1.363 . S
C1950 C1956 1.379 . S
C1950 N1958 1.356 . S
C1951 C1950 1.363 . S
C1951 C1957 1.363 . S
C1952 C1953 1.358 1_545 S
C1952 C1957 1.390 . S
C1952 N1959 1.348 1_545 S
C1953 C1952 1.358 1_565 S
C1953 C1956 1.363 1_565 S
N1954 C1956 1.356 1_565 S
N1954 H1966 0.984 . S
N1954 H1967 0.985 . S
N1955 C1957 1.356 . S
N1955 H1960 0.984 . S
N1955 H1961 0.985 . S
C1956 C1950 1.379 . S
C1956 C1953 1.363 1_545 S
C1956 N1954 1.356 1_545 S
C1957 C1951 1.363 . S
C1957 C1952 1.390 . S
C1957 N1955 1.356 . S
N1958 C1950 1.356 . S
N1958 H1964 0.984 . S
N1958 H1965 0.984 . S
N1959 C1952 1.348 1_565 S
N1959 H1962 0.984 . S
N1959 H1963 0.985 . S
H1960 N1955 0.984 . S
H1961 N1955 0.985 . S
H1962 N1959 0.984 . S
H1963 N1959 0.985 . S
H1964 N1958 0.984 . S
H1965 N1958 0.984 . S
H1966 N1954 0.984 . S
H1967 N1954 0.985 . S
C1968 C1969 1.363 . S
C1968 C1974 1.379 . S
C1968 N1976 1.356 . S
C1969 C1968 1.363 . S
C1969 C1975 1.363 . S
C1970 C1971 1.363 . S
C1970 C1975 1.379 . S
C1970 N1977 1.356 . S
C1971 C1970 1.363 . S
C1971 C1974 1.363 . S
N1972 C1974 1.356 . S
N1972 H1984 0.984 . S
N1972 H1985 0.985 . S
N1973 C1975 1.356 . S
N1973 H1978 0.984 . S
N1973 H1979 0.985 . S
C1974 C1968 1.379 . S
C1974 C1971 1.363 . S
C1974 N1972 1.356 . S
C1975 C1969 1.363 . S
C1975 C1970 1.379 . S
C1975 N1973 1.356 . S
N1976 C1968 1.356 . S
N1976 H1982 0.984 . S
N1976 H1983 0.984 . S
N1977 C1970 1.356 . S
N1977 H1980 0.984 . S
N1977 H1981 0.985 . S
H1978 N1973 0.984 . S
H1979 N1973 0.985 . S
H1980 N1977 0.984 . S
H1981 N1977 0.985 . S
H1982 N1976 0.984 . S
H1983 N1976 0.984 . S
H1984 N1972 0.984 . S
H1985 N1972 0.985 . S
C1986 C1987 1.363 . S
C1986 C1992 1.379 . S
C1986 N1994 1.356 . S
C1987 C1986 1.363 . S
C1987 C1993 1.363 . S
C1988 C1989 1.363 . S
C1988 C1993 1.379 . S
C1988 N1995 1.356 . S
C1989 C1988 1.363 . S
C1989 C1992 1.363 . S
N1990 C1992 1.356 . S
N1990 H2002 0.984 . S
N1990 H2003 0.985 . S
N1991 C1993 1.356 . S
N1991 H1996 0.984 . S
N1991 H1997 0.985 . S
C1992 C1986 1.379 . S
C1992 C1989 1.363 . S
C1992 N1990 1.356 . S
C1993 C1987 1.363 . S
C1993 C1988 1.379 . S
C1993 N1991 1.356 . S
N1994 C1986 1.356 . S
N1994 H2000 0.984 . S
N1994 H2001 0.984 . S
N1995 C1988 1.356 . S
N1995 H1998 0.984 . S
N1995 H1999 0.985 . S
H1996 N1991 0.984 . S
H1997 N1991 0.985 . S
H1998 N1995 0.984 . S
H1999 N1995 0.985 . S
H2000 N1994 0.984 . S
H2001 N1994 0.984 . S
H2002 N1990 0.984 . S
H2003 N1990 0.985 . S
C2004 C2005 1.363 . S
C2004 C2010 1.379 . S
C2004 N2012 1.356 . S
C2005 C2004 1.363 . S
C2005 C2011 1.363 . S
C2006 C2007 1.363 . S
C2006 C2011 1.379 . S
C2006 N2013 1.356 . S
C2007 C2006 1.363 . S
C2007 C2010 1.363 . S
N2008 C2010 1.356 . S
N2008 H2020 0.984 . S
N2008 H2021 0.985 . S
N2009 C2011 1.356 . S
N2009 H2014 0.984 . S
N2009 H2015 0.985 . S
C2010 C2004 1.379 . S
C2010 C2007 1.363 . S
C2010 N2008 1.356 . S
C2011 C2005 1.363 . S
C2011 C2006 1.379 . S
C2011 N2009 1.356 . S
N2012 C2004 1.356 . S
N2012 H2018 0.984 . S
N2012 H2019 0.984 . S
N2013 C2006 1.356 . S
N2013 H2016 0.984 . S
N2013 H2017 0.985 . S
H2014 N2009 0.984 . S
H2015 N2009 0.985 . S
H2016 N2013 0.984 . S
H2017 N2013 0.985 . S
H2018 N2012 0.984 . S
H2019 N2012 0.984 . S
H2020 N2008 0.984 . S
H2021 N2008 0.985 . S
C2022 C2023 1.346 1_655 S
C2022 C2028 1.379 . S
C2022 N2030 1.356 1_655 S
C2023 C2022 1.346 1_455 S
C2023 C2029 1.339 1_455 S
C2024 C2025 1.363 . S
C2024 C2029 1.379 . S
C2024 N2031 1.356 . S
C2025 C2024 1.363 . S
C2025 C2028 1.363 . S
N2026 C2028 1.356 . S
N2026 H2038 0.984 . S
N2026 H2039 0.985 . S
N2027 C2029 1.356 . S
N2027 H2032 0.984 1_655 S
N2027 H2033 0.985 . S
C2028 C2022 1.379 . S
C2028 C2025 1.363 . S
C2028 N2026 1.356 . S
C2029 C2023 1.339 1_655 S
C2029 C2024 1.379 . S
C2029 N2027 1.356 . S
N2030 C2022 1.356 1_455 S
N2030 H2036 0.984 . S
N2030 H2037 0.984 . S
N2031 C2024 1.356 . S
N2031 H2034 0.984 . S
N2031 H2035 0.985 . S
H2032 N2027 0.984 1_455 S
H2033 N2027 0.985 . S
H2034 N2031 0.984 . S
H2035 N2031 0.985 . S
H2036 N2030 0.984 . S
H2037 N2030 0.984 . S
H2038 N2026 0.984 . S
H2039 N2026 0.985 . S
C2040 C2041 1.363 . S
C2040 C2046 1.379 . S
C2040 N2048 1.356 . S
C2041 C2040 1.363 . S
C2041 C2047 1.363 . S
C2042 C2043 1.363 . S
C2042 C2047 1.379 . S
C2042 N2049 1.356 . S
C2043 C2042 1.363 . S
C2043 C2046 1.363 . S
N2044 C2046 1.356 . S
N2044 H2056 0.984 . S
N2044 H2057 0.985 . S
N2045 C2047 1.356 . S
N2045 H2050 0.984 . S
N2045 H2051 0.985 . S
C2046 C2040 1.379 . S
C2046 C2043 1.363 . S
C2046 N2044 1.356 . S
C2047 C2041 1.363 . S
C2047 C2042 1.379 . S
C2047 N2045 1.356 . S
N2048 C2040 1.356 . S
N2048 H2054 0.984 . S
N2048 H2055 0.984 . S
N2049 C2042 1.356 . S
N2049 H2052 0.984 . S
N2049 H2053 0.985 . S
H2050 N2045 0.984 . S
H2051 N2045 0.985 . S
H2052 N2049 0.984 . S
H2053 N2049 0.985 . S
H2054 N2048 0.984 . S
H2055 N2048 0.984 . S
H2056 N2044 0.984 . S
H2057 N2044 0.985 . S
C2058 C2059 1.363 . S
C2058 C2064 1.379 1_455 S
C2058 N2066 1.356 . S
C2059 C2058 1.363 . S
C2059 C2065 1.363 . S
C2060 C2061 1.363 . S
C2060 C2065 1.379 1_655 S
C2060 N2067 1.356 . S
C2061 C2060 1.363 . S
C2061 C2064 1.363 . S
N2062 C2064 1.356 . S
N2062 H2074 0.984 . S
N2062 H2075 0.985 . S
N2063 C2065 1.356 . S
N2063 H2068 0.984 . S
N2063 H2069 0.985 . S
C2064 C2058 1.379 1_655 S
C2064 C2061 1.363 . S
C2064 N2062 1.356 . S
C2065 C2059 1.363 . S
C2065 C2060 1.379 1_455 S
C2065 N2063 1.356 . S
N2066 C2058 1.356 . S
N2066 H2072 0.984 . S
N2066 H2073 0.984 . S
N2067 C2060 1.356 . S
N2067 H2070 0.984 . S
N2067 H2071 0.985 . S
H2068 N2063 0.984 . S
H2069 N2063 0.985 . S
H2070 N2067 0.984 . S
H2071 N2067 0.985 . S
H2072 N2066 0.984 . S
H2073 N2066 0.984 . S
H2074 N2062 0.984 . S
H2075 N2062 0.985 . S
C2076 C2077 1.363 . S
C2076 C2082 1.379 . S
C2076 N2084 1.356 . S
C2077 C2076 1.363 . S
C2077 C2083 1.363 . S
C2078 C2079 1.363 . S
C2078 C2083 1.379 . S
C2078 N2085 1.356 . S
C2079 C2078 1.363 . S
C2079 C2082 1.363 . S
N2080 C2082 1.356 . S
N2080 H2092 0.984 . S
N2080 H2093 0.985 . S
N2081 C2083 1.356 . S
N2081 H2086 0.984 . S
N2081 H2087 0.985 . S
C2082 C2076 1.379 . S
C2082 C2079 1.363 . S
C2082 N2080 1.356 . S
C2083 C2077 1.363 . S
C2083 C2078 1.379 . S
C2083 N2081 1.356 . S
N2084 C2076 1.356 . S
N2084 H2090 0.984 . S
N2084 H2091 0.984 . S
N2085 C2078 1.356 . S
N2085 H2088 0.984 . S
N2085 H2089 0.985 . S
H2086 N2081 0.984 . S
H2087 N2081 0.985 . S
H2088 N2085 0.984 . S
H2089 N2085 0.985 . S
H2090 N2084 0.984 . S
H2091 N2084 0.984 . S
H2092 N2080 0.984 . S
H2093 N2080 0.985 . S
C2094 C2095 1.363 . S
C2094 C2100 1.379 . S
C2094 N2102 1.356 . S
C2095 C2094 1.363 . S
C2095 C2101 1.363 . S
C2096 C2097 1.363 . S
C2096 C2101 1.379 . S
C2096 N2103 1.356 . S
C2097 C2096 1.363 . S
C2097 C2100 1.363 . S
N2098 C2100 1.356 . S
N2098 H2110 0.984 . S
N2098 H2111 0.985 . S
N2099 C2101 1.356 . S
N2099 H2104 0.984 . S
N2099 H2105 0.985 . S
C2100 C2094 1.379 . S
C2100 C2097 1.363 . S
C2100 N2098 1.356 . S
C2101 C2095 1.363 . S
C2101 C2096 1.379 . S
C2101 N2099 1.356 . S
N2102 C2094 1.356 . S
N2102 H2108 0.984 . S
N2102 H2109 0.984 . S
N2103 C2096 1.356 . S
N2103 H2106 0.984 . S
N2103 H2107 0.985 . S
H2104 N2099 0.984 . S
H2105 N2099 0.985 . S
H2106 N2103 0.984 . S
H2107 N2103 0.985 . S
H2108 N2102 0.984 . S
H2109 N2102 0.984 . S
H2110 N2098 0.984 . S
H2111 N2098 0.985 . S
C2112 C2113 1.363 . S
C2112 C2118 1.379 . S
C2112 N2120 1.356 . S
C2113 C2112 1.363 . S
C2113 C2119 1.363 . S
C2114 C2115 1.363 . S
C2114 C2119 1.379 . S
C2114 N2121 1.356 . S
C2115 C2114 1.363 . S
C2115 C2118 1.363 . S
N2116 C2118 1.356 . S
N2116 H2128 0.984 . S
N2116 H2129 0.985 . S
N2117 C2119 1.356 . S
N2117 H2122 0.984 . S
N2117 H2123 0.985 . S
C2118 C2112 1.379 . S
C2118 C2115 1.363 . S
C2118 N2116 1.356 . S
C2119 C2113 1.363 . S
C2119 C2114 1.379 . S
C2119 N2117 1.356 . S
N2120 C2112 1.356 . S
N2120 H2126 0.984 . S
N2120 H2127 0.984 . S
N2121 C2114 1.356 . S
N2121 H2124 0.984 . S
N2121 H2125 0.985 . S
H2122 N2117 0.984 . S
H2123 N2117 0.985 . S
H2124 N2121 0.984 . S
H2125 N2121 0.985 . S
H2126 N2120 0.984 . S
H2127 N2120 0.984 . S
H2128 N2116 0.984 . S
H2129 N2116 0.985 . S
C2130 C2131 1.363 . S
C2130 C2136 1.379 1_556 S
C2130 N2138 1.356 . S
C2131 C2130 1.363 . S
C2131 C2137 1.363 . S
C2132 C2133 1.363 . S
C2132 C2137 1.379 1_554 S
C2132 N2139 1.356 . S
C2133 C2132 1.363 . S
C2133 C2136 1.363 . S
N2134 C2136 1.356 . S
N2134 H2146 0.984 . S
N2134 H2147 0.985 . S
N2135 C2137 1.356 . S
N2135 H2140 0.984 . S
N2135 H2141 0.985 . S
C2136 C2130 1.379 1_554 S
C2136 C2133 1.363 . S
C2136 N2134 1.356 . S
C2137 C2131 1.363 . S
C2137 C2132 1.379 1_556 S
C2137 N2135 1.356 . S
N2138 C2130 1.356 . S
N2138 H2144 0.984 . S
N2138 H2145 0.984 . S
N2139 C2132 1.356 . S
N2139 H2142 0.984 . S
N2139 H2143 0.985 . S
H2140 N2135 0.984 . S
H2141 N2135 0.985 . S
H2142 N2139 0.984 . S
H2143 N2139 0.985 . S
H2144 N2138 0.984 . S
H2145 N2138 0.984 . S
H2146 N2134 0.984 . S
H2147 N2134 0.985 . S
C2148 C2149 1.363 . S
C2148 C2154 1.379 . S
C2148 N2156 1.356 . S
C2149 C2148 1.363 . S
C2149 C2155 1.363 . S
C2150 C2151 1.363 . S
C2150 C2155 1.379 . S
C2150 N2157 1.356 . S
C2151 C2150 1.363 . S
C2151 C2154 1.363 . S
N2152 C2154 1.356 . S
N2152 H2164 0.984 . S
N2152 H2165 0.985 . S
N2153 C2155 1.356 . S
N2153 H2158 0.984 . S
N2153 H2159 0.985 . S
C2154 C2148 1.379 . S
C2154 C2151 1.363 . S
C2154 N2152 1.356 . S
C2155 C2149 1.363 . S
C2155 C2150 1.379 . S
C2155 N2153 1.356 . S
N2156 C2148 1.356 . S
N2156 H2162 0.984 . S
N2156 H2163 0.984 . S
N2157 C2150 1.356 . S
N2157 H2160 0.984 . S
N2157 H2161 0.985 . S
H2158 N2153 0.984 . S
H2159 N2153 0.985 . S
H2160 N2157 0.984 . S
H2161 N2157 0.985 . S
H2162 N2156 0.984 . S
H2163 N2156 0.984 . S
H2164 N2152 0.984 . S
H2165 N2152 0.985 . S
C2166 C2167 1.363 . S
C2166 C2172 1.379 . S
C2166 N2174 1.356 . S
C2167 C2166 1.363 . S
C2167 C2173 1.363 . S
C2168 C2169 1.363 . S
C2168 C2173 1.379 . S
C2168 N2175 1.356 . S
C2169 C2168 1.363 . S
C2169 C2172 1.363 . S
N2170 C2172 1.356 . S
N2170 H2182 0.984 . S
N2170 H2183 0.985 . S
N2171 C2173 1.356 . S
N2171 H2176 0.984 . S
N2171 H2177 0.985 . S
C2172 C2166 1.379 . S
C2172 C2169 1.363 . S
C2172 N2170 1.356 . S
C2173 C2167 1.363 . S
C2173 C2168 1.379 . S
C2173 N2171 1.356 . S
N2174 C2166 1.356 . S
N2174 H2180 0.984 . S
N2174 H2181 0.984 . S
N2175 C2168 1.356 . S
N2175 H2178 0.984 . S
N2175 H2179 0.985 . S
H2176 N2171 0.984 . S
H2177 N2171 0.985 . S
H2178 N2175 0.984 . S
H2179 N2175 0.985 . S
H2180 N2174 0.984 . S
H2181 N2174 0.984 . S
H2182 N2170 0.984 . S
H2183 N2170 0.985 . S
C2184 C2185 1.363 . S
C2184 C2190 1.379 . S
C2184 N2192 1.356 . S
C2185 C2184 1.363 . S
C2185 C2191 1.363 . S
C2186 C2187 1.363 . S
C2186 C2191 1.379 . S
C2186 N2193 1.356 . S
C2187 C2186 1.363 . S
C2187 C2190 1.363 . S
N2188 C2190 1.356 . S
N2188 H2200 0.984 . S
N2188 H2201 0.985 . S
N2189 C2191 1.356 . S
N2189 H2194 0.984 . S
N2189 H2195 0.985 . S
C2190 C2184 1.379 . S
C2190 C2187 1.363 . S
C2190 N2188 1.356 . S
C2191 C2185 1.363 . S
C2191 C2186 1.379 . S
C2191 N2189 1.356 . S
N2192 C2184 1.356 . S
N2192 H2198 0.984 . S
N2192 H2199 0.984 . S
N2193 C2186 1.356 . S
N2193 H2196 0.984 . S
N2193 H2197 0.985 . S
H2194 N2189 0.984 . S
H2195 N2189 0.985 . S
H2196 N2193 0.984 . S
H2197 N2193 0.985 . S
H2198 N2192 0.984 . S
H2199 N2192 0.984 . S
H2200 N2188 0.984 . S
H2201 N2188 0.985 . S
C2202 C2203 1.363 . S
C2202 C2208 1.379 . S
C2202 N2210 1.356 . S
C2203 C2202 1.363 . S
C2203 C2209 1.363 . S
C2204 C2205 1.363 1_554 S
C2204 C2209 1.379 . S
C2204 N2211 1.356 1_554 S
C2205 C2204 1.363 1_556 S
C2205 C2208 1.363 1_556 S
N2206 C2208 1.356 1_556 S
N2206 H2218 0.984 . S
N2206 H2219 0.985 . S
N2207 C2209 1.356 . S
N2207 H2212 0.984 . S
N2207 H2213 0.985 . S
C2208 C2202 1.379 . S
C2208 C2205 1.363 1_554 S
C2208 N2206 1.356 1_554 S
C2209 C2203 1.363 . S
C2209 C2204 1.379 . S
C2209 N2207 1.356 . S
N2210 C2202 1.356 . S
N2210 H2216 0.984 . S
N2210 H2217 0.984 . S
N2211 C2204 1.356 1_556 S
N2211 H2214 0.984 . S
N2211 H2215 0.985 1_556 S
H2212 N2207 0.984 . S
H2213 N2207 0.985 . S
H2214 N2211 0.984 . S
H2215 N2211 0.985 1_554 S
H2216 N2210 0.984 . S
H2217 N2210 0.984 . S
H2218 N2206 0.984 . S
H2219 N2206 0.985 . S
C2220 C2221 1.363 . S
C2220 C2226 1.379 . S
C2220 N2228 1.356 . S
C2221 C2220 1.363 . S
C2221 C2227 1.363 . S
C2222 C2223 1.363 . S
C2222 C2227 1.379 . S
C2222 N2229 1.356 . S
C2223 C2222 1.363 . S
C2223 C2226 1.363 . S
N2224 C2226 1.356 . S
N2224 H2236 0.984 . S
N2224 H2237 0.985 . S
N2225 C2227 1.356 . S
N2225 H2230 0.984 . S
N2225 H2231 0.985 . S
C2226 C2220 1.379 . S
C2226 C2223 1.363 . S
C2226 N2224 1.356 . S
C2227 C2221 1.363 . S
C2227 C2222 1.379 . S
C2227 N2225 1.356 . S
N2228 C2220 1.356 . S
N2228 H2234 0.984 . S
N2228 H2235 0.984 . S
N2229 C2222 1.356 . S
N2229 H2232 0.984 . S
N2229 H2233 0.985 . S
H2230 N2225 0.984 . S
H2231 N2225 0.985 . S
H2232 N2229 0.984 . S
H2233 N2229 0.985 . S
H2234 N2228 0.984 . S
H2235 N2228 0.984 . S
H2236 N2224 0.984 . S
H2237 N2224 0.985 . S
C2238 C2239 1.363 . S
C2238 C2244 1.379 . S
C2238 N2246 1.356 . S
C2239 C2238 1.363 . S
C2239 C2245 1.363 . S
C2240 C2241 1.363 . S
C2240 C2245 1.379 . S
C2240 N2247 1.356 . S
C2241 C2240 1.363 . S
C2241 C2244 1.363 . S
N2242 C2244 1.356 . S
N2242 H2254 0.984 . S
N2242 H2255 0.985 . S
N2243 C2245 1.356 . S
N2243 H2248 0.984 . S
N2243 H2249 0.985 . S
C2244 C2238 1.379 . S
C2244 C2241 1.363 . S
C2244 N2242 1.356 . S
C2245 C2239 1.363 . S
C2245 C2240 1.379 . S
C2245 N2243 1.356 . S
N2246 C2238 1.356 . S
N2246 H2252 0.984 . S
N2246 H2253 0.984 . S
N2247 C2240 1.356 . S
N2247 H2250 0.984 . S
N2247 H2251 0.985 . S
H2248 N2243 0.984 . S
H2249 N2243 0.985 . S
H2250 N2247 0.984 . S
H2251 N2247 0.985 . S
H2252 N2246 0.984 . S
H2253 N2246 0.984 . S
H2254 N2242 0.984 . S
H2255 N2242 0.985 . S
C2256 C2257 1.363 . S
C2256 C2262 1.379 . S
C2256 N2264 1.356 . S
C2257 C2256 1.363 . S
C2257 C2263 1.363 . S
C2258 C2259 1.363 . S
C2258 C2263 1.379 . S
C2258 N2265 1.356 . S
C2259 C2258 1.363 . S
C2259 C2262 1.363 . S
N2260 C2262 1.356 . S
N2260 H2272 0.984 . S
N2260 H2273 0.985 . S
N2261 C2263 1.356 . S
N2261 H2266 0.984 . S
N2261 H2267 0.985 . S
C2262 C2256 1.379 . S
C2262 C2259 1.363 . S
C2262 N2260 1.356 . S
C2263 C2257 1.363 . S
C2263 C2258 1.379 . S
C2263 N2261 1.356 . S
N2264 C2256 1.356 . S
N2264 H2270 0.984 . S
N2264 H2271 0.984 . S
N2265 C2258 1.356 . S
N2265 H2268 0.984 . S
N2265 H2269 0.985 . S
H2266 N2261 0.984 . S
H2267 N2261 0.985 . S
H2268 N2265 0.984 . S
H2269 N2265 0.985 . S
H2270 N2264 0.984 . S
H2271 N2264 0.984 . S
H2272 N2260 0.984 . S
H2273 N2260 0.985 . S
C2274 C2275 1.363 . S
C2274 C2280 1.379 . S
C2274 N2282 1.356 . S
C2275 C2274 1.363 . S
C2275 C2281 1.363 . S
C2276 C2277 1.363 . S
C2276 C2281 1.379 . S
C2276 N2283 1.356 . S
C2277 C2276 1.363 . S
C2277 C2280 1.363 . S
N2278 C2280 1.356 . S
N2278 H2290 0.984 . S
N2278 H2291 0.985 . S
N2279 C2281 1.356 . S
N2279 H2284 0.984 . S
N2279 H2285 0.985 . S
C2280 C2274 1.379 . S
C2280 C2277 1.363 . S
C2280 N2278 1.356 . S
C2281 C2275 1.363 . S
C2281 C2276 1.379 . S
C2281 N2279 1.356 . S
N2282 C2274 1.356 . S
N2282 H2288 0.984 . S
N2282 H2289 0.984 . S
N2283 C2276 1.356 . S
N2283 H2286 0.984 . S
N2283 H2287 0.985 . S
H2284 N2279 0.984 . S
H2285 N2279 0.985 . S
H2286 N2283 0.984 . S
H2287 N2283 0.985 . S
H2288 N2282 0.984 . S
H2289 N2282 0.984 . S
H2290 N2278 0.984 . S
H2291 N2278 0.985 . S
C2292 C2293 1.363 . S
C2292 C2298 1.379 . S
C2292 N2300 1.356 . S
C2293 C2292 1.363 . S
C2293 C2299 1.363 . S
C2294 C2295 1.363 . S
C2294 C2299 1.379 1_545 S
C2294 N2301 1.356 . S
C2295 C2294 1.363 . S
C2295 C2298 1.363 1_545 S
N2296 C2298 1.356 1_545 S
N2296 H2308 0.984 1_545 S
N2296 H2309 0.985 . S
N2297 C2299 1.356 . S
N2297 H2302 0.984 . S
N2297 H2303 0.985 . S
C2298 C2292 1.379 . S
C2298 C2295 1.363 1_565 S
C2298 N2296 1.356 1_565 S
C2299 C2293 1.363 . S
C2299 C2294 1.379 1_565 S
C2299 N2297 1.356 . S
N2300 C2292 1.356 . S
N2300 H2306 0.984 . S
N2300 H2307 0.984 . S
N2301 C2294 1.356 . S
N2301 H2304 0.984 . S
N2301 H2305 0.985 . S
H2302 N2297 0.984 . S
H2303 N2297 0.985 . S
H2304 N2301 0.984 . S
H2305 N2301 0.985 . S
H2306 N2300 0.984 . S
H2307 N2300 0.984 . S
H2308 N2296 0.984 1_565 S
H2309 N2296 0.985 . S
C2310 C2311 1.363 . S
C2310 C2316 1.379 . S
C2310 N2318 1.356 . S
C2311 C2310 1.363 . S
C2311 C2317 1.363 . S
C2312 C2313 1.363 . S
C2312 C2317 1.379 . S
C2312 N2319 1.356 . S
C2313 C2312 1.363 . S
C2313 C2316 1.363 . S
N2314 C2316 1.356 . S
N2314 H2326 0.984 . S
N2314 H2327 0.985 . S
N2315 C2317 1.356 . S
N2315 H2320 0.984 . S
N2315 H2321 0.985 . S
C2316 C2310 1.379 . S
C2316 C2313 1.363 . S
C2316 N2314 1.356 . S
C2317 C2311 1.363 . S
C2317 C2312 1.379 . S
C2317 N2315 1.356 . S
N2318 C2310 1.356 . S
N2318 H2324 0.984 . S
N2318 H2325 0.984 . S
N2319 C2312 1.356 . S
N2319 H2322 0.984 . S
N2319 H2323 0.985 . S
H2320 N2315 0.984 . S
H2321 N2315 0.985 . S
H2322 N2319 0.984 . S
H2323 N2319 0.985 . S
H2324 N2318 0.984 . S
H2325 N2318 0.984 . S
H2326 N2314 0.984 . S
H2327 N2314 0.985 . S
C2328 C2329 1.363 . S
C2328 C2334 1.379 . S
C2328 N2336 1.356 . S
C2329 C2328 1.363 . S
C2329 C2335 1.363 . S
C2330 C2331 1.363 . S
C2330 C2335 1.379 . S
C2330 N2337 1.356 . S
C2331 C2330 1.363 . S
C2331 C2334 1.363 . S
N2332 C2334 1.356 . S
N2332 H2344 0.984 . S
N2332 H2345 0.985 . S
N2333 C2335 1.356 . S
N2333 H2338 0.984 . S
N2333 H2339 0.985 . S
C2334 C2328 1.379 . S
C2334 C2331 1.363 . S
C2334 N2332 1.356 . S
C2335 C2329 1.363 . S
C2335 C2330 1.379 . S
C2335 N2333 1.356 . S
N2336 C2328 1.356 . S
N2336 H2342 0.984 . S
N2336 H2343 0.984 . S
N2337 C2330 1.356 . S
N2337 H2340 0.984 . S
N2337 H2341 0.985 . S
H2338 N2333 0.984 . S
H2339 N2333 0.985 . S
H2340 N2337 0.984 . S
H2341 N2337 0.985 . S
H2342 N2336 0.984 . S
H2343 N2336 0.984 . S
H2344 N2332 0.984 . S
H2345 N2332 0.985 . S
C2346 C2347 1.363 . S
C2346 C2352 1.379 . S
C2346 N2354 1.356 . S
C2347 C2346 1.363 . S
C2347 C2353 1.363 . S
C2348 C2349 1.363 . S
C2348 C2353 1.379 . S
C2348 N2355 1.356 . S
C2349 C2348 1.363 . S
C2349 C2352 1.363 . S
N2350 C2352 1.356 . S
N2350 H2362 0.984 . S
N2350 H2363 0.985 . S
N2351 C2353 1.356 . S
N2351 H2356 0.984 . S
N2351 H2357 0.985 . S
C2352 C2346 1.379 . S
C2352 C2349 1.363 . S
C2352 N2350 1.356 . S
C2353 C2347 1.363 . S
C2353 C2348 1.379 . S
C2353 N2351 1.356 . S
N2354 C2346 1.356 . S
N2354 H2360 0.984 . S
N2354 H2361 0.984 . S
N2355 C2348 1.356 . S
N2355 H2358 0.984 . S
N2355 H2359 0.985 . S
H2356 N2351 0.984 . S
H2357 N2351 0.985 . S
H2358 N2355 0.984 . S
H2359 N2355 0.985 . S
H2360 N2354 0.984 . S
H2361 N2354 0.984 . S
H2362 N2350 0.984 . S
H2363 N2350 0.985 . S
C2364 C2365 1.363 1_545 S
C2364 C2370 1.379 . S
C2364 N2372 1.356 1_545 S
C2365 C2364 1.363 1_565 S
C2365 C2371 1.363 1_565 S
C2366 C2367 1.363 . S
C2366 C2371 1.379 . S
C2366 N2373 1.356 . S
C2367 C2366 1.363 . S
C2367 C2370 1.363 . S
N2368 C2370 1.356 . S
N2368 H2380 0.984 . S
N2368 H2381 0.985 . S
N2369 C2371 1.356 1_565 S
N2369 H2374 0.984 . S
N2369 H2375 0.985 . S
C2370 C2364 1.379 . S
C2370 C2367 1.363 . S
C2370 N2368 1.356 . S
C2371 C2365 1.363 1_545 S
C2371 C2366 1.379 . S
C2371 N2369 1.356 1_545 S
N2372 C2364 1.356 1_565 S
N2372 H2378 0.984 . S
N2372 H2379 0.984 . S
N2373 C2366 1.356 . S
N2373 H2376 0.984 . S
N2373 H2377 0.985 . S
H2374 N2369 0.984 . S
H2375 N2369 0.985 . S
H2376 N2373 0.984 . S
H2377 N2373 0.985 . S
H2378 N2372 0.984 . S
H2379 N2372 0.984 . S
H2380 N2368 0.984 . S
H2381 N2368 0.985 . S
C2382 C2383 1.363 . S
C2382 C2388 1.379 . S
C2382 N2390 1.356 . S
C2383 C2382 1.363 . S
C2383 C2389 1.363 . S
C2384 C2385 1.363 1_565 S
C2384 C2389 1.379 . S
C2384 N2391 1.356 1_565 S
C2385 C2384 1.363 1_545 S
C2385 C2388 1.363 1_545 S
N2386 C2388 1.356 1_545 S
N2386 H2398 0.984 . S
N2386 H2399 0.985 . S
N2387 C2389 1.356 . S
N2387 H2392 0.984 . S
N2387 H2393 0.985 . S
C2388 C2382 1.379 . S
C2388 C2385 1.363 1_565 S
C2388 N2386 1.356 1_565 S
C2389 C2383 1.363 . S
C2389 C2384 1.379 . S
C2389 N2387 1.356 . S
N2390 C2382 1.356 . S
N2390 H2396 0.984 . S
N2390 H2397 0.984 . S
N2391 C2384 1.356 1_545 S
N2391 H2394 0.984 . S
N2391 H2395 0.985 . S
H2392 N2387 0.984 . S
H2393 N2387 0.985 . S
H2394 N2391 0.984 . S
H2395 N2391 0.985 . S
H2396 N2390 0.984 . S
H2397 N2390 0.984 . S
H2398 N2386 0.984 . S
H2399 N2386 0.985 . S
C673 C594 1.341 . S
C675 C7 1.269 . S
C691 C23 1.541 . S
C693 C219 1.511 . S
C709 C34 1.288 . S
C711 C567 1.390 . S
C727 C50 1.517 . S
C729 C246 1.516 . S
C745 C624 1.597 . S
C747 C64 1.642 . S
C763 C77 1.436 . S
C765 C301 1.567 . S
C781 C93 1.665 . S
C783 C653 1.623 . S
C799 C105 1.455 . S
C801 C272 1.555 . S
C817 C49 1.245 . S
C819 C664 1.238 . S
C835 C8 1.484 . S
C837 C357 1.518 . S
C853 C373 1.361 . S
C855 C20 1.373 . S
C871 C37 1.610 . S
C873 C343 1.631 . S
C889 C78 1.757 . S
C891 C344 1.697 . S
C907 C90 1.546 . S
C909 C667 1.517 . S
C925 C106 1.658 . S
C927 C358 1.662 . S
C943 C63 1.397 . S
C945 C370 1.396 . S
C961 C552 1.213 . S
C963 C119 1.196 . S
C979 C135 1.706 . S
C981 C275 1.609 . S
C997 C120 1.490 . S
C999 C623 1.516 . S
C1015 C302 1.746 . S
C1017 C149 1.791 . S
C1033 C314 1.402 . S
C1035 C161 1.361 1_565 S
C1051 C581 1.287 . S
C1053 C176 1.285 . S
C1069 C597 1.430 . S
C1071 C188 1.455 . S
C1087 C568 1.439 . S
C1089 C202 1.417 . S
C1105 C468 1.335 . S
C1107 C217 1.259 . S
C1123 C233 1.546 . S
C1125 C9 1.512 . S
C1141 C244 1.367 . S
C1143 C441 1.487 . S
C1159 C36 1.474 . S
C1161 C260 1.501 . S
C1177 C274 1.631 . S
C1179 C499 1.605 . S
C1195 C91 1.578 . S
C1197 C286 1.448 . S
C1213 C303 1.636 . S
C1215 C527 1.614 . S
C1231 C62 1.545 . S
C1233 C315 1.450 . S
C1249 C538 1.287 . S
C1251 C259 1.274 . S
C1267 C218 1.506 . S
C1269 C147 1.541 . S
C1285 C163 1.328 . S
C1287 C230 1.340 . S
C1303 C133 1.609 . S
C1305 C247 1.584 . S
C1321 C134 1.704 . S
C1323 C289 1.752 . S
C1339 C300 1.553 . S
C1341 C541 1.524 . S
C1357 C148 1.712 . S
C1359 C316 1.705 . S
C1375 C273 1.379 . S
C1377 C160 1.377 . S
C1393 C329 1.259 . S
C1395 C426 1.295 . S
C1411 C345 1.680 . S
C1413 C65 1.583 . S
C1429 C330 1.459 . S
C1431 C496 1.483 . S
C1447 C359 1.741 . S
C1449 C92 1.681 . S
C1465 C371 1.330 1_545 S
C1467 C104 1.370 . S
C1483 C455 1.329 . S
C1485 C386 1.331 . S
C1501 C398 1.448 . S
C1503 C471 1.413 . S
C1519 C415 1.773 . S
C1521 C442 1.719 . S
C1537 C427 1.387 . S
C1539 C258 1.460 . S
C1555 C443 1.551 . S
C1557 C555 1.534 . S
C1573 C231 1.403 . S
C1575 C454 1.292 . S
C1591 C470 1.505 . S
C1593 C582 1.487 . S
C1609 C484 1.645 . S
C1611 C288 1.616 . S
C1627 C637 1.556 . S
C1629 C497 1.434 . S
C1645 C513 1.670 . S
C1647 C317 1.616 . S
C1663 C608 1.438 . S
C1665 C525 1.338 . S
C1681 C328 1.221 . S
C1683 C469 1.225 . S
C1699 C414 1.684 . S
C1701 C428 1.670 . S
C1717 C440 1.493 . S
C1719 C387 1.474 . S
C1735 C399 1.653 . S
C1737 C457 1.627 . S
C1753 C498 1.748 . S
C1755 C400 1.685 . S
C1771 C331 1.419 . S
C1773 C510 1.443 1_556 S
C1789 C526 1.471 . S
C1791 C413 1.504 . S
C1807 C483 1.418 . S
C1809 C384 1.416 . S
C1825 C539 1.210 . S
C1827 C216 1.229 . S
C1843 C191 1.651 . S
C1845 C611 1.567 . S
C1861 C287 1.517 . S
C1863 C540 1.500 . S
C1879 C638 1.662 . S
C1881 C205 1.719 . S
C1897 C650 1.378 . S
C1899 C175 1.337 . S
C1915 C162 1.319 . S
C1917 C245 1.312 . S
C1933 C132 1.502 . S
C1935 C261 1.466 . S
C1951 C232 1.506 . S
C1953 C146 1.476 . S
C1969 C553 1.272 . S
C1971 C48 1.347 . S
C1987 C429 1.536 . S
C1989 C569 1.587 . S
C2005 C580 1.279 . S
C2007 C21 1.381 . S
C2023 C596 1.558 . S
C2025 C456 1.498 . S
C2041 C79 1.630 . S
C2043 C610 1.649 . S
C2059 C622 1.358 . S
C2061 C511 1.470 . S
C2077 C639 1.663 . S
C2079 C107 1.625 . S
C2095 C482 1.555 . S
C2097 C651 1.459 . S
C2113 C595 1.259 . S
C2115 C118 1.254 . S
C2131 C203 1.482 . S
C2133 C554 1.448 . S
C2149 C177 1.357 . S
C2151 C566 1.369 . S
C2167 C583 1.631 . S
C2169 C189 1.650 . S
C2185 C625 1.788 . S
C2187 C190 1.715 . S
C2203 C121 1.549 . S
C2205 C636 1.581 . S
C2221 C204 1.642 . S
C2223 C652 1.637 . S
C2239 C609 1.377 . S
C2241 C174 1.359 . S
C2257 C6 1.240 . S
C2259 C665 1.221 . S
C2275 C401 1.709 . S
C2277 C485 1.621 . S
C2293 C76 1.505 . S
C2295 C666 1.485 . S
C2311 C512 1.457 . S
C2313 C412 1.429 . S
C2329 C524 1.313 . S
C2331 C385 1.291 . S
C2347 C372 1.303 . S
C2349 C35 1.303 . S
C2365 C342 1.483 . S
C2367 C51 1.455 . S
C2383 C22 1.491 . S
C2385 C356 1.455 . S
