# Generated by pormake.
# Topology unm, (4)-cn, num edge types: 1
# Building blocks:
#     Node 0, Type 0, BuildingBlock: AZAVOO_clean_sbu_0, # of connection points: 4
#     Node 1, Type 0, BuildingBlock: AZAVOO_clean_sbu_0, # of connection points: 4
#     Node 2, Type 0, BuildingBlock: AZAVOO_clean_sbu_0, # of connection points: 4
#     Node 3, Type 0, BuildingBlock: AZAVOO_clean_sbu_0, # of connection points: 4
#     Node 4, Type 0, BuildingBlock: AZAVOO_clean_sbu_0, # of connection points: 4
#     Node 5, Type 0, BuildingBlock: AZAVOO_clean_sbu_0, # of connection points: 4
#     Node 6, Type 0, BuildingBlock: AZAVOO_clean_sbu_0, # of connection points: 4
#     Node 7, Type 0, BuildingBlock: AZAVOO_clean_sbu_0, # of connection points: 4
#     Edge 8, Type (0, 0), BuildingBlock: OJICUG_clean_linker_0, # of connection points: 2
#     Edge 9, Type (0, 0), BuildingBlock: OJICUG_clean_linker_0, # of connection points: 2
#     Edge 10, Type (0, 0), BuildingBlock: OJICUG_clean_linker_0, # of connection points: 2
#     Edge 11, Type (0, 0), BuildingBlock: OJICUG_clean_linker_0, # of connection points: 2
#     Edge 12, Type (0, 0), BuildingBlock: OJICUG_clean_linker_0, # of connection points: 2
#     Edge 13, Type (0, 0), BuildingBlock: OJICUG_clean_linker_0, # of connection points: 2
#     Edge 14, Type (0, 0), BuildingBlock: OJICUG_clean_linker_0, # of connection points: 2
#     Edge 15, Type (0, 0), BuildingBlock: OJICUG_clean_linker_0, # of connection points: 2
#     Edge 16, Type (0, 0), BuildingBlock: OJICUG_clean_linker_0, # of connection points: 2
#     Edge 17, Type (0, 0), BuildingBlock: OJICUG_clean_linker_0, # of connection points: 2
#     Edge 18, Type (0, 0), BuildingBlock: OJICUG_clean_linker_0, # of connection points: 2
#     Edge 19, Type (0, 0), BuildingBlock: OJICUG_clean_linker_0, # of connection points: 2
#     Edge 20, Type (0, 0), BuildingBlock: OJICUG_clean_linker_0, # of connection points: 2
#     Edge 21, Type (0, 0), BuildingBlock: OJICUG_clean_linker_0, # of connection points: 2
#     Edge 22, Type (0, 0), BuildingBlock: OJICUG_clean_linker_0, # of connection points: 2
#     Edge 23, Type (0, 0), BuildingBlock: OJICUG_clean_linker_0, # of connection points: 2
# Relax obj value: 0.165
# Max RMSD: 0.155
# Mean RMSD: 0.155
data_MOF--net-unm--node1-AZAVOO_clean_sbu_0--edge1-OJICUG_clean_linker_0
_symmetry_space_group_name_H-M    P1
_symmetry_Int_Tables_number       1
_symmetry_cell_setting            triclinic
loop_
_symmetry_equiv_pos_as_xyz
'x, y, z'
_cell_length_a     17.428003
_cell_length_b     18.216354
_cell_length_c     35.222402
_cell_angle_alpha  89.619686
_cell_angle_beta   90.217163
_cell_angle_gamma 89.824262
loop_
_atom_site_label
_atom_site_type_symbol
_atom_site_fract_x
_atom_site_fract_y
_atom_site_fract_z
_atom_type_partial_charge
Mg0 Mg 0.14552 0.20596 0.08733 0.0
O1 O 0.11215 0.32322 0.06964 0.0
O2 O 0.20056 0.3693 0.0303 0.0
Mg3 Mg 0.29396 0.28075 0.02474 0.0
C4 C 0.13781 0.37483 0.04863 0.0
C5 C 0.0543 0.1796 0.16378 0.0
O6 O 0.11547 0.14144 0.1735 0.0
O7 O 0.23454 0.25245 0.12793 0.0
O8 O 0.32555 0.2918 0.08815 0.0
O9 O 0.08822 0.15876 0.03627 0.0
O10 O 0.2094 0.19502 0.03829 0.0
C11 C 0.30028 0.28092 0.12176 0.0
C12 C 0.15244 0.17027 0.01892 0.0
O13 O 0.05149 0.21046 0.13141 0.0
Mg14 Mg 0.35762 0.62564 0.59 0.0
O15 O 0.23736 0.58577 0.57255 0.0
O16 O 0.18041 0.67499 0.53883 0.0
Mg17 Mg 0.26856 0.76646 0.52971 0.0
C18 C 0.17937 0.6118 0.55468 0.0
C19 C 0.3489 0.47004 0.62802 0.0
O20 O 0.33199 0.45125 0.59303 0.0
O21 O 0.30482 0.70681 0.63161 0.0
O22 O 0.26014 0.79485 0.59282 0.0
O23 O 0.4103 0.57735 0.53784 0.0
O24 O 0.3643 0.69013 0.54179 0.0
C25 C 0.27311 0.76935 0.62612 0.0
C26 C 0.39558 0.63983 0.52155 0.0
O27 O 0.36304 0.53685 0.63535 0.0
Mg28 Mg 0.94495 0.81183 0.08467 0.0
O29 O 0.98502 0.69705 0.0673 0.0
O30 O 0.90406 0.64869 0.02515 0.0
Mg31 Mg 0.80681 0.73286 0.0179 0.0
C32 C 0.96475 0.64508 0.04541 0.0
C33 C 0.05142 0.86016 0.15316 0.0
O34 O 1.0072 0.91871 0.15307 0.0
O35 O 0.85398 0.76066 0.12307 0.0
O36 O 0.77077 0.71679 0.08025 0.0
O37 O 1.0018 0.86399 0.03445 0.0
O38 O 0.88214 0.82429 0.03493 0.0
C39 C 0.79119 0.72828 0.11462 0.0
C40 C 0.93771 0.85395 0.01651 0.0
O41 O 1.03785 0.80864 0.13001 0.0
Mg42 Mg 0.7214 0.42929 0.59045 0.0
O43 O 0.84165 0.46829 0.57285 0.0
O44 O 0.89697 0.38037 0.5384 0.0
Mg45 Mg 0.80739 0.29017 0.52933 0.0
C46 C 0.89891 0.44276 0.55463 0.0
C47 C 0.73392 0.58327 0.62855 0.0
O48 O 0.74973 0.60264 0.59344 0.0
O49 O 0.77442 0.34583 0.63161 0.0
O50 O 0.81791 0.2594 0.59229 0.0
O51 O 0.6688 0.48056 0.53844 0.0
O52 O 0.71275 0.36684 0.5421 0.0
C53 C 0.80596 0.28351 0.62575 0.0
C54 C 0.68246 0.41852 0.52196 0.0
O55 O 0.7188 0.51654 0.63598 0.0
Mg56 Mg 0.65909 0.33415 0.29372 0.0
O57 O 0.61562 0.21971 0.31093 0.0
O58 O 0.69065 0.17328 0.35694 0.0
Mg59 Mg 0.78627 0.25692 0.36734 0.0
C60 C 0.63317 0.16881 0.33453 0.0
C61 C 0.50701 0.32291 0.24856 0.0
O62 O 0.48272 0.31439 0.28357 0.0
O63 O 0.75544 0.2795 0.2607 0.0
O64 O 0.83217 0.23732 0.30709 0.0
O65 O 0.59223 0.38834 0.3402 0.0
O66 O 0.71043 0.34489 0.34629 0.0
C67 C 0.81657 0.24683 0.2719 0.0
C68 C 0.651 0.3741 0.3616 0.0
O69 O 0.5782 0.33308 0.24278 0.0
Mg70 Mg 0.22783 0.12353 0.78907 0.0
O71 O 0.35046 0.0857 0.80366 0.0
O72 O 0.40461 0.16703 0.84272 0.0
Mg73 Mg 0.31802 0.26058 0.85016 0.0
C74 C 0.40672 0.1075 0.8239 0.0
C75 C 0.23615 0.96951 0.75097 0.0
O76 O 0.25358 0.9502 0.78596 0.0
O77 O 0.27669 0.20688 0.74758 0.0
O78 O 0.32659 0.29054 0.78665 0.0
O79 O 0.18068 0.07074 0.84145 0.0
O80 O 0.22255 0.18497 0.83829 0.0
C81 C 0.31095 0.26771 0.75325 0.0
C82 C 0.19494 0.13215 0.85839 0.0
O83 O 0.22187 0.03653 0.74347 0.0
Mg84 Mg 0.44694 0.73228 0.29404 0.0
O85 O 0.48304 0.84844 0.31132 0.0
O86 O 0.40032 0.89401 0.35354 0.0
Mg87 Mg 0.30602 0.80774 0.36075 0.0
C88 C 0.46065 0.89949 0.33334 0.0
C89 C 0.55196 0.68473 0.22507 0.0
O90 O 0.50796 0.6263 0.22523 0.0
O91 O 0.35404 0.78176 0.25566 0.0
O92 O 0.27005 0.82388 0.29838 0.0
O93 O 0.50729 0.6817 0.34405 0.0
O94 O 0.38681 0.72062 0.34429 0.0
C95 C 0.29068 0.81327 0.26406 0.0
C96 C 0.44446 0.69352 0.36252 0.0
O97 O 0.53874 0.73619 0.24832 0.0
Mg98 Mg 0.86566 0.9258 0.78832 0.0
O99 O 0.74325 0.96257 0.80344 0.0
O100 O 0.69041 0.87991 0.84263 0.0
Mg101 Mg 0.7781 0.78683 0.85022 0.0
C102 C 0.68751 0.93991 0.82376 0.0
C103 C 0.85304 0.07999 0.74998 0.0
O104 O 0.83555 0.09772 0.78501 0.0
O105 O 0.81515 0.843 0.74734 0.0
O106 O 0.76726 0.75831 0.78685 0.0
O107 O 0.91524 0.97795 0.84038 0.0
O108 O 0.87111 0.86428 0.83768 0.0
C109 C 0.78133 0.78194 0.75332 0.0
C110 C 0.89904 0.91686 0.8575 0.0
O111 O 0.86957 1.01366 0.74245 0.0
C112 C 0.19228 0.21685 -0.04409 0.0
C113 C 0.15908 0.16108 -0.02222 0.0
H114 H 0.22735 0.25241 0.90108 0.0
C115 C 0.13559 0.09589 -0.03971 0.0
H116 H 0.20915 0.26822 -0.03131 0.0
C117 C 0.14795 0.08575 0.92142 0.0
C118 C 0.18225 0.14142 0.89951 0.0
H119 H 0.10982 0.05218 -0.02316 0.0
H120 H 0.13087 0.03449 0.90858 0.0
C121 C 0.2029 0.20752 0.91711 0.0
C122 C 0.39402 0.72199 0.46479 0.0
C123 C 0.4121 0.6534 0.48102 0.0
H124 H 0.39176 0.78856 0.41472 0.0
C125 C 0.44704 0.59957 0.45836 0.0
H126 H 0.36938 0.76557 0.48154 0.0
C127 C 0.46106 0.61359 0.41985 0.0
C128 C 0.4394 0.68111 0.40359 0.0
H129 H 0.46274 0.54657 0.47022 0.0
H130 H 0.48604 0.57091 0.40251 0.0
C131 C 0.407 0.73543 0.42645 0.0
C132 C 0.98759 0.90706 -0.04467 0.0
C133 C 0.92809 0.87377 -0.02395 0.0
H134 H 1.02415 0.94818 0.90096 0.0
C135 C 0.85755 0.86058 -0.04208 0.0
H136 H 1.04226 0.91881 -0.03134 0.0
C137 C 0.84771 0.87695 0.91959 0.0
C138 C 0.90763 0.90803 0.89868 0.0
H139 H 0.80967 0.83714 -0.02683 0.0
H140 H 0.79304 0.86531 0.90632 0.0
C141 C 0.97716 0.92453 0.91685 0.0
C142 C 0.63107 0.453 0.41849 0.0
C143 C 0.64893 0.38447 0.40279 0.0
H144 H 0.62879 0.51837 0.46901 0.0
C145 C 0.67227 0.32676 0.42658 0.0
H146 H 0.61313 0.49826 0.40041 0.0
C147 C 0.681 0.33783 0.46535 0.0
C148 C 0.66761 0.40728 0.48113 0.0
H149 H 0.68446 0.273 0.41518 0.0
H150 H 0.69932 0.29185 0.48279 0.0
C151 C 0.64069 0.46452 0.45753 0.0
C152 C 0.32588 0.28665 0.19191 0.0
C153 C 0.35118 0.29746 0.15443 0.0
H154 H 0.35507 0.28649 0.25097 0.0
C155 C 0.42725 0.32034 0.14838 0.0
H156 H 0.26768 0.26922 0.19767 0.0
C157 C 0.47746 0.32985 0.17895 0.0
C158 C 0.45272 0.3171 0.21631 0.0
H159 H 0.44878 0.32932 0.11993 0.0
H160 H 0.53602 0.34617 0.17322 0.0
C161 C 0.37606 0.29653 0.22251 0.0
C162 C 0.27603 0.79527 0.69615 0.0
C163 C 0.25581 0.81681 0.65901 0.0
H164 H 0.28542 0.82663 0.75449 0.0
C165 C 0.22364 0.88689 0.65309 0.0
H166 H 0.3007 0.74163 0.70175 0.0
C167 C 0.21526 0.93552 0.68319 0.0
C168 C 0.2385 0.91522 0.72 0.0
H169 H 0.20684 0.90528 0.62495 0.0
H170 H 0.1921 0.9897 0.67737 0.0
C171 C 0.26733 0.84402 0.72638 0.0
C172 C 0.61902 0.64838 0.16524 0.0
C173 C 0.61668 0.69112 0.19824 0.0
H174 H 0.6764 0.62656 0.11283 0.0
C175 C 0.67616 0.74139 0.2051 0.0
H176 H 0.57423 0.60894 0.15929 0.0
C177 C 0.7355 0.75041 0.17891 0.0
C178 C 0.73579 0.71034 0.14499 0.0
H179 H 0.67638 0.77454 0.23052 0.0
H180 H 0.77922 0.79113 0.1845 0.0
C181 C 0.67759 0.6584 0.1387 0.0
C182 C 0.80631 0.25494 0.6957 0.0
C183 C 0.82509 0.23497 0.65837 0.0
H184 H 0.80068 0.22167 0.75407 0.0
C185 C 0.85824 0.16562 0.65205 0.0
H186 H 0.78092 0.30797 0.70161 0.0
C187 C 0.86929 0.11626 0.68201 0.0
C188 C 0.84773 0.13504 0.71906 0.0
H189 H 0.87397 0.14842 0.62374 0.0
H190 H 0.89325 0.0627 0.6759 0.0
C191 C 0.81761 0.20545 0.72577 0.0
C192 C 0.86592 0.24396 0.20521 0.0
C193 C 0.8739 0.22325 0.24351 0.0
H194 H 0.91655 0.24643 0.15008 0.0
C195 C 0.93966 0.18358 0.25483 0.0
H196 H 0.81603 0.27437 0.19545 0.0
C197 C 0.99737 0.16734 0.22873 0.0
C198 C 0.99072 0.1908 0.19082 0.0
H199 H 0.94747 0.16631 0.28408 0.0
H200 H 0.04803 0.13817 0.23853 0.0
C201 C 0.92377 0.22809 0.17919 0.0
C202 C 0.36855 0.43513 0.69609 0.0
C203 C 0.34606 0.41543 0.65921 0.0
H204 H 0.37607 0.40391 0.75449 0.0
C205 C 0.31746 0.34448 0.65293 0.0
H206 H 0.39142 0.48918 0.70184 0.0
C207 C 0.30844 0.29534 0.68326 0.0
C208 C 0.32811 0.31615 0.72043 0.0
H209 H 0.29988 0.32755 0.6248 0.0
H210 H 0.28414 0.24182 0.67766 0.0
C211 C 0.35985 0.38606 0.72632 0.0
C212 C 0.23487 0.79243 0.19955 0.0
C213 C 0.2353 0.83202 0.2336 0.0
H214 H 0.17557 0.76957 0.14768 0.0
C215 C 0.1775 0.88463 0.23985 0.0
H216 H 0.27837 0.7513 0.194 0.0
C217 C 0.11902 0.8957 0.21313 0.0
C218 C 0.1164 0.85329 0.18003 0.0
H219 H 0.17658 0.9162 0.2658 0.0
H220 H 0.07447 0.93557 0.21904 0.0
C221 C 0.17559 0.80246 0.17319 0.0
C222 C 0.71872 0.61658 0.69678 0.0
C223 C 0.73937 0.63699 0.65969 0.0
H224 H 0.71489 0.64636 0.75523 0.0
C225 C 0.76871 0.7077 0.65313 0.0
H226 H 0.69538 0.5627 0.70276 0.0
C227 C 0.78013 0.75591 0.68335 0.0
C228 C 0.76219 0.73439 0.7207 0.0
H229 H 0.78494 0.72514 0.62483 0.0
H230 H 0.80483 0.80928 0.67751 0.0
C231 C 0.72985 0.66473 0.72691 0.0
C232 C 1.03981 0.54887 0.07998 0.0
C233 C 1.01067 0.57681 0.04555 0.0
H234 H 0.10128 0.46151 0.10783 0.0
C235 C 1.02446 0.53819 0.01182 0.0
H236 H 1.02952 0.57737 0.10639 0.0
C237 C 0.06765 0.47312 0.01255 0.0
C238 C 0.09504 0.44457 0.04716 0.0
H239 H 1.00261 0.55875 -0.01506 0.0
H240 H 0.07819 0.44428 -0.01373 0.0
C241 C 0.08048 0.48266 0.08086 0.0
C242 C 0.96809 0.56306 0.55317 0.0
C243 C 0.97061 0.48597 0.55333 0.0
H244 H 1.0323 0.66324 0.55253 0.0
C245 C 1.04235 0.45047 0.55323 0.0
H246 H 0.91357 0.59181 0.55321 0.0
C247 C 0.11027 0.49128 0.55384 0.0
C248 C 0.10775 0.56839 0.5534 0.0
H249 H 0.04595 0.39109 0.55363 0.0
H250 H 0.16478 0.46252 0.55441 0.0
C251 C 1.03598 0.60386 0.55263 0.0
C252 C 0.56631 0.06849 0.30005 0.0
C253 C 0.58755 0.10084 0.33457 0.0
H254 H 0.51125 0.97771 0.2728 0.0
C255 C 0.56655 0.06674 0.36886 0.0
H256 H 0.58229 0.09363 0.27327 0.0
C257 C 0.52386 1.00173 0.36858 0.0
C258 C 0.50428 0.96857 0.33402 0.0
H259 H 0.58232 0.09087 0.39581 0.0
H260 H 0.50749 0.97659 0.3953 0.0
C261 C 0.5262 1.00219 0.29978 0.0
C262 C 0.51347 0.04576 0.78976 0.0
C263 C 0.47802 0.06401 0.82415 0.0
H264 H 0.60957 0.99389 0.76291 0.0
C265 C 0.51194 0.0416 0.85855 0.0
H266 H 0.48835 0.06291 0.76293 0.0
C267 C 0.57973 1.00011 0.8585 0.0
C268 C 0.61597 0.98312 0.8241 0.0
H269 H 0.48536 0.0552 0.88536 0.0
H270 H 0.60455 0.98238 0.88529 0.0
C271 C 0.58271 1.00678 0.78976 0.0
loop_
_geom_bond_atom_site_label_1
_geom_bond_atom_site_label_2
_geom_bond_distance
_geom_bond_site_symmetry_2
_ccdc_geom_bond_type
Mg0 O1 2.028 . S
Mg0 O7 1.986 . S
Mg0 O9 2.114 . S
Mg0 O10 2.251 . S
Mg0 O13 2.010 1_455 S
O1 Mg0 2.028 . S
O1 C4 1.250 . S
O2 Mg3 2.028 . S
O2 C4 1.248 . S
Mg3 O2 2.028 . S
Mg3 O8 2.032 . S
Mg3 O10 2.079 . S
C4 O1 1.250 . S
C4 O2 1.248 . S
C5 O6 1.264 . S
C5 O13 1.249 . S
O6 C5 1.264 . S
O7 Mg0 1.986 . S
O7 C11 1.246 . S
O8 Mg3 2.032 . S
O8 C11 1.259 . S
O9 Mg0 2.114 . S
O9 C12 1.252 . S
O10 Mg0 2.251 . S
O10 Mg3 2.079 . S
O10 C12 1.273 . S
C11 O7 1.246 . S
C11 O8 1.259 . S
C12 O9 1.252 . S
C12 O10 1.273 . S
O13 Mg0 2.010 1_655 S
O13 C5 1.249 . S
Mg14 O15 2.028 . S
Mg14 O21 1.986 . S
Mg14 O23 2.114 . S
Mg14 O24 2.251 . S
Mg14 O27 2.010 . S
O15 Mg14 2.028 . S
O15 C18 1.250 . S
O16 Mg17 2.028 . S
O16 C18 1.248 . S
Mg17 O16 2.028 . S
Mg17 O22 2.032 . S
Mg17 O24 2.079 . S
C18 O15 1.250 . S
C18 O16 1.248 . S
C19 O20 1.264 . S
C19 O27 1.249 . S
O20 C19 1.264 . S
O21 Mg14 1.986 . S
O21 C25 1.246 . S
O22 Mg17 2.032 . S
O22 C25 1.259 . S
O23 Mg14 2.114 . S
O23 C26 1.252 . S
O24 Mg14 2.251 . S
O24 Mg17 2.079 . S
O24 C26 1.273 . S
C25 O21 1.246 . S
C25 O22 1.259 . S
C26 O23 1.252 . S
C26 O24 1.273 . S
O27 Mg14 2.010 . S
O27 C19 1.249 . S
Mg28 O29 2.028 . S
Mg28 O35 1.986 . S
Mg28 O37 2.114 . S
Mg28 O38 2.251 . S
Mg28 O41 2.010 1_655 S
O29 Mg28 2.028 . S
O29 C32 1.250 . S
O30 Mg31 2.028 . S
O30 C32 1.248 . S
Mg31 O30 2.028 . S
Mg31 O36 2.032 . S
Mg31 O38 2.079 . S
C32 O29 1.250 . S
C32 O30 1.248 . S
C33 O34 1.264 . S
C33 O41 1.249 . S
O34 C33 1.264 . S
O35 Mg28 1.986 . S
O35 C39 1.246 . S
O36 Mg31 2.032 . S
O36 C39 1.259 . S
O37 Mg28 2.114 . S
O37 C40 1.252 . S
O38 Mg28 2.251 . S
O38 Mg31 2.079 . S
O38 C40 1.273 . S
C39 O35 1.246 . S
C39 O36 1.259 . S
C40 O37 1.252 . S
C40 O38 1.273 . S
O41 Mg28 2.010 1_455 S
O41 C33 1.249 . S
Mg42 O43 2.028 . S
Mg42 O49 1.986 . S
Mg42 O51 2.114 . S
Mg42 O52 2.251 . S
Mg42 O55 2.010 . S
O43 Mg42 2.028 . S
O43 C46 1.250 . S
O44 Mg45 2.028 . S
O44 C46 1.248 . S
Mg45 O44 2.028 . S
Mg45 O50 2.032 . S
Mg45 O52 2.079 . S
C46 O43 1.250 . S
C46 O44 1.248 . S
C47 O48 1.264 . S
C47 O55 1.249 . S
O48 C47 1.264 . S
O49 Mg42 1.986 . S
O49 C53 1.246 . S
O50 Mg45 2.032 . S
O50 C53 1.259 . S
O51 Mg42 2.114 . S
O51 C54 1.252 . S
O52 Mg42 2.251 . S
O52 Mg45 2.079 . S
O52 C54 1.273 . S
C53 O49 1.246 . S
C53 O50 1.259 . S
C54 O51 1.252 . S
C54 O52 1.273 . S
O55 Mg42 2.010 . S
O55 C47 1.249 . S
Mg56 O57 2.028 . S
Mg56 O63 1.986 . S
Mg56 O65 2.114 . S
Mg56 O66 2.251 . S
Mg56 O69 2.010 . S
O57 Mg56 2.028 . S
O57 C60 1.250 . S
O58 Mg59 2.028 . S
O58 C60 1.248 . S
Mg59 O58 2.028 . S
Mg59 O64 2.032 . S
Mg59 O66 2.079 . S
C60 O57 1.250 . S
C60 O58 1.248 . S
C61 O62 1.264 . S
C61 O69 1.249 . S
O62 C61 1.264 . S
O63 Mg56 1.986 . S
O63 C67 1.246 . S
O64 Mg59 2.032 . S
O64 C67 1.259 . S
O65 Mg56 2.114 . S
O65 C68 1.252 . S
O66 Mg56 2.251 . S
O66 Mg59 2.079 . S
O66 C68 1.273 . S
C67 O63 1.246 . S
C67 O64 1.259 . S
C68 O65 1.252 . S
C68 O66 1.273 . S
O69 Mg56 2.010 . S
O69 C61 1.249 . S
Mg70 O71 2.028 . S
Mg70 O77 1.986 . S
Mg70 O79 2.114 . S
Mg70 O80 2.251 . S
Mg70 O83 2.010 1_545 S
O71 Mg70 2.028 . S
O71 C74 1.250 . S
O72 Mg73 2.028 . S
O72 C74 1.248 . S
Mg73 O72 2.028 . S
Mg73 O78 2.032 . S
Mg73 O80 2.079 . S
C74 O71 1.250 . S
C74 O72 1.248 . S
C75 O76 1.264 . S
C75 O83 1.249 . S
O76 C75 1.264 . S
O77 Mg70 1.986 . S
O77 C81 1.246 . S
O78 Mg73 2.032 . S
O78 C81 1.259 . S
O79 Mg70 2.114 . S
O79 C82 1.252 . S
O80 Mg70 2.251 . S
O80 Mg73 2.079 . S
O80 C82 1.273 . S
C81 O77 1.246 . S
C81 O78 1.259 . S
C82 O79 1.252 . S
C82 O80 1.273 . S
O83 Mg70 2.010 1_565 S
O83 C75 1.249 . S
Mg84 O85 2.028 . S
Mg84 O91 1.986 . S
Mg84 O93 2.114 . S
Mg84 O94 2.251 . S
Mg84 O97 2.010 . S
O85 Mg84 2.028 . S
O85 C88 1.250 . S
O86 Mg87 2.028 . S
O86 C88 1.248 . S
Mg87 O86 2.028 . S
Mg87 O92 2.032 . S
Mg87 O94 2.079 . S
C88 O85 1.250 . S
C88 O86 1.248 . S
C89 O90 1.264 . S
C89 O97 1.249 . S
O90 C89 1.264 . S
O91 Mg84 1.986 . S
O91 C95 1.246 . S
O92 Mg87 2.032 . S
O92 C95 1.259 . S
O93 Mg84 2.114 . S
O93 C96 1.252 . S
O94 Mg84 2.251 . S
O94 Mg87 2.079 . S
O94 C96 1.273 . S
C95 O91 1.246 . S
C95 O92 1.259 . S
C96 O93 1.252 . S
C96 O94 1.273 . S
O97 Mg84 2.010 . S
O97 C89 1.249 . S
Mg98 O99 2.028 . S
Mg98 O105 1.986 . S
Mg98 O107 2.114 . S
Mg98 O108 2.251 . S
Mg98 O111 2.010 1_565 S
O99 Mg98 2.028 . S
O99 C102 1.250 . S
O100 Mg101 2.028 . S
O100 C102 1.248 . S
Mg101 O100 2.028 . S
Mg101 O106 2.032 . S
Mg101 O108 2.079 . S
C102 O99 1.250 . S
C102 O100 1.248 . S
C103 O104 1.264 . S
C103 O111 1.249 . S
O104 C103 1.264 . S
O105 Mg98 1.986 . S
O105 C109 1.246 . S
O106 Mg101 2.032 . S
O106 C109 1.259 . S
O107 Mg98 2.114 . S
O107 C110 1.252 . S
O108 Mg98 2.251 . S
O108 Mg101 2.079 . S
O108 C110 1.273 . S
C109 O105 1.246 . S
C109 O106 1.259 . S
C110 O107 1.252 . S
C110 O108 1.273 . S
O111 Mg98 2.010 1_545 S
O111 C103 1.249 . S
C112 C113 1.387 . S
C112 H116 0.950 . S
C112 C121 1.390 1_554 S
C113 C112 1.387 . S
C113 C115 1.387 . S
H114 C121 0.950 . S
C115 C113 1.387 . S
C115 C117 1.390 1_554 S
C115 H119 0.950 . S
H116 C112 0.950 . S
C117 C115 1.390 1_556 S
C117 C118 1.387 . S
C117 H120 0.950 . S
C118 C117 1.387 . S
C118 C121 1.387 . S
H119 C115 0.950 . S
H120 C117 0.950 . S
C121 C112 1.390 1_556 S
C121 H114 0.950 . S
C121 C118 1.387 . S
C122 C123 1.387 . S
C122 H126 0.950 . S
C122 C131 1.390 . S
C123 C122 1.387 . S
C123 C125 1.387 . S
H124 C131 0.950 . S
C125 C123 1.387 . S
C125 C127 1.390 . S
C125 H129 0.950 . S
H126 C122 0.950 . S
C127 C125 1.390 . S
C127 C128 1.387 . S
C127 H130 0.950 . S
C128 C127 1.387 . S
C128 C131 1.387 . S
H129 C125 0.950 . S
H130 C127 0.950 . S
C131 C122 1.390 . S
C131 H124 0.950 . S
C131 C128 1.387 . S
C132 C133 1.387 1_556 S
C132 H136 0.950 . S
C132 C141 1.390 . S
C133 C132 1.387 1_554 S
C133 C135 1.387 . S
H134 C141 0.950 . S
C135 C133 1.387 . S
C135 C137 1.390 . S
C135 H139 0.950 . S
H136 C132 0.950 . S
C137 C135 1.390 . S
C137 C138 1.387 1_554 S
C137 H140 0.950 . S
C138 C137 1.387 1_556 S
C138 C141 1.387 . S
H139 C135 0.950 . S
H140 C137 0.950 . S
C141 C132 1.390 . S
C141 H134 0.950 . S
C141 C138 1.387 . S
C142 C143 1.387 . S
C142 H146 0.950 . S
C142 C151 1.390 . S
C143 C142 1.387 . S
C143 C145 1.387 . S
H144 C151 0.950 . S
C145 C143 1.387 . S
C145 C147 1.390 . S
C145 H149 0.950 . S
H146 C142 0.950 . S
C147 C145 1.390 . S
C147 C148 1.387 . S
C147 H150 0.950 . S
C148 C147 1.387 . S
C148 C151 1.387 . S
H149 C145 0.950 . S
H150 C147 0.950 . S
C151 C142 1.390 . S
C151 H144 0.950 . S
C151 C148 1.387 . S
C152 C153 1.387 . S
C152 H156 0.950 . S
C152 C161 1.390 . S
C153 C152 1.387 . S
C153 C155 1.387 . S
H154 C161 0.950 . S
C155 C153 1.387 . S
C155 C157 1.390 . S
C155 H159 0.950 . S
H156 C152 0.950 . S
C157 C155 1.390 . S
C157 C158 1.387 . S
C157 H160 0.950 . S
C158 C157 1.387 . S
C158 C161 1.387 . S
H159 C155 0.950 . S
H160 C157 0.950 . S
C161 C152 1.390 . S
C161 H154 0.950 . S
C161 C158 1.387 . S
C162 C163 1.387 . S
C162 H166 0.950 . S
C162 C171 1.390 . S
C163 C162 1.387 . S
C163 C165 1.387 . S
H164 C171 0.950 . S
C165 C163 1.387 . S
C165 C167 1.390 . S
C165 H169 0.950 . S
H166 C162 0.950 . S
C167 C165 1.390 . S
C167 C168 1.387 . S
C167 H170 0.950 . S
C168 C167 1.387 . S
C168 C171 1.387 . S
H169 C165 0.950 . S
H170 C167 0.950 . S
C171 C162 1.390 . S
C171 H164 0.950 . S
C171 C168 1.387 . S
C172 C173 1.387 . S
C172 H176 0.950 . S
C172 C181 1.390 . S
C173 C172 1.387 . S
C173 C175 1.387 . S
H174 C181 0.950 . S
C175 C173 1.387 . S
C175 C177 1.390 . S
C175 H179 0.950 . S
H176 C172 0.950 . S
C177 C175 1.390 . S
C177 C178 1.387 . S
C177 H180 0.950 . S
C178 C177 1.387 . S
C178 C181 1.387 . S
H179 C175 0.950 . S
H180 C177 0.950 . S
C181 C172 1.390 . S
C181 H174 0.950 . S
C181 C178 1.387 . S
C182 C183 1.387 . S
C182 H186 0.950 . S
C182 C191 1.390 . S
C183 C182 1.387 . S
C183 C185 1.387 . S
H184 C191 0.950 . S
C185 C183 1.387 . S
C185 C187 1.390 . S
C185 H189 0.950 . S
H186 C182 0.950 . S
C187 C185 1.390 . S
C187 C188 1.387 . S
C187 H190 0.950 . S
C188 C187 1.387 . S
C188 C191 1.387 . S
H189 C185 0.950 . S
H190 C187 0.950 . S
C191 C182 1.390 . S
C191 H184 0.950 . S
C191 C188 1.387 . S
C192 C193 1.387 . S
C192 H196 0.950 . S
C192 C201 1.390 . S
C193 C192 1.387 . S
C193 C195 1.387 . S
H194 C201 0.950 . S
C195 C193 1.387 . S
C195 C197 1.390 . S
C195 H199 0.950 . S
H196 C192 0.950 . S
C197 C195 1.390 . S
C197 C198 1.387 . S
C197 H200 0.950 . S
C198 C197 1.387 . S
C198 C201 1.387 . S
H199 C195 0.950 . S
H200 C197 0.950 . S
C201 C192 1.390 . S
C201 H194 0.950 . S
C201 C198 1.387 . S
C202 C203 1.387 . S
C202 H206 0.950 . S
C202 C211 1.390 . S
C203 C202 1.387 . S
C203 C205 1.387 . S
H204 C211 0.950 . S
C205 C203 1.387 . S
C205 C207 1.390 . S
C205 H209 0.950 . S
H206 C202 0.950 . S
C207 C205 1.390 . S
C207 C208 1.387 . S
C207 H210 0.950 . S
C208 C207 1.387 . S
C208 C211 1.387 . S
H209 C205 0.950 . S
H210 C207 0.950 . S
C211 C202 1.390 . S
C211 H204 0.950 . S
C211 C208 1.387 . S
C212 C213 1.387 . S
C212 H216 0.950 . S
C212 C221 1.390 . S
C213 C212 1.387 . S
C213 C215 1.387 . S
H214 C221 0.950 . S
C215 C213 1.387 . S
C215 C217 1.390 . S
C215 H219 0.950 . S
H216 C212 0.950 . S
C217 C215 1.390 . S
C217 C218 1.387 . S
C217 H220 0.950 . S
C218 C217 1.387 . S
C218 C221 1.387 . S
H219 C215 0.950 . S
H220 C217 0.950 . S
C221 C212 1.390 . S
C221 H214 0.950 . S
C221 C218 1.387 . S
C222 C223 1.387 . S
C222 H226 0.950 . S
C222 C231 1.390 . S
C223 C222 1.387 . S
C223 C225 1.387 . S
H224 C231 0.950 . S
C225 C223 1.387 . S
C225 C227 1.390 . S
C225 H229 0.950 . S
H226 C222 0.950 . S
C227 C225 1.390 . S
C227 C228 1.387 . S
C227 H230 0.950 . S
C228 C227 1.387 . S
C228 C231 1.387 . S
H229 C225 0.950 . S
H230 C227 0.950 . S
C231 C222 1.390 . S
C231 H224 0.950 . S
C231 C228 1.387 . S
C232 C233 1.387 . S
C232 H236 0.950 . S
C232 C241 1.390 1_655 S
C233 C232 1.387 . S
C233 C235 1.387 . S
H234 C241 0.950 . S
C235 C233 1.387 . S
C235 C237 1.390 1_655 S
C235 H239 0.950 . S
H236 C232 0.950 . S
C237 C235 1.390 1_455 S
C237 C238 1.387 . S
C237 H240 0.950 . S
C238 C237 1.387 . S
C238 C241 1.387 . S
H239 C235 0.950 . S
H240 C237 0.950 . S
C241 C232 1.390 1_455 S
C241 H234 0.950 . S
C241 C238 1.387 . S
C242 C243 1.387 . S
C242 H246 0.950 . S
C242 C251 1.390 1_655 S
C243 C242 1.387 . S
C243 C245 1.387 . S
H244 C251 0.950 . S
C245 C243 1.387 . S
C245 C247 1.390 1_655 S
C245 H249 0.950 . S
H246 C242 0.950 . S
C247 C245 1.390 1_455 S
C247 C248 1.387 . S
C247 H250 0.950 . S
C248 C247 1.387 . S
C248 C251 1.387 . S
H249 C245 0.950 . S
H250 C247 0.950 . S
C251 C242 1.390 1_455 S
C251 H244 0.950 . S
C251 C248 1.387 . S
C252 C253 1.387 . S
C252 H256 0.950 . S
C252 C261 1.390 1_545 S
C253 C252 1.387 . S
C253 C255 1.387 . S
H254 C261 0.950 . S
C255 C253 1.387 . S
C255 C257 1.390 1_545 S
C255 H259 0.950 . S
H256 C252 0.950 . S
C257 C255 1.390 1_565 S
C257 C258 1.387 . S
C257 H260 0.950 . S
C258 C257 1.387 . S
C258 C261 1.387 . S
H259 C255 0.950 . S
H260 C257 0.950 . S
C261 C252 1.390 1_565 S
C261 H254 0.950 . S
C261 C258 1.387 . S
C262 C263 1.387 . S
C262 H266 0.950 . S
C262 C271 1.390 1_545 S
C263 C262 1.387 . S
C263 C265 1.387 . S
H264 C271 0.950 . S
C265 C263 1.387 . S
C265 C267 1.390 1_545 S
C265 H269 0.950 . S
H266 C262 0.950 . S
C267 C265 1.390 1_565 S
C267 C268 1.387 . S
C267 H270 0.950 . S
C268 C267 1.387 . S
C268 C271 1.387 . S
H269 C265 0.950 . S
H270 C267 0.950 . S
C271 C262 1.390 1_565 S
C271 H264 0.950 . S
C271 C268 1.387 . S
C113 C12 1.463 . S
C118 C82 1.463 . S
C123 C26 1.463 . S
C128 C96 1.463 . S
C133 C40 1.462 . S
C138 C110 1.462 . S
C143 C68 1.461 . S
C148 C54 1.462 . S
C153 C11 1.435 . S
C158 C61 1.427 . S
C163 C25 1.435 . S
C168 C75 1.427 . S
C173 C89 1.425 . S
C178 C39 1.437 . S
C183 C53 1.435 . S
C188 C103 1.427 . S
C193 C67 1.438 . S
C198 C5 1.425 . S
C203 C19 1.424 . S
C208 C81 1.438 . S
C213 C95 1.437 . S
C218 C33 1.425 . S
C223 C47 1.424 . S
C228 C109 1.438 . S
C233 C32 1.142 . S
C238 C4 1.142 . S
C243 C46 1.141 . S
C248 C18 1.141 . S
C253 C60 1.142 . S
C258 C88 1.142 . S
C263 C74 1.142 . S
C268 C102 1.142 . S
