# Generated by pormake.
# Topology lhb, (8)-cn, num edge types: 1
# Building blocks:
#     Node 0, Type 0, BuildingBlock: VETTIZ_charged_sbu_0, # of connection points: 8
#     Node 1, Type 0, BuildingBlock: VETTIZ_charged_sbu_0, # of connection points: 8
#     Node 2, Type 0, BuildingBlock: VETTIZ_charged_sbu_0, # of connection points: 8
#     Node 3, Type 0, BuildingBlock: VETTIZ_charged_sbu_0, # of connection points: 8
#     Node 4, Type 0, BuildingBlock: VETTIZ_charged_sbu_0, # of connection points: 8
#     Node 5, Type 0, BuildingBlock: VETTIZ_charged_sbu_0, # of connection points: 8
#     Node 6, Type 0, BuildingBlock: VETTIZ_charged_sbu_0, # of connection points: 8
#     Node 7, Type 0, BuildingBlock: VETTIZ_charged_sbu_0, # of connection points: 8
#     Edge 8, Type (0, 0), BuildingBlock: UVAHIK_clean_linker_0, # of connection points: 2
#     Edge 9, Type (0, 0), BuildingBlock: UVAHIK_clean_linker_0, # of connection points: 2
#     Edge 10, Type (0, 0), BuildingBlock: UVAHIK_clean_linker_0, # of connection points: 2
#     Edge 11, Type (0, 0), BuildingBlock: UVAHIK_clean_linker_0, # of connection points: 2
#     Edge 12, Type (0, 0), BuildingBlock: UVAHIK_clean_linker_0, # of connection points: 2
#     Edge 13, Type (0, 0), BuildingBlock: UVAHIK_clean_linker_0, # of connection points: 2
#     Edge 14, Type (0, 0), BuildingBlock: UVAHIK_clean_linker_0, # of connection points: 2
#     Edge 15, Type (0, 0), BuildingBlock: UVAHIK_clean_linker_0, # of connection points: 2
#     Edge 16, Type (0, 0), BuildingBlock: UVAHIK_clean_linker_0, # of connection points: 2
#     Edge 17, Type (0, 0), BuildingBlock: UVAHIK_clean_linker_0, # of connection points: 2
#     Edge 18, Type (0, 0), BuildingBlock: UVAHIK_clean_linker_0, # of connection points: 2
#     Edge 19, Type (0, 0), BuildingBlock: UVAHIK_clean_linker_0, # of connection points: 2
#     Edge 20, Type (0, 0), BuildingBlock: UVAHIK_clean_linker_0, # of connection points: 2
#     Edge 21, Type (0, 0), BuildingBlock: UVAHIK_clean_linker_0, # of connection points: 2
#     Edge 22, Type (0, 0), BuildingBlock: UVAHIK_clean_linker_0, # of connection points: 2
#     Edge 23, Type (0, 0), BuildingBlock: UVAHIK_clean_linker_0, # of connection points: 2
#     Edge 24, Type (0, 0), BuildingBlock: UVAHIK_clean_linker_0, # of connection points: 2
#     Edge 25, Type (0, 0), BuildingBlock: UVAHIK_clean_linker_0, # of connection points: 2
#     Edge 26, Type (0, 0), BuildingBlock: UVAHIK_clean_linker_0, # of connection points: 2
#     Edge 27, Type (0, 0), BuildingBlock: UVAHIK_clean_linker_0, # of connection points: 2
#     Edge 28, Type (0, 0), BuildingBlock: UVAHIK_clean_linker_0, # of connection points: 2
#     Edge 29, Type (0, 0), BuildingBlock: UVAHIK_clean_linker_0, # of connection points: 2
#     Edge 30, Type (0, 0), BuildingBlock: UVAHIK_clean_linker_0, # of connection points: 2
#     Edge 31, Type (0, 0), BuildingBlock: UVAHIK_clean_linker_0, # of connection points: 2
#     Edge 32, Type (0, 0), BuildingBlock: UVAHIK_clean_linker_0, # of connection points: 2
#     Edge 33, Type (0, 0), BuildingBlock: UVAHIK_clean_linker_0, # of connection points: 2
#     Edge 34, Type (0, 0), BuildingBlock: UVAHIK_clean_linker_0, # of connection points: 2
#     Edge 35, Type (0, 0), BuildingBlock: UVAHIK_clean_linker_0, # of connection points: 2
#     Edge 36, Type (0, 0), BuildingBlock: UVAHIK_clean_linker_0, # of connection points: 2
#     Edge 37, Type (0, 0), BuildingBlock: UVAHIK_clean_linker_0, # of connection points: 2
#     Edge 38, Type (0, 0), BuildingBlock: UVAHIK_clean_linker_0, # of connection points: 2
#     Edge 39, Type (0, 0), BuildingBlock: UVAHIK_clean_linker_0, # of connection points: 2
# Relax obj value: 0.196
# Max RMSD: 0.257
# Mean RMSD: 0.257
data_MOF--net-lhb--node1-VETTIZ_charged_sbu_0--edge1-UVAHIK_clean_linker_0
_symmetry_space_group_name_H-M    P1
_symmetry_Int_Tables_number       1
_symmetry_cell_setting            triclinic
loop_
_symmetry_equiv_pos_as_xyz
'x, y, z'
_cell_length_a     38.427545
_cell_length_b     20.326381
_cell_length_c     69.969245
_cell_angle_alpha  90.865368
_cell_angle_beta   89.769285
_cell_angle_gamma 90.492693
loop_
_atom_site_label
_atom_site_type_symbol
_atom_site_fract_x
_atom_site_fract_y
_atom_site_fract_z
_atom_type_partial_charge
Fe0 Fe 0.95382 0.91159 0.98686 0.0
O1 O 0.97879 0.96296 1.00643 0.0
Fe2 Fe 0.02481 0.01076 0.99867 0.0
Fe3 Fe 0.99396 0.9279 0.03162 0.0
O4 O 0.98027 0.96531 1.00494 0.0
O5 O 0.04111 0.97254 0.02329 0.0
O6 O 0.03945 0.9698 0.02497 0.0
Fe7 Fe 0.06435 0.02584 0.04346 0.0
C8 C 0.91515 0.89654 0.02493 0.0
O9 O 0.966 0.82394 0.99876 0.0
O10 O 0.01009 0.84225 0.01898 0.0
O11 O 0.1036 0.02649 0.02315 0.0
O12 O 0.07448 0.05459 0.99567 0.0
O13 O 0.04336 0.92996 0.98385 0.0
O14 O 0.99551 0.89865 0.96804 0.0
O15 O 0.01701 0.89788 0.05787 0.0
O16 O 0.07342 0.93597 0.05532 0.0
C17 C 0.02846 0.89719 0.97049 0.0
O18 O 0.04988 0.11414 0.03254 0.0
O19 O 1.00603 0.09087 1.01289 0.0
O20 O 0.91465 0.91642 1.00731 0.0
O21 O 0.94329 0.88913 0.03508 0.0
C22 C 0.99174 0.80421 1.00845 0.0
C23 C 0.04926 0.90239 0.06388 0.0
C24 C 0.9899 0.03192 0.06055 0.0
O25 O 0.97669 0.01205 0.04489 0.0
O26 O 0.02284 0.03196 0.06282 0.0
C27 C 0.10275 0.04802 1.00574 0.0
O28 O 1.00091 0.04706 0.97365 0.0
O29 O 0.94577 0.00109 0.97417 0.0
C30 C 0.02112 0.1286 0.02487 0.0
C31 C 0.96842 0.04392 0.96819 0.0
Fe32 Fe 0.236 0.28634 0.24838 0.0
O33 O 0.27879 0.23375 0.25165 0.0
Fe34 Fe 0.20111 0.28835 0.29469 0.0
Fe35 Fe 0.30041 0.18407 0.23088 0.0
O36 O 0.22028 0.24127 0.27222 0.0
O37 O 0.22187 0.23807 0.27371 0.0
O38 O 0.28023 0.23044 0.25306 0.0
Fe39 Fe 0.26489 0.18604 0.27708 0.0
C40 C 0.22491 0.1837 0.21732 0.0
O41 O 0.25942 0.32924 0.22389 0.0
O42 O 0.31228 0.27695 0.22123 0.0
O43 O 0.28807 0.25922 0.2931 0.0
O44 O 0.24406 0.2811 0.31263 0.0
O45 O 0.21849 0.37889 0.28624 0.0
O46 O 0.25905 0.35973 0.26408 0.0
O47 O 0.34072 0.17496 0.24983 0.0
O48 O 0.31305 0.13771 0.27715 0.0
C49 C 0.24476 0.39688 0.27647 0.0
O50 O 0.24204 0.14698 0.30256 0.0
O51 O 0.18821 0.19587 0.30361 0.0
O52 O 0.21254 0.21281 0.23207 0.0
O53 O 0.25726 0.18634 0.21327 0.0
C54 C 0.29138 0.32493 0.2175 0.0
C55 C 0.34056 0.14826 0.2666 0.0
C56 C 0.25695 0.07524 0.24901 0.0
O57 O 0.28401 0.09321 0.23983 0.0
O58 O 0.24243 0.1115 0.26159 0.0
C59 C 0.27666 0.27595 0.3095 0.0
O60 O 0.1608 0.30075 0.27593 0.0
O61 O 0.1884 0.3363 0.24845 0.0
C62 C 0.21054 0.15356 0.30959 0.0
C63 C 0.16104 0.32765 0.25922 0.0
Fe64 Fe 0.74185 0.79991 0.25406 0.0
O65 O 0.7841 0.74602 0.25751 0.0
Fe66 Fe 0.70682 0.80159 0.30053 0.0
Fe67 Fe 0.80616 0.69687 0.23685 0.0
O68 O 0.72529 0.75467 0.27776 0.0
O69 O 0.72682 0.75126 0.27926 0.0
O70 O 0.78546 0.74263 0.25891 0.0
Fe71 Fe 0.76932 0.69787 0.2827 0.0
C72 C 0.73103 0.70247 0.22191 0.0
O73 O 0.76591 0.84213 0.22965 0.0
O74 O 0.81892 0.78977 0.22761 0.0
O75 O 0.79274 0.77055 0.29877 0.0
O76 O 0.74936 0.79014 0.31872 0.0
O77 O 0.72587 0.89165 0.2927 0.0
O78 O 0.76541 0.87218 0.26999 0.0
O79 O 0.8458 0.68601 0.25616 0.0
O80 O 0.81701 0.64822 0.28304 0.0
C81 C 0.75222 0.90884 0.28287 0.0
O82 O 0.74555 0.65838 0.30794 0.0
O83 O 0.69227 0.70937 0.30884 0.0
O84 O 0.71821 0.72807 0.23712 0.0
O85 O 0.76375 0.70157 0.21882 0.0
C86 C 0.79789 0.83694 0.22337 0.0
C87 C 0.84489 0.65829 0.27277 0.0
C88 C 0.76215 0.58727 0.25471 0.0
O89 O 0.7889 0.60606 0.24538 0.0
O90 O 0.74687 0.62388 0.26694 0.0
C91 C 0.7819 0.78465 0.31545 0.0
O92 O 0.66692 0.81771 0.28175 0.0
O93 O 0.69466 0.85135 0.25406 0.0
C94 C 0.71383 0.66539 0.31463 0.0
C95 C 0.66732 0.84396 0.26494 0.0
Fe96 Fe 0.99216 0.42897 0.50017 0.0
O97 O 0.97042 0.47686 0.52239 0.0
Fe98 Fe 0.06105 0.53164 0.48758 0.0
Fe99 Fe 0.94601 0.43226 0.54351 0.0
O100 O 0.03383 0.48374 0.50645 0.0
O101 O 0.03477 0.4875 0.50779 0.0
O102 O 0.97143 0.48107 0.52383 0.0
Fe103 Fe 0.01369 0.53403 0.53037 0.0
C104 C 0.91501 0.38419 0.50545 0.0
O105 O 0.01112 0.35886 0.51773 0.0
O106 O 0.96596 0.34133 0.53712 0.0
O107 O 0.06195 0.58256 0.53436 0.0
O108 O 0.09663 0.54321 0.5096 0.0
O109 O 0.07437 0.43784 0.47868 0.0
O110 O 0.02126 0.38411 0.47765 0.0
O111 O 0.98416 0.44539 0.56464 0.0
O112 O 0.0317 0.4616 0.54755 0.0
C113 C 0.05429 0.38935 0.47328 0.0
O114 O 0.99648 0.60795 0.51351 0.0
O115 O 0.04385 0.62324 0.49552 0.0
O116 O 0.94488 0.37672 0.4968 0.0
O117 O 0.91037 0.41343 0.52191 0.0
C118 C 0.99489 0.32412 0.52981 0.0
C119 C 0.01723 0.45022 0.56347 0.0
C120 C 0.95176 0.56935 0.5584 0.0
O121 O 0.93089 0.52567 0.55092 0.0
O122 O 0.98478 0.57541 0.55384 0.0
C123 C 0.09201 0.57211 0.52614 0.0
O124 O 0.02236 0.5277 0.46687 0.0
O125 O 0.97332 0.49902 0.48195 0.0
C126 C 0.01584 0.64402 0.50319 0.0
C127 C 0.98918 0.5262 0.46807 0.0
Fe128 Fe 0.23823 0.77726 0.75508 0.0
O129 O 0.27916 0.71937 0.75812 0.0
Fe130 Fe 0.20419 0.78088 0.80165 0.0
Fe131 Fe 0.29984 0.66807 0.73745 0.0
O132 O 0.22129 0.73273 0.77881 0.0
O133 O 0.22274 0.72881 0.7803 0.0
O134 O 0.28055 0.7159 0.75954 0.0
Fe135 Fe 0.26438 0.67275 0.78359 0.0
C136 C 0.22409 0.67776 0.72352 0.0
O137 O 0.2624 0.81775 0.73055 0.0
O138 O 0.31364 0.75991 0.72759 0.0
O139 O 0.2894 0.74429 0.7994 0.0
O140 O 0.24671 0.76651 0.81957 0.0
O141 O 0.22501 0.86946 0.79372 0.0
O142 O 0.264 0.84703 0.77096 0.0
O143 O 0.33998 0.65658 0.75638 0.0
O144 O 0.31154 0.62058 0.78362 0.0
C145 C 0.25167 0.88468 0.78386 0.0
O146 O 0.24038 0.63547 0.80909 0.0
O147 O 0.18802 0.68973 0.81 0.0
O148 O 0.21234 0.70835 0.7382 0.0
O149 O 0.25659 0.67268 0.72008 0.0
C150 C 0.2938 0.80933 0.72378 0.0
C151 C 0.33926 0.62942 0.77308 0.0
C152 C 0.25507 0.56148 0.75611 0.0
O153 O 0.28195 0.57862 0.74664 0.0
O154 O 0.24034 0.59946 0.76819 0.0
C155 C 0.27906 0.7593 0.81612 0.0
O156 O 0.1643 0.80024 0.78316 0.0
O157 O 0.19252 0.83331 0.75561 0.0
C158 C 0.20888 0.64474 0.81591 0.0
C159 C 0.16521 0.82835 0.76663 0.0
Fe160 Fe 0.7402 0.29088 0.74992 0.0
O161 O 0.78502 0.24509 0.75386 0.0
Fe162 Fe 0.704 0.28875 0.79599 0.0
Fe163 Fe 0.81035 0.19827 0.73389 0.0
O164 O 0.72554 0.24392 0.77368 0.0
O165 O 0.72728 0.24083 0.77524 0.0
O166 O 0.7866 0.24239 0.75528 0.0
Fe167 Fe 0.77276 0.19753 0.77944 0.0
C168 C 0.73506 0.18535 0.719 0.0
O169 O 0.76259 0.3367 0.72559 0.0
O170 O 0.81738 0.29171 0.72344 0.0
O171 O 0.79125 0.2764 0.79498 0.0
O172 O 0.74649 0.28762 0.81453 0.0
O173 O 0.71825 0.38167 0.78775 0.0
O174 O 0.75976 0.36712 0.76582 0.0
O175 O 0.85028 0.19989 0.75338 0.0
O176 O 0.82339 0.15919 0.78048 0.0
C177 C 0.74507 0.40143 0.77874 0.0
O178 O 0.75089 0.156 0.80486 0.0
O179 O 0.69476 0.1948 0.8049 0.0
O180 O 0.72057 0.21428 0.73322 0.0
O181 O 0.76779 0.18932 0.71595 0.0
C182 C 0.79471 0.33625 0.71934 0.0
C183 C 0.85077 0.17396 0.77025 0.0
C184 C 0.77431 0.08204 0.75338 0.0
O185 O 0.79954 0.1057 0.74375 0.0
O186 O 0.75544 0.11734 0.76431 0.0
C187 C 0.77923 0.28918 0.8115 0.0
O188 O 0.66381 0.29539 0.77685 0.0
O189 O 0.69061 0.33394 0.74948 0.0
C190 C 0.71881 0.15687 0.81138 0.0
C191 C 0.66339 0.32218 0.76013 0.0
Fe192 Fe 0.45321 0.89179 0.48938 0.0
O193 O 0.4759 0.94905 0.50843 0.0
Fe194 Fe 0.51815 0.00626 0.49961 0.0
Fe195 Fe 0.49507 0.91764 0.53323 0.0
O196 O 0.47707 0.9519 0.50687 0.0
O197 O 0.53811 0.97319 0.52408 0.0
O198 O 0.53671 0.97041 0.52581 0.0
Fe199 Fe 0.55896 0.0313 0.5439 0.0
C200 C 0.41859 0.86869 0.5281 0.0
O201 O 0.47255 0.80802 0.50091 0.0
O202 O 0.51666 0.83785 0.51998 0.0
O203 O 0.59673 0.04063 0.52289 0.0
O204 O 0.56461 0.06052 0.49569 0.0
O205 O 0.54078 0.92889 0.48465 0.0
O206 O 0.49377 0.88885 0.46977 0.0
O207 O 0.52177 0.89299 0.55895 0.0
O208 O 0.57492 0.94471 0.55546 0.0
C209 C 0.52675 0.89301 0.47164 0.0
O210 O 0.53799 0.11509 0.53335 0.0
O211 O 0.49544 0.08323 0.51365 0.0
O212 O 0.41546 0.88813 0.51055 0.0
O213 O 0.44779 0.86631 0.53755 0.0
C214 C 0.50154 0.79674 0.50892 0.0
C215 C 0.55402 0.90458 0.56416 0.0
C216 C 0.48558 0.02041 0.56223 0.0
O217 O 0.47285 -0.00351 0.54692 0.0
O218 O 0.51845 0.02778 0.56402 0.0
C219 C 0.59356 0.06051 0.5054 0.0
O220 O 0.4906 0.03554 0.47493 0.0
O221 O 0.43869 0.97808 0.47668 0.0
C222 C 0.50915 0.12471 0.52508 0.0
C223 C 0.45832 0.02453 0.46982 0.0
Fe224 Fe 0.49785 0.42332 1.0016 0.0
O225 O 0.47621 0.46992 0.02408 0.0
Fe226 Fe 0.56405 0.52998 0.98801 0.0
Fe227 Fe 0.45364 0.42409 0.04557 0.0
O228 O 0.53876 0.48076 1.00738 0.0
O229 O 0.53975 0.48462 1.00876 0.0
O230 O 0.47728 0.47407 0.02554 0.0
Fe231 Fe 0.51864 0.53031 0.0315 0.0
C232 C 0.42167 0.37356 1.00785 0.0
O233 O 0.51881 0.35431 0.01887 0.0
O234 O 0.47519 0.33465 0.03911 0.0
O235 O 0.56605 0.58258 0.0348 0.0
O236 O 0.60012 0.54604 1.0095 0.0
O237 O 0.57923 0.437 0.97941 0.0
O238 O 0.52701 0.38009 0.97881 0.0
O239 O 0.49219 0.44077 0.06621 0.0
O240 O 0.53891 0.45992 0.04871 0.0
C241 C 0.5599 0.38706 0.9743 0.0
O242 O 0.49903 0.60221 1.01468 0.0
O243 O 0.5448 0.6203 0.99567 0.0
O244 O 0.45125 0.36839 0.99872 0.0
O245 O 0.41762 0.40202 0.02448 0.0
C246 C 0.50367 0.31851 0.0311 0.0
C247 C 0.52512 0.44756 0.06475 0.0
C248 C 0.45678 0.56236 0.0599 0.0
O249 O 0.43676 0.51635 0.05293 0.0
O250 O 0.48961 0.5705 0.05513 0.0
C251 C 0.59593 0.57503 0.02607 0.0
O252 O 0.52495 0.52129 0.96769 0.0
O253 O 0.47698 0.492 0.98357 0.0
C254 C 0.51665 0.63892 1.00366 0.0
C255 C 0.49187 0.51858 0.96929 0.0
C256 C 0.09198 0.87558 0.08912 0.0
C257 C 0.05733 0.88868 0.08415 0.0
C258 C 0.10448 0.89157 0.10736 0.0
C259 C 0.08739 0.01655 0.14458 0.0
H260 H 0.16751 0.93793 0.16842 0.0
C261 C 0.21581 0.10274 0.1903 0.0
C262 C 0.20149 0.14443 0.20447 0.0
C263 C 0.19443 0.06398 0.17847 0.0
C264 C 0.14519 0.96069 0.16191 0.0
H265 H 0.00751 0.92048 0.09529 0.0
H266 H 0.02919 0.94814 0.12728 0.0
H267 H 0.13549 0.87647 0.14388 0.0
H268 H 0.15305 0.17747 0.21722 0.0
H269 H 0.11558 0.11009 0.19631 0.0
H270 H 0.09775 0.1015 0.1623 0.0
C271 C 0.04698 0.92691 0.11689 0.0
C272 C 0.12674 0.92532 0.14785 0.0
C273 C 0.03437 0.91008 0.09862 0.0
C274 C 0.16502 0.14623 0.20643 0.0
C275 C 0.14353 0.10767 0.19442 0.0
C276 C 0.10581 0.05189 0.15872 0.0
C277 C 0.08265 0.92121 0.12114 0.0
C278 C 0.09819 0.95344 0.13856 0.0
C279 C 0.158 0.06576 0.18032 0.0
C280 C 0.1356 0.0252 0.16716 0.0
H281 H 0.11035 0.8593 0.07828 0.0
H282 H 0.13205 0.88626 0.10998 0.0
H283 H 0.06585 0.04036 0.13763 0.0
H284 H 0.24373 0.09953 0.18837 0.0
H285 H 0.20655 0.03324 0.1676 0.0
C286 C 0.9311 0.02277 0.07639 0.0
C287 C 0.9668 0.03863 0.07763 0.0
C288 C 0.91071 0.01642 0.09293 0.0
C289 C 0.92088 0.97335 0.14338 0.0
H290 H 0.82386 0.02204 0.1482 0.0
C291 C 0.84556 0.90912 0.21145 0.0
C292 C 0.81158 0.8843 0.20928 0.0
C293 C 0.86242 0.94091 0.1964 0.0
C294 C 0.85085 0.00762 0.14706 0.0
H295 H 0.00825 0.06478 0.09737 0.0
H296 H 0.97272 0.05393 0.12612 0.0
H297 H 0.85715 0.05443 0.11991 0.0
H298 H 0.76798 0.87559 0.18994 0.0
H299 H 0.79764 0.92975 0.16332 0.0
H300 H 0.91468 0.92445 0.16995 0.0
C301 C 0.96061 0.04542 0.11234 0.0
C302 C 0.86997 0.02639 0.13084 0.0
C303 C 0.98095 0.05219 0.09581 0.0
C304 C 0.79401 0.8952 0.19208 0.0
C305 C 0.81114 0.92613 0.17681 0.0
C306 C 0.90179 0.9542 0.15946 0.0
C307 C 0.92548 0.02558 0.11115 0.0
C308 C 0.90525 0.00934 0.12878 0.0
C309 C 0.84609 0.94734 0.17855 0.0
C310 C 0.86645 0.97089 0.16159 0.0
H311 H 0.91919 0.01189 0.06269 0.0
H312 H 0.88383 0.00079 0.09146 0.0
H313 H 0.94772 0.95795 0.14212 0.0
H314 H 0.85968 0.90143 0.22459 0.0
H315 H 0.88882 0.95833 0.19859 0.0
C316 C 0.05145 0.30392 0.44655 0.0
C317 C 0.07069 0.33919 0.46043 0.0
C318 C 0.06848 0.26475 0.4327 0.0
C319 C 0.1548 0.25319 0.40899 0.0
H320 H 0.11767 0.09264 0.38621 0.0
C321 C 0.22409 0.14094 0.34408 0.0
C322 C 0.20166 0.12749 0.32868 0.0
C323 C 0.21073 0.14778 0.36272 0.0
C324 C 0.12845 0.13747 0.39239 0.0
H325 H 0.12269 0.35641 0.47151 0.0
H326 H 0.15194 0.28771 0.44787 0.0
H327 H 0.08787 0.14359 0.41356 0.0
H328 H 0.14863 0.10233 0.32106 0.0
H329 H 0.12547 0.11332 0.35326 0.0
H330 H 0.19452 0.24904 0.38761 0.0
C331 C 0.1239 0.29173 0.44717 0.0
C332 C 0.11124 0.16681 0.40807 0.0
C333 C 0.10702 0.33099 0.46084 0.0
C334 C 0.16661 0.11226 0.33266 0.0
C335 C 0.15326 0.11909 0.35122 0.0
C336 C 0.17187 0.22412 0.39336 0.0
C337 C 0.10509 0.25971 0.43251 0.0
C338 C 0.124 0.22553 0.41647 0.0
C339 C 0.1747 0.14113 0.36631 0.0
C340 C 0.1588 0.16624 0.38462 0.0
H341 H 0.02347 0.30921 0.44579 0.0
H342 H 0.05308 0.241 0.42161 0.0
H343 H 0.16515 0.29903 0.41476 0.0
H344 H 0.25112 0.1537 0.3415 0.0
H345 H 0.2283 0.16294 0.37405 0.0
C346 C 0.79424 0.78009 0.35078 0.0
C347 C 0.80637 0.77747 0.33178 0.0
C348 C 0.81528 0.75944 0.36585 0.0
C349 C 0.89318 0.65486 0.3742 0.0
H350 H 0.88403 0.72038 0.42628 0.0
C351 C 0.98433 0.57365 0.43515 0.0
C352 C 0.9685 0.55677 0.45261 0.0
C353 C 0.96512 0.60318 0.42068 0.0
C354 C 0.8867 0.70129 0.41181 0.0
H355 H 0.85167 0.75707 0.3141 0.0
H356 H 0.88873 0.72465 0.3403 0.0
H357 H 0.85113 0.77171 0.40079 0.0
H358 H 0.91989 0.55865 0.46848 0.0
H359 H 0.88651 0.61091 0.44325 0.0
H360 H 0.92921 0.58521 0.38525 0.0
C361 C 0.86233 0.73941 0.34356 0.0
C362 C 0.86776 0.73064 0.39715 0.0
C363 C 0.84113 0.75904 0.32848 0.0
C364 C 0.93294 0.57066 0.45521 0.0
C365 C 0.91384 0.60107 0.44081 0.0
C366 C 0.91241 0.62618 0.3888 0.0
C367 C 0.84936 0.73691 0.36241 0.0
C368 C 0.87058 0.70773 0.37809 0.0
C369 C 0.92967 0.61748 0.42333 0.0
C370 C 0.90932 0.64877 0.40781 0.0
H371 H 0.76772 0.79439 0.35394 0.0
H372 H 0.80408 0.7582 0.38006 0.0
H373 H 0.89557 0.63437 0.35989 0.0
H374 H 0.01162 0.56381 0.4326 0.0
H375 H 0.97819 0.61564 0.40746 0.0
C376 C 0.07303 0.48167 0.57987 0.0
C377 C 0.03842 0.45889 0.58116 0.0
C378 C 0.09178 0.49934 0.59626 0.0
C379 C 0.08002 0.54605 0.64775 0.0
H380 H 0.18034 0.52964 0.64763 0.0
C381 C 0.16765 0.67561 0.70515 0.0
C382 C 0.1997 0.64689 0.70956 0.0
C383 C 0.14655 0.64853 0.69062 0.0
C384 C 0.1523 0.53385 0.64821 0.0
H385 H 0.99697 0.43468 0.60102 0.0
H386 H 0.0302 0.46295 0.62974 0.0
H387 H 0.14721 0.48574 0.62103 0.0
H388 H 0.23362 0.56486 0.70315 0.0
H389 H 0.19644 0.51594 0.67874 0.0
H390 H 0.08519 0.59187 0.67539 0.0
C391 C 0.04255 0.46894 0.61594 0.0
C392 C 0.13319 0.50952 0.63263 0.0
C393 C 0.02358 0.45183 0.59944 0.0
C394 C 0.20938 0.58891 0.69982 0.0
C395 C 0.18806 0.56112 0.68565 0.0
C396 C 0.09916 0.5696 0.66353 0.0
C397 C 0.07682 0.49392 0.61458 0.0
C398 C 0.09678 0.51599 0.63197 0.0
C399 C 0.15671 0.5913 0.68042 0.0
C400 C 0.1357 0.56438 0.66395 0.0
H401 H 0.0854 0.48848 0.56609 0.0
H402 H 0.11772 0.51949 0.5944 0.0
H403 H 0.0521 0.55279 0.6478 0.0
H404 H 0.15955 0.72041 0.71241 0.0
H405 H 0.12286 0.67382 0.68701 0.0
C406 C 0.84319 0.40087 0.70449 0.0
C407 C 0.8072 0.38834 0.70611 0.0
C408 C 0.85636 0.44317 0.69063 0.0
C409 C 0.8349 0.50588 0.64313 0.0
H410 H 0.92018 0.60663 0.65033 0.0
C411 C 0.90317 0.61369 0.57809 0.0
C412 C 0.93861 0.59763 0.57665 0.0
C413 C 0.88571 0.61054 0.59565 0.0
C414 C 0.89637 0.57879 0.64804 0.0
H415 H 0.7567 0.41365 0.69488 0.0
H416 H 0.77977 0.4882 0.67051 0.0
H417 H 0.89089 0.55832 0.67788 0.0
H418 H 0.98438 0.57335 0.5929 0.0
H419 H 0.95411 0.56726 0.62352 0.0
H420 H 0.84087 0.52407 0.6133 0.0
C421 C 0.79782 0.46435 0.67996 0.0
C422 C 0.87952 0.55098 0.66386 0.0
C423 C 0.78453 0.42202 0.69402 0.0
C424 C 0.95716 0.58656 0.59355 0.0
C425 C 0.9396 0.58257 0.61115 0.0
C426 C 0.85169 0.53368 0.62735 0.0
C427 C 0.83402 0.47447 0.67785 0.0
C428 C 0.84901 0.51266 0.66157 0.0
C429 C 0.9032 0.59056 0.61219 0.0
C430 C 0.88311 0.56935 0.62948 0.0
H431 H 0.86152 0.37645 0.71366 0.0
H432 H 0.88432 0.44882 0.6894 0.0
H433 H 0.81183 0.47602 0.64068 0.0
H434 H 0.88816 0.62229 0.5653 0.0
H435 H 0.85794 0.61915 0.59598 0.0
C436 C 0.21994 0.63357 0.85064 0.0
C437 C 0.19861 0.61913 0.83484 0.0
C438 C 0.20513 0.64559 0.86875 0.0
C439 C 0.12076 0.64475 0.89638 0.0
H440 H 0.15431 0.81366 0.91543 0.0
C441 C 0.03467 0.81819 0.94252 0.0
C442 C 0.0502 0.85667 0.95711 0.0
C443 C 0.055 0.78009 0.92995 0.0
C444 C 0.14483 0.76597 0.91059 0.0
H445 H 0.14592 0.5954 0.82625 0.0
H446 H 0.12032 0.61356 0.85763 0.0
H447 H 0.18693 0.75543 0.89069 0.0
H448 H 0.09969 0.88406 0.96991 0.0
H449 H 0.135 0.81752 0.94811 0.0
H450 H 0.07807 0.65639 0.91593 0.0
C451 C 0.14832 0.61745 0.85622 0.0
C452 C 0.16371 0.73223 0.89638 0.0
C453 C 0.16309 0.60621 0.83816 0.0
C454 C 0.0867 0.85546 0.95883 0.0
C455 C 0.10704 0.81738 0.94624 0.0
C456 C 0.10186 0.67851 0.9106 0.0
C457 C 0.16877 0.64178 0.87145 0.0
C458 C 0.15161 0.67174 0.88876 0.0
C459 C 0.09152 0.77921 0.93157 0.0
C460 C 0.11321 0.74033 0.91763 0.0
H461 H 0.2474 0.64342 0.84857 0.0
H462 H 0.22189 0.66238 0.88027 0.0
H463 H 0.11079 0.59796 0.89109 0.0
H464 H 0.00669 0.8176 0.9407 0.0
H465 H 0.04203 0.7523 0.9187 0.0
C466 C 0.79061 0.2882 0.84691 0.0
C467 C 0.80353 0.28904 0.82807 0.0
C468 C 0.81272 0.27584 0.8623 0.0
C469 C 0.89728 0.19656 0.87266 0.0
H470 H 0.87954 0.26433 0.92381 0.0
C471 C 0.9766 0.11107 0.93837 0.0
C472 C 0.95559 0.09043 0.95368 0.0
C473 C 0.96216 0.14677 0.92331 0.0
C474 C 0.88488 0.24499 0.9096 0.0
H475 H 0.85059 0.28182 0.81092 0.0
H476 H 0.88917 0.26254 0.83775 0.0
H477 H 0.84677 0.30686 0.89696 0.0
H478 H 0.90358 0.09443 0.96575 0.0
H479 H 0.87878 0.15703 0.93988 0.0
H480 H 0.9351 0.13407 0.88542 0.0
C481 C 0.86172 0.2694 0.84061 0.0
C482 C 0.86595 0.26918 0.89418 0.0
C483 C 0.83957 0.28125 0.82519 0.0
C484 C 0.92046 0.10928 0.95411 0.0
C485 C 0.90625 0.14561 0.93931 0.0
C486 C 0.91639 0.17273 0.88808 0.0
C487 C 0.8485 0.26471 0.85934 0.0
C488 C 0.87128 0.24427 0.87552 0.0
C489 C 0.92663 0.16358 0.92348 0.0
C490 C 0.90987 0.19553 0.90681 0.0
H491 H 0.76304 0.29368 0.84973 0.0
H492 H 0.80131 0.27193 0.87641 0.0
H493 H 0.90192 0.17531 0.85861 0.0
H494 H 1.00369 0.09701 0.93758 0.0
H495 H 0.97862 0.16027 0.91137 0.0
C496 C 0.67698 0.14582 0.70578 0.0
C497 C 0.71363 0.14548 0.70525 0.0
C498 C 0.65748 0.10839 0.69247 0.0
C499 C 0.66668 0.02907 0.64447 0.0
H500 H 0.58044 0.93878 0.65697 0.0
C501 C 0.60073 0.87519 0.58672 0.0
C502 C 0.56546 0.88937 0.58378 0.0
C503 C 0.61692 0.89227 0.60399 0.0
C504 C 0.60446 0.96381 0.65325 0.0
H505 H 0.75825 0.10293 0.69066 0.0
H506 H 0.72466 0.03786 0.66795 0.0
H507 H 0.61206 0.00042 0.68194 0.0
H508 H 0.51849 0.92414 0.59754 0.0
H509 H 0.54672 0.95518 0.62765 0.0
H510 H 0.65921 -0.00606 0.61589 0.0
C511 C 0.71077 0.0682 0.67824 0.0
C512 C 0.62253 -0.00057 0.66755 0.0
C513 C 0.73013 0.10559 0.69139 0.0
C514 C 0.5457 0.91265 0.59939 0.0
C515 C 0.56203 0.93088 0.61664 0.0
C516 C 0.6488 -0.00642 0.6303 0.0
C517 C 0.67417 0.06961 0.67836 0.0
C518 C 0.65405 0.03228 0.66335 0.0
C519 C 0.59834 0.92485 0.61865 0.0
C520 C 0.61755 0.95998 0.63443 0.0
H521 H 0.66333 0.17567 0.71629 0.0
H522 H 0.62936 0.11109 0.69296 0.0
H523 H 0.69026 0.05506 0.64047 0.0
H524 H 0.61666 0.85731 0.57496 0.0
H525 H 0.64466 0.8846 0.60525 0.0
C526 C 0.47675 0.03858 0.59762 0.0
C527 C 0.46265 0.02491 0.57945 0.0
C528 C 0.45664 0.03007 0.61418 0.0
C529 C 0.36661 0.00754 0.6329 0.0
H530 H 0.4118 0.90078 0.67072 0.0
C531 C 0.29063 0.87087 0.69299 0.0
C532 C 0.30833 0.85664 0.70993 0.0
C533 C 0.30794 0.90306 0.67801 0.0
C534 C 0.39877 0.93189 0.66063 0.0
H535 H 0.41527 -0.00352 0.56452 0.0
H536 H 0.38026 -0.01721 0.59332 0.0
H537 H 0.44454 0.93805 0.6432 0.0
H538 H 0.35692 0.86896 0.72511 0.0
H539 H 0.38637 0.92831 0.6997 0.0
H540 H 0.32074 0.00129 0.65037 0.0
C541 C 0.40697 -0.00048 0.59478 0.0
C542 C 0.41769 0.95314 0.64472 0.0
C543 C 0.42716 0.00732 0.57824 0.0
C544 C 0.34272 0.87915 0.71215 0.0
C545 C 0.35974 0.91238 0.69742 0.0
C546 C 0.34769 -0.01312 0.64899 0.0
C547 C 0.42176 0.00871 0.61298 0.0
C548 C 0.40184 -0.00925 0.63056 0.0
C549 C 0.34317 0.92243 0.67979 0.0
C550 C 0.36343 0.94824 0.66306 0.0
H551 H 0.50386 0.05259 0.59916 0.0
H552 H 0.46872 0.03851 0.62797 0.0
H553 H 0.35365 0.03678 0.6223 0.0
H554 H 0.26425 0.85317 0.69083 0.0
H555 H 0.2942 0.90935 0.6647 0.0
C556 C 0.55833 0.3005 0.94786 0.0
C557 C 0.57702 0.33722 0.96165 0.0
C558 C 0.57597 0.26159 0.93418 0.0
C559 C 0.66262 0.25318 0.91074 0.0
H560 H 0.62748 0.09063 0.88822 0.0
C561 C 0.73292 0.14341 0.84585 0.0
C562 C 0.71042 0.13008 0.83047 0.0
C563 C 0.71967 0.14939 0.86453 0.0
C564 C 0.63771 0.13601 0.89434 0.0
H565 H 0.62869 0.35731 0.97281 0.0
H566 H 0.65902 0.28902 0.94949 0.0
H567 H 0.597 0.14084 0.91544 0.0
H568 H 0.6576 0.10269 0.82298 0.0
H569 H 0.63468 0.11203 0.85524 0.0
H570 H 0.70246 0.25024 0.88939 0.0
C571 C 0.63093 0.29171 0.9487 0.0
C572 C 0.62011 0.16493 0.90994 0.0
C573 C 0.61344 0.33073 0.96218 0.0
C574 C 0.67561 0.11313 0.83453 0.0
C575 C 0.66239 0.11893 0.85314 0.0
C576 C 0.6801 0.22449 0.89518 0.0
C577 C 0.61265 0.25826 0.9341 0.0
C578 C 0.63212 0.2244 0.91822 0.0
C579 C 0.68373 0.14148 0.8682 0.0
C580 C 0.6677 0.16595 0.88653 0.0
H581 H 0.53029 0.30445 0.94702 0.0
H582 H 0.56097 0.2367 0.92314 0.0
H583 H 0.6724 0.29959 0.91641 0.0
H584 H 0.75987 0.15657 0.84323 0.0
H585 H 0.7372 0.16485 0.87585 0.0
C586 C 0.4346 0.55886 0.95655 0.0
C587 C 0.47028 0.54652 0.95378 0.0
C588 C 0.41471 0.58685 0.94204 0.0
C589 C 0.41187 0.60732 0.88981 0.0
H590 H 0.34901 0.75095 0.90114 0.0
C591 C 0.33851 0.73422 0.82901 0.0
C592 C 0.30366 0.75189 0.83238 0.0
C593 C 0.36 0.71561 0.84409 0.0
C594 C 0.36607 0.71035 0.89769 0.0
H595 H 0.51278 0.55373 0.93337 0.0
H596 H 0.47803 0.60138 0.90809 0.0
H597 H 0.38288 0.70307 0.92681 0.0
H598 H 0.26494 0.76754 0.85459 0.0
H599 H 0.30183 0.73329 0.88069 0.0
H600 H 0.39458 0.61269 0.8609 0.0
C601 C 0.46545 0.58954 0.9215 0.0
C602 C 0.38557 0.68297 0.91246 0.0
C603 C 0.48542 0.56243 0.93606 0.0
C604 C 0.29157 0.75411 0.85139 0.0
C605 C 0.31291 0.73457 0.86645 0.0
C606 C 0.39212 0.63406 0.8751 0.0
C607 C 0.42988 0.60232 0.9243 0.0
C608 C 0.40878 0.63121 0.90869 0.0
C609 C 0.34722 0.7134 0.86299 0.0
C610 C 0.36894 0.68617 0.87876 0.0
H611 H 0.42208 0.54751 0.97001 0.0
H612 H 0.38731 0.59559 0.9446 0.0
H613 H 0.42914 0.56689 0.88645 0.0
H614 H 0.34894 0.7324 0.81461 0.0
H615 H 0.38651 0.70165 0.84082 0.0
C616 C 0.53105 0.46056 0.10055 0.0
C617 C 0.54654 0.45811 0.08228 0.0
C618 C 0.54998 0.48313 0.11651 0.0
C619 C 0.62792 0.58615 0.12792 0.0
H620 H 0.6151 0.52168 0.17937 0.0
C621 C 0.7216 0.65788 0.18871 0.0
C622 C 0.70773 0.67452 0.20679 0.0
C623 C 0.7005 0.63118 0.1743 0.0
C624 C 0.61867 0.54069 0.16511 0.0
H625 H 0.59514 0.47253 0.06691 0.0
H626 H 0.6282 0.50918 0.09463 0.0
H627 H 0.58212 0.4716 0.15295 0.0
H628 H 0.66045 0.67517 0.22381 0.0
H629 H 0.62343 0.62784 0.19849 0.0
H630 H 0.66469 0.65453 0.13996 0.0
C631 C 0.60104 0.49623 0.0966 0.0
C632 C 0.59978 0.51195 0.14994 0.0
C633 C 0.5821 0.4743 0.08067 0.0
C634 C 0.67201 0.6632 0.21006 0.0
C635 C 0.65084 0.63571 0.1956 0.0
C636 C 0.64686 0.61445 0.14301 0.0
C637 C 0.58501 0.50309 0.11464 0.0
C638 C 0.60445 0.5338 0.13107 0.0
C639 C 0.66485 0.61978 0.17749 0.0
C640 C 0.64281 0.59172 0.16177 0.0
H641 H 0.50376 0.44838 0.10239 0.0
H642 H 0.53663 0.48774 0.13011 0.0
H643 H 0.63157 0.60585 0.11376 0.0
H644 H 0.74893 0.66566 0.18557 0.0
H645 H 0.7123 0.61869 0.16065 0.0
C646 C 0.34183 0.38464 0.20279 0.0
C647 C 0.30553 0.37645 0.20458 0.0
C648 C 0.35614 0.42742 0.18937 0.0
C649 C 0.33661 0.49822 0.14282 0.0
H650 H 0.42277 0.59486 0.15139 0.0
C651 C 0.40738 0.60702 0.07883 0.0
C652 C 0.44299 0.5921 0.07781 0.0
C653 C 0.38932 0.60353 0.09621 0.0
C654 C 0.39877 0.56808 0.14868 0.0
H655 H 0.25582 0.40955 0.19407 0.0
H656 H 0.28092 0.48435 0.17036 0.0
H657 H 0.39269 0.54382 0.17826 0.0
H658 H 0.48847 0.57086 0.0946 0.0
H659 H 0.45715 0.56288 0.12483 0.0
H660 H 0.34325 0.51922 0.11324 0.0
C661 C 0.29827 0.45706 0.1794 0.0
C662 C 0.38145 0.53885 0.16413 0.0
C663 C 0.28385 0.41451 0.19306 0.0
C664 C 0.46104 0.58248 0.09494 0.0
C665 C 0.44287 0.57759 0.11232 0.0
C666 C 0.35398 0.52703 0.12738 0.0
C667 C 0.33466 0.46323 0.17718 0.0
C668 C 0.35052 0.50228 0.16134 0.0
C669 C 0.40632 0.5839 0.11295 0.0
C670 C 0.38572 0.56137 0.12997 0.0
H671 H 0.35943 0.35672 0.21152 0.0
H672 H 0.3842 0.43015 0.188 0.0
H673 H 0.31319 0.4697 0.14003 0.0
H674 H 0.39274 0.61473 0.06586 0.0
H675 H 0.36149 0.61142 0.09618 0.0
C676 C 0.53346 0.81078 0.44475 0.0
C677 C 0.54896 0.85537 0.45781 0.0
C678 C 0.55354 0.77616 0.43133 0.0
C679 C 0.64345 0.72389 0.41861 0.0
H680 H 0.60503 0.71462 0.36753 0.0
C681 C 0.72258 0.65865 0.34957 0.0
C682 C 0.70372 0.63806 0.33336 0.0
C683 C 0.70549 0.66977 0.36711 0.0
C684 C 0.616 0.71503 0.38176 0.0
H685 H 0.59836 0.89655 0.46723 0.0
H686 H 0.63351 0.83643 0.44354 0.0
H687 H 0.57239 0.76771 0.39294 0.0
H688 H 0.65379 0.60132 0.32365 0.0
H689 H 0.62472 0.61475 0.35441 0.0
H690 H 0.68749 0.67178 0.40715 0.0
C691 C 0.60564 0.82813 0.44384 0.0
C692 C 0.5972 0.74609 0.3964 0.0
C693 C 0.58544 0.86296 0.45735 0.0
C694 C 0.66904 0.61747 0.33587 0.0
C695 C 0.65214 0.62698 0.35344 0.0
C696 C 0.66236 0.69238 0.40388 0.0
C697 C 0.58986 0.78493 0.43046 0.0
C698 C 0.61054 0.75108 0.41505 0.0
C699 C 0.66937 0.65844 0.36884 0.0
C700 C 0.64885 0.6874 0.3852 0.0
H701 H 0.50557 0.80254 0.44478 0.0
H702 H 0.54046 0.74238 0.42157 0.0
H703 H 0.65447 0.72638 0.43283 0.0
H704 H 0.74939 0.67431 0.34808 0.0
H705 H 0.71996 0.69309 0.37864 0.0
C706 C 0.46027 0.11824 0.44613 0.0
C707 C 0.44248 0.06512 0.45455 0.0
C708 C 0.44478 0.154 0.43137 0.0
C709 C 0.35805 0.1836 0.40892 0.0
H710 H 0.41209 0.23483 0.36465 0.0
C711 C 0.33318 0.24317 0.32448 0.0
C712 C 0.30072 0.27437 0.32611 0.0
C713 C 0.35303 0.2304 0.34074 0.0
C714 C 0.3965 0.22061 0.37685 0.0
H715 H 0.39419 0.00845 0.45375 0.0
H716 H 0.36813 0.06888 0.42827 0.0
H717 H 0.44124 0.18663 0.39196 0.0
H718 H 0.26496 0.32066 0.3461 0.0
H719 H 0.30013 0.30119 0.37428 0.0
H720 H 0.31312 0.21335 0.3936 0.0
C721 C 0.39361 0.08442 0.43321 0.0
C722 C 0.41337 0.19374 0.39267 0.0
C723 C 0.40887 0.04916 0.44787 0.0
C724 C 0.28971 0.2962 0.3443 0.0
C725 C 0.30979 0.28427 0.36053 0.0
C726 C 0.3412 0.20972 0.39311 0.0
C727 C 0.41116 0.13748 0.42473 0.0
C728 C 0.39424 0.17344 0.40876 0.0
C729 C 0.34122 0.2492 0.3591 0.0
C730 C 0.36002 0.22763 0.37666 0.0
H731 H 0.48614 0.13211 0.45087 0.0
H732 H 0.45905 0.1948 0.42526 0.0
H733 H 0.34242 0.16998 0.42118 0.0
H734 H 0.34246 0.22513 0.31075 0.0
H735 H 0.37677 0.20269 0.33893 0.0
C736 C 0.97802 0.69137 0.99709 0.0
C737 C 0.99649 0.73314 1.00966 0.0
C738 C 0.97645 0.62439 1.0003 0.0
C739 C 0.98461 0.50683 0.03897 0.0
H740 H 0.98749 0.38018 0.99701 0.0
C741 C 0.02245 0.23713 0.04168 0.0
C742 C 0.00625 0.19351 0.02868 0.0
C743 C 0.01164 0.30205 0.04302 0.0
C744 C 0.98574 0.41518 1.00881 0.0
H745 H 0.03024 0.73741 0.03448 0.0
H746 H 0.02856 0.61901 0.03966 0.0
H747 H 0.99402 0.49626 0.99041 0.0
H748 H 0.96305 0.18052 1.00895 0.0
H749 H 0.94476 0.29468 1.01108 0.0
H750 H 0.97837 0.4243 0.05742 0.0
C751 C 0.01428 0.63883 0.02777 0.0
C752 C 0.98975 0.48147 1.00505 0.0
C753 C 0.01563 0.70626 0.02464 0.0
C754 C 0.97665 0.21364 0.01868 0.0
C755 C 0.96592 0.27857 0.02003 0.0
C756 C 0.98102 0.44009 0.04276 0.0
C757 C 0.9938 0.59785 1.01594 0.0
C758 C 0.98956 0.52776 0.02009 0.0
C759 C 0.98463 0.32377 0.03137 0.0
C760 C 0.98189 0.39402 0.02768 0.0
H761 H 0.96333 0.7107 0.98527 0.0
H762 H 0.9604 0.5939 0.99099 0.0
H763 H 0.9837 0.54191 0.05076 0.0
H764 H 0.04474 0.22234 0.04996 0.0
H765 H 0.02645 0.3364 0.05183 0.0
C766 C 0.23811 0.51007 0.28972 0.0
C767 C 0.25469 0.46669 0.27689 0.0
C768 C 0.24043 0.57753 0.28705 0.0
C769 C 0.24818 0.68674 0.24711 0.0
H770 H 0.25025 0.82378 0.28622 0.0
C771 C 0.26244 0.9636 0.23441 0.0
C772 C 0.24584 0.00618 0.24747 0.0
C773 C 0.25862 0.89591 0.23615 0.0
C774 C 0.249 0.78572 0.27523 0.0
H775 H 0.29036 0.45974 0.25274 0.0
H776 H 0.29459 0.57796 0.24826 0.0
H777 H 0.26133 0.71036 0.29499 0.0
H778 H 0.20818 0.01213 0.2707 0.0
H779 H 0.20158 0.89361 0.27366 0.0
H780 H 0.23614 0.76244 0.22732 0.0
C781 C 0.27908 0.5595 0.26001 0.0
C782 C 0.25571 0.7212 0.28022 0.0
C783 C 0.27679 0.49197 0.26267 0.0
C784 C 0.22197 0.98043 0.26071 0.0
C785 C 0.2182 0.91274 0.26245 0.0
C786 C 0.24155 0.75138 0.24211 0.0
C787 C 0.2595 0.60236 0.27158 0.0
C788 C 0.25535 0.67129 0.2662 0.0
C789 C 0.23806 0.87028 0.25091 0.0
C790 C 0.24183 0.80119 0.25616 0.0
H791 H 0.22137 0.49196 0.30101 0.0
H792 H 0.22518 0.60975 0.29621 0.0
H793 H 0.24698 0.64868 0.23612 0.0
H794 H 0.28036 -0.01778 0.22375 0.0
H795 H 0.27403 0.86391 0.22701 0.0
C796 C 0.78752 0.00218 0.27043 0.0
C797 C 0.76399 0.97765 0.28406 0.0
C798 C 0.79165 0.06969 0.26832 0.0
C799 C 0.76964 0.23244 0.28847 0.0
H800 H 0.74945 0.27308 0.23562 0.0
C801 C 0.73127 0.49033 0.26822 0.0
C802 C 0.75302 0.51706 0.25408 0.0
C803 C 0.72996 0.42264 0.27075 0.0
C804 C 0.75521 0.26232 0.25038 0.0
H805 H 0.73024 0.00384 0.30792 0.0
H806 H 0.73723 0.12166 0.30406 0.0
H807 H 0.76078 0.15971 0.24442 0.0
H808 H 0.7866 0.49401 0.22989 0.0
H809 H 0.78447 0.3759 0.23445 0.0
H810 H 0.76386 0.33506 0.29445 0.0
C811 C 0.75219 0.08887 0.29492 0.0
C812 C 0.76208 0.19782 0.25539 0.0
C813 C 0.74801 0.02139 0.29703 0.0
C814 C 0.77016 0.47479 0.24115 0.0
C815 C 0.7688 0.40715 0.24368 0.0
C816 C 0.76279 0.29696 0.28346 0.0
C817 C 0.77248 0.11329 0.27987 0.0
C818 C 0.76922 0.18242 0.27448 0.0
C819 C 0.75017 0.38103 0.25911 0.0
C820 C 0.75531 0.31224 0.26441 0.0
H821 H 0.80078 0.96962 0.26045 0.0
H822 H 0.80805 0.08778 0.25688 0.0
H823 H 0.77514 0.22155 0.30326 0.0
H824 H 0.71728 0.52164 0.27823 0.0
H825 H 0.71474 0.40312 0.28247 0.0
C826 C 0.03205 0.75649 0.49288 0.0
C827 C 0.00983 0.71521 0.50338 0.0
C828 C 0.03239 0.82388 0.49643 0.0
C829 C 0.01433 0.93884 0.53557 0.0
H830 H 0.02631 0.07071 0.49659 0.0
C831 C 0.98753 0.2136 0.54418 0.0
C832 C 0.00742 0.25726 0.53314 0.0
C833 C 0.99478 0.14671 0.5437 0.0
C834 C 0.02378 0.03419 0.50765 0.0
H835 H 0.96795 0.71263 0.52433 0.0
H836 H 0.96805 0.83102 0.53015 0.0
H837 H 0.01937 0.95583 0.48713 0.0
H838 H 0.05349 0.2669 0.51522 0.0
H839 H 0.06594 0.14976 0.51438 0.0
H840 H 0.01763 0.01802 0.55604 0.0
C841 C 0.98595 0.8107 0.51967 0.0
C842 C 0.01949 0.96865 0.50222 0.0
C843 C 0.98565 0.74313 0.51617 0.0
C844 C 0.03715 0.23416 0.5235 0.0
C845 C 0.04437 0.16727 0.52302 0.0
C846 C 0.01843 0.0046 0.541 0.0
C847 C 0.01031 0.8511 0.5104 0.0
C848 C 0.01437 0.92057 0.51612 0.0
C849 C 0.02204 0.12288 0.53222 0.0
C850 C 0.02288 0.05272 0.52705 0.0
H851 H 0.05071 0.73647 0.48276 0.0
H852 H 0.05139 0.85401 0.48905 0.0
H853 H 0.0112 0.90232 0.54658 0.0
H854 H 0.96484 0.23019 0.55207 0.0
H855 H 0.97721 0.11327 0.55094 0.0
C856 C 0.25092 -0.00368 0.79879 0.0
C857 C 0.2645 0.95285 0.78493 0.0
C858 C 0.25504 0.06383 0.79672 0.0
C859 C 0.25756 0.17259 0.75701 0.0
H860 H 0.26522 0.31025 0.79574 0.0
C861 C 0.26011 0.44921 0.74209 0.0
C862 C 0.24562 0.49146 0.75598 0.0
C863 C 0.25969 0.38162 0.74477 0.0
C864 C 0.26248 0.27203 0.78488 0.0
H865 H 0.29739 0.9451 0.75964 0.0
H866 H 0.30455 0.06335 0.75612 0.0
H867 H 0.27906 0.19714 0.80391 0.0
H868 H 0.21525 0.49615 0.78223 0.0
H869 H 0.21415 0.3776 0.78672 0.0
H870 H 0.24054 0.24714 0.73805 0.0
C871 C 0.29006 0.04506 0.76828 0.0
C872 C 0.27083 0.20775 0.78949 0.0
C873 C 0.28602 0.97749 0.77036 0.0
C874 C 0.22708 0.46476 0.77141 0.0
C875 C 0.22669 0.39708 0.77409 0.0
C876 C 0.24915 0.2368 0.75242 0.0
C877 C 0.27286 0.08852 0.7808 0.0
C878 C 0.26832 0.15758 0.7756 0.0
C879 C 0.24461 0.35551 0.76132 0.0
C880 C 0.25135 0.2869 0.76634 0.0
H881 H 0.23481 0.97858 0.8104 0.0
H882 H 0.24166 0.09648 0.80662 0.0
H883 H 0.25457 0.13434 0.74618 0.0
H884 H 0.274 0.46853 0.72986 0.0
H885 H 0.27353 0.35049 0.73465 0.0
C886 C 0.73705 0.51469 0.79201 0.0
C887 C 0.75739 0.46928 0.78171 0.0
C888 C 0.74569 0.58128 0.79188 0.0
C889 C 0.78327 0.69216 0.75818 0.0
H890 H 0.76863 0.82385 0.798 0.0
C891 C 0.79564 0.96978 0.74546 0.0
C892 C 0.77108 0.01026 0.75465 0.0
C893 C 0.79671 0.90301 0.74935 0.0
C894 C 0.77252 0.78741 0.78675 0.0
H895 H 0.80496 0.45638 0.7652 0.0
H896 H 0.8199 0.57289 0.765 0.0
H897 H 0.77033 0.70756 0.80634 0.0
H898 H 0.72674 0.01185 0.77403 0.0
H899 H 0.72814 0.89456 0.78042 0.0
H900 H 0.78423 0.77127 0.73848 0.0
C901 C 0.79697 0.55705 0.7728 0.0
C902 C 0.7738 0.72127 0.79155 0.0
C903 C 0.78831 0.49056 0.77287 0.0
C904 C 0.74618 -0.01799 0.76685 0.0
C905 C 0.74719 0.91512 0.77068 0.0
C906 C 0.78186 0.7581 0.75338 0.0
C907 C 0.77482 0.60306 0.78152 0.0
C908 C 0.77868 0.67319 0.77724 0.0
C909 C 0.77307 0.87557 0.76237 0.0
C910 C 0.77591 0.80611 0.76758 0.0
H911 H 0.71331 0.49953 0.79915 0.0
H912 H 0.72814 0.61601 0.79866 0.0
H913 H 0.7863 0.65581 0.74682 0.0
H914 H 0.81513 -0.00999 0.73594 0.0
H915 H 0.81693 0.87347 0.74277 0.0
C916 C 0.53036 0.70203 0.52385 0.0
C917 C 0.51424 0.72949 0.50793 0.0
C918 C 0.53247 0.63401 0.5252 0.0
C919 C 0.51645 0.47634 0.50009 0.0
H920 H 0.47059 0.43019 0.54768 0.0
C921 C 0.47527 0.21538 0.51114 0.0
C922 C 0.49431 0.1904 0.52645 0.0
C923 C 0.46992 0.28275 0.51002 0.0
C924 C 0.48315 0.44274 0.53432 0.0
H925 H 0.49306 0.71002 0.47971 0.0
H926 H 0.49648 0.59121 0.48214 0.0
H927 H 0.48817 0.54407 0.54228 0.0
H928 H 0.51745 0.21304 0.55403 0.0
H929 H 0.50839 0.33078 0.55196 0.0
H930 H 0.51158 0.37503 0.49215 0.0
C931 C 0.50704 0.62151 0.49363 0.0
C932 C 0.49377 0.50729 0.53136 0.0
C933 C 0.50482 0.68932 0.4923 0.0
C934 C 0.5035 0.23179 0.54186 0.0
C935 C 0.49796 0.29896 0.54078 0.0
C936 C 0.50576 0.41187 0.50303 0.0
C937 C 0.51871 0.59355 0.51061 0.0
C938 C 0.51071 0.52435 0.51428 0.0
C939 C 0.48334 0.32506 0.52425 0.0
C940 C 0.48921 0.39465 0.5202 0.0
H941 H 0.53822 0.7324 0.53596 0.0
H942 H 0.54229 0.61303 0.53825 0.0
H943 H 0.52937 0.48864 0.4868 0.0
H944 H 0.46743 0.18405 0.49923 0.0
H945 H 0.45805 0.30225 0.4973 0.0
C946 C 0.48625 0.73691 1.01712 0.0
C947 C 0.50851 0.70925 1.00327 0.0
C948 C 0.48597 0.80473 0.02013 0.0
C949 C 0.51521 0.96339 1.00087 0.0
H950 H 0.52739 0.01012 0.05447 0.0
C951 C 0.54291 0.22671 0.02163 0.0
C952 C 0.51637 0.25127 0.03356 0.0
C953 C 0.54856 0.15932 0.02031 0.0
C954 C 0.52419 -0.00252 0.03947 0.0
H955 H 0.54441 0.73076 0.98008 0.0
H956 H 0.54409 0.84889 0.98547 0.0
H957 H 0.51713 0.8953 0.04517 0.0
H958 H 0.47869 0.22609 0.05556 0.0
H959 H 0.48832 0.10842 0.05302 0.0
H960 H 0.52203 0.06544 0.99516 0.0
C961 C 0.52717 0.81842 0.99411 0.0
C962 C 0.51788 0.93223 0.03417 0.0
C963 C 0.52745 0.75073 0.99109 0.0
C964 C 0.49877 0.20838 0.04592 0.0
C965 C 0.50449 0.14102 0.0446 0.0
C966 C 0.52166 0.02849 1.00616 0.0
C967 C 0.50775 0.84553 1.00926 0.0
C968 C 0.51301 0.91485 1.01484 0.0
C969 C 0.5279 0.11596 0.03096 0.0
C970 C 0.52595 0.04606 0.0255 0.0
H971 H 0.47101 0.70619 0.02658 0.0
H972 H 0.47009 0.82495 0.03158 0.0
H973 H 0.51139 0.95119 0.98589 0.0
H974 H 0.55746 0.25873 1.01222 0.0
H975 H 0.56728 0.14081 1.00997 0.0
C976 C 0.39197 0.29071 0.98601 0.0
C977 C 0.38997 0.3431 0.99932 0.0
C978 C 0.36164 0.25763 0.97995 0.0
C979 C 0.29718 0.16855 0.98339 0.0
H980 H 0.20911 0.259 0.9794 0.0
C981 C 0.16784 0.05267 1.00628 0.0
C982 C 0.13647 0.07076 0.99759 0.0
C983 C 0.19946 0.08054 1.00059 0.0
C984 C 0.23345 0.23268 0.98006 0.0
H985 H 0.35436 0.40433 1.01574 0.0
H986 H 0.30213 0.347 1.00539 0.0
H987 H 0.26325 0.32205 0.9793 0.0
H988 H 0.11417 0.12971 0.97522 0.0
H989 H 0.16965 0.1784 0.96519 0.0
H990 H 0.26731 0.07927 0.98453 0.0
C991 C 0.32685 0.33124 0.9995 0.0
C992 C 0.26453 0.26898 0.98023 0.0
C993 C 0.35698 0.36378 1.00562 0.0
C994 C 0.1378 0.1148 0.98228 0.0
C995 C 0.16958 0.14303 0.97661 0.0
C996 C 0.26608 0.1322 0.98317 0.0
C997 C 0.32875 0.27687 0.98691 0.0
C998 C 0.29668 0.23762 0.98268 0.0
C999 C 0.2007 0.12738 0.98603 0.0
C1000 C 0.23375 0.16404 0.98227 0.0
H1001 H 0.41697 0.2736 0.98086 0.0
H1002 H 0.36398 0.21622 0.97013 0.0
H1003 H 0.32141 0.14271 0.98532 0.0
H1004 H 0.16795 0.01845 1.018 0.0
H1005 H 0.2227 0.06775 1.00835 0.0
C1006 C 0.87954 0.83554 0.04942 0.0
C1007 C 0.88119 0.87597 0.03329 0.0
C1008 C 0.84769 0.80843 0.05539 0.0
C1009 C 0.7514 0.81694 0.04819 0.0
H1010 H 0.75447 0.62827 0.05513 0.0
C1011 C 0.66063 0.58255 0.02894 0.0
C1012 C 0.62765 0.60469 0.03479 0.0
C1013 C 0.69081 0.61543 0.03485 0.0
C1014 C 0.75313 0.68104 0.05336 0.0
H1015 H 0.8501 0.92338 1.0117 0.0
H1016 H 0.79516 0.87607 0.02193 0.0
H1017 H 0.80854 0.69156 0.05414 0.0
H1018 H 0.60069 0.67676 0.05242 0.0
H1019 H 0.65374 0.73471 0.06276 0.0
H1020 H 0.69609 0.8057 0.04616 0.0
C1021 C 0.81827 0.86522 0.03007 0.0
C1022 C 0.78416 0.7175 0.053 0.0
C1023 C 0.84999 0.89195 0.02406 0.0
C1024 C 0.62569 0.65854 0.04761 0.0
C1025 C 0.65605 0.69196 0.05343 0.0
C1026 C 0.72036 0.78044 0.04854 0.0
C1027 C 0.81679 0.82167 0.04547 0.0
C1028 C 0.78376 0.78556 0.04969 0.0
C1029 C 0.68893 0.6716 0.04676 0.0
C1030 C 0.72094 0.71168 0.0504 0.0
H1031 H 0.903 0.82239 0.05694 0.0
H1032 H 0.84741 0.77571 0.06747 0.0
H1033 H 0.75011 0.86946 0.04594 0.0
H1034 H 0.66317 0.54084 0.01923 0.0
H1035 H 0.71555 0.59866 0.02923 0.0
C1036 C 0.097 0.32215 0.25772 0.0
C1037 C 0.12792 0.35626 0.25354 0.0
C1038 C 0.06547 0.35517 0.25835 0.0
C1039 C 0.0358 0.51827 0.27125 0.0
H1040 H 0.94476 0.44829 0.25794 0.0
C1041 C 0.90889 0.66404 0.27492 0.0
C1042 C 0.87785 0.62997 0.27885 0.0
C1043 C 0.94044 0.63104 0.27466 0.0
C1044 C 0.97001 0.46774 0.26207 0.0
H1045 H 0.1502 0.44953 0.245 0.0
H1046 H 0.09463 0.50778 0.24593 0.0
H1047 H 0.9968 0.39078 0.24706 0.0
H1048 H 0.85536 0.53697 0.28749 0.0
H1049 H 0.91092 0.47879 0.28718 0.0
H1050 H 0.00899 0.59528 0.28624 0.0
C1051 C 0.09491 0.45565 0.24892 0.0
C1052 C 0.99974 0.43529 0.25564 0.0
C1053 C 0.12654 0.42229 0.24813 0.0
C1054 C 0.87909 0.56416 0.28449 0.0
C1055 C 0.91073 0.53083 0.28407 0.0
C1056 C 1.00606 0.55072 0.27768 0.0
C1057 C 0.06445 0.42298 0.25495 0.0
C1058 C 0.03291 0.46029 0.26015 0.0
C1059 C 0.94134 0.56331 0.2782 0.0
C1060 C 0.97289 0.52577 0.27315 0.0
H1061 H 0.09762 0.27107 0.26192 0.0
H1062 H 0.04247 0.32872 0.26305 0.0
H1063 H 0.06106 0.53775 0.27535 0.0
H1064 H 0.9084 0.715 0.27059 0.0
H1065 H 0.96356 0.65737 0.27007 0.0
C1066 C 0.35464 0.87403 0.53386 0.0
C1067 C 0.38656 0.8431 0.53716 0.0
C1068 C 0.32338 0.84433 0.53944 0.0
C1069 C 0.28606 0.68363 0.5416 0.0
H1070 H 0.20705 0.76783 0.56602 0.0
C1071 C 0.15218 0.55792 0.5383 0.0
C1072 C 0.12352 0.59872 0.53544 0.0
C1073 C 0.18412 0.58465 0.54412 0.0
C1074 C 0.22868 0.74364 0.55899 0.0
H1075 H 0.41107 0.75835 0.54957 0.0
H1076 H 0.35603 0.705 0.55879 0.0
H1077 H 0.26381 0.82295 0.56617 0.0
H1078 H 0.10503 0.69878 0.53689 0.0
H1079 H 0.16109 0.74646 0.54596 0.0
H1080 H 0.25117 0.60706 0.53294 0.0
C1081 C 0.35539 0.75281 0.55218 0.0
C1082 C 0.26127 0.77508 0.55928 0.0
C1083 C 0.3868 0.7834 0.547 0.0
C1084 C 0.1268 0.66636 0.53923 0.0
C1085 C 0.15903 0.6935 0.54452 0.0
C1086 C 0.25342 0.65289 0.54092 0.0
C1087 C 0.32338 0.78238 0.54804 0.0
C1088 C 0.29013 0.74574 0.55033 0.0
C1089 C 0.1885 0.65322 0.54653 0.0
C1090 C 0.224 0.68286 0.54931 0.0
H1091 H 0.35381 0.92014 0.5263 0.0
H1092 H 0.29909 0.86791 0.53594 0.0
H1093 H 0.30776 0.66041 0.53432 0.0
H1094 H 0.15006 0.50542 0.53556 0.0
H1095 H 0.20564 0.55148 0.54613 0.0
C1096 C 0.88192 0.28646 0.49313 0.0
C1097 C 0.88373 0.35442 0.4967 0.0
C1098 C 0.85008 0.25636 0.48844 0.0
C1099 C 0.75483 0.28889 0.49315 0.0
H1100 H 0.74739 0.11827 0.46792 0.0
C1101 C 0.6239 0.14894 0.48698 0.0
C1102 C 0.62522 0.08901 0.49668 0.0
C1103 C 0.65473 0.18197 0.48203 0.0
C1104 C 0.74911 0.16625 0.47482 0.0
H1105 H 0.85481 0.44517 0.49689 0.0
H1106 H 0.79989 0.394 0.48733 0.0
H1107 H 0.80298 0.17754 0.46769 0.0
H1108 H 0.65942 0.01435 0.5076 0.0
H1109 H 0.71317 0.07083 0.49832 0.0
H1110 H 0.70081 0.27737 0.50009 0.0
C1111 C 0.82231 0.36283 0.48905 0.0
C1112 C 0.78104 0.20007 0.47489 0.0
C1113 C 0.85388 0.3925 0.49428 0.0
C1114 C 0.65773 0.06053 0.50013 0.0
C1115 C 0.68845 0.09267 0.49476 0.0
C1116 C 0.72284 0.25576 0.49268 0.0
C1117 C 0.81953 0.29393 0.48682 0.0
C1118 C 0.78465 0.26122 0.48451 0.0
C1119 C 0.68728 0.15467 0.48623 0.0
C1120 C 0.71984 0.19348 0.48393 0.0
H1121 H 0.9046 0.25609 0.49518 0.0
H1122 H 0.84926 0.20327 0.48712 0.0
H1123 H 0.75631 0.33487 0.5011 0.0
H1124 H 0.59915 0.17217 0.48432 0.0
H1125 H 0.6532 0.2298 0.47547 0.0
C1126 C 0.91482 0.18829 0.77126 0.0
C1127 C 0.88509 0.15243 0.77668 0.0
C1128 C 0.94761 0.15998 0.77224 0.0
C1129 C 0.99622 0.01483 0.78877 0.0
H1130 H 0.04513 0.0342 0.74046 0.0
C1131 C 0.10111 0.83455 0.76669 0.0
C1132 C 0.13322 0.86251 0.76148 0.0
C1133 C 0.07133 0.87284 0.76739 0.0
C1134 C 0.03193 0.02887 0.75406 0.0
H1135 H 0.8663 0.0617 0.78902 0.0
H1136 H 0.92363 0.01154 0.79053 0.0
H1137 H 0.99371 0.10028 0.74719 0.0
H1138 H 0.15914 0.9504 0.75134 0.0
H1139 H 0.10659 0.01795 0.75245 0.0
H1140 H 0.034 0.94222 0.79541 0.0
C1141 C 0.92175 0.0617 0.78566 0.0
C1142 C 1.00265 0.06694 0.75802 0.0
C1143 C 0.8889 0.09039 0.78486 0.0
C1144 C 0.13454 0.92775 0.75524 0.0
C1145 C 0.10459 0.96638 0.75602 0.0
C1146 C 0.02537 0.97661 0.78478 0.0
C1147 C 0.95115 0.09508 0.77847 0.0
C1148 C 0.98425 0.05972 0.77532 0.0
C1149 C 0.07317 0.93987 0.76299 0.0
C1150 C 0.04312 -0.01749 0.76727 0.0
H1151 H 0.91247 0.23669 0.76513 0.0
H1152 H 0.96993 0.18753 0.76711 0.0
H1153 H 0.98287 0.0088 0.8023 0.0
H1154 H 0.09949 0.78407 0.77141 0.0
H1155 H 0.04719 0.8508 0.7723 0.0
C1156 C 0.62609 0.41326 0.74915 0.0
C1157 C 0.6294 0.34735 0.75441 0.0
C1158 C 0.59355 0.44341 0.75007 0.0
C1159 C 0.49892 0.41395 0.75652 0.0
H1160 H 0.50367 0.5745 0.78714 0.0
C1161 C 0.37437 0.53518 0.7841 0.0
C1162 C 0.37242 0.60156 0.7791 0.0
C1163 C 0.40649 0.5033 0.78365 0.0
C1164 C 0.50194 0.52981 0.77856 0.0
H1165 H 0.60153 0.25921 0.76273 0.0
H1166 H 0.54477 0.31124 0.76401 0.0
H1167 H 0.55727 0.52146 0.77667 0.0
H1168 H 0.40209 0.68862 0.77172 0.0
H1169 H 0.45797 0.63368 0.77116 0.0
H1170 H 0.44359 0.42252 0.75828 0.0
C1171 C 0.56699 0.34002 0.75934 0.0
C1172 C 0.53259 0.49985 0.77239 0.0
C1173 C 0.59945 0.3102 0.7586 0.0
C1174 C 0.40313 0.63727 0.77562 0.0
C1175 C 0.43511 0.60575 0.77532 0.0
C1176 C 0.46824 0.44403 0.76265 0.0
C1177 C 0.56403 0.40768 0.75607 0.0
C1178 C 0.53139 0.44177 0.76125 0.0
C1179 C 0.4369 0.53775 0.77837 0.0
C1180 C 0.46943 0.50239 0.77368 0.0
H1181 H 0.64893 0.44291 0.74604 0.0
H1182 H 0.59179 0.49548 0.74718 0.0
H1183 H 0.49726 0.36923 0.74794 0.0
H1184 H 0.3509 0.50668 0.78667 0.0
H1185 H 0.40727 0.45103 0.78639 0.0
C1186 C 0.60345 0.83513 0.26285 0.0
C1187 C 0.63398 0.87068 0.25883 0.0
C1188 C 0.57126 0.86568 0.26224 0.0
C1189 C 0.53596 0.02819 0.27099 0.0
H1190 H 0.44871 0.94536 0.25613 0.0
C1191 C 0.40445 0.15959 0.26857 0.0
C1192 C 0.37424 0.12333 0.27283 0.0
C1193 C 0.43692 0.13006 0.26927 0.0
C1194 C 0.47286 0.96851 0.26065 0.0
H1195 H 0.65509 0.96402 0.24957 0.0
H1196 H 0.59831 0.01805 0.24835 0.0
H1197 H 0.50346 0.89159 0.24815 0.0
H1198 H 0.35407 0.03005 0.28273 0.0
H1199 H 0.41128 0.97787 0.28404 0.0
H1200 H 0.5053 0.10524 0.28344 0.0
C1201 C 0.59941 0.96665 0.25215 0.0
C1202 C 0.50417 0.93812 0.2559 0.0
C1203 C 0.63175 0.9357 0.2526 0.0
C1204 C 0.37712 0.05891 0.27948 0.0
C1205 C 0.40971 0.02899 0.27999 0.0
C1206 C 0.50464 0.05865 0.27572 0.0
C1207 C 0.56909 0.93255 0.25774 0.0
C1208 C 0.53602 0.96759 0.26105 0.0
C1209 C 0.43966 0.06356 0.27408 0.0
C1210 C 0.4728 0.02901 0.27063 0.0
H1211 H 0.6047 0.78478 0.26767 0.0
H1212 H 0.54844 0.83817 0.2667 0.0
H1213 H 0.56011 0.05131 0.27554 0.0
H1214 H 0.40272 0.20954 0.26347 0.0
H1215 H 0.4595 0.15788 0.26461 0.0
loop_
_geom_bond_atom_site_label_1
_geom_bond_atom_site_label_2
_geom_bond_distance
_geom_bond_site_symmetry_2
_ccdc_geom_bond_type
Fe0 O1 1.886 1_556 S
Fe0 O4 1.715 . S
Fe0 O9 2.077 . S
Fe0 O14 1.935 1_655 S
Fe0 O20 2.077 . S
Fe0 O29 1.935 . S
O1 Fe0 1.886 1_554 S
O1 Fe3 1.715 . S
Fe2 O4 1.886 1_445 S
Fe2 O5 1.715 . S
Fe2 O12 1.935 . S
Fe2 O13 2.077 . S
Fe2 O19 1.935 1_455 S
Fe2 O28 2.077 1_455 S
Fe3 O1 1.715 . S
Fe3 O6 1.886 1_665 S
Fe3 O10 1.935 1_655 S
Fe3 O15 2.077 1_655 S
Fe3 O21 1.935 . S
Fe3 O25 2.077 . S
O4 Fe0 1.715 . S
O4 Fe2 1.886 1_665 S
O5 Fe2 1.715 . S
O5 Fe7 1.886 1_556 S
O6 Fe3 1.886 1_445 S
O6 Fe7 1.715 . S
Fe7 O5 1.886 1_554 S
Fe7 O6 1.715 . S
Fe7 O11 2.077 . S
Fe7 O16 1.935 . S
Fe7 O18 2.077 . S
Fe7 O26 1.935 1_455 S
C8 O20 1.381 1_554 S
C8 O21 1.421 . S
O9 Fe0 2.077 . S
O9 C22 1.381 1_656 S
O10 Fe3 1.935 1_455 S
O10 C22 1.421 . S
O11 Fe7 2.077 . S
O11 C27 1.333 1_554 S
O12 Fe2 1.935 . S
O12 C27 1.466 . S
O13 Fe2 2.077 . S
O13 C17 1.381 1_545 S
O14 Fe0 1.935 1_455 S
O14 C17 1.421 . S
O15 Fe3 2.077 1_455 S
O15 C23 1.381 . S
O16 Fe7 1.935 . S
O16 C23 1.421 1_545 S
C17 O13 1.381 1_565 S
C17 O14 1.421 . S
O18 Fe7 2.077 . S
O18 C30 1.333 1_454 S
O19 Fe2 1.935 1_655 S
O19 C30 1.466 . S
O20 Fe0 2.077 . S
O20 C8 1.381 1_556 S
O21 Fe3 1.935 . S
O21 C8 1.421 . S
C22 O9 1.381 1_454 S
C22 O10 1.421 . S
C23 O15 1.381 . S
C23 O16 1.421 1_565 S
C24 O25 1.381 1_545 S
C24 O26 1.421 . S
O25 Fe3 2.077 . S
O25 C24 1.381 1_565 S
O26 Fe7 1.935 1_655 S
O26 C24 1.421 . S
C27 O11 1.333 1_556 S
C27 O12 1.466 . S
O28 Fe2 2.077 1_655 S
O28 C31 1.381 . S
O29 Fe0 1.935 . S
O29 C31 1.421 1_565 S
C30 O18 1.333 1_656 S
C30 O19 1.466 . S
C31 O28 1.381 . S
C31 O29 1.421 1_545 S
Fe32 O33 1.886 . S
Fe32 O36 1.715 . S
Fe32 O41 2.077 . S
Fe32 O46 1.935 . S
Fe32 O52 2.077 . S
Fe32 O61 1.935 . S
O33 Fe32 1.886 . S
O33 Fe35 1.715 . S
Fe34 O36 1.886 . S
Fe34 O37 1.715 . S
Fe34 O44 1.935 . S
Fe34 O45 2.077 . S
Fe34 O51 1.935 . S
Fe34 O60 2.077 . S
Fe35 O33 1.715 . S
Fe35 O38 1.886 . S
Fe35 O42 1.935 . S
Fe35 O47 2.077 . S
Fe35 O53 1.935 . S
Fe35 O57 2.077 . S
O36 Fe32 1.715 . S
O36 Fe34 1.886 . S
O37 Fe34 1.715 . S
O37 Fe39 1.886 . S
O38 Fe35 1.886 . S
O38 Fe39 1.715 . S
Fe39 O37 1.886 . S
Fe39 O38 1.715 . S
Fe39 O43 2.077 . S
Fe39 O48 1.935 . S
Fe39 O50 2.077 . S
Fe39 O58 1.935 . S
C40 O52 1.381 . S
C40 O53 1.421 . S
O41 Fe32 2.077 . S
O41 C54 1.381 . S
O42 Fe35 1.935 . S
O42 C54 1.421 . S
O43 Fe39 2.077 . S
O43 C59 1.381 . S
O44 Fe34 1.935 . S
O44 C59 1.421 . S
O45 Fe34 2.077 . S
O45 C49 1.381 . S
O46 Fe32 1.935 . S
O46 C49 1.421 . S
O47 Fe35 2.077 . S
O47 C55 1.381 . S
O48 Fe39 1.935 . S
O48 C55 1.421 . S
C49 O45 1.381 . S
C49 O46 1.421 . S
O50 Fe39 2.077 . S
O50 C62 1.381 . S
O51 Fe34 1.935 . S
O51 C62 1.421 . S
O52 Fe32 2.077 . S
O52 C40 1.381 . S
O53 Fe35 1.935 . S
O53 C40 1.421 . S
C54 O41 1.381 . S
C54 O42 1.421 . S
C55 O47 1.381 . S
C55 O48 1.421 . S
C56 O57 1.381 . S
C56 O58 1.421 . S
O57 Fe35 2.077 . S
O57 C56 1.381 . S
O58 Fe39 1.935 . S
O58 C56 1.421 . S
C59 O43 1.381 . S
C59 O44 1.421 . S
O60 Fe34 2.077 . S
O60 C63 1.381 . S
O61 Fe32 1.935 . S
O61 C63 1.421 . S
C62 O50 1.381 . S
C62 O51 1.421 . S
C63 O60 1.381 . S
C63 O61 1.421 . S
Fe64 O65 1.886 . S
Fe64 O68 1.715 . S
Fe64 O73 2.077 . S
Fe64 O78 1.935 . S
Fe64 O84 2.077 . S
Fe64 O93 1.935 . S
O65 Fe64 1.886 . S
O65 Fe67 1.715 . S
Fe66 O68 1.886 . S
Fe66 O69 1.715 . S
Fe66 O76 1.935 . S
Fe66 O77 2.077 . S
Fe66 O83 1.935 . S
Fe66 O92 2.077 . S
Fe67 O65 1.715 . S
Fe67 O70 1.886 . S
Fe67 O74 1.935 . S
Fe67 O79 2.077 . S
Fe67 O85 1.935 . S
Fe67 O89 2.077 . S
O68 Fe64 1.715 . S
O68 Fe66 1.886 . S
O69 Fe66 1.715 . S
O69 Fe71 1.886 . S
O70 Fe67 1.886 . S
O70 Fe71 1.715 . S
Fe71 O69 1.886 . S
Fe71 O70 1.715 . S
Fe71 O75 2.077 . S
Fe71 O80 1.935 . S
Fe71 O82 2.077 . S
Fe71 O90 1.935 . S
C72 O84 1.381 . S
C72 O85 1.421 . S
O73 Fe64 2.077 . S
O73 C86 1.381 . S
O74 Fe67 1.935 . S
O74 C86 1.421 . S
O75 Fe71 2.077 . S
O75 C91 1.381 . S
O76 Fe66 1.935 . S
O76 C91 1.421 . S
O77 Fe66 2.077 . S
O77 C81 1.381 . S
O78 Fe64 1.935 . S
O78 C81 1.421 . S
O79 Fe67 2.077 . S
O79 C87 1.381 . S
O80 Fe71 1.935 . S
O80 C87 1.421 . S
C81 O77 1.381 . S
C81 O78 1.421 . S
O82 Fe71 2.077 . S
O82 C94 1.381 . S
O83 Fe66 1.935 . S
O83 C94 1.421 . S
O84 Fe64 2.077 . S
O84 C72 1.381 . S
O85 Fe67 1.935 . S
O85 C72 1.421 . S
C86 O73 1.381 . S
C86 O74 1.421 . S
C87 O79 1.381 . S
C87 O80 1.421 . S
C88 O89 1.381 . S
C88 O90 1.421 . S
O89 Fe67 2.077 . S
O89 C88 1.381 . S
O90 Fe71 1.935 . S
O90 C88 1.421 . S
C91 O75 1.381 . S
C91 O76 1.421 . S
O92 Fe66 2.077 . S
O92 C95 1.381 . S
O93 Fe64 1.935 . S
O93 C95 1.421 . S
C94 O82 1.381 . S
C94 O83 1.421 . S
C95 O92 1.381 . S
C95 O93 1.421 . S
Fe96 O97 1.886 . S
Fe96 O100 1.715 . S
Fe96 O105 2.077 . S
Fe96 O110 1.935 1_655 S
Fe96 O116 2.077 . S
Fe96 O125 1.935 . S
O97 Fe96 1.886 . S
O97 Fe99 1.715 . S
Fe98 O100 1.886 1_455 S
Fe98 O101 1.715 . S
Fe98 O108 1.935 . S
Fe98 O109 2.077 . S
Fe98 O115 1.935 1_455 S
Fe98 O124 2.077 1_455 S
Fe99 O97 1.715 . S
Fe99 O102 1.886 1_655 S
Fe99 O106 1.935 1_655 S
Fe99 O111 2.077 1_655 S
Fe99 O117 1.935 . S
Fe99 O121 2.077 . S
O100 Fe96 1.715 . S
O100 Fe98 1.886 1_655 S
O101 Fe98 1.715 . S
O101 Fe103 1.886 . S
O102 Fe99 1.886 1_455 S
O102 Fe103 1.715 . S
Fe103 O101 1.886 . S
Fe103 O102 1.715 . S
Fe103 O107 2.077 . S
Fe103 O112 1.935 . S
Fe103 O114 2.077 . S
Fe103 O122 1.935 1_455 S
C104 O116 1.381 . S
C104 O117 1.421 . S
O105 Fe96 2.077 . S
O105 C118 1.381 1_655 S
O106 Fe99 1.935 1_455 S
O106 C118 1.421 . S
O107 Fe103 2.077 . S
O107 C123 1.381 . S
O108 Fe98 1.935 . S
O108 C123 1.421 . S
O109 Fe98 2.077 . S
O109 C113 1.381 . S
O110 Fe96 1.935 1_455 S
O110 C113 1.421 . S
O111 Fe99 2.077 1_455 S
O111 C119 1.381 . S
O112 Fe103 1.935 . S
O112 C119 1.421 . S
C113 O109 1.381 . S
C113 O110 1.421 . S
O114 Fe103 2.077 . S
O114 C126 1.381 1_455 S
O115 Fe98 1.935 1_655 S
O115 C126 1.421 . S
O116 Fe96 2.077 . S
O116 C104 1.381 . S
O117 Fe99 1.935 . S
O117 C104 1.421 . S
C118 O105 1.381 1_455 S
C118 O106 1.421 . S
C119 O111 1.381 . S
C119 O112 1.421 . S
C120 O121 1.381 . S
C120 O122 1.421 . S
O121 Fe99 2.077 . S
O121 C120 1.381 . S
O122 Fe103 1.935 1_655 S
O122 C120 1.421 . S
C123 O107 1.381 . S
C123 O108 1.421 . S
O124 Fe98 2.077 1_655 S
O124 C127 1.381 . S
O125 Fe96 1.935 . S
O125 C127 1.421 . S
C126 O114 1.381 1_655 S
C126 O115 1.421 . S
C127 O124 1.381 . S
C127 O125 1.421 . S
Fe128 O129 1.886 . S
Fe128 O132 1.715 . S
Fe128 O137 2.077 . S
Fe128 O142 1.935 . S
Fe128 O148 2.077 . S
Fe128 O157 1.935 . S
O129 Fe128 1.886 . S
O129 Fe131 1.715 . S
Fe130 O132 1.886 . S
Fe130 O133 1.715 . S
Fe130 O140 1.935 . S
Fe130 O141 2.077 . S
Fe130 O147 1.935 . S
Fe130 O156 2.077 . S
Fe131 O129 1.715 . S
Fe131 O134 1.886 . S
Fe131 O138 1.935 . S
Fe131 O143 2.077 . S
Fe131 O149 1.935 . S
Fe131 O153 2.077 . S
O132 Fe128 1.715 . S
O132 Fe130 1.886 . S
O133 Fe130 1.715 . S
O133 Fe135 1.886 . S
O134 Fe131 1.886 . S
O134 Fe135 1.715 . S
Fe135 O133 1.886 . S
Fe135 O134 1.715 . S
Fe135 O139 2.077 . S
Fe135 O144 1.935 . S
Fe135 O146 2.077 . S
Fe135 O154 1.935 . S
C136 O148 1.381 . S
C136 O149 1.421 . S
O137 Fe128 2.077 . S
O137 C150 1.381 . S
O138 Fe131 1.935 . S
O138 C150 1.421 . S
O139 Fe135 2.077 . S
O139 C155 1.381 . S
O140 Fe130 1.935 . S
O140 C155 1.421 . S
O141 Fe130 2.077 . S
O141 C145 1.381 . S
O142 Fe128 1.935 . S
O142 C145 1.421 . S
O143 Fe131 2.077 . S
O143 C151 1.381 . S
O144 Fe135 1.935 . S
O144 C151 1.421 . S
C145 O141 1.381 . S
C145 O142 1.421 . S
O146 Fe135 2.077 . S
O146 C158 1.381 . S
O147 Fe130 1.935 . S
O147 C158 1.421 . S
O148 Fe128 2.077 . S
O148 C136 1.381 . S
O149 Fe131 1.935 . S
O149 C136 1.421 . S
C150 O137 1.381 . S
C150 O138 1.421 . S
C151 O143 1.381 . S
C151 O144 1.421 . S
C152 O153 1.381 . S
C152 O154 1.421 . S
O153 Fe131 2.077 . S
O153 C152 1.381 . S
O154 Fe135 1.935 . S
O154 C152 1.421 . S
C155 O139 1.381 . S
C155 O140 1.421 . S
O156 Fe130 2.077 . S
O156 C159 1.381 . S
O157 Fe128 1.935 . S
O157 C159 1.421 . S
C158 O146 1.381 . S
C158 O147 1.421 . S
C159 O156 1.381 . S
C159 O157 1.421 . S
Fe160 O161 1.886 . S
Fe160 O164 1.715 . S
Fe160 O169 2.077 . S
Fe160 O174 1.935 . S
Fe160 O180 2.077 . S
Fe160 O189 1.935 . S
O161 Fe160 1.886 . S
O161 Fe163 1.715 . S
Fe162 O164 1.886 . S
Fe162 O165 1.715 . S
Fe162 O172 1.935 . S
Fe162 O173 2.077 . S
Fe162 O179 1.935 . S
Fe162 O188 2.077 . S
Fe163 O161 1.715 . S
Fe163 O166 1.886 . S
Fe163 O170 1.935 . S
Fe163 O175 2.077 . S
Fe163 O181 1.935 . S
Fe163 O185 2.077 . S
O164 Fe160 1.715 . S
O164 Fe162 1.886 . S
O165 Fe162 1.715 . S
O165 Fe167 1.886 . S
O166 Fe163 1.886 . S
O166 Fe167 1.715 . S
Fe167 O165 1.886 . S
Fe167 O166 1.715 . S
Fe167 O171 2.077 . S
Fe167 O176 1.935 . S
Fe167 O178 2.077 . S
Fe167 O186 1.935 . S
C168 O180 1.381 . S
C168 O181 1.421 . S
O169 Fe160 2.077 . S
O169 C182 1.381 . S
O170 Fe163 1.935 . S
O170 C182 1.421 . S
O171 Fe167 2.077 . S
O171 C187 1.381 . S
O172 Fe162 1.935 . S
O172 C187 1.421 . S
O173 Fe162 2.077 . S
O173 C177 1.381 . S
O174 Fe160 1.935 . S
O174 C177 1.421 . S
O175 Fe163 2.077 . S
O175 C183 1.381 . S
O176 Fe167 1.935 . S
O176 C183 1.421 . S
C177 O173 1.381 . S
C177 O174 1.421 . S
O178 Fe167 2.077 . S
O178 C190 1.381 . S
O179 Fe162 1.935 . S
O179 C190 1.421 . S
O180 Fe160 2.077 . S
O180 C168 1.381 . S
O181 Fe163 1.935 . S
O181 C168 1.421 . S
C182 O169 1.381 . S
C182 O170 1.421 . S
C183 O175 1.381 . S
C183 O176 1.421 . S
C184 O185 1.381 . S
C184 O186 1.421 . S
O185 Fe163 2.077 . S
O185 C184 1.381 . S
O186 Fe167 1.935 . S
O186 C184 1.421 . S
C187 O171 1.381 . S
C187 O172 1.421 . S
O188 Fe162 2.077 . S
O188 C191 1.381 . S
O189 Fe160 1.935 . S
O189 C191 1.421 . S
C190 O178 1.381 . S
C190 O179 1.421 . S
C191 O188 1.381 . S
C191 O189 1.421 . S
Fe192 O193 1.886 . S
Fe192 O196 1.715 . S
Fe192 O201 2.077 . S
Fe192 O206 1.935 . S
Fe192 O212 2.077 . S
Fe192 O221 1.935 . S
O193 Fe192 1.886 . S
O193 Fe195 1.715 . S
Fe194 O196 1.886 1_545 S
Fe194 O197 1.715 . S
Fe194 O204 1.935 . S
Fe194 O205 2.077 . S
Fe194 O211 1.935 . S
Fe194 O220 2.077 . S
Fe195 O193 1.715 . S
Fe195 O198 1.886 1_565 S
Fe195 O202 1.935 . S
Fe195 O207 2.077 . S
Fe195 O213 1.935 . S
Fe195 O217 2.077 . S
O196 Fe192 1.715 . S
O196 Fe194 1.886 1_565 S
O197 Fe194 1.715 . S
O197 Fe199 1.886 . S
O198 Fe195 1.886 1_545 S
O198 Fe199 1.715 . S
Fe199 O197 1.886 . S
Fe199 O198 1.715 . S
Fe199 O203 2.077 . S
Fe199 O208 1.935 . S
Fe199 O210 2.077 . S
Fe199 O218 1.935 . S
C200 O212 1.381 . S
C200 O213 1.421 . S
O201 Fe192 2.077 . S
O201 C214 1.381 . S
O202 Fe195 1.935 . S
O202 C214 1.421 . S
O203 Fe199 2.077 . S
O203 C219 1.381 . S
O204 Fe194 1.935 . S
O204 C219 1.421 . S
O205 Fe194 2.077 . S
O205 C209 1.381 1_545 S
O206 Fe192 1.935 . S
O206 C209 1.421 . S
O207 Fe195 2.077 . S
O207 C215 1.381 . S
O208 Fe199 1.935 . S
O208 C215 1.421 1_545 S
C209 O205 1.381 1_565 S
C209 O206 1.421 . S
O210 Fe199 2.077 . S
O210 C222 1.381 . S
O211 Fe194 1.935 . S
O211 C222 1.421 . S
O212 Fe192 2.077 . S
O212 C200 1.381 . S
O213 Fe195 1.935 . S
O213 C200 1.421 . S
C214 O201 1.381 . S
C214 O202 1.421 . S
C215 O207 1.381 . S
C215 O208 1.421 1_565 S
C216 O217 1.381 1_545 S
C216 O218 1.421 . S
O217 Fe195 2.077 . S
O217 C216 1.381 1_565 S
O218 Fe199 1.935 . S
O218 C216 1.421 . S
C219 O203 1.381 . S
C219 O204 1.421 . S
O220 Fe194 2.077 . S
O220 C223 1.381 . S
O221 Fe192 1.935 . S
O221 C223 1.421 1_565 S
C222 O210 1.381 . S
C222 O211 1.421 . S
C223 O220 1.381 . S
C223 O221 1.421 1_545 S
Fe224 O225 1.886 1_556 S
Fe224 O228 1.715 . S
Fe224 O233 2.077 . S
Fe224 O238 1.935 . S
Fe224 O244 2.077 . S
Fe224 O253 1.935 . S
O225 Fe224 1.886 1_554 S
O225 Fe227 1.715 . S
Fe226 O228 1.886 . S
Fe226 O229 1.715 . S
Fe226 O236 1.935 . S
Fe226 O237 2.077 . S
Fe226 O243 1.935 . S
Fe226 O252 2.077 . S
Fe227 O225 1.715 . S
Fe227 O230 1.886 . S
Fe227 O234 1.935 . S
Fe227 O239 2.077 . S
Fe227 O245 1.935 . S
Fe227 O249 2.077 . S
O228 Fe224 1.715 . S
O228 Fe226 1.886 . S
O229 Fe226 1.715 . S
O229 Fe231 1.886 1_556 S
O230 Fe227 1.886 . S
O230 Fe231 1.715 . S
Fe231 O229 1.886 1_554 S
Fe231 O230 1.715 . S
Fe231 O235 2.077 . S
Fe231 O240 1.935 . S
Fe231 O242 2.077 . S
Fe231 O250 1.935 . S
C232 O244 1.381 1_554 S
C232 O245 1.421 . S
O233 Fe224 2.077 . S
O233 C246 1.381 1_556 S
O234 Fe227 1.935 . S
O234 C246 1.421 . S
O235 Fe231 2.077 . S
O235 C251 1.333 1_554 S
O236 Fe226 1.935 . S
O236 C251 1.466 . S
O237 Fe226 2.077 . S
O237 C241 1.381 . S
O238 Fe224 1.935 . S
O238 C241 1.421 . S
O239 Fe227 2.077 . S
O239 C247 1.381 . S
O240 Fe231 1.935 . S
O240 C247 1.421 . S
C241 O237 1.381 . S
C241 O238 1.421 . S
O242 Fe231 2.077 . S
O242 C254 1.333 1_554 S
O243 Fe226 1.935 . S
O243 C254 1.466 . S
O244 Fe224 2.077 . S
O244 C232 1.381 1_556 S
O245 Fe227 1.935 . S
O245 C232 1.421 . S
C246 O233 1.381 1_554 S
C246 O234 1.421 . S
C247 O239 1.381 . S
C247 O240 1.421 . S
C248 O249 1.381 . S
C248 O250 1.421 . S
O249 Fe227 2.077 . S
O249 C248 1.381 . S
O250 Fe231 1.935 . S
O250 C248 1.421 . S
C251 O235 1.333 1_556 S
C251 O236 1.466 . S
O252 Fe226 2.077 . S
O252 C255 1.381 . S
O253 Fe224 1.935 . S
O253 C255 1.421 . S
C254 O242 1.333 1_556 S
C254 O243 1.466 . S
C255 O252 1.381 . S
C255 O253 1.421 . S
C256 C257 1.349 . S
C256 C258 1.327 . S
C256 H281 0.950 . S
C257 C256 1.349 . S
C257 C273 1.349 1_565 S
C258 C256 1.327 . S
C258 C277 1.429 1_565 S
C258 H282 0.950 . S
C259 C276 1.574 . S
C259 C278 1.368 . S
C259 H283 0.949 . S
H260 C264 0.949 . S
C261 C262 1.349 . S
C261 C263 1.327 . S
C261 H284 0.950 . S
C262 C261 1.349 . S
C262 C274 1.349 . S
C263 C261 1.327 . S
C263 C279 1.429 . S
C263 H285 0.950 . S
C264 H260 0.949 . S
C264 C272 1.574 1_545 S
C264 C280 1.368 . S
H265 C273 0.950 . S
H266 C271 0.950 . S
H267 C272 0.949 . S
H268 C274 0.950 . S
H269 C275 0.950 . S
H270 C276 0.949 . S
C271 H266 0.950 . S
C271 C273 1.327 . S
C271 C277 1.429 . S
C272 C264 1.574 1_565 S
C272 H267 0.949 . S
C272 C278 1.368 1_565 S
C273 C257 1.349 1_545 S
C273 H265 0.950 . S
C273 C271 1.327 . S
C274 C262 1.349 . S
C274 H268 0.950 . S
C274 C275 1.327 . S
C275 H269 0.950 . S
C275 C274 1.327 . S
C275 C279 1.429 . S
C276 C259 1.574 . S
C276 H270 0.949 . S
C276 C280 1.368 . S
C277 C258 1.429 1_545 S
C277 C271 1.429 . S
C277 C278 1.523 . S
C278 C259 1.368 . S
C278 C272 1.368 1_545 S
C278 C277 1.523 . S
C279 C263 1.429 . S
C279 C275 1.429 . S
C279 C280 1.523 . S
C280 C264 1.368 . S
C280 C276 1.368 . S
C280 C279 1.523 . S
H281 C256 0.950 . S
H282 C258 0.950 . S
H283 C259 0.949 . S
H284 C261 0.950 . S
H285 C263 0.950 . S
C286 C287 1.349 . S
C286 C288 1.327 1_545 S
C286 H311 0.950 . S
C287 C286 1.349 . S
C287 C303 1.349 . S
C288 C286 1.327 1_565 S
C288 C307 1.429 . S
C288 H312 0.950 . S
C289 C306 1.574 . S
C289 C308 1.368 . S
C289 H313 0.949 . S
H290 C294 0.949 . S
C291 C292 1.349 . S
C291 C293 1.327 . S
C291 H314 0.950 . S
C292 C291 1.349 . S
C292 C304 1.349 . S
C293 C291 1.327 . S
C293 C309 1.429 . S
C293 H315 0.950 . S
C294 H290 0.949 . S
C294 C302 1.574 . S
C294 C310 1.368 . S
H295 C303 0.950 . S
H296 C301 0.950 . S
H297 C302 0.949 . S
H298 C304 0.950 . S
H299 C305 0.950 . S
H300 C306 0.949 . S
C301 H296 0.950 . S
C301 C303 1.327 . S
C301 C307 1.429 1_545 S
C302 C294 1.574 . S
C302 H297 0.949 . S
C302 C308 1.368 . S
C303 C287 1.349 . S
C303 H295 0.950 . S
C303 C301 1.327 . S
C304 C292 1.349 . S
C304 H298 0.950 . S
C304 C305 1.327 . S
C305 H299 0.950 . S
C305 C304 1.327 . S
C305 C309 1.429 . S
C306 C289 1.574 . S
C306 H300 0.949 . S
C306 C310 1.368 . S
C307 C288 1.429 . S
C307 C301 1.429 1_565 S
C307 C308 1.523 . S
C308 C289 1.368 . S
C308 C302 1.368 . S
C308 C307 1.523 . S
C309 C293 1.429 . S
C309 C305 1.429 . S
C309 C310 1.523 . S
C310 C294 1.368 . S
C310 C306 1.368 . S
C310 C309 1.523 . S
H311 C286 0.950 . S
H312 C288 0.950 . S
H313 C289 0.949 . S
H314 C291 0.950 . S
H315 C293 0.950 . S
C316 C317 1.349 . S
C316 C318 1.327 . S
C316 H341 0.950 . S
C317 C316 1.349 . S
C317 C333 1.349 . S
C318 C316 1.327 . S
C318 C337 1.429 . S
C318 H342 0.950 . S
C319 C336 1.574 . S
C319 C338 1.368 . S
C319 H343 0.949 . S
H320 C324 0.949 . S
C321 C322 1.349 . S
C321 C323 1.327 . S
C321 H344 0.950 . S
C322 C321 1.349 . S
C322 C334 1.349 . S
C323 C321 1.327 . S
C323 C339 1.429 . S
C323 H345 0.950 . S
C324 H320 0.949 . S
C324 C332 1.574 . S
C324 C340 1.368 . S
H325 C333 0.950 . S
H326 C331 0.950 . S
H327 C332 0.949 . S
H328 C334 0.950 . S
H329 C335 0.950 . S
H330 C336 0.949 . S
C331 H326 0.950 . S
C331 C333 1.327 . S
C331 C337 1.429 . S
C332 C324 1.574 . S
C332 H327 0.949 . S
C332 C338 1.368 . S
C333 C317 1.349 . S
C333 H325 0.950 . S
C333 C331 1.327 . S
C334 C322 1.349 . S
C334 H328 0.950 . S
C334 C335 1.327 . S
C335 H329 0.950 . S
C335 C334 1.327 . S
C335 C339 1.429 . S
C336 C319 1.574 . S
C336 H330 0.949 . S
C336 C340 1.368 . S
C337 C318 1.429 . S
C337 C331 1.429 . S
C337 C338 1.523 . S
C338 C319 1.368 . S
C338 C332 1.368 . S
C338 C337 1.523 . S
C339 C323 1.429 . S
C339 C335 1.429 . S
C339 C340 1.523 . S
C340 C324 1.368 . S
C340 C336 1.368 . S
C340 C339 1.523 . S
H341 C316 0.950 . S
H342 C318 0.950 . S
H343 C319 0.949 . S
H344 C321 0.950 . S
H345 C323 0.950 . S
C346 C347 1.349 . S
C346 C348 1.327 . S
C346 H371 0.950 . S
C347 C346 1.349 . S
C347 C363 1.349 . S
C348 C346 1.327 . S
C348 C367 1.429 . S
C348 H372 0.950 . S
C349 C366 1.574 . S
C349 C368 1.368 . S
C349 H373 0.949 . S
H350 C354 0.949 . S
C351 C352 1.349 . S
C351 C353 1.327 . S
C351 H374 0.950 . S
C352 C351 1.349 . S
C352 C364 1.349 . S
C353 C351 1.327 . S
C353 C369 1.429 . S
C353 H375 0.950 . S
C354 H350 0.949 . S
C354 C362 1.574 . S
C354 C370 1.368 . S
H355 C363 0.950 . S
H356 C361 0.950 . S
H357 C362 0.949 . S
H358 C364 0.950 . S
H359 C365 0.950 . S
H360 C366 0.949 . S
C361 H356 0.950 . S
C361 C363 1.327 . S
C361 C367 1.429 . S
C362 C354 1.574 . S
C362 H357 0.949 . S
C362 C368 1.368 . S
C363 C347 1.349 . S
C363 H355 0.950 . S
C363 C361 1.327 . S
C364 C352 1.349 . S
C364 H358 0.950 . S
C364 C365 1.327 . S
C365 H359 0.950 . S
C365 C364 1.327 . S
C365 C369 1.429 . S
C366 C349 1.574 . S
C366 H360 0.949 . S
C366 C370 1.368 . S
C367 C348 1.429 . S
C367 C361 1.429 . S
C367 C368 1.523 . S
C368 C349 1.368 . S
C368 C362 1.368 . S
C368 C367 1.523 . S
C369 C353 1.429 . S
C369 C365 1.429 . S
C369 C370 1.523 . S
C370 C354 1.368 . S
C370 C366 1.368 . S
C370 C369 1.523 . S
H371 C346 0.950 . S
H372 C348 0.950 . S
H373 C349 0.949 . S
H374 C351 0.950 . S
H375 C353 0.950 . S
C376 C377 1.349 . S
C376 C378 1.327 . S
C376 H401 0.950 . S
C377 C376 1.349 . S
C377 C393 1.349 . S
C378 C376 1.327 . S
C378 C397 1.429 . S
C378 H402 0.950 . S
C379 C396 1.574 . S
C379 C398 1.368 . S
C379 H403 0.949 . S
H380 C384 0.949 . S
C381 C382 1.349 . S
C381 C383 1.327 . S
C381 H404 0.950 . S
C382 C381 1.349 . S
C382 C394 1.349 . S
C383 C381 1.327 . S
C383 C399 1.429 . S
C383 H405 0.950 . S
C384 H380 0.949 . S
C384 C392 1.574 . S
C384 C400 1.368 . S
H385 C393 0.950 . S
H386 C391 0.950 . S
H387 C392 0.949 . S
H388 C394 0.950 . S
H389 C395 0.950 . S
H390 C396 0.949 . S
C391 H386 0.950 . S
C391 C393 1.327 . S
C391 C397 1.429 . S
C392 C384 1.574 . S
C392 H387 0.949 . S
C392 C398 1.368 . S
C393 C377 1.349 . S
C393 H385 0.950 . S
C393 C391 1.327 . S
C394 C382 1.349 . S
C394 H388 0.950 . S
C394 C395 1.327 . S
C395 H389 0.950 . S
C395 C394 1.327 . S
C395 C399 1.429 . S
C396 C379 1.574 . S
C396 H390 0.949 . S
C396 C400 1.368 . S
C397 C378 1.429 . S
C397 C391 1.429 . S
C397 C398 1.523 . S
C398 C379 1.368 . S
C398 C392 1.368 . S
C398 C397 1.523 . S
C399 C383 1.429 . S
C399 C395 1.429 . S
C399 C400 1.523 . S
C400 C384 1.368 . S
C400 C396 1.368 . S
C400 C399 1.523 . S
H401 C376 0.950 . S
H402 C378 0.950 . S
H403 C379 0.949 . S
H404 C381 0.950 . S
H405 C383 0.950 . S
C406 C407 1.349 . S
C406 C408 1.327 . S
C406 H431 0.950 . S
C407 C406 1.349 . S
C407 C423 1.349 . S
C408 C406 1.327 . S
C408 C427 1.429 . S
C408 H432 0.950 . S
C409 C426 1.574 . S
C409 C428 1.368 . S
C409 H433 0.949 . S
H410 C414 0.949 . S
C411 C412 1.349 . S
C411 C413 1.327 . S
C411 H434 0.950 . S
C412 C411 1.349 . S
C412 C424 1.349 . S
C413 C411 1.327 . S
C413 C429 1.429 . S
C413 H435 0.950 . S
C414 H410 0.949 . S
C414 C422 1.574 . S
C414 C430 1.368 . S
H415 C423 0.950 . S
H416 C421 0.950 . S
H417 C422 0.949 . S
H418 C424 0.950 . S
H419 C425 0.950 . S
H420 C426 0.949 . S
C421 H416 0.950 . S
C421 C423 1.327 . S
C421 C427 1.429 . S
C422 C414 1.574 . S
C422 H417 0.949 . S
C422 C428 1.368 . S
C423 C407 1.349 . S
C423 H415 0.950 . S
C423 C421 1.327 . S
C424 C412 1.349 . S
C424 H418 0.950 . S
C424 C425 1.327 . S
C425 H419 0.950 . S
C425 C424 1.327 . S
C425 C429 1.429 . S
C426 C409 1.574 . S
C426 H420 0.949 . S
C426 C430 1.368 . S
C427 C408 1.429 . S
C427 C421 1.429 . S
C427 C428 1.523 . S
C428 C409 1.368 . S
C428 C422 1.368 . S
C428 C427 1.523 . S
C429 C413 1.429 . S
C429 C425 1.429 . S
C429 C430 1.523 . S
C430 C414 1.368 . S
C430 C426 1.368 . S
C430 C429 1.523 . S
H431 C406 0.950 . S
H432 C408 0.950 . S
H433 C409 0.949 . S
H434 C411 0.950 . S
H435 C413 0.950 . S
C436 C437 1.349 . S
C436 C438 1.327 . S
C436 H461 0.950 . S
C437 C436 1.349 . S
C437 C453 1.349 . S
C438 C436 1.327 . S
C438 C457 1.429 . S
C438 H462 0.950 . S
C439 C456 1.574 . S
C439 C458 1.368 . S
C439 H463 0.949 . S
H440 C444 0.949 . S
C441 C442 1.349 . S
C441 C443 1.327 . S
C441 H464 0.950 . S
C442 C441 1.349 . S
C442 C454 1.349 . S
C443 C441 1.327 . S
C443 C459 1.429 . S
C443 H465 0.950 . S
C444 H440 0.949 . S
C444 C452 1.574 . S
C444 C460 1.368 . S
H445 C453 0.950 . S
H446 C451 0.950 . S
H447 C452 0.949 . S
H448 C454 0.950 . S
H449 C455 0.950 . S
H450 C456 0.949 . S
C451 H446 0.950 . S
C451 C453 1.327 . S
C451 C457 1.429 . S
C452 C444 1.574 . S
C452 H447 0.949 . S
C452 C458 1.368 . S
C453 C437 1.349 . S
C453 H445 0.950 . S
C453 C451 1.327 . S
C454 C442 1.349 . S
C454 H448 0.950 . S
C454 C455 1.327 . S
C455 H449 0.950 . S
C455 C454 1.327 . S
C455 C459 1.429 . S
C456 C439 1.574 . S
C456 H450 0.949 . S
C456 C460 1.368 . S
C457 C438 1.429 . S
C457 C451 1.429 . S
C457 C458 1.523 . S
C458 C439 1.368 . S
C458 C452 1.368 . S
C458 C457 1.523 . S
C459 C443 1.429 . S
C459 C455 1.429 . S
C459 C460 1.523 . S
C460 C444 1.368 . S
C460 C456 1.368 . S
C460 C459 1.523 . S
H461 C436 0.950 . S
H462 C438 0.950 . S
H463 C439 0.949 . S
H464 C441 0.950 . S
H465 C443 0.950 . S
C466 C467 1.349 . S
C466 C468 1.327 . S
C466 H491 0.950 . S
C467 C466 1.349 . S
C467 C483 1.349 . S
C468 C466 1.327 . S
C468 C487 1.429 . S
C468 H492 0.950 . S
C469 C486 1.574 . S
C469 C488 1.368 . S
C469 H493 0.949 . S
H470 C474 0.949 . S
C471 C472 1.349 . S
C471 C473 1.327 . S
C471 H494 0.950 . S
C472 C471 1.349 . S
C472 C484 1.349 . S
C473 C471 1.327 . S
C473 C489 1.429 . S
C473 H495 0.950 . S
C474 H470 0.949 . S
C474 C482 1.574 . S
C474 C490 1.368 . S
H475 C483 0.950 . S
H476 C481 0.950 . S
H477 C482 0.949 . S
H478 C484 0.950 . S
H479 C485 0.950 . S
H480 C486 0.949 . S
C481 H476 0.950 . S
C481 C483 1.327 . S
C481 C487 1.429 . S
C482 C474 1.574 . S
C482 H477 0.949 . S
C482 C488 1.368 . S
C483 C467 1.349 . S
C483 H475 0.950 . S
C483 C481 1.327 . S
C484 C472 1.349 . S
C484 H478 0.950 . S
C484 C485 1.327 . S
C485 H479 0.950 . S
C485 C484 1.327 . S
C485 C489 1.429 . S
C486 C469 1.574 . S
C486 H480 0.949 . S
C486 C490 1.368 . S
C487 C468 1.429 . S
C487 C481 1.429 . S
C487 C488 1.523 . S
C488 C469 1.368 . S
C488 C482 1.368 . S
C488 C487 1.523 . S
C489 C473 1.429 . S
C489 C485 1.429 . S
C489 C490 1.523 . S
C490 C474 1.368 . S
C490 C486 1.368 . S
C490 C489 1.523 . S
H491 C466 0.950 . S
H492 C468 0.950 . S
H493 C469 0.949 . S
H494 C471 0.950 . S
H495 C473 0.950 . S
C496 C497 1.349 . S
C496 C498 1.327 . S
C496 H521 0.950 . S
C497 C496 1.349 . S
C497 C513 1.349 . S
C498 C496 1.327 . S
C498 C517 1.429 . S
C498 H522 0.950 . S
C499 C516 1.574 . S
C499 C518 1.368 . S
C499 H523 0.949 . S
H500 C504 0.949 1_565 S
C501 C502 1.349 1_545 S
C501 C503 1.327 . S
C501 H524 0.950 . S
C502 C501 1.349 1_565 S
C502 C514 1.349 . S
C503 C501 1.327 . S
C503 C519 1.429 . S
C503 H525 0.950 . S
C504 H500 0.949 1_545 S
C504 C512 1.574 . S
C504 C520 1.368 . S
H505 C513 0.950 . S
H506 C511 0.950 . S
H507 C512 0.949 . S
H508 C514 0.950 . S
H509 C515 0.950 . S
H510 C516 0.949 . S
C511 H506 0.950 . S
C511 C513 1.327 . S
C511 C517 1.429 . S
C512 C504 1.574 . S
C512 H507 0.949 . S
C512 C518 1.368 . S
C513 C497 1.349 . S
C513 H505 0.950 . S
C513 C511 1.327 . S
C514 C502 1.349 . S
C514 H508 0.950 . S
C514 C515 1.327 . S
C515 H509 0.950 . S
C515 C514 1.327 . S
C515 C519 1.429 1_565 S
C516 C499 1.574 . S
C516 H510 0.949 . S
C516 C520 1.368 . S
C517 C498 1.429 . S
C517 C511 1.429 . S
C517 C518 1.523 . S
C518 C499 1.368 . S
C518 C512 1.368 . S
C518 C517 1.523 . S
C519 C503 1.429 . S
C519 C515 1.429 1_545 S
C519 C520 1.523 . S
C520 C504 1.368 . S
C520 C516 1.368 . S
C520 C519 1.523 . S
H521 C496 0.950 . S
H522 C498 0.950 . S
H523 C499 0.949 . S
H524 C501 0.950 . S
H525 C503 0.950 . S
C526 C527 1.349 1_565 S
C526 C528 1.327 . S
C526 H551 0.950 . S
C527 C526 1.349 1_545 S
C527 C543 1.349 . S
C528 C526 1.327 . S
C528 C547 1.429 . S
C528 H552 0.950 . S
C529 C546 1.574 . S
C529 C548 1.368 . S
C529 H553 0.949 1_565 S
H530 C534 0.949 . S
C531 C532 1.349 . S
C531 C533 1.327 . S
C531 H554 0.950 . S
C532 C531 1.349 . S
C532 C544 1.349 . S
C533 C531 1.327 . S
C533 C549 1.429 . S
C533 H555 0.950 . S
C534 H530 0.949 . S
C534 C542 1.574 . S
C534 C550 1.368 . S
H535 C543 0.950 . S
H536 C541 0.950 . S
H537 C542 0.949 . S
H538 C544 0.950 . S
H539 C545 0.950 . S
H540 C546 0.949 . S
C541 H536 0.950 . S
C541 C543 1.327 . S
C541 C547 1.429 1_545 S
C542 C534 1.574 . S
C542 H537 0.949 . S
C542 C548 1.368 . S
C543 C527 1.349 . S
C543 H535 0.950 . S
C543 C541 1.327 . S
C544 C532 1.349 . S
C544 H538 0.950 . S
C544 C545 1.327 . S
C545 H539 0.950 . S
C545 C544 1.327 . S
C545 C549 1.429 . S
C546 C529 1.574 . S
C546 H540 0.949 . S
C546 C550 1.368 . S
C547 C528 1.429 . S
C547 C541 1.429 1_565 S
C547 C548 1.523 . S
C548 C529 1.368 . S
C548 C542 1.368 . S
C548 C547 1.523 . S
C549 C533 1.429 . S
C549 C545 1.429 . S
C549 C550 1.523 . S
C550 C534 1.368 . S
C550 C546 1.368 . S
C550 C549 1.523 . S
H551 C526 0.950 . S
H552 C528 0.950 . S
H553 C529 0.949 1_545 S
H554 C531 0.950 . S
H555 C533 0.950 . S
C556 C557 1.349 . S
C556 C558 1.327 . S
C556 H581 0.950 . S
C557 C556 1.349 . S
C557 C573 1.349 . S
C558 C556 1.327 . S
C558 C577 1.429 . S
C558 H582 0.950 . S
C559 C576 1.574 . S
C559 C578 1.368 . S
C559 H583 0.949 . S
H560 C564 0.949 . S
C561 C562 1.349 . S
C561 C563 1.327 . S
C561 H584 0.950 . S
C562 C561 1.349 . S
C562 C574 1.349 . S
C563 C561 1.327 . S
C563 C579 1.429 . S
C563 H585 0.950 . S
C564 H560 0.949 . S
C564 C572 1.574 . S
C564 C580 1.368 . S
H565 C573 0.950 . S
H566 C571 0.950 . S
H567 C572 0.949 . S
H568 C574 0.950 . S
H569 C575 0.950 . S
H570 C576 0.949 . S
C571 H566 0.950 . S
C571 C573 1.327 . S
C571 C577 1.429 . S
C572 C564 1.574 . S
C572 H567 0.949 . S
C572 C578 1.368 . S
C573 C557 1.349 . S
C573 H565 0.950 . S
C573 C571 1.327 . S
C574 C562 1.349 . S
C574 H568 0.950 . S
C574 C575 1.327 . S
C575 H569 0.950 . S
C575 C574 1.327 . S
C575 C579 1.429 . S
C576 C559 1.574 . S
C576 H570 0.949 . S
C576 C580 1.368 . S
C577 C558 1.429 . S
C577 C571 1.429 . S
C577 C578 1.523 . S
C578 C559 1.368 . S
C578 C572 1.368 . S
C578 C577 1.523 . S
C579 C563 1.429 . S
C579 C575 1.429 . S
C579 C580 1.523 . S
C580 C564 1.368 . S
C580 C576 1.368 . S
C580 C579 1.523 . S
H581 C556 0.950 . S
H582 C558 0.950 . S
H583 C559 0.949 . S
H584 C561 0.950 . S
H585 C563 0.950 . S
C586 C587 1.349 . S
C586 C588 1.327 . S
C586 H611 0.950 . S
C587 C586 1.349 . S
C587 C603 1.349 . S
C588 C586 1.327 . S
C588 C607 1.429 . S
C588 H612 0.950 . S
C589 C606 1.574 . S
C589 C608 1.368 . S
C589 H613 0.949 . S
H590 C594 0.949 . S
C591 C592 1.349 . S
C591 C593 1.327 . S
C591 H614 0.950 . S
C592 C591 1.349 . S
C592 C604 1.349 . S
C593 C591 1.327 . S
C593 C609 1.429 . S
C593 H615 0.950 . S
C594 H590 0.949 . S
C594 C602 1.574 . S
C594 C610 1.368 . S
H595 C603 0.950 . S
H596 C601 0.950 . S
H597 C602 0.949 . S
H598 C604 0.950 . S
H599 C605 0.950 . S
H600 C606 0.949 . S
C601 H596 0.950 . S
C601 C603 1.327 . S
C601 C607 1.429 . S
C602 C594 1.574 . S
C602 H597 0.949 . S
C602 C608 1.368 . S
C603 C587 1.349 . S
C603 H595 0.950 . S
C603 C601 1.327 . S
C604 C592 1.349 . S
C604 H598 0.950 . S
C604 C605 1.327 . S
C605 H599 0.950 . S
C605 C604 1.327 . S
C605 C609 1.429 . S
C606 C589 1.574 . S
C606 H600 0.949 . S
C606 C610 1.368 . S
C607 C588 1.429 . S
C607 C601 1.429 . S
C607 C608 1.523 . S
C608 C589 1.368 . S
C608 C602 1.368 . S
C608 C607 1.523 . S
C609 C593 1.429 . S
C609 C605 1.429 . S
C609 C610 1.523 . S
C610 C594 1.368 . S
C610 C606 1.368 . S
C610 C609 1.523 . S
H611 C586 0.950 . S
H612 C588 0.950 . S
H613 C589 0.949 . S
H614 C591 0.950 . S
H615 C593 0.950 . S
C616 C617 1.349 . S
C616 C618 1.327 . S
C616 H641 0.950 . S
C617 C616 1.349 . S
C617 C633 1.349 . S
C618 C616 1.327 . S
C618 C637 1.429 . S
C618 H642 0.950 . S
C619 C636 1.574 . S
C619 C638 1.368 . S
C619 H643 0.949 . S
H620 C624 0.949 . S
C621 C622 1.349 . S
C621 C623 1.327 . S
C621 H644 0.950 . S
C622 C621 1.349 . S
C622 C634 1.349 . S
C623 C621 1.327 . S
C623 C639 1.429 . S
C623 H645 0.950 . S
C624 H620 0.949 . S
C624 C632 1.574 . S
C624 C640 1.368 . S
H625 C633 0.950 . S
H626 C631 0.950 . S
H627 C632 0.949 . S
H628 C634 0.950 . S
H629 C635 0.950 . S
H630 C636 0.949 . S
C631 H626 0.950 . S
C631 C633 1.327 . S
C631 C637 1.429 . S
C632 C624 1.574 . S
C632 H627 0.949 . S
C632 C638 1.368 . S
C633 C617 1.349 . S
C633 H625 0.950 . S
C633 C631 1.327 . S
C634 C622 1.349 . S
C634 H628 0.950 . S
C634 C635 1.327 . S
C635 H629 0.950 . S
C635 C634 1.327 . S
C635 C639 1.429 . S
C636 C619 1.574 . S
C636 H630 0.949 . S
C636 C640 1.368 . S
C637 C618 1.429 . S
C637 C631 1.429 . S
C637 C638 1.523 . S
C638 C619 1.368 . S
C638 C632 1.368 . S
C638 C637 1.523 . S
C639 C623 1.429 . S
C639 C635 1.429 . S
C639 C640 1.523 . S
C640 C624 1.368 . S
C640 C636 1.368 . S
C640 C639 1.523 . S
H641 C616 0.950 . S
H642 C618 0.950 . S
H643 C619 0.949 . S
H644 C621 0.950 . S
H645 C623 0.950 . S
C646 C647 1.349 . S
C646 C648 1.327 . S
C646 H671 0.950 . S
C647 C646 1.349 . S
C647 C663 1.349 . S
C648 C646 1.327 . S
C648 C667 1.429 . S
C648 H672 0.950 . S
C649 C666 1.574 . S
C649 C668 1.368 . S
C649 H673 0.949 . S
H650 C654 0.949 . S
C651 C652 1.349 . S
C651 C653 1.327 . S
C651 H674 0.950 . S
C652 C651 1.349 . S
C652 C664 1.349 . S
C653 C651 1.327 . S
C653 C669 1.429 . S
C653 H675 0.950 . S
C654 H650 0.949 . S
C654 C662 1.574 . S
C654 C670 1.368 . S
H655 C663 0.950 . S
H656 C661 0.950 . S
H657 C662 0.949 . S
H658 C664 0.950 . S
H659 C665 0.950 . S
H660 C666 0.949 . S
C661 H656 0.950 . S
C661 C663 1.327 . S
C661 C667 1.429 . S
C662 C654 1.574 . S
C662 H657 0.949 . S
C662 C668 1.368 . S
C663 C647 1.349 . S
C663 H655 0.950 . S
C663 C661 1.327 . S
C664 C652 1.349 . S
C664 H658 0.950 . S
C664 C665 1.327 . S
C665 H659 0.950 . S
C665 C664 1.327 . S
C665 C669 1.429 . S
C666 C649 1.574 . S
C666 H660 0.949 . S
C666 C670 1.368 . S
C667 C648 1.429 . S
C667 C661 1.429 . S
C667 C668 1.523 . S
C668 C649 1.368 . S
C668 C662 1.368 . S
C668 C667 1.523 . S
C669 C653 1.429 . S
C669 C665 1.429 . S
C669 C670 1.523 . S
C670 C654 1.368 . S
C670 C666 1.368 . S
C670 C669 1.523 . S
H671 C646 0.950 . S
H672 C648 0.950 . S
H673 C649 0.949 . S
H674 C651 0.950 . S
H675 C653 0.950 . S
C676 C677 1.349 . S
C676 C678 1.327 . S
C676 H701 0.950 . S
C677 C676 1.349 . S
C677 C693 1.349 . S
C678 C676 1.327 . S
C678 C697 1.429 . S
C678 H702 0.950 . S
C679 C696 1.574 . S
C679 C698 1.368 . S
C679 H703 0.949 . S
H680 C684 0.949 . S
C681 C682 1.349 . S
C681 C683 1.327 . S
C681 H704 0.950 . S
C682 C681 1.349 . S
C682 C694 1.349 . S
C683 C681 1.327 . S
C683 C699 1.429 . S
C683 H705 0.950 . S
C684 H680 0.949 . S
C684 C692 1.574 . S
C684 C700 1.368 . S
H685 C693 0.950 . S
H686 C691 0.950 . S
H687 C692 0.949 . S
H688 C694 0.950 . S
H689 C695 0.950 . S
H690 C696 0.949 . S
C691 H686 0.950 . S
C691 C693 1.327 . S
C691 C697 1.429 . S
C692 C684 1.574 . S
C692 H687 0.949 . S
C692 C698 1.368 . S
C693 C677 1.349 . S
C693 H685 0.950 . S
C693 C691 1.327 . S
C694 C682 1.349 . S
C694 H688 0.950 . S
C694 C695 1.327 . S
C695 H689 0.950 . S
C695 C694 1.327 . S
C695 C699 1.429 . S
C696 C679 1.574 . S
C696 H690 0.949 . S
C696 C700 1.368 . S
C697 C678 1.429 . S
C697 C691 1.429 . S
C697 C698 1.523 . S
C698 C679 1.368 . S
C698 C692 1.368 . S
C698 C697 1.523 . S
C699 C683 1.429 . S
C699 C695 1.429 . S
C699 C700 1.523 . S
C700 C684 1.368 . S
C700 C696 1.368 . S
C700 C699 1.523 . S
H701 C676 0.950 . S
H702 C678 0.950 . S
H703 C679 0.949 . S
H704 C681 0.950 . S
H705 C683 0.950 . S
C706 C707 1.349 . S
C706 C708 1.327 . S
C706 H731 0.950 . S
C707 C706 1.349 . S
C707 C723 1.349 . S
C708 C706 1.327 . S
C708 C727 1.429 . S
C708 H732 0.950 . S
C709 C726 1.574 . S
C709 C728 1.368 . S
C709 H733 0.949 . S
H710 C714 0.949 . S
C711 C712 1.349 . S
C711 C713 1.327 . S
C711 H734 0.950 . S
C712 C711 1.349 . S
C712 C724 1.349 . S
C713 C711 1.327 . S
C713 C729 1.429 . S
C713 H735 0.950 . S
C714 H710 0.949 . S
C714 C722 1.574 . S
C714 C730 1.368 . S
H715 C723 0.950 1_565 S
H716 C721 0.950 . S
H717 C722 0.949 . S
H718 C724 0.950 . S
H719 C725 0.950 . S
H720 C726 0.949 . S
C721 H716 0.950 . S
C721 C723 1.327 . S
C721 C727 1.429 . S
C722 C714 1.574 . S
C722 H717 0.949 . S
C722 C728 1.368 . S
C723 C707 1.349 . S
C723 H715 0.950 1_545 S
C723 C721 1.327 . S
C724 C712 1.349 . S
C724 H718 0.950 . S
C724 C725 1.327 . S
C725 H719 0.950 . S
C725 C724 1.327 . S
C725 C729 1.429 . S
C726 C709 1.574 . S
C726 H720 0.949 . S
C726 C730 1.368 . S
C727 C708 1.429 . S
C727 C721 1.429 . S
C727 C728 1.523 . S
C728 C709 1.368 . S
C728 C722 1.368 . S
C728 C727 1.523 . S
C729 C713 1.429 . S
C729 C725 1.429 . S
C729 C730 1.523 . S
C730 C714 1.368 . S
C730 C726 1.368 . S
C730 C729 1.523 . S
H731 C706 0.950 . S
H732 C708 0.950 . S
H733 C709 0.949 . S
H734 C711 0.950 . S
H735 C713 0.950 . S
C736 C737 1.346 1_556 S
C736 C738 1.327 . S
C736 H761 0.950 . S
C737 C736 1.346 1_554 S
C737 C753 1.365 . S
C738 C736 1.327 . S
C738 C757 1.426 1_556 S
C738 H762 0.950 . S
C739 C756 1.574 . S
C739 C758 1.371 1_655 S
C739 H763 0.949 . S
H740 C744 0.949 . S
C741 C742 1.352 . S
C741 C743 1.327 . S
C741 H764 0.950 . S
C742 C741 1.352 . S
C742 C754 1.355 1_554 S
C743 C741 1.327 . S
C743 C759 1.431 . S
C743 H765 0.950 . S
C744 H740 0.949 . S
C744 C752 1.574 . S
C744 C760 1.365 1_456 S
H745 C753 0.940 1_655 S
H746 C751 0.950 . S
H747 C752 0.949 . S
H748 C754 0.943 1_455 S
H749 C755 0.950 . S
H750 C756 0.949 . S
C751 H746 0.950 . S
C751 C753 1.324 1_655 S
C751 C757 1.431 1_655 S
C752 C744 1.574 . S
C752 H747 0.949 . S
C752 C758 1.365 1_556 S
C753 C737 1.365 . S
C753 H745 0.940 1_455 S
C753 C751 1.324 1_455 S
C754 C742 1.355 1_556 S
C754 H748 0.943 1_655 S
C754 C755 1.325 1_655 S
C755 H749 0.950 . S
C755 C754 1.325 1_455 S
C755 C759 1.426 1_456 S
C756 C739 1.574 . S
C756 H750 0.949 . S
C756 C760 1.371 . S
C757 C738 1.426 1_554 S
C757 C751 1.431 1_455 S
C757 C758 1.523 . S
C758 C739 1.371 1_455 S
C758 C752 1.365 1_554 S
C758 C757 1.523 . S
C759 C743 1.431 . S
C759 C755 1.426 1_654 S
C759 C760 1.523 . S
C760 C744 1.365 1_654 S
C760 C756 1.371 . S
C760 C759 1.523 . S
H761 C736 0.950 . S
H762 C738 0.950 . S
H763 C739 0.949 . S
H764 C741 0.950 . S
H765 C743 0.950 . S
C766 C767 1.349 . S
C766 C768 1.327 . S
C766 H791 0.950 . S
C767 C766 1.349 . S
C767 C783 1.349 . S
C768 C766 1.327 . S
C768 C787 1.429 . S
C768 H792 0.950 . S
C769 C786 1.574 . S
C769 C788 1.368 . S
C769 H793 0.949 . S
H770 C774 0.949 . S
C771 C772 1.349 1_565 S
C771 C773 1.327 . S
C771 H794 0.950 1_565 S
C772 C771 1.349 1_545 S
C772 C784 1.349 . S
C773 C771 1.327 . S
C773 C789 1.429 . S
C773 H795 0.950 . S
C774 H770 0.949 . S
C774 C782 1.574 . S
C774 C790 1.368 . S
H775 C783 0.950 . S
H776 C781 0.950 . S
H777 C782 0.949 . S
H778 C784 0.950 . S
H779 C785 0.950 . S
H780 C786 0.949 . S
C781 H776 0.950 . S
C781 C783 1.327 . S
C781 C787 1.429 . S
C782 C774 1.574 . S
C782 H777 0.949 . S
C782 C788 1.368 . S
C783 C767 1.349 . S
C783 H775 0.950 . S
C783 C781 1.327 . S
C784 C772 1.349 . S
C784 H778 0.950 . S
C784 C785 1.327 1_545 S
C785 H779 0.950 . S
C785 C784 1.327 1_565 S
C785 C789 1.429 . S
C786 C769 1.574 . S
C786 H780 0.949 . S
C786 C790 1.368 . S
C787 C768 1.429 . S
C787 C781 1.429 . S
C787 C788 1.523 . S
C788 C769 1.368 . S
C788 C782 1.368 . S
C788 C787 1.523 . S
C789 C773 1.429 . S
C789 C785 1.429 . S
C789 C790 1.523 . S
C790 C774 1.368 . S
C790 C786 1.368 . S
C790 C789 1.523 . S
H791 C766 0.950 . S
H792 C768 0.950 . S
H793 C769 0.949 . S
H794 C771 0.950 1_545 S
H795 C773 0.950 . S
C796 C797 1.349 . S
C796 C798 1.327 1_565 S
C796 H821 0.950 . S
C797 C796 1.349 . S
C797 C813 1.349 1_565 S
C798 C796 1.327 1_545 S
C798 C817 1.429 . S
C798 H822 0.950 . S
C799 C816 1.574 . S
C799 C818 1.368 . S
C799 H823 0.949 . S
H800 C804 0.949 . S
C801 C802 1.349 . S
C801 C803 1.327 . S
C801 H824 0.950 . S
C802 C801 1.349 . S
C802 C814 1.349 . S
C803 C801 1.327 . S
C803 C819 1.429 . S
C803 H825 0.950 . S
C804 H800 0.949 . S
C804 C812 1.574 . S
C804 C820 1.368 . S
H805 C813 0.950 1_565 S
H806 C811 0.950 . S
H807 C812 0.949 . S
H808 C814 0.950 . S
H809 C815 0.950 . S
H810 C816 0.949 . S
C811 H806 0.950 . S
C811 C813 1.327 . S
C811 C817 1.429 . S
C812 C804 1.574 . S
C812 H807 0.949 . S
C812 C818 1.368 . S
C813 C797 1.349 1_545 S
C813 H805 0.950 1_545 S
C813 C811 1.327 . S
C814 C802 1.349 . S
C814 H808 0.950 . S
C814 C815 1.327 . S
C815 H809 0.950 . S
C815 C814 1.327 . S
C815 C819 1.429 . S
C816 C799 1.574 . S
C816 H810 0.949 . S
C816 C820 1.368 . S
C817 C798 1.429 . S
C817 C811 1.429 . S
C817 C818 1.523 . S
C818 C799 1.368 . S
C818 C812 1.368 . S
C818 C817 1.523 . S
C819 C803 1.429 . S
C819 C815 1.429 . S
C819 C820 1.523 . S
C820 C804 1.368 . S
C820 C816 1.368 . S
C820 C819 1.523 . S
H821 C796 0.950 . S
H822 C798 0.950 . S
H823 C799 0.949 . S
H824 C801 0.950 . S
H825 C803 0.950 . S
C826 C827 1.349 . S
C826 C828 1.327 . S
C826 H851 0.950 . S
C827 C826 1.349 . S
C827 C843 1.358 . S
C828 C826 1.327 . S
C828 C847 1.429 . S
C828 H852 0.950 . S
C829 C846 1.574 1_565 S
C829 C848 1.368 1_455 S
C829 H853 0.949 . S
H830 C834 0.949 . S
C831 C832 1.349 . S
C831 C833 1.327 . S
C831 H854 0.950 . S
C832 C831 1.349 . S
C832 C844 1.362 . S
C833 C831 1.327 . S
C833 C849 1.429 . S
C833 H855 0.950 . S
C834 H830 0.949 . S
C834 C842 1.574 1_545 S
C834 C850 1.368 1_655 S
H835 C843 0.943 1_455 S
H836 C841 0.950 . S
H837 C842 0.949 . S
H838 C844 0.940 1_655 S
H839 C845 0.950 . S
H840 C846 0.949 . S
C841 H836 0.950 . S
C841 C843 1.325 1_455 S
C841 C847 1.429 1_455 S
C842 C834 1.574 1_565 S
C842 H837 0.949 . S
C842 C848 1.368 . S
C843 C827 1.358 . S
C843 H835 0.943 1_655 S
C843 C841 1.325 1_655 S
C844 C832 1.362 . S
C844 H838 0.940 1_455 S
C844 C845 1.324 1_455 S
C845 H839 0.950 . S
C845 C844 1.324 1_655 S
C845 C849 1.429 1_655 S
C846 C829 1.574 1_545 S
C846 H840 0.949 . S
C846 C850 1.368 . S
C847 C828 1.429 . S
C847 C841 1.429 1_655 S
C847 C848 1.523 . S
C848 C829 1.368 1_655 S
C848 C842 1.368 . S
C848 C847 1.523 . S
C849 C833 1.429 . S
C849 C845 1.429 1_455 S
C849 C850 1.523 . S
C850 C834 1.368 1_455 S
C850 C846 1.368 . S
C850 C849 1.523 . S
H851 C826 0.950 . S
H852 C828 0.950 . S
H853 C829 0.949 . S
H854 C831 0.950 . S
H855 C833 0.950 . S
C856 C857 1.349 1_545 S
C856 C858 1.327 . S
C856 H881 0.950 1_545 S
C857 C856 1.349 1_565 S
C857 C873 1.349 . S
C858 C856 1.327 . S
C858 C877 1.429 . S
C858 H882 0.950 . S
C859 C876 1.574 . S
C859 C878 1.368 . S
C859 H883 0.949 . S
H860 C864 0.949 . S
C861 C862 1.349 . S
C861 C863 1.327 . S
C861 H884 0.950 . S
C862 C861 1.349 . S
C862 C874 1.349 . S
C863 C861 1.327 . S
C863 C879 1.429 . S
C863 H885 0.950 . S
C864 H860 0.949 . S
C864 C872 1.574 . S
C864 C880 1.368 . S
H865 C873 0.950 . S
H866 C871 0.950 . S
H867 C872 0.949 . S
H868 C874 0.950 . S
H869 C875 0.950 . S
H870 C876 0.949 . S
C871 H866 0.950 . S
C871 C873 1.327 1_545 S
C871 C877 1.429 . S
C872 C864 1.574 . S
C872 H867 0.949 . S
C872 C878 1.368 . S
C873 C857 1.349 . S
C873 H865 0.950 . S
C873 C871 1.327 1_565 S
C874 C862 1.349 . S
C874 H868 0.950 . S
C874 C875 1.327 . S
C875 H869 0.950 . S
C875 C874 1.327 . S
C875 C879 1.429 . S
C876 C859 1.574 . S
C876 H870 0.949 . S
C876 C880 1.368 . S
C877 C858 1.429 . S
C877 C871 1.429 . S
C877 C878 1.523 . S
C878 C859 1.368 . S
C878 C872 1.368 . S
C878 C877 1.523 . S
C879 C863 1.429 . S
C879 C875 1.429 . S
C879 C880 1.523 . S
C880 C864 1.368 . S
C880 C876 1.368 . S
C880 C879 1.523 . S
H881 C856 0.950 1_565 S
H882 C858 0.950 . S
H883 C859 0.949 . S
H884 C861 0.950 . S
H885 C863 0.950 . S
C886 C887 1.349 . S
C886 C888 1.327 . S
C886 H911 0.950 . S
C887 C886 1.349 . S
C887 C903 1.349 . S
C888 C886 1.327 . S
C888 C907 1.429 . S
C888 H912 0.950 . S
C889 C906 1.574 . S
C889 C908 1.368 . S
C889 H913 0.949 . S
H890 C894 0.949 . S
C891 C892 1.349 1_565 S
C891 C893 1.327 . S
C891 H914 0.950 1_565 S
C892 C891 1.349 1_545 S
C892 C904 1.349 . S
C893 C891 1.327 . S
C893 C909 1.429 . S
C893 H915 0.950 . S
C894 H890 0.949 . S
C894 C902 1.574 . S
C894 C910 1.368 . S
H895 C903 0.950 . S
H896 C901 0.950 . S
H897 C902 0.949 . S
H898 C904 0.950 . S
H899 C905 0.950 . S
H900 C906 0.949 . S
C901 H896 0.950 . S
C901 C903 1.327 . S
C901 C907 1.429 . S
C902 C894 1.574 . S
C902 H897 0.949 . S
C902 C908 1.368 . S
C903 C887 1.349 . S
C903 H895 0.950 . S
C903 C901 1.327 . S
C904 C892 1.349 . S
C904 H898 0.950 . S
C904 C905 1.327 1_545 S
C905 H899 0.950 . S
C905 C904 1.327 1_565 S
C905 C909 1.429 . S
C906 C889 1.574 . S
C906 H900 0.949 . S
C906 C910 1.368 . S
C907 C888 1.429 . S
C907 C901 1.429 . S
C907 C908 1.523 . S
C908 C889 1.368 . S
C908 C902 1.368 . S
C908 C907 1.523 . S
C909 C893 1.429 . S
C909 C905 1.429 . S
C909 C910 1.523 . S
C910 C894 1.368 . S
C910 C906 1.368 . S
C910 C909 1.523 . S
H911 C886 0.950 . S
H912 C888 0.950 . S
H913 C889 0.949 . S
H914 C891 0.950 1_545 S
H915 C893 0.950 . S
C916 C917 1.349 . S
C916 C918 1.327 . S
C916 H941 0.950 . S
C917 C916 1.349 . S
C917 C933 1.349 . S
C918 C916 1.327 . S
C918 C937 1.429 . S
C918 H942 0.950 . S
C919 C936 1.574 . S
C919 C938 1.368 . S
C919 H943 0.949 . S
H920 C924 0.949 . S
C921 C922 1.349 . S
C921 C923 1.327 . S
C921 H944 0.950 . S
C922 C921 1.349 . S
C922 C934 1.349 . S
C923 C921 1.327 . S
C923 C939 1.429 . S
C923 H945 0.950 . S
C924 H920 0.949 . S
C924 C932 1.574 . S
C924 C940 1.368 . S
H925 C933 0.950 . S
H926 C931 0.950 . S
H927 C932 0.949 . S
H928 C934 0.950 . S
H929 C935 0.950 . S
H930 C936 0.949 . S
C931 H926 0.950 . S
C931 C933 1.327 . S
C931 C937 1.429 . S
C932 C924 1.574 . S
C932 H927 0.949 . S
C932 C938 1.368 . S
C933 C917 1.349 . S
C933 H925 0.950 . S
C933 C931 1.327 . S
C934 C922 1.349 . S
C934 H928 0.950 . S
C934 C935 1.327 . S
C935 H929 0.950 . S
C935 C934 1.327 . S
C935 C939 1.429 . S
C936 C919 1.574 . S
C936 H930 0.949 . S
C936 C940 1.368 . S
C937 C918 1.429 . S
C937 C931 1.429 . S
C937 C938 1.523 . S
C938 C919 1.368 . S
C938 C932 1.368 . S
C938 C937 1.523 . S
C939 C923 1.429 . S
C939 C935 1.429 . S
C939 C940 1.523 . S
C940 C924 1.368 . S
C940 C936 1.368 . S
C940 C939 1.523 . S
H941 C916 0.950 . S
H942 C918 0.950 . S
H943 C919 0.949 . S
H944 C921 0.950 . S
H945 C923 0.950 . S
C946 C947 1.352 . S
C946 C948 1.327 . S
C946 H971 0.950 . S
C947 C946 1.352 . S
C947 C963 1.346 1_554 S
C948 C946 1.327 . S
C948 C967 1.431 . S
C948 H972 0.950 . S
C949 C966 1.574 1_565 S
C949 C968 1.365 1_556 S
C949 H973 0.949 . S
H950 C954 0.949 . S
C951 C952 1.346 1_556 S
C951 C953 1.327 . S
C951 H974 0.950 . S
C952 C951 1.346 1_554 S
C952 C964 1.352 . S
C953 C951 1.327 . S
C953 C969 1.426 1_556 S
C953 H975 0.950 . S
C954 H950 0.949 . S
C954 C962 1.574 1_545 S
C954 C970 1.371 . S
H955 C963 0.950 . S
H956 C961 0.950 . S
H957 C962 0.949 . S
H958 C964 0.950 . S
H959 C965 0.950 . S
H960 C966 0.949 . S
C961 H956 0.950 . S
C961 C963 1.327 . S
C961 C967 1.426 1_556 S
C962 C954 1.574 1_565 S
C962 H957 0.949 . S
C962 C968 1.371 . S
C963 C947 1.346 1_556 S
C963 H955 0.950 . S
C963 C961 1.327 . S
C964 C952 1.352 . S
C964 H958 0.950 . S
C964 C965 1.327 . S
C965 H959 0.950 . S
C965 C964 1.327 . S
C965 C969 1.431 . S
C966 C949 1.574 1_545 S
C966 H960 0.949 . S
C966 C970 1.365 1_556 S
C967 C948 1.431 . S
C967 C961 1.426 1_554 S
C967 C968 1.523 . S
C968 C949 1.365 1_554 S
C968 C962 1.371 . S
C968 C967 1.523 . S
C969 C953 1.426 1_554 S
C969 C965 1.431 . S
C969 C970 1.523 . S
C970 C954 1.371 . S
C970 C966 1.365 1_554 S
C970 C969 1.523 . S
H971 C946 0.950 . S
H972 C948 0.950 . S
H973 C949 0.949 . S
H974 C951 0.950 . S
H975 C953 0.950 . S
C976 C977 1.346 1_556 S
C976 C978 1.327 . S
C976 H1001 0.950 . S
C977 C976 1.346 1_554 S
C977 C993 1.352 . S
C978 C976 1.327 . S
C978 C997 1.426 1_556 S
C978 H1002 0.950 . S
C979 C996 1.574 . S
C979 C998 1.371 . S
C979 H1003 0.949 . S
H980 C984 0.949 . S
C981 C982 1.352 . S
C981 C983 1.327 . S
C981 H1004 0.950 . S
C982 C981 1.352 . S
C982 C994 1.346 1_554 S
C983 C981 1.327 . S
C983 C999 1.431 . S
C983 H1005 0.950 . S
C984 H980 0.949 . S
C984 C992 1.574 . S
C984 C1000 1.365 1_556 S
H985 C993 0.950 . S
H986 C991 0.950 . S
H987 C992 0.949 . S
H988 C994 0.950 . S
H989 C995 0.950 . S
H990 C996 0.949 . S
C991 H986 0.950 . S
C991 C993 1.327 . S
C991 C997 1.431 . S
C992 C984 1.574 . S
C992 H987 0.949 . S
C992 C998 1.365 1_556 S
C993 C977 1.352 . S
C993 H985 0.950 . S
C993 C991 1.327 . S
C994 C982 1.346 1_556 S
C994 H988 0.950 . S
C994 C995 1.327 . S
C995 H989 0.950 . S
C995 C994 1.327 . S
C995 C999 1.426 1_556 S
C996 C979 1.574 . S
C996 H990 0.949 . S
C996 C1000 1.371 . S
C997 C978 1.426 1_554 S
C997 C991 1.431 . S
C997 C998 1.523 . S
C998 C979 1.371 . S
C998 C992 1.365 1_554 S
C998 C997 1.523 . S
C999 C983 1.431 . S
C999 C995 1.426 1_554 S
C999 C1000 1.523 . S
C1000 C984 1.365 1_554 S
C1000 C996 1.371 . S
C1000 C999 1.523 . S
H1001 C976 0.950 . S
H1002 C978 0.950 . S
H1003 C979 0.949 . S
H1004 C981 0.950 . S
H1005 C983 0.950 . S
C1006 C1007 1.352 . S
C1006 C1008 1.327 . S
C1006 H1031 0.950 . S
C1007 C1006 1.352 . S
C1007 C1023 1.346 1_554 S
C1008 C1006 1.327 . S
C1008 C1027 1.431 . S
C1008 H1032 0.950 . S
C1009 C1026 1.574 . S
C1009 C1028 1.365 1_556 S
C1009 H1033 0.949 . S
H1010 C1014 0.949 . S
C1011 C1012 1.346 1_556 S
C1011 C1013 1.327 . S
C1011 H1034 0.950 . S
C1012 C1011 1.346 1_554 S
C1012 C1024 1.352 . S
C1013 C1011 1.327 . S
C1013 C1029 1.426 1_556 S
C1013 H1035 0.950 . S
C1014 H1010 0.949 . S
C1014 C1022 1.574 . S
C1014 C1030 1.371 . S
H1015 C1023 0.950 . S
H1016 C1021 0.950 . S
H1017 C1022 0.949 . S
H1018 C1024 0.950 . S
H1019 C1025 0.950 . S
H1020 C1026 0.949 . S
C1021 H1016 0.950 . S
C1021 C1023 1.327 . S
C1021 C1027 1.426 1_556 S
C1022 C1014 1.574 . S
C1022 H1017 0.949 . S
C1022 C1028 1.371 . S
C1023 C1007 1.346 1_556 S
C1023 H1015 0.950 . S
C1023 C1021 1.327 . S
C1024 C1012 1.352 . S
C1024 H1018 0.950 . S
C1024 C1025 1.327 . S
C1025 H1019 0.950 . S
C1025 C1024 1.327 . S
C1025 C1029 1.431 . S
C1026 C1009 1.574 . S
C1026 H1020 0.949 . S
C1026 C1030 1.365 1_556 S
C1027 C1008 1.431 . S
C1027 C1021 1.426 1_554 S
C1027 C1028 1.523 . S
C1028 C1009 1.365 1_554 S
C1028 C1022 1.371 . S
C1028 C1027 1.523 . S
C1029 C1013 1.426 1_554 S
C1029 C1025 1.431 . S
C1029 C1030 1.523 . S
C1030 C1014 1.371 . S
C1030 C1026 1.365 1_554 S
C1030 C1029 1.523 . S
H1031 C1006 0.950 . S
H1032 C1008 0.950 . S
H1033 C1009 0.949 . S
H1034 C1011 0.950 . S
H1035 C1013 0.950 . S
C1036 C1037 1.349 . S
C1036 C1038 1.327 . S
C1036 H1061 0.950 . S
C1037 C1036 1.349 . S
C1037 C1053 1.349 . S
C1038 C1036 1.327 . S
C1038 C1057 1.429 . S
C1038 H1062 0.950 . S
C1039 C1056 1.574 1_455 S
C1039 C1058 1.368 . S
C1039 H1063 0.949 . S
H1040 C1044 0.949 . S
C1041 C1042 1.349 . S
C1041 C1043 1.327 . S
C1041 H1064 0.950 . S
C1042 C1041 1.349 . S
C1042 C1054 1.349 . S
C1043 C1041 1.327 . S
C1043 C1059 1.429 . S
C1043 H1065 0.950 . S
C1044 H1040 0.949 . S
C1044 C1052 1.574 1_655 S
C1044 C1060 1.368 . S
H1045 C1053 0.950 . S
H1046 C1051 0.950 . S
H1047 C1052 0.949 . S
H1048 C1054 0.950 . S
H1049 C1055 0.950 . S
H1050 C1056 0.949 . S
C1051 H1046 0.950 . S
C1051 C1053 1.327 . S
C1051 C1057 1.429 . S
C1052 C1044 1.574 1_455 S
C1052 H1047 0.949 . S
C1052 C1058 1.368 . S
C1053 C1037 1.349 . S
C1053 H1045 0.950 . S
C1053 C1051 1.327 . S
C1054 C1042 1.349 . S
C1054 H1048 0.950 . S
C1054 C1055 1.327 . S
C1055 H1049 0.950 . S
C1055 C1054 1.327 . S
C1055 C1059 1.429 . S
C1056 C1039 1.574 1_655 S
C1056 H1050 0.949 . S
C1056 C1060 1.368 . S
C1057 C1038 1.429 . S
C1057 C1051 1.429 . S
C1057 C1058 1.523 . S
C1058 C1039 1.368 . S
C1058 C1052 1.368 . S
C1058 C1057 1.523 . S
C1059 C1043 1.429 . S
C1059 C1055 1.429 . S
C1059 C1060 1.523 . S
C1060 C1044 1.368 . S
C1060 C1056 1.368 . S
C1060 C1059 1.523 . S
H1061 C1036 0.950 . S
H1062 C1038 0.950 . S
H1063 C1039 0.949 . S
H1064 C1041 0.950 . S
H1065 C1043 0.950 . S
C1066 C1067 1.349 . S
C1066 C1068 1.327 . S
C1066 H1091 0.950 . S
C1067 C1066 1.349 . S
C1067 C1083 1.349 . S
C1068 C1066 1.327 . S
C1068 C1087 1.429 . S
C1068 H1092 0.950 . S
C1069 C1086 1.574 . S
C1069 C1088 1.368 . S
C1069 H1093 0.949 . S
H1070 C1074 0.949 . S
C1071 C1072 1.349 . S
C1071 C1073 1.327 . S
C1071 H1094 0.950 . S
C1072 C1071 1.349 . S
C1072 C1084 1.349 . S
C1073 C1071 1.327 . S
C1073 C1089 1.429 . S
C1073 H1095 0.950 . S
C1074 H1070 0.949 . S
C1074 C1082 1.574 . S
C1074 C1090 1.368 . S
H1075 C1083 0.950 . S
H1076 C1081 0.950 . S
H1077 C1082 0.949 . S
H1078 C1084 0.950 . S
H1079 C1085 0.950 . S
H1080 C1086 0.949 . S
C1081 H1076 0.950 . S
C1081 C1083 1.327 . S
C1081 C1087 1.429 . S
C1082 C1074 1.574 . S
C1082 H1077 0.949 . S
C1082 C1088 1.368 . S
C1083 C1067 1.349 . S
C1083 H1075 0.950 . S
C1083 C1081 1.327 . S
C1084 C1072 1.349 . S
C1084 H1078 0.950 . S
C1084 C1085 1.327 . S
C1085 H1079 0.950 . S
C1085 C1084 1.327 . S
C1085 C1089 1.429 . S
C1086 C1069 1.574 . S
C1086 H1080 0.949 . S
C1086 C1090 1.368 . S
C1087 C1068 1.429 . S
C1087 C1081 1.429 . S
C1087 C1088 1.523 . S
C1088 C1069 1.368 . S
C1088 C1082 1.368 . S
C1088 C1087 1.523 . S
C1089 C1073 1.429 . S
C1089 C1085 1.429 . S
C1089 C1090 1.523 . S
C1090 C1074 1.368 . S
C1090 C1086 1.368 . S
C1090 C1089 1.523 . S
H1091 C1066 0.950 . S
H1092 C1068 0.950 . S
H1093 C1069 0.949 . S
H1094 C1071 0.950 . S
H1095 C1073 0.950 . S
C1096 C1097 1.349 . S
C1096 C1098 1.327 . S
C1096 H1121 0.950 . S
C1097 C1096 1.349 . S
C1097 C1113 1.349 . S
C1098 C1096 1.327 . S
C1098 C1117 1.429 . S
C1098 H1122 0.950 . S
C1099 C1116 1.574 . S
C1099 C1118 1.368 . S
C1099 H1123 0.949 . S
H1100 C1104 0.949 . S
C1101 C1102 1.349 . S
C1101 C1103 1.327 . S
C1101 H1124 0.950 . S
C1102 C1101 1.349 . S
C1102 C1114 1.349 . S
C1103 C1101 1.327 . S
C1103 C1119 1.429 . S
C1103 H1125 0.950 . S
C1104 H1100 0.949 . S
C1104 C1112 1.574 . S
C1104 C1120 1.368 . S
H1105 C1113 0.950 . S
H1106 C1111 0.950 . S
H1107 C1112 0.949 . S
H1108 C1114 0.950 . S
H1109 C1115 0.950 . S
H1110 C1116 0.949 . S
C1111 H1106 0.950 . S
C1111 C1113 1.327 . S
C1111 C1117 1.429 . S
C1112 C1104 1.574 . S
C1112 H1107 0.949 . S
C1112 C1118 1.368 . S
C1113 C1097 1.349 . S
C1113 H1105 0.950 . S
C1113 C1111 1.327 . S
C1114 C1102 1.349 . S
C1114 H1108 0.950 . S
C1114 C1115 1.327 . S
C1115 H1109 0.950 . S
C1115 C1114 1.327 . S
C1115 C1119 1.429 . S
C1116 C1099 1.574 . S
C1116 H1110 0.949 . S
C1116 C1120 1.368 . S
C1117 C1098 1.429 . S
C1117 C1111 1.429 . S
C1117 C1118 1.523 . S
C1118 C1099 1.368 . S
C1118 C1112 1.368 . S
C1118 C1117 1.523 . S
C1119 C1103 1.429 . S
C1119 C1115 1.429 . S
C1119 C1120 1.523 . S
C1120 C1104 1.368 . S
C1120 C1116 1.368 . S
C1120 C1119 1.523 . S
H1121 C1096 0.950 . S
H1122 C1098 0.950 . S
H1123 C1099 0.949 . S
H1124 C1101 0.950 . S
H1125 C1103 0.950 . S
C1126 C1127 1.349 . S
C1126 C1128 1.327 . S
C1126 H1151 0.950 . S
C1127 C1126 1.349 . S
C1127 C1143 1.349 . S
C1128 C1126 1.327 . S
C1128 C1147 1.429 . S
C1128 H1152 0.950 . S
C1129 C1146 1.574 1_655 S
C1129 C1148 1.368 1_565 S
C1129 H1153 0.949 . S
H1130 C1134 0.949 . S
C1131 C1132 1.349 . S
C1131 C1133 1.327 . S
C1131 H1154 0.950 . S
C1132 C1131 1.349 . S
C1132 C1144 1.349 . S
C1133 C1131 1.327 . S
C1133 C1149 1.429 . S
C1133 H1155 0.950 . S
C1134 H1130 0.949 . S
C1134 C1142 1.574 1_455 S
C1134 C1150 1.368 1_545 S
H1135 C1143 0.950 . S
H1136 C1141 0.950 . S
H1137 C1142 0.949 . S
H1138 C1144 0.950 . S
H1139 C1145 0.950 . S
H1140 C1146 0.949 . S
C1141 H1136 0.950 . S
C1141 C1143 1.327 . S
C1141 C1147 1.429 . S
C1142 C1134 1.574 1_655 S
C1142 H1137 0.949 . S
C1142 C1148 1.368 . S
C1143 C1127 1.349 . S
C1143 H1135 0.950 . S
C1143 C1141 1.327 . S
C1144 C1132 1.349 . S
C1144 H1138 0.950 . S
C1144 C1145 1.327 . S
C1145 H1139 0.950 . S
C1145 C1144 1.327 . S
C1145 C1149 1.429 . S
C1146 C1129 1.574 1_455 S
C1146 H1140 0.949 . S
C1146 C1150 1.368 . S
C1147 C1128 1.429 . S
C1147 C1141 1.429 . S
C1147 C1148 1.523 . S
C1148 C1129 1.368 1_545 S
C1148 C1142 1.368 . S
C1148 C1147 1.523 . S
C1149 C1133 1.429 . S
C1149 C1145 1.429 . S
C1149 C1150 1.523 . S
C1150 C1134 1.368 1_565 S
C1150 C1146 1.368 . S
C1150 C1149 1.523 . S
H1151 C1126 0.950 . S
H1152 C1128 0.950 . S
H1153 C1129 0.949 . S
H1154 C1131 0.950 . S
H1155 C1133 0.950 . S
C1156 C1157 1.349 . S
C1156 C1158 1.327 . S
C1156 H1181 0.950 . S
C1157 C1156 1.349 . S
C1157 C1173 1.349 . S
C1158 C1156 1.327 . S
C1158 C1177 1.429 . S
C1158 H1182 0.950 . S
C1159 C1176 1.574 . S
C1159 C1178 1.368 . S
C1159 H1183 0.949 . S
H1160 C1164 0.949 . S
C1161 C1162 1.349 . S
C1161 C1163 1.327 . S
C1161 H1184 0.950 . S
C1162 C1161 1.349 . S
C1162 C1174 1.349 . S
C1163 C1161 1.327 . S
C1163 C1179 1.429 . S
C1163 H1185 0.950 . S
C1164 H1160 0.949 . S
C1164 C1172 1.574 . S
C1164 C1180 1.368 . S
H1165 C1173 0.950 . S
H1166 C1171 0.950 . S
H1167 C1172 0.949 . S
H1168 C1174 0.950 . S
H1169 C1175 0.950 . S
H1170 C1176 0.949 . S
C1171 H1166 0.950 . S
C1171 C1173 1.327 . S
C1171 C1177 1.429 . S
C1172 C1164 1.574 . S
C1172 H1167 0.949 . S
C1172 C1178 1.368 . S
C1173 C1157 1.349 . S
C1173 H1165 0.950 . S
C1173 C1171 1.327 . S
C1174 C1162 1.349 . S
C1174 H1168 0.950 . S
C1174 C1175 1.327 . S
C1175 H1169 0.950 . S
C1175 C1174 1.327 . S
C1175 C1179 1.429 . S
C1176 C1159 1.574 . S
C1176 H1170 0.949 . S
C1176 C1180 1.368 . S
C1177 C1158 1.429 . S
C1177 C1171 1.429 . S
C1177 C1178 1.523 . S
C1178 C1159 1.368 . S
C1178 C1172 1.368 . S
C1178 C1177 1.523 . S
C1179 C1163 1.429 . S
C1179 C1175 1.429 . S
C1179 C1180 1.523 . S
C1180 C1164 1.368 . S
C1180 C1176 1.368 . S
C1180 C1179 1.523 . S
H1181 C1156 0.950 . S
H1182 C1158 0.950 . S
H1183 C1159 0.949 . S
H1184 C1161 0.950 . S
H1185 C1163 0.950 . S
C1186 C1187 1.349 . S
C1186 C1188 1.327 . S
C1186 H1211 0.950 . S
C1187 C1186 1.349 . S
C1187 C1203 1.349 . S
C1188 C1186 1.327 . S
C1188 C1207 1.429 . S
C1188 H1212 0.950 . S
C1189 C1206 1.574 . S
C1189 C1208 1.368 1_545 S
C1189 H1213 0.949 . S
H1190 C1194 0.949 . S
C1191 C1192 1.349 . S
C1191 C1193 1.327 . S
C1191 H1214 0.950 . S
C1192 C1191 1.349 . S
C1192 C1204 1.349 . S
C1193 C1191 1.327 . S
C1193 C1209 1.429 . S
C1193 H1215 0.950 . S
C1194 H1190 0.949 . S
C1194 C1202 1.574 . S
C1194 C1210 1.368 1_565 S
H1195 C1203 0.950 . S
H1196 C1201 0.950 . S
H1197 C1202 0.949 . S
H1198 C1204 0.950 . S
H1199 C1205 0.950 . S
H1200 C1206 0.949 . S
C1201 H1196 0.950 . S
C1201 C1203 1.327 . S
C1201 C1207 1.429 . S
C1202 C1194 1.574 . S
C1202 H1197 0.949 . S
C1202 C1208 1.368 . S
C1203 C1187 1.349 . S
C1203 H1195 0.950 . S
C1203 C1201 1.327 . S
C1204 C1192 1.349 . S
C1204 H1198 0.950 . S
C1204 C1205 1.327 . S
C1205 H1199 0.950 . S
C1205 C1204 1.327 . S
C1205 C1209 1.429 . S
C1206 C1189 1.574 . S
C1206 H1200 0.949 . S
C1206 C1210 1.368 . S
C1207 C1188 1.429 . S
C1207 C1201 1.429 . S
C1207 C1208 1.523 . S
C1208 C1189 1.368 1_565 S
C1208 C1202 1.368 . S
C1208 C1207 1.523 . S
C1209 C1193 1.429 . S
C1209 C1205 1.429 . S
C1209 C1210 1.523 . S
C1210 C1194 1.368 1_545 S
C1210 C1206 1.368 . S
C1210 C1209 1.523 . S
H1211 C1186 0.950 . S
H1212 C1188 0.950 . S
H1213 C1189 0.949 . S
H1214 C1191 0.950 . S
H1215 C1193 0.950 . S
C257 C23 1.313 . S
C262 C40 1.445 . S
C287 C24 1.354 . S
C292 C86 1.464 . S
C317 C113 1.448 . S
C322 C62 1.310 . S
C347 C91 1.354 . S
C352 C127 1.463 . S
C377 C119 1.313 . S
C382 C136 1.445 . S
C407 C182 1.461 . S
C412 C120 1.357 . S
C437 C158 1.313 . S
C442 C17 1.446 . S
C467 C187 1.354 . S
C472 C31 1.462 . S
C497 C168 1.448 . S
C502 C215 1.313 . S
C527 C216 1.354 . S
C532 C150 1.462 . S
C557 C241 1.448 . S
C562 C190 1.313 . S
C587 C255 1.461 . S
C592 C155 1.354 . S
C617 C247 1.313 . S
C622 C72 1.448 . S
C647 C54 1.461 . S
C652 C248 1.354 . S
C677 C209 1.448 . S
C682 C94 1.313 . S
C707 C223 1.461 . S
C712 C59 1.354 . S
C737 C22 0.588 . S
C742 C30 0.583 1_554 S
C767 C49 0.587 . S
C772 C56 0.587 . S
C797 C81 0.587 . S
C802 C88 0.587 . S
C827 C126 0.587 . S
C832 C118 0.587 . S
C857 C145 0.587 . S
C862 C152 0.587 . S
C887 C177 0.587 . S
C892 C184 0.587 . S
C917 C214 0.587 . S
C922 C222 0.587 . S
C947 C254 0.583 1_554 S
C952 C246 0.588 . S
C977 C232 1.454 . S
C982 C27 1.448 1_554 S
C1007 C8 1.454 . S
C1012 C251 1.457 1_554 S
C1037 C63 1.454 . S
C1042 C87 1.454 . S
C1067 C200 1.454 . S
C1072 C123 1.451 . S
C1097 C104 1.454 . S
C1102 C219 1.458 . S
C1127 C183 1.454 . S
C1132 C159 1.454 . S
C1157 C191 1.454 . S
C1162 C151 1.454 . S
C1187 C95 1.454 . S
C1192 C55 1.454 . S
