# Generated by pormake.
# Topology wje, (4)-cn, num edge types: 1
# Building blocks:
#     Node 0, Type 0, BuildingBlock: ICAMEG_clean_sbu_1, # of connection points: 4
#     Node 1, Type 0, BuildingBlock: ICAMEG_clean_sbu_1, # of connection points: 4
#     Node 2, Type 0, BuildingBlock: ICAMEG_clean_sbu_1, # of connection points: 4
#     Node 3, Type 0, BuildingBlock: ICAMEG_clean_sbu_1, # of connection points: 4
#     Node 4, Type 0, BuildingBlock: ICAMEG_clean_sbu_1, # of connection points: 4
#     Node 5, Type 0, BuildingBlock: ICAMEG_clean_sbu_1, # of connection points: 4
#     Node 6, Type 0, BuildingBlock: ICAMEG_clean_sbu_1, # of connection points: 4
#     Node 7, Type 0, BuildingBlock: ICAMEG_clean_sbu_1, # of connection points: 4
#     Node 8, Type 0, BuildingBlock: ICAMEG_clean_sbu_1, # of connection points: 4
#     Node 9, Type 0, BuildingBlock: ICAMEG_clean_sbu_1, # of connection points: 4
#     Node 10, Type 0, BuildingBlock: ICAMEG_clean_sbu_1, # of connection points: 4
#     Node 11, Type 0, BuildingBlock: ICAMEG_clean_sbu_1, # of connection points: 4
#     Edge 12, Type (0, 0), BuildingBlock: TEMPAE_clean_linker_10, # of connection points: 2
#     Edge 13, Type (0, 0), BuildingBlock: TEMPAE_clean_linker_10, # of connection points: 2
#     Edge 14, Type (0, 0), BuildingBlock: TEMPAE_clean_linker_10, # of connection points: 2
#     Edge 15, Type (0, 0), BuildingBlock: TEMPAE_clean_linker_10, # of connection points: 2
#     Edge 16, Type (0, 0), BuildingBlock: TEMPAE_clean_linker_10, # of connection points: 2
#     Edge 17, Type (0, 0), BuildingBlock: TEMPAE_clean_linker_10, # of connection points: 2
#     Edge 18, Type (0, 0), BuildingBlock: TEMPAE_clean_linker_10, # of connection points: 2
#     Edge 19, Type (0, 0), BuildingBlock: TEMPAE_clean_linker_10, # of connection points: 2
#     Edge 20, Type (0, 0), BuildingBlock: TEMPAE_clean_linker_10, # of connection points: 2
#     Edge 21, Type (0, 0), BuildingBlock: TEMPAE_clean_linker_10, # of connection points: 2
#     Edge 22, Type (0, 0), BuildingBlock: TEMPAE_clean_linker_10, # of connection points: 2
#     Edge 23, Type (0, 0), BuildingBlock: TEMPAE_clean_linker_10, # of connection points: 2
#     Edge 24, Type (0, 0), BuildingBlock: TEMPAE_clean_linker_10, # of connection points: 2
#     Edge 25, Type (0, 0), BuildingBlock: TEMPAE_clean_linker_10, # of connection points: 2
#     Edge 26, Type (0, 0), BuildingBlock: TEMPAE_clean_linker_10, # of connection points: 2
#     Edge 27, Type (0, 0), BuildingBlock: TEMPAE_clean_linker_10, # of connection points: 2
#     Edge 28, Type (0, 0), BuildingBlock: TEMPAE_clean_linker_10, # of connection points: 2
#     Edge 29, Type (0, 0), BuildingBlock: TEMPAE_clean_linker_10, # of connection points: 2
#     Edge 30, Type (0, 0), BuildingBlock: TEMPAE_clean_linker_10, # of connection points: 2
#     Edge 31, Type (0, 0), BuildingBlock: TEMPAE_clean_linker_10, # of connection points: 2
#     Edge 32, Type (0, 0), BuildingBlock: TEMPAE_clean_linker_10, # of connection points: 2
#     Edge 33, Type (0, 0), BuildingBlock: TEMPAE_clean_linker_10, # of connection points: 2
#     Edge 34, Type (0, 0), BuildingBlock: TEMPAE_clean_linker_10, # of connection points: 2
#     Edge 35, Type (0, 0), BuildingBlock: TEMPAE_clean_linker_10, # of connection points: 2
# Relax obj value: 0.126
# Max RMSD: 0.100
# Mean RMSD: 0.100
data_MOF--net-wje--node1-ICAMEG_clean_sbu_1--edge1-TEMPAE_clean_linker_10
_symmetry_space_group_name_H-M    P1
_symmetry_Int_Tables_number       1
_symmetry_cell_setting            triclinic
loop_
_symmetry_equiv_pos_as_xyz
'x, y, z'
_cell_length_a     42.952071
_cell_length_b     42.974008
_cell_length_c     41.343537
_cell_angle_alpha  89.98738
_cell_angle_beta   89.980575
_cell_angle_gamma 119.98033
loop_
_atom_site_label
_atom_site_type_symbol
_atom_site_fract_x
_atom_site_fract_y
_atom_site_fract_z
_atom_type_partial_charge
Co0 Co 0.31552 0.9835 0.32868 0.0
Co1 Co 0.31365 0.06216 0.33319 0.0
O2 O 0.32983 0.03165 0.31226 0.0
C3 C 0.39458 0.01567 0.32131 0.0
O4 O 0.39888 0.0462 0.33236 0.0
C5 C 0.29469 0.06652 0.26446 0.0
O6 O 0.27571 0.03128 0.26358 0.0
O7 O 0.26226 0.02353 0.32886 0.0
O8 O 0.26735 0.97556 0.34154 0.0
H9 H 0.24063 0.08911 0.41137 0.0
H10 H 0.34393 0.00302 0.26206 0.0
O11 O 0.36322 0.98904 0.31683 0.0
H12 H 0.22152 0.89934 0.25008 0.0
H13 H 0.30691 0.86224 0.32611 0.0
H14 H 0.27781 0.94269 0.38767 0.0
H15 H 0.24636 0.92271 0.30415 0.0
H16 H 0.32401 0.92246 0.30519 0.0
O17 O 0.31165 0.08246 0.29005 0.0
H18 H 0.26167 0.05135 0.38528 0.0
H19 H 0.33083 0.13802 0.32401 0.0
H20 H 0.25987 0.88258 0.40929 0.0
H21 H 0.32028 0.98025 0.20745 0.0
H22 H 0.27443 0.84187 0.37844 0.0
H23 H 0.25861 0.92811 0.20123 0.0
O24 O 0.33455 0.00351 0.37214 0.0
H25 H 0.43977 0.14239 0.29354 0.0
H26 H 0.35844 0.10899 0.38747 0.0
H27 H 0.42205 0.15575 0.39353 0.0
H28 H 0.46317 0.17281 0.34632 0.0
H29 H 0.37604 0.09543 0.28865 0.0
H30 H 0.31025 0.1766 0.34922 0.0
H31 H 0.26494 0.15222 0.39333 0.0
O32 O 0.31578 0.04343 0.37717 0.0
C33 C 0.24871 0.99079 0.33745 0.0
C34 C 0.26045 0.10007 0.39223 0.0
C35 C 0.29949 0.14916 0.35732 0.0
N36 N 0.29763 0.09252 0.3533 0.0
C37 C 0.27253 0.07884 0.37741 0.0
C38 C 0.31097 0.12715 0.34308 0.0
C39 C 0.27408 0.13547 0.38208 0.0
C40 C 0.31721 0.98011 0.25951 0.0
N41 N 0.29665 0.96411 0.28622 0.0
C42 C 0.30391 0.96742 0.22855 0.0
C43 C 0.26928 0.93819 0.22508 0.0
C44 C 0.24845 0.92203 0.25247 0.0
C45 C 0.26265 0.93545 0.28302 0.0
C46 C 0.30032 0.87969 0.33973 0.0
C47 C 0.28401 0.92506 0.37397 0.0
C48 C 0.30999 0.91384 0.32803 0.0
N49 N 0.30162 0.93596 0.34504 0.0
C50 C 0.27389 0.89108 0.3864 0.0
C51 C 0.2821 0.86828 0.36909 0.0
C52 C 0.32782 0.02414 0.3892 0.0
C53 C 0.4221 0.13525 0.31427 0.0
C54 C 0.3762 0.11608 0.36686 0.0
C55 C 0.41217 0.14268 0.37041 0.0
C56 C 0.43522 0.15227 0.3439 0.0
N57 N 0.36352 0.09952 0.33771 0.0
C58 C 0.38596 0.10878 0.31161 0.0
Co59 Co 0.33458 0.31466 0.64629 0.0
Co60 Co 0.24951 0.30142 0.66253 0.0
O61 O 0.29611 0.32619 0.6399 0.0
C62 C 0.37737 0.39258 0.66334 0.0
O63 O 0.3532 0.38795 0.68517 0.0
C64 C 0.22938 0.29596 0.59268 0.0
O65 O 0.2574 0.29289 0.58515 0.0
O66 O 0.2427 0.25294 0.65217 0.0
O67 O 0.29885 0.26246 0.64767 0.0
H68 H 0.15868 0.21144 0.73965 0.0
H69 H 0.33964 0.36178 0.59195 0.0
O70 O 0.37232 0.36678 0.64484 0.0
H71 H 0.33968 0.25798 0.5412 0.0
H72 H 0.45598 0.32715 0.62581 0.0
H73 H 0.3434 0.26372 0.68837 0.0
H74 H 0.33681 0.26198 0.60051 0.0
H75 H 0.40752 0.34128 0.6177 0.0
O76 O 0.22297 0.29978 0.62203 0.0
H77 H 0.21669 0.24271 0.7109 0.0
H78 H 0.18381 0.30854 0.66219 0.0
H79 H 0.39097 0.24838 0.69688 0.0
H80 H 0.34305 0.35918 0.53251 0.0
H81 H 0.44779 0.28024 0.66551 0.0
H82 H 0.34292 0.30689 0.50676 0.0
O83 O 0.33136 0.31737 0.69436 0.0
H84 H 0.27889 0.42762 0.63743 0.0
H85 H 0.24345 0.33602 0.72297 0.0
H86 H 0.25274 0.3959 0.73672 0.0
H87 H 0.2705 0.44217 0.69377 0.0
H88 H 0.26961 0.36745 0.6248 0.0
H89 H 0.12531 0.27776 0.69022 0.0
H90 H 0.11248 0.22891 0.72936 0.0
O91 O 0.27401 0.30232 0.70364 0.0
C92 C 0.26494 0.24167 0.64896 0.0
C93 C 0.16397 0.23274 0.72271 0.0
C94 C 0.14523 0.26993 0.69493 0.0
N95 N 0.20372 0.27754 0.68501 0.0
C96 C 0.19681 0.2506 0.70641 0.0
C97 C 0.17838 0.2872 0.67907 0.0
C98 C 0.13806 0.24253 0.7169 0.0
C99 C 0.33985 0.33909 0.58091 0.0
N100 N 0.33784 0.31196 0.59967 0.0
C101 C 0.34166 0.3377 0.54725 0.0
C102 C 0.34152 0.30833 0.53282 0.0
C103 C 0.33964 0.28085 0.55212 0.0
C104 C 0.3378 0.28313 0.5857 0.0
C105 C 0.43134 0.31306 0.63961 0.0
C106 C 0.36796 0.27757 0.67447 0.0
C107 C 0.40385 0.32105 0.63521 0.0
N108 N 0.37258 0.30325 0.65244 0.0
C109 C 0.39484 0.26883 0.67947 0.0
C110 C 0.42672 0.28673 0.66187 0.0
C111 C 0.30519 0.31008 0.71343 0.0
C112 C 0.27105 0.40765 0.65634 0.0
C113 C 0.25128 0.35603 0.70415 0.0
C114 C 0.25643 0.38987 0.71208 0.0
C115 C 0.26638 0.41581 0.68796 0.0
N116 N 0.25578 0.34819 0.67305 0.0
C117 C 0.26564 0.37351 0.6493 0.0
Co118 Co 0.03305 0.3419 0.98423 0.0
Co119 Co 0.95999 0.25638 0.99576 0.0
O120 O 0.98363 0.30386 0.97457 0.0
C121 C 0.99486 0.38271 0.99691 0.0
O122 O 0.97302 0.35708 0.01664 0.0
C123 C 0.94081 0.24125 0.92472 0.0
O124 O 0.96208 0.27506 0.91717 0.0
O125 O 1.00211 0.24983 0.9871 0.0
O126 O 0.0492 0.30591 0.98729 0.0
H127 H 0.95464 0.16276 0.072 0.0
H128 H 0.99759 0.35162 0.9267 0.0
O129 O 0.01878 0.37966 0.98133 0.0
H130 H 0.10373 0.34925 0.88438 0.0
H131 H 0.14347 0.46367 0.97067 0.0
H132 H 0.08895 0.34913 0.03058 0.0
H133 H 0.09081 0.34335 0.94283 0.0
H134 H 0.0817 0.41567 0.95848 0.0
O135 O 0.93763 0.23067 0.95397 0.0
H136 H 0.983 0.22176 0.0449 0.0
H137 H 0.88726 0.19077 0.99174 0.0
H138 H 0.15095 0.39626 0.04329 0.0
H139 H 0.00987 0.35831 0.86808 0.0
H140 H 0.1786 0.45405 0.01324 0.0
H141 H 0.06316 0.35693 0.84654 0.0
O142 O 0.02301 0.33717 0.0316 0.0
H143 H 0.86626 0.28996 0.96841 0.0
H144 H 0.91473 0.24607 0.05384 0.0
H145 H 0.8636 0.25498 0.06613 0.0
H146 H 0.83889 0.27693 0.0232 0.0
H147 H 0.91756 0.2811 0.95728 0.0
H148 H 0.85799 0.1313 0.01806 0.0
H149 H 0.89169 0.11703 0.05861 0.0
O150 O 0.98091 0.27931 0.03821 0.0
C151 C 0.03585 0.27195 0.9868 0.0
C152 C 0.93964 0.16869 0.05444 0.0
C153 C 0.88542 0.15102 0.02413 0.0
N154 N 0.93675 0.20981 0.01691 0.0
C155 C 0.95553 0.20209 0.03908 0.0
C156 C 0.90217 0.18471 0.00924 0.0
C157 C 0.90434 0.14303 0.04689 0.0
C158 C 0.021 0.35129 0.91755 0.0
N159 N 0.04329 0.3468 0.93818 0.0
C160 C 0.02773 0.35495 0.88431 0.0
C161 C 0.0576 0.35412 0.87224 0.0
C162 C 0.08033 0.34973 0.89345 0.0
C163 C 0.07273 0.34613 0.92653 0.0
C164 C 0.13173 0.43859 0.9839 0.0
C165 C 0.10086 0.37412 0.01726 0.0
C166 C 0.09672 0.41134 0.97716 0.0
N167 N 0.08179 0.37952 0.99366 0.0
C168 C 0.13595 0.40075 0.02463 0.0
C169 C 0.15144 0.43317 0.00778 0.0
C170 C 0.00319 0.31019 0.04946 0.0
C171 C 0.87662 0.28013 0.98726 0.0
C172 C 0.90417 0.2556 0.03499 0.0
C173 C 0.87517 0.26058 0.04211 0.0
C174 C 0.86132 0.27289 0.01802 0.0
N175 N 0.91887 0.26244 0.00466 0.0
C176 C 0.90559 0.27481 0.98102 0.0
Co177 Co 0.68824 0.01356 0.33085 0.0
Co178 Co 0.694 0.93626 0.33672 0.0
O179 O 0.67457 0.96466 0.31632 0.0
C180 C 0.60833 0.9782 0.31614 0.0
O181 O 0.60634 0.94809 0.30684 0.0
C182 C 0.70251 0.9291 0.26567 0.0
O183 O 0.70788 0.96161 0.261 0.0
O184 O 0.74427 0.97603 0.33013 0.0
O185 O 0.73856 0.02459 0.33847 0.0
H186 H 0.77399 0.91679 0.41269 0.0
H187 H 0.65321 0.98888 0.26607 0.0
O188 O 0.63807 0.00504 0.32494 0.0
H189 H 0.77012 0.0969 0.24455 0.0
H190 H 0.69005 0.13167 0.3276 0.0
H191 H 0.73295 0.05955 0.38488 0.0
H192 H 0.75218 0.07492 0.30023 0.0
H193 H 0.67268 0.07063 0.30883 0.0
O194 O 0.69619 0.91541 0.29389 0.0
H195 H 0.74912 0.95141 0.38687 0.0
H196 H 0.68012 0.86128 0.32898 0.0
H197 H 0.7513 0.1206 0.4042 0.0
H198 H 0.66973 0.01037 0.21018 0.0
H199 H 0.7298 0.15711 0.3755 0.0
H200 H 0.72868 0.0647 0.199 0.0
O201 O 0.67518 0.99647 0.37599 0.0
H202 H 0.56774 0.84921 0.30161 0.0
H203 H 0.65288 0.89038 0.39296 0.0
H204 H 0.59062 0.84144 0.40141 0.0
H205 H 0.54758 0.82046 0.35551 0.0
H206 H 0.63018 0.89841 0.29433 0.0
H207 H 0.70454 0.82583 0.35394 0.0
H208 H 0.7517 0.85353 0.39622 0.0
O209 O 0.69273 0.95558 0.38054 0.0
C210 C 0.75738 0.0095 0.3351 0.0
C211 C 0.75338 0.90439 0.39436 0.0
C212 C 0.71443 0.85335 0.36136 0.0
N213 N 0.71301 0.90831 0.35662 0.0
C214 C 0.73912 0.92382 0.37971 0.0
C215 C 0.70076 0.87359 0.34726 0.0
C216 C 0.74088 0.8689 0.38509 0.0
C217 C 0.67849 0.01289 0.26169 0.0
N218 N 0.70131 0.0308 0.28665 0.0
C219 C 0.6879 0.0248 0.22984 0.0
C220 C 0.72102 0.05522 0.22357 0.0
C221 C 0.74428 0.07327 0.24909 0.0
C222 C 0.73396 0.06059 0.28061 0.0
C223 C 0.69963 0.11605 0.34028 0.0
C224 C 0.72364 0.07533 0.37213 0.0
C225 C 0.68981 0.08143 0.32982 0.0
N226 N 0.70199 0.06163 0.3456 0.0
C227 C 0.73405 0.10986 0.38325 0.0
C228 C 0.72195 0.13031 0.36715 0.0
C229 C 0.68223 0.97599 0.39286 0.0
C230 C 0.58625 0.8581 0.3218 0.0
C231 C 0.63426 0.88166 0.37292 0.0
C232 C 0.59906 0.8538 0.37783 0.0
C233 C 0.57494 0.84201 0.35205 0.0
N234 N 0.64514 0.89733 0.34317 0.0
C235 C 0.62167 0.88587 0.31779 0.0
Co236 Co 0.67187 0.69086 0.65274 0.0
Co237 Co 0.75429 0.6955 0.6653 0.0
O238 O 0.70734 0.6758 0.64329 0.0
C239 C 0.62614 0.61232 0.6666 0.0
O240 O 0.65142 0.61388 0.68555 0.0
C241 C 0.77163 0.70063 0.59404 0.0
O242 O 0.7405 0.69746 0.58671 0.0
O243 O 0.76472 0.74612 0.66013 0.0
O244 O 0.71071 0.74187 0.65425 0.0
H245 H 0.84842 0.77276 0.74655 0.0
H246 H 0.65956 0.64368 0.59626 0.0
O247 O 0.63123 0.64003 0.65103 0.0
H248 H 0.66689 0.75355 0.55156 0.0
H249 H 0.55447 0.68948 0.63991 0.0
H250 H 0.67026 0.74366 0.69776 0.0
H251 H 0.67262 0.74739 0.61024 0.0
H252 H 0.5987 0.67044 0.62785 0.0
O253 O 0.78029 0.70004 0.62341 0.0
H254 H 0.79037 0.74809 0.71818 0.0
H255 H 0.81677 0.68336 0.65959 0.0
H256 H 0.62705 0.7639 0.71019 0.0
H257 H 0.65289 0.64832 0.53746 0.0
H258 H 0.56863 0.7367 0.6812 0.0
H259 H 0.65679 0.70368 0.51474 0.0
O260 O 0.67643 0.68612 0.70039 0.0
H261 H 0.71528 0.56989 0.62813 0.0
H262 H 0.75809 0.65319 0.72082 0.0
H263 H 0.74457 0.59075 0.72834 0.0
H264 H 0.7231 0.54863 0.68176 0.0
H265 H 0.72881 0.63246 0.62175 0.0
H266 H 0.87526 0.70759 0.68713 0.0
H267 H 0.89136 0.75253 0.73104 0.0
O268 O 0.73089 0.69203 0.70771 0.0
C269 C 0.74478 0.76007 0.65666 0.0
C270 C 0.84171 0.75316 0.72749 0.0
C271 C 0.85678 0.71662 0.69411 0.0
N272 N 0.80011 0.71425 0.68731 0.0
C273 C 0.80884 0.73905 0.71137 0.0
C274 C 0.82366 0.70308 0.67853 0.0
C275 C 0.86579 0.74181 0.71876 0.0
C276 C 0.661 0.66772 0.58656 0.0
N277 N 0.66687 0.69541 0.60661 0.0
C278 C 0.65734 0.67026 0.55324 0.0
C279 C 0.65959 0.70135 0.5405 0.0
C280 C 0.66534 0.72937 0.56114 0.0
C281 C 0.66889 0.72588 0.59432 0.0
C282 C 0.57984 0.70154 0.65269 0.0
C283 C 0.64499 0.73183 0.6849 0.0
C284 C 0.60493 0.69075 0.64607 0.0
N285 N 0.63711 0.706 0.662 0.0
C286 C 0.62058 0.74333 0.69211 0.0
C287 C 0.5878 0.72804 0.67586 0.0
C288 C 0.70135 0.68803 0.71855 0.0
C289 C 0.72478 0.58803 0.64857 0.0
C290 C 0.74872 0.63504 0.70042 0.0
C291 C 0.74115 0.59971 0.70483 0.0
C292 C 0.72912 0.5761 0.67868 0.0
N293 N 0.74461 0.64661 0.67076 0.0
C294 C 0.73265 0.62356 0.64506 0.0
Co295 Co 0.97971 0.6722 0.9806 0.0
Co296 Co 0.05831 0.75166 0.99752 0.0
O297 O 0.03088 0.70625 0.97389 0.0
C298 C 0.01133 0.62602 0.99481 0.0
O299 O 0.03474 0.65174 0.01357 0.0
C300 C 0.06888 0.77725 0.92941 0.0
O301 O 0.03388 0.75848 0.9256 0.0
O302 O 0.02022 0.76496 0.99073 0.0
O303 O 0.96944 0.71234 0.98224 0.0
H304 H 0.0763 0.84559 0.07948 0.0
H305 H 0.01815 0.66257 0.9255 0.0
O306 O 0.98851 0.63057 0.97893 0.0
H307 H 0.92096 0.67624 0.87654 0.0
H308 H 0.86272 0.55793 0.9607 0.0
H309 H 0.92324 0.67097 0.02272 0.0
H310 H 0.92795 0.67724 0.9358 0.0
H311 H 0.92722 0.60089 0.95249 0.0
O312 O 0.08289 0.77689 0.95646 0.0
H313 H 0.04179 0.7887 0.04962 0.0
H314 H 0.13451 0.8112 0.995 0.0
H315 H 0.85861 0.62902 0.03134 0.0
H316 H 0.01197 0.66106 0.86609 0.0
H317 H 0.82793 0.57201 1.00022 0.0
H318 H 0.96315 0.66803 0.84125 0.0
O319 O 0.98578 0.67441 0.02867 0.0
H320 H 0.14235 0.70789 0.96423 0.0
H321 H 0.09911 0.75021 0.05534 0.0
H322 H 0.1449 0.73268 0.06513 0.0
H323 H 0.16688 0.7114 0.01936 0.0
H324 H 0.09634 0.72541 0.95557 0.0
H325 H 0.16996 0.86852 0.02407 0.0
H326 H 0.14088 0.88597 0.06674 0.0
O327 O 0.03484 0.72775 0.03882 0.0
C328 C 0.98642 0.74631 0.98578 0.0
C329 C 0.08929 0.83827 0.06097 0.0
C330 C 0.14185 0.85115 0.02984 0.0
N331 N 0.08612 0.79656 0.02068 0.0
C332 C 0.0699 0.80605 0.04402 0.0
C333 C 0.1216 0.81871 0.0134 0.0
C334 C 0.12552 0.86092 0.0538 0.0
C335 C 0.9967 0.66537 0.91484 0.0
N336 N 0.97342 0.66994 0.93406 0.0
C337 C 0.99339 0.6646 0.8812 0.0
C338 C 0.96601 0.66855 0.86728 0.0
C339 C 0.94235 0.67318 0.88706 0.0
C340 C 0.94651 0.67384 0.9206 0.0
C341 C 0.87578 0.5827 0.97438 0.0
C342 C 0.91004 0.64631 0.00894 0.0
C343 C 0.91233 0.60706 0.96992 0.0
N344 N 0.92894 0.63849 0.98699 0.0
C345 C 0.87346 0.62262 0.014 0.0
C346 C 0.85627 0.59062 0.99655 0.0
C347 C 0.00788 0.69834 0.04813 0.0
C348 C 0.13306 0.71721 0.98435 0.0
C349 C 0.10846 0.74088 0.03531 0.0
C350 C 0.13445 0.73106 0.04099 0.0
C351 C 0.14678 0.71914 0.0153 0.0
N352 N 0.0952 0.73899 0.00487 0.0
C353 C 0.10711 0.72728 0.97957 0.0
Co354 Co 0.02718 0.69798 0.34939 0.0
Co355 Co 0.95048 0.70396 0.34767 0.0
O356 O 0.98006 0.6858 0.36754 0.0
C357 C 0.99342 0.61889 0.35836 0.0
O358 O 0.96274 0.61487 0.34801 0.0
C359 C 0.9393 0.70504 0.42017 0.0
O360 O 0.96365 0.69595 0.42633 0.0
O361 O 0.99108 0.75439 0.35155 0.0
O362 O 0.03638 0.74637 0.33567 0.0
H363 H 0.92744 0.78001 0.26981 0.0
H364 H 0.01207 0.67115 0.4168 0.0
O365 O 0.02055 0.6501 0.36192 0.0
H366 H 0.11747 0.79307 0.42383 0.0
H367 H 0.14642 0.70198 0.34755 0.0
H368 H 0.06553 0.7325 0.2885 0.0
H369 H 0.09008 0.76734 0.37106 0.0
H370 H 0.08793 0.68783 0.37084 0.0
O371 O 0.93203 0.70913 0.39112 0.0
H372 H 0.96305 0.75604 0.29523 0.0
H373 H 0.87628 0.69153 0.35834 0.0
H374 H 0.1239 0.74744 0.26448 0.0
H375 H 0.03902 0.69564 0.47012 0.0
H376 H 0.16483 0.73215 0.29406 0.0
H377 H 0.09201 0.75709 0.47387 0.0
O378 O 0.00456 0.67789 0.30704 0.0
H379 H 0.86733 0.578 0.38698 0.0
H380 H 0.89986 0.66136 0.29479 0.0
H381 H 0.85046 0.59895 0.28892 0.0
H382 H 0.83375 0.55679 0.33528 0.0
H383 H 0.91683 0.64038 0.39164 0.0
H384 H 0.8399 0.71512 0.33384 0.0
H385 H 0.86539 0.75956 0.28913 0.0
O386 O 0.96703 0.69971 0.30316 0.0
C387 C 0.02306 0.76648 0.34127 0.0
C388 C 0.916 0.76059 0.28922 0.0
C389 C 0.86689 0.72421 0.32519 0.0
N390 N 0.92171 0.72224 0.3281 0.0
C391 C 0.93601 0.74685 0.30366 0.0
C392 C 0.88767 0.71103 0.33903 0.0
C393 C 0.8812 0.74913 0.30009 0.0
C394 C 0.03527 0.69781 0.41825 0.0
N395 N 0.0493 0.71782 0.39089 0.0
C396 C 0.05035 0.71158 0.4485 0.0
C397 C 0.08006 0.74607 0.45059 0.0
C398 C 0.09433 0.76629 0.42254 0.0
C399 C 0.07855 0.75163 0.39272 0.0
C400 C 0.12888 0.70887 0.33447 0.0
C401 C 0.08327 0.72598 0.30164 0.0
C402 C 0.09569 0.70089 0.34752 0.0
N403 N 0.07344 0.70963 0.33119 0.0
C404 C 0.11626 0.73441 0.28786 0.0
C405 C 0.13919 0.7258 0.30445 0.0
C406 C 0.98419 0.68552 0.29062 0.0
C407 C 0.87416 0.59618 0.36668 0.0
C408 C 0.89283 0.64324 0.31511 0.0
C409 C 0.86476 0.6079 0.31163 0.0
C410 C 0.85539 0.58427 0.33765 0.0
N411 N 0.91097 0.65485 0.34375 0.0
C412 C 0.90206 0.63172 0.36927 0.0
Co413 Co 0.3357 0.02613 0.6984 0.0
Co414 Co 0.2564 0.94634 0.68253 0.0
O415 O 0.30187 0.97488 0.70626 0.0
C416 C 0.38216 0.99148 0.69995 0.0
O417 O 0.35397 0.95923 0.70206 0.0
C418 C 0.23029 0.93782 0.75053 0.0
O419 O 0.24898 0.97288 0.75379 0.0
O420 O 0.24288 0.98449 0.68728 0.0
O421 O 0.29491 0.03543 0.6968 0.0
H422 H 0.16314 0.92532 0.59872 0.0
H423 H 0.3449 0.98897 0.75531 0.0
O424 O 0.37874 0.01926 0.69916 0.0
H425 H 0.33356 0.089 0.80039 0.0
H426 H 0.44896 0.1451 0.7148 0.0
H427 H 0.33475 0.08041 0.65485 0.0
H428 H 0.3317 0.0796 0.74146 0.0
H429 H 0.40727 0.08069 0.72487 0.0
O430 O 0.23077 0.92325 0.72386 0.0
H431 H 0.21975 0.96094 0.62875 0.0
H432 H 0.19683 0.87022 0.6866 0.0
H433 H 0.37538 0.14491 0.64441 0.0
H434 H 0.34734 0.99761 0.81431 0.0
H435 H 0.43298 0.17769 0.67448 0.0
H436 H 0.34157 0.04789 0.83728 0.0
O437 O 0.33308 0.01849 0.65068 0.0
H438 H 0.29548 0.86029 0.72139 0.0
H439 H 0.25976 0.9045 0.62635 0.0
H440 H 0.27587 0.85733 0.61931 0.0
H441 H 0.29376 0.8348 0.66707 0.0
H442 H 0.27979 0.90791 0.72727 0.0
H443 H 0.13982 0.83371 0.65737 0.0
H444 H 0.12271 0.86122 0.613 0.0
O445 O 0.28066 0.96825 0.64087 0.0
C446 C 0.26107 0.01824 0.69243 0.0
C447 C 0.17032 0.91301 0.61798 0.0
C448 C 0.15721 0.86161 0.65092 0.0
N449 N 0.21168 0.91767 0.65931 0.0
C450 C 0.20238 0.93303 0.63503 0.0
C451 C 0.18949 0.88246 0.66744 0.0
C452 C 0.14764 0.87705 0.62601 0.0
C453 C 0.34286 0.01118 0.76498 0.0
N454 N 0.33864 0.034 0.74483 0.0
C455 C 0.34404 0.01582 0.79849 0.0
C456 C 0.34074 0.044 0.81136 0.0
C457 C 0.33624 0.06706 0.79069 0.0
C458 C 0.33515 0.06156 0.75732 0.0
C459 C 0.42391 0.13112 0.70158 0.0
C460 C 0.35965 0.09453 0.6682 0.0
C461 C 0.40026 0.09462 0.70709 0.0
N462 N 0.36849 0.07685 0.69062 0.0
C463 C 0.38261 0.13103 0.6621 0.0
C464 C 0.41493 0.14939 0.67896 0.0
C465 C 0.30986 0.99536 0.63141 0.0
C466 C 0.28769 0.86985 0.7004 0.0
C467 C 0.26789 0.89515 0.64722 0.0
C468 C 0.2768 0.86827 0.6431 0.0
C469 C 0.28677 0.8556 0.66991 0.0
N470 N 0.2689 0.90904 0.6772 0.0
C471 C 0.27859 0.89669 0.70361 0.0
Co472 Co 0.31219 0.32348 0.02133 0.0
Co473 Co 0.31457 0.24486 0.00951 0.0
O474 O 0.33006 0.2907 0.0318 0.0
C475 C 0.39057 0.37224 0.01213 0.0
O476 O 0.39113 0.34717 0.99441 0.0
C477 C 0.29701 0.22059 0.07788 0.0
O478 O 0.27955 0.23837 0.07979 0.0
O479 O 0.26251 0.23 0.01409 0.0
O480 O 0.26269 0.28239 0.01667 0.0
H481 H 0.24414 0.14763 0.92834 0.0
H482 H 0.35519 0.33535 0.08073 0.0
O483 O 0.36156 0.36622 0.02592 0.0
H484 H 0.23796 0.31641 0.1183 0.0
H485 H 0.30324 0.43529 0.03455 0.0
H486 H 0.26098 0.32299 0.97298 0.0
H487 H 0.25002 0.31571 0.06008 0.0
H488 H 0.32551 0.39383 0.04761 0.0
O489 O 0.31303 0.22113 0.05178 0.0
H490 H 0.26337 0.20494 0.95661 0.0
H491 H 0.33388 0.1874 0.01593 0.0
H492 H 0.23793 0.36362 0.95922 0.0
H493 H 0.34441 0.33665 0.13924 0.0
H494 H 0.25896 0.42017 0.99018 0.0
H495 H 0.28539 0.32702 0.15834 0.0
O496 O 0.32094 0.32123 0.97415 0.0
H497 H 0.44152 0.29394 0.04812 0.0
H498 H 0.36011 0.24631 0.95432 0.0
H499 H 0.42434 0.26588 0.94746 0.0
H500 H 0.46552 0.28985 0.99461 0.0
H501 H 0.37712 0.27435 0.05384 0.0
H502 H 0.31512 0.12971 0.98854 0.0
H503 H 0.27006 0.10957 0.94429 0.0
O504 O 0.31606 0.26719 0.9669 0.0
C505 C 0.24658 0.2483 0.01526 0.0
C506 C 0.26385 0.15615 0.94753 0.0
C507 C 0.30366 0.14607 0.98135 0.0
N508 N 0.29987 0.19961 0.98776 0.0
C509 C 0.27491 0.18862 0.96358 0.0
C510 C 0.3141 0.17872 0.99684 0.0
C511 C 0.27839 0.1348 0.95651 0.0
C512 C 0.32957 0.33146 0.08889 0.0
N513 N 0.30335 0.32562 0.06704 0.0
C514 C 0.32357 0.33209 0.12203 0.0
C515 C 0.29043 0.32665 0.13273 0.0
C516 C 0.2638 0.32068 0.11028 0.0
C517 C 0.27076 0.32023 0.07735 0.0
C518 C 0.2938 0.41069 0.02093 0.0
C519 C 0.27021 0.34751 0.98663 0.0
C520 C 0.3064 0.38716 0.02815 0.0
N521 N 0.29443 0.35593 0.01118 0.0
C522 C 0.25709 0.37043 0.97869 0.0
C523 C 0.26895 0.40218 0.99604 0.0
C524 C 0.3199 0.29667 0.95605 0.0
C525 C 0.42383 0.28347 0.02742 0.0
C526 C 0.37786 0.25681 0.97493 0.0
C527 C 0.4142 0.26777 0.97091 0.0
C528 C 0.43728 0.2812 0.99738 0.0
N529 N 0.36485 0.25905 0.00449 0.0
C530 C 0.38732 0.27222 0.03054 0.0
Co531 Co 0.98007 0.32038 0.35511 0.0
Co532 Co 0.05083 0.30321 0.35068 0.0
O533 O 0.02746 0.32875 0.36964 0.0
C534 C 0.02376 0.40121 0.36604 0.0
O535 O 0.0523 0.40034 0.37602 0.0
C536 C 0.06573 0.3065 0.42287 0.0
O537 O 0.04617 0.32144 0.42885 0.0
O538 O 0.00668 0.25562 0.35769 0.0
O539 O 0.96248 0.26815 0.35029 0.0
H540 H 0.05646 0.2127 0.27763 0.0
H541 H 0.00925 0.35831 0.41811 0.0
O542 O 0.99506 0.37263 0.35826 0.0
H543 H 0.89319 0.25156 0.44472 0.0
H544 H 0.87134 0.33601 0.35648 0.0
H545 H 0.93029 0.27666 0.30268 0.0
H546 H 0.9149 0.26355 0.38849 0.0
H547 H 0.93017 0.34632 0.37551 0.0
O548 O 0.06936 0.29815 0.39408 0.0
H549 H 0.02876 0.24556 0.30172 0.0
H550 H 0.12144 0.30644 0.35976 0.0
H551 H 0.87131 0.26533 0.28309 0.0
H552 H 0.9883 0.34775 0.47447 0.0
H553 H 0.84143 0.29512 0.31005 0.0
H554 H 0.92988 0.29393 0.48822 0.0
O555 O 0.99661 0.32901 0.30951 0.0
H556 H 0.14878 0.42751 0.38164 0.0
H557 H 0.10025 0.33699 0.29476 0.0
H558 H 0.15456 0.39535 0.28458 0.0
H559 H 0.17935 0.44109 0.32826 0.0
H560 H 0.09429 0.36914 0.39059 0.0
H561 H 0.14997 0.27398 0.33651 0.0
H562 H 0.1175 0.22684 0.29503 0.0
O563 O 0.03383 0.30672 0.30647 0.0
C564 C 0.97364 0.24592 0.35362 0.0
C565 C 0.07092 0.23326 0.29561 0.0
C566 C 0.12339 0.26761 0.32869 0.0
N567 N 0.07353 0.27807 0.33196 0.0
C568 C 0.05542 0.25203 0.30928 0.0
C569 C 0.10704 0.28584 0.34183 0.0
C570 C 0.10516 0.24118 0.30541 0.0
C571 C 0.98364 0.33518 0.42359 0.0
N572 N 0.96334 0.31184 0.39975 0.0
C573 C 0.97197 0.32917 0.45571 0.0
C574 C 0.93924 0.29894 0.46343 0.0
C575 C 0.91869 0.27515 0.43905 0.0
C576 C 0.93124 0.28203 0.40722 0.0
C577 C 0.88405 0.32281 0.34458 0.0
C578 C 0.91736 0.28955 0.31468 0.0
C579 C 0.9174 0.3286 0.3552 0.0
N580 N 0.93353 0.31186 0.3404 0.0
C581 C 0.88401 0.28311 0.30341 0.0
C582 C 0.86728 0.29985 0.31853 0.0
C583 C 0.01561 0.31936 0.29338 0.0
C584 C 0.13836 0.40774 0.36246 0.0
C585 C 0.11066 0.35674 0.31389 0.0
C586 C 0.14155 0.38974 0.30798 0.0
C587 C 0.15546 0.41537 0.33249 0.0
N588 N 0.09409 0.34931 0.34342 0.0
C589 C 0.10754 0.37442 0.36748 0.0
Co590 Co 0.67108 0.98152 0.70247 0.0
Co591 Co 0.75547 0.05519 0.68613 0.0
O592 O 0.70875 0.03198 0.70887 0.0
C593 C 0.63128 0.02329 0.69977 0.0
O594 O 0.66097 0.0543 0.70274 0.0
C595 C 0.77508 0.06744 0.75623 0.0
O596 O 0.74637 0.03673 0.76329 0.0
O597 O 0.76291 0.01353 0.69438 0.0
O598 O 0.70798 0.96658 0.70395 0.0
H599 H 0.84641 0.06037 0.60656 0.0
H600 H 0.66485 0.02444 0.75623 0.0
O601 O 0.63178 0.99392 0.7 0.0
H602 H 0.66176 0.91997 0.80863 0.0
H603 H 0.55023 0.87085 0.71991 0.0
H604 H 0.66628 0.92192 0.66269 0.0
H605 H 0.66702 0.92699 0.7494 0.0
H606 H 0.59692 0.93411 0.72824 0.0
O607 O 0.78204 0.07834 0.72709 0.0
H608 H 0.78853 0.03192 0.63562 0.0
H609 H 0.82079 0.12816 0.68829 0.0
H610 H 0.62053 0.85841 0.65401 0.0
H611 H 0.65896 0.01821 0.81538 0.0
H612 H 0.56199 0.83248 0.68272 0.0
H613 H 0.65752 0.96573 0.84207 0.0
O614 O 0.6758 0.98675 0.6545 0.0
H615 H 0.72858 0.15245 0.71705 0.0
H616 H 0.75979 0.09746 0.6273 0.0
H617 H 0.75099 0.14894 0.61632 0.0
H618 H 0.7354 0.17689 0.66141 0.0
H619 H 0.73706 0.10056 0.72685 0.0
H620 H 0.87915 0.15756 0.65998 0.0
H621 H 0.89222 0.12365 0.61869 0.0
O622 O 0.73096 0.03316 0.64463 0.0
C623 C 0.74179 0.98036 0.70046 0.0
C624 C 0.84101 0.07546 0.62445 0.0
C625 C 0.8594 0.12998 0.65446 0.0
N626 N 0.8012 0.07838 0.66353 0.0
C627 C 0.80825 0.05951 0.64094 0.0
C628 C 0.82633 0.11316 0.67047 0.0
C629 C 0.86671 0.11095 0.63129 0.0
C630 C 0.66364 1.00123 0.76744 0.0
N631 N 0.66589 0.97594 0.74917 0.0
C632 C 0.66057 0.99798 0.80107 0.0
C633 C 0.65986 0.96858 0.81604 0.0
C634 C 0.66227 0.94293 0.7973 0.0
C635 C 0.66538 0.94712 0.76374 0.0
C636 C 0.57565 0.88182 0.70731 0.0
C637 C 0.64097 0.91078 0.67545 0.0
C638 C 0.60216 0.91766 0.71184 0.0
N639 N 0.63442 0.93164 0.69615 0.0
C640 C 0.61512 0.87482 0.67035 0.0
C641 C 0.58227 0.8603 0.68644 0.0
C642 C 0.70074 0.00755 0.63518 0.0
C643 C 0.73545 0.14056 0.69721 0.0
C644 C 0.75269 0.10925 0.64701 0.0
C645 C 0.74791 0.13851 0.64067 0.0
C646 C 0.73921 0.15421 0.66598 0.0
N647 N 0.74895 0.096 0.67771 0.0
C648 C 0.74045 0.11127 0.70265 0.0
Co649 Co 0.68568 0.66496 0.02733 0.0
Co650 Co 0.69851 0.7508 0.01614 0.0
O651 O 0.67432 0.70303 0.03689 0.0
C652 C 0.60708 0.62257 0.01193 0.0
O653 O 0.61096 0.64673 0.99039 0.0
C654 C 0.69522 0.76497 0.08748 0.0
O655 O 0.68358 0.73118 0.0944 0.0
O656 O 0.74715 0.75698 0.02431 0.0
O657 O 0.73791 0.70078 0.02551 0.0
H658 H 0.78665 0.84478 0.94004 0.0
H659 H 0.63908 0.65492 0.08384 0.0
O660 O 0.63359 0.62729 0.02923 0.0
H661 H 0.74519 0.65426 0.12845 0.0
H662 H 0.67328 0.54262 0.03992 0.0
H663 H 0.73559 0.65836 0.98203 0.0
H664 H 0.74002 0.66136 0.06989 0.0
H665 H 0.65943 0.59055 0.05211 0.0
O666 O 0.70209 0.77613 0.05835 0.0
H667 H 0.75585 0.78555 0.96672 0.0
H668 H 0.69198 0.81668 0.02117 0.0
H669 H 0.75059 0.6113 0.96939 0.0
H670 H 0.64268 0.64689 0.14252 0.0
H671 H 0.71931 0.55291 0.99842 0.0
H672 H 0.69618 0.6468 0.16523 0.0
O673 O 0.68174 0.67059 0.97982 0.0
H674 H 0.57183 0.71859 0.04448 0.0
H675 H 0.66348 0.76146 0.95837 0.0
H676 H 0.60362 0.75333 0.9466 0.0
H677 H 0.55733 0.73189 0.98987 0.0
H678 H 0.63181 0.7267 0.0551 0.0
H679 H 0.72234 0.87638 0.99528 0.0
H680 H 0.76995 0.8907 0.9543 0.0
O681 O 0.69623 0.72817 0.97345 0.0
C682 C 0.75859 0.73473 0.02545 0.0
C683 C 0.76589 0.83884 0.9578 0.0
C684 C 0.72984 0.85659 0.98884 0.0
N685 N 0.72203 0.79758 0.99537 0.0
C686 C 0.74829 0.80531 0.97294 0.0
C687 C 0.71282 0.82277 0.00349 0.0
C688 C 0.75653 0.8646 0.96584 0.0
C689 C 0.66232 0.65463 0.0935 0.0
N690 N 0.68957 0.65913 0.07347 0.0
C691 C 0.66427 0.65021 0.12677 0.0
C692 C 0.69431 0.65022 0.1395 0.0
C693 C 0.72186 0.6545 0.11889 0.0
C694 C 0.71897 0.65888 0.08575 0.0
C695 C 0.68713 0.56796 0.02714 0.0
C696 C 0.72201 0.63311 0.99492 0.0
C697 C 0.67932 0.59519 0.03387 0.0
N698 N 0.69684 0.62734 0.01793 0.0
C699 C 0.73055 0.60652 0.98759 0.0
C700 C 0.71297 0.57376 0.00386 0.0
C701 C 0.68833 0.69752 0.96208 0.0
C702 C 0.59185 0.72819 0.02549 0.0
C703 C 0.64353 0.75216 0.97738 0.0
C704 C 0.60967 0.74761 0.97055 0.0
C705 C 0.58371 0.73559 0.99483 0.0
N706 N 0.65148 0.74519 0.00761 0.0
C707 C 0.62602 0.73307 0.03144 0.0
C708 C 0.31915 0.12578 0.23626 0.0
C709 C 0.29556 0.08846 0.2363 0.0
C710 C 0.31962 0.1474 0.21058 0.0
C711 C 0.29577 0.13148 0.18425 0.0
C712 C 0.27202 0.09382 0.18399 0.0
C713 C 0.2723 0.07274 0.20994 0.0
C714 C 0.34564 0.18735 0.21169 0.0
C715 C 0.24607 0.07585 0.15643 0.0
C716 C 0.27496 0.19233 0.13252 0.0
C717 C 0.2971 0.19849 0.10551 0.0
C718 C 0.27399 0.17031 0.15816 0.0
C719 C 0.29591 0.15432 0.15695 0.0
C720 C 0.31855 0.16072 0.12989 0.0
C721 C 0.31878 0.18257 0.10451 0.0
C722 C 0.24937 0.16405 0.18652 0.0
C723 C 0.34266 0.14455 0.12778 0.0
H724 H 0.33737 0.13825 0.25641 0.0
H725 H 0.25391 0.04399 0.20978 0.0
H726 H 0.36335 0.19571 0.19009 0.0
H727 H 0.33067 0.20219 0.2111 0.0
H728 H 0.36274 0.1955 0.23371 0.0
H729 H 0.22931 0.04633 0.15984 0.0
H730 H 0.22806 0.08731 0.15408 0.0
H731 H 0.26103 0.08108 0.13333 0.0
H732 H 0.25802 0.20437 0.13349 0.0
H733 H 0.33609 0.18721 0.08383 0.0
H734 H 0.26532 0.17368 0.20912 0.0
H735 H 0.23041 0.13485 0.1895 0.0
H736 H 0.23362 0.17796 0.1836 0.0
H737 H 0.3614 0.15353 0.14864 0.0
H738 H 0.35867 0.15211 0.10509 0.0
H739 H 0.3263 0.11483 0.12903 0.0
C740 C 0.21825 0.31096 0.53687 0.0
C741 C 0.20496 0.29554 0.56724 0.0
C742 C 0.19541 0.31271 0.51342 0.0
C743 C 0.15822 0.29753 0.52015 0.0
C744 C 0.14459 0.28095 0.55049 0.0
C745 C 0.16822 0.28075 0.57385 0.0
C746 C 0.21122 0.33158 0.48178 0.0
C747 C 0.10501 0.26337 0.55829 0.0
C748 C 0.10235 0.32887 0.47344 0.0
C749 C 0.08753 0.30306 0.44885 0.0
C750 C 0.12578 0.32767 0.49653 0.0
C751 C 0.1336 0.29929 0.49564 0.0
C752 C 0.1178 0.27258 0.47138 0.0
C753 C 0.0955 0.27516 0.44794 0.0
C754 C 0.14286 0.35726 0.52138 0.0
C755 C 0.12441 0.24124 0.47018 0.0
H756 H 0.24672 0.32272 0.53185 0.0
H757 H 0.15785 0.2686 0.59728 0.0
H758 H 0.19845 0.31275 0.46131 0.0
H759 H 0.20562 0.35395 0.47847 0.0
H760 H 0.24074 0.3426 0.48055 0.0
H761 H 0.09846 0.2499 0.58227 0.0
H762 H 0.09637 0.28375 0.55818 0.0
H763 H 0.0891 0.24316 0.5395 0.0
H764 H 0.09667 0.35077 0.47391 0.0
H765 H 0.08404 0.25515 0.42894 0.0
H766 H 0.17258 0.37052 0.51963 0.0
H767 H 0.13523 0.34588 0.54609 0.0
H768 H 0.13479 0.37794 0.51825 0.0
H769 H 0.15335 0.25103 0.46597 0.0
H770 H 0.10867 0.2218 0.45078 0.0
H771 H 0.11721 0.22692 0.49374 0.0
C772 C 0.78582 0.09352 0.81197 0.0
C773 C 0.79943 0.09059 0.78205 0.0
C774 C 0.80865 0.11782 0.83556 0.0
C775 C 0.84609 0.13864 0.82943 0.0
C776 C 0.86001 0.13474 0.79961 0.0
C777 C 0.83643 0.11127 0.77606 0.0
C778 C 0.7926 0.122 0.8666 0.0
C779 C 0.89982 0.15545 0.79249 0.0
C780 C 0.90365 0.22644 0.87452 0.0
C781 C 0.91766 0.21538 0.89975 0.0
C782 C 0.87975 0.2016 0.85187 0.0
C783 C 0.87067 0.16508 0.85385 0.0
C784 C 0.88547 0.154 0.8789 0.0
C785 C 0.90825 0.17915 0.90191 0.0
C786 C 0.86373 0.21433 0.82614 0.0
C787 C 0.87751 0.11564 0.88124 0.0
H788 H 0.75714 0.07781 0.81645 0.0
H789 H 0.84699 0.10887 0.75295 0.0
H790 H 0.80474 0.11606 0.88767 0.0
H791 H 0.79873 0.15022 0.86911 0.0
H792 H 0.76298 0.10403 0.86756 0.0
H793 H 0.90652 0.14752 0.76907 0.0
H794 H 0.90931 0.18465 0.79171 0.0
H795 H 0.91488 0.15106 0.81206 0.0
H796 H 0.91052 0.25435 0.87308 0.0
H797 H 0.91915 0.17059 0.9214 0.0
H798 H 0.83395 0.19841 0.8273 0.0
H799 H 0.87182 0.21008 0.80181 0.0
H800 H 0.87228 0.24324 0.82878 0.0
H801 H 0.84828 0.09731 0.88481 0.0
H802 H 0.89217 0.11166 0.90148 0.0
H803 H 0.88508 0.10771 0.85831 0.0
C804 C 0.7246 0.82606 0.11257 0.0
C805 C 0.69743 0.78991 0.1132 0.0
C806 C 0.72686 0.85006 0.13682 0.0
C807 C 0.70044 0.83792 0.1615 0.0
C808 C 0.67246 0.80155 0.16173 0.0
C809 C 0.67171 0.77783 0.13794 0.0
C810 C 0.75786 0.8882 0.13634 0.0
C811 C 0.64308 0.78777 0.18693 0.0
C812 C 0.71899 0.88577 0.24257 0.0
C813 C 0.70365 0.90761 0.23828 0.0
C814 C 0.71927 0.864 0.21739 0.0
C815 C 0.70249 0.8629 0.18759 0.0
C816 C 0.68684 0.8849 0.18319 0.0
C817 C 0.68824 0.90756 0.20842 0.0
C818 C 0.73738 0.84202 0.22278 0.0
C819 C 0.6676 0.8836 0.15224 0.0
H820 H 0.74456 0.83538 0.09346 0.0
H821 H 0.65038 0.74998 0.13818 0.0
H822 H 0.74766 0.90728 0.13438 0.0
H823 H 0.77307 0.89418 0.15936 0.0
H824 H 0.77661 0.89317 0.11592 0.0
H825 H 0.62205 0.75941 0.18255 0.0
H826 H 0.65466 0.78962 0.2113 0.0
H827 H 0.6302 0.80464 0.18718 0.0
H828 H 0.73111 0.88598 0.26564 0.0
H829 H 0.67606 0.92419 0.20525 0.0
H830 H 0.75702 0.84723 0.20314 0.0
H831 H 0.71713 0.81298 0.22208 0.0
H832 H 0.75161 0.84805 0.24637 0.0
H833 H 0.68607 0.89051 0.13132 0.0
H834 H 0.65679 0.9023 0.15264 0.0
H835 H 0.64499 0.8559 0.14822 0.0
C836 C 0.90144 0.72862 0.44362 0.0
C837 C 0.91703 0.70683 0.4467 0.0
C838 C 0.87867 0.72923 0.46774 0.0
C839 C 0.87029 0.70659 0.49513 0.0
C840 C 0.88595 0.68449 0.49832 0.0
C841 C 0.90957 0.68531 0.47432 0.0
C842 C 0.8635 0.75402 0.46385 0.0
C843 C 0.87696 0.65922 0.52665 0.0
C844 C 0.83373 0.72542 0.57211 0.0
C845 C 0.79656 0.70313 0.56816 0.0
C846 C 0.85796 0.72753 0.54817 0.0
C847 C 0.84478 0.70568 0.52021 0.0
C848 C 0.80721 0.68276 0.51634 0.0
C849 C 0.7835 0.68231 0.54009 0.0
C850 C 0.89763 0.75327 0.55273 0.0
C851 C 0.79209 0.65812 0.4875 0.0
H852 H 0.90722 0.74539 0.42234 0.0
H853 H 0.9212 0.66809 0.47661 0.0
H854 H 0.83383 0.73807 0.46164 0.0
H855 H 0.86967 0.77128 0.48558 0.0
H856 H 0.87441 0.77153 0.44219 0.0
H857 H 0.89104 0.64348 0.52538 0.0
H858 H 0.88439 0.67452 0.54965 0.0
H859 H 0.84755 0.64026 0.52741 0.0
H860 H 0.84382 0.74164 0.59379 0.0
H861 H 0.75477 0.66473 0.53723 0.0
H862 H 0.90849 0.77153 0.53157 0.0
H863 H 0.9123 0.73818 0.55423 0.0
H864 H 0.90333 0.76975 0.57497 0.0
H865 H 0.79946 0.67409 0.46486 0.0
H866 H 0.76236 0.64114 0.48857 0.0
H867 H 0.80389 0.64032 0.48614 0.0
C868 C 0.19938 0.92943 0.8041 0.0
C869 C 0.20758 0.91467 0.77741 0.0
C870 C 0.17661 0.90733 0.8289 0.0
C871 C 0.16209 0.86963 0.8272 0.0
C872 C 0.17073 0.85466 0.80055 0.0
C873 C 0.19316 0.87729 0.77595 0.0
C874 C 0.16778 0.92429 0.85678 0.0
C875 C 0.15629 0.81469 0.79801 0.0
C876 C 0.12991 0.81541 0.90507 0.0
C877 C 0.09245 0.80009 0.90279 0.0
C878 C 0.15281 0.83794 0.88064 0.0
C879 C 0.13802 0.84576 0.85334 0.0
C880 C 0.10024 0.83039 0.85085 0.0
C881 C 0.0779 0.80756 0.87549 0.0
C882 C 0.19287 0.85332 0.88403 0.0
C883 C 0.08344 0.83829 0.82225 0.0
H884 H 0.21026 0.95823 0.80537 0.0
H885 H 0.19948 0.86561 0.75552 0.0
H886 H 0.13828 0.91308 0.85823 0.0
H887 H 0.17639 0.91783 0.8799 0.0
H888 H 0.18099 0.95396 0.85442 0.0
H889 H 0.16603 0.80737 0.77599 0.0
H890 H 0.16441 0.80506 0.81956 0.0
H891 H 0.12648 0.80025 0.79752 0.0
H892 H 0.14144 0.8097 0.92599 0.0
H893 H 0.04903 0.796 0.87358 0.0
H894 H 0.20671 0.8831 0.88398 0.0
H895 H 0.20329 0.84513 0.86308 0.0
H896 H 0.20008 0.84437 0.9066 0.0
H897 H 0.09421 0.86767 0.82024 0.0
H898 H 0.05369 0.82467 0.82414 0.0
H899 H 0.09053 0.82946 0.79958 0.0
C900 C 0.42196 0.9768 0.3266 0.0
C901 C 0.42571 0.01009 0.31805 0.0
C902 C 0.45136 0.97107 0.32559 0.0
C903 C 0.48511 0.9989 0.31463 0.0
C904 C 0.48878 0.03226 0.30497 0.0
C905 C 0.45916 0.03772 0.30744 0.0
C906 C 0.44653 0.93562 0.33729 0.0
C907 C 0.52399 0.06218 0.29215 0.0
C908 C 0.56981 0.99922 0.3418 0.0
C909 C 0.57612 0.98211 0.31588 0.0
C910 C 0.54003 0.00438 0.34187 0.0
C911 C 0.51683 0.99351 0.31472 0.0
C912 C 0.5235 0.97674 0.28818 0.0
C913 C 0.55273 0.97058 0.28937 0.0
C914 C 0.53317 0.02107 0.37119 0.0
C915 C 0.50014 0.96588 0.25836 0.0
H916 H 0.39619 0.95551 0.33521 0.0
H917 H 0.462 0.06339 0.30068 0.0
H918 H 0.45371 0.92256 0.31785 0.0
H919 H 0.46487 0.94027 0.35793 0.0
H920 H 0.41852 0.91681 0.34518 0.0
H921 H 0.52161 0.08525 0.28312 0.0
H922 H 0.54461 0.07193 0.3115 0.0
H923 H 0.53382 0.05207 0.27217 0.0
H924 H 0.58796 0.00807 0.36232 0.0
H925 H 0.558 0.95782 0.26913 0.0
H926 H 0.50576 0.0029 0.38072 0.0
H927 H 0.53446 0.04664 0.36439 0.0
H928 H 0.55292 0.02662 0.39083 0.0
H929 H 0.47216 0.94542 0.26467 0.0
H930 H 0.50992 0.95472 0.23922 0.0
H931 H 0.49936 0.98948 0.24841 0.0
C932 C 0.58201 0.54895 0.68362 0.0
C933 C 0.59011 0.57942 0.66507 0.0
C934 C 0.54723 0.51866 0.68351 0.0
C935 C 0.51986 0.5189 0.66452 0.0
C936 C 0.52798 0.54945 0.64557 0.0
C937 C 0.56291 0.57918 0.64598 0.0
C938 C 0.53968 0.48644 0.70383 0.0
C939 C 0.49966 0.55087 0.62498 0.0
C940 C 0.439 0.4299 0.63996 0.0
C941 C 0.41283 0.42623 0.66245 0.0
C942 C 0.47385 0.45978 0.64047 0.0
C943 C 0.48289 0.48699 0.66387 0.0
C944 C 0.45645 0.48393 0.68622 0.0
C945 C 0.42176 0.45357 0.68529 0.0
C946 C 0.50116 0.46199 0.61617 0.0
C947 C 0.46497 0.51257 0.71135 0.0
H948 H 0.60275 0.54884 0.69847 0.0
H949 H 0.56874 0.60248 0.63148 0.0
H950 H 0.51815 0.48086 0.7216 0.0
H951 H 0.52987 0.46232 0.68824 0.0
H952 H 0.56386 0.49038 0.71713 0.0
H953 H 0.51021 0.57683 0.61196 0.0
H954 H 0.48904 0.52883 0.60693 0.0
H955 H 0.47673 0.54682 0.64032 0.0
H956 H 0.4325 0.40906 0.62213 0.0
H957 H 0.40183 0.45099 0.70281 0.0
H958 H 0.52464 0.4636 0.62894 0.0
H959 H 0.51117 0.48675 0.60143 0.0
H960 H 0.4899 0.43847 0.59964 0.0
H961 H 0.48707 0.51534 0.72717 0.0
H962 H 0.44135 0.50646 0.7267 0.0
H963 H 0.47441 0.53892 0.6994 0.0
C964 C 0.984 0.56303 0.97381 0.0
C965 C 0.00936 0.5905 0.99373 0.0
C966 C 0.98035 0.52868 0.97364 0.0
C967 C 1.00258 0.52147 0.99387 0.0
C968 C 0.02846 0.54913 0.01382 0.0
C969 C 0.03157 0.5833 0.01348 0.0
C970 C 0.95258 0.50004 0.95188 0.0
C971 C 0.05273 0.54254 0.03568 0.0
C972 C 0.97327 0.4244 0.01564 0.0
C973 C 0.99455 0.41708 0.99473 0.0
C974 C 0.97534 0.45814 0.01544 0.0
C975 C 0.99916 0.48516 0.99377 0.0
C976 C 0.02006 0.47762 0.97212 0.0
C977 C 0.0175 0.44377 0.97285 0.0
C978 C 0.95253 0.46511 0.03884 0.0
C979 C 0.04564 0.50556 0.9485 0.0
H980 H 0.96668 0.56823 0.95842 0.0
H981 H 0.05118 0.60426 0.029 0.0
H982 H 0.9658 0.49028 0.93487 0.0
H983 H 0.93327 0.47668 0.96655 0.0
H984 H 0.93736 0.50994 0.93763 0.0
H985 H 0.0714 0.5668 0.04976 0.0
H986 H 0.03633 0.52045 0.05284 0.0
H987 H 0.06881 0.53394 0.02113 0.0
H988 H 0.95554 0.40405 0.03267 0.0
H989 H 0.03399 0.43843 0.95647 0.0
H990 H 0.93568 0.47369 0.0255 0.0
H991 H 0.97008 0.48735 0.05541 0.0
H992 H 0.93469 0.44105 0.05355 0.0
H993 H 0.03092 0.51493 0.93294 0.0
H994 H 0.05938 0.49517 0.93276 0.0
H995 H 0.06636 0.52928 0.96187 0.0
C996 C 0.97048 0.55409 0.37202 0.0
C997 C 0.99857 0.58751 0.36193 0.0
C998 C 0.9756 0.52429 0.37472 0.0
C999 C 0.00916 0.52781 0.36595 0.0
C1000 C 0.03749 0.56155 0.35561 0.0
C1001 C 0.03202 0.59106 0.35424 0.0
C1002 C 0.94507 0.489 0.38674 0.0
C1003 C 0.07322 0.56623 0.34491 0.0
C1004 C 0.03443 0.45819 0.39209 0.0
C1005 C 0.02314 0.43516 0.36534 0.0
C1006 C 0.02952 0.48821 0.39292 0.0
C1007 C 0.01415 0.49588 0.36588 0.0
C1008 C 0.00388 0.47322 0.33839 0.0
C1009 C 0.00784 0.44275 0.33875 0.0
C1010 C 0.0398 0.51109 0.42302 0.0
C1011 C 0.98861 0.48107 0.30861 0.0
H1012 H 0.94469 0.55137 0.37813 0.0
H1013 H 0.0537 0.61679 0.34601 0.0
H1014 H 0.93579 0.46873 0.36711 0.0
H1015 H 0.95438 0.47869 0.40695 0.0
H1016 H 0.92183 0.49147 0.39517 0.0
H1017 H 0.0926 0.59437 0.33784 0.0
H1018 H 0.08531 0.55822 0.36459 0.0
H1019 H 0.06915 0.54845 0.32396 0.0
H1020 H 0.04563 0.45184 0.41287 0.0
H1021 H 0.99903 0.42476 0.31811 0.0
H1022 H 0.0159 0.51143 0.43279 0.0
H1023 H 0.06016 0.53924 0.41713 0.0
H1024 H 0.05083 0.50117 0.44215 0.0
H1025 H 0.96276 0.47966 0.31459 0.0
H1026 H 0.98387 0.46191 0.28864 0.0
H1027 H 0.00725 0.50873 0.29989 0.0
C1028 C 0.56921 0.99595 0.67779 0.0
C1029 C 0.59606 0.02142 0.69796 0.0
C1030 C 0.53472 0.99191 0.67705 0.0
C1031 C 0.52645 0.01288 0.69796 0.0
C1032 C 0.55355 0.03868 0.71844 0.0
C1033 C 0.58829 0.0431 0.71776 0.0
C1034 C 0.50708 0.96505 0.654 0.0
C1035 C 0.54553 0.06076 0.7418 0.0
C1036 C 0.44543 0.02364 0.68018 0.0
C1037 C 0.41869 0.9963 0.69915 0.0
C1038 C 0.48046 0.02901 0.67919 0.0
C1039 C 0.48931 0.0074 0.69863 0.0
C1040 C 0.46248 0.98012 0.71828 0.0
C1041 C 0.42727 0.97444 0.71783 0.0
C1042 C 0.50783 0.05744 0.65699 0.0
C1043 C 0.47108 0.95724 0.74011 0.0
H1044 H 0.57531 0.97924 0.6624 0.0
H1045 H 0.60896 0.06245 0.73368 0.0
H1046 H 0.48459 0.94331 0.66781 0.0
H1047 H 0.49562 0.97827 0.63895 0.0
H1048 H 0.51856 0.95275 0.63775 0.0
H1049 H 0.56944 0.07941 0.75629 0.0
H1050 H 0.53584 0.07669 0.72849 0.0
H1051 H 0.52374 0.04269 0.75855 0.0
H1052 H 0.43871 0.04044 0.66558 0.0
H1053 H 0.40667 0.95355 0.73276 0.0
H1054 H 0.51861 0.04511 0.64004 0.0
H1055 H 0.53082 0.07791 0.67126 0.0
H1056 H 0.49631 0.07117 0.64269 0.0
H1057 H 0.47974 0.94131 0.72544 0.0
H1058 H 0.44769 0.93848 0.75512 0.0
H1059 H 0.49373 0.97466 0.75638 0.0
C1060 C 0.45408 0.41743 0.99686 0.0
C1061 C 0.42252 0.40887 0.01387 0.0
C1062 C 0.48355 0.45266 0.9968 0.0
C1063 C 0.48143 0.47999 0.01414 0.0
C1064 C 0.44981 0.47143 0.03162 0.0
C1065 C 0.42083 0.43604 0.03132 0.0
C1066 C 0.51689 0.46069 0.978 0.0
C1067 C 0.4465 0.49972 0.0505 0.0
C1068 C 0.56925 0.56263 0.03803 0.0
C1069 C 0.57322 0.58745 0.01396 0.0
C1070 C 0.53936 0.52782 0.03857 0.0
C1071 C 0.51256 0.5174 0.01451 0.0
C1072 C 0.51579 0.54258 0.99067 0.0
C1073 C 0.54607 0.57733 0.99069 0.0
C1074 C 0.53688 0.50192 0.06452 0.0
C1075 C 0.48766 0.53251 0.9647 0.0
H1076 H 0.45566 0.39671 0.98326 0.0
H1077 H 0.39661 0.42981 0.04455 0.0
H1078 H 0.52253 0.4815 0.95943 0.0
H1079 H 0.54043 0.47164 0.99444 0.0
H1080 H 0.51431 0.43648 0.96579 0.0
H1081 H 0.42001 0.48873 0.0627 0.0
H1082 H 0.46794 0.51169 0.06909 0.0
H1083 H 0.45019 0.52176 0.0341 0.0
H1084 H 0.58993 0.57016 0.05626 0.0
H1085 H 0.54891 0.59622 0.97196 0.0
H1086 H 0.53693 0.47852 0.05325 0.0
H1087 H 0.51125 0.49152 0.07801 0.0
H1088 H 0.55949 0.51452 0.082 0.0
H1089 H 0.48618 0.51038 0.94974 0.0
H1090 H 0.49346 0.55549 0.94861 0.0
H1091 H 0.46082 0.52252 0.97585 0.0
C1092 C 0.04444 0.83118 0.35504 0.0
C1093 C 0.04735 0.8055 0.33637 0.0
C1094 C 0.07223 0.86736 0.35498 0.0
C1095 C 0.10342 0.87772 0.33601 0.0
C1096 C 0.10471 0.85245 0.31491 0.0
C1097 C 0.07663 0.81682 0.31526 0.0
C1098 C 0.0694 0.89372 0.37712 0.0
C1099 C 0.1373 0.8621 0.29414 0.0
C1100 C 0.18469 0.96984 0.32179 0.0
C1101 C 0.20957 0.96786 0.34235 0.0
C1102 C 0.14846 0.94216 0.32158 0.0
C1103 C 0.13732 0.91206 0.34226 0.0
C1104 C 0.16172 0.91202 0.36525 0.0
C1105 C 0.19743 0.93995 0.36504 0.0
C1106 C 0.12303 0.94367 0.29735 0.0
C1107 C 0.15123 0.88065 0.38786 0.0
H1108 H 0.02172 0.82267 0.37119 0.0
H1109 H 0.07864 0.79727 0.30016 0.0
H1110 H 0.08441 0.89643 0.39976 0.0
H1111 H 0.08137 0.92068 0.36578 0.0
H1112 H 0.041 0.88455 0.38361 0.0
H1113 H 0.13254 0.84039 0.27683 0.0
H1114 H 0.14519 0.88704 0.28028 0.0
H1115 H 0.16033 0.86715 0.30984 0.0
H1116 H 0.19397 0.9915 0.30432 0.0
H1117 H 0.2165 0.93877 0.38145 0.0
H1118 H 0.09557 0.93216 0.30758 0.0
H1119 H 0.12135 0.92756 0.27577 0.0
H1120 H 0.13243 0.97166 0.28933 0.0
H1121 H 0.12554 0.8732 0.40023 0.0
H1122 H 0.17209 0.88657 0.4065 0.0
H1123 H 0.14721 0.85694 0.37374 0.0
C1124 C 0.27484 0.18994 0.63976 0.0
C1125 C 0.25186 0.20249 0.64982 0.0
C1126 C 0.26683 0.15472 0.64609 0.0
C1127 C 0.23493 0.13115 0.66301 0.0
C1128 C 0.21021 0.14266 0.67111 0.0
C1129 C 0.21894 0.17827 0.66436 0.0
C1130 C 0.294 0.14369 0.63674 0.0
C1131 C 0.1758 0.11829 0.6889 0.0
C1132 C 0.22268 0.03762 0.66352 0.0
C1133 C 0.2436 0.04023 0.69049 0.0
C1134 C 0.2161 0.06572 0.65578 0.0
C1135 C 0.23067 0.09675 0.67562 0.0
C1136 C 0.24808 0.09732 0.70489 0.0
C1137 C 0.25449 0.06911 0.71185 0.0
C1138 C 0.19702 0.06382 0.62459 0.0
C1139 C 0.26364 0.12953 0.72708 0.0
H1140 H 0.30014 0.20819 0.62824 0.0
H1141 H 0.20094 0.18762 0.67219 0.0
H1142 H 0.3065 0.14009 0.65887 0.0
H1143 H 0.28067 0.11763 0.62374 0.0
H1144 H 0.31573 0.16397 0.62112 0.0
H1145 H 0.15632 0.12809 0.68728 0.0
H1146 H 0.16303 0.09051 0.67927 0.0
H1147 H 0.1819 0.11721 0.71481 0.0
H1148 H 0.21436 0.01535 0.64689 0.0
H1149 H 0.27034 0.07089 0.73291 0.0
H1150 H 0.21724 0.07945 0.6057 0.0
H1151 H 0.17947 0.07574 0.6275 0.0
H1152 H 0.18053 0.0357 0.61596 0.0
H1153 H 0.28813 0.15181 0.71583 0.0
H1154 H 0.27116 0.12348 0.75101 0.0
H1155 H 0.24422 0.13907 0.73086 0.0
C1156 C 0.1903 0.21932 0.98358 0.0
C1157 C 0.20727 0.23044 0.01364 0.0
C1158 C 0.15664 0.21646 0.97821 0.0
C1159 C 0.13996 0.22502 0.00356 0.0
C1160 C 0.15517 0.23193 0.03496 0.0
C1161 C 0.18888 0.23486 0.03954 0.0
C1162 C 0.14131 0.20876 0.94444 0.0
C1163 C 0.13829 0.24088 0.06281 0.0
C1164 C 0.09845 0.28244 0.98412 0.0
C1165 C 0.06151 0.25824 0.98771 0.0
C1166 C 0.12387 0.27146 0.98805 0.0
C1167 C 0.11231 0.23522 0.99593 0.0
C1168 C 0.07507 0.21021 0.99848 0.0
C1169 C 0.05003 0.22201 0.99432 0.0
C1170 C 0.16333 0.29918 0.98496 0.0
C1171 C 0.06174 0.1714 0.00687 0.0
H1172 H 0.20491 0.21653 0.96343 0.0
H1173 H 0.20233 0.24386 0.0627 0.0
H1174 H 0.1116 0.19184 0.94498 0.0
H1175 H 0.14808 0.23446 0.93239 0.0
H1176 H 0.15255 0.19508 0.92967 0.0
H1177 H 0.14936 0.23876 0.08647 0.0
H1178 H 0.14372 0.26886 0.06003 0.0
H1179 H 0.10872 0.22287 0.06304 0.0
H1180 H 0.10782 0.31046 0.97902 0.0
H1181 H 0.0216 0.20307 0.99728 0.0
H1182 H 0.1765 0.29014 0.96718 0.0
H1183 H 0.17698 0.30256 0.00855 0.0
H1184 H 0.16769 0.32581 0.97717 0.0
H1185 H 0.0754 0.16043 0.9918 0.0
H1186 H 0.03222 0.15443 0.00354 0.0
H1187 H 0.06822 0.16944 0.03249 0.0
C1188 C 0.90988 0.1969 0.34764 0.0
C1189 C 0.94622 0.20709 0.35182 0.0
C1190 C 0.88319 0.1608 0.34506 0.0
C1191 C 0.89281 0.13378 0.34658 0.0
C1192 C 0.92934 0.1436 0.35075 0.0
C1193 C 0.95569 0.1802 0.35334 0.0
C1194 C 0.84454 0.15167 0.34071 0.0
C1195 C 0.94048 0.11546 0.35245 0.0
C1196 C 0.8103 0.04663 0.36899 0.0
C1197 C 0.79629 0.03298 0.33839 0.0
C1198 C 0.8441 0.0776 0.37232 0.0
C1199 C 0.8639 0.09549 0.34424 0.0
C1200 C 0.85119 0.07971 0.31342 0.0
C1201 C 0.81728 0.04858 0.31085 0.0
C1202 C 0.8565 0.09335 0.40562 0.0
C1203 C 0.87136 0.09784 0.28289 0.0
H1204 H 0.90202 0.2172 0.34623 0.0
H1205 H 0.98365 0.18772 0.35637 0.0
H1206 H 0.83343 0.13619 0.31805 0.0
H1207 H 0.82787 0.13453 0.361 0.0
H1208 H 0.84169 0.17596 0.33969 0.0
H1209 H 0.97 0.12745 0.35537 0.0
H1210 H 0.92683 0.09708 0.37308 0.0
H1211 H 0.93199 0.0989 0.33015 0.0
H1212 H 0.79359 0.03471 0.39019 0.0
H1213 H 0.80595 0.03828 0.28717 0.0
H1214 H 0.85126 0.11594 0.40908 0.0
H1215 H 0.88581 0.10417 0.40846 0.0
H1216 H 0.8421 0.07316 0.42491 0.0
H1217 H 0.86691 0.12052 0.27703 0.0
H1218 H 0.86209 0.07904 0.26202 0.0
H1219 H 0.90068 0.10899 0.2861 0.0
C1220 C 0.74594 0.81584 0.6394 0.0
C1221 C 0.76064 0.79943 0.65842 0.0
C1222 C 0.75233 0.85038 0.64657 0.0
C1223 C 0.77397 0.86898 0.67356 0.0
C1224 C 0.79194 0.85405 0.69078 0.0
C1225 C 0.78508 0.81929 0.68295 0.0
C1226 C 0.7329 0.8653 0.62722 0.0
C1227 C 0.81566 0.87321 0.71934 0.0
C1228 C 0.78642 0.96257 0.68177 0.0
C1229 C 0.75585 0.95509 0.69999 0.0
C1230 C 0.7947 0.93541 0.67498 0.0
C1231 C 0.77191 0.90016 0.68675 0.0
C1232 C 0.74303 0.89345 0.70759 0.0
C1233 C 0.73543 0.92096 0.71394 0.0
C1234 C 0.82604 0.94381 0.65309 0.0
C1235 C 0.7181 0.85636 0.72095 0.0
H1236 H 0.72758 0.80076 0.62004 0.0
H1237 H 0.79649 0.80666 0.69773 0.0
H1238 H 0.71093 0.8644 0.64209 0.0
H1239 H 0.75144 0.89377 0.62069 0.0
H1240 H 0.72096 0.84978 0.60469 0.0
H1241 H 0.8337 0.86242 0.72531 0.0
H1242 H 0.83223 0.90248 0.71467 0.0
H1243 H 0.79859 0.86955 0.74077 0.0
H1244 H 0.80247 0.9889 0.67098 0.0
H1245 H 0.71214 0.91506 0.72848 0.0
H1246 H 0.81598 0.93433 0.62826 0.0
H1247 H 0.84037 0.92975 0.66128 0.0
H1248 H 0.84541 0.97314 0.65199 0.0
H1249 H 0.70177 0.83826 0.701 0.0
H1250 H 0.6995 0.85654 0.73953 0.0
H1251 H 0.73371 0.84485 0.73187 0.0
C1252 C 0.82195 0.78209 0.01122 0.0
C1253 C 0.79785 0.74814 0.02409 0.0
C1254 C 0.85797 0.79199 0.0048 0.0
C1255 C 0.87005 0.76745 0.01165 0.0
C1256 C 0.84642 0.73421 0.02663 0.0
C1257 C 0.81075 0.725 0.0325 0.0
C1258 C 0.8823 0.82766 0.98887 0.0
C1259 C 0.85808 0.70719 0.03465 0.0
C1260 C 0.93659 0.75332 0.96425 0.0
C1261 C 0.96412 0.76344 0.98699 0.0
C1262 C 0.90746 0.75858 0.97034 0.0
C1263 C 0.90565 0.77382 1.00016 0.0
C1264 C 0.93542 0.78779 0.02153 0.0
C1265 C 0.96453 0.78251 0.0146 0.0
C1266 C 0.87669 0.74384 0.94655 0.0
C1267 C 0.93476 0.80449 0.05341 0.0
H1268 H 0.81229 0.80018 0.00458 0.0
H1269 H 0.79259 0.69885 0.04262 0.0
H1270 H 0.90964 0.84058 0.99955 0.0
H1271 H 0.88491 0.82331 0.96279 0.0
H1272 H 0.87154 0.84631 0.99104 0.0
H1273 H 0.83743 0.68403 0.04876 0.0
H1274 H 0.8633 0.69674 0.01197 0.0
H1275 H 0.88343 0.72013 0.04876 0.0
H1276 H 0.93649 0.73881 0.94277 0.0
H1277 H 0.98573 0.79013 0.03231 0.0
H1278 H 0.8663 0.76266 0.9435 0.0
H1279 H 0.85436 0.7181 0.9559 0.0
H1280 H 0.88476 0.7387 0.92249 0.0
H1281 H 0.92232 0.82159 0.05076 0.0
H1282 H 0.96222 0.82092 0.06359 0.0
H1283 H 0.91834 0.78288 0.07097 0.0
C1284 C 0.34378 0.00252 0.43961 0.0
C1285 C 0.3313 0.02368 0.4249 0.0
C1286 C 0.344 0.99942 0.47343 0.0
C1287 C 0.33116 0.01766 0.493 0.0
C1288 C 0.31973 0.04004 0.47838 0.0
C1289 C 0.3201 0.04292 0.44458 0.0
C1290 C 0.35671 0.97557 0.48816 0.0
C1291 C 0.30557 0.05973 0.49836 0.0
C1292 C 0.28949 0.97757 0.57428 0.0
C1293 C 0.31637 1.00045 0.59601 0.0
C1294 C 0.29425 0.98264 0.54077 0.0
C1295 C 0.32684 0.01113 0.5285 0.0
C1296 C 0.35442 0.03391 0.55015 0.0
C1297 C 0.34882 0.02841 0.58367 0.0
C1298 C 0.26402 0.9579 0.51852 0.0
C1299 C 0.38964 0.06437 0.5379 0.0
H1300 H 0.35265 0.98767 0.42471 0.0
H1301 H 0.31052 0.05947 0.43359 0.0
H1302 H 0.37662 0.99012 0.50755 0.0
H1303 H 0.33365 0.95178 0.49943 0.0
H1304 H 0.36909 0.96607 0.46993 0.0
H1305 H 0.29987 0.07782 0.48346 0.0
H1306 H 0.28039 0.04002 0.5107 0.0
H1307 H 0.3252 0.07591 0.51742 0.0
H1308 H 0.26429 0.95586 0.58339 0.0
H1309 H 0.36981 0.04619 0.60018 0.0
H1310 H 0.27364 0.94489 0.50114 0.0
H1311 H 0.25483 0.97365 0.50419 0.0
H1312 H 0.24064 0.93661 0.53192 0.0
H1313 H 0.402 0.05407 0.52048 0.0
H1314 H 0.40904 0.07853 0.55778 0.0
H1315 H 0.38484 0.0841 0.52476 0.0
C1316 C 0.31963 0.27436 0.90005 0.0
C1317 C 0.32265 0.30193 0.92041 0.0
C1318 C 0.32001 0.27767 0.86631 0.0
C1319 C 0.32368 0.3094 0.85238 0.0
C1320 C 0.32798 0.33786 0.87265 0.0
C1321 C 0.3273 0.33376 0.90644 0.0
C1322 C 0.31505 0.24655 0.84559 0.0
C1323 C 0.33214 0.37218 0.85866 0.0
C1324 C 0.34501 0.32338 0.76226 0.0
C1325 C 0.31069 0.31074 0.74896 0.0
C1326 C 0.34989 0.32393 0.79596 0.0
C1327 C 0.31973 0.31128 0.81676 0.0
C1328 C 0.28514 0.29872 0.80348 0.0
C1329 C 0.28107 0.29871 0.76988 0.0
C1330 C 0.38721 0.33772 0.80932 0.0
C1331 C 0.25219 0.28465 0.82474 0.0
H1332 H 0.31614 0.24965 0.91041 0.0
H1333 H 0.32984 0.3553 0.92187 0.0
H1334 H 0.28922 0.23529 0.83228 0.0
H1335 H 0.3368 0.25584 0.82731 0.0
H1336 H 0.3149 0.22471 0.8601 0.0
H1337 H 0.33846 0.39294 0.87749 0.0
H1338 H 0.35379 0.38324 0.84019 0.0
H1339 H 0.30688 0.36651 0.84636 0.0
H1340 H 0.36808 0.33291 0.74638 0.0
H1341 H 0.25438 0.28883 0.76003 0.0
H1342 H 0.38851 0.31583 0.82235 0.0
H1343 H 0.39368 0.35948 0.82707 0.0
H1344 H 0.40804 0.34817 0.79005 0.0
H1345 H 0.24868 0.26101 0.83865 0.0
H1346 H 0.2273 0.27657 0.81061 0.0
H1347 H 0.25556 0.30544 0.84252 0.0
C1348 C 0.99411 0.33282 0.24154 0.0
C1349 C 0.01597 0.32199 0.25753 0.0
C1350 C 0.99301 0.33367 0.2076 0.0
C1351 C 0.01434 0.32356 0.18919 0.0
C1352 C 0.03714 0.31351 0.20514 0.0
C1353 C 0.0376 0.31275 0.23904 0.0
C1354 C 0.96822 0.34435 0.19145 0.0
C1355 C 0.06031 0.30256 0.18638 0.0
C1356 C 0.98329 0.28521 0.10515 0.0
C1357 C 0.00582 0.31438 0.08519 0.0
C1358 C 0.98549 0.28811 0.13892 0.0
C1359 C 0.01097 0.32094 0.15332 0.0
C1360 C 0.03367 0.35062 0.13348 0.0
C1361 C 0.03081 0.34702 0.09963 0.0
C1362 C 0.96074 0.25581 0.15919 0.0
C1363 C 0.06126 0.38601 0.14802 0.0
H1364 H 0.97727 0.34001 0.2555 0.0
H1365 H 0.05462 0.30434 0.25101 0.0
H1366 H 0.98332 0.36612 0.17365 0.0
H1367 H 0.94699 0.3211 0.17794 0.0
H1368 H 0.95509 0.35361 0.20912 0.0
H1369 H 0.07829 0.29776 0.20237 0.0
H1370 H 0.043 0.27757 0.17265 0.0
H1371 H 0.07706 0.32364 0.16854 0.0
H1372 H 0.96391 0.2598 0.09443 0.0
H1373 H 0.04838 0.36971 0.08451 0.0
H1374 H 0.94501 0.26277 0.17601 0.0
H1375 H 0.97679 0.24751 0.17415 0.0
H1376 H 0.94171 0.23254 0.14423 0.0
H1377 H 0.04798 0.39612 0.16459 0.0
H1378 H 0.07627 0.40676 0.12931 0.0
H1379 H 0.08076 0.38218 0.16262 0.0
C1380 C 0.66905 0.99961 0.44349 0.0
C1381 C 0.67997 0.97722 0.42865 0.0
C1382 C 0.66933 0.00294 0.47729 0.0
C1383 C 0.68094 0.98357 0.49676 0.0
C1384 C 0.69092 0.96011 0.48204 0.0
C1385 C 0.69024 0.95715 0.44821 0.0
C1386 C 0.65834 0.02812 0.49211 0.0
C1387 C 0.70363 0.93912 0.50194 0.0
C1388 C 0.72278 0.02298 0.57814 0.0
C1389 C 0.69494 1.00159 0.59977 0.0
C1390 C 0.71841 0.01746 0.54466 0.0
C1391 C 0.68533 0.98992 0.53228 0.0
C1392 C 0.65696 0.96837 0.55382 0.0
C1393 C 0.66211 0.9744 0.58732 0.0
C1394 C 0.7494 0.04095 0.52254 0.0
C1395 C 0.62127 0.93883 0.54145 0.0
H1396 H 0.66094 0.01516 0.42869 0.0
H1397 H 0.69864 0.93969 0.43712 0.0
H1398 H 0.63785 0.0141 0.51122 0.0
H1399 H 0.68196 0.05098 0.50377 0.0
H1400 H 0.64726 0.03899 0.47388 0.0
H1401 H 0.70818 0.92028 0.48698 0.0
H1402 H 0.72918 0.95794 0.51427 0.0
H1403 H 0.68369 0.92356 0.52103 0.0
H1404 H 0.74831 0.04403 0.58733 0.0
H1405 H 0.64042 0.95769 0.60374 0.0
H1406 H 0.74111 0.05504 0.50507 0.0
H1407 H 0.75733 0.02412 0.5083 0.0
H1408 H 0.7733 0.06136 0.53603 0.0
H1409 H 0.60958 0.95005 0.52428 0.0
H1410 H 0.60169 0.92492 0.56129 0.0
H1411 H 0.62519 0.91871 0.528 0.0
C1412 C 0.69711 0.72363 0.90641 0.0
C1413 C 0.68697 0.69352 0.9263 0.0
C1414 C 0.69707 0.72093 0.87262 0.0
C1415 C 0.68641 0.68726 0.85811 0.0
C1416 C 0.67541 0.65657 0.8779 0.0
C1417 C 0.67593 0.66007 0.91176 0.0
C1418 C 0.7093 0.7544 0.85245 0.0
C1419 C 0.66371 0.62018 0.86329 0.0
C1420 C 0.66399 0.6797 0.76827 0.0
C1421 C 0.6964 0.68597 0.75425 0.0
C1422 C 0.6599 0.67895 0.80209 0.0
C1423 C 0.68897 0.68486 0.82234 0.0
C1424 C 0.72148 0.6906 0.80835 0.0
C1425 C 0.72475 0.69096 0.7746 0.0
C1426 C 0.62474 0.67255 0.81615 0.0
C1427 C 0.75325 0.69733 0.82903 0.0
H1428 H 0.70568 0.74965 0.91721 0.0
H1429 H 0.66787 0.63661 0.92681 0.0
H1430 H 0.73377 0.7602 0.83862 0.0
H1431 H 0.68827 0.75021 0.83462 0.0
H1432 H 0.71547 0.77827 0.86741 0.0
H1433 H 0.65386 0.59861 0.88184 0.0
H1434 H 0.64205 0.61333 0.84533 0.0
H1435 H 0.68659 0.6208 0.85025 0.0
H1436 H 0.64187 0.67566 0.75286 0.0
H1437 H 0.74995 0.6958 0.76422 0.0
H1438 H 0.62906 0.69682 0.82943 0.0
H1439 H 0.61431 0.65011 0.83381 0.0
H1440 H 0.60402 0.66614 0.79725 0.0
H1441 H 0.76254 0.72235 0.84322 0.0
H1442 H 0.77617 0.69998 0.81441 0.0
H1443 H 0.74529 0.67506 0.84656 0.0
C1444 C 0.96256 0.69119 0.23581 0.0
C1445 C 0.98269 0.68064 0.25498 0.0
C1446 C 0.96384 0.69035 0.20193 0.0
C1447 C 0.98562 0.67852 0.18675 0.0
C1448 C 0.00461 0.66618 0.20587 0.0
C1449 C 1.00298 0.66744 0.23974 0.0
C1450 C 0.94328 0.70388 0.18242 0.0
C1451 C 0.02801 0.65321 0.19058 0.0
C1452 C 0.97427 0.66 0.09611 0.0
C1453 C 1.00223 0.69231 0.08356 0.0
C1454 C 0.96871 0.65482 0.12969 0.0
C1455 C 0.99148 0.68267 0.15115 0.0
C1456 C 0.0198 0.71519 0.13863 0.0
C1457 C 0.02487 0.71955 0.10513 0.0
C1458 C 0.93838 0.6197 0.14222 0.0
C1459 C 0.0446 0.74566 0.16064 0.0
H1460 H 0.94661 0.70124 0.24723 0.0
H1461 H 0.0185 0.65902 0.25423 0.0
H1462 H 0.96248 0.72923 0.17 0.0
H1463 H 0.92706 0.68416 0.16344 0.0
H1464 H 0.92512 0.70912 0.19772 0.0
H1465 H 0.03785 0.64089 0.20855 0.0
H1466 H 0.013 0.63322 0.17138 0.0
H1467 H 0.05162 0.67616 0.17897 0.0
H1468 H 0.95665 0.63876 0.07973 0.0
H1469 H 0.04657 0.74468 0.09588 0.0
H1470 H 0.91906 0.62461 0.15598 0.0
H1471 H 0.949 0.60722 0.15915 0.0
H1472 H 0.92367 0.60038 0.12243 0.0
H1473 H 0.02883 0.7546 0.17526 0.0
H1474 H 0.0655 0.76914 0.14703 0.0
H1475 H 0.05816 0.7364 0.17776 0.0
loop_
_geom_bond_atom_site_label_1
_geom_bond_atom_site_label_2
_geom_bond_distance
_geom_bond_site_symmetry_2
_ccdc_geom_bond_type
Co0 O2 2.143 1_565 S
Co0 O8 2.074 . S
Co0 O11 2.093 1_565 S
Co0 O24 2.097 1_565 S
Co0 N41 2.151 . S
Co0 N49 2.214 . S
Co1 O2 2.160 . S
Co1 O7 2.058 . S
Co1 O17 2.057 . S
Co1 O32 2.037 . S
Co1 N36 2.145 . S
Co1 N57 2.257 . S
O2 Co0 2.143 1_545 S
O2 Co1 2.160 . S
C3 O4 1.278 . S
C3 O11 1.224 . S
O4 C3 1.278 . S
C5 O6 1.245 . S
C5 O17 1.232 . S
O6 C5 1.245 . S
O7 Co1 2.058 . S
O7 C33 1.269 1_545 S
O8 Co0 2.074 . S
O8 C33 1.257 . S
H9 C34 0.930 . S
H10 C40 0.930 . S
O11 Co0 2.093 1_545 S
O11 C3 1.224 . S
H12 C44 0.929 . S
H13 C46 0.930 . S
H14 C47 0.930 . S
H15 C45 0.929 . S
H16 C48 0.928 . S
O17 Co1 2.057 . S
O17 C5 1.232 . S
H18 C37 0.929 . S
H19 C38 0.929 . S
H20 C50 0.931 . S
H21 C42 0.929 . S
H22 C51 0.930 . S
H23 C43 0.931 . S
O24 Co0 2.097 1_545 S
O24 C52 1.214 . S
H25 C53 0.929 . S
H26 C54 0.929 . S
H27 C55 0.930 . S
H28 C56 0.929 . S
H29 C58 0.930 . S
H30 C35 0.930 . S
H31 C39 0.930 . S
O32 Co1 2.037 . S
O32 C52 1.234 . S
C33 O7 1.269 1_565 S
C33 O8 1.257 . S
C34 H9 0.930 . S
C34 C37 1.388 . S
C34 C39 1.418 . S
C35 H30 0.930 . S
C35 C38 1.404 . S
C35 C39 1.353 . S
N36 Co1 2.145 . S
N36 C37 1.397 . S
N36 C38 1.334 . S
C37 H18 0.929 . S
C37 C34 1.388 . S
C37 N36 1.397 . S
C38 H19 0.929 . S
C38 C35 1.404 . S
C38 N36 1.334 . S
C39 H31 0.930 . S
C39 C34 1.418 . S
C39 C35 1.353 . S
C40 H10 0.930 . S
C40 N41 1.330 . S
C40 C42 1.446 . S
N41 Co0 2.151 . S
N41 C40 1.330 . S
N41 C45 1.418 . S
C42 H21 0.929 . S
C42 C40 1.446 . S
C42 C43 1.332 . S
C43 H23 0.931 . S
C43 C42 1.332 . S
C43 C44 1.267 . S
C44 H12 0.929 . S
C44 C43 1.267 . S
C44 C45 1.251 . S
C45 H15 0.929 . S
C45 N41 1.418 . S
C45 C44 1.251 . S
C46 H13 0.930 . S
C46 C48 1.406 . S
C46 C51 1.261 . S
C47 H14 0.930 . S
C47 N49 1.325 . S
C47 C50 1.357 . S
C48 H16 0.928 . S
C48 C46 1.406 . S
C48 N49 1.261 . S
N49 Co0 2.214 . S
N49 C47 1.325 . S
N49 C48 1.261 . S
C50 H20 0.931 . S
C50 C47 1.357 . S
C50 C51 1.312 . S
C51 H22 0.930 . S
C51 C46 1.261 . S
C51 C50 1.312 . S
C52 O24 1.214 . S
C52 O32 1.234 . S
C53 H25 0.929 . S
C53 C56 1.391 . S
C53 C58 1.391 . S
C54 H26 0.929 . S
C54 C55 1.390 . S
C54 N57 1.391 . S
C55 H27 0.930 . S
C55 C54 1.390 . S
C55 C56 1.392 . S
C56 H28 0.929 . S
C56 C53 1.391 . S
C56 C55 1.392 . S
N57 Co1 2.257 . S
N57 C54 1.391 . S
N57 C58 1.388 . S
C58 H29 0.930 . S
C58 C53 1.391 . S
C58 N57 1.388 . S
Co59 O61 2.143 . S
Co59 O67 2.074 . S
Co59 O70 2.093 . S
Co59 O83 2.097 . S
Co59 N100 2.151 . S
Co59 N108 2.214 . S
Co60 O61 2.160 . S
Co60 O66 2.058 . S
Co60 O76 2.057 . S
Co60 O91 2.037 . S
Co60 N95 2.145 . S
Co60 N116 2.257 . S
O61 Co59 2.143 . S
O61 Co60 2.160 . S
C62 O63 1.278 . S
C62 O70 1.224 . S
O63 C62 1.278 . S
C64 O65 1.245 . S
C64 O76 1.232 . S
O65 C64 1.245 . S
O66 Co60 2.058 . S
O66 C92 1.269 . S
O67 Co59 2.074 . S
O67 C92 1.257 . S
H68 C93 0.930 . S
H69 C99 0.930 . S
O70 Co59 2.093 . S
O70 C62 1.224 . S
H71 C103 0.929 . S
H72 C105 0.930 . S
H73 C106 0.930 . S
H74 C104 0.929 . S
H75 C107 0.928 . S
O76 Co60 2.057 . S
O76 C64 1.232 . S
H77 C96 0.929 . S
H78 C97 0.929 . S
H79 C109 0.931 . S
H80 C101 0.929 . S
H81 C110 0.930 . S
H82 C102 0.931 . S
O83 Co59 2.097 . S
O83 C111 1.214 . S
H84 C112 0.929 . S
H85 C113 0.929 . S
H86 C114 0.930 . S
H87 C115 0.929 . S
H88 C117 0.930 . S
H89 C94 0.930 . S
H90 C98 0.930 . S
O91 Co60 2.037 . S
O91 C111 1.234 . S
C92 O66 1.269 . S
C92 O67 1.257 . S
C93 H68 0.930 . S
C93 C96 1.388 . S
C93 C98 1.418 . S
C94 H89 0.930 . S
C94 C97 1.404 . S
C94 C98 1.353 . S
N95 Co60 2.145 . S
N95 C96 1.397 . S
N95 C97 1.334 . S
C96 H77 0.929 . S
C96 C93 1.388 . S
C96 N95 1.397 . S
C97 H78 0.929 . S
C97 C94 1.404 . S
C97 N95 1.334 . S
C98 H90 0.930 . S
C98 C93 1.418 . S
C98 C94 1.353 . S
C99 H69 0.930 . S
C99 N100 1.330 . S
C99 C101 1.446 . S
N100 Co59 2.151 . S
N100 C99 1.330 . S
N100 C104 1.418 . S
C101 H80 0.929 . S
C101 C99 1.446 . S
C101 C102 1.332 . S
C102 H82 0.931 . S
C102 C101 1.332 . S
C102 C103 1.267 . S
C103 H71 0.929 . S
C103 C102 1.267 . S
C103 C104 1.251 . S
C104 H74 0.929 . S
C104 N100 1.418 . S
C104 C103 1.251 . S
C105 H72 0.930 . S
C105 C107 1.406 . S
C105 C110 1.261 . S
C106 H73 0.930 . S
C106 N108 1.325 . S
C106 C109 1.357 . S
C107 H75 0.928 . S
C107 C105 1.406 . S
C107 N108 1.261 . S
N108 Co59 2.214 . S
N108 C106 1.325 . S
N108 C107 1.261 . S
C109 H79 0.931 . S
C109 C106 1.357 . S
C109 C110 1.312 . S
C110 H81 0.930 . S
C110 C105 1.261 . S
C110 C109 1.312 . S
C111 O83 1.214 . S
C111 O91 1.234 . S
C112 H84 0.929 . S
C112 C115 1.391 . S
C112 C117 1.391 . S
C113 H85 0.929 . S
C113 C114 1.390 . S
C113 N116 1.391 . S
C114 H86 0.930 . S
C114 C113 1.390 . S
C114 C115 1.392 . S
C115 H87 0.929 . S
C115 C112 1.391 . S
C115 C114 1.392 . S
N116 Co60 2.257 . S
N116 C113 1.391 . S
N116 C117 1.388 . S
C117 H88 0.930 . S
C117 C112 1.391 . S
C117 N116 1.388 . S
Co118 O120 2.143 1_454 S
Co118 O126 2.074 . S
Co118 O129 2.093 1_455 S
Co118 O142 2.097 1_455 S
Co118 N159 2.151 1_554 S
Co118 N167 2.214 . S
Co119 O120 2.167 . S
Co119 O125 2.064 . S
Co119 O135 2.075 . S
Co119 O150 2.018 1_556 S
Co119 N154 2.138 1_556 S
Co119 N175 2.252 1_556 S
O120 Co118 2.143 1_656 S
O120 Co119 2.167 . S
C121 O122 1.278 . S
C121 O129 1.224 1_556 S
O122 C121 1.278 . S
C123 O124 1.245 . S
C123 O135 1.232 . S
O124 C123 1.245 . S
O125 Co119 2.064 . S
O125 C151 1.269 1_655 S
O126 Co118 2.074 . S
O126 C151 1.257 1_554 S
H127 C152 0.930 . S
H128 C158 0.930 . S
O129 Co118 2.093 1_655 S
O129 C121 1.224 1_554 S
H130 C162 0.929 . S
H131 C164 0.930 . S
H132 C165 0.930 . S
H133 C163 0.929 . S
H134 C166 0.928 . S
O135 Co119 2.075 . S
O135 C123 1.232 . S
H136 C155 0.929 . S
H137 C156 0.938 . S
H138 C168 0.931 . S
H139 C160 0.929 . S
H140 C169 0.930 . S
H141 C161 0.931 . S
O142 Co118 2.097 1_655 S
O142 C170 1.214 . S
H143 C171 0.929 1_556 S
H144 C172 0.929 . S
H145 C173 0.930 . S
H146 C174 0.929 . S
H147 C176 0.930 . S
H148 C153 0.930 1_556 S
H149 C157 0.930 . S
O150 Co119 2.018 1_554 S
O150 C170 1.234 . S
C151 O125 1.269 1_455 S
C151 O126 1.257 1_556 S
C152 H127 0.930 . S
C152 C155 1.388 . S
C152 C157 1.418 . S
C153 H148 0.930 1_554 S
C153 C156 1.400 1_554 S
C153 C157 1.353 . S
N154 Co119 2.138 1_554 S
N154 C155 1.397 . S
N154 C156 1.329 1_554 S
C155 H136 0.929 . S
C155 C152 1.388 . S
C155 N154 1.397 . S
C156 H137 0.938 . S
C156 C153 1.400 1_556 S
C156 N154 1.329 1_556 S
C157 H149 0.930 . S
C157 C152 1.418 . S
C157 C153 1.353 . S
C158 H128 0.930 . S
C158 N159 1.330 . S
C158 C160 1.446 . S
N159 Co118 2.151 1_556 S
N159 C158 1.330 . S
N159 C163 1.418 . S
C160 H139 0.929 . S
C160 C158 1.446 . S
C160 C161 1.332 . S
C161 H141 0.931 . S
C161 C160 1.332 . S
C161 C162 1.267 . S
C162 H130 0.929 . S
C162 C161 1.267 . S
C162 C163 1.251 . S
C163 H133 0.929 . S
C163 N159 1.418 . S
C163 C162 1.251 . S
C164 H131 0.930 . S
C164 C166 1.406 . S
C164 C169 1.261 . S
C165 H132 0.930 . S
C165 N167 1.325 . S
C165 C168 1.357 . S
C166 H134 0.928 . S
C166 C164 1.406 . S
C166 N167 1.261 . S
N167 Co118 2.214 . S
N167 C165 1.325 . S
N167 C166 1.261 . S
C168 H138 0.931 . S
C168 C165 1.357 . S
C168 C169 1.312 . S
C169 H140 0.930 . S
C169 C164 1.261 . S
C169 C168 1.312 . S
C170 O142 1.214 . S
C170 O150 1.234 . S
C171 H143 0.929 1_554 S
C171 C174 1.391 . S
C171 C176 1.391 1_554 S
C172 H144 0.929 . S
C172 C173 1.390 . S
C172 N175 1.391 . S
C173 H145 0.930 . S
C173 C172 1.390 . S
C173 C174 1.392 . S
C174 H146 0.929 . S
C174 C171 1.391 . S
C174 C173 1.392 . S
N175 Co119 2.252 1_554 S
N175 C172 1.391 . S
N175 C176 1.388 1_554 S
C176 H147 0.930 . S
C176 C171 1.391 1_556 S
C176 N175 1.388 1_556 S
Co177 O179 2.143 1_545 S
Co177 O185 2.074 . S
Co177 O188 2.093 1_545 S
Co177 O201 2.097 1_545 S
Co177 N218 2.151 . S
Co177 N226 2.214 . S
Co178 O179 2.160 . S
Co178 O184 2.058 . S
Co178 O194 2.057 . S
Co178 O209 2.037 . S
Co178 N213 2.145 . S
Co178 N234 2.257 . S
O179 Co177 2.143 1_565 S
O179 Co178 2.160 . S
C180 O181 1.278 . S
C180 O188 1.224 . S
O181 C180 1.278 . S
C182 O183 1.245 . S
C182 O194 1.232 . S
O183 C182 1.245 . S
O184 Co178 2.058 . S
O184 C210 1.269 1_565 S
O185 Co177 2.074 . S
O185 C210 1.257 . S
H186 C211 0.930 . S
H187 C217 0.930 . S
O188 Co177 2.093 1_565 S
O188 C180 1.224 . S
H189 C221 0.929 . S
H190 C223 0.930 . S
H191 C224 0.930 . S
H192 C222 0.929 . S
H193 C225 0.928 . S
O194 Co178 2.057 . S
O194 C182 1.232 . S
H195 C214 0.929 . S
H196 C215 0.929 . S
H197 C227 0.931 . S
H198 C219 0.929 . S
H199 C228 0.930 . S
H200 C220 0.931 . S
O201 Co177 2.097 1_565 S
O201 C229 1.214 . S
H202 C230 0.929 . S
H203 C231 0.929 . S
H204 C232 0.930 . S
H205 C233 0.929 . S
H206 C235 0.930 . S
H207 C212 0.930 . S
H208 C216 0.930 . S
O209 Co178 2.037 . S
O209 C229 1.234 . S
C210 O184 1.269 1_545 S
C210 O185 1.257 . S
C211 H186 0.930 . S
C211 C214 1.388 . S
C211 C216 1.418 . S
C212 H207 0.930 . S
C212 C215 1.404 . S
C212 C216 1.353 . S
N213 Co178 2.145 . S
N213 C214 1.397 . S
N213 C215 1.334 . S
C214 H195 0.929 . S
C214 C211 1.388 . S
C214 N213 1.397 . S
C215 H196 0.929 . S
C215 C212 1.404 . S
C215 N213 1.334 . S
C216 H208 0.930 . S
C216 C211 1.418 . S
C216 C212 1.353 . S
C217 H187 0.930 . S
C217 N218 1.330 . S
C217 C219 1.446 . S
N218 Co177 2.151 . S
N218 C217 1.330 . S
N218 C222 1.418 . S
C219 H198 0.929 . S
C219 C217 1.446 . S
C219 C220 1.332 . S
C220 H200 0.931 . S
C220 C219 1.332 . S
C220 C221 1.267 . S
C221 H189 0.929 . S
C221 C220 1.267 . S
C221 C222 1.251 . S
C222 H192 0.929 . S
C222 N218 1.418 . S
C222 C221 1.251 . S
C223 H190 0.930 . S
C223 C225 1.406 . S
C223 C228 1.261 . S
C224 H191 0.930 . S
C224 N226 1.325 . S
C224 C227 1.357 . S
C225 H193 0.928 . S
C225 C223 1.406 . S
C225 N226 1.261 . S
N226 Co177 2.214 . S
N226 C224 1.325 . S
N226 C225 1.261 . S
C227 H197 0.931 . S
C227 C224 1.357 . S
C227 C228 1.312 . S
C228 H199 0.930 . S
C228 C223 1.261 . S
C228 C227 1.312 . S
C229 O201 1.214 . S
C229 O209 1.234 . S
C230 H202 0.929 . S
C230 C233 1.391 . S
C230 C235 1.391 . S
C231 H203 0.929 . S
C231 C232 1.390 . S
C231 N234 1.391 . S
C232 H204 0.930 . S
C232 C231 1.390 . S
C232 C233 1.392 . S
C233 H205 0.929 . S
C233 C230 1.391 . S
C233 C232 1.392 . S
N234 Co178 2.257 . S
N234 C231 1.391 . S
N234 C235 1.388 . S
C235 H206 0.930 . S
C235 C230 1.391 . S
C235 N234 1.388 . S
Co236 O238 2.143 . S
Co236 O244 2.074 . S
Co236 O247 2.093 . S
Co236 O260 2.097 . S
Co236 N277 2.151 . S
Co236 N285 2.214 . S
Co237 O238 2.160 . S
Co237 O243 2.058 . S
Co237 O253 2.057 . S
Co237 O268 2.037 . S
Co237 N272 2.145 . S
Co237 N293 2.257 . S
O238 Co236 2.143 . S
O238 Co237 2.160 . S
C239 O240 1.278 . S
C239 O247 1.224 . S
O240 C239 1.278 . S
C241 O242 1.245 . S
C241 O253 1.232 . S
O242 C241 1.245 . S
O243 Co237 2.058 . S
O243 C269 1.269 . S
O244 Co236 2.074 . S
O244 C269 1.257 . S
H245 C270 0.930 . S
H246 C276 0.930 . S
O247 Co236 2.093 . S
O247 C239 1.224 . S
H248 C280 0.929 . S
H249 C282 0.930 . S
H250 C283 0.930 . S
H251 C281 0.929 . S
H252 C284 0.928 . S
O253 Co237 2.057 . S
O253 C241 1.232 . S
H254 C273 0.929 . S
H255 C274 0.929 . S
H256 C286 0.931 . S
H257 C278 0.929 . S
H258 C287 0.930 . S
H259 C279 0.931 . S
O260 Co236 2.097 . S
O260 C288 1.214 . S
H261 C289 0.929 . S
H262 C290 0.929 . S
H263 C291 0.930 . S
H264 C292 0.929 . S
H265 C294 0.930 . S
H266 C271 0.930 . S
H267 C275 0.930 . S
O268 Co237 2.037 . S
O268 C288 1.234 . S
C269 O243 1.269 . S
C269 O244 1.257 . S
C270 H245 0.930 . S
C270 C273 1.388 . S
C270 C275 1.418 . S
C271 H266 0.930 . S
C271 C274 1.404 . S
C271 C275 1.353 . S
N272 Co237 2.145 . S
N272 C273 1.397 . S
N272 C274 1.334 . S
C273 H254 0.929 . S
C273 C270 1.388 . S
C273 N272 1.397 . S
C274 H255 0.929 . S
C274 C271 1.404 . S
C274 N272 1.334 . S
C275 H267 0.930 . S
C275 C270 1.418 . S
C275 C271 1.353 . S
C276 H246 0.930 . S
C276 N277 1.330 . S
C276 C278 1.446 . S
N277 Co236 2.151 . S
N277 C276 1.330 . S
N277 C281 1.418 . S
C278 H257 0.929 . S
C278 C276 1.446 . S
C278 C279 1.332 . S
C279 H259 0.931 . S
C279 C278 1.332 . S
C279 C280 1.267 . S
C280 H248 0.929 . S
C280 C279 1.267 . S
C280 C281 1.251 . S
C281 H251 0.929 . S
C281 N277 1.418 . S
C281 C280 1.251 . S
C282 H249 0.930 . S
C282 C284 1.406 . S
C282 C287 1.261 . S
C283 H250 0.930 . S
C283 N285 1.325 . S
C283 C286 1.357 . S
C284 H252 0.928 . S
C284 C282 1.406 . S
C284 N285 1.261 . S
N285 Co236 2.214 . S
N285 C283 1.325 . S
N285 C284 1.261 . S
C286 H256 0.931 . S
C286 C283 1.357 . S
C286 C287 1.312 . S
C287 H258 0.930 . S
C287 C282 1.261 . S
C287 C286 1.312 . S
C288 O260 1.214 . S
C288 O268 1.234 . S
C289 H261 0.929 . S
C289 C292 1.391 . S
C289 C294 1.391 . S
C290 H262 0.929 . S
C290 C291 1.390 . S
C290 N293 1.391 . S
C291 H263 0.930 . S
C291 C290 1.390 . S
C291 C292 1.392 . S
C292 H264 0.929 . S
C292 C289 1.391 . S
C292 C291 1.392 . S
N293 Co237 2.257 . S
N293 C290 1.391 . S
N293 C294 1.388 . S
C294 H265 0.930 . S
C294 C289 1.391 . S
C294 N293 1.388 . S
Co295 O297 2.143 1_654 S
Co295 O303 2.074 . S
Co295 O306 2.093 1_655 S
Co295 O319 2.097 1_655 S
Co295 N336 2.151 1_554 S
Co295 N344 2.214 . S
Co296 O297 2.167 . S
Co296 O302 2.064 . S
Co296 O312 2.075 . S
Co296 O327 2.018 1_556 S
Co296 N331 2.138 1_556 S
Co296 N352 2.252 1_556 S
O297 Co295 2.143 1_456 S
O297 Co296 2.167 . S
C298 O299 1.278 . S
C298 O306 1.224 1_556 S
O299 C298 1.278 . S
C300 O301 1.245 . S
C300 O312 1.232 . S
O301 C300 1.245 . S
O302 Co296 2.064 . S
O302 C328 1.269 1_455 S
O303 Co295 2.074 . S
O303 C328 1.257 1_554 S
H304 C329 0.930 . S
H305 C335 0.930 . S
O306 Co295 2.093 1_455 S
O306 C298 1.224 1_554 S
H307 C339 0.929 . S
H308 C341 0.930 . S
H309 C342 0.930 . S
H310 C340 0.929 . S
H311 C343 0.928 . S
O312 Co296 2.075 . S
O312 C300 1.232 . S
H313 C332 0.929 . S
H314 C333 0.938 . S
H315 C345 0.931 . S
H316 C337 0.929 . S
H317 C346 0.930 . S
H318 C338 0.931 . S
O319 Co295 2.097 1_455 S
O319 C347 1.214 . S
H320 C348 0.929 1_556 S
H321 C349 0.929 . S
H322 C350 0.930 . S
H323 C351 0.929 . S
H324 C353 0.930 . S
H325 C330 0.930 1_556 S
H326 C334 0.930 . S
O327 Co296 2.018 1_554 S
O327 C347 1.234 . S
C328 O302 1.269 1_655 S
C328 O303 1.257 1_556 S
C329 H304 0.930 . S
C329 C332 1.388 . S
C329 C334 1.418 . S
C330 H325 0.930 1_554 S
C330 C333 1.400 1_554 S
C330 C334 1.353 . S
N331 Co296 2.138 1_554 S
N331 C332 1.397 . S
N331 C333 1.329 1_554 S
C332 H313 0.929 . S
C332 C329 1.388 . S
C332 N331 1.397 . S
C333 H314 0.938 . S
C333 C330 1.400 1_556 S
C333 N331 1.329 1_556 S
C334 H326 0.930 . S
C334 C329 1.418 . S
C334 C330 1.353 . S
C335 H305 0.930 . S
C335 N336 1.330 . S
C335 C337 1.446 . S
N336 Co295 2.151 1_556 S
N336 C335 1.330 . S
N336 C340 1.418 . S
C337 H316 0.929 . S
C337 C335 1.446 . S
C337 C338 1.332 . S
C338 H318 0.931 . S
C338 C337 1.332 . S
C338 C339 1.267 . S
C339 H307 0.929 . S
C339 C338 1.267 . S
C339 C340 1.251 . S
C340 H310 0.929 . S
C340 N336 1.418 . S
C340 C339 1.251 . S
C341 H308 0.930 . S
C341 C343 1.406 . S
C341 C346 1.261 . S
C342 H309 0.930 . S
C342 N344 1.325 . S
C342 C345 1.357 . S
C343 H311 0.928 . S
C343 C341 1.406 . S
C343 N344 1.261 . S
N344 Co295 2.214 . S
N344 C342 1.325 . S
N344 C343 1.261 . S
C345 H315 0.931 . S
C345 C342 1.357 . S
C345 C346 1.312 . S
C346 H317 0.930 . S
C346 C341 1.261 . S
C346 C345 1.312 . S
C347 O319 1.214 . S
C347 O327 1.234 . S
C348 H320 0.929 1_554 S
C348 C351 1.391 . S
C348 C353 1.391 1_554 S
C349 H321 0.929 . S
C349 C350 1.390 . S
C349 N352 1.391 . S
C350 H322 0.930 . S
C350 C349 1.390 . S
C350 C351 1.392 . S
C351 H323 0.929 . S
C351 C348 1.391 . S
C351 C350 1.392 . S
N352 Co296 2.252 1_554 S
N352 C349 1.391 . S
N352 C353 1.388 1_554 S
C353 H324 0.930 . S
C353 C348 1.391 1_556 S
C353 N352 1.388 1_556 S
Co354 O356 2.143 1_455 S
Co354 O362 2.074 . S
Co354 O365 2.093 1_455 S
Co354 O378 2.097 1_455 S
Co354 N395 2.151 . S
Co354 N403 2.214 . S
Co355 O356 2.160 . S
Co355 O361 2.058 . S
Co355 O371 2.057 . S
Co355 O386 2.037 . S
Co355 N390 2.145 . S
Co355 N411 2.257 . S
O356 Co354 2.143 1_655 S
O356 Co355 2.160 . S
C357 O358 1.278 . S
C357 O365 1.224 . S
O358 C357 1.278 . S
C359 O360 1.245 . S
C359 O371 1.232 . S
O360 C359 1.245 . S
O361 Co355 2.058 . S
O361 C387 1.269 1_655 S
O362 Co354 2.074 . S
O362 C387 1.257 . S
H363 C388 0.930 . S
H364 C394 0.930 . S
O365 Co354 2.093 1_655 S
O365 C357 1.224 . S
H366 C398 0.929 . S
H367 C400 0.930 . S
H368 C401 0.930 . S
H369 C399 0.929 . S
H370 C402 0.928 . S
O371 Co355 2.057 . S
O371 C359 1.232 . S
H372 C391 0.929 . S
H373 C392 0.929 . S
H374 C404 0.931 . S
H375 C396 0.929 . S
H376 C405 0.930 . S
H377 C397 0.931 . S
O378 Co354 2.097 1_655 S
O378 C406 1.214 . S
H379 C407 0.929 . S
H380 C408 0.929 . S
H381 C409 0.930 . S
H382 C410 0.929 . S
H383 C412 0.930 . S
H384 C389 0.930 . S
H385 C393 0.930 . S
O386 Co355 2.037 . S
O386 C406 1.234 . S
C387 O361 1.269 1_455 S
C387 O362 1.257 . S
C388 H363 0.930 . S
C388 C391 1.388 . S
C388 C393 1.418 . S
C389 H384 0.930 . S
C389 C392 1.404 . S
C389 C393 1.353 . S
N390 Co355 2.145 . S
N390 C391 1.397 . S
N390 C392 1.334 . S
C391 H372 0.929 . S
C391 C388 1.388 . S
C391 N390 1.397 . S
C392 H373 0.929 . S
C392 C389 1.404 . S
C392 N390 1.334 . S
C393 H385 0.930 . S
C393 C388 1.418 . S
C393 C389 1.353 . S
C394 H364 0.930 . S
C394 N395 1.330 . S
C394 C396 1.446 . S
N395 Co354 2.151 . S
N395 C394 1.330 . S
N395 C399 1.418 . S
C396 H375 0.929 . S
C396 C394 1.446 . S
C396 C397 1.332 . S
C397 H377 0.931 . S
C397 C396 1.332 . S
C397 C398 1.267 . S
C398 H366 0.929 . S
C398 C397 1.267 . S
C398 C399 1.251 . S
C399 H369 0.929 . S
C399 N395 1.418 . S
C399 C398 1.251 . S
C400 H367 0.930 . S
C400 C402 1.406 . S
C400 C405 1.261 . S
C401 H368 0.930 . S
C401 N403 1.325 . S
C401 C404 1.357 . S
C402 H370 0.928 . S
C402 C400 1.406 . S
C402 N403 1.261 . S
N403 Co354 2.214 . S
N403 C401 1.325 . S
N403 C402 1.261 . S
C404 H374 0.931 . S
C404 C401 1.357 . S
C404 C405 1.312 . S
C405 H376 0.930 . S
C405 C400 1.261 . S
C405 C404 1.312 . S
C406 O378 1.214 . S
C406 O386 1.234 . S
C407 H379 0.929 . S
C407 C410 1.391 . S
C407 C412 1.391 . S
C408 H380 0.929 . S
C408 C409 1.390 . S
C408 N411 1.391 . S
C409 H381 0.930 . S
C409 C408 1.390 . S
C409 C410 1.392 . S
C410 H382 0.929 . S
C410 C407 1.391 . S
C410 C409 1.392 . S
N411 Co355 2.257 . S
N411 C408 1.391 . S
N411 C412 1.388 . S
C412 H383 0.930 . S
C412 C407 1.391 . S
C412 N411 1.388 . S
Co413 O415 2.143 1_545 S
Co413 O421 2.074 . S
Co413 O424 2.093 1_545 S
Co413 O437 2.097 1_545 S
Co413 N454 2.151 . S
Co413 N462 2.214 . S
Co414 O415 2.160 . S
Co414 O420 2.058 . S
Co414 O430 2.057 . S
Co414 O445 2.037 . S
Co414 N449 2.145 . S
Co414 N470 2.257 . S
O415 Co413 2.143 1_565 S
O415 Co414 2.160 . S
C416 O417 1.278 . S
C416 O424 1.224 . S
O417 C416 1.278 . S
C418 O419 1.245 . S
C418 O430 1.232 . S
O419 C418 1.245 . S
O420 Co414 2.058 . S
O420 C446 1.269 1_565 S
O421 Co413 2.074 . S
O421 C446 1.257 . S
H422 C447 0.930 . S
H423 C453 0.930 . S
O424 Co413 2.093 1_565 S
O424 C416 1.224 . S
H425 C457 0.929 . S
H426 C459 0.930 . S
H427 C460 0.930 . S
H428 C458 0.929 . S
H429 C461 0.928 . S
O430 Co414 2.057 . S
O430 C418 1.232 . S
H431 C450 0.929 . S
H432 C451 0.929 . S
H433 C463 0.931 . S
H434 C455 0.929 . S
H435 C464 0.930 . S
H436 C456 0.931 . S
O437 Co413 2.097 1_565 S
O437 C465 1.214 . S
H438 C466 0.929 . S
H439 C467 0.929 . S
H440 C468 0.930 . S
H441 C469 0.929 . S
H442 C471 0.930 . S
H443 C448 0.930 . S
H444 C452 0.930 . S
O445 Co414 2.037 . S
O445 C465 1.234 . S
C446 O420 1.269 1_545 S
C446 O421 1.257 . S
C447 H422 0.930 . S
C447 C450 1.388 . S
C447 C452 1.418 . S
C448 H443 0.930 . S
C448 C451 1.404 . S
C448 C452 1.353 . S
N449 Co414 2.145 . S
N449 C450 1.397 . S
N449 C451 1.334 . S
C450 H431 0.929 . S
C450 C447 1.388 . S
C450 N449 1.397 . S
C451 H432 0.929 . S
C451 C448 1.404 . S
C451 N449 1.334 . S
C452 H444 0.930 . S
C452 C447 1.418 . S
C452 C448 1.353 . S
C453 H423 0.930 . S
C453 N454 1.330 . S
C453 C455 1.446 . S
N454 Co413 2.151 . S
N454 C453 1.330 . S
N454 C458 1.418 . S
C455 H434 0.929 . S
C455 C453 1.446 . S
C455 C456 1.332 . S
C456 H436 0.931 . S
C456 C455 1.332 . S
C456 C457 1.267 . S
C457 H425 0.929 . S
C457 C456 1.267 . S
C457 C458 1.251 . S
C458 H428 0.929 . S
C458 N454 1.418 . S
C458 C457 1.251 . S
C459 H426 0.930 . S
C459 C461 1.406 . S
C459 C464 1.261 . S
C460 H427 0.930 . S
C460 N462 1.325 . S
C460 C463 1.357 . S
C461 H429 0.928 . S
C461 C459 1.406 . S
C461 N462 1.261 . S
N462 Co413 2.214 . S
N462 C460 1.325 . S
N462 C461 1.261 . S
C463 H433 0.931 . S
C463 C460 1.357 . S
C463 C464 1.312 . S
C464 H435 0.930 . S
C464 C459 1.261 . S
C464 C463 1.312 . S
C465 O437 1.214 . S
C465 O445 1.234 . S
C466 H438 0.929 . S
C466 C469 1.391 . S
C466 C471 1.391 . S
C467 H439 0.929 . S
C467 C468 1.390 . S
C467 N470 1.391 . S
C468 H440 0.930 . S
C468 C467 1.390 . S
C468 C469 1.392 . S
C469 H441 0.929 . S
C469 C466 1.391 . S
C469 C468 1.392 . S
N470 Co414 2.257 . S
N470 C467 1.391 . S
N470 C471 1.388 . S
C471 H442 0.930 . S
C471 C466 1.391 . S
C471 N470 1.388 . S
Co472 O474 2.143 . S
Co472 O480 2.074 . S
Co472 O483 2.093 . S
Co472 O496 2.097 1_554 S
Co472 N513 2.151 . S
Co472 N521 2.214 1_554 S
Co473 O474 2.160 . S
Co473 O479 2.058 . S
Co473 O489 2.057 . S
Co473 O504 2.037 1_554 S
Co473 N508 2.145 1_554 S
Co473 N529 2.257 1_554 S
O474 Co472 2.143 . S
O474 Co473 2.160 . S
C475 O476 1.278 . S
C475 O483 1.224 . S
O476 C475 1.278 . S
C477 O478 1.245 . S
C477 O489 1.232 . S
O478 C477 1.245 . S
O479 Co473 2.058 . S
O479 C505 1.269 . S
O480 Co472 2.074 . S
O480 C505 1.257 . S
H481 C506 0.930 . S
H482 C512 0.930 . S
O483 Co472 2.093 . S
O483 C475 1.224 . S
H484 C516 0.929 . S
H485 C518 0.930 . S
H486 C519 0.930 . S
H487 C517 0.929 . S
H488 C520 0.928 1_554 S
O489 Co473 2.057 . S
O489 C477 1.232 . S
H490 C509 0.929 . S
H491 C510 0.929 . S
H492 C522 0.931 . S
H493 C514 0.929 . S
H494 C523 0.930 . S
H495 C515 0.931 . S
O496 Co472 2.097 1_556 S
O496 C524 1.214 . S
H497 C525 0.929 . S
H498 C526 0.929 . S
H499 C527 0.930 . S
H500 C528 0.929 . S
H501 C530 0.930 . S
H502 C507 0.939 . S
H503 C511 0.930 . S
O504 Co473 2.037 1_556 S
O504 C524 1.234 . S
C505 O479 1.269 . S
C505 O480 1.257 . S
C506 H481 0.930 . S
C506 C509 1.388 . S
C506 C511 1.418 . S
C507 H502 0.939 . S
C507 C510 1.408 . S
C507 C511 1.339 1_554 S
N508 Co473 2.145 1_556 S
N508 C509 1.397 . S
N508 C510 1.334 1_556 S
C509 H490 0.929 . S
C509 C506 1.388 . S
C509 N508 1.397 . S
C510 H491 0.929 . S
C510 C507 1.408 . S
C510 N508 1.334 1_554 S
C511 H503 0.930 . S
C511 C506 1.418 . S
C511 C507 1.339 1_556 S
C512 H482 0.930 . S
C512 N513 1.330 . S
C512 C514 1.446 . S
N513 Co472 2.151 . S
N513 C512 1.330 . S
N513 C517 1.418 . S
C514 H493 0.929 . S
C514 C512 1.446 . S
C514 C515 1.332 . S
C515 H495 0.931 . S
C515 C514 1.332 . S
C515 C516 1.267 . S
C516 H484 0.929 . S
C516 C515 1.267 . S
C516 C517 1.251 . S
C517 H487 0.929 . S
C517 N513 1.418 . S
C517 C516 1.251 . S
C518 H485 0.930 . S
C518 C520 1.406 . S
C518 C523 1.261 . S
C519 H486 0.930 . S
C519 N521 1.325 . S
C519 C522 1.357 . S
C520 H488 0.928 1_556 S
C520 C518 1.406 . S
C520 N521 1.261 . S
N521 Co472 2.214 1_556 S
N521 C519 1.325 . S
N521 C520 1.261 . S
C522 H492 0.931 . S
C522 C519 1.357 . S
C522 C523 1.312 . S
C523 H494 0.930 . S
C523 C518 1.261 . S
C523 C522 1.312 . S
C524 O496 1.214 . S
C524 O504 1.234 . S
C525 H497 0.929 . S
C525 C528 1.391 1_554 S
C525 C530 1.391 . S
C526 H498 0.929 . S
C526 C527 1.390 . S
C526 N529 1.391 . S
C527 H499 0.930 . S
C527 C526 1.390 . S
C527 C528 1.392 . S
C528 H500 0.929 . S
C528 C525 1.391 1_556 S
C528 C527 1.392 . S
N529 Co473 2.257 1_556 S
N529 C526 1.391 . S
N529 C530 1.388 1_556 S
C530 H501 0.930 . S
C530 C525 1.391 . S
C530 N529 1.388 1_554 S
Co531 O533 2.143 1_655 S
Co531 O539 2.074 . S
Co531 O542 2.093 1_655 S
Co531 O555 2.097 1_655 S
Co531 N572 2.151 . S
Co531 N580 2.214 . S
Co532 O533 2.160 . S
Co532 O538 2.058 . S
Co532 O548 2.057 . S
Co532 O563 2.037 . S
Co532 N567 2.145 . S
Co532 N588 2.257 . S
O533 Co531 2.143 1_455 S
O533 Co532 2.160 . S
C534 O535 1.278 . S
C534 O542 1.224 . S
O535 C534 1.278 . S
C536 O537 1.245 . S
C536 O548 1.232 . S
O537 C536 1.245 . S
O538 Co532 2.058 . S
O538 C564 1.269 1_455 S
O539 Co531 2.074 . S
O539 C564 1.257 . S
H540 C565 0.930 . S
H541 C571 0.930 . S
O542 Co531 2.093 1_455 S
O542 C534 1.224 . S
H543 C575 0.929 . S
H544 C577 0.930 . S
H545 C578 0.930 . S
H546 C576 0.929 . S
H547 C579 0.928 . S
O548 Co532 2.057 . S
O548 C536 1.232 . S
H549 C568 0.929 . S
H550 C569 0.929 . S
H551 C581 0.931 . S
H552 C573 0.929 . S
H553 C582 0.930 . S
H554 C574 0.931 . S
O555 Co531 2.097 1_455 S
O555 C583 1.214 . S
H556 C584 0.929 . S
H557 C585 0.929 . S
H558 C586 0.930 . S
H559 C587 0.929 . S
H560 C589 0.930 . S
H561 C566 0.930 . S
H562 C570 0.930 . S
O563 Co532 2.037 . S
O563 C583 1.234 . S
C564 O538 1.269 1_655 S
C564 O539 1.257 . S
C565 H540 0.930 . S
C565 C568 1.388 . S
C565 C570 1.418 . S
C566 H561 0.930 . S
C566 C569 1.404 . S
C566 C570 1.353 . S
N567 Co532 2.145 . S
N567 C568 1.397 . S
N567 C569 1.334 . S
C568 H549 0.929 . S
C568 C565 1.388 . S
C568 N567 1.397 . S
C569 H550 0.929 . S
C569 C566 1.404 . S
C569 N567 1.334 . S
C570 H562 0.930 . S
C570 C565 1.418 . S
C570 C566 1.353 . S
C571 H541 0.930 . S
C571 N572 1.330 . S
C571 C573 1.446 . S
N572 Co531 2.151 . S
N572 C571 1.330 . S
N572 C576 1.418 . S
C573 H552 0.929 . S
C573 C571 1.446 . S
C573 C574 1.332 . S
C574 H554 0.931 . S
C574 C573 1.332 . S
C574 C575 1.267 . S
C575 H543 0.929 . S
C575 C574 1.267 . S
C575 C576 1.251 . S
C576 H546 0.929 . S
C576 N572 1.418 . S
C576 C575 1.251 . S
C577 H544 0.930 . S
C577 C579 1.406 . S
C577 C582 1.261 . S
C578 H545 0.930 . S
C578 N580 1.325 . S
C578 C581 1.357 . S
C579 H547 0.928 . S
C579 C577 1.406 . S
C579 N580 1.261 . S
N580 Co531 2.214 . S
N580 C578 1.325 . S
N580 C579 1.261 . S
C581 H551 0.931 . S
C581 C578 1.357 . S
C581 C582 1.312 . S
C582 H553 0.930 . S
C582 C577 1.261 . S
C582 C581 1.312 . S
C583 O555 1.214 . S
C583 O563 1.234 . S
C584 H556 0.929 . S
C584 C587 1.391 . S
C584 C589 1.391 . S
C585 H557 0.929 . S
C585 C586 1.390 . S
C585 N588 1.391 . S
C586 H558 0.930 . S
C586 C585 1.390 . S
C586 C587 1.392 . S
C587 H559 0.929 . S
C587 C584 1.391 . S
C587 C586 1.392 . S
N588 Co532 2.257 . S
N588 C585 1.391 . S
N588 C589 1.388 . S
C589 H560 0.930 . S
C589 C584 1.391 . S
C589 N588 1.388 . S
Co590 O592 2.143 1_565 S
Co590 O598 2.074 . S
Co590 O601 2.093 1_565 S
Co590 O614 2.097 1_565 S
Co590 N631 2.151 . S
Co590 N639 2.214 . S
Co591 O592 2.160 . S
Co591 O597 2.058 . S
Co591 O607 2.057 . S
Co591 O622 2.037 . S
Co591 N626 2.145 . S
Co591 N647 2.257 . S
O592 Co590 2.143 1_545 S
O592 Co591 2.160 . S
C593 O594 1.278 . S
C593 O601 1.224 . S
O594 C593 1.278 . S
C595 O596 1.245 . S
C595 O607 1.232 . S
O596 C595 1.245 . S
O597 Co591 2.058 . S
O597 C623 1.269 1_545 S
O598 Co590 2.074 . S
O598 C623 1.257 . S
H599 C624 0.930 . S
H600 C630 0.930 . S
O601 Co590 2.093 1_545 S
O601 C593 1.224 . S
H602 C634 0.929 . S
H603 C636 0.930 . S
H604 C637 0.930 . S
H605 C635 0.929 . S
H606 C638 0.928 . S
O607 Co591 2.057 . S
O607 C595 1.232 . S
H608 C627 0.929 . S
H609 C628 0.929 . S
H610 C640 0.931 . S
H611 C632 0.929 . S
H612 C641 0.930 . S
H613 C633 0.931 . S
O614 Co590 2.097 1_545 S
O614 C642 1.214 . S
H615 C643 0.929 . S
H616 C644 0.929 . S
H617 C645 0.930 . S
H618 C646 0.929 . S
H619 C648 0.930 . S
H620 C625 0.930 . S
H621 C629 0.930 . S
O622 Co591 2.037 . S
O622 C642 1.234 . S
C623 O597 1.269 1_565 S
C623 O598 1.257 . S
C624 H599 0.930 . S
C624 C627 1.388 . S
C624 C629 1.418 . S
C625 H620 0.930 . S
C625 C628 1.404 . S
C625 C629 1.353 . S
N626 Co591 2.145 . S
N626 C627 1.397 . S
N626 C628 1.334 . S
C627 H608 0.929 . S
C627 C624 1.388 . S
C627 N626 1.397 . S
C628 H609 0.929 . S
C628 C625 1.404 . S
C628 N626 1.334 . S
C629 H621 0.930 . S
C629 C624 1.418 . S
C629 C625 1.353 . S
C630 H600 0.930 . S
C630 N631 1.330 . S
C630 C632 1.446 . S
N631 Co590 2.151 . S
N631 C630 1.330 . S
N631 C635 1.418 . S
C632 H611 0.929 . S
C632 C630 1.446 . S
C632 C633 1.332 . S
C633 H613 0.931 . S
C633 C632 1.332 . S
C633 C634 1.267 . S
C634 H602 0.929 . S
C634 C633 1.267 . S
C634 C635 1.251 . S
C635 H605 0.929 . S
C635 N631 1.418 . S
C635 C634 1.251 . S
C636 H603 0.930 . S
C636 C638 1.406 . S
C636 C641 1.261 . S
C637 H604 0.930 . S
C637 N639 1.325 . S
C637 C640 1.357 . S
C638 H606 0.928 . S
C638 C636 1.406 . S
C638 N639 1.261 . S
N639 Co590 2.214 . S
N639 C637 1.325 . S
N639 C638 1.261 . S
C640 H610 0.931 . S
C640 C637 1.357 . S
C640 C641 1.312 . S
C641 H612 0.930 . S
C641 C636 1.261 . S
C641 C640 1.312 . S
C642 O614 1.214 . S
C642 O622 1.234 . S
C643 H615 0.929 . S
C643 C646 1.391 . S
C643 C648 1.391 . S
C644 H616 0.929 . S
C644 C645 1.390 . S
C644 N647 1.391 . S
C645 H617 0.930 . S
C645 C644 1.390 . S
C645 C646 1.392 . S
C646 H618 0.929 . S
C646 C643 1.391 . S
C646 C645 1.392 . S
N647 Co591 2.257 . S
N647 C644 1.391 . S
N647 C648 1.388 . S
C648 H619 0.930 . S
C648 C643 1.391 . S
C648 N647 1.388 . S
Co649 O651 2.143 . S
Co649 O657 2.074 . S
Co649 O660 2.093 . S
Co649 O673 2.097 1_554 S
Co649 N690 2.151 . S
Co649 N698 2.214 1_554 S
Co650 O651 2.160 . S
Co650 O656 2.058 . S
Co650 O666 2.057 . S
Co650 O681 2.037 1_554 S
Co650 N685 2.145 1_554 S
Co650 N706 2.257 1_554 S
O651 Co649 2.143 . S
O651 Co650 2.160 . S
C652 O653 1.278 . S
C652 O660 1.224 . S
O653 C652 1.278 . S
C654 O655 1.245 . S
C654 O666 1.232 . S
O655 C654 1.245 . S
O656 Co650 2.058 . S
O656 C682 1.269 . S
O657 Co649 2.074 . S
O657 C682 1.257 . S
H658 C683 0.930 . S
H659 C689 0.930 . S
O660 Co649 2.093 . S
O660 C652 1.224 . S
H661 C693 0.929 . S
H662 C695 0.930 . S
H663 C696 0.930 . S
H664 C694 0.929 . S
H665 C697 0.928 1_554 S
O666 Co650 2.057 . S
O666 C654 1.232 . S
H667 C686 0.929 . S
H668 C687 0.929 . S
H669 C699 0.931 . S
H670 C691 0.929 . S
H671 C700 0.930 . S
H672 C692 0.931 . S
O673 Co649 2.097 1_556 S
O673 C701 1.214 . S
H674 C702 0.929 . S
H675 C703 0.929 . S
H676 C704 0.930 . S
H677 C705 0.929 . S
H678 C707 0.930 . S
H679 C684 0.939 . S
H680 C688 0.930 . S
O681 Co650 2.037 1_556 S
O681 C701 1.234 . S
C682 O656 1.269 . S
C682 O657 1.257 . S
C683 H658 0.930 . S
C683 C686 1.388 . S
C683 C688 1.418 . S
C684 H679 0.939 . S
C684 C687 1.408 . S
C684 C688 1.339 1_554 S
N685 Co650 2.145 1_556 S
N685 C686 1.397 . S
N685 C687 1.334 1_556 S
C686 H667 0.929 . S
C686 C683 1.388 . S
C686 N685 1.397 . S
C687 H668 0.929 . S
C687 C684 1.408 . S
C687 N685 1.334 1_554 S
C688 H680 0.930 . S
C688 C683 1.418 . S
C688 C684 1.339 1_556 S
C689 H659 0.930 . S
C689 N690 1.330 . S
C689 C691 1.446 . S
N690 Co649 2.151 . S
N690 C689 1.330 . S
N690 C694 1.418 . S
C691 H670 0.929 . S
C691 C689 1.446 . S
C691 C692 1.332 . S
C692 H672 0.931 . S
C692 C691 1.332 . S
C692 C693 1.267 . S
C693 H661 0.929 . S
C693 C692 1.267 . S
C693 C694 1.251 . S
C694 H664 0.929 . S
C694 N690 1.418 . S
C694 C693 1.251 . S
C695 H662 0.930 . S
C695 C697 1.406 . S
C695 C700 1.261 . S
C696 H663 0.930 . S
C696 N698 1.325 . S
C696 C699 1.357 . S
C697 H665 0.928 1_556 S
C697 C695 1.406 . S
C697 N698 1.261 . S
N698 Co649 2.214 1_556 S
N698 C696 1.325 . S
N698 C697 1.261 . S
C699 H669 0.931 . S
C699 C696 1.357 . S
C699 C700 1.312 . S
C700 H671 0.930 . S
C700 C695 1.261 . S
C700 C699 1.312 . S
C701 O673 1.214 . S
C701 O681 1.234 . S
C702 H674 0.929 . S
C702 C705 1.391 1_554 S
C702 C707 1.391 . S
C703 H675 0.929 . S
C703 C704 1.390 . S
C703 N706 1.391 . S
C704 H676 0.930 . S
C704 C703 1.390 . S
C704 C705 1.392 . S
C705 H677 0.929 . S
C705 C702 1.391 1_556 S
C705 C704 1.392 . S
N706 Co650 2.257 1_556 S
N706 C703 1.391 . S
N706 C707 1.388 1_556 S
C707 H678 0.930 . S
C707 C702 1.391 . S
C707 N706 1.388 1_554 S
C708 C709 1.391 . S
C708 C710 1.394 . S
C708 H724 0.931 . S
C709 C708 1.391 . S
C709 C713 1.376 . S
C710 C708 1.394 . S
C710 C711 1.369 . S
C710 C714 1.531 . S
C711 C710 1.369 . S
C711 C712 1.410 . S
C711 C719 1.503 . S
C712 C711 1.410 . S
C712 C713 1.392 . S
C712 C715 1.511 . S
C713 C709 1.376 . S
C713 C712 1.392 . S
C713 H725 0.929 . S
C714 C710 1.531 . S
C714 H726 0.960 . S
C714 H727 0.962 . S
C714 H728 0.960 . S
C715 C712 1.511 . S
C715 H729 0.961 . S
C715 H730 0.961 . S
C715 H731 0.961 . S
C716 C717 1.370 . S
C716 C718 1.363 . S
C716 H732 0.931 . S
C717 C716 1.370 . S
C717 C721 1.408 . S
C718 C716 1.363 . S
C718 C719 1.370 . S
C718 C722 1.524 . S
C719 C711 1.503 . S
C719 C718 1.370 . S
C719 C720 1.403 . S
C720 C719 1.403 . S
C720 C721 1.404 . S
C720 C723 1.539 . S
C721 C717 1.408 . S
C721 C720 1.404 . S
C721 H733 0.930 . S
C722 C718 1.524 . S
C722 H734 0.956 . S
C722 H735 0.961 . S
C722 H736 0.961 . S
C723 C720 1.539 . S
C723 H737 0.958 . S
C723 H738 0.961 . S
C723 H739 0.960 . S
H724 C708 0.931 . S
H725 C713 0.929 . S
H726 C714 0.960 . S
H727 C714 0.962 . S
H728 C714 0.960 . S
H729 C715 0.961 . S
H730 C715 0.961 . S
H731 C715 0.961 . S
H732 C716 0.931 . S
H733 C721 0.930 . S
H734 C722 0.956 . S
H735 C722 0.961 . S
H736 C722 0.961 . S
H737 C723 0.958 . S
H738 C723 0.961 . S
H739 C723 0.960 . S
C740 C741 1.391 . S
C740 C742 1.394 . S
C740 H756 0.931 . S
C741 C740 1.391 . S
C741 C745 1.376 . S
C742 C740 1.394 . S
C742 C743 1.369 . S
C742 C746 1.531 . S
C743 C742 1.369 . S
C743 C744 1.410 . S
C743 C751 1.503 . S
C744 C743 1.410 . S
C744 C745 1.392 . S
C744 C747 1.511 . S
C745 C741 1.376 . S
C745 C744 1.392 . S
C745 H757 0.929 . S
C746 C742 1.531 . S
C746 H758 0.960 . S
C746 H759 0.962 . S
C746 H760 0.960 . S
C747 C744 1.511 . S
C747 H761 0.961 . S
C747 H762 0.961 . S
C747 H763 0.961 . S
C748 C749 1.370 . S
C748 C750 1.363 . S
C748 H764 0.931 . S
C749 C748 1.370 . S
C749 C753 1.408 . S
C750 C748 1.363 . S
C750 C751 1.370 . S
C750 C754 1.524 . S
C751 C743 1.503 . S
C751 C750 1.370 . S
C751 C752 1.403 . S
C752 C751 1.403 . S
C752 C753 1.404 . S
C752 C755 1.539 . S
C753 C749 1.408 . S
C753 C752 1.404 . S
C753 H765 0.930 . S
C754 C750 1.524 . S
C754 H766 0.956 . S
C754 H767 0.961 . S
C754 H768 0.961 . S
C755 C752 1.539 . S
C755 H769 0.958 . S
C755 H770 0.961 . S
C755 H771 0.960 . S
H756 C740 0.931 . S
H757 C745 0.929 . S
H758 C746 0.960 . S
H759 C746 0.962 . S
H760 C746 0.960 . S
H761 C747 0.961 . S
H762 C747 0.961 . S
H763 C747 0.961 . S
H764 C748 0.931 . S
H765 C753 0.930 . S
H766 C754 0.956 . S
H767 C754 0.961 . S
H768 C754 0.961 . S
H769 C755 0.958 . S
H770 C755 0.961 . S
H771 C755 0.960 . S
C772 C773 1.391 . S
C772 C774 1.394 . S
C772 H788 0.931 . S
C773 C772 1.391 . S
C773 C777 1.376 . S
C774 C772 1.394 . S
C774 C775 1.369 . S
C774 C778 1.531 . S
C775 C774 1.369 . S
C775 C776 1.410 . S
C775 C783 1.503 . S
C776 C775 1.410 . S
C776 C777 1.392 . S
C776 C779 1.511 . S
C777 C773 1.376 . S
C777 C776 1.392 . S
C777 H789 0.929 . S
C778 C774 1.531 . S
C778 H790 0.960 . S
C778 H791 0.962 . S
C778 H792 0.960 . S
C779 C776 1.511 . S
C779 H793 0.961 . S
C779 H794 0.961 . S
C779 H795 0.961 . S
C780 C781 1.370 . S
C780 C782 1.363 . S
C780 H796 0.931 . S
C781 C780 1.370 . S
C781 C785 1.408 . S
C782 C780 1.363 . S
C782 C783 1.370 . S
C782 C786 1.524 . S
C783 C775 1.503 . S
C783 C782 1.370 . S
C783 C784 1.403 . S
C784 C783 1.403 . S
C784 C785 1.404 . S
C784 C787 1.539 . S
C785 C781 1.408 . S
C785 C784 1.404 . S
C785 H797 0.930 . S
C786 C782 1.524 . S
C786 H798 0.956 . S
C786 H799 0.961 . S
C786 H800 0.961 . S
C787 C784 1.539 . S
C787 H801 0.958 . S
C787 H802 0.961 . S
C787 H803 0.960 . S
H788 C772 0.931 . S
H789 C777 0.929 . S
H790 C778 0.960 . S
H791 C778 0.962 . S
H792 C778 0.960 . S
H793 C779 0.961 . S
H794 C779 0.961 . S
H795 C779 0.961 . S
H796 C780 0.931 . S
H797 C785 0.930 . S
H798 C786 0.956 . S
H799 C786 0.961 . S
H800 C786 0.961 . S
H801 C787 0.958 . S
H802 C787 0.961 . S
H803 C787 0.960 . S
C804 C805 1.391 . S
C804 C806 1.394 . S
C804 H820 0.931 . S
C805 C804 1.391 . S
C805 C809 1.376 . S
C806 C804 1.394 . S
C806 C807 1.369 . S
C806 C810 1.531 . S
C807 C806 1.369 . S
C807 C808 1.410 . S
C807 C815 1.503 . S
C808 C807 1.410 . S
C808 C809 1.392 . S
C808 C811 1.511 . S
C809 C805 1.376 . S
C809 C808 1.392 . S
C809 H821 0.929 . S
C810 C806 1.531 . S
C810 H822 0.960 . S
C810 H823 0.962 . S
C810 H824 0.960 . S
C811 C808 1.511 . S
C811 H825 0.961 . S
C811 H826 0.961 . S
C811 H827 0.961 . S
C812 C813 1.370 . S
C812 C814 1.363 . S
C812 H828 0.931 . S
C813 C812 1.370 . S
C813 C817 1.408 . S
C814 C812 1.363 . S
C814 C815 1.370 . S
C814 C818 1.524 . S
C815 C807 1.503 . S
C815 C814 1.370 . S
C815 C816 1.403 . S
C816 C815 1.403 . S
C816 C817 1.404 . S
C816 C819 1.539 . S
C817 C813 1.408 . S
C817 C816 1.404 . S
C817 H829 0.930 . S
C818 C814 1.524 . S
C818 H830 0.956 . S
C818 H831 0.961 . S
C818 H832 0.961 . S
C819 C816 1.539 . S
C819 H833 0.958 . S
C819 H834 0.961 . S
C819 H835 0.960 . S
H820 C804 0.931 . S
H821 C809 0.929 . S
H822 C810 0.960 . S
H823 C810 0.962 . S
H824 C810 0.960 . S
H825 C811 0.961 . S
H826 C811 0.961 . S
H827 C811 0.961 . S
H828 C812 0.931 . S
H829 C817 0.930 . S
H830 C818 0.956 . S
H831 C818 0.961 . S
H832 C818 0.961 . S
H833 C819 0.958 . S
H834 C819 0.961 . S
H835 C819 0.960 . S
C836 C837 1.391 . S
C836 C838 1.394 . S
C836 H852 0.931 . S
C837 C836 1.391 . S
C837 C841 1.376 . S
C838 C836 1.394 . S
C838 C839 1.369 . S
C838 C842 1.531 . S
C839 C838 1.369 . S
C839 C840 1.410 . S
C839 C847 1.503 . S
C840 C839 1.410 . S
C840 C841 1.392 . S
C840 C843 1.511 . S
C841 C837 1.376 . S
C841 C840 1.392 . S
C841 H853 0.929 . S
C842 C838 1.531 . S
C842 H854 0.960 . S
C842 H855 0.962 . S
C842 H856 0.960 . S
C843 C840 1.511 . S
C843 H857 0.961 . S
C843 H858 0.961 . S
C843 H859 0.961 . S
C844 C845 1.370 . S
C844 C846 1.363 . S
C844 H860 0.931 . S
C845 C844 1.370 . S
C845 C849 1.408 . S
C846 C844 1.363 . S
C846 C847 1.370 . S
C846 C850 1.524 . S
C847 C839 1.503 . S
C847 C846 1.370 . S
C847 C848 1.403 . S
C848 C847 1.403 . S
C848 C849 1.404 . S
C848 C851 1.539 . S
C849 C845 1.408 . S
C849 C848 1.404 . S
C849 H861 0.930 . S
C850 C846 1.524 . S
C850 H862 0.956 . S
C850 H863 0.961 . S
C850 H864 0.961 . S
C851 C848 1.539 . S
C851 H865 0.958 . S
C851 H866 0.961 . S
C851 H867 0.960 . S
H852 C836 0.931 . S
H853 C841 0.929 . S
H854 C842 0.960 . S
H855 C842 0.962 . S
H856 C842 0.960 . S
H857 C843 0.961 . S
H858 C843 0.961 . S
H859 C843 0.961 . S
H860 C844 0.931 . S
H861 C849 0.930 . S
H862 C850 0.956 . S
H863 C850 0.961 . S
H864 C850 0.961 . S
H865 C851 0.958 . S
H866 C851 0.961 . S
H867 C851 0.960 . S
C868 C869 1.391 . S
C868 C870 1.394 . S
C868 H884 0.931 . S
C869 C868 1.391 . S
C869 C873 1.376 . S
C870 C868 1.394 . S
C870 C871 1.369 . S
C870 C874 1.531 . S
C871 C870 1.369 . S
C871 C872 1.410 . S
C871 C879 1.503 . S
C872 C871 1.410 . S
C872 C873 1.392 . S
C872 C875 1.511 . S
C873 C869 1.376 . S
C873 C872 1.392 . S
C873 H885 0.929 . S
C874 C870 1.531 . S
C874 H886 0.960 . S
C874 H887 0.962 . S
C874 H888 0.960 . S
C875 C872 1.511 . S
C875 H889 0.961 . S
C875 H890 0.961 . S
C875 H891 0.961 . S
C876 C877 1.370 . S
C876 C878 1.363 . S
C876 H892 0.931 . S
C877 C876 1.370 . S
C877 C881 1.408 . S
C878 C876 1.363 . S
C878 C879 1.370 . S
C878 C882 1.524 . S
C879 C871 1.503 . S
C879 C878 1.370 . S
C879 C880 1.403 . S
C880 C879 1.403 . S
C880 C881 1.404 . S
C880 C883 1.539 . S
C881 C877 1.408 . S
C881 C880 1.404 . S
C881 H893 0.930 . S
C882 C878 1.524 . S
C882 H894 0.956 . S
C882 H895 0.961 . S
C882 H896 0.961 . S
C883 C880 1.539 . S
C883 H897 0.958 . S
C883 H898 0.961 . S
C883 H899 0.960 . S
H884 C868 0.931 . S
H885 C873 0.929 . S
H886 C874 0.960 . S
H887 C874 0.962 . S
H888 C874 0.960 . S
H889 C875 0.961 . S
H890 C875 0.961 . S
H891 C875 0.961 . S
H892 C876 0.931 . S
H893 C881 0.930 . S
H894 C882 0.956 . S
H895 C882 0.961 . S
H896 C882 0.961 . S
H897 C883 0.958 . S
H898 C883 0.961 . S
H899 C883 0.960 . S
C900 C901 1.391 1_565 S
C900 C902 1.394 . S
C900 H916 0.931 . S
C901 C900 1.391 1_545 S
C901 C905 1.376 . S
C902 C900 1.394 . S
C902 C903 1.369 1_565 S
C902 C906 1.531 . S
C903 C902 1.369 1_545 S
C903 C904 1.410 . S
C903 C911 1.503 1_545 S
C904 C903 1.410 . S
C904 C905 1.392 . S
C904 C907 1.511 . S
C905 C901 1.376 . S
C905 C904 1.392 . S
C905 H917 0.929 . S
C906 C902 1.531 . S
C906 H918 0.960 . S
C906 H919 0.962 . S
C906 H920 0.960 . S
C907 C904 1.511 . S
C907 H921 0.961 . S
C907 H922 0.961 . S
C907 H923 0.961 . S
C908 C909 1.370 . S
C908 C910 1.363 . S
C908 H924 0.931 . S
C909 C908 1.370 . S
C909 C913 1.408 . S
C910 C908 1.363 . S
C910 C911 1.370 . S
C910 C914 1.524 1_565 S
C911 C903 1.503 1_565 S
C911 C910 1.370 . S
C911 C912 1.403 . S
C912 C911 1.403 . S
C912 C913 1.404 . S
C912 C915 1.539 . S
C913 C909 1.408 . S
C913 C912 1.404 . S
C913 H925 0.930 . S
C914 C910 1.524 1_545 S
C914 H926 0.956 1_545 S
C914 H927 0.961 . S
C914 H928 0.961 . S
C915 C912 1.539 . S
C915 H929 0.958 . S
C915 H930 0.961 . S
C915 H931 0.960 1_565 S
H916 C900 0.931 . S
H917 C905 0.929 . S
H918 C906 0.960 . S
H919 C906 0.962 . S
H920 C906 0.960 . S
H921 C907 0.961 . S
H922 C907 0.961 . S
H923 C907 0.961 . S
H924 C908 0.931 . S
H925 C913 0.930 . S
H926 C914 0.956 1_565 S
H927 C914 0.961 . S
H928 C914 0.961 . S
H929 C915 0.958 . S
H930 C915 0.961 . S
H931 C915 0.960 1_545 S
C932 C933 1.391 . S
C932 C934 1.394 . S
C932 H948 0.931 . S
C933 C932 1.391 . S
C933 C937 1.376 . S
C934 C932 1.394 . S
C934 C935 1.369 . S
C934 C938 1.531 . S
C935 C934 1.369 . S
C935 C936 1.410 . S
C935 C943 1.503 . S
C936 C935 1.410 . S
C936 C937 1.392 . S
C936 C939 1.511 . S
C937 C933 1.376 . S
C937 C936 1.392 . S
C937 H949 0.929 . S
C938 C934 1.531 . S
C938 H950 0.960 . S
C938 H951 0.962 . S
C938 H952 0.960 . S
C939 C936 1.511 . S
C939 H953 0.961 . S
C939 H954 0.961 . S
C939 H955 0.961 . S
C940 C941 1.370 . S
C940 C942 1.363 . S
C940 H956 0.931 . S
C941 C940 1.370 . S
C941 C945 1.408 . S
C942 C940 1.363 . S
C942 C943 1.370 . S
C942 C946 1.524 . S
C943 C935 1.503 . S
C943 C942 1.370 . S
C943 C944 1.403 . S
C944 C943 1.403 . S
C944 C945 1.404 . S
C944 C947 1.539 . S
C945 C941 1.408 . S
C945 C944 1.404 . S
C945 H957 0.930 . S
C946 C942 1.524 . S
C946 H958 0.956 . S
C946 H959 0.961 . S
C946 H960 0.961 . S
C947 C944 1.539 . S
C947 H961 0.958 . S
C947 H962 0.961 . S
C947 H963 0.960 . S
H948 C932 0.931 . S
H949 C937 0.929 . S
H950 C938 0.960 . S
H951 C938 0.962 . S
H952 C938 0.960 . S
H953 C939 0.961 . S
H954 C939 0.961 . S
H955 C939 0.961 . S
H956 C940 0.931 . S
H957 C945 0.930 . S
H958 C946 0.956 . S
H959 C946 0.961 . S
H960 C946 0.961 . S
H961 C947 0.958 . S
H962 C947 0.961 . S
H963 C947 0.960 . S
C964 C965 1.391 . S
C964 C966 1.394 . S
C964 H980 0.931 . S
C965 C964 1.391 . S
C965 C969 1.376 1_556 S
C966 C964 1.394 . S
C966 C967 1.369 . S
C966 C970 1.531 . S
C967 C966 1.369 . S
C967 C968 1.410 1_556 S
C967 C975 1.502 . S
C968 C967 1.410 1_554 S
C968 C969 1.392 . S
C968 C971 1.511 . S
C969 C965 1.376 1_554 S
C969 C968 1.392 . S
C969 H981 0.929 . S
C970 C966 1.531 . S
C970 H982 0.960 . S
C970 H983 0.962 1_455 S
C970 H984 0.960 . S
C971 C968 1.511 . S
C971 H985 0.961 . S
C971 H986 0.961 1_455 S
C971 H987 0.961 . S
C972 C973 1.370 . S
C972 C974 1.363 . S
C972 H988 0.931 . S
C973 C972 1.370 . S
C973 C977 1.408 1_655 S
C974 C972 1.363 . S
C974 C975 1.364 1_655 S
C974 C978 1.524 . S
C975 C967 1.502 . S
C975 C974 1.364 1_455 S
C975 C976 1.410 . S
C976 C975 1.410 . S
C976 C977 1.404 . S
C976 C979 1.539 . S
C977 C973 1.408 1_455 S
C977 C976 1.404 . S
C977 H989 0.930 . S
C978 C974 1.524 . S
C978 H990 0.956 . S
C978 H991 0.961 1_556 S
C978 H992 0.961 . S
C979 C976 1.539 . S
C979 H993 0.958 . S
C979 H994 0.961 1_556 S
C979 H995 0.958 1_556 S
H980 C964 0.931 . S
H981 C969 0.929 . S
H982 C970 0.960 . S
H983 C970 0.962 1_655 S
H984 C970 0.960 . S
H985 C971 0.961 . S
H986 C971 0.961 1_655 S
H987 C971 0.961 . S
H988 C972 0.931 . S
H989 C977 0.930 . S
H990 C978 0.956 . S
H991 C978 0.961 1_554 S
H992 C978 0.961 . S
H993 C979 0.958 . S
H994 C979 0.961 1_554 S
H995 C979 0.958 1_554 S
C996 C997 1.391 . S
C996 C998 1.394 . S
C996 H1012 0.931 . S
C997 C996 1.391 . S
C997 C1001 1.376 1_655 S
C998 C996 1.394 . S
C998 C999 1.369 . S
C998 C1002 1.531 . S
C999 C998 1.369 . S
C999 C1000 1.410 1_655 S
C999 C1007 1.503 1_655 S
C1000 C999 1.410 1_455 S
C1000 C1001 1.392 . S
C1000 C1003 1.511 . S
C1001 C997 1.376 1_455 S
C1001 C1000 1.392 . S
C1001 H1013 0.929 . S
C1002 C998 1.531 . S
C1002 H1014 0.960 . S
C1002 H1015 0.962 . S
C1002 H1016 0.960 . S
C1003 C1000 1.511 . S
C1003 H1017 0.961 . S
C1003 H1018 0.961 . S
C1003 H1019 0.961 . S
C1004 C1005 1.370 . S
C1004 C1006 1.363 . S
C1004 H1020 0.931 . S
C1005 C1004 1.370 . S
C1005 C1009 1.408 . S
C1006 C1004 1.363 . S
C1006 C1007 1.370 . S
C1006 C1010 1.524 . S
C1007 C999 1.503 1_455 S
C1007 C1006 1.370 . S
C1007 C1008 1.403 . S
C1008 C1007 1.403 . S
C1008 C1009 1.404 . S
C1008 C1011 1.539 1_455 S
C1009 C1005 1.408 . S
C1009 C1008 1.404 . S
C1009 H1021 0.930 . S
C1010 C1006 1.524 . S
C1010 H1022 0.956 1_455 S
C1010 H1023 0.961 . S
C1010 H1024 0.961 . S
C1011 C1008 1.539 1_655 S
C1011 H1025 0.958 . S
C1011 H1026 0.961 1_655 S
C1011 H1027 0.960 . S
H1012 C996 0.931 . S
H1013 C1001 0.929 . S
H1014 C1002 0.960 . S
H1015 C1002 0.962 . S
H1016 C1002 0.960 . S
H1017 C1003 0.961 . S
H1018 C1003 0.961 . S
H1019 C1003 0.961 . S
H1020 C1004 0.931 . S
H1021 C1009 0.930 . S
H1022 C1010 0.956 1_655 S
H1023 C1010 0.961 . S
H1024 C1010 0.961 . S
H1025 C1011 0.958 . S
H1026 C1011 0.961 1_455 S
H1027 C1011 0.960 . S
C1028 C1029 1.391 1_565 S
C1028 C1030 1.394 . S
C1028 H1044 0.931 . S
C1029 C1028 1.391 1_545 S
C1029 C1033 1.376 . S
C1030 C1028 1.394 . S
C1030 C1031 1.369 1_565 S
C1030 C1034 1.531 . S
C1031 C1030 1.369 1_545 S
C1031 C1032 1.410 . S
C1031 C1039 1.503 1_545 S
C1032 C1031 1.410 . S
C1032 C1033 1.392 . S
C1032 C1035 1.511 . S
C1033 C1029 1.376 . S
C1033 C1032 1.392 . S
C1033 H1045 0.929 . S
C1034 C1030 1.531 . S
C1034 H1046 0.960 . S
C1034 H1047 0.962 . S
C1034 H1048 0.960 . S
C1035 C1032 1.511 . S
C1035 H1049 0.961 . S
C1035 H1050 0.961 . S
C1035 H1051 0.961 . S
C1036 C1037 1.370 . S
C1036 C1038 1.363 . S
C1036 H1052 0.931 . S
C1037 C1036 1.370 . S
C1037 C1041 1.408 . S
C1038 C1036 1.363 . S
C1038 C1039 1.370 . S
C1038 C1042 1.524 1_565 S
C1039 C1031 1.503 1_565 S
C1039 C1038 1.370 . S
C1039 C1040 1.403 . S
C1040 C1039 1.403 . S
C1040 C1041 1.404 . S
C1040 C1043 1.539 . S
C1041 C1037 1.408 . S
C1041 C1040 1.404 . S
C1041 H1053 0.930 . S
C1042 C1038 1.524 1_545 S
C1042 H1054 0.956 1_545 S
C1042 H1055 0.961 . S
C1042 H1056 0.961 . S
C1043 C1040 1.539 . S
C1043 H1057 0.958 . S
C1043 H1058 0.961 . S
C1043 H1059 0.960 . S
H1044 C1028 0.931 . S
H1045 C1033 0.929 . S
H1046 C1034 0.960 . S
H1047 C1034 0.962 . S
H1048 C1034 0.960 . S
H1049 C1035 0.961 . S
H1050 C1035 0.961 . S
H1051 C1035 0.961 . S
H1052 C1036 0.931 . S
H1053 C1041 0.930 . S
H1054 C1042 0.956 1_565 S
H1055 C1042 0.961 . S
H1056 C1042 0.961 . S
H1057 C1043 0.958 . S
H1058 C1043 0.961 . S
H1059 C1043 0.960 . S
C1060 C1061 1.391 . S
C1060 C1062 1.394 . S
C1060 H1076 0.931 . S
C1061 C1060 1.391 . S
C1061 C1065 1.376 . S
C1062 C1060 1.394 . S
C1062 C1063 1.369 . S
C1062 C1066 1.531 1_554 S
C1063 C1062 1.369 . S
C1063 C1064 1.410 . S
C1063 C1071 1.503 . S
C1064 C1063 1.410 . S
C1064 C1065 1.392 . S
C1064 C1067 1.511 . S
C1065 C1061 1.376 . S
C1065 C1064 1.392 . S
C1065 H1077 0.929 . S
C1066 C1062 1.531 1_556 S
C1066 H1078 0.960 . S
C1066 H1079 0.962 1_556 S
C1066 H1080 0.960 . S
C1067 C1064 1.511 . S
C1067 H1081 0.961 . S
C1067 H1082 0.961 . S
C1067 H1083 0.961 . S
C1068 C1069 1.370 . S
C1068 C1070 1.363 . S
C1068 H1084 0.931 . S
C1069 C1068 1.370 . S
C1069 C1073 1.408 1_554 S
C1070 C1068 1.363 . S
C1070 C1071 1.370 . S
C1070 C1074 1.524 . S
C1071 C1063 1.503 . S
C1071 C1070 1.370 . S
C1071 C1072 1.403 1_554 S
C1072 C1071 1.403 1_556 S
C1072 C1073 1.404 . S
C1072 C1075 1.539 . S
C1073 C1069 1.408 1_556 S
C1073 C1072 1.404 . S
C1073 H1085 0.930 . S
C1074 C1070 1.524 . S
C1074 H1086 0.956 . S
C1074 H1087 0.961 . S
C1074 H1088 0.961 . S
C1075 C1072 1.539 . S
C1075 H1089 0.958 . S
C1075 H1090 0.961 . S
C1075 H1091 0.960 . S
H1076 C1060 0.931 . S
H1077 C1065 0.929 . S
H1078 C1066 0.960 . S
H1079 C1066 0.962 1_554 S
H1080 C1066 0.960 . S
H1081 C1067 0.961 . S
H1082 C1067 0.961 . S
H1083 C1067 0.961 . S
H1084 C1068 0.931 . S
H1085 C1073 0.930 . S
H1086 C1074 0.956 . S
H1087 C1074 0.961 . S
H1088 C1074 0.961 . S
H1089 C1075 0.958 . S
H1090 C1075 0.961 . S
H1091 C1075 0.960 . S
C1092 C1093 1.391 . S
C1092 C1094 1.394 . S
C1092 H1108 0.931 . S
C1093 C1092 1.391 . S
C1093 C1097 1.376 . S
C1094 C1092 1.394 . S
C1094 C1095 1.369 . S
C1094 C1098 1.531 . S
C1095 C1094 1.369 . S
C1095 C1096 1.410 . S
C1095 C1103 1.503 . S
C1096 C1095 1.410 . S
C1096 C1097 1.392 . S
C1096 C1099 1.511 . S
C1097 C1093 1.376 . S
C1097 C1096 1.392 . S
C1097 H1109 0.929 . S
C1098 C1094 1.531 . S
C1098 H1110 0.960 . S
C1098 H1111 0.962 . S
C1098 H1112 0.960 . S
C1099 C1096 1.511 . S
C1099 H1113 0.961 . S
C1099 H1114 0.961 . S
C1099 H1115 0.961 . S
C1100 C1101 1.370 . S
C1100 C1102 1.363 . S
C1100 H1116 0.931 . S
C1101 C1100 1.370 . S
C1101 C1105 1.408 . S
C1102 C1100 1.363 . S
C1102 C1103 1.370 . S
C1102 C1106 1.524 . S
C1103 C1095 1.503 . S
C1103 C1102 1.370 . S
C1103 C1104 1.403 . S
C1104 C1103 1.403 . S
C1104 C1105 1.404 . S
C1104 C1107 1.539 . S
C1105 C1101 1.408 . S
C1105 C1104 1.404 . S
C1105 H1117 0.930 . S
C1106 C1102 1.524 . S
C1106 H1118 0.956 . S
C1106 H1119 0.961 . S
C1106 H1120 0.961 . S
C1107 C1104 1.539 . S
C1107 H1121 0.958 . S
C1107 H1122 0.961 . S
C1107 H1123 0.960 . S
H1108 C1092 0.931 . S
H1109 C1097 0.929 . S
H1110 C1098 0.960 . S
H1111 C1098 0.962 . S
H1112 C1098 0.960 . S
H1113 C1099 0.961 . S
H1114 C1099 0.961 . S
H1115 C1099 0.961 . S
H1116 C1100 0.931 . S
H1117 C1105 0.930 . S
H1118 C1106 0.956 . S
H1119 C1106 0.961 . S
H1120 C1106 0.961 . S
H1121 C1107 0.958 . S
H1122 C1107 0.961 . S
H1123 C1107 0.960 . S
C1124 C1125 1.391 . S
C1124 C1126 1.394 . S
C1124 H1140 0.931 . S
C1125 C1124 1.391 . S
C1125 C1129 1.376 . S
C1126 C1124 1.394 . S
C1126 C1127 1.369 . S
C1126 C1130 1.531 . S
C1127 C1126 1.369 . S
C1127 C1128 1.410 . S
C1127 C1135 1.503 . S
C1128 C1127 1.410 . S
C1128 C1129 1.392 . S
C1128 C1131 1.511 . S
C1129 C1125 1.376 . S
C1129 C1128 1.392 . S
C1129 H1141 0.929 . S
C1130 C1126 1.531 . S
C1130 H1142 0.960 . S
C1130 H1143 0.962 . S
C1130 H1144 0.960 . S
C1131 C1128 1.511 . S
C1131 H1145 0.961 . S
C1131 H1146 0.961 . S
C1131 H1147 0.961 . S
C1132 C1133 1.370 . S
C1132 C1134 1.363 . S
C1132 H1148 0.931 . S
C1133 C1132 1.370 . S
C1133 C1137 1.408 . S
C1134 C1132 1.363 . S
C1134 C1135 1.370 . S
C1134 C1138 1.524 . S
C1135 C1127 1.503 . S
C1135 C1134 1.370 . S
C1135 C1136 1.403 . S
C1136 C1135 1.403 . S
C1136 C1137 1.404 . S
C1136 C1139 1.539 . S
C1137 C1133 1.408 . S
C1137 C1136 1.404 . S
C1137 H1149 0.930 . S
C1138 C1134 1.524 . S
C1138 H1150 0.956 . S
C1138 H1151 0.961 . S
C1138 H1152 0.961 . S
C1139 C1136 1.539 . S
C1139 H1153 0.958 . S
C1139 H1154 0.961 . S
C1139 H1155 0.960 . S
H1140 C1124 0.931 . S
H1141 C1129 0.929 . S
H1142 C1130 0.960 . S
H1143 C1130 0.962 . S
H1144 C1130 0.960 . S
H1145 C1131 0.961 . S
H1146 C1131 0.961 . S
H1147 C1131 0.961 . S
H1148 C1132 0.931 . S
H1149 C1137 0.930 . S
H1150 C1138 0.956 . S
H1151 C1138 0.961 . S
H1152 C1138 0.961 . S
H1153 C1139 0.958 . S
H1154 C1139 0.961 . S
H1155 C1139 0.960 . S
C1156 C1157 1.391 1_556 S
C1156 C1158 1.394 . S
C1156 H1172 0.931 . S
C1157 C1156 1.391 1_554 S
C1157 C1161 1.376 . S
C1158 C1156 1.394 . S
C1158 C1159 1.369 1_556 S
C1158 C1162 1.531 . S
C1159 C1158 1.369 1_554 S
C1159 C1160 1.410 . S
C1159 C1167 1.501 1_554 S
C1160 C1159 1.410 . S
C1160 C1161 1.392 . S
C1160 C1163 1.511 . S
C1161 C1157 1.376 . S
C1161 C1160 1.392 . S
C1161 H1173 0.929 . S
C1162 C1158 1.531 . S
C1162 H1174 0.960 . S
C1162 H1175 0.962 . S
C1162 H1176 0.960 . S
C1163 C1160 1.511 . S
C1163 H1177 0.961 . S
C1163 H1178 0.961 . S
C1163 H1179 0.961 . S
C1164 C1165 1.370 1_554 S
C1164 C1166 1.363 . S
C1164 H1180 0.931 . S
C1165 C1164 1.370 1_556 S
C1165 C1169 1.408 . S
C1166 C1164 1.363 . S
C1166 C1167 1.359 1_554 S
C1166 C1170 1.524 . S
C1167 C1159 1.501 1_556 S
C1167 C1166 1.359 1_556 S
C1167 C1168 1.416 . S
C1168 C1167 1.416 . S
C1168 C1169 1.404 . S
C1168 C1171 1.539 . S
C1169 C1165 1.408 . S
C1169 C1168 1.404 . S
C1169 H1181 0.930 . S
C1170 C1166 1.524 . S
C1170 H1182 0.956 . S
C1170 H1183 0.961 . S
C1170 H1184 0.961 . S
C1171 C1168 1.539 . S
C1171 H1185 0.958 . S
C1171 H1186 0.961 . S
C1171 H1187 0.960 . S
H1172 C1156 0.931 . S
H1173 C1161 0.929 . S
H1174 C1162 0.960 . S
H1175 C1162 0.962 . S
H1176 C1162 0.960 . S
H1177 C1163 0.961 . S
H1178 C1163 0.961 . S
H1179 C1163 0.961 . S
H1180 C1164 0.931 . S
H1181 C1169 0.930 . S
H1182 C1170 0.956 . S
H1183 C1170 0.961 . S
H1184 C1170 0.961 . S
H1185 C1171 0.958 . S
H1186 C1171 0.961 . S
H1187 C1171 0.960 . S
C1188 C1189 1.391 . S
C1188 C1190 1.394 . S
C1188 H1204 0.931 . S
C1189 C1188 1.391 . S
C1189 C1193 1.376 . S
C1190 C1188 1.394 . S
C1190 C1191 1.369 . S
C1190 C1194 1.531 . S
C1191 C1190 1.369 . S
C1191 C1192 1.410 . S
C1191 C1199 1.503 . S
C1192 C1191 1.410 . S
C1192 C1193 1.392 . S
C1192 C1195 1.511 . S
C1193 C1189 1.376 . S
C1193 C1192 1.392 . S
C1193 H1205 0.929 . S
C1194 C1190 1.531 . S
C1194 H1206 0.960 . S
C1194 H1207 0.962 . S
C1194 H1208 0.960 . S
C1195 C1192 1.511 . S
C1195 H1209 0.961 . S
C1195 H1210 0.961 . S
C1195 H1211 0.961 . S
C1196 C1197 1.370 . S
C1196 C1198 1.363 . S
C1196 H1212 0.931 . S
C1197 C1196 1.370 . S
C1197 C1201 1.408 . S
C1198 C1196 1.363 . S
C1198 C1199 1.370 . S
C1198 C1202 1.524 . S
C1199 C1191 1.503 . S
C1199 C1198 1.370 . S
C1199 C1200 1.403 . S
C1200 C1199 1.403 . S
C1200 C1201 1.404 . S
C1200 C1203 1.539 . S
C1201 C1197 1.408 . S
C1201 C1200 1.404 . S
C1201 H1213 0.930 . S
C1202 C1198 1.524 . S
C1202 H1214 0.956 . S
C1202 H1215 0.961 . S
C1202 H1216 0.961 . S
C1203 C1200 1.539 . S
C1203 H1217 0.958 . S
C1203 H1218 0.961 . S
C1203 H1219 0.960 . S
H1204 C1188 0.931 . S
H1205 C1193 0.929 . S
H1206 C1194 0.960 . S
H1207 C1194 0.962 . S
H1208 C1194 0.960 . S
H1209 C1195 0.961 . S
H1210 C1195 0.961 . S
H1211 C1195 0.961 . S
H1212 C1196 0.931 . S
H1213 C1201 0.930 . S
H1214 C1202 0.956 . S
H1215 C1202 0.961 . S
H1216 C1202 0.961 . S
H1217 C1203 0.958 . S
H1218 C1203 0.961 . S
H1219 C1203 0.960 . S
C1220 C1221 1.391 . S
C1220 C1222 1.394 . S
C1220 H1236 0.931 . S
C1221 C1220 1.391 . S
C1221 C1225 1.376 . S
C1222 C1220 1.394 . S
C1222 C1223 1.369 . S
C1222 C1226 1.531 . S
C1223 C1222 1.369 . S
C1223 C1224 1.410 . S
C1223 C1231 1.503 . S
C1224 C1223 1.410 . S
C1224 C1225 1.392 . S
C1224 C1227 1.511 . S
C1225 C1221 1.376 . S
C1225 C1224 1.392 . S
C1225 H1237 0.929 . S
C1226 C1222 1.531 . S
C1226 H1238 0.960 . S
C1226 H1239 0.962 . S
C1226 H1240 0.960 . S
C1227 C1224 1.511 . S
C1227 H1241 0.961 . S
C1227 H1242 0.961 . S
C1227 H1243 0.961 . S
C1228 C1229 1.370 . S
C1228 C1230 1.363 . S
C1228 H1244 0.931 . S
C1229 C1228 1.370 . S
C1229 C1233 1.408 . S
C1230 C1228 1.363 . S
C1230 C1231 1.370 . S
C1230 C1234 1.524 . S
C1231 C1223 1.503 . S
C1231 C1230 1.370 . S
C1231 C1232 1.403 . S
C1232 C1231 1.403 . S
C1232 C1233 1.404 . S
C1232 C1235 1.539 . S
C1233 C1229 1.408 . S
C1233 C1232 1.404 . S
C1233 H1245 0.930 . S
C1234 C1230 1.524 . S
C1234 H1246 0.956 . S
C1234 H1247 0.961 . S
C1234 H1248 0.961 . S
C1235 C1232 1.539 . S
C1235 H1249 0.958 . S
C1235 H1250 0.961 . S
C1235 H1251 0.960 . S
H1236 C1220 0.931 . S
H1237 C1225 0.929 . S
H1238 C1226 0.960 . S
H1239 C1226 0.962 . S
H1240 C1226 0.960 . S
H1241 C1227 0.961 . S
H1242 C1227 0.961 . S
H1243 C1227 0.961 . S
H1244 C1228 0.931 . S
H1245 C1233 0.930 . S
H1246 C1234 0.956 . S
H1247 C1234 0.961 . S
H1248 C1234 0.961 . S
H1249 C1235 0.958 . S
H1250 C1235 0.961 . S
H1251 C1235 0.960 . S
C1252 C1253 1.391 . S
C1252 C1254 1.394 1_554 S
C1252 H1268 0.931 1_554 S
C1253 C1252 1.391 . S
C1253 C1257 1.376 . S
C1254 C1252 1.394 1_556 S
C1254 C1255 1.369 1_556 S
C1254 C1258 1.531 . S
C1255 C1254 1.369 1_554 S
C1255 C1256 1.410 . S
C1255 C1263 1.503 . S
C1256 C1255 1.410 . S
C1256 C1257 1.392 . S
C1256 C1259 1.511 . S
C1257 C1253 1.376 . S
C1257 C1256 1.392 . S
C1257 H1269 0.929 . S
C1258 C1254 1.531 . S
C1258 H1270 0.960 . S
C1258 H1271 0.962 . S
C1258 H1272 0.960 . S
C1259 C1256 1.511 . S
C1259 H1273 0.961 . S
C1259 H1274 0.961 . S
C1259 H1275 0.961 . S
C1260 C1261 1.370 . S
C1260 C1262 1.363 . S
C1260 H1276 0.931 . S
C1261 C1260 1.370 . S
C1261 C1265 1.408 1_556 S
C1262 C1260 1.363 . S
C1262 C1263 1.370 1_556 S
C1262 C1266 1.524 . S
C1263 C1255 1.503 . S
C1263 C1262 1.370 1_554 S
C1263 C1264 1.403 . S
C1264 C1263 1.403 . S
C1264 C1265 1.404 . S
C1264 C1267 1.539 . S
C1265 C1261 1.408 1_554 S
C1265 C1264 1.404 . S
C1265 H1277 0.930 . S
C1266 C1262 1.524 . S
C1266 H1278 0.956 . S
C1266 H1279 0.961 . S
C1266 H1280 0.961 . S
C1267 C1264 1.539 . S
C1267 H1281 0.958 . S
C1267 H1282 0.961 . S
C1267 H1283 0.960 . S
H1268 C1252 0.931 1_556 S
H1269 C1257 0.929 . S
H1270 C1258 0.960 . S
H1271 C1258 0.962 . S
H1272 C1258 0.960 . S
H1273 C1259 0.961 . S
H1274 C1259 0.961 . S
H1275 C1259 0.961 . S
H1276 C1260 0.931 . S
H1277 C1265 0.930 . S
H1278 C1266 0.956 . S
H1279 C1266 0.961 . S
H1280 C1266 0.961 . S
H1281 C1267 0.958 . S
H1282 C1267 0.961 . S
H1283 C1267 0.960 . S
C1284 C1285 1.391 . S
C1284 C1286 1.394 . S
C1284 H1300 0.931 . S
C1285 C1284 1.391 . S
C1285 C1289 1.376 1_545 S
C1286 C1284 1.394 . S
C1286 C1287 1.369 . S
C1286 C1290 1.531 . S
C1287 C1286 1.369 . S
C1287 C1288 1.410 1_545 S
C1287 C1295 1.510 . S
C1288 C1287 1.410 1_565 S
C1288 C1289 1.392 . S
C1288 C1291 1.511 . S
C1289 C1285 1.376 1_565 S
C1289 C1288 1.392 . S
C1289 H1301 0.929 . S
C1290 C1286 1.531 . S
C1290 H1302 0.960 . S
C1290 H1303 0.962 . S
C1290 H1304 0.960 . S
C1291 C1288 1.511 . S
C1291 H1305 0.961 . S
C1291 H1306 0.961 . S
C1291 H1307 0.961 . S
C1292 C1293 1.370 . S
C1292 C1294 1.363 . S
C1292 H1308 0.931 . S
C1293 C1292 1.370 . S
C1293 C1297 1.408 1_565 S
C1294 C1292 1.363 . S
C1294 C1295 1.342 1_565 S
C1294 C1298 1.524 . S
C1295 C1287 1.510 . S
C1295 C1294 1.342 1_545 S
C1295 C1296 1.425 . S
C1296 C1295 1.425 . S
C1296 C1297 1.404 . S
C1296 C1299 1.539 . S
C1297 C1293 1.408 1_545 S
C1297 C1296 1.404 . S
C1297 H1309 0.930 . S
C1298 C1294 1.524 . S
C1298 H1310 0.956 . S
C1298 H1311 0.961 . S
C1298 H1312 0.961 . S
C1299 C1296 1.539 . S
C1299 H1313 0.958 . S
C1299 H1314 0.961 . S
C1299 H1315 0.960 . S
H1300 C1284 0.931 . S
H1301 C1289 0.929 . S
H1302 C1290 0.960 . S
H1303 C1290 0.962 . S
H1304 C1290 0.960 . S
H1305 C1291 0.961 . S
H1306 C1291 0.961 . S
H1307 C1291 0.961 . S
H1308 C1292 0.931 . S
H1309 C1297 0.930 . S
H1310 C1298 0.956 . S
H1311 C1298 0.961 . S
H1312 C1298 0.961 . S
H1313 C1299 0.958 . S
H1314 C1299 0.961 . S
H1315 C1299 0.960 . S
C1316 C1317 1.391 . S
C1316 C1318 1.394 . S
C1316 H1332 0.931 . S
C1317 C1316 1.391 . S
C1317 C1321 1.376 . S
C1318 C1316 1.394 . S
C1318 C1319 1.369 . S
C1318 C1322 1.531 . S
C1319 C1318 1.369 . S
C1319 C1320 1.410 . S
C1319 C1327 1.503 . S
C1320 C1319 1.410 . S
C1320 C1321 1.392 . S
C1320 C1323 1.511 . S
C1321 C1317 1.376 . S
C1321 C1320 1.392 . S
C1321 H1333 0.929 . S
C1322 C1318 1.531 . S
C1322 H1334 0.960 . S
C1322 H1335 0.962 . S
C1322 H1336 0.960 . S
C1323 C1320 1.511 . S
C1323 H1337 0.961 . S
C1323 H1338 0.961 . S
C1323 H1339 0.961 . S
C1324 C1325 1.370 . S
C1324 C1326 1.363 . S
C1324 H1340 0.931 . S
C1325 C1324 1.370 . S
C1325 C1329 1.408 . S
C1326 C1324 1.363 . S
C1326 C1327 1.370 . S
C1326 C1330 1.524 . S
C1327 C1319 1.503 . S
C1327 C1326 1.370 . S
C1327 C1328 1.403 . S
C1328 C1327 1.403 . S
C1328 C1329 1.404 . S
C1328 C1331 1.539 . S
C1329 C1325 1.408 . S
C1329 C1328 1.404 . S
C1329 H1341 0.930 . S
C1330 C1326 1.524 . S
C1330 H1342 0.956 . S
C1330 H1343 0.961 . S
C1330 H1344 0.961 . S
C1331 C1328 1.539 . S
C1331 H1345 0.958 . S
C1331 H1346 0.961 . S
C1331 H1347 0.960 . S
H1332 C1316 0.931 . S
H1333 C1321 0.929 . S
H1334 C1322 0.960 . S
H1335 C1322 0.962 . S
H1336 C1322 0.960 . S
H1337 C1323 0.961 . S
H1338 C1323 0.961 . S
H1339 C1323 0.961 . S
H1340 C1324 0.931 . S
H1341 C1329 0.930 . S
H1342 C1330 0.956 . S
H1343 C1330 0.961 . S
H1344 C1330 0.961 . S
H1345 C1331 0.958 . S
H1346 C1331 0.961 . S
H1347 C1331 0.960 . S
C1348 C1349 1.391 . S
C1348 C1350 1.394 . S
C1348 H1364 0.931 . S
C1349 C1348 1.391 . S
C1349 C1353 1.376 . S
C1350 C1348 1.394 . S
C1350 C1351 1.369 . S
C1350 C1354 1.531 1_455 S
C1351 C1350 1.369 . S
C1351 C1352 1.410 . S
C1351 C1359 1.503 . S
C1352 C1351 1.410 . S
C1352 C1353 1.392 . S
C1352 C1355 1.511 . S
C1353 C1349 1.376 . S
C1353 C1352 1.392 . S
C1353 H1365 0.929 . S
C1354 C1350 1.531 1_655 S
C1354 H1366 0.969 . S
C1354 H1367 0.962 . S
C1354 H1368 0.960 . S
C1355 C1352 1.511 . S
C1355 H1369 0.961 . S
C1355 H1370 0.961 . S
C1355 H1371 0.961 . S
C1356 C1357 1.370 . S
C1356 C1358 1.363 . S
C1356 H1372 0.931 . S
C1357 C1356 1.370 . S
C1357 C1361 1.408 1_655 S
C1358 C1356 1.363 . S
C1358 C1359 1.370 1_655 S
C1358 C1362 1.524 . S
C1359 C1351 1.503 . S
C1359 C1358 1.370 1_455 S
C1359 C1360 1.403 . S
C1360 C1359 1.403 . S
C1360 C1361 1.404 . S
C1360 C1363 1.539 . S
C1361 C1357 1.408 1_455 S
C1361 C1360 1.404 . S
C1361 H1373 0.930 . S
C1362 C1358 1.524 . S
C1362 H1374 0.956 . S
C1362 H1375 0.961 . S
C1362 H1376 0.961 . S
C1363 C1360 1.539 . S
C1363 H1377 0.958 . S
C1363 H1378 0.961 . S
C1363 H1379 0.960 . S
H1364 C1348 0.931 . S
H1365 C1353 0.929 . S
H1366 C1354 0.969 . S
H1367 C1354 0.962 . S
H1368 C1354 0.960 . S
H1369 C1355 0.961 . S
H1370 C1355 0.961 . S
H1371 C1355 0.961 . S
H1372 C1356 0.931 . S
H1373 C1361 0.930 . S
H1374 C1362 0.956 . S
H1375 C1362 0.961 . S
H1376 C1362 0.961 . S
H1377 C1363 0.958 . S
H1378 C1363 0.961 . S
H1379 C1363 0.960 . S
C1380 C1381 1.391 . S
C1380 C1382 1.394 . S
C1380 H1396 0.931 . S
C1381 C1380 1.391 . S
C1381 C1385 1.376 1_565 S
C1382 C1380 1.394 . S
C1382 C1383 1.369 . S
C1382 C1386 1.531 . S
C1383 C1382 1.369 . S
C1383 C1384 1.410 1_565 S
C1383 C1391 1.503 . S
C1384 C1383 1.410 1_545 S
C1384 C1385 1.392 . S
C1384 C1387 1.511 . S
C1385 C1381 1.376 1_545 S
C1385 C1384 1.392 . S
C1385 H1397 0.929 . S
C1386 C1382 1.531 . S
C1386 H1398 0.960 . S
C1386 H1399 0.962 . S
C1386 H1400 0.960 . S
C1387 C1384 1.511 . S
C1387 H1401 0.961 . S
C1387 H1402 0.961 . S
C1387 H1403 0.961 . S
C1388 C1389 1.370 . S
C1388 C1390 1.363 . S
C1388 H1404 0.931 . S
C1389 C1388 1.370 . S
C1389 C1393 1.408 1_545 S
C1390 C1388 1.363 . S
C1390 C1391 1.370 1_545 S
C1390 C1394 1.524 . S
C1391 C1383 1.503 . S
C1391 C1390 1.370 1_565 S
C1391 C1392 1.403 . S
C1392 C1391 1.403 . S
C1392 C1393 1.404 . S
C1392 C1395 1.539 . S
C1393 C1389 1.408 1_565 S
C1393 C1392 1.404 . S
C1393 H1405 0.930 . S
C1394 C1390 1.524 . S
C1394 H1406 0.956 . S
C1394 H1407 0.961 . S
C1394 H1408 0.961 . S
C1395 C1392 1.539 . S
C1395 H1409 0.958 . S
C1395 H1410 0.961 . S
C1395 H1411 0.960 . S
H1396 C1380 0.931 . S
H1397 C1385 0.929 . S
H1398 C1386 0.960 . S
H1399 C1386 0.962 . S
H1400 C1386 0.960 . S
H1401 C1387 0.961 . S
H1402 C1387 0.961 . S
H1403 C1387 0.961 . S
H1404 C1388 0.931 . S
H1405 C1393 0.930 . S
H1406 C1394 0.956 . S
H1407 C1394 0.961 . S
H1408 C1394 0.961 . S
H1409 C1395 0.958 . S
H1410 C1395 0.961 . S
H1411 C1395 0.960 . S
C1412 C1413 1.391 . S
C1412 C1414 1.394 . S
C1412 H1428 0.931 . S
C1413 C1412 1.391 . S
C1413 C1417 1.376 . S
C1414 C1412 1.394 . S
C1414 C1415 1.369 . S
C1414 C1418 1.531 . S
C1415 C1414 1.369 . S
C1415 C1416 1.410 . S
C1415 C1423 1.503 . S
C1416 C1415 1.410 . S
C1416 C1417 1.392 . S
C1416 C1419 1.511 . S
C1417 C1413 1.376 . S
C1417 C1416 1.392 . S
C1417 H1429 0.929 . S
C1418 C1414 1.531 . S
C1418 H1430 0.960 . S
C1418 H1431 0.962 . S
C1418 H1432 0.960 . S
C1419 C1416 1.511 . S
C1419 H1433 0.961 . S
C1419 H1434 0.961 . S
C1419 H1435 0.961 . S
C1420 C1421 1.370 . S
C1420 C1422 1.363 . S
C1420 H1436 0.931 . S
C1421 C1420 1.370 . S
C1421 C1425 1.408 . S
C1422 C1420 1.363 . S
C1422 C1423 1.370 . S
C1422 C1426 1.524 . S
C1423 C1415 1.503 . S
C1423 C1422 1.370 . S
C1423 C1424 1.403 . S
C1424 C1423 1.403 . S
C1424 C1425 1.404 . S
C1424 C1427 1.539 . S
C1425 C1421 1.408 . S
C1425 C1424 1.404 . S
C1425 H1437 0.930 . S
C1426 C1422 1.524 . S
C1426 H1438 0.956 . S
C1426 H1439 0.961 . S
C1426 H1440 0.961 . S
C1427 C1424 1.539 . S
C1427 H1441 0.958 . S
C1427 H1442 0.961 . S
C1427 H1443 0.960 . S
H1428 C1412 0.931 . S
H1429 C1417 0.929 . S
H1430 C1418 0.960 . S
H1431 C1418 0.962 . S
H1432 C1418 0.960 . S
H1433 C1419 0.961 . S
H1434 C1419 0.961 . S
H1435 C1419 0.961 . S
H1436 C1420 0.931 . S
H1437 C1425 0.930 . S
H1438 C1426 0.956 . S
H1439 C1426 0.961 . S
H1440 C1426 0.961 . S
H1441 C1427 0.958 . S
H1442 C1427 0.961 . S
H1443 C1427 0.960 . S
C1444 C1445 1.391 . S
C1444 C1446 1.394 . S
C1444 H1460 0.931 . S
C1445 C1444 1.391 . S
C1445 C1449 1.376 1_655 S
C1446 C1444 1.394 . S
C1446 C1447 1.369 1_655 S
C1446 C1450 1.531 . S
C1447 C1446 1.369 1_455 S
C1447 C1448 1.410 . S
C1447 C1455 1.503 . S
C1448 C1447 1.410 . S
C1448 C1449 1.392 . S
C1448 C1451 1.511 . S
C1449 C1445 1.376 1_455 S
C1449 C1448 1.392 . S
C1449 H1461 0.929 . S
C1450 C1446 1.531 . S
C1450 H1462 0.960 . S
C1450 H1463 0.962 . S
C1450 H1464 0.960 . S
C1451 C1448 1.511 . S
C1451 H1465 0.961 . S
C1451 H1466 0.961 . S
C1451 H1467 0.961 . S
C1452 C1453 1.370 1_655 S
C1452 C1454 1.363 . S
C1452 H1468 0.931 . S
C1453 C1452 1.370 1_455 S
C1453 C1457 1.408 . S
C1454 C1452 1.363 . S
C1454 C1455 1.370 1_655 S
C1454 C1458 1.524 . S
C1455 C1447 1.503 . S
C1455 C1454 1.370 1_455 S
C1455 C1456 1.403 . S
C1456 C1455 1.403 . S
C1456 C1457 1.404 . S
C1456 C1459 1.539 . S
C1457 C1453 1.408 . S
C1457 C1456 1.404 . S
C1457 H1469 0.930 . S
C1458 C1454 1.524 . S
C1458 H1470 0.956 . S
C1458 H1471 0.961 . S
C1458 H1472 0.961 . S
C1459 C1456 1.539 . S
C1459 H1473 0.958 . S
C1459 H1474 0.961 . S
C1459 H1475 0.960 . S
H1460 C1444 0.931 . S
H1461 C1449 0.929 . S
H1462 C1450 0.960 . S
H1463 C1450 0.962 . S
H1464 C1450 0.960 . S
H1465 C1451 0.961 . S
H1466 C1451 0.961 . S
H1467 C1451 0.961 . S
H1468 C1452 0.931 . S
H1469 C1457 0.930 . S
H1470 C1458 0.956 . S
H1471 C1458 0.961 . S
H1472 C1458 0.961 . S
H1473 C1459 0.958 . S
H1474 C1459 0.961 . S
H1475 C1459 0.960 . S
C709 C5 1.681 . S
C717 C477 1.683 . S
C741 C64 1.676 . S
C749 C536 1.681 . S
C773 C595 1.676 . S
C781 C123 1.681 . S
C805 C654 1.678 . S
C813 C182 1.683 . S
C837 C359 1.681 . S
C845 C241 1.683 . S
C869 C418 1.675 . S
C877 C300 1.681 . S
C901 C3 1.801 . S
C909 C180 1.799 . S
C933 C239 1.772 . S
C941 C62 1.789 . S
C965 C298 1.808 . S
C973 C121 1.783 . S
C997 C357 1.777 . S
C1005 C534 1.786 . S
C1029 C593 1.797 . S
C1037 C416 1.800 . S
C1061 C475 1.766 . S
C1069 C652 1.792 . S
C1093 C387 1.123 . S
C1101 C33 1.111 . S
C1125 C92 1.104 . S
C1133 C446 1.128 . S
C1157 C505 1.122 . S
C1165 C151 1.129 . S
C1189 C564 1.105 . S
C1197 C210 1.128 . S
C1221 C269 1.095 . S
C1229 C623 1.120 . S
C1253 C682 1.139 . S
C1261 C328 1.117 . S
C1285 C52 1.219 . S
C1293 C465 1.213 . S
C1317 C524 1.217 . S
C1325 C111 1.215 . S
C1349 C583 1.212 . S
C1357 C170 1.208 . S
C1381 C229 1.219 . S
C1389 C642 1.213 . S
C1413 C701 1.216 . S
C1421 C288 1.215 . S
C1445 C406 1.208 . S
C1453 C347 1.215 . S
