# Generated by pormake.
# Topology ume, (4)-cn, num edge types: 1
# Building blocks:
#     Node 0, Type 0, BuildingBlock: ESEHIV_clean_sbu_0, # of connection points: 4
#     Node 1, Type 0, BuildingBlock: ESEHIV_clean_sbu_0, # of connection points: 4
#     Node 2, Type 0, BuildingBlock: ESEHIV_clean_sbu_0, # of connection points: 4
#     Node 3, Type 0, BuildingBlock: ESEHIV_clean_sbu_0, # of connection points: 4
#     Node 4, Type 0, BuildingBlock: ESEHIV_clean_sbu_0, # of connection points: 4
#     Node 5, Type 0, BuildingBlock: ESEHIV_clean_sbu_0, # of connection points: 4
#     Node 6, Type 0, BuildingBlock: ESEHIV_clean_sbu_0, # of connection points: 4
#     Node 7, Type 0, BuildingBlock: ESEHIV_clean_sbu_0, # of connection points: 4
#     Node 8, Type 0, BuildingBlock: ESEHIV_clean_sbu_0, # of connection points: 4
#     Node 9, Type 0, BuildingBlock: ESEHIV_clean_sbu_0, # of connection points: 4
#     Node 10, Type 0, BuildingBlock: ESEHIV_clean_sbu_0, # of connection points: 4
#     Node 11, Type 0, BuildingBlock: ESEHIV_clean_sbu_0, # of connection points: 4
#     Node 12, Type 0, BuildingBlock: ESEHIV_clean_sbu_0, # of connection points: 4
#     Node 13, Type 0, BuildingBlock: ESEHIV_clean_sbu_0, # of connection points: 4
#     Node 14, Type 0, BuildingBlock: ESEHIV_clean_sbu_0, # of connection points: 4
#     Node 15, Type 0, BuildingBlock: ESEHIV_clean_sbu_0, # of connection points: 4
#     Edge 16, Type (0, 0), BuildingBlock: MIFKUJ_clean_linker_0, # of connection points: 2
#     Edge 17, Type (0, 0), BuildingBlock: MIFKUJ_clean_linker_0, # of connection points: 2
#     Edge 18, Type (0, 0), BuildingBlock: MIFKUJ_clean_linker_0, # of connection points: 2
#     Edge 19, Type (0, 0), BuildingBlock: MIFKUJ_clean_linker_0, # of connection points: 2
#     Edge 20, Type (0, 0), BuildingBlock: MIFKUJ_clean_linker_0, # of connection points: 2
#     Edge 21, Type (0, 0), BuildingBlock: MIFKUJ_clean_linker_0, # of connection points: 2
#     Edge 22, Type (0, 0), BuildingBlock: MIFKUJ_clean_linker_0, # of connection points: 2
#     Edge 23, Type (0, 0), BuildingBlock: MIFKUJ_clean_linker_0, # of connection points: 2
#     Edge 24, Type (0, 0), BuildingBlock: MIFKUJ_clean_linker_0, # of connection points: 2
#     Edge 25, Type (0, 0), BuildingBlock: MIFKUJ_clean_linker_0, # of connection points: 2
#     Edge 26, Type (0, 0), BuildingBlock: MIFKUJ_clean_linker_0, # of connection points: 2
#     Edge 27, Type (0, 0), BuildingBlock: MIFKUJ_clean_linker_0, # of connection points: 2
#     Edge 28, Type (0, 0), BuildingBlock: MIFKUJ_clean_linker_0, # of connection points: 2
#     Edge 29, Type (0, 0), BuildingBlock: MIFKUJ_clean_linker_0, # of connection points: 2
#     Edge 30, Type (0, 0), BuildingBlock: MIFKUJ_clean_linker_0, # of connection points: 2
#     Edge 31, Type (0, 0), BuildingBlock: MIFKUJ_clean_linker_0, # of connection points: 2
#     Edge 32, Type (0, 0), BuildingBlock: MIFKUJ_clean_linker_0, # of connection points: 2
#     Edge 33, Type (0, 0), BuildingBlock: MIFKUJ_clean_linker_0, # of connection points: 2
#     Edge 34, Type (0, 0), BuildingBlock: MIFKUJ_clean_linker_0, # of connection points: 2
#     Edge 35, Type (0, 0), BuildingBlock: MIFKUJ_clean_linker_0, # of connection points: 2
#     Edge 36, Type (0, 0), BuildingBlock: MIFKUJ_clean_linker_0, # of connection points: 2
#     Edge 37, Type (0, 0), BuildingBlock: MIFKUJ_clean_linker_0, # of connection points: 2
#     Edge 38, Type (0, 0), BuildingBlock: MIFKUJ_clean_linker_0, # of connection points: 2
#     Edge 39, Type (0, 0), BuildingBlock: MIFKUJ_clean_linker_0, # of connection points: 2
#     Edge 40, Type (0, 0), BuildingBlock: MIFKUJ_clean_linker_0, # of connection points: 2
#     Edge 41, Type (0, 0), BuildingBlock: MIFKUJ_clean_linker_0, # of connection points: 2
#     Edge 42, Type (0, 0), BuildingBlock: MIFKUJ_clean_linker_0, # of connection points: 2
#     Edge 43, Type (0, 0), BuildingBlock: MIFKUJ_clean_linker_0, # of connection points: 2
#     Edge 44, Type (0, 0), BuildingBlock: MIFKUJ_clean_linker_0, # of connection points: 2
#     Edge 45, Type (0, 0), BuildingBlock: MIFKUJ_clean_linker_0, # of connection points: 2
#     Edge 46, Type (0, 0), BuildingBlock: MIFKUJ_clean_linker_0, # of connection points: 2
#     Edge 47, Type (0, 0), BuildingBlock: MIFKUJ_clean_linker_0, # of connection points: 2
# Relax obj value: 0.042
# Max RMSD: 0.155
# Mean RMSD: 0.134
data_MOF--net-ume--node1-ESEHIV_clean_sbu_0--edge1-MIFKUJ_clean_linker_0
_symmetry_space_group_name_H-M    P1
_symmetry_Int_Tables_number       1
_symmetry_cell_setting            triclinic
loop_
_symmetry_equiv_pos_as_xyz
'x, y, z'
_cell_length_a     37.319102
_cell_length_b     42.998062
_cell_length_c     154.35761
_cell_angle_alpha  90.008769
_cell_angle_beta   90.332125
_cell_angle_gamma 89.873135
loop_
_atom_site_label
_atom_site_type_symbol
_atom_site_fract_x
_atom_site_fract_y
_atom_site_fract_z
_atom_type_partial_charge
Cu0 Cu 0.26238 0.08526 0.31299 0.0
N1 N 0.26342 0.10799 0.32343 0.0
N2 N 0.26459 0.12007 0.33759 0.0
C3 C 0.26549 0.09695 0.33162 0.0
C4 C 0.26179 0.14655 0.3329 0.0
C5 C 0.26112 0.13905 0.32423 0.0
O6 O 0.21872 0.05931 0.31273 0.0
C7 C 0.33616 0.07184 0.31533 0.0
O8 O 0.33493 0.09761 0.31988 0.0
H9 H 0.26771 0.07245 0.33312 0.0
H10 H 0.25866 0.15511 0.31887 0.0
N11 N 0.25849 0.11252 0.30353 0.0
N12 N 0.2669 0.13525 0.29064 0.0
C13 C 0.28136 0.11687 0.29688 0.0
C14 C 0.22889 0.12885 0.30144 0.0
C15 C 0.23395 0.14282 0.29352 0.0
C16 C 0.1908 0.06789 0.31687 0.0
O17 O 0.19226 0.0932 0.32161 0.0
H18 H 0.30725 0.10562 0.29641 0.0
H19 H 0.20479 0.12961 0.30529 0.0
O20 O 0.30742 0.06167 0.3118 0.0
H21 H 0.2596 0.16981 0.33552 0.0
H22 H 0.21465 0.15705 0.29006 0.0
Cu23 Cu 0.95166 0.76161 0.57214 0.0
N24 N 0.98263 0.79521 0.57362 0.0
N25 N 1.0044 0.8436 0.5735 0.0
C26 C 0.97804 0.82447 0.5707 0.0
C27 C 0.02641 0.82548 0.57831 0.0
C28 C 0.01287 0.79571 0.57839 0.0
O29 O 0.92335 0.76952 0.56168 0.0
C30 C 0.91693 0.77933 0.58771 0.0
O31 O 0.92147 0.80754 0.58465 0.0
H32 H 0.95546 0.83159 0.56675 0.0
H33 H 0.02373 0.77595 0.58187 0.0
N34 N 0.97954 0.72612 0.57018 0.0
N35 N 0.99925 0.67692 0.56974 0.0
C36 C 0.97236 0.6962 0.57216 0.0
C37 C 0.01181 0.72572 0.56636 0.0
C38 C 0.02406 0.69552 0.56609 0.0
C39 C 0.89514 0.78608 0.56103 0.0
O40 O 0.88052 0.79758 0.56806 0.0
H41 H 0.94812 0.68884 0.57537 0.0
H42 H 0.02542 0.74604 0.5639 0.0
O43 O 0.92536 0.75614 0.58298 0.0
H44 H 0.04988 0.83337 0.58182 0.0
H45 H 0.04904 0.68784 0.56327 0.0
Cu46 Cu 0.26165 0.43566 0.81294 0.0
N47 N 0.26245 0.41104 0.82293 0.0
N48 N 0.26237 0.39797 0.83701 0.0
C49 C 0.26002 0.42138 0.83116 0.0
C50 C 0.26645 0.37192 0.8322 0.0
C51 C 0.26651 0.38005 0.82355 0.0
O52 O 0.30457 0.46182 0.81383 0.0
C53 C 0.20056 0.47247 0.80698 0.0
O54 O 0.218 0.47685 0.79971 0.0
H55 H 0.25641 0.44566 0.83278 0.0
H56 H 0.26967 0.36451 0.8181 0.0
N57 N 0.26577 0.41021 0.80307 0.0
N58 N 0.25766 0.38791 0.79007 0.0
C59 C 0.2428 0.40557 0.79637 0.0
C60 C 0.29572 0.39456 0.80095 0.0
C61 C 0.29088 0.38091 0.79297 0.0
C62 C 0.32275 0.47134 0.80738 0.0
O63 O 0.30979 0.46759 0.79952 0.0
H64 H 0.21631 0.41574 0.79598 0.0
H65 H 0.31982 0.39389 0.80487 0.0
O66 O 0.21558 0.45749 0.81313 0.0
H67 H 0.26991 0.34863 0.83472 0.0
H68 H 0.31046 0.36708 0.78953 0.0
Cu69 Cu 0.56977 0.76193 0.07091 0.0
N70 N 0.53741 0.7288 0.07161 0.0
N71 N 0.51477 0.68056 0.07149 0.0
C72 C 0.54322 0.69873 0.06958 0.0
C73 C 0.49 0.70026 0.07475 0.0
C74 C 0.50408 0.72984 0.07485 0.0
O75 O 0.60126 0.75464 0.06097 0.0
C76 C 0.60174 0.74259 0.08687 0.0
O77 O 0.59862 0.71463 0.08354 0.0
H78 H 0.56837 0.69022 0.0671 0.0
H79 H 0.49118 0.75061 0.07728 0.0
N80 N 0.54343 0.79829 0.06868 0.0
N81 N 0.52448 0.84777 0.06841 0.0
C82 C 0.55036 0.82785 0.07114 0.0
C83 C 0.51246 0.79971 0.06419 0.0
C84 C 0.50065 0.83005 0.06405 0.0
C85 C 0.6243 0.73284 0.06032 0.0
O86 O 0.63124 0.71527 0.06708 0.0
H87 H 0.57359 0.83451 0.07493 0.0
H88 H 0.49936 0.77995 0.06122 0.0
O89 O 0.59315 0.76613 0.08227 0.0
H90 H 0.46367 0.69389 0.07703 0.0
H91 H 0.47666 0.8385 0.06084 0.0
Cu92 Cu 0.26229 0.43455 0.95461 0.0
N93 N 0.2676 0.41248 0.94422 0.0
N94 N 0.26834 0.40027 0.93011 0.0
C95 C 0.26178 0.42268 0.93606 0.0
C96 C 0.2787 0.37513 0.93474 0.0
C97 C 0.27828 0.38275 0.94341 0.0
O98 O 0.21807 0.4593 0.95353 0.0
C99 C 0.32188 0.47541 0.95132 0.0
O100 O 0.30436 0.48335 0.94425 0.0
H101 H 0.25256 0.44593 0.93454 0.0
H102 H 0.28542 0.36769 0.94876 0.0
N103 N 0.2568 0.40591 0.96368 0.0
N104 N 0.26509 0.37911 0.976 0.0
C105 C 0.27617 0.40328 0.97107 0.0
C106 C 0.23259 0.38284 0.96398 0.0
C107 C 0.23765 0.36627 0.97153 0.0
C108 C 0.199 0.46777 0.95996 0.0
O109 O 0.21131 0.46323 0.96785 0.0
H110 H 0.29836 0.41839 0.97271 0.0
H111 H 0.21277 0.37829 0.95899 0.0
O112 O 0.30713 0.45706 0.95671 0.0
H113 H 0.28663 0.35292 0.93206 0.0
H114 H 0.22207 0.34644 0.97359 0.0
Cu115 Cu 0.5714 0.76638 0.19579 0.0
N116 N 0.53784 0.79849 0.19619 0.0
N117 N 0.51567 0.84683 0.19696 0.0
C118 C 0.54514 0.82864 0.19773 0.0
C119 C 0.48881 0.82707 0.19489 0.0
C120 C 0.50259 0.79732 0.1944 0.0
O121 O 0.60838 0.77859 0.20416 0.0
C122 C 0.6085 0.74611 0.18014 0.0
O123 O 0.62438 0.72452 0.18481 0.0
H124 H 0.57174 0.83692 0.19929 0.0
H125 H 0.48816 0.77642 0.19266 0.0
N126 N 0.54892 0.7294 0.19926 0.0
N127 N 0.53243 0.67967 0.20091 0.0
C128 C 0.55143 0.70014 0.1961 0.0
C129 C 0.52737 0.72731 0.20619 0.0
C130 C 0.51724 0.69682 0.20723 0.0
C131 C 0.62047 0.76103 0.21016 0.0
O132 O 0.612 0.73139 0.21013 0.0
H133 H 0.56755 0.69379 0.19058 0.0
H134 H 0.52007 0.74668 0.21029 0.0
O135 O 0.58704 0.76508 0.18375 0.0
H136 H 0.46136 0.83362 0.19351 0.0
H137 H 0.50001 0.68795 0.21227 0.0
Cu138 Cu 0.2636 0.08332 0.45513 0.0
N139 N 0.26945 0.10654 0.44493 0.0
N140 N 0.27105 0.11918 0.43081 0.0
C141 C 0.2597 0.09838 0.4368 0.0
C142 C 0.2883 0.14132 0.43544 0.0
C143 C 0.28729 0.13347 0.44409 0.0
O144 O 0.30573 0.05616 0.45653 0.0
C145 C 0.2019 0.04749 0.46039 0.0
O146 O 0.21912 0.04315 0.46775 0.0
H147 H 0.24532 0.0772 0.43532 0.0
H148 H 0.29973 0.14603 0.44937 0.0
N149 N 0.26467 0.10987 0.46482 0.0
N150 N 0.25364 0.13177 0.47771 0.0
C151 C 0.23978 0.11547 0.47097 0.0
C152 C 0.29486 0.12338 0.46775 0.0
C153 C 0.28821 0.13683 0.47567 0.0
C154 C 0.32457 0.04591 0.45027 0.0
O155 O 0.31271 0.04936 0.4423 0.0
H156 H 0.21279 0.10634 0.47078 0.0
H157 H 0.32048 0.1222 0.46452 0.0
O158 O 0.21722 0.06232 0.45431 0.0
H159 H 0.30204 0.16123 0.43276 0.0
H160 H 0.30757 0.14869 0.47973 0.0
Cu161 Cu 0.95521 0.75948 0.69586 0.0
N162 N 0.98581 0.72551 0.69442 0.0
N163 N 1.00623 0.67667 0.69434 0.0
C164 C 0.98181 0.69658 0.69763 0.0
C165 C 0.02648 0.6938 0.68893 0.0
C166 C 0.01386 0.72393 0.68901 0.0
O167 O 0.92721 0.75175 0.70628 0.0
C168 C 0.92087 0.74226 0.68009 0.0
O169 O 0.92652 0.71389 0.68295 0.0
H170 H 0.96016 0.68987 0.70188 0.0
H171 H 0.02347 0.7431 0.68513 0.0
N172 N 0.98313 0.79492 0.69782 0.0
N173 N 1.00214 0.8443 0.69836 0.0
C174 C 0.97543 0.82484 0.69591 0.0
C175 C 0.01561 0.79543 0.70162 0.0
C176 C 0.02741 0.82573 0.70196 0.0
C177 C 0.89861 0.73582 0.7068 0.0
O178 O 0.88351 0.72511 0.6997 0.0
H179 H 0.95087 0.83207 0.69273 0.0
H180 H 0.02962 0.77513 0.70403 0.0
O181 O 0.92844 0.7652 0.68501 0.0
H182 H 0.04828 0.68499 0.68503 0.0
H183 H 0.0524 0.83346 0.70481 0.0
Cu184 Cu 0.76163 0.58173 0.81162 0.0
N185 N 0.76451 0.60287 0.82232 0.0
N186 N 0.76519 0.61452 0.83652 0.0
C187 C 0.75957 0.59219 0.83047 0.0
C188 C 0.77396 0.64019 0.83196 0.0
C189 C 0.77354 0.63294 0.82327 0.0
O190 O 0.71569 0.55967 0.8105 0.0
C191 C 0.82369 0.54437 0.81577 0.0
O192 O 0.81104 0.54403 0.82368 0.0
H193 H 0.75231 0.56853 0.83196 0.0
H194 H 0.77993 0.64847 0.81799 0.0
N195 N 0.76021 0.61132 0.80269 0.0
N196 N 0.76912 0.63548 0.79003 0.0
C197 C 0.78162 0.61394 0.79569 0.0
C198 C 0.7336 0.632 0.80142 0.0
C199 C 0.73897 0.64687 0.79363 0.0
C200 C 0.70133 0.54049 0.81573 0.0
O201 O 0.71961 0.53073 0.82249 0.0
H202 H 0.80481 0.59934 0.79457 0.0
H203 H 0.71114 0.6352 0.80573 0.0
O204 O 0.80522 0.55705 0.80975 0.0
H205 H 0.78114 0.66251 0.8347 0.0
H206 H 0.72171 0.66438 0.79077 0.0
Cu207 Cu 0.44927 0.26628 0.07181 0.0
N208 N 0.48236 0.29867 0.07137 0.0
N209 N 0.5035 0.34721 0.07086 0.0
C210 C 0.474 0.32911 0.071 0.0
C211 C 0.53153 0.32735 0.07115 0.0
C212 C 0.5184 0.2974 0.07152 0.0
O213 O 0.41258 0.27797 0.06328 0.0
C214 C 0.41172 0.24703 0.08752 0.0
O215 O 0.39585 0.22529 0.08293 0.0
H216 H 0.44674 0.33773 0.0708 0.0
H217 H 0.53402 0.27624 0.07196 0.0
N218 N 0.4725 0.22913 0.06866 0.0
N219 N 0.49157 0.17977 0.06786 0.0
C220 C 0.46936 0.20002 0.07188 0.0
C221 C 0.49717 0.22695 0.06236 0.0
C222 C 0.50908 0.1967 0.06188 0.0
C223 C 0.40191 0.26054 0.0571 0.0
O224 O 0.41174 0.2312 0.057 0.0
H225 H 0.45162 0.19383 0.07712 0.0
H226 H 0.50582 0.24614 0.05837 0.0
O227 O 0.43322 0.26572 0.08384 0.0
H228 H 0.55949 0.33399 0.07129 0.0
H229 H 0.52865 0.18771 0.05738 0.0
Cu230 Cu 0.76178 0.93187 0.31322 0.0
N231 N 0.7621 0.90964 0.32369 0.0
N232 N 0.76127 0.89846 0.3379 0.0
C233 C 0.76075 0.92122 0.33182 0.0
C234 C 0.76308 0.87164 0.33335 0.0
C235 C 0.76347 0.87859 0.32465 0.0
O236 O 0.80546 0.95745 0.31327 0.0
C237 C 0.70258 0.96932 0.3066 0.0
O238 O 0.72026 0.97107 0.29928 0.0
H239 H 0.75894 0.94583 0.3332 0.0
H240 H 0.76458 0.86204 0.31939 0.0
N241 N 0.76377 0.90314 0.30399 0.0
N242 N 0.75335 0.8762 0.29179 0.0
C243 C 0.74187 0.89931 0.29705 0.0
C244 C 0.78983 0.88174 0.30302 0.0
C245 C 0.78344 0.86508 0.29556 0.0
C246 C 0.82554 0.96089 0.30667 0.0
O247 O 0.81466 0.95012 0.29914 0.0
H248 H 0.71787 0.91284 0.29591 0.0
H249 H 0.81224 0.87875 0.30742 0.0
O250 O 0.71671 0.95537 0.31305 0.0
H251 H 0.76444 0.84848 0.33606 0.0
H252 H 0.80017 0.84671 0.29298 0.0
Cu253 Cu 0.06885 0.25898 0.57175 0.0
N254 N 0.03846 0.22467 0.57267 0.0
N255 N 0.01899 0.17558 0.57231 0.0
C256 C 0.04586 0.19521 0.57031 0.0
C257 C 0.9935 0.19346 0.57599 0.0
C258 C 1.00566 0.22372 0.57623 0.0
O259 O 0.09811 0.2525 0.56145 0.0
C260 C 0.10136 0.2413 0.5878 0.0
O261 O 0.09563 0.21293 0.58496 0.0
H262 H 0.07073 0.1882 0.56732 0.0
H263 H 0.99195 0.24354 0.579 0.0
N264 N 0.04075 0.29441 0.5698 0.0
N265 N 0.02122 0.3437 0.56944 0.0
C266 C 0.04756 0.32411 0.5721 0.0
C267 C 1.00927 0.29525 0.56553 0.0
C268 C 0.99714 0.32549 0.56531 0.0
C269 C 0.12352 0.23288 0.5607 0.0
O270 O 0.13477 0.21772 0.56759 0.0
H271 H 0.07127 0.33112 0.57566 0.0
H272 H 0.99626 0.27523 0.56267 0.0
O273 O 0.09442 0.26422 0.5828 0.0
H274 H 0.96848 0.1851 0.57862 0.0
H275 H 0.97285 0.33351 0.56215 0.0
Cu276 Cu 0.76347 0.93714 0.45534 0.0
N277 N 0.76874 0.91452 0.44504 0.0
N278 N 0.76905 0.90206 0.43094 0.0
C279 C 0.76196 0.92433 0.43689 0.0
C280 C 0.78056 0.87728 0.43557 0.0
C281 C 0.78038 0.88505 0.44424 0.0
O282 O 0.71941 0.96183 0.45415 0.0
C283 C 0.82499 0.97446 0.45153 0.0
O284 O 0.81081 0.97645 0.44375 0.0
H285 H 0.75185 0.94731 0.43537 0.0
H286 H 0.78841 0.87033 0.4496 0.0
N287 N 0.75748 0.90948 0.46461 0.0
N288 N 0.76433 0.88548 0.4774 0.0
C289 C 0.7791 0.90503 0.47155 0.0
C290 C 0.72831 0.89198 0.46609 0.0
C291 C 0.73239 0.87725 0.47396 0.0
C292 C 0.70058 0.97047 0.46059 0.0
O293 O 0.71328 0.96632 0.46847 0.0
H294 H 0.80446 0.91681 0.47246 0.0
H295 H 0.70524 0.89076 0.46183 0.0
O296 O 0.80762 0.96061 0.45748 0.0
H297 H 0.78921 0.85528 0.43288 0.0
H298 H 0.71321 0.86185 0.47697 0.0
Cu299 Cu 0.06742 0.26277 0.69585 0.0
N300 N 0.03677 0.29677 0.69445 0.0
N301 N 0.01608 0.34554 0.69457 0.0
C302 C 0.04064 0.32551 0.69781 0.0
C303 C 0.9959 0.32868 0.68902 0.0
C304 C 1.00868 0.2986 0.68898 0.0
O305 O 0.09591 0.27022 0.70629 0.0
C306 C 0.10165 0.28059 0.68021 0.0
O307 O 0.0967 0.30882 0.68323 0.0
H308 H 0.06228 0.33203 0.70214 0.0
H309 H 0.99913 0.27963 0.68499 0.0
N310 N 0.03944 0.22733 0.69769 0.0
N311 N 0.02017 0.17804 0.69815 0.0
C312 C 0.04733 0.19731 0.69596 0.0
C313 C 1.00639 0.22703 0.7011 0.0
C314 C 0.99443 0.19679 0.70139 0.0
C315 C 0.12384 0.28706 0.70688 0.0
O316 O 0.13786 0.29888 0.69983 0.0
H317 H 0.07229 0.18986 0.69309 0.0
H318 H 0.99204 0.24746 0.70327 0.0
O319 O 0.09367 0.25741 0.68498 0.0
H320 H 0.97404 0.33765 0.6851 0.0
H321 H 0.96896 0.18919 0.70394 0.0
Cu322 Cu 0.75965 0.58515 0.95475 0.0
N323 N 0.75337 0.60365 0.94377 0.0
N324 N 0.75213 0.61377 0.9295 0.0
C325 C 0.76453 0.59464 0.93583 0.0
C326 C 0.73241 0.63544 0.93364 0.0
C327 C 0.73311 0.62909 0.94237 0.0
O328 O 0.80727 0.56561 0.95597 0.0
C329 C 0.70184 0.54278 0.9512 0.0
O330 O 0.71697 0.539 0.94361 0.0
H331 H 0.7811 0.57445 0.93468 0.0
H332 H 0.71905 0.64176 0.94736 0.0
N333 N 0.75781 0.61689 0.9631 0.0
N334 N 0.74543 0.64364 0.97519 0.0
C335 C 0.74305 0.61591 0.97107 0.0
C336 C 0.77022 0.64606 0.96221 0.0
C337 C 0.76249 0.66262 0.96962 0.0
C338 C 0.82127 0.54453 0.95125 0.0
O339 O 0.80197 0.53169 0.94508 0.0
H340 H 0.73018 0.5955 0.97372 0.0
H341 H 0.78369 0.65475 0.95652 0.0
O342 O 0.71775 0.55903 0.95696 0.0
H343 H 0.71749 0.65406 0.93056 0.0
H344 H 0.7692 0.68671 0.97083 0.0
Cu345 Cu 0.45134 0.26318 0.19665 0.0
N346 N 0.48219 0.22907 0.1958 0.0
N347 N 0.50203 0.17993 0.19613 0.0
C348 C 0.47522 0.19965 0.19826 0.0
C349 C 0.52696 0.19786 0.19227 0.0
C350 C 0.51461 0.22811 0.19206 0.0
O351 O 0.42125 0.25598 0.2068 0.0
C352 C 0.4176 0.24489 0.18085 0.0
O353 O 0.41969 0.21692 0.18423 0.0
H354 H 0.45065 0.19283 0.2014 0.0
H355 H 0.52784 0.24789 0.18918 0.0
N356 N 0.47857 0.29878 0.19899 0.0
N357 N 0.49688 0.34821 0.19999 0.0
C358 C 0.4737 0.32824 0.19616 0.0
C359 C 0.50578 0.30021 0.20472 0.0
C360 C 0.51708 0.33059 0.20536 0.0
C361 C 0.39499 0.23726 0.20743 0.0
O362 O 0.38297 0.22305 0.20047 0.0
H363 H 0.45271 0.33508 0.19168 0.0
H364 H 0.51604 0.28057 0.20835 0.0
O365 O 0.42727 0.26821 0.1854 0.0
H366 H 0.55176 0.18961 0.18948 0.0
H367 H 0.53828 0.33913 0.20954 0.0
H368 H 0.87715 0.96523 0.29419 0.0
H369 H 0.93932 0.98192 0.29586 0.0
H370 H 0.92087 1.00148 0.32286 0.0
H371 H 0.85837 0.9848 0.32125 0.0
H372 H 0.96023 0.04744 0.315 0.0
H373 H 0.96417 0.93566 0.31683 0.0
H374 H 0.95236 0.88225 0.31176 0.0
H375 H 0.01329 0.89956 0.28876 0.0
H376 H 0.02505 0.95324 0.29363 0.0
H377 H 0.13781 0.06516 0.3288 0.0
H378 H 0.07717 0.04512 0.327 0.0
H379 H 0.10255 0.01561 0.30103 0.0
H380 H 0.16421 0.03459 0.30298 0.0
H381 H 0.05939 0.97484 0.30791 0.0
H382 H 0.0557 0.0856 0.30558 0.0
H383 H 0.06704 0.13979 0.31004 0.0
H384 H 1.00501 0.12585 0.33306 0.0
H385 H 0.9937 0.07143 0.32879 0.0
C386 C 0.88611 0.97327 0.30049 0.0
C387 C 0.86258 0.97356 0.3076 0.0
C388 C 0.92186 0.98265 0.30144 0.0
C389 C 0.93508 0.99255 0.30952 0.0
C390 C 0.91141 0.99381 0.31657 0.0
C391 C 0.87562 0.98426 0.31564 0.0
C392 C 0.97358 1.00141 0.31061 0.0
C393 C 0.9819 0.03141 0.31356 0.0
C394 C 1.00201 0.98091 0.30847 0.0
C395 C 0.9952 0.94856 0.30556 0.0
C396 C 0.97483 0.92815 0.31066 0.0
C397 C 0.96818 0.89782 0.30783 0.0
C398 C 0.98199 0.88754 0.29993 0.0
C399 C 1.00257 0.90756 0.29487 0.0
C400 C 1.00926 0.93793 0.29767 0.0
C401 C 0.13067 0.05402 0.32273 0.0
C402 C 0.1558 0.05165 0.31601 0.0
C403 C 0.09578 0.04278 0.32168 0.0
C404 C 0.08464 0.02967 0.31377 0.0
C405 C 0.11022 0.02586 0.30717 0.0
C406 C 0.14553 0.03663 0.30829 0.0
C407 C 0.04616 0.02088 0.31238 0.0
C408 C 0.0378 0.99092 0.30935 0.0
C409 C 0.01761 0.04157 0.31435 0.0
C410 C 0.02412 0.07436 0.3169 0.0
C411 C 0.04466 0.09404 0.31162 0.0
C412 C 0.05106 0.1248 0.31411 0.0
C413 C 0.03682 0.13624 0.32184 0.0
C414 C 0.01605 0.11695 0.32708 0.0
C415 C 1.00961 0.08616 0.32462 0.0
H416 H 0.04181 0.16005 0.32375 0.0
H417 H 0.97681 0.86405 0.29775 0.0
H418 H 0.94386 0.63602 0.57041 0.0
H419 H 0.94782 0.57927 0.57125 0.0
H420 H 0.06317 0.58513 0.57197 0.0
H421 H 0.05936 0.6417 0.57111 0.0
H422 H 0.04311 0.54209 0.56082 0.0
H423 H 0.0134 0.56707 0.5902 0.0
H424 H 0.9781 0.59107 0.60189 0.0
H425 H 0.88564 0.53868 0.59403 0.0
H426 H 0.92028 0.51466 0.58221 0.0
H427 H 0.07686 0.38395 0.57137 0.0
H428 H 0.07346 0.44068 0.57235 0.0
H429 H 0.95822 0.43624 0.5706 0.0
H430 H 0.96135 0.37958 0.56986 0.0
H431 H 0.97884 0.47843 0.58254 0.0
H432 H 1.00823 0.45466 0.55297 0.0
H433 H 0.04346 0.43076 0.54125 0.0
H434 H 0.13672 0.48121 0.54955 0.0
H435 H 0.10213 0.5051 0.5614 0.0
C436 C 0.97003 0.62526 0.57086 0.0
C437 C 1.00128 0.64349 0.57066 0.0
C438 C 0.97229 0.59276 0.57134 0.0
C439 C 1.00583 0.57782 0.57173 0.0
C440 C 0.037 0.59602 0.57163 0.0
C441 C 0.03476 0.62843 0.57112 0.0
C442 C 1.00861 0.54323 0.57197 0.0
C443 C 0.02947 0.52824 0.56566 0.0
C444 C 0.9902 0.52498 0.57814 0.0
C445 C 0.96935 0.5393 0.58527 0.0
C446 C 0.98546 0.56084 0.59092 0.0
C447 C 0.96559 0.57442 0.59758 0.0
C448 C 0.92963 0.56646 0.59869 0.0
C449 C 0.91349 0.54485 0.59316 0.0
C450 C 0.93324 0.53122 0.58648 0.0
C451 C 0.05077 0.39498 0.57131 0.0
C452 C 0.0194 0.37711 0.57046 0.0
C453 C 0.04887 0.42747 0.5718 0.0
C454 C 0.01559 0.44281 0.57143 0.0
C455 C 0.98421 0.42499 0.57086 0.0
C456 C 0.98609 0.39255 0.57035 0.0
C457 C 0.0134 0.47741 0.57142 0.0
C458 C 0.99259 0.49235 0.57774 0.0
C459 C 0.03187 0.49567 0.56526 0.0
C460 C 0.05269 0.48141 0.55813 0.0
C461 C 0.03632 0.46046 0.55234 0.0
C462 C 0.05616 0.44696 0.54566 0.0
C463 C 0.09233 0.45439 0.54467 0.0
C464 C 0.10871 0.47543 0.55033 0.0
C465 C 0.089 0.48898 0.55703 0.0
H466 H 0.10764 0.44391 0.53949 0.0
H467 H 0.91428 0.577 0.60385 0.0
H468 H 0.65809 0.50993 0.82723 0.0
H469 H 0.59409 0.49915 0.8259 0.0
H470 H 0.59312 0.53998 0.80037 0.0
H471 H 0.65699 0.5518 0.8018 0.0
H472 H 0.53727 0.55944 0.80849 0.0
H473 H 0.58787 0.45836 0.80425 0.0
H474 H 0.62541 0.41261 0.80762 0.0
H475 H 0.56773 0.3986 0.83129 0.0
H476 H 0.53014 0.44452 0.82811 0.0
H477 H 0.36715 0.49759 0.79534 0.0
H478 H 0.4307 0.5104 0.79693 0.0
H479 H 0.42781 0.48179 0.82369 0.0
H480 H 0.36415 0.46901 0.82215 0.0
H481 H 0.48502 0.45614 0.81498 0.0
H482 H 0.43352 0.55774 0.81866 0.0
H483 H 0.39571 0.60268 0.81468 0.0
H484 H 0.45519 0.6144 0.79118 0.0
H485 H 0.49306 0.56924 0.79496 0.0
C486 C 0.6444 0.51637 0.82129 0.0
C487 C 0.66291 0.53163 0.81461 0.0
C488 C 0.60766 0.51007 0.82052 0.0
C489 C 0.5885 0.51833 0.81298 0.0
C490 C 0.60705 0.53333 0.80626 0.0
C491 C 0.64373 0.53994 0.80707 0.0
C492 C 0.54906 0.51216 0.81219 0.0
C493 C 0.52603 0.53668 0.80979 0.0
C494 C 0.53387 0.48269 0.81405 0.0
C495 C 0.55643 0.45507 0.81598 0.0
C496 C 0.58338 0.44566 0.8102 0.0
C497 C 0.60463 0.41968 0.81207 0.0
C498 C 0.59902 0.40276 0.81967 0.0
C499 C 0.57208 0.41175 0.82541 0.0
C500 C 0.55077 0.43774 0.82357 0.0
C501 C 0.37985 0.49439 0.8016 0.0
C502 C 0.36035 0.48232 0.80862 0.0
C503 C 0.41628 0.50176 0.80251 0.0
C504 C 0.43419 0.49715 0.81044 0.0
C505 C 0.41468 0.48555 0.81749 0.0
C506 C 0.37815 0.47843 0.81662 0.0
C507 C 0.47347 0.50338 0.81128 0.0
C508 C 0.4964 0.47886 0.81369 0.0
C509 C 0.48859 0.53272 0.80933 0.0
C510 C 0.4659 0.55991 0.80706 0.0
C511 C 0.43834 0.56974 0.81261 0.0
C512 C 0.41694 0.59528 0.8104 0.0
C513 C 0.42298 0.61134 0.80267 0.0
C514 C 0.45051 0.60192 0.79716 0.0
C515 C 0.47197 0.57637 0.79933 0.0
H516 H 0.40638 0.63111 0.80097 0.0
H517 H 0.6155 0.38265 0.82111 0.0
H518 H 0.55285 0.14652 0.06703 0.0
H519 H 0.55961 0.0902 0.06837 0.0
H520 H 0.44619 0.08164 0.07309 0.0
H521 H 0.43971 0.13837 0.07205 0.0
H522 H 0.48004 0.04186 0.08285 0.0
H523 H 0.48527 0.06664 0.05268 0.0
H524 H 0.50669 0.09362 0.03961 0.0
H525 H 0.61248 0.05701 0.04386 0.0
H526 H 0.59179 0.03015 0.05704 0.0
H527 H 0.46442 0.8826 0.07007 0.0
H528 H 0.46047 0.93923 0.07121 0.0
H529 H 0.57575 0.94536 0.07071 0.0
H530 H 0.57982 0.88849 0.06953 0.0
H531 H 0.5419 0.98588 0.05911 0.0
H532 H 0.53305 0.95851 0.0892 0.0
H533 H 0.50836 0.93058 0.10176 0.0
H534 H 0.40485 0.9709 0.09687 0.0
H535 H 0.42881 0.99875 0.08419 0.0
C536 C 0.5294 0.13261 0.06839 0.0
C537 C 0.49569 0.1468 0.06934 0.0
C538 C 0.53323 0.10037 0.06912 0.0
C539 C 0.50327 0.08139 0.07061 0.0
C540 C 0.46973 0.09565 0.0719 0.0
C541 C 0.46601 0.12807 0.07131 0.0
C542 C 0.50691 0.04676 0.0706 0.0
C543 C 0.4932 0.02965 0.0776 0.0
C544 C 0.52455 0.03061 0.06383 0.0
C545 C 0.53705 0.04664 0.05589 0.0
C546 C 0.51316 0.06453 0.05086 0.0
C547 C 0.52516 0.07977 0.04343 0.0
C548 C 0.56095 0.0771 0.04092 0.0
C549 C 0.58478 0.0591 0.04582 0.0
C550 C 0.57293 0.04384 0.05327 0.0
C551 C 0.48895 0.89598 0.07022 0.0
C552 C 0.52245 0.88103 0.06967 0.0
C553 C 0.48665 0.92835 0.07094 0.0
C554 C 0.5178 0.94658 0.07109 0.0
C555 C 0.55135 0.93175 0.07063 0.0
C556 C 0.55367 0.89927 0.07001 0.0
C557 C 0.51517 0.98114 0.07134 0.0
C558 C 0.52894 0.99819 0.06437 0.0
C559 C 0.49709 0.99712 0.07805 0.0
C560 C 0.48267 0.9805 0.0857 0.0
C561 C 0.50496 0.96123 0.09076 0.0
C562 C 0.4911 0.94545 0.09791 0.0
C563 C 0.45504 0.9489 0.1001 0.0
C564 C 0.43277 0.96822 0.09516 0.0
C565 C 0.44648 0.98404 0.08799 0.0
H566 H 0.44436 0.93666 0.10564 0.0
H567 H 0.57019 0.08892 0.03516 0.0
H568 H 0.15642 0.46246 0.94544 0.0
H569 H 0.09309 0.47611 0.9439 0.0
H570 H 0.09317 0.51289 0.96991 0.0
H571 H 0.15606 0.49793 0.97161 0.0
H572 H 0.03619 0.48189 0.96813 0.0
H573 H 0.08993 0.55977 0.95031 0.0
H574 H 0.12809 0.58043 0.93867 0.0
H575 H 0.06733 0.52933 0.91975 0.0
H576 H 0.02907 0.50805 0.9313 0.0
H577 H 0.86762 0.56133 0.96436 0.0
H578 H 0.93157 0.54914 0.96573 0.0
H579 H 0.92696 0.49704 0.9419 0.0
H580 H 0.863 0.50897 0.94049 0.0
H581 H 0.98559 0.53644 0.94253 0.0
H582 H 0.93161 0.4594 0.96092 0.0
H583 H 0.89334 0.44098 0.97283 0.0
H584 H 0.95516 0.49424 0.99107 0.0
H585 H 0.99351 0.51332 0.97924 0.0
C586 C 0.1431 0.47382 0.9508 0.0
C587 C 0.16152 0.47919 0.95864 0.0
C588 C 0.10673 0.48176 0.9499 0.0
C589 C 0.08798 0.49601 0.95674 0.0
C590 C 0.10665 0.5019 0.96452 0.0
C591 C 0.14282 0.49347 0.96547 0.0
C592 C 0.04874 0.50368 0.95594 0.0
C593 C 0.0254 0.49429 0.96258 0.0
C594 C 0.03396 0.51929 0.94864 0.0
C595 C 0.05686 0.53209 0.94168 0.0
C596 C 0.08487 0.55277 0.94368 0.0
C597 C 0.10649 0.56462 0.93709 0.0
C598 C 0.1002 0.55613 0.92848 0.0
C599 C 0.0722 0.53585 0.92643 0.0
C600 C 0.05051 0.52391 0.93299 0.0
C601 C 0.88011 0.54712 0.95942 0.0
C602 C 0.85993 0.53606 0.95233 0.0
C603 C 0.91676 0.54011 0.96023 0.0
C604 C 0.93425 0.52202 0.95394 0.0
C605 C 0.91421 0.51104 0.94684 0.0
C606 C 0.8775 0.51777 0.94607 0.0
C607 C 0.97343 0.51476 0.95472 0.0
C608 C 0.99662 0.52417 0.94808 0.0
C609 C 0.98815 0.49956 0.96206 0.0
C610 C 0.9652 0.48803 0.96918 0.0
C611 C 0.93686 0.46739 0.96746 0.0
C612 C 0.91519 0.45679 0.97419 0.0
C613 C 0.92175 0.4665 0.98269 0.0
C614 C 0.95007 0.48677 0.98448 0.0
C615 C 0.9718 0.49746 0.97776 0.0
H616 H 0.90495 0.45827 0.9879 0.0
H617 H 0.11697 0.56532 0.92339 0.0
H618 H 0.51114 0.3899 0.21262 0.0
H619 H 0.51494 0.44645 0.21121 0.0
H620 H 0.49056 0.43919 0.18395 0.0
H621 H 0.48624 0.38222 0.18538 0.0
H622 H 0.55224 0.48001 0.18885 0.0
H623 H 0.42771 0.46415 0.19492 0.0
H624 H 0.37644 0.44236 0.20286 0.0
H625 H 0.41227 0.48745 0.22617 0.0
H626 H 0.4641 0.50913 0.21839 0.0
H627 H 0.53359 0.64661 0.18588 0.0
H628 H 0.5258 0.59021 0.18426 0.0
H629 H 0.51812 0.58098 0.21203 0.0
H630 H 0.52512 0.63701 0.21362 0.0
H631 H 0.46842 0.54795 0.20503 0.0
H632 H 0.59493 0.55955 0.19991 0.0
H633 H 0.64846 0.58034 0.19264 0.0
H634 H 0.61181 0.54287 0.16838 0.0
H635 H 0.55781 0.52216 0.1755 0.0
C636 C 0.50671 0.4003 0.20632 0.0
C637 C 0.49845 0.38162 0.1991 0.0
C638 C 0.50876 0.43262 0.20553 0.0
C639 C 0.50305 0.44703 0.19748 0.0
C640 C 0.49511 0.42851 0.19022 0.0
C641 C 0.49241 0.39607 0.19105 0.0
C642 C 0.50509 0.48149 0.1968 0.0
C643 C 0.53354 0.49499 0.19224 0.0
C644 C 0.4812 0.50092 0.20139 0.0
C645 C 0.44996 0.48805 0.20608 0.0
C646 C 0.42484 0.4692 0.20175 0.0
C647 C 0.39564 0.45691 0.20622 0.0
C648 C 0.39114 0.46346 0.21502 0.0
C649 C 0.4158 0.48238 0.21935 0.0
C650 C 0.44508 0.4947 0.21492 0.0
C651 C 0.53053 0.63244 0.19163 0.0
C652 C 0.52974 0.64634 0.19988 0.0
C653 C 0.5261 0.60018 0.19071 0.0
C654 C 0.52149 0.58111 0.19803 0.0
C655 C 0.52129 0.59504 0.20626 0.0
C656 C 0.52527 0.62717 0.20717 0.0
C657 C 0.51615 0.54676 0.19724 0.0
C658 C 0.48699 0.53319 0.20154 0.0
C659 C 0.53969 0.5273 0.19249 0.0
C660 C 0.57215 0.53963 0.18822 0.0
C661 C 0.59816 0.55595 0.19302 0.0
C662 C 0.6286 0.56768 0.18893 0.0
C663 C 0.63347 0.56302 0.18005 0.0
C664 C 0.60796 0.54652 0.17525 0.0
C665 C 0.57745 0.53476 0.17931 0.0
H666 H 0.65706 0.57212 0.1769 0.0
H667 H 0.36851 0.45393 0.21847 0.0
H668 H 0.37058 0.02047 0.43845 0.0
H669 H 0.43369 1.00712 0.44047 0.0
H670 H 0.42691 0.03241 0.46745 0.0
H671 H 0.36362 0.04615 0.46545 0.0
H672 H 0.48533 0.05768 0.4602 0.0
H673 H 0.43396 0.9561 0.46119 0.0
H674 H 0.39689 0.91214 0.45621 0.0
H675 H 0.45889 0.90576 0.43292 0.0
H676 H 0.49605 0.94999 0.43772 0.0
H677 H 0.65468 0.99367 0.4728 0.0
H678 H 0.59118 1.00644 0.47109 0.0
H679 H 0.5968 0.9837 0.44392 0.0
H680 H 0.66045 0.97076 0.44559 0.0
H681 H 0.5389 0.95686 0.45146 0.0
H682 H 0.58996 0.05887 0.45049 0.0
H683 H 0.627 0.10272 0.45557 0.0
H684 H 0.56549 0.10801 0.47895 0.0
H685 H 0.52837 0.06388 0.47406 0.0
C686 C 0.38229 0.02284 0.44486 0.0
C687 C 0.36181 0.03434 0.45179 0.0
C688 C 0.4185 0.01511 0.44601 0.0
C689 C 0.43524 0.01856 0.45413 0.0
C690 C 0.41472 0.02953 0.46111 0.0
C691 C 0.3784 0.03718 0.45997 0.0
C692 C 0.47439 0.01187 0.45522 0.0
C693 C 0.49691 0.03544 0.45842 0.0
C694 C 0.48987 0.98315 0.45269 0.0
C695 C 0.46756 0.95657 0.44978 0.0
C696 C 0.4395 0.94551 0.45498 0.0
C697 C 0.41851 0.9205 0.45219 0.0
C698 C 0.42547 0.90622 0.44424 0.0
C699 C 0.4535 0.91687 0.43907 0.0
C700 C 0.47455 0.94189 0.44183 0.0
C701 C 0.64259 0.99171 0.46643 0.0
C702 C 0.66286 0.98124 0.45933 0.0
C703 C 0.60618 0.99909 0.46546 0.0
C704 C 0.58904 0.99618 0.45736 0.0
C705 C 0.60931 0.98613 0.45024 0.0
C706 C 0.64583 0.97892 0.45119 0.0
C707 C 0.54982 1.00269 0.45642 0.0
C708 C 0.52729 0.97908 0.45325 0.0
C709 C 0.53432 0.03134 0.45898 0.0
C710 C 0.55662 0.05785 0.46195 0.0
C711 C 0.58453 0.0692 0.45675 0.0
C712 C 0.6055 0.09414 0.45959 0.0
C713 C 0.59867 0.10808 0.46759 0.0
C714 C 0.57079 0.09715 0.47276 0.0
C715 C 0.54975 0.07219 0.46996 0.0
H716 H 0.61493 0.1274 0.46977 0.0
H717 H 0.40919 0.88685 0.4421 0.0
H718 H 0.96071 0.14231 0.69643 0.0
H719 H 0.95773 0.0857 0.69587 0.0
H720 H 0.07298 0.0805 0.69748 0.0
H721 H 0.07617 0.13736 0.69805 0.0
H722 H 0.04736 0.03947 0.6858 0.0
H723 H 0.02078 0.06635 0.71525 0.0
H724 H 0.98898 0.09373 0.72696 0.0
H725 H 0.8896 0.05288 0.7187 0.0
H726 H 0.92075 0.02557 0.70686 0.0
H727 H 0.06155 0.88068 0.6979 0.0
H728 H 0.06395 0.93725 0.69724 0.0
H729 H 0.94856 0.94125 0.69604 0.0
H730 H 0.94588 0.8845 0.69701 0.0
H731 H 0.97374 0.98295 0.70731 0.0
H732 H 1.00061 0.95507 0.67802 0.0
H733 H 0.03256 0.92762 0.66634 0.0
H734 H 0.13144 0.97008 0.67431 0.0
H735 H 0.10016 0.99748 0.68611 0.0
C736 C 0.98547 0.12921 0.69672 0.0
C737 C 0.01869 0.14452 0.69738 0.0
C738 C 0.98371 0.09676 0.69639 0.0
C739 C 0.01508 0.07872 0.69678 0.0
C740 C 0.04838 0.09388 0.69719 0.0
C741 C 0.05018 0.12644 0.69749 0.0
C742 C 0.01302 0.04409 0.69688 0.0
C743 C 0.03163 0.02709 0.69057 0.0
C744 C 0.99182 0.02787 0.70298 0.0
C745 C 0.97305 0.04416 0.71012 0.0
C746 C 0.9921 0.06339 0.71589 0.0
C747 C 0.9742 0.07886 0.72256 0.0
C748 C 0.93728 0.07511 0.72356 0.0
C749 C 0.91819 0.0558 0.71791 0.0
C750 C 0.93596 0.0403 0.71122 0.0
C751 C 0.0366 0.89348 0.69754 0.0
C752 C 1.00348 0.87783 0.69754 0.0
C753 C 0.03806 0.92594 0.69707 0.0
C754 C 1.00646 0.94363 0.69649 0.0
C755 C 0.97334 0.92814 0.69645 0.0
C756 C 0.97185 0.89561 0.69693 0.0
C757 C 1.00804 0.97827 0.69621 0.0
C758 C 0.98937 0.99529 0.70251 0.0
C759 C 0.02921 0.99448 0.69011 0.0
C760 C 0.04808 0.97811 0.683 0.0
C761 C 0.02922 0.95837 0.67732 0.0
C762 C 0.0472 0.94286 0.67067 0.0
C763 C 0.08402 0.94705 0.6696 0.0
C764 C 0.10292 0.96683 0.67515 0.0
C765 C 0.08507 0.98239 0.68182 0.0
H766 H 0.0979 0.93501 0.66445 0.0
H767 H 0.92347 0.08711 0.72873 0.0
H768 H 0.65611 0.98174 0.29323 0.0
H769 H 0.59292 0.99629 0.29411 0.0
H770 H 0.60065 0.99782 0.32202 0.0
H771 H 0.66342 0.98176 0.32116 0.0
H772 H 0.5422 0.9717 0.31821 0.0
H773 H 0.59568 0.06629 0.30841 0.0
H774 H 0.63191 0.10012 0.29901 0.0
H775 H 0.56415 0.07802 0.2773 0.0
H776 H 0.52776 0.04373 0.28655 0.0
H777 H 0.39192 0.07098 0.32667 0.0
H778 H 0.45215 0.04996 0.32449 0.0
H779 H 0.4213 0.01779 0.29908 0.0
H780 H 0.36024 0.03815 0.30134 0.0
H781 H 0.48886 0.05709 0.30077 0.0
H782 H 0.43282 0.96477 0.31195 0.0
H783 H 0.3967 0.93497 0.32237 0.0
H784 H 0.4706 0.95822 0.34277 0.0
H785 H 0.50689 0.98857 0.3325 0.0
C786 C 0.64445 0.98546 0.29956 0.0
C787 C 0.66495 0.98072 0.30712 0.0
C788 C 0.60821 0.99393 0.30006 0.0
C789 C 0.59175 0.99867 0.30814 0.0
C790 C 0.61242 0.99429 0.3157 0.0
C791 C 0.64846 0.98525 0.3152 0.0
C792 C 0.5529 1.00737 0.30875 0.0
C793 C 0.53081 0.99062 0.31444 0.0
C794 C 0.53737 0.03166 0.30374 0.0
C795 C 0.55925 0.05217 0.29815 0.0
C796 C 0.58869 0.06844 0.30162 0.0
C797 C 0.60922 0.08774 0.29632 0.0
C798 C 0.60041 0.09114 0.28756 0.0
C799 C 0.57098 0.07531 0.28408 0.0
C800 C 0.55038 0.05597 0.28935 0.0
C801 C 0.39776 0.05907 0.32066 0.0
C802 C 0.37129 0.05613 0.31418 0.0
C803 C 0.43222 0.04707 0.31943 0.0
C804 C 0.44125 0.03236 0.31163 0.0
C805 C 0.41485 0.02906 0.30516 0.0
C806 C 0.37996 0.04048 0.30647 0.0
C807 C 0.47872 0.02156 0.31023 0.0
C808 C 0.50045 0.03801 0.30444 0.0
C809 C 0.49411 0.9975 0.31528 0.0
C810 C 0.4724 0.97918 0.32147 0.0
C811 C 0.44119 0.96378 0.31867 0.0
C812 C 0.42072 0.94673 0.32455 0.0
C813 C 0.4313 0.94477 0.33323 0.0
C814 C 0.46242 0.95979 0.33605 0.0
C815 C 0.48297 0.97689 0.3302 0.0
H816 H 0.41542 0.93155 0.33777 0.0
H817 H 0.61633 0.1061 0.28347 0.0
H818 H 0.06467 0.87872 0.57417 0.0
H819 H 0.06865 0.93525 0.57301 0.0
H820 H 0.95456 0.94064 0.56867 0.0
H821 H 0.95024 0.88416 0.56992 0.0
H822 H 0.99143 0.97998 0.55794 0.0
H823 H 0.98827 0.95575 0.58835 0.0
H824 H 1.00805 0.92927 0.60172 0.0
H825 H 0.11241 0.97012 0.59931 0.0
H826 H 0.09339 0.99649 0.58584 0.0
H827 H 0.96139 0.13855 0.56964 0.0
H828 H 0.96104 0.08165 0.56875 0.0
H829 H 0.07584 0.08012 0.57209 0.0
H830 H 0.07632 0.13691 0.57305 0.0
H831 H 0.04058 0.03891 0.58295 0.0
H832 H 0.04353 0.06461 0.55286 0.0
H833 H 0.02406 0.0912 0.53948 0.0
H834 H 0.92068 0.0481 0.54129 0.0
H835 H 0.93938 0.02156 0.55476 0.0
C836 C 0.04038 0.89187 0.573 0.0
C837 C 1.00709 0.87679 0.57222 0.0
C838 C 0.04273 0.92421 0.5723 0.0
C839 C 0.01183 0.94219 0.57086 0.0
C840 C 0.97874 0.9272 0.56978 0.0
C841 C 0.97636 0.89484 0.57048 0.0
C842 C 0.01382 0.97666 0.5708 0.0
C843 C 1.0018 0.9929 0.56344 0.0
C844 C 0.0281 0.99347 0.57791 0.0
C845 C 0.03951 0.97783 0.58604 0.0
C846 C 0.01552 0.95889 0.59063 0.0
C847 C 0.02658 0.94393 0.59824 0.0
C848 C 0.06149 0.94794 0.60135 0.0
C849 C 0.08539 0.96699 0.59688 0.0
C850 C 0.07448 0.98197 0.58927 0.0
C851 C 0.98652 0.12607 0.57018 0.0
C852 C 0.01886 0.14222 0.57141 0.0
C853 C 0.98633 0.09361 0.56961 0.0
C854 C 0.01845 0.0767 0.57031 0.0
C855 C 0.05078 0.09274 0.57151 0.0
C856 C 0.05103 0.1252 0.57199 0.0
C857 C 0.0181 0.04222 0.57011 0.0
C858 C 0.03036 0.02599 0.57743 0.0
C859 C 1.00407 0.02547 0.56297 0.0
C860 C 0.99273 0.04133 0.55487 0.0
C861 C 0.01653 0.06101 0.55045 0.0
C862 C 1.00566 0.07603 0.54284 0.0
C863 C 0.97112 0.07141 0.53956 0.0
C864 C 0.94741 0.05169 0.54386 0.0
C865 C 0.95814 0.03662 0.55147 0.0
H866 H 0.96275 0.08306 0.53366 0.0
H867 H 0.07001 0.93634 0.60724 0.0
H868 H 0.15762 0.50049 0.79471 0.0
H869 H 0.09359 0.51236 0.7957 0.0
H870 H 0.09249 0.47774 0.82191 0.0
H871 H 0.15627 0.46545 0.82095 0.0
H872 H 0.03706 0.45518 0.81311 0.0
H873 H 0.0882 0.55648 0.81726 0.0
H874 H 0.12582 0.60169 0.81367 0.0
H875 H 0.06716 0.61462 0.78993 0.0
H876 H 0.02947 0.5692 0.79332 0.0
H877 H 0.86965 0.51545 0.82708 0.0
H878 H 0.93273 0.50264 0.82493 0.0
H879 H 0.92623 0.53666 0.79869 0.0
H880 H 0.86299 0.5499 0.80082 0.0
H881 H 0.98495 0.55896 0.80676 0.0
H882 H 0.93228 0.45857 0.80295 0.0
H883 H 0.89449 0.41364 0.8067 0.0
H884 H 0.956 0.39918 0.82996 0.0
H885 H 0.99388 0.44431 0.8264 0.0
C886 C 0.14387 0.49567 0.80072 0.0
C887 C 0.16227 0.48204 0.80775 0.0
C888 C 0.10718 0.50253 0.80128 0.0
C889 C 0.08805 0.49613 0.8089 0.0
C890 C 0.10649 0.48286 0.81595 0.0
C891 C 0.14311 0.47597 0.8154 0.0
C892 C 0.04871 0.50243 0.80948 0.0
C893 C 0.02577 0.478 0.81183 0.0
C894 C 0.03363 0.53194 0.80757 0.0
C895 C 0.05628 0.55923 0.8055 0.0
C896 C 0.08352 0.5688 0.81124 0.0
C897 C 0.10482 0.5945 0.80925 0.0
C898 C 0.09895 0.61096 0.80156 0.0
C899 C 0.07171 0.60181 0.79587 0.0
C900 C 0.05036 0.5761 0.79783 0.0
C901 C 0.88143 0.51991 0.82081 0.0
C902 C 0.86106 0.53365 0.81412 0.0
C903 C 0.9176 0.51248 0.81958 0.0
C904 C 0.93436 0.51846 0.81162 0.0
C905 C 0.91399 0.53179 0.80489 0.0
C906 C 0.87772 0.53917 0.8061 0.0
C907 C 0.97337 0.51178 0.81047 0.0
C908 C 0.99624 0.53612 0.80801 0.0
C909 C 0.98841 0.48219 0.81229 0.0
C910 C 0.96572 0.455 0.81445 0.0
C911 C 0.93758 0.44596 0.8089 0.0
C912 C 0.91617 0.42043 0.81098 0.0
C913 C 0.92278 0.40361 0.81857 0.0
C914 C 0.95088 0.41225 0.82408 0.0
C915 C 0.97235 0.43779 0.82203 0.0
H916 H 0.90618 0.38384 0.82018 0.0
H917 H 0.11546 0.63086 0.80003 0.0
H918 H 0.46693 0.64223 0.07943 0.0
H919 H 0.46485 0.58583 0.07878 0.0
H920 H 0.55624 0.58523 0.06181 0.0
H921 H 0.55742 0.64186 0.06202 0.0
H922 H 0.50992 0.54351 0.05656 0.0
H923 H 0.56389 0.56872 0.08383 0.0
H924 H 0.56897 0.59453 0.09805 0.0
H925 H 0.4723 0.54995 0.10641 0.0
H926 H 0.46636 0.52421 0.09219 0.0
H927 H 0.55457 0.38336 0.06359 0.0
H928 H 0.55645 0.44033 0.06333 0.0
H929 H 0.457 0.44395 0.07738 0.0
H930 H 0.45516 0.38709 0.07773 0.0
H931 H 0.50897 0.48374 0.08405 0.0
H932 H 0.45626 0.45846 0.05637 0.0
H933 H 0.45348 0.43231 0.04217 0.0
H934 H 0.55152 0.47662 0.03466 0.0
H935 H 0.55516 0.50269 0.04888 0.0
C936 C 0.48637 0.63038 0.07545 0.0
C937 C 0.51259 0.64701 0.07084 0.0
C938 C 0.48536 0.59791 0.07517 0.0
C939 C 0.51087 0.58117 0.0704 0.0
C940 C 0.53644 0.59759 0.0656 0.0
C941 C 0.53727 0.63011 0.0658 0.0
C942 C 0.51104 0.54656 0.07049 0.0
C943 C 0.51022 0.53047 0.06257 0.0
C944 C 0.51092 0.52943 0.07834 0.0
C945 C 0.5145 0.54477 0.08691 0.0
C946 C 0.54357 0.5646 0.08868 0.0
C947 C 0.54663 0.57919 0.09674 0.0
C948 C 0.52093 0.57394 0.10312 0.0
C949 C 0.49216 0.55403 0.10146 0.0
C950 C 0.48895 0.53941 0.0934 0.0
C951 C 0.53322 0.39631 0.06666 0.0
C952 C 0.50466 0.38073 0.07066 0.0
C953 C 0.53419 0.42883 0.06645 0.0
C954 C 0.50672 0.44635 0.07028 0.0
C955 C 0.4784 0.43086 0.07436 0.0
C956 C 0.47725 0.39838 0.0745 0.0
C957 C 0.50763 0.48084 0.07013 0.0
C958 C 0.50872 0.49686 0.07805 0.0
C959 C 0.50839 0.49785 0.06229 0.0
C960 C 0.50618 0.48227 0.05373 0.0
C961 C 0.47739 0.46242 0.05172 0.0
C962 C 0.47563 0.44765 0.04366 0.0
C963 C 0.50236 0.45273 0.03753 0.0
C964 C 0.53086 0.47266 0.03943 0.0
C965 C 0.53278 0.48746 0.04749 0.0
H966 H 0.50094 0.44128 0.03129 0.0
H967 H 0.52334 0.58526 0.10936 0.0
H968 H 0.37324 0.44718 0.96137 0.0
H969 H 0.43727 0.45851 0.96198 0.0
H970 H 0.42142 0.53586 0.94455 0.0
H971 H 0.35759 0.52344 0.94355 0.0
H972 H 0.47695 0.50909 0.93969 0.0
H973 H 0.44021 0.54291 0.96764 0.0
H974 H 0.41141 0.53947 0.98195 0.0
H975 H 0.48089 0.46367 0.98893 0.0
H976 H 0.50982 0.4664 0.97462 0.0
H977 H 0.65308 0.56571 0.96278 0.0
H978 H 0.5889 0.55482 0.9634 0.0
H979 H 0.60086 0.48564 0.94336 0.0
H980 H 0.66471 0.49776 0.9424 0.0
H981 H 0.54685 0.51138 0.9671 0.0
H982 H 0.52819 0.47987 0.93077 0.0
H983 H 0.55591 0.49199 0.91669 0.0
H984 H 0.59428 0.57886 0.92681 0.0
H985 H 0.5664 0.56746 0.9409 0.0
C986 C 0.3833 0.46684 0.95774 0.0
C987 C 0.36015 0.48449 0.95244 0.0
C988 C 0.42007 0.47343 0.95812 0.0
C989 C 0.43459 0.49839 0.95341 0.0
C990 C 0.41125 0.5164 0.94824 0.0
C991 C 0.3746 0.50941 0.94771 0.0
C992 C 0.4741 0.50503 0.95359 0.0
C993 C 0.49208 0.50963 0.94571 0.0
C994 C 0.49425 0.50641 0.96141 0.0
C995 C 0.47695 0.50468 0.97003 0.0
C996 C 0.44918 0.52537 0.97221 0.0
C997 C 0.43286 0.52356 0.98032 0.0
C998 C 0.44425 0.50131 0.98634 0.0
C999 C 0.47206 0.48087 0.98426 0.0
C1000 C 0.48845 0.48255 0.97615 0.0
C1001 C 0.64212 0.54795 0.95856 0.0
C1002 C 0.66406 0.53278 0.95249 0.0
C1003 C 0.60527 0.54171 0.95892 0.0
C1004 C 0.58948 0.51988 0.95329 0.0
C1005 C 0.61188 0.50332 0.94759 0.0
C1006 C 0.64856 0.51005 0.9471 0.0
C1007 C 0.54963 0.51516 0.95321 0.0
C1008 C 0.53163 0.51086 0.9611 0.0
C1009 C 0.52921 0.5153 0.94542 0.0
C1010 C 0.5455 0.52264 0.93692 0.0
C1011 C 0.5424 0.50162 0.92998 0.0
C1012 C 0.55817 0.50835 0.922 0.0
C1013 C 0.57694 0.53613 0.92087 0.0
C1014 C 0.57984 0.55731 0.9277 0.0
C1015 C 0.56407 0.55071 0.93569 0.0
H1016 H 0.58918 0.54127 0.91469 0.0
H1017 H 0.43158 0.49995 0.99261 0.0
H1018 H 0.4561 0.88237 0.1995 0.0
H1019 H 0.45275 0.93902 0.20008 0.0
H1020 H 0.5672 0.94465 0.19687 0.0
H1021 H 0.57087 0.88818 0.19608 0.0
H1022 H 0.54244 0.9846 0.20954 0.0
H1023 H 0.51391 0.95814 0.17999 0.0
H1024 H 0.48077 0.93109 0.16837 0.0
H1025 H 0.38258 0.97311 0.17687 0.0
H1026 H 0.41509 1.00008 0.18863 0.0
H1027 H 0.56063 0.14238 0.1968 0.0
H1028 H 0.56153 0.08572 0.19778 0.0
H1029 H 0.44611 0.08464 0.19901 0.0
H1030 H 0.44489 0.14117 0.19771 0.0
H1031 H 0.46942 0.04214 0.18786 0.0
H1032 H 0.49754 0.07038 0.21703 0.0
H1033 H 0.53008 0.09743 0.22875 0.0
H1034 H 0.62787 0.05231 0.22125 0.0
H1035 H 0.596 0.0253 0.2094 0.0
C1036 C 0.4806 0.89551 0.19885 0.0
C1037 C 0.51374 0.88037 0.19768 0.0
C1038 C 0.47862 0.92798 0.19922 0.0
C1039 C 0.5097 0.94607 0.19845 0.0
C1040 C 0.54288 0.93114 0.1975 0.0
C1041 C 0.54489 0.8987 0.19708 0.0
C1042 C 0.5076 0.98057 0.19844 0.0
C1043 C 0.52679 0.99724 0.20475 0.0
C1044 C 0.48645 0.99699 0.19232 0.0
C1045 C 0.46687 0.98085 0.18525 0.0
C1046 C 0.4852 0.9614 0.17943 0.0
C1047 C 0.46654 0.94612 0.17281 0.0
C1048 C 0.42957 0.9503 0.1719 0.0
C1049 C 0.4112 0.96984 0.17759 0.0
C1050 C 0.42974 0.98515 0.18423 0.0
C1051 C 0.53541 0.13015 0.19724 0.0
C1052 C 0.5027 0.14651 0.19716 0.0
C1053 C 0.53598 0.09771 0.1979 0.0
C1054 C 0.5039 0.08088 0.19856 0.0
C1055 C 0.47122 0.09711 0.19853 0.0
C1056 C 0.47061 0.12954 0.19787 0.0
C1057 C 0.50438 0.04632 0.19895 0.0
C1058 C 0.48492 0.02959 0.1927 0.0
C1059 C 0.52517 0.02987 0.20515 0.0
C1060 C 0.54443 0.04604 0.21227 0.0
C1061 C 0.52604 0.06641 0.21783 0.0
C1062 C 0.54436 0.0817 0.22451 0.0
C1063 C 0.58104 0.07665 0.22573 0.0
C1064 C 0.59946 0.05623 0.22029 0.0
C1065 C 0.58128 0.0409 0.2136 0.0
H1066 H 0.59517 0.0885 0.2309 0.0
H1067 H 0.41517 0.93847 0.16677 0.0
H1068 H 0.86684 0.9664 0.4661 0.0
H1069 H 0.93041 0.97883 0.4679 0.0
H1070 H 0.93215 0.01809 0.4422 0.0
H1071 H 0.86888 1.00525 0.44029 0.0
H1072 H 0.98785 0.98113 0.44436 0.0
H1073 H 0.93508 0.0639 0.4609 0.0
H1074 H 0.89671 0.08691 0.47217 0.0
H1075 H 0.95539 0.03742 0.49183 0.0
H1076 H 0.99384 0.01379 0.48066 0.0
H1077 H 0.15704 0.05627 0.44646 0.0
H1078 H 0.0934 0.0437 0.44531 0.0
H1079 H 0.09614 1.00452 0.47102 0.0
H1080 H 0.15977 0.01755 0.47229 0.0
H1081 H 0.03844 0.04026 0.46914 0.0
H1082 H 0.09176 0.95812 0.45265 0.0
H1083 H 0.13017 0.93508 0.44138 0.0
H1084 H 0.07034 0.9832 0.42166 0.0
H1085 H 0.03185 1.00687 0.43282 0.0
C1086 C 0.88061 0.97804 0.46086 0.0
C1087 C 0.86259 0.98483 0.45305 0.0
C1088 C 0.91704 0.9852 0.46191 0.0
C1089 C 0.93625 0.9996 0.4552 0.0
C1090 C 0.9181 1.00692 0.44747 0.0
C1091 C 0.88176 0.99968 0.4464 0.0
C1092 C 0.97548 1.00602 0.45609 0.0
C1093 C 0.99879 0.99445 0.44973 0.0
C1094 C 0.99014 0.02261 0.4632 0.0
C1095 C 0.9671 0.03683 0.46993 0.0
C1096 C 0.93962 0.05773 0.46762 0.0
C1097 C 0.91789 0.07092 0.47399 0.0
C1098 C 0.92354 0.06356 0.48271 0.0
C1099 C 0.95101 0.04306 0.48508 0.0
C1100 C 0.9728 0.02979 0.47873 0.0
C1101 C 0.14425 0.04475 0.45186 0.0
C1102 C 0.16372 0.03785 0.45946 0.0
C1103 C 0.10776 0.03747 0.45118 0.0
C1104 C 0.08983 0.02285 0.45805 0.0
C1105 C 0.10925 0.01578 0.46563 0.0
C1106 C 0.14575 0.02312 0.46632 0.0
C1107 C 0.05074 0.01557 0.45738 0.0
C1108 C 0.02748 0.02693 0.46379 0.0
C1109 C 0.0361 0.99876 0.45031 0.0
C1110 C 0.05914 0.98449 0.44358 0.0
C1111 C 0.08697 0.96398 0.44591 0.0
C1112 C 0.10872 0.95077 0.43955 0.0
C1113 C 0.10276 0.95773 0.43082 0.0
C1114 C 0.07496 0.97785 0.42843 0.0
C1115 C 0.05314 0.99115 0.43477 0.0
H1116 H 0.11963 0.94748 0.4259 0.0
H1117 H 0.90669 0.0738 0.48764 0.0
H1118 H 0.99969 0.38918 0.68262 0.0
H1119 H 0.99953 0.44563 0.68462 0.0
H1120 H 0.02898 0.43372 0.71147 0.0
H1121 H 0.02981 0.3769 0.70945 0.0
H1122 H 0.96437 0.48005 0.70539 0.0
H1123 H 0.09106 0.45521 0.70312 0.0
H1124 H 0.14236 0.42868 0.69632 0.0
H1125 H 0.11914 0.47442 0.6722 0.0
H1126 H 0.06731 0.50083 0.67883 0.0
H1127 H 0.99349 0.64451 0.7091 0.0
H1128 H 0.99663 0.58792 0.71104 0.0
H1129 H 0.02354 0.5774 0.68402 0.0
H1130 H 0.02191 0.63371 0.68222 0.0
H1131 H 0.06326 0.54095 0.69243 0.0
H1132 H 0.93645 0.56234 0.69326 0.0
H1133 H 0.88047 0.58607 0.69856 0.0
H1134 H 0.89852 0.54587 0.72368 0.0
H1135 H 0.95489 0.52226 0.71856 0.0
C1136 C 1.00573 0.39854 0.68897 0.0
C1137 C 0.01464 0.37868 0.69589 0.0
C1138 C 1.00575 0.43075 0.6901 0.0
C1139 C 0.01416 0.44371 0.69819 0.0
C1140 C 0.02232 0.42404 0.70518 0.0
C1141 C 0.02297 0.39172 0.70401 0.0
C1142 C 0.01557 0.47794 0.69911 0.0
C1143 C 0.98628 0.49353 0.70275 0.0
C1144 C 0.04368 0.49525 0.69541 0.0
C1145 C 0.07513 0.47976 0.69145 0.0
C1146 C 0.09671 0.45939 0.69635 0.0
C1147 C 0.12592 0.44442 0.69253 0.0
C1148 C 0.13396 0.44981 0.68383 0.0
C1149 C 0.11287 0.47025 0.67894 0.0
C1150 C 0.08359 0.48525 0.68273 0.0
C1151 C 1.00008 0.62998 0.7036 0.0
C1152 C 1.00769 0.64346 0.69553 0.0
C1153 C 1.0017 0.59764 0.70469 0.0
C1154 C 1.01001 0.57815 0.69765 0.0
C1155 C 0.01737 0.59177 0.68958 0.0
C1156 C 0.01646 0.624 0.68855 0.0
C1157 C 0.01154 0.54364 0.69859 0.0
C1158 C 0.04147 0.52781 0.69525 0.0
C1159 C 0.98358 0.52616 0.70242 0.0
C1160 C 0.95007 0.54083 0.70555 0.0
C1161 C 0.92864 0.5588 0.69994 0.0
C1162 C 0.8968 0.57215 0.7029 0.0
C1163 C 0.88591 0.56743 0.71145 0.0
C1164 C 0.90692 0.54943 0.71705 0.0
C1165 C 0.93885 0.5361 0.71413 0.0
H1166 H 0.86127 0.5778 0.71373 0.0
H1167 H 0.15658 0.43819 0.68088 0.0
H1168 H 0.24985 0.06893 0.34746 0.0
H1169 H 0.2512 0.06525 0.36325 0.0
H1170 H 0.28193 0.16169 0.36493 0.0
H1171 H 0.2823 0.16519 0.34921 0.0
H1172 H 0.31968 0.12974 0.37601 0.0
H1173 H 0.19391 0.13506 0.36881 0.0
H1174 H 0.13819 0.11836 0.36153 0.0
H1175 H 0.14595 0.02909 0.37387 0.0
H1176 H 0.20201 0.04515 0.38114 0.0
H1177 H 0.27684 0.16653 0.41922 0.0
H1178 H 0.27579 0.16298 0.40347 0.0
H1179 H 0.25659 0.06438 0.40512 0.0
H1180 H 0.25829 0.06752 0.42094 0.0
H1181 H 0.21437 0.09272 0.39251 0.0
H1182 H 0.33847 0.08898 0.40037 0.0
H1183 H 0.39366 0.10637 0.40775 0.0
H1184 H 0.3885 0.19343 0.39417 0.0
H1185 H 0.33295 0.17673 0.38679 0.0
C1186 C 0.25726 0.08931 0.35115 0.0
C1187 C 0.26573 0.11745 0.34696 0.0
C1188 C 0.25763 0.08725 0.36023 0.0
C1189 C 0.26613 0.11332 0.36534 0.0
C1190 C 0.27512 0.14123 0.36117 0.0
C1191 C 0.27496 0.14327 0.35213 0.0
C1192 C 0.26595 0.11181 0.37503 0.0
C1193 C 0.29645 0.12194 0.37959 0.0
C1194 C 0.23611 0.10082 0.37978 0.0
C1195 C 0.20236 0.09119 0.37544 0.0
C1196 C 0.18388 0.11179 0.36992 0.0
C1197 C 0.15221 0.10245 0.3658 0.0
C1198 C 0.1386 0.07265 0.36722 0.0
C1199 C 0.15657 0.05215 0.37277 0.0
C1200 C 0.18827 0.06136 0.37689 0.0
C1201 C 0.27265 0.14398 0.41629 0.0
C1202 C 0.26807 0.11727 0.42145 0.0
C1203 C 0.27193 0.14202 0.40724 0.0
C1204 C 0.2666 0.11334 0.40308 0.0
C1205 C 0.26081 0.08677 0.40817 0.0
C1206 C 0.26169 0.08866 0.41725 0.0
C1207 C 0.26779 0.11124 0.39344 0.0
C1208 C 0.23759 0.10036 0.3889 0.0
C1209 C 0.29785 0.12164 0.3887 0.0
C1210 C 0.33137 0.1317 0.39308 0.0
C1211 C 0.34895 0.11193 0.399 0.0
C1212 C 0.38032 0.12164 0.40318 0.0
C1213 C 0.39453 0.15101 0.40144 0.0
C1214 C 0.37744 0.1707 0.39551 0.0
C1215 C 0.34602 0.16111 0.39133 0.0
H1216 H 0.41883 0.15849 0.40468 0.0
H1217 H 0.11408 0.06546 0.36402 0.0
H1218 H 0.89982 0.82431 0.5995 0.0
H1219 H 0.89302 0.81863 0.61513 0.0
H1220 H 0.90726 0.71946 0.6128 0.0
H1221 H 0.91394 0.72489 0.59708 0.0
H1222 H 0.85508 0.73501 0.62485 0.0
H1223 H 0.97681 0.76401 0.61851 0.0
H1224 H 0.02368 0.79665 0.61197 0.0
H1225 H 0.98667 0.87549 0.6265 0.0
H1226 H 0.93921 0.8434 0.63303 0.0
H1227 H 0.91033 0.69799 0.66764 0.0
H1228 H 0.90229 0.70552 0.65213 0.0
H1229 H 0.90157 0.80497 0.65581 0.0
H1230 H 0.91073 0.79757 0.67141 0.0
H1231 H 0.9439 0.79119 0.64303 0.0
H1232 H 0.82416 0.7623 0.65003 0.0
H1233 H 0.7763 0.73044 0.65645 0.0
H1234 H 0.80787 0.65268 0.64077 0.0
H1235 H 0.85625 0.68394 0.63434 0.0
C1236 C 0.90103 0.80118 0.60227 0.0
C1237 C 0.90774 0.77507 0.59701 0.0
C1238 C 0.89725 0.79801 0.61123 0.0
C1239 C 0.90024 0.76869 0.61518 0.0
C1240 C 0.905 0.74235 0.60991 0.0
C1241 C 0.90882 0.7455 0.60091 0.0
C1242 C 0.9004 0.76583 0.62481 0.0
C1243 C 0.8747 0.74702 0.62883 0.0
C1244 C 0.92541 0.78215 0.63003 0.0
C1245 C 0.95423 0.80138 0.62619 0.0
C1246 C 0.97851 0.78836 0.62027 0.0
C1247 C 1.0052 0.80675 0.61656 0.0
C1248 C 1.00809 0.83815 0.6188 0.0
C1249 C 0.98436 0.85118 0.62476 0.0
C1250 C 0.95758 0.83289 0.62847 0.0
C1251 C 0.90795 0.72152 0.6652 0.0
C1252 C 0.91118 0.74718 0.67082 0.0
C1253 C 0.90315 0.72579 0.65629 0.0
C1254 C 0.90091 0.75583 0.65274 0.0
C1255 C 0.90318 0.78153 0.65836 0.0
C1256 C 0.90823 0.77728 0.6673 0.0
C1257 C 0.89851 0.76029 0.64314 0.0
C1258 C 0.92398 0.77934 0.6391 0.0
C1259 C 0.87315 0.74429 0.63792 0.0
C1260 C 0.84404 0.72541 0.64176 0.0
C1261 C 0.82107 0.73833 0.648 0.0
C1262 C 0.79382 0.72039 0.65163 0.0
C1263 C 0.7891 0.68953 0.64903 0.0
C1264 C 0.81158 0.67658 0.64278 0.0
C1265 C 0.83889 0.69441 0.63913 0.0
H1266 H 0.76798 0.67568 0.65185 0.0
H1267 H 0.02875 0.85236 0.61592 0.0
H1268 H 0.27541 0.44918 0.84698 0.0
H1269 H 0.27393 0.45263 0.86275 0.0
H1270 H 0.24687 0.35535 0.86426 0.0
H1271 H 0.24678 0.35198 0.8485 0.0
H1272 H 0.20776 0.38718 0.87536 0.0
H1273 H 0.33331 0.38307 0.86838 0.0
H1274 H 0.38868 0.4 0.86113 0.0
H1275 H 0.37995 0.48974 0.87316 0.0
H1276 H 0.32425 0.47346 0.88039 0.0
H1277 H 0.25427 0.35342 0.91884 0.0
H1278 H 0.25132 0.35644 0.90306 0.0
H1279 H 0.27212 0.45496 0.90426 0.0
H1280 H 0.27581 0.45195 0.92011 0.0
H1281 H 0.31269 0.4265 0.89188 0.0
H1282 H 0.18899 0.42931 0.89957 0.0
H1283 H 0.13402 0.41199 0.90691 0.0
H1284 H 0.13947 0.3244 0.89361 0.0
H1285 H 0.19479 0.34104 0.88628 0.0
C1286 C 0.26876 0.42854 0.85063 0.0
C1287 C 0.26137 0.40023 0.84638 0.0
C1288 C 0.2683 0.43049 0.85969 0.0
C1289 C 0.2608 0.40414 0.86475 0.0
C1290 C 0.25289 0.37601 0.86053 0.0
C1291 C 0.2532 0.37405 0.85148 0.0
C1292 C 0.26115 0.40573 0.87442 0.0
C1293 C 0.23088 0.39546 0.87896 0.0
C1294 C 0.29088 0.41737 0.87916 0.0
C1295 C 0.32441 0.42715 0.87485 0.0
C1296 C 0.34306 0.40649 0.86942 0.0
C1297 C 0.37452 0.41596 0.86533 0.0
C1298 C 0.38776 0.44596 0.86666 0.0
C1299 C 0.36962 0.46653 0.87212 0.0
C1300 C 0.33812 0.45718 0.87622 0.0
C1301 C 0.25838 0.37573 0.91577 0.0
C1302 C 0.26533 0.40244 0.92077 0.0
C1303 C 0.25637 0.37748 0.90673 0.0
C1304 C 0.26117 0.40598 0.90245 0.0
C1305 C 0.2682 0.43272 0.90741 0.0
C1306 C 0.27003 0.43101 0.91648 0.0
C1307 C 0.2595 0.40754 0.8928 0.0
C1308 C 0.28949 0.41841 0.88827 0.0
C1309 C 0.22956 0.3964 0.88806 0.0
C1310 C 0.19622 0.38633 0.89243 0.0
C1311 C 0.17863 0.40626 0.89826 0.0
C1312 C 0.14738 0.39658 0.90241 0.0
C1313 C 0.1333 0.36709 0.90074 0.0
C1314 C 0.15042 0.34724 0.8949 0.0
C1315 C 0.18171 0.35679 0.89074 0.0
H1316 H 0.1091 0.35964 0.90395 0.0
H1317 H 0.41213 0.45324 0.86349 0.0
H1318 H 0.58891 0.79257 0.09751 0.0
H1319 H 0.59548 0.79464 0.11328 0.0
H1320 H 0.64071 0.70219 0.11322 0.0
H1321 H 0.63296 0.69961 0.09752 0.0
H1322 H 0.59339 0.70465 0.12509 0.0
H1323 H 0.69122 0.77111 0.11759 0.0
H1324 H 0.72109 0.8152 0.11044 0.0
H1325 H 0.65235 0.87928 0.12378 0.0
H1326 H 0.62175 0.83554 0.13093 0.0
H1327 H 0.64337 0.70427 0.16967 0.0
H1328 H 0.6479 0.70523 0.15384 0.0
H1329 H 0.58933 0.79174 0.15313 0.0
H1330 H 0.58479 0.79105 0.16891 0.0
H1331 H 0.64589 0.79208 0.1418 0.0
H1332 H 0.54716 0.72464 0.14881 0.0
H1333 H 0.51841 0.68021 0.15607 0.0
H1334 H 0.59118 0.61732 0.14357 0.0
H1335 H 0.6207 0.66146 0.13632 0.0
C1336 C 0.60083 0.7729 0.10084 0.0
C1337 C 0.6104 0.74592 0.09624 0.0
C1338 C 0.60467 0.77412 0.10989 0.0
C1339 C 0.61885 0.74864 0.11451 0.0
C1340 C 0.62955 0.72213 0.10986 0.0
C1341 C 0.62526 0.72074 0.10085 0.0
C1342 C 0.62059 0.74872 0.1242 0.0
C1343 C 0.6055 0.72357 0.12871 0.0
C1344 C 0.63556 0.77366 0.12901 0.0
C1345 C 0.65398 0.80002 0.12474 0.0
C1346 C 0.6823 0.79459 0.11895 0.0
C1347 C 0.69939 0.81952 0.11491 0.0
C1348 C 0.68856 0.85002 0.11664 0.0
C1349 C 0.66068 0.85565 0.12244 0.0
C1350 C 0.64348 0.83079 0.1265 0.0
C1351 C 0.63171 0.72364 0.16615 0.0
C1352 C 0.61354 0.74749 0.17058 0.0
C1353 C 0.63421 0.7241 0.15709 0.0
C1354 C 0.61864 0.74841 0.15227 0.0
C1355 C 0.60154 0.77274 0.15669 0.0
C1356 C 0.59885 0.77222 0.16573 0.0
C1357 C 0.61892 0.748 0.1426 0.0
C1358 C 0.63416 0.7731 0.13813 0.0
C1359 C 0.60431 0.72295 0.13781 0.0
C1360 C 0.58638 0.69638 0.1421 0.0
C1361 C 0.5572 0.70136 0.14766 0.0
C1362 C 0.54074 0.67623 0.15176 0.0
C1363 C 0.55303 0.64597 0.1503 0.0
C1364 C 0.58173 0.64077 0.14471 0.0
C1365 C 0.59832 0.66583 0.14059 0.0
H1366 H 0.54026 0.62654 0.15349 0.0
H1367 H 0.70183 0.86929 0.11349 0.0
H1368 H 0.7545 0.66083 0.84821 0.0
H1369 H 0.75477 0.65672 0.86395 0.0
H1370 H 0.77166 0.55776 0.86206 0.0
H1371 H 0.77187 0.56169 0.84623 0.0
H1372 H 0.72225 0.57223 0.8746 0.0
H1373 H 0.84082 0.60423 0.86724 0.0
H1374 H 0.88656 0.63643 0.86009 0.0
H1375 H 0.84869 0.71711 0.87367 0.0
H1376 H 0.80236 0.68547 0.88081 0.0
H1377 H 0.76388 0.56127 0.92001 0.0
H1378 H 0.76873 0.55754 0.9042 0.0
H1379 H 0.75547 0.65692 0.90213 0.0
H1380 H 0.75153 0.66085 0.91785 0.0
H1381 H 0.80695 0.63742 0.89153 0.0
H1382 H 0.68604 0.60644 0.89812 0.0
H1383 H 0.63994 0.57469 0.90529 0.0
H1384 H 0.68196 0.49242 0.89324 0.0
H1385 H 0.72868 0.52364 0.8861 0.0
C1386 C 0.75857 0.63817 0.8511 0.0
C1387 C 0.76357 0.61166 0.84587 0.0
C1388 C 0.7586 0.63584 0.86014 0.0
C1389 C 0.76377 0.60699 0.86423 0.0
C1390 C 0.76769 0.5803 0.85907 0.0
C1391 C 0.76771 0.5826 0.84999 0.0
C1392 C 0.76563 0.60506 0.87388 0.0
C1393 C 0.74118 0.58607 0.8783 0.0
C1394 C 0.78996 0.62343 0.87875 0.0
C1395 C 0.81793 0.64251 0.87451 0.0
C1396 C 0.84208 0.62888 0.86865 0.0
C1397 C 0.86814 0.64703 0.86461 0.0
C1398 C 0.87048 0.6788 0.86641 0.0
C1399 C 0.84682 0.69249 0.87228 0.0
C1400 C 0.82068 0.67446 0.87633 0.0
C1401 C 0.76244 0.58235 0.91619 0.0
C1402 C 0.75704 0.61135 0.92022 0.0
C1403 C 0.76489 0.58016 0.90714 0.0
C1404 C 0.76201 0.60692 0.90193 0.0
C1405 C 0.75763 0.63591 0.90597 0.0
C1406 C 0.75509 0.6381 0.91498 0.0
C1407 C 0.76314 0.60506 0.89227 0.0
C1408 C 0.78822 0.62334 0.88784 0.0
C1409 C 0.73936 0.58608 0.88742 0.0
C1410 C 0.71111 0.56732 0.89165 0.0
C1411 C 0.68563 0.58154 0.89705 0.0
C1412 C 0.65936 0.56365 0.9011 0.0
C1413 C 0.65809 0.53154 0.89974 0.0
C1414 C 0.68302 0.51728 0.8943 0.0
C1415 C 0.70939 0.53507 0.89025 0.0
H1416 H 0.63774 0.51773 0.90289 0.0
H1417 H 0.89068 0.69281 0.86327 0.0
H1418 H 0.43103 0.29474 0.17021 0.0
H1419 H 0.42482 0.29683 0.15443 0.0
H1420 H 0.37886 0.20484 0.15445 0.0
H1421 H 0.38613 0.20225 0.17016 0.0
H1422 H 0.42703 0.20696 0.14266 0.0
H1423 H 0.32894 0.27388 0.14999 0.0
H1424 H 0.29903 0.31821 0.15708 0.0
H1425 H 0.36813 0.38178 0.14377 0.0
H1426 H 0.39879 0.3378 0.13668 0.0
H1427 H 0.37706 0.20563 0.09812 0.0
H1428 H 0.37274 0.20707 0.11395 0.0
H1429 H 0.431 0.29353 0.11442 0.0
H1430 H 0.43537 0.29235 0.09863 0.0
H1431 H 0.37463 0.29429 0.12582 0.0
H1432 H 0.47353 0.22678 0.11894 0.0
H1433 H 0.50289 0.18228 0.1118 0.0
H1434 H 0.43061 0.11941 0.12436 0.0
H1435 H 0.40048 0.16361 0.13149 0.0
C1436 C 0.41902 0.27518 0.16687 0.0
C1437 C 0.4091 0.24832 0.17147 0.0
C1438 C 0.41539 0.27641 0.15782 0.0
C1439 C 0.40114 0.25105 0.15318 0.0
C1440 C 0.39009 0.22468 0.15782 0.0
C1441 C 0.3941 0.22329 0.16684 0.0
C1442 C 0.39969 0.25109 0.14349 0.0
C1443 C 0.41494 0.22586 0.13901 0.0
C1444 C 0.38482 0.27602 0.13863 0.0
C1445 C 0.36638 0.30252 0.14287 0.0
C1446 C 0.33794 0.2973 0.14862 0.0
C1447 C 0.32081 0.32237 0.15263 0.0
C1448 C 0.33173 0.35278 0.1509 0.0
C1449 C 0.35973 0.35821 0.14512 0.0
C1450 C 0.37696 0.33322 0.1411 0.0
C1451 C 0.3887 0.2251 0.10158 0.0
C1452 C 0.40674 0.24878 0.09708 0.0
C1453 C 0.38632 0.22584 0.11064 0.0
C1454 C 0.40187 0.25027 0.11541 0.0
C1455 C 0.41882 0.27444 0.11091 0.0
C1456 C 0.4214 0.27364 0.10186 0.0
C1457 C 0.40166 0.25011 0.12507 0.0
C1458 C 0.38635 0.27534 0.12951 0.0
C1459 C 0.41631 0.22513 0.12992 0.0
C1460 C 0.43451 0.19852 0.12567 0.0
C1461 C 0.46371 0.20348 0.12013 0.0
C1462 C 0.48053 0.17831 0.11609 0.0
C1463 C 0.46856 0.14804 0.1176 0.0
C1464 C 0.43981 0.14287 0.12318 0.0
C1465 C 0.42287 0.16797 0.12722 0.0
H1466 H 0.48161 0.12858 0.11447 0.0
H1467 H 0.31844 0.37216 0.15401 0.0
H1468 H 0.74411 0.85386 0.34971 0.0
H1469 H 0.74388 0.85848 0.36537 0.0
H1470 H 0.77345 0.95508 0.36336 0.0
H1471 H 0.77557 0.95028 0.34758 0.0
H1472 H 0.81056 0.9291 0.3759 0.0
H1473 H 0.68648 0.93186 0.36867 0.0
H1474 H 0.63021 0.91484 0.36171 0.0
H1475 H 0.63556 0.82828 0.37553 0.0
H1476 H 0.69215 0.8446 0.38248 0.0
H1477 H 0.77499 0.95402 0.42101 0.0
H1478 H 0.77127 0.95722 0.40518 0.0
H1479 H 0.75288 0.85837 0.40384 0.0
H1480 H 0.75599 0.85511 0.41963 0.0
H1481 H 0.70771 0.89069 0.39305 0.0
H1482 H 0.83468 0.88826 0.39951 0.0
H1483 H 0.89015 0.90691 0.40653 0.0
H1484 H 0.8774 0.99574 0.39417 0.0
H1485 H 0.82155 0.97774 0.38717 0.0
C1486 C 0.75093 0.87611 0.35252 0.0
C1487 C 0.75996 0.90167 0.34726 0.0
C1488 C 0.7503 0.87882 0.36155 0.0
C1489 C 0.75804 0.90728 0.3656 0.0
C1490 C 0.76717 0.93288 0.36041 0.0
C1491 C 0.76807 0.93014 0.35135 0.0
C1492 C 0.75733 0.90987 0.37526 0.0
C1493 C 0.78776 0.92123 0.37963 0.0
C1494 C 0.72784 0.89927 0.38019 0.0
C1495 C 0.69373 0.88937 0.37605 0.0
C1496 C 0.6758 0.9091 0.37018 0.0
C1497 C 0.64382 0.89959 0.36624 0.0
C1498 C 0.62936 0.87047 0.36816 0.0
C1499 C 0.64681 0.85083 0.37404 0.0
C1500 C 0.67882 0.86021 0.37799 0.0
C1501 C 0.7698 0.93302 0.41736 0.0
C1502 C 0.76593 0.90427 0.42161 0.0
C1503 C 0.76797 0.93484 0.40829 0.0
C1504 C 0.76212 0.90798 0.40329 0.0
C1505 C 0.75751 0.8794 0.40754 0.0
C1506 C 0.75958 0.87753 0.41658 0.0
C1507 C 0.76109 0.9094 0.39364 0.0
C1508 C 0.73032 0.89882 0.38929 0.0
C1509 C 0.79009 0.921 0.38873 0.0
C1510 C 0.82374 0.93176 0.3929 0.0
C1511 C 0.84355 0.91185 0.39835 0.0
C1512 C 0.87509 0.92229 0.40231 0.0
C1513 C 0.88724 0.95252 0.40081 0.0
C1514 C 0.86792 0.97235 0.39533 0.0
C1515 C 0.83634 0.96203 0.39136 0.0
H1516 H 0.91166 0.96056 0.40389 0.0
H1517 H 0.6046 0.86316 0.36511 0.0
H1518 H 0.10582 0.226 0.67092 0.0
H1519 H 0.11338 0.22025 0.65524 0.0
H1520 H 0.1253 0.31956 0.65273 0.0
H1521 H 0.11757 0.32553 0.66833 0.0
H1522 H 0.07712 0.29798 0.64133 0.0
H1523 H 0.19668 0.27004 0.64998 0.0
H1524 H 0.24267 0.24077 0.65814 0.0
H1525 H 0.20546 0.15542 0.64684 0.0
H1526 H 0.15892 0.18414 0.63869 0.0
H1527 H 0.11313 0.29661 0.59635 0.0
H1528 H 0.12114 0.30436 0.61197 0.0
H1529 H 0.1165 0.20516 0.61596 0.0
H1530 H 0.10967 0.19723 0.60041 0.0
H1531 H 0.16374 0.2284 0.62663 0.0
H1532 H 0.04222 0.25425 0.61893 0.0
H1533 H 0.99452 0.28193 0.61091 0.0
H1534 H 0.03319 0.36925 0.62066 0.0
H1535 H 0.08143 0.34209 0.62865 0.0
C1536 C 0.11066 0.24658 0.66706 0.0
C1537 C 0.111 0.27624 0.67092 0.0
C1538 C 0.11503 0.24325 0.65808 0.0
C1539 C 0.11998 0.26948 0.65277 0.0
C1540 C 0.12141 0.29897 0.65666 0.0
C1541 C 0.11711 0.30231 0.66561 0.0
C1542 C 0.12151 0.2665 0.64314 0.0
C1543 C 0.0965 0.28316 0.63812 0.0
C1544 C 0.14608 0.24653 0.63892 0.0
C1545 C 0.1741 0.22922 0.64379 0.0
C1546 C 0.19812 0.24501 0.64929 0.0
C1547 C 0.22432 0.22852 0.6539 0.0
C1548 C 0.22693 0.19625 0.65302 0.0
C1549 C 0.20339 0.18041 0.64752 0.0
C1550 C 0.17712 0.19679 0.64289 0.0
C1551 C 0.11435 0.27643 0.60054 0.0
C1552 C 0.11048 0.24631 0.5971 0.0
C1553 C 0.11868 0.28089 0.60949 0.0
C1554 C 0.11869 0.25538 0.61521 0.0
C1555 C 0.11648 0.22527 0.61173 0.0
C1556 C 0.11247 0.22078 0.6028 0.0
C1557 C 0.11933 0.25989 0.62482 0.0
C1558 C 0.14459 0.24343 0.62984 0.0
C1559 C 0.09474 0.27982 0.62907 0.0
C1560 C 0.06566 0.29617 0.62431 0.0
C1561 C 0.04069 0.27937 0.61932 0.0
C1562 C 0.01354 0.29496 0.61478 0.0
C1563 C 1.01089 0.32734 0.61526 0.0
C1564 C 0.03532 0.34418 0.62029 0.0
C1565 C 0.06256 0.3287 0.62482 0.0
H1566 H 0.98985 0.33937 0.61174 0.0
H1567 H 0.24723 0.18353 0.6566 0.0
H1568 H 0.33565 0.15114 0.28719 0.0
H1569 H 0.35977 0.16819 0.27314 0.0
H1570 H 0.25614 0.15431 0.2613 0.0
H1571 H 0.23191 0.13804 0.27531 0.0
H1572 H 0.31949 0.12915 0.25175 0.0
H1573 H 0.27385 0.22301 0.26556 0.0
H1574 H 0.27056 0.26086 0.27753 0.0
H1575 H 0.38333 0.27853 0.2753 0.0
H1576 H 0.38737 0.24041 0.26339 0.0
H1577 H 0.33438 0.2042 0.21132 0.0
H1578 H 0.31436 0.18677 0.22557 0.0
H1579 H 0.40541 0.2317 0.23749 0.0
H1580 H 0.42472 0.25021 0.2233 0.0
H1581 H 0.35206 0.23987 0.24745 0.0
H1582 H 0.40087 0.1504 0.23388 0.0
H1583 H 0.40972 0.11118 0.22243 0.0
H1584 H 0.30003 0.08259 0.22477 0.0
H1585 H 0.29037 0.12197 0.23615 0.0
C1586 C 0.3182 0.15155 0.28156 0.0
C1587 C 0.28188 0.14346 0.28234 0.0
C1588 C 0.33191 0.16135 0.27356 0.0
C1589 C 0.3097 0.16258 0.26618 0.0
C1590 C 0.27374 0.15354 0.2669 0.0
C1591 C 0.25989 0.14443 0.27491 0.0
C1592 C 0.32339 0.17418 0.25773 0.0
C1593 C 0.32632 0.1534 0.25076 0.0
C1594 C 0.33347 0.20557 0.25654 0.0
C1595 C 0.33098 0.22861 0.26365 0.0
C1596 C 0.298 0.23475 0.26767 0.0
C1597 C 0.29599 0.25629 0.27444 0.0
C1598 C 0.32674 0.27202 0.27719 0.0
C1599 C 0.35955 0.26629 0.27317 0.0
C1600 C 0.36171 0.24474 0.26641 0.0
C1601 C 0.34999 0.2106 0.21698 0.0
C1602 C 0.38122 0.22857 0.21614 0.0
C1603 C 0.33868 0.20037 0.22515 0.0
C1604 C 0.35874 0.20725 0.23265 0.0
C1605 C 0.38942 0.22592 0.23184 0.0
C1606 C 0.40046 0.23652 0.2237 0.0
C1607 C 0.34787 0.19492 0.24132 0.0
C1608 C 0.34547 0.21555 0.24837 0.0
C1609 C 0.33914 0.16316 0.24264 0.0
C1610 C 0.3448 0.13936 0.23581 0.0
C1611 C 0.37856 0.13591 0.23191 0.0
C1612 C 0.38373 0.11363 0.22543 0.0
C1613 C 0.35543 0.09447 0.22286 0.0
C1614 C 0.32191 0.09749 0.22677 0.0
C1615 C 0.31658 0.11977 0.23323 0.0
H1616 H 0.35949 0.07722 0.21785 0.0
H1617 H 0.32512 0.2887 0.28243 0.0
H1618 H 0.72686 0.87603 0.4921 0.0
H1619 H 0.75041 0.85958 0.50623 0.0
H1620 H 0.85728 0.85735 0.4958 0.0
H1621 H 0.83379 0.87431 0.48164 0.0
H1622 H 0.83537 0.80219 0.50575 0.0
H1623 H 0.8406 0.91374 0.50811 0.0
H1624 H 0.81608 0.96696 0.5073 0.0
H1625 H 0.73734 0.94393 0.52642 0.0
H1626 H 0.76107 0.89039 0.52724 0.0
H1627 H 0.92889 0.78088 0.54542 0.0
H1628 H 0.90742 0.79788 0.53124 0.0
H1629 H 0.80751 0.82714 0.54261 0.0
H1630 H 0.82963 0.8114 0.55692 0.0
H1631 H 0.82646 0.86893 0.53187 0.0
H1632 H 0.81783 0.75833 0.52961 0.0
H1633 H 0.83856 0.7039 0.53036 0.0
H1634 H 0.91841 0.72279 0.51116 0.0
H1635 H 0.89845 0.77746 0.51037 0.0
C1636 C 0.75536 0.87199 0.49281 0.0
C1637 C 0.77849 0.8764 0.48575 0.0
C1638 C 0.7688 0.86273 0.5009 0.0
C1639 C 0.8056 0.85726 0.50207 0.0
C1640 C 0.82879 0.86145 0.49503 0.0
C1641 C 0.81541 0.8713 0.48697 0.0
C1642 C 0.8196 0.84694 0.51066 0.0
C1643 C 0.83397 0.8169 0.51145 0.0
C1644 C 0.81663 0.86577 0.51814 0.0
C1645 C 0.80238 0.89796 0.51767 0.0
C1646 C 0.81784 0.91993 0.51208 0.0
C1647 C 0.80413 0.95017 0.51163 0.0
C1648 C 0.77511 0.9588 0.51679 0.0
C1649 C 0.75979 0.9372 0.52242 0.0
C1650 C 0.77338 0.90691 0.52288 0.0
C1651 C 0.90221 0.79068 0.54491 0.0
C1652 C 0.8809 0.79458 0.55232 0.0
C1653 C 0.88985 0.80031 0.53675 0.0
C1654 C 0.85549 0.81339 0.53575 0.0
C1655 C 0.83409 0.81713 0.54316 0.0
C1656 C 0.8467 0.80798 0.55135 0.0
C1657 C 0.84232 0.82391 0.52705 0.0
C1658 C 0.828 0.85406 0.52621 0.0
C1659 C 0.84482 0.80494 0.51954 0.0
C1660 C 0.85687 0.77207 0.51999 0.0
C1661 C 0.83998 0.75094 0.52559 0.0
C1662 C 0.85157 0.72003 0.52602 0.0
C1663 C 0.87985 0.70991 0.52083 0.0
C1664 C 0.89654 0.73067 0.51518 0.0
C1665 C 0.88508 0.76161 0.51474 0.0
H1666 H 0.88878 0.68598 0.52117 0.0
H1667 H 0.76454 0.98223 0.51643 0.0
H1668 H 0.09052 0.28198 0.72257 0.0
H1669 H 0.11237 0.2995 0.73673 0.0
H1670 H 0.21122 0.32938 0.72511 0.0
H1671 H 0.18931 0.31241 0.71086 0.0
H1672 H 0.21896 0.29411 0.74109 0.0
H1673 H 0.15466 0.38223 0.72948 0.0
H1674 H 0.10192 0.40798 0.72296 0.0
H1675 H 0.03932 0.38487 0.74529 0.0
H1676 H 0.09155 0.35846 0.75188 0.0
H1677 H 0.29324 0.38202 0.77496 0.0
H1678 H 0.26915 0.36533 0.761 0.0
H1679 H 0.16391 0.35743 0.7722 0.0
H1680 H 0.18804 0.37512 0.78621 0.0
H1681 H 0.1575 0.38011 0.75653 0.0
H1682 H 0.219 0.29231 0.76832 0.0
H1683 H 0.26926 0.26332 0.77492 0.0
H1684 H 0.33415 0.28199 0.75265 0.0
H1685 H 0.28442 0.31148 0.74596 0.0
C1686 C 0.11704 0.29206 0.72302 0.0
C1687 C 0.13818 0.29577 0.71556 0.0
C1688 C 0.1294 0.3022 0.73112 0.0
C1689 C 0.16333 0.31592 0.73197 0.0
C1690 C 0.18493 0.31889 0.7246 0.0
C1691 C 0.17234 0.30922 0.71646 0.0
C1692 C 0.17606 0.3275 0.74054 0.0
C1693 C 0.20586 0.31318 0.74443 0.0
C1694 C 0.15818 0.35169 0.74501 0.0
C1695 C 0.12693 0.36808 0.74114 0.0
C1696 C 0.12958 0.38242 0.73297 0.0
C1697 C 0.09978 0.39716 0.72926 0.0
C1698 C 0.06726 0.39799 0.7337 0.0
C1699 C 0.06451 0.38417 0.74186 0.0
C1700 C 0.09421 0.36932 0.74559 0.0
C1701 C 0.26498 0.37664 0.77447 0.0
C1702 C 0.24265 0.37947 0.78173 0.0
C1703 C 0.25119 0.36702 0.76647 0.0
C1704 C 0.2148 0.35927 0.76554 0.0
C1705 C 0.19212 0.36304 0.77273 0.0
C1706 C 0.20589 0.37316 0.78074 0.0
C1707 C 0.20084 0.34691 0.75711 0.0
C1708 C 0.1707 0.36101 0.75324 0.0
C1709 C 0.21812 0.32216 0.75269 0.0
C1710 C 0.24807 0.30434 0.75667 0.0
C1711 C 0.24407 0.29042 0.76486 0.0
C1712 C 0.27245 0.27387 0.76861 0.0
C1713 C 0.30491 0.27088 0.76422 0.0
C1714 C 0.30901 0.28436 0.75605 0.0
C1715 C 0.28072 0.30097 0.75227 0.0
H1716 H 0.32686 0.25805 0.76714 0.0
H1717 H 0.04422 0.40939 0.73081 0.0
H1718 H 0.7425 0.6066 0.98941 0.0
H1719 H 0.72295 0.62138 1.00397 0.0
H1720 H 0.69834 0.71379 0.99474 0.0
H1721 H 0.71902 0.6993 0.9803 0.0
H1722 H 0.72941 0.71944 1.00933 0.0
H1723 H 0.63228 0.65566 0.99952 0.0
H1724 H 0.60329 0.60871 0.99358 0.0
H1725 H 0.64228 0.55514 1.01515 0.0
H1726 H 0.67193 0.60171 0.02116 0.0
H1727 H 0.62045 0.76632 0.04517 0.0
H1728 H 0.64219 0.751 0.03084 0.0
H1729 H 0.68399 0.66567 0.04156 0.0
H1730 H 0.66255 0.68082 0.05591 0.0
H1731 H 0.64454 0.65612 0.02648 0.0
H1732 H 0.74039 0.7225 0.03625 0.0
H1733 H 0.76649 0.77096 0.04202 0.0
H1734 H 0.72542 0.82155 1.02011 0.0
H1735 H 0.69865 0.77344 1.01427 0.0
C1736 C 0.73263 0.62996 0.99049 0.0
C1737 C 0.73234 0.65177 0.9837 0.0
C1738 C 0.72133 0.63843 0.99882 0.0
C1739 C 0.70864 0.6687 1.00051 0.0
C1740 C 0.70809 0.69036 0.99368 0.0
C1741 C 0.71993 0.68205 0.98541 0.0
C1742 C 0.6967 0.67815 1.00938 0.0
C1743 C 0.71044 0.70572 1.013 0.0
C1744 C 0.67245 0.66014 1.01433 0.0
C1745 C 0.65464 0.63211 1.01074 0.0
C1746 C 0.63491 0.63382 1.00296 0.0
C1747 C 0.61832 0.60728 0.99959 0.0
C1748 C 0.62103 0.57894 1.00398 0.0
C1749 C 0.64026 0.5771 1.01175 0.0
C1750 C 0.65694 0.60356 1.01515 0.0
C1751 C 0.63458 0.74443 0.04451 0.0
C1752 C 0.63984 0.72489 0.05172 0.0
C1753 C 0.64702 0.7357 0.0363 0.0
C1754 C 0.66483 0.70719 0.03511 0.0
C1755 C 0.67031 0.68775 0.04231 0.0
C1756 C 0.6582 0.69658 0.05053 0.0
C1757 C 0.67712 0.69734 0.02634 0.0
C1758 C 0.66347 0.66973 0.02277 0.0
C1759 C 0.70101 0.71551 0.02139 0.0
C1760 C 0.71723 0.74442 0.02487 0.0
C1761 C 0.73668 0.744 0.0327 0.0
C1762 C 0.75165 0.7714 0.03597 0.0
C1763 C 0.74754 0.79933 0.03145 0.0
C1764 C 0.72854 0.7999 0.02362 0.0
C1765 C 0.7135 0.77257 0.02032 0.0
H1766 H 0.75914 0.82052 0.03399 0.0
H1767 H 0.60816 0.55843 1.00136 0.0
H1768 H 0.36972 0.22977 0.04364 0.0
H1769 H 0.3456 0.25183 0.03024 0.0
H1770 H 0.36942 0.3442 0.03949 0.0
H1771 H 0.39265 0.32228 0.05305 0.0
H1772 H 0.30844 0.34559 0.03098 0.0
H1773 H 0.42479 0.3055 0.02486 0.0
H1774 H 0.47334 0.26655 0.02448 0.0
H1775 H 0.4085 0.20725 1.00845 0.0
H1776 H 0.35933 0.24568 1.00884 0.0
H1777 H 0.29752 0.41402 0.98848 0.0
H1778 H 0.32046 0.39595 1.00255 0.0
H1779 H 0.28816 0.30238 0.99626 0.0
H1780 H 0.26565 0.32017 0.98222 0.0
H1781 H 0.35576 0.30427 1.00329 0.0
H1782 H 0.23877 0.3462 1.00989 0.0
H1783 H 0.19232 0.38707 1.01021 0.0
H1784 H 0.26208 0.44568 0.0252 0.0
H1785 H 0.30915 0.4053 0.02487 0.0
C1786 C 0.36945 0.25481 0.04288 0.0
C1787 C 0.38334 0.2742 0.04942 0.0
C1788 C 0.35587 0.26743 0.03516 0.0
C1789 C 0.35642 0.29972 0.03372 0.0
C1790 C 0.36883 0.31923 0.0404 0.0
C1791 C 0.3821 0.30663 0.04817 0.0
C1792 C 0.34499 0.31293 0.02517 0.0
C1793 C 0.3192 0.33681 0.02494 0.0
C1794 C 0.35871 0.30148 1.01723 0.0
C1795 C 0.38825 0.27835 1.01695 0.0
C1796 C 0.42078 0.28406 0.02131 0.0
C1797 C 0.44843 0.26209 0.02108 0.0
C1798 C 0.44398 0.23441 1.01646 0.0
C1799 C 0.41189 0.22868 1.01203 0.0
C1800 C 0.38413 0.25056 1.01225 0.0
C1801 C 0.29554 0.38958 0.99007 0.0
C1802 C 0.27953 0.3686 0.98422 0.0
C1803 C 0.30842 0.3793 0.99815 0.0
C1804 C 0.30575 0.34781 1.00052 0.0
C1805 C 0.29043 0.32678 0.99462 0.0
C1806 C 0.2773 0.33706 0.9866 0.0
C1807 C 0.3189 0.33652 1.00912 0.0
C1808 C 0.34511 0.31307 1.00934 0.0
C1809 C 0.30592 0.34865 1.01704 0.0
C1810 C 0.2776 0.37287 1.01727 0.0
C1811 C 0.24431 0.3679 1.01319 0.0
C1812 C 0.21785 0.39096 1.01339 0.0
C1813 C 0.22428 0.41899 1.01771 0.0
C1814 C 0.25716 0.42398 0.02185 0.0
C1815 C 0.28372 0.40101 0.02167 0.0
H1816 H 0.20377 0.43681 1.01785 0.0
H1817 H 0.46542 0.21743 1.01629 0.0
H1818 H 0.75191 0.81756 0.28554 0.0
H1819 H 0.73025 0.80048 0.27136 0.0
H1820 H 0.69981 0.89482 0.26518 0.0
H1821 H 0.72046 0.91174 0.27956 0.0
H1822 H 0.65141 0.8579 0.25899 0.0
H1823 H 0.77885 0.85915 0.25713 0.0
H1824 H 0.84105 0.8473 0.2615 0.0
H1825 H 0.82078 0.74963 0.25845 0.0
H1826 H 0.75828 0.76087 0.25418 0.0
H1827 H 0.63097 0.82277 0.21401 0.0
H1828 H 0.65526 0.84484 0.22743 0.0
H1829 H 0.6756 0.75249 0.23719 0.0
H1830 H 0.65159 0.73024 0.22379 0.0
H1831 H 0.73085 0.7921 0.24092 0.0
H1832 H 0.60141 0.79292 0.2433 0.0
H1833 H 0.5403 0.80672 0.23847 0.0
H1834 H 0.56666 0.90375 0.23991 0.0
H1835 H 0.62811 0.8905 0.24464 0.0
C1836 C 0.74054 0.83464 0.28116 0.0
C1837 C 0.73819 0.86604 0.28364 0.0
C1838 C 0.7283 0.8249 0.27302 0.0
C1839 C 0.71422 0.84644 0.26705 0.0
C1840 C 0.71075 0.87771 0.26962 0.0
C1841 C 0.72248 0.88739 0.27784 0.0
C1842 C 0.7034 0.83621 0.25814 0.0
C1843 C 0.66908 0.84394 0.255 0.0
C1844 C 0.72615 0.81772 0.25289 0.0
C1845 C 0.76379 0.81086 0.2554 0.0
C1846 C 0.78759 0.83513 0.25744 0.0
C1847 C 0.82291 0.82852 0.2599 0.0
C1848 C 0.83484 0.79773 0.26027 0.0
C1849 C 0.81149 0.77347 0.25817 0.0
C1850 C 0.77613 0.77995 0.25572 0.0
C1851 C 0.64107 0.80712 0.21895 0.0
C1852 C 0.63917 0.77466 0.21781 0.0
C1853 C 0.65474 0.81981 0.22666 0.0
C1854 C 0.66679 0.80034 0.23339 0.0
C1855 C 0.66635 0.768 0.23211 0.0
C1856 C 0.65257 0.7553 0.22443 0.0
C1857 C 0.67883 0.81343 0.24187 0.0
C1858 C 0.71337 0.80625 0.24491 0.0
C1859 C 0.6565 0.83275 0.24697 0.0
C1860 C 0.61944 0.84071 0.24424 0.0
C1861 C 0.59424 0.81719 0.24253 0.0
C1862 C 0.55953 0.82491 0.23982 0.0
C1863 C 0.54963 0.85609 0.23886 0.0
C1864 C 0.57438 0.87961 0.24064 0.0
C1865 C 0.60914 0.87201 0.24335 0.0
H1866 H 0.52276 0.86202 0.23676 0.0
H1867 H 0.86219 0.79266 0.26218 0.0
H1868 H 0.18629 0.15383 0.48021 0.0
H1869 H 0.16001 0.1706 0.49408 0.0
H1870 H 0.25687 0.14333 0.50742 0.0
H1871 H 0.28328 0.1273 0.49363 0.0
H1872 H 0.18887 0.12405 0.5156 0.0
H1873 H 0.24919 0.21475 0.50352 0.0
H1874 H 0.25962 0.25367 0.49208 0.0
H1875 H 0.1493 0.28189 0.49325 0.0
H1876 H 0.13811 0.24279 0.50462 0.0
H1877 H 0.1801 0.19488 0.55663 0.0
H1878 H 0.19872 0.17739 0.54227 0.0
H1879 H 0.11467 0.23246 0.53057 0.0
H1880 H 0.09667 0.2508 0.54488 0.0
H1881 H 0.17041 0.23673 0.52095 0.0
H1882 H 0.10774 0.15168 0.53301 0.0
H1883 H 0.09149 0.1122 0.54388 0.0
H1884 H 0.19654 0.07185 0.54209 0.0
H1885 H 0.21361 0.11138 0.53129 0.0
C1886 C 0.20171 0.15121 0.48612 0.0
C1887 C 0.23688 0.1395 0.48585 0.0
C1888 C 0.18679 0.16085 0.49402 0.0
C1889 C 0.20655 0.15828 0.50178 0.0
C1890 C 0.24114 0.14552 0.50153 0.0
C1891 C 0.25627 0.13654 0.49364 0.0
C1892 C 0.19209 0.16998 0.51015 0.0
C1893 C 0.18506 0.14869 0.51681 0.0
C1894 C 0.18591 0.20201 0.51162 0.0
C1895 C 0.19273 0.22562 0.50484 0.0
C1896 C 0.22709 0.22906 0.50128 0.0
C1897 C 0.23315 0.25119 0.49482 0.0
C1898 C 0.20511 0.27017 0.49192 0.0
C1899 C 0.17098 0.26713 0.49549 0.0
C1900 C 0.16476 0.245 0.50194 0.0
C1901 C 0.16575 0.20349 0.551 0.0
C1902 C 0.13681 0.22421 0.55194 0.0
C1903 C 0.17624 0.19325 0.54278 0.0
C1904 C 0.15766 0.20301 0.53529 0.0
C1905 C 0.12942 0.22441 0.53621 0.0
C1906 C 0.11914 0.23492 0.54442 0.0
C1907 C 0.16766 0.19085 0.52655 0.0
C1908 C 0.17387 0.21204 0.51978 0.0
C1909 C 0.17217 0.1586 0.52492 0.0
C1910 C 0.16207 0.13469 0.5314 0.0
C1911 C 0.12748 0.13454 0.53498 0.0
C1912 C 0.11809 0.11212 0.54112 0.0
C1913 C 0.14299 0.08958 0.54369 0.0
C1914 C 0.17729 0.08936 0.5401 0.0
C1915 C 0.18683 0.11174 0.53396 0.0
H1916 H 0.13567 0.07224 0.54844 0.0
H1917 H 0.20986 0.2873 0.48692 0.0
H1918 H 0.93354 0.73817 0.72242 0.0
H1919 H 0.91197 0.72045 0.73652 0.0
H1920 H 0.81052 0.69577 0.72498 0.0
H1921 H 0.83213 0.71291 0.71077 0.0
H1922 H 0.80727 0.73064 0.74136 0.0
H1923 H 0.86591 0.64216 0.72837 0.0
H1924 H 0.91759 0.61658 0.7215 0.0
H1925 H 0.98006 0.62959 0.74464 0.0
H1926 H 0.92935 0.65674 0.75151 0.0
H1927 H 0.73086 0.64676 0.77548 0.0
H1928 H 0.75362 0.6625 0.76136 0.0
H1929 H 0.86178 0.65901 0.77137 0.0
H1930 H 0.83882 0.6417 0.78547 0.0
H1931 H 0.86337 0.63934 0.75573 0.0
H1932 H 0.81228 0.72973 0.76853 0.0
H1933 H 0.76633 0.76176 0.77572 0.0
H1934 H 0.69584 0.75005 0.75388 0.0
H1935 H 0.7412 0.71758 0.74661 0.0
C1936 C 0.90652 0.7292 0.72287 0.0
C1937 C 0.88454 0.72696 0.71545 0.0
C1938 C 0.89431 0.71897 0.73094 0.0
C1939 C 0.85972 0.70664 0.73179 0.0
C1940 C 0.83732 0.70519 0.72446 0.0
C1941 C 0.84973 0.71493 0.71634 0.0
C1942 C 0.84718 0.69476 0.7403 0.0
C1943 C 0.81915 0.71041 0.74446 0.0
C1944 C 0.86372 0.6691 0.74448 0.0
C1945 C 0.89386 0.65186 0.74043 0.0
C1946 C 0.89075 0.6399 0.73197 0.0
C1947 C 0.91988 0.62506 0.72808 0.0
C1948 C 0.95201 0.62131 0.73264 0.0
C1949 C 0.95514 0.63251 0.74111 0.0
C1950 C 0.92625 0.64775 0.745 0.0
C1951 C 0.75949 0.64934 0.77466 0.0
C1952 C 0.78305 0.64338 0.78161 0.0
C1953 C 0.77254 0.65849 0.76658 0.0
C1954 C 0.80946 0.6629 0.76529 0.0
C1955 C 0.83318 0.65602 0.77217 0.0
C1956 C 0.8201 0.64616 0.78023 0.0
C1957 C 0.823 0.67507 0.75683 0.0
C1958 C 0.85133 0.65954 0.75267 0.0
C1959 C 0.80737 0.7014 0.75272 0.0
C1960 C 0.78002 0.72097 0.75706 0.0
C1961 C 0.78688 0.7338 0.76529 0.0
C1962 C 0.76096 0.75206 0.76937 0.0
C1963 C 0.72815 0.75787 0.76527 0.0
C1964 C 0.72124 0.7455 0.75706 0.0
C1965 C 0.74706 0.72718 0.75295 0.0
H1966 H 0.70812 0.77202 0.76844 0.0
H1967 H 0.97448 0.60974 0.72961 0.0
loop_
_geom_bond_atom_site_label_1
_geom_bond_atom_site_label_2
_geom_bond_distance
_geom_bond_site_symmetry_2
_ccdc_geom_bond_type
Cu0 N1 1.999 . S
Cu0 O6 1.974 . S
Cu0 N11 1.985 . S
Cu0 O20 1.959 . S
N1 Cu0 1.999 . S
N1 C3 1.263 . S
N1 C5 1.389 . S
N2 C3 1.358 . S
N2 C4 1.400 . S
C3 N1 1.263 . S
C3 N2 1.358 . S
C3 H9 0.930 . S
C4 N2 1.400 . S
C4 C5 1.351 . S
C4 H21 0.930 . S
C5 N1 1.389 . S
C5 C4 1.351 . S
C5 H10 0.930 . S
O6 Cu0 1.974 . S
O6 C16 1.282 . S
C7 O8 1.261 . S
C7 O20 1.251 . S
O8 C7 1.261 . S
H9 C3 0.930 . S
H10 C5 0.930 . S
N11 Cu0 1.985 . S
N11 C13 1.335 . S
N11 C14 1.390 . S
N12 C13 1.345 . S
N12 C15 1.336 . S
C13 N11 1.335 . S
C13 N12 1.345 . S
C13 H18 0.930 . S
C14 N11 1.390 . S
C14 C15 1.346 . S
C14 H19 0.930 . S
C15 N12 1.336 . S
C15 C14 1.346 . S
C15 H22 0.929 . S
C16 O6 1.282 . S
C16 O17 1.216 . S
O17 C16 1.216 . S
H18 C13 0.930 . S
H19 C14 0.930 . S
O20 Cu0 1.959 . S
O20 C7 1.251 . S
H21 C4 0.930 . S
H22 C15 0.929 . S
Cu23 N24 1.999 . S
Cu23 O29 1.974 . S
Cu23 N34 1.985 . S
Cu23 O43 1.959 . S
N24 Cu23 1.999 . S
N24 C26 1.263 . S
N24 C28 1.389 . S
N25 C26 1.358 . S
N25 C27 1.400 . S
C26 N24 1.263 . S
C26 N25 1.358 . S
C26 H32 0.930 . S
C27 N25 1.400 . S
C27 C28 1.351 . S
C27 H44 0.930 . S
C28 N24 1.389 . S
C28 C27 1.351 . S
C28 H33 0.930 1_655 S
O29 Cu23 1.974 . S
O29 C39 1.282 . S
C30 O31 1.261 . S
C30 O43 1.251 . S
O31 C30 1.261 . S
H32 C26 0.930 . S
H33 C28 0.930 1_455 S
N34 Cu23 1.985 . S
N34 C36 1.335 . S
N34 C37 1.390 . S
N35 C36 1.345 . S
N35 C38 1.336 . S
C36 N34 1.335 . S
C36 N35 1.345 . S
C36 H41 0.930 . S
C37 N34 1.390 . S
C37 C38 1.346 . S
C37 H42 0.930 . S
C38 N35 1.336 . S
C38 C37 1.346 . S
C38 H45 0.929 . S
C39 O29 1.282 . S
C39 O40 1.216 . S
O40 C39 1.216 . S
H41 C36 0.930 . S
H42 C37 0.930 . S
O43 Cu23 1.959 . S
O43 C30 1.251 . S
H44 C27 0.930 . S
H45 C38 0.929 . S
Cu46 N47 1.999 . S
Cu46 O52 1.974 . S
Cu46 N57 1.985 . S
Cu46 O66 1.959 . S
N47 Cu46 1.999 . S
N47 C49 1.263 . S
N47 C51 1.389 . S
N48 C49 1.358 . S
N48 C50 1.400 . S
C49 N47 1.263 . S
C49 N48 1.358 . S
C49 H55 0.930 . S
C50 N48 1.400 . S
C50 C51 1.351 . S
C50 H67 0.930 . S
C51 N47 1.389 . S
C51 C50 1.351 . S
C51 H56 0.930 . S
O52 Cu46 1.974 . S
O52 C62 1.282 . S
C53 O54 1.261 . S
C53 O66 1.251 . S
O54 C53 1.261 . S
H55 C49 0.930 . S
H56 C51 0.930 . S
N57 Cu46 1.985 . S
N57 C59 1.335 . S
N57 C60 1.390 . S
N58 C59 1.345 . S
N58 C61 1.336 . S
C59 N57 1.335 . S
C59 N58 1.345 . S
C59 H64 0.930 . S
C60 N57 1.390 . S
C60 C61 1.346 . S
C60 H65 0.930 . S
C61 N58 1.336 . S
C61 C60 1.346 . S
C61 H68 0.929 . S
C62 O52 1.282 . S
C62 O63 1.216 . S
O63 C62 1.216 . S
H64 C59 0.930 . S
H65 C60 0.930 . S
O66 Cu46 1.959 . S
O66 C53 1.251 . S
H67 C50 0.930 . S
H68 C61 0.929 . S
Cu69 N70 1.999 . S
Cu69 O75 1.974 . S
Cu69 N80 1.985 . S
Cu69 O89 1.959 . S
N70 Cu69 1.999 . S
N70 C72 1.263 . S
N70 C74 1.389 . S
N71 C72 1.358 . S
N71 C73 1.400 . S
C72 N70 1.263 . S
C72 N71 1.358 . S
C72 H78 0.930 . S
C73 N71 1.400 . S
C73 C74 1.351 . S
C73 H90 0.930 . S
C74 N70 1.389 . S
C74 C73 1.351 . S
C74 H79 0.930 . S
O75 Cu69 1.974 . S
O75 C85 1.282 . S
C76 O77 1.261 . S
C76 O89 1.251 . S
O77 C76 1.261 . S
H78 C72 0.930 . S
H79 C74 0.930 . S
N80 Cu69 1.985 . S
N80 C82 1.335 . S
N80 C83 1.390 . S
N81 C82 1.345 . S
N81 C84 1.336 . S
C82 N80 1.335 . S
C82 N81 1.345 . S
C82 H87 0.930 . S
C83 N80 1.390 . S
C83 C84 1.346 . S
C83 H88 0.930 . S
C84 N81 1.336 . S
C84 C83 1.346 . S
C84 H91 0.929 . S
C85 O75 1.282 . S
C85 O86 1.216 . S
O86 C85 1.216 . S
H87 C82 0.930 . S
H88 C83 0.930 . S
O89 Cu69 1.959 . S
O89 C76 1.251 . S
H90 C73 0.930 . S
H91 C84 0.929 . S
Cu92 N93 1.999 . S
Cu92 O98 1.974 . S
Cu92 N103 1.985 . S
Cu92 O112 1.959 . S
N93 Cu92 1.999 . S
N93 C95 1.263 . S
N93 C97 1.389 . S
N94 C95 1.358 . S
N94 C96 1.400 . S
C95 N93 1.263 . S
C95 N94 1.358 . S
C95 H101 0.930 . S
C96 N94 1.400 . S
C96 C97 1.351 . S
C96 H113 0.930 . S
C97 N93 1.389 . S
C97 C96 1.351 . S
C97 H102 0.930 . S
O98 Cu92 1.974 . S
O98 C108 1.282 . S
C99 O100 1.261 . S
C99 O112 1.251 . S
O100 C99 1.261 . S
H101 C95 0.930 . S
H102 C97 0.930 . S
N103 Cu92 1.985 . S
N103 C105 1.335 . S
N103 C106 1.390 . S
N104 C105 1.345 . S
N104 C107 1.336 . S
C105 N103 1.335 . S
C105 N104 1.345 . S
C105 H110 0.930 . S
C106 N103 1.390 . S
C106 C107 1.346 . S
C106 H111 0.930 . S
C107 N104 1.336 . S
C107 C106 1.346 . S
C107 H114 0.929 . S
C108 O98 1.282 . S
C108 O109 1.216 . S
O109 C108 1.216 . S
H110 C105 0.930 . S
H111 C106 0.930 . S
O112 Cu92 1.959 . S
O112 C99 1.251 . S
H113 C96 0.930 . S
H114 C107 0.929 . S
Cu115 N116 1.999 . S
Cu115 O121 1.974 . S
Cu115 N126 1.985 . S
Cu115 O135 1.959 . S
N116 Cu115 1.999 . S
N116 C118 1.263 . S
N116 C120 1.389 . S
N117 C118 1.358 . S
N117 C119 1.400 . S
C118 N116 1.263 . S
C118 N117 1.358 . S
C118 H124 0.930 . S
C119 N117 1.400 . S
C119 C120 1.351 . S
C119 H136 0.930 . S
C120 N116 1.389 . S
C120 C119 1.351 . S
C120 H125 0.930 . S
O121 Cu115 1.974 . S
O121 C131 1.282 . S
C122 O123 1.261 . S
C122 O135 1.251 . S
O123 C122 1.261 . S
H124 C118 0.930 . S
H125 C120 0.930 . S
N126 Cu115 1.985 . S
N126 C128 1.335 . S
N126 C129 1.390 . S
N127 C128 1.345 . S
N127 C130 1.336 . S
C128 N126 1.335 . S
C128 N127 1.345 . S
C128 H133 0.930 . S
C129 N126 1.390 . S
C129 C130 1.346 . S
C129 H134 0.930 . S
C130 N127 1.336 . S
C130 C129 1.346 . S
C130 H137 0.929 . S
C131 O121 1.282 . S
C131 O132 1.216 . S
O132 C131 1.216 . S
H133 C128 0.930 . S
H134 C129 0.930 . S
O135 Cu115 1.959 . S
O135 C122 1.251 . S
H136 C119 0.930 . S
H137 C130 0.929 . S
Cu138 N139 1.999 . S
Cu138 O144 1.974 . S
Cu138 N149 1.985 . S
Cu138 O158 1.959 . S
N139 Cu138 1.999 . S
N139 C141 1.263 . S
N139 C143 1.389 . S
N140 C141 1.358 . S
N140 C142 1.400 . S
C141 N139 1.263 . S
C141 N140 1.358 . S
C141 H147 0.930 . S
C142 N140 1.400 . S
C142 C143 1.351 . S
C142 H159 0.930 . S
C143 N139 1.389 . S
C143 C142 1.351 . S
C143 H148 0.930 . S
O144 Cu138 1.974 . S
O144 C154 1.282 . S
C145 O146 1.261 . S
C145 O158 1.251 . S
O146 C145 1.261 . S
H147 C141 0.930 . S
H148 C143 0.930 . S
N149 Cu138 1.985 . S
N149 C151 1.335 . S
N149 C152 1.390 . S
N150 C151 1.345 . S
N150 C153 1.336 . S
C151 N149 1.335 . S
C151 N150 1.345 . S
C151 H156 0.930 . S
C152 N149 1.390 . S
C152 C153 1.346 . S
C152 H157 0.930 . S
C153 N150 1.336 . S
C153 C152 1.346 . S
C153 H160 0.929 . S
C154 O144 1.282 . S
C154 O155 1.216 . S
O155 C154 1.216 . S
H156 C151 0.930 . S
H157 C152 0.930 . S
O158 Cu138 1.959 . S
O158 C145 1.251 . S
H159 C142 0.930 . S
H160 C153 0.929 . S
Cu161 N162 1.999 . S
Cu161 O167 1.974 . S
Cu161 N172 1.985 . S
Cu161 O181 1.959 . S
N162 Cu161 1.999 . S
N162 C164 1.263 . S
N162 C166 1.389 . S
N163 C164 1.358 . S
N163 C165 1.400 . S
C164 N162 1.263 . S
C164 N163 1.358 . S
C164 H170 0.930 . S
C165 N163 1.400 . S
C165 C166 1.351 . S
C165 H182 0.930 . S
C166 N162 1.389 . S
C166 C165 1.351 . S
C166 H171 0.930 1_655 S
O167 Cu161 1.974 . S
O167 C177 1.282 . S
C168 O169 1.261 . S
C168 O181 1.251 . S
O169 C168 1.261 . S
H170 C164 0.930 . S
H171 C166 0.930 1_455 S
N172 Cu161 1.985 . S
N172 C174 1.335 . S
N172 C175 1.390 . S
N173 C174 1.345 . S
N173 C176 1.336 . S
C174 N172 1.335 . S
C174 N173 1.345 . S
C174 H179 0.930 . S
C175 N172 1.390 . S
C175 C176 1.346 . S
C175 H180 0.930 . S
C176 N173 1.336 . S
C176 C175 1.346 . S
C176 H183 0.929 . S
C177 O167 1.282 . S
C177 O178 1.216 . S
O178 C177 1.216 . S
H179 C174 0.930 . S
H180 C175 0.930 . S
O181 Cu161 1.959 . S
O181 C168 1.251 . S
H182 C165 0.930 . S
H183 C176 0.929 . S
Cu184 N185 1.999 . S
Cu184 O190 1.974 . S
Cu184 N195 1.985 . S
Cu184 O204 1.959 . S
N185 Cu184 1.999 . S
N185 C187 1.263 . S
N185 C189 1.389 . S
N186 C187 1.358 . S
N186 C188 1.400 . S
C187 N185 1.263 . S
C187 N186 1.358 . S
C187 H193 0.930 . S
C188 N186 1.400 . S
C188 C189 1.351 . S
C188 H205 0.930 . S
C189 N185 1.389 . S
C189 C188 1.351 . S
C189 H194 0.930 . S
O190 Cu184 1.974 . S
O190 C200 1.282 . S
C191 O192 1.261 . S
C191 O204 1.251 . S
O192 C191 1.261 . S
H193 C187 0.930 . S
H194 C189 0.930 . S
N195 Cu184 1.985 . S
N195 C197 1.335 . S
N195 C198 1.390 . S
N196 C197 1.345 . S
N196 C199 1.336 . S
C197 N195 1.335 . S
C197 N196 1.345 . S
C197 H202 0.930 . S
C198 N195 1.390 . S
C198 C199 1.346 . S
C198 H203 0.930 . S
C199 N196 1.336 . S
C199 C198 1.346 . S
C199 H206 0.929 . S
C200 O190 1.282 . S
C200 O201 1.216 . S
O201 C200 1.216 . S
H202 C197 0.930 . S
H203 C198 0.930 . S
O204 Cu184 1.959 . S
O204 C191 1.251 . S
H205 C188 0.930 . S
H206 C199 0.929 . S
Cu207 N208 1.999 . S
Cu207 O213 1.974 . S
Cu207 N218 1.985 . S
Cu207 O227 1.959 . S
N208 Cu207 1.999 . S
N208 C210 1.263 . S
N208 C212 1.389 . S
N209 C210 1.358 . S
N209 C211 1.400 . S
C210 N208 1.263 . S
C210 N209 1.358 . S
C210 H216 0.930 . S
C211 N209 1.400 . S
C211 C212 1.351 . S
C211 H228 0.930 . S
C212 N208 1.389 . S
C212 C211 1.351 . S
C212 H217 0.930 . S
O213 Cu207 1.974 . S
O213 C223 1.282 . S
C214 O215 1.261 . S
C214 O227 1.251 . S
O215 C214 1.261 . S
H216 C210 0.930 . S
H217 C212 0.930 . S
N218 Cu207 1.985 . S
N218 C220 1.335 . S
N218 C221 1.390 . S
N219 C220 1.345 . S
N219 C222 1.336 . S
C220 N218 1.335 . S
C220 N219 1.345 . S
C220 H225 0.930 . S
C221 N218 1.390 . S
C221 C222 1.346 . S
C221 H226 0.930 . S
C222 N219 1.336 . S
C222 C221 1.346 . S
C222 H229 0.929 . S
C223 O213 1.282 . S
C223 O224 1.216 . S
O224 C223 1.216 . S
H225 C220 0.930 . S
H226 C221 0.930 . S
O227 Cu207 1.959 . S
O227 C214 1.251 . S
H228 C211 0.930 . S
H229 C222 0.929 . S
Cu230 N231 1.999 . S
Cu230 O236 1.974 . S
Cu230 N241 1.985 . S
Cu230 O250 1.959 . S
N231 Cu230 1.999 . S
N231 C233 1.263 . S
N231 C235 1.389 . S
N232 C233 1.358 . S
N232 C234 1.400 . S
C233 N231 1.263 . S
C233 N232 1.358 . S
C233 H239 0.930 . S
C234 N232 1.400 . S
C234 C235 1.351 . S
C234 H251 0.930 . S
C235 N231 1.389 . S
C235 C234 1.351 . S
C235 H240 0.930 . S
O236 Cu230 1.974 . S
O236 C246 1.282 . S
C237 O238 1.261 . S
C237 O250 1.251 . S
O238 C237 1.261 . S
H239 C233 0.930 . S
H240 C235 0.930 . S
N241 Cu230 1.985 . S
N241 C243 1.335 . S
N241 C244 1.390 . S
N242 C243 1.345 . S
N242 C245 1.336 . S
C243 N241 1.335 . S
C243 N242 1.345 . S
C243 H248 0.930 . S
C244 N241 1.390 . S
C244 C245 1.346 . S
C244 H249 0.930 . S
C245 N242 1.336 . S
C245 C244 1.346 . S
C245 H252 0.929 . S
C246 O236 1.282 . S
C246 O247 1.216 . S
O247 C246 1.216 . S
H248 C243 0.930 . S
H249 C244 0.930 . S
O250 Cu230 1.959 . S
O250 C237 1.251 . S
H251 C234 0.930 . S
H252 C245 0.929 . S
Cu253 N254 1.999 . S
Cu253 O259 1.974 . S
Cu253 N264 1.985 . S
Cu253 O273 1.959 . S
N254 Cu253 1.999 . S
N254 C256 1.263 . S
N254 C258 1.389 . S
N255 C256 1.358 . S
N255 C257 1.400 . S
C256 N254 1.263 . S
C256 N255 1.358 . S
C256 H262 0.930 . S
C257 N255 1.400 . S
C257 C258 1.351 . S
C257 H274 0.930 . S
C258 N254 1.389 . S
C258 C257 1.351 . S
C258 H263 0.930 1_455 S
O259 Cu253 1.974 . S
O259 C269 1.282 . S
C260 O261 1.261 . S
C260 O273 1.251 . S
O261 C260 1.261 . S
H262 C256 0.930 . S
H263 C258 0.930 1_655 S
N264 Cu253 1.985 . S
N264 C266 1.335 . S
N264 C267 1.390 . S
N265 C266 1.345 . S
N265 C268 1.336 . S
C266 N264 1.335 . S
C266 N265 1.345 . S
C266 H271 0.930 . S
C267 N264 1.390 . S
C267 C268 1.346 . S
C267 H272 0.930 . S
C268 N265 1.336 . S
C268 C267 1.346 . S
C268 H275 0.929 . S
C269 O259 1.282 . S
C269 O270 1.216 . S
O270 C269 1.216 . S
H271 C266 0.930 . S
H272 C267 0.930 . S
O273 Cu253 1.959 . S
O273 C260 1.251 . S
H274 C257 0.930 . S
H275 C268 0.929 . S
Cu276 N277 1.999 . S
Cu276 O282 1.974 . S
Cu276 N287 1.985 . S
Cu276 O296 1.959 . S
N277 Cu276 1.999 . S
N277 C279 1.263 . S
N277 C281 1.389 . S
N278 C279 1.358 . S
N278 C280 1.400 . S
C279 N277 1.263 . S
C279 N278 1.358 . S
C279 H285 0.930 . S
C280 N278 1.400 . S
C280 C281 1.351 . S
C280 H297 0.930 . S
C281 N277 1.389 . S
C281 C280 1.351 . S
C281 H286 0.930 . S
O282 Cu276 1.974 . S
O282 C292 1.282 . S
C283 O284 1.261 . S
C283 O296 1.251 . S
O284 C283 1.261 . S
H285 C279 0.930 . S
H286 C281 0.930 . S
N287 Cu276 1.985 . S
N287 C289 1.335 . S
N287 C290 1.390 . S
N288 C289 1.345 . S
N288 C291 1.336 . S
C289 N287 1.335 . S
C289 N288 1.345 . S
C289 H294 0.930 . S
C290 N287 1.390 . S
C290 C291 1.346 . S
C290 H295 0.930 . S
C291 N288 1.336 . S
C291 C290 1.346 . S
C291 H298 0.929 . S
C292 O282 1.282 . S
C292 O293 1.216 . S
O293 C292 1.216 . S
H294 C289 0.930 . S
H295 C290 0.930 . S
O296 Cu276 1.959 . S
O296 C283 1.251 . S
H297 C280 0.930 . S
H298 C291 0.929 . S
Cu299 N300 1.999 . S
Cu299 O305 1.974 . S
Cu299 N310 1.985 . S
Cu299 O319 1.959 . S
N300 Cu299 1.999 . S
N300 C302 1.263 . S
N300 C304 1.389 . S
N301 C302 1.358 . S
N301 C303 1.400 . S
C302 N300 1.263 . S
C302 N301 1.358 . S
C302 H308 0.930 . S
C303 N301 1.400 . S
C303 C304 1.351 . S
C303 H320 0.930 . S
C304 N300 1.389 . S
C304 C303 1.351 . S
C304 H309 0.930 1_455 S
O305 Cu299 1.974 . S
O305 C315 1.282 . S
C306 O307 1.261 . S
C306 O319 1.251 . S
O307 C306 1.261 . S
H308 C302 0.930 . S
H309 C304 0.930 1_655 S
N310 Cu299 1.985 . S
N310 C312 1.335 . S
N310 C313 1.390 . S
N311 C312 1.345 . S
N311 C314 1.336 . S
C312 N310 1.335 . S
C312 N311 1.345 . S
C312 H317 0.930 . S
C313 N310 1.390 . S
C313 C314 1.346 . S
C313 H318 0.930 . S
C314 N311 1.336 . S
C314 C313 1.346 . S
C314 H321 0.929 . S
C315 O305 1.282 . S
C315 O316 1.216 . S
O316 C315 1.216 . S
H317 C312 0.930 . S
H318 C313 0.930 . S
O319 Cu299 1.959 . S
O319 C306 1.251 . S
H320 C303 0.930 . S
H321 C314 0.929 . S
Cu322 N323 1.999 . S
Cu322 O328 1.974 . S
Cu322 N333 1.985 . S
Cu322 O342 1.959 . S
N323 Cu322 1.999 . S
N323 C325 1.263 . S
N323 C327 1.389 . S
N324 C325 1.358 . S
N324 C326 1.400 . S
C325 N323 1.263 . S
C325 N324 1.358 . S
C325 H331 0.930 . S
C326 N324 1.400 . S
C326 C327 1.351 . S
C326 H343 0.930 . S
C327 N323 1.389 . S
C327 C326 1.351 . S
C327 H332 0.930 . S
O328 Cu322 1.974 . S
O328 C338 1.282 . S
C329 O330 1.261 . S
C329 O342 1.251 . S
O330 C329 1.261 . S
H331 C325 0.930 . S
H332 C327 0.930 . S
N333 Cu322 1.985 . S
N333 C335 1.335 . S
N333 C336 1.390 . S
N334 C335 1.345 . S
N334 C337 1.336 . S
C335 N333 1.335 . S
C335 N334 1.345 . S
C335 H340 0.930 . S
C336 N333 1.390 . S
C336 C337 1.346 . S
C336 H341 0.930 . S
C337 N334 1.336 . S
C337 C336 1.346 . S
C337 H344 0.929 . S
C338 O328 1.282 . S
C338 O339 1.216 . S
O339 C338 1.216 . S
H340 C335 0.930 . S
H341 C336 0.930 . S
O342 Cu322 1.959 . S
O342 C329 1.251 . S
H343 C326 0.930 . S
H344 C337 0.929 . S
Cu345 N346 1.999 . S
Cu345 O351 1.974 . S
Cu345 N356 1.985 . S
Cu345 O365 1.959 . S
N346 Cu345 1.999 . S
N346 C348 1.263 . S
N346 C350 1.389 . S
N347 C348 1.358 . S
N347 C349 1.400 . S
C348 N346 1.263 . S
C348 N347 1.358 . S
C348 H354 0.930 . S
C349 N347 1.400 . S
C349 C350 1.351 . S
C349 H366 0.930 . S
C350 N346 1.389 . S
C350 C349 1.351 . S
C350 H355 0.930 . S
O351 Cu345 1.974 . S
O351 C361 1.282 . S
C352 O353 1.261 . S
C352 O365 1.251 . S
O353 C352 1.261 . S
H354 C348 0.930 . S
H355 C350 0.930 . S
N356 Cu345 1.985 . S
N356 C358 1.335 . S
N356 C359 1.390 . S
N357 C358 1.345 . S
N357 C360 1.336 . S
C358 N356 1.335 . S
C358 N357 1.345 . S
C358 H363 0.930 . S
C359 N356 1.390 . S
C359 C360 1.346 . S
C359 H364 0.930 . S
C360 N357 1.336 . S
C360 C359 1.346 . S
C360 H367 0.929 . S
C361 O351 1.282 . S
C361 O362 1.216 . S
O362 C361 1.216 . S
H363 C358 0.930 . S
H364 C359 0.930 . S
O365 Cu345 1.959 . S
O365 C352 1.251 . S
H366 C349 0.930 . S
H367 C360 0.929 . S
H368 C386 0.951 . S
H369 C388 0.951 . S
H370 C390 0.950 . S
H371 C391 0.950 . S
H372 C393 0.950 . S
H373 C396 0.950 . S
H374 C397 0.950 . S
H375 C399 0.950 . S
H376 C400 0.949 1_455 S
H377 C401 0.951 . S
H378 C403 0.951 . S
H379 C405 0.950 . S
H380 C406 0.950 . S
H381 C408 0.950 . S
H382 C411 0.950 . S
H383 C412 0.950 . S
H384 C414 0.950 . S
H385 C415 0.949 1_655 S
C386 H368 0.951 . S
C386 C387 1.366 . S
C386 C388 1.388 . S
C387 C386 1.366 . S
C387 C391 1.385 . S
C388 H369 0.951 . S
C388 C386 1.388 . S
C388 C389 1.366 . S
C389 C388 1.366 . S
C389 C390 1.414 . S
C389 C392 1.499 . S
C390 H370 0.950 . S
C390 C389 1.414 . S
C390 C391 1.374 . S
C391 H371 0.950 . S
C391 C387 1.385 . S
C391 C390 1.374 . S
C392 C389 1.499 . S
C392 C393 1.373 1_565 S
C392 C394 1.389 . S
C393 H372 0.950 . S
C393 C392 1.373 1_545 S
C393 C409 1.377 1_655 S
C394 C392 1.389 . S
C394 C395 1.524 . S
C394 C408 1.377 1_655 S
C395 C394 1.524 . S
C395 C396 1.397 . S
C395 C400 1.363 . S
C396 H373 0.950 . S
C396 C395 1.397 . S
C396 C397 1.334 . S
C397 H374 0.950 . S
C397 C396 1.334 . S
C397 C398 1.287 . S
C398 C397 1.287 . S
C398 C399 1.524 . S
C398 H417 0.913 . S
C399 H375 0.950 . S
C399 C398 1.524 . S
C399 C400 1.415 . S
C400 H376 0.949 1_655 S
C400 C395 1.363 . S
C400 C399 1.415 . S
C401 H377 0.951 . S
C401 C402 1.366 . S
C401 C403 1.388 . S
C402 C401 1.366 . S
C402 C406 1.385 . S
C403 H378 0.951 . S
C403 C401 1.388 . S
C403 C404 1.366 . S
C404 C403 1.366 . S
C404 C405 1.414 . S
C404 C407 1.499 . S
C405 H379 0.950 . S
C405 C404 1.414 . S
C405 C406 1.374 . S
C406 H380 0.950 . S
C406 C402 1.385 . S
C406 C405 1.374 . S
C407 C404 1.499 . S
C407 C408 1.373 1_545 S
C407 C409 1.389 . S
C408 H381 0.950 . S
C408 C394 1.377 1_455 S
C408 C407 1.373 1_565 S
C409 C393 1.377 1_455 S
C409 C407 1.389 . S
C409 C410 1.524 . S
C410 C409 1.524 . S
C410 C411 1.397 . S
C410 C415 1.363 . S
C411 H382 0.950 . S
C411 C410 1.397 . S
C411 C412 1.334 . S
C412 H383 0.950 . S
C412 C411 1.334 . S
C412 C413 1.287 . S
C413 C412 1.287 . S
C413 C414 1.524 . S
C413 H416 0.999 . S
C414 H384 0.950 . S
C414 C413 1.524 . S
C414 C415 1.415 . S
C415 H385 0.949 1_455 S
C415 C410 1.363 . S
C415 C414 1.415 . S
H416 C413 0.999 . S
H417 C398 0.913 . S
H418 C436 0.951 . S
H419 C438 0.951 . S
H420 C440 0.935 1_455 S
H421 C441 0.950 1_455 S
H422 C443 0.950 . S
H423 C446 0.950 . S
H424 C447 0.950 . S
H425 C449 0.950 . S
H426 C450 0.950 . S
H427 C451 0.951 . S
H428 C453 0.951 . S
H429 C455 0.935 1_655 S
H430 C456 0.950 1_655 S
H431 C458 0.950 . S
H432 C461 0.950 . S
H433 C462 0.950 . S
H434 C464 0.950 . S
H435 C465 0.950 . S
C436 H418 0.951 . S
C436 C437 1.366 . S
C436 C438 1.388 . S
C437 C436 1.366 . S
C437 C441 1.385 . S
C438 H419 0.951 . S
C438 C436 1.388 . S
C438 C439 1.366 . S
C439 C438 1.366 . S
C439 C440 1.424 . S
C439 C442 1.499 . S
C440 H420 0.935 1_655 S
C440 C439 1.424 . S
C440 C441 1.379 . S
C441 H421 0.950 1_655 S
C441 C437 1.385 . S
C441 C440 1.379 . S
C442 C439 1.499 . S
C442 C443 1.374 1_655 S
C442 C444 1.389 . S
C443 H422 0.950 . S
C443 C442 1.374 1_455 S
C443 C459 1.376 . S
C444 C442 1.389 . S
C444 C445 1.524 . S
C444 C458 1.376 . S
C445 C444 1.524 . S
C445 C446 1.397 1_655 S
C445 C450 1.363 . S
C446 H423 0.950 . S
C446 C445 1.397 1_455 S
C446 C447 1.334 . S
C447 H424 0.950 . S
C447 C446 1.334 . S
C447 C448 1.287 1_455 S
C448 C447 1.287 1_655 S
C448 C449 1.524 . S
C448 H467 0.913 . S
C449 H425 0.950 . S
C449 C448 1.524 . S
C449 C450 1.415 . S
C450 H426 0.950 . S
C450 C445 1.363 . S
C450 C449 1.415 . S
C451 H427 0.951 . S
C451 C452 1.366 . S
C451 C453 1.388 . S
C452 C451 1.366 . S
C452 C456 1.385 . S
C453 H428 0.951 . S
C453 C451 1.388 . S
C453 C454 1.366 . S
C454 C453 1.366 . S
C454 C455 1.424 . S
C454 C457 1.499 . S
C455 H429 0.935 1_455 S
C455 C454 1.424 . S
C455 C456 1.379 . S
C456 H430 0.950 1_455 S
C456 C452 1.385 . S
C456 C455 1.379 . S
C457 C454 1.499 . S
C457 C458 1.374 1_455 S
C457 C459 1.389 . S
C458 H431 0.950 . S
C458 C444 1.376 . S
C458 C457 1.374 1_655 S
C459 C443 1.376 . S
C459 C457 1.389 . S
C459 C460 1.524 . S
C460 C459 1.524 . S
C460 C461 1.397 1_455 S
C460 C465 1.363 . S
C461 H432 0.950 . S
C461 C460 1.397 1_655 S
C461 C462 1.334 . S
C462 H433 0.950 . S
C462 C461 1.334 . S
C462 C463 1.287 1_655 S
C463 C462 1.287 1_455 S
C463 C464 1.524 . S
C463 H466 0.999 . S
C464 H434 0.950 . S
C464 C463 1.524 . S
C464 C465 1.415 . S
C465 H435 0.950 . S
C465 C460 1.363 . S
C465 C464 1.415 . S
H466 C463 0.999 . S
H467 C448 0.913 . S
H468 C486 0.951 . S
H469 C488 0.951 . S
H470 C490 0.950 . S
H471 C491 0.950 . S
H472 C493 0.950 . S
H473 C496 0.950 . S
H474 C497 0.950 . S
H475 C499 0.950 . S
H476 C500 0.950 . S
H477 C501 0.951 . S
H478 C503 0.951 . S
H479 C505 0.950 . S
H480 C506 0.950 . S
H481 C508 0.950 . S
H482 C511 0.950 . S
H483 C512 0.950 . S
H484 C514 0.950 . S
H485 C515 0.950 . S
C486 H468 0.951 . S
C486 C487 1.366 . S
C486 C488 1.388 . S
C487 C486 1.366 . S
C487 C491 1.385 . S
C488 H469 0.951 . S
C488 C486 1.388 . S
C488 C489 1.366 . S
C489 C488 1.366 . S
C489 C490 1.414 . S
C489 C492 1.499 . S
C490 H470 0.950 . S
C490 C489 1.414 . S
C490 C491 1.374 . S
C491 H471 0.950 . S
C491 C487 1.385 . S
C491 C490 1.374 . S
C492 C489 1.499 . S
C492 C493 1.373 . S
C492 C494 1.389 . S
C493 H472 0.950 . S
C493 C492 1.373 . S
C493 C509 1.377 . S
C494 C492 1.389 . S
C494 C495 1.524 . S
C494 C508 1.377 . S
C495 C494 1.524 . S
C495 C496 1.397 . S
C495 C500 1.363 . S
C496 H473 0.950 . S
C496 C495 1.397 . S
C496 C497 1.334 . S
C497 H474 0.950 . S
C497 C496 1.334 . S
C497 C498 1.287 . S
C498 C497 1.287 . S
C498 C499 1.524 . S
C498 H517 0.913 . S
C499 H475 0.950 . S
C499 C498 1.524 . S
C499 C500 1.415 . S
C500 H476 0.950 . S
C500 C495 1.363 . S
C500 C499 1.415 . S
C501 H477 0.951 . S
C501 C502 1.366 . S
C501 C503 1.388 . S
C502 C501 1.366 . S
C502 C506 1.385 . S
C503 H478 0.951 . S
C503 C501 1.388 . S
C503 C504 1.366 . S
C504 C503 1.366 . S
C504 C505 1.414 . S
C504 C507 1.499 . S
C505 H479 0.950 . S
C505 C504 1.414 . S
C505 C506 1.374 . S
C506 H480 0.950 . S
C506 C502 1.385 . S
C506 C505 1.374 . S
C507 C504 1.499 . S
C507 C508 1.373 . S
C507 C509 1.389 . S
C508 H481 0.950 . S
C508 C494 1.377 . S
C508 C507 1.373 . S
C509 C493 1.377 . S
C509 C507 1.389 . S
C509 C510 1.524 . S
C510 C509 1.524 . S
C510 C511 1.397 . S
C510 C515 1.363 . S
C511 H482 0.950 . S
C511 C510 1.397 . S
C511 C512 1.334 . S
C512 H483 0.950 . S
C512 C511 1.334 . S
C512 C513 1.287 . S
C513 C512 1.287 . S
C513 C514 1.524 . S
C513 H516 0.999 . S
C514 H484 0.950 . S
C514 C513 1.524 . S
C514 C515 1.415 . S
C515 H485 0.950 . S
C515 C510 1.363 . S
C515 C514 1.415 . S
H516 C513 0.999 . S
H517 C498 0.913 . S
H518 C536 0.951 . S
H519 C538 0.951 . S
H520 C540 0.950 . S
H521 C541 0.950 . S
H522 C543 0.950 . S
H523 C546 0.950 . S
H524 C547 0.950 . S
H525 C549 0.950 . S
H526 C550 0.950 . S
H527 C551 0.951 . S
H528 C553 0.951 . S
H529 C555 0.950 . S
H530 C556 0.950 . S
H531 C558 0.950 . S
H532 C561 0.950 . S
H533 C562 0.950 . S
H534 C564 0.950 . S
H535 C565 0.950 . S
C536 H518 0.951 . S
C536 C537 1.366 . S
C536 C538 1.388 . S
C537 C536 1.366 . S
C537 C541 1.385 . S
C538 H519 0.951 . S
C538 C536 1.388 . S
C538 C539 1.366 . S
C539 C538 1.366 . S
C539 C540 1.414 . S
C539 C542 1.499 . S
C540 H520 0.950 . S
C540 C539 1.414 . S
C540 C541 1.374 . S
C541 H521 0.950 . S
C541 C537 1.385 . S
C541 C540 1.374 . S
C542 C539 1.499 . S
C542 C543 1.373 . S
C542 C544 1.389 . S
C543 H522 0.950 . S
C543 C542 1.373 . S
C543 C559 1.377 1_545 S
C544 C542 1.389 . S
C544 C545 1.524 . S
C544 C558 1.377 1_545 S
C545 C544 1.524 . S
C545 C546 1.397 . S
C545 C550 1.363 . S
C546 H523 0.950 . S
C546 C545 1.397 . S
C546 C547 1.334 . S
C547 H524 0.950 . S
C547 C546 1.334 . S
C547 C548 1.287 . S
C548 C547 1.287 . S
C548 C549 1.524 . S
C548 H567 0.913 . S
C549 H525 0.950 . S
C549 C548 1.524 . S
C549 C550 1.415 . S
C550 H526 0.950 . S
C550 C545 1.363 . S
C550 C549 1.415 . S
C551 H527 0.951 . S
C551 C552 1.366 . S
C551 C553 1.388 . S
C552 C551 1.366 . S
C552 C556 1.385 . S
C553 H528 0.951 . S
C553 C551 1.388 . S
C553 C554 1.366 . S
C554 C553 1.366 . S
C554 C555 1.414 . S
C554 C557 1.499 . S
C555 H529 0.950 . S
C555 C554 1.414 . S
C555 C556 1.374 . S
C556 H530 0.950 . S
C556 C552 1.385 . S
C556 C555 1.374 . S
C557 C554 1.499 . S
C557 C558 1.373 . S
C557 C559 1.389 . S
C558 H531 0.950 . S
C558 C544 1.377 1_565 S
C558 C557 1.373 . S
C559 C543 1.377 1_565 S
C559 C557 1.389 . S
C559 C560 1.524 . S
C560 C559 1.524 . S
C560 C561 1.397 . S
C560 C565 1.363 . S
C561 H532 0.950 . S
C561 C560 1.397 . S
C561 C562 1.334 . S
C562 H533 0.950 . S
C562 C561 1.334 . S
C562 C563 1.287 . S
C563 C562 1.287 . S
C563 C564 1.524 . S
C563 H566 0.999 . S
C564 H534 0.950 . S
C564 C563 1.524 . S
C564 C565 1.415 . S
C565 H535 0.950 . S
C565 C560 1.363 . S
C565 C564 1.415 . S
H566 C563 0.999 . S
H567 C548 0.913 . S
H568 C586 0.951 . S
H569 C588 0.951 . S
H570 C590 0.950 . S
H571 C591 0.950 . S
H572 C593 0.950 . S
H573 C596 0.950 . S
H574 C597 0.950 . S
H575 C599 0.950 . S
H576 C600 0.950 1_655 S
H577 C601 0.951 . S
H578 C603 0.951 . S
H579 C605 0.950 . S
H580 C606 0.950 . S
H581 C608 0.950 . S
H582 C611 0.950 . S
H583 C612 0.950 . S
H584 C614 0.950 . S
H585 C615 0.950 1_455 S
C586 H568 0.951 . S
C586 C587 1.366 . S
C586 C588 1.388 . S
C587 C586 1.366 . S
C587 C591 1.385 . S
C588 H569 0.951 . S
C588 C586 1.388 . S
C588 C589 1.366 . S
C589 C588 1.366 . S
C589 C590 1.414 . S
C589 C592 1.499 . S
C590 H570 0.950 . S
C590 C589 1.414 . S
C590 C591 1.374 . S
C591 H571 0.950 . S
C591 C587 1.385 . S
C591 C590 1.374 . S
C592 C589 1.499 . S
C592 C593 1.373 . S
C592 C594 1.389 . S
C593 H572 0.950 . S
C593 C592 1.373 . S
C593 C609 1.377 1_455 S
C594 C592 1.389 . S
C594 C595 1.524 . S
C594 C608 1.377 1_455 S
C595 C594 1.524 . S
C595 C596 1.397 . S
C595 C600 1.363 . S
C596 H573 0.950 . S
C596 C595 1.397 . S
C596 C597 1.334 . S
C597 H574 0.950 . S
C597 C596 1.334 . S
C597 C598 1.287 . S
C598 C597 1.287 . S
C598 C599 1.524 . S
C598 H617 0.913 . S
C599 H575 0.950 . S
C599 C598 1.524 . S
C599 C600 1.415 . S
C600 H576 0.950 1_455 S
C600 C595 1.363 . S
C600 C599 1.415 . S
C601 H577 0.951 . S
C601 C602 1.366 . S
C601 C603 1.388 . S
C602 C601 1.366 . S
C602 C606 1.385 . S
C603 H578 0.951 . S
C603 C601 1.388 . S
C603 C604 1.366 . S
C604 C603 1.366 . S
C604 C605 1.414 . S
C604 C607 1.499 . S
C605 H579 0.950 . S
C605 C604 1.414 . S
C605 C606 1.374 . S
C606 H580 0.950 . S
C606 C602 1.385 . S
C606 C605 1.374 . S
C607 C604 1.499 . S
C607 C608 1.373 . S
C607 C609 1.389 . S
C608 H581 0.950 . S
C608 C594 1.377 1_655 S
C608 C607 1.373 . S
C609 C593 1.377 1_655 S
C609 C607 1.389 . S
C609 C610 1.524 . S
C610 C609 1.524 . S
C610 C611 1.397 . S
C610 C615 1.363 . S
C611 H582 0.950 . S
C611 C610 1.397 . S
C611 C612 1.334 . S
C612 H583 0.950 . S
C612 C611 1.334 . S
C612 C613 1.287 . S
C613 C612 1.287 . S
C613 C614 1.524 . S
C613 H616 0.999 . S
C614 H584 0.950 . S
C614 C613 1.524 . S
C614 C615 1.415 . S
C615 H585 0.950 1_655 S
C615 C610 1.363 . S
C615 C614 1.415 . S
H616 C613 0.999 . S
H617 C598 0.913 . S
H618 C636 0.951 . S
H619 C638 0.951 . S
H620 C640 0.950 . S
H621 C641 0.950 . S
H622 C643 0.950 . S
H623 C646 0.950 . S
H624 C647 0.950 . S
H625 C649 0.950 . S
H626 C650 0.950 . S
H627 C651 0.951 . S
H628 C653 0.951 . S
H629 C655 0.950 . S
H630 C656 0.950 . S
H631 C658 0.950 . S
H632 C661 0.950 . S
H633 C662 0.950 . S
H634 C664 0.950 . S
H635 C665 0.950 . S
C636 H618 0.951 . S
C636 C637 1.366 . S
C636 C638 1.388 . S
C637 C636 1.366 . S
C637 C641 1.385 . S
C638 H619 0.951 . S
C638 C636 1.388 . S
C638 C639 1.366 . S
C639 C638 1.366 . S
C639 C640 1.414 . S
C639 C642 1.499 . S
C640 H620 0.950 . S
C640 C639 1.414 . S
C640 C641 1.374 . S
C641 H621 0.950 . S
C641 C637 1.385 . S
C641 C640 1.374 . S
C642 C639 1.499 . S
C642 C643 1.373 . S
C642 C644 1.389 . S
C643 H622 0.950 . S
C643 C642 1.373 . S
C643 C659 1.377 . S
C644 C642 1.389 . S
C644 C645 1.524 . S
C644 C658 1.377 . S
C645 C644 1.524 . S
C645 C646 1.397 . S
C645 C650 1.363 . S
C646 H623 0.950 . S
C646 C645 1.397 . S
C646 C647 1.334 . S
C647 H624 0.950 . S
C647 C646 1.334 . S
C647 C648 1.287 . S
C648 C647 1.287 . S
C648 C649 1.524 . S
C648 H667 0.913 . S
C649 H625 0.950 . S
C649 C648 1.524 . S
C649 C650 1.415 . S
C650 H626 0.950 . S
C650 C645 1.363 . S
C650 C649 1.415 . S
C651 H627 0.951 . S
C651 C652 1.366 . S
C651 C653 1.388 . S
C652 C651 1.366 . S
C652 C656 1.385 . S
C653 H628 0.951 . S
C653 C651 1.388 . S
C653 C654 1.366 . S
C654 C653 1.366 . S
C654 C655 1.414 . S
C654 C657 1.499 . S
C655 H629 0.950 . S
C655 C654 1.414 . S
C655 C656 1.374 . S
C656 H630 0.950 . S
C656 C652 1.385 . S
C656 C655 1.374 . S
C657 C654 1.499 . S
C657 C658 1.373 . S
C657 C659 1.389 . S
C658 H631 0.950 . S
C658 C644 1.377 . S
C658 C657 1.373 . S
C659 C643 1.377 . S
C659 C657 1.389 . S
C659 C660 1.524 . S
C660 C659 1.524 . S
C660 C661 1.397 . S
C660 C665 1.363 . S
C661 H632 0.950 . S
C661 C660 1.397 . S
C661 C662 1.334 . S
C662 H633 0.950 . S
C662 C661 1.334 . S
C662 C663 1.287 . S
C663 C662 1.287 . S
C663 C664 1.524 . S
C663 H666 0.999 . S
C664 H634 0.950 . S
C664 C663 1.524 . S
C664 C665 1.415 . S
C665 H635 0.950 . S
C665 C660 1.363 . S
C665 C664 1.415 . S
H666 C663 0.999 . S
H667 C648 0.913 . S
H668 C686 0.951 . S
H669 C688 0.951 1_565 S
H670 C690 0.950 . S
H671 C691 0.950 . S
H672 C693 0.950 . S
H673 C696 0.950 1_545 S
H674 C697 0.950 . S
H675 C699 0.950 . S
H676 C700 0.950 . S
H677 C701 0.951 . S
H678 C703 0.951 1_545 S
H679 C705 0.950 . S
H680 C706 0.950 . S
H681 C708 0.950 . S
H682 C711 0.950 1_565 S
H683 C712 0.950 . S
H684 C714 0.950 . S
H685 C715 0.950 . S
C686 H668 0.951 . S
C686 C687 1.366 . S
C686 C688 1.388 . S
C687 C686 1.366 . S
C687 C691 1.385 . S
C688 H669 0.951 1_545 S
C688 C686 1.388 . S
C688 C689 1.366 . S
C689 C688 1.366 . S
C689 C690 1.414 . S
C689 C692 1.499 . S
C690 H670 0.950 . S
C690 C689 1.414 . S
C690 C691 1.374 . S
C691 H671 0.950 . S
C691 C687 1.385 . S
C691 C690 1.374 . S
C692 C689 1.499 . S
C692 C693 1.373 . S
C692 C694 1.389 1_545 S
C693 H672 0.950 . S
C693 C692 1.373 . S
C693 C709 1.377 . S
C694 C692 1.389 1_565 S
C694 C695 1.524 . S
C694 C708 1.377 . S
C695 C694 1.524 . S
C695 C696 1.397 . S
C695 C700 1.363 . S
C696 H673 0.950 1_565 S
C696 C695 1.397 . S
C696 C697 1.334 . S
C697 H674 0.950 . S
C697 C696 1.334 . S
C697 C698 1.287 . S
C698 C697 1.287 . S
C698 C699 1.524 . S
C698 H717 0.913 . S
C699 H675 0.950 . S
C699 C698 1.524 . S
C699 C700 1.415 . S
C700 H676 0.950 . S
C700 C695 1.363 . S
C700 C699 1.415 . S
C701 H677 0.951 . S
C701 C702 1.366 . S
C701 C703 1.388 . S
C702 C701 1.366 . S
C702 C706 1.385 . S
C703 H678 0.951 1_565 S
C703 C701 1.388 . S
C703 C704 1.366 . S
C704 C703 1.366 . S
C704 C705 1.414 . S
C704 C707 1.499 . S
C705 H679 0.950 . S
C705 C704 1.414 . S
C705 C706 1.374 . S
C706 H680 0.950 . S
C706 C702 1.385 . S
C706 C705 1.374 . S
C707 C704 1.499 . S
C707 C708 1.373 . S
C707 C709 1.389 1_565 S
C708 H681 0.950 . S
C708 C694 1.377 . S
C708 C707 1.373 . S
C709 C693 1.377 . S
C709 C707 1.389 1_545 S
C709 C710 1.524 . S
C710 C709 1.524 . S
C710 C711 1.397 . S
C710 C715 1.363 . S
C711 H682 0.950 1_545 S
C711 C710 1.397 . S
C711 C712 1.334 . S
C712 H683 0.950 . S
C712 C711 1.334 . S
C712 C713 1.287 . S
C713 C712 1.287 . S
C713 C714 1.524 . S
C713 H716 0.999 . S
C714 H684 0.950 . S
C714 C713 1.524 . S
C714 C715 1.415 . S
C715 H685 0.950 . S
C715 C710 1.363 . S
C715 C714 1.415 . S
H716 C713 0.999 . S
H717 C698 0.913 . S
H718 C736 0.951 1_655 S
H719 C738 0.954 . S
H720 C740 0.950 . S
H721 C741 0.950 . S
H722 C743 0.950 . S
H723 C746 0.950 . S
H724 C747 0.950 . S
H725 C749 0.950 . S
H726 C750 0.950 . S
H727 C751 0.951 1_455 S
H728 C753 0.954 . S
H729 C755 0.950 . S
H730 C756 0.950 . S
H731 C758 0.950 . S
H732 C761 0.950 . S
H733 C762 0.950 . S
H734 C764 0.950 . S
H735 C765 0.950 . S
C736 H718 0.951 1_455 S
C736 C737 1.366 . S
C736 C738 1.387 1_455 S
C737 C736 1.366 . S
C737 C741 1.385 . S
C738 H719 0.954 . S
C738 C736 1.387 1_655 S
C738 C739 1.364 1_655 S
C739 C738 1.364 1_455 S
C739 C740 1.414 . S
C739 C742 1.499 . S
C740 H720 0.950 . S
C740 C739 1.414 . S
C740 C741 1.374 . S
C741 H721 0.950 . S
C741 C737 1.385 . S
C741 C740 1.374 . S
C742 C739 1.499 . S
C742 C743 1.373 . S
C742 C744 1.389 1_455 S
C743 H722 0.950 . S
C743 C742 1.373 . S
C743 C759 1.377 1_545 S
C744 C742 1.389 1_655 S
C744 C745 1.524 . S
C744 C758 1.377 1_545 S
C745 C744 1.524 . S
C745 C746 1.397 . S
C745 C750 1.363 . S
C746 H723 0.950 . S
C746 C745 1.397 . S
C746 C747 1.334 . S
C747 H724 0.950 . S
C747 C746 1.334 . S
C747 C748 1.287 . S
C748 C747 1.287 . S
C748 C749 1.524 . S
C748 H767 0.913 . S
C749 H725 0.950 . S
C749 C748 1.524 . S
C749 C750 1.415 . S
C750 H726 0.950 . S
C750 C745 1.363 . S
C750 C749 1.415 . S
C751 H727 0.951 1_655 S
C751 C752 1.366 . S
C751 C753 1.387 1_655 S
C752 C751 1.366 . S
C752 C756 1.385 . S
C753 H728 0.954 . S
C753 C751 1.387 1_455 S
C753 C754 1.363 1_455 S
C754 C753 1.363 1_655 S
C754 C755 1.414 . S
C754 C757 1.499 . S
C755 H729 0.950 . S
C755 C754 1.414 . S
C755 C756 1.374 . S
C756 H730 0.950 . S
C756 C752 1.385 . S
C756 C755 1.374 . S
C757 C754 1.499 . S
C757 C758 1.373 . S
C757 C759 1.389 1_655 S
C758 H731 0.950 . S
C758 C744 1.377 1_565 S
C758 C757 1.373 . S
C759 C743 1.377 1_565 S
C759 C757 1.389 1_455 S
C759 C760 1.524 . S
C760 C759 1.524 . S
C760 C761 1.397 . S
C760 C765 1.363 . S
C761 H732 0.950 . S
C761 C760 1.397 . S
C761 C762 1.334 . S
C762 H733 0.950 . S
C762 C761 1.334 . S
C762 C763 1.287 . S
C763 C762 1.287 . S
C763 C764 1.524 . S
C763 H766 0.999 . S
C764 H734 0.950 . S
C764 C763 1.524 . S
C764 C765 1.415 . S
C765 H735 0.950 . S
C765 C760 1.363 . S
C765 C764 1.415 . S
H766 C763 0.999 . S
H767 C748 0.913 . S
H768 C786 0.951 . S
H769 C788 0.951 . S
H770 C790 0.950 . S
H771 C791 0.950 . S
H772 C793 0.950 . S
H773 C796 0.950 . S
H774 C797 0.950 . S
H775 C799 0.950 . S
H776 C800 0.950 . S
H777 C801 0.951 . S
H778 C803 0.951 . S
H779 C805 0.950 . S
H780 C806 0.950 . S
H781 C808 0.950 . S
H782 C811 0.950 . S
H783 C812 0.950 . S
H784 C814 0.950 . S
H785 C815 0.950 . S
C786 H768 0.951 . S
C786 C787 1.366 . S
C786 C788 1.388 . S
C787 C786 1.366 . S
C787 C791 1.385 . S
C788 H769 0.951 . S
C788 C786 1.388 . S
C788 C789 1.366 . S
C789 C788 1.366 . S
C789 C790 1.414 . S
C789 C792 1.499 . S
C790 H770 0.950 . S
C790 C789 1.414 . S
C790 C791 1.374 . S
C791 H771 0.950 . S
C791 C787 1.385 . S
C791 C790 1.374 . S
C792 C789 1.499 . S
C792 C793 1.373 . S
C792 C794 1.389 1_565 S
C793 H772 0.950 . S
C793 C792 1.373 . S
C793 C809 1.377 . S
C794 C792 1.389 1_545 S
C794 C795 1.524 . S
C794 C808 1.377 . S
C795 C794 1.524 . S
C795 C796 1.397 . S
C795 C800 1.363 . S
C796 H773 0.950 . S
C796 C795 1.397 . S
C796 C797 1.334 . S
C797 H774 0.950 . S
C797 C796 1.334 . S
C797 C798 1.287 . S
C798 C797 1.287 . S
C798 C799 1.524 . S
C798 H817 0.913 . S
C799 H775 0.950 . S
C799 C798 1.524 . S
C799 C800 1.415 . S
C800 H776 0.950 . S
C800 C795 1.363 . S
C800 C799 1.415 . S
C801 H777 0.951 . S
C801 C802 1.366 . S
C801 C803 1.388 . S
C802 C801 1.366 . S
C802 C806 1.385 . S
C803 H778 0.951 . S
C803 C801 1.388 . S
C803 C804 1.366 . S
C804 C803 1.366 . S
C804 C805 1.414 . S
C804 C807 1.499 . S
C805 H779 0.950 . S
C805 C804 1.414 . S
C805 C806 1.374 . S
C806 H780 0.950 . S
C806 C802 1.385 . S
C806 C805 1.374 . S
C807 C804 1.499 . S
C807 C808 1.373 . S
C807 C809 1.389 1_545 S
C808 H781 0.950 . S
C808 C794 1.377 . S
C808 C807 1.373 . S
C809 C793 1.377 . S
C809 C807 1.389 1_565 S
C809 C810 1.524 . S
C810 C809 1.524 . S
C810 C811 1.397 . S
C810 C815 1.363 . S
C811 H782 0.950 . S
C811 C810 1.397 . S
C811 C812 1.334 . S
C812 H783 0.950 . S
C812 C811 1.334 . S
C812 C813 1.287 . S
C813 C812 1.287 . S
C813 C814 1.524 . S
C813 H816 0.999 . S
C814 H784 0.950 . S
C814 C813 1.524 . S
C814 C815 1.415 . S
C815 H785 0.950 . S
C815 C810 1.363 . S
C815 C814 1.415 . S
H816 C813 0.999 . S
H817 C798 0.913 . S
H818 C836 0.951 1_455 S
H819 C838 0.949 1_455 S
H820 C840 0.950 . S
H821 C841 0.950 . S
H822 C843 0.950 . S
H823 C846 0.950 . S
H824 C847 0.950 . S
H825 C849 0.950 . S
H826 C850 0.950 . S
H827 C851 0.951 1_655 S
H828 C853 0.949 1_655 S
H829 C855 0.950 . S
H830 C856 0.950 . S
H831 C858 0.950 . S
H832 C861 0.950 . S
H833 C862 0.950 . S
H834 C864 0.950 . S
H835 C865 0.950 . S
C836 H818 0.951 1_655 S
C836 C837 1.366 . S
C836 C838 1.388 . S
C837 C836 1.366 . S
C837 C841 1.385 . S
C838 H819 0.949 1_655 S
C838 C836 1.388 . S
C838 C839 1.367 . S
C839 C838 1.367 . S
C839 C840 1.414 . S
C839 C842 1.499 . S
C840 H820 0.950 . S
C840 C839 1.414 . S
C840 C841 1.374 . S
C841 H821 0.950 . S
C841 C837 1.385 . S
C841 C840 1.374 . S
C842 C839 1.499 . S
C842 C843 1.373 . S
C842 C844 1.389 1_655 S
C843 H822 0.950 . S
C843 C842 1.373 . S
C843 C859 1.377 1_565 S
C844 C842 1.389 1_455 S
C844 C845 1.524 . S
C844 C858 1.377 1_565 S
C845 C844 1.524 . S
C845 C846 1.397 1_455 S
C845 C850 1.363 . S
C846 H823 0.950 . S
C846 C845 1.397 1_655 S
C846 C847 1.334 . S
C847 H824 0.950 . S
C847 C846 1.334 . S
C847 C848 1.287 1_655 S
C848 C847 1.287 1_455 S
C848 C849 1.524 . S
C848 H867 0.913 . S
C849 H825 0.950 . S
C849 C848 1.524 . S
C849 C850 1.415 . S
C850 H826 0.950 . S
C850 C845 1.363 . S
C850 C849 1.415 . S
C851 H827 0.951 1_455 S
C851 C852 1.366 . S
C851 C853 1.388 . S
C852 C851 1.366 . S
C852 C856 1.385 . S
C853 H828 0.949 1_455 S
C853 C851 1.388 . S
C853 C854 1.367 . S
C854 C853 1.367 . S
C854 C855 1.414 . S
C854 C857 1.499 . S
C855 H829 0.950 . S
C855 C854 1.414 . S
C855 C856 1.374 . S
C856 H830 0.950 . S
C856 C852 1.385 . S
C856 C855 1.374 . S
C857 C854 1.499 . S
C857 C858 1.373 . S
C857 C859 1.389 1_455 S
C858 H831 0.950 . S
C858 C844 1.377 1_545 S
C858 C857 1.373 . S
C859 C843 1.377 1_545 S
C859 C857 1.389 1_655 S
C859 C860 1.524 . S
C860 C859 1.524 . S
C860 C861 1.397 1_655 S
C860 C865 1.363 . S
C861 H832 0.950 . S
C861 C860 1.397 1_455 S
C861 C862 1.334 . S
C862 H833 0.950 . S
C862 C861 1.334 . S
C862 C863 1.287 1_455 S
C863 C862 1.287 1_655 S
C863 C864 1.524 . S
C863 H866 0.999 . S
C864 H834 0.950 . S
C864 C863 1.524 . S
C864 C865 1.415 . S
C865 H835 0.950 . S
C865 C860 1.363 . S
C865 C864 1.415 . S
H866 C863 0.999 . S
H867 C848 0.913 . S
H868 C886 0.951 . S
H869 C888 0.951 . S
H870 C890 0.950 . S
H871 C891 0.950 . S
H872 C893 0.950 . S
H873 C896 0.950 . S
H874 C897 0.950 . S
H875 C899 0.950 . S
H876 C900 0.950 . S
H877 C901 0.951 . S
H878 C903 0.951 . S
H879 C905 0.950 . S
H880 C906 0.950 . S
H881 C908 0.950 . S
H882 C911 0.950 . S
H883 C912 0.950 . S
H884 C914 0.950 . S
H885 C915 0.950 . S
C886 H868 0.951 . S
C886 C887 1.366 . S
C886 C888 1.388 . S
C887 C886 1.366 . S
C887 C891 1.385 . S
C888 H869 0.951 . S
C888 C886 1.388 . S
C888 C889 1.366 . S
C889 C888 1.366 . S
C889 C890 1.414 . S
C889 C892 1.499 . S
C890 H870 0.950 . S
C890 C889 1.414 . S
C890 C891 1.374 . S
C891 H871 0.950 . S
C891 C887 1.385 . S
C891 C890 1.374 . S
C892 C889 1.499 . S
C892 C893 1.373 . S
C892 C894 1.389 . S
C893 H872 0.950 . S
C893 C892 1.373 . S
C893 C909 1.377 1_455 S
C894 C892 1.389 . S
C894 C895 1.524 . S
C894 C908 1.377 1_455 S
C895 C894 1.524 . S
C895 C896 1.397 . S
C895 C900 1.363 . S
C896 H873 0.950 . S
C896 C895 1.397 . S
C896 C897 1.334 . S
C897 H874 0.950 . S
C897 C896 1.334 . S
C897 C898 1.287 . S
C898 C897 1.287 . S
C898 C899 1.524 . S
C898 H917 0.913 . S
C899 H875 0.950 . S
C899 C898 1.524 . S
C899 C900 1.415 . S
C900 H876 0.950 . S
C900 C895 1.363 . S
C900 C899 1.415 . S
C901 H877 0.951 . S
C901 C902 1.366 . S
C901 C903 1.388 . S
C902 C901 1.366 . S
C902 C906 1.385 . S
C903 H878 0.951 . S
C903 C901 1.388 . S
C903 C904 1.366 . S
C904 C903 1.366 . S
C904 C905 1.414 . S
C904 C907 1.499 . S
C905 H879 0.950 . S
C905 C904 1.414 . S
C905 C906 1.374 . S
C906 H880 0.950 . S
C906 C902 1.385 . S
C906 C905 1.374 . S
C907 C904 1.499 . S
C907 C908 1.373 . S
C907 C909 1.389 . S
C908 H881 0.950 . S
C908 C894 1.377 1_655 S
C908 C907 1.373 . S
C909 C893 1.377 1_655 S
C909 C907 1.389 . S
C909 C910 1.524 . S
C910 C909 1.524 . S
C910 C911 1.397 . S
C910 C915 1.363 . S
C911 H882 0.950 . S
C911 C910 1.397 . S
C911 C912 1.334 . S
C912 H883 0.950 . S
C912 C911 1.334 . S
C912 C913 1.287 . S
C913 C912 1.287 . S
C913 C914 1.524 . S
C913 H916 0.999 . S
C914 H884 0.950 . S
C914 C913 1.524 . S
C914 C915 1.415 . S
C915 H885 0.950 . S
C915 C910 1.363 . S
C915 C914 1.415 . S
H916 C913 0.999 . S
H917 C898 0.913 . S
H918 C936 0.951 . S
H919 C938 0.951 . S
H920 C940 0.950 . S
H921 C941 0.950 . S
H922 C943 0.950 . S
H923 C946 0.950 . S
H924 C947 0.950 . S
H925 C949 0.950 . S
H926 C950 0.950 . S
H927 C951 0.951 . S
H928 C953 0.951 . S
H929 C955 0.950 . S
H930 C956 0.950 . S
H931 C958 0.950 . S
H932 C961 0.950 . S
H933 C962 0.950 . S
H934 C964 0.950 . S
H935 C965 0.950 . S
C936 H918 0.951 . S
C936 C937 1.366 . S
C936 C938 1.388 . S
C937 C936 1.366 . S
C937 C941 1.385 . S
C938 H919 0.951 . S
C938 C936 1.388 . S
C938 C939 1.366 . S
C939 C938 1.366 . S
C939 C940 1.414 . S
C939 C942 1.499 . S
C940 H920 0.950 . S
C940 C939 1.414 . S
C940 C941 1.374 . S
C941 H921 0.950 . S
C941 C937 1.385 . S
C941 C940 1.374 . S
C942 C939 1.499 . S
C942 C943 1.373 . S
C942 C944 1.389 . S
C943 H922 0.950 . S
C943 C942 1.373 . S
C943 C959 1.377 . S
C944 C942 1.389 . S
C944 C945 1.524 . S
C944 C958 1.377 . S
C945 C944 1.524 . S
C945 C946 1.397 . S
C945 C950 1.363 . S
C946 H923 0.950 . S
C946 C945 1.397 . S
C946 C947 1.334 . S
C947 H924 0.950 . S
C947 C946 1.334 . S
C947 C948 1.287 . S
C948 C947 1.287 . S
C948 C949 1.524 . S
C948 H967 0.913 . S
C949 H925 0.950 . S
C949 C948 1.524 . S
C949 C950 1.415 . S
C950 H926 0.950 . S
C950 C945 1.363 . S
C950 C949 1.415 . S
C951 H927 0.951 . S
C951 C952 1.366 . S
C951 C953 1.388 . S
C952 C951 1.366 . S
C952 C956 1.385 . S
C953 H928 0.951 . S
C953 C951 1.388 . S
C953 C954 1.366 . S
C954 C953 1.366 . S
C954 C955 1.414 . S
C954 C957 1.499 . S
C955 H929 0.950 . S
C955 C954 1.414 . S
C955 C956 1.374 . S
C956 H930 0.950 . S
C956 C952 1.385 . S
C956 C955 1.374 . S
C957 C954 1.499 . S
C957 C958 1.373 . S
C957 C959 1.389 . S
C958 H931 0.950 . S
C958 C944 1.377 . S
C958 C957 1.373 . S
C959 C943 1.377 . S
C959 C957 1.389 . S
C959 C960 1.524 . S
C960 C959 1.524 . S
C960 C961 1.397 . S
C960 C965 1.363 . S
C961 H932 0.950 . S
C961 C960 1.397 . S
C961 C962 1.334 . S
C962 H933 0.950 . S
C962 C961 1.334 . S
C962 C963 1.287 . S
C963 C962 1.287 . S
C963 C964 1.524 . S
C963 H966 0.999 . S
C964 H934 0.950 . S
C964 C963 1.524 . S
C964 C965 1.415 . S
C965 H935 0.950 . S
C965 C960 1.363 . S
C965 C964 1.415 . S
H966 C963 0.999 . S
H967 C948 0.913 . S
H968 C986 0.951 . S
H969 C988 0.951 . S
H970 C990 0.950 . S
H971 C991 0.950 . S
H972 C993 0.950 . S
H973 C996 0.950 . S
H974 C997 0.950 . S
H975 C999 0.950 . S
H976 C1000 0.950 . S
H977 C1001 0.951 . S
H978 C1003 0.951 . S
H979 C1005 0.950 . S
H980 C1006 0.950 . S
H981 C1008 0.950 . S
H982 C1011 0.950 . S
H983 C1012 0.950 . S
H984 C1014 0.950 . S
H985 C1015 0.950 . S
C986 H968 0.951 . S
C986 C987 1.366 . S
C986 C988 1.388 . S
C987 C986 1.366 . S
C987 C991 1.385 . S
C988 H969 0.951 . S
C988 C986 1.388 . S
C988 C989 1.366 . S
C989 C988 1.366 . S
C989 C990 1.414 . S
C989 C992 1.499 . S
C990 H970 0.950 . S
C990 C989 1.414 . S
C990 C991 1.374 . S
C991 H971 0.950 . S
C991 C987 1.385 . S
C991 C990 1.374 . S
C992 C989 1.499 . S
C992 C993 1.373 . S
C992 C994 1.389 . S
C993 H972 0.950 . S
C993 C992 1.373 . S
C993 C1009 1.377 . S
C994 C992 1.389 . S
C994 C995 1.524 . S
C994 C1008 1.377 . S
C995 C994 1.524 . S
C995 C996 1.397 . S
C995 C1000 1.363 . S
C996 H973 0.950 . S
C996 C995 1.397 . S
C996 C997 1.334 . S
C997 H974 0.950 . S
C997 C996 1.334 . S
C997 C998 1.287 . S
C998 C997 1.287 . S
C998 C999 1.524 . S
C998 H1017 0.913 . S
C999 H975 0.950 . S
C999 C998 1.524 . S
C999 C1000 1.415 . S
C1000 H976 0.950 . S
C1000 C995 1.363 . S
C1000 C999 1.415 . S
C1001 H977 0.951 . S
C1001 C1002 1.366 . S
C1001 C1003 1.388 . S
C1002 C1001 1.366 . S
C1002 C1006 1.385 . S
C1003 H978 0.951 . S
C1003 C1001 1.388 . S
C1003 C1004 1.366 . S
C1004 C1003 1.366 . S
C1004 C1005 1.414 . S
C1004 C1007 1.499 . S
C1005 H979 0.950 . S
C1005 C1004 1.414 . S
C1005 C1006 1.374 . S
C1006 H980 0.950 . S
C1006 C1002 1.385 . S
C1006 C1005 1.374 . S
C1007 C1004 1.499 . S
C1007 C1008 1.373 . S
C1007 C1009 1.389 . S
C1008 H981 0.950 . S
C1008 C994 1.377 . S
C1008 C1007 1.373 . S
C1009 C993 1.377 . S
C1009 C1007 1.389 . S
C1009 C1010 1.524 . S
C1010 C1009 1.524 . S
C1010 C1011 1.397 . S
C1010 C1015 1.363 . S
C1011 H982 0.950 . S
C1011 C1010 1.397 . S
C1011 C1012 1.334 . S
C1012 H983 0.950 . S
C1012 C1011 1.334 . S
C1012 C1013 1.287 . S
C1013 C1012 1.287 . S
C1013 C1014 1.524 . S
C1013 H1016 0.999 . S
C1014 H984 0.950 . S
C1014 C1013 1.524 . S
C1014 C1015 1.415 . S
C1015 H985 0.950 . S
C1015 C1010 1.363 . S
C1015 C1014 1.415 . S
H1016 C1013 0.999 . S
H1017 C998 0.913 . S
H1018 C1036 0.951 . S
H1019 C1038 0.951 . S
H1020 C1040 0.950 . S
H1021 C1041 0.950 . S
H1022 C1043 0.950 . S
H1023 C1046 0.950 . S
H1024 C1047 0.950 . S
H1025 C1049 0.950 . S
H1026 C1050 0.950 . S
H1027 C1051 0.951 . S
H1028 C1053 0.951 . S
H1029 C1055 0.950 . S
H1030 C1056 0.950 . S
H1031 C1058 0.950 . S
H1032 C1061 0.950 . S
H1033 C1062 0.950 . S
H1034 C1064 0.950 . S
H1035 C1065 0.950 . S
C1036 H1018 0.951 . S
C1036 C1037 1.366 . S
C1036 C1038 1.388 . S
C1037 C1036 1.366 . S
C1037 C1041 1.385 . S
C1038 H1019 0.951 . S
C1038 C1036 1.388 . S
C1038 C1039 1.366 . S
C1039 C1038 1.366 . S
C1039 C1040 1.414 . S
C1039 C1042 1.499 . S
C1040 H1020 0.950 . S
C1040 C1039 1.414 . S
C1040 C1041 1.374 . S
C1041 H1021 0.950 . S
C1041 C1037 1.385 . S
C1041 C1040 1.374 . S
C1042 C1039 1.499 . S
C1042 C1043 1.373 . S
C1042 C1044 1.389 . S
C1043 H1022 0.950 . S
C1043 C1042 1.373 . S
C1043 C1059 1.377 1_565 S
C1044 C1042 1.389 . S
C1044 C1045 1.524 . S
C1044 C1058 1.377 1_565 S
C1045 C1044 1.524 . S
C1045 C1046 1.397 . S
C1045 C1050 1.363 . S
C1046 H1023 0.950 . S
C1046 C1045 1.397 . S
C1046 C1047 1.334 . S
C1047 H1024 0.950 . S
C1047 C1046 1.334 . S
C1047 C1048 1.287 . S
C1048 C1047 1.287 . S
C1048 C1049 1.524 . S
C1048 H1067 0.913 . S
C1049 H1025 0.950 . S
C1049 C1048 1.524 . S
C1049 C1050 1.415 . S
C1050 H1026 0.950 . S
C1050 C1045 1.363 . S
C1050 C1049 1.415 . S
C1051 H1027 0.951 . S
C1051 C1052 1.366 . S
C1051 C1053 1.388 . S
C1052 C1051 1.366 . S
C1052 C1056 1.385 . S
C1053 H1028 0.951 . S
C1053 C1051 1.388 . S
C1053 C1054 1.366 . S
C1054 C1053 1.366 . S
C1054 C1055 1.414 . S
C1054 C1057 1.499 . S
C1055 H1029 0.950 . S
C1055 C1054 1.414 . S
C1055 C1056 1.374 . S
C1056 H1030 0.950 . S
C1056 C1052 1.385 . S
C1056 C1055 1.374 . S
C1057 C1054 1.499 . S
C1057 C1058 1.373 . S
C1057 C1059 1.389 . S
C1058 H1031 0.950 . S
C1058 C1044 1.377 1_545 S
C1058 C1057 1.373 . S
C1059 C1043 1.377 1_545 S
C1059 C1057 1.389 . S
C1059 C1060 1.524 . S
C1060 C1059 1.524 . S
C1060 C1061 1.397 . S
C1060 C1065 1.363 . S
C1061 H1032 0.950 . S
C1061 C1060 1.397 . S
C1061 C1062 1.334 . S
C1062 H1033 0.950 . S
C1062 C1061 1.334 . S
C1062 C1063 1.287 . S
C1063 C1062 1.287 . S
C1063 C1064 1.524 . S
C1063 H1066 0.999 . S
C1064 H1034 0.950 . S
C1064 C1063 1.524 . S
C1064 C1065 1.415 . S
C1065 H1035 0.950 . S
C1065 C1060 1.363 . S
C1065 C1064 1.415 . S
H1066 C1063 0.999 . S
H1067 C1048 0.913 . S
H1068 C1086 0.951 . S
H1069 C1088 0.951 . S
H1070 C1090 0.950 1_545 S
H1071 C1091 0.950 . S
H1072 C1093 0.950 . S
H1073 C1096 0.950 . S
H1074 C1097 0.950 . S
H1075 C1099 0.950 1_455 S
H1076 C1100 0.950 1_455 S
H1077 C1101 0.951 . S
H1078 C1103 0.951 . S
H1079 C1105 0.950 1_565 S
H1080 C1106 0.950 . S
H1081 C1108 0.950 . S
H1082 C1111 0.950 . S
H1083 C1112 0.950 . S
H1084 C1114 0.950 1_655 S
H1085 C1115 0.950 1_655 S
C1086 H1068 0.951 . S
C1086 C1087 1.366 . S
C1086 C1088 1.388 . S
C1087 C1086 1.366 . S
C1087 C1091 1.385 . S
C1088 H1069 0.951 . S
C1088 C1086 1.388 . S
C1088 C1089 1.366 . S
C1089 C1088 1.366 . S
C1089 C1090 1.414 . S
C1089 C1092 1.499 . S
C1090 H1070 0.950 1_565 S
C1090 C1089 1.414 . S
C1090 C1091 1.374 . S
C1091 H1071 0.950 . S
C1091 C1087 1.385 . S
C1091 C1090 1.374 . S
C1092 C1089 1.499 . S
C1092 C1093 1.373 1_565 S
C1092 C1094 1.389 . S
C1093 H1072 0.950 . S
C1093 C1092 1.373 1_545 S
C1093 C1109 1.377 1_655 S
C1094 C1092 1.389 . S
C1094 C1095 1.524 . S
C1094 C1108 1.377 1_655 S
C1095 C1094 1.524 . S
C1095 C1096 1.397 . S
C1095 C1100 1.363 . S
C1096 H1073 0.950 . S
C1096 C1095 1.397 . S
C1096 C1097 1.334 . S
C1097 H1074 0.950 . S
C1097 C1096 1.334 . S
C1097 C1098 1.287 . S
C1098 C1097 1.287 . S
C1098 C1099 1.524 . S
C1098 H1117 0.913 . S
C1099 H1075 0.950 1_655 S
C1099 C1098 1.524 . S
C1099 C1100 1.415 . S
C1100 H1076 0.950 1_655 S
C1100 C1095 1.363 . S
C1100 C1099 1.415 . S
C1101 H1077 0.951 . S
C1101 C1102 1.366 . S
C1101 C1103 1.388 . S
C1102 C1101 1.366 . S
C1102 C1106 1.385 . S
C1103 H1078 0.951 . S
C1103 C1101 1.388 . S
C1103 C1104 1.366 . S
C1104 C1103 1.366 . S
C1104 C1105 1.414 . S
C1104 C1107 1.499 . S
C1105 H1079 0.950 1_545 S
C1105 C1104 1.414 . S
C1105 C1106 1.374 . S
C1106 H1080 0.950 . S
C1106 C1102 1.385 . S
C1106 C1105 1.374 . S
C1107 C1104 1.499 . S
C1107 C1108 1.373 1_545 S
C1107 C1109 1.389 . S
C1108 H1081 0.950 . S
C1108 C1094 1.377 1_455 S
C1108 C1107 1.373 1_565 S
C1109 C1093 1.377 1_455 S
C1109 C1107 1.389 . S
C1109 C1110 1.524 . S
C1110 C1109 1.524 . S
C1110 C1111 1.397 . S
C1110 C1115 1.363 . S
C1111 H1082 0.950 . S
C1111 C1110 1.397 . S
C1111 C1112 1.334 . S
C1112 H1083 0.950 . S
C1112 C1111 1.334 . S
C1112 C1113 1.287 . S
C1113 C1112 1.287 . S
C1113 C1114 1.524 . S
C1113 H1116 0.999 . S
C1114 H1084 0.950 1_455 S
C1114 C1113 1.524 . S
C1114 C1115 1.415 . S
C1115 H1085 0.950 1_455 S
C1115 C1110 1.363 . S
C1115 C1114 1.415 . S
H1116 C1113 0.999 . S
H1117 C1098 0.913 . S
H1118 C1136 0.951 . S
H1119 C1138 0.951 . S
H1120 C1140 0.950 . S
H1121 C1141 0.950 . S
H1122 C1143 0.950 . S
H1123 C1146 0.950 . S
H1124 C1147 0.950 . S
H1125 C1149 0.950 . S
H1126 C1150 0.950 . S
H1127 C1151 0.951 . S
H1128 C1153 0.951 . S
H1129 C1155 0.950 . S
H1130 C1156 0.950 . S
H1131 C1158 0.950 . S
H1132 C1161 0.950 . S
H1133 C1162 0.950 . S
H1134 C1164 0.950 . S
H1135 C1165 0.950 . S
C1136 H1118 0.951 . S
C1136 C1137 1.366 . S
C1136 C1138 1.388 . S
C1137 C1136 1.366 . S
C1137 C1141 1.385 . S
C1138 H1119 0.951 . S
C1138 C1136 1.388 . S
C1138 C1139 1.366 . S
C1139 C1138 1.366 . S
C1139 C1140 1.414 . S
C1139 C1142 1.499 . S
C1140 H1120 0.950 . S
C1140 C1139 1.414 . S
C1140 C1141 1.374 . S
C1141 H1121 0.950 . S
C1141 C1137 1.385 . S
C1141 C1140 1.374 . S
C1142 C1139 1.499 . S
C1142 C1143 1.373 1_455 S
C1142 C1144 1.389 . S
C1143 H1122 0.950 . S
C1143 C1142 1.373 1_655 S
C1143 C1159 1.377 . S
C1144 C1142 1.389 . S
C1144 C1145 1.524 . S
C1144 C1158 1.377 . S
C1145 C1144 1.524 . S
C1145 C1146 1.397 . S
C1145 C1150 1.363 . S
C1146 H1123 0.950 . S
C1146 C1145 1.397 . S
C1146 C1147 1.334 . S
C1147 H1124 0.950 . S
C1147 C1146 1.334 . S
C1147 C1148 1.287 . S
C1148 C1147 1.287 . S
C1148 C1149 1.524 . S
C1148 H1167 0.913 . S
C1149 H1125 0.950 . S
C1149 C1148 1.524 . S
C1149 C1150 1.415 . S
C1150 H1126 0.950 . S
C1150 C1145 1.363 . S
C1150 C1149 1.415 . S
C1151 H1127 0.951 . S
C1151 C1152 1.366 . S
C1151 C1153 1.388 . S
C1152 C1151 1.366 . S
C1152 C1156 1.385 . S
C1153 H1128 0.951 . S
C1153 C1151 1.388 . S
C1153 C1154 1.366 . S
C1154 C1153 1.366 . S
C1154 C1155 1.414 . S
C1154 C1157 1.499 . S
C1155 H1129 0.950 . S
C1155 C1154 1.414 . S
C1155 C1156 1.374 . S
C1156 H1130 0.950 . S
C1156 C1152 1.385 . S
C1156 C1155 1.374 . S
C1157 C1154 1.499 . S
C1157 C1158 1.373 1_655 S
C1157 C1159 1.389 . S
C1158 H1131 0.950 . S
C1158 C1144 1.377 . S
C1158 C1157 1.373 1_455 S
C1159 C1143 1.377 . S
C1159 C1157 1.389 . S
C1159 C1160 1.524 . S
C1160 C1159 1.524 . S
C1160 C1161 1.397 . S
C1160 C1165 1.363 . S
C1161 H1132 0.950 . S
C1161 C1160 1.397 . S
C1161 C1162 1.334 . S
C1162 H1133 0.950 . S
C1162 C1161 1.334 . S
C1162 C1163 1.287 . S
C1163 C1162 1.287 . S
C1163 C1164 1.524 . S
C1163 H1166 0.999 . S
C1164 H1134 0.950 . S
C1164 C1163 1.524 . S
C1164 C1165 1.415 . S
C1165 H1135 0.950 . S
C1165 C1160 1.363 . S
C1165 C1164 1.415 . S
H1166 C1163 0.999 . S
H1167 C1148 0.913 . S
H1168 C1186 0.951 . S
H1169 C1188 0.951 . S
H1170 C1190 0.950 . S
H1171 C1191 0.950 . S
H1172 C1193 0.950 . S
H1173 C1196 0.950 . S
H1174 C1197 0.950 . S
H1175 C1199 0.950 . S
H1176 C1200 0.950 . S
H1177 C1201 0.951 . S
H1178 C1203 0.951 . S
H1179 C1205 0.950 . S
H1180 C1206 0.950 . S
H1181 C1208 0.950 . S
H1182 C1211 0.950 . S
H1183 C1212 0.950 . S
H1184 C1214 0.950 . S
H1185 C1215 0.950 . S
C1186 H1168 0.951 . S
C1186 C1187 1.366 . S
C1186 C1188 1.388 . S
C1187 C1186 1.366 . S
C1187 C1191 1.385 . S
C1188 H1169 0.951 . S
C1188 C1186 1.388 . S
C1188 C1189 1.366 . S
C1189 C1188 1.366 . S
C1189 C1190 1.414 . S
C1189 C1192 1.499 . S
C1190 H1170 0.950 . S
C1190 C1189 1.414 . S
C1190 C1191 1.374 . S
C1191 H1171 0.950 . S
C1191 C1187 1.385 . S
C1191 C1190 1.374 . S
C1192 C1189 1.499 . S
C1192 C1193 1.373 . S
C1192 C1194 1.389 . S
C1193 H1172 0.950 . S
C1193 C1192 1.373 . S
C1193 C1209 1.377 . S
C1194 C1192 1.389 . S
C1194 C1195 1.524 . S
C1194 C1208 1.377 . S
C1195 C1194 1.524 . S
C1195 C1196 1.397 . S
C1195 C1200 1.363 1_545 S
C1196 H1173 0.950 . S
C1196 C1195 1.397 . S
C1196 C1197 1.334 . S
C1197 H1174 0.950 . S
C1197 C1196 1.334 . S
C1197 C1198 1.320 . S
C1198 C1197 1.320 . S
C1198 C1199 1.501 1_545 S
C1198 H1217 0.900 1_545 S
C1199 H1175 0.950 . S
C1199 C1198 1.501 1_565 S
C1199 C1200 1.415 . S
C1200 H1176 0.950 . S
C1200 C1195 1.363 1_565 S
C1200 C1199 1.415 . S
C1201 H1177 0.951 . S
C1201 C1202 1.366 . S
C1201 C1203 1.388 . S
C1202 C1201 1.366 . S
C1202 C1206 1.385 . S
C1203 H1178 0.951 . S
C1203 C1201 1.388 . S
C1203 C1204 1.366 . S
C1204 C1203 1.366 . S
C1204 C1205 1.414 . S
C1204 C1207 1.499 . S
C1205 H1179 0.950 . S
C1205 C1204 1.414 . S
C1205 C1206 1.374 . S
C1206 H1180 0.950 . S
C1206 C1202 1.385 . S
C1206 C1205 1.374 . S
C1207 C1204 1.499 . S
C1207 C1208 1.373 . S
C1207 C1209 1.389 . S
C1208 H1181 0.950 . S
C1208 C1194 1.377 . S
C1208 C1207 1.373 . S
C1209 C1193 1.377 . S
C1209 C1207 1.389 . S
C1209 C1210 1.524 . S
C1210 C1209 1.524 . S
C1210 C1211 1.397 . S
C1210 C1215 1.363 . S
C1211 H1182 0.950 . S
C1211 C1210 1.397 . S
C1211 C1212 1.334 . S
C1212 H1183 0.950 . S
C1212 C1211 1.334 . S
C1212 C1213 1.287 . S
C1213 C1212 1.287 . S
C1213 C1214 1.524 . S
C1213 H1216 0.999 . S
C1214 H1184 0.950 . S
C1214 C1213 1.524 . S
C1214 C1215 1.415 . S
C1215 H1185 0.950 . S
C1215 C1210 1.363 . S
C1215 C1214 1.415 . S
H1216 C1213 0.999 . S
H1217 C1198 0.900 1_565 S
H1218 C1236 0.951 . S
H1219 C1238 0.951 . S
H1220 C1240 0.950 . S
H1221 C1241 0.950 . S
H1222 C1243 0.950 . S
H1223 C1246 0.950 . S
H1224 C1247 0.950 . S
H1225 C1249 0.950 . S
H1226 C1250 0.950 1_655 S
H1227 C1251 0.951 . S
H1228 C1253 0.951 . S
H1229 C1255 0.950 . S
H1230 C1256 0.950 . S
H1231 C1258 0.950 . S
H1232 C1261 0.950 . S
H1233 C1262 0.950 . S
H1234 C1264 0.950 . S
H1235 C1265 0.950 . S
C1236 H1218 0.951 . S
C1236 C1237 1.366 . S
C1236 C1238 1.388 . S
C1237 C1236 1.366 . S
C1237 C1241 1.385 . S
C1238 H1219 0.951 . S
C1238 C1236 1.388 . S
C1238 C1239 1.366 . S
C1239 C1238 1.366 . S
C1239 C1240 1.414 . S
C1239 C1242 1.499 . S
C1240 H1220 0.950 . S
C1240 C1239 1.414 . S
C1240 C1241 1.374 . S
C1241 H1221 0.950 . S
C1241 C1237 1.385 . S
C1241 C1240 1.374 . S
C1242 C1239 1.499 . S
C1242 C1243 1.373 . S
C1242 C1244 1.389 . S
C1243 H1222 0.950 . S
C1243 C1242 1.373 . S
C1243 C1259 1.377 . S
C1244 C1242 1.389 . S
C1244 C1245 1.524 1_655 S
C1244 C1258 1.377 . S
C1245 C1244 1.524 1_455 S
C1245 C1246 1.397 . S
C1245 C1250 1.363 . S
C1246 H1223 0.950 . S
C1246 C1245 1.397 . S
C1246 C1247 1.334 . S
C1247 H1224 0.950 . S
C1247 C1246 1.334 . S
C1247 C1248 1.287 . S
C1248 C1247 1.287 . S
C1248 C1249 1.524 . S
C1248 H1267 0.913 . S
C1249 H1225 0.950 . S
C1249 C1248 1.524 . S
C1249 C1250 1.415 . S
C1250 H1226 0.950 1_455 S
C1250 C1245 1.363 . S
C1250 C1249 1.415 . S
C1251 H1227 0.951 . S
C1251 C1252 1.366 . S
C1251 C1253 1.388 . S
C1252 C1251 1.366 . S
C1252 C1256 1.385 . S
C1253 H1228 0.951 . S
C1253 C1251 1.388 . S
C1253 C1254 1.366 . S
C1254 C1253 1.366 . S
C1254 C1255 1.414 . S
C1254 C1257 1.499 . S
C1255 H1229 0.950 . S
C1255 C1254 1.414 . S
C1255 C1256 1.374 . S
C1256 H1230 0.950 . S
C1256 C1252 1.385 . S
C1256 C1255 1.374 . S
C1257 C1254 1.499 . S
C1257 C1258 1.373 . S
C1257 C1259 1.389 . S
C1258 H1231 0.950 . S
C1258 C1244 1.377 . S
C1258 C1257 1.373 . S
C1259 C1243 1.377 . S
C1259 C1257 1.389 . S
C1259 C1260 1.524 . S
C1260 C1259 1.524 . S
C1260 C1261 1.397 . S
C1260 C1265 1.363 . S
C1261 H1232 0.950 . S
C1261 C1260 1.397 . S
C1261 C1262 1.334 . S
C1262 H1233 0.950 . S
C1262 C1261 1.334 . S
C1262 C1263 1.287 . S
C1263 C1262 1.287 . S
C1263 C1264 1.524 . S
C1263 H1266 0.999 . S
C1264 H1234 0.950 . S
C1264 C1263 1.524 . S
C1264 C1265 1.415 . S
C1265 H1235 0.950 . S
C1265 C1260 1.363 . S
C1265 C1264 1.415 . S
H1266 C1263 0.999 . S
H1267 C1248 0.913 . S
H1268 C1286 0.951 . S
H1269 C1288 0.951 . S
H1270 C1290 0.950 . S
H1271 C1291 0.950 . S
H1272 C1293 0.950 . S
H1273 C1296 0.950 . S
H1274 C1297 0.950 . S
H1275 C1299 0.950 . S
H1276 C1300 0.950 . S
H1277 C1301 0.951 . S
H1278 C1303 0.951 . S
H1279 C1305 0.950 . S
H1280 C1306 0.950 . S
H1281 C1308 0.950 . S
H1282 C1311 0.950 . S
H1283 C1312 0.950 . S
H1284 C1314 0.950 . S
H1285 C1315 0.950 . S
C1286 H1268 0.951 . S
C1286 C1287 1.366 . S
C1286 C1288 1.388 . S
C1287 C1286 1.366 . S
C1287 C1291 1.385 . S
C1288 H1269 0.951 . S
C1288 C1286 1.388 . S
C1288 C1289 1.366 . S
C1289 C1288 1.366 . S
C1289 C1290 1.414 . S
C1289 C1292 1.499 . S
C1290 H1270 0.950 . S
C1290 C1289 1.414 . S
C1290 C1291 1.374 . S
C1291 H1271 0.950 . S
C1291 C1287 1.385 . S
C1291 C1290 1.374 . S
C1292 C1289 1.499 . S
C1292 C1293 1.373 . S
C1292 C1294 1.389 . S
C1293 H1272 0.950 . S
C1293 C1292 1.373 . S
C1293 C1309 1.377 . S
C1294 C1292 1.389 . S
C1294 C1295 1.524 . S
C1294 C1308 1.377 . S
C1295 C1294 1.524 . S
C1295 C1296 1.397 . S
C1295 C1300 1.363 . S
C1296 H1273 0.950 . S
C1296 C1295 1.397 . S
C1296 C1297 1.334 . S
C1297 H1274 0.950 . S
C1297 C1296 1.334 . S
C1297 C1298 1.287 . S
C1298 C1297 1.287 . S
C1298 C1299 1.524 . S
C1298 H1317 0.913 . S
C1299 H1275 0.950 . S
C1299 C1298 1.524 . S
C1299 C1300 1.415 . S
C1300 H1276 0.950 . S
C1300 C1295 1.363 . S
C1300 C1299 1.415 . S
C1301 H1277 0.951 . S
C1301 C1302 1.366 . S
C1301 C1303 1.388 . S
C1302 C1301 1.366 . S
C1302 C1306 1.385 . S
C1303 H1278 0.951 . S
C1303 C1301 1.388 . S
C1303 C1304 1.366 . S
C1304 C1303 1.366 . S
C1304 C1305 1.414 . S
C1304 C1307 1.499 . S
C1305 H1279 0.950 . S
C1305 C1304 1.414 . S
C1305 C1306 1.374 . S
C1306 H1280 0.950 . S
C1306 C1302 1.385 . S
C1306 C1305 1.374 . S
C1307 C1304 1.499 . S
C1307 C1308 1.373 . S
C1307 C1309 1.389 . S
C1308 H1281 0.950 . S
C1308 C1294 1.377 . S
C1308 C1307 1.373 . S
C1309 C1293 1.377 . S
C1309 C1307 1.389 . S
C1309 C1310 1.524 . S
C1310 C1309 1.524 . S
C1310 C1311 1.397 . S
C1310 C1315 1.363 . S
C1311 H1282 0.950 . S
C1311 C1310 1.397 . S
C1311 C1312 1.334 . S
C1312 H1283 0.950 . S
C1312 C1311 1.334 . S
C1312 C1313 1.287 . S
C1313 C1312 1.287 . S
C1313 C1314 1.524 . S
C1313 H1316 0.999 . S
C1314 H1284 0.950 . S
C1314 C1313 1.524 . S
C1314 C1315 1.415 . S
C1315 H1285 0.950 . S
C1315 C1310 1.363 . S
C1315 C1314 1.415 . S
H1316 C1313 0.999 . S
H1317 C1298 0.913 . S
H1318 C1336 0.951 . S
H1319 C1338 0.951 . S
H1320 C1340 0.950 . S
H1321 C1341 0.950 . S
H1322 C1343 0.950 . S
H1323 C1346 0.950 . S
H1324 C1347 0.950 . S
H1325 C1349 0.950 . S
H1326 C1350 0.950 . S
H1327 C1351 0.951 . S
H1328 C1353 0.951 . S
H1329 C1355 0.950 . S
H1330 C1356 0.950 . S
H1331 C1358 0.950 . S
H1332 C1361 0.950 . S
H1333 C1362 0.950 . S
H1334 C1364 0.950 . S
H1335 C1365 0.950 . S
C1336 H1318 0.951 . S
C1336 C1337 1.366 . S
C1336 C1338 1.388 . S
C1337 C1336 1.366 . S
C1337 C1341 1.385 . S
C1338 H1319 0.951 . S
C1338 C1336 1.388 . S
C1338 C1339 1.366 . S
C1339 C1338 1.366 . S
C1339 C1340 1.414 . S
C1339 C1342 1.499 . S
C1340 H1320 0.950 . S
C1340 C1339 1.414 . S
C1340 C1341 1.374 . S
C1341 H1321 0.950 . S
C1341 C1337 1.385 . S
C1341 C1340 1.374 . S
C1342 C1339 1.499 . S
C1342 C1343 1.373 . S
C1342 C1344 1.389 . S
C1343 H1322 0.950 . S
C1343 C1342 1.373 . S
C1343 C1359 1.377 . S
C1344 C1342 1.389 . S
C1344 C1345 1.524 . S
C1344 C1358 1.377 . S
C1345 C1344 1.524 . S
C1345 C1346 1.397 . S
C1345 C1350 1.363 . S
C1346 H1323 0.950 . S
C1346 C1345 1.397 . S
C1346 C1347 1.334 . S
C1347 H1324 0.950 . S
C1347 C1346 1.334 . S
C1347 C1348 1.287 . S
C1348 C1347 1.287 . S
C1348 C1349 1.524 . S
C1348 H1367 0.913 . S
C1349 H1325 0.950 . S
C1349 C1348 1.524 . S
C1349 C1350 1.415 . S
C1350 H1326 0.950 . S
C1350 C1345 1.363 . S
C1350 C1349 1.415 . S
C1351 H1327 0.951 . S
C1351 C1352 1.366 . S
C1351 C1353 1.388 . S
C1352 C1351 1.366 . S
C1352 C1356 1.385 . S
C1353 H1328 0.951 . S
C1353 C1351 1.388 . S
C1353 C1354 1.366 . S
C1354 C1353 1.366 . S
C1354 C1355 1.414 . S
C1354 C1357 1.499 . S
C1355 H1329 0.950 . S
C1355 C1354 1.414 . S
C1355 C1356 1.374 . S
C1356 H1330 0.950 . S
C1356 C1352 1.385 . S
C1356 C1355 1.374 . S
C1357 C1354 1.499 . S
C1357 C1358 1.373 . S
C1357 C1359 1.389 . S
C1358 H1331 0.950 . S
C1358 C1344 1.377 . S
C1358 C1357 1.373 . S
C1359 C1343 1.377 . S
C1359 C1357 1.389 . S
C1359 C1360 1.524 . S
C1360 C1359 1.524 . S
C1360 C1361 1.397 . S
C1360 C1365 1.363 . S
C1361 H1332 0.950 . S
C1361 C1360 1.397 . S
C1361 C1362 1.334 . S
C1362 H1333 0.950 . S
C1362 C1361 1.334 . S
C1362 C1363 1.287 . S
C1363 C1362 1.287 . S
C1363 C1364 1.524 . S
C1363 H1366 0.999 . S
C1364 H1334 0.950 . S
C1364 C1363 1.524 . S
C1364 C1365 1.415 . S
C1365 H1335 0.950 . S
C1365 C1360 1.363 . S
C1365 C1364 1.415 . S
H1366 C1363 0.999 . S
H1367 C1348 0.913 . S
H1368 C1386 0.951 . S
H1369 C1388 0.951 . S
H1370 C1390 0.950 . S
H1371 C1391 0.950 . S
H1372 C1393 0.950 . S
H1373 C1396 0.950 . S
H1374 C1397 0.950 . S
H1375 C1399 0.950 . S
H1376 C1400 0.950 . S
H1377 C1401 0.951 . S
H1378 C1403 0.951 . S
H1379 C1405 0.950 . S
H1380 C1406 0.950 . S
H1381 C1408 0.950 . S
H1382 C1411 0.950 . S
H1383 C1412 0.950 . S
H1384 C1414 0.950 . S
H1385 C1415 0.950 . S
C1386 H1368 0.951 . S
C1386 C1387 1.366 . S
C1386 C1388 1.388 . S
C1387 C1386 1.366 . S
C1387 C1391 1.385 . S
C1388 H1369 0.951 . S
C1388 C1386 1.388 . S
C1388 C1389 1.366 . S
C1389 C1388 1.366 . S
C1389 C1390 1.414 . S
C1389 C1392 1.499 . S
C1390 H1370 0.950 . S
C1390 C1389 1.414 . S
C1390 C1391 1.374 . S
C1391 H1371 0.950 . S
C1391 C1387 1.385 . S
C1391 C1390 1.374 . S
C1392 C1389 1.499 . S
C1392 C1393 1.373 . S
C1392 C1394 1.389 . S
C1393 H1372 0.950 . S
C1393 C1392 1.373 . S
C1393 C1409 1.377 . S
C1394 C1392 1.389 . S
C1394 C1395 1.524 . S
C1394 C1408 1.377 . S
C1395 C1394 1.524 . S
C1395 C1396 1.397 . S
C1395 C1400 1.363 . S
C1396 H1373 0.950 . S
C1396 C1395 1.397 . S
C1396 C1397 1.334 . S
C1397 H1374 0.950 . S
C1397 C1396 1.334 . S
C1397 C1398 1.287 . S
C1398 C1397 1.287 . S
C1398 C1399 1.524 . S
C1398 H1417 0.913 . S
C1399 H1375 0.950 . S
C1399 C1398 1.524 . S
C1399 C1400 1.415 . S
C1400 H1376 0.950 . S
C1400 C1395 1.363 . S
C1400 C1399 1.415 . S
C1401 H1377 0.951 . S
C1401 C1402 1.366 . S
C1401 C1403 1.388 . S
C1402 C1401 1.366 . S
C1402 C1406 1.385 . S
C1403 H1378 0.951 . S
C1403 C1401 1.388 . S
C1403 C1404 1.366 . S
C1404 C1403 1.366 . S
C1404 C1405 1.414 . S
C1404 C1407 1.499 . S
C1405 H1379 0.950 . S
C1405 C1404 1.414 . S
C1405 C1406 1.374 . S
C1406 H1380 0.950 . S
C1406 C1402 1.385 . S
C1406 C1405 1.374 . S
C1407 C1404 1.499 . S
C1407 C1408 1.373 . S
C1407 C1409 1.389 . S
C1408 H1381 0.950 . S
C1408 C1394 1.377 . S
C1408 C1407 1.373 . S
C1409 C1393 1.377 . S
C1409 C1407 1.389 . S
C1409 C1410 1.524 . S
C1410 C1409 1.524 . S
C1410 C1411 1.397 . S
C1410 C1415 1.363 . S
C1411 H1382 0.950 . S
C1411 C1410 1.397 . S
C1411 C1412 1.334 . S
C1412 H1383 0.950 . S
C1412 C1411 1.334 . S
C1412 C1413 1.287 . S
C1413 C1412 1.287 . S
C1413 C1414 1.524 . S
C1413 H1416 0.999 . S
C1414 H1384 0.950 . S
C1414 C1413 1.524 . S
C1414 C1415 1.415 . S
C1415 H1385 0.950 . S
C1415 C1410 1.363 . S
C1415 C1414 1.415 . S
H1416 C1413 0.999 . S
H1417 C1398 0.913 . S
H1418 C1436 0.951 . S
H1419 C1438 0.951 . S
H1420 C1440 0.950 . S
H1421 C1441 0.950 . S
H1422 C1443 0.950 . S
H1423 C1446 0.950 . S
H1424 C1447 0.950 . S
H1425 C1449 0.950 . S
H1426 C1450 0.950 . S
H1427 C1451 0.951 . S
H1428 C1453 0.951 . S
H1429 C1455 0.950 . S
H1430 C1456 0.950 . S
H1431 C1458 0.950 . S
H1432 C1461 0.950 . S
H1433 C1462 0.950 . S
H1434 C1464 0.950 . S
H1435 C1465 0.950 . S
C1436 H1418 0.951 . S
C1436 C1437 1.366 . S
C1436 C1438 1.388 . S
C1437 C1436 1.366 . S
C1437 C1441 1.385 . S
C1438 H1419 0.951 . S
C1438 C1436 1.388 . S
C1438 C1439 1.366 . S
C1439 C1438 1.366 . S
C1439 C1440 1.414 . S
C1439 C1442 1.499 . S
C1440 H1420 0.950 . S
C1440 C1439 1.414 . S
C1440 C1441 1.374 . S
C1441 H1421 0.950 . S
C1441 C1437 1.385 . S
C1441 C1440 1.374 . S
C1442 C1439 1.499 . S
C1442 C1443 1.373 . S
C1442 C1444 1.389 . S
C1443 H1422 0.950 . S
C1443 C1442 1.373 . S
C1443 C1459 1.377 . S
C1444 C1442 1.389 . S
C1444 C1445 1.524 . S
C1444 C1458 1.377 . S
C1445 C1444 1.524 . S
C1445 C1446 1.397 . S
C1445 C1450 1.363 . S
C1446 H1423 0.950 . S
C1446 C1445 1.397 . S
C1446 C1447 1.334 . S
C1447 H1424 0.950 . S
C1447 C1446 1.334 . S
C1447 C1448 1.287 . S
C1448 C1447 1.287 . S
C1448 C1449 1.524 . S
C1448 H1467 0.913 . S
C1449 H1425 0.950 . S
C1449 C1448 1.524 . S
C1449 C1450 1.415 . S
C1450 H1426 0.950 . S
C1450 C1445 1.363 . S
C1450 C1449 1.415 . S
C1451 H1427 0.951 . S
C1451 C1452 1.366 . S
C1451 C1453 1.388 . S
C1452 C1451 1.366 . S
C1452 C1456 1.385 . S
C1453 H1428 0.951 . S
C1453 C1451 1.388 . S
C1453 C1454 1.366 . S
C1454 C1453 1.366 . S
C1454 C1455 1.414 . S
C1454 C1457 1.499 . S
C1455 H1429 0.950 . S
C1455 C1454 1.414 . S
C1455 C1456 1.374 . S
C1456 H1430 0.950 . S
C1456 C1452 1.385 . S
C1456 C1455 1.374 . S
C1457 C1454 1.499 . S
C1457 C1458 1.373 . S
C1457 C1459 1.389 . S
C1458 H1431 0.950 . S
C1458 C1444 1.377 . S
C1458 C1457 1.373 . S
C1459 C1443 1.377 . S
C1459 C1457 1.389 . S
C1459 C1460 1.524 . S
C1460 C1459 1.524 . S
C1460 C1461 1.397 . S
C1460 C1465 1.363 . S
C1461 H1432 0.950 . S
C1461 C1460 1.397 . S
C1461 C1462 1.334 . S
C1462 H1433 0.950 . S
C1462 C1461 1.334 . S
C1462 C1463 1.287 . S
C1463 C1462 1.287 . S
C1463 C1464 1.524 . S
C1463 H1466 0.999 . S
C1464 H1434 0.950 . S
C1464 C1463 1.524 . S
C1464 C1465 1.415 . S
C1465 H1435 0.950 . S
C1465 C1460 1.363 . S
C1465 C1464 1.415 . S
H1466 C1463 0.999 . S
H1467 C1448 0.913 . S
H1468 C1486 0.951 . S
H1469 C1488 0.951 . S
H1470 C1490 0.950 . S
H1471 C1491 0.950 . S
H1472 C1493 0.950 . S
H1473 C1496 0.950 . S
H1474 C1497 0.950 . S
H1475 C1499 0.950 . S
H1476 C1500 0.950 . S
H1477 C1501 0.951 . S
H1478 C1503 0.951 . S
H1479 C1505 0.950 . S
H1480 C1506 0.950 . S
H1481 C1508 0.950 . S
H1482 C1511 0.950 . S
H1483 C1512 0.950 . S
H1484 C1514 0.950 . S
H1485 C1515 0.950 1_545 S
C1486 H1468 0.951 . S
C1486 C1487 1.366 . S
C1486 C1488 1.388 . S
C1487 C1486 1.366 . S
C1487 C1491 1.385 . S
C1488 H1469 0.951 . S
C1488 C1486 1.388 . S
C1488 C1489 1.366 . S
C1489 C1488 1.366 . S
C1489 C1490 1.414 . S
C1489 C1492 1.499 . S
C1490 H1470 0.950 . S
C1490 C1489 1.414 . S
C1490 C1491 1.374 . S
C1491 H1471 0.950 . S
C1491 C1487 1.385 . S
C1491 C1490 1.374 . S
C1492 C1489 1.499 . S
C1492 C1493 1.373 . S
C1492 C1494 1.389 . S
C1493 H1472 0.950 . S
C1493 C1492 1.373 . S
C1493 C1509 1.377 . S
C1494 C1492 1.389 . S
C1494 C1495 1.524 . S
C1494 C1508 1.377 . S
C1495 C1494 1.524 . S
C1495 C1496 1.397 . S
C1495 C1500 1.363 . S
C1496 H1473 0.950 . S
C1496 C1495 1.397 . S
C1496 C1497 1.334 . S
C1497 H1474 0.950 . S
C1497 C1496 1.334 . S
C1497 C1498 1.287 . S
C1498 C1497 1.287 . S
C1498 C1499 1.524 . S
C1498 H1517 0.913 . S
C1499 H1475 0.950 . S
C1499 C1498 1.524 . S
C1499 C1500 1.415 . S
C1500 H1476 0.950 . S
C1500 C1495 1.363 . S
C1500 C1499 1.415 . S
C1501 H1477 0.951 . S
C1501 C1502 1.366 . S
C1501 C1503 1.388 . S
C1502 C1501 1.366 . S
C1502 C1506 1.385 . S
C1503 H1478 0.951 . S
C1503 C1501 1.388 . S
C1503 C1504 1.366 . S
C1504 C1503 1.366 . S
C1504 C1505 1.414 . S
C1504 C1507 1.499 . S
C1505 H1479 0.950 . S
C1505 C1504 1.414 . S
C1505 C1506 1.374 . S
C1506 H1480 0.950 . S
C1506 C1502 1.385 . S
C1506 C1505 1.374 . S
C1507 C1504 1.499 . S
C1507 C1508 1.373 . S
C1507 C1509 1.389 . S
C1508 H1481 0.950 . S
C1508 C1494 1.377 . S
C1508 C1507 1.373 . S
C1509 C1493 1.377 . S
C1509 C1507 1.389 . S
C1509 C1510 1.524 . S
C1510 C1509 1.524 . S
C1510 C1511 1.397 . S
C1510 C1515 1.363 . S
C1511 H1482 0.950 . S
C1511 C1510 1.397 . S
C1511 C1512 1.334 . S
C1512 H1483 0.950 . S
C1512 C1511 1.334 . S
C1512 C1513 1.287 . S
C1513 C1512 1.287 . S
C1513 C1514 1.524 1_565 S
C1513 H1516 0.999 . S
C1514 H1484 0.950 . S
C1514 C1513 1.524 1_545 S
C1514 C1515 1.415 1_545 S
C1515 H1485 0.950 1_565 S
C1515 C1510 1.363 . S
C1515 C1514 1.415 1_565 S
H1516 C1513 0.999 . S
H1517 C1498 0.913 . S
H1518 C1536 0.951 . S
H1519 C1538 0.951 . S
H1520 C1540 0.950 . S
H1521 C1541 0.950 . S
H1522 C1543 0.950 . S
H1523 C1546 0.950 . S
H1524 C1547 0.950 . S
H1525 C1549 0.950 . S
H1526 C1550 0.950 . S
H1527 C1551 0.951 . S
H1528 C1553 0.951 . S
H1529 C1555 0.950 . S
H1530 C1556 0.950 . S
H1531 C1558 0.950 . S
H1532 C1561 0.950 . S
H1533 C1562 0.950 . S
H1534 C1564 0.950 . S
H1535 C1565 0.950 . S
C1536 H1518 0.951 . S
C1536 C1537 1.366 . S
C1536 C1538 1.388 . S
C1537 C1536 1.366 . S
C1537 C1541 1.385 . S
C1538 H1519 0.951 . S
C1538 C1536 1.388 . S
C1538 C1539 1.366 . S
C1539 C1538 1.366 . S
C1539 C1540 1.414 . S
C1539 C1542 1.499 . S
C1540 H1520 0.950 . S
C1540 C1539 1.414 . S
C1540 C1541 1.374 . S
C1541 H1521 0.950 . S
C1541 C1537 1.385 . S
C1541 C1540 1.374 . S
C1542 C1539 1.499 . S
C1542 C1543 1.373 . S
C1542 C1544 1.389 . S
C1543 H1522 0.950 . S
C1543 C1542 1.373 . S
C1543 C1559 1.377 . S
C1544 C1542 1.389 . S
C1544 C1545 1.524 . S
C1544 C1558 1.377 . S
C1545 C1544 1.524 . S
C1545 C1546 1.397 . S
C1545 C1550 1.363 . S
C1546 H1523 0.950 . S
C1546 C1545 1.397 . S
C1546 C1547 1.334 . S
C1547 H1524 0.950 . S
C1547 C1546 1.334 . S
C1547 C1548 1.287 . S
C1548 C1547 1.287 . S
C1548 C1549 1.524 . S
C1548 H1567 0.913 . S
C1549 H1525 0.950 . S
C1549 C1548 1.524 . S
C1549 C1550 1.415 . S
C1550 H1526 0.950 . S
C1550 C1545 1.363 . S
C1550 C1549 1.415 . S
C1551 H1527 0.951 . S
C1551 C1552 1.366 . S
C1551 C1553 1.388 . S
C1552 C1551 1.366 . S
C1552 C1556 1.385 . S
C1553 H1528 0.951 . S
C1553 C1551 1.388 . S
C1553 C1554 1.366 . S
C1554 C1553 1.366 . S
C1554 C1555 1.414 . S
C1554 C1557 1.499 . S
C1555 H1529 0.950 . S
C1555 C1554 1.414 . S
C1555 C1556 1.374 . S
C1556 H1530 0.950 . S
C1556 C1552 1.385 . S
C1556 C1555 1.374 . S
C1557 C1554 1.499 . S
C1557 C1558 1.373 . S
C1557 C1559 1.389 . S
C1558 H1531 0.950 . S
C1558 C1544 1.377 . S
C1558 C1557 1.373 . S
C1559 C1543 1.377 . S
C1559 C1557 1.389 . S
C1559 C1560 1.524 . S
C1560 C1559 1.524 . S
C1560 C1561 1.397 1_455 S
C1560 C1565 1.363 . S
C1561 H1532 0.950 . S
C1561 C1560 1.397 1_655 S
C1561 C1562 1.334 . S
C1562 H1533 0.950 . S
C1562 C1561 1.334 . S
C1562 C1563 1.287 . S
C1563 C1562 1.287 . S
C1563 C1564 1.524 . S
C1563 H1566 0.999 . S
C1564 H1534 0.950 . S
C1564 C1563 1.524 . S
C1564 C1565 1.415 1_655 S
C1565 H1535 0.950 . S
C1565 C1560 1.363 . S
C1565 C1564 1.415 1_455 S
H1566 C1563 0.999 . S
H1567 C1548 0.913 . S
H1568 C1586 0.951 . S
H1569 C1588 0.951 . S
H1570 C1590 0.950 . S
H1571 C1591 0.950 . S
H1572 C1593 0.950 . S
H1573 C1596 0.950 . S
H1574 C1597 0.950 . S
H1575 C1599 0.950 . S
H1576 C1600 0.950 . S
H1577 C1601 0.951 . S
H1578 C1603 0.951 . S
H1579 C1605 0.950 . S
H1580 C1606 0.950 . S
H1581 C1608 0.950 . S
H1582 C1611 0.950 . S
H1583 C1612 0.950 . S
H1584 C1614 0.950 . S
H1585 C1615 0.950 . S
C1586 H1568 0.951 . S
C1586 C1587 1.366 . S
C1586 C1588 1.388 . S
C1587 C1586 1.366 . S
C1587 C1591 1.385 . S
C1588 H1569 0.951 . S
C1588 C1586 1.388 . S
C1588 C1589 1.366 . S
C1589 C1588 1.366 . S
C1589 C1590 1.414 . S
C1589 C1592 1.499 . S
C1590 H1570 0.950 . S
C1590 C1589 1.414 . S
C1590 C1591 1.374 . S
C1591 H1571 0.950 . S
C1591 C1587 1.385 . S
C1591 C1590 1.374 . S
C1592 C1589 1.499 . S
C1592 C1593 1.373 . S
C1592 C1594 1.389 . S
C1593 H1572 0.950 . S
C1593 C1592 1.373 . S
C1593 C1609 1.377 . S
C1594 C1592 1.389 . S
C1594 C1595 1.524 . S
C1594 C1608 1.377 . S
C1595 C1594 1.524 . S
C1595 C1596 1.397 . S
C1595 C1600 1.363 . S
C1596 H1573 0.950 . S
C1596 C1595 1.397 . S
C1596 C1597 1.334 . S
C1597 H1574 0.950 . S
C1597 C1596 1.334 . S
C1597 C1598 1.287 . S
C1598 C1597 1.287 . S
C1598 C1599 1.524 . S
C1598 H1617 0.913 . S
C1599 H1575 0.950 . S
C1599 C1598 1.524 . S
C1599 C1600 1.415 . S
C1600 H1576 0.950 . S
C1600 C1595 1.363 . S
C1600 C1599 1.415 . S
C1601 H1577 0.951 . S
C1601 C1602 1.366 . S
C1601 C1603 1.388 . S
C1602 C1601 1.366 . S
C1602 C1606 1.385 . S
C1603 H1578 0.951 . S
C1603 C1601 1.388 . S
C1603 C1604 1.366 . S
C1604 C1603 1.366 . S
C1604 C1605 1.414 . S
C1604 C1607 1.499 . S
C1605 H1579 0.950 . S
C1605 C1604 1.414 . S
C1605 C1606 1.374 . S
C1606 H1580 0.950 . S
C1606 C1602 1.385 . S
C1606 C1605 1.374 . S
C1607 C1604 1.499 . S
C1607 C1608 1.373 . S
C1607 C1609 1.389 . S
C1608 H1581 0.950 . S
C1608 C1594 1.377 . S
C1608 C1607 1.373 . S
C1609 C1593 1.377 . S
C1609 C1607 1.389 . S
C1609 C1610 1.524 . S
C1610 C1609 1.524 . S
C1610 C1611 1.397 . S
C1610 C1615 1.363 . S
C1611 H1582 0.950 . S
C1611 C1610 1.397 . S
C1611 C1612 1.334 . S
C1612 H1583 0.950 . S
C1612 C1611 1.334 . S
C1612 C1613 1.287 . S
C1613 C1612 1.287 . S
C1613 C1614 1.524 . S
C1613 H1616 0.999 . S
C1614 H1584 0.950 . S
C1614 C1613 1.524 . S
C1614 C1615 1.415 . S
C1615 H1585 0.950 . S
C1615 C1610 1.363 . S
C1615 C1614 1.415 . S
H1616 C1613 0.999 . S
H1617 C1598 0.913 . S
H1618 C1636 0.951 . S
H1619 C1638 0.951 . S
H1620 C1640 0.950 . S
H1621 C1641 0.950 . S
H1622 C1643 0.950 . S
H1623 C1646 0.950 . S
H1624 C1647 0.950 . S
H1625 C1649 0.950 . S
H1626 C1650 0.950 . S
H1627 C1651 0.951 . S
H1628 C1653 0.951 . S
H1629 C1655 0.950 . S
H1630 C1656 0.950 . S
H1631 C1658 0.950 . S
H1632 C1661 0.950 . S
H1633 C1662 0.950 . S
H1634 C1664 0.950 . S
H1635 C1665 0.950 . S
C1636 H1618 0.951 . S
C1636 C1637 1.366 . S
C1636 C1638 1.388 . S
C1637 C1636 1.366 . S
C1637 C1641 1.385 . S
C1638 H1619 0.951 . S
C1638 C1636 1.388 . S
C1638 C1639 1.366 . S
C1639 C1638 1.366 . S
C1639 C1640 1.414 . S
C1639 C1642 1.499 . S
C1640 H1620 0.950 . S
C1640 C1639 1.414 . S
C1640 C1641 1.374 . S
C1641 H1621 0.950 . S
C1641 C1637 1.385 . S
C1641 C1640 1.374 . S
C1642 C1639 1.499 . S
C1642 C1643 1.373 . S
C1642 C1644 1.389 . S
C1643 H1622 0.950 . S
C1643 C1642 1.373 . S
C1643 C1659 1.377 . S
C1644 C1642 1.389 . S
C1644 C1645 1.524 . S
C1644 C1658 1.377 . S
C1645 C1644 1.524 . S
C1645 C1646 1.397 . S
C1645 C1650 1.363 . S
C1646 H1623 0.950 . S
C1646 C1645 1.397 . S
C1646 C1647 1.334 . S
C1647 H1624 0.950 . S
C1647 C1646 1.334 . S
C1647 C1648 1.287 . S
C1648 C1647 1.287 . S
C1648 C1649 1.524 . S
C1648 H1667 0.913 . S
C1649 H1625 0.950 . S
C1649 C1648 1.524 . S
C1649 C1650 1.415 . S
C1650 H1626 0.950 . S
C1650 C1645 1.363 . S
C1650 C1649 1.415 . S
C1651 H1627 0.951 . S
C1651 C1652 1.366 . S
C1651 C1653 1.388 . S
C1652 C1651 1.366 . S
C1652 C1656 1.385 . S
C1653 H1628 0.951 . S
C1653 C1651 1.388 . S
C1653 C1654 1.366 . S
C1654 C1653 1.366 . S
C1654 C1655 1.414 . S
C1654 C1657 1.499 . S
C1655 H1629 0.950 . S
C1655 C1654 1.414 . S
C1655 C1656 1.374 . S
C1656 H1630 0.950 . S
C1656 C1652 1.385 . S
C1656 C1655 1.374 . S
C1657 C1654 1.499 . S
C1657 C1658 1.373 . S
C1657 C1659 1.389 . S
C1658 H1631 0.950 . S
C1658 C1644 1.377 . S
C1658 C1657 1.373 . S
C1659 C1643 1.377 . S
C1659 C1657 1.389 . S
C1659 C1660 1.524 . S
C1660 C1659 1.524 . S
C1660 C1661 1.397 . S
C1660 C1665 1.363 . S
C1661 H1632 0.950 . S
C1661 C1660 1.397 . S
C1661 C1662 1.334 . S
C1662 H1633 0.950 . S
C1662 C1661 1.334 . S
C1662 C1663 1.287 . S
C1663 C1662 1.287 . S
C1663 C1664 1.524 . S
C1663 H1666 0.999 . S
C1664 H1634 0.950 . S
C1664 C1663 1.524 . S
C1664 C1665 1.415 . S
C1665 H1635 0.950 . S
C1665 C1660 1.363 . S
C1665 C1664 1.415 . S
H1666 C1663 0.999 . S
H1667 C1648 0.913 . S
H1668 C1686 0.951 . S
H1669 C1688 0.951 . S
H1670 C1690 0.950 . S
H1671 C1691 0.950 . S
H1672 C1693 0.950 . S
H1673 C1696 0.950 . S
H1674 C1697 0.950 . S
H1675 C1699 0.950 . S
H1676 C1700 0.950 . S
H1677 C1701 0.951 . S
H1678 C1703 0.951 . S
H1679 C1705 0.950 . S
H1680 C1706 0.950 . S
H1681 C1708 0.950 . S
H1682 C1711 0.950 . S
H1683 C1712 0.950 . S
H1684 C1714 0.950 . S
H1685 C1715 0.950 . S
C1686 H1668 0.951 . S
C1686 C1687 1.366 . S
C1686 C1688 1.388 . S
C1687 C1686 1.366 . S
C1687 C1691 1.385 . S
C1688 H1669 0.951 . S
C1688 C1686 1.388 . S
C1688 C1689 1.366 . S
C1689 C1688 1.366 . S
C1689 C1690 1.414 . S
C1689 C1692 1.499 . S
C1690 H1670 0.950 . S
C1690 C1689 1.414 . S
C1690 C1691 1.374 . S
C1691 H1671 0.950 . S
C1691 C1687 1.385 . S
C1691 C1690 1.374 . S
C1692 C1689 1.499 . S
C1692 C1693 1.373 . S
C1692 C1694 1.389 . S
C1693 H1672 0.950 . S
C1693 C1692 1.373 . S
C1693 C1709 1.377 . S
C1694 C1692 1.389 . S
C1694 C1695 1.524 . S
C1694 C1708 1.377 . S
C1695 C1694 1.524 . S
C1695 C1696 1.397 . S
C1695 C1700 1.363 . S
C1696 H1673 0.950 . S
C1696 C1695 1.397 . S
C1696 C1697 1.334 . S
C1697 H1674 0.950 . S
C1697 C1696 1.334 . S
C1697 C1698 1.287 . S
C1698 C1697 1.287 . S
C1698 C1699 1.524 . S
C1698 H1717 0.913 . S
C1699 H1675 0.950 . S
C1699 C1698 1.524 . S
C1699 C1700 1.415 . S
C1700 H1676 0.950 . S
C1700 C1695 1.363 . S
C1700 C1699 1.415 . S
C1701 H1677 0.951 . S
C1701 C1702 1.366 . S
C1701 C1703 1.388 . S
C1702 C1701 1.366 . S
C1702 C1706 1.385 . S
C1703 H1678 0.951 . S
C1703 C1701 1.388 . S
C1703 C1704 1.366 . S
C1704 C1703 1.366 . S
C1704 C1705 1.414 . S
C1704 C1707 1.499 . S
C1705 H1679 0.950 . S
C1705 C1704 1.414 . S
C1705 C1706 1.374 . S
C1706 H1680 0.950 . S
C1706 C1702 1.385 . S
C1706 C1705 1.374 . S
C1707 C1704 1.499 . S
C1707 C1708 1.373 . S
C1707 C1709 1.389 . S
C1708 H1681 0.950 . S
C1708 C1694 1.377 . S
C1708 C1707 1.373 . S
C1709 C1693 1.377 . S
C1709 C1707 1.389 . S
C1709 C1710 1.524 . S
C1710 C1709 1.524 . S
C1710 C1711 1.397 . S
C1710 C1715 1.363 . S
C1711 H1682 0.950 . S
C1711 C1710 1.397 . S
C1711 C1712 1.334 . S
C1712 H1683 0.950 . S
C1712 C1711 1.334 . S
C1712 C1713 1.287 . S
C1713 C1712 1.287 . S
C1713 C1714 1.524 . S
C1713 H1716 0.999 . S
C1714 H1684 0.950 . S
C1714 C1713 1.524 . S
C1714 C1715 1.415 . S
C1715 H1685 0.950 . S
C1715 C1710 1.363 . S
C1715 C1714 1.415 . S
H1716 C1713 0.999 . S
H1717 C1698 0.913 . S
H1718 C1736 0.951 . S
H1719 C1738 0.951 . S
H1720 C1740 0.950 . S
H1721 C1741 0.950 . S
H1722 C1743 0.950 . S
H1723 C1746 0.950 . S
H1724 C1747 0.950 . S
H1725 C1749 0.950 . S
H1726 C1750 0.950 . S
H1727 C1751 0.951 . S
H1728 C1753 0.951 . S
H1729 C1755 0.950 . S
H1730 C1756 0.950 . S
H1731 C1758 0.950 . S
H1732 C1761 0.950 . S
H1733 C1762 0.950 . S
H1734 C1764 0.950 . S
H1735 C1765 0.950 . S
C1736 H1718 0.951 . S
C1736 C1737 1.366 . S
C1736 C1738 1.388 . S
C1737 C1736 1.366 . S
C1737 C1741 1.385 . S
C1738 H1719 0.951 . S
C1738 C1736 1.388 . S
C1738 C1739 1.366 . S
C1739 C1738 1.366 . S
C1739 C1740 1.414 . S
C1739 C1742 1.499 . S
C1740 H1720 0.950 . S
C1740 C1739 1.414 . S
C1740 C1741 1.374 . S
C1741 H1721 0.950 . S
C1741 C1737 1.385 . S
C1741 C1740 1.374 . S
C1742 C1739 1.499 . S
C1742 C1743 1.373 . S
C1742 C1744 1.389 . S
C1743 H1722 0.950 . S
C1743 C1742 1.373 . S
C1743 C1759 1.377 . S
C1744 C1742 1.389 . S
C1744 C1745 1.524 . S
C1744 C1758 1.377 1_556 S
C1745 C1744 1.524 . S
C1745 C1746 1.397 . S
C1745 C1750 1.363 1_556 S
C1746 H1723 0.950 . S
C1746 C1745 1.397 . S
C1746 C1747 1.334 . S
C1747 H1724 0.950 . S
C1747 C1746 1.334 . S
C1747 C1748 1.287 . S
C1748 C1747 1.287 . S
C1748 C1749 1.524 1_556 S
C1748 H1767 0.913 . S
C1749 H1725 0.950 . S
C1749 C1748 1.524 1_554 S
C1749 C1750 1.415 . S
C1750 H1726 0.950 . S
C1750 C1745 1.363 1_554 S
C1750 C1749 1.415 . S
C1751 H1727 0.951 . S
C1751 C1752 1.366 . S
C1751 C1753 1.388 . S
C1752 C1751 1.366 . S
C1752 C1756 1.385 . S
C1753 H1728 0.951 . S
C1753 C1751 1.388 . S
C1753 C1754 1.366 . S
C1754 C1753 1.366 . S
C1754 C1755 1.414 . S
C1754 C1757 1.499 . S
C1755 H1729 0.950 . S
C1755 C1754 1.414 . S
C1755 C1756 1.374 . S
C1756 H1730 0.950 . S
C1756 C1752 1.385 . S
C1756 C1755 1.374 . S
C1757 C1754 1.499 . S
C1757 C1758 1.373 . S
C1757 C1759 1.389 1_554 S
C1758 H1731 0.950 . S
C1758 C1744 1.377 1_554 S
C1758 C1757 1.373 . S
C1759 C1743 1.377 . S
C1759 C1757 1.389 1_556 S
C1759 C1760 1.524 . S
C1760 C1759 1.524 . S
C1760 C1761 1.397 1_556 S
C1760 C1765 1.363 . S
C1761 H1732 0.950 . S
C1761 C1760 1.397 1_554 S
C1761 C1762 1.334 . S
C1762 H1733 0.950 . S
C1762 C1761 1.334 . S
C1762 C1763 1.287 1_554 S
C1763 C1762 1.287 1_556 S
C1763 C1764 1.524 . S
C1763 H1766 1.011 . S
C1764 H1734 0.950 . S
C1764 C1763 1.524 . S
C1764 C1765 1.415 . S
C1765 H1735 0.950 . S
C1765 C1760 1.363 . S
C1765 C1764 1.415 . S
H1766 C1763 1.011 . S
H1767 C1748 0.913 . S
H1768 C1786 0.951 . S
H1769 C1788 0.951 . S
H1770 C1790 0.950 . S
H1771 C1791 0.950 . S
H1772 C1793 0.950 . S
H1773 C1796 0.970 . S
H1774 C1797 0.950 . S
H1775 C1799 0.950 . S
H1776 C1800 0.950 . S
H1777 C1801 0.951 . S
H1778 C1803 0.951 . S
H1779 C1805 0.950 . S
H1780 C1806 0.950 . S
H1781 C1808 0.950 . S
H1782 C1811 0.950 . S
H1783 C1812 0.950 . S
H1784 C1814 0.951 1_554 S
H1785 C1815 0.937 1_554 S
C1786 H1768 0.951 . S
C1786 C1787 1.366 . S
C1786 C1788 1.388 . S
C1787 C1786 1.366 . S
C1787 C1791 1.385 . S
C1788 H1769 0.951 . S
C1788 C1786 1.388 . S
C1788 C1789 1.366 . S
C1789 C1788 1.366 . S
C1789 C1790 1.414 . S
C1789 C1792 1.499 . S
C1790 H1770 0.950 . S
C1790 C1789 1.414 . S
C1790 C1791 1.374 . S
C1791 H1771 0.950 . S
C1791 C1787 1.385 . S
C1791 C1790 1.374 . S
C1792 C1789 1.499 . S
C1792 C1793 1.373 . S
C1792 C1794 1.389 1_554 S
C1793 H1772 0.950 . S
C1793 C1792 1.373 . S
C1793 C1809 1.377 1_554 S
C1794 C1792 1.389 1_556 S
C1794 C1795 1.524 . S
C1794 C1808 1.377 . S
C1795 C1794 1.524 . S
C1795 C1796 1.397 . S
C1795 C1800 1.363 . S
C1796 H1773 0.970 . S
C1796 C1795 1.397 . S
C1796 C1797 1.334 . S
C1797 H1774 0.950 . S
C1797 C1796 1.334 . S
C1797 C1798 1.287 . S
C1798 C1797 1.287 . S
C1798 C1799 1.524 . S
C1798 H1817 0.913 . S
C1799 H1775 0.950 . S
C1799 C1798 1.524 . S
C1799 C1800 1.415 . S
C1800 H1776 0.950 . S
C1800 C1795 1.363 . S
C1800 C1799 1.415 . S
C1801 H1777 0.951 . S
C1801 C1802 1.366 . S
C1801 C1803 1.388 . S
C1802 C1801 1.366 . S
C1802 C1806 1.385 . S
C1803 H1778 0.951 . S
C1803 C1801 1.388 . S
C1803 C1804 1.366 . S
C1804 C1803 1.366 . S
C1804 C1805 1.414 . S
C1804 C1807 1.499 . S
C1805 H1779 0.950 . S
C1805 C1804 1.414 . S
C1805 C1806 1.374 . S
C1806 H1780 0.950 . S
C1806 C1802 1.385 . S
C1806 C1805 1.374 . S
C1807 C1804 1.499 . S
C1807 C1808 1.373 . S
C1807 C1809 1.389 . S
C1808 H1781 0.950 . S
C1808 C1794 1.377 . S
C1808 C1807 1.373 . S
C1809 C1793 1.377 1_556 S
C1809 C1807 1.389 . S
C1809 C1810 1.524 . S
C1810 C1809 1.524 . S
C1810 C1811 1.397 . S
C1810 C1815 1.394 . S
C1811 H1782 0.950 . S
C1811 C1810 1.397 . S
C1811 C1812 1.334 . S
C1812 H1783 0.950 . S
C1812 C1811 1.334 . S
C1812 C1813 1.287 . S
C1813 C1812 1.287 . S
C1813 C1814 1.523 . S
C1813 H1816 0.999 . S
C1814 H1784 0.951 1_556 S
C1814 C1813 1.523 . S
C1814 C1815 1.410 . S
C1815 H1785 0.937 1_556 S
C1815 C1810 1.394 . S
C1815 C1814 1.410 . S
H1816 C1813 0.999 . S
H1817 C1798 0.913 . S
H1818 C1836 0.951 . S
H1819 C1838 0.951 . S
H1820 C1840 0.950 . S
H1821 C1841 0.950 . S
H1822 C1843 0.950 . S
H1823 C1846 0.950 . S
H1824 C1847 0.950 . S
H1825 C1849 0.950 . S
H1826 C1850 0.950 . S
H1827 C1851 0.951 . S
H1828 C1853 0.951 . S
H1829 C1855 0.950 . S
H1830 C1856 0.950 . S
H1831 C1858 0.950 . S
H1832 C1861 0.950 . S
H1833 C1862 0.950 . S
H1834 C1864 0.950 . S
H1835 C1865 0.950 . S
C1836 H1818 0.951 . S
C1836 C1837 1.366 . S
C1836 C1838 1.388 . S
C1837 C1836 1.366 . S
C1837 C1841 1.385 . S
C1838 H1819 0.951 . S
C1838 C1836 1.388 . S
C1838 C1839 1.366 . S
C1839 C1838 1.366 . S
C1839 C1840 1.414 . S
C1839 C1842 1.499 . S
C1840 H1820 0.950 . S
C1840 C1839 1.414 . S
C1840 C1841 1.374 . S
C1841 H1821 0.950 . S
C1841 C1837 1.385 . S
C1841 C1840 1.374 . S
C1842 C1839 1.499 . S
C1842 C1843 1.373 . S
C1842 C1844 1.389 . S
C1843 H1822 0.950 . S
C1843 C1842 1.373 . S
C1843 C1859 1.377 . S
C1844 C1842 1.389 . S
C1844 C1845 1.524 . S
C1844 C1858 1.377 . S
C1845 C1844 1.524 . S
C1845 C1846 1.397 . S
C1845 C1850 1.363 . S
C1846 H1823 0.950 . S
C1846 C1845 1.397 . S
C1846 C1847 1.334 . S
C1847 H1824 0.950 . S
C1847 C1846 1.334 . S
C1847 C1848 1.287 . S
C1848 C1847 1.287 . S
C1848 C1849 1.524 . S
C1848 H1867 0.913 . S
C1849 H1825 0.950 . S
C1849 C1848 1.524 . S
C1849 C1850 1.415 . S
C1850 H1826 0.950 . S
C1850 C1845 1.363 . S
C1850 C1849 1.415 . S
C1851 H1827 0.951 . S
C1851 C1852 1.366 . S
C1851 C1853 1.388 . S
C1852 C1851 1.366 . S
C1852 C1856 1.385 . S
C1853 H1828 0.951 . S
C1853 C1851 1.388 . S
C1853 C1854 1.366 . S
C1854 C1853 1.366 . S
C1854 C1855 1.414 . S
C1854 C1857 1.499 . S
C1855 H1829 0.950 . S
C1855 C1854 1.414 . S
C1855 C1856 1.374 . S
C1856 H1830 0.950 . S
C1856 C1852 1.385 . S
C1856 C1855 1.374 . S
C1857 C1854 1.499 . S
C1857 C1858 1.373 . S
C1857 C1859 1.389 . S
C1858 H1831 0.950 . S
C1858 C1844 1.377 . S
C1858 C1857 1.373 . S
C1859 C1843 1.377 . S
C1859 C1857 1.389 . S
C1859 C1860 1.524 . S
C1860 C1859 1.524 . S
C1860 C1861 1.397 . S
C1860 C1865 1.363 . S
C1861 H1832 0.950 . S
C1861 C1860 1.397 . S
C1861 C1862 1.334 . S
C1862 H1833 0.950 . S
C1862 C1861 1.334 . S
C1862 C1863 1.287 . S
C1863 C1862 1.287 . S
C1863 C1864 1.524 . S
C1863 H1866 0.999 . S
C1864 H1834 0.950 . S
C1864 C1863 1.524 . S
C1864 C1865 1.415 . S
C1865 H1835 0.950 . S
C1865 C1860 1.363 . S
C1865 C1864 1.415 . S
H1866 C1863 0.999 . S
H1867 C1848 0.913 . S
H1868 C1886 0.951 . S
H1869 C1888 0.951 . S
H1870 C1890 0.950 . S
H1871 C1891 0.950 . S
H1872 C1893 0.950 . S
H1873 C1896 0.950 . S
H1874 C1897 0.950 . S
H1875 C1899 0.950 . S
H1876 C1900 0.950 . S
H1877 C1901 0.951 . S
H1878 C1903 0.951 . S
H1879 C1905 0.950 . S
H1880 C1906 0.950 . S
H1881 C1908 0.950 . S
H1882 C1911 0.950 . S
H1883 C1912 0.950 . S
H1884 C1914 0.950 . S
H1885 C1915 0.950 . S
C1886 H1868 0.951 . S
C1886 C1887 1.366 . S
C1886 C1888 1.388 . S
C1887 C1886 1.366 . S
C1887 C1891 1.385 . S
C1888 H1869 0.951 . S
C1888 C1886 1.388 . S
C1888 C1889 1.366 . S
C1889 C1888 1.366 . S
C1889 C1890 1.414 . S
C1889 C1892 1.499 . S
C1890 H1870 0.950 . S
C1890 C1889 1.414 . S
C1890 C1891 1.374 . S
C1891 H1871 0.950 . S
C1891 C1887 1.385 . S
C1891 C1890 1.374 . S
C1892 C1889 1.499 . S
C1892 C1893 1.373 . S
C1892 C1894 1.389 . S
C1893 H1872 0.950 . S
C1893 C1892 1.373 . S
C1893 C1909 1.377 . S
C1894 C1892 1.389 . S
C1894 C1895 1.524 . S
C1894 C1908 1.377 . S
C1895 C1894 1.524 . S
C1895 C1896 1.397 . S
C1895 C1900 1.363 . S
C1896 H1873 0.950 . S
C1896 C1895 1.397 . S
C1896 C1897 1.334 . S
C1897 H1874 0.950 . S
C1897 C1896 1.334 . S
C1897 C1898 1.287 . S
C1898 C1897 1.287 . S
C1898 C1899 1.524 . S
C1898 H1917 0.913 . S
C1899 H1875 0.950 . S
C1899 C1898 1.524 . S
C1899 C1900 1.415 . S
C1900 H1876 0.950 . S
C1900 C1895 1.363 . S
C1900 C1899 1.415 . S
C1901 H1877 0.951 . S
C1901 C1902 1.366 . S
C1901 C1903 1.388 . S
C1902 C1901 1.366 . S
C1902 C1906 1.385 . S
C1903 H1878 0.951 . S
C1903 C1901 1.388 . S
C1903 C1904 1.366 . S
C1904 C1903 1.366 . S
C1904 C1905 1.414 . S
C1904 C1907 1.499 . S
C1905 H1879 0.950 . S
C1905 C1904 1.414 . S
C1905 C1906 1.374 . S
C1906 H1880 0.950 . S
C1906 C1902 1.385 . S
C1906 C1905 1.374 . S
C1907 C1904 1.499 . S
C1907 C1908 1.373 . S
C1907 C1909 1.389 . S
C1908 H1881 0.950 . S
C1908 C1894 1.377 . S
C1908 C1907 1.373 . S
C1909 C1893 1.377 . S
C1909 C1907 1.389 . S
C1909 C1910 1.524 . S
C1910 C1909 1.524 . S
C1910 C1911 1.397 . S
C1910 C1915 1.363 . S
C1911 H1882 0.950 . S
C1911 C1910 1.397 . S
C1911 C1912 1.334 . S
C1912 H1883 0.950 . S
C1912 C1911 1.334 . S
C1912 C1913 1.287 . S
C1913 C1912 1.287 . S
C1913 C1914 1.524 . S
C1913 H1916 0.999 . S
C1914 H1884 0.950 . S
C1914 C1913 1.524 . S
C1914 C1915 1.415 . S
C1915 H1885 0.950 . S
C1915 C1910 1.363 . S
C1915 C1914 1.415 . S
H1916 C1913 0.999 . S
H1917 C1898 0.913 . S
H1918 C1936 0.951 . S
H1919 C1938 0.951 . S
H1920 C1940 0.950 . S
H1921 C1941 0.950 . S
H1922 C1943 0.950 . S
H1923 C1946 0.950 . S
H1924 C1947 0.950 . S
H1925 C1949 0.950 1_455 S
H1926 C1950 0.950 . S
H1927 C1951 0.951 . S
H1928 C1953 0.951 . S
H1929 C1955 0.950 . S
H1930 C1956 0.950 . S
H1931 C1958 0.950 . S
H1932 C1961 0.950 . S
H1933 C1962 0.950 . S
H1934 C1964 0.950 . S
H1935 C1965 0.950 . S
C1936 H1918 0.951 . S
C1936 C1937 1.366 . S
C1936 C1938 1.388 . S
C1937 C1936 1.366 . S
C1937 C1941 1.385 . S
C1938 H1919 0.951 . S
C1938 C1936 1.388 . S
C1938 C1939 1.366 . S
C1939 C1938 1.366 . S
C1939 C1940 1.414 . S
C1939 C1942 1.499 . S
C1940 H1920 0.950 . S
C1940 C1939 1.414 . S
C1940 C1941 1.374 . S
C1941 H1921 0.950 . S
C1941 C1937 1.385 . S
C1941 C1940 1.374 . S
C1942 C1939 1.499 . S
C1942 C1943 1.373 . S
C1942 C1944 1.389 . S
C1943 H1922 0.950 . S
C1943 C1942 1.373 . S
C1943 C1959 1.377 . S
C1944 C1942 1.389 . S
C1944 C1945 1.524 . S
C1944 C1958 1.377 . S
C1945 C1944 1.524 . S
C1945 C1946 1.397 . S
C1945 C1950 1.363 . S
C1946 H1923 0.950 . S
C1946 C1945 1.397 . S
C1946 C1947 1.334 . S
C1947 H1924 0.950 . S
C1947 C1946 1.334 . S
C1947 C1948 1.287 . S
C1948 C1947 1.287 . S
C1948 C1949 1.524 . S
C1948 H1967 0.913 1_655 S
C1949 H1925 0.950 1_655 S
C1949 C1948 1.524 . S
C1949 C1950 1.415 . S
C1950 H1926 0.950 . S
C1950 C1945 1.363 . S
C1950 C1949 1.415 . S
C1951 H1927 0.951 . S
C1951 C1952 1.366 . S
C1951 C1953 1.388 . S
C1952 C1951 1.366 . S
C1952 C1956 1.385 . S
C1953 H1928 0.951 . S
C1953 C1951 1.388 . S
C1953 C1954 1.366 . S
C1954 C1953 1.366 . S
C1954 C1955 1.414 . S
C1954 C1957 1.499 . S
C1955 H1929 0.950 . S
C1955 C1954 1.414 . S
C1955 C1956 1.374 . S
C1956 H1930 0.950 . S
C1956 C1952 1.385 . S
C1956 C1955 1.374 . S
C1957 C1954 1.499 . S
C1957 C1958 1.373 . S
C1957 C1959 1.389 . S
C1958 H1931 0.950 . S
C1958 C1944 1.377 . S
C1958 C1957 1.373 . S
C1959 C1943 1.377 . S
C1959 C1957 1.389 . S
C1959 C1960 1.524 . S
C1960 C1959 1.524 . S
C1960 C1961 1.397 . S
C1960 C1965 1.363 . S
C1961 H1932 0.950 . S
C1961 C1960 1.397 . S
C1961 C1962 1.334 . S
C1962 H1933 0.950 . S
C1962 C1961 1.334 . S
C1962 C1963 1.287 . S
C1963 C1962 1.287 . S
C1963 C1964 1.524 . S
C1963 H1966 0.999 . S
C1964 H1934 0.950 . S
C1964 C1963 1.524 . S
C1964 C1965 1.415 . S
C1965 H1935 0.950 . S
C1965 C1960 1.363 . S
C1965 C1964 1.415 . S
H1966 C1963 0.999 . S
H1967 C1948 0.913 1_455 S
C387 C246 2.163 . S
C402 C16 2.163 . S
C437 N35 2.053 . S
C452 N265 2.053 . S
C487 C200 2.163 . S
C502 C62 2.163 . S
C537 N219 2.053 . S
C552 N81 2.053 . S
C587 C108 2.163 . S
C602 C338 2.163 . S
C637 N357 2.053 . S
C652 N127 2.054 . S
C687 C154 2.163 . S
C702 C292 2.163 . S
C737 N311 2.054 . S
C752 N173 2.053 . S
C787 C237 1.130 . S
C802 C7 1.130 . S
C837 N25 0.901 . S
C852 N255 0.900 . S
C887 C53 1.129 . S
C902 C191 1.128 . S
C937 N71 0.900 . S
C952 N209 0.899 . S
C987 C99 1.129 . S
C1002 C329 1.129 . S
C1037 N117 0.901 . S
C1052 N347 0.900 . S
C1087 C283 1.129 . S
C1102 C145 1.129 . S
C1137 N301 0.899 . S
C1152 N163 0.899 . S
C1187 N2 1.631 . S
C1202 N140 1.631 . S
C1237 C30 1.661 . S
C1252 C168 1.662 . S
C1287 N48 1.632 . S
C1302 N94 1.632 . S
C1337 C76 1.661 . S
C1352 C122 1.661 . S
C1387 N186 1.633 . S
C1402 N324 1.632 . S
C1437 C352 1.661 . S
C1452 C214 1.661 . S
C1487 N232 1.633 . S
C1502 N278 1.633 . S
C1537 C306 1.662 . S
C1552 C260 1.661 . S
C1587 N12 1.709 . S
C1602 C361 1.693 . S
C1637 N288 1.708 . S
C1652 C39 1.693 . S
C1687 C315 1.693 . S
C1702 N58 1.709 . S
C1737 N334 1.708 . S
C1752 C85 1.693 . S
C1787 C223 1.693 . S
C1802 N104 1.709 . S
C1837 N242 1.709 . S
C1852 C131 1.692 . S
C1887 N150 1.709 . S
C1902 C269 1.693 . S
C1937 C177 1.693 . S
C1952 N196 1.709 . S
