# Generated by pormake.
# Topology deh, (3)-cn, num edge types: 1
# Building blocks:
#     Node 0, Type 0, BuildingBlock: WUSLED_clean_sbu_0, # of connection points: 3
#     Node 1, Type 0, BuildingBlock: WUSLED_clean_sbu_0, # of connection points: 3
#     Node 2, Type 0, BuildingBlock: WUSLED_clean_sbu_0, # of connection points: 3
#     Node 3, Type 0, BuildingBlock: WUSLED_clean_sbu_0, # of connection points: 3
#     Node 4, Type 0, BuildingBlock: WUSLED_clean_sbu_0, # of connection points: 3
#     Node 5, Type 0, BuildingBlock: WUSLED_clean_sbu_0, # of connection points: 3
#     Node 6, Type 0, BuildingBlock: WUSLED_clean_sbu_0, # of connection points: 3
#     Node 7, Type 0, BuildingBlock: WUSLED_clean_sbu_0, # of connection points: 3
#     Node 8, Type 0, BuildingBlock: WUSLED_clean_sbu_0, # of connection points: 3
#     Node 9, Type 0, BuildingBlock: WUSLED_clean_sbu_0, # of connection points: 3
#     Node 10, Type 0, BuildingBlock: WUSLED_clean_sbu_0, # of connection points: 3
#     Node 11, Type 0, BuildingBlock: WUSLED_clean_sbu_0, # of connection points: 3
#     Node 12, Type 0, BuildingBlock: WUSLED_clean_sbu_0, # of connection points: 3
#     Node 13, Type 0, BuildingBlock: WUSLED_clean_sbu_0, # of connection points: 3
#     Node 14, Type 0, BuildingBlock: WUSLED_clean_sbu_0, # of connection points: 3
#     Node 15, Type 0, BuildingBlock: WUSLED_clean_sbu_0, # of connection points: 3
#     Node 16, Type 0, BuildingBlock: WUSLED_clean_sbu_0, # of connection points: 3
#     Node 17, Type 0, BuildingBlock: WUSLED_clean_sbu_0, # of connection points: 3
#     Node 18, Type 0, BuildingBlock: WUSLED_clean_sbu_0, # of connection points: 3
#     Node 19, Type 0, BuildingBlock: WUSLED_clean_sbu_0, # of connection points: 3
#     Node 20, Type 0, BuildingBlock: WUSLED_clean_sbu_0, # of connection points: 3
#     Node 21, Type 0, BuildingBlock: WUSLED_clean_sbu_0, # of connection points: 3
#     Node 22, Type 0, BuildingBlock: WUSLED_clean_sbu_0, # of connection points: 3
#     Node 23, Type 0, BuildingBlock: WUSLED_clean_sbu_0, # of connection points: 3
#     Node 24, Type 0, BuildingBlock: WUSLED_clean_sbu_0, # of connection points: 3
#     Node 25, Type 0, BuildingBlock: WUSLED_clean_sbu_0, # of connection points: 3
#     Node 26, Type 0, BuildingBlock: WUSLED_clean_sbu_0, # of connection points: 3
#     Node 27, Type 0, BuildingBlock: WUSLED_clean_sbu_0, # of connection points: 3
#     Node 28, Type 0, BuildingBlock: WUSLED_clean_sbu_0, # of connection points: 3
#     Node 29, Type 0, BuildingBlock: WUSLED_clean_sbu_0, # of connection points: 3
#     Node 30, Type 0, BuildingBlock: WUSLED_clean_sbu_0, # of connection points: 3
#     Node 31, Type 0, BuildingBlock: WUSLED_clean_sbu_0, # of connection points: 3
#     Edge 32, Type (0, 0), BuildingBlock: KIFKEQ_clean_linker_1, # of connection points: 2
#     Edge 33, Type (0, 0), BuildingBlock: KIFKEQ_clean_linker_1, # of connection points: 2
#     Edge 34, Type (0, 0), BuildingBlock: KIFKEQ_clean_linker_1, # of connection points: 2
#     Edge 35, Type (0, 0), BuildingBlock: KIFKEQ_clean_linker_1, # of connection points: 2
#     Edge 36, Type (0, 0), BuildingBlock: KIFKEQ_clean_linker_1, # of connection points: 2
#     Edge 37, Type (0, 0), BuildingBlock: KIFKEQ_clean_linker_1, # of connection points: 2
#     Edge 38, Type (0, 0), BuildingBlock: KIFKEQ_clean_linker_1, # of connection points: 2
#     Edge 39, Type (0, 0), BuildingBlock: KIFKEQ_clean_linker_1, # of connection points: 2
#     Edge 40, Type (0, 0), BuildingBlock: KIFKEQ_clean_linker_1, # of connection points: 2
#     Edge 41, Type (0, 0), BuildingBlock: KIFKEQ_clean_linker_1, # of connection points: 2
#     Edge 42, Type (0, 0), BuildingBlock: KIFKEQ_clean_linker_1, # of connection points: 2
#     Edge 43, Type (0, 0), BuildingBlock: KIFKEQ_clean_linker_1, # of connection points: 2
#     Edge 44, Type (0, 0), BuildingBlock: KIFKEQ_clean_linker_1, # of connection points: 2
#     Edge 45, Type (0, 0), BuildingBlock: KIFKEQ_clean_linker_1, # of connection points: 2
#     Edge 46, Type (0, 0), BuildingBlock: KIFKEQ_clean_linker_1, # of connection points: 2
#     Edge 47, Type (0, 0), BuildingBlock: KIFKEQ_clean_linker_1, # of connection points: 2
#     Edge 48, Type (0, 0), BuildingBlock: KIFKEQ_clean_linker_1, # of connection points: 2
#     Edge 49, Type (0, 0), BuildingBlock: KIFKEQ_clean_linker_1, # of connection points: 2
#     Edge 50, Type (0, 0), BuildingBlock: KIFKEQ_clean_linker_1, # of connection points: 2
#     Edge 51, Type (0, 0), BuildingBlock: KIFKEQ_clean_linker_1, # of connection points: 2
#     Edge 52, Type (0, 0), BuildingBlock: KIFKEQ_clean_linker_1, # of connection points: 2
#     Edge 53, Type (0, 0), BuildingBlock: KIFKEQ_clean_linker_1, # of connection points: 2
#     Edge 54, Type (0, 0), BuildingBlock: KIFKEQ_clean_linker_1, # of connection points: 2
#     Edge 55, Type (0, 0), BuildingBlock: KIFKEQ_clean_linker_1, # of connection points: 2
#     Edge 56, Type (0, 0), BuildingBlock: KIFKEQ_clean_linker_1, # of connection points: 2
#     Edge 57, Type (0, 0), BuildingBlock: KIFKEQ_clean_linker_1, # of connection points: 2
#     Edge 58, Type (0, 0), BuildingBlock: KIFKEQ_clean_linker_1, # of connection points: 2
#     Edge 59, Type (0, 0), BuildingBlock: KIFKEQ_clean_linker_1, # of connection points: 2
#     Edge 60, Type (0, 0), BuildingBlock: KIFKEQ_clean_linker_1, # of connection points: 2
#     Edge 61, Type (0, 0), BuildingBlock: KIFKEQ_clean_linker_1, # of connection points: 2
#     Edge 62, Type (0, 0), BuildingBlock: KIFKEQ_clean_linker_1, # of connection points: 2
#     Edge 63, Type (0, 0), BuildingBlock: KIFKEQ_clean_linker_1, # of connection points: 2
#     Edge 64, Type (0, 0), BuildingBlock: KIFKEQ_clean_linker_1, # of connection points: 2
#     Edge 65, Type (0, 0), BuildingBlock: KIFKEQ_clean_linker_1, # of connection points: 2
#     Edge 66, Type (0, 0), BuildingBlock: KIFKEQ_clean_linker_1, # of connection points: 2
#     Edge 67, Type (0, 0), BuildingBlock: KIFKEQ_clean_linker_1, # of connection points: 2
#     Edge 68, Type (0, 0), BuildingBlock: KIFKEQ_clean_linker_1, # of connection points: 2
#     Edge 69, Type (0, 0), BuildingBlock: KIFKEQ_clean_linker_1, # of connection points: 2
#     Edge 70, Type (0, 0), BuildingBlock: KIFKEQ_clean_linker_1, # of connection points: 2
#     Edge 71, Type (0, 0), BuildingBlock: KIFKEQ_clean_linker_1, # of connection points: 2
#     Edge 72, Type (0, 0), BuildingBlock: KIFKEQ_clean_linker_1, # of connection points: 2
#     Edge 73, Type (0, 0), BuildingBlock: KIFKEQ_clean_linker_1, # of connection points: 2
#     Edge 74, Type (0, 0), BuildingBlock: KIFKEQ_clean_linker_1, # of connection points: 2
#     Edge 75, Type (0, 0), BuildingBlock: KIFKEQ_clean_linker_1, # of connection points: 2
#     Edge 76, Type (0, 0), BuildingBlock: KIFKEQ_clean_linker_1, # of connection points: 2
#     Edge 77, Type (0, 0), BuildingBlock: KIFKEQ_clean_linker_1, # of connection points: 2
#     Edge 78, Type (0, 0), BuildingBlock: KIFKEQ_clean_linker_1, # of connection points: 2
#     Edge 79, Type (0, 0), BuildingBlock: KIFKEQ_clean_linker_1, # of connection points: 2
# Relax obj value: 0.006
# Max RMSD: 0.035
# Mean RMSD: 0.011
data_MOF--net-deh--node1-WUSLED_clean_sbu_0--edge1-KIFKEQ_clean_linker_1
_symmetry_space_group_name_H-M    P1
_symmetry_Int_Tables_number       1
_symmetry_cell_setting            triclinic
loop_
_symmetry_equiv_pos_as_xyz
'x, y, z'
_cell_length_a     73.145626
_cell_length_b     75.395584
_cell_length_c     159.18707
_cell_angle_alpha  90.039764
_cell_angle_beta   90.02205
_cell_angle_gamma 90.006946
loop_
_atom_site_label
_atom_site_type_symbol
_atom_site_fract_x
_atom_site_fract_y
_atom_site_fract_z
_atom_type_partial_charge
C0 C 0.11139 0.05411 0.30277 0.0
C1 C 0.10244 0.05022 0.31035 0.0
C2 C 0.07282 0.05384 0.30353 0.0
C3 C 0.08331 0.05001 0.31072 0.0
C4 C 0.08191 0.05775 0.29596 0.0
C5 C 0.10101 0.05786 0.2956 0.0
U6 U 0.15814 0.05661 0.3133 0.0
O7 O 0.18384 0.04281 0.31036 0.0
O8 O 0.18262 0.07185 0.30974 0.0
C9 C 0.19228 0.05752 0.30819 0.0
C10 C 0.13147 0.05462 0.30229 0.0
C11 C 0.20162 0.05714 0.3 0.0
C12 C 0.20147 0.05176 0.28494 0.0
C13 C 0.19233 0.0521 0.29267 0.0
C14 C 0.22923 0.06167 0.29179 0.0
C15 C 0.22004 0.05656 0.2844 0.0
C16 C 0.2201 0.06193 0.29951 0.0
C17 C 0.15939 0.05934 0.33751 0.0
C18 C 0.1856 0.06768 0.34605 0.0
C19 C 0.15797 0.05692 0.35271 0.0
C20 C 0.14982 0.05489 0.34483 0.0
C21 C 0.17591 0.06349 0.35343 0.0
C22 C 0.17742 0.06559 0.33814 0.0
C23 C 0.14999 0.05795 0.32936 0.0
O24 O 0.13899 0.06967 0.30461 0.0
O25 O 0.14002 0.04063 0.30527 0.0
O26 O 0.15227 0.043 0.32524 0.0
O27 O 0.15083 0.07204 0.32452 0.0
H28 H 0.11025 0.04743 0.31599 0.0
H29 H 0.07674 0.04715 0.31666 0.0
H30 H 0.07426 0.06054 0.29029 0.0
H31 H 0.1077 0.06091 0.2897 0.0
H32 H 0.19393 0.04797 0.27936 0.0
H33 H 0.17801 0.04846 0.29292 0.0
H34 H 0.24356 0.06524 0.29163 0.0
H35 H 0.22749 0.06584 0.30511 0.0
H36 H 0.1995 0.07259 0.34638 0.0
H37 H 0.15 0.05381 0.35825 0.0
H38 H 0.13587 0.0501 0.34445 0.0
H39 H 0.18505 0.06904 0.33255 0.0
C40 C 0.2345 0.85811 0.54902 0.0
C41 C 0.2373 0.84972 0.55678 0.0
C42 C 0.23654 0.82073 0.54996 0.0
C43 C 0.23836 0.8312 0.55725 0.0
C44 C 0.23374 0.82929 0.5422 0.0
C45 C 0.23275 0.8478 0.54175 0.0
U46 U 0.22812 0.90296 0.55955 0.0
O47 O 0.24088 0.92885 0.55708 0.0
O48 O 0.21114 0.92582 0.55587 0.0
C49 C 0.22538 0.93619 0.55474 0.0
C50 C 0.23286 0.87754 0.54848 0.0
C51 C 0.22572 0.94625 0.54679 0.0
C52 C 0.23671 0.95083 0.53252 0.0
C53 C 0.23635 0.94075 0.53991 0.0
C54 C 0.2156 0.97181 0.53873 0.0
C55 C 0.22633 0.9665 0.53184 0.0
C56 C 0.21534 0.9618 0.54612 0.0
C57 C 0.22296 0.90277 0.58386 0.0
C58 C 0.20356 0.91763 0.59412 0.0
C59 C 0.23281 0.90567 0.5984 0.0
C60 C 0.23602 0.89995 0.59018 0.0
C61 C 0.21636 0.91423 0.60053 0.0
C62 C 0.20681 0.91196 0.58588 0.0
C63 C 0.22573 0.89448 0.57552 0.0
O64 O 0.21672 0.88393 0.55046 0.0
O65 O 0.24643 0.88663 0.55177 0.0
O66 O 0.24137 0.89774 0.57175 0.0
O67 O 0.2117 0.89436 0.57035 0.0
H68 H 0.23862 0.85749 0.56248 0.0
H69 H 0.24074 0.82512 0.56331 0.0
H70 H 0.23198 0.82168 0.53649 0.0
H71 H 0.23043 0.85405 0.53571 0.0
H72 H 0.24494 0.94625 0.5273 0.0
H73 H 0.24439 0.92871 0.54027 0.0
H74 H 0.20762 0.9839 0.53847 0.0
H75 H 0.20708 0.96629 0.55136 0.0
H76 H 0.19067 0.92403 0.59554 0.0
H77 H 0.24312 0.90309 0.60314 0.0
H78 H 0.24855 0.89286 0.5888 0.0
H79 H 0.19641 0.9143 0.58116 0.0
C80 C 0.39616 0.95803 0.80291 0.0
C81 C 0.40491 0.96164 0.81057 0.0
C82 C 0.43471 0.95969 0.80376 0.0
C83 C 0.42401 0.96251 0.81099 0.0
C84 C 0.4258 0.956 0.79611 0.0
C85 C 0.40671 0.9552 0.7957 0.0
U86 U 0.34959 0.95398 0.81341 0.0
O87 O 0.32342 0.967 0.81055 0.0
O88 O 0.32559 0.93802 0.80985 0.0
C89 C 0.31545 0.95206 0.80836 0.0
C90 C 0.37612 0.95687 0.80239 0.0
C91 C 0.30601 0.95224 0.80019 0.0
C92 C 0.30583 0.95775 0.78514 0.0
C93 C 0.31507 0.9576 0.79285 0.0
C94 C 0.27845 0.94701 0.79202 0.0
C95 C 0.2874 0.95243 0.78463 0.0
C96 C 0.28768 0.94693 0.79972 0.0
C97 C 0.34888 0.95103 0.83765 0.0
C98 C 0.32325 0.94177 0.84634 0.0
C99 C 0.35082 0.95311 0.85285 0.0
C100 C 0.35859 0.95558 0.84492 0.0
C101 C 0.33312 0.94601 0.85368 0.0
C102 C 0.33107 0.94428 0.83838 0.0
C103 C 0.35799 0.95278 0.82946 0.0
O104 O 0.36909 0.94158 0.80467 0.0
O105 O 0.3671 0.97057 0.80539 0.0
O106 O 0.35512 0.96768 0.82538 0.0
O107 O 0.35752 0.9387 0.82458 0.0
H108 H 0.39696 0.96381 0.81622 0.0
H109 H 0.43036 0.96558 0.81696 0.0
H110 H 0.43357 0.95345 0.79045 0.0
H111 H 0.40019 0.95226 0.78975 0.0
H112 H 0.31319 0.9618 0.77955 0.0
H113 H 0.32927 0.96164 0.79308 0.0
H114 H 0.26423 0.94304 0.79188 0.0
H115 H 0.28046 0.94277 0.80533 0.0
H116 H 0.30952 0.93646 0.84674 0.0
H117 H 0.35893 0.95627 0.85835 0.0
H118 H 0.37238 0.96074 0.84448 0.0
H119 H 0.32333 0.94075 0.83282 0.0
C120 C 0.27206 0.15186 0.04968 0.0
C121 C 0.26686 0.16063 0.05709 0.0
C122 C 0.27125 0.1893 0.05031 0.0
C123 C 0.26636 0.17919 0.05739 0.0
C124 C 0.27647 0.18042 0.04291 0.0
C125 C 0.27683 0.16187 0.0426 0.0
U126 U 0.2773 0.10747 0.06071 0.0
O127 O 0.26372 0.0818 0.05864 0.0
O128 O 0.29349 0.08392 0.05728 0.0
C129 C 0.27895 0.07386 0.05638 0.0
C130 C 0.27313 0.13236 0.04934 0.0
C131 C 0.27809 0.06344 0.04855 0.0
C132 C 0.27051 0.06053 0.03373 0.0
C133 C 0.27136 0.07079 0.04107 0.0
C134 C 0.28326 0.03554 0.04128 0.0
C135 C 0.27641 0.04273 0.03374 0.0
C136 C 0.28406 0.04579 0.04859 0.0
C137 C 0.2831 0.10897 0.08483 0.0
C138 C 0.2927 0.08443 0.09369 0.0
C139 C 0.28421 0.11252 0.09998 0.0
C140 C 0.28055 0.11941 0.09201 0.0
C141 C 0.29051 0.095 0.10093 0.0
C142 C 0.28901 0.09136 0.0857 0.0
C143 C 0.28027 0.11707 0.07652 0.0
O144 O 0.28912 0.12563 0.05134 0.0
O145 O 0.25935 0.12376 0.05275 0.0
O146 O 0.2645 0.11382 0.07287 0.0
O147 O 0.29421 0.11623 0.07133 0.0
H148 H 0.26332 0.15314 0.06267 0.0
H149 H 0.26251 0.18562 0.06321 0.0
H150 H 0.28013 0.18781 0.03733 0.0
H151 H 0.28094 0.15533 0.03684 0.0
H152 H 0.26498 0.06646 0.02808 0.0
H153 H 0.26669 0.08443 0.04091 0.0
H154 H 0.28823 0.02202 0.04151 0.0
H155 H 0.28939 0.03991 0.0543 0.0
H156 H 0.29733 0.07083 0.0942 0.0
H157 H 0.28263 0.12113 0.10538 0.0
H158 H 0.27607 0.13306 0.09144 0.0
H159 H 0.291 0.0831 0.08021 0.0
C160 C 0.11108 0.955 0.71066 0.0
C161 C 0.10204 0.95823 0.70303 0.0
C162 C 0.07251 0.95558 0.71002 0.0
C163 C 0.08291 0.9586 0.70272 0.0
C164 C 0.08169 0.95235 0.71763 0.0
C165 C 0.10079 0.95208 0.71794 0.0
U166 U 0.15763 0.94998 0.70014 0.0
O167 O 0.18373 0.96355 0.7026 0.0
O168 O 0.18174 0.9347 0.70415 0.0
C169 C 0.19181 0.94897 0.70521 0.0
C170 C 0.13116 0.95424 0.71109 0.0
C171 C 0.20125 0.95022 0.71336 0.0
C172 C 0.20097 0.95609 0.72838 0.0
C173 C 0.19182 0.95523 0.72066 0.0
C174 C 0.22903 0.94688 0.72158 0.0
C175 C 0.21971 0.95189 0.72895 0.0
C176 C 0.21988 0.94607 0.71387 0.0
C177 C 0.15838 0.94291 0.67605 0.0
C178 C 0.18295 0.94805 0.66603 0.0
C179 C 0.15755 0.92901 0.66228 0.0
C180 C 0.14973 0.93193 0.67016 0.0
C181 C 0.17423 0.93707 0.6601 0.0
C182 C 0.17513 0.9509 0.67396 0.0
C183 C 0.1493 0.94604 0.68419 0.0
O184 O 0.13837 0.93872 0.70932 0.0
O185 O 0.13993 0.96755 0.70759 0.0
O186 O 0.15194 0.9616 0.68774 0.0
O187 O 0.14975 0.93279 0.68954 0.0
H188 H 0.10978 0.96037 0.69731 0.0
H189 H 0.07626 0.96094 0.69674 0.0
H190 H 0.07409 0.95019 0.72338 0.0
H191 H 0.10754 0.94955 0.72388 0.0
H192 H 0.1934 0.96019 0.7339 0.0
H193 H 0.1774 0.95847 0.72038 0.0
H194 H 0.24335 0.94328 0.72178 0.0
H195 H 0.22734 0.94207 0.7083 0.0
H196 H 0.19589 0.95431 0.66457 0.0
H197 H 0.15033 0.92069 0.65783 0.0
H198 H 0.13676 0.92571 0.67164 0.0
H199 H 0.18211 0.95938 0.67842 0.0
C200 C 0.2719 0.85864 0.96408 0.0
C201 C 0.27858 0.84961 0.957 0.0
C202 C 0.2701 0.82125 0.96323 0.0
C203 C 0.27775 0.83109 0.95659 0.0
C204 C 0.2632 0.83041 0.97026 0.0
C205 C 0.26414 0.84894 0.97068 0.0
U206 U 0.27981 0.90321 0.95364 0.0
O207 O 0.26625 0.92902 0.95539 0.0
O208 O 0.29566 0.92642 0.95778 0.0
C209 C 0.28119 0.9367 0.9582 0.0
C210 C 0.27308 0.8781 0.96463 0.0
C211 C 0.27926 0.947 0.96601 0.0
C212 C 0.2732 0.94891 0.98101 0.0
C213 C 0.27457 0.93883 0.97363 0.0
C214 C 0.28117 0.97537 0.97321 0.0
C215 C 0.27652 0.96732 0.9809 0.0
C216 C 0.28251 0.96531 0.96586 0.0
C217 C 0.29026 0.90203 0.9297 0.0
C218 C 0.28245 0.92006 0.91751 0.0
C219 C 0.30978 0.90198 0.91733 0.0
C220 C 0.30594 0.89614 0.92546 0.0
C221 C 0.29793 0.91377 0.91318 0.0
C222 C 0.27862 0.91423 0.92568 0.0
C223 C 0.28573 0.89409 0.93794 0.0
O224 O 0.28945 0.88478 0.96338 0.0
O225 O 0.26013 0.88684 0.96068 0.0
O226 O 0.26934 0.8972 0.941 0.0
O227 O 0.29867 0.89451 0.94367 0.0
H228 H 0.28451 0.8569 0.95181 0.0
H229 H 0.28295 0.82448 0.95105 0.0
H230 H 0.2574 0.82324 0.97551 0.0
H231 H 0.2589 0.85569 0.97619 0.0
H232 H 0.26941 0.94229 0.98679 0.0
H233 H 0.27201 0.92469 0.97387 0.0
H234 H 0.28412 0.98943 0.97289 0.0
H235 H 0.28625 0.97182 0.96004 0.0
H236 H 0.27296 0.92905 0.91449 0.0
H237 H 0.32201 0.89712 0.91426 0.0
H238 H 0.31509 0.88669 0.9284 0.0
H239 H 0.26636 0.91898 0.92876 0.0
C240 C 0.3959 0.05019 0.21026 0.0
C241 C 0.40513 0.05579 0.20299 0.0
C242 C 0.43443 0.04867 0.20947 0.0
C243 C 0.42424 0.0551 0.20262 0.0
C244 C 0.42506 0.04288 0.21669 0.0
C245 C 0.40597 0.04367 0.21707 0.0
U246 U 0.34929 0.05435 0.19981 0.0
O247 O 0.32319 0.04111 0.2026 0.0
O248 O 0.3252 0.07009 0.20344 0.0
C249 C 0.31514 0.05596 0.20486 0.0
C250 C 0.37584 0.05119 0.21081 0.0
C251 C 0.30576 0.05558 0.21304 0.0
C252 C 0.3059 0.05033 0.22811 0.0
C253 C 0.31504 0.05058 0.22038 0.0
C254 C 0.27816 0.06021 0.22124 0.0
C255 C 0.28732 0.05514 0.22864 0.0
C256 C 0.2873 0.06041 0.21352 0.0
C257 C 0.34885 0.05774 0.17553 0.0
C258 C 0.32449 0.06875 0.16652 0.0
C259 C 0.35069 0.05395 0.1604 0.0
C260 C 0.35804 0.05144 0.16841 0.0
C261 C 0.33396 0.06288 0.15933 0.0
C262 C 0.33189 0.06621 0.17456 0.0
C263 C 0.35774 0.05594 0.18378 0.0
O264 O 0.36863 0.0665 0.20867 0.0
O265 O 0.36696 0.03753 0.2077 0.0
O266 O 0.35493 0.04093 0.18778 0.0
O267 O 0.35715 0.06992 0.18872 0.0
H268 H 0.39756 0.06074 0.19763 0.0
H269 H 0.43102 0.05945 0.19693 0.0
H270 H 0.4325 0.03803 0.2221 0.0
H271 H 0.39906 0.03929 0.22272 0.0
H272 H 0.31334 0.04615 0.23365 0.0
H273 H 0.32933 0.04683 0.22012 0.0
H274 H 0.26397 0.06427 0.22142 0.0
H275 H 0.27995 0.06441 0.20792 0.0
H276 H 0.31164 0.07577 0.16592 0.0
H277 H 0.35818 0.04895 0.15503 0.0
H278 H 0.37111 0.0448 0.16904 0.0
H279 H 0.32455 0.07114 0.17999 0.0
C280 C 0.23544 0.15117 0.46364 0.0
C281 C 0.23824 0.16007 0.45601 0.0
C282 C 0.23724 0.18861 0.46323 0.0
C283 C 0.23918 0.17861 0.45581 0.0
C284 C 0.23443 0.17955 0.47086 0.0
C285 C 0.23355 0.16101 0.47105 0.0
U286 U 0.22979 0.10705 0.45241 0.0
O287 O 0.24295 0.08118 0.4545 0.0
O288 O 0.21316 0.08369 0.45561 0.0
C289 C 0.22751 0.0734 0.45658 0.0
C290 C 0.23403 0.1317 0.4639 0.0
C291 C 0.2279 0.06285 0.46437 0.0
C292 C 0.23229 0.06028 0.47946 0.0
C293 C 0.23215 0.0706 0.47214 0.0
C294 C 0.2239 0.03441 0.47129 0.0
C295 C 0.22808 0.04205 0.47913 0.0
C296 C 0.22382 0.04472 0.46399 0.0
C297 C 0.2248 0.10874 0.42827 0.0
C298 C 0.21379 0.0849 0.4193 0.0
C299 C 0.22581 0.11181 0.41309 0.0
C300 C 0.22921 0.11862 0.4211 0.0
C301 C 0.21788 0.09494 0.41207 0.0
C302 C 0.21726 0.09173 0.42733 0.0
C303 C 0.22748 0.11681 0.4366 0.0
O304 O 0.218 0.12525 0.46177 0.0
O305 O 0.24777 0.123 0.46053 0.0
O306 O 0.24309 0.11336 0.44034 0.0
O307 O 0.21337 0.11619 0.4417 0.0
H308 H 0.23967 0.15267 0.45021 0.0
H309 H 0.24158 0.18509 0.44984 0.0
H310 H 0.23258 0.18678 0.47668 0.0
H311 H 0.23124 0.15436 0.47699 0.0
H312 H 0.23539 0.06662 0.4854 0.0
H313 H 0.23528 0.08463 0.47255 0.0
H314 H 0.22086 0.02039 0.47078 0.0
H315 H 0.22055 0.03851 0.45804 0.0
H316 H 0.20788 0.07178 0.41874 0.0
H317 H 0.22889 0.12002 0.40769 0.0
H318 H 0.23498 0.1318 0.42171 0.0
H319 H 0.21382 0.08387 0.4328 0.0
C320 C 0.89527 0.95765 0.71065 0.0
C321 C 0.90452 0.95164 0.70347 0.0
C322 C 0.93388 0.95808 0.71008 0.0
C323 C 0.92365 0.95181 0.70319 0.0
C324 C 0.92446 0.96438 0.7172 0.0
C325 C 0.90535 0.96413 0.71748 0.0
U326 U 0.84858 0.95443 0.70014 0.0
O327 O 0.82417 0.93917 0.70377 0.0
O328 O 0.82277 0.96818 0.70296 0.0
C329 C 0.81442 0.95349 0.70522 0.0
C330 C 0.87518 0.95708 0.71114 0.0
C331 C 0.80512 0.95406 0.71342 0.0
C332 C 0.80547 0.95942 0.72849 0.0
C333 C 0.81453 0.95901 0.72074 0.0
C334 C 0.77754 0.94981 0.72169 0.0
C335 C 0.78684 0.95483 0.72907 0.0
C336 C 0.7866 0.94945 0.71395 0.0
C337 C 0.84809 0.95102 0.67583 0.0
C338 C 0.82399 0.93985 0.66671 0.0
C339 C 0.84993 0.95532 0.66074 0.0
C340 C 0.8572 0.95771 0.66878 0.0
C341 C 0.83339 0.94611 0.65958 0.0
C342 C 0.83129 0.94228 0.67478 0.0
C343 C 0.85696 0.95265 0.68411 0.0
O344 O 0.86663 0.97091 0.70802 0.0
O345 O 0.86765 0.94191 0.709 0.0
O346 O 0.85608 0.93869 0.68904 0.0
O347 O 0.85448 0.96771 0.68811 0.0
H348 H 0.89695 0.94663 0.69812 0.0
H349 H 0.9304 0.94668 0.69765 0.0
H350 H 0.93185 0.96961 0.72255 0.0
H351 H 0.89843 0.96895 0.72305 0.0
H352 H 0.81303 0.96355 0.734 0.0
H353 H 0.82886 0.96259 0.72045 0.0
H354 H 0.7633 0.9459 0.7219 0.0
H355 H 0.77914 0.94549 0.70837 0.0
H356 H 0.81129 0.93261 0.66605 0.0
H357 H 0.85736 0.96061 0.65542 0.0
H358 H 0.87014 0.96456 0.66947 0.0
H359 H 0.82403 0.93703 0.68016 0.0
C360 C 0.77259 0.15078 0.46415 0.0
C361 C 0.77905 0.15988 0.45706 0.0
C362 C 0.77092 0.18818 0.46346 0.0
C363 C 0.77829 0.17841 0.45673 0.0
C364 C 0.76422 0.17895 0.4705 0.0
C365 C 0.76509 0.16041 0.47084 0.0
U366 U 0.77828 0.10618 0.45339 0.0
O367 O 0.79447 0.08274 0.45696 0.0
O368 O 0.76472 0.08053 0.45553 0.0
C369 C 0.77994 0.07267 0.45787 0.0
C370 C 0.77367 0.1313 0.46462 0.0
C371 C 0.77903 0.06242 0.46574 0.0
C372 C 0.77175 0.05995 0.4806 0.0
C373 C 0.77249 0.07001 0.47321 0.0
C374 C 0.78419 0.03469 0.47314 0.0
C375 C 0.77757 0.04212 0.48066 0.0
C376 C 0.78489 0.04474 0.46576 0.0
C377 C 0.78426 0.10735 0.42923 0.0
C378 C 0.79588 0.08379 0.42026 0.0
C379 C 0.78272 0.11019 0.41405 0.0
C380 C 0.7793 0.11698 0.42207 0.0
C381 C 0.79122 0.09358 0.41304 0.0
C382 C 0.7924 0.0906 0.4283 0.0
C383 C 0.78143 0.11547 0.43755 0.0
O384 O 0.76 0.12269 0.46113 0.0
O385 O 0.78971 0.12446 0.46278 0.0
O386 O 0.79533 0.11473 0.44277 0.0
O387 O 0.76562 0.11229 0.44116 0.0
H388 H 0.78475 0.15265 0.45179 0.0
H389 H 0.78335 0.18509 0.45117 0.0
H390 H 0.75862 0.18607 0.47582 0.0
H391 H 0.76001 0.1536 0.47636 0.0
H392 H 0.76639 0.06607 0.48624 0.0
H393 H 0.76793 0.08368 0.47331 0.0
H394 H 0.7891 0.02114 0.47296 0.0
H395 H 0.79008 0.03869 0.46007 0.0
H396 H 0.80226 0.07088 0.41971 0.0
H397 H 0.77919 0.11821 0.40865 0.0
H398 H 0.77307 0.12995 0.42267 0.0
H399 H 0.79626 0.08293 0.43378 0.0
C400 C 0.61158 0.05075 0.21091 0.0
C401 C 0.60276 0.04706 0.20328 0.0
C402 C 0.57301 0.04933 0.21012 0.0
C403 C 0.58366 0.04632 0.20289 0.0
C404 C 0.582 0.05311 0.21775 0.0
C405 C 0.60109 0.05379 0.21813 0.0
U406 U 0.65815 0.05424 0.20036 0.0
O407 O 0.68236 0.06995 0.2039 0.0
O408 O 0.68417 0.04094 0.20323 0.0
C409 C 0.69231 0.05579 0.20542 0.0
C410 C 0.63164 0.05173 0.21141 0.0
C411 C 0.70164 0.05552 0.21362 0.0
C412 C 0.70148 0.05014 0.22868 0.0
C413 C 0.69236 0.05044 0.22095 0.0
C414 C 0.72921 0.06017 0.22186 0.0
C415 C 0.72005 0.05498 0.22924 0.0
C416 C 0.72008 0.06042 0.21413 0.0
C417 C 0.65853 0.0568 0.17605 0.0
C418 C 0.68265 0.0678 0.16691 0.0
C419 C 0.65659 0.05245 0.16096 0.0
C420 C 0.64936 0.05012 0.169 0.0
C421 C 0.67317 0.06157 0.15978 0.0
C422 C 0.67538 0.06544 0.17498 0.0
C423 C 0.64968 0.05531 0.18433 0.0
O424 O 0.64051 0.03792 0.20844 0.0
O425 O 0.6388 0.06693 0.20908 0.0
O426 O 0.65039 0.06946 0.18916 0.0
O427 O 0.65239 0.04043 0.18844 0.0
H428 H 0.61066 0.04473 0.19763 0.0
H429 H 0.57724 0.04318 0.19694 0.0
H430 H 0.57428 0.05581 0.22341 0.0
H431 H 0.60767 0.05679 0.22406 0.0
H432 H 0.69404 0.04587 0.2342 0.0
H433 H 0.67809 0.04663 0.22067 0.0
H434 H 0.74339 0.06427 0.22206 0.0
H435 H 0.72744 0.06448 0.20855 0.0
H436 H 0.69539 0.07497 0.16623 0.0
H437 H 0.6491 0.04718 0.15564 0.0
H438 H 0.63638 0.04335 0.1697 0.0
H439 H 0.6827 0.07067 0.18036 0.0
C440 C 0.73471 0.85773 0.96379 0.0
C441 C 0.72878 0.84879 0.95655 0.0
C442 C 0.73638 0.82034 0.96292 0.0
C443 C 0.72954 0.83027 0.95613 0.0
C444 C 0.74257 0.82941 0.97012 0.0
C445 C 0.7417 0.84793 0.97055 0.0
U446 U 0.72904 0.90262 0.95331 0.0
O447 O 0.71248 0.9258 0.95695 0.0
O448 O 0.74227 0.92832 0.95574 0.0
C449 C 0.7269 0.93593 0.95807 0.0
C450 C 0.73351 0.87719 0.96438 0.0
C451 C 0.72737 0.94605 0.96601 0.0
C452 C 0.73857 0.95077 0.98025 0.0
C453 C 0.7382 0.94069 0.97285 0.0
C454 C 0.7171 0.97151 0.97413 0.0
C455 C 0.728 0.96631 0.98098 0.0
C456 C 0.71683 0.9615 0.96673 0.0
C457 C 0.72367 0.90212 0.92911 0.0
C458 C 0.71207 0.92585 0.92025 0.0
C459 C 0.72537 0.89964 0.91392 0.0
C460 C 0.72874 0.89268 0.9219 0.0
C461 C 0.71683 0.91624 0.91298 0.0
C462 C 0.71549 0.91886 0.92826 0.0
C463 C 0.72639 0.89379 0.93738 0.0
O464 O 0.74722 0.88597 0.96104 0.0
O465 O 0.71748 0.88397 0.96249 0.0
O466 O 0.71236 0.89424 0.94253 0.0
O467 O 0.74207 0.89702 0.94111 0.0
H468 H 0.72347 0.85615 0.95124 0.0
H469 H 0.72489 0.82372 0.95046 0.0
H470 H 0.74775 0.82216 0.97548 0.0
H471 H 0.74636 0.85461 0.97619 0.0
H472 H 0.74695 0.94628 0.98544 0.0
H473 H 0.74637 0.92873 0.97247 0.0
H474 H 0.70896 0.9835 0.97443 0.0
H475 H 0.70841 0.96589 0.96153 0.0
H476 H 0.70566 0.93876 0.91975 0.0
H477 H 0.72899 0.89175 0.90848 0.0
H478 H 0.73501 0.8797 0.92244 0.0
H479 H 0.71154 0.92639 0.93377 0.0
C480 C 0.8956 0.05226 0.30332 0.0
C481 C 0.90492 0.05778 0.31057 0.0
C482 C 0.93421 0.05186 0.3038 0.0
C483 C 0.92405 0.05762 0.31081 0.0
C484 C 0.92471 0.04607 0.2966 0.0
C485 C 0.9056 0.0463 0.29637 0.0
U486 U 0.84902 0.05538 0.31394 0.0
O487 O 0.82455 0.07061 0.31035 0.0
O488 O 0.82321 0.0416 0.31115 0.0
C489 C 0.81482 0.05627 0.30891 0.0
C490 C 0.87551 0.05282 0.30288 0.0
C491 C 0.80544 0.05571 0.30072 0.0
C492 C 0.80568 0.05036 0.28565 0.0
C493 C 0.8148 0.05078 0.29339 0.0
C494 C 0.7778 0.05992 0.29249 0.0
C495 C 0.78704 0.05492 0.2851 0.0
C496 C 0.78692 0.06029 0.30022 0.0
C497 C 0.84837 0.05872 0.33817 0.0
C498 C 0.82226 0.06665 0.34685 0.0
C499 C 0.85039 0.05673 0.35337 0.0
C500 C 0.85832 0.05471 0.34544 0.0
C501 C 0.83231 0.06284 0.35419 0.0
C502 C 0.83023 0.06457 0.3389 0.0
C503 C 0.85748 0.05714 0.32997 0.0
O504 O 0.86701 0.03897 0.30602 0.0
O505 O 0.868 0.06797 0.30507 0.0
O506 O 0.85654 0.07111 0.32505 0.0
O507 O 0.85504 0.0421 0.32595 0.0
H508 H 0.8974 0.06238 0.31602 0.0
H509 H 0.93087 0.06234 0.31641 0.0
H510 H 0.93204 0.04125 0.29115 0.0
H511 H 0.89862 0.04188 0.29074 0.0
H512 H 0.8132 0.04625 0.28013 0.0
H513 H 0.82915 0.04722 0.29366 0.0
H514 H 0.76355 0.0638 0.2923 0.0
H515 H 0.77951 0.06423 0.30581 0.0
H516 H 0.80825 0.07121 0.34725 0.0
H517 H 0.85863 0.05393 0.35887 0.0
H518 H 0.87236 0.05023 0.345 0.0
H519 H 0.82231 0.06768 0.33334 0.0
C520 C 0.7348 0.15027 0.05009 0.0
C521 C 0.72829 0.15941 0.05717 0.0
C522 C 0.73625 0.18769 0.05072 0.0
C523 C 0.72894 0.17795 0.05747 0.0
C524 C 0.74299 0.17842 0.04369 0.0
C525 C 0.74223 0.15988 0.04338 0.0
U526 U 0.72921 0.10584 0.06096 0.0
O527 O 0.71306 0.08232 0.0575 0.0
O528 O 0.74282 0.08017 0.05889 0.0
C529 C 0.72759 0.07222 0.05663 0.0
C530 C 0.73381 0.13078 0.04966 0.0
C531 C 0.72841 0.06177 0.04882 0.0
C532 C 0.73291 0.05948 0.03372 0.0
C533 C 0.73253 0.0697 0.04108 0.0
C534 C 0.72507 0.03334 0.04179 0.0
C535 C 0.72907 0.04117 0.03398 0.0
C536 C 0.72475 0.04354 0.04912 0.0
C537 C 0.72289 0.10744 0.08508 0.0
C538 C 0.71345 0.08291 0.09398 0.0
C539 C 0.72162 0.11115 0.10022 0.0
C540 C 0.72526 0.11799 0.09224 0.0
C541 C 0.71552 0.09357 0.1012 0.0
C542 C 0.71713 0.0898 0.08598 0.0
C543 C 0.72589 0.11545 0.07677 0.0
O544 O 0.74749 0.12228 0.05319 0.0
O545 O 0.71779 0.12389 0.05149 0.0
O546 O 0.71206 0.11461 0.07151 0.0
O547 O 0.74173 0.11215 0.0732 0.0
H548 H 0.72264 0.1522 0.06246 0.0
H549 H 0.72386 0.18466 0.06302 0.0
H550 H 0.74855 0.18552 0.03836 0.0
H551 H 0.74734 0.15304 0.03787 0.0
H552 H 0.73586 0.06596 0.0278 0.0
H553 H 0.73533 0.08379 0.04072 0.0
H554 H 0.72231 0.01926 0.04225 0.0
H555 H 0.72158 0.03719 0.05505 0.0
H556 H 0.70897 0.06927 0.09452 0.0
H557 H 0.72308 0.11983 0.1056 0.0
H558 H 0.72963 0.13166 0.09165 0.0
H559 H 0.71528 0.08145 0.0805 0.0
C560 C 0.61181 0.95937 0.80367 0.0
C561 C 0.60262 0.95364 0.81092 0.0
C562 C 0.57328 0.96081 0.8045 0.0
C563 C 0.58352 0.95428 0.81131 0.0
C564 C 0.58262 0.96675 0.7973 0.0
C565 C 0.60171 0.966 0.79689 0.0
U566 U 0.65859 0.95543 0.81402 0.0
O567 O 0.68269 0.93976 0.81033 0.0
O568 O 0.68459 0.96875 0.81112 0.0
C569 C 0.69267 0.95392 0.80886 0.0
C570 C 0.63187 0.95843 0.80309 0.0
C571 C 0.70196 0.95428 0.80066 0.0
C572 C 0.70171 0.95963 0.78559 0.0
C573 C 0.69264 0.9594 0.79334 0.0
C574 C 0.72943 0.94945 0.79238 0.0
C575 C 0.72022 0.95462 0.78501 0.0
C576 C 0.72038 0.9493 0.80012 0.0
C577 C 0.65956 0.9522 0.83826 0.0
C578 C 0.68571 0.94412 0.84689 0.0
C579 C 0.65765 0.95402 0.85347 0.0
C580 C 0.64968 0.95615 0.84556 0.0
C581 C 0.67573 0.94787 0.85425 0.0
C582 C 0.6777 0.9463 0.83895 0.0
C583 C 0.65039 0.9539 0.83008 0.0
O584 O 0.64074 0.97214 0.80616 0.0
O585 O 0.63916 0.94315 0.80523 0.0
O586 O 0.65101 0.93989 0.82516 0.0
O587 O 0.65306 0.96888 0.82604 0.0
H588 H 0.61022 0.9486 0.81625 0.0
H589 H 0.57676 0.94982 0.81698 0.0
H590 H 0.57514 0.97168 0.79191 0.0
H591 H 0.60858 0.97049 0.79125 0.0
H592 H 0.69415 0.96347 0.78003 0.0
H593 H 0.67837 0.96318 0.79363 0.0
H594 H 0.74372 0.94573 0.79219 0.0
H595 H 0.72778 0.94532 0.80571 0.0
H596 H 0.69972 0.93953 0.84726 0.0
H597 H 0.64946 0.95677 0.85898 0.0
H598 H 0.63564 0.96066 0.84514 0.0
H599 H 0.68557 0.94324 0.83337 0.0
C600 C 0.77327 0.85849 0.54938 0.0
C601 C 0.77053 0.84955 0.55701 0.0
C602 C 0.77237 0.82105 0.54981 0.0
C603 C 0.77002 0.831 0.55722 0.0
C604 C 0.77508 0.83012 0.54218 0.0
C605 C 0.77551 0.84867 0.54198 0.0
U606 U 0.77831 0.90271 0.56058 0.0
O607 O 0.79448 0.92634 0.55729 0.0
O608 O 0.76468 0.92837 0.55853 0.0
C609 C 0.77993 0.93638 0.55636 0.0
C610 C 0.7743 0.87798 0.54911 0.0
C611 C 0.77919 0.9468 0.54854 0.0
C612 C 0.77422 0.94906 0.53347 0.0
C613 C 0.77476 0.93886 0.54083 0.0
C614 C 0.7826 0.97516 0.54147 0.0
C615 C 0.77819 0.96734 0.5337 0.0
C616 C 0.78308 0.96498 0.54881 0.0
C617 C 0.78383 0.90086 0.58472 0.0
C618 C 0.79303 0.92534 0.59373 0.0
C619 C 0.78495 0.89699 0.59986 0.0
C620 C 0.78143 0.89023 0.59185 0.0
C621 C 0.79097 0.91458 0.60091 0.0
C622 C 0.78947 0.91853 0.5857 0.0
C623 C 0.78111 0.89291 0.57637 0.0
O624 O 0.76047 0.88645 0.55254 0.0
O625 O 0.79024 0.88472 0.55117 0.0
O626 O 0.79511 0.89386 0.57122 0.0
O627 O 0.76538 0.89619 0.5727 0.0
H628 H 0.76893 0.85693 0.56281 0.0
H629 H 0.76812 0.82443 0.5632 0.0
H630 H 0.77673 0.82288 0.53635 0.0
H631 H 0.77766 0.85536 0.53604 0.0
H632 H 0.77098 0.94257 0.52758 0.0
H633 H 0.77179 0.9248 0.5405 0.0
H634 H 0.78548 0.98922 0.54191 0.0
H635 H 0.78648 0.97133 0.55472 0.0
H636 H 0.79744 0.93899 0.59432 0.0
H637 H 0.78348 0.88823 0.6052 0.0
H638 H 0.77715 0.87653 0.5912 0.0
H639 H 0.79136 0.92695 0.58025 0.0
C640 C 0.61192 0.53545 0.80296 0.0
C641 C 0.60337 0.53304 0.81077 0.0
C642 C 0.57342 0.53336 0.80402 0.0
C643 C 0.5843 0.53196 0.81129 0.0
C644 C 0.58214 0.5358 0.79622 0.0
C645 C 0.6012 0.53682 0.7957 0.0
U646 U 0.65851 0.54266 0.81308 0.0
O647 O 0.68505 0.52991 0.81063 0.0
O648 O 0.68194 0.55859 0.80881 0.0
C649 C 0.69254 0.54465 0.80787 0.0
C650 C 0.63193 0.53693 0.80232 0.0
C651 C 0.70203 0.5434 0.79974 0.0
C652 C 0.70201 0.53723 0.78474 0.0
C653 C 0.69278 0.53802 0.79245 0.0
C654 C 0.72979 0.5472 0.79156 0.0
C655 C 0.72063 0.54189 0.7842 0.0
C656 C 0.72057 0.54793 0.79925 0.0
C657 C 0.65935 0.55089 0.83716 0.0
C658 C 0.68023 0.5433 0.84854 0.0
C659 C 0.65992 0.56846 0.84998 0.0
C660 C 0.65292 0.56519 0.84197 0.0
C661 C 0.67347 0.55741 0.85344 0.0
C662 C 0.67323 0.54005 0.84048 0.0
C663 C 0.65041 0.54704 0.82902 0.0
O664 O 0.6386 0.55278 0.80388 0.0
O665 O 0.64133 0.52412 0.80589 0.0
O666 O 0.65348 0.53142 0.82561 0.0
O667 O 0.65022 0.56004 0.82353 0.0
H668 H 0.61146 0.53202 0.81645 0.0
H669 H 0.5781 0.52987 0.81739 0.0
H670 H 0.57423 0.53724 0.79051 0.0
H671 H 0.60757 0.53882 0.78963 0.0
H672 H 0.69449 0.53327 0.77919 0.0
H673 H 0.67842 0.53456 0.79271 0.0
H674 H 0.74416 0.55064 0.7914 0.0
H675 H 0.72793 0.55209 0.80482 0.0
H676 H 0.69057 0.53445 0.85102 0.0
H677 H 0.65464 0.57965 0.85349 0.0
H678 H 0.6422 0.57372 0.83956 0.0
H679 H 0.67845 0.52888 0.83694 0.0
C680 C 0.73336 0.35967 0.04998 0.0
C681 C 0.7362 0.35091 0.05765 0.0
C682 C 0.73542 0.32224 0.05053 0.0
C683 C 0.73728 0.33238 0.05792 0.0
C684 C 0.73255 0.33116 0.04287 0.0
C685 C 0.73155 0.34968 0.04261 0.0
U686 U 0.72516 0.40406 0.06074 0.0
O687 O 0.73823 0.43007 0.05891 0.0
O688 O 0.70879 0.42701 0.05671 0.0
C689 C 0.7231 0.43749 0.05616 0.0
C690 C 0.73177 0.37912 0.04962 0.0
C691 C 0.72469 0.44755 0.04827 0.0
C692 C 0.73062 0.44898 0.03325 0.0
C693 C 0.72953 0.43919 0.04072 0.0
C694 C 0.72209 0.47558 0.04084 0.0
C695 C 0.72688 0.46732 0.03322 0.0
C696 C 0.72102 0.46578 0.04828 0.0
C697 C 0.71547 0.40306 0.08462 0.0
C698 C 0.7168 0.42754 0.09458 0.0
C699 C 0.70122 0.40032 0.09834 0.0
C700 C 0.70554 0.39315 0.09049 0.0
C701 C 0.70679 0.4176 0.10049 0.0
C702 C 0.72105 0.42035 0.08669 0.0
C703 C 0.71992 0.39484 0.07647 0.0
O704 O 0.71533 0.38541 0.05109 0.0
O705 O 0.74474 0.38806 0.05348 0.0
O706 O 0.73614 0.39835 0.07332 0.0
O707 O 0.7068 0.39504 0.07083 0.0
H708 H 0.73755 0.35841 0.06343 0.0
H709 H 0.73973 0.32603 0.06392 0.0
H710 H 0.73073 0.32382 0.03708 0.0
H711 H 0.72919 0.35621 0.03664 0.0
H712 H 0.73455 0.44222 0.02753 0.0
H713 H 0.73241 0.42509 0.04059 0.0
H714 H 0.71883 0.48958 0.04104 0.0
H715 H 0.71717 0.47244 0.05405 0.0
H716 H 0.72113 0.44094 0.09601 0.0
H717 H 0.69374 0.39221 0.10277 0.0
H718 H 0.70118 0.37977 0.08903 0.0
H719 H 0.72867 0.42827 0.08222 0.0
C720 C 0.895 0.4728 0.30404 0.0
C721 C 0.90375 0.47837 0.31144 0.0
C722 C 0.93355 0.47365 0.30495 0.0
C723 C 0.92286 0.47888 0.31188 0.0
C724 C 0.92467 0.46805 0.29757 0.0
C725 C 0.90558 0.46766 0.29712 0.0
U726 U 0.84808 0.46862 0.31432 0.0
O727 O 0.82207 0.48191 0.31141 0.0
O728 O 0.82411 0.45295 0.31044 0.0
C729 C 0.81409 0.46711 0.30902 0.0
C730 C 0.87493 0.47188 0.30348 0.0
C731 C 0.80493 0.46768 0.30079 0.0
C732 C 0.8056 0.4729 0.28572 0.0
C733 C 0.81453 0.47243 0.2935 0.0
C734 C 0.77742 0.46377 0.29243 0.0
C735 C 0.78691 0.46857 0.28508 0.0
C736 C 0.78636 0.46335 0.3002 0.0
C737 C 0.84665 0.46439 0.33861 0.0
C738 C 0.82752 0.44759 0.34828 0.0
C739 C 0.84487 0.47276 0.35335 0.0
C740 C 0.85162 0.47564 0.34525 0.0
C741 C 0.83305 0.45846 0.35501 0.0
C742 C 0.83425 0.45052 0.34016 0.0
C743 C 0.85583 0.46653 0.3304 0.0
O744 O 0.86772 0.45653 0.30554 0.0
O745 O 0.86595 0.48549 0.3066 0.0
O746 O 0.85326 0.48168 0.32649 0.0
O747 O 0.8557 0.45274 0.32533 0.0
H748 H 0.89581 0.48223 0.31689 0.0
H749 H 0.92928 0.48307 0.31768 0.0
H750 H 0.93249 0.46412 0.2921 0.0
H751 H 0.89907 0.46329 0.29137 0.0
H752 H 0.8133 0.47685 0.28022 0.0
H753 H 0.82891 0.47582 0.29384 0.0
H754 H 0.76313 0.46007 0.29218 0.0
H755 H 0.77876 0.45956 0.30576 0.0
H756 H 0.81857 0.43637 0.34933 0.0
H757 H 0.84915 0.4816 0.35834 0.0
H758 H 0.86116 0.48642 0.34421 0.0
H759 H 0.83016 0.44162 0.33515 0.0
C760 C 0.77306 0.649 0.5506 0.0
C761 C 0.77976 0.65858 0.55751 0.0
C762 C 0.77169 0.68648 0.55069 0.0
C763 C 0.77912 0.67713 0.55755 0.0
C764 C 0.76473 0.67674 0.54385 0.0
C765 C 0.76544 0.65819 0.5438 0.0
U766 U 0.77881 0.60465 0.56171 0.0
O767 O 0.76514 0.57901 0.55966 0.0
O768 O 0.79487 0.58111 0.55816 0.0
C769 C 0.7803 0.57109 0.55729 0.0
C770 C 0.77412 0.6295 0.55037 0.0
C771 C 0.77923 0.56095 0.54939 0.0
C772 C 0.77267 0.55904 0.53444 0.0
C773 C 0.77352 0.56895 0.54188 0.0
C774 C 0.78332 0.53309 0.54194 0.0
C775 C 0.77756 0.54096 0.53437 0.0
C776 C 0.78413 0.54299 0.54937 0.0
C777 C 0.78514 0.6059 0.58583 0.0
C778 C 0.79764 0.58272 0.59477 0.0
C779 C 0.78317 0.60845 0.60101 0.0
C780 C 0.77957 0.61518 0.59301 0.0
C781 C 0.7925 0.59226 0.60201 0.0
C782 C 0.79399 0.58949 0.58674 0.0
C783 C 0.7822 0.61405 0.57753 0.0
O784 O 0.79018 0.62273 0.55224 0.0
O785 O 0.76048 0.62108 0.55396 0.0
O786 O 0.76633 0.61093 0.57396 0.0
O787 O 0.79602 0.6133 0.57226 0.0
H788 H 0.78565 0.6517 0.56284 0.0
H789 H 0.7848 0.68415 0.56288 0.0
H790 H 0.75861 0.68343 0.53853 0.0
H791 H 0.7601 0.65101 0.53844 0.0
H792 H 0.76798 0.56551 0.52876 0.0
H793 H 0.76969 0.58283 0.54178 0.0
H794 H 0.78749 0.51931 0.54212 0.0
H795 H 0.78867 0.53662 0.5551 0.0
H796 H 0.80495 0.57028 0.5953 0.0
H797 H 0.7787 0.61598 0.60643 0.0
H798 H 0.77264 0.62783 0.59243 0.0
H799 H 0.79837 0.5821 0.58126 0.0
C800 C 0.61246 0.47252 0.21048 0.0
C801 C 0.60346 0.47462 0.20276 0.0
C802 C 0.5739 0.47343 0.20981 0.0
C803 C 0.58433 0.47513 0.20243 0.0
C804 C 0.58305 0.47141 0.21753 0.0
C805 C 0.60215 0.47097 0.21785 0.0
U806 U 0.65911 0.46792 0.19999 0.0
O807 O 0.68525 0.48108 0.20279 0.0
O808 O 0.68304 0.45215 0.20382 0.0
C809 C 0.69317 0.46626 0.20518 0.0
C810 C 0.63252 0.47151 0.21094 0.0
C811 C 0.70246 0.46685 0.21338 0.0
C812 C 0.70228 0.47285 0.22839 0.0
C813 C 0.69322 0.47241 0.22064 0.0
C814 C 0.72986 0.46203 0.22171 0.0
C815 C 0.72072 0.46763 0.22902 0.0
C816 C 0.72081 0.46166 0.21397 0.0
C817 C 0.66023 0.46342 0.17571 0.0
C818 C 0.67878 0.44621 0.16595 0.0
C819 C 0.66247 0.47214 0.16103 0.0
C820 C 0.65575 0.47502 0.16914 0.0
C821 C 0.67375 0.45748 0.15928 0.0
C822 C 0.6721 0.44915 0.17408 0.0
C823 C 0.65113 0.46568 0.18393 0.0
O824 O 0.63957 0.4561 0.20887 0.0
O825 O 0.64143 0.48502 0.20771 0.0
O826 O 0.65382 0.48087 0.1878 0.0
O827 O 0.65121 0.45196 0.18903 0.0
H828 H 0.61123 0.47573 0.19698 0.0
H829 H 0.57771 0.47653 0.19638 0.0
H830 H 0.57545 0.4703 0.22335 0.0
H831 H 0.60888 0.46934 0.22387 0.0
H832 H 0.69478 0.47703 0.23391 0.0
H833 H 0.67899 0.47636 0.22032 0.0
H834 H 0.7441 0.45813 0.22194 0.0
H835 H 0.72816 0.45734 0.20842 0.0
H836 H 0.6873 0.43471 0.16483 0.0
H837 H 0.65858 0.48127 0.1561 0.0
H838 H 0.64663 0.48611 0.17023 0.0
H839 H 0.6758 0.43996 0.17902 0.0
C840 C 0.77293 0.36016 0.46411 0.0
C841 C 0.77013 0.35137 0.45645 0.0
C842 C 0.77104 0.32272 0.46357 0.0
C843 C 0.76913 0.33283 0.45618 0.0
C844 C 0.77386 0.33168 0.47123 0.0
C845 C 0.77478 0.35021 0.47149 0.0
U846 U 0.78104 0.4045 0.45334 0.0
O847 O 0.76788 0.43049 0.45512 0.0
O848 O 0.79731 0.42754 0.45737 0.0
C849 C 0.78296 0.43797 0.45789 0.0
C850 C 0.77445 0.37962 0.46447 0.0
C851 C 0.78128 0.44808 0.46577 0.0
C852 C 0.77426 0.44978 0.48068 0.0
C853 C 0.77556 0.43992 0.47324 0.0
C854 C 0.7844 0.47602 0.47325 0.0
C855 C 0.77868 0.46798 0.48079 0.0
C856 C 0.78567 0.46616 0.46583 0.0
C857 C 0.79079 0.40338 0.42947 0.0
C858 C 0.79015 0.42813 0.41967 0.0
C859 C 0.80444 0.40042 0.41564 0.0
C860 C 0.80009 0.39323 0.42347 0.0
C861 C 0.79955 0.41796 0.41363 0.0
C862 C 0.78586 0.42092 0.42755 0.0
C863 C 0.78636 0.39519 0.43762 0.0
O864 O 0.79088 0.38596 0.46301 0.0
O865 O 0.76148 0.3885 0.46059 0.0
O866 O 0.77012 0.39867 0.44076 0.0
O867 O 0.79946 0.39549 0.44327 0.0
H868 H 0.76876 0.35883 0.45067 0.0
H869 H 0.76673 0.32644 0.45019 0.0
H870 H 0.7757 0.32438 0.47702 0.0
H871 H 0.7771 0.35678 0.47745 0.0
H872 H 0.76962 0.44318 0.48633 0.0
H873 H 0.77212 0.42594 0.47331 0.0
H874 H 0.7882 0.4899 0.47311 0.0
H875 H 0.7902 0.47266 0.46013 0.0
H876 H 0.78634 0.44173 0.41835 0.0
H877 H 0.81144 0.39213 0.4111 0.0
H878 H 0.80395 0.37966 0.42483 0.0
H879 H 0.77874 0.42901 0.43212 0.0
C880 C 0.89671 0.53444 0.7101 0.0
C881 C 0.90549 0.53157 0.70238 0.0
C882 C 0.93526 0.5326 0.70929 0.0
C883 C 0.92459 0.53062 0.70198 0.0
C884 C 0.9263 0.53552 0.717 0.0
C885 C 0.90722 0.53641 0.71739 0.0
U886 U 0.85019 0.54003 0.69966 0.0
O887 O 0.82384 0.52711 0.70228 0.0
O888 O 0.82643 0.55597 0.70355 0.0
C889 C 0.81608 0.54195 0.70475 0.0
C890 C 0.87667 0.53575 0.71061 0.0
C891 C 0.80666 0.5412 0.71292 0.0
C892 C 0.80673 0.53531 0.72794 0.0
C893 C 0.8159 0.53585 0.72022 0.0
C894 C 0.77904 0.54553 0.72114 0.0
C895 C 0.78817 0.54016 0.72851 0.0
C896 C 0.7882 0.54603 0.71344 0.0
C897 C 0.84934 0.54546 0.67555 0.0
C898 C 0.82305 0.55456 0.66725 0.0
C899 C 0.85131 0.54639 0.66032 0.0
C900 C 0.85931 0.54298 0.66813 0.0
C901 C 0.83313 0.55238 0.65978 0.0
C902 C 0.83109 0.55111 0.67508 0.0
C903 C 0.85856 0.54272 0.68366 0.0
O904 O 0.86984 0.55133 0.70867 0.0
O905 O 0.86751 0.52247 0.7073 0.0
O906 O 0.85546 0.52747 0.68739 0.0
O907 O 0.85835 0.55629 0.68884 0.0
H908 H 0.89757 0.53008 0.69667 0.0
H909 H 0.93097 0.52816 0.69596 0.0
H910 H 0.93404 0.53742 0.72273 0.0
H911 H 0.90067 0.53877 0.7234 0.0
H912 H 0.81415 0.53091 0.73344 0.0
H913 H 0.83018 0.53208 0.71994 0.0
H914 H 0.76486 0.54964 0.72135 0.0
H915 H 0.78089 0.55028 0.70787 0.0
H916 H 0.80897 0.55897 0.66706 0.0
H917 H 0.85958 0.54483 0.65473 0.0
H918 H 0.87344 0.53869 0.66838 0.0
H919 H 0.82317 0.55305 0.68075 0.0
C920 C 0.7334 0.64837 0.9632 0.0
C921 C 0.73695 0.65716 0.9556 0.0
C922 C 0.73542 0.6858 0.96272 0.0
C923 C 0.73801 0.67569 0.95537 0.0
C924 C 0.73183 0.67685 0.97031 0.0
C925 C 0.73084 0.65832 0.97053 0.0
U926 U 0.72736 0.60389 0.95222 0.0
O927 O 0.74045 0.57806 0.95447 0.0
O928 O 0.7107 0.58071 0.95572 0.0
C929 C 0.72505 0.57044 0.95674 0.0
C930 C 0.7319 0.62891 0.96352 0.0
C931 C 0.72561 0.56034 0.96465 0.0
C932 C 0.73245 0.5581 0.97957 0.0
C933 C 0.732 0.56803 0.97213 0.0
C934 C 0.72001 0.53279 0.97214 0.0
C935 C 0.72643 0.54035 0.97967 0.0
C936 C 0.71963 0.54269 0.96471 0.0
C937 C 0.72192 0.60461 0.9281 0.0
C938 C 0.71226 0.57973 0.91944 0.0
C939 C 0.72119 0.60742 0.91291 0.0
C940 C 0.72473 0.61467 0.92083 0.0
C941 C 0.71476 0.58991 0.9121 0.0
C942 C 0.71583 0.58702 0.92738 0.0
C943 C 0.72477 0.61303 0.93634 0.0
O944 O 0.7158 0.62248 0.96147 0.0
O945 O 0.74554 0.62007 0.96014 0.0
O946 O 0.74043 0.60968 0.94006 0.0
O947 O 0.71075 0.61262 0.94149 0.0
H948 H 0.73889 0.64968 0.94986 0.0
H949 H 0.74101 0.68208 0.94944 0.0
H950 H 0.72945 0.68416 0.97606 0.0
H951 H 0.72794 0.65176 0.97644 0.0
H952 H 0.73728 0.5644 0.98527 0.0
H953 H 0.73659 0.58169 0.97222 0.0
H954 H 0.7155 0.51911 0.97195 0.0
H955 H 0.71469 0.53653 0.959 0.0
H956 H 0.70751 0.56615 0.91904 0.0
H957 H 0.723 0.61575 0.90743 0.0
H958 H 0.72936 0.62829 0.92127 0.0
H959 H 0.71363 0.57903 0.93294 0.0
C960 C 0.3967 0.47487 0.21044 0.0
C961 C 0.40601 0.46745 0.20358 0.0
C962 C 0.43529 0.47584 0.20976 0.0
C963 C 0.42513 0.46789 0.20325 0.0
C964 C 0.4258 0.48357 0.21654 0.0
C965 C 0.4067 0.48305 0.21687 0.0
U966 U 0.34986 0.46782 0.20045 0.0
O967 O 0.3261 0.45278 0.20497 0.0
O968 O 0.32367 0.48142 0.2028 0.0
C969 C 0.31592 0.46704 0.20583 0.0
C970 C 0.37664 0.47394 0.21105 0.0
C971 C 0.30682 0.46902 0.21403 0.0
C972 C 0.3074 0.46756 0.2293 0.0
C973 C 0.31644 0.46638 0.22156 0.0
C974 C 0.27914 0.47452 0.22207 0.0
C975 C 0.28861 0.47154 0.22964 0.0
C976 C 0.28817 0.47322 0.21435 0.0
C977 C 0.34861 0.45761 0.17659 0.0
C978 C 0.32385 0.46107 0.1665 0.0
C979 C 0.34961 0.44213 0.16321 0.0
C980 C 0.35744 0.44612 0.17098 0.0
C981 C 0.33275 0.44959 0.16084 0.0
C982 C 0.33168 0.46501 0.17433 0.0
C983 C 0.35777 0.46196 0.18459 0.0
O984 O 0.36766 0.48664 0.20718 0.0
O985 O 0.36949 0.45815 0.20984 0.0
O986 O 0.35771 0.44942 0.19032 0.0
O987 O 0.3549 0.47789 0.18769 0.0
H988 H 0.39849 0.46111 0.19854 0.0
H989 H 0.43195 0.46165 0.19799 0.0
H990 H 0.43312 0.49008 0.22158 0.0
H991 H 0.39972 0.48896 0.22219 0.0
H992 H 0.31514 0.46543 0.23501 0.0
H993 H 0.33089 0.46324 0.22146 0.0
H994 H 0.26464 0.47744 0.22211 0.0
H995 H 0.28052 0.47529 0.2086 0.0
H996 H 0.31077 0.4669 0.1649 0.0
H997 H 0.35698 0.43345 0.15897 0.0
H998 H 0.37055 0.44036 0.17259 0.0
H999 H 0.32457 0.47388 0.17857 0.0
C1000 C 0.2713 0.64927 0.96326 0.0
C1001 C 0.2684 0.65818 0.95564 0.0
C1002 C 0.26967 0.68672 0.96285 0.0
C1003 C 0.26754 0.67672 0.95544 0.0
C1004 C 0.27258 0.67765 0.97047 0.0
C1005 C 0.27337 0.65911 0.97066 0.0
U1006 U 0.27685 0.60491 0.95215 0.0
O1007 O 0.29327 0.58152 0.95556 0.0
O1008 O 0.2635 0.57917 0.95433 0.0
C1009 C 0.27883 0.57137 0.95656 0.0
C1010 C 0.2726 0.62979 0.96353 0.0
C1011 C 0.27817 0.56121 0.96445 0.0
C1012 C 0.27287 0.55938 0.97951 0.0
C1013 C 0.27339 0.56932 0.97208 0.0
C1014 C 0.282 0.53317 0.97176 0.0
C1015 C 0.27722 0.54117 0.97944 0.0
C1016 C 0.28245 0.5431 0.96434 0.0
C1017 C 0.28215 0.60603 0.928 0.0
C1018 C 0.29487 0.58303 0.91901 0.0
C1019 C 0.27975 0.60845 0.91282 0.0
C1020 C 0.27621 0.61516 0.92084 0.0
C1021 C 0.28939 0.59244 0.91179 0.0
C1022 C 0.29128 0.58977 0.92705 0.0
C1023 C 0.27944 0.61425 0.9363 0.0
O1024 O 0.25886 0.62113 0.96013 0.0
O1025 O 0.28862 0.62325 0.96146 0.0
O1026 O 0.29348 0.61368 0.94145 0.0
O1027 O 0.26375 0.611 0.94001 0.0
H1028 H 0.26682 0.65078 0.94984 0.0
H1029 H 0.26506 0.68321 0.94948 0.0
H1030 H 0.27458 0.68487 0.97628 0.0
H1031 H 0.27576 0.65245 0.97659 0.0
H1032 H 0.26934 0.566 0.98532 0.0
H1033 H 0.27011 0.58333 0.97228 0.0
H1034 H 0.28518 0.51916 0.97145 0.0
H1035 H 0.28613 0.53662 0.95851 0.0
H1036 H 0.30243 0.57074 0.91845 0.0
H1037 H 0.27503 0.61588 0.90742 0.0
H1038 H 0.26907 0.62769 0.92145 0.0
H1039 H 0.29596 0.5825 0.93251 0.0
C1040 C 0.11231 0.53422 0.71022 0.0
C1041 C 0.10324 0.54053 0.70304 0.0
C1042 C 0.07383 0.53227 0.70909 0.0
C1043 C 0.08416 0.53963 0.70249 0.0
C1044 C 0.08305 0.52572 0.7162 0.0
C1045 C 0.10211 0.52673 0.71676 0.0
U1046 U 0.15935 0.54007 0.70035 0.0
O1047 O 0.18287 0.55609 0.70449 0.0
O1048 O 0.1856 0.52723 0.70325 0.0
C1049 C 0.19322 0.5421 0.70577 0.0
C1050 C 0.13232 0.53555 0.71098 0.0
C1051 C 0.20247 0.54143 0.71399 0.0
C1052 C 0.2024 0.53498 0.72896 0.0
C1053 C 0.19333 0.53548 0.72121 0.0
C1054 C 0.22976 0.54651 0.72235 0.0
C1055 C 0.22073 0.54053 0.72963 0.0
C1056 C 0.22071 0.54693 0.71462 0.0
C1057 C 0.16122 0.54528 0.67608 0.0
C1058 C 0.17829 0.56362 0.66623 0.0
C1059 C 0.16515 0.53584 0.66157 0.0
C1060 C 0.15836 0.53284 0.66965 0.0
C1061 C 0.17488 0.55144 0.6597 0.0
C1062 C 0.17153 0.56058 0.67433 0.0
C1063 C 0.15192 0.5427 0.68425 0.0
O1064 O 0.14164 0.52231 0.70774 0.0
O1065 O 0.13932 0.55115 0.7092 0.0
O1066 O 0.15161 0.55627 0.68944 0.0
O1067 O 0.1547 0.52744 0.68804 0.0
H1068 H 0.11091 0.54624 0.69788 0.0
H1069 H 0.0775 0.54458 0.69689 0.0
H1070 H 0.07549 0.52015 0.72142 0.0
H1071 H 0.10888 0.52179 0.72234 0.0
H1072 H 0.19498 0.5305 0.73445 0.0
H1073 H 0.17918 0.53127 0.72085 0.0
H1074 H 0.24393 0.55066 0.72262 0.0
H1075 H 0.22799 0.55155 0.70911 0.0
H1076 H 0.18557 0.57585 0.66501 0.0
H1077 H 0.16253 0.52602 0.65675 0.0
H1078 H 0.15042 0.52096 0.67083 0.0
H1079 H 0.17394 0.57047 0.67914 0.0
C1080 C 0.23613 0.36061 0.46315 0.0
C1081 C 0.22942 0.35112 0.45621 0.0
C1082 C 0.23773 0.32314 0.46289 0.0
C1083 C 0.23016 0.33257 0.45609 0.0
C1084 C 0.24469 0.33279 0.46977 0.0
C1085 C 0.24386 0.35133 0.46989 0.0
U1086 U 0.23003 0.40501 0.45215 0.0
O1087 O 0.21398 0.42848 0.45578 0.0
O1088 O 0.24368 0.43068 0.45418 0.0
C1089 C 0.22853 0.43855 0.45662 0.0
C1090 C 0.23504 0.3801 0.46344 0.0
C1091 C 0.22969 0.44862 0.46453 0.0
C1092 C 0.23489 0.45003 0.4796 0.0
C1093 C 0.23418 0.44025 0.47212 0.0
C1094 C 0.22666 0.47662 0.47196 0.0
C1095 C 0.2311 0.46836 0.47962 0.0
C1096 C 0.22597 0.46684 0.4645 0.0
C1097 C 0.223 0.40384 0.42811 0.0
C1098 C 0.21716 0.42956 0.41931 0.0
C1099 C 0.21844 0.40023 0.4131 0.0
C1100 C 0.22193 0.39294 0.42101 0.0
C1101 C 0.21595 0.41863 0.41214 0.0
C1102 C 0.22067 0.42221 0.42724 0.0
C1103 C 0.2262 0.39559 0.43635 0.0
O1104 O 0.24858 0.38859 0.4598 0.0
O1105 O 0.21893 0.38686 0.46167 0.0
O1106 O 0.21253 0.39637 0.44169 0.0
O1107 O 0.24215 0.39881 0.43984 0.0
H1108 H 0.22344 0.35807 0.45092 0.0
H1109 H 0.22448 0.32563 0.45074 0.0
H1110 H 0.2509 0.32603 0.47505 0.0
H1111 H 0.24923 0.35844 0.47527 0.0
H1112 H 0.23856 0.44326 0.48536 0.0
H1113 H 0.23709 0.42616 0.47226 0.0
H1114 H 0.22337 0.49062 0.47174 0.0
H1115 H 0.22239 0.4735 0.45869 0.0
H1116 H 0.21547 0.44378 0.41878 0.0
H1117 H 0.21727 0.39136 0.40778 0.0
H1118 H 0.22362 0.37871 0.42158 0.0
H1119 H 0.22147 0.43082 0.43268 0.0
C1120 C 0.39634 0.53399 0.8043 0.0
C1121 C 0.40563 0.54075 0.81133 0.0
C1122 C 0.43486 0.53231 0.80516 0.0
C1123 C 0.42472 0.53998 0.81174 0.0
C1124 C 0.42543 0.52531 0.79819 0.0
C1125 C 0.40634 0.52618 0.79777 0.0
U1126 U 0.3496 0.5399 0.81446 0.0
O1127 O 0.32584 0.55561 0.81038 0.0
O1128 O 0.32333 0.52678 0.81183 0.0
C1129 C 0.31555 0.54152 0.80925 0.0
C1130 C 0.37629 0.53515 0.80367 0.0
C1131 C 0.30619 0.54052 0.80107 0.0
C1132 C 0.30662 0.5352 0.786 0.0
C1133 C 0.31571 0.53586 0.79375 0.0
C1134 C 0.27842 0.54388 0.79284 0.0
C1135 C 0.28785 0.53923 0.78545 0.0
C1136 C 0.28752 0.5445 0.80057 0.0
C1137 C 0.34835 0.5462 0.83852 0.0
C1138 C 0.32171 0.55495 0.84666 0.0
C1139 C 0.35005 0.54761 0.85374 0.0
C1140 C 0.35826 0.54418 0.84599 0.0
C1141 C 0.3317 0.55317 0.85419 0.0
C1142 C 0.32997 0.55146 0.83889 0.0
C1143 C 0.35771 0.54323 0.83047 0.0
O1144 O 0.36718 0.52197 0.80709 0.0
O1145 O 0.36924 0.55077 0.80538 0.0
O1146 O 0.35752 0.55661 0.82518 0.0
O1147 O 0.35472 0.52784 0.82684 0.0
H1148 H 0.39811 0.54671 0.81647 0.0
H1149 H 0.43155 0.54529 0.81723 0.0
H1150 H 0.43283 0.51948 0.79299 0.0
H1151 H 0.3994 0.52089 0.7923 0.0
H1152 H 0.31427 0.53137 0.78047 0.0
H1153 H 0.33016 0.53275 0.79402 0.0
H1154 H 0.26406 0.54734 0.79265 0.0
H1155 H 0.27998 0.54822 0.80616 0.0
H1156 H 0.30752 0.55902 0.84679 0.0
H1157 H 0.35825 0.54637 0.85938 0.0
H1158 H 0.37248 0.54018 0.84582 0.0
H1159 H 0.32209 0.55304 0.83317 0.0
C1160 C 0.23446 0.64884 0.55053 0.0
C1161 C 0.22765 0.65808 0.55752 0.0
C1162 C 0.23649 0.68623 0.55118 0.0
C1163 C 0.2286 0.67661 0.55783 0.0
C1164 C 0.24355 0.67685 0.54425 0.0
C1165 C 0.2425 0.65833 0.54393 0.0
U1166 U 0.22603 0.60426 0.56097 0.0
O1167 O 0.20975 0.58135 0.55677 0.0
O1168 O 0.23915 0.57828 0.55908 0.0
C1169 C 0.22407 0.57088 0.55626 0.0
C1170 C 0.23303 0.62939 0.55002 0.0
C1171 C 0.22573 0.56076 0.54838 0.0
C1172 C 0.23369 0.55871 0.53358 0.0
C1173 C 0.23258 0.56858 0.54103 0.0
C1174 C 0.22109 0.53318 0.54077 0.0
C1175 C 0.22786 0.5409 0.53335 0.0
C1176 C 0.22005 0.54302 0.5482 0.0
C1177 C 0.21568 0.60481 0.5848 0.0
C1178 C 0.21852 0.58106 0.59507 0.0
C1179 C 0.19994 0.60682 0.59821 0.0
C1180 C 0.20423 0.61398 0.59036 0.0
C1181 C 0.20707 0.5903 0.60068 0.0
C1182 C 0.22274 0.58822 0.58718 0.0
C1183 C 0.22031 0.61317 0.5767 0.0
O1184 O 0.24589 0.6205 0.55396 0.0
O1185 O 0.21658 0.62291 0.5513 0.0
O1186 O 0.20735 0.61308 0.57099 0.0
O1187 O 0.23663 0.6098 0.57363 0.0
H1188 H 0.2215 0.65096 0.56271 0.0
H1189 H 0.22326 0.6834 0.5633 0.0
H1190 H 0.24954 0.68386 0.53899 0.0
H1191 H 0.24783 0.65141 0.53849 0.0
H1192 H 0.23879 0.56512 0.52796 0.0
H1193 H 0.23694 0.58231 0.54104 0.0
H1194 H 0.21673 0.51946 0.54086 0.0
H1195 H 0.21475 0.53677 0.55382 0.0
H1196 H 0.22408 0.56823 0.59676 0.0
H1197 H 0.19131 0.6144 0.60241 0.0
H1198 H 0.19871 0.62683 0.58866 0.0
H1199 H 0.23155 0.58086 0.58297 0.0
C1200 C 0.11041 0.47482 0.30412 0.0
C1201 C 0.10152 0.46717 0.31104 0.0
C1202 C 0.0719 0.47564 0.30528 0.0
C1203 C 0.08243 0.46751 0.3116 0.0
C1204 C 0.08093 0.48354 0.29843 0.0
C1205 C 0.10001 0.48309 0.29785 0.0
U1206 U 0.15742 0.46892 0.31396 0.0
O1207 O 0.18147 0.45412 0.30958 0.0
O1208 O 0.18337 0.48289 0.31151 0.0
C1209 C 0.19139 0.46852 0.30862 0.0
C1210 C 0.13046 0.47419 0.30336 0.0
C1211 C 0.20072 0.47034 0.30045 0.0
C1212 C 0.20147 0.46652 0.28527 0.0
C1213 C 0.19206 0.46548 0.29292 0.0
C1214 C 0.22812 0.47778 0.29256 0.0
C1215 C 0.21969 0.47255 0.285 0.0
C1216 C 0.21873 0.47664 0.3002 0.0
C1217 C 0.15847 0.45986 0.33796 0.0
C1218 C 0.18226 0.46498 0.34839 0.0
C1219 C 0.1572 0.44505 0.3515 0.0
C1220 C 0.14983 0.4482 0.34355 0.0
C1221 C 0.17337 0.45356 0.35408 0.0
C1222 C 0.17487 0.46811 0.34039 0.0
C1223 C 0.1495 0.46363 0.32985 0.0
O1224 O 0.13932 0.48719 0.30706 0.0
O1225 O 0.13793 0.45857 0.30466 0.0
O1226 O 0.1499 0.45083 0.32425 0.0
O1227 O 0.15212 0.47946 0.3266 0.0
H1228 H 0.10934 0.46086 0.31599 0.0
H1229 H 0.07591 0.46151 0.317 0.0
H1230 H 0.07322 0.48975 0.29342 0.0
H1231 H 0.10665 0.48908 0.29247 0.0
H1232 H 0.19458 0.46219 0.27961 0.0
H1233 H 0.17812 0.46063 0.29296 0.0
H1234 H 0.24199 0.4828 0.29259 0.0
H1235 H 0.22561 0.48056 0.30594 0.0
H1236 H 0.19468 0.47182 0.35018 0.0
H1237 H 0.15019 0.43589 0.35563 0.0
H1238 H 0.1372 0.44166 0.34178 0.0
H1239 H 0.1818 0.47716 0.33618 0.0
C1240 C 0.27242 0.36104 0.05081 0.0
C1241 C 0.28053 0.35186 0.05752 0.0
C1242 C 0.27105 0.32362 0.05144 0.0
C1243 C 0.27993 0.33331 0.05781 0.0
C1244 C 0.26265 0.33292 0.04482 0.0
C1245 C 0.26338 0.35146 0.0445 0.0
U1246 U 0.27816 0.40621 0.06121 0.0
O1247 O 0.29422 0.42948 0.05731 0.0
O1248 O 0.26448 0.43168 0.05878 0.0
C1249 C 0.27965 0.43947 0.05632 0.0
C1250 C 0.27343 0.38053 0.05028 0.0
C1251 C 0.27861 0.44929 0.04834 0.0
C1252 C 0.27148 0.45085 0.03343 0.0
C1253 C 0.27234 0.44119 0.04094 0.0
C1254 C 0.28327 0.47674 0.04064 0.0
C1255 C 0.27692 0.46878 0.03319 0.0
C1256 C 0.28409 0.46708 0.04813 0.0
C1257 C 0.28449 0.40686 0.08543 0.0
C1258 C 0.30373 0.42289 0.09536 0.0
C1259 C 0.2749 0.41052 0.09997 0.0
C1260 C 0.27166 0.40414 0.09185 0.0
C1261 C 0.29115 0.41968 0.10187 0.0
C1262 C 0.30045 0.41655 0.08722 0.0
C1263 C 0.28161 0.39814 0.07719 0.0
O1264 O 0.25979 0.38919 0.05374 0.0
O1265 O 0.28948 0.38749 0.052 0.0
O1266 O 0.29538 0.39826 0.07188 0.0
O1267 O 0.2657 0.40081 0.07356 0.0
H1268 H 0.28743 0.35902 0.0625 0.0
H1269 H 0.28632 0.32656 0.06305 0.0
H1270 H 0.25585 0.32585 0.03979 0.0
H1271 H 0.25702 0.35832 0.03929 0.0
H1272 H 0.26635 0.44434 0.02784 0.0
H1273 H 0.26807 0.42742 0.04098 0.0
H1274 H 0.28788 0.49039 0.04068 0.0
H1275 H 0.28907 0.47352 0.05377 0.0
H1276 H 0.31647 0.42973 0.0966 0.0
H1277 H 0.26476 0.40806 0.10478 0.0
H1278 H 0.25928 0.39667 0.09065 0.0
H1279 H 0.31066 0.41883 0.08242 0.0
H1280 H 0.3003 0.0654 0.24409 0.0
H1281 H 0.25212 0.04452 0.23188 0.0
H1282 H 0.2843 0.0652 0.2575 0.0
H1283 H 0.23584 0.04512 0.24522 0.0
H1284 H 0.21805 0.03139 0.272 0.0
H1285 H 0.23438 0.03072 0.25864 0.0
H1286 H 0.26038 0.08051 0.26484 0.0
H1287 H 0.2442 0.08105 0.27822 0.0
C1288 C 0.28631 0.06072 0.24426 0.0
C1289 C 0.27754 0.05498 0.23687 0.0
C1290 C 0.27703 0.06082 0.25195 0.0
C1291 C 0.25872 0.05521 0.25246 0.0
C1292 C 0.24998 0.04937 0.24509 0.0
C1293 C 0.25927 0.04924 0.2374 0.0
C1294 C 0.22715 0.04226 0.27048 0.0
C1295 C 0.22982 0.05626 0.27619 0.0
C1296 C 0.23652 0.04189 0.26281 0.0
C1297 C 0.24875 0.05555 0.26064 0.0
C1298 C 0.25134 0.06959 0.26635 0.0
C1299 C 0.24203 0.06992 0.27402 0.0
H1300 H 0.25245 0.04253 0.49226 0.0
H1301 H 0.20328 0.01655 0.48361 0.0
H1302 H 0.25206 0.02434 0.50495 0.0
H1303 H 0.2032 0.99805 0.49616 0.0
H1304 H 0.19749 0.98229 0.52383 0.0
H1305 H 0.19808 1.00072 0.51125 0.0
H1306 H 0.2565 0.99338 0.50941 0.0
H1307 H 0.25597 0.9753 0.52214 0.0
C1308 C 0.24154 0.03297 0.49307 0.0
C1309 C 0.2279 0.03102 0.4869 0.0
C1310 C 0.24143 0.02241 0.50031 0.0
C1311 C 0.22761 0.0097 0.50158 0.0
C1312 C 0.21395 0.00781 0.49543 0.0
C1313 C 0.21411 0.0183 0.48818 0.0
C1314 C 0.21048 0.9847 0.52078 0.0
C1315 C 0.22669 0.97733 0.52401 0.0
C1316 C 0.2108 0.99513 0.51351 0.0
C1317 C 0.22733 0.99854 0.50931 0.0
C1318 C 0.24355 0.99116 0.51253 0.0
C1319 C 0.24322 0.98063 0.51978 0.0
H1320 H 0.20706 0.9415 0.74442 0.0
H1321 H 0.25454 0.96366 0.73216 0.0
H1322 H 0.22312 0.94225 0.75782 0.0
H1323 H 0.27089 0.96361 0.74549 0.0
H1324 H 0.28852 0.97773 0.77227 0.0
H1325 H 0.27204 0.97803 0.75894 0.0
H1326 H 0.24754 0.92753 0.76509 0.0
H1327 H 0.26388 0.92735 0.77844 0.0
C1328 C 0.2209 0.94659 0.74457 0.0
C1329 C 0.22947 0.95251 0.73718 0.0
C1330 C 0.23021 0.9468 0.75226 0.0
C1331 C 0.24836 0.95291 0.75276 0.0
C1332 C 0.25688 0.95897 0.74538 0.0
C1333 C 0.24756 0.95879 0.7377 0.0
C1334 C 0.27972 0.96663 0.77075 0.0
C1335 C 0.27751 0.95253 0.77644 0.0
C1336 C 0.27026 0.96679 0.7631 0.0
C1337 C 0.2584 0.95282 0.76092 0.0
C1338 C 0.25628 0.93868 0.76661 0.0
C1339 C 0.26568 0.93856 0.77426 0.0
H1340 H 0.26696 0.00762 0.0323 0.0
H1341 H 0.28389 0.05276 0.01752 0.0
H1342 H 0.26635 0.98937 0.01966 0.0
H1343 H 0.28313 0.03452 1.00487 0.0
H1344 H 0.26252 1.00084 0.98288 0.0
H1345 H 0.26191 0.01895 0.99557 0.0
H1346 H 0.28743 0.97643 0.00944 0.0
H1347 H 0.28816 0.95834 0.99674 0.0
C1348 C 0.27067 0.01365 0.02637 0.0
C1349 C 0.27554 0.03169 0.02596 0.0
C1350 C 0.2703 1.00316 0.01911 0.0
C1351 C 0.27472 0.01044 0.01124 0.0
C1352 C 0.27939 0.02852 0.01081 0.0
C1353 C 0.27982 0.039 0.01807 0.0
C1354 C 0.26812 0.99537 0.98862 0.0
C1355 C 0.27546 0.97812 0.98875 0.0
C1356 C 0.26776 0.00578 0.9959 0.0
C1357 C 0.27467 0.99919 1.00353 0.0
C1358 C 0.28177 0.98185 1.0037 0.0
C1359 C 0.28217 0.97145 0.99641 0.0
H1360 H 0.71835 0.97969 0.77257 0.0
H1361 H 0.74404 0.92984 0.7788 0.0
H1362 H 0.7345 0.98005 0.75917 0.0
H1363 H 0.76005 0.93008 0.76538 0.0
H1364 H 0.79988 0.94456 0.7445 0.0
H1365 H 0.78404 0.94506 0.75795 0.0
H1366 H 0.73567 0.96552 0.74575 0.0
H1367 H 0.75179 0.96583 0.73238 0.0
C1368 C 0.72731 0.96872 0.77104 0.0
C1369 C 0.7299 0.95475 0.77677 0.0
C1370 C 0.73658 0.96891 0.76335 0.0
C1371 C 0.74864 0.95511 0.76117 0.0
C1372 C 0.75115 0.9411 0.76689 0.0
C1373 C 0.74193 0.94094 0.77459 0.0
C1374 C 0.78594 0.94939 0.74469 0.0
C1375 C 0.77715 0.95515 0.73732 0.0
C1376 C 0.77676 0.94946 0.75241 0.0
C1377 C 0.75851 0.95527 0.75296 0.0
C1378 C 0.74975 0.96112 0.7456 0.0
C1379 C 0.75895 0.96108 0.73789 0.0
H1380 H 0.75329 0.96621 0.5208 0.0
H1381 H 0.80231 0.99321 0.52889 0.0
H1382 H 0.75254 0.98439 0.50813 0.0
H1383 H 0.80166 0.01128 0.51621 0.0
H1384 H 0.78556 0.05263 0.49678 0.0
H1385 H 0.78496 0.03483 0.50955 0.0
H1386 H 0.76832 0.9891 0.49508 0.0
H1387 H 0.76809 0.00708 0.48238 0.0
C1388 C 0.764 0.97591 0.51984 0.0
C1389 C 0.77783 0.97826 0.52588 0.0
C1390 C 0.76358 0.98635 0.51257 0.0
C1391 C 0.77702 0.99938 0.51113 0.0
C1392 C 0.79089 1.00164 0.51717 0.0
C1393 C 0.79128 0.99124 0.52444 0.0
C1394 C 0.78152 0.03884 0.49633 0.0
C1395 C 0.77691 0.03132 0.48852 0.0
C1396 C 0.78141 0.02855 0.50365 0.0
C1397 C 0.77669 0.01046 0.50336 0.0
C1398 C 0.77187 1.003 0.49557 0.0
C1399 C 0.77197 0.01329 0.48825 0.0
H1400 H 0.7999 0.06521 0.26965 0.0
H1401 H 0.75199 0.04381 0.28186 0.0
H1402 H 0.7838 0.0649 0.25623 0.0
H1403 H 0.73587 0.04368 0.26845 0.0
H1404 H 0.70708 0.06487 0.24475 0.0
H1405 H 0.72319 0.06451 0.25816 0.0
H1406 H 0.7714 0.04413 0.24583 0.0
H1407 H 0.75526 0.04431 0.23243 0.0
C1408 C 0.786 0.06028 0.26947 0.0
C1409 C 0.77727 0.05456 0.27686 0.0
C1410 C 0.77675 0.06012 0.26177 0.0
C1411 C 0.75852 0.05429 0.26126 0.0
C1412 C 0.7498 0.04852 0.26864 0.0
C1413 C 0.75906 0.04862 0.27634 0.0
C1414 C 0.72105 0.06012 0.2449 0.0
C1415 C 0.72984 0.05464 0.23747 0.0
C1416 C 0.7303 0.05993 0.25259 0.0
C1417 C 0.74861 0.05432 0.25307 0.0
C1418 C 0.7574 0.0488 0.24567 0.0
C1419 C 0.74813 0.04892 0.23797 0.0
H1420 H 0.70469 0.01534 0.02943 0.0
H1421 H 0.75331 0.04225 0.02081 0.0
H1422 H 0.70479 0.99705 0.0168 0.0
H1423 H 0.7531 0.02426 0.00803 0.0
H1424 H 0.75762 0.97547 0.99064 0.0
H1425 H 0.75801 0.99342 1.00343 0.0
H1426 H 0.69946 0.99991 1.00173 0.0
H1427 H 0.69902 0.98163 0.98909 0.0
C1428 C 0.71543 0.01733 0.02485 0.0
C1429 C 0.72902 0.03025 0.02616 0.0
C1430 C 0.71538 0.00696 0.01756 0.0
C1431 C 0.72894 0.00918 0.01139 0.0
C1432 C 0.74255 0.02208 0.01269 0.0
C1433 C 0.74256 0.03253 0.01998 0.0
C1434 C 0.74481 0.9806 0.99304 0.0
C1435 C 0.72829 0.9771 0.98883 0.0
C1436 C 0.74506 0.99105 1.00032 0.0
C1437 C 0.72877 0.99814 1.00361 0.0
C1438 C 0.71224 0.99454 0.99942 0.0
C1439 C 0.71201 0.98419 0.99212 0.0
H1440 H 0.74499 0.56611 0.77797 0.0
H1441 H 0.7185 0.51658 0.77183 0.0
H1442 H 0.76126 0.56531 0.76464 0.0
H1443 H 0.7349 0.51568 0.75849 0.0
H1444 H 0.75292 0.52958 0.73169 0.0
H1445 H 0.7366 0.53008 0.74502 0.0
H1446 H 0.78514 0.54968 0.7574 0.0
H1447 H 0.8012 0.54997 0.744 0.0
C1448 C 0.74277 0.55495 0.77381 0.0
C1449 C 0.73045 0.54139 0.776 0.0
C1450 C 0.75213 0.55447 0.76615 0.0
C1451 C 0.74948 0.5404 0.76047 0.0
C1452 C 0.73711 0.52686 0.76265 0.0
C1453 C 0.7277 0.52736 0.77031 0.0
C1454 C 0.76008 0.53416 0.73724 0.0
C1455 C 0.77839 0.53981 0.73673 0.0
C1456 C 0.75077 0.53424 0.74492 0.0
C1457 C 0.75951 0.53995 0.75231 0.0
C1458 C 0.77788 0.54542 0.75183 0.0
C1459 C 0.78718 0.54536 0.74414 0.0
H1460 H 0.70031 0.51749 0.98554 0.0
H1461 H 0.75332 0.53914 0.99168 0.0
H1462 H 0.70093 0.49981 0.99834 0.0
H1463 H 0.75403 0.52133 1.00448 0.0
H1464 H 0.74009 0.50105 0.03091 0.0
H1465 H 0.73994 0.51868 0.01809 0.0
H1466 H 0.71597 0.47472 1.00459 0.0
H1467 H 0.71535 0.45737 0.01749 0.0
C1468 C 0.71218 0.51836 0.98959 0.0
C1469 C 0.72678 0.52973 0.98757 0.0
C1470 C 0.71256 0.50818 0.99693 0.0
C1471 C 0.72756 0.50905 1.00245 0.0
C1472 C 0.74214 0.52048 1.00044 0.0
C1473 C 0.74173 0.53071 0.9931 0.0
C1474 C 0.73464 0.49518 0.02522 0.0
C1475 C 0.72764 0.47779 0.02527 0.0
C1476 C 0.73477 0.50523 0.01783 0.0
C1477 C 0.7279 0.49817 0.01028 0.0
C1478 C 0.72114 0.48069 0.0103 0.0
C1479 C 0.721 0.47064 0.01769 0.0
H1480 H 0.79999 0.45781 0.26974 0.0
H1481 H 0.75212 0.48011 0.28162 0.0
H1482 H 0.7843 0.45821 0.25624 0.0
H1483 H 0.73614 0.47972 0.2682 0.0
H1484 H 0.71922 0.49322 0.24126 0.0
H1485 H 0.73533 0.49385 0.25468 0.0
H1486 H 0.76011 0.44328 0.24889 0.0
H1487 H 0.74414 0.44276 0.23546 0.0
C1488 C 0.78613 0.46285 0.26948 0.0
C1489 C 0.77735 0.46892 0.2768 0.0
C1490 C 0.77704 0.46287 0.26174 0.0
C1491 C 0.75889 0.46892 0.26111 0.0
C1492 C 0.75015 0.47512 0.26841 0.0
C1493 C 0.75926 0.47513 0.27615 0.0
C1494 C 0.728 0.48218 0.24288 0.0
C1495 C 0.73039 0.46795 0.23727 0.0
C1496 C 0.73725 0.48253 0.25058 0.0
C1497 C 0.74907 0.46863 0.25288 0.0
C1498 C 0.75139 0.45437 0.24728 0.0
C1499 C 0.7422 0.45406 0.23957 0.0
H1500 H 0.78839 0.45778 0.49673 0.0
H1501 H 0.76649 0.50214 0.48282 0.0
H1502 H 0.7874 0.47534 0.50959 0.0
H1503 H 0.76564 0.51972 0.49567 0.0
H1504 H 0.78719 0.55133 0.51844 0.0
H1505 H 0.78671 0.53373 0.50559 0.0
H1506 H 0.76598 0.48887 0.51949 0.0
H1507 H 0.7663 0.50649 0.53234 0.0
C1508 C 0.78316 0.4712 0.49642 0.0
C1509 C 0.77757 0.47853 0.48871 0.0
C1510 C 0.78262 0.48129 0.5038 0.0
C1511 C 0.77649 0.49898 0.50367 0.0
C1512 C 0.77073 0.50625 0.49598 0.0
C1513 C 0.77123 0.49615 0.4886 0.0
C1514 C 0.7823 0.53779 0.51875 0.0
C1515 C 0.77683 0.53035 0.52645 0.0
C1516 C 0.78205 0.52768 0.51137 0.0
C1517 C 0.77635 0.50986 0.5115 0.0
C1518 C 0.77073 0.50246 0.51918 0.0
C1519 C 0.77094 0.51258 0.52656 0.0
H1520 H 0.26317 0.49583 0.23492 0.0
H1521 H 0.2918 0.4487 0.24291 0.0
H1522 H 0.24683 0.49662 0.24827 0.0
H1523 H 0.2753 0.44927 0.2562 0.0
H1524 H 0.25576 0.46434 0.28226 0.0
H1525 H 0.27259 0.46503 0.2691 0.0
H1526 H 0.22364 0.48152 0.25607 0.0
H1527 H 0.20703 0.48178 0.26933 0.0
C1528 C 0.26588 0.48557 0.23951 0.0
C1529 C 0.27882 0.47222 0.23785 0.0
C1530 C 0.25648 0.48598 0.24717 0.0
C1531 C 0.2597 0.473 0.25335 0.0
C1532 C 0.27268 0.45968 0.25167 0.0
C1533 C 0.28214 0.45933 0.24404 0.0
C1534 C 0.24862 0.46839 0.27662 0.0
C1535 C 0.22999 0.47304 0.2769 0.0
C1536 C 0.25824 0.46854 0.26903 0.0
C1537 C 0.2495 0.47325 0.26148 0.0
C1538 C 0.2309 0.47799 0.26175 0.0
C1539 C 0.22129 0.47792 0.26936 0.0
H1540 H 0.30174 0.516 0.98463 0.0
H1541 H 0.25188 0.54224 0.99214 0.0
H1542 H 0.30113 0.49844 0.99746 0.0
H1543 H 0.25117 0.52457 1.00497 0.0
H1544 H 0.26664 0.50349 0.03104 0.0
H1545 H 0.26675 0.52086 0.01816 0.0
H1546 H 0.28475 0.47482 1.00427 0.0
H1547 H 0.28547 0.45766 0.01723 0.0
C1548 C 0.29054 0.5179 0.98898 0.0
C1549 C 0.27685 0.53054 0.98734 0.0
C1550 C 0.29017 0.5078 0.99635 0.0
C1551 C 0.27607 0.51001 1.00227 0.0
C1552 C 0.26238 0.52267 1.00062 0.0
C1553 C 0.26279 0.53282 0.99326 0.0
C1554 C 0.27078 0.49709 0.02526 0.0
C1555 C 0.27615 0.47917 0.02521 0.0
C1556 C 0.27062 0.50702 0.01783 0.0
C1557 C 0.27579 0.49929 0.01015 0.0
C1558 C 0.28092 0.4813 0.01008 0.0
C1559 C 0.28111 0.47137 0.01751 0.0
H1560 H 0.21972 0.51461 0.74171 0.0
H1561 H 0.24372 0.56563 0.73621 0.0
H1562 H 0.23604 0.51385 0.75508 0.0
H1563 H 0.2599 0.56496 0.74958 0.0
H1564 H 0.30047 0.55041 0.7701 0.0
H1565 H 0.2845 0.5501 0.75667 0.0
H1566 H 0.23692 0.52763 0.76872 0.0
H1567 H 0.25319 0.52718 0.78207 0.0
C1568 C 0.22834 0.52575 0.74339 0.0
C1569 C 0.23044 0.54016 0.73786 0.0
C1570 C 0.2377 0.52532 0.75106 0.0
C1571 C 0.24936 0.53932 0.75342 0.0
C1572 C 0.25134 0.55378 0.74791 0.0
C1573 C 0.24202 0.55418 0.74024 0.0
C1574 C 0.28669 0.54517 0.76988 0.0
C1575 C 0.27815 0.53883 0.7772 0.0
C1576 C 0.27743 0.54521 0.76218 0.0
C1577 C 0.25936 0.53892 0.76159 0.0
C1578 C 0.25087 0.53243 0.7689 0.0
C1579 C 0.26014 0.53237 0.77659 0.0
H1580 H 0.2189 0.45829 0.49521 0.0
H1581 H 0.24404 0.50214 0.48212 0.0
H1582 H 0.21888 0.47555 0.50815 0.0
H1583 H 0.24326 0.51969 0.49498 0.0
H1584 H 0.2553 0.54001 0.52159 0.0
H1585 H 0.25669 0.52236 0.50874 0.0
H1586 H 0.20344 0.50051 0.51428 0.0
H1587 H 0.20214 0.51802 0.52712 0.0
C1588 C 0.22451 0.47158 0.49509 0.0
C1589 C 0.23145 0.4788 0.48759 0.0
C1590 C 0.22428 0.48159 0.5025 0.0
C1591 C 0.23097 0.49909 0.50262 0.0
C1592 C 0.23813 0.50623 0.49515 0.0
C1593 C 0.23837 0.49622 0.48774 0.0
C1594 C 0.24384 0.53154 0.52003 0.0
C1595 C 0.22864 0.5304 0.52541 0.0
C1596 C 0.24463 0.5214 0.51266 0.0
C1597 C 0.23021 0.50992 0.51047 0.0
C1598 C 0.21496 0.50891 0.51583 0.0
C1599 C 0.2142 0.519 0.5232 0.0
H1600 H 0.18693 0.0774 0.40709 0.0
H1601 H 0.23822 0.09759 0.39765 0.0
H1602 H 0.17825 0.06857 0.39291 0.0
H1603 H 0.22954 0.08874 0.38346 0.0
H1604 H 0.19645 0.09179 0.35868 0.0
H1605 H 0.2078 0.09792 0.37278 0.0
H1606 H 0.18509 0.04833 0.38148 0.0
H1607 H 0.17372 0.04221 0.36736 0.0
C1608 C 0.1965 0.07968 0.40201 0.0
C1609 C 0.21324 0.08828 0.40352 0.0
C1610 C 0.19152 0.07462 0.39387 0.0
C1611 C 0.20316 0.07801 0.38702 0.0
C1612 C 0.22011 0.0862 0.38856 0.0
C1613 C 0.22509 0.09126 0.3967 0.0
C1614 C 0.19414 0.08205 0.36356 0.0
C1615 C 0.18408 0.06655 0.36189 0.0
C1616 C 0.20065 0.08557 0.37166 0.0
C1617 C 0.19729 0.07367 0.37829 0.0
C1618 C 0.18765 0.05794 0.37656 0.0
C1619 C 0.18114 0.05442 0.36846 0.0
H1620 H 0.22364 0.89429 0.6145 0.0
H1621 H 0.19919 0.94387 0.60682 0.0
H1622 H 0.2154 0.90045 0.62901 0.0
H1623 H 0.19025 0.94968 0.62134 0.0
H1624 H 0.1901 0.96145 0.64958 0.0
H1625 H 0.20191 0.95658 0.63539 0.0
H1626 H 0.1876 0.90112 0.63718 0.0
H1627 H 0.1764 0.90587 0.6514 0.0
C1628 C 0.21667 0.90661 0.6159 0.0
C1629 C 0.21209 0.91858 0.60946 0.0
C1630 C 0.21173 0.91003 0.62423 0.0
C1631 C 0.20203 0.9255 0.62635 0.0
C1632 C 0.19783 0.9377 0.61995 0.0
C1633 C 0.20277 0.93427 0.6116 0.0
C1634 C 0.18973 0.94818 0.64698 0.0
C1635 C 0.18225 0.93406 0.65162 0.0
C1636 C 0.19632 0.94543 0.63882 0.0
C1637 C 0.19568 0.92847 0.63513 0.0
C1638 C 0.1885 0.91432 0.63984 0.0
C1639 C 0.18188 0.91708 0.64797 0.0
H1640 H 0.31011 0.89274 0.90035 0.0
H1641 H 0.29371 0.94655 0.90585 0.0
H1642 H 0.31705 0.90121 0.88597 0.0
H1643 H 0.29994 0.95489 0.8913 0.0
H1644 H 0.33558 0.96661 0.86785 0.0
H1645 H 0.32587 0.95916 0.88206 0.0
H1646 H 0.30303 0.90993 0.87294 0.0
H1647 H 0.31344 0.91703 0.8588 0.0
C1648 C 0.30797 0.9064 0.89849 0.0
C1649 C 0.30151 0.91899 0.9043 0.0
C1650 C 0.3117 0.9112 0.89019 0.0
C1651 C 0.30902 0.92873 0.88745 0.0
C1652 C 0.30233 0.94131 0.89322 0.0
C1653 C 0.29859 0.93649 0.90154 0.0
C1654 C 0.3285 0.95418 0.86888 0.0
C1655 C 0.32545 0.94235 0.86218 0.0
C1656 C 0.32274 0.94999 0.87702 0.0
C1657 C 0.31377 0.93387 0.87867 0.0
C1658 C 0.31015 0.92233 0.87192 0.0
C1659 C 0.31592 0.92651 0.86378 0.0
H1660 H 0.27259 0.10025 0.11588 0.0
H1661 H 0.31998 0.0745 0.10522 0.0
H1662 H 0.28258 0.09169 0.12991 0.0
H1663 H 0.32956 0.0653 0.11922 0.0
H1664 H 0.35335 0.0735 0.14556 0.0
H1665 H 0.34209 0.07967 0.1315 0.0
H1666 H 0.28719 0.06696 0.13948 0.0
H1667 H 0.29852 0.06077 0.15363 0.0
C1668 C 0.28507 0.09264 0.11652 0.0
C1669 C 0.29556 0.0882 0.10941 0.0
C1670 C 0.29069 0.08756 0.12457 0.0
C1671 C 0.30695 0.07791 0.12572 0.0
C1672 C 0.31711 0.07296 0.11858 0.0
C1673 C 0.31149 0.07804 0.11054 0.0
C1674 C 0.33891 0.07178 0.14431 0.0
C1675 C 0.32687 0.06654 0.15073 0.0
C1676 C 0.33244 0.07531 0.13622 0.0
C1677 C 0.31374 0.0737 0.13432 0.0
C1678 C 0.30165 0.0685 0.14074 0.0
C1679 C 0.30814 0.06496 0.14885 0.0
H1680 H 0.77306 0.90869 0.6158 0.0
H1681 H 0.82004 0.93549 0.60537 0.0
H1682 H 0.78279 0.91711 0.6299 0.0
H1683 H 0.82935 0.94455 0.61943 0.0
H1684 H 0.8531 0.93625 0.64577 0.0
H1685 H 0.84207 0.93021 0.63165 0.0
H1686 H 0.78686 0.94164 0.63962 0.0
H1687 H 0.79796 0.94769 0.65382 0.0
C1688 C 0.78539 0.91649 0.61651 0.0
C1689 C 0.79584 0.92127 0.60944 0.0
C1690 C 0.79087 0.9215 0.6246 0.0
C1691 C 0.80694 0.9314 0.62582 0.0
C1692 C 0.81705 0.93668 0.61873 0.0
C1693 C 0.81158 0.93168 0.61065 0.0
C1694 C 0.83863 0.93771 0.6445 0.0
C1695 C 0.82644 0.94255 0.65094 0.0
C1696 C 0.83229 0.93426 0.63638 0.0
C1697 C 0.81358 0.93554 0.63446 0.0
C1698 C 0.80134 0.94036 0.6409 0.0
C1699 C 0.8077 0.94381 0.64904 0.0
H1700 H 0.77032 0.09539 0.39875 0.0
H1701 H 0.82259 0.07698 0.40788 0.0
H1702 H 0.77885 0.08671 0.38451 0.0
H1703 H 0.8311 0.0683 0.39367 0.0
H1704 H 0.8356 0.04179 0.36815 0.0
H1705 H 0.82451 0.04771 0.38232 0.0
H1706 H 0.79996 0.09651 0.37368 0.0
H1707 H 0.81105 0.09059 0.35952 0.0
C1708 C 0.78364 0.08949 0.39772 0.0
C1709 C 0.7958 0.08697 0.40447 0.0
C1710 C 0.78853 0.08452 0.38956 0.0
C1711 C 0.8057 0.07688 0.38792 0.0
C1712 C 0.81767 0.07392 0.3947 0.0
C1713 C 0.81278 0.0789 0.40287 0.0
C1714 C 0.82784 0.05379 0.36927 0.0
C1715 C 0.82431 0.06576 0.36269 0.0
C1716 C 0.82149 0.05719 0.3774 0.0
C1717 C 0.81143 0.07264 0.37917 0.0
C1718 C 0.80747 0.08437 0.37254 0.0
C1719 C 0.81382 0.08097 0.3644 0.0
H1720 H 0.68635 0.07271 0.10558 0.0
H1721 H 0.73347 0.09918 0.11611 0.0
H1722 H 0.67704 0.06348 0.11961 0.0
H1723 H 0.72373 0.09059 0.13018 0.0
H1724 H 0.70856 0.05984 0.15399 0.0
H1725 H 0.71961 0.06595 0.13979 0.0
H1726 H 0.66441 0.07765 0.13189 0.0
H1727 H 0.65342 0.07154 0.146 0.0
C1728 C 0.69484 0.07641 0.11087 0.0
C1729 C 0.71061 0.08678 0.1097 0.0
C1730 C 0.68937 0.07131 0.11894 0.0
C1731 C 0.69952 0.07644 0.12605 0.0
C1732 C 0.71563 0.08631 0.12485 0.0
C1733 C 0.7211 0.09141 0.11679 0.0
C1734 C 0.69881 0.06378 0.14922 0.0
C1735 C 0.68009 0.0651 0.15114 0.0
C1736 C 0.70514 0.06728 0.14108 0.0
C1737 C 0.69289 0.0722 0.13467 0.0
C1738 C 0.67419 0.07352 0.13661 0.0
C1739 C 0.66788 0.07003 0.14472 0.0
H1740 H 0.73779 0.91474 0.8987 0.0
H1741 H 0.68546 0.9329 0.90787 0.0
H1742 H 0.72929 0.92366 0.8845 0.0
H1743 H 0.67698 0.94183 0.89369 0.0
H1744 H 0.67251 0.96876 0.86828 0.0
H1745 H 0.68362 0.96264 0.88243 0.0
H1746 H 0.70815 0.91396 0.87361 0.0
H1747 H 0.69703 0.92007 0.85947 0.0
C1748 C 0.72447 0.92064 0.89769 0.0
C1749 C 0.71228 0.92302 0.90443 0.0
C1750 C 0.71959 0.92574 0.88954 0.0
C1751 C 0.70241 0.93338 0.88793 0.0
C1752 C 0.69042 0.9362 0.89471 0.0
C1753 C 0.69529 0.93109 0.90286 0.0
C1754 C 0.68027 0.95674 0.86936 0.0
C1755 C 0.68378 0.94486 0.86274 0.0
C1756 C 0.68663 0.95323 0.87748 0.0
C1757 C 0.69669 0.93776 0.87918 0.0
C1758 C 0.70065 0.92612 0.87251 0.0
C1759 C 0.69427 0.92963 0.86439 0.0
H1760 H 0.65334 0.5667 0.86723 0.0
H1761 H 0.70861 0.55488 0.85949 0.0
H1762 H 0.66409 0.57301 0.88136 0.0
H1763 H 0.71931 0.56046 0.87379 0.0
H1764 H 0.73323 0.59433 0.89725 0.0
H1765 H 0.72369 0.5852 0.88323 0.0
H1766 H 0.67622 0.55947 0.89382 0.0
H1767 H 0.68533 0.56929 0.90779 0.0
C1768 C 0.6678 0.56542 0.86854 0.0
C1769 C 0.68012 0.56044 0.86218 0.0
C1770 C 0.67395 0.56879 0.8767 0.0
C1771 C 0.69258 0.56723 0.87874 0.0
C1772 C 0.70489 0.56198 0.87242 0.0
C1773 C 0.69873 0.5586 0.86423 0.0
C1774 C 0.72073 0.58675 0.89659 0.0
C1775 C 0.70997 0.58271 0.90366 0.0
C1776 C 0.71537 0.58132 0.88855 0.0
C1777 C 0.6991 0.57169 0.88737 0.0
C1778 C 0.68868 0.56711 0.89447 0.0
C1779 C 0.69403 0.57255 0.90251 0.0
H1780 H 0.72866 0.43691 0.11113 0.0
H1781 H 0.6743 0.41506 0.10887 0.0
H1782 H 0.72113 0.44803 0.12515 0.0
H1783 H 0.66699 0.42562 0.12291 0.0
H1784 H 0.65315 0.46044 0.145 0.0
H1785 H 0.66155 0.45261 0.1307 0.0
H1786 H 0.71505 0.43649 0.13928 0.0
H1787 H 0.70689 0.44504 0.1536 0.0
C1788 C 0.71508 0.43458 0.1136 0.0
C1789 C 0.70211 0.42505 0.10888 0.0
C1790 C 0.71083 0.44078 0.12166 0.0
C1791 C 0.69346 0.4377 0.12517 0.0
C1792 C 0.68043 0.42841 0.12039 0.0
C1793 C 0.68469 0.42218 0.11236 0.0
C1794 C 0.66683 0.45554 0.14384 0.0
C1795 C 0.67934 0.45339 0.15048 0.0
C1796 C 0.67157 0.45083 0.13564 0.0
C1797 C 0.68893 0.44379 0.13383 0.0
C1798 C 0.7016 0.44199 0.14043 0.0
C1799 C 0.69685 0.4467 0.14866 0.0
H1800 H 0.77825 0.43842 0.40324 0.0
H1801 H 0.83169 0.41438 0.40507 0.0
H1802 H 0.78593 0.44967 0.38927 0.0
H1803 H 0.83913 0.42508 0.39106 0.0
H1804 H 0.85398 0.46018 0.36923 0.0
H1805 H 0.84552 0.45217 0.38351 0.0
H1806 H 0.79128 0.43834 0.375 0.0
H1807 H 0.79953 0.44706 0.36072 0.0
C1808 C 0.79166 0.43563 0.40069 0.0
C1809 C 0.80433 0.42545 0.40526 0.0
C1810 C 0.79599 0.44191 0.39264 0.0
C1811 C 0.81314 0.43827 0.38903 0.0
C1812 C 0.82588 0.42832 0.39368 0.0
C1813 C 0.82153 0.422 0.40168 0.0
C1814 C 0.84013 0.45575 0.37041 0.0
C1815 C 0.82744 0.45429 0.3638 0.0
C1816 C 0.83535 0.45094 0.37859 0.0
C1817 C 0.81776 0.44448 0.3804 0.0
C1818 C 0.80491 0.44338 0.37384 0.0
C1819 C 0.80971 0.44819 0.36563 0.0
H1820 H 0.7912 0.55812 0.60807 0.0
H1821 H 0.80498 0.6117 0.61533 0.0
H1822 H 0.79945 0.54773 0.62211 0.0
H1823 H 0.81318 0.60137 0.62929 0.0
H1824 H 0.81134 0.58075 0.65585 0.0
H1825 H 0.80008 0.58954 0.64205 0.0
H1826 H 0.82624 0.54381 0.63097 0.0
H1827 H 0.83689 0.53463 0.64482 0.0
C1828 C 0.79606 0.56767 0.61264 0.0
C1829 C 0.79734 0.58576 0.61057 0.0
C1830 C 0.80077 0.56172 0.62069 0.0
C1831 C 0.80689 0.57372 0.62686 0.0
C1832 C 0.80816 0.5918 0.62477 0.0
C1833 C 0.80346 0.59773 0.61674 0.0
C1834 C 0.81441 0.57238 0.6505 0.0
C1835 C 0.82511 0.55702 0.65145 0.0
C1836 C 0.80814 0.57754 0.64257 0.0
C1837 C 0.8124 0.56749 0.63538 0.0
C1838 C 0.82261 0.55183 0.63637 0.0
C1839 C 0.82889 0.54667 0.6443 0.0
H1840 H 0.30755 0.45031 0.1075 0.0
H1841 H 0.28456 0.40088 0.11627 0.0
H1842 H 0.31636 0.45777 0.12187 0.0
H1843 H 0.29264 0.40869 0.13062 0.0
H1844 H 0.3313 0.41745 0.15291 0.0
H1845 H 0.32026 0.41094 0.13882 0.0
H1846 H 0.30457 0.46579 0.13572 0.0
H1847 H 0.31625 0.47243 0.14977 0.0
C1848 C 0.30427 0.44108 0.11248 0.0
C1849 C 0.2954 0.42496 0.11069 0.0
C1850 C 0.30913 0.44546 0.12074 0.0
C1851 C 0.30527 0.4338 0.12741 0.0
C1852 C 0.29604 0.41788 0.12563 0.0
C1853 C 0.29119 0.41351 0.1174 0.0
C1854 C 0.32555 0.42815 0.14922 0.0
C1855 C 0.32476 0.44548 0.15246 0.0
C1856 C 0.31902 0.42437 0.14116 0.0
C1857 C 0.31151 0.43784 0.13612 0.0
C1858 C 0.31044 0.45514 0.1394 0.0
C1859 C 0.31694 0.45891 0.14749 0.0
H1860 H 0.30128 0.61213 0.89845 0.0
H1861 H 0.28883 0.55828 0.90572 0.0
H1862 H 0.30981 0.60192 0.8845 0.0
H1863 H 0.29741 0.54802 0.8917 0.0
H1864 H 0.33562 0.53567 0.86919 0.0
H1865 H 0.32444 0.5447 0.88297 0.0
H1866 H 0.2973 0.58967 0.87169 0.0
H1867 H 0.30909 0.58103 0.85797 0.0
C1868 C 0.30011 0.59812 0.89704 0.0
C1869 C 0.29428 0.58604 0.90322 0.0
C1870 C 0.305 0.59226 0.88902 0.0
C1871 C 0.30422 0.57415 0.88695 0.0
C1872 C 0.29836 0.56204 0.89311 0.0
C1873 C 0.29345 0.56792 0.90115 0.0
C1874 C 0.32729 0.54751 0.86965 0.0
C1875 C 0.3234 0.5577 0.86247 0.0
C1876 C 0.3207 0.55258 0.87754 0.0
C1877 C 0.31006 0.56798 0.87846 0.0
C1878 C 0.30568 0.57787 0.87124 0.0
C1879 C 0.31226 0.57279 0.86334 0.0
H1880 H 0.20682 0.56673 0.65416 0.0
H1881 H 0.15549 0.54545 0.64527 0.0
H1882 H 0.21485 0.57504 0.6398 0.0
H1883 H 0.16382 0.55307 0.63093 0.0
H1884 H 0.17395 0.59015 0.60862 0.0
H1885 H 0.16689 0.57989 0.62274 0.0
H1886 H 0.22292 0.56311 0.62596 0.0
H1887 H 0.23013 0.57394 0.61186 0.0
C1888 C 0.1973 0.56373 0.64915 0.0
C1889 C 0.18048 0.55546 0.6509 0.0
C1890 C 0.20199 0.56831 0.6409 0.0
C1891 C 0.18995 0.56479 0.63421 0.0
C1892 C 0.17332 0.55619 0.63594 0.0
C1893 C 0.16864 0.55161 0.64417 0.0
C1894 C 0.18479 0.58433 0.61234 0.0
C1895 C 0.20263 0.58296 0.60912 0.0
C1896 C 0.1807 0.57826 0.62042 0.0
C1897 C 0.19433 0.57065 0.6255 0.0
C1898 C 0.21214 0.56905 0.62224 0.0
C1899 C 0.21622 0.57508 0.61413 0.0
H1900 H 0.23039 0.40926 0.39687 0.0
H1901 H 0.19141 0.44493 0.40829 0.0
H1902 H 0.22091 0.41925 0.383 0.0
H1903 H 0.18253 0.45554 0.39441 0.0
H1904 H 0.1541 0.45108 0.36875 0.0
H1905 H 0.16553 0.44425 0.38271 0.0
H1906 H 0.22075 0.44334 0.37309 0.0
H1907 H 0.20916 0.44939 0.35899 0.0
C1908 C 0.21989 0.41935 0.39643 0.0
C1909 C 0.21153 0.42613 0.40371 0.0
C1910 C 0.21462 0.42525 0.38846 0.0
C1911 C 0.20086 0.43814 0.38756 0.0
C1912 C 0.19297 0.4454 0.39486 0.0
C1913 C 0.19823 0.43947 0.40283 0.0
C1914 C 0.16868 0.44932 0.36959 0.0
C1915 C 0.18067 0.45059 0.36271 0.0
C1916 C 0.17528 0.44565 0.37764 0.0
C1917 C 0.19409 0.44322 0.37906 0.0
C1918 C 0.20616 0.44492 0.37222 0.0
C1919 C 0.19954 0.44858 0.36414 0.0
H1920 H 0.0504 0.02983 0.31133 0.0
H1921 H 0.04925 0.07783 0.29656 0.0
H1922 H 0.01704 0.02937 0.31155 0.0
H1923 H 0.01595 0.07753 0.29685 0.0
H1924 H 0.95747 0.06117 0.29106 0.0
H1925 H 0.99071 0.06135 0.29115 0.0
H1926 H 0.99053 0.04432 0.31706 0.0
H1927 H 0.95721 0.04328 0.31684 0.0
C1928 C 0.04302 0.04039 0.30821 0.0
C1929 C 0.05249 0.05381 0.30389 0.0
C1930 C 0.02388 0.04015 0.30834 0.0
C1931 C 0.01375 0.05337 0.30418 0.0
C1932 C 0.02327 0.06693 0.29998 0.0
C1933 C 0.04237 0.06712 0.29982 0.0
C1934 C 0.96449 0.05724 0.29675 0.0
C1935 C 0.9546 0.05215 0.30393 0.0
C1936 C 0.9836 0.05758 0.29684 0.0
C1937 C 0.99336 0.05292 0.30412 0.0
C1938 C 0.98349 0.04783 0.31131 0.0
C1939 C 0.96435 0.04744 0.31121 0.0
H1940 H 0.22211 0.79905 0.56212 0.0
H1941 H 0.25262 0.79756 0.5389 0.0
H1942 H 0.22301 0.76679 0.56282 0.0
H1943 H 0.25271 0.76529 0.53938 0.0
H1944 H 0.26477 0.70809 0.54667 0.0
H1945 H 0.26541 0.74044 0.5467 0.0
H1946 H 0.20997 0.74137 0.55607 0.0
H1947 H 0.20947 0.70906 0.55613 0.0
C1948 C 0.22907 0.79187 0.55718 0.0
C1949 C 0.23728 0.80097 0.55045 0.0
C1950 C 0.22938 0.77332 0.55752 0.0
C1951 C 0.23786 0.76337 0.55114 0.0
C1952 C 0.24622 0.77249 0.54446 0.0
C1953 C 0.24595 0.79103 0.54412 0.0
C1954 C 0.25271 0.71522 0.5487 0.0
C1955 C 0.23706 0.70598 0.55138 0.0
C1956 C 0.25305 0.73378 0.54871 0.0
C1957 C 0.23773 0.74358 0.55137 0.0
C1958 C 0.22214 0.73431 0.55411 0.0
C1959 C 0.22183 0.71575 0.55414 0.0
H1960 H 0.45836 0.97382 0.79219 0.0
H1961 H 0.45726 0.94736 0.81625 0.0
H1962 H 0.4916 0.97415 0.79259 0.0
H1963 H 0.49052 0.9485 0.81685 0.0
H1964 H 0.55018 0.93509 0.81037 0.0
H1965 H 0.51685 0.93525 0.81044 0.0
H1966 H 0.51706 0.98771 0.79951 0.0
H1967 H 0.55039 0.9874 0.79934 0.0
C1968 C 0.46519 0.96809 0.79758 0.0
C1969 C 0.45507 0.96048 0.80417 0.0
C1970 C 0.48429 0.96849 0.79786 0.0
C1971 C 0.49381 0.96137 0.80476 0.0
C1972 C 0.48369 0.95392 0.8114 0.0
C1973 C 0.46457 0.95347 0.8111 0.0
C1974 C 0.5431 0.94673 0.80806 0.0
C1975 C 0.55295 0.96121 0.80482 0.0
C1976 C 0.52397 0.94684 0.80811 0.0
C1977 C 0.5142 0.96147 0.80496 0.0
C1978 C 0.52409 0.97607 0.80184 0.0
C1979 C 0.54321 0.97591 0.80175 0.0
H1980 H 0.24518 0.211 0.05719 0.0
H1981 H 0.29705 0.21222 0.04425 0.0
H1982 H 0.24507 0.2434 0.05777 0.0
H1983 H 0.29677 0.24458 0.04469 0.0
H1984 H 0.29936 0.30122 0.05512 0.0
H1985 H 0.29926 0.26883 0.05513 0.0
H1986 H 0.2423 0.26895 0.04798 0.0
H1987 H 0.24231 0.30137 0.04813 0.0
C1988 C 0.25658 0.21818 0.05449 0.0
C1989 C 0.27111 0.20903 0.05066 0.0
C1990 C 0.25644 0.23675 0.05476 0.0
C1991 C 0.27091 0.24657 0.05128 0.0
C1992 C 0.28549 0.23741 0.0475 0.0
C1993 C 0.28556 0.21887 0.04717 0.0
C1994 C 0.28677 0.29434 0.05363 0.0
C1995 C 0.27084 0.30388 0.05162 0.0
C1996 C 0.28676 0.27578 0.05356 0.0
C1997 C 0.27079 0.26631 0.05153 0.0
C1998 C 0.25479 0.27585 0.04963 0.0
C1999 C 0.25484 0.29441 0.04964 0.0
H2000 H 0.95731 0.94983 0.72293 0.0
H2001 H 0.95675 0.96559 0.69684 0.0
H2002 H 0.99054 0.94958 0.72276 0.0
H2003 H 0.99005 0.96444 0.69656 0.0
H2004 H 0.05011 0.97899 0.70179 0.0
H2005 H 0.01674 0.97964 0.70167 0.0
H2006 H 0.01561 0.93286 0.71733 0.0
H2007 H 0.0489 0.93241 0.71754 0.0
C2008 C 0.96425 0.95328 0.71716 0.0
C2009 C 0.95427 0.95779 0.70991 0.0
C2010 C 0.98336 0.95289 0.71703 0.0
C2011 C 0.99304 0.95691 0.70964 0.0
C2012 C 0.98308 0.96143 0.70238 0.0
C2013 C 0.96395 0.96188 0.70252 0.0
C2014 C 0.04271 0.96878 0.70515 0.0
C2015 C 0.05217 0.95571 0.70971 0.0
C2016 C 0.02357 0.96912 0.70507 0.0
C2017 C 0.01343 0.95635 0.70953 0.0
C2018 C 0.02293 0.94313 0.71398 0.0
C2019 C 0.04204 0.94284 0.71409 0.0
H2020 H 0.29701 0.79864 0.95794 0.0
H2021 H 0.24199 0.7992 0.96776 0.0
H2022 H 0.29647 0.76633 0.95766 0.0
H2023 H 0.24132 0.76686 0.96738 0.0
H2024 H 0.25408 0.70927 0.97434 0.0
H2025 H 0.25415 0.74156 0.9743 0.0
H2026 H 0.28316 0.74135 0.95066 0.0
H2027 H 0.28391 0.70906 0.95092 0.0
C2028 C 0.28471 0.79186 0.95994 0.0
C2029 C 0.26956 0.80152 0.96288 0.0
C2030 C 0.28438 0.77331 0.95977 0.0
C2031 C 0.26885 0.76392 0.9625 0.0
C2032 C 0.25363 0.77361 0.96537 0.0
C2033 C 0.254 0.79216 0.96557 0.0
C2034 C 0.26064 0.7161 0.96917 0.0
C2035 C 0.26906 0.70649 0.96265 0.0
C2036 C 0.26046 0.73465 0.96909 0.0
C2037 C 0.26866 0.74413 0.96248 0.0
C2038 C 0.27691 0.73453 0.95591 0.0
C2039 C 0.27713 0.71597 0.956 0.0
H2040 H 0.45726 0.02214 0.21475 0.0
H2041 H 0.4576 0.07424 0.2035 0.0
H2042 H 0.49059 0.02174 0.21457 0.0
H2043 H 0.49093 0.07399 0.20343 0.0
H2044 H 0.55046 0.06155 0.1976 0.0
H2045 H 0.51718 0.06054 0.19704 0.0
H2046 H 0.51611 0.03535 0.22141 0.0
H2047 H 0.54936 0.03554 0.22177 0.0
C2048 C 0.46446 0.03356 0.21229 0.0
C2049 C 0.45477 0.04823 0.20916 0.0
C2050 C 0.48358 0.03335 0.2122 0.0
C2051 C 0.49351 0.04786 0.20902 0.0
C2052 C 0.48378 0.06247 0.20581 0.0
C2053 C 0.46465 0.06263 0.20586 0.0
C2054 C 0.54314 0.05556 0.20279 0.0
C2055 C 0.55265 0.04864 0.20974 0.0
C2056 C 0.52402 0.05519 0.20252 0.0
C2057 C 0.5139 0.04791 0.20919 0.0
C2058 C 0.52342 0.04088 0.21611 0.0
C2059 C 0.54253 0.04121 0.21637 0.0
H2060 H 0.24473 0.30079 0.44963 0.0
H2061 H 0.23161 0.30055 0.4761 0.0
H2062 H 0.24496 0.26843 0.4496 0.0
H2063 H 0.2321 0.26825 0.47607 0.0
H2064 H 0.25321 0.2111 0.47465 0.0
H2065 H 0.25366 0.24343 0.4745 0.0
H2066 H 0.22354 0.24335 0.45116 0.0
H2067 H 0.22286 0.21102 0.45135 0.0
C2068 C 0.24178 0.29387 0.45543 0.0
C2069 C 0.23816 0.30335 0.46287 0.0
C2070 C 0.24194 0.2753 0.45541 0.0
C2071 C 0.23858 0.26574 0.46284 0.0
C2072 C 0.23504 0.2752 0.47027 0.0
C2073 C 0.23479 0.29375 0.47029 0.0
C2074 C 0.24653 0.21795 0.46952 0.0
C2075 C 0.23795 0.20839 0.46303 0.0
C2076 C 0.24682 0.2365 0.46943 0.0
C2077 C 0.23861 0.24599 0.46283 0.0
C2078 C 0.23021 0.23645 0.45629 0.0
C2079 C 0.22985 0.21789 0.45639 0.0
H2080 H 0.74297 0.21025 0.46816 0.0
H2081 H 0.79784 0.21075 0.45818 0.0
H2082 H 0.7424 0.24259 0.46789 0.0
H2083 H 0.79744 0.24307 0.45803 0.0
H2084 H 0.78523 0.30047 0.45157 0.0
H2085 H 0.78432 0.2682 0.45119 0.0
H2086 H 0.75523 0.2678 0.47481 0.0
H2087 H 0.75527 0.30007 0.47496 0.0
C2088 C 0.75497 0.21728 0.46597 0.0
C2089 C 0.77045 0.20791 0.46319 0.0
C2090 C 0.75467 0.23584 0.46582 0.0
C2091 C 0.76989 0.24552 0.46295 0.0
C2092 C 0.78535 0.2361 0.46015 0.0
C2093 C 0.7856 0.21755 0.46025 0.0
C2094 C 0.77839 0.29353 0.45662 0.0
C2095 C 0.77033 0.30295 0.4633 0.0
C2096 C 0.77808 0.27497 0.45647 0.0
C2097 C 0.76977 0.26531 0.46299 0.0
C2098 C 0.76159 0.27474 0.46963 0.0
C2099 C 0.76183 0.2933 0.46977 0.0
H2100 H 0.75028 0.70833 0.97443 0.0
H2101 H 0.72247 0.70817 0.95048 0.0
H2102 H 0.75057 0.7406 0.97432 0.0
H2103 H 0.72362 0.74044 0.95016 0.0
H2104 H 0.70982 0.79797 0.95705 0.0
H2105 H 0.71005 0.76565 0.95681 0.0
H2106 H 0.76422 0.76571 0.96766 0.0
H2107 H 0.76382 0.79806 0.96801 0.0
C2108 C 0.74425 0.71516 0.96913 0.0
C2109 C 0.73627 0.70557 0.96248 0.0
C2110 C 0.74464 0.73371 0.96901 0.0
C2111 C 0.73712 0.7432 0.96224 0.0
C2112 C 0.72934 0.73362 0.95554 0.0
C2113 C 0.72889 0.71506 0.95567 0.0
C2114 C 0.72185 0.79108 0.95931 0.0
C2115 C 0.73679 0.8006 0.96256 0.0
C2116 C 0.722 0.77253 0.95916 0.0
C2117 C 0.73715 0.763 0.96222 0.0
C2118 C 0.75218 0.77256 0.96539 0.0
C2119 C 0.75198 0.79112 0.96558 0.0
H2120 H 0.72136 0.29996 0.06255 0.0
H2121 H 0.75128 0.29962 0.03915 0.0
H2122 H 0.72243 0.2677 0.06293 0.0
H2123 H 0.75148 0.26734 0.0393 0.0
H2124 H 0.76405 0.20988 0.04598 0.0
H2125 H 0.76445 0.24223 0.04622 0.0
H2126 H 0.70943 0.24247 0.0561 0.0
H2127 H 0.7092 0.21016 0.05598 0.0
C2128 C 0.72823 0.29303 0.05749 0.0
C2129 C 0.73622 0.30247 0.05081 0.0
C2130 C 0.72863 0.27448 0.05765 0.0
C2131 C 0.73697 0.26484 0.05112 0.0
C2132 C 0.7451 0.27428 0.04448 0.0
C2133 C 0.74476 0.29283 0.04434 0.0
C2134 C 0.75202 0.21686 0.04817 0.0
C2135 C 0.7366 0.20743 0.05096 0.0
C2136 C 0.75223 0.23542 0.0483 0.0
C2137 C 0.73696 0.24504 0.05117 0.0
C2138 C 0.72156 0.23556 0.05399 0.0
C2139 C 0.7214 0.21701 0.0539 0.0
H2140 H 0.79529 0.79814 0.54164 0.0
H2141 H 0.7491 0.79927 0.55851 0.0
H2142 H 0.79506 0.76584 0.54195 0.0
H2143 H 0.74868 0.76691 0.55876 0.0
H2144 H 0.76479 0.70922 0.56382 0.0
H2145 H 0.7653 0.74154 0.56372 0.0
H2146 H 0.77771 0.74093 0.53719 0.0
H2147 H 0.77814 0.70868 0.53738 0.0
C2148 C 0.78496 0.79148 0.54535 0.0
C2149 C 0.77218 0.8013 0.55003 0.0
C2150 C 0.7848 0.77293 0.54553 0.0
C2151 C 0.7718 0.7637 0.55036 0.0
C2152 C 0.75906 0.77354 0.55506 0.0
C2153 C 0.75927 0.79211 0.55492 0.0
C2154 C 0.76782 0.71597 0.55798 0.0
C2155 C 0.77146 0.70627 0.55061 0.0
C2156 C 0.76788 0.73454 0.5579 0.0
C2157 C 0.77155 0.74391 0.55045 0.0
C2158 C 0.77507 0.7342 0.54308 0.0
C2159 C 0.77506 0.71566 0.54316 0.0
H2160 H 0.54964 0.5171 0.79313 0.0
H2161 H 0.55102 0.5476 0.81611 0.0
H2162 H 0.5164 0.51674 0.79364 0.0
H2163 H 0.51778 0.54644 0.81686 0.0
H2164 H 0.4581 0.55882 0.81005 0.0
H2165 H 0.49142 0.55858 0.81005 0.0
H2166 H 0.49096 0.50449 0.80105 0.0
H2167 H 0.45762 0.50487 0.80093 0.0
C2168 C 0.54287 0.52371 0.79831 0.0
C2169 C 0.55308 0.53246 0.80455 0.0
C2170 C 0.52377 0.52329 0.79866 0.0
C2171 C 0.51434 0.53156 0.8053 0.0
C2172 C 0.52455 0.54012 0.8116 0.0
C2173 C 0.54366 0.54059 0.81123 0.0
C2174 C 0.46512 0.54682 0.80815 0.0
C2175 C 0.4552 0.53188 0.80547 0.0
C2176 C 0.48425 0.54666 0.80817 0.0
C2177 C 0.49395 0.53152 0.80554 0.0
C2178 C 0.48398 0.51649 0.80297 0.0
C2179 C 0.46486 0.51669 0.80292 0.0
H2180 H 0.04838 0.503 0.3019 0.0
H2181 H 0.04946 0.44814 0.30966 0.0
H2182 H 0.01499 0.50252 0.30212 0.0
H2183 H 0.0161 0.44777 0.31006 0.0
H2184 H 0.95744 0.44834 0.29941 0.0
H2185 H 0.99078 0.44904 0.29981 0.0
H2186 H 0.989 0.50011 0.31208 0.0
H2187 H 0.95559 0.49956 0.31154 0.0
C2188 C 0.04149 0.49085 0.30366 0.0
C2189 C 0.05158 0.47559 0.30574 0.0
C2190 C 0.02236 0.49062 0.30387 0.0
C2191 C 0.01288 0.47509 0.30609 0.0
C2192 C 0.02298 0.45989 0.30824 0.0
C2193 C 0.0421 0.46016 0.30809 0.0
C2194 C 0.96416 0.45975 0.30216 0.0
C2195 C 0.95386 0.47392 0.30542 0.0
C2196 C 0.98326 0.46007 0.30246 0.0
C2197 C 0.99254 0.47462 0.30598 0.0
C2198 C 0.98226 0.48877 0.30927 0.0
C2199 C 0.96313 0.48839 0.30903 0.0
H2200 H 0.4581 0.4807 0.19623 0.0
H2201 H 0.45874 0.4706 0.22295 0.0
H2202 H 0.49143 0.47967 0.196 0.0
H2203 H 0.49197 0.47044 0.22278 0.0
H2204 H 0.55019 0.45187 0.21829 0.0
H2205 H 0.51691 0.45242 0.21807 0.0
H2206 H 0.51819 0.49597 0.20045 0.0
H2207 H 0.55157 0.49527 0.20061 0.0
C2208 C 0.46533 0.47827 0.20206 0.0
C2209 C 0.45568 0.47572 0.20961 0.0
C2210 C 0.48447 0.47789 0.20194 0.0
C2211 C 0.49444 0.47494 0.20937 0.0
C2212 C 0.48477 0.4725 0.21692 0.0
C2213 C 0.46567 0.47284 0.21703 0.0
C2214 C 0.54337 0.46164 0.2144 0.0
C2215 C 0.55355 0.47359 0.2095 0.0
C2216 C 0.52427 0.46198 0.21429 0.0
C2217 C 0.51482 0.47432 0.20929 0.0
C2218 C 0.525 0.48615 0.2043 0.0
C2219 C 0.54414 0.48576 0.2044 0.0
H2220 H 0.95792 0.5462 0.69715 0.0
H2221 H 0.95879 0.5172 0.72055 0.0
H2222 H 0.9912 0.54519 0.69662 0.0
H2223 H 0.99204 0.517 0.72024 0.0
H2224 H 0.05108 0.50497 0.71349 0.0
H2225 H 0.01775 0.50439 0.71314 0.0
H2226 H 0.0173 0.55791 0.70344 0.0
H2227 H 0.05062 0.55834 0.70368 0.0
C2228 C 0.96519 0.53955 0.70217 0.0
C2229 C 0.95561 0.5318 0.7089 0.0
C2230 C 0.98431 0.53917 0.70192 0.0
C2231 C 0.99437 0.53107 0.7084 0.0
C2232 C 0.98479 0.52319 0.71509 0.0
C2233 C 0.96568 0.52352 0.71532 0.0
C2234 C 0.04384 0.51662 0.7113 0.0
C2235 C 0.05351 0.53171 0.70863 0.0
C2236 C 0.02472 0.51631 0.71112 0.0
C2237 C 0.01477 0.53113 0.70829 0.0
C2238 C 0.02447 0.54615 0.70553 0.0
C2239 C 0.0436 0.54642 0.70568 0.0
loop_
_geom_bond_atom_site_label_1
_geom_bond_atom_site_label_2
_geom_bond_distance
_geom_bond_site_symmetry_2
_ccdc_geom_bond_type
C0 C1 1.264 . S
C0 C5 1.479 . S
C0 C10 1.465 . S
C1 C0 1.264 . S
C1 C3 1.339 . S
C1 H28 0.931 . S
C2 C3 1.395 . S
C2 C4 1.320 . S
C3 C1 1.339 . S
C3 C2 1.395 . S
C3 H29 0.929 . S
C4 C2 1.320 . S
C4 C5 1.405 . S
C4 H30 0.930 . S
C5 C0 1.479 . S
C5 C4 1.405 . S
C5 H31 0.931 . S
U6 O7 2.454 . S
U6 O8 2.458 . S
U6 C9 2.984 . S
U6 C10 2.847 . S
U6 C23 2.882 . S
U6 O24 2.441 . S
U6 O25 2.420 . S
U6 O26 2.455 . S
U6 O27 2.449 . S
O7 U6 2.454 . S
O7 C9 1.353 . S
O8 U6 2.458 . S
O8 C9 1.286 . S
C9 U6 2.984 . S
C9 O7 1.353 . S
C9 O8 1.286 . S
C9 C11 1.363 . S
C10 C0 1.465 . S
C10 U6 2.847 . S
C10 O24 1.249 . S
C10 O25 1.202 . S
C11 C9 1.363 . S
C11 C13 1.408 . S
C11 C16 1.342 . S
C12 C13 1.310 . S
C12 C15 1.461 . S
C12 H32 0.932 . S
C13 C11 1.408 . S
C13 C12 1.310 . S
C13 H33 0.930 . S
C14 C15 1.474 . S
C14 C16 1.285 . S
C14 H34 0.929 . S
C15 C12 1.461 . S
C15 C14 1.474 . S
C16 C11 1.342 . S
C16 C14 1.285 . S
C16 H35 0.930 . S
C17 C20 1.424 . S
C17 C22 1.245 . S
C17 C23 1.428 1_545 S
C18 C21 1.260 . S
C18 C22 1.477 . S
C18 H36 0.932 . S
C19 C20 1.384 . S
C19 C21 1.479 . S
C19 H37 0.929 . S
C20 C17 1.424 . S
C20 C19 1.384 . S
C20 H38 0.928 . S
C21 C18 1.260 . S
C21 C19 1.479 . S
C22 C17 1.245 . S
C22 C18 1.477 . S
C22 H39 0.932 . S
C23 U6 2.882 . S
C23 C17 1.428 1_565 S
C23 O26 1.301 . S
C23 O27 1.282 . S
O24 U6 2.441 . S
O24 C10 1.249 . S
O25 U6 2.420 . S
O25 C10 1.202 . S
O26 U6 2.455 . S
O26 C23 1.301 . S
O27 U6 2.449 . S
O27 C23 1.282 . S
H28 C1 0.931 . S
H29 C3 0.929 . S
H30 C4 0.930 . S
H31 C5 0.931 . S
H32 C12 0.932 . S
H33 C13 0.930 . S
H34 C14 0.929 . S
H35 C16 0.930 . S
H36 C18 0.932 . S
H37 C19 0.929 . S
H38 C20 0.928 . S
H39 C22 0.932 . S
C40 C41 1.264 . S
C40 C45 1.479 . S
C40 C50 1.465 . S
C41 C40 1.264 . S
C41 C43 1.339 . S
C41 H68 0.931 . S
C42 C43 1.395 . S
C42 C44 1.320 . S
C43 C41 1.339 . S
C43 C42 1.395 . S
C43 H69 0.929 . S
C44 C42 1.320 . S
C44 C45 1.405 . S
C44 H70 0.930 . S
C45 C40 1.479 . S
C45 C44 1.405 . S
C45 H71 0.931 . S
U46 O47 2.454 . S
U46 O48 2.458 . S
U46 C49 2.984 . S
U46 C50 2.847 . S
U46 C63 2.882 . S
U46 O64 2.441 . S
U46 O65 2.420 . S
U46 O66 2.455 . S
U46 O67 2.449 . S
O47 U46 2.454 . S
O47 C49 1.353 . S
O48 U46 2.458 . S
O48 C49 1.286 . S
C49 U46 2.984 . S
C49 O47 1.353 . S
C49 O48 1.286 . S
C49 C51 1.363 . S
C50 C40 1.465 . S
C50 U46 2.847 . S
C50 O64 1.249 . S
C50 O65 1.202 . S
C51 C49 1.363 . S
C51 C53 1.408 . S
C51 C56 1.342 . S
C52 C53 1.310 . S
C52 C55 1.461 . S
C52 H72 0.932 . S
C53 C51 1.408 . S
C53 C52 1.310 . S
C53 H73 0.930 . S
C54 C55 1.474 . S
C54 C56 1.285 . S
C54 H74 0.929 . S
C55 C52 1.461 . S
C55 C54 1.474 . S
C56 C51 1.342 . S
C56 C54 1.285 . S
C56 H75 0.930 . S
C57 C60 1.424 . S
C57 C62 1.245 . S
C57 C63 1.428 . S
C58 C61 1.260 . S
C58 C62 1.477 . S
C58 H76 0.932 . S
C59 C60 1.384 . S
C59 C61 1.479 . S
C59 H77 0.929 . S
C60 C57 1.424 . S
C60 C59 1.384 . S
C60 H78 0.928 . S
C61 C58 1.260 . S
C61 C59 1.479 . S
C62 C57 1.245 . S
C62 C58 1.477 . S
C62 H79 0.932 . S
C63 U46 2.882 . S
C63 C57 1.428 . S
C63 O66 1.301 . S
C63 O67 1.282 . S
O64 U46 2.441 . S
O64 C50 1.249 . S
O65 U46 2.420 . S
O65 C50 1.202 . S
O66 U46 2.455 . S
O66 C63 1.301 . S
O67 U46 2.449 . S
O67 C63 1.282 . S
H68 C41 0.931 . S
H69 C43 0.929 . S
H70 C44 0.930 . S
H71 C45 0.931 . S
H72 C52 0.932 . S
H73 C53 0.930 . S
H74 C54 0.929 . S
H75 C56 0.930 . S
H76 C58 0.932 . S
H77 C59 0.929 . S
H78 C60 0.928 . S
H79 C62 0.932 . S
C80 C81 1.264 . S
C80 C85 1.479 . S
C80 C90 1.465 . S
C81 C80 1.264 . S
C81 C83 1.339 . S
C81 H108 0.931 . S
C82 C83 1.395 . S
C82 C84 1.320 . S
C83 C81 1.339 . S
C83 C82 1.395 . S
C83 H109 0.929 . S
C84 C82 1.320 . S
C84 C85 1.405 . S
C84 H110 0.930 . S
C85 C80 1.479 . S
C85 C84 1.405 . S
C85 H111 0.931 . S
U86 O87 2.454 . S
U86 O88 2.458 . S
U86 C89 2.984 . S
U86 C90 2.847 . S
U86 C103 2.882 . S
U86 O104 2.441 . S
U86 O105 2.420 . S
U86 O106 2.455 . S
U86 O107 2.449 . S
O87 U86 2.454 . S
O87 C89 1.353 . S
O88 U86 2.458 . S
O88 C89 1.286 . S
C89 U86 2.984 . S
C89 O87 1.353 . S
C89 O88 1.286 . S
C89 C91 1.363 . S
C90 C80 1.465 . S
C90 U86 2.847 . S
C90 O104 1.249 . S
C90 O105 1.202 . S
C91 C89 1.363 . S
C91 C93 1.408 . S
C91 C96 1.342 . S
C92 C93 1.310 . S
C92 C95 1.461 . S
C92 H112 0.932 . S
C93 C91 1.408 . S
C93 C92 1.310 . S
C93 H113 0.930 . S
C94 C95 1.474 . S
C94 C96 1.285 . S
C94 H114 0.929 . S
C95 C92 1.461 . S
C95 C94 1.474 . S
C96 C91 1.342 . S
C96 C94 1.285 . S
C96 H115 0.930 . S
C97 C100 1.424 . S
C97 C102 1.245 . S
C97 C103 1.428 1_565 S
C98 C101 1.260 . S
C98 C102 1.477 . S
C98 H116 0.932 . S
C99 C100 1.384 . S
C99 C101 1.479 . S
C99 H117 0.929 . S
C100 C97 1.424 . S
C100 C99 1.384 . S
C100 H118 0.928 . S
C101 C98 1.260 . S
C101 C99 1.479 . S
C102 C97 1.245 . S
C102 C98 1.477 . S
C102 H119 0.932 . S
C103 U86 2.882 . S
C103 C97 1.428 1_545 S
C103 O106 1.301 . S
C103 O107 1.282 . S
O104 U86 2.441 . S
O104 C90 1.249 . S
O105 U86 2.420 . S
O105 C90 1.202 . S
O106 U86 2.455 . S
O106 C103 1.301 . S
O107 U86 2.449 . S
O107 C103 1.282 . S
H108 C81 0.931 . S
H109 C83 0.929 . S
H110 C84 0.930 . S
H111 C85 0.931 . S
H112 C92 0.932 . S
H113 C93 0.930 . S
H114 C94 0.929 . S
H115 C96 0.930 . S
H116 C98 0.932 . S
H117 C99 0.929 . S
H118 C100 0.928 . S
H119 C102 0.932 . S
C120 C121 1.264 . S
C120 C125 1.479 . S
C120 C130 1.465 . S
C121 C120 1.264 . S
C121 C123 1.339 . S
C121 H148 0.931 . S
C122 C123 1.395 . S
C122 C124 1.320 . S
C123 C121 1.339 . S
C123 C122 1.395 . S
C123 H149 0.929 . S
C124 C122 1.320 . S
C124 C125 1.405 . S
C124 H150 0.930 . S
C125 C120 1.479 . S
C125 C124 1.405 . S
C125 H151 0.931 . S
U126 O127 2.454 . S
U126 O128 2.458 . S
U126 C129 2.984 . S
U126 C130 2.847 . S
U126 C143 2.882 . S
U126 O144 2.441 . S
U126 O145 2.420 . S
U126 O146 2.455 . S
U126 O147 2.449 . S
O127 U126 2.454 . S
O127 C129 1.353 . S
O128 U126 2.458 . S
O128 C129 1.286 . S
C129 U126 2.984 . S
C129 O127 1.353 . S
C129 O128 1.286 . S
C129 C131 1.363 . S
C130 C120 1.465 . S
C130 U126 2.847 . S
C130 O144 1.249 . S
C130 O145 1.202 . S
C131 C129 1.363 . S
C131 C133 1.408 . S
C131 C136 1.342 . S
C132 C133 1.310 . S
C132 C135 1.461 . S
C132 H152 0.932 . S
C133 C131 1.408 . S
C133 C132 1.310 . S
C133 H153 0.930 . S
C134 C135 1.474 . S
C134 C136 1.285 . S
C134 H154 0.929 . S
C135 C132 1.461 . S
C135 C134 1.474 . S
C136 C131 1.342 . S
C136 C134 1.285 . S
C136 H155 0.930 . S
C137 C140 1.424 . S
C137 C142 1.245 . S
C137 C143 1.428 . S
C138 C141 1.260 . S
C138 C142 1.477 . S
C138 H156 0.932 . S
C139 C140 1.384 . S
C139 C141 1.479 . S
C139 H157 0.929 . S
C140 C137 1.424 . S
C140 C139 1.384 . S
C140 H158 0.928 . S
C141 C138 1.260 . S
C141 C139 1.479 . S
C142 C137 1.245 . S
C142 C138 1.477 . S
C142 H159 0.932 . S
C143 U126 2.882 . S
C143 C137 1.428 . S
C143 O146 1.301 . S
C143 O147 1.282 . S
O144 U126 2.441 . S
O144 C130 1.249 . S
O145 U126 2.420 . S
O145 C130 1.202 . S
O146 U126 2.455 . S
O146 C143 1.301 . S
O147 U126 2.449 . S
O147 C143 1.282 . S
H148 C121 0.931 . S
H149 C123 0.929 . S
H150 C124 0.930 . S
H151 C125 0.931 . S
H152 C132 0.932 . S
H153 C133 0.930 . S
H154 C134 0.929 . S
H155 C136 0.930 . S
H156 C138 0.932 . S
H157 C139 0.929 . S
H158 C140 0.928 . S
H159 C142 0.932 . S
C160 C161 1.264 . S
C160 C165 1.479 . S
C160 C170 1.465 . S
C161 C160 1.264 . S
C161 C163 1.339 . S
C161 H188 0.931 . S
C162 C163 1.395 . S
C162 C164 1.320 . S
C163 C161 1.339 . S
C163 C162 1.395 . S
C163 H189 0.929 . S
C164 C162 1.320 . S
C164 C165 1.405 . S
C164 H190 0.930 . S
C165 C160 1.479 . S
C165 C164 1.405 . S
C165 H191 0.931 . S
U166 O167 2.454 . S
U166 O168 2.458 . S
U166 C169 2.984 . S
U166 C170 2.847 . S
U166 C183 2.882 . S
U166 O184 2.441 . S
U166 O185 2.420 . S
U166 O186 2.455 . S
U166 O187 2.449 . S
O167 U166 2.454 . S
O167 C169 1.353 . S
O168 U166 2.458 . S
O168 C169 1.286 . S
C169 U166 2.984 . S
C169 O167 1.353 . S
C169 O168 1.286 . S
C169 C171 1.363 . S
C170 C160 1.465 . S
C170 U166 2.847 . S
C170 O184 1.249 . S
C170 O185 1.202 . S
C171 C169 1.363 . S
C171 C173 1.408 . S
C171 C176 1.342 . S
C172 C173 1.310 . S
C172 C175 1.461 . S
C172 H192 0.932 . S
C173 C171 1.408 . S
C173 C172 1.310 . S
C173 H193 0.930 . S
C174 C175 1.474 . S
C174 C176 1.285 . S
C174 H194 0.929 . S
C175 C172 1.461 . S
C175 C174 1.474 . S
C176 C171 1.342 . S
C176 C174 1.285 . S
C176 H195 0.930 . S
C177 C180 1.424 . S
C177 C182 1.245 . S
C177 C183 1.428 1_565 S
C178 C181 1.260 . S
C178 C182 1.477 . S
C178 H196 0.932 . S
C179 C180 1.384 . S
C179 C181 1.479 . S
C179 H197 0.929 . S
C180 C177 1.424 . S
C180 C179 1.384 . S
C180 H198 0.928 . S
C181 C178 1.260 . S
C181 C179 1.479 . S
C182 C177 1.245 . S
C182 C178 1.477 . S
C182 H199 0.932 . S
C183 U166 2.882 . S
C183 C177 1.428 1_545 S
C183 O186 1.301 . S
C183 O187 1.282 . S
O184 U166 2.441 . S
O184 C170 1.249 . S
O185 U166 2.420 . S
O185 C170 1.202 . S
O186 U166 2.455 . S
O186 C183 1.301 . S
O187 U166 2.449 . S
O187 C183 1.282 . S
H188 C161 0.931 . S
H189 C163 0.929 . S
H190 C164 0.930 . S
H191 C165 0.931 . S
H192 C172 0.932 . S
H193 C173 0.930 . S
H194 C174 0.929 . S
H195 C176 0.930 . S
H196 C178 0.932 . S
H197 C179 0.929 . S
H198 C180 0.928 . S
H199 C182 0.932 . S
C200 C201 1.264 . S
C200 C205 1.479 . S
C200 C210 1.465 . S
C201 C200 1.264 . S
C201 C203 1.339 . S
C201 H228 0.931 . S
C202 C203 1.395 . S
C202 C204 1.320 . S
C203 C201 1.339 . S
C203 C202 1.395 . S
C203 H229 0.929 . S
C204 C202 1.320 . S
C204 C205 1.405 . S
C204 H230 0.930 . S
C205 C200 1.479 . S
C205 C204 1.405 . S
C205 H231 0.931 . S
U206 O207 2.454 . S
U206 O208 2.458 . S
U206 C209 2.984 . S
U206 C210 2.847 . S
U206 C223 2.882 . S
U206 O224 2.441 . S
U206 O225 2.420 . S
U206 O226 2.455 . S
U206 O227 2.449 . S
O207 U206 2.454 . S
O207 C209 1.353 . S
O208 U206 2.458 . S
O208 C209 1.286 . S
C209 U206 2.984 . S
C209 O207 1.353 . S
C209 O208 1.286 . S
C209 C211 1.363 . S
C210 C200 1.465 . S
C210 U206 2.847 . S
C210 O224 1.249 . S
C210 O225 1.202 . S
C211 C209 1.363 . S
C211 C213 1.408 . S
C211 C216 1.342 . S
C212 C213 1.310 . S
C212 C215 1.461 . S
C212 H232 0.932 . S
C213 C211 1.408 . S
C213 C212 1.310 . S
C213 H233 0.930 . S
C214 C215 1.474 . S
C214 C216 1.285 . S
C214 H234 0.929 . S
C215 C212 1.461 . S
C215 C214 1.474 . S
C216 C211 1.342 . S
C216 C214 1.285 . S
C216 H235 0.930 . S
C217 C220 1.424 . S
C217 C222 1.245 . S
C217 C223 1.428 . S
C218 C221 1.260 . S
C218 C222 1.477 . S
C218 H236 0.932 . S
C219 C220 1.384 . S
C219 C221 1.479 . S
C219 H237 0.929 . S
C220 C217 1.424 . S
C220 C219 1.384 . S
C220 H238 0.928 . S
C221 C218 1.260 . S
C221 C219 1.479 . S
C222 C217 1.245 . S
C222 C218 1.477 . S
C222 H239 0.932 . S
C223 U206 2.882 . S
C223 C217 1.428 . S
C223 O226 1.301 . S
C223 O227 1.282 . S
O224 U206 2.441 . S
O224 C210 1.249 . S
O225 U206 2.420 . S
O225 C210 1.202 . S
O226 U206 2.455 . S
O226 C223 1.301 . S
O227 U206 2.449 . S
O227 C223 1.282 . S
H228 C201 0.931 . S
H229 C203 0.929 . S
H230 C204 0.930 . S
H231 C205 0.931 . S
H232 C212 0.932 . S
H233 C213 0.930 . S
H234 C214 0.929 . S
H235 C216 0.930 . S
H236 C218 0.932 . S
H237 C219 0.929 . S
H238 C220 0.928 . S
H239 C222 0.932 . S
C240 C241 1.264 . S
C240 C245 1.479 . S
C240 C250 1.465 . S
C241 C240 1.264 . S
C241 C243 1.339 . S
C241 H268 0.931 . S
C242 C243 1.395 . S
C242 C244 1.320 . S
C243 C241 1.339 . S
C243 C242 1.395 . S
C243 H269 0.929 . S
C244 C242 1.320 . S
C244 C245 1.405 . S
C244 H270 0.930 . S
C245 C240 1.479 . S
C245 C244 1.405 . S
C245 H271 0.931 . S
U246 O247 2.454 . S
U246 O248 2.458 . S
U246 C249 2.984 . S
U246 C250 2.847 . S
U246 C263 2.882 . S
U246 O264 2.441 . S
U246 O265 2.420 . S
U246 O266 2.455 . S
U246 O267 2.449 . S
O247 U246 2.454 . S
O247 C249 1.353 . S
O248 U246 2.458 . S
O248 C249 1.286 . S
C249 U246 2.984 . S
C249 O247 1.353 . S
C249 O248 1.286 . S
C249 C251 1.363 . S
C250 C240 1.465 . S
C250 U246 2.847 . S
C250 O264 1.249 . S
C250 O265 1.202 . S
C251 C249 1.363 . S
C251 C253 1.408 . S
C251 C256 1.342 . S
C252 C253 1.310 . S
C252 C255 1.461 . S
C252 H272 0.932 . S
C253 C251 1.408 . S
C253 C252 1.310 . S
C253 H273 0.930 . S
C254 C255 1.474 . S
C254 C256 1.285 . S
C254 H274 0.929 . S
C255 C252 1.461 . S
C255 C254 1.474 . S
C256 C251 1.342 . S
C256 C254 1.285 . S
C256 H275 0.930 . S
C257 C260 1.424 . S
C257 C262 1.245 . S
C257 C263 1.428 1_545 S
C258 C261 1.260 . S
C258 C262 1.477 . S
C258 H276 0.932 . S
C259 C260 1.384 . S
C259 C261 1.479 . S
C259 H277 0.929 . S
C260 C257 1.424 . S
C260 C259 1.384 . S
C260 H278 0.928 . S
C261 C258 1.260 . S
C261 C259 1.479 . S
C262 C257 1.245 . S
C262 C258 1.477 . S
C262 H279 0.932 . S
C263 U246 2.882 . S
C263 C257 1.428 1_565 S
C263 O266 1.301 . S
C263 O267 1.282 . S
O264 U246 2.441 . S
O264 C250 1.249 . S
O265 U246 2.420 . S
O265 C250 1.202 . S
O266 U246 2.455 . S
O266 C263 1.301 . S
O267 U246 2.449 . S
O267 C263 1.282 . S
H268 C241 0.931 . S
H269 C243 0.929 . S
H270 C244 0.930 . S
H271 C245 0.931 . S
H272 C252 0.932 . S
H273 C253 0.930 . S
H274 C254 0.929 . S
H275 C256 0.930 . S
H276 C258 0.932 . S
H277 C259 0.929 . S
H278 C260 0.928 . S
H279 C262 0.932 . S
C280 C281 1.264 . S
C280 C285 1.479 . S
C280 C290 1.465 . S
C281 C280 1.264 . S
C281 C283 1.339 . S
C281 H308 0.931 . S
C282 C283 1.395 . S
C282 C284 1.320 . S
C283 C281 1.339 . S
C283 C282 1.395 . S
C283 H309 0.929 . S
C284 C282 1.320 . S
C284 C285 1.405 . S
C284 H310 0.930 . S
C285 C280 1.479 . S
C285 C284 1.405 . S
C285 H311 0.931 . S
U286 O287 2.454 . S
U286 O288 2.458 . S
U286 C289 2.984 . S
U286 C290 2.847 . S
U286 C303 2.882 . S
U286 O304 2.441 . S
U286 O305 2.420 . S
U286 O306 2.455 . S
U286 O307 2.449 . S
O287 U286 2.454 . S
O287 C289 1.353 . S
O288 U286 2.458 . S
O288 C289 1.286 . S
C289 U286 2.984 . S
C289 O287 1.353 . S
C289 O288 1.286 . S
C289 C291 1.363 . S
C290 C280 1.465 . S
C290 U286 2.847 . S
C290 O304 1.249 . S
C290 O305 1.202 . S
C291 C289 1.363 . S
C291 C293 1.408 . S
C291 C296 1.342 . S
C292 C293 1.310 . S
C292 C295 1.461 . S
C292 H312 0.932 . S
C293 C291 1.408 . S
C293 C292 1.310 . S
C293 H313 0.930 . S
C294 C295 1.474 . S
C294 C296 1.285 . S
C294 H314 0.929 . S
C295 C292 1.461 . S
C295 C294 1.474 . S
C296 C291 1.342 . S
C296 C294 1.285 . S
C296 H315 0.930 . S
C297 C300 1.424 . S
C297 C302 1.245 . S
C297 C303 1.428 . S
C298 C301 1.260 . S
C298 C302 1.477 . S
C298 H316 0.932 . S
C299 C300 1.384 . S
C299 C301 1.479 . S
C299 H317 0.929 . S
C300 C297 1.424 . S
C300 C299 1.384 . S
C300 H318 0.928 . S
C301 C298 1.260 . S
C301 C299 1.479 . S
C302 C297 1.245 . S
C302 C298 1.477 . S
C302 H319 0.932 . S
C303 U286 2.882 . S
C303 C297 1.428 . S
C303 O306 1.301 . S
C303 O307 1.282 . S
O304 U286 2.441 . S
O304 C290 1.249 . S
O305 U286 2.420 . S
O305 C290 1.202 . S
O306 U286 2.455 . S
O306 C303 1.301 . S
O307 U286 2.449 . S
O307 C303 1.282 . S
H308 C281 0.931 . S
H309 C283 0.929 . S
H310 C284 0.930 . S
H311 C285 0.931 . S
H312 C292 0.932 . S
H313 C293 0.930 . S
H314 C294 0.929 . S
H315 C296 0.930 . S
H316 C298 0.932 . S
H317 C299 0.929 . S
H318 C300 0.928 . S
H319 C302 0.932 . S
C320 C321 1.264 . S
C320 C325 1.479 1_565 S
C320 C330 1.465 . S
C321 C320 1.264 . S
C321 C323 1.342 . S
C321 H348 0.931 . S
C322 C323 1.388 1_545 S
C322 C324 1.320 . S
C323 C321 1.342 . S
C323 C322 1.388 1_565 S
C323 H349 0.932 . S
C324 C322 1.320 . S
C324 C325 1.405 . S
C324 H350 0.930 . S
C325 C320 1.479 1_545 S
C325 C324 1.405 . S
C325 H351 0.931 . S
U326 O327 2.440 1_565 S
U326 O328 2.458 . S
U326 C329 2.998 . S
U326 C330 2.847 . S
U326 C343 2.882 . S
U326 O344 2.441 . S
U326 O345 2.420 . S
U326 O346 2.455 . S
U326 O347 2.449 . S
O327 U326 2.440 1_545 S
O327 C329 1.349 1_545 S
O328 U326 2.458 . S
O328 C329 1.300 . S
C329 U326 2.998 . S
C329 O327 1.349 1_565 S
C329 O328 1.300 . S
C329 C331 1.353 1_565 S
C330 C320 1.465 . S
C330 U326 2.847 . S
C330 O344 1.249 . S
C330 O345 1.202 . S
C331 C329 1.353 1_545 S
C331 C333 1.408 . S
C331 C336 1.342 . S
C332 C333 1.310 . S
C332 C335 1.461 . S
C332 H352 0.932 . S
C333 C331 1.408 . S
C333 C332 1.310 . S
C333 H353 0.930 . S
C334 C335 1.474 . S
C334 C336 1.285 . S
C334 H354 0.929 . S
C335 C332 1.461 . S
C335 C334 1.474 . S
C336 C331 1.342 . S
C336 C334 1.285 . S
C336 H355 0.937 . S
C337 C340 1.424 . S
C337 C342 1.245 . S
C337 C343 1.428 . S
C338 C341 1.260 . S
C338 C342 1.477 . S
C338 H356 0.932 . S
C339 C340 1.384 . S
C339 C341 1.479 . S
C339 H357 0.929 . S
C340 C337 1.424 . S
C340 C339 1.384 . S
C340 H358 0.928 . S
C341 C338 1.260 . S
C341 C339 1.479 . S
C342 C337 1.245 . S
C342 C338 1.477 . S
C342 H359 0.932 . S
C343 U326 2.882 . S
C343 C337 1.428 . S
C343 O346 1.301 . S
C343 O347 1.282 . S
O344 U326 2.441 . S
O344 C330 1.249 . S
O345 U326 2.420 . S
O345 C330 1.202 . S
O346 U326 2.455 . S
O346 C343 1.301 . S
O347 U326 2.449 . S
O347 C343 1.282 . S
H348 C321 0.931 . S
H349 C323 0.932 . S
H350 C324 0.930 . S
H351 C325 0.931 . S
H352 C332 0.932 . S
H353 C333 0.930 . S
H354 C334 0.929 . S
H355 C336 0.937 . S
H356 C338 0.932 . S
H357 C339 0.929 . S
H358 C340 0.928 . S
H359 C342 0.932 . S
C360 C361 1.264 . S
C360 C365 1.479 . S
C360 C370 1.465 . S
C361 C360 1.264 . S
C361 C363 1.339 . S
C361 H388 0.931 . S
C362 C363 1.395 . S
C362 C364 1.320 . S
C363 C361 1.339 . S
C363 C362 1.395 . S
C363 H389 0.929 . S
C364 C362 1.320 . S
C364 C365 1.405 . S
C364 H390 0.930 . S
C365 C360 1.479 . S
C365 C364 1.405 . S
C365 H391 0.931 . S
U366 O367 2.454 . S
U366 O368 2.458 . S
U366 C369 2.984 . S
U366 C370 2.847 . S
U366 C383 2.882 . S
U366 O384 2.441 . S
U366 O385 2.420 . S
U366 O386 2.455 . S
U366 O387 2.449 . S
O367 U366 2.454 . S
O367 C369 1.353 . S
O368 U366 2.458 . S
O368 C369 1.286 . S
C369 U366 2.984 . S
C369 O367 1.353 . S
C369 O368 1.286 . S
C369 C371 1.363 . S
C370 C360 1.465 . S
C370 U366 2.847 . S
C370 O384 1.249 . S
C370 O385 1.202 . S
C371 C369 1.363 . S
C371 C373 1.408 . S
C371 C376 1.342 . S
C372 C373 1.310 . S
C372 C375 1.461 . S
C372 H392 0.932 . S
C373 C371 1.408 . S
C373 C372 1.310 . S
C373 H393 0.930 . S
C374 C375 1.474 . S
C374 C376 1.285 . S
C374 H394 0.929 . S
C375 C372 1.461 . S
C375 C374 1.474 . S
C376 C371 1.342 . S
C376 C374 1.285 . S
C376 H395 0.930 . S
C377 C380 1.424 . S
C377 C382 1.245 . S
C377 C383 1.428 . S
C378 C381 1.260 . S
C378 C382 1.477 . S
C378 H396 0.932 . S
C379 C380 1.384 . S
C379 C381 1.479 . S
C379 H397 0.929 . S
C380 C377 1.424 . S
C380 C379 1.384 . S
C380 H398 0.928 . S
C381 C378 1.260 . S
C381 C379 1.479 . S
C382 C377 1.245 . S
C382 C378 1.477 . S
C382 H399 0.932 . S
C383 U366 2.882 . S
C383 C377 1.428 . S
C383 O386 1.301 . S
C383 O387 1.282 . S
O384 U366 2.441 . S
O384 C370 1.249 . S
O385 U366 2.420 . S
O385 C370 1.202 . S
O386 U366 2.455 . S
O386 C383 1.301 . S
O387 U366 2.449 . S
O387 C383 1.282 . S
H388 C361 0.931 . S
H389 C363 0.929 . S
H390 C364 0.930 . S
H391 C365 0.931 . S
H392 C372 0.932 . S
H393 C373 0.930 . S
H394 C374 0.929 . S
H395 C376 0.930 . S
H396 C378 0.932 . S
H397 C379 0.929 . S
H398 C380 0.928 . S
H399 C382 0.932 . S
C400 C401 1.264 . S
C400 C405 1.479 1_545 S
C400 C410 1.465 . S
C401 C400 1.264 . S
C401 C403 1.342 . S
C401 H428 0.931 . S
C402 C403 1.388 1_565 S
C402 C404 1.320 . S
C403 C401 1.342 . S
C403 C402 1.388 1_545 S
C403 H429 0.932 . S
C404 C402 1.320 . S
C404 C405 1.405 . S
C404 H430 0.930 . S
C405 C400 1.479 1_565 S
C405 C404 1.405 . S
C405 H431 0.931 . S
U406 O407 2.440 1_545 S
U406 O408 2.458 . S
U406 C409 2.998 . S
U406 C410 2.847 . S
U406 C423 2.882 . S
U406 O424 2.441 . S
U406 O425 2.420 . S
U406 O426 2.455 . S
U406 O427 2.449 . S
O407 U406 2.440 1_565 S
O407 C409 1.349 1_565 S
O408 U406 2.458 . S
O408 C409 1.300 . S
C409 U406 2.998 . S
C409 O407 1.349 1_545 S
C409 O408 1.300 . S
C409 C411 1.353 1_545 S
C410 C400 1.465 . S
C410 U406 2.847 . S
C410 O424 1.249 . S
C410 O425 1.202 . S
C411 C409 1.353 1_565 S
C411 C413 1.408 . S
C411 C416 1.342 . S
C412 C413 1.310 . S
C412 C415 1.461 . S
C412 H432 0.932 . S
C413 C411 1.408 . S
C413 C412 1.310 . S
C413 H433 0.930 . S
C414 C415 1.474 . S
C414 C416 1.285 . S
C414 H434 0.929 . S
C415 C412 1.461 . S
C415 C414 1.474 . S
C416 C411 1.342 . S
C416 C414 1.285 . S
C416 H435 0.937 . S
C417 C420 1.424 . S
C417 C422 1.245 . S
C417 C423 1.428 . S
C418 C421 1.260 . S
C418 C422 1.477 . S
C418 H436 0.932 . S
C419 C420 1.384 . S
C419 C421 1.479 . S
C419 H437 0.929 . S
C420 C417 1.424 . S
C420 C419 1.384 . S
C420 H438 0.928 . S
C421 C418 1.260 . S
C421 C419 1.479 . S
C422 C417 1.245 . S
C422 C418 1.477 . S
C422 H439 0.932 . S
C423 U406 2.882 . S
C423 C417 1.428 . S
C423 O426 1.301 . S
C423 O427 1.282 . S
O424 U406 2.441 . S
O424 C410 1.249 . S
O425 U406 2.420 . S
O425 C410 1.202 . S
O426 U406 2.455 . S
O426 C423 1.301 . S
O427 U406 2.449 . S
O427 C423 1.282 . S
H428 C401 0.931 . S
H429 C403 0.932 . S
H430 C404 0.930 . S
H431 C405 0.931 . S
H432 C412 0.932 . S
H433 C413 0.930 . S
H434 C414 0.929 . S
H435 C416 0.937 . S
H436 C418 0.932 . S
H437 C419 0.929 . S
H438 C420 0.928 . S
H439 C422 0.932 . S
C440 C441 1.264 . S
C440 C445 1.479 . S
C440 C450 1.465 . S
C441 C440 1.264 . S
C441 C443 1.339 . S
C441 H468 0.931 . S
C442 C443 1.395 . S
C442 C444 1.320 . S
C443 C441 1.339 . S
C443 C442 1.395 . S
C443 H469 0.929 . S
C444 C442 1.320 . S
C444 C445 1.405 . S
C444 H470 0.930 . S
C445 C440 1.479 . S
C445 C444 1.405 . S
C445 H471 0.931 . S
U446 O447 2.454 . S
U446 O448 2.458 . S
U446 C449 2.984 . S
U446 C450 2.847 . S
U446 C463 2.882 . S
U446 O464 2.441 . S
U446 O465 2.420 . S
U446 O466 2.455 . S
U446 O467 2.449 . S
O447 U446 2.454 . S
O447 C449 1.353 . S
O448 U446 2.458 . S
O448 C449 1.286 . S
C449 U446 2.984 . S
C449 O447 1.353 . S
C449 O448 1.286 . S
C449 C451 1.363 . S
C450 C440 1.465 . S
C450 U446 2.847 . S
C450 O464 1.249 . S
C450 O465 1.202 . S
C451 C449 1.363 . S
C451 C453 1.408 . S
C451 C456 1.342 . S
C452 C453 1.310 . S
C452 C455 1.461 . S
C452 H472 0.932 . S
C453 C451 1.408 . S
C453 C452 1.310 . S
C453 H473 0.930 . S
C454 C455 1.474 . S
C454 C456 1.285 . S
C454 H474 0.929 . S
C455 C452 1.461 . S
C455 C454 1.474 . S
C456 C451 1.342 . S
C456 C454 1.285 . S
C456 H475 0.930 . S
C457 C460 1.424 . S
C457 C462 1.245 . S
C457 C463 1.428 . S
C458 C461 1.260 . S
C458 C462 1.477 . S
C458 H476 0.932 . S
C459 C460 1.384 . S
C459 C461 1.479 . S
C459 H477 0.929 . S
C460 C457 1.424 . S
C460 C459 1.384 . S
C460 H478 0.928 . S
C461 C458 1.260 . S
C461 C459 1.479 . S
C462 C457 1.245 . S
C462 C458 1.477 . S
C462 H479 0.932 . S
C463 U446 2.882 . S
C463 C457 1.428 . S
C463 O466 1.301 . S
C463 O467 1.282 . S
O464 U446 2.441 . S
O464 C450 1.249 . S
O465 U446 2.420 . S
O465 C450 1.202 . S
O466 U446 2.455 . S
O466 C463 1.301 . S
O467 U446 2.449 . S
O467 C463 1.282 . S
H468 C441 0.931 . S
H469 C443 0.929 . S
H470 C444 0.930 . S
H471 C445 0.931 . S
H472 C452 0.932 . S
H473 C453 0.930 . S
H474 C454 0.929 . S
H475 C456 0.930 . S
H476 C458 0.932 . S
H477 C459 0.929 . S
H478 C460 0.928 . S
H479 C462 0.932 . S
C480 C481 1.264 . S
C480 C485 1.479 1_545 S
C480 C490 1.465 . S
C481 C480 1.264 . S
C481 C483 1.342 . S
C481 H508 0.931 . S
C482 C483 1.388 1_565 S
C482 C484 1.320 . S
C483 C481 1.342 . S
C483 C482 1.388 1_545 S
C483 H509 0.932 . S
C484 C482 1.320 . S
C484 C485 1.405 . S
C484 H510 0.930 . S
C485 C480 1.479 1_565 S
C485 C484 1.405 . S
C485 H511 0.931 . S
U486 O487 2.440 1_545 S
U486 O488 2.458 . S
U486 C489 2.998 . S
U486 C490 2.847 . S
U486 C503 2.882 . S
U486 O504 2.441 . S
U486 O505 2.420 . S
U486 O506 2.455 . S
U486 O507 2.449 . S
O487 U486 2.440 1_565 S
O487 C489 1.349 1_565 S
O488 U486 2.458 . S
O488 C489 1.300 . S
C489 U486 2.998 . S
C489 O487 1.349 1_545 S
C489 O488 1.300 . S
C489 C491 1.353 1_545 S
C490 C480 1.465 . S
C490 U486 2.847 . S
C490 O504 1.249 . S
C490 O505 1.202 . S
C491 C489 1.353 1_565 S
C491 C493 1.408 . S
C491 C496 1.342 . S
C492 C493 1.310 . S
C492 C495 1.461 . S
C492 H512 0.932 . S
C493 C491 1.408 . S
C493 C492 1.310 . S
C493 H513 0.930 . S
C494 C495 1.474 . S
C494 C496 1.285 . S
C494 H514 0.929 . S
C495 C492 1.461 . S
C495 C494 1.474 . S
C496 C491 1.342 . S
C496 C494 1.285 . S
C496 H515 0.937 . S
C497 C500 1.424 . S
C497 C502 1.245 . S
C497 C503 1.428 . S
C498 C501 1.260 . S
C498 C502 1.477 . S
C498 H516 0.932 . S
C499 C500 1.384 . S
C499 C501 1.479 . S
C499 H517 0.929 . S
C500 C497 1.424 . S
C500 C499 1.384 . S
C500 H518 0.928 . S
C501 C498 1.260 . S
C501 C499 1.479 . S
C502 C497 1.245 . S
C502 C498 1.477 . S
C502 H519 0.932 . S
C503 U486 2.882 . S
C503 C497 1.428 . S
C503 O506 1.301 . S
C503 O507 1.282 . S
O504 U486 2.441 . S
O504 C490 1.249 . S
O505 U486 2.420 . S
O505 C490 1.202 . S
O506 U486 2.455 . S
O506 C503 1.301 . S
O507 U486 2.449 . S
O507 C503 1.282 . S
H508 C481 0.931 . S
H509 C483 0.932 . S
H510 C484 0.930 . S
H511 C485 0.931 . S
H512 C492 0.932 . S
H513 C493 0.930 . S
H514 C494 0.929 . S
H515 C496 0.937 . S
H516 C498 0.932 . S
H517 C499 0.929 . S
H518 C500 0.928 . S
H519 C502 0.932 . S
C520 C521 1.264 . S
C520 C525 1.479 . S
C520 C530 1.465 . S
C521 C520 1.264 . S
C521 C523 1.339 . S
C521 H548 0.931 . S
C522 C523 1.395 . S
C522 C524 1.320 . S
C523 C521 1.339 . S
C523 C522 1.395 . S
C523 H549 0.929 . S
C524 C522 1.320 . S
C524 C525 1.405 . S
C524 H550 0.930 . S
C525 C520 1.479 . S
C525 C524 1.405 . S
C525 H551 0.931 . S
U526 O527 2.454 . S
U526 O528 2.458 . S
U526 C529 2.984 . S
U526 C530 2.847 . S
U526 C543 2.882 . S
U526 O544 2.441 . S
U526 O545 2.420 . S
U526 O546 2.455 . S
U526 O547 2.449 . S
O527 U526 2.454 . S
O527 C529 1.353 . S
O528 U526 2.458 . S
O528 C529 1.286 . S
C529 U526 2.984 . S
C529 O527 1.353 . S
C529 O528 1.286 . S
C529 C531 1.363 . S
C530 C520 1.465 . S
C530 U526 2.847 . S
C530 O544 1.249 . S
C530 O545 1.202 . S
C531 C529 1.363 . S
C531 C533 1.408 . S
C531 C536 1.342 . S
C532 C533 1.310 . S
C532 C535 1.461 . S
C532 H552 0.932 . S
C533 C531 1.408 . S
C533 C532 1.310 . S
C533 H553 0.930 . S
C534 C535 1.474 . S
C534 C536 1.285 . S
C534 H554 0.929 . S
C535 C532 1.461 . S
C535 C534 1.474 . S
C536 C531 1.342 . S
C536 C534 1.285 . S
C536 H555 0.930 . S
C537 C540 1.424 . S
C537 C542 1.245 . S
C537 C543 1.428 . S
C538 C541 1.260 . S
C538 C542 1.477 . S
C538 H556 0.932 . S
C539 C540 1.384 . S
C539 C541 1.479 . S
C539 H557 0.929 . S
C540 C537 1.424 . S
C540 C539 1.384 . S
C540 H558 0.928 . S
C541 C538 1.260 . S
C541 C539 1.479 . S
C542 C537 1.245 . S
C542 C538 1.477 . S
C542 H559 0.932 . S
C543 U526 2.882 . S
C543 C537 1.428 . S
C543 O546 1.301 . S
C543 O547 1.282 . S
O544 U526 2.441 . S
O544 C530 1.249 . S
O545 U526 2.420 . S
O545 C530 1.202 . S
O546 U526 2.455 . S
O546 C543 1.301 . S
O547 U526 2.449 . S
O547 C543 1.282 . S
H548 C521 0.931 . S
H549 C523 0.929 . S
H550 C524 0.930 . S
H551 C525 0.931 . S
H552 C532 0.932 . S
H553 C533 0.930 . S
H554 C534 0.929 . S
H555 C536 0.930 . S
H556 C538 0.932 . S
H557 C539 0.929 . S
H558 C540 0.928 . S
H559 C542 0.932 . S
C560 C561 1.264 . S
C560 C565 1.479 1_565 S
C560 C570 1.465 . S
C561 C560 1.264 . S
C561 C563 1.342 . S
C561 H588 0.931 . S
C562 C563 1.388 1_545 S
C562 C564 1.320 . S
C563 C561 1.342 . S
C563 C562 1.388 1_565 S
C563 H589 0.932 . S
C564 C562 1.320 . S
C564 C565 1.405 . S
C564 H590 0.930 . S
C565 C560 1.479 1_545 S
C565 C564 1.405 . S
C565 H591 0.931 . S
U566 O567 2.440 1_565 S
U566 O568 2.458 . S
U566 C569 2.998 . S
U566 C570 2.847 . S
U566 C583 2.882 . S
U566 O584 2.441 . S
U566 O585 2.420 . S
U566 O586 2.455 . S
U566 O587 2.449 . S
O567 U566 2.440 1_545 S
O567 C569 1.349 1_545 S
O568 U566 2.458 . S
O568 C569 1.300 . S
C569 U566 2.998 . S
C569 O567 1.349 1_565 S
C569 O568 1.300 . S
C569 C571 1.353 1_565 S
C570 C560 1.465 . S
C570 U566 2.847 . S
C570 O584 1.249 . S
C570 O585 1.202 . S
C571 C569 1.353 1_545 S
C571 C573 1.408 . S
C571 C576 1.342 . S
C572 C573 1.310 . S
C572 C575 1.461 . S
C572 H592 0.932 . S
C573 C571 1.408 . S
C573 C572 1.310 . S
C573 H593 0.930 . S
C574 C575 1.474 . S
C574 C576 1.285 . S
C574 H594 0.929 . S
C575 C572 1.461 . S
C575 C574 1.474 . S
C576 C571 1.342 . S
C576 C574 1.285 . S
C576 H595 0.937 . S
C577 C580 1.424 . S
C577 C582 1.245 . S
C577 C583 1.428 . S
C578 C581 1.260 . S
C578 C582 1.477 . S
C578 H596 0.932 . S
C579 C580 1.384 . S
C579 C581 1.479 . S
C579 H597 0.929 . S
C580 C577 1.424 . S
C580 C579 1.384 . S
C580 H598 0.928 . S
C581 C578 1.260 . S
C581 C579 1.479 . S
C582 C577 1.245 . S
C582 C578 1.477 . S
C582 H599 0.932 . S
C583 U566 2.882 . S
C583 C577 1.428 . S
C583 O586 1.301 . S
C583 O587 1.282 . S
O584 U566 2.441 . S
O584 C570 1.249 . S
O585 U566 2.420 . S
O585 C570 1.202 . S
O586 U566 2.455 . S
O586 C583 1.301 . S
O587 U566 2.449 . S
O587 C583 1.282 . S
H588 C561 0.931 . S
H589 C563 0.932 . S
H590 C564 0.930 . S
H591 C565 0.931 . S
H592 C572 0.932 . S
H593 C573 0.930 . S
H594 C574 0.929 . S
H595 C576 0.937 . S
H596 C578 0.932 . S
H597 C579 0.929 . S
H598 C580 0.928 . S
H599 C582 0.932 . S
C600 C601 1.264 . S
C600 C605 1.479 . S
C600 C610 1.465 . S
C601 C600 1.264 . S
C601 C603 1.339 . S
C601 H628 0.931 . S
C602 C603 1.395 . S
C602 C604 1.320 . S
C603 C601 1.339 . S
C603 C602 1.395 . S
C603 H629 0.929 . S
C604 C602 1.320 . S
C604 C605 1.405 . S
C604 H630 0.930 . S
C605 C600 1.479 . S
C605 C604 1.405 . S
C605 H631 0.931 . S
U606 O607 2.454 . S
U606 O608 2.458 . S
U606 C609 2.984 . S
U606 C610 2.847 . S
U606 C623 2.882 . S
U606 O624 2.441 . S
U606 O625 2.420 . S
U606 O626 2.455 . S
U606 O627 2.449 . S
O607 U606 2.454 . S
O607 C609 1.353 . S
O608 U606 2.458 . S
O608 C609 1.286 . S
C609 U606 2.984 . S
C609 O607 1.353 . S
C609 O608 1.286 . S
C609 C611 1.363 . S
C610 C600 1.465 . S
C610 U606 2.847 . S
C610 O624 1.249 . S
C610 O625 1.202 . S
C611 C609 1.363 . S
C611 C613 1.408 . S
C611 C616 1.342 . S
C612 C613 1.310 . S
C612 C615 1.461 . S
C612 H632 0.932 . S
C613 C611 1.408 . S
C613 C612 1.310 . S
C613 H633 0.930 . S
C614 C615 1.474 . S
C614 C616 1.285 . S
C614 H634 0.929 . S
C615 C612 1.461 . S
C615 C614 1.474 . S
C616 C611 1.342 . S
C616 C614 1.285 . S
C616 H635 0.930 . S
C617 C620 1.424 . S
C617 C622 1.245 . S
C617 C623 1.428 . S
C618 C621 1.260 . S
C618 C622 1.477 . S
C618 H636 0.932 . S
C619 C620 1.384 . S
C619 C621 1.479 . S
C619 H637 0.929 . S
C620 C617 1.424 . S
C620 C619 1.384 . S
C620 H638 0.928 . S
C621 C618 1.260 . S
C621 C619 1.479 . S
C622 C617 1.245 . S
C622 C618 1.477 . S
C622 H639 0.932 . S
C623 U606 2.882 . S
C623 C617 1.428 . S
C623 O626 1.301 . S
C623 O627 1.282 . S
O624 U606 2.441 . S
O624 C610 1.249 . S
O625 U606 2.420 . S
O625 C610 1.202 . S
O626 U606 2.455 . S
O626 C623 1.301 . S
O627 U606 2.449 . S
O627 C623 1.282 . S
H628 C601 0.931 . S
H629 C603 0.929 . S
H630 C604 0.930 . S
H631 C605 0.931 . S
H632 C612 0.932 . S
H633 C613 0.930 . S
H634 C614 0.929 . S
H635 C616 0.930 . S
H636 C618 0.932 . S
H637 C619 0.929 . S
H638 C620 0.928 . S
H639 C622 0.932 . S
C640 C641 1.264 . S
C640 C645 1.479 . S
C640 C650 1.465 . S
C641 C640 1.264 . S
C641 C643 1.339 . S
C641 H668 0.931 . S
C642 C643 1.395 . S
C642 C644 1.320 . S
C643 C641 1.339 . S
C643 C642 1.395 . S
C643 H669 0.929 . S
C644 C642 1.320 . S
C644 C645 1.405 . S
C644 H670 0.930 . S
C645 C640 1.479 . S
C645 C644 1.405 . S
C645 H671 0.931 . S
U646 O647 2.454 . S
U646 O648 2.458 . S
U646 C649 2.984 . S
U646 C650 2.847 . S
U646 C663 2.882 . S
U646 O664 2.441 . S
U646 O665 2.420 . S
U646 O666 2.455 . S
U646 O667 2.449 . S
O647 U646 2.454 . S
O647 C649 1.353 . S
O648 U646 2.458 . S
O648 C649 1.286 . S
C649 U646 2.984 . S
C649 O647 1.353 . S
C649 O648 1.286 . S
C649 C651 1.363 . S
C650 C640 1.465 . S
C650 U646 2.847 . S
C650 O664 1.249 . S
C650 O665 1.202 . S
C651 C649 1.363 . S
C651 C653 1.408 . S
C651 C656 1.342 . S
C652 C653 1.310 . S
C652 C655 1.461 . S
C652 H672 0.932 . S
C653 C651 1.408 . S
C653 C652 1.310 . S
C653 H673 0.930 . S
C654 C655 1.474 . S
C654 C656 1.285 . S
C654 H674 0.929 . S
C655 C652 1.461 . S
C655 C654 1.474 . S
C656 C651 1.342 . S
C656 C654 1.285 . S
C656 H675 0.930 . S
C657 C660 1.424 . S
C657 C662 1.245 . S
C657 C663 1.428 . S
C658 C661 1.260 . S
C658 C662 1.477 . S
C658 H676 0.932 . S
C659 C660 1.384 . S
C659 C661 1.479 . S
C659 H677 0.929 . S
C660 C657 1.424 . S
C660 C659 1.384 . S
C660 H678 0.928 . S
C661 C658 1.260 . S
C661 C659 1.479 . S
C662 C657 1.245 . S
C662 C658 1.477 . S
C662 H679 0.932 . S
C663 U646 2.882 . S
C663 C657 1.428 . S
C663 O666 1.301 . S
C663 O667 1.282 . S
O664 U646 2.441 . S
O664 C650 1.249 . S
O665 U646 2.420 . S
O665 C650 1.202 . S
O666 U646 2.455 . S
O666 C663 1.301 . S
O667 U646 2.449 . S
O667 C663 1.282 . S
H668 C641 0.931 . S
H669 C643 0.929 . S
H670 C644 0.930 . S
H671 C645 0.931 . S
H672 C652 0.932 . S
H673 C653 0.930 . S
H674 C654 0.929 . S
H675 C656 0.930 . S
H676 C658 0.932 . S
H677 C659 0.929 . S
H678 C660 0.928 . S
H679 C662 0.932 . S
C680 C681 1.264 . S
C680 C685 1.479 . S
C680 C690 1.465 . S
C681 C680 1.264 . S
C681 C683 1.339 . S
C681 H708 0.931 . S
C682 C683 1.395 . S
C682 C684 1.320 . S
C683 C681 1.339 . S
C683 C682 1.395 . S
C683 H709 0.929 . S
C684 C682 1.320 . S
C684 C685 1.405 . S
C684 H710 0.930 . S
C685 C680 1.479 . S
C685 C684 1.405 . S
C685 H711 0.931 . S
U686 O687 2.454 . S
U686 O688 2.458 . S
U686 C689 2.984 . S
U686 C690 2.847 . S
U686 C703 2.882 . S
U686 O704 2.441 . S
U686 O705 2.420 . S
U686 O706 2.455 . S
U686 O707 2.449 . S
O687 U686 2.454 . S
O687 C689 1.353 . S
O688 U686 2.458 . S
O688 C689 1.286 . S
C689 U686 2.984 . S
C689 O687 1.353 . S
C689 O688 1.286 . S
C689 C691 1.363 . S
C690 C680 1.465 . S
C690 U686 2.847 . S
C690 O704 1.249 . S
C690 O705 1.202 . S
C691 C689 1.363 . S
C691 C693 1.408 . S
C691 C696 1.342 . S
C692 C693 1.310 . S
C692 C695 1.461 . S
C692 H712 0.932 . S
C693 C691 1.408 . S
C693 C692 1.310 . S
C693 H713 0.930 . S
C694 C695 1.474 . S
C694 C696 1.285 . S
C694 H714 0.929 . S
C695 C692 1.461 . S
C695 C694 1.474 . S
C696 C691 1.342 . S
C696 C694 1.285 . S
C696 H715 0.930 . S
C697 C700 1.424 . S
C697 C702 1.245 . S
C697 C703 1.428 . S
C698 C701 1.260 . S
C698 C702 1.477 . S
C698 H716 0.932 . S
C699 C700 1.384 . S
C699 C701 1.479 . S
C699 H717 0.929 . S
C700 C697 1.424 . S
C700 C699 1.384 . S
C700 H718 0.928 . S
C701 C698 1.260 . S
C701 C699 1.479 . S
C702 C697 1.245 . S
C702 C698 1.477 . S
C702 H719 0.932 . S
C703 U686 2.882 . S
C703 C697 1.428 . S
C703 O706 1.301 . S
C703 O707 1.282 . S
O704 U686 2.441 . S
O704 C690 1.249 . S
O705 U686 2.420 . S
O705 C690 1.202 . S
O706 U686 2.455 . S
O706 C703 1.301 . S
O707 U686 2.449 . S
O707 C703 1.282 . S
H708 C681 0.931 . S
H709 C683 0.929 . S
H710 C684 0.930 . S
H711 C685 0.931 . S
H712 C692 0.932 . S
H713 C693 0.930 . S
H714 C694 0.929 . S
H715 C696 0.930 . S
H716 C698 0.932 . S
H717 C699 0.929 . S
H718 C700 0.928 . S
H719 C702 0.932 . S
C720 C721 1.264 . S
C720 C725 1.479 . S
C720 C730 1.465 . S
C721 C720 1.264 . S
C721 C723 1.339 . S
C721 H748 0.931 . S
C722 C723 1.395 . S
C722 C724 1.320 . S
C723 C721 1.339 . S
C723 C722 1.395 . S
C723 H749 0.929 . S
C724 C722 1.320 . S
C724 C725 1.405 . S
C724 H750 0.930 . S
C725 C720 1.479 . S
C725 C724 1.405 . S
C725 H751 0.931 . S
U726 O727 2.454 . S
U726 O728 2.458 . S
U726 C729 2.984 . S
U726 C730 2.847 . S
U726 C743 2.882 . S
U726 O744 2.441 . S
U726 O745 2.420 . S
U726 O746 2.455 . S
U726 O747 2.449 . S
O727 U726 2.454 . S
O727 C729 1.353 . S
O728 U726 2.458 . S
O728 C729 1.286 . S
C729 U726 2.984 . S
C729 O727 1.353 . S
C729 O728 1.286 . S
C729 C731 1.363 . S
C730 C720 1.465 . S
C730 U726 2.847 . S
C730 O744 1.249 . S
C730 O745 1.202 . S
C731 C729 1.363 . S
C731 C733 1.408 . S
C731 C736 1.342 . S
C732 C733 1.310 . S
C732 C735 1.461 . S
C732 H752 0.932 . S
C733 C731 1.408 . S
C733 C732 1.310 . S
C733 H753 0.930 . S
C734 C735 1.474 . S
C734 C736 1.285 . S
C734 H754 0.929 . S
C735 C732 1.461 . S
C735 C734 1.474 . S
C736 C731 1.342 . S
C736 C734 1.285 . S
C736 H755 0.930 . S
C737 C740 1.424 . S
C737 C742 1.245 . S
C737 C743 1.428 . S
C738 C741 1.260 . S
C738 C742 1.477 . S
C738 H756 0.932 . S
C739 C740 1.384 . S
C739 C741 1.479 . S
C739 H757 0.929 . S
C740 C737 1.424 . S
C740 C739 1.384 . S
C740 H758 0.928 . S
C741 C738 1.260 . S
C741 C739 1.479 . S
C742 C737 1.245 . S
C742 C738 1.477 . S
C742 H759 0.932 . S
C743 U726 2.882 . S
C743 C737 1.428 . S
C743 O746 1.301 . S
C743 O747 1.282 . S
O744 U726 2.441 . S
O744 C730 1.249 . S
O745 U726 2.420 . S
O745 C730 1.202 . S
O746 U726 2.455 . S
O746 C743 1.301 . S
O747 U726 2.449 . S
O747 C743 1.282 . S
H748 C721 0.931 . S
H749 C723 0.929 . S
H750 C724 0.930 . S
H751 C725 0.931 . S
H752 C732 0.932 . S
H753 C733 0.930 . S
H754 C734 0.929 . S
H755 C736 0.930 . S
H756 C738 0.932 . S
H757 C739 0.929 . S
H758 C740 0.928 . S
H759 C742 0.932 . S
C760 C761 1.264 . S
C760 C765 1.479 . S
C760 C770 1.465 . S
C761 C760 1.264 . S
C761 C763 1.339 . S
C761 H788 0.931 . S
C762 C763 1.395 . S
C762 C764 1.320 . S
C763 C761 1.339 . S
C763 C762 1.395 . S
C763 H789 0.929 . S
C764 C762 1.320 . S
C764 C765 1.405 . S
C764 H790 0.930 . S
C765 C760 1.479 . S
C765 C764 1.405 . S
C765 H791 0.931 . S
U766 O767 2.454 . S
U766 O768 2.458 . S
U766 C769 2.984 . S
U766 C770 2.847 . S
U766 C783 2.882 . S
U766 O784 2.441 . S
U766 O785 2.420 . S
U766 O786 2.455 . S
U766 O787 2.449 . S
O767 U766 2.454 . S
O767 C769 1.353 . S
O768 U766 2.458 . S
O768 C769 1.286 . S
C769 U766 2.984 . S
C769 O767 1.353 . S
C769 O768 1.286 . S
C769 C771 1.363 . S
C770 C760 1.465 . S
C770 U766 2.847 . S
C770 O784 1.249 . S
C770 O785 1.202 . S
C771 C769 1.363 . S
C771 C773 1.408 . S
C771 C776 1.342 . S
C772 C773 1.310 . S
C772 C775 1.461 . S
C772 H792 0.932 . S
C773 C771 1.408 . S
C773 C772 1.310 . S
C773 H793 0.930 . S
C774 C775 1.474 . S
C774 C776 1.285 . S
C774 H794 0.929 . S
C775 C772 1.461 . S
C775 C774 1.474 . S
C776 C771 1.342 . S
C776 C774 1.285 . S
C776 H795 0.930 . S
C777 C780 1.424 . S
C777 C782 1.245 . S
C777 C783 1.428 . S
C778 C781 1.260 . S
C778 C782 1.477 . S
C778 H796 0.932 . S
C779 C780 1.384 . S
C779 C781 1.479 . S
C779 H797 0.929 . S
C780 C777 1.424 . S
C780 C779 1.384 . S
C780 H798 0.928 . S
C781 C778 1.260 . S
C781 C779 1.479 . S
C782 C777 1.245 . S
C782 C778 1.477 . S
C782 H799 0.932 . S
C783 U766 2.882 . S
C783 C777 1.428 . S
C783 O786 1.301 . S
C783 O787 1.282 . S
O784 U766 2.441 . S
O784 C770 1.249 . S
O785 U766 2.420 . S
O785 C770 1.202 . S
O786 U766 2.455 . S
O786 C783 1.301 . S
O787 U766 2.449 . S
O787 C783 1.282 . S
H788 C761 0.931 . S
H789 C763 0.929 . S
H790 C764 0.930 . S
H791 C765 0.931 . S
H792 C772 0.932 . S
H793 C773 0.930 . S
H794 C774 0.929 . S
H795 C776 0.930 . S
H796 C778 0.932 . S
H797 C779 0.929 . S
H798 C780 0.928 . S
H799 C782 0.932 . S
C800 C801 1.264 . S
C800 C805 1.479 . S
C800 C810 1.465 . S
C801 C800 1.264 . S
C801 C803 1.339 . S
C801 H828 0.931 . S
C802 C803 1.395 . S
C802 C804 1.320 . S
C803 C801 1.339 . S
C803 C802 1.395 . S
C803 H829 0.929 . S
C804 C802 1.320 . S
C804 C805 1.405 . S
C804 H830 0.930 . S
C805 C800 1.479 . S
C805 C804 1.405 . S
C805 H831 0.931 . S
U806 O807 2.454 . S
U806 O808 2.458 . S
U806 C809 2.984 . S
U806 C810 2.847 . S
U806 C823 2.882 . S
U806 O824 2.441 . S
U806 O825 2.420 . S
U806 O826 2.455 . S
U806 O827 2.449 . S
O807 U806 2.454 . S
O807 C809 1.353 . S
O808 U806 2.458 . S
O808 C809 1.286 . S
C809 U806 2.984 . S
C809 O807 1.353 . S
C809 O808 1.286 . S
C809 C811 1.363 . S
C810 C800 1.465 . S
C810 U806 2.847 . S
C810 O824 1.249 . S
C810 O825 1.202 . S
C811 C809 1.363 . S
C811 C813 1.408 . S
C811 C816 1.342 . S
C812 C813 1.310 . S
C812 C815 1.461 . S
C812 H832 0.932 . S
C813 C811 1.408 . S
C813 C812 1.310 . S
C813 H833 0.930 . S
C814 C815 1.474 . S
C814 C816 1.285 . S
C814 H834 0.929 . S
C815 C812 1.461 . S
C815 C814 1.474 . S
C816 C811 1.342 . S
C816 C814 1.285 . S
C816 H835 0.930 . S
C817 C820 1.424 . S
C817 C822 1.245 . S
C817 C823 1.428 . S
C818 C821 1.260 . S
C818 C822 1.477 . S
C818 H836 0.932 . S
C819 C820 1.384 . S
C819 C821 1.479 . S
C819 H837 0.929 . S
C820 C817 1.424 . S
C820 C819 1.384 . S
C820 H838 0.928 . S
C821 C818 1.260 . S
C821 C819 1.479 . S
C822 C817 1.245 . S
C822 C818 1.477 . S
C822 H839 0.932 . S
C823 U806 2.882 . S
C823 C817 1.428 . S
C823 O826 1.301 . S
C823 O827 1.282 . S
O824 U806 2.441 . S
O824 C810 1.249 . S
O825 U806 2.420 . S
O825 C810 1.202 . S
O826 U806 2.455 . S
O826 C823 1.301 . S
O827 U806 2.449 . S
O827 C823 1.282 . S
H828 C801 0.931 . S
H829 C803 0.929 . S
H830 C804 0.930 . S
H831 C805 0.931 . S
H832 C812 0.932 . S
H833 C813 0.930 . S
H834 C814 0.929 . S
H835 C816 0.930 . S
H836 C818 0.932 . S
H837 C819 0.929 . S
H838 C820 0.928 . S
H839 C822 0.932 . S
C840 C841 1.264 . S
C840 C845 1.479 . S
C840 C850 1.465 . S
C841 C840 1.264 . S
C841 C843 1.339 . S
C841 H868 0.931 . S
C842 C843 1.395 . S
C842 C844 1.320 . S
C843 C841 1.339 . S
C843 C842 1.395 . S
C843 H869 0.929 . S
C844 C842 1.320 . S
C844 C845 1.405 . S
C844 H870 0.930 . S
C845 C840 1.479 . S
C845 C844 1.405 . S
C845 H871 0.931 . S
U846 O847 2.454 . S
U846 O848 2.458 . S
U846 C849 2.984 . S
U846 C850 2.847 . S
U846 C863 2.882 . S
U846 O864 2.441 . S
U846 O865 2.420 . S
U846 O866 2.455 . S
U846 O867 2.449 . S
O847 U846 2.454 . S
O847 C849 1.353 . S
O848 U846 2.458 . S
O848 C849 1.286 . S
C849 U846 2.984 . S
C849 O847 1.353 . S
C849 O848 1.286 . S
C849 C851 1.363 . S
C850 C840 1.465 . S
C850 U846 2.847 . S
C850 O864 1.249 . S
C850 O865 1.202 . S
C851 C849 1.363 . S
C851 C853 1.408 . S
C851 C856 1.342 . S
C852 C853 1.310 . S
C852 C855 1.461 . S
C852 H872 0.932 . S
C853 C851 1.408 . S
C853 C852 1.310 . S
C853 H873 0.930 . S
C854 C855 1.474 . S
C854 C856 1.285 . S
C854 H874 0.929 . S
C855 C852 1.461 . S
C855 C854 1.474 . S
C856 C851 1.342 . S
C856 C854 1.285 . S
C856 H875 0.930 . S
C857 C860 1.424 . S
C857 C862 1.245 . S
C857 C863 1.428 . S
C858 C861 1.260 . S
C858 C862 1.477 . S
C858 H876 0.932 . S
C859 C860 1.384 . S
C859 C861 1.479 . S
C859 H877 0.929 . S
C860 C857 1.424 . S
C860 C859 1.384 . S
C860 H878 0.928 . S
C861 C858 1.260 . S
C861 C859 1.479 . S
C862 C857 1.245 . S
C862 C858 1.477 . S
C862 H879 0.932 . S
C863 U846 2.882 . S
C863 C857 1.428 . S
C863 O866 1.301 . S
C863 O867 1.282 . S
O864 U846 2.441 . S
O864 C850 1.249 . S
O865 U846 2.420 . S
O865 C850 1.202 . S
O866 U846 2.455 . S
O866 C863 1.301 . S
O867 U846 2.449 . S
O867 C863 1.282 . S
H868 C841 0.931 . S
H869 C843 0.929 . S
H870 C844 0.930 . S
H871 C845 0.931 . S
H872 C852 0.932 . S
H873 C853 0.930 . S
H874 C854 0.929 . S
H875 C856 0.930 . S
H876 C858 0.932 . S
H877 C859 0.929 . S
H878 C860 0.928 . S
H879 C862 0.932 . S
C880 C881 1.264 . S
C880 C885 1.479 . S
C880 C890 1.465 . S
C881 C880 1.264 . S
C881 C883 1.339 . S
C881 H908 0.931 . S
C882 C883 1.395 . S
C882 C884 1.320 . S
C883 C881 1.339 . S
C883 C882 1.395 . S
C883 H909 0.929 . S
C884 C882 1.320 . S
C884 C885 1.405 . S
C884 H910 0.930 . S
C885 C880 1.479 . S
C885 C884 1.405 . S
C885 H911 0.931 . S
U886 O887 2.454 . S
U886 O888 2.458 . S
U886 C889 2.984 . S
U886 C890 2.847 . S
U886 C903 2.882 . S
U886 O904 2.441 . S
U886 O905 2.420 . S
U886 O906 2.455 . S
U886 O907 2.449 . S
O887 U886 2.454 . S
O887 C889 1.353 . S
O888 U886 2.458 . S
O888 C889 1.286 . S
C889 U886 2.984 . S
C889 O887 1.353 . S
C889 O888 1.286 . S
C889 C891 1.363 . S
C890 C880 1.465 . S
C890 U886 2.847 . S
C890 O904 1.249 . S
C890 O905 1.202 . S
C891 C889 1.363 . S
C891 C893 1.408 . S
C891 C896 1.342 . S
C892 C893 1.310 . S
C892 C895 1.461 . S
C892 H912 0.932 . S
C893 C891 1.408 . S
C893 C892 1.310 . S
C893 H913 0.930 . S
C894 C895 1.474 . S
C894 C896 1.285 . S
C894 H914 0.929 . S
C895 C892 1.461 . S
C895 C894 1.474 . S
C896 C891 1.342 . S
C896 C894 1.285 . S
C896 H915 0.930 . S
C897 C900 1.424 . S
C897 C902 1.245 . S
C897 C903 1.428 . S
C898 C901 1.260 . S
C898 C902 1.477 . S
C898 H916 0.932 . S
C899 C900 1.384 . S
C899 C901 1.479 . S
C899 H917 0.929 . S
C900 C897 1.424 . S
C900 C899 1.384 . S
C900 H918 0.928 . S
C901 C898 1.260 . S
C901 C899 1.479 . S
C902 C897 1.245 . S
C902 C898 1.477 . S
C902 H919 0.932 . S
C903 U886 2.882 . S
C903 C897 1.428 . S
C903 O906 1.301 . S
C903 O907 1.282 . S
O904 U886 2.441 . S
O904 C890 1.249 . S
O905 U886 2.420 . S
O905 C890 1.202 . S
O906 U886 2.455 . S
O906 C903 1.301 . S
O907 U886 2.449 . S
O907 C903 1.282 . S
H908 C881 0.931 . S
H909 C883 0.929 . S
H910 C884 0.930 . S
H911 C885 0.931 . S
H912 C892 0.932 . S
H913 C893 0.930 . S
H914 C894 0.929 . S
H915 C896 0.930 . S
H916 C898 0.932 . S
H917 C899 0.929 . S
H918 C900 0.928 . S
H919 C902 0.932 . S
C920 C921 1.264 . S
C920 C925 1.479 . S
C920 C930 1.465 . S
C921 C920 1.264 . S
C921 C923 1.339 . S
C921 H948 0.931 . S
C922 C923 1.395 . S
C922 C924 1.320 . S
C923 C921 1.339 . S
C923 C922 1.395 . S
C923 H949 0.929 . S
C924 C922 1.320 . S
C924 C925 1.405 . S
C924 H950 0.930 . S
C925 C920 1.479 . S
C925 C924 1.405 . S
C925 H951 0.931 . S
U926 O927 2.454 . S
U926 O928 2.458 . S
U926 C929 2.984 . S
U926 C930 2.847 . S
U926 C943 2.882 . S
U926 O944 2.441 . S
U926 O945 2.420 . S
U926 O946 2.455 . S
U926 O947 2.449 . S
O927 U926 2.454 . S
O927 C929 1.353 . S
O928 U926 2.458 . S
O928 C929 1.286 . S
C929 U926 2.984 . S
C929 O927 1.353 . S
C929 O928 1.286 . S
C929 C931 1.363 . S
C930 C920 1.465 . S
C930 U926 2.847 . S
C930 O944 1.249 . S
C930 O945 1.202 . S
C931 C929 1.363 . S
C931 C933 1.408 . S
C931 C936 1.342 . S
C932 C933 1.310 . S
C932 C935 1.461 . S
C932 H952 0.932 . S
C933 C931 1.408 . S
C933 C932 1.310 . S
C933 H953 0.930 . S
C934 C935 1.474 . S
C934 C936 1.285 . S
C934 H954 0.929 . S
C935 C932 1.461 . S
C935 C934 1.474 . S
C936 C931 1.342 . S
C936 C934 1.285 . S
C936 H955 0.930 . S
C937 C940 1.424 . S
C937 C942 1.245 . S
C937 C943 1.428 . S
C938 C941 1.260 . S
C938 C942 1.477 . S
C938 H956 0.932 . S
C939 C940 1.384 . S
C939 C941 1.479 . S
C939 H957 0.929 . S
C940 C937 1.424 . S
C940 C939 1.384 . S
C940 H958 0.928 . S
C941 C938 1.260 . S
C941 C939 1.479 . S
C942 C937 1.245 . S
C942 C938 1.477 . S
C942 H959 0.932 . S
C943 U926 2.882 . S
C943 C937 1.428 . S
C943 O946 1.301 . S
C943 O947 1.282 . S
O944 U926 2.441 . S
O944 C930 1.249 . S
O945 U926 2.420 . S
O945 C930 1.202 . S
O946 U926 2.455 . S
O946 C943 1.301 . S
O947 U926 2.449 . S
O947 C943 1.282 . S
H948 C921 0.931 . S
H949 C923 0.929 . S
H950 C924 0.930 . S
H951 C925 0.931 . S
H952 C932 0.932 . S
H953 C933 0.930 . S
H954 C934 0.929 . S
H955 C936 0.930 . S
H956 C938 0.932 . S
H957 C939 0.929 . S
H958 C940 0.928 . S
H959 C942 0.932 . S
C960 C961 1.264 . S
C960 C965 1.479 . S
C960 C970 1.465 . S
C961 C960 1.264 . S
C961 C963 1.339 . S
C961 H988 0.931 . S
C962 C963 1.395 . S
C962 C964 1.320 . S
C963 C961 1.339 . S
C963 C962 1.395 . S
C963 H989 0.929 . S
C964 C962 1.320 . S
C964 C965 1.405 . S
C964 H990 0.930 . S
C965 C960 1.479 . S
C965 C964 1.405 . S
C965 H991 0.931 . S
U966 O967 2.454 . S
U966 O968 2.458 . S
U966 C969 2.984 . S
U966 C970 2.847 . S
U966 C983 2.882 . S
U966 O984 2.441 . S
U966 O985 2.420 . S
U966 O986 2.455 . S
U966 O987 2.449 . S
O967 U966 2.454 . S
O967 C969 1.353 . S
O968 U966 2.458 . S
O968 C969 1.286 . S
C969 U966 2.984 . S
C969 O967 1.353 . S
C969 O968 1.286 . S
C969 C971 1.363 . S
C970 C960 1.465 . S
C970 U966 2.847 . S
C970 O984 1.249 . S
C970 O985 1.202 . S
C971 C969 1.363 . S
C971 C973 1.408 . S
C971 C976 1.342 . S
C972 C973 1.310 . S
C972 C975 1.461 . S
C972 H992 0.932 . S
C973 C971 1.408 . S
C973 C972 1.310 . S
C973 H993 0.930 . S
C974 C975 1.474 . S
C974 C976 1.285 . S
C974 H994 0.929 . S
C975 C972 1.461 . S
C975 C974 1.474 . S
C976 C971 1.342 . S
C976 C974 1.285 . S
C976 H995 0.930 . S
C977 C980 1.424 . S
C977 C982 1.245 . S
C977 C983 1.428 . S
C978 C981 1.260 . S
C978 C982 1.477 . S
C978 H996 0.932 . S
C979 C980 1.384 . S
C979 C981 1.479 . S
C979 H997 0.929 . S
C980 C977 1.424 . S
C980 C979 1.384 . S
C980 H998 0.928 . S
C981 C978 1.260 . S
C981 C979 1.479 . S
C982 C977 1.245 . S
C982 C978 1.477 . S
C982 H999 0.932 . S
C983 U966 2.882 . S
C983 C977 1.428 . S
C983 O986 1.301 . S
C983 O987 1.282 . S
O984 U966 2.441 . S
O984 C970 1.249 . S
O985 U966 2.420 . S
O985 C970 1.202 . S
O986 U966 2.455 . S
O986 C983 1.301 . S
O987 U966 2.449 . S
O987 C983 1.282 . S
H988 C961 0.931 . S
H989 C963 0.929 . S
H990 C964 0.930 . S
H991 C965 0.931 . S
H992 C972 0.932 . S
H993 C973 0.930 . S
H994 C974 0.929 . S
H995 C976 0.930 . S
H996 C978 0.932 . S
H997 C979 0.929 . S
H998 C980 0.928 . S
H999 C982 0.932 . S
C1000 C1001 1.264 . S
C1000 C1005 1.479 . S
C1000 C1010 1.465 . S
C1001 C1000 1.264 . S
C1001 C1003 1.339 . S
C1001 H1028 0.931 . S
C1002 C1003 1.395 . S
C1002 C1004 1.320 . S
C1003 C1001 1.339 . S
C1003 C1002 1.395 . S
C1003 H1029 0.929 . S
C1004 C1002 1.320 . S
C1004 C1005 1.405 . S
C1004 H1030 0.930 . S
C1005 C1000 1.479 . S
C1005 C1004 1.405 . S
C1005 H1031 0.931 . S
U1006 O1007 2.454 . S
U1006 O1008 2.458 . S
U1006 C1009 2.984 . S
U1006 C1010 2.847 . S
U1006 C1023 2.882 . S
U1006 O1024 2.441 . S
U1006 O1025 2.420 . S
U1006 O1026 2.455 . S
U1006 O1027 2.449 . S
O1007 U1006 2.454 . S
O1007 C1009 1.353 . S
O1008 U1006 2.458 . S
O1008 C1009 1.286 . S
C1009 U1006 2.984 . S
C1009 O1007 1.353 . S
C1009 O1008 1.286 . S
C1009 C1011 1.363 . S
C1010 C1000 1.465 . S
C1010 U1006 2.847 . S
C1010 O1024 1.249 . S
C1010 O1025 1.202 . S
C1011 C1009 1.363 . S
C1011 C1013 1.408 . S
C1011 C1016 1.342 . S
C1012 C1013 1.310 . S
C1012 C1015 1.461 . S
C1012 H1032 0.932 . S
C1013 C1011 1.408 . S
C1013 C1012 1.310 . S
C1013 H1033 0.930 . S
C1014 C1015 1.474 . S
C1014 C1016 1.285 . S
C1014 H1034 0.929 . S
C1015 C1012 1.461 . S
C1015 C1014 1.474 . S
C1016 C1011 1.342 . S
C1016 C1014 1.285 . S
C1016 H1035 0.930 . S
C1017 C1020 1.424 . S
C1017 C1022 1.245 . S
C1017 C1023 1.428 . S
C1018 C1021 1.260 . S
C1018 C1022 1.477 . S
C1018 H1036 0.932 . S
C1019 C1020 1.384 . S
C1019 C1021 1.479 . S
C1019 H1037 0.929 . S
C1020 C1017 1.424 . S
C1020 C1019 1.384 . S
C1020 H1038 0.928 . S
C1021 C1018 1.260 . S
C1021 C1019 1.479 . S
C1022 C1017 1.245 . S
C1022 C1018 1.477 . S
C1022 H1039 0.932 . S
C1023 U1006 2.882 . S
C1023 C1017 1.428 . S
C1023 O1026 1.301 . S
C1023 O1027 1.282 . S
O1024 U1006 2.441 . S
O1024 C1010 1.249 . S
O1025 U1006 2.420 . S
O1025 C1010 1.202 . S
O1026 U1006 2.455 . S
O1026 C1023 1.301 . S
O1027 U1006 2.449 . S
O1027 C1023 1.282 . S
H1028 C1001 0.931 . S
H1029 C1003 0.929 . S
H1030 C1004 0.930 . S
H1031 C1005 0.931 . S
H1032 C1012 0.932 . S
H1033 C1013 0.930 . S
H1034 C1014 0.929 . S
H1035 C1016 0.930 . S
H1036 C1018 0.932 . S
H1037 C1019 0.929 . S
H1038 C1020 0.928 . S
H1039 C1022 0.932 . S
C1040 C1041 1.264 . S
C1040 C1045 1.479 . S
C1040 C1050 1.465 . S
C1041 C1040 1.264 . S
C1041 C1043 1.339 . S
C1041 H1068 0.931 . S
C1042 C1043 1.395 . S
C1042 C1044 1.320 . S
C1043 C1041 1.339 . S
C1043 C1042 1.395 . S
C1043 H1069 0.929 . S
C1044 C1042 1.320 . S
C1044 C1045 1.405 . S
C1044 H1070 0.930 . S
C1045 C1040 1.479 . S
C1045 C1044 1.405 . S
C1045 H1071 0.931 . S
U1046 O1047 2.454 . S
U1046 O1048 2.458 . S
U1046 C1049 2.984 . S
U1046 C1050 2.847 . S
U1046 C1063 2.882 . S
U1046 O1064 2.441 . S
U1046 O1065 2.420 . S
U1046 O1066 2.455 . S
U1046 O1067 2.449 . S
O1047 U1046 2.454 . S
O1047 C1049 1.353 . S
O1048 U1046 2.458 . S
O1048 C1049 1.286 . S
C1049 U1046 2.984 . S
C1049 O1047 1.353 . S
C1049 O1048 1.286 . S
C1049 C1051 1.363 . S
C1050 C1040 1.465 . S
C1050 U1046 2.847 . S
C1050 O1064 1.249 . S
C1050 O1065 1.202 . S
C1051 C1049 1.363 . S
C1051 C1053 1.408 . S
C1051 C1056 1.342 . S
C1052 C1053 1.310 . S
C1052 C1055 1.461 . S
C1052 H1072 0.932 . S
C1053 C1051 1.408 . S
C1053 C1052 1.310 . S
C1053 H1073 0.930 . S
C1054 C1055 1.474 . S
C1054 C1056 1.285 . S
C1054 H1074 0.929 . S
C1055 C1052 1.461 . S
C1055 C1054 1.474 . S
C1056 C1051 1.342 . S
C1056 C1054 1.285 . S
C1056 H1075 0.930 . S
C1057 C1060 1.424 . S
C1057 C1062 1.245 . S
C1057 C1063 1.428 . S
C1058 C1061 1.260 . S
C1058 C1062 1.477 . S
C1058 H1076 0.932 . S
C1059 C1060 1.384 . S
C1059 C1061 1.479 . S
C1059 H1077 0.929 . S
C1060 C1057 1.424 . S
C1060 C1059 1.384 . S
C1060 H1078 0.928 . S
C1061 C1058 1.260 . S
C1061 C1059 1.479 . S
C1062 C1057 1.245 . S
C1062 C1058 1.477 . S
C1062 H1079 0.932 . S
C1063 U1046 2.882 . S
C1063 C1057 1.428 . S
C1063 O1066 1.301 . S
C1063 O1067 1.282 . S
O1064 U1046 2.441 . S
O1064 C1050 1.249 . S
O1065 U1046 2.420 . S
O1065 C1050 1.202 . S
O1066 U1046 2.455 . S
O1066 C1063 1.301 . S
O1067 U1046 2.449 . S
O1067 C1063 1.282 . S
H1068 C1041 0.931 . S
H1069 C1043 0.929 . S
H1070 C1044 0.930 . S
H1071 C1045 0.931 . S
H1072 C1052 0.932 . S
H1073 C1053 0.930 . S
H1074 C1054 0.929 . S
H1075 C1056 0.930 . S
H1076 C1058 0.932 . S
H1077 C1059 0.929 . S
H1078 C1060 0.928 . S
H1079 C1062 0.932 . S
C1080 C1081 1.264 . S
C1080 C1085 1.479 . S
C1080 C1090 1.465 . S
C1081 C1080 1.264 . S
C1081 C1083 1.339 . S
C1081 H1108 0.931 . S
C1082 C1083 1.395 . S
C1082 C1084 1.320 . S
C1083 C1081 1.339 . S
C1083 C1082 1.395 . S
C1083 H1109 0.929 . S
C1084 C1082 1.320 . S
C1084 C1085 1.405 . S
C1084 H1110 0.930 . S
C1085 C1080 1.479 . S
C1085 C1084 1.405 . S
C1085 H1111 0.931 . S
U1086 O1087 2.454 . S
U1086 O1088 2.458 . S
U1086 C1089 2.984 . S
U1086 C1090 2.847 . S
U1086 C1103 2.882 . S
U1086 O1104 2.441 . S
U1086 O1105 2.420 . S
U1086 O1106 2.455 . S
U1086 O1107 2.449 . S
O1087 U1086 2.454 . S
O1087 C1089 1.353 . S
O1088 U1086 2.458 . S
O1088 C1089 1.286 . S
C1089 U1086 2.984 . S
C1089 O1087 1.353 . S
C1089 O1088 1.286 . S
C1089 C1091 1.363 . S
C1090 C1080 1.465 . S
C1090 U1086 2.847 . S
C1090 O1104 1.249 . S
C1090 O1105 1.202 . S
C1091 C1089 1.363 . S
C1091 C1093 1.408 . S
C1091 C1096 1.342 . S
C1092 C1093 1.310 . S
C1092 C1095 1.461 . S
C1092 H1112 0.932 . S
C1093 C1091 1.408 . S
C1093 C1092 1.310 . S
C1093 H1113 0.930 . S
C1094 C1095 1.474 . S
C1094 C1096 1.285 . S
C1094 H1114 0.929 . S
C1095 C1092 1.461 . S
C1095 C1094 1.474 . S
C1096 C1091 1.342 . S
C1096 C1094 1.285 . S
C1096 H1115 0.930 . S
C1097 C1100 1.424 . S
C1097 C1102 1.245 . S
C1097 C1103 1.428 . S
C1098 C1101 1.260 . S
C1098 C1102 1.477 . S
C1098 H1116 0.932 . S
C1099 C1100 1.384 . S
C1099 C1101 1.479 . S
C1099 H1117 0.929 . S
C1100 C1097 1.424 . S
C1100 C1099 1.384 . S
C1100 H1118 0.928 . S
C1101 C1098 1.260 . S
C1101 C1099 1.479 . S
C1102 C1097 1.245 . S
C1102 C1098 1.477 . S
C1102 H1119 0.932 . S
C1103 U1086 2.882 . S
C1103 C1097 1.428 . S
C1103 O1106 1.301 . S
C1103 O1107 1.282 . S
O1104 U1086 2.441 . S
O1104 C1090 1.249 . S
O1105 U1086 2.420 . S
O1105 C1090 1.202 . S
O1106 U1086 2.455 . S
O1106 C1103 1.301 . S
O1107 U1086 2.449 . S
O1107 C1103 1.282 . S
H1108 C1081 0.931 . S
H1109 C1083 0.929 . S
H1110 C1084 0.930 . S
H1111 C1085 0.931 . S
H1112 C1092 0.932 . S
H1113 C1093 0.930 . S
H1114 C1094 0.929 . S
H1115 C1096 0.930 . S
H1116 C1098 0.932 . S
H1117 C1099 0.929 . S
H1118 C1100 0.928 . S
H1119 C1102 0.932 . S
C1120 C1121 1.264 . S
C1120 C1125 1.479 . S
C1120 C1130 1.465 . S
C1121 C1120 1.264 . S
C1121 C1123 1.339 . S
C1121 H1148 0.931 . S
C1122 C1123 1.395 . S
C1122 C1124 1.320 . S
C1123 C1121 1.339 . S
C1123 C1122 1.395 . S
C1123 H1149 0.929 . S
C1124 C1122 1.320 . S
C1124 C1125 1.405 . S
C1124 H1150 0.930 . S
C1125 C1120 1.479 . S
C1125 C1124 1.405 . S
C1125 H1151 0.931 . S
U1126 O1127 2.454 . S
U1126 O1128 2.458 . S
U1126 C1129 2.984 . S
U1126 C1130 2.847 . S
U1126 C1143 2.882 . S
U1126 O1144 2.441 . S
U1126 O1145 2.420 . S
U1126 O1146 2.455 . S
U1126 O1147 2.449 . S
O1127 U1126 2.454 . S
O1127 C1129 1.353 . S
O1128 U1126 2.458 . S
O1128 C1129 1.286 . S
C1129 U1126 2.984 . S
C1129 O1127 1.353 . S
C1129 O1128 1.286 . S
C1129 C1131 1.363 . S
C1130 C1120 1.465 . S
C1130 U1126 2.847 . S
C1130 O1144 1.249 . S
C1130 O1145 1.202 . S
C1131 C1129 1.363 . S
C1131 C1133 1.408 . S
C1131 C1136 1.342 . S
C1132 C1133 1.310 . S
C1132 C1135 1.461 . S
C1132 H1152 0.932 . S
C1133 C1131 1.408 . S
C1133 C1132 1.310 . S
C1133 H1153 0.930 . S
C1134 C1135 1.474 . S
C1134 C1136 1.285 . S
C1134 H1154 0.929 . S
C1135 C1132 1.461 . S
C1135 C1134 1.474 . S
C1136 C1131 1.342 . S
C1136 C1134 1.285 . S
C1136 H1155 0.930 . S
C1137 C1140 1.424 . S
C1137 C1142 1.245 . S
C1137 C1143 1.428 . S
C1138 C1141 1.260 . S
C1138 C1142 1.477 . S
C1138 H1156 0.932 . S
C1139 C1140 1.384 . S
C1139 C1141 1.479 . S
C1139 H1157 0.929 . S
C1140 C1137 1.424 . S
C1140 C1139 1.384 . S
C1140 H1158 0.928 . S
C1141 C1138 1.260 . S
C1141 C1139 1.479 . S
C1142 C1137 1.245 . S
C1142 C1138 1.477 . S
C1142 H1159 0.932 . S
C1143 U1126 2.882 . S
C1143 C1137 1.428 . S
C1143 O1146 1.301 . S
C1143 O1147 1.282 . S
O1144 U1126 2.441 . S
O1144 C1130 1.249 . S
O1145 U1126 2.420 . S
O1145 C1130 1.202 . S
O1146 U1126 2.455 . S
O1146 C1143 1.301 . S
O1147 U1126 2.449 . S
O1147 C1143 1.282 . S
H1148 C1121 0.931 . S
H1149 C1123 0.929 . S
H1150 C1124 0.930 . S
H1151 C1125 0.931 . S
H1152 C1132 0.932 . S
H1153 C1133 0.930 . S
H1154 C1134 0.929 . S
H1155 C1136 0.930 . S
H1156 C1138 0.932 . S
H1157 C1139 0.929 . S
H1158 C1140 0.928 . S
H1159 C1142 0.932 . S
C1160 C1161 1.264 . S
C1160 C1165 1.479 . S
C1160 C1170 1.465 . S
C1161 C1160 1.264 . S
C1161 C1163 1.339 . S
C1161 H1188 0.931 . S
C1162 C1163 1.395 . S
C1162 C1164 1.320 . S
C1163 C1161 1.339 . S
C1163 C1162 1.395 . S
C1163 H1189 0.929 . S
C1164 C1162 1.320 . S
C1164 C1165 1.405 . S
C1164 H1190 0.930 . S
C1165 C1160 1.479 . S
C1165 C1164 1.405 . S
C1165 H1191 0.931 . S
U1166 O1167 2.454 . S
U1166 O1168 2.458 . S
U1166 C1169 2.984 . S
U1166 C1170 2.847 . S
U1166 C1183 2.882 . S
U1166 O1184 2.441 . S
U1166 O1185 2.420 . S
U1166 O1186 2.455 . S
U1166 O1187 2.449 . S
O1167 U1166 2.454 . S
O1167 C1169 1.353 . S
O1168 U1166 2.458 . S
O1168 C1169 1.286 . S
C1169 U1166 2.984 . S
C1169 O1167 1.353 . S
C1169 O1168 1.286 . S
C1169 C1171 1.363 . S
C1170 C1160 1.465 . S
C1170 U1166 2.847 . S
C1170 O1184 1.249 . S
C1170 O1185 1.202 . S
C1171 C1169 1.363 . S
C1171 C1173 1.408 . S
C1171 C1176 1.342 . S
C1172 C1173 1.310 . S
C1172 C1175 1.461 . S
C1172 H1192 0.932 . S
C1173 C1171 1.408 . S
C1173 C1172 1.310 . S
C1173 H1193 0.930 . S
C1174 C1175 1.474 . S
C1174 C1176 1.285 . S
C1174 H1194 0.929 . S
C1175 C1172 1.461 . S
C1175 C1174 1.474 . S
C1176 C1171 1.342 . S
C1176 C1174 1.285 . S
C1176 H1195 0.930 . S
C1177 C1180 1.424 . S
C1177 C1182 1.245 . S
C1177 C1183 1.428 . S
C1178 C1181 1.260 . S
C1178 C1182 1.477 . S
C1178 H1196 0.932 . S
C1179 C1180 1.384 . S
C1179 C1181 1.479 . S
C1179 H1197 0.929 . S
C1180 C1177 1.424 . S
C1180 C1179 1.384 . S
C1180 H1198 0.928 . S
C1181 C1178 1.260 . S
C1181 C1179 1.479 . S
C1182 C1177 1.245 . S
C1182 C1178 1.477 . S
C1182 H1199 0.932 . S
C1183 U1166 2.882 . S
C1183 C1177 1.428 . S
C1183 O1186 1.301 . S
C1183 O1187 1.282 . S
O1184 U1166 2.441 . S
O1184 C1170 1.249 . S
O1185 U1166 2.420 . S
O1185 C1170 1.202 . S
O1186 U1166 2.455 . S
O1186 C1183 1.301 . S
O1187 U1166 2.449 . S
O1187 C1183 1.282 . S
H1188 C1161 0.931 . S
H1189 C1163 0.929 . S
H1190 C1164 0.930 . S
H1191 C1165 0.931 . S
H1192 C1172 0.932 . S
H1193 C1173 0.930 . S
H1194 C1174 0.929 . S
H1195 C1176 0.930 . S
H1196 C1178 0.932 . S
H1197 C1179 0.929 . S
H1198 C1180 0.928 . S
H1199 C1182 0.932 . S
C1200 C1201 1.264 . S
C1200 C1205 1.479 . S
C1200 C1210 1.465 . S
C1201 C1200 1.264 . S
C1201 C1203 1.339 . S
C1201 H1228 0.931 . S
C1202 C1203 1.395 . S
C1202 C1204 1.320 . S
C1203 C1201 1.339 . S
C1203 C1202 1.395 . S
C1203 H1229 0.929 . S
C1204 C1202 1.320 . S
C1204 C1205 1.405 . S
C1204 H1230 0.930 . S
C1205 C1200 1.479 . S
C1205 C1204 1.405 . S
C1205 H1231 0.931 . S
U1206 O1207 2.454 . S
U1206 O1208 2.458 . S
U1206 C1209 2.984 . S
U1206 C1210 2.847 . S
U1206 C1223 2.882 . S
U1206 O1224 2.441 . S
U1206 O1225 2.420 . S
U1206 O1226 2.455 . S
U1206 O1227 2.449 . S
O1207 U1206 2.454 . S
O1207 C1209 1.353 . S
O1208 U1206 2.458 . S
O1208 C1209 1.286 . S
C1209 U1206 2.984 . S
C1209 O1207 1.353 . S
C1209 O1208 1.286 . S
C1209 C1211 1.363 . S
C1210 C1200 1.465 . S
C1210 U1206 2.847 . S
C1210 O1224 1.249 . S
C1210 O1225 1.202 . S
C1211 C1209 1.363 . S
C1211 C1213 1.408 . S
C1211 C1216 1.342 . S
C1212 C1213 1.310 . S
C1212 C1215 1.461 . S
C1212 H1232 0.932 . S
C1213 C1211 1.408 . S
C1213 C1212 1.310 . S
C1213 H1233 0.930 . S
C1214 C1215 1.474 . S
C1214 C1216 1.285 . S
C1214 H1234 0.929 . S
C1215 C1212 1.461 . S
C1215 C1214 1.474 . S
C1216 C1211 1.342 . S
C1216 C1214 1.285 . S
C1216 H1235 0.930 . S
C1217 C1220 1.424 . S
C1217 C1222 1.245 . S
C1217 C1223 1.428 . S
C1218 C1221 1.260 . S
C1218 C1222 1.477 . S
C1218 H1236 0.932 . S
C1219 C1220 1.384 . S
C1219 C1221 1.479 . S
C1219 H1237 0.929 . S
C1220 C1217 1.424 . S
C1220 C1219 1.384 . S
C1220 H1238 0.928 . S
C1221 C1218 1.260 . S
C1221 C1219 1.479 . S
C1222 C1217 1.245 . S
C1222 C1218 1.477 . S
C1222 H1239 0.932 . S
C1223 U1206 2.882 . S
C1223 C1217 1.428 . S
C1223 O1226 1.301 . S
C1223 O1227 1.282 . S
O1224 U1206 2.441 . S
O1224 C1210 1.249 . S
O1225 U1206 2.420 . S
O1225 C1210 1.202 . S
O1226 U1206 2.455 . S
O1226 C1223 1.301 . S
O1227 U1206 2.449 . S
O1227 C1223 1.282 . S
H1228 C1201 0.931 . S
H1229 C1203 0.929 . S
H1230 C1204 0.930 . S
H1231 C1205 0.931 . S
H1232 C1212 0.932 . S
H1233 C1213 0.930 . S
H1234 C1214 0.929 . S
H1235 C1216 0.930 . S
H1236 C1218 0.932 . S
H1237 C1219 0.929 . S
H1238 C1220 0.928 . S
H1239 C1222 0.932 . S
C1240 C1241 1.264 . S
C1240 C1245 1.479 . S
C1240 C1250 1.465 . S
C1241 C1240 1.264 . S
C1241 C1243 1.339 . S
C1241 H1268 0.931 . S
C1242 C1243 1.395 . S
C1242 C1244 1.320 . S
C1243 C1241 1.339 . S
C1243 C1242 1.395 . S
C1243 H1269 0.929 . S
C1244 C1242 1.320 . S
C1244 C1245 1.405 . S
C1244 H1270 0.930 . S
C1245 C1240 1.479 . S
C1245 C1244 1.405 . S
C1245 H1271 0.931 . S
U1246 O1247 2.454 . S
U1246 O1248 2.458 . S
U1246 C1249 2.984 . S
U1246 C1250 2.847 . S
U1246 C1263 2.882 . S
U1246 O1264 2.441 . S
U1246 O1265 2.420 . S
U1246 O1266 2.455 . S
U1246 O1267 2.449 . S
O1247 U1246 2.454 . S
O1247 C1249 1.353 . S
O1248 U1246 2.458 . S
O1248 C1249 1.286 . S
C1249 U1246 2.984 . S
C1249 O1247 1.353 . S
C1249 O1248 1.286 . S
C1249 C1251 1.363 . S
C1250 C1240 1.465 . S
C1250 U1246 2.847 . S
C1250 O1264 1.249 . S
C1250 O1265 1.202 . S
C1251 C1249 1.363 . S
C1251 C1253 1.408 . S
C1251 C1256 1.342 . S
C1252 C1253 1.310 . S
C1252 C1255 1.461 . S
C1252 H1272 0.932 . S
C1253 C1251 1.408 . S
C1253 C1252 1.310 . S
C1253 H1273 0.930 . S
C1254 C1255 1.474 . S
C1254 C1256 1.285 . S
C1254 H1274 0.929 . S
C1255 C1252 1.461 . S
C1255 C1254 1.474 . S
C1256 C1251 1.342 . S
C1256 C1254 1.285 . S
C1256 H1275 0.930 . S
C1257 C1260 1.424 . S
C1257 C1262 1.245 . S
C1257 C1263 1.428 . S
C1258 C1261 1.260 . S
C1258 C1262 1.477 . S
C1258 H1276 0.932 . S
C1259 C1260 1.384 . S
C1259 C1261 1.479 . S
C1259 H1277 0.929 . S
C1260 C1257 1.424 . S
C1260 C1259 1.384 . S
C1260 H1278 0.928 . S
C1261 C1258 1.260 . S
C1261 C1259 1.479 . S
C1262 C1257 1.245 . S
C1262 C1258 1.477 . S
C1262 H1279 0.932 . S
C1263 U1246 2.882 . S
C1263 C1257 1.428 . S
C1263 O1266 1.301 . S
C1263 O1267 1.282 . S
O1264 U1246 2.441 . S
O1264 C1250 1.249 . S
O1265 U1246 2.420 . S
O1265 C1250 1.202 . S
O1266 U1246 2.455 . S
O1266 C1263 1.301 . S
O1267 U1246 2.449 . S
O1267 C1263 1.282 . S
H1268 C1241 0.931 . S
H1269 C1243 0.929 . S
H1270 C1244 0.930 . S
H1271 C1245 0.931 . S
H1272 C1252 0.932 . S
H1273 C1253 0.930 . S
H1274 C1254 0.929 . S
H1275 C1256 0.930 . S
H1276 C1258 0.932 . S
H1277 C1259 0.929 . S
H1278 C1260 0.928 . S
H1279 C1262 0.932 . S
H1280 C1288 0.950 . S
H1281 C1293 0.950 . S
H1282 C1290 0.950 . S
H1283 C1292 0.950 . S
H1284 C1294 0.950 . S
H1285 C1296 0.950 . S
H1286 C1298 0.966 . S
H1287 C1299 0.975 . S
C1288 H1280 0.950 . S
C1288 C1289 1.386 1_545 S
C1288 C1290 1.391 . S
C1289 C1288 1.386 1_565 S
C1289 C1293 1.393 . S
C1290 H1282 0.950 . S
C1290 C1288 1.391 . S
C1290 C1291 1.400 1_545 S
C1291 C1290 1.400 1_565 S
C1291 C1292 1.398 . S
C1291 C1297 1.491 . S
C1292 H1283 0.950 . S
C1292 C1291 1.398 . S
C1292 C1293 1.391 . S
C1293 H1281 0.950 . S
C1293 C1289 1.393 . S
C1293 C1292 1.391 . S
C1294 H1284 0.950 . S
C1294 C1295 1.386 . S
C1294 C1296 1.391 . S
C1295 C1294 1.386 . S
C1295 C1299 1.369 1_565 S
C1296 H1285 0.950 . S
C1296 C1294 1.391 . S
C1296 C1297 1.400 . S
C1297 C1291 1.491 . S
C1297 C1296 1.400 . S
C1297 C1298 1.383 1_565 S
C1298 H1286 0.966 . S
C1298 C1297 1.383 1_545 S
C1298 C1299 1.391 . S
C1299 H1287 0.975 . S
C1299 C1295 1.369 1_545 S
C1299 C1298 1.391 . S
H1300 C1308 0.950 . S
H1301 C1313 0.950 . S
H1302 C1310 0.950 . S
H1303 C1312 0.950 . S
H1304 C1314 0.950 . S
H1305 C1316 0.950 . S
H1306 C1318 0.950 . S
H1307 C1319 0.950 . S
C1308 H1300 0.950 . S
C1308 C1309 1.386 . S
C1308 C1310 1.391 . S
C1309 C1308 1.386 . S
C1309 C1313 1.393 . S
C1310 H1302 0.950 . S
C1310 C1308 1.391 . S
C1310 C1311 1.400 . S
C1311 C1310 1.400 . S
C1311 C1312 1.398 . S
C1311 C1317 1.491 1_545 S
C1312 H1303 0.950 . S
C1312 C1311 1.398 . S
C1312 C1313 1.391 . S
C1313 H1301 0.950 . S
C1313 C1309 1.393 . S
C1313 C1312 1.391 . S
C1314 H1304 0.950 . S
C1314 C1315 1.386 . S
C1314 C1316 1.391 . S
C1315 C1314 1.386 . S
C1315 C1319 1.393 . S
C1316 H1305 0.950 . S
C1316 C1314 1.391 . S
C1316 C1317 1.400 . S
C1317 C1311 1.491 1_565 S
C1317 C1316 1.400 . S
C1317 C1318 1.398 . S
C1318 H1306 0.950 . S
C1318 C1317 1.398 . S
C1318 C1319 1.391 . S
C1319 H1307 0.950 . S
C1319 C1315 1.393 . S
C1319 C1318 1.391 . S
H1320 C1328 0.950 . S
H1321 C1333 0.950 . S
H1322 C1330 0.950 . S
H1323 C1332 0.950 . S
H1324 C1334 0.950 . S
H1325 C1336 0.950 . S
H1326 C1338 0.950 . S
H1327 C1339 0.950 . S
C1328 H1320 0.950 . S
C1328 C1329 1.386 1_565 S
C1328 C1330 1.391 . S
C1329 C1328 1.386 1_545 S
C1329 C1333 1.393 . S
C1330 H1322 0.950 . S
C1330 C1328 1.391 . S
C1330 C1331 1.400 1_565 S
C1331 C1330 1.400 1_545 S
C1331 C1332 1.398 . S
C1331 C1337 1.491 . S
C1332 H1323 0.950 . S
C1332 C1331 1.398 . S
C1332 C1333 1.391 . S
C1333 H1321 0.950 . S
C1333 C1329 1.393 . S
C1333 C1332 1.391 . S
C1334 H1324 0.950 . S
C1334 C1335 1.386 . S
C1334 C1336 1.391 . S
C1335 C1334 1.386 . S
C1335 C1339 1.393 1_545 S
C1336 H1325 0.950 . S
C1336 C1334 1.391 . S
C1336 C1337 1.400 . S
C1337 C1331 1.491 . S
C1337 C1336 1.400 . S
C1337 C1338 1.398 1_545 S
C1338 H1326 0.950 . S
C1338 C1337 1.398 1_565 S
C1338 C1339 1.391 . S
C1339 H1327 0.950 . S
C1339 C1335 1.393 1_565 S
C1339 C1338 1.391 . S
H1340 C1348 0.950 . S
H1341 C1353 0.950 . S
H1342 C1350 0.950 . S
H1343 C1352 0.950 1_556 S
H1344 C1354 0.950 . S
H1345 C1356 0.950 . S
H1346 C1358 0.950 1_554 S
H1347 C1359 0.950 . S
C1348 H1340 0.950 . S
C1348 C1349 1.386 . S
C1348 C1350 1.391 1_545 S
C1349 C1348 1.386 . S
C1349 C1353 1.393 . S
C1350 H1342 0.950 . S
C1350 C1348 1.391 1_565 S
C1350 C1351 1.400 1_565 S
C1351 C1350 1.400 1_545 S
C1351 C1352 1.398 . S
C1351 C1357 1.491 1_544 S
C1352 H1343 0.950 1_554 S
C1352 C1351 1.398 . S
C1352 C1353 1.391 . S
C1353 H1341 0.950 . S
C1353 C1349 1.393 . S
C1353 C1352 1.391 . S
C1354 H1344 0.950 . S
C1354 C1355 1.386 . S
C1354 C1356 1.391 1_565 S
C1355 C1354 1.386 . S
C1355 C1359 1.393 . S
C1356 H1345 0.950 . S
C1356 C1354 1.391 1_545 S
C1356 C1357 1.400 1_545 S
C1357 C1351 1.491 1_566 S
C1357 C1356 1.400 1_565 S
C1357 C1358 1.398 . S
C1358 H1346 0.950 1_556 S
C1358 C1357 1.398 . S
C1358 C1359 1.391 . S
C1359 H1347 0.950 . S
C1359 C1355 1.393 . S
C1359 C1358 1.391 . S
H1360 C1368 0.950 . S
H1361 C1373 0.950 . S
H1362 C1370 0.950 . S
H1363 C1372 0.950 . S
H1364 C1374 0.968 . S
H1365 C1376 0.950 . S
H1366 C1378 0.950 . S
H1367 C1379 0.950 . S
C1368 H1360 0.950 . S
C1368 C1369 1.386 . S
C1368 C1370 1.391 . S
C1369 C1368 1.386 . S
C1369 C1373 1.393 . S
C1370 H1362 0.950 . S
C1370 C1368 1.391 . S
C1370 C1371 1.400 . S
C1371 C1370 1.400 . S
C1371 C1372 1.398 . S
C1371 C1377 1.491 . S
C1372 H1363 0.950 . S
C1372 C1371 1.398 . S
C1372 C1373 1.391 . S
C1373 H1361 0.950 . S
C1373 C1369 1.393 . S
C1373 C1372 1.391 . S
C1374 H1364 0.968 . S
C1374 C1375 1.386 . S
C1374 C1376 1.391 . S
C1375 C1374 1.386 . S
C1375 C1379 1.393 . S
C1376 H1365 0.950 . S
C1376 C1374 1.391 . S
C1376 C1377 1.400 . S
C1377 C1371 1.491 . S
C1377 C1376 1.400 . S
C1377 C1378 1.398 . S
C1378 H1366 0.950 . S
C1378 C1377 1.398 . S
C1378 C1379 1.391 . S
C1379 H1367 0.950 . S
C1379 C1375 1.393 . S
C1379 C1378 1.391 . S
H1380 C1388 0.950 . S
H1381 C1393 0.950 . S
H1382 C1390 0.950 . S
H1383 C1392 0.989 . S
H1384 C1394 0.950 . S
H1385 C1396 0.950 . S
H1386 C1398 0.989 . S
H1387 C1399 0.950 . S
C1388 H1380 0.950 . S
C1388 C1389 1.386 . S
C1388 C1390 1.391 . S
C1389 C1388 1.386 . S
C1389 C1393 1.393 . S
C1390 H1382 0.950 . S
C1390 C1388 1.391 . S
C1390 C1391 1.400 . S
C1391 C1390 1.400 . S
C1391 C1392 1.385 1_565 S
C1391 C1397 1.491 1_565 S
C1392 H1383 0.989 . S
C1392 C1391 1.385 1_545 S
C1392 C1393 1.367 1_545 S
C1393 H1381 0.950 . S
C1393 C1389 1.393 . S
C1393 C1392 1.367 1_565 S
C1394 H1384 0.950 . S
C1394 C1395 1.386 . S
C1394 C1396 1.391 . S
C1395 C1394 1.386 . S
C1395 C1399 1.393 . S
C1396 H1385 0.950 . S
C1396 C1394 1.391 . S
C1396 C1397 1.400 . S
C1397 C1391 1.491 1_545 S
C1397 C1396 1.400 . S
C1397 C1398 1.385 1_545 S
C1398 H1386 0.989 . S
C1398 C1397 1.385 1_565 S
C1398 C1399 1.367 1_565 S
C1399 H1387 0.950 . S
C1399 C1395 1.393 . S
C1399 C1398 1.367 1_545 S
H1400 C1408 0.950 . S
H1401 C1413 0.950 . S
H1402 C1410 0.950 . S
H1403 C1412 0.950 . S
H1404 C1414 0.950 . S
H1405 C1416 0.950 . S
H1406 C1418 0.950 . S
H1407 C1419 0.950 . S
C1408 H1400 0.950 . S
C1408 C1409 1.386 . S
C1408 C1410 1.391 . S
C1409 C1408 1.386 . S
C1409 C1413 1.393 . S
C1410 H1402 0.950 . S
C1410 C1408 1.391 . S
C1410 C1411 1.400 . S
C1411 C1410 1.400 . S
C1411 C1412 1.398 . S
C1411 C1417 1.491 . S
C1412 H1403 0.950 . S
C1412 C1411 1.398 . S
C1412 C1413 1.391 . S
C1413 H1401 0.950 . S
C1413 C1409 1.393 . S
C1413 C1412 1.391 . S
C1414 H1404 0.950 . S
C1414 C1415 1.386 . S
C1414 C1416 1.391 . S
C1415 C1414 1.386 . S
C1415 C1419 1.393 . S
C1416 H1405 0.950 . S
C1416 C1414 1.391 . S
C1416 C1417 1.400 . S
C1417 C1411 1.491 . S
C1417 C1416 1.400 . S
C1417 C1418 1.398 . S
C1418 H1406 0.950 . S
C1418 C1417 1.398 . S
C1418 C1419 1.391 . S
C1419 H1407 0.950 . S
C1419 C1415 1.393 . S
C1419 C1418 1.391 . S
H1420 C1428 0.950 . S
H1421 C1433 0.950 . S
H1422 C1430 0.950 . S
H1423 C1432 0.950 . S
H1424 C1434 0.950 . S
H1425 C1436 0.950 . S
H1426 C1438 0.950 . S
H1427 C1439 0.950 . S
C1428 H1420 0.950 . S
C1428 C1429 1.386 . S
C1428 C1430 1.391 . S
C1429 C1428 1.386 . S
C1429 C1433 1.393 . S
C1430 H1422 0.950 . S
C1430 C1428 1.391 . S
C1430 C1431 1.400 . S
C1431 C1430 1.400 . S
C1431 C1432 1.398 . S
C1431 C1437 1.491 1_544 S
C1432 H1423 0.950 . S
C1432 C1431 1.398 . S
C1432 C1433 1.391 . S
C1433 H1421 0.950 . S
C1433 C1429 1.393 . S
C1433 C1432 1.391 . S
C1434 H1424 0.950 . S
C1434 C1435 1.386 . S
C1434 C1436 1.391 . S
C1435 C1434 1.386 . S
C1435 C1439 1.393 . S
C1436 H1425 0.950 . S
C1436 C1434 1.391 . S
C1436 C1437 1.400 . S
C1437 C1431 1.491 1_566 S
C1437 C1436 1.400 . S
C1437 C1438 1.398 . S
C1438 H1426 0.950 . S
C1438 C1437 1.398 . S
C1438 C1439 1.391 . S
C1439 H1427 0.950 . S
C1439 C1435 1.393 . S
C1439 C1438 1.391 . S
H1440 C1448 0.950 . S
H1441 C1453 0.950 . S
H1442 C1450 0.950 . S
H1443 C1452 0.950 . S
H1444 C1454 0.950 . S
H1445 C1456 0.950 . S
H1446 C1458 0.950 . S
H1447 C1459 0.950 . S
C1448 H1440 0.950 . S
C1448 C1449 1.386 . S
C1448 C1450 1.391 . S
C1449 C1448 1.386 . S
C1449 C1453 1.393 . S
C1450 H1442 0.950 . S
C1450 C1448 1.391 . S
C1450 C1451 1.400 . S
C1451 C1450 1.400 . S
C1451 C1452 1.398 . S
C1451 C1457 1.491 . S
C1452 H1443 0.950 . S
C1452 C1451 1.398 . S
C1452 C1453 1.391 . S
C1453 H1441 0.950 . S
C1453 C1449 1.393 . S
C1453 C1452 1.391 . S
C1454 H1444 0.950 . S
C1454 C1455 1.386 . S
C1454 C1456 1.391 . S
C1455 C1454 1.386 . S
C1455 C1459 1.393 . S
C1456 H1445 0.950 . S
C1456 C1454 1.391 . S
C1456 C1457 1.400 . S
C1457 C1451 1.491 . S
C1457 C1456 1.400 . S
C1457 C1458 1.398 . S
C1458 H1446 0.950 . S
C1458 C1457 1.398 . S
C1458 C1459 1.391 . S
C1459 H1447 0.950 . S
C1459 C1455 1.393 . S
C1459 C1458 1.391 . S
H1460 C1468 0.950 . S
H1461 C1473 0.950 . S
H1462 C1470 0.950 . S
H1463 C1472 0.950 . S
H1464 C1474 0.950 . S
H1465 C1476 0.950 . S
H1466 C1478 0.950 . S
H1467 C1479 0.950 . S
C1468 H1460 0.950 . S
C1468 C1469 1.386 . S
C1468 C1470 1.391 . S
C1469 C1468 1.386 . S
C1469 C1473 1.393 . S
C1470 H1462 0.950 . S
C1470 C1468 1.391 . S
C1470 C1471 1.400 . S
C1471 C1470 1.400 . S
C1471 C1472 1.398 . S
C1471 C1477 1.491 1_556 S
C1472 H1463 0.950 . S
C1472 C1471 1.398 . S
C1472 C1473 1.391 . S
C1473 H1461 0.950 . S
C1473 C1469 1.393 . S
C1473 C1472 1.391 . S
C1474 H1464 0.950 . S
C1474 C1475 1.386 . S
C1474 C1476 1.391 . S
C1475 C1474 1.386 . S
C1475 C1479 1.393 . S
C1476 H1465 0.950 . S
C1476 C1474 1.391 . S
C1476 C1477 1.400 . S
C1477 C1471 1.491 1_554 S
C1477 C1476 1.400 . S
C1477 C1478 1.398 . S
C1478 H1466 0.950 . S
C1478 C1477 1.398 . S
C1478 C1479 1.391 . S
C1479 H1467 0.950 . S
C1479 C1475 1.393 . S
C1479 C1478 1.391 . S
H1480 C1488 0.950 . S
H1481 C1493 0.950 . S
H1482 C1490 0.950 . S
H1483 C1492 0.950 . S
H1484 C1494 0.950 . S
H1485 C1496 0.950 . S
H1486 C1498 0.950 . S
H1487 C1499 0.950 . S
C1488 H1480 0.950 . S
C1488 C1489 1.386 . S
C1488 C1490 1.391 . S
C1489 C1488 1.386 . S
C1489 C1493 1.393 . S
C1490 H1482 0.950 . S
C1490 C1488 1.391 . S
C1490 C1491 1.400 . S
C1491 C1490 1.400 . S
C1491 C1492 1.398 . S
C1491 C1497 1.491 . S
C1492 H1483 0.950 . S
C1492 C1491 1.398 . S
C1492 C1493 1.391 . S
C1493 H1481 0.950 . S
C1493 C1489 1.393 . S
C1493 C1492 1.391 . S
C1494 H1484 0.950 . S
C1494 C1495 1.386 . S
C1494 C1496 1.391 . S
C1495 C1494 1.386 . S
C1495 C1499 1.393 . S
C1496 H1485 0.950 . S
C1496 C1494 1.391 . S
C1496 C1497 1.400 . S
C1497 C1491 1.491 . S
C1497 C1496 1.400 . S
C1497 C1498 1.398 . S
C1498 H1486 0.950 . S
C1498 C1497 1.398 . S
C1498 C1499 1.391 . S
C1499 H1487 0.950 . S
C1499 C1495 1.393 . S
C1499 C1498 1.391 . S
H1500 C1508 0.950 . S
H1501 C1513 0.950 . S
H1502 C1510 0.950 . S
H1503 C1512 0.950 . S
H1504 C1514 0.950 . S
H1505 C1516 0.950 . S
H1506 C1518 0.950 . S
H1507 C1519 0.950 . S
C1508 H1500 0.950 . S
C1508 C1509 1.386 . S
C1508 C1510 1.391 . S
C1509 C1508 1.386 . S
C1509 C1513 1.393 . S
C1510 H1502 0.950 . S
C1510 C1508 1.391 . S
C1510 C1511 1.400 . S
C1511 C1510 1.400 . S
C1511 C1512 1.398 . S
C1511 C1517 1.491 . S
C1512 H1503 0.950 . S
C1512 C1511 1.398 . S
C1512 C1513 1.391 . S
C1513 H1501 0.950 . S
C1513 C1509 1.393 . S
C1513 C1512 1.391 . S
C1514 H1504 0.950 . S
C1514 C1515 1.386 . S
C1514 C1516 1.391 . S
C1515 C1514 1.386 . S
C1515 C1519 1.393 . S
C1516 H1505 0.950 . S
C1516 C1514 1.391 . S
C1516 C1517 1.400 . S
C1517 C1511 1.491 . S
C1517 C1516 1.400 . S
C1517 C1518 1.398 . S
C1518 H1506 0.950 . S
C1518 C1517 1.398 . S
C1518 C1519 1.391 . S
C1519 H1507 0.950 . S
C1519 C1515 1.393 . S
C1519 C1518 1.391 . S
H1520 C1528 0.950 . S
H1521 C1533 0.950 . S
H1522 C1530 0.950 . S
H1523 C1532 0.950 . S
H1524 C1534 0.950 . S
H1525 C1536 0.950 . S
H1526 C1538 0.950 . S
H1527 C1539 0.950 . S
C1528 H1520 0.950 . S
C1528 C1529 1.386 . S
C1528 C1530 1.391 . S
C1529 C1528 1.386 . S
C1529 C1533 1.393 . S
C1530 H1522 0.950 . S
C1530 C1528 1.391 . S
C1530 C1531 1.400 . S
C1531 C1530 1.400 . S
C1531 C1532 1.398 . S
C1531 C1537 1.491 . S
C1532 H1523 0.950 . S
C1532 C1531 1.398 . S
C1532 C1533 1.391 . S
C1533 H1521 0.950 . S
C1533 C1529 1.393 . S
C1533 C1532 1.391 . S
C1534 H1524 0.950 . S
C1534 C1535 1.386 . S
C1534 C1536 1.391 . S
C1535 C1534 1.386 . S
C1535 C1539 1.393 . S
C1536 H1525 0.950 . S
C1536 C1534 1.391 . S
C1536 C1537 1.400 . S
C1537 C1531 1.491 . S
C1537 C1536 1.400 . S
C1537 C1538 1.398 . S
C1538 H1526 0.950 . S
C1538 C1537 1.398 . S
C1538 C1539 1.391 . S
C1539 H1527 0.950 . S
C1539 C1535 1.393 . S
C1539 C1538 1.391 . S
H1540 C1548 0.950 . S
H1541 C1553 0.950 . S
H1542 C1550 0.950 . S
H1543 C1552 0.868 1_554 S
H1544 C1554 0.950 . S
H1545 C1556 0.950 . S
H1546 C1558 0.868 1_556 S
H1547 C1559 0.950 . S
C1548 H1540 0.950 . S
C1548 C1549 1.386 . S
C1548 C1550 1.391 . S
C1549 C1548 1.386 . S
C1549 C1553 1.393 . S
C1550 H1542 0.950 . S
C1550 C1548 1.391 . S
C1550 C1551 1.400 . S
C1551 C1550 1.400 . S
C1551 C1552 1.398 . S
C1551 C1557 1.491 1_556 S
C1552 H1543 0.868 1_556 S
C1552 C1551 1.398 . S
C1552 C1553 1.391 . S
C1553 H1541 0.950 . S
C1553 C1549 1.393 . S
C1553 C1552 1.391 . S
C1554 H1544 0.950 . S
C1554 C1555 1.386 . S
C1554 C1556 1.391 . S
C1555 C1554 1.386 . S
C1555 C1559 1.393 . S
C1556 H1545 0.950 . S
C1556 C1554 1.391 . S
C1556 C1557 1.400 . S
C1557 C1551 1.491 1_554 S
C1557 C1556 1.400 . S
C1557 C1558 1.398 . S
C1558 H1546 0.868 1_554 S
C1558 C1557 1.398 . S
C1558 C1559 1.391 . S
C1559 H1547 0.950 . S
C1559 C1555 1.393 . S
C1559 C1558 1.391 . S
H1560 C1568 0.950 . S
H1561 C1573 0.950 . S
H1562 C1570 0.950 . S
H1563 C1572 0.950 . S
H1564 C1574 0.950 . S
H1565 C1576 0.950 . S
H1566 C1578 0.950 . S
H1567 C1579 0.950 . S
C1568 H1560 0.950 . S
C1568 C1569 1.386 . S
C1568 C1570 1.391 . S
C1569 C1568 1.386 . S
C1569 C1573 1.393 . S
C1570 H1562 0.950 . S
C1570 C1568 1.391 . S
C1570 C1571 1.400 . S
C1571 C1570 1.400 . S
C1571 C1572 1.398 . S
C1571 C1577 1.491 . S
C1572 H1563 0.950 . S
C1572 C1571 1.398 . S
C1572 C1573 1.391 . S
C1573 H1561 0.950 . S
C1573 C1569 1.393 . S
C1573 C1572 1.391 . S
C1574 H1564 0.950 . S
C1574 C1575 1.386 . S
C1574 C1576 1.391 . S
C1575 C1574 1.386 . S
C1575 C1579 1.393 . S
C1576 H1565 0.950 . S
C1576 C1574 1.391 . S
C1576 C1577 1.400 . S
C1577 C1571 1.491 . S
C1577 C1576 1.400 . S
C1577 C1578 1.398 . S
C1578 H1566 0.950 . S
C1578 C1577 1.398 . S
C1578 C1579 1.391 . S
C1579 H1567 0.950 . S
C1579 C1575 1.393 . S
C1579 C1578 1.391 . S
H1580 C1588 0.950 . S
H1581 C1593 0.950 . S
H1582 C1590 0.950 . S
H1583 C1592 0.950 . S
H1584 C1594 0.950 . S
H1585 C1596 0.950 . S
H1586 C1598 0.950 . S
H1587 C1599 0.950 . S
C1588 H1580 0.950 . S
C1588 C1589 1.386 . S
C1588 C1590 1.391 . S
C1589 C1588 1.386 . S
C1589 C1593 1.393 . S
C1590 H1582 0.950 . S
C1590 C1588 1.391 . S
C1590 C1591 1.400 . S
C1591 C1590 1.400 . S
C1591 C1592 1.398 . S
C1591 C1597 1.491 . S
C1592 H1583 0.950 . S
C1592 C1591 1.398 . S
C1592 C1593 1.391 . S
C1593 H1581 0.950 . S
C1593 C1589 1.393 . S
C1593 C1592 1.391 . S
C1594 H1584 0.950 . S
C1594 C1595 1.386 . S
C1594 C1596 1.391 . S
C1595 C1594 1.386 . S
C1595 C1599 1.393 . S
C1596 H1585 0.950 . S
C1596 C1594 1.391 . S
C1596 C1597 1.400 . S
C1597 C1591 1.491 . S
C1597 C1596 1.400 . S
C1597 C1598 1.398 . S
C1598 H1586 0.950 . S
C1598 C1597 1.398 . S
C1598 C1599 1.391 . S
C1599 H1587 0.950 . S
C1599 C1595 1.393 . S
C1599 C1598 1.391 . S
H1600 C1608 0.950 . S
H1601 C1613 0.950 . S
H1602 C1610 0.950 . S
H1603 C1612 0.950 . S
H1604 C1614 0.950 . S
H1605 C1616 0.950 . S
H1606 C1618 0.950 . S
H1607 C1619 0.950 . S
C1608 H1600 0.950 . S
C1608 C1609 1.386 . S
C1608 C1610 1.391 . S
C1609 C1608 1.386 . S
C1609 C1613 1.393 . S
C1610 H1602 0.950 . S
C1610 C1608 1.391 . S
C1610 C1611 1.400 . S
C1611 C1610 1.400 . S
C1611 C1612 1.398 . S
C1611 C1617 1.491 . S
C1612 H1603 0.950 . S
C1612 C1611 1.398 . S
C1612 C1613 1.391 . S
C1613 H1601 0.950 . S
C1613 C1609 1.393 . S
C1613 C1612 1.391 . S
C1614 H1604 0.950 . S
C1614 C1615 1.386 . S
C1614 C1616 1.391 . S
C1615 C1614 1.386 . S
C1615 C1619 1.393 . S
C1616 H1605 0.950 . S
C1616 C1614 1.391 . S
C1616 C1617 1.400 . S
C1617 C1611 1.491 . S
C1617 C1616 1.400 . S
C1617 C1618 1.398 . S
C1618 H1606 0.950 . S
C1618 C1617 1.398 . S
C1618 C1619 1.391 . S
C1619 H1607 0.950 . S
C1619 C1615 1.393 . S
C1619 C1618 1.391 . S
H1620 C1628 0.950 . S
H1621 C1633 0.950 . S
H1622 C1630 0.950 . S
H1623 C1632 0.950 . S
H1624 C1634 0.912 1_545 S
H1625 C1636 0.950 . S
H1626 C1638 0.950 . S
H1627 C1639 0.950 . S
C1628 H1620 0.950 . S
C1628 C1629 1.386 . S
C1628 C1630 1.391 . S
C1629 C1628 1.386 . S
C1629 C1633 1.393 . S
C1630 H1622 0.950 . S
C1630 C1628 1.391 . S
C1630 C1631 1.400 . S
C1631 C1630 1.400 . S
C1631 C1632 1.398 . S
C1631 C1637 1.491 . S
C1632 H1623 0.950 . S
C1632 C1631 1.398 . S
C1632 C1633 1.391 . S
C1633 H1621 0.950 . S
C1633 C1629 1.393 . S
C1633 C1632 1.391 . S
C1634 H1624 0.912 1_565 S
C1634 C1635 1.386 . S
C1634 C1636 1.391 . S
C1635 C1634 1.386 . S
C1635 C1639 1.393 . S
C1636 H1625 0.950 . S
C1636 C1634 1.391 . S
C1636 C1637 1.400 . S
C1637 C1631 1.491 . S
C1637 C1636 1.400 . S
C1637 C1638 1.398 . S
C1638 H1626 0.950 . S
C1638 C1637 1.398 . S
C1638 C1639 1.391 . S
C1639 H1627 0.950 . S
C1639 C1635 1.393 . S
C1639 C1638 1.391 . S
H1640 C1648 0.950 . S
H1641 C1653 0.950 . S
H1642 C1650 0.950 . S
H1643 C1652 0.950 . S
H1644 C1654 0.950 . S
H1645 C1656 0.950 . S
H1646 C1658 0.950 . S
H1647 C1659 0.950 . S
C1648 H1640 0.950 . S
C1648 C1649 1.386 . S
C1648 C1650 1.391 . S
C1649 C1648 1.386 . S
C1649 C1653 1.393 . S
C1650 H1642 0.950 . S
C1650 C1648 1.391 . S
C1650 C1651 1.400 . S
C1651 C1650 1.400 . S
C1651 C1652 1.398 . S
C1651 C1657 1.491 . S
C1652 H1643 0.950 . S
C1652 C1651 1.398 . S
C1652 C1653 1.391 . S
C1653 H1641 0.950 . S
C1653 C1649 1.393 . S
C1653 C1652 1.391 . S
C1654 H1644 0.950 . S
C1654 C1655 1.386 . S
C1654 C1656 1.391 . S
C1655 C1654 1.386 . S
C1655 C1659 1.393 . S
C1656 H1645 0.950 . S
C1656 C1654 1.391 . S
C1656 C1657 1.400 . S
C1657 C1651 1.491 . S
C1657 C1656 1.400 . S
C1657 C1658 1.398 . S
C1658 H1646 0.950 . S
C1658 C1657 1.398 . S
C1658 C1659 1.391 . S
C1659 H1647 0.950 . S
C1659 C1655 1.393 . S
C1659 C1658 1.391 . S
H1660 C1668 0.950 . S
H1661 C1673 0.950 . S
H1662 C1670 0.950 . S
H1663 C1672 0.950 . S
H1664 C1674 0.950 . S
H1665 C1676 0.950 . S
H1666 C1678 0.950 . S
H1667 C1679 0.950 . S
C1668 H1660 0.950 . S
C1668 C1669 1.386 . S
C1668 C1670 1.391 . S
C1669 C1668 1.386 . S
C1669 C1673 1.393 . S
C1670 H1662 0.950 . S
C1670 C1668 1.391 . S
C1670 C1671 1.400 . S
C1671 C1670 1.400 . S
C1671 C1672 1.398 . S
C1671 C1677 1.491 . S
C1672 H1663 0.950 . S
C1672 C1671 1.398 . S
C1672 C1673 1.391 . S
C1673 H1661 0.950 . S
C1673 C1669 1.393 . S
C1673 C1672 1.391 . S
C1674 H1664 0.950 . S
C1674 C1675 1.386 . S
C1674 C1676 1.391 . S
C1675 C1674 1.386 . S
C1675 C1679 1.393 . S
C1676 H1665 0.950 . S
C1676 C1674 1.391 . S
C1676 C1677 1.400 . S
C1677 C1671 1.491 . S
C1677 C1676 1.400 . S
C1677 C1678 1.398 . S
C1678 H1666 0.950 . S
C1678 C1677 1.398 . S
C1678 C1679 1.391 . S
C1679 H1667 0.950 . S
C1679 C1675 1.393 . S
C1679 C1678 1.391 . S
H1680 C1688 0.950 . S
H1681 C1693 0.950 . S
H1682 C1690 0.950 . S
H1683 C1692 0.950 . S
H1684 C1694 0.950 . S
H1685 C1696 0.950 . S
H1686 C1698 0.950 . S
H1687 C1699 0.950 . S
C1688 H1680 0.950 . S
C1688 C1689 1.386 . S
C1688 C1690 1.391 . S
C1689 C1688 1.386 . S
C1689 C1693 1.393 . S
C1690 H1682 0.950 . S
C1690 C1688 1.391 . S
C1690 C1691 1.400 . S
C1691 C1690 1.400 . S
C1691 C1692 1.398 . S
C1691 C1697 1.491 . S
C1692 H1683 0.950 . S
C1692 C1691 1.398 . S
C1692 C1693 1.391 . S
C1693 H1681 0.950 . S
C1693 C1689 1.393 . S
C1693 C1692 1.391 . S
C1694 H1684 0.950 . S
C1694 C1695 1.386 . S
C1694 C1696 1.391 . S
C1695 C1694 1.386 . S
C1695 C1699 1.393 . S
C1696 H1685 0.950 . S
C1696 C1694 1.391 . S
C1696 C1697 1.400 . S
C1697 C1691 1.491 . S
C1697 C1696 1.400 . S
C1697 C1698 1.398 . S
C1698 H1686 0.950 . S
C1698 C1697 1.398 . S
C1698 C1699 1.391 . S
C1699 H1687 0.950 . S
C1699 C1695 1.393 . S
C1699 C1698 1.391 . S
H1700 C1708 0.950 . S
H1701 C1713 0.950 . S
H1702 C1710 0.950 . S
H1703 C1712 0.950 . S
H1704 C1714 0.950 . S
H1705 C1716 0.950 . S
H1706 C1718 0.950 . S
H1707 C1719 0.950 . S
C1708 H1700 0.950 . S
C1708 C1709 1.386 . S
C1708 C1710 1.391 . S
C1709 C1708 1.386 . S
C1709 C1713 1.393 . S
C1710 H1702 0.950 . S
C1710 C1708 1.391 . S
C1710 C1711 1.400 . S
C1711 C1710 1.400 . S
C1711 C1712 1.398 . S
C1711 C1717 1.491 . S
C1712 H1703 0.950 . S
C1712 C1711 1.398 . S
C1712 C1713 1.391 . S
C1713 H1701 0.950 . S
C1713 C1709 1.393 . S
C1713 C1712 1.391 . S
C1714 H1704 0.950 . S
C1714 C1715 1.386 . S
C1714 C1716 1.391 . S
C1715 C1714 1.386 . S
C1715 C1719 1.393 . S
C1716 H1705 0.950 . S
C1716 C1714 1.391 . S
C1716 C1717 1.400 . S
C1717 C1711 1.491 . S
C1717 C1716 1.400 . S
C1717 C1718 1.398 . S
C1718 H1706 0.950 . S
C1718 C1717 1.398 . S
C1718 C1719 1.391 . S
C1719 H1707 0.950 . S
C1719 C1715 1.393 . S
C1719 C1718 1.391 . S
H1720 C1728 0.950 . S
H1721 C1733 0.950 . S
H1722 C1730 0.950 . S
H1723 C1732 0.950 . S
H1724 C1734 0.950 . S
H1725 C1736 0.950 . S
H1726 C1738 0.950 . S
H1727 C1739 0.950 . S
C1728 H1720 0.950 . S
C1728 C1729 1.386 . S
C1728 C1730 1.391 . S
C1729 C1728 1.386 . S
C1729 C1733 1.393 . S
C1730 H1722 0.950 . S
C1730 C1728 1.391 . S
C1730 C1731 1.400 . S
C1731 C1730 1.400 . S
C1731 C1732 1.398 . S
C1731 C1737 1.491 . S
C1732 H1723 0.950 . S
C1732 C1731 1.398 . S
C1732 C1733 1.391 . S
C1733 H1721 0.950 . S
C1733 C1729 1.393 . S
C1733 C1732 1.391 . S
C1734 H1724 0.950 . S
C1734 C1735 1.386 . S
C1734 C1736 1.391 . S
C1735 C1734 1.386 . S
C1735 C1739 1.393 . S
C1736 H1725 0.950 . S
C1736 C1734 1.391 . S
C1736 C1737 1.400 . S
C1737 C1731 1.491 . S
C1737 C1736 1.400 . S
C1737 C1738 1.398 . S
C1738 H1726 0.950 . S
C1738 C1737 1.398 . S
C1738 C1739 1.391 . S
C1739 H1727 0.950 . S
C1739 C1735 1.393 . S
C1739 C1738 1.391 . S
H1740 C1748 0.950 . S
H1741 C1753 0.950 . S
H1742 C1750 0.950 . S
H1743 C1752 0.950 . S
H1744 C1754 0.950 . S
H1745 C1756 0.950 . S
H1746 C1758 0.950 . S
H1747 C1759 0.950 . S
C1748 H1740 0.950 . S
C1748 C1749 1.386 . S
C1748 C1750 1.391 . S
C1749 C1748 1.386 . S
C1749 C1753 1.393 . S
C1750 H1742 0.950 . S
C1750 C1748 1.391 . S
C1750 C1751 1.400 . S
C1751 C1750 1.400 . S
C1751 C1752 1.398 . S
C1751 C1757 1.491 . S
C1752 H1743 0.950 . S
C1752 C1751 1.398 . S
C1752 C1753 1.391 . S
C1753 H1741 0.950 . S
C1753 C1749 1.393 . S
C1753 C1752 1.391 . S
C1754 H1744 0.950 . S
C1754 C1755 1.386 . S
C1754 C1756 1.391 . S
C1755 C1754 1.386 . S
C1755 C1759 1.393 . S
C1756 H1745 0.950 . S
C1756 C1754 1.391 . S
C1756 C1757 1.400 . S
C1757 C1751 1.491 . S
C1757 C1756 1.400 . S
C1757 C1758 1.398 . S
C1758 H1746 0.950 . S
C1758 C1757 1.398 . S
C1758 C1759 1.391 . S
C1759 H1747 0.950 . S
C1759 C1755 1.393 . S
C1759 C1758 1.391 . S
H1760 C1768 0.950 . S
H1761 C1773 0.950 . S
H1762 C1770 0.950 . S
H1763 C1772 0.950 . S
H1764 C1774 0.950 . S
H1765 C1776 0.950 . S
H1766 C1778 0.950 . S
H1767 C1779 0.950 . S
C1768 H1760 0.950 . S
C1768 C1769 1.386 . S
C1768 C1770 1.391 . S
C1769 C1768 1.386 . S
C1769 C1773 1.393 . S
C1770 H1762 0.950 . S
C1770 C1768 1.391 . S
C1770 C1771 1.400 . S
C1771 C1770 1.400 . S
C1771 C1772 1.398 . S
C1771 C1777 1.491 . S
C1772 H1763 0.950 . S
C1772 C1771 1.398 . S
C1772 C1773 1.391 . S
C1773 H1761 0.950 . S
C1773 C1769 1.393 . S
C1773 C1772 1.391 . S
C1774 H1764 0.950 . S
C1774 C1775 1.386 . S
C1774 C1776 1.391 . S
C1775 C1774 1.386 . S
C1775 C1779 1.393 . S
C1776 H1765 0.950 . S
C1776 C1774 1.391 . S
C1776 C1777 1.400 . S
C1777 C1771 1.491 . S
C1777 C1776 1.400 . S
C1777 C1778 1.398 . S
C1778 H1766 0.950 . S
C1778 C1777 1.398 . S
C1778 C1779 1.391 . S
C1779 H1767 0.950 . S
C1779 C1775 1.393 . S
C1779 C1778 1.391 . S
H1780 C1788 0.950 . S
H1781 C1793 0.950 . S
H1782 C1790 0.950 . S
H1783 C1792 0.950 . S
H1784 C1794 0.950 . S
H1785 C1796 0.950 . S
H1786 C1798 0.950 . S
H1787 C1799 0.950 . S
C1788 H1780 0.950 . S
C1788 C1789 1.386 . S
C1788 C1790 1.391 . S
C1789 C1788 1.386 . S
C1789 C1793 1.393 . S
C1790 H1782 0.950 . S
C1790 C1788 1.391 . S
C1790 C1791 1.400 . S
C1791 C1790 1.400 . S
C1791 C1792 1.398 . S
C1791 C1797 1.491 . S
C1792 H1783 0.950 . S
C1792 C1791 1.398 . S
C1792 C1793 1.391 . S
C1793 H1781 0.950 . S
C1793 C1789 1.393 . S
C1793 C1792 1.391 . S
C1794 H1784 0.950 . S
C1794 C1795 1.386 . S
C1794 C1796 1.391 . S
C1795 C1794 1.386 . S
C1795 C1799 1.393 . S
C1796 H1785 0.950 . S
C1796 C1794 1.391 . S
C1796 C1797 1.400 . S
C1797 C1791 1.491 . S
C1797 C1796 1.400 . S
C1797 C1798 1.398 . S
C1798 H1786 0.950 . S
C1798 C1797 1.398 . S
C1798 C1799 1.391 . S
C1799 H1787 0.950 . S
C1799 C1795 1.393 . S
C1799 C1798 1.391 . S
H1800 C1808 0.950 . S
H1801 C1813 0.950 . S
H1802 C1810 0.950 . S
H1803 C1812 0.950 . S
H1804 C1814 0.950 . S
H1805 C1816 0.950 . S
H1806 C1818 0.950 . S
H1807 C1819 0.950 . S
C1808 H1800 0.950 . S
C1808 C1809 1.386 . S
C1808 C1810 1.391 . S
C1809 C1808 1.386 . S
C1809 C1813 1.393 . S
C1810 H1802 0.950 . S
C1810 C1808 1.391 . S
C1810 C1811 1.400 . S
C1811 C1810 1.400 . S
C1811 C1812 1.398 . S
C1811 C1817 1.491 . S
C1812 H1803 0.950 . S
C1812 C1811 1.398 . S
C1812 C1813 1.391 . S
C1813 H1801 0.950 . S
C1813 C1809 1.393 . S
C1813 C1812 1.391 . S
C1814 H1804 0.950 . S
C1814 C1815 1.386 . S
C1814 C1816 1.391 . S
C1815 C1814 1.386 . S
C1815 C1819 1.393 . S
C1816 H1805 0.950 . S
C1816 C1814 1.391 . S
C1816 C1817 1.400 . S
C1817 C1811 1.491 . S
C1817 C1816 1.400 . S
C1817 C1818 1.398 . S
C1818 H1806 0.950 . S
C1818 C1817 1.398 . S
C1818 C1819 1.391 . S
C1819 H1807 0.950 . S
C1819 C1815 1.393 . S
C1819 C1818 1.391 . S
H1820 C1828 0.950 . S
H1821 C1833 0.950 . S
H1822 C1830 0.950 . S
H1823 C1832 0.950 . S
H1824 C1834 0.950 . S
H1825 C1836 0.950 . S
H1826 C1838 0.950 . S
H1827 C1839 0.950 . S
C1828 H1820 0.950 . S
C1828 C1829 1.386 . S
C1828 C1830 1.391 . S
C1829 C1828 1.386 . S
C1829 C1833 1.393 . S
C1830 H1822 0.950 . S
C1830 C1828 1.391 . S
C1830 C1831 1.400 . S
C1831 C1830 1.400 . S
C1831 C1832 1.398 . S
C1831 C1837 1.491 . S
C1832 H1823 0.950 . S
C1832 C1831 1.398 . S
C1832 C1833 1.391 . S
C1833 H1821 0.950 . S
C1833 C1829 1.393 . S
C1833 C1832 1.391 . S
C1834 H1824 0.950 . S
C1834 C1835 1.386 . S
C1834 C1836 1.391 . S
C1835 C1834 1.386 . S
C1835 C1839 1.393 . S
C1836 H1825 0.950 . S
C1836 C1834 1.391 . S
C1836 C1837 1.400 . S
C1837 C1831 1.491 . S
C1837 C1836 1.400 . S
C1837 C1838 1.398 . S
C1838 H1826 0.950 . S
C1838 C1837 1.398 . S
C1838 C1839 1.391 . S
C1839 H1827 0.950 . S
C1839 C1835 1.393 . S
C1839 C1838 1.391 . S
H1840 C1848 0.950 . S
H1841 C1853 0.950 . S
H1842 C1850 0.950 . S
H1843 C1852 0.950 . S
H1844 C1854 0.950 . S
H1845 C1856 0.950 . S
H1846 C1858 0.950 . S
H1847 C1859 0.950 . S
C1848 H1840 0.950 . S
C1848 C1849 1.386 . S
C1848 C1850 1.391 . S
C1849 C1848 1.386 . S
C1849 C1853 1.393 . S
C1850 H1842 0.950 . S
C1850 C1848 1.391 . S
C1850 C1851 1.400 . S
C1851 C1850 1.400 . S
C1851 C1852 1.398 . S
C1851 C1857 1.491 . S
C1852 H1843 0.950 . S
C1852 C1851 1.398 . S
C1852 C1853 1.391 . S
C1853 H1841 0.950 . S
C1853 C1849 1.393 . S
C1853 C1852 1.391 . S
C1854 H1844 0.950 . S
C1854 C1855 1.386 . S
C1854 C1856 1.391 . S
C1855 C1854 1.386 . S
C1855 C1859 1.393 . S
C1856 H1845 0.950 . S
C1856 C1854 1.391 . S
C1856 C1857 1.400 . S
C1857 C1851 1.491 . S
C1857 C1856 1.400 . S
C1857 C1858 1.398 . S
C1858 H1846 0.950 . S
C1858 C1857 1.398 . S
C1858 C1859 1.391 . S
C1859 H1847 0.950 . S
C1859 C1855 1.393 . S
C1859 C1858 1.391 . S
H1860 C1868 0.950 . S
H1861 C1873 0.950 . S
H1862 C1870 0.950 . S
H1863 C1872 0.950 . S
H1864 C1874 0.950 . S
H1865 C1876 0.950 . S
H1866 C1878 0.950 . S
H1867 C1879 0.950 . S
C1868 H1860 0.950 . S
C1868 C1869 1.386 . S
C1868 C1870 1.391 . S
C1869 C1868 1.386 . S
C1869 C1873 1.393 . S
C1870 H1862 0.950 . S
C1870 C1868 1.391 . S
C1870 C1871 1.400 . S
C1871 C1870 1.400 . S
C1871 C1872 1.398 . S
C1871 C1877 1.491 . S
C1872 H1863 0.950 . S
C1872 C1871 1.398 . S
C1872 C1873 1.391 . S
C1873 H1861 0.950 . S
C1873 C1869 1.393 . S
C1873 C1872 1.391 . S
C1874 H1864 0.950 . S
C1874 C1875 1.386 . S
C1874 C1876 1.391 . S
C1875 C1874 1.386 . S
C1875 C1879 1.393 . S
C1876 H1865 0.950 . S
C1876 C1874 1.391 . S
C1876 C1877 1.400 . S
C1877 C1871 1.491 . S
C1877 C1876 1.400 . S
C1877 C1878 1.398 . S
C1878 H1866 0.950 . S
C1878 C1877 1.398 . S
C1878 C1879 1.391 . S
C1879 H1867 0.950 . S
C1879 C1875 1.393 . S
C1879 C1878 1.391 . S
H1880 C1888 0.950 . S
H1881 C1893 0.950 . S
H1882 C1890 0.950 . S
H1883 C1892 0.950 . S
H1884 C1894 0.950 . S
H1885 C1896 0.950 . S
H1886 C1898 0.950 . S
H1887 C1899 0.950 . S
C1888 H1880 0.950 . S
C1888 C1889 1.386 . S
C1888 C1890 1.391 . S
C1889 C1888 1.386 . S
C1889 C1893 1.393 . S
C1890 H1882 0.950 . S
C1890 C1888 1.391 . S
C1890 C1891 1.400 . S
C1891 C1890 1.400 . S
C1891 C1892 1.398 . S
C1891 C1897 1.491 . S
C1892 H1883 0.950 . S
C1892 C1891 1.398 . S
C1892 C1893 1.391 . S
C1893 H1881 0.950 . S
C1893 C1889 1.393 . S
C1893 C1892 1.391 . S
C1894 H1884 0.950 . S
C1894 C1895 1.386 . S
C1894 C1896 1.391 . S
C1895 C1894 1.386 . S
C1895 C1899 1.393 . S
C1896 H1885 0.950 . S
C1896 C1894 1.391 . S
C1896 C1897 1.400 . S
C1897 C1891 1.491 . S
C1897 C1896 1.400 . S
C1897 C1898 1.398 . S
C1898 H1886 0.950 . S
C1898 C1897 1.398 . S
C1898 C1899 1.391 . S
C1899 H1887 0.950 . S
C1899 C1895 1.393 . S
C1899 C1898 1.391 . S
H1900 C1908 0.950 . S
H1901 C1913 0.950 . S
H1902 C1910 0.950 . S
H1903 C1912 0.950 . S
H1904 C1914 0.950 . S
H1905 C1916 0.950 . S
H1906 C1918 0.950 . S
H1907 C1919 0.950 . S
C1908 H1900 0.950 . S
C1908 C1909 1.386 . S
C1908 C1910 1.391 . S
C1909 C1908 1.386 . S
C1909 C1913 1.393 . S
C1910 H1902 0.950 . S
C1910 C1908 1.391 . S
C1910 C1911 1.400 . S
C1911 C1910 1.400 . S
C1911 C1912 1.398 . S
C1911 C1917 1.491 . S
C1912 H1903 0.950 . S
C1912 C1911 1.398 . S
C1912 C1913 1.391 . S
C1913 H1901 0.950 . S
C1913 C1909 1.393 . S
C1913 C1912 1.391 . S
C1914 H1904 0.950 . S
C1914 C1915 1.386 . S
C1914 C1916 1.391 . S
C1915 C1914 1.386 . S
C1915 C1919 1.393 . S
C1916 H1905 0.950 . S
C1916 C1914 1.391 . S
C1916 C1917 1.400 . S
C1917 C1911 1.491 . S
C1917 C1916 1.400 . S
C1917 C1918 1.398 . S
C1918 H1906 0.950 . S
C1918 C1917 1.398 . S
C1918 C1919 1.391 . S
C1919 H1907 0.950 . S
C1919 C1915 1.393 . S
C1919 C1918 1.391 . S
H1920 C1928 0.950 . S
H1921 C1933 0.950 . S
H1922 C1930 0.950 . S
H1923 C1932 0.950 . S
H1924 C1934 0.950 . S
H1925 C1936 0.950 . S
H1926 C1938 0.950 . S
H1927 C1939 0.950 . S
C1928 H1920 0.950 . S
C1928 C1929 1.386 . S
C1928 C1930 1.391 . S
C1929 C1928 1.386 . S
C1929 C1933 1.393 1_565 S
C1930 H1922 0.950 . S
C1930 C1928 1.391 . S
C1930 C1931 1.400 . S
C1931 C1930 1.400 . S
C1931 C1932 1.398 1_565 S
C1931 C1937 1.491 1_455 S
C1932 H1923 0.950 . S
C1932 C1931 1.398 1_545 S
C1932 C1933 1.391 . S
C1933 H1921 0.950 . S
C1933 C1929 1.393 1_545 S
C1933 C1932 1.391 . S
C1934 H1924 0.950 . S
C1934 C1935 1.386 1_545 S
C1934 C1936 1.391 . S
C1935 C1934 1.386 1_565 S
C1935 C1939 1.393 . S
C1936 H1925 0.950 . S
C1936 C1934 1.391 . S
C1936 C1937 1.400 1_545 S
C1937 C1931 1.491 1_655 S
C1937 C1936 1.400 1_565 S
C1937 C1938 1.398 . S
C1938 H1926 0.950 . S
C1938 C1937 1.398 . S
C1938 C1939 1.391 . S
C1939 H1927 0.950 . S
C1939 C1935 1.393 . S
C1939 C1938 1.391 . S
H1940 C1948 0.950 . S
H1941 C1953 0.950 . S
H1942 C1950 0.950 . S
H1943 C1952 0.950 . S
H1944 C1954 0.950 . S
H1945 C1956 0.950 . S
H1946 C1958 0.950 . S
H1947 C1959 0.950 . S
C1948 H1940 0.950 . S
C1948 C1949 1.386 . S
C1948 C1950 1.391 . S
C1949 C1948 1.386 . S
C1949 C1953 1.393 . S
C1950 H1942 0.950 . S
C1950 C1948 1.391 . S
C1950 C1951 1.400 . S
C1951 C1950 1.400 . S
C1951 C1952 1.398 . S
C1951 C1957 1.491 . S
C1952 H1943 0.950 . S
C1952 C1951 1.398 . S
C1952 C1953 1.391 . S
C1953 H1941 0.950 . S
C1953 C1949 1.393 . S
C1953 C1952 1.391 . S
C1954 H1944 0.950 . S
C1954 C1955 1.386 . S
C1954 C1956 1.391 . S
C1955 C1954 1.386 . S
C1955 C1959 1.393 . S
C1956 H1945 0.950 . S
C1956 C1954 1.391 . S
C1956 C1957 1.400 . S
C1957 C1951 1.491 . S
C1957 C1956 1.400 . S
C1957 C1958 1.398 . S
C1958 H1946 0.950 . S
C1958 C1957 1.398 . S
C1958 C1959 1.391 . S
C1959 H1947 0.950 . S
C1959 C1955 1.393 . S
C1959 C1958 1.391 . S
H1960 C1968 0.950 . S
H1961 C1973 0.950 1_565 S
H1962 C1970 0.950 . S
H1963 C1972 0.950 1_565 S
H1964 C1974 0.950 1_565 S
H1965 C1976 0.950 1_565 S
H1966 C1978 0.950 . S
H1967 C1979 0.950 . S
C1968 H1960 0.950 . S
C1968 C1969 1.386 . S
C1968 C1970 1.391 . S
C1969 C1968 1.386 . S
C1969 C1973 1.393 . S
C1970 H1962 0.950 . S
C1970 C1968 1.391 . S
C1970 C1971 1.400 . S
C1971 C1970 1.400 . S
C1971 C1972 1.398 . S
C1971 C1977 1.491 . S
C1972 H1963 0.950 1_545 S
C1972 C1971 1.398 . S
C1972 C1973 1.391 . S
C1973 H1961 0.950 1_545 S
C1973 C1969 1.393 . S
C1973 C1972 1.391 . S
C1974 H1964 0.950 1_545 S
C1974 C1975 1.386 . S
C1974 C1976 1.391 . S
C1975 C1974 1.386 . S
C1975 C1979 1.393 . S
C1976 H1965 0.950 1_545 S
C1976 C1974 1.391 . S
C1976 C1977 1.400 . S
C1977 C1971 1.491 . S
C1977 C1976 1.400 . S
C1977 C1978 1.398 . S
C1978 H1966 0.950 . S
C1978 C1977 1.398 . S
C1978 C1979 1.391 . S
C1979 H1967 0.950 . S
C1979 C1975 1.393 . S
C1979 C1978 1.391 . S
H1980 C1988 0.950 . S
H1981 C1993 0.950 . S
H1982 C1990 0.950 . S
H1983 C1992 0.950 . S
H1984 C1994 0.950 . S
H1985 C1996 0.950 . S
H1986 C1998 0.950 . S
H1987 C1999 0.950 . S
C1988 H1980 0.950 . S
C1988 C1989 1.386 . S
C1988 C1990 1.391 . S
C1989 C1988 1.386 . S
C1989 C1993 1.393 . S
C1990 H1982 0.950 . S
C1990 C1988 1.391 . S
C1990 C1991 1.400 . S
C1991 C1990 1.400 . S
C1991 C1992 1.398 . S
C1991 C1997 1.491 . S
C1992 H1983 0.950 . S
C1992 C1991 1.398 . S
C1992 C1993 1.391 . S
C1993 H1981 0.950 . S
C1993 C1989 1.393 . S
C1993 C1992 1.391 . S
C1994 H1984 0.950 . S
C1994 C1995 1.386 . S
C1994 C1996 1.391 . S
C1995 C1994 1.386 . S
C1995 C1999 1.393 . S
C1996 H1985 0.950 . S
C1996 C1994 1.391 . S
C1996 C1997 1.400 . S
C1997 C1991 1.491 . S
C1997 C1996 1.400 . S
C1997 C1998 1.398 . S
C1998 H1986 0.950 . S
C1998 C1997 1.398 . S
C1998 C1999 1.391 . S
C1999 H1987 0.950 . S
C1999 C1995 1.393 . S
C1999 C1998 1.391 . S
H2000 C2008 0.950 . S
H2001 C2013 0.950 . S
H2002 C2010 0.950 . S
H2003 C2012 0.950 . S
H2004 C2014 0.950 . S
H2005 C2016 0.950 . S
H2006 C2018 0.950 . S
H2007 C2019 0.950 . S
C2008 H2000 0.950 . S
C2008 C2009 1.386 1_565 S
C2008 C2010 1.391 . S
C2009 C2008 1.386 1_545 S
C2009 C2013 1.393 . S
C2010 H2002 0.950 . S
C2010 C2008 1.391 . S
C2010 C2011 1.400 1_565 S
C2011 C2010 1.400 1_545 S
C2011 C2012 1.398 . S
C2011 C2017 1.491 1_655 S
C2012 H2003 0.950 . S
C2012 C2011 1.398 . S
C2012 C2013 1.391 . S
C2013 H2001 0.950 . S
C2013 C2009 1.393 . S
C2013 C2012 1.391 . S
C2014 H2004 0.950 . S
C2014 C2015 1.386 . S
C2014 C2016 1.391 . S
C2015 C2014 1.386 . S
C2015 C2019 1.393 1_545 S
C2016 H2005 0.950 . S
C2016 C2014 1.391 . S
C2016 C2017 1.400 . S
C2017 C2011 1.491 1_455 S
C2017 C2016 1.400 . S
C2017 C2018 1.398 1_545 S
C2018 H2006 0.950 . S
C2018 C2017 1.398 1_565 S
C2018 C2019 1.391 . S
C2019 H2007 0.950 . S
C2019 C2015 1.393 1_565 S
C2019 C2018 1.391 . S
H2020 C2028 0.950 . S
H2021 C2033 0.950 . S
H2022 C2030 0.950 . S
H2023 C2032 0.950 . S
H2024 C2034 0.950 . S
H2025 C2036 0.950 . S
H2026 C2038 0.950 . S
H2027 C2039 0.950 . S
C2028 H2020 0.950 . S
C2028 C2029 1.386 . S
C2028 C2030 1.391 . S
C2029 C2028 1.386 . S
C2029 C2033 1.393 . S
C2030 H2022 0.950 . S
C2030 C2028 1.391 . S
C2030 C2031 1.400 . S
C2031 C2030 1.400 . S
C2031 C2032 1.398 . S
C2031 C2037 1.491 . S
C2032 H2023 0.950 . S
C2032 C2031 1.398 . S
C2032 C2033 1.391 . S
C2033 H2021 0.950 . S
C2033 C2029 1.393 . S
C2033 C2032 1.391 . S
C2034 H2024 0.950 . S
C2034 C2035 1.386 . S
C2034 C2036 1.391 . S
C2035 C2034 1.386 . S
C2035 C2039 1.393 . S
C2036 H2025 0.950 . S
C2036 C2034 1.391 . S
C2036 C2037 1.400 . S
C2037 C2031 1.491 . S
C2037 C2036 1.400 . S
C2037 C2038 1.398 . S
C2038 H2026 0.950 . S
C2038 C2037 1.398 . S
C2038 C2039 1.391 . S
C2039 H2027 0.950 . S
C2039 C2035 1.393 . S
C2039 C2038 1.391 . S
H2040 C2048 0.950 . S
H2041 C2053 0.950 . S
H2042 C2050 0.950 . S
H2043 C2052 0.950 . S
H2044 C2054 0.950 . S
H2045 C2056 0.950 . S
H2046 C2058 0.950 . S
H2047 C2059 0.950 . S
C2048 H2040 0.950 . S
C2048 C2049 1.386 . S
C2048 C2050 1.391 . S
C2049 C2048 1.386 . S
C2049 C2053 1.393 1_565 S
C2050 H2042 0.950 . S
C2050 C2048 1.391 . S
C2050 C2051 1.400 . S
C2051 C2050 1.400 . S
C2051 C2052 1.398 1_565 S
C2051 C2057 1.491 . S
C2052 H2043 0.950 . S
C2052 C2051 1.398 1_545 S
C2052 C2053 1.391 . S
C2053 H2041 0.950 . S
C2053 C2049 1.393 1_545 S
C2053 C2052 1.391 . S
C2054 H2044 0.950 . S
C2054 C2055 1.386 1_545 S
C2054 C2056 1.391 . S
C2055 C2054 1.386 1_565 S
C2055 C2059 1.393 . S
C2056 H2045 0.950 . S
C2056 C2054 1.391 . S
C2056 C2057 1.400 1_545 S
C2057 C2051 1.491 . S
C2057 C2056 1.400 1_565 S
C2057 C2058 1.398 . S
C2058 H2046 0.950 . S
C2058 C2057 1.398 . S
C2058 C2059 1.391 . S
C2059 H2047 0.950 . S
C2059 C2055 1.393 . S
C2059 C2058 1.391 . S
H2060 C2068 0.950 . S
H2061 C2073 0.950 . S
H2062 C2070 0.950 . S
H2063 C2072 0.950 . S
H2064 C2074 0.950 . S
H2065 C2076 0.950 . S
H2066 C2078 0.950 . S
H2067 C2079 0.950 . S
C2068 H2060 0.950 . S
C2068 C2069 1.386 . S
C2068 C2070 1.391 . S
C2069 C2068 1.386 . S
C2069 C2073 1.393 . S
C2070 H2062 0.950 . S
C2070 C2068 1.391 . S
C2070 C2071 1.400 . S
C2071 C2070 1.400 . S
C2071 C2072 1.398 . S
C2071 C2077 1.491 . S
C2072 H2063 0.950 . S
C2072 C2071 1.398 . S
C2072 C2073 1.391 . S
C2073 H2061 0.950 . S
C2073 C2069 1.393 . S
C2073 C2072 1.391 . S
C2074 H2064 0.950 . S
C2074 C2075 1.386 . S
C2074 C2076 1.391 . S
C2075 C2074 1.386 . S
C2075 C2079 1.393 . S
C2076 H2065 0.950 . S
C2076 C2074 1.391 . S
C2076 C2077 1.400 . S
C2077 C2071 1.491 . S
C2077 C2076 1.400 . S
C2077 C2078 1.398 . S
C2078 H2066 0.950 . S
C2078 C2077 1.398 . S
C2078 C2079 1.391 . S
C2079 H2067 0.950 . S
C2079 C2075 1.393 . S
C2079 C2078 1.391 . S
H2080 C2088 0.950 . S
H2081 C2093 0.950 . S
H2082 C2090 0.950 . S
H2083 C2092 0.950 . S
H2084 C2094 0.950 . S
H2085 C2096 0.950 . S
H2086 C2098 0.950 . S
H2087 C2099 0.950 . S
C2088 H2080 0.950 . S
C2088 C2089 1.386 . S
C2088 C2090 1.391 . S
C2089 C2088 1.386 . S
C2089 C2093 1.393 . S
C2090 H2082 0.950 . S
C2090 C2088 1.391 . S
C2090 C2091 1.400 . S
C2091 C2090 1.400 . S
C2091 C2092 1.398 . S
C2091 C2097 1.491 . S
C2092 H2083 0.950 . S
C2092 C2091 1.398 . S
C2092 C2093 1.391 . S
C2093 H2081 0.950 . S
C2093 C2089 1.393 . S
C2093 C2092 1.391 . S
C2094 H2084 0.950 . S
C2094 C2095 1.386 . S
C2094 C2096 1.391 . S
C2095 C2094 1.386 . S
C2095 C2099 1.393 . S
C2096 H2085 0.950 . S
C2096 C2094 1.391 . S
C2096 C2097 1.400 . S
C2097 C2091 1.491 . S
C2097 C2096 1.400 . S
C2097 C2098 1.398 . S
C2098 H2086 0.950 . S
C2098 C2097 1.398 . S
C2098 C2099 1.391 . S
C2099 H2087 0.950 . S
C2099 C2095 1.393 . S
C2099 C2098 1.391 . S
H2100 C2108 0.950 . S
H2101 C2113 0.950 . S
H2102 C2110 0.950 . S
H2103 C2112 0.950 . S
H2104 C2114 0.950 . S
H2105 C2116 0.950 . S
H2106 C2118 0.950 . S
H2107 C2119 0.950 . S
C2108 H2100 0.950 . S
C2108 C2109 1.386 . S
C2108 C2110 1.391 . S
C2109 C2108 1.386 . S
C2109 C2113 1.393 . S
C2110 H2102 0.950 . S
C2110 C2108 1.391 . S
C2110 C2111 1.400 . S
C2111 C2110 1.400 . S
C2111 C2112 1.398 . S
C2111 C2117 1.491 . S
C2112 H2103 0.950 . S
C2112 C2111 1.398 . S
C2112 C2113 1.391 . S
C2113 H2101 0.950 . S
C2113 C2109 1.393 . S
C2113 C2112 1.391 . S
C2114 H2104 0.950 . S
C2114 C2115 1.386 . S
C2114 C2116 1.391 . S
C2115 C2114 1.386 . S
C2115 C2119 1.393 . S
C2116 H2105 0.950 . S
C2116 C2114 1.391 . S
C2116 C2117 1.400 . S
C2117 C2111 1.491 . S
C2117 C2116 1.400 . S
C2117 C2118 1.398 . S
C2118 H2106 0.950 . S
C2118 C2117 1.398 . S
C2118 C2119 1.391 . S
C2119 H2107 0.950 . S
C2119 C2115 1.393 . S
C2119 C2118 1.391 . S
H2120 C2128 0.950 . S
H2121 C2133 0.950 . S
H2122 C2130 0.950 . S
H2123 C2132 0.950 . S
H2124 C2134 0.950 . S
H2125 C2136 0.950 . S
H2126 C2138 0.950 . S
H2127 C2139 0.950 . S
C2128 H2120 0.950 . S
C2128 C2129 1.386 . S
C2128 C2130 1.391 . S
C2129 C2128 1.386 . S
C2129 C2133 1.393 . S
C2130 H2122 0.950 . S
C2130 C2128 1.391 . S
C2130 C2131 1.400 . S
C2131 C2130 1.400 . S
C2131 C2132 1.398 . S
C2131 C2137 1.491 . S
C2132 H2123 0.950 . S
C2132 C2131 1.398 . S
C2132 C2133 1.391 . S
C2133 H2121 0.950 . S
C2133 C2129 1.393 . S
C2133 C2132 1.391 . S
C2134 H2124 0.950 . S
C2134 C2135 1.386 . S
C2134 C2136 1.391 . S
C2135 C2134 1.386 . S
C2135 C2139 1.393 . S
C2136 H2125 0.950 . S
C2136 C2134 1.391 . S
C2136 C2137 1.400 . S
C2137 C2131 1.491 . S
C2137 C2136 1.400 . S
C2137 C2138 1.398 . S
C2138 H2126 0.950 . S
C2138 C2137 1.398 . S
C2138 C2139 1.391 . S
C2139 H2127 0.950 . S
C2139 C2135 1.393 . S
C2139 C2138 1.391 . S
H2140 C2148 0.950 . S
H2141 C2153 0.950 . S
H2142 C2150 0.950 . S
H2143 C2152 0.950 . S
H2144 C2154 0.950 . S
H2145 C2156 0.950 . S
H2146 C2158 0.950 . S
H2147 C2159 0.950 . S
C2148 H2140 0.950 . S
C2148 C2149 1.386 . S
C2148 C2150 1.391 . S
C2149 C2148 1.386 . S
C2149 C2153 1.393 . S
C2150 H2142 0.950 . S
C2150 C2148 1.391 . S
C2150 C2151 1.400 . S
C2151 C2150 1.400 . S
C2151 C2152 1.398 . S
C2151 C2157 1.491 . S
C2152 H2143 0.950 . S
C2152 C2151 1.398 . S
C2152 C2153 1.391 . S
C2153 H2141 0.950 . S
C2153 C2149 1.393 . S
C2153 C2152 1.391 . S
C2154 H2144 0.950 . S
C2154 C2155 1.386 . S
C2154 C2156 1.391 . S
C2155 C2154 1.386 . S
C2155 C2159 1.393 . S
C2156 H2145 0.950 . S
C2156 C2154 1.391 . S
C2156 C2157 1.400 . S
C2157 C2151 1.491 . S
C2157 C2156 1.400 . S
C2157 C2158 1.398 . S
C2158 H2146 0.950 . S
C2158 C2157 1.398 . S
C2158 C2159 1.391 . S
C2159 H2147 0.950 . S
C2159 C2155 1.393 . S
C2159 C2158 1.391 . S
H2160 C2168 0.950 . S
H2161 C2173 0.950 . S
H2162 C2170 0.950 . S
H2163 C2172 0.950 . S
H2164 C2174 0.950 . S
H2165 C2176 0.950 . S
H2166 C2178 0.950 . S
H2167 C2179 0.950 . S
C2168 H2160 0.950 . S
C2168 C2169 1.386 . S
C2168 C2170 1.391 . S
C2169 C2168 1.386 . S
C2169 C2173 1.393 . S
C2170 H2162 0.950 . S
C2170 C2168 1.391 . S
C2170 C2171 1.400 . S
C2171 C2170 1.400 . S
C2171 C2172 1.398 . S
C2171 C2177 1.491 . S
C2172 H2163 0.950 . S
C2172 C2171 1.398 . S
C2172 C2173 1.391 . S
C2173 H2161 0.950 . S
C2173 C2169 1.393 . S
C2173 C2172 1.391 . S
C2174 H2164 0.950 . S
C2174 C2175 1.386 . S
C2174 C2176 1.391 . S
C2175 C2174 1.386 . S
C2175 C2179 1.393 . S
C2176 H2165 0.950 . S
C2176 C2174 1.391 . S
C2176 C2177 1.400 . S
C2177 C2171 1.491 . S
C2177 C2176 1.400 . S
C2177 C2178 1.398 . S
C2178 H2166 0.950 . S
C2178 C2177 1.398 . S
C2178 C2179 1.391 . S
C2179 H2167 0.950 . S
C2179 C2175 1.393 . S
C2179 C2178 1.391 . S
H2180 C2188 0.950 . S
H2181 C2193 0.950 . S
H2182 C2190 0.950 . S
H2183 C2192 0.950 . S
H2184 C2194 0.950 . S
H2185 C2196 0.950 . S
H2186 C2198 0.950 . S
H2187 C2199 0.950 . S
C2188 H2180 0.950 . S
C2188 C2189 1.386 . S
C2188 C2190 1.391 . S
C2189 C2188 1.386 . S
C2189 C2193 1.393 . S
C2190 H2182 0.950 . S
C2190 C2188 1.391 . S
C2190 C2191 1.400 . S
C2191 C2190 1.400 . S
C2191 C2192 1.398 . S
C2191 C2197 1.491 1_455 S
C2192 H2183 0.950 . S
C2192 C2191 1.398 . S
C2192 C2193 1.391 . S
C2193 H2181 0.950 . S
C2193 C2189 1.393 . S
C2193 C2192 1.391 . S
C2194 H2184 0.950 . S
C2194 C2195 1.386 . S
C2194 C2196 1.391 . S
C2195 C2194 1.386 . S
C2195 C2199 1.393 . S
C2196 H2185 0.950 . S
C2196 C2194 1.391 . S
C2196 C2197 1.400 . S
C2197 C2191 1.491 1_655 S
C2197 C2196 1.400 . S
C2197 C2198 1.398 . S
C2198 H2186 0.950 . S
C2198 C2197 1.398 . S
C2198 C2199 1.391 . S
C2199 H2187 0.950 . S
C2199 C2195 1.393 . S
C2199 C2198 1.391 . S
H2200 C2208 0.950 . S
H2201 C2213 0.950 . S
H2202 C2210 0.950 . S
H2203 C2212 0.950 . S
H2204 C2214 0.950 . S
H2205 C2216 0.950 . S
H2206 C2218 0.950 . S
H2207 C2219 0.950 . S
C2208 H2200 0.950 . S
C2208 C2209 1.386 . S
C2208 C2210 1.391 . S
C2209 C2208 1.386 . S
C2209 C2213 1.393 . S
C2210 H2202 0.950 . S
C2210 C2208 1.391 . S
C2210 C2211 1.400 . S
C2211 C2210 1.400 . S
C2211 C2212 1.398 . S
C2211 C2217 1.491 . S
C2212 H2203 0.950 . S
C2212 C2211 1.398 . S
C2212 C2213 1.391 . S
C2213 H2201 0.950 . S
C2213 C2209 1.393 . S
C2213 C2212 1.391 . S
C2214 H2204 0.950 . S
C2214 C2215 1.386 . S
C2214 C2216 1.391 . S
C2215 C2214 1.386 . S
C2215 C2219 1.393 . S
C2216 H2205 0.950 . S
C2216 C2214 1.391 . S
C2216 C2217 1.400 . S
C2217 C2211 1.491 . S
C2217 C2216 1.400 . S
C2217 C2218 1.398 . S
C2218 H2206 0.950 . S
C2218 C2217 1.398 . S
C2218 C2219 1.391 . S
C2219 H2207 0.950 . S
C2219 C2215 1.393 . S
C2219 C2218 1.391 . S
H2220 C2228 0.950 . S
H2221 C2233 0.950 . S
H2222 C2230 0.950 . S
H2223 C2232 0.950 . S
H2224 C2234 0.950 . S
H2225 C2236 0.950 . S
H2226 C2238 0.950 . S
H2227 C2239 0.950 . S
C2228 H2220 0.950 . S
C2228 C2229 1.386 . S
C2228 C2230 1.391 . S
C2229 C2228 1.386 . S
C2229 C2233 1.393 . S
C2230 H2222 0.950 . S
C2230 C2228 1.391 . S
C2230 C2231 1.400 . S
C2231 C2230 1.400 . S
C2231 C2232 1.398 . S
C2231 C2237 1.491 1_655 S
C2232 H2223 0.950 . S
C2232 C2231 1.398 . S
C2232 C2233 1.391 . S
C2233 H2221 0.950 . S
C2233 C2229 1.393 . S
C2233 C2232 1.391 . S
C2234 H2224 0.950 . S
C2234 C2235 1.386 . S
C2234 C2236 1.391 . S
C2235 C2234 1.386 . S
C2235 C2239 1.393 . S
C2236 H2225 0.950 . S
C2236 C2234 1.391 . S
C2236 C2237 1.400 . S
C2237 C2231 1.491 1_455 S
C2237 C2236 1.400 . S
C2237 C2238 1.398 . S
C2238 H2226 0.950 . S
C2238 C2237 1.398 . S
C2238 C2239 1.391 . S
C2239 H2227 0.950 . S
C2239 C2235 1.393 . S
C2239 C2238 1.391 . S
C1289 C255 1.503 . S
C1295 C15 1.505 . S
C1309 C295 1.709 . S
C1315 C55 1.711 . S
C1329 C175 1.503 . S
C1335 C95 1.505 . S
C1349 C135 1.713 . S
C1355 C215 1.708 . S
C1369 C575 1.504 . S
C1375 C335 1.499 . S
C1389 C615 1.712 . S
C1395 C375 1.707 . S
C1409 C495 1.505 . S
C1415 C415 1.499 . S
C1429 C535 1.707 . S
C1435 C455 1.707 . S
C1449 C655 1.704 . S
C1455 C895 1.700 . S
C1469 C935 1.525 . S
C1475 C695 1.521 . S
C1489 C735 1.701 . S
C1495 C815 1.703 . S
C1509 C855 1.520 . S
C1515 C775 1.526 . S
C1529 C975 1.700 . S
C1535 C1215 1.702 . S
C1549 C1015 1.515 . S
C1555 C1255 1.522 . S
C1569 C1055 1.702 . S
C1575 C1135 1.698 . S
C1589 C1095 1.522 . S
C1595 C1175 1.516 . S
C1609 C301 1.504 . S
C1615 C21 1.497 . S
C1629 C61 1.505 . S
C1635 C181 1.501 . S
C1649 C221 1.507 . S
C1655 C101 1.503 . S
C1669 C141 1.508 . S
C1675 C261 1.502 . S
C1689 C621 1.455 . S
C1695 C341 1.490 . S
C1709 C381 1.450 . S
C1715 C501 1.487 . S
C1729 C541 1.467 . S
C1735 C421 1.473 . S
C1749 C461 1.449 . S
C1755 C581 1.484 . S
C1769 C661 1.800 . S
C1775 C941 1.803 . S
C1789 C701 1.802 . S
C1795 C821 1.801 . S
C1809 C861 1.801 . S
C1815 C741 1.800 . S
C1829 C781 1.802 . S
C1835 C901 1.798 . S
C1849 C1261 1.755 . S
C1855 C981 1.763 . S
C1869 C1021 1.738 . S
C1875 C1141 1.754 . S
C1889 C1061 1.764 . S
C1895 C1181 1.753 . S
C1909 C1101 1.739 . S
C1915 C1221 1.760 . S
C1929 C2 1.498 . S
C1935 C482 1.478 . S
C1949 C42 1.655 . S
C1955 C1162 1.628 . S
C1969 C82 1.492 . S
C1975 C562 1.467 . S
C1989 C122 1.654 . S
C1995 C1242 1.617 . S
C2009 C322 1.476 . S
C2015 C162 1.489 . S
C2029 C202 1.654 . S
C2035 C1002 1.625 . S
C2049 C242 1.496 . S
C2055 C402 1.473 . S
C2069 C1082 1.627 . S
C2075 C282 1.656 . S
C2089 C362 1.623 . S
C2095 C842 1.651 . S
C2109 C922 1.653 . S
C2115 C442 1.627 . S
C2129 C682 1.649 . S
C2135 C522 1.635 . S
C2149 C602 1.628 . S
C2155 C762 1.646 . S
C2169 C642 1.709 . S
C2175 C1122 1.676 . S
C2189 C1202 1.678 . S
C2195 C722 1.710 . S
C2209 C962 1.687 . S
C2215 C802 1.710 . S
C2229 C882 1.705 . S
C2235 C1042 1.687 . S
