# Generated by pormake.
# Topology umo, (4)-cn, num edge types: 1
# Building blocks:
#     Node 0, Type 0, BuildingBlock: CEKHIL_clean_sbu_0, # of connection points: 4
#     Node 1, Type 0, BuildingBlock: CEKHIL_clean_sbu_0, # of connection points: 4
#     Node 2, Type 0, BuildingBlock: CEKHIL_clean_sbu_0, # of connection points: 4
#     Node 3, Type 0, BuildingBlock: CEKHIL_clean_sbu_0, # of connection points: 4
#     Node 4, Type 0, BuildingBlock: CEKHIL_clean_sbu_0, # of connection points: 4
#     Node 5, Type 0, BuildingBlock: CEKHIL_clean_sbu_0, # of connection points: 4
#     Node 6, Type 0, BuildingBlock: CEKHIL_clean_sbu_0, # of connection points: 4
#     Node 7, Type 0, BuildingBlock: CEKHIL_clean_sbu_0, # of connection points: 4
#     Node 8, Type 0, BuildingBlock: CEKHIL_clean_sbu_0, # of connection points: 4
#     Node 9, Type 0, BuildingBlock: CEKHIL_clean_sbu_0, # of connection points: 4
#     Node 10, Type 0, BuildingBlock: CEKHIL_clean_sbu_0, # of connection points: 4
#     Node 11, Type 0, BuildingBlock: CEKHIL_clean_sbu_0, # of connection points: 4
#     Edge 12, Type (0, 0), BuildingBlock: KIFKEQ_clean_linker_1, # of connection points: 2
#     Edge 13, Type (0, 0), BuildingBlock: KIFKEQ_clean_linker_1, # of connection points: 2
#     Edge 14, Type (0, 0), BuildingBlock: KIFKEQ_clean_linker_1, # of connection points: 2
#     Edge 15, Type (0, 0), BuildingBlock: KIFKEQ_clean_linker_1, # of connection points: 2
#     Edge 16, Type (0, 0), BuildingBlock: KIFKEQ_clean_linker_1, # of connection points: 2
#     Edge 17, Type (0, 0), BuildingBlock: KIFKEQ_clean_linker_1, # of connection points: 2
#     Edge 18, Type (0, 0), BuildingBlock: KIFKEQ_clean_linker_1, # of connection points: 2
#     Edge 19, Type (0, 0), BuildingBlock: KIFKEQ_clean_linker_1, # of connection points: 2
#     Edge 20, Type (0, 0), BuildingBlock: KIFKEQ_clean_linker_1, # of connection points: 2
#     Edge 21, Type (0, 0), BuildingBlock: KIFKEQ_clean_linker_1, # of connection points: 2
#     Edge 22, Type (0, 0), BuildingBlock: KIFKEQ_clean_linker_1, # of connection points: 2
#     Edge 23, Type (0, 0), BuildingBlock: KIFKEQ_clean_linker_1, # of connection points: 2
#     Edge 24, Type (0, 0), BuildingBlock: KIFKEQ_clean_linker_1, # of connection points: 2
#     Edge 25, Type (0, 0), BuildingBlock: KIFKEQ_clean_linker_1, # of connection points: 2
#     Edge 26, Type (0, 0), BuildingBlock: KIFKEQ_clean_linker_1, # of connection points: 2
#     Edge 27, Type (0, 0), BuildingBlock: KIFKEQ_clean_linker_1, # of connection points: 2
#     Edge 28, Type (0, 0), BuildingBlock: KIFKEQ_clean_linker_1, # of connection points: 2
#     Edge 29, Type (0, 0), BuildingBlock: KIFKEQ_clean_linker_1, # of connection points: 2
#     Edge 30, Type (0, 0), BuildingBlock: KIFKEQ_clean_linker_1, # of connection points: 2
#     Edge 31, Type (0, 0), BuildingBlock: KIFKEQ_clean_linker_1, # of connection points: 2
#     Edge 32, Type (0, 0), BuildingBlock: KIFKEQ_clean_linker_1, # of connection points: 2
#     Edge 33, Type (0, 0), BuildingBlock: KIFKEQ_clean_linker_1, # of connection points: 2
#     Edge 34, Type (0, 0), BuildingBlock: KIFKEQ_clean_linker_1, # of connection points: 2
#     Edge 35, Type (0, 0), BuildingBlock: KIFKEQ_clean_linker_1, # of connection points: 2
# Relax obj value: 0.181
# Max RMSD: 0.255
# Mean RMSD: 0.255
data_MOF--net-umo--node1-CEKHIL_clean_sbu_0--edge1-KIFKEQ_clean_linker_1
_symmetry_space_group_name_H-M    P1
_symmetry_Int_Tables_number       1
_symmetry_cell_setting            triclinic
loop_
_symmetry_equiv_pos_as_xyz
'x, y, z'
_cell_length_a     48.988456
_cell_length_b     49.007169
_cell_length_c     36.831671
_cell_angle_alpha  89.998242
_cell_angle_beta   89.992481
_cell_angle_gamma 119.91342
loop_
_atom_site_label
_atom_site_type_symbol
_atom_site_fract_x
_atom_site_fract_y
_atom_site_fract_z
_atom_type_partial_charge
Co0 Co 0.15339 0.52541 0.38621 0.0
O1 O 0.11145 0.49078 0.38993 0.0
O2 O 0.12395 0.5402 0.37875 0.0
C3 C 0.17236 0.50232 0.34836 0.0
O4 O 0.19399 0.56664 0.37989 0.0
Co5 Co 0.20771 0.51794 0.41814 0.0
O6 O 0.23337 0.55633 0.38873 0.0
C7 C 0.17065 0.53431 0.46743 0.0
C8 C 0.10226 0.51087 0.38272 0.0
C9 C 0.2232 0.57456 0.37884 0.0
O10 O 0.1545 0.53434 0.43991 0.0
O11 O 0.19191 0.52643 0.46513 0.0
O12 O 0.15593 0.51441 0.3361 0.0
O13 O 0.17334 0.50082 0.38352 0.0
Co14 Co 0.61567 0.15016 0.55057 0.0
O15 O 0.60459 0.10678 0.55099 0.0
O16 O 0.57061 0.12411 0.54606 0.0
C17 C 0.65546 0.16782 0.50976 0.0
O18 O 0.61864 0.19277 0.5489 0.0
Co19 Co 0.68077 0.19992 0.58024 0.0
O20 O 0.66952 0.22933 0.55658 0.0
C21 C 0.62879 0.16528 0.63198 0.0
C22 C 0.57563 0.10046 0.54751 0.0
C23 C 0.64106 0.2215 0.54951 0.0
O24 O 0.61101 0.1501 0.60501 0.0
O25 O 0.65819 0.18519 0.62837 0.0
O26 O 0.6263 0.15368 0.49934 0.0
O27 O 0.65957 0.16686 0.54448 0.0
Co28 Co 0.4642 0.62645 0.7195 0.0
O29 O 0.49846 0.61827 0.72123 0.0
O30 O 0.4483 0.58197 0.71324 0.0
C31 C 0.4862 0.66769 0.68039 0.0
O32 O 0.42302 0.62623 0.71569 0.0
Co33 Co 0.4736 0.68927 0.75047 0.0
O34 O 0.43307 0.67568 0.72523 0.0
C35 C 0.45873 0.63697 0.80101 0.0
C36 C 0.47756 0.58895 0.71569 0.0
C37 C 0.41452 0.6471 0.71638 0.0
O38 O 0.45757 0.62003 0.77371 0.0
O39 O 0.46671 0.66607 0.79798 0.0
O40 O 0.47322 0.63895 0.66872 0.0
O41 O 0.48912 0.67078 0.71541 0.0
Co42 Co 0.83531 0.46261 0.89239 0.0
O43 O 0.87581 0.49994 0.89458 0.0
O44 O 0.86736 0.45117 0.88918 0.0
C45 C 0.81371 0.48017 0.85064 0.0
O46 O 0.79822 0.41881 0.88805 0.0
Co47 Co 0.77446 0.46135 0.91597 0.0
O48 O 0.75358 0.42083 0.88917 0.0
C49 C 0.81349 0.45281 0.97148 0.0
C50 C 0.88722 0.48119 0.8905 0.0
C51 C 0.76835 0.40588 0.88436 0.0
O52 O 0.83398 0.45737 0.94687 0.0
O53 O 0.78858 0.45436 0.96492 0.0
O54 O 0.83213 0.46954 0.84099 0.0
O55 O 0.81146 0.48305 0.88539 0.0
Co56 Co 0.36254 0.83602 0.06058 0.0
O57 O 0.36229 0.8745 0.05523 0.0
O58 O 0.40525 0.86997 0.05488 0.0
C59 C 0.32401 0.80894 0.01931 0.0
O60 O 0.37141 0.80009 0.06404 0.0
Co61 Co 0.30469 0.77808 0.09128 0.0
O62 O 0.3245 0.75594 0.06762 0.0
C63 C 0.35216 0.82338 0.14231 0.0
C64 C 0.39251 0.8876 0.05101 0.0
C65 C 0.3542 0.77007 0.06305 0.0
O66 O 0.36694 0.84094 0.11502 0.0
O67 O 0.32592 0.79761 0.13899 0.0
O68 O 0.35297 0.8271 0.00955 0.0
O69 O 0.31827 0.80997 0.05363 0.0
Co70 Co 0.53126 0.37471 0.22256 0.0
O71 O 0.49562 0.38053 0.22365 0.0
O72 O 0.54532 0.41898 0.21839 0.0
C73 C 0.51252 0.3355 0.1811 0.0
O74 O 0.57351 0.37697 0.2199 0.0
Co75 Co 0.52377 0.31207 0.25068 0.0
O76 O 0.56369 0.32713 0.22345 0.0
C77 C 0.53554 0.36196 0.30347 0.0
C78 C 0.51554 0.4103 0.21954 0.0
C79 C 0.58224 0.35633 0.21749 0.0
O80 O 0.53573 0.37906 0.27693 0.0
O81 O 0.52953 0.33352 0.29926 0.0
O82 O 0.52488 0.36468 0.1713 0.0
O83 O 0.50797 0.3305 0.21582 0.0
Co84 Co 0.45712 0.83601 0.46093 0.0
O85 O 0.48525 0.87971 0.47024 0.0
O86 O 0.43295 0.85651 0.4707 0.0
C87 C 0.48054 0.81683 0.49797 0.0
O88 O 0.42099 0.79187 0.45311 0.0
Co89 Co 0.48262 0.79738 0.42187 0.0
O90 O 0.44037 0.76154 0.43311 0.0
C91 C 0.46213 0.83424 0.37775 0.0
C92 C 0.46012 0.8818 0.47503 0.0
C93 C 0.41754 0.76521 0.44323 0.0
O94 O 0.456 0.84413 0.4073 0.0
O95 O 0.47465 0.81668 0.37748 0.0
O96 O 0.46158 0.82572 0.51075 0.0
O97 O 0.48798 0.82339 0.46396 0.0
Co98 Co 0.62226 0.46248 0.62506 0.0
O99 O 0.61465 0.49698 0.62675 0.0
O100 O 0.57753 0.44665 0.62993 0.0
C101 C 0.66182 0.48105 0.66618 0.0
O102 O 0.62208 0.42113 0.62447 0.0
Co103 Co 0.68614 0.47447 0.59475 0.0
O104 O 0.67244 0.43302 0.61766 0.0
C105 C 0.63498 0.4618 0.54342 0.0
C106 C 0.58508 0.47615 0.63022 0.0
C107 C 0.64352 0.41334 0.6238 0.0
O108 O 0.61768 0.45992 0.57061 0.0
O109 O 0.66388 0.4691 0.54683 0.0
O110 O 0.63261 0.46721 0.67633 0.0
O111 O 0.66643 0.48707 0.63167 0.0
Co112 Co 0.15426 0.62531 0.78538 0.0
O113 O 0.11258 0.6189 0.78623 0.0
O114 O 0.1247 0.58088 0.78934 0.0
C115 C 0.17501 0.66396 0.82758 0.0
O116 O 0.19458 0.62359 0.78581 0.0
Co117 Co 0.20798 0.68841 0.75704 0.0
O118 O 0.23417 0.67351 0.78155 0.0
C119 C 0.16988 0.63858 0.7042 0.0
C120 C 0.10328 0.58919 0.78977 0.0
C121 C 0.22395 0.6443 0.78687 0.0
O122 O 0.15317 0.62146 0.73084 0.0
O123 O 0.19231 0.66698 0.7084 0.0
O124 O 0.1589 0.63459 0.8368 0.0
O125 O 0.17471 0.6695 0.79308 0.0
Co126 Co 0.52801 0.1609 0.95174 0.0
O127 O 0.48836 0.12293 0.95316 0.0
O128 O 0.53504 0.12578 0.95608 0.0
C129 C 0.51569 0.18716 0.99315 0.0
O130 O 0.57336 0.1954 0.95219 0.0
Co131 Co 0.53298 0.22235 0.92417 0.0
O132 O 0.57441 0.24157 0.94907 0.0
C133 C 0.53471 0.17802 0.87103 0.0
C134 C 0.50451 0.10869 0.95716 0.0
C135 C 0.58798 0.22547 0.95402 0.0
O136 O 0.53045 0.15896 0.89724 0.0
O137 O 0.53498 0.20409 0.87565 0.0
O138 O 0.52464 0.16747 1.00306 0.0
O139 O 0.51126 0.18813 0.95851 0.0
Co140 Co 0.36522 0.52925 0.1211 0.0
O141 O 0.3712 0.49357 0.1184 0.0
O142 O 0.4091 0.54302 0.12713 0.0
C143 C 0.32399 0.50829 0.16006 0.0
O144 O 0.36848 0.57163 0.12652 0.0
Co145 Co 0.30468 0.5259 0.09185 0.0
O146 O 0.32059 0.56611 0.11873 0.0
C147 C 0.35546 0.53741 0.04023 0.0
C148 C 0.40078 0.51345 0.12449 0.0
C149 C 0.34955 0.5825 0.12739 0.0
O150 O 0.37183 0.53657 0.06705 0.0
O151 O 0.32711 0.53186 0.04387 0.0
O152 O 0.35263 0.51982 0.17166 0.0
O153 O 0.32069 0.50637 0.125 0.0
Co154 Co 0.83243 0.35863 0.28589 0.0
O155 O 0.87419 0.36486 0.28677 0.0
O156 O 0.86227 0.40298 0.28972 0.0
C157 C 0.81125 0.31955 0.32779 0.0
O158 O 0.79263 0.36129 0.28656 0.0
Co159 Co 0.77672 0.29578 0.25912 0.0
O160 O 0.75143 0.31229 0.2824 0.0
C161 C 0.81497 0.34533 0.2054 0.0
C162 C 0.88366 0.39466 0.29014 0.0
C163 C 0.76295 0.34173 0.28743 0.0
O164 O 0.83333 0.36233 0.23117 0.0
O165 O 0.79161 0.3176 0.21071 0.0
O166 O 0.82755 0.34882 0.33745 0.0
O167 O 0.81138 0.31442 0.29323 0.0
H168 H 0.27895 0.59802 0.34375 0.0
H169 H 0.22138 0.62506 0.40568 0.0
H170 H 0.32534 0.64859 0.35728 0.0
H171 H 0.26794 0.6752 0.42049 0.0
H172 H 0.36449 0.7683 0.42914 0.0
H173 H 0.31507 0.72605 0.40449 0.0
H174 H 0.34958 0.66088 0.41782 0.0
H175 H 0.39896 0.703 0.4416 0.0
C176 C 0.27613 0.61534 0.35908 0.0
C177 C 0.24693 0.6077 0.37418 0.0
C178 C 0.30263 0.64402 0.36726 0.0
C179 C 0.30028 0.66511 0.39115 0.0
C180 C 0.27041 0.65919 0.4023 0.0
C181 C 0.24374 0.6306 0.39362 0.0
C182 C 0.36117 0.74476 0.42755 0.0
C183 C 0.38558 0.73887 0.43699 0.0
C184 C 0.33305 0.72072 0.41311 0.0
C185 C 0.32902 0.69055 0.4081 0.0
C186 C 0.35258 0.68427 0.42004 0.0
C187 C 0.38064 0.70822 0.4342 0.0
H188 H 0.58586 0.21726 0.57138 0.0
H189 H 0.67892 0.28276 0.53109 0.0
H190 H 0.5801 0.26133 0.59299 0.0
H191 H 0.67295 0.32652 0.5524 0.0
H192 H 0.67813 0.38681 0.64424 0.0
H193 H 0.67127 0.3371 0.62167 0.0
H194 H 0.58193 0.31508 0.57444 0.0
H195 H 0.58863 0.365 0.59729 0.0
C196 C 0.60452 0.24104 0.5658 0.0
C197 C 0.63314 0.24671 0.55025 0.0
C198 C 0.60126 0.26615 0.57843 0.0
C199 C 0.62654 0.29699 0.57542 0.0
C200 C 0.65353 0.30274 0.55595 0.0
C201 C 0.65683 0.27778 0.54346 0.0
C202 C 0.65655 0.37091 0.6301 0.0
C203 C 0.63419 0.3799 0.62194 0.0
C204 C 0.65278 0.3427 0.61686 0.0
C205 C 0.62664 0.32308 0.59527 0.0
C206 C 0.60246 0.33019 0.59064 0.0
C207 C 0.6062 0.35855 0.60401 0.0
H208 H 0.21662 0.58985 0.75796 0.0
H209 H 0.28412 0.67614 0.81099 0.0
H210 H 0.25974 0.58283 0.73527 0.0
H211 H 0.32685 0.66894 0.7885 0.0
H212 H 0.38783 0.68135 0.69497 0.0
H213 H 0.33665 0.67236 0.7152 0.0
H214 H 0.31431 0.58142 0.75752 0.0
H215 H 0.36564 0.59021 0.73705 0.0
C216 C 0.24051 0.60652 0.76612 0.0
C217 C 0.24727 0.6339 0.78559 0.0
C218 C 0.26506 0.60259 0.75287 0.0
C219 C 0.2963 0.62594 0.75926 0.0
C220 C 0.30277 0.65111 0.78256 0.0
C221 C 0.2784 0.65508 0.79566 0.0
C222 C 0.37154 0.65894 0.70729 0.0
C223 C 0.38083 0.63679 0.71518 0.0
C224 C 0.34246 0.65391 0.71908 0.0
C225 C 0.32238 0.6267 0.73887 0.0
C226 C 0.32978 0.6027 0.74263 0.0
C227 C 0.35898 0.60769 0.73066 0.0
H228 H 0.71105 0.36891 0.85335 0.0
H229 H 0.78366 0.36571 0.91674 0.0
H230 H 0.67379 0.31498 0.87182 0.0
H231 H 0.74586 0.3123 0.93632 0.0
H232 H 0.62885 0.27965 0.98828 0.0
H233 H 0.68194 0.31649 0.96669 0.0
H234 H 0.67607 0.24745 0.88972 0.0
H235 H 0.62351 0.20992 0.91242 0.0
C236 C 0.71933 0.3562 0.86985 0.0
C237 C 0.74993 0.37144 0.88402 0.0
C238 C 0.69816 0.32545 0.88029 0.0
C239 C 0.70729 0.31003 0.90548 0.0
C240 C 0.73868 0.32387 0.91655 0.0
C241 C 0.76015 0.35437 0.90532 0.0
C242 C 0.63966 0.27178 0.9683 0.0
C243 C 0.62232 0.24226 0.95181 0.0
C244 C 0.66989 0.29271 0.956 0.0
C245 C 0.68255 0.28448 0.92661 0.0
C246 C 0.66665 0.25388 0.91271 0.0
C247 C 0.63672 0.23256 0.92576 0.0
H248 H 0.33628 0.71473 0.02937 0.0
H249 H 0.4043 0.78151 0.10479 0.0
H250 H 0.34767 0.67447 0.0514 0.0
H251 H 0.41495 0.7407 0.12758 0.0
H252 H 0.32076 0.61376 0.15288 0.0
H253 H 0.33546 0.66767 0.13676 0.0
H254 H 0.42207 0.68166 0.08955 0.0
H255 H 0.40795 0.62792 0.10643 0.0
C256 C 0.35467 0.72109 0.04943 0.0
C257 C 0.36927 0.75088 0.06565 0.0
C258 C 0.3611 0.69818 0.06206 0.0
C259 C 0.38179 0.70478 0.09132 0.0
C260 C 0.39905 0.73545 0.10486 0.0
C261 C 0.39303 0.75866 0.0917 0.0
C262 C 0.34358 0.6288 0.14066 0.0
C263 C 0.36294 0.61665 0.13029 0.0
C264 C 0.35198 0.65952 0.1315 0.0
C265 C 0.3796 0.67817 0.11164 0.0
C266 C 0.40077 0.66747 0.10503 0.0
C267 C 0.39262 0.63681 0.11475 0.0
H268 H 0.77555 0.39994 0.26466 0.0
H269 H 0.70086 0.31082 0.30486 0.0
H270 H 0.73627 0.41289 0.2423 0.0
H271 H 0.66203 0.32396 0.28256 0.0
H272 H 0.62999 0.40918 0.24798 0.0
H273 H 0.67991 0.4141 0.26813 0.0
H274 H 0.65959 0.33116 0.20661 0.0
H275 H 0.60976 0.32596 0.18673 0.0
C276 C 0.75087 0.3837 0.27001 0.0
C277 C 0.7411 0.35404 0.28578 0.0
C278 C 0.72855 0.39109 0.25698 0.0
C279 C 0.69649 0.36893 0.25989 0.0
C280 C 0.68683 0.34101 0.27941 0.0
C281 C 0.70898 0.33361 0.29234 0.0
C282 C 0.63697 0.39297 0.2373 0.0
C283 C 0.61593 0.36679 0.21644 0.0
C284 C 0.66536 0.39572 0.24904 0.0
C285 C 0.67274 0.37248 0.23958 0.0
C286 C 0.65382 0.34897 0.21462 0.0
C287 C 0.62551 0.34612 0.2031 0.0
H288 H 0.13945 0.57553 0.68977 0.0
H289 H 0.19094 0.66612 0.63697 0.0
H290 H 0.13775 0.54944 0.63281 0.0
H291 H 0.18846 0.63959 0.57953 0.0
H292 H 0.14705 0.57386 0.47762 0.0
H293 H 0.14478 0.59909 0.53387 0.0
H294 H 0.18272 0.54947 0.59288 0.0
H295 H 0.18577 0.52465 0.5364 0.0
C296 C 0.14991 0.58995 0.6659 0.0
C297 C 0.16531 0.62307 0.6681 0.0
C298 C 0.14912 0.57489 0.63332 0.0
C299 C 0.16313 0.59244 0.60181 0.0
C300 C 0.1774 0.62546 0.60343 0.0
C301 C 0.1788 0.64064 0.63631 0.0
C302 C 0.15462 0.568 0.50261 0.0
C303 C 0.16649 0.54705 0.50245 0.0
C304 C 0.15354 0.58271 0.53476 0.0
C305 C 0.16364 0.57633 0.56772 0.0
C306 C 0.17466 0.55474 0.56786 0.0
C307 C 0.17641 0.54054 0.53553 0.0
H308 H 0.65603 0.1801 0.69993 0.0
H309 H 0.5667 0.14477 0.64508 0.0
H310 H 0.63079 0.18012 0.75751 0.0
H311 H 0.54201 0.14569 0.70225 0.0
H312 H 0.53048 0.20034 0.80386 0.0
H313 H 0.55197 0.19417 0.74623 0.0
H314 H 0.58358 0.13659 0.79967 0.0
H315 H 0.56145 0.14187 0.85691 0.0
C316 C 0.63104 0.17205 0.70016 0.0
C317 C 0.61343 0.16225 0.66783 0.0
C318 C 0.61661 0.17208 0.7331 0.0
C319 C 0.58448 0.16307 0.73423 0.0
C320 C 0.56682 0.15291 0.70211 0.0
C321 C 0.58101 0.15216 0.66942 0.0
C322 C 0.54149 0.1859 0.80318 0.0
C323 C 0.54396 0.17141 0.835 0.0
C324 C 0.55383 0.18242 0.77023 0.0
C325 C 0.56961 0.16506 0.7686 0.0
C326 C 0.5717 0.15023 0.80021 0.0
C327 C 0.55872 0.15305 0.8329 0.0
H328 H 0.41871 0.57117 0.02677 0.0
H329 H 0.32855 0.52978 0.97261 0.0
H330 H 0.4452 0.59439 0.96946 0.0
H331 H 0.35535 0.55261 0.91501 0.0
H332 H 0.42004 0.57414 0.8138 0.0
H333 H 0.39559 0.54838 0.87105 0.0
H334 H 0.44556 0.63755 0.92655 0.0
H335 H 0.46965 0.66367 0.86906 0.0
C336 C 0.40451 0.56654 1.00256 0.0
C337 C 0.3714 0.54846 1.00439 0.0
C338 C 0.41975 0.5801 0.96977 0.0
C339 C 0.40238 0.57542 0.93778 0.0
C340 C 0.36937 0.55651 0.93923 0.0
C341 C 0.35403 0.54346 0.97222 0.0
C342 C 0.42621 0.58829 0.83823 0.0
C343 C 0.44697 0.62105 0.83674 0.0
C344 C 0.41194 0.5735 0.87098 0.0
C345 C 0.41854 0.59094 0.90324 0.0
C346 C 0.44011 0.62348 0.90211 0.0
C347 C 0.4539 0.63843 0.86918 0.0
H348 H 0.77327 0.32387 0.14863 0.0
H349 H 0.86419 0.4011 0.17996 0.0
H350 H 0.77494 0.35192 0.09333 0.0
H351 H 0.86577 0.42907 0.12427 0.0
H352 H 0.86506 0.45184 0.99965 0.0
H353 H 0.86759 0.42589 0.05528 0.0
H354 H 0.77192 0.40089 0.0807 0.0
H355 H 0.76928 0.4268 0.02544 0.0
C356 C 0.7939 0.34656 0.14352 0.0
C357 C 0.81857 0.36015 0.169 0.0
C358 C 0.79467 0.36282 0.11192 0.0
C359 C 0.82027 0.39294 0.10464 0.0
C360 C 0.8457 0.40592 0.12909 0.0
C361 C 0.84477 0.38982 0.16101 0.0
C362 C 0.84471 0.44126 0.01737 0.0
C363 C 0.81694 0.44147 0.00786 0.0
C364 C 0.84618 0.42635 0.04925 0.0
C365 C 0.8198 0.41091 0.07214 0.0
C366 C 0.79247 0.41209 0.06332 0.0
C367 C 0.79111 0.42729 0.03177 0.0
H368 H 0.41484 0.86262 0.15569 0.0
H369 H 0.32709 0.80087 0.21006 0.0
H370 H 0.44337 0.86921 0.2123 0.0
H371 H 0.35583 0.80814 0.26697 0.0
H372 H 0.41753 0.85174 0.3689 0.0
H373 H 0.39143 0.85268 0.31288 0.0
H374 H 0.45222 0.82967 0.25151 0.0
H375 H 0.47811 0.82803 0.3077 0.0
C376 C 0.40147 0.85098 0.17985 0.0
C377 C 0.36852 0.83123 0.17819 0.0
C378 C 0.41795 0.85459 0.21223 0.0
C379 C 0.4019 0.83909 0.24404 0.0
C380 C 0.36885 0.82051 0.24292 0.0
C381 C 0.35238 0.81636 0.2103 0.0
C382 C 0.42583 0.84741 0.34347 0.0
C383 C 0.45008 0.83985 0.34296 0.0
C384 C 0.4106 0.84769 0.31139 0.0
C385 C 0.41961 0.84108 0.27782 0.0
C386 C 0.44482 0.835 0.27697 0.0
C387 C 0.45967 0.83407 0.30919 0.0
H388 H 0.52739 0.33421 0.37072 0.0
H389 H 0.56958 0.42492 0.31771 0.0
H390 H 0.55047 0.36043 0.42856 0.0
H391 H 0.59303 0.45073 0.37515 0.0
H392 H 0.66229 0.47268 0.47561 0.0
H393 H 0.63617 0.44932 0.41783 0.0
H394 H 0.54641 0.40148 0.47247 0.0
H395 H 0.57208 0.4252 0.52988 0.0
C396 C 0.54127 0.35966 0.37142 0.0
C397 C 0.54643 0.37738 0.33952 0.0
C398 C 0.55448 0.37466 0.40451 0.0
C399 C 0.5737 0.40761 0.40623 0.0
C400 C 0.57851 0.42532 0.37454 0.0
C401 C 0.56479 0.41045 0.34171 0.0
C402 C 0.63694 0.45761 0.47521 0.0
C403 C 0.61935 0.45102 0.50745 0.0
C404 C 0.622 0.44422 0.44215 0.0
C405 C 0.58929 0.42341 0.44078 0.0
C406 C 0.57166 0.41723 0.4728 0.0
C407 C 0.58643 0.43111 0.50562 0.0
H408 H 0.90914 0.45555 0.31398 0.0
H409 H 0.93292 0.38433 0.28547 0.0
H410 H 0.96226 0.48846 0.33883 0.0
H411 H 0.98549 0.41706 0.30997 0.0
H412 H 0.05261 0.45479 0.40185 0.0
H413 H -0.0005 0.43079 0.37751 0.0
H414 H 0.02321 0.51683 0.3206 0.0
H415 H 0.07686 0.54126 0.3453 0.0
C416 C 0.92588 0.44726 0.3123 0.0
C417 C 0.91683 0.4172 0.29838 0.0
C418 C 0.95614 0.46604 0.32654 0.0
C419 C 0.97747 0.45482 0.32705 0.0
C420 C 0.96909 0.42583 0.31067 0.0
C421 C 0.93908 0.4072 0.29649 0.0
C422 C 0.04638 0.46886 0.38476 0.0
C423 C 0.06891 0.49966 0.37493 0.0
C424 C 0.01607 0.45507 0.37071 0.0
C425 C 0.00772 0.47178 0.34649 0.0
C426 C 0.02931 0.5035 0.33906 0.0
C427 C 0.05986 0.51742 0.35325 0.0
H428 H 0.47038 0.93237 0.43505 0.0
H429 H 0.45882 0.89738 0.54463 0.0
H430 H 0.48982 0.98578 0.45833 0.0
H431 H 0.47855 0.95075 0.56811 0.0
H432 H 0.57525 0.04823 0.57191 0.0
H433 H 0.5367 0.99369 0.55847 0.0
H434 H 0.48017 0.02406 0.49988 0.0
H435 H 0.51879 0.07908 0.51399 0.0
C436 C 0.47083 0.93607 0.4641 0.0
C437 C 0.46301 0.91117 0.48823 0.0
C438 C 0.48184 0.96647 0.47743 0.0
C439 C 0.48573 0.97225 0.51498 0.0
C440 C 0.47569 0.9468 0.53907 0.0
C441 C 0.46434 0.91639 0.52573 0.0
C442 C 0.55427 0.04325 0.55683 0.0
C443 C 0.55003 0.06774 0.54372 0.0
C444 C 0.53208 0.01205 0.54941 0.0
C445 C 0.50548 0.00478 0.52824 0.0
C446 C 0.5005 0.02918 0.51635 0.0
C447 C 0.5225 0.06051 0.52444 0.0
H448 H 0.53443 0.59516 0.73051 0.0
H449 H 0.44325 0.53037 0.68507 0.0
H450 H 0.55497 0.56221 0.70835 0.0
H451 H 0.46422 0.49721 0.66263 0.0
H452 H 0.52711 0.44306 0.6629 0.0
H453 H 0.49543 0.46549 0.68632 0.0
H454 H 0.56036 0.5548 0.63744 0.0
H455 H 0.59173 0.53282 0.61434 0.0
C456 C 0.51862 0.57357 0.71635 0.0
C457 C 0.48745 0.56559 0.70889 0.0
C458 C 0.53039 0.55477 0.70366 0.0
C459 C 0.51125 0.52768 0.68323 0.0
C460 C 0.47934 0.51814 0.67824 0.0
C461 C 0.46745 0.53707 0.69105 0.0
C462 C 0.53402 0.46721 0.65644 0.0
C463 C 0.5621 0.48644 0.63742 0.0
C464 C 0.516 0.47997 0.66986 0.0
C465 C 0.52605 0.51194 0.66428 0.0
C466 C 0.5526 0.53023 0.64268 0.0
C467 C 0.57047 0.51762 0.62941 0.0
H468 H 0.05319 0.59653 0.77614 0.0
H469 H 0.07948 0.53274 0.82493 0.0
H470 H 0.00126 0.5672 0.80345 0.0
H471 H 0.02722 0.50345 0.85293 0.0
H472 H 0.9156 0.44865 0.86674 0.0
H473 H 0.96821 0.4712 0.84023 0.0
H474 H 0.98668 0.56434 0.86902 0.0
H475 H 0.93416 0.54204 0.89488 0.0
C476 C 0.04762 0.57587 0.79222 0.0
C477 C 0.07034 0.56708 0.7989 0.0
C478 C 0.01805 0.5593 0.80812 0.0
C479 C 0.01073 0.53375 0.83116 0.0
C480 C 0.0325 0.52328 0.83549 0.0
C481 C 0.06224 0.53989 0.81935 0.0
C482 C 0.93118 0.47389 0.86809 0.0
C483 C 0.9207 0.49371 0.88227 0.0
C484 C 0.96121 0.48672 0.85289 0.0
C485 C 0.981 0.51947 0.85177 0.0
C486 C 0.97142 0.53902 0.86866 0.0
C487 C 0.9415 0.52626 0.88372 0.0
H488 H 0.52874 0.06894 0.95684 0.0
H489 H 0.44496 0.07375 0.98139 0.0
H490 H 0.50256 0.0144 0.9784 0.0
H491 H 0.41977 0.02071 0.00467 0.0
H492 H 0.36918 0.91728 0.01161 0.0
H493 H 0.3973 0.96911 0.98495 0.0
H494 H 0.48413 0.98313 0.03259 0.0
H495 H 0.45576 0.92959 0.05752 0.0
C496 C 0.50475 0.05827 0.9667 0.0
C497 C 0.48869 0.0753 0.96708 0.0
C498 C 0.48991 0.02726 0.97939 0.0
C499 C 0.45903 0.01314 0.99309 0.0
C500 C 0.44323 0.03046 0.99342 0.0
C501 C 0.45773 0.06099 0.98015 0.0
C502 C 0.39425 0.93148 0.01664 0.0
C503 C 0.4103 0.91982 0.03714 0.0
C504 C 0.4104 0.96126 1.00138 0.0
C505 C 0.44288 0.98053 0.00716 0.0
C506 C 0.45913 0.96875 0.02743 0.0
C507 C 0.44294 0.93836 0.04203 0.0
H508 H 0.39025 0.45382 0.11833 0.0
H509 H 0.46095 0.54789 0.1502 0.0
H510 H 0.42226 0.43326 0.14349 0.0
H511 H 0.49295 0.52701 0.17579 0.0
H512 H 0.54658 0.46736 0.18525 0.0
H513 H 0.52215 0.49624 0.15955 0.0
H514 H 0.43395 0.43052 0.2103 0.0
H515 H 0.458 0.40172 0.23552 0.0
C516 C 0.41285 0.47016 0.13018 0.0
C517 C 0.42291 0.50234 0.13286 0.0
C518 C 0.43104 0.45837 0.14479 0.0
C519 C 0.45957 0.47854 0.16235 0.0
C520 C 0.47089 0.51105 0.16259 0.0
C521 C 0.4526 0.52291 0.14793 0.0
C522 C 0.52223 0.4597 0.19165 0.0
C523 C 0.50395 0.43209 0.21179 0.0
C524 C 0.50829 0.47609 0.17685 0.0
C525 C 0.47605 0.46493 0.18218 0.0
C526 C 0.45866 0.43899 0.205 0.0
C527 C 0.47247 0.42268 0.21962 0.0
H528 H 0.15802 0.4832 0.27867 0.0
H529 H 0.22927 0.5051 0.36003 0.0
H530 H 0.19119 0.47846 0.23312 0.0
H531 H 0.26402 0.50341 0.31398 0.0
H532 H 0.31918 0.48694 0.2289 0.0
H533 H 0.28003 0.47889 0.27452 0.0
H534 H 0.23279 0.5072 0.19646 0.0
H535 H 0.27068 0.51252 0.15027 0.0
C536 C 0.18093 0.48702 0.28679 0.0
C537 C 0.19117 0.49488 0.32287 0.0
C538 C 0.20027 0.48478 0.26045 0.0
C539 C 0.23095 0.49131 0.26912 0.0
C540 C 0.24061 0.49787 0.30581 0.0
C541 C 0.22074 0.49913 0.33244 0.0
C542 C 0.30002 0.49088 0.22144 0.0
C543 C 0.298 0.50041 0.18604 0.0
C544 C 0.27768 0.48665 0.2478 0.0
C545 C 0.2531 0.49277 0.23988 0.0
C546 C 0.2508 0.50162 0.20394 0.0
C547 C 0.2727 0.50493 0.17725 0.0
H548 H 0.77074 0.25635 0.31616 0.0
H549 H 0.80677 0.32708 0.40031 0.0
H550 H 0.73609 0.21714 0.36055 0.0
H551 H 0.77176 0.28848 0.4442 0.0
H552 H 0.71859 0.20838 0.52317 0.0
H553 H 0.75885 0.24253 0.47928 0.0
H554 H 0.68958 0.20494 0.39343 0.0
H555 H 0.65006 0.17058 0.43672 0.0
C556 C 0.77137 0.26349 0.34411 0.0
C557 C 0.79142 0.29486 0.35459 0.0
C558 C 0.75139 0.24108 0.36959 0.0
C559 C 0.75093 0.24956 0.40612 0.0
C560 C 0.77167 0.28082 0.4166 0.0
C561 C 0.79162 0.3031 0.39123 0.0
C562 C 0.71218 0.20716 0.49483 0.0
C563 C 0.68109 0.18683 0.48354 0.0
C564 C 0.73517 0.22688 0.46965 0.0
C565 C 0.72755 0.22666 0.43264 0.0
C566 C 0.69661 0.20556 0.42142 0.0
C567 C 0.67378 0.18595 0.44646 0.0
H568 H 0.48492 0.72235 0.69273 0.0
H569 H 0.50348 0.67168 0.60982 0.0
H570 H 0.48807 0.76001 0.64763 0.0
H571 H 0.50969 0.71074 0.56503 0.0
H572 H 0.47847 0.76084 0.4843 0.0
H573 H 0.48387 0.72703 0.52862 0.0
H574 H 0.51307 0.80067 0.60935 0.0
H575 H 0.50455 0.83279 0.56558 0.0
C576 C 0.49052 0.71977 0.66496 0.0
C577 C 0.49354 0.69384 0.65477 0.0
C578 C 0.49263 0.74161 0.63884 0.0
C579 C 0.49887 0.73869 0.60195 0.0
C580 C 0.50381 0.71361 0.59255 0.0
C581 C 0.50068 0.69129 0.61842 0.0
C582 C 0.48652 0.76984 0.51137 0.0
C583 C 0.49104 0.79937 0.52152 0.0
C584 C 0.48978 0.75048 0.53706 0.0
C585 C 0.49854 0.76055 0.57336 0.0
C586 C 0.50521 0.79123 0.5824 0.0
C587 C 0.5009 0.81004 0.55707 0.0
H588 H 0.81133 0.46993 0.77774 0.0
H589 H 0.77227 0.50177 0.86172 0.0
H590 H 0.77723 0.47436 0.73306 0.0
H591 H 0.73871 0.50729 0.81665 0.0
H592 H 0.65486 0.47015 0.73861 0.0
H593 H 0.69336 0.47376 0.78234 0.0
H594 H 0.76445 0.50773 0.69836 0.0
H595 H 0.72508 0.50309 0.65385 0.0
C596 C 0.79571 0.4783 0.78662 0.0
C597 C 0.79433 0.48525 0.82341 0.0
C598 C 0.7763 0.48111 0.76083 0.0
C599 C 0.75503 0.4911 0.77107 0.0
C600 C 0.75439 0.49902 0.80777 0.0
C601 C 0.77374 0.49602 0.83365 0.0
C602 C 0.67874 0.47862 0.72934 0.0
C603 C 0.68684 0.48619 0.69261 0.0
C604 C 0.701 0.48097 0.75466 0.0
C605 C 0.73218 0.49111 0.74412 0.0
C606 C 0.74057 0.49947 0.70744 0.0
C607 C 0.71811 0.49704 0.68193 0.0
H608 H 0.25995 0.76965 0.02831 0.0
H609 H 0.33386 0.80382 0.94784 0.0
H610 H 0.22154 0.73768 0.9816 0.0
H611 H 0.29613 0.77163 0.90187 0.0
H612 H 0.21928 0.72677 0.81797 0.0
H613 H 0.25288 0.76403 0.86478 0.0
H614 H 0.20748 0.69173 0.9464 0.0
H615 H 0.17372 0.65531 0.9003 0.0
C616 C 0.26798 0.77032 1.00076 0.0
C617 C 0.29995 0.78922 0.99191 0.0
C618 C 0.24604 0.75197 0.97394 0.0
C619 C 0.25565 0.7521 0.93775 0.0
C620 C 0.28763 0.77131 0.9291 0.0
C621 C 0.30939 0.78958 0.95572 0.0
C622 C 0.21627 0.71911 0.84599 0.0
C623 C 0.19397 0.68805 0.8553 0.0
C624 C 0.23563 0.74033 0.87284 0.0
C625 C 0.23307 0.7309 0.90953 0.0
C626 C 0.20997 0.7001 0.91872 0.0
C627 C 0.19073 0.67905 0.89205 0.0
H628 H 0.52151 0.34353 0.10845 0.0
H629 H 0.49347 0.27276 0.19207 0.0
H630 H 0.51917 0.30642 0.06351 0.0
H631 H 0.49 0.23476 0.14638 0.0
H632 H 0.52933 0.19159 0.06512 0.0
H633 H 0.52458 0.22494 0.11038 0.0
H634 H 0.48719 0.26082 0.02881 0.0
H635 H 0.49305 0.22794 0.98299 0.0
C636 C 0.51436 0.3198 0.11721 0.0
C637 C 0.50786 0.31117 0.15398 0.0
C638 C 0.51275 0.29834 0.09121 0.0
C639 C 0.50441 0.26747 0.10109 0.0
C640 C 0.49695 0.25848 0.1378 0.0
C641 C 0.49869 0.28013 0.16399 0.0
C642 C 0.52001 0.20653 0.05676 0.0
C643 C 0.51174 0.20724 0.02034 0.0
C644 C 0.51698 0.22548 0.08292 0.0
C645 C 0.5054 0.24562 0.07349 0.0
C646 C 0.49659 0.24593 0.03707 0.0
C647 C 0.49983 0.22703 0.01075 0.0
loop_
_geom_bond_atom_site_label_1
_geom_bond_atom_site_label_2
_geom_bond_distance
_geom_bond_site_symmetry_2
_ccdc_geom_bond_type
Co0 O1 2.216 . S
Co0 O2 2.091 . S
Co0 O4 2.004 . S
Co0 O10 2.021 . S
Co0 O12 2.137 . S
Co0 O13 2.244 . S
O1 Co0 2.216 . S
O1 C8 1.247 . S
O2 Co0 2.091 . S
O2 C8 1.261 . S
C3 O12 1.247 . S
C3 O13 1.272 . S
O4 Co0 2.004 . S
O4 C9 1.259 . S
Co5 O6 2.061 . S
Co5 O11 2.052 . S
Co5 O13 2.135 . S
O6 Co5 2.061 . S
O6 C9 1.235 . S
C7 O10 1.238 . S
C7 O11 1.241 . S
C8 O1 1.247 . S
C8 O2 1.261 . S
C9 O4 1.259 . S
C9 O6 1.235 . S
O10 Co0 2.021 . S
O10 C7 1.238 . S
O11 Co5 2.052 . S
O11 C7 1.241 . S
O12 Co0 2.137 . S
O12 C3 1.247 . S
O13 Co0 2.244 . S
O13 C3 1.272 . S
O13 Co5 2.135 . S
Co14 O15 2.216 . S
Co14 O16 2.091 . S
Co14 O18 2.004 . S
Co14 O24 2.021 . S
Co14 O26 2.137 . S
Co14 O27 2.244 . S
O15 Co14 2.216 . S
O15 C22 1.247 . S
O16 Co14 2.091 . S
O16 C22 1.261 . S
C17 O26 1.247 . S
C17 O27 1.272 . S
O18 Co14 2.004 . S
O18 C23 1.259 . S
Co19 O20 2.061 . S
Co19 O25 2.052 . S
Co19 O27 2.135 . S
O20 Co19 2.061 . S
O20 C23 1.235 . S
C21 O24 1.238 . S
C21 O25 1.241 . S
C22 O15 1.247 . S
C22 O16 1.261 . S
C23 O18 1.259 . S
C23 O20 1.235 . S
O24 Co14 2.021 . S
O24 C21 1.238 . S
O25 Co19 2.052 . S
O25 C21 1.241 . S
O26 Co14 2.137 . S
O26 C17 1.247 . S
O27 Co14 2.244 . S
O27 C17 1.272 . S
O27 Co19 2.135 . S
Co28 O29 2.216 . S
Co28 O30 2.091 . S
Co28 O32 2.004 . S
Co28 O38 2.021 . S
Co28 O40 2.137 . S
Co28 O41 2.244 . S
O29 Co28 2.216 . S
O29 C36 1.247 . S
O30 Co28 2.091 . S
O30 C36 1.261 . S
C31 O40 1.247 . S
C31 O41 1.272 . S
O32 Co28 2.004 . S
O32 C37 1.259 . S
Co33 O34 2.061 . S
Co33 O39 2.052 . S
Co33 O41 2.135 . S
O34 Co33 2.061 . S
O34 C37 1.235 . S
C35 O38 1.238 . S
C35 O39 1.241 . S
C36 O29 1.247 . S
C36 O30 1.261 . S
C37 O32 1.259 . S
C37 O34 1.235 . S
O38 Co28 2.021 . S
O38 C35 1.238 . S
O39 Co33 2.052 . S
O39 C35 1.241 . S
O40 Co28 2.137 . S
O40 C31 1.247 . S
O41 Co28 2.244 . S
O41 C31 1.272 . S
O41 Co33 2.135 . S
Co42 O43 2.216 . S
Co42 O44 2.091 . S
Co42 O46 2.004 . S
Co42 O52 2.021 . S
Co42 O54 2.137 . S
Co42 O55 2.244 . S
O43 Co42 2.216 . S
O43 C50 1.247 . S
O44 Co42 2.091 . S
O44 C50 1.261 . S
C45 O54 1.247 . S
C45 O55 1.272 . S
O46 Co42 2.004 . S
O46 C51 1.259 . S
Co47 O48 2.061 . S
Co47 O53 2.052 . S
Co47 O55 2.135 . S
O48 Co47 2.061 . S
O48 C51 1.235 . S
C49 O52 1.238 . S
C49 O53 1.241 . S
C50 O43 1.247 . S
C50 O44 1.261 . S
C51 O46 1.259 . S
C51 O48 1.235 . S
O52 Co42 2.021 . S
O52 C49 1.238 . S
O53 Co47 2.052 . S
O53 C49 1.241 . S
O54 Co42 2.137 . S
O54 C45 1.247 . S
O55 Co42 2.244 . S
O55 C45 1.272 . S
O55 Co47 2.135 . S
Co56 O57 2.216 . S
Co56 O58 2.091 . S
Co56 O60 2.004 . S
Co56 O66 2.021 . S
Co56 O68 2.137 . S
Co56 O69 2.244 . S
O57 Co56 2.216 . S
O57 C64 1.247 . S
O58 Co56 2.091 . S
O58 C64 1.261 . S
C59 O68 1.247 . S
C59 O69 1.272 . S
O60 Co56 2.004 . S
O60 C65 1.259 . S
Co61 O62 2.061 . S
Co61 O67 2.052 . S
Co61 O69 2.135 . S
O62 Co61 2.061 . S
O62 C65 1.235 . S
C63 O66 1.238 . S
C63 O67 1.241 . S
C64 O57 1.247 . S
C64 O58 1.261 . S
C65 O60 1.259 . S
C65 O62 1.235 . S
O66 Co56 2.021 . S
O66 C63 1.238 . S
O67 Co61 2.052 . S
O67 C63 1.241 . S
O68 Co56 2.137 . S
O68 C59 1.247 . S
O69 Co56 2.244 . S
O69 C59 1.272 . S
O69 Co61 2.135 . S
Co70 O71 2.216 . S
Co70 O72 2.091 . S
Co70 O74 2.004 . S
Co70 O80 2.021 . S
Co70 O82 2.137 . S
Co70 O83 2.244 . S
O71 Co70 2.216 . S
O71 C78 1.247 . S
O72 Co70 2.091 . S
O72 C78 1.261 . S
C73 O82 1.247 . S
C73 O83 1.272 . S
O74 Co70 2.004 . S
O74 C79 1.259 . S
Co75 O76 2.061 . S
Co75 O81 2.052 . S
Co75 O83 2.135 . S
O76 Co75 2.061 . S
O76 C79 1.235 . S
C77 O80 1.238 . S
C77 O81 1.241 . S
C78 O71 1.247 . S
C78 O72 1.261 . S
C79 O74 1.259 . S
C79 O76 1.235 . S
O80 Co70 2.021 . S
O80 C77 1.238 . S
O81 Co75 2.052 . S
O81 C77 1.241 . S
O82 Co70 2.137 . S
O82 C73 1.247 . S
O83 Co70 2.244 . S
O83 C73 1.272 . S
O83 Co75 2.135 . S
Co84 O85 2.216 . S
Co84 O86 2.091 . S
Co84 O88 2.004 . S
Co84 O94 2.021 . S
Co84 O96 2.137 . S
Co84 O97 2.244 . S
O85 Co84 2.216 . S
O85 C92 1.247 . S
O86 Co84 2.091 . S
O86 C92 1.261 . S
C87 O96 1.247 . S
C87 O97 1.272 . S
O88 Co84 2.004 . S
O88 C93 1.259 . S
Co89 O90 2.061 . S
Co89 O95 2.052 . S
Co89 O97 2.135 . S
O90 Co89 2.061 . S
O90 C93 1.235 . S
C91 O94 1.238 . S
C91 O95 1.241 . S
C92 O85 1.247 . S
C92 O86 1.261 . S
C93 O88 1.259 . S
C93 O90 1.235 . S
O94 Co84 2.021 . S
O94 C91 1.238 . S
O95 Co89 2.052 . S
O95 C91 1.241 . S
O96 Co84 2.137 . S
O96 C87 1.247 . S
O97 Co84 2.244 . S
O97 C87 1.272 . S
O97 Co89 2.135 . S
Co98 O99 2.216 . S
Co98 O100 2.091 . S
Co98 O102 2.004 . S
Co98 O108 2.021 . S
Co98 O110 2.137 . S
Co98 O111 2.244 . S
O99 Co98 2.216 . S
O99 C106 1.247 . S
O100 Co98 2.091 . S
O100 C106 1.261 . S
C101 O110 1.247 . S
C101 O111 1.272 . S
O102 Co98 2.004 . S
O102 C107 1.259 . S
Co103 O104 2.061 . S
Co103 O109 2.052 . S
Co103 O111 2.135 . S
O104 Co103 2.061 . S
O104 C107 1.235 . S
C105 O108 1.238 . S
C105 O109 1.241 . S
C106 O99 1.247 . S
C106 O100 1.261 . S
C107 O102 1.259 . S
C107 O104 1.235 . S
O108 Co98 2.021 . S
O108 C105 1.238 . S
O109 Co103 2.052 . S
O109 C105 1.241 . S
O110 Co98 2.137 . S
O110 C101 1.247 . S
O111 Co98 2.244 . S
O111 C101 1.272 . S
O111 Co103 2.135 . S
Co112 O113 2.216 . S
Co112 O114 2.091 . S
Co112 O116 2.004 . S
Co112 O122 2.021 . S
Co112 O124 2.137 . S
Co112 O125 2.244 . S
O113 Co112 2.216 . S
O113 C120 1.247 . S
O114 Co112 2.091 . S
O114 C120 1.261 . S
C115 O124 1.247 . S
C115 O125 1.272 . S
O116 Co112 2.004 . S
O116 C121 1.259 . S
Co117 O118 2.061 . S
Co117 O123 2.052 . S
Co117 O125 2.135 . S
O118 Co117 2.061 . S
O118 C121 1.235 . S
C119 O122 1.238 . S
C119 O123 1.241 . S
C120 O113 1.247 . S
C120 O114 1.261 . S
C121 O116 1.259 . S
C121 O118 1.235 . S
O122 Co112 2.021 . S
O122 C119 1.238 . S
O123 Co117 2.052 . S
O123 C119 1.241 . S
O124 Co112 2.137 . S
O124 C115 1.247 . S
O125 Co112 2.244 . S
O125 C115 1.272 . S
O125 Co117 2.135 . S
Co126 O127 2.216 . S
Co126 O128 2.091 . S
Co126 O130 2.004 . S
Co126 O136 2.021 . S
Co126 O138 2.137 . S
Co126 O139 2.244 . S
O127 Co126 2.216 . S
O127 C134 1.247 . S
O128 Co126 2.091 . S
O128 C134 1.261 . S
C129 O138 1.247 . S
C129 O139 1.272 . S
O130 Co126 2.004 . S
O130 C135 1.259 . S
Co131 O132 2.061 . S
Co131 O137 2.052 . S
Co131 O139 2.135 . S
O132 Co131 2.061 . S
O132 C135 1.235 . S
C133 O136 1.238 . S
C133 O137 1.241 . S
C134 O127 1.247 . S
C134 O128 1.261 . S
C135 O130 1.259 . S
C135 O132 1.235 . S
O136 Co126 2.021 . S
O136 C133 1.238 . S
O137 Co131 2.052 . S
O137 C133 1.241 . S
O138 Co126 2.137 . S
O138 C129 1.247 . S
O139 Co126 2.244 . S
O139 C129 1.272 . S
O139 Co131 2.135 . S
Co140 O141 2.216 . S
Co140 O142 2.091 . S
Co140 O144 2.004 . S
Co140 O150 2.021 . S
Co140 O152 2.137 . S
Co140 O153 2.244 . S
O141 Co140 2.216 . S
O141 C148 1.247 . S
O142 Co140 2.091 . S
O142 C148 1.261 . S
C143 O152 1.247 . S
C143 O153 1.272 . S
O144 Co140 2.004 . S
O144 C149 1.259 . S
Co145 O146 2.061 . S
Co145 O151 2.052 . S
Co145 O153 2.135 . S
O146 Co145 2.061 . S
O146 C149 1.235 . S
C147 O150 1.238 . S
C147 O151 1.241 . S
C148 O141 1.247 . S
C148 O142 1.261 . S
C149 O144 1.259 . S
C149 O146 1.235 . S
O150 Co140 2.021 . S
O150 C147 1.238 . S
O151 Co145 2.052 . S
O151 C147 1.241 . S
O152 Co140 2.137 . S
O152 C143 1.247 . S
O153 Co140 2.244 . S
O153 C143 1.272 . S
O153 Co145 2.135 . S
Co154 O155 2.216 . S
Co154 O156 2.091 . S
Co154 O158 2.004 . S
Co154 O164 2.021 . S
Co154 O166 2.137 . S
Co154 O167 2.244 . S
O155 Co154 2.216 . S
O155 C162 1.247 . S
O156 Co154 2.091 . S
O156 C162 1.261 . S
C157 O166 1.247 . S
C157 O167 1.272 . S
O158 Co154 2.004 . S
O158 C163 1.259 . S
Co159 O160 2.061 . S
Co159 O165 2.052 . S
Co159 O167 2.135 . S
O160 Co159 2.061 . S
O160 C163 1.235 . S
C161 O164 1.238 . S
C161 O165 1.241 . S
C162 O155 1.247 . S
C162 O156 1.261 . S
C163 O158 1.259 . S
C163 O160 1.235 . S
O164 Co154 2.021 . S
O164 C161 1.238 . S
O165 Co159 2.052 . S
O165 C161 1.241 . S
O166 Co154 2.137 . S
O166 C157 1.247 . S
O167 Co154 2.244 . S
O167 C157 1.272 . S
O167 Co159 2.135 . S
H168 C176 0.950 . S
H169 C181 0.950 . S
H170 C178 0.950 . S
H171 C180 0.950 . S
H172 C182 0.950 . S
H173 C184 0.950 . S
H174 C186 0.950 . S
H175 C187 0.950 . S
C176 H168 0.950 . S
C176 C177 1.386 . S
C176 C178 1.391 . S
C177 C176 1.386 . S
C177 C181 1.393 . S
C178 H170 0.950 . S
C178 C176 1.391 . S
C178 C179 1.400 . S
C179 C178 1.400 . S
C179 C180 1.398 . S
C179 C185 1.491 . S
C180 H171 0.950 . S
C180 C179 1.398 . S
C180 C181 1.391 . S
C181 H169 0.950 . S
C181 C177 1.393 . S
C181 C180 1.391 . S
C182 H172 0.950 . S
C182 C183 1.386 . S
C182 C184 1.391 . S
C183 C182 1.386 . S
C183 C187 1.393 . S
C184 H173 0.950 . S
C184 C182 1.391 . S
C184 C185 1.400 . S
C185 C179 1.491 . S
C185 C184 1.400 . S
C185 C186 1.398 . S
C186 H174 0.950 . S
C186 C185 1.398 . S
C186 C187 1.391 . S
C187 H175 0.950 . S
C187 C183 1.393 . S
C187 C186 1.391 . S
H188 C196 0.950 . S
H189 C201 0.950 . S
H190 C198 0.950 . S
H191 C200 0.950 . S
H192 C202 0.950 . S
H193 C204 0.950 . S
H194 C206 0.950 . S
H195 C207 0.950 . S
C196 H188 0.950 . S
C196 C197 1.386 . S
C196 C198 1.391 . S
C197 C196 1.386 . S
C197 C201 1.393 . S
C198 H190 0.950 . S
C198 C196 1.391 . S
C198 C199 1.400 . S
C199 C198 1.400 . S
C199 C200 1.398 . S
C199 C205 1.491 . S
C200 H191 0.950 . S
C200 C199 1.398 . S
C200 C201 1.391 . S
C201 H189 0.950 . S
C201 C197 1.393 . S
C201 C200 1.391 . S
C202 H192 0.950 . S
C202 C203 1.386 . S
C202 C204 1.391 . S
C203 C202 1.386 . S
C203 C207 1.393 . S
C204 H193 0.950 . S
C204 C202 1.391 . S
C204 C205 1.400 . S
C205 C199 1.491 . S
C205 C204 1.400 . S
C205 C206 1.398 . S
C206 H194 0.950 . S
C206 C205 1.398 . S
C206 C207 1.391 . S
C207 H195 0.950 . S
C207 C203 1.393 . S
C207 C206 1.391 . S
H208 C216 0.950 . S
H209 C221 0.950 . S
H210 C218 0.950 . S
H211 C220 0.950 . S
H212 C222 0.950 . S
H213 C224 0.950 . S
H214 C226 0.950 . S
H215 C227 0.950 . S
C216 H208 0.950 . S
C216 C217 1.386 . S
C216 C218 1.391 . S
C217 C216 1.386 . S
C217 C221 1.393 . S
C218 H210 0.950 . S
C218 C216 1.391 . S
C218 C219 1.400 . S
C219 C218 1.400 . S
C219 C220 1.398 . S
C219 C225 1.491 . S
C220 H211 0.950 . S
C220 C219 1.398 . S
C220 C221 1.391 . S
C221 H209 0.950 . S
C221 C217 1.393 . S
C221 C220 1.391 . S
C222 H212 0.950 . S
C222 C223 1.386 . S
C222 C224 1.391 . S
C223 C222 1.386 . S
C223 C227 1.393 . S
C224 H213 0.950 . S
C224 C222 1.391 . S
C224 C225 1.400 . S
C225 C219 1.491 . S
C225 C224 1.400 . S
C225 C226 1.398 . S
C226 H214 0.950 . S
C226 C225 1.398 . S
C226 C227 1.391 . S
C227 H215 0.950 . S
C227 C223 1.393 . S
C227 C226 1.391 . S
H228 C236 0.950 . S
H229 C241 0.950 . S
H230 C238 0.950 . S
H231 C240 0.950 . S
H232 C242 0.950 . S
H233 C244 0.950 . S
H234 C246 0.950 . S
H235 C247 0.950 . S
C236 H228 0.950 . S
C236 C237 1.386 . S
C236 C238 1.391 . S
C237 C236 1.386 . S
C237 C241 1.393 . S
C238 H230 0.950 . S
C238 C236 1.391 . S
C238 C239 1.400 . S
C239 C238 1.400 . S
C239 C240 1.398 . S
C239 C245 1.491 . S
C240 H231 0.950 . S
C240 C239 1.398 . S
C240 C241 1.391 . S
C241 H229 0.950 . S
C241 C237 1.393 . S
C241 C240 1.391 . S
C242 H232 0.950 . S
C242 C243 1.386 . S
C242 C244 1.391 . S
C243 C242 1.386 . S
C243 C247 1.393 . S
C244 H233 0.950 . S
C244 C242 1.391 . S
C244 C245 1.400 . S
C245 C239 1.491 . S
C245 C244 1.400 . S
C245 C246 1.398 . S
C246 H234 0.950 . S
C246 C245 1.398 . S
C246 C247 1.391 . S
C247 H235 0.950 . S
C247 C243 1.393 . S
C247 C246 1.391 . S
H248 C256 0.950 . S
H249 C261 0.950 . S
H250 C258 0.950 . S
H251 C260 0.950 . S
H252 C262 0.950 . S
H253 C264 0.950 . S
H254 C266 0.950 . S
H255 C267 0.950 . S
C256 H248 0.950 . S
C256 C257 1.386 . S
C256 C258 1.391 . S
C257 C256 1.386 . S
C257 C261 1.393 . S
C258 H250 0.950 . S
C258 C256 1.391 . S
C258 C259 1.400 . S
C259 C258 1.400 . S
C259 C260 1.398 . S
C259 C265 1.491 . S
C260 H251 0.950 . S
C260 C259 1.398 . S
C260 C261 1.391 . S
C261 H249 0.950 . S
C261 C257 1.393 . S
C261 C260 1.391 . S
C262 H252 0.950 . S
C262 C263 1.386 . S
C262 C264 1.391 . S
C263 C262 1.386 . S
C263 C267 1.393 . S
C264 H253 0.950 . S
C264 C262 1.391 . S
C264 C265 1.400 . S
C265 C259 1.491 . S
C265 C264 1.400 . S
C265 C266 1.398 . S
C266 H254 0.950 . S
C266 C265 1.398 . S
C266 C267 1.391 . S
C267 H255 0.950 . S
C267 C263 1.393 . S
C267 C266 1.391 . S
H268 C276 0.950 . S
H269 C281 0.950 . S
H270 C278 0.950 . S
H271 C280 0.950 . S
H272 C282 0.950 . S
H273 C284 0.950 . S
H274 C286 0.950 . S
H275 C287 0.950 . S
C276 H268 0.950 . S
C276 C277 1.386 . S
C276 C278 1.391 . S
C277 C276 1.386 . S
C277 C281 1.393 . S
C278 H270 0.950 . S
C278 C276 1.391 . S
C278 C279 1.400 . S
C279 C278 1.400 . S
C279 C280 1.398 . S
C279 C285 1.491 . S
C280 H271 0.950 . S
C280 C279 1.398 . S
C280 C281 1.391 . S
C281 H269 0.950 . S
C281 C277 1.393 . S
C281 C280 1.391 . S
C282 H272 0.950 . S
C282 C283 1.386 . S
C282 C284 1.391 . S
C283 C282 1.386 . S
C283 C287 1.393 . S
C284 H273 0.950 . S
C284 C282 1.391 . S
C284 C285 1.400 . S
C285 C279 1.491 . S
C285 C284 1.400 . S
C285 C286 1.398 . S
C286 H274 0.950 . S
C286 C285 1.398 . S
C286 C287 1.391 . S
C287 H275 0.950 . S
C287 C283 1.393 . S
C287 C286 1.391 . S
H288 C296 0.950 . S
H289 C301 0.950 . S
H290 C298 0.950 . S
H291 C300 0.950 . S
H292 C302 0.950 . S
H293 C304 0.950 . S
H294 C306 0.950 . S
H295 C307 0.950 . S
C296 H288 0.950 . S
C296 C297 1.386 . S
C296 C298 1.391 . S
C297 C296 1.386 . S
C297 C301 1.393 . S
C298 H290 0.950 . S
C298 C296 1.391 . S
C298 C299 1.400 . S
C299 C298 1.400 . S
C299 C300 1.398 . S
C299 C305 1.491 . S
C300 H291 0.950 . S
C300 C299 1.398 . S
C300 C301 1.391 . S
C301 H289 0.950 . S
C301 C297 1.393 . S
C301 C300 1.391 . S
C302 H292 0.950 . S
C302 C303 1.386 . S
C302 C304 1.391 . S
C303 C302 1.386 . S
C303 C307 1.393 . S
C304 H293 0.950 . S
C304 C302 1.391 . S
C304 C305 1.400 . S
C305 C299 1.491 . S
C305 C304 1.400 . S
C305 C306 1.398 . S
C306 H294 0.950 . S
C306 C305 1.398 . S
C306 C307 1.391 . S
C307 H295 0.950 . S
C307 C303 1.393 . S
C307 C306 1.391 . S
H308 C316 0.950 . S
H309 C321 0.950 . S
H310 C318 0.950 . S
H311 C320 0.950 . S
H312 C322 0.950 . S
H313 C324 0.950 . S
H314 C326 0.950 . S
H315 C327 0.950 . S
C316 H308 0.950 . S
C316 C317 1.386 . S
C316 C318 1.391 . S
C317 C316 1.386 . S
C317 C321 1.393 . S
C318 H310 0.950 . S
C318 C316 1.391 . S
C318 C319 1.400 . S
C319 C318 1.400 . S
C319 C320 1.398 . S
C319 C325 1.491 . S
C320 H311 0.950 . S
C320 C319 1.398 . S
C320 C321 1.391 . S
C321 H309 0.950 . S
C321 C317 1.393 . S
C321 C320 1.391 . S
C322 H312 0.950 . S
C322 C323 1.386 . S
C322 C324 1.391 . S
C323 C322 1.386 . S
C323 C327 1.393 . S
C324 H313 0.950 . S
C324 C322 1.391 . S
C324 C325 1.400 . S
C325 C319 1.491 . S
C325 C324 1.400 . S
C325 C326 1.398 . S
C326 H314 0.950 . S
C326 C325 1.398 . S
C326 C327 1.391 . S
C327 H315 0.950 . S
C327 C323 1.393 . S
C327 C326 1.391 . S
H328 C336 0.950 1_554 S
H329 C341 0.950 . S
H330 C338 0.950 . S
H331 C340 0.950 . S
H332 C342 0.950 . S
H333 C344 0.950 . S
H334 C346 0.950 . S
H335 C347 0.950 . S
C336 H328 0.950 1_556 S
C336 C337 1.386 . S
C336 C338 1.391 . S
C337 C336 1.386 . S
C337 C341 1.393 . S
C338 H330 0.950 . S
C338 C336 1.391 . S
C338 C339 1.400 . S
C339 C338 1.400 . S
C339 C340 1.398 . S
C339 C345 1.491 . S
C340 H331 0.950 . S
C340 C339 1.398 . S
C340 C341 1.391 . S
C341 H329 0.950 . S
C341 C337 1.393 . S
C341 C340 1.391 . S
C342 H332 0.950 . S
C342 C343 1.386 . S
C342 C344 1.391 . S
C343 C342 1.386 . S
C343 C347 1.393 . S
C344 H333 0.950 . S
C344 C342 1.391 . S
C344 C345 1.400 . S
C345 C339 1.491 . S
C345 C344 1.400 . S
C345 C346 1.398 . S
C346 H334 0.950 . S
C346 C345 1.398 . S
C346 C347 1.391 . S
C347 H335 0.950 . S
C347 C343 1.393 . S
C347 C346 1.391 . S
H348 C356 0.950 . S
H349 C361 0.950 . S
H350 C358 0.950 . S
H351 C360 0.950 . S
H352 C362 0.950 . S
H353 C364 0.950 . S
H354 C366 0.950 . S
H355 C367 0.950 . S
C356 H348 0.950 . S
C356 C357 1.386 . S
C356 C358 1.391 . S
C357 C356 1.386 . S
C357 C361 1.393 . S
C358 H350 0.950 . S
C358 C356 1.391 . S
C358 C359 1.400 . S
C359 C358 1.400 . S
C359 C360 1.398 . S
C359 C365 1.491 . S
C360 H351 0.950 . S
C360 C359 1.398 . S
C360 C361 1.391 . S
C361 H349 0.950 . S
C361 C357 1.393 . S
C361 C360 1.391 . S
C362 H352 0.950 . S
C362 C363 1.386 . S
C362 C364 1.391 . S
C363 C362 1.386 . S
C363 C367 1.393 . S
C364 H353 0.950 . S
C364 C362 1.391 . S
C364 C365 1.400 . S
C365 C359 1.491 . S
C365 C364 1.400 . S
C365 C366 1.398 . S
C366 H354 0.950 . S
C366 C365 1.398 . S
C366 C367 1.391 . S
C367 H355 0.950 . S
C367 C363 1.393 . S
C367 C366 1.391 . S
H368 C376 0.950 . S
H369 C381 0.950 . S
H370 C378 0.950 . S
H371 C380 0.950 . S
H372 C382 0.950 . S
H373 C384 0.950 . S
H374 C386 0.950 . S
H375 C387 0.950 . S
C376 H368 0.950 . S
C376 C377 1.386 . S
C376 C378 1.391 . S
C377 C376 1.386 . S
C377 C381 1.393 . S
C378 H370 0.950 . S
C378 C376 1.391 . S
C378 C379 1.400 . S
C379 C378 1.400 . S
C379 C380 1.398 . S
C379 C385 1.491 . S
C380 H371 0.950 . S
C380 C379 1.398 . S
C380 C381 1.391 . S
C381 H369 0.950 . S
C381 C377 1.393 . S
C381 C380 1.391 . S
C382 H372 0.950 . S
C382 C383 1.386 . S
C382 C384 1.391 . S
C383 C382 1.386 . S
C383 C387 1.393 . S
C384 H373 0.950 . S
C384 C382 1.391 . S
C384 C385 1.400 . S
C385 C379 1.491 . S
C385 C384 1.400 . S
C385 C386 1.398 . S
C386 H374 0.950 . S
C386 C385 1.398 . S
C386 C387 1.391 . S
C387 H375 0.950 . S
C387 C383 1.393 . S
C387 C386 1.391 . S
H388 C396 0.950 . S
H389 C401 0.950 . S
H390 C398 0.950 . S
H391 C400 0.950 . S
H392 C402 0.950 . S
H393 C404 0.950 . S
H394 C406 0.950 . S
H395 C407 0.950 . S
C396 H388 0.950 . S
C396 C397 1.386 . S
C396 C398 1.391 . S
C397 C396 1.386 . S
C397 C401 1.393 . S
C398 H390 0.950 . S
C398 C396 1.391 . S
C398 C399 1.400 . S
C399 C398 1.400 . S
C399 C400 1.398 . S
C399 C405 1.491 . S
C400 H391 0.950 . S
C400 C399 1.398 . S
C400 C401 1.391 . S
C401 H389 0.950 . S
C401 C397 1.393 . S
C401 C400 1.391 . S
C402 H392 0.950 . S
C402 C403 1.386 . S
C402 C404 1.391 . S
C403 C402 1.386 . S
C403 C407 1.393 . S
C404 H393 0.950 . S
C404 C402 1.391 . S
C404 C405 1.400 . S
C405 C399 1.491 . S
C405 C404 1.400 . S
C405 C406 1.398 . S
C406 H394 0.950 . S
C406 C405 1.398 . S
C406 C407 1.391 . S
C407 H395 0.950 . S
C407 C403 1.393 . S
C407 C406 1.391 . S
H408 C416 0.950 . S
H409 C421 0.950 . S
H410 C418 0.950 . S
H411 C420 0.950 . S
H412 C422 0.950 . S
H413 C424 0.950 . S
H414 C426 0.950 . S
H415 C427 0.950 . S
C416 H408 0.950 . S
C416 C417 1.386 . S
C416 C418 1.391 . S
C417 C416 1.386 . S
C417 C421 1.393 . S
C418 H410 0.950 . S
C418 C416 1.391 . S
C418 C419 1.400 . S
C419 C418 1.400 . S
C419 C420 1.398 . S
C419 C425 1.491 1_655 S
C420 H411 0.950 . S
C420 C419 1.398 . S
C420 C421 1.391 . S
C421 H409 0.950 . S
C421 C417 1.393 . S
C421 C420 1.391 . S
C422 H412 0.950 . S
C422 C423 1.386 . S
C422 C424 1.391 . S
C423 C422 1.386 . S
C423 C427 1.393 . S
C424 H413 0.950 . S
C424 C422 1.391 . S
C424 C425 1.400 . S
C425 C419 1.491 1_455 S
C425 C424 1.400 . S
C425 C426 1.398 . S
C426 H414 0.950 . S
C426 C425 1.398 . S
C426 C427 1.391 . S
C427 H415 0.950 . S
C427 C423 1.393 . S
C427 C426 1.391 . S
H428 C436 0.950 . S
H429 C441 0.950 . S
H430 C438 0.950 . S
H431 C440 0.950 . S
H432 C442 0.950 . S
H433 C444 0.950 . S
H434 C446 0.950 . S
H435 C447 0.950 . S
C436 H428 0.950 . S
C436 C437 1.386 . S
C436 C438 1.391 . S
C437 C436 1.386 . S
C437 C441 1.393 . S
C438 H430 0.950 . S
C438 C436 1.391 . S
C438 C439 1.400 . S
C439 C438 1.400 . S
C439 C440 1.398 . S
C439 C445 1.491 1_565 S
C440 H431 0.950 . S
C440 C439 1.398 . S
C440 C441 1.391 . S
C441 H429 0.950 . S
C441 C437 1.393 . S
C441 C440 1.391 . S
C442 H432 0.950 . S
C442 C443 1.386 . S
C442 C444 1.391 . S
C443 C442 1.386 . S
C443 C447 1.393 . S
C444 H433 0.950 . S
C444 C442 1.391 . S
C444 C445 1.400 . S
C445 C439 1.491 1_545 S
C445 C444 1.400 . S
C445 C446 1.398 . S
C446 H434 0.950 . S
C446 C445 1.398 . S
C446 C447 1.391 . S
C447 H435 0.950 . S
C447 C443 1.393 . S
C447 C446 1.391 . S
H448 C456 0.950 . S
H449 C461 0.950 . S
H450 C458 0.950 . S
H451 C460 0.950 . S
H452 C462 0.950 . S
H453 C464 0.950 . S
H454 C466 0.950 . S
H455 C467 0.950 . S
C456 H448 0.950 . S
C456 C457 1.386 . S
C456 C458 1.391 . S
C457 C456 1.386 . S
C457 C461 1.393 . S
C458 H450 0.950 . S
C458 C456 1.391 . S
C458 C459 1.400 . S
C459 C458 1.400 . S
C459 C460 1.398 . S
C459 C465 1.491 . S
C460 H451 0.950 . S
C460 C459 1.398 . S
C460 C461 1.391 . S
C461 H449 0.950 . S
C461 C457 1.393 . S
C461 C460 1.391 . S
C462 H452 0.950 . S
C462 C463 1.386 . S
C462 C464 1.391 . S
C463 C462 1.386 . S
C463 C467 1.393 . S
C464 H453 0.950 . S
C464 C462 1.391 . S
C464 C465 1.400 . S
C465 C459 1.491 . S
C465 C464 1.400 . S
C465 C466 1.398 . S
C466 H454 0.950 . S
C466 C465 1.398 . S
C466 C467 1.391 . S
C467 H455 0.950 . S
C467 C463 1.393 . S
C467 C466 1.391 . S
H468 C476 0.950 . S
H469 C481 0.950 . S
H470 C478 0.950 . S
H471 C480 0.950 . S
H472 C482 0.950 . S
H473 C484 0.950 . S
H474 C486 0.950 . S
H475 C487 0.950 . S
C476 H468 0.950 . S
C476 C477 1.386 . S
C476 C478 1.391 . S
C477 C476 1.386 . S
C477 C481 1.393 . S
C478 H470 0.950 . S
C478 C476 1.391 . S
C478 C479 1.400 . S
C479 C478 1.400 . S
C479 C480 1.398 . S
C479 C485 1.491 1_455 S
C480 H471 0.950 . S
C480 C479 1.398 . S
C480 C481 1.391 . S
C481 H469 0.950 . S
C481 C477 1.393 . S
C481 C480 1.391 . S
C482 H472 0.950 . S
C482 C483 1.386 . S
C482 C484 1.391 . S
C483 C482 1.386 . S
C483 C487 1.393 . S
C484 H473 0.950 . S
C484 C482 1.391 . S
C484 C485 1.400 . S
C485 C479 1.491 1_655 S
C485 C484 1.400 . S
C485 C486 1.398 . S
C486 H474 0.950 . S
C486 C485 1.398 . S
C486 C487 1.391 . S
C487 H475 0.950 . S
C487 C483 1.393 . S
C487 C486 1.391 . S
H488 C496 0.950 . S
H489 C501 0.950 . S
H490 C498 0.950 . S
H491 C500 0.950 1_554 S
H492 C502 0.950 . S
H493 C504 0.950 . S
H494 C506 0.950 1_556 S
H495 C507 0.950 . S
C496 H488 0.950 . S
C496 C497 1.386 . S
C496 C498 1.391 . S
C497 C496 1.386 . S
C497 C501 1.393 . S
C498 H490 0.950 . S
C498 C496 1.391 . S
C498 C499 1.400 . S
C499 C498 1.400 . S
C499 C500 1.398 . S
C499 C505 1.491 1_546 S
C500 H491 0.950 1_556 S
C500 C499 1.398 . S
C500 C501 1.391 . S
C501 H489 0.950 . S
C501 C497 1.393 . S
C501 C500 1.391 . S
C502 H492 0.950 . S
C502 C503 1.386 . S
C502 C504 1.391 . S
C503 C502 1.386 . S
C503 C507 1.393 . S
C504 H493 0.950 . S
C504 C502 1.391 . S
C504 C505 1.400 . S
C505 C499 1.491 1_564 S
C505 C504 1.400 . S
C505 C506 1.398 . S
C506 H494 0.950 1_554 S
C506 C505 1.398 . S
C506 C507 1.391 . S
C507 H495 0.950 . S
C507 C503 1.393 . S
C507 C506 1.391 . S
H508 C516 0.950 . S
H509 C521 0.950 . S
H510 C518 0.950 . S
H511 C520 0.950 . S
H512 C522 0.950 . S
H513 C524 0.950 . S
H514 C526 0.950 . S
H515 C527 0.950 . S
C516 H508 0.950 . S
C516 C517 1.386 . S
C516 C518 1.391 . S
C517 C516 1.386 . S
C517 C521 1.393 . S
C518 H510 0.950 . S
C518 C516 1.391 . S
C518 C519 1.400 . S
C519 C518 1.400 . S
C519 C520 1.398 . S
C519 C525 1.491 . S
C520 H511 0.950 . S
C520 C519 1.398 . S
C520 C521 1.391 . S
C521 H509 0.950 . S
C521 C517 1.393 . S
C521 C520 1.391 . S
C522 H512 0.950 . S
C522 C523 1.386 . S
C522 C524 1.391 . S
C523 C522 1.386 . S
C523 C527 1.393 . S
C524 H513 0.950 . S
C524 C522 1.391 . S
C524 C525 1.400 . S
C525 C519 1.491 . S
C525 C524 1.400 . S
C525 C526 1.398 . S
C526 H514 0.950 . S
C526 C525 1.398 . S
C526 C527 1.391 . S
C527 H515 0.950 . S
C527 C523 1.393 . S
C527 C526 1.391 . S
H528 C536 0.950 . S
H529 C541 0.950 . S
H530 C538 0.950 . S
H531 C540 0.950 . S
H532 C542 0.950 . S
H533 C544 0.950 . S
H534 C546 0.950 . S
H535 C547 0.950 . S
C536 H528 0.950 . S
C536 C537 1.386 . S
C536 C538 1.391 . S
C537 C536 1.386 . S
C537 C541 1.393 . S
C538 H530 0.950 . S
C538 C536 1.391 . S
C538 C539 1.400 . S
C539 C538 1.400 . S
C539 C540 1.398 . S
C539 C545 1.491 . S
C540 H531 0.950 . S
C540 C539 1.398 . S
C540 C541 1.391 . S
C541 H529 0.950 . S
C541 C537 1.393 . S
C541 C540 1.391 . S
C542 H532 0.950 . S
C542 C543 1.386 . S
C542 C544 1.391 . S
C543 C542 1.386 . S
C543 C547 1.393 . S
C544 H533 0.950 . S
C544 C542 1.391 . S
C544 C545 1.400 . S
C545 C539 1.491 . S
C545 C544 1.400 . S
C545 C546 1.398 . S
C546 H534 0.950 . S
C546 C545 1.398 . S
C546 C547 1.391 . S
C547 H535 0.950 . S
C547 C543 1.393 . S
C547 C546 1.391 . S
H548 C556 0.950 . S
H549 C561 0.950 . S
H550 C558 0.950 . S
H551 C560 0.950 . S
H552 C562 0.950 . S
H553 C564 0.950 . S
H554 C566 0.950 . S
H555 C567 0.950 . S
C556 H548 0.950 . S
C556 C557 1.386 . S
C556 C558 1.391 . S
C557 C556 1.386 . S
C557 C561 1.393 . S
C558 H550 0.950 . S
C558 C556 1.391 . S
C558 C559 1.400 . S
C559 C558 1.400 . S
C559 C560 1.398 . S
C559 C565 1.491 . S
C560 H551 0.950 . S
C560 C559 1.398 . S
C560 C561 1.391 . S
C561 H549 0.950 . S
C561 C557 1.393 . S
C561 C560 1.391 . S
C562 H552 0.950 . S
C562 C563 1.386 . S
C562 C564 1.391 . S
C563 C562 1.386 . S
C563 C567 1.393 . S
C564 H553 0.950 . S
C564 C562 1.391 . S
C564 C565 1.400 . S
C565 C559 1.491 . S
C565 C564 1.400 . S
C565 C566 1.398 . S
C566 H554 0.950 . S
C566 C565 1.398 . S
C566 C567 1.391 . S
C567 H555 0.950 . S
C567 C563 1.393 . S
C567 C566 1.391 . S
H568 C576 0.950 . S
H569 C581 0.950 . S
H570 C578 0.950 . S
H571 C580 0.950 . S
H572 C582 0.950 . S
H573 C584 0.950 . S
H574 C586 0.950 . S
H575 C587 0.950 . S
C576 H568 0.950 . S
C576 C577 1.386 . S
C576 C578 1.391 . S
C577 C576 1.386 . S
C577 C581 1.393 . S
C578 H570 0.950 . S
C578 C576 1.391 . S
C578 C579 1.400 . S
C579 C578 1.400 . S
C579 C580 1.398 . S
C579 C585 1.491 . S
C580 H571 0.950 . S
C580 C579 1.398 . S
C580 C581 1.391 . S
C581 H569 0.950 . S
C581 C577 1.393 . S
C581 C580 1.391 . S
C582 H572 0.950 . S
C582 C583 1.386 . S
C582 C584 1.391 . S
C583 C582 1.386 . S
C583 C587 1.393 . S
C584 H573 0.950 . S
C584 C582 1.391 . S
C584 C585 1.400 . S
C585 C579 1.491 . S
C585 C584 1.400 . S
C585 C586 1.398 . S
C586 H574 0.950 . S
C586 C585 1.398 . S
C586 C587 1.391 . S
C587 H575 0.950 . S
C587 C583 1.393 . S
C587 C586 1.391 . S
H588 C596 0.950 . S
H589 C601 0.950 . S
H590 C598 0.950 . S
H591 C600 0.950 . S
H592 C602 0.950 . S
H593 C604 0.950 . S
H594 C606 0.950 . S
H595 C607 0.950 . S
C596 H588 0.950 . S
C596 C597 1.386 . S
C596 C598 1.391 . S
C597 C596 1.386 . S
C597 C601 1.393 . S
C598 H590 0.950 . S
C598 C596 1.391 . S
C598 C599 1.400 . S
C599 C598 1.400 . S
C599 C600 1.398 . S
C599 C605 1.491 . S
C600 H591 0.950 . S
C600 C599 1.398 . S
C600 C601 1.391 . S
C601 H589 0.950 . S
C601 C597 1.393 . S
C601 C600 1.391 . S
C602 H592 0.950 . S
C602 C603 1.386 . S
C602 C604 1.391 . S
C603 C602 1.386 . S
C603 C607 1.393 . S
C604 H593 0.950 . S
C604 C602 1.391 . S
C604 C605 1.400 . S
C605 C599 1.491 . S
C605 C604 1.400 . S
C605 C606 1.398 . S
C606 H594 0.950 . S
C606 C605 1.398 . S
C606 C607 1.391 . S
C607 H595 0.950 . S
C607 C603 1.393 . S
C607 C606 1.391 . S
H608 C616 0.950 1_554 S
H609 C621 0.950 . S
H610 C618 0.950 . S
H611 C620 0.950 . S
H612 C622 0.950 . S
H613 C624 0.950 . S
H614 C626 0.950 . S
H615 C627 0.950 . S
C616 H608 0.950 1_556 S
C616 C617 1.386 . S
C616 C618 1.391 . S
C617 C616 1.386 . S
C617 C621 1.393 . S
C618 H610 0.950 . S
C618 C616 1.391 . S
C618 C619 1.400 . S
C619 C618 1.400 . S
C619 C620 1.398 . S
C619 C625 1.491 . S
C620 H611 0.950 . S
C620 C619 1.398 . S
C620 C621 1.391 . S
C621 H609 0.950 . S
C621 C617 1.393 . S
C621 C620 1.391 . S
C622 H612 0.950 . S
C622 C623 1.386 . S
C622 C624 1.391 . S
C623 C622 1.386 . S
C623 C627 1.393 . S
C624 H613 0.950 . S
C624 C622 1.391 . S
C624 C625 1.400 . S
C625 C619 1.491 . S
C625 C624 1.400 . S
C625 C626 1.398 . S
C626 H614 0.950 . S
C626 C625 1.398 . S
C626 C627 1.391 . S
C627 H615 0.950 . S
C627 C623 1.393 . S
C627 C626 1.391 . S
H628 C636 0.950 . S
H629 C641 0.950 . S
H630 C638 0.950 . S
H631 C640 0.950 . S
H632 C642 0.950 . S
H633 C644 0.950 . S
H634 C646 0.950 . S
H635 C647 0.950 1_556 S
C636 H628 0.950 . S
C636 C637 1.386 . S
C636 C638 1.391 . S
C637 C636 1.386 . S
C637 C641 1.393 . S
C638 H630 0.950 . S
C638 C636 1.391 . S
C638 C639 1.400 . S
C639 C638 1.400 . S
C639 C640 1.398 . S
C639 C645 1.491 . S
C640 H631 0.950 . S
C640 C639 1.398 . S
C640 C641 1.391 . S
C641 H629 0.950 . S
C641 C637 1.393 . S
C641 C640 1.391 . S
C642 H632 0.950 . S
C642 C643 1.386 . S
C642 C644 1.391 . S
C643 C642 1.386 . S
C643 C647 1.393 . S
C644 H633 0.950 . S
C644 C642 1.391 . S
C644 C645 1.400 . S
C645 C639 1.491 . S
C645 C644 1.400 . S
C645 C646 1.398 . S
C646 H634 0.950 . S
C646 C645 1.398 . S
C646 C647 1.391 . S
C647 H635 0.950 1_554 S
C647 C643 1.393 . S
C647 C646 1.391 . S
C177 C9 0.790 . S
C183 C93 0.791 . S
C197 C23 0.763 . S
C203 C107 0.776 . S
C217 C121 0.766 . S
C223 C37 0.773 . S
C237 C51 0.803 . S
C243 C135 0.765 . S
C257 C65 0.780 . S
C263 C149 0.761 . S
C277 C163 0.775 . S
C283 C79 0.801 . S
C297 C119 1.474 . S
C303 C7 1.449 . S
C317 C21 1.446 . S
C323 C133 1.471 . S
C337 C147 1.476 1_556 S
C343 C35 1.455 . S
C357 C161 1.446 . S
C363 C49 1.448 1_554 S
C377 C63 1.472 . S
C383 C91 1.447 . S
C397 C77 1.453 . S
C403 C105 1.476 . S
C417 C162 1.359 . S
C423 C8 1.359 . S
C437 C92 1.359 . S
C443 C22 1.359 . S
C457 C36 1.363 . S
C463 C106 1.364 . S
C477 C120 1.363 . S
C483 C50 1.364 . S
C497 C134 1.358 . S
C503 C64 1.358 . S
C517 C148 1.364 . S
C523 C78 1.364 . S
C537 C3 1.493 . S
C543 C143 1.513 . S
C557 C157 1.516 . S
C563 C17 1.498 . S
C577 C31 1.514 . S
C583 C87 1.494 . S
C597 C45 1.494 . S
C603 C101 1.499 . S
C617 C59 1.506 1_556 S
C623 C115 1.491 . S
C637 C73 1.492 . S
C643 C129 1.511 1_554 S
