# Generated by pormake.
# Topology fng, (5)-cn, num edge types: 1
# Building blocks:
#     Node 0, Type 0, BuildingBlock: BEQFEK_clean_sbu_0, # of connection points: 5
#     Node 1, Type 0, BuildingBlock: BEQFEK_clean_sbu_0, # of connection points: 5
#     Node 2, Type 0, BuildingBlock: BEQFEK_clean_sbu_0, # of connection points: 5
#     Node 3, Type 0, BuildingBlock: BEQFEK_clean_sbu_0, # of connection points: 5
#     Node 4, Type 0, BuildingBlock: BEQFEK_clean_sbu_0, # of connection points: 5
#     Node 5, Type 0, BuildingBlock: BEQFEK_clean_sbu_0, # of connection points: 5
#     Node 6, Type 0, BuildingBlock: BEQFEK_clean_sbu_0, # of connection points: 5
#     Node 7, Type 0, BuildingBlock: BEQFEK_clean_sbu_0, # of connection points: 5
#     Node 8, Type 0, BuildingBlock: BEQFEK_clean_sbu_0, # of connection points: 5
#     Node 9, Type 0, BuildingBlock: BEQFEK_clean_sbu_0, # of connection points: 5
#     Node 10, Type 0, BuildingBlock: BEQFEK_clean_sbu_0, # of connection points: 5
#     Node 11, Type 0, BuildingBlock: BEQFEK_clean_sbu_0, # of connection points: 5
#     Node 12, Type 0, BuildingBlock: BEQFEK_clean_sbu_0, # of connection points: 5
#     Node 13, Type 0, BuildingBlock: BEQFEK_clean_sbu_0, # of connection points: 5
#     Node 14, Type 0, BuildingBlock: BEQFEK_clean_sbu_0, # of connection points: 5
#     Node 15, Type 0, BuildingBlock: BEQFEK_clean_sbu_0, # of connection points: 5
#     Node 16, Type 0, BuildingBlock: BEQFEK_clean_sbu_0, # of connection points: 5
#     Node 17, Type 0, BuildingBlock: BEQFEK_clean_sbu_0, # of connection points: 5
#     Edge 18, Type (0, 0), BuildingBlock: OJICUG_clean_linker_0, # of connection points: 2
#     Edge 19, Type (0, 0), BuildingBlock: OJICUG_clean_linker_0, # of connection points: 2
#     Edge 20, Type (0, 0), BuildingBlock: OJICUG_clean_linker_0, # of connection points: 2
#     Edge 21, Type (0, 0), BuildingBlock: OJICUG_clean_linker_0, # of connection points: 2
#     Edge 22, Type (0, 0), BuildingBlock: OJICUG_clean_linker_0, # of connection points: 2
#     Edge 23, Type (0, 0), BuildingBlock: OJICUG_clean_linker_0, # of connection points: 2
#     Edge 24, Type (0, 0), BuildingBlock: OJICUG_clean_linker_0, # of connection points: 2
#     Edge 25, Type (0, 0), BuildingBlock: OJICUG_clean_linker_0, # of connection points: 2
#     Edge 26, Type (0, 0), BuildingBlock: OJICUG_clean_linker_0, # of connection points: 2
#     Edge 27, Type (0, 0), BuildingBlock: OJICUG_clean_linker_0, # of connection points: 2
#     Edge 28, Type (0, 0), BuildingBlock: OJICUG_clean_linker_0, # of connection points: 2
#     Edge 29, Type (0, 0), BuildingBlock: OJICUG_clean_linker_0, # of connection points: 2
#     Edge 30, Type (0, 0), BuildingBlock: OJICUG_clean_linker_0, # of connection points: 2
#     Edge 31, Type (0, 0), BuildingBlock: OJICUG_clean_linker_0, # of connection points: 2
#     Edge 32, Type (0, 0), BuildingBlock: OJICUG_clean_linker_0, # of connection points: 2
#     Edge 33, Type (0, 0), BuildingBlock: OJICUG_clean_linker_0, # of connection points: 2
#     Edge 34, Type (0, 0), BuildingBlock: OJICUG_clean_linker_0, # of connection points: 2
#     Edge 35, Type (0, 0), BuildingBlock: OJICUG_clean_linker_0, # of connection points: 2
#     Edge 36, Type (0, 0), BuildingBlock: OJICUG_clean_linker_0, # of connection points: 2
#     Edge 37, Type (0, 0), BuildingBlock: OJICUG_clean_linker_0, # of connection points: 2
#     Edge 38, Type (0, 0), BuildingBlock: OJICUG_clean_linker_0, # of connection points: 2
#     Edge 39, Type (0, 0), BuildingBlock: OJICUG_clean_linker_0, # of connection points: 2
#     Edge 40, Type (0, 0), BuildingBlock: OJICUG_clean_linker_0, # of connection points: 2
#     Edge 41, Type (0, 0), BuildingBlock: OJICUG_clean_linker_0, # of connection points: 2
#     Edge 42, Type (0, 0), BuildingBlock: OJICUG_clean_linker_0, # of connection points: 2
#     Edge 43, Type (0, 0), BuildingBlock: OJICUG_clean_linker_0, # of connection points: 2
#     Edge 44, Type (0, 0), BuildingBlock: OJICUG_clean_linker_0, # of connection points: 2
#     Edge 45, Type (0, 0), BuildingBlock: OJICUG_clean_linker_0, # of connection points: 2
#     Edge 46, Type (0, 0), BuildingBlock: OJICUG_clean_linker_0, # of connection points: 2
#     Edge 47, Type (0, 0), BuildingBlock: OJICUG_clean_linker_0, # of connection points: 2
#     Edge 48, Type (0, 0), BuildingBlock: OJICUG_clean_linker_0, # of connection points: 2
#     Edge 49, Type (0, 0), BuildingBlock: OJICUG_clean_linker_0, # of connection points: 2
#     Edge 50, Type (0, 0), BuildingBlock: OJICUG_clean_linker_0, # of connection points: 2
#     Edge 51, Type (0, 0), BuildingBlock: OJICUG_clean_linker_0, # of connection points: 2
#     Edge 52, Type (0, 0), BuildingBlock: OJICUG_clean_linker_0, # of connection points: 2
#     Edge 53, Type (0, 0), BuildingBlock: OJICUG_clean_linker_0, # of connection points: 2
#     Edge 54, Type (0, 0), BuildingBlock: OJICUG_clean_linker_0, # of connection points: 2
#     Edge 55, Type (0, 0), BuildingBlock: OJICUG_clean_linker_0, # of connection points: 2
#     Edge 56, Type (0, 0), BuildingBlock: OJICUG_clean_linker_0, # of connection points: 2
#     Edge 57, Type (0, 0), BuildingBlock: OJICUG_clean_linker_0, # of connection points: 2
#     Edge 58, Type (0, 0), BuildingBlock: OJICUG_clean_linker_0, # of connection points: 2
#     Edge 59, Type (0, 0), BuildingBlock: OJICUG_clean_linker_0, # of connection points: 2
#     Edge 60, Type (0, 0), BuildingBlock: OJICUG_clean_linker_0, # of connection points: 2
#     Edge 61, Type (0, 0), BuildingBlock: OJICUG_clean_linker_0, # of connection points: 2
#     Edge 62, Type (0, 0), BuildingBlock: OJICUG_clean_linker_0, # of connection points: 2
# Relax obj value: 0.360
# Max RMSD: 0.252
# Mean RMSD: 0.252
data_MOF--net-fng--node1-BEQFEK_clean_sbu_0--edge1-OJICUG_clean_linker_0
_symmetry_space_group_name_H-M    P1
_symmetry_Int_Tables_number       1
_symmetry_cell_setting            triclinic
loop_
_symmetry_equiv_pos_as_xyz
'x, y, z'
_cell_length_a     56.249737
_cell_length_b     56.223912
_cell_length_c     14.325556
_cell_angle_alpha  89.976132
_cell_angle_beta   89.999269
_cell_angle_gamma 119.96474
loop_
_atom_site_label
_atom_site_type_symbol
_atom_site_fract_x
_atom_site_fract_y
_atom_site_fract_z
_atom_type_partial_charge
Co0 Co 0.11023 0.22743 0.00755 0.0
Co1 Co 0.0963 0.19773 0.20122 0.0
C2 C 0.05259 0.18703 0.06059 0.0
O3 O 0.07061 0.20351 0.0041 0.0
O4 O 0.05914 0.18311 0.14201 0.0
C5 C 0.10066 0.24507 0.83583 0.0
O6 O 0.07831 0.24186 0.87643 0.0
C7 C 0.08103 0.19635 0.39527 0.0
C8 C 0.10386 0.17841 0.46211 0.0
C9 C 0.0897 0.19219 0.48142 0.0
N10 N 0.09082 0.18669 0.32864 0.0
N11 N 0.10346 0.17498 0.36913 0.0
C12 C 0.06744 0.21291 0.37502 0.0
H13 H 0.06913 0.21828 0.29984 0.0
H14 H 0.07644 0.23183 0.41801 0.0
H15 H 0.04538 0.20053 0.39338 0.0
C16 C 0.1361 0.27709 0.12993 0.0
N17 N 0.12179 0.24971 0.1159 0.0
N18 N 0.11835 0.23706 0.19647 0.0
C19 C 0.13191 0.25611 0.26307 0.0
C20 C 0.14269 0.28187 0.22395 0.0
C21 C 0.14414 0.298 0.0542 0.0
H22 H 0.16117 0.29858 0.01325 0.0
H23 H 0.12658 0.29197 0.00606 0.0
H24 H 0.151 0.31872 0.08343 0.0
O25 O 0.12683 0.20364 0.00335 0.0
O26 O 0.11645 0.18158 0.13912 0.0
H27 H 0.13819 0.23058 0.36056 0.0
H28 H 0.1598 0.26679 0.37889 0.0
C29 C 0.13884 0.25055 0.35858 0.0
H30 H 0.12456 0.25111 0.41051 0.0
H31 H 0.1141 0.16707 0.33308 0.0
O32 O 0.12011 0.24705 0.88681 0.0
C33 C 0.12759 0.18633 0.05873 0.0
Co34 Co 0.76826 0.88268 0.00383 0.0
Co35 Co 0.79748 0.89854 0.19762 0.0
C36 C 0.80746 0.8643 0.05921 0.0
O37 O 0.79139 0.86602 0.00132 0.0
O38 O 0.81131 0.87513 0.13996 0.0
C39 C 0.7501 0.85555 0.83221 0.0
O40 O 0.75304 0.83618 0.87253 0.0
C41 C 0.79821 0.88422 0.3912 0.0
C42 C 0.8173 0.92492 0.45885 0.0
C43 C 0.80279 0.89696 0.47756 0.0
N44 N 0.80838 0.90377 0.32497 0.0
N45 N 0.82076 0.92805 0.36587 0.0
C46 C 0.78078 0.8542 0.37044 0.0
H47 H 0.7753 0.8508 0.29532 0.0
H48 H 0.7619 0.8448 0.41369 0.0
H49 H 0.79253 0.84378 0.38811 0.0
C50 C 0.71842 0.86001 0.125 0.0
N51 N 0.74579 0.87269 0.11168 0.0
N52 N 0.7583 0.88253 0.19191 0.0
C53 C 0.73923 0.87831 0.25714 0.0
C54 C 0.71341 0.86325 0.21782 0.0
C55 C 0.69776 0.84644 0.04897 0.0
H56 H 0.70014 0.86218 0.99723 0.0
H57 H 0.70182 0.83147 0.01213 0.0
H58 H 0.67649 0.83595 0.07667 0.0
O59 O 0.7927 0.92306 0.99903 0.0
O60 O 0.81448 0.93469 0.13528 0.0
H61 H 0.7659 0.90871 0.35634 0.0
H62 H 0.73035 0.89661 0.3748 0.0
C63 C 0.74528 0.89029 0.35346 0.0
H64 H 0.74349 0.87465 0.40435 0.0
H65 H 0.8292 0.94671 0.33017 0.0
O66 O 0.74861 0.87326 0.88337 0.0
C67 C 0.81003 0.94109 0.05444 0.0
Co68 Co 0.11284 0.88416 0.01128 0.0
Co69 Co 0.09707 0.89778 0.20515 0.0
C70 C 0.12977 0.9417 0.06462 0.0
O71 O 0.12832 0.9238 0.00775 0.0
O72 O 0.1194 0.93501 0.14611 0.0
C73 C 0.14017 0.89377 0.83987 0.0
O74 O 0.15918 0.91618 0.88055 0.0
C75 C 0.11105 0.91302 0.39895 0.0
C76 C 0.07037 0.8901 0.46614 0.0
C77 C 0.0983 0.90433 0.48516 0.0
N78 N 0.09157 0.90318 0.33252 0.0
N79 N 0.06726 0.89048 0.3732 0.0
C80 C 0.14116 0.92666 0.37845 0.0
H81 H 0.1448 0.92498 0.30324 0.0
H82 H 0.15115 0.91769 0.42136 0.0
H83 H 0.1508 0.94874 0.39676 0.0
C84 C 0.13694 0.85841 0.13282 0.0
N85 N 0.12375 0.87264 0.11926 0.0
N86 N 0.11446 0.87585 0.19995 0.0
C87 C 0.11996 0.86215 0.26613 0.0
C88 C 0.13503 0.85154 0.22661 0.0
C89 C 0.14991 0.85061 0.05675 0.0
H90 H 0.13353 0.83396 0.01446 0.0
H91 H 0.16176 0.86845 0.00991 0.0
H92 H 0.16347 0.84334 0.08568 0.0
O93 O 0.07242 0.86733 0.00749 0.0
O94 O 0.06079 0.87758 0.14355 0.0
H95 H 0.10293 0.83422 0.38203 0.0
H96 H 0.12246 0.86948 0.41356 0.0
C97 C 0.10759 0.85518 0.3618 0.0
H98 H 0.08827 0.85581 0.36415 0.0
H99 H 0.0487 0.87979 0.3373 0.0
O100 O 0.12265 0.87434 0.89072 0.0
C101 C 0.05436 0.86645 0.06319 0.0
Co102 Co 0.22477 0.11195 0.98867 0.0
Co103 Co 0.19474 0.09775 0.79549 0.0
C104 C 0.18457 0.05417 0.93622 0.0
O105 O 0.20105 0.07225 0.99249 0.0
O106 O 0.18043 0.06067 0.85503 0.0
C107 C 0.24239 0.10255 0.16085 0.0
O108 O 0.23941 0.08025 0.12047 0.0
C109 C 0.19346 0.08243 0.60151 0.0
C110 C 0.17511 0.10486 0.53454 0.0
C111 C 0.18918 0.09099 0.51528 0.0
N112 N 0.18361 0.09204 0.66811 0.0
N113 N 0.17165 0.10443 0.62753 0.0
C114 C 0.21033 0.06918 0.62187 0.0
H115 H 0.21543 0.07066 0.69722 0.0
H116 H 0.22942 0.07863 0.57968 0.0
H117 H 0.19833 0.04716 0.60252 0.0
C118 C 0.27424 0.13781 0.86437 0.0
N119 N 0.24691 0.12356 0.87968 0.0
N120 N 0.23402 0.11987 0.79953 0.0
C121 C 0.2528 0.13313 0.73194 0.0
C122 C 0.27871 0.14393 0.76979 0.0
C123 C 0.29543 0.14572 0.93896 0.0
H124 H 0.28779 0.12991 0.99474 0.0
H125 H 0.31491 0.14846 0.90957 0.0
H126 H 0.29953 0.16545 0.97034 0.0
O127 O 0.20089 0.12843 0.99292 0.0
O128 O 0.17863 0.11795 0.85757 0.0
H129 H 0.26309 0.16166 0.61826 0.0
H130 H 0.24729 0.12662 0.58409 0.0
C131 C 0.24691 0.14058 0.63772 0.0
H132 H 0.22695 0.13995 0.63756 0.0
H133 H 0.16355 0.11492 0.66351 0.0
O134 O 0.24432 0.12195 0.10963 0.0
C135 C 0.18352 0.12917 0.93784 0.0
Co136 Co 0.88218 0.11192 0.98685 0.0
Co137 Co 0.89679 0.09753 0.79199 0.0
C138 C 0.94039 0.13018 0.93008 0.0
O139 O 0.92212 0.12805 0.98679 0.0
O140 O 0.93416 0.12006 0.8481 0.0
C141 C 0.89262 0.13805 0.16055 0.0
O142 O 0.91456 0.15854 0.12267 0.0
C143 C 0.91451 0.10527 0.5956 0.0
C144 C 0.88035 0.0675 0.53538 0.0
C145 C 0.90219 0.093 0.511 0.0
N146 N 0.89925 0.08861 0.66538 0.0
N147 N 0.87965 0.06558 0.62881 0.0
C148 C 0.94018 0.13223 0.61128 0.0
H149 H 0.95222 0.13005 0.66863 0.0
H150 H 0.93507 0.14803 0.6334 0.0
H151 H 0.95298 0.13919 0.54721 0.0
C152 C 0.85396 0.13385 0.86776 0.0
N153 N 0.8695 0.12198 0.87958 0.0
N154 N 0.8756 0.11598 0.7973 0.0
C155 C 0.86396 0.12386 0.73057 0.0
C156 C 0.84976 0.13525 0.77273 0.0
C157 C 0.84272 0.14274 0.94638 0.0
H158 H 0.83597 0.12751 0.00387 0.0
H159 H 0.85921 0.16265 0.97385 0.0
H160 H 0.82527 0.14523 0.92302 0.0
O161 O 0.86585 0.07202 0.99385 0.0
O162 O 0.87681 0.06148 0.85754 0.0
H163 H 0.85931 0.10063 0.60703 0.0
H164 H 0.85803 0.13146 0.58519 0.0
C165 C 0.86781 0.12232 0.62784 0.0
H166 H 0.88987 0.13409 0.61182 0.0
H167 H 0.86427 0.04957 0.66757 0.0
O168 O 0.87296 0.12179 0.10791 0.0
C169 C 0.86558 0.05446 0.93758 0.0
Co170 Co 0.88272 0.76868 0.99432 0.0
Co171 Co 0.8988 0.79812 0.8007 0.0
C172 C 0.8645 0.80801 0.93932 0.0
O173 O 0.86614 0.79186 0.99708 0.0
O174 O 0.87541 0.81196 0.85866 0.0
C175 C 0.85564 0.75057 0.1662 0.0
O176 O 0.83628 0.75351 0.12601 0.0
C177 C 0.88438 0.79881 0.60717 0.0
C178 C 0.92503 0.818 0.53922 0.0
C179 C 0.89708 0.8034 0.52069 0.0
N180 N 0.90395 0.80905 0.67327 0.0
N181 N 0.9282 0.82148 0.63217 0.0
C182 C 0.85439 0.78132 0.62815 0.0
H183 H 0.85102 0.77595 0.70338 0.0
H184 H 0.84505 0.76236 0.58529 0.0
H185 H 0.84389 0.79296 0.61013 0.0
C186 C 0.85965 0.71894 0.87235 0.0
N187 N 0.87266 0.74631 0.88623 0.0
N188 N 0.88271 0.75891 0.80625 0.0
C189 C 0.87838 0.73989 0.74073 0.0
C190 C 0.86295 0.71401 0.77946 0.0
C191 C 0.84565 0.69818 0.94787 0.0
H192 H 0.86117 0.70011 -0.00023 0.0
H193 H 0.83088 0.70253 0.98469 0.0
H194 H 0.83486 0.67695 0.91969 0.0
O195 O 0.92312 0.79303 0.99886 0.0
O196 O 0.93497 0.81498 0.86286 0.0
H197 H 0.89711 0.73119 0.624 0.0
H198 H 0.87503 0.74409 0.59326 0.0
C199 C 0.89058 0.74601 0.64471 0.0
H200 H 0.90893 0.76668 0.64204 0.0
H201 H 0.94686 0.82999 0.66772 0.0
O202 O 0.87329 0.74901 0.11491 0.0
C203 C 0.94125 0.81036 0.94364 0.0
Co204 Co 0.77819 0.56178 0.33938 0.0
Co205 Co 0.764 0.53197 0.53264 0.0
C206 C 0.72054 0.52177 0.39036 0.0
O207 O 0.73846 0.53851 0.33402 0.0
O208 O 0.72718 0.51748 0.47115 0.0
C209 C 0.77041 0.58062 0.16749 0.0
O210 O 0.74901 0.58018 0.20595 0.0
C211 C 0.74723 0.52938 0.72585 0.0
C212 C 0.77138 0.51327 0.79462 0.0
C213 C 0.75602 0.52587 0.8133 0.0
N214 N 0.75842 0.52092 0.66015 0.0
N215 N 0.77197 0.51036 0.70172 0.0
C216 C 0.72922 0.54116 0.70279 0.0
H217 H 0.71786 0.532 0.63714 0.0
H218 H 0.74192 0.56361 0.69147 0.0
H219 H 0.71432 0.53707 0.75987 0.0
C220 C 0.80393 0.61133 0.46187 0.0
N221 N 0.78965 0.58395 0.44782 0.0
N222 N 0.78581 0.57128 0.52855 0.0
C223 C 0.79897 0.59034 0.59548 0.0
C224 C 0.81006 0.6161 0.55616 0.0
C225 C 0.81231 0.63223 0.38596 0.0
H226 H 0.82871 0.63198 0.34364 0.0
H227 H 0.79461 0.62677 0.33907 0.0
H228 H 0.82008 0.65314 0.41497 0.0
O229 O 0.79433 0.53765 0.33533 0.0
O230 O 0.78438 0.51592 0.47156 0.0
H231 H 0.80517 0.56536 0.69528 0.0
H232 H 0.82465 0.60155 0.71789 0.0
C233 C 0.8046 0.58472 0.69275 0.0
H234 H 0.78872 0.58379 0.74059 0.0
H235 H 0.78359 0.50339 0.66663 0.0
O236 O 0.78915 0.5817 0.21997 0.0
C237 C 0.79528 0.52048 0.39083 0.0
Co238 Co 0.43525 0.21766 0.34533 0.0
Co239 Co 0.46425 0.23227 0.54015 0.0
C240 C 0.47475 0.19891 0.40401 0.0
O241 O 0.45872 0.2011 0.34688 0.0
O242 O 0.47878 0.2093 0.4856 0.0
C243 C 0.41976 0.19167 0.17133 0.0
O244 O 0.42147 0.17125 0.20875 0.0
C245 C 0.47454 0.2251 0.73673 0.0
C246 C 0.47726 0.26258 0.79628 0.0
C247 C 0.47416 0.23731 0.82109 0.0
N248 N 0.47559 0.24152 0.66665 0.0
N249 N 0.4785 0.26441 0.70283 0.0
C250 C 0.47384 0.19838 0.72158 0.0
H251 H 0.48827 0.2008 0.66469 0.0
H252 H 0.4531 0.18233 0.69906 0.0
H253 H 0.47976 0.19162 0.78597 0.0
C254 C 0.38519 0.19651 0.46446 0.0
N255 N 0.41255 0.20815 0.45255 0.0
N256 N 0.42466 0.21404 0.5348 0.0
C257 C 0.40517 0.20618 0.6016 0.0
C258 C 0.37961 0.19506 0.55953 0.0
C259 C 0.36505 0.18774 0.38591 0.0
H260 H 0.37374 0.20275 0.32783 0.0
H261 H 0.36117 0.16757 0.35938 0.0
H262 H 0.34533 0.1858 0.40911 0.0
O263 O 0.45911 0.25745 0.33684 0.0
O264 O 0.48058 0.26815 0.47316 0.0
H265 H 0.42319 0.22879 0.72664 0.0
H266 H 0.39155 0.1973 0.74661 0.0
C267 C 0.41051 0.20717 0.70423 0.0
H268 H 0.42133 0.1958 0.71871 0.0
H269 H 0.47876 0.28021 0.66375 0.0
O270 O 0.41614 0.20773 0.22433 0.0
C271 C 0.4765 0.27505 0.39268 0.0
Co272 Co 0.77736 0.21805 0.34466 0.0
Co273 Co 0.76139 0.23209 0.53794 0.0
C274 C 0.79427 0.27571 0.39703 0.0
O275 O 0.79284 0.25768 0.34084 0.0
O276 O 0.78378 0.26921 0.4784 0.0
C277 C 0.80445 0.22779 0.17257 0.0
O278 O 0.82356 0.25018 0.21306 0.0
C279 C 0.77522 0.24751 0.73199 0.0
C280 C 0.73449 0.22459 0.79878 0.0
C281 C 0.76239 0.2388 0.81816 0.0
N282 N 0.7558 0.23767 0.66531 0.0
N283 N 0.73146 0.22498 0.70578 0.0
C284 C 0.80535 0.26115 0.71176 0.0
H285 H 0.80905 0.25967 0.63648 0.0
H286 H 0.81526 0.25203 0.75427 0.0
H287 H 0.81502 0.28318 0.73078 0.0
C288 C 0.8014 0.19257 0.46865 0.0
N289 N 0.78814 0.20666 0.45359 0.0
N290 N 0.77897 0.21031 0.53388 0.0
C291 C 0.78475 0.19721 0.60138 0.0
C292 C 0.79995 0.18653 0.56324 0.0
C293 C 0.81464 0.18467 0.39377 0.0
H294 H 0.79889 0.16519 0.36137 0.0
H295 H 0.82308 0.20071 0.33874 0.0
H296 H 0.83114 0.18152 0.42301 0.0
O297 O 0.73701 0.2012 0.34045 0.0
O298 O 0.72514 0.21162 0.47574 0.0
H299 H 0.75216 0.19017 0.69642 0.0
H300 H 0.76704 0.16882 0.71571 0.0
C301 C 0.77163 0.1898 0.69592 0.0
H302 H 0.78598 0.20395 0.74911 0.0
H303 H 0.71293 0.21428 0.66972 0.0
O304 O 0.78714 0.20827 0.22369 0.0
C305 C 0.71885 0.20035 0.39554 0.0
Co306 Co 0.89187 0.44556 0.31919 0.0
Co307 Co 0.8619 0.43169 0.1259 0.0
C308 C 0.85099 0.38797 0.26679 0.0
O309 O 0.86766 0.40594 0.32298 0.0
O310 O 0.84705 0.39456 0.18547 0.0
C311 C 0.90919 0.43577 0.49127 0.0
O312 O 0.90586 0.41334 0.45082 0.0
C313 C 0.86036 0.41627 0.93192 0.0
C314 C 0.84255 0.43921 0.865 0.0
C315 C 0.85625 0.42498 0.84571 0.0
N316 N 0.85077 0.42614 0.99854 0.0
N317 N 0.83912 0.43884 0.95799 0.0
C318 C 0.87684 0.40261 0.95224 0.0
H319 H 0.88198 0.40406 0.02756 0.0
H320 H 0.89589 0.41176 0.90988 0.0
H321 H 0.86453 0.3806 0.93308 0.0
C322 C 0.94137 0.47099 0.19527 0.0
N323 N 0.91403 0.45694 0.2103 0.0
N324 N 0.90123 0.45337 0.13002 0.0
C325 C 0.92012 0.46648 0.06257 0.0
C326 C 0.94597 0.47709 0.10074 0.0
C327 C 0.96247 0.47878 0.27014 0.0
H328 H 0.95481 0.46279 0.32532 0.0
H329 H 0.98205 0.48175 0.24092 0.0
H330 H 0.96637 0.49836 0.30232 0.0
O331 O 0.8684 0.46247 0.3235 0.0
O332 O 0.84617 0.45221 0.18814 0.0
H333 H 0.9308 0.49495 0.94846 0.0
H334 H 0.91462 0.45984 0.9148 0.0
C335 C 0.91442 0.47397 0.96812 0.0
H336 H 0.8946 0.47363 0.96766 0.0
H337 H 0.83128 0.44955 0.99399 0.0
O338 O 0.91143 0.45531 0.44012 0.0
C339 C 0.85113 0.46341 0.26846 0.0
Co340 Co 0.54985 0.44582 0.32231 0.0
Co341 Co 0.56408 0.431 0.1275 0.0
C342 C 0.60795 0.46448 0.26424 0.0
O343 O 0.58982 0.46243 0.3215 0.0
O344 O 0.60148 0.45396 0.18288 0.0
C345 C 0.56001 0.47191 0.4961 0.0
O346 O 0.58197 0.49244 0.45847 0.0
C347 C 0.58182 0.43923 0.93146 0.0
C348 C 0.54838 0.40111 0.87042 0.0
C349 C 0.56978 0.42693 0.84659 0.0
N350 N 0.56678 0.42223 0.00088 0.0
N351 N 0.54764 0.39902 0.96383 0.0
C352 C 0.60696 0.46656 0.94781 0.0
H353 H 0.61921 0.46473 0.00512 0.0
H354 H 0.60116 0.48184 0.97025 0.0
H355 H 0.61983 0.47397 0.88398 0.0
C356 C 0.52112 0.46716 0.20319 0.0
N357 N 0.53673 0.45539 0.21498 0.0
N358 N 0.54252 0.44904 0.13275 0.0
C359 C 0.53049 0.4565 0.0661 0.0
C360 C 0.51647 0.46809 0.10827 0.0
C361 C 0.51029 0.47651 0.2818 0.0
H362 H 0.50329 0.46128 0.33937 0.0
H363 H 0.52709 0.49625 0.30918 0.0
H364 H 0.4931 0.47945 0.25857 0.0
O365 O 0.53397 0.40597 0.33028 0.0
O366 O 0.54447 0.39506 0.1938 0.0
H367 H 0.52589 0.43256 0.94451 0.0
H368 H 0.523 0.46237 0.92046 0.0
C369 C 0.53373 0.4543 0.96332 0.0
H370 H 0.55562 0.46667 0.94532 0.0
H371 H 0.53248 0.38271 0.00227 0.0
O372 O 0.54046 0.45559 0.44324 0.0
C373 C 0.53358 0.38827 0.27443 0.0
Co374 Co 0.54764 0.10152 0.32641 0.0
Co375 Co 0.56299 0.13135 0.13312 0.0
C376 C 0.52987 0.14153 0.27597 0.0
O377 O 0.53117 0.12481 0.3321 0.0
O378 O 0.54067 0.14583 0.19498 0.0
C379 C 0.52104 0.08265 0.49826 0.0
O380 O 0.50003 0.08297 0.45967 0.0
C381 C 0.54877 0.13399 0.93987 0.0
C382 C 0.58904 0.15013 0.8712 0.0
C383 C 0.56109 0.13752 0.85244 0.0
N384 N 0.5684 0.14243 0.00563 0.0
N385 N 0.59251 0.15302 0.96411 0.0
C386 C 0.51901 0.12222 0.96289 0.0
H387 H 0.51679 0.13133 0.02865 0.0
H388 H 0.50925 0.09976 0.97397 0.0
H389 H 0.50821 0.12638 0.90587 0.0
C390 C 0.52387 0.05197 0.20386 0.0
N391 N 0.53689 0.07935 0.21794 0.0
N392 N 0.54554 0.09203 0.13714 0.0
C393 C 0.53959 0.07298 0.0701 0.0
C394 C 0.52506 0.04722 0.10945 0.0
C395 C 0.51155 0.03106 0.27982 0.0
H396 H 0.52829 0.0314 0.32181 0.0
H397 H 0.49931 0.03646 0.32701 0.0
H398 H 0.49846 0.01014 0.25088 0.0
O399 O 0.58788 0.12568 0.33018 0.0
O400 O 0.59943 0.14741 0.19394 0.0
H401 H 0.57065 0.09795 0.97008 0.0
H402 H 0.55397 0.06176 0.94746 0.0
C403 C 0.55075 0.07861 0.97274 0.0
H404 H 0.53576 0.07953 0.92506 0.0
H405 H 0.61107 0.15997 0.99923 0.0
O406 O 0.53874 0.08162 0.44588 0.0
C407 C 0.60589 0.14287 0.27451 0.0
Co408 Co 0.44517 0.89472 0.67101 0.0
Co409 Co 0.43174 0.86522 0.86456 0.0
C410 C 0.38761 0.85563 0.72599 0.0
O411 O 0.40541 0.87175 0.66826 0.0
O412 O 0.39456 0.85158 0.80655 0.0
C413 C 0.43635 0.91292 0.49901 0.0
O414 O 0.4141 0.91014 0.53913 0.0
C415 C 0.41665 0.86462 0.05807 0.0
C416 C 0.43785 0.84513 0.12603 0.0
C417 C 0.42466 0.85991 0.14456 0.0
N418 N 0.42587 0.85426 0.99197 0.0
N419 N 0.43752 0.84165 0.03307 0.0
C420 C 0.40436 0.88232 0.03708 0.0
H421 H 0.40639 0.88769 0.96186 0.0
H422 H 0.41408 0.90128 0.07993 0.0
H423 H 0.38222 0.87083 0.05511 0.0
C424 C 0.47211 0.94443 0.79314 0.0
N425 N 0.45762 0.91707 0.77917 0.0
N426 N 0.45501 0.90442 0.85908 0.0
C427 C 0.46978 0.92338 0.92464 0.0
C428 C 0.48035 0.9493 0.88605 0.0
C429 C 0.47892 0.96524 0.71774 0.0
H430 H 0.49132 0.96239 0.66335 0.0
H431 H 0.45967 0.96177 0.68407 0.0
H432 H 0.49051 0.9865 0.74533 0.0
O433 O 0.46101 0.87017 0.66638 0.0
O434 O 0.45091 0.8482 0.80236 0.0
H435 H 0.47321 0.89635 0.02327 0.0
H436 H 0.49714 0.93172 0.04134 0.0
C437 C 0.47575 0.91712 0.02064 0.0
H438 H 0.46226 0.91924 0.07215 0.0
H439 H 0.44758 0.83302 0.99752 0.0
O440 O 0.45549 0.91437 0.55038 0.0
C441 C 0.46175 0.85277 0.72152 0.0
Co442 Co 0.10293 0.55065 0.67836 0.0
Co443 Co 0.13178 0.56492 0.87326 0.0
C444 C 0.14222 0.53162 0.73604 0.0
O445 O 0.12626 0.53394 0.67896 0.0
O446 O 0.14624 0.54195 0.81773 0.0
C447 C 0.08704 0.52457 0.50464 0.0
O448 O 0.08832 0.50396 0.54241 0.0
C449 C 0.14161 0.55705 0.06959 0.0
C450 C 0.14548 0.59495 0.12988 0.0
C451 C 0.14166 0.56937 0.15419 0.0
N452 N 0.14314 0.57379 -0.00015 0.0
N453 N 0.14672 0.59689 0.03645 0.0
C454 C 0.14009 0.52997 0.05387 0.0
H455 H 0.15434 0.53206 0.99681 0.0
H456 H 0.11918 0.51435 0.0313 0.0
H457 H 0.14572 0.52285 0.11802 0.0
C458 C 0.05279 0.52934 0.79706 0.0
N459 N 0.08016 0.54094 0.78544 0.0
N460 N 0.09221 0.54686 0.86779 0.0
C461 C 0.07268 0.53916 0.93439 0.0
C462 C 0.04714 0.528 0.89205 0.0
C463 C 0.03272 0.5206 0.71829 0.0
H464 H 0.04134 0.53582 0.66079 0.0
H465 H 0.02916 0.50062 0.6909 0.0
H466 H 0.01286 0.51832 0.74145 0.0
O467 O 0.12683 0.59051 0.67105 0.0
O468 O 0.14816 0.60101 0.80762 0.0
H469 H 0.09129 0.56226 0.05813 0.0
H470 H 0.05908 0.53155 0.07968 0.0
C471 C 0.07799 0.54059 0.03714 0.0
H472 H 0.08817 0.52868 0.05312 0.0
H473 H 0.14747 0.61297 0.99771 0.0
O474 O 0.08384 0.54095 0.55736 0.0
C475 C 0.1441 0.60805 0.72736 0.0
Co476 Co 0.4455 0.55186 0.6788 0.0
Co477 Co 0.42979 0.56625 0.87203 0.0
C478 C 0.46313 0.60968 0.73089 0.0
O479 O 0.46153 0.59155 0.67479 0.0
O480 O 0.45254 0.60326 0.81215 0.0
C481 C 0.47249 0.56112 0.50667 0.0
O482 O 0.49185 0.58336 0.54709 0.0
C483 C 0.44389 0.58158 0.06602 0.0
C484 C 0.40314 0.55933 0.133 0.0
C485 C 0.43105 0.57307 0.15226 0.0
N486 N 0.42444 0.57205 0.99942 0.0
N487 N 0.40011 0.55977 0.04001 0.0
C488 C 0.47398 0.59472 0.04564 0.0
H489 H 0.47758 0.59318 0.9703 0.0
H490 H 0.48358 0.58524 0.08793 0.0
H491 H 0.48404 0.61675 0.06484 0.0
C492 C 0.46889 0.52579 0.80303 0.0
N493 N 0.45596 0.5402 0.78781 0.0
N494 N 0.44684 0.54399 0.868 0.0
C495 C 0.4523 0.53065 0.93555 0.0
C496 C 0.46724 0.51968 0.89758 0.0
C497 C 0.48197 0.51766 0.72833 0.0
H498 H 0.49073 0.53374 0.67353 0.0
H499 H 0.4982 0.51412 0.75783 0.0
H500 H 0.46606 0.49833 0.69556 0.0
O501 O 0.40522 0.5356 0.6747 0.0
O502 O 0.39351 0.54619 0.81 0.0
H503 H 0.43412 0.50225 0.04957 0.0
H504 H 0.45358 0.53731 0.08334 0.0
C505 C 0.43911 0.52336 0.03 0.0
H506 H 0.41986 0.52415 0.03048 0.0
H507 H 0.38154 0.54936 0.00405 0.0
O508 O 0.45498 0.54176 0.55786 0.0
C509 C 0.38715 0.53498 0.72971 0.0
Co510 Co 0.56013 0.77957 0.65379 0.0
Co511 Co 0.5307 0.76572 0.45995 0.0
C512 C 0.51986 0.72196 0.60077 0.0
O513 O 0.53622 0.73996 0.6575 0.0
O514 O 0.51609 0.72853 0.5192 0.0
C515 C 0.57798 0.7701 0.8252 0.0
O516 O 0.57478 0.74775 0.7845 0.0
C517 C 0.52952 0.75049 0.26609 0.0
C518 C 0.51155 0.77326 0.19897 0.0
C519 C 0.52538 0.75914 0.17989 0.0
N520 N 0.51979 0.76025 0.33257 0.0
N521 N 0.50807 0.77286 0.29192 0.0
C522 C 0.5461 0.73694 0.28653 0.0
H523 H 0.55148 0.73869 0.36169 0.0
H524 H 0.56501 0.74593 0.24346 0.0
H525 H 0.53375 0.71485 0.26839 0.0
C526 C 0.60989 0.8052 0.53205 0.0
N527 N 0.58251 0.79107 0.54575 0.0
N528 N 0.56999 0.78785 0.4651 0.0
C529 C 0.58914 0.80149 0.39884 0.0
C530 C 0.61482 0.81206 0.43825 0.0
C531 C 0.63067 0.81286 0.60796 0.0
H532 H 0.6246 0.79501 0.65485 0.0
H533 H 0.65145 0.81996 0.57888 0.0
H534 H 0.6311 0.82961 0.65023 0.0
O535 O 0.53635 0.79621 0.65745 0.0
O536 O 0.51441 0.78576 0.52152 0.0
H537 H 0.59995 0.82936 0.28281 0.0
H538 H 0.58442 0.79411 0.25143 0.0
C539 C 0.58372 0.80838 0.30306 0.0
H540 H 0.56373 0.80766 0.30053 0.0
H541 H 0.5001 0.78347 0.32785 0.0
O542 O 0.57976 0.78949 0.77437 0.0
C543 C 0.51907 0.79693 0.60182 0.0
Co544 Co 0.21666 0.7797 0.6614 0.0
Co545 Co 0.23036 0.76417 0.46761 0.0
C546 C 0.27436 0.79884 0.60606 0.0
O547 O 0.25648 0.79686 0.66401 0.0
O548 O 0.2675 0.78798 0.52532 0.0
C549 C 0.22519 0.80678 0.83299 0.0
O550 O 0.24733 0.82635 0.79267 0.0
C551 C 0.2453 0.77869 0.27409 0.0
C552 C 0.22424 0.73799 0.2063 0.0
C553 C 0.2373 0.76594 0.18768 0.0
N554 N 0.23619 0.75913 0.34025 0.0
N555 N 0.22462 0.73486 0.29926 0.0
C556 C 0.25747 0.80866 0.29495 0.0
H557 H 0.25531 0.81198 0.37008 0.0
H558 H 0.24776 0.81785 0.25174 0.0
H559 H 0.27964 0.81935 0.27731 0.0
C560 C 0.18924 0.80214 0.54012 0.0
N561 N 0.20397 0.78949 0.55357 0.0
N562 N 0.20673 0.7797 0.47336 0.0
C563 C 0.19186 0.78387 0.40805 0.0
C564 C 0.18102 0.79891 0.44723 0.0
C565 C 0.1822 0.81581 0.61599 0.0
H566 H 0.16943 0.80027 0.66913 0.0
H567 H 0.20131 0.83127 0.65113 0.0
H568 H 0.17087 0.82578 0.5885 0.0
O569 O 0.20129 0.73936 0.66613 0.0
O570 O 0.21171 0.72799 0.52986 0.0
H571 H 0.18865 0.75372 0.30854 0.0
H572 H 0.1647 0.76522 0.2907 0.0
C573 C 0.18606 0.77192 0.31169 0.0
H574 H 0.19964 0.78769 0.26072 0.0
H575 H 0.21466 0.71618 0.3349 0.0
O576 O 0.20618 0.78887 0.78185 0.0
C577 C 0.20092 0.72146 0.61072 0.0
Co578 Co 0.21622 0.43516 0.65942 0.0
Co579 Co 0.23139 0.46486 0.46607 0.0
C580 C 0.19732 0.47414 0.60828 0.0
O581 O 0.19889 0.45763 0.66471 0.0
O582 O 0.20831 0.47858 0.52756 0.0
C583 C 0.18984 0.41604 0.83159 0.0
O584 O 0.16856 0.41583 0.7931 0.0
C585 C 0.21696 0.46745 0.27297 0.0
C586 C 0.25728 0.48429 0.20409 0.0
C587 C 0.2293 0.47128 0.18547 0.0
N588 N 0.23662 0.47608 0.33866 0.0
N589 N 0.26075 0.4871 0.29703 0.0
C590 C 0.18715 0.45532 0.29603 0.0
H591 H 0.18479 0.4646 0.36116 0.0
H592 H 0.17776 0.43294 0.3084 0.0
H593 H 0.17612 0.45897 0.23858 0.0
C594 C 0.19351 0.38555 0.53743 0.0
N595 N 0.20616 0.41292 0.55107 0.0
N596 N 0.21515 0.42554 0.47045 0.0
C597 C 0.21018 0.40652 0.40413 0.0
C598 C 0.19574 0.38061 0.44366 0.0
C599 C 0.18069 0.36482 0.61376 0.0
H600 H 0.19651 0.36842 0.66687 0.0
H601 H 0.16465 0.36761 0.64879 0.0
H602 H 0.17156 0.34353 0.58674 0.0
O603 O 0.25637 0.4601 0.66351 0.0
O604 O 0.2678 0.48181 0.52718 0.0
H605 H 0.23956 0.43259 0.30174 0.0
H606 H 0.22437 0.39693 0.27658 0.0
C607 C 0.22023 0.41273 0.30543 0.0
H608 H 0.20432 0.41299 0.26081 0.0
H609 H 0.27937 0.49431 0.33205 0.0
O610 O 0.20775 0.41541 0.77914 0.0
C611 C 0.27428 0.47751 0.60806 0.0
C612 C 0.11785 0.21994 0.61597 0.0
C613 C 0.09256 0.20735 0.56887 0.0
H614 H 0.14063 0.24272 0.73512 0.0
C615 C 0.07082 0.21002 0.60493 0.0
H616 H 0.13519 0.21876 0.58863 0.0
C617 C 0.074 0.22403 0.68894 0.0
C618 C 0.099 0.23562 0.73826 0.0
H619 H 0.05114 0.20052 0.56995 0.0
H620 H 0.05647 0.22467 0.71719 0.0
C621 C 0.12109 0.23403 0.69933 0.0
C622 C 0.78442 0.8601 0.60041 0.0
C623 C 0.78757 0.88477 0.56492 0.0
H624 H 0.76943 0.831 0.71241 0.0
C625 C 0.77542 0.89784 0.61248 0.0
H626 H 0.79355 0.84962 0.56494 0.0
C627 C 0.76133 0.88709 0.69591 0.0
C628 C 0.75934 0.86318 0.73443 0.0
H629 H 0.77697 0.91656 0.58548 0.0
H630 H 0.75301 0.89823 0.73215 0.0
C631 C 0.77043 0.84938 0.68452 0.0
C632 C 0.14582 0.92035 0.69271 0.0
C633 C 0.13256 0.89533 0.74202 0.0
H634 H 0.14501 0.94313 0.57361 0.0
C635 C 0.10909 0.87308 0.70282 0.0
H636 H 0.16385 0.93798 0.72114 0.0
C637 C 0.09822 0.87622 0.61936 0.0
C638 C 0.1107 0.90154 0.57243 0.0
H639 H 0.09839 0.85351 0.73857 0.0
H640 H 0.07983 0.85878 0.59186 0.0
C641 C 0.13497 0.92342 0.60856 0.0
C642 C 0.21653 0.11925 0.3801 0.0
C643 C 0.20441 0.09403 0.42776 0.0
H644 H 0.23901 0.14213 0.26057 0.0
C645 C 0.20761 0.07256 0.39217 0.0
H646 H 0.21494 0.1364 0.40702 0.0
C647 C 0.22169 0.0759 0.30817 0.0
C648 C 0.23282 0.10081 0.25834 0.0
H649 H 0.19848 0.05292 0.42748 0.0
H650 H 0.22277 0.05856 0.28036 0.0
C651 C 0.23069 0.12266 0.29675 0.0
C652 C 0.89161 0.08876 0.34119 0.0
C653 C 0.90374 0.10588 0.41889 0.0
H654 H 0.87788 0.08534 0.20025 0.0
C655 C 0.91259 0.13409 0.41005 0.0
H656 H 0.88441 0.06696 0.34529 0.0
C657 C 0.90914 0.14472 0.32592 0.0
C658 C 0.89589 0.12722 0.25037 0.0
H659 H 0.92099 0.14792 0.46854 0.0
H660 H 0.91606 0.16644 0.32082 0.0
C661 C 0.88748 0.09922 0.25841 0.0
C662 C 0.84945 0.77082 0.31407 0.0
C663 C 0.86333 0.75986 0.26392 0.0
H664 H 0.84959 0.79386 0.43377 0.0
C665 C 0.88733 0.76202 0.30217 0.0
H666 H 0.831 0.7697 0.28641 0.0
C667 C 0.89805 0.77613 0.38556 0.0
C668 C 0.88489 0.78814 0.43338 0.0
H669 H 0.89853 0.7538 0.26576 0.0
H670 H 0.91684 0.7778 0.41234 0.0
C671 C 0.86016 0.78483 0.39814 0.0
C672 C 0.76946 0.54384 0.06918 0.0
C673 C 0.76644 0.56708 0.07637 0.0
H674 H 0.76716 0.51201 0.98214 0.0
C675 C 0.75776 0.57569 0.99833 0.0
H676 H 0.77544 0.53632 0.12927 0.0
C677 C 0.75344 0.56201 0.91291 0.0
C678 C 0.75668 0.53876 0.90492 0.0
H679 H 0.75507 0.59344 0.00278 0.0
H680 H 0.74866 0.57061 0.85355 0.0
C681 C 0.7644 0.52973 0.98493 0.0
C682 C 0.45297 0.2308 0.0735 0.0
C683 C 0.43376 0.20269 0.08152 0.0
H684 H 0.48183 0.2633 0.98669 0.0
C685 C 0.42986 0.18529 0.00597 0.0
H686 H 0.45698 0.24462 0.13163 0.0
C687 C 0.44389 0.19608 0.92192 0.0
C688 C 0.46289 0.22438 0.91315 0.0
H689 H 0.41535 0.1635 0.01103 0.0
H690 H 0.4387 0.18228 0.86343 0.0
C691 C 0.46752 0.24143 0.99078 0.0
C692 C 0.79915 0.25763 0.94151 0.0
C693 C 0.7747 0.23593 0.90569 0.0
H694 H 0.82824 0.27193 0.0535 0.0
C695 C 0.76194 0.21067 0.95312 0.0
H696 H 0.80939 0.2773 0.90636 0.0
C697 C 0.77281 0.20742 0.03647 0.0
C698 C 0.79656 0.22946 0.07509 0.0
H699 H 0.74338 0.19336 0.92602 0.0
H700 H 0.76192 0.1879 0.07246 0.0
C701 C 0.81 0.25443 0.0255 0.0
C702 C 0.87418 0.40607 0.72252 0.0
C703 C 0.8714 0.42779 0.75819 0.0
H704 H 0.88896 0.39171 0.61064 0.0
C705 C 0.88387 0.45302 0.71061 0.0
H706 H 0.86478 0.38642 0.75779 0.0
C707 C 0.89796 0.45623 0.62726 0.0
C708 C 0.89968 0.43416 0.58877 0.0
H709 H 0.8826 0.47036 0.73759 0.0
H710 H 0.90656 0.47573 0.59114 0.0
C711 C 0.8882 0.40922 0.63852 0.0
C712 C 0.57945 0.46794 0.74626 0.0
C713 C 0.57115 0.43984 0.75466 0.0
H714 H 0.5825 0.50017 0.65732 0.0
C715 C 0.55947 0.42279 0.67651 0.0
H716 H 0.58744 0.4817 0.80506 0.0
C717 C 0.55533 0.4332 0.59363 0.0
C718 C 0.56324 0.46109 0.586 0.0
H719 H 0.5527 0.40107 0.68024 0.0
H720 H 0.54612 0.41939 0.53506 0.0
C721 C 0.57599 0.47853 0.66208 0.0
C722 C 0.55677 0.11944 0.5967 0.0
C723 C 0.53052 0.09623 0.58937 0.0
H724 H 0.58621 0.15128 0.6838 0.0
C725 C 0.51317 0.0877 0.66721 0.0
H726 H 0.57032 0.12691 0.53676 0.0
C727 C 0.52244 0.10142 0.75261 0.0
C728 C 0.54893 0.12463 0.76076 0.0
H729 H 0.49273 0.06998 0.66264 0.0
H730 H 0.50901 0.09288 0.81183 0.0
C731 C 0.56573 0.13359 0.68091 0.0
C732 C 0.40991 0.89281 0.35106 0.0
C733 C 0.43469 0.90356 0.40134 0.0
H734 H 0.38698 0.8699 0.23129 0.0
C735 C 0.4564 0.90113 0.36326 0.0
H736 H 0.39268 0.89414 0.37859 0.0
C737 C 0.45294 0.88698 0.27989 0.0
C738 C 0.42782 0.8752 0.23191 0.0
H739 H 0.47578 0.90917 0.39978 0.0
H740 H 0.46996 0.88511 0.25323 0.0
C741 C 0.40652 0.87876 0.26702 0.0
C742 C 0.12094 0.56325 0.40693 0.0
C743 C 0.10114 0.53533 0.41482 0.0
H744 H 0.15028 0.59539 0.3201 0.0
C745 C 0.09666 0.51782 0.33909 0.0
H746 H 0.12539 0.57713 0.46523 0.0
C747 C 0.11073 0.52838 0.25494 0.0
C748 C 0.1303 0.55652 0.24626 0.0
H749 H 0.08169 0.49615 0.34407 0.0
H750 H 0.10512 0.51457 0.19631 0.0
C751 C 0.13551 0.57364 0.3241 0.0
C752 C 0.47857 0.58784 0.35938 0.0
C753 C 0.46469 0.56294 0.40919 0.0
H754 H 0.47848 0.61092 0.2401 0.0
C755 C 0.44067 0.54119 0.37076 0.0
H756 H 0.49703 0.60511 0.38721 0.0
C757 C 0.42999 0.5447 0.28741 0.0
C758 C 0.44318 0.56992 0.23977 0.0
H759 H 0.42945 0.52173 0.40692 0.0
H760 H 0.41121 0.52762 0.26048 0.0
C761 C 0.46789 0.59129 0.27539 0.0
C762 C 0.55327 0.78736 0.0457 0.0
C763 C 0.5406 0.76203 0.09259 0.0
H764 H 0.57605 0.81017 0.92655 0.0
C765 C 0.54317 0.74025 0.05639 0.0
H766 H 0.55217 0.80473 0.07323 0.0
C767 C 0.55713 0.74342 0.97225 0.0
C768 C 0.56874 0.76845 0.92302 0.0
H769 H 0.53363 0.72053 0.0913 0.0
H770 H 0.55768 0.72586 0.94378 0.0
C771 C 0.56731 0.7906 0.96225 0.0
C772 C 0.25526 0.80282 0.06491 0.0
C773 C 0.23401 0.778 0.1004 0.0
H774 H 0.26896 0.83191 0.95288 0.0
C775 C 0.20883 0.76463 0.05284 0.0
H776 H 0.27484 0.81355 0.10039 0.0
C777 C 0.20526 0.77521 0.96939 0.0
C778 C 0.22693 0.79929 0.93084 0.0
H779 H 0.19185 0.74577 0.07985 0.0
H780 H 0.18585 0.76384 0.93315 0.0
C781 C 0.25176 0.81339 0.98079 0.0
C782 C 0.2251 0.45339 0.92958 0.0
C783 C 0.19917 0.42973 0.9226 0.0
H784 H 0.25414 0.48564 0.01643 0.0
C785 C 0.18193 0.4208 0.00074 0.0
H786 H 0.23854 0.46115 0.86942 0.0
C787 C 0.19105 0.43459 0.08608 0.0
C788 C 0.21723 0.45826 0.09387 0.0
H789 H 0.16174 0.40272 0.99645 0.0
H790 H 0.17779 0.42577 0.14557 0.0
C791 C 0.23389 0.4676 0.01375 0.0
C792 C 0.15369 0.33892 0.38747 0.0
C793 C 0.1824 0.35427 0.39247 0.0
H794 H 0.11864 0.30396 0.3279 0.0
C795 C 0.19808 0.34581 0.3406 0.0
H796 H 0.14122 0.34515 0.42664 0.0
C797 C 0.18523 0.32286 0.2821 0.0
C798 C 0.15656 0.30792 0.27582 0.0
H799 H 0.22027 0.35709 0.34478 0.0
H800 H 0.1976 0.31647 0.24319 0.0
C801 C 0.14085 0.31579 0.32998 0.0
C802 C 0.67803 0.86635 0.31496 0.0
C803 C 0.68713 0.85026 0.26916 0.0
H804 H 0.64809 0.86671 0.40742 0.0
C805 C 0.67262 0.82169 0.2811 0.0
H806 H 0.68876 0.88842 0.30573 0.0
C807 C 0.64958 0.80941 0.33915 0.0
C808 C 0.64092 0.82556 0.38665 0.0
H809 H 0.67943 0.80895 0.2469 0.0
H810 H 0.63837 0.78727 0.34657 0.0
C811 C 0.65507 0.85407 0.37358 0.0
C812 C 0.14322 0.79644 0.34761 0.0
C813 C 0.16808 0.81221 0.39552 0.0
H814 H 0.11355 0.79669 0.25352 0.0
C815 C 0.18218 0.84086 0.38562 0.0
H816 H 0.1318 0.77433 0.35541 0.0
C817 C 0.17179 0.85352 0.3276 0.0
C818 C 0.14734 0.83769 0.27799 0.0
H819 H 0.20147 0.85337 0.42146 0.0
H820 H 0.18274 0.8757 0.32186 0.0
C821 C 0.13294 0.8091 0.28893 0.0
C822 C 0.33207 0.15612 0.58733 0.0
C823 C 0.35275 0.18297 0.60777 0.0
H824 H 0.29242 0.1227 0.62419 0.0
C825 C 0.34862 0.1973 0.68073 0.0
H826 H 0.33479 0.14459 0.53187 0.0
C827 C 0.32492 0.18445 0.73574 0.0
C828 C 0.30462 0.1574 0.71652 0.0
H829 H 0.36413 0.21823 0.69676 0.0
H830 H 0.32228 0.19571 0.79229 0.0
C831 C 0.30811 0.14352 0.64085 0.0
C832 C 0.81617 0.13297 0.65296 0.0
C833 C 0.83504 0.14744 0.72467 0.0
H834 H 0.79107 0.13446 0.54243 0.0
C835 C 0.84163 0.17449 0.74408 0.0
H836 H 0.8104 0.11188 0.63786 0.0
C837 C 0.83025 0.18712 0.69069 0.0
C838 C 0.81248 0.17307 0.61614 0.0
H839 H 0.85616 0.1861 0.79867 0.0
H840 H 0.83566 0.20807 0.7066 0.0
C841 C 0.80531 0.14584 0.59802 0.0
C842 C 0.82091 0.67379 0.71607 0.0
C843 C 0.8495 0.68788 0.72725 0.0
H844 H 0.78607 0.64003 0.65055 0.0
C845 C 0.86518 0.67859 0.67973 0.0
H846 H 0.80849 0.68074 0.75158 0.0
C847 C 0.85249 0.6559 0.62011 0.0
C848 C 0.82397 0.64216 0.60791 0.0
H849 H 0.88723 0.68894 0.68851 0.0
H850 H 0.86481 0.64874 0.58507 0.0
C851 C 0.80822 0.65096 0.65719 0.0
C852 C 0.99212 0.51764 0.06648 0.0
C853 C 0.97195 0.49049 0.04789 0.0
H854 H 0.0313 0.55144 0.02728 0.0
C855 C 0.97561 0.47645 0.97312 0.0
H856 H 0.98933 0.52901 0.12228 0.0
C857 C -0.00034 0.48899 0.91999 0.0
C858 C 0.02022 0.51594 0.93988 0.0
H859 H 0.96 0.45557 0.95686 0.0
H860 H 0.00251 0.47737 0.86525 0.0
C861 C 0.01589 0.53042 0.0118 0.0
C862 C 0.47173 0.4786 0.93467 0.0
C863 C 0.4796 0.50612 0.95078 0.0
H864 H 0.47616 0.44439 0.97654 0.0
C865 C 0.49787 0.52039 0.0239 0.0
H866 H 0.45709 0.46707 0.88026 0.0
C867 C 0.5091 0.5077 0.07771 0.0
C868 C 0.50184 0.48037 0.06021 0.0
H869 H 0.50379 0.54156 0.03835 0.0
H870 H 0.52404 0.51947 0.13109 0.0
C871 C 0.48244 0.46568 0.99011 0.0
C872 C 0.52752 0.00711 0.04724 0.0
C873 C 0.51297 0.02116 0.05765 0.0
H874 H 0.52925 0.97392 0.97996 0.0
C875 C 0.48878 0.01268 0.00655 0.0
H876 H 0.54676 0.01404 0.08362 0.0
C877 C 0.47875 0.98984 0.94776 0.0
C878 C 0.49299 0.97541 0.9384 0.0
H879 H 0.47776 0.02386 0.01176 0.0
H880 H 0.45962 0.98313 0.91089 0.0
C881 C 0.51765 0.98443 0.98758 0.0
C882 C 0.15194 0.16034 0.09371 0.0
C883 C 0.14153 0.17133 0.02805 0.0
H884 H 0.17375 0.1387 0.11645 0.0
C885 C 0.14467 0.16801 0.93236 0.0
H886 H 0.14986 0.16263 0.16786 0.0
C887 C 0.1579 0.1539 0.90289 0.0
C888 C 0.16876 0.14336 0.96854 0.0
H889 H 0.1367 0.17614 0.88014 0.0
H890 H 0.16003 0.15165 0.82874 0.0
C891 C 0.16569 0.14675 0.06423 0.0
C892 C 0.8282 0.97682 0.92885 0.0
C893 C 0.82498 0.97007 0.02432 0.0
H894 H 0.84403 0.00891 0.82638 0.0
C895 C 0.83571 0.99125 0.09071 0.0
H896 H 0.82024 0.96088 0.87612 0.0
C897 C 0.84887 0.01865 0.06226 0.0
C898 C 0.85206 0.02542 0.96683 0.0
H899 H 0.83347 0.98666 0.16473 0.0
H900 H 0.85667 0.03456 0.1151 0.0
C901 C 0.8419 0.00426 0.90035 0.0
C902 C 0.9915 0.83597 0.90827 0.0
C903 C 0.97017 0.82519 0.9742 0.0
H904 H 0.03487 0.85711 0.8849 0.0
C905 C 0.97672 0.82833 0.06979 0.0
H906 H 0.98706 0.83376 0.83417 0.0
C907 C 0.00409 0.84209 0.09889 0.0
C908 C 0.0254 0.85243 0.03293 0.0
H909 H 0.96069 0.82032 0.12219 0.0
H910 H 0.00854 0.84424 0.17298 0.0
C911 C 0.01885 0.8492 0.93735 0.0
C912 C 0.83972 0.83365 0.90368 0.0
C913 C 0.85025 0.82282 0.96927 0.0
H914 H 0.81761 0.85492 0.88096 0.0
C915 C 0.84689 0.82599 0.06514 0.0
H916 H 0.84194 0.83147 0.82955 0.0
C917 C 0.83335 0.83978 0.09481 0.0
C918 C 0.8224 0.85019 0.02923 0.0
H919 H 0.85493 0.81797 0.11753 0.0
H920 H 0.83109 0.84192 0.16895 0.0
C921 C 0.8257 0.84696 0.93336 0.0
C922 C 0.15876 0.00357 0.90446 0.0
C923 C 0.1698 0.02533 0.96839 0.0
H924 H 0.13777 0.96007 0.88504 0.0
C925 C 0.16707 0.01942 0.06475 0.0
H926 H 0.16059 0.00749 0.83001 0.0
C927 C 0.15365 0.99229 0.09652 0.0
C928 C 0.14316 0.97053 0.03257 0.0
H929 H 0.17525 0.0358 0.1159 0.0
H930 H 0.15195 0.98837 0.17096 0.0
C931 C 0.14582 0.97645 0.93621 0.0
C932 C 0.97489 0.1468 0.05928 0.0
C933 C 0.96916 0.14416 0.96281 0.0
H934 H 0.00574 0.16206 0.16608 0.0
C935 C 0.99102 0.15521 0.89929 0.0
H936 H 0.95843 0.13831 0.11012 0.0
C937 C 0.01807 0.16914 0.93157 0.0
C938 C 0.02382 0.17185 0.02804 0.0
H939 H 0.98725 0.15353 0.82477 0.0
H940 H 0.03452 0.17769 0.88068 0.0
C941 C 0.00196 0.16028 0.09156 0.0
C942 C 0.83359 0.48112 0.39531 0.0
C943 C 0.83646 0.47765 0.29953 0.0
H944 H 0.81791 0.49703 0.49939 0.0
C945 C 0.82537 0.48803 0.23418 0.0
H946 H 0.84181 0.47317 0.44732 0.0
C947 C 0.81211 0.50208 0.26403 0.0
C948 C 0.80918 0.50548 0.35982 0.0
H949 H 0.82732 0.4857 0.15998 0.0
H950 H 0.80395 0.51008 0.21203 0.0
C951 C 0.81982 0.49465 0.42519 0.0
C952 C 0.51677 0.35264 0.39997 0.0
C953 C 0.52001 0.35929 0.30439 0.0
H954 H 0.50083 0.32072 0.50293 0.0
C955 C 0.5096 0.33805 0.23826 0.0
H956 H 0.52476 0.36862 0.45255 0.0
C957 C 0.49553 0.31067 0.26717 0.0
C958 C 0.49211 0.30402 0.36275 0.0
H959 H 0.51177 0.34258 0.16421 0.0
H960 H 0.48736 0.29469 0.21459 0.0
C961 C 0.50319 0.32525 0.42888 0.0
C962 C 0.6835 0.18249 0.2691 0.0
C963 C 0.68994 0.18605 0.3648 0.0
H964 H 0.65183 0.1664 0.1654 0.0
C965 C 0.66854 0.17563 0.43041 0.0
H966 H 0.6996 0.19045 0.21691 0.0
C967 C 0.64123 0.16147 0.40088 0.0
C968 C 0.6348 0.15797 0.30517 0.0
H969 H 0.67289 0.17802 0.50456 0.0
H970 H 0.62513 0.15344 0.45308 0.0
C971 C 0.65619 0.16883 0.23955 0.0
C972 C 0.51297 0.15938 0.40448 0.0
C973 C 0.51616 0.15665 0.30816 0.0
H974 H 0.49774 0.17522 0.51056 0.0
C975 C 0.50605 0.16829 0.24416 0.0
H976 H 0.52073 0.15075 0.45567 0.0
C977 C 0.49255 0.18192 0.27578 0.0
C978 C 0.48934 0.18464 0.37208 0.0
H979 H 0.50819 0.1665 0.16972 0.0
H980 H 0.48476 0.1905 0.22455 0.0
C981 C 0.49992 0.17347 0.43613 0.0
C982 C 0.81079 0.31028 0.26802 0.0
C983 C 0.80799 0.3045 0.36447 0.0
H984 H 0.82622 0.34117 0.16129 0.0
C985 C 0.81881 0.32635 0.42806 0.0
H986 H 0.8025 0.29382 0.21714 0.0
C987 C 0.83276 0.35342 0.39584 0.0
C988 C 0.83568 0.3592 0.29938 0.0
H989 H 0.81701 0.32253 0.50258 0.0
H990 H 0.84121 0.36988 0.44673 0.0
C991 C 0.82427 0.33736 0.2358 0.0
C992 C 0.68564 0.50383 0.26247 0.0
C993 C 0.69169 0.50666 0.35868 0.0
H994 H 0.65443 0.48794 0.15694 0.0
C995 C 0.67005 0.49515 0.42307 0.0
H996 H 0.70193 0.51236 0.21101 0.0
C997 C 0.64289 0.48155 0.39192 0.0
C998 C 0.63682 0.47872 0.29572 0.0
H999 H 0.67409 0.49703 0.49744 0.0
H1000 H 0.6266 0.47308 0.44342 0.0
C1001 C 0.65847 0.48977 0.23129 0.0
C1002 C 0.50062 0.81399 0.72768 0.0
C1003 C 0.50398 0.8108 0.6321 0.0
H1004 H 0.4842 0.82937 0.83092 0.0
C1005 C 0.4929 0.82106 0.56617 0.0
H1006 H 0.5088 0.80613 0.78011 0.0
C1007 C 0.47921 0.83475 0.59531 0.0
C1008 C 0.47582 0.8379 0.69091 0.0
H1009 H 0.49522 0.81892 0.49207 0.0
H1010 H 0.47114 0.84273 0.54293 0.0
C1011 C 0.48642 0.82716 0.75681 0.0
C1012 C 0.1773 0.67131 0.57442 0.0
C1013 C 0.18729 0.69248 0.64082 0.0
H1014 H 0.15553 0.62799 0.54994 0.0
C1015 C 0.18366 0.6857 0.73628 0.0
H1016 H 0.17974 0.6759 0.50041 0.0
C1017 C 0.17019 0.65825 0.76473 0.0
C1018 C 0.15959 0.63709 0.6982 0.0
H1019 H 0.19129 0.70162 0.78904 0.0
H1020 H 0.16754 0.65359 0.83868 0.0
C1021 C 0.16334 0.64389 0.60281 0.0
C1022 C 0.32457 0.50382 0.57344 0.0
C1023 C 0.30315 0.49291 0.63895 0.0
H1024 H 0.36799 0.52539 0.55102 0.0
C1025 C 0.30953 0.49644 0.73469 0.0
H1026 H 0.32025 0.50136 0.49926 0.0
C1027 C 0.33683 0.51059 0.76436 0.0
C1028 C 0.35826 0.52095 0.69886 0.0
H1029 H 0.2934 0.48837 0.78678 0.0
H1030 H 0.34115 0.51294 0.83853 0.0
C1031 C 0.35187 0.51746 0.60312 0.0
C1032 C 0.15984 0.51442 0.60777 0.0
C1033 C 0.15668 0.51721 0.70407 0.0
H1034 H 0.17546 0.49894 0.50178 0.0
C1035 C 0.16718 0.50597 0.76815 0.0
H1036 H 0.15209 0.52303 0.55651 0.0
C1037 C 0.18017 0.49181 0.73656 0.0
C1038 C 0.18339 0.48907 0.64026 0.0
H1039 H 0.16502 0.50775 0.84257 0.0
H1040 H 0.18792 0.4832 0.78782 0.0
C1041 C 0.1733 0.50072 0.5762 0.0
C1042 C 0.48758 0.66031 0.76183 0.0
C1043 C 0.47703 0.63846 0.69825 0.0
H1044 H 0.50968 0.70383 0.78056 0.0
C1045 C 0.48014 0.64424 0.60179 0.0
H1046 H 0.48554 0.65649 0.83634 0.0
C1047 C 0.49359 0.67133 0.56958 0.0
C1048 C 0.50466 0.69317 0.6332 0.0
H1049 H 0.47206 0.62779 0.55089 0.0
H1050 H 0.49575 0.67515 0.49508 0.0
C1051 C 0.50149 0.68738 0.72965 0.0
C1052 C 0.30992 0.81649 0.73192 0.0
C1053 C 0.30339 0.81323 0.63604 0.0
H1054 H 0.34163 0.83208 0.83573 0.0
C1055 C 0.32474 0.8238 0.57047 0.0
H1056 H 0.29388 0.80842 0.78431 0.0
C1057 C 0.35206 0.83772 0.60015 0.0
C1058 C 0.35858 0.84086 0.69602 0.0
H1059 H 0.32035 0.82165 0.49633 0.0
H1060 H 0.3681 0.84582 0.54776 0.0
C1061 C 0.33724 0.82993 0.76159 0.0
loop_
_geom_bond_atom_site_label_1
_geom_bond_atom_site_label_2
_geom_bond_distance
_geom_bond_site_symmetry_2
_ccdc_geom_bond_type
Co0 O3 1.970 . S
Co0 N17 1.989 . S
Co0 O25 1.967 . S
Co0 O32 1.920 1_554 S
Co1 O4 1.966 . S
Co1 N10 2.022 . S
Co1 N18 1.993 . S
Co1 O26 1.941 . S
C2 O3 1.258 . S
C2 O4 1.263 . S
O3 Co0 1.970 . S
O3 C2 1.258 . S
O4 Co1 1.966 . S
O4 C2 1.263 . S
C5 O6 1.235 . S
C5 O32 1.289 . S
O6 C5 1.235 . S
C7 C9 1.400 . S
C7 N10 1.351 . S
C7 C12 1.501 . S
C8 C9 1.387 . S
C8 N11 1.341 . S
C9 C7 1.400 . S
C9 C8 1.387 . S
N10 Co1 2.022 . S
N10 C7 1.351 . S
N10 N11 1.365 . S
N11 C8 1.341 . S
N11 N10 1.365 . S
N11 H31 0.862 . S
C12 C7 1.501 . S
C12 H13 0.961 . S
C12 H14 0.961 . S
C12 H15 0.960 . S
H13 C12 0.961 . S
H14 C12 0.961 . S
H15 C12 0.960 . S
C16 N17 1.342 . S
C16 C20 1.401 . S
C16 C21 1.499 . S
N17 Co0 1.989 . S
N17 C16 1.342 . S
N17 N18 1.388 . S
N18 Co1 1.993 . S
N18 N17 1.388 . S
N18 C19 1.346 . S
C19 N18 1.346 . S
C19 C20 1.396 . S
C19 C29 1.510 . S
C20 C16 1.401 . S
C20 C19 1.396 . S
C21 C16 1.499 . S
C21 H22 0.959 1_554 S
C21 H23 0.960 . S
C21 H24 0.961 . S
H22 C21 0.959 1_556 S
H23 C21 0.960 . S
H24 C21 0.961 . S
O25 Co0 1.967 . S
O25 C33 1.258 . S
O26 Co1 1.941 . S
O26 C33 1.266 . S
H27 C29 0.959 . S
H28 C29 0.961 . S
C29 C19 1.510 . S
C29 H27 0.959 . S
C29 H28 0.961 . S
C29 H30 0.960 . S
H30 C29 0.960 . S
H31 N11 0.862 . S
O32 Co0 1.920 1_556 S
O32 C5 1.289 . S
C33 O25 1.258 . S
C33 O26 1.266 . S
Co34 O37 1.970 . S
Co34 N51 1.989 . S
Co34 O59 1.967 . S
Co34 O66 1.920 1_554 S
Co35 O38 1.966 . S
Co35 N44 2.022 . S
Co35 N52 1.993 . S
Co35 O60 1.941 . S
C36 O37 1.258 . S
C36 O38 1.263 . S
O37 Co34 1.970 . S
O37 C36 1.258 . S
O38 Co35 1.966 . S
O38 C36 1.263 . S
C39 O40 1.235 . S
C39 O66 1.289 . S
O40 C39 1.235 . S
C41 C43 1.400 . S
C41 N44 1.351 . S
C41 C46 1.501 . S
C42 C43 1.387 . S
C42 N45 1.341 . S
C43 C41 1.400 . S
C43 C42 1.387 . S
N44 Co35 2.022 . S
N44 C41 1.351 . S
N44 N45 1.365 . S
N45 C42 1.341 . S
N45 N44 1.365 . S
N45 H65 0.862 . S
C46 C41 1.501 . S
C46 H47 0.961 . S
C46 H48 0.961 . S
C46 H49 0.960 . S
H47 C46 0.961 . S
H48 C46 0.961 . S
H49 C46 0.960 . S
C50 N51 1.342 . S
C50 C54 1.401 . S
C50 C55 1.499 . S
N51 Co34 1.989 . S
N51 C50 1.342 . S
N51 N52 1.388 . S
N52 Co35 1.993 . S
N52 N51 1.388 . S
N52 C53 1.346 . S
C53 N52 1.346 . S
C53 C54 1.396 . S
C53 C63 1.510 . S
C54 C50 1.401 . S
C54 C53 1.396 . S
C55 C50 1.499 . S
C55 H56 0.959 1_554 S
C55 H57 0.960 . S
C55 H58 0.961 . S
H56 C55 0.959 1_556 S
H57 C55 0.960 . S
H58 C55 0.961 . S
O59 Co34 1.967 . S
O59 C67 1.258 . S
O60 Co35 1.941 . S
O60 C67 1.266 . S
H61 C63 0.959 . S
H62 C63 0.961 . S
C63 C53 1.510 . S
C63 H61 0.959 . S
C63 H62 0.961 . S
C63 H64 0.960 . S
H64 C63 0.960 . S
H65 N45 0.862 . S
O66 Co34 1.920 1_556 S
O66 C39 1.289 . S
C67 O59 1.258 . S
C67 O60 1.266 . S
Co68 O71 1.970 . S
Co68 N85 1.989 . S
Co68 O93 1.967 . S
Co68 O100 1.920 1_554 S
Co69 O72 1.966 . S
Co69 N78 2.022 . S
Co69 N86 1.993 . S
Co69 O94 1.941 . S
C70 O71 1.258 . S
C70 O72 1.263 . S
O71 Co68 1.970 . S
O71 C70 1.258 . S
O72 Co69 1.966 . S
O72 C70 1.263 . S
C73 O74 1.235 . S
C73 O100 1.289 . S
O74 C73 1.235 . S
C75 C77 1.400 . S
C75 N78 1.351 . S
C75 C80 1.501 . S
C76 C77 1.387 . S
C76 N79 1.341 . S
C77 C75 1.400 . S
C77 C76 1.387 . S
N78 Co69 2.022 . S
N78 C75 1.351 . S
N78 N79 1.365 . S
N79 C76 1.341 . S
N79 N78 1.365 . S
N79 H99 0.862 . S
C80 C75 1.501 . S
C80 H81 0.961 . S
C80 H82 0.961 . S
C80 H83 0.960 . S
H81 C80 0.961 . S
H82 C80 0.961 . S
H83 C80 0.960 . S
C84 N85 1.342 . S
C84 C88 1.401 . S
C84 C89 1.499 . S
N85 Co68 1.989 . S
N85 C84 1.342 . S
N85 N86 1.388 . S
N86 Co69 1.993 . S
N86 N85 1.388 . S
N86 C87 1.346 . S
C87 N86 1.346 . S
C87 C88 1.396 . S
C87 C97 1.510 . S
C88 C84 1.401 . S
C88 C87 1.396 . S
C89 C84 1.499 . S
C89 H90 0.959 1_554 S
C89 H91 0.960 . S
C89 H92 0.961 . S
H90 C89 0.959 1_556 S
H91 C89 0.960 . S
H92 C89 0.961 . S
O93 Co68 1.967 . S
O93 C101 1.258 . S
O94 Co69 1.941 . S
O94 C101 1.266 . S
H95 C97 0.959 . S
H96 C97 0.961 . S
C97 C87 1.510 . S
C97 H95 0.959 . S
C97 H96 0.961 . S
C97 H98 0.960 . S
H98 C97 0.960 . S
H99 N79 0.862 . S
O100 Co68 1.920 1_556 S
O100 C73 1.289 . S
C101 O93 1.258 . S
C101 O94 1.266 . S
Co102 O105 1.970 . S
Co102 N119 1.989 . S
Co102 O127 1.967 . S
Co102 O134 1.920 1_556 S
Co103 O106 1.966 . S
Co103 N112 2.022 . S
Co103 N120 1.993 . S
Co103 O128 1.941 . S
C104 O105 1.258 . S
C104 O106 1.263 . S
O105 Co102 1.970 . S
O105 C104 1.258 . S
O106 Co103 1.966 . S
O106 C104 1.263 . S
C107 O108 1.235 . S
C107 O134 1.289 . S
O108 C107 1.235 . S
C109 C111 1.400 . S
C109 N112 1.351 . S
C109 C114 1.501 . S
C110 C111 1.387 . S
C110 N113 1.341 . S
C111 C109 1.400 . S
C111 C110 1.387 . S
N112 Co103 2.022 . S
N112 C109 1.351 . S
N112 N113 1.365 . S
N113 C110 1.341 . S
N113 N112 1.365 . S
N113 H133 0.862 . S
C114 C109 1.501 . S
C114 H115 0.961 . S
C114 H116 0.961 . S
C114 H117 0.960 . S
H115 C114 0.961 . S
H116 C114 0.961 . S
H117 C114 0.960 . S
C118 N119 1.342 . S
C118 C122 1.401 . S
C118 C123 1.499 . S
N119 Co102 1.989 . S
N119 C118 1.342 . S
N119 N120 1.388 . S
N120 Co103 1.993 . S
N120 N119 1.388 . S
N120 C121 1.346 . S
C121 N120 1.346 . S
C121 C122 1.396 . S
C121 C131 1.510 . S
C122 C118 1.401 . S
C122 C121 1.396 . S
C123 C118 1.499 . S
C123 H124 0.959 1_556 S
C123 H125 0.960 . S
C123 H126 0.961 . S
H124 C123 0.959 1_554 S
H125 C123 0.960 . S
H126 C123 0.961 . S
O127 Co102 1.967 . S
O127 C135 1.258 . S
O128 Co103 1.941 . S
O128 C135 1.266 . S
H129 C131 0.959 . S
H130 C131 0.961 . S
C131 C121 1.510 . S
C131 H129 0.959 . S
C131 H130 0.961 . S
C131 H132 0.960 . S
H132 C131 0.960 . S
H133 N113 0.862 . S
O134 Co102 1.920 1_554 S
O134 C107 1.289 . S
C135 O127 1.258 . S
C135 O128 1.266 . S
Co136 O139 1.970 . S
Co136 N153 1.989 . S
Co136 O161 1.967 . S
Co136 O168 1.920 1_556 S
Co137 O140 1.966 . S
Co137 N146 2.022 . S
Co137 N154 1.993 . S
Co137 O162 1.941 . S
C138 O139 1.258 . S
C138 O140 1.263 . S
O139 Co136 1.970 . S
O139 C138 1.258 . S
O140 Co137 1.966 . S
O140 C138 1.263 . S
C141 O142 1.235 . S
C141 O168 1.289 . S
O142 C141 1.235 . S
C143 C145 1.400 . S
C143 N146 1.351 . S
C143 C148 1.501 . S
C144 C145 1.387 . S
C144 N147 1.341 . S
C145 C143 1.400 . S
C145 C144 1.387 . S
N146 Co137 2.022 . S
N146 C143 1.351 . S
N146 N147 1.365 . S
N147 C144 1.341 . S
N147 N146 1.365 . S
N147 H167 0.862 . S
C148 C143 1.501 . S
C148 H149 0.961 . S
C148 H150 0.961 . S
C148 H151 0.960 . S
H149 C148 0.961 . S
H150 C148 0.961 . S
H151 C148 0.960 . S
C152 N153 1.342 . S
C152 C156 1.401 . S
C152 C157 1.499 . S
N153 Co136 1.989 . S
N153 C152 1.342 . S
N153 N154 1.388 . S
N154 Co137 1.993 . S
N154 N153 1.388 . S
N154 C155 1.346 . S
C155 N154 1.346 . S
C155 C156 1.396 . S
C155 C165 1.510 . S
C156 C152 1.401 . S
C156 C155 1.396 . S
C157 C152 1.499 . S
C157 H158 0.959 1_556 S
C157 H159 0.960 . S
C157 H160 0.961 . S
H158 C157 0.959 1_554 S
H159 C157 0.960 . S
H160 C157 0.961 . S
O161 Co136 1.967 . S
O161 C169 1.258 . S
O162 Co137 1.941 . S
O162 C169 1.266 . S
H163 C165 0.959 . S
H164 C165 0.961 . S
C165 C155 1.510 . S
C165 H163 0.959 . S
C165 H164 0.961 . S
C165 H166 0.960 . S
H166 C165 0.960 . S
H167 N147 0.862 . S
O168 Co136 1.920 1_554 S
O168 C141 1.289 . S
C169 O161 1.258 . S
C169 O162 1.266 . S
Co170 O173 1.970 . S
Co170 N187 1.989 . S
Co170 O195 1.967 . S
Co170 O202 1.920 1_556 S
Co171 O174 1.966 . S
Co171 N180 2.022 . S
Co171 N188 1.993 . S
Co171 O196 1.941 . S
C172 O173 1.258 . S
C172 O174 1.263 . S
O173 Co170 1.970 . S
O173 C172 1.258 . S
O174 Co171 1.966 . S
O174 C172 1.263 . S
C175 O176 1.235 . S
C175 O202 1.289 . S
O176 C175 1.235 . S
C177 C179 1.400 . S
C177 N180 1.351 . S
C177 C182 1.501 . S
C178 C179 1.387 . S
C178 N181 1.341 . S
C179 C177 1.400 . S
C179 C178 1.387 . S
N180 Co171 2.022 . S
N180 C177 1.351 . S
N180 N181 1.365 . S
N181 C178 1.341 . S
N181 N180 1.365 . S
N181 H201 0.862 . S
C182 C177 1.501 . S
C182 H183 0.961 . S
C182 H184 0.961 . S
C182 H185 0.960 . S
H183 C182 0.961 . S
H184 C182 0.961 . S
H185 C182 0.960 . S
C186 N187 1.342 . S
C186 C190 1.401 . S
C186 C191 1.499 . S
N187 Co170 1.989 . S
N187 C186 1.342 . S
N187 N188 1.388 . S
N188 Co171 1.993 . S
N188 N187 1.388 . S
N188 C189 1.346 . S
C189 N188 1.346 . S
C189 C190 1.396 . S
C189 C199 1.510 . S
C190 C186 1.401 . S
C190 C189 1.396 . S
C191 C186 1.499 . S
C191 H192 0.959 1_556 S
C191 H193 0.960 . S
C191 H194 0.961 . S
H192 C191 0.959 1_554 S
H193 C191 0.960 . S
H194 C191 0.961 . S
O195 Co170 1.967 . S
O195 C203 1.258 . S
O196 Co171 1.941 . S
O196 C203 1.266 . S
H197 C199 0.959 . S
H198 C199 0.961 . S
C199 C189 1.510 . S
C199 H197 0.959 . S
C199 H198 0.961 . S
C199 H200 0.960 . S
H200 C199 0.960 . S
H201 N181 0.862 . S
O202 Co170 1.920 1_554 S
O202 C175 1.289 . S
C203 O195 1.258 . S
C203 O196 1.266 . S
Co204 O207 1.970 . S
Co204 N221 1.989 . S
Co204 O229 1.967 . S
Co204 O236 1.920 . S
Co205 O208 1.966 . S
Co205 N214 2.022 . S
Co205 N222 1.993 . S
Co205 O230 1.941 . S
C206 O207 1.258 . S
C206 O208 1.263 . S
O207 Co204 1.970 . S
O207 C206 1.258 . S
O208 Co205 1.966 . S
O208 C206 1.263 . S
C209 O210 1.235 . S
C209 O236 1.289 . S
O210 C209 1.235 . S
C211 C213 1.400 . S
C211 N214 1.351 . S
C211 C216 1.501 . S
C212 C213 1.387 . S
C212 N215 1.341 . S
C213 C211 1.400 . S
C213 C212 1.387 . S
N214 Co205 2.022 . S
N214 C211 1.351 . S
N214 N215 1.365 . S
N215 C212 1.341 . S
N215 N214 1.365 . S
N215 H235 0.862 . S
C216 C211 1.501 . S
C216 H217 0.961 . S
C216 H218 0.961 . S
C216 H219 0.960 . S
H217 C216 0.961 . S
H218 C216 0.961 . S
H219 C216 0.960 . S
C220 N221 1.342 . S
C220 C224 1.401 . S
C220 C225 1.499 . S
N221 Co204 1.989 . S
N221 C220 1.342 . S
N221 N222 1.388 . S
N222 Co205 1.993 . S
N222 N221 1.388 . S
N222 C223 1.346 . S
C223 N222 1.346 . S
C223 C224 1.396 . S
C223 C233 1.510 . S
C224 C220 1.401 . S
C224 C223 1.396 . S
C225 C220 1.499 . S
C225 H226 0.959 . S
C225 H227 0.960 . S
C225 H228 0.961 . S
H226 C225 0.959 . S
H227 C225 0.960 . S
H228 C225 0.961 . S
O229 Co204 1.967 . S
O229 C237 1.258 . S
O230 Co205 1.941 . S
O230 C237 1.266 . S
H231 C233 0.959 . S
H232 C233 0.961 . S
C233 C223 1.510 . S
C233 H231 0.959 . S
C233 H232 0.961 . S
C233 H234 0.960 . S
H234 C233 0.960 . S
H235 N215 0.862 . S
O236 Co204 1.920 . S
O236 C209 1.289 . S
C237 O229 1.258 . S
C237 O230 1.266 . S
Co238 O241 1.970 . S
Co238 N255 1.989 . S
Co238 O263 1.967 . S
Co238 O270 1.920 . S
Co239 O242 1.966 . S
Co239 N248 2.022 . S
Co239 N256 1.993 . S
Co239 O264 1.941 . S
C240 O241 1.258 . S
C240 O242 1.263 . S
O241 Co238 1.970 . S
O241 C240 1.258 . S
O242 Co239 1.966 . S
O242 C240 1.263 . S
C243 O244 1.235 . S
C243 O270 1.289 . S
O244 C243 1.235 . S
C245 C247 1.400 . S
C245 N248 1.351 . S
C245 C250 1.501 . S
C246 C247 1.387 . S
C246 N249 1.341 . S
C247 C245 1.400 . S
C247 C246 1.387 . S
N248 Co239 2.022 . S
N248 C245 1.351 . S
N248 N249 1.365 . S
N249 C246 1.341 . S
N249 N248 1.365 . S
N249 H269 0.862 . S
C250 C245 1.501 . S
C250 H251 0.961 . S
C250 H252 0.961 . S
C250 H253 0.960 . S
H251 C250 0.961 . S
H252 C250 0.961 . S
H253 C250 0.960 . S
C254 N255 1.342 . S
C254 C258 1.401 . S
C254 C259 1.499 . S
N255 Co238 1.989 . S
N255 C254 1.342 . S
N255 N256 1.388 . S
N256 Co239 1.993 . S
N256 N255 1.388 . S
N256 C257 1.346 . S
C257 N256 1.346 . S
C257 C258 1.396 . S
C257 C267 1.510 . S
C258 C254 1.401 . S
C258 C257 1.396 . S
C259 C254 1.499 . S
C259 H260 0.959 . S
C259 H261 0.960 . S
C259 H262 0.961 . S
H260 C259 0.959 . S
H261 C259 0.960 . S
H262 C259 0.961 . S
O263 Co238 1.967 . S
O263 C271 1.258 . S
O264 Co239 1.941 . S
O264 C271 1.266 . S
H265 C267 0.959 . S
H266 C267 0.961 . S
C267 C257 1.510 . S
C267 H265 0.959 . S
C267 H266 0.961 . S
C267 H268 0.960 . S
H268 C267 0.960 . S
H269 N249 0.862 . S
O270 Co238 1.920 . S
O270 C243 1.289 . S
C271 O263 1.258 . S
C271 O264 1.266 . S
Co272 O275 1.970 . S
Co272 N289 1.989 . S
Co272 O297 1.967 . S
Co272 O304 1.920 . S
Co273 O276 1.966 . S
Co273 N282 2.022 . S
Co273 N290 1.993 . S
Co273 O298 1.941 . S
C274 O275 1.258 . S
C274 O276 1.263 . S
O275 Co272 1.970 . S
O275 C274 1.258 . S
O276 Co273 1.966 . S
O276 C274 1.263 . S
C277 O278 1.235 . S
C277 O304 1.289 . S
O278 C277 1.235 . S
C279 C281 1.400 . S
C279 N282 1.351 . S
C279 C284 1.501 . S
C280 C281 1.387 . S
C280 N283 1.341 . S
C281 C279 1.400 . S
C281 C280 1.387 . S
N282 Co273 2.022 . S
N282 C279 1.351 . S
N282 N283 1.365 . S
N283 C280 1.341 . S
N283 N282 1.365 . S
N283 H303 0.862 . S
C284 C279 1.501 . S
C284 H285 0.961 . S
C284 H286 0.961 . S
C284 H287 0.960 . S
H285 C284 0.961 . S
H286 C284 0.961 . S
H287 C284 0.960 . S
C288 N289 1.342 . S
C288 C292 1.401 . S
C288 C293 1.499 . S
N289 Co272 1.989 . S
N289 C288 1.342 . S
N289 N290 1.388 . S
N290 Co273 1.993 . S
N290 N289 1.388 . S
N290 C291 1.346 . S
C291 N290 1.346 . S
C291 C292 1.396 . S
C291 C301 1.510 . S
C292 C288 1.401 . S
C292 C291 1.396 . S
C293 C288 1.499 . S
C293 H294 0.959 . S
C293 H295 0.960 . S
C293 H296 0.961 . S
H294 C293 0.959 . S
H295 C293 0.960 . S
H296 C293 0.961 . S
O297 Co272 1.967 . S
O297 C305 1.258 . S
O298 Co273 1.941 . S
O298 C305 1.266 . S
H299 C301 0.959 . S
H300 C301 0.961 . S
C301 C291 1.510 . S
C301 H299 0.959 . S
C301 H300 0.961 . S
C301 H302 0.960 . S
H302 C301 0.960 . S
H303 N283 0.862 . S
O304 Co272 1.920 . S
O304 C277 1.289 . S
C305 O297 1.258 . S
C305 O298 1.266 . S
Co306 O309 1.970 . S
Co306 N323 1.989 . S
Co306 O331 1.967 . S
Co306 O338 1.920 . S
Co307 O310 1.966 . S
Co307 N316 2.022 1_554 S
Co307 N324 1.993 . S
Co307 O332 1.941 . S
C308 O309 1.258 . S
C308 O310 1.263 . S
O309 Co306 1.970 . S
O309 C308 1.258 . S
O310 Co307 1.966 . S
O310 C308 1.263 . S
C311 O312 1.235 . S
C311 O338 1.289 . S
O312 C311 1.235 . S
C313 C315 1.400 . S
C313 N316 1.351 . S
C313 C318 1.501 . S
C314 C315 1.387 . S
C314 N317 1.341 . S
C315 C313 1.400 . S
C315 C314 1.387 . S
N316 Co307 2.022 1_556 S
N316 C313 1.351 . S
N316 N317 1.365 . S
N317 C314 1.341 . S
N317 N316 1.365 . S
N317 H337 0.862 . S
C318 C313 1.501 . S
C318 H319 0.961 1_556 S
C318 H320 0.961 . S
C318 H321 0.960 . S
H319 C318 0.961 1_554 S
H320 C318 0.961 . S
H321 C318 0.960 . S
C322 N323 1.342 . S
C322 C326 1.401 . S
C322 C327 1.499 . S
N323 Co306 1.989 . S
N323 C322 1.342 . S
N323 N324 1.388 . S
N324 Co307 1.993 . S
N324 N323 1.388 . S
N324 C325 1.346 . S
C325 N324 1.346 . S
C325 C326 1.396 . S
C325 C335 1.510 1_554 S
C326 C322 1.401 . S
C326 C325 1.396 . S
C327 C322 1.499 . S
C327 H328 0.959 . S
C327 H329 0.960 . S
C327 H330 0.961 . S
H328 C327 0.959 . S
H329 C327 0.960 . S
H330 C327 0.961 . S
O331 Co306 1.967 . S
O331 C339 1.258 . S
O332 Co307 1.941 . S
O332 C339 1.266 . S
H333 C335 0.959 . S
H334 C335 0.961 . S
C335 C325 1.510 1_556 S
C335 H333 0.959 . S
C335 H334 0.961 . S
C335 H336 0.960 . S
H336 C335 0.960 . S
H337 N317 0.862 . S
O338 Co306 1.920 . S
O338 C311 1.289 . S
C339 O331 1.258 . S
C339 O332 1.266 . S
Co340 O343 1.970 . S
Co340 N357 1.989 . S
Co340 O365 1.967 . S
Co340 O372 1.920 . S
Co341 O344 1.966 . S
Co341 N350 2.022 1_554 S
Co341 N358 1.993 . S
Co341 O366 1.941 . S
C342 O343 1.258 . S
C342 O344 1.263 . S
O343 Co340 1.970 . S
O343 C342 1.258 . S
O344 Co341 1.966 . S
O344 C342 1.263 . S
C345 O346 1.235 . S
C345 O372 1.289 . S
O346 C345 1.235 . S
C347 C349 1.400 . S
C347 N350 1.351 . S
C347 C352 1.501 . S
C348 C349 1.387 . S
C348 N351 1.341 . S
C349 C347 1.400 . S
C349 C348 1.387 . S
N350 Co341 2.022 1_556 S
N350 C347 1.351 . S
N350 N351 1.365 . S
N351 C348 1.341 . S
N351 N350 1.365 . S
N351 H371 0.862 . S
C352 C347 1.501 . S
C352 H353 0.961 1_556 S
C352 H354 0.961 . S
C352 H355 0.960 . S
H353 C352 0.961 1_554 S
H354 C352 0.961 . S
H355 C352 0.960 . S
C356 N357 1.342 . S
C356 C360 1.401 . S
C356 C361 1.499 . S
N357 Co340 1.989 . S
N357 C356 1.342 . S
N357 N358 1.388 . S
N358 Co341 1.993 . S
N358 N357 1.388 . S
N358 C359 1.346 . S
C359 N358 1.346 . S
C359 C360 1.396 . S
C359 C369 1.510 1_554 S
C360 C356 1.401 . S
C360 C359 1.396 . S
C361 C356 1.499 . S
C361 H362 0.959 . S
C361 H363 0.960 . S
C361 H364 0.961 . S
H362 C361 0.959 . S
H363 C361 0.960 . S
H364 C361 0.961 . S
O365 Co340 1.967 . S
O365 C373 1.258 . S
O366 Co341 1.941 . S
O366 C373 1.266 . S
H367 C369 0.959 . S
H368 C369 0.961 . S
C369 C359 1.510 1_556 S
C369 H367 0.959 . S
C369 H368 0.961 . S
C369 H370 0.960 . S
H370 C369 0.960 . S
H371 N351 0.862 . S
O372 Co340 1.920 . S
O372 C345 1.289 . S
C373 O365 1.258 . S
C373 O366 1.266 . S
Co374 O377 1.970 . S
Co374 N391 1.989 . S
Co374 O399 1.967 . S
Co374 O406 1.920 . S
Co375 O378 1.966 . S
Co375 N384 2.022 1_554 S
Co375 N392 1.993 . S
Co375 O400 1.941 . S
C376 O377 1.258 . S
C376 O378 1.263 . S
O377 Co374 1.970 . S
O377 C376 1.258 . S
O378 Co375 1.966 . S
O378 C376 1.263 . S
C379 O380 1.235 . S
C379 O406 1.289 . S
O380 C379 1.235 . S
C381 C383 1.400 . S
C381 N384 1.351 . S
C381 C386 1.501 . S
C382 C383 1.387 . S
C382 N385 1.341 . S
C383 C381 1.400 . S
C383 C382 1.387 . S
N384 Co375 2.022 1_556 S
N384 C381 1.351 . S
N384 N385 1.365 . S
N385 C382 1.341 . S
N385 N384 1.365 . S
N385 H405 0.862 . S
C386 C381 1.501 . S
C386 H387 0.961 1_556 S
C386 H388 0.961 . S
C386 H389 0.960 . S
H387 C386 0.961 1_554 S
H388 C386 0.961 . S
H389 C386 0.960 . S
C390 N391 1.342 . S
C390 C394 1.401 . S
C390 C395 1.499 . S
N391 Co374 1.989 . S
N391 C390 1.342 . S
N391 N392 1.388 . S
N392 Co375 1.993 . S
N392 N391 1.388 . S
N392 C393 1.346 . S
C393 N392 1.346 . S
C393 C394 1.396 . S
C393 C403 1.510 1_554 S
C394 C390 1.401 . S
C394 C393 1.396 . S
C395 C390 1.499 . S
C395 H396 0.959 . S
C395 H397 0.960 . S
C395 H398 0.961 . S
H396 C395 0.959 . S
H397 C395 0.960 . S
H398 C395 0.961 . S
O399 Co374 1.967 . S
O399 C407 1.258 . S
O400 Co375 1.941 . S
O400 C407 1.266 . S
H401 C403 0.959 . S
H402 C403 0.961 . S
C403 C393 1.510 1_556 S
C403 H401 0.959 . S
C403 H402 0.961 . S
C403 H404 0.960 . S
H404 C403 0.960 . S
H405 N385 0.862 . S
O406 Co374 1.920 . S
O406 C379 1.289 . S
C407 O399 1.258 . S
C407 O400 1.266 . S
Co408 O411 1.970 . S
Co408 N425 1.989 . S
Co408 O433 1.967 . S
Co408 O440 1.920 . S
Co409 O412 1.966 . S
Co409 N418 2.022 1_556 S
Co409 N426 1.993 . S
Co409 O434 1.941 . S
C410 O411 1.258 . S
C410 O412 1.263 . S
O411 Co408 1.970 . S
O411 C410 1.258 . S
O412 Co409 1.966 . S
O412 C410 1.263 . S
C413 O414 1.235 . S
C413 O440 1.289 . S
O414 C413 1.235 . S
C415 C417 1.400 . S
C415 N418 1.351 . S
C415 C420 1.501 . S
C416 C417 1.387 . S
C416 N419 1.341 . S
C417 C415 1.400 . S
C417 C416 1.387 . S
N418 Co409 2.022 1_554 S
N418 C415 1.351 . S
N418 N419 1.365 . S
N419 C416 1.341 . S
N419 N418 1.365 . S
N419 H439 0.862 . S
C420 C415 1.501 . S
C420 H421 0.961 1_554 S
C420 H422 0.961 . S
C420 H423 0.960 . S
H421 C420 0.961 1_556 S
H422 C420 0.961 . S
H423 C420 0.960 . S
C424 N425 1.342 . S
C424 C428 1.401 . S
C424 C429 1.499 . S
N425 Co408 1.989 . S
N425 C424 1.342 . S
N425 N426 1.388 . S
N426 Co409 1.993 . S
N426 N425 1.388 . S
N426 C427 1.346 . S
C427 N426 1.346 . S
C427 C428 1.396 . S
C427 C437 1.510 1_556 S
C428 C424 1.401 . S
C428 C427 1.396 . S
C429 C424 1.499 . S
C429 H430 0.959 . S
C429 H431 0.960 . S
C429 H432 0.961 . S
H430 C429 0.959 . S
H431 C429 0.960 . S
H432 C429 0.961 . S
O433 Co408 1.967 . S
O433 C441 1.258 . S
O434 Co409 1.941 . S
O434 C441 1.266 . S
H435 C437 0.959 . S
H436 C437 0.961 . S
C437 C427 1.510 1_554 S
C437 H435 0.959 . S
C437 H436 0.961 . S
C437 H438 0.960 . S
H438 C437 0.960 . S
H439 N419 0.862 . S
O440 Co408 1.920 . S
O440 C413 1.289 . S
C441 O433 1.258 . S
C441 O434 1.266 . S
Co442 O445 1.970 . S
Co442 N459 1.989 . S
Co442 O467 1.967 . S
Co442 O474 1.920 . S
Co443 O446 1.966 . S
Co443 N452 2.022 1_556 S
Co443 N460 1.993 . S
Co443 O468 1.941 . S
C444 O445 1.258 . S
C444 O446 1.263 . S
O445 Co442 1.970 . S
O445 C444 1.258 . S
O446 Co443 1.966 . S
O446 C444 1.263 . S
C447 O448 1.235 . S
C447 O474 1.289 . S
O448 C447 1.235 . S
C449 C451 1.400 . S
C449 N452 1.351 . S
C449 C454 1.501 . S
C450 C451 1.387 . S
C450 N453 1.341 . S
C451 C449 1.400 . S
C451 C450 1.387 . S
N452 Co443 2.022 1_554 S
N452 C449 1.351 . S
N452 N453 1.365 . S
N453 C450 1.341 . S
N453 N452 1.365 . S
N453 H473 0.862 . S
C454 C449 1.501 . S
C454 H455 0.961 1_554 S
C454 H456 0.961 . S
C454 H457 0.960 . S
H455 C454 0.961 1_556 S
H456 C454 0.961 . S
H457 C454 0.960 . S
C458 N459 1.342 . S
C458 C462 1.401 . S
C458 C463 1.499 . S
N459 Co442 1.989 . S
N459 C458 1.342 . S
N459 N460 1.388 . S
N460 Co443 1.993 . S
N460 N459 1.388 . S
N460 C461 1.346 . S
C461 N460 1.346 . S
C461 C462 1.396 . S
C461 C471 1.510 1_556 S
C462 C458 1.401 . S
C462 C461 1.396 . S
C463 C458 1.499 . S
C463 H464 0.959 . S
C463 H465 0.960 . S
C463 H466 0.961 . S
H464 C463 0.959 . S
H465 C463 0.960 . S
H466 C463 0.961 . S
O467 Co442 1.967 . S
O467 C475 1.258 . S
O468 Co443 1.941 . S
O468 C475 1.266 . S
H469 C471 0.959 . S
H470 C471 0.961 . S
C471 C461 1.510 1_554 S
C471 H469 0.959 . S
C471 H470 0.961 . S
C471 H472 0.960 . S
H472 C471 0.960 . S
H473 N453 0.862 . S
O474 Co442 1.920 . S
O474 C447 1.289 . S
C475 O467 1.258 . S
C475 O468 1.266 . S
Co476 O479 1.970 . S
Co476 N493 1.989 . S
Co476 O501 1.967 . S
Co476 O508 1.920 . S
Co477 O480 1.966 . S
Co477 N486 2.022 1_556 S
Co477 N494 1.993 . S
Co477 O502 1.941 . S
C478 O479 1.258 . S
C478 O480 1.263 . S
O479 Co476 1.970 . S
O479 C478 1.258 . S
O480 Co477 1.966 . S
O480 C478 1.263 . S
C481 O482 1.235 . S
C481 O508 1.289 . S
O482 C481 1.235 . S
C483 C485 1.400 . S
C483 N486 1.351 . S
C483 C488 1.501 . S
C484 C485 1.387 . S
C484 N487 1.341 . S
C485 C483 1.400 . S
C485 C484 1.387 . S
N486 Co477 2.022 1_554 S
N486 C483 1.351 . S
N486 N487 1.365 . S
N487 C484 1.341 . S
N487 N486 1.365 . S
N487 H507 0.862 . S
C488 C483 1.501 . S
C488 H489 0.961 1_554 S
C488 H490 0.961 . S
C488 H491 0.960 . S
H489 C488 0.961 1_556 S
H490 C488 0.961 . S
H491 C488 0.960 . S
C492 N493 1.342 . S
C492 C496 1.401 . S
C492 C497 1.499 . S
N493 Co476 1.989 . S
N493 C492 1.342 . S
N493 N494 1.388 . S
N494 Co477 1.993 . S
N494 N493 1.388 . S
N494 C495 1.346 . S
C495 N494 1.346 . S
C495 C496 1.396 . S
C495 C505 1.510 1_556 S
C496 C492 1.401 . S
C496 C495 1.396 . S
C497 C492 1.499 . S
C497 H498 0.959 . S
C497 H499 0.960 . S
C497 H500 0.961 . S
H498 C497 0.959 . S
H499 C497 0.960 . S
H500 C497 0.961 . S
O501 Co476 1.967 . S
O501 C509 1.258 . S
O502 Co477 1.941 . S
O502 C509 1.266 . S
H503 C505 0.959 . S
H504 C505 0.961 . S
C505 C495 1.510 1_554 S
C505 H503 0.959 . S
C505 H504 0.961 . S
C505 H506 0.960 . S
H506 C505 0.960 . S
H507 N487 0.862 . S
O508 Co476 1.920 . S
O508 C481 1.289 . S
C509 O501 1.258 . S
C509 O502 1.266 . S
Co510 O513 1.970 . S
Co510 N527 1.989 . S
Co510 O535 1.967 . S
Co510 O542 1.920 . S
Co511 O514 1.966 . S
Co511 N520 2.022 . S
Co511 N528 1.993 . S
Co511 O536 1.941 . S
C512 O513 1.258 . S
C512 O514 1.263 . S
O513 Co510 1.970 . S
O513 C512 1.258 . S
O514 Co511 1.966 . S
O514 C512 1.263 . S
C515 O516 1.235 . S
C515 O542 1.289 . S
O516 C515 1.235 . S
C517 C519 1.400 . S
C517 N520 1.351 . S
C517 C522 1.501 . S
C518 C519 1.387 . S
C518 N521 1.341 . S
C519 C517 1.400 . S
C519 C518 1.387 . S
N520 Co511 2.022 . S
N520 C517 1.351 . S
N520 N521 1.365 . S
N521 C518 1.341 . S
N521 N520 1.365 . S
N521 H541 0.862 . S
C522 C517 1.501 . S
C522 H523 0.961 . S
C522 H524 0.961 . S
C522 H525 0.960 . S
H523 C522 0.961 . S
H524 C522 0.961 . S
H525 C522 0.960 . S
C526 N527 1.342 . S
C526 C530 1.401 . S
C526 C531 1.499 . S
N527 Co510 1.989 . S
N527 C526 1.342 . S
N527 N528 1.388 . S
N528 Co511 1.993 . S
N528 N527 1.388 . S
N528 C529 1.346 . S
C529 N528 1.346 . S
C529 C530 1.396 . S
C529 C539 1.510 . S
C530 C526 1.401 . S
C530 C529 1.396 . S
C531 C526 1.499 . S
C531 H532 0.959 . S
C531 H533 0.960 . S
C531 H534 0.961 . S
H532 C531 0.959 . S
H533 C531 0.960 . S
H534 C531 0.961 . S
O535 Co510 1.967 . S
O535 C543 1.258 . S
O536 Co511 1.941 . S
O536 C543 1.266 . S
H537 C539 0.959 . S
H538 C539 0.961 . S
C539 C529 1.510 . S
C539 H537 0.959 . S
C539 H538 0.961 . S
C539 H540 0.960 . S
H540 C539 0.960 . S
H541 N521 0.862 . S
O542 Co510 1.920 . S
O542 C515 1.289 . S
C543 O535 1.258 . S
C543 O536 1.266 . S
Co544 O547 1.970 . S
Co544 N561 1.989 . S
Co544 O569 1.967 . S
Co544 O576 1.920 . S
Co545 O548 1.966 . S
Co545 N554 2.022 . S
Co545 N562 1.993 . S
Co545 O570 1.941 . S
C546 O547 1.258 . S
C546 O548 1.263 . S
O547 Co544 1.970 . S
O547 C546 1.258 . S
O548 Co545 1.966 . S
O548 C546 1.263 . S
C549 O550 1.235 . S
C549 O576 1.289 . S
O550 C549 1.235 . S
C551 C553 1.400 . S
C551 N554 1.351 . S
C551 C556 1.501 . S
C552 C553 1.387 . S
C552 N555 1.341 . S
C553 C551 1.400 . S
C553 C552 1.387 . S
N554 Co545 2.022 . S
N554 C551 1.351 . S
N554 N555 1.365 . S
N555 C552 1.341 . S
N555 N554 1.365 . S
N555 H575 0.862 . S
C556 C551 1.501 . S
C556 H557 0.961 . S
C556 H558 0.961 . S
C556 H559 0.960 . S
H557 C556 0.961 . S
H558 C556 0.961 . S
H559 C556 0.960 . S
C560 N561 1.342 . S
C560 C564 1.401 . S
C560 C565 1.499 . S
N561 Co544 1.989 . S
N561 C560 1.342 . S
N561 N562 1.388 . S
N562 Co545 1.993 . S
N562 N561 1.388 . S
N562 C563 1.346 . S
C563 N562 1.346 . S
C563 C564 1.396 . S
C563 C573 1.510 . S
C564 C560 1.401 . S
C564 C563 1.396 . S
C565 C560 1.499 . S
C565 H566 0.959 . S
C565 H567 0.960 . S
C565 H568 0.961 . S
H566 C565 0.959 . S
H567 C565 0.960 . S
H568 C565 0.961 . S
O569 Co544 1.967 . S
O569 C577 1.258 . S
O570 Co545 1.941 . S
O570 C577 1.266 . S
H571 C573 0.959 . S
H572 C573 0.961 . S
C573 C563 1.510 . S
C573 H571 0.959 . S
C573 H572 0.961 . S
C573 H574 0.960 . S
H574 C573 0.960 . S
H575 N555 0.862 . S
O576 Co544 1.920 . S
O576 C549 1.289 . S
C577 O569 1.258 . S
C577 O570 1.266 . S
Co578 O581 1.970 . S
Co578 N595 1.989 . S
Co578 O603 1.967 . S
Co578 O610 1.920 . S
Co579 O582 1.966 . S
Co579 N588 2.022 . S
Co579 N596 1.993 . S
Co579 O604 1.941 . S
C580 O581 1.258 . S
C580 O582 1.263 . S
O581 Co578 1.970 . S
O581 C580 1.258 . S
O582 Co579 1.966 . S
O582 C580 1.263 . S
C583 O584 1.235 . S
C583 O610 1.289 . S
O584 C583 1.235 . S
C585 C587 1.400 . S
C585 N588 1.351 . S
C585 C590 1.501 . S
C586 C587 1.387 . S
C586 N589 1.341 . S
C587 C585 1.400 . S
C587 C586 1.387 . S
N588 Co579 2.022 . S
N588 C585 1.351 . S
N588 N589 1.365 . S
N589 C586 1.341 . S
N589 N588 1.365 . S
N589 H609 0.862 . S
C590 C585 1.501 . S
C590 H591 0.961 . S
C590 H592 0.961 . S
C590 H593 0.960 . S
H591 C590 0.961 . S
H592 C590 0.961 . S
H593 C590 0.960 . S
C594 N595 1.342 . S
C594 C598 1.401 . S
C594 C599 1.499 . S
N595 Co578 1.989 . S
N595 C594 1.342 . S
N595 N596 1.388 . S
N596 Co579 1.993 . S
N596 N595 1.388 . S
N596 C597 1.346 . S
C597 N596 1.346 . S
C597 C598 1.396 . S
C597 C607 1.510 . S
C598 C594 1.401 . S
C598 C597 1.396 . S
C599 C594 1.499 . S
C599 H600 0.959 . S
C599 H601 0.960 . S
C599 H602 0.961 . S
H600 C599 0.959 . S
H601 C599 0.960 . S
H602 C599 0.961 . S
O603 Co578 1.967 . S
O603 C611 1.258 . S
O604 Co579 1.941 . S
O604 C611 1.266 . S
H605 C607 0.959 . S
H606 C607 0.961 . S
C607 C597 1.510 . S
C607 H605 0.959 . S
C607 H606 0.961 . S
C607 H608 0.960 . S
H608 C607 0.960 . S
H609 N589 0.862 . S
O610 Co578 1.920 . S
O610 C583 1.289 . S
C611 O603 1.258 . S
C611 O604 1.266 . S
C612 C613 1.387 . S
C612 H616 0.950 . S
C612 C621 1.390 . S
C613 C612 1.387 . S
C613 C615 1.387 . S
H614 C621 0.950 . S
C615 C613 1.387 . S
C615 C617 1.390 . S
C615 H619 0.950 . S
H616 C612 0.950 . S
C617 C615 1.390 . S
C617 C618 1.387 . S
C617 H620 0.950 . S
C618 C617 1.387 . S
C618 C621 1.387 . S
H619 C615 0.950 . S
H620 C617 0.950 . S
C621 C612 1.390 . S
C621 H614 0.950 . S
C621 C618 1.387 . S
C622 C623 1.387 . S
C622 H626 0.950 . S
C622 C631 1.390 . S
C623 C622 1.387 . S
C623 C625 1.387 . S
H624 C631 0.950 . S
C625 C623 1.387 . S
C625 C627 1.390 . S
C625 H629 0.950 . S
H626 C622 0.950 . S
C627 C625 1.390 . S
C627 C628 1.387 . S
C627 H630 0.950 . S
C628 C627 1.387 . S
C628 C631 1.387 . S
H629 C625 0.950 . S
H630 C627 0.950 . S
C631 C622 1.390 . S
C631 H624 0.950 . S
C631 C628 1.387 . S
C632 C633 1.387 . S
C632 H636 0.950 . S
C632 C641 1.390 . S
C633 C632 1.387 . S
C633 C635 1.387 . S
H634 C641 0.950 . S
C635 C633 1.387 . S
C635 C637 1.390 . S
C635 H639 0.950 . S
H636 C632 0.950 . S
C637 C635 1.390 . S
C637 C638 1.387 . S
C637 H640 0.950 . S
C638 C637 1.387 . S
C638 C641 1.387 . S
H639 C635 0.950 . S
H640 C637 0.950 . S
C641 C632 1.390 . S
C641 H634 0.950 . S
C641 C638 1.387 . S
C642 C643 1.387 . S
C642 H646 0.950 . S
C642 C651 1.390 . S
C643 C642 1.387 . S
C643 C645 1.387 . S
H644 C651 0.950 . S
C645 C643 1.387 . S
C645 C647 1.390 . S
C645 H649 0.950 . S
H646 C642 0.950 . S
C647 C645 1.390 . S
C647 C648 1.387 . S
C647 H650 0.950 . S
C648 C647 1.387 . S
C648 C651 1.387 . S
H649 C645 0.950 . S
H650 C647 0.950 . S
C651 C642 1.390 . S
C651 H644 0.950 . S
C651 C648 1.387 . S
C652 C653 1.387 . S
C652 H656 0.950 . S
C652 C661 1.390 . S
C653 C652 1.387 . S
C653 C655 1.387 . S
H654 C661 0.950 . S
C655 C653 1.387 . S
C655 C657 1.390 . S
C655 H659 0.950 . S
H656 C652 0.950 . S
C657 C655 1.390 . S
C657 C658 1.387 . S
C657 H660 0.950 . S
C658 C657 1.387 . S
C658 C661 1.387 . S
H659 C655 0.950 . S
H660 C657 0.950 . S
C661 C652 1.390 . S
C661 H654 0.950 . S
C661 C658 1.387 . S
C662 C663 1.387 . S
C662 H666 0.950 . S
C662 C671 1.390 . S
C663 C662 1.387 . S
C663 C665 1.387 . S
H664 C671 0.950 . S
C665 C663 1.387 . S
C665 C667 1.390 . S
C665 H669 0.950 . S
H666 C662 0.950 . S
C667 C665 1.390 . S
C667 C668 1.387 . S
C667 H670 0.950 . S
C668 C667 1.387 . S
C668 C671 1.387 . S
H669 C665 0.950 . S
H670 C667 0.950 . S
C671 C662 1.390 . S
C671 H664 0.950 . S
C671 C668 1.387 . S
C672 C673 1.387 . S
C672 H676 0.950 . S
C672 C681 1.390 . S
C673 C672 1.387 . S
C673 C675 1.387 . S
H674 C681 0.950 . S
C675 C673 1.387 . S
C675 C677 1.390 1_554 S
C675 H679 0.950 . S
H676 C672 0.950 . S
C677 C675 1.390 1_556 S
C677 C678 1.387 . S
C677 H680 0.950 . S
C678 C677 1.387 . S
C678 C681 1.387 1_556 S
H679 C675 0.950 . S
H680 C677 0.950 . S
C681 C672 1.390 . S
C681 H674 0.950 . S
C681 C678 1.387 1_554 S
C682 C683 1.387 . S
C682 H686 0.950 . S
C682 C691 1.390 1_554 S
C683 C682 1.387 . S
C683 C685 1.387 . S
H684 C691 0.950 . S
C685 C683 1.387 . S
C685 C687 1.390 1_554 S
C685 H689 0.950 . S
H686 C682 0.950 . S
C687 C685 1.390 1_556 S
C687 C688 1.387 . S
C687 H690 0.950 . S
C688 C687 1.387 . S
C688 C691 1.387 . S
H689 C685 0.950 . S
H690 C687 0.950 . S
C691 C682 1.390 1_556 S
C691 H684 0.950 . S
C691 C688 1.387 . S
C692 C693 1.387 . S
C692 H696 0.950 . S
C692 C701 1.390 1_556 S
C693 C692 1.387 . S
C693 C695 1.387 . S
H694 C701 0.950 . S
C695 C693 1.387 . S
C695 C697 1.390 1_556 S
C695 H699 0.950 . S
H696 C692 0.950 . S
C697 C695 1.390 1_554 S
C697 C698 1.387 . S
C697 H700 0.950 . S
C698 C697 1.387 . S
C698 C701 1.387 . S
H699 C695 0.950 . S
H700 C697 0.950 . S
C701 C692 1.390 1_554 S
C701 H694 0.950 . S
C701 C698 1.387 . S
C702 C703 1.387 . S
C702 H706 0.950 . S
C702 C711 1.390 . S
C703 C702 1.387 . S
C703 C705 1.387 . S
H704 C711 0.950 . S
C705 C703 1.387 . S
C705 C707 1.390 . S
C705 H709 0.950 . S
H706 C702 0.950 . S
C707 C705 1.390 . S
C707 C708 1.387 . S
C707 H710 0.950 . S
C708 C707 1.387 . S
C708 C711 1.387 . S
H709 C705 0.950 . S
H710 C707 0.950 . S
C711 C702 1.390 . S
C711 H704 0.950 . S
C711 C708 1.387 . S
C712 C713 1.387 . S
C712 H716 0.950 . S
C712 C721 1.390 . S
C713 C712 1.387 . S
C713 C715 1.387 . S
H714 C721 0.950 . S
C715 C713 1.387 . S
C715 C717 1.390 . S
C715 H719 0.950 . S
H716 C712 0.950 . S
C717 C715 1.390 . S
C717 C718 1.387 . S
C717 H720 0.950 . S
C718 C717 1.387 . S
C718 C721 1.387 . S
H719 C715 0.950 . S
H720 C717 0.950 . S
C721 C712 1.390 . S
C721 H714 0.950 . S
C721 C718 1.387 . S
C722 C723 1.387 . S
C722 H726 0.950 . S
C722 C731 1.390 . S
C723 C722 1.387 . S
C723 C725 1.387 . S
H724 C731 0.950 . S
C725 C723 1.387 . S
C725 C727 1.390 . S
C725 H729 0.950 . S
H726 C722 0.950 . S
C727 C725 1.390 . S
C727 C728 1.387 . S
C727 H730 0.950 . S
C728 C727 1.387 . S
C728 C731 1.387 . S
H729 C725 0.950 . S
H730 C727 0.950 . S
C731 C722 1.390 . S
C731 H724 0.950 . S
C731 C728 1.387 . S
C732 C733 1.387 . S
C732 H736 0.950 . S
C732 C741 1.390 . S
C733 C732 1.387 . S
C733 C735 1.387 . S
H734 C741 0.950 . S
C735 C733 1.387 . S
C735 C737 1.390 . S
C735 H739 0.950 . S
H736 C732 0.950 . S
C737 C735 1.390 . S
C737 C738 1.387 . S
C737 H740 0.950 . S
C738 C737 1.387 . S
C738 C741 1.387 . S
H739 C735 0.950 . S
H740 C737 0.950 . S
C741 C732 1.390 . S
C741 H734 0.950 . S
C741 C738 1.387 . S
C742 C743 1.387 . S
C742 H746 0.950 . S
C742 C751 1.390 . S
C743 C742 1.387 . S
C743 C745 1.387 . S
H744 C751 0.950 . S
C745 C743 1.387 . S
C745 C747 1.390 . S
C745 H749 0.950 . S
H746 C742 0.950 . S
C747 C745 1.390 . S
C747 C748 1.387 . S
C747 H750 0.950 . S
C748 C747 1.387 . S
C748 C751 1.387 . S
H749 C745 0.950 . S
H750 C747 0.950 . S
C751 C742 1.390 . S
C751 H744 0.950 . S
C751 C748 1.387 . S
C752 C753 1.387 . S
C752 H756 0.950 . S
C752 C761 1.390 . S
C753 C752 1.387 . S
C753 C755 1.387 . S
H754 C761 0.950 . S
C755 C753 1.387 . S
C755 C757 1.390 . S
C755 H759 0.950 . S
H756 C752 0.950 . S
C757 C755 1.390 . S
C757 C758 1.387 . S
C757 H760 0.950 . S
C758 C757 1.387 . S
C758 C761 1.387 . S
H759 C755 0.950 . S
H760 C757 0.950 . S
C761 C752 1.390 . S
C761 H754 0.950 . S
C761 C758 1.387 . S
C762 C763 1.387 . S
C762 H766 0.950 . S
C762 C771 1.390 1_554 S
C763 C762 1.387 . S
C763 C765 1.387 1_554 S
H764 C771 0.950 . S
C765 C763 1.387 1_556 S
C765 C767 1.390 . S
C765 H769 0.950 . S
H766 C762 0.950 . S
C767 C765 1.390 . S
C767 C768 1.387 . S
C767 H770 0.950 . S
C768 C767 1.387 . S
C768 C771 1.387 . S
H769 C765 0.950 . S
H770 C767 0.950 . S
C771 C762 1.390 1_556 S
C771 H764 0.950 . S
C771 C768 1.387 . S
C772 C773 1.387 . S
C772 H776 0.950 . S
C772 C781 1.390 1_554 S
C773 C772 1.387 . S
C773 C775 1.387 . S
H774 C781 0.950 . S
C775 C773 1.387 . S
C775 C777 1.390 1_554 S
C775 H779 0.950 . S
H776 C772 0.950 . S
C777 C775 1.390 1_556 S
C777 C778 1.387 . S
C777 H780 0.950 . S
C778 C777 1.387 . S
C778 C781 1.387 . S
H779 C775 0.950 . S
H780 C777 0.950 . S
C781 C772 1.390 1_556 S
C781 H774 0.950 . S
C781 C778 1.387 . S
C782 C783 1.387 . S
C782 H786 0.950 . S
C782 C791 1.390 . S
C783 C782 1.387 . S
C783 C785 1.387 . S
H784 C791 0.950 . S
C785 C783 1.387 . S
C785 C787 1.390 1_556 S
C785 H789 0.950 . S
H786 C782 0.950 . S
C787 C785 1.390 1_554 S
C787 C788 1.387 . S
C787 H790 0.950 . S
C788 C787 1.387 . S
C788 C791 1.387 1_554 S
H789 C785 0.950 . S
H790 C787 0.950 . S
C791 C782 1.390 . S
C791 H784 0.950 . S
C791 C788 1.387 1_556 S
C792 C793 1.387 . S
C792 H796 0.950 . S
C792 C801 1.390 . S
C793 C792 1.387 . S
C793 C795 1.387 . S
H794 C801 0.950 . S
C795 C793 1.387 . S
C795 C797 1.390 . S
C795 H799 0.950 . S
H796 C792 0.950 . S
C797 C795 1.390 . S
C797 C798 1.387 . S
C797 H800 0.950 . S
C798 C797 1.387 . S
C798 C801 1.387 . S
H799 C795 0.950 . S
H800 C797 0.950 . S
C801 C792 1.390 . S
C801 H794 0.950 . S
C801 C798 1.387 . S
C802 C803 1.387 . S
C802 H806 0.950 . S
C802 C811 1.390 . S
C803 C802 1.387 . S
C803 C805 1.387 . S
H804 C811 0.950 . S
C805 C803 1.387 . S
C805 C807 1.390 . S
C805 H809 0.950 . S
H806 C802 0.950 . S
C807 C805 1.390 . S
C807 C808 1.387 . S
C807 H810 0.950 . S
C808 C807 1.387 . S
C808 C811 1.387 . S
H809 C805 0.950 . S
H810 C807 0.950 . S
C811 C802 1.390 . S
C811 H804 0.950 . S
C811 C808 1.387 . S
C812 C813 1.387 . S
C812 H816 0.950 . S
C812 C821 1.390 . S
C813 C812 1.387 . S
C813 C815 1.387 . S
H814 C821 0.950 . S
C815 C813 1.387 . S
C815 C817 1.390 . S
C815 H819 0.950 . S
H816 C812 0.950 . S
C817 C815 1.390 . S
C817 C818 1.387 . S
C817 H820 0.950 . S
C818 C817 1.387 . S
C818 C821 1.387 . S
H819 C815 0.950 . S
H820 C817 0.950 . S
C821 C812 1.390 . S
C821 H814 0.950 . S
C821 C818 1.387 . S
C822 C823 1.387 . S
C822 H826 0.950 . S
C822 C831 1.390 . S
C823 C822 1.387 . S
C823 C825 1.387 . S
H824 C831 0.950 . S
C825 C823 1.387 . S
C825 C827 1.390 . S
C825 H829 0.950 . S
H826 C822 0.950 . S
C827 C825 1.390 . S
C827 C828 1.387 . S
C827 H830 0.950 . S
C828 C827 1.387 . S
C828 C831 1.387 . S
H829 C825 0.950 . S
H830 C827 0.950 . S
C831 C822 1.390 . S
C831 H824 0.950 . S
C831 C828 1.387 . S
C832 C833 1.387 . S
C832 H836 0.950 . S
C832 C841 1.390 . S
C833 C832 1.387 . S
C833 C835 1.387 . S
H834 C841 0.950 . S
C835 C833 1.387 . S
C835 C837 1.390 . S
C835 H839 0.950 . S
H836 C832 0.950 . S
C837 C835 1.390 . S
C837 C838 1.387 . S
C837 H840 0.950 . S
C838 C837 1.387 . S
C838 C841 1.387 . S
H839 C835 0.950 . S
H840 C837 0.950 . S
C841 C832 1.390 . S
C841 H834 0.950 . S
C841 C838 1.387 . S
C842 C843 1.387 . S
C842 H846 0.950 . S
C842 C851 1.390 . S
C843 C842 1.387 . S
C843 C845 1.387 . S
H844 C851 0.950 . S
C845 C843 1.387 . S
C845 C847 1.390 . S
C845 H849 0.950 . S
H846 C842 0.950 . S
C847 C845 1.390 . S
C847 C848 1.387 . S
C847 H850 0.950 . S
C848 C847 1.387 . S
C848 C851 1.387 . S
H849 C845 0.950 . S
H850 C847 0.950 . S
C851 C842 1.390 . S
C851 H844 0.950 . S
C851 C848 1.387 . S
C852 C853 1.387 1_455 S
C852 H856 0.950 . S
C852 C861 1.390 . S
C853 C852 1.387 1_655 S
C853 C855 1.387 1_554 S
H854 C861 0.950 . S
C855 C853 1.387 1_556 S
C855 C857 1.390 . S
C855 H859 0.950 . S
H856 C852 0.950 . S
C857 C855 1.390 . S
C857 C858 1.387 1_655 S
C857 H860 0.950 . S
C858 C857 1.387 1_455 S
C858 C861 1.387 1_556 S
H859 C855 0.950 . S
H860 C857 0.950 . S
C861 C852 1.390 . S
C861 H854 0.950 . S
C861 C858 1.387 1_554 S
C862 C863 1.387 . S
C862 H866 0.950 . S
C862 C871 1.390 1_556 S
C863 C862 1.387 . S
C863 C865 1.387 . S
H864 C871 0.950 . S
C865 C863 1.387 . S
C865 C867 1.390 1_556 S
C865 H869 0.950 . S
H866 C862 0.950 . S
C867 C865 1.390 1_554 S
C867 C868 1.387 . S
C867 H870 0.950 . S
C868 C867 1.387 . S
C868 C871 1.387 . S
H869 C865 0.950 . S
H870 C867 0.950 . S
C871 C862 1.390 1_554 S
C871 H864 0.950 . S
C871 C868 1.387 . S
C872 C873 1.387 . S
C872 H876 0.950 . S
C872 C881 1.390 1_544 S
C873 C872 1.387 . S
C873 C875 1.387 . S
H874 C881 0.950 . S
C875 C873 1.387 . S
C875 C877 1.390 1_544 S
C875 H879 0.950 . S
H876 C872 0.950 . S
C877 C875 1.390 1_566 S
C877 C878 1.387 . S
C877 H880 0.950 . S
C878 C877 1.387 . S
C878 C881 1.387 . S
H879 C875 0.950 . S
H880 C877 0.950 . S
C881 C872 1.390 1_566 S
C881 H874 0.950 . S
C881 C878 1.387 . S
C882 C883 1.387 . S
C882 H886 0.950 . S
C882 C891 1.390 . S
C883 C882 1.387 . S
C883 C885 1.387 1_554 S
H884 C891 0.950 . S
C885 C883 1.387 1_556 S
C885 C887 1.390 . S
C885 H889 0.950 . S
H886 C882 0.950 . S
C887 C885 1.390 . S
C887 C888 1.387 . S
C887 H890 0.950 . S
C888 C887 1.387 . S
C888 C891 1.387 1_556 S
H889 C885 0.950 . S
H890 C887 0.950 . S
C891 C882 1.390 . S
C891 H884 0.950 . S
C891 C888 1.387 1_554 S
C892 C893 1.387 . S
C892 H896 0.950 . S
C892 C901 1.390 1_564 S
C893 C892 1.387 . S
C893 C895 1.387 . S
H894 C901 0.950 . S
C895 C893 1.387 . S
C895 C897 1.390 1_564 S
C895 H899 0.950 . S
H896 C892 0.950 . S
C897 C895 1.390 1_546 S
C897 C898 1.387 . S
C897 H900 0.950 . S
C898 C897 1.387 . S
C898 C901 1.387 . S
H899 C895 0.950 . S
H900 C897 0.950 . S
C901 C892 1.390 1_546 S
C901 H894 0.950 . S
C901 C898 1.387 . S
C902 C903 1.387 . S
C902 H906 0.950 . S
C902 C911 1.390 1_655 S
C903 C902 1.387 . S
C903 C905 1.387 1_556 S
H904 C911 0.950 . S
C905 C903 1.387 1_554 S
C905 C907 1.390 1_655 S
C905 H909 0.950 . S
H906 C902 0.950 . S
C907 C905 1.390 1_455 S
C907 C908 1.387 . S
C907 H910 0.950 . S
C908 C907 1.387 . S
C908 C911 1.387 1_554 S
H909 C905 0.950 . S
H910 C907 0.950 . S
C911 C902 1.390 1_455 S
C911 H904 0.950 . S
C911 C908 1.387 1_556 S
C912 C913 1.387 . S
C912 H916 0.950 . S
C912 C921 1.390 . S
C913 C912 1.387 . S
C913 C915 1.387 1_556 S
H914 C921 0.950 . S
C915 C913 1.387 1_554 S
C915 C917 1.390 . S
C915 H919 0.950 . S
H916 C912 0.950 . S
C917 C915 1.390 . S
C917 C918 1.387 . S
C917 H920 0.950 . S
C918 C917 1.387 . S
C918 C921 1.387 1_554 S
H919 C915 0.950 . S
H920 C917 0.950 . S
C921 C912 1.390 . S
C921 H914 0.950 . S
C921 C918 1.387 1_556 S
C922 C923 1.387 . S
C922 H926 0.950 . S
C922 C931 1.390 1_546 S
C923 C922 1.387 . S
C923 C925 1.387 . S
H924 C931 0.950 . S
C925 C923 1.387 . S
C925 C927 1.390 1_546 S
C925 H929 0.950 . S
H926 C922 0.950 . S
C927 C925 1.390 1_564 S
C927 C928 1.387 . S
C927 H930 0.950 . S
C928 C927 1.387 . S
C928 C931 1.387 . S
H929 C925 0.950 . S
H930 C927 0.950 . S
C931 C922 1.390 1_564 S
C931 H924 0.950 . S
C931 C928 1.387 . S
C932 C933 1.387 1_554 S
C932 H936 0.950 . S
C932 C941 1.390 1_655 S
C933 C932 1.387 1_556 S
C933 C935 1.387 . S
H934 C941 0.950 . S
C935 C933 1.387 . S
C935 C937 1.390 1_655 S
C935 H939 0.950 . S
H936 C932 0.950 . S
C937 C935 1.390 1_455 S
C937 C938 1.387 1_556 S
C937 H940 0.950 . S
C938 C937 1.387 1_554 S
C938 C941 1.387 . S
H939 C935 0.950 . S
H940 C937 0.950 . S
C941 C932 1.390 1_455 S
C941 H934 0.950 . S
C941 C938 1.387 . S
C942 C943 1.387 . S
C942 H946 0.950 . S
C942 C951 1.390 . S
C943 C942 1.387 . S
C943 C945 1.387 . S
H944 C951 0.950 . S
C945 C943 1.387 . S
C945 C947 1.390 . S
C945 H949 0.950 . S
H946 C942 0.950 . S
C947 C945 1.390 . S
C947 C948 1.387 . S
C947 H950 0.950 . S
C948 C947 1.387 . S
C948 C951 1.387 . S
H949 C945 0.950 . S
H950 C947 0.950 . S
C951 C942 1.390 . S
C951 H944 0.950 . S
C951 C948 1.387 . S
C952 C953 1.387 . S
C952 H956 0.950 . S
C952 C961 1.390 . S
C953 C952 1.387 . S
C953 C955 1.387 . S
H954 C961 0.950 . S
C955 C953 1.387 . S
C955 C957 1.390 . S
C955 H959 0.950 . S
H956 C952 0.950 . S
C957 C955 1.390 . S
C957 C958 1.387 . S
C957 H960 0.950 . S
C958 C957 1.387 . S
C958 C961 1.387 . S
H959 C955 0.950 . S
H960 C957 0.950 . S
C961 C952 1.390 . S
C961 H954 0.950 . S
C961 C958 1.387 . S
C962 C963 1.387 . S
C962 H966 0.950 . S
C962 C971 1.390 . S
C963 C962 1.387 . S
C963 C965 1.387 . S
H964 C971 0.950 . S
C965 C963 1.387 . S
C965 C967 1.390 . S
C965 H969 0.950 . S
H966 C962 0.950 . S
C967 C965 1.390 . S
C967 C968 1.387 . S
C967 H970 0.950 . S
C968 C967 1.387 . S
C968 C971 1.387 . S
H969 C965 0.950 . S
H970 C967 0.950 . S
C971 C962 1.390 . S
C971 H964 0.950 . S
C971 C968 1.387 . S
C972 C973 1.387 . S
C972 H976 0.950 . S
C972 C981 1.390 . S
C973 C972 1.387 . S
C973 C975 1.387 . S
H974 C981 0.950 . S
C975 C973 1.387 . S
C975 C977 1.390 . S
C975 H979 0.950 . S
H976 C972 0.950 . S
C977 C975 1.390 . S
C977 C978 1.387 . S
C977 H980 0.950 . S
C978 C977 1.387 . S
C978 C981 1.387 . S
H979 C975 0.950 . S
H980 C977 0.950 . S
C981 C972 1.390 . S
C981 H974 0.950 . S
C981 C978 1.387 . S
C982 C983 1.387 . S
C982 H986 0.950 . S
C982 C991 1.390 . S
C983 C982 1.387 . S
C983 C985 1.387 . S
H984 C991 0.950 . S
C985 C983 1.387 . S
C985 C987 1.390 . S
C985 H989 0.950 . S
H986 C982 0.950 . S
C987 C985 1.390 . S
C987 C988 1.387 . S
C987 H990 0.950 . S
C988 C987 1.387 . S
C988 C991 1.387 . S
H989 C985 0.950 . S
H990 C987 0.950 . S
C991 C982 1.390 . S
C991 H984 0.950 . S
C991 C988 1.387 . S
C992 C993 1.387 . S
C992 H996 0.950 . S
C992 C1001 1.390 . S
C993 C992 1.387 . S
C993 C995 1.387 . S
H994 C1001 0.950 . S
C995 C993 1.387 . S
C995 C997 1.390 . S
C995 H999 0.950 . S
H996 C992 0.950 . S
C997 C995 1.390 . S
C997 C998 1.387 . S
C997 H1000 0.950 . S
C998 C997 1.387 . S
C998 C1001 1.387 . S
H999 C995 0.950 . S
H1000 C997 0.950 . S
C1001 C992 1.390 . S
C1001 H994 0.950 . S
C1001 C998 1.387 . S
C1002 C1003 1.387 . S
C1002 H1006 0.950 . S
C1002 C1011 1.390 . S
C1003 C1002 1.387 . S
C1003 C1005 1.387 . S
H1004 C1011 0.950 . S
C1005 C1003 1.387 . S
C1005 C1007 1.390 . S
C1005 H1009 0.950 . S
H1006 C1002 0.950 . S
C1007 C1005 1.390 . S
C1007 C1008 1.387 . S
C1007 H1010 0.950 . S
C1008 C1007 1.387 . S
C1008 C1011 1.387 . S
H1009 C1005 0.950 . S
H1010 C1007 0.950 . S
C1011 C1002 1.390 . S
C1011 H1004 0.950 . S
C1011 C1008 1.387 . S
C1012 C1013 1.387 . S
C1012 H1016 0.950 . S
C1012 C1021 1.390 . S
C1013 C1012 1.387 . S
C1013 C1015 1.387 . S
H1014 C1021 0.950 . S
C1015 C1013 1.387 . S
C1015 C1017 1.390 . S
C1015 H1019 0.950 . S
H1016 C1012 0.950 . S
C1017 C1015 1.390 . S
C1017 C1018 1.387 . S
C1017 H1020 0.950 . S
C1018 C1017 1.387 . S
C1018 C1021 1.387 . S
H1019 C1015 0.950 . S
H1020 C1017 0.950 . S
C1021 C1012 1.390 . S
C1021 H1014 0.950 . S
C1021 C1018 1.387 . S
C1022 C1023 1.387 . S
C1022 H1026 0.950 . S
C1022 C1031 1.390 . S
C1023 C1022 1.387 . S
C1023 C1025 1.387 . S
H1024 C1031 0.950 . S
C1025 C1023 1.387 . S
C1025 C1027 1.390 . S
C1025 H1029 0.950 . S
H1026 C1022 0.950 . S
C1027 C1025 1.390 . S
C1027 C1028 1.387 . S
C1027 H1030 0.950 . S
C1028 C1027 1.387 . S
C1028 C1031 1.387 . S
H1029 C1025 0.950 . S
H1030 C1027 0.950 . S
C1031 C1022 1.390 . S
C1031 H1024 0.950 . S
C1031 C1028 1.387 . S
C1032 C1033 1.387 . S
C1032 H1036 0.950 . S
C1032 C1041 1.390 . S
C1033 C1032 1.387 . S
C1033 C1035 1.387 . S
H1034 C1041 0.950 . S
C1035 C1033 1.387 . S
C1035 C1037 1.390 . S
C1035 H1039 0.950 . S
H1036 C1032 0.950 . S
C1037 C1035 1.390 . S
C1037 C1038 1.387 . S
C1037 H1040 0.950 . S
C1038 C1037 1.387 . S
C1038 C1041 1.387 . S
H1039 C1035 0.950 . S
H1040 C1037 0.950 . S
C1041 C1032 1.390 . S
C1041 H1034 0.950 . S
C1041 C1038 1.387 . S
C1042 C1043 1.387 . S
C1042 H1046 0.950 . S
C1042 C1051 1.390 . S
C1043 C1042 1.387 . S
C1043 C1045 1.387 . S
H1044 C1051 0.950 . S
C1045 C1043 1.387 . S
C1045 C1047 1.390 . S
C1045 H1049 0.950 . S
H1046 C1042 0.950 . S
C1047 C1045 1.390 . S
C1047 C1048 1.387 . S
C1047 H1050 0.950 . S
C1048 C1047 1.387 . S
C1048 C1051 1.387 . S
H1049 C1045 0.950 . S
H1050 C1047 0.950 . S
C1051 C1042 1.390 . S
C1051 H1044 0.950 . S
C1051 C1048 1.387 . S
C1052 C1053 1.387 . S
C1052 H1056 0.950 . S
C1052 C1061 1.390 . S
C1053 C1052 1.387 . S
C1053 C1055 1.387 . S
H1054 C1061 0.950 . S
C1055 C1053 1.387 . S
C1055 C1057 1.390 . S
C1055 H1059 0.950 . S
H1056 C1052 0.950 . S
C1057 C1055 1.390 . S
C1057 C1058 1.387 . S
C1057 H1060 0.950 . S
C1058 C1057 1.387 . S
C1058 C1061 1.387 . S
H1059 C1055 0.950 . S
H1060 C1057 0.950 . S
C1061 C1052 1.390 . S
C1061 H1054 0.950 . S
C1061 C1058 1.387 . S
C613 C9 1.272 . S
C618 C5 1.316 . S
C623 C43 1.272 . S
C628 C39 1.313 . S
C633 C73 1.314 . S
C638 C77 1.272 . S
C643 C111 1.270 . S
C648 C107 1.315 . S
C653 C145 1.273 . S
C658 C141 1.316 . S
C663 C175 1.312 . S
C668 C179 1.270 . S
C673 C209 1.316 . S
C678 C213 1.274 . S
C683 C243 1.317 . S
C688 C247 1.273 . S
C693 C281 1.269 . S
C698 C277 1.312 . S
C703 C315 1.271 . S
C708 C311 1.313 . S
C713 C349 1.268 . S
C718 C345 1.312 . S
C723 C379 1.316 . S
C728 C383 1.274 . S
C733 C413 1.312 . S
C738 C417 1.269 . S
C743 C447 1.316 . S
C748 C451 1.274 . S
C753 C481 1.313 . S
C758 C485 1.271 . S
C763 C519 1.270 . S
C768 C515 1.314 . S
C773 C553 1.269 . S
C778 C549 1.311 . S
C783 C583 1.316 . S
C788 C587 1.274 . S
C793 C598 1.818 . S
C798 C20 1.818 . S
C803 C54 1.816 . S
C808 C530 1.816 . S
C813 C564 1.816 . S
C818 C88 1.816 . S
C823 C258 1.818 . S
C828 C122 1.817 . S
C833 C156 1.816 . S
C838 C292 1.816 . S
C843 C190 1.818 . S
C848 C224 1.818 . S
C853 C326 1.817 . S
C858 C462 1.816 . S
C863 C496 1.816 . S
C868 C360 1.816 . S
C873 C394 1.816 . S
C878 C428 1.816 . S
C883 C33 1.376 . S
C888 C135 1.376 . S
C893 C67 1.377 . S
C898 C169 1.377 . S
C903 C203 1.377 . S
C908 C101 1.377 . S
C913 C172 1.726 . S
C918 C36 1.725 . S
C923 C104 1.725 . S
C928 C70 1.725 . S
C933 C138 1.724 . S
C938 C2 1.725 . S
C943 C339 1.377 . S
C948 C237 1.377 . S
C953 C373 1.377 . S
C958 C271 1.377 . S
C963 C305 1.375 . S
C968 C407 1.375 . S
C973 C376 1.726 . S
C978 C240 1.727 . S
C983 C274 1.725 . S
C988 C308 1.725 . S
C993 C206 1.724 . S
C998 C342 1.725 . S
C1003 C543 1.376 . S
C1008 C441 1.376 . S
C1013 C577 1.377 . S
C1018 C475 1.377 . S
C1023 C611 1.375 . S
C1028 C509 1.376 . S
C1033 C444 1.726 . S
C1038 C580 1.727 . S
C1043 C478 1.725 . S
C1048 C512 1.725 . S
C1053 C546 1.724 . S
C1058 C410 1.725 . S
