# Generated by pormake.
# Topology ukm, (4)-cn, num edge types: 1
# Building blocks:
#     Node 0, Type 0, BuildingBlock: TATPOV_clean_sbu_0, # of connection points: 4
#     Node 1, Type 0, BuildingBlock: TATPOV_clean_sbu_0, # of connection points: 4
#     Node 2, Type 0, BuildingBlock: TATPOV_clean_sbu_0, # of connection points: 4
#     Node 3, Type 0, BuildingBlock: TATPOV_clean_sbu_0, # of connection points: 4
#     Node 4, Type 0, BuildingBlock: TATPOV_clean_sbu_0, # of connection points: 4
#     Node 5, Type 0, BuildingBlock: TATPOV_clean_sbu_0, # of connection points: 4
#     Node 6, Type 0, BuildingBlock: TATPOV_clean_sbu_0, # of connection points: 4
#     Node 7, Type 0, BuildingBlock: TATPOV_clean_sbu_0, # of connection points: 4
#     Node 8, Type 0, BuildingBlock: TATPOV_clean_sbu_0, # of connection points: 4
#     Node 9, Type 0, BuildingBlock: TATPOV_clean_sbu_0, # of connection points: 4
#     Node 10, Type 0, BuildingBlock: TATPOV_clean_sbu_0, # of connection points: 4
#     Node 11, Type 0, BuildingBlock: TATPOV_clean_sbu_0, # of connection points: 4
#     Node 12, Type 0, BuildingBlock: TATPOV_clean_sbu_0, # of connection points: 4
#     Node 13, Type 0, BuildingBlock: TATPOV_clean_sbu_0, # of connection points: 4
#     Node 14, Type 0, BuildingBlock: TATPOV_clean_sbu_0, # of connection points: 4
#     Node 15, Type 0, BuildingBlock: TATPOV_clean_sbu_0, # of connection points: 4
#     Node 16, Type 0, BuildingBlock: TATPOV_clean_sbu_0, # of connection points: 4
#     Node 17, Type 0, BuildingBlock: TATPOV_clean_sbu_0, # of connection points: 4
#     Node 18, Type 0, BuildingBlock: TATPOV_clean_sbu_0, # of connection points: 4
#     Node 19, Type 0, BuildingBlock: TATPOV_clean_sbu_0, # of connection points: 4
#     Node 20, Type 0, BuildingBlock: TATPOV_clean_sbu_0, # of connection points: 4
#     Node 21, Type 0, BuildingBlock: TATPOV_clean_sbu_0, # of connection points: 4
#     Node 22, Type 0, BuildingBlock: TATPOV_clean_sbu_0, # of connection points: 4
#     Node 23, Type 0, BuildingBlock: TATPOV_clean_sbu_0, # of connection points: 4
#     Node 24, Type 0, BuildingBlock: TATPOV_clean_sbu_0, # of connection points: 4
#     Node 25, Type 0, BuildingBlock: TATPOV_clean_sbu_0, # of connection points: 4
#     Node 26, Type 0, BuildingBlock: TATPOV_clean_sbu_0, # of connection points: 4
#     Node 27, Type 0, BuildingBlock: TATPOV_clean_sbu_0, # of connection points: 4
#     Node 28, Type 0, BuildingBlock: TATPOV_clean_sbu_0, # of connection points: 4
#     Node 29, Type 0, BuildingBlock: TATPOV_clean_sbu_0, # of connection points: 4
#     Node 30, Type 0, BuildingBlock: TATPOV_clean_sbu_0, # of connection points: 4
#     Node 31, Type 0, BuildingBlock: TATPOV_clean_sbu_0, # of connection points: 4
#     Edge 32, Type (0, 0), BuildingBlock: OJICUG_clean_linker_0, # of connection points: 2
#     Edge 33, Type (0, 0), BuildingBlock: OJICUG_clean_linker_0, # of connection points: 2
#     Edge 34, Type (0, 0), BuildingBlock: OJICUG_clean_linker_0, # of connection points: 2
#     Edge 35, Type (0, 0), BuildingBlock: OJICUG_clean_linker_0, # of connection points: 2
#     Edge 36, Type (0, 0), BuildingBlock: OJICUG_clean_linker_0, # of connection points: 2
#     Edge 37, Type (0, 0), BuildingBlock: OJICUG_clean_linker_0, # of connection points: 2
#     Edge 38, Type (0, 0), BuildingBlock: OJICUG_clean_linker_0, # of connection points: 2
#     Edge 39, Type (0, 0), BuildingBlock: OJICUG_clean_linker_0, # of connection points: 2
#     Edge 40, Type (0, 0), BuildingBlock: OJICUG_clean_linker_0, # of connection points: 2
#     Edge 41, Type (0, 0), BuildingBlock: OJICUG_clean_linker_0, # of connection points: 2
#     Edge 42, Type (0, 0), BuildingBlock: OJICUG_clean_linker_0, # of connection points: 2
#     Edge 43, Type (0, 0), BuildingBlock: OJICUG_clean_linker_0, # of connection points: 2
#     Edge 44, Type (0, 0), BuildingBlock: OJICUG_clean_linker_0, # of connection points: 2
#     Edge 45, Type (0, 0), BuildingBlock: OJICUG_clean_linker_0, # of connection points: 2
#     Edge 46, Type (0, 0), BuildingBlock: OJICUG_clean_linker_0, # of connection points: 2
#     Edge 47, Type (0, 0), BuildingBlock: OJICUG_clean_linker_0, # of connection points: 2
#     Edge 48, Type (0, 0), BuildingBlock: OJICUG_clean_linker_0, # of connection points: 2
#     Edge 49, Type (0, 0), BuildingBlock: OJICUG_clean_linker_0, # of connection points: 2
#     Edge 50, Type (0, 0), BuildingBlock: OJICUG_clean_linker_0, # of connection points: 2
#     Edge 51, Type (0, 0), BuildingBlock: OJICUG_clean_linker_0, # of connection points: 2
#     Edge 52, Type (0, 0), BuildingBlock: OJICUG_clean_linker_0, # of connection points: 2
#     Edge 53, Type (0, 0), BuildingBlock: OJICUG_clean_linker_0, # of connection points: 2
#     Edge 54, Type (0, 0), BuildingBlock: OJICUG_clean_linker_0, # of connection points: 2
#     Edge 55, Type (0, 0), BuildingBlock: OJICUG_clean_linker_0, # of connection points: 2
#     Edge 56, Type (0, 0), BuildingBlock: OJICUG_clean_linker_0, # of connection points: 2
#     Edge 57, Type (0, 0), BuildingBlock: OJICUG_clean_linker_0, # of connection points: 2
#     Edge 58, Type (0, 0), BuildingBlock: OJICUG_clean_linker_0, # of connection points: 2
#     Edge 59, Type (0, 0), BuildingBlock: OJICUG_clean_linker_0, # of connection points: 2
#     Edge 60, Type (0, 0), BuildingBlock: OJICUG_clean_linker_0, # of connection points: 2
#     Edge 61, Type (0, 0), BuildingBlock: OJICUG_clean_linker_0, # of connection points: 2
#     Edge 62, Type (0, 0), BuildingBlock: OJICUG_clean_linker_0, # of connection points: 2
#     Edge 63, Type (0, 0), BuildingBlock: OJICUG_clean_linker_0, # of connection points: 2
#     Edge 64, Type (0, 0), BuildingBlock: OJICUG_clean_linker_0, # of connection points: 2
#     Edge 65, Type (0, 0), BuildingBlock: OJICUG_clean_linker_0, # of connection points: 2
#     Edge 66, Type (0, 0), BuildingBlock: OJICUG_clean_linker_0, # of connection points: 2
#     Edge 67, Type (0, 0), BuildingBlock: OJICUG_clean_linker_0, # of connection points: 2
#     Edge 68, Type (0, 0), BuildingBlock: OJICUG_clean_linker_0, # of connection points: 2
#     Edge 69, Type (0, 0), BuildingBlock: OJICUG_clean_linker_0, # of connection points: 2
#     Edge 70, Type (0, 0), BuildingBlock: OJICUG_clean_linker_0, # of connection points: 2
#     Edge 71, Type (0, 0), BuildingBlock: OJICUG_clean_linker_0, # of connection points: 2
#     Edge 72, Type (0, 0), BuildingBlock: OJICUG_clean_linker_0, # of connection points: 2
#     Edge 73, Type (0, 0), BuildingBlock: OJICUG_clean_linker_0, # of connection points: 2
#     Edge 74, Type (0, 0), BuildingBlock: OJICUG_clean_linker_0, # of connection points: 2
#     Edge 75, Type (0, 0), BuildingBlock: OJICUG_clean_linker_0, # of connection points: 2
#     Edge 76, Type (0, 0), BuildingBlock: OJICUG_clean_linker_0, # of connection points: 2
#     Edge 77, Type (0, 0), BuildingBlock: OJICUG_clean_linker_0, # of connection points: 2
#     Edge 78, Type (0, 0), BuildingBlock: OJICUG_clean_linker_0, # of connection points: 2
#     Edge 79, Type (0, 0), BuildingBlock: OJICUG_clean_linker_0, # of connection points: 2
#     Edge 80, Type (0, 0), BuildingBlock: OJICUG_clean_linker_0, # of connection points: 2
#     Edge 81, Type (0, 0), BuildingBlock: OJICUG_clean_linker_0, # of connection points: 2
#     Edge 82, Type (0, 0), BuildingBlock: OJICUG_clean_linker_0, # of connection points: 2
#     Edge 83, Type (0, 0), BuildingBlock: OJICUG_clean_linker_0, # of connection points: 2
#     Edge 84, Type (0, 0), BuildingBlock: OJICUG_clean_linker_0, # of connection points: 2
#     Edge 85, Type (0, 0), BuildingBlock: OJICUG_clean_linker_0, # of connection points: 2
#     Edge 86, Type (0, 0), BuildingBlock: OJICUG_clean_linker_0, # of connection points: 2
#     Edge 87, Type (0, 0), BuildingBlock: OJICUG_clean_linker_0, # of connection points: 2
#     Edge 88, Type (0, 0), BuildingBlock: OJICUG_clean_linker_0, # of connection points: 2
#     Edge 89, Type (0, 0), BuildingBlock: OJICUG_clean_linker_0, # of connection points: 2
#     Edge 90, Type (0, 0), BuildingBlock: OJICUG_clean_linker_0, # of connection points: 2
#     Edge 91, Type (0, 0), BuildingBlock: OJICUG_clean_linker_0, # of connection points: 2
#     Edge 92, Type (0, 0), BuildingBlock: OJICUG_clean_linker_0, # of connection points: 2
#     Edge 93, Type (0, 0), BuildingBlock: OJICUG_clean_linker_0, # of connection points: 2
#     Edge 94, Type (0, 0), BuildingBlock: OJICUG_clean_linker_0, # of connection points: 2
#     Edge 95, Type (0, 0), BuildingBlock: OJICUG_clean_linker_0, # of connection points: 2
# Relax obj value: 0.257
# Max RMSD: 0.204
# Mean RMSD: 0.204
data_MOF--net-ukm--node1-TATPOV_clean_sbu_0--edge1-OJICUG_clean_linker_0
_symmetry_space_group_name_H-M    P1
_symmetry_Int_Tables_number       1
_symmetry_cell_setting            triclinic
loop_
_symmetry_equiv_pos_as_xyz
'x, y, z'
_cell_length_a     21.10746
_cell_length_b     71.348768
_cell_length_c     27.3754
_cell_angle_alpha  89.799309
_cell_angle_beta   89.969831
_cell_angle_gamma 90.088967
loop_
_atom_site_label
_atom_site_type_symbol
_atom_site_fract_x
_atom_site_fract_y
_atom_site_fract_z
_atom_type_partial_charge
Zn0 Zn 0.97667 0.37304 0.19042 0.0
Zn1 Zn 0.07944 0.35775 0.2377 0.0
O2 O 1.00393 0.33913 0.24541 0.0
O3 O 0.91896 0.35225 0.21344 0.0
O4 O 0.15556 0.34657 0.2759 0.0
O5 O 0.98831 0.39788 0.22323 0.0
O6 O 0.07351 0.38568 0.25724 0.0
C7 C 0.94525 0.3383 0.2337 0.0
C8 C 0.07928 0.36056 0.12766 0.0
O9 O 0.10693 0.35613 0.16737 0.0
O10 O 0.02477 0.36797 0.12813 0.0
C11 C 0.17722 0.35378 0.31508 0.0
O12 O 0.14841 0.36851 0.33327 0.0
C13 C 0.03767 0.39974 0.24896 0.0
Zn14 Zn 0.27331 0.89811 0.23689 0.0
Zn15 Zn 0.16211 0.90524 0.27058 0.0
O16 O 0.22247 0.92851 0.279 0.0
O17 O 0.32024 0.9205 0.26079 0.0
O18 O 0.07847 0.91058 0.30832 0.0
O19 O 0.2841 0.87242 0.26204 0.0
O20 O 0.18572 0.87716 0.28565 0.0
C21 C 0.28088 0.93296 0.27311 0.0
C22 C 0.17668 0.9056 0.16344 0.0
O23 O 0.13859 0.90707 0.19931 0.0
O24 O 0.23421 0.90141 0.17066 0.0
C25 C 0.07268 0.92271 0.3422 0.0
O26 O 0.12271 0.93251 0.35498 0.0
C27 C 0.23311 0.86619 0.28 0.0
Zn28 Zn 0.05412 0.97596 0.93677 0.0
Zn29 Zn 0.17685 0.9821 0.93319 0.0
O30 O 0.1397 0.0077 0.95735 0.0
O31 O 0.03805 1.00108 0.9644 0.0
O32 O 0.27095 0.98594 0.91894 0.0
O33 O 0.04375 0.96902 0.86649 0.0
O34 O 0.14736 0.96822 0.8717 0.0
C35 C 0.08373 0.0123 0.97057 0.0
C36 C 0.12613 0.95234 0.0007 0.0
O37 O 0.17274 0.96241 -0.0133 0.0
O38 O 0.071 0.9551 -0.01593 0.0
C39 C 0.31306 0.989 0.95119 0.0
O40 O 0.29553 0.9909 -0.00303 0.0
C41 C 0.09654 0.96382 0.84942 0.0
Zn42 Zn 0.2363 0.28404 0.93424 0.0
Zn43 Zn 0.11606 0.28167 0.91155 0.0
O44 O 0.13414 0.25868 0.95683 0.0
O45 O 0.23607 0.26047 0.97331 0.0
O46 O 0.02767 0.27873 0.88209 0.0
O47 O 0.27197 0.28688 0.8669 0.0
O48 O 0.17038 0.29067 0.85368 0.0
C49 C 0.18288 0.25264 0.97968 0.0
C50 C 0.15545 0.31343 0.97413 0.0
O51 O 0.11013 0.30431 0.95475 0.0
O52 O 0.21217 0.30785 0.96983 0.0
C53 C 0.98009 0.27205 0.90486 0.0
O54 O 0.98783 0.26582 0.94969 0.0
C55 C 0.22763 0.29248 0.83948 0.0
Zn56 Zn 0.98495 0.71764 0.6504 0.0
Zn57 Zn 0.86282 0.72095 0.64905 0.0
O58 O 0.89375 0.74771 0.67278 0.0
O59 O 0.99596 0.74246 0.68154 0.0
O60 O 0.76671 0.7203 0.64009 0.0
O61 O 0.99591 0.71327 0.57874 0.0
O62 O 0.89535 0.70699 0.58839 0.0
C63 C 0.94867 0.75309 0.68718 0.0
C64 C 0.92246 0.69205 0.7142 0.0
O65 O 0.87481 0.70212 0.70306 0.0
O66 O 0.97598 0.69512 0.69486 0.0
C67 C 0.74092 0.7227 0.59851 0.0
O68 O 0.7763 0.72822 0.56164 0.0
C69 C 0.94663 0.70478 0.56459 0.0
Zn70 Zn 0.70215 0.02956 0.65667 0.0
Zn71 Zn 0.8441 0.02965 0.63641 0.0
O72 O 0.80125 0.00459 0.62488 0.0
O73 O 0.70244 0.00149 0.63944 0.0
O74 O 0.93758 0.02806 0.61624 0.0
O75 O 0.70162 0.05006 0.60524 0.0
O76 O 0.80621 0.05202 0.59941 0.0
C77 C 0.75842 0.99768 0.65229 0.0
C78 C 0.79525 0.04156 0.73485 0.0
O79 O 0.84032 0.03745 0.70594 0.0
O80 O 0.73758 0.03931 0.7225 0.0
C81 C 0.98128 0.02408 0.64664 0.0
O82 O 0.96564 0.02027 0.69207 0.0
C83 C 0.75104 0.05845 0.59011 0.0
Zn84 Zn 0.94674 0.11044 0.95478 0.0
Zn85 Zn 0.84703 0.09797 0.00369 0.0
O86 O 0.92691 0.08266 0.02291 0.0
O87 O 1.01158 0.09709 -0.00519 0.0
O88 O 0.77377 0.08726 0.04509 0.0
O89 O 0.92508 0.13715 0.96494 0.0
O90 O 0.84551 0.12723 0.01042 0.0
C91 C 0.98711 0.08345 0.01765 0.0
C92 C 0.85849 0.08823 0.89814 0.0
O93 O 0.82327 0.08922 0.93569 0.0
O94 O 0.91251 0.09597 0.8978 0.0
C95 C 0.75439 0.07072 0.03544 0.0
O96 O 0.78425 0.06107 0.00176 0.0
C97 C 0.87794 0.14066 -0.00818 0.0
Zn98 Zn 0.78581 0.67453 0.97798 0.0
Zn99 Zn 0.9041 0.68672 -0.00403 0.0
O100 O 0.84898 0.71091 -0.01041 0.0
O101 O 0.75134 0.70093 0.97766 0.0
O102 O 0.99289 0.69454 0.01694 0.0
O103 O 0.78448 0.65698 0.03552 0.0
O104 O 0.88487 0.6648 0.04248 0.0
C105 C 0.79051 0.71433 -0.01909 0.0
C106 C 0.87785 0.66772 0.90076 0.0
O107 O 0.91615 0.67631 0.92871 0.0
O108 O 0.82104 0.66487 0.91397 0.0
C109 C 1.0036 0.70292 0.05705 0.0
O110 O 0.95534 0.70781 0.0845 0.0
C111 C 0.8383 0.65442 0.0547 0.0
Zn112 Zn 0.03865 0.86097 0.71246 0.0
Zn113 Zn 0.14276 0.85068 0.75605 0.0
O114 O 0.07531 0.82917 0.76436 0.0
O115 O 0.98466 0.8399 0.73617 0.0
O116 O 0.22237 0.84381 0.79693 0.0
O117 O 0.03358 0.8867 0.73788 0.0
O118 O 0.1242 0.87896 0.77226 0.0
C119 C 0.01668 0.82658 0.75404 0.0
C120 C 0.13973 0.85013 0.64708 0.0
O121 O 0.17181 0.84782 0.68601 0.0
O122 O 0.08352 0.85625 0.64922 0.0
C123 C 0.2386 0.82712 0.80831 0.0
O124 O 0.20195 0.81316 0.79492 0.0
C125 C 0.08156 0.8912 0.76273 0.0
Zn126 Zn 0.33131 0.39011 0.6868 0.0
Zn127 Zn 0.22794 0.40274 0.736 0.0
O128 O 0.29864 0.42312 0.74415 0.0
O129 O 0.38461 0.4118 0.70926 0.0
O130 O 0.14934 0.41009 0.77711 0.0
O131 O 0.33105 0.36468 0.718 0.0
O132 O 0.24268 0.37465 0.75208 0.0
C133 C 0.35651 0.42509 0.73075 0.0
C134 C 0.22489 0.40211 0.62644 0.0
O135 O 0.19763 0.40557 0.66685 0.0
O136 O 0.27989 0.39498 0.62566 0.0
C137 C 0.13127 0.4268 0.78604 0.0
O138 O 0.16602 0.44086 0.77022 0.0
C139 C 0.28231 0.36154 0.74359 0.0
Zn140 Zn 0.07676 0.48111 0.42887 0.0
Zn141 Zn 0.20059 0.48393 0.41302 0.0
O142 O 0.17513 0.5087 0.44897 0.0
O143 O 0.07241 0.50602 0.46157 0.0
O144 O 0.29335 0.486 0.39185 0.0
O145 O 0.05331 0.4762 0.35903 0.0
O146 O 0.15625 0.4727 0.35308 0.0
C147 C 0.12359 0.51499 0.46728 0.0
C148 C 0.15396 0.45337 0.47888 0.0
O149 O 0.20036 0.46253 0.46103 0.0
O150 O 0.09738 0.45838 0.4706 0.0
C151 C 0.33781 0.48655 0.42322 0.0
O152 O 0.32288 0.48725 0.46979 0.0
C153 C 0.10084 0.4701 0.33589 0.0
Zn154 Zn 0.26357 0.77522 0.42851 0.0
Zn155 Zn 0.13899 0.77075 0.42611 0.0
O156 O 0.17776 0.746 0.45385 0.0
O157 O 0.28149 0.74956 0.45325 0.0
O158 O 0.04405 0.76628 0.4142 0.0
O159 O 0.27241 0.78374 0.3591 0.0
O160 O 0.16902 0.78523 0.36562 0.0
C161 C 0.23321 0.73987 0.4639 0.0
C162 C 0.1921 0.79952 0.49339 0.0
O163 O 0.14373 0.79057 0.47816 0.0
O164 O 0.24722 0.79553 0.47836 0.0
C165 C 0.02314 0.76236 0.37175 0.0
O166 O 0.06394 0.76014 0.33597 0.0
C167 C 0.21987 0.78985 0.34357 0.0
Zn168 Zn 0.89408 0.22775 0.15471 0.0
Zn169 Zn 0.76803 0.23221 0.15409 0.0
O170 O 0.80137 0.25931 0.17244 0.0
O171 O 0.90419 0.254 0.17717 0.0
O172 O 0.67101 0.23196 0.14801 0.0
O173 O 0.89872 0.21955 0.08488 0.0
O174 O 0.79539 0.21794 0.0926 0.0
C175 C 0.85755 0.26489 0.18278 0.0
C176 C 0.83048 0.20477 0.22418 0.0
O177 O 0.78236 0.21394 0.20948 0.0
O178 O 0.88478 0.20774 0.20613 0.0
C179 C 0.64413 0.23307 0.10642 0.0
O180 O 0.67894 0.23703 0.06792 0.0
C181 C 0.84572 0.2138 0.06939 0.0
Zn182 Zn 0.86998 0.55656 0.21974 0.0
Zn183 Zn 0.96927 0.54994 0.17708 0.0
O184 O 0.92129 0.52552 0.20311 0.0
O185 O 0.82119 0.53338 0.20848 0.0
O186 O 0.04458 0.54307 0.13293 0.0
O187 O 0.84325 0.58009 0.18904 0.0
O188 O 0.9265 0.57348 0.14393 0.0
C189 C 0.86379 0.52114 0.21348 0.0
C190 C 0.98529 0.55893 0.27809 0.0
O191 O 1.01373 0.55905 0.2373 0.0
O192 O 0.92565 0.557 0.27999 0.0
C193 C 0.09247 0.5347 0.15112 0.0
O194 O 0.08887 0.52855 0.19635 0.0
C195 C 0.87942 0.58412 0.15387 0.0
Zn196 Zn 0.13562 0.60389 0.5362 0.0
Zn197 Zn 1.00042 0.58857 0.55807 0.0
O198 O 0.06964 0.58622 0.60795 0.0
O199 O 0.16904 0.58939 0.59708 0.0
O200 O 0.91818 0.57528 0.5809 0.0
O201 O 0.08036 0.62765 0.53815 0.0
O202 O 0.9827 0.61629 0.54669 0.0
C203 C 0.12251 0.57827 0.60006 0.0
C204 C 0.07359 0.57925 0.46365 0.0
O205 O 0.02707 0.57832 0.4932 0.0
O206 O 0.12258 0.58898 0.47303 0.0
C207 C 0.88702 0.56485 0.55166 0.0
O208 O 0.90861 0.56259 0.50709 0.0
C209 C 0.02054 0.63002 0.53936 0.0
Zn210 Zn 0.67767 0.16428 0.47358 0.0
Zn211 Zn 0.78995 0.17384 0.5071 0.0
O212 O 0.73066 0.19744 0.51159 0.0
O213 O 0.63513 0.18868 0.48852 0.0
O214 O 0.87543 0.1797 0.54024 0.0
O215 O 0.66856 0.14074 0.51212 0.0
O216 O 0.76704 0.14712 0.5324 0.0
C217 C 0.67283 0.20149 0.50176 0.0
C218 C 0.77709 0.16735 0.40028 0.0
O219 O 0.81243 0.17197 0.43589 0.0
O220 O 0.71972 0.16288 0.40759 0.0
C221 C 0.89042 0.19437 0.56404 0.0
O222 O 0.84804 0.20767 0.56956 0.0
C223 C 0.71998 0.13584 0.53204 0.0
Zn224 Zn 0.51114 0.31686 0.79644 0.0
Zn225 Zn 0.62612 0.30162 0.78235 0.0
O226 O 0.56109 0.28021 0.77047 0.0
O227 O 0.46718 0.29212 0.78675 0.0
O228 O 0.7141 0.29003 0.7892 0.0
O229 O 0.53285 0.32869 0.8613 0.0
O230 O 0.62774 0.31912 0.84081 0.0
C231 C 0.50076 0.2786 0.77186 0.0
C232 C 0.58038 0.32921 0.70864 0.0
O233 O 0.62405 0.31802 0.72226 0.0
O234 O 0.53042 0.33119 0.73389 0.0
C235 C 0.72526 0.28181 0.82972 0.0
O236 O 0.67818 0.27952 0.86063 0.0
C237 C 0.59205 0.32867 0.86852 0.0
Zn238 Zn 0.83006 0.95715 0.86964 0.0
Zn239 Zn 0.68953 0.96523 0.85973 0.0
O240 O 0.75286 0.98329 0.88616 0.0
O241 O 0.85246 0.98566 0.87611 0.0
O242 O 0.59925 0.97533 0.8641 0.0
O243 O 0.79091 0.93866 0.92099 0.0
O244 O 0.68973 0.94223 0.90124 0.0
C245 C 0.79797 0.99046 0.86172 0.0
C246 C 0.76336 0.94849 0.77537 0.0
O247 O 0.71226 0.95509 0.79339 0.0
O248 O 0.81503 0.94814 0.79923 0.0
C249 C 0.58018 0.9805 0.90612 0.0
O250 O 0.62074 0.98036 0.94252 0.0
C251 C 0.73317 0.93336 0.92364 0.0
Zn252 Zn 0.60508 0.91656 0.52431 0.0
Zn253 Zn 0.70288 0.92415 0.47888 0.0
O254 O 0.64641 0.949 0.47397 0.0
O255 O 0.55923 0.93971 0.51123 0.0
O256 O 0.78287 0.92644 0.43493 0.0
O257 O 0.57546 0.89385 0.49429 0.0
O258 O 0.66585 0.89783 0.4557 0.0
C259 C 0.59026 0.95242 0.48982 0.0
C260 C 0.70862 0.91935 0.58851 0.0
O261 O 0.73782 0.92367 0.54929 0.0
O262 O 0.65092 0.91467 0.58689 0.0
C263 C 0.83557 0.93337 0.449 0.0
O264 O 0.83853 0.94119 0.49233 0.0
C265 C 0.61614 0.88802 0.46436 0.0
Zn266 Zn 0.65199 0.3148 0.42745 0.0
Zn267 Zn 0.53804 0.31344 0.41831 0.0
O268 O 0.56668 0.28472 0.42955 0.0
O269 O 0.66801 0.28876 0.4448 0.0
O270 O 0.44507 0.31506 0.39424 0.0
O271 O 0.68193 0.32517 0.36462 0.0
O272 O 0.5828 0.33338 0.37323 0.0
C273 C 0.62044 0.27807 0.44335 0.0
C274 C 0.58764 0.33292 0.50557 0.0
O275 O 0.53965 0.32508 0.48603 0.0
O276 O 0.641 0.33223 0.4845 0.0
C277 C 0.41774 0.3308 0.40107 0.0
O278 O 0.44896 0.34392 0.42456 0.0
C279 C 0.63732 0.33625 0.35431 0.0
Zn280 Zn 0.51348 0.69387 0.20943 0.0
Zn281 Zn 0.38632 0.69759 0.15769 0.0
O282 O 0.42993 0.72339 0.15157 0.0
O283 O 0.52497 0.71299 0.15596 0.0
O284 O 0.30289 0.699 0.12014 0.0
O285 O 0.51273 0.66754 0.18479 0.0
O286 O 0.42863 0.67249 0.13788 0.0
C287 C 0.48673 0.72604 0.16526 0.0
C288 C 0.3921 0.69793 0.26694 0.0
O289 O 0.35998 0.69557 0.22813 0.0
O290 O 0.45226 0.699 0.26595 0.0
C291 C 0.25777 0.70903 0.13651 0.0
O292 O 0.26736 0.71897 0.17614 0.0
C293 C 0.47367 0.66193 0.15286 0.0
Zn294 Zn 0.28741 0.04588 0.18975 0.0
Zn295 Zn 0.40549 0.04387 0.17801 0.0
O296 O 0.37905 0.01571 0.19447 0.0
O297 O 0.27757 0.01953 0.21001 0.0
O298 O 0.49861 0.04578 0.15763 0.0
O299 O 0.26062 0.05522 0.12453 0.0
O300 O 0.36213 0.06132 0.1273 0.0
C301 C 0.32587 0.00911 0.20961 0.0
C302 C 0.3567 0.06654 0.26112 0.0
O303 O 0.40343 0.05825 0.24129 0.0
O304 O 0.30151 0.06462 0.2437 0.0
C305 C 0.51782 0.04198 0.1147 0.0
O306 O 0.47808 0.03433 0.08367 0.0
C307 C 0.30754 0.06453 0.10916 0.0
Zn308 Zn 0.47328 0.06367 0.54453 0.0
Zn309 Zn 0.35563 0.04811 0.54549 0.0
O310 O 0.4191 0.02579 0.53911 0.0
O311 O 0.51464 0.03837 0.54023 0.0
O312 O 0.26609 0.03757 0.55482 0.0
O313 O 0.45773 0.07785 0.60682 0.0
O314 O 0.35961 0.06796 0.59897 0.0
C315 C 0.47938 0.0241 0.53583 0.0
C316 C 0.39374 0.07254 0.46076 0.0
O317 O 0.35339 0.06181 0.48129 0.0
O318 O 0.44705 0.07568 0.48044 0.0
C319 C 0.24766 0.03281 0.59743 0.0
O320 O 0.28885 0.03318 0.63339 0.0
C321 C 0.40019 0.07844 0.61972 0.0
Zn322 Zn 0.25078 0.65209 0.52665 0.0
Zn323 Zn 0.38447 0.66735 0.55045 0.0
O324 O 0.31661 0.66988 0.60194 0.0
O325 O 0.2186 0.66397 0.59112 0.0
O326 O 0.4671 0.67998 0.57388 0.0
O327 O 0.30462 0.62828 0.52605 0.0
O328 O 0.40155 0.63948 0.53873 0.0
C329 C 0.26136 0.67631 0.59428 0.0
C330 C 0.31293 0.67834 0.45645 0.0
O331 O 0.35972 0.67861 0.48577 0.0
O332 O 0.26364 0.66866 0.46557 0.0
C333 C 0.49009 0.69433 0.5522 0.0
O334 O 0.45941 0.70142 0.51482 0.0
C335 C 0.36418 0.62583 0.52935 0.0
Zn336 Zn 0.4808 0.78579 0.35167 0.0
Zn337 Zn 0.62104 0.7768 0.34848 0.0
O338 O 0.5611 0.75887 0.38194 0.0
O339 O 0.46015 0.75989 0.38244 0.0
O340 O 0.71302 0.7687 0.35987 0.0
O341 O 0.51433 0.80767 0.39117 0.0
O342 O 0.61666 0.80288 0.37814 0.0
C343 C 0.50939 0.75253 0.36467 0.0
C344 C 0.55056 0.78501 0.25489 0.0
O345 O 0.6005 0.7799 0.27752 0.0
O346 O 0.49904 0.78832 0.27747 0.0
C347 C 0.75418 0.76612 0.32654 0.0
O348 O 0.73668 0.7674 0.2806 0.0
C349 C 0.57165 0.81305 0.39409 0.0
Zn350 Zn 0.83621 0.43791 0.33418 0.0
Zn351 Zn 0.70249 0.45335 0.31886 0.0
O352 O 0.76095 0.45989 0.3731 0.0
O353 O 0.86031 0.45863 0.38512 0.0
O354 O 0.61652 0.46639 0.32808 0.0
O355 O 0.77971 0.41456 0.3446 0.0
O356 O 0.68524 0.42553 0.32274 0.0
C357 C 0.81401 0.46816 0.36968 0.0
C358 C 0.79795 0.45326 0.23565 0.0
O359 O 0.7434 0.45747 0.25276 0.0
O360 O 0.84004 0.44537 0.26184 0.0
C361 C 0.5982 0.46952 0.3717 0.0
O362 O 0.63671 0.46536 0.40782 0.0
C363 C 0.72145 0.41194 0.33424 0.0
Zn364 Zn 0.67054 0.43201 0.97529 0.0
Zn365 Zn 0.76984 0.4324 0.93473 0.0
O366 O 0.71692 0.45729 0.9212 0.0
O367 O 0.61958 0.44709 0.92905 0.0
O368 O 0.84921 0.43071 0.89043 0.0
O369 O 0.65178 0.40523 -0.01733 0.0
O370 O 0.72684 0.40572 0.92709 0.0
C371 C 0.65707 0.46045 0.92007 0.0
C372 C 0.77147 0.44466 0.03549 0.0
O373 O 0.80528 0.43641 0.00361 0.0
O374 O 0.7123 0.44602 0.02937 0.0
C375 C 0.89569 0.44217 0.89059 0.0
O376 O 0.89228 0.45717 0.91819 0.0
C377 C 0.68376 0.3968 0.95068 0.0
Zn378 Zn 0.70468 0.82027 -0.00512 0.0
Zn379 Zn 0.59894 0.81984 0.95887 0.0
O380 O 0.65008 0.79487 0.9419 0.0
O381 O 0.74988 0.80247 0.95252 0.0
O382 O 0.51873 0.82214 0.91558 0.0
O383 O 0.72817 0.84685 -0.00483 0.0
O384 O 0.63848 0.8472 0.9545 0.0
C385 C 0.70894 0.79034 0.94103 0.0
C386 C 0.60412 0.80841 0.06063 0.0
O387 O 0.56651 0.81448 0.02786 0.0
O388 O 0.66341 0.80891 0.0538 0.0
C389 C 0.47176 0.81086 0.91546 0.0
O390 O 0.47448 0.79569 0.94271 0.0
C391 C 0.6869 0.85585 0.97156 0.0
Zn392 Zn 0.35493 0.18298 0.73956 0.0
Zn393 Zn 0.2598 0.18701 0.69437 0.0
O394 O 0.31874 0.2112 0.69026 0.0
O395 O 0.41258 0.19872 0.69992 0.0
O396 O 0.18248 0.18959 0.64896 0.0
O397 O 0.36592 0.15573 0.73808 0.0
O398 O 0.29579 0.15996 0.67979 0.0
C399 C 0.37915 0.21305 0.69207 0.0
C400 C 0.25153 0.1939 0.79866 0.0
O401 O 0.22035 0.18791 0.76218 0.0
O402 O 0.31126 0.19503 0.7963 0.0
C403 C 0.137 0.20077 0.6584 0.0
O404 O 0.14266 0.21223 0.6956 0.0
C405 C 0.33456 0.14929 0.70273 0.0
Zn406 Zn 0.39492 0.53552 0.64528 0.0
Zn407 Zn 0.51628 0.53376 0.64813 0.0
O408 O 0.48763 0.50589 0.66604 0.0
O409 O 0.38429 0.50984 0.67103 0.0
O410 O 0.61304 0.53555 0.64035 0.0
O411 O 0.38504 0.54215 0.57481 0.0
O412 O 0.48452 0.54887 0.58847 0.0
C413 C 0.43242 0.49959 0.67704 0.0
C414 C 0.44811 0.5595 0.71716 0.0
O415 O 0.49853 0.55075 0.70565 0.0
O416 O 0.39677 0.55634 0.69476 0.0
C417 C 0.63809 0.53442 0.59809 0.0
O418 O 0.602 0.52967 0.56103 0.0
C419 C 0.4345 0.55111 0.56309 0.0
Zn420 Zn 0.55502 0.57093 -0.00969 0.0
Zn421 Zn 0.44112 0.55793 0.00281 0.0
O422 O 0.49948 0.53433 -0.00807 0.0
O423 O 0.59574 0.54593 -0.01611 0.0
O424 O 0.35238 0.54897 0.02336 0.0
O425 O 0.56017 0.58649 0.05013 0.0
O426 O 0.45885 0.57943 0.05189 0.0
C427 C 0.55865 0.53201 -0.01685 0.0
C428 C 0.4685 0.57923 0.91114 0.0
O429 O 0.42951 0.56947 0.93608 0.0
O430 O 0.52338 0.58263 0.92769 0.0
C431 C 0.34277 0.54053 0.06379 0.0
O432 O 0.39182 0.53628 0.09118 0.0
C433 C 0.50545 0.58913 0.06745 0.0
Zn434 Zn 0.13453 0.16969 0.0829 0.0
Zn435 Zn 0.2743 0.18222 0.08685 0.0
O436 O 0.2114 0.18713 0.13988 0.0
O437 O 0.11073 0.18853 0.13832 0.0
O438 O 0.36041 0.19461 0.10234 0.0
O439 O 0.18454 0.14494 0.08993 0.0
O440 O 0.285 0.15407 0.08235 0.0
C441 C 0.16257 0.19725 0.13412 0.0
C442 C 0.19116 0.18871 -0.00375 0.0
O443 O 0.24227 0.19038 0.02072 0.0
O444 O 0.1426 0.18056 0.01384 0.0
C445 C 0.38958 0.20481 0.07124 0.0
O446 O 0.36376 0.20749 0.02814 0.0
C447 C 0.24322 0.14113 0.08491 0.0
C448 C 0.03213 0.45157 0.27919 0.0
C449 C 0.09085 0.4542 0.30224 0.0
H450 H 0.96857 0.43223 0.24503 0.0
C451 C 0.13416 0.43922 0.30326 0.0
H452 H 0.99843 0.4629 0.27694 0.0
C453 C 0.1169 0.4216 0.28579 0.0
C454 C 0.05633 0.4186 0.26614 0.0
H455 H 0.17979 0.44065 0.32097 0.0
H456 H 0.15057 0.41021 0.28889 0.0
C457 C 1.01498 0.43394 0.26127 0.0
C458 C 0.2813 0.83423 0.28689 0.0
C459 C 0.22776 0.84588 0.29062 0.0
H460 H 0.32038 0.80695 0.2985 0.0
C461 C 0.1691 0.83776 0.30246 0.0
H462 H 0.32703 0.83993 0.27663 0.0
C463 C 0.16499 0.81869 0.31383 0.0
C464 C 0.21969 0.80738 0.31439 0.0
H465 H 0.12661 0.84623 0.30425 0.0
H466 H 0.11965 0.81318 0.3257 0.0
C467 C 0.27732 0.8152 0.29859 0.0
C468 C 0.04116 0.94142 0.79402 0.0
C469 C 0.09763 0.94766 0.81572 0.0
H470 H 0.99163 0.91864 0.76094 0.0
C471 C 0.15096 0.93581 0.81499 0.0
H472 H 0.99923 0.95017 0.79398 0.0
C473 C 0.14616 0.91752 0.79724 0.0
C474 C 0.08831 0.91084 0.77901 0.0
H475 H 0.19528 0.9401 0.83149 0.0
H476 H 0.18725 0.90847 0.79912 0.0
C477 C 0.03663 0.92323 0.77571 0.0
C478 C 0.20608 0.3364 0.76657 0.0
C479 C 0.269 0.34235 0.76094 0.0
H480 H 0.1434 0.31517 0.79256 0.0
C481 C 0.31834 0.3298 0.77169 0.0
H482 H 0.16712 0.34558 0.75705 0.0
C483 C 0.30487 0.3123 0.79259 0.0
C484 C 0.2418 0.30697 0.80216 0.0
H485 H 0.36735 0.33392 0.76667 0.0
H486 H 0.34388 0.30358 0.80449 0.0
C487 C 0.19258 0.31878 0.78617 0.0
C488 C 0.03572 0.66383 0.51748 0.0
C489 C 0.99535 0.64923 0.53277 0.0
H490 H 0.0497 0.69346 0.51204 0.0
C491 C 0.93207 0.65345 0.54402 0.0
H492 H 0.08408 0.66099 0.50654 0.0
C493 C 0.91221 0.67211 0.54651 0.0
C494 C 0.95563 0.68684 0.53843 0.0
H495 H 0.89917 0.64248 0.55447 0.0
H496 H 0.86497 0.67491 0.56013 0.0
C497 C 1.01579 0.68245 0.51983 0.0
C498 C 0.68384 0.08487 0.5595 0.0
C499 C 0.74426 0.0777 0.57034 0.0
H500 H 0.62859 0.10885 0.54011 0.0
C501 C 0.79659 0.08993 0.56912 0.0
H502 H 0.64239 0.0759 0.56051 0.0
C503 C 0.78848 0.10894 0.55831 0.0
C504 C 0.72793 0.11614 0.54808 0.0
H505 H 0.84369 0.08495 0.57795 0.0
H506 H 0.8298 0.11796 0.55757 0.0
C507 C 0.67581 0.10384 0.54842 0.0
C508 C 0.89979 0.19276 0.01009 0.0
C509 C 0.84509 0.1974 0.03654 0.0
H510 H 0.95296 0.17118 0.97528 0.0
C511 C 0.79681 0.18387 0.04165 0.0
H512 H 0.9378 0.20285 0.00556 0.0
C513 C 0.80622 0.1655 0.02557 0.0
C514 C 0.8634 0.16047 0.00308 0.0
H515 H 0.75404 0.18695 0.06198 0.0
H516 H 0.76994 0.15509 0.0327 0.0
C517 C 0.90868 0.17451 -0.00673 0.0
C518 C 0.91992 0.61159 0.10615 0.0
C519 C 0.86904 0.60192 0.12756 0.0
H520 H 0.95043 0.63621 0.06794 0.0
C521 C 0.80857 0.61019 0.12737 0.0
H522 H 0.96717 0.60568 0.1065 0.0
C523 C 0.79885 0.6276 0.10526 0.0
C524 C 0.84967 0.6373 0.08379 0.0
H525 H 0.76852 0.60309 0.14397 0.0
H526 H 0.75143 0.63339 0.10453 0.0
C527 C 0.91046 0.62921 0.0849 0.0
C528 C 0.60591 0.37042 0.95129 0.0
C529 C 0.66576 0.37744 0.93756 0.0
H530 H 0.53548 0.3492 0.94048 0.0
C531 C 0.70515 0.36642 0.90815 0.0
H532 H 0.57456 0.3785 0.97437 0.0
C533 C 0.68322 0.34935 0.88981 0.0
C534 C 0.62093 0.34324 0.89962 0.0
H535 H 0.75177 0.37135 0.89757 0.0
H536 H 0.71346 0.34172 0.86488 0.0
C537 C 0.58348 0.35356 0.93213 0.0
C538 C 0.64771 0.88737 0.94401 0.0
C539 C 0.696 0.87624 0.9639 0.0
H540 H 0.62077 0.91436 0.91735 0.0
C541 C 0.75409 0.88474 0.97625 0.0
H542 H 0.60218 0.88132 0.93477 0.0
C543 C 0.76495 0.90369 0.9663 0.0
C544 C 0.71778 0.91463 0.94413 0.0
H545 H 0.79221 0.87661 -0.00785 0.0
H546 H 0.81122 0.90954 0.97412 0.0
C547 C 0.65832 0.90639 0.93453 0.0
C548 C 0.64566 0.84021 0.40857 0.0
C549 C 0.58491 0.83211 0.41241 0.0
H550 H 0.70342 0.86458 0.42124 0.0
C551 C 0.53501 0.8429 0.43103 0.0
H552 H 0.68496 0.83231 0.39379 0.0
C553 C 0.5454 0.86122 0.44597 0.0
C554 C 0.60603 0.86932 0.44288 0.0
H555 H 0.48752 0.83724 0.43412 0.0
H556 H 0.50562 0.869 0.46053 0.0
C557 C 0.65612 0.85873 0.42362 0.0
C558 C 0.71773 0.35921 0.32487 0.0
C559 C 0.65404 0.35513 0.33574 0.0
H560 H 0.78899 0.38031 0.31736 0.0
C561 C 0.61089 0.37006 0.34011 0.0
H562 H 0.75224 0.3481 0.32078 0.0
C563 C 0.63221 0.38864 0.33807 0.0
C564 C 0.69702 0.39255 0.33219 0.0
H565 H 0.56149 0.36744 0.3485 0.0
H566 H 0.59855 0.39988 0.34367 0.0
C567 C 0.73907 0.37769 0.32369 0.0
C568 C 0.43527 0.61528 0.09417 0.0
C569 C 0.4941 0.60609 0.0968 0.0
H570 H 0.38307 0.64039 0.10869 0.0
C571 C 0.54487 0.615 0.12039 0.0
H572 H 0.39545 0.60885 0.07568 0.0
C573 C 0.53773 0.63301 0.13926 0.0
C574 C 0.47997 0.64262 0.13423 0.0
H575 H 0.59083 0.60831 0.1227 0.0
H576 H 0.57821 0.63964 0.15637 0.0
C577 C 0.42844 0.63345 0.11232 0.0
C578 C 0.32617 0.11593 0.08499 0.0
C579 C 0.26235 0.12124 0.08094 0.0
H580 H 0.39149 0.09337 0.09489 0.0
C581 C 0.2162 0.10726 0.07395 0.0
H582 H 0.36306 0.12637 0.08912 0.0
C583 C 0.23257 0.08835 0.07625 0.0
C584 C 0.2953 0.08301 0.08635 0.0
H585 H 0.1668 0.11089 0.06893 0.0
H586 H 0.19505 0.07799 0.0744 0.0
C587 C 0.34255 0.09696 0.08756 0.0
C588 C 0.31856 0.10242 0.63963 0.0
C589 C 0.37818 0.09438 0.6493 0.0
H590 H 0.25842 0.12642 0.64796 0.0
C591 C 0.42036 0.10374 0.68033 0.0
H592 H 0.28527 0.0956 0.61535 0.0
C593 C 0.40462 0.12123 0.69934 0.0
C594 C 0.34699 0.12991 0.68676 0.0
H595 H 0.46665 0.09791 0.68815 0.0
H596 H 0.43912 0.12837 0.72192 0.0
C597 C 0.30341 0.12016 0.65771 0.0
C598 C 0.45173 0.60222 0.53756 0.0
C599 C 0.3891 0.60653 0.5245 0.0
H600 H 0.51712 0.58072 0.55765 0.0
C601 C 0.34839 0.59186 0.51042 0.0
H602 H 0.4848 0.6132 0.54736 0.0
C603 C 0.36715 0.57322 0.51562 0.0
C604 C 0.4266 0.56889 0.5357 0.0
H605 H 0.30038 0.5947 0.49855 0.0
H606 H 0.33266 0.56228 0.50874 0.0
C607 C 0.47049 0.58353 0.54284 0.0
C608 C 0.32605 0.32484 0.34287 0.0
C609 C 0.35354 0.3352 0.38112 0.0
H610 H 0.24914 0.32258 0.29153 0.0
C611 C 0.32079 0.35097 0.39864 0.0
H612 H 0.35006 0.31267 0.32833 0.0
C613 C 0.26321 0.35655 0.37796 0.0
C614 C 0.23651 0.34667 0.33863 0.0
H615 H 0.34013 0.35926 0.42818 0.0
H616 H 0.24036 0.36895 0.3923 0.0
C617 C 0.26832 0.33058 0.32166 0.0
C618 C 1.00744 0.938 0.40793 0.0
C619 C 1.01081 0.92575 0.36782 0.0
H620 H 0.95042 0.95004 0.46436 0.0
C621 C 0.95486 0.91655 0.35317 0.0
H622 H 0.04921 0.94542 0.42036 0.0
C623 C 0.89746 0.91936 0.37842 0.0
C624 C 0.89467 0.93134 0.4192 0.0
H625 H 0.95543 0.90706 0.32237 0.0
H626 H 0.85562 0.91184 0.3666 0.0
C627 C 0.95046 0.9407 0.43327 0.0
C628 C 0.4924 0.98992 0.9628 0.0
C629 C 0.51218 0.98462 0.91573 0.0
H630 H 0.41467 0.99557 0.01078 0.0
C631 C 0.4659 0.98211 0.87937 0.0
H632 H 0.52664 0.99211 -0.0083 0.0
C633 C 0.40133 0.98412 0.89039 0.0
C634 C 0.38153 0.98868 0.93804 0.0
H635 H 0.47938 0.97805 0.84272 0.0
H636 H 0.36689 0.98158 0.86185 0.0
C637 C 0.428 0.99191 0.97381 0.0
C638 C 0.80153 0.26832 0.89058 0.0
C639 C 0.79104 0.27731 0.84546 0.0
H640 H 0.86879 0.25951 0.9444 0.0
C641 C 0.84389 0.2833 0.8182 0.0
H642 H 0.76209 0.26343 0.91255 0.0
C643 C 0.90548 0.28107 0.83667 0.0
C644 C 0.91564 0.27279 0.88279 0.0
H645 H 0.83763 0.29029 0.78336 0.0
H646 H 0.94498 0.28634 0.81537 0.0
C647 C 0.86292 0.26608 0.90896 0.0
C648 C 0.64281 0.72251 0.54694 0.0
C649 C 0.6742 0.71685 0.58975 0.0
H650 H 0.56044 0.72007 0.50198 0.0
C651 C 0.64312 0.70432 0.62164 0.0
H652 H 0.66526 0.73214 0.52158 0.0
C653 C 0.58305 0.6971 0.61 0.0
C654 C 0.55235 0.70248 0.56656 0.0
H655 H 0.66613 0.69956 0.65479 0.0
H656 H 0.56104 0.68714 0.6347 0.0
C657 C 0.58257 0.71554 0.5357 0.0
C658 C 0.06793 0.02999 0.58461 0.0
C659 C 0.04935 0.02488 0.63225 0.0
H660 H 0.14494 0.03636 0.53595 0.0
C661 C 0.09681 0.02123 0.66704 0.0
H662 H 0.03271 0.03286 0.55683 0.0
C663 C 0.16094 0.02323 0.65511 0.0
C664 C 0.17962 0.0289 0.60798 0.0
H665 H 0.08451 0.01717 0.70401 0.0
H666 H 0.19589 0.02069 0.68331 0.0
C667 C 0.13234 0.03195 0.57259 0.0
C668 C 0.60853 0.04037 0.05567 0.0
C669 C 0.58138 0.04829 0.09764 0.0
H670 H 0.68435 0.04101 0.00384 0.0
C671 C 0.61318 0.06324 0.12056 0.0
H672 H 0.58535 0.02886 0.03709 0.0
C673 C 0.66965 0.07052 0.10086 0.0
C674 C 0.6962 0.06275 0.05839 0.0
H675 H 0.59328 0.06976 0.15276 0.0
H676 H 0.69218 0.08231 0.11864 0.0
C677 C 0.66543 0.04737 0.03661 0.0
C678 C 0.08123 0.71614 0.11726 0.0
C679 C 0.06956 0.70565 0.07483 0.0
H680 H 0.14934 0.72556 0.16956 0.0
C681 C 0.12111 0.69702 0.05127 0.0
H682 H 0.04279 0.72302 0.13629 0.0
C683 C 0.18249 0.69838 0.07062 0.0
C684 C 0.19379 0.70851 0.11375 0.0
H685 H 0.11387 0.68881 0.01853 0.0
H686 H 0.22086 0.69124 0.05218 0.0
C687 C 0.14251 0.71761 0.13635 0.0
C688 C 0.40216 0.83306 0.86682 0.0
C689 C 0.41307 0.81513 0.88687 0.0
H690 H 0.33863 0.85104 0.82704 0.0
C691 C 0.36605 0.80133 0.88072 0.0
H692 H 0.43707 0.84408 0.87099 0.0
C693 C 0.30995 0.80528 0.85526 0.0
C694 C 0.29859 0.82323 0.83564 0.0
H695 H 0.37256 0.78738 0.89556 0.0
H696 H 0.27515 0.79422 0.85132 0.0
C697 C 0.34548 0.83709 0.84181 0.0
C698 C 1.00058 0.45232 0.85528 0.0
C699 C 0.95491 0.43819 0.86246 0.0
H700 H 0.09111 0.4599 0.82563 0.0
C701 C 0.96783 0.42015 0.84422 0.0
H702 H 0.99247 0.46637 0.86876 0.0
C703 C 0.0252 0.41634 0.82002 0.0
C704 C 0.07076 0.43053 0.81276 0.0
H705 H 0.93403 0.40887 0.84931 0.0
H706 H 0.03363 0.40229 0.80667 0.0
C707 C 0.05737 0.44859 0.8305 0.0
C708 C 0.48523 0.47657 0.34683 0.0
C709 C 0.5327 0.47599 0.38288 0.0
H710 H 0.38638 0.48041 0.33107 0.0
C711 C 0.51607 0.48042 0.43126 0.0
H712 H 0.49632 0.47325 0.30922 0.0
C713 C 0.45338 0.48453 0.44375 0.0
C714 C 0.40528 0.4843 0.40826 0.0
H715 H 0.55133 0.48027 0.46 0.0
H716 H 0.44244 0.48739 0.48166 0.0
C717 C 0.42216 0.48067 0.3594 0.0
C718 C 0.84384 0.76548 0.38764 0.0
C719 C 0.82231 0.76352 0.33922 0.0
H720 H 0.92377 0.76667 0.43604 0.0
C721 C 0.86723 0.76009 0.30237 0.0
H722 H 0.81066 0.76813 0.417 0.0
C723 C 0.93196 0.75919 0.31332 0.0
C724 C 0.95379 0.76178 0.36141 0.0
H725 H 0.85255 0.75843 0.26473 0.0
H726 H 0.96503 0.75688 0.2837 0.0
C727 C 0.90879 0.76467 0.39859 0.0
C728 C 0.54287 0.21804 0.13698 0.0
C729 C 0.57657 0.22747 0.09984 0.0
H730 H 0.45773 0.20337 0.15722 0.0
C731 C 0.54679 0.23012 0.05441 0.0
H732 H 0.5644 0.21566 0.17235 0.0
C733 C 0.48585 0.22312 0.04579 0.0
C734 C 0.45287 0.21313 0.08222 0.0
H735 H 0.57109 0.23732 0.02495 0.0
H736 H 0.46516 0.22524 0.01 0.0
C737 C 0.48179 0.2109 0.12822 0.0
C738 C 0.22394 0.54493 0.05888 0.0
C739 C 0.27723 0.53723 0.08249 0.0
H740 H 0.12374 0.55013 0.06166 0.0
C741 C 0.26782 0.52732 0.1264 0.0
H742 H 0.22931 0.55265 0.02499 0.0
C743 C 0.20744 0.52582 0.14726 0.0
C744 C 0.15453 0.53424 0.12496 0.0
H745 H 0.30749 0.52108 0.14553 0.0
H746 H 0.20271 0.51851 0.18182 0.0
C747 C 0.16331 0.54347 0.07991 0.0
C748 C 0.79177 0.54528 0.53159 0.0
C749 C 0.82563 0.55596 0.56596 0.0
H750 H 0.70722 0.53005 0.51485 0.0
C751 C 0.79906 0.55837 0.61272 0.0
H752 H 0.81061 0.54297 0.4953 0.0
C753 C 0.73926 0.55075 0.62414 0.0
C754 C 0.7046 0.54064 0.58897 0.0
H755 H 0.82383 0.56644 0.64018 0.0
H756 H 0.71937 0.55329 0.65999 0.0
C757 C 0.73222 0.53779 0.54286 0.0
C758 C 1.00271 0.18309 0.57722 0.0
C759 C 0.95475 0.19635 0.58618 0.0
H760 H 0.09789 0.17415 0.59223 0.0
C761 C 0.96864 0.21151 0.61715 0.0
H762 H 0.99392 0.17127 0.55341 0.0
C763 C 0.02813 0.21311 0.6395 0.0
C764 C 0.07577 0.19971 0.63126 0.0
H765 H 0.93314 0.22203 0.62488 0.0
H766 H 0.03646 0.22481 0.66379 0.0
C767 C 0.06253 0.18478 0.59932 0.0
C768 C 0.92494 0.28591 0.23327 0.0
C769 C 0.87084 0.28366 0.20375 0.0
H770 H 0.9895 0.3048 0.26758 0.0
C771 C 0.83439 0.29951 0.1924 0.0
H772 H 0.95329 0.27391 0.24382 0.0
C773 C 0.85536 0.31744 0.20633 0.0
C774 C 0.91289 0.31975 0.23208 0.0
H775 H 0.79216 0.2982 0.17022 0.0
H776 H 0.82876 0.32953 0.19398 0.0
C777 C 0.94551 0.30367 0.24743 0.0
C778 C 0.35689 0.95809 0.24486 0.0
C779 C 0.29856 0.95302 0.26664 0.0
H780 H 0.41146 0.97966 0.20904 0.0
C781 C 0.25248 0.96694 0.27281 0.0
H782 H 0.39353 0.94771 0.23923 0.0
C783 C 0.26245 0.98503 0.25482 0.0
C784 C 0.31898 0.98986 0.23025 0.0
H785 H 0.20711 0.96365 0.28929 0.0
H786 H 0.22469 0.99514 0.25931 0.0
C787 C 0.36703 0.97635 0.22691 0.0
C788 C 0.99346 0.04953 0.03801 0.0
C789 C 0.02421 0.06591 0.02219 0.0
H790 H 0.98833 0.01974 0.03351 0.0
C791 C 0.0832 0.06424 -0.00179 0.0
H792 H 0.94864 0.05023 0.05724 0.0
C793 C 0.10591 0.0466 -0.01587 0.0
C794 C 0.06996 0.03049 -0.00599 0.0
H795 H 0.10873 0.07658 -0.01398 0.0
H796 H 0.14855 0.04576 0.96222 0.0
C797 C 1.01585 0.03203 0.02376 0.0
C798 C 0.11244 0.21705 0.06801 0.0
C799 C 0.16543 0.21248 0.09707 0.0
H800 H 0.07683 0.23276 0.00699 0.0
C801 C 0.22272 0.22192 0.08856 0.0
H802 H 0.0671 0.2103 0.07404 0.0
C803 C 0.2285 0.23451 0.04969 0.0
C804 C 0.1766 0.23837 0.01893 0.0
H805 H 0.26368 0.21917 0.11124 0.0
H806 H 0.2739 0.24126 0.0439 0.0
C807 C 0.11811 0.22977 0.02914 0.0
C808 C 1.01605 0.77422 0.73806 0.0
C809 C 0.95941 0.77137 0.71179 0.0
H810 H 0.07752 0.79364 0.77381 0.0
C811 C 0.91622 0.78624 0.70821 0.0
H812 H 0.04986 0.76295 0.74277 0.0
C813 C 0.93211 0.80399 0.72663 0.0
C814 C 0.99142 0.80718 0.74911 0.0
H815 H 0.87184 0.78445 0.68893 0.0
H816 H 0.89963 0.81547 0.72027 0.0
C817 C 0.03173 0.79183 0.7566 0.0
C818 C 0.72823 0.99661 0.78939 0.0
C819 C 0.78911 0.99359 0.80834 0.0
H820 H 0.67039 0.99959 0.72603 0.0
C821 C 0.84066 0.99287 0.77556 0.0
H822 H 0.68769 0.99755 0.81349 0.0
C823 C 0.83099 0.99435 0.72499 0.0
C824 C 0.76972 0.99678 0.70601 0.0
H825 H 0.88843 0.99068 0.78879 0.0
H826 H 0.87131 0.99329 0.7007 0.0
C827 C 0.71846 0.99778 0.739 0.0
C828 C 0.68452 0.75592 0.94956 0.0
C829 C 0.72901 0.77034 0.94213 0.0
H830 H 0.66877 0.72711 0.96863 0.0
C831 C 0.79392 0.76593 0.94606 0.0
H832 H 0.63421 0.75879 0.94756 0.0
C833 C 0.8137 0.74792 0.95946 0.0
C834 C 0.76923 0.73369 0.96878 0.0
H835 H 0.82974 0.77664 0.94082 0.0
H836 H 0.864 0.7452 0.9627 0.0
C837 C 0.7044 0.73781 0.96256 0.0
C838 C 0.36741 0.47777 0.72775 0.0
C839 C 0.42181 0.48072 0.69881 0.0
H840 H 0.30531 0.45806 0.76215 0.0
C841 C 0.46117 0.4654 0.68874 0.0
H842 H 0.33675 0.48936 0.73729 0.0
C843 C 0.443 0.44725 0.70337 0.0
C844 C 0.38537 0.44415 0.72857 0.0
H845 H 0.50365 0.46724 0.66703 0.0
H846 H 0.47203 0.43554 0.69201 0.0
C847 C 0.34957 0.45978 0.74258 0.0
C848 C 0.07037 0.53524 0.52961 0.0
C849 C 0.12382 0.53145 0.50038 0.0
H850 H 0.02877 0.55253 0.58478 0.0
C851 C 0.17816 0.54259 0.50616 0.0
H852 H 0.02804 0.52671 0.52701 0.0
C853 C 0.17836 0.55748 0.5394 0.0
C854 C 0.12403 0.56166 0.56738 0.0
H855 H 0.22049 0.53986 0.48499 0.0
H856 H 0.22077 0.56594 0.54237 0.0
C857 C 0.07076 0.54999 0.56306 0.0
C858 C 0.30416 0.70546 0.55425 0.0
C859 C 0.25416 0.69276 0.56131 0.0
H860 H 0.33786 0.7297 0.51619 0.0
C861 C 0.19673 0.69584 0.53628 0.0
H862 H 0.34833 0.70379 0.57388 0.0
C863 C 0.19039 0.71075 0.50342 0.0
C864 C 0.24121 0.72302 0.49499 0.0
H865 H 0.15671 0.68659 0.54168 0.0
H866 H 0.1456 0.71273 0.48484 0.0
C867 C 0.29816 0.72023 0.52087 0.0
C868 C 0.88804 0.48384 0.31015 0.0
C869 C 0.8261 0.48114 0.32797 0.0
H870 H 0.94843 0.49764 0.25841 0.0
C871 C 0.7763 0.49084 0.30527 0.0
H872 H 0.9277 0.47711 0.32787 0.0
C873 C 0.78795 0.50248 0.26492 0.0
C874 C 0.85005 0.5052 0.24708 0.0
H875 H 0.72821 0.48938 0.31856 0.0
H876 H 0.7484 0.50997 0.24901 0.0
C877 C 0.89984 0.4955 0.26991 0.0
C878 C 0.59518 0.22612 0.47282 0.0
C879 C 0.65372 0.22143 0.49479 0.0
H880 H 0.53832 0.24759 0.43877 0.0
C881 C 0.69812 0.23574 0.5023 0.0
H882 H 0.55979 0.21543 0.4662 0.0
C883 C 0.68615 0.25393 0.48594 0.0
C884 C 0.62919 0.25853 0.46166 0.0
H885 H 0.74358 0.23277 0.51894 0.0
H886 H 0.72265 0.26437 0.49174 0.0
C887 C 0.58295 0.24451 0.45655 0.0
C888 C 0.40257 0.26101 0.74691 0.0
C889 C 0.46918 0.26209 0.74946 0.0
H890 H 0.3215 0.245 0.72493 0.0
C891 C 0.50509 0.2481 0.72647 0.0
H892 H 0.37326 0.27172 0.76336 0.0
C893 C 0.47529 0.233 0.70348 0.0
C894 C 0.40877 0.23144 0.70292 0.0
H895 H 0.55637 0.24867 0.72665 0.0
H896 H 0.50456 0.22205 0.68803 0.0
C897 C 0.37272 0.24588 0.72385 0.0
C898 C 0.46987 0.99045 0.51059 0.0
C899 C 0.50831 0.00594 0.52148 0.0
H900 H 0.46584 0.96163 0.48984 0.0
C901 C 0.57449 0.00424 0.51528 0.0
H902 H 0.41882 0.9913 0.51395 0.0
C903 C 0.60158 0.98721 0.50054 0.0
C904 C 0.56305 0.97153 0.49183 0.0
H905 H 0.60561 0.01598 0.52263 0.0
H906 H 0.65269 0.98604 0.4987 0.0
C907 C 0.49686 0.97351 0.49598 0.0
C908 C 0.44789 0.74878 0.28663 0.0
C909 C 0.50568 0.74718 0.3122 0.0
H910 H 0.39728 0.74436 0.22013 0.0
C911 C 0.55846 0.73991 0.28749 0.0
H912 H 0.4059 0.75423 0.30429 0.0
C913 C 0.55335 0.73419 0.23867 0.0
C914 C 0.49504 0.73533 0.2136 0.0
H915 H 0.60349 0.73843 0.30607 0.0
H916 H 0.59463 0.72824 0.22112 0.0
C917 C 0.44294 0.74323 0.23792 0.0
C918 C 0.56629 0.48259 0.93208 0.0
C919 C 0.63212 0.47975 0.92701 0.0
H920 H 0.4916 0.50089 0.95509 0.0
C921 C 0.67318 0.49449 0.93945 0.0
H922 H 0.53308 0.47153 0.92315 0.0
C923 C 0.64924 0.51126 0.95843 0.0
C924 C 0.58362 0.51374 0.96559 0.0
H925 H 0.72404 0.49278 0.93681 0.0
H926 H 0.68248 0.5222 0.9682 0.0
C927 C 0.54239 0.49931 0.95132 0.0
C928 C 0.16717 0.34671 0.07943 0.0
C929 C 0.10481 0.35344 0.08144 0.0
H930 H 0.23259 0.32879 0.04291 0.0
C931 C 0.06337 0.34985 0.0424 0.0
H932 H 0.20027 0.34948 0.10878 0.0
C933 C 0.08141 0.33773 0.00519 0.0
C934 C 0.14147 0.32936 0.00611 0.0
H935 H 1.01509 0.35499 0.04278 0.0
H936 H 0.04703 0.33403 0.97746 0.0
C937 C 0.18556 0.33484 0.04176 0.0
C938 C 0.19558 0.92942 0.04269 0.0
C939 C 0.13579 0.93759 0.03722 0.0
H940 H 0.25457 0.91182 0.08589 0.0
C941 C 0.08594 0.9321 0.06816 0.0
H942 H 0.23425 0.93308 0.0184 0.0
C943 C 0.09752 0.92003 0.10727 0.0
C944 C 0.15888 0.91313 0.11534 0.0
H945 H 0.03904 0.93805 0.06405 0.0
H946 H 0.05958 0.91714 0.1329 0.0
C947 C 0.20684 0.91706 0.08105 0.0
C948 C 0.96801 0.67607 0.78658 0.0
C949 C 0.91678 0.67874 0.75472 0.0
H950 H 0.99572 0.66973 0.8598 0.0
C951 C 0.85696 0.67163 0.76723 0.0
H952 H 1.01495 0.6811 0.77722 0.0
C953 C 0.84616 0.6648 0.81414 0.0
C954 C 0.89483 0.66555 0.84906 0.0
H955 H 0.81719 0.67306 0.74248 0.0
H956 H 0.79799 0.66133 0.82449 0.0
C957 C 0.957 0.66952 0.83383 0.0
C958 C 0.8737 0.05739 0.78794 0.0
C959 C 0.81089 0.05164 0.78009 0.0
H960 H 0.93724 0.07381 0.83027 0.0
C961 C 0.76331 0.05761 0.81245 0.0
H962 H 0.91166 0.05304 0.76389 0.0
C963 C 0.77827 0.06963 0.85106 0.0
C964 C 0.84075 0.07601 0.85723 0.0
H965 H 0.71447 0.05339 0.80729 0.0
H966 H 0.74094 0.07414 0.87548 0.0
C967 C 0.88831 0.06955 0.82571 0.0
C968 C 0.11665 0.83857 0.56368 0.0
C969 C 0.16089 0.8413 0.60142 0.0
H970 H 0.09139 0.82267 0.50063 0.0
C971 C 0.21953 0.83205 0.59927 0.0
H972 H 0.0712 0.8456 0.56389 0.0
C973 C 0.23117 0.819 0.5625 0.0
C974 C 0.1839 0.81487 0.52811 0.0
H975 H 0.25465 0.83394 0.62768 0.0
H976 H 0.27542 0.81133 0.5628 0.0
C977 C 0.1277 0.82526 0.52776 0.0
C978 C 0.24068 0.41444 0.54252 0.0
C979 C 0.19941 0.4106 0.5816 0.0
H980 H 0.25881 0.43144 0.47963 0.0
C981 C 0.13865 0.41862 0.58174 0.0
H982 H 0.28769 0.40839 0.54114 0.0
C983 C 0.12206 0.43177 0.54622 0.0
C984 C 0.16636 0.4372 0.51062 0.0
H985 H 0.1057 0.41578 0.61121 0.0
H986 H 0.07641 0.43861 0.54875 0.0
C987 C 0.22453 0.42782 0.5076 0.0
C988 C 0.76446 0.18211 0.2701 0.0
C989 C 0.82281 0.19117 0.26383 0.0
H990 H 0.70518 0.16637 0.31792 0.0
C991 C 0.87127 0.18845 0.29815 0.0
H992 H 0.72703 0.18363 0.24329 0.0
C993 C 0.85869 0.17871 0.34134 0.0
C994 C 0.79777 0.17145 0.3501 0.0
H995 H 0.91705 0.19512 0.29351 0.0
H996 H 0.89493 0.17821 0.36931 0.0
C997 C 0.75228 0.17209 0.31267 0.0
C998 C 0.02071 0.55608 0.41101 0.0
C999 C 0.06597 0.57035 0.41593 0.0
H1000 H 0.95957 0.54132 0.36255 0.0
C1001 C 0.09402 0.5782 0.37402 0.0
H1002 H 0.99957 0.54946 0.44275 0.0
C1003 C 0.07121 0.5734 0.32781 0.0
C1004 C 0.02025 0.56087 0.32374 0.0
H1005 H 0.12936 0.58916 0.37704 0.0
H1006 H 0.08966 0.58058 0.2959 0.0
C1007 C 0.99768 0.55146 0.36523 0.0
C1008 C 0.64177 0.34 0.58385 0.0
C1009 C 0.58513 0.33893 0.55689 0.0
H1010 H 0.68466 0.33762 0.65436 0.0
C1011 C 0.52697 0.33968 0.5816 0.0
H1012 H 0.68748 0.33976 0.56584 0.0
C1013 C 0.52557 0.33889 0.6325 0.0
C1014 C 0.58229 0.33696 0.65894 0.0
H1015 H 0.48264 0.33919 0.5617 0.0
H1016 H 0.48002 0.33774 0.65055 0.0
C1017 C 0.64036 0.33875 0.63459 0.0
C1018 C 0.78541 0.9362 0.64269 0.0
C1019 C 0.73606 0.92311 0.63689 0.0
H1020 H 0.83336 0.95468 0.69249 0.0
C1021 C 0.70334 0.9166 0.67833 0.0
H1022 H 0.81128 0.94148 0.61134 0.0
C1023 C 0.71435 0.92458 0.72365 0.0
C1024 C 0.75956 0.93877 0.72869 0.0
H1025 H 0.66571 0.90633 0.67518 0.0
H1026 H 0.68578 0.92014 0.75454 0.0
C1027 C 0.7975 0.94391 0.68876 0.0
C1028 C 0.37055 0.70046 0.40221 0.0
C1029 C 0.32031 0.68779 0.40895 0.0
H1030 H 0.43297 0.71362 0.35123 0.0
C1031 C 0.28498 0.68194 0.36829 0.0
H1032 H 0.39728 0.70572 0.43296 0.0
C1033 C 0.30494 0.68676 0.32123 0.0
C1034 C 0.36051 0.69733 0.31466 0.0
H1035 H 0.24546 0.67237 0.37251 0.0
H1036 H 0.28023 0.68083 0.29022 0.0
C1037 C 0.39089 0.70506 0.35541 0.0
C1038 C 0.32133 0.07794 0.39087 0.0
C1039 C 0.38295 0.07825 0.40997 0.0
H1040 H 0.26439 0.07457 0.32724 0.0
C1041 C 0.43481 0.07997 0.3781 0.0
H1042 H 0.28056 0.077 0.41484 0.0
C1043 C 0.42573 0.07825 0.32793 0.0
C1044 C 0.36468 0.07513 0.30936 0.0
H1045 H 0.48285 0.08049 0.39196 0.0
H1046 H 0.46688 0.07762 0.30432 0.0
C1047 C 0.31217 0.07657 0.34068 0.0
C1048 C 0.52684 0.80668 0.13023 0.0
C1049 C 0.58116 0.80007 0.10639 0.0
H1050 H 0.47398 0.80694 0.19721 0.0
C1051 C 0.61847 0.78624 0.12884 0.0
H1052 H 0.49717 0.81723 0.11329 0.0
C1053 C 0.60535 0.78034 0.17608 0.0
C1054 C 0.55475 0.78821 0.20195 0.0
H1055 H 0.65972 0.78053 0.1106 0.0
H1056 H 0.63684 0.77029 0.19317 0.0
C1057 C 0.51368 0.80078 0.17803 0.0
C1058 C 0.84165 0.44033 0.10767 0.0
C1059 C 0.79716 0.45112 0.08215 0.0
H1060 H 0.87745 0.43277 0.17813 0.0
C1061 C 0.76596 0.46586 0.10603 0.0
H1062 H 0.86639 0.42896 0.0898 0.0
C1063 C 0.77164 0.46794 0.15625 0.0
C1064 C 0.80896 0.45537 0.18303 0.0
H1065 H 0.73238 0.47463 0.08662 0.0
H1066 H 0.74259 0.47828 0.17452 0.0
C1067 C 0.8477 0.4425 0.15818 0.0
C1068 C 0.1687 0.18672 0.86079 0.0
C1069 C 0.22129 0.19733 0.84589 0.0
H1070 H 0.11698 0.17575 0.92183 0.0
C1071 C 0.25287 0.20868 0.87983 0.0
H1072 H 0.14332 0.178 0.83501 0.0
C1073 C 0.23827 0.20732 0.92912 0.0
C1074 C 0.19164 0.19468 0.94498 0.0
H1075 H 0.29261 0.21737 0.86885 0.0
H1076 H 0.26708 0.21498 0.95501 0.0
C1077 C 0.15378 0.18542 0.9104 0.0
C1078 C 0.39737 0.57723 0.83901 0.0
C1079 C 0.45659 0.58204 0.85871 0.0
H1080 H 0.34808 0.5664 0.77708 0.0
C1081 C 0.50858 0.58447 0.82715 0.0
H1082 H 0.35622 0.57563 0.86234 0.0
C1083 C 0.50431 0.57875 0.77873 0.0
C1084 C 0.44755 0.57114 0.76114 0.0
H1085 H 0.55463 0.58855 0.841 0.0
H1086 H 0.54672 0.57876 0.75639 0.0
C1087 C 0.39279 0.5719 0.79022 0.0
loop_
_geom_bond_atom_site_label_1
_geom_bond_atom_site_label_2
_geom_bond_distance
_geom_bond_site_symmetry_2
_ccdc_geom_bond_type
Zn0 O3 2.033 . S
Zn0 O5 2.050 . S
Zn0 O10 2.071 . S
Zn1 O2 1.962 . S
Zn1 O4 1.986 . S
Zn1 O6 1.996 . S
Zn1 O9 1.943 . S
O2 Zn1 1.962 . S
O2 C7 1.254 . S
O3 Zn0 2.033 . S
O3 C7 1.269 . S
O4 Zn1 1.986 . S
O4 C11 1.262 . S
O5 Zn0 2.050 . S
O5 C13 1.260 . S
O6 Zn1 1.996 . S
O6 C13 1.257 . S
C7 O2 1.254 . S
C7 O3 1.269 . S
C8 O9 1.249 . S
C8 O10 1.270 . S
O9 Zn1 1.943 . S
O9 C8 1.249 . S
O10 Zn0 2.071 . S
O10 C8 1.270 . S
C11 O4 1.262 . S
C11 O12 1.232 . S
O12 C11 1.232 . S
C13 O5 1.260 . S
C13 O6 1.257 . S
Zn14 O17 2.031 . S
Zn14 O19 2.049 . S
Zn14 O24 2.067 . S
Zn15 O16 1.962 . S
Zn15 O18 1.986 . S
Zn15 O20 1.996 . S
Zn15 O23 1.943 . S
O16 Zn15 1.962 . S
O16 C21 1.254 . S
O17 Zn14 2.031 . S
O17 C21 1.269 . S
O18 Zn15 1.986 . S
O18 C25 1.262 . S
O19 Zn14 2.049 . S
O19 C27 1.260 . S
O20 Zn15 1.996 . S
O20 C27 1.257 . S
C21 O16 1.254 . S
C21 O17 1.269 . S
C22 O23 1.249 . S
C22 O24 1.270 . S
O23 Zn15 1.943 . S
O23 C22 1.249 . S
O24 Zn14 2.067 . S
O24 C22 1.270 . S
C25 O18 1.262 . S
C25 O26 1.232 . S
O26 C25 1.232 . S
C27 O19 1.260 . S
C27 O20 1.257 . S
Zn28 O31 2.033 . S
Zn28 O33 2.050 . S
Zn28 O38 2.071 1_556 S
Zn29 O30 1.962 . S
Zn29 O32 1.986 . S
Zn29 O34 1.996 . S
Zn29 O37 1.943 . S
O30 Zn29 1.962 . S
O30 C35 1.254 . S
O31 Zn28 2.033 . S
O31 C35 1.269 . S
O32 Zn29 1.986 . S
O32 C39 1.262 . S
O33 Zn28 2.050 . S
O33 C41 1.260 . S
O34 Zn29 1.996 . S
O34 C41 1.257 . S
C35 O30 1.254 . S
C35 O31 1.269 . S
C36 O37 1.249 1_554 S
C36 O38 1.270 . S
O37 Zn29 1.943 . S
O37 C36 1.249 1_556 S
O38 Zn28 2.071 1_554 S
O38 C36 1.270 . S
C39 O32 1.262 . S
C39 O40 1.232 . S
O40 C39 1.232 . S
C41 O33 1.260 . S
C41 O34 1.257 . S
Zn42 O45 2.031 . S
Zn42 O47 2.049 . S
Zn42 O52 2.067 1_556 S
Zn43 O44 1.962 . S
Zn43 O46 1.986 . S
Zn43 O48 1.996 . S
Zn43 O51 1.943 . S
O44 Zn43 1.962 . S
O44 C49 1.254 . S
O45 Zn42 2.031 . S
O45 C49 1.269 . S
O46 Zn43 1.986 . S
O46 C53 1.262 . S
O47 Zn42 2.049 . S
O47 C55 1.260 . S
O48 Zn43 1.996 . S
O48 C55 1.257 . S
C49 O44 1.254 . S
C49 O45 1.269 . S
C50 O51 1.249 1_554 S
C50 O52 1.270 . S
O51 Zn43 1.943 . S
O51 C50 1.249 1_556 S
O52 Zn42 2.067 1_554 S
O52 C50 1.270 . S
C53 O46 1.262 . S
C53 O54 1.232 . S
O54 C53 1.232 . S
C55 O47 1.260 . S
C55 O48 1.257 . S
Zn56 O59 2.033 . S
Zn56 O61 2.050 . S
Zn56 O66 2.071 . S
Zn57 O58 1.962 . S
Zn57 O60 1.986 . S
Zn57 O62 1.996 . S
Zn57 O65 1.943 . S
O58 Zn57 1.962 . S
O58 C63 1.254 . S
O59 Zn56 2.033 . S
O59 C63 1.269 . S
O60 Zn57 1.986 . S
O60 C67 1.262 . S
O61 Zn56 2.050 . S
O61 C69 1.260 . S
O62 Zn57 1.996 . S
O62 C69 1.257 . S
C63 O58 1.254 . S
C63 O59 1.269 . S
C64 O65 1.249 . S
C64 O66 1.270 . S
O65 Zn57 1.943 . S
O65 C64 1.249 . S
O66 Zn56 2.071 . S
O66 C64 1.270 . S
C67 O60 1.262 . S
C67 O68 1.232 . S
O68 C67 1.232 . S
C69 O61 1.260 . S
C69 O62 1.257 . S
Zn70 O73 2.031 . S
Zn70 O75 2.049 . S
Zn70 O80 2.067 . S
Zn71 O72 1.962 . S
Zn71 O74 1.986 . S
Zn71 O76 1.996 . S
Zn71 O79 1.943 . S
O72 Zn71 1.962 . S
O72 C77 1.254 . S
O73 Zn70 2.031 . S
O73 C77 1.269 . S
O74 Zn71 1.986 . S
O74 C81 1.262 . S
O75 Zn70 2.049 . S
O75 C83 1.260 . S
O76 Zn71 1.996 . S
O76 C83 1.257 . S
C77 O72 1.254 . S
C77 O73 1.269 . S
C78 O79 1.249 . S
C78 O80 1.270 . S
O79 Zn71 1.943 . S
O79 C78 1.249 . S
O80 Zn70 2.067 . S
O80 C78 1.270 . S
C81 O74 1.262 . S
C81 O82 1.232 . S
O82 C81 1.232 . S
C83 O75 1.260 . S
C83 O76 1.257 . S
Zn84 O87 2.033 . S
Zn84 O89 2.050 . S
Zn84 O94 2.071 1_554 S
Zn85 O86 1.962 . S
Zn85 O88 1.986 . S
Zn85 O90 1.996 . S
Zn85 O93 1.943 . S
O86 Zn85 1.962 . S
O86 C91 1.254 . S
O87 Zn84 2.033 . S
O87 C91 1.269 . S
O88 Zn85 1.986 . S
O88 C95 1.262 . S
O89 Zn84 2.050 . S
O89 C97 1.260 . S
O90 Zn85 1.996 . S
O90 C97 1.257 . S
C91 O86 1.254 . S
C91 O87 1.269 . S
C92 O93 1.249 1_556 S
C92 O94 1.270 . S
O93 Zn85 1.943 . S
O93 C92 1.249 1_554 S
O94 Zn84 2.071 1_556 S
O94 C92 1.270 . S
C95 O88 1.262 . S
C95 O96 1.232 . S
O96 C95 1.232 . S
C97 O89 1.260 . S
C97 O90 1.257 . S
Zn98 O101 2.031 . S
Zn98 O103 2.049 . S
Zn98 O108 2.067 1_554 S
Zn99 O100 1.962 . S
Zn99 O102 1.986 . S
Zn99 O104 1.996 . S
Zn99 O107 1.943 . S
O100 Zn99 1.962 . S
O100 C105 1.254 . S
O101 Zn98 2.031 . S
O101 C105 1.269 . S
O102 Zn99 1.986 . S
O102 C109 1.262 . S
O103 Zn98 2.049 . S
O103 C111 1.260 . S
O104 Zn99 1.996 . S
O104 C111 1.257 . S
C105 O100 1.254 . S
C105 O101 1.269 . S
C106 O107 1.249 1_556 S
C106 O108 1.270 . S
O107 Zn99 1.943 . S
O107 C106 1.249 1_554 S
O108 Zn98 2.067 1_556 S
O108 C106 1.270 . S
C109 O102 1.262 . S
C109 O110 1.232 . S
O110 C109 1.232 . S
C111 O103 1.260 . S
C111 O104 1.257 . S
Zn112 O115 2.033 . S
Zn112 O117 2.050 . S
Zn112 O122 2.071 . S
Zn113 O114 1.962 . S
Zn113 O116 1.986 . S
Zn113 O118 1.996 . S
Zn113 O121 1.943 . S
O114 Zn113 1.962 . S
O114 C119 1.254 . S
O115 Zn112 2.033 . S
O115 C119 1.269 . S
O116 Zn113 1.986 . S
O116 C123 1.262 . S
O117 Zn112 2.050 . S
O117 C125 1.260 . S
O118 Zn113 1.996 . S
O118 C125 1.257 . S
C119 O114 1.254 . S
C119 O115 1.269 . S
C120 O121 1.249 . S
C120 O122 1.270 . S
O121 Zn113 1.943 . S
O121 C120 1.249 . S
O122 Zn112 2.071 . S
O122 C120 1.270 . S
C123 O116 1.262 . S
C123 O124 1.232 . S
O124 C123 1.232 . S
C125 O117 1.260 . S
C125 O118 1.257 . S
Zn126 O129 2.031 . S
Zn126 O131 2.049 . S
Zn126 O136 2.067 . S
Zn127 O128 1.962 . S
Zn127 O130 1.986 . S
Zn127 O132 1.996 . S
Zn127 O135 1.943 . S
O128 Zn127 1.962 . S
O128 C133 1.254 . S
O129 Zn126 2.031 . S
O129 C133 1.269 . S
O130 Zn127 1.986 . S
O130 C137 1.262 . S
O131 Zn126 2.049 . S
O131 C139 1.260 . S
O132 Zn127 1.996 . S
O132 C139 1.257 . S
C133 O128 1.254 . S
C133 O129 1.269 . S
C134 O135 1.249 . S
C134 O136 1.270 . S
O135 Zn127 1.943 . S
O135 C134 1.249 . S
O136 Zn126 2.067 . S
O136 C134 1.270 . S
C137 O130 1.262 . S
C137 O138 1.232 . S
O138 C137 1.232 . S
C139 O131 1.260 . S
C139 O132 1.257 . S
Zn140 O143 2.033 . S
Zn140 O145 2.050 . S
Zn140 O150 2.071 . S
Zn141 O142 1.962 . S
Zn141 O144 1.986 . S
Zn141 O146 1.996 . S
Zn141 O149 1.943 . S
O142 Zn141 1.962 . S
O142 C147 1.254 . S
O143 Zn140 2.033 . S
O143 C147 1.269 . S
O144 Zn141 1.986 . S
O144 C151 1.262 . S
O145 Zn140 2.050 . S
O145 C153 1.260 . S
O146 Zn141 1.996 . S
O146 C153 1.257 . S
C147 O142 1.254 . S
C147 O143 1.269 . S
C148 O149 1.249 . S
C148 O150 1.270 . S
O149 Zn141 1.943 . S
O149 C148 1.249 . S
O150 Zn140 2.071 . S
O150 C148 1.270 . S
C151 O144 1.262 . S
C151 O152 1.232 . S
O152 C151 1.232 . S
C153 O145 1.260 . S
C153 O146 1.257 . S
Zn154 O157 2.031 . S
Zn154 O159 2.049 . S
Zn154 O164 2.067 . S
Zn155 O156 1.962 . S
Zn155 O158 1.986 . S
Zn155 O160 1.996 . S
Zn155 O163 1.943 . S
O156 Zn155 1.962 . S
O156 C161 1.254 . S
O157 Zn154 2.031 . S
O157 C161 1.269 . S
O158 Zn155 1.986 . S
O158 C165 1.262 . S
O159 Zn154 2.049 . S
O159 C167 1.260 . S
O160 Zn155 1.996 . S
O160 C167 1.257 . S
C161 O156 1.254 . S
C161 O157 1.269 . S
C162 O163 1.249 . S
C162 O164 1.270 . S
O163 Zn155 1.943 . S
O163 C162 1.249 . S
O164 Zn154 2.067 . S
O164 C162 1.270 . S
C165 O158 1.262 . S
C165 O166 1.232 . S
O166 C165 1.232 . S
C167 O159 1.260 . S
C167 O160 1.257 . S
Zn168 O171 2.033 . S
Zn168 O173 2.050 . S
Zn168 O178 2.071 . S
Zn169 O170 1.962 . S
Zn169 O172 1.986 . S
Zn169 O174 1.996 . S
Zn169 O177 1.943 . S
O170 Zn169 1.962 . S
O170 C175 1.254 . S
O171 Zn168 2.033 . S
O171 C175 1.269 . S
O172 Zn169 1.986 . S
O172 C179 1.262 . S
O173 Zn168 2.050 . S
O173 C181 1.260 . S
O174 Zn169 1.996 . S
O174 C181 1.257 . S
C175 O170 1.254 . S
C175 O171 1.269 . S
C176 O177 1.249 . S
C176 O178 1.270 . S
O177 Zn169 1.943 . S
O177 C176 1.249 . S
O178 Zn168 2.071 . S
O178 C176 1.270 . S
C179 O172 1.262 . S
C179 O180 1.232 . S
O180 C179 1.232 . S
C181 O173 1.260 . S
C181 O174 1.257 . S
Zn182 O185 2.031 . S
Zn182 O187 2.049 . S
Zn182 O192 2.067 . S
Zn183 O184 1.962 . S
Zn183 O186 1.986 . S
Zn183 O188 1.996 . S
Zn183 O191 1.943 . S
O184 Zn183 1.962 . S
O184 C189 1.254 . S
O185 Zn182 2.031 . S
O185 C189 1.269 . S
O186 Zn183 1.986 . S
O186 C193 1.262 . S
O187 Zn182 2.049 . S
O187 C195 1.260 . S
O188 Zn183 1.996 . S
O188 C195 1.257 . S
C189 O184 1.254 . S
C189 O185 1.269 . S
C190 O191 1.249 . S
C190 O192 1.270 . S
O191 Zn183 1.943 . S
O191 C190 1.249 . S
O192 Zn182 2.067 . S
O192 C190 1.270 . S
C193 O186 1.262 . S
C193 O194 1.232 . S
O194 C193 1.232 . S
C195 O187 1.260 . S
C195 O188 1.257 . S
Zn196 O199 2.033 . S
Zn196 O201 2.050 . S
Zn196 O206 2.071 . S
Zn197 O198 1.962 . S
Zn197 O200 1.986 . S
Zn197 O202 1.996 . S
Zn197 O205 1.943 . S
O198 Zn197 1.962 . S
O198 C203 1.254 . S
O199 Zn196 2.033 . S
O199 C203 1.269 . S
O200 Zn197 1.986 . S
O200 C207 1.262 . S
O201 Zn196 2.050 . S
O201 C209 1.260 . S
O202 Zn197 1.996 . S
O202 C209 1.257 . S
C203 O198 1.254 . S
C203 O199 1.269 . S
C204 O205 1.249 . S
C204 O206 1.270 . S
O205 Zn197 1.943 . S
O205 C204 1.249 . S
O206 Zn196 2.071 . S
O206 C204 1.270 . S
C207 O200 1.262 . S
C207 O208 1.232 . S
O208 C207 1.232 . S
C209 O201 1.260 . S
C209 O202 1.257 . S
Zn210 O213 2.031 . S
Zn210 O215 2.049 . S
Zn210 O220 2.067 . S
Zn211 O212 1.962 . S
Zn211 O214 1.986 . S
Zn211 O216 1.996 . S
Zn211 O219 1.943 . S
O212 Zn211 1.962 . S
O212 C217 1.254 . S
O213 Zn210 2.031 . S
O213 C217 1.269 . S
O214 Zn211 1.986 . S
O214 C221 1.262 . S
O215 Zn210 2.049 . S
O215 C223 1.260 . S
O216 Zn211 1.996 . S
O216 C223 1.257 . S
C217 O212 1.254 . S
C217 O213 1.269 . S
C218 O219 1.249 . S
C218 O220 1.270 . S
O219 Zn211 1.943 . S
O219 C218 1.249 . S
O220 Zn210 2.067 . S
O220 C218 1.270 . S
C221 O214 1.262 . S
C221 O222 1.232 . S
O222 C221 1.232 . S
C223 O215 1.260 . S
C223 O216 1.257 . S
Zn224 O227 2.031 . S
Zn224 O229 2.049 . S
Zn224 O234 2.067 . S
Zn225 O226 1.962 . S
Zn225 O228 1.986 . S
Zn225 O230 1.996 . S
Zn225 O233 1.943 . S
O226 Zn225 1.962 . S
O226 C231 1.254 . S
O227 Zn224 2.031 . S
O227 C231 1.269 . S
O228 Zn225 1.986 . S
O228 C235 1.262 . S
O229 Zn224 2.049 . S
O229 C237 1.260 . S
O230 Zn225 1.996 . S
O230 C237 1.257 . S
C231 O226 1.254 . S
C231 O227 1.269 . S
C232 O233 1.249 . S
C232 O234 1.270 . S
O233 Zn225 1.943 . S
O233 C232 1.249 . S
O234 Zn224 2.067 . S
O234 C232 1.270 . S
C235 O228 1.262 . S
C235 O236 1.232 . S
O236 C235 1.232 . S
C237 O229 1.260 . S
C237 O230 1.257 . S
Zn238 O241 2.031 . S
Zn238 O243 2.049 . S
Zn238 O248 2.067 . S
Zn239 O240 1.962 . S
Zn239 O242 1.986 . S
Zn239 O244 1.996 . S
Zn239 O247 1.943 . S
O240 Zn239 1.962 . S
O240 C245 1.254 . S
O241 Zn238 2.031 . S
O241 C245 1.269 . S
O242 Zn239 1.986 . S
O242 C249 1.262 . S
O243 Zn238 2.049 . S
O243 C251 1.260 . S
O244 Zn239 1.996 . S
O244 C251 1.257 . S
C245 O240 1.254 . S
C245 O241 1.269 . S
C246 O247 1.249 . S
C246 O248 1.270 . S
O247 Zn239 1.943 . S
O247 C246 1.249 . S
O248 Zn238 2.067 . S
O248 C246 1.270 . S
C249 O242 1.262 . S
C249 O250 1.232 . S
O250 C249 1.232 . S
C251 O243 1.260 . S
C251 O244 1.257 . S
Zn252 O255 2.031 . S
Zn252 O257 2.049 . S
Zn252 O262 2.067 . S
Zn253 O254 1.962 . S
Zn253 O256 1.986 . S
Zn253 O258 1.996 . S
Zn253 O261 1.943 . S
O254 Zn253 1.962 . S
O254 C259 1.254 . S
O255 Zn252 2.031 . S
O255 C259 1.269 . S
O256 Zn253 1.986 . S
O256 C263 1.262 . S
O257 Zn252 2.049 . S
O257 C265 1.260 . S
O258 Zn253 1.996 . S
O258 C265 1.257 . S
C259 O254 1.254 . S
C259 O255 1.269 . S
C260 O261 1.249 . S
C260 O262 1.270 . S
O261 Zn253 1.943 . S
O261 C260 1.249 . S
O262 Zn252 2.067 . S
O262 C260 1.270 . S
C263 O256 1.262 . S
C263 O264 1.232 . S
O264 C263 1.232 . S
C265 O257 1.260 . S
C265 O258 1.257 . S
Zn266 O269 2.031 . S
Zn266 O271 2.049 . S
Zn266 O276 2.067 . S
Zn267 O268 1.962 . S
Zn267 O270 1.986 . S
Zn267 O272 1.996 . S
Zn267 O275 1.943 . S
O268 Zn267 1.962 . S
O268 C273 1.254 . S
O269 Zn266 2.031 . S
O269 C273 1.269 . S
O270 Zn267 1.986 . S
O270 C277 1.262 . S
O271 Zn266 2.049 . S
O271 C279 1.260 . S
O272 Zn267 1.996 . S
O272 C279 1.257 . S
C273 O268 1.254 . S
C273 O269 1.269 . S
C274 O275 1.249 . S
C274 O276 1.270 . S
O275 Zn267 1.943 . S
O275 C274 1.249 . S
O276 Zn266 2.067 . S
O276 C274 1.270 . S
C277 O270 1.262 . S
C277 O278 1.232 . S
O278 C277 1.232 . S
C279 O271 1.260 . S
C279 O272 1.257 . S
Zn280 O283 2.031 . S
Zn280 O285 2.049 . S
Zn280 O290 2.067 . S
Zn281 O282 1.962 . S
Zn281 O284 1.986 . S
Zn281 O286 1.996 . S
Zn281 O289 1.943 . S
O282 Zn281 1.962 . S
O282 C287 1.254 . S
O283 Zn280 2.031 . S
O283 C287 1.269 . S
O284 Zn281 1.986 . S
O284 C291 1.262 . S
O285 Zn280 2.049 . S
O285 C293 1.260 . S
O286 Zn281 1.996 . S
O286 C293 1.257 . S
C287 O282 1.254 . S
C287 O283 1.269 . S
C288 O289 1.249 . S
C288 O290 1.270 . S
O289 Zn281 1.943 . S
O289 C288 1.249 . S
O290 Zn280 2.067 . S
O290 C288 1.270 . S
C291 O284 1.262 . S
C291 O292 1.232 . S
O292 C291 1.232 . S
C293 O285 1.260 . S
C293 O286 1.257 . S
Zn294 O297 2.031 . S
Zn294 O299 2.049 . S
Zn294 O304 2.067 . S
Zn295 O296 1.962 . S
Zn295 O298 1.986 . S
Zn295 O300 1.996 . S
Zn295 O303 1.943 . S
O296 Zn295 1.962 . S
O296 C301 1.254 . S
O297 Zn294 2.031 . S
O297 C301 1.269 . S
O298 Zn295 1.986 . S
O298 C305 1.262 . S
O299 Zn294 2.049 . S
O299 C307 1.260 . S
O300 Zn295 1.996 . S
O300 C307 1.257 . S
C301 O296 1.254 . S
C301 O297 1.269 . S
C302 O303 1.249 . S
C302 O304 1.270 . S
O303 Zn295 1.943 . S
O303 C302 1.249 . S
O304 Zn294 2.067 . S
O304 C302 1.270 . S
C305 O298 1.262 . S
C305 O306 1.232 . S
O306 C305 1.232 . S
C307 O299 1.260 . S
C307 O300 1.257 . S
Zn308 O311 2.031 . S
Zn308 O313 2.049 . S
Zn308 O318 2.067 . S
Zn309 O310 1.962 . S
Zn309 O312 1.986 . S
Zn309 O314 1.996 . S
Zn309 O317 1.943 . S
O310 Zn309 1.962 . S
O310 C315 1.254 . S
O311 Zn308 2.031 . S
O311 C315 1.269 . S
O312 Zn309 1.986 . S
O312 C319 1.262 . S
O313 Zn308 2.049 . S
O313 C321 1.260 . S
O314 Zn309 1.996 . S
O314 C321 1.257 . S
C315 O310 1.254 . S
C315 O311 1.269 . S
C316 O317 1.249 . S
C316 O318 1.270 . S
O317 Zn309 1.943 . S
O317 C316 1.249 . S
O318 Zn308 2.067 . S
O318 C316 1.270 . S
C319 O312 1.262 . S
C319 O320 1.232 . S
O320 C319 1.232 . S
C321 O313 1.260 . S
C321 O314 1.257 . S
Zn322 O325 2.031 . S
Zn322 O327 2.049 . S
Zn322 O332 2.067 . S
Zn323 O324 1.962 . S
Zn323 O326 1.986 . S
Zn323 O328 1.996 . S
Zn323 O331 1.943 . S
O324 Zn323 1.962 . S
O324 C329 1.254 . S
O325 Zn322 2.031 . S
O325 C329 1.269 . S
O326 Zn323 1.986 . S
O326 C333 1.262 . S
O327 Zn322 2.049 . S
O327 C335 1.260 . S
O328 Zn323 1.996 . S
O328 C335 1.257 . S
C329 O324 1.254 . S
C329 O325 1.269 . S
C330 O331 1.249 . S
C330 O332 1.270 . S
O331 Zn323 1.943 . S
O331 C330 1.249 . S
O332 Zn322 2.067 . S
O332 C330 1.270 . S
C333 O326 1.262 . S
C333 O334 1.232 . S
O334 C333 1.232 . S
C335 O327 1.260 . S
C335 O328 1.257 . S
Zn336 O339 2.031 . S
Zn336 O341 2.049 . S
Zn336 O346 2.067 . S
Zn337 O338 1.962 . S
Zn337 O340 1.986 . S
Zn337 O342 1.996 . S
Zn337 O345 1.943 . S
O338 Zn337 1.962 . S
O338 C343 1.254 . S
O339 Zn336 2.031 . S
O339 C343 1.269 . S
O340 Zn337 1.986 . S
O340 C347 1.262 . S
O341 Zn336 2.049 . S
O341 C349 1.260 . S
O342 Zn337 1.996 . S
O342 C349 1.257 . S
C343 O338 1.254 . S
C343 O339 1.269 . S
C344 O345 1.249 . S
C344 O346 1.270 . S
O345 Zn337 1.943 . S
O345 C344 1.249 . S
O346 Zn336 2.067 . S
O346 C344 1.270 . S
C347 O340 1.262 . S
C347 O348 1.232 . S
O348 C347 1.232 . S
C349 O341 1.260 . S
C349 O342 1.257 . S
Zn350 O353 2.031 . S
Zn350 O355 2.049 . S
Zn350 O360 2.067 . S
Zn351 O352 1.962 . S
Zn351 O354 1.986 . S
Zn351 O356 1.996 . S
Zn351 O359 1.943 . S
O352 Zn351 1.962 . S
O352 C357 1.254 . S
O353 Zn350 2.031 . S
O353 C357 1.269 . S
O354 Zn351 1.986 . S
O354 C361 1.262 . S
O355 Zn350 2.049 . S
O355 C363 1.260 . S
O356 Zn351 1.996 . S
O356 C363 1.257 . S
C357 O352 1.254 . S
C357 O353 1.269 . S
C358 O359 1.249 . S
C358 O360 1.270 . S
O359 Zn351 1.943 . S
O359 C358 1.249 . S
O360 Zn350 2.067 . S
O360 C358 1.270 . S
C361 O354 1.262 . S
C361 O362 1.232 . S
O362 C361 1.232 . S
C363 O355 1.260 . S
C363 O356 1.257 . S
Zn364 O367 2.031 . S
Zn364 O369 2.049 . S
Zn364 O374 2.067 1_556 S
Zn365 O366 1.962 . S
Zn365 O368 1.986 . S
Zn365 O370 1.996 . S
Zn365 O373 1.943 . S
O366 Zn365 1.962 . S
O366 C371 1.254 . S
O367 Zn364 2.031 . S
O367 C371 1.269 . S
O368 Zn365 1.986 . S
O368 C375 1.262 . S
O369 Zn364 2.049 . S
O369 C377 1.260 . S
O370 Zn365 1.996 . S
O370 C377 1.257 . S
C371 O366 1.254 . S
C371 O367 1.269 . S
C372 O373 1.249 1_554 S
C372 O374 1.270 . S
O373 Zn365 1.943 . S
O373 C372 1.249 1_556 S
O374 Zn364 2.067 1_554 S
O374 C372 1.270 . S
C375 O368 1.262 . S
C375 O376 1.232 . S
O376 C375 1.232 . S
C377 O369 1.260 . S
C377 O370 1.257 . S
Zn378 O381 2.031 . S
Zn378 O383 2.049 . S
Zn378 O388 2.067 1_556 S
Zn379 O380 1.962 . S
Zn379 O382 1.986 . S
Zn379 O384 1.996 . S
Zn379 O387 1.943 . S
O380 Zn379 1.962 . S
O380 C385 1.254 . S
O381 Zn378 2.031 . S
O381 C385 1.269 . S
O382 Zn379 1.986 . S
O382 C389 1.262 . S
O383 Zn378 2.049 . S
O383 C391 1.260 . S
O384 Zn379 1.996 . S
O384 C391 1.257 . S
C385 O380 1.254 . S
C385 O381 1.269 . S
C386 O387 1.249 1_554 S
C386 O388 1.270 . S
O387 Zn379 1.943 . S
O387 C386 1.249 1_556 S
O388 Zn378 2.067 1_554 S
O388 C386 1.270 . S
C389 O382 1.262 . S
C389 O390 1.232 . S
O390 C389 1.232 . S
C391 O383 1.260 . S
C391 O384 1.257 . S
Zn392 O395 2.031 . S
Zn392 O397 2.049 . S
Zn392 O402 2.067 . S
Zn393 O394 1.962 . S
Zn393 O396 1.986 . S
Zn393 O398 1.996 . S
Zn393 O401 1.943 . S
O394 Zn393 1.962 . S
O394 C399 1.254 . S
O395 Zn392 2.031 . S
O395 C399 1.269 . S
O396 Zn393 1.986 . S
O396 C403 1.262 . S
O397 Zn392 2.049 . S
O397 C405 1.260 . S
O398 Zn393 1.996 . S
O398 C405 1.257 . S
C399 O394 1.254 . S
C399 O395 1.269 . S
C400 O401 1.249 . S
C400 O402 1.270 . S
O401 Zn393 1.943 . S
O401 C400 1.249 . S
O402 Zn392 2.067 . S
O402 C400 1.270 . S
C403 O396 1.262 . S
C403 O404 1.232 . S
O404 C403 1.232 . S
C405 O397 1.260 . S
C405 O398 1.257 . S
Zn406 O409 2.031 . S
Zn406 O411 2.049 . S
Zn406 O416 2.067 . S
Zn407 O408 1.962 . S
Zn407 O410 1.986 . S
Zn407 O412 1.996 . S
Zn407 O415 1.943 . S
O408 Zn407 1.962 . S
O408 C413 1.254 . S
O409 Zn406 2.031 . S
O409 C413 1.269 . S
O410 Zn407 1.986 . S
O410 C417 1.262 . S
O411 Zn406 2.049 . S
O411 C419 1.260 . S
O412 Zn407 1.996 . S
O412 C419 1.257 . S
C413 O408 1.254 . S
C413 O409 1.269 . S
C414 O415 1.249 . S
C414 O416 1.270 . S
O415 Zn407 1.943 . S
O415 C414 1.249 . S
O416 Zn406 2.067 . S
O416 C414 1.270 . S
C417 O410 1.262 . S
C417 O418 1.232 . S
O418 C417 1.232 . S
C419 O411 1.260 . S
C419 O412 1.257 . S
Zn420 O423 2.031 . S
Zn420 O425 2.049 . S
Zn420 O430 2.067 1_554 S
Zn421 O422 1.962 . S
Zn421 O424 1.986 . S
Zn421 O426 1.996 . S
Zn421 O429 1.943 . S
O422 Zn421 1.962 . S
O422 C427 1.254 . S
O423 Zn420 2.031 . S
O423 C427 1.269 . S
O424 Zn421 1.986 . S
O424 C431 1.262 . S
O425 Zn420 2.049 . S
O425 C433 1.260 . S
O426 Zn421 1.996 . S
O426 C433 1.257 . S
C427 O422 1.254 . S
C427 O423 1.269 . S
C428 O429 1.249 1_556 S
C428 O430 1.270 . S
O429 Zn421 1.943 . S
O429 C428 1.249 1_554 S
O430 Zn420 2.067 1_556 S
O430 C428 1.270 . S
C431 O424 1.262 . S
C431 O432 1.232 . S
O432 C431 1.232 . S
C433 O425 1.260 . S
C433 O426 1.257 . S
Zn434 O437 2.031 . S
Zn434 O439 2.049 . S
Zn434 O444 2.067 1_554 S
Zn435 O436 1.962 . S
Zn435 O438 1.986 . S
Zn435 O440 1.996 . S
Zn435 O443 1.943 . S
O436 Zn435 1.962 . S
O436 C441 1.254 . S
O437 Zn434 2.031 . S
O437 C441 1.269 . S
O438 Zn435 1.986 . S
O438 C445 1.262 . S
O439 Zn434 2.049 . S
O439 C447 1.260 . S
O440 Zn435 1.996 . S
O440 C447 1.257 . S
C441 O436 1.254 . S
C441 O437 1.269 . S
C442 O443 1.249 1_556 S
C442 O444 1.270 . S
O443 Zn435 1.943 . S
O443 C442 1.249 1_554 S
O444 Zn434 2.067 1_556 S
O444 C442 1.270 . S
C445 O438 1.262 . S
C445 O446 1.232 . S
O446 C445 1.232 . S
C447 O439 1.260 . S
C447 O440 1.257 . S
C448 C449 1.387 . S
C448 H452 0.950 1_455 S
C448 C457 1.390 . S
C449 C448 1.387 . S
C449 C451 1.387 . S
H450 C457 0.950 1_655 S
C451 C449 1.387 . S
C451 C453 1.390 . S
C451 H455 0.950 . S
H452 C448 0.950 1_655 S
C453 C451 1.390 . S
C453 C454 1.387 . S
C453 H456 0.950 . S
C454 C453 1.387 . S
C454 C457 1.387 . S
H455 C451 0.950 . S
H456 C453 0.950 . S
C457 C448 1.390 . S
C457 H450 0.950 1_455 S
C457 C454 1.387 . S
C458 C459 1.387 . S
C458 H462 0.950 . S
C458 C467 1.390 . S
C459 C458 1.387 . S
C459 C461 1.387 . S
H460 C467 0.950 . S
C461 C459 1.387 . S
C461 C463 1.390 . S
C461 H465 0.950 . S
H462 C458 0.950 . S
C463 C461 1.390 . S
C463 C464 1.387 . S
C463 H466 0.950 . S
C464 C463 1.387 . S
C464 C467 1.387 . S
H465 C461 0.950 . S
H466 C463 0.950 . S
C467 C458 1.390 . S
C467 H460 0.950 . S
C467 C464 1.387 . S
C468 C469 1.387 . S
C468 H472 0.950 1_455 S
C468 C477 1.390 . S
C469 C468 1.387 . S
C469 C471 1.387 . S
H470 C477 0.950 1_655 S
C471 C469 1.387 . S
C471 C473 1.390 . S
C471 H475 0.950 . S
H472 C468 0.950 1_655 S
C473 C471 1.390 . S
C473 C474 1.387 . S
C473 H476 0.950 . S
C474 C473 1.387 . S
C474 C477 1.387 . S
H475 C471 0.950 . S
H476 C473 0.950 . S
C477 C468 1.390 . S
C477 H470 0.950 1_455 S
C477 C474 1.387 . S
C478 C479 1.387 . S
C478 H482 0.950 . S
C478 C487 1.390 . S
C479 C478 1.387 . S
C479 C481 1.387 . S
H480 C487 0.950 . S
C481 C479 1.387 . S
C481 C483 1.390 . S
C481 H485 0.950 . S
H482 C478 0.950 . S
C483 C481 1.390 . S
C483 C484 1.387 . S
C483 H486 0.950 . S
C484 C483 1.387 . S
C484 C487 1.387 . S
H485 C481 0.950 . S
H486 C483 0.950 . S
C487 C478 1.390 . S
C487 H480 0.950 . S
C487 C484 1.387 . S
C488 C489 1.387 . S
C488 H492 0.950 1_655 S
C488 C497 1.390 . S
C489 C488 1.387 . S
C489 C491 1.387 . S
H490 C497 0.950 1_455 S
C491 C489 1.387 . S
C491 C493 1.390 . S
C491 H495 0.950 . S
H492 C488 0.950 1_455 S
C493 C491 1.390 . S
C493 C494 1.387 . S
C493 H496 0.950 . S
C494 C493 1.387 . S
C494 C497 1.387 . S
H495 C491 0.950 . S
H496 C493 0.950 . S
C497 C488 1.390 . S
C497 H490 0.950 1_655 S
C497 C494 1.387 . S
C498 C499 1.387 . S
C498 H502 0.950 . S
C498 C507 1.390 . S
C499 C498 1.387 . S
C499 C501 1.387 . S
H500 C507 0.950 . S
C501 C499 1.387 . S
C501 C503 1.390 . S
C501 H505 0.950 . S
H502 C498 0.950 . S
C503 C501 1.390 . S
C503 C504 1.387 . S
C503 H506 0.950 . S
C504 C503 1.387 . S
C504 C507 1.387 . S
H505 C501 0.950 . S
H506 C503 0.950 . S
C507 C498 1.390 . S
C507 H500 0.950 . S
C507 C504 1.387 . S
C508 C509 1.387 . S
C508 H512 0.950 1_655 S
C508 C517 1.390 . S
C509 C508 1.387 . S
C509 C511 1.387 . S
H510 C517 0.950 1_455 S
C511 C509 1.387 . S
C511 C513 1.390 . S
C511 H515 0.950 . S
H512 C508 0.950 1_455 S
C513 C511 1.390 . S
C513 C514 1.387 . S
C513 H516 0.950 . S
C514 C513 1.387 . S
C514 C517 1.387 . S
H515 C511 0.950 . S
H516 C513 0.950 . S
C517 C508 1.390 . S
C517 H510 0.950 1_655 S
C517 C514 1.387 . S
C518 C519 1.387 . S
C518 H522 0.950 . S
C518 C527 1.390 . S
C519 C518 1.387 . S
C519 C521 1.387 . S
H520 C527 0.950 . S
C521 C519 1.387 . S
C521 C523 1.390 . S
C521 H525 0.950 . S
H522 C518 0.950 . S
C523 C521 1.390 . S
C523 C524 1.387 . S
C523 H526 0.950 . S
C524 C523 1.387 . S
C524 C527 1.387 . S
H525 C521 0.950 . S
H526 C523 0.950 . S
C527 C518 1.390 . S
C527 H520 0.950 . S
C527 C524 1.387 . S
C528 C529 1.387 . S
C528 H532 0.950 . S
C528 C537 1.390 . S
C529 C528 1.387 . S
C529 C531 1.387 . S
H530 C537 0.950 . S
C531 C529 1.387 . S
C531 C533 1.390 . S
C531 H535 0.950 . S
H532 C528 0.950 . S
C533 C531 1.390 . S
C533 C534 1.387 . S
C533 H536 0.950 . S
C534 C533 1.387 . S
C534 C537 1.387 . S
H535 C531 0.950 . S
H536 C533 0.950 . S
C537 C528 1.390 . S
C537 H530 0.950 . S
C537 C534 1.387 . S
C538 C539 1.387 . S
C538 H542 0.950 . S
C538 C547 1.390 . S
C539 C538 1.387 . S
C539 C541 1.387 . S
H540 C547 0.950 . S
C541 C539 1.387 . S
C541 C543 1.390 . S
C541 H545 0.950 . S
H542 C538 0.950 . S
C543 C541 1.390 . S
C543 C544 1.387 . S
C543 H546 0.950 . S
C544 C543 1.387 . S
C544 C547 1.387 . S
H545 C541 0.950 . S
H546 C543 0.950 . S
C547 C538 1.390 . S
C547 H540 0.950 . S
C547 C544 1.387 . S
C548 C549 1.387 . S
C548 H552 0.950 . S
C548 C557 1.390 . S
C549 C548 1.387 . S
C549 C551 1.387 . S
H550 C557 0.950 . S
C551 C549 1.387 . S
C551 C553 1.390 . S
C551 H555 0.950 . S
H552 C548 0.950 . S
C553 C551 1.390 . S
C553 C554 1.387 . S
C553 H556 0.950 . S
C554 C553 1.387 . S
C554 C557 1.387 . S
H555 C551 0.950 . S
H556 C553 0.950 . S
C557 C548 1.390 . S
C557 H550 0.950 . S
C557 C554 1.387 . S
C558 C559 1.387 . S
C558 H562 0.950 . S
C558 C567 1.390 . S
C559 C558 1.387 . S
C559 C561 1.387 . S
H560 C567 0.950 . S
C561 C559 1.387 . S
C561 C563 1.390 . S
C561 H565 0.950 . S
H562 C558 0.950 . S
C563 C561 1.390 . S
C563 C564 1.387 . S
C563 H566 0.950 . S
C564 C563 1.387 . S
C564 C567 1.387 . S
H565 C561 0.950 . S
H566 C563 0.950 . S
C567 C558 1.390 . S
C567 H560 0.950 . S
C567 C564 1.387 . S
C568 C569 1.387 . S
C568 H572 0.950 . S
C568 C577 1.390 . S
C569 C568 1.387 . S
C569 C571 1.387 . S
H570 C577 0.950 . S
C571 C569 1.387 . S
C571 C573 1.390 . S
C571 H575 0.950 . S
H572 C568 0.950 . S
C573 C571 1.390 . S
C573 C574 1.387 . S
C573 H576 0.950 . S
C574 C573 1.387 . S
C574 C577 1.387 . S
H575 C571 0.950 . S
H576 C573 0.950 . S
C577 C568 1.390 . S
C577 H570 0.950 . S
C577 C574 1.387 . S
C578 C579 1.387 . S
C578 H582 0.950 . S
C578 C587 1.390 . S
C579 C578 1.387 . S
C579 C581 1.387 . S
H580 C587 0.950 . S
C581 C579 1.387 . S
C581 C583 1.390 . S
C581 H585 0.950 . S
H582 C578 0.950 . S
C583 C581 1.390 . S
C583 C584 1.387 . S
C583 H586 0.950 . S
C584 C583 1.387 . S
C584 C587 1.387 . S
H585 C581 0.950 . S
H586 C583 0.950 . S
C587 C578 1.390 . S
C587 H580 0.950 . S
C587 C584 1.387 . S
C588 C589 1.387 . S
C588 H592 0.950 . S
C588 C597 1.390 . S
C589 C588 1.387 . S
C589 C591 1.387 . S
H590 C597 0.950 . S
C591 C589 1.387 . S
C591 C593 1.390 . S
C591 H595 0.950 . S
H592 C588 0.950 . S
C593 C591 1.390 . S
C593 C594 1.387 . S
C593 H596 0.950 . S
C594 C593 1.387 . S
C594 C597 1.387 . S
H595 C591 0.950 . S
H596 C593 0.950 . S
C597 C588 1.390 . S
C597 H590 0.950 . S
C597 C594 1.387 . S
C598 C599 1.387 . S
C598 H602 0.950 . S
C598 C607 1.390 . S
C599 C598 1.387 . S
C599 C601 1.387 . S
H600 C607 0.950 . S
C601 C599 1.387 . S
C601 C603 1.390 . S
C601 H605 0.950 . S
H602 C598 0.950 . S
C603 C601 1.390 . S
C603 C604 1.387 . S
C603 H606 0.950 . S
C604 C603 1.387 . S
C604 C607 1.387 . S
H605 C601 0.950 . S
H606 C603 0.950 . S
C607 C598 1.390 . S
C607 H600 0.950 . S
C607 C604 1.387 . S
C608 C609 1.387 . S
C608 H612 0.950 . S
C608 C617 1.390 . S
C609 C608 1.387 . S
C609 C611 1.387 . S
H610 C617 0.950 . S
C611 C609 1.387 . S
C611 C613 1.390 . S
C611 H615 0.950 . S
H612 C608 0.950 . S
C613 C611 1.390 . S
C613 C614 1.387 . S
C613 H616 0.950 . S
C614 C613 1.387 . S
C614 C617 1.387 . S
H615 C611 0.950 . S
H616 C613 0.950 . S
C617 C608 1.390 . S
C617 H610 0.950 . S
C617 C614 1.387 . S
C618 C619 1.387 . S
C618 H622 0.950 . S
C618 C627 1.390 . S
C619 C618 1.387 . S
C619 C621 1.387 . S
H620 C627 0.950 . S
C621 C619 1.387 . S
C621 C623 1.390 . S
C621 H625 0.950 . S
H622 C618 0.950 . S
C623 C621 1.390 . S
C623 C624 1.387 . S
C623 H626 0.950 . S
C624 C623 1.387 . S
C624 C627 1.387 . S
H625 C621 0.950 . S
H626 C623 0.950 . S
C627 C618 1.390 . S
C627 H620 0.950 . S
C627 C624 1.387 . S
C628 C629 1.387 . S
C628 H632 0.950 . S
C628 C637 1.390 . S
C629 C628 1.387 . S
C629 C631 1.387 . S
H630 C637 0.950 . S
C631 C629 1.387 . S
C631 C633 1.390 . S
C631 H635 0.950 . S
H632 C628 0.950 . S
C633 C631 1.390 . S
C633 C634 1.387 . S
C633 H636 0.950 . S
C634 C633 1.387 . S
C634 C637 1.387 . S
H635 C631 0.950 . S
H636 C633 0.950 . S
C637 C628 1.390 . S
C637 H630 0.950 . S
C637 C634 1.387 . S
C638 C639 1.387 . S
C638 H642 0.950 . S
C638 C647 1.390 . S
C639 C638 1.387 . S
C639 C641 1.387 . S
H640 C647 0.950 . S
C641 C639 1.387 . S
C641 C643 1.390 . S
C641 H645 0.950 . S
H642 C638 0.950 . S
C643 C641 1.390 . S
C643 C644 1.387 . S
C643 H646 0.950 . S
C644 C643 1.387 . S
C644 C647 1.387 . S
H645 C641 0.950 . S
H646 C643 0.950 . S
C647 C638 1.390 . S
C647 H640 0.950 . S
C647 C644 1.387 . S
C648 C649 1.387 . S
C648 H652 0.950 . S
C648 C657 1.390 . S
C649 C648 1.387 . S
C649 C651 1.387 . S
H650 C657 0.950 . S
C651 C649 1.387 . S
C651 C653 1.390 . S
C651 H655 0.950 . S
H652 C648 0.950 . S
C653 C651 1.390 . S
C653 C654 1.387 . S
C653 H656 0.950 . S
C654 C653 1.387 . S
C654 C657 1.387 . S
H655 C651 0.950 . S
H656 C653 0.950 . S
C657 C648 1.390 . S
C657 H650 0.950 . S
C657 C654 1.387 . S
C658 C659 1.387 . S
C658 H662 0.950 . S
C658 C667 1.390 . S
C659 C658 1.387 . S
C659 C661 1.387 . S
H660 C667 0.950 . S
C661 C659 1.387 . S
C661 C663 1.390 . S
C661 H665 0.950 . S
H662 C658 0.950 . S
C663 C661 1.390 . S
C663 C664 1.387 . S
C663 H666 0.950 . S
C664 C663 1.387 . S
C664 C667 1.387 . S
H665 C661 0.950 . S
H666 C663 0.950 . S
C667 C658 1.390 . S
C667 H660 0.950 . S
C667 C664 1.387 . S
C668 C669 1.387 . S
C668 H672 0.950 . S
C668 C677 1.390 . S
C669 C668 1.387 . S
C669 C671 1.387 . S
H670 C677 0.950 . S
C671 C669 1.387 . S
C671 C673 1.390 . S
C671 H675 0.950 . S
H672 C668 0.950 . S
C673 C671 1.390 . S
C673 C674 1.387 . S
C673 H676 0.950 . S
C674 C673 1.387 . S
C674 C677 1.387 . S
H675 C671 0.950 . S
H676 C673 0.950 . S
C677 C668 1.390 . S
C677 H670 0.950 . S
C677 C674 1.387 . S
C678 C679 1.387 . S
C678 H682 0.950 . S
C678 C687 1.390 . S
C679 C678 1.387 . S
C679 C681 1.387 . S
H680 C687 0.950 . S
C681 C679 1.387 . S
C681 C683 1.390 . S
C681 H685 0.950 . S
H682 C678 0.950 . S
C683 C681 1.390 . S
C683 C684 1.387 . S
C683 H686 0.950 . S
C684 C683 1.387 . S
C684 C687 1.387 . S
H685 C681 0.950 . S
H686 C683 0.950 . S
C687 C678 1.390 . S
C687 H680 0.950 . S
C687 C684 1.387 . S
C688 C689 1.387 . S
C688 H692 0.950 . S
C688 C697 1.390 . S
C689 C688 1.387 . S
C689 C691 1.387 . S
H690 C697 0.950 . S
C691 C689 1.387 . S
C691 C693 1.390 . S
C691 H695 0.950 . S
H692 C688 0.950 . S
C693 C691 1.390 . S
C693 C694 1.387 . S
C693 H696 0.950 . S
C694 C693 1.387 . S
C694 C697 1.387 . S
H695 C691 0.950 . S
H696 C693 0.950 . S
C697 C688 1.390 . S
C697 H690 0.950 . S
C697 C694 1.387 . S
C698 C699 1.387 . S
C698 H702 0.950 . S
C698 C707 1.390 . S
C699 C698 1.387 . S
C699 C701 1.387 . S
H700 C707 0.950 . S
C701 C699 1.387 . S
C701 C703 1.390 . S
C701 H705 0.950 . S
H702 C698 0.950 . S
C703 C701 1.390 . S
C703 C704 1.387 . S
C703 H706 0.950 . S
C704 C703 1.387 . S
C704 C707 1.387 . S
H705 C701 0.950 . S
H706 C703 0.950 . S
C707 C698 1.390 . S
C707 H700 0.950 . S
C707 C704 1.387 . S
C708 C709 1.387 . S
C708 H712 0.950 . S
C708 C717 1.390 . S
C709 C708 1.387 . S
C709 C711 1.387 . S
H710 C717 0.950 . S
C711 C709 1.387 . S
C711 C713 1.390 . S
C711 H715 0.950 . S
H712 C708 0.950 . S
C713 C711 1.390 . S
C713 C714 1.387 . S
C713 H716 0.950 . S
C714 C713 1.387 . S
C714 C717 1.387 . S
H715 C711 0.950 . S
H716 C713 0.950 . S
C717 C708 1.390 . S
C717 H710 0.950 . S
C717 C714 1.387 . S
C718 C719 1.387 . S
C718 H722 0.950 . S
C718 C727 1.390 . S
C719 C718 1.387 . S
C719 C721 1.387 . S
H720 C727 0.950 . S
C721 C719 1.387 . S
C721 C723 1.390 . S
C721 H725 0.950 . S
H722 C718 0.950 . S
C723 C721 1.390 . S
C723 C724 1.387 . S
C723 H726 0.950 . S
C724 C723 1.387 . S
C724 C727 1.387 . S
H725 C721 0.950 . S
H726 C723 0.950 . S
C727 C718 1.390 . S
C727 H720 0.950 . S
C727 C724 1.387 . S
C728 C729 1.387 . S
C728 H732 0.950 . S
C728 C737 1.390 . S
C729 C728 1.387 . S
C729 C731 1.387 . S
H730 C737 0.950 . S
C731 C729 1.387 . S
C731 C733 1.390 . S
C731 H735 0.950 . S
H732 C728 0.950 . S
C733 C731 1.390 . S
C733 C734 1.387 . S
C733 H736 0.950 . S
C734 C733 1.387 . S
C734 C737 1.387 . S
H735 C731 0.950 . S
H736 C733 0.950 . S
C737 C728 1.390 . S
C737 H730 0.950 . S
C737 C734 1.387 . S
C738 C739 1.387 . S
C738 H742 0.950 . S
C738 C747 1.390 . S
C739 C738 1.387 . S
C739 C741 1.387 . S
H740 C747 0.950 . S
C741 C739 1.387 . S
C741 C743 1.390 . S
C741 H745 0.950 . S
H742 C738 0.950 . S
C743 C741 1.390 . S
C743 C744 1.387 . S
C743 H746 0.950 . S
C744 C743 1.387 . S
C744 C747 1.387 . S
H745 C741 0.950 . S
H746 C743 0.950 . S
C747 C738 1.390 . S
C747 H740 0.950 . S
C747 C744 1.387 . S
C748 C749 1.387 . S
C748 H752 0.950 . S
C748 C757 1.390 . S
C749 C748 1.387 . S
C749 C751 1.387 . S
H750 C757 0.950 . S
C751 C749 1.387 . S
C751 C753 1.390 . S
C751 H755 0.950 . S
H752 C748 0.950 . S
C753 C751 1.390 . S
C753 C754 1.387 . S
C753 H756 0.950 . S
C754 C753 1.387 . S
C754 C757 1.387 . S
H755 C751 0.950 . S
H756 C753 0.950 . S
C757 C748 1.390 . S
C757 H750 0.950 . S
C757 C754 1.387 . S
C758 C759 1.387 . S
C758 H762 0.950 . S
C758 C767 1.390 . S
C759 C758 1.387 . S
C759 C761 1.387 . S
H760 C767 0.950 . S
C761 C759 1.387 . S
C761 C763 1.390 . S
C761 H765 0.950 . S
H762 C758 0.950 . S
C763 C761 1.390 . S
C763 C764 1.387 . S
C763 H766 0.950 . S
C764 C763 1.387 . S
C764 C767 1.387 . S
H765 C761 0.950 . S
H766 C763 0.950 . S
C767 C758 1.390 . S
C767 H760 0.950 . S
C767 C764 1.387 . S
C768 C769 1.387 1_455 S
C768 H772 0.950 . S
C768 C777 1.390 . S
C769 C768 1.387 1_655 S
C769 C771 1.387 . S
H770 C777 0.950 . S
C771 C769 1.387 . S
C771 C773 1.390 . S
C771 H775 0.950 . S
H772 C768 0.950 . S
C773 C771 1.390 . S
C773 C774 1.387 1_655 S
C773 H776 0.950 . S
C774 C773 1.387 1_455 S
C774 C777 1.387 . S
H775 C771 0.950 . S
H776 C773 0.950 . S
C777 C768 1.390 . S
C777 H770 0.950 . S
C777 C774 1.387 . S
C778 C779 1.387 1_545 S
C778 H782 0.950 . S
C778 C787 1.390 . S
C779 C778 1.387 1_565 S
C779 C781 1.387 . S
H780 C787 0.950 . S
C781 C779 1.387 . S
C781 C783 1.390 . S
C781 H785 0.950 . S
H782 C778 0.950 . S
C783 C781 1.390 . S
C783 C784 1.387 1_565 S
C783 H786 0.950 . S
C784 C783 1.387 1_545 S
C784 C787 1.387 . S
H785 C781 0.950 . S
H786 C783 0.950 . S
C787 C778 1.390 . S
C787 H780 0.950 . S
C787 C784 1.387 . S
C788 C789 1.387 1_556 S
C788 H792 0.950 . S
C788 C797 1.390 . S
C789 C788 1.387 1_554 S
C789 C791 1.387 1_645 S
H790 C797 0.950 . S
C791 C789 1.387 1_465 S
C791 C793 1.390 . S
C791 H795 0.950 . S
H792 C788 0.950 . S
C793 C791 1.390 . S
C793 C794 1.387 1_554 S
C793 H796 0.950 . S
C794 C793 1.387 1_556 S
C794 C797 1.387 1_465 S
H795 C791 0.950 . S
H796 C793 0.950 . S
C797 C788 1.390 . S
C797 H790 0.950 . S
C797 C794 1.387 1_645 S
C798 C799 1.387 . S
C798 H802 0.950 . S
C798 C807 1.390 . S
C799 C798 1.387 . S
C799 C801 1.387 1_554 S
H800 C807 0.950 . S
C801 C799 1.387 1_556 S
C801 C803 1.390 . S
C801 H805 0.950 . S
H802 C798 0.950 . S
C803 C801 1.390 . S
C803 C804 1.387 . S
C803 H806 0.950 . S
C804 C803 1.387 . S
C804 C807 1.387 1_556 S
H805 C801 0.950 . S
H806 C803 0.950 . S
C807 C798 1.390 . S
C807 H800 0.950 . S
C807 C804 1.387 1_554 S
C808 C809 1.387 1_455 S
C808 H812 0.950 . S
C808 C817 1.390 . S
C809 C808 1.387 1_655 S
C809 C811 1.387 . S
H810 C817 0.950 . S
C811 C809 1.387 . S
C811 C813 1.390 . S
C811 H815 0.950 . S
H812 C808 0.950 . S
C813 C811 1.390 . S
C813 C814 1.387 1_655 S
C813 H816 0.950 . S
C814 C813 1.387 1_455 S
C814 C817 1.387 . S
H815 C811 0.950 . S
H816 C813 0.950 . S
C817 C808 1.390 . S
C817 H810 0.950 . S
C817 C814 1.387 . S
C818 C819 1.387 1_545 S
C818 H822 0.950 . S
C818 C827 1.390 . S
C819 C818 1.387 1_565 S
C819 C821 1.387 . S
H820 C827 0.950 . S
C821 C819 1.387 . S
C821 C823 1.390 . S
C821 H825 0.950 . S
H822 C818 0.950 . S
C823 C821 1.390 . S
C823 C824 1.387 1_565 S
C823 H826 0.950 . S
C824 C823 1.387 1_545 S
C824 C827 1.387 . S
H825 C821 0.950 . S
H826 C823 0.950 . S
C827 C818 1.390 . S
C827 H820 0.950 . S
C827 C824 1.387 . S
C828 C829 1.387 . S
C828 H832 0.950 . S
C828 C837 1.390 1_556 S
C829 C828 1.387 . S
C829 C831 1.387 . S
H830 C837 0.950 . S
C831 C829 1.387 . S
C831 C833 1.390 1_556 S
C831 H835 0.950 . S
H832 C828 0.950 . S
C833 C831 1.390 1_554 S
C833 C834 1.387 . S
C833 H836 0.950 . S
C834 C833 1.387 . S
C834 C837 1.387 . S
H835 C831 0.950 . S
H836 C833 0.950 . S
C837 C828 1.390 1_554 S
C837 H830 0.950 . S
C837 C834 1.387 . S
C838 C839 1.387 . S
C838 H842 0.950 . S
C838 C847 1.390 . S
C839 C838 1.387 . S
C839 C841 1.387 . S
H840 C847 0.950 . S
C841 C839 1.387 . S
C841 C843 1.390 . S
C841 H845 0.950 . S
H842 C838 0.950 . S
C843 C841 1.390 . S
C843 C844 1.387 . S
C843 H846 0.950 . S
C844 C843 1.387 . S
C844 C847 1.387 . S
H845 C841 0.950 . S
H846 C843 0.950 . S
C847 C838 1.390 . S
C847 H840 0.950 . S
C847 C844 1.387 . S
C848 C849 1.387 1_655 S
C848 H852 0.950 . S
C848 C857 1.390 . S
C849 C848 1.387 1_455 S
C849 C851 1.387 . S
H850 C857 0.950 . S
C851 C849 1.387 . S
C851 C853 1.390 . S
C851 H855 0.950 . S
H852 C848 0.950 . S
C853 C851 1.390 . S
C853 C854 1.387 1_455 S
C853 H856 0.950 . S
C854 C853 1.387 1_655 S
C854 C857 1.387 . S
H855 C851 0.950 . S
H856 C853 0.950 . S
C857 C848 1.390 . S
C857 H850 0.950 . S
C857 C854 1.387 . S
C858 C859 1.387 . S
C858 H862 0.950 . S
C858 C867 1.390 . S
C859 C858 1.387 . S
C859 C861 1.387 . S
H860 C867 0.950 . S
C861 C859 1.387 . S
C861 C863 1.390 . S
C861 H865 0.950 . S
H862 C858 0.950 . S
C863 C861 1.390 . S
C863 C864 1.387 . S
C863 H866 0.950 . S
C864 C863 1.387 . S
C864 C867 1.387 . S
H865 C861 0.950 . S
H866 C863 0.950 . S
C867 C858 1.390 . S
C867 H860 0.950 . S
C867 C864 1.387 . S
C868 C869 1.387 . S
C868 H872 0.950 . S
C868 C877 1.390 . S
C869 C868 1.387 . S
C869 C871 1.387 . S
H870 C877 0.950 . S
C871 C869 1.387 . S
C871 C873 1.390 . S
C871 H875 0.950 . S
H872 C868 0.950 . S
C873 C871 1.390 . S
C873 C874 1.387 . S
C873 H876 0.950 . S
C874 C873 1.387 . S
C874 C877 1.387 . S
H875 C871 0.950 . S
H876 C873 0.950 . S
C877 C868 1.390 . S
C877 H870 0.950 . S
C877 C874 1.387 . S
C878 C879 1.387 . S
C878 H882 0.950 . S
C878 C887 1.390 . S
C879 C878 1.387 . S
C879 C881 1.387 . S
H880 C887 0.950 . S
C881 C879 1.387 . S
C881 C883 1.390 . S
C881 H885 0.950 . S
H882 C878 0.950 . S
C883 C881 1.390 . S
C883 C884 1.387 . S
C883 H886 0.950 . S
C884 C883 1.387 . S
C884 C887 1.387 . S
H885 C881 0.950 . S
H886 C883 0.950 . S
C887 C878 1.390 . S
C887 H880 0.950 . S
C887 C884 1.387 . S
C888 C889 1.387 . S
C888 H892 0.950 . S
C888 C897 1.390 . S
C889 C888 1.387 . S
C889 C891 1.387 . S
H890 C897 0.950 . S
C891 C889 1.387 . S
C891 C893 1.390 . S
C891 H895 0.950 . S
H892 C888 0.950 . S
C893 C891 1.390 . S
C893 C894 1.387 . S
C893 H896 0.950 . S
C894 C893 1.387 . S
C894 C897 1.387 . S
H895 C891 0.950 . S
H896 C893 0.950 . S
C897 C888 1.390 . S
C897 H890 0.950 . S
C897 C894 1.387 . S
C898 C899 1.387 1_565 S
C898 H902 0.950 . S
C898 C907 1.390 . S
C899 C898 1.387 1_545 S
C899 C901 1.387 . S
H900 C907 0.950 . S
C901 C899 1.387 . S
C901 C903 1.390 . S
C901 H905 0.950 . S
H902 C898 0.950 . S
C903 C901 1.390 . S
C903 C904 1.387 1_545 S
C903 H906 0.950 . S
C904 C903 1.387 1_565 S
C904 C907 1.387 . S
H905 C901 0.950 . S
H906 C903 0.950 . S
C907 C898 1.390 . S
C907 H900 0.950 . S
C907 C904 1.387 . S
C908 C909 1.387 . S
C908 H912 0.950 . S
C908 C917 1.390 . S
C909 C908 1.387 . S
C909 C911 1.387 . S
H910 C917 0.950 . S
C911 C909 1.387 . S
C911 C913 1.390 . S
C911 H915 0.950 . S
H912 C908 0.950 . S
C913 C911 1.390 . S
C913 C914 1.387 . S
C913 H916 0.950 . S
C914 C913 1.387 . S
C914 C917 1.387 . S
H915 C911 0.950 . S
H916 C913 0.950 . S
C917 C908 1.390 . S
C917 H910 0.950 . S
C917 C914 1.387 . S
C918 C919 1.387 . S
C918 H922 0.950 . S
C918 C927 1.390 1_556 S
C919 C918 1.387 . S
C919 C921 1.387 . S
H920 C927 0.950 . S
C921 C919 1.387 . S
C921 C923 1.390 1_556 S
C921 H925 0.950 . S
H922 C918 0.950 . S
C923 C921 1.390 1_554 S
C923 C924 1.387 . S
C923 H926 0.950 . S
C924 C923 1.387 . S
C924 C927 1.387 . S
H925 C921 0.950 . S
H926 C923 0.950 . S
C927 C918 1.390 1_554 S
C927 H920 0.950 . S
C927 C924 1.387 . S
C928 C929 1.387 . S
C928 H932 0.950 . S
C928 C937 1.390 . S
C929 C928 1.387 . S
C929 C931 1.387 . S
H930 C937 0.950 . S
C931 C929 1.387 . S
C931 C933 1.390 . S
C931 H935 0.950 . S
H932 C928 0.950 . S
C933 C931 1.390 . S
C933 C934 1.387 . S
C933 H936 0.950 . S
C934 C933 1.387 . S
C934 C937 1.387 . S
H935 C931 0.950 . S
H936 C933 0.950 . S
C937 C928 1.390 . S
C937 H930 0.950 . S
C937 C934 1.387 . S
C938 C939 1.387 . S
C938 H942 0.950 . S
C938 C947 1.390 . S
C939 C938 1.387 . S
C939 C941 1.387 . S
H940 C947 0.950 . S
C941 C939 1.387 . S
C941 C943 1.390 . S
C941 H945 0.950 . S
H942 C938 0.950 . S
C943 C941 1.390 . S
C943 C944 1.387 . S
C943 H946 0.950 . S
C944 C943 1.387 . S
C944 C947 1.387 . S
H945 C941 0.950 . S
H946 C943 0.950 . S
C947 C938 1.390 . S
C947 H940 0.950 . S
C947 C944 1.387 . S
C948 C949 1.387 . S
C948 H952 0.950 . S
C948 C957 1.390 . S
C949 C948 1.387 . S
C949 C951 1.387 . S
H950 C957 0.950 . S
C951 C949 1.387 . S
C951 C953 1.390 . S
C951 H955 0.950 . S
H952 C948 0.950 . S
C953 C951 1.390 . S
C953 C954 1.387 . S
C953 H956 0.950 . S
C954 C953 1.387 . S
C954 C957 1.387 . S
H955 C951 0.950 . S
H956 C953 0.950 . S
C957 C948 1.390 . S
C957 H950 0.950 . S
C957 C954 1.387 . S
C958 C959 1.387 . S
C958 H962 0.950 . S
C958 C967 1.390 . S
C959 C958 1.387 . S
C959 C961 1.387 . S
H960 C967 0.950 . S
C961 C959 1.387 . S
C961 C963 1.390 . S
C961 H965 0.950 . S
H962 C958 0.950 . S
C963 C961 1.390 . S
C963 C964 1.387 . S
C963 H966 0.950 . S
C964 C963 1.387 . S
C964 C967 1.387 . S
H965 C961 0.950 . S
H966 C963 0.950 . S
C967 C958 1.390 . S
C967 H960 0.950 . S
C967 C964 1.387 . S
C968 C969 1.387 . S
C968 H972 0.950 . S
C968 C977 1.390 . S
C969 C968 1.387 . S
C969 C971 1.387 . S
H970 C977 0.950 . S
C971 C969 1.387 . S
C971 C973 1.390 . S
C971 H975 0.950 . S
H972 C968 0.950 . S
C973 C971 1.390 . S
C973 C974 1.387 . S
C973 H976 0.950 . S
C974 C973 1.387 . S
C974 C977 1.387 . S
H975 C971 0.950 . S
H976 C973 0.950 . S
C977 C968 1.390 . S
C977 H970 0.950 . S
C977 C974 1.387 . S
C978 C979 1.387 . S
C978 H982 0.950 . S
C978 C987 1.390 . S
C979 C978 1.387 . S
C979 C981 1.387 . S
H980 C987 0.950 . S
C981 C979 1.387 . S
C981 C983 1.390 . S
C981 H985 0.950 . S
H982 C978 0.950 . S
C983 C981 1.390 . S
C983 C984 1.387 . S
C983 H986 0.950 . S
C984 C983 1.387 . S
C984 C987 1.387 . S
H985 C981 0.950 . S
H986 C983 0.950 . S
C987 C978 1.390 . S
C987 H980 0.950 . S
C987 C984 1.387 . S
C988 C989 1.387 . S
C988 H992 0.950 . S
C988 C997 1.390 . S
C989 C988 1.387 . S
C989 C991 1.387 . S
H990 C997 0.950 . S
C991 C989 1.387 . S
C991 C993 1.390 . S
C991 H995 0.950 . S
H992 C988 0.950 . S
C993 C991 1.390 . S
C993 C994 1.387 . S
C993 H996 0.950 . S
C994 C993 1.387 . S
C994 C997 1.387 . S
H995 C991 0.950 . S
H996 C993 0.950 . S
C997 C988 1.390 . S
C997 H990 0.950 . S
C997 C994 1.387 . S
C998 C999 1.387 . S
C998 H1002 0.950 . S
C998 C1007 1.390 . S
C999 C998 1.387 . S
C999 C1001 1.387 . S
H1000 C1007 0.950 . S
C1001 C999 1.387 . S
C1001 C1003 1.390 . S
C1001 H1005 0.950 . S
H1002 C998 0.950 . S
C1003 C1001 1.390 . S
C1003 C1004 1.387 . S
C1003 H1006 0.950 . S
C1004 C1003 1.387 . S
C1004 C1007 1.387 . S
H1005 C1001 0.950 . S
H1006 C1003 0.950 . S
C1007 C998 1.390 . S
C1007 H1000 0.950 . S
C1007 C1004 1.387 . S
C1008 C1009 1.387 . S
C1008 H1012 0.950 . S
C1008 C1017 1.390 . S
C1009 C1008 1.387 . S
C1009 C1011 1.387 . S
H1010 C1017 0.950 . S
C1011 C1009 1.387 . S
C1011 C1013 1.390 . S
C1011 H1015 0.950 . S
H1012 C1008 0.950 . S
C1013 C1011 1.390 . S
C1013 C1014 1.387 . S
C1013 H1016 0.950 . S
C1014 C1013 1.387 . S
C1014 C1017 1.387 . S
H1015 C1011 0.950 . S
H1016 C1013 0.950 . S
C1017 C1008 1.390 . S
C1017 H1010 0.950 . S
C1017 C1014 1.387 . S
C1018 C1019 1.387 . S
C1018 H1022 0.950 . S
C1018 C1027 1.390 . S
C1019 C1018 1.387 . S
C1019 C1021 1.387 . S
H1020 C1027 0.950 . S
C1021 C1019 1.387 . S
C1021 C1023 1.390 . S
C1021 H1025 0.950 . S
H1022 C1018 0.950 . S
C1023 C1021 1.390 . S
C1023 C1024 1.387 . S
C1023 H1026 0.950 . S
C1024 C1023 1.387 . S
C1024 C1027 1.387 . S
H1025 C1021 0.950 . S
H1026 C1023 0.950 . S
C1027 C1018 1.390 . S
C1027 H1020 0.950 . S
C1027 C1024 1.387 . S
C1028 C1029 1.387 . S
C1028 H1032 0.950 . S
C1028 C1037 1.390 . S
C1029 C1028 1.387 . S
C1029 C1031 1.387 . S
H1030 C1037 0.950 . S
C1031 C1029 1.387 . S
C1031 C1033 1.390 . S
C1031 H1035 0.950 . S
H1032 C1028 0.950 . S
C1033 C1031 1.390 . S
C1033 C1034 1.387 . S
C1033 H1036 0.950 . S
C1034 C1033 1.387 . S
C1034 C1037 1.387 . S
H1035 C1031 0.950 . S
H1036 C1033 0.950 . S
C1037 C1028 1.390 . S
C1037 H1030 0.950 . S
C1037 C1034 1.387 . S
C1038 C1039 1.387 . S
C1038 H1042 0.950 . S
C1038 C1047 1.390 . S
C1039 C1038 1.387 . S
C1039 C1041 1.387 . S
H1040 C1047 0.950 . S
C1041 C1039 1.387 . S
C1041 C1043 1.390 . S
C1041 H1045 0.950 . S
H1042 C1038 0.950 . S
C1043 C1041 1.390 . S
C1043 C1044 1.387 . S
C1043 H1046 0.950 . S
C1044 C1043 1.387 . S
C1044 C1047 1.387 . S
H1045 C1041 0.950 . S
H1046 C1043 0.950 . S
C1047 C1038 1.390 . S
C1047 H1040 0.950 . S
C1047 C1044 1.387 . S
C1048 C1049 1.387 . S
C1048 H1052 0.950 . S
C1048 C1057 1.390 . S
C1049 C1048 1.387 . S
C1049 C1051 1.387 . S
H1050 C1057 0.950 . S
C1051 C1049 1.387 . S
C1051 C1053 1.390 . S
C1051 H1055 0.950 . S
H1052 C1048 0.950 . S
C1053 C1051 1.390 . S
C1053 C1054 1.387 . S
C1053 H1056 0.950 . S
C1054 C1053 1.387 . S
C1054 C1057 1.387 . S
H1055 C1051 0.950 . S
H1056 C1053 0.950 . S
C1057 C1048 1.390 . S
C1057 H1050 0.950 . S
C1057 C1054 1.387 . S
C1058 C1059 1.387 . S
C1058 H1062 0.950 . S
C1058 C1067 1.390 . S
C1059 C1058 1.387 . S
C1059 C1061 1.387 . S
H1060 C1067 0.950 . S
C1061 C1059 1.387 . S
C1061 C1063 1.390 . S
C1061 H1065 0.950 . S
H1062 C1058 0.950 . S
C1063 C1061 1.390 . S
C1063 C1064 1.387 . S
C1063 H1066 0.950 . S
C1064 C1063 1.387 . S
C1064 C1067 1.387 . S
H1065 C1061 0.950 . S
H1066 C1063 0.950 . S
C1067 C1058 1.390 . S
C1067 H1060 0.950 . S
C1067 C1064 1.387 . S
C1068 C1069 1.387 . S
C1068 H1072 0.950 . S
C1068 C1077 1.390 . S
C1069 C1068 1.387 . S
C1069 C1071 1.387 . S
H1070 C1077 0.950 . S
C1071 C1069 1.387 . S
C1071 C1073 1.390 . S
C1071 H1075 0.950 . S
H1072 C1068 0.950 . S
C1073 C1071 1.390 . S
C1073 C1074 1.387 . S
C1073 H1076 0.950 . S
C1074 C1073 1.387 . S
C1074 C1077 1.387 . S
H1075 C1071 0.950 . S
H1076 C1073 0.950 . S
C1077 C1068 1.390 . S
C1077 H1070 0.950 . S
C1077 C1074 1.387 . S
C1078 C1079 1.387 . S
C1078 H1082 0.950 . S
C1078 C1087 1.390 . S
C1079 C1078 1.387 . S
C1079 C1081 1.387 . S
H1080 C1087 0.950 . S
C1081 C1079 1.387 . S
C1081 C1083 1.390 . S
C1081 H1085 0.950 . S
H1082 C1078 0.950 . S
C1083 C1081 1.390 . S
C1083 C1084 1.387 . S
C1083 H1086 0.950 . S
C1084 C1083 1.387 . S
C1084 C1087 1.387 . S
H1085 C1081 0.950 . S
H1086 C1083 0.950 . S
C1087 C1078 1.390 . S
C1087 H1080 0.950 . S
C1087 C1084 1.387 . S
C449 C153 1.337 . S
C454 C13 1.337 . S
C459 C27 1.337 . S
C464 C167 1.337 . S
C469 C41 1.337 . S
C474 C125 1.337 . S
C479 C139 1.339 . S
C484 C55 1.339 . S
C489 C209 1.340 . S
C494 C69 1.340 . S
C499 C83 1.339 . S
C504 C223 1.339 . S
C509 C181 1.340 . S
C514 C97 1.340 . S
C519 C195 1.337 . S
C524 C111 1.337 . S
C529 C377 1.337 . S
C534 C237 1.337 . S
C539 C391 1.339 . S
C544 C251 1.339 . S
C549 C349 1.340 . S
C554 C265 1.340 . S
C559 C279 1.337 . S
C564 C363 1.337 . S
C569 C433 1.337 . S
C574 C293 1.337 . S
C579 C447 1.337 . S
C584 C307 1.337 . S
C589 C321 1.337 . S
C594 C405 1.337 . S
C599 C335 1.337 . S
C604 C419 1.337 . S
C609 C277 1.509 . S
C614 C11 1.509 . S
C619 C25 1.510 1_655 S
C624 C263 1.510 . S
C629 C249 1.510 . S
C634 C39 1.510 . S
C639 C235 1.510 . S
C644 C53 1.510 1_655 S
C649 C67 1.509 . S
C654 C333 1.509 . S
C659 C81 1.510 1_455 S
C664 C319 1.510 . S
C669 C305 1.509 . S
C674 C95 1.509 . S
C679 C109 1.509 1_455 S
C684 C291 1.509 . S
C689 C389 1.509 . S
C694 C123 1.509 . S
C699 C375 1.510 . S
C704 C137 1.510 1_655 S
C709 C361 1.509 . S
C714 C151 1.509 . S
C719 C347 1.509 . S
C724 C165 1.509 1_655 S
C729 C179 1.510 . S
C734 C445 1.510 . S
C739 C431 1.510 . S
C744 C193 1.510 1_455 S
C749 C207 1.509 . S
C754 C417 1.509 . S
C759 C221 1.510 1_455 S
C764 C403 1.510 . S
C769 C175 1.452 . S
C774 C7 1.452 . S
C779 C21 1.454 . S
C784 C301 1.454 . S
C789 C91 1.456 . S
C794 C35 1.456 . S
C799 C441 1.454 . S
C804 C49 1.454 . S
C809 C63 1.454 . S
C814 C119 1.454 . S
C819 C245 1.451 . S
C824 C77 1.451 . S
C829 C385 1.451 . S
C834 C105 1.451 . S
C839 C413 1.453 . S
C844 C133 1.453 . S
C849 C147 1.457 . S
C854 C203 1.457 . S
C859 C329 1.455 . S
C864 C161 1.455 . S
C869 C357 1.455 . S
C874 C189 1.455 . S
C879 C217 1.452 . S
C884 C273 1.452 . S
C889 C231 1.457 . S
C894 C399 1.457 . S
C899 C315 1.457 . S
C904 C259 1.457 . S
C909 C343 1.457 . S
C914 C287 1.457 . S
C919 C371 1.457 . S
C924 C427 1.457 . S
C929 C8 1.101 . S
C934 C50 1.101 . S
C939 C36 1.101 . S
C944 C22 1.101 . S
C949 C64 1.101 . S
C954 C106 1.101 . S
C959 C78 1.103 . S
C964 C92 1.103 . S
C969 C120 1.101 . S
C974 C162 1.101 . S
C979 C134 1.101 . S
C984 C148 1.101 . S
C989 C176 1.101 . S
C994 C218 1.101 . S
C999 C204 1.101 . S
C1004 C190 1.101 . S
C1009 C274 1.101 . S
C1014 C232 1.101 . S
C1019 C260 1.103 . S
C1024 C246 1.103 . S
C1029 C330 1.101 . S
C1034 C288 1.101 . S
C1039 C316 1.101 . S
C1044 C302 1.101 . S
C1049 C386 1.103 . S
C1054 C344 1.103 . S
C1059 C372 1.101 . S
C1064 C358 1.101 . S
C1069 C400 1.103 . S
C1074 C442 1.103 . S
C1079 C428 1.103 . S
C1084 C414 1.103 . S
