# Generated by pormake.
# Topology son, (6)-cn, num edge types: 1
# Building blocks:
#     Node 0, Type 0, BuildingBlock: GEDQOX_clean_sbu_0, # of connection points: 6
#     Node 1, Type 0, BuildingBlock: GEDQOX_clean_sbu_0, # of connection points: 6
#     Node 2, Type 0, BuildingBlock: GEDQOX_clean_sbu_0, # of connection points: 6
#     Node 3, Type 0, BuildingBlock: GEDQOX_clean_sbu_0, # of connection points: 6
#     Node 4, Type 0, BuildingBlock: GEDQOX_clean_sbu_0, # of connection points: 6
#     Node 5, Type 0, BuildingBlock: GEDQOX_clean_sbu_0, # of connection points: 6
#     Node 6, Type 0, BuildingBlock: GEDQOX_clean_sbu_0, # of connection points: 6
#     Node 7, Type 0, BuildingBlock: GEDQOX_clean_sbu_0, # of connection points: 6
#     Node 8, Type 0, BuildingBlock: GEDQOX_clean_sbu_0, # of connection points: 6
#     Node 9, Type 0, BuildingBlock: GEDQOX_clean_sbu_0, # of connection points: 6
#     Node 10, Type 0, BuildingBlock: GEDQOX_clean_sbu_0, # of connection points: 6
#     Node 11, Type 0, BuildingBlock: GEDQOX_clean_sbu_0, # of connection points: 6
#     Node 12, Type 0, BuildingBlock: GEDQOX_clean_sbu_0, # of connection points: 6
#     Node 13, Type 0, BuildingBlock: GEDQOX_clean_sbu_0, # of connection points: 6
#     Node 14, Type 0, BuildingBlock: GEDQOX_clean_sbu_0, # of connection points: 6
#     Node 15, Type 0, BuildingBlock: GEDQOX_clean_sbu_0, # of connection points: 6
#     Node 16, Type 0, BuildingBlock: GEDQOX_clean_sbu_0, # of connection points: 6
#     Node 17, Type 0, BuildingBlock: GEDQOX_clean_sbu_0, # of connection points: 6
#     Node 18, Type 0, BuildingBlock: GEDQOX_clean_sbu_0, # of connection points: 6
#     Node 19, Type 0, BuildingBlock: GEDQOX_clean_sbu_0, # of connection points: 6
#     Node 20, Type 0, BuildingBlock: GEDQOX_clean_sbu_0, # of connection points: 6
#     Node 21, Type 0, BuildingBlock: GEDQOX_clean_sbu_0, # of connection points: 6
#     Node 22, Type 0, BuildingBlock: GEDQOX_clean_sbu_0, # of connection points: 6
#     Node 23, Type 0, BuildingBlock: GEDQOX_clean_sbu_0, # of connection points: 6
#     Node 24, Type 0, BuildingBlock: GEDQOX_clean_sbu_0, # of connection points: 6
#     Node 25, Type 0, BuildingBlock: GEDQOX_clean_sbu_0, # of connection points: 6
#     Node 26, Type 0, BuildingBlock: GEDQOX_clean_sbu_0, # of connection points: 6
#     Node 27, Type 0, BuildingBlock: GEDQOX_clean_sbu_0, # of connection points: 6
#     Node 28, Type 0, BuildingBlock: GEDQOX_clean_sbu_0, # of connection points: 6
#     Node 29, Type 0, BuildingBlock: GEDQOX_clean_sbu_0, # of connection points: 6
#     Node 30, Type 0, BuildingBlock: GEDQOX_clean_sbu_0, # of connection points: 6
#     Node 31, Type 0, BuildingBlock: GEDQOX_clean_sbu_0, # of connection points: 6
#     Edge 32, Type (0, 0), BuildingBlock: KIFKEQ_clean_linker_1, # of connection points: 2
#     Edge 33, Type (0, 0), BuildingBlock: KIFKEQ_clean_linker_1, # of connection points: 2
#     Edge 34, Type (0, 0), BuildingBlock: KIFKEQ_clean_linker_1, # of connection points: 2
#     Edge 35, Type (0, 0), BuildingBlock: KIFKEQ_clean_linker_1, # of connection points: 2
#     Edge 36, Type (0, 0), BuildingBlock: KIFKEQ_clean_linker_1, # of connection points: 2
#     Edge 37, Type (0, 0), BuildingBlock: KIFKEQ_clean_linker_1, # of connection points: 2
#     Edge 38, Type (0, 0), BuildingBlock: KIFKEQ_clean_linker_1, # of connection points: 2
#     Edge 39, Type (0, 0), BuildingBlock: KIFKEQ_clean_linker_1, # of connection points: 2
#     Edge 40, Type (0, 0), BuildingBlock: KIFKEQ_clean_linker_1, # of connection points: 2
#     Edge 41, Type (0, 0), BuildingBlock: KIFKEQ_clean_linker_1, # of connection points: 2
#     Edge 42, Type (0, 0), BuildingBlock: KIFKEQ_clean_linker_1, # of connection points: 2
#     Edge 43, Type (0, 0), BuildingBlock: KIFKEQ_clean_linker_1, # of connection points: 2
#     Edge 44, Type (0, 0), BuildingBlock: KIFKEQ_clean_linker_1, # of connection points: 2
#     Edge 45, Type (0, 0), BuildingBlock: KIFKEQ_clean_linker_1, # of connection points: 2
#     Edge 46, Type (0, 0), BuildingBlock: KIFKEQ_clean_linker_1, # of connection points: 2
#     Edge 47, Type (0, 0), BuildingBlock: KIFKEQ_clean_linker_1, # of connection points: 2
#     Edge 48, Type (0, 0), BuildingBlock: KIFKEQ_clean_linker_1, # of connection points: 2
#     Edge 49, Type (0, 0), BuildingBlock: KIFKEQ_clean_linker_1, # of connection points: 2
#     Edge 50, Type (0, 0), BuildingBlock: KIFKEQ_clean_linker_1, # of connection points: 2
#     Edge 51, Type (0, 0), BuildingBlock: KIFKEQ_clean_linker_1, # of connection points: 2
#     Edge 52, Type (0, 0), BuildingBlock: KIFKEQ_clean_linker_1, # of connection points: 2
#     Edge 53, Type (0, 0), BuildingBlock: KIFKEQ_clean_linker_1, # of connection points: 2
#     Edge 54, Type (0, 0), BuildingBlock: KIFKEQ_clean_linker_1, # of connection points: 2
#     Edge 55, Type (0, 0), BuildingBlock: KIFKEQ_clean_linker_1, # of connection points: 2
#     Edge 56, Type (0, 0), BuildingBlock: KIFKEQ_clean_linker_1, # of connection points: 2
#     Edge 57, Type (0, 0), BuildingBlock: KIFKEQ_clean_linker_1, # of connection points: 2
#     Edge 58, Type (0, 0), BuildingBlock: KIFKEQ_clean_linker_1, # of connection points: 2
#     Edge 59, Type (0, 0), BuildingBlock: KIFKEQ_clean_linker_1, # of connection points: 2
#     Edge 60, Type (0, 0), BuildingBlock: KIFKEQ_clean_linker_1, # of connection points: 2
#     Edge 61, Type (0, 0), BuildingBlock: KIFKEQ_clean_linker_1, # of connection points: 2
#     Edge 62, Type (0, 0), BuildingBlock: KIFKEQ_clean_linker_1, # of connection points: 2
#     Edge 63, Type (0, 0), BuildingBlock: KIFKEQ_clean_linker_1, # of connection points: 2
#     Edge 64, Type (0, 0), BuildingBlock: KIFKEQ_clean_linker_1, # of connection points: 2
#     Edge 65, Type (0, 0), BuildingBlock: KIFKEQ_clean_linker_1, # of connection points: 2
#     Edge 66, Type (0, 0), BuildingBlock: KIFKEQ_clean_linker_1, # of connection points: 2
#     Edge 67, Type (0, 0), BuildingBlock: KIFKEQ_clean_linker_1, # of connection points: 2
#     Edge 68, Type (0, 0), BuildingBlock: KIFKEQ_clean_linker_1, # of connection points: 2
#     Edge 69, Type (0, 0), BuildingBlock: KIFKEQ_clean_linker_1, # of connection points: 2
#     Edge 70, Type (0, 0), BuildingBlock: KIFKEQ_clean_linker_1, # of connection points: 2
#     Edge 71, Type (0, 0), BuildingBlock: KIFKEQ_clean_linker_1, # of connection points: 2
#     Edge 72, Type (0, 0), BuildingBlock: KIFKEQ_clean_linker_1, # of connection points: 2
#     Edge 73, Type (0, 0), BuildingBlock: KIFKEQ_clean_linker_1, # of connection points: 2
#     Edge 74, Type (0, 0), BuildingBlock: KIFKEQ_clean_linker_1, # of connection points: 2
#     Edge 75, Type (0, 0), BuildingBlock: KIFKEQ_clean_linker_1, # of connection points: 2
#     Edge 76, Type (0, 0), BuildingBlock: KIFKEQ_clean_linker_1, # of connection points: 2
#     Edge 77, Type (0, 0), BuildingBlock: KIFKEQ_clean_linker_1, # of connection points: 2
#     Edge 78, Type (0, 0), BuildingBlock: KIFKEQ_clean_linker_1, # of connection points: 2
#     Edge 79, Type (0, 0), BuildingBlock: KIFKEQ_clean_linker_1, # of connection points: 2
#     Edge 80, Type (0, 0), BuildingBlock: KIFKEQ_clean_linker_1, # of connection points: 2
#     Edge 81, Type (0, 0), BuildingBlock: KIFKEQ_clean_linker_1, # of connection points: 2
#     Edge 82, Type (0, 0), BuildingBlock: KIFKEQ_clean_linker_1, # of connection points: 2
#     Edge 83, Type (0, 0), BuildingBlock: KIFKEQ_clean_linker_1, # of connection points: 2
#     Edge 84, Type (0, 0), BuildingBlock: KIFKEQ_clean_linker_1, # of connection points: 2
#     Edge 85, Type (0, 0), BuildingBlock: KIFKEQ_clean_linker_1, # of connection points: 2
#     Edge 86, Type (0, 0), BuildingBlock: KIFKEQ_clean_linker_1, # of connection points: 2
#     Edge 87, Type (0, 0), BuildingBlock: KIFKEQ_clean_linker_1, # of connection points: 2
#     Edge 88, Type (0, 0), BuildingBlock: KIFKEQ_clean_linker_1, # of connection points: 2
#     Edge 89, Type (0, 0), BuildingBlock: KIFKEQ_clean_linker_1, # of connection points: 2
#     Edge 90, Type (0, 0), BuildingBlock: KIFKEQ_clean_linker_1, # of connection points: 2
#     Edge 91, Type (0, 0), BuildingBlock: KIFKEQ_clean_linker_1, # of connection points: 2
#     Edge 92, Type (0, 0), BuildingBlock: KIFKEQ_clean_linker_1, # of connection points: 2
#     Edge 93, Type (0, 0), BuildingBlock: KIFKEQ_clean_linker_1, # of connection points: 2
#     Edge 94, Type (0, 0), BuildingBlock: KIFKEQ_clean_linker_1, # of connection points: 2
#     Edge 95, Type (0, 0), BuildingBlock: KIFKEQ_clean_linker_1, # of connection points: 2
#     Edge 96, Type (0, 0), BuildingBlock: KIFKEQ_clean_linker_1, # of connection points: 2
#     Edge 97, Type (0, 0), BuildingBlock: KIFKEQ_clean_linker_1, # of connection points: 2
#     Edge 98, Type (0, 0), BuildingBlock: KIFKEQ_clean_linker_1, # of connection points: 2
#     Edge 99, Type (0, 0), BuildingBlock: KIFKEQ_clean_linker_1, # of connection points: 2
#     Edge 100, Type (0, 0), BuildingBlock: KIFKEQ_clean_linker_1, # of connection points: 2
#     Edge 101, Type (0, 0), BuildingBlock: KIFKEQ_clean_linker_1, # of connection points: 2
#     Edge 102, Type (0, 0), BuildingBlock: KIFKEQ_clean_linker_1, # of connection points: 2
#     Edge 103, Type (0, 0), BuildingBlock: KIFKEQ_clean_linker_1, # of connection points: 2
#     Edge 104, Type (0, 0), BuildingBlock: KIFKEQ_clean_linker_1, # of connection points: 2
#     Edge 105, Type (0, 0), BuildingBlock: KIFKEQ_clean_linker_1, # of connection points: 2
#     Edge 106, Type (0, 0), BuildingBlock: KIFKEQ_clean_linker_1, # of connection points: 2
#     Edge 107, Type (0, 0), BuildingBlock: KIFKEQ_clean_linker_1, # of connection points: 2
#     Edge 108, Type (0, 0), BuildingBlock: KIFKEQ_clean_linker_1, # of connection points: 2
#     Edge 109, Type (0, 0), BuildingBlock: KIFKEQ_clean_linker_1, # of connection points: 2
#     Edge 110, Type (0, 0), BuildingBlock: KIFKEQ_clean_linker_1, # of connection points: 2
#     Edge 111, Type (0, 0), BuildingBlock: KIFKEQ_clean_linker_1, # of connection points: 2
#     Edge 112, Type (0, 0), BuildingBlock: KIFKEQ_clean_linker_1, # of connection points: 2
#     Edge 113, Type (0, 0), BuildingBlock: KIFKEQ_clean_linker_1, # of connection points: 2
#     Edge 114, Type (0, 0), BuildingBlock: KIFKEQ_clean_linker_1, # of connection points: 2
#     Edge 115, Type (0, 0), BuildingBlock: KIFKEQ_clean_linker_1, # of connection points: 2
#     Edge 116, Type (0, 0), BuildingBlock: KIFKEQ_clean_linker_1, # of connection points: 2
#     Edge 117, Type (0, 0), BuildingBlock: KIFKEQ_clean_linker_1, # of connection points: 2
#     Edge 118, Type (0, 0), BuildingBlock: KIFKEQ_clean_linker_1, # of connection points: 2
#     Edge 119, Type (0, 0), BuildingBlock: KIFKEQ_clean_linker_1, # of connection points: 2
#     Edge 120, Type (0, 0), BuildingBlock: KIFKEQ_clean_linker_1, # of connection points: 2
#     Edge 121, Type (0, 0), BuildingBlock: KIFKEQ_clean_linker_1, # of connection points: 2
#     Edge 122, Type (0, 0), BuildingBlock: KIFKEQ_clean_linker_1, # of connection points: 2
#     Edge 123, Type (0, 0), BuildingBlock: KIFKEQ_clean_linker_1, # of connection points: 2
#     Edge 124, Type (0, 0), BuildingBlock: KIFKEQ_clean_linker_1, # of connection points: 2
#     Edge 125, Type (0, 0), BuildingBlock: KIFKEQ_clean_linker_1, # of connection points: 2
#     Edge 126, Type (0, 0), BuildingBlock: KIFKEQ_clean_linker_1, # of connection points: 2
#     Edge 127, Type (0, 0), BuildingBlock: KIFKEQ_clean_linker_1, # of connection points: 2
# Relax obj value: 0.132
# Max RMSD: 0.184
# Mean RMSD: 0.184
data_MOF--net-son--node1-GEDQOX_clean_sbu_0--edge1-KIFKEQ_clean_linker_1
_symmetry_space_group_name_H-M    P1
_symmetry_Int_Tables_number       1
_symmetry_cell_setting            triclinic
loop_
_symmetry_equiv_pos_as_xyz
'x, y, z'
_cell_length_a     208.94485
_cell_length_b     58.047504
_cell_length_c     15.965807
_cell_angle_alpha  89.998757
_cell_angle_beta   89.85373
_cell_angle_gamma 90.099937
loop_
_atom_site_label
_atom_site_type_symbol
_atom_site_fract_x
_atom_site_fract_y
_atom_site_fract_z
_atom_type_partial_charge
Nd0 Nd 0.31354 0.25287 0.26019 0.0
Nd1 Nd 0.32947 0.25412 0.26781 0.0
C2 C 0.30145 0.23939 0.2443 0.0
C3 C 0.29525 0.24421 0.20136 0.0
C4 C 0.29284 0.22828 0.143 0.0
C5 C 0.28665 0.23061 0.11035 0.0
C6 C 0.28268 0.24898 0.13495 0.0
C7 C 0.28519 0.26555 0.19036 0.0
C8 C 0.29138 0.26313 0.22362 0.0
C9 C 0.31827 0.29757 0.27536 0.0
C10 C 0.32182 0.258 0.08379 0.0
C11 C 0.34148 0.2687 0.27753 0.0
C12 C 0.34798 0.26377 0.31084 0.0
C13 C 0.3512 0.28096 0.35614 0.0
C14 C 0.35761 0.27812 0.37941 0.0
C15 C 0.36099 0.25804 0.35751 0.0
C16 C 0.35768 0.24045 0.31473 0.0
C17 C 0.35125 0.24326 0.29172 0.0
C18 C 0.32494 0.20916 0.25973 0.0
C19 C 0.32115 0.24934 0.44389 0.0
O20 O 0.30616 0.23085 0.19958 0.0
O21 O 0.30342 0.25365 0.30257 0.0
O22 O 0.31222 0.29273 0.26723 0.0
O23 O 0.32136 0.27903 0.26877 0.0
O24 O 0.31619 0.25467 0.12053 0.0
O25 O 0.32727 0.26014 0.12629 0.0
O26 O 0.33701 0.27507 0.33045 0.0
O27 O 0.33931 0.25576 0.21651 0.0
O28 O 0.33095 0.21453 0.26778 0.0
O29 O 0.32168 0.22752 0.26082 0.0
O30 O 0.32677 0.25316 0.40774 0.0
O31 O 0.31571 0.24658 0.4014 0.0
H32 H 0.29568 0.2135 0.12458 0.0
H33 H 0.28492 0.21772 0.06689 0.0
H34 H 0.28226 0.27986 0.21095 0.0
H35 H 0.29305 0.2757 0.26871 0.0
H36 H 0.34881 0.297 0.37115 0.0
H37 H 0.35999 0.29214 0.41152 0.0
H38 H 0.3601 0.22461 0.298 0.0
H39 H 0.3489 0.22963 0.25711 0.0
Nd40 Nd 0.95481 1.00046 0.26902 0.0
Nd41 Nd 0.94075 0.99673 0.25671 0.0
C42 C 0.96739 0.00777 0.25598 0.0
C43 C 0.97338 0.00515 0.20565 0.0
C44 C 0.97616 0.02433 0.1658 0.0
C45 C 0.98233 0.02302 0.13086 0.0
C46 C 0.98592 0.00249 0.13507 0.0
C47 C 0.983 0.98302 0.17162 0.0
C48 C 0.97685 0.98436 0.20672 0.0
C49 C 0.95016 0.95749 0.31085 0.0
C50 C 0.94823 0.99178 0.08337 0.0
C51 C 0.92817 0.98866 0.26621 0.0
C52 C 0.92182 0.99152 0.308 0.0
C53 C 0.91856 0.97205 0.33848 0.0
C54 C 0.91214 0.97347 0.36422 0.0
C55 C 0.90876 0.99446 0.36021 0.0
C56 C 0.91214 0.01418 0.33304 0.0
C57 C 0.91856 0.01272 0.30698 0.0
C58 C 0.94545 0.0403 0.22104 0.0
C59 C 0.94735 0.00541 0.44329 0.0
O60 O 0.96311 0.02302 0.23401 0.0
O61 O 0.96483 0.98929 0.28831 0.0
O62 O 0.95455 0.96839 0.35156 0.0
O63 O 0.9483 0.96898 0.24771 0.0
O64 O 0.95303 0.00104 0.12534 0.0
O65 O 0.94315 0.98393 0.12373 0.0
O66 O 0.93246 0.97488 0.29834 0.0
O67 O 0.93072 0.00631 0.22801 0.0
O68 O 0.94105 0.02986 0.17866 0.0
O69 O 0.94725 0.02798 0.28209 0.0
O70 O 0.94239 0.99719 0.4011 0.0
O71 O 0.95255 0.01238 0.40308 0.0
H72 H 0.97368 0.04069 0.16466 0.0
H73 H 0.98438 0.03849 0.10404 0.0
H74 H 0.9855 0.96674 0.17463 0.0
H75 H 0.9749 0.96922 0.23725 0.0
H76 H 0.9209 0.9554 0.33897 0.0
H77 H 0.90976 0.95777 0.38362 0.0
H78 H 0.9098 0.03079 0.33053 0.0
H79 H 0.92089 0.02811 0.28349 0.0
Nd80 Nd 0.31457 0.00155 0.05957 0.0
Nd81 Nd 0.32849 0.99779 0.07054 0.0
C82 C 0.30202 0.00901 0.07411 0.0
C83 C 0.29612 0.00775 0.12683 0.0
C84 C 0.29294 0.02812 0.14967 0.0
C85 C 0.28681 0.02736 0.18572 0.0
C86 C 0.28371 0.00618 0.20008 0.0
C87 C 0.28702 0.98574 0.18103 0.0
C88 C 0.29313 0.9865 0.14442 0.0
C89 C 0.31888 0.95868 1.01081 0.0
C90 C 0.32113 0.99155 0.24401 0.0
C91 C 0.34108 0.99029 0.0616 0.0
C92 C 0.34745 0.99285 1.02005 0.0
C93 C 0.35035 0.97389 0.98035 0.0
C94 C 0.35681 0.97475 0.95538 0.0
C95 C 0.36055 0.99449 0.97062 0.0
C96 C 0.35757 0.01379 1.00698 0.0
C97 C 0.35112 0.013 1.03127 0.0
C98 C 0.32385 0.04108 0.11209 0.0
C99 C 0.32197 0.00709 0.88496 0.0
O100 O 0.30632 0.02488 0.08897 0.0
O101 O 0.30453 0.98975 0.0481 0.0
O102 O 0.31447 0.97047 0.97392 0.0
O103 O 0.32099 0.9694 0.0748 0.0
O104 O 0.31628 1.00065 0.20287 0.0
O105 O 0.32624 0.98446 0.20293 0.0
O106 O 0.33683 0.97586 1.03221 0.0
O107 O 0.33848 0.00834 0.09631 0.0
O108 O 0.3281 0.02989 0.15431 0.0
O109 O 0.32207 0.02947 0.04902 0.0
O110 O 0.32696 0.99915 0.92669 0.0
O111 O 0.31673 0.01342 0.92526 0.0
H112 H 0.29508 0.04474 0.13651 0.0
H113 H 0.28443 0.04341 0.20071 0.0
H114 H 0.28475 0.96915 0.19072 0.0
H115 H 0.29539 0.97043 0.12692 0.0
H116 H 0.34772 0.95798 0.97191 0.0
H117 H 0.35895 0.95952 0.928 0.0
H118 H 0.36028 0.0294 1.01852 0.0
H119 H 0.34909 0.02792 0.06214 0.0
Nd120 Nd 0.95507 0.25324 0.06349 0.0
Nd121 Nd 0.94097 0.25273 0.07564 0.0
C122 C 0.96779 0.25027 0.07533 0.0
C123 C 0.97376 0.25043 0.12682 0.0
C124 C 0.97655 0.22977 0.15476 0.0
C125 C 0.98271 0.22966 0.19024 0.0
C126 C 0.98625 0.25022 0.19873 0.0
C127 C 0.98335 0.27097 0.17379 0.0
C128 C 0.97722 0.27106 0.13798 0.0
C129 C 0.94941 0.29416 1.01572 0.0
C130 C 0.94824 0.25993 0.24911 0.0
C131 C 0.92826 0.25611 0.06906 0.0
C132 C 0.92192 0.25554 1.02686 0.0
C133 C 0.91955 0.27446 0.98129 0.0
C134 C 0.91314 0.27496 0.95473 0.0
C135 C 0.90893 0.25676 0.97465 0.0
C136 C 0.91137 0.23754 1.0173 0.0
C137 C 0.91777 0.23691 0.0428 0.0
C138 C 0.94653 0.21129 0.11995 0.0
C139 C 0.94775 0.24602 0.88968 0.0
O140 O 0.964 0.23227 0.07587 0.0
O141 O 0.96467 0.26956 0.06602 0.0
O142 O 0.95403 0.28423 0.97575 0.0
O143 O 0.94787 0.28275 0.08055 0.0
O144 O 0.95333 0.25276 0.20724 0.0
O145 O 0.94293 0.26518 0.20916 0.0
O146 O 0.93209 0.27384 0.06079 0.0
O147 O 0.93132 0.23677 0.08011 0.0
O148 O 0.942 0.22139 0.1612 0.0
O149 O 0.94814 0.22318 0.0565 0.0
O150 O 0.94262 0.25278 0.93185 0.0
O151 O 0.95312 0.24112 0.92918 0.0
H152 H 0.97408 0.21352 0.14657 0.0
H153 H 0.98475 0.21338 0.20968 0.0
H154 H 0.98594 0.2871 0.17835 0.0
H155 H 0.9753 0.28728 0.11591 0.0
H156 H 0.92258 0.28922 0.96876 0.0
H157 H 0.91138 0.29004 0.92211 0.0
H158 H 0.90828 0.22315 1.0327 0.0
H159 H 0.91941 0.22217 0.07841 0.0
Nd160 Nd 0.69074 0.74977 0.82481 0.0
Nd161 Nd 0.7055 0.75004 0.82143 0.0
C162 C 0.6781 0.74857 0.8111 0.0
C163 C 0.67178 0.74619 0.76922 0.0
C164 C 0.66886 0.7246 0.75767 0.0
C165 C 0.66245 0.72308 0.73159 0.0
C166 C 0.6588 0.74311 0.71735 0.0
C167 C 0.66183 0.76464 0.72628 0.0
C168 C 0.66822 0.76613 0.75174 0.0
C169 C 0.6964 0.79079 0.87244 0.0
C170 C 0.69813 0.75218 0.64152 0.0
C171 C 0.71758 0.76406 0.83748 0.0
C172 C 0.7239 0.75955 0.8778 0.0
C173 C 0.7264 0.77566 0.93486 0.0
C174 C 0.7326 0.77331 0.96707 0.0
C175 C 0.73658 0.75488 0.94253 0.0
C176 C 0.734 0.73838 0.88697 0.0
C177 C 0.72775 0.74068 0.85509 0.0
C178 C 0.7017 0.70448 0.8009 0.0
C179 C 0.69789 0.74152 1.00176 0.0
O180 O 0.68148 0.73047 0.83242 0.0
O181 O 0.68157 0.76685 0.79556 0.0
O182 O 0.69169 0.78099 0.91135 0.0
O183 O 0.69814 0.77862 0.81033 0.0
O184 O 0.69275 0.74784 0.68251 0.0
O185 O 0.70356 0.75635 0.68123 0.0
O186 O 0.71289 0.77138 0.88505 0.0
O187 O 0.71562 0.75042 0.77738 0.0
O188 O 0.70758 0.7113 0.80908 0.0
O189 O 0.69796 0.72146 0.81026 0.0
O190 O 0.70318 0.7481 0.96283 0.0
O191 O 0.69255 0.73744 0.95993 0.0
H192 H 0.67144 0.70889 0.77124 0.0
H193 H 0.66033 0.70618 0.72404 0.0
H194 H 0.6592 0.7805 0.71741 0.0
H195 H 0.67028 0.78306 0.7615 0.0
H196 H 0.72358 0.79046 0.95341 0.0
H197 H 0.73428 0.78615 1.01103 0.0
H198 H 0.73686 0.72401 0.86553 0.0
H199 H 0.72602 0.72796 0.811 0.0
Nd200 Nd 0.07876 0.00526 0.81406 0.0
Nd201 Nd 0.06366 1.00001 0.81667 0.0
C202 C 0.09067 0.02097 0.79901 0.0
C203 C 0.09726 0.01573 0.76869 0.0
C204 C 0.1004 0.03192 0.71784 0.0
C205 C 0.10685 0.0291 0.69615 0.0
C206 C 0.11036 0.00998 0.7248 0.0
C207 C 0.10713 0.99316 0.77262 0.0
C208 C 0.10065 0.99605 0.7947 0.0
C209 C 0.07542 0.9585 0.82386 0.0
C210 C 0.07099 0.99678 0.63741 0.0
C211 C 0.05146 0.98819 0.84015 0.0
C212 C 0.04537 0.99357 0.88521 0.0
C213 C 0.04292 0.97808 0.94501 0.0
C214 C 0.03674 0.98097 0.97832 0.0
C215 C 0.03283 0.99926 0.95174 0.0
C216 C 0.03537 0.01527 0.89444 0.0
C217 C 0.04157 0.01251 0.86177 0.0
C218 C 0.068 0.04316 0.77146 0.0
C219 C 0.0713 0.00792 0.99745 0.0
O220 O 0.08622 0.0247 0.74315 0.0
O221 O 0.08853 0.01017 0.86544 0.0
O222 O 0.08126 0.96615 0.82129 0.0
O223 O 0.07181 0.97566 0.81676 0.0
O224 O 0.07586 0.00718 0.67453 0.0
O225 O 0.06624 0.98758 0.68184 0.0
O226 O 0.05619 0.97882 0.88152 0.0
O227 O 0.05342 0.00256 0.78252 0.0
O228 O 0.06277 0.03367 0.74496 0.0
O229 O 0.07055 0.03082 0.82843 0.0
O230 O 0.06575 0.00556 0.95818 0.0
O231 O 0.07682 0.00938 0.95648 0.0
H232 H 0.09791 0.04721 0.69676 0.0
H233 H 0.10913 0.04218 0.65793 0.0
H234 H 0.10967 0.97825 0.7959 0.0
H235 H 0.09836 0.98322 0.83394 0.0
H236 H 0.04568 0.96317 0.96371 0.0
H237 H 0.03492 0.96825 1.02195 0.0
H238 H 0.03252 0.02973 0.87354 0.0
H239 H 0.04327 0.02482 0.81585 0.0
Nd240 Nd 0.69113 0.00482 1.00672 0.0
Nd241 Nd 0.70521 0.00413 1.01684 0.0
C242 C 0.67844 0.00921 1.01589 0.0
C243 C 0.67218 0.00866 0.06079 0.0
C244 C 0.66898 0.02928 0.08049 0.0
C245 C 0.66256 0.02899 0.10691 0.0
C246 C 0.65916 0.00809 0.11298 0.0
C247 C 0.66245 0.98743 0.09713 0.0
C248 C 0.66887 0.9877 0.07152 0.0
C249 C 0.69646 0.9626 0.96521 0.0
C250 C 0.69787 0.99767 0.19208 0.0
C251 C 0.71788 0.9991 1.00353 0.0
C252 C 0.72383 0.9994 0.95147 0.0
C253 C 0.72704 0.97874 0.93275 0.0
C254 C 0.73322 0.97899 0.89752 0.0
C255 C 0.73639 0.99994 0.88025 0.0
C256 C 0.73303 0.02058 0.8954 0.0
C257 C 0.72687 0.02032 0.93079 0.0
C258 C 0.69999 0.04545 0.06779 0.0
C259 C 0.69833 0.01143 0.83144 0.0
O260 O 0.68237 0.02662 1.02464 0.0
O261 O 0.6814 0.9898 1.0021 0.0
O262 O 0.69201 0.9728 0.92302 0.0
O263 O 0.69811 0.97481 1.02737 0.0
O264 O 0.6928 0.00494 0.15031 0.0
O265 O 0.70318 0.99209 0.15186 0.0
O266 O 0.71385 0.98186 0.99775 0.0
O267 O 0.71502 0.01863 1.01908 0.0
O268 O 0.70463 0.03488 0.10507 0.0
O269 O 0.6982 0.03449 1.0028 0.0
O270 O 0.70346 0.00455 0.87284 0.0
O271 O 0.69302 0.01656 0.87199 0.0
H272 H 0.67133 0.04573 0.07171 0.0
H273 H 0.66016 0.04522 0.11818 0.0
H274 H 0.66001 0.97103 0.1023 0.0
H275 H 0.67114 0.97146 0.05639 0.0
H276 H 0.72489 0.96232 0.94874 0.0
H277 H 0.73561 0.96268 0.88763 0.0
H278 H 0.7352 0.03709 0.88138 0.0
H279 H 0.72459 0.03662 0.94461 0.0
Nd280 Nd 0.07981 0.74626 1.01805 0.0
Nd281 Nd 0.06398 0.75011 1.01236 0.0
C282 C 0.09163 0.73005 1.03027 0.0
C283 C 0.09815 0.73535 0.06172 0.0
C284 C 0.10139 0.71871 0.10918 0.0
C285 C 0.1078 0.72198 0.13213 0.0
C286 C 0.11114 0.74196 0.10776 0.0
C287 C 0.10782 0.75901 0.06265 0.0
C288 C 0.10139 0.75577 1.03997 0.0
C289 C 0.07612 0.79207 1.00409 0.0
C290 C 0.07163 0.75305 0.19468 0.0
C291 C 0.05198 0.76445 0.99592 0.0
C292 C 0.04573 0.75937 0.95435 0.0
C293 C 0.04333 0.77471 0.89405 0.0
C294 C 0.03716 0.7719 0.86101 0.0
C295 C 0.03315 0.75378 0.8879 0.0
C296 C 0.03566 0.73791 0.94616 0.0
C297 C 0.04185 0.74068 0.97898 0.0
C298 C 0.06825 0.70466 1.02684 0.0
C299 C 0.07205 0.74309 0.83564 0.0
O300 O 0.08714 0.7256 0.08553 0.0
O301 O 0.08954 0.74164 0.96541 0.0
O302 O 0.082 0.78498 1.01126 0.0
O303 O 0.07243 0.77473 1.00969 0.0
O304 O 0.07714 0.74789 0.1579 0.0
O305 O 0.06625 0.75698 0.15252 0.0
O306 O 0.05671 0.77197 0.94913 0.0
O307 O 0.05389 0.75089 0.05652 0.0
O308 O 0.06225 0.7102 1.02036 0.0
O309 O 0.07144 0.7229 1.02011 0.0
O310 O 0.06656 0.74826 0.8728 0.0
O311 O 0.07744 0.7393 0.87781 0.0
H312 H 0.09902 0.70278 0.12641 0.0
H313 H 0.1102 0.70837 0.16611 0.0
H314 H 0.11021 0.77477 0.04398 0.0
H315 H 0.09901 0.769 1.00382 0.0
H316 H 0.04617 0.78932 0.87378 0.0
H317 H 0.03552 0.78421 0.81495 0.0
H318 H 0.03275 0.72381 0.96914 0.0
H319 H 0.04352 0.72853 1.02547 0.0
Nd320 Nd 0.31454 0.75338 0.76798 0.0
Nd321 Nd 0.3287 0.75278 0.7565 0.0
C322 C 0.30183 0.75021 0.75627 0.0
C323 C 0.29587 0.75021 0.70473 0.0
C324 C 0.29298 0.72945 0.67948 0.0
C325 C 0.28684 0.72932 0.64363 0.0
C326 C 0.28336 0.74995 0.63297 0.0
C327 C 0.28638 0.77076 0.65578 0.0
C328 C 0.29252 0.77088 0.69097 0.0
C329 C 0.32024 0.79443 0.81334 0.0
C330 C 0.32143 0.75929 0.58254 0.0
C331 C 0.34139 0.75766 0.76435 0.0
C332 C 0.34773 0.75555 0.80646 0.0
C333 C 0.35036 0.77399 0.85228 0.0
C334 C 0.35678 0.77351 0.87841 0.0
C335 C 0.36076 0.75472 0.85827 0.0
C336 C 0.35805 0.73593 0.81543 0.0
C337 C 0.35163 0.73633 0.78992 0.0
C338 C 0.32303 0.71075 0.71873 0.0
C339 C 0.32183 0.74639 0.94262 0.0
O340 O 0.30562 0.73225 0.75603 0.0
O341 O 0.30495 0.76957 0.76519 0.0
O342 O 0.31559 0.78472 0.85365 0.0
O343 O 0.32179 0.78273 0.74916 0.0
O344 O 0.31633 0.75211 0.62434 0.0
O345 O 0.32671 0.76492 0.62269 0.0
O346 O 0.33738 0.77393 0.78577 0.0
O347 O 0.3385 0.739 0.73873 0.0
O348 O 0.32782 0.71969 0.6789 0.0
O349 O 0.32145 0.72362 0.7795 0.0
O350 O 0.32703 0.75252 0.90037 0.0
O351 O 0.31642 0.74188 0.90323 0.0
H352 H 0.29537 0.71316 0.68982 0.0
H353 H 0.28478 0.71294 0.62555 0.0
H354 H 0.2839 0.78703 0.65016 0.0
H355 H 0.29453 0.7872 0.71073 0.0
H356 H 0.34753 0.78922 0.86508 0.0
H357 H 0.35871 0.78834 0.9109 0.0
H358 H 0.36093 0.72103 0.79994 0.0
H359 H 0.34982 0.72191 0.75405 0.0
Nd360 Nd 0.95557 0.5009 0.76686 0.0
Nd361 Nd 0.9407 0.49412 0.76495 0.0
C362 C 0.9679 0.51161 0.74813 0.0
C363 C 0.97385 0.50856 0.69735 0.0
C364 C 0.97655 0.52749 0.65517 0.0
C365 C 0.98269 0.52608 0.6197 0.0
C366 C 0.98631 0.50568 0.62546 0.0
C367 C 0.98348 0.48638 0.66407 0.0
C368 C 0.97735 0.48782 0.69989 0.0
C369 C 0.9515 0.45767 0.81525 0.0
C370 C 0.94836 0.49197 0.58433 0.0
C371 C 0.92889 0.47727 0.77812 0.0
C372 C 0.92226 0.48291 0.80598 0.0
C373 C 0.91932 0.46935 0.86808 0.0
C374 C 0.91289 0.47278 0.8902 0.0
C375 C 0.90919 0.48978 0.85033 0.0
C376 C 0.91218 0.50374 0.78942 0.0
C377 C 0.91863 0.50038 0.76758 0.0
C378 C 0.94328 0.54119 0.7531 0.0
C379 C 0.94807 0.50436 0.94377 0.0
O380 O 0.96327 0.52462 0.71994 0.0
O381 O 0.9658 0.4939 0.79035 0.0
O382 O 0.95634 0.46862 0.84605 0.0
O383 O 0.94903 0.46906 0.75519 0.0
O384 O 0.95376 0.49624 0.62479 0.0
O385 O 0.94288 0.48866 0.62448 0.0
O386 O 0.93327 0.47453 0.8358 0.0
O387 O 0.93112 0.48726 0.71049 0.0
O388 O 0.9376 0.53229 0.7571 0.0
O389 O 0.94732 0.52517 0.75944 0.0
O390 O 0.94327 0.49396 0.90521 0.0
O391 O 0.95294 0.51319 0.90078 0.0
H392 H 0.97402 0.54374 0.65243 0.0
H393 H 0.98468 0.54116 0.58928 0.0
H394 H 0.98612 0.47044 0.67023 0.0
H395 H 0.97547 0.4729 0.73248 0.0
H396 H 0.92196 0.45563 0.89823 0.0
H397 H 0.91076 0.46152 0.93664 0.0
H398 H 0.90952 0.51722 0.7582 0.0
H399 H 0.92074 0.5112 0.71957 0.0
Nd400 Nd 0.31475 0.49778 0.56442 0.0
Nd401 Nd 0.32878 0.4971 0.57377 0.0
C402 C 0.30211 0.50352 0.57717 0.0
C403 C 0.29606 0.50152 0.62678 0.0
C404 C 0.29353 0.52061 0.66987 0.0
C405 C 0.28733 0.5199 0.70395 0.0
C406 C 0.28345 0.50011 0.69563 0.0
C407 C 0.28611 0.48071 0.65567 0.0
C408 C 0.2923 0.48146 0.62138 0.0
C409 C 0.31989 0.45624 0.51409 0.0
C410 C 0.32161 0.48959 0.74964 0.0
C411 C 0.34148 0.49365 0.56435 0.0
C412 C 0.34776 0.49395 0.51972 0.0
C413 C 0.35069 0.47342 0.49317 0.0
C414 C 0.35709 0.47339 0.4656 0.0
C415 C 0.36075 0.49385 0.46479 0.0
C416 C 0.3577 0.51448 0.48838 0.0
C417 C 0.35132 0.51452 0.5154 0.0
C418 C 0.32347 0.53889 0.61971 0.0
C419 C 0.322 0.50434 0.38896 0.0
O420 O 0.30625 0.51978 0.5943 0.0
O421 O 0.30484 0.48464 0.55099 0.0
O422 O 0.31525 0.46679 0.47696 0.0
O423 O 0.32174 0.46732 0.57843 0.0
O424 O 0.31639 0.49567 0.70853 0.0
O425 O 0.327 0.48554 0.70906 0.0
O426 O 0.33766 0.47577 0.56013 0.0
O427 O 0.3384 0.51302 0.57323 0.0
O428 O 0.32788 0.52818 0.66086 0.0
O429 O 0.32181 0.52733 0.55584 0.0
O430 O 0.32705 0.49677 0.43028 0.0
O431 O 0.31675 0.51025 0.42994 0.0
H432 H 0.29625 0.53646 0.6744 0.0
H433 H 0.28548 0.53531 0.7335 0.0
H434 H 0.28339 0.46492 0.64943 0.0
H435 H 0.29403 0.46647 0.58801 0.0
H436 H 0.34813 0.45721 0.49648 0.0
H437 H 0.3592 0.45719 0.44653 0.0
H438 H 0.36033 0.53056 0.49002 0.0
H439 H 0.34927 0.53062 0.53673 0.0
Nd440 Nd 0.95537 0.7533 0.55942 0.0
Nd441 Nd 0.94052 0.75498 0.5656 0.0
C442 C 0.96804 0.75168 0.57565 0.0
C443 C 0.97402 0.75038 0.6263 0.0
C444 C 0.97664 0.72927 0.65263 0.0
C445 C 0.98276 0.72842 0.68927 0.0
C446 C 0.98642 0.74864 0.7002 0.0
C447 C 0.9837 0.76975 0.6758 0.0
C448 C 0.97762 0.77058 0.63928 0.0
C449 C 0.94979 0.79423 0.51109 0.0
C450 C 0.94809 0.7571 0.74376 0.0
C451 C 0.92851 0.7697 0.55349 0.0
C452 C 0.92197 0.76494 0.5209 0.0
C453 C 0.9188 0.78229 0.47605 0.0
C454 C 0.91238 0.77971 0.45274 0.0
C455 C 0.90892 0.75968 0.47385 0.0
C456 C 0.91218 0.74183 0.51566 0.0
C457 C 0.91863 0.74446 0.53922 0.0
C458 C 0.94399 0.70914 0.58448 0.0
C459 C 0.948 0.74625 0.38402 0.0
O460 O 0.96455 0.73329 0.56088 0.0
O461 O 0.96465 0.77053 0.58074 0.0
O462 O 0.9545 0.78454 0.47203 0.0
O463 O 0.94814 0.78248 0.57447 0.0
O464 O 0.95336 0.7516 0.70206 0.0
O465 O 0.94272 0.76231 0.70438 0.0
O466 O 0.933 0.77515 0.49961 0.0
O467 O 0.93064 0.75744 0.61639 0.0
O468 O 0.93816 0.71662 0.58003 0.0
O469 O 0.94785 0.72577 0.57451 0.0
O470 O 0.94284 0.75386 0.4238 0.0
O471 O 0.95328 0.7407 0.42516 0.0
H472 H 0.97403 0.71335 0.64299 0.0
H473 H 0.98465 0.71187 0.70814 0.0
H474 H 0.98638 0.78564 0.68171 0.0
H475 H 0.97583 0.7871 0.61824 0.0
H476 H 0.92125 0.79824 0.46099 0.0
H477 H 0.9101 0.79364 0.41913 0.0
H478 H 0.90969 0.72619 0.53325 0.0
H479 H 0.92094 0.73073 0.5737 0.0
Nd480 Nd 0.68995 0.2474 0.31556 0.0
Nd481 Nd 0.70592 0.24939 0.32067 0.0
C482 C 0.67786 0.23337 0.3058 0.0
C483 C 0.67138 0.23809 0.27114 0.0
C484 C 0.6683 0.22088 0.22428 0.0
C485 C 0.66188 0.22322 0.20055 0.0
C486 C 0.65833 0.24287 0.2231 0.0
C487 C 0.6615 0.26068 0.26646 0.0
C488 C 0.66794 0.25827 0.29062 0.0
C489 C 0.69446 0.29252 0.32279 0.0
C490 C 0.69816 0.25238 0.13857 0.0
C491 C 0.71796 0.26361 0.33506 0.0
C492 C 0.72419 0.25923 0.3775 0.0
C493 C 0.72709 0.27713 0.42276 0.0
C494 C 0.73325 0.27459 0.45618 0.0
C495 C 0.73671 0.25394 0.44582 0.0
C496 C 0.73369 0.23571 0.40253 0.0
C497 C 0.72753 0.23834 0.36853 0.0
C498 C 0.70135 0.20445 0.30536 0.0
C499 C 0.69778 0.24336 0.49771 0.0
O500 O 0.68236 0.22634 0.25434 0.0
O501 O 0.68004 0.24667 0.36575 0.0
O502 O 0.68845 0.28709 0.31547 0.0
O503 O 0.69768 0.27414 0.32133 0.0
O504 O 0.69265 0.24736 0.17611 0.0
O505 O 0.70356 0.25647 0.18043 0.0
O506 O 0.71324 0.2719 0.38029 0.0
O507 O 0.71603 0.24907 0.27748 0.0
O508 O 0.70738 0.20967 0.31248 0.0
O509 O 0.69817 0.22282 0.31256 0.0
O510 O 0.70336 0.24732 0.46066 0.0
O511 O 0.69231 0.24079 0.45586 0.0
H512 H 0.67081 0.20515 0.20831 0.0
H513 H 0.65965 0.20934 0.16584 0.0
H514 H 0.65893 0.27603 0.28503 0.0
H515 H 0.67016 0.27189 0.32676 0.0
H516 H 0.72466 0.29349 0.43025 0.0
H517 H 0.73536 0.28925 0.48758 0.0
H518 H 0.7361 0.21935 0.3943 0.0
H519 H 0.72544 0.22414 0.33412 0.0
Nd520 Nd 0.07898 0.50222 0.32378 0.0
Nd521 Nd 0.06437 0.50334 0.32295 0.0
C522 C 0.09162 0.50188 0.30781 0.0
C523 C 0.09809 0.50364 0.26939 0.0
C524 C 0.10078 0.52476 0.24429 0.0
C525 C 0.10722 0.526 0.21875 0.0
C526 C 0.11114 0.50619 0.21848 0.0
C527 C 0.10834 0.48504 0.24179 0.0
C528 C 0.10193 0.48381 0.26669 0.0
C529 C 0.07299 0.46162 0.36963 0.0
C530 C 0.07153 0.50057 0.14146 0.0
C531 C 0.05228 0.48967 0.34033 0.0
C532 C 0.04599 0.49441 0.38124 0.0
C533 C 0.04359 0.47886 0.44107 0.0
C534 C 0.03737 0.48121 0.47316 0.0
C535 C 0.03331 0.49903 0.44558 0.0
C536 C 0.03582 0.51507 0.38764 0.0
C537 C 0.04207 0.51279 0.35594 0.0
C538 C 0.0682 0.54839 0.29596 0.0
C539 C 0.07209 0.51152 0.50236 0.0
O540 O 0.08842 0.52026 0.33091 0.0
O541 O 0.08799 0.48416 0.29049 0.0
O542 O 0.07769 0.47083 0.41008 0.0
O543 O 0.07145 0.47417 0.30812 0.0
O544 O 0.07695 0.50446 0.1818 0.0
O545 O 0.06609 0.49687 0.18213 0.0
O546 O 0.05697 0.4822 0.38741 0.0
O547 O 0.05426 0.50327 0.28005 0.0
O548 O 0.06235 0.54163 0.30743 0.0
O549 O 0.07203 0.53162 0.30626 0.0
O550 O 0.06662 0.50658 0.46466 0.0
O551 O 0.0775 0.51373 0.46008 0.0
H552 H 0.09796 0.54038 0.24607 0.0
H553 H 0.10915 0.54255 0.20011 0.0
H554 H 0.11118 0.46945 0.24415 0.0
H555 H 0.10003 0.46734 0.28704 0.0
H556 H 0.04647 0.46444 0.46166 0.0
H557 H 0.03573 0.46879 0.51905 0.0
H558 H 0.03288 0.52895 0.36396 0.0
H559 H 0.04374 0.52507 0.3097 0.0
Nd560 Nd 0.69097 0.5015 0.51063 0.0
Nd561 Nd 0.70557 0.50136 0.51416 0.0
C562 C 0.67833 0.50225 0.52452 0.0
C563 C 0.67198 0.50424 0.56595 0.0
C564 C 0.66917 0.5257 0.584 0.0
C565 C 0.66272 0.52704 0.60877 0.0
C566 C 0.65894 0.50699 0.61432 0.0
C567 C 0.66184 0.48555 0.59995 0.0
C568 C 0.66827 0.48419 0.57634 0.0
C569 C 0.69664 0.46062 0.46206 0.0
C570 C 0.69823 0.49923 0.6941 0.0
C571 C 0.71762 0.48736 0.49776 0.0
C572 C 0.72391 0.49222 0.45706 0.0
C573 C 0.7265 0.47594 0.40153 0.0
C574 C 0.73269 0.47862 0.36884 0.0
C575 C 0.7365 0.49779 0.39036 0.0
C576 C 0.7338 0.5145 0.44415 0.0
C577 C 0.72761 0.51171 0.47737 0.0
C578 C 0.70195 0.547 0.53523 0.0
C579 C 0.6981 0.51003 0.3337 0.0
O580 O 0.68168 0.52053 0.50403 0.0
O581 O 0.68181 0.48402 0.5392 0.0
O582 O 0.69204 0.47065 0.42227 0.0
O583 O 0.69829 0.4725 0.52517 0.0
O584 O 0.69288 0.50362 0.65304 0.0
O585 O 0.70365 0.49493 0.65425 0.0
O586 O 0.71295 0.48016 0.44993 0.0
O587 O 0.71566 0.50079 0.55851 0.0
O588 O 0.70779 0.53989 0.52672 0.0
O589 O 0.6981 0.53025 0.52594 0.0
O590 O 0.70336 0.50328 0.37258 0.0
O591 O 0.69277 0.51423 0.37582 0.0
H592 H 0.67188 0.54148 0.57585 0.0
H593 H 0.6606 0.54381 0.6193 0.0
H594 H 0.65907 0.4698 0.60459 0.0
H595 H 0.67026 0.46741 0.56221 0.0
H596 H 0.7238 0.46064 0.3852 0.0
H597 H 0.73454 0.46511 0.32898 0.0
H598 H 0.73648 0.52976 0.46125 0.0
H599 H 0.72577 0.52463 0.51998 0.0
Nd600 Nd 0.07865 0.24847 0.50985 0.0
Nd601 Nd 0.06455 0.2486 0.5203 0.0
C602 C 0.09136 0.24535 0.51823 0.0
C603 C 0.09767 0.24497 0.56166 0.0
C604 C 0.10056 0.22413 0.58551 0.0
C605 C 0.10697 0.22367 0.6122 0.0
C606 C 0.11068 0.24399 0.61477 0.0
C607 C 0.10768 0.2649 0.59362 0.0
C608 C 0.10129 0.26536 0.56757 0.0
C609 C 0.07329 0.29015 0.46368 0.0
C610 C 0.07181 0.25503 0.69512 0.0
C611 C 0.05185 0.25266 0.50778 0.0
C612 C 0.04586 0.252 0.45671 0.0
C613 C 0.04324 0.27216 0.42199 0.0
C614 C 0.0371 0.27201 0.38597 0.0
C615 C 0.03333 0.25177 0.38469 0.0
C616 C 0.03608 0.23149 0.41738 0.0
C617 C 0.04222 0.23161 0.45255 0.0
C618 C 0.06993 0.2072 0.57008 0.0
C619 C 0.07144 0.24151 0.33476 0.0
O620 O 0.08759 0.22728 0.51793 0.0
O621 O 0.08822 0.26474 0.51477 0.0
O622 O 0.07781 0.27969 0.42352 0.0
O623 O 0.07155 0.27842 0.527 0.0
O624 O 0.07688 0.24768 0.65321 0.0
O625 O 0.06652 0.26072 0.65507 0.0
O626 O 0.05578 0.27022 0.50262 0.0
O627 O 0.05483 0.23331 0.52186 0.0
O628 O 0.06516 0.2173 0.60639 0.0
O629 O 0.07168 0.21858 0.5058 0.0
O630 O 0.06629 0.24815 0.37642 0.0
O631 O 0.07679 0.23676 0.37491 0.0
H632 H 0.09795 0.20805 0.58092 0.0
H633 H 0.10904 0.20726 0.62936 0.0
H634 H 0.11034 0.28091 0.59322 0.0
H635 H 0.09927 0.2817 0.54825 0.0
H636 H 0.04586 0.28826 0.42476 0.0
H637 H 0.03528 0.28795 0.36019 0.0
H638 H 0.03339 0.21556 0.41945 0.0
H639 H 0.04401 0.2158 0.4798 0.0
Nd640 Nd 0.81435 0.25121 0.75908 0.0
Nd641 Nd 0.82886 0.25127 0.75886 0.0
C642 C 0.80232 0.23701 0.74049 0.0
C643 C 0.79603 0.24215 0.70085 0.0
C644 C 0.79345 0.22648 0.64276 0.0
C645 C 0.78726 0.22941 0.61096 0.0
C646 C 0.78342 0.24798 0.63714 0.0
C647 C 0.78606 0.26403 0.69367 0.0
C648 C 0.79229 0.2612 0.725 0.0
C649 C 0.81779 0.29658 0.78717 0.0
C650 C 0.82208 0.26041 0.58012 0.0
C651 C 0.84145 0.25126 0.77732 0.0
C652 C 0.84806 0.25316 0.81047 0.0
C653 C 0.85067 0.27407 0.83904 0.0
C654 C 0.85717 0.27544 0.8616 0.0
C655 C 0.86119 0.25604 0.85472 0.0
C656 C 0.85849 0.23506 0.82842 0.0
C657 C 0.85202 0.23366 0.8068 0.0
C658 C 0.82324 0.21005 0.70993 0.0
C659 C 0.82136 0.24899 0.94085 0.0
O660 O 0.80702 0.2305 0.69161 0.0
O661 O 0.80425 0.24981 0.80313 0.0
O662 O 0.81202 0.28921 0.77521 0.0
O663 O 0.82179 0.28029 0.77702 0.0
O664 O 0.81664 0.25495 0.61765 0.0
O665 O 0.82745 0.26297 0.62264 0.0
O666 O 0.83828 0.26935 0.75102 0.0
O667 O 0.83783 0.23369 0.79722 0.0
O668 O 0.82799 0.21997 0.6723 0.0
O669 O 0.82152 0.22226 0.77179 0.0
O670 O 0.82673 0.25369 0.90043 0.0
O671 O 0.81599 0.24455 0.90004 0.0
H672 H 0.79618 0.21151 0.62363 0.0
H673 H 0.78537 0.2166 0.56826 0.0
H674 H 0.78326 0.27868 0.71436 0.0
H675 H 0.79411 0.27364 0.76952 0.0
H676 H 0.84774 0.2894 0.84231 0.0
H677 H 0.8591 0.29187 0.88154 0.0
H678 H 0.86141 0.2197 0.8237 0.0
H679 H 0.85015 0.21733 0.7848 0.0
Nd680 Nd 0.45514 0.99759 0.76564 0.0
Nd681 Nd 0.44095 0.99905 0.75794 0.0
C682 C 0.46783 0.00131 0.75183 0.0
C683 C 0.47381 0.00104 0.70029 0.0
C684 C 0.47678 0.02173 0.67555 0.0
C685 C 0.48296 0.02171 0.64053 0.0
C686 C 0.48638 0.00099 0.62963 0.0
C687 C 0.48327 0.98022 0.65109 0.0
C688 C 0.47711 0.98026 0.68622 0.0
C689 C 0.44946 0.95723 0.81774 0.0
C690 C 0.44798 0.99129 0.58127 0.0
C691 C 0.42823 0.99697 0.76809 0.0
C692 C 0.42186 0.99594 0.81041 0.0
C693 C 0.41887 0.97478 0.82829 0.0
C694 C 0.41243 0.97398 0.85406 0.0
C695 C 0.40878 0.99433 0.8618 0.0
C696 C 0.41188 0.0155 0.84651 0.0
C697 C 0.4183 0.01628 0.82125 0.0
C698 C 0.44683 0.03998 0.71318 0.0
C699 C 0.448 0.00448 0.94221 0.0
O700 O 0.46397 0.01904 0.74887 0.0
O701 O 0.4648 0.9819 0.76425 0.0
O702 O 0.45431 0.96685 0.85372 0.0
O703 O 0.44771 0.96852 0.75349 0.0
O704 O 0.45332 0.99636 0.6219 0.0
O705 O 0.44254 0.98825 0.62177 0.0
O706 O 0.43184 0.97864 0.76138 0.0
O707 O 0.43152 0.01612 0.77065 0.0
O708 O 0.44219 0.03047 0.6723 0.0
O709 O 0.44836 0.02779 0.77586 0.0
O710 O 0.44278 0.99818 0.9012 0.0
O711 O 0.45336 0.00913 0.90141 0.0
H712 H 0.47443 0.03809 0.68643 0.0
H713 H 0.48516 0.03811 0.62567 0.0
H714 H 0.48564 0.96383 0.64219 0.0
H715 H 0.47503 0.96396 0.7051 0.0
H716 H 0.42143 0.95874 0.81976 0.0
H717 H 0.41028 0.95734 0.86657 0.0
H718 H 0.40927 0.03156 0.85026 0.0
H719 H 0.4204 0.03288 0.80653 0.0
Nd720 Nd 0.81452 1.00007 0.56572 0.0
Nd721 Nd 0.8287 0.99376 0.57133 0.0
C722 C 0.80221 0.01136 0.58589 0.0
C723 C 0.79609 0.00737 0.63241 0.0
C724 C 0.79326 0.02549 0.67769 0.0
C725 C 0.78704 0.02332 0.7108 0.0
C726 C 0.78345 0.00302 0.69872 0.0
C727 C 0.78638 0.9846 0.65595 0.0
C728 C 0.79261 0.98672 0.6234 0.0
C729 C 0.81833 0.95634 0.52002 0.0
C730 C 0.8214 0.98885 0.74812 0.0
C731 C 0.84102 0.98228 0.55325 0.0
C732 C 0.84748 0.98717 0.51701 0.0
C733 C 0.85061 0.97009 0.46972 0.0
C734 C 0.85708 0.9726 0.44673 0.0
C735 C 0.86057 0.99215 0.47132 0.0
C736 C 0.85741 0.00959 0.51617 0.0
C737 C 0.85093 0.0072 0.53846 0.0
C738 C 0.82483 0.03825 0.60853 0.0
C739 C 0.82182 0.00441 0.3885 0.0
O740 O 0.8069 0.02244 0.62229 0.0
O741 O 0.80426 0.99521 0.53574 0.0
O742 O 0.81364 0.96761 0.48728 0.0
O743 O 0.82073 0.96742 0.58121 0.0
O744 O 0.8164 0.99746 0.70858 0.0
O745 O 0.82649 0.98191 0.70592 0.0
O746 O 0.83648 0.97405 0.50566 0.0
O747 O 0.83883 0.99594 0.61148 0.0
O748 O 0.82952 0.02757 0.64382 0.0
O749 O 0.8225 0.02609 0.55012 0.0
O750 O 0.82677 0.99561 0.4287 0.0
O751 O 0.81674 0.01178 0.43042 0.0
H752 H 0.79576 0.04174 0.68484 0.0
H753 H 0.78495 0.03794 0.74276 0.0
H754 H 0.78381 0.96859 0.64649 0.0
H755 H 0.7946 0.97237 0.5888 0.0
H756 H 0.84814 0.95432 0.45335 0.0
H757 H 0.85942 0.95884 0.41267 0.0
H758 H 0.86 0.02484 0.53575 0.0
H759 H 0.8487 0.02067 0.57518 0.0
Nd760 Nd 0.45503 0.25237 0.56413 0.0
Nd761 Nd 0.44086 0.25335 0.5744 0.0
C762 C 0.46765 0.24606 0.57742 0.0
C763 C 0.47368 0.24836 0.62701 0.0
C764 C 0.47624 0.22938 0.67033 0.0
C765 C 0.48242 0.23027 0.70477 0.0
C766 C 0.48627 0.25016 0.69656 0.0
C767 C 0.48358 0.26946 0.65622 0.0
C768 C 0.47742 0.26853 0.62164 0.0
C769 C 0.44978 0.2944 0.52112 0.0
C770 C 0.4481 0.26019 0.74967 0.0
C771 C 0.4282 0.25804 0.56534 0.0
C772 C 0.422 0.25759 0.51952 0.0
C773 C 0.41898 0.27821 0.49598 0.0
C774 C 0.41261 0.27814 0.46804 0.0
C775 C 0.40907 0.25747 0.46375 0.0
C776 C 0.41221 0.23676 0.4838 0.0
C777 C 0.41857 0.23682 0.51131 0.0
C778 C 0.44606 0.21128 0.61702 0.0
C779 C 0.44771 0.24666 0.38907 0.0
O780 O 0.46343 0.23031 0.59746 0.0
O781 O 0.46501 0.26469 0.54762 0.0
O782 O 0.45459 0.28497 0.48343 0.0
O783 O 0.44803 0.28237 0.58342 0.0
O784 O 0.4533 0.25382 0.70821 0.0
O785 O 0.44274 0.26476 0.70947 0.0
O786 O 0.43217 0.27538 0.55681 0.0
O787 O 0.43112 0.23856 0.5791 0.0
O788 O 0.44156 0.22162 0.65786 0.0
O789 O 0.44783 0.22323 0.55435 0.0
O790 O 0.44265 0.25412 0.43101 0.0
O791 O 0.45296 0.24053 0.42924 0.0
H792 H 0.47355 0.21345 0.67481 0.0
H793 H 0.48428 0.21494 0.73457 0.0
H794 H 0.48628 0.2853 0.64996 0.0
H795 H 0.47566 0.28346 0.58818 0.0
H796 H 0.42144 0.29454 0.5023 0.0
H797 H 0.41042 0.29442 0.45167 0.0
H798 H 0.40966 0.2205 0.48246 0.0
H799 H 0.42069 0.22061 0.53003 0.0
Nd800 Nd 0.19113 0.74925 0.32177 0.0
Nd801 Nd 0.20515 0.74876 0.31339 0.0
C802 C 0.17844 0.74593 0.31228 0.0
C803 C 0.17219 0.74553 0.26777 0.0
C804 C 0.16917 0.72458 0.24793 0.0
C805 C 0.16277 0.72417 0.22098 0.0
C806 C 0.15921 0.7447 0.21404 0.0
C807 C 0.16234 0.76569 0.23074 0.0
C808 C 0.16872 0.76609 0.2572 0.0
C809 C 0.19648 0.79045 0.37442 0.0
C810 C 0.19811 0.75666 0.13725 0.0
C811 C 0.21785 0.75117 0.3277 0.0
C812 C 0.2238 0.75176 0.37943 0.0
C813 C 0.22688 0.77275 0.39748 0.0
C814 C 0.23305 0.77305 0.43251 0.0
C815 C 0.23629 0.75239 0.45048 0.0
C816 C 0.2331 0.73144 0.43571 0.0
C817 C 0.22696 0.73112 0.40025 0.0
C818 C 0.19964 0.70829 0.25743 0.0
C819 C 0.19815 0.74149 0.49764 0.0
O820 O 0.18221 0.72794 0.31213 0.0
O821 O 0.18157 0.76538 0.31694 0.0
O822 O 0.19188 0.77956 0.41164 0.0
O823 O 0.19834 0.77933 0.31012 0.0
O824 O 0.19285 0.75055 0.17801 0.0
O825 O 0.2035 0.76055 0.17797 0.0
O826 O 0.2142 0.76942 0.3217 0.0
O827 O 0.21461 0.73195 0.3242 0.0
O828 O 0.20433 0.71887 0.22106 0.0
O829 O 0.19792 0.71892 0.3234 0.0
O830 O 0.20332 0.74831 0.45673 0.0
O831 O 0.19282 0.73696 0.45668 0.0
H832 H 0.17166 0.70839 0.25621 0.0
H833 H 0.16058 0.70768 0.20731 0.0
H834 H 0.15978 0.78186 0.22746 0.0
H835 H 0.17084 0.78254 0.27328 0.0
H836 H 0.22464 0.78897 0.38162 0.0
H837 H 0.23534 0.7895 0.44398 0.0
H838 H 0.23547 0.7152 0.44785 0.0
H839 H 0.22481 0.7146 0.38591 0.0
Nd840 Nd 0.5787 0.00296 0.32279 0.0
Nd841 Nd 0.56402 0.00128 0.31714 0.0
C842 C 0.59133 0.00308 0.30712 0.0
C843 C 0.59789 0.00482 0.27162 0.0
C844 C 0.60053 0.02559 0.24239 0.0
C845 C 0.60699 0.0266 0.21685 0.0
C846 C 0.61095 0.00693 0.22103 0.0
C847 C 0.6082 0.98618 0.24952 0.0
C848 C 0.60178 0.98515 0.27392 0.0
C849 C 0.57311 0.96129 0.3656 0.0
C850 C 0.57151 1.0007 0.13974 0.0
C851 C 0.55201 0.98672 0.33364 0.0
C852 C 0.54571 0.99186 0.37354 0.0
C853 C 0.54293 0.97544 0.42712 0.0
C854 C 0.53675 0.97863 0.4598 0.0
C855 C 0.53316 0.99831 0.43928 0.0
C856 C 0.53601 0.01507 0.38722 0.0
C857 C 0.54221 0.01192 0.35487 0.0
C858 C 0.56739 0.04709 0.29432 0.0
C859 C 0.57147 0.01033 0.49838 0.0
O860 O 0.58811 0.02127 0.33189 0.0
O861 O 0.58772 0.98547 0.28751 0.0
O862 O 0.57759 0.97122 0.40817 0.0
O863 O 0.57155 0.97367 0.30382 0.0
O864 O 0.57658 0.00789 0.18187 0.0
O865 O 0.56631 0.99332 0.17891 0.0
O866 O 0.55668 0.98008 0.38259 0.0
O867 O 0.55398 0.9997 0.27152 0.0
O868 O 0.56159 0.03945 0.30172 0.0
O869 O 0.57133 0.03076 0.30511 0.0
O870 O 0.56632 0.00273 0.45891 0.0
O871 O 0.57676 0.01562 0.45688 0.0
H872 H 0.59765 0.04107 0.2402 0.0
H873 H 0.60886 0.04285 0.19421 0.0
H874 H 0.61105 0.97073 0.25593 0.0
H875 H 0.5999 0.96897 0.29735 0.0
H876 H 0.54547 0.95973 0.44215 0.0
H877 H 0.53471 0.96523 0.49883 0.0
H878 H 0.53342 0.03059 0.371 0.0
H879 H 0.54422 0.025 0.31407 0.0
Nd880 Nd 0.19008 0.00381 0.51786 0.0
Nd881 Nd 0.20609 0.00315 0.51099 0.0
C882 C 0.17798 0.01735 0.5282 0.0
C883 C 0.17148 0.01294 0.56327 0.0
C884 C 0.16831 0.03089 0.60495 0.0
C885 C 0.16187 0.02869 0.62823 0.0
C886 C 0.15841 0.00845 0.61042 0.0
C887 C 0.16168 0.98998 0.57239 0.0
C888 C 0.16814 0.99223 0.54863 0.0
C889 C 0.195 0.95936 0.50823 0.0
C890 C 0.19833 0.99917 0.69412 0.0
C891 C 0.21809 0.9888 0.49619 0.0
C892 C 0.22431 0.99275 0.45277 0.0
C893 C 0.22724 0.97434 0.41059 0.0
C894 C 0.23342 0.97657 0.37717 0.0
C895 C 0.2369 0.99727 0.38568 0.0
C896 C 0.23384 0.01603 0.42519 0.0
C897 C 0.22763 0.0138 0.45829 0.0
C898 C 0.20137 0.04772 0.52572 0.0
C899 C 0.19785 0.00834 0.33472 0.0
O900 O 0.18247 0.02487 0.57867 0.0
O901 O 0.18015 0.00359 0.46955 0.0
O902 O 0.18891 0.96373 0.51288 0.0
O903 O 0.19797 0.97821 0.51218 0.0
O904 O 0.1927 0.00251 0.65777 0.0
O905 O 0.20381 0.9969 0.65187 0.0
O906 O 0.21335 0.9802 0.45237 0.0
O907 O 0.21621 0.00384 0.55242 0.0
O908 O 0.20741 0.04282 0.51711 0.0
O909 O 0.1982 0.0292 0.51975 0.0
O910 O 0.20345 0.00475 0.37141 0.0
O911 O 0.19238 0.01068 0.37718 0.0
H912 H 0.17075 0.04703 0.617 0.0
H913 H 0.15955 0.04311 0.65876 0.0
H914 H 0.15917 0.97416 0.55758 0.0
H915 H 0.17045 0.97806 0.51647 0.0
H916 H 0.2248 0.95792 0.40522 0.0
H917 H 0.23549 0.96188 0.34544 0.0
H918 H 0.23632 0.03224 0.43357 0.0
H919 H 0.22551 0.02838 0.49024 0.0
Nd920 Nd 0.57871 0.74874 0.51157 0.0
Nd921 Nd 0.564 0.74994 0.515 0.0
C922 C 0.59133 0.74761 0.52572 0.0
C923 C 0.59777 0.74626 0.56442 0.0
C924 C 0.6003 0.72567 0.59685 0.0
C925 C 0.60675 0.72457 0.62153 0.0
C926 C 0.61079 0.74388 0.61249 0.0
C927 C 0.60817 0.76458 0.58303 0.0
C928 C 0.60174 0.76577 0.55969 0.0
C929 C 0.57331 0.78995 0.46266 0.0
C930 C 0.57134 0.75184 0.69492 0.0
C931 C 0.55201 0.7645 0.4981 0.0
C932 C 0.54574 0.75979 0.45719 0.0
C933 C 0.54307 0.77661 0.40465 0.0
C934 C 0.5369 0.77395 0.37194 0.0
C935 C 0.53316 0.75443 0.39138 0.0
C936 C 0.53593 0.73715 0.44169 0.0
C937 C 0.54214 0.73981 0.47427 0.0
C938 C 0.56748 0.70416 0.53518 0.0
C939 C 0.57154 0.7408 0.33468 0.0
O940 O 0.58793 0.72914 0.50898 0.0
O941 O 0.5879 0.76614 0.53757 0.0
O942 O 0.57793 0.77967 0.42387 0.0
O943 O 0.57149 0.77811 0.5253 0.0
O944 O 0.57669 0.74715 0.65392 0.0
O945 O 0.56593 0.7563 0.65513 0.0
O946 O 0.55674 0.7715 0.45041 0.0
O947 O 0.5539 0.75104 0.55906 0.0
O948 O 0.56165 0.71142 0.52737 0.0
O949 O 0.57134 0.72083 0.52602 0.0
O950 O 0.56631 0.74786 0.37367 0.0
O951 O 0.57686 0.73624 0.37658 0.0
H952 H 0.59736 0.71032 0.60077 0.0
H953 H 0.60866 0.70838 0.64395 0.0
H954 H 0.61115 0.77977 0.57611 0.0
H955 H 0.59995 0.78183 0.53445 0.0
H956 H 0.54572 0.79219 0.39029 0.0
H957 H 0.53503 0.78742 0.33198 0.0
H958 H 0.53323 0.72191 0.45863 0.0
H959 H 0.54405 0.72647 0.51451 0.0
Nd960 Nd 0.8139 0.75009 0.26764 0.0
Nd961 Nd 0.8292 0.75709 0.26596 0.0
C962 C 0.80203 0.73418 0.24978 0.0
C963 C 0.79574 0.73862 0.20832 0.0
C964 C 0.79274 0.72065 0.16431 0.0
C965 C 0.78656 0.7233 0.13165 0.0
C966 C 0.78318 0.74409 0.14157 0.0
C967 C 0.78627 0.76246 0.18284 0.0
C968 C 0.79246 0.75972 0.21628 0.0
C969 C 0.81712 0.79693 0.27765 0.0
C970 C 0.82151 0.75942 0.09013 0.0
C971 C 0.84129 0.77109 0.28387 0.0
C972 C 0.84784 0.76608 0.31539 0.0
C973 C 0.85137 0.78396 0.35225 0.0
C974 C 0.85779 0.7808 0.37455 0.0
C975 C 0.86089 0.75958 0.36073 0.0
C976 C 0.85729 0.74146 0.32521 0.0
C977 C 0.85084 0.74467 0.30278 0.0
C978 C 0.8251 0.71278 0.23154 0.0
C979 C 0.82159 0.74935 0.44745 0.0
O980 O 0.80683 0.72758 0.20258 0.0
O981 O 0.80381 0.74771 0.31122 0.0
O982 O 0.81129 0.78922 0.2751 0.0
O983 O 0.82075 0.7799 0.26899 0.0
O984 O 0.81671 0.74892 0.12858 0.0
O985 O 0.82631 0.76879 0.13269 0.0
O986 O 0.83676 0.77593 0.33772 0.0
O987 O 0.8392 0.75945 0.21944 0.0
O988 O 0.83039 0.72185 0.20484 0.0
O989 O 0.82247 0.7261 0.28457 0.0
O990 O 0.82692 0.75509 0.40725 0.0
O991 O 0.8162 0.74403 0.40765 0.0
H992 H 0.79514 0.70423 0.15685 0.0
H993 H 0.78438 0.70892 0.09912 0.0
H994 H 0.78382 0.77869 0.19188 0.0
H995 H 0.79462 0.77396 0.2498 0.0
H996 H 0.84921 0.80072 0.36167 0.0
H997 H 0.86039 0.79532 0.40024 0.0
H998 H 0.85946 0.7248 0.31444 0.0
H999 H 0.84825 0.73055 0.27425 0.0
Nd1000 Nd 0.45524 0.49898 0.26865 0.0
Nd1001 Nd 0.44043 0.49607 0.26642 0.0
C1002 C 0.46786 0.50341 0.25235 0.0
C1003 C 0.47377 0.50343 0.19963 0.0
C1004 C 0.47678 0.52416 0.1764 0.0
C1005 C 0.48294 0.52409 0.14074 0.0
C1006 C 0.48628 0.50327 0.12807 0.0
C1007 C 0.48312 0.48252 0.14768 0.0
C1008 C 0.47698 0.4826 0.18316 0.0
C1009 C 0.45011 0.45782 0.32227 0.0
C1010 C 0.4479 0.49342 0.08572 0.0
C1011 C 0.42851 0.4803 0.2784 0.0
C1012 C 0.42193 0.48514 0.30892 0.0
C1013 C 0.41855 0.46766 0.35075 0.0
C1014 C 0.41212 0.47062 0.37319 0.0
C1015 C 0.40887 0.49118 0.35416 0.0
C1016 C 0.41232 0.50899 0.31423 0.0
C1017 C 0.41878 0.50602 0.29191 0.0
C1018 C 0.44361 0.5424 0.25242 0.0
C1019 C 0.4479 0.50547 0.44612 0.0
O1020 O 0.46398 0.52117 0.25332 0.0
O1021 O 0.46488 0.48381 0.26227 0.0
O1022 O 0.45481 0.46841 0.35808 0.0
O1023 O 0.44818 0.4689 0.25846 0.0
O1024 O 0.45333 0.4972 0.126 0.0
O1025 O 0.44243 0.4904 0.12597 0.0
O1026 O 0.43294 0.47592 0.33402 0.0
O1027 O 0.43067 0.49202 0.21414 0.0
O1028 O 0.43783 0.5344 0.2583 0.0
O1029 O 0.44757 0.526 0.25883 0.0
O1030 O 0.44275 0.49743 0.40764 0.0
O1031 O 0.45312 0.51133 0.4036 0.0
H1032 H 0.47449 0.54053 0.18902 0.0
H1033 H 0.4852 0.54046 0.12697 0.0
H1034 H 0.48544 0.4661 0.13731 0.0
H1035 H 0.47487 0.46624 0.20074 0.0
H1036 H 0.42085 0.45134 0.36408 0.0
H1037 H 0.40963 0.45639 0.40282 0.0
H1038 H 0.41001 0.52519 0.29966 0.0
H1039 H 0.42126 0.51987 0.25998 0.0
Nd1040 Nd 0.81405 0.50261 0.07062 0.0
Nd1041 Nd 0.82885 0.49916 0.0714 0.0
C1042 C 0.80212 0.51759 0.09085 0.0
C1043 C 0.7958 0.51191 0.12939 0.0
C1044 C 0.7933 0.52635 0.19216 0.0
C1045 C 0.78711 0.52286 0.22413 0.0
C1046 C 0.78321 0.50498 0.19352 0.0
C1047 C 0.78577 0.49016 0.13208 0.0
C1048 C 0.79199 0.49353 0.10055 0.0
C1049 C 0.81715 0.45647 0.04527 0.0
C1050 C 0.82181 0.49337 0.24952 0.0
C1051 C 0.84122 0.49563 1.03901 0.0
C1052 C 0.84821 0.49513 1.02179 0.0
C1053 C 0.8513 0.47454 0.99964 0.0
C1054 C 0.85786 0.47447 0.97974 0.0
C1055 C 0.86149 0.49493 0.983 0.0
C1056 C 0.85837 0.51547 1.00602 0.0
C1057 C 0.85181 0.51559 1.02448 0.0
C1058 C 0.82393 0.54173 0.11775 0.0
C1059 C 0.82118 0.5022 0.89155 0.0
O1060 O 0.80683 0.52296 0.14129 0.0
O1061 O 0.80404 0.50582 1.02539 0.0
O1062 O 0.8114 0.46442 0.05392 0.0
O1063 O 0.8211 0.47275 0.05628 0.0
O1064 O 0.81665 0.5011 0.21082 0.0
O1065 O 0.82705 0.48762 0.2076 0.0
O1066 O 0.83808 0.47923 0.07822 0.0
O1067 O 0.83777 0.51348 1.01787 0.0
O1068 O 0.82876 0.53166 0.15262 0.0
O1069 O 0.82189 0.52944 0.0577 0.0
O1070 O 0.82618 0.49411 0.93266 0.0
O1071 O 0.81615 0.51051 0.93186 0.0
H1072 H 0.79608 0.54079 0.21513 0.0
H1073 H 0.78529 0.53475 0.27071 0.0
H1074 H 0.78292 0.47605 0.10783 0.0
H1075 H 0.79375 0.48202 0.0524 0.0
H1076 H 0.84863 0.45856 0.99643 0.0
H1077 H 0.8601 0.45833 0.96273 0.0
H1078 H 0.861 0.53157 1.00842 0.0
H1079 H 0.84955 0.53174 0.04108 0.0
Nd1080 Nd 0.45538 0.75334 0.0613 0.0
Nd1081 Nd 0.44044 0.75493 0.06468 0.0
C1082 C 0.46803 0.75206 0.07975 0.0
C1083 C 0.47403 0.75019 0.13011 0.0
C1084 C 0.47698 0.72886 0.14575 0.0
C1085 C 0.48312 0.72786 0.18158 0.0
C1086 C 0.48648 0.74817 0.20239 0.0
C1087 C 0.48343 0.76942 0.18878 0.0
C1088 C 0.47732 0.77041 0.15305 0.0
C1089 C 0.44978 0.79468 1.01734 0.0
C1090 C 0.44792 0.75507 0.24393 0.0
C1091 C 0.4284 0.76951 0.05468 0.0
C1092 C 0.4218 0.76467 1.02429 0.0
C1093 C 0.41878 0.78074 0.97184 0.0
C1094 C 0.41232 0.77821 0.94988 0.0
C1095 C 0.40867 0.75953 0.98007 0.0
C1096 C 0.41176 0.74305 1.03073 0.0
C1097 C 0.41824 0.74559 0.05263 0.0
C1098 C 0.44404 0.70893 0.07425 0.0
C1099 C 0.44816 0.74771 0.88435 0.0
O1100 O 0.46465 0.73379 0.0597 0.0
O1101 O 0.46455 0.77056 0.08918 0.0
O1102 O 0.45461 0.78565 0.97875 0.0
O1103 O 0.44806 0.78218 0.0784 0.0
O1104 O 0.45313 0.74886 0.20233 0.0
O1105 O 0.44267 0.76163 0.20439 0.0
O1106 O 0.43282 0.77478 0.99938 0.0
O1107 O 0.43063 0.75748 0.11763 0.0
O1108 O 0.43818 0.71609 0.06957 0.0
O1109 O 0.44781 0.72595 0.0691 0.0
O1110 O 0.44305 0.75609 0.92319 0.0
O1111 O 0.45333 0.74124 0.92619 0.0
H1112 H 0.47463 0.71295 0.12817 0.0
H1113 H 0.48528 0.71116 0.192 0.0
H1114 H 0.48587 0.78546 0.20252 0.0
H1115 H 0.47528 0.78719 0.14036 0.0
H1116 H 0.42137 0.79574 0.94975 0.0
H1117 H 0.41014 0.79142 0.91166 0.0
H1118 H 0.40916 0.72824 0.05411 0.0
H1119 H 0.4204 0.73286 0.09316 0.0
Nd1120 Nd 0.19066 0.24484 0.82434 0.0
Nd1121 Nd 0.20467 0.24944 0.81415 0.0
C1122 C 0.17821 0.23515 0.81109 0.0
C1123 C 0.1719 0.23898 0.77018 0.0
C1124 C 0.16873 0.22038 0.73195 0.0
C1125 C 0.16233 0.22229 0.70675 0.0
C1126 C 0.15889 0.24283 0.71988 0.0
C1127 C 0.16216 0.2618 0.75459 0.0
C1128 C 0.16857 0.25992 0.77939 0.0
C1129 C 0.19491 0.28877 0.86426 0.0
C1130 C 0.19732 0.25532 0.63953 0.0
C1131 C 0.21718 0.25806 0.82858 0.0
C1132 C 0.22327 0.25479 0.87608 0.0
C1133 C 0.22511 0.26986 0.94074 0.0
C1134 C 0.23126 0.26853 0.97628 0.0
C1135 C 0.23579 0.25231 0.94733 0.0
C1136 C 0.23384 0.23693 0.8839 0.0
C1137 C 0.2277 0.23812 0.84918 0.0
C1138 C 0.20027 0.20638 0.76752 0.0
C1139 C 0.198 0.239 0.99866 0.0
O1140 O 0.18266 0.22346 0.77221 0.0
O1141 O 0.18054 0.25144 0.85829 0.0
O1142 O 0.19042 0.27769 0.90286 0.0
O1143 O 0.19702 0.27695 0.80325 0.0
O1144 O 0.19234 0.24696 0.68088 0.0
O1145 O 0.2025 0.26194 0.68032 0.0
O1146 O 0.21275 0.27184 0.85748 0.0
O1147 O 0.2148 0.24034 0.78924 0.0
O1148 O 0.20472 0.21781 0.72955 0.0
O1149 O 0.19827 0.21732 0.83146 0.0
O1150 O 0.20297 0.2476 0.95778 0.0
O1151 O 0.19287 0.2322 0.95746 0.0
H1152 H 0.17113 0.20395 0.72498 0.0
H1153 H 0.15997 0.20727 0.68084 0.0
H1154 H 0.1597 0.278 0.76436 0.0
H1155 H 0.17084 0.27462 0.80872 0.0
H1156 H 0.22186 0.28309 0.96259 0.0
H1157 H 0.23246 0.28046 1.02591 0.0
H1158 H 0.23713 0.22443 0.85799 0.0
H1159 H 0.22651 0.22645 0.79858 0.0
Nd1160 Nd 0.57885 0.50319 0.82774 0.0
Nd1161 Nd 0.56396 0.50117 0.82313 0.0
C1162 C 0.59143 0.50388 0.80982 0.0
C1163 C 0.59789 0.50589 0.77193 0.0
C1164 C 0.60055 0.52703 0.74686 0.0
C1165 C 0.60697 0.52825 0.72015 0.0
C1166 C 0.61087 0.5084 0.71907 0.0
C1167 C 0.6081 0.48727 0.74296 0.0
C1168 C 0.60171 0.48605 0.76855 0.0
C1169 C 0.57342 0.46128 0.8723 0.0
C1170 C 0.57147 0.50049 0.64552 0.0
C1171 C 0.55193 0.48701 0.83986 0.0
C1172 C 0.54563 0.49239 0.8789 0.0
C1173 C 0.5428 0.47616 0.93288 0.0
C1174 C 0.53662 0.47956 0.96482 0.0
C1175 C 0.53307 0.49923 0.94305 0.0
C1176 C 0.53596 0.51579 0.8906 0.0
C1177 C 0.54217 0.51245 0.85902 0.0
C1178 C 0.56779 0.547 0.80005 0.0
C1179 C 0.57157 0.50964 1.00455 0.0
O1180 O 0.58821 0.52194 0.83587 0.0
O1181 O 0.58786 0.48618 0.79032 0.0
O1182 O 0.57811 0.47125 0.91072 0.0
O1183 O 0.57162 0.47369 0.81133 0.0
O1184 O 0.57649 0.50844 0.68708 0.0
O1185 O 0.56636 0.49242 0.68522 0.0
O1186 O 0.55656 0.48055 0.88965 0.0
O1187 O 0.55394 0.49971 0.77717 0.0
O1188 O 0.56189 0.54009 0.80247 0.0
O1189 O 0.57129 0.52972 0.8132 0.0
O1190 O 0.56639 0.50218 0.96502 0.0
O1191 O 0.57685 0.51525 0.96303 0.0
H1192 H 0.59772 0.54264 0.74914 0.0
H1193 H 0.60887 0.54479 0.70106 0.0
H1194 H 0.61091 0.47164 0.74511 0.0
H1195 H 0.59982 0.46956 0.78877 0.0
H1196 H 0.54532 0.46046 0.94878 0.0
H1197 H 0.53453 0.46633 1.00423 0.0
H1198 H 0.5334 0.53128 0.87345 0.0
H1199 H 0.54422 0.52535 0.81785 0.0
Nd1200 Nd 0.19122 0.50375 1.00586 0.0
Nd1201 Nd 0.20528 0.50284 1.01541 0.0
C1202 C 0.17857 0.50941 1.01507 0.0
C1203 C 0.17227 0.50772 0.05861 0.0
C1204 C 0.16962 0.52688 0.09987 0.0
C1205 C 0.16322 0.52666 0.12685 0.0
C1206 C 0.15927 0.50735 0.11258 0.0
C1207 C 0.16202 0.48785 0.07433 0.0
C1208 C 0.16841 0.48806 0.04767 0.0
C1209 C 0.19639 0.46106 0.96542 0.0
C1210 C 0.19798 0.496 0.19089 0.0
C1211 C 0.21795 0.49804 1.00335 0.0
C1212 C 0.22399 0.50014 0.95388 0.0
C1213 C 0.22624 0.48202 0.90314 0.0
C1214 C 0.23243 0.48279 0.86821 0.0
C1215 C 0.23655 0.5015 0.88449 0.0
C1216 C 0.23421 0.51992 0.93268 0.0
C1217 C 0.22802 0.51928 0.96668 0.0
C1218 C 0.20008 0.54432 0.06507 0.0
C1219 C 0.19844 0.51065 0.83047 0.0
O1220 O 0.18267 0.52559 1.03484 0.0
O1221 O 0.18135 0.49049 0.99033 0.0
O1222 O 0.19177 0.47109 0.926 0.0
O1223 O 0.19817 0.47349 1.02649 0.0
O1224 O 0.19287 0.50305 0.14946 0.0
O1225 O 0.20329 0.4906 0.15022 0.0
O1226 O 0.21391 0.48126 0.98844 0.0
O1227 O 0.21509 0.51695 1.02681 0.0
O1228 O 0.20468 0.53374 0.10279 0.0
O1229 O 0.19831 0.53325 1.00022 0.0
O1230 O 0.20359 0.50379 0.87146 0.0
O1231 O 0.19314 0.51569 0.87134 0.0
H1232 H 0.17243 0.54241 0.10858 0.0
H1233 H 0.16133 0.54186 0.15738 0.0
H1234 H 0.15915 0.47274 0.06105 0.0
H1235 H 0.17024 0.4731 1.01487 0.0
H1236 H 0.22332 0.46686 0.89282 0.0
H1237 H 0.2341 0.46827 0.83167 0.0
H1238 H 0.23722 0.5347 0.94559 0.0
H1239 H 0.22649 0.53346 1.00598 0.0
Nd1240 Nd 0.57842 0.24466 1.00806 0.0
Nd1241 Nd 0.56421 0.25201 1.01321 0.0
C1242 C 0.59066 0.23248 1.02697 0.0
C1243 C 0.5971 0.2373 0.06325 0.0
C1244 C 0.60022 0.21995 0.10887 0.0
C1245 C 0.60667 0.22228 0.13161 0.0
C1246 C 0.61021 0.24204 0.10932 0.0
C1247 C 0.607 0.25994 0.06725 0.0
C1248 C 0.60053 0.25756 0.0441 0.0
C1249 C 0.57481 0.28954 0.97229 0.0
C1250 C 0.57148 0.25539 0.1904 0.0
C1251 C 0.55201 0.26452 0.99095 0.0
C1252 C 0.54578 0.25916 0.9492 0.0
C1253 C 0.54341 0.27367 0.88582 0.0
C1254 C 0.53718 0.2708 0.85434 0.0
C1255 C 0.5331 0.25352 0.88617 0.0
C1256 C 0.53553 0.23861 0.94789 0.0
C1257 C 0.54178 0.24135 0.97882 0.0
C1258 C 0.5677 0.20783 0.05684 0.0
C1259 C 0.57117 0.2405 0.83124 0.0
O1260 O 0.58606 0.22487 0.07525 0.0
O1261 O 0.58857 0.24582 0.96733 0.0
O1262 O 0.57953 0.27873 0.93778 0.0
O1263 O 0.57233 0.27733 1.02961 0.0
O1264 O 0.57637 0.24604 0.15025 0.0
O1265 O 0.56651 0.2635 0.14848 0.0
O1266 O 0.55676 0.27274 0.94638 0.0
O1267 O 0.55397 0.25086 0.05049 0.0
O1268 O 0.56287 0.21899 0.08691 0.0
O1269 O 0.57028 0.21902 0.99704 0.0
O1270 O 0.56623 0.24963 0.87076 0.0
O1271 O 0.57619 0.23301 0.87338 0.0
H1272 H 0.59773 0.20411 0.12423 0.0
H1273 H 0.60893 0.2083 0.16528 0.0
H1274 H 0.60956 0.27537 0.04872 0.0
H1275 H 0.5983 0.27124 1.00855 0.0
H1276 H 0.5463 0.28778 0.8624 0.0
H1277 H 0.53546 0.28274 0.80738 0.0
H1278 H 0.53257 0.22493 0.97314 0.0
H1279 H 0.54339 0.22988 1.02785 0.0
H1280 H 0.24317 0.28848 1.00727 0.0
H1281 H 0.24399 0.21516 0.96199 0.0
H1282 H 0.25414 0.28782 0.05576 0.0
H1283 H 0.25512 0.21494 1.00047 0.0
H1284 H 0.27398 0.21392 0.13405 0.0
H1285 H 0.26279 0.21489 0.09561 0.0
H1286 H 0.26471 0.28697 1.02993 0.0
H1287 H 0.27584 0.28604 0.07471 0.0
C1288 C 0.24566 0.27214 1.00745 0.0
C1289 C 0.24257 0.25189 0.97993 0.0
C1290 C 0.25207 0.27184 1.03383 0.0
C1291 C 0.25571 0.25136 1.03213 0.0
C1292 C 0.25259 0.23113 1.00483 0.0
C1293 C 0.24614 0.23133 0.98058 0.0
C1294 C 0.27201 0.22996 0.11115 0.0
C1295 C 0.27584 0.24986 0.10733 0.0
C1296 C 0.26554 0.23056 0.0882 0.0
C1297 C 0.26267 0.25099 0.05839 0.0
C1298 C 0.26657 0.27091 0.05387 0.0
C1299 C 0.27302 0.2704 0.07893 0.0
H1300 H 0.02227 0.00671 0.85477 0.0
H1301 H 0.02789 0.99492 0.11081 0.0
H1302 H 0.01107 0.00699 0.89672 0.0
H1303 H 0.0167 0.99636 0.15436 0.0
H1304 H 0.99599 0.97826 0.20276 0.0
H1305 H 1.00707 0.97732 0.1577 0.0
H1306 H 1.00273 0.02575 0.96021 0.0
H1307 H 0.99153 0.02517 1.00127 0.0
C1308 C 0.02111 0.00458 0.92048 0.0
C1309 C 0.02599 1.00078 0.97935 0.0
C1310 C 0.01465 0.00483 0.94488 0.0
C1311 C 0.01286 0.00166 1.02935 0.0
C1312 C 0.01779 0.99832 0.08846 0.0
C1313 C 0.02425 0.99766 0.0637 0.0
C1314 C 0.99734 0.98837 0.14855 0.0
C1315 C 0.99277 0.00173 0.10578 0.0
C1316 C 1.00378 0.98819 0.12349 0.0
C1317 C 1.00592 0.00162 0.05534 0.0
C1318 C 1.00134 0.01492 1.01232 0.0
C1319 C 0.99487 0.01486 1.03679 0.0
H1320 H 0.24335 0.03466 0.31863 0.0
H1321 H 0.24612 0.96345 0.38799 0.0
H1322 H 0.25456 0.03743 0.27916 0.0
H1323 H 0.25713 0.96556 0.34174 0.0
H1324 H 0.2784 0.97901 0.32313 0.0
H1325 H 0.26728 0.97753 0.36913 0.0
H1326 H 0.26243 0.02925 0.18483 0.0
H1327 H 0.2736 0.03149 0.14294 0.0
C1328 C 0.24633 0.01951 0.32524 0.0
C1329 C 0.24375 0.99883 0.35691 0.0
C1330 C 0.25279 0.02098 0.30115 0.0
C1331 C 0.25688 0.00173 0.30684 0.0
C1332 C 0.25426 0.98099 0.33752 0.0
C1333 C 0.24784 0.97963 0.36271 0.0
C1334 C 0.27494 0.99013 0.29288 0.0
C1335 C 0.27691 0.00546 0.2297 0.0
C1336 C 0.26852 0.98918 0.31872 0.0
C1337 C 0.26382 0.0032 0.28088 0.0
C1338 C 0.26583 0.01848 0.21733 0.0
C1339 C 0.27227 0.01973 0.19276 0.0
H1340 H 0.02448 0.28721 0.38886 0.0
H1341 H 0.02651 0.21653 0.30904 0.0
H1342 H 0.01353 0.28717 0.34187 0.0
H1343 H 0.01537 0.21539 0.27179 0.0
H1344 H 0.9958 0.22005 0.15595 0.0
H1345 H 1.00695 0.22091 0.19481 0.0
H1346 H 1.00328 0.28014 0.35302 0.0
H1347 H 0.99222 0.27996 0.30815 0.0
C1348 C 0.02261 0.27155 0.36132 0.0
C1349 C 0.02651 0.25187 0.3534 0.0
C1350 C 0.01618 0.27131 0.33575 0.0
C1351 C 0.01329 0.25118 0.30308 0.0
C1352 C 0.01724 0.23153 0.29495 0.0
C1353 C 0.02371 0.23199 0.31836 0.0
C1354 C 0.99738 0.23321 0.19934 0.0
C1355 C 0.99307 0.24994 0.2286 0.0
C1356 C 1.00386 0.2337 0.22257 0.0
C1357 C 1.00627 0.25065 0.27793 0.0
C1358 C 1.00185 0.26707 0.30867 0.0
C1359 C 0.9954 0.26689 0.28358 0.0
H1360 H 0.74501 0.79026 0.97916 0.0
H1361 H 0.74385 0.71598 0.97439 0.0
H1362 H 0.75591 0.78796 1.0293 0.0
H1363 H 0.75495 0.71362 1.01687 0.0
H1364 H 0.77342 0.71319 0.16362 0.0
H1365 H 0.76235 0.71597 0.11902 0.0
H1366 H 0.76646 0.78187 1.00398 0.0
H1367 H 0.77747 0.77943 0.05356 0.0
C1368 C 0.74705 0.77335 0.98877 0.0
C1369 C 0.74342 0.75332 0.97273 0.0
C1370 C 0.75342 0.77201 1.01624 0.0
C1371 C 0.75648 0.75058 1.02755 0.0
C1372 C 0.75285 0.73055 1.01086 0.0
C1373 C 0.74644 0.73189 0.9847 0.0
C1374 C 0.77196 0.72826 0.12863 0.0
C1375 C 0.77637 0.74604 0.1122 0.0
C1376 C 0.76557 0.72985 0.10222 0.0
C1377 C 0.76336 0.74911 0.05677 0.0
C1378 C 0.76782 0.76689 1.04 0.0
C1379 C 0.7742 0.76548 0.06802 0.0
H1380 H 0.77813 0.01758 0.84752 0.0
H1381 H 0.77318 0.98527 0.61317 0.0
H1382 H 0.76694 0.01617 0.8909 0.0
H1383 H 0.76197 0.9846 0.65454 0.0
H1384 H 0.74268 0.9693 0.77568 0.0
H1385 H 0.75392 0.96891 0.73589 0.0
H1386 H 0.75693 0.03197 0.87432 0.0
H1387 H 0.74584 0.03135 0.91911 0.0
C1388 C 0.77464 0.01032 0.80488 0.0
C1389 C 0.7766 0.00153 0.72678 0.0
C1390 C 0.76818 0.00961 0.82952 0.0
C1391 C 0.76343 1.00041 0.77635 0.0
C1392 C 0.76542 0.99148 0.69837 0.0
C1393 C 0.77189 0.99191 0.67428 0.0
C1394 C 0.74575 0.98295 0.79864 0.0
C1395 C 0.74326 1.00033 0.85107 0.0
C1396 C 0.75223 0.98292 0.77468 0.0
C1397 C 0.75646 1.00038 0.80165 0.0
C1398 C 0.75394 0.01792 0.8531 0.0
C1399 C 0.74748 0.01781 0.8777 0.0
H1400 H 0.99588 0.71708 0.66492 0.0
H1401 H 0.99229 0.7786 0.80924 0.0
H1402 H 1.00705 0.71772 0.70873 0.0
H1403 H 1.0034 0.77905 0.85449 0.0
H1404 H 0.02481 0.78915 0.85325 0.0
H1405 H 0.01376 0.78702 0.80821 0.0
H1406 H 0.01461 0.7127 0.81641 0.0
H1407 H 0.02585 0.71484 0.85643 0.0
C1408 C 0.99744 0.73055 0.70715 0.0
C1409 C 0.99315 0.74786 0.73294 0.0
C1410 C 1.00388 0.73093 0.73243 0.0
C1411 C 1.00623 0.74858 0.78476 0.0
C1412 C 1.00187 0.76549 0.81247 0.0
C1413 C 0.99546 0.76518 0.78677 0.0
C1414 C 0.02271 0.77228 0.84411 0.0
C1415 C 0.02632 0.75218 0.85862 0.0
C1416 C 0.01629 0.77105 0.81954 0.0
C1417 C 0.01318 0.74968 0.80928 0.0
C1418 C 0.01679 0.72953 0.82293 0.0
C1419 C 0.02325 0.73076 0.84706 0.0
H1420 H 0.24184 0.72682 0.57586 0.0
H1421 H 0.24625 0.77805 0.38917 0.0
H1422 H 0.25292 0.7265 0.62001 0.0
H1423 H 0.25742 0.77667 0.42739 0.0
H1424 H 0.27705 0.78272 0.5385 0.0
H1425 H 0.26591 0.78427 0.501 0.0
H1426 H 0.26303 0.71692 0.61197 0.0
H1427 H 0.27401 0.71689 0.65805 0.0
C1428 C 0.24521 0.73791 0.54366 0.0
C1429 C 0.24312 0.75257 0.47931 0.0
C1430 C 0.25167 0.73759 0.5683 0.0
C1431 C 0.25631 0.75146 0.52775 0.0
C1432 C 0.25414 0.76603 0.46277 0.0
C1433 C 0.24766 0.76678 0.43991 0.0
C1434 C 0.27402 0.7684 0.55648 0.0
C1435 C 0.27653 0.74979 0.6024 0.0
C1436 C 0.26755 0.76902 0.53318 0.0
C1437 C 0.26333 0.75073 0.5527 0.0
C1438 C 0.26592 0.73179 0.59663 0.0
C1439 C 0.27236 0.73146 0.62181 0.0
H1440 H 0.99565 0.53804 0.6499 0.0
H1441 H 0.99246 0.47159 0.53657 0.0
H1442 H 1.00686 0.53642 0.6102 0.0
H1443 H 1.00363 0.47028 0.49265 0.0
H1444 H 0.02511 0.46323 0.48443 0.0
H1445 H 0.01406 0.46495 0.52964 0.0
H1446 H 0.01453 0.53921 0.5093 0.0
H1447 H 0.02577 0.53754 0.47165 0.0
C1448 C 0.99733 0.52322 0.61501 0.0
C1449 C 0.99313 0.50498 0.59634 0.0
C1450 C 1.0038 0.52228 0.59174 0.0
C1451 C 1.00628 0.50322 0.54767 0.0
C1452 C 1.00202 0.48509 0.52799 0.0
C1453 C 0.99557 0.48587 0.55262 0.0
C1454 C 0.02293 0.48002 0.4913 0.0
C1455 C 0.02644 0.50025 0.47425 0.0
C1456 C 0.01648 0.481 0.51582 0.0
C1457 C 0.01325 0.50222 0.52289 0.0
C1458 C 0.01678 0.52246 0.50599 0.0
C1459 C 0.02326 0.5215 0.48277 0.0
H1460 H 0.27806 0.52222 0.83214 0.0
H1461 H 0.2731 0.47796 0.62475 0.0
H1462 H 0.26693 0.52369 0.87371 0.0
H1463 H 0.2621 0.47728 0.67114 0.0
H1464 H 0.24133 0.49239 0.72736 0.0
H1465 H 0.25244 0.49289 0.68146 0.0
H1466 H 0.25834 0.50878 0.93493 0.0
H1467 H 0.24721 0.51001 0.97771 0.0
C1468 C 0.27461 0.51263 0.79546 0.0
C1469 C 0.27658 0.49999 0.72472 0.0
C1470 C 0.26816 0.5131 0.82041 0.0
C1471 C 0.26343 0.50053 0.77664 0.0
C1472 C 0.26545 0.48764 0.70647 0.0
C1473 C 0.27187 0.48759 0.68054 0.0
C1474 C 0.24503 0.49609 0.77286 0.0
C1475 C 0.24337 0.5013 0.85602 0.0
C1476 C 0.25146 0.49618 0.74688 0.0
C1477 C 0.25648 0.50083 0.80389 0.0
C1478 C 0.25475 0.5057 0.88761 0.0
C1479 C 0.24832 0.50622 0.91283 0.0
H1480 H 0.7728 0.25694 0.73229 0.0
H1481 H 0.7786 0.24275 0.47825 0.0
H1482 H 0.76166 0.25707 0.68956 0.0
H1483 H 0.76749 0.24423 0.43346 0.0
H1484 H 0.74679 0.2292 0.37819 0.0
H1485 H 0.75777 0.22717 0.42577 0.0
H1486 H 0.75328 0.27416 0.62769 0.0
H1487 H 0.74219 0.27418 0.58522 0.0
C1488 C 0.77169 0.25428 0.66676 0.0
C1489 C 0.77661 0.24979 0.60887 0.0
C1490 C 0.76526 0.25444 0.64175 0.0
C1491 C 0.76352 0.25061 0.55744 0.0
C1492 C 0.7685 0.24666 0.49927 0.0
C1493 C 0.77493 0.24602 0.52475 0.0
C1494 C 0.74809 0.2387 0.43397 0.0
C1495 C 0.7435 0.25197 0.47712 0.0
C1496 C 0.75449 0.23793 0.46057 0.0
C1497 C 0.75658 0.25074 0.53052 0.0
C1498 C 0.75196 0.26376 0.57422 0.0
C1499 C 0.74554 0.26414 0.54863 0.0
H1500 H 0.74696 0.51705 0.46984 0.0
H1501 H 0.74163 0.48285 0.24012 0.0
H1502 H 0.7579 0.51937 0.42185 0.0
H1503 H 0.75267 0.48254 0.1962 0.0
H1504 H 0.77249 0.49802 0.09856 0.0
H1505 H 0.76141 0.49749 0.14298 0.0
H1506 H 0.76749 0.50469 0.401 0.0
H1507 H 0.77852 0.50698 0.35435 0.0
C1508 C 0.7481 0.50995 0.40892 0.0
C1509 C 0.7433 0.4997 0.35944 0.0
C1510 C 0.75449 0.51079 0.38173 0.0
C1511 C 0.7564 0.50089 0.30475 0.0
C1512 C 0.75156 0.49075 0.2552 0.0
C1513 C 0.74514 0.49047 0.28144 0.0
C1514 C 0.77144 0.49942 0.16483 0.0
C1515 C 0.77642 0.50266 0.22266 0.0
C1516 C 0.76502 0.49897 0.191 0.0
C1517 C 0.76334 0.50114 0.27649 0.0
C1518 C 0.7684 0.50367 0.33446 0.0
C1519 C 0.77481 0.50473 0.30786 0.0
H1520 H 0.49621 0.9724 0.67828 0.0
H1521 H 0.49225 0.02988 0.51474 0.0
H1522 H 0.50727 0.97237 0.63212 0.0
H1523 H 0.50345 0.03097 0.47301 0.0
H1524 H 0.52268 0.01295 0.35062 0.0
H1525 H 0.51152 0.01386 0.39509 0.0
H1526 H 0.5171 0.99042 0.6413 0.0
H1527 H 0.52821 0.98878 0.59538 0.0
C1528 C 0.49767 0.98505 0.6322 0.0
C1529 C 0.49324 0.00106 0.60021 0.0
C1530 C 0.5041 0.98532 0.60669 0.0
C1531 C 0.50637 0.00179 0.54888 0.0
C1532 C 0.50194 0.01781 0.51681 0.0
C1533 C 0.49548 0.01739 0.54178 0.0
C1534 C 0.52153 0.0082 0.41452 0.0
C1535 C 0.52637 1.00066 0.4691 0.0
C1536 C 0.5151 0.00876 0.44034 0.0
C1537 C 0.5133 0.00204 0.52201 0.0
C1538 C 0.5182 0.99516 0.57729 0.0
C1539 C 0.52461 0.99434 0.5511 0.0
H1540 H 0.49664 0.27221 0.6253 0.0
H1541 H 0.49161 0.22856 0.83447 0.0
H1542 H 0.50765 0.27294 0.67172 0.0
H1543 H 0.50276 0.22773 0.87737 0.0
H1544 H 0.52234 0.24727 0.98267 0.0
H1545 H 0.5112 0.24647 0.93884 0.0
H1546 H 0.5172 0.25401 0.68085 0.0
H1547 H 0.52832 0.2559 0.72591 0.0
C1548 C 0.49785 0.26276 0.68148 0.0
C1549 C 0.49312 0.25045 0.72607 0.0
C1550 C 0.50426 0.2628 0.70745 0.0
C1551 C 0.50624 0.25026 0.77847 0.0
C1552 C 0.50151 0.2379 0.82305 0.0
C1553 C 0.49507 0.23808 0.79756 0.0
C1554 C 0.52128 0.24863 0.91649 0.0
C1555 C 0.52626 0.25175 0.85799 0.0
C1556 C 0.51485 0.24807 0.891 0.0
C1557 C 0.51317 0.25028 0.80582 0.0
C1558 C 0.51819 0.25286 0.74719 0.0
C1559 C 0.52462 0.25379 0.77293 0.0
H1560 H 0.49637 0.72017 0.15145 0.0
H1561 H 0.49196 0.77481 0.3254 0.0
H1562 H 0.50753 0.72112 0.19579 0.0
H1563 H 0.50306 0.77551 0.37109 0.0
H1564 H 0.52433 0.78924 0.37586 0.0
H1565 H 0.5133 0.78695 0.33009 0.0
H1566 H 0.51514 0.71326 0.30077 0.0
H1567 H 0.52636 0.7158 0.34178 0.0
C1568 C 0.49775 0.73215 0.20019 0.0
C1569 C 0.49323 0.74748 0.23438 0.0
C1570 C 0.50418 0.73271 0.22579 0.0
C1571 C 0.50629 0.74854 0.28681 0.0
C1572 C 0.50171 0.76344 0.3225 0.0
C1573 C 0.4953 0.76298 0.29651 0.0
C1574 C 0.52245 0.77254 0.35837 0.0
C1575 C 0.52632 0.75273 0.36251 0.0
C1576 C 0.51603 0.77116 0.33333 0.0
C1577 C 0.51322 0.74987 0.3122 0.0
C1578 C 0.5171 0.73003 0.31578 0.0
C1579 C 0.52354 0.73144 0.34045 0.0
H1580 H 0.52267 0.51316 0.85171 0.0
H1581 H 0.52805 0.49077 0.09933 0.0
H1582 H 0.51149 0.51439 0.89484 0.0
H1583 H 0.5169 0.49272 0.14382 0.0
H1584 H 0.496 0.47459 0.17839 0.0
H1585 H 0.50708 0.47422 0.13328 0.0
H1586 H 0.50345 0.53249 0.97181 0.0
H1587 H 0.49222 0.53182 1.01301 0.0
C1588 C 0.52148 0.50889 0.91591 0.0
C1589 C 0.52628 0.50177 0.97182 0.0
C1590 C 0.51504 0.50962 0.94092 0.0
C1591 C 0.5132 0.5035 1.02299 0.0
C1592 C 0.51805 0.49701 0.07952 0.0
C1593 C 0.52447 0.49602 0.05418 0.0
C1594 C 0.49751 0.4871 0.13208 0.0
C1595 C 0.49313 0.50316 0.09921 0.0
C1596 C 0.50395 0.48717 0.10716 0.0
C1597 C 0.50627 0.50345 0.04905 0.0
C1598 C 0.50189 0.51949 1.01598 0.0
C1599 C 0.49542 0.51931 1.04051 0.0
H1600 H 0.40207 0.2254 0.37475 0.0
H1601 H 0.40004 0.2896 0.50897 0.0
H1602 H 0.39055 0.22416 0.35277 0.0
H1603 H 0.38859 0.28905 0.48272 0.0
H1604 H 0.3675 0.27101 0.49947 0.0
H1605 H 0.37901 0.27041 0.52384 0.0
H1606 H 0.38194 0.2408 0.27845 0.0
H1607 H 0.37042 0.24107 0.25492 0.0
C1608 C 0.39919 0.23934 0.39931 0.0
C1609 C 0.40205 0.25757 0.44397 0.0
C1610 C 0.39256 0.23876 0.38582 0.0
C1611 C 0.38857 0.25645 0.41622 0.0
C1612 C 0.39145 0.27488 0.45951 0.0
C1613 C 0.39807 0.2754 0.47335 0.0
C1614 C 0.3706 0.26436 0.45071 0.0
C1615 C 0.36801 0.25616 0.37508 0.0
C1616 C 0.37722 0.2641 0.46451 0.0
C1617 C 0.38147 0.25577 0.40288 0.0
C1618 C 0.37885 0.24711 0.32795 0.0
C1619 C 0.37222 0.24725 0.31438 0.0
H1620 H 0.86681 0.001 0.32354 0.0
H1621 H 0.87015 0.98624 0.584 0.0
H1622 H 0.87837 0.00222 0.29816 0.0
H1623 H 0.8817 0.98788 0.56026 0.0
H1624 H 0.90195 0.9696 0.47842 0.0
H1625 H 0.89048 0.96908 0.50309 0.0
H1626 H 0.888 0.0221 0.31614 0.0
H1627 H 0.89942 0.02141 0.2872 0.0
C1628 C 0.87005 0.99811 0.37539 0.0
C1629 C 0.8676 0.99354 0.45569 0.0
C1630 C 0.87669 0.99898 0.36123 0.0
C1631 C 0.88107 0.99513 0.427 0.0
C1632 C 0.87856 0.99062 0.50747 0.0
C1633 C 0.87192 0.98988 0.52152 0.0
C1634 C 0.89897 0.981 0.44168 0.0
C1635 C 0.90171 0.99544 0.38025 0.0
C1636 C 0.89235 0.98096 0.45683 0.0
C1637 C 0.8882 0.99553 0.41174 0.0
C1638 C 0.89096 0.01031 0.35146 0.0
C1639 C 0.89758 0.0102 0.33579 0.0
H1640 H 0.40163 0.02505 0.95484 0.0
H1641 H 0.39983 0.96203 0.81295 0.0
H1642 H 0.39014 0.02549 0.97741 0.0
H1643 H 0.38837 0.96158 0.84054 0.0
H1644 H 0.36702 0.97856 0.8316 0.0
H1645 H 0.37855 0.97838 0.80628 0.0
H1646 H 0.38161 0.00924 0.04936 0.0
H1647 H 0.37011 0.01011 0.07271 0.0
C1648 C 0.39881 0.01118 0.92863 0.0
C1649 C 0.40174 0.99357 0.88154 0.0
C1650 C 0.39218 0.01125 0.94269 0.0
C1651 C 0.38823 0.99357 0.91095 0.0
C1652 C 0.39118 0.97574 0.86508 0.0
C1653 C 0.39781 0.97578 0.85041 0.0
C1654 C 0.37017 0.98532 0.87949 0.0
C1655 C 0.36761 0.99451 0.95392 0.0
C1656 C 0.37681 0.98511 0.86528 0.0
C1657 C 0.38111 0.99381 0.92561 0.0
C1658 C 0.37852 0.00284 1.0003 0.0
C1659 C 0.37189 0.0033 1.01395 0.0
H1660 H 0.87099 0.23832 0.76103 0.0
H1661 H 0.86732 0.27732 0.9862 0.0
H1662 H 0.88246 0.23974 0.78912 0.0
H1663 H 0.87885 0.27889 1.01411 0.0
H1664 H 0.899 0.24996 0.08266 0.0
H1665 H 0.88752 0.25115 0.05342 0.0
H1666 H 0.89157 0.26792 0.79521 0.0
H1667 H 0.90309 0.26685 0.82495 0.0
C1668 C 0.87263 0.2472 0.81665 0.0
C1669 C 0.86822 0.25762 0.87156 0.0
C1670 C 0.87922 0.2482 0.83229 0.0
C1671 C 0.88159 0.25945 0.90379 0.0
C1672 C 0.87719 0.26996 0.95868 0.0
C1673 C 0.87059 0.26921 0.94243 0.0
C1674 C 0.89743 0.25392 1.01964 0.0
C1675 C 0.90195 0.2582 0.956 0.0
C1676 C 0.89086 0.25479 1.00303 0.0
C1677 C 0.88861 0.25962 0.92197 0.0
C1678 C 0.89314 0.264 0.85824 0.0
C1679 C 0.89973 0.26352 0.87527 0.0
H1680 H 0.61705 0.72968 0.75445 0.0
H1681 H 0.62032 0.75462 0.50367 0.0
H1682 H 0.62862 0.72916 0.77911 0.0
H1683 H 0.63182 0.75302 0.52575 0.0
H1684 H 0.65175 0.77115 0.61357 0.0
H1685 H 0.64027 0.77117 0.59155 0.0
H1686 H 0.63841 0.71126 0.75062 0.0
H1687 H 0.64986 0.71233 0.77762 0.0
C1688 C 0.62026 0.73473 0.7043 0.0
C1689 C 0.6178 0.74231 0.62737 0.0
C1690 C 0.6269 0.73435 0.71806 0.0
C1691 C 0.63123 0.74114 0.65461 0.0
C1692 C 0.6287 0.7482 0.57706 0.0
C1693 C 0.62209 0.74897 0.56399 0.0
C1694 C 0.6489 0.75808 0.64465 0.0
C1695 C 0.65179 0.7418 0.69778 0.0
C1696 C 0.64228 0.75787 0.63099 0.0
C1697 C 0.63833 0.74117 0.66906 0.0
C1698 C 0.64124 0.72462 0.72101 0.0
C1699 C 0.64786 0.72498 0.73538 0.0
H1700 H 0.11917 0.04453 0.73681 0.0
H1701 H 0.11759 0.97218 0.6783 0.0
H1702 H 0.13061 0.0431 0.71107 0.0
H1703 H 0.12912 0.97077 0.65003 0.0
H1704 H 0.15125 0.9729 0.6782 0.0
H1705 H 0.13971 0.97226 0.7065 0.0
H1706 H 0.13809 0.0408 0.60315 0.0
H1707 H 0.14953 0.04157 0.57748 0.0
C1708 C 0.12126 0.02832 0.71724 0.0
C1709 C 0.11742 0.00854 0.70878 0.0
C1710 C 0.12785 0.02749 0.70216 0.0
C1711 C 0.13086 0.00688 0.67718 0.0
C1712 C 0.12703 0.98693 0.66979 0.0
C1713 C 0.1204 0.98774 0.68573 0.0
C1714 C 0.14841 0.98779 0.66155 0.0
C1715 C 0.15135 0.00742 0.62666 0.0
C1716 C 0.14178 0.98741 0.67746 0.0
C1717 C 0.13791 0.00659 0.6582 0.0
C1718 C 0.14087 0.02592 0.62135 0.0
C1719 C 0.14747 0.02637 0.60631 0.0
H1720 H 0.64995 0.98389 1.02958 0.0
H1721 H 0.65239 0.03213 0.23244 0.0
H1722 H 0.63844 0.98454 0.05043 0.0
H1723 H 0.64085 0.03205 0.25676 0.0
H1724 H 0.61945 0.04311 0.24097 0.0
H1725 H 0.63087 0.04385 0.21207 0.0
H1726 H 0.62996 0.97294 0.13015 0.0
H1727 H 0.61851 0.97294 0.15132 0.0
C1728 C 0.64802 0.99437 0.07977 0.0
C1729 C 0.65211 0.00789 0.12949 0.0
C1730 C 0.64138 0.99471 0.09213 0.0
C1731 C 0.6386 0.00831 0.15566 0.0
C1732 C 0.64273 0.02168 0.20602 0.0
C1733 C 0.64937 0.02163 0.19262 0.0
C1734 C 0.62164 0.02781 0.21496 0.0
C1735 C 0.61796 0.00792 0.19926 0.0
C1736 C 0.62827 0.02808 0.1998 0.0
C1737 C 0.63146 0.00838 0.16941 0.0
C1738 C 0.62775 0.98863 0.15256 0.0
C1739 C 0.62113 0.98849 0.16629 0.0
H1740 H 0.12057 0.75827 1.0035 0.0
H1741 H 0.11763 0.73061 0.25161 0.0
H1742 H 0.13208 0.75906 1.02733 0.0
H1743 H 0.12913 0.73174 0.27626 0.0
H1744 H 0.1502 0.71288 0.26398 0.0
H1745 H 0.13874 0.71296 0.23794 0.0
H1746 H 0.14066 0.77654 0.09943 0.0
H1747 H 0.15219 0.77571 0.12113 0.0
C1748 C 0.12237 0.75271 0.06377 0.0
C1749 C 0.11815 0.74426 0.12541 0.0
C1750 C 0.12899 0.75315 0.07753 0.0
C1751 C 0.1316 0.74527 0.15357 0.0
C1752 C 0.12735 0.73743 0.21611 0.0
C1753 C 0.12073 0.73687 0.20214 0.0
C1754 C 0.14822 0.72667 0.22656 0.0
C1755 C 0.15218 0.74426 0.19466 0.0
C1756 C 0.14159 0.72694 0.21282 0.0
C1757 C 0.13871 0.74487 0.16712 0.0
C1758 C 0.14268 0.76232 0.13434 0.0
C1759 C 0.14931 0.76198 0.14769 0.0
H1760 H 0.37067 0.74208 0.75578 0.0
H1761 H 0.3668 0.76863 1.00318 0.0
H1762 H 0.38212 0.74259 0.78506 0.0
H1763 H 0.3783 0.76954 1.03221 0.0
H1764 H 0.39891 0.74555 0.08471 0.0
H1765 H 0.38745 0.74408 0.05594 0.0
H1766 H 0.39094 0.76917 0.8054 0.0
H1767 H 0.40241 0.76993 0.83314 0.0
C1768 C 0.37226 0.74791 0.81674 0.0
C1769 C 0.36778 0.75516 0.87729 0.0
C1770 C 0.37884 0.74845 0.83324 0.0
C1771 C 0.38117 0.7561 0.91109 0.0
C1772 C 0.3767 0.76331 0.97185 0.0
C1773 C 0.3701 0.76298 0.95499 0.0
C1774 C 0.39726 0.75047 1.02304 0.0
C1775 C 0.40164 0.75784 0.96135 0.0
C1776 C 0.39066 0.74992 1.0069 0.0
C1777 C 0.38823 0.7566 0.9284 0.0
C1778 C 0.39261 0.76371 0.86639 0.0
C1779 C 0.39921 0.76436 0.88263 0.0
H1780 H 0.90325 0.48791 1.00419 0.0
H1781 H 0.89925 0.49699 0.74111 0.0
H1782 H 0.8918 0.48962 1.03513 0.0
H1783 H 0.88781 0.49913 0.7723 0.0
H1784 H 0.86764 0.47357 0.8521 0.0
H1785 H 0.87909 0.47337 0.81997 0.0
H1786 H 0.88265 0.51638 1.0355 0.0
H1787 H 0.87121 0.51637 0.068 0.0
C1788 C 0.89993 0.49033 0.95289 0.0
C1789 C 0.9022 0.49224 0.87003 0.0
C1790 C 0.89336 0.49151 0.97076 0.0
C1791 C 0.88885 0.49443 0.90624 0.0
C1792 C 0.89112 0.49661 0.82351 0.0
C1793 C 0.8977 0.49564 0.80572 0.0
C1794 C 0.87087 0.48288 0.89287 0.0
C1795 C 0.86849 0.49492 0.96283 0.0
C1796 C 0.87744 0.48296 0.87398 0.0
C1797 C 0.88182 0.49485 0.92512 0.0
C1798 C 0.87944 0.50687 0.9951 0.0
C1799 C 0.87287 0.50702 1.01339 0.0
H1800 H 0.36961 0.46033 0.50174 0.0
H1801 H 0.36795 0.5269 0.3828 0.0
H1802 H 0.38106 0.46048 0.47444 0.0
H1803 H 0.37947 0.52767 0.36014 0.0
H1804 H 0.39953 0.51097 0.25673 0.0
H1805 H 0.38802 0.51189 0.28149 0.0
H1806 H 0.39075 0.47752 0.51871 0.0
H1807 H 0.40224 0.47638 0.49331 0.0
C1808 C 0.37166 0.47498 0.4693 0.0
C1809 C 0.36778 0.49358 0.44453 0.0
C1810 C 0.37828 0.47525 0.4549 0.0
C1811 C 0.38127 0.49419 0.41568 0.0
C1812 C 0.37738 0.51267 0.38992 0.0
C1813 C 0.37075 0.51234 0.4039 0.0
C1814 C 0.39769 0.50387 0.31472 0.0
C1815 C 0.40185 0.49345 0.37264 0.0
C1816 C 0.39106 0.50438 0.32899 0.0
C1817 C 0.38838 0.49455 0.40183 0.0
C1818 C 0.39258 0.48474 0.46086 0.0
C1819 C 0.3992 0.48416 0.44642 0.0
H1820 H 0.8675 0.77713 0.49517 0.0
H1821 H 0.87021 0.73579 0.27307 0.0
H1822 H 0.87894 0.77575 0.52243 0.0
H1823 H 0.8817 0.73428 0.30091 0.0
H1824 H 0.90181 0.7223 0.41915 0.0
H1825 H 0.89024 0.72037 0.39452 0.0
H1826 H 0.88854 0.79203 0.46334 0.0
H1827 H 0.89996 0.79376 0.4901 0.0
C1828 C 0.87052 0.76779 0.4518 0.0
C1829 C 0.86787 0.75686 0.38114 0.0
C1830 C 0.87711 0.76699 0.46753 0.0
C1831 C 0.8813 0.75519 0.4133 0.0
C1832 C 0.87864 0.74346 0.34438 0.0
C1833 C 0.87203 0.74431 0.32846 0.0
C1834 C 0.89895 0.73759 0.42952 0.0
C1835 C 0.90186 0.75821 0.45653 0.0
C1836 C 0.89232 0.73654 0.41468 0.0
C1837 C 0.8884 0.756 0.42738 0.0
C1838 C 0.89134 0.77656 0.45403 0.0
C1839 C 0.89794 0.77764 0.46835 0.0
H1840 H 0.65108 0.27945 0.16538 0.0
H1841 H 0.64953 0.20858 0.24424 0.0
H1842 H 0.63957 0.28015 0.13676 0.0
H1843 H 0.6381 0.20935 0.2183 0.0
H1844 H 0.61907 0.20794 0.08775 0.0
H1845 H 0.63052 0.20915 0.11236 0.0
H1846 H 0.62898 0.28001 0.19267 0.0
H1847 H 0.61746 0.27887 0.16551 0.0
C1848 C 0.64828 0.26407 0.17714 0.0
C1849 C 0.65127 0.24386 0.20611 0.0
C1850 C 0.64166 0.26447 0.16102 0.0
C1851 C 0.63783 0.24472 0.17418 0.0
C1852 C 0.64084 0.22474 0.20484 0.0
C1853 C 0.64744 0.22429 0.22006 0.0
C1854 C 0.62115 0.22376 0.1114 0.0
C1855 C 0.61728 0.24321 0.12551 0.0
C1856 C 0.62775 0.22447 0.12579 0.0
C1857 C 0.63076 0.2446 0.15578 0.0
C1858 C 0.6269 0.26422 0.16893 0.0
C1859 C 0.62027 0.26356 0.15366 0.0
H1860 H 0.11859 0.47443 0.13494 0.0
H1861 H 0.1197 0.54082 0.25649 0.0
H1862 H 0.13012 0.47508 0.11257 0.0
H1863 H 0.13123 0.5416 0.23245 0.0
H1864 H 0.15092 0.54375 0.0979 0.0
H1865 H 0.1394 0.54411 0.12196 0.0
H1866 H 0.14004 0.47251 0.19419 0.0
H1867 H 0.15159 0.47217 0.17154 0.0
C1868 C 0.12127 0.48917 0.15722 0.0
C1869 C 0.11815 0.5075 0.19823 0.0
C1870 C 0.12791 0.48952 0.14431 0.0
C1871 C 0.13164 0.50829 0.17133 0.0
C1872 C 0.12851 0.52692 0.21019 0.0
C1873 C 0.12187 0.52651 0.22366 0.0
C1874 C 0.14865 0.52815 0.12037 0.0
C1875 C 0.15224 0.50792 0.13254 0.0
C1876 C 0.14201 0.52836 0.13385 0.0
C1877 C 0.13875 0.5083 0.15944 0.0
C1878 C 0.14235 0.48817 0.17293 0.0
C1879 C 0.149 0.48799 0.15993 0.0
H1880 H 0.64961 0.48733 0.52018 0.0
H1881 H 0.65239 0.52974 0.73876 0.0
H1882 H 0.63809 0.48914 0.53968 0.0
H1883 H 0.64082 0.53061 0.76199 0.0
H1884 H 0.61947 0.54357 0.74958 0.0
H1885 H 0.6309 0.54438 0.7206 0.0
H1886 H 0.62967 0.47569 0.61703 0.0
H1887 H 0.61822 0.4758 0.63866 0.0
C1888 C 0.64773 0.49683 0.57324 0.0
C1889 C 0.6519 0.5083 0.62816 0.0
C1890 C 0.6411 0.49777 0.58493 0.0
C1891 C 0.63843 0.50987 0.65301 0.0
C1892 C 0.64263 0.52142 0.70798 0.0
C1893 C 0.64928 0.52083 0.69519 0.0
C1894 C 0.6216 0.52884 0.71875 0.0
C1895 C 0.61785 0.50958 0.69703 0.0
C1896 C 0.62822 0.52912 0.7035 0.0
C1897 C 0.63131 0.51004 0.66694 0.0
C1898 C 0.62753 0.49093 0.6442 0.0
C1899 C 0.62092 0.49081 0.65808 0.0
H1900 H 0.15227 0.22561 0.58462 0.0
H1901 H 0.14951 0.2622 0.81712 0.0
H1902 H 0.14074 0.22601 0.56055 0.0
H1903 H 0.138 0.26208 0.79471 0.0
H1904 H 0.11795 0.27649 0.69801 0.0
H1905 H 0.12946 0.27706 0.7191 0.0
H1906 H 0.13095 0.21009 0.60255 0.0
H1907 H 0.1195 0.21029 0.57597 0.0
C1908 C 0.1492 0.23365 0.63087 0.0
C1909 C 0.15185 0.24393 0.70271 0.0
C1910 C 0.14256 0.23378 0.61737 0.0
C1911 C 0.13835 0.24397 0.67577 0.0
C1912 C 0.14103 0.25439 0.74732 0.0
C1913 C 0.14767 0.25446 0.76034 0.0
C1914 C 0.12072 0.26195 0.6759 0.0
C1915 C 0.11772 0.24341 0.63463 0.0
C1916 C 0.12736 0.26213 0.68914 0.0
C1917 C 0.13122 0.24366 0.66243 0.0
C1918 C 0.1282 0.22488 0.62282 0.0
C1919 C 0.12157 0.2248 0.60887 0.0
H1920 H 0.32808 0.22308 0.55327 0.0
H1921 H 0.31398 0.27697 0.54495 0.0
H1922 H 0.32824 0.22525 0.70607 0.0
H1923 H 0.31445 0.28072 0.69684 0.0
H1924 H 0.31218 0.27032 0.97724 0.0
H1925 H 0.31186 0.26753 0.8257 0.0
H1926 H 0.33149 0.24393 0.82437 0.0
H1927 H 0.33166 0.24599 0.97702 0.0
C1928 C 0.32501 0.23545 0.58448 0.0
C1929 C 0.32093 0.24957 0.53723 0.0
C1930 C 0.32516 0.23699 0.67245 0.0
C1931 C 0.32138 0.25328 0.71594 0.0
C1932 C 0.31733 0.26751 0.66755 0.0
C1933 C 0.31706 0.26546 0.57984 0.0
C1934 C 0.31644 0.26457 0.94461 0.0
C1935 C 0.32194 0.25842 0.98989 0.0
C1936 C 0.31628 0.26312 0.8568 0.0
C1937 C 0.32164 0.2554 0.8106 0.0
C1938 C 0.3272 0.24961 0.85632 0.0
C1939 C 0.32735 0.25113 0.94441 0.0
H1940 H 0.95645 0.02177 0.55288 0.0
H1941 H 0.93829 0.98634 0.54782 0.0
H1942 H 0.95684 0.01743 0.70417 0.0
H1943 H 0.9385 0.98285 0.6996 0.0
H1944 H 0.94255 0.96228 0.96981 0.0
H1945 H 0.94246 0.96529 0.81705 0.0
H1946 H 0.95342 0.02841 0.83322 0.0
H1947 H 0.95385 0.02432 0.98446 0.0
C1948 C 0.95248 0.01333 0.58411 0.0
C1949 C 0.94732 0.00459 0.53733 0.0
C1950 C 0.95268 0.01091 0.67177 0.0
C1951 C 0.9477 0.99976 0.71623 0.0
C1952 C 0.9425 0.99123 0.66902 0.0
C1953 C 0.94233 0.99354 0.58129 0.0
C1954 C 0.94499 0.97665 0.94035 0.0
C1955 C 0.94827 0.99288 0.98964 0.0
C1956 C 0.94489 0.97858 0.85231 0.0
C1957 C 0.94792 0.99718 0.81076 0.0
C1958 C 0.95115 0.01347 0.861 0.0
C1959 C 0.95138 0.0112 0.94855 0.0
H1960 H 0.32999 0.97373 0.35428 0.0
H1961 H 0.31221 0.01115 0.3472 0.0
H1962 H 0.33021 0.97704 0.50472 0.0
H1963 H 0.31251 0.01608 0.49575 0.0
H1964 H 0.31243 0.01966 0.77626 0.0
H1965 H 0.31199 0.01458 0.6274 0.0
H1966 H 0.33141 0.98802 0.63064 0.0
H1967 H 0.33155 0.99204 0.78038 0.0
C1968 C 0.3261 0.9827 0.38513 0.0
C1969 C 0.32107 0.99203 0.33785 0.0
C1970 C 0.32624 0.98501 0.47291 0.0
C1971 C 0.32142 0.99723 0.51713 0.0
C1972 C 0.31636 0.00629 0.46835 0.0
C1973 C 0.31617 0.00355 0.38109 0.0
C1974 C 0.31661 0.0128 0.74484 0.0
C1975 C 0.32202 0.00637 0.79116 0.0
C1976 C 0.31641 0.00986 0.65753 0.0
C1977 C 0.32166 1.00063 0.61213 0.0
C1978 C 0.32714 0.99475 0.65962 0.0
C1979 C 0.32729 0.99739 0.74712 0.0
H1980 H 0.93836 0.26938 0.35727 0.0
H1981 H 0.95817 0.24895 0.35384 0.0
H1982 H 0.93804 0.26496 0.50648 0.0
H1983 H 0.95813 0.24579 0.5037 0.0
H1984 H 0.95705 0.23164 0.77948 0.0
H1985 H 0.95719 0.23475 0.62943 0.0
H1986 H 0.93848 0.26716 0.63821 0.0
H1987 H 0.93831 0.26238 0.78716 0.0
C1988 C 0.94271 0.26425 0.38891 0.0
C1989 C 0.94828 0.25953 0.34278 0.0
C1990 C 0.94257 0.26172 0.47636 0.0
C1991 C 0.94805 0.2547 0.52194 0.0
C1992 C 0.95368 0.25066 0.4746 0.0
C1993 C 0.95377 0.25281 0.38699 0.0
C1994 C 0.95293 0.23912 0.74876 0.0
C1995 C 0.94766 0.24659 0.79605 0.0
C1996 C 0.95302 0.24131 0.66112 0.0
C1997 C 0.94788 0.25159 0.61696 0.0
C1998 C 0.94258 0.25888 0.66572 0.0
C1999 C 0.94245 0.25622 0.75307 0.0
H2000 H 0.70797 0.74958 0.10687 0.0
H2001 H 0.68782 0.73316 0.1106 0.0
H2002 H 0.70796 0.753 0.25755 0.0
H2003 H 0.68785 0.73517 0.26311 0.0
H2004 H 0.68806 0.75952 0.53432 0.0
H2005 H 0.68796 0.75669 0.38208 0.0
H2006 H 0.70795 0.73724 0.38553 0.0
H2007 H 0.70809 0.74184 0.53658 0.0
C2008 C 0.70353 0.74628 0.13996 0.0
C2009 C 0.6979 0.74104 0.09566 0.0
C2010 C 0.70353 0.74807 0.22754 0.0
C2011 C 0.6979 0.74435 0.2748 0.0
C2012 C 0.69228 0.73862 0.23027 0.0
C2013 C 0.69227 0.73711 0.14219 0.0
C2014 C 0.69245 0.75488 0.50221 0.0
C2015 C 0.6981 0.75114 0.54793 0.0
C2016 C 0.69239 0.75295 0.41436 0.0
C2017 C 0.69794 0.74664 0.36933 0.0
C2018 C 0.70358 0.74272 0.41598 0.0
C2019 C 0.70367 0.74523 0.50347 0.0
H2020 H 0.06402 0.033 0.10885 0.0
H2021 H 0.07856 0.98054 0.09899 0.0
H2022 H 0.06383 0.0302 0.2627 0.0
H2023 H 0.07816 0.97693 0.25236 0.0
H2024 H 0.069 0.96164 0.52269 0.0
H2025 H 0.06922 0.96437 0.3684 0.0
H2026 H 0.07235 0.03762 0.38634 0.0
H2027 H 0.07251 0.03463 0.53933 0.0
C2028 C 0.06717 0.02087 0.13951 0.0
C2029 C 0.07136 0.00719 0.09145 0.0
C2030 C 0.06706 0.01922 0.22772 0.0
C2031 C 0.07095 0.0032 0.27029 0.0
C2032 C 0.07508 0.98934 0.22197 0.0
C2033 C 0.07535 0.99157 0.13404 0.0
C2034 C 0.0697 0.9783 0.49355 0.0
C2035 C 0.07067 0.99795 0.54361 0.0
C2036 C 0.06986 0.97988 0.40515 0.0
C2037 C 0.07077 0.00126 0.36455 0.0
C2038 C 0.0716 0.02091 0.41501 0.0
C2039 C 0.07168 0.01919 0.50291 0.0
H2040 H 0.68806 0.01481 0.7253 0.0
H2041 H 0.70855 0.00608 0.72399 0.0
H2042 H 0.68783 0.01014 0.57444 0.0
H2043 H 0.70843 0.00282 0.57205 0.0
H2044 H 0.70637 0.97828 0.30351 0.0
H2045 H 0.70644 0.98148 0.45571 0.0
H2046 H 0.68948 0.02401 0.4445 0.0
H2047 H 0.68923 0.01946 0.29379 0.0
C2048 C 0.69255 0.01235 0.69263 0.0
C2049 C 0.69832 0.01093 0.73754 0.0
C2050 C 0.69244 0.00976 0.60514 0.0
C2051 C 0.69812 0.00604 0.55886 0.0
C2052 C 0.70391 0.00512 0.60411 0.0
C2053 C 0.70401 0.00732 0.69187 0.0
C2054 C 0.70261 0.98806 0.33384 0.0
C2055 C 0.69777 0.9984 0.28586 0.0
C2056 C 0.70268 0.99019 0.42168 0.0
C2057 C 0.69798 0.00315 0.46452 0.0
C2058 C 0.69313 0.01344 0.41578 0.0
C2059 C 0.693 0.01092 0.32835 0.0
H2060 H 0.08104 0.76683 0.30257 0.0
H2061 H 0.06198 0.73853 0.29834 0.0
H2062 H 0.08114 0.76473 0.45391 0.0
H2063 H 0.0622 0.73404 0.44879 0.0
H2064 H 0.06185 0.73864 0.72993 0.0
H2065 H 0.06158 0.74231 0.58 0.0
H2066 H 0.08225 0.74919 0.57652 0.0
H2067 H 0.08234 0.74713 0.728 0.0
C2068 C 0.07686 0.76 0.33444 0.0
C2069 C 0.07148 0.75309 0.2882 0.0
C2070 C 0.07693 0.75837 0.42227 0.0
C2071 C 0.07171 0.74889 0.46731 0.0
C2072 C 0.06632 0.74196 0.41971 0.0
C2073 C 0.06617 0.7444 0.3321 0.0
C2074 C 0.06634 0.74102 0.69705 0.0
C2075 C 0.07211 0.74266 0.74182 0.0
C2076 C 0.06622 0.74292 0.60946 0.0
C2077 C 0.07188 0.74627 0.56233 0.0
C2078 C 0.0777 0.74722 0.60788 0.0
C2079 C 0.0778 0.74559 0.69588 0.0
H2080 H 0.31278 0.73011 0.05331 0.0
H2081 H 0.33102 0.76486 0.04458 0.0
H2082 H 0.31271 0.73294 0.20452 0.0
H2083 H 0.33078 0.76967 0.19442 0.0
H2084 H 0.33158 0.76505 0.47531 0.0
H2085 H 0.33183 0.7606 0.32525 0.0
H2086 H 0.3113 0.74959 0.32551 0.0
H2087 H 0.31126 0.75214 0.4767 0.0
C2088 C 0.31679 0.73843 0.08385 0.0
C2089 C 0.32193 0.74701 1.03625 0.0
C2090 C 0.31672 0.74047 0.17159 0.0
C2091 C 0.32172 0.75176 0.21508 0.0
C2092 C 0.32686 0.76034 0.16632 0.0
C2093 C 0.327 0.75774 0.07894 0.0
C2094 C 0.32711 0.76169 0.4432 0.0
C2095 C 0.3214 0.75894 0.48881 0.0
C2096 C 0.32723 0.75928 0.35571 0.0
C2097 C 0.32159 0.75458 0.3098 0.0
C2098 C 0.31583 0.75253 0.35617 0.0
C2099 C 0.31576 0.75438 0.44395 0.0
H2100 H 0.9587 0.49273 0.47642 0.0
H2101 H 0.93805 0.49314 0.47783 0.0
H2102 H 0.95869 0.49609 0.32411 0.0
H2103 H 0.93801 0.49757 0.32661 0.0
H2104 H 0.93924 0.48449 0.04806 0.0
H2105 H 0.93947 0.48057 0.19869 0.0
H2106 H 0.9571 0.51955 0.20711 0.0
H2107 H 0.957 0.52254 0.05419 0.0
C2108 C 0.95415 0.4935 0.44438 0.0
C2109 C 0.94838 0.49244 0.49022 0.0
C2110 C 0.95413 0.49572 0.35651 0.0
C2111 C 0.94835 0.49722 0.31135 0.0
C2112 C 0.94259 0.49605 0.35762 0.0
C2113 C 0.9426 0.49356 0.44521 0.0
C2114 C 0.94318 0.4924 0.08157 0.0
C2115 C 0.9481 0.50395 1.0379 0.0
C2116 C 0.94329 0.49025 0.16904 0.0
C2117 C 0.94829 0.49977 0.21694 0.0
C2118 C 0.95319 0.51161 0.17332 0.0
C2119 C 0.95311 0.51359 0.08519 0.0
H2120 H 0.31137 0.48729 0.85858 0.0
H2121 H 0.33192 0.49406 0.85384 0.0
H2122 H 0.31145 0.49074 1.01086 0.0
H2123 H 0.33202 0.49906 1.00456 0.0
H2124 H 0.33154 0.48898 0.28511 0.0
H2125 H 0.33135 0.48407 0.13456 0.0
H2126 H 0.31236 0.51353 0.12694 0.0
H2127 H 0.31246 0.51721 0.27897 0.0
C2128 C 0.31591 0.48951 0.89006 0.0
C2129 C 0.32164 0.4901 0.8435 0.0
C2130 C 0.31597 0.49182 0.97789 0.0
C2131 C 0.32174 0.49531 1.02209 0.0
C2132 C 0.32746 0.49587 0.97476 0.0
C2133 C 0.32741 0.49308 0.88737 0.0
C2134 C 0.32733 0.49456 0.25147 0.0
C2135 C 0.32203 0.50361 0.29502 0.0
C2136 C 0.32722 0.49185 0.16409 0.0
C2137 C 0.32183 0.49838 0.11639 0.0
C2138 C 0.31657 0.50783 0.16019 0.0
C2139 C 0.31665 0.51027 0.24797 0.0
H2140 H 0.9379 0.76022 0.85234 0.0
H2141 H 0.95841 0.75165 0.84909 0.0
H2142 H 0.93786 0.7564 1.00375 0.0
H2143 H 0.95845 0.74898 1.0013 0.0
H2144 H 0.95635 0.72527 0.273 0.0
H2145 H 0.95637 0.72762 0.12014 0.0
H2146 H 0.93992 0.77262 0.13056 0.0
H2147 H 0.93971 0.76911 0.28156 0.0
C2148 C 0.94243 0.75786 0.88397 0.0
C2149 C 0.94815 0.75631 0.8377 0.0
C2150 C 0.94243 0.75578 0.97166 0.0
C2151 C 0.94816 0.75239 1.01666 0.0
C2152 C 0.9539 0.75113 0.97007 0.0
C2153 C 0.95389 0.75293 0.88218 0.0
C2154 C 0.9527 0.73543 0.24238 0.0
C2155 C 0.94798 0.74671 0.29016 0.0
C2156 C 0.95274 0.73703 0.15427 0.0
C2157 C 0.94813 0.75031 0.11118 0.0
C2158 C 0.94346 0.76171 0.15974 0.0
C2159 C 0.94336 0.75978 0.24729 0.0
H2160 H 0.70725 0.2298 0.60536 0.0
H2161 H 0.6881 0.25713 0.60228 0.0
H2162 H 0.70735 0.23161 0.75726 0.0
H2163 H 0.68831 0.26107 0.7533 0.0
H2164 H 0.68786 0.25247 1.0331 0.0
H2165 H 0.68767 0.24883 0.88288 0.0
H2166 H 0.70839 0.24999 0.8781 0.0
H2167 H 0.7085 0.25199 1.03014 0.0
C2168 C 0.70306 0.23633 0.63741 0.0
C2169 C 0.69765 0.24312 0.59136 0.0
C2170 C 0.70313 0.23774 0.72532 0.0
C2171 C 0.69787 0.24674 0.77048 0.0
C2172 C 0.69245 0.25351 0.72339 0.0
C2173 C 0.69231 0.25139 0.63569 0.0
C2174 C 0.69239 0.25187 1.00014 0.0
C2175 C 0.6982 0.25247 0.04465 0.0
C2176 C 0.6923 0.25003 0.91258 0.0
C2177 C 0.69801 0.24903 0.86531 0.0
C2178 C 0.70384 0.25017 0.91029 0.0
C2179 C 0.70392 0.25173 0.99835 0.0
H2180 H 0.08171 0.49458 1.03511 0.0
H2181 H 0.06146 0.50879 1.035 0.0
H2182 H 0.08199 0.49831 0.88366 0.0
H2183 H 0.06163 0.51165 0.88281 0.0
H2184 H 0.06415 0.53407 0.61224 0.0
H2185 H 0.06411 0.53195 0.76511 0.0
H2186 H 0.07994 0.48402 0.75477 0.0
H2187 H 0.08023 0.4879 0.60304 0.0
C2188 C 0.07729 0.49835 1.00256 0.0
C2189 C 0.07156 0.50133 0.04772 0.0
C2190 C 0.07743 0.50031 0.91486 0.0
C2191 C 0.07183 0.50536 0.86888 0.0
C2192 C 0.06608 0.50813 0.91459 0.0
C2193 C 0.06595 0.50614 1.00243 0.0
C2194 C 0.06767 0.52341 0.6432 0.0
C2195 C 0.07226 0.51149 0.59569 0.0
C2196 C 0.06762 0.52188 0.73121 0.0
C2197 C 0.07201 0.5077 0.77435 0.0
C2198 C 0.07656 0.49564 0.72572 0.0
C2199 C 0.07674 0.49777 0.63808 0.0
H2200 H 0.70794 0.49875 0.22812 0.0
H2201 H 0.68827 0.52129 0.22525 0.0
H2202 H 0.70787 0.49542 0.07728 0.0
H2203 H 0.68827 0.51924 0.07258 0.0
H2204 H 0.68803 0.49392 0.80175 0.0
H2205 H 0.68796 0.49688 0.95409 0.0
H2206 H 0.70822 0.51229 0.94989 0.0
H2207 H 0.70831 0.50777 0.79871 0.0
C2208 C 0.70361 0.50343 0.19522 0.0
C2209 C 0.69812 0.51039 0.23977 0.0
C2210 C 0.70358 0.50166 0.10764 0.0
C2211 C 0.69807 0.5071 0.06069 0.0
C2212 C 0.6926 0.51448 0.10538 0.0
C2213 C 0.69261 0.51597 0.19347 0.0
C2214 C 0.69248 0.49773 0.83365 0.0
C2215 C 0.69819 0.50037 0.78769 0.0
C2216 C 0.69244 0.4997 0.92149 0.0
C2217 C 0.69808 0.50488 0.96623 0.0
C2218 C 0.70378 0.50771 0.91944 0.0
C2219 C 0.70384 0.50524 0.83195 0.0
H2220 H 0.06323 0.27407 0.807 0.0
H2221 H 0.0805 0.23358 0.79626 0.0
H2222 H 0.06319 0.27102 0.95895 0.0
H2223 H 0.08025 0.22888 0.94652 0.0
H2224 H 0.08159 0.23604 0.22705 0.0
H2225 H 0.08181 0.24071 0.07651 0.0
H2226 H 0.06132 0.25166 0.07738 0.0
H2227 H 0.06126 0.2486 0.22896 0.0
C2228 C 0.06702 0.26444 0.8371 0.0
C2229 C 0.07189 0.25427 0.78885 0.0
C2230 C 0.06697 0.26236 0.92496 0.0
C2231 C 0.0717 0.24953 0.96761 0.0
C2232 C 0.07657 0.23938 0.91841 0.0
C2233 C 0.0767 0.24194 0.83103 0.0
C2234 C 0.07712 0.23936 0.1951 0.0
C2235 C 0.07141 0.24188 0.2409 0.0
C2236 C 0.07722 0.24192 0.10761 0.0
C2237 C 0.07158 0.24665 0.0621 0.0
C2238 C 0.06583 0.2486 0.1084 0.0
C2239 C 0.06576 0.24648 0.19615 0.0
H2240 H 0.83165 0.24511 0.04566 0.0
H2241 H 0.8112 0.25505 0.04903 0.0
H2242 H 0.83198 0.24922 0.19661 0.0
H2243 H 0.81142 0.25809 0.20114 0.0
H2244 H 0.81358 0.28044 0.47158 0.0
H2245 H 0.81348 0.27826 0.31895 0.0
H2246 H 0.83047 0.23571 0.3264 0.0
H2247 H 0.8308 0.23986 0.4778 0.0
C2248 C 0.82719 0.24799 0.07888 0.0
C2249 C 0.8214 0.24973 1.03463 0.0
C2250 C 0.82736 0.25014 0.16646 0.0
C2251 C 0.82173 0.25407 0.21348 0.0
C2252 C 0.81591 0.2555 0.1687 0.0
C2253 C 0.81575 0.25339 0.08085 0.0
C2254 C 0.81735 0.27101 0.44 0.0
C2255 C 0.82226 0.26068 0.48672 0.0
C2256 C 0.81726 0.26939 0.35204 0.0
C2257 C 0.82195 0.25664 0.30802 0.0
C2258 C 0.82684 0.24623 0.35587 0.0
C2259 C 0.82704 0.24852 0.44346 0.0
H2260 H 0.45782 0.98156 0.47205 0.0
H2261 H 0.43808 0.00278 0.47872 0.0
H2262 H 0.45779 0.9841 0.31985 0.0
H2263 H 0.43812 0.00742 0.32815 0.0
H2264 H 0.43772 0.99929 0.04766 0.0
H2265 H 0.43769 0.99452 0.19813 0.0
H2266 H 0.45824 0.00434 0.20133 0.0
H2267 H 0.45823 0.00756 0.0498 0.0
C2268 C 0.45347 0.98689 0.44081 0.0
C2269 C 0.44794 0.9917 0.48774 0.0
C2270 C 0.45346 0.98871 0.35291 0.0
C2271 C 0.44796 0.99617 0.30909 0.0
C2272 C 0.44243 0.00104 0.35715 0.0
C2273 C 0.4424 0.99852 0.44457 0.0
C2274 C 0.44224 1.00044 0.08051 0.0
C2275 C 0.44797 0.0039 1.03594 0.0
C2276 C 0.44223 0.9979 0.16796 0.0
C2277 C 0.44797 0.99899 0.2146 0.0
C2278 C 0.4537 0.00287 0.16945 0.0
C2279 C 0.4537 0.00514 0.08176 0.0
H2280 H 0.83179 0.99171 0.8521 0.0
H2281 H 0.8112 0.98816 0.85717 0.0
H2282 H 0.83196 0.99739 1.0025 0.0
H2283 H 0.81129 0.9919 1.00883 0.0
H2284 H 0.81213 0.01598 0.27842 0.0
H2285 H 0.81206 0.0124 0.12659 0.0
H2286 H 0.83141 0.98592 0.13417 0.0
H2287 H 0.83155 0.99104 0.28412 0.0
C2288 C 0.82729 0.9915 0.88582 0.0
C2289 C 0.82149 0.98928 0.84203 0.0
C2290 C 0.82736 0.9947 0.9732 0.0
C2291 C 0.82163 0.99519 1.02075 0.0
C2292 C 0.81583 0.9923 0.97635 0.0
C2293 C 0.81577 0.98976 0.88863 0.0
C2294 C 0.8164 0.00981 0.24731 0.0
C2295 C 0.82185 0.00398 0.29438 0.0
C2296 C 0.81635 0.00734 0.15943 0.0
C2297 C 0.82172 0.99863 0.11531 0.0
C2298 C 0.82718 0.99307 0.16322 0.0
C2299 C 0.82725 0.99585 0.25061 0.0
H2300 H 0.45839 0.25833 0.85692 0.0
H2301 H 0.43776 0.26048 0.85573 0.0
H2302 H 0.4583 0.25521 1.00906 0.0
H2303 H 0.4376 0.25591 1.00664 0.0
H2304 H 0.43866 0.26594 0.28707 0.0
H2305 H 0.43887 0.27053 0.13635 0.0
H2306 H 0.45674 0.23311 0.12534 0.0
H2307 H 0.45667 0.2298 0.27748 0.0
C2308 C 0.45382 0.25814 0.88912 0.0
C2309 C 0.44809 0.25988 0.84351 0.0
C2310 C 0.45375 0.25603 0.97694 0.0
C2311 C 0.44794 0.25512 1.02219 0.0
C2312 C 0.44221 0.25698 0.97592 0.0
C2313 C 0.44229 0.25952 0.88843 0.0
C2314 C 0.44263 0.25855 0.25262 0.0
C2315 C 0.44764 0.24742 0.2952 0.0
C2316 C 0.44274 0.26108 0.16517 0.0
C2317 C 0.44782 0.25224 0.11651 0.0
C2318 C 0.45278 0.24067 0.15937 0.0
C2319 C 0.45271 0.23847 0.2472 0.0
H2320 H 0.2083 0.74908 1.03339 0.0
H2321 H 0.18799 0.76157 1.02903 0.0
H2322 H 0.20832 0.74328 0.88384 0.0
H2323 H 0.18799 0.75801 0.87777 0.0
H2324 H 0.18795 0.73708 0.60623 0.0
H2325 H 0.18792 0.74024 0.75739 0.0
H2326 H 0.20842 0.75197 0.75222 0.0
H2327 H 0.2084 0.74701 0.60247 0.0
C2328 C 0.20385 0.75122 0.99984 0.0
C2329 C 0.19816 0.75596 0.04363 0.0
C2330 C 0.20383 0.748 0.91266 0.0
C2331 C 0.19816 0.7501 0.86509 0.0
C2332 C 0.19249 0.75552 0.90972 0.0
C2333 C 0.19248 0.75799 0.99739 0.0
C2334 C 0.19247 0.73987 0.63783 0.0
C2335 C 0.19818 0.74167 0.59148 0.0
C2336 C 0.19246 0.74215 0.72559 0.0
C2337 C 0.19816 0.74672 0.77047 0.0
C2338 C 0.20388 0.74816 0.72308 0.0
C2339 C 0.20389 0.7455 0.63567 0.0
H2340 H 0.58062 0.02714 0.60705 0.0
H2341 H 0.56229 0.99294 0.60329 0.0
H2342 H 0.58088 0.02404 0.75815 0.0
H2343 H 0.56222 0.99119 0.75352 0.0
H2344 H 0.56412 0.97665 1.02782 0.0
H2345 H 0.56433 0.97835 0.87675 0.0
H2346 H 0.57901 0.03117 0.88904 0.0
H2347 H 0.57913 0.02754 1.03963 0.0
C2348 C 0.57659 0.0192 0.63869 0.0
C2349 C 0.57144 0.01039 0.59222 0.0
C2350 C 0.57669 0.01753 0.72666 0.0
C2351 C 0.57158 0.00721 0.77178 0.0
C2352 C 0.56638 0.9988 0.72414 0.0
C2353 C 0.56634 1.00018 0.63646 0.0
C2354 C 0.56743 0.98848 0.99783 0.0
C2355 C 0.57162 0.00185 0.04625 0.0
C2356 C 0.56751 0.98979 0.90995 0.0
C2357 C 0.57165 0.00518 0.86693 0.0
C2358 C 0.57581 0.01868 0.91668 0.0
C2359 C 0.57586 0.01678 1.00439 0.0
H2360 H 0.18992 0.97887 0.80332 0.0
H2361 H 0.20698 0.02051 0.79584 0.0
H2362 H 0.18983 0.98081 0.95532 0.0
H2363 H 0.20663 0.02468 0.94684 0.0
H2364 H 0.20777 0.0175 0.22755 0.0
H2365 H 0.20807 0.0142 0.07692 0.0
H2366 H 0.18785 0.99748 0.07664 0.0
H2367 H 0.18776 0.99943 0.22856 0.0
C2368 C 0.19365 0.98859 0.83459 0.0
C2369 C 0.1985 0.99929 0.78751 0.0
C2370 C 0.19356 0.99008 0.92252 0.0
C2371 C 0.19819 0.00312 0.96649 0.0
C2372 C 0.20303 0.01392 0.91807 0.0
C2373 C 0.20324 0.01168 0.83042 0.0
C2374 C 0.20338 0.01306 0.19526 0.0
C2375 C 0.19774 0.00872 0.24087 0.0
C2376 C 0.20352 0.01137 0.10755 0.0
C2377 C 0.19799 0.00543 0.06141 0.0
C2378 C 0.19229 0.00162 0.10771 0.0
C2379 C 0.19218 0.00314 0.19575 0.0
H2380 H 0.58153 0.75709 0.80182 0.0
H2381 H 0.56123 0.74368 0.80046 0.0
H2382 H 0.58162 0.75411 0.95407 0.0
H2383 H 0.56134 0.73909 0.95161 0.0
H2384 H 0.56167 0.75192 0.2301 0.0
H2385 H 0.56171 0.75542 0.07943 0.0
H2386 H 0.58134 0.7319 0.07246 0.0
H2387 H 0.58137 0.72972 0.22511 0.0
C2388 C 0.57708 0.75338 0.83409 0.0
C2389 C 0.57136 0.75084 0.78857 0.0
C2390 C 0.57714 0.75138 0.92191 0.0
C2391 C 0.57149 0.74626 0.96715 0.0
C2392 C 0.56578 0.7436 0.92083 0.0
C2393 C 0.56571 0.74611 0.83333 0.0
C2394 C 0.56601 0.74735 0.19677 0.0
C2395 C 0.57152 0.74045 0.24073 0.0
C2396 C 0.56602 0.74921 0.10922 0.0
C2397 C 0.57152 0.74392 0.06162 0.0
C2398 C 0.57701 0.73657 0.10571 0.0
C2399 C 0.57702 0.73499 0.19382 0.0
H2400 H 0.83059 0.76887 0.54951 0.0
H2401 H 0.81273 0.73175 0.55851 0.0
H2402 H 0.83059 0.77227 0.69882 0.0
H2403 H 0.81276 0.73369 0.70868 0.0
H2404 H 0.81214 0.74362 0.98593 0.0
H2405 H 0.81208 0.74118 0.83698 0.0
H2406 H 0.83119 0.77078 0.83055 0.0
H2407 H 0.83097 0.77396 0.98082 0.0
C2408 C 0.82667 0.76106 0.58393 0.0
C2409 C 0.82166 0.74995 0.54118 0.0
C2410 C 0.82665 0.76293 0.67155 0.0
C2411 C 0.82167 0.7534 0.72099 0.0
C2412 C 0.81671 0.74188 0.67691 0.0
C2413 C 0.81668 0.74045 0.58899 0.0
C2414 C 0.81631 0.74986 0.95253 0.0
C2415 C 0.82154 0.75918 0.99633 0.0
C2416 C 0.81633 0.74824 0.86498 0.0
C2417 C 0.82164 0.75556 0.81653 0.0
C2418 C 0.8269 0.76497 0.86157 0.0
C2419 C 0.82682 0.76685 0.9495 0.0
H2420 H 0.43798 0.50451 0.98199 0.0
H2421 H 0.45783 0.48445 0.97668 0.0
H2422 H 0.43807 0.50886 0.8307 0.0
H2423 H 0.45787 0.48735 0.82407 0.0
H2424 H 0.45795 0.51396 0.5545 0.0
H2425 H 0.45799 0.51091 0.70706 0.0
H2426 H 0.43799 0.49174 0.70256 0.0
H2427 H 0.43791 0.49587 0.55181 0.0
C2428 C 0.44234 0.50054 0.94824 0.0
C2429 C 0.44789 0.49405 0.99196 0.0
C2430 C 0.4424 0.50295 0.86071 0.0
C2431 C 0.44798 0.49847 0.81328 0.0
C2432 C 0.4535 0.4915 0.85733 0.0
C2433 C 0.45347 0.48957 0.94525 0.0
C2434 C 0.45354 0.50948 0.5863 0.0
C2435 C 0.44792 0.5054 0.5401 0.0
C2436 C 0.45357 0.50738 0.67426 0.0
C2437 C 0.44799 0.50102 0.71892 0.0
C2438 C 0.44238 0.49711 0.67212 0.0
C2439 C 0.44234 0.49935 0.58465 0.0
H2440 H 0.81346 0.51581 0.35178 0.0
H2441 H 0.83005 0.47189 0.36022 0.0
H2442 H 0.81339 0.51869 0.50072 0.0
H2443 H 0.8298 0.47293 0.51148 0.0
H2444 H 0.83045 0.4839 0.78999 0.0
H2445 H 0.83076 0.4817 0.64014 0.0
H2446 H 0.81202 0.51391 0.63045 0.0
H2447 H 0.81206 0.51726 0.78037 0.0
C2448 C 0.81706 0.5063 0.38602 0.0
C2449 C 0.82174 0.4935 0.3432 0.0
C2450 C 0.81701 0.50777 0.47352 0.0
C2451 C 0.82155 0.49597 0.52297 0.0
C2452 C 0.82621 0.48282 0.47909 0.0
C2453 C 0.82635 0.4819 0.39092 0.0
C2454 C 0.82643 0.49077 0.75549 0.0
C2455 C 0.82125 0.50095 0.79799 0.0
C2456 C 0.82655 0.48928 0.66781 0.0
C2457 C 0.82143 0.49758 0.61844 0.0
C2458 C 0.8162 0.50756 0.66232 0.0
C2459 C 0.81615 0.50937 0.75008 0.0
H2460 H 0.45164 0.71344 0.77386 0.0
H2461 H 0.44502 0.78357 0.7835 0.0
H2462 H 0.45139 0.7147 0.62052 0.0
H2463 H 0.44518 0.78568 0.63145 0.0
H2464 H 0.44019 0.77803 0.3561 0.0
H2465 H 0.44022 0.77572 0.50854 0.0
H2466 H 0.45596 0.72756 0.49729 0.0
H2467 H 0.45576 0.72949 0.34502 0.0
C2468 C 0.45021 0.72923 0.74306 0.0
C2469 C 0.44829 0.74832 0.7909 0.0
C2470 C 0.4501 0.73009 0.6548 0.0
C2471 C 0.44823 0.75031 0.6118 0.0
C2472 C 0.44646 0.76953 0.66071 0.0
C2473 C 0.44642 0.76842 0.74854 0.0
C2474 C 0.44364 0.76687 0.38621 0.0
C2475 C 0.44798 0.75403 0.33777 0.0
C2476 C 0.44371 0.76567 0.47426 0.0
C2477 C 0.44812 0.75147 0.51704 0.0
C2478 C 0.45244 0.73852 0.46799 0.0
C2479 C 0.45238 0.73983 0.38003 0.0
H2480 H 0.20815 0.24535 0.10549 0.0
H2481 H 0.18775 0.23444 0.1054 0.0
H2482 H 0.20804 0.24901 0.25613 0.0
H2483 H 0.18743 0.23995 0.25484 0.0
H2484 H 0.18776 0.24008 0.53622 0.0
H2485 H 0.18799 0.23447 0.38724 0.0
H2486 H 0.20699 0.26459 0.37809 0.0
H2487 H 0.20683 0.26837 0.52886 0.0
C2488 C 0.20361 0.24374 0.1379 0.0
C2489 C 0.19797 0.23939 0.09261 0.0
C2490 C 0.2035 0.24625 0.22556 0.0
C2491 C 0.1977 0.24519 0.27167 0.0
C2492 C 0.19207 0.24062 0.22522 0.0
C2493 C 0.19222 0.2375 0.13786 0.0
C2494 C 0.19199 0.24556 0.50232 0.0
C2495 C 0.19727 0.25473 0.54554 0.0
C2496 C 0.19214 0.24248 0.41508 0.0
C2497 C 0.19753 0.24885 0.36647 0.0
C2498 C 0.20275 0.25872 0.41042 0.0
C2499 C 0.20265 0.26136 0.49814 0.0
H2500 H 0.56842 0.4667 0.5322 0.0
H2501 H 0.57466 0.5373 0.54755 0.0
H2502 H 0.56878 0.46874 0.37936 0.0
H2503 H 0.57458 0.54017 0.39499 0.0
H2504 H 0.57923 0.53388 0.11514 0.0
H2505 H 0.57936 0.53148 0.26808 0.0
H2506 H 0.56396 0.48172 0.25963 0.0
H2507 H 0.56398 0.48381 0.10786 0.0
C2508 C 0.56978 0.48279 0.50266 0.0
C2509 C 0.57151 0.5018 0.55205 0.0
C2510 C 0.56995 0.4841 0.41458 0.0
C2511 C 0.57168 0.50472 0.37292 0.0
C2512 C 0.57335 0.5238 0.42325 0.0
C2513 C 0.57335 0.52225 0.51123 0.0
C2514 C 0.57588 0.52245 0.14613 0.0
C2515 C 0.57156 0.50922 0.0986 0.0
C2516 C 0.57591 0.52113 0.23439 0.0
C2517 C 0.57167 0.50635 0.27808 0.0
C2518 C 0.56738 0.49311 0.2298 0.0
C2519 C 0.56732 0.49456 0.14197 0.0
H2520 H 0.20735 0.48207 0.30128 0.0
H2521 H 0.18854 0.51249 0.29414 0.0
H2522 H 0.20746 0.48572 0.45298 0.0
H2523 H 0.18877 0.5177 0.44426 0.0
H2524 H 0.18809 0.51005 0.72555 0.0
H2525 H 0.18791 0.50516 0.57505 0.0
H2526 H 0.20862 0.50656 0.57021 0.0
H2527 H 0.20872 0.50968 0.72213 0.0
C2528 C 0.20322 0.48953 0.33206 0.0
C2529 C 0.19792 0.49674 0.28478 0.0
C2530 C 0.20331 0.492 0.4198 0.0
C2531 C 0.19813 0.50218 0.46342 0.0
C2532 C 0.19283 0.50931 0.41532 0.0
C2533 C 0.1927 0.50645 0.32801 0.0
C2534 C 0.19261 0.50946 0.69232 0.0
C2535 C 0.19842 0.51032 0.73661 0.0
C2536 C 0.19252 0.50675 0.60489 0.0
C2537 C 0.19825 0.50535 0.55783 0.0
C2538 C 0.20407 0.50691 0.60257 0.0
C2539 C 0.20415 0.50906 0.69039 0.0
H2540 H 0.56174 0.26634 0.30089 0.0
H2541 H 0.58126 0.24254 0.29394 0.0
H2542 H 0.56169 0.26297 0.45229 0.0
H2543 H 0.58116 0.23738 0.44334 0.0
H2544 H 0.58155 0.24039 0.72535 0.0
H2545 H 0.58172 0.2458 0.57522 0.0
H2546 H 0.56097 0.2456 0.57311 0.0
H2547 H 0.56094 0.24227 0.72418 0.0
C2548 C 0.56604 0.26045 0.33176 0.0
C2549 C 0.57151 0.25493 0.2844 0.0
C2550 C 0.56601 0.25805 0.41963 0.0
C2551 C 0.57141 0.24963 0.46359 0.0
C2552 C 0.57689 0.24431 0.41509 0.0
C2553 C 0.57694 0.24709 0.32775 0.0
C2554 C 0.57703 0.24134 0.69248 0.0
C2555 C 0.57124 0.24074 0.73738 0.0
C2556 C 0.57709 0.24437 0.60502 0.0
C2557 C 0.57135 0.24627 0.55839 0.0
C2558 C 0.56555 0.24493 0.60417 0.0
C2559 C 0.56551 0.2426 0.69187 0.0
H2560 H 0.32211 0.41582 0.60246 0.0
H2561 H 0.32253 0.44512 0.35457 0.0
H2562 H 0.3232 0.37699 0.54151 0.0
H2563 H 0.32382 0.40693 0.29406 0.0
H2564 H 0.31415 0.33867 0.21937 0.0
H2565 H 0.3161 0.37662 0.27833 0.0
H2566 H 0.32921 0.34707 0.45712 0.0
H2567 H 0.32724 0.30863 0.39623 0.0
C2568 C 0.32268 0.41404 0.53532 0.0
C2569 C 0.32221 0.43352 0.48325 0.0
C2570 C 0.32328 0.39178 0.50018 0.0
C2571 C 0.32346 0.38863 0.41239 0.0
C2572 C 0.32353 0.40845 0.36157 0.0
C2573 C 0.32285 0.43045 0.39635 0.0
C2574 C 0.31759 0.34032 0.26973 0.0
C2575 C 0.32062 0.32069 0.30195 0.0
C2576 C 0.31872 0.36216 0.30386 0.0
C2577 C 0.32284 0.36516 0.37277 0.0
C2578 C 0.326 0.34551 0.40426 0.0
C2579 C 0.32495 0.32352 0.36865 0.0
H2580 H 0.95187 0.83332 0.60111 0.0
H2581 H 0.94352 0.80859 0.37194 0.0
H2582 H 0.95082 0.8728 0.55233 0.0
H2583 H 0.94194 0.84815 0.32441 0.0
H2584 H 0.94818 0.91854 0.21542 0.0
H2585 H 0.94691 0.87919 0.26738 0.0
H2586 H 0.9456 0.90538 0.52076 0.0
H2587 H 0.94739 0.94413 0.46833 0.0
C2588 C 0.94955 0.83648 0.54157 0.0
C2589 C 0.9477 0.81795 0.49083 0.0
C2590 C 0.94892 0.85926 0.51304 0.0
C2591 C 0.94631 0.86421 0.43333 0.0
C2592 C 0.94413 0.84542 0.38493 0.0
C2593 C 0.94492 0.82264 0.41271 0.0
C2594 C 0.9475 0.91576 0.28195 0.0
C2595 C 0.94791 0.93435 0.3378 0.0
C2596 C 0.94676 0.89312 0.31232 0.0
C2597 C 0.94627 0.88855 0.39931 0.0
C2598 C 0.9462 0.90765 0.45395 0.0
C2599 C 0.94712 0.93007 0.42378 0.0
H2600 H 0.3291 0.92953 0.05013 0.0
H2601 H 0.31129 0.93227 0.91415 0.0
H2602 H 0.33087 0.89005 0.99668 0.0
H2603 H 0.31299 0.89364 0.86249 0.0
H2604 H 0.31926 0.83298 0.71568 0.0
H2605 H 0.31993 0.87305 0.7635 0.0
H2606 H 0.32605 0.8498 1.00731 0.0
H2607 H 0.32528 0.80977 0.95925 0.0
C2608 C 0.32555 0.92173 1.00968 0.0
C2609 C 0.32007 0.93419 0.98634 0.0
C2610 C 0.32657 0.89917 0.97872 0.0
C2611 C 0.32213 0.88875 0.92359 0.0
C2612 C 0.31662 0.9012 0.90239 0.0
C2613 C 0.31562 0.92344 0.93295 0.0
C2614 C 0.32097 0.83651 0.77842 0.0
C2615 C 0.32228 0.8183 0.83346 0.0
C2616 C 0.32128 0.85945 0.8064 0.0
C2617 C 0.32297 0.86475 0.88989 0.0
C2618 C 0.32475 0.84649 0.94281 0.0
C2619 C 0.32431 0.82354 0.91524 0.0
H2620 H 0.941 0.42935 0.77754 0.0
H2621 H 0.9586 0.43159 0.91847 0.0
H2622 H 0.93895 0.39012 0.83226 0.0
H2623 H 0.95661 0.39331 0.97147 0.0
H2624 H 0.95008 0.33253 0.11483 0.0
H2625 H 0.94939 0.3727 0.06819 0.0
H2626 H 0.94391 0.34981 0.82125 0.0
H2627 H 0.94472 0.30968 0.86806 0.0
C2628 C 0.94442 0.42155 0.81966 0.0
C2629 C 0.94996 0.43372 0.84343 0.0
C2630 C 0.94325 0.39913 0.85124 0.0
C2631 C 0.94757 0.38863 0.90765 0.0
C2632 C 0.95308 0.40093 0.93033 0.0
C2633 C 0.95425 0.42297 0.89898 0.0
C2634 C 0.94852 0.33615 0.05153 0.0
C2635 C 0.94742 0.31803 0.99521 0.0
C2636 C 0.94818 0.35915 1.02433 0.0
C2637 C 0.94666 0.36458 0.94043 0.0
C2638 C 0.94508 0.34638 0.88611 0.0
C2639 C 0.94554 0.32338 0.91291 0.0
H2640 H 0.70883 0.66642 0.82391 0.0
H2641 H 0.69108 0.68837 0.71258 0.0
H2642 H 0.70775 0.62892 0.7578 0.0
H2643 H 0.68999 0.65021 0.64484 0.0
H2644 H 0.6907 0.56478 0.60532 0.0
H2645 H 0.68942 0.60282 0.67349 0.0
H2646 H 0.70868 0.62072 0.60034 0.0
H2647 H 0.70993 0.58351 0.53324 0.0
C2648 C 0.70461 0.66309 0.78638 0.0
C2649 C 0.70007 0.68053 0.7734 0.0
C2650 C 0.70401 0.64155 0.74798 0.0
C2651 C 0.69885 0.63658 0.69457 0.0
C2652 C 0.69403 0.65343 0.68553 0.0
C2653 C 0.69464 0.67526 0.72454 0.0
C2654 C 0.69459 0.5771 0.60239 0.0
C2655 C 0.70044 0.57094 0.56422 0.0
C2656 C 0.69387 0.59886 0.6416 0.0
C2657 C 0.699 0.61472 0.64386 0.0
C2658 C 0.70467 0.60886 0.60142 0.0
C2659 C 0.70537 0.58745 0.56243 0.0
H2660 H 0.07557 0.07801 0.84327 0.0
H2661 H 0.06523 0.05968 0.61946 0.0
H2662 H 0.0771 0.11737 0.78701 0.0
H2663 H 0.06694 0.09779 0.56289 0.0
H2664 H 0.06129 0.17326 0.55184 0.0
H2665 H 0.06199 0.13353 0.59858 0.0
H2666 H 0.08156 0.14473 0.67508 0.0
H2667 H 0.08077 0.18518 0.62791 0.0
C2668 C 0.07377 0.08214 0.7815 0.0
C2669 C 0.0702 0.06572 0.7364 0.0
C2670 C 0.07465 0.10467 0.74908 0.0
C2671 C 0.07201 0.11106 0.67092 0.0
C2672 C 0.06889 0.09392 0.6241 0.0
C2673 C 0.06795 0.07185 0.65652 0.0
C2674 C 0.0658 0.16711 0.57655 0.0
C2675 C 0.07102 0.18218 0.58403 0.0
C2676 C 0.06622 0.14426 0.60374 0.0
C2677 C 0.07186 0.13562 0.64033 0.0
C2678 C 0.07714 0.15069 0.64738 0.0
C2679 C 0.07673 0.17374 0.61918 0.0
H2680 H 0.69714 0.08559 0.98002 0.0
H2681 H 0.69786 0.05669 0.2284 0.0
H2682 H 0.696 0.12443 0.0411 0.0
H2683 H 0.69655 0.09484 0.28899 0.0
H2684 H 0.70619 0.16381 0.35515 0.0
H2685 H 0.70431 0.12576 0.29678 0.0
H2686 H 0.68997 0.15386 0.13172 0.0
H2687 H 0.69187 0.19246 0.192 0.0
C2688 C 0.69682 0.08743 0.0474 0.0
C2689 C 0.69763 0.06808 0.09942 0.0
C2690 C 0.69618 0.10969 0.08259 0.0
C2691 C 0.69632 0.11295 0.17033 0.0
C2692 C 0.69659 0.09322 0.22141 0.0
C2693 C 0.69729 0.07124 0.18657 0.0
C2694 C 0.70251 0.16183 0.30799 0.0
C2695 C 0.69911 0.18112 0.27944 0.0
C2696 C 0.70142 0.13993 0.27421 0.0
C2697 C 0.69696 0.1365 0.20932 0.0
C2698 C 0.69344 0.15578 0.18144 0.0
C2699 C 0.69446 0.17784 0.21677 0.0
H2700 H 0.06522 0.66384 0.95594 0.0
H2701 H 0.07603 0.69301 0.15934 0.0
H2702 H 0.06668 0.62542 1.01427 0.0
H2703 H 0.07723 0.65439 0.22132 0.0
H2704 H 0.07947 0.57503 0.29175 0.0
H2705 H 0.08097 0.61247 0.21965 0.0
H2706 H 0.06144 0.60914 0.13263 0.0
H2707 H 0.05999 0.57284 0.203 0.0
C2708 C 0.06802 0.66193 1.0125 0.0
C2709 C 0.07051 0.68142 0.0528 0.0
C2710 C 0.06881 0.6399 0.0467 0.0
C2711 C 0.07193 0.63667 0.12413 0.0
C2712 C 0.07482 0.65607 0.16173 0.0
C2713 C 0.07414 0.67823 0.12615 0.0
C2714 C 0.07553 0.58239 0.25681 0.0
C2715 C 0.06959 0.5709 0.25374 0.0
C2716 C 0.07638 0.60386 0.21566 0.0
C2717 C 0.07135 0.61386 0.16888 0.0
C2718 C 0.06548 0.60203 0.16608 0.0
C2719 C 0.06462 0.58113 0.20772 0.0
H2720 H 0.80875 0.43135 0.95755 0.0
H2721 H 0.82834 0.42953 0.04186 0.0
H2722 H 0.80994 0.39393 0.89453 0.0
H2723 H 0.82948 0.39046 0.98076 0.0
H2724 H 0.82865 0.32551 0.78578 0.0
H2725 H 0.82943 0.36451 0.84852 0.0
H2726 H 0.81039 0.35638 0.95008 0.0
H2727 H 0.80953 0.31902 0.8858 0.0
C2728 C 0.81333 0.42279 0.96369 0.0
C2729 C 0.8184 0.4334 1.00663 0.0
C2730 C 0.81401 0.40108 0.92745 0.0
C2731 C 0.81975 0.38859 0.93423 0.0
C2732 C 0.82497 0.39943 0.97453 0.0
C2733 C 0.82431 0.42173 1.01006 0.0
C2734 C 0.82466 0.33223 0.8216 0.0
C2735 C 0.81896 0.31933 0.82872 0.0
C2736 C 0.82511 0.35451 0.85794 0.0
C2737 C 0.8199 0.36407 0.9027 0.0
C2738 C 0.81442 0.35026 0.91367 0.0
C2739 C 0.81394 0.32858 0.87671 0.0
H2740 H 0.44707 0.91835 0.72331 0.0
H2741 H 0.44692 0.94429 0.97605 0.0
H2742 H 0.44586 0.87899 0.77679 0.0
H2743 H 0.44535 0.90546 1.02988 0.0
H2744 H 0.45309 0.83384 0.09954 0.0
H2745 H 0.45166 0.87334 0.05141 0.0
H2746 H 0.44033 0.84867 0.84345 0.0
H2747 H 0.44198 0.80906 0.8916 0.0
C2748 C 0.44653 0.91569 0.7901 0.0
C2749 C 0.4471 0.93434 0.84554 0.0
C2750 C 0.44585 0.89308 0.82116 0.0
C2751 C 0.44564 0.88871 0.90833 0.0
C2752 C 0.44571 0.9078 0.96276 0.0
C2753 C 0.44652 0.93019 0.93187 0.0
C2754 C 0.45014 0.83699 0.04498 0.0
C2755 C 0.4476 0.81845 0.99973 0.0
C2756 C 0.44931 0.8597 1.01692 0.0
C2757 C 0.44589 0.86453 0.94272 0.0
C2758 C 0.44309 0.84584 0.89977 0.0
C2759 C 0.44398 0.8231 0.92773 0.0
H2760 H 0.80966 0.83453 0.26667 0.0
H2761 H 0.82813 0.81287 0.35664 0.0
H2762 H 0.81137 0.87261 0.32547 0.0
H2763 H 0.82988 0.85162 0.41693 0.0
H2764 H 0.82367 0.91764 0.59811 0.0
H2765 H 0.82466 0.87877 0.53565 0.0
H2766 H 0.81857 0.90601 0.29747 0.0
H2767 H 0.81753 0.94402 0.35892 0.0
C2768 C 0.81415 0.83803 0.2981 0.0
C2769 C 0.81878 0.8207 0.30588 0.0
C2770 C 0.81514 0.85995 0.33202 0.0
C2771 C 0.82078 0.86535 0.37588 0.0
C2772 C 0.82547 0.84806 0.38377 0.0
C2773 C 0.82451 0.82597 0.34839 0.0
C2774 C 0.8227 0.9153 0.53206 0.0
C2775 C 0.8204 0.93383 0.48388 0.0
C2776 C 0.82326 0.89307 0.4962 0.0
C2777 C 0.82154 0.88913 0.4118 0.0
C2778 C 0.81979 0.9082 0.36292 0.0
C2779 C 0.8192 0.93007 0.39835 0.0
H2780 H 0.44084 0.31088 0.41238 0.0
H2781 H 0.45526 0.33248 0.58784 0.0
H2782 H 0.43947 0.35093 0.36614 0.0
H2783 H 0.45411 0.37218 0.54086 0.0
H2784 H 0.44941 0.44421 0.4829 0.0
H2785 H 0.44793 0.4055 0.53752 0.0
H2786 H 0.44475 0.38036 0.28622 0.0
H2787 H 0.44597 0.41978 0.23211 0.0
C2788 C 0.4436 0.32435 0.44248 0.0
C2789 C 0.44803 0.31874 0.50535 0.0
C2790 C 0.44289 0.34727 0.41516 0.0
C2791 C 0.44666 0.3651 0.44951 0.0
C2792 C 0.45099 0.35927 0.51387 0.0
C2793 C 0.45167 0.33645 0.54121 0.0
C2794 C 0.44825 0.43048 0.4394 0.0
C2795 C 0.44785 0.43503 0.35314 0.0
C2796 C 0.44747 0.40815 0.47068 0.0
C2797 C 0.44639 0.38942 0.4165 0.0
C2798 C 0.44557 0.39421 0.33029 0.0
C2799 C 0.44626 0.41683 0.29898 0.0
H2800 H 0.20129 0.56206 0.2202 0.0
H2801 H 0.19408 0.57923 0.97524 0.0
H2802 H 0.19955 0.60131 0.26698 0.0
H2803 H 0.19221 0.619 1.02265 0.0
H2804 H 0.2004 0.69106 0.10085 0.0
H2805 H 0.19885 0.65157 0.05449 0.0
H2806 H 0.19269 0.63263 0.3037 0.0
H2807 H 0.19434 0.67258 0.35027 0.0
C2808 C 0.19922 0.57422 0.17649 0.0
C2809 C 0.19791 0.56754 0.09349 0.0
C2810 C 0.19816 0.59681 0.20377 0.0
C2811 C 0.19579 0.61366 0.14882 0.0
C2812 C 0.19414 0.60667 0.06666 0.0
C2813 C 0.19516 0.58382 1.03941 0.0
C2814 C 0.19862 0.67855 0.14561 0.0
C2815 C 0.19756 0.68494 0.22952 0.0
C2816 C 0.19767 0.65582 0.11871 0.0
C2817 C 0.1957 0.63859 0.1751 0.0
C2818 C 0.19431 0.64528 0.25845 0.0
C2819 C 0.19519 0.66822 0.28525 0.0
H2820 H 0.57893 0.0671 0.24119 0.0
H2821 H 0.5588 0.08101 0.27428 0.0
H2822 H 0.58038 0.10624 0.18174 0.0
H2823 H 0.56019 0.11898 0.21504 0.0
H2824 H 0.56467 0.19243 0.20968 0.0
H2825 H 0.56588 0.15432 0.26819 0.0
H2826 H 0.57611 0.13246 0.04717 0.0
H2827 H 0.57494 0.17166 0.98733 0.0
C2828 C 0.57484 0.07846 0.23648 0.0
C2829 C 0.56876 0.07095 0.26371 0.0
C2830 C 0.57565 0.10074 0.20157 0.0
C2831 C 0.5704 0.11585 0.19394 0.0
C2832 C 0.56437 0.10805 0.22092 0.0
C2833 C 0.56357 0.08614 0.2552 0.0
C2834 C 0.56726 0.17971 0.17323 0.0
C2835 C 0.56957 0.18505 0.09275 0.0
C2836 C 0.56796 0.15775 0.20719 0.0
C2837 C 0.57097 0.1401 0.16195 0.0
C2838 C 0.57374 0.14566 0.08359 0.0
C2839 C 0.57305 0.16805 0.04916 0.0
H2840 H 0.19163 0.06001 0.636 0.0
H2841 H 0.20646 0.08817 0.4783 0.0
H2842 H 0.18979 0.09862 0.69658 0.0
H2843 H 0.20469 0.12612 0.53735 0.0
H2844 H 0.19866 0.19542 0.60565 0.0
H2845 H 0.19724 0.15755 0.5435 0.0
H2846 H 0.19566 0.12755 0.7901 0.0
H2847 H 0.19691 0.16618 0.85278 0.0
C2848 C 0.19435 0.07452 0.61246 0.0
C2849 C 0.19913 0.07109 0.55126 0.0
C2850 C 0.19337 0.09659 0.64801 0.0
C2851 C 0.19707 0.1157 0.62197 0.0
C2852 C 0.20166 0.11212 0.55846 0.0
C2853 C 0.20269 0.09025 0.52429 0.0
C2854 C 0.19787 0.18085 0.64685 0.0
C2855 C 0.19796 0.18383 0.7342 0.0
C2856 C 0.19709 0.15902 0.61111 0.0
C2857 C 0.1965 0.13922 0.66144 0.0
C2858 C 0.19611 0.14234 0.74915 0.0
C2859 C 0.19682 0.16448 0.78525 0.0
H2860 H 0.5746 0.58497 0.85624 0.0
H2861 H 0.56504 0.55713 0.63995 0.0
H2862 H 0.57568 0.62238 0.78434 0.0
H2863 H 0.56631 0.5937 0.56709 0.0
H2864 H 0.5597 0.6673 0.52267 0.0
H2865 H 0.56097 0.6292 0.58141 0.0
H2866 H 0.57982 0.64756 0.66983 0.0
H2867 H 0.57845 0.68656 0.61084 0.0
C2868 C 0.5729 0.58668 0.79254 0.0
C2869 C 0.5697 0.5682 0.75381 0.0
C2870 C 0.57352 0.6081 0.75111 0.0
C2871 C 0.57096 0.61141 0.67013 0.0
C2872 C 0.56818 0.59222 0.63003 0.0
C2873 C 0.5675 0.5711 0.67152 0.0
C2874 C 0.56418 0.66322 0.55335 0.0
C2875 C 0.56898 0.68004 0.5614 0.0
C2876 C 0.56493 0.64116 0.58699 0.0
C2877 C 0.57053 0.63494 0.6304 0.0
C2878 C 0.57543 0.65164 0.63725 0.0
C2879 C 0.57468 0.67393 0.60265 0.0
H2880 H 0.31599 0.19164 0.14838 0.0
H2881 H 0.32935 0.17185 0.34015 0.0
H2882 H 0.31437 0.15073 0.11234 0.0
H2883 H 0.32785 0.13163 0.30497 0.0
H2884 H 0.32276 0.05922 0.26692 0.0
H2885 H 0.32134 0.09928 0.30711 0.0
H2886 H 0.31978 0.11832 0.04635 0.0
H2887 H 0.32087 0.07754 1.00668 0.0
C2888 C 0.31842 0.17853 0.1845 0.0
C2889 C 0.32273 0.18495 0.24805 0.0
C2890 C 0.31758 0.15507 0.16307 0.0
C2891 C 0.32096 0.13753 0.20553 0.0
C2892 C 0.32505 0.14425 0.27132 0.0
C2893 C 0.32593 0.16748 0.2917 0.0
C2894 C 0.32201 0.0719 0.21812 0.0
C2895 C 0.322 0.0652 0.1336 0.0
C2896 C 0.32124 0.09503 0.2411 0.0
C2897 C 0.32061 0.11246 0.18021 0.0
C2898 C 0.32024 0.10556 0.0954 0.0
C2899 C 0.32088 0.08216 0.0724 0.0
H2900 H 0.9518 0.17923 1.01147 0.0
H2901 H 0.9447 0.18745 0.26357 0.0
H2902 H 0.95287 0.13756 1.03541 0.0
H2903 H 0.94573 0.14622 0.28746 0.0
H2904 H 0.95117 0.07163 0.32775 0.0
H2905 H 0.95283 0.113 0.30291 0.0
H2906 H 0.94532 0.10541 0.05268 0.0
H2907 H 0.94369 0.06441 0.07761 0.0
C2908 C 0.95058 0.17222 0.07233 0.0
C2909 C 0.94813 0.18664 0.1354 0.0
C2910 C 0.95115 0.14832 0.08602 0.0
C2911 C 0.94936 0.13837 0.16343 0.0
C2912 C 0.94722 0.15312 0.22746 0.0
C2913 C 0.94659 0.17683 0.2135 0.0
C2914 C 0.94996 0.0788 0.26718 0.0
C2915 C 0.94722 0.06479 0.20506 0.0
C2916 C 0.95088 0.10253 0.25292 0.0
C2917 C 0.94917 0.11271 0.17578 0.0
C2918 C 0.94675 0.09831 0.11251 0.0
C2919 C 0.94575 0.07476 0.12712 0.0
H2920 H 0.69533 0.93827 0.82089 0.0
H2921 H 0.70106 0.93081 0.07866 0.0
H2922 H 0.6966 0.89691 0.7993 0.0
H2923 H 0.70232 0.88914 0.05742 0.0
H2924 H 0.69378 0.81555 1.01199 0.0
H2925 H 0.69498 0.85677 1.03488 0.0
H2926 H 0.70391 0.86364 0.79196 0.0
H2927 H 0.70265 0.82197 0.76889 0.0
C2928 C 0.69695 0.92778 0.87279 0.0
C2929 C 0.69807 0.93785 0.95161 0.0
C2930 C 0.69772 0.90402 0.86023 0.0
C2931 C 0.69954 0.88948 0.92653 0.0
C2932 C 0.70086 0.8997 1.00494 0.0
C2933 C 0.70018 0.92362 1.01714 0.0
C2934 C 0.69609 0.82575 0.96378 0.0
C2935 C 0.69808 0.81542 0.88833 0.0
C2936 C 0.69682 0.84947 0.97721 0.0
C2937 C 0.69952 0.86374 0.91532 0.0
C2938 C 0.70174 0.85327 0.84081 0.0
C2939 C 0.70107 0.82936 0.82768 0.0
H2940 H 0.08104 0.93804 0.95498 0.0
H2941 H 0.06609 0.92696 0.77387 0.0
H2942 H 0.07983 0.8988 1.00501 0.0
H2943 H 0.06504 0.88657 0.82201 0.0
H2944 H 0.06429 0.8149 0.98169 0.0
H2945 H 0.06281 0.856 0.94315 0.0
H2946 H 0.08332 0.86447 0.93264 0.0
H2947 H 0.08476 0.82494 0.97202 0.0
C2948 C 0.07745 0.92716 0.92607 0.0
C2949 C 0.07375 0.93551 0.8595 0.0
C2950 C 0.07676 0.90455 0.95465 0.0
C2951 C 0.07246 0.88914 0.91622 0.0
C2952 C 0.06842 0.89787 0.85299 0.0
C2953 C 0.06903 0.92095 0.82514 0.0
C2954 C 0.06845 0.82572 0.97158 0.0
C2955 C 0.07465 0.81655 0.98142 0.0
C2956 C 0.06761 0.84921 0.94904 0.0
C2957 C 0.07295 0.86383 0.93629 0.0
C2958 C 0.07908 0.85418 0.94421 0.0
C2959 C 0.0799 0.83122 0.9667 0.0
H2960 H 0.31328 0.68745 0.6411 0.0
H2961 H 0.33052 0.67737 0.78348 0.0
H2962 H 0.31242 0.64558 0.61903 0.0
H2963 H 0.3298 0.63592 0.76087 0.0
H2964 H 0.3252 0.56126 0.76612 0.0
H2965 H 0.32413 0.60209 0.79597 0.0
H2966 H 0.31746 0.61377 0.54364 0.0
H2967 H 0.31837 0.57228 0.51464 0.0
C2968 C 0.31681 0.67618 0.66906 0.0
C2969 C 0.32189 0.68553 0.71561 0.0
C2970 C 0.31638 0.65223 0.65556 0.0
C2971 C 0.32102 0.63711 0.68833 0.0
C2972 C 0.32604 0.64673 0.73596 0.0
C2973 C 0.32647 0.67055 0.7491 0.0
C2974 C 0.32343 0.57246 0.71708 0.0
C2975 C 0.32193 0.56349 0.63769 0.0
C2976 C 0.32286 0.59602 0.73406 0.0
C2977 C 0.32083 0.61156 0.67192 0.0
C2978 C 0.31903 0.60243 0.59335 0.0
C2979 C 0.31956 0.57863 0.57648 0.0
H2980 H 0.95384 0.67851 0.5425 0.0
H2981 H 0.93728 0.68658 0.70135 0.0
H2982 H 0.95459 0.6376 0.5856 0.0
H2983 H 0.93813 0.6469 0.74609 0.0
H2984 H 0.93435 0.57232 0.71076 0.0
H2985 H 0.93559 0.61223 0.67165 0.0
H2986 H 0.95604 0.60707 0.70392 0.0
H2987 H 0.95478 0.56592 0.74149 0.0
C2988 C 0.95046 0.67172 0.58774 0.0
C2989 C 0.94542 0.68565 0.61729 0.0
C2990 C 0.95088 0.64833 0.61258 0.0
C2991 C 0.94631 0.63865 0.66781 0.0
C2992 C 0.94161 0.65334 0.70148 0.0
C2993 C 0.94114 0.67625 0.67602 0.0
C2994 C 0.93913 0.57952 0.71012 0.0
C2995 C 0.94444 0.56587 0.73073 0.0
C2996 C 0.93985 0.60262 0.68778 0.0
C2997 C 0.9459 0.61324 0.68616 0.0
C2998 C 0.9513 0.59953 0.70469 0.0
C2999 C 0.95057 0.57602 0.72679 0.0
H3000 H 0.69761 0.44196 0.30821 0.0
H3001 H 0.69983 0.42473 0.56902 0.0
H3002 H 0.69868 0.40156 0.2703 0.0
H3003 H 0.70066 0.38367 0.53147 0.0
H3004 H 0.70409 0.30967 0.42525 0.0
H3005 H 0.70606 0.35055 0.45966 0.0
H3006 H 0.69142 0.37034 0.2834 0.0
H3007 H 0.68951 0.33017 0.25014 0.0
C3008 C 0.69842 0.42948 0.35753 0.0
C3009 C 0.6986 0.43657 0.44159 0.0
C3010 C 0.69898 0.4062 0.33587 0.0
C3011 C 0.69961 0.38905 0.39772 0.0
C3012 C 0.7002 0.39628 0.48188 0.0
C3013 C 0.69973 0.41983 0.50358 0.0
C3014 C 0.70144 0.3229 0.39241 0.0
C3015 C 0.6967 0.31671 0.33399 0.0
C3016 C 0.70251 0.34631 0.4129 0.0
C3017 C 0.69893 0.36399 0.37421 0.0
C3018 C 0.69437 0.35751 0.31375 0.0
C3019 C 0.69325 0.33435 0.29456 0.0
H3020 H 0.06581 0.3204 0.55623 0.0
H3021 H 0.07747 0.31607 0.33332 0.0
H3022 H 0.06436 0.36191 0.53133 0.0
H3023 H 0.07611 0.35707 0.30923 0.0
H3024 H 0.06979 0.42934 0.25067 0.0
H3025 H 0.06867 0.38763 0.27122 0.0
H3026 H 0.07113 0.39678 0.53763 0.0
H3027 H 0.07232 0.43828 0.51651 0.0
C3028 C 0.06801 0.32822 0.50169 0.0
C3029 C 0.07179 0.31489 0.44719 0.0
C3030 C 0.06721 0.35203 0.48749 0.0
C3031 C 0.07012 0.36299 0.41811 0.0
C3032 C 0.07371 0.34935 0.36249 0.0
C3033 C 0.07453 0.32574 0.37681 0.0
C3034 C 0.06994 0.42245 0.31369 0.0
C3035 C 0.07115 0.43706 0.38197 0.0
C3036 C 0.06936 0.39851 0.32557 0.0
C3037 C 0.06985 0.38867 0.4062 0.0
C3038 C 0.07068 0.4036 0.47479 0.0
C3039 C 0.07139 0.42742 0.46268 0.0
H3040 H 0.81717 0.06954 0.52225 0.0
H3041 H 0.82912 0.0626 0.74079 0.0
H3042 H 0.81592 0.111 0.55287 0.0
H3043 H 0.82784 0.10327 0.77128 0.0
H3044 H 0.8327 0.17883 0.72045 0.0
H3045 H 0.8322 0.13742 0.69833 0.0
H3046 H 0.81178 0.14184 0.66107 0.0
H3047 H 0.81232 0.18391 0.68435 0.0
C3048 C 0.81946 0.07675 0.57712 0.0
C3049 C 0.82335 0.06282 0.62811 0.0
C3050 C 0.81872 0.10045 0.59494 0.0
C3051 C 0.82186 0.1106 0.66392 0.0
C3052 C 0.82546 0.09625 0.71675 0.0
C3053 C 0.82619 0.07283 0.69914 0.0
C3054 C 0.82808 0.17097 0.70869 0.0
C3055 C 0.82255 0.18459 0.70517 0.0
C3056 C 0.82779 0.14717 0.696 0.0
C3057 C 0.82194 0.13616 0.67811 0.0
C3058 C 0.81636 0.14976 0.67449 0.0
C3059 C 0.81665 0.17377 0.68871 0.0
H3060 H 0.44205 0.18547 0.74823 0.0
H3061 H 0.45348 0.18109 0.52332 0.0
H3062 H 0.44348 0.14455 0.77268 0.0
H3063 H 0.45501 0.13964 0.54861 0.0
H3064 H 0.44724 0.0632 0.56608 0.0
H3065 H 0.44828 0.10469 0.54415 0.0
H3066 H 0.45101 0.11425 0.80994 0.0
H3067 H 0.45001 0.07253 0.83136 0.0
C3068 C 0.44496 0.1758 0.70435 0.0
C3069 C 0.44762 0.18661 0.63334 0.0
C3070 C 0.44582 0.15224 0.71889 0.0
C3071 C 0.44937 0.13861 0.66287 0.0
C3072 C 0.4522 0.14953 0.59278 0.0
C3073 C 0.45135 0.17329 0.57835 0.0
C3074 C 0.44819 0.07415 0.6196 0.0
C3075 C 0.44854 0.06462 0.70041 0.0
C3076 C 0.44882 0.09796 0.607 0.0
C3077 C 0.44969 0.11299 0.6752 0.0
C3078 C 0.45029 0.10328 0.75591 0.0
C3079 C 0.44977 0.07935 0.76828 0.0
H3080 H 0.1983 0.94102 0.35686 0.0
H3081 H 0.19711 0.92491 0.61954 0.0
H3082 H 0.19984 0.90012 0.32425 0.0
H3083 H 0.19897 0.8843 0.58865 0.0
H3084 H 0.19179 0.81446 0.50535 0.0
H3085 H 0.19276 0.85488 0.53692 0.0
H3086 H 0.20529 0.86388 0.32357 0.0
H3087 H 0.20405 0.82269 0.28963 0.0
C3088 C 0.19862 0.92876 0.40787 0.0
C3089 C 0.19765 0.93613 0.49082 0.0
C3090 C 0.19949 0.90524 0.38929 0.0
C3091 C 0.1994 0.8885 0.45339 0.0
C3092 C 0.19889 0.89635 0.53693 0.0
C3093 C 0.19793 0.91975 0.55517 0.0
C3094 C 0.1948 0.82489 0.46505 0.0
C3095 C 0.19782 0.81517 0.39458 0.0
C3096 C 0.19542 0.84829 0.48391 0.0
C3097 C 0.19917 0.86304 0.43373 0.0
C3098 C 0.20232 0.85326 0.36369 0.0
C3099 C 0.20166 0.82958 0.34437 0.0
H3100 H 0.56586 0.82042 0.55486 0.0
H3101 H 0.57739 0.81545 0.33105 0.0
H3102 H 0.56449 0.86195 0.52932 0.0
H3103 H 0.57614 0.85644 0.30643 0.0
H3104 H 0.57003 0.92882 0.24711 0.0
H3105 H 0.56886 0.88717 0.26831 0.0
H3106 H 0.57127 0.89663 0.53471 0.0
H3107 H 0.57248 0.9381 0.51293 0.0
C3108 C 0.56804 0.8281 0.49992 0.0
C3109 C 0.57176 0.81459 0.44536 0.0
C3110 C 0.56729 0.85192 0.4854 0.0
C3111 C 0.57021 0.8627 0.41568 0.0
C3112 C 0.57373 0.84887 0.35996 0.0
C3113 C 0.57449 0.82527 0.37456 0.0
C3114 C 0.57017 0.922 0.31025 0.0
C3115 C 0.57137 0.93669 0.37833 0.0
C3116 C 0.56955 0.8981 0.32251 0.0
C3117 C 0.57001 0.88836 0.40335 0.0
C3118 C 0.57085 0.90337 0.47172 0.0
C3119 C 0.57158 0.92716 0.45923 0.0
H3120 H 0.81672 0.68183 0.31083 0.0
H3121 H 0.82952 0.68892 0.09984 0.0
H3122 H 0.81546 0.64039 0.27776 0.0
H3123 H 0.82826 0.64841 0.06735 0.0
H3124 H 0.83329 0.57359 0.12409 0.0
H3125 H 0.83246 0.61476 0.1491 0.0
H3126 H 0.81187 0.60912 0.15984 0.0
H3127 H 0.81274 0.56723 0.13306 0.0
C3128 C 0.81916 0.67472 0.25686 0.0
C3129 C 0.82331 0.68864 0.20896 0.0
C3130 C 0.81843 0.65102 0.23773 0.0
C3131 C 0.82185 0.64095 0.17063 0.0
C3132 C 0.82565 0.65538 0.12034 0.0
C3133 C 0.82637 0.67871 0.13915 0.0
C3134 C 0.82857 0.58107 0.13093 0.0
C3135 C 0.82308 0.56713 0.12569 0.0
C3136 C 0.82809 0.60475 0.14532 0.0
C3137 C 0.8221 0.61538 0.15644 0.0
C3138 C 0.81656 0.60148 0.15181 0.0
C3139 C 0.81705 0.57758 0.13557 0.0
H3140 H 0.43505 0.57699 0.25351 0.0
H3141 H 0.45507 0.56408 0.20598 0.0
H3142 H 0.43631 0.61639 0.20678 0.0
H3143 H 0.45635 0.60441 0.15809 0.0
H3144 H 0.45425 0.68957 0.16102 0.0
H3145 H 0.45518 0.64892 0.20584 0.0
H3146 H 0.43825 0.63233 0.06386 0.0
H3147 H 0.43727 0.67234 1.02132 0.0
C3148 C 0.43977 0.58261 0.23367 0.0
C3149 C 0.44494 0.56717 0.23298 0.0
C3150 C 0.44048 0.60531 0.20629 0.0
C3151 C 0.4464 0.61358 0.17692 0.0
C3152 C 0.45171 0.59859 0.17996 0.0
C3153 C 0.45098 0.57551 0.2074 0.0
C3154 C 0.45084 0.67703 0.13788 0.0
C3155 C 0.44566 0.6842 0.08805 0.0
C3156 C 0.45136 0.65377 0.16369 0.0
C3157 C 0.44671 0.63738 0.1399 0.0
C3158 C 0.44183 0.64448 0.08512 0.0
C3159 C 0.44129 0.66747 0.06021 0.0
H3160 H 0.20212 0.32081 0.77383 0.0
H3161 H 0.19077 0.31294 0.99823 0.0
H3162 H 0.20322 0.36235 0.80371 0.0
H3163 H 0.1919 0.3537 1.02805 0.0
H3164 H 0.18703 0.42964 0.98773 0.0
H3165 H 0.18742 0.3882 0.96472 0.0
H3166 H 0.20754 0.39316 0.90453 0.0
H3167 H 0.2071 0.43516 0.92846 0.0
C3168 C 0.19992 0.32784 0.82976 0.0
C3169 C 0.19627 0.31355 0.88282 0.0
C3170 C 0.20057 0.35162 0.84717 0.0
C3171 C 0.19756 0.36156 0.91777 0.0
C3172 C 0.19417 0.34691 0.97221 0.0
C3173 C 0.19354 0.32339 0.95506 0.0
C3174 C 0.19156 0.42184 0.97104 0.0
C3175 C 0.19705 0.43558 0.96139 0.0
C3176 C 0.1918 0.39803 0.95772 0.0
C3177 C 0.19752 0.38714 0.93297 0.0
C3178 C 0.20305 0.40091 0.92328 0.0
C3179 C 0.20282 0.4249 0.93798 0.0
H3180 H 0.57981 0.31446 0.84557 0.0
H3181 H 0.56661 0.3203 0.05291 0.0
H3182 H 0.57855 0.35512 0.81519 0.0
H3183 H 0.56537 0.36178 1.02219 0.0
H3184 H 0.56238 0.43478 0.88299 0.0
H3185 H 0.56176 0.39266 0.90602 0.0
H3186 H 0.58239 0.38901 0.89786 0.0
H3187 H 0.58297 0.43037 0.87617 0.0
C3188 C 0.5766 0.32443 0.88471 0.0
C3189 C 0.5734 0.31413 0.95271 0.0
C3190 C 0.57588 0.34783 0.86709 0.0
C3191 C 0.57193 0.36186 0.91681 0.0
C3192 C 0.56844 0.35144 0.98257 0.0
C3193 C 0.56918 0.32775 1.0005 0.0
C3194 C 0.56675 0.42479 0.88509 0.0
C3195 C 0.57272 0.43582 0.87703 0.0
C3196 C 0.56641 0.40078 0.89917 0.0
C3197 C 0.57203 0.38741 0.90355 0.0
C3198 C 0.57796 0.39862 0.89404 0.0
C3199 C 0.5783 0.4224 0.88161 0.0
loop_
_geom_bond_atom_site_label_1
_geom_bond_atom_site_label_2
_geom_bond_distance
_geom_bond_site_symmetry_2
_ccdc_geom_bond_type
Nd0 C2 2.836 . S
Nd0 O20 2.500 . S
Nd0 O21 2.492 . S
Nd0 O22 2.487 . S
Nd0 O23 2.682 . S
Nd0 O24 2.410 . S
Nd0 O29 2.414 . S
Nd0 O31 2.424 . S
Nd1 C11 2.836 . S
Nd1 O23 2.414 . S
Nd1 O25 2.424 . S
Nd1 O26 2.500 . S
Nd1 O27 2.492 . S
Nd1 O28 2.487 . S
Nd1 O29 2.682 . S
Nd1 O30 2.410 . S
C2 Nd0 2.836 . S
C2 C3 1.498 . S
C2 O20 1.258 . S
C2 O21 1.239 . S
C3 C2 1.498 . S
C3 C4 1.366 . S
C3 C8 1.407 . S
C4 C3 1.366 . S
C4 C5 1.395 . S
C4 H32 0.930 . S
C5 C4 1.395 . S
C5 C6 1.399 . S
C5 H33 0.926 1_554 S
C6 C5 1.399 . S
C6 C7 1.352 . S
C7 C6 1.352 . S
C7 C8 1.384 . S
C7 H34 0.930 . S
C8 C3 1.407 . S
C8 C7 1.384 . S
C8 H35 0.929 . S
C9 O22 1.241 . S
C9 O23 1.273 . S
C10 O24 1.251 . S
C10 O25 1.268 . S
C11 Nd1 2.836 . S
C11 C12 1.498 . S
C11 O26 1.258 . S
C11 O27 1.239 . S
C12 C11 1.498 . S
C12 C13 1.366 . S
C12 C17 1.407 . S
C13 C12 1.366 . S
C13 C14 1.392 . S
C13 H36 0.930 . S
C14 C13 1.392 . S
C14 C15 1.398 . S
C14 H37 0.929 . S
C15 C14 1.398 . S
C15 C16 1.352 . S
C16 C15 1.352 . S
C16 C17 1.384 . S
C16 H38 0.930 . S
C17 C12 1.407 . S
C17 C16 1.384 . S
C17 H39 0.929 . S
C18 O28 1.241 . S
C18 O29 1.273 . S
C19 O30 1.251 . S
C19 O31 1.268 . S
O20 Nd0 2.500 . S
O20 C2 1.258 . S
O21 Nd0 2.492 . S
O21 C2 1.239 . S
O22 Nd0 2.487 . S
O22 C9 1.241 . S
O23 Nd0 2.682 . S
O23 Nd1 2.414 . S
O23 C9 1.273 . S
O24 Nd0 2.410 . S
O24 C10 1.251 . S
O25 Nd1 2.424 . S
O25 C10 1.268 . S
O26 Nd1 2.500 . S
O26 C11 1.258 . S
O27 Nd1 2.492 . S
O27 C11 1.239 . S
O28 Nd1 2.487 . S
O28 C18 1.241 . S
O29 Nd0 2.414 . S
O29 Nd1 2.682 . S
O29 C18 1.273 . S
O30 Nd1 2.410 . S
O30 C19 1.251 . S
O31 Nd0 2.424 . S
O31 C19 1.268 . S
H32 C4 0.930 . S
H33 C5 0.926 1_556 S
H34 C7 0.930 . S
H35 C8 0.929 . S
H36 C13 0.930 . S
H37 C14 0.929 . S
H38 C16 0.930 . S
H39 C17 0.929 . S
Nd40 C42 2.836 . S
Nd40 O60 2.500 1_565 S
Nd40 O61 2.492 . S
Nd40 O62 2.487 . S
Nd40 O63 2.682 . S
Nd40 O64 2.410 . S
Nd40 O69 2.414 1_565 S
Nd40 O71 2.426 . S
Nd41 C51 2.836 . S
Nd41 O63 2.414 . S
Nd41 O65 2.424 . S
Nd41 O66 2.500 . S
Nd41 O67 2.492 1_565 S
Nd41 O68 2.487 1_565 S
Nd41 O69 2.682 1_565 S
Nd41 O70 2.410 1_565 S
C42 Nd40 2.836 . S
C42 C43 1.498 . S
C42 O60 1.258 1_565 S
C42 O61 1.239 . S
C43 C42 1.498 . S
C43 C44 1.366 1_565 S
C43 C48 1.407 . S
C44 C43 1.366 1_545 S
C44 C45 1.395 . S
C44 H72 0.930 . S
C45 C44 1.395 . S
C45 C46 1.399 1_545 S
C45 H73 0.926 1_554 S
C46 C45 1.399 1_565 S
C46 C47 1.352 . S
C47 C46 1.352 . S
C47 C48 1.384 . S
C47 H74 0.930 . S
C48 C43 1.407 . S
C48 C47 1.384 . S
C48 H75 0.929 . S
C49 O62 1.241 . S
C49 O63 1.273 . S
C50 O64 1.251 . S
C50 O65 1.268 . S
C51 Nd41 2.836 . S
C51 C52 1.498 . S
C51 O66 1.258 . S
C51 O67 1.239 1_565 S
C52 C51 1.498 . S
C52 C53 1.366 . S
C52 C57 1.407 1_565 S
C53 C52 1.366 . S
C53 C54 1.392 . S
C53 H76 0.930 . S
C54 C53 1.392 . S
C54 C55 1.398 . S
C54 H77 0.929 . S
C55 C54 1.398 . S
C55 C56 1.352 1_565 S
C56 C55 1.352 1_545 S
C56 C57 1.384 . S
C56 H78 0.930 . S
C57 C52 1.407 1_545 S
C57 C56 1.384 . S
C57 H79 0.929 . S
C58 O68 1.241 . S
C58 O69 1.273 . S
C59 O70 1.251 . S
C59 O71 1.265 1_545 S
O60 Nd40 2.500 1_545 S
O60 C42 1.258 1_545 S
O61 Nd40 2.492 . S
O61 C42 1.239 . S
O62 Nd40 2.487 . S
O62 C49 1.241 . S
O63 Nd40 2.682 . S
O63 Nd41 2.414 . S
O63 C49 1.273 . S
O64 Nd40 2.410 . S
O64 C50 1.251 . S
O65 Nd41 2.424 . S
O65 C50 1.268 . S
O66 Nd41 2.500 . S
O66 C51 1.258 . S
O67 Nd41 2.492 1_545 S
O67 C51 1.239 1_545 S
O68 Nd41 2.487 1_545 S
O68 C58 1.241 . S
O69 Nd40 2.414 1_545 S
O69 Nd41 2.682 1_545 S
O69 C58 1.273 . S
O70 Nd41 2.410 1_545 S
O70 C59 1.251 . S
O71 Nd40 2.426 . S
O71 C59 1.265 1_565 S
H72 C44 0.930 . S
H73 C45 0.926 1_556 S
H74 C47 0.930 . S
H75 C48 0.929 . S
H76 C53 0.930 . S
H77 C54 0.929 . S
H78 C56 0.930 . S
H79 C57 0.929 . S
Nd80 C82 2.836 . S
Nd80 O100 2.500 1_565 S
Nd80 O101 2.492 . S
Nd80 O102 2.487 . S
Nd80 O103 2.682 . S
Nd80 O104 2.410 . S
Nd80 O109 2.414 1_565 S
Nd80 O111 2.426 1_554 S
Nd81 C91 2.836 1_554 S
Nd81 O103 2.414 . S
Nd81 O105 2.424 . S
Nd81 O106 2.500 1_554 S
Nd81 O107 2.492 1_564 S
Nd81 O108 2.487 1_565 S
Nd81 O109 2.682 1_565 S
Nd81 O110 2.410 1_564 S
C82 Nd80 2.836 . S
C82 C83 1.498 . S
C82 O100 1.258 1_565 S
C82 O101 1.239 . S
C83 C82 1.498 . S
C83 C84 1.366 1_565 S
C83 C88 1.407 . S
C84 C83 1.366 1_545 S
C84 C85 1.392 . S
C84 H112 0.930 . S
C85 C84 1.392 . S
C85 C86 1.398 1_545 S
C85 H113 0.929 . S
C86 C85 1.398 1_565 S
C86 C87 1.352 . S
C87 C86 1.352 . S
C87 C88 1.384 . S
C87 H114 0.930 . S
C88 C83 1.407 . S
C88 C87 1.384 . S
C88 H115 0.929 . S
C89 O102 1.241 1_556 S
C89 O103 1.273 1_556 S
C90 O104 1.251 . S
C90 O105 1.268 . S
C91 Nd81 2.836 1_556 S
C91 C92 1.498 . S
C91 O106 1.258 . S
C91 O107 1.239 1_565 S
C92 C91 1.498 . S
C92 C93 1.366 . S
C92 C97 1.407 1_565 S
C93 C92 1.366 . S
C93 C94 1.392 . S
C93 H116 0.930 . S
C94 C93 1.392 . S
C94 C95 1.398 . S
C94 H117 0.929 . S
C95 C94 1.398 . S
C95 C96 1.352 1_565 S
C96 C95 1.352 1_545 S
C96 C97 1.384 . S
C96 H118 0.930 . S
C97 C92 1.407 1_545 S
C97 C96 1.384 . S
C97 H119 0.929 . S
C98 O108 1.241 . S
C98 O109 1.273 . S
C99 O110 1.251 . S
C99 O111 1.265 1_545 S
O100 Nd80 2.500 1_545 S
O100 C82 1.258 1_545 S
O101 Nd80 2.492 . S
O101 C82 1.239 . S
O102 Nd80 2.487 . S
O102 C89 1.241 1_554 S
O103 Nd80 2.682 . S
O103 Nd81 2.414 . S
O103 C89 1.273 1_554 S
O104 Nd80 2.410 . S
O104 C90 1.251 . S
O105 Nd81 2.424 . S
O105 C90 1.268 . S
O106 Nd81 2.500 1_556 S
O106 C91 1.258 . S
O107 Nd81 2.492 1_546 S
O107 C91 1.239 1_545 S
O108 Nd81 2.487 1_545 S
O108 C98 1.241 . S
O109 Nd80 2.414 1_545 S
O109 Nd81 2.682 1_545 S
O109 C98 1.273 . S
O110 Nd81 2.410 1_546 S
O110 C99 1.251 . S
O111 Nd80 2.426 1_556 S
O111 C99 1.265 1_565 S
H112 C84 0.930 . S
H113 C85 0.929 . S
H114 C87 0.930 . S
H115 C88 0.929 . S
H116 C93 0.930 . S
H117 C94 0.929 . S
H118 C96 0.930 . S
H119 C97 0.929 . S
Nd120 C122 2.836 . S
Nd120 O140 2.500 . S
Nd120 O141 2.492 . S
Nd120 O142 2.487 . S
Nd120 O143 2.682 . S
Nd120 O144 2.410 . S
Nd120 O149 2.414 . S
Nd120 O151 2.424 1_554 S
Nd121 C131 2.836 1_554 S
Nd121 O143 2.414 . S
Nd121 O145 2.424 . S
Nd121 O146 2.500 1_554 S
Nd121 O147 2.492 1_554 S
Nd121 O148 2.487 . S
Nd121 O149 2.682 . S
Nd121 O150 2.410 1_554 S
C122 Nd120 2.836 . S
C122 C123 1.498 . S
C122 O140 1.258 . S
C122 O141 1.239 . S
C123 C122 1.498 . S
C123 C124 1.366 . S
C123 C128 1.407 . S
C124 C123 1.366 . S
C124 C125 1.392 . S
C124 H152 0.930 . S
C125 C124 1.392 . S
C125 C126 1.398 . S
C125 H153 0.929 . S
C126 C125 1.398 . S
C126 C127 1.352 . S
C127 C126 1.352 . S
C127 C128 1.384 . S
C127 H154 0.930 . S
C128 C123 1.407 . S
C128 C127 1.384 . S
C128 H155 0.929 . S
C129 O142 1.241 1_556 S
C129 O143 1.273 1_556 S
C130 O144 1.251 . S
C130 O145 1.268 . S
C131 Nd121 2.836 1_556 S
C131 C132 1.498 . S
C131 O146 1.258 . S
C131 O147 1.239 . S
C132 C131 1.498 . S
C132 C133 1.366 . S
C132 C137 1.407 . S
C133 C132 1.366 . S
C133 C134 1.392 . S
C133 H156 0.930 . S
C134 C133 1.392 . S
C134 C135 1.398 . S
C134 H157 0.929 . S
C135 C134 1.398 . S
C135 C136 1.352 . S
C136 C135 1.352 . S
C136 C137 1.384 . S
C136 H158 0.930 . S
C137 C132 1.407 . S
C137 C136 1.384 . S
C137 H159 0.929 . S
C138 O148 1.241 . S
C138 O149 1.273 . S
C139 O150 1.251 . S
C139 O151 1.268 . S
O140 Nd120 2.500 . S
O140 C122 1.258 . S
O141 Nd120 2.492 . S
O141 C122 1.239 . S
O142 Nd120 2.487 . S
O142 C129 1.241 1_554 S
O143 Nd120 2.682 . S
O143 Nd121 2.414 . S
O143 C129 1.273 1_554 S
O144 Nd120 2.410 . S
O144 C130 1.251 . S
O145 Nd121 2.424 . S
O145 C130 1.268 . S
O146 Nd121 2.500 1_556 S
O146 C131 1.258 . S
O147 Nd121 2.492 1_556 S
O147 C131 1.239 . S
O148 Nd121 2.487 . S
O148 C138 1.241 . S
O149 Nd120 2.414 . S
O149 Nd121 2.682 . S
O149 C138 1.273 . S
O150 Nd121 2.410 1_556 S
O150 C139 1.251 . S
O151 Nd120 2.424 1_556 S
O151 C139 1.268 . S
H152 C124 0.930 . S
H153 C125 0.929 . S
H154 C127 0.930 . S
H155 C128 0.929 . S
H156 C133 0.930 . S
H157 C134 0.929 . S
H158 C136 0.930 . S
H159 C137 0.929 . S
Nd160 C162 2.836 . S
Nd160 O180 2.500 . S
Nd160 O181 2.492 . S
Nd160 O182 2.487 . S
Nd160 O183 2.682 . S
Nd160 O184 2.410 . S
Nd160 O189 2.414 . S
Nd160 O191 2.424 . S
Nd161 C171 2.836 . S
Nd161 O183 2.414 . S
Nd161 O185 2.424 . S
Nd161 O186 2.500 . S
Nd161 O187 2.492 . S
Nd161 O188 2.487 . S
Nd161 O189 2.682 . S
Nd161 O190 2.410 . S
C162 Nd160 2.836 . S
C162 C163 1.498 . S
C162 O180 1.258 . S
C162 O181 1.239 . S
C163 C162 1.498 . S
C163 C164 1.366 . S
C163 C168 1.407 . S
C164 C163 1.366 . S
C164 C165 1.392 . S
C164 H192 0.930 . S
C165 C164 1.392 . S
C165 C166 1.398 . S
C165 H193 0.929 . S
C166 C165 1.398 . S
C166 C167 1.352 . S
C167 C166 1.352 . S
C167 C168 1.384 . S
C167 H194 0.930 . S
C168 C163 1.407 . S
C168 C167 1.384 . S
C168 H195 0.929 . S
C169 O182 1.241 . S
C169 O183 1.273 . S
C170 O184 1.251 . S
C170 O185 1.268 . S
C171 Nd161 2.836 . S
C171 C172 1.498 . S
C171 O186 1.258 . S
C171 O187 1.239 . S
C172 C171 1.498 . S
C172 C173 1.366 . S
C172 C177 1.407 . S
C173 C172 1.366 . S
C173 C174 1.395 . S
C173 H196 0.930 . S
C174 C173 1.395 . S
C174 C175 1.399 . S
C174 H197 0.926 1_556 S
C175 C174 1.399 . S
C175 C176 1.352 . S
C176 C175 1.352 . S
C176 C177 1.384 . S
C176 H198 0.930 . S
C177 C172 1.407 . S
C177 C176 1.384 . S
C177 H199 0.929 . S
C178 O188 1.241 . S
C178 O189 1.273 . S
C179 O190 1.251 . S
C179 O191 1.268 . S
O180 Nd160 2.500 . S
O180 C162 1.258 . S
O181 Nd160 2.492 . S
O181 C162 1.239 . S
O182 Nd160 2.487 . S
O182 C169 1.241 . S
O183 Nd160 2.682 . S
O183 Nd161 2.414 . S
O183 C169 1.273 . S
O184 Nd160 2.410 . S
O184 C170 1.251 . S
O185 Nd161 2.424 . S
O185 C170 1.268 . S
O186 Nd161 2.500 . S
O186 C171 1.258 . S
O187 Nd161 2.492 . S
O187 C171 1.239 . S
O188 Nd161 2.487 . S
O188 C178 1.241 . S
O189 Nd160 2.414 . S
O189 Nd161 2.682 . S
O189 C178 1.273 . S
O190 Nd161 2.410 . S
O190 C179 1.251 . S
O191 Nd160 2.424 . S
O191 C179 1.268 . S
H192 C164 0.930 . S
H193 C165 0.929 . S
H194 C167 0.930 . S
H195 C168 0.929 . S
H196 C173 0.930 . S
H197 C174 0.926 1_554 S
H198 C176 0.930 . S
H199 C177 0.929 . S
Nd200 C202 2.836 . S
Nd200 O220 2.500 . S
Nd200 O221 2.492 1_545 S
Nd200 O222 2.487 1_545 S
Nd200 O223 2.682 1_545 S
Nd200 O224 2.410 1_545 S
Nd200 O229 2.414 . S
Nd200 O231 2.424 . S
Nd201 C211 2.836 . S
Nd201 O223 2.414 1_545 S
Nd201 O225 2.426 . S
Nd201 O226 2.500 1_545 S
Nd201 O227 2.492 . S
Nd201 O228 2.487 . S
Nd201 O229 2.682 . S
Nd201 O230 2.410 . S
C202 Nd200 2.836 . S
C202 C203 1.498 . S
C202 O220 1.258 . S
C202 O221 1.239 1_545 S
C203 C202 1.498 . S
C203 C204 1.366 . S
C203 C208 1.407 1_545 S
C204 C203 1.366 . S
C204 C205 1.392 . S
C204 H232 0.930 . S
C205 C204 1.392 . S
C205 C206 1.398 . S
C205 H233 0.929 . S
C206 C205 1.398 . S
C206 C207 1.352 1_545 S
C207 C206 1.352 1_565 S
C207 C208 1.384 . S
C207 H234 0.930 . S
C208 C203 1.407 1_565 S
C208 C207 1.384 . S
C208 H235 0.929 . S
C209 O222 1.241 . S
C209 O223 1.273 . S
C210 O224 1.251 . S
C210 O225 1.265 1_565 S
C211 Nd201 2.836 . S
C211 C212 1.498 . S
C211 O226 1.258 1_545 S
C211 O227 1.239 . S
C212 C211 1.498 . S
C212 C213 1.366 1_545 S
C212 C217 1.407 . S
C213 C212 1.366 1_565 S
C213 C214 1.395 . S
C213 H236 0.930 . S
C214 C213 1.395 . S
C214 C215 1.399 1_565 S
C214 H237 0.926 1_556 S
C215 C214 1.399 1_545 S
C215 C216 1.352 . S
C216 C215 1.352 . S
C216 C217 1.384 . S
C216 H238 0.930 . S
C217 C212 1.407 . S
C217 C216 1.384 . S
C217 H239 0.929 . S
C218 O228 1.241 . S
C218 O229 1.273 . S
C219 O230 1.251 . S
C219 O231 1.268 . S
O220 Nd200 2.500 . S
O220 C202 1.258 . S
O221 Nd200 2.492 1_565 S
O221 C202 1.239 1_565 S
O222 Nd200 2.487 1_565 S
O222 C209 1.241 . S
O223 Nd200 2.682 1_565 S
O223 Nd201 2.414 1_565 S
O223 C209 1.273 . S
O224 Nd200 2.410 1_565 S
O224 C210 1.251 . S
O225 Nd201 2.426 . S
O225 C210 1.265 1_545 S
O226 Nd201 2.500 1_565 S
O226 C211 1.258 1_565 S
O227 Nd201 2.492 . S
O227 C211 1.239 . S
O228 Nd201 2.487 . S
O228 C218 1.241 . S
O229 Nd200 2.414 . S
O229 Nd201 2.682 . S
O229 C218 1.273 . S
O230 Nd201 2.410 . S
O230 C219 1.251 . S
O231 Nd200 2.424 . S
O231 C219 1.268 . S
H232 C204 0.930 . S
H233 C205 0.929 . S
H234 C207 0.930 . S
H235 C208 0.929 . S
H236 C213 0.930 . S
H237 C214 0.926 1_554 S
H238 C216 0.930 . S
H239 C217 0.929 . S
Nd240 C242 2.836 1_556 S
Nd240 O260 2.500 1_556 S
Nd240 O261 2.492 1_546 S
Nd240 O262 2.487 1_545 S
Nd240 O263 2.682 1_545 S
Nd240 O264 2.410 1_546 S
Nd240 O269 2.414 . S
Nd240 O271 2.424 . S
Nd241 C251 2.836 . S
Nd241 O263 2.414 1_545 S
Nd241 O265 2.426 1_556 S
Nd241 O266 2.500 1_545 S
Nd241 O267 2.492 . S
Nd241 O268 2.487 . S
Nd241 O269 2.682 . S
Nd241 O270 2.410 . S
C242 Nd240 2.836 1_554 S
C242 C243 1.498 . S
C242 O260 1.258 . S
C242 O261 1.239 1_545 S
C243 C242 1.498 . S
C243 C244 1.366 . S
C243 C248 1.407 1_545 S
C244 C243 1.366 . S
C244 C245 1.392 . S
C244 H272 0.930 . S
C245 C244 1.392 . S
C245 C246 1.398 . S
C245 H273 0.929 . S
C246 C245 1.398 . S
C246 C247 1.352 1_545 S
C247 C246 1.352 1_565 S
C247 C248 1.384 . S
C247 H274 0.930 . S
C248 C243 1.407 1_565 S
C248 C247 1.384 . S
C248 H275 0.929 . S
C249 O262 1.241 . S
C249 O263 1.273 . S
C250 O264 1.251 . S
C250 O265 1.265 1_565 S
C251 Nd241 2.836 . S
C251 C252 1.498 . S
C251 O266 1.258 1_545 S
C251 O267 1.239 . S
C252 C251 1.498 . S
C252 C253 1.366 1_545 S
C252 C257 1.407 . S
C253 C252 1.366 1_565 S
C253 C254 1.392 . S
C253 H276 0.930 . S
C254 C253 1.392 . S
C254 C255 1.398 1_565 S
C254 H277 0.929 . S
C255 C254 1.398 1_545 S
C255 C256 1.352 . S
C256 C255 1.352 . S
C256 C257 1.384 . S
C256 H278 0.930 . S
C257 C252 1.407 . S
C257 C256 1.384 . S
C257 H279 0.929 . S
C258 O268 1.241 1_554 S
C258 O269 1.273 1_554 S
C259 O270 1.251 . S
C259 O271 1.268 . S
O260 Nd240 2.500 1_554 S
O260 C242 1.258 . S
O261 Nd240 2.492 1_564 S
O261 C242 1.239 1_565 S
O262 Nd240 2.487 1_565 S
O262 C249 1.241 . S
O263 Nd240 2.682 1_565 S
O263 Nd241 2.414 1_565 S
O263 C249 1.273 . S
O264 Nd240 2.410 1_564 S
O264 C250 1.251 . S
O265 Nd241 2.426 1_554 S
O265 C250 1.265 1_545 S
O266 Nd241 2.500 1_565 S
O266 C251 1.258 1_565 S
O267 Nd241 2.492 . S
O267 C251 1.239 . S
O268 Nd241 2.487 . S
O268 C258 1.241 1_556 S
O269 Nd240 2.414 . S
O269 Nd241 2.682 . S
O269 C258 1.273 1_556 S
O270 Nd241 2.410 . S
O270 C259 1.251 . S
O271 Nd240 2.424 . S
O271 C259 1.268 . S
H272 C244 0.930 . S
H273 C245 0.929 . S
H274 C247 0.930 . S
H275 C248 0.929 . S
H276 C253 0.930 . S
H277 C254 0.929 . S
H278 C256 0.930 . S
H279 C257 0.929 . S
Nd280 C282 2.836 1_556 S
Nd280 O300 2.500 1_556 S
Nd280 O301 2.492 1_556 S
Nd280 O302 2.487 . S
Nd280 O303 2.682 . S
Nd280 O304 2.410 1_556 S
Nd280 O309 2.414 . S
Nd280 O311 2.424 . S
Nd281 C291 2.836 . S
Nd281 O303 2.414 . S
Nd281 O305 2.424 1_556 S
Nd281 O306 2.500 . S
Nd281 O307 2.492 . S
Nd281 O308 2.487 . S
Nd281 O309 2.682 . S
Nd281 O310 2.410 . S
C282 Nd280 2.836 1_554 S
C282 C283 1.498 . S
C282 O300 1.258 . S
C282 O301 1.239 . S
C283 C282 1.498 . S
C283 C284 1.366 . S
C283 C288 1.407 . S
C284 C283 1.366 . S
C284 C285 1.392 . S
C284 H312 0.930 . S
C285 C284 1.392 . S
C285 C286 1.398 . S
C285 H313 0.929 . S
C286 C285 1.398 . S
C286 C287 1.352 . S
C287 C286 1.352 . S
C287 C288 1.384 . S
C287 H314 0.930 . S
C288 C283 1.407 . S
C288 C287 1.384 . S
C288 H315 0.929 . S
C289 O302 1.241 . S
C289 O303 1.273 . S
C290 O304 1.251 . S
C290 O305 1.268 . S
C291 Nd281 2.836 . S
C291 C292 1.498 . S
C291 O306 1.258 . S
C291 O307 1.239 . S
C292 C291 1.498 . S
C292 C293 1.366 . S
C292 C297 1.407 . S
C293 C292 1.366 . S
C293 C294 1.392 . S
C293 H316 0.930 . S
C294 C293 1.392 . S
C294 C295 1.398 . S
C294 H317 0.929 . S
C295 C294 1.398 . S
C295 C296 1.352 . S
C296 C295 1.352 . S
C296 C297 1.384 . S
C296 H318 0.930 . S
C297 C292 1.407 . S
C297 C296 1.384 . S
C297 H319 0.929 . S
C298 O308 1.241 1_554 S
C298 O309 1.273 1_554 S
C299 O310 1.251 . S
C299 O311 1.268 . S
O300 Nd280 2.500 1_554 S
O300 C282 1.258 . S
O301 Nd280 2.492 1_554 S
O301 C282 1.239 . S
O302 Nd280 2.487 . S
O302 C289 1.241 . S
O303 Nd280 2.682 . S
O303 Nd281 2.414 . S
O303 C289 1.273 . S
O304 Nd280 2.410 1_554 S
O304 C290 1.251 . S
O305 Nd281 2.424 1_554 S
O305 C290 1.268 . S
O306 Nd281 2.500 . S
O306 C291 1.258 . S
O307 Nd281 2.492 . S
O307 C291 1.239 . S
O308 Nd281 2.487 . S
O308 C298 1.241 1_556 S
O309 Nd280 2.414 . S
O309 Nd281 2.682 . S
O309 C298 1.273 1_556 S
O310 Nd281 2.410 . S
O310 C299 1.251 . S
O311 Nd280 2.424 . S
O311 C299 1.268 . S
H312 C284 0.930 . S
H313 C285 0.929 . S
H314 C287 0.930 . S
H315 C288 0.929 . S
H316 C293 0.930 . S
H317 C294 0.929 . S
H318 C296 0.930 . S
H319 C297 0.929 . S
Nd320 C322 2.836 . S
Nd320 O340 2.500 . S
Nd320 O341 2.492 . S
Nd320 O342 2.487 . S
Nd320 O343 2.682 . S
Nd320 O344 2.410 . S
Nd320 O349 2.414 . S
Nd320 O351 2.424 . S
Nd321 C331 2.836 . S
Nd321 O343 2.414 . S
Nd321 O345 2.424 . S
Nd321 O346 2.500 . S
Nd321 O347 2.492 . S
Nd321 O348 2.487 . S
Nd321 O349 2.682 . S
Nd321 O350 2.410 . S
C322 Nd320 2.836 . S
C322 C323 1.498 . S
C322 O340 1.258 . S
C322 O341 1.239 . S
C323 C322 1.498 . S
C323 C324 1.366 . S
C323 C328 1.407 . S
C324 C323 1.366 . S
C324 C325 1.392 . S
C324 H352 0.930 . S
C325 C324 1.392 . S
C325 C326 1.398 . S
C325 H353 0.929 . S
C326 C325 1.398 . S
C326 C327 1.352 . S
C327 C326 1.352 . S
C327 C328 1.384 . S
C327 H354 0.930 . S
C328 C323 1.407 . S
C328 C327 1.384 . S
C328 H355 0.929 . S
C329 O342 1.241 . S
C329 O343 1.273 . S
C330 O344 1.251 . S
C330 O345 1.268 . S
C331 Nd321 2.836 . S
C331 C332 1.498 . S
C331 O346 1.258 . S
C331 O347 1.239 . S
C332 C331 1.498 . S
C332 C333 1.366 . S
C332 C337 1.407 . S
C333 C332 1.366 . S
C333 C334 1.392 . S
C333 H356 0.930 . S
C334 C333 1.392 . S
C334 C335 1.398 . S
C334 H357 0.929 . S
C335 C334 1.398 . S
C335 C336 1.352 . S
C336 C335 1.352 . S
C336 C337 1.384 . S
C336 H358 0.930 . S
C337 C332 1.407 . S
C337 C336 1.384 . S
C337 H359 0.929 . S
C338 O348 1.241 . S
C338 O349 1.273 . S
C339 O350 1.251 . S
C339 O351 1.268 . S
O340 Nd320 2.500 . S
O340 C322 1.258 . S
O341 Nd320 2.492 . S
O341 C322 1.239 . S
O342 Nd320 2.487 . S
O342 C329 1.241 . S
O343 Nd320 2.682 . S
O343 Nd321 2.414 . S
O343 C329 1.273 . S
O344 Nd320 2.410 . S
O344 C330 1.251 . S
O345 Nd321 2.424 . S
O345 C330 1.268 . S
O346 Nd321 2.500 . S
O346 C331 1.258 . S
O347 Nd321 2.492 . S
O347 C331 1.239 . S
O348 Nd321 2.487 . S
O348 C338 1.241 . S
O349 Nd320 2.414 . S
O349 Nd321 2.682 . S
O349 C338 1.273 . S
O350 Nd321 2.410 . S
O350 C339 1.251 . S
O351 Nd320 2.424 . S
O351 C339 1.268 . S
H352 C324 0.930 . S
H353 C325 0.929 . S
H354 C327 0.930 . S
H355 C328 0.929 . S
H356 C333 0.930 . S
H357 C334 0.929 . S
H358 C336 0.930 . S
H359 C337 0.929 . S
Nd360 C362 2.836 . S
Nd360 O380 2.500 . S
Nd360 O381 2.492 . S
Nd360 O382 2.487 . S
Nd360 O383 2.682 . S
Nd360 O384 2.410 . S
Nd360 O389 2.414 . S
Nd360 O391 2.424 . S
Nd361 C371 2.836 . S
Nd361 O383 2.414 . S
Nd361 O385 2.424 . S
Nd361 O386 2.500 . S
Nd361 O387 2.492 . S
Nd361 O388 2.487 . S
Nd361 O389 2.682 . S
Nd361 O390 2.410 . S
C362 Nd360 2.836 . S
C362 C363 1.498 . S
C362 O380 1.258 . S
C362 O381 1.239 . S
C363 C362 1.498 . S
C363 C364 1.366 . S
C363 C368 1.407 . S
C364 C363 1.366 . S
C364 C365 1.392 . S
C364 H392 0.930 . S
C365 C364 1.392 . S
C365 C366 1.398 . S
C365 H393 0.929 . S
C366 C365 1.398 . S
C366 C367 1.352 . S
C367 C366 1.352 . S
C367 C368 1.384 . S
C367 H394 0.930 . S
C368 C363 1.407 . S
C368 C367 1.384 . S
C368 H395 0.929 . S
C369 O382 1.241 . S
C369 O383 1.273 . S
C370 O384 1.251 . S
C370 O385 1.268 . S
C371 Nd361 2.836 . S
C371 C372 1.498 . S
C371 O386 1.258 . S
C371 O387 1.239 . S
C372 C371 1.498 . S
C372 C373 1.366 . S
C372 C377 1.407 . S
C373 C372 1.366 . S
C373 C374 1.392 . S
C373 H396 0.930 . S
C374 C373 1.392 . S
C374 C375 1.398 . S
C374 H397 0.929 . S
C375 C374 1.398 . S
C375 C376 1.352 . S
C376 C375 1.352 . S
C376 C377 1.384 . S
C376 H398 0.930 . S
C377 C372 1.407 . S
C377 C376 1.384 . S
C377 H399 0.929 . S
C378 O388 1.241 . S
C378 O389 1.273 . S
C379 O390 1.251 . S
C379 O391 1.268 . S
O380 Nd360 2.500 . S
O380 C362 1.258 . S
O381 Nd360 2.492 . S
O381 C362 1.239 . S
O382 Nd360 2.487 . S
O382 C369 1.241 . S
O383 Nd360 2.682 . S
O383 Nd361 2.414 . S
O383 C369 1.273 . S
O384 Nd360 2.410 . S
O384 C370 1.251 . S
O385 Nd361 2.424 . S
O385 C370 1.268 . S
O386 Nd361 2.500 . S
O386 C371 1.258 . S
O387 Nd361 2.492 . S
O387 C371 1.239 . S
O388 Nd361 2.487 . S
O388 C378 1.241 . S
O389 Nd360 2.414 . S
O389 Nd361 2.682 . S
O389 C378 1.273 . S
O390 Nd361 2.410 . S
O390 C379 1.251 . S
O391 Nd360 2.424 . S
O391 C379 1.268 . S
H392 C364 0.930 . S
H393 C365 0.929 . S
H394 C367 0.930 . S
H395 C368 0.929 . S
H396 C373 0.930 . S
H397 C374 0.929 . S
H398 C376 0.930 . S
H399 C377 0.929 . S
Nd400 C402 2.836 . S
Nd400 O420 2.500 . S
Nd400 O421 2.492 . S
Nd400 O422 2.487 . S
Nd400 O423 2.682 . S
Nd400 O424 2.410 . S
Nd400 O429 2.414 . S
Nd400 O431 2.424 . S
Nd401 C411 2.836 . S
Nd401 O423 2.414 . S
Nd401 O425 2.424 . S
Nd401 O426 2.500 . S
Nd401 O427 2.492 . S
Nd401 O428 2.487 . S
Nd401 O429 2.682 . S
Nd401 O430 2.410 . S
C402 Nd400 2.836 . S
C402 C403 1.498 . S
C402 O420 1.258 . S
C402 O421 1.239 . S
C403 C402 1.498 . S
C403 C404 1.366 . S
C403 C408 1.407 . S
C404 C403 1.366 . S
C404 C405 1.392 . S
C404 H432 0.930 . S
C405 C404 1.392 . S
C405 C406 1.398 . S
C405 H433 0.929 . S
C406 C405 1.398 . S
C406 C407 1.352 . S
C407 C406 1.352 . S
C407 C408 1.384 . S
C407 H434 0.930 . S
C408 C403 1.407 . S
C408 C407 1.384 . S
C408 H435 0.929 . S
C409 O422 1.241 . S
C409 O423 1.273 . S
C410 O424 1.251 . S
C410 O425 1.268 . S
C411 Nd401 2.836 . S
C411 C412 1.498 . S
C411 O426 1.258 . S
C411 O427 1.239 . S
C412 C411 1.498 . S
C412 C413 1.366 . S
C412 C417 1.407 . S
C413 C412 1.366 . S
C413 C414 1.392 . S
C413 H436 0.930 . S
C414 C413 1.392 . S
C414 C415 1.398 . S
C414 H437 0.929 . S
C415 C414 1.398 . S
C415 C416 1.352 . S
C416 C415 1.352 . S
C416 C417 1.384 . S
C416 H438 0.930 . S
C417 C412 1.407 . S
C417 C416 1.384 . S
C417 H439 0.929 . S
C418 O428 1.241 . S
C418 O429 1.273 . S
C419 O430 1.251 . S
C419 O431 1.268 . S
O420 Nd400 2.500 . S
O420 C402 1.258 . S
O421 Nd400 2.492 . S
O421 C402 1.239 . S
O422 Nd400 2.487 . S
O422 C409 1.241 . S
O423 Nd400 2.682 . S
O423 Nd401 2.414 . S
O423 C409 1.273 . S
O424 Nd400 2.410 . S
O424 C410 1.251 . S
O425 Nd401 2.424 . S
O425 C410 1.268 . S
O426 Nd401 2.500 . S
O426 C411 1.258 . S
O427 Nd401 2.492 . S
O427 C411 1.239 . S
O428 Nd401 2.487 . S
O428 C418 1.241 . S
O429 Nd400 2.414 . S
O429 Nd401 2.682 . S
O429 C418 1.273 . S
O430 Nd401 2.410 . S
O430 C419 1.251 . S
O431 Nd400 2.424 . S
O431 C419 1.268 . S
H432 C404 0.930 . S
H433 C405 0.929 . S
H434 C407 0.930 . S
H435 C408 0.929 . S
H436 C413 0.930 . S
H437 C414 0.929 . S
H438 C416 0.930 . S
H439 C417 0.929 . S
Nd440 C442 2.836 . S
Nd440 O460 2.500 . S
Nd440 O461 2.492 . S
Nd440 O462 2.487 . S
Nd440 O463 2.682 . S
Nd440 O464 2.410 . S
Nd440 O469 2.414 . S
Nd440 O471 2.424 . S
Nd441 C451 2.836 . S
Nd441 O463 2.414 . S
Nd441 O465 2.424 . S
Nd441 O466 2.500 . S
Nd441 O467 2.492 . S
Nd441 O468 2.487 . S
Nd441 O469 2.682 . S
Nd441 O470 2.410 . S
C442 Nd440 2.836 . S
C442 C443 1.498 . S
C442 O460 1.258 . S
C442 O461 1.239 . S
C443 C442 1.498 . S
C443 C444 1.366 . S
C443 C448 1.407 . S
C444 C443 1.366 . S
C444 C445 1.392 . S
C444 H472 0.930 . S
C445 C444 1.392 . S
C445 C446 1.398 . S
C445 H473 0.929 . S
C446 C445 1.398 . S
C446 C447 1.352 . S
C447 C446 1.352 . S
C447 C448 1.384 . S
C447 H474 0.930 . S
C448 C443 1.407 . S
C448 C447 1.384 . S
C448 H475 0.929 . S
C449 O462 1.241 . S
C449 O463 1.273 . S
C450 O464 1.251 . S
C450 O465 1.268 . S
C451 Nd441 2.836 . S
C451 C452 1.498 . S
C451 O466 1.258 . S
C451 O467 1.239 . S
C452 C451 1.498 . S
C452 C453 1.366 . S
C452 C457 1.407 . S
C453 C452 1.366 . S
C453 C454 1.392 . S
C453 H476 0.930 . S
C454 C453 1.392 . S
C454 C455 1.398 . S
C454 H477 0.929 . S
C455 C454 1.398 . S
C455 C456 1.352 . S
C456 C455 1.352 . S
C456 C457 1.384 . S
C456 H478 0.930 . S
C457 C452 1.407 . S
C457 C456 1.384 . S
C457 H479 0.929 . S
C458 O468 1.241 . S
C458 O469 1.273 . S
C459 O470 1.251 . S
C459 O471 1.268 . S
O460 Nd440 2.500 . S
O460 C442 1.258 . S
O461 Nd440 2.492 . S
O461 C442 1.239 . S
O462 Nd440 2.487 . S
O462 C449 1.241 . S
O463 Nd440 2.682 . S
O463 Nd441 2.414 . S
O463 C449 1.273 . S
O464 Nd440 2.410 . S
O464 C450 1.251 . S
O465 Nd441 2.424 . S
O465 C450 1.268 . S
O466 Nd441 2.500 . S
O466 C451 1.258 . S
O467 Nd441 2.492 . S
O467 C451 1.239 . S
O468 Nd441 2.487 . S
O468 C458 1.241 . S
O469 Nd440 2.414 . S
O469 Nd441 2.682 . S
O469 C458 1.273 . S
O470 Nd441 2.410 . S
O470 C459 1.251 . S
O471 Nd440 2.424 . S
O471 C459 1.268 . S
H472 C444 0.930 . S
H473 C445 0.929 . S
H474 C447 0.930 . S
H475 C448 0.929 . S
H476 C453 0.930 . S
H477 C454 0.929 . S
H478 C456 0.930 . S
H479 C457 0.929 . S
Nd480 C482 2.836 . S
Nd480 O500 2.500 . S
Nd480 O501 2.492 . S
Nd480 O502 2.487 . S
Nd480 O503 2.682 . S
Nd480 O504 2.410 . S
Nd480 O509 2.414 . S
Nd480 O511 2.424 . S
Nd481 C491 2.836 . S
Nd481 O503 2.414 . S
Nd481 O505 2.424 . S
Nd481 O506 2.500 . S
Nd481 O507 2.492 . S
Nd481 O508 2.487 . S
Nd481 O509 2.682 . S
Nd481 O510 2.410 . S
C482 Nd480 2.836 . S
C482 C483 1.498 . S
C482 O500 1.258 . S
C482 O501 1.239 . S
C483 C482 1.498 . S
C483 C484 1.366 . S
C483 C488 1.407 . S
C484 C483 1.366 . S
C484 C485 1.392 . S
C484 H512 0.930 . S
C485 C484 1.392 . S
C485 C486 1.398 . S
C485 H513 0.929 . S
C486 C485 1.398 . S
C486 C487 1.352 . S
C487 C486 1.352 . S
C487 C488 1.384 . S
C487 H514 0.930 . S
C488 C483 1.407 . S
C488 C487 1.384 . S
C488 H515 0.929 . S
C489 O502 1.241 . S
C489 O503 1.273 . S
C490 O504 1.251 . S
C490 O505 1.268 . S
C491 Nd481 2.836 . S
C491 C492 1.498 . S
C491 O506 1.258 . S
C491 O507 1.239 . S
C492 C491 1.498 . S
C492 C493 1.366 . S
C492 C497 1.407 . S
C493 C492 1.366 . S
C493 C494 1.392 . S
C493 H516 0.930 . S
C494 C493 1.392 . S
C494 C495 1.398 . S
C494 H517 0.929 . S
C495 C494 1.398 . S
C495 C496 1.352 . S
C496 C495 1.352 . S
C496 C497 1.384 . S
C496 H518 0.930 . S
C497 C492 1.407 . S
C497 C496 1.384 . S
C497 H519 0.929 . S
C498 O508 1.241 . S
C498 O509 1.273 . S
C499 O510 1.251 . S
C499 O511 1.268 . S
O500 Nd480 2.500 . S
O500 C482 1.258 . S
O501 Nd480 2.492 . S
O501 C482 1.239 . S
O502 Nd480 2.487 . S
O502 C489 1.241 . S
O503 Nd480 2.682 . S
O503 Nd481 2.414 . S
O503 C489 1.273 . S
O504 Nd480 2.410 . S
O504 C490 1.251 . S
O505 Nd481 2.424 . S
O505 C490 1.268 . S
O506 Nd481 2.500 . S
O506 C491 1.258 . S
O507 Nd481 2.492 . S
O507 C491 1.239 . S
O508 Nd481 2.487 . S
O508 C498 1.241 . S
O509 Nd480 2.414 . S
O509 Nd481 2.682 . S
O509 C498 1.273 . S
O510 Nd481 2.410 . S
O510 C499 1.251 . S
O511 Nd480 2.424 . S
O511 C499 1.268 . S
H512 C484 0.930 . S
H513 C485 0.929 . S
H514 C487 0.930 . S
H515 C488 0.929 . S
H516 C493 0.930 . S
H517 C494 0.929 . S
H518 C496 0.930 . S
H519 C497 0.929 . S
Nd520 C522 2.836 . S
Nd520 O540 2.500 . S
Nd520 O541 2.492 . S
Nd520 O542 2.487 . S
Nd520 O543 2.682 . S
Nd520 O544 2.410 . S
Nd520 O549 2.414 . S
Nd520 O551 2.424 . S
Nd521 C531 2.836 . S
Nd521 O543 2.414 . S
Nd521 O545 2.424 . S
Nd521 O546 2.500 . S
Nd521 O547 2.492 . S
Nd521 O548 2.487 . S
Nd521 O549 2.682 . S
Nd521 O550 2.410 . S
C522 Nd520 2.836 . S
C522 C523 1.498 . S
C522 O540 1.258 . S
C522 O541 1.239 . S
C523 C522 1.498 . S
C523 C524 1.366 . S
C523 C528 1.407 . S
C524 C523 1.366 . S
C524 C525 1.392 . S
C524 H552 0.930 . S
C525 C524 1.392 . S
C525 C526 1.398 . S
C525 H553 0.929 . S
C526 C525 1.398 . S
C526 C527 1.352 . S
C527 C526 1.352 . S
C527 C528 1.384 . S
C527 H554 0.930 . S
C528 C523 1.407 . S
C528 C527 1.384 . S
C528 H555 0.929 . S
C529 O542 1.241 . S
C529 O543 1.273 . S
C530 O544 1.251 . S
C530 O545 1.268 . S
C531 Nd521 2.836 . S
C531 C532 1.498 . S
C531 O546 1.258 . S
C531 O547 1.239 . S
C532 C531 1.498 . S
C532 C533 1.366 . S
C532 C537 1.407 . S
C533 C532 1.366 . S
C533 C534 1.392 . S
C533 H556 0.930 . S
C534 C533 1.392 . S
C534 C535 1.398 . S
C534 H557 0.929 . S
C535 C534 1.398 . S
C535 C536 1.352 . S
C536 C535 1.352 . S
C536 C537 1.384 . S
C536 H558 0.930 . S
C537 C532 1.407 . S
C537 C536 1.384 . S
C537 H559 0.929 . S
C538 O548 1.241 . S
C538 O549 1.273 . S
C539 O550 1.251 . S
C539 O551 1.268 . S
O540 Nd520 2.500 . S
O540 C522 1.258 . S
O541 Nd520 2.492 . S
O541 C522 1.239 . S
O542 Nd520 2.487 . S
O542 C529 1.241 . S
O543 Nd520 2.682 . S
O543 Nd521 2.414 . S
O543 C529 1.273 . S
O544 Nd520 2.410 . S
O544 C530 1.251 . S
O545 Nd521 2.424 . S
O545 C530 1.268 . S
O546 Nd521 2.500 . S
O546 C531 1.258 . S
O547 Nd521 2.492 . S
O547 C531 1.239 . S
O548 Nd521 2.487 . S
O548 C538 1.241 . S
O549 Nd520 2.414 . S
O549 Nd521 2.682 . S
O549 C538 1.273 . S
O550 Nd521 2.410 . S
O550 C539 1.251 . S
O551 Nd520 2.424 . S
O551 C539 1.268 . S
H552 C524 0.930 . S
H553 C525 0.929 . S
H554 C527 0.930 . S
H555 C528 0.929 . S
H556 C533 0.930 . S
H557 C534 0.929 . S
H558 C536 0.930 . S
H559 C537 0.929 . S
Nd560 C562 2.836 . S
Nd560 O580 2.500 . S
Nd560 O581 2.492 . S
Nd560 O582 2.487 . S
Nd560 O583 2.682 . S
Nd560 O584 2.410 . S
Nd560 O589 2.414 . S
Nd560 O591 2.424 . S
Nd561 C571 2.836 . S
Nd561 O583 2.414 . S
Nd561 O585 2.424 . S
Nd561 O586 2.500 . S
Nd561 O587 2.492 . S
Nd561 O588 2.487 . S
Nd561 O589 2.682 . S
Nd561 O590 2.410 . S
C562 Nd560 2.836 . S
C562 C563 1.498 . S
C562 O580 1.258 . S
C562 O581 1.239 . S
C563 C562 1.498 . S
C563 C564 1.366 . S
C563 C568 1.407 . S
C564 C563 1.366 . S
C564 C565 1.392 . S
C564 H592 0.930 . S
C565 C564 1.392 . S
C565 C566 1.398 . S
C565 H593 0.929 . S
C566 C565 1.398 . S
C566 C567 1.352 . S
C567 C566 1.352 . S
C567 C568 1.384 . S
C567 H594 0.930 . S
C568 C563 1.407 . S
C568 C567 1.384 . S
C568 H595 0.929 . S
C569 O582 1.241 . S
C569 O583 1.273 . S
C570 O584 1.251 . S
C570 O585 1.268 . S
C571 Nd561 2.836 . S
C571 C572 1.498 . S
C571 O586 1.258 . S
C571 O587 1.239 . S
C572 C571 1.498 . S
C572 C573 1.366 . S
C572 C577 1.407 . S
C573 C572 1.366 . S
C573 C574 1.392 . S
C573 H596 0.930 . S
C574 C573 1.392 . S
C574 C575 1.398 . S
C574 H597 0.929 . S
C575 C574 1.398 . S
C575 C576 1.352 . S
C576 C575 1.352 . S
C576 C577 1.384 . S
C576 H598 0.930 . S
C577 C572 1.407 . S
C577 C576 1.384 . S
C577 H599 0.929 . S
C578 O588 1.241 . S
C578 O589 1.273 . S
C579 O590 1.251 . S
C579 O591 1.268 . S
O580 Nd560 2.500 . S
O580 C562 1.258 . S
O581 Nd560 2.492 . S
O581 C562 1.239 . S
O582 Nd560 2.487 . S
O582 C569 1.241 . S
O583 Nd560 2.682 . S
O583 Nd561 2.414 . S
O583 C569 1.273 . S
O584 Nd560 2.410 . S
O584 C570 1.251 . S
O585 Nd561 2.424 . S
O585 C570 1.268 . S
O586 Nd561 2.500 . S
O586 C571 1.258 . S
O587 Nd561 2.492 . S
O587 C571 1.239 . S
O588 Nd561 2.487 . S
O588 C578 1.241 . S
O589 Nd560 2.414 . S
O589 Nd561 2.682 . S
O589 C578 1.273 . S
O590 Nd561 2.410 . S
O590 C579 1.251 . S
O591 Nd560 2.424 . S
O591 C579 1.268 . S
H592 C564 0.930 . S
H593 C565 0.929 . S
H594 C567 0.930 . S
H595 C568 0.929 . S
H596 C573 0.930 . S
H597 C574 0.929 . S
H598 C576 0.930 . S
H599 C577 0.929 . S
Nd600 C602 2.836 . S
Nd600 O620 2.500 . S
Nd600 O621 2.492 . S
Nd600 O622 2.487 . S
Nd600 O623 2.682 . S
Nd600 O624 2.410 . S
Nd600 O629 2.414 . S
Nd600 O631 2.424 . S
Nd601 C611 2.836 . S
Nd601 O623 2.414 . S
Nd601 O625 2.424 . S
Nd601 O626 2.500 . S
Nd601 O627 2.492 . S
Nd601 O628 2.487 . S
Nd601 O629 2.682 . S
Nd601 O630 2.410 . S
C602 Nd600 2.836 . S
C602 C603 1.498 . S
C602 O620 1.258 . S
C602 O621 1.239 . S
C603 C602 1.498 . S
C603 C604 1.366 . S
C603 C608 1.407 . S
C604 C603 1.366 . S
C604 C605 1.392 . S
C604 H632 0.930 . S
C605 C604 1.392 . S
C605 C606 1.398 . S
C605 H633 0.929 . S
C606 C605 1.398 . S
C606 C607 1.352 . S
C607 C606 1.352 . S
C607 C608 1.384 . S
C607 H634 0.930 . S
C608 C603 1.407 . S
C608 C607 1.384 . S
C608 H635 0.929 . S
C609 O622 1.241 . S
C609 O623 1.273 . S
C610 O624 1.251 . S
C610 O625 1.268 . S
C611 Nd601 2.836 . S
C611 C612 1.498 . S
C611 O626 1.258 . S
C611 O627 1.239 . S
C612 C611 1.498 . S
C612 C613 1.366 . S
C612 C617 1.407 . S
C613 C612 1.366 . S
C613 C614 1.392 . S
C613 H636 0.930 . S
C614 C613 1.392 . S
C614 C615 1.398 . S
C614 H637 0.929 . S
C615 C614 1.398 . S
C615 C616 1.352 . S
C616 C615 1.352 . S
C616 C617 1.384 . S
C616 H638 0.930 . S
C617 C612 1.407 . S
C617 C616 1.384 . S
C617 H639 0.929 . S
C618 O628 1.241 . S
C618 O629 1.273 . S
C619 O630 1.251 . S
C619 O631 1.268 . S
O620 Nd600 2.500 . S
O620 C602 1.258 . S
O621 Nd600 2.492 . S
O621 C602 1.239 . S
O622 Nd600 2.487 . S
O622 C609 1.241 . S
O623 Nd600 2.682 . S
O623 Nd601 2.414 . S
O623 C609 1.273 . S
O624 Nd600 2.410 . S
O624 C610 1.251 . S
O625 Nd601 2.424 . S
O625 C610 1.268 . S
O626 Nd601 2.500 . S
O626 C611 1.258 . S
O627 Nd601 2.492 . S
O627 C611 1.239 . S
O628 Nd601 2.487 . S
O628 C618 1.241 . S
O629 Nd600 2.414 . S
O629 Nd601 2.682 . S
O629 C618 1.273 . S
O630 Nd601 2.410 . S
O630 C619 1.251 . S
O631 Nd600 2.424 . S
O631 C619 1.268 . S
H632 C604 0.930 . S
H633 C605 0.929 . S
H634 C607 0.930 . S
H635 C608 0.929 . S
H636 C613 0.930 . S
H637 C614 0.929 . S
H638 C616 0.930 . S
H639 C617 0.929 . S
Nd640 C642 2.836 . S
Nd640 O660 2.500 . S
Nd640 O661 2.492 . S
Nd640 O662 2.487 . S
Nd640 O663 2.682 . S
Nd640 O664 2.410 . S
Nd640 O669 2.414 . S
Nd640 O671 2.424 . S
Nd641 C651 2.836 . S
Nd641 O663 2.414 . S
Nd641 O665 2.424 . S
Nd641 O666 2.500 . S
Nd641 O667 2.492 . S
Nd641 O668 2.487 . S
Nd641 O669 2.682 . S
Nd641 O670 2.410 . S
C642 Nd640 2.836 . S
C642 C643 1.498 . S
C642 O660 1.258 . S
C642 O661 1.239 . S
C643 C642 1.498 . S
C643 C644 1.366 . S
C643 C648 1.407 . S
C644 C643 1.366 . S
C644 C645 1.392 . S
C644 H672 0.930 . S
C645 C644 1.392 . S
C645 C646 1.398 . S
C645 H673 0.929 . S
C646 C645 1.398 . S
C646 C647 1.352 . S
C647 C646 1.352 . S
C647 C648 1.384 . S
C647 H674 0.930 . S
C648 C643 1.407 . S
C648 C647 1.384 . S
C648 H675 0.929 . S
C649 O662 1.241 . S
C649 O663 1.273 . S
C650 O664 1.251 . S
C650 O665 1.268 . S
C651 Nd641 2.836 . S
C651 C652 1.498 . S
C651 O666 1.258 . S
C651 O667 1.239 . S
C652 C651 1.498 . S
C652 C653 1.366 . S
C652 C657 1.407 . S
C653 C652 1.366 . S
C653 C654 1.392 . S
C653 H676 0.930 . S
C654 C653 1.392 . S
C654 C655 1.398 . S
C654 H677 0.929 . S
C655 C654 1.398 . S
C655 C656 1.352 . S
C656 C655 1.352 . S
C656 C657 1.384 . S
C656 H678 0.930 . S
C657 C652 1.407 . S
C657 C656 1.384 . S
C657 H679 0.929 . S
C658 O668 1.241 . S
C658 O669 1.273 . S
C659 O670 1.251 . S
C659 O671 1.268 . S
O660 Nd640 2.500 . S
O660 C642 1.258 . S
O661 Nd640 2.492 . S
O661 C642 1.239 . S
O662 Nd640 2.487 . S
O662 C649 1.241 . S
O663 Nd640 2.682 . S
O663 Nd641 2.414 . S
O663 C649 1.273 . S
O664 Nd640 2.410 . S
O664 C650 1.251 . S
O665 Nd641 2.424 . S
O665 C650 1.268 . S
O666 Nd641 2.500 . S
O666 C651 1.258 . S
O667 Nd641 2.492 . S
O667 C651 1.239 . S
O668 Nd641 2.487 . S
O668 C658 1.241 . S
O669 Nd640 2.414 . S
O669 Nd641 2.682 . S
O669 C658 1.273 . S
O670 Nd641 2.410 . S
O670 C659 1.251 . S
O671 Nd640 2.424 . S
O671 C659 1.268 . S
H672 C644 0.930 . S
H673 C645 0.929 . S
H674 C647 0.930 . S
H675 C648 0.929 . S
H676 C653 0.930 . S
H677 C654 0.929 . S
H678 C656 0.930 . S
H679 C657 0.929 . S
Nd680 C682 2.836 . S
Nd680 O700 2.500 1_565 S
Nd680 O701 2.492 . S
Nd680 O702 2.487 . S
Nd680 O703 2.682 . S
Nd680 O704 2.410 . S
Nd680 O709 2.414 1_565 S
Nd680 O711 2.426 . S
Nd681 C691 2.836 . S
Nd681 O703 2.414 . S
Nd681 O705 2.424 . S
Nd681 O706 2.500 . S
Nd681 O707 2.492 1_565 S
Nd681 O708 2.487 1_565 S
Nd681 O709 2.682 1_565 S
Nd681 O710 2.410 1_565 S
C682 Nd680 2.836 . S
C682 C683 1.498 . S
C682 O700 1.258 1_565 S
C682 O701 1.239 . S
C683 C682 1.498 . S
C683 C684 1.366 1_565 S
C683 C688 1.407 . S
C684 C683 1.366 1_545 S
C684 C685 1.392 . S
C684 H712 0.930 . S
C685 C684 1.392 . S
C685 C686 1.398 1_545 S
C685 H713 0.929 . S
C686 C685 1.398 1_565 S
C686 C687 1.352 . S
C687 C686 1.352 . S
C687 C688 1.384 . S
C687 H714 0.930 . S
C688 C683 1.407 . S
C688 C687 1.384 . S
C688 H715 0.929 . S
C689 O702 1.241 . S
C689 O703 1.273 . S
C690 O704 1.251 . S
C690 O705 1.268 . S
C691 Nd681 2.836 . S
C691 C692 1.498 . S
C691 O706 1.258 . S
C691 O707 1.239 1_565 S
C692 C691 1.498 . S
C692 C693 1.366 . S
C692 C697 1.407 1_565 S
C693 C692 1.366 . S
C693 C694 1.392 . S
C693 H716 0.930 . S
C694 C693 1.392 . S
C694 C695 1.398 . S
C694 H717 0.929 . S
C695 C694 1.398 . S
C695 C696 1.352 1_565 S
C696 C695 1.352 1_545 S
C696 C697 1.384 . S
C696 H718 0.930 . S
C697 C692 1.407 1_545 S
C697 C696 1.384 . S
C697 H719 0.929 . S
C698 O708 1.241 . S
C698 O709 1.273 . S
C699 O710 1.251 . S
C699 O711 1.265 1_545 S
O700 Nd680 2.500 1_545 S
O700 C682 1.258 1_545 S
O701 Nd680 2.492 . S
O701 C682 1.239 . S
O702 Nd680 2.487 . S
O702 C689 1.241 . S
O703 Nd680 2.682 . S
O703 Nd681 2.414 . S
O703 C689 1.273 . S
O704 Nd680 2.410 . S
O704 C690 1.251 . S
O705 Nd681 2.424 . S
O705 C690 1.268 . S
O706 Nd681 2.500 . S
O706 C691 1.258 . S
O707 Nd681 2.492 1_545 S
O707 C691 1.239 1_545 S
O708 Nd681 2.487 1_545 S
O708 C698 1.241 . S
O709 Nd680 2.414 1_545 S
O709 Nd681 2.682 1_545 S
O709 C698 1.273 . S
O710 Nd681 2.410 1_545 S
O710 C699 1.251 . S
O711 Nd680 2.426 . S
O711 C699 1.265 1_565 S
H712 C684 0.930 . S
H713 C685 0.929 . S
H714 C687 0.930 . S
H715 C688 0.929 . S
H716 C693 0.930 . S
H717 C694 0.929 . S
H718 C696 0.930 . S
H719 C697 0.929 . S
Nd720 C722 2.836 . S
Nd720 O740 2.500 1_565 S
Nd720 O741 2.492 . S
Nd720 O742 2.487 . S
Nd720 O743 2.682 . S
Nd720 O744 2.410 . S
Nd720 O749 2.414 1_565 S
Nd720 O751 2.426 . S
Nd721 C731 2.836 . S
Nd721 O743 2.414 . S
Nd721 O745 2.424 . S
Nd721 O746 2.500 . S
Nd721 O747 2.492 1_565 S
Nd721 O748 2.487 1_565 S
Nd721 O749 2.682 1_565 S
Nd721 O750 2.410 1_565 S
C722 Nd720 2.836 . S
C722 C723 1.498 . S
C722 O740 1.258 1_565 S
C722 O741 1.239 . S
C723 C722 1.498 . S
C723 C724 1.366 1_565 S
C723 C728 1.407 . S
C724 C723 1.366 1_545 S
C724 C725 1.392 . S
C724 H752 0.930 . S
C725 C724 1.392 . S
C725 C726 1.398 1_545 S
C725 H753 0.929 . S
C726 C725 1.398 1_565 S
C726 C727 1.352 . S
C727 C726 1.352 . S
C727 C728 1.384 . S
C727 H754 0.930 . S
C728 C723 1.407 . S
C728 C727 1.384 . S
C728 H755 0.929 . S
C729 O742 1.241 . S
C729 O743 1.273 . S
C730 O744 1.251 . S
C730 O745 1.268 . S
C731 Nd721 2.836 . S
C731 C732 1.498 . S
C731 O746 1.258 . S
C731 O747 1.239 1_565 S
C732 C731 1.498 . S
C732 C733 1.366 . S
C732 C737 1.407 1_565 S
C733 C732 1.366 . S
C733 C734 1.392 . S
C733 H756 0.930 . S
C734 C733 1.392 . S
C734 C735 1.398 . S
C734 H757 0.929 . S
C735 C734 1.398 . S
C735 C736 1.352 1_565 S
C736 C735 1.352 1_545 S
C736 C737 1.384 . S
C736 H758 0.930 . S
C737 C732 1.407 1_545 S
C737 C736 1.384 . S
C737 H759 0.929 . S
C738 O748 1.241 . S
C738 O749 1.273 . S
C739 O750 1.251 . S
C739 O751 1.265 1_545 S
O740 Nd720 2.500 1_545 S
O740 C722 1.258 1_545 S
O741 Nd720 2.492 . S
O741 C722 1.239 . S
O742 Nd720 2.487 . S
O742 C729 1.241 . S
O743 Nd720 2.682 . S
O743 Nd721 2.414 . S
O743 C729 1.273 . S
O744 Nd720 2.410 . S
O744 C730 1.251 . S
O745 Nd721 2.424 . S
O745 C730 1.268 . S
O746 Nd721 2.500 . S
O746 C731 1.258 . S
O747 Nd721 2.492 1_545 S
O747 C731 1.239 1_545 S
O748 Nd721 2.487 1_545 S
O748 C738 1.241 . S
O749 Nd720 2.414 1_545 S
O749 Nd721 2.682 1_545 S
O749 C738 1.273 . S
O750 Nd721 2.410 1_545 S
O750 C739 1.251 . S
O751 Nd720 2.426 . S
O751 C739 1.265 1_565 S
H752 C724 0.930 . S
H753 C725 0.929 . S
H754 C727 0.930 . S
H755 C728 0.929 . S
H756 C733 0.930 . S
H757 C734 0.929 . S
H758 C736 0.930 . S
H759 C737 0.929 . S
Nd760 C762 2.836 . S
Nd760 O780 2.500 . S
Nd760 O781 2.492 . S
Nd760 O782 2.487 . S
Nd760 O783 2.682 . S
Nd760 O784 2.410 . S
Nd760 O789 2.414 . S
Nd760 O791 2.424 . S
Nd761 C771 2.836 . S
Nd761 O783 2.414 . S
Nd761 O785 2.424 . S
Nd761 O786 2.500 . S
Nd761 O787 2.492 . S
Nd761 O788 2.487 . S
Nd761 O789 2.682 . S
Nd761 O790 2.410 . S
C762 Nd760 2.836 . S
C762 C763 1.498 . S
C762 O780 1.258 . S
C762 O781 1.239 . S
C763 C762 1.498 . S
C763 C764 1.366 . S
C763 C768 1.407 . S
C764 C763 1.366 . S
C764 C765 1.392 . S
C764 H792 0.930 . S
C765 C764 1.392 . S
C765 C766 1.398 . S
C765 H793 0.929 . S
C766 C765 1.398 . S
C766 C767 1.352 . S
C767 C766 1.352 . S
C767 C768 1.384 . S
C767 H794 0.930 . S
C768 C763 1.407 . S
C768 C767 1.384 . S
C768 H795 0.929 . S
C769 O782 1.241 . S
C769 O783 1.273 . S
C770 O784 1.251 . S
C770 O785 1.268 . S
C771 Nd761 2.836 . S
C771 C772 1.498 . S
C771 O786 1.258 . S
C771 O787 1.239 . S
C772 C771 1.498 . S
C772 C773 1.366 . S
C772 C777 1.407 . S
C773 C772 1.366 . S
C773 C774 1.392 . S
C773 H796 0.930 . S
C774 C773 1.392 . S
C774 C775 1.398 . S
C774 H797 0.929 . S
C775 C774 1.398 . S
C775 C776 1.352 . S
C776 C775 1.352 . S
C776 C777 1.384 . S
C776 H798 0.930 . S
C777 C772 1.407 . S
C777 C776 1.384 . S
C777 H799 0.929 . S
C778 O788 1.241 . S
C778 O789 1.273 . S
C779 O790 1.251 . S
C779 O791 1.268 . S
O780 Nd760 2.500 . S
O780 C762 1.258 . S
O781 Nd760 2.492 . S
O781 C762 1.239 . S
O782 Nd760 2.487 . S
O782 C769 1.241 . S
O783 Nd760 2.682 . S
O783 Nd761 2.414 . S
O783 C769 1.273 . S
O784 Nd760 2.410 . S
O784 C770 1.251 . S
O785 Nd761 2.424 . S
O785 C770 1.268 . S
O786 Nd761 2.500 . S
O786 C771 1.258 . S
O787 Nd761 2.492 . S
O787 C771 1.239 . S
O788 Nd761 2.487 . S
O788 C778 1.241 . S
O789 Nd760 2.414 . S
O789 Nd761 2.682 . S
O789 C778 1.273 . S
O790 Nd761 2.410 . S
O790 C779 1.251 . S
O791 Nd760 2.424 . S
O791 C779 1.268 . S
H792 C764 0.930 . S
H793 C765 0.929 . S
H794 C767 0.930 . S
H795 C768 0.929 . S
H796 C773 0.930 . S
H797 C774 0.929 . S
H798 C776 0.930 . S
H799 C777 0.929 . S
Nd800 C802 2.836 . S
Nd800 O820 2.500 . S
Nd800 O821 2.492 . S
Nd800 O822 2.487 . S
Nd800 O823 2.682 . S
Nd800 O824 2.410 . S
Nd800 O829 2.414 . S
Nd800 O831 2.424 . S
Nd801 C811 2.836 . S
Nd801 O823 2.414 . S
Nd801 O825 2.424 . S
Nd801 O826 2.500 . S
Nd801 O827 2.492 . S
Nd801 O828 2.487 . S
Nd801 O829 2.682 . S
Nd801 O830 2.410 . S
C802 Nd800 2.836 . S
C802 C803 1.498 . S
C802 O820 1.258 . S
C802 O821 1.239 . S
C803 C802 1.498 . S
C803 C804 1.366 . S
C803 C808 1.407 . S
C804 C803 1.366 . S
C804 C805 1.392 . S
C804 H832 0.930 . S
C805 C804 1.392 . S
C805 C806 1.398 . S
C805 H833 0.929 . S
C806 C805 1.398 . S
C806 C807 1.352 . S
C807 C806 1.352 . S
C807 C808 1.384 . S
C807 H834 0.930 . S
C808 C803 1.407 . S
C808 C807 1.384 . S
C808 H835 0.929 . S
C809 O822 1.241 . S
C809 O823 1.273 . S
C810 O824 1.251 . S
C810 O825 1.268 . S
C811 Nd801 2.836 . S
C811 C812 1.498 . S
C811 O826 1.258 . S
C811 O827 1.239 . S
C812 C811 1.498 . S
C812 C813 1.366 . S
C812 C817 1.407 . S
C813 C812 1.366 . S
C813 C814 1.392 . S
C813 H836 0.930 . S
C814 C813 1.392 . S
C814 C815 1.398 . S
C814 H837 0.929 . S
C815 C814 1.398 . S
C815 C816 1.352 . S
C816 C815 1.352 . S
C816 C817 1.384 . S
C816 H838 0.930 . S
C817 C812 1.407 . S
C817 C816 1.384 . S
C817 H839 0.929 . S
C818 O828 1.241 . S
C818 O829 1.273 . S
C819 O830 1.251 . S
C819 O831 1.268 . S
O820 Nd800 2.500 . S
O820 C802 1.258 . S
O821 Nd800 2.492 . S
O821 C802 1.239 . S
O822 Nd800 2.487 . S
O822 C809 1.241 . S
O823 Nd800 2.682 . S
O823 Nd801 2.414 . S
O823 C809 1.273 . S
O824 Nd800 2.410 . S
O824 C810 1.251 . S
O825 Nd801 2.424 . S
O825 C810 1.268 . S
O826 Nd801 2.500 . S
O826 C811 1.258 . S
O827 Nd801 2.492 . S
O827 C811 1.239 . S
O828 Nd801 2.487 . S
O828 C818 1.241 . S
O829 Nd800 2.414 . S
O829 Nd801 2.682 . S
O829 C818 1.273 . S
O830 Nd801 2.410 . S
O830 C819 1.251 . S
O831 Nd800 2.424 . S
O831 C819 1.268 . S
H832 C804 0.930 . S
H833 C805 0.929 . S
H834 C807 0.930 . S
H835 C808 0.929 . S
H836 C813 0.930 . S
H837 C814 0.929 . S
H838 C816 0.930 . S
H839 C817 0.929 . S
Nd840 C842 2.836 . S
Nd840 O860 2.500 . S
Nd840 O861 2.492 1_545 S
Nd840 O862 2.487 1_545 S
Nd840 O863 2.682 1_545 S
Nd840 O864 2.410 1_545 S
Nd840 O869 2.414 . S
Nd840 O871 2.424 . S
Nd841 C851 2.836 . S
Nd841 O863 2.414 1_545 S
Nd841 O865 2.426 . S
Nd841 O866 2.500 1_545 S
Nd841 O867 2.492 . S
Nd841 O868 2.487 . S
Nd841 O869 2.682 . S
Nd841 O870 2.410 . S
C842 Nd840 2.836 . S
C842 C843 1.498 . S
C842 O860 1.258 . S
C842 O861 1.239 1_545 S
C843 C842 1.498 . S
C843 C844 1.366 . S
C843 C848 1.407 1_545 S
C844 C843 1.366 . S
C844 C845 1.392 . S
C844 H872 0.930 . S
C845 C844 1.392 . S
C845 C846 1.398 . S
C845 H873 0.929 . S
C846 C845 1.398 . S
C846 C847 1.352 1_545 S
C847 C846 1.352 1_565 S
C847 C848 1.384 . S
C847 H874 0.930 . S
C848 C843 1.407 1_565 S
C848 C847 1.384 . S
C848 H875 0.929 . S
C849 O862 1.241 . S
C849 O863 1.273 . S
C850 O864 1.251 . S
C850 O865 1.265 1_565 S
C851 Nd841 2.836 . S
C851 C852 1.498 . S
C851 O866 1.258 1_545 S
C851 O867 1.239 . S
C852 C851 1.498 . S
C852 C853 1.366 1_545 S
C852 C857 1.407 . S
C853 C852 1.366 1_565 S
C853 C854 1.392 . S
C853 H876 0.930 . S
C854 C853 1.392 . S
C854 C855 1.398 1_565 S
C854 H877 0.929 . S
C855 C854 1.398 1_545 S
C855 C856 1.352 . S
C856 C855 1.352 . S
C856 C857 1.384 . S
C856 H878 0.930 . S
C857 C852 1.407 . S
C857 C856 1.384 . S
C857 H879 0.929 . S
C858 O868 1.241 . S
C858 O869 1.273 . S
C859 O870 1.251 . S
C859 O871 1.268 . S
O860 Nd840 2.500 . S
O860 C842 1.258 . S
O861 Nd840 2.492 1_565 S
O861 C842 1.239 1_565 S
O862 Nd840 2.487 1_565 S
O862 C849 1.241 . S
O863 Nd840 2.682 1_565 S
O863 Nd841 2.414 1_565 S
O863 C849 1.273 . S
O864 Nd840 2.410 1_565 S
O864 C850 1.251 . S
O865 Nd841 2.426 . S
O865 C850 1.265 1_545 S
O866 Nd841 2.500 1_565 S
O866 C851 1.258 1_565 S
O867 Nd841 2.492 . S
O867 C851 1.239 . S
O868 Nd841 2.487 . S
O868 C858 1.241 . S
O869 Nd840 2.414 . S
O869 Nd841 2.682 . S
O869 C858 1.273 . S
O870 Nd841 2.410 . S
O870 C859 1.251 . S
O871 Nd840 2.424 . S
O871 C859 1.268 . S
H872 C844 0.930 . S
H873 C845 0.929 . S
H874 C847 0.930 . S
H875 C848 0.929 . S
H876 C853 0.930 . S
H877 C854 0.929 . S
H878 C856 0.930 . S
H879 C857 0.929 . S
Nd880 C882 2.836 . S
Nd880 O900 2.500 . S
Nd880 O901 2.492 1_545 S
Nd880 O902 2.487 1_545 S
Nd880 O903 2.682 1_545 S
Nd880 O904 2.410 1_545 S
Nd880 O909 2.414 . S
Nd880 O911 2.424 . S
Nd881 C891 2.836 . S
Nd881 O903 2.414 1_545 S
Nd881 O905 2.426 . S
Nd881 O906 2.500 1_545 S
Nd881 O907 2.492 . S
Nd881 O908 2.487 . S
Nd881 O909 2.682 . S
Nd881 O910 2.410 . S
C882 Nd880 2.836 . S
C882 C883 1.498 . S
C882 O900 1.258 . S
C882 O901 1.239 1_545 S
C883 C882 1.498 . S
C883 C884 1.366 . S
C883 C888 1.407 1_545 S
C884 C883 1.366 . S
C884 C885 1.392 . S
C884 H912 0.930 . S
C885 C884 1.392 . S
C885 C886 1.398 . S
C885 H913 0.929 . S
C886 C885 1.398 . S
C886 C887 1.352 1_545 S
C887 C886 1.352 1_565 S
C887 C888 1.384 . S
C887 H914 0.930 . S
C888 C883 1.407 1_565 S
C888 C887 1.384 . S
C888 H915 0.929 . S
C889 O902 1.241 . S
C889 O903 1.273 . S
C890 O904 1.251 . S
C890 O905 1.265 1_565 S
C891 Nd881 2.836 . S
C891 C892 1.498 . S
C891 O906 1.258 1_545 S
C891 O907 1.239 . S
C892 C891 1.498 . S
C892 C893 1.366 1_545 S
C892 C897 1.407 . S
C893 C892 1.366 1_565 S
C893 C894 1.392 . S
C893 H916 0.930 . S
C894 C893 1.392 . S
C894 C895 1.398 1_565 S
C894 H917 0.929 . S
C895 C894 1.398 1_545 S
C895 C896 1.352 . S
C896 C895 1.352 . S
C896 C897 1.384 . S
C896 H918 0.930 . S
C897 C892 1.407 . S
C897 C896 1.384 . S
C897 H919 0.929 . S
C898 O908 1.241 . S
C898 O909 1.273 . S
C899 O910 1.251 . S
C899 O911 1.268 . S
O900 Nd880 2.500 . S
O900 C882 1.258 . S
O901 Nd880 2.492 1_565 S
O901 C882 1.239 1_565 S
O902 Nd880 2.487 1_565 S
O902 C889 1.241 . S
O903 Nd880 2.682 1_565 S
O903 Nd881 2.414 1_565 S
O903 C889 1.273 . S
O904 Nd880 2.410 1_565 S
O904 C890 1.251 . S
O905 Nd881 2.426 . S
O905 C890 1.265 1_545 S
O906 Nd881 2.500 1_565 S
O906 C891 1.258 1_565 S
O907 Nd881 2.492 . S
O907 C891 1.239 . S
O908 Nd881 2.487 . S
O908 C898 1.241 . S
O909 Nd880 2.414 . S
O909 Nd881 2.682 . S
O909 C898 1.273 . S
O910 Nd881 2.410 . S
O910 C899 1.251 . S
O911 Nd880 2.424 . S
O911 C899 1.268 . S
H912 C884 0.930 . S
H913 C885 0.929 . S
H914 C887 0.930 . S
H915 C888 0.929 . S
H916 C893 0.930 . S
H917 C894 0.929 . S
H918 C896 0.930 . S
H919 C897 0.929 . S
Nd920 C922 2.836 . S
Nd920 O940 2.500 . S
Nd920 O941 2.492 . S
Nd920 O942 2.487 . S
Nd920 O943 2.682 . S
Nd920 O944 2.410 . S
Nd920 O949 2.414 . S
Nd920 O951 2.424 . S
Nd921 C931 2.836 . S
Nd921 O943 2.414 . S
Nd921 O945 2.424 . S
Nd921 O946 2.500 . S
Nd921 O947 2.492 . S
Nd921 O948 2.487 . S
Nd921 O949 2.682 . S
Nd921 O950 2.410 . S
C922 Nd920 2.836 . S
C922 C923 1.498 . S
C922 O940 1.258 . S
C922 O941 1.239 . S
C923 C922 1.498 . S
C923 C924 1.366 . S
C923 C928 1.407 . S
C924 C923 1.366 . S
C924 C925 1.392 . S
C924 H952 0.930 . S
C925 C924 1.392 . S
C925 C926 1.398 . S
C925 H953 0.929 . S
C926 C925 1.398 . S
C926 C927 1.352 . S
C927 C926 1.352 . S
C927 C928 1.384 . S
C927 H954 0.930 . S
C928 C923 1.407 . S
C928 C927 1.384 . S
C928 H955 0.929 . S
C929 O942 1.241 . S
C929 O943 1.273 . S
C930 O944 1.251 . S
C930 O945 1.268 . S
C931 Nd921 2.836 . S
C931 C932 1.498 . S
C931 O946 1.258 . S
C931 O947 1.239 . S
C932 C931 1.498 . S
C932 C933 1.366 . S
C932 C937 1.407 . S
C933 C932 1.366 . S
C933 C934 1.392 . S
C933 H956 0.930 . S
C934 C933 1.392 . S
C934 C935 1.398 . S
C934 H957 0.929 . S
C935 C934 1.398 . S
C935 C936 1.352 . S
C936 C935 1.352 . S
C936 C937 1.384 . S
C936 H958 0.930 . S
C937 C932 1.407 . S
C937 C936 1.384 . S
C937 H959 0.929 . S
C938 O948 1.241 . S
C938 O949 1.273 . S
C939 O950 1.251 . S
C939 O951 1.268 . S
O940 Nd920 2.500 . S
O940 C922 1.258 . S
O941 Nd920 2.492 . S
O941 C922 1.239 . S
O942 Nd920 2.487 . S
O942 C929 1.241 . S
O943 Nd920 2.682 . S
O943 Nd921 2.414 . S
O943 C929 1.273 . S
O944 Nd920 2.410 . S
O944 C930 1.251 . S
O945 Nd921 2.424 . S
O945 C930 1.268 . S
O946 Nd921 2.500 . S
O946 C931 1.258 . S
O947 Nd921 2.492 . S
O947 C931 1.239 . S
O948 Nd921 2.487 . S
O948 C938 1.241 . S
O949 Nd920 2.414 . S
O949 Nd921 2.682 . S
O949 C938 1.273 . S
O950 Nd921 2.410 . S
O950 C939 1.251 . S
O951 Nd920 2.424 . S
O951 C939 1.268 . S
H952 C924 0.930 . S
H953 C925 0.929 . S
H954 C927 0.930 . S
H955 C928 0.929 . S
H956 C933 0.930 . S
H957 C934 0.929 . S
H958 C936 0.930 . S
H959 C937 0.929 . S
Nd960 C962 2.836 . S
Nd960 O980 2.500 . S
Nd960 O981 2.492 . S
Nd960 O982 2.487 . S
Nd960 O983 2.682 . S
Nd960 O984 2.410 . S
Nd960 O989 2.414 . S
Nd960 O991 2.424 . S
Nd961 C971 2.836 . S
Nd961 O983 2.414 . S
Nd961 O985 2.424 . S
Nd961 O986 2.500 . S
Nd961 O987 2.492 . S
Nd961 O988 2.487 . S
Nd961 O989 2.682 . S
Nd961 O990 2.410 . S
C962 Nd960 2.836 . S
C962 C963 1.498 . S
C962 O980 1.258 . S
C962 O981 1.239 . S
C963 C962 1.498 . S
C963 C964 1.366 . S
C963 C968 1.407 . S
C964 C963 1.366 . S
C964 C965 1.395 . S
C964 H992 0.930 . S
C965 C964 1.395 . S
C965 C966 1.399 . S
C965 H993 0.926 1_554 S
C966 C965 1.399 . S
C966 C967 1.352 . S
C967 C966 1.352 . S
C967 C968 1.384 . S
C967 H994 0.930 . S
C968 C963 1.407 . S
C968 C967 1.384 . S
C968 H995 0.929 . S
C969 O982 1.241 . S
C969 O983 1.273 . S
C970 O984 1.251 . S
C970 O985 1.268 . S
C971 Nd961 2.836 . S
C971 C972 1.498 . S
C971 O986 1.258 . S
C971 O987 1.239 . S
C972 C971 1.498 . S
C972 C973 1.366 . S
C972 C977 1.407 . S
C973 C972 1.366 . S
C973 C974 1.392 . S
C973 H996 0.930 . S
C974 C973 1.392 . S
C974 C975 1.398 . S
C974 H997 0.929 . S
C975 C974 1.398 . S
C975 C976 1.352 . S
C976 C975 1.352 . S
C976 C977 1.384 . S
C976 H998 0.930 . S
C977 C972 1.407 . S
C977 C976 1.384 . S
C977 H999 0.929 . S
C978 O988 1.241 . S
C978 O989 1.273 . S
C979 O990 1.251 . S
C979 O991 1.268 . S
O980 Nd960 2.500 . S
O980 C962 1.258 . S
O981 Nd960 2.492 . S
O981 C962 1.239 . S
O982 Nd960 2.487 . S
O982 C969 1.241 . S
O983 Nd960 2.682 . S
O983 Nd961 2.414 . S
O983 C969 1.273 . S
O984 Nd960 2.410 . S
O984 C970 1.251 . S
O985 Nd961 2.424 . S
O985 C970 1.268 . S
O986 Nd961 2.500 . S
O986 C971 1.258 . S
O987 Nd961 2.492 . S
O987 C971 1.239 . S
O988 Nd961 2.487 . S
O988 C978 1.241 . S
O989 Nd960 2.414 . S
O989 Nd961 2.682 . S
O989 C978 1.273 . S
O990 Nd961 2.410 . S
O990 C979 1.251 . S
O991 Nd960 2.424 . S
O991 C979 1.268 . S
H992 C964 0.930 . S
H993 C965 0.926 1_556 S
H994 C967 0.930 . S
H995 C968 0.929 . S
H996 C973 0.930 . S
H997 C974 0.929 . S
H998 C976 0.930 . S
H999 C977 0.929 . S
Nd1000 C1002 2.836 . S
Nd1000 O1020 2.500 . S
Nd1000 O1021 2.492 . S
Nd1000 O1022 2.487 . S
Nd1000 O1023 2.682 . S
Nd1000 O1024 2.410 . S
Nd1000 O1029 2.414 . S
Nd1000 O1031 2.424 . S
Nd1001 C1011 2.836 . S
Nd1001 O1023 2.414 . S
Nd1001 O1025 2.424 . S
Nd1001 O1026 2.500 . S
Nd1001 O1027 2.492 . S
Nd1001 O1028 2.487 . S
Nd1001 O1029 2.682 . S
Nd1001 O1030 2.410 . S
C1002 Nd1000 2.836 . S
C1002 C1003 1.498 . S
C1002 O1020 1.258 . S
C1002 O1021 1.239 . S
C1003 C1002 1.498 . S
C1003 C1004 1.366 . S
C1003 C1008 1.407 . S
C1004 C1003 1.366 . S
C1004 C1005 1.396 . S
C1004 H1032 0.930 . S
C1005 C1004 1.396 . S
C1005 C1006 1.399 . S
C1005 H1033 0.926 1_554 S
C1006 C1005 1.399 . S
C1006 C1007 1.352 . S
C1007 C1006 1.352 . S
C1007 C1008 1.384 . S
C1007 H1034 0.930 . S
C1008 C1003 1.407 . S
C1008 C1007 1.384 . S
C1008 H1035 0.929 . S
C1009 O1022 1.241 . S
C1009 O1023 1.273 . S
C1010 O1024 1.251 . S
C1010 O1025 1.268 . S
C1011 Nd1001 2.836 . S
C1011 C1012 1.498 . S
C1011 O1026 1.258 . S
C1011 O1027 1.239 . S
C1012 C1011 1.498 . S
C1012 C1013 1.366 . S
C1012 C1017 1.407 . S
C1013 C1012 1.366 . S
C1013 C1014 1.392 . S
C1013 H1036 0.930 . S
C1014 C1013 1.392 . S
C1014 C1015 1.398 . S
C1014 H1037 0.929 . S
C1015 C1014 1.398 . S
C1015 C1016 1.352 . S
C1016 C1015 1.352 . S
C1016 C1017 1.384 . S
C1016 H1038 0.930 . S
C1017 C1012 1.407 . S
C1017 C1016 1.384 . S
C1017 H1039 0.929 . S
C1018 O1028 1.241 . S
C1018 O1029 1.273 . S
C1019 O1030 1.251 . S
C1019 O1031 1.268 . S
O1020 Nd1000 2.500 . S
O1020 C1002 1.258 . S
O1021 Nd1000 2.492 . S
O1021 C1002 1.239 . S
O1022 Nd1000 2.487 . S
O1022 C1009 1.241 . S
O1023 Nd1000 2.682 . S
O1023 Nd1001 2.414 . S
O1023 C1009 1.273 . S
O1024 Nd1000 2.410 . S
O1024 C1010 1.251 . S
O1025 Nd1001 2.424 . S
O1025 C1010 1.268 . S
O1026 Nd1001 2.500 . S
O1026 C1011 1.258 . S
O1027 Nd1001 2.492 . S
O1027 C1011 1.239 . S
O1028 Nd1001 2.487 . S
O1028 C1018 1.241 . S
O1029 Nd1000 2.414 . S
O1029 Nd1001 2.682 . S
O1029 C1018 1.273 . S
O1030 Nd1001 2.410 . S
O1030 C1019 1.251 . S
O1031 Nd1000 2.424 . S
O1031 C1019 1.268 . S
H1032 C1004 0.930 . S
H1033 C1005 0.926 1_556 S
H1034 C1007 0.930 . S
H1035 C1008 0.929 . S
H1036 C1013 0.930 . S
H1037 C1014 0.929 . S
H1038 C1016 0.930 . S
H1039 C1017 0.929 . S
Nd1040 C1042 2.836 . S
Nd1040 O1060 2.500 . S
Nd1040 O1061 2.492 . S
Nd1040 O1062 2.487 . S
Nd1040 O1063 2.682 . S
Nd1040 O1064 2.410 . S
Nd1040 O1069 2.414 . S
Nd1040 O1071 2.424 1_554 S
Nd1041 C1051 2.836 1_554 S
Nd1041 O1063 2.414 . S
Nd1041 O1065 2.424 . S
Nd1041 O1066 2.500 1_554 S
Nd1041 O1067 2.492 1_554 S
Nd1041 O1068 2.487 . S
Nd1041 O1069 2.682 . S
Nd1041 O1070 2.410 1_554 S
C1042 Nd1040 2.836 . S
C1042 C1043 1.498 . S
C1042 O1060 1.258 . S
C1042 O1061 1.239 . S
C1043 C1042 1.498 . S
C1043 C1044 1.366 . S
C1043 C1048 1.407 . S
C1044 C1043 1.366 . S
C1044 C1045 1.392 . S
C1044 H1072 0.930 . S
C1045 C1044 1.392 . S
C1045 C1046 1.398 . S
C1045 H1073 0.929 . S
C1046 C1045 1.398 . S
C1046 C1047 1.352 . S
C1047 C1046 1.352 . S
C1047 C1048 1.384 . S
C1047 H1074 0.930 . S
C1048 C1043 1.407 . S
C1048 C1047 1.384 . S
C1048 H1075 0.929 . S
C1049 O1062 1.241 1_556 S
C1049 O1063 1.273 1_556 S
C1050 O1064 1.251 . S
C1050 O1065 1.268 . S
C1051 Nd1041 2.836 1_556 S
C1051 C1052 1.498 . S
C1051 O1066 1.258 . S
C1051 O1067 1.239 . S
C1052 C1051 1.498 . S
C1052 C1053 1.366 . S
C1052 C1057 1.407 . S
C1053 C1052 1.366 . S
C1053 C1054 1.392 . S
C1053 H1076 0.930 . S
C1054 C1053 1.392 . S
C1054 C1055 1.398 . S
C1054 H1077 0.929 . S
C1055 C1054 1.398 . S
C1055 C1056 1.352 . S
C1056 C1055 1.352 . S
C1056 C1057 1.384 . S
C1056 H1078 0.930 . S
C1057 C1052 1.407 . S
C1057 C1056 1.384 . S
C1057 H1079 0.929 . S
C1058 O1068 1.241 . S
C1058 O1069 1.273 . S
C1059 O1070 1.251 . S
C1059 O1071 1.268 . S
O1060 Nd1040 2.500 . S
O1060 C1042 1.258 . S
O1061 Nd1040 2.492 . S
O1061 C1042 1.239 . S
O1062 Nd1040 2.487 . S
O1062 C1049 1.241 1_554 S
O1063 Nd1040 2.682 . S
O1063 Nd1041 2.414 . S
O1063 C1049 1.273 1_554 S
O1064 Nd1040 2.410 . S
O1064 C1050 1.251 . S
O1065 Nd1041 2.424 . S
O1065 C1050 1.268 . S
O1066 Nd1041 2.500 1_556 S
O1066 C1051 1.258 . S
O1067 Nd1041 2.492 1_556 S
O1067 C1051 1.239 . S
O1068 Nd1041 2.487 . S
O1068 C1058 1.241 . S
O1069 Nd1040 2.414 . S
O1069 Nd1041 2.682 . S
O1069 C1058 1.273 . S
O1070 Nd1041 2.410 1_556 S
O1070 C1059 1.251 . S
O1071 Nd1040 2.424 1_556 S
O1071 C1059 1.268 . S
H1072 C1044 0.930 . S
H1073 C1045 0.929 . S
H1074 C1047 0.930 . S
H1075 C1048 0.929 . S
H1076 C1053 0.930 . S
H1077 C1054 0.929 . S
H1078 C1056 0.930 . S
H1079 C1057 0.929 . S
Nd1080 C1082 2.836 . S
Nd1080 O1100 2.500 . S
Nd1080 O1101 2.492 . S
Nd1080 O1102 2.487 . S
Nd1080 O1103 2.682 . S
Nd1080 O1104 2.410 . S
Nd1080 O1109 2.414 . S
Nd1080 O1111 2.424 1_554 S
Nd1081 C1091 2.836 1_554 S
Nd1081 O1103 2.414 . S
Nd1081 O1105 2.424 . S
Nd1081 O1106 2.500 1_554 S
Nd1081 O1107 2.492 1_554 S
Nd1081 O1108 2.487 . S
Nd1081 O1109 2.682 . S
Nd1081 O1110 2.410 1_554 S
C1082 Nd1080 2.836 . S
C1082 C1083 1.498 . S
C1082 O1100 1.258 . S
C1082 O1101 1.239 . S
C1083 C1082 1.498 . S
C1083 C1084 1.366 . S
C1083 C1088 1.407 . S
C1084 C1083 1.366 . S
C1084 C1085 1.392 . S
C1084 H1112 0.930 . S
C1085 C1084 1.392 . S
C1085 C1086 1.398 . S
C1085 H1113 0.929 . S
C1086 C1085 1.398 . S
C1086 C1087 1.352 . S
C1087 C1086 1.352 . S
C1087 C1088 1.384 . S
C1087 H1114 0.930 . S
C1088 C1083 1.407 . S
C1088 C1087 1.384 . S
C1088 H1115 0.929 . S
C1089 O1102 1.241 1_556 S
C1089 O1103 1.273 1_556 S
C1090 O1104 1.251 . S
C1090 O1105 1.268 . S
C1091 Nd1081 2.836 1_556 S
C1091 C1092 1.498 . S
C1091 O1106 1.258 . S
C1091 O1107 1.239 . S
C1092 C1091 1.498 . S
C1092 C1093 1.366 . S
C1092 C1097 1.407 . S
C1093 C1092 1.366 . S
C1093 C1094 1.392 . S
C1093 H1116 0.930 . S
C1094 C1093 1.392 . S
C1094 C1095 1.398 . S
C1094 H1117 0.929 . S
C1095 C1094 1.398 . S
C1095 C1096 1.352 . S
C1096 C1095 1.352 . S
C1096 C1097 1.384 . S
C1096 H1118 0.930 . S
C1097 C1092 1.407 . S
C1097 C1096 1.384 . S
C1097 H1119 0.929 . S
C1098 O1108 1.241 . S
C1098 O1109 1.273 . S
C1099 O1110 1.251 . S
C1099 O1111 1.268 . S
O1100 Nd1080 2.500 . S
O1100 C1082 1.258 . S
O1101 Nd1080 2.492 . S
O1101 C1082 1.239 . S
O1102 Nd1080 2.487 . S
O1102 C1089 1.241 1_554 S
O1103 Nd1080 2.682 . S
O1103 Nd1081 2.414 . S
O1103 C1089 1.273 1_554 S
O1104 Nd1080 2.410 . S
O1104 C1090 1.251 . S
O1105 Nd1081 2.424 . S
O1105 C1090 1.268 . S
O1106 Nd1081 2.500 1_556 S
O1106 C1091 1.258 . S
O1107 Nd1081 2.492 1_556 S
O1107 C1091 1.239 . S
O1108 Nd1081 2.487 . S
O1108 C1098 1.241 . S
O1109 Nd1080 2.414 . S
O1109 Nd1081 2.682 . S
O1109 C1098 1.273 . S
O1110 Nd1081 2.410 1_556 S
O1110 C1099 1.251 . S
O1111 Nd1080 2.424 1_556 S
O1111 C1099 1.268 . S
H1112 C1084 0.930 . S
H1113 C1085 0.929 . S
H1114 C1087 0.930 . S
H1115 C1088 0.929 . S
H1116 C1093 0.930 . S
H1117 C1094 0.929 . S
H1118 C1096 0.930 . S
H1119 C1097 0.929 . S
Nd1120 C1122 2.836 . S
Nd1120 O1140 2.500 . S
Nd1120 O1141 2.492 . S
Nd1120 O1142 2.487 . S
Nd1120 O1143 2.682 . S
Nd1120 O1144 2.410 . S
Nd1120 O1149 2.414 . S
Nd1120 O1151 2.424 . S
Nd1121 C1131 2.836 . S
Nd1121 O1143 2.414 . S
Nd1121 O1145 2.424 . S
Nd1121 O1146 2.500 . S
Nd1121 O1147 2.492 . S
Nd1121 O1148 2.487 . S
Nd1121 O1149 2.682 . S
Nd1121 O1150 2.410 . S
C1122 Nd1120 2.836 . S
C1122 C1123 1.498 . S
C1122 O1140 1.258 . S
C1122 O1141 1.239 . S
C1123 C1122 1.498 . S
C1123 C1124 1.366 . S
C1123 C1128 1.407 . S
C1124 C1123 1.366 . S
C1124 C1125 1.392 . S
C1124 H1152 0.930 . S
C1125 C1124 1.392 . S
C1125 C1126 1.398 . S
C1125 H1153 0.929 . S
C1126 C1125 1.398 . S
C1126 C1127 1.352 . S
C1127 C1126 1.352 . S
C1127 C1128 1.384 . S
C1127 H1154 0.930 . S
C1128 C1123 1.407 . S
C1128 C1127 1.384 . S
C1128 H1155 0.929 . S
C1129 O1142 1.241 . S
C1129 O1143 1.273 . S
C1130 O1144 1.251 . S
C1130 O1145 1.268 . S
C1131 Nd1121 2.836 . S
C1131 C1132 1.498 . S
C1131 O1146 1.258 . S
C1131 O1147 1.239 . S
C1132 C1131 1.498 . S
C1132 C1133 1.366 . S
C1132 C1137 1.407 . S
C1133 C1132 1.366 . S
C1133 C1134 1.395 . S
C1133 H1156 0.930 . S
C1134 C1133 1.395 . S
C1134 C1135 1.399 . S
C1134 H1157 0.926 1_556 S
C1135 C1134 1.399 . S
C1135 C1136 1.352 . S
C1136 C1135 1.352 . S
C1136 C1137 1.384 . S
C1136 H1158 0.930 . S
C1137 C1132 1.407 . S
C1137 C1136 1.384 . S
C1137 H1159 0.929 . S
C1138 O1148 1.241 . S
C1138 O1149 1.273 . S
C1139 O1150 1.251 . S
C1139 O1151 1.268 . S
O1140 Nd1120 2.500 . S
O1140 C1122 1.258 . S
O1141 Nd1120 2.492 . S
O1141 C1122 1.239 . S
O1142 Nd1120 2.487 . S
O1142 C1129 1.241 . S
O1143 Nd1120 2.682 . S
O1143 Nd1121 2.414 . S
O1143 C1129 1.273 . S
O1144 Nd1120 2.410 . S
O1144 C1130 1.251 . S
O1145 Nd1121 2.424 . S
O1145 C1130 1.268 . S
O1146 Nd1121 2.500 . S
O1146 C1131 1.258 . S
O1147 Nd1121 2.492 . S
O1147 C1131 1.239 . S
O1148 Nd1121 2.487 . S
O1148 C1138 1.241 . S
O1149 Nd1120 2.414 . S
O1149 Nd1121 2.682 . S
O1149 C1138 1.273 . S
O1150 Nd1121 2.410 . S
O1150 C1139 1.251 . S
O1151 Nd1120 2.424 . S
O1151 C1139 1.268 . S
H1152 C1124 0.930 . S
H1153 C1125 0.929 . S
H1154 C1127 0.930 . S
H1155 C1128 0.929 . S
H1156 C1133 0.930 . S
H1157 C1134 0.926 1_554 S
H1158 C1136 0.930 . S
H1159 C1137 0.929 . S
Nd1160 C1162 2.836 . S
Nd1160 O1180 2.500 . S
Nd1160 O1181 2.492 . S
Nd1160 O1182 2.487 . S
Nd1160 O1183 2.682 . S
Nd1160 O1184 2.410 . S
Nd1160 O1189 2.414 . S
Nd1160 O1191 2.424 . S
Nd1161 C1171 2.836 . S
Nd1161 O1183 2.414 . S
Nd1161 O1185 2.424 . S
Nd1161 O1186 2.500 . S
Nd1161 O1187 2.492 . S
Nd1161 O1188 2.487 . S
Nd1161 O1189 2.682 . S
Nd1161 O1190 2.410 . S
C1162 Nd1160 2.836 . S
C1162 C1163 1.498 . S
C1162 O1180 1.258 . S
C1162 O1181 1.239 . S
C1163 C1162 1.498 . S
C1163 C1164 1.366 . S
C1163 C1168 1.407 . S
C1164 C1163 1.366 . S
C1164 C1165 1.392 . S
C1164 H1192 0.930 . S
C1165 C1164 1.392 . S
C1165 C1166 1.398 . S
C1165 H1193 0.929 . S
C1166 C1165 1.398 . S
C1166 C1167 1.352 . S
C1167 C1166 1.352 . S
C1167 C1168 1.384 . S
C1167 H1194 0.930 . S
C1168 C1163 1.407 . S
C1168 C1167 1.384 . S
C1168 H1195 0.929 . S
C1169 O1182 1.241 . S
C1169 O1183 1.273 . S
C1170 O1184 1.251 . S
C1170 O1185 1.268 . S
C1171 Nd1161 2.836 . S
C1171 C1172 1.498 . S
C1171 O1186 1.258 . S
C1171 O1187 1.239 . S
C1172 C1171 1.498 . S
C1172 C1173 1.366 . S
C1172 C1177 1.407 . S
C1173 C1172 1.366 . S
C1173 C1174 1.396 . S
C1173 H1196 0.930 . S
C1174 C1173 1.396 . S
C1174 C1175 1.399 . S
C1174 H1197 0.926 1_556 S
C1175 C1174 1.399 . S
C1175 C1176 1.352 . S
C1176 C1175 1.352 . S
C1176 C1177 1.384 . S
C1176 H1198 0.930 . S
C1177 C1172 1.407 . S
C1177 C1176 1.384 . S
C1177 H1199 0.929 . S
C1178 O1188 1.241 . S
C1178 O1189 1.273 . S
C1179 O1190 1.251 . S
C1179 O1191 1.268 . S
O1180 Nd1160 2.500 . S
O1180 C1162 1.258 . S
O1181 Nd1160 2.492 . S
O1181 C1162 1.239 . S
O1182 Nd1160 2.487 . S
O1182 C1169 1.241 . S
O1183 Nd1160 2.682 . S
O1183 Nd1161 2.414 . S
O1183 C1169 1.273 . S
O1184 Nd1160 2.410 . S
O1184 C1170 1.251 . S
O1185 Nd1161 2.424 . S
O1185 C1170 1.268 . S
O1186 Nd1161 2.500 . S
O1186 C1171 1.258 . S
O1187 Nd1161 2.492 . S
O1187 C1171 1.239 . S
O1188 Nd1161 2.487 . S
O1188 C1178 1.241 . S
O1189 Nd1160 2.414 . S
O1189 Nd1161 2.682 . S
O1189 C1178 1.273 . S
O1190 Nd1161 2.410 . S
O1190 C1179 1.251 . S
O1191 Nd1160 2.424 . S
O1191 C1179 1.268 . S
H1192 C1164 0.930 . S
H1193 C1165 0.929 . S
H1194 C1167 0.930 . S
H1195 C1168 0.929 . S
H1196 C1173 0.930 . S
H1197 C1174 0.926 1_554 S
H1198 C1176 0.930 . S
H1199 C1177 0.929 . S
Nd1200 C1202 2.836 1_556 S
Nd1200 O1220 2.500 1_556 S
Nd1200 O1221 2.492 1_556 S
Nd1200 O1222 2.487 . S
Nd1200 O1223 2.682 . S
Nd1200 O1224 2.410 1_556 S
Nd1200 O1229 2.414 . S
Nd1200 O1231 2.424 . S
Nd1201 C1211 2.836 . S
Nd1201 O1223 2.414 . S
Nd1201 O1225 2.424 1_556 S
Nd1201 O1226 2.500 . S
Nd1201 O1227 2.492 . S
Nd1201 O1228 2.487 . S
Nd1201 O1229 2.682 . S
Nd1201 O1230 2.410 . S
C1202 Nd1200 2.836 1_554 S
C1202 C1203 1.498 . S
C1202 O1220 1.258 . S
C1202 O1221 1.239 . S
C1203 C1202 1.498 . S
C1203 C1204 1.366 . S
C1203 C1208 1.407 . S
C1204 C1203 1.366 . S
C1204 C1205 1.392 . S
C1204 H1232 0.930 . S
C1205 C1204 1.392 . S
C1205 C1206 1.398 . S
C1205 H1233 0.929 . S
C1206 C1205 1.398 . S
C1206 C1207 1.352 . S
C1207 C1206 1.352 . S
C1207 C1208 1.384 . S
C1207 H1234 0.930 . S
C1208 C1203 1.407 . S
C1208 C1207 1.384 . S
C1208 H1235 0.929 . S
C1209 O1222 1.241 . S
C1209 O1223 1.273 . S
C1210 O1224 1.251 . S
C1210 O1225 1.268 . S
C1211 Nd1201 2.836 . S
C1211 C1212 1.498 . S
C1211 O1226 1.258 . S
C1211 O1227 1.239 . S
C1212 C1211 1.498 . S
C1212 C1213 1.366 . S
C1212 C1217 1.407 . S
C1213 C1212 1.366 . S
C1213 C1214 1.392 . S
C1213 H1236 0.930 . S
C1214 C1213 1.392 . S
C1214 C1215 1.398 . S
C1214 H1237 0.929 . S
C1215 C1214 1.398 . S
C1215 C1216 1.352 . S
C1216 C1215 1.352 . S
C1216 C1217 1.384 . S
C1216 H1238 0.930 . S
C1217 C1212 1.407 . S
C1217 C1216 1.384 . S
C1217 H1239 0.929 . S
C1218 O1228 1.241 1_554 S
C1218 O1229 1.273 1_554 S
C1219 O1230 1.251 . S
C1219 O1231 1.268 . S
O1220 Nd1200 2.500 1_554 S
O1220 C1202 1.258 . S
O1221 Nd1200 2.492 1_554 S
O1221 C1202 1.239 . S
O1222 Nd1200 2.487 . S
O1222 C1209 1.241 . S
O1223 Nd1200 2.682 . S
O1223 Nd1201 2.414 . S
O1223 C1209 1.273 . S
O1224 Nd1200 2.410 1_554 S
O1224 C1210 1.251 . S
O1225 Nd1201 2.424 1_554 S
O1225 C1210 1.268 . S
O1226 Nd1201 2.500 . S
O1226 C1211 1.258 . S
O1227 Nd1201 2.492 . S
O1227 C1211 1.239 . S
O1228 Nd1201 2.487 . S
O1228 C1218 1.241 1_556 S
O1229 Nd1200 2.414 . S
O1229 Nd1201 2.682 . S
O1229 C1218 1.273 1_556 S
O1230 Nd1201 2.410 . S
O1230 C1219 1.251 . S
O1231 Nd1200 2.424 . S
O1231 C1219 1.268 . S
H1232 C1204 0.930 . S
H1233 C1205 0.929 . S
H1234 C1207 0.930 . S
H1235 C1208 0.929 . S
H1236 C1213 0.930 . S
H1237 C1214 0.929 . S
H1238 C1216 0.930 . S
H1239 C1217 0.929 . S
Nd1240 C1242 2.836 1_556 S
Nd1240 O1260 2.500 1_556 S
Nd1240 O1261 2.492 1_556 S
Nd1240 O1262 2.487 . S
Nd1240 O1263 2.682 . S
Nd1240 O1264 2.410 1_556 S
Nd1240 O1269 2.414 . S
Nd1240 O1271 2.424 . S
Nd1241 C1251 2.836 . S
Nd1241 O1263 2.414 . S
Nd1241 O1265 2.424 1_556 S
Nd1241 O1266 2.500 . S
Nd1241 O1267 2.492 . S
Nd1241 O1268 2.487 . S
Nd1241 O1269 2.682 . S
Nd1241 O1270 2.410 . S
C1242 Nd1240 2.836 1_554 S
C1242 C1243 1.498 . S
C1242 O1260 1.258 . S
C1242 O1261 1.239 . S
C1243 C1242 1.498 . S
C1243 C1244 1.366 . S
C1243 C1248 1.407 . S
C1244 C1243 1.366 . S
C1244 C1245 1.392 . S
C1244 H1272 0.930 . S
C1245 C1244 1.392 . S
C1245 C1246 1.398 . S
C1245 H1273 0.929 . S
C1246 C1245 1.398 . S
C1246 C1247 1.352 . S
C1247 C1246 1.352 . S
C1247 C1248 1.384 . S
C1247 H1274 0.930 . S
C1248 C1243 1.407 . S
C1248 C1247 1.384 . S
C1248 H1275 0.929 . S
C1249 O1262 1.241 . S
C1249 O1263 1.273 . S
C1250 O1264 1.251 . S
C1250 O1265 1.268 . S
C1251 Nd1241 2.836 . S
C1251 C1252 1.498 . S
C1251 O1266 1.258 . S
C1251 O1267 1.239 . S
C1252 C1251 1.498 . S
C1252 C1253 1.366 . S
C1252 C1257 1.407 . S
C1253 C1252 1.366 . S
C1253 C1254 1.392 . S
C1253 H1276 0.930 . S
C1254 C1253 1.392 . S
C1254 C1255 1.398 . S
C1254 H1277 0.929 . S
C1255 C1254 1.398 . S
C1255 C1256 1.352 . S
C1256 C1255 1.352 . S
C1256 C1257 1.384 . S
C1256 H1278 0.930 . S
C1257 C1252 1.407 . S
C1257 C1256 1.384 . S
C1257 H1279 0.929 . S
C1258 O1268 1.241 1_554 S
C1258 O1269 1.273 1_554 S
C1259 O1270 1.251 . S
C1259 O1271 1.268 . S
O1260 Nd1240 2.500 1_554 S
O1260 C1242 1.258 . S
O1261 Nd1240 2.492 1_554 S
O1261 C1242 1.239 . S
O1262 Nd1240 2.487 . S
O1262 C1249 1.241 . S
O1263 Nd1240 2.682 . S
O1263 Nd1241 2.414 . S
O1263 C1249 1.273 . S
O1264 Nd1240 2.410 1_554 S
O1264 C1250 1.251 . S
O1265 Nd1241 2.424 1_554 S
O1265 C1250 1.268 . S
O1266 Nd1241 2.500 . S
O1266 C1251 1.258 . S
O1267 Nd1241 2.492 . S
O1267 C1251 1.239 . S
O1268 Nd1241 2.487 . S
O1268 C1258 1.241 1_556 S
O1269 Nd1240 2.414 . S
O1269 Nd1241 2.682 . S
O1269 C1258 1.273 1_556 S
O1270 Nd1241 2.410 . S
O1270 C1259 1.251 . S
O1271 Nd1240 2.424 . S
O1271 C1259 1.268 . S
H1272 C1244 0.930 . S
H1273 C1245 0.929 . S
H1274 C1247 0.930 . S
H1275 C1248 0.929 . S
H1276 C1253 0.930 . S
H1277 C1254 0.929 . S
H1278 C1256 0.930 . S
H1279 C1257 0.929 . S
H1280 C1288 0.950 . S
H1281 C1293 0.950 . S
H1282 C1290 0.950 . S
H1283 C1292 0.950 . S
H1284 C1294 0.950 . S
H1285 C1296 0.950 . S
H1286 C1298 0.950 . S
H1287 C1299 0.950 . S
C1288 H1280 0.950 . S
C1288 C1289 1.386 . S
C1288 C1290 1.391 . S
C1289 C1288 1.386 . S
C1289 C1293 1.393 1_554 S
C1290 H1282 0.950 . S
C1290 C1288 1.391 . S
C1290 C1291 1.400 . S
C1291 C1290 1.400 . S
C1291 C1292 1.398 1_554 S
C1291 C1297 1.491 1_554 S
C1292 H1283 0.950 . S
C1292 C1291 1.398 1_556 S
C1292 C1293 1.391 . S
C1293 H1281 0.950 . S
C1293 C1289 1.393 1_556 S
C1293 C1292 1.391 . S
C1294 H1284 0.950 . S
C1294 C1295 1.386 . S
C1294 C1296 1.391 . S
C1295 C1294 1.386 . S
C1295 C1299 1.393 1_556 S
C1296 H1285 0.950 . S
C1296 C1294 1.391 . S
C1296 C1297 1.400 . S
C1297 C1291 1.491 1_556 S
C1297 C1296 1.400 . S
C1297 C1298 1.398 1_556 S
C1298 H1286 0.950 . S
C1298 C1297 1.398 1_554 S
C1298 C1299 1.391 . S
C1299 H1287 0.950 . S
C1299 C1295 1.393 1_554 S
C1299 C1298 1.391 . S
H1300 C1308 0.950 . S
H1301 C1313 0.950 . S
H1302 C1310 0.950 . S
H1303 C1312 0.950 . S
H1304 C1314 0.950 . S
H1305 C1316 0.950 . S
H1306 C1318 0.950 . S
H1307 C1319 0.950 . S
C1308 H1300 0.950 . S
C1308 C1309 1.390 1_556 S
C1308 C1310 1.391 . S
C1309 C1308 1.390 1_554 S
C1309 C1313 1.388 1_545 S
C1310 H1302 0.950 . S
C1310 C1308 1.391 . S
C1310 C1311 1.400 1_546 S
C1311 C1310 1.400 1_564 S
C1311 C1312 1.399 . S
C1311 C1317 1.491 1_464 S
C1312 H1303 0.950 . S
C1312 C1311 1.399 . S
C1312 C1313 1.391 . S
C1313 H1301 0.950 . S
C1313 C1309 1.388 1_565 S
C1313 C1312 1.391 . S
C1314 H1304 0.950 . S
C1314 C1315 1.390 1_554 S
C1314 C1316 1.391 . S
C1315 C1314 1.390 1_556 S
C1315 C1319 1.388 1_565 S
C1316 H1305 0.950 . S
C1316 C1314 1.391 . S
C1316 C1317 1.400 1_564 S
C1317 C1311 1.491 1_646 S
C1317 C1316 1.400 1_546 S
C1317 C1318 1.399 . S
C1318 H1306 0.950 . S
C1318 C1317 1.399 . S
C1318 C1319 1.391 . S
C1319 H1307 0.950 . S
C1319 C1315 1.388 1_545 S
C1319 C1318 1.391 . S
H1320 C1328 0.950 . S
H1321 C1333 0.950 . S
H1322 C1330 0.950 . S
H1323 C1332 0.950 . S
H1324 C1334 0.950 . S
H1325 C1336 0.950 . S
H1326 C1338 0.950 . S
H1327 C1339 0.950 . S
C1328 H1320 0.950 . S
C1328 C1329 1.386 . S
C1328 C1330 1.391 . S
C1329 C1328 1.386 . S
C1329 C1333 1.393 1_545 S
C1330 H1322 0.950 . S
C1330 C1328 1.391 . S
C1330 C1331 1.416 . S
C1331 C1330 1.416 . S
C1331 C1332 1.385 1_545 S
C1331 C1337 1.489 1_545 S
C1332 H1323 0.950 . S
C1332 C1331 1.385 1_565 S
C1332 C1333 1.391 . S
C1333 H1321 0.950 . S
C1333 C1329 1.393 1_565 S
C1333 C1332 1.391 . S
C1334 H1324 0.950 . S
C1334 C1335 1.386 . S
C1334 C1336 1.391 . S
C1335 C1334 1.386 . S
C1335 C1339 1.393 1_565 S
C1336 H1325 0.950 . S
C1336 C1334 1.391 . S
C1336 C1337 1.417 . S
C1337 C1331 1.489 1_565 S
C1337 C1336 1.417 . S
C1337 C1338 1.384 1_565 S
C1338 H1326 0.950 . S
C1338 C1337 1.384 1_545 S
C1338 C1339 1.391 . S
C1339 H1327 0.950 . S
C1339 C1335 1.393 1_545 S
C1339 C1338 1.391 . S
H1340 C1348 0.950 . S
H1341 C1353 0.950 . S
H1342 C1350 0.950 . S
H1343 C1352 0.950 . S
H1344 C1354 0.950 . S
H1345 C1356 0.950 . S
H1346 C1358 0.950 . S
H1347 C1359 0.950 . S
C1348 H1340 0.950 . S
C1348 C1349 1.386 . S
C1348 C1350 1.391 . S
C1349 C1348 1.386 . S
C1349 C1353 1.393 . S
C1350 H1342 0.950 . S
C1350 C1348 1.391 . S
C1350 C1351 1.400 . S
C1351 C1350 1.400 . S
C1351 C1352 1.398 . S
C1351 C1357 1.491 1_455 S
C1352 H1343 0.950 . S
C1352 C1351 1.398 . S
C1352 C1353 1.391 . S
C1353 H1341 0.950 . S
C1353 C1349 1.393 . S
C1353 C1352 1.391 . S
C1354 H1344 0.950 . S
C1354 C1355 1.386 . S
C1354 C1356 1.391 . S
C1355 C1354 1.386 . S
C1355 C1359 1.393 . S
C1356 H1345 0.950 . S
C1356 C1354 1.391 . S
C1356 C1357 1.400 . S
C1357 C1351 1.491 1_655 S
C1357 C1356 1.400 . S
C1357 C1358 1.398 . S
C1358 H1346 0.950 . S
C1358 C1357 1.398 . S
C1358 C1359 1.391 . S
C1359 H1347 0.950 . S
C1359 C1355 1.393 . S
C1359 C1358 1.391 . S
H1360 C1368 0.950 . S
H1361 C1373 0.950 . S
H1362 C1370 0.950 . S
H1363 C1372 0.950 . S
H1364 C1374 0.950 . S
H1365 C1376 0.950 . S
H1366 C1378 0.950 . S
H1367 C1379 0.950 . S
C1368 H1360 0.950 . S
C1368 C1369 1.386 1_556 S
C1368 C1370 1.391 . S
C1369 C1368 1.386 1_554 S
C1369 C1373 1.393 . S
C1370 H1362 0.950 . S
C1370 C1368 1.391 . S
C1370 C1371 1.400 1_556 S
C1371 C1370 1.400 1_554 S
C1371 C1372 1.398 . S
C1371 C1377 1.491 1_554 S
C1372 H1363 0.950 . S
C1372 C1371 1.398 . S
C1372 C1373 1.391 . S
C1373 H1361 0.950 . S
C1373 C1369 1.393 . S
C1373 C1372 1.391 . S
C1374 H1364 0.950 . S
C1374 C1375 1.386 1_554 S
C1374 C1376 1.391 . S
C1375 C1374 1.386 1_556 S
C1375 C1379 1.393 . S
C1376 H1365 0.950 . S
C1376 C1374 1.391 . S
C1376 C1377 1.400 1_554 S
C1377 C1371 1.491 1_556 S
C1377 C1376 1.400 1_556 S
C1377 C1378 1.398 . S
C1378 H1366 0.950 . S
C1378 C1377 1.398 . S
C1378 C1379 1.391 . S
C1379 H1367 0.950 . S
C1379 C1375 1.393 . S
C1379 C1378 1.391 . S
H1380 C1388 0.950 . S
H1381 C1393 0.950 . S
H1382 C1390 0.950 . S
H1383 C1392 0.950 . S
H1384 C1394 0.950 . S
H1385 C1396 0.950 . S
H1386 C1398 0.950 . S
H1387 C1399 0.950 . S
C1388 H1380 0.950 . S
C1388 C1389 1.358 1_545 S
C1388 C1390 1.391 . S
C1389 C1388 1.358 1_565 S
C1389 C1393 1.420 . S
C1390 H1382 0.950 . S
C1390 C1388 1.391 . S
C1390 C1391 1.403 1_545 S
C1391 C1390 1.403 1_565 S
C1391 C1392 1.395 . S
C1391 C1397 1.491 1_565 S
C1392 H1383 0.950 . S
C1392 C1391 1.395 . S
C1392 C1393 1.391 . S
C1393 H1381 0.950 . S
C1393 C1389 1.420 . S
C1393 C1392 1.391 . S
C1394 H1384 0.950 . S
C1394 C1395 1.357 1_565 S
C1394 C1396 1.391 . S
C1395 C1394 1.357 1_545 S
C1395 C1399 1.421 . S
C1396 H1385 0.950 . S
C1396 C1394 1.391 . S
C1396 C1397 1.403 1_565 S
C1397 C1391 1.491 1_545 S
C1397 C1396 1.403 1_545 S
C1397 C1398 1.396 . S
C1398 H1386 0.950 . S
C1398 C1397 1.396 . S
C1398 C1399 1.391 . S
C1399 H1387 0.950 . S
C1399 C1395 1.421 . S
C1399 C1398 1.391 . S
H1400 C1408 0.950 . S
H1401 C1413 0.950 . S
H1402 C1410 0.950 . S
H1403 C1412 0.950 . S
H1404 C1414 0.950 . S
H1405 C1416 0.950 . S
H1406 C1418 0.950 . S
H1407 C1419 0.950 . S
C1408 H1400 0.950 . S
C1408 C1409 1.386 . S
C1408 C1410 1.391 . S
C1409 C1408 1.386 . S
C1409 C1413 1.393 . S
C1410 H1402 0.950 . S
C1410 C1408 1.391 . S
C1410 C1411 1.400 . S
C1411 C1410 1.400 . S
C1411 C1412 1.398 . S
C1411 C1417 1.491 1_655 S
C1412 H1403 0.950 . S
C1412 C1411 1.398 . S
C1412 C1413 1.391 . S
C1413 H1401 0.950 . S
C1413 C1409 1.393 . S
C1413 C1412 1.391 . S
C1414 H1404 0.950 . S
C1414 C1415 1.386 . S
C1414 C1416 1.391 . S
C1415 C1414 1.386 . S
C1415 C1419 1.393 . S
C1416 H1405 0.950 . S
C1416 C1414 1.391 . S
C1416 C1417 1.400 . S
C1417 C1411 1.491 1_455 S
C1417 C1416 1.400 . S
C1417 C1418 1.398 . S
C1418 H1406 0.950 . S
C1418 C1417 1.398 . S
C1418 C1419 1.391 . S
C1419 H1407 0.950 . S
C1419 C1415 1.393 . S
C1419 C1418 1.391 . S
H1420 C1428 0.950 . S
H1421 C1433 0.950 . S
H1422 C1430 0.950 . S
H1423 C1432 0.950 . S
H1424 C1434 0.950 . S
H1425 C1436 0.950 . S
H1426 C1438 0.950 . S
H1427 C1439 0.950 . S
C1428 H1420 0.950 . S
C1428 C1429 1.386 . S
C1428 C1430 1.391 . S
C1429 C1428 1.386 . S
C1429 C1433 1.393 . S
C1430 H1422 0.950 . S
C1430 C1428 1.391 . S
C1430 C1431 1.400 . S
C1431 C1430 1.400 . S
C1431 C1432 1.398 . S
C1431 C1437 1.491 . S
C1432 H1423 0.950 . S
C1432 C1431 1.398 . S
C1432 C1433 1.391 . S
C1433 H1421 0.950 . S
C1433 C1429 1.393 . S
C1433 C1432 1.391 . S
C1434 H1424 0.950 . S
C1434 C1435 1.386 . S
C1434 C1436 1.391 . S
C1435 C1434 1.386 . S
C1435 C1439 1.393 . S
C1436 H1425 0.950 . S
C1436 C1434 1.391 . S
C1436 C1437 1.400 . S
C1437 C1431 1.491 . S
C1437 C1436 1.400 . S
C1437 C1438 1.398 . S
C1438 H1426 0.950 . S
C1438 C1437 1.398 . S
C1438 C1439 1.391 . S
C1439 H1427 0.950 . S
C1439 C1435 1.393 . S
C1439 C1438 1.391 . S
H1440 C1448 0.950 . S
H1441 C1453 0.950 . S
H1442 C1450 0.950 . S
H1443 C1452 0.950 . S
H1444 C1454 0.950 . S
H1445 C1456 0.950 . S
H1446 C1458 0.950 . S
H1447 C1459 0.950 . S
C1448 H1440 0.950 . S
C1448 C1449 1.386 . S
C1448 C1450 1.391 . S
C1449 C1448 1.386 . S
C1449 C1453 1.393 . S
C1450 H1442 0.950 . S
C1450 C1448 1.391 . S
C1450 C1451 1.400 . S
C1451 C1450 1.400 . S
C1451 C1452 1.398 . S
C1451 C1457 1.491 1_655 S
C1452 H1443 0.950 . S
C1452 C1451 1.398 . S
C1452 C1453 1.391 . S
C1453 H1441 0.950 . S
C1453 C1449 1.393 . S
C1453 C1452 1.391 . S
C1454 H1444 0.950 . S
C1454 C1455 1.386 . S
C1454 C1456 1.391 . S
C1455 C1454 1.386 . S
C1455 C1459 1.393 . S
C1456 H1445 0.950 . S
C1456 C1454 1.391 . S
C1456 C1457 1.400 . S
C1457 C1451 1.491 1_455 S
C1457 C1456 1.400 . S
C1457 C1458 1.398 . S
C1458 H1446 0.950 . S
C1458 C1457 1.398 . S
C1458 C1459 1.391 . S
C1459 H1447 0.950 . S
C1459 C1455 1.393 . S
C1459 C1458 1.391 . S
H1460 C1468 0.950 . S
H1461 C1473 0.950 . S
H1462 C1470 0.950 . S
H1463 C1472 0.950 . S
H1464 C1474 0.950 . S
H1465 C1476 0.950 . S
H1466 C1478 0.950 . S
H1467 C1479 0.950 . S
C1468 H1460 0.950 . S
C1468 C1469 1.386 . S
C1468 C1470 1.391 . S
C1469 C1468 1.386 . S
C1469 C1473 1.393 . S
C1470 H1462 0.950 . S
C1470 C1468 1.391 . S
C1470 C1471 1.400 . S
C1471 C1470 1.400 . S
C1471 C1472 1.398 . S
C1471 C1477 1.491 . S
C1472 H1463 0.950 . S
C1472 C1471 1.398 . S
C1472 C1473 1.391 . S
C1473 H1461 0.950 . S
C1473 C1469 1.393 . S
C1473 C1472 1.391 . S
C1474 H1464 0.950 . S
C1474 C1475 1.386 . S
C1474 C1476 1.391 . S
C1475 C1474 1.386 . S
C1475 C1479 1.393 . S
C1476 H1465 0.950 . S
C1476 C1474 1.391 . S
C1476 C1477 1.400 . S
C1477 C1471 1.491 . S
C1477 C1476 1.400 . S
C1477 C1478 1.398 . S
C1478 H1466 0.950 . S
C1478 C1477 1.398 . S
C1478 C1479 1.391 . S
C1479 H1467 0.950 . S
C1479 C1475 1.393 . S
C1479 C1478 1.391 . S
H1480 C1488 0.950 . S
H1481 C1493 0.950 . S
H1482 C1490 0.950 . S
H1483 C1492 0.950 . S
H1484 C1494 0.950 . S
H1485 C1496 0.950 . S
H1486 C1498 0.950 . S
H1487 C1499 0.950 . S
C1488 H1480 0.950 . S
C1488 C1489 1.386 . S
C1488 C1490 1.391 . S
C1489 C1488 1.386 . S
C1489 C1493 1.393 . S
C1490 H1482 0.950 . S
C1490 C1488 1.391 . S
C1490 C1491 1.400 . S
C1491 C1490 1.400 . S
C1491 C1492 1.398 . S
C1491 C1497 1.491 . S
C1492 H1483 0.950 . S
C1492 C1491 1.398 . S
C1492 C1493 1.391 . S
C1493 H1481 0.950 . S
C1493 C1489 1.393 . S
C1493 C1492 1.391 . S
C1494 H1484 0.950 . S
C1494 C1495 1.386 . S
C1494 C1496 1.391 . S
C1495 C1494 1.386 . S
C1495 C1499 1.393 . S
C1496 H1485 0.950 . S
C1496 C1494 1.391 . S
C1496 C1497 1.400 . S
C1497 C1491 1.491 . S
C1497 C1496 1.400 . S
C1497 C1498 1.398 . S
C1498 H1486 0.950 . S
C1498 C1497 1.398 . S
C1498 C1499 1.391 . S
C1499 H1487 0.950 . S
C1499 C1495 1.393 . S
C1499 C1498 1.391 . S
H1500 C1508 0.950 . S
H1501 C1513 0.950 . S
H1502 C1510 0.950 . S
H1503 C1512 0.950 . S
H1504 C1514 0.950 . S
H1505 C1516 0.950 . S
H1506 C1518 0.950 . S
H1507 C1519 0.950 . S
C1508 H1500 0.950 . S
C1508 C1509 1.386 . S
C1508 C1510 1.391 . S
C1509 C1508 1.386 . S
C1509 C1513 1.393 . S
C1510 H1502 0.950 . S
C1510 C1508 1.391 . S
C1510 C1511 1.400 . S
C1511 C1510 1.400 . S
C1511 C1512 1.398 . S
C1511 C1517 1.491 . S
C1512 H1503 0.950 . S
C1512 C1511 1.398 . S
C1512 C1513 1.391 . S
C1513 H1501 0.950 . S
C1513 C1509 1.393 . S
C1513 C1512 1.391 . S
C1514 H1504 0.950 . S
C1514 C1515 1.386 . S
C1514 C1516 1.391 . S
C1515 C1514 1.386 . S
C1515 C1519 1.393 . S
C1516 H1505 0.950 . S
C1516 C1514 1.391 . S
C1516 C1517 1.400 . S
C1517 C1511 1.491 . S
C1517 C1516 1.400 . S
C1517 C1518 1.398 . S
C1518 H1506 0.950 . S
C1518 C1517 1.398 . S
C1518 C1519 1.391 . S
C1519 H1507 0.950 . S
C1519 C1515 1.393 . S
C1519 C1518 1.391 . S
H1520 C1528 0.950 . S
H1521 C1533 0.950 . S
H1522 C1530 0.950 . S
H1523 C1532 0.950 . S
H1524 C1534 0.950 . S
H1525 C1536 0.950 . S
H1526 C1538 0.950 . S
H1527 C1539 0.950 . S
C1528 H1520 0.950 . S
C1528 C1529 1.386 . S
C1528 C1530 1.391 . S
C1529 C1528 1.386 . S
C1529 C1533 1.393 1_565 S
C1530 H1522 0.950 . S
C1530 C1528 1.391 . S
C1530 C1531 1.416 . S
C1531 C1530 1.416 . S
C1531 C1532 1.385 1_565 S
C1531 C1537 1.489 1_565 S
C1532 H1523 0.950 . S
C1532 C1531 1.385 1_545 S
C1532 C1533 1.391 . S
C1533 H1521 0.950 . S
C1533 C1529 1.393 1_545 S
C1533 C1532 1.391 . S
C1534 H1524 0.950 . S
C1534 C1535 1.386 . S
C1534 C1536 1.391 . S
C1535 C1534 1.386 . S
C1535 C1539 1.393 1_545 S
C1536 H1525 0.950 . S
C1536 C1534 1.391 . S
C1536 C1537 1.416 . S
C1537 C1531 1.489 1_545 S
C1537 C1536 1.416 . S
C1537 C1538 1.385 1_545 S
C1538 H1526 0.950 . S
C1538 C1537 1.385 1_565 S
C1538 C1539 1.391 . S
C1539 H1527 0.950 . S
C1539 C1535 1.393 1_565 S
C1539 C1538 1.391 . S
H1540 C1548 0.950 . S
H1541 C1553 0.950 . S
H1542 C1550 0.950 . S
H1543 C1552 0.950 . S
H1544 C1554 0.950 . S
H1545 C1556 0.950 . S
H1546 C1558 0.950 . S
H1547 C1559 0.950 . S
C1548 H1540 0.950 . S
C1548 C1549 1.386 . S
C1548 C1550 1.391 . S
C1549 C1548 1.386 . S
C1549 C1553 1.393 . S
C1550 H1542 0.950 . S
C1550 C1548 1.391 . S
C1550 C1551 1.400 . S
C1551 C1550 1.400 . S
C1551 C1552 1.398 . S
C1551 C1557 1.491 . S
C1552 H1543 0.950 . S
C1552 C1551 1.398 . S
C1552 C1553 1.391 . S
C1553 H1541 0.950 . S
C1553 C1549 1.393 . S
C1553 C1552 1.391 . S
C1554 H1544 0.950 . S
C1554 C1555 1.386 . S
C1554 C1556 1.391 . S
C1555 C1554 1.386 . S
C1555 C1559 1.393 . S
C1556 H1545 0.950 . S
C1556 C1554 1.391 . S
C1556 C1557 1.400 . S
C1557 C1551 1.491 . S
C1557 C1556 1.400 . S
C1557 C1558 1.398 . S
C1558 H1546 0.950 . S
C1558 C1557 1.398 . S
C1558 C1559 1.391 . S
C1559 H1547 0.950 . S
C1559 C1555 1.393 . S
C1559 C1558 1.391 . S
H1560 C1568 0.950 . S
H1561 C1573 0.950 . S
H1562 C1570 0.950 . S
H1563 C1572 0.950 . S
H1564 C1574 0.950 . S
H1565 C1576 0.950 . S
H1566 C1578 0.950 . S
H1567 C1579 0.950 . S
C1568 H1560 0.950 . S
C1568 C1569 1.386 . S
C1568 C1570 1.391 . S
C1569 C1568 1.386 . S
C1569 C1573 1.393 . S
C1570 H1562 0.950 . S
C1570 C1568 1.391 . S
C1570 C1571 1.400 . S
C1571 C1570 1.400 . S
C1571 C1572 1.398 . S
C1571 C1577 1.491 . S
C1572 H1563 0.950 . S
C1572 C1571 1.398 . S
C1572 C1573 1.391 . S
C1573 H1561 0.950 . S
C1573 C1569 1.393 . S
C1573 C1572 1.391 . S
C1574 H1564 0.950 . S
C1574 C1575 1.386 . S
C1574 C1576 1.391 . S
C1575 C1574 1.386 . S
C1575 C1579 1.393 . S
C1576 H1565 0.950 . S
C1576 C1574 1.391 . S
C1576 C1577 1.400 . S
C1577 C1571 1.491 . S
C1577 C1576 1.400 . S
C1577 C1578 1.398 . S
C1578 H1566 0.950 . S
C1578 C1577 1.398 . S
C1578 C1579 1.391 . S
C1579 H1567 0.950 . S
C1579 C1575 1.393 . S
C1579 C1578 1.391 . S
H1580 C1588 0.950 . S
H1581 C1593 0.950 . S
H1582 C1590 0.950 . S
H1583 C1592 0.950 . S
H1584 C1594 0.950 . S
H1585 C1596 0.950 . S
H1586 C1598 0.950 . S
H1587 C1599 0.950 . S
C1588 H1580 0.950 . S
C1588 C1589 1.386 1_556 S
C1588 C1590 1.391 . S
C1589 C1588 1.386 1_554 S
C1589 C1593 1.393 . S
C1590 H1582 0.950 . S
C1590 C1588 1.391 . S
C1590 C1591 1.400 1_556 S
C1591 C1590 1.400 1_554 S
C1591 C1592 1.398 . S
C1591 C1597 1.491 1_554 S
C1592 H1583 0.950 . S
C1592 C1591 1.398 . S
C1592 C1593 1.391 . S
C1593 H1581 0.950 . S
C1593 C1589 1.393 . S
C1593 C1592 1.391 . S
C1594 H1584 0.950 . S
C1594 C1595 1.386 1_554 S
C1594 C1596 1.391 . S
C1595 C1594 1.386 1_556 S
C1595 C1599 1.393 . S
C1596 H1585 0.950 . S
C1596 C1594 1.391 . S
C1596 C1597 1.400 1_554 S
C1597 C1591 1.491 1_556 S
C1597 C1596 1.400 1_556 S
C1597 C1598 1.398 . S
C1598 H1586 0.950 . S
C1598 C1597 1.398 . S
C1598 C1599 1.391 . S
C1599 H1587 0.950 . S
C1599 C1595 1.393 . S
C1599 C1598 1.391 . S
H1600 C1608 0.950 . S
H1601 C1613 0.950 . S
H1602 C1610 0.950 . S
H1603 C1612 0.950 . S
H1604 C1614 0.950 . S
H1605 C1616 0.950 . S
H1606 C1618 0.950 . S
H1607 C1619 0.950 . S
C1608 H1600 0.950 . S
C1608 C1609 1.386 . S
C1608 C1610 1.391 . S
C1609 C1608 1.386 . S
C1609 C1613 1.393 . S
C1610 H1602 0.950 . S
C1610 C1608 1.391 . S
C1610 C1611 1.400 . S
C1611 C1610 1.400 . S
C1611 C1612 1.398 . S
C1611 C1617 1.491 . S
C1612 H1603 0.950 . S
C1612 C1611 1.398 . S
C1612 C1613 1.391 . S
C1613 H1601 0.950 . S
C1613 C1609 1.393 . S
C1613 C1612 1.391 . S
C1614 H1604 0.950 . S
C1614 C1615 1.386 . S
C1614 C1616 1.391 . S
C1615 C1614 1.386 . S
C1615 C1619 1.393 . S
C1616 H1605 0.950 . S
C1616 C1614 1.391 . S
C1616 C1617 1.400 . S
C1617 C1611 1.491 . S
C1617 C1616 1.400 . S
C1617 C1618 1.398 . S
C1618 H1606 0.950 . S
C1618 C1617 1.398 . S
C1618 C1619 1.391 . S
C1619 H1607 0.950 . S
C1619 C1615 1.393 . S
C1619 C1618 1.391 . S
H1620 C1628 0.950 . S
H1621 C1633 0.950 . S
H1622 C1630 0.950 . S
H1623 C1632 0.950 . S
H1624 C1634 0.950 . S
H1625 C1636 0.950 . S
H1626 C1638 0.950 . S
H1627 C1639 0.950 . S
C1628 H1620 0.950 . S
C1628 C1629 1.386 1_545 S
C1628 C1630 1.391 . S
C1629 C1628 1.386 1_565 S
C1629 C1633 1.393 . S
C1630 H1622 0.950 . S
C1630 C1628 1.391 . S
C1630 C1631 1.400 1_545 S
C1631 C1630 1.400 1_565 S
C1631 C1632 1.398 . S
C1631 C1637 1.491 . S
C1632 H1623 0.950 . S
C1632 C1631 1.398 . S
C1632 C1633 1.391 . S
C1633 H1621 0.950 . S
C1633 C1629 1.393 . S
C1633 C1632 1.391 . S
C1634 H1624 0.950 . S
C1634 C1635 1.386 . S
C1634 C1636 1.391 . S
C1635 C1634 1.386 . S
C1635 C1639 1.393 1_565 S
C1636 H1625 0.950 . S
C1636 C1634 1.391 . S
C1636 C1637 1.400 . S
C1637 C1631 1.491 . S
C1637 C1636 1.400 . S
C1637 C1638 1.398 1_565 S
C1638 H1626 0.950 . S
C1638 C1637 1.398 1_545 S
C1638 C1639 1.391 . S
C1639 H1627 0.950 . S
C1639 C1635 1.393 1_545 S
C1639 C1638 1.391 . S
H1640 C1648 0.950 1_554 S
H1641 C1653 0.950 . S
H1642 C1650 0.950 . S
H1643 C1652 0.950 . S
H1644 C1654 0.950 . S
H1645 C1656 0.950 . S
H1646 C1658 0.950 . S
H1647 C1659 0.950 . S
C1648 H1640 0.950 1_556 S
C1648 C1649 1.386 1_545 S
C1648 C1650 1.391 . S
C1649 C1648 1.386 1_565 S
C1649 C1653 1.393 . S
C1650 H1642 0.950 . S
C1650 C1648 1.391 . S
C1650 C1651 1.400 1_545 S
C1651 C1650 1.400 1_565 S
C1651 C1652 1.398 . S
C1651 C1657 1.491 . S
C1652 H1643 0.950 . S
C1652 C1651 1.398 . S
C1652 C1653 1.391 . S
C1653 H1641 0.950 . S
C1653 C1649 1.393 . S
C1653 C1652 1.391 . S
C1654 H1644 0.950 . S
C1654 C1655 1.386 . S
C1654 C1656 1.391 . S
C1655 C1654 1.386 . S
C1655 C1659 1.393 1_565 S
C1656 H1645 0.950 . S
C1656 C1654 1.391 . S
C1656 C1657 1.400 . S
C1657 C1651 1.491 . S
C1657 C1656 1.400 . S
C1657 C1658 1.398 1_565 S
C1658 H1646 0.950 . S
C1658 C1657 1.398 1_545 S
C1658 C1659 1.391 . S
C1659 H1647 0.950 . S
C1659 C1655 1.393 1_545 S
C1659 C1658 1.391 . S
H1660 C1668 0.950 . S
H1661 C1673 0.950 1_554 S
H1662 C1670 0.950 . S
H1663 C1672 0.946 1_554 S
H1664 C1674 0.950 . S
H1665 C1676 0.950 . S
H1666 C1678 0.950 . S
H1667 C1679 0.950 . S
C1668 H1660 0.950 . S
C1668 C1669 1.386 . S
C1668 C1670 1.391 . S
C1669 C1668 1.386 . S
C1669 C1673 1.393 . S
C1670 H1662 0.950 . S
C1670 C1668 1.391 . S
C1670 C1671 1.400 . S
C1671 C1670 1.400 . S
C1671 C1672 1.398 . S
C1671 C1677 1.491 . S
C1672 H1663 0.946 1_556 S
C1672 C1671 1.398 . S
C1672 C1673 1.391 . S
C1673 H1661 0.950 1_556 S
C1673 C1669 1.393 . S
C1673 C1672 1.391 . S
C1674 H1664 0.950 . S
C1674 C1675 1.386 . S
C1674 C1676 1.391 . S
C1675 C1674 1.386 . S
C1675 C1679 1.393 . S
C1676 H1665 0.950 . S
C1676 C1674 1.391 . S
C1676 C1677 1.400 . S
C1677 C1671 1.491 . S
C1677 C1676 1.400 . S
C1677 C1678 1.398 . S
C1678 H1666 0.950 . S
C1678 C1677 1.398 . S
C1678 C1679 1.391 . S
C1679 H1667 0.950 . S
C1679 C1675 1.393 . S
C1679 C1678 1.391 . S
H1680 C1688 0.950 . S
H1681 C1693 0.950 . S
H1682 C1690 0.950 . S
H1683 C1692 0.950 . S
H1684 C1694 0.950 . S
H1685 C1696 0.950 . S
H1686 C1698 0.950 . S
H1687 C1699 0.950 . S
C1688 H1680 0.950 . S
C1688 C1689 1.386 . S
C1688 C1690 1.391 . S
C1689 C1688 1.386 . S
C1689 C1693 1.393 . S
C1690 H1682 0.950 . S
C1690 C1688 1.391 . S
C1690 C1691 1.400 . S
C1691 C1690 1.400 . S
C1691 C1692 1.398 . S
C1691 C1697 1.491 . S
C1692 H1683 0.950 . S
C1692 C1691 1.398 . S
C1692 C1693 1.391 . S
C1693 H1681 0.950 . S
C1693 C1689 1.393 . S
C1693 C1692 1.391 . S
C1694 H1684 0.950 . S
C1694 C1695 1.386 . S
C1694 C1696 1.391 . S
C1695 C1694 1.386 . S
C1695 C1699 1.393 . S
C1696 H1685 0.950 . S
C1696 C1694 1.391 . S
C1696 C1697 1.400 . S
C1697 C1691 1.491 . S
C1697 C1696 1.400 . S
C1697 C1698 1.398 . S
C1698 H1686 0.950 . S
C1698 C1697 1.398 . S
C1698 C1699 1.391 . S
C1699 H1687 0.950 . S
C1699 C1695 1.393 . S
C1699 C1698 1.391 . S
H1700 C1708 0.950 . S
H1701 C1713 0.950 . S
H1702 C1710 0.950 . S
H1703 C1712 0.950 . S
H1704 C1714 0.950 . S
H1705 C1716 0.950 . S
H1706 C1718 0.950 . S
H1707 C1719 0.950 . S
C1708 H1700 0.950 . S
C1708 C1709 1.386 . S
C1708 C1710 1.391 . S
C1709 C1708 1.386 . S
C1709 C1713 1.393 1_545 S
C1710 H1702 0.950 . S
C1710 C1708 1.391 . S
C1710 C1711 1.400 . S
C1711 C1710 1.400 . S
C1711 C1712 1.398 1_545 S
C1711 C1717 1.491 . S
C1712 H1703 0.950 . S
C1712 C1711 1.398 1_565 S
C1712 C1713 1.391 . S
C1713 H1701 0.950 . S
C1713 C1709 1.393 1_565 S
C1713 C1712 1.391 . S
C1714 H1704 0.950 . S
C1714 C1715 1.386 1_565 S
C1714 C1716 1.391 . S
C1715 C1714 1.386 1_545 S
C1715 C1719 1.393 . S
C1716 H1705 0.950 . S
C1716 C1714 1.391 . S
C1716 C1717 1.400 1_565 S
C1717 C1711 1.491 . S
C1717 C1716 1.400 1_545 S
C1717 C1718 1.398 . S
C1718 H1706 0.950 . S
C1718 C1717 1.398 . S
C1718 C1719 1.391 . S
C1719 H1707 0.950 . S
C1719 C1715 1.393 . S
C1719 C1718 1.391 . S
H1720 C1728 0.950 . S
H1721 C1733 0.950 . S
H1722 C1730 0.950 . S
H1723 C1732 0.950 . S
H1724 C1734 0.950 . S
H1725 C1736 0.950 . S
H1726 C1738 0.950 . S
H1727 C1739 0.950 . S
C1728 H1720 0.950 . S
C1728 C1729 1.386 1_565 S
C1728 C1730 1.391 . S
C1729 C1728 1.386 1_545 S
C1729 C1733 1.393 . S
C1730 H1722 0.950 . S
C1730 C1728 1.391 . S
C1730 C1731 1.400 1_565 S
C1731 C1730 1.400 1_545 S
C1731 C1732 1.398 . S
C1731 C1737 1.491 . S
C1732 H1723 0.950 . S
C1732 C1731 1.398 . S
C1732 C1733 1.391 . S
C1733 H1721 0.950 . S
C1733 C1729 1.393 . S
C1733 C1732 1.391 . S
C1734 H1724 0.950 . S
C1734 C1735 1.386 . S
C1734 C1736 1.391 . S
C1735 C1734 1.386 . S
C1735 C1739 1.393 1_545 S
C1736 H1725 0.950 . S
C1736 C1734 1.391 . S
C1736 C1737 1.400 . S
C1737 C1731 1.491 . S
C1737 C1736 1.400 . S
C1737 C1738 1.398 1_545 S
C1738 H1726 0.950 . S
C1738 C1737 1.398 1_565 S
C1738 C1739 1.391 . S
C1739 H1727 0.950 . S
C1739 C1735 1.393 1_565 S
C1739 C1738 1.391 . S
H1740 C1748 0.950 . S
H1741 C1753 0.950 . S
H1742 C1750 0.950 . S
H1743 C1752 0.950 . S
H1744 C1754 0.950 . S
H1745 C1756 0.950 . S
H1746 C1758 0.950 . S
H1747 C1759 0.950 1_556 S
C1748 H1740 0.950 . S
C1748 C1749 1.386 . S
C1748 C1750 1.391 . S
C1749 C1748 1.386 . S
C1749 C1753 1.393 . S
C1750 H1742 0.950 . S
C1750 C1748 1.391 . S
C1750 C1751 1.400 . S
C1751 C1750 1.400 . S
C1751 C1752 1.398 . S
C1751 C1757 1.491 . S
C1752 H1743 0.950 . S
C1752 C1751 1.398 . S
C1752 C1753 1.391 . S
C1753 H1741 0.950 . S
C1753 C1749 1.393 . S
C1753 C1752 1.391 . S
C1754 H1744 0.950 . S
C1754 C1755 1.386 . S
C1754 C1756 1.391 . S
C1755 C1754 1.386 . S
C1755 C1759 1.393 . S
C1756 H1745 0.950 . S
C1756 C1754 1.391 . S
C1756 C1757 1.400 . S
C1757 C1751 1.491 . S
C1757 C1756 1.400 . S
C1757 C1758 1.398 . S
C1758 H1746 0.950 . S
C1758 C1757 1.398 . S
C1758 C1759 1.391 . S
C1759 H1747 0.950 1_554 S
C1759 C1755 1.393 . S
C1759 C1758 1.391 . S
H1760 C1768 0.950 . S
H1761 C1773 0.950 1_554 S
H1762 C1770 0.950 . S
H1763 C1772 0.950 1_554 S
H1764 C1774 0.950 . S
H1765 C1776 0.950 . S
H1766 C1778 0.950 . S
H1767 C1779 0.950 . S
C1768 H1760 0.950 . S
C1768 C1769 1.386 . S
C1768 C1770 1.391 . S
C1769 C1768 1.386 . S
C1769 C1773 1.393 . S
C1770 H1762 0.950 . S
C1770 C1768 1.391 . S
C1770 C1771 1.400 . S
C1771 C1770 1.400 . S
C1771 C1772 1.398 . S
C1771 C1777 1.491 . S
C1772 H1763 0.950 1_556 S
C1772 C1771 1.398 . S
C1772 C1773 1.391 . S
C1773 H1761 0.950 1_556 S
C1773 C1769 1.393 . S
C1773 C1772 1.391 . S
C1774 H1764 0.950 . S
C1774 C1775 1.386 . S
C1774 C1776 1.391 . S
C1775 C1774 1.386 . S
C1775 C1779 1.393 . S
C1776 H1765 0.950 . S
C1776 C1774 1.391 . S
C1776 C1777 1.400 . S
C1777 C1771 1.491 . S
C1777 C1776 1.400 . S
C1777 C1778 1.398 . S
C1778 H1766 0.950 . S
C1778 C1777 1.398 . S
C1778 C1779 1.391 . S
C1779 H1767 0.950 . S
C1779 C1775 1.393 . S
C1779 C1778 1.391 . S
H1780 C1788 0.950 1_554 S
H1781 C1793 0.950 . S
H1782 C1790 0.956 . S
H1783 C1792 0.950 . S
H1784 C1794 0.950 . S
H1785 C1796 0.950 . S
H1786 C1798 0.950 . S
H1787 C1799 0.950 . S
C1788 H1780 0.950 1_556 S
C1788 C1789 1.386 . S
C1788 C1790 1.391 . S
C1789 C1788 1.386 . S
C1789 C1793 1.393 . S
C1790 H1782 0.956 . S
C1790 C1788 1.391 . S
C1790 C1791 1.400 . S
C1791 C1790 1.400 . S
C1791 C1792 1.398 . S
C1791 C1797 1.491 . S
C1792 H1783 0.950 . S
C1792 C1791 1.398 . S
C1792 C1793 1.391 . S
C1793 H1781 0.950 . S
C1793 C1789 1.393 . S
C1793 C1792 1.391 . S
C1794 H1784 0.950 . S
C1794 C1795 1.386 . S
C1794 C1796 1.391 . S
C1795 C1794 1.386 . S
C1795 C1799 1.393 . S
C1796 H1785 0.950 . S
C1796 C1794 1.391 . S
C1796 C1797 1.400 . S
C1797 C1791 1.491 . S
C1797 C1796 1.400 . S
C1797 C1798 1.398 . S
C1798 H1786 0.950 . S
C1798 C1797 1.398 . S
C1798 C1799 1.391 . S
C1799 H1787 0.950 . S
C1799 C1795 1.393 . S
C1799 C1798 1.391 . S
H1800 C1808 0.950 . S
H1801 C1813 0.950 . S
H1802 C1810 0.950 . S
H1803 C1812 0.950 . S
H1804 C1814 0.950 . S
H1805 C1816 0.950 . S
H1806 C1818 0.950 . S
H1807 C1819 0.950 . S
C1808 H1800 0.950 . S
C1808 C1809 1.386 . S
C1808 C1810 1.391 . S
C1809 C1808 1.386 . S
C1809 C1813 1.393 . S
C1810 H1802 0.950 . S
C1810 C1808 1.391 . S
C1810 C1811 1.400 . S
C1811 C1810 1.400 . S
C1811 C1812 1.398 . S
C1811 C1817 1.491 . S
C1812 H1803 0.950 . S
C1812 C1811 1.398 . S
C1812 C1813 1.391 . S
C1813 H1801 0.950 . S
C1813 C1809 1.393 . S
C1813 C1812 1.391 . S
C1814 H1804 0.950 . S
C1814 C1815 1.386 . S
C1814 C1816 1.391 . S
C1815 C1814 1.386 . S
C1815 C1819 1.393 . S
C1816 H1805 0.950 . S
C1816 C1814 1.391 . S
C1816 C1817 1.400 . S
C1817 C1811 1.491 . S
C1817 C1816 1.400 . S
C1817 C1818 1.398 . S
C1818 H1806 0.950 . S
C1818 C1817 1.398 . S
C1818 C1819 1.391 . S
C1819 H1807 0.950 . S
C1819 C1815 1.393 . S
C1819 C1818 1.391 . S
H1820 C1828 0.950 . S
H1821 C1833 0.950 . S
H1822 C1830 0.950 . S
H1823 C1832 0.950 . S
H1824 C1834 0.950 . S
H1825 C1836 0.950 . S
H1826 C1838 0.950 . S
H1827 C1839 0.950 . S
C1828 H1820 0.950 . S
C1828 C1829 1.386 . S
C1828 C1830 1.391 . S
C1829 C1828 1.386 . S
C1829 C1833 1.393 . S
C1830 H1822 0.950 . S
C1830 C1828 1.391 . S
C1830 C1831 1.400 . S
C1831 C1830 1.400 . S
C1831 C1832 1.398 . S
C1831 C1837 1.491 . S
C1832 H1823 0.950 . S
C1832 C1831 1.398 . S
C1832 C1833 1.391 . S
C1833 H1821 0.950 . S
C1833 C1829 1.393 . S
C1833 C1832 1.391 . S
C1834 H1824 0.950 . S
C1834 C1835 1.386 . S
C1834 C1836 1.391 . S
C1835 C1834 1.386 . S
C1835 C1839 1.393 . S
C1836 H1825 0.950 . S
C1836 C1834 1.391 . S
C1836 C1837 1.400 . S
C1837 C1831 1.491 . S
C1837 C1836 1.400 . S
C1837 C1838 1.398 . S
C1838 H1826 0.950 . S
C1838 C1837 1.398 . S
C1838 C1839 1.391 . S
C1839 H1827 0.950 . S
C1839 C1835 1.393 . S
C1839 C1838 1.391 . S
H1840 C1848 0.950 . S
H1841 C1853 0.950 . S
H1842 C1850 0.950 . S
H1843 C1852 0.950 . S
H1844 C1854 0.950 . S
H1845 C1856 0.950 . S
H1846 C1858 0.950 . S
H1847 C1859 0.950 . S
C1848 H1840 0.950 . S
C1848 C1849 1.386 . S
C1848 C1850 1.391 . S
C1849 C1848 1.386 . S
C1849 C1853 1.393 . S
C1850 H1842 0.950 . S
C1850 C1848 1.391 . S
C1850 C1851 1.400 . S
C1851 C1850 1.400 . S
C1851 C1852 1.398 . S
C1851 C1857 1.491 . S
C1852 H1843 0.950 . S
C1852 C1851 1.398 . S
C1852 C1853 1.391 . S
C1853 H1841 0.950 . S
C1853 C1849 1.393 . S
C1853 C1852 1.391 . S
C1854 H1844 0.950 . S
C1854 C1855 1.386 . S
C1854 C1856 1.391 . S
C1855 C1854 1.386 . S
C1855 C1859 1.393 . S
C1856 H1845 0.950 . S
C1856 C1854 1.391 . S
C1856 C1857 1.400 . S
C1857 C1851 1.491 . S
C1857 C1856 1.400 . S
C1857 C1858 1.398 . S
C1858 H1846 0.950 . S
C1858 C1857 1.398 . S
C1858 C1859 1.391 . S
C1859 H1847 0.950 . S
C1859 C1855 1.393 . S
C1859 C1858 1.391 . S
H1860 C1868 0.950 . S
H1861 C1873 0.950 . S
H1862 C1870 0.950 . S
H1863 C1872 0.950 . S
H1864 C1874 0.950 . S
H1865 C1876 0.950 . S
H1866 C1878 0.950 . S
H1867 C1879 0.950 . S
C1868 H1860 0.950 . S
C1868 C1869 1.386 . S
C1868 C1870 1.391 . S
C1869 C1868 1.386 . S
C1869 C1873 1.393 . S
C1870 H1862 0.950 . S
C1870 C1868 1.391 . S
C1870 C1871 1.400 . S
C1871 C1870 1.400 . S
C1871 C1872 1.398 . S
C1871 C1877 1.491 . S
C1872 H1863 0.950 . S
C1872 C1871 1.398 . S
C1872 C1873 1.391 . S
C1873 H1861 0.950 . S
C1873 C1869 1.393 . S
C1873 C1872 1.391 . S
C1874 H1864 0.950 . S
C1874 C1875 1.386 . S
C1874 C1876 1.391 . S
C1875 C1874 1.386 . S
C1875 C1879 1.393 . S
C1876 H1865 0.950 . S
C1876 C1874 1.391 . S
C1876 C1877 1.400 . S
C1877 C1871 1.491 . S
C1877 C1876 1.400 . S
C1877 C1878 1.398 . S
C1878 H1866 0.950 . S
C1878 C1877 1.398 . S
C1878 C1879 1.391 . S
C1879 H1867 0.950 . S
C1879 C1875 1.393 . S
C1879 C1878 1.391 . S
H1880 C1888 0.950 . S
H1881 C1893 0.950 . S
H1882 C1890 0.950 . S
H1883 C1892 0.950 . S
H1884 C1894 0.950 . S
H1885 C1896 0.950 . S
H1886 C1898 0.950 . S
H1887 C1899 0.950 . S
C1888 H1880 0.950 . S
C1888 C1889 1.386 . S
C1888 C1890 1.391 . S
C1889 C1888 1.386 . S
C1889 C1893 1.393 . S
C1890 H1882 0.950 . S
C1890 C1888 1.391 . S
C1890 C1891 1.400 . S
C1891 C1890 1.400 . S
C1891 C1892 1.398 . S
C1891 C1897 1.491 . S
C1892 H1883 0.950 . S
C1892 C1891 1.398 . S
C1892 C1893 1.391 . S
C1893 H1881 0.950 . S
C1893 C1889 1.393 . S
C1893 C1892 1.391 . S
C1894 H1884 0.950 . S
C1894 C1895 1.386 . S
C1894 C1896 1.391 . S
C1895 C1894 1.386 . S
C1895 C1899 1.393 . S
C1896 H1885 0.950 . S
C1896 C1894 1.391 . S
C1896 C1897 1.400 . S
C1897 C1891 1.491 . S
C1897 C1896 1.400 . S
C1897 C1898 1.398 . S
C1898 H1886 0.950 . S
C1898 C1897 1.398 . S
C1898 C1899 1.391 . S
C1899 H1887 0.950 . S
C1899 C1895 1.393 . S
C1899 C1898 1.391 . S
H1900 C1908 0.950 . S
H1901 C1913 0.950 . S
H1902 C1910 0.950 . S
H1903 C1912 0.950 . S
H1904 C1914 0.950 . S
H1905 C1916 0.950 . S
H1906 C1918 0.950 . S
H1907 C1919 0.950 . S
C1908 H1900 0.950 . S
C1908 C1909 1.386 . S
C1908 C1910 1.391 . S
C1909 C1908 1.386 . S
C1909 C1913 1.393 . S
C1910 H1902 0.950 . S
C1910 C1908 1.391 . S
C1910 C1911 1.400 . S
C1911 C1910 1.400 . S
C1911 C1912 1.398 . S
C1911 C1917 1.491 . S
C1912 H1903 0.950 . S
C1912 C1911 1.398 . S
C1912 C1913 1.391 . S
C1913 H1901 0.950 . S
C1913 C1909 1.393 . S
C1913 C1912 1.391 . S
C1914 H1904 0.950 . S
C1914 C1915 1.386 . S
C1914 C1916 1.391 . S
C1915 C1914 1.386 . S
C1915 C1919 1.393 . S
C1916 H1905 0.950 . S
C1916 C1914 1.391 . S
C1916 C1917 1.400 . S
C1917 C1911 1.491 . S
C1917 C1916 1.400 . S
C1917 C1918 1.398 . S
C1918 H1906 0.950 . S
C1918 C1917 1.398 . S
C1918 C1919 1.391 . S
C1919 H1907 0.950 . S
C1919 C1915 1.393 . S
C1919 C1918 1.391 . S
H1920 C1928 0.950 . S
H1921 C1933 0.950 . S
H1922 C1930 0.950 . S
H1923 C1932 0.950 . S
H1924 C1934 0.950 . S
H1925 C1936 0.950 . S
H1926 C1938 0.950 . S
H1927 C1939 0.950 . S
C1928 H1920 0.950 . S
C1928 C1929 1.386 . S
C1928 C1930 1.391 . S
C1929 C1928 1.386 . S
C1929 C1933 1.393 . S
C1930 H1922 0.950 . S
C1930 C1928 1.391 . S
C1930 C1931 1.400 . S
C1931 C1930 1.400 . S
C1931 C1932 1.398 . S
C1931 C1937 1.491 . S
C1932 H1923 0.950 . S
C1932 C1931 1.398 . S
C1932 C1933 1.391 . S
C1933 H1921 0.950 . S
C1933 C1929 1.393 . S
C1933 C1932 1.391 . S
C1934 H1924 0.950 . S
C1934 C1935 1.386 . S
C1934 C1936 1.391 . S
C1935 C1934 1.386 . S
C1935 C1939 1.393 . S
C1936 H1925 0.950 . S
C1936 C1934 1.391 . S
C1936 C1937 1.400 . S
C1937 C1931 1.491 . S
C1937 C1936 1.400 . S
C1937 C1938 1.398 . S
C1938 H1926 0.950 . S
C1938 C1937 1.398 . S
C1938 C1939 1.391 . S
C1939 H1927 0.950 . S
C1939 C1935 1.393 . S
C1939 C1938 1.391 . S
H1940 C1948 0.950 . S
H1941 C1953 0.950 . S
H1942 C1950 0.950 . S
H1943 C1952 0.950 . S
H1944 C1954 0.950 . S
H1945 C1956 0.950 . S
H1946 C1958 0.950 . S
H1947 C1959 0.950 . S
C1948 H1940 0.950 . S
C1948 C1949 1.386 . S
C1948 C1950 1.391 . S
C1949 C1948 1.386 . S
C1949 C1953 1.393 1_545 S
C1950 H1942 0.950 . S
C1950 C1948 1.391 . S
C1950 C1951 1.400 1_545 S
C1951 C1950 1.400 1_565 S
C1951 C1952 1.398 . S
C1951 C1957 1.491 . S
C1952 H1943 0.950 . S
C1952 C1951 1.398 . S
C1952 C1953 1.391 . S
C1953 H1941 0.950 . S
C1953 C1949 1.393 1_565 S
C1953 C1952 1.391 . S
C1954 H1944 0.950 . S
C1954 C1955 1.386 . S
C1954 C1956 1.391 . S
C1955 C1954 1.386 . S
C1955 C1959 1.393 1_565 S
C1956 H1945 0.950 . S
C1956 C1954 1.391 . S
C1956 C1957 1.400 . S
C1957 C1951 1.491 . S
C1957 C1956 1.400 . S
C1957 C1958 1.398 1_565 S
C1958 H1946 0.950 . S
C1958 C1957 1.398 1_545 S
C1958 C1959 1.391 . S
C1959 H1947 0.950 . S
C1959 C1955 1.393 1_545 S
C1959 C1958 1.391 . S
H1960 C1968 0.950 . S
H1961 C1973 0.950 . S
H1962 C1970 0.950 . S
H1963 C1972 0.950 . S
H1964 C1974 0.950 . S
H1965 C1976 0.950 . S
H1966 C1978 0.950 . S
H1967 C1979 0.950 . S
C1968 H1960 0.950 . S
C1968 C1969 1.386 . S
C1968 C1970 1.391 . S
C1969 C1968 1.386 . S
C1969 C1973 1.393 1_565 S
C1970 H1962 0.950 . S
C1970 C1968 1.391 . S
C1970 C1971 1.400 . S
C1971 C1970 1.400 . S
C1971 C1972 1.398 1_565 S
C1971 C1977 1.491 . S
C1972 H1963 0.950 . S
C1972 C1971 1.398 1_545 S
C1972 C1973 1.391 . S
C1973 H1961 0.950 . S
C1973 C1969 1.393 1_545 S
C1973 C1972 1.391 . S
C1974 H1964 0.950 . S
C1974 C1975 1.367 1_545 S
C1974 C1976 1.391 . S
C1975 C1974 1.367 1_565 S
C1975 C1979 1.414 . S
C1976 H1965 0.950 . S
C1976 C1974 1.391 . S
C1976 C1977 1.400 1_545 S
C1977 C1971 1.491 . S
C1977 C1976 1.400 1_565 S
C1977 C1978 1.398 . S
C1978 H1966 0.950 . S
C1978 C1977 1.398 . S
C1978 C1979 1.391 . S
C1979 H1967 0.950 . S
C1979 C1975 1.414 . S
C1979 C1978 1.391 . S
H1980 C1988 0.950 . S
H1981 C1993 0.950 . S
H1982 C1990 0.950 . S
H1983 C1992 0.950 . S
H1984 C1994 0.950 . S
H1985 C1996 0.950 . S
H1986 C1998 0.950 . S
H1987 C1999 0.950 . S
C1988 H1980 0.950 . S
C1988 C1989 1.386 . S
C1988 C1990 1.391 . S
C1989 C1988 1.386 . S
C1989 C1993 1.393 . S
C1990 H1982 0.950 . S
C1990 C1988 1.391 . S
C1990 C1991 1.400 . S
C1991 C1990 1.400 . S
C1991 C1992 1.398 . S
C1991 C1997 1.491 . S
C1992 H1983 0.950 . S
C1992 C1991 1.398 . S
C1992 C1993 1.391 . S
C1993 H1981 0.950 . S
C1993 C1989 1.393 . S
C1993 C1992 1.391 . S
C1994 H1984 0.950 . S
C1994 C1995 1.386 . S
C1994 C1996 1.391 . S
C1995 C1994 1.386 . S
C1995 C1999 1.393 . S
C1996 H1985 0.950 . S
C1996 C1994 1.391 . S
C1996 C1997 1.400 . S
C1997 C1991 1.491 . S
C1997 C1996 1.400 . S
C1997 C1998 1.398 . S
C1998 H1986 0.950 . S
C1998 C1997 1.398 . S
C1998 C1999 1.391 . S
C1999 H1987 0.950 . S
C1999 C1995 1.393 . S
C1999 C1998 1.391 . S
H2000 C2008 0.950 . S
H2001 C2013 0.950 . S
H2002 C2010 0.950 . S
H2003 C2012 0.950 . S
H2004 C2014 0.950 . S
H2005 C2016 0.950 . S
H2006 C2018 0.950 . S
H2007 C2019 0.950 . S
C2008 H2000 0.950 . S
C2008 C2009 1.386 . S
C2008 C2010 1.391 . S
C2009 C2008 1.386 . S
C2009 C2013 1.393 . S
C2010 H2002 0.950 . S
C2010 C2008 1.391 . S
C2010 C2011 1.400 . S
C2011 C2010 1.400 . S
C2011 C2012 1.398 . S
C2011 C2017 1.491 . S
C2012 H2003 0.950 . S
C2012 C2011 1.398 . S
C2012 C2013 1.391 . S
C2013 H2001 0.950 . S
C2013 C2009 1.393 . S
C2013 C2012 1.391 . S
C2014 H2004 0.950 . S
C2014 C2015 1.386 . S
C2014 C2016 1.391 . S
C2015 C2014 1.386 . S
C2015 C2019 1.393 . S
C2016 H2005 0.950 . S
C2016 C2014 1.391 . S
C2016 C2017 1.400 . S
C2017 C2011 1.491 . S
C2017 C2016 1.400 . S
C2017 C2018 1.398 . S
C2018 H2006 0.950 . S
C2018 C2017 1.398 . S
C2018 C2019 1.391 . S
C2019 H2007 0.950 . S
C2019 C2015 1.393 . S
C2019 C2018 1.391 . S
H2020 C2028 0.950 . S
H2021 C2033 0.950 . S
H2022 C2030 0.950 . S
H2023 C2032 0.950 . S
H2024 C2034 0.950 . S
H2025 C2036 0.950 . S
H2026 C2038 0.950 . S
H2027 C2039 0.950 . S
C2028 H2020 0.950 . S
C2028 C2029 1.386 . S
C2028 C2030 1.391 . S
C2029 C2028 1.386 . S
C2029 C2033 1.393 1_545 S
C2030 H2022 0.950 . S
C2030 C2028 1.391 . S
C2030 C2031 1.400 . S
C2031 C2030 1.400 . S
C2031 C2032 1.398 1_545 S
C2031 C2037 1.491 . S
C2032 H2023 0.950 . S
C2032 C2031 1.398 1_565 S
C2032 C2033 1.391 . S
C2033 H2021 0.950 . S
C2033 C2029 1.393 1_565 S
C2033 C2032 1.391 . S
C2034 H2024 0.950 . S
C2034 C2035 1.378 1_565 S
C2034 C2036 1.391 . S
C2035 C2034 1.378 1_545 S
C2035 C2039 1.401 . S
C2036 H2025 0.950 . S
C2036 C2034 1.391 . S
C2036 C2037 1.400 1_565 S
C2037 C2031 1.491 . S
C2037 C2036 1.400 1_545 S
C2037 C2038 1.398 . S
C2038 H2026 0.950 . S
C2038 C2037 1.398 . S
C2038 C2039 1.391 . S
C2039 H2027 0.950 . S
C2039 C2035 1.401 . S
C2039 C2038 1.391 . S
H2040 C2048 0.950 . S
H2041 C2053 0.950 . S
H2042 C2050 0.950 . S
H2043 C2052 0.950 . S
H2044 C2054 0.950 . S
H2045 C2056 0.950 . S
H2046 C2058 0.950 . S
H2047 C2059 0.950 . S
C2048 H2040 0.950 . S
C2048 C2049 1.386 . S
C2048 C2050 1.391 . S
C2049 C2048 1.386 . S
C2049 C2053 1.393 1_545 S
C2050 H2042 0.950 . S
C2050 C2048 1.391 . S
C2050 C2051 1.400 . S
C2051 C2050 1.400 . S
C2051 C2052 1.398 1_545 S
C2051 C2057 1.491 . S
C2052 H2043 0.950 . S
C2052 C2051 1.398 1_565 S
C2052 C2053 1.391 . S
C2053 H2041 0.950 . S
C2053 C2049 1.393 1_565 S
C2053 C2052 1.391 . S
C2054 H2044 0.950 . S
C2054 C2055 1.399 . S
C2054 C2056 1.391 . S
C2055 C2054 1.399 . S
C2055 C2059 1.378 1_565 S
C2056 H2045 0.950 . S
C2056 C2054 1.391 . S
C2056 C2057 1.400 1_565 S
C2057 C2051 1.491 . S
C2057 C2056 1.400 1_545 S
C2057 C2058 1.398 . S
C2058 H2046 0.950 . S
C2058 C2057 1.398 . S
C2058 C2059 1.391 . S
C2059 H2047 0.950 . S
C2059 C2055 1.378 1_545 S
C2059 C2058 1.391 . S
H2060 C2068 0.950 . S
H2061 C2073 0.950 . S
H2062 C2070 0.950 . S
H2063 C2072 0.950 . S
H2064 C2074 0.950 . S
H2065 C2076 0.950 . S
H2066 C2078 0.950 . S
H2067 C2079 0.950 . S
C2068 H2060 0.950 . S
C2068 C2069 1.386 . S
C2068 C2070 1.391 . S
C2069 C2068 1.386 . S
C2069 C2073 1.393 . S
C2070 H2062 0.950 . S
C2070 C2068 1.391 . S
C2070 C2071 1.400 . S
C2071 C2070 1.400 . S
C2071 C2072 1.398 . S
C2071 C2077 1.491 . S
C2072 H2063 0.950 . S
C2072 C2071 1.398 . S
C2072 C2073 1.391 . S
C2073 H2061 0.950 . S
C2073 C2069 1.393 . S
C2073 C2072 1.391 . S
C2074 H2064 0.950 . S
C2074 C2075 1.386 . S
C2074 C2076 1.391 . S
C2075 C2074 1.386 . S
C2075 C2079 1.393 . S
C2076 H2065 0.950 . S
C2076 C2074 1.391 . S
C2076 C2077 1.400 . S
C2077 C2071 1.491 . S
C2077 C2076 1.400 . S
C2077 C2078 1.398 . S
C2078 H2066 0.950 . S
C2078 C2077 1.398 . S
C2078 C2079 1.391 . S
C2079 H2067 0.950 . S
C2079 C2075 1.393 . S
C2079 C2078 1.391 . S
H2080 C2088 0.950 . S
H2081 C2093 0.950 . S
H2082 C2090 0.950 . S
H2083 C2092 0.950 . S
H2084 C2094 0.950 . S
H2085 C2096 0.950 . S
H2086 C2098 0.950 . S
H2087 C2099 0.950 . S
C2088 H2080 0.950 . S
C2088 C2089 1.386 . S
C2088 C2090 1.391 . S
C2089 C2088 1.386 . S
C2089 C2093 1.393 . S
C2090 H2082 0.950 . S
C2090 C2088 1.391 . S
C2090 C2091 1.400 . S
C2091 C2090 1.400 . S
C2091 C2092 1.398 . S
C2091 C2097 1.491 . S
C2092 H2083 0.950 . S
C2092 C2091 1.398 . S
C2092 C2093 1.391 . S
C2093 H2081 0.950 . S
C2093 C2089 1.393 . S
C2093 C2092 1.391 . S
C2094 H2084 0.950 . S
C2094 C2095 1.386 . S
C2094 C2096 1.391 . S
C2095 C2094 1.386 . S
C2095 C2099 1.393 . S
C2096 H2085 0.950 . S
C2096 C2094 1.391 . S
C2096 C2097 1.400 . S
C2097 C2091 1.491 . S
C2097 C2096 1.400 . S
C2097 C2098 1.398 . S
C2098 H2086 0.950 . S
C2098 C2097 1.398 . S
C2098 C2099 1.391 . S
C2099 H2087 0.950 . S
C2099 C2095 1.393 . S
C2099 C2098 1.391 . S
H2100 C2108 0.950 . S
H2101 C2113 0.950 . S
H2102 C2110 0.950 . S
H2103 C2112 0.950 . S
H2104 C2114 0.950 . S
H2105 C2116 0.950 . S
H2106 C2118 0.950 . S
H2107 C2119 0.950 . S
C2108 H2100 0.950 . S
C2108 C2109 1.386 . S
C2108 C2110 1.391 . S
C2109 C2108 1.386 . S
C2109 C2113 1.393 . S
C2110 H2102 0.950 . S
C2110 C2108 1.391 . S
C2110 C2111 1.400 . S
C2111 C2110 1.400 . S
C2111 C2112 1.398 . S
C2111 C2117 1.491 . S
C2112 H2103 0.950 . S
C2112 C2111 1.398 . S
C2112 C2113 1.391 . S
C2113 H2101 0.950 . S
C2113 C2109 1.393 . S
C2113 C2112 1.391 . S
C2114 H2104 0.950 . S
C2114 C2115 1.386 . S
C2114 C2116 1.391 . S
C2115 C2114 1.386 . S
C2115 C2119 1.393 . S
C2116 H2105 0.950 . S
C2116 C2114 1.391 . S
C2116 C2117 1.400 . S
C2117 C2111 1.491 . S
C2117 C2116 1.400 . S
C2117 C2118 1.398 . S
C2118 H2106 0.950 . S
C2118 C2117 1.398 . S
C2118 C2119 1.391 . S
C2119 H2107 0.950 . S
C2119 C2115 1.393 . S
C2119 C2118 1.391 . S
H2120 C2128 0.950 . S
H2121 C2133 0.950 . S
H2122 C2130 0.950 . S
H2123 C2132 0.950 . S
H2124 C2134 0.950 . S
H2125 C2136 0.950 . S
H2126 C2138 0.950 . S
H2127 C2139 0.950 . S
C2128 H2120 0.950 . S
C2128 C2129 1.386 . S
C2128 C2130 1.391 . S
C2129 C2128 1.386 . S
C2129 C2133 1.393 . S
C2130 H2122 0.950 . S
C2130 C2128 1.391 . S
C2130 C2131 1.400 . S
C2131 C2130 1.400 . S
C2131 C2132 1.398 . S
C2131 C2137 1.491 1_556 S
C2132 H2123 0.950 . S
C2132 C2131 1.398 . S
C2132 C2133 1.391 . S
C2133 H2121 0.950 . S
C2133 C2129 1.393 . S
C2133 C2132 1.391 . S
C2134 H2124 0.950 . S
C2134 C2135 1.386 . S
C2134 C2136 1.391 . S
C2135 C2134 1.386 . S
C2135 C2139 1.393 . S
C2136 H2125 0.950 . S
C2136 C2134 1.391 . S
C2136 C2137 1.400 . S
C2137 C2131 1.491 1_554 S
C2137 C2136 1.400 . S
C2137 C2138 1.398 . S
C2138 H2126 0.950 . S
C2138 C2137 1.398 . S
C2138 C2139 1.391 . S
C2139 H2127 0.950 . S
C2139 C2135 1.393 . S
C2139 C2138 1.391 . S
H2140 C2148 0.950 . S
H2141 C2153 0.950 . S
H2142 C2150 0.950 . S
H2143 C2152 0.950 . S
H2144 C2154 0.950 . S
H2145 C2156 0.950 . S
H2146 C2158 0.950 . S
H2147 C2159 0.950 . S
C2148 H2140 0.950 . S
C2148 C2149 1.386 . S
C2148 C2150 1.391 . S
C2149 C2148 1.386 . S
C2149 C2153 1.393 . S
C2150 H2142 0.950 . S
C2150 C2148 1.391 . S
C2150 C2151 1.400 . S
C2151 C2150 1.400 . S
C2151 C2152 1.398 . S
C2151 C2157 1.491 1_556 S
C2152 H2143 0.950 . S
C2152 C2151 1.398 . S
C2152 C2153 1.391 . S
C2153 H2141 0.950 . S
C2153 C2149 1.393 . S
C2153 C2152 1.391 . S
C2154 H2144 0.950 . S
C2154 C2155 1.386 . S
C2154 C2156 1.391 . S
C2155 C2154 1.386 . S
C2155 C2159 1.393 . S
C2156 H2145 0.950 . S
C2156 C2154 1.391 . S
C2156 C2157 1.400 . S
C2157 C2151 1.491 1_554 S
C2157 C2156 1.400 . S
C2157 C2158 1.398 . S
C2158 H2146 0.950 . S
C2158 C2157 1.398 . S
C2158 C2159 1.391 . S
C2159 H2147 0.950 . S
C2159 C2155 1.393 . S
C2159 C2158 1.391 . S
H2160 C2168 0.950 . S
H2161 C2173 0.950 . S
H2162 C2170 0.950 . S
H2163 C2172 0.950 . S
H2164 C2174 0.950 . S
H2165 C2176 0.950 . S
H2166 C2178 0.950 . S
H2167 C2179 0.950 . S
C2168 H2160 0.950 . S
C2168 C2169 1.386 . S
C2168 C2170 1.391 . S
C2169 C2168 1.386 . S
C2169 C2173 1.393 . S
C2170 H2162 0.950 . S
C2170 C2168 1.391 . S
C2170 C2171 1.400 . S
C2171 C2170 1.400 . S
C2171 C2172 1.398 . S
C2171 C2177 1.491 . S
C2172 H2163 0.950 . S
C2172 C2171 1.398 . S
C2172 C2173 1.391 . S
C2173 H2161 0.950 . S
C2173 C2169 1.393 . S
C2173 C2172 1.391 . S
C2174 H2164 0.950 . S
C2174 C2175 1.386 . S
C2174 C2176 1.391 . S
C2175 C2174 1.386 . S
C2175 C2179 1.393 . S
C2176 H2165 0.950 . S
C2176 C2174 1.391 . S
C2176 C2177 1.400 . S
C2177 C2171 1.491 . S
C2177 C2176 1.400 . S
C2177 C2178 1.398 . S
C2178 H2166 0.950 . S
C2178 C2177 1.398 . S
C2178 C2179 1.391 . S
C2179 H2167 0.950 . S
C2179 C2175 1.393 . S
C2179 C2178 1.391 . S
H2180 C2188 0.950 . S
H2181 C2193 0.950 . S
H2182 C2190 0.950 . S
H2183 C2192 0.950 . S
H2184 C2194 0.950 . S
H2185 C2196 0.950 . S
H2186 C2198 0.950 . S
H2187 C2199 0.950 . S
C2188 H2180 0.950 . S
C2188 C2189 1.386 . S
C2188 C2190 1.391 . S
C2189 C2188 1.386 . S
C2189 C2193 1.393 . S
C2190 H2182 0.950 . S
C2190 C2188 1.391 . S
C2190 C2191 1.400 . S
C2191 C2190 1.400 . S
C2191 C2192 1.398 . S
C2191 C2197 1.491 . S
C2192 H2183 0.950 . S
C2192 C2191 1.398 . S
C2192 C2193 1.391 . S
C2193 H2181 0.950 . S
C2193 C2189 1.393 . S
C2193 C2192 1.391 . S
C2194 H2184 0.950 . S
C2194 C2195 1.386 . S
C2194 C2196 1.391 . S
C2195 C2194 1.386 . S
C2195 C2199 1.393 . S
C2196 H2185 0.950 . S
C2196 C2194 1.391 . S
C2196 C2197 1.400 . S
C2197 C2191 1.491 . S
C2197 C2196 1.400 . S
C2197 C2198 1.398 . S
C2198 H2186 0.950 . S
C2198 C2197 1.398 . S
C2198 C2199 1.391 . S
C2199 H2187 0.950 . S
C2199 C2195 1.393 . S
C2199 C2198 1.391 . S
H2200 C2208 0.950 . S
H2201 C2213 0.950 . S
H2202 C2210 0.950 . S
H2203 C2212 0.950 . S
H2204 C2214 0.950 . S
H2205 C2216 0.950 . S
H2206 C2218 0.950 . S
H2207 C2219 0.950 . S
C2208 H2200 0.950 . S
C2208 C2209 1.386 . S
C2208 C2210 1.391 . S
C2209 C2208 1.386 . S
C2209 C2213 1.393 . S
C2210 H2202 0.950 . S
C2210 C2208 1.391 . S
C2210 C2211 1.400 . S
C2211 C2210 1.400 . S
C2211 C2212 1.398 . S
C2211 C2217 1.491 1_554 S
C2212 H2203 0.950 . S
C2212 C2211 1.398 . S
C2212 C2213 1.391 . S
C2213 H2201 0.950 . S
C2213 C2209 1.393 . S
C2213 C2212 1.391 . S
C2214 H2204 0.950 . S
C2214 C2215 1.386 . S
C2214 C2216 1.391 . S
C2215 C2214 1.386 . S
C2215 C2219 1.393 . S
C2216 H2205 0.950 . S
C2216 C2214 1.391 . S
C2216 C2217 1.400 . S
C2217 C2211 1.491 1_556 S
C2217 C2216 1.400 . S
C2217 C2218 1.398 . S
C2218 H2206 0.950 . S
C2218 C2217 1.398 . S
C2218 C2219 1.391 . S
C2219 H2207 0.950 . S
C2219 C2215 1.393 . S
C2219 C2218 1.391 . S
H2220 C2228 0.950 . S
H2221 C2233 0.950 . S
H2222 C2230 0.950 . S
H2223 C2232 0.950 . S
H2224 C2234 0.950 . S
H2225 C2236 0.950 . S
H2226 C2238 0.950 . S
H2227 C2239 0.950 . S
C2228 H2220 0.950 . S
C2228 C2229 1.386 . S
C2228 C2230 1.391 . S
C2229 C2228 1.386 . S
C2229 C2233 1.393 . S
C2230 H2222 0.950 . S
C2230 C2228 1.391 . S
C2230 C2231 1.400 . S
C2231 C2230 1.400 . S
C2231 C2232 1.398 . S
C2231 C2237 1.491 1_556 S
C2232 H2223 0.950 . S
C2232 C2231 1.398 . S
C2232 C2233 1.391 . S
C2233 H2221 0.950 . S
C2233 C2229 1.393 . S
C2233 C2232 1.391 . S
C2234 H2224 0.950 . S
C2234 C2235 1.386 . S
C2234 C2236 1.391 . S
C2235 C2234 1.386 . S
C2235 C2239 1.393 . S
C2236 H2225 0.950 . S
C2236 C2234 1.391 . S
C2236 C2237 1.400 . S
C2237 C2231 1.491 1_554 S
C2237 C2236 1.400 . S
C2237 C2238 1.398 . S
C2238 H2226 0.950 . S
C2238 C2237 1.398 . S
C2238 C2239 1.391 . S
C2239 H2227 0.950 . S
C2239 C2235 1.393 . S
C2239 C2238 1.391 . S
H2240 C2248 0.950 . S
H2241 C2253 0.950 . S
H2242 C2250 0.950 . S
H2243 C2252 0.950 . S
H2244 C2254 0.950 . S
H2245 C2256 0.950 . S
H2246 C2258 0.950 . S
H2247 C2259 0.950 . S
C2248 H2240 0.950 . S
C2248 C2249 1.386 . S
C2248 C2250 1.391 . S
C2249 C2248 1.386 . S
C2249 C2253 1.393 . S
C2250 H2242 0.950 . S
C2250 C2248 1.391 . S
C2250 C2251 1.400 . S
C2251 C2250 1.400 . S
C2251 C2252 1.398 . S
C2251 C2257 1.491 . S
C2252 H2243 0.950 . S
C2252 C2251 1.398 . S
C2252 C2253 1.391 . S
C2253 H2241 0.950 . S
C2253 C2249 1.393 . S
C2253 C2252 1.391 . S
C2254 H2244 0.950 . S
C2254 C2255 1.386 . S
C2254 C2256 1.391 . S
C2255 C2254 1.386 . S
C2255 C2259 1.393 . S
C2256 H2245 0.950 . S
C2256 C2254 1.391 . S
C2256 C2257 1.400 . S
C2257 C2251 1.491 . S
C2257 C2256 1.400 . S
C2257 C2258 1.398 . S
C2258 H2246 0.950 . S
C2258 C2257 1.398 . S
C2258 C2259 1.391 . S
C2259 H2247 0.950 . S
C2259 C2255 1.393 . S
C2259 C2258 1.391 . S
H2260 C2268 0.950 . S
H2261 C2273 0.950 . S
H2262 C2270 0.950 . S
H2263 C2272 0.950 . S
H2264 C2274 0.950 . S
H2265 C2276 0.950 . S
H2266 C2278 0.950 . S
H2267 C2279 0.950 . S
C2268 H2260 0.950 . S
C2268 C2269 1.386 . S
C2268 C2270 1.391 . S
C2269 C2268 1.386 . S
C2269 C2273 1.393 1_565 S
C2270 H2262 0.950 . S
C2270 C2268 1.391 . S
C2270 C2271 1.400 . S
C2271 C2270 1.400 . S
C2271 C2272 1.398 1_565 S
C2271 C2277 1.491 . S
C2272 H2263 0.950 . S
C2272 C2271 1.398 1_545 S
C2272 C2273 1.391 . S
C2273 H2261 0.950 . S
C2273 C2269 1.393 1_545 S
C2273 C2272 1.391 . S
C2274 H2264 0.950 . S
C2274 C2275 1.401 . S
C2274 C2276 1.391 . S
C2275 C2274 1.401 . S
C2275 C2279 1.377 1_545 S
C2276 H2265 0.950 . S
C2276 C2274 1.391 . S
C2276 C2277 1.400 1_545 S
C2277 C2271 1.491 . S
C2277 C2276 1.400 1_565 S
C2277 C2278 1.398 . S
C2278 H2266 0.950 . S
C2278 C2277 1.398 . S
C2278 C2279 1.391 . S
C2279 H2267 0.950 . S
C2279 C2275 1.377 1_565 S
C2279 C2278 1.391 . S
H2280 C2288 0.950 . S
H2281 C2293 0.950 . S
H2282 C2290 0.950 . S
H2283 C2292 0.950 . S
H2284 C2294 0.950 . S
H2285 C2296 0.950 . S
H2286 C2298 0.950 . S
H2287 C2299 0.948 1_545 S
C2288 H2280 0.950 . S
C2288 C2289 1.386 . S
C2288 C2290 1.391 . S
C2289 C2288 1.386 . S
C2289 C2293 1.393 . S
C2290 H2282 0.950 . S
C2290 C2288 1.391 . S
C2290 C2291 1.400 . S
C2291 C2290 1.400 . S
C2291 C2292 1.398 . S
C2291 C2297 1.491 1_556 S
C2292 H2283 0.950 . S
C2292 C2291 1.398 . S
C2292 C2293 1.391 . S
C2293 H2281 0.950 . S
C2293 C2289 1.393 . S
C2293 C2292 1.391 . S
C2294 H2284 0.950 . S
C2294 C2295 1.389 . S
C2294 C2296 1.391 . S
C2295 C2294 1.389 . S
C2295 C2299 1.393 . S
C2296 H2285 0.950 . S
C2296 C2294 1.391 . S
C2296 C2297 1.400 . S
C2297 C2291 1.491 1_554 S
C2297 C2296 1.400 . S
C2297 C2298 1.398 . S
C2298 H2286 0.950 . S
C2298 C2297 1.398 . S
C2298 C2299 1.394 . S
C2299 H2287 0.948 1_565 S
C2299 C2295 1.393 . S
C2299 C2298 1.394 . S
H2300 C2308 0.950 . S
H2301 C2313 0.950 . S
H2302 C2310 0.950 . S
H2303 C2312 0.950 . S
H2304 C2314 0.950 . S
H2305 C2316 0.950 . S
H2306 C2318 0.950 . S
H2307 C2319 0.950 . S
C2308 H2300 0.950 . S
C2308 C2309 1.386 . S
C2308 C2310 1.391 . S
C2309 C2308 1.386 . S
C2309 C2313 1.393 . S
C2310 H2302 0.950 . S
C2310 C2308 1.391 . S
C2310 C2311 1.400 . S
C2311 C2310 1.400 . S
C2311 C2312 1.398 . S
C2311 C2317 1.491 1_556 S
C2312 H2303 0.950 . S
C2312 C2311 1.398 . S
C2312 C2313 1.391 . S
C2313 H2301 0.950 . S
C2313 C2309 1.393 . S
C2313 C2312 1.391 . S
C2314 H2304 0.950 . S
C2314 C2315 1.386 . S
C2314 C2316 1.391 . S
C2315 C2314 1.386 . S
C2315 C2319 1.393 . S
C2316 H2305 0.950 . S
C2316 C2314 1.391 . S
C2316 C2317 1.400 . S
C2317 C2311 1.491 1_554 S
C2317 C2316 1.400 . S
C2317 C2318 1.398 . S
C2318 H2306 0.950 . S
C2318 C2317 1.398 . S
C2318 C2319 1.391 . S
C2319 H2307 0.950 . S
C2319 C2315 1.393 . S
C2319 C2318 1.391 . S
H2320 C2328 0.950 . S
H2321 C2333 0.950 . S
H2322 C2330 0.950 . S
H2323 C2332 0.950 . S
H2324 C2334 0.950 . S
H2325 C2336 0.950 . S
H2326 C2338 0.950 . S
H2327 C2339 0.950 . S
C2328 H2320 0.950 . S
C2328 C2329 1.386 . S
C2328 C2330 1.391 . S
C2329 C2328 1.386 . S
C2329 C2333 1.393 . S
C2330 H2322 0.950 . S
C2330 C2328 1.391 . S
C2330 C2331 1.400 . S
C2331 C2330 1.400 . S
C2331 C2332 1.398 . S
C2331 C2337 1.491 . S
C2332 H2323 0.950 . S
C2332 C2331 1.398 . S
C2332 C2333 1.391 . S
C2333 H2321 0.950 . S
C2333 C2329 1.393 . S
C2333 C2332 1.391 . S
C2334 H2324 0.950 . S
C2334 C2335 1.386 . S
C2334 C2336 1.391 . S
C2335 C2334 1.386 . S
C2335 C2339 1.393 . S
C2336 H2325 0.950 . S
C2336 C2334 1.391 . S
C2336 C2337 1.400 . S
C2337 C2331 1.491 . S
C2337 C2336 1.400 . S
C2337 C2338 1.398 . S
C2338 H2326 0.950 . S
C2338 C2337 1.398 . S
C2338 C2339 1.391 . S
C2339 H2327 0.950 . S
C2339 C2335 1.393 . S
C2339 C2338 1.391 . S
H2340 C2348 0.950 . S
H2341 C2353 0.950 . S
H2342 C2350 0.950 . S
H2343 C2352 0.950 . S
H2344 C2354 0.950 . S
H2345 C2356 0.950 . S
H2346 C2358 0.950 . S
H2347 C2359 0.950 . S
C2348 H2340 0.950 . S
C2348 C2349 1.386 . S
C2348 C2350 1.391 . S
C2349 C2348 1.386 . S
C2349 C2353 1.393 1_545 S
C2350 H2342 0.950 . S
C2350 C2348 1.391 . S
C2350 C2351 1.400 . S
C2351 C2350 1.400 . S
C2351 C2352 1.398 1_545 S
C2351 C2357 1.491 . S
C2352 H2343 0.950 . S
C2352 C2351 1.398 1_565 S
C2352 C2353 1.391 . S
C2353 H2341 0.950 . S
C2353 C2349 1.393 1_565 S
C2353 C2352 1.391 . S
C2354 H2344 0.950 . S
C2354 C2355 1.392 . S
C2354 C2356 1.391 . S
C2355 C2354 1.392 . S
C2355 C2359 1.386 1_565 S
C2356 H2345 0.950 . S
C2356 C2354 1.391 . S
C2356 C2357 1.400 1_565 S
C2357 C2351 1.491 . S
C2357 C2356 1.400 1_545 S
C2357 C2358 1.398 . S
C2358 H2346 0.950 . S
C2358 C2357 1.398 . S
C2358 C2359 1.391 . S
C2359 H2347 0.950 . S
C2359 C2355 1.386 1_545 S
C2359 C2358 1.391 . S
H2360 C2368 0.950 . S
H2361 C2373 0.950 . S
H2362 C2370 0.950 . S
H2363 C2372 0.950 . S
H2364 C2374 0.950 . S
H2365 C2376 0.950 . S
H2366 C2378 0.950 . S
H2367 C2379 0.950 . S
C2368 H2360 0.950 . S
C2368 C2369 1.394 . S
C2368 C2370 1.391 . S
C2369 C2368 1.394 . S
C2369 C2373 1.384 1_565 S
C2370 H2362 0.950 . S
C2370 C2368 1.391 . S
C2370 C2371 1.400 1_565 S
C2371 C2370 1.400 1_545 S
C2371 C2372 1.398 . S
C2371 C2377 1.491 1_556 S
C2372 H2363 0.950 . S
C2372 C2371 1.398 . S
C2372 C2373 1.391 . S
C2373 H2361 0.950 . S
C2373 C2369 1.384 1_545 S
C2373 C2372 1.391 . S
C2374 H2364 0.950 . S
C2374 C2375 1.386 . S
C2374 C2376 1.391 . S
C2375 C2374 1.386 . S
C2375 C2379 1.393 1_545 S
C2376 H2365 0.950 . S
C2376 C2374 1.391 . S
C2376 C2377 1.400 . S
C2377 C2371 1.491 1_554 S
C2377 C2376 1.400 . S
C2377 C2378 1.398 1_545 S
C2378 H2366 0.950 . S
C2378 C2377 1.398 1_565 S
C2378 C2379 1.391 . S
C2379 H2367 0.950 . S
C2379 C2375 1.393 1_565 S
C2379 C2378 1.391 . S
H2380 C2388 0.950 . S
H2381 C2393 0.950 . S
H2382 C2390 0.950 . S
H2383 C2392 0.950 . S
H2384 C2394 0.950 . S
H2385 C2396 0.950 . S
H2386 C2398 0.950 . S
H2387 C2399 0.950 . S
C2388 H2380 0.950 . S
C2388 C2389 1.386 . S
C2388 C2390 1.391 . S
C2389 C2388 1.386 . S
C2389 C2393 1.393 . S
C2390 H2382 0.950 . S
C2390 C2388 1.391 . S
C2390 C2391 1.400 . S
C2391 C2390 1.400 . S
C2391 C2392 1.398 . S
C2391 C2397 1.491 1_556 S
C2392 H2383 0.950 . S
C2392 C2391 1.398 . S
C2392 C2393 1.391 . S
C2393 H2381 0.950 . S
C2393 C2389 1.393 . S
C2393 C2392 1.391 . S
C2394 H2384 0.950 . S
C2394 C2395 1.386 . S
C2394 C2396 1.391 . S
C2395 C2394 1.386 . S
C2395 C2399 1.393 . S
C2396 H2385 0.950 . S
C2396 C2394 1.391 . S
C2396 C2397 1.400 . S
C2397 C2391 1.491 1_554 S
C2397 C2396 1.400 . S
C2397 C2398 1.398 . S
C2398 H2386 0.950 . S
C2398 C2397 1.398 . S
C2398 C2399 1.391 . S
C2399 H2387 0.950 . S
C2399 C2395 1.393 . S
C2399 C2398 1.391 . S
H2400 C2408 0.950 . S
H2401 C2413 0.950 . S
H2402 C2410 0.950 . S
H2403 C2412 0.950 . S
H2404 C2414 0.950 . S
H2405 C2416 0.950 . S
H2406 C2418 0.950 . S
H2407 C2419 0.950 . S
C2408 H2400 0.950 . S
C2408 C2409 1.386 . S
C2408 C2410 1.391 . S
C2409 C2408 1.386 . S
C2409 C2413 1.393 . S
C2410 H2402 0.950 . S
C2410 C2408 1.391 . S
C2410 C2411 1.400 . S
C2411 C2410 1.400 . S
C2411 C2412 1.398 . S
C2411 C2417 1.491 . S
C2412 H2403 0.950 . S
C2412 C2411 1.398 . S
C2412 C2413 1.391 . S
C2413 H2401 0.950 . S
C2413 C2409 1.393 . S
C2413 C2412 1.391 . S
C2414 H2404 0.950 . S
C2414 C2415 1.386 . S
C2414 C2416 1.391 . S
C2415 C2414 1.386 . S
C2415 C2419 1.393 . S
C2416 H2405 0.950 . S
C2416 C2414 1.391 . S
C2416 C2417 1.400 . S
C2417 C2411 1.491 . S
C2417 C2416 1.400 . S
C2417 C2418 1.398 . S
C2418 H2406 0.950 . S
C2418 C2417 1.398 . S
C2418 C2419 1.391 . S
C2419 H2407 0.950 . S
C2419 C2415 1.393 . S
C2419 C2418 1.391 . S
H2420 C2428 0.950 . S
H2421 C2433 0.950 . S
H2422 C2430 0.950 . S
H2423 C2432 0.950 . S
H2424 C2434 0.950 . S
H2425 C2436 0.950 . S
H2426 C2438 0.950 . S
H2427 C2439 0.950 . S
C2428 H2420 0.950 . S
C2428 C2429 1.386 . S
C2428 C2430 1.391 . S
C2429 C2428 1.386 . S
C2429 C2433 1.393 . S
C2430 H2422 0.950 . S
C2430 C2428 1.391 . S
C2430 C2431 1.400 . S
C2431 C2430 1.400 . S
C2431 C2432 1.398 . S
C2431 C2437 1.491 . S
C2432 H2423 0.950 . S
C2432 C2431 1.398 . S
C2432 C2433 1.391 . S
C2433 H2421 0.950 . S
C2433 C2429 1.393 . S
C2433 C2432 1.391 . S
C2434 H2424 0.950 . S
C2434 C2435 1.386 . S
C2434 C2436 1.391 . S
C2435 C2434 1.386 . S
C2435 C2439 1.393 . S
C2436 H2425 0.950 . S
C2436 C2434 1.391 . S
C2436 C2437 1.400 . S
C2437 C2431 1.491 . S
C2437 C2436 1.400 . S
C2437 C2438 1.398 . S
C2438 H2426 0.950 . S
C2438 C2437 1.398 . S
C2438 C2439 1.391 . S
C2439 H2427 0.950 . S
C2439 C2435 1.393 . S
C2439 C2438 1.391 . S
H2440 C2448 0.950 . S
H2441 C2453 0.950 . S
H2442 C2450 0.950 . S
H2443 C2452 0.950 . S
H2444 C2454 0.950 . S
H2445 C2456 0.950 . S
H2446 C2458 0.950 . S
H2447 C2459 0.950 . S
C2448 H2440 0.950 . S
C2448 C2449 1.386 . S
C2448 C2450 1.391 . S
C2449 C2448 1.386 . S
C2449 C2453 1.393 . S
C2450 H2442 0.950 . S
C2450 C2448 1.391 . S
C2450 C2451 1.400 . S
C2451 C2450 1.400 . S
C2451 C2452 1.398 . S
C2451 C2457 1.491 . S
C2452 H2443 0.950 . S
C2452 C2451 1.398 . S
C2452 C2453 1.391 . S
C2453 H2441 0.950 . S
C2453 C2449 1.393 . S
C2453 C2452 1.391 . S
C2454 H2444 0.950 . S
C2454 C2455 1.386 . S
C2454 C2456 1.391 . S
C2455 C2454 1.386 . S
C2455 C2459 1.393 . S
C2456 H2445 0.950 . S
C2456 C2454 1.391 . S
C2456 C2457 1.400 . S
C2457 C2451 1.491 . S
C2457 C2456 1.400 . S
C2457 C2458 1.398 . S
C2458 H2446 0.950 . S
C2458 C2457 1.398 . S
C2458 C2459 1.391 . S
C2459 H2447 0.950 . S
C2459 C2455 1.393 . S
C2459 C2458 1.391 . S
H2460 C2468 0.950 . S
H2461 C2473 0.950 . S
H2462 C2470 0.950 . S
H2463 C2472 0.950 . S
H2464 C2474 0.950 . S
H2465 C2476 0.950 . S
H2466 C2478 0.950 . S
H2467 C2479 0.950 . S
C2468 H2460 0.950 . S
C2468 C2469 1.386 . S
C2468 C2470 1.391 . S
C2469 C2468 1.386 . S
C2469 C2473 1.393 . S
C2470 H2462 0.950 . S
C2470 C2468 1.391 . S
C2470 C2471 1.400 . S
C2471 C2470 1.400 . S
C2471 C2472 1.398 . S
C2471 C2477 1.491 . S
C2472 H2463 0.950 . S
C2472 C2471 1.398 . S
C2472 C2473 1.391 . S
C2473 H2461 0.950 . S
C2473 C2469 1.393 . S
C2473 C2472 1.391 . S
C2474 H2464 0.950 . S
C2474 C2475 1.386 . S
C2474 C2476 1.391 . S
C2475 C2474 1.386 . S
C2475 C2479 1.393 . S
C2476 H2465 0.950 . S
C2476 C2474 1.391 . S
C2476 C2477 1.400 . S
C2477 C2471 1.491 . S
C2477 C2476 1.400 . S
C2477 C2478 1.398 . S
C2478 H2466 0.950 . S
C2478 C2477 1.398 . S
C2478 C2479 1.391 . S
C2479 H2467 0.950 . S
C2479 C2475 1.393 . S
C2479 C2478 1.391 . S
H2480 C2488 0.950 . S
H2481 C2493 0.950 . S
H2482 C2490 0.950 . S
H2483 C2492 0.950 . S
H2484 C2494 0.950 . S
H2485 C2496 0.950 . S
H2486 C2498 0.950 . S
H2487 C2499 0.950 . S
C2488 H2480 0.950 . S
C2488 C2489 1.386 . S
C2488 C2490 1.391 . S
C2489 C2488 1.386 . S
C2489 C2493 1.393 . S
C2490 H2482 0.950 . S
C2490 C2488 1.391 . S
C2490 C2491 1.400 . S
C2491 C2490 1.400 . S
C2491 C2492 1.398 . S
C2491 C2497 1.491 . S
C2492 H2483 0.950 . S
C2492 C2491 1.398 . S
C2492 C2493 1.391 . S
C2493 H2481 0.950 . S
C2493 C2489 1.393 . S
C2493 C2492 1.391 . S
C2494 H2484 0.950 . S
C2494 C2495 1.386 . S
C2494 C2496 1.391 . S
C2495 C2494 1.386 . S
C2495 C2499 1.393 . S
C2496 H2485 0.950 . S
C2496 C2494 1.391 . S
C2496 C2497 1.400 . S
C2497 C2491 1.491 . S
C2497 C2496 1.400 . S
C2497 C2498 1.398 . S
C2498 H2486 0.950 . S
C2498 C2497 1.398 . S
C2498 C2499 1.391 . S
C2499 H2487 0.950 . S
C2499 C2495 1.393 . S
C2499 C2498 1.391 . S
H2500 C2508 0.950 . S
H2501 C2513 0.950 . S
H2502 C2510 0.950 . S
H2503 C2512 0.950 . S
H2504 C2514 0.950 . S
H2505 C2516 0.950 . S
H2506 C2518 0.950 . S
H2507 C2519 0.950 . S
C2508 H2500 0.950 . S
C2508 C2509 1.386 . S
C2508 C2510 1.391 . S
C2509 C2508 1.386 . S
C2509 C2513 1.393 . S
C2510 H2502 0.950 . S
C2510 C2508 1.391 . S
C2510 C2511 1.400 . S
C2511 C2510 1.400 . S
C2511 C2512 1.398 . S
C2511 C2517 1.491 . S
C2512 H2503 0.950 . S
C2512 C2511 1.398 . S
C2512 C2513 1.391 . S
C2513 H2501 0.950 . S
C2513 C2509 1.393 . S
C2513 C2512 1.391 . S
C2514 H2504 0.950 . S
C2514 C2515 1.386 . S
C2514 C2516 1.391 . S
C2515 C2514 1.386 . S
C2515 C2519 1.393 . S
C2516 H2505 0.950 . S
C2516 C2514 1.391 . S
C2516 C2517 1.400 . S
C2517 C2511 1.491 . S
C2517 C2516 1.400 . S
C2517 C2518 1.398 . S
C2518 H2506 0.950 . S
C2518 C2517 1.398 . S
C2518 C2519 1.391 . S
C2519 H2507 0.950 . S
C2519 C2515 1.393 . S
C2519 C2518 1.391 . S
H2520 C2528 0.950 . S
H2521 C2533 0.950 . S
H2522 C2530 0.950 . S
H2523 C2532 0.950 . S
H2524 C2534 0.950 . S
H2525 C2536 0.950 . S
H2526 C2538 0.950 . S
H2527 C2539 0.950 . S
C2528 H2520 0.950 . S
C2528 C2529 1.386 . S
C2528 C2530 1.391 . S
C2529 C2528 1.386 . S
C2529 C2533 1.393 . S
C2530 H2522 0.950 . S
C2530 C2528 1.391 . S
C2530 C2531 1.400 . S
C2531 C2530 1.400 . S
C2531 C2532 1.398 . S
C2531 C2537 1.491 . S
C2532 H2523 0.950 . S
C2532 C2531 1.398 . S
C2532 C2533 1.391 . S
C2533 H2521 0.950 . S
C2533 C2529 1.393 . S
C2533 C2532 1.391 . S
C2534 H2524 0.950 . S
C2534 C2535 1.386 . S
C2534 C2536 1.391 . S
C2535 C2534 1.386 . S
C2535 C2539 1.393 . S
C2536 H2525 0.950 . S
C2536 C2534 1.391 . S
C2536 C2537 1.400 . S
C2537 C2531 1.491 . S
C2537 C2536 1.400 . S
C2537 C2538 1.398 . S
C2538 H2526 0.950 . S
C2538 C2537 1.398 . S
C2538 C2539 1.391 . S
C2539 H2527 0.950 . S
C2539 C2535 1.393 . S
C2539 C2538 1.391 . S
H2540 C2548 0.950 . S
H2541 C2553 0.950 . S
H2542 C2550 0.950 . S
H2543 C2552 0.950 . S
H2544 C2554 0.950 . S
H2545 C2556 0.950 . S
H2546 C2558 0.950 . S
H2547 C2559 0.950 . S
C2548 H2540 0.950 . S
C2548 C2549 1.386 . S
C2548 C2550 1.391 . S
C2549 C2548 1.386 . S
C2549 C2553 1.393 . S
C2550 H2542 0.950 . S
C2550 C2548 1.391 . S
C2550 C2551 1.400 . S
C2551 C2550 1.400 . S
C2551 C2552 1.398 . S
C2551 C2557 1.491 . S
C2552 H2543 0.950 . S
C2552 C2551 1.398 . S
C2552 C2553 1.391 . S
C2553 H2541 0.950 . S
C2553 C2549 1.393 . S
C2553 C2552 1.391 . S
C2554 H2544 0.950 . S
C2554 C2555 1.386 . S
C2554 C2556 1.391 . S
C2555 C2554 1.386 . S
C2555 C2559 1.393 . S
C2556 H2545 0.950 . S
C2556 C2554 1.391 . S
C2556 C2557 1.400 . S
C2557 C2551 1.491 . S
C2557 C2556 1.400 . S
C2557 C2558 1.398 . S
C2558 H2546 0.950 . S
C2558 C2557 1.398 . S
C2558 C2559 1.391 . S
C2559 H2547 0.950 . S
C2559 C2555 1.393 . S
C2559 C2558 1.391 . S
H2560 C2568 0.950 . S
H2561 C2573 0.950 . S
H2562 C2570 0.950 . S
H2563 C2572 0.950 . S
H2564 C2574 0.950 . S
H2565 C2576 0.950 . S
H2566 C2578 0.950 . S
H2567 C2579 0.950 . S
C2568 H2560 0.950 . S
C2568 C2569 1.386 . S
C2568 C2570 1.391 . S
C2569 C2568 1.386 . S
C2569 C2573 1.393 . S
C2570 H2562 0.950 . S
C2570 C2568 1.391 . S
C2570 C2571 1.400 . S
C2571 C2570 1.400 . S
C2571 C2572 1.398 . S
C2571 C2577 1.491 . S
C2572 H2563 0.950 . S
C2572 C2571 1.398 . S
C2572 C2573 1.391 . S
C2573 H2561 0.950 . S
C2573 C2569 1.393 . S
C2573 C2572 1.391 . S
C2574 H2564 0.950 . S
C2574 C2575 1.386 . S
C2574 C2576 1.391 . S
C2575 C2574 1.386 . S
C2575 C2579 1.393 . S
C2576 H2565 0.950 . S
C2576 C2574 1.391 . S
C2576 C2577 1.400 . S
C2577 C2571 1.491 . S
C2577 C2576 1.400 . S
C2577 C2578 1.398 . S
C2578 H2566 0.950 . S
C2578 C2577 1.398 . S
C2578 C2579 1.391 . S
C2579 H2567 0.950 . S
C2579 C2575 1.393 . S
C2579 C2578 1.391 . S
H2580 C2588 0.950 . S
H2581 C2593 0.950 . S
H2582 C2590 0.950 . S
H2583 C2592 0.950 . S
H2584 C2594 0.950 . S
H2585 C2596 0.950 . S
H2586 C2598 0.950 . S
H2587 C2599 0.950 . S
C2588 H2580 0.950 . S
C2588 C2589 1.386 . S
C2588 C2590 1.391 . S
C2589 C2588 1.386 . S
C2589 C2593 1.393 . S
C2590 H2582 0.950 . S
C2590 C2588 1.391 . S
C2590 C2591 1.400 . S
C2591 C2590 1.400 . S
C2591 C2592 1.398 . S
C2591 C2597 1.491 . S
C2592 H2583 0.950 . S
C2592 C2591 1.398 . S
C2592 C2593 1.391 . S
C2593 H2581 0.950 . S
C2593 C2589 1.393 . S
C2593 C2592 1.391 . S
C2594 H2584 0.950 . S
C2594 C2595 1.386 . S
C2594 C2596 1.391 . S
C2595 C2594 1.386 . S
C2595 C2599 1.393 . S
C2596 H2585 0.950 . S
C2596 C2594 1.391 . S
C2596 C2597 1.400 . S
C2597 C2591 1.491 . S
C2597 C2596 1.400 . S
C2597 C2598 1.398 . S
C2598 H2586 0.950 . S
C2598 C2597 1.398 . S
C2598 C2599 1.391 . S
C2599 H2587 0.950 . S
C2599 C2595 1.393 . S
C2599 C2598 1.391 . S
H2600 C2608 0.950 1_554 S
H2601 C2613 0.950 . S
H2602 C2610 0.950 . S
H2603 C2612 0.950 . S
H2604 C2614 0.950 . S
H2605 C2616 0.950 . S
H2606 C2618 0.950 . S
H2607 C2619 0.950 . S
C2608 H2600 0.950 1_556 S
C2608 C2609 1.386 . S
C2608 C2610 1.391 . S
C2609 C2608 1.386 . S
C2609 C2613 1.393 . S
C2610 H2602 0.950 . S
C2610 C2608 1.391 . S
C2610 C2611 1.400 . S
C2611 C2610 1.400 . S
C2611 C2612 1.398 . S
C2611 C2617 1.491 . S
C2612 H2603 0.950 . S
C2612 C2611 1.398 . S
C2612 C2613 1.391 . S
C2613 H2601 0.950 . S
C2613 C2609 1.393 . S
C2613 C2612 1.391 . S
C2614 H2604 0.950 . S
C2614 C2615 1.386 . S
C2614 C2616 1.391 . S
C2615 C2614 1.386 . S
C2615 C2619 1.393 . S
C2616 H2605 0.950 . S
C2616 C2614 1.391 . S
C2616 C2617 1.400 . S
C2617 C2611 1.491 . S
C2617 C2616 1.400 . S
C2617 C2618 1.398 . S
C2618 H2606 0.950 . S
C2618 C2617 1.398 . S
C2618 C2619 1.391 . S
C2619 H2607 0.950 . S
C2619 C2615 1.393 . S
C2619 C2618 1.391 . S
H2620 C2628 0.950 . S
H2621 C2633 0.950 . S
H2622 C2630 0.950 . S
H2623 C2632 0.950 . S
H2624 C2634 0.950 1_554 S
H2625 C2636 0.950 . S
H2626 C2638 0.950 . S
H2627 C2639 0.950 . S
C2628 H2620 0.950 . S
C2628 C2629 1.386 . S
C2628 C2630 1.391 . S
C2629 C2628 1.386 . S
C2629 C2633 1.393 . S
C2630 H2622 0.950 . S
C2630 C2628 1.391 . S
C2630 C2631 1.400 . S
C2631 C2630 1.400 . S
C2631 C2632 1.398 . S
C2631 C2637 1.491 . S
C2632 H2623 0.950 . S
C2632 C2631 1.398 . S
C2632 C2633 1.391 . S
C2633 H2621 0.950 . S
C2633 C2629 1.393 . S
C2633 C2632 1.391 . S
C2634 H2624 0.950 1_556 S
C2634 C2635 1.386 . S
C2634 C2636 1.391 . S
C2635 C2634 1.386 . S
C2635 C2639 1.393 . S
C2636 H2625 0.950 . S
C2636 C2634 1.391 . S
C2636 C2637 1.400 . S
C2637 C2631 1.491 . S
C2637 C2636 1.400 . S
C2637 C2638 1.398 . S
C2638 H2626 0.950 . S
C2638 C2637 1.398 . S
C2638 C2639 1.391 . S
C2639 H2627 0.950 . S
C2639 C2635 1.393 . S
C2639 C2638 1.391 . S
H2640 C2648 0.950 . S
H2641 C2653 0.950 . S
H2642 C2650 0.950 . S
H2643 C2652 0.950 . S
H2644 C2654 0.950 . S
H2645 C2656 0.950 . S
H2646 C2658 0.950 . S
H2647 C2659 0.950 . S
C2648 H2640 0.950 . S
C2648 C2649 1.386 . S
C2648 C2650 1.391 . S
C2649 C2648 1.386 . S
C2649 C2653 1.393 . S
C2650 H2642 0.950 . S
C2650 C2648 1.391 . S
C2650 C2651 1.400 . S
C2651 C2650 1.400 . S
C2651 C2652 1.398 . S
C2651 C2657 1.491 . S
C2652 H2643 0.950 . S
C2652 C2651 1.398 . S
C2652 C2653 1.391 . S
C2653 H2641 0.950 . S
C2653 C2649 1.393 . S
C2653 C2652 1.391 . S
C2654 H2644 0.950 . S
C2654 C2655 1.386 . S
C2654 C2656 1.391 . S
C2655 C2654 1.386 . S
C2655 C2659 1.393 . S
C2656 H2645 0.950 . S
C2656 C2654 1.391 . S
C2656 C2657 1.400 . S
C2657 C2651 1.491 . S
C2657 C2656 1.400 . S
C2657 C2658 1.398 . S
C2658 H2646 0.950 . S
C2658 C2657 1.398 . S
C2658 C2659 1.391 . S
C2659 H2647 0.950 . S
C2659 C2655 1.393 . S
C2659 C2658 1.391 . S
H2660 C2668 0.950 . S
H2661 C2673 0.950 . S
H2662 C2670 0.950 . S
H2663 C2672 0.950 . S
H2664 C2674 0.950 . S
H2665 C2676 0.950 . S
H2666 C2678 0.950 . S
H2667 C2679 0.950 . S
C2668 H2660 0.950 . S
C2668 C2669 1.386 . S
C2668 C2670 1.391 . S
C2669 C2668 1.386 . S
C2669 C2673 1.393 . S
C2670 H2662 0.950 . S
C2670 C2668 1.391 . S
C2670 C2671 1.400 . S
C2671 C2670 1.400 . S
C2671 C2672 1.398 . S
C2671 C2677 1.491 . S
C2672 H2663 0.950 . S
C2672 C2671 1.398 . S
C2672 C2673 1.391 . S
C2673 H2661 0.950 . S
C2673 C2669 1.393 . S
C2673 C2672 1.391 . S
C2674 H2664 0.950 . S
C2674 C2675 1.386 . S
C2674 C2676 1.391 . S
C2675 C2674 1.386 . S
C2675 C2679 1.393 . S
C2676 H2665 0.950 . S
C2676 C2674 1.391 . S
C2676 C2677 1.400 . S
C2677 C2671 1.491 . S
C2677 C2676 1.400 . S
C2677 C2678 1.398 . S
C2678 H2666 0.950 . S
C2678 C2677 1.398 . S
C2678 C2679 1.391 . S
C2679 H2667 0.950 . S
C2679 C2675 1.393 . S
C2679 C2678 1.391 . S
H2680 C2688 0.950 . S
H2681 C2693 0.950 . S
H2682 C2690 0.950 . S
H2683 C2692 0.950 . S
H2684 C2694 0.950 . S
H2685 C2696 0.950 . S
H2686 C2698 0.950 . S
H2687 C2699 0.950 . S
C2688 H2680 0.950 . S
C2688 C2689 1.386 1_556 S
C2688 C2690 1.391 1_556 S
C2689 C2688 1.386 1_554 S
C2689 C2693 1.393 . S
C2690 H2682 0.950 . S
C2690 C2688 1.391 1_554 S
C2690 C2691 1.400 . S
C2691 C2690 1.400 . S
C2691 C2692 1.398 . S
C2691 C2697 1.491 . S
C2692 H2683 0.950 . S
C2692 C2691 1.398 . S
C2692 C2693 1.391 . S
C2693 H2681 0.950 . S
C2693 C2689 1.393 . S
C2693 C2692 1.391 . S
C2694 H2684 0.950 . S
C2694 C2695 1.386 . S
C2694 C2696 1.391 . S
C2695 C2694 1.386 . S
C2695 C2699 1.393 . S
C2696 H2685 0.950 . S
C2696 C2694 1.391 . S
C2696 C2697 1.400 . S
C2697 C2691 1.491 . S
C2697 C2696 1.400 . S
C2697 C2698 1.398 . S
C2698 H2686 0.950 . S
C2698 C2697 1.398 . S
C2698 C2699 1.391 . S
C2699 H2687 0.950 . S
C2699 C2695 1.393 . S
C2699 C2698 1.391 . S
H2700 C2708 0.950 1_556 S
H2701 C2713 0.950 . S
H2702 C2710 0.950 . S
H2703 C2712 0.950 . S
H2704 C2714 0.950 . S
H2705 C2716 0.950 . S
H2706 C2718 0.950 . S
H2707 C2719 0.950 . S
C2708 H2700 0.950 1_554 S
C2708 C2709 1.386 . S
C2708 C2710 1.391 . S
C2709 C2708 1.386 . S
C2709 C2713 1.393 . S
C2710 H2702 0.950 . S
C2710 C2708 1.391 . S
C2710 C2711 1.400 . S
C2711 C2710 1.400 . S
C2711 C2712 1.398 . S
C2711 C2717 1.491 . S
C2712 H2703 0.950 . S
C2712 C2711 1.398 . S
C2712 C2713 1.391 . S
C2713 H2701 0.950 . S
C2713 C2709 1.393 . S
C2713 C2712 1.391 . S
C2714 H2704 0.950 . S
C2714 C2715 1.386 . S
C2714 C2716 1.391 . S
C2715 C2714 1.386 . S
C2715 C2719 1.393 . S
C2716 H2705 0.950 . S
C2716 C2714 1.391 . S
C2716 C2717 1.400 . S
C2717 C2711 1.491 . S
C2717 C2716 1.400 . S
C2717 C2718 1.398 . S
C2718 H2706 0.950 . S
C2718 C2717 1.398 . S
C2718 C2719 1.391 . S
C2719 H2707 0.950 . S
C2719 C2715 1.393 . S
C2719 C2718 1.391 . S
H2720 C2728 0.950 . S
H2721 C2733 0.950 . S
H2722 C2730 0.950 . S
H2723 C2732 0.950 . S
H2724 C2734 0.950 . S
H2725 C2736 0.950 . S
H2726 C2738 0.950 . S
H2727 C2739 0.950 . S
C2728 H2720 0.950 . S
C2728 C2729 1.386 . S
C2728 C2730 1.391 . S
C2729 C2728 1.386 . S
C2729 C2733 1.393 . S
C2730 H2722 0.950 . S
C2730 C2728 1.391 . S
C2730 C2731 1.400 . S
C2731 C2730 1.400 . S
C2731 C2732 1.398 . S
C2731 C2737 1.491 . S
C2732 H2723 0.950 . S
C2732 C2731 1.398 . S
C2732 C2733 1.391 . S
C2733 H2721 0.950 . S
C2733 C2729 1.393 . S
C2733 C2732 1.391 . S
C2734 H2724 0.950 . S
C2734 C2735 1.386 . S
C2734 C2736 1.391 . S
C2735 C2734 1.386 . S
C2735 C2739 1.393 . S
C2736 H2725 0.950 . S
C2736 C2734 1.391 . S
C2736 C2737 1.400 . S
C2737 C2731 1.491 . S
C2737 C2736 1.400 . S
C2737 C2738 1.398 . S
C2738 H2726 0.950 . S
C2738 C2737 1.398 . S
C2738 C2739 1.391 . S
C2739 H2727 0.950 . S
C2739 C2735 1.393 . S
C2739 C2738 1.391 . S
H2740 C2748 0.950 . S
H2741 C2753 0.950 . S
H2742 C2750 0.950 . S
H2743 C2752 0.950 . S
H2744 C2754 0.950 . S
H2745 C2756 0.950 1_554 S
H2746 C2758 0.950 . S
H2747 C2759 0.950 . S
C2748 H2740 0.950 . S
C2748 C2749 1.386 . S
C2748 C2750 1.391 . S
C2749 C2748 1.386 . S
C2749 C2753 1.393 . S
C2750 H2742 0.950 . S
C2750 C2748 1.391 . S
C2750 C2751 1.400 . S
C2751 C2750 1.400 . S
C2751 C2752 1.398 . S
C2751 C2757 1.491 . S
C2752 H2743 0.950 . S
C2752 C2751 1.398 . S
C2752 C2753 1.391 . S
C2753 H2741 0.950 . S
C2753 C2749 1.393 . S
C2753 C2752 1.391 . S
C2754 H2744 0.950 . S
C2754 C2755 1.386 1_554 S
C2754 C2756 1.391 1_554 S
C2755 C2754 1.386 1_556 S
C2755 C2759 1.393 . S
C2756 H2745 0.950 1_556 S
C2756 C2754 1.391 1_556 S
C2756 C2757 1.400 . S
C2757 C2751 1.491 . S
C2757 C2756 1.400 . S
C2757 C2758 1.398 . S
C2758 H2746 0.950 . S
C2758 C2757 1.398 . S
C2758 C2759 1.391 . S
C2759 H2747 0.950 . S
C2759 C2755 1.393 . S
C2759 C2758 1.391 . S
H2760 C2768 0.950 . S
H2761 C2773 0.950 . S
H2762 C2770 0.950 . S
H2763 C2772 0.950 . S
H2764 C2774 0.950 . S
H2765 C2776 0.950 . S
H2766 C2778 0.950 . S
H2767 C2779 0.950 . S
C2768 H2760 0.950 . S
C2768 C2769 1.386 . S
C2768 C2770 1.391 . S
C2769 C2768 1.386 . S
C2769 C2773 1.393 . S
C2770 H2762 0.950 . S
C2770 C2768 1.391 . S
C2770 C2771 1.400 . S
C2771 C2770 1.400 . S
C2771 C2772 1.398 . S
C2771 C2777 1.491 . S
C2772 H2763 0.950 . S
C2772 C2771 1.398 . S
C2772 C2773 1.391 . S
C2773 H2761 0.950 . S
C2773 C2769 1.393 . S
C2773 C2772 1.391 . S
C2774 H2764 0.950 . S
C2774 C2775 1.386 . S
C2774 C2776 1.391 . S
C2775 C2774 1.386 . S
C2775 C2779 1.393 . S
C2776 H2765 0.950 . S
C2776 C2774 1.391 . S
C2776 C2777 1.400 . S
C2777 C2771 1.491 . S
C2777 C2776 1.400 . S
C2777 C2778 1.398 . S
C2778 H2766 0.950 . S
C2778 C2777 1.398 . S
C2778 C2779 1.391 . S
C2779 H2767 0.950 . S
C2779 C2775 1.393 . S
C2779 C2778 1.391 . S
H2780 C2788 0.950 . S
H2781 C2793 0.950 . S
H2782 C2790 0.950 . S
H2783 C2792 0.950 . S
H2784 C2794 0.950 . S
H2785 C2796 0.950 . S
H2786 C2798 0.950 . S
H2787 C2799 0.950 . S
C2788 H2780 0.950 . S
C2788 C2789 1.386 . S
C2788 C2790 1.391 . S
C2789 C2788 1.386 . S
C2789 C2793 1.393 . S
C2790 H2782 0.950 . S
C2790 C2788 1.391 . S
C2790 C2791 1.400 . S
C2791 C2790 1.400 . S
C2791 C2792 1.398 . S
C2791 C2797 1.491 . S
C2792 H2783 0.950 . S
C2792 C2791 1.398 . S
C2792 C2793 1.391 . S
C2793 H2781 0.950 . S
C2793 C2789 1.393 . S
C2793 C2792 1.391 . S
C2794 H2784 0.950 . S
C2794 C2795 1.386 . S
C2794 C2796 1.391 . S
C2795 C2794 1.386 . S
C2795 C2799 1.393 . S
C2796 H2785 0.950 . S
C2796 C2794 1.391 . S
C2796 C2797 1.400 . S
C2797 C2791 1.491 . S
C2797 C2796 1.400 . S
C2797 C2798 1.398 . S
C2798 H2786 0.950 . S
C2798 C2797 1.398 . S
C2798 C2799 1.391 . S
C2799 H2787 0.950 . S
C2799 C2795 1.393 . S
C2799 C2798 1.391 . S
H2800 C2808 0.950 . S
H2801 C2813 0.950 . S
H2802 C2810 0.950 . S
H2803 C2812 0.950 1_556 S
H2804 C2814 0.950 . S
H2805 C2816 0.950 . S
H2806 C2818 0.950 . S
H2807 C2819 0.950 . S
C2808 H2800 0.950 . S
C2808 C2809 1.386 . S
C2808 C2810 1.391 . S
C2809 C2808 1.386 . S
C2809 C2813 1.393 1_554 S
C2810 H2802 0.950 . S
C2810 C2808 1.391 . S
C2810 C2811 1.400 . S
C2811 C2810 1.400 . S
C2811 C2812 1.398 . S
C2811 C2817 1.491 . S
C2812 H2803 0.950 1_554 S
C2812 C2811 1.398 . S
C2812 C2813 1.391 1_554 S
C2813 H2801 0.950 . S
C2813 C2809 1.393 1_556 S
C2813 C2812 1.391 1_556 S
C2814 H2804 0.950 . S
C2814 C2815 1.386 . S
C2814 C2816 1.391 . S
C2815 C2814 1.386 . S
C2815 C2819 1.393 . S
C2816 H2805 0.950 . S
C2816 C2814 1.391 . S
C2816 C2817 1.400 . S
C2817 C2811 1.491 . S
C2817 C2816 1.400 . S
C2817 C2818 1.398 . S
C2818 H2806 0.950 . S
C2818 C2817 1.398 . S
C2818 C2819 1.391 . S
C2819 H2807 0.950 . S
C2819 C2815 1.393 . S
C2819 C2818 1.391 . S
H2820 C2828 0.950 . S
H2821 C2833 0.950 . S
H2822 C2830 0.950 . S
H2823 C2832 0.950 . S
H2824 C2834 0.950 . S
H2825 C2836 0.950 . S
H2826 C2838 0.950 . S
H2827 C2839 0.950 . S
C2828 H2820 0.950 . S
C2828 C2829 1.386 . S
C2828 C2830 1.391 . S
C2829 C2828 1.386 . S
C2829 C2833 1.393 . S
C2830 H2822 0.950 . S
C2830 C2828 1.391 . S
C2830 C2831 1.400 . S
C2831 C2830 1.400 . S
C2831 C2832 1.398 . S
C2831 C2837 1.491 . S
C2832 H2823 0.950 . S
C2832 C2831 1.398 . S
C2832 C2833 1.391 . S
C2833 H2821 0.950 . S
C2833 C2829 1.393 . S
C2833 C2832 1.391 . S
C2834 H2824 0.950 . S
C2834 C2835 1.386 . S
C2834 C2836 1.391 . S
C2835 C2834 1.386 . S
C2835 C2839 1.393 . S
C2836 H2825 0.950 . S
C2836 C2834 1.391 . S
C2836 C2837 1.400 . S
C2837 C2831 1.491 . S
C2837 C2836 1.400 . S
C2837 C2838 1.398 . S
C2838 H2826 0.950 . S
C2838 C2837 1.398 . S
C2838 C2839 1.391 . S
C2839 H2827 0.950 . S
C2839 C2835 1.393 . S
C2839 C2838 1.391 . S
H2840 C2848 0.950 . S
H2841 C2853 0.950 . S
H2842 C2850 0.950 . S
H2843 C2852 0.950 . S
H2844 C2854 0.950 . S
H2845 C2856 0.950 . S
H2846 C2858 0.950 . S
H2847 C2859 0.950 . S
C2848 H2840 0.950 . S
C2848 C2849 1.386 . S
C2848 C2850 1.391 . S
C2849 C2848 1.386 . S
C2849 C2853 1.393 . S
C2850 H2842 0.950 . S
C2850 C2848 1.391 . S
C2850 C2851 1.400 . S
C2851 C2850 1.400 . S
C2851 C2852 1.398 . S
C2851 C2857 1.491 . S
C2852 H2843 0.950 . S
C2852 C2851 1.398 . S
C2852 C2853 1.391 . S
C2853 H2841 0.950 . S
C2853 C2849 1.393 . S
C2853 C2852 1.391 . S
C2854 H2844 0.950 . S
C2854 C2855 1.386 . S
C2854 C2856 1.391 . S
C2855 C2854 1.386 . S
C2855 C2859 1.393 . S
C2856 H2845 0.950 . S
C2856 C2854 1.391 . S
C2856 C2857 1.400 . S
C2857 C2851 1.491 . S
C2857 C2856 1.400 . S
C2857 C2858 1.398 . S
C2858 H2846 0.950 . S
C2858 C2857 1.398 . S
C2858 C2859 1.391 . S
C2859 H2847 0.950 . S
C2859 C2855 1.393 . S
C2859 C2858 1.391 . S
H2860 C2868 0.950 . S
H2861 C2873 0.950 . S
H2862 C2870 0.950 . S
H2863 C2872 0.950 . S
H2864 C2874 0.950 . S
H2865 C2876 0.950 . S
H2866 C2878 0.950 . S
H2867 C2879 0.950 . S
C2868 H2860 0.950 . S
C2868 C2869 1.386 . S
C2868 C2870 1.391 . S
C2869 C2868 1.386 . S
C2869 C2873 1.393 . S
C2870 H2862 0.950 . S
C2870 C2868 1.391 . S
C2870 C2871 1.400 . S
C2871 C2870 1.400 . S
C2871 C2872 1.398 . S
C2871 C2877 1.491 . S
C2872 H2863 0.950 . S
C2872 C2871 1.398 . S
C2872 C2873 1.391 . S
C2873 H2861 0.950 . S
C2873 C2869 1.393 . S
C2873 C2872 1.391 . S
C2874 H2864 0.950 . S
C2874 C2875 1.386 . S
C2874 C2876 1.391 . S
C2875 C2874 1.386 . S
C2875 C2879 1.393 . S
C2876 H2865 0.950 . S
C2876 C2874 1.391 . S
C2876 C2877 1.400 . S
C2877 C2871 1.491 . S
C2877 C2876 1.400 . S
C2877 C2878 1.398 . S
C2878 H2866 0.950 . S
C2878 C2877 1.398 . S
C2878 C2879 1.391 . S
C2879 H2867 0.950 . S
C2879 C2875 1.393 . S
C2879 C2878 1.391 . S
H2880 C2888 0.950 . S
H2881 C2893 0.950 . S
H2882 C2890 0.950 . S
H2883 C2892 0.950 . S
H2884 C2894 0.950 . S
H2885 C2896 0.950 . S
H2886 C2898 0.950 . S
H2887 C2899 0.950 1_556 S
C2888 H2880 0.950 . S
C2888 C2889 1.386 . S
C2888 C2890 1.391 . S
C2889 C2888 1.386 . S
C2889 C2893 1.393 . S
C2890 H2882 0.950 . S
C2890 C2888 1.391 . S
C2890 C2891 1.400 . S
C2891 C2890 1.400 . S
C2891 C2892 1.398 . S
C2891 C2897 1.491 . S
C2892 H2883 0.950 . S
C2892 C2891 1.398 . S
C2892 C2893 1.391 . S
C2893 H2881 0.950 . S
C2893 C2889 1.393 . S
C2893 C2892 1.391 . S
C2894 H2884 0.950 . S
C2894 C2895 1.386 . S
C2894 C2896 1.391 . S
C2895 C2894 1.386 . S
C2895 C2899 1.393 . S
C2896 H2885 0.950 . S
C2896 C2894 1.391 . S
C2896 C2897 1.400 . S
C2897 C2891 1.491 . S
C2897 C2896 1.400 . S
C2897 C2898 1.398 . S
C2898 H2886 0.950 . S
C2898 C2897 1.398 . S
C2898 C2899 1.391 . S
C2899 H2887 0.950 1_554 S
C2899 C2895 1.393 . S
C2899 C2898 1.391 . S
H2900 C2908 0.950 1_556 S
H2901 C2913 0.950 . S
H2902 C2910 0.950 1_556 S
H2903 C2912 0.950 . S
H2904 C2914 0.950 . S
H2905 C2916 0.950 . S
H2906 C2918 0.950 . S
H2907 C2919 0.950 . S
C2908 H2900 0.950 1_554 S
C2908 C2909 1.386 . S
C2908 C2910 1.391 . S
C2909 C2908 1.386 . S
C2909 C2913 1.393 . S
C2910 H2902 0.950 1_554 S
C2910 C2908 1.391 . S
C2910 C2911 1.400 . S
C2911 C2910 1.400 . S
C2911 C2912 1.398 . S
C2911 C2917 1.491 . S
C2912 H2903 0.950 . S
C2912 C2911 1.398 . S
C2912 C2913 1.391 . S
C2913 H2901 0.950 . S
C2913 C2909 1.393 . S
C2913 C2912 1.391 . S
C2914 H2904 0.950 . S
C2914 C2915 1.386 . S
C2914 C2916 1.391 . S
C2915 C2914 1.386 . S
C2915 C2919 1.393 . S
C2916 H2905 0.950 . S
C2916 C2914 1.391 . S
C2916 C2917 1.400 . S
C2917 C2911 1.491 . S
C2917 C2916 1.400 . S
C2917 C2918 1.398 . S
C2918 H2906 0.950 . S
C2918 C2917 1.398 . S
C2918 C2919 1.391 . S
C2919 H2907 0.950 . S
C2919 C2915 1.393 . S
C2919 C2918 1.391 . S
H2920 C2928 0.950 . S
H2921 C2933 0.950 1_554 S
H2922 C2930 0.950 . S
H2923 C2932 0.950 . S
H2924 C2934 0.950 . S
H2925 C2936 0.950 . S
H2926 C2938 0.950 . S
H2927 C2939 0.950 . S
C2928 H2920 0.950 . S
C2928 C2929 1.386 . S
C2928 C2930 1.391 . S
C2929 C2928 1.386 . S
C2929 C2933 1.393 . S
C2930 H2922 0.950 . S
C2930 C2928 1.391 . S
C2930 C2931 1.400 . S
C2931 C2930 1.400 . S
C2931 C2932 1.398 . S
C2931 C2937 1.491 . S
C2932 H2923 0.950 . S
C2932 C2931 1.398 . S
C2932 C2933 1.391 . S
C2933 H2921 0.950 1_556 S
C2933 C2929 1.393 . S
C2933 C2932 1.391 . S
C2934 H2924 0.950 . S
C2934 C2935 1.386 . S
C2934 C2936 1.391 . S
C2935 C2934 1.386 . S
C2935 C2939 1.393 . S
C2936 H2925 0.950 . S
C2936 C2934 1.391 . S
C2936 C2937 1.400 . S
C2937 C2931 1.491 . S
C2937 C2936 1.400 . S
C2937 C2938 1.398 . S
C2938 H2926 0.950 . S
C2938 C2937 1.398 . S
C2938 C2939 1.391 . S
C2939 H2927 0.950 . S
C2939 C2935 1.393 . S
C2939 C2938 1.391 . S
H2940 C2948 0.950 . S
H2941 C2953 0.950 . S
H2942 C2950 0.950 . S
H2943 C2952 0.950 . S
H2944 C2954 0.950 . S
H2945 C2956 0.950 . S
H2946 C2958 0.950 . S
H2947 C2959 0.950 . S
C2948 H2940 0.950 . S
C2948 C2949 1.386 . S
C2948 C2950 1.391 . S
C2949 C2948 1.386 . S
C2949 C2953 1.393 . S
C2950 H2942 0.950 . S
C2950 C2948 1.391 . S
C2950 C2951 1.400 . S
C2951 C2950 1.400 . S
C2951 C2952 1.398 . S
C2951 C2957 1.491 . S
C2952 H2943 0.950 . S
C2952 C2951 1.398 . S
C2952 C2953 1.391 . S
C2953 H2941 0.950 . S
C2953 C2949 1.393 . S
C2953 C2952 1.391 . S
C2954 H2944 0.950 . S
C2954 C2955 1.386 . S
C2954 C2956 1.391 . S
C2955 C2954 1.386 . S
C2955 C2959 1.393 . S
C2956 H2945 0.950 . S
C2956 C2954 1.391 . S
C2956 C2957 1.400 . S
C2957 C2951 1.491 . S
C2957 C2956 1.400 . S
C2957 C2958 1.398 . S
C2958 H2946 0.950 . S
C2958 C2957 1.398 . S
C2958 C2959 1.391 . S
C2959 H2947 0.950 . S
C2959 C2955 1.393 . S
C2959 C2958 1.391 . S
H2960 C2968 0.950 . S
H2961 C2973 0.950 . S
H2962 C2970 0.950 . S
H2963 C2972 0.950 . S
H2964 C2974 0.950 . S
H2965 C2976 0.950 . S
H2966 C2978 0.950 . S
H2967 C2979 0.950 . S
C2968 H2960 0.950 . S
C2968 C2969 1.386 . S
C2968 C2970 1.391 . S
C2969 C2968 1.386 . S
C2969 C2973 1.393 . S
C2970 H2962 0.950 . S
C2970 C2968 1.391 . S
C2970 C2971 1.400 . S
C2971 C2970 1.400 . S
C2971 C2972 1.398 . S
C2971 C2977 1.491 . S
C2972 H2963 0.950 . S
C2972 C2971 1.398 . S
C2972 C2973 1.391 . S
C2973 H2961 0.950 . S
C2973 C2969 1.393 . S
C2973 C2972 1.391 . S
C2974 H2964 0.950 . S
C2974 C2975 1.386 . S
C2974 C2976 1.391 . S
C2975 C2974 1.386 . S
C2975 C2979 1.393 . S
C2976 H2965 0.950 . S
C2976 C2974 1.391 . S
C2976 C2977 1.400 . S
C2977 C2971 1.491 . S
C2977 C2976 1.400 . S
C2977 C2978 1.398 . S
C2978 H2966 0.950 . S
C2978 C2977 1.398 . S
C2978 C2979 1.391 . S
C2979 H2967 0.950 . S
C2979 C2975 1.393 . S
C2979 C2978 1.391 . S
H2980 C2988 0.950 . S
H2981 C2993 0.950 . S
H2982 C2990 0.950 . S
H2983 C2992 0.950 . S
H2984 C2994 0.950 . S
H2985 C2996 0.950 . S
H2986 C2998 0.950 . S
H2987 C2999 0.950 . S
C2988 H2980 0.950 . S
C2988 C2989 1.386 . S
C2988 C2990 1.391 . S
C2989 C2988 1.386 . S
C2989 C2993 1.393 . S
C2990 H2982 0.950 . S
C2990 C2988 1.391 . S
C2990 C2991 1.400 . S
C2991 C2990 1.400 . S
C2991 C2992 1.398 . S
C2991 C2997 1.491 . S
C2992 H2983 0.950 . S
C2992 C2991 1.398 . S
C2992 C2993 1.391 . S
C2993 H2981 0.950 . S
C2993 C2989 1.393 . S
C2993 C2992 1.391 . S
C2994 H2984 0.950 . S
C2994 C2995 1.386 . S
C2994 C2996 1.391 . S
C2995 C2994 1.386 . S
C2995 C2999 1.393 . S
C2996 H2985 0.950 . S
C2996 C2994 1.391 . S
C2996 C2997 1.400 . S
C2997 C2991 1.491 . S
C2997 C2996 1.400 . S
C2997 C2998 1.398 . S
C2998 H2986 0.950 . S
C2998 C2997 1.398 . S
C2998 C2999 1.391 . S
C2999 H2987 0.950 . S
C2999 C2995 1.393 . S
C2999 C2998 1.391 . S
H3000 C3008 0.950 . S
H3001 C3013 0.950 . S
H3002 C3010 0.950 . S
H3003 C3012 0.950 . S
H3004 C3014 0.950 . S
H3005 C3016 0.950 . S
H3006 C3018 0.950 . S
H3007 C3019 0.950 . S
C3008 H3000 0.950 . S
C3008 C3009 1.386 . S
C3008 C3010 1.391 . S
C3009 C3008 1.386 . S
C3009 C3013 1.393 . S
C3010 H3002 0.950 . S
C3010 C3008 1.391 . S
C3010 C3011 1.400 . S
C3011 C3010 1.400 . S
C3011 C3012 1.398 . S
C3011 C3017 1.491 . S
C3012 H3003 0.950 . S
C3012 C3011 1.398 . S
C3012 C3013 1.391 . S
C3013 H3001 0.950 . S
C3013 C3009 1.393 . S
C3013 C3012 1.391 . S
C3014 H3004 0.950 . S
C3014 C3015 1.386 . S
C3014 C3016 1.391 . S
C3015 C3014 1.386 . S
C3015 C3019 1.393 . S
C3016 H3005 0.950 . S
C3016 C3014 1.391 . S
C3016 C3017 1.400 . S
C3017 C3011 1.491 . S
C3017 C3016 1.400 . S
C3017 C3018 1.398 . S
C3018 H3006 0.950 . S
C3018 C3017 1.398 . S
C3018 C3019 1.391 . S
C3019 H3007 0.950 . S
C3019 C3015 1.393 . S
C3019 C3018 1.391 . S
H3020 C3028 0.950 . S
H3021 C3033 0.950 . S
H3022 C3030 0.950 . S
H3023 C3032 0.950 . S
H3024 C3034 0.950 . S
H3025 C3036 0.950 . S
H3026 C3038 0.950 . S
H3027 C3039 0.950 . S
C3028 H3020 0.950 . S
C3028 C3029 1.386 . S
C3028 C3030 1.391 . S
C3029 C3028 1.386 . S
C3029 C3033 1.393 . S
C3030 H3022 0.950 . S
C3030 C3028 1.391 . S
C3030 C3031 1.400 . S
C3031 C3030 1.400 . S
C3031 C3032 1.398 . S
C3031 C3037 1.491 . S
C3032 H3023 0.950 . S
C3032 C3031 1.398 . S
C3032 C3033 1.391 . S
C3033 H3021 0.950 . S
C3033 C3029 1.393 . S
C3033 C3032 1.391 . S
C3034 H3024 0.950 . S
C3034 C3035 1.386 . S
C3034 C3036 1.391 . S
C3035 C3034 1.386 . S
C3035 C3039 1.393 . S
C3036 H3025 0.950 . S
C3036 C3034 1.391 . S
C3036 C3037 1.400 . S
C3037 C3031 1.491 . S
C3037 C3036 1.400 . S
C3037 C3038 1.398 . S
C3038 H3026 0.950 . S
C3038 C3037 1.398 . S
C3038 C3039 1.391 . S
C3039 H3027 0.950 . S
C3039 C3035 1.393 . S
C3039 C3038 1.391 . S
H3040 C3048 0.950 . S
H3041 C3053 0.950 . S
H3042 C3050 0.950 . S
H3043 C3052 0.950 . S
H3044 C3054 0.950 . S
H3045 C3056 0.950 . S
H3046 C3058 0.950 . S
H3047 C3059 0.950 . S
C3048 H3040 0.950 . S
C3048 C3049 1.386 . S
C3048 C3050 1.391 . S
C3049 C3048 1.386 . S
C3049 C3053 1.393 . S
C3050 H3042 0.950 . S
C3050 C3048 1.391 . S
C3050 C3051 1.400 . S
C3051 C3050 1.400 . S
C3051 C3052 1.398 . S
C3051 C3057 1.491 . S
C3052 H3043 0.950 . S
C3052 C3051 1.398 . S
C3052 C3053 1.391 . S
C3053 H3041 0.950 . S
C3053 C3049 1.393 . S
C3053 C3052 1.391 . S
C3054 H3044 0.950 . S
C3054 C3055 1.386 . S
C3054 C3056 1.391 . S
C3055 C3054 1.386 . S
C3055 C3059 1.393 . S
C3056 H3045 0.950 . S
C3056 C3054 1.391 . S
C3056 C3057 1.400 . S
C3057 C3051 1.491 . S
C3057 C3056 1.400 . S
C3057 C3058 1.398 . S
C3058 H3046 0.950 . S
C3058 C3057 1.398 . S
C3058 C3059 1.391 . S
C3059 H3047 0.950 . S
C3059 C3055 1.393 . S
C3059 C3058 1.391 . S
H3060 C3068 0.950 . S
H3061 C3073 0.950 . S
H3062 C3070 0.950 . S
H3063 C3072 0.950 . S
H3064 C3074 0.950 . S
H3065 C3076 0.950 . S
H3066 C3078 0.950 . S
H3067 C3079 0.950 . S
C3068 H3060 0.950 . S
C3068 C3069 1.386 . S
C3068 C3070 1.391 . S
C3069 C3068 1.386 . S
C3069 C3073 1.393 . S
C3070 H3062 0.950 . S
C3070 C3068 1.391 . S
C3070 C3071 1.400 . S
C3071 C3070 1.400 . S
C3071 C3072 1.398 . S
C3071 C3077 1.491 . S
C3072 H3063 0.950 . S
C3072 C3071 1.398 . S
C3072 C3073 1.391 . S
C3073 H3061 0.950 . S
C3073 C3069 1.393 . S
C3073 C3072 1.391 . S
C3074 H3064 0.950 . S
C3074 C3075 1.386 . S
C3074 C3076 1.391 . S
C3075 C3074 1.386 . S
C3075 C3079 1.393 . S
C3076 H3065 0.950 . S
C3076 C3074 1.391 . S
C3076 C3077 1.400 . S
C3077 C3071 1.491 . S
C3077 C3076 1.400 . S
C3077 C3078 1.398 . S
C3078 H3066 0.950 . S
C3078 C3077 1.398 . S
C3078 C3079 1.391 . S
C3079 H3067 0.950 . S
C3079 C3075 1.393 . S
C3079 C3078 1.391 . S
H3080 C3088 0.950 . S
H3081 C3093 0.950 . S
H3082 C3090 0.950 . S
H3083 C3092 0.950 . S
H3084 C3094 0.950 . S
H3085 C3096 0.950 . S
H3086 C3098 0.950 . S
H3087 C3099 0.950 . S
C3088 H3080 0.950 . S
C3088 C3089 1.386 . S
C3088 C3090 1.391 . S
C3089 C3088 1.386 . S
C3089 C3093 1.393 . S
C3090 H3082 0.950 . S
C3090 C3088 1.391 . S
C3090 C3091 1.400 . S
C3091 C3090 1.400 . S
C3091 C3092 1.398 . S
C3091 C3097 1.491 . S
C3092 H3083 0.950 . S
C3092 C3091 1.398 . S
C3092 C3093 1.391 . S
C3093 H3081 0.950 . S
C3093 C3089 1.393 . S
C3093 C3092 1.391 . S
C3094 H3084 0.950 . S
C3094 C3095 1.386 . S
C3094 C3096 1.391 . S
C3095 C3094 1.386 . S
C3095 C3099 1.393 . S
C3096 H3085 0.950 . S
C3096 C3094 1.391 . S
C3096 C3097 1.400 . S
C3097 C3091 1.491 . S
C3097 C3096 1.400 . S
C3097 C3098 1.398 . S
C3098 H3086 0.950 . S
C3098 C3097 1.398 . S
C3098 C3099 1.391 . S
C3099 H3087 0.950 . S
C3099 C3095 1.393 . S
C3099 C3098 1.391 . S
H3100 C3108 0.950 . S
H3101 C3113 0.950 . S
H3102 C3110 0.950 . S
H3103 C3112 0.950 . S
H3104 C3114 0.950 . S
H3105 C3116 0.950 . S
H3106 C3118 0.950 . S
H3107 C3119 0.950 . S
C3108 H3100 0.950 . S
C3108 C3109 1.386 . S
C3108 C3110 1.391 . S
C3109 C3108 1.386 . S
C3109 C3113 1.393 . S
C3110 H3102 0.950 . S
C3110 C3108 1.391 . S
C3110 C3111 1.400 . S
C3111 C3110 1.400 . S
C3111 C3112 1.398 . S
C3111 C3117 1.491 . S
C3112 H3103 0.950 . S
C3112 C3111 1.398 . S
C3112 C3113 1.391 . S
C3113 H3101 0.950 . S
C3113 C3109 1.393 . S
C3113 C3112 1.391 . S
C3114 H3104 0.950 . S
C3114 C3115 1.386 . S
C3114 C3116 1.391 . S
C3115 C3114 1.386 . S
C3115 C3119 1.393 . S
C3116 H3105 0.950 . S
C3116 C3114 1.391 . S
C3116 C3117 1.400 . S
C3117 C3111 1.491 . S
C3117 C3116 1.400 . S
C3117 C3118 1.398 . S
C3118 H3106 0.950 . S
C3118 C3117 1.398 . S
C3118 C3119 1.391 . S
C3119 H3107 0.950 . S
C3119 C3115 1.393 . S
C3119 C3118 1.391 . S
H3120 C3128 0.950 . S
H3121 C3133 0.950 . S
H3122 C3130 0.950 . S
H3123 C3132 0.950 . S
H3124 C3134 0.950 . S
H3125 C3136 0.950 . S
H3126 C3138 0.950 . S
H3127 C3139 0.950 . S
C3128 H3120 0.950 . S
C3128 C3129 1.386 . S
C3128 C3130 1.391 . S
C3129 C3128 1.386 . S
C3129 C3133 1.393 . S
C3130 H3122 0.950 . S
C3130 C3128 1.391 . S
C3130 C3131 1.400 . S
C3131 C3130 1.400 . S
C3131 C3132 1.398 . S
C3131 C3137 1.491 . S
C3132 H3123 0.950 . S
C3132 C3131 1.398 . S
C3132 C3133 1.391 . S
C3133 H3121 0.950 . S
C3133 C3129 1.393 . S
C3133 C3132 1.391 . S
C3134 H3124 0.950 . S
C3134 C3135 1.386 . S
C3134 C3136 1.391 . S
C3135 C3134 1.386 . S
C3135 C3139 1.393 . S
C3136 H3125 0.950 . S
C3136 C3134 1.391 . S
C3136 C3137 1.400 . S
C3137 C3131 1.491 . S
C3137 C3136 1.400 . S
C3137 C3138 1.398 . S
C3138 H3126 0.950 . S
C3138 C3137 1.398 . S
C3138 C3139 1.391 . S
C3139 H3127 0.950 . S
C3139 C3135 1.393 . S
C3139 C3138 1.391 . S
H3140 C3148 0.950 . S
H3141 C3153 0.950 . S
H3142 C3150 0.950 . S
H3143 C3152 0.950 . S
H3144 C3154 0.950 . S
H3145 C3156 0.950 . S
H3146 C3158 0.950 . S
H3147 C3159 0.950 . S
C3148 H3140 0.950 . S
C3148 C3149 1.386 . S
C3148 C3150 1.391 . S
C3149 C3148 1.386 . S
C3149 C3153 1.393 . S
C3150 H3142 0.950 . S
C3150 C3148 1.391 . S
C3150 C3151 1.400 . S
C3151 C3150 1.400 . S
C3151 C3152 1.398 . S
C3151 C3157 1.491 . S
C3152 H3143 0.950 . S
C3152 C3151 1.398 . S
C3152 C3153 1.391 . S
C3153 H3141 0.950 . S
C3153 C3149 1.393 . S
C3153 C3152 1.391 . S
C3154 H3144 0.950 . S
C3154 C3155 1.386 . S
C3154 C3156 1.391 . S
C3155 C3154 1.386 . S
C3155 C3159 1.393 . S
C3156 H3145 0.950 . S
C3156 C3154 1.391 . S
C3156 C3157 1.400 . S
C3157 C3151 1.491 . S
C3157 C3156 1.400 . S
C3157 C3158 1.398 . S
C3158 H3146 0.950 . S
C3158 C3157 1.398 . S
C3158 C3159 1.391 . S
C3159 H3147 0.950 . S
C3159 C3155 1.393 . S
C3159 C3158 1.391 . S
H3160 C3168 0.950 . S
H3161 C3173 0.950 . S
H3162 C3170 0.950 . S
H3163 C3172 0.950 . S
H3164 C3174 0.950 . S
H3165 C3176 0.950 . S
H3166 C3178 0.950 . S
H3167 C3179 0.950 . S
C3168 H3160 0.950 . S
C3168 C3169 1.386 . S
C3168 C3170 1.391 . S
C3169 C3168 1.386 . S
C3169 C3173 1.393 . S
C3170 H3162 0.950 . S
C3170 C3168 1.391 . S
C3170 C3171 1.400 . S
C3171 C3170 1.400 . S
C3171 C3172 1.398 . S
C3171 C3177 1.491 . S
C3172 H3163 0.950 . S
C3172 C3171 1.398 . S
C3172 C3173 1.391 . S
C3173 H3161 0.950 . S
C3173 C3169 1.393 . S
C3173 C3172 1.391 . S
C3174 H3164 0.950 . S
C3174 C3175 1.386 . S
C3174 C3176 1.391 . S
C3175 C3174 1.386 . S
C3175 C3179 1.393 . S
C3176 H3165 0.950 . S
C3176 C3174 1.391 . S
C3176 C3177 1.400 . S
C3177 C3171 1.491 . S
C3177 C3176 1.400 . S
C3177 C3178 1.398 . S
C3178 H3166 0.950 . S
C3178 C3177 1.398 . S
C3178 C3179 1.391 . S
C3179 H3167 0.950 . S
C3179 C3175 1.393 . S
C3179 C3178 1.391 . S
H3180 C3188 0.950 . S
H3181 C3193 0.950 . S
H3182 C3190 0.950 . S
H3183 C3192 0.950 . S
H3184 C3194 0.950 . S
H3185 C3196 0.950 . S
H3186 C3198 0.950 . S
H3187 C3199 0.950 . S
C3188 H3180 0.950 . S
C3188 C3189 1.386 . S
C3188 C3190 1.391 . S
C3189 C3188 1.386 . S
C3189 C3193 1.393 . S
C3190 H3182 0.950 . S
C3190 C3188 1.391 . S
C3190 C3191 1.400 . S
C3191 C3190 1.400 . S
C3191 C3192 1.398 . S
C3191 C3197 1.491 . S
C3192 H3183 0.950 . S
C3192 C3191 1.398 . S
C3192 C3193 1.391 . S
C3193 H3181 0.950 . S
C3193 C3189 1.393 . S
C3193 C3192 1.391 . S
C3194 H3184 0.950 . S
C3194 C3195 1.386 . S
C3194 C3196 1.391 . S
C3195 C3194 1.386 . S
C3195 C3199 1.393 . S
C3196 H3185 0.950 . S
C3196 C3194 1.391 . S
C3196 C3197 1.400 . S
C3197 C3191 1.491 . S
C3197 C3196 1.400 . S
C3197 C3198 1.398 . S
C3198 H3186 0.950 . S
C3198 C3197 1.398 . S
C3198 C3199 1.391 . S
C3199 H3187 0.950 . S
C3199 C3195 1.393 . S
C3199 C3198 1.391 . S
C1289 C1135 1.813 1_554 S
C1295 C6 1.813 1_556 S
C1309 C215 1.803 1_554 S
C1315 C46 1.803 1_556 S
C1329 C895 1.794 . S
C1335 C86 1.794 . S
C1349 C615 1.812 . S
C1355 C126 1.812 . S
C1369 C175 1.813 1_554 S
C1375 C966 1.813 1_556 S
C1389 C726 1.796 . S
C1395 C255 1.796 . S
C1409 C446 1.792 . S
C1415 C295 1.792 . S
C1429 C815 1.795 . S
C1435 C326 1.795 . S
C1449 C366 1.792 . S
C1455 C535 1.792 . S
C1469 C406 1.799 . S
C1475 C1215 1.799 . S
C1489 C646 1.808 . S
C1495 C495 1.808 . S
C1509 C575 1.802 . S
C1515 C1046 1.802 . S
C1529 C686 1.810 . S
C1535 C855 1.810 . S
C1549 C766 1.806 . S
C1555 C1255 1.806 . S
C1569 C1086 1.795 . S
C1575 C935 1.795 . S
C1589 C1175 1.798 1_554 S
C1595 C1006 1.798 1_556 S
C1609 C775 2.143 . S
C1615 C15 2.144 . S
C1629 C735 2.144 . S
C1635 C55 2.145 . S
C1649 C695 2.144 . S
C1655 C95 2.145 . S
C1669 C655 2.151 . S
C1675 C135 2.150 . S
C1689 C926 2.146 . S
C1695 C166 2.145 . S
C1709 C206 2.139 . S
C1715 C886 2.139 . S
C1729 C246 2.162 . S
C1735 C846 2.162 . S
C1749 C286 2.158 . S
C1755 C806 2.158 . S
C1769 C335 2.154 . S
C1775 C1095 2.153 . S
C1789 C375 2.146 . S
C1795 C1055 2.147 . S
C1809 C415 2.161 . S
C1815 C1015 2.160 . S
C1829 C975 2.159 . S
C1835 C455 2.159 . S
C1849 C486 2.163 . S
C1855 C1246 2.163 . S
C1869 C526 2.163 . S
C1875 C1206 2.162 . S
C1889 C566 2.160 . S
C1895 C1166 2.161 . S
C1909 C1126 2.143 . S
C1915 C606 2.142 . S
C1929 C19 2.421 . S
C1935 C10 2.421 1_556 S
C1949 C59 2.421 . S
C1955 C50 2.421 1_556 S
C1969 C90 2.412 . S
C1975 C99 2.409 1_565 S
C1989 C130 2.413 . S
C1995 C139 2.413 . S
C2009 C179 2.417 1_554 S
C2015 C170 2.417 . S
C2029 C219 2.421 1_554 S
C2035 C210 2.420 1_545 S
C2049 C259 2.418 . S
C2055 C250 2.420 . S
C2069 C290 2.409 . S
C2075 C299 2.409 . S
C2089 C339 2.418 1_554 S
C2095 C330 2.418 . S
C2109 C370 2.415 . S
C2115 C379 2.415 1_554 S
C2129 C410 2.413 . S
C2135 C419 2.413 . S
C2149 C450 2.412 . S
C2155 C459 2.412 . S
C2169 C499 2.419 . S
C2175 C490 2.419 1_556 S
C2189 C530 2.409 1_556 S
C2195 C539 2.409 . S
C2209 C579 2.416 . S
C2215 C570 2.416 . S
C2229 C610 2.413 . S
C2235 C619 2.413 . S
C2249 C659 2.420 1_554 S
C2255 C650 2.420 . S
C2269 C690 2.410 . S
C2275 C699 2.412 1_554 S
C2289 C730 2.417 . S
C2295 C739 2.413 1_565 S
C2309 C770 2.415 . S
C2315 C779 2.415 . S
C2329 C810 2.419 1_556 S
C2335 C819 2.419 . S
C2349 C859 2.421 . S
C2355 C850 2.421 1_556 S
C2369 C890 2.409 . S
C2375 C899 2.409 . S
C2389 C930 2.412 . S
C2395 C939 2.412 . S
C2409 C979 2.410 . S
C2415 C970 2.410 1_556 S
C2429 C1010 2.419 1_556 S
C2435 C1019 2.419 . S
C2449 C1050 2.419 . S
C2455 C1059 2.419 . S
C2469 C1099 2.421 . S
C2475 C1090 2.421 . S
C2489 C1139 2.414 1_554 S
C2495 C1130 2.414 . S
C2509 C1170 2.409 . S
C2515 C1179 2.409 1_554 S
C2529 C1210 2.416 . S
C2535 C1219 2.416 . S
C2549 C1250 2.416 . S
C2555 C1259 2.416 . S
C2569 C409 1.478 . S
C2575 C9 1.502 . S
C2589 C449 1.475 . S
C2595 C49 1.496 . S
C2609 C89 1.486 . S
C2615 C329 1.501 . S
C2629 C369 1.487 . S
C2635 C129 1.501 . S
C2649 C178 1.498 . S
C2655 C578 1.492 . S
C2669 C218 1.487 . S
C2675 C618 1.478 . S
C2689 C258 1.494 . S
C2695 C498 1.475 . S
C2709 C298 1.502 . S
C2715 C538 1.484 . S
C2729 C1049 1.483 . S
C2735 C649 1.480 . S
C2749 C689 1.477 . S
C2755 C1089 1.501 . S
C2769 C969 1.479 . S
C2775 C729 1.484 . S
C2789 C769 1.501 . S
C2795 C1009 1.486 . S
C2809 C1218 1.478 . S
C2815 C818 1.501 . S
C2829 C858 1.478 . S
C2835 C1258 1.485 . S
C2849 C898 1.475 . S
C2855 C1138 1.495 . S
C2869 C1178 1.486 . S
C2875 C938 1.478 . S
C2889 C18 1.479 . S
C2895 C98 1.502 . S
C2909 C138 1.502 . S
C2915 C58 1.479 . S
C2929 C249 1.502 . S
C2935 C169 1.481 . S
C2949 C209 1.493 . S
C2955 C289 1.486 . S
C2969 C338 1.481 . S
C2975 C418 1.499 . S
C2989 C458 1.489 . S
C2995 C378 1.490 . S
C3009 C569 1.502 . S
C3015 C489 1.479 . S
C3029 C609 1.481 . S
C3035 C529 1.502 . S
C3049 C738 1.493 . S
C3055 C658 1.487 . S
C3069 C778 1.483 . S
C3075 C698 1.501 . S
C3089 C889 1.501 . S
C3095 C809 1.482 . S
C3109 C929 1.482 . S
C3115 C849 1.502 . S
C3129 C978 1.493 . S
C3135 C1058 1.487 . S
C3149 C1018 1.492 . S
C3155 C1098 1.493 . S
C3169 C1129 1.486 . S
C3175 C1209 1.499 . S
C3189 C1249 1.495 . S
C3195 C1169 1.485 . S
