# Generated by pormake.
# Topology reo-e, (6)-cn, num edge types: 1
# Building blocks:
#     Node 0, Type 0, BuildingBlock: OJICUG_clean_sbu_0, # of connection points: 6
#     Node 1, Type 0, BuildingBlock: OJICUG_clean_sbu_0, # of connection points: 6
#     Node 2, Type 0, BuildingBlock: OJICUG_clean_sbu_0, # of connection points: 6
#     Node 3, Type 0, BuildingBlock: OJICUG_clean_sbu_0, # of connection points: 6
#     Node 4, Type 0, BuildingBlock: OJICUG_clean_sbu_0, # of connection points: 6
#     Node 5, Type 0, BuildingBlock: OJICUG_clean_sbu_0, # of connection points: 6
#     Node 6, Type 0, BuildingBlock: OJICUG_clean_sbu_0, # of connection points: 6
#     Node 7, Type 0, BuildingBlock: OJICUG_clean_sbu_0, # of connection points: 6
#     Node 8, Type 0, BuildingBlock: OJICUG_clean_sbu_0, # of connection points: 6
#     Node 9, Type 0, BuildingBlock: OJICUG_clean_sbu_0, # of connection points: 6
#     Node 10, Type 0, BuildingBlock: OJICUG_clean_sbu_0, # of connection points: 6
#     Node 11, Type 0, BuildingBlock: OJICUG_clean_sbu_0, # of connection points: 6
#     Edge 12, Type (0, 0), BuildingBlock: EZIPEK_clean_linker_0, # of connection points: 2
#     Edge 13, Type (0, 0), BuildingBlock: EZIPEK_clean_linker_0, # of connection points: 2
#     Edge 14, Type (0, 0), BuildingBlock: EZIPEK_clean_linker_0, # of connection points: 2
#     Edge 15, Type (0, 0), BuildingBlock: EZIPEK_clean_linker_0, # of connection points: 2
#     Edge 16, Type (0, 0), BuildingBlock: EZIPEK_clean_linker_0, # of connection points: 2
#     Edge 17, Type (0, 0), BuildingBlock: EZIPEK_clean_linker_0, # of connection points: 2
#     Edge 18, Type (0, 0), BuildingBlock: EZIPEK_clean_linker_0, # of connection points: 2
#     Edge 19, Type (0, 0), BuildingBlock: EZIPEK_clean_linker_0, # of connection points: 2
#     Edge 20, Type (0, 0), BuildingBlock: EZIPEK_clean_linker_0, # of connection points: 2
#     Edge 21, Type (0, 0), BuildingBlock: EZIPEK_clean_linker_0, # of connection points: 2
#     Edge 22, Type (0, 0), BuildingBlock: EZIPEK_clean_linker_0, # of connection points: 2
#     Edge 23, Type (0, 0), BuildingBlock: EZIPEK_clean_linker_0, # of connection points: 2
#     Edge 24, Type (0, 0), BuildingBlock: EZIPEK_clean_linker_0, # of connection points: 2
#     Edge 25, Type (0, 0), BuildingBlock: EZIPEK_clean_linker_0, # of connection points: 2
#     Edge 26, Type (0, 0), BuildingBlock: EZIPEK_clean_linker_0, # of connection points: 2
#     Edge 27, Type (0, 0), BuildingBlock: EZIPEK_clean_linker_0, # of connection points: 2
#     Edge 28, Type (0, 0), BuildingBlock: EZIPEK_clean_linker_0, # of connection points: 2
#     Edge 29, Type (0, 0), BuildingBlock: EZIPEK_clean_linker_0, # of connection points: 2
#     Edge 30, Type (0, 0), BuildingBlock: EZIPEK_clean_linker_0, # of connection points: 2
#     Edge 31, Type (0, 0), BuildingBlock: EZIPEK_clean_linker_0, # of connection points: 2
#     Edge 32, Type (0, 0), BuildingBlock: EZIPEK_clean_linker_0, # of connection points: 2
#     Edge 33, Type (0, 0), BuildingBlock: EZIPEK_clean_linker_0, # of connection points: 2
#     Edge 34, Type (0, 0), BuildingBlock: EZIPEK_clean_linker_0, # of connection points: 2
#     Edge 35, Type (0, 0), BuildingBlock: EZIPEK_clean_linker_0, # of connection points: 2
#     Edge 36, Type (0, 0), BuildingBlock: EZIPEK_clean_linker_0, # of connection points: 2
#     Edge 37, Type (0, 0), BuildingBlock: EZIPEK_clean_linker_0, # of connection points: 2
#     Edge 38, Type (0, 0), BuildingBlock: EZIPEK_clean_linker_0, # of connection points: 2
#     Edge 39, Type (0, 0), BuildingBlock: EZIPEK_clean_linker_0, # of connection points: 2
#     Edge 40, Type (0, 0), BuildingBlock: EZIPEK_clean_linker_0, # of connection points: 2
#     Edge 41, Type (0, 0), BuildingBlock: EZIPEK_clean_linker_0, # of connection points: 2
#     Edge 42, Type (0, 0), BuildingBlock: EZIPEK_clean_linker_0, # of connection points: 2
#     Edge 43, Type (0, 0), BuildingBlock: EZIPEK_clean_linker_0, # of connection points: 2
#     Edge 44, Type (0, 0), BuildingBlock: EZIPEK_clean_linker_0, # of connection points: 2
#     Edge 45, Type (0, 0), BuildingBlock: EZIPEK_clean_linker_0, # of connection points: 2
#     Edge 46, Type (0, 0), BuildingBlock: EZIPEK_clean_linker_0, # of connection points: 2
#     Edge 47, Type (0, 0), BuildingBlock: EZIPEK_clean_linker_0, # of connection points: 2
# Relax obj value: 0.131
# Max RMSD: 0.142
# Mean RMSD: 0.142
data_MOF--net-reo-e--node1-OJICUG_clean_sbu_0--edge1-EZIPEK_clean_linker_0
_symmetry_space_group_name_H-M    P1
_symmetry_Int_Tables_number       1
_symmetry_cell_setting            triclinic
loop_
_symmetry_equiv_pos_as_xyz
'x, y, z'
_cell_length_a     30.146174
_cell_length_b     30.030192
_cell_length_c     29.990097
_cell_angle_alpha  90.144497
_cell_angle_beta   90.119397
_cell_angle_gamma 90.400825
loop_
_atom_site_label
_atom_site_type_symbol
_atom_site_fract_x
_atom_site_fract_y
_atom_site_fract_z
_atom_type_partial_charge
Sc0 Sc 0.18268 0.17187 0.43915 0.0
Sc1 Sc 0.24777 0.25344 0.49093 0.0
Sc2 Sc 0.1819 0.18217 0.55594 0.0
O3 O 0.2039 0.20245 0.49537 0.0
C4 C 0.09459 0.17692 0.49501 0.0
C5 C 0.18599 0.27484 0.41032 0.0
C6 C 0.18177 0.28686 0.56778 0.0
C7 C 0.28285 0.1874 0.41472 0.0
C8 C 0.19193 0.0902 0.50647 0.0
C9 C 0.28517 0.20016 0.57321 0.0
O10 O 0.11447 0.17894 0.45777 0.0
O11 O 0.20791 0.2886 0.44385 0.0
O12 O 0.16527 0.24868 0.5752 0.0
O13 O 0.24946 0.16145 0.41641 0.0
O14 O 0.19533 0.11332 0.54186 0.0
O15 O 0.29117 0.22097 0.53687 0.0
O16 O 0.18494 0.10664 0.46817 0.0
O17 O 0.28517 0.2234 0.43712 0.0
O18 O 0.24701 0.18762 0.58659 0.0
O19 O 0.17744 0.23387 0.403 0.0
O20 O 0.11439 0.17511 0.53247 0.0
O21 O 0.21569 0.29178 0.54301 0.0
Sc22 Sc 0.8154 0.18236 0.55349 0.0
Sc23 Sc 0.74977 0.25474 0.48996 0.0
Sc24 Sc 0.81597 0.17499 0.43651 0.0
O25 O 0.79357 0.20387 0.49331 0.0
C26 C 0.9035 0.1776 0.49527 0.0
C27 C 0.80942 0.28427 0.57383 0.0
C28 C 0.81647 0.2789 0.4119 0.0
C29 C 0.71225 0.2007 0.57154 0.0
C30 C 0.80328 0.09178 0.50107 0.0
C31 C 0.71654 0.1932 0.40878 0.0
O32 O 0.88331 0.17681 0.53235 0.0
O33 O 0.77922 0.29062 0.545 0.0
O34 O 0.82559 0.2383 0.40492 0.0
O35 O 0.75019 0.18602 0.58237 0.0
O36 O 0.80929 0.10864 0.46271 0.0
O37 O 0.71294 0.22607 0.43521 0.0
O38 O 0.80212 0.1143 0.53688 0.0
O39 O 0.70493 0.22277 0.53612 0.0
O40 O 0.75064 0.16862 0.40733 0.0
O41 O 0.83088 0.24823 0.57687 0.0
O42 O 0.88389 0.17879 0.45783 0.0
O43 O 0.79116 0.29118 0.44359 0.0
Sc44 Sc 0.80695 0.8102 0.55491 0.0
Sc45 Sc 0.74058 0.73936 0.49027 0.0
Sc46 Sc 0.80726 0.81854 0.43845 0.0
O47 O 0.78533 0.78928 0.49465 0.0
C48 C 0.79869 0.90105 0.50476 0.0
C49 C 0.70308 0.7927 0.57072 0.0
C50 C 0.70814 0.80413 0.41236 0.0
C51 C 0.79985 0.70865 0.5736 0.0
C52 C 0.89463 0.81306 0.4953 0.0
C53 C 0.80137 0.71486 0.41133 0.0
O54 O 0.79327 0.87837 0.53994 0.0
O55 O 0.69569 0.77388 0.53342 0.0
O56 O 0.74047 0.8312 0.41596 0.0
O57 O 0.82292 0.74403 0.57623 0.0
O58 O 0.8752 0.80924 0.45779 0.0
O59 O 0.78208 0.702 0.44665 0.0
O60 O 0.87442 0.8171 0.53225 0.0
O61 O 0.76764 0.7039 0.5466 0.0
O62 O 0.80956 0.75569 0.4028 0.0
O63 O 0.74154 0.8046 0.58388 0.0
O64 O 0.80745 0.88424 0.46695 0.0
O65 O 0.70701 0.76741 0.43338 0.0
Sc66 Sc 0.16927 0.81476 0.43674 0.0
Sc67 Sc 0.24001 0.73684 0.4873 0.0
Sc68 Sc 0.17633 0.80915 0.5534 0.0
O69 O 0.19523 0.78683 0.49243 0.0
C70 C 0.18577 0.89903 0.5005 0.0
C71 C 0.26929 0.80112 0.40794 0.0
C72 C 0.27978 0.78939 0.56926 0.0
C73 C 0.17285 0.71158 0.40865 0.0
C74 C 0.08532 0.81293 0.49897 0.0
C75 C 0.18145 0.70687 0.57211 0.0
O76 O 0.17641 0.88169 0.46283 0.0
O77 O 0.27592 0.7688 0.43427 0.0
O78 O 0.24248 0.80489 0.58105 0.0
O79 O 0.15839 0.75102 0.40496 0.0
O80 O 0.10742 0.81571 0.53497 0.0
O81 O 0.21038 0.69972 0.54198 0.0
O82 O 0.10291 0.80992 0.46082 0.0
O83 O 0.20069 0.70066 0.43869 0.0
O84 O 0.16109 0.74344 0.57636 0.0
O85 O 0.23299 0.82216 0.40568 0.0
O86 O 0.18997 0.87684 0.53617 0.0
O87 O 0.28543 0.76734 0.53361 0.0
Sc88 Sc 0.4328 0.17675 0.17963 0.0
Sc89 Sc 0.49432 0.24878 0.24987 0.0
Sc90 Sc 0.5493 0.18 0.17269 0.0
O91 O 0.49212 0.20194 0.2007 0.0
C92 C 0.49433 0.09018 0.17933 0.0
C93 C 0.42064 0.18009 0.28574 0.0
C94 C 0.58002 0.19221 0.27386 0.0
C95 C 0.40726 0.2782 0.19737 0.0
C96 C 0.4842 0.18458 0.08815 0.0
C97 C 0.56683 0.28501 0.18024 0.0
O98 O 0.45681 0.1092 0.17792 0.0
O99 O 0.44915 0.21111 0.29188 0.0
O100 O 0.58443 0.17541 0.23524 0.0
O101 O 0.40034 0.24067 0.1789 0.0
O102 O 0.52235 0.18178 0.106 0.0
O103 O 0.53997 0.29079 0.21256 0.0
O104 O 0.44831 0.18529 0.11022 0.0
O105 O 0.43986 0.28604 0.2231 0.0
O106 O 0.57317 0.2468 0.16323 0.0
O107 O 0.41147 0.16548 0.24697 0.0
O108 O 0.53103 0.11117 0.17986 0.0
O109 O 0.54894 0.2185 0.28415 0.0
Sc110 Sc 0.8064 0.55391 0.17837 0.0
Sc111 Sc 0.74047 0.49268 0.25316 0.0
Sc112 Sc 0.80742 0.43805 0.17557 0.0
O113 O 0.78482 0.49494 0.20255 0.0
C114 C 0.79688 0.50006 0.09015 0.0
C115 C 0.70354 0.57325 0.19845 0.0
C116 C 0.70688 0.41322 0.18948 0.0
C117 C 0.80353 0.57583 0.27967 0.0
C118 C 0.89453 0.49504 0.17723 0.0
C119 C 0.80171 0.41331 0.27958 0.0
O120 O 0.78982 0.53592 0.11128 0.0
O121 O 0.69604 0.53745 0.21974 0.0
O122 O 0.7407 0.41438 0.16424 0.0
O123 O 0.825 0.57685 0.24337 0.0
O124 O 0.87531 0.45806 0.18465 0.0
O125 O 0.77991 0.44734 0.29164 0.0
O126 O 0.87386 0.5311 0.16997 0.0
O127 O 0.77149 0.54891 0.28701 0.0
O128 O 0.81136 0.40533 0.23911 0.0
O129 O 0.74182 0.58456 0.18452 0.0
O130 O 0.80727 0.46368 0.10875 0.0
O131 O 0.70396 0.43677 0.22477 0.0
Sc132 Sc 0.43161 0.81174 0.17658 0.0
Sc133 Sc 0.48784 0.74792 0.25386 0.0
Sc134 Sc 0.54807 0.80896 0.17741 0.0
O135 O 0.48899 0.78927 0.20191 0.0
C136 C 0.48743 0.80128 0.08979 0.0
C137 C 0.41129 0.70817 0.19674 0.0
C138 C 0.57056 0.71123 0.19749 0.0
C139 C 0.40482 0.80934 0.27583 0.0
C140 C 0.49457 0.89808 0.17791 0.0
C141 C 0.56619 0.8065 0.28291 0.0
O142 O 0.4512 0.79439 0.11023 0.0
O143 O 0.44777 0.70144 0.21705 0.0
O144 O 0.56967 0.74135 0.16775 0.0
O145 O 0.40696 0.83209 0.24041 0.0
O146 O 0.53044 0.8776 0.18622 0.0
O147 O 0.52686 0.79447 0.29214 0.0
O148 O 0.45782 0.87867 0.16922 0.0
O149 O 0.42898 0.77571 0.28293 0.0
O150 O 0.57974 0.80888 0.24271 0.0
O151 O 0.39936 0.74664 0.18326 0.0
O152 O 0.52387 0.81056 0.10935 0.0
O153 O 0.5465 0.71266 0.23232 0.0
Sc154 Sc 0.16889 0.43512 0.17879 0.0
Sc155 Sc 0.23398 0.49335 0.25631 0.0
Sc156 Sc 0.17708 0.55192 0.17419 0.0
O157 O 0.19336 0.49328 0.20279 0.0
C158 C 0.18572 0.48732 0.08945 0.0
C159 C 0.27057 0.4121 0.20176 0.0
C160 C 0.27803 0.56938 0.1954 0.0
C161 C 0.1691 0.41176 0.27982 0.0
C162 C 0.08542 0.50012 0.1739 0.0
C163 C 0.17135 0.57382 0.279 0.0
O164 O 0.18587 0.45136 0.1115 0.0
O165 O 0.27828 0.44702 0.22477 0.0
O166 O 0.24565 0.57258 0.16842 0.0
O167 O 0.14833 0.41186 0.2431 0.0
O168 O 0.1074 0.5362 0.17778 0.0
O169 O 0.19167 0.53904 0.29162 0.0
O170 O 0.10309 0.46188 0.1709 0.0
O171 O 0.20118 0.43806 0.28832 0.0
O172 O 0.17018 0.58505 0.23807 0.0
O173 O 0.23258 0.40232 0.18554 0.0
O174 O 0.18083 0.52556 0.10706 0.0
O175 O 0.27434 0.54723 0.23125 0.0
Sc176 Sc 0.43273 0.80657 0.80766 0.0
Sc177 Sc 0.49494 0.73089 0.7469 0.0
Sc178 Sc 0.54949 0.80953 0.81256 0.0
O179 O 0.49255 0.78291 0.78875 0.0
C180 C 0.49246 0.89544 0.80115 0.0
C181 C 0.41287 0.78715 0.7082 0.0
C182 C 0.57152 0.79035 0.70954 0.0
C183 C 0.41544 0.70086 0.80387 0.0
C184 C 0.48603 0.80594 0.89784 0.0
C185 C 0.5768 0.70961 0.81101 0.0
O186 O 0.45584 0.87544 0.80885 0.0
O187 O 0.43823 0.7534 0.70891 0.0
O188 O 0.58171 0.80572 0.74793 0.0
O189 O 0.40125 0.74061 0.80797 0.0
O190 O 0.52305 0.81442 0.87924 0.0
O191 O 0.55136 0.70081 0.7784 0.0
O192 O 0.45009 0.79867 0.87666 0.0
O193 O 0.4543 0.69242 0.79053 0.0
O194 O 0.57639 0.74648 0.83159 0.0
O195 O 0.41132 0.81541 0.73979 0.0
O196 O 0.52908 0.87551 0.79663 0.0
O197 O 0.53749 0.7662 0.70208 0.0
Sc198 Sc 0.17194 0.43117 0.80607 0.0
Sc199 Sc 0.24506 0.48961 0.73605 0.0
Sc200 Sc 0.17945 0.54842 0.81293 0.0
O201 O 0.19879 0.48974 0.78508 0.0
C202 C 0.08825 0.49532 0.80595 0.0
C203 C 0.17529 0.41724 0.70012 0.0
C204 C 0.18931 0.57525 0.7108 0.0
C205 C 0.27218 0.40363 0.79071 0.0
C206 C 0.18344 0.48421 0.89733 0.0
C207 C 0.28415 0.5625 0.80445 0.0
O208 O 0.10579 0.45704 0.80625 0.0
O209 O 0.20716 0.44466 0.69473 0.0
O210 O 0.174 0.58149 0.7497 0.0
O211 O 0.23449 0.39776 0.80849 0.0
O212 O 0.18224 0.5225 0.87956 0.0
O213 O 0.28742 0.53458 0.77267 0.0
O214 O 0.18133 0.44804 0.87529 0.0
O215 O 0.28114 0.43538 0.7644 0.0
O216 O 0.24682 0.57189 0.82157 0.0
O217 O 0.16005 0.40845 0.73862 0.0
O218 O 0.11032 0.53148 0.80725 0.0
O219 O 0.21501 0.54357 0.7008 0.0
Sc220 Sc 0.43787 0.17159 0.80209 0.0
Sc221 Sc 0.49848 0.25096 0.74192 0.0
Sc222 Sc 0.55508 0.17853 0.81361 0.0
O223 O 0.49718 0.20018 0.78593 0.0
C224 C 0.48784 0.17878 0.89587 0.0
C225 C 0.40975 0.27293 0.79352 0.0
C226 C 0.57031 0.28455 0.81276 0.0
C227 C 0.42777 0.18478 0.69699 0.0
C228 C 0.50131 0.08734 0.8005 0.0
C229 C 0.58436 0.19656 0.71356 0.0
O230 O 0.45262 0.1768 0.87241 0.0
O231 O 0.4432 0.2847 0.77086 0.0
O232 O 0.58034 0.24565 0.8261 0.0
O233 O 0.41734 0.16473 0.73294 0.0
O234 O 0.53748 0.10901 0.80491 0.0
O235 O 0.55377 0.22443 0.70661 0.0
O236 O 0.46354 0.10549 0.79907 0.0
O237 O 0.45572 0.21652 0.69669 0.0
O238 O 0.58943 0.17611 0.75029 0.0
O239 O 0.40325 0.2335 0.80705 0.0
O240 O 0.52676 0.17902 0.87951 0.0
O241 O 0.54121 0.2904 0.78281 0.0
Sc242 Sc 0.81101 0.55316 0.81381 0.0
Sc243 Sc 0.73659 0.49641 0.7463 0.0
Sc244 Sc 0.81062 0.43749 0.81131 0.0
O245 O 0.78654 0.49585 0.79011 0.0
C246 C 0.89736 0.49911 0.80535 0.0
C247 C 0.79361 0.57446 0.71019 0.0
C248 C 0.79776 0.41635 0.71217 0.0
C249 C 0.71196 0.57783 0.81048 0.0
C250 C 0.80625 0.49101 0.89955 0.0
C251 C 0.70652 0.41718 0.80419 0.0
O252 O 0.87691 0.53464 0.79599 0.0
O253 O 0.77314 0.53833 0.70127 0.0
O254 O 0.82502 0.41844 0.74438 0.0
O255 O 0.74675 0.57514 0.83401 0.0
O256 O 0.7971 0.45503 0.87901 0.0
O257 O 0.69769 0.45606 0.79046 0.0
O258 O 0.81848 0.52671 0.88016 0.0
O259 O 0.70572 0.55457 0.77545 0.0
O260 O 0.74631 0.40349 0.80774 0.0
O261 O 0.80491 0.58585 0.74966 0.0
O262 O 0.87789 0.46319 0.8169 0.0
O263 O 0.76155 0.4381 0.71125 0.0
C264 C 0.19257 0.30165 0.33195 0.0
C265 C 0.17503 0.30754 0.37538 0.0
C266 C 0.14658 0.3808 0.3541 0.0
C267 C 0.16261 0.37375 0.31029 0.0
N268 N 0.18936 0.32211 0.2544 0.0
N269 N 0.12775 0.34808 0.42569 0.0
C270 C 0.18124 0.33218 0.2981 0.0
C271 C 0.14957 0.34576 0.38586 0.0
N272 N 0.22317 0.2692 0.32376 0.0
N273 N 0.12925 0.42119 0.36536 0.0
H274 H 0.12886 0.3226 0.44927 0.0
H275 H 0.10564 0.3733 0.43381 0.0
H276 H 0.12404 0.44623 0.34189 0.0
H277 H 0.12179 0.43046 0.39796 0.0
H278 H 0.24041 0.26648 0.29382 0.0
H279 H 0.23532 0.24807 0.34832 0.0
H280 H 0.19873 0.29049 0.24376 0.0
H281 H 0.18254 0.34351 0.22812 0.0
C282 C 0.61341 0.1585 0.3429 0.0
C283 C 0.61694 0.18781 0.306 0.0
C284 C 0.68561 0.21956 0.33643 0.0
C285 C 0.68327 0.18916 0.37255 0.0
N286 N 0.64869 0.12629 0.40831 0.0
N287 N 0.6597 0.24087 0.26318 0.0
C288 C 0.64834 0.15736 0.3751 0.0
C289 C 0.65416 0.21656 0.30136 0.0
N290 N 0.57614 0.13275 0.34759 0.0
N291 N 0.71696 0.25267 0.33648 0.0
H292 H 0.63669 0.24115 0.23721 0.0
H293 H 0.68873 0.25823 0.25555 0.0
H294 H 0.74252 0.25463 0.35978 0.0
H295 H 0.71559 0.28018 0.3155 0.0
H296 H 0.56902 0.11408 0.37589 0.0
H297 H 0.55092 0.13177 0.3237 0.0
H298 H 0.62674 0.09946 0.40992 0.0
H299 H 0.67293 0.12591 0.43316 0.0
C300 C 0.83112 0.64141 0.38514 0.0
C301 C 0.80804 0.6814 0.37579 0.0
C302 C 0.79363 0.65565 0.29972 0.0
C303 C 0.81031 0.61308 0.31125 0.0
N304 N 0.844 0.56421 0.36482 0.0
N305 N 0.75926 0.72256 0.32674 0.0
C306 C 0.8289 0.60558 0.35399 0.0
C307 C 0.78758 0.68779 0.33361 0.0
N308 N 0.85594 0.63824 0.42318 0.0
N309 N 0.78263 0.66542 0.25659 0.0
H310 H 0.75101 0.74572 0.35112 0.0
H311 H 0.74 0.72595 0.29811 0.0
H312 H 0.78448 0.64272 0.23048 0.0
H313 H 0.77545 0.69755 0.24586 0.0
H314 H 0.87657 0.61149 0.43019 0.0
H315 H 0.85901 0.66437 0.44601 0.0
H316 H 0.85324 0.55507 0.39697 0.0
H317 H 0.84524 0.53823 0.34172 0.0
C318 C 0.29472 0.79093 0.32995 0.0
C319 C 0.30243 0.80919 0.37291 0.0
C320 C 0.3765 0.834 0.35023 0.0
C321 C 0.36794 0.81691 0.30691 0.0
N322 N 0.31553 0.78904 0.25229 0.0
N323 N 0.34662 0.85426 0.42273 0.0
C324 C 0.32577 0.79901 0.29564 0.0
C325 C 0.34212 0.83285 0.38268 0.0
N326 N 0.25925 0.7632 0.32273 0.0
N327 N 0.41779 0.85019 0.36043 0.0
H328 H 0.32208 0.8533 0.44722 0.0
H329 H 0.37301 0.87543 0.43051 0.0
H330 H 0.44276 0.85355 0.33657 0.0
H331 H 0.4279 0.85854 0.3926 0.0
H332 H 0.25475 0.74467 0.29365 0.0
H333 H 0.23649 0.75515 0.34754 0.0
H334 H 0.2837 0.7803 0.24173 0.0
H335 H 0.33758 0.79361 0.22601 0.0
C336 C 0.15928 0.63155 0.60172 0.0
C337 C 0.17774 0.67451 0.60912 0.0
C338 C 0.20219 0.65242 0.68382 0.0
C339 C 0.18236 0.61007 0.67706 0.0
N340 N 0.1349 0.56143 0.63416 0.0
N341 N 0.20812 0.72903 0.66102 0.0
C342 C 0.1588 0.60017 0.63724 0.0
C343 C 0.19606 0.68605 0.65148 0.0
N344 N 0.14234 0.62087 0.56077 0.0
N345 N 0.22938 0.65977 0.71981 0.0
H346 H 0.20735 0.7548 0.63807 0.0
H347 H 0.21586 0.74012 0.69305 0.0
H348 H 0.23595 0.63586 0.74402 0.0
H349 H 0.24867 0.68836 0.72395 0.0
H350 H 0.13311 0.58873 0.55136 0.0
H351 H 0.13925 0.64427 0.53537 0.0
H352 H 0.1139 0.55366 0.60763 0.0
H353 H 0.13322 0.53848 0.66018 0.0
C354 C 0.35849 0.22436 0.60476 0.0
C355 C 0.32477 0.19135 0.60139 0.0
C356 C 0.36747 0.14387 0.65245 0.0
C357 C 0.40015 0.17807 0.65575 0.0
N358 N 0.43734 0.23403 0.61116 0.0
N359 N 0.30543 0.11347 0.61005 0.0
C360 C 0.39931 0.21286 0.62404 0.0
C361 C 0.33148 0.14905 0.62179 0.0
N362 N 0.35132 0.26735 0.59198 0.0
N363 N 0.3716 0.10608 0.67721 0.0
H364 H 0.281 0.11521 0.5855 0.0
H365 H 0.31103 0.08115 0.62108 0.0
H366 H 0.40104 0.09806 0.69359 0.0
H367 H 0.34611 0.08283 0.68113 0.0
H368 H 0.37498 0.29242 0.59694 0.0
H369 H 0.32036 0.27905 0.58206 0.0
H370 H 0.43762 0.25837 0.58638 0.0
H371 H 0.46864 0.22236 0.62012 0.0
C372 C 0.80058 0.33689 0.68865 0.0
C373 C 0.80548 0.3825 0.67744 0.0
C374 C 0.82381 0.36217 0.60047 0.0
C375 C 0.81348 0.31716 0.61041 0.0
N376 N 0.78556 0.26236 0.66284 0.0
N377 N 0.81959 0.43977 0.62304 0.0
C378 C 0.80079 0.30452 0.65432 0.0
C379 C 0.81654 0.39555 0.63339 0.0
N380 N 0.79514 0.32426 0.73213 0.0
N381 N 0.84163 0.37259 0.55993 0.0
H382 H 0.81642 0.46492 0.64684 0.0
H383 H 0.82279 0.45171 0.59065 0.0
H384 H 0.84824 0.34842 0.53585 0.0
H385 H 0.85349 0.4041 0.55157 0.0
H386 H 0.79784 0.29141 0.7428 0.0
H387 H 0.79106 0.34658 0.75837 0.0
H388 H 0.76948 0.25343 0.69223 0.0
H389 H 0.7851 0.23681 0.63948 0.0
C390 C 0.64798 0.83371 0.61805 0.0
C391 C 0.66706 0.79298 0.60386 0.0
C392 C 0.62725 0.75267 0.66214 0.0
C393 C 0.6051 0.79249 0.67393 0.0
N394 N 0.59021 0.87006 0.66113 0.0
N395 N 0.66972 0.71245 0.60755 0.0
C396 C 0.61437 0.83294 0.65142 0.0
C397 C 0.65491 0.75209 0.62424 0.0
N398 N 0.66227 0.87293 0.59981 0.0
N399 N 0.6237 0.71581 0.68863 0.0
H400 H 0.69182 0.70991 0.58117 0.0
H401 H 0.65729 0.68161 0.61753 0.0
H402 H 0.60462 0.71499 0.7174 0.0
H403 H 0.64301 0.68746 0.68479 0.0
H404 H 0.65328 0.90412 0.61184 0.0
H405 H 0.68517 0.8743 0.57379 0.0
H406 H 0.59213 0.89951 0.64301 0.0
H407 H 0.56586 0.87047 0.68582 0.0
C408 C 0.40055 0.1792 0.36851 0.0
C409 C 0.3913 0.16603 0.32387 0.0
C410 C 0.31262 0.15936 0.34097 0.0
C411 C 0.32055 0.1758 0.38483 0.0
N412 N 0.37359 0.18507 0.44469 0.0
N413 N 0.34419 0.11609 0.28141 0.0
C414 C 0.36513 0.18088 0.40006 0.0
C415 C 0.34917 0.14714 0.31436 0.0
N416 N 0.44315 0.18869 0.38096 0.0
N417 N 0.27089 0.1576 0.32317 0.0
H418 H 0.37135 0.10171 0.26555 0.0
H419 H 0.31413 0.09976 0.27529 0.0
H420 H 0.24268 0.16876 0.33955 0.0
H421 H 0.26517 0.14943 0.28981 0.0
H422 H 0.45158 0.20455 0.41074 0.0
H423 H 0.47023 0.18002 0.36121 0.0
H424 H 0.40534 0.18566 0.45836 0.0
H425 H 0.34869 0.18329 0.46872 0.0
C426 C 0.83134 0.39118 0.35547 0.0
C427 C 0.81319 0.37911 0.31328 0.0
C428 C 0.82397 0.30102 0.33177 0.0
C429 C 0.82911 0.31242 0.37736 0.0
N430 N 0.84523 0.36902 0.43209 0.0
N431 N 0.78296 0.3204 0.26618 0.0
C432 C 0.83518 0.35791 0.3891 0.0
C433 C 0.80721 0.33339 0.30254 0.0
N434 N 0.84647 0.43356 0.36271 0.0
N435 N 0.83527 0.26001 0.31591 0.0
H436 H 0.76448 0.34258 0.24721 0.0
H437 H 0.77612 0.28706 0.25894 0.0
H438 H 0.85356 0.23735 0.33448 0.0
H439 H 0.83326 0.25185 0.28213 0.0
H440 H 0.86302 0.44342 0.39164 0.0
H441 H 0.8466 0.45772 0.33783 0.0
H442 H 0.84464 0.40155 0.44421 0.0
H443 H 0.85354 0.345 0.4557 0.0
C444 C 0.63674 0.84105 0.31304 0.0
C445 C 0.59909 0.81307 0.31978 0.0
C446 C 0.62745 0.79755 0.39441 0.0
C447 C 0.66987 0.81422 0.38245 0.0
N448 N 0.71575 0.84624 0.32378 0.0
N449 N 0.56677 0.75426 0.36594 0.0
C450 C 0.67495 0.83497 0.34009 0.0
C451 C 0.59612 0.78868 0.36042 0.0
N452 N 0.63609 0.8737 0.28147 0.0
N453 N 0.61704 0.78971 0.43797 0.0
H454 H 0.54763 0.74067 0.34037 0.0
H455 H 0.56654 0.73468 0.39463 0.0
H456 H 0.63827 0.79862 0.46408 0.0
H457 H 0.58531 0.77982 0.44788 0.0
H458 H 0.66204 0.89652 0.27768 0.0
H459 H 0.60754 0.8815 0.26347 0.0
H460 H 0.72015 0.85785 0.29132 0.0
H461 H 0.74544 0.83948 0.34 0.0
C462 C 0.15289 0.63181 0.39124 0.0
C463 C 0.15792 0.67647 0.37608 0.0
C464 C 0.14209 0.64948 0.30048 0.0
C465 C 0.15394 0.60591 0.31349 0.0
N466 N 0.15412 0.55287 0.37383 0.0
N467 N 0.15505 0.72736 0.31235 0.0
C468 C 0.15426 0.59606 0.35984 0.0
C469 C 0.15113 0.68551 0.32976 0.0
N470 N 0.14421 0.62405 0.43524 0.0
N471 N 0.11976 0.6563 0.26147 0.0
H472 H 0.16075 0.7562 0.33059 0.0
H473 H 0.15571 0.73302 0.27806 0.0
H474 H 0.10727 0.62994 0.24238 0.0
H475 H 0.10761 0.68736 0.25216 0.0
H476 H 0.13722 0.59273 0.44835 0.0
H477 H 0.13888 0.64998 0.45774 0.0
H478 H 0.16122 0.54336 0.40642 0.0
H479 H 0.14566 0.52655 0.35266 0.0
C480 C 0.34145 0.82823 0.61123 0.0
C481 C 0.31587 0.7893 0.60268 0.0
C482 C 0.35009 0.75221 0.66635 0.0
C483 C 0.37902 0.78921 0.67234 0.0
N484 N 0.40715 0.8599 0.64649 0.0
N485 N 0.30225 0.71101 0.61646 0.0
C486 C 0.37599 0.82674 0.64377 0.0
C487 C 0.32242 0.75022 0.62831 0.0
N488 N 0.33264 0.86647 0.58837 0.0
N489 N 0.34706 0.72006 0.69843 0.0
H490 H 0.28054 0.70795 0.58965 0.0
H491 H 0.30999 0.68053 0.63095 0.0
H492 H 0.36427 0.72186 0.72848 0.0
H493 H 0.32395 0.69416 0.69763 0.0
H494 H 0.34685 0.8972 0.59629 0.0
H495 H 0.3089 0.86796 0.56303 0.0
H496 H 0.40927 0.8861 0.62392 0.0
H497 H 0.43335 0.85918 0.66923 0.0
C498 C 0.13293 0.32072 0.62804 0.0
C499 C 0.16371 0.32648 0.59264 0.0
C500 C 0.17427 0.40382 0.61689 0.0
C501 C 0.15917 0.39142 0.66 0.0
N502 N 0.10718 0.34477 0.70044 0.0
N503 N 0.19648 0.38044 0.54281 0.0
C504 C 0.13303 0.35193 0.66384 0.0
C505 C 0.17907 0.37039 0.58357 0.0
N506 N 0.10083 0.2885 0.62513 0.0
N507 N 0.18068 0.44783 0.60725 0.0
H508 H 0.19165 0.35996 0.51506 0.0
H509 H 0.21436 0.40946 0.53623 0.0
H510 H 0.17205 0.47289 0.62968 0.0
H511 H 0.18918 0.45982 0.57587 0.0
H512 H 0.07573 0.28426 0.64856 0.0
H513 H 0.09509 0.27048 0.59592 0.0
H514 H 0.09438 0.31359 0.70881 0.0
H515 H 0.09671 0.37052 0.72115 0.0
C516 C 0.64614 0.23282 0.67313 0.0
C517 C 0.61945 0.19438 0.67947 0.0
C518 C 0.65451 0.15851 0.61514 0.0
C519 C 0.67748 0.19892 0.60611 0.0
N520 N 0.68998 0.27696 0.62233 0.0
N521 N 0.59452 0.12189 0.65529 0.0
C522 C 0.67167 0.23683 0.63382 0.0
C523 C 0.62271 0.15735 0.65026 0.0
N524 N 0.64814 0.26496 0.70555 0.0
N525 N 0.66338 0.12138 0.59035 0.0
H526 H 0.57177 0.11973 0.6814 0.0
H527 H 0.59185 0.09592 0.63237 0.0
H528 H 0.68493 0.12182 0.56316 0.0
H529 H 0.65136 0.08977 0.59812 0.0
H530 H 0.67073 0.29136 0.70515 0.0
H531 H 0.63037 0.26283 0.73529 0.0
H532 H 0.6828 0.30669 0.63867 0.0
H533 H 0.70957 0.28152 0.59418 0.0
C534 C 0.82412 0.60137 0.63659 0.0
C535 C 0.79727 0.60841 0.67476 0.0
C536 C 0.78159 0.68413 0.6503 0.0
C537 C 0.80388 0.67558 0.60964 0.0
N538 N 0.84333 0.62527 0.56156 0.0
N539 N 0.74105 0.65201 0.71143 0.0
C540 C 0.8243 0.63386 0.60195 0.0
C541 C 0.77352 0.64862 0.67991 0.0
N542 N 0.85022 0.56444 0.63411 0.0
N543 N 0.76806 0.72619 0.66088 0.0
H544 H 0.73206 0.62566 0.73202 0.0
H545 H 0.71966 0.67901 0.71369 0.0
H546 H 0.77372 0.75354 0.64048 0.0
H547 H 0.75546 0.73478 0.69205 0.0
H548 H 0.87353 0.55931 0.60909 0.0
H549 H 0.85094 0.54041 0.65916 0.0
H550 H 0.8546 0.59396 0.55209 0.0
H551 H 0.84565 0.64921 0.53648 0.0
C552 C 0.34352 0.31498 0.23444 0.0
C553 C 0.37129 0.31144 0.19649 0.0
C554 C 0.33058 0.37177 0.15988 0.0
C555 C 0.30568 0.37794 0.19954 0.0
N556 N 0.29168 0.35932 0.27663 0.0
N557 N 0.39467 0.33778 0.12453 0.0
C558 C 0.31315 0.35069 0.23744 0.0
C559 C 0.36567 0.34009 0.15942 0.0
N560 N 0.34513 0.28316 0.26702 0.0
N561 N 0.32041 0.39599 0.12275 0.0
H562 H 0.42 0.31431 0.123 0.0
H563 H 0.39548 0.36058 0.09846 0.0
H564 H 0.29607 0.42053 0.1226 0.0
H565 H 0.3341 0.39015 0.09147 0.0
H566 H 0.32261 0.28102 0.29319 0.0
H567 H 0.36672 0.25624 0.266 0.0
H568 H 0.29965 0.34426 0.3068 0.0
H569 H 0.26779 0.38392 0.28 0.0
C570 C 0.32336 0.62463 0.84908 0.0
C571 C 0.32447 0.58997 0.81649 0.0
C572 C 0.38584 0.62648 0.77898 0.0
C573 C 0.3846 0.66241 0.80993 0.0
N574 N 0.3613 0.68847 0.88235 0.0
N575 N 0.37595 0.54728 0.77231 0.0
C576 C 0.35591 0.65954 0.84746 0.0
C577 C 0.36201 0.58727 0.78856 0.0
N578 N 0.29258 0.62338 0.88235 0.0
N579 N 0.4073 0.63012 0.73905 0.0
H580 H 0.36254 0.51716 0.78342 0.0
H581 H 0.40486 0.54414 0.75352 0.0
H582 H 0.42148 0.65965 0.72755 0.0
H583 H 0.40577 0.60508 0.71489 0.0
H584 H 0.28539 0.65052 0.9027 0.0
H585 H 0.27492 0.5945 0.89018 0.0
H586 H 0.34401 0.68594 0.91224 0.0
H587 H 0.38622 0.71271 0.88319 0.0
C588 C 0.34368 0.37596 0.82245 0.0
C589 C 0.30546 0.3685 0.79572 0.0
C590 C 0.33556 0.29824 0.76845 0.0
C591 C 0.3729 0.30454 0.79676 0.0
N592 N 0.41073 0.34513 0.85494 0.0
N593 N 0.26119 0.32031 0.74836 0.0
C594 C 0.37647 0.34222 0.82509 0.0
C595 C 0.30008 0.32875 0.77059 0.0
N596 N 0.34883 0.41557 0.84453 0.0
N597 N 0.33523 0.26465 0.73746 0.0
H598 H 0.2352 0.34293 0.74645 0.0
H599 H 0.25325 0.28954 0.73427 0.0
H600 H 0.36037 0.24121 0.73466 0.0
H601 H 0.31189 0.26193 0.71195 0.0
H602 H 0.37796 0.42526 0.86063 0.0
H603 H 0.32445 0.44008 0.84484 0.0
H604 H 0.41327 0.36961 0.87944 0.0
H605 H 0.43528 0.3209 0.85731 0.0
C606 C 0.62941 0.38863 0.78762 0.0
C607 C 0.66878 0.38612 0.81361 0.0
C608 C 0.63667 0.32152 0.85303 0.0
C609 C 0.59831 0.32441 0.82546 0.0
N610 N 0.55034 0.37875 0.79126 0.0
N611 N 0.70201 0.35979 0.8821 0.0
C612 C 0.59194 0.36413 0.80114 0.0
C613 C 0.67032 0.35528 0.84973 0.0
N614 N 0.62802 0.41143 0.74829 0.0
N615 N 0.64031 0.2879 0.88327 0.0
H616 H 0.72477 0.38607 0.88271 0.0
H617 H 0.70269 0.34058 0.91093 0.0
H618 H 0.61321 0.26843 0.89283 0.0
H619 H 0.66992 0.28012 0.89934 0.0
H620 H 0.5999 0.41123 0.72792 0.0
H621 H 0.65603 0.42491 0.73299 0.0
H622 H 0.54484 0.40896 0.7751 0.0
H623 H 0.52206 0.36383 0.80486 0.0
C624 C 0.69108 0.65804 0.81632 0.0
C625 C 0.67911 0.61249 0.8213 0.0
C626 C 0.60165 0.63369 0.83348 0.0
C627 C 0.61259 0.6778 0.82069 0.0
N628 N 0.667 0.73114 0.79421 0.0
N629 N 0.62384 0.55614 0.83621 0.0
C630 C 0.6572 0.69007 0.81145 0.0
C631 C 0.63458 0.60009 0.83069 0.0
N632 N 0.73467 0.67092 0.81501 0.0
N633 N 0.55994 0.62433 0.84881 0.0
H634 H 0.6477 0.53115 0.8376 0.0
H635 H 0.5914 0.54417 0.83779 0.0
H636 H 0.5355 0.64863 0.85161 0.0
H637 H 0.55061 0.59376 0.86225 0.0
H638 H 0.74481 0.7041 0.81719 0.0
H639 H 0.76115 0.64892 0.81499 0.0
H640 H 0.6978 0.7394 0.78077 0.0
H641 H 0.6436 0.75598 0.78937 0.0
C642 C 0.60767 0.64604 0.15927 0.0
C643 C 0.60534 0.67648 0.19554 0.0
C644 C 0.66282 0.63507 0.23519 0.0
C645 C 0.66823 0.60718 0.19741 0.0
N646 N 0.65002 0.58865 0.12136 0.0
N647 N 0.63865 0.70634 0.26272 0.0
C648 C 0.64199 0.61353 0.15865 0.0
C649 C 0.63513 0.67273 0.23205 0.0
N650 N 0.57603 0.64689 0.1266 0.0
N651 N 0.68379 0.62544 0.27442 0.0
H652 H 0.62105 0.73585 0.26018 0.0
H653 H 0.66247 0.70728 0.28788 0.0
H654 H 0.70494 0.59851 0.27822 0.0
H655 H 0.67713 0.64173 0.30435 0.0
H656 H 0.57332 0.62287 0.10163 0.0
H657 H 0.55014 0.66973 0.12646 0.0
H658 H 0.6353 0.5948 0.09056 0.0
H659 H 0.67373 0.56349 0.12057 0.0
C660 C 0.37244 0.64255 0.23042 0.0
C661 C 0.37975 0.67004 0.19275 0.0
C662 C 0.32664 0.62391 0.15005 0.0
C663 C 0.3195 0.59715 0.18874 0.0
N664 N 0.35884 0.56697 0.25227 0.0
N665 N 0.37274 0.67968 0.11323 0.0
C666 C 0.3496 0.60191 0.22484 0.0
C667 C 0.35927 0.65882 0.15139 0.0
N668 N 0.38546 0.65567 0.27212 0.0
N669 N 0.30404 0.61482 0.11158 0.0
H670 H 0.3977 0.70389 0.11283 0.0
H671 H 0.36215 0.67051 0.08144 0.0
H672 H 0.28837 0.58431 0.1058 0.0
H673 H 0.30201 0.63692 0.08498 0.0
H674 H 0.37752 0.63732 0.30055 0.0
H675 H 0.39907 0.68696 0.27895 0.0
H676 H 0.38254 0.56912 0.27761 0.0
H677 H 0.34866 0.53449 0.24494 0.0
C678 C 0.63966 0.31257 0.14915 0.0
C679 C 0.59737 0.32258 0.16695 0.0
C680 C 0.62454 0.39868 0.18139 0.0
C681 C 0.66897 0.38322 0.17749 0.0
N682 N 0.71796 0.32123 0.16087 0.0
N683 N 0.54635 0.37996 0.18895 0.0
C684 C 0.67644 0.33915 0.16181 0.0
C685 C 0.58875 0.36729 0.17974 0.0
N686 N 0.64465 0.27938 0.11845 0.0
N687 N 0.61654 0.44334 0.18426 0.0
H688 H 0.51897 0.36013 0.18066 0.0
H689 H 0.53846 0.40992 0.20449 0.0
H690 H 0.64171 0.46725 0.18218 0.0
H691 H 0.58491 0.45701 0.18377 0.0
H692 H 0.6749 0.27291 0.10299 0.0
H693 H 0.6176 0.26384 0.10306 0.0
H694 H 0.72327 0.28769 0.15362 0.0
H695 H 0.74642 0.33784 0.17156 0.0
C696 C 0.22579 0.97082 0.48584 0.0
C697 C 0.18867 0.94792 0.50395 0.0
C698 C 0.15536 0.01848 0.52712 0.0
C699 C 0.19289 0.04131 0.50983 0.0
N700 N 0.26679 0.04054 0.47966 0.0
N701 N 0.12058 0.94815 0.54634 0.0
C702 C 0.22902 0.01781 0.49112 0.0
C703 C 0.15432 0.97123 0.5262 0.0
N704 N 0.2576 0.94759 0.46331 0.0
N705 N 0.11974 0.04209 0.54229 0.0
H706 H 0.11642 0.91377 0.54353 0.0
H707 H 0.0978 0.96256 0.56793 0.0
H708 H 0.11969 0.0767 0.54506 0.0
H709 H 0.08904 0.02791 0.54969 0.0
H710 H 0.28299 0.96247 0.4451 0.0
H711 H 0.25742 0.91294 0.46079 0.0
H712 H 0.29601 0.02534 0.46956 0.0
H713 H 0.27014 0.07494 0.48358 0.0
C714 C 0.02219 0.13752 0.48362 0.0
C715 C 0.04573 0.17708 0.49481 0.0
C716 C 0.97606 0.2161 0.509 0.0
C717 C 0.95241 0.17723 0.49562 0.0
N718 N 0.95144 0.10215 0.46677 0.0
N719 N 0.04663 0.25553 0.51186 0.0
C720 C 0.97507 0.13826 0.48186 0.0
C721 C 0.0231 0.21679 0.50599 0.0
N722 N 0.04501 0.09903 0.47594 0.0
N723 N 0.95348 0.25226 0.52467 0.0
H724 H 0.08116 0.25721 0.50998 0.0
H725 H 0.03214 0.28668 0.51539 0.0
H726 H 0.91895 0.25413 0.52485 0.0
H727 H 0.96869 0.27956 0.53991 0.0
H728 H 0.03013 0.06781 0.47285 0.0
H729 H 0.07956 0.09772 0.47517 0.0
H730 H 0.96568 0.07459 0.45152 0.0
H731 H 0.91688 0.10047 0.46731 0.0
C732 C 0.76259 0.02013 0.48829 0.0
C733 C 0.80061 0.04303 0.50468 0.0
C734 C 0.83593 0.97257 0.52433 0.0
C735 C 0.79779 0.94976 0.5082 0.0
N736 N 0.72242 0.94994 0.4816 0.0
N737 N 0.8715 0.04295 0.5425 0.0
C738 C 0.76035 0.97303 0.49208 0.0
C739 C 0.83661 0.01979 0.52423 0.0
N740 N 0.72897 0.04352 0.4688 0.0
N741 N 0.87217 0.9489 0.53789 0.0
H742 H 0.87515 0.0774 0.54014 0.0
H743 H 0.89606 0.02856 0.56203 0.0
H744 H 0.8722 0.91428 0.54043 0.0
H745 H 0.90311 0.96297 0.54453 0.0
H746 H 0.70255 0.02892 0.45171 0.0
H747 H 0.72839 0.07822 0.46796 0.0
H748 H 0.69245 0.96482 0.4734 0.0
H749 H 0.7199 0.91536 0.48417 0.0
C750 C 0.01282 0.77609 0.51618 0.0
C751 C 0.03653 0.8141 0.50096 0.0
C752 C 0.96693 0.8522 0.48382 0.0
C753 C 0.94341 0.81314 0.49632 0.0
N754 N 0.94242 0.7364 0.51961 0.0
N755 N 0.03791 0.88751 0.46844 0.0
C756 C 0.96591 0.77471 0.5115 0.0
C757 C 0.01404 0.85199 0.48429 0.0
N758 N 0.03524 0.74139 0.53502 0.0
N759 N 0.94405 0.88981 0.47274 0.0
H760 H 0.07235 0.88993 0.47109 0.0
H761 H 0.0241 0.91387 0.45093 0.0
H762 H 0.90956 0.89061 0.47018 0.0
H763 H 0.95868 0.92097 0.46845 0.0
H764 H 0.01987 0.71492 0.55128 0.0
H765 H 0.06975 0.74015 0.53692 0.0
H766 H 0.95691 0.70578 0.52624 0.0
H767 H 0.90798 0.73427 0.51659 0.0
C768 C 0.49768 0.22077 0.96762 0.0
C769 C 0.48358 0.18146 0.94497 0.0
C770 C 0.46818 0.14489 0.01643 0.0
C771 C 0.48154 0.18443 0.03895 0.0
N772 N 0.50232 0.26192 0.03745 0.0
N773 N 0.45031 0.1081 0.94647 0.0
C774 C 0.4945 0.22294 0.01492 0.0
C775 C 0.46701 0.14421 0.96901 0.0
N776 N 0.51434 0.2559 0.94378 0.0
N777 N 0.4586 0.10736 0.04047 0.0
H778 H 0.45144 0.1049 0.91188 0.0
H779 H 0.43293 0.08221 0.96162 0.0
H780 H 0.45762 0.10685 0.07521 0.0
H781 H 0.45424 0.07591 0.02644 0.0
H782 H 0.53037 0.2832 0.95812 0.0
H783 H 0.5139 0.25711 0.90903 0.0
H784 H 0.50764 0.29249 0.02205 0.0
H785 H 0.50031 0.2645 0.07209 0.0
C786 C 0.7622 0.48264 0.96988 0.0
C787 C 0.80323 0.49186 0.94846 0.0
C788 C 0.83584 0.51547 0.01917 0.0
C789 C 0.79691 0.50108 0.04132 0.0
N790 N 0.72447 0.46658 0.03942 0.0
N791 N 0.88182 0.5066 0.95401 0.0
C792 C 0.76048 0.48318 0.01717 0.0
C793 C 0.84085 0.5055 0.97344 0.0
N794 N 0.7246 0.4755 0.9452 0.0
N795 N 0.86786 0.53893 0.04163 0.0
H796 H 0.8871 0.49657 0.92114 0.0
H797 H 0.91103 0.5124 0.97179 0.0
H798 H 0.86542 0.54692 0.07539 0.0
H799 H 0.89489 0.55384 0.02586 0.0
H800 H 0.69306 0.47312 0.95911 0.0
H801 H 0.72421 0.47579 0.91043 0.0
H802 H 0.69919 0.44849 0.02387 0.0
H803 H 0.7212 0.46859 0.07401 0.0
C804 C 0.46583 0.83808 0.01843 0.0
C805 C 0.48637 0.80184 0.04062 0.0
C806 C 0.50277 0.7664 0.96893 0.0
C807 C 0.48506 0.80407 0.94687 0.0
N808 N 0.45443 0.87793 0.94909 0.0
N809 N 0.52789 0.73356 0.03835 0.0
C810 C 0.46764 0.84044 0.97119 0.0
C811 C 0.50597 0.76659 0.01623 0.0
N812 N 0.44441 0.8701 0.04256 0.0
N813 N 0.51512 0.72993 0.94459 0.0
H814 H 0.52893 0.73145 0.07304 0.0
H815 H 0.54722 0.70964 0.02263 0.0
H816 H 0.51336 0.72876 0.90985 0.0
H817 H 0.524 0.69962 0.95861 0.0
H818 H 0.4243 0.89431 0.02841 0.0
H819 H 0.44447 0.87119 0.07729 0.0
H820 H 0.44657 0.90774 0.96487 0.0
H821 H 0.45415 0.8804 0.91441 0.0
C822 C 0.14808 0.4658 0.97034 0.0
C823 C 0.1855 0.48193 0.94648 0.0
C824 C 0.22507 0.497 0.01665 0.0
C825 C 0.18655 0.4839 0.04035 0.0
N826 N 0.1108 0.4574 0.04147 0.0
N827 N 0.25927 0.51352 0.94522 0.0
C828 C 0.14805 0.46821 0.01766 0.0
C829 C 0.22396 0.49773 0.9692 0.0
N830 N 0.11245 0.44844 0.94764 0.0
N831 N 0.26308 0.50709 0.0397 0.0
H832 H 0.26107 0.51125 0.91055 0.0
H833 H 0.2862 0.53036 0.95916 0.0
H834 H 0.26484 0.50656 0.07445 0.0
H835 H 0.29368 0.5131 0.02488 0.0
H836 H 0.08652 0.43105 0.96259 0.0
H837 H 0.10933 0.44943 0.91305 0.0
H838 H 0.07985 0.4511 0.02735 0.0
H839 H 0.10989 0.45688 0.07618 0.0
C840 C 0.01437 0.49827 0.21674 0.0
C841 C 0.03661 0.50211 0.17524 0.0
C842 C 0.96601 0.49671 0.1354 0.0
C843 C 0.94343 0.49636 0.17679 0.0
N844 N 0.94469 0.50288 0.25693 0.0
N845 N 0.03378 0.5151 0.09609 0.0
C846 C 0.96721 0.49889 0.21758 0.0
C847 C 0.01246 0.50444 0.13481 0.0
N848 N 0.03835 0.49315 0.25514 0.0
N849 N 0.94334 0.48779 0.09687 0.0
H850 H 0.06766 0.52232 0.09497 0.0
H851 H 0.0173 0.52117 0.06618 0.0
H852 H 0.90952 0.48022 0.09647 0.0
H853 H 0.9587 0.48352 0.06609 0.0
H854 H 0.0242 0.48511 0.28573 0.0
H855 H 0.07296 0.49428 0.25597 0.0
H856 H 0.96003 0.50969 0.28735 0.0
H857 H 0.91013 0.50248 0.2588 0.0
C858 C 0.96886 0.47783 0.76921 0.0
C859 C 0.94621 0.49994 0.80417 0.0
C860 C 0.01664 0.51714 0.84124 0.0
C861 C 0.03947 0.49775 0.80483 0.0
N862 N 0.03852 0.46666 0.73055 0.0
N863 N 0.94808 0.54802 0.86889 0.0
C864 C 0.01593 0.47989 0.76778 0.0
C865 C 0.96997 0.52204 0.8387 0.0
N866 N 0.94537 0.45487 0.73746 0.0
N867 N 0.03922 0.52873 0.87921 0.0
H868 H 0.91375 0.55181 0.86891 0.0
H869 H 0.96421 0.56876 0.8917 0.0
H870 H 0.07342 0.52509 0.88277 0.0
H871 H 0.02364 0.53812 0.9087 0.0
H872 H 0.95993 0.43367 0.71429 0.0
H873 H 0.91081 0.45495 0.73579 0.0
H874 H 0.02315 0.45757 0.70075 0.0
H875 H 0.073 0.46838 0.72801 0.0
C876 C 0.51234 0.01465 0.83935 0.0
C877 C 0.5022 0.03817 0.79968 0.0
C878 C 0.48087 0.96833 0.76246 0.0
C879 C 0.49383 0.94462 0.80113 0.0
N880 N 0.52699 0.9437 0.87449 0.0
N881 N 0.48293 0.03813 0.72168 0.0
C882 C 0.51118 0.96736 0.83898 0.0
C883 C 0.48806 0.01518 0.76069 0.0
N884 N 0.52092 0.03754 0.87797 0.0
N885 N 0.46138 0.94601 0.72771 0.0
H886 H 0.48844 0.07238 0.71924 0.0
H887 H 0.47678 0.02303 0.691 0.0
H888 H 0.45686 0.91156 0.72755 0.0
H889 H 0.44693 0.96166 0.70043 0.0
H890 H 0.52286 0.02253 0.90916 0.0
H891 H 0.52291 0.07218 0.87962 0.0
H892 H 0.54502 0.95796 0.90057 0.0
H893 H 0.52457 0.90913 0.87674 0.0
C894 C 0.48271 0.97003 0.21793 0.0
C895 C 0.49541 0.94716 0.17859 0.0
C896 C 0.51081 0.01795 0.14105 0.0
C897 C 0.49531 0.04097 0.1794 0.0
N898 N 0.46339 0.04016 0.25313 0.0
N899 N 0.51682 0.9477 0.10127 0.0
C900 C 0.48024 0.01732 0.2175 0.0
C901 C 0.50831 0.97067 0.13976 0.0
N902 N 0.4743 0.94643 0.25602 0.0
N903 N 0.52822 0.04131 0.106 0.0
H904 H 0.51679 0.913 0.09953 0.0
H905 H 0.52109 0.96269 0.07032 0.0
H906 H 0.52864 0.07598 0.1045 0.0
H907 H 0.54472 0.02662 0.07938 0.0
H908 H 0.46948 0.96096 0.28714 0.0
H909 H 0.47505 0.91172 0.25728 0.0
H910 H 0.44694 0.02507 0.27961 0.0
H911 H 0.46377 0.07482 0.25537 0.0
loop_
_geom_bond_atom_site_label_1
_geom_bond_atom_site_label_2
_geom_bond_distance
_geom_bond_site_symmetry_2
_ccdc_geom_bond_type
Sc0 O3 2.025 . S
Sc0 O10 2.105 . S
Sc0 O13 2.105 . S
Sc0 O16 2.105 . S
Sc0 O19 2.105 . S
Sc1 O3 2.025 . S
Sc1 O11 2.105 . S
Sc1 O15 2.105 . S
Sc1 O17 2.105 . S
Sc1 O21 2.105 . S
Sc2 O3 2.025 . S
Sc2 O12 2.105 . S
Sc2 O14 2.105 . S
Sc2 O18 2.105 . S
Sc2 O20 2.105 . S
O3 Sc0 2.025 . S
O3 Sc1 2.025 . S
O3 Sc2 2.025 . S
C4 O10 1.268 . S
C4 O20 1.268 . S
C5 O11 1.268 . S
C5 O19 1.268 . S
C6 O12 1.268 . S
C6 O21 1.268 . S
C7 O13 1.268 . S
C7 O17 1.268 . S
C8 O14 1.268 . S
C8 O16 1.268 . S
C9 O15 1.268 . S
C9 O18 1.268 . S
O10 Sc0 2.105 . S
O10 C4 1.268 . S
O11 Sc1 2.105 . S
O11 C5 1.268 . S
O12 Sc2 2.105 . S
O12 C6 1.268 . S
O13 Sc0 2.105 . S
O13 C7 1.268 . S
O14 Sc2 2.105 . S
O14 C8 1.268 . S
O15 Sc1 2.105 . S
O15 C9 1.268 . S
O16 Sc0 2.105 . S
O16 C8 1.268 . S
O17 Sc1 2.105 . S
O17 C7 1.268 . S
O18 Sc2 2.105 . S
O18 C9 1.268 . S
O19 Sc0 2.105 . S
O19 C5 1.268 . S
O20 Sc2 2.105 . S
O20 C4 1.268 . S
O21 Sc1 2.105 . S
O21 C6 1.268 . S
Sc22 O25 2.025 . S
Sc22 O32 2.105 . S
Sc22 O35 2.105 . S
Sc22 O38 2.105 . S
Sc22 O41 2.105 . S
Sc23 O25 2.025 . S
Sc23 O33 2.105 . S
Sc23 O37 2.105 . S
Sc23 O39 2.105 . S
Sc23 O43 2.105 . S
Sc24 O25 2.025 . S
Sc24 O34 2.105 . S
Sc24 O36 2.105 . S
Sc24 O40 2.105 . S
Sc24 O42 2.105 . S
O25 Sc22 2.025 . S
O25 Sc23 2.025 . S
O25 Sc24 2.025 . S
C26 O32 1.268 . S
C26 O42 1.268 . S
C27 O33 1.268 . S
C27 O41 1.268 . S
C28 O34 1.268 . S
C28 O43 1.268 . S
C29 O35 1.268 . S
C29 O39 1.268 . S
C30 O36 1.268 . S
C30 O38 1.268 . S
C31 O37 1.268 . S
C31 O40 1.268 . S
O32 Sc22 2.105 . S
O32 C26 1.268 . S
O33 Sc23 2.105 . S
O33 C27 1.268 . S
O34 Sc24 2.105 . S
O34 C28 1.268 . S
O35 Sc22 2.105 . S
O35 C29 1.268 . S
O36 Sc24 2.105 . S
O36 C30 1.268 . S
O37 Sc23 2.105 . S
O37 C31 1.268 . S
O38 Sc22 2.105 . S
O38 C30 1.268 . S
O39 Sc23 2.105 . S
O39 C29 1.268 . S
O40 Sc24 2.105 . S
O40 C31 1.268 . S
O41 Sc22 2.105 . S
O41 C27 1.268 . S
O42 Sc24 2.105 . S
O42 C26 1.268 . S
O43 Sc23 2.105 . S
O43 C28 1.268 . S
Sc44 O47 2.025 . S
Sc44 O54 2.105 . S
Sc44 O57 2.105 . S
Sc44 O60 2.105 . S
Sc44 O63 2.105 . S
Sc45 O47 2.025 . S
Sc45 O55 2.105 . S
Sc45 O59 2.105 . S
Sc45 O61 2.105 . S
Sc45 O65 2.105 . S
Sc46 O47 2.025 . S
Sc46 O56 2.105 . S
Sc46 O58 2.105 . S
Sc46 O62 2.105 . S
Sc46 O64 2.105 . S
O47 Sc44 2.025 . S
O47 Sc45 2.025 . S
O47 Sc46 2.025 . S
C48 O54 1.268 . S
C48 O64 1.268 . S
C49 O55 1.268 . S
C49 O63 1.268 . S
C50 O56 1.268 . S
C50 O65 1.268 . S
C51 O57 1.268 . S
C51 O61 1.268 . S
C52 O58 1.268 . S
C52 O60 1.268 . S
C53 O59 1.268 . S
C53 O62 1.268 . S
O54 Sc44 2.105 . S
O54 C48 1.268 . S
O55 Sc45 2.105 . S
O55 C49 1.268 . S
O56 Sc46 2.105 . S
O56 C50 1.268 . S
O57 Sc44 2.105 . S
O57 C51 1.268 . S
O58 Sc46 2.105 . S
O58 C52 1.268 . S
O59 Sc45 2.105 . S
O59 C53 1.268 . S
O60 Sc44 2.105 . S
O60 C52 1.268 . S
O61 Sc45 2.105 . S
O61 C51 1.268 . S
O62 Sc46 2.105 . S
O62 C53 1.268 . S
O63 Sc44 2.105 . S
O63 C49 1.268 . S
O64 Sc46 2.105 . S
O64 C48 1.268 . S
O65 Sc45 2.105 . S
O65 C50 1.268 . S
Sc66 O69 2.025 . S
Sc66 O76 2.105 . S
Sc66 O79 2.105 . S
Sc66 O82 2.105 . S
Sc66 O85 2.105 . S
Sc67 O69 2.025 . S
Sc67 O77 2.105 . S
Sc67 O81 2.105 . S
Sc67 O83 2.105 . S
Sc67 O87 2.105 . S
Sc68 O69 2.025 . S
Sc68 O78 2.105 . S
Sc68 O80 2.105 . S
Sc68 O84 2.105 . S
Sc68 O86 2.105 . S
O69 Sc66 2.025 . S
O69 Sc67 2.025 . S
O69 Sc68 2.025 . S
C70 O76 1.268 . S
C70 O86 1.268 . S
C71 O77 1.268 . S
C71 O85 1.268 . S
C72 O78 1.268 . S
C72 O87 1.268 . S
C73 O79 1.268 . S
C73 O83 1.268 . S
C74 O80 1.268 . S
C74 O82 1.268 . S
C75 O81 1.268 . S
C75 O84 1.268 . S
O76 Sc66 2.105 . S
O76 C70 1.268 . S
O77 Sc67 2.105 . S
O77 C71 1.268 . S
O78 Sc68 2.105 . S
O78 C72 1.268 . S
O79 Sc66 2.105 . S
O79 C73 1.268 . S
O80 Sc68 2.105 . S
O80 C74 1.268 . S
O81 Sc67 2.105 . S
O81 C75 1.268 . S
O82 Sc66 2.105 . S
O82 C74 1.268 . S
O83 Sc67 2.105 . S
O83 C73 1.268 . S
O84 Sc68 2.105 . S
O84 C75 1.268 . S
O85 Sc66 2.105 . S
O85 C71 1.268 . S
O86 Sc68 2.105 . S
O86 C70 1.268 . S
O87 Sc67 2.105 . S
O87 C72 1.268 . S
Sc88 O91 2.025 . S
Sc88 O98 2.105 . S
Sc88 O101 2.105 . S
Sc88 O104 2.105 . S
Sc88 O107 2.105 . S
Sc89 O91 2.025 . S
Sc89 O99 2.105 . S
Sc89 O103 2.105 . S
Sc89 O105 2.105 . S
Sc89 O109 2.105 . S
Sc90 O91 2.025 . S
Sc90 O100 2.105 . S
Sc90 O102 2.105 . S
Sc90 O106 2.105 . S
Sc90 O108 2.105 . S
O91 Sc88 2.025 . S
O91 Sc89 2.025 . S
O91 Sc90 2.025 . S
C92 O98 1.268 . S
C92 O108 1.268 . S
C93 O99 1.268 . S
C93 O107 1.268 . S
C94 O100 1.268 . S
C94 O109 1.268 . S
C95 O101 1.268 . S
C95 O105 1.268 . S
C96 O102 1.268 . S
C96 O104 1.268 . S
C97 O103 1.268 . S
C97 O106 1.268 . S
O98 Sc88 2.105 . S
O98 C92 1.268 . S
O99 Sc89 2.105 . S
O99 C93 1.268 . S
O100 Sc90 2.105 . S
O100 C94 1.268 . S
O101 Sc88 2.105 . S
O101 C95 1.268 . S
O102 Sc90 2.105 . S
O102 C96 1.268 . S
O103 Sc89 2.105 . S
O103 C97 1.268 . S
O104 Sc88 2.105 . S
O104 C96 1.268 . S
O105 Sc89 2.105 . S
O105 C95 1.268 . S
O106 Sc90 2.105 . S
O106 C97 1.268 . S
O107 Sc88 2.105 . S
O107 C93 1.268 . S
O108 Sc90 2.105 . S
O108 C92 1.268 . S
O109 Sc89 2.105 . S
O109 C94 1.268 . S
Sc110 O113 2.025 . S
Sc110 O120 2.105 . S
Sc110 O123 2.105 . S
Sc110 O126 2.105 . S
Sc110 O129 2.105 . S
Sc111 O113 2.025 . S
Sc111 O121 2.105 . S
Sc111 O125 2.105 . S
Sc111 O127 2.105 . S
Sc111 O131 2.105 . S
Sc112 O113 2.025 . S
Sc112 O122 2.105 . S
Sc112 O124 2.105 . S
Sc112 O128 2.105 . S
Sc112 O130 2.105 . S
O113 Sc110 2.025 . S
O113 Sc111 2.025 . S
O113 Sc112 2.025 . S
C114 O120 1.268 . S
C114 O130 1.268 . S
C115 O121 1.268 . S
C115 O129 1.268 . S
C116 O122 1.268 . S
C116 O131 1.268 . S
C117 O123 1.268 . S
C117 O127 1.268 . S
C118 O124 1.268 . S
C118 O126 1.268 . S
C119 O125 1.268 . S
C119 O128 1.268 . S
O120 Sc110 2.105 . S
O120 C114 1.268 . S
O121 Sc111 2.105 . S
O121 C115 1.268 . S
O122 Sc112 2.105 . S
O122 C116 1.268 . S
O123 Sc110 2.105 . S
O123 C117 1.268 . S
O124 Sc112 2.105 . S
O124 C118 1.268 . S
O125 Sc111 2.105 . S
O125 C119 1.268 . S
O126 Sc110 2.105 . S
O126 C118 1.268 . S
O127 Sc111 2.105 . S
O127 C117 1.268 . S
O128 Sc112 2.105 . S
O128 C119 1.268 . S
O129 Sc110 2.105 . S
O129 C115 1.268 . S
O130 Sc112 2.105 . S
O130 C114 1.268 . S
O131 Sc111 2.105 . S
O131 C116 1.268 . S
Sc132 O135 2.025 . S
Sc132 O142 2.105 . S
Sc132 O145 2.105 . S
Sc132 O148 2.105 . S
Sc132 O151 2.105 . S
Sc133 O135 2.025 . S
Sc133 O143 2.105 . S
Sc133 O147 2.105 . S
Sc133 O149 2.105 . S
Sc133 O153 2.105 . S
Sc134 O135 2.025 . S
Sc134 O144 2.105 . S
Sc134 O146 2.105 . S
Sc134 O150 2.105 . S
Sc134 O152 2.105 . S
O135 Sc132 2.025 . S
O135 Sc133 2.025 . S
O135 Sc134 2.025 . S
C136 O142 1.268 . S
C136 O152 1.268 . S
C137 O143 1.268 . S
C137 O151 1.268 . S
C138 O144 1.268 . S
C138 O153 1.268 . S
C139 O145 1.268 . S
C139 O149 1.268 . S
C140 O146 1.268 . S
C140 O148 1.268 . S
C141 O147 1.268 . S
C141 O150 1.268 . S
O142 Sc132 2.105 . S
O142 C136 1.268 . S
O143 Sc133 2.105 . S
O143 C137 1.268 . S
O144 Sc134 2.105 . S
O144 C138 1.268 . S
O145 Sc132 2.105 . S
O145 C139 1.268 . S
O146 Sc134 2.105 . S
O146 C140 1.268 . S
O147 Sc133 2.105 . S
O147 C141 1.268 . S
O148 Sc132 2.105 . S
O148 C140 1.268 . S
O149 Sc133 2.105 . S
O149 C139 1.268 . S
O150 Sc134 2.105 . S
O150 C141 1.268 . S
O151 Sc132 2.105 . S
O151 C137 1.268 . S
O152 Sc134 2.105 . S
O152 C136 1.268 . S
O153 Sc133 2.105 . S
O153 C138 1.268 . S
Sc154 O157 2.025 . S
Sc154 O164 2.105 . S
Sc154 O167 2.105 . S
Sc154 O170 2.105 . S
Sc154 O173 2.105 . S
Sc155 O157 2.025 . S
Sc155 O165 2.105 . S
Sc155 O169 2.105 . S
Sc155 O171 2.105 . S
Sc155 O175 2.105 . S
Sc156 O157 2.025 . S
Sc156 O166 2.105 . S
Sc156 O168 2.105 . S
Sc156 O172 2.105 . S
Sc156 O174 2.105 . S
O157 Sc154 2.025 . S
O157 Sc155 2.025 . S
O157 Sc156 2.025 . S
C158 O164 1.268 . S
C158 O174 1.268 . S
C159 O165 1.268 . S
C159 O173 1.268 . S
C160 O166 1.268 . S
C160 O175 1.268 . S
C161 O167 1.268 . S
C161 O171 1.268 . S
C162 O168 1.268 . S
C162 O170 1.268 . S
C163 O169 1.268 . S
C163 O172 1.268 . S
O164 Sc154 2.105 . S
O164 C158 1.268 . S
O165 Sc155 2.105 . S
O165 C159 1.268 . S
O166 Sc156 2.105 . S
O166 C160 1.268 . S
O167 Sc154 2.105 . S
O167 C161 1.268 . S
O168 Sc156 2.105 . S
O168 C162 1.268 . S
O169 Sc155 2.105 . S
O169 C163 1.268 . S
O170 Sc154 2.105 . S
O170 C162 1.268 . S
O171 Sc155 2.105 . S
O171 C161 1.268 . S
O172 Sc156 2.105 . S
O172 C163 1.268 . S
O173 Sc154 2.105 . S
O173 C159 1.268 . S
O174 Sc156 2.105 . S
O174 C158 1.268 . S
O175 Sc155 2.105 . S
O175 C160 1.268 . S
Sc176 O179 2.025 . S
Sc176 O186 2.105 . S
Sc176 O189 2.105 . S
Sc176 O192 2.105 . S
Sc176 O195 2.105 . S
Sc177 O179 2.025 . S
Sc177 O187 2.105 . S
Sc177 O191 2.105 . S
Sc177 O193 2.105 . S
Sc177 O197 2.105 . S
Sc178 O179 2.025 . S
Sc178 O188 2.105 . S
Sc178 O190 2.105 . S
Sc178 O194 2.105 . S
Sc178 O196 2.105 . S
O179 Sc176 2.025 . S
O179 Sc177 2.025 . S
O179 Sc178 2.025 . S
C180 O186 1.268 . S
C180 O196 1.268 . S
C181 O187 1.268 . S
C181 O195 1.268 . S
C182 O188 1.268 . S
C182 O197 1.268 . S
C183 O189 1.268 . S
C183 O193 1.268 . S
C184 O190 1.268 . S
C184 O192 1.268 . S
C185 O191 1.268 . S
C185 O194 1.268 . S
O186 Sc176 2.105 . S
O186 C180 1.268 . S
O187 Sc177 2.105 . S
O187 C181 1.268 . S
O188 Sc178 2.105 . S
O188 C182 1.268 . S
O189 Sc176 2.105 . S
O189 C183 1.268 . S
O190 Sc178 2.105 . S
O190 C184 1.268 . S
O191 Sc177 2.105 . S
O191 C185 1.268 . S
O192 Sc176 2.105 . S
O192 C184 1.268 . S
O193 Sc177 2.105 . S
O193 C183 1.268 . S
O194 Sc178 2.105 . S
O194 C185 1.268 . S
O195 Sc176 2.105 . S
O195 C181 1.268 . S
O196 Sc178 2.105 . S
O196 C180 1.268 . S
O197 Sc177 2.105 . S
O197 C182 1.268 . S
Sc198 O201 2.025 . S
Sc198 O208 2.105 . S
Sc198 O211 2.105 . S
Sc198 O214 2.105 . S
Sc198 O217 2.105 . S
Sc199 O201 2.025 . S
Sc199 O209 2.105 . S
Sc199 O213 2.105 . S
Sc199 O215 2.105 . S
Sc199 O219 2.105 . S
Sc200 O201 2.025 . S
Sc200 O210 2.105 . S
Sc200 O212 2.105 . S
Sc200 O216 2.105 . S
Sc200 O218 2.105 . S
O201 Sc198 2.025 . S
O201 Sc199 2.025 . S
O201 Sc200 2.025 . S
C202 O208 1.268 . S
C202 O218 1.268 . S
C203 O209 1.268 . S
C203 O217 1.268 . S
C204 O210 1.268 . S
C204 O219 1.268 . S
C205 O211 1.268 . S
C205 O215 1.268 . S
C206 O212 1.268 . S
C206 O214 1.268 . S
C207 O213 1.268 . S
C207 O216 1.268 . S
O208 Sc198 2.105 . S
O208 C202 1.268 . S
O209 Sc199 2.105 . S
O209 C203 1.268 . S
O210 Sc200 2.105 . S
O210 C204 1.268 . S
O211 Sc198 2.105 . S
O211 C205 1.268 . S
O212 Sc200 2.105 . S
O212 C206 1.268 . S
O213 Sc199 2.105 . S
O213 C207 1.268 . S
O214 Sc198 2.105 . S
O214 C206 1.268 . S
O215 Sc199 2.105 . S
O215 C205 1.268 . S
O216 Sc200 2.105 . S
O216 C207 1.268 . S
O217 Sc198 2.105 . S
O217 C203 1.268 . S
O218 Sc200 2.105 . S
O218 C202 1.268 . S
O219 Sc199 2.105 . S
O219 C204 1.268 . S
Sc220 O223 2.025 . S
Sc220 O230 2.105 . S
Sc220 O233 2.105 . S
Sc220 O236 2.105 . S
Sc220 O239 2.105 . S
Sc221 O223 2.025 . S
Sc221 O231 2.105 . S
Sc221 O235 2.105 . S
Sc221 O237 2.105 . S
Sc221 O241 2.105 . S
Sc222 O223 2.025 . S
Sc222 O232 2.105 . S
Sc222 O234 2.105 . S
Sc222 O238 2.105 . S
Sc222 O240 2.105 . S
O223 Sc220 2.025 . S
O223 Sc221 2.025 . S
O223 Sc222 2.025 . S
C224 O230 1.268 . S
C224 O240 1.268 . S
C225 O231 1.268 . S
C225 O239 1.268 . S
C226 O232 1.268 . S
C226 O241 1.268 . S
C227 O233 1.268 . S
C227 O237 1.268 . S
C228 O234 1.268 . S
C228 O236 1.268 . S
C229 O235 1.268 . S
C229 O238 1.268 . S
O230 Sc220 2.105 . S
O230 C224 1.268 . S
O231 Sc221 2.105 . S
O231 C225 1.268 . S
O232 Sc222 2.105 . S
O232 C226 1.268 . S
O233 Sc220 2.105 . S
O233 C227 1.268 . S
O234 Sc222 2.105 . S
O234 C228 1.268 . S
O235 Sc221 2.105 . S
O235 C229 1.268 . S
O236 Sc220 2.105 . S
O236 C228 1.268 . S
O237 Sc221 2.105 . S
O237 C227 1.268 . S
O238 Sc222 2.105 . S
O238 C229 1.268 . S
O239 Sc220 2.105 . S
O239 C225 1.268 . S
O240 Sc222 2.105 . S
O240 C224 1.268 . S
O241 Sc221 2.105 . S
O241 C226 1.268 . S
Sc242 O245 2.025 . S
Sc242 O252 2.105 . S
Sc242 O255 2.105 . S
Sc242 O258 2.105 . S
Sc242 O261 2.105 . S
Sc243 O245 2.025 . S
Sc243 O253 2.105 . S
Sc243 O257 2.105 . S
Sc243 O259 2.105 . S
Sc243 O263 2.105 . S
Sc244 O245 2.025 . S
Sc244 O254 2.105 . S
Sc244 O256 2.105 . S
Sc244 O260 2.105 . S
Sc244 O262 2.105 . S
O245 Sc242 2.025 . S
O245 Sc243 2.025 . S
O245 Sc244 2.025 . S
C246 O252 1.268 . S
C246 O262 1.268 . S
C247 O253 1.268 . S
C247 O261 1.268 . S
C248 O254 1.268 . S
C248 O263 1.268 . S
C249 O255 1.268 . S
C249 O259 1.268 . S
C250 O256 1.268 . S
C250 O258 1.268 . S
C251 O257 1.268 . S
C251 O260 1.268 . S
O252 Sc242 2.105 . S
O252 C246 1.268 . S
O253 Sc243 2.105 . S
O253 C247 1.268 . S
O254 Sc244 2.105 . S
O254 C248 1.268 . S
O255 Sc242 2.105 . S
O255 C249 1.268 . S
O256 Sc244 2.105 . S
O256 C250 1.268 . S
O257 Sc243 2.105 . S
O257 C251 1.268 . S
O258 Sc242 2.105 . S
O258 C250 1.268 . S
O259 Sc243 2.105 . S
O259 C249 1.268 . S
O260 Sc244 2.105 . S
O260 C251 1.268 . S
O261 Sc242 2.105 . S
O261 C247 1.268 . S
O262 Sc244 2.105 . S
O262 C246 1.268 . S
O263 Sc243 2.105 . S
O263 C248 1.268 . S
C264 C265 1.363 . S
C264 C270 1.379 . S
C264 N272 1.356 . S
C265 C264 1.363 . S
C265 C271 1.363 . S
C266 C267 1.363 . S
C266 C271 1.379 . S
C266 N273 1.356 . S
C267 C266 1.363 . S
C267 C270 1.363 . S
N268 C270 1.356 . S
N268 H280 0.984 . S
N268 H281 0.985 . S
N269 C271 1.356 . S
N269 H274 0.984 . S
N269 H275 0.985 . S
C270 C264 1.379 . S
C270 C267 1.363 . S
C270 N268 1.356 . S
C271 C265 1.363 . S
C271 C266 1.379 . S
C271 N269 1.356 . S
N272 C264 1.356 . S
N272 H278 0.984 . S
N272 H279 0.984 . S
N273 C266 1.356 . S
N273 H276 0.984 . S
N273 H277 0.985 . S
H274 N269 0.984 . S
H275 N269 0.985 . S
H276 N273 0.984 . S
H277 N273 0.985 . S
H278 N272 0.984 . S
H279 N272 0.984 . S
H280 N268 0.984 . S
H281 N268 0.985 . S
C282 C283 1.363 . S
C282 C288 1.379 . S
C282 N290 1.356 . S
C283 C282 1.363 . S
C283 C289 1.363 . S
C284 C285 1.363 . S
C284 C289 1.379 . S
C284 N291 1.356 . S
C285 C284 1.363 . S
C285 C288 1.363 . S
N286 C288 1.356 . S
N286 H298 0.984 . S
N286 H299 0.985 . S
N287 C289 1.356 . S
N287 H292 0.984 . S
N287 H293 0.985 . S
C288 C282 1.379 . S
C288 C285 1.363 . S
C288 N286 1.356 . S
C289 C283 1.363 . S
C289 C284 1.379 . S
C289 N287 1.356 . S
N290 C282 1.356 . S
N290 H296 0.984 . S
N290 H297 0.984 . S
N291 C284 1.356 . S
N291 H294 0.984 . S
N291 H295 0.985 . S
H292 N287 0.984 . S
H293 N287 0.985 . S
H294 N291 0.984 . S
H295 N291 0.985 . S
H296 N290 0.984 . S
H297 N290 0.984 . S
H298 N286 0.984 . S
H299 N286 0.985 . S
C300 C301 1.363 . S
C300 C306 1.379 . S
C300 N308 1.356 . S
C301 C300 1.363 . S
C301 C307 1.363 . S
C302 C303 1.363 . S
C302 C307 1.379 . S
C302 N309 1.356 . S
C303 C302 1.363 . S
C303 C306 1.363 . S
N304 C306 1.356 . S
N304 H316 0.984 . S
N304 H317 0.985 . S
N305 C307 1.356 . S
N305 H310 0.984 . S
N305 H311 0.985 . S
C306 C300 1.379 . S
C306 C303 1.363 . S
C306 N304 1.356 . S
C307 C301 1.363 . S
C307 C302 1.379 . S
C307 N305 1.356 . S
N308 C300 1.356 . S
N308 H314 0.984 . S
N308 H315 0.984 . S
N309 C302 1.356 . S
N309 H312 0.984 . S
N309 H313 0.985 . S
H310 N305 0.984 . S
H311 N305 0.985 . S
H312 N309 0.984 . S
H313 N309 0.985 . S
H314 N308 0.984 . S
H315 N308 0.984 . S
H316 N304 0.984 . S
H317 N304 0.985 . S
C318 C319 1.363 . S
C318 C324 1.379 . S
C318 N326 1.356 . S
C319 C318 1.363 . S
C319 C325 1.363 . S
C320 C321 1.363 . S
C320 C325 1.379 . S
C320 N327 1.356 . S
C321 C320 1.363 . S
C321 C324 1.363 . S
N322 C324 1.356 . S
N322 H334 0.984 . S
N322 H335 0.985 . S
N323 C325 1.356 . S
N323 H328 0.984 . S
N323 H329 0.985 . S
C324 C318 1.379 . S
C324 C321 1.363 . S
C324 N322 1.356 . S
C325 C319 1.363 . S
C325 C320 1.379 . S
C325 N323 1.356 . S
N326 C318 1.356 . S
N326 H332 0.984 . S
N326 H333 0.984 . S
N327 C320 1.356 . S
N327 H330 0.984 . S
N327 H331 0.985 . S
H328 N323 0.984 . S
H329 N323 0.985 . S
H330 N327 0.984 . S
H331 N327 0.985 . S
H332 N326 0.984 . S
H333 N326 0.984 . S
H334 N322 0.984 . S
H335 N322 0.985 . S
C336 C337 1.363 . S
C336 C342 1.379 . S
C336 N344 1.356 . S
C337 C336 1.363 . S
C337 C343 1.363 . S
C338 C339 1.363 . S
C338 C343 1.379 . S
C338 N345 1.356 . S
C339 C338 1.363 . S
C339 C342 1.363 . S
N340 C342 1.356 . S
N340 H352 0.984 . S
N340 H353 0.985 . S
N341 C343 1.356 . S
N341 H346 0.984 . S
N341 H347 0.985 . S
C342 C336 1.379 . S
C342 C339 1.363 . S
C342 N340 1.356 . S
C343 C337 1.363 . S
C343 C338 1.379 . S
C343 N341 1.356 . S
N344 C336 1.356 . S
N344 H350 0.984 . S
N344 H351 0.984 . S
N345 C338 1.356 . S
N345 H348 0.984 . S
N345 H349 0.985 . S
H346 N341 0.984 . S
H347 N341 0.985 . S
H348 N345 0.984 . S
H349 N345 0.985 . S
H350 N344 0.984 . S
H351 N344 0.984 . S
H352 N340 0.984 . S
H353 N340 0.985 . S
C354 C355 1.363 . S
C354 C360 1.379 . S
C354 N362 1.356 . S
C355 C354 1.363 . S
C355 C361 1.363 . S
C356 C357 1.363 . S
C356 C361 1.379 . S
C356 N363 1.356 . S
C357 C356 1.363 . S
C357 C360 1.363 . S
N358 C360 1.356 . S
N358 H370 0.984 . S
N358 H371 0.985 . S
N359 C361 1.356 . S
N359 H364 0.984 . S
N359 H365 0.985 . S
C360 C354 1.379 . S
C360 C357 1.363 . S
C360 N358 1.356 . S
C361 C355 1.363 . S
C361 C356 1.379 . S
C361 N359 1.356 . S
N362 C354 1.356 . S
N362 H368 0.984 . S
N362 H369 0.984 . S
N363 C356 1.356 . S
N363 H366 0.984 . S
N363 H367 0.985 . S
H364 N359 0.984 . S
H365 N359 0.985 . S
H366 N363 0.984 . S
H367 N363 0.985 . S
H368 N362 0.984 . S
H369 N362 0.984 . S
H370 N358 0.984 . S
H371 N358 0.985 . S
C372 C373 1.363 . S
C372 C378 1.379 . S
C372 N380 1.356 . S
C373 C372 1.363 . S
C373 C379 1.363 . S
C374 C375 1.363 . S
C374 C379 1.379 . S
C374 N381 1.356 . S
C375 C374 1.363 . S
C375 C378 1.363 . S
N376 C378 1.356 . S
N376 H388 0.984 . S
N376 H389 0.985 . S
N377 C379 1.356 . S
N377 H382 0.984 . S
N377 H383 0.985 . S
C378 C372 1.379 . S
C378 C375 1.363 . S
C378 N376 1.356 . S
C379 C373 1.363 . S
C379 C374 1.379 . S
C379 N377 1.356 . S
N380 C372 1.356 . S
N380 H386 0.984 . S
N380 H387 0.984 . S
N381 C374 1.356 . S
N381 H384 0.984 . S
N381 H385 0.985 . S
H382 N377 0.984 . S
H383 N377 0.985 . S
H384 N381 0.984 . S
H385 N381 0.985 . S
H386 N380 0.984 . S
H387 N380 0.984 . S
H388 N376 0.984 . S
H389 N376 0.985 . S
C390 C391 1.363 . S
C390 C396 1.379 . S
C390 N398 1.356 . S
C391 C390 1.363 . S
C391 C397 1.363 . S
C392 C393 1.363 . S
C392 C397 1.379 . S
C392 N399 1.356 . S
C393 C392 1.363 . S
C393 C396 1.363 . S
N394 C396 1.356 . S
N394 H406 0.984 . S
N394 H407 0.985 . S
N395 C397 1.356 . S
N395 H400 0.984 . S
N395 H401 0.985 . S
C396 C390 1.379 . S
C396 C393 1.363 . S
C396 N394 1.356 . S
C397 C391 1.363 . S
C397 C392 1.379 . S
C397 N395 1.356 . S
N398 C390 1.356 . S
N398 H404 0.984 . S
N398 H405 0.984 . S
N399 C392 1.356 . S
N399 H402 0.984 . S
N399 H403 0.985 . S
H400 N395 0.984 . S
H401 N395 0.985 . S
H402 N399 0.984 . S
H403 N399 0.985 . S
H404 N398 0.984 . S
H405 N398 0.984 . S
H406 N394 0.984 . S
H407 N394 0.985 . S
C408 C409 1.363 . S
C408 C414 1.379 . S
C408 N416 1.356 . S
C409 C408 1.363 . S
C409 C415 1.363 . S
C410 C411 1.363 . S
C410 C415 1.379 . S
C410 N417 1.356 . S
C411 C410 1.363 . S
C411 C414 1.363 . S
N412 C414 1.356 . S
N412 H424 0.984 . S
N412 H425 0.985 . S
N413 C415 1.356 . S
N413 H418 0.984 . S
N413 H419 0.985 . S
C414 C408 1.379 . S
C414 C411 1.363 . S
C414 N412 1.356 . S
C415 C409 1.363 . S
C415 C410 1.379 . S
C415 N413 1.356 . S
N416 C408 1.356 . S
N416 H422 0.984 . S
N416 H423 0.984 . S
N417 C410 1.356 . S
N417 H420 0.984 . S
N417 H421 0.985 . S
H418 N413 0.984 . S
H419 N413 0.985 . S
H420 N417 0.984 . S
H421 N417 0.985 . S
H422 N416 0.984 . S
H423 N416 0.984 . S
H424 N412 0.984 . S
H425 N412 0.985 . S
C426 C427 1.363 . S
C426 C432 1.379 . S
C426 N434 1.356 . S
C427 C426 1.363 . S
C427 C433 1.363 . S
C428 C429 1.363 . S
C428 C433 1.379 . S
C428 N435 1.356 . S
C429 C428 1.363 . S
C429 C432 1.363 . S
N430 C432 1.356 . S
N430 H442 0.984 . S
N430 H443 0.985 . S
N431 C433 1.356 . S
N431 H436 0.984 . S
N431 H437 0.985 . S
C432 C426 1.379 . S
C432 C429 1.363 . S
C432 N430 1.356 . S
C433 C427 1.363 . S
C433 C428 1.379 . S
C433 N431 1.356 . S
N434 C426 1.356 . S
N434 H440 0.984 . S
N434 H441 0.984 . S
N435 C428 1.356 . S
N435 H438 0.984 . S
N435 H439 0.985 . S
H436 N431 0.984 . S
H437 N431 0.985 . S
H438 N435 0.984 . S
H439 N435 0.985 . S
H440 N434 0.984 . S
H441 N434 0.984 . S
H442 N430 0.984 . S
H443 N430 0.985 . S
C444 C445 1.363 . S
C444 C450 1.379 . S
C444 N452 1.356 . S
C445 C444 1.363 . S
C445 C451 1.363 . S
C446 C447 1.363 . S
C446 C451 1.379 . S
C446 N453 1.356 . S
C447 C446 1.363 . S
C447 C450 1.363 . S
N448 C450 1.356 . S
N448 H460 0.984 . S
N448 H461 0.985 . S
N449 C451 1.356 . S
N449 H454 0.984 . S
N449 H455 0.985 . S
C450 C444 1.379 . S
C450 C447 1.363 . S
C450 N448 1.356 . S
C451 C445 1.363 . S
C451 C446 1.379 . S
C451 N449 1.356 . S
N452 C444 1.356 . S
N452 H458 0.984 . S
N452 H459 0.984 . S
N453 C446 1.356 . S
N453 H456 0.984 . S
N453 H457 0.985 . S
H454 N449 0.984 . S
H455 N449 0.985 . S
H456 N453 0.984 . S
H457 N453 0.985 . S
H458 N452 0.984 . S
H459 N452 0.984 . S
H460 N448 0.984 . S
H461 N448 0.985 . S
C462 C463 1.363 . S
C462 C468 1.379 . S
C462 N470 1.356 . S
C463 C462 1.363 . S
C463 C469 1.363 . S
C464 C465 1.363 . S
C464 C469 1.379 . S
C464 N471 1.356 . S
C465 C464 1.363 . S
C465 C468 1.363 . S
N466 C468 1.356 . S
N466 H478 0.984 . S
N466 H479 0.985 . S
N467 C469 1.356 . S
N467 H472 0.984 . S
N467 H473 0.985 . S
C468 C462 1.379 . S
C468 C465 1.363 . S
C468 N466 1.356 . S
C469 C463 1.363 . S
C469 C464 1.379 . S
C469 N467 1.356 . S
N470 C462 1.356 . S
N470 H476 0.984 . S
N470 H477 0.984 . S
N471 C464 1.356 . S
N471 H474 0.984 . S
N471 H475 0.985 . S
H472 N467 0.984 . S
H473 N467 0.985 . S
H474 N471 0.984 . S
H475 N471 0.985 . S
H476 N470 0.984 . S
H477 N470 0.984 . S
H478 N466 0.984 . S
H479 N466 0.985 . S
C480 C481 1.363 . S
C480 C486 1.379 . S
C480 N488 1.356 . S
C481 C480 1.363 . S
C481 C487 1.363 . S
C482 C483 1.363 . S
C482 C487 1.379 . S
C482 N489 1.356 . S
C483 C482 1.363 . S
C483 C486 1.363 . S
N484 C486 1.356 . S
N484 H496 0.984 . S
N484 H497 0.985 . S
N485 C487 1.356 . S
N485 H490 0.984 . S
N485 H491 0.985 . S
C486 C480 1.379 . S
C486 C483 1.363 . S
C486 N484 1.356 . S
C487 C481 1.363 . S
C487 C482 1.379 . S
C487 N485 1.356 . S
N488 C480 1.356 . S
N488 H494 0.984 . S
N488 H495 0.984 . S
N489 C482 1.356 . S
N489 H492 0.984 . S
N489 H493 0.985 . S
H490 N485 0.984 . S
H491 N485 0.985 . S
H492 N489 0.984 . S
H493 N489 0.985 . S
H494 N488 0.984 . S
H495 N488 0.984 . S
H496 N484 0.984 . S
H497 N484 0.985 . S
C498 C499 1.363 . S
C498 C504 1.379 . S
C498 N506 1.356 . S
C499 C498 1.363 . S
C499 C505 1.363 . S
C500 C501 1.363 . S
C500 C505 1.379 . S
C500 N507 1.356 . S
C501 C500 1.363 . S
C501 C504 1.363 . S
N502 C504 1.356 . S
N502 H514 0.984 . S
N502 H515 0.985 . S
N503 C505 1.356 . S
N503 H508 0.984 . S
N503 H509 0.985 . S
C504 C498 1.379 . S
C504 C501 1.363 . S
C504 N502 1.356 . S
C505 C499 1.363 . S
C505 C500 1.379 . S
C505 N503 1.356 . S
N506 C498 1.356 . S
N506 H512 0.984 . S
N506 H513 0.984 . S
N507 C500 1.356 . S
N507 H510 0.984 . S
N507 H511 0.985 . S
H508 N503 0.984 . S
H509 N503 0.985 . S
H510 N507 0.984 . S
H511 N507 0.985 . S
H512 N506 0.984 . S
H513 N506 0.984 . S
H514 N502 0.984 . S
H515 N502 0.985 . S
C516 C517 1.363 . S
C516 C522 1.379 . S
C516 N524 1.356 . S
C517 C516 1.363 . S
C517 C523 1.363 . S
C518 C519 1.363 . S
C518 C523 1.379 . S
C518 N525 1.356 . S
C519 C518 1.363 . S
C519 C522 1.363 . S
N520 C522 1.356 . S
N520 H532 0.984 . S
N520 H533 0.985 . S
N521 C523 1.356 . S
N521 H526 0.984 . S
N521 H527 0.985 . S
C522 C516 1.379 . S
C522 C519 1.363 . S
C522 N520 1.356 . S
C523 C517 1.363 . S
C523 C518 1.379 . S
C523 N521 1.356 . S
N524 C516 1.356 . S
N524 H530 0.984 . S
N524 H531 0.984 . S
N525 C518 1.356 . S
N525 H528 0.984 . S
N525 H529 0.985 . S
H526 N521 0.984 . S
H527 N521 0.985 . S
H528 N525 0.984 . S
H529 N525 0.985 . S
H530 N524 0.984 . S
H531 N524 0.984 . S
H532 N520 0.984 . S
H533 N520 0.985 . S
C534 C535 1.363 . S
C534 C540 1.379 . S
C534 N542 1.356 . S
C535 C534 1.363 . S
C535 C541 1.363 . S
C536 C537 1.363 . S
C536 C541 1.379 . S
C536 N543 1.356 . S
C537 C536 1.363 . S
C537 C540 1.363 . S
N538 C540 1.356 . S
N538 H550 0.984 . S
N538 H551 0.985 . S
N539 C541 1.356 . S
N539 H544 0.984 . S
N539 H545 0.985 . S
C540 C534 1.379 . S
C540 C537 1.363 . S
C540 N538 1.356 . S
C541 C535 1.363 . S
C541 C536 1.379 . S
C541 N539 1.356 . S
N542 C534 1.356 . S
N542 H548 0.984 . S
N542 H549 0.984 . S
N543 C536 1.356 . S
N543 H546 0.984 . S
N543 H547 0.985 . S
H544 N539 0.984 . S
H545 N539 0.985 . S
H546 N543 0.984 . S
H547 N543 0.985 . S
H548 N542 0.984 . S
H549 N542 0.984 . S
H550 N538 0.984 . S
H551 N538 0.985 . S
C552 C553 1.363 . S
C552 C558 1.379 . S
C552 N560 1.356 . S
C553 C552 1.363 . S
C553 C559 1.363 . S
C554 C555 1.363 . S
C554 C559 1.379 . S
C554 N561 1.356 . S
C555 C554 1.363 . S
C555 C558 1.363 . S
N556 C558 1.356 . S
N556 H568 0.984 . S
N556 H569 0.985 . S
N557 C559 1.356 . S
N557 H562 0.984 . S
N557 H563 0.985 . S
C558 C552 1.379 . S
C558 C555 1.363 . S
C558 N556 1.356 . S
C559 C553 1.363 . S
C559 C554 1.379 . S
C559 N557 1.356 . S
N560 C552 1.356 . S
N560 H566 0.984 . S
N560 H567 0.984 . S
N561 C554 1.356 . S
N561 H564 0.984 . S
N561 H565 0.985 . S
H562 N557 0.984 . S
H563 N557 0.985 . S
H564 N561 0.984 . S
H565 N561 0.985 . S
H566 N560 0.984 . S
H567 N560 0.984 . S
H568 N556 0.984 . S
H569 N556 0.985 . S
C570 C571 1.363 . S
C570 C576 1.379 . S
C570 N578 1.356 . S
C571 C570 1.363 . S
C571 C577 1.363 . S
C572 C573 1.363 . S
C572 C577 1.379 . S
C572 N579 1.356 . S
C573 C572 1.363 . S
C573 C576 1.363 . S
N574 C576 1.356 . S
N574 H586 0.984 . S
N574 H587 0.985 . S
N575 C577 1.356 . S
N575 H580 0.984 . S
N575 H581 0.985 . S
C576 C570 1.379 . S
C576 C573 1.363 . S
C576 N574 1.356 . S
C577 C571 1.363 . S
C577 C572 1.379 . S
C577 N575 1.356 . S
N578 C570 1.356 . S
N578 H584 0.984 . S
N578 H585 0.984 . S
N579 C572 1.356 . S
N579 H582 0.984 . S
N579 H583 0.985 . S
H580 N575 0.984 . S
H581 N575 0.985 . S
H582 N579 0.984 . S
H583 N579 0.985 . S
H584 N578 0.984 . S
H585 N578 0.984 . S
H586 N574 0.984 . S
H587 N574 0.985 . S
C588 C589 1.363 . S
C588 C594 1.379 . S
C588 N596 1.356 . S
C589 C588 1.363 . S
C589 C595 1.363 . S
C590 C591 1.363 . S
C590 C595 1.379 . S
C590 N597 1.356 . S
C591 C590 1.363 . S
C591 C594 1.363 . S
N592 C594 1.356 . S
N592 H604 0.984 . S
N592 H605 0.985 . S
N593 C595 1.356 . S
N593 H598 0.984 . S
N593 H599 0.985 . S
C594 C588 1.379 . S
C594 C591 1.363 . S
C594 N592 1.356 . S
C595 C589 1.363 . S
C595 C590 1.379 . S
C595 N593 1.356 . S
N596 C588 1.356 . S
N596 H602 0.984 . S
N596 H603 0.984 . S
N597 C590 1.356 . S
N597 H600 0.984 . S
N597 H601 0.985 . S
H598 N593 0.984 . S
H599 N593 0.985 . S
H600 N597 0.984 . S
H601 N597 0.985 . S
H602 N596 0.984 . S
H603 N596 0.984 . S
H604 N592 0.984 . S
H605 N592 0.985 . S
C606 C607 1.363 . S
C606 C612 1.379 . S
C606 N614 1.356 . S
C607 C606 1.363 . S
C607 C613 1.363 . S
C608 C609 1.363 . S
C608 C613 1.379 . S
C608 N615 1.356 . S
C609 C608 1.363 . S
C609 C612 1.363 . S
N610 C612 1.356 . S
N610 H622 0.984 . S
N610 H623 0.985 . S
N611 C613 1.356 . S
N611 H616 0.984 . S
N611 H617 0.985 . S
C612 C606 1.379 . S
C612 C609 1.363 . S
C612 N610 1.356 . S
C613 C607 1.363 . S
C613 C608 1.379 . S
C613 N611 1.356 . S
N614 C606 1.356 . S
N614 H620 0.984 . S
N614 H621 0.984 . S
N615 C608 1.356 . S
N615 H618 0.984 . S
N615 H619 0.985 . S
H616 N611 0.984 . S
H617 N611 0.985 . S
H618 N615 0.984 . S
H619 N615 0.985 . S
H620 N614 0.984 . S
H621 N614 0.984 . S
H622 N610 0.984 . S
H623 N610 0.985 . S
C624 C625 1.363 . S
C624 C630 1.379 . S
C624 N632 1.356 . S
C625 C624 1.363 . S
C625 C631 1.363 . S
C626 C627 1.363 . S
C626 C631 1.379 . S
C626 N633 1.356 . S
C627 C626 1.363 . S
C627 C630 1.363 . S
N628 C630 1.356 . S
N628 H640 0.984 . S
N628 H641 0.985 . S
N629 C631 1.356 . S
N629 H634 0.984 . S
N629 H635 0.985 . S
C630 C624 1.379 . S
C630 C627 1.363 . S
C630 N628 1.356 . S
C631 C625 1.363 . S
C631 C626 1.379 . S
C631 N629 1.356 . S
N632 C624 1.356 . S
N632 H638 0.984 . S
N632 H639 0.984 . S
N633 C626 1.356 . S
N633 H636 0.984 . S
N633 H637 0.985 . S
H634 N629 0.984 . S
H635 N629 0.985 . S
H636 N633 0.984 . S
H637 N633 0.985 . S
H638 N632 0.984 . S
H639 N632 0.984 . S
H640 N628 0.984 . S
H641 N628 0.985 . S
C642 C643 1.363 . S
C642 C648 1.379 . S
C642 N650 1.356 . S
C643 C642 1.363 . S
C643 C649 1.363 . S
C644 C645 1.363 . S
C644 C649 1.379 . S
C644 N651 1.356 . S
C645 C644 1.363 . S
C645 C648 1.363 . S
N646 C648 1.356 . S
N646 H658 0.984 . S
N646 H659 0.985 . S
N647 C649 1.356 . S
N647 H652 0.984 . S
N647 H653 0.985 . S
C648 C642 1.379 . S
C648 C645 1.363 . S
C648 N646 1.356 . S
C649 C643 1.363 . S
C649 C644 1.379 . S
C649 N647 1.356 . S
N650 C642 1.356 . S
N650 H656 0.984 . S
N650 H657 0.984 . S
N651 C644 1.356 . S
N651 H654 0.984 . S
N651 H655 0.985 . S
H652 N647 0.984 . S
H653 N647 0.985 . S
H654 N651 0.984 . S
H655 N651 0.985 . S
H656 N650 0.984 . S
H657 N650 0.984 . S
H658 N646 0.984 . S
H659 N646 0.985 . S
C660 C661 1.363 . S
C660 C666 1.379 . S
C660 N668 1.356 . S
C661 C660 1.363 . S
C661 C667 1.363 . S
C662 C663 1.363 . S
C662 C667 1.379 . S
C662 N669 1.356 . S
C663 C662 1.363 . S
C663 C666 1.363 . S
N664 C666 1.356 . S
N664 H676 0.984 . S
N664 H677 0.985 . S
N665 C667 1.356 . S
N665 H670 0.984 . S
N665 H671 0.985 . S
C666 C660 1.379 . S
C666 C663 1.363 . S
C666 N664 1.356 . S
C667 C661 1.363 . S
C667 C662 1.379 . S
C667 N665 1.356 . S
N668 C660 1.356 . S
N668 H674 0.984 . S
N668 H675 0.984 . S
N669 C662 1.356 . S
N669 H672 0.984 . S
N669 H673 0.985 . S
H670 N665 0.984 . S
H671 N665 0.985 . S
H672 N669 0.984 . S
H673 N669 0.985 . S
H674 N668 0.984 . S
H675 N668 0.984 . S
H676 N664 0.984 . S
H677 N664 0.985 . S
C678 C679 1.363 . S
C678 C684 1.379 . S
C678 N686 1.356 . S
C679 C678 1.363 . S
C679 C685 1.363 . S
C680 C681 1.363 . S
C680 C685 1.379 . S
C680 N687 1.356 . S
C681 C680 1.363 . S
C681 C684 1.363 . S
N682 C684 1.356 . S
N682 H694 0.984 . S
N682 H695 0.985 . S
N683 C685 1.356 . S
N683 H688 0.984 . S
N683 H689 0.985 . S
C684 C678 1.379 . S
C684 C681 1.363 . S
C684 N682 1.356 . S
C685 C679 1.363 . S
C685 C680 1.379 . S
C685 N683 1.356 . S
N686 C678 1.356 . S
N686 H692 0.984 . S
N686 H693 0.984 . S
N687 C680 1.356 . S
N687 H690 0.984 . S
N687 H691 0.985 . S
H688 N683 0.984 . S
H689 N683 0.985 . S
H690 N687 0.984 . S
H691 N687 0.985 . S
H692 N686 0.984 . S
H693 N686 0.984 . S
H694 N682 0.984 . S
H695 N682 0.985 . S
C696 C697 1.363 . S
C696 C702 1.379 1_565 S
C696 N704 1.356 . S
C697 C696 1.363 . S
C697 C703 1.363 . S
C698 C699 1.363 . S
C698 C703 1.379 1_545 S
C698 N705 1.356 . S
C699 C698 1.363 . S
C699 C702 1.363 . S
N700 C702 1.356 . S
N700 H712 0.984 . S
N700 H713 0.985 . S
N701 C703 1.356 . S
N701 H706 0.984 . S
N701 H707 0.985 . S
C702 C696 1.379 1_545 S
C702 C699 1.363 . S
C702 N700 1.356 . S
C703 C697 1.363 . S
C703 C698 1.379 1_565 S
C703 N701 1.356 . S
N704 C696 1.356 . S
N704 H710 0.984 . S
N704 H711 0.984 . S
N705 C698 1.356 . S
N705 H708 0.984 . S
N705 H709 0.985 . S
H706 N701 0.984 . S
H707 N701 0.985 . S
H708 N705 0.984 . S
H709 N705 0.985 . S
H710 N704 0.984 . S
H711 N704 0.984 . S
H712 N700 0.984 . S
H713 N700 0.985 . S
C714 C715 1.363 . S
C714 C720 1.379 1_455 S
C714 N722 1.356 . S
C715 C714 1.363 . S
C715 C721 1.363 . S
C716 C717 1.363 . S
C716 C721 1.379 1_655 S
C716 N723 1.356 . S
C717 C716 1.363 . S
C717 C720 1.363 . S
N718 C720 1.356 . S
N718 H730 0.984 . S
N718 H731 0.985 . S
N719 C721 1.356 . S
N719 H724 0.984 . S
N719 H725 0.985 . S
C720 C714 1.379 1_655 S
C720 C717 1.363 . S
C720 N718 1.356 . S
C721 C715 1.363 . S
C721 C716 1.379 1_455 S
C721 N719 1.356 . S
N722 C714 1.356 . S
N722 H728 0.984 . S
N722 H729 0.984 . S
N723 C716 1.356 . S
N723 H726 0.984 . S
N723 H727 0.985 . S
H724 N719 0.984 . S
H725 N719 0.985 . S
H726 N723 0.984 . S
H727 N723 0.985 . S
H728 N722 0.984 . S
H729 N722 0.984 . S
H730 N718 0.984 . S
H731 N718 0.985 . S
C732 C733 1.363 . S
C732 C738 1.379 1_545 S
C732 N740 1.356 . S
C733 C732 1.363 . S
C733 C739 1.363 . S
C734 C735 1.363 . S
C734 C739 1.379 1_565 S
C734 N741 1.356 . S
C735 C734 1.363 . S
C735 C738 1.363 . S
N736 C738 1.356 . S
N736 H748 0.984 . S
N736 H749 0.985 . S
N737 C739 1.356 . S
N737 H742 0.984 . S
N737 H743 0.985 . S
C738 C732 1.379 1_565 S
C738 C735 1.363 . S
C738 N736 1.356 . S
C739 C733 1.363 . S
C739 C734 1.379 1_545 S
C739 N737 1.356 . S
N740 C732 1.356 . S
N740 H746 0.984 . S
N740 H747 0.984 . S
N741 C734 1.356 . S
N741 H744 0.984 . S
N741 H745 0.985 . S
H742 N737 0.984 . S
H743 N737 0.985 . S
H744 N741 0.984 . S
H745 N741 0.985 . S
H746 N740 0.984 . S
H747 N740 0.984 . S
H748 N736 0.984 . S
H749 N736 0.985 . S
C750 C751 1.363 . S
C750 C756 1.379 1_455 S
C750 N758 1.356 . S
C751 C750 1.363 . S
C751 C757 1.363 . S
C752 C753 1.363 . S
C752 C757 1.379 1_655 S
C752 N759 1.356 . S
C753 C752 1.363 . S
C753 C756 1.363 . S
N754 C756 1.356 . S
N754 H766 0.984 . S
N754 H767 0.985 . S
N755 C757 1.356 . S
N755 H760 0.984 . S
N755 H761 0.985 . S
C756 C750 1.379 1_655 S
C756 C753 1.363 . S
C756 N754 1.356 . S
C757 C751 1.363 . S
C757 C752 1.379 1_455 S
C757 N755 1.356 . S
N758 C750 1.356 . S
N758 H764 0.984 . S
N758 H765 0.984 . S
N759 C752 1.356 . S
N759 H762 0.984 . S
N759 H763 0.985 . S
H760 N755 0.984 . S
H761 N755 0.985 . S
H762 N759 0.984 . S
H763 N759 0.985 . S
H764 N758 0.984 . S
H765 N758 0.984 . S
H766 N754 0.984 . S
H767 N754 0.985 . S
C768 C769 1.363 . S
C768 C774 1.379 1_556 S
C768 N776 1.356 . S
C769 C768 1.363 . S
C769 C775 1.363 . S
C770 C771 1.363 . S
C770 C775 1.379 1_554 S
C770 N777 1.356 . S
C771 C770 1.363 . S
C771 C774 1.363 . S
N772 C774 1.356 . S
N772 H784 0.984 . S
N772 H785 0.985 . S
N773 C775 1.356 . S
N773 H778 0.984 . S
N773 H779 0.985 . S
C774 C768 1.379 1_554 S
C774 C771 1.363 . S
C774 N772 1.356 . S
C775 C769 1.363 . S
C775 C770 1.379 1_556 S
C775 N773 1.356 . S
N776 C768 1.356 . S
N776 H782 0.984 . S
N776 H783 0.984 . S
N777 C770 1.356 . S
N777 H780 0.984 . S
N777 H781 0.985 . S
H778 N773 0.984 . S
H779 N773 0.985 . S
H780 N777 0.984 . S
H781 N777 0.985 . S
H782 N776 0.984 . S
H783 N776 0.984 . S
H784 N772 0.984 . S
H785 N772 0.985 . S
C786 C787 1.363 . S
C786 C792 1.379 1_556 S
C786 N794 1.356 . S
C787 C786 1.363 . S
C787 C793 1.363 . S
C788 C789 1.363 . S
C788 C793 1.379 1_554 S
C788 N795 1.356 . S
C789 C788 1.363 . S
C789 C792 1.363 . S
N790 C792 1.356 . S
N790 H802 0.984 . S
N790 H803 0.985 . S
N791 C793 1.356 . S
N791 H796 0.984 . S
N791 H797 0.985 . S
C792 C786 1.379 1_554 S
C792 C789 1.363 . S
C792 N790 1.356 . S
C793 C787 1.363 . S
C793 C788 1.379 1_556 S
C793 N791 1.356 . S
N794 C786 1.356 . S
N794 H800 0.984 . S
N794 H801 0.984 . S
N795 C788 1.356 . S
N795 H798 0.984 . S
N795 H799 0.985 . S
H796 N791 0.984 . S
H797 N791 0.985 . S
H798 N795 0.984 . S
H799 N795 0.985 . S
H800 N794 0.984 . S
H801 N794 0.984 . S
H802 N790 0.984 . S
H803 N790 0.985 . S
C804 C805 1.363 . S
C804 C810 1.379 1_554 S
C804 N812 1.356 . S
C805 C804 1.363 . S
C805 C811 1.363 . S
C806 C807 1.363 . S
C806 C811 1.379 1_556 S
C806 N813 1.356 . S
C807 C806 1.363 . S
C807 C810 1.363 . S
N808 C810 1.356 . S
N808 H820 0.984 . S
N808 H821 0.985 . S
N809 C811 1.356 . S
N809 H814 0.984 . S
N809 H815 0.985 . S
C810 C804 1.379 1_556 S
C810 C807 1.363 . S
C810 N808 1.356 . S
C811 C805 1.363 . S
C811 C806 1.379 1_554 S
C811 N809 1.356 . S
N812 C804 1.356 . S
N812 H818 0.984 . S
N812 H819 0.984 . S
N813 C806 1.356 . S
N813 H816 0.984 . S
N813 H817 0.985 . S
H814 N809 0.984 . S
H815 N809 0.985 . S
H816 N813 0.984 . S
H817 N813 0.985 . S
H818 N812 0.984 . S
H819 N812 0.984 . S
H820 N808 0.984 . S
H821 N808 0.985 . S
C822 C823 1.363 . S
C822 C828 1.379 1_556 S
C822 N830 1.356 . S
C823 C822 1.363 . S
C823 C829 1.363 . S
C824 C825 1.363 . S
C824 C829 1.379 1_554 S
C824 N831 1.356 . S
C825 C824 1.363 . S
C825 C828 1.363 . S
N826 C828 1.356 . S
N826 H838 0.984 . S
N826 H839 0.985 . S
N827 C829 1.356 . S
N827 H832 0.984 . S
N827 H833 0.985 . S
C828 C822 1.379 1_554 S
C828 C825 1.363 . S
C828 N826 1.356 . S
C829 C823 1.363 . S
C829 C824 1.379 1_556 S
C829 N827 1.356 . S
N830 C822 1.356 . S
N830 H836 0.984 . S
N830 H837 0.984 . S
N831 C824 1.356 . S
N831 H834 0.984 . S
N831 H835 0.985 . S
H832 N827 0.984 . S
H833 N827 0.985 . S
H834 N831 0.984 . S
H835 N831 0.985 . S
H836 N830 0.984 . S
H837 N830 0.984 . S
H838 N826 0.984 . S
H839 N826 0.985 . S
C840 C841 1.363 . S
C840 C846 1.379 1_455 S
C840 N848 1.356 . S
C841 C840 1.363 . S
C841 C847 1.363 . S
C842 C843 1.363 . S
C842 C847 1.379 1_655 S
C842 N849 1.356 . S
C843 C842 1.363 . S
C843 C846 1.363 . S
N844 C846 1.356 . S
N844 H856 0.984 . S
N844 H857 0.985 . S
N845 C847 1.356 . S
N845 H850 0.984 . S
N845 H851 0.985 . S
C846 C840 1.379 1_655 S
C846 C843 1.363 . S
C846 N844 1.356 . S
C847 C841 1.363 . S
C847 C842 1.379 1_455 S
C847 N845 1.356 . S
N848 C840 1.356 . S
N848 H854 0.984 . S
N848 H855 0.984 . S
N849 C842 1.356 . S
N849 H852 0.984 . S
N849 H853 0.985 . S
H850 N845 0.984 . S
H851 N845 0.985 . S
H852 N849 0.984 . S
H853 N849 0.985 . S
H854 N848 0.984 . S
H855 N848 0.984 . S
H856 N844 0.984 . S
H857 N844 0.985 . S
C858 C859 1.363 . S
C858 C864 1.379 1_655 S
C858 N866 1.356 . S
C859 C858 1.363 . S
C859 C865 1.363 . S
C860 C861 1.363 . S
C860 C865 1.379 1_455 S
C860 N867 1.356 . S
C861 C860 1.363 . S
C861 C864 1.363 . S
N862 C864 1.356 . S
N862 H874 0.984 . S
N862 H875 0.985 . S
N863 C865 1.356 . S
N863 H868 0.984 . S
N863 H869 0.985 . S
C864 C858 1.379 1_455 S
C864 C861 1.363 . S
C864 N862 1.356 . S
C865 C859 1.363 . S
C865 C860 1.379 1_655 S
C865 N863 1.356 . S
N866 C858 1.356 . S
N866 H872 0.984 . S
N866 H873 0.984 . S
N867 C860 1.356 . S
N867 H870 0.984 . S
N867 H871 0.985 . S
H868 N863 0.984 . S
H869 N863 0.985 . S
H870 N867 0.984 . S
H871 N867 0.985 . S
H872 N866 0.984 . S
H873 N866 0.984 . S
H874 N862 0.984 . S
H875 N862 0.985 . S
C876 C877 1.363 . S
C876 C882 1.379 1_545 S
C876 N884 1.356 . S
C877 C876 1.363 . S
C877 C883 1.363 . S
C878 C879 1.363 . S
C878 C883 1.379 1_565 S
C878 N885 1.356 . S
C879 C878 1.363 . S
C879 C882 1.363 . S
N880 C882 1.356 . S
N880 H892 0.984 . S
N880 H893 0.985 . S
N881 C883 1.356 . S
N881 H886 0.984 . S
N881 H887 0.985 . S
C882 C876 1.379 1_565 S
C882 C879 1.363 . S
C882 N880 1.356 . S
C883 C877 1.363 . S
C883 C878 1.379 1_545 S
C883 N881 1.356 . S
N884 C876 1.356 . S
N884 H890 0.984 . S
N884 H891 0.984 . S
N885 C878 1.356 . S
N885 H888 0.984 . S
N885 H889 0.985 . S
H886 N881 0.984 . S
H887 N881 0.985 . S
H888 N885 0.984 . S
H889 N885 0.985 . S
H890 N884 0.984 . S
H891 N884 0.984 . S
H892 N880 0.984 . S
H893 N880 0.985 . S
C894 C895 1.363 . S
C894 C900 1.379 1_565 S
C894 N902 1.356 . S
C895 C894 1.363 . S
C895 C901 1.363 . S
C896 C897 1.363 . S
C896 C901 1.379 1_545 S
C896 N903 1.356 . S
C897 C896 1.363 . S
C897 C900 1.363 . S
N898 C900 1.356 . S
N898 H910 0.984 . S
N898 H911 0.985 . S
N899 C901 1.356 . S
N899 H904 0.984 . S
N899 H905 0.985 . S
C900 C894 1.379 1_545 S
C900 C897 1.363 . S
C900 N898 1.356 . S
C901 C895 1.363 . S
C901 C896 1.379 1_565 S
C901 N899 1.356 . S
N902 C894 1.356 . S
N902 H908 0.984 . S
N902 H909 0.984 . S
N903 C896 1.356 . S
N903 H906 0.984 . S
N903 H907 0.985 . S
H904 N899 0.984 . S
H905 N899 0.985 . S
H906 N903 0.984 . S
H907 N903 0.985 . S
H908 N902 0.984 . S
H909 N902 0.984 . S
H910 N898 0.984 . S
H911 N898 0.985 . S
C265 C5 1.456 . S
C267 C161 1.456 . S
C283 C94 1.456 . S
C285 C31 1.456 . S
C301 C53 1.456 . S
C303 C117 1.456 . S
C319 C71 1.456 . S
C321 C139 1.456 . S
C337 C75 1.456 . S
C339 C204 1.456 . S
C355 C9 1.456 . S
C357 C227 1.456 . S
C373 C248 1.456 . S
C375 C27 1.456 . S
C391 C49 1.456 . S
C393 C182 1.456 . S
C409 C93 1.456 . S
C411 C7 1.456 . S
C427 C119 1.456 . S
C429 C28 1.456 . S
C445 C141 1.456 . S
C447 C50 1.456 . S
C463 C73 1.456 . S
C465 C163 1.456 . S
C481 C72 1.456 . S
C483 C181 1.456 . S
C499 C6 1.456 . S
C501 C203 1.456 . S
C517 C229 1.456 . S
C519 C29 1.456 . S
C535 C247 1.456 . S
C537 C51 1.456 . S
C553 C95 1.456 . S
C555 C159 1.456 . S
C571 C207 1.456 . S
C573 C183 1.456 . S
C589 C205 1.456 . S
C591 C225 1.456 . S
C607 C251 1.456 . S
C609 C226 1.456 . S
C625 C249 1.456 . S
C627 C185 1.456 . S
C643 C138 1.456 . S
C645 C115 1.456 . S
C661 C137 1.456 . S
C663 C160 1.456 . S
C679 C97 1.456 . S
C681 C116 1.456 . S
C697 C70 1.531 . S
C699 C8 1.531 . S
C715 C4 1.531 . S
C717 C26 1.531 . S
C733 C30 1.531 . S
C735 C48 1.531 . S
C751 C74 1.531 . S
C753 C52 1.531 . S
C769 C224 1.531 . S
C771 C96 1.531 . S
C787 C250 1.531 . S
C789 C114 1.531 . S
C805 C136 1.531 . S
C807 C184 1.531 . S
C823 C206 1.531 . S
C825 C158 1.531 . S
C841 C162 1.531 . S
C843 C118 1.531 . S
C859 C246 1.531 . S
C861 C202 1.531 . S
C877 C228 1.531 . S
C879 C180 1.531 . S
C895 C140 1.531 . S
C897 C92 1.531 . S
