# Generated by pormake.
# Topology srs-a, (3)-cn, num edge types: 1
# Building blocks:
#     Node 0, Type 0, BuildingBlock: OLANEW_clean_sbu_2, # of connection points: 3
#     Node 1, Type 0, BuildingBlock: OLANEW_clean_sbu_2, # of connection points: 3
#     Node 2, Type 0, BuildingBlock: OLANEW_clean_sbu_2, # of connection points: 3
#     Node 3, Type 0, BuildingBlock: OLANEW_clean_sbu_2, # of connection points: 3
#     Node 4, Type 0, BuildingBlock: OLANEW_clean_sbu_2, # of connection points: 3
#     Node 5, Type 0, BuildingBlock: OLANEW_clean_sbu_2, # of connection points: 3
#     Node 6, Type 0, BuildingBlock: OLANEW_clean_sbu_2, # of connection points: 3
#     Node 7, Type 0, BuildingBlock: OLANEW_clean_sbu_2, # of connection points: 3
#     Node 8, Type 0, BuildingBlock: OLANEW_clean_sbu_2, # of connection points: 3
#     Node 9, Type 0, BuildingBlock: OLANEW_clean_sbu_2, # of connection points: 3
#     Node 10, Type 0, BuildingBlock: OLANEW_clean_sbu_2, # of connection points: 3
#     Node 11, Type 0, BuildingBlock: OLANEW_clean_sbu_2, # of connection points: 3
#     Node 12, Type 0, BuildingBlock: OLANEW_clean_sbu_2, # of connection points: 3
#     Node 13, Type 0, BuildingBlock: OLANEW_clean_sbu_2, # of connection points: 3
#     Node 14, Type 0, BuildingBlock: OLANEW_clean_sbu_2, # of connection points: 3
#     Node 15, Type 0, BuildingBlock: OLANEW_clean_sbu_2, # of connection points: 3
#     Node 16, Type 0, BuildingBlock: OLANEW_clean_sbu_2, # of connection points: 3
#     Node 17, Type 0, BuildingBlock: OLANEW_clean_sbu_2, # of connection points: 3
#     Node 18, Type 0, BuildingBlock: OLANEW_clean_sbu_2, # of connection points: 3
#     Node 19, Type 0, BuildingBlock: OLANEW_clean_sbu_2, # of connection points: 3
#     Node 20, Type 0, BuildingBlock: OLANEW_clean_sbu_2, # of connection points: 3
#     Node 21, Type 0, BuildingBlock: OLANEW_clean_sbu_2, # of connection points: 3
#     Node 22, Type 0, BuildingBlock: OLANEW_clean_sbu_2, # of connection points: 3
#     Node 23, Type 0, BuildingBlock: OLANEW_clean_sbu_2, # of connection points: 3
#     Edge 24, Type (0, 0), BuildingBlock: AJUNOK_clean_linker_0, # of connection points: 2
#     Edge 25, Type (0, 0), BuildingBlock: AJUNOK_clean_linker_0, # of connection points: 2
#     Edge 26, Type (0, 0), BuildingBlock: AJUNOK_clean_linker_0, # of connection points: 2
#     Edge 27, Type (0, 0), BuildingBlock: AJUNOK_clean_linker_0, # of connection points: 2
#     Edge 28, Type (0, 0), BuildingBlock: AJUNOK_clean_linker_0, # of connection points: 2
#     Edge 29, Type (0, 0), BuildingBlock: AJUNOK_clean_linker_0, # of connection points: 2
#     Edge 30, Type (0, 0), BuildingBlock: AJUNOK_clean_linker_0, # of connection points: 2
#     Edge 31, Type (0, 0), BuildingBlock: AJUNOK_clean_linker_0, # of connection points: 2
#     Edge 32, Type (0, 0), BuildingBlock: AJUNOK_clean_linker_0, # of connection points: 2
#     Edge 33, Type (0, 0), BuildingBlock: AJUNOK_clean_linker_0, # of connection points: 2
#     Edge 34, Type (0, 0), BuildingBlock: AJUNOK_clean_linker_0, # of connection points: 2
#     Edge 35, Type (0, 0), BuildingBlock: AJUNOK_clean_linker_0, # of connection points: 2
#     Edge 36, Type (0, 0), BuildingBlock: AJUNOK_clean_linker_0, # of connection points: 2
#     Edge 37, Type (0, 0), BuildingBlock: AJUNOK_clean_linker_0, # of connection points: 2
#     Edge 38, Type (0, 0), BuildingBlock: AJUNOK_clean_linker_0, # of connection points: 2
#     Edge 39, Type (0, 0), BuildingBlock: AJUNOK_clean_linker_0, # of connection points: 2
#     Edge 40, Type (0, 0), BuildingBlock: AJUNOK_clean_linker_0, # of connection points: 2
#     Edge 41, Type (0, 0), BuildingBlock: AJUNOK_clean_linker_0, # of connection points: 2
#     Edge 42, Type (0, 0), BuildingBlock: AJUNOK_clean_linker_0, # of connection points: 2
#     Edge 43, Type (0, 0), BuildingBlock: AJUNOK_clean_linker_0, # of connection points: 2
#     Edge 44, Type (0, 0), BuildingBlock: AJUNOK_clean_linker_0, # of connection points: 2
#     Edge 45, Type (0, 0), BuildingBlock: AJUNOK_clean_linker_0, # of connection points: 2
#     Edge 46, Type (0, 0), BuildingBlock: AJUNOK_clean_linker_0, # of connection points: 2
#     Edge 47, Type (0, 0), BuildingBlock: AJUNOK_clean_linker_0, # of connection points: 2
#     Edge 48, Type (0, 0), BuildingBlock: AJUNOK_clean_linker_0, # of connection points: 2
#     Edge 49, Type (0, 0), BuildingBlock: AJUNOK_clean_linker_0, # of connection points: 2
#     Edge 50, Type (0, 0), BuildingBlock: AJUNOK_clean_linker_0, # of connection points: 2
#     Edge 51, Type (0, 0), BuildingBlock: AJUNOK_clean_linker_0, # of connection points: 2
#     Edge 52, Type (0, 0), BuildingBlock: AJUNOK_clean_linker_0, # of connection points: 2
#     Edge 53, Type (0, 0), BuildingBlock: AJUNOK_clean_linker_0, # of connection points: 2
#     Edge 54, Type (0, 0), BuildingBlock: AJUNOK_clean_linker_0, # of connection points: 2
#     Edge 55, Type (0, 0), BuildingBlock: AJUNOK_clean_linker_0, # of connection points: 2
#     Edge 56, Type (0, 0), BuildingBlock: AJUNOK_clean_linker_0, # of connection points: 2
#     Edge 57, Type (0, 0), BuildingBlock: AJUNOK_clean_linker_0, # of connection points: 2
#     Edge 58, Type (0, 0), BuildingBlock: AJUNOK_clean_linker_0, # of connection points: 2
#     Edge 59, Type (0, 0), BuildingBlock: AJUNOK_clean_linker_0, # of connection points: 2
# Relax obj value: 0.141
# Max RMSD: 0.232
# Mean RMSD: 0.192
data_MOF--net-srs-a--node1-OLANEW_clean_sbu_2--edge1-AJUNOK_clean_linker_0
_symmetry_space_group_name_H-M    P1
_symmetry_Int_Tables_number       1
_symmetry_cell_setting            triclinic
loop_
_symmetry_equiv_pos_as_xyz
'x, y, z'
_cell_length_a     62.411293
_cell_length_b     63.584388
_cell_length_c     69.346424
_cell_angle_alpha  92.156043
_cell_angle_beta   89.219339
_cell_angle_gamma 92.99318
loop_
_atom_site_label
_atom_site_type_symbol
_atom_site_fract_x
_atom_site_fract_y
_atom_site_fract_z
_atom_type_partial_charge
O0 O 0.088 0.24539 0.21929 0.0
Cd1 Cd 0.05587 0.25763 0.23572 0.0
O2 O 0.0697 0.22188 0.20128 0.0
Cd3 Cd 0.04205 0.22286 0.22085 0.0
O4 O 0.04253 0.20083 0.24417 0.0
C5 C 0.05507 0.20558 0.25812 0.0
O6 O 0.06396 0.22476 0.25938 0.0
C7 C 0.08745 0.23157 0.20553 0.0
C8 C 0.03985 0.2909 0.21628 0.0
O9 O 0.05308 0.29429 0.23017 0.0
O10 O 0.03405 0.27174 0.21177 0.0
O11 O 0.09662 0.7003 0.36922 0.0
Cd12 Cd 0.08379 0.66819 0.3515 0.0
O13 O 0.09603 0.7152 0.34126 0.0
Cd14 Cd 0.09947 0.74241 0.32279 0.0
O15 O 0.10702 0.77155 0.30781 0.0
C16 C 0.12303 0.77276 0.29632 0.0
O17 O 0.13442 0.75612 0.29332 0.0
C18 C 0.10022 0.71644 0.35919 0.0
C19 C 0.04365 0.65159 0.36322 0.0
O20 O 0.06093 0.64502 0.37013 0.0
O21 O 0.04538 0.66634 0.3511 0.0
O22 O 0.47174 0.92302 0.65584 0.0
Cd23 Cd 0.50498 0.92382 0.63678 0.0
O24 O 0.45913 0.904 0.63135 0.0
Cd25 Cd 0.43789 0.88565 0.61152 0.0
O26 O 0.42152 0.88809 0.5842 0.0
C27 C 0.43115 0.9004 0.57251 0.0
O28 O 0.44996 0.90905 0.57742 0.0
C29 C 0.4559 0.9131 0.64773 0.0
C30 C 0.5372 0.90215 0.65341 0.0
O31 O 0.53624 0.92214 0.65611 0.0
O32 O 0.52288 0.89243 0.64286 0.0
O33 O 0.41288 0.10486 0.86133 0.0
Cd34 Cd 0.44104 0.11819 0.88337 0.0
O35 O 0.39001 0.10279 0.8855 0.0
Cd36 Cd 0.36032 0.09369 0.90095 0.0
O37 O 0.34249 0.08356 0.92671 0.0
C38 C 0.34479 0.06507 0.93246 0.0
O39 O 0.35687 0.05249 0.92215 0.0
C40 C 0.39403 0.10037 0.86756 0.0
C41 C 0.44951 0.16149 0.8804 0.0
O42 O 0.45901 0.14819 0.86937 0.0
O43 O 0.43592 0.15425 0.89283 0.0
O44 O 0.15877 0.11118 0.23489 0.0
Cd45 Cd 0.13218 0.09944 0.2588 0.0
O46 O 0.17916 0.1277 0.25682 0.0
Cd47 Cd 0.15312 0.12707 0.2783 0.0
O48 O 0.12587 0.14634 0.28529 0.0
C49 C 0.10632 0.13999 0.28346 0.0
O50 O 0.10171 0.11997 0.27929 0.0
C51 C 0.17616 0.12139 0.23938 0.0
C52 C 0.13249 0.05607 0.26344 0.0
O53 O 0.11914 0.06381 0.2521 0.0
O54 O 0.14556 0.06886 0.27265 0.0
O55 O 0.16984 0.85933 0.39506 0.0
Cd56 Cd 0.17162 0.83673 0.42266 0.0
O57 O 0.13569 0.86492 0.39954 0.0
Cd58 Cd 0.13122 0.83693 0.41666 0.0
O59 O 0.12333 0.8036 0.4099 0.0
C60 C 0.1303 0.7973 0.39348 0.0
O61 O 0.14187 0.81072 0.38318 0.0
C62 C 0.15336 0.86911 0.39083 0.0
C63 C 0.20726 0.85027 0.44453 0.0
O64 O 0.20843 0.83529 0.43173 0.0
O65 O 0.18912 0.85852 0.44724 0.0
O66 O 0.37272 0.90122 0.70508 0.0
Cd67 Cd 0.33857 0.90252 0.72262 0.0
O68 O 0.35835 0.92138 0.68453 0.0
Cd69 Cd 0.35552 0.94104 0.65954 0.0
O70 O 0.34862 0.94835 0.62984 0.0
C71 C 0.33411 0.93678 0.62141 0.0
O72 O 0.32388 0.92201 0.63124 0.0
C73 C 0.37424 0.91112 0.68951 0.0
C74 C 0.33038 0.94356 0.73512 0.0
O75 O 0.33877 0.93088 0.74643 0.0
O76 O 0.32588 0.93683 0.71793 0.0
O77 O 0.3188 0.02964 0.0179 0.0
Cd78 Cd 0.30223 0.01907 0.04834 0.0
O79 O 0.29011 0.04675 0.01187 0.0
Cd80 Cd 0.27185 0.06257 0.9907 0.0
O81 O 0.27386 0.06596 0.95969 0.0
C82 C 0.27779 0.0492 0.95005 0.0
O83 O 0.27782 0.03143 0.95914 0.0
C84 C 0.30865 0.04096 0.00683 0.0
C85 C 0.30028 0.0529 0.07497 0.0
O86 O 0.3164 0.0412 0.07428 0.0
O87 O 0.28509 0.04857 0.06297 0.0
O88 O 0.13372 0.91317 0.3107 0.0
Cd89 Cd 0.12879 0.92185 0.27703 0.0
O90 O 0.16757 0.90649 0.30595 0.0
Cd91 Cd 0.16154 0.90148 0.27526 0.0
O92 O 0.14548 0.87046 0.27052 0.0
C93 C 0.15682 0.85471 0.27267 0.0
O94 O 0.17762 0.85803 0.27485 0.0
C95 C 0.15177 0.90888 0.31746 0.0
C96 C 0.13075 0.96536 0.27273 0.0
O97 O 0.11269 0.95507 0.27472 0.0
O98 O 0.14784 0.95502 0.27262 0.0
O99 O 0.32073 0.91648 0.53052 0.0
Cd100 Cd 0.32138 0.90806 0.49579 0.0
O101 O 0.33049 0.94995 0.52746 0.0
Cd102 Cd 0.33888 0.94333 0.49734 0.0
O103 O 0.36465 0.92376 0.50539 0.0
C104 C 0.38146 0.93355 0.51184 0.0
O105 O 0.38334 0.95412 0.51049 0.0
C106 C 0.32478 0.93477 0.53814 0.0
C107 C 0.28384 0.88768 0.48176 0.0
O108 O 0.29967 0.87714 0.4868 0.0
O109 O 0.28567 0.90782 0.48373 0.0
O110 O 0.33127 0.085 0.79423 0.0
Cd111 Cd 0.30641 0.07177 0.76913 0.0
O112 O 0.32445 0.05467 0.80772 0.0
Cd113 Cd 0.3265 0.03585 0.83306 0.0
O114 O 0.31742 0.03312 0.86325 0.0
C115 C 0.30966 0.04963 0.8708 0.0
O116 O 0.30809 0.06603 0.86005 0.0
C117 C 0.33406 0.07277 0.80793 0.0
C118 C 0.3139 0.03005 0.75851 0.0
O119 O 0.32201 0.04525 0.7487 0.0
O120 O 0.30202 0.03455 0.77314 0.0
O121 O 0.25912 0.14222 0.18316 0.0
Cd122 Cd 0.28528 0.15446 0.15906 0.0
O123 O 0.23485 0.15921 0.16837 0.0
Cd124 Cd 0.20291 0.17164 0.16668 0.0
O125 O 0.17114 0.18413 0.17053 0.0
C126 C 0.16953 0.20278 0.17745 0.0
O127 O 0.18716 0.21413 0.18166 0.0
C128 C 0.23983 0.14735 0.18181 0.0
C129 C 0.29198 0.12246 0.13138 0.0
O130 O 0.30377 0.12487 0.14636 0.0
O131 O 0.27712 0.13537 0.12943 0.0
O132 O 0.72687 0.34415 0.8315 0.0
Cd133 Cd 0.75387 0.32508 0.84776 0.0
O134 O 0.70201 0.33485 0.85265 0.0
Cd135 Cd 0.66946 0.33486 0.86491 0.0
O136 O 0.63559 0.33383 0.87349 0.0
C137 C 0.62623 0.31646 0.87805 0.0
O138 O 0.63745 0.29954 0.878 0.0
C139 C 0.70753 0.34437 0.8374 0.0
C140 C 0.77235 0.34736 0.87923 0.0
O141 O 0.77902 0.35053 0.86198 0.0
O142 O 0.75674 0.33375 0.88163 0.0
O143 O 0.84145 0.39879 0.18887 0.0
Cd144 Cd 0.80452 0.40713 0.19635 0.0
O145 O 0.83704 0.41509 0.1623 0.0
Cd146 Cd 0.84133 0.42951 0.13421 0.0
O147 O 0.84085 0.43641 0.10361 0.0
C148 C 0.82614 0.42746 0.09324 0.0
O149 O 0.81171 0.4148 0.10143 0.0
C150 C 0.84936 0.40552 0.17315 0.0
C151 C 0.80425 0.44956 0.20789 0.0
O152 O 0.80469 0.43524 0.22038 0.0
O153 O 0.80353 0.44375 0.19001 0.0
O154 O 0.83161 0.56275 0.52179 0.0
Cd155 Cd 0.81167 0.55575 0.55153 0.0
O156 O 0.80234 0.55493 0.50521 0.0
Cd157 Cd 0.78559 0.55376 0.47759 0.0
O158 O 0.78023 0.55703 0.44678 0.0
C159 C 0.78629 0.54284 0.43483 0.0
O160 O 0.79439 0.52593 0.4415 0.0
C161 C 0.82219 0.56061 0.50568 0.0
C162 C 0.79658 0.59253 0.56884 0.0
O163 O 0.81532 0.58645 0.57245 0.0
O164 O 0.78495 0.58115 0.55697 0.0
O165 O 0.83852 0.5898 0.26662 0.0
Cd166 Cd 0.8156 0.58193 0.23873 0.0
O167 O 0.81323 0.57341 0.28352 0.0
Cd168 Cd 0.80184 0.5612 0.31113 0.0
O169 O 0.7987 0.55137 0.34092 0.0
C170 C 0.78592 0.56005 0.35281 0.0
O171 O 0.77395 0.57482 0.34679 0.0
C172 C 0.83121 0.58373 0.28278 0.0
C173 C 0.81153 0.53887 0.22959 0.0
O174 O 0.82528 0.55087 0.2208 0.0
O175 O 0.79966 0.54725 0.24267 0.0
O176 O 0.64706 0.40373 0.7874 0.0
Cd177 Cd 0.62209 0.42173 0.76771 0.0
O178 O 0.6274 0.37405 0.78737 0.0
Cd179 Cd 0.59939 0.38735 0.7749 0.0
O180 O 0.56615 0.39134 0.78373 0.0
C181 C 0.55236 0.37618 0.78081 0.0
O182 O 0.55801 0.35976 0.77021 0.0
C183 C 0.64456 0.38459 0.79199 0.0
C184 C 0.63221 0.46497 0.76873 0.0
O185 O 0.61766 0.45703 0.77991 0.0
O186 O 0.64186 0.45248 0.75702 0.0
O187 O 0.65535 0.81272 0.6897 0.0
Cd188 Cd 0.63917 0.84166 0.7078 0.0
O189 O 0.6439 0.79417 0.7141 0.0
Cd190 Cd 0.63962 0.76496 0.72972 0.0
O191 O 0.64425 0.73602 0.74471 0.0
C192 C 0.65459 0.73719 0.7604 0.0
O193 O 0.66134 0.75586 0.76731 0.0
C194 C 0.65411 0.79531 0.69813 0.0
C195 C 0.60623 0.85964 0.68859 0.0
O196 O 0.62549 0.86767 0.6879 0.0
O197 O 0.60263 0.84298 0.69822 0.0
O198 O 0.52326 0.29733 0.87485 0.0
Cd199 Cd 0.48479 0.29321 0.86876 0.0
O200 O 0.52308 0.32972 0.88706 0.0
Cd201 Cd 0.49067 0.33288 0.87647 0.0
O202 O 0.48862 0.34255 0.84679 0.0
C203 C 0.49422 0.36165 0.84374 0.0
O204 O 0.49696 0.37473 0.85872 0.0
C205 C 0.53317 0.31328 0.8828 0.0
C206 C 0.47097 0.25113 0.87269 0.0
O207 O 0.47827 0.25778 0.85653 0.0
O208 O 0.46996 0.26449 0.88693 0.0
O209 O 0.95401 0.39973 0.16796 0.0
Cd210 Cd 0.99197 0.3971 0.15992 0.0
O211 O 0.94725 0.39428 0.13736 0.0
Cd212 Cd 0.92983 0.39013 0.11024 0.0
O213 O 0.91907 0.39672 0.0814 0.0
C214 C 0.92581 0.41424 0.07475 0.0
O215 O 0.9386 0.42674 0.08545 0.0
C216 C 0.94036 0.39751 0.15453 0.0
C217 C 0.00791 0.36231 0.17711 0.0
O218 O 0.00906 0.38058 0.18561 0.0
O219 O 0.99945 0.36062 0.16035 0.0
O220 O 0.8972 0.59301 0.35546 0.0
Cd221 Cd 0.91697 0.59723 0.38575 0.0
O222 O 0.86789 0.60367 0.36979 0.0
Cd223 Cd 0.87974 0.60415 0.39921 0.0
O224 O 0.87352 0.59694 0.42931 0.0
C225 C 0.86228 0.58004 0.43199 0.0
O226 O 0.85649 0.56814 0.41685 0.0
C227 C 0.87772 0.59781 0.35451 0.0
C228 C 0.95849 0.6146 0.3802 0.0
O229 O 0.95482 0.5946 0.38069 0.0
O230 O 0.9425 0.62636 0.3823 0.0
O231 O 0.68541 0.60932 0.74487 0.0
Cd232 Cd 0.67264 0.59639 0.77597 0.0
O233 O 0.71753 0.6189 0.75558 0.0
Cd234 Cd 0.70461 0.6184 0.78484 0.0
O235 O 0.68267 0.64396 0.78675 0.0
C236 C 0.69095 0.66253 0.78911 0.0
O237 O 0.71146 0.66501 0.79314 0.0
C238 C 0.70455 0.61632 0.74161 0.0
C239 C 0.65851 0.5541 0.7733 0.0
O240 O 0.64523 0.56874 0.77249 0.0
O241 O 0.67846 0.55948 0.77527 0.0
O242 O 0.83689 0.40737 0.00337 0.0
Cd243 Cd 0.85151 0.39705 0.97172 0.0
O244 O 0.8408 0.44164 -0.00014 0.0
Cd245 Cd 0.85805 0.43617 0.97273 0.0
O246 O 0.88371 0.42519 0.9901 0.0
C247 C 0.89239 0.43903 0.00161 0.0
O248 O 0.88784 0.45881 -0.00016 0.0
C249 C 0.83504 0.42609 0.01009 0.0
C250 C 0.82179 0.38381 0.94363 0.0
O251 O 0.82804 0.37107 0.95604 0.0
O252 O 0.82909 0.40303 0.94493 0.0
O253 O 0.7353 0.67152 0.66757 0.0
Cd254 Cd 0.74116 0.69075 0.638 0.0
O255 O 0.70434 0.65766 0.65749 0.0
Cd256 Cd 0.70087 0.68424 0.63901 0.0
O257 O 0.69014 0.71573 0.64652 0.0
C258 C 0.69132 0.72017 0.66453 0.0
O259 O 0.699 0.7062 0.6757 0.0
C260 C 0.7196 0.65818 0.6695 0.0
C261 C 0.76047 0.66291 0.61192 0.0
O262 O 0.77173 0.67553 0.62302 0.0
O263 O 0.74003 0.6641 0.61263 0.0
C264 C 0.0955 0.17725 0.28604 0.0
C265 C 0.08993 0.1559 0.28158 0.0
C266 C 0.0829 0.19328 0.27996 0.0
C267 C 0.06428 0.18862 0.26906 0.0
H268 H 0.11043 0.18177 0.29323 0.0
H269 H 0.08874 0.20945 0.28267 0.0
S270 S 0.03992 0.13516 0.25759 0.0
N271 N 0.06244 0.13086 0.26865 0.0
N272 N 0.0388 0.16102 0.25716 0.0
C273 C 0.05723 0.16731 0.26642 0.0
C274 C 0.07004 0.15094 0.2727 0.0
C275 C 0.1077 0.76346 0.39421 0.0
C276 C 0.12399 0.77598 0.38528 0.0
C277 C 0.10036 0.74398 0.38589 0.0
C278 C 0.10892 0.73641 0.36827 0.0
H279 H 0.10019 0.76893 0.40752 0.0
H280 H 0.08749 0.73505 0.39302 0.0
S281 S 0.15391 0.76136 0.34047 0.0
N282 N 0.14983 0.77821 0.35868 0.0
N283 N 0.13613 0.74155 0.34331 0.0
C284 C 0.12582 0.74822 0.35964 0.0
C285 C 0.13333 0.76802 0.36807 0.0
C286 C 0.4338 0.91213 0.67792 0.0
C287 C 0.43466 0.91221 0.65763 0.0
C288 C 0.41417 0.91159 0.68798 0.0
C289 C 0.39457 0.91127 0.67819 0.0
H290 H 0.44846 0.91241 0.68614 0.0
H291 H 0.41438 0.9117 0.70361 0.0
S292 S 0.38784 0.911 0.6251 0.0
N293 N 0.41407 0.91276 0.62816 0.0
N294 N 0.37719 0.90966 0.64697 0.0
C295 C 0.39513 0.91096 0.6579 0.0
C296 C 0.41517 0.91195 0.64764 0.0
C297 C 0.32629 0.07333 0.964 0.0
C298 C 0.3353 0.05838 0.9512 0.0
C299 C 0.31779 0.06759 0.982 0.0
C300 C 0.31796 0.0467 0.98791 0.0
H301 H 0.32585 0.08965 0.96016 0.0
H302 H 0.3111 0.07962 0.99142 0.0
S303 S 0.33873 0.00131 0.95974 0.0
N304 N 0.34321 0.02151 0.94569 0.0
N305 N 0.3274 0.01094 0.9796 0.0
C306 C 0.3269 0.0316 0.97537 0.0
C307 C 0.33544 0.03737 0.95698 0.0
C308 C 0.15131 0.79609 0.28091 0.0
C309 C 0.13021 0.79322 0.28812 0.0
C310 C 0.15943 0.81585 0.2751 0.0
C311 C 0.14671 0.8335 0.27601 0.0
H312 H 0.16199 0.78319 0.28044 0.0
H313 H 0.17603 0.8174 0.27036 0.0
S314 S 0.08968 0.83395 0.29198 0.0
N315 N 0.09623 0.80939 0.29453 0.0
N316 N 0.11141 0.84647 0.28345 0.0
C317 C 0.12521 0.83061 0.2822 0.0
C318 C 0.117 0.81051 0.28832 0.0
C319 C 0.38793 0.90572 0.53525 0.0
C320 C 0.3959 0.92296 0.52468 0.0
C321 C 0.39983 0.89793 0.55017 0.0
C322 C 0.42024 0.90695 0.55497 0.0
H323 H 0.37189 0.8989 0.53274 0.0
H324 H 0.3926 0.88524 0.55843 0.0
S325 S 0.44945 0.95055 0.52972 0.0
N326 N 0.42616 0.94751 0.5187 0.0
N327 N 0.44875 0.93276 0.54648 0.0
C328 C 0.42895 0.9233 0.54361 0.0
C329 C 0.41671 0.93135 0.52855 0.0
C330 C 0.38244 0.07627 0.84017 0.0
C331 C 0.37749 0.09221 0.85386 0.0
C332 C 0.36795 0.06968 0.82563 0.0
C333 C 0.3484 0.07936 0.82392 0.0
H334 H 0.39771 0.06895 0.84063 0.0
H335 H 0.37231 0.05735 0.81532 0.0
S336 S 0.32776 0.12164 0.85614 0.0
N337 N 0.35137 0.11704 0.86516 0.0
N338 N 0.32455 0.10533 0.83715 0.0
C339 C 0.34316 0.0952 0.83753 0.0
C340 C 0.35761 0.10145 0.85273 0.0
C341 C 0.14695 0.22954 0.19399 0.0
C342 C 0.14821 0.21095 0.18244 0.0
C343 C 0.12718 0.23656 0.20065 0.0
C344 C 0.10776 0.22537 0.19597 0.0
H345 H 0.1614 0.23844 0.19852 0.0
H346 H 0.12722 0.25057 0.21003 0.0
S347 S 0.10205 0.17696 0.16433 0.0
N348 N 0.12817 0.18238 0.16528 0.0
N349 N 0.091 0.19558 0.1777 0.0
C350 C 0.1087 0.20735 0.18357 0.0
C351 C 0.12889 0.20013 0.17686 0.0
C352 C 0.21308 0.13485 0.22969 0.0
C353 C 0.19244 0.12689 0.2243 0.0
C354 C 0.22843 0.14115 0.21582 0.0
C355 C 0.2236 0.14009 0.19608 0.0
H356 H 0.21744 0.13634 0.24477 0.0
H357 H 0.24405 0.14731 0.22062 0.0
S358 S 0.17266 0.11923 0.17407 0.0
N359 N 0.16846 0.11748 0.19753 0.0
N360 N 0.19744 0.12925 0.17161 0.0
C361 C 0.20329 0.13177 0.19039 0.0
C362 C 0.18769 0.12517 0.20446 0.0
C363 C 0.1718 0.89324 0.34393 0.0
C364 C 0.1535 0.90317 0.33794 0.0
C365 C 0.17212 0.88346 0.36167 0.0
C366 C 0.15416 0.88318 0.37418 0.0
H367 H 0.18559 0.89188 0.3344 0.0
H368 H 0.18617 0.87504 0.36505 0.0
S369 S 0.10395 0.91068 0.36711 0.0
N370 N 0.1182 0.91489 0.34727 0.0
N371 N 0.1188 0.89649 0.38062 0.0
C372 C 0.1365 0.89469 0.36917 0.0
C373 C 0.13619 0.90468 0.35107 0.0
C374 C 0.31662 0.92296 0.59095 0.0
C375 C 0.33018 0.93831 0.60044 0.0
C376 C 0.31424 0.92252 0.57089 0.0
C377 C 0.32512 0.93755 0.55947 0.0
H378 H 0.30825 0.91068 0.59897 0.0
H379 H 0.30418 0.90995 0.56424 0.0
S380 S 0.36148 0.98198 0.57725 0.0
N381 N 0.35382 0.96964 0.5969 0.0
N382 N 0.34924 0.96888 0.5592 0.0
C383 C 0.33799 0.95359 0.56881 0.0
C384 C 0.34056 0.95393 0.58928 0.0
C385 C 0.29025 0.03108 0.91967 0.0
C386 C 0.28502 0.04987 0.92962 0.0
C387 C 0.2984 0.03119 0.90077 0.0
C388 C 0.30159 0.05008 0.89099 0.0
H389 H 0.28823 0.01609 0.92656 0.0
H390 H 0.30208 0.01627 0.89376 0.0
S391 S 0.2916 0.1038 0.91082 0.0
N392 N 0.28433 0.08806 0.9284 0.0
N393 N 0.29966 0.08824 0.89288 0.0
C394 C 0.29661 0.06904 0.90077 0.0
C395 C 0.2883 0.06894 0.92005 0.0
C396 C 0.59133 0.33368 0.88342 0.0
C397 C 0.60269 0.31511 0.88178 0.0
C398 C 0.56888 0.33293 0.88494 0.0
C399 C 0.55684 0.31359 0.88468 0.0
H400 H 0.59977 0.34898 0.883 0.0
H401 H 0.5609 0.34767 0.88539 0.0
S402 S 0.57879 0.2604 0.88286 0.0
N403 N 0.60016 0.27675 0.88173 0.0
N404 N 0.558 0.27541 0.88438 0.0
C405 C 0.56801 0.29491 0.88405 0.0
C406 C 0.5909 0.29566 0.88266 0.0
C407 C 0.90263 0.40481 0.14531 0.0
C408 C 0.91711 0.39875 0.15916 0.0
C409 C 0.88075 0.40645 0.14971 0.0
C410 C 0.87244 0.40267 0.16831 0.0
H411 H 0.90819 0.40893 0.13107 0.0
H412 H 0.87045 0.41065 0.13831 0.0
S413 S 0.90369 0.38597 0.20989 0.0
N414 N 0.92149 0.38829 0.19219 0.0
N415 N 0.88071 0.39219 0.20072 0.0
C416 C 0.8868 0.39646 0.18231 0.0
C417 C 0.90901 0.39446 0.17773 0.0
C418 C 0.84069 0.5563 0.45358 0.0
C419 C 0.85401 0.57466 0.45147 0.0
C420 C 0.83093 0.55163 0.47131 0.0
C421 C 0.83403 0.56513 0.48761 0.0
H422 H 0.8374 0.54556 0.44136 0.0
H423 H 0.82078 0.53736 0.47225 0.0
S424 S 0.86874 0.61421 0.4905 0.0
N425 N 0.87089 0.60573 0.46779 0.0
N426 N 0.85237 0.59683 0.50109 0.0
C427 C 0.84804 0.583 0.48606 0.0
C428 C 0.85802 0.58783 0.46798 0.0
C429 C 0.86489 0.5837 0.30188 0.0
C430 C 0.84332 0.58867 0.30061 0.0
C431 C 0.87607 0.58705 0.31926 0.0
C432 C 0.8661 0.59572 0.3359 0.0
H433 H 0.87298 0.57661 0.28953 0.0
H434 H 0.89252 0.58244 0.31972 0.0
S435 S 0.81048 0.61407 0.33886 0.0
N436 N 0.81294 0.60443 0.31655 0.0
N437 N 0.8337 0.61087 0.34919 0.0
C438 C 0.84471 0.6016 0.3344 0.0
C439 C 0.83339 0.59805 0.31677 0.0
C440 C 0.52212 0.35471 0.79546 0.0
C441 C 0.53291 0.3745 0.79334 0.0
C442 C 0.50779 0.35114 0.81086 0.0
C443 C 0.50371 0.36723 0.82473 0.0
H444 H 0.52594 0.34139 0.78608 0.0
H445 H 0.50123 0.33522 0.81267 0.0
S446 S 0.52316 0.42329 0.82253 0.0
N447 N 0.53508 0.41144 0.80404 0.0
N448 N 0.50813 0.40474 0.83298 0.0
C449 C 0.51227 0.38771 0.82135 0.0
C450 C 0.52689 0.39134 0.80566 0.0
C451 C 0.68656 0.70134 0.79017 0.0
C452 C 0.67902 0.68103 0.78393 0.0
C453 C 0.67782 0.71938 0.78317 0.0
C454 C 0.66138 0.71785 0.76941 0.0
H455 H 0.69979 0.70337 0.80014 0.0
H456 H 0.68469 0.73463 0.78803 0.0
S457 S 0.63479 0.66828 0.74944 0.0
N458 N 0.65312 0.66039 0.76411 0.0
N459 N 0.63684 0.69428 0.75081 0.0
C460 C 0.653 0.69761 0.76369 0.0
C461 C 0.66176 0.67922 0.77099 0.0
C462 C 0.90786 0.40594 0.04308 0.0
C463 C 0.91892 0.42064 0.05551 0.0
C464 C 0.90029 0.41177 0.02522 0.0
C465 C 0.90331 0.43259 0.01912 0.0
H466 H 0.90473 0.38981 0.04726 0.0
H467 H 0.89132 0.39999 0.01648 0.0
S468 S 0.93213 0.47694 0.04579 0.0
N469 N 0.93326 0.45683 0.06003 0.0
N470 N 0.91894 0.46774 0.02654 0.0
C471 C 0.91485 0.44732 0.03114 0.0
C472 C 0.92267 0.44136 0.0493 0.0
C473 C 0.66195 0.77113 0.66994 0.0
C474 C 0.66449 0.77675 0.6896 0.0
C475 C 0.67098 0.75301 0.66181 0.0
C476 C 0.68302 0.73999 0.67305 0.0
H477 H 0.65249 0.78052 0.66089 0.0
H478 H 0.66816 0.749 0.64671 0.0
S479 S 0.69689 0.74988 0.72468 0.0
N480 N 0.68172 0.76939 0.71959 0.0
N481 N 0.69849 0.73527 0.70459 0.0
C482 C 0.68636 0.74604 0.69259 0.0
C483 C 0.67715 0.76445 0.7008 0.0
C484 C 0.69536 0.62225 0.70733 0.0
C485 C 0.71059 0.62396 0.72218 0.0
C486 C 0.69893 0.63247 0.68996 0.0
C487 C 0.71787 0.64488 0.68667 0.0
H488 H 0.6801 0.61368 0.70939 0.0
H489 H 0.68627 0.6313 0.67938 0.0
S490 S 0.76424 0.65201 0.71974 0.0
N491 N 0.7464 0.63719 0.73157 0.0
N492 N 0.75311 0.65639 0.69892 0.0
C493 C 0.73389 0.64555 0.70084 0.0
C494 C 0.73026 0.63509 0.71857 0.0
C495 C 0.67094 0.34597 0.82354 0.0
C496 C 0.69167 0.3552 0.82624 0.0
C497 C 0.65594 0.3555 0.81231 0.0
C498 C 0.66107 0.3747 0.80337 0.0
H499 H 0.66638 0.33099 0.82975 0.0
H500 H 0.64017 0.34774 0.81072 0.0
S501 S 0.71352 0.40507 0.80582 0.0
N502 N 0.71679 0.38437 0.81895 0.0
N503 N 0.68866 0.40243 0.7979 0.0
C504 C 0.68185 0.38405 0.80593 0.0
C505 C 0.69715 0.37423 0.81728 0.0
C506 C 0.81616 0.41462 0.04013 0.0
C507 C 0.8299 0.42934 0.03083 0.0
C508 C 0.81427 0.41483 0.0603 0.0
C509 C 0.82645 0.42946 0.07197 0.0
H510 H 0.80734 0.40238 0.03178 0.0
H511 H 0.80389 0.40278 0.06676 0.0
S512 S 0.86418 0.47192 0.05457 0.0
N513 N 0.85511 0.45962 0.0347 0.0
N514 N 0.85196 0.45977 0.07259 0.0
C515 C 0.83966 0.44479 0.0628 0.0
C516 C 0.84127 0.4448 0.04223 0.0
C517 C 0.77445 0.56709 0.38709 0.0
C518 C 0.78542 0.55454 0.37346 0.0
C519 C 0.77457 0.56299 0.40681 0.0
C520 C 0.78553 0.54606 0.41374 0.0
H521 H 0.76598 0.58048 0.3826 0.0
H522 H 0.76612 0.57333 0.4167 0.0
S523 S 0.81616 0.5079 0.38397 0.0
N524 N 0.80711 0.52406 0.36827 0.0
N525 N 0.80729 0.51632 0.40526 0.0
C526 C 0.79622 0.5331 0.40023 0.0
C527 C 0.79619 0.53735 0.38014 0.0
C528 C 0.03555 0.32949 0.21304 0.0
C529 C 0.03156 0.30869 0.20585 0.0
C530 C 0.02787 0.34665 0.20364 0.0
C531 C 0.016 0.34376 0.18654 0.0
H532 H 0.04458 0.33263 0.22616 0.0
H533 H 0.03133 0.36232 0.20985 0.0
S534 S 0.00136 0.29246 0.16147 0.0
N535 N 0.01505 0.28616 0.18043 0.0
N536 N 0.00072 0.31839 0.1627 0.0
C537 C 0.01201 0.32304 0.17908 0.0
C538 C 0.01972 0.30552 0.18873 0.0
C539 C 0.00371 0.65303 0.36521 0.0
C540 C 0.02227 0.64213 0.3686 0.0
C541 C 0.98321 0.64417 0.3694 0.0
C542 C 0.98043 0.62389 0.3768 0.0
H543 H 0.00498 0.66855 0.35924 0.0
H544 H 0.96942 0.65313 0.3664 0.0
S545 S 0.0238 0.58894 0.38874 0.0
N546 N 0.03654 0.61016 0.38033 0.0
N547 N 0.99801 0.59338 0.38787 0.0
C548 C 0.99884 0.61289 0.38045 0.0
C549 C 0.01975 0.62205 0.37645 0.0
C550 C 0.59066 0.89144 0.67543 0.0
C551 C 0.58857 0.86982 0.67912 0.0
C552 C 0.5739 0.90175 0.66724 0.0
C553 C 0.55456 0.89076 0.66208 0.0
H554 H 0.60523 0.9006 0.67921 0.0
H555 H 0.57621 0.91845 0.66481 0.0
S556 S 0.54119 0.83383 0.66826 0.0
N557 N 0.5657 0.83768 0.67681 0.0
N558 N 0.53435 0.85698 0.66105 0.0
C559 C 0.55236 0.86906 0.66541 0.0
C560 C 0.56931 0.85862 0.67405 0.0
C561 C 0.46578 0.19199 0.86261 0.0
C562 C 0.45421 0.18448 0.87873 0.0
C563 C 0.47076 0.21355 0.86067 0.0
C564 C 0.46461 0.22852 0.87487 0.0
H565 H 0.47105 0.18114 0.85133 0.0
H566 H 0.47982 0.21844 0.84804 0.0
S567 S 0.43374 0.21719 0.91979 0.0
N568 N 0.43641 0.19384 0.90907 0.0
N569 N 0.44597 0.23433 0.90551 0.0
C570 C 0.45291 0.22127 0.89103 0.0
C571 C 0.44765 0.19929 0.89293 0.0
C572 C 0.11362 0.99835 0.26405 0.0
C573 C 0.13174 0.98848 0.27047 0.0
C574 C 0.11411 0.02016 0.26163 0.0
C575 C 0.13259 0.03302 0.2659 0.0
H576 H 0.09897 0.98914 0.26065 0.0
H577 H 0.09977 0.02702 0.25659 0.0
S578 S 0.18428 0.015 0.28335 0.0
N579 N 0.16874 0.99325 0.28104 0.0
N580 N 0.16952 0.03428 0.27684 0.0
C581 C 0.15079 0.02339 0.27246 0.0
C582 C 0.1504 0.00112 0.27464 0.0
C583 C 0.2268 0.87908 0.46372 0.0
C584 C 0.22652 0.85866 0.45514 0.0
C585 C 0.2453 0.88817 0.47253 0.0
C586 C 0.26418 0.87709 0.47338 0.0
H587 H 0.2128 0.88841 0.46318 0.0
H588 H 0.24482 0.9041 0.47857 0.0
S589 S 0.27146 0.8226 0.45414 0.0
N590 N 0.24651 0.82727 0.44872 0.0
N591 N 0.28119 0.84422 0.46553 0.0
C592 C 0.26393 0.85639 0.46542 0.0
C593 C 0.24514 0.84722 0.45622 0.0
C594 C 0.322 0.00214 0.73356 0.0
C595 C 0.31809 0.00793 0.75301 0.0
C596 C 0.32571 0.98123 0.72791 0.0
C597 C 0.32618 0.96544 0.74156 0.0
H598 H 0.32189 0.01379 0.72256 0.0
H599 H 0.32851 0.97748 0.71275 0.0
S600 S 0.31748 0.97258 0.7944 0.0
N601 N 0.31505 0.99627 0.78598 0.0
N602 N 0.3226 0.95708 0.77543 0.0
C603 C 0.32258 0.97108 0.7611 0.0
C604 C 0.31836 0.99229 0.7668 0.0
C605 C 0.27982 0.10092 0.10224 0.0
C606 C 0.29498 0.105 0.11692 0.0
C607 C 0.28176 0.08415 0.08874 0.0
C608 C 0.29901 0.07079 0.08928 0.0
H609 H 0.26612 0.1106 0.10123 0.0
H610 H 0.26953 0.08164 0.07785 0.0
S611 S 0.34354 0.07507 0.12446 0.0
N612 N 0.32817 0.09453 0.13093 0.0
N613 N 0.33186 0.06308 0.10555 0.0
C614 C 0.31449 0.07485 0.10372 0.0
C615 C 0.31247 0.09191 0.11753 0.0
C616 C 0.78325 0.34826 0.91378 0.0
C617 C 0.78324 0.35812 0.89597 0.0
C618 C 0.79533 0.35698 0.92928 0.0
C619 C 0.80751 0.37611 0.92769 0.0
H620 H 0.77454 0.33326 0.91556 0.0
H621 H 0.79539 0.34846 0.94252 0.0
S622 S 0.81121 0.40917 0.88464 0.0
N623 N 0.79538 0.38866 0.87794 0.0
N624 N 0.81772 0.4053 0.90718 0.0
C625 C 0.8068 0.38664 0.91023 0.0
C626 C 0.79479 0.37757 0.89434 0.0
C627 C 0.81323 0.48718 0.20065 0.0
C628 C 0.80541 0.47221 0.2138 0.0
C629 C 0.81532 0.50866 0.20597 0.0
C630 C 0.80926 0.51606 0.22451 0.0
H631 H 0.81814 0.48226 0.1862 0.0
H632 H 0.82155 0.51956 0.19538 0.0
S633 S 0.78758 0.4834 0.26425 0.0
N634 N 0.79156 0.4663 0.24621 0.0
N635 N 0.79504 0.50674 0.25606 0.0
C636 C 0.80118 0.50131 0.23775 0.0
C637 C 0.79939 0.47937 0.23243 0.0
C638 C 0.75755 0.6323 0.58815 0.0
C639 C 0.77052 0.64643 0.59959 0.0
C640 C 0.76622 0.6153 0.57785 0.0
C641 C 0.78823 0.61163 0.57864 0.0
H642 H 0.7404 0.63403 0.58745 0.0
H643 H 0.75543 0.60462 0.56963 0.0
S644 S 0.82958 0.64504 0.60507 0.0
N645 N 0.80687 0.6564 0.61004 0.0
N646 N 0.82311 0.62442 0.59076 0.0
C647 C 0.80155 0.62607 0.58944 0.0
C648 C 0.79274 0.64347 0.59988 0.0
C649 C 0.66541 0.5164 0.76534 0.0
C650 C 0.65116 0.53159 0.77195 0.0
C651 C 0.65899 0.49496 0.76401 0.0
C652 C 0.63821 0.48781 0.76965 0.0
H653 H 0.68164 0.52113 0.761 0.0
H654 H 0.67054 0.48385 0.75885 0.0
S655 S 0.59476 0.52115 0.78799 0.0
N656 N 0.61522 0.53802 0.78401 0.0
N657 N 0.60331 0.49763 0.78195 0.0
C658 C 0.62379 0.50281 0.77633 0.0
C659 C 0.63022 0.52471 0.77734 0.0
loop_
_geom_bond_atom_site_label_1
_geom_bond_atom_site_label_2
_geom_bond_distance
_geom_bond_site_symmetry_2
_ccdc_geom_bond_type
O0 Cd1 2.300 . S
O0 C7 1.275 . S
Cd1 O0 2.300 . S
Cd1 O9 2.381 . S
Cd1 O10 2.378 . S
O2 Cd3 2.385 . S
O2 C7 1.255 . S
Cd3 O2 2.385 . S
Cd3 O4 2.317 . S
O4 Cd3 2.317 . S
O4 C5 1.232 . S
C5 O4 1.232 . S
C5 O6 1.218 . S
O6 C5 1.218 . S
C7 O0 1.275 . S
C7 O2 1.255 . S
C8 O9 1.258 . S
C8 O10 1.256 . S
O9 Cd1 2.381 . S
O9 C8 1.258 . S
O10 Cd1 2.378 . S
O10 C8 1.256 . S
O11 Cd12 2.300 . S
O11 C18 1.275 . S
Cd12 O11 2.300 . S
Cd12 O20 2.381 . S
Cd12 O21 2.378 . S
O13 Cd14 2.385 . S
O13 C18 1.255 . S
Cd14 O13 2.385 . S
Cd14 O15 2.317 . S
O15 Cd14 2.317 . S
O15 C16 1.232 . S
C16 O15 1.232 . S
C16 O17 1.218 . S
O17 C16 1.218 . S
C18 O11 1.275 . S
C18 O13 1.255 . S
C19 O20 1.258 . S
C19 O21 1.256 . S
O20 Cd12 2.381 . S
O20 C19 1.258 . S
O21 Cd12 2.378 . S
O21 C19 1.256 . S
O22 Cd23 2.300 . S
O22 C29 1.275 . S
Cd23 O22 2.300 . S
Cd23 O31 2.381 . S
Cd23 O32 2.378 . S
O24 Cd25 2.385 . S
O24 C29 1.255 . S
Cd25 O24 2.385 . S
Cd25 O26 2.317 . S
O26 Cd25 2.317 . S
O26 C27 1.232 . S
C27 O26 1.232 . S
C27 O28 1.218 . S
O28 C27 1.218 . S
C29 O22 1.275 . S
C29 O24 1.255 . S
C30 O31 1.258 . S
C30 O32 1.256 . S
O31 Cd23 2.381 . S
O31 C30 1.258 . S
O32 Cd23 2.378 . S
O32 C30 1.256 . S
O33 Cd34 2.300 . S
O33 C40 1.275 . S
Cd34 O33 2.300 . S
Cd34 O42 2.381 . S
Cd34 O43 2.378 . S
O35 Cd36 2.385 . S
O35 C40 1.255 . S
Cd36 O35 2.385 . S
Cd36 O37 2.317 . S
O37 Cd36 2.317 . S
O37 C38 1.232 . S
C38 O37 1.232 . S
C38 O39 1.218 . S
O39 C38 1.218 . S
C40 O33 1.275 . S
C40 O35 1.255 . S
C41 O42 1.258 . S
C41 O43 1.256 . S
O42 Cd34 2.381 . S
O42 C41 1.258 . S
O43 Cd34 2.378 . S
O43 C41 1.256 . S
O44 Cd45 2.300 . S
O44 C51 1.275 . S
Cd45 O44 2.300 . S
Cd45 O53 2.381 . S
Cd45 O54 2.378 . S
O46 Cd47 2.385 . S
O46 C51 1.255 . S
Cd47 O46 2.385 . S
Cd47 O48 2.317 . S
O48 Cd47 2.317 . S
O48 C49 1.232 . S
C49 O48 1.232 . S
C49 O50 1.218 . S
O50 C49 1.218 . S
C51 O44 1.275 . S
C51 O46 1.255 . S
C52 O53 1.258 . S
C52 O54 1.256 . S
O53 Cd45 2.381 . S
O53 C52 1.258 . S
O54 Cd45 2.378 . S
O54 C52 1.256 . S
O55 Cd56 2.300 . S
O55 C62 1.275 . S
Cd56 O55 2.300 . S
Cd56 O64 2.381 . S
Cd56 O65 2.378 . S
O57 Cd58 2.385 . S
O57 C62 1.255 . S
Cd58 O57 2.385 . S
Cd58 O59 2.317 . S
O59 Cd58 2.317 . S
O59 C60 1.232 . S
C60 O59 1.232 . S
C60 O61 1.218 . S
O61 C60 1.218 . S
C62 O55 1.275 . S
C62 O57 1.255 . S
C63 O64 1.258 . S
C63 O65 1.256 . S
O64 Cd56 2.381 . S
O64 C63 1.258 . S
O65 Cd56 2.378 . S
O65 C63 1.256 . S
O66 Cd67 2.300 . S
O66 C73 1.275 . S
Cd67 O66 2.300 . S
Cd67 O75 2.381 . S
Cd67 O76 2.378 . S
O68 Cd69 2.385 . S
O68 C73 1.255 . S
Cd69 O68 2.385 . S
Cd69 O70 2.317 . S
O70 Cd69 2.317 . S
O70 C71 1.232 . S
C71 O70 1.232 . S
C71 O72 1.218 . S
O72 C71 1.218 . S
C73 O66 1.275 . S
C73 O68 1.255 . S
C74 O75 1.258 . S
C74 O76 1.256 . S
O75 Cd67 2.381 . S
O75 C74 1.258 . S
O76 Cd67 2.378 . S
O76 C74 1.256 . S
O77 Cd78 2.300 . S
O77 C84 1.275 1_554 S
Cd78 O77 2.300 . S
Cd78 O86 2.381 . S
Cd78 O87 2.378 . S
O79 Cd80 2.385 . S
O79 C84 1.255 . S
Cd80 O79 2.385 . S
Cd80 O81 2.317 . S
O81 Cd80 2.317 . S
O81 C82 1.232 . S
C82 O81 1.232 . S
C82 O83 1.218 . S
O83 C82 1.218 . S
C84 O77 1.275 1_556 S
C84 O79 1.255 . S
C85 O86 1.258 . S
C85 O87 1.256 . S
O86 Cd78 2.381 . S
O86 C85 1.258 . S
O87 Cd78 2.378 . S
O87 C85 1.256 . S
O88 Cd89 2.300 . S
O88 C95 1.275 . S
Cd89 O88 2.300 . S
Cd89 O97 2.381 . S
Cd89 O98 2.378 . S
O90 Cd91 2.385 . S
O90 C95 1.255 . S
Cd91 O90 2.385 . S
Cd91 O92 2.317 . S
O92 Cd91 2.317 . S
O92 C93 1.232 . S
C93 O92 1.232 . S
C93 O94 1.218 . S
O94 C93 1.218 . S
C95 O88 1.275 . S
C95 O90 1.255 . S
C96 O97 1.258 . S
C96 O98 1.256 . S
O97 Cd89 2.381 . S
O97 C96 1.258 . S
O98 Cd89 2.378 . S
O98 C96 1.256 . S
O99 Cd100 2.300 . S
O99 C106 1.275 . S
Cd100 O99 2.300 . S
Cd100 O108 2.381 . S
Cd100 O109 2.378 . S
O101 Cd102 2.385 . S
O101 C106 1.255 . S
Cd102 O101 2.385 . S
Cd102 O103 2.317 . S
O103 Cd102 2.317 . S
O103 C104 1.232 . S
C104 O103 1.232 . S
C104 O105 1.218 . S
O105 C104 1.218 . S
C106 O99 1.275 . S
C106 O101 1.255 . S
C107 O108 1.258 . S
C107 O109 1.256 . S
O108 Cd100 2.381 . S
O108 C107 1.258 . S
O109 Cd100 2.378 . S
O109 C107 1.256 . S
O110 Cd111 2.300 . S
O110 C117 1.275 . S
Cd111 O110 2.300 . S
Cd111 O119 2.381 . S
Cd111 O120 2.378 . S
O112 Cd113 2.385 . S
O112 C117 1.255 . S
Cd113 O112 2.385 . S
Cd113 O114 2.317 . S
O114 Cd113 2.317 . S
O114 C115 1.232 . S
C115 O114 1.232 . S
C115 O116 1.218 . S
O116 C115 1.218 . S
C117 O110 1.275 . S
C117 O112 1.255 . S
C118 O119 1.258 . S
C118 O120 1.256 . S
O119 Cd111 2.381 . S
O119 C118 1.258 . S
O120 Cd111 2.378 . S
O120 C118 1.256 . S
O121 Cd122 2.300 . S
O121 C128 1.275 . S
Cd122 O121 2.300 . S
Cd122 O130 2.381 . S
Cd122 O131 2.378 . S
O123 Cd124 2.385 . S
O123 C128 1.255 . S
Cd124 O123 2.385 . S
Cd124 O125 2.317 . S
O125 Cd124 2.317 . S
O125 C126 1.232 . S
C126 O125 1.232 . S
C126 O127 1.218 . S
O127 C126 1.218 . S
C128 O121 1.275 . S
C128 O123 1.255 . S
C129 O130 1.258 . S
C129 O131 1.256 . S
O130 Cd122 2.381 . S
O130 C129 1.258 . S
O131 Cd122 2.378 . S
O131 C129 1.256 . S
O132 Cd133 2.300 . S
O132 C139 1.275 . S
Cd133 O132 2.300 . S
Cd133 O141 2.381 . S
Cd133 O142 2.378 . S
O134 Cd135 2.385 . S
O134 C139 1.255 . S
Cd135 O134 2.385 . S
Cd135 O136 2.317 . S
O136 Cd135 2.317 . S
O136 C137 1.232 . S
C137 O136 1.232 . S
C137 O138 1.218 . S
O138 C137 1.218 . S
C139 O132 1.275 . S
C139 O134 1.255 . S
C140 O141 1.258 . S
C140 O142 1.256 . S
O141 Cd133 2.381 . S
O141 C140 1.258 . S
O142 Cd133 2.378 . S
O142 C140 1.256 . S
O143 Cd144 2.300 . S
O143 C150 1.275 . S
Cd144 O143 2.300 . S
Cd144 O152 2.381 . S
Cd144 O153 2.378 . S
O145 Cd146 2.385 . S
O145 C150 1.255 . S
Cd146 O145 2.385 . S
Cd146 O147 2.317 . S
O147 Cd146 2.317 . S
O147 C148 1.232 . S
C148 O147 1.232 . S
C148 O149 1.218 . S
O149 C148 1.218 . S
C150 O143 1.275 . S
C150 O145 1.255 . S
C151 O152 1.258 . S
C151 O153 1.256 . S
O152 Cd144 2.381 . S
O152 C151 1.258 . S
O153 Cd144 2.378 . S
O153 C151 1.256 . S
O154 Cd155 2.300 . S
O154 C161 1.275 . S
Cd155 O154 2.300 . S
Cd155 O163 2.381 . S
Cd155 O164 2.378 . S
O156 Cd157 2.385 . S
O156 C161 1.255 . S
Cd157 O156 2.385 . S
Cd157 O158 2.317 . S
O158 Cd157 2.317 . S
O158 C159 1.232 . S
C159 O158 1.232 . S
C159 O160 1.218 . S
O160 C159 1.218 . S
C161 O154 1.275 . S
C161 O156 1.255 . S
C162 O163 1.258 . S
C162 O164 1.256 . S
O163 Cd155 2.381 . S
O163 C162 1.258 . S
O164 Cd155 2.378 . S
O164 C162 1.256 . S
O165 Cd166 2.300 . S
O165 C172 1.275 . S
Cd166 O165 2.300 . S
Cd166 O174 2.381 . S
Cd166 O175 2.378 . S
O167 Cd168 2.385 . S
O167 C172 1.255 . S
Cd168 O167 2.385 . S
Cd168 O169 2.317 . S
O169 Cd168 2.317 . S
O169 C170 1.232 . S
C170 O169 1.232 . S
C170 O171 1.218 . S
O171 C170 1.218 . S
C172 O165 1.275 . S
C172 O167 1.255 . S
C173 O174 1.258 . S
C173 O175 1.256 . S
O174 Cd166 2.381 . S
O174 C173 1.258 . S
O175 Cd166 2.378 . S
O175 C173 1.256 . S
O176 Cd177 2.300 . S
O176 C183 1.275 . S
Cd177 O176 2.300 . S
Cd177 O185 2.381 . S
Cd177 O186 2.378 . S
O178 Cd179 2.385 . S
O178 C183 1.255 . S
Cd179 O178 2.385 . S
Cd179 O180 2.317 . S
O180 Cd179 2.317 . S
O180 C181 1.232 . S
C181 O180 1.232 . S
C181 O182 1.218 . S
O182 C181 1.218 . S
C183 O176 1.275 . S
C183 O178 1.255 . S
C184 O185 1.258 . S
C184 O186 1.256 . S
O185 Cd177 2.381 . S
O185 C184 1.258 . S
O186 Cd177 2.378 . S
O186 C184 1.256 . S
O187 Cd188 2.300 . S
O187 C194 1.275 . S
Cd188 O187 2.300 . S
Cd188 O196 2.381 . S
Cd188 O197 2.378 . S
O189 Cd190 2.385 . S
O189 C194 1.255 . S
Cd190 O189 2.385 . S
Cd190 O191 2.317 . S
O191 Cd190 2.317 . S
O191 C192 1.232 . S
C192 O191 1.232 . S
C192 O193 1.218 . S
O193 C192 1.218 . S
C194 O187 1.275 . S
C194 O189 1.255 . S
C195 O196 1.258 . S
C195 O197 1.256 . S
O196 Cd188 2.381 . S
O196 C195 1.258 . S
O197 Cd188 2.378 . S
O197 C195 1.256 . S
O198 Cd199 2.300 . S
O198 C205 1.275 . S
Cd199 O198 2.300 . S
Cd199 O207 2.381 . S
Cd199 O208 2.378 . S
O200 Cd201 2.385 . S
O200 C205 1.255 . S
Cd201 O200 2.385 . S
Cd201 O202 2.317 . S
O202 Cd201 2.317 . S
O202 C203 1.232 . S
C203 O202 1.232 . S
C203 O204 1.218 . S
O204 C203 1.218 . S
C205 O198 1.275 . S
C205 O200 1.255 . S
C206 O207 1.258 . S
C206 O208 1.256 . S
O207 Cd199 2.381 . S
O207 C206 1.258 . S
O208 Cd199 2.378 . S
O208 C206 1.256 . S
O209 Cd210 2.300 . S
O209 C216 1.275 . S
Cd210 O209 2.300 . S
Cd210 O218 2.359 1_655 S
Cd210 O219 2.378 . S
O211 Cd212 2.385 . S
O211 C216 1.255 . S
Cd212 O211 2.385 . S
Cd212 O213 2.317 . S
O213 Cd212 2.317 . S
O213 C214 1.232 . S
C214 O213 1.232 . S
C214 O215 1.218 . S
O215 C214 1.218 . S
C216 O209 1.275 . S
C216 O211 1.255 . S
C217 O218 1.268 . S
C217 O219 1.256 1_455 S
O218 Cd210 2.359 1_455 S
O218 C217 1.268 . S
O219 Cd210 2.378 . S
O219 C217 1.256 1_655 S
O220 Cd221 2.300 . S
O220 C227 1.275 . S
Cd221 O220 2.300 . S
Cd221 O229 2.381 . S
Cd221 O230 2.378 . S
O222 Cd223 2.385 . S
O222 C227 1.255 . S
Cd223 O222 2.385 . S
Cd223 O224 2.317 . S
O224 Cd223 2.317 . S
O224 C225 1.232 . S
C225 O224 1.232 . S
C225 O226 1.218 . S
O226 C225 1.218 . S
C227 O220 1.275 . S
C227 O222 1.255 . S
C228 O229 1.258 . S
C228 O230 1.256 . S
O229 Cd221 2.381 . S
O229 C228 1.258 . S
O230 Cd221 2.378 . S
O230 C228 1.256 . S
O231 Cd232 2.300 . S
O231 C238 1.275 . S
Cd232 O231 2.300 . S
Cd232 O240 2.381 . S
Cd232 O241 2.378 . S
O233 Cd234 2.385 . S
O233 C238 1.255 . S
Cd234 O233 2.385 . S
Cd234 O235 2.317 . S
O235 Cd234 2.317 . S
O235 C236 1.232 . S
C236 O235 1.232 . S
C236 O237 1.218 . S
O237 C236 1.218 . S
C238 O231 1.275 . S
C238 O233 1.255 . S
C239 O240 1.258 . S
C239 O241 1.256 . S
O240 Cd232 2.381 . S
O240 C239 1.258 . S
O241 Cd232 2.378 . S
O241 C239 1.256 . S
O242 Cd243 2.300 1_554 S
O242 C249 1.275 . S
Cd243 O242 2.300 1_556 S
Cd243 O251 2.381 . S
Cd243 O252 2.378 . S
O244 Cd245 2.385 . S
O244 C249 1.255 . S
Cd245 O244 2.385 . S
Cd245 O246 2.317 . S
O246 Cd245 2.317 . S
O246 C247 1.232 . S
C247 O246 1.232 . S
C247 O248 1.218 . S
O248 C247 1.218 . S
C249 O242 1.275 . S
C249 O244 1.255 . S
C250 O251 1.258 . S
C250 O252 1.256 . S
O251 Cd243 2.381 . S
O251 C250 1.258 . S
O252 Cd243 2.378 . S
O252 C250 1.256 . S
O253 Cd254 2.300 . S
O253 C260 1.275 . S
Cd254 O253 2.300 . S
Cd254 O262 2.381 . S
Cd254 O263 2.378 . S
O255 Cd256 2.385 . S
O255 C260 1.255 . S
Cd256 O255 2.385 . S
Cd256 O257 2.317 . S
O257 Cd256 2.317 . S
O257 C258 1.232 . S
C258 O257 1.232 . S
C258 O259 1.218 . S
O259 C258 1.218 . S
C260 O253 1.275 . S
C260 O255 1.255 . S
C261 O262 1.258 . S
C261 O263 1.256 . S
O262 Cd254 2.381 . S
O262 C261 1.258 . S
O263 Cd254 2.378 . S
O263 C261 1.256 . S
C264 C265 1.369 . S
C264 C266 1.419 . S
C264 H268 0.930 . S
C265 C264 1.369 . S
C265 C274 1.429 . S
C266 C264 1.419 . S
C266 C267 1.363 . S
C266 H269 0.929 . S
C267 C266 1.363 . S
C267 C273 1.428 . S
H268 C264 0.930 . S
H269 C266 0.929 . S
S270 N271 1.613 . S
S270 N272 1.610 . S
N271 S270 1.613 . S
N271 C274 1.350 . S
N272 S270 1.610 . S
N272 C273 1.351 . S
C273 C267 1.428 . S
C273 N272 1.351 . S
C273 C274 1.434 . S
C274 C265 1.429 . S
C274 N271 1.350 . S
C274 C273 1.434 . S
C275 C276 1.369 . S
C275 C277 1.419 . S
C275 H279 0.930 . S
C276 C275 1.369 . S
C276 C285 1.429 . S
C277 C275 1.419 . S
C277 C278 1.363 . S
C277 H280 0.929 . S
C278 C277 1.363 . S
C278 C284 1.428 . S
H279 C275 0.930 . S
H280 C277 0.929 . S
S281 N282 1.613 . S
S281 N283 1.610 . S
N282 S281 1.613 . S
N282 C285 1.350 . S
N283 S281 1.610 . S
N283 C284 1.351 . S
C284 C278 1.428 . S
C284 N283 1.351 . S
C284 C285 1.434 . S
C285 C276 1.429 . S
C285 N282 1.350 . S
C285 C284 1.434 . S
C286 C287 1.369 . S
C286 C288 1.419 . S
C286 H290 0.930 . S
C287 C286 1.369 . S
C287 C296 1.429 . S
C288 C286 1.419 . S
C288 C289 1.363 . S
C288 H291 0.929 . S
C289 C288 1.363 . S
C289 C295 1.428 . S
H290 C286 0.930 . S
H291 C288 0.929 . S
S292 N293 1.613 . S
S292 N294 1.610 . S
N293 S292 1.613 . S
N293 C296 1.350 . S
N294 S292 1.610 . S
N294 C295 1.351 . S
C295 C289 1.428 . S
C295 N294 1.351 . S
C295 C296 1.434 . S
C296 C287 1.429 . S
C296 N293 1.350 . S
C296 C295 1.434 . S
C297 C298 1.369 . S
C297 C299 1.419 . S
C297 H301 0.930 . S
C298 C297 1.369 . S
C298 C307 1.429 . S
C299 C297 1.419 . S
C299 C300 1.363 . S
C299 H302 0.929 1_556 S
C300 C299 1.363 . S
C300 C306 1.428 . S
H301 C297 0.930 . S
H302 C299 0.929 1_554 S
S303 N304 1.613 . S
S303 N305 1.610 . S
N304 S303 1.613 . S
N304 C307 1.350 . S
N305 S303 1.610 . S
N305 C306 1.351 . S
C306 C300 1.428 . S
C306 N305 1.351 . S
C306 C307 1.434 . S
C307 C298 1.429 . S
C307 N304 1.350 . S
C307 C306 1.434 . S
C308 C309 1.369 . S
C308 C310 1.419 . S
C308 H312 0.930 . S
C309 C308 1.369 . S
C309 C318 1.429 . S
C310 C308 1.419 . S
C310 C311 1.363 . S
C310 H313 0.929 . S
C311 C310 1.363 . S
C311 C317 1.428 . S
H312 C308 0.930 . S
H313 C310 0.929 . S
S314 N315 1.613 . S
S314 N316 1.610 . S
N315 S314 1.613 . S
N315 C318 1.350 . S
N316 S314 1.610 . S
N316 C317 1.351 . S
C317 C311 1.428 . S
C317 N316 1.351 . S
C317 C318 1.434 . S
C318 C309 1.429 . S
C318 N315 1.350 . S
C318 C317 1.434 . S
C319 C320 1.369 . S
C319 C321 1.419 . S
C319 H323 0.930 . S
C320 C319 1.369 . S
C320 C329 1.429 . S
C321 C319 1.419 . S
C321 C322 1.363 . S
C321 H324 0.929 . S
C322 C321 1.363 . S
C322 C328 1.428 . S
H323 C319 0.930 . S
H324 C321 0.929 . S
S325 N326 1.613 . S
S325 N327 1.610 . S
N326 S325 1.613 . S
N326 C329 1.350 . S
N327 S325 1.610 . S
N327 C328 1.351 . S
C328 C322 1.428 . S
C328 N327 1.351 . S
C328 C329 1.434 . S
C329 C320 1.429 . S
C329 N326 1.350 . S
C329 C328 1.434 . S
C330 C331 1.369 . S
C330 C332 1.419 . S
C330 H334 0.930 . S
C331 C330 1.369 . S
C331 C340 1.429 . S
C332 C330 1.419 . S
C332 C333 1.363 . S
C332 H335 0.929 . S
C333 C332 1.363 . S
C333 C339 1.428 . S
H334 C330 0.930 . S
H335 C332 0.929 . S
S336 N337 1.613 . S
S336 N338 1.610 . S
N337 S336 1.613 . S
N337 C340 1.350 . S
N338 S336 1.610 . S
N338 C339 1.351 . S
C339 C333 1.428 . S
C339 N338 1.351 . S
C339 C340 1.434 . S
C340 C331 1.429 . S
C340 N337 1.350 . S
C340 C339 1.434 . S
C341 C342 1.369 . S
C341 C343 1.419 . S
C341 H345 0.930 . S
C342 C341 1.369 . S
C342 C351 1.429 . S
C343 C341 1.419 . S
C343 C344 1.363 . S
C343 H346 0.929 . S
C344 C343 1.363 . S
C344 C350 1.428 . S
H345 C341 0.930 . S
H346 C343 0.929 . S
S347 N348 1.613 . S
S347 N349 1.610 . S
N348 S347 1.613 . S
N348 C351 1.350 . S
N349 S347 1.610 . S
N349 C350 1.351 . S
C350 C344 1.428 . S
C350 N349 1.351 . S
C350 C351 1.434 . S
C351 C342 1.429 . S
C351 N348 1.350 . S
C351 C350 1.434 . S
C352 C353 1.369 . S
C352 C354 1.419 . S
C352 H356 0.930 . S
C353 C352 1.369 . S
C353 C362 1.429 . S
C354 C352 1.419 . S
C354 C355 1.363 . S
C354 H357 0.929 . S
C355 C354 1.363 . S
C355 C361 1.428 . S
H356 C352 0.930 . S
H357 C354 0.929 . S
S358 N359 1.613 . S
S358 N360 1.610 . S
N359 S358 1.613 . S
N359 C362 1.350 . S
N360 S358 1.610 . S
N360 C361 1.351 . S
C361 C355 1.428 . S
C361 N360 1.351 . S
C361 C362 1.434 . S
C362 C353 1.429 . S
C362 N359 1.350 . S
C362 C361 1.434 . S
C363 C364 1.369 . S
C363 C365 1.419 . S
C363 H367 0.930 . S
C364 C363 1.369 . S
C364 C373 1.429 . S
C365 C363 1.419 . S
C365 C366 1.363 . S
C365 H368 0.929 . S
C366 C365 1.363 . S
C366 C372 1.428 . S
H367 C363 0.930 . S
H368 C365 0.929 . S
S369 N370 1.613 . S
S369 N371 1.610 . S
N370 S369 1.613 . S
N370 C373 1.350 . S
N371 S369 1.610 . S
N371 C372 1.351 . S
C372 C366 1.428 . S
C372 N371 1.351 . S
C372 C373 1.434 . S
C373 C364 1.429 . S
C373 N370 1.350 . S
C373 C372 1.434 . S
C374 C375 1.369 . S
C374 C376 1.419 . S
C374 H378 0.930 . S
C375 C374 1.369 . S
C375 C384 1.429 . S
C376 C374 1.419 . S
C376 C377 1.363 . S
C376 H379 0.929 . S
C377 C376 1.363 . S
C377 C383 1.428 . S
H378 C374 0.930 . S
H379 C376 0.929 . S
S380 N381 1.613 . S
S380 N382 1.610 . S
N381 S380 1.613 . S
N381 C384 1.350 . S
N382 S380 1.610 . S
N382 C383 1.351 . S
C383 C377 1.428 . S
C383 N382 1.351 . S
C383 C384 1.434 . S
C384 C375 1.429 . S
C384 N381 1.350 . S
C384 C383 1.434 . S
C385 C386 1.369 . S
C385 C387 1.419 . S
C385 H389 0.930 . S
C386 C385 1.369 . S
C386 C395 1.429 . S
C387 C385 1.419 . S
C387 C388 1.363 . S
C387 H390 0.929 . S
C388 C387 1.363 . S
C388 C394 1.428 . S
H389 C385 0.930 . S
H390 C387 0.929 . S
S391 N392 1.613 . S
S391 N393 1.610 . S
N392 S391 1.613 . S
N392 C395 1.350 . S
N393 S391 1.610 . S
N393 C394 1.351 . S
C394 C388 1.428 . S
C394 N393 1.351 . S
C394 C395 1.434 . S
C395 C386 1.429 . S
C395 N392 1.350 . S
C395 C394 1.434 . S
C396 C397 1.369 . S
C396 C398 1.419 . S
C396 H400 0.930 . S
C397 C396 1.369 . S
C397 C406 1.429 . S
C398 C396 1.419 . S
C398 C399 1.363 . S
C398 H401 0.929 . S
C399 C398 1.363 . S
C399 C405 1.428 . S
H400 C396 0.930 . S
H401 C398 0.929 . S
S402 N403 1.613 . S
S402 N404 1.610 . S
N403 S402 1.613 . S
N403 C406 1.350 . S
N404 S402 1.610 . S
N404 C405 1.351 . S
C405 C399 1.428 . S
C405 N404 1.351 . S
C405 C406 1.434 . S
C406 C397 1.429 . S
C406 N403 1.350 . S
C406 C405 1.434 . S
C407 C408 1.369 . S
C407 C409 1.419 . S
C407 H411 0.930 . S
C408 C407 1.369 . S
C408 C417 1.429 . S
C409 C407 1.419 . S
C409 C410 1.363 . S
C409 H412 0.929 . S
C410 C409 1.363 . S
C410 C416 1.428 . S
H411 C407 0.930 . S
H412 C409 0.929 . S
S413 N414 1.613 . S
S413 N415 1.610 . S
N414 S413 1.613 . S
N414 C417 1.350 . S
N415 S413 1.610 . S
N415 C416 1.351 . S
C416 C410 1.428 . S
C416 N415 1.351 . S
C416 C417 1.434 . S
C417 C408 1.429 . S
C417 N414 1.350 . S
C417 C416 1.434 . S
C418 C419 1.369 . S
C418 C420 1.419 . S
C418 H422 0.930 . S
C419 C418 1.369 . S
C419 C428 1.429 . S
C420 C418 1.419 . S
C420 C421 1.363 . S
C420 H423 0.929 . S
C421 C420 1.363 . S
C421 C427 1.428 . S
H422 C418 0.930 . S
H423 C420 0.929 . S
S424 N425 1.613 . S
S424 N426 1.610 . S
N425 S424 1.613 . S
N425 C428 1.350 . S
N426 S424 1.610 . S
N426 C427 1.351 . S
C427 C421 1.428 . S
C427 N426 1.351 . S
C427 C428 1.434 . S
C428 C419 1.429 . S
C428 N425 1.350 . S
C428 C427 1.434 . S
C429 C430 1.369 . S
C429 C431 1.419 . S
C429 H433 0.930 . S
C430 C429 1.369 . S
C430 C439 1.429 . S
C431 C429 1.419 . S
C431 C432 1.363 . S
C431 H434 0.929 . S
C432 C431 1.363 . S
C432 C438 1.428 . S
H433 C429 0.930 . S
H434 C431 0.929 . S
S435 N436 1.613 . S
S435 N437 1.610 . S
N436 S435 1.613 . S
N436 C439 1.350 . S
N437 S435 1.610 . S
N437 C438 1.351 . S
C438 C432 1.428 . S
C438 N437 1.351 . S
C438 C439 1.434 . S
C439 C430 1.429 . S
C439 N436 1.350 . S
C439 C438 1.434 . S
C440 C441 1.369 . S
C440 C442 1.419 . S
C440 H444 0.930 . S
C441 C440 1.369 . S
C441 C450 1.429 . S
C442 C440 1.419 . S
C442 C443 1.363 . S
C442 H445 0.929 . S
C443 C442 1.363 . S
C443 C449 1.428 . S
H444 C440 0.930 . S
H445 C442 0.929 . S
S446 N447 1.613 . S
S446 N448 1.610 . S
N447 S446 1.613 . S
N447 C450 1.350 . S
N448 S446 1.610 . S
N448 C449 1.351 . S
C449 C443 1.428 . S
C449 N448 1.351 . S
C449 C450 1.434 . S
C450 C441 1.429 . S
C450 N447 1.350 . S
C450 C449 1.434 . S
C451 C452 1.369 . S
C451 C453 1.419 . S
C451 H455 0.930 . S
C452 C451 1.369 . S
C452 C461 1.429 . S
C453 C451 1.419 . S
C453 C454 1.363 . S
C453 H456 0.929 . S
C454 C453 1.363 . S
C454 C460 1.428 . S
H455 C451 0.930 . S
H456 C453 0.929 . S
S457 N458 1.613 . S
S457 N459 1.610 . S
N458 S457 1.613 . S
N458 C461 1.350 . S
N459 S457 1.610 . S
N459 C460 1.351 . S
C460 C454 1.428 . S
C460 N459 1.351 . S
C460 C461 1.434 . S
C461 C452 1.429 . S
C461 N458 1.350 . S
C461 C460 1.434 . S
C462 C463 1.369 . S
C462 C464 1.419 . S
C462 H466 0.930 . S
C463 C462 1.369 . S
C463 C472 1.429 . S
C464 C462 1.419 . S
C464 C465 1.363 . S
C464 H467 0.929 . S
C465 C464 1.363 . S
C465 C471 1.428 . S
H466 C462 0.930 . S
H467 C464 0.929 . S
S468 N469 1.613 . S
S468 N470 1.610 . S
N469 S468 1.613 . S
N469 C472 1.350 . S
N470 S468 1.610 . S
N470 C471 1.351 . S
C471 C465 1.428 . S
C471 N470 1.351 . S
C471 C472 1.434 . S
C472 C463 1.429 . S
C472 N469 1.350 . S
C472 C471 1.434 . S
C473 C474 1.369 . S
C473 C475 1.419 . S
C473 H477 0.930 . S
C474 C473 1.369 . S
C474 C483 1.429 . S
C475 C473 1.419 . S
C475 C476 1.363 . S
C475 H478 0.929 . S
C476 C475 1.363 . S
C476 C482 1.428 . S
H477 C473 0.930 . S
H478 C475 0.929 . S
S479 N480 1.613 . S
S479 N481 1.610 . S
N480 S479 1.613 . S
N480 C483 1.350 . S
N481 S479 1.610 . S
N481 C482 1.351 . S
C482 C476 1.428 . S
C482 N481 1.351 . S
C482 C483 1.434 . S
C483 C474 1.429 . S
C483 N480 1.350 . S
C483 C482 1.434 . S
C484 C485 1.369 . S
C484 C486 1.419 . S
C484 H488 0.930 . S
C485 C484 1.369 . S
C485 C494 1.429 . S
C486 C484 1.419 . S
C486 C487 1.363 . S
C486 H489 0.929 . S
C487 C486 1.363 . S
C487 C493 1.428 . S
H488 C484 0.930 . S
H489 C486 0.929 . S
S490 N491 1.613 . S
S490 N492 1.610 . S
N491 S490 1.613 . S
N491 C494 1.350 . S
N492 S490 1.610 . S
N492 C493 1.351 . S
C493 C487 1.428 . S
C493 N492 1.351 . S
C493 C494 1.434 . S
C494 C485 1.429 . S
C494 N491 1.350 . S
C494 C493 1.434 . S
C495 C496 1.369 . S
C495 C497 1.419 . S
C495 H499 0.930 . S
C496 C495 1.369 . S
C496 C505 1.429 . S
C497 C495 1.419 . S
C497 C498 1.363 . S
C497 H500 0.929 . S
C498 C497 1.363 . S
C498 C504 1.428 . S
H499 C495 0.930 . S
H500 C497 0.929 . S
S501 N502 1.613 . S
S501 N503 1.610 . S
N502 S501 1.613 . S
N502 C505 1.350 . S
N503 S501 1.610 . S
N503 C504 1.351 . S
C504 C498 1.428 . S
C504 N503 1.351 . S
C504 C505 1.434 . S
C505 C496 1.429 . S
C505 N502 1.350 . S
C505 C504 1.434 . S
C506 C507 1.369 . S
C506 C508 1.419 . S
C506 H510 0.930 . S
C507 C506 1.369 . S
C507 C516 1.429 . S
C508 C506 1.419 . S
C508 C509 1.363 . S
C508 H511 0.929 . S
C509 C508 1.363 . S
C509 C515 1.428 . S
H510 C506 0.930 . S
H511 C508 0.929 . S
S512 N513 1.613 . S
S512 N514 1.610 . S
N513 S512 1.613 . S
N513 C516 1.350 . S
N514 S512 1.610 . S
N514 C515 1.351 . S
C515 C509 1.428 . S
C515 N514 1.351 . S
C515 C516 1.434 . S
C516 C507 1.429 . S
C516 N513 1.350 . S
C516 C515 1.434 . S
C517 C518 1.369 . S
C517 C519 1.419 . S
C517 H521 0.930 . S
C518 C517 1.369 . S
C518 C527 1.429 . S
C519 C517 1.419 . S
C519 C520 1.363 . S
C519 H522 0.929 . S
C520 C519 1.363 . S
C520 C526 1.428 . S
H521 C517 0.930 . S
H522 C519 0.929 . S
S523 N524 1.613 . S
S523 N525 1.610 . S
N524 S523 1.613 . S
N524 C527 1.350 . S
N525 S523 1.610 . S
N525 C526 1.351 . S
C526 C520 1.428 . S
C526 N525 1.351 . S
C526 C527 1.434 . S
C527 C518 1.429 . S
C527 N524 1.350 . S
C527 C526 1.434 . S
C528 C529 1.369 . S
C528 C530 1.419 . S
C528 H532 0.930 . S
C529 C528 1.369 . S
C529 C538 1.429 . S
C530 C528 1.419 . S
C530 C531 1.363 . S
C530 H533 0.929 . S
C531 C530 1.363 . S
C531 C537 1.428 . S
H532 C528 0.930 . S
H533 C530 0.929 . S
S534 N535 1.613 . S
S534 N536 1.610 . S
N535 S534 1.613 . S
N535 C538 1.350 1_655 S
N536 S534 1.610 . S
N536 C537 1.351 1_655 S
C537 C531 1.428 . S
C537 N536 1.351 1_455 S
C537 C538 1.434 . S
C538 C529 1.429 . S
C538 N535 1.350 1_455 S
C538 C537 1.434 . S
C539 C540 1.369 . S
C539 C541 1.419 1_455 S
C539 H543 0.930 . S
C540 C539 1.369 . S
C540 C549 1.429 . S
C541 C539 1.419 1_655 S
C541 C542 1.363 . S
C541 H544 0.929 . S
C542 C541 1.363 . S
C542 C548 1.428 1_655 S
H543 C539 0.930 . S
H544 C541 0.929 . S
S545 N546 1.613 . S
S545 N547 1.610 . S
N546 S545 1.613 . S
N546 C549 1.350 . S
N547 S545 1.610 . S
N547 C548 1.351 . S
C548 C542 1.428 1_455 S
C548 N547 1.351 . S
C548 C549 1.434 . S
C549 C540 1.429 . S
C549 N546 1.350 . S
C549 C548 1.434 . S
C550 C551 1.369 . S
C550 C552 1.419 . S
C550 H554 0.930 . S
C551 C550 1.369 . S
C551 C560 1.429 . S
C552 C550 1.419 . S
C552 C553 1.363 . S
C552 H555 0.929 . S
C553 C552 1.363 . S
C553 C559 1.428 . S
H554 C550 0.930 . S
H555 C552 0.929 . S
S556 N557 1.613 . S
S556 N558 1.610 . S
N557 S556 1.613 . S
N557 C560 1.350 . S
N558 S556 1.610 . S
N558 C559 1.351 . S
C559 C553 1.428 . S
C559 N558 1.351 . S
C559 C560 1.434 . S
C560 C551 1.429 . S
C560 N557 1.350 . S
C560 C559 1.434 . S
C561 C562 1.369 . S
C561 C563 1.419 . S
C561 H565 0.930 . S
C562 C561 1.369 . S
C562 C571 1.429 . S
C563 C561 1.419 . S
C563 C564 1.363 . S
C563 H566 0.929 . S
C564 C563 1.363 . S
C564 C570 1.428 . S
H565 C561 0.930 . S
H566 C563 0.929 . S
S567 N568 1.613 . S
S567 N569 1.610 . S
N568 S567 1.613 . S
N568 C571 1.350 . S
N569 S567 1.610 . S
N569 C570 1.351 . S
C570 C564 1.428 . S
C570 N569 1.351 . S
C570 C571 1.434 . S
C571 C562 1.429 . S
C571 N568 1.350 . S
C571 C570 1.434 . S
C572 C573 1.369 . S
C572 C574 1.407 1_565 S
C572 H576 0.930 . S
C573 C572 1.369 . S
C573 C582 1.429 . S
C574 C572 1.407 1_545 S
C574 C575 1.371 . S
C574 H577 0.934 . S
C575 C574 1.371 . S
C575 C581 1.428 . S
H576 C572 0.930 . S
H577 C574 0.934 . S
S578 N579 1.613 1_545 S
S578 N580 1.610 . S
N579 S578 1.613 1_565 S
N579 C582 1.350 . S
N580 S578 1.610 . S
N580 C581 1.351 . S
C581 C575 1.428 . S
C581 N580 1.351 . S
C581 C582 1.434 1_545 S
C582 C573 1.429 . S
C582 N579 1.350 . S
C582 C581 1.434 1_565 S
C583 C584 1.369 . S
C583 C585 1.419 . S
C583 H587 0.930 . S
C584 C583 1.369 . S
C584 C593 1.429 . S
C585 C583 1.419 . S
C585 C586 1.363 . S
C585 H588 0.929 . S
C586 C585 1.363 . S
C586 C592 1.428 . S
H587 C583 0.930 . S
H588 C585 0.929 . S
S589 N590 1.613 . S
S589 N591 1.610 . S
N590 S589 1.613 . S
N590 C593 1.350 . S
N591 S589 1.610 . S
N591 C592 1.351 . S
C592 C586 1.428 . S
C592 N591 1.351 . S
C592 C593 1.434 . S
C593 C584 1.429 . S
C593 N590 1.350 . S
C593 C592 1.434 . S
C594 C595 1.373 . S
C594 C596 1.419 1_545 S
C594 H598 0.930 . S
C595 C594 1.373 . S
C595 C604 1.395 1_545 S
C596 C594 1.419 1_565 S
C596 C597 1.363 . S
C596 H599 0.929 . S
C597 C596 1.363 . S
C597 C603 1.428 . S
H598 C594 0.930 . S
H599 C596 0.929 . S
S600 N601 1.613 . S
S600 N602 1.610 . S
N601 S600 1.613 . S
N601 C604 1.350 . S
N602 S600 1.610 . S
N602 C603 1.351 . S
C603 C597 1.428 . S
C603 N602 1.351 . S
C603 C604 1.434 . S
C604 C595 1.395 1_565 S
C604 N601 1.350 . S
C604 C603 1.434 . S
C605 C606 1.369 . S
C605 C607 1.419 . S
C605 H609 0.930 . S
C606 C605 1.369 . S
C606 C615 1.429 . S
C607 C605 1.419 . S
C607 C608 1.363 . S
C607 H610 0.929 . S
C608 C607 1.363 . S
C608 C614 1.428 . S
H609 C605 0.930 . S
H610 C607 0.929 . S
S611 N612 1.613 . S
S611 N613 1.610 . S
N612 S611 1.613 . S
N612 C615 1.350 . S
N613 S611 1.610 . S
N613 C614 1.351 . S
C614 C608 1.428 . S
C614 N613 1.351 . S
C614 C615 1.434 . S
C615 C606 1.429 . S
C615 N612 1.350 . S
C615 C614 1.434 . S
C616 C617 1.369 . S
C616 C618 1.419 . S
C616 H620 0.930 . S
C617 C616 1.369 . S
C617 C626 1.429 . S
C618 C616 1.419 . S
C618 C619 1.363 . S
C618 H621 0.929 . S
C619 C618 1.363 . S
C619 C625 1.428 . S
H620 C616 0.930 . S
H621 C618 0.929 . S
S622 N623 1.613 . S
S622 N624 1.610 . S
N623 S622 1.613 . S
N623 C626 1.350 . S
N624 S622 1.610 . S
N624 C625 1.351 . S
C625 C619 1.428 . S
C625 N624 1.351 . S
C625 C626 1.434 . S
C626 C617 1.429 . S
C626 N623 1.350 . S
C626 C625 1.434 . S
C627 C628 1.369 . S
C627 C629 1.419 . S
C627 H631 0.930 . S
C628 C627 1.369 . S
C628 C637 1.429 . S
C629 C627 1.419 . S
C629 C630 1.363 . S
C629 H632 0.929 . S
C630 C629 1.363 . S
C630 C636 1.428 . S
H631 C627 0.930 . S
H632 C629 0.929 . S
S633 N634 1.613 . S
S633 N635 1.610 . S
N634 S633 1.613 . S
N634 C637 1.350 . S
N635 S633 1.610 . S
N635 C636 1.351 . S
C636 C630 1.428 . S
C636 N635 1.351 . S
C636 C637 1.434 . S
C637 C628 1.429 . S
C637 N634 1.350 . S
C637 C636 1.434 . S
C638 C639 1.369 . S
C638 C640 1.419 . S
C638 H642 0.930 . S
C639 C638 1.369 . S
C639 C648 1.429 . S
C640 C638 1.419 . S
C640 C641 1.363 . S
C640 H643 0.929 . S
C641 C640 1.363 . S
C641 C647 1.428 . S
H642 C638 0.930 . S
H643 C640 0.929 . S
S644 N645 1.613 . S
S644 N646 1.610 . S
N645 S644 1.613 . S
N645 C648 1.350 . S
N646 S644 1.610 . S
N646 C647 1.351 . S
C647 C641 1.428 . S
C647 N646 1.351 . S
C647 C648 1.434 . S
C648 C639 1.429 . S
C648 N645 1.350 . S
C648 C647 1.434 . S
C649 C650 1.369 . S
C649 C651 1.419 . S
C649 H653 0.930 . S
C650 C649 1.369 . S
C650 C659 1.429 . S
C651 C649 1.419 . S
C651 C652 1.363 . S
C651 H654 0.929 . S
C652 C651 1.363 . S
C652 C658 1.428 . S
H653 C649 0.930 . S
H654 C651 0.929 . S
S655 N656 1.613 . S
S655 N657 1.610 . S
N656 S655 1.613 . S
N656 C659 1.350 . S
N657 S655 1.610 . S
N657 C658 1.351 . S
C658 C652 1.428 . S
C658 N657 1.351 . S
C658 C659 1.434 . S
C659 C650 1.429 . S
C659 N656 1.350 . S
C659 C658 1.434 . S
C265 C49 1.164 . S
C267 C5 0.979 . S
C276 C60 1.321 . S
C278 C18 1.289 . S
C287 C29 1.372 . S
C289 C73 1.363 . S
C298 C38 1.032 . S
C300 C84 1.328 . S
C309 C16 1.016 . S
C311 C93 1.200 . S
C320 C104 1.181 . S
C322 C27 1.088 . S
C331 C40 1.390 . S
C333 C117 1.406 . S
C342 C126 0.981 . S
C344 C7 1.295 . S
C353 C51 1.372 . S
C355 C128 1.295 . S
C364 C95 1.468 . S
C366 C62 1.464 . S
C375 C71 0.924 . S
C377 C106 1.417 . S
C386 C82 0.945 . S
C388 C115 1.064 . S
C397 C137 0.925 . S
C399 C205 1.391 . S
C408 C216 1.379 . S
C410 C150 1.373 . S
C419 C225 1.028 . S
C421 C161 1.291 . S
C430 C172 1.378 . S
C432 C227 1.391 . S
C441 C181 1.419 . S
C443 C203 1.322 . S
C452 C236 1.259 . S
C454 C192 1.005 . S
C463 C214 1.079 . S
C465 C247 1.226 . S
C474 C194 1.280 . S
C476 C258 1.023 . S
C485 C238 1.436 . S
C487 C260 1.379 . S
C496 C139 1.396 . S
C498 C183 1.459 . S
C507 C249 1.489 . S
C509 C148 0.967 . S
C518 C170 1.035 . S
C520 C159 0.990 . S
C529 C8 1.578 . S
C531 C217 1.571 . S
C540 C19 1.565 . S
C542 C228 1.586 . S
C551 C195 1.585 . S
C553 C30 1.603 . S
C562 C41 1.615 . S
C564 C206 1.705 . S
C573 C96 1.630 . S
C575 C52 1.631 . S
C584 C63 1.659 . S
C586 C107 1.652 . S
C595 C118 1.627 . S
C597 C74 1.627 . S
C606 C129 1.674 . S
C608 C85 1.648 . S
C617 C140 1.634 . S
C619 C250 1.720 . S
C628 C151 1.635 . S
C630 C173 1.617 . S
C639 C261 1.635 . S
C641 C162 1.605 . S
C650 C239 1.801 . S
C652 C184 1.792 . S
