# Generated by pormake.
# Topology ecn, (8)-cn, num edge types: 1
# Building blocks:
#     Node 0, Type 0, BuildingBlock: EBIMEJ_clean_sbu_0, # of connection points: 8
#     Node 1, Type 0, BuildingBlock: EBIMEJ_clean_sbu_0, # of connection points: 8
#     Node 2, Type 0, BuildingBlock: EBIMEJ_clean_sbu_0, # of connection points: 8
#     Node 3, Type 0, BuildingBlock: EBIMEJ_clean_sbu_0, # of connection points: 8
#     Node 4, Type 0, BuildingBlock: EBIMEJ_clean_sbu_0, # of connection points: 8
#     Node 5, Type 0, BuildingBlock: EBIMEJ_clean_sbu_0, # of connection points: 8
#     Node 6, Type 0, BuildingBlock: EBIMEJ_clean_sbu_0, # of connection points: 8
#     Node 7, Type 0, BuildingBlock: EBIMEJ_clean_sbu_0, # of connection points: 8
#     Node 8, Type 0, BuildingBlock: EBIMEJ_clean_sbu_0, # of connection points: 8
#     Edge 9, Type (0, 0), BuildingBlock: AJUNOK_clean_linker_0, # of connection points: 2
#     Edge 10, Type (0, 0), BuildingBlock: AJUNOK_clean_linker_0, # of connection points: 2
#     Edge 11, Type (0, 0), BuildingBlock: AJUNOK_clean_linker_0, # of connection points: 2
#     Edge 12, Type (0, 0), BuildingBlock: AJUNOK_clean_linker_0, # of connection points: 2
#     Edge 13, Type (0, 0), BuildingBlock: AJUNOK_clean_linker_0, # of connection points: 2
#     Edge 14, Type (0, 0), BuildingBlock: AJUNOK_clean_linker_0, # of connection points: 2
#     Edge 15, Type (0, 0), BuildingBlock: AJUNOK_clean_linker_0, # of connection points: 2
#     Edge 16, Type (0, 0), BuildingBlock: AJUNOK_clean_linker_0, # of connection points: 2
#     Edge 17, Type (0, 0), BuildingBlock: AJUNOK_clean_linker_0, # of connection points: 2
#     Edge 18, Type (0, 0), BuildingBlock: AJUNOK_clean_linker_0, # of connection points: 2
#     Edge 19, Type (0, 0), BuildingBlock: AJUNOK_clean_linker_0, # of connection points: 2
#     Edge 20, Type (0, 0), BuildingBlock: AJUNOK_clean_linker_0, # of connection points: 2
#     Edge 21, Type (0, 0), BuildingBlock: AJUNOK_clean_linker_0, # of connection points: 2
#     Edge 22, Type (0, 0), BuildingBlock: AJUNOK_clean_linker_0, # of connection points: 2
#     Edge 23, Type (0, 0), BuildingBlock: AJUNOK_clean_linker_0, # of connection points: 2
#     Edge 24, Type (0, 0), BuildingBlock: AJUNOK_clean_linker_0, # of connection points: 2
#     Edge 25, Type (0, 0), BuildingBlock: AJUNOK_clean_linker_0, # of connection points: 2
#     Edge 26, Type (0, 0), BuildingBlock: AJUNOK_clean_linker_0, # of connection points: 2
#     Edge 27, Type (0, 0), BuildingBlock: AJUNOK_clean_linker_0, # of connection points: 2
#     Edge 28, Type (0, 0), BuildingBlock: AJUNOK_clean_linker_0, # of connection points: 2
#     Edge 29, Type (0, 0), BuildingBlock: AJUNOK_clean_linker_0, # of connection points: 2
#     Edge 30, Type (0, 0), BuildingBlock: AJUNOK_clean_linker_0, # of connection points: 2
#     Edge 31, Type (0, 0), BuildingBlock: AJUNOK_clean_linker_0, # of connection points: 2
#     Edge 32, Type (0, 0), BuildingBlock: AJUNOK_clean_linker_0, # of connection points: 2
#     Edge 33, Type (0, 0), BuildingBlock: AJUNOK_clean_linker_0, # of connection points: 2
#     Edge 34, Type (0, 0), BuildingBlock: AJUNOK_clean_linker_0, # of connection points: 2
#     Edge 35, Type (0, 0), BuildingBlock: AJUNOK_clean_linker_0, # of connection points: 2
#     Edge 36, Type (0, 0), BuildingBlock: AJUNOK_clean_linker_0, # of connection points: 2
#     Edge 37, Type (0, 0), BuildingBlock: AJUNOK_clean_linker_0, # of connection points: 2
#     Edge 38, Type (0, 0), BuildingBlock: AJUNOK_clean_linker_0, # of connection points: 2
#     Edge 39, Type (0, 0), BuildingBlock: AJUNOK_clean_linker_0, # of connection points: 2
#     Edge 40, Type (0, 0), BuildingBlock: AJUNOK_clean_linker_0, # of connection points: 2
#     Edge 41, Type (0, 0), BuildingBlock: AJUNOK_clean_linker_0, # of connection points: 2
#     Edge 42, Type (0, 0), BuildingBlock: AJUNOK_clean_linker_0, # of connection points: 2
#     Edge 43, Type (0, 0), BuildingBlock: AJUNOK_clean_linker_0, # of connection points: 2
#     Edge 44, Type (0, 0), BuildingBlock: AJUNOK_clean_linker_0, # of connection points: 2
# Relax obj value: 0.176
# Max RMSD: 0.237
# Mean RMSD: 0.237
data_MOF--net-ecn--node1-EBIMEJ_clean_sbu_0--edge1-AJUNOK_clean_linker_0
_symmetry_space_group_name_H-M    P1
_symmetry_Int_Tables_number       1
_symmetry_cell_setting            triclinic
loop_
_symmetry_equiv_pos_as_xyz
'x, y, z'
_cell_length_a     41.823699
_cell_length_b     41.810566
_cell_length_c     11.750704
_cell_angle_alpha  89.88774
_cell_angle_beta   90.06446
_cell_angle_gamma 119.93548
loop_
_atom_site_label
_atom_site_type_symbol
_atom_site_fract_x
_atom_site_fract_y
_atom_site_fract_z
_atom_type_partial_charge
Co0 Co 0.2091 0.31805 0.90988 0.0
Co1 Co 0.16599 0.24367 0.05055 0.0
Co2 Co 0.12319 0.28071 0.98391 0.0
H3 H 0.167 0.29698 0.97421 0.0
O4 O 0.17473 0.2941 0.0393 0.0
H5 H 0.12284 0.22422 0.04101 0.0
O6 O 0.1157 0.23015 0.98015 0.0
Co7 Co 0.07968 0.1928 0.08551 0.0
O8 O 0.09845 0.15602 0.0835 0.0
O9 O 0.15879 0.19339 0.05864 0.0
O10 O 0.05064 0.21911 0.11221 0.0
O11 O 0.06858 0.26322 0.97714 0.0
O12 O 0.25339 0.33549 0.79983 0.0
O13 O 0.25477 0.36992 0.92842 0.0
O14 O 0.0935 0.22084 0.23112 0.0
O15 O 0.15411 0.24349 0.21553 0.0
C16 C 0.16125 0.35651 0.90091 0.0
C17 C 0.24499 0.27973 0.03861 0.0
C18 C 1.02438 0.1302 0.06702 0.0
C19 C 0.14902 0.27333 0.75404 0.0
C20 C 0.13109 0.16154 0.0729 0.0
C21 C 0.04565 0.24212 0.05392 0.0
C22 C 0.27193 0.36654 0.84577 0.0
C23 C 0.12565 0.23693 0.27339 0.0
O24 O 0.18832 0.35214 0.87047 0.0
O25 O 0.13523 0.33319 0.96588 0.0
O26 O 0.2166 0.26081 0.09892 0.0
O27 O 0.24536 0.29971 0.95536 0.0
O28 O 1.02807 0.15337 0.14117 0.0
O29 O 0.05207 0.14272 0.00295 0.0
O30 O 0.17989 0.27958 0.79337 0.0
O31 O 0.12652 0.27844 0.81398 0.0
Co32 Co 0.7402 0.90095 0.91795 0.0
Co33 Co 0.81891 0.93486 0.05078 0.0
Co34 Co 0.78096 0.85481 0.98788 0.0
H35 H 0.76408 0.88204 0.97923 0.0
O36 O 0.76802 0.89337 0.04331 0.0
H37 H 0.83764 0.9103 0.04394 0.0
O38 O 0.83169 0.89728 0.98309 0.0
Co39 Co 0.86814 0.89771 0.09203 0.0
O40 O 0.90546 0.95276 0.07788 0.0
O41 O 0.86948 0.97741 0.05607 0.0
O42 O 0.84298 0.84215 0.11167 0.0
O43 O 0.79801 0.81738 0.97892 0.0
O44 O 0.69326 0.88759 0.82158 0.0
O45 O 0.71898 0.93612 0.91278 0.0
O46 O 0.83793 0.88287 0.23442 0.0
O47 O 0.81889 0.92379 0.21688 0.0
C48 C 0.70542 0.8156 0.90578 0.0
C49 C 0.77912 0.97542 0.05344 0.0
C50 C 0.93185 0.90681 0.09214 0.0
C51 C 0.78297 0.8852 0.75282 0.0
C52 C 0.901 0.98045 0.06601 0.0
C53 C 0.81933 0.81476 0.05316 0.0
C54 C 0.69314 0.91677 0.84609 0.0
C55 C 0.82272 0.90007 0.27499 0.0
O56 O 0.70827 0.8461 0.87099 0.0
O57 O 0.72857 0.81449 0.97514 0.0
O58 O 0.80335 0.96962 0.09731 0.0
O59 O 0.75483 0.95309 0.9826 0.0
O60 O 0.90619 0.88414 0.0295 0.0
O61 O 0.92124 0.92417 0.15385 0.0
O62 O 0.77438 0.90844 0.78938 0.0
O63 O 0.78269 0.86024 0.81672 0.0
Co64 Co 0.15991 0.85158 0.91961 0.0
Co65 Co 0.12795 0.89734 0.04923 0.0
Co66 Co 0.20797 0.9386 0.987 0.0
H67 H 0.18019 0.89453 0.97983 0.0
O68 O 0.16904 0.88743 0.04436 0.0
H69 H 0.15263 0.94023 0.04187 0.0
O70 O 0.16585 0.94738 0.98143 0.0
Co71 Co 0.16516 0.98301 0.08998 0.0
O72 O 0.11009 0.96494 0.10214 0.0
O73 O 0.08585 0.90639 0.04883 0.0
O74 O 0.22039 1.01314 0.10893 0.0
O75 O 0.24573 0.99317 0.97747 0.0
O76 O 0.15248 0.81585 0.78736 0.0
O77 O 0.14827 0.79829 0.95423 0.0
O78 O 0.17994 0.96771 0.23167 0.0
O79 O 0.13785 0.90832 0.21665 0.0
C80 C 0.24575 0.90053 0.90535 0.0
C81 C 0.08516 0.81677 0.04975 0.0
C82 C 0.15989 0.03951 0.07484 0.0
C83 C 0.17557 0.91057 0.75467 0.0
C84 C 0.0824 0.93385 0.07658 0.0
C85 C 0.2479 1.01729 0.05036 0.0
C86 C 0.14653 0.78936 0.85128 0.0
C87 C 0.1615 0.93584 0.27478 0.0
O88 O 0.21459 0.87294 0.87556 0.0
O89 O 0.24795 0.92589 0.97202 0.0
O90 O 0.09312 0.84713 0.09635 0.0
O91 O 0.10655 0.81413 0.97666 0.0
O92 O 0.17974 0.03512 0.14609 0.0
O93 O 0.14306 1.01175 0.01179 0.0
O94 O 0.15228 0.87876 0.79177 0.0
O95 O 0.20175 0.93448 0.81666 0.0
Co96 Co 0.87559 0.65158 0.25192 0.0
Co97 Co 0.8313 0.57564 0.38505 0.0
Co98 Co 0.78905 0.61357 0.32262 0.0
H99 H 0.83308 0.62988 0.31481 0.0
O100 O 0.84045 0.62631 0.37973 0.0
H101 H 0.78845 0.5573 0.38031 0.0
O102 O 0.78069 0.56278 0.31989 0.0
Co103 Co 0.74636 0.52745 0.43348 0.0
O104 O 0.76482 0.49033 0.43654 0.0
O105 O 0.82313 0.52515 0.38126 0.0
O106 O 0.71604 0.55254 0.44994 0.0
O107 O 0.73452 0.59638 0.31377 0.0
O108 O 0.91586 0.70629 0.23219 0.0
O109 O 0.9243 0.66512 0.16758 0.0
O110 O 0.76272 0.56061 0.5688 0.0
O111 O 0.82075 0.57317 0.55369 0.0
C112 C 0.82691 0.68916 0.23896 0.0
C113 C 0.91226 0.61554 0.39046 0.0
C114 C 0.69086 0.46473 0.4355 0.0
C115 C 0.8157 0.60584 0.09392 0.0
C116 C 0.79578 0.49408 0.40675 0.0
C117 C 0.71102 0.57499 0.389 0.0
C118 C 0.93762 0.69932 0.17834 0.0
C119 C 0.79423 0.57166 0.6119 0.0
O120 O 0.85412 0.68493 0.20894 0.0
O121 O 0.80121 0.66604 0.3049 0.0
O122 O 0.88168 0.59132 0.4313 0.0
O123 O 0.91459 0.63891 0.31552 0.0
O124 O 0.71399 0.47801 0.51477 0.0
O125 O 0.69955 0.48701 0.35392 0.0
O126 O 0.84698 0.61327 0.13318 0.0
O127 O 0.79293 0.61109 0.1522 0.0
Co128 Co 0.40846 0.23578 0.25115 0.0
Co129 Co 0.48721 0.26932 0.37759 0.0
Co130 Co 0.44864 0.189 0.31877 0.0
H131 H 0.43199 0.21643 0.31181 0.0
O132 O 0.4363 0.22799 0.37567 0.0
H133 H 0.50513 0.24452 0.37364 0.0
O134 O 0.49951 0.23109 0.31379 0.0
Co135 Co 0.53466 0.23231 0.42901 0.0
O136 O 0.56935 0.28745 0.45787 0.0
O137 O 0.53827 0.31113 0.37269 0.0
O138 O 0.51068 0.17688 0.44102 0.0
O139 O 0.46556 0.15154 0.30886 0.0
O140 O 0.36043 0.21908 0.15815 0.0
O141 O 0.38471 0.26872 0.24432 0.0
O142 O 0.49907 0.2138 0.55768 0.0
O143 O 0.48917 0.26094 0.5465 0.0
C144 C 0.37255 0.15017 0.23822 0.0
C145 C 0.44718 0.31025 0.38447 0.0
C146 C 0.59821 0.24157 0.42766 0.0
C147 C 0.45255 0.22146 0.08643 0.0
C148 C 0.5674 0.31482 0.41838 0.0
C149 C 0.48739 0.14938 0.38223 0.0
C150 C 0.35863 0.24748 0.1808 0.0
C151 C 0.48842 0.23432 0.60254 0.0
O152 O 0.37528 0.181 0.20803 0.0
O153 O 0.39628 0.14858 0.30387 0.0
O154 O 0.47222 0.30464 0.4228 0.0
O155 O 0.42232 0.28791 0.31487 0.0
O156 O 0.58638 0.25538 0.49925 0.0
O157 O 0.57393 0.22261 0.35542 0.0
O158 O 0.44414 0.24472 0.12463 0.0
O159 O 0.45034 0.19521 0.14833 0.0
Co160 Co 0.82581 0.18482 0.25473 0.0
Co161 Co 0.79356 0.23095 0.38101 0.0
Co162 Co 0.87377 0.27242 0.31909 0.0
H163 H 0.84611 0.22818 0.31294 0.0
O164 O 0.83489 0.22123 0.37749 0.0
H165 H 0.81829 0.27362 0.37506 0.0
O166 O 0.83158 0.28119 0.31477 0.0
Co167 Co 0.83034 0.31551 0.42831 0.0
O168 O 0.77524 0.29608 0.45174 0.0
O169 O 0.75153 0.23996 0.37766 0.0
O170 O 0.88568 0.34499 0.44745 0.0
O171 O 0.9111 0.32709 0.31006 0.0
O172 O 0.84085 0.1494 0.17932 0.0
O173 O 0.78663 0.13019 0.22405 0.0
O174 O 0.84646 0.30013 0.56703 0.0
O175 O 0.80295 0.24141 0.54882 0.0
C176 C 0.91201 0.23373 0.24171 0.0
C177 C 0.75332 0.15021 0.39712 0.0
C178 C 0.82136 0.36989 0.41502 0.0
C179 C 0.84184 0.24313 0.08678 0.0
C180 C 0.74781 0.26613 0.41687 0.0
C181 C 0.91305 0.35046 0.38556 0.0
C182 C 0.80886 0.12196 0.18024 0.0
C183 C 0.82767 0.26794 0.60758 0.0
O184 O 0.88077 0.2058 0.21395 0.0
O185 O 0.91423 0.26019 0.30322 0.0
O186 O 0.75842 0.18112 0.43003 0.0
O187 O 0.77516 0.14703 0.32738 0.0
O188 O 0.8095 0.34676 0.49458 0.0
O189 O 0.83801 0.36187 0.34153 0.0
O190 O 0.81844 0.21167 0.12567 0.0
O191 O 0.86741 0.26794 0.1485 0.0
Co192 Co 0.5426 0.98782 0.58482 0.0
Co193 Co 0.49965 0.91141 0.71998 0.0
Co194 Co 0.45574 0.94696 0.65177 0.0
H195 H 0.49987 0.9646 0.6453 0.0
O196 O 0.5073 0.96149 0.71063 0.0
H197 H 0.45627 0.89144 0.71156 0.0
O198 O 0.44917 0.89689 0.64974 0.0
Co199 Co 0.41315 0.86028 0.75757 0.0
O200 O 0.43262 0.82404 0.74803 0.0
O201 O 0.49306 0.86157 0.72564 0.0
O202 O 0.3839 0.88667 0.78239 0.0
O203 O 0.40121 0.92825 0.6401 0.0
O204 O 0.58382 1.01237 0.46401 0.0
O205 O 0.59197 0.03417 0.62644 0.0
O206 O 0.42745 0.88924 0.90097 0.0
O207 O 0.48786 0.9106 0.88553 0.0
C208 C 0.49216 1.02305 0.57133 0.0
C209 C 0.57925 0.94957 0.71057 0.0
C210 C 0.35739 0.79768 0.75589 0.0
C211 C 0.48451 0.94387 0.41977 0.0
C212 C 0.46535 0.82962 0.73742 0.0
C213 C 0.37884 0.90885 0.72007 0.0
C214 C 0.60592 0.03739 0.52938 0.0
C215 C 0.45954 0.90453 0.94336 0.0
O216 O 0.52066 1.02075 0.54384 0.0
O217 O 0.46612 0.99874 0.63367 0.0
O218 O 0.55057 0.92907 0.76799 0.0
O219 O 0.57954 0.97039 0.63025 0.0
O220 O 0.38884 0.8045 0.78696 0.0
O221 O 0.35751 0.82643 0.72427 0.0
O222 O 0.51685 0.95398 0.45506 0.0
O223 O 0.45996 0.9446 0.48241 0.0
Co224 Co 0.07667 0.56922 0.57817 0.0
Co225 Co 0.15059 0.60023 0.71872 0.0
Co226 Co 0.11532 0.52119 0.64921 0.0
H227 H 0.09825 0.54823 0.64061 0.0
O228 O 0.10072 0.55826 0.70635 0.0
H229 H 0.17068 0.57711 0.7092 0.0
O230 O 0.16545 0.56465 0.64734 0.0
Co231 Co 0.20177 0.56537 0.75685 0.0
O232 O 0.23753 0.62102 0.76585 0.0
O233 O 0.20046 0.64342 0.72664 0.0
O234 O 0.17737 0.50984 0.7757 0.0
O235 O 0.13361 0.48491 0.63949 0.0
O236 O 0.05599 0.59159 0.46166 0.0
O237 O 1.0275 0.56759 0.61031 0.0
O238 O 0.17216 0.54922 0.89935 0.0
O239 O 0.15036 0.58791 0.88292 0.0
C240 C 0.03938 0.48281 0.56984 0.0
C241 C 0.11341 0.64245 0.7111 0.0
C242 C 0.26404 0.57185 0.74521 0.0
C243 C 0.11904 0.55265 0.41633 0.0
C244 C 0.23214 0.6481 0.74887 0.0
C245 C 0.15458 0.48249 0.71536 0.0
C246 C 1.02771 0.58354 0.51928 0.0
C247 C 0.15555 0.56495 0.94001 0.0
O248 O 0.0429 0.51409 0.54083 0.0
O249 O 0.06341 0.48023 0.63142 0.0
O250 O 0.13222 0.6325 0.77028 0.0
O251 O 0.09473 0.62387 0.62458 0.0
O252 O 0.23882 0.54971 0.81 0.0
O253 O 0.25379 0.59022 0.68636 0.0
O254 O 0.11172 0.57681 0.45259 0.0
O255 O 0.11739 0.527 0.47945 0.0
Co256 Co 0.49313 0.51977 0.58555 0.0
Co257 Co 0.46114 0.56348 0.72163 0.0
Co258 Co 0.54035 0.60672 0.65298 0.0
H259 H 0.51351 0.56258 0.64597 0.0
O260 O 0.50316 0.55525 0.71149 0.0
H261 H 0.48454 0.60656 0.71044 0.0
O262 O 0.49701 0.61346 0.64854 0.0
Co263 Co 0.49682 0.64972 0.75487 0.0
O264 O 0.44141 0.63122 0.75147 0.0
O265 O 0.41799 0.57061 0.72941 0.0
O266 O 0.55176 0.67624 0.78898 0.0
O267 O 0.57649 0.66148 0.64285 0.0
O268 O 0.47055 0.47814 0.46536 0.0
O269 O 0.49445 0.47152 0.61122 0.0
O270 O 0.50997 0.63641 0.90336 0.0
O271 O 0.47295 0.57577 0.88608 0.0
C272 C 0.57927 0.56972 0.57412 0.0
C273 C 0.42012 0.48341 0.7237 0.0
C274 C 0.49191 0.70615 0.73451 0.0
C275 C 0.50753 0.57885 0.42369 0.0
C276 C 0.41412 0.59859 0.74235 0.0
C277 C 0.57935 0.68263 0.7266 0.0
C278 C 0.47837 0.457 0.51927 0.0
C279 C 0.4941 0.60417 0.945 0.0
O280 O 0.54829 0.54141 0.54624 0.0
O281 O 0.58135 0.59587 0.6366 0.0
O282 O 0.4286 0.51334 0.77403 0.0
O283 O 0.44006 0.48196 0.64322 0.0
O284 O 0.51611 0.70431 0.79266 0.0
O285 O 0.47074 0.67601 0.68678 0.0
O286 O 0.48398 0.54736 0.46224 0.0
O287 O 0.53436 0.60231 0.48402 0.0
C288 C 0.30618 0.29872 0.12624 0.0
C289 C 0.27635 0.27381 0.05939 0.0
C290 C 0.33259 0.28982 0.16491 0.0
C291 C 0.33031 0.25592 0.13717 0.0
H292 H 0.30829 0.32452 0.15265 0.0
H293 H 0.35443 0.30936 0.21932 0.0
S294 S 0.25655 0.1811 0.96525 0.0
N295 N 0.24519 0.21368 0.96869 0.0
N296 N 0.2953 0.19734 0.03846 0.0
C297 C 0.30065 0.23098 0.06911 0.0
C298 C 0.27357 0.23987 0.03098 0.0
C299 C 0.82529 0.0789 0.0839 0.0
C300 C 0.79891 0.08431 0.141 0.0
C301 C 0.81785 0.04353 0.05263 0.0
C302 C 0.78343 1.01212 0.07522 0.0
H303 H 0.85212 0.10212 0.06452 0.0
H304 H 0.8395 0.04064 0.01179 0.0
S305 S 0.70452 1.01074 0.22173 0.0
N306 N 0.73659 0.05482 0.21838 0.0
N307 N 0.72259 0.98835 0.15729 0.0
C308 C 0.75632 1.01695 0.12927 0.0
C309 C 0.76405 0.05306 0.16258 0.0
C310 C 1.021 0.79304 0.12084 0.0
C311 C 0.04784 0.78512 0.07767 0.0
C312 C 0.98569 0.76515 0.15168 0.0
C313 C 0.97517 0.72779 0.14071 0.0
H314 H 1.02714 0.8213 0.13101 0.0
H315 H 0.9665 0.77309 0.18488 0.0
S316 S 1.03442 0.69141 0.03343 0.0
N317 N 0.06112 0.73672 0.02593 0.0
N318 N 0.99437 0.68392 0.0838 0.0
C319 C 1.00136 0.71911 0.09683 0.0
C320 C 0.03768 0.7478 0.06514 0.0
C321 C 0.78841 0.75137 0.14105 0.0
C322 C 0.81784 0.77918 0.07808 0.0
C323 C 0.79139 0.72247 0.19349 0.0
C324 C 0.82405 0.72041 0.18569 0.0
H325 H 0.76361 0.75295 0.15455 0.0
H326 H 0.76807 0.70193 0.24169 0.0
S327 S 0.90848 0.78617 0.02597 0.0
N328 N 0.87996 0.80228 0.00793 0.0
N329 N 0.88596 0.74885 0.10504 0.0
C330 C 0.85322 0.74778 0.12003 0.0
C331 C 0.85002 0.77687 0.06689 0.0
C332 C 0.28155 0.08445 0.09257 0.0
C333 C 0.28302 0.0518 0.07644 0.0
C334 C 0.31034 0.11561 0.14532 0.0
C335 C 0.34203 0.11566 0.18625 0.0
H336 H 0.2571 0.08549 0.06778 0.0
H337 H 0.30722 0.13962 0.15643 0.0
S338 S 0.36074 0.03789 0.15937 0.0
N339 N 0.31949 1.02186 0.10162 0.0
N340 N 0.37403 0.08054 0.20021 0.0
C341 C 0.34447 0.08354 0.16768 0.0
C342 C 0.31501 0.05172 0.11267 0.0
C343 C 1.01137 0.27347 0.12848 0.0
C344 C 1.01094 0.24234 0.08093 0.0
C345 C 0.97965 0.2706 0.18188 0.0
C346 C 0.94635 0.23644 0.19063 0.0
H347 H 1.03676 0.29981 0.1289 0.0
H348 H 0.98135 0.29533 0.21705 0.0
S349 S 0.93155 0.14697 0.0776 0.0
N350 N 0.97453 0.17686 0.04327 0.0
N351 N 0.91594 0.17095 0.14504 0.0
C352 C 0.94587 0.2054 0.1415 0.0
C353 C 0.97779 0.2085 0.08651 0.0
C354 C 0.9738 0.61996 0.35303 0.0
C355 C 0.94511 0.61349 0.4287 0.0
C356 C 1.00085 0.61069 0.38301 0.0
C357 C 1.00003 0.59458 0.48946 0.0
H358 H 0.97437 0.63056 0.26845 0.0
H359 H 1.02196 0.61529 0.32131 0.0
S360 S 0.93348 0.57634 0.72263 0.0
N361 N 0.9198 0.59328 0.61871 0.0
N362 N 0.96995 0.57557 0.67341 0.0
C363 C 0.97251 0.58964 0.56727 0.0
C364 C 0.94531 0.59922 0.5374 0.0
C365 C 0.47476 0.39654 0.55756 0.0
C366 C 0.46718 0.41863 0.48483 0.0
C367 C 0.46601 0.36077 0.52642 0.0
C368 C 0.44938 0.34539 0.42085 0.0
H369 H 0.48818 0.40715 0.63874 0.0
H370 H 0.47335 0.34536 0.58475 0.0
S371 S 0.42263 0.39137 0.20084 0.0
N372 N 0.44038 0.422 0.30444 0.0
N373 N 0.42523 0.35513 0.24421 0.0
C374 C 0.44061 0.36674 0.34856 0.0
C375 C 0.44927 0.40326 0.38084 0.0
C376 C 0.65813 0.06518 0.38881 0.0
C377 C 0.64471 0.06449 0.4994 0.0
C378 C 0.69439 0.09149 0.3575 0.0
C379 C 0.71862 0.11772 0.43602 0.0
H380 H 0.64019 0.04594 0.32487 0.0
H381 H 0.70273 0.09268 0.26972 0.0
S382 S 0.69796 0.12646 0.73777 0.0
N383 N 0.65931 0.0915 0.6887 0.0
N384 N 0.72714 0.14057 0.62999 0.0
C385 C 0.7059 0.11649 0.54769 0.0
C386 C 0.66909 0.08994 0.57942 0.0
C387 C 0.51996 0.11542 0.43218 0.0
C388 C 0.48624 0.1141 0.40958 0.0
C389 C 0.52131 0.08614 0.48542 0.0
C390 C 0.48899 0.05408 0.5201 0.0
H391 H 0.54584 0.14006 0.41203 0.0
H392 H 0.54817 0.08908 0.50151 0.0
S393 S 0.39328 0.03562 0.47505 0.0
N394 N 0.41951 0.07746 0.42215 0.0
N395 N 0.42181 1.02188 0.52151 0.0
C396 C 0.45486 0.05179 0.49517 0.0
C397 C 0.45354 0.0818 0.43973 0.0
C398 C 1.00964 0.41683 0.49725 0.0
C399 C 1.00751 0.4489 0.52034 0.0
C400 C 0.98029 0.38568 0.44364 0.0
C401 C 0.94776 0.3855 0.41126 0.0
H402 H 1.03413 0.41576 0.5208 0.0
H403 H 0.98237 0.36107 0.43249 0.0
S404 S 0.9282 0.46224 0.45214 0.0
N405 N 0.96985 0.47805 0.50569 0.0
N406 N 0.91563 0.42044 0.40507 0.0
C407 C 0.94581 0.4177 0.43185 0.0
C408 C 0.97532 0.44906 0.48632 0.0
C409 C 0.61419 0.54041 0.49712 0.0
C410 C 0.61339 0.5728 0.52321 0.0
C411 C 0.645 0.54174 0.44546 0.0
C412 C 0.67646 0.57548 0.41565 0.0
H413 H 0.59104 0.51364 0.51906 0.0
H414 H 0.64464 0.51591 0.43204 0.0
S415 S 0.68711 0.66829 0.45386 0.0
N416 N 0.64583 0.63981 0.50683 0.0
N417 N 0.70395 0.64213 0.40971 0.0
C418 C 0.67553 0.60811 0.43618 0.0
C419 C 0.64407 0.60682 0.49031 0.0
C420 C 0.6094 0.91141 0.70029 0.0
C421 C 0.61148 0.94491 0.73087 0.0
C422 C 0.63652 0.903 0.73478 0.0
C423 C 0.6663 0.92746 0.80332 0.0
H424 H 0.586 0.89108 0.65188 0.0
H425 H 0.6335 0.87666 0.71037 0.0
S426 S 0.6849 1.01967 0.90228 0.0
N427 N 0.6461 1.0033 0.82917 0.0
N428 N 0.69705 0.98769 0.89578 0.0
C429 C 0.66919 0.96164 0.83166 0.0
C430 C 0.64173 0.9703 0.79518 0.0
C431 C 0.11825 0.68768 0.85758 0.0
C432 C 0.11656 0.67834 0.74177 0.0
C433 C 0.12756 0.72343 0.89168 0.0
C434 C 0.13598 0.75156 0.81148 0.0
H435 H 0.1131 0.6673 0.92281 0.0
H436 H 0.12873 0.72916 0.98193 0.0
S437 S 0.1365 0.74174 0.49751 0.0
N438 N 0.12431 0.70016 0.54673 0.0
N439 N 0.1421 0.76755 0.61034 0.0
C440 C 0.13395 0.74252 0.69514 0.0
C441 C 0.12409 0.70587 0.66041 0.0
C442 C 0.32875 0.42706 0.87734 0.0
C443 C 0.3103 0.39445 0.81379 0.0
C444 C 0.36465 0.45444 0.85 0.0
C445 C 0.38398 0.45087 0.75677 0.0
H446 H 0.31525 0.43177 0.94875 0.0
H447 H 0.37696 0.47911 0.90194 0.0
S448 S 0.34891 0.36924 0.56747 0.0
N449 N 0.31463 0.35875 0.65714 0.0
N450 N 0.38224 0.41073 0.60444 0.0
C451 C 0.36631 0.41776 0.69436 0.0
C452 C 0.32948 0.38955 0.7229 0.0
C453 C 0.12646 0.39049 0.85673 0.0
C454 C 0.15893 0.38813 0.84854 0.0
C455 C 0.12369 0.41947 0.80433 0.0
C456 C 0.15316 0.44708 0.74111 0.0
H457 H 0.10309 0.37005 0.90498 0.0
H458 H 0.09899 0.42122 0.81785 0.0
S459 S 0.24352 0.45361 0.68811 0.0
N460 N 0.22088 0.41627 0.76733 0.0
N461 N 0.21523 0.47003 0.67087 0.0
C462 C 0.18527 0.44468 0.72996 0.0
C463 C 0.18826 0.41544 0.78287 0.0
C464 C 0.65294 0.75072 0.92718 0.0
C465 C 0.67573 0.7805 0.85627 0.0
C466 C 0.62327 0.71836 0.88228 0.0
C467 C 0.61552 0.71393 0.76449 0.0
H468 H 0.65716 0.75297 0.01846 0.0
H469 H 0.60554 0.69681 0.94094 0.0
S470 S 0.6703 0.78193 0.54087 0.0
N471 N 0.69083 0.80242 0.66105 0.0
N472 N 0.63539 0.74113 0.57702 0.0
C473 C 0.63952 0.74259 0.69185 0.0
C474 C 0.66944 0.77599 0.73776 0.0
C475 C 0.34763 0.9326 0.84734 0.0
C476 C 0.34633 0.91241 0.74989 0.0
C477 C 0.31527 0.92915 0.8962 0.0
C478 C 0.28011 0.90457 0.85131 0.0
H479 H 0.37383 0.95017 0.88877 0.0
H480 H 0.31782 0.94505 0.97179 0.0
S481 S 0.26228 0.84677 0.59227 0.0
N482 N 0.30755 0.86819 0.60771 0.0
N483 N 0.24674 0.86127 0.69781 0.0
C484 C 0.27874 0.88493 0.75155 0.0
C485 C 0.31177 0.88888 0.70155 0.0
C486 C 0.12404 0.06939 0.01057 0.0
C487 C 0.15344 0.07118 0.07425 0.0
C488 C 0.11632 0.0984 0.01251 0.0
C489 C 0.13787 0.13021 0.0773 0.0
H490 H 0.10667 0.04531 0.9594 0.0
H491 H 0.09409 0.09642 0.96051 0.0
S492 S 0.21783 0.14869 0.25902 0.0
N493 N 0.20408 0.10747 0.20439 0.0
N494 N 0.18968 0.16203 0.20677 0.0
C495 C 0.16741 0.13247 0.14082 0.0
C496 C 0.17512 0.1029 0.13975 0.0
C497 C 0.96191 0.08177 0.13102 0.0
C498 C 0.99334 0.09178 0.06402 0.0
C499 C 0.93209 0.04564 0.13055 0.0
C500 C 0.93327 1.01786 0.06676 0.0
H501 H 0.96024 0.10202 0.1841 0.0
H502 H 0.90809 0.03925 0.18182 0.0
S503 S 1.0097 0.02886 0.88165 0.0
N504 N 1.02378 0.07064 0.93229 0.0
N505 N 0.96853 1.00211 0.93766 0.0
C506 C 0.96484 0.02704 0.00208 0.0
C507 C 0.9947 0.06417 0.99919 0.0
C508 C 0.97879 0.88971 0.03598 0.0
C509 C 0.97053 0.9151 0.08605 0.0
C510 C 1.01498 0.89615 0.03328 0.0
C511 C 0.04463 0.92882 0.07809 0.0
H512 H 0.9571 0.86446 0.99951 0.0
H513 H 1.0196 0.87521 0.99539 0.0
S514 S 0.038 1.00675 0.20415 0.0
N515 N 0.995 0.97564 0.17306 0.0
N516 N 0.0633 0.98843 0.16528 0.0
C517 C 0.03689 0.95537 0.12364 0.0
C518 C 0.99981 0.94838 0.12823 0.0
C519 C 0.78838 0.40238 0.48056 0.0
C520 C 0.81436 0.40112 0.40732 0.0
C521 C 0.78142 0.43186 0.47722 0.0
C522 C 0.80098 0.46165 0.40257 0.0
H523 H 0.77341 0.38053 0.54164 0.0
H524 H 0.76143 0.43182 0.53591 0.0
S525 S 0.87116 0.47119 0.19067 0.0
N526 N 0.8585 0.43141 0.25444 0.0
N527 N 0.84674 0.48765 0.25103 0.0
C528 C 0.82682 0.46058 0.32797 0.0
C529 C 0.8332 0.43011 0.3296 0.0
C530 C 0.63583 0.41372 0.33941 0.0
C531 C 0.65966 0.42639 0.4337 0.0
C532 C 0.60629 0.37743 0.33501 0.0
C533 C 0.59975 0.35234 0.42407 0.0
H534 H 0.6399 0.43197 0.2685 0.0
H535 H 0.58849 0.3689 0.26089 0.0
S536 S 0.65291 0.37222 0.69237 0.0
N537 N 0.67411 0.41124 0.6199 0.0
N538 N 0.61855 0.34293 0.61088 0.0
C539 C 0.62333 0.36455 0.51873 0.0
C540 C 0.65326 0.40164 0.5238 0.0
C541 C 0.64649 0.22909 0.35019 0.0
C542 C 0.63652 0.24858 0.4259 0.0
C543 C 0.68256 0.23509 0.34783 0.0
C544 C 0.71016 0.26108 0.42034 0.0
H545 H 0.62624 0.20885 0.29281 0.0
H546 H 0.68886 0.2193 0.28812 0.0
S547 S 0.69803 0.31891 0.63539 0.0
N548 N 0.65702 0.29475 0.5758 0.0
N549 N 0.72476 0.30596 0.57109 0.0
C550 C 0.70056 0.28086 0.49603 0.0
C551 C 0.66376 0.27458 0.49899 0.0
C552 C 0.44558 0.7636 0.69643 0.0
C553 C 0.4721 0.79817 0.73923 0.0
C554 C 0.45257 0.73413 0.69283 0.0
C555 C 0.48607 0.73812 0.73344 0.0
H556 H 0.41956 0.75947 0.6637 0.0
H557 H 0.4314 0.70795 0.65917 0.0
S558 S 0.56364 0.82238 0.85959 0.0
N559 N 0.53268 0.83437 0.82649 0.0
N560 N 0.54555 0.77891 0.82016 0.0
C561 C 0.51257 0.77237 0.77768 0.0
C562 C 0.50565 0.80242 0.78049 0.0
C563 C 0.29997 0.6933 0.76374 0.0
C564 C 0.26363 0.68657 0.7524 0.0
C565 C 0.33003 0.72937 0.76506 0.0
C566 C 0.325 0.76011 0.75428 0.0
H567 H 0.30537 0.6706 0.77113 0.0
H568 H 0.35749 0.73314 0.77375 0.0
S569 S 0.23567 0.75812 0.72852 0.0
N570 N 0.22443 0.71431 0.73468 0.0
N571 N 0.28113 0.78181 0.73586 0.0
C572 C 0.28897 0.75399 0.74379 0.0
C573 C 0.25826 0.71732 0.74325 0.0
C574 C 0.36679 0.61581 0.68861 0.0
C575 C 0.3762 0.59232 0.74701 0.0
C576 C 0.33025 0.60865 0.68706 0.0
C577 C 0.3021 0.57817 0.74565 0.0
H578 H 0.38759 0.6393 0.64159 0.0
H579 H 0.3241 0.62726 0.64013 0.0
S580 S 0.31332 0.50992 0.91791 0.0
N581 N 0.35497 0.53817 0.86759 0.0
N582 N 0.28664 0.5254 0.86801 0.0
C583 C 0.31144 0.55502 0.80653 0.0
C584 C 0.34841 0.56192 0.8063 0.0
C585 C 0.16875 0.26248 0.56535 0.0
C586 C 0.14115 0.26295 0.63268 0.0
C587 C 0.16348 0.2545 0.44954 0.0
C588 C 0.13029 0.24639 0.39561 0.0
H589 H 0.19502 0.26863 0.60175 0.0
H590 H 0.18568 0.25439 0.40238 0.0
S591 S 0.04917 0.24425 0.53222 0.0
N592 N 0.0793 0.25484 0.63644 0.0
N593 N 0.06929 0.23962 0.41763 0.0
C594 C 0.10228 0.24667 0.46138 0.0
C595 C 0.10773 0.255 0.58003 0.0
C596 C 0.82622 0.88025 0.47423 0.0
C597 C 0.81043 0.89375 0.39507 0.0
C598 C 0.81661 0.87652 0.58995 0.0
C599 C 0.79103 0.88629 0.6301 0.0
H600 H 0.84688 0.87347 0.44731 0.0
H601 H 0.83011 0.86703 0.64867 0.0
S602 S 0.7376 0.91748 0.45507 0.0
N603 N 0.76506 0.9131 0.36358 0.0
N604 N 0.74702 0.90606 0.57999 0.0
C605 C 0.77375 0.89809 0.55091 0.0
C606 C 0.78347 0.90186 0.43368 0.0
C607 C 0.15473 0.88878 0.55679 0.0
C608 C 0.17314 0.91843 0.63313 0.0
C609 C 0.15146 0.89476 0.4414 0.0
C610 C 0.16644 0.93066 0.39714 0.0
H611 H 0.14286 0.86052 0.58604 0.0
H612 H 0.13708 0.87091 0.38657 0.0
S613 S 0.21652 1.01791 0.56195 0.0
N614 N 0.20617 0.98503 0.65696 0.0
N615 N 0.20002 0.99654 0.43972 0.0
C616 C 0.18507 0.96069 0.4725 0.0
C617 C 0.18845 0.95452 0.59041 0.0
C618 C 0.78186 0.59679 0.78919 0.0
C619 C 0.79899 0.57922 0.73531 0.0
C620 C 0.78621 0.60425 0.90644 0.0
C621 C 0.80757 0.59406 0.97369 0.0
H622 H 0.76564 0.60553 0.73992 0.0
H623 H 0.77368 0.61902 0.94384 0.0
S624 S 0.85174 0.54088 0.8775 0.0
N625 N 0.83408 0.54773 0.76042 0.0
N626 N 0.84196 0.56137 0.98051 0.0
C627 C 0.82316 0.57478 0.92165 0.0
C628 C 0.81898 0.56747 0.80251 0.0
C629 C 0.46524 0.25339 0.89778 0.0
C630 C 0.46265 0.22402 0.96406 0.0
C631 C 0.47303 0.25611 0.78129 0.0
C632 C 0.47871 0.22967 0.72541 0.0
H633 H 0.46109 0.27462 0.93578 0.0
H634 H 0.47484 0.27941 0.73506 0.0
S635 S 0.47449 0.14685 0.85869 0.0
N636 N 0.46607 0.16758 0.96424 0.0
N637 N 0.48079 0.17267 0.74524 0.0
C638 C 0.47617 0.20003 0.7903 0.0
C639 C 0.46819 0.19724 0.90939 0.0
C640 C 0.84727 0.29101 0.80658 0.0
C641 C 0.83285 0.26154 0.72835 0.0
C642 C 0.85083 0.28519 0.92247 0.0
C643 C 0.83995 0.24968 0.96396 0.0
H644 H 0.85514 0.31869 0.77864 0.0
H645 H 0.86129 0.30843 0.9802 0.0
S646 S 0.80556 0.16424 0.79188 0.0
N647 N 0.81107 0.1963 0.69916 0.0
N648 N 0.81763 0.18527 0.91618 0.0
C649 C 0.82682 0.22025 0.88588 0.0
C650 C 0.82327 0.22619 0.76831 0.0
C651 C 0.50567 0.94957 0.22009 0.0
C652 C 0.47661 0.9337 0.29919 0.0
C653 C 0.49967 0.94029 0.10513 0.0
C654 C 0.46437 0.91471 0.06476 0.0
H655 H 0.53338 0.96955 0.24698 0.0
H656 H 0.52298 0.95333 0.0476 0.0
S657 S 0.37918 0.86435 0.23861 0.0
N658 N 0.41142 0.89088 0.33059 0.0
N659 N 0.3999 0.87297 0.11362 0.0
C660 C 0.43491 0.89869 0.14298 0.0
C661 C 0.44109 0.90832 0.26043 0.0
C662 C 0.15343 0.54519 0.25511 0.0
C663 C 0.12623 0.55275 0.29437 0.0
C664 C 0.16214 0.54806 0.13911 0.0
C665 C 0.14368 0.55837 0.05956 0.0
H666 H 0.16888 0.53829 0.31464 0.0
H667 H 0.18425 0.5434 0.11227 0.0
S668 S 0.0658 0.57462 0.11872 0.0
N669 N 0.07786 0.56647 0.2445 0.0
N670 N 0.09409 0.5718 0.02678 0.0
C671 C 0.11499 0.5639 0.09757 0.0
C672 C 0.10628 0.56109 0.2151 0.0
C673 C 0.47684 0.55955 0.23489 0.0
C674 C 0.50467 0.58703 0.30295 0.0
C675 C 0.47395 0.56542 0.11953 0.0
C676 C 0.49859 0.59911 0.06714 0.0
H677 H 0.45711 0.53296 0.27034 0.0
H678 H 0.45193 0.54327 0.07146 0.0
S679 S 0.57656 0.68024 0.20669 0.0
N680 N 0.55764 0.64932 0.3092 0.0
N681 N 0.55178 0.66053 0.09185 0.0
C682 C 0.52644 0.62704 0.13397 0.0
C683 C 0.5296 0.62096 0.25186 0.0
loop_
_geom_bond_atom_site_label_1
_geom_bond_atom_site_label_2
_geom_bond_distance
_geom_bond_site_symmetry_2
_ccdc_geom_bond_type
Co0 H3 2.400 1_556 S
Co0 O4 2.009 1_556 S
Co0 O12 2.115 . S
Co0 O13 2.315 1_556 S
Co0 O24 2.053 . S
Co0 O27 2.094 . S
Co0 O30 2.122 . S
Co1 O4 2.126 . S
Co1 H5 2.388 1_554 S
Co1 O6 2.053 1_554 S
Co1 O9 2.047 . S
Co1 O15 2.113 . S
Co1 O26 2.063 . S
Co2 H3 2.388 1_556 S
Co2 O4 2.053 1_556 S
Co2 O6 2.126 . S
Co2 O11 2.063 . S
Co2 O25 2.047 . S
Co2 O31 2.113 . S
H3 Co0 2.400 1_554 S
H3 Co2 2.388 1_554 S
H3 O4 0.760 . S
O4 Co0 2.009 1_554 S
O4 Co1 2.126 . S
O4 Co2 2.053 1_554 S
O4 H3 0.760 . S
H5 Co1 2.388 1_556 S
H5 O6 0.760 . S
H5 Co7 2.400 1_556 S
O6 Co1 2.053 1_556 S
O6 Co2 2.126 . S
O6 H5 0.760 . S
O6 Co7 2.009 1_556 S
Co7 H5 2.400 1_554 S
Co7 O6 2.009 1_554 S
Co7 O8 2.053 . S
Co7 O10 2.094 . S
Co7 O14 2.122 . S
Co7 O28 2.115 . S
Co7 O29 2.315 1_554 S
O8 Co7 2.053 . S
O8 C20 1.259 . S
O9 Co1 2.047 . S
O9 C20 1.257 . S
O10 Co7 2.094 . S
O10 C21 1.253 . S
O11 Co2 2.063 . S
O11 C21 1.268 1_556 S
O12 Co0 2.115 . S
O12 C22 1.281 . S
O13 Co0 2.315 1_554 S
O13 C22 1.252 1_554 S
O14 Co7 2.122 . S
O14 C23 1.272 . S
O15 Co1 2.113 . S
O15 C23 1.245 . S
C16 O24 1.259 . S
C16 O25 1.257 . S
C17 O26 1.268 1_556 S
C17 O27 1.253 . S
C18 O28 1.281 1_655 S
C18 O29 1.252 1_654 S
C19 O30 1.272 . S
C19 O31 1.245 . S
C20 O8 1.259 . S
C20 O9 1.257 . S
C21 O10 1.253 . S
C21 O11 1.268 1_554 S
C22 O12 1.281 . S
C22 O13 1.252 1_556 S
C23 O14 1.272 . S
C23 O15 1.245 . S
O24 Co0 2.053 . S
O24 C16 1.259 . S
O25 Co2 2.047 . S
O25 C16 1.257 . S
O26 Co1 2.063 . S
O26 C17 1.268 1_554 S
O27 Co0 2.094 . S
O27 C17 1.253 . S
O28 Co7 2.115 . S
O28 C18 1.281 1_455 S
O29 Co7 2.315 1_556 S
O29 C18 1.252 1_456 S
O30 Co0 2.122 . S
O30 C19 1.272 . S
O31 Co2 2.113 . S
O31 C19 1.245 . S
Co32 H35 2.400 1_556 S
Co32 O36 2.009 1_556 S
Co32 O44 2.115 . S
Co32 O45 2.315 1_556 S
Co32 O56 2.053 . S
Co32 O59 2.094 . S
Co32 O62 2.122 . S
Co33 O36 2.126 . S
Co33 H37 2.388 1_554 S
Co33 O38 2.053 1_554 S
Co33 O41 2.047 . S
Co33 O47 2.113 . S
Co33 O58 2.063 . S
Co34 H35 2.388 1_556 S
Co34 O36 2.053 1_556 S
Co34 O38 2.126 . S
Co34 O43 2.063 . S
Co34 O57 2.047 . S
Co34 O63 2.113 . S
H35 Co32 2.400 1_554 S
H35 Co34 2.388 1_554 S
H35 O36 0.760 . S
O36 Co32 2.009 1_554 S
O36 Co33 2.126 . S
O36 Co34 2.053 1_554 S
O36 H35 0.760 . S
H37 Co33 2.388 1_556 S
H37 O38 0.760 . S
H37 Co39 2.400 1_556 S
O38 Co33 2.053 1_556 S
O38 Co34 2.126 . S
O38 H37 0.760 . S
O38 Co39 2.009 1_556 S
Co39 H37 2.400 1_554 S
Co39 O38 2.009 1_554 S
Co39 O40 2.053 . S
Co39 O42 2.094 . S
Co39 O46 2.122 . S
Co39 O60 2.115 . S
Co39 O61 2.315 1_554 S
O40 Co39 2.053 . S
O40 C52 1.259 . S
O41 Co33 2.047 . S
O41 C52 1.257 . S
O42 Co39 2.094 . S
O42 C53 1.253 . S
O43 Co34 2.063 . S
O43 C53 1.268 1_556 S
O44 Co32 2.115 . S
O44 C54 1.281 . S
O45 Co32 2.315 1_554 S
O45 C54 1.252 1_554 S
O46 Co39 2.122 . S
O46 C55 1.272 . S
O47 Co33 2.113 . S
O47 C55 1.245 . S
C48 O56 1.259 . S
C48 O57 1.257 . S
C49 O58 1.268 1_556 S
C49 O59 1.253 . S
C50 O60 1.281 . S
C50 O61 1.252 1_554 S
C51 O62 1.272 . S
C51 O63 1.245 . S
C52 O40 1.259 . S
C52 O41 1.257 . S
C53 O42 1.253 . S
C53 O43 1.268 1_554 S
C54 O44 1.281 . S
C54 O45 1.252 1_556 S
C55 O46 1.272 . S
C55 O47 1.245 . S
O56 Co32 2.053 . S
O56 C48 1.259 . S
O57 Co34 2.047 . S
O57 C48 1.257 . S
O58 Co33 2.063 . S
O58 C49 1.268 1_554 S
O59 Co32 2.094 . S
O59 C49 1.253 . S
O60 Co39 2.115 . S
O60 C50 1.281 . S
O61 Co39 2.315 1_556 S
O61 C50 1.252 1_556 S
O62 Co32 2.122 . S
O62 C51 1.272 . S
O63 Co34 2.113 . S
O63 C51 1.245 . S
Co64 H67 2.400 1_556 S
Co64 O68 2.009 1_556 S
Co64 O76 2.115 . S
Co64 O77 2.315 1_556 S
Co64 O88 2.053 . S
Co64 O91 2.094 . S
Co64 O94 2.122 . S
Co65 O68 2.126 . S
Co65 H69 2.388 1_554 S
Co65 O70 2.053 1_554 S
Co65 O73 2.047 . S
Co65 O79 2.113 . S
Co65 O90 2.063 . S
Co66 H67 2.388 1_556 S
Co66 O68 2.053 1_556 S
Co66 O70 2.126 . S
Co66 O75 2.063 . S
Co66 O89 2.047 . S
Co66 O95 2.113 . S
H67 Co64 2.400 1_554 S
H67 Co66 2.388 1_554 S
H67 O68 0.760 . S
O68 Co64 2.009 1_554 S
O68 Co65 2.126 . S
O68 Co66 2.053 1_554 S
O68 H67 0.760 . S
H69 Co65 2.388 1_556 S
H69 O70 0.760 . S
H69 Co71 2.400 1_556 S
O70 Co65 2.053 1_556 S
O70 Co66 2.126 . S
O70 H69 0.760 . S
O70 Co71 2.009 1_556 S
Co71 H69 2.400 1_554 S
Co71 O70 2.009 1_554 S
Co71 O72 2.053 . S
Co71 O74 2.094 . S
Co71 O78 2.122 . S
Co71 O92 2.115 . S
Co71 O93 2.315 1_554 S
O72 Co71 2.053 . S
O72 C84 1.259 . S
O73 Co65 2.047 . S
O73 C84 1.257 . S
O74 Co71 2.094 . S
O74 C85 1.253 . S
O75 Co66 2.063 . S
O75 C85 1.268 1_556 S
O76 Co64 2.115 . S
O76 C86 1.281 . S
O77 Co64 2.315 1_554 S
O77 C86 1.252 1_554 S
O78 Co71 2.122 . S
O78 C87 1.272 . S
O79 Co65 2.113 . S
O79 C87 1.245 . S
C80 O88 1.259 . S
C80 O89 1.257 . S
C81 O90 1.268 1_556 S
C81 O91 1.253 . S
C82 O92 1.281 1_545 S
C82 O93 1.252 1_544 S
C83 O94 1.272 . S
C83 O95 1.245 . S
C84 O72 1.259 . S
C84 O73 1.257 . S
C85 O74 1.253 . S
C85 O75 1.268 1_554 S
C86 O76 1.281 . S
C86 O77 1.252 1_556 S
C87 O78 1.272 . S
C87 O79 1.245 . S
O88 Co64 2.053 . S
O88 C80 1.259 . S
O89 Co66 2.047 . S
O89 C80 1.257 . S
O90 Co65 2.063 . S
O90 C81 1.268 1_554 S
O91 Co64 2.094 . S
O91 C81 1.253 . S
O92 Co71 2.115 . S
O92 C82 1.281 1_565 S
O93 Co71 2.315 1_556 S
O93 C82 1.252 1_566 S
O94 Co64 2.122 . S
O94 C83 1.272 . S
O95 Co66 2.113 . S
O95 C83 1.245 . S
Co96 H99 2.400 . S
Co96 O100 2.009 . S
Co96 O108 2.115 . S
Co96 O109 2.315 . S
Co96 O120 2.053 . S
Co96 O123 2.094 . S
Co96 O126 2.122 . S
Co97 O100 2.126 . S
Co97 H101 2.388 . S
Co97 O102 2.053 . S
Co97 O105 2.047 . S
Co97 O111 2.113 . S
Co97 O122 2.063 . S
Co98 H99 2.388 . S
Co98 O100 2.053 . S
Co98 O102 2.126 . S
Co98 O107 2.063 . S
Co98 O121 2.047 . S
Co98 O127 2.113 . S
H99 Co96 2.400 . S
H99 Co98 2.388 . S
H99 O100 0.760 . S
O100 Co96 2.009 . S
O100 Co97 2.126 . S
O100 Co98 2.053 . S
O100 H99 0.760 . S
H101 Co97 2.388 . S
H101 O102 0.760 . S
H101 Co103 2.400 . S
O102 Co97 2.053 . S
O102 Co98 2.126 . S
O102 H101 0.760 . S
O102 Co103 2.009 . S
Co103 H101 2.400 . S
Co103 O102 2.009 . S
Co103 O104 2.053 . S
Co103 O106 2.094 . S
Co103 O110 2.122 . S
Co103 O124 2.115 . S
Co103 O125 2.315 . S
O104 Co103 2.053 . S
O104 C116 1.259 . S
O105 Co97 2.047 . S
O105 C116 1.257 . S
O106 Co103 2.094 . S
O106 C117 1.253 . S
O107 Co98 2.063 . S
O107 C117 1.268 . S
O108 Co96 2.115 . S
O108 C118 1.281 . S
O109 Co96 2.315 . S
O109 C118 1.252 . S
O110 Co103 2.122 . S
O110 C119 1.272 . S
O111 Co97 2.113 . S
O111 C119 1.245 . S
C112 O120 1.259 . S
C112 O121 1.257 . S
C113 O122 1.268 . S
C113 O123 1.253 . S
C114 O124 1.281 . S
C114 O125 1.252 . S
C115 O126 1.272 . S
C115 O127 1.245 . S
C116 O104 1.259 . S
C116 O105 1.257 . S
C117 O106 1.253 . S
C117 O107 1.268 . S
C118 O108 1.281 . S
C118 O109 1.252 . S
C119 O110 1.272 . S
C119 O111 1.245 . S
O120 Co96 2.053 . S
O120 C112 1.259 . S
O121 Co98 2.047 . S
O121 C112 1.257 . S
O122 Co97 2.063 . S
O122 C113 1.268 . S
O123 Co96 2.094 . S
O123 C113 1.253 . S
O124 Co103 2.115 . S
O124 C114 1.281 . S
O125 Co103 2.315 . S
O125 C114 1.252 . S
O126 Co96 2.122 . S
O126 C115 1.272 . S
O127 Co98 2.113 . S
O127 C115 1.245 . S
Co128 H131 2.400 . S
Co128 O132 2.009 . S
Co128 O140 2.115 . S
Co128 O141 2.315 . S
Co128 O152 2.053 . S
Co128 O155 2.094 . S
Co128 O158 2.122 . S
Co129 O132 2.126 . S
Co129 H133 2.388 . S
Co129 O134 2.053 . S
Co129 O137 2.047 . S
Co129 O143 2.113 . S
Co129 O154 2.063 . S
Co130 H131 2.388 . S
Co130 O132 2.053 . S
Co130 O134 2.126 . S
Co130 O139 2.063 . S
Co130 O153 2.047 . S
Co130 O159 2.113 . S
H131 Co128 2.400 . S
H131 Co130 2.388 . S
H131 O132 0.760 . S
O132 Co128 2.009 . S
O132 Co129 2.126 . S
O132 Co130 2.053 . S
O132 H131 0.760 . S
H133 Co129 2.388 . S
H133 O134 0.760 . S
H133 Co135 2.400 . S
O134 Co129 2.053 . S
O134 Co130 2.126 . S
O134 H133 0.760 . S
O134 Co135 2.009 . S
Co135 H133 2.400 . S
Co135 O134 2.009 . S
Co135 O136 2.053 . S
Co135 O138 2.094 . S
Co135 O142 2.122 . S
Co135 O156 2.115 . S
Co135 O157 2.315 . S
O136 Co135 2.053 . S
O136 C148 1.259 . S
O137 Co129 2.047 . S
O137 C148 1.257 . S
O138 Co135 2.094 . S
O138 C149 1.253 . S
O139 Co130 2.063 . S
O139 C149 1.268 . S
O140 Co128 2.115 . S
O140 C150 1.281 . S
O141 Co128 2.315 . S
O141 C150 1.252 . S
O142 Co135 2.122 . S
O142 C151 1.272 . S
O143 Co129 2.113 . S
O143 C151 1.245 . S
C144 O152 1.259 . S
C144 O153 1.257 . S
C145 O154 1.268 . S
C145 O155 1.253 . S
C146 O156 1.281 . S
C146 O157 1.252 . S
C147 O158 1.272 . S
C147 O159 1.245 . S
C148 O136 1.259 . S
C148 O137 1.257 . S
C149 O138 1.253 . S
C149 O139 1.268 . S
C150 O140 1.281 . S
C150 O141 1.252 . S
C151 O142 1.272 . S
C151 O143 1.245 . S
O152 Co128 2.053 . S
O152 C144 1.259 . S
O153 Co130 2.047 . S
O153 C144 1.257 . S
O154 Co129 2.063 . S
O154 C145 1.268 . S
O155 Co128 2.094 . S
O155 C145 1.253 . S
O156 Co135 2.115 . S
O156 C146 1.281 . S
O157 Co135 2.315 . S
O157 C146 1.252 . S
O158 Co128 2.122 . S
O158 C147 1.272 . S
O159 Co130 2.113 . S
O159 C147 1.245 . S
Co160 H163 2.400 . S
Co160 O164 2.009 . S
Co160 O172 2.115 . S
Co160 O173 2.315 . S
Co160 O184 2.053 . S
Co160 O187 2.094 . S
Co160 O190 2.122 . S
Co161 O164 2.126 . S
Co161 H165 2.388 . S
Co161 O166 2.053 . S
Co161 O169 2.047 . S
Co161 O175 2.113 . S
Co161 O186 2.063 . S
Co162 H163 2.388 . S
Co162 O164 2.053 . S
Co162 O166 2.126 . S
Co162 O171 2.063 . S
Co162 O185 2.047 . S
Co162 O191 2.113 . S
H163 Co160 2.400 . S
H163 Co162 2.388 . S
H163 O164 0.760 . S
O164 Co160 2.009 . S
O164 Co161 2.126 . S
O164 Co162 2.053 . S
O164 H163 0.760 . S
H165 Co161 2.388 . S
H165 O166 0.760 . S
H165 Co167 2.400 . S
O166 Co161 2.053 . S
O166 Co162 2.126 . S
O166 H165 0.760 . S
O166 Co167 2.009 . S
Co167 H165 2.400 . S
Co167 O166 2.009 . S
Co167 O168 2.053 . S
Co167 O170 2.094 . S
Co167 O174 2.122 . S
Co167 O188 2.115 . S
Co167 O189 2.315 . S
O168 Co167 2.053 . S
O168 C180 1.259 . S
O169 Co161 2.047 . S
O169 C180 1.257 . S
O170 Co167 2.094 . S
O170 C181 1.253 . S
O171 Co162 2.063 . S
O171 C181 1.268 . S
O172 Co160 2.115 . S
O172 C182 1.281 . S
O173 Co160 2.315 . S
O173 C182 1.252 . S
O174 Co167 2.122 . S
O174 C183 1.272 . S
O175 Co161 2.113 . S
O175 C183 1.245 . S
C176 O184 1.259 . S
C176 O185 1.257 . S
C177 O186 1.268 . S
C177 O187 1.253 . S
C178 O188 1.281 . S
C178 O189 1.252 . S
C179 O190 1.272 . S
C179 O191 1.245 . S
C180 O168 1.259 . S
C180 O169 1.257 . S
C181 O170 1.253 . S
C181 O171 1.268 . S
C182 O172 1.281 . S
C182 O173 1.252 . S
C183 O174 1.272 . S
C183 O175 1.245 . S
O184 Co160 2.053 . S
O184 C176 1.259 . S
O185 Co162 2.047 . S
O185 C176 1.257 . S
O186 Co161 2.063 . S
O186 C177 1.268 . S
O187 Co160 2.094 . S
O187 C177 1.253 . S
O188 Co167 2.115 . S
O188 C178 1.281 . S
O189 Co167 2.315 . S
O189 C178 1.252 . S
O190 Co160 2.122 . S
O190 C179 1.272 . S
O191 Co162 2.113 . S
O191 C179 1.245 . S
Co192 H195 2.400 . S
Co192 O196 2.009 . S
Co192 O204 2.120 . S
Co192 O205 2.315 . S
Co192 O216 2.053 . S
Co192 O219 2.094 . S
Co192 O222 2.122 . S
Co193 O196 2.126 . S
Co193 H197 2.388 . S
Co193 O198 2.053 . S
Co193 O201 2.047 . S
Co193 O207 2.113 . S
Co193 O218 2.063 . S
Co194 H195 2.388 . S
Co194 O196 2.053 . S
Co194 O198 2.126 . S
Co194 O203 2.063 . S
Co194 O217 2.047 . S
Co194 O223 2.113 . S
H195 Co192 2.400 . S
H195 Co194 2.388 . S
H195 O196 0.760 . S
O196 Co192 2.009 . S
O196 Co193 2.126 . S
O196 Co194 2.053 . S
O196 H195 0.760 . S
H197 Co193 2.388 . S
H197 O198 0.760 . S
H197 Co199 2.400 . S
O198 Co193 2.053 . S
O198 Co194 2.126 . S
O198 H197 0.760 . S
O198 Co199 2.009 . S
Co199 H197 2.400 . S
Co199 O198 2.009 . S
Co199 O200 2.053 . S
Co199 O202 2.094 . S
Co199 O206 2.122 . S
Co199 O220 2.115 . S
Co199 O221 2.315 . S
O200 Co199 2.053 . S
O200 C212 1.259 . S
O201 Co193 2.047 . S
O201 C212 1.257 . S
O202 Co199 2.094 . S
O202 C213 1.253 . S
O203 Co194 2.063 . S
O203 C213 1.268 . S
O204 Co192 2.120 . S
O204 C214 1.279 1_565 S
O205 Co192 2.315 . S
O205 C214 1.252 1_565 S
O206 Co199 2.122 . S
O206 C215 1.272 . S
O207 Co193 2.113 . S
O207 C215 1.245 . S
C208 O216 1.259 . S
C208 O217 1.257 . S
C209 O218 1.268 . S
C209 O219 1.253 . S
C210 O220 1.281 . S
C210 O221 1.252 . S
C211 O222 1.272 . S
C211 O223 1.245 . S
C212 O200 1.259 . S
C212 O201 1.257 . S
C213 O202 1.253 . S
C213 O203 1.268 . S
C214 O204 1.279 1_545 S
C214 O205 1.252 1_545 S
C215 O206 1.272 . S
C215 O207 1.245 . S
O216 Co192 2.053 . S
O216 C208 1.259 . S
O217 Co194 2.047 . S
O217 C208 1.257 . S
O218 Co193 2.063 . S
O218 C209 1.268 . S
O219 Co192 2.094 . S
O219 C209 1.253 . S
O220 Co199 2.115 . S
O220 C210 1.281 . S
O221 Co199 2.315 . S
O221 C210 1.252 . S
O222 Co192 2.122 . S
O222 C211 1.272 . S
O223 Co194 2.113 . S
O223 C211 1.245 . S
Co224 H227 2.400 . S
Co224 O228 2.009 . S
Co224 O236 2.128 . S
Co224 O237 2.315 . S
Co224 O248 2.053 . S
Co224 O251 2.094 . S
Co224 O254 2.122 . S
Co225 O228 2.126 . S
Co225 H229 2.388 . S
Co225 O230 2.053 . S
Co225 O233 2.047 . S
Co225 O239 2.113 . S
Co225 O250 2.063 . S
Co226 H227 2.388 . S
Co226 O228 2.053 . S
Co226 O230 2.126 . S
Co226 O235 2.063 . S
Co226 O249 2.047 . S
Co226 O255 2.113 . S
H227 Co224 2.400 . S
H227 Co226 2.388 . S
H227 O228 0.760 . S
O228 Co224 2.009 . S
O228 Co225 2.126 . S
O228 Co226 2.053 . S
O228 H227 0.760 . S
H229 Co225 2.388 . S
H229 O230 0.760 . S
H229 Co231 2.400 . S
O230 Co225 2.053 . S
O230 Co226 2.126 . S
O230 H229 0.760 . S
O230 Co231 2.009 . S
Co231 H229 2.400 . S
Co231 O230 2.009 . S
Co231 O232 2.053 . S
Co231 O234 2.094 . S
Co231 O238 2.122 . S
Co231 O252 2.115 . S
Co231 O253 2.315 . S
O232 Co231 2.053 . S
O232 C244 1.259 . S
O233 Co225 2.047 . S
O233 C244 1.257 . S
O234 Co231 2.094 . S
O234 C245 1.253 . S
O235 Co226 2.063 . S
O235 C245 1.268 . S
O236 Co224 2.128 . S
O236 C246 1.275 1_455 S
O237 Co224 2.315 . S
O237 C246 1.251 1_455 S
O238 Co231 2.122 . S
O238 C247 1.272 . S
O239 Co225 2.113 . S
O239 C247 1.245 . S
C240 O248 1.259 . S
C240 O249 1.257 . S
C241 O250 1.268 . S
C241 O251 1.253 . S
C242 O252 1.281 . S
C242 O253 1.252 . S
C243 O254 1.272 . S
C243 O255 1.245 . S
C244 O232 1.259 . S
C244 O233 1.257 . S
C245 O234 1.253 . S
C245 O235 1.268 . S
C246 O236 1.275 1_655 S
C246 O237 1.251 1_655 S
C247 O238 1.272 . S
C247 O239 1.245 . S
O248 Co224 2.053 . S
O248 C240 1.259 . S
O249 Co226 2.047 . S
O249 C240 1.257 . S
O250 Co225 2.063 . S
O250 C241 1.268 . S
O251 Co224 2.094 . S
O251 C241 1.253 . S
O252 Co231 2.115 . S
O252 C242 1.281 . S
O253 Co231 2.315 . S
O253 C242 1.252 . S
O254 Co224 2.122 . S
O254 C243 1.272 . S
O255 Co226 2.113 . S
O255 C243 1.245 . S
Co256 H259 2.400 . S
Co256 O260 2.009 . S
Co256 O268 2.115 . S
Co256 O269 2.315 . S
Co256 O280 2.053 . S
Co256 O283 2.094 . S
Co256 O286 2.122 . S
Co257 O260 2.126 . S
Co257 H261 2.388 . S
Co257 O262 2.053 . S
Co257 O265 2.047 . S
Co257 O271 2.113 . S
Co257 O282 2.063 . S
Co258 H259 2.388 . S
Co258 O260 2.053 . S
Co258 O262 2.126 . S
Co258 O267 2.063 . S
Co258 O281 2.047 . S
Co258 O287 2.113 . S
H259 Co256 2.400 . S
H259 Co258 2.388 . S
H259 O260 0.760 . S
O260 Co256 2.009 . S
O260 Co257 2.126 . S
O260 Co258 2.053 . S
O260 H259 0.760 . S
H261 Co257 2.388 . S
H261 O262 0.760 . S
H261 Co263 2.400 . S
O262 Co257 2.053 . S
O262 Co258 2.126 . S
O262 H261 0.760 . S
O262 Co263 2.009 . S
Co263 H261 2.400 . S
Co263 O262 2.009 . S
Co263 O264 2.053 . S
Co263 O266 2.094 . S
Co263 O270 2.122 . S
Co263 O284 2.115 . S
Co263 O285 2.315 . S
O264 Co263 2.053 . S
O264 C276 1.259 . S
O265 Co257 2.047 . S
O265 C276 1.257 . S
O266 Co263 2.094 . S
O266 C277 1.253 . S
O267 Co258 2.063 . S
O267 C277 1.268 . S
O268 Co256 2.115 . S
O268 C278 1.281 . S
O269 Co256 2.315 . S
O269 C278 1.252 . S
O270 Co263 2.122 . S
O270 C279 1.272 . S
O271 Co257 2.113 . S
O271 C279 1.245 . S
C272 O280 1.259 . S
C272 O281 1.257 . S
C273 O282 1.268 . S
C273 O283 1.253 . S
C274 O284 1.281 . S
C274 O285 1.252 . S
C275 O286 1.272 . S
C275 O287 1.245 . S
C276 O264 1.259 . S
C276 O265 1.257 . S
C277 O266 1.253 . S
C277 O267 1.268 . S
C278 O268 1.281 . S
C278 O269 1.252 . S
C279 O270 1.272 . S
C279 O271 1.245 . S
O280 Co256 2.053 . S
O280 C272 1.259 . S
O281 Co258 2.047 . S
O281 C272 1.257 . S
O282 Co257 2.063 . S
O282 C273 1.268 . S
O283 Co256 2.094 . S
O283 C273 1.253 . S
O284 Co263 2.115 . S
O284 C274 1.281 . S
O285 Co263 2.315 . S
O285 C274 1.252 . S
O286 Co256 2.122 . S
O286 C275 1.272 . S
O287 Co258 2.113 . S
O287 C275 1.245 . S
C288 C289 1.369 . S
C288 C290 1.419 . S
C288 H292 0.930 . S
C289 C288 1.369 . S
C289 C298 1.429 . S
C290 C288 1.419 . S
C290 C291 1.363 . S
C290 H293 0.929 . S
C291 C290 1.363 . S
C291 C297 1.428 . S
H292 C288 0.930 . S
H293 C290 0.929 . S
S294 N295 1.613 1_554 S
S294 N296 1.610 . S
N295 S294 1.613 1_556 S
N295 C298 1.350 1_556 S
N296 S294 1.610 . S
N296 C297 1.351 . S
C297 C291 1.428 . S
C297 N296 1.351 . S
C297 C298 1.434 . S
C298 C289 1.429 . S
C298 N295 1.350 1_554 S
C298 C297 1.434 . S
C299 C300 1.369 . S
C299 C301 1.419 . S
C299 H303 0.930 . S
C300 C299 1.369 . S
C300 C309 1.429 . S
C301 C299 1.419 . S
C301 C302 1.363 1_545 S
C301 H304 0.929 1_554 S
C302 C301 1.363 1_565 S
C302 C308 1.428 . S
H303 C299 0.930 . S
H304 C301 0.929 1_556 S
S305 N306 1.613 1_565 S
S305 N307 1.610 . S
N306 S305 1.613 1_545 S
N306 C309 1.350 . S
N307 S305 1.610 . S
N307 C308 1.351 . S
C308 C302 1.428 . S
C308 N307 1.351 . S
C308 C309 1.434 1_565 S
C309 C300 1.429 . S
C309 N306 1.350 . S
C309 C308 1.434 1_545 S
C310 C311 1.369 1_655 S
C310 C312 1.419 . S
C310 H314 0.930 . S
C311 C310 1.369 1_455 S
C311 C320 1.429 . S
C312 C310 1.419 . S
C312 C313 1.363 . S
C312 H315 0.929 . S
C313 C312 1.363 . S
C313 C319 1.428 . S
H314 C310 0.930 . S
H315 C312 0.929 . S
S316 N317 1.613 . S
S316 N318 1.610 1_455 S
N317 S316 1.613 . S
N317 C320 1.350 . S
N318 S316 1.610 1_655 S
N318 C319 1.351 . S
C319 C313 1.428 . S
C319 N318 1.351 . S
C319 C320 1.434 1_655 S
C320 C311 1.429 . S
C320 N317 1.350 . S
C320 C319 1.434 1_455 S
C321 C322 1.369 . S
C321 C323 1.419 . S
C321 H325 0.930 . S
C322 C321 1.369 . S
C322 C331 1.429 . S
C323 C321 1.419 . S
C323 C324 1.363 . S
C323 H326 0.929 . S
C324 C323 1.363 . S
C324 C330 1.428 . S
H325 C321 0.930 . S
H326 C323 0.929 . S
S327 N328 1.613 . S
S327 N329 1.610 . S
N328 S327 1.613 . S
N328 C331 1.350 . S
N329 S327 1.610 . S
N329 C330 1.351 . S
C330 C324 1.428 . S
C330 N329 1.351 . S
C330 C331 1.434 . S
C331 C322 1.429 . S
C331 N328 1.350 . S
C331 C330 1.434 . S
C332 C333 1.369 . S
C332 C334 1.419 . S
C332 H336 0.930 . S
C333 C332 1.369 . S
C333 C342 1.429 . S
C334 C332 1.419 . S
C334 C335 1.363 . S
C334 H337 0.929 . S
C335 C334 1.363 . S
C335 C341 1.428 . S
H336 C332 0.930 . S
H337 C334 0.929 . S
S338 N339 1.613 . S
S338 N340 1.610 . S
N339 S338 1.613 . S
N339 C342 1.350 . S
N340 S338 1.610 . S
N340 C341 1.351 . S
C341 C335 1.428 . S
C341 N340 1.351 . S
C341 C342 1.434 . S
C342 C333 1.429 . S
C342 N339 1.350 . S
C342 C341 1.434 . S
C343 C344 1.369 . S
C343 C345 1.419 . S
C343 H347 0.930 1_554 S
C344 C343 1.369 . S
C344 C353 1.429 . S
C345 C343 1.419 . S
C345 C346 1.363 . S
C345 H348 0.929 . S
C346 C345 1.363 . S
C346 C352 1.428 . S
H347 C343 0.930 1_556 S
H348 C345 0.929 . S
S349 N350 1.613 . S
S349 N351 1.610 . S
N350 S349 1.613 . S
N350 C353 1.350 . S
N351 S349 1.610 . S
N351 C352 1.351 . S
C352 C346 1.428 . S
C352 N351 1.351 . S
C352 C353 1.434 . S
C353 C344 1.429 . S
C353 N350 1.350 . S
C353 C352 1.434 . S
C354 C355 1.369 . S
C354 C356 1.419 . S
C354 H358 0.930 . S
C355 C354 1.369 . S
C355 C364 1.429 . S
C356 C354 1.419 . S
C356 C357 1.363 . S
C356 H359 0.929 . S
C357 C356 1.363 . S
C357 C363 1.428 . S
H358 C354 0.930 . S
H359 C356 0.929 . S
S360 N361 1.613 . S
S360 N362 1.610 . S
N361 S360 1.613 . S
N361 C364 1.350 . S
N362 S360 1.610 . S
N362 C363 1.351 . S
C363 C357 1.428 . S
C363 N362 1.351 . S
C363 C364 1.434 . S
C364 C355 1.429 . S
C364 N361 1.350 . S
C364 C363 1.434 . S
C365 C366 1.369 . S
C365 C367 1.419 . S
C365 H369 0.930 . S
C366 C365 1.369 . S
C366 C375 1.429 . S
C367 C365 1.419 . S
C367 C368 1.363 . S
C367 H370 0.929 . S
C368 C367 1.363 . S
C368 C374 1.428 . S
H369 C365 0.930 . S
H370 C367 0.929 . S
S371 N372 1.613 . S
S371 N373 1.610 . S
N372 S371 1.613 . S
N372 C375 1.350 . S
N373 S371 1.610 . S
N373 C374 1.351 . S
C374 C368 1.428 . S
C374 N373 1.351 . S
C374 C375 1.434 . S
C375 C366 1.429 . S
C375 N372 1.350 . S
C375 C374 1.434 . S
C376 C377 1.369 . S
C376 C378 1.419 . S
C376 H380 0.930 . S
C377 C376 1.369 . S
C377 C386 1.429 . S
C378 C376 1.419 . S
C378 C379 1.363 . S
C378 H381 0.929 . S
C379 C378 1.363 . S
C379 C385 1.428 . S
H380 C376 0.930 . S
H381 C378 0.929 . S
S382 N383 1.613 . S
S382 N384 1.610 . S
N383 S382 1.613 . S
N383 C386 1.350 . S
N384 S382 1.610 . S
N384 C385 1.351 . S
C385 C379 1.428 . S
C385 N384 1.351 . S
C385 C386 1.434 . S
C386 C377 1.429 . S
C386 N383 1.350 . S
C386 C385 1.434 . S
C387 C388 1.369 . S
C387 C389 1.419 . S
C387 H391 0.930 . S
C388 C387 1.369 . S
C388 C397 1.429 . S
C389 C387 1.419 . S
C389 C390 1.363 . S
C389 H392 0.929 . S
C390 C389 1.363 . S
C390 C396 1.428 . S
H391 C387 0.930 . S
H392 C389 0.929 . S
S393 N394 1.613 . S
S393 N395 1.610 . S
N394 S393 1.613 . S
N394 C397 1.350 . S
N395 S393 1.610 . S
N395 C396 1.351 . S
C396 C390 1.428 . S
C396 N395 1.351 . S
C396 C397 1.434 . S
C397 C388 1.429 . S
C397 N394 1.350 . S
C397 C396 1.434 . S
C398 C399 1.369 . S
C398 C400 1.419 . S
C398 H402 0.930 . S
C399 C398 1.369 . S
C399 C408 1.429 . S
C400 C398 1.419 . S
C400 C401 1.363 . S
C400 H403 0.929 . S
C401 C400 1.363 . S
C401 C407 1.428 . S
H402 C398 0.930 . S
H403 C400 0.929 . S
S404 N405 1.613 . S
S404 N406 1.610 . S
N405 S404 1.613 . S
N405 C408 1.350 . S
N406 S404 1.610 . S
N406 C407 1.351 . S
C407 C401 1.428 . S
C407 N406 1.351 . S
C407 C408 1.434 . S
C408 C399 1.429 . S
C408 N405 1.350 . S
C408 C407 1.434 . S
C409 C410 1.369 . S
C409 C411 1.419 . S
C409 H413 0.930 . S
C410 C409 1.369 . S
C410 C419 1.429 . S
C411 C409 1.419 . S
C411 C412 1.363 . S
C411 H414 0.929 . S
C412 C411 1.363 . S
C412 C418 1.428 . S
H413 C409 0.930 . S
H414 C411 0.929 . S
S415 N416 1.613 . S
S415 N417 1.610 . S
N416 S415 1.613 . S
N416 C419 1.350 . S
N417 S415 1.610 . S
N417 C418 1.351 . S
C418 C412 1.428 . S
C418 N417 1.351 . S
C418 C419 1.434 . S
C419 C410 1.429 . S
C419 N416 1.350 . S
C419 C418 1.434 . S
C420 C421 1.369 . S
C420 C422 1.419 . S
C420 H424 0.930 . S
C421 C420 1.369 . S
C421 C430 1.429 . S
C422 C420 1.419 . S
C422 C423 1.363 . S
C422 H425 0.929 . S
C423 C422 1.363 . S
C423 C429 1.428 . S
H424 C420 0.930 . S
H425 C422 0.929 . S
S426 N427 1.613 . S
S426 N428 1.610 . S
N427 S426 1.613 . S
N427 C430 1.350 . S
N428 S426 1.610 . S
N428 C429 1.351 . S
C429 C423 1.428 . S
C429 N428 1.351 . S
C429 C430 1.434 . S
C430 C421 1.429 . S
C430 N427 1.350 . S
C430 C429 1.434 . S
C431 C432 1.369 . S
C431 C433 1.419 . S
C431 H435 0.930 . S
C432 C431 1.369 . S
C432 C441 1.429 . S
C433 C431 1.419 . S
C433 C434 1.363 . S
C433 H436 0.929 . S
C434 C433 1.363 . S
C434 C440 1.428 . S
H435 C431 0.930 . S
H436 C433 0.929 . S
S437 N438 1.613 . S
S437 N439 1.610 . S
N438 S437 1.613 . S
N438 C441 1.350 . S
N439 S437 1.610 . S
N439 C440 1.351 . S
C440 C434 1.428 . S
C440 N439 1.351 . S
C440 C441 1.434 . S
C441 C432 1.429 . S
C441 N438 1.350 . S
C441 C440 1.434 . S
C442 C443 1.369 . S
C442 C444 1.419 . S
C442 H446 0.930 . S
C443 C442 1.369 . S
C443 C452 1.429 . S
C444 C442 1.419 . S
C444 C445 1.363 . S
C444 H447 0.929 . S
C445 C444 1.363 . S
C445 C451 1.428 . S
H446 C442 0.930 . S
H447 C444 0.929 . S
S448 N449 1.613 . S
S448 N450 1.610 . S
N449 S448 1.613 . S
N449 C452 1.350 . S
N450 S448 1.610 . S
N450 C451 1.351 . S
C451 C445 1.428 . S
C451 N450 1.351 . S
C451 C452 1.434 . S
C452 C443 1.429 . S
C452 N449 1.350 . S
C452 C451 1.434 . S
C453 C454 1.369 . S
C453 C455 1.419 . S
C453 H457 0.930 . S
C454 C453 1.369 . S
C454 C463 1.429 . S
C455 C453 1.419 . S
C455 C456 1.363 . S
C455 H458 0.929 . S
C456 C455 1.363 . S
C456 C462 1.428 . S
H457 C453 0.930 . S
H458 C455 0.929 . S
S459 N460 1.613 . S
S459 N461 1.610 . S
N460 S459 1.613 . S
N460 C463 1.350 . S
N461 S459 1.610 . S
N461 C462 1.351 . S
C462 C456 1.428 . S
C462 N461 1.351 . S
C462 C463 1.434 . S
C463 C454 1.429 . S
C463 N460 1.350 . S
C463 C462 1.434 . S
C464 C465 1.369 . S
C464 C466 1.419 . S
C464 H468 0.930 . S
C465 C464 1.369 . S
C465 C474 1.429 . S
C466 C464 1.419 . S
C466 C467 1.363 . S
C466 H469 0.929 . S
C467 C466 1.363 . S
C467 C473 1.428 . S
H468 C464 0.930 . S
H469 C466 0.929 . S
S470 N471 1.613 . S
S470 N472 1.610 . S
N471 S470 1.613 . S
N471 C474 1.350 . S
N472 S470 1.610 . S
N472 C473 1.351 . S
C473 C467 1.428 . S
C473 N472 1.351 . S
C473 C474 1.434 . S
C474 C465 1.429 . S
C474 N471 1.350 . S
C474 C473 1.434 . S
C475 C476 1.369 . S
C475 C477 1.419 . S
C475 H479 0.930 . S
C476 C475 1.369 . S
C476 C485 1.429 . S
C477 C475 1.419 . S
C477 C478 1.363 . S
C477 H480 0.929 . S
C478 C477 1.363 . S
C478 C484 1.428 . S
H479 C475 0.930 . S
H480 C477 0.929 . S
S481 N482 1.613 . S
S481 N483 1.610 . S
N482 S481 1.613 . S
N482 C485 1.350 . S
N483 S481 1.610 . S
N483 C484 1.351 . S
C484 C478 1.428 . S
C484 N483 1.351 . S
C484 C485 1.434 . S
C485 C476 1.429 . S
C485 N482 1.350 . S
C485 C484 1.434 . S
C486 C487 1.369 . S
C486 C488 1.419 . S
C486 H490 0.930 1_554 S
C487 C486 1.369 . S
C487 C496 1.429 . S
C488 C486 1.419 . S
C488 C489 1.363 . S
C488 H491 0.929 . S
C489 C488 1.363 . S
C489 C495 1.428 . S
H490 C486 0.930 1_556 S
H491 C488 0.929 . S
S492 N493 1.613 . S
S492 N494 1.610 . S
N493 S492 1.613 . S
N493 C496 1.350 . S
N494 S492 1.610 . S
N494 C495 1.351 . S
C495 C489 1.428 . S
C495 N494 1.351 . S
C495 C496 1.434 . S
C496 C487 1.429 . S
C496 N493 1.350 . S
C496 C495 1.434 . S
C497 C498 1.369 . S
C497 C499 1.419 . S
C497 H501 0.930 . S
C498 C497 1.369 . S
C498 C507 1.429 . S
C499 C497 1.419 . S
C499 C500 1.363 . S
C499 H502 0.929 . S
C500 C499 1.363 . S
C500 C506 1.428 . S
H501 C497 0.930 . S
H502 C499 0.929 . S
S503 N504 1.613 . S
S503 N505 1.610 1_545 S
N504 S503 1.613 . S
N504 C507 1.350 1_556 S
N505 S503 1.610 1_565 S
N505 C506 1.351 1_566 S
C506 C500 1.428 . S
C506 N505 1.351 1_544 S
C506 C507 1.434 . S
C507 C498 1.429 . S
C507 N504 1.350 1_554 S
C507 C506 1.434 . S
C508 C509 1.369 . S
C508 C510 1.419 . S
C508 H512 0.930 . S
C509 C508 1.369 . S
C509 C518 1.429 . S
C510 C508 1.419 . S
C510 C511 1.363 . S
C510 H513 0.929 . S
C511 C510 1.363 . S
C511 C517 1.428 . S
H512 C508 0.930 . S
H513 C510 0.929 . S
S514 N515 1.613 . S
S514 N516 1.610 1_655 S
N515 S514 1.613 . S
N515 C518 1.350 . S
N516 S514 1.610 1_455 S
N516 C517 1.351 1_455 S
C517 C511 1.428 . S
C517 N516 1.351 1_655 S
C517 C518 1.434 . S
C518 C509 1.429 . S
C518 N515 1.350 . S
C518 C517 1.434 . S
C519 C520 1.369 . S
C519 C521 1.419 . S
C519 H523 0.930 . S
C520 C519 1.369 . S
C520 C529 1.429 . S
C521 C519 1.419 . S
C521 C522 1.363 . S
C521 H524 0.929 . S
C522 C521 1.363 . S
C522 C528 1.428 . S
H523 C519 0.930 . S
H524 C521 0.929 . S
S525 N526 1.613 . S
S525 N527 1.610 . S
N526 S525 1.613 . S
N526 C529 1.350 . S
N527 S525 1.610 . S
N527 C528 1.351 . S
C528 C522 1.428 . S
C528 N527 1.351 . S
C528 C529 1.434 . S
C529 C520 1.429 . S
C529 N526 1.350 . S
C529 C528 1.434 . S
C530 C531 1.369 . S
C530 C532 1.419 . S
C530 H534 0.930 . S
C531 C530 1.369 . S
C531 C540 1.429 . S
C532 C530 1.419 . S
C532 C533 1.363 . S
C532 H535 0.929 . S
C533 C532 1.363 . S
C533 C539 1.428 . S
H534 C530 0.930 . S
H535 C532 0.929 . S
S536 N537 1.613 . S
S536 N538 1.610 . S
N537 S536 1.613 . S
N537 C540 1.350 . S
N538 S536 1.610 . S
N538 C539 1.351 . S
C539 C533 1.428 . S
C539 N538 1.351 . S
C539 C540 1.434 . S
C540 C531 1.429 . S
C540 N537 1.350 . S
C540 C539 1.434 . S
C541 C542 1.369 . S
C541 C543 1.419 . S
C541 H545 0.930 . S
C542 C541 1.369 . S
C542 C551 1.429 . S
C543 C541 1.419 . S
C543 C544 1.363 . S
C543 H546 0.929 . S
C544 C543 1.363 . S
C544 C550 1.428 . S
H545 C541 0.930 . S
H546 C543 0.929 . S
S547 N548 1.613 . S
S547 N549 1.610 . S
N548 S547 1.613 . S
N548 C551 1.350 . S
N549 S547 1.610 . S
N549 C550 1.351 . S
C550 C544 1.428 . S
C550 N549 1.351 . S
C550 C551 1.434 . S
C551 C542 1.429 . S
C551 N548 1.350 . S
C551 C550 1.434 . S
C552 C553 1.369 . S
C552 C554 1.419 . S
C552 H556 0.930 . S
C553 C552 1.369 . S
C553 C562 1.429 . S
C554 C552 1.419 . S
C554 C555 1.363 . S
C554 H557 0.929 . S
C555 C554 1.363 . S
C555 C561 1.428 . S
H556 C552 0.930 . S
H557 C554 0.929 . S
S558 N559 1.613 . S
S558 N560 1.610 . S
N559 S558 1.613 . S
N559 C562 1.350 . S
N560 S558 1.610 . S
N560 C561 1.351 . S
C561 C555 1.428 . S
C561 N560 1.351 . S
C561 C562 1.434 . S
C562 C553 1.429 . S
C562 N559 1.350 . S
C562 C561 1.434 . S
C563 C564 1.369 . S
C563 C565 1.419 . S
C563 H567 0.930 . S
C564 C563 1.369 . S
C564 C573 1.429 . S
C565 C563 1.419 . S
C565 C566 1.363 . S
C565 H568 0.929 . S
C566 C565 1.363 . S
C566 C572 1.428 . S
H567 C563 0.930 . S
H568 C565 0.929 . S
S569 N570 1.613 . S
S569 N571 1.610 . S
N570 S569 1.613 . S
N570 C573 1.350 . S
N571 S569 1.610 . S
N571 C572 1.351 . S
C572 C566 1.428 . S
C572 N571 1.351 . S
C572 C573 1.434 . S
C573 C564 1.429 . S
C573 N570 1.350 . S
C573 C572 1.434 . S
C574 C575 1.369 . S
C574 C576 1.419 . S
C574 H578 0.930 . S
C575 C574 1.369 . S
C575 C584 1.429 . S
C576 C574 1.419 . S
C576 C577 1.363 . S
C576 H579 0.929 . S
C577 C576 1.363 . S
C577 C583 1.428 . S
H578 C574 0.930 . S
H579 C576 0.929 . S
S580 N581 1.613 . S
S580 N582 1.610 . S
N581 S580 1.613 . S
N581 C584 1.350 . S
N582 S580 1.610 . S
N582 C583 1.351 . S
C583 C577 1.428 . S
C583 N582 1.351 . S
C583 C584 1.434 . S
C584 C575 1.429 . S
C584 N581 1.350 . S
C584 C583 1.434 . S
C585 C586 1.369 . S
C585 C587 1.419 . S
C585 H589 0.930 . S
C586 C585 1.369 . S
C586 C595 1.429 . S
C587 C585 1.419 . S
C587 C588 1.363 . S
C587 H590 0.929 . S
C588 C587 1.363 . S
C588 C594 1.428 . S
H589 C585 0.930 . S
H590 C587 0.929 . S
S591 N592 1.613 . S
S591 N593 1.610 . S
N592 S591 1.613 . S
N592 C595 1.350 . S
N593 S591 1.610 . S
N593 C594 1.351 . S
C594 C588 1.428 . S
C594 N593 1.351 . S
C594 C595 1.434 . S
C595 C586 1.429 . S
C595 N592 1.350 . S
C595 C594 1.434 . S
C596 C597 1.369 . S
C596 C598 1.419 . S
C596 H600 0.930 . S
C597 C596 1.369 . S
C597 C606 1.429 . S
C598 C596 1.419 . S
C598 C599 1.363 . S
C598 H601 0.929 . S
C599 C598 1.363 . S
C599 C605 1.428 . S
H600 C596 0.930 . S
H601 C598 0.929 . S
S602 N603 1.613 . S
S602 N604 1.610 . S
N603 S602 1.613 . S
N603 C606 1.350 . S
N604 S602 1.610 . S
N604 C605 1.351 . S
C605 C599 1.428 . S
C605 N604 1.351 . S
C605 C606 1.434 . S
C606 C597 1.429 . S
C606 N603 1.350 . S
C606 C605 1.434 . S
C607 C608 1.369 . S
C607 C609 1.419 . S
C607 H611 0.930 . S
C608 C607 1.369 . S
C608 C617 1.429 . S
C609 C607 1.419 . S
C609 C610 1.363 . S
C609 H612 0.929 . S
C610 C609 1.363 . S
C610 C616 1.428 . S
H611 C607 0.930 . S
H612 C609 0.929 . S
S613 N614 1.613 . S
S613 N615 1.610 . S
N614 S613 1.613 . S
N614 C617 1.350 . S
N615 S613 1.610 . S
N615 C616 1.351 . S
C616 C610 1.428 . S
C616 N615 1.351 . S
C616 C617 1.434 . S
C617 C608 1.429 . S
C617 N614 1.350 . S
C617 C616 1.434 . S
C618 C619 1.369 . S
C618 C620 1.419 . S
C618 H622 0.930 . S
C619 C618 1.369 . S
C619 C628 1.429 . S
C620 C618 1.419 . S
C620 C621 1.363 . S
C620 H623 0.929 . S
C621 C620 1.363 . S
C621 C627 1.428 . S
H622 C618 0.930 . S
H623 C620 0.929 . S
S624 N625 1.613 . S
S624 N626 1.610 1_556 S
N625 S624 1.613 . S
N625 C628 1.350 . S
N626 S624 1.610 1_554 S
N626 C627 1.351 1_554 S
C627 C621 1.428 . S
C627 N626 1.351 1_556 S
C627 C628 1.434 . S
C628 C619 1.429 . S
C628 N625 1.350 . S
C628 C627 1.434 . S
C629 C630 1.369 . S
C629 C631 1.419 . S
C629 H633 0.930 . S
C630 C629 1.369 . S
C630 C639 1.429 . S
C631 C629 1.419 . S
C631 C632 1.363 . S
C631 H634 0.929 . S
C632 C631 1.363 . S
C632 C638 1.428 . S
H633 C629 0.930 . S
H634 C631 0.929 . S
S635 N636 1.613 . S
S635 N637 1.610 . S
N636 S635 1.613 . S
N636 C639 1.350 . S
N637 S635 1.610 . S
N637 C638 1.351 . S
C638 C632 1.428 . S
C638 N637 1.351 . S
C638 C639 1.434 . S
C639 C630 1.429 . S
C639 N636 1.350 . S
C639 C638 1.434 . S
C640 C641 1.369 . S
C640 C642 1.419 . S
C640 H644 0.930 . S
C641 C640 1.369 . S
C641 C650 1.429 . S
C642 C640 1.419 . S
C642 C643 1.363 . S
C642 H645 0.929 . S
C643 C642 1.363 . S
C643 C649 1.428 . S
H644 C640 0.930 . S
H645 C642 0.929 . S
S646 N647 1.613 . S
S646 N648 1.610 . S
N647 S646 1.613 . S
N647 C650 1.350 . S
N648 S646 1.610 . S
N648 C649 1.351 . S
C649 C643 1.428 . S
C649 N648 1.351 . S
C649 C650 1.434 . S
C650 C641 1.429 . S
C650 N647 1.350 . S
C650 C649 1.434 . S
C651 C652 1.369 . S
C651 C653 1.419 . S
C651 H655 0.930 . S
C652 C651 1.369 . S
C652 C661 1.429 . S
C653 C651 1.419 . S
C653 C654 1.363 . S
C653 H656 0.929 . S
C654 C653 1.363 . S
C654 C660 1.428 . S
H655 C651 0.930 . S
H656 C653 0.929 . S
S657 N658 1.613 . S
S657 N659 1.610 . S
N658 S657 1.613 . S
N658 C661 1.350 . S
N659 S657 1.610 . S
N659 C660 1.351 . S
C660 C654 1.428 . S
C660 N659 1.351 . S
C660 C661 1.434 . S
C661 C652 1.429 . S
C661 N658 1.350 . S
C661 C660 1.434 . S
C662 C663 1.369 . S
C662 C664 1.419 . S
C662 H666 0.930 . S
C663 C662 1.369 . S
C663 C672 1.429 . S
C664 C662 1.419 . S
C664 C665 1.363 . S
C664 H667 0.929 . S
C665 C664 1.363 . S
C665 C671 1.428 . S
H666 C662 0.930 . S
H667 C664 0.929 . S
S668 N669 1.613 . S
S668 N670 1.611 . S
N669 S668 1.613 . S
N669 C672 1.350 . S
N670 S668 1.611 . S
N670 C671 1.352 . S
C671 C665 1.428 . S
C671 N670 1.352 . S
C671 C672 1.434 . S
C672 C663 1.429 . S
C672 N669 1.350 . S
C672 C671 1.434 . S
C673 C674 1.369 . S
C673 C675 1.419 . S
C673 H677 0.930 . S
C674 C673 1.369 . S
C674 C683 1.429 . S
C675 C673 1.419 . S
C675 C676 1.363 . S
C675 H678 0.929 . S
C676 C675 1.363 . S
C676 C682 1.428 . S
H677 C673 0.930 . S
H678 C675 0.929 . S
S679 N680 1.613 . S
S679 N681 1.610 . S
N680 S679 1.613 . S
N680 C683 1.350 . S
N681 S679 1.610 . S
N681 C682 1.351 . S
C682 C676 1.428 . S
C682 N681 1.351 . S
C682 C683 1.434 . S
C683 C674 1.429 . S
C683 N680 1.350 . S
C683 C682 1.434 . S
C289 C17 1.653 1_554 S
C291 C150 1.632 . S
C300 C182 1.638 . S
C302 C49 1.652 1_554 S
C311 C81 1.658 1_554 S
C313 C118 1.634 . S
C322 C53 2.194 . S
C324 C112 2.251 . S
C333 C85 2.192 1_545 S
C335 C144 2.252 . S
C344 C21 2.192 1_655 S
C346 C176 2.252 . S
C355 C113 1.652 . S
C357 C246 1.637 . S
C366 C278 1.629 . S
C368 C145 1.658 . S
C377 C214 1.637 . S
C379 C177 1.651 . S
C388 C149 2.193 . S
C390 C208 2.252 1_545 S
C399 C240 2.251 1_655 S
C401 C181 2.192 . S
C410 C272 2.251 . S
C412 C117 2.194 . S
C421 C209 1.654 . S
C423 C54 1.636 . S
C432 C241 1.654 . S
C434 C86 1.631 . S
C443 C22 1.629 . S
C445 C273 1.658 . S
C454 C16 2.252 . S
C456 C245 2.192 . S
C465 C48 2.251 . S
C467 C277 2.195 . S
C476 C213 2.195 . S
C478 C80 2.251 . S
C487 C82 1.473 . S
C489 C20 1.498 . S
C498 C18 1.471 . S
C500 C52 1.494 1_545 S
C509 C50 1.468 . S
C511 C84 1.496 1_655 S
C520 C178 1.476 . S
C522 C116 1.495 . S
C531 C114 1.470 . S
C533 C148 1.498 . S
C542 C146 1.467 . S
C544 C180 1.497 . S
C553 C212 1.495 . S
C555 C274 1.476 . S
C564 C244 1.493 . S
C566 C210 1.475 . S
C575 C276 1.496 . S
C577 C242 1.475 . S
C586 C19 1.321 . S
C588 C23 1.314 . S
C597 C55 1.320 . S
C599 C51 1.315 . S
C608 C83 1.318 . S
C610 C87 1.316 . S
C619 C119 1.318 . S
C621 C115 1.316 1_556 S
C630 C147 1.321 1_556 S
C632 C151 1.314 . S
C641 C183 1.321 . S
C643 C179 1.314 1_556 S
C652 C211 1.315 . S
C654 C215 1.319 1_554 S
C663 C243 1.319 . S
C665 C247 1.316 1_554 S
C674 C275 1.321 . S
C676 C279 1.314 1_554 S
