# Generated by pormake.
# Topology uky, (4)-cn, num edge types: 1
# Building blocks:
#     Node 0, Type 0, BuildingBlock: CEKHIL_clean_sbu_0, # of connection points: 4
#     Node 1, Type 0, BuildingBlock: CEKHIL_clean_sbu_0, # of connection points: 4
#     Node 2, Type 0, BuildingBlock: CEKHIL_clean_sbu_0, # of connection points: 4
#     Node 3, Type 0, BuildingBlock: CEKHIL_clean_sbu_0, # of connection points: 4
#     Node 4, Type 0, BuildingBlock: CEKHIL_clean_sbu_0, # of connection points: 4
#     Node 5, Type 0, BuildingBlock: CEKHIL_clean_sbu_0, # of connection points: 4
#     Node 6, Type 0, BuildingBlock: CEKHIL_clean_sbu_0, # of connection points: 4
#     Node 7, Type 0, BuildingBlock: CEKHIL_clean_sbu_0, # of connection points: 4
#     Node 8, Type 0, BuildingBlock: CEKHIL_clean_sbu_0, # of connection points: 4
#     Node 9, Type 0, BuildingBlock: CEKHIL_clean_sbu_0, # of connection points: 4
#     Node 10, Type 0, BuildingBlock: CEKHIL_clean_sbu_0, # of connection points: 4
#     Node 11, Type 0, BuildingBlock: CEKHIL_clean_sbu_0, # of connection points: 4
#     Node 12, Type 0, BuildingBlock: CEKHIL_clean_sbu_0, # of connection points: 4
#     Node 13, Type 0, BuildingBlock: CEKHIL_clean_sbu_0, # of connection points: 4
#     Node 14, Type 0, BuildingBlock: CEKHIL_clean_sbu_0, # of connection points: 4
#     Node 15, Type 0, BuildingBlock: CEKHIL_clean_sbu_0, # of connection points: 4
#     Node 16, Type 0, BuildingBlock: CEKHIL_clean_sbu_0, # of connection points: 4
#     Node 17, Type 0, BuildingBlock: CEKHIL_clean_sbu_0, # of connection points: 4
#     Node 18, Type 0, BuildingBlock: CEKHIL_clean_sbu_0, # of connection points: 4
#     Node 19, Type 0, BuildingBlock: CEKHIL_clean_sbu_0, # of connection points: 4
#     Node 20, Type 0, BuildingBlock: CEKHIL_clean_sbu_0, # of connection points: 4
#     Node 21, Type 0, BuildingBlock: CEKHIL_clean_sbu_0, # of connection points: 4
#     Node 22, Type 0, BuildingBlock: CEKHIL_clean_sbu_0, # of connection points: 4
#     Node 23, Type 0, BuildingBlock: CEKHIL_clean_sbu_0, # of connection points: 4
#     Node 24, Type 0, BuildingBlock: CEKHIL_clean_sbu_0, # of connection points: 4
#     Node 25, Type 0, BuildingBlock: CEKHIL_clean_sbu_0, # of connection points: 4
#     Node 26, Type 0, BuildingBlock: CEKHIL_clean_sbu_0, # of connection points: 4
#     Node 27, Type 0, BuildingBlock: CEKHIL_clean_sbu_0, # of connection points: 4
#     Node 28, Type 0, BuildingBlock: CEKHIL_clean_sbu_0, # of connection points: 4
#     Node 29, Type 0, BuildingBlock: CEKHIL_clean_sbu_0, # of connection points: 4
#     Node 30, Type 0, BuildingBlock: CEKHIL_clean_sbu_0, # of connection points: 4
#     Node 31, Type 0, BuildingBlock: CEKHIL_clean_sbu_0, # of connection points: 4
#     Node 32, Type 0, BuildingBlock: CEKHIL_clean_sbu_0, # of connection points: 4
#     Node 33, Type 0, BuildingBlock: CEKHIL_clean_sbu_0, # of connection points: 4
#     Node 34, Type 0, BuildingBlock: CEKHIL_clean_sbu_0, # of connection points: 4
#     Node 35, Type 0, BuildingBlock: CEKHIL_clean_sbu_0, # of connection points: 4
#     Node 36, Type 0, BuildingBlock: CEKHIL_clean_sbu_0, # of connection points: 4
#     Node 37, Type 0, BuildingBlock: CEKHIL_clean_sbu_0, # of connection points: 4
#     Node 38, Type 0, BuildingBlock: CEKHIL_clean_sbu_0, # of connection points: 4
#     Node 39, Type 0, BuildingBlock: CEKHIL_clean_sbu_0, # of connection points: 4
#     Node 40, Type 0, BuildingBlock: CEKHIL_clean_sbu_0, # of connection points: 4
#     Node 41, Type 0, BuildingBlock: CEKHIL_clean_sbu_0, # of connection points: 4
#     Node 42, Type 0, BuildingBlock: CEKHIL_clean_sbu_0, # of connection points: 4
#     Node 43, Type 0, BuildingBlock: CEKHIL_clean_sbu_0, # of connection points: 4
#     Node 44, Type 0, BuildingBlock: CEKHIL_clean_sbu_0, # of connection points: 4
#     Node 45, Type 0, BuildingBlock: CEKHIL_clean_sbu_0, # of connection points: 4
#     Node 46, Type 0, BuildingBlock: CEKHIL_clean_sbu_0, # of connection points: 4
#     Node 47, Type 0, BuildingBlock: CEKHIL_clean_sbu_0, # of connection points: 4
#     Edge 48, Type (0, 0), BuildingBlock: OJICUG_clean_linker_0, # of connection points: 2
#     Edge 49, Type (0, 0), BuildingBlock: OJICUG_clean_linker_0, # of connection points: 2
#     Edge 50, Type (0, 0), BuildingBlock: OJICUG_clean_linker_0, # of connection points: 2
#     Edge 51, Type (0, 0), BuildingBlock: OJICUG_clean_linker_0, # of connection points: 2
#     Edge 52, Type (0, 0), BuildingBlock: OJICUG_clean_linker_0, # of connection points: 2
#     Edge 53, Type (0, 0), BuildingBlock: OJICUG_clean_linker_0, # of connection points: 2
#     Edge 54, Type (0, 0), BuildingBlock: OJICUG_clean_linker_0, # of connection points: 2
#     Edge 55, Type (0, 0), BuildingBlock: OJICUG_clean_linker_0, # of connection points: 2
#     Edge 56, Type (0, 0), BuildingBlock: OJICUG_clean_linker_0, # of connection points: 2
#     Edge 57, Type (0, 0), BuildingBlock: OJICUG_clean_linker_0, # of connection points: 2
#     Edge 58, Type (0, 0), BuildingBlock: OJICUG_clean_linker_0, # of connection points: 2
#     Edge 59, Type (0, 0), BuildingBlock: OJICUG_clean_linker_0, # of connection points: 2
#     Edge 60, Type (0, 0), BuildingBlock: OJICUG_clean_linker_0, # of connection points: 2
#     Edge 61, Type (0, 0), BuildingBlock: OJICUG_clean_linker_0, # of connection points: 2
#     Edge 62, Type (0, 0), BuildingBlock: OJICUG_clean_linker_0, # of connection points: 2
#     Edge 63, Type (0, 0), BuildingBlock: OJICUG_clean_linker_0, # of connection points: 2
#     Edge 64, Type (0, 0), BuildingBlock: OJICUG_clean_linker_0, # of connection points: 2
#     Edge 65, Type (0, 0), BuildingBlock: OJICUG_clean_linker_0, # of connection points: 2
#     Edge 66, Type (0, 0), BuildingBlock: OJICUG_clean_linker_0, # of connection points: 2
#     Edge 67, Type (0, 0), BuildingBlock: OJICUG_clean_linker_0, # of connection points: 2
#     Edge 68, Type (0, 0), BuildingBlock: OJICUG_clean_linker_0, # of connection points: 2
#     Edge 69, Type (0, 0), BuildingBlock: OJICUG_clean_linker_0, # of connection points: 2
#     Edge 70, Type (0, 0), BuildingBlock: OJICUG_clean_linker_0, # of connection points: 2
#     Edge 71, Type (0, 0), BuildingBlock: OJICUG_clean_linker_0, # of connection points: 2
#     Edge 72, Type (0, 0), BuildingBlock: OJICUG_clean_linker_0, # of connection points: 2
#     Edge 73, Type (0, 0), BuildingBlock: OJICUG_clean_linker_0, # of connection points: 2
#     Edge 74, Type (0, 0), BuildingBlock: OJICUG_clean_linker_0, # of connection points: 2
#     Edge 75, Type (0, 0), BuildingBlock: OJICUG_clean_linker_0, # of connection points: 2
#     Edge 76, Type (0, 0), BuildingBlock: OJICUG_clean_linker_0, # of connection points: 2
#     Edge 77, Type (0, 0), BuildingBlock: OJICUG_clean_linker_0, # of connection points: 2
#     Edge 78, Type (0, 0), BuildingBlock: OJICUG_clean_linker_0, # of connection points: 2
#     Edge 79, Type (0, 0), BuildingBlock: OJICUG_clean_linker_0, # of connection points: 2
#     Edge 80, Type (0, 0), BuildingBlock: OJICUG_clean_linker_0, # of connection points: 2
#     Edge 81, Type (0, 0), BuildingBlock: OJICUG_clean_linker_0, # of connection points: 2
#     Edge 82, Type (0, 0), BuildingBlock: OJICUG_clean_linker_0, # of connection points: 2
#     Edge 83, Type (0, 0), BuildingBlock: OJICUG_clean_linker_0, # of connection points: 2
#     Edge 84, Type (0, 0), BuildingBlock: OJICUG_clean_linker_0, # of connection points: 2
#     Edge 85, Type (0, 0), BuildingBlock: OJICUG_clean_linker_0, # of connection points: 2
#     Edge 86, Type (0, 0), BuildingBlock: OJICUG_clean_linker_0, # of connection points: 2
#     Edge 87, Type (0, 0), BuildingBlock: OJICUG_clean_linker_0, # of connection points: 2
#     Edge 88, Type (0, 0), BuildingBlock: OJICUG_clean_linker_0, # of connection points: 2
#     Edge 89, Type (0, 0), BuildingBlock: OJICUG_clean_linker_0, # of connection points: 2
#     Edge 90, Type (0, 0), BuildingBlock: OJICUG_clean_linker_0, # of connection points: 2
#     Edge 91, Type (0, 0), BuildingBlock: OJICUG_clean_linker_0, # of connection points: 2
#     Edge 92, Type (0, 0), BuildingBlock: OJICUG_clean_linker_0, # of connection points: 2
#     Edge 93, Type (0, 0), BuildingBlock: OJICUG_clean_linker_0, # of connection points: 2
#     Edge 94, Type (0, 0), BuildingBlock: OJICUG_clean_linker_0, # of connection points: 2
#     Edge 95, Type (0, 0), BuildingBlock: OJICUG_clean_linker_0, # of connection points: 2
#     Edge 96, Type (0, 0), BuildingBlock: OJICUG_clean_linker_0, # of connection points: 2
#     Edge 97, Type (0, 0), BuildingBlock: OJICUG_clean_linker_0, # of connection points: 2
#     Edge 98, Type (0, 0), BuildingBlock: OJICUG_clean_linker_0, # of connection points: 2
#     Edge 99, Type (0, 0), BuildingBlock: OJICUG_clean_linker_0, # of connection points: 2
#     Edge 100, Type (0, 0), BuildingBlock: OJICUG_clean_linker_0, # of connection points: 2
#     Edge 101, Type (0, 0), BuildingBlock: OJICUG_clean_linker_0, # of connection points: 2
#     Edge 102, Type (0, 0), BuildingBlock: OJICUG_clean_linker_0, # of connection points: 2
#     Edge 103, Type (0, 0), BuildingBlock: OJICUG_clean_linker_0, # of connection points: 2
#     Edge 104, Type (0, 0), BuildingBlock: OJICUG_clean_linker_0, # of connection points: 2
#     Edge 105, Type (0, 0), BuildingBlock: OJICUG_clean_linker_0, # of connection points: 2
#     Edge 106, Type (0, 0), BuildingBlock: OJICUG_clean_linker_0, # of connection points: 2
#     Edge 107, Type (0, 0), BuildingBlock: OJICUG_clean_linker_0, # of connection points: 2
#     Edge 108, Type (0, 0), BuildingBlock: OJICUG_clean_linker_0, # of connection points: 2
#     Edge 109, Type (0, 0), BuildingBlock: OJICUG_clean_linker_0, # of connection points: 2
#     Edge 110, Type (0, 0), BuildingBlock: OJICUG_clean_linker_0, # of connection points: 2
#     Edge 111, Type (0, 0), BuildingBlock: OJICUG_clean_linker_0, # of connection points: 2
#     Edge 112, Type (0, 0), BuildingBlock: OJICUG_clean_linker_0, # of connection points: 2
#     Edge 113, Type (0, 0), BuildingBlock: OJICUG_clean_linker_0, # of connection points: 2
#     Edge 114, Type (0, 0), BuildingBlock: OJICUG_clean_linker_0, # of connection points: 2
#     Edge 115, Type (0, 0), BuildingBlock: OJICUG_clean_linker_0, # of connection points: 2
#     Edge 116, Type (0, 0), BuildingBlock: OJICUG_clean_linker_0, # of connection points: 2
#     Edge 117, Type (0, 0), BuildingBlock: OJICUG_clean_linker_0, # of connection points: 2
#     Edge 118, Type (0, 0), BuildingBlock: OJICUG_clean_linker_0, # of connection points: 2
#     Edge 119, Type (0, 0), BuildingBlock: OJICUG_clean_linker_0, # of connection points: 2
#     Edge 120, Type (0, 0), BuildingBlock: OJICUG_clean_linker_0, # of connection points: 2
#     Edge 121, Type (0, 0), BuildingBlock: OJICUG_clean_linker_0, # of connection points: 2
#     Edge 122, Type (0, 0), BuildingBlock: OJICUG_clean_linker_0, # of connection points: 2
#     Edge 123, Type (0, 0), BuildingBlock: OJICUG_clean_linker_0, # of connection points: 2
#     Edge 124, Type (0, 0), BuildingBlock: OJICUG_clean_linker_0, # of connection points: 2
#     Edge 125, Type (0, 0), BuildingBlock: OJICUG_clean_linker_0, # of connection points: 2
#     Edge 126, Type (0, 0), BuildingBlock: OJICUG_clean_linker_0, # of connection points: 2
#     Edge 127, Type (0, 0), BuildingBlock: OJICUG_clean_linker_0, # of connection points: 2
#     Edge 128, Type (0, 0), BuildingBlock: OJICUG_clean_linker_0, # of connection points: 2
#     Edge 129, Type (0, 0), BuildingBlock: OJICUG_clean_linker_0, # of connection points: 2
#     Edge 130, Type (0, 0), BuildingBlock: OJICUG_clean_linker_0, # of connection points: 2
#     Edge 131, Type (0, 0), BuildingBlock: OJICUG_clean_linker_0, # of connection points: 2
#     Edge 132, Type (0, 0), BuildingBlock: OJICUG_clean_linker_0, # of connection points: 2
#     Edge 133, Type (0, 0), BuildingBlock: OJICUG_clean_linker_0, # of connection points: 2
#     Edge 134, Type (0, 0), BuildingBlock: OJICUG_clean_linker_0, # of connection points: 2
#     Edge 135, Type (0, 0), BuildingBlock: OJICUG_clean_linker_0, # of connection points: 2
#     Edge 136, Type (0, 0), BuildingBlock: OJICUG_clean_linker_0, # of connection points: 2
#     Edge 137, Type (0, 0), BuildingBlock: OJICUG_clean_linker_0, # of connection points: 2
#     Edge 138, Type (0, 0), BuildingBlock: OJICUG_clean_linker_0, # of connection points: 2
#     Edge 139, Type (0, 0), BuildingBlock: OJICUG_clean_linker_0, # of connection points: 2
#     Edge 140, Type (0, 0), BuildingBlock: OJICUG_clean_linker_0, # of connection points: 2
#     Edge 141, Type (0, 0), BuildingBlock: OJICUG_clean_linker_0, # of connection points: 2
#     Edge 142, Type (0, 0), BuildingBlock: OJICUG_clean_linker_0, # of connection points: 2
#     Edge 143, Type (0, 0), BuildingBlock: OJICUG_clean_linker_0, # of connection points: 2
# Relax obj value: 0.315
# Max RMSD: 0.251
# Mean RMSD: 0.251
data_MOF--net-uky--node1-CEKHIL_clean_sbu_0--edge1-OJICUG_clean_linker_0
_symmetry_space_group_name_H-M    P1
_symmetry_Int_Tables_number       1
_symmetry_cell_setting            triclinic
loop_
_symmetry_equiv_pos_as_xyz
'x, y, z'
_cell_length_a     44.153806
_cell_length_b     44.109366
_cell_length_c     44.144071
_cell_angle_alpha  89.989108
_cell_angle_beta   89.942056
_cell_angle_gamma 89.963853
loop_
_atom_site_label
_atom_site_type_symbol
_atom_site_fract_x
_atom_site_fract_y
_atom_site_fract_z
_atom_type_partial_charge
Co0 Co 0.21275 0.2515 0.39514 0.0
O1 O 0.18448 0.25091 0.42839 0.0
O2 O 0.19364 0.21251 0.39719 0.0
C3 C 0.1999 0.29727 0.37672 0.0
O4 O 0.23866 0.24305 0.35807 0.0
Co5 Co 0.26365 0.29929 0.3874 0.0
O6 O 0.26327 0.28542 0.3446 0.0
C7 C 0.26723 0.2527 0.43576 0.0
C8 C 0.1794 0.22287 0.42079 0.0
C9 C 0.25342 0.25897 0.33869 0.0
O10 O 0.2455 0.23763 0.42357 0.0
O11 O 0.27628 0.27841 0.4257 0.0
O12 O 0.18397 0.27356 0.36929 0.0
O13 O 0.22112 0.29267 0.39613 0.0
Co14 Co 0.98568 0.98777 0.6834 0.0
O15 O 0.98518 0.95133 0.70768 0.0
O16 O 0.02634 0.97687 0.6944 0.0
C17 C 0.95427 0.97241 0.64627 0.0
O18 O -0.00386 0.02438 0.65748 0.0
Co19 Co 0.92792 0.02683 0.67322 0.0
O20 O 0.95357 0.04865 0.64354 0.0
C21 C 0.9588 0.02881 0.73201 0.0
C22 C 0.01456 0.95349 0.70786 0.0
C23 C 0.98213 0.04478 0.64211 0.0
O24 O 0.9812 0.01369 0.72092 0.0
O25 O 0.93427 0.03383 0.71745 0.0
O26 O 0.9824 0.96376 0.6465 0.0
O27 O 0.94526 0.98655 0.67031 0.0
Co28 Co 0.29296 0.7343 0.88898 0.0
O29 O 0.33175 0.73059 0.90872 0.0
O30 O 0.30614 0.77354 0.90268 0.0
C31 C 0.30194 0.70657 0.84708 0.0
O32 O 0.25331 0.74734 0.8696 0.0
Co33 Co 0.25253 0.67713 0.88099 0.0
O34 O 0.2253 0.70585 0.85969 0.0
C35 C 0.25812 0.70428 0.94097 0.0
C36 C 0.32994 0.75969 0.91303 0.0
C37 C 0.22953 0.73444 0.85884 0.0
O38 O 0.27192 0.72698 0.92893 0.0
O39 O 0.25114 0.68035 0.92621 0.0
O40 O 0.31176 0.73428 0.84898 0.0
O41 O 0.2915 0.69532 0.87206 0.0
Co42 Co 0.46382 0.08049 0.07622 0.0
O43 O 0.45601 0.12311 0.08133 0.0
O44 O 0.42161 0.08672 0.08534 0.0
C45 C 0.49267 0.08315 0.03426 0.0
O46 O 0.46296 0.03466 0.07137 0.0
Co47 Co 0.52944 0.05556 0.08125 0.0
O48 O 0.51043 0.01591 0.07148 0.0
C49 C 0.49753 0.07495 0.136 0.0
C50 C 0.42827 0.11539 0.08739 0.0
C51 C 0.48183 0.01252 0.06931 0.0
O52 O 0.47261 0.0764 0.121 0.0
O53 O 0.52333 0.07069 0.12352 0.0
O54 O 0.46329 0.08399 0.03195 0.0
O55 O 0.50315 0.08456 0.06143 0.0
Co56 Co 0.203 0.75645 0.11781 0.0
O57 O 0.16176 0.76069 0.1044 0.0
O58 O 0.19741 0.79586 0.09977 0.0
C59 C 0.19467 0.73668 0.16386 0.0
O60 O 0.24693 0.76116 0.13053 0.0
Co61 Co 0.23013 0.69249 0.12913 0.0
O62 O 0.26402 0.71599 0.14705 0.0
C63 C 0.22369 0.71387 0.06685 0.0
C64 C 0.16953 0.78758 0.09522 0.0
C65 C 0.2671 0.7445 0.14336 0.0
O66 O 0.21544 0.73988 0.07711 0.0
O67 O 0.22812 0.6908 0.08383 0.0
O68 O 0.19159 0.76565 0.15935 0.0
O69 O 0.19774 0.72039 0.1397 0.0
Co70 Co 0.49775 0.00013 0.30865 0.0
O71 O 0.50435 0.96741 0.28012 0.0
O72 O 0.46026 0.98031 0.30044 0.0
C73 C 0.53696 0.9901 0.33957 0.0
O74 O 0.48111 0.02944 0.34005 0.0
Co75 Co 0.54315 0.05255 0.31944 0.0
O76 O 0.51654 0.06321 0.35399 0.0
C77 C 0.50807 0.05033 0.2628 0.0
C78 C 0.4755 0.96211 0.28309 0.0
C79 C 0.49058 0.05103 0.35707 0.0
O80 O 0.49099 0.02949 0.27408 0.0
O81 O 0.53151 0.06055 0.2764 0.0
O82 O 0.51206 0.97452 0.34173 0.0
O83 O 0.53834 0.00882 0.3171 0.0
Co84 Co 0.28928 0.22764 0.6254 0.0
O85 O 0.33042 0.21541 0.61776 0.0
O86 O 0.29182 0.18405 0.6254 0.0
C87 C 0.29806 0.26555 0.65842 0.0
O88 O 0.24466 0.23115 0.63571 0.0
Co89 Co 0.26579 0.2916 0.60782 0.0
O90 O 0.22861 0.27925 0.63016 0.0
C91 C 0.28395 0.24823 0.56119 0.0
C92 C 0.32019 0.18777 0.61848 0.0
C93 C 0.22456 0.25198 0.63889 0.0
O94 O 0.2812 0.2266 0.58045 0.0
O95 O 0.28235 0.27623 0.5685 0.0
O96 O 0.29788 0.23756 0.66796 0.0
O97 O 0.29658 0.26894 0.62954 0.0
Co98 Co 0.0023 0.09999 0.90664 0.0
O99 O 0.00157 0.14063 0.89083 0.0
O100 O 0.04165 0.11018 0.89071 0.0
C101 C 0.97679 0.10881 0.95005 0.0
O102 O 0.01228 0.05762 0.92173 0.0
Co103 Co 0.94239 0.06424 0.91653 0.0
O104 O 0.96944 0.03239 0.93332 0.0
C105 C 0.9659 0.07237 0.85493 0.0
C106 C 0.02957 0.13597 0.88308 0.0
C107 C -0.0018 0.03427 0.93194 0.0
O108 O 0.99065 0.08334 0.86569 0.0
O109 O 0.94273 0.06638 0.87128 0.0
O110 O 0.00567 0.11463 0.94856 0.0
O111 O 0.96426 0.10135 0.92483 0.0
Co112 Co 0.35573 0.22179 0.20878 0.0
O113 O 0.36055 0.18194 0.19228 0.0
O114 O 0.36448 0.22456 0.16586 0.0
C115 C 0.31403 0.21257 0.23645 0.0
O116 O 0.35018 0.26667 0.21821 0.0
Co117 Co 0.36086 0.23128 0.27849 0.0
O118 O 0.34659 0.2728 0.26881 0.0
C119 C 0.41579 0.22073 0.24257 0.0
C120 C 0.36573 0.19506 0.16651 0.0
C121 C 0.34512 0.28307 0.24185 0.0
O122 O 0.4006 0.22398 0.21791 0.0
O123 O 0.40344 0.21964 0.26877 0.0
O124 O 0.31153 0.21824 0.20764 0.0
O125 O 0.34126 0.20904 0.24626 0.0
Co126 Co 0.04931 0.13021 0.50109 0.0
O127 O 0.08064 0.15902 0.51019 0.0
O128 O 0.08123 0.12654 0.47178 0.0
C129 C 0.04132 0.11316 0.54837 0.0
O130 O 0.02192 0.09674 0.48491 0.0
Co131 Co 0.98415 0.13775 0.52673 0.0
O132 O 0.98038 0.09473 0.51443 0.0
C133 C 0.0072 0.17997 0.48044 0.0
C134 C 0.09386 0.14919 0.48576 0.0
C135 C -0.00209 0.08336 0.49453 0.0
O136 O 0.02947 0.162 0.47514 0.0
O137 O 0.98766 0.17533 0.50137 0.0
O138 O 0.06373 0.10237 0.53246 0.0
O139 O 0.02698 0.13565 0.5364 0.0
Co140 Co 0.11119 0.80632 0.74971 0.0
O141 O 0.08178 0.83408 0.76643 0.0
O142 O 0.10623 0.84033 0.72294 0.0
C143 C 0.13791 0.79822 0.79232 0.0
O144 O 0.1434 0.78383 0.72537 0.0
Co145 Co 0.11787 0.73976 0.77185 0.0
O146 O 0.15824 0.74335 0.75246 0.0
C147 C 0.06642 0.75682 0.73249 0.0
C148 C 0.08649 0.85038 0.74236 0.0
C149 C 0.16225 0.76237 0.73116 0.0
O150 O 0.07749 0.78359 0.72879 0.0
O151 O 0.07836 0.73683 0.74982 0.0
O152 O 0.14301 0.82234 0.77613 0.0
O153 O 0.11525 0.78189 0.78385 0.0
Co154 Co 0.45644 0.85064 0.00523 0.0
O155 O 0.41777 0.83055 0.00838 0.0
O156 O 0.44431 0.83615 0.96596 0.0
C157 C 0.44645 0.89297 0.03191 0.0
O158 O 0.49612 0.87039 0.99282 0.0
Co159 Co 0.4954 0.85976 0.06315 0.0
O160 O 0.52285 0.88137 0.03484 0.0
C161 C 0.49058 0.79927 0.03708 0.0
C162 C 0.42026 0.82582 0.97942 0.0
C163 C 0.51929 0.88189 0.00617 0.0
O164 O 0.47765 0.811 0.01374 0.0
O165 O 0.49675 0.81442 0.06098 0.0
O166 O 0.43723 0.89041 0.00407 0.0
O167 O 0.45684 0.86829 0.0439 0.0
Co168 Co 0.39767 0.80339 0.24965 0.0
O169 O 0.42484 0.83141 0.2294 0.0
O170 O 0.40487 0.83741 0.27523 0.0
C171 C 0.36656 0.79508 0.21013 0.0
O172 O 0.36826 0.78232 0.27822 0.0
Co173 Co 0.3867 0.73669 0.23083 0.0
O174 O 0.34931 0.74115 0.25535 0.0
C175 C 0.44357 0.75366 0.26212 0.0
C176 C 0.42154 0.84807 0.25352 0.0
C177 C 0.34837 0.7613 0.27593 0.0
O178 O 0.43356 0.78073 0.26684 0.0
O179 O 0.42891 0.73361 0.24713 0.0
O180 O 0.36339 0.81931 0.22662 0.0
O181 O 0.38953 0.77819 0.21659 0.0
Co182 Co 0.43497 0.11426 0.51067 0.0
O183 O 0.39388 0.12773 0.51616 0.0
O184 O 0.42097 0.10273 0.55037 0.0
C185 C 0.43087 0.09628 0.46294 0.0
O186 O 0.477 0.09542 0.51314 0.0
Co187 Co 0.47694 0.14214 0.46085 0.0
O188 O 0.5055 0.11003 0.47335 0.0
C189 C 0.46196 0.17713 0.51558 0.0
C190 C 0.39616 0.11705 0.54352 0.0
C191 C 0.50132 0.0942 0.49712 0.0
O192 O 0.44956 0.15399 0.52815 0.0
O193 O 0.47179 0.17748 0.48835 0.0
O194 O 0.42209 0.07956 0.48568 0.0
O195 O 0.4382 0.12363 0.46974 0.0
Co196 Co 0.09097 0.25016 0.75709 0.0
O197 O 0.07527 0.2103 0.76575 0.0
O198 O 0.08804 0.24459 0.80025 0.0
C199 C 0.1249 0.23694 0.72127 0.0
O200 O 0.10979 0.2922 0.75766 0.0
Co201 Co 0.08298 0.28026 0.69376 0.0
O202 O 0.1101 0.31171 0.71051 0.0
C203 C 0.03096 0.27652 0.73503 0.0
C204 C 0.07763 0.21775 0.79415 0.0
C205 C 0.11724 0.31277 0.73844 0.0
O206 O 0.04845 0.26725 0.75644 0.0
O207 O 0.04003 0.2805 0.7078 0.0
O208 O 0.13121 0.23324 0.74982 0.0
O209 O 0.09735 0.24482 0.71542 0.0
Co210 Co 0.04722 0.88133 0.00026 0.0
O211 O 0.08848 0.86696 0.00109 0.0
O212 O 0.05656 0.86607 0.03996 0.0
C213 C 0.05405 0.9256 0.97589 0.0
O214 O 0.00426 0.89542 0.00888 0.0
Co215 Co 0.01313 0.88858 0.93917 0.0
O216 O 0.9817 0.90792 0.96492 0.0
C217 C 0.02347 0.82782 0.96311 0.0
C218 C 0.08319 0.85968 0.02915 0.0
C219 C 0.98207 0.9067 0.99378 0.0
O220 O 0.03263 0.83968 0.9881 0.0
O221 O 0.01742 0.84345 0.93949 0.0
O222 O 0.06046 0.92337 0.00458 0.0
O223 O 0.04858 0.9002 0.96237 0.0
Co224 Co 0.24944 0.4335 0.24885 0.0
O225 O 0.2551 0.45831 0.21331 0.0
O226 O 0.21076 0.44451 0.23255 0.0
C227 C 0.28323 0.39715 0.2369 0.0
O228 O 0.23392 0.40698 0.28319 0.0
Co229 Co 0.30126 0.42322 0.29528 0.0
O230 O 0.27239 0.39467 0.31429 0.0
C231 C 0.26994 0.48206 0.29334 0.0
C232 C 0.22572 0.45832 0.2113 0.0
C233 C 0.24483 0.39267 0.30604 0.0
O234 O 0.24986 0.47082 0.27544 0.0
O235 O 0.29362 0.4675 0.30158 0.0
O236 O 0.25638 0.39708 0.22491 0.0
O237 O 0.28984 0.42075 0.25295 0.0
Co238 Co 0.75612 0.06299 0.75291 0.0
O239 O 0.75783 0.03807 0.78882 0.0
O240 O 0.71595 0.05075 0.7642 0.0
C241 C 0.78674 0.10067 0.76875 0.0
O242 O 0.74456 0.08929 0.71695 0.0
Co243 Co 0.81334 0.07465 0.71351 0.0
O244 O 0.78661 0.10344 0.69186 0.0
C245 C 0.78286 0.01562 0.70999 0.0
C246 C 0.72844 0.03725 0.78716 0.0
C247 C 0.7581 0.1046 0.6962 0.0
O248 O 0.76093 0.02602 0.72622 0.0
O249 O 0.80709 0.03061 0.70468 0.0
O250 O 0.75872 0.09945 0.7776 0.0
O251 O 0.79629 0.0772 0.75394 0.0
Co252 Co 0.14523 0.50072 0.05523 0.0
O253 O 0.17424 0.51621 0.08406 0.0
O254 O 0.14896 0.47289 0.08827 0.0
C255 C 0.11952 0.54422 0.04857 0.0
O256 O 0.11294 0.47731 0.03215 0.0
Co257 Co 0.13787 0.52425 0.98957 0.0
O258 O 0.09691 0.5061 0.99352 0.0
C259 C 0.18992 0.48477 0.00541 0.0
C260 C 0.16824 0.49193 0.09967 0.0
C261 C 0.09323 0.48421 0.01192 0.0
O262 O 0.17902 0.48021 0.03214 0.0
O263 O 0.17758 0.50244 0.98596 0.0
O264 O 0.11371 0.5271 0.07187 0.0
O265 O 0.14185 0.53566 0.03177 0.0
Co266 Co 0.76959 0.82127 0.33133 0.0
O267 O 0.7774 0.83009 0.37333 0.0
O268 O 0.81051 0.83515 0.33581 0.0
C269 C 0.74558 0.7766 0.33677 0.0
O270 O 0.77094 0.81354 0.28612 0.0
Co271 Co 0.70405 0.81726 0.30638 0.0
O272 O 0.72405 0.80714 0.26727 0.0
C273 C 0.7296 0.87666 0.32103 0.0
C274 C 0.80422 0.8384 0.36439 0.0
C275 C 0.75274 0.80796 0.26418 0.0
O276 O 0.75588 0.8645 0.32442 0.0
O277 O 0.70541 0.86122 0.31717 0.0
O278 O 0.77504 0.77766 0.33764 0.0
O279 O 0.7321 0.80253 0.33679 0.0
Co280 Co 0.85302 0.01066 0.06033 0.0
O281 O 0.82671 0.98954 0.08828 0.0
O282 O 0.84542 0.0357 0.09511 0.0
C283 C 0.88465 0.97168 0.05094 0.0
O284 O 0.88142 0.03977 0.03821 0.0
Co285 Co 0.86217 0.99159 0.99325 0.0
O286 O 0.8997 0.01591 -0.00281 0.0
C287 C 0.80534 0.022 0.01206 0.0
C288 C 0.82891 0.01354 0.10524 0.0
C289 C 0.90093 0.03706 0.01674 0.0
O290 O 0.81624 0.02725 0.03864 0.0
O291 O 0.81955 0.00704 0.99163 0.0
O292 O 0.88821 0.98805 0.0752 0.0
O293 O 0.86109 0.9779 0.0349 0.0
Co294 Co 0.27696 0.66078 0.6607 0.0
O295 O 0.28153 0.65609 0.61775 0.0
O296 O 0.31841 0.65083 0.65149 0.0
C297 C 0.24882 0.70317 0.66036 0.0
O298 O 0.28076 0.66511 0.70643 0.0
Co299 Co 0.21288 0.65557 0.68911 0.0
O300 O 0.23425 0.66535 0.72751 0.0
C301 C 0.24316 0.60094 0.66715 0.0
C302 C 0.30949 0.64901 0.62343 0.0
C303 C 0.263 0.6673 0.72946 0.0
O304 O 0.26793 0.61603 0.66472 0.0
O305 O 0.21765 0.61333 0.67313 0.0
O306 O 0.27811 0.70505 0.65764 0.0
O307 O 0.23774 0.67617 0.65934 0.0
Co308 Co 0.11301 0.53417 0.47246 0.0
O309 O 0.12003 0.55181 0.43353 0.0
O310 O 0.1217 0.57687 0.47714 0.0
C311 C 0.07197 0.5069 0.45978 0.0
O312 O 0.10528 0.52351 0.51661 0.0
Co313 Co 0.11765 0.46425 0.48054 0.0
O314 O 0.10227 0.47277 0.52189 0.0
C315 C 0.17307 0.50048 0.47401 0.0
C316 C 0.1248 0.57705 0.44781 0.0
C317 C 0.10021 0.49957 0.53251 0.0
O318 O 0.15762 0.52503 0.4768 0.0
O319 O 0.16092 0.47425 0.47182 0.0
O320 O 0.06909 0.53549 0.46644 0.0
O321 O 0.09935 0.49702 0.45783 0.0
Co322 Co 0.36091 0.48979 0.92898 0.0
O323 O 0.33384 0.51089 0.90161 0.0
O324 O 0.35425 0.46548 0.89391 0.0
C325 C 0.39142 0.5293 0.93936 0.0
O326 O 0.39019 0.46062 0.94944 0.0
Co327 Co 0.37083 0.50617 -0.00354 0.0
O328 O 0.40885 0.48281 0.99105 0.0
C329 C 0.31417 0.4757 0.97731 0.0
C330 C 0.33717 0.48733 0.88417 0.0
C331 C 0.41013 0.46273 0.97043 0.0
O332 O 0.32481 0.47155 0.95041 0.0
O333 O 0.32844 0.49009 -0.00194 0.0
O334 O 0.39526 0.51383 0.91455 0.0
O335 O 0.36826 0.52184 0.95553 0.0
Co336 Co 0.70682 0.74742 0.86933 0.0
O337 O 0.6659 0.74699 0.8847 0.0
O338 O 0.69706 0.70744 0.88327 0.0
C339 C 0.69971 0.77347 0.82614 0.0
O340 O 0.74903 0.73809 0.85405 0.0
Co341 Co 0.74276 0.80759 0.86355 0.0
O342 O 0.77342 0.78155 0.84339 0.0
C343 C 0.7333 0.78157 0.92348 0.0
C344 C 0.67086 0.71854 0.89074 0.0
C345 C 0.7718 0.7527 0.84339 0.0
O346 O 0.72279 0.75749 0.91092 0.0
O347 O 0.73982 0.80562 0.90871 0.0
O348 O 0.69242 0.74493 0.82765 0.0
O349 O 0.70624 0.78606 0.85178 0.0
Co350 Co 0.51632 0.4015 0.07469 0.0
O351 O 0.51911 0.35992 0.08737 0.0
O352 O 0.55653 0.39345 0.0895 0.0
C353 C 0.49122 0.39301 0.0311 0.0
O354 O 0.52255 0.44568 0.06282 0.0
Co355 Co 0.45399 0.43322 0.06647 0.0
O356 O 0.47851 0.46493 0.04584 0.0
C357 C 0.47762 0.42186 0.12784 0.0
C358 C 0.54674 0.36622 0.0952 0.0
C359 C 0.50704 0.46665 0.04984 0.0
O360 O 0.50335 0.4138 0.11674 0.0
O361 O 0.45439 0.42776 0.11153 0.0
O362 O 0.52057 0.39008 0.03182 0.0
O363 O 0.47845 0.39814 0.05679 0.0
Co364 Co 0.78037 0.2442 0.39149 0.0
O365 O 0.81658 0.23843 0.41465 0.0
O366 O 0.80731 0.27792 0.3849 0.0
C367 C 0.77619 0.19688 0.37294 0.0
O368 O 0.74598 0.25726 0.36354 0.0
Co369 Co 0.72198 0.20873 0.40949 0.0
O370 O 0.70553 0.22724 0.37232 0.0
C371 C 0.74332 0.25875 0.44768 0.0
C372 C 0.82492 0.26482 0.40459 0.0
C373 C 0.71895 0.24813 0.3576 0.0
O374 O 0.76247 0.26638 0.42717 0.0
O375 O 0.72656 0.23518 0.44595 0.0
O376 O 0.79437 0.21621 0.36004 0.0
O377 O 0.76432 0.2057 0.39817 0.0
Co378 Co 0.00375 0.48947 0.68086 0.0
O379 O 0.00605 0.52511 0.70595 0.0
O380 O 0.96359 0.50381 0.68965 0.0
C381 C 0.03856 0.50346 0.64642 0.0
O382 O 0.99217 0.45427 0.65335 0.0
Co383 Co 0.05905 0.44633 0.67425 0.0
O384 O 0.03386 0.4268 0.64282 0.0
C385 C 0.02336 0.44547 0.73046 0.0
C386 C 0.97668 0.52581 0.70419 0.0
C387 C 0.00589 0.43283 0.63911 0.0
O388 O 0.00344 0.46276 0.71801 0.0
O389 O 0.04839 0.43841 0.71763 0.0
O390 O 0.01113 0.51396 0.64507 0.0
O391 O 0.045 0.48782 0.67039 0.0
Co392 Co 0.69712 0.24899 0.61488 0.0
O393 O 0.66987 0.24237 0.58158 0.0
O394 O 0.66539 0.27876 0.61602 0.0
C395 C 0.70199 0.20044 0.62932 0.0
O396 O 0.71975 0.26251 0.65272 0.0
Co397 Co 0.76228 0.2223 0.61563 0.0
O398 O 0.75905 0.23086 0.65963 0.0
C399 C 0.74464 0.26914 0.57128 0.0
C400 C 0.65561 0.26632 0.59118 0.0
C401 C 0.7406 0.25082 0.66934 0.0
O402 O 0.72179 0.27609 0.58792 0.0
O403 O 0.76258 0.24719 0.57755 0.0
O404 O 0.67863 0.2161 0.63836 0.0
O405 O 0.7195 0.21377 0.61015 0.0
Co406 Co 0.97494 0.41759 0.916 0.0
O407 O 0.96454 0.3754 0.91136 0.0
O408 O 0.93275 0.41399 0.90613 0.0
C409 C 0.00235 0.4142 0.95877 0.0
O410 O 0.9762 0.46339 0.92024 0.0
Co411 Co 0.04151 0.43989 0.91299 0.0
O412 O 0.02414 0.48051 0.92211 0.0
C413 C 0.01097 0.42088 0.85734 0.0
C414 C 0.93739 0.3849 0.90499 0.0
C415 C 0.99561 0.48488 0.9231 0.0
O416 O 0.98543 0.42039 0.87145 0.0
O417 O 0.03637 0.42455 0.87073 0.0
O418 O 0.9729 0.41487 0.96022 0.0
O419 O 0.0136 0.41174 0.93194 0.0
Co420 Co 0.79199 0.74739 0.10341 0.0
O421 O 0.83131 0.7544 0.08576 0.0
O422 O 0.80817 0.70975 0.08846 0.0
C423 C 0.7973 0.77339 0.14688 0.0
O424 O 0.75243 0.73113 0.12055 0.0
Co425 Co 0.74797 0.80183 0.11237 0.0
O426 O 0.72182 0.77061 0.1313 0.0
C427 C 0.75972 0.77939 0.05142 0.0
C428 C 0.83153 0.72551 0.07998 0.0
C429 C 0.7277 0.7423 0.13119 0.0
O430 O 0.77254 0.75583 0.06288 0.0
O431 O 0.75136 0.80218 0.06724 0.0
O432 O 0.8089 0.74642 0.14421 0.0
O433 O 0.78743 0.78525 0.122 0.0
Co434 Co 0.4865 0.48912 0.30656 0.0
O435 O 0.48709 0.52576 0.28278 0.0
O436 O 0.52772 0.50094 0.29883 0.0
C437 C 0.45187 0.50382 0.34093 0.0
O438 O 0.49522 0.45211 0.33281 0.0
Co439 Co 0.42845 0.44947 0.31098 0.0
O440 O 0.45174 0.42714 0.34211 0.0
C441 C 0.46369 0.45024 0.25458 0.0
C442 C 0.51642 0.52412 0.2846 0.0
C443 C 0.48001 0.43118 0.34629 0.0
O444 O 0.4854 0.46405 0.26828 0.0
O445 O 0.43801 0.44496 0.26693 0.0
O446 O 0.47985 0.51256 0.34337 0.0
O447 O 0.44517 0.48975 0.31614 0.0
Co448 Co 0.89423 0.68382 0.73444 0.0
O449 O 0.92041 0.65453 0.75373 0.0
O450 O 0.89938 0.64945 0.70835 0.0
C451 C 0.86491 0.69313 0.77503 0.0
O452 O 0.8653 0.70743 0.70718 0.0
Co453 Co 0.88736 0.7507 0.75527 0.0
O454 O 0.8486 0.74801 0.73286 0.0
C455 C 0.94237 0.73113 0.72194 0.0
C456 C 0.9163 0.63815 0.7296 0.0
C457 C 0.8462 0.72903 0.71132 0.0
O458 O 0.93084 0.70479 0.71674 0.0
O459 O 0.92918 0.75158 0.73777 0.0
O460 O 0.85973 0.66944 0.75825 0.0
O461 O 0.88855 0.70874 0.76802 0.0
Co462 Co 0.55134 0.62364 0.98819 0.0
O463 O 0.59208 0.63896 0.98625 0.0
O464 O 0.55796 0.64249 0.94945 0.0
C465 C 0.56043 0.57762 0.00775 0.0
O466 O 0.50838 0.60918 0.98095 0.0
Co467 Co 0.52127 0.61072 0.05033 0.0
O468 O 0.4894 0.59168 0.02493 0.0
C469 C 0.52634 0.67343 0.02993 0.0
C470 C 0.58511 0.64829 0.9592 0.0
C471 C 0.48781 0.59548 -0.00366 0.0
O472 O 0.53636 0.66359 0.00442 0.0
O473 O 0.52127 0.65614 0.05264 0.0
O474 O 0.56506 0.5828 0.97911 0.0
O475 O 0.55555 0.60141 0.02422 0.0
Co476 Co 0.60528 0.25856 0.22608 0.0
O477 O 0.59308 0.29805 0.21258 0.0
O478 O 0.60282 0.25896 0.18239 0.0
C479 C 0.63991 0.27447 0.26001 0.0
O480 O 0.62015 0.21523 0.23157 0.0
Co481 Co 0.59655 0.23866 0.29338 0.0
O482 O 0.62002 0.20249 0.28101 0.0
C483 C 0.54443 0.23796 0.25147 0.0
C484 C 0.59495 0.28723 0.18531 0.0
C485 C 0.62595 0.19672 0.25336 0.0
O486 O 0.56151 0.24504 0.22886 0.0
O487 O 0.55388 0.23672 0.27883 0.0
O488 O 0.64706 0.27276 0.23147 0.0
O489 O 0.61187 0.26946 0.26629 0.0
Co490 Co 0.95881 0.35228 0.48913 0.0
O491 O 0.92818 0.32172 0.493 0.0
O492 O 0.93144 0.35485 0.45527 0.0
C493 C 0.95821 0.3682 0.53751 0.0
O494 O 0.9864 0.38757 0.47789 0.0
Co495 Co 0.01948 0.3485 0.52459 0.0
O496 O 0.02096 0.39239 0.51495 0.0
C497 C 0.00568 0.3048 0.4759 0.0
C498 C 0.91802 0.33143 0.46713 0.0
C499 C 0.00654 0.40288 0.4923 0.0
O500 O 0.98429 0.3221 0.46639 0.0
O501 O 0.02124 0.31047 0.4997 0.0
O502 O 0.93819 0.3786 0.51849 0.0
O503 O 0.97562 0.3471 0.52727 0.0
Co504 Co 0.84635 0.28248 0.79345 0.0
O505 O 0.85238 0.32219 0.80989 0.0
O506 O 0.86015 0.27922 0.83487 0.0
C507 C 0.80169 0.29161 0.77081 0.0
O508 O 0.84092 0.23757 0.78426 0.0
Co509 Co 0.84395 0.27344 0.72367 0.0
O510 O 0.83421 0.23078 0.73411 0.0
C511 C 0.9021 0.28581 0.75306 0.0
C512 C 0.86122 0.30872 0.83447 0.0
C513 C 0.83543 0.22067 0.76113 0.0
O514 O 0.88983 0.28153 0.77916 0.0
O515 O 0.88691 0.2868 0.72843 0.0
O516 O 0.80243 0.28521 0.79959 0.0
O517 O 0.82763 0.29538 0.75802 0.0
Co518 Co 0.96669 0.6461 0.98932 0.0
O519 O 0.92711 0.66421 0.98572 0.0
O520 O 0.95305 0.65933 0.02856 0.0
C521 C 0.95919 0.60375 0.96194 0.0
O522 O 0.00703 0.62808 0.00217 0.0
Co523 Co 0.0072 0.63943 0.93197 0.0
O524 O 0.03508 0.61884 0.96052 0.0
C525 C -0.00171 0.69941 0.95846 0.0
C526 C 0.92872 0.66848 0.0148 0.0
C527 C 0.03094 0.61776 0.98909 0.0
O528 O 0.98593 0.68688 0.9817 0.0
O529 O 0.00555 0.68472 0.93456 0.0
O530 O 0.94944 0.60549 0.98966 0.0
O531 O 0.96872 0.629 0.95043 0.0
Co532 Co 0.61249 0.67205 0.24414 0.0
O533 O 0.58363 0.6439 0.22724 0.0
O534 O 0.60666 0.63877 0.27161 0.0
C535 C 0.63999 0.67863 0.20168 0.0
O536 O 0.64397 0.69479 0.26908 0.0
Co537 Co 0.62161 0.73776 0.22086 0.0
O538 O 0.6614 0.73365 0.24135 0.0
C539 C 0.56765 0.72243 0.25789 0.0
C540 C 0.58768 0.62815 0.25181 0.0
C541 C 0.66388 0.71527 0.26343 0.0
O542 O 0.57808 0.69561 0.26313 0.0
O543 O 0.58096 0.74167 0.2407 0.0
O544 O 0.64504 0.65522 0.21891 0.0
O545 O 0.61757 0.69557 0.20957 0.0
Co546 Co 0.52436 0.34397 0.49385 0.0
O547 O 0.55724 0.31534 0.49167 0.0
O548 O 0.54962 0.34832 0.52889 0.0
C549 C 0.5258 0.36083 0.44568 0.0
O550 O 0.49432 0.37729 0.50406 0.0
Co551 Co 0.46578 0.33603 0.45536 0.0
O552 O 0.45596 0.37701 0.47047 0.0
C553 C 0.47615 0.29697 0.50854 0.0
C554 C 0.56531 0.32589 0.51798 0.0
C555 C 0.4703 0.38883 0.49248 0.0
O556 O 0.49949 0.31269 0.51593 0.0
O557 O 0.46087 0.30154 0.48435 0.0
O558 O 0.5446 0.37168 0.46563 0.0
O559 O 0.50963 0.33821 0.45467 0.0
Co560 Co 0.73989 0.83682 0.64767 0.0
O561 O 0.73638 0.84959 0.60612 0.0
O562 O 0.69911 0.84998 0.63992 0.0
C563 C 0.76633 0.79382 0.64006 0.0
O564 O 0.73406 0.82437 0.69153 0.0
Co565 Co 0.80272 0.83208 0.67892 0.0
O566 O 0.77911 0.81736 0.71436 0.0
C567 C 0.77615 0.89197 0.66824 0.0
C568 C 0.70841 0.8561 0.61264 0.0
C569 C 0.75025 0.81705 0.71454 0.0
O570 O 0.751 0.87947 0.6604 0.0
O571 O 0.80043 0.87696 0.67318 0.0
O572 O 0.73708 0.79392 0.63639 0.0
O573 O 0.77849 0.81999 0.6444 0.0
Co574 Co 0.23046 0.66732 0.33869 0.0
O575 O 0.22335 0.65727 0.38056 0.0
O576 O 0.18818 0.65909 0.34475 0.0
C577 C 0.26088 0.70757 0.34664 0.0
O578 O 0.228 0.67783 0.29397 0.0
Co579 Co 0.29453 0.66646 0.3095 0.0
O580 O 0.27434 0.68931 0.27624 0.0
C581 C 0.26303 0.60894 0.32279 0.0
C582 C 0.19516 0.65376 0.37285 0.0
C583 C 0.24563 0.68847 0.27343 0.0
O584 O 0.23829 0.62323 0.32882 0.0
O585 O 0.28826 0.62222 0.31749 0.0
O586 O 0.2316 0.71087 0.34806 0.0
O587 O 0.27028 0.68016 0.34335 0.0
Co588 Co 0.63656 0.97982 0.50443 0.0
O589 O 0.64931 0.9678 0.54418 0.0
O590 O 0.64277 0.93648 0.50534 0.0
C591 C 0.5988 0.01101 0.51866 0.0
O592 O 0.62169 0.98381 0.46093 0.0
Co593 Co 0.64202 0.04728 0.48427 0.0
O594 O 0.6182 0.03338 0.44898 0.0
C595 C 0.69667 0.00941 0.48711 0.0
C596 C 0.6502 0.94037 0.53358 0.0
C597 C 0.61386 0.00546 0.44299 0.0
O598 O 0.68024 0.98574 0.49173 0.0
O599 O 0.6858 0.03628 0.48617 0.0
O600 O 0.59438 0.98186 0.51795 0.0
O601 O 0.62642 0.01959 0.5145 0.0
Co602 Co 0.24686 0.43092 0.74104 0.0
O603 O 0.24489 0.46181 0.77215 0.0
O604 O 0.28616 0.43689 0.75795 0.0
C605 C 0.20532 0.40535 0.75579 0.0
O606 O 0.259 0.39668 0.71262 0.0
Co607 Co 0.19843 0.41776 0.69251 0.0
O608 O 0.21676 0.37642 0.69356 0.0
C609 C 0.23615 0.47336 0.68874 0.0
C610 C 0.27369 0.45665 0.7758 0.0
C611 C 0.24441 0.37421 0.70134 0.0
O612 O 0.2541 0.46296 0.70928 0.0
O613 O 0.21205 0.45951 0.68037 0.0
O614 O 0.23098 0.4009 0.76959 0.0
O615 O 0.20541 0.42604 0.73516 0.0
Co616 Co 0.36277 0.52171 0.51118 0.0
O617 O 0.35209 0.5359 0.55072 0.0
O618 O 0.36002 0.56549 0.51076 0.0
C619 C 0.39837 0.48871 0.52658 0.0
O620 O 0.37622 0.51517 0.46758 0.0
Co621 Co 0.35463 0.45349 0.49377 0.0
O622 O 0.3775 0.46516 0.45702 0.0
C623 C 0.30179 0.49472 0.49347 0.0
C624 C 0.35379 0.563 0.53946 0.0
C625 C 0.38248 0.49273 0.45001 0.0
O626 O 0.31854 0.51794 0.49935 0.0
O627 O 0.31179 0.4675 0.49289 0.0
O628 O 0.4051 0.51726 0.52376 0.0
O629 O 0.37025 0.48195 0.523 0.0
Co630 Co 0.73168 0.05471 0.25093 0.0
O631 O 0.73188 0.03101 0.21417 0.0
O632 O 0.77268 0.04841 0.23764 0.0
C633 C 0.69563 0.08817 0.2375 0.0
O634 O 0.74094 0.08139 0.28743 0.0
Co635 Co 0.67522 0.05806 0.2929 0.0
O636 O 0.69795 0.09097 0.31312 0.0
C637 C 0.71263 0.00286 0.29247 0.0
C638 C 0.76114 0.03418 0.21461 0.0
C639 C 0.72602 0.09548 0.30818 0.0
O640 O 0.73272 0.01646 0.27622 0.0
O641 O 0.6871 0.0148 0.2993 0.0
O642 O 0.72321 0.09125 0.22773 0.0
O643 O 0.69003 0.06321 0.25184 0.0
Co644 Co 0.63551 0.99588 0.93656 0.0
O645 O 0.66488 0.97907 0.90878 0.0
O646 O 0.64019 0.02245 0.90243 0.0
C647 C 0.60914 0.95303 0.94481 0.0
O648 O 0.60311 0.02032 0.95872 0.0
Co649 Co 0.62834 0.97445 0.00314 0.0
O650 O 0.58771 0.9932 -0.00111 0.0
C651 C 0.68058 0.01278 0.98576 0.0
C652 C 0.65981 0.00297 0.8923 0.0
C653 C 0.58379 0.01435 0.97969 0.0
O654 O 0.66933 0.01689 0.95913 0.0
O655 O 0.66839 0.99563 0.00576 0.0
O656 O 0.60383 0.96917 0.92071 0.0
O657 O 0.63159 0.96187 0.96123 0.0
Co658 Co 0.8838 0.96141 0.46709 0.0
O659 O 0.87481 0.94709 0.42709 0.0
O660 O 0.87248 0.9192 0.46892 0.0
C661 C 0.92644 0.9867 0.45538 0.0
O662 O 0.89316 0.96754 0.51171 0.0
Co663 Co 0.88506 0.03039 0.48158 0.0
O664 O 0.90008 0.01712 0.52178 0.0
C665 C 0.82661 -0.00046 0.47326 0.0
C666 C 0.86902 0.92114 0.43972 0.0
C667 C 0.9002 0.98934 0.52968 0.0
O668 O 0.84 0.97359 0.47312 0.0
O669 O 0.84093 0.02474 0.47349 0.0
O670 O 0.92741 0.95755 0.4598 0.0
O671 O 0.89981 -0.00138 0.45513 0.0
C672 C 0.30558 0.25925 0.51081 0.0
C673 C 0.28646 0.24138 0.52879 0.0
H674 H 0.31552 0.27567 0.46653 0.0
C675 C 0.26611 0.22135 0.51489 0.0
H676 H 0.32181 0.27448 0.52116 0.0
C677 C 0.26208 0.22231 0.48346 0.0
C678 C 0.27857 0.24317 0.4658 0.0
H679 H 0.25126 0.20727 0.52846 0.0
H680 H 0.24408 0.2089 0.47357 0.0
C681 C 0.30193 0.25987 0.47952 0.0
C682 C 0.93477 0.0498 0.7787 0.0
C683 C 0.96115 0.04122 0.76302 0.0
H684 H 0.91566 0.06654 0.81991 0.0
C685 C 0.9894 0.04481 0.7772 0.0
H686 H 0.91263 0.04741 0.76842 0.0
C687 C 0.99115 0.05631 0.80668 0.0
C688 C 0.96463 0.0639 0.82263 0.0
H689 H 0.01014 0.03866 0.76558 0.0
H690 H 0.01316 0.05828 0.81733 0.0
C691 C 0.93648 0.0608 0.80822 0.0
C692 C 0.24621 0.73504 0.98698 0.0
C693 C 0.24879 0.70653 0.97305 0.0
H694 H 0.23563 0.75972 0.02724 0.0
C695 C 0.24184 0.68038 0.98988 0.0
H696 H 0.25112 0.75564 0.97454 0.0
C697 C 0.23316 0.6827 0.02026 0.0
C698 C 0.23076 0.71124 0.03422 0.0
H699 H 0.24356 0.65808 0.97975 0.0
H700 H 0.22846 0.66213 0.03283 0.0
C701 C 0.23705 0.73739 0.01713 0.0
C702 C 0.4761 0.05247 0.2156 0.0
C703 C 0.50213 0.06139 0.23165 0.0
H704 H 0.45382 0.05059 0.17245 0.0
C705 C 0.52416 0.07893 0.21666 0.0
H706 H 0.45858 0.0392 0.22652 0.0
C707 C 0.52154 0.08511 0.18583 0.0
C708 C 0.4966 0.07443 0.16936 0.0
H709 H 0.54439 0.08649 0.22827 0.0
H710 H 0.53976 0.0971 0.17454 0.0
C711 C 0.47324 0.05917 0.18471 0.0
C712 C 0.49637 0.2145 0.26901 0.0
C713 C 0.5122 0.23037 0.24638 0.0
H714 H 0.45383 0.19842 0.28509 0.0
C715 C 0.49658 0.23963 0.22021 0.0
H716 H 0.50777 0.20631 0.28913 0.0
C717 C 0.46523 0.23491 0.21784 0.0
C718 C 0.44923 0.22086 0.2416 0.0
H719 H 0.50826 0.25165 0.20228 0.0
H720 H 0.45336 0.24363 0.19822 0.0
C721 C 0.46536 0.20981 0.26664 0.0
C722 C 0.0351 0.25795 0.46489 0.0
C723 C 0.00754 0.27378 0.46377 0.0
H724 H 0.05654 0.21475 0.46964 0.0
C725 C 0.98049 0.25752 0.45955 0.0
H726 H 0.05622 0.27001 0.46813 0.0
C727 C 0.98052 0.22593 0.46148 0.0
C728 C 0.00772 0.21027 0.46651 0.0
H729 H 0.95889 0.26918 0.45873 0.0
H730 H 0.95907 0.21401 0.46191 0.0
C731 C 0.03522 0.2263 0.46573 0.0
C732 C 0.01556 0.77337 0.71426 0.0
C733 C 0.0363 0.74986 0.71969 0.0
H734 H 0.96887 0.78566 0.71021 0.0
C735 C 0.02622 0.71964 0.71813 0.0
H736 H 0.02263 0.79687 0.71507 0.0
C737 C 0.99541 0.71319 0.71497 0.0
C738 C 0.97425 0.73692 0.71375 0.0
H739 H 0.04181 0.70101 0.72174 0.0
H740 H 0.98802 0.68983 0.71663 0.0
C741 C 0.98473 0.76695 0.71152 0.0
C742 C 0.50385 0.75298 0.00738 0.0
C743 C 0.49994 0.76713 0.0356 0.0
H744 H 0.51578 0.71262 0.98351 0.0
C745 C 0.50558 0.75043 0.06216 0.0
H746 H 0.49995 0.76528 0.98649 0.0
C747 C 0.51441 0.72001 0.06047 0.0
C748 C 0.51833 0.70591 0.03218 0.0
H749 H 0.50277 0.76075 0.08425 0.0
H750 H 0.5182 0.70757 0.08128 0.0
C751 C 0.51318 0.72283 0.00568 0.0
C752 C 0.52797 0.76105 0.26982 0.0
C753 C 0.5369 0.73044 0.26852 0.0
H754 H 0.49106 0.79254 0.26961 0.0
C755 C 0.51483 0.70779 0.27183 0.0
H756 H 0.54456 0.77901 0.26769 0.0
C757 C 0.48415 0.71556 0.27263 0.0
C758 C 0.47508 0.74609 0.27058 0.0
H759 H 0.52098 0.68403 0.271 0.0
H760 H 0.46748 0.69754 0.27267 0.0
C761 C 0.4973 0.76883 0.27107 0.0
C762 C 0.49429 0.25076 0.53476 0.0
C763 C 0.46986 0.26884 0.52531 0.0
H764 H 0.51053 0.20532 0.53983 0.0
C765 C 0.44069 0.25617 0.52431 0.0
H766 H 0.51701 0.26 0.53585 0.0
C767 C 0.43692 0.22494 0.52754 0.0
C768 C 0.46236 0.20629 0.53114 0.0
H769 H 0.42144 0.26978 0.51745 0.0
H770 H 0.41498 0.21512 0.52253 0.0
C771 C 0.49059 0.21944 0.53729 0.0
C772 C 0.9488 0.29719 0.72349 0.0
C773 C 0.93547 0.28723 0.75061 0.0
H774 H 0.98915 0.30193 0.69749 0.0
C775 C 0.95421 0.27631 0.77394 0.0
H776 H 0.9351 0.30615 0.70521 0.0
C777 C 0.98551 0.27371 0.76944 0.0
C778 C -0.00146 0.28211 0.74158 0.0
H779 H 0.9446 0.26853 0.79515 0.0
H780 H -0.00073 0.26414 0.78736 0.0
C781 C 0.9799 0.2947 0.71905 0.0
C782 C 0.01005 0.74867 0.93288 0.0
C783 C 0.00512 0.73218 0.95968 0.0
H784 H 0.01961 0.79181 0.91294 0.0
C785 C 0.00708 0.74725 0.98766 0.0
H786 H 0.00869 0.73771 0.91097 0.0
C787 C 0.01381 0.77817 0.98882 0.0
C788 C 0.01819 0.79476 0.96199 0.0
H789 H 0.00361 0.73513 0.00873 0.0
H790 H 0.01498 0.78917 0.01072 0.0
C791 C 0.01628 0.77967 0.93401 0.0
C792 C 0.23932 0.52992 0.29947 0.0
C793 C 0.2664 0.51369 0.3041 0.0
H794 H 0.21672 0.57296 0.3025 0.0
C795 C 0.29092 0.52845 0.31804 0.0
H796 H 0.21992 0.51915 0.28905 0.0
C797 C 0.28911 0.55908 0.32547 0.0
C798 C 0.26262 0.57565 0.31958 0.0
H799 H 0.31206 0.5167 0.32219 0.0
H800 H 0.30885 0.57005 0.33506 0.0
C801 C 0.23737 0.56063 0.30739 0.0
C802 C 0.75236 0.96949 0.69621 0.0
C803 C 0.7803 0.98479 0.69694 0.0
H804 H 0.72894 0.92823 0.68575 0.0
C805 C 0.80615 0.97014 0.6854 0.0
H806 H 0.73196 0.98025 0.70462 0.0
C807 C 0.80443 0.94044 0.67477 0.0
C808 C 0.77675 0.92476 0.67502 0.0
H809 H 0.82802 0.98126 0.68541 0.0
H810 H 0.82498 0.92947 0.667 0.0
C811 C 0.75056 0.93982 0.68512 0.0
C812 C 0.2415 0.46745 0.0209 0.0
C813 C 0.22024 0.47266 -0.00217 0.0
H814 H 0.28844 0.46392 0.03231 0.0
C815 C 0.22991 0.47167 0.96745 0.0
H816 H 0.23477 0.46791 0.0445 0.0
C817 C 0.26068 0.46905 0.96043 0.0
C818 C 0.28227 0.46783 0.98372 0.0
H819 H 0.21396 0.47518 0.94915 0.0
H820 H 0.26763 0.47096 0.93696 0.0
C821 C 0.27229 0.46526 0.0139 0.0
C822 C 0.69495 0.95456 0.31623 0.0
C823 C 0.71851 0.97151 0.30304 0.0
H824 H 0.68016 0.91144 0.33254 0.0
C825 C 0.74697 0.95771 0.29904 0.0
H826 H 0.67278 0.96442 0.31993 0.0
C827 C 0.7513 0.92721 0.30676 0.0
C828 C 0.72711 0.90993 0.31821 0.0
H829 H 0.76568 0.97019 0.28922 0.0
H830 H 0.77308 0.91681 0.30231 0.0
C831 C 0.69916 0.92413 0.32354 0.0
C832 C 0.73216 0.02895 0.96909 0.0
C833 C 0.7111 0.02475 0.99257 0.0
H834 H 0.779 0.03171 0.95698 0.0
C835 C 0.72111 0.02661 0.02278 0.0
H836 H 0.72517 0.02777 0.94559 0.0
C837 C 0.75196 0.02919 0.02933 0.0
C838 C 0.77332 0.0295 0.00575 0.0
H839 H 0.70532 0.02385 0.04138 0.0
H840 H 0.75915 0.02805 0.05277 0.0
C841 C 0.76304 0.03109 0.97563 0.0
C842 C 0.26763 0.52071 0.68412 0.0
C843 C 0.24108 0.50453 0.67714 0.0
H844 H 0.28938 0.56415 0.6857 0.0
C845 C 0.21728 0.51982 0.66242 0.0
H846 H 0.28646 0.50961 0.69526 0.0
C847 C 0.21877 0.551 0.65748 0.0
C848 C 0.24434 0.56751 0.6665 0.0
H849 H 0.19653 0.50815 0.65649 0.0
H850 H 0.19931 0.56243 0.64782 0.0
C851 C 0.26935 0.55192 0.67856 0.0
C852 C 0.25427 0.47523 0.4707 0.0
C853 C 0.26941 0.49875 0.48594 0.0
H854 H 0.21243 0.45771 0.4545 0.0
C855 C 0.25304 0.52478 0.49431 0.0
H856 H 0.26625 0.45515 0.46316 0.0
C857 C 0.2217 0.52628 0.48913 0.0
C858 C 0.20647 0.50177 0.47551 0.0
H859 H 0.26417 0.54338 0.50583 0.0
H860 H 0.20927 0.54596 0.49696 0.0
C861 C 0.22331 0.47672 0.46557 0.0
C862 C 0.74862 0.80759 0.00361 0.0
C863 C 0.75329 0.77988 0.01864 0.0
H864 H 0.73878 0.82985 0.96171 0.0
C865 C 0.75099 0.75272 0.00221 0.0
H866 H 0.7503 0.82891 0.01568 0.0
C867 C 0.74388 0.75325 0.9714 0.0
C868 C 0.73949 0.78098 0.95632 0.0
H869 H 0.75429 0.73102 0.01323 0.0
H870 H 0.74227 0.73194 0.95931 0.0
C871 C 0.74205 0.80814 0.97271 0.0
C872 C 0.44272 0.43278 0.20508 0.0
C873 C 0.46799 0.4407 0.22274 0.0
H874 H 0.42602 0.42057 0.16139 0.0
C875 C 0.4969 0.4403 0.20934 0.0
H876 H 0.42011 0.43277 0.21463 0.0
C877 C 0.50031 0.43288 0.17871 0.0
C878 C 0.47481 0.42623 0.16087 0.0
H879 H 0.51684 0.44609 0.2224 0.0
H880 H 0.52275 0.43342 0.16878 0.0
C881 C 0.44608 0.42583 0.17449 0.0
C882 C 0.77204 0.27718 0.49201 0.0
C883 C 0.7442 0.27452 0.47691 0.0
H884 H 0.79417 0.27792 0.53515 0.0
C885 C 0.71723 0.27965 0.49288 0.0
H886 H 0.79315 0.27328 0.48004 0.0
C887 C 0.71789 0.28342 0.52425 0.0
C888 C 0.74543 0.28073 0.54 0.0
H889 H 0.69554 0.27782 0.48156 0.0
H890 H 0.69652 0.28421 0.53629 0.0
C891 C 0.77265 0.27987 0.52353 0.0
C892 C 0.9905 0.44066 0.77679 0.0
C893 C 0.01795 0.43454 0.76175 0.0
H894 H 0.96643 0.44041 0.81899 0.0
C895 C 0.04117 0.41959 0.77763 0.0
H896 H 0.972 0.45179 0.76513 0.0
C897 C 0.03797 0.4132 0.80839 0.0
C898 C 0.01138 0.42127 0.82391 0.0
H899 H 0.06248 0.41412 0.76675 0.0
H900 H 0.0569 0.40314 0.82034 0.0
C901 C 0.98717 0.43391 0.80759 0.0
C902 C 0.77554 0.97502 0.4808 0.0
C903 C 0.79312 0.00093 0.47478 0.0
H904 H 0.73116 0.95724 0.48966 0.0
C905 C 0.77851 0.02908 0.47178 0.0
H906 H 0.7861 0.95299 0.48327 0.0
C907 C 0.74733 0.03152 0.47549 0.0
C908 C 0.72971 0.00588 0.4823 0.0
H909 H 0.79118 0.04953 0.46693 0.0
H910 H 0.73715 0.05375 0.47326 0.0
C911 C 0.74408 0.97748 0.48457 0.0
C912 C 0.20967 0.34842 0.30956 0.0
C913 C 0.22512 0.37247 0.3236 0.0
H914 H 0.18873 0.30489 0.31591 0.0
C915 C 0.22558 0.37438 0.35523 0.0
H916 H 0.20928 0.34656 0.28509 0.0
C917 C 0.21332 0.35118 0.37267 0.0
C918 C 0.20102 0.32533 0.35878 0.0
H919 H 0.23718 0.39289 0.36645 0.0
H920 H 0.21603 0.35216 0.39706 0.0
C921 C 0.19772 0.32477 0.32714 0.0
C922 C 0.91298 0.99378 0.61392 0.0
C923 C 0.93691 0.97309 0.61773 0.0
H924 H 0.88309 0.01575 0.58254 0.0
C925 C 0.94628 0.95547 0.59291 0.0
H926 H 0.90493 0.00741 0.63262 0.0
C927 C 0.93298 0.95955 0.56449 0.0
C928 C 0.91072 0.98186 0.56033 0.0
H929 H 0.96456 0.93925 0.59523 0.0
H930 H 0.94127 0.94646 0.54543 0.0
C931 C 0.90044 -0.00141 0.5853 0.0
C932 C 0.27365 0.67001 0.81427 0.0
C933 C 0.29576 0.69271 0.81721 0.0
H934 H 0.24544 0.64465 0.78398 0.0
C935 C 0.3093 0.70457 0.79092 0.0
H936 H 0.26298 0.66015 0.834 0.0
C937 C 0.29984 0.69498 0.76224 0.0
C938 C 0.27615 0.67397 0.7594 0.0
H939 H 0.32649 0.722 0.79249 0.0
H940 H 0.30988 0.70524 0.74232 0.0
C941 C 0.26355 0.66113 0.78563 0.0
C942 C 0.56387 0.06525 0.99267 0.0
C943 C 0.55825 0.03499 0.98481 0.0
H944 H 0.54654 0.10485 0.0149 0.0
C945 C 0.52875 0.0234 0.98717 0.0
H946 H 0.58658 0.07445 0.99126 0.0
C947 C 0.50557 0.04123 -0.0006 0.0
C948 C 0.51206 0.0703 0.01053 0.0
H949 H 0.5241 -1e-05 0.98136 0.0
H950 H 0.48356 0.03107 0.00318 0.0
C951 C 0.54099 0.08265 0.00597 0.0
C952 C 0.22655 0.74203 0.20976 0.0
C953 C 0.20519 0.72521 0.19329 0.0
H954 H 0.25725 0.74267 0.24717 0.0
C955 C 0.19692 0.69624 0.20345 0.0
H956 H 0.23369 0.76423 0.20206 0.0
C957 C 0.20962 0.68442 0.23 0.0
C958 C 0.23181 0.70086 0.24578 0.0
H959 H 0.18076 0.68278 0.19082 0.0
H960 H 0.2028 0.66212 0.23771 0.0
C961 C 0.24025 0.72964 0.23538 0.0
C962 C 0.6004 0.01741 0.38962 0.0
C963 C 0.59753 -0.00177 0.41483 0.0
H964 H 0.58409 0.02928 0.34572 0.0
C965 C 0.57664 0.97425 0.41387 0.0
H966 H 0.61652 0.03592 0.38971 0.0
C967 C 0.55753 0.97079 0.38884 0.0
C968 C 0.55945 0.99094 0.36424 0.0
H969 H 0.57392 0.95925 0.43312 0.0
H970 H 0.54063 0.953 0.38918 0.0
C971 C 0.58178 0.01359 0.36445 0.0
C972 C 0.26234 0.29062 0.69402 0.0
C973 C 0.2895 0.29152 0.67748 0.0
H974 H 0.2259 0.31655 0.71333 0.0
C975 C 0.30335 0.31964 0.67196 0.0
H976 H 0.25105 0.26925 0.69819 0.0
C977 C 0.28942 0.34655 0.68123 0.0
C978 C 0.26083 0.34578 0.69507 0.0
H979 H 0.32402 0.32088 0.65877 0.0
H980 H 0.30004 0.36801 0.67575 0.0
C981 C 0.24775 0.31763 0.70219 0.0
C982 C 0.95359 0.05561 0.01003 0.0
C983 C 0.9224 0.06169 0.01071 0.0
H984 H -0.00333 0.06835 0.99166 0.0
C985 C 0.91151 0.08885 -0.00164 0.0
H986 H 0.96233 0.03457 0.01923 0.0
C987 C 0.93094 0.10758 0.98182 0.0
C988 C 0.96154 0.09968 0.97815 0.0
H989 H 0.88745 0.09374 -0.00161 0.0
H990 H 0.92139 0.1263 0.96911 0.0
C991 C 0.97324 0.075 0.99443 0.0
C992 C 0.28713 0.20276 0.28443 0.0
C993 C 0.29028 0.22046 0.25824 0.0
H994 H 0.27208 0.20108 0.33049 0.0
C995 C 0.27705 0.24938 0.25716 0.0
H996 H 0.29757 0.18056 0.28578 0.0
C997 C 0.26381 0.26172 0.28317 0.0
C998 C 0.26259 0.24472 0.31004 0.0
H999 H 0.2796 0.26354 0.23727 0.0
H1000 H 0.25575 0.28493 0.28269 0.0
C1001 C 0.27285 0.21461 0.31002 0.0
C1002 C 0.98759 0.09162 0.61107 0.0
C1003 C -0.00046 0.06381 0.62082 0.0
H1004 H 0.99193 0.12932 0.58118 0.0
C1005 C 0.0271 0.05357 0.60848 0.0
H1006 H 0.96658 0.10027 0.62038 0.0
C1007 C 0.04155 0.07012 0.58559 0.0
C1008 C 0.0288 0.0973 0.57501 0.0
H1009 H 0.03681 0.03216 0.61556 0.0
H1010 H 0.06208 0.06117 0.57555 0.0
C1011 C 0.00218 0.10829 0.5886 0.0
C1012 C 0.19009 0.79704 0.8151 0.0
C1013 C 0.16055 0.78536 0.81325 0.0
H1014 H 0.23543 0.78996 0.83123 0.0
C1015 C 0.15348 0.75852 0.82885 0.0
H1016 H 0.19617 0.81764 0.8032 0.0
C1017 C 0.17583 0.74256 0.84426 0.0
C1018 C 0.20573 0.75327 0.84487 0.0
H1019 H 0.13085 0.74908 0.82813 0.0
H1020 H 0.16977 0.72143 0.85522 0.0
C1021 C 0.21254 0.78116 0.83099 0.0
C1022 C 0.47419 0.92722 0.06761 0.0
C1023 C 0.45201 0.92324 0.04516 0.0
H1024 H 0.50162 0.95882 0.09228 0.0
C1025 C 0.43775 0.94894 0.03286 0.0
H1026 H 0.48542 0.90795 0.07777 0.0
C1027 C 0.44642 0.97806 0.04187 0.0
C1028 C 0.47007 0.98196 0.06273 0.0
H1029 H 0.42051 0.94657 0.01558 0.0
H1030 H 0.4357 -0.00249 0.03139 0.0
C1031 C 0.48354 0.95633 0.0759 0.0
C1032 C 0.31642 0.80136 0.18418 0.0
C1033 C 0.34248 0.784 0.18979 0.0
H1034 H 0.27209 0.80253 0.16446 0.0
C1035 C 0.34462 0.75472 0.17741 0.0
H1036 H 0.31422 0.82403 0.19335 0.0
C1037 C 0.3205 0.74233 0.16131 0.0
C1038 C 0.29395 0.75917 0.1567 0.0
H1039 H 0.36452 0.74084 0.18106 0.0
H1040 H 0.32239 0.71927 0.15305 0.0
C1041 C 0.29241 0.78911 0.16754 0.0
C1042 C 0.46773 0.09319 0.38626 0.0
C1043 C 0.47087 0.062 0.3816 0.0
H1044 H 0.45098 0.12831 0.41474 0.0
C1045 C 0.45704 0.04167 0.4019 0.0
H1046 H 0.47789 0.10924 0.37069 0.0
C1047 C 0.44219 0.05254 0.42786 0.0
C1048 C 0.44054 0.08387 0.43334 0.0
H1049 H 0.45926 0.01742 0.39862 0.0
H1050 H 0.4334 0.03651 0.44424 0.0
C1051 C 0.45228 0.104 0.41153 0.0
C1052 C 0.1456 0.25571 0.67188 0.0
C1053 C 0.14891 0.23774 0.69801 0.0
H1054 H 0.16732 0.27487 0.63279 0.0
C1055 C 0.17626 0.22231 0.70278 0.0
H1056 H 0.12475 0.26775 0.66745 0.0
C1057 C 0.20019 0.2255 0.68232 0.0
C1058 C 0.19753 0.24494 0.65722 0.0
H1059 H 0.17936 0.20823 0.72266 0.0
H1060 H 0.22137 0.21403 0.68709 0.0
C1061 C 0.16992 0.25976 0.65197 0.0
C1062 C 0.02939 0.95507 0.93437 0.0
C1063 C 0.04438 0.95476 0.96247 0.0
H1064 H 0.00224 0.9806 0.90319 0.0
C1065 C 0.0466 0.9819 0.97904 0.0
H1066 H 0.02759 0.93473 0.9208 0.0
C1067 C 0.03271 0.00839 0.96841 0.0
C1068 C 0.01596 0.00787 0.94145 0.0
H1069 H 0.05809 0.98242 0.0007 0.0
H1070 H 0.03398 0.02886 0.98188 0.0
C1071 C 0.01486 0.98126 0.92423 0.0
C1072 C 0.3235 0.36408 0.25906 0.0
C1073 C 0.30267 0.37001 0.2358 0.0
H1074 H 0.35329 0.33152 0.27932 0.0
C1075 C 0.29873 0.34852 0.21266 0.0
H1076 H 0.32703 0.38024 0.27715 0.0
C1077 C 0.31437 0.321 0.21345 0.0
C1078 C 0.33363 0.3142 0.23782 0.0
H1079 H 0.28289 0.35264 0.19439 0.0
H1080 H 0.30995 0.30433 0.19599 0.0
C1081 C 0.33854 0.33622 0.26029 0.0
C1082 C 0.82504 0.13679 0.74762 0.0
C1083 C 0.80357 0.12954 0.76997 0.0
H1084 H 0.85159 0.17186 0.7269 0.0
C1085 C 0.79562 0.15157 0.79154 0.0
H1086 H 0.83179 0.12025 0.73083 0.0
C1087 C 0.80775 0.18078 0.7899 0.0
C1088 C 0.82734 0.18866 0.76613 0.0
H1089 H 0.7792 0.14652 0.80908 0.0
H1090 H 0.80032 0.19769 0.80609 0.0
C1091 C 0.83638 0.1663 0.74536 0.0
C1092 C 0.04708 0.58781 0.03463 0.0
C1093 C 0.05443 0.60284 0.0075 0.0
H1094 H 0.06217 0.55714 0.06925 0.0
C1095 C 0.08423 0.60145 -0.00344 0.0
H1096 H 0.02422 0.58855 0.04354 0.0
C1097 C 0.10583 0.58393 0.01134 0.0
C1098 C 0.09804 0.56709 0.03719 0.0
H1099 H 0.09067 0.61318 0.97597 0.0
H1100 H 0.12833 0.58252 0.00164 0.0
C1101 C 0.06875 0.5699 0.04934 0.0
C1102 C 0.71774 0.72519 0.27657 0.0
C1103 C 0.68755 0.72159 0.28586 0.0
H1104 H 0.76122 0.74381 0.28725 0.0
C1105 C 0.67921 0.72955 0.31546 0.0
H1106 H 0.72453 0.71923 0.25373 0.0
C1107 C 0.69986 0.74448 0.3342 0.0
C1108 C 0.72929 0.75064 0.32388 0.0
H1109 H 0.65596 0.72712 0.32294 0.0
H1110 H 0.69202 0.75365 0.35559 0.0
C1111 C 0.73874 0.73899 0.29583 0.0
C1112 C 0.93656 0.94838 0.0535 0.0
C1113 C 0.90869 0.95194 0.03862 0.0
H1114 H 0.98182 0.9308 0.05099 0.0
C1115 C 0.90446 0.93818 0.01022 0.0
H1116 H 0.94042 0.9587 0.07542 0.0
C1117 C 0.92808 0.9227 -0.00385 0.0
C1118 C 0.95634 0.92013 0.01038 0.0
H1119 H 0.88315 0.9402 -0.00174 0.0
H1120 H 0.92434 0.91321 0.97383 0.0
C1121 C 0.96019 0.9324 0.03954 0.0
C1122 C 0.2016 0.73319 0.6622 0.0
C1123 C 0.23062 0.72747 0.67377 0.0
H1124 H 0.15709 0.7503 0.67146 0.0
C1125 C 0.23855 0.73872 0.7024 0.0
H1126 H 0.19498 0.72421 0.64034 0.0
C1127 C 0.21659 0.75244 0.72064 0.0
C1128 C 0.18693 0.75611 0.70986 0.0
H1129 H 0.26068 0.73404 0.71192 0.0
H1130 H 0.22221 0.75836 0.74379 0.0
C1131 C 0.17998 0.74797 0.67998 0.0
C1132 C 0.01696 0.45753 0.50041 0.0
C1133 C 0.01591 0.43255 0.48075 0.0
H1134 H 0.03452 0.50215 0.50809 0.0
C1135 C 0.02841 0.43491 0.45166 0.0
H1136 H 0.00753 0.45596 0.52304 0.0
C1137 C 0.04454 0.46088 0.44349 0.0
C1138 C 0.04734 0.48509 0.46392 0.0
H1139 H 0.02805 0.41572 0.43634 0.0
H1140 H 0.05657 0.46123 0.42208 0.0
C1141 C 0.03213 0.48394 0.4918 0.0
C1142 C 0.46534 0.57144 0.95016 0.0
C1143 C 0.46206 0.58184 0.98011 0.0
H1144 H 0.44548 0.54625 0.91363 0.0
C1145 C 0.43461 0.57702 0.99532 0.0
H1146 H 0.4864 0.57474 0.93799 0.0
C1147 C 0.41122 0.56122 0.9813 0.0
C1148 C 0.41497 0.54934 0.95198 0.0
H1149 H 0.43139 0.58499 0.01831 0.0
H1150 H 0.39053 0.55748 0.99396 0.0
C1151 C 0.44201 0.55509 0.93626 0.0
C1152 C 0.7277 0.81298 0.79667 0.0
C1153 C 0.70878 0.78734 0.79701 0.0
H1154 H 0.75661 0.84172 0.7702 0.0
C1155 C 0.70161 0.77313 0.76943 0.0
H1156 H 0.7333 0.82482 0.81735 0.0
C1157 C 0.71415 0.78361 0.74226 0.0
C1158 C 0.73475 0.80781 0.74246 0.0
H1159 H 0.68698 0.75343 0.76895 0.0
H1160 H 0.70879 0.77201 0.72131 0.0
C1161 C 0.7411 0.82269 0.76972 0.0
C1162 C 0.48438 0.4254 0.9859 0.0
C1163 C 0.47428 0.40103 0.00367 0.0
H1164 H 0.47083 0.46499 0.9609 0.0
C1165 C 0.44363 0.39262 0.00248 0.0
H1166 H 0.50789 0.43239 0.98661 0.0
C1167 C 0.42263 0.41116 0.98786 0.0
C1168 C 0.43218 0.43825 0.97443 0.0
H1169 H 0.43536 0.37393 0.01613 0.0
H1170 H 0.3987 0.40617 0.99016 0.0
C1171 C 0.46323 0.44427 0.97164 0.0
C1172 C 0.74191 0.15214 0.37016 0.0
C1173 C 0.76588 0.16895 0.35771 0.0
H1174 H 0.71055 0.11574 0.36426 0.0
C1175 C 0.77846 0.15977 0.32994 0.0
H1176 H 0.73187 0.15844 0.39165 0.0
C1177 C 0.76646 0.13486 0.31439 0.0
C1178 C 0.74144 0.11906 0.32619 0.0
H1179 H 0.79704 0.17224 0.31987 0.0
H1180 H 0.77593 0.12882 0.29256 0.0
C1181 C 0.72966 0.12763 0.35447 0.0
C1182 C 0.07955 0.48199 0.6137 0.0
C1183 C 0.05854 0.5051 0.61977 0.0
H1184 H 0.10907 0.46186 0.58076 0.0
C1185 C 0.05421 0.52823 0.59835 0.0
H1186 H 0.0834 0.46394 0.62985 0.0
C1187 C 0.06944 0.52749 0.57067 0.0
C1188 C 0.0887 0.50316 0.56364 0.0
H1189 H 0.03822 0.54639 0.6026 0.0
H1190 H 0.06471 0.54496 0.55408 0.0
C1191 C 0.09417 0.48077 0.58562 0.0
C1192 C 0.6998 0.1627 0.67192 0.0
C1193 C 0.71226 0.17242 0.64431 0.0
H1194 H 0.70462 0.13308 0.71021 0.0
C1195 C 0.73753 0.15713 0.63241 0.0
H1196 H 0.68035 0.17413 0.68159 0.0
C1197 C 0.75151 0.13413 0.64877 0.0
C1198 C 0.74034 0.1256 0.67725 0.0
H1199 H 0.74744 0.16386 0.61098 0.0
H1200 H 0.77171 0.12367 0.6395 0.0
C1201 C 0.71371 0.13928 0.68827 0.0
C1202 C 0.07323 0.43309 -5e-05 0.0
C1203 C 0.06768 0.46366 0.00662 0.0
H1204 H 0.05588 0.39277 0.97923 0.0
C1205 C 0.03819 0.47523 0.00399 0.0
H1206 H 0.0959 0.42384 0.00177 0.0
C1207 C 0.01497 0.45699 0.99259 0.0
C1208 C 0.02144 0.42754 0.98241 0.0
H1209 H 0.03354 0.49881 0.0091 0.0
H1210 H 0.99294 0.46704 0.98858 0.0
C1211 C 0.05034 0.41527 0.98738 0.0
C1212 C 0.75316 0.81381 0.20809 0.0
C1213 C 0.76581 0.80121 0.23432 0.0
H1214 H 0.75448 0.81641 0.15985 0.0
C1215 C 0.79076 0.78163 0.2318 0.0
H1216 H 0.73416 0.8293 0.2096 0.0
C1217 C 0.80179 0.7734 0.20328 0.0
C1218 C 0.78864 0.78537 0.1769 0.0
H1219 H 0.80093 0.77176 0.25183 0.0
H1220 H 0.82017 0.75718 0.20186 0.0
C1221 C 0.76489 0.80645 0.17964 0.0
C1222 C 0.39005 0.48124 0.39537 0.0
C1223 C 0.39733 0.49879 0.42084 0.0
H1224 H 0.40084 0.47001 0.34957 0.0
C1225 C 0.42065 0.52028 0.41886 0.0
H1226 H 0.37196 0.46468 0.39637 0.0
C1227 C 0.43777 0.52276 0.39233 0.0
C1228 C 0.43129 0.50431 0.36722 0.0
H1229 H 0.4267 0.53397 0.43831 0.0
H1230 H 0.45661 0.53847 0.39178 0.0
C1231 C 0.40658 0.48433 0.36861 0.0
C1232 C 0.79113 0.70671 0.81639 0.0
C1233 C 0.79654 0.73543 0.82913 0.0
H1234 H 0.80869 0.67059 0.78895 0.0
C1235 C 0.82535 0.74845 0.82642 0.0
H1236 H 0.76905 0.69617 0.81814 0.0
C1237 C 0.848 0.73366 0.81021 0.0
C1238 C 0.84215 0.70582 0.79588 0.0
H1239 H 0.83025 0.77037 0.83631 0.0
H1240 H 0.86979 0.7447 0.808 0.0
C1241 C 0.81376 0.69206 0.7997 0.0
C1242 C 0.51828 0.50365 0.00898 0.0
C1243 C 0.52289 0.49381 0.03879 0.0
H1244 H 0.52777 0.53725 0.97544 0.0
C1245 C 0.5419 0.5106 0.05798 0.0
H1246 H 0.5037 0.49114 0.99387 0.0
C1247 C 0.55496 0.53771 0.04777 0.0
C1248 C 0.55019 0.54753 0.0179 0.0
H1249 H 0.54562 0.50342 0.08115 0.0
H1250 H 0.56842 0.55116 0.06325 0.0
C1251 C 0.53228 0.52991 -0.00158 0.0
C1252 C 0.65242 0.27735 0.31453 0.0
C1253 C 0.66257 0.27482 0.28449 0.0
H1254 H 0.6628 0.27094 0.36135 0.0
C1255 C 0.69331 0.26856 0.2789 0.0
H1256 H 0.62896 0.28254 0.31957 0.0
C1257 C 0.71292 0.26235 0.30312 0.0
C1258 C 0.70176 0.26218 0.33291 0.0
H1259 H 0.70169 0.26648 0.25593 0.0
H1260 H 0.736 0.25546 0.29844 0.0
C1261 C 0.67176 0.27083 0.33848 0.0
C1262 C -0.00129 0.38516 0.61024 0.0
C1263 C 0.98927 0.41487 0.61641 0.0
H1264 H 0.99553 0.34693 0.58095 0.0
C1265 C 0.96624 0.42791 0.59865 0.0
H1266 H 0.01611 0.3744 0.6238 0.0
C1267 C 0.95451 0.41215 0.57368 0.0
C1268 C 0.96555 0.38315 0.56647 0.0
H1269 H 0.95863 0.45086 0.60295 0.0
H1270 H 0.9381 0.42324 0.55922 0.0
C1271 C 0.98686 0.36943 0.58568 0.0
C1272 C 0.76854 0.30488 0.72796 0.0
C1273 C 0.77558 0.28481 0.7516 0.0
H1274 H 0.75054 0.30967 0.68315 0.0
C1275 C 0.76484 0.25492 0.75051 0.0
H1276 H 0.77708 0.3279 0.72825 0.0
C1277 C 0.75096 0.24415 0.7242 0.0
C1278 C 0.74656 0.26357 0.6994 0.0
H1279 H 0.77042 0.23899 0.76834 0.0
H1280 H 0.74568 0.22022 0.72239 0.0
C1281 C 0.75359 0.29442 0.70215 0.0
C1282 C 0.95931 0.51918 0.94942 0.0
C1283 C 0.98427 0.51554 0.93004 0.0
H1284 H 0.93196 0.55016 0.97488 0.0
C1285 C -0.00101 0.54135 0.91868 0.0
H1286 H 0.9476 0.49961 0.95853 0.0
C1287 C 0.98935 0.57035 0.92722 0.0
C1288 C 0.96564 0.57391 0.94819 0.0
H1289 H 0.01812 0.53909 0.90346 0.0
H1290 H 0.00142 0.58979 0.91847 0.0
C1291 C 0.95035 0.54808 0.95875 0.0
C1292 C 0.69221 0.68039 0.17883 0.0
C1293 C 0.66188 0.69004 0.17918 0.0
H1294 H 0.7373 0.68956 0.16285 0.0
C1295 C 0.65304 0.71419 0.16043 0.0
H1296 H 0.6996 0.66188 0.19316 0.0
C1297 C 0.6744 0.73008 0.14363 0.0
C1298 C 0.70505 0.72194 0.14484 0.0
H1299 H 0.62974 0.72191 0.15994 0.0
H1300 H 0.66704 0.74952 0.13053 0.0
C1301 C 0.71372 0.69623 0.16158 0.0
C1302 C 0.48351 0.38272 0.37494 0.0
C1303 C 0.49528 0.4116 0.36872 0.0
H1304 H 0.48463 0.34376 0.40349 0.0
C1305 C 0.5198 0.42236 0.38596 0.0
H1306 H 0.46488 0.37367 0.36181 0.0
C1307 C 0.53095 0.40529 0.41032 0.0
C1308 C 0.51796 0.3771 0.41748 0.0
H1309 H 0.52926 0.4446 0.38165 0.0
H1310 H 0.54881 0.41469 0.42423 0.0
C1311 C 0.49488 0.36558 0.39886 0.0
C1312 C 0.81315 0.76333 0.64168 0.0
C1313 C 0.78287 0.76701 0.65069 0.0
H1314 H 0.85719 0.747 0.65398 0.0
C1315 C 0.77235 0.7518 0.67656 0.0
H1316 H 0.82178 0.77529 0.62204 0.0
C1317 C 0.79283 0.7368 0.69549 0.0
C1318 C 0.82368 0.73572 0.6879 0.0
H1319 H 0.7492 0.75472 0.68414 0.0
H1320 H 0.78504 0.72813 0.71711 0.0
C1321 C 0.83339 0.74736 0.66001 0.0
C1322 C 0.27317 0.75172 0.31397 0.0
C1323 C 0.28152 0.73206 0.33755 0.0
H1324 H 0.28883 0.77678 0.2752 0.0
C1325 C 0.31232 0.72882 0.34488 0.0
H1326 H 0.2496 0.75433 0.3077 0.0
C1327 C 0.33453 0.7414 0.32627 0.0
C1328 C 0.32613 0.75737 0.30022 0.0
H1329 H 0.31925 0.71367 0.36293 0.0
H1330 H 0.35811 0.73607 0.33053 0.0
C1331 C 0.29551 0.76411 0.29513 0.0
C1332 C 0.51957 0.04382 0.51556 0.0
C1333 C 0.52579 0.07366 0.5064 0.0
H1334 H 0.5381 0.00013 0.52634 0.0
C1335 C 0.55591 0.08335 0.50412 0.0
H1336 H 0.49641 0.03592 0.51736 0.0
C1337 C 0.57955 0.06331 0.50996 0.0
C1338 C 0.57356 0.03289 0.51726 0.0
H1339 H 0.56118 0.10638 0.49738 0.0
H1340 H 0.60253 0.07149 0.50757 0.0
C1341 C 0.54335 0.02342 0.52063 0.0
C1342 C 0.15395 0.38933 0.73987 0.0
C1343 C 0.18005 0.38358 0.75716 0.0
H1344 H 0.11354 0.37118 0.7204 0.0
C1345 C 0.18295 0.35561 0.77209 0.0
H1346 H 0.15084 0.41083 0.72841 0.0
C1347 C 0.16113 0.33297 0.76785 0.0
C1348 C 0.13649 0.33803 0.74835 0.0
H1349 H 0.20283 0.35061 0.78556 0.0
H1350 H 0.16462 0.31093 0.77809 0.0
C1351 C 0.13256 0.36668 0.73525 0.0
C1352 C 0.44918 0.46923 0.51077 0.0
C1353 C 0.42111 0.4645 0.52502 0.0
H1354 H 0.48735 0.44809 0.48899 0.0
C1355 C 0.41217 0.43492 0.5326 0.0
H1356 H 0.45635 0.49184 0.50441 0.0
C1357 C 0.42957 0.41025 0.52361 0.0
C1358 C 0.45631 0.41484 0.50727 0.0
H1359 H 0.39065 0.43072 0.54366 0.0
H1360 H 0.42129 0.38753 0.52792 0.0
C1361 C 0.46677 0.44435 0.50184 0.0
C1362 C 0.63434 0.1418 0.26348 0.0
C1363 C 0.641 0.16779 0.24638 0.0
H1364 H 0.64554 0.09568 0.27312 0.0
C1365 C 0.66357 0.16637 0.22402 0.0
H1366 H 0.61676 0.14228 0.28062 0.0
C1367 C 0.68058 0.13991 0.22024 0.0
C1368 C 0.67479 0.11429 0.23826 0.0
H1369 H 0.6691 0.18615 0.21057 0.0
H1370 H 0.69886 0.13982 0.20386 0.0
C1371 C 0.65077 0.11511 0.25912 0.0
C1372 C 0.55805 0.92784 0.94478 0.0
C1373 C 0.58715 0.93114 0.95721 0.0
H1374 H 0.51345 0.90933 0.95062 0.0
C1375 C 0.59434 0.91571 0.98409 0.0
H1376 H 0.5519 0.93954 0.9241 0.0
C1377 C 0.57244 0.89897 -0.00065 0.0
C1378 C 0.54291 0.89688 0.98789 0.0
H1379 H 0.61666 0.91752 0.99409 0.0
H1380 H 0.57852 0.8882 0.02055 0.0
C1381 C 0.53608 0.91065 0.95997 0.0
C1382 C 0.98695 0.0283 0.49688 0.0
C1383 C 0.98789 0.05528 0.48007 0.0
H1384 H 0.96739 0.98401 0.50104 0.0
C1385 C 0.97333 0.05681 0.45194 0.0
H1386 H -0.00229 0.02702 0.5189 0.0
C1387 C 0.95551 0.03262 0.44211 0.0
C1388 C 0.95271 0.00644 0.45997 0.0
H1389 H 0.97345 0.07767 0.43897 0.0
H1390 H 0.94207 0.03528 0.42176 0.0
C1391 C 0.96981 0.00373 0.4866 0.0
C1392 C 0.12641 0.19531 0.48225 0.0
C1393 C 0.11885 0.16625 0.47162 0.0
H1394 H 0.15122 0.23623 0.47425 0.0
C1395 C 0.13257 0.15541 0.44504 0.0
H1396 H 0.11603 0.20438 0.50256 0.0
C1397 C 0.1526 0.1737 0.42877 0.0
C1398 C 0.15913 0.20324 0.43868 0.0
H1399 H 0.12713 0.13314 0.43626 0.0
H1400 H 0.1624 0.1649 0.40805 0.0
C1401 C 0.14631 0.21368 0.46587 0.0
C1402 C 0.02211 0.90691 0.73954 0.0
C1403 C 0.0339 0.92894 0.7198 0.0
H1404 H 0.02994 0.86489 0.76275 0.0
C1405 C 0.06384 0.92598 0.70939 0.0
H1406 H -0.0009 0.90867 0.7479 0.0
C1407 C 0.08115 0.90071 0.7173 0.0
C1408 C 0.06913 0.87829 0.73637 0.0
H1409 H 0.0735 0.94253 0.69405 0.0
H1410 H 0.1038 0.89848 0.70811 0.0
C1411 C 0.03974 0.88195 0.74807 0.0
C1412 C 0.38673 0.8198 0.93453 0.0
C1413 C 0.3971 0.80895 0.96254 0.0
H1414 H 0.35639 0.81287 0.8972 0.0
C1415 C 0.38558 0.78162 0.97403 0.0
H1416 H 0.39538 0.84086 0.92532 0.0
C1417 C 0.36428 0.76508 0.95744 0.0
C1418 C 0.35342 0.77628 0.92974 0.0
H1419 H 0.39348 0.77282 0.99554 0.0
H1420 H 0.35577 0.74391 0.96653 0.0
C1421 C 0.36454 0.80388 0.91853 0.0
C1422 C 0.36759 0.1463 0.13845 0.0
C1423 C 0.37611 0.17689 0.14052 0.0
H1424 H 0.37689 0.10288 0.11905 0.0
C1425 C 0.39831 0.1882 0.12077 0.0
H1426 H 0.35038 0.1371 0.15335 0.0
C1427 C 0.41393 0.16846 0.10145 0.0
C1428 C 0.40712 0.13731 0.10126 0.0
H1429 H 0.40534 0.2117 0.12204 0.0
H1430 H 0.43254 0.17726 0.08808 0.0
C1431 C 0.38273 0.12673 0.11873 0.0
C1432 C 0.11666 0.80495 0.08569 0.0
C1433 C 0.14775 0.8074 0.07951 0.0
H1434 H 0.0719 0.82029 0.07503 0.0
C1435 C 0.15767 0.82809 0.05745 0.0
H1436 H 0.10848 0.78918 0.10265 0.0
C1437 C 0.13669 0.84535 0.04111 0.0
C1438 C 0.10559 0.84283 0.04727 0.0
H1439 H 0.18154 0.83023 0.05218 0.0
H1440 H 0.14477 0.86061 0.02366 0.0
C1441 C 0.09579 0.82283 0.07001 0.0
C1442 C 0.47727 0.91318 0.2537 0.0
C1443 C 0.4609 0.93477 0.27057 0.0
H1444 H 0.47728 0.86832 0.23445 0.0
C1445 C 0.43071 0.92863 0.27843 0.0
H1446 H 0.50057 0.91739 0.24728 0.0
C1447 C 0.41784 0.90072 0.27168 0.0
C1448 C 0.43459 0.87853 0.25635 0.0
H1449 H 0.41734 0.94481 0.29118 0.0
H1450 H 0.39491 0.89618 0.27922 0.0
C1451 C 0.46403 0.88522 0.24636 0.0
C1452 C 0.38723 0.1417 0.59314 0.0
C1453 C 0.37525 0.12763 0.56722 0.0
H1454 H 0.37895 0.17266 0.62977 0.0
C1455 C 0.34409 0.1296 0.56149 0.0
H1456 H 0.41134 0.14097 0.59765 0.0
C1457 C 0.32543 0.14673 0.58056 0.0
C1458 C 0.33795 0.16311 0.60481 0.0
H1459 H 0.33451 0.11931 0.54139 0.0
H1460 H 0.30175 0.14939 0.57469 0.0
C1461 C 0.36881 0.15988 0.61145 0.0
C1462 C 0.05247 0.20844 0.84384 0.0
C1463 C 0.06781 0.19708 0.81838 0.0
H1464 H 0.02772 0.19766 0.88432 0.0
C1465 C 0.07258 0.16576 0.8157 0.0
H1466 H 0.04842 0.23255 0.84626 0.0
C1467 C 0.06181 0.14599 0.83799 0.0
C1468 C 0.0452 0.15721 0.8627 0.0
H1469 H 0.08443 0.15656 0.79625 0.0
H1470 H 0.06513 0.12182 0.8351 0.0
C1471 C 0.04071 0.18858 0.86556 0.0
C1472 C 0.22517 0.48906 0.16353 0.0
C1473 C 0.2101 0.47022 0.18434 0.0
H1474 H 0.22336 0.51126 0.12026 0.0
C1475 C 0.18059 0.46038 0.17785 0.0
H1476 H 0.24796 0.49695 0.16803 0.0
C1477 C 0.16695 0.46792 0.15044 0.0
C1478 C 0.18226 0.48601 0.12927 0.0
H1479 H 0.16844 0.44576 0.19339 0.0
H1480 H 0.14449 0.45927 0.14567 0.0
C1481 C 0.21116 0.49722 0.13629 0.0
C1482 C 0.67978 0.03467 0.81555 0.0
C1483 C 0.70986 0.0249 0.81206 0.0
H1484 H 0.64053 0.03566 0.84403 0.0
C1485 C 0.72261 0.00576 0.83408 0.0
H1486 H 0.66938 0.04954 0.79902 0.0
C1487 C 0.70581 -0.00266 0.85964 0.0
C1488 C 0.67633 0.00858 0.86386 0.0
H1489 H 0.74576 -0.0021 0.83192 0.0
H1490 H 0.71634 0.98321 0.87673 0.0
C1491 C 0.66331 0.0269 0.84139 0.0
C1492 C 0.84721 0.87392 0.37228 0.0
C1493 C 0.82479 0.85507 0.38471 0.0
H1494 H 0.8787 0.90992 0.38016 0.0
C1495 C 0.81984 0.85544 0.41616 0.0
H1496 H 0.85151 0.87418 0.34811 0.0
C1497 C 0.8359 0.87558 0.43461 0.0
C1498 C 0.85657 0.89604 0.42171 0.0
H1499 H 0.80271 0.84109 0.42631 0.0
H1500 H 0.83074 0.87645 0.45859 0.0
C1501 C 0.8627 0.89447 0.39057 0.0
C1502 C 0.76906 0.00559 0.16615 0.0
C1503 C 0.78003 0.02556 0.18838 0.0
H1504 H 0.77639 0.98561 0.12239 0.0
C1505 C 0.80815 0.03975 0.1839 0.0
H1506 H 0.74743 0.99438 0.16903 0.0
C1507 C 0.82425 0.03533 0.15704 0.0
C1508 C 0.81292 0.01606 0.13445 0.0
H1509 H 0.81712 0.05539 0.20054 0.0
H1510 H 0.84539 0.04736 0.15376 0.0
C1511 C 0.7856 0.00057 0.13952 0.0
C1512 C 0.33045 0.61366 0.54883 0.0
C1513 C 0.34829 0.5894 0.55893 0.0
H1514 H 0.30394 0.65226 0.56189 0.0
C1515 C 0.35792 0.58859 0.58919 0.0
H1516 H 0.32281 0.61465 0.52553 0.0
C1517 C 0.34798 0.61046 0.60971 0.0
C1518 C 0.32749 0.63293 0.60041 0.0
H1519 H 0.37197 0.57015 0.59733 0.0
H1520 H 0.35418 0.60809 0.63333 0.0
C1521 C 0.31976 0.63513 0.56958 0.0
C1522 C 0.1796 0.63776 0.42498 0.0
C1523 C 0.17301 0.64033 0.39393 0.0
H1524 H 0.16842 0.61607 0.46703 0.0
C1525 C 0.14689 0.62632 0.38243 0.0
H1526 H 0.1995 0.64851 0.43445 0.0
C1527 C 0.1295 0.6075 0.4009 0.0
C1528 C 0.13749 0.60301 0.43131 0.0
H1529 H 0.14117 0.62799 0.35863 0.0
H1530 H 0.11086 0.59503 0.39095 0.0
C1531 C 0.16171 0.61942 0.44366 0.0
C1532 C 0.29298 0.49595 0.8496 0.0
C1533 C 0.32228 0.48461 0.85458 0.0
H1534 H 0.25414 0.49578 0.82034 0.0
C1535 C 0.33657 0.46765 0.83186 0.0
H1536 H 0.28157 0.50909 0.86693 0.0
C1537 C 0.32129 0.46049 0.80531 0.0
C1538 C 0.29112 0.46967 0.80114 0.0
H1539 H 0.35933 0.45901 0.83505 0.0
H1540 H 0.3327 0.44639 0.78876 0.0
C1541 C 0.27735 0.48831 0.82305 0.0
C1542 C 0.59666 0.68812 0.92077 0.0
C1543 C 0.60682 0.66555 0.94078 0.0
H1544 H 0.60924 0.72328 0.88956 0.0
C1545 C 0.63798 0.66017 0.94373 0.0
H1546 H 0.57269 0.69279 0.91833 0.0
C1547 C 0.6587 0.67695 0.92673 0.0
C1548 C 0.64863 0.7 0.90724 0.0
H1549 H 0.64631 0.64287 0.95903 0.0
H1550 H 0.68267 0.6724 0.92944 0.0
C1551 C 0.61748 0.70559 0.90446 0.0
C1552 C 0.57025 0.29436 0.13503 0.0
C1553 C 0.58713 0.30626 0.15916 0.0
H1554 H 0.54375 0.30444 0.09557 0.0
C1555 C 0.59395 0.33731 0.15967 0.0
H1556 H 0.56465 0.27046 0.13431 0.0
C1557 C 0.58289 0.35651 0.13712 0.0
C1558 C 0.56403 0.34506 0.11427 0.0
H1559 H 0.60705 0.3469 0.17807 0.0
H1560 H 0.58736 0.3806 0.13881 0.0
C1561 C 0.55835 0.31374 0.11296 0.0
C1562 C 0.86442 0.26885 0.44457 0.0
C1563 C 0.85053 0.28101 0.41865 0.0
H1564 H 0.89613 0.2755 0.48044 0.0
C1565 C 0.8592 0.30994 0.40852 0.0
H1566 H 0.8581 0.24672 0.45311 0.0
C1567 C 0.8811 0.32653 0.4243 0.0
C1568 C 0.89436 0.3146 0.45066 0.0
H1569 H 0.84873 0.31995 0.38872 0.0
H1570 H 0.88737 0.3488 0.41607 0.0
C1571 C 0.88597 0.28552 0.46047 0.0
C1572 C 0.95778 0.60111 0.74048 0.0
C1573 C 0.93033 0.60809 0.72607 0.0
H1574 H 0.99429 0.56928 0.74467 0.0
C1575 C 0.91686 0.58654 0.70698 0.0
H1576 H 0.96856 0.61739 0.75533 0.0
C1577 C 0.9311 0.55886 0.70151 0.0
C1578 C 0.95944 0.55252 0.71445 0.0
H1579 H 0.89552 0.5913 0.69585 0.0
H1580 H 0.92061 0.54308 0.68592 0.0
C1581 C 0.97244 0.57363 0.73441 0.0
C1582 C 0.5962 0.32218 0.56515 0.0
C1583 C 0.58914 0.31113 0.53617 0.0
H1584 H 0.62241 0.31641 0.60546 0.0
C1585 C 0.60356 0.28473 0.52569 0.0
H1586 H 0.58531 0.34236 0.57395 0.0
C1587 C 0.62463 0.26968 0.5439 0.0
C1588 C 0.63167 0.28077 0.57289 0.0
H1589 H 0.59841 0.27554 0.50353 0.0
H1590 H 0.63564 0.24957 0.53509 0.0
C1591 C 0.61727 0.30717 0.58332 0.0
C1592 C 0.90002 0.31387 0.87523 0.0
C1593 C 0.87598 0.32638 0.85859 0.0
H1594 H 0.9387 0.32283 0.90312 0.0
C1595 C 0.86959 0.35742 0.8614 0.0
H1596 H 0.90549 0.29 0.87331 0.0
C1597 C 0.8883 0.37611 0.87865 0.0
C1598 C 0.91409 0.36417 0.89296 0.0
H1599 H 0.85106 0.36756 0.8489 0.0
H1600 H 0.88369 0.40023 0.87902 0.0
C1601 C 0.91911 0.33269 0.89213 0.0
C1602 C 0.86805 0.72448 0.03702 0.0
C1603 C 0.85679 0.71128 0.06367 0.0
H1604 H 0.89933 0.72044 -5e-05 0.0
C1605 C 0.86932 0.68404 0.07422 0.0
H1606 H 0.85849 0.74542 0.02847 0.0
C1607 C 0.89326 0.6704 0.05858 0.0
C1608 C 0.90404 0.6832 0.03154 0.0
H1609 H 0.86089 0.67356 0.09476 0.0
H1610 H 0.90292 0.64954 0.06722 0.0
C1611 C 0.89117 0.71018 0.02071 0.0
C1612 C 0.58201 0.5785 0.27815 0.0
C1613 C 0.57064 0.60006 0.25772 0.0
H1614 H 0.57399 0.53706 0.30204 0.0
C1615 C 0.5422 0.59529 0.24433 0.0
H1616 H 0.60397 0.58158 0.28864 0.0
C1617 C 0.52478 0.57007 0.25242 0.0
C1618 C 0.53586 0.54891 0.27346 0.0
H1619 H 0.53291 0.61164 0.22856 0.0
H1620 H 0.50245 0.56744 0.24263 0.0
C1621 C 0.56493 0.55296 0.28568 0.0
C1622 C 0.6808 0.8934 0.54077 0.0
C1623 C 0.66107 0.91534 0.55264 0.0
H1624 H 0.71184 0.85733 0.55086 0.0
C1625 C 0.65436 0.91521 0.58369 0.0
H1626 H 0.68642 0.89328 0.51688 0.0
C1627 C 0.66813 0.89422 0.6029 0.0
C1628 C 0.68957 0.87367 0.59147 0.0
H1629 H 0.63914 0.93195 0.59326 0.0
H1630 H 0.66343 0.89538 0.62696 0.0
C1631 C 0.69535 0.87297 0.56017 0.0
loop_
_geom_bond_atom_site_label_1
_geom_bond_atom_site_label_2
_geom_bond_distance
_geom_bond_site_symmetry_2
_ccdc_geom_bond_type
Co0 O1 2.216 . S
Co0 O2 2.091 . S
Co0 O4 2.004 . S
Co0 O10 2.021 . S
Co0 O12 2.137 . S
Co0 O13 2.244 . S
O1 Co0 2.216 . S
O1 C8 1.247 . S
O2 Co0 2.091 . S
O2 C8 1.261 . S
C3 O12 1.247 . S
C3 O13 1.272 . S
O4 Co0 2.004 . S
O4 C9 1.259 . S
Co5 O6 2.061 . S
Co5 O11 2.052 . S
Co5 O13 2.135 . S
O6 Co5 2.061 . S
O6 C9 1.235 . S
C7 O10 1.238 . S
C7 O11 1.241 . S
C8 O1 1.247 . S
C8 O2 1.261 . S
C9 O4 1.259 . S
C9 O6 1.235 . S
O10 Co0 2.021 . S
O10 C7 1.238 . S
O11 Co5 2.052 . S
O11 C7 1.241 . S
O12 Co0 2.137 . S
O12 C3 1.247 . S
O13 Co0 2.244 . S
O13 C3 1.272 . S
O13 Co5 2.135 . S
Co14 O15 2.216 . S
Co14 O16 2.091 . S
Co14 O18 2.004 1_565 S
Co14 O24 2.021 . S
Co14 O26 2.137 . S
Co14 O27 2.244 1_455 S
O15 Co14 2.216 . S
O15 C22 1.247 . S
O16 Co14 2.091 . S
O16 C22 1.261 . S
C17 O26 1.247 1_655 S
C17 O27 1.272 . S
O18 Co14 2.004 1_545 S
O18 C23 1.259 . S
Co19 O20 2.061 1_655 S
Co19 O25 2.052 1_655 S
Co19 O27 2.135 1_545 S
O20 Co19 2.061 1_455 S
O20 C23 1.235 . S
C21 O24 1.238 1_545 S
C21 O25 1.241 . S
C22 O15 1.247 . S
C22 O16 1.261 . S
C23 O18 1.259 . S
C23 O20 1.235 . S
O24 Co14 2.021 . S
O24 C21 1.238 1_565 S
O25 Co19 2.052 1_455 S
O25 C21 1.241 . S
O26 Co14 2.137 . S
O26 C17 1.247 1_455 S
O27 Co14 2.244 1_655 S
O27 C17 1.272 . S
O27 Co19 2.135 1_565 S
Co28 O29 2.216 . S
Co28 O30 2.091 . S
Co28 O32 2.004 . S
Co28 O38 2.021 . S
Co28 O40 2.137 . S
Co28 O41 2.244 . S
O29 Co28 2.216 . S
O29 C36 1.247 . S
O30 Co28 2.091 . S
O30 C36 1.261 . S
C31 O40 1.247 . S
C31 O41 1.272 . S
O32 Co28 2.004 . S
O32 C37 1.259 . S
Co33 O34 2.061 . S
Co33 O39 2.052 . S
Co33 O41 2.135 . S
O34 Co33 2.061 . S
O34 C37 1.235 . S
C35 O38 1.238 . S
C35 O39 1.241 . S
C36 O29 1.247 . S
C36 O30 1.261 . S
C37 O32 1.259 . S
C37 O34 1.235 . S
O38 Co28 2.021 . S
O38 C35 1.238 . S
O39 Co33 2.052 . S
O39 C35 1.241 . S
O40 Co28 2.137 . S
O40 C31 1.247 . S
O41 Co28 2.244 . S
O41 C31 1.272 . S
O41 Co33 2.135 . S
Co42 O43 2.216 . S
Co42 O44 2.091 . S
Co42 O46 2.004 1_545 S
Co42 O52 2.021 . S
Co42 O54 2.137 . S
Co42 O55 2.244 . S
O43 Co42 2.216 . S
O43 C50 1.247 . S
O44 Co42 2.091 . S
O44 C50 1.261 . S
C45 O54 1.247 . S
C45 O55 1.272 . S
O46 Co42 2.004 1_565 S
O46 C51 1.259 . S
Co47 O48 2.061 . S
Co47 O53 2.052 . S
Co47 O55 2.135 1_565 S
O48 Co47 2.061 . S
O48 C51 1.235 . S
C49 O52 1.238 1_565 S
C49 O53 1.241 . S
C50 O43 1.247 . S
C50 O44 1.261 . S
C51 O46 1.259 . S
C51 O48 1.235 . S
O52 Co42 2.021 . S
O52 C49 1.238 1_545 S
O53 Co47 2.052 . S
O53 C49 1.241 . S
O54 Co42 2.137 . S
O54 C45 1.247 . S
O55 Co42 2.244 . S
O55 C45 1.272 . S
O55 Co47 2.135 1_545 S
Co56 O57 2.216 . S
Co56 O58 2.091 . S
Co56 O60 2.004 . S
Co56 O66 2.021 . S
Co56 O68 2.137 . S
Co56 O69 2.244 . S
O57 Co56 2.216 . S
O57 C64 1.247 . S
O58 Co56 2.091 . S
O58 C64 1.261 . S
C59 O68 1.247 . S
C59 O69 1.272 . S
O60 Co56 2.004 . S
O60 C65 1.259 . S
Co61 O62 2.061 . S
Co61 O67 2.052 . S
Co61 O69 2.135 . S
O62 Co61 2.061 . S
O62 C65 1.235 . S
C63 O66 1.238 . S
C63 O67 1.241 . S
C64 O57 1.247 . S
C64 O58 1.261 . S
C65 O60 1.259 . S
C65 O62 1.235 . S
O66 Co56 2.021 . S
O66 C63 1.238 . S
O67 Co61 2.052 . S
O67 C63 1.241 . S
O68 Co56 2.137 . S
O68 C59 1.247 . S
O69 Co56 2.244 . S
O69 C59 1.272 . S
O69 Co61 2.135 . S
Co70 O71 2.216 . S
Co70 O72 2.091 . S
Co70 O74 2.004 1_565 S
Co70 O80 2.021 . S
Co70 O82 2.137 . S
Co70 O83 2.244 . S
O71 Co70 2.216 . S
O71 C78 1.247 . S
O72 Co70 2.091 . S
O72 C78 1.261 . S
C73 O82 1.247 . S
C73 O83 1.272 . S
O74 Co70 2.004 1_545 S
O74 C79 1.259 . S
Co75 O76 2.061 . S
Co75 O81 2.052 . S
Co75 O83 2.135 1_545 S
O76 Co75 2.061 . S
O76 C79 1.235 . S
C77 O80 1.238 1_545 S
C77 O81 1.241 . S
C78 O71 1.247 . S
C78 O72 1.261 . S
C79 O74 1.259 . S
C79 O76 1.235 . S
O80 Co70 2.021 . S
O80 C77 1.238 1_565 S
O81 Co75 2.052 . S
O81 C77 1.241 . S
O82 Co70 2.137 . S
O82 C73 1.247 . S
O83 Co70 2.244 . S
O83 C73 1.272 . S
O83 Co75 2.135 1_565 S
Co84 O85 2.216 . S
Co84 O86 2.091 . S
Co84 O88 2.004 . S
Co84 O94 2.021 . S
Co84 O96 2.137 . S
Co84 O97 2.244 . S
O85 Co84 2.216 . S
O85 C92 1.247 . S
O86 Co84 2.091 . S
O86 C92 1.261 . S
C87 O96 1.247 . S
C87 O97 1.272 . S
O88 Co84 2.004 . S
O88 C93 1.259 . S
Co89 O90 2.061 . S
Co89 O95 2.052 . S
Co89 O97 2.135 . S
O90 Co89 2.061 . S
O90 C93 1.235 . S
C91 O94 1.238 . S
C91 O95 1.241 . S
C92 O85 1.247 . S
C92 O86 1.261 . S
C93 O88 1.259 . S
C93 O90 1.235 . S
O94 Co84 2.021 . S
O94 C91 1.238 . S
O95 Co89 2.052 . S
O95 C91 1.241 . S
O96 Co84 2.137 . S
O96 C87 1.247 . S
O97 Co84 2.244 . S
O97 C87 1.272 . S
O97 Co89 2.135 . S
Co98 O99 2.216 . S
Co98 O100 2.091 . S
Co98 O102 2.004 1_545 S
Co98 O108 2.021 . S
Co98 O110 2.137 . S
Co98 O111 2.244 1_455 S
O99 Co98 2.216 . S
O99 C106 1.247 . S
O100 Co98 2.091 . S
O100 C106 1.261 . S
C101 O110 1.247 1_655 S
C101 O111 1.272 . S
O102 Co98 2.004 1_565 S
O102 C107 1.259 . S
Co103 O104 2.061 1_655 S
Co103 O109 2.052 1_655 S
Co103 O111 2.135 1_565 S
O104 Co103 2.061 1_455 S
O104 C107 1.235 . S
C105 O108 1.238 1_565 S
C105 O109 1.241 . S
C106 O99 1.247 . S
C106 O100 1.261 . S
C107 O102 1.259 . S
C107 O104 1.235 . S
O108 Co98 2.021 . S
O108 C105 1.238 1_545 S
O109 Co103 2.052 1_455 S
O109 C105 1.241 . S
O110 Co98 2.137 . S
O110 C101 1.247 1_455 S
O111 Co98 2.244 1_655 S
O111 C101 1.272 . S
O111 Co103 2.135 1_545 S
Co112 O113 2.216 . S
Co112 O114 2.091 . S
Co112 O116 2.004 . S
Co112 O122 2.021 . S
Co112 O124 2.137 . S
Co112 O125 2.244 . S
O113 Co112 2.216 . S
O113 C120 1.247 . S
O114 Co112 2.091 . S
O114 C120 1.261 . S
C115 O124 1.247 . S
C115 O125 1.272 . S
O116 Co112 2.004 . S
O116 C121 1.259 . S
Co117 O118 2.061 . S
Co117 O123 2.052 . S
Co117 O125 2.135 . S
O118 Co117 2.061 . S
O118 C121 1.235 . S
C119 O122 1.238 . S
C119 O123 1.241 . S
C120 O113 1.247 . S
C120 O114 1.261 . S
C121 O116 1.259 . S
C121 O118 1.235 . S
O122 Co112 2.021 . S
O122 C119 1.238 . S
O123 Co117 2.052 . S
O123 C119 1.241 . S
O124 Co112 2.137 . S
O124 C115 1.247 . S
O125 Co112 2.244 . S
O125 C115 1.272 . S
O125 Co117 2.135 . S
Co126 O127 2.216 . S
Co126 O128 2.091 . S
Co126 O130 2.004 1_455 S
Co126 O136 2.021 . S
Co126 O138 2.137 . S
Co126 O139 2.244 . S
O127 Co126 2.216 . S
O127 C134 1.247 . S
O128 Co126 2.091 . S
O128 C134 1.261 . S
C129 O138 1.247 . S
C129 O139 1.272 . S
O130 Co126 2.004 1_655 S
O130 C135 1.259 . S
Co131 O132 2.061 . S
Co131 O137 2.052 . S
Co131 O139 2.135 1_655 S
O132 Co131 2.061 . S
O132 C135 1.235 . S
C133 O136 1.238 1_655 S
C133 O137 1.241 . S
C134 O127 1.247 . S
C134 O128 1.261 . S
C135 O130 1.259 . S
C135 O132 1.235 . S
O136 Co126 2.021 . S
O136 C133 1.238 1_455 S
O137 Co131 2.052 . S
O137 C133 1.241 . S
O138 Co126 2.137 . S
O138 C129 1.247 . S
O139 Co126 2.244 . S
O139 C129 1.272 . S
O139 Co131 2.135 1_455 S
Co140 O141 2.216 . S
Co140 O142 2.091 . S
Co140 O144 2.004 . S
Co140 O150 2.021 . S
Co140 O152 2.137 . S
Co140 O153 2.244 . S
O141 Co140 2.216 . S
O141 C148 1.247 . S
O142 Co140 2.091 . S
O142 C148 1.261 . S
C143 O152 1.247 . S
C143 O153 1.272 . S
O144 Co140 2.004 . S
O144 C149 1.259 . S
Co145 O146 2.061 . S
Co145 O151 2.052 . S
Co145 O153 2.135 . S
O146 Co145 2.061 . S
O146 C149 1.235 . S
C147 O150 1.238 . S
C147 O151 1.241 . S
C148 O141 1.247 . S
C148 O142 1.261 . S
C149 O144 1.259 . S
C149 O146 1.235 . S
O150 Co140 2.021 . S
O150 C147 1.238 . S
O151 Co145 2.052 . S
O151 C147 1.241 . S
O152 Co140 2.137 . S
O152 C143 1.247 . S
O153 Co140 2.244 . S
O153 C143 1.272 . S
O153 Co145 2.135 . S
Co154 O155 2.216 . S
Co154 O156 2.091 . S
Co154 O158 2.004 . S
Co154 O164 2.021 . S
Co154 O166 2.137 . S
Co154 O167 2.244 1_556 S
O155 Co154 2.216 . S
O155 C162 1.247 . S
O156 Co154 2.091 . S
O156 C162 1.261 . S
C157 O166 1.247 1_554 S
C157 O167 1.272 . S
O158 Co154 2.004 . S
O158 C163 1.259 . S
Co159 O160 2.061 1_554 S
Co159 O165 2.052 1_554 S
Co159 O167 2.135 . S
O160 Co159 2.061 1_556 S
O160 C163 1.235 . S
C161 O164 1.238 . S
C161 O165 1.241 . S
C162 O155 1.247 . S
C162 O156 1.261 . S
C163 O158 1.259 . S
C163 O160 1.235 . S
O164 Co154 2.021 . S
O164 C161 1.238 . S
O165 Co159 2.052 1_556 S
O165 C161 1.241 . S
O166 Co154 2.137 . S
O166 C157 1.247 1_556 S
O167 Co154 2.244 1_554 S
O167 C157 1.272 . S
O167 Co159 2.135 . S
Co168 O169 2.216 . S
Co168 O170 2.091 . S
Co168 O172 2.004 . S
Co168 O178 2.021 . S
Co168 O180 2.137 . S
Co168 O181 2.244 . S
O169 Co168 2.216 . S
O169 C176 1.247 . S
O170 Co168 2.091 . S
O170 C176 1.261 . S
C171 O180 1.247 . S
C171 O181 1.272 . S
O172 Co168 2.004 . S
O172 C177 1.259 . S
Co173 O174 2.061 . S
Co173 O179 2.052 . S
Co173 O181 2.135 . S
O174 Co173 2.061 . S
O174 C177 1.235 . S
C175 O178 1.238 . S
C175 O179 1.241 . S
C176 O169 1.247 . S
C176 O170 1.261 . S
C177 O172 1.259 . S
C177 O174 1.235 . S
O178 Co168 2.021 . S
O178 C175 1.238 . S
O179 Co173 2.052 . S
O179 C175 1.241 . S
O180 Co168 2.137 . S
O180 C171 1.247 . S
O181 Co168 2.244 . S
O181 C171 1.272 . S
O181 Co173 2.135 . S
Co182 O183 2.216 . S
Co182 O184 2.091 . S
Co182 O186 2.004 . S
Co182 O192 2.021 . S
Co182 O194 2.137 . S
Co182 O195 2.244 . S
O183 Co182 2.216 . S
O183 C190 1.247 . S
O184 Co182 2.091 . S
O184 C190 1.261 . S
C185 O194 1.247 . S
C185 O195 1.272 . S
O186 Co182 2.004 . S
O186 C191 1.259 . S
Co187 O188 2.061 . S
Co187 O193 2.052 . S
Co187 O195 2.135 . S
O188 Co187 2.061 . S
O188 C191 1.235 . S
C189 O192 1.238 . S
C189 O193 1.241 . S
C190 O183 1.247 . S
C190 O184 1.261 . S
C191 O186 1.259 . S
C191 O188 1.235 . S
O192 Co182 2.021 . S
O192 C189 1.238 . S
O193 Co187 2.052 . S
O193 C189 1.241 . S
O194 Co182 2.137 . S
O194 C185 1.247 . S
O195 Co182 2.244 . S
O195 C185 1.272 . S
O195 Co187 2.135 . S
Co196 O197 2.216 . S
Co196 O198 2.091 . S
Co196 O200 2.004 . S
Co196 O206 2.021 . S
Co196 O208 2.137 . S
Co196 O209 2.244 . S
O197 Co196 2.216 . S
O197 C204 1.247 . S
O198 Co196 2.091 . S
O198 C204 1.261 . S
C199 O208 1.247 . S
C199 O209 1.272 . S
O200 Co196 2.004 . S
O200 C205 1.259 . S
Co201 O202 2.061 . S
Co201 O207 2.052 . S
Co201 O209 2.135 . S
O202 Co201 2.061 . S
O202 C205 1.235 . S
C203 O206 1.238 . S
C203 O207 1.241 . S
C204 O197 1.247 . S
C204 O198 1.261 . S
C205 O200 1.259 . S
C205 O202 1.235 . S
O206 Co196 2.021 . S
O206 C203 1.238 . S
O207 Co201 2.052 . S
O207 C203 1.241 . S
O208 Co196 2.137 . S
O208 C199 1.247 . S
O209 Co196 2.244 . S
O209 C199 1.272 . S
O209 Co201 2.135 . S
Co210 O211 2.216 . S
Co210 O212 2.091 . S
Co210 O214 2.004 1_455 S
Co210 O220 2.021 . S
Co210 O222 2.137 . S
Co210 O223 2.244 1_554 S
O211 Co210 2.216 . S
O211 C218 1.247 . S
O212 Co210 2.091 . S
O212 C218 1.261 . S
C213 O222 1.247 1_556 S
C213 O223 1.272 . S
O214 Co210 2.004 1_655 S
O214 C219 1.259 . S
Co215 O216 2.061 1_556 S
Co215 O221 2.052 1_556 S
Co215 O223 2.135 1_655 S
O216 Co215 2.061 1_554 S
O216 C219 1.235 . S
C217 O220 1.238 1_655 S
C217 O221 1.241 . S
C218 O211 1.247 . S
C218 O212 1.261 . S
C219 O214 1.259 . S
C219 O216 1.235 . S
O220 Co210 2.021 . S
O220 C217 1.238 1_455 S
O221 Co215 2.052 1_554 S
O221 C217 1.241 . S
O222 Co210 2.137 . S
O222 C213 1.247 1_554 S
O223 Co210 2.244 1_556 S
O223 C213 1.272 . S
O223 Co215 2.135 1_455 S
Co224 O225 2.216 . S
Co224 O226 2.091 . S
Co224 O228 2.004 . S
Co224 O234 2.021 . S
Co224 O236 2.137 . S
Co224 O237 2.244 . S
O225 Co224 2.216 . S
O225 C232 1.247 . S
O226 Co224 2.091 . S
O226 C232 1.261 . S
C227 O236 1.247 . S
C227 O237 1.272 . S
O228 Co224 2.004 . S
O228 C233 1.259 . S
Co229 O230 2.061 . S
Co229 O235 2.052 . S
Co229 O237 2.135 . S
O230 Co229 2.061 . S
O230 C233 1.235 . S
C231 O234 1.238 . S
C231 O235 1.241 . S
C232 O225 1.247 . S
C232 O226 1.261 . S
C233 O228 1.259 . S
C233 O230 1.235 . S
O234 Co224 2.021 . S
O234 C231 1.238 . S
O235 Co229 2.052 . S
O235 C231 1.241 . S
O236 Co224 2.137 . S
O236 C227 1.247 . S
O237 Co224 2.244 . S
O237 C227 1.272 . S
O237 Co229 2.135 . S
Co238 O239 2.216 . S
Co238 O240 2.091 . S
Co238 O242 2.004 . S
Co238 O248 2.021 . S
Co238 O250 2.137 . S
Co238 O251 2.244 . S
O239 Co238 2.216 . S
O239 C246 1.247 . S
O240 Co238 2.091 . S
O240 C246 1.261 . S
C241 O250 1.247 . S
C241 O251 1.272 . S
O242 Co238 2.004 . S
O242 C247 1.259 . S
Co243 O244 2.061 . S
Co243 O249 2.052 . S
Co243 O251 2.135 . S
O244 Co243 2.061 . S
O244 C247 1.235 . S
C245 O248 1.238 . S
C245 O249 1.241 . S
C246 O239 1.247 . S
C246 O240 1.261 . S
C247 O242 1.259 . S
C247 O244 1.235 . S
O248 Co238 2.021 . S
O248 C245 1.238 . S
O249 Co243 2.052 . S
O249 C245 1.241 . S
O250 Co238 2.137 . S
O250 C241 1.247 . S
O251 Co238 2.244 . S
O251 C241 1.272 . S
O251 Co243 2.135 . S
Co252 O253 2.216 . S
Co252 O254 2.091 . S
Co252 O256 2.004 1_554 S
Co252 O262 2.021 . S
Co252 O264 2.137 . S
Co252 O265 2.244 . S
O253 Co252 2.216 . S
O253 C260 1.247 . S
O254 Co252 2.091 . S
O254 C260 1.261 . S
C255 O264 1.247 . S
C255 O265 1.272 . S
O256 Co252 2.004 1_556 S
O256 C261 1.259 . S
Co257 O258 2.061 . S
Co257 O263 2.052 . S
Co257 O265 2.135 1_556 S
O258 Co257 2.061 . S
O258 C261 1.235 . S
C259 O262 1.238 1_556 S
C259 O263 1.241 . S
C260 O253 1.247 . S
C260 O254 1.261 . S
C261 O256 1.259 . S
C261 O258 1.235 . S
O262 Co252 2.021 . S
O262 C259 1.238 1_554 S
O263 Co257 2.052 . S
O263 C259 1.241 . S
O264 Co252 2.137 . S
O264 C255 1.247 . S
O265 Co252 2.244 . S
O265 C255 1.272 . S
O265 Co257 2.135 1_554 S
Co266 O267 2.216 . S
Co266 O268 2.091 . S
Co266 O270 2.004 . S
Co266 O276 2.021 . S
Co266 O278 2.137 . S
Co266 O279 2.244 . S
O267 Co266 2.216 . S
O267 C274 1.247 . S
O268 Co266 2.091 . S
O268 C274 1.261 . S
C269 O278 1.247 . S
C269 O279 1.272 . S
O270 Co266 2.004 . S
O270 C275 1.259 . S
Co271 O272 2.061 . S
Co271 O277 2.052 . S
Co271 O279 2.135 . S
O272 Co271 2.061 . S
O272 C275 1.235 . S
C273 O276 1.238 . S
C273 O277 1.241 . S
C274 O267 1.247 . S
C274 O268 1.261 . S
C275 O270 1.259 . S
C275 O272 1.235 . S
O276 Co266 2.021 . S
O276 C273 1.238 . S
O277 Co271 2.052 . S
O277 C273 1.241 . S
O278 Co266 2.137 . S
O278 C269 1.247 . S
O279 Co266 2.244 . S
O279 C269 1.272 . S
O279 Co271 2.135 . S
Co280 O281 2.216 . S
Co280 O282 2.091 . S
Co280 O284 2.004 1_554 S
Co280 O290 2.021 . S
Co280 O292 2.137 . S
Co280 O293 2.244 1_545 S
O281 Co280 2.216 . S
O281 C288 1.247 . S
O282 Co280 2.091 . S
O282 C288 1.261 . S
C283 O292 1.247 1_565 S
C283 O293 1.272 . S
O284 Co280 2.004 1_556 S
O284 C289 1.259 . S
Co285 O286 2.061 1_565 S
Co285 O291 2.052 1_565 S
Co285 O293 2.135 1_556 S
O286 Co285 2.061 1_545 S
O286 C289 1.235 . S
C287 O290 1.238 1_556 S
C287 O291 1.241 . S
C288 O281 1.247 . S
C288 O282 1.261 . S
C289 O284 1.259 . S
C289 O286 1.235 . S
O290 Co280 2.021 . S
O290 C287 1.238 1_554 S
O291 Co285 2.052 1_545 S
O291 C287 1.241 . S
O292 Co280 2.137 . S
O292 C283 1.247 1_545 S
O293 Co280 2.244 1_565 S
O293 C283 1.272 . S
O293 Co285 2.135 1_554 S
Co294 O295 2.216 . S
Co294 O296 2.091 . S
Co294 O298 2.004 . S
Co294 O304 2.021 . S
Co294 O306 2.137 . S
Co294 O307 2.244 . S
O295 Co294 2.216 . S
O295 C302 1.247 . S
O296 Co294 2.091 . S
O296 C302 1.261 . S
C297 O306 1.247 . S
C297 O307 1.272 . S
O298 Co294 2.004 . S
O298 C303 1.259 . S
Co299 O300 2.061 . S
Co299 O305 2.052 . S
Co299 O307 2.135 . S
O300 Co299 2.061 . S
O300 C303 1.235 . S
C301 O304 1.238 . S
C301 O305 1.241 . S
C302 O295 1.247 . S
C302 O296 1.261 . S
C303 O298 1.259 . S
C303 O300 1.235 . S
O304 Co294 2.021 . S
O304 C301 1.238 . S
O305 Co299 2.052 . S
O305 C301 1.241 . S
O306 Co294 2.137 . S
O306 C297 1.247 . S
O307 Co294 2.244 . S
O307 C297 1.272 . S
O307 Co299 2.135 . S
Co308 O309 2.216 . S
Co308 O310 2.091 . S
Co308 O312 2.004 . S
Co308 O318 2.021 . S
Co308 O320 2.137 . S
Co308 O321 2.244 . S
O309 Co308 2.216 . S
O309 C316 1.247 . S
O310 Co308 2.091 . S
O310 C316 1.261 . S
C311 O320 1.247 . S
C311 O321 1.272 . S
O312 Co308 2.004 . S
O312 C317 1.259 . S
Co313 O314 2.061 . S
Co313 O319 2.052 . S
Co313 O321 2.135 . S
O314 Co313 2.061 . S
O314 C317 1.235 . S
C315 O318 1.238 . S
C315 O319 1.241 . S
C316 O309 1.247 . S
C316 O310 1.261 . S
C317 O312 1.259 . S
C317 O314 1.235 . S
O318 Co308 2.021 . S
O318 C315 1.238 . S
O319 Co313 2.052 . S
O319 C315 1.241 . S
O320 Co308 2.137 . S
O320 C311 1.247 . S
O321 Co308 2.244 . S
O321 C311 1.272 . S
O321 Co313 2.135 . S
Co322 O323 2.216 . S
Co322 O324 2.091 . S
Co322 O326 2.004 1_556 S
Co322 O332 2.021 . S
Co322 O334 2.137 . S
Co322 O335 2.244 . S
O323 Co322 2.216 . S
O323 C330 1.247 . S
O324 Co322 2.091 . S
O324 C330 1.261 . S
C325 O334 1.247 . S
C325 O335 1.272 . S
O326 Co322 2.004 1_554 S
O326 C331 1.259 . S
Co327 O328 2.061 . S
Co327 O333 2.052 . S
Co327 O335 2.135 1_554 S
O328 Co327 2.061 . S
O328 C331 1.235 . S
C329 O332 1.238 1_554 S
C329 O333 1.241 . S
C330 O323 1.247 . S
C330 O324 1.261 . S
C331 O326 1.259 . S
C331 O328 1.235 . S
O332 Co322 2.021 . S
O332 C329 1.238 1_556 S
O333 Co327 2.052 . S
O333 C329 1.241 . S
O334 Co322 2.137 . S
O334 C325 1.247 . S
O335 Co322 2.244 . S
O335 C325 1.272 . S
O335 Co327 2.135 1_556 S
Co336 O337 2.216 . S
Co336 O338 2.091 . S
Co336 O340 2.004 . S
Co336 O346 2.021 . S
Co336 O348 2.137 . S
Co336 O349 2.244 . S
O337 Co336 2.216 . S
O337 C344 1.247 . S
O338 Co336 2.091 . S
O338 C344 1.261 . S
C339 O348 1.247 . S
C339 O349 1.272 . S
O340 Co336 2.004 . S
O340 C345 1.259 . S
Co341 O342 2.061 . S
Co341 O347 2.052 . S
Co341 O349 2.135 . S
O342 Co341 2.061 . S
O342 C345 1.235 . S
C343 O346 1.238 . S
C343 O347 1.241 . S
C344 O337 1.247 . S
C344 O338 1.261 . S
C345 O340 1.259 . S
C345 O342 1.235 . S
O346 Co336 2.021 . S
O346 C343 1.238 . S
O347 Co341 2.052 . S
O347 C343 1.241 . S
O348 Co336 2.137 . S
O348 C339 1.247 . S
O349 Co336 2.244 . S
O349 C339 1.272 . S
O349 Co341 2.135 . S
Co350 O351 2.216 . S
Co350 O352 2.091 . S
Co350 O354 2.004 . S
Co350 O360 2.021 . S
Co350 O362 2.137 . S
Co350 O363 2.244 . S
O351 Co350 2.216 . S
O351 C358 1.247 . S
O352 Co350 2.091 . S
O352 C358 1.261 . S
C353 O362 1.247 . S
C353 O363 1.272 . S
O354 Co350 2.004 . S
O354 C359 1.259 . S
Co355 O356 2.061 . S
Co355 O361 2.052 . S
Co355 O363 2.135 . S
O356 Co355 2.061 . S
O356 C359 1.235 . S
C357 O360 1.238 . S
C357 O361 1.241 . S
C358 O351 1.247 . S
C358 O352 1.261 . S
C359 O354 1.259 . S
C359 O356 1.235 . S
O360 Co350 2.021 . S
O360 C357 1.238 . S
O361 Co355 2.052 . S
O361 C357 1.241 . S
O362 Co350 2.137 . S
O362 C353 1.247 . S
O363 Co350 2.244 . S
O363 C353 1.272 . S
O363 Co355 2.135 . S
Co364 O365 2.216 . S
Co364 O366 2.091 . S
Co364 O368 2.004 . S
Co364 O374 2.021 . S
Co364 O376 2.137 . S
Co364 O377 2.244 . S
O365 Co364 2.216 . S
O365 C372 1.247 . S
O366 Co364 2.091 . S
O366 C372 1.261 . S
C367 O376 1.247 . S
C367 O377 1.272 . S
O368 Co364 2.004 . S
O368 C373 1.259 . S
Co369 O370 2.061 . S
Co369 O375 2.052 . S
Co369 O377 2.135 . S
O370 Co369 2.061 . S
O370 C373 1.235 . S
C371 O374 1.238 . S
C371 O375 1.241 . S
C372 O365 1.247 . S
C372 O366 1.261 . S
C373 O368 1.259 . S
C373 O370 1.235 . S
O374 Co364 2.021 . S
O374 C371 1.238 . S
O375 Co369 2.052 . S
O375 C371 1.241 . S
O376 Co364 2.137 . S
O376 C367 1.247 . S
O377 Co364 2.244 . S
O377 C367 1.272 . S
O377 Co369 2.135 . S
Co378 O379 2.216 . S
Co378 O380 2.091 . S
Co378 O382 2.004 . S
Co378 O388 2.021 . S
Co378 O390 2.137 . S
Co378 O391 2.244 1_655 S
O379 Co378 2.216 . S
O379 C386 1.247 . S
O380 Co378 2.091 . S
O380 C386 1.261 . S
C381 O390 1.247 1_455 S
C381 O391 1.272 . S
O382 Co378 2.004 . S
O382 C387 1.259 . S
Co383 O384 2.061 1_455 S
Co383 O389 2.052 1_455 S
Co383 O391 2.135 . S
O384 Co383 2.061 1_655 S
O384 C387 1.235 . S
C385 O388 1.238 . S
C385 O389 1.241 . S
C386 O379 1.247 . S
C386 O380 1.261 . S
C387 O382 1.259 . S
C387 O384 1.235 . S
O388 Co378 2.021 . S
O388 C385 1.238 . S
O389 Co383 2.052 1_655 S
O389 C385 1.241 . S
O390 Co378 2.137 . S
O390 C381 1.247 1_655 S
O391 Co378 2.244 1_455 S
O391 C381 1.272 . S
O391 Co383 2.135 . S
Co392 O393 2.216 . S
Co392 O394 2.091 . S
Co392 O396 2.004 . S
Co392 O402 2.021 . S
Co392 O404 2.137 . S
Co392 O405 2.244 . S
O393 Co392 2.216 . S
O393 C400 1.247 . S
O394 Co392 2.091 . S
O394 C400 1.261 . S
C395 O404 1.247 . S
C395 O405 1.272 . S
O396 Co392 2.004 . S
O396 C401 1.259 . S
Co397 O398 2.061 . S
Co397 O403 2.052 . S
Co397 O405 2.135 . S
O398 Co397 2.061 . S
O398 C401 1.235 . S
C399 O402 1.238 . S
C399 O403 1.241 . S
C400 O393 1.247 . S
C400 O394 1.261 . S
C401 O396 1.259 . S
C401 O398 1.235 . S
O402 Co392 2.021 . S
O402 C399 1.238 . S
O403 Co397 2.052 . S
O403 C399 1.241 . S
O404 Co392 2.137 . S
O404 C395 1.247 . S
O405 Co392 2.244 . S
O405 C395 1.272 . S
O405 Co397 2.135 . S
Co406 O407 2.216 . S
Co406 O408 2.091 . S
Co406 O410 2.004 . S
Co406 O416 2.021 . S
Co406 O418 2.137 . S
Co406 O419 2.244 1_655 S
O407 Co406 2.216 . S
O407 C414 1.247 . S
O408 Co406 2.091 . S
O408 C414 1.261 . S
C409 O418 1.247 1_455 S
C409 O419 1.272 . S
O410 Co406 2.004 . S
O410 C415 1.259 . S
Co411 O412 2.061 1_455 S
Co411 O417 2.052 1_455 S
Co411 O419 2.135 . S
O412 Co411 2.061 1_655 S
O412 C415 1.235 . S
C413 O416 1.238 . S
C413 O417 1.241 . S
C414 O407 1.247 . S
C414 O408 1.261 . S
C415 O410 1.259 . S
C415 O412 1.235 . S
O416 Co406 2.021 . S
O416 C413 1.238 . S
O417 Co411 2.052 1_655 S
O417 C413 1.241 . S
O418 Co406 2.137 . S
O418 C409 1.247 1_655 S
O419 Co406 2.244 1_455 S
O419 C409 1.272 . S
O419 Co411 2.135 . S
Co420 O421 2.216 . S
Co420 O422 2.091 . S
Co420 O424 2.004 . S
Co420 O430 2.021 . S
Co420 O432 2.137 . S
Co420 O433 2.244 . S
O421 Co420 2.216 . S
O421 C428 1.247 . S
O422 Co420 2.091 . S
O422 C428 1.261 . S
C423 O432 1.247 . S
C423 O433 1.272 . S
O424 Co420 2.004 . S
O424 C429 1.259 . S
Co425 O426 2.061 . S
Co425 O431 2.052 . S
Co425 O433 2.135 . S
O426 Co425 2.061 . S
O426 C429 1.235 . S
C427 O430 1.238 . S
C427 O431 1.241 . S
C428 O421 1.247 . S
C428 O422 1.261 . S
C429 O424 1.259 . S
C429 O426 1.235 . S
O430 Co420 2.021 . S
O430 C427 1.238 . S
O431 Co425 2.052 . S
O431 C427 1.241 . S
O432 Co420 2.137 . S
O432 C423 1.247 . S
O433 Co420 2.244 . S
O433 C423 1.272 . S
O433 Co425 2.135 . S
Co434 O435 2.216 . S
Co434 O436 2.091 . S
Co434 O438 2.004 . S
Co434 O444 2.021 . S
Co434 O446 2.137 . S
Co434 O447 2.244 . S
O435 Co434 2.216 . S
O435 C442 1.247 . S
O436 Co434 2.091 . S
O436 C442 1.261 . S
C437 O446 1.247 . S
C437 O447 1.272 . S
O438 Co434 2.004 . S
O438 C443 1.259 . S
Co439 O440 2.061 . S
Co439 O445 2.052 . S
Co439 O447 2.135 . S
O440 Co439 2.061 . S
O440 C443 1.235 . S
C441 O444 1.238 . S
C441 O445 1.241 . S
C442 O435 1.247 . S
C442 O436 1.261 . S
C443 O438 1.259 . S
C443 O440 1.235 . S
O444 Co434 2.021 . S
O444 C441 1.238 . S
O445 Co439 2.052 . S
O445 C441 1.241 . S
O446 Co434 2.137 . S
O446 C437 1.247 . S
O447 Co434 2.244 . S
O447 C437 1.272 . S
O447 Co439 2.135 . S
Co448 O449 2.216 . S
Co448 O450 2.091 . S
Co448 O452 2.004 . S
Co448 O458 2.021 . S
Co448 O460 2.137 . S
Co448 O461 2.244 . S
O449 Co448 2.216 . S
O449 C456 1.247 . S
O450 Co448 2.091 . S
O450 C456 1.261 . S
C451 O460 1.247 . S
C451 O461 1.272 . S
O452 Co448 2.004 . S
O452 C457 1.259 . S
Co453 O454 2.061 . S
Co453 O459 2.052 . S
Co453 O461 2.135 . S
O454 Co453 2.061 . S
O454 C457 1.235 . S
C455 O458 1.238 . S
C455 O459 1.241 . S
C456 O449 1.247 . S
C456 O450 1.261 . S
C457 O452 1.259 . S
C457 O454 1.235 . S
O458 Co448 2.021 . S
O458 C455 1.238 . S
O459 Co453 2.052 . S
O459 C455 1.241 . S
O460 Co448 2.137 . S
O460 C451 1.247 . S
O461 Co448 2.244 . S
O461 C451 1.272 . S
O461 Co453 2.135 . S
Co462 O463 2.216 . S
Co462 O464 2.091 . S
Co462 O466 2.004 . S
Co462 O472 2.021 . S
Co462 O474 2.137 . S
Co462 O475 2.244 1_556 S
O463 Co462 2.216 . S
O463 C470 1.247 . S
O464 Co462 2.091 . S
O464 C470 1.261 . S
C465 O474 1.247 1_554 S
C465 O475 1.272 . S
O466 Co462 2.004 . S
O466 C471 1.259 . S
Co467 O468 2.061 1_554 S
Co467 O473 2.052 1_554 S
Co467 O475 2.135 . S
O468 Co467 2.061 1_556 S
O468 C471 1.235 . S
C469 O472 1.238 . S
C469 O473 1.241 . S
C470 O463 1.247 . S
C470 O464 1.261 . S
C471 O466 1.259 . S
C471 O468 1.235 . S
O472 Co462 2.021 . S
O472 C469 1.238 . S
O473 Co467 2.052 1_556 S
O473 C469 1.241 . S
O474 Co462 2.137 . S
O474 C465 1.247 1_556 S
O475 Co462 2.244 1_554 S
O475 C465 1.272 . S
O475 Co467 2.135 . S
Co476 O477 2.216 . S
Co476 O478 2.091 . S
Co476 O480 2.004 . S
Co476 O486 2.021 . S
Co476 O488 2.137 . S
Co476 O489 2.244 . S
O477 Co476 2.216 . S
O477 C484 1.247 . S
O478 Co476 2.091 . S
O478 C484 1.261 . S
C479 O488 1.247 . S
C479 O489 1.272 . S
O480 Co476 2.004 . S
O480 C485 1.259 . S
Co481 O482 2.061 . S
Co481 O487 2.052 . S
Co481 O489 2.135 . S
O482 Co481 2.061 . S
O482 C485 1.235 . S
C483 O486 1.238 . S
C483 O487 1.241 . S
C484 O477 1.247 . S
C484 O478 1.261 . S
C485 O480 1.259 . S
C485 O482 1.235 . S
O486 Co476 2.021 . S
O486 C483 1.238 . S
O487 Co481 2.052 . S
O487 C483 1.241 . S
O488 Co476 2.137 . S
O488 C479 1.247 . S
O489 Co476 2.244 . S
O489 C479 1.272 . S
O489 Co481 2.135 . S
Co490 O491 2.216 . S
Co490 O492 2.091 . S
Co490 O494 2.004 1_655 S
Co490 O500 2.021 . S
Co490 O502 2.137 . S
Co490 O503 2.244 . S
O491 Co490 2.216 . S
O491 C498 1.247 . S
O492 Co490 2.091 . S
O492 C498 1.261 . S
C493 O502 1.247 . S
C493 O503 1.272 . S
O494 Co490 2.004 1_455 S
O494 C499 1.259 . S
Co495 O496 2.061 . S
Co495 O501 2.052 . S
Co495 O503 2.135 1_455 S
O496 Co495 2.061 . S
O496 C499 1.235 . S
C497 O500 1.238 1_455 S
C497 O501 1.241 . S
C498 O491 1.247 . S
C498 O492 1.261 . S
C499 O494 1.259 . S
C499 O496 1.235 . S
O500 Co490 2.021 . S
O500 C497 1.238 1_655 S
O501 Co495 2.052 . S
O501 C497 1.241 . S
O502 Co490 2.137 . S
O502 C493 1.247 . S
O503 Co490 2.244 . S
O503 C493 1.272 . S
O503 Co495 2.135 1_655 S
Co504 O505 2.216 . S
Co504 O506 2.091 . S
Co504 O508 2.004 . S
Co504 O514 2.021 . S
Co504 O516 2.137 . S
Co504 O517 2.244 . S
O505 Co504 2.216 . S
O505 C512 1.247 . S
O506 Co504 2.091 . S
O506 C512 1.261 . S
C507 O516 1.247 . S
C507 O517 1.272 . S
O508 Co504 2.004 . S
O508 C513 1.259 . S
Co509 O510 2.061 . S
Co509 O515 2.052 . S
Co509 O517 2.135 . S
O510 Co509 2.061 . S
O510 C513 1.235 . S
C511 O514 1.238 . S
C511 O515 1.241 . S
C512 O505 1.247 . S
C512 O506 1.261 . S
C513 O508 1.259 . S
C513 O510 1.235 . S
O514 Co504 2.021 . S
O514 C511 1.238 . S
O515 Co509 2.052 . S
O515 C511 1.241 . S
O516 Co504 2.137 . S
O516 C507 1.247 . S
O517 Co504 2.244 . S
O517 C507 1.272 . S
O517 Co509 2.135 . S
Co518 O519 2.216 . S
Co518 O520 2.091 . S
Co518 O522 2.004 1_655 S
Co518 O528 2.021 . S
Co518 O530 2.137 . S
Co518 O531 2.244 1_554 S
O519 Co518 2.216 . S
O519 C526 1.247 . S
O520 Co518 2.091 . S
O520 C526 1.261 . S
C521 O530 1.247 1_556 S
C521 O531 1.272 . S
O522 Co518 2.004 1_455 S
O522 C527 1.259 . S
Co523 O524 2.061 1_556 S
Co523 O529 2.052 1_556 S
Co523 O531 2.135 1_455 S
O524 Co523 2.061 1_554 S
O524 C527 1.235 . S
C525 O528 1.238 1_455 S
C525 O529 1.241 . S
C526 O519 1.247 . S
C526 O520 1.261 . S
C527 O522 1.259 . S
C527 O524 1.235 . S
O528 Co518 2.021 . S
O528 C525 1.238 1_655 S
O529 Co523 2.052 1_554 S
O529 C525 1.241 . S
O530 Co518 2.137 . S
O530 C521 1.247 1_554 S
O531 Co518 2.244 1_556 S
O531 C521 1.272 . S
O531 Co523 2.135 1_655 S
Co532 O533 2.216 . S
Co532 O534 2.091 . S
Co532 O536 2.004 . S
Co532 O542 2.021 . S
Co532 O544 2.137 . S
Co532 O545 2.244 . S
O533 Co532 2.216 . S
O533 C540 1.247 . S
O534 Co532 2.091 . S
O534 C540 1.261 . S
C535 O544 1.247 . S
C535 O545 1.272 . S
O536 Co532 2.004 . S
O536 C541 1.259 . S
Co537 O538 2.061 . S
Co537 O543 2.052 . S
Co537 O545 2.135 . S
O538 Co537 2.061 . S
O538 C541 1.235 . S
C539 O542 1.238 . S
C539 O543 1.241 . S
C540 O533 1.247 . S
C540 O534 1.261 . S
C541 O536 1.259 . S
C541 O538 1.235 . S
O542 Co532 2.021 . S
O542 C539 1.238 . S
O543 Co537 2.052 . S
O543 C539 1.241 . S
O544 Co532 2.137 . S
O544 C535 1.247 . S
O545 Co532 2.244 . S
O545 C535 1.272 . S
O545 Co537 2.135 . S
Co546 O547 2.216 . S
Co546 O548 2.091 . S
Co546 O550 2.004 . S
Co546 O556 2.021 . S
Co546 O558 2.137 . S
Co546 O559 2.244 . S
O547 Co546 2.216 . S
O547 C554 1.247 . S
O548 Co546 2.091 . S
O548 C554 1.261 . S
C549 O558 1.247 . S
C549 O559 1.272 . S
O550 Co546 2.004 . S
O550 C555 1.259 . S
Co551 O552 2.061 . S
Co551 O557 2.052 . S
Co551 O559 2.135 . S
O552 Co551 2.061 . S
O552 C555 1.235 . S
C553 O556 1.238 . S
C553 O557 1.241 . S
C554 O547 1.247 . S
C554 O548 1.261 . S
C555 O550 1.259 . S
C555 O552 1.235 . S
O556 Co546 2.021 . S
O556 C553 1.238 . S
O557 Co551 2.052 . S
O557 C553 1.241 . S
O558 Co546 2.137 . S
O558 C549 1.247 . S
O559 Co546 2.244 . S
O559 C549 1.272 . S
O559 Co551 2.135 . S
Co560 O561 2.216 . S
Co560 O562 2.091 . S
Co560 O564 2.004 . S
Co560 O570 2.021 . S
Co560 O572 2.137 . S
Co560 O573 2.244 . S
O561 Co560 2.216 . S
O561 C568 1.247 . S
O562 Co560 2.091 . S
O562 C568 1.261 . S
C563 O572 1.247 . S
C563 O573 1.272 . S
O564 Co560 2.004 . S
O564 C569 1.259 . S
Co565 O566 2.061 . S
Co565 O571 2.052 . S
Co565 O573 2.135 . S
O566 Co565 2.061 . S
O566 C569 1.235 . S
C567 O570 1.238 . S
C567 O571 1.241 . S
C568 O561 1.247 . S
C568 O562 1.261 . S
C569 O564 1.259 . S
C569 O566 1.235 . S
O570 Co560 2.021 . S
O570 C567 1.238 . S
O571 Co565 2.052 . S
O571 C567 1.241 . S
O572 Co560 2.137 . S
O572 C563 1.247 . S
O573 Co560 2.244 . S
O573 C563 1.272 . S
O573 Co565 2.135 . S
Co574 O575 2.216 . S
Co574 O576 2.091 . S
Co574 O578 2.004 . S
Co574 O584 2.021 . S
Co574 O586 2.137 . S
Co574 O587 2.244 . S
O575 Co574 2.216 . S
O575 C582 1.247 . S
O576 Co574 2.091 . S
O576 C582 1.261 . S
C577 O586 1.247 . S
C577 O587 1.272 . S
O578 Co574 2.004 . S
O578 C583 1.259 . S
Co579 O580 2.061 . S
Co579 O585 2.052 . S
Co579 O587 2.135 . S
O580 Co579 2.061 . S
O580 C583 1.235 . S
C581 O584 1.238 . S
C581 O585 1.241 . S
C582 O575 1.247 . S
C582 O576 1.261 . S
C583 O578 1.259 . S
C583 O580 1.235 . S
O584 Co574 2.021 . S
O584 C581 1.238 . S
O585 Co579 2.052 . S
O585 C581 1.241 . S
O586 Co574 2.137 . S
O586 C577 1.247 . S
O587 Co574 2.244 . S
O587 C577 1.272 . S
O587 Co579 2.135 . S
Co588 O589 2.216 . S
Co588 O590 2.091 . S
Co588 O592 2.004 . S
Co588 O598 2.021 . S
Co588 O600 2.137 . S
Co588 O601 2.244 1_565 S
O589 Co588 2.216 . S
O589 C596 1.247 . S
O590 Co588 2.091 . S
O590 C596 1.261 . S
C591 O600 1.247 1_545 S
C591 O601 1.272 . S
O592 Co588 2.004 . S
O592 C597 1.259 . S
Co593 O594 2.061 1_545 S
Co593 O599 2.052 1_545 S
Co593 O601 2.135 . S
O594 Co593 2.061 1_565 S
O594 C597 1.235 . S
C595 O598 1.238 . S
C595 O599 1.241 . S
C596 O589 1.247 . S
C596 O590 1.261 . S
C597 O592 1.259 . S
C597 O594 1.235 . S
O598 Co588 2.021 . S
O598 C595 1.238 . S
O599 Co593 2.052 1_565 S
O599 C595 1.241 . S
O600 Co588 2.137 . S
O600 C591 1.247 1_565 S
O601 Co588 2.244 1_545 S
O601 C591 1.272 . S
O601 Co593 2.135 . S
Co602 O603 2.216 . S
Co602 O604 2.091 . S
Co602 O606 2.004 . S
Co602 O612 2.021 . S
Co602 O614 2.137 . S
Co602 O615 2.244 . S
O603 Co602 2.216 . S
O603 C610 1.247 . S
O604 Co602 2.091 . S
O604 C610 1.261 . S
C605 O614 1.247 . S
C605 O615 1.272 . S
O606 Co602 2.004 . S
O606 C611 1.259 . S
Co607 O608 2.061 . S
Co607 O613 2.052 . S
Co607 O615 2.135 . S
O608 Co607 2.061 . S
O608 C611 1.235 . S
C609 O612 1.238 . S
C609 O613 1.241 . S
C610 O603 1.247 . S
C610 O604 1.261 . S
C611 O606 1.259 . S
C611 O608 1.235 . S
O612 Co602 2.021 . S
O612 C609 1.238 . S
O613 Co607 2.052 . S
O613 C609 1.241 . S
O614 Co602 2.137 . S
O614 C605 1.247 . S
O615 Co602 2.244 . S
O615 C605 1.272 . S
O615 Co607 2.135 . S
Co616 O617 2.216 . S
Co616 O618 2.091 . S
Co616 O620 2.004 . S
Co616 O626 2.021 . S
Co616 O628 2.137 . S
Co616 O629 2.244 . S
O617 Co616 2.216 . S
O617 C624 1.247 . S
O618 Co616 2.091 . S
O618 C624 1.261 . S
C619 O628 1.247 . S
C619 O629 1.272 . S
O620 Co616 2.004 . S
O620 C625 1.259 . S
Co621 O622 2.061 . S
Co621 O627 2.052 . S
Co621 O629 2.135 . S
O622 Co621 2.061 . S
O622 C625 1.235 . S
C623 O626 1.238 . S
C623 O627 1.241 . S
C624 O617 1.247 . S
C624 O618 1.261 . S
C625 O620 1.259 . S
C625 O622 1.235 . S
O626 Co616 2.021 . S
O626 C623 1.238 . S
O627 Co621 2.052 . S
O627 C623 1.241 . S
O628 Co616 2.137 . S
O628 C619 1.247 . S
O629 Co616 2.244 . S
O629 C619 1.272 . S
O629 Co621 2.135 . S
Co630 O631 2.216 . S
Co630 O632 2.091 . S
Co630 O634 2.004 . S
Co630 O640 2.021 . S
Co630 O642 2.137 . S
Co630 O643 2.244 . S
O631 Co630 2.216 . S
O631 C638 1.247 . S
O632 Co630 2.091 . S
O632 C638 1.261 . S
C633 O642 1.247 . S
C633 O643 1.272 . S
O634 Co630 2.004 . S
O634 C639 1.259 . S
Co635 O636 2.061 . S
Co635 O641 2.052 . S
Co635 O643 2.135 . S
O636 Co635 2.061 . S
O636 C639 1.235 . S
C637 O640 1.238 . S
C637 O641 1.241 . S
C638 O631 1.247 . S
C638 O632 1.261 . S
C639 O634 1.259 . S
C639 O636 1.235 . S
O640 Co630 2.021 . S
O640 C637 1.238 . S
O641 Co635 2.052 . S
O641 C637 1.241 . S
O642 Co630 2.137 . S
O642 C633 1.247 . S
O643 Co630 2.244 . S
O643 C633 1.272 . S
O643 Co635 2.135 . S
Co644 O645 2.216 . S
Co644 O646 2.091 . S
Co644 O648 2.004 1_556 S
Co644 O654 2.021 . S
Co644 O656 2.137 . S
Co644 O657 2.244 1_545 S
O645 Co644 2.216 . S
O645 C652 1.247 . S
O646 Co644 2.091 . S
O646 C652 1.261 . S
C647 O656 1.247 1_565 S
C647 O657 1.272 . S
O648 Co644 2.004 1_554 S
O648 C653 1.259 . S
Co649 O650 2.061 1_565 S
Co649 O655 2.052 1_565 S
Co649 O657 2.135 1_554 S
O650 Co649 2.061 1_545 S
O650 C653 1.235 . S
C651 O654 1.238 1_554 S
C651 O655 1.241 . S
C652 O645 1.247 . S
C652 O646 1.261 . S
C653 O648 1.259 . S
C653 O650 1.235 . S
O654 Co644 2.021 . S
O654 C651 1.238 1_556 S
O655 Co649 2.052 1_545 S
O655 C651 1.241 . S
O656 Co644 2.137 . S
O656 C647 1.247 1_545 S
O657 Co644 2.244 1_565 S
O657 C647 1.272 . S
O657 Co649 2.135 1_556 S
Co658 O659 2.216 . S
Co658 O660 2.091 . S
Co658 O662 2.004 . S
Co658 O668 2.021 . S
Co658 O670 2.137 . S
Co658 O671 2.244 1_565 S
O659 Co658 2.216 . S
O659 C666 1.247 . S
O660 Co658 2.091 . S
O660 C666 1.261 . S
C661 O670 1.247 1_545 S
C661 O671 1.272 . S
O662 Co658 2.004 . S
O662 C667 1.259 . S
Co663 O664 2.061 1_545 S
Co663 O669 2.052 1_545 S
Co663 O671 2.135 . S
O664 Co663 2.061 1_565 S
O664 C667 1.235 . S
C665 O668 1.238 . S
C665 O669 1.241 . S
C666 O659 1.247 . S
C666 O660 1.261 . S
C667 O662 1.259 . S
C667 O664 1.235 . S
O668 Co658 2.021 . S
O668 C665 1.238 . S
O669 Co663 2.052 1_565 S
O669 C665 1.241 . S
O670 Co658 2.137 . S
O670 C661 1.247 1_565 S
O671 Co658 2.244 1_545 S
O671 C661 1.272 . S
O671 Co663 2.135 . S
C672 C673 1.387 . S
C672 H676 0.950 . S
C672 C681 1.390 . S
C673 C672 1.387 . S
C673 C675 1.387 . S
H674 C681 0.950 . S
C675 C673 1.387 . S
C675 C677 1.390 . S
C675 H679 0.950 . S
H676 C672 0.950 . S
C677 C675 1.390 . S
C677 C678 1.387 . S
C677 H680 0.950 . S
C678 C677 1.387 . S
C678 C681 1.387 . S
H679 C675 0.950 . S
H680 C677 0.950 . S
C681 C672 1.390 . S
C681 H674 0.950 . S
C681 C678 1.387 . S
C682 C683 1.387 . S
C682 H686 0.950 1_455 S
C682 C691 1.390 1_545 S
C683 C682 1.387 . S
C683 C685 1.387 . S
H684 C691 0.950 1_655 S
C685 C683 1.387 . S
C685 C687 1.390 1_545 S
C685 H689 0.950 . S
H686 C682 0.950 1_655 S
C687 C685 1.390 1_565 S
C687 C688 1.387 . S
C687 H690 0.950 . S
C688 C687 1.387 . S
C688 C691 1.387 . S
H689 C685 0.950 . S
H690 C687 0.950 . S
C691 C682 1.390 1_565 S
C691 H684 0.950 1_455 S
C691 C688 1.387 . S
C692 C693 1.387 . S
C692 H696 0.950 . S
C692 C701 1.390 1_556 S
C693 C692 1.387 . S
C693 C695 1.387 . S
H694 C701 0.950 . S
C695 C693 1.387 . S
C695 C697 1.390 1_556 S
C695 H699 0.950 . S
H696 C692 0.950 . S
C697 C695 1.390 1_554 S
C697 C698 1.387 . S
C697 H700 0.950 . S
C698 C697 1.387 . S
C698 C701 1.387 . S
H699 C695 0.950 . S
H700 C697 0.950 . S
C701 C692 1.390 1_554 S
C701 H694 0.950 . S
C701 C698 1.387 . S
C702 C703 1.387 . S
C702 H706 0.950 . S
C702 C711 1.390 1_545 S
C703 C702 1.387 . S
C703 C705 1.387 . S
H704 C711 0.950 . S
C705 C703 1.387 . S
C705 C707 1.390 1_545 S
C705 H709 0.950 . S
H706 C702 0.950 . S
C707 C705 1.390 1_565 S
C707 C708 1.387 . S
C707 H710 0.950 . S
C708 C707 1.387 . S
C708 C711 1.387 . S
H709 C705 0.950 . S
H710 C707 0.950 . S
C711 C702 1.390 1_565 S
C711 H704 0.950 . S
C711 C708 1.387 . S
C712 C713 1.387 . S
C712 H716 0.950 . S
C712 C721 1.390 . S
C713 C712 1.387 . S
C713 C715 1.387 . S
H714 C721 0.950 . S
C715 C713 1.387 . S
C715 C717 1.390 . S
C715 H719 0.950 . S
H716 C712 0.950 . S
C717 C715 1.390 . S
C717 C718 1.387 . S
C717 H720 0.950 . S
C718 C717 1.387 . S
C718 C721 1.387 . S
H719 C715 0.950 . S
H720 C717 0.950 . S
C721 C712 1.390 . S
C721 H714 0.950 . S
C721 C718 1.387 . S
C722 C723 1.387 . S
C722 H726 0.950 . S
C722 C731 1.390 1_455 S
C723 C722 1.387 . S
C723 C725 1.387 . S
H724 C731 0.950 . S
C725 C723 1.387 . S
C725 C727 1.390 1_455 S
C725 H729 0.950 . S
H726 C722 0.950 . S
C727 C725 1.390 1_655 S
C727 C728 1.387 . S
C727 H730 0.950 . S
C728 C727 1.387 . S
C728 C731 1.387 . S
H729 C725 0.950 . S
H730 C727 0.950 . S
C731 C722 1.390 1_655 S
C731 H724 0.950 . S
C731 C728 1.387 . S
C732 C733 1.387 . S
C732 H736 0.950 . S
C732 C741 1.390 1_455 S
C733 C732 1.387 . S
C733 C735 1.387 . S
H734 C741 0.950 . S
C735 C733 1.387 . S
C735 C737 1.390 1_455 S
C735 H739 0.950 . S
H736 C732 0.950 . S
C737 C735 1.390 1_655 S
C737 C738 1.387 . S
C737 H740 0.950 . S
C738 C737 1.387 . S
C738 C741 1.387 . S
H739 C735 0.950 . S
H740 C737 0.950 . S
C741 C732 1.390 1_655 S
C741 H734 0.950 . S
C741 C738 1.387 . S
C742 C743 1.387 . S
C742 H746 0.950 . S
C742 C751 1.390 . S
C743 C742 1.387 . S
C743 C745 1.387 . S
H744 C751 0.950 . S
C745 C743 1.387 . S
C745 C747 1.390 . S
C745 H749 0.950 1_556 S
H746 C742 0.950 . S
C747 C745 1.390 . S
C747 C748 1.387 . S
C747 H750 0.950 1_556 S
C748 C747 1.387 . S
C748 C751 1.387 . S
H749 C745 0.950 1_554 S
H750 C747 0.950 1_554 S
C751 C742 1.390 . S
C751 H744 0.950 . S
C751 C748 1.387 . S
C752 C753 1.387 . S
C752 H756 0.950 . S
C752 C761 1.390 . S
C753 C752 1.387 . S
C753 C755 1.387 . S
H754 C761 0.950 . S
C755 C753 1.387 . S
C755 C757 1.390 . S
C755 H759 0.950 . S
H756 C752 0.950 . S
C757 C755 1.390 . S
C757 C758 1.387 . S
C757 H760 0.950 . S
C758 C757 1.387 . S
C758 C761 1.387 . S
H759 C755 0.950 . S
H760 C757 0.950 . S
C761 C752 1.390 . S
C761 H754 0.950 . S
C761 C758 1.387 . S
C762 C763 1.387 . S
C762 H766 0.950 . S
C762 C771 1.390 . S
C763 C762 1.387 . S
C763 C765 1.387 . S
H764 C771 0.950 . S
C765 C763 1.387 . S
C765 C767 1.390 . S
C765 H769 0.950 . S
H766 C762 0.950 . S
C767 C765 1.390 . S
C767 C768 1.387 . S
C767 H770 0.950 . S
C768 C767 1.387 . S
C768 C771 1.387 . S
H769 C765 0.950 . S
H770 C767 0.950 . S
C771 C762 1.390 . S
C771 H764 0.950 . S
C771 C768 1.387 . S
C772 C773 1.387 . S
C772 H776 0.950 . S
C772 C781 1.390 1_655 S
C773 C772 1.387 . S
C773 C775 1.387 . S
H774 C781 0.950 . S
C775 C773 1.387 . S
C775 C777 1.390 1_655 S
C775 H779 0.950 . S
H776 C772 0.950 . S
C777 C775 1.390 1_455 S
C777 C778 1.387 . S
C777 H780 0.950 . S
C778 C777 1.387 . S
C778 C781 1.387 . S
H779 C775 0.950 . S
H780 C777 0.950 . S
C781 C772 1.390 1_455 S
C781 H774 0.950 . S
C781 C778 1.387 . S
C782 C783 1.387 . S
C782 H786 0.950 1_554 S
C782 C791 1.390 1_455 S
C783 C782 1.387 . S
C783 C785 1.387 . S
H784 C791 0.950 1_556 S
C785 C783 1.387 . S
C785 C787 1.390 1_455 S
C785 H789 0.950 . S
H786 C782 0.950 1_556 S
C787 C785 1.390 1_655 S
C787 C788 1.387 . S
C787 H790 0.950 . S
C788 C787 1.387 . S
C788 C791 1.387 . S
H789 C785 0.950 . S
H790 C787 0.950 . S
C791 C782 1.390 1_655 S
C791 H784 0.950 1_554 S
C791 C788 1.387 . S
C792 C793 1.387 . S
C792 H796 0.950 . S
C792 C801 1.390 . S
C793 C792 1.387 . S
C793 C795 1.387 . S
H794 C801 0.950 . S
C795 C793 1.387 . S
C795 C797 1.390 . S
C795 H799 0.950 . S
H796 C792 0.950 . S
C797 C795 1.390 . S
C797 C798 1.387 . S
C797 H800 0.950 . S
C798 C797 1.387 . S
C798 C801 1.387 . S
H799 C795 0.950 . S
H800 C797 0.950 . S
C801 C792 1.390 . S
C801 H794 0.950 . S
C801 C798 1.387 . S
C802 C803 1.387 . S
C802 H806 0.950 . S
C802 C811 1.390 1_545 S
C803 C802 1.387 . S
C803 C805 1.387 . S
H804 C811 0.950 . S
C805 C803 1.387 . S
C805 C807 1.390 1_545 S
C805 H809 0.950 . S
H806 C802 0.950 . S
C807 C805 1.390 1_565 S
C807 C808 1.387 . S
C807 H810 0.950 . S
C808 C807 1.387 . S
C808 C811 1.387 . S
H809 C805 0.950 . S
H810 C807 0.950 . S
C811 C802 1.390 1_565 S
C811 H804 0.950 . S
C811 C808 1.387 . S
C812 C813 1.387 . S
C812 H816 0.950 . S
C812 C821 1.390 1_556 S
C813 C812 1.387 . S
C813 C815 1.387 . S
H814 C821 0.950 . S
C815 C813 1.387 . S
C815 C817 1.390 1_556 S
C815 H819 0.950 . S
H816 C812 0.950 . S
C817 C815 1.390 1_554 S
C817 C818 1.387 . S
C817 H820 0.950 . S
C818 C817 1.387 . S
C818 C821 1.387 . S
H819 C815 0.950 . S
H820 C817 0.950 . S
C821 C812 1.390 1_554 S
C821 H814 0.950 . S
C821 C818 1.387 . S
C822 C823 1.387 . S
C822 H826 0.950 . S
C822 C831 1.390 1_545 S
C823 C822 1.387 . S
C823 C825 1.387 . S
H824 C831 0.950 . S
C825 C823 1.387 . S
C825 C827 1.390 1_545 S
C825 H829 0.950 . S
H826 C822 0.950 . S
C827 C825 1.390 1_565 S
C827 C828 1.387 . S
C827 H830 0.950 . S
C828 C827 1.387 . S
C828 C831 1.387 . S
H829 C825 0.950 . S
H830 C827 0.950 . S
C831 C822 1.390 1_565 S
C831 H824 0.950 . S
C831 C828 1.387 . S
C832 C833 1.387 . S
C832 H836 0.950 1_545 S
C832 C841 1.390 1_554 S
C833 C832 1.387 . S
C833 C835 1.387 . S
H834 C841 0.950 1_565 S
C835 C833 1.387 . S
C835 C837 1.390 1_554 S
C835 H839 0.950 . S
H836 C832 0.950 1_565 S
C837 C835 1.390 1_556 S
C837 C838 1.387 . S
C837 H840 0.950 . S
C838 C837 1.387 . S
C838 C841 1.387 . S
H839 C835 0.950 . S
H840 C837 0.950 . S
C841 C832 1.390 1_556 S
C841 H834 0.950 1_545 S
C841 C838 1.387 . S
C842 C843 1.387 . S
C842 H846 0.950 . S
C842 C851 1.390 . S
C843 C842 1.387 . S
C843 C845 1.387 . S
H844 C851 0.950 . S
C845 C843 1.387 . S
C845 C847 1.390 . S
C845 H849 0.950 . S
H846 C842 0.950 . S
C847 C845 1.390 . S
C847 C848 1.387 . S
C847 H850 0.950 . S
C848 C847 1.387 . S
C848 C851 1.387 . S
H849 C845 0.950 . S
H850 C847 0.950 . S
C851 C842 1.390 . S
C851 H844 0.950 . S
C851 C848 1.387 . S
C852 C853 1.387 . S
C852 H856 0.950 . S
C852 C861 1.390 . S
C853 C852 1.387 . S
C853 C855 1.387 . S
H854 C861 0.950 . S
C855 C853 1.387 . S
C855 C857 1.390 . S
C855 H859 0.950 . S
H856 C852 0.950 . S
C857 C855 1.390 . S
C857 C858 1.387 . S
C857 H860 0.950 . S
C858 C857 1.387 . S
C858 C861 1.387 . S
H859 C855 0.950 . S
H860 C857 0.950 . S
C861 C852 1.390 . S
C861 H854 0.950 . S
C861 C858 1.387 . S
C862 C863 1.387 . S
C862 H866 0.950 . S
C862 C871 1.390 1_554 S
C863 C862 1.387 . S
C863 C865 1.387 . S
H864 C871 0.950 . S
C865 C863 1.387 . S
C865 C867 1.390 1_554 S
C865 H869 0.950 . S
H866 C862 0.950 . S
C867 C865 1.390 1_556 S
C867 C868 1.387 . S
C867 H870 0.950 . S
C868 C867 1.387 . S
C868 C871 1.387 . S
H869 C865 0.950 . S
H870 C867 0.950 . S
C871 C862 1.390 1_556 S
C871 H864 0.950 . S
C871 C868 1.387 . S
C872 C873 1.387 . S
C872 H876 0.950 . S
C872 C881 1.390 . S
C873 C872 1.387 . S
C873 C875 1.387 . S
H874 C881 0.950 . S
C875 C873 1.387 . S
C875 C877 1.390 . S
C875 H879 0.950 . S
H876 C872 0.950 . S
C877 C875 1.390 . S
C877 C878 1.387 . S
C877 H880 0.950 . S
C878 C877 1.387 . S
C878 C881 1.387 . S
H879 C875 0.950 . S
H880 C877 0.950 . S
C881 C872 1.390 . S
C881 H874 0.950 . S
C881 C878 1.387 . S
C882 C883 1.387 . S
C882 H886 0.950 . S
C882 C891 1.390 . S
C883 C882 1.387 . S
C883 C885 1.387 . S
H884 C891 0.950 . S
C885 C883 1.387 . S
C885 C887 1.390 . S
C885 H889 0.950 . S
H886 C882 0.950 . S
C887 C885 1.390 . S
C887 C888 1.387 . S
C887 H890 0.950 . S
C888 C887 1.387 . S
C888 C891 1.387 . S
H889 C885 0.950 . S
H890 C887 0.950 . S
C891 C882 1.390 . S
C891 H884 0.950 . S
C891 C888 1.387 . S
C892 C893 1.387 . S
C892 H896 0.950 . S
C892 C901 1.390 . S
C893 C892 1.387 . S
C893 C895 1.387 . S
H894 C901 0.950 . S
C895 C893 1.387 . S
C895 C897 1.390 . S
C895 H899 0.950 1_655 S
H896 C892 0.950 . S
C897 C895 1.390 . S
C897 C898 1.387 . S
C897 H900 0.950 1_655 S
C898 C897 1.387 . S
C898 C901 1.387 . S
H899 C895 0.950 1_455 S
H900 C897 0.950 1_455 S
C901 C892 1.390 . S
C901 H894 0.950 . S
C901 C898 1.387 . S
C902 C903 1.387 . S
C902 H906 0.950 . S
C902 C911 1.390 . S
C903 C902 1.387 . S
C903 C905 1.387 . S
H904 C911 0.950 . S
C905 C903 1.387 . S
C905 C907 1.390 . S
C905 H909 0.950 1_565 S
H906 C902 0.950 . S
C907 C905 1.390 . S
C907 C908 1.387 . S
C907 H910 0.950 1_565 S
C908 C907 1.387 . S
C908 C911 1.387 . S
H909 C905 0.950 1_545 S
H910 C907 0.950 1_545 S
C911 C902 1.390 . S
C911 H904 0.950 . S
C911 C908 1.387 . S
C912 C913 1.387 . S
C912 H916 0.950 . S
C912 C921 1.390 . S
C913 C912 1.387 . S
C913 C915 1.387 . S
H914 C921 0.950 . S
C915 C913 1.387 . S
C915 C917 1.390 . S
C915 H919 0.950 . S
H916 C912 0.950 . S
C917 C915 1.390 . S
C917 C918 1.387 . S
C917 H920 0.950 . S
C918 C917 1.387 . S
C918 C921 1.387 . S
H919 C915 0.950 . S
H920 C917 0.950 . S
C921 C912 1.390 . S
C921 H914 0.950 . S
C921 C918 1.387 . S
C922 C923 1.387 . S
C922 H926 0.950 . S
C922 C931 1.390 . S
C923 C922 1.387 . S
C923 C925 1.387 . S
H924 C931 0.950 . S
C925 C923 1.387 . S
C925 C927 1.390 . S
C925 H929 0.950 . S
H926 C922 0.950 . S
C927 C925 1.390 . S
C927 C928 1.387 . S
C927 H930 0.950 . S
C928 C927 1.387 . S
C928 C931 1.387 . S
H929 C925 0.950 . S
H930 C927 0.950 . S
C931 C922 1.390 . S
C931 H924 0.950 . S
C931 C928 1.387 . S
C932 C933 1.387 . S
C932 H936 0.950 . S
C932 C941 1.390 . S
C933 C932 1.387 . S
C933 C935 1.387 . S
H934 C941 0.950 . S
C935 C933 1.387 . S
C935 C937 1.390 . S
C935 H939 0.950 . S
H936 C932 0.950 . S
C937 C935 1.390 . S
C937 C938 1.387 . S
C937 H940 0.950 . S
C938 C937 1.387 . S
C938 C941 1.387 . S
H939 C935 0.950 . S
H940 C937 0.950 . S
C941 C932 1.390 . S
C941 H934 0.950 . S
C941 C938 1.387 . S
C942 C943 1.387 . S
C942 H946 0.950 . S
C942 C951 1.390 . S
C943 C942 1.387 . S
C943 C945 1.387 . S
H944 C951 0.950 . S
C945 C943 1.387 . S
C945 C947 1.390 . S
C945 H949 0.950 . S
H946 C942 0.950 . S
C947 C945 1.390 . S
C947 C948 1.387 . S
C947 H950 0.950 . S
C948 C947 1.387 . S
C948 C951 1.387 . S
H949 C945 0.950 . S
H950 C947 0.950 . S
C951 C942 1.390 . S
C951 H944 0.950 . S
C951 C948 1.387 . S
C952 C953 1.387 . S
C952 H956 0.950 . S
C952 C961 1.390 . S
C953 C952 1.387 . S
C953 C955 1.387 . S
H954 C961 0.950 . S
C955 C953 1.387 . S
C955 C957 1.390 . S
C955 H959 0.950 . S
H956 C952 0.950 . S
C957 C955 1.390 . S
C957 C958 1.387 . S
C957 H960 0.950 . S
C958 C957 1.387 . S
C958 C961 1.387 . S
H959 C955 0.950 . S
H960 C957 0.950 . S
C961 C952 1.390 . S
C961 H954 0.950 . S
C961 C958 1.387 . S
C962 C963 1.387 . S
C962 H966 0.950 . S
C962 C971 1.390 . S
C963 C962 1.387 . S
C963 C965 1.387 . S
H964 C971 0.950 . S
C965 C963 1.387 . S
C965 C967 1.390 . S
C965 H969 0.950 . S
H966 C962 0.950 . S
C967 C965 1.390 . S
C967 C968 1.387 . S
C967 H970 0.950 . S
C968 C967 1.387 . S
C968 C971 1.387 . S
H969 C965 0.950 . S
H970 C967 0.950 . S
C971 C962 1.390 . S
C971 H964 0.950 . S
C971 C968 1.387 . S
C972 C973 1.387 . S
C972 H976 0.950 . S
C972 C981 1.390 . S
C973 C972 1.387 . S
C973 C975 1.387 . S
H974 C981 0.950 . S
C975 C973 1.387 . S
C975 C977 1.390 . S
C975 H979 0.950 . S
H976 C972 0.950 . S
C977 C975 1.390 . S
C977 C978 1.387 . S
C977 H980 0.950 . S
C978 C977 1.387 . S
C978 C981 1.387 . S
H979 C975 0.950 . S
H980 C977 0.950 . S
C981 C972 1.390 . S
C981 H974 0.950 . S
C981 C978 1.387 . S
C982 C983 1.387 . S
C982 H986 0.950 . S
C982 C991 1.390 . S
C983 C982 1.387 . S
C983 C985 1.387 . S
H984 C991 0.950 . S
C985 C983 1.387 . S
C985 C987 1.390 . S
C985 H989 0.950 . S
H986 C982 0.950 . S
C987 C985 1.390 . S
C987 C988 1.387 . S
C987 H990 0.950 . S
C988 C987 1.387 . S
C988 C991 1.387 . S
H989 C985 0.950 . S
H990 C987 0.950 . S
C991 C982 1.390 . S
C991 H984 0.950 . S
C991 C988 1.387 . S
C992 C993 1.387 . S
C992 H996 0.950 . S
C992 C1001 1.390 . S
C993 C992 1.387 . S
C993 C995 1.387 . S
H994 C1001 0.950 . S
C995 C993 1.387 . S
C995 C997 1.390 . S
C995 H999 0.950 . S
H996 C992 0.950 . S
C997 C995 1.390 . S
C997 C998 1.387 . S
C997 H1000 0.950 . S
C998 C997 1.387 . S
C998 C1001 1.387 . S
H999 C995 0.950 . S
H1000 C997 0.950 . S
C1001 C992 1.390 . S
C1001 H994 0.950 . S
C1001 C998 1.387 . S
C1002 C1003 1.387 . S
C1002 H1006 0.950 . S
C1002 C1011 1.390 . S
C1003 C1002 1.387 . S
C1003 C1005 1.387 . S
H1004 C1011 0.950 . S
C1005 C1003 1.387 . S
C1005 C1007 1.390 . S
C1005 H1009 0.950 . S
H1006 C1002 0.950 . S
C1007 C1005 1.390 . S
C1007 C1008 1.387 . S
C1007 H1010 0.950 . S
C1008 C1007 1.387 . S
C1008 C1011 1.387 . S
H1009 C1005 0.950 . S
H1010 C1007 0.950 . S
C1011 C1002 1.390 . S
C1011 H1004 0.950 . S
C1011 C1008 1.387 . S
C1012 C1013 1.387 . S
C1012 H1016 0.950 . S
C1012 C1021 1.390 . S
C1013 C1012 1.387 . S
C1013 C1015 1.387 . S
H1014 C1021 0.950 . S
C1015 C1013 1.387 . S
C1015 C1017 1.390 . S
C1015 H1019 0.950 . S
H1016 C1012 0.950 . S
C1017 C1015 1.390 . S
C1017 C1018 1.387 . S
C1017 H1020 0.950 . S
C1018 C1017 1.387 . S
C1018 C1021 1.387 . S
H1019 C1015 0.950 . S
H1020 C1017 0.950 . S
C1021 C1012 1.390 . S
C1021 H1014 0.950 . S
C1021 C1018 1.387 . S
C1022 C1023 1.387 . S
C1022 H1026 0.950 . S
C1022 C1031 1.390 . S
C1023 C1022 1.387 . S
C1023 C1025 1.387 . S
H1024 C1031 0.950 . S
C1025 C1023 1.387 . S
C1025 C1027 1.390 . S
C1025 H1029 0.950 . S
H1026 C1022 0.950 . S
C1027 C1025 1.390 . S
C1027 C1028 1.387 . S
C1027 H1030 0.950 . S
C1028 C1027 1.387 . S
C1028 C1031 1.387 . S
H1029 C1025 0.950 . S
H1030 C1027 0.950 . S
C1031 C1022 1.390 . S
C1031 H1024 0.950 . S
C1031 C1028 1.387 . S
C1032 C1033 1.387 . S
C1032 H1036 0.950 . S
C1032 C1041 1.390 . S
C1033 C1032 1.387 . S
C1033 C1035 1.387 . S
H1034 C1041 0.950 . S
C1035 C1033 1.387 . S
C1035 C1037 1.390 . S
C1035 H1039 0.950 . S
H1036 C1032 0.950 . S
C1037 C1035 1.390 . S
C1037 C1038 1.387 . S
C1037 H1040 0.950 . S
C1038 C1037 1.387 . S
C1038 C1041 1.387 . S
H1039 C1035 0.950 . S
H1040 C1037 0.950 . S
C1041 C1032 1.390 . S
C1041 H1034 0.950 . S
C1041 C1038 1.387 . S
C1042 C1043 1.387 . S
C1042 H1046 0.950 . S
C1042 C1051 1.390 . S
C1043 C1042 1.387 . S
C1043 C1045 1.387 . S
H1044 C1051 0.950 . S
C1045 C1043 1.387 . S
C1045 C1047 1.390 . S
C1045 H1049 0.950 . S
H1046 C1042 0.950 . S
C1047 C1045 1.390 . S
C1047 C1048 1.387 . S
C1047 H1050 0.950 . S
C1048 C1047 1.387 . S
C1048 C1051 1.387 . S
H1049 C1045 0.950 . S
H1050 C1047 0.950 . S
C1051 C1042 1.390 . S
C1051 H1044 0.950 . S
C1051 C1048 1.387 . S
C1052 C1053 1.387 . S
C1052 H1056 0.950 . S
C1052 C1061 1.390 . S
C1053 C1052 1.387 . S
C1053 C1055 1.387 . S
H1054 C1061 0.950 . S
C1055 C1053 1.387 . S
C1055 C1057 1.390 . S
C1055 H1059 0.950 . S
H1056 C1052 0.950 . S
C1057 C1055 1.390 . S
C1057 C1058 1.387 . S
C1057 H1060 0.950 . S
C1058 C1057 1.387 . S
C1058 C1061 1.387 . S
H1059 C1055 0.950 . S
H1060 C1057 0.950 . S
C1061 C1052 1.390 . S
C1061 H1054 0.950 . S
C1061 C1058 1.387 . S
C1062 C1063 1.387 . S
C1062 H1066 0.950 . S
C1062 C1071 1.390 . S
C1063 C1062 1.387 . S
C1063 C1065 1.387 . S
H1064 C1071 0.950 . S
C1065 C1063 1.387 . S
C1065 C1067 1.390 . S
C1065 H1069 0.950 . S
H1066 C1062 0.950 . S
C1067 C1065 1.390 . S
C1067 C1068 1.387 . S
C1067 H1070 0.950 . S
C1068 C1067 1.387 . S
C1068 C1071 1.387 . S
H1069 C1065 0.950 . S
H1070 C1067 0.950 . S
C1071 C1062 1.390 . S
C1071 H1064 0.950 . S
C1071 C1068 1.387 . S
C1072 C1073 1.387 . S
C1072 H1076 0.950 . S
C1072 C1081 1.390 . S
C1073 C1072 1.387 . S
C1073 C1075 1.387 . S
H1074 C1081 0.950 . S
C1075 C1073 1.387 . S
C1075 C1077 1.390 . S
C1075 H1079 0.950 . S
H1076 C1072 0.950 . S
C1077 C1075 1.390 . S
C1077 C1078 1.387 . S
C1077 H1080 0.950 . S
C1078 C1077 1.387 . S
C1078 C1081 1.387 . S
H1079 C1075 0.950 . S
H1080 C1077 0.950 . S
C1081 C1072 1.390 . S
C1081 H1074 0.950 . S
C1081 C1078 1.387 . S
C1082 C1083 1.387 . S
C1082 H1086 0.950 . S
C1082 C1091 1.390 . S
C1083 C1082 1.387 . S
C1083 C1085 1.387 . S
H1084 C1091 0.950 . S
C1085 C1083 1.387 . S
C1085 C1087 1.390 . S
C1085 H1089 0.950 . S
H1086 C1082 0.950 . S
C1087 C1085 1.390 . S
C1087 C1088 1.387 . S
C1087 H1090 0.950 . S
C1088 C1087 1.387 . S
C1088 C1091 1.387 . S
H1089 C1085 0.950 . S
H1090 C1087 0.950 . S
C1091 C1082 1.390 . S
C1091 H1084 0.950 . S
C1091 C1088 1.387 . S
C1092 C1093 1.387 . S
C1092 H1096 0.950 . S
C1092 C1101 1.390 . S
C1093 C1092 1.387 . S
C1093 C1095 1.387 . S
H1094 C1101 0.950 . S
C1095 C1093 1.387 . S
C1095 C1097 1.390 . S
C1095 H1099 0.950 . S
H1096 C1092 0.950 . S
C1097 C1095 1.390 . S
C1097 C1098 1.387 . S
C1097 H1100 0.941 1_554 S
C1098 C1097 1.387 . S
C1098 C1101 1.387 . S
H1099 C1095 0.950 . S
H1100 C1097 0.941 1_556 S
C1101 C1092 1.390 . S
C1101 H1094 0.950 . S
C1101 C1098 1.387 . S
C1102 C1103 1.387 . S
C1102 H1106 0.950 . S
C1102 C1111 1.390 . S
C1103 C1102 1.387 . S
C1103 C1105 1.387 . S
H1104 C1111 0.950 . S
C1105 C1103 1.387 . S
C1105 C1107 1.390 . S
C1105 H1109 0.950 . S
H1106 C1102 0.950 . S
C1107 C1105 1.390 . S
C1107 C1108 1.387 . S
C1107 H1110 0.950 . S
C1108 C1107 1.387 . S
C1108 C1111 1.387 . S
H1109 C1105 0.950 . S
H1110 C1107 0.950 . S
C1111 C1102 1.390 . S
C1111 H1104 0.950 . S
C1111 C1108 1.387 . S
C1112 C1113 1.387 . S
C1112 H1116 0.950 . S
C1112 C1121 1.390 . S
C1113 C1112 1.387 . S
C1113 C1115 1.387 . S
H1114 C1121 0.950 . S
C1115 C1113 1.387 . S
C1115 C1117 1.390 . S
C1115 H1119 0.943 1_554 S
H1116 C1112 0.950 . S
C1117 C1115 1.390 . S
C1117 C1118 1.387 . S
C1117 H1120 0.950 . S
C1118 C1117 1.387 . S
C1118 C1121 1.387 . S
H1119 C1115 0.943 1_556 S
H1120 C1117 0.950 . S
C1121 C1112 1.390 . S
C1121 H1114 0.950 . S
C1121 C1118 1.387 . S
C1122 C1123 1.387 . S
C1122 H1126 0.950 . S
C1122 C1131 1.390 . S
C1123 C1122 1.387 . S
C1123 C1125 1.387 . S
H1124 C1131 0.950 . S
C1125 C1123 1.387 . S
C1125 C1127 1.390 . S
C1125 H1129 0.950 . S
H1126 C1122 0.950 . S
C1127 C1125 1.390 . S
C1127 C1128 1.387 . S
C1127 H1130 0.950 . S
C1128 C1127 1.387 . S
C1128 C1131 1.387 . S
H1129 C1125 0.950 . S
H1130 C1127 0.950 . S
C1131 C1122 1.390 . S
C1131 H1124 0.950 . S
C1131 C1128 1.387 . S
C1132 C1133 1.387 . S
C1132 H1136 0.950 . S
C1132 C1141 1.390 . S
C1133 C1132 1.387 . S
C1133 C1135 1.387 . S
H1134 C1141 0.950 . S
C1135 C1133 1.387 . S
C1135 C1137 1.390 . S
C1135 H1139 0.950 . S
H1136 C1132 0.950 . S
C1137 C1135 1.390 . S
C1137 C1138 1.387 . S
C1137 H1140 0.950 . S
C1138 C1137 1.387 . S
C1138 C1141 1.387 . S
H1139 C1135 0.950 . S
H1140 C1137 0.950 . S
C1141 C1132 1.390 . S
C1141 H1134 0.950 . S
C1141 C1138 1.387 . S
C1142 C1143 1.387 . S
C1142 H1146 0.950 . S
C1142 C1151 1.390 . S
C1143 C1142 1.387 . S
C1143 C1145 1.387 . S
H1144 C1151 0.950 . S
C1145 C1143 1.387 . S
C1145 C1147 1.390 . S
C1145 H1149 0.950 . S
H1146 C1142 0.950 . S
C1147 C1145 1.390 . S
C1147 C1148 1.387 . S
C1147 H1150 0.930 1_556 S
C1148 C1147 1.387 . S
C1148 C1151 1.387 . S
H1149 C1145 0.950 . S
H1150 C1147 0.930 1_554 S
C1151 C1142 1.390 . S
C1151 H1144 0.950 . S
C1151 C1148 1.387 . S
C1152 C1153 1.387 . S
C1152 H1156 0.950 . S
C1152 C1161 1.390 . S
C1153 C1152 1.387 . S
C1153 C1155 1.387 . S
H1154 C1161 0.950 . S
C1155 C1153 1.387 . S
C1155 C1157 1.390 . S
C1155 H1159 0.950 . S
H1156 C1152 0.950 . S
C1157 C1155 1.390 . S
C1157 C1158 1.387 . S
C1157 H1160 0.950 . S
C1158 C1157 1.387 . S
C1158 C1161 1.387 . S
H1159 C1155 0.950 . S
H1160 C1157 0.950 . S
C1161 C1152 1.390 . S
C1161 H1154 0.950 . S
C1161 C1158 1.387 . S
C1162 C1163 1.387 . S
C1162 H1166 0.950 . S
C1162 C1171 1.390 . S
C1163 C1162 1.387 . S
C1163 C1165 1.387 . S
H1164 C1171 0.950 . S
C1165 C1163 1.387 . S
C1165 C1167 1.390 . S
C1165 H1169 0.950 . S
H1166 C1162 0.950 . S
C1167 C1165 1.390 . S
C1167 C1168 1.387 . S
C1167 H1170 0.950 . S
C1168 C1167 1.387 . S
C1168 C1171 1.387 . S
H1169 C1165 0.950 . S
H1170 C1167 0.950 . S
C1171 C1162 1.390 . S
C1171 H1164 0.950 . S
C1171 C1168 1.387 . S
C1172 C1173 1.387 . S
C1172 H1176 0.950 . S
C1172 C1181 1.390 . S
C1173 C1172 1.387 . S
C1173 C1175 1.387 . S
H1174 C1181 0.950 . S
C1175 C1173 1.387 . S
C1175 C1177 1.390 . S
C1175 H1179 0.950 . S
H1176 C1172 0.950 . S
C1177 C1175 1.390 . S
C1177 C1178 1.387 . S
C1177 H1180 0.950 . S
C1178 C1177 1.387 . S
C1178 C1181 1.387 . S
H1179 C1175 0.950 . S
H1180 C1177 0.950 . S
C1181 C1172 1.390 . S
C1181 H1174 0.950 . S
C1181 C1178 1.387 . S
C1182 C1183 1.387 . S
C1182 H1186 0.950 . S
C1182 C1191 1.390 . S
C1183 C1182 1.387 . S
C1183 C1185 1.387 . S
H1184 C1191 0.950 . S
C1185 C1183 1.387 . S
C1185 C1187 1.390 . S
C1185 H1189 0.950 . S
H1186 C1182 0.950 . S
C1187 C1185 1.390 . S
C1187 C1188 1.387 . S
C1187 H1190 0.950 . S
C1188 C1187 1.387 . S
C1188 C1191 1.387 . S
H1189 C1185 0.950 . S
H1190 C1187 0.950 . S
C1191 C1182 1.390 . S
C1191 H1184 0.950 . S
C1191 C1188 1.387 . S
C1192 C1193 1.387 . S
C1192 H1196 0.950 . S
C1192 C1201 1.390 . S
C1193 C1192 1.387 . S
C1193 C1195 1.387 . S
H1194 C1201 0.950 . S
C1195 C1193 1.387 . S
C1195 C1197 1.390 . S
C1195 H1199 0.950 . S
H1196 C1192 0.950 . S
C1197 C1195 1.390 . S
C1197 C1198 1.387 . S
C1197 H1200 0.950 . S
C1198 C1197 1.387 . S
C1198 C1201 1.387 . S
H1199 C1195 0.950 . S
H1200 C1197 0.950 . S
C1201 C1192 1.390 . S
C1201 H1194 0.950 . S
C1201 C1198 1.387 . S
C1202 C1203 1.387 . S
C1202 H1206 0.950 . S
C1202 C1211 1.390 . S
C1203 C1202 1.387 . S
C1203 C1205 1.387 . S
H1204 C1211 0.950 . S
C1205 C1203 1.387 . S
C1205 C1207 1.390 . S
C1205 H1209 0.950 . S
H1206 C1202 0.950 . S
C1207 C1205 1.390 . S
C1207 C1208 1.387 . S
C1207 H1210 0.950 . S
C1208 C1207 1.387 . S
C1208 C1211 1.387 . S
H1209 C1205 0.950 . S
H1210 C1207 0.950 . S
C1211 C1202 1.390 . S
C1211 H1204 0.950 . S
C1211 C1208 1.387 . S
C1212 C1213 1.387 . S
C1212 H1216 0.950 . S
C1212 C1221 1.390 . S
C1213 C1212 1.387 . S
C1213 C1215 1.387 . S
H1214 C1221 0.950 . S
C1215 C1213 1.387 . S
C1215 C1217 1.390 . S
C1215 H1219 0.950 . S
H1216 C1212 0.950 . S
C1217 C1215 1.390 . S
C1217 C1218 1.387 . S
C1217 H1220 0.950 . S
C1218 C1217 1.387 . S
C1218 C1221 1.387 . S
H1219 C1215 0.950 . S
H1220 C1217 0.950 . S
C1221 C1212 1.390 . S
C1221 H1214 0.950 . S
C1221 C1218 1.387 . S
C1222 C1223 1.387 . S
C1222 H1226 0.950 . S
C1222 C1231 1.390 . S
C1223 C1222 1.387 . S
C1223 C1225 1.387 . S
H1224 C1231 0.950 . S
C1225 C1223 1.387 . S
C1225 C1227 1.390 . S
C1225 H1229 0.950 . S
H1226 C1222 0.950 . S
C1227 C1225 1.390 . S
C1227 C1228 1.387 . S
C1227 H1230 0.950 . S
C1228 C1227 1.387 . S
C1228 C1231 1.387 . S
H1229 C1225 0.950 . S
H1230 C1227 0.950 . S
C1231 C1222 1.390 . S
C1231 H1224 0.950 . S
C1231 C1228 1.387 . S
C1232 C1233 1.387 . S
C1232 H1236 0.950 . S
C1232 C1241 1.390 . S
C1233 C1232 1.387 . S
C1233 C1235 1.387 . S
H1234 C1241 0.950 . S
C1235 C1233 1.387 . S
C1235 C1237 1.390 . S
C1235 H1239 0.950 . S
H1236 C1232 0.950 . S
C1237 C1235 1.390 . S
C1237 C1238 1.387 . S
C1237 H1240 0.950 . S
C1238 C1237 1.387 . S
C1238 C1241 1.387 . S
H1239 C1235 0.950 . S
H1240 C1237 0.950 . S
C1241 C1232 1.390 . S
C1241 H1234 0.950 . S
C1241 C1238 1.387 . S
C1242 C1243 1.387 . S
C1242 H1246 0.950 . S
C1242 C1251 1.390 . S
C1243 C1242 1.387 . S
C1243 C1245 1.387 . S
H1244 C1251 0.950 . S
C1245 C1243 1.387 . S
C1245 C1247 1.390 . S
C1245 H1249 0.950 . S
H1246 C1242 0.950 . S
C1247 C1245 1.390 . S
C1247 C1248 1.387 . S
C1247 H1250 0.950 . S
C1248 C1247 1.387 . S
C1248 C1251 1.387 . S
H1249 C1245 0.950 . S
H1250 C1247 0.950 . S
C1251 C1242 1.390 . S
C1251 H1244 0.950 . S
C1251 C1248 1.387 . S
C1252 C1253 1.387 . S
C1252 H1256 0.950 . S
C1252 C1261 1.390 . S
C1253 C1252 1.387 . S
C1253 C1255 1.387 . S
H1254 C1261 0.950 . S
C1255 C1253 1.387 . S
C1255 C1257 1.390 . S
C1255 H1259 0.950 . S
H1256 C1252 0.950 . S
C1257 C1255 1.390 . S
C1257 C1258 1.387 . S
C1257 H1260 0.950 . S
C1258 C1257 1.387 . S
C1258 C1261 1.387 . S
H1259 C1255 0.950 . S
H1260 C1257 0.950 . S
C1261 C1252 1.390 . S
C1261 H1254 0.950 . S
C1261 C1258 1.387 . S
C1262 C1263 1.387 . S
C1262 H1266 0.950 . S
C1262 C1271 1.390 . S
C1263 C1262 1.387 . S
C1263 C1265 1.387 . S
H1264 C1271 0.950 . S
C1265 C1263 1.387 . S
C1265 C1267 1.390 . S
C1265 H1269 0.950 . S
H1266 C1262 0.950 . S
C1267 C1265 1.390 . S
C1267 C1268 1.387 . S
C1267 H1270 0.950 . S
C1268 C1267 1.387 . S
C1268 C1271 1.387 . S
H1269 C1265 0.950 . S
H1270 C1267 0.950 . S
C1271 C1262 1.390 . S
C1271 H1264 0.950 . S
C1271 C1268 1.387 . S
C1272 C1273 1.387 . S
C1272 H1276 0.950 . S
C1272 C1281 1.390 . S
C1273 C1272 1.387 . S
C1273 C1275 1.387 . S
H1274 C1281 0.950 . S
C1275 C1273 1.387 . S
C1275 C1277 1.390 . S
C1275 H1279 0.950 . S
H1276 C1272 0.950 . S
C1277 C1275 1.390 . S
C1277 C1278 1.387 . S
C1277 H1280 0.950 . S
C1278 C1277 1.387 . S
C1278 C1281 1.387 . S
H1279 C1275 0.950 . S
H1280 C1277 0.950 . S
C1281 C1272 1.390 . S
C1281 H1274 0.950 . S
C1281 C1278 1.387 . S
C1282 C1283 1.387 . S
C1282 H1286 0.950 . S
C1282 C1291 1.390 . S
C1283 C1282 1.387 . S
C1283 C1285 1.387 . S
H1284 C1291 0.950 . S
C1285 C1283 1.387 . S
C1285 C1287 1.390 . S
C1285 H1289 0.950 . S
H1286 C1282 0.950 . S
C1287 C1285 1.390 . S
C1287 C1288 1.387 . S
C1287 H1290 0.950 . S
C1288 C1287 1.387 . S
C1288 C1291 1.387 . S
H1289 C1285 0.950 . S
H1290 C1287 0.950 . S
C1291 C1282 1.390 . S
C1291 H1284 0.950 . S
C1291 C1288 1.387 . S
C1292 C1293 1.387 . S
C1292 H1296 0.950 . S
C1292 C1301 1.390 . S
C1293 C1292 1.387 . S
C1293 C1295 1.387 . S
H1294 C1301 0.950 . S
C1295 C1293 1.387 . S
C1295 C1297 1.390 . S
C1295 H1299 0.950 . S
H1296 C1292 0.950 . S
C1297 C1295 1.390 . S
C1297 C1298 1.387 . S
C1297 H1300 0.950 . S
C1298 C1297 1.387 . S
C1298 C1301 1.387 . S
H1299 C1295 0.950 . S
H1300 C1297 0.950 . S
C1301 C1292 1.390 . S
C1301 H1294 0.950 . S
C1301 C1298 1.387 . S
C1302 C1303 1.387 . S
C1302 H1306 0.950 . S
C1302 C1311 1.390 . S
C1303 C1302 1.387 . S
C1303 C1305 1.387 . S
H1304 C1311 0.950 . S
C1305 C1303 1.387 . S
C1305 C1307 1.390 . S
C1305 H1309 0.950 . S
H1306 C1302 0.950 . S
C1307 C1305 1.390 . S
C1307 C1308 1.387 . S
C1307 H1310 0.950 . S
C1308 C1307 1.387 . S
C1308 C1311 1.387 . S
H1309 C1305 0.950 . S
H1310 C1307 0.950 . S
C1311 C1302 1.390 . S
C1311 H1304 0.950 . S
C1311 C1308 1.387 . S
C1312 C1313 1.387 . S
C1312 H1316 0.950 . S
C1312 C1321 1.390 . S
C1313 C1312 1.387 . S
C1313 C1315 1.387 . S
H1314 C1321 0.950 . S
C1315 C1313 1.387 . S
C1315 C1317 1.390 . S
C1315 H1319 0.950 . S
H1316 C1312 0.950 . S
C1317 C1315 1.390 . S
C1317 C1318 1.387 . S
C1317 H1320 0.950 . S
C1318 C1317 1.387 . S
C1318 C1321 1.387 . S
H1319 C1315 0.950 . S
H1320 C1317 0.950 . S
C1321 C1312 1.390 . S
C1321 H1314 0.950 . S
C1321 C1318 1.387 . S
C1322 C1323 1.387 . S
C1322 H1326 0.950 . S
C1322 C1331 1.390 . S
C1323 C1322 1.387 . S
C1323 C1325 1.387 . S
H1324 C1331 0.950 . S
C1325 C1323 1.387 . S
C1325 C1327 1.390 . S
C1325 H1329 0.950 . S
H1326 C1322 0.950 . S
C1327 C1325 1.390 . S
C1327 C1328 1.387 . S
C1327 H1330 0.950 . S
C1328 C1327 1.387 . S
C1328 C1331 1.387 . S
H1329 C1325 0.950 . S
H1330 C1327 0.950 . S
C1331 C1322 1.390 . S
C1331 H1324 0.950 . S
C1331 C1328 1.387 . S
C1332 C1333 1.387 . S
C1332 H1336 0.950 . S
C1332 C1341 1.390 . S
C1333 C1332 1.387 . S
C1333 C1335 1.387 . S
H1334 C1341 0.950 . S
C1335 C1333 1.387 . S
C1335 C1337 1.390 . S
C1335 H1339 0.950 . S
H1336 C1332 0.950 . S
C1337 C1335 1.390 . S
C1337 C1338 1.387 . S
C1337 H1340 0.950 . S
C1338 C1337 1.387 . S
C1338 C1341 1.387 . S
H1339 C1335 0.950 . S
H1340 C1337 0.950 . S
C1341 C1332 1.390 . S
C1341 H1334 0.950 . S
C1341 C1338 1.387 . S
C1342 C1343 1.387 . S
C1342 H1346 0.950 . S
C1342 C1351 1.390 . S
C1343 C1342 1.387 . S
C1343 C1345 1.387 . S
H1344 C1351 0.950 . S
C1345 C1343 1.387 . S
C1345 C1347 1.390 . S
C1345 H1349 0.950 . S
H1346 C1342 0.950 . S
C1347 C1345 1.390 . S
C1347 C1348 1.387 . S
C1347 H1350 0.950 . S
C1348 C1347 1.387 . S
C1348 C1351 1.387 . S
H1349 C1345 0.950 . S
H1350 C1347 0.950 . S
C1351 C1342 1.390 . S
C1351 H1344 0.950 . S
C1351 C1348 1.387 . S
C1352 C1353 1.387 . S
C1352 H1356 0.950 . S
C1352 C1361 1.390 . S
C1353 C1352 1.387 . S
C1353 C1355 1.387 . S
H1354 C1361 0.950 . S
C1355 C1353 1.387 . S
C1355 C1357 1.390 . S
C1355 H1359 0.950 . S
H1356 C1352 0.950 . S
C1357 C1355 1.390 . S
C1357 C1358 1.387 . S
C1357 H1360 0.950 . S
C1358 C1357 1.387 . S
C1358 C1361 1.387 . S
H1359 C1355 0.950 . S
H1360 C1357 0.950 . S
C1361 C1352 1.390 . S
C1361 H1354 0.950 . S
C1361 C1358 1.387 . S
C1362 C1363 1.387 . S
C1362 H1366 0.950 . S
C1362 C1371 1.390 . S
C1363 C1362 1.387 . S
C1363 C1365 1.387 . S
H1364 C1371 0.950 . S
C1365 C1363 1.387 . S
C1365 C1367 1.390 . S
C1365 H1369 0.950 . S
H1366 C1362 0.950 . S
C1367 C1365 1.390 . S
C1367 C1368 1.387 . S
C1367 H1370 0.950 . S
C1368 C1367 1.387 . S
C1368 C1371 1.387 . S
H1369 C1365 0.950 . S
H1370 C1367 0.950 . S
C1371 C1362 1.390 . S
C1371 H1364 0.950 . S
C1371 C1368 1.387 . S
C1372 C1373 1.387 . S
C1372 H1376 0.950 . S
C1372 C1381 1.390 . S
C1373 C1372 1.387 . S
C1373 C1375 1.387 . S
H1374 C1381 0.950 . S
C1375 C1373 1.387 . S
C1375 C1377 1.390 . S
C1375 H1379 0.933 1_556 S
H1376 C1372 0.950 . S
C1377 C1375 1.390 . S
C1377 C1378 1.387 . S
C1377 H1380 0.950 . S
C1378 C1377 1.387 . S
C1378 C1381 1.387 . S
H1379 C1375 0.933 1_554 S
H1380 C1377 0.950 . S
C1381 C1372 1.390 . S
C1381 H1374 0.950 . S
C1381 C1378 1.387 . S
C1382 C1383 1.387 . S
C1382 H1386 0.950 . S
C1382 C1391 1.390 . S
C1383 C1382 1.387 . S
C1383 C1385 1.387 . S
H1384 C1391 0.950 . S
C1385 C1383 1.387 . S
C1385 C1387 1.390 . S
C1385 H1389 0.950 . S
H1386 C1382 0.950 . S
C1387 C1385 1.390 . S
C1387 C1388 1.387 . S
C1387 H1390 0.950 . S
C1388 C1387 1.387 . S
C1388 C1391 1.387 . S
H1389 C1385 0.950 . S
H1390 C1387 0.950 . S
C1391 C1382 1.390 . S
C1391 H1384 0.950 . S
C1391 C1388 1.387 . S
C1392 C1393 1.387 . S
C1392 H1396 0.950 . S
C1392 C1401 1.390 . S
C1393 C1392 1.387 . S
C1393 C1395 1.387 . S
H1394 C1401 0.950 . S
C1395 C1393 1.387 . S
C1395 C1397 1.390 . S
C1395 H1399 0.950 . S
H1396 C1392 0.950 . S
C1397 C1395 1.390 . S
C1397 C1398 1.387 . S
C1397 H1400 0.950 . S
C1398 C1397 1.387 . S
C1398 C1401 1.387 . S
H1399 C1395 0.950 . S
H1400 C1397 0.950 . S
C1401 C1392 1.390 . S
C1401 H1394 0.950 . S
C1401 C1398 1.387 . S
C1402 C1403 1.387 . S
C1402 H1406 0.950 . S
C1402 C1411 1.390 . S
C1403 C1402 1.387 . S
C1403 C1405 1.387 . S
H1404 C1411 0.950 . S
C1405 C1403 1.387 . S
C1405 C1407 1.390 . S
C1405 H1409 0.950 . S
H1406 C1402 0.950 . S
C1407 C1405 1.390 . S
C1407 C1408 1.387 . S
C1407 H1410 0.950 . S
C1408 C1407 1.387 . S
C1408 C1411 1.387 . S
H1409 C1405 0.950 . S
H1410 C1407 0.950 . S
C1411 C1402 1.390 . S
C1411 H1404 0.950 . S
C1411 C1408 1.387 . S
C1412 C1413 1.387 . S
C1412 H1416 0.950 . S
C1412 C1421 1.390 . S
C1413 C1412 1.387 . S
C1413 C1415 1.387 . S
H1414 C1421 0.950 . S
C1415 C1413 1.387 . S
C1415 C1417 1.390 . S
C1415 H1419 0.950 . S
H1416 C1412 0.950 . S
C1417 C1415 1.390 . S
C1417 C1418 1.387 . S
C1417 H1420 0.950 . S
C1418 C1417 1.387 . S
C1418 C1421 1.387 . S
H1419 C1415 0.950 . S
H1420 C1417 0.950 . S
C1421 C1412 1.390 . S
C1421 H1414 0.950 . S
C1421 C1418 1.387 . S
C1422 C1423 1.387 . S
C1422 H1426 0.950 . S
C1422 C1431 1.390 . S
C1423 C1422 1.387 . S
C1423 C1425 1.387 . S
H1424 C1431 0.950 . S
C1425 C1423 1.387 . S
C1425 C1427 1.390 . S
C1425 H1429 0.950 . S
H1426 C1422 0.950 . S
C1427 C1425 1.390 . S
C1427 C1428 1.387 . S
C1427 H1430 0.950 . S
C1428 C1427 1.387 . S
C1428 C1431 1.387 . S
H1429 C1425 0.950 . S
H1430 C1427 0.950 . S
C1431 C1422 1.390 . S
C1431 H1424 0.950 . S
C1431 C1428 1.387 . S
C1432 C1433 1.387 . S
C1432 H1436 0.950 . S
C1432 C1441 1.390 . S
C1433 C1432 1.387 . S
C1433 C1435 1.387 . S
H1434 C1441 0.950 . S
C1435 C1433 1.387 . S
C1435 C1437 1.390 . S
C1435 H1439 0.950 . S
H1436 C1432 0.950 . S
C1437 C1435 1.390 . S
C1437 C1438 1.387 . S
C1437 H1440 0.950 . S
C1438 C1437 1.387 . S
C1438 C1441 1.387 . S
H1439 C1435 0.950 . S
H1440 C1437 0.950 . S
C1441 C1432 1.390 . S
C1441 H1434 0.950 . S
C1441 C1438 1.387 . S
C1442 C1443 1.387 . S
C1442 H1446 0.950 . S
C1442 C1451 1.390 . S
C1443 C1442 1.387 . S
C1443 C1445 1.387 . S
H1444 C1451 0.950 . S
C1445 C1443 1.387 . S
C1445 C1447 1.390 . S
C1445 H1449 0.950 . S
H1446 C1442 0.950 . S
C1447 C1445 1.390 . S
C1447 C1448 1.387 . S
C1447 H1450 0.950 . S
C1448 C1447 1.387 . S
C1448 C1451 1.387 . S
H1449 C1445 0.950 . S
H1450 C1447 0.950 . S
C1451 C1442 1.390 . S
C1451 H1444 0.950 . S
C1451 C1448 1.387 . S
C1452 C1453 1.387 . S
C1452 H1456 0.950 . S
C1452 C1461 1.390 . S
C1453 C1452 1.387 . S
C1453 C1455 1.387 . S
H1454 C1461 0.950 . S
C1455 C1453 1.387 . S
C1455 C1457 1.390 . S
C1455 H1459 0.950 . S
H1456 C1452 0.950 . S
C1457 C1455 1.390 . S
C1457 C1458 1.387 . S
C1457 H1460 0.950 . S
C1458 C1457 1.387 . S
C1458 C1461 1.387 . S
H1459 C1455 0.950 . S
H1460 C1457 0.950 . S
C1461 C1452 1.390 . S
C1461 H1454 0.950 . S
C1461 C1458 1.387 . S
C1462 C1463 1.387 . S
C1462 H1466 0.950 . S
C1462 C1471 1.390 . S
C1463 C1462 1.387 . S
C1463 C1465 1.387 . S
H1464 C1471 0.950 . S
C1465 C1463 1.387 . S
C1465 C1467 1.390 . S
C1465 H1469 0.950 . S
H1466 C1462 0.950 . S
C1467 C1465 1.390 . S
C1467 C1468 1.387 . S
C1467 H1470 0.950 . S
C1468 C1467 1.387 . S
C1468 C1471 1.387 . S
H1469 C1465 0.950 . S
H1470 C1467 0.950 . S
C1471 C1462 1.390 . S
C1471 H1464 0.950 . S
C1471 C1468 1.387 . S
C1472 C1473 1.387 . S
C1472 H1476 0.950 . S
C1472 C1481 1.390 . S
C1473 C1472 1.387 . S
C1473 C1475 1.387 . S
H1474 C1481 0.950 . S
C1475 C1473 1.387 . S
C1475 C1477 1.390 . S
C1475 H1479 0.950 . S
H1476 C1472 0.950 . S
C1477 C1475 1.390 . S
C1477 C1478 1.387 . S
C1477 H1480 0.950 . S
C1478 C1477 1.387 . S
C1478 C1481 1.387 . S
H1479 C1475 0.950 . S
H1480 C1477 0.950 . S
C1481 C1472 1.390 . S
C1481 H1474 0.950 . S
C1481 C1478 1.387 . S
C1482 C1483 1.387 . S
C1482 H1486 0.950 . S
C1482 C1491 1.390 . S
C1483 C1482 1.387 . S
C1483 C1485 1.387 . S
H1484 C1491 0.950 . S
C1485 C1483 1.387 . S
C1485 C1487 1.390 . S
C1485 H1489 0.950 . S
H1486 C1482 0.950 . S
C1487 C1485 1.390 . S
C1487 C1488 1.387 . S
C1487 H1490 0.950 . S
C1488 C1487 1.387 . S
C1488 C1491 1.387 . S
H1489 C1485 0.950 . S
H1490 C1487 0.950 . S
C1491 C1482 1.390 . S
C1491 H1484 0.950 . S
C1491 C1488 1.387 . S
C1492 C1493 1.387 . S
C1492 H1496 0.950 . S
C1492 C1501 1.390 . S
C1493 C1492 1.387 . S
C1493 C1495 1.387 . S
H1494 C1501 0.950 . S
C1495 C1493 1.387 . S
C1495 C1497 1.390 . S
C1495 H1499 0.950 . S
H1496 C1492 0.950 . S
C1497 C1495 1.390 . S
C1497 C1498 1.387 . S
C1497 H1500 0.950 . S
C1498 C1497 1.387 . S
C1498 C1501 1.387 . S
H1499 C1495 0.950 . S
H1500 C1497 0.950 . S
C1501 C1492 1.390 . S
C1501 H1494 0.950 . S
C1501 C1498 1.387 . S
C1502 C1503 1.387 . S
C1502 H1506 0.950 . S
C1502 C1511 1.390 . S
C1503 C1502 1.387 . S
C1503 C1505 1.387 . S
H1504 C1511 0.950 . S
C1505 C1503 1.387 . S
C1505 C1507 1.390 . S
C1505 H1509 0.950 . S
H1506 C1502 0.950 . S
C1507 C1505 1.390 . S
C1507 C1508 1.387 . S
C1507 H1510 0.950 . S
C1508 C1507 1.387 . S
C1508 C1511 1.387 . S
H1509 C1505 0.950 . S
H1510 C1507 0.950 . S
C1511 C1502 1.390 . S
C1511 H1504 0.950 . S
C1511 C1508 1.387 . S
C1512 C1513 1.387 . S
C1512 H1516 0.950 . S
C1512 C1521 1.390 . S
C1513 C1512 1.387 . S
C1513 C1515 1.387 . S
H1514 C1521 0.950 . S
C1515 C1513 1.387 . S
C1515 C1517 1.390 . S
C1515 H1519 0.950 . S
H1516 C1512 0.950 . S
C1517 C1515 1.390 . S
C1517 C1518 1.387 . S
C1517 H1520 0.950 . S
C1518 C1517 1.387 . S
C1518 C1521 1.387 . S
H1519 C1515 0.950 . S
H1520 C1517 0.950 . S
C1521 C1512 1.390 . S
C1521 H1514 0.950 . S
C1521 C1518 1.387 . S
C1522 C1523 1.387 . S
C1522 H1526 0.950 . S
C1522 C1531 1.390 . S
C1523 C1522 1.387 . S
C1523 C1525 1.387 . S
H1524 C1531 0.950 . S
C1525 C1523 1.387 . S
C1525 C1527 1.390 . S
C1525 H1529 0.950 . S
H1526 C1522 0.950 . S
C1527 C1525 1.390 . S
C1527 C1528 1.387 . S
C1527 H1530 0.950 . S
C1528 C1527 1.387 . S
C1528 C1531 1.387 . S
H1529 C1525 0.950 . S
H1530 C1527 0.950 . S
C1531 C1522 1.390 . S
C1531 H1524 0.950 . S
C1531 C1528 1.387 . S
C1532 C1533 1.387 . S
C1532 H1536 0.950 . S
C1532 C1541 1.390 . S
C1533 C1532 1.387 . S
C1533 C1535 1.387 . S
H1534 C1541 0.950 . S
C1535 C1533 1.387 . S
C1535 C1537 1.390 . S
C1535 H1539 0.950 . S
H1536 C1532 0.950 . S
C1537 C1535 1.390 . S
C1537 C1538 1.387 . S
C1537 H1540 0.950 . S
C1538 C1537 1.387 . S
C1538 C1541 1.387 . S
H1539 C1535 0.950 . S
H1540 C1537 0.950 . S
C1541 C1532 1.390 . S
C1541 H1534 0.950 . S
C1541 C1538 1.387 . S
C1542 C1543 1.387 . S
C1542 H1546 0.950 . S
C1542 C1551 1.390 . S
C1543 C1542 1.387 . S
C1543 C1545 1.387 . S
H1544 C1551 0.950 . S
C1545 C1543 1.387 . S
C1545 C1547 1.390 . S
C1545 H1549 0.950 . S
H1546 C1542 0.950 . S
C1547 C1545 1.390 . S
C1547 C1548 1.387 . S
C1547 H1550 0.950 . S
C1548 C1547 1.387 . S
C1548 C1551 1.387 . S
H1549 C1545 0.950 . S
H1550 C1547 0.950 . S
C1551 C1542 1.390 . S
C1551 H1544 0.950 . S
C1551 C1548 1.387 . S
C1552 C1553 1.387 . S
C1552 H1556 0.950 . S
C1552 C1561 1.390 . S
C1553 C1552 1.387 . S
C1553 C1555 1.387 . S
H1554 C1561 0.950 . S
C1555 C1553 1.387 . S
C1555 C1557 1.390 . S
C1555 H1559 0.950 . S
H1556 C1552 0.950 . S
C1557 C1555 1.390 . S
C1557 C1558 1.387 . S
C1557 H1560 0.950 . S
C1558 C1557 1.387 . S
C1558 C1561 1.387 . S
H1559 C1555 0.950 . S
H1560 C1557 0.950 . S
C1561 C1552 1.390 . S
C1561 H1554 0.950 . S
C1561 C1558 1.387 . S
C1562 C1563 1.387 . S
C1562 H1566 0.950 . S
C1562 C1571 1.390 . S
C1563 C1562 1.387 . S
C1563 C1565 1.387 . S
H1564 C1571 0.950 . S
C1565 C1563 1.387 . S
C1565 C1567 1.390 . S
C1565 H1569 0.950 . S
H1566 C1562 0.950 . S
C1567 C1565 1.390 . S
C1567 C1568 1.387 . S
C1567 H1570 0.950 . S
C1568 C1567 1.387 . S
C1568 C1571 1.387 . S
H1569 C1565 0.950 . S
H1570 C1567 0.950 . S
C1571 C1562 1.390 . S
C1571 H1564 0.950 . S
C1571 C1568 1.387 . S
C1572 C1573 1.387 . S
C1572 H1576 0.950 . S
C1572 C1581 1.390 . S
C1573 C1572 1.387 . S
C1573 C1575 1.387 . S
H1574 C1581 0.950 . S
C1575 C1573 1.387 . S
C1575 C1577 1.390 . S
C1575 H1579 0.950 . S
H1576 C1572 0.950 . S
C1577 C1575 1.390 . S
C1577 C1578 1.387 . S
C1577 H1580 0.950 . S
C1578 C1577 1.387 . S
C1578 C1581 1.387 . S
H1579 C1575 0.950 . S
H1580 C1577 0.950 . S
C1581 C1572 1.390 . S
C1581 H1574 0.950 . S
C1581 C1578 1.387 . S
C1582 C1583 1.387 . S
C1582 H1586 0.950 . S
C1582 C1591 1.390 . S
C1583 C1582 1.387 . S
C1583 C1585 1.387 . S
H1584 C1591 0.950 . S
C1585 C1583 1.387 . S
C1585 C1587 1.390 . S
C1585 H1589 0.950 . S
H1586 C1582 0.950 . S
C1587 C1585 1.390 . S
C1587 C1588 1.387 . S
C1587 H1590 0.950 . S
C1588 C1587 1.387 . S
C1588 C1591 1.387 . S
H1589 C1585 0.950 . S
H1590 C1587 0.950 . S
C1591 C1582 1.390 . S
C1591 H1584 0.950 . S
C1591 C1588 1.387 . S
C1592 C1593 1.387 . S
C1592 H1596 0.950 . S
C1592 C1601 1.390 . S
C1593 C1592 1.387 . S
C1593 C1595 1.387 . S
H1594 C1601 0.950 . S
C1595 C1593 1.387 . S
C1595 C1597 1.390 . S
C1595 H1599 0.950 . S
H1596 C1592 0.950 . S
C1597 C1595 1.390 . S
C1597 C1598 1.387 . S
C1597 H1600 0.950 . S
C1598 C1597 1.387 . S
C1598 C1601 1.387 . S
H1599 C1595 0.950 . S
H1600 C1597 0.950 . S
C1601 C1592 1.390 . S
C1601 H1594 0.950 . S
C1601 C1598 1.387 . S
C1602 C1603 1.387 . S
C1602 H1606 0.950 . S
C1602 C1611 1.390 . S
C1603 C1602 1.387 . S
C1603 C1605 1.387 . S
H1604 C1611 0.950 . S
C1605 C1603 1.387 . S
C1605 C1607 1.390 . S
C1605 H1609 0.950 . S
H1606 C1602 0.950 . S
C1607 C1605 1.390 . S
C1607 C1608 1.387 . S
C1607 H1610 0.950 . S
C1608 C1607 1.387 . S
C1608 C1611 1.387 . S
H1609 C1605 0.950 . S
H1610 C1607 0.950 . S
C1611 C1602 1.390 . S
C1611 H1604 0.950 . S
C1611 C1608 1.387 . S
C1612 C1613 1.387 . S
C1612 H1616 0.950 . S
C1612 C1621 1.390 . S
C1613 C1612 1.387 . S
C1613 C1615 1.387 . S
H1614 C1621 0.950 . S
C1615 C1613 1.387 . S
C1615 C1617 1.390 . S
C1615 H1619 0.950 . S
H1616 C1612 0.950 . S
C1617 C1615 1.390 . S
C1617 C1618 1.387 . S
C1617 H1620 0.950 . S
C1618 C1617 1.387 . S
C1618 C1621 1.387 . S
H1619 C1615 0.950 . S
H1620 C1617 0.950 . S
C1621 C1612 1.390 . S
C1621 H1614 0.950 . S
C1621 C1618 1.387 . S
C1622 C1623 1.387 . S
C1622 H1626 0.950 . S
C1622 C1631 1.390 . S
C1623 C1622 1.387 . S
C1623 C1625 1.387 . S
H1624 C1631 0.950 . S
C1625 C1623 1.387 . S
C1625 C1627 1.390 . S
C1625 H1629 0.950 . S
H1626 C1622 0.950 . S
C1627 C1625 1.390 . S
C1627 C1628 1.387 . S
C1627 H1630 0.950 . S
C1628 C1627 1.387 . S
C1628 C1631 1.387 . S
H1629 C1625 0.950 . S
H1630 C1627 0.950 . S
C1631 C1622 1.390 . S
C1631 H1624 0.950 . S
C1631 C1628 1.387 . S
C673 C91 1.302 . S
C678 C7 1.302 . S
C683 C21 1.303 . S
C688 C105 1.303 . S
C693 C35 1.302 . S
C698 C63 1.302 . S
C703 C77 1.303 . S
C708 C49 1.303 . S
C713 C483 1.302 . S
C718 C119 1.302 . S
C723 C497 1.303 . S
C728 C133 1.303 . S
C733 C147 1.302 . S
C738 C455 1.302 . S
C743 C161 1.302 . S
C748 C469 1.302 . S
C753 C539 1.302 . S
C758 C175 1.302 . S
C763 C553 1.303 . S
C768 C189 1.303 . S
C773 C511 1.302 . S
C778 C203 1.302 . S
C783 C525 1.303 . S
C788 C217 1.303 . S
C793 C231 1.302 . S
C798 C581 1.302 . S
C803 C245 1.303 . S
C808 C567 1.303 . S
C813 C259 1.303 . S
C818 C329 1.303 . S
C823 C637 1.303 . S
C828 C273 1.303 . S
C833 C651 1.303 . S
C838 C287 1.303 . S
C843 C609 1.302 . S
C848 C301 1.302 . S
C853 C623 1.303 . S
C858 C315 1.303 . S
C863 C427 1.302 . S
C868 C343 1.302 . S
C873 C441 1.303 . S
C878 C357 1.303 . S
C883 C371 1.303 . S
C888 C399 1.303 . S
C893 C385 1.302 . S
C898 C413 1.302 . S
C903 C665 1.302 . S
C908 C595 1.302 . S
C913 C233 1.248 . S
C918 C3 1.329 . S
C923 C17 1.329 . S
C928 C667 1.247 . S
C933 C31 1.330 . S
C938 C303 1.246 . S
C943 C653 1.247 . S
C948 C45 1.329 . S
C953 C59 1.329 . S
C958 C583 1.248 . S
C963 C597 1.246 . S
C968 C73 1.330 . S
C973 C87 1.329 . S
C978 C611 1.250 . S
C983 C289 1.248 . S
C988 C101 1.330 . S
C993 C115 1.330 . S
C998 C9 1.246 . S
C1003 C23 1.246 . S
C1008 C129 1.330 . S
C1013 C143 1.329 . S
C1018 C37 1.248 . S
C1023 C157 1.330 . S
C1028 C51 1.247 . S
C1033 C171 1.329 . S
C1038 C65 1.248 . S
C1043 C79 1.247 . S
C1048 C185 1.330 . S
C1053 C199 1.330 . S
C1058 C93 1.247 . S
C1063 C213 1.330 . S
C1068 C107 1.246 . S
C1073 C227 1.330 . S
C1078 C121 1.247 . S
C1083 C241 1.330 . S
C1088 C513 1.247 . S
C1093 C527 1.248 . S
C1098 C255 1.329 . S
C1103 C541 1.248 . S
C1108 C269 1.329 . S
C1113 C283 1.329 . S
C1118 C219 1.248 . S
C1123 C297 1.330 . S
C1128 C149 1.246 . S
C1133 C499 1.249 . S
C1138 C311 1.329 . S
C1143 C471 1.248 . S
C1148 C325 1.329 . S
C1153 C339 1.330 . S
C1158 C569 1.247 . S
C1163 C353 1.330 . S
C1168 C331 1.247 . S
C1173 C367 1.330 . S
C1178 C639 1.247 . S
C1183 C381 1.330 . S
C1188 C317 1.247 . S
C1193 C395 1.329 . S
C1198 C247 1.249 . S
C1203 C261 1.246 . S
C1208 C409 1.330 . S
C1213 C275 1.247 . S
C1218 C423 1.330 . S
C1223 C625 1.245 . S
C1228 C437 1.330 . S
C1233 C345 1.248 . S
C1238 C451 1.329 . S
C1243 C359 1.249 . S
C1248 C465 1.329 . S
C1253 C479 1.330 . S
C1258 C373 1.246 . S
C1263 C387 1.245 . S
C1268 C493 1.330 . S
C1273 C507 1.330 . S
C1278 C401 1.247 . S
C1283 C415 1.250 . S
C1288 C521 1.330 . S
C1293 C535 1.329 . S
C1298 C429 1.247 . S
C1303 C443 1.246 . S
C1308 C549 1.330 . S
C1313 C563 1.330 . S
C1318 C457 1.247 . S
C1323 C577 1.330 . S
C1328 C177 1.248 . S
C1333 C191 1.249 . S
C1338 C591 1.329 . S
C1343 C605 1.329 . S
C1348 C205 1.248 . S
C1353 C619 1.329 . S
C1358 C555 1.249 . S
C1363 C485 1.248 . S
C1368 C633 1.330 . S
C1373 C647 1.329 . S
C1378 C163 1.248 . S
C1383 C135 1.248 . S
C1388 C661 1.329 . S
C1393 C134 0.941 . S
C1398 C8 0.941 . S
C1403 C22 0.942 . S
C1408 C148 0.941 . S
C1413 C162 0.941 . S
C1418 C36 0.942 . S
C1423 C120 0.941 . S
C1428 C50 0.941 . S
C1433 C64 0.941 . S
C1438 C218 0.941 . S
C1443 C78 0.941 . S
C1448 C176 0.941 . S
C1453 C190 0.941 . S
C1458 C92 0.941 . S
C1463 C204 0.942 . S
C1468 C106 0.941 . S
C1473 C232 0.942 . S
C1478 C260 0.942 . S
C1483 C246 0.942 . S
C1488 C652 0.942 . S
C1493 C274 0.942 . S
C1498 C666 0.942 . S
C1503 C638 0.941 . S
C1508 C288 0.941 . S
C1513 C624 0.942 . S
C1518 C302 0.942 . S
C1523 C582 0.942 . S
C1528 C316 0.942 . S
C1533 C330 0.941 . S
C1538 C610 0.942 . S
C1543 C470 0.941 . S
C1548 C344 0.941 . S
C1553 C484 0.942 . S
C1558 C358 0.942 . S
C1563 C372 0.941 . S
C1568 C498 0.941 . S
C1573 C456 0.941 . S
C1578 C386 0.941 . S
C1583 C554 0.942 . S
C1588 C400 0.942 . S
C1593 C512 0.942 . S
C1598 C414 0.941 . S
C1603 C428 0.941 . S
C1608 C526 0.941 . S
C1613 C540 0.942 . S
C1618 C442 0.942 . S
C1623 C596 0.942 . S
C1628 C568 0.941 . S
