# Generated by pormake.
# Topology uka, (4)-cn, num edge types: 1
# Building blocks:
#     Node 0, Type 0, BuildingBlock: CEKHIL_clean_sbu_0, # of connection points: 4
#     Node 1, Type 0, BuildingBlock: CEKHIL_clean_sbu_0, # of connection points: 4
#     Node 2, Type 0, BuildingBlock: CEKHIL_clean_sbu_0, # of connection points: 4
#     Node 3, Type 0, BuildingBlock: CEKHIL_clean_sbu_0, # of connection points: 4
#     Node 4, Type 0, BuildingBlock: CEKHIL_clean_sbu_0, # of connection points: 4
#     Node 5, Type 0, BuildingBlock: CEKHIL_clean_sbu_0, # of connection points: 4
#     Node 6, Type 0, BuildingBlock: CEKHIL_clean_sbu_0, # of connection points: 4
#     Node 7, Type 0, BuildingBlock: CEKHIL_clean_sbu_0, # of connection points: 4
#     Node 8, Type 0, BuildingBlock: CEKHIL_clean_sbu_0, # of connection points: 4
#     Node 9, Type 0, BuildingBlock: CEKHIL_clean_sbu_0, # of connection points: 4
#     Node 10, Type 0, BuildingBlock: CEKHIL_clean_sbu_0, # of connection points: 4
#     Node 11, Type 0, BuildingBlock: CEKHIL_clean_sbu_0, # of connection points: 4
#     Node 12, Type 0, BuildingBlock: CEKHIL_clean_sbu_0, # of connection points: 4
#     Node 13, Type 0, BuildingBlock: CEKHIL_clean_sbu_0, # of connection points: 4
#     Node 14, Type 0, BuildingBlock: CEKHIL_clean_sbu_0, # of connection points: 4
#     Node 15, Type 0, BuildingBlock: CEKHIL_clean_sbu_0, # of connection points: 4
#     Node 16, Type 0, BuildingBlock: CEKHIL_clean_sbu_0, # of connection points: 4
#     Node 17, Type 0, BuildingBlock: CEKHIL_clean_sbu_0, # of connection points: 4
#     Node 18, Type 0, BuildingBlock: CEKHIL_clean_sbu_0, # of connection points: 4
#     Node 19, Type 0, BuildingBlock: CEKHIL_clean_sbu_0, # of connection points: 4
#     Node 20, Type 0, BuildingBlock: CEKHIL_clean_sbu_0, # of connection points: 4
#     Node 21, Type 0, BuildingBlock: CEKHIL_clean_sbu_0, # of connection points: 4
#     Node 22, Type 0, BuildingBlock: CEKHIL_clean_sbu_0, # of connection points: 4
#     Node 23, Type 0, BuildingBlock: CEKHIL_clean_sbu_0, # of connection points: 4
#     Node 24, Type 0, BuildingBlock: CEKHIL_clean_sbu_0, # of connection points: 4
#     Node 25, Type 0, BuildingBlock: CEKHIL_clean_sbu_0, # of connection points: 4
#     Node 26, Type 0, BuildingBlock: CEKHIL_clean_sbu_0, # of connection points: 4
#     Node 27, Type 0, BuildingBlock: CEKHIL_clean_sbu_0, # of connection points: 4
#     Node 28, Type 0, BuildingBlock: CEKHIL_clean_sbu_0, # of connection points: 4
#     Node 29, Type 0, BuildingBlock: CEKHIL_clean_sbu_0, # of connection points: 4
#     Node 30, Type 0, BuildingBlock: CEKHIL_clean_sbu_0, # of connection points: 4
#     Node 31, Type 0, BuildingBlock: CEKHIL_clean_sbu_0, # of connection points: 4
#     Edge 32, Type (0, 0), BuildingBlock: UVAHIK_clean_linker_0, # of connection points: 2
#     Edge 33, Type (0, 0), BuildingBlock: UVAHIK_clean_linker_0, # of connection points: 2
#     Edge 34, Type (0, 0), BuildingBlock: UVAHIK_clean_linker_0, # of connection points: 2
#     Edge 35, Type (0, 0), BuildingBlock: UVAHIK_clean_linker_0, # of connection points: 2
#     Edge 36, Type (0, 0), BuildingBlock: UVAHIK_clean_linker_0, # of connection points: 2
#     Edge 37, Type (0, 0), BuildingBlock: UVAHIK_clean_linker_0, # of connection points: 2
#     Edge 38, Type (0, 0), BuildingBlock: UVAHIK_clean_linker_0, # of connection points: 2
#     Edge 39, Type (0, 0), BuildingBlock: UVAHIK_clean_linker_0, # of connection points: 2
#     Edge 40, Type (0, 0), BuildingBlock: UVAHIK_clean_linker_0, # of connection points: 2
#     Edge 41, Type (0, 0), BuildingBlock: UVAHIK_clean_linker_0, # of connection points: 2
#     Edge 42, Type (0, 0), BuildingBlock: UVAHIK_clean_linker_0, # of connection points: 2
#     Edge 43, Type (0, 0), BuildingBlock: UVAHIK_clean_linker_0, # of connection points: 2
#     Edge 44, Type (0, 0), BuildingBlock: UVAHIK_clean_linker_0, # of connection points: 2
#     Edge 45, Type (0, 0), BuildingBlock: UVAHIK_clean_linker_0, # of connection points: 2
#     Edge 46, Type (0, 0), BuildingBlock: UVAHIK_clean_linker_0, # of connection points: 2
#     Edge 47, Type (0, 0), BuildingBlock: UVAHIK_clean_linker_0, # of connection points: 2
#     Edge 48, Type (0, 0), BuildingBlock: UVAHIK_clean_linker_0, # of connection points: 2
#     Edge 49, Type (0, 0), BuildingBlock: UVAHIK_clean_linker_0, # of connection points: 2
#     Edge 50, Type (0, 0), BuildingBlock: UVAHIK_clean_linker_0, # of connection points: 2
#     Edge 51, Type (0, 0), BuildingBlock: UVAHIK_clean_linker_0, # of connection points: 2
#     Edge 52, Type (0, 0), BuildingBlock: UVAHIK_clean_linker_0, # of connection points: 2
#     Edge 53, Type (0, 0), BuildingBlock: UVAHIK_clean_linker_0, # of connection points: 2
#     Edge 54, Type (0, 0), BuildingBlock: UVAHIK_clean_linker_0, # of connection points: 2
#     Edge 55, Type (0, 0), BuildingBlock: UVAHIK_clean_linker_0, # of connection points: 2
#     Edge 56, Type (0, 0), BuildingBlock: UVAHIK_clean_linker_0, # of connection points: 2
#     Edge 57, Type (0, 0), BuildingBlock: UVAHIK_clean_linker_0, # of connection points: 2
#     Edge 58, Type (0, 0), BuildingBlock: UVAHIK_clean_linker_0, # of connection points: 2
#     Edge 59, Type (0, 0), BuildingBlock: UVAHIK_clean_linker_0, # of connection points: 2
#     Edge 60, Type (0, 0), BuildingBlock: UVAHIK_clean_linker_0, # of connection points: 2
#     Edge 61, Type (0, 0), BuildingBlock: UVAHIK_clean_linker_0, # of connection points: 2
#     Edge 62, Type (0, 0), BuildingBlock: UVAHIK_clean_linker_0, # of connection points: 2
#     Edge 63, Type (0, 0), BuildingBlock: UVAHIK_clean_linker_0, # of connection points: 2
#     Edge 64, Type (0, 0), BuildingBlock: UVAHIK_clean_linker_0, # of connection points: 2
#     Edge 65, Type (0, 0), BuildingBlock: UVAHIK_clean_linker_0, # of connection points: 2
#     Edge 66, Type (0, 0), BuildingBlock: UVAHIK_clean_linker_0, # of connection points: 2
#     Edge 67, Type (0, 0), BuildingBlock: UVAHIK_clean_linker_0, # of connection points: 2
#     Edge 68, Type (0, 0), BuildingBlock: UVAHIK_clean_linker_0, # of connection points: 2
#     Edge 69, Type (0, 0), BuildingBlock: UVAHIK_clean_linker_0, # of connection points: 2
#     Edge 70, Type (0, 0), BuildingBlock: UVAHIK_clean_linker_0, # of connection points: 2
#     Edge 71, Type (0, 0), BuildingBlock: UVAHIK_clean_linker_0, # of connection points: 2
#     Edge 72, Type (0, 0), BuildingBlock: UVAHIK_clean_linker_0, # of connection points: 2
#     Edge 73, Type (0, 0), BuildingBlock: UVAHIK_clean_linker_0, # of connection points: 2
#     Edge 74, Type (0, 0), BuildingBlock: UVAHIK_clean_linker_0, # of connection points: 2
#     Edge 75, Type (0, 0), BuildingBlock: UVAHIK_clean_linker_0, # of connection points: 2
#     Edge 76, Type (0, 0), BuildingBlock: UVAHIK_clean_linker_0, # of connection points: 2
#     Edge 77, Type (0, 0), BuildingBlock: UVAHIK_clean_linker_0, # of connection points: 2
#     Edge 78, Type (0, 0), BuildingBlock: UVAHIK_clean_linker_0, # of connection points: 2
#     Edge 79, Type (0, 0), BuildingBlock: UVAHIK_clean_linker_0, # of connection points: 2
#     Edge 80, Type (0, 0), BuildingBlock: UVAHIK_clean_linker_0, # of connection points: 2
#     Edge 81, Type (0, 0), BuildingBlock: UVAHIK_clean_linker_0, # of connection points: 2
#     Edge 82, Type (0, 0), BuildingBlock: UVAHIK_clean_linker_0, # of connection points: 2
#     Edge 83, Type (0, 0), BuildingBlock: UVAHIK_clean_linker_0, # of connection points: 2
#     Edge 84, Type (0, 0), BuildingBlock: UVAHIK_clean_linker_0, # of connection points: 2
#     Edge 85, Type (0, 0), BuildingBlock: UVAHIK_clean_linker_0, # of connection points: 2
#     Edge 86, Type (0, 0), BuildingBlock: UVAHIK_clean_linker_0, # of connection points: 2
#     Edge 87, Type (0, 0), BuildingBlock: UVAHIK_clean_linker_0, # of connection points: 2
#     Edge 88, Type (0, 0), BuildingBlock: UVAHIK_clean_linker_0, # of connection points: 2
#     Edge 89, Type (0, 0), BuildingBlock: UVAHIK_clean_linker_0, # of connection points: 2
#     Edge 90, Type (0, 0), BuildingBlock: UVAHIK_clean_linker_0, # of connection points: 2
#     Edge 91, Type (0, 0), BuildingBlock: UVAHIK_clean_linker_0, # of connection points: 2
#     Edge 92, Type (0, 0), BuildingBlock: UVAHIK_clean_linker_0, # of connection points: 2
#     Edge 93, Type (0, 0), BuildingBlock: UVAHIK_clean_linker_0, # of connection points: 2
#     Edge 94, Type (0, 0), BuildingBlock: UVAHIK_clean_linker_0, # of connection points: 2
#     Edge 95, Type (0, 0), BuildingBlock: UVAHIK_clean_linker_0, # of connection points: 2
# Relax obj value: 0.116
# Max RMSD: 0.170
# Mean RMSD: 0.170
data_MOF--net-uka--node1-CEKHIL_clean_sbu_0--edge1-UVAHIK_clean_linker_0
_symmetry_space_group_name_H-M    P1
_symmetry_Int_Tables_number       1
_symmetry_cell_setting            triclinic
loop_
_symmetry_equiv_pos_as_xyz
'x, y, z'
_cell_length_a     75.910444
_cell_length_b     75.959696
_cell_length_c     53.678179
_cell_angle_alpha  90.023613
_cell_angle_beta   90.011705
_cell_angle_gamma 89.992758
loop_
_atom_site_label
_atom_site_type_symbol
_atom_site_fract_x
_atom_site_fract_y
_atom_site_fract_z
_atom_type_partial_charge
Co0 Co 0.13031 0.26932 0.27219 0.0
O1 O 0.14696 0.26493 0.24604 0.0
O2 O 0.15168 0.28197 0.27896 0.0
C3 C 0.12251 0.241 0.27713 0.0
O4 O 0.11706 0.2764 0.30358 0.0
Co5 Co 0.09055 0.26075 0.26812 0.0
O6 O 0.09156 0.26153 0.30496 0.0
C7 C 0.10509 0.29268 0.24377 0.0
C8 C 0.15776 0.27466 0.25881 0.0
C9 C 0.10346 0.27074 0.31538 0.0
O10 O 0.12039 0.2898 0.25315 0.0
O11 O 0.09188 0.28238 0.24676 0.0
O12 O 0.1367 0.24703 0.28761 0.0
O13 O 0.11417 0.25186 0.26285 0.0
Co14 Co 0.98223 0.87959 0.50874 0.0
O15 O 0.98918 0.89694 0.48467 0.0
O16 O 0.96851 0.90054 0.51345 0.0
C17 C 0.00969 0.87195 0.52015 0.0
O18 O 0.97193 0.86559 0.53746 0.0
Co19 Co 0.99172 0.84006 0.50443 0.0
O20 O 0.98594 0.83966 0.54047 0.0
C21 C 0.9625 0.85481 0.47429 0.0
C22 C 0.97782 0.90722 0.49548 0.0
C23 C 0.97578 0.85142 0.54932 0.0
O24 O 0.96421 0.86981 0.48509 0.0
O25 O 0.97266 0.84167 0.47853 0.0
O26 O 0.00231 0.88593 0.52939 0.0
O27 O 0.00087 0.86386 0.50299 0.0
Co28 Co 0.36652 0.72533 0.76455 0.0
O29 O 0.34861 0.73188 0.74106 0.0
O30 O 0.34523 0.71265 0.77178 0.0
C31 C 0.37545 0.7529 0.77315 0.0
O32 O 0.38124 0.71589 0.79327 0.0
Co33 Co 0.40612 0.73314 0.75632 0.0
O34 O 0.40742 0.72963 0.79287 0.0
C35 C 0.38922 0.70345 0.7297 0.0
C36 C 0.33829 0.72143 0.75347 0.0
C37 C 0.39579 0.72035 0.80377 0.0
O38 O 0.37482 0.70602 0.74176 0.0
O39 O 0.40283 0.71331 0.73198 0.0
O40 O 0.36154 0.74642 0.78382 0.0
O41 O 0.38263 0.74315 0.75618 0.0
Co42 Co 0.51362 0.11711 0.00947 0.0
O43 O 0.50754 0.09898 0.98617 0.0
O44 O 0.52751 0.09647 0.01615 0.0
C45 C 0.48573 0.12438 0.01886 0.0
O46 O 0.52291 0.1324 0.03773 0.0
Co47 Co 0.50335 0.15616 0.00157 0.0
O48 O 0.50827 0.15809 0.03773 0.0
C49 C 0.53324 0.14079 0.97351 0.0
C50 C 0.51871 0.08916 -0.00188 0.0
C51 C 0.51843 0.14698 0.04815 0.0
O52 O 0.53192 0.12639 0.9859 0.0
O53 O 0.52263 0.15379 0.97612 0.0
O54 O 0.49322 0.111 0.02954 0.0
O55 O 0.49479 0.13213 0.00166 0.0
Co56 Co 0.12524 0.72687 0.24591 0.0
O57 O 0.14046 0.73503 0.27217 0.0
O58 O 0.14805 0.71626 0.24239 0.0
C59 C 0.11425 0.7534 0.23545 0.0
O60 O 0.11386 0.71609 0.21508 0.0
Co61 Co 0.08461 0.73101 0.2476 0.0
O62 O 0.08663 0.72734 0.21114 0.0
C63 C 0.10181 0.70204 0.27548 0.0
C64 C 0.1526 0.72548 0.26175 0.0
C65 C 0.09982 0.71907 0.20234 0.0
O66 O 0.117 0.70659 0.26707 0.0
O67 O 0.0876 0.71051 0.27076 0.0
O68 O 0.12959 0.74845 0.22733 0.0
O69 O 0.10693 0.74299 0.25143 0.0
Co70 Co 0.51101 0.88315 0.47546 0.0
O71 O 0.50076 0.9012 0.4957 0.0
O72 O 0.52746 0.9023 0.47893 0.0
C73 C 0.48772 0.87891 0.45035 0.0
O74 O 0.52553 0.86757 0.45267 0.0
Co75 Co 0.4951 0.84549 0.47469 0.0
O76 O 0.50957 0.84341 0.44391 0.0
C77 C 0.51605 0.85726 0.51783 0.0
C78 C 0.51514 0.91001 0.49177 0.0
C79 C 0.5226 0.8536 0.43979 0.0
O80 O 0.52079 0.87114 0.50589 0.0
O81 O 0.50466 0.84626 0.5096 0.0
O82 O 0.49849 0.89187 0.44632 0.0
O83 O 0.49021 0.87032 0.47083 0.0
Co84 Co 0.36519 0.26886 0.73042 0.0
O85 O 0.34777 0.25846 0.75179 0.0
O86 O 0.34276 0.27968 0.7243 0.0
C87 C 0.3772 0.24327 0.71783 0.0
O88 O 0.37908 0.28225 0.70414 0.0
Co89 Co 0.40541 0.26441 0.73822 0.0
O90 O 0.40661 0.27155 0.70276 0.0
C91 C 0.38546 0.29041 0.7684 0.0
C92 C 0.33653 0.26863 0.74055 0.0
C93 C 0.39412 0.28058 0.69342 0.0
O94 O 0.37114 0.28694 0.75656 0.0
O95 O 0.40007 0.28241 0.76449 0.0
O96 O 0.36286 0.2491 0.70755 0.0
O97 O 0.38302 0.25229 0.73652 0.0
Co98 Co 0.98173 0.11422 0.98635 0.0
O99 O 0.99104 0.09752 0.00958 0.0
O100 O 0.96932 0.09227 0.98289 0.0
C101 C 0.00803 0.12346 0.97238 0.0
O102 O 0.96924 0.12785 0.95896 0.0
Co103 Co 0.98943 0.15416 0.99184 0.0
O104 O 0.98061 0.15514 0.95705 0.0
C105 C 0.96488 0.13629 0.02629 0.0
C106 C 0.97999 0.0864 -5e-05 0.0
C107 C 0.97115 0.14281 0.94809 0.0
O108 O 0.96452 0.12271 0.01205 0.0
O109 O 0.97513 0.14945 0.0227 0.0
O110 O 0.00102 0.10917 0.96356 0.0
O111 O -0.00033 0.13086 0.99055 0.0
Co112 Co 0.86788 0.73745 0.74106 0.0
O113 O 0.84883 0.74447 0.7624 0.0
O114 O 0.8475 0.72318 0.7342 0.0
C115 C 0.87555 0.76487 0.7293 0.0
O116 O 0.88409 0.72708 0.7147 0.0
Co117 Co 0.90667 0.74898 0.75004 0.0
O118 O 0.9098 0.74175 0.71476 0.0
C119 C 0.89079 0.72037 0.78037 0.0
C120 C 0.83942 0.7329 0.75053 0.0
C121 C 0.89898 0.73105 0.70476 0.0
O122 O 0.87683 0.72021 0.76674 0.0
O123 O 0.90322 0.73164 0.77773 0.0
O124 O 0.86241 0.75692 0.71864 0.0
O125 O 0.8825 0.75669 0.74793 0.0
Co126 Co 0.01542 0.11804 0.4753 0.0
O127 O 0.00614 0.1022 0.50006 0.0
O128 O 0.025 0.09505 0.47011 0.0
C129 C 0.98952 0.13068 0.46557 0.0
O130 O 0.0273 0.12962 0.44566 0.0
Co131 Co 0.01342 0.1587 0.47806 0.0
O132 O 0.01813 0.15752 0.4418 0.0
C133 C 0.04078 0.13934 0.50664 0.0
C134 C 0.01529 0.09012 0.48876 0.0
C135 C 0.02584 0.14395 0.43316 0.0
O136 O 0.03563 0.12449 0.49776 0.0
O137 O 0.03333 0.15407 0.50173 0.0
O138 O 0.99382 0.11557 0.45597 0.0
O139 O 0.00032 0.13699 0.48188 0.0
Co140 Co 0.62829 0.2675 0.23754 0.0
O141 O 0.64624 0.2575 0.25853 0.0
O142 O 0.65037 0.27884 0.23094 0.0
C143 C 0.61658 0.24175 0.22505 0.0
O144 O 0.61385 0.28058 0.21155 0.0
Co145 Co 0.58829 0.26241 0.24646 0.0
O146 O 0.5864 0.26962 0.21106 0.0
C147 C 0.60812 0.28875 0.2761 0.0
C148 C 0.65707 0.26802 0.2471 0.0
C149 C 0.59866 0.27873 0.2013 0.0
O150 O 0.62229 0.28551 0.26378 0.0
O151 O 0.59362 0.28047 0.27268 0.0
O152 O 0.63076 0.24782 0.21461 0.0
O153 O 0.61082 0.25059 0.24397 0.0
Co154 Co 0.48055 0.87939 0.98126 0.0
O155 O 0.48869 0.89633 0.00514 0.0
O156 O 0.46788 0.90107 0.97688 0.0
C157 C 0.50736 0.87036 0.96877 0.0
O158 O 0.46933 0.86565 0.95297 0.0
Co159 Co 0.48851 0.83954 0.98729 0.0
O160 O 0.4809 0.83843 0.95189 0.0
C161 C 0.46134 0.85646 0.01855 0.0
C162 C 0.47778 0.90721 0.99465 0.0
C163 C 0.47168 0.85069 0.94228 0.0
O164 O 0.46231 0.87054 0.00536 0.0
O165 O 0.4717 0.84329 0.01578 0.0
O166 O 0.50056 0.88473 0.95989 0.0
O167 O 0.49859 0.86293 0.98653 0.0
Co168 Co 0.86379 0.26762 0.76847 0.0
O169 O 0.84671 0.25946 0.74478 0.0
O170 O 0.84201 0.2799 0.7736 0.0
C171 C 0.87339 0.24081 0.77986 0.0
O172 O 0.87743 0.27887 0.79684 0.0
Co173 Co 0.90379 0.26082 0.76276 0.0
O174 O 0.90443 0.26694 0.79865 0.0
C175 C 0.88664 0.28891 0.73317 0.0
C176 C 0.8358 0.27014 0.75576 0.0
C177 C 0.89212 0.27617 0.80807 0.0
O178 O 0.872 0.28621 0.74454 0.0
O179 O 0.90051 0.27965 0.73688 0.0
O180 O 0.85904 0.24727 0.78934 0.0
O181 O 0.88065 0.25004 0.76241 0.0
Co182 Co 0.48314 0.1207 0.5034 0.0
O183 O 0.49004 0.10308 0.47972 0.0
O184 O 0.47018 0.09942 0.50959 0.0
C185 C 0.51067 0.12908 0.51303 0.0
O186 O 0.47319 0.13518 0.53203 0.0
Co187 Co 0.49164 0.16026 0.49656 0.0
O188 O 0.48683 0.1614 0.53282 0.0
C189 C 0.46215 0.14409 0.46852 0.0
C190 C 0.47936 0.09264 0.49153 0.0
C191 C 0.47714 0.14974 0.54291 0.0
O192 O 0.46437 0.12948 0.48017 0.0
O193 O 0.47213 0.15753 0.47153 0.0
O194 O 0.50379 0.11523 0.52331 0.0
O195 O 0.50129 0.13666 0.49602 0.0
Co196 Co 0.63385 0.72734 0.27145 0.0
O197 O 0.65121 0.7322 0.24646 0.0
O198 O 0.65464 0.71368 0.27805 0.0
C199 C 0.62676 0.75559 0.27912 0.0
O200 O 0.61955 0.71959 0.30155 0.0
Co201 Co 0.59454 0.73739 0.26516 0.0
O202 O 0.59423 0.73487 0.30192 0.0
C203 C 0.60861 0.70562 0.24003 0.0
C204 C 0.6614 0.7216 0.25883 0.0
C205 C 0.60559 0.72512 0.31261 0.0
O206 O 0.62367 0.70789 0.25051 0.0
O207 O 0.59568 0.71632 0.2426 0.0
O208 O 0.64065 0.74861 0.28919 0.0
O209 O 0.61856 0.74585 0.2631 0.0
Co210 Co 0.01825 0.8787 0.01372 0.0
O211 O 0.01297 0.89786 0.99186 0.0
O212 O 0.0333 0.89833 0.02159 0.0
C213 C 0.99014 0.87245 0.02328 0.0
O214 O 0.02683 0.86184 0.04047 0.0
Co215 Co 0.00577 0.84071 0.00181 0.0
O216 O 0.01202 0.83631 0.03719 0.0
C217 C 0.03452 0.85705 0.97285 0.0
C218 C 0.02484 0.90662 0.00409 0.0
C219 C 0.0223 0.84667 0.04892 0.0
O220 O 0.03581 0.8694 0.98909 0.0
O221 O 0.02239 0.84533 0.97333 0.0
O222 O -0.00164 0.88509 0.03471 0.0
O223 O -0.00139 0.86506 0.0052 0.0
Co224 Co 0.62955 0.76027 0.75705 0.0
O225 O 0.64665 0.75178 0.73363 0.0
O226 O 0.64889 0.77663 0.75509 0.0
C227 C 0.62599 0.73472 0.77768 0.0
O228 O 0.61521 0.7728 0.78366 0.0
Co229 Co 0.59164 0.74477 0.75889 0.0
O230 O 0.591 0.75676 0.79181 0.0
C231 C 0.60181 0.76923 0.7186 0.0
C232 C 0.65596 0.76547 0.73967 0.0
C233 C 0.60163 0.76921 0.79707 0.0
O234 O 0.61636 0.77287 0.72975 0.0
O235 O 0.59109 0.7573 0.72598 0.0
O236 O 0.63926 0.7449 0.78271 0.0
O237 O 0.61651 0.73942 0.75884 0.0
Co238 Co 0.47827 0.38035 0.00865 0.0
O239 O 0.48629 0.39685 0.98397 0.0
O240 O 0.46551 0.40201 0.01209 0.0
C241 C 0.50517 0.37171 0.02123 0.0
O242 O 0.46706 0.36746 0.03776 0.0
Co243 Co 0.48604 0.34037 0.00583 0.0
O244 O 0.47931 0.34071 0.04151 0.0
C245 C 0.45739 0.35567 0.9752 0.0
C246 C 0.47536 0.4079 0.99413 0.0
C247 C 0.46977 0.35315 0.04992 0.0
O248 O 0.45994 0.37085 0.98517 0.0
O249 O 0.46697 0.34219 0.98 0.0
O250 O 0.49836 0.38626 0.02951 0.0
O251 O 0.49628 0.36369 0.00409 0.0
Co252 Co 0.86864 0.23661 0.25323 0.0
O253 O 0.85117 0.24244 0.22864 0.0
O254 O 0.84742 0.22373 0.25993 0.0
C255 C 0.87726 0.2644 0.26146 0.0
O256 O 0.88274 0.22782 0.2829 0.0
Co257 Co 0.90838 0.24506 0.24706 0.0
O258 O 0.90901 0.24139 0.28363 0.0
C259 C 0.89296 0.21384 0.22197 0.0
C260 C 0.84076 0.23198 0.24093 0.0
C261 C 0.89715 0.23206 0.29395 0.0
O262 O 0.87784 0.21686 0.2319 0.0
O263 O 0.90633 0.22393 0.22483 0.0
O264 O 0.86305 0.25806 0.27151 0.0
O265 O 0.88473 0.25444 0.24505 0.0
Co266 Co 0.01085 0.61399 0.51367 0.0
O267 O 0.00085 0.59425 0.49655 0.0
O268 O 0.02328 0.59288 0.523 0.0
C269 C 0.98524 0.62594 0.52639 0.0
O270 O 0.02403 0.63132 0.53568 0.0
Co271 Co 0.00329 0.65219 0.49578 0.0
O272 O 0.01236 0.65821 0.52944 0.0
C273 C 0.02737 0.62936 0.46727 0.0
C274 C 0.01221 0.5847 0.50856 0.0
C275 C 0.02193 0.64756 0.54181 0.0
O276 O 0.02759 0.61817 0.4852 0.0
O277 O 0.0173 0.64289 0.46688 0.0
O278 O 0.99219 0.61287 0.5385 0.0
O279 O 0.99293 0.63001 0.50569 0.0
Co280 Co 0.62847 0.22647 0.73076 0.0
O281 O 0.64374 0.23408 0.75721 0.0
O282 O 0.65064 0.2146 0.72796 0.0
C283 C 0.61932 0.25353 0.71996 0.0
O284 O 0.61717 0.21597 0.69987 0.0
Co285 Co 0.5882 0.23256 0.73059 0.0
O286 O 0.59034 0.22771 0.69442 0.0
C287 C 0.60354 0.20409 0.76145 0.0
C288 C 0.65549 0.22387 0.74711 0.0
C289 C 0.60346 0.21891 0.68647 0.0
O290 O 0.61887 0.20712 0.75229 0.0
O291 O 0.58989 0.21328 0.75612 0.0
O292 O 0.63432 0.24755 0.71198 0.0
O293 O 0.61097 0.24359 0.73554 0.0
Co294 Co 0.02556 0.37384 0.98336 0.0
O295 O 0.01706 0.38886 0.00952 0.0
O296 O 0.03781 0.39589 0.98217 0.0
C297 C -0.00122 0.36534 0.97036 0.0
O298 O 0.03719 0.36262 0.95316 0.0
Co299 Co 0.01863 0.33371 0.98181 0.0
O300 O 0.0251 0.33613 0.94622 0.0
C301 C 0.04555 0.34836 0.01607 0.0
C302 C 0.02779 0.40061 0.00065 0.0
C303 C 0.03454 0.34908 0.93931 0.0
O304 O 0.04374 0.3637 0.00634 0.0
O305 O 0.03612 0.33507 0.00983 0.0
O306 O 0.00535 0.38025 0.963 0.0
O307 O 0.00801 0.35666 0.98643 0.0
Co308 Co 0.86869 0.76749 0.22841 0.0
O309 O 0.85406 0.75706 0.25362 0.0
O310 O 0.84583 0.77817 0.22752 0.0
C311 C 0.87937 0.74206 0.21327 0.0
O312 O 0.87929 0.78088 0.19928 0.0
Co313 Co 0.9093 0.76362 0.22764 0.0
O314 O 0.9066 0.7707 0.19231 0.0
C315 C 0.89253 0.78905 0.26209 0.0
C316 C 0.84167 0.76727 0.24522 0.0
C317 C 0.89309 0.77942 0.18557 0.0
O318 O 0.87731 0.78567 0.25274 0.0
O319 O 0.90666 0.78109 0.25548 0.0
O320 O 0.86394 0.74767 0.20646 0.0
O321 O 0.88714 0.75113 0.23044 0.0
Co322 Co 0.47709 0.62196 0.48547 0.0
O323 O 0.48456 0.60423 0.50871 0.0
O324 O 0.46678 0.59973 0.47654 0.0
C325 C 0.50399 0.63356 0.47938 0.0
O326 O 0.46726 0.63631 0.4566 0.0
Co327 Co 0.48101 0.66196 0.49502 0.0
O328 O 0.47906 0.66337 0.45823 0.0
C329 C 0.45208 0.64203 0.51918 0.0
C330 C 0.47562 0.59323 0.49512 0.0
C331 C 0.47103 0.65121 0.44654 0.0
O332 O 0.45636 0.62799 0.50724 0.0
O333 O 0.46067 0.65651 0.51762 0.0
O334 O 0.4992 0.61942 0.46757 0.0
O335 O 0.49297 0.63943 0.49576 0.0
Co336 Co 0.36332 0.22578 0.22562 0.0
O337 O 0.34868 0.23469 0.25192 0.0
O338 O 0.34068 0.21466 0.22402 0.0
C339 C 0.37321 0.25219 0.2131 0.0
O340 O 0.37396 0.21395 0.19519 0.0
Co341 Co 0.40377 0.23065 0.22429 0.0
O342 O 0.401 0.22485 0.1885 0.0
C343 C 0.38789 0.20358 0.25713 0.0
C344 C 0.33643 0.22466 0.24272 0.0
C345 C 0.3876 0.21612 0.18137 0.0
O346 O 0.37253 0.20679 0.24815 0.0
O347 O 0.40173 0.21219 0.25094 0.0
O348 O 0.35796 0.24649 0.20568 0.0
O349 O 0.38138 0.24242 0.22907 0.0
Co350 Co 0.51489 0.6191 -0.00152 0.0
O351 O 0.50538 0.59995 0.01751 0.0
O352 O 0.52723 0.59777 0.99025 0.0
C353 C 0.48881 0.6302 0.98626 0.0
O354 O 0.52769 0.63539 0.97447 0.0
Co355 Co 0.50761 0.6582 0.01193 0.0
O356 O 0.51768 0.66304 0.97863 0.0
C357 C 0.53468 0.63809 0.03969 0.0
C358 C 0.51649 0.59003 0.00558 0.0
C359 C 0.5269 0.65153 0.96733 0.0
O360 O 0.53229 0.62456 0.02572 0.0
O361 O 0.52563 0.65227 0.03791 0.0
O362 O 0.49569 0.61684 0.97473 0.0
O363 O 0.49704 0.6354 0.00602 0.0
Co364 Co 0.13013 0.76881 0.73515 0.0
O365 O 0.1458 0.75931 0.75986 0.0
O366 O 0.15288 0.77951 0.73175 0.0
C367 C 0.11905 0.74282 0.72253 0.0
O368 O 0.11831 0.78114 0.70596 0.0
Co369 Co 0.08953 0.76448 0.73741 0.0
O370 O 0.09086 0.77061 0.70156 0.0
C371 C 0.1072 0.7917 0.76823 0.0
C372 C 0.15782 0.76917 0.74972 0.0
C373 C 0.10403 0.77923 0.69339 0.0
O374 O 0.12226 0.78786 0.75872 0.0
O375 O 0.09297 0.7834 0.76301 0.0
O376 O 0.13417 0.74825 0.71425 0.0
O377 O 0.11192 0.75243 0.73966 0.0
Co378 Co 0.97733 0.37298 0.49298 0.0
O379 O 0.98508 0.38927 0.51814 0.0
O380 O 0.96735 0.39574 0.48657 0.0
C381 C 0.00395 0.36112 0.48567 0.0
O382 O 0.96713 0.36043 0.46274 0.0
Co383 Co 0.98037 0.33251 0.49831 0.0
O384 O 0.97783 0.3329 0.46154 0.0
C385 C 0.95178 0.35175 0.52433 0.0
C386 C 0.9761 0.40104 0.50599 0.0
C387 C 0.9701 0.34587 0.45128 0.0
O388 O 0.95645 0.36625 0.51391 0.0
O389 O 0.96007 0.3372 0.52138 0.0
O390 O -0.00046 0.37596 0.47539 0.0
O391 O 0.99278 0.35469 0.50138 0.0
Co392 Co 0.36395 0.76082 0.24701 0.0
O393 O 0.34313 0.74946 0.23475 0.0
O394 O 0.34343 0.7735 0.25821 0.0
C395 C 0.37737 0.73634 0.26092 0.0
O396 O 0.38259 0.77567 0.26418 0.0
Co397 Co 0.40059 0.75266 0.22382 0.0
O398 O 0.40966 0.76813 0.25073 0.0
C399 C 0.37513 0.77454 0.19645 0.0
C400 C 0.33436 0.76134 0.24696 0.0
C401 C 0.39947 0.77702 0.26481 0.0
O402 O 0.36548 0.77576 0.21605 0.0
O403 O 0.38854 0.76436 0.19494 0.0
O404 O 0.36525 0.74394 0.27414 0.0
O405 O 0.37969 0.74263 0.23879 0.0
Co406 Co 0.98811 0.61072 0.00763 0.0
O407 O 0.99746 0.59112 0.98952 0.0
O408 O 0.97495 0.58989 0.01588 0.0
C409 C 0.01416 0.62138 0.02082 0.0
O410 O 0.97533 0.62774 0.03051 0.0
Co411 Co 0.99674 0.64932 0.99296 0.0
O412 O 0.98743 0.65461 0.02671 0.0
C413 C 0.97101 0.62882 0.96355 0.0
C414 C 0.98573 0.5817 0.00104 0.0
C415 C 0.9774 0.64372 0.03786 0.0
O416 O 0.97154 0.61619 0.97942 0.0
O417 O 0.98077 0.64253 0.96468 0.0
O418 O 0.00671 0.60834 0.03236 0.0
O419 O 0.00654 0.6264 0.00048 0.0
Co420 Co 0.1308 0.2231 0.75872 0.0
O421 O 0.14601 0.23015 0.73196 0.0
O422 O 0.15223 0.2097 0.76011 0.0
C423 C 0.12384 0.25057 0.7708 0.0
O424 O 0.11923 0.2128 0.78958 0.0
Co425 Co 0.09108 0.23236 0.76054 0.0
O426 O 0.09335 0.22625 0.79628 0.0
C427 C 0.10382 0.2037 0.72757 0.0
C428 C 0.15728 0.21902 0.7411 0.0
C429 C 0.10587 0.21631 0.80342 0.0
O430 O 0.11941 0.20496 0.73676 0.0
O431 O 0.09116 0.21403 0.73358 0.0
O432 O 0.13848 0.24338 0.7781 0.0
O433 O 0.11457 0.24151 0.7552 0.0
Co434 Co 0.52051 0.38499 0.51459 0.0
O435 O 0.51315 0.40125 0.48924 0.0
O436 O 0.53298 0.40682 0.51856 0.0
C437 C 0.49322 0.37634 0.52544 0.0
O438 O 0.53088 0.37223 0.5445 0.0
Co439 Co 0.51282 0.34496 0.51177 0.0
O440 O 0.51826 0.34562 0.54786 0.0
C441 C 0.54219 0.36019 0.48243 0.0
C442 C 0.52365 0.41247 0.4999 0.0
C443 C 0.52765 0.35803 0.55669 0.0
O444 O 0.53951 0.37543 0.49219 0.0
O445 O 0.53248 0.34676 0.48689 0.0
O446 O 0.49974 0.39089 0.53414 0.0
O447 O 0.50272 0.36827 0.50902 0.0
C448 C 0.03002 0.15809 0.39161 0.0
C449 C 0.03518 0.14542 0.40919 0.0
C450 C 0.04034 0.16118 0.37056 0.0
C451 C 0.08546 0.16404 0.35645 0.0
H452 H 0.06986 0.17379 0.2891 0.0
C453 C 0.12526 0.21123 0.29643 0.0
C454 C 0.115 0.22382 0.284 0.0
C455 C 0.11755 0.19578 0.30538 0.0
C456 C 0.07445 0.17119 0.30784 0.0
H457 H 0.05455 0.1253 0.41784 0.0
H458 H 0.07294 0.13125 0.3814 0.0
H459 H 0.051 0.15682 0.31707 0.0
H460 H 0.08896 0.22969 0.26967 0.0
H461 H 0.07529 0.20356 0.28653 0.0
H462 H 0.10793 0.17979 0.3486 0.0
C463 C 0.06078 0.13852 0.38379 0.0
C464 C 0.06371 0.16132 0.32369 0.0
C465 C 0.05027 0.13517 0.4046 0.0
C466 C 0.09717 0.22029 0.27941 0.0
C467 C 0.08937 0.20509 0.28884 0.0
C468 C 0.09599 0.17423 0.34086 0.0
C469 C 0.05611 0.15187 0.36699 0.0
C470 C 0.06888 0.15825 0.34838 0.0
C471 C 0.09933 0.19285 0.3026 0.0
C472 C 0.09027 0.17861 0.3167 0.0
H473 H 0.01837 0.16605 0.39459 0.0
H474 H 0.0366 0.17168 0.35797 0.0
H475 H 0.08964 0.16196 0.37553 0.0
H476 H 0.13915 0.2135 0.29978 0.0
H477 H 0.12577 0.18645 0.31526 0.0
C478 C 0.03683 0.87498 0.54597 0.0
C479 C 0.02585 0.86451 0.53106 0.0
C480 C 0.05117 0.86752 0.55839 0.0
C481 C 0.07652 0.82527 0.5658 0.0
H482 H 0.08063 0.84159 0.634 0.0
C483 C 0.09047 0.78233 0.65133 0.0
C484 C 0.10205 0.78871 0.66961 0.0
C485 C 0.08677 0.79238 0.63022 0.0
C486 C 0.07993 0.8371 0.61486 0.0
H487 H 0.02167 0.83826 0.51639 0.0
H488 H 0.04586 0.82501 0.5391 0.0
H489 H 0.0633 0.85843 0.6045 0.0
H490 H 0.11952 0.81015 0.67969 0.0
H491 H 0.11248 0.82806 0.64306 0.0
H492 H 0.09194 0.80302 0.57724 0.0
C493 C 0.04394 0.83908 0.54073 0.0
C494 C 0.07004 0.8468 0.59782 0.0
C495 C 0.02988 0.84664 0.52786 0.0
C496 C 0.11055 0.80493 0.66584 0.0
C497 C 0.10655 0.81516 0.64496 0.0
C498 C 0.08612 0.81538 0.58304 0.0
C499 C 0.05455 0.84933 0.55664 0.0
C500 C 0.0677 0.84072 0.57325 0.0
C501 C 0.09433 0.80911 0.62729 0.0
C502 C 0.08747 0.82099 0.60786 0.0
H503 H 0.03417 0.88889 0.5484 0.0
H504 H 0.0593 0.87595 0.56989 0.0
H505 H 0.07545 0.82041 0.5469 0.0
H506 H 0.08385 0.7698 0.65371 0.0
H507 H 0.07716 0.78752 0.61696 0.0
C508 C 0.46865 0.83417 0.90227 0.0
C509 C 0.46229 0.84704 0.91877 0.0
C510 C 0.45882 0.82935 0.88137 0.0
C511 C 0.41409 0.82311 0.86458 0.0
H512 H 0.43155 0.81554 0.79756 0.0
C513 C 0.37418 0.78097 0.79706 0.0
C514 C 0.38392 0.76896 0.78275 0.0
C515 C 0.38257 0.79502 0.80889 0.0
C516 C 0.42649 0.81744 0.81622 0.0
H517 H 0.44107 0.86553 0.92582 0.0
H518 H 0.42359 0.8566 0.88964 0.0
H519 H 0.44937 0.83204 0.82746 0.0
H520 H 0.40983 0.76279 0.76829 0.0
H521 H 0.42468 0.78645 0.79016 0.0
H522 H 0.39202 0.80739 0.85456 0.0
C523 C 0.43629 0.85048 0.89278 0.0
C524 C 0.43664 0.82703 0.8332 0.0
C525 C 0.44629 0.85556 0.91341 0.0
C526 C 0.40201 0.77177 0.77937 0.0
C527 C 0.4105 0.78553 0.79176 0.0
C528 C 0.40413 0.81322 0.84785 0.0
C529 C 0.44234 0.83711 0.87688 0.0
C530 C 0.43066 0.8296 0.85765 0.0
C531 C 0.40097 0.79707 0.80726 0.0
C532 C 0.41037 0.80986 0.8236 0.0
H533 H 0.48101 0.82751 0.90584 0.0
H534 H 0.46366 0.81889 0.86947 0.0
H535 H 0.40932 0.82474 0.88347 0.0
H536 H 0.36012 0.77927 0.79957 0.0
H537 H 0.37466 0.80394 0.81995 0.0
C538 C 0.39981 0.21276 0.13852 0.0
C539 C 0.38866 0.20662 0.15748 0.0
C540 C 0.40299 0.20246 0.1175 0.0
C541 C 0.40974 0.15743 0.10448 0.0
H542 H 0.41624 0.17311 0.03639 0.0
C543 C 0.45729 0.12039 0.04128 0.0
C544 C 0.46869 0.13121 0.02757 0.0
C545 C 0.44189 0.12728 0.05159 0.0
C546 C 0.41455 0.16852 0.05533 0.0
H547 H 0.3712 0.18544 0.16867 0.0
H548 H 0.37732 0.1671 0.13217 0.0
H549 H 0.39841 0.19068 0.06501 0.0
H550 H 0.47259 0.15743 0.01272 0.0
H551 H 0.44643 0.16977 0.0319 0.0
H552 H 0.42712 0.13631 0.09601 0.0
C553 C 0.38334 0.18 0.1335 0.0
C554 C 0.4042 0.17849 0.07158 0.0
C555 C 0.37987 0.19048 0.15433 0.0
C556 C 0.46405 0.14882 0.02333 0.0
C557 C 0.44888 0.15583 0.03412 0.0
C558 C 0.42036 0.14766 0.08846 0.0
C559 C 0.39532 0.18571 0.11529 0.0
C560 C 0.40226 0.17334 0.09651 0.0
C561 C 0.43781 0.14526 0.04894 0.0
C562 C 0.42351 0.15346 0.06395 0.0
H563 H 0.40661 0.22523 0.1404 0.0
H564 H 0.41242 0.20706 0.10383 0.0
H565 H 0.4086 0.15328 0.12373 0.0
H566 H 0.46044 0.10665 0.04442 0.0
H567 H 0.43348 0.1186 0.0623 0.0
C568 C 0.08605 0.76926 0.22704 0.0
C569 C 0.10426 0.76754 0.22299 0.0
C570 C 0.07605 0.78062 0.21231 0.0
C571 C 0.07677 0.81837 0.17048 0.0
H572 H 0.04164 0.79284 0.13246 0.0
C573 C 0.0469 0.84595 0.0798 0.0
C574 C 0.02996 0.84057 0.07263 0.0
C575 C 0.05474 0.839 0.10119 0.0
C576 C 0.05103 0.80038 0.14326 0.0
H577 H 0.12651 0.77738 0.20182 0.0
H578 H 0.10899 0.79761 0.17646 0.0
H579 H 0.05752 0.77798 0.1656 0.0
H580 H 0.00744 0.82464 0.0829 0.0
H581 H 0.02067 0.8132 0.12089 0.0
H582 H 0.07019 0.84088 0.14845 0.0
C583 C 0.1025 0.78996 0.1908 0.0
C584 C 0.06019 0.79178 0.16218 0.0
C585 C 0.11248 0.77835 0.20523 0.0
C586 C 0.02065 0.82878 0.08782 0.0
C587 C 0.02831 0.82215 0.10952 0.0
C588 C 0.06733 0.82713 0.15185 0.0
C589 C 0.08414 0.79075 0.19371 0.0
C590 C 0.07333 0.80061 0.17564 0.0
C591 C 0.04564 0.8268 0.11617 0.0
C592 C 0.05456 0.81814 0.13765 0.0
H593 H 0.07936 0.76124 0.24076 0.0
H594 H 0.0619 0.78111 0.21492 0.0
H595 H 0.08682 0.82543 0.18075 0.0
H596 H 0.05439 0.85499 0.06834 0.0
H597 H 0.06817 0.84273 0.10539 0.0
C598 C 0.42366 0.7975 0.27721 0.0
C599 C 0.40744 0.78951 0.28259 0.0
C600 C 0.43131 0.8092 0.29409 0.0
C601 C 0.42174 0.83525 0.35174 0.0
H602 H 0.47267 0.83488 0.35761 0.0
C603 C 0.46247 0.8604 0.43627 0.0
C604 C 0.47627 0.87201 0.4305 0.0
C605 C 0.45281 0.85239 0.41724 0.0
C606 C 0.45844 0.83522 0.35596 0.0
H607 H 0.38648 0.7874 0.3098 0.0
H608 H 0.4002 0.80706 0.3399 0.0
H609 H 0.45849 0.8164 0.3265 0.0
H610 H 0.49067 0.88459 0.40049 0.0
H611 H 0.47407 0.87011 0.36721 0.0
H612 H 0.42192 0.85341 0.3824 0.0
C613 C 0.40679 0.80488 0.32229 0.0
C614 C 0.45027 0.82472 0.33804 0.0
C615 C 0.39896 0.79348 0.30513 0.0
C616 C 0.48 0.8758 0.40544 0.0
C617 C 0.4706 0.86748 0.38643 0.0
C618 C 0.42994 0.84547 0.37004 0.0
C619 C 0.42311 0.81287 0.31705 0.0
C620 C 0.43179 0.82454 0.33569 0.0
C621 C 0.45708 0.85558 0.39221 0.0
C622 C 0.44833 0.8455 0.37226 0.0
H623 H 0.43037 0.79486 0.25979 0.0
H624 H 0.44364 0.8154 0.28904 0.0
H625 H 0.40753 0.83579 0.35022 0.0
H626 H 0.4594 0.85726 0.45547 0.0
H627 H 0.4425 0.84313 0.42206 0.0
C628 C 0.38055 0.21888 0.68698 0.0
C629 C 0.38767 0.22909 0.70634 0.0
C630 C 0.39106 0.20668 0.67439 0.0
C631 C 0.43565 0.20185 0.65446 0.0
H632 H 0.42308 0.15395 0.63697 0.0
C633 C 0.47789 0.16413 0.58457 0.0
C634 C 0.46881 0.154 0.56691 0.0
C635 C 0.46932 0.17007 0.60598 0.0
C636 C 0.42673 0.16735 0.64149 0.0
H637 H 0.41105 0.23396 0.72857 0.0
H638 H 0.42952 0.21302 0.70598 0.0
H639 H 0.4048 0.1704 0.66639 0.0
H640 H 0.44397 0.14149 0.55803 0.0
H641 H 0.42864 0.15267 0.59456 0.0
H642 H 0.45671 0.1996 0.62853 0.0
C643 C 0.41581 0.2144 0.70074 0.0
C644 C 0.41632 0.17668 0.65846 0.0
C645 C 0.40524 0.22637 0.7136 0.0
C646 C 0.45126 0.14925 0.57148 0.0
C647 C 0.44252 0.15559 0.59256 0.0
C648 C 0.44583 0.19271 0.63717 0.0
C649 C 0.40888 0.20471 0.68074 0.0
C650 C 0.42063 0.19406 0.66485 0.0
C651 C 0.45132 0.16649 0.60978 0.0
C652 C 0.44142 0.1754 0.63017 0.0
H653 H 0.36701 0.22064 0.68112 0.0
H654 H 0.38548 0.19944 0.65888 0.0
H655 H 0.43907 0.21536 0.65883 0.0
H656 H 0.49154 0.16773 0.5816 0.0
H657 H 0.47673 0.17792 0.61917 0.0
C658 C 0.09272 0.21377 0.84586 0.0
C659 C 0.10392 0.20701 0.82737 0.0
C660 C 0.08866 0.20373 0.86684 0.0
C661 C 0.08037 0.15882 0.88066 0.0
H662 H 0.07383 0.17521 0.94843 0.0
C663 C 0.03528 0.12083 0.94686 0.0
C664 C 0.02392 0.13123 0.96129 0.0
C665 C 0.04981 0.12838 0.93507 0.0
C666 C 0.07549 0.17044 0.92956 0.0
H667 H 0.12061 0.18498 0.81707 0.0
H668 H 0.11304 0.16721 0.85351 0.0
H669 H 0.09165 0.19249 0.91948 0.0
H670 H 0.01904 0.15748 0.97545 0.0
H671 H 0.04369 0.17091 0.95379 0.0
H672 H 0.06311 0.13768 0.88964 0.0
C673 C 0.10758 0.18033 0.8518 0.0
C674 C 0.08583 0.18026 0.91313 0.0
C675 C 0.11189 0.1905 0.831 0.0
C676 C 0.0276 0.14918 0.9644 0.0
C677 C 0.0419 0.15682 0.95216 0.0
C678 C 0.06978 0.14919 0.89689 0.0
C679 C 0.09553 0.18667 0.86949 0.0
C680 C 0.08792 0.17477 0.88835 0.0
C681 C 0.05303 0.14658 0.93697 0.0
C682 C 0.06672 0.15517 0.92132 0.0
H683 H 0.08653 0.22653 0.84365 0.0
H684 H 0.07921 0.20885 0.88013 0.0
H685 H 0.08159 0.15443 0.86153 0.0
H686 H 0.03286 0.10687 0.94452 0.0
H687 H 0.05831 0.11999 0.92404 0.0
C688 C 0.94912 0.85267 0.57624 0.0
C689 C 0.96682 0.84786 0.57305 0.0
C690 C 0.93993 0.84745 0.5975 0.0
C691 C 0.94249 0.81346 0.64697 0.0
H692 H 0.90048 0.83715 0.67088 0.0
C693 C 0.9011 0.78534 0.7263 0.0
C694 C 0.88457 0.77985 0.71742 0.0
C695 C 0.91119 0.79724 0.71265 0.0
C696 C 0.91228 0.83054 0.66445 0.0
H697 H 0.98926 0.83514 0.59018 0.0
H698 H 0.97364 0.82698 0.62809 0.0
H699 H 0.91938 0.85174 0.64029 0.0
H700 H 0.86494 0.78368 0.68857 0.0
H701 H 0.88256 0.80489 0.66492 0.0
H702 H 0.93544 0.79242 0.67147 0.0
C703 C 0.96648 0.83396 0.61371 0.0
C704 C 0.92304 0.83876 0.6468 0.0
C705 C 0.97552 0.83873 0.5921 0.0
C706 C 0.87769 0.7876 0.69574 0.0
C707 C 0.88769 0.79977 0.6823 0.0
C708 C 0.932 0.80549 0.66499 0.0
C709 C 0.94839 0.83769 0.61633 0.0
C710 C 0.93808 0.83014 0.63737 0.0
C711 C 0.90475 0.80415 0.69023 0.0
C712 C 0.91666 0.8138 0.67347 0.0
H713 H 0.94212 0.85966 0.56169 0.0
H714 H 0.926 0.85038 0.5985 0.0
H715 H 0.95363 0.80612 0.63988 0.0
H716 H 0.90667 0.77978 0.74312 0.0
H717 H 0.92432 0.80052 0.71907 0.0
C718 C 0.97333 0.15915 0.4628 0.0
C719 C 0.97513 0.1415 0.45533 0.0
C720 C 0.96125 0.17015 0.45098 0.0
C721 C 0.92229 0.17239 0.41104 0.0
H722 H 0.94634 0.21161 0.37979 0.0
C723 C 0.89548 0.20709 0.32389 0.0
C724 C 0.90103 0.22427 0.31843 0.0
C725 C 0.90146 0.19862 0.34536 0.0
C726 C 0.93915 0.2011 0.38884 0.0
H727 H 0.96488 0.1212 0.43091 0.0
H728 H 0.94353 0.14051 0.41037 0.0
H729 H 0.96197 0.19337 0.40944 0.0
H730 H 0.91574 0.24673 0.33201 0.0
H731 H 0.92536 0.23238 0.37026 0.0
H732 H 0.89941 0.18011 0.39052 0.0
C733 C 0.95156 0.14576 0.4253 0.0
C734 C 0.94822 0.19056 0.40575 0.0
C735 C 0.96384 0.13477 0.43692 0.0
C736 C 0.91154 0.23334 0.33566 0.0
C737 C 0.91714 0.22504 0.35746 0.0
C738 C 0.91306 0.18318 0.39444 0.0
C739 C 0.95056 0.16365 0.43176 0.0
C740 C 0.94001 0.17589 0.41651 0.0
C741 C 0.91279 0.20731 0.36209 0.0
C742 C 0.92153 0.1974 0.38259 0.0
H743 H 0.98172 0.16468 0.47712 0.0
H744 H 0.96062 0.1839 0.45632 0.0
H745 H 0.91569 0.16118 0.41931 0.0
H746 H 0.88741 0.1998 0.31083 0.0
H747 H 0.89795 0.18493 0.34799 0.0
C748 C 0.54406 0.14721 0.07726 0.0
C749 C 0.52657 0.1519 0.07206 0.0
C750 C 0.55256 0.15394 0.0983 0.0
C751 C 0.54887 0.19166 0.14196 0.0
H752 H 0.589 0.16911 0.17329 0.0
C753 C 0.58841 0.22512 0.21999 0.0
C754 C 0.60612 0.22765 0.21332 0.0
C755 C 0.5779 0.2133 0.20671 0.0
C756 C 0.57773 0.17546 0.16476 0.0
H757 H 0.50374 0.16606 0.08561 0.0
H758 H 0.51815 0.17698 0.12308 0.0
H759 H 0.57115 0.15263 0.14339 0.0
H760 H 0.62707 0.219 0.18874 0.0
H761 H 0.60874 0.19802 0.16588 0.0
H762 H 0.55544 0.2144 0.16358 0.0
C763 C 0.52568 0.16884 0.11041 0.0
C764 C 0.56757 0.16611 0.14751 0.0
C765 C 0.51735 0.16248 0.08905 0.0
C766 C 0.61342 0.21738 0.19416 0.0
C767 C 0.60299 0.20532 0.18119 0.0
C768 C 0.55879 0.20082 0.15955 0.0
C769 C 0.54359 0.16519 0.11488 0.0
C770 C 0.55322 0.17423 0.13543 0.0
C771 C 0.58505 0.20355 0.18694 0.0
C772 C 0.57349 0.19293 0.1707 0.0
H773 H 0.55148 0.13913 0.06436 0.0
H774 H 0.56639 0.15097 0.10081 0.0
H775 H 0.53824 0.19858 0.13276 0.0
H776 H 0.58244 0.23276 0.23478 0.0
H777 H 0.56409 0.21208 0.21148 0.0
C778 C 0.53322 0.87149 0.94021 0.0
C779 C 0.52261 0.8619 0.95674 0.0
C780 C 0.54651 0.8631 0.92669 0.0
C781 C 0.57051 0.82024 0.91975 0.0
H782 H 0.57217 0.83424 0.85032 0.0
C783 C 0.58696 0.77402 0.83816 0.0
C784 C 0.59768 0.78042 0.81885 0.0
C785 C 0.58209 0.78497 0.85787 0.0
C786 C 0.57212 0.83037 0.86975 0.0
H787 H 0.51806 0.83621 0.97305 0.0
H788 H 0.54056 0.82137 0.94868 0.0
H789 H 0.5556 0.8519 0.87984 0.0
H790 H 0.61227 0.80309 0.80549 0.0
H791 H 0.60331 0.8224 0.83974 0.0
H792 H 0.58611 0.79796 0.90893 0.0
C793 C 0.53907 0.83545 0.94651 0.0
C794 C 0.56266 0.84053 0.88677 0.0
C795 C 0.52601 0.84393 0.96037 0.0
C796 C 0.60396 0.79781 0.82009 0.0
C797 C 0.59883 0.80886 0.83962 0.0
C798 C 0.57975 0.80992 0.90259 0.0
C799 C 0.54923 0.84485 0.92906 0.0
C800 C 0.56137 0.83538 0.91189 0.0
C801 C 0.58765 0.80259 0.85847 0.0
C802 C 0.58029 0.81471 0.87735 0.0
H803 H 0.53104 0.88544 0.93733 0.0
H804 H 0.55435 0.87087 0.91393 0.0
H805 H 0.57016 0.81607 0.93903 0.0
H806 H 0.58208 0.76062 0.83784 0.0
H807 H 0.57333 0.77987 0.87207 0.0
C808 C 0.9 0.22229 0.78751 0.0
C809 C 0.88188 0.22514 0.7906 0.0
C810 C 0.90838 0.20859 0.80014 0.0
C811 C 0.90205 0.18096 0.85619 0.0
H812 H 0.94649 0.16102 0.83444 0.0
C813 C 0.94474 0.1383 0.92092 0.0
C814 C 0.96113 0.1464 0.9251 0.0
C815 C 0.93429 0.14342 0.90074 0.0
C816 C 0.93398 0.16634 0.84058 0.0
H817 H 0.85801 0.21514 0.80758 0.0
H818 H 0.87241 0.19066 0.82862 0.0
H819 H 0.92865 0.17796 0.80511 0.0
H820 H 0.98 0.1652 0.91059 0.0
H821 H 0.96188 0.17386 0.87507 0.0
H822 H 0.90751 0.16938 0.89168 0.0
C823 C 0.88038 0.19943 0.8174 0.0
C824 C 0.92382 0.17618 0.82391 0.0
C825 C 0.87208 0.21339 0.80523 0.0
C826 C 0.96735 0.15887 0.90792 0.0
C827 C 0.95708 0.1637 0.88749 0.0
C828 C 0.91203 0.17085 0.87265 0.0
C829 C 0.89874 0.19717 0.81569 0.0
C830 C 0.90804 0.18418 0.83179 0.0
C831 C 0.94026 0.15639 0.88414 0.0
C832 C 0.92834 0.16396 0.86524 0.0
H833 H 0.90787 0.23113 0.77629 0.0
H834 H 0.92256 0.20752 0.79856 0.0
H835 H 0.89016 0.18708 0.8632 0.0
H836 H 0.93963 0.12865 0.93389 0.0
H837 H 0.92134 0.13764 0.89848 0.0
C838 C 0.59045 0.21696 0.64384 0.0
C839 C 0.60212 0.21037 0.66187 0.0
C840 C 0.58745 0.20763 0.62186 0.0
C841 C 0.58302 0.16312 0.60362 0.0
H842 H 0.5761 0.18201 0.53726 0.0
C843 C 0.53922 0.12611 0.5354 0.0
C844 C 0.5272 0.13669 0.52238 0.0
C845 C 0.55394 0.13361 0.54678 0.0
C846 C 0.57789 0.17653 0.5557 0.0
H847 H 0.62063 0.18944 0.67042 0.0
H848 H 0.61486 0.17282 0.63225 0.0
H849 H 0.5924 0.19912 0.56818 0.0
H850 H 0.52157 0.16316 0.50972 0.0
H851 H 0.54647 0.17648 0.53086 0.0
H852 H 0.56725 0.14139 0.59243 0.0
C853 C 0.60826 0.18531 0.63508 0.0
C854 C 0.58737 0.18627 0.57326 0.0
C855 C 0.61151 0.19481 0.65688 0.0
C856 C 0.5306 0.15472 0.51979 0.0
C857 C 0.54505 0.16232 0.53172 0.0
C858 C 0.57326 0.15356 0.58631 0.0
C859 C 0.59586 0.19143 0.61773 0.0
C860 C 0.5895 0.17986 0.59758 0.0
C861 C 0.55665 0.15193 0.54599 0.0
C862 C 0.57 0.16042 0.56238 0.0
H863 H 0.58319 0.22902 0.6471 0.0
H864 H 0.57769 0.21252 0.60886 0.0
H865 H 0.58432 0.15799 0.62237 0.0
H866 H 0.53704 0.11207 0.53723 0.0
H867 H 0.56284 0.12508 0.55692 0.0
C868 C 0.62873 0.7825 0.30562 0.0
C869 C 0.61905 0.77194 0.28909 0.0
C870 C 0.62065 0.79654 0.31793 0.0
C871 C 0.57859 0.82229 0.32191 0.0
H872 H 0.58989 0.82288 0.39237 0.0
C873 C 0.52935 0.83834 0.39973 0.0
C874 C 0.53495 0.849 0.4196 0.0
C875 C 0.54113 0.83341 0.38106 0.0
C876 C 0.5868 0.82314 0.37266 0.0
H877 H 0.59372 0.76849 0.2711 0.0
H878 H 0.57939 0.79231 0.29334 0.0
H879 H 0.60831 0.80622 0.36389 0.0
H880 H 0.55713 0.86327 0.43517 0.0
H881 H 0.57791 0.85415 0.40276 0.0
H882 H 0.55624 0.83822 0.33134 0.0
C883 C 0.59331 0.79014 0.29653 0.0
C884 C 0.59741 0.81365 0.35624 0.0
C885 C 0.60148 0.77632 0.2839 0.0
C886 C 0.55247 0.855 0.42011 0.0
C887 C 0.56434 0.84981 0.40162 0.0
C888 C 0.56782 0.83156 0.33843 0.0
C889 C 0.60265 0.8001 0.31428 0.0
C890 C 0.59315 0.81267 0.33075 0.0
C891 C 0.55879 0.83885 0.38208 0.0
C892 C 0.57159 0.83166 0.36403 0.0
H893 H 0.6424 0.77958 0.30965 0.0
H894 H 0.62838 0.80421 0.33096 0.0
H895 H 0.57514 0.82218 0.30233 0.0
H896 H 0.51587 0.8337 0.3987 0.0
H897 H 0.53659 0.82479 0.36631 0.0
C898 C 0.90497 0.78363 0.14275 0.0
C899 C 0.8941 0.78951 0.1622 0.0
C900 C 0.908 0.7943 0.12207 0.0
C901 C 0.91517 0.83937 0.1104 0.0
H902 H 0.91989 0.82489 0.04146 0.0
C903 C 0.9622 0.87666 0.04683 0.0
C904 C 0.97304 0.86589 0.03216 0.0
C905 C 0.94683 0.86991 0.05743 0.0
C906 C 0.91871 0.82915 0.06064 0.0
H907 H 0.87704 0.81063 0.17472 0.0
H908 H 0.88295 0.82965 0.13883 0.0
H909 H 0.9024 0.80709 0.07018 0.0
H910 H 0.97595 0.83997 0.01586 0.0
H911 H 0.94991 0.82781 0.03553 0.0
H912 H 0.93276 0.86032 0.102 0.0
C913 C 0.88883 0.81666 0.13949 0.0
C914 C 0.90854 0.81905 0.07695 0.0
C915 C 0.88548 0.80581 0.15996 0.0
C916 C 0.96786 0.84853 0.02722 0.0
C917 C 0.95274 0.84163 0.03831 0.0
C918 C 0.92563 0.84925 0.09429 0.0
C919 C 0.90048 0.81116 0.12072 0.0
C920 C 0.90723 0.82376 0.10214 0.0
C921 C 0.94226 0.8521 0.05413 0.0
C922 C 0.92814 0.84387 0.06944 0.0
H923 H 0.91163 0.77104 0.14394 0.0
H924 H 0.91719 0.78986 0.10797 0.0
H925 H 0.91452 0.84316 0.12984 0.0
H926 H 0.96577 0.89022 0.05052 0.0
H927 H 0.93887 0.87853 0.06888 0.0
C928 C 0.54922 0.64541 0.93384 0.0
C929 C 0.53802 0.65732 0.94621 0.0
C930 C 0.56064 0.6513 0.91516 0.0
C931 C 0.58306 0.69144 0.89421 0.0
H932 H 0.58777 0.66755 0.83069 0.0
C933 C 0.60463 0.7114 0.79015 0.0
C934 C 0.61987 0.72122 0.79537 0.0
C935 C 0.59724 0.70056 0.80833 0.0
C936 C 0.58664 0.67429 0.8484 0.0
H937 H 0.52964 0.68465 0.94796 0.0
H938 H 0.54942 0.69478 0.91545 0.0
H939 H 0.56885 0.65497 0.86304 0.0
H940 H 0.64003 0.72648 0.82302 0.0
H941 H 0.62714 0.70743 0.85477 0.0
H942 H 0.60023 0.71109 0.87945 0.0
C943 C 0.54959 0.68097 0.92048 0.0
C944 C 0.57592 0.66705 0.86693 0.0
C945 C 0.53816 0.67511 0.93901 0.0
C946 C 0.6282 0.71916 0.81854 0.0
C947 C 0.62079 0.70833 0.83674 0.0
C948 C 0.5938 0.69862 0.87579 0.0
C949 C 0.56112 0.66919 0.90863 0.0
C950 C 0.57371 0.67579 0.88978 0.0
C951 C 0.60494 0.69933 0.83206 0.0
C952 C 0.59543 0.69033 0.85251 0.0
H953 H 0.54943 0.63161 0.93888 0.0
H954 H 0.56941 0.64194 0.90631 0.0
H955 H 0.58181 0.69832 0.9118 0.0
H956 H 0.59798 0.71267 0.77239 0.0
H957 H 0.58495 0.69392 0.80421 0.0
C958 C 0.60309 0.3046 0.17321 0.0
C959 C 0.59484 0.28841 0.17814 0.0
C960 C 0.59815 0.31455 0.15244 0.0
C961 C 0.57695 0.31311 0.09147 0.0
H962 H 0.55538 0.35753 0.10969 0.0
C963 C 0.52357 0.34549 0.03158 0.0
C964 C 0.52055 0.36365 0.03346 0.0
C965 C 0.53671 0.3375 0.04584 0.0
C966 C 0.56176 0.34545 0.10393 0.0
H967 H 0.57581 0.2694 0.16458 0.0
H968 H 0.56752 0.28661 0.12795 0.0
H969 H 0.57184 0.34104 0.14065 0.0
H970 H 0.52977 0.38798 0.05 0.0
H971 H 0.55332 0.37425 0.0739 0.0
H972 H 0.56694 0.3174 0.05476 0.0
C973 C 0.57764 0.29165 0.14028 0.0
C974 C 0.57113 0.33597 0.1218 0.0
C975 C 0.58226 0.28191 0.1613 0.0
C976 C 0.53166 0.37388 0.04852 0.0
C977 C 0.54508 0.36597 0.06235 0.0
C978 C 0.5679 0.32277 0.0734 0.0
C979 C 0.58525 0.30821 0.136 0.0
C980 C 0.57829 0.31948 0.11592 0.0
C981 C 0.54739 0.34758 0.06187 0.0
C982 C 0.55961 0.33877 0.07963 0.0
H983 H 0.61281 0.30992 0.18593 0.0
H984 H 0.60414 0.32732 0.14948 0.0
H985 H 0.58252 0.30044 0.08654 0.0
H986 H 0.51525 0.33727 0.02004 0.0
H987 H 0.53783 0.32331 0.04513 0.0
C988 C 0.87898 0.28897 0.29236 0.0
C989 C 0.88663 0.27946 0.27269 0.0
C990 C 0.88906 0.30093 0.30608 0.0
C991 C 0.93273 0.30351 0.32884 0.0
H992 H 0.92108 0.35045 0.3519 0.0
C993 C 0.97243 0.33387 0.40826 0.0
C994 C 0.9629 0.3434 0.42609 0.0
C995 C 0.96487 0.32988 0.38524 0.0
C996 C 0.92446 0.33728 0.34585 0.0
H997 H 0.9103 0.27617 0.25048 0.0
H998 H 0.92801 0.29662 0.27504 0.0
H999 H 0.90357 0.33686 0.31881 0.0
H1000 H 0.93833 0.35678 0.43383 0.0
H1001 H 0.92461 0.34885 0.39444 0.0
H1002 H 0.95252 0.30299 0.35682 0.0
C1003 C 0.91424 0.29483 0.27973 0.0
C1004 C 0.91452 0.32962 0.32675 0.0
C1005 C 0.9041 0.28311 0.26577 0.0
C1006 C 0.94595 0.34945 0.42026 0.0
C1007 C 0.93816 0.345 0.39753 0.0
C1008 C 0.94238 0.31094 0.34824 0.0
C1009 C 0.90695 0.30338 0.30047 0.0
C1010 C 0.91849 0.3126 0.31833 0.0
C1011 C 0.94736 0.33477 0.37991 0.0
C1012 C 0.93825 0.32784 0.35732 0.0
H1013 H 0.8655 0.28652 0.29799 0.0
H1014 H 0.88321 0.30733 0.32211 0.0
H1015 H 0.93583 0.29022 0.32293 0.0
H1016 H 0.98566 0.32932 0.41226 0.0
H1017 H 0.97265 0.32253 0.37191 0.0
C1018 C 0.91538 0.7305 0.66444 0.0
C1019 C 0.90425 0.72209 0.68156 0.0
C1020 C 0.92117 0.72165 0.64315 0.0
C1021 C 0.91465 0.68015 0.60614 0.0
H1022 H 0.96308 0.68905 0.5869 0.0
C1023 C 0.96223 0.63102 0.55867 0.0
C1024 C 0.97173 0.6372 0.53801 0.0
C1025 C 0.95112 0.64231 0.57186 0.0
C1026 C 0.94945 0.68663 0.59183 0.0
H1027 H 0.89017 0.69798 0.68976 0.0
H1028 H 0.90101 0.68216 0.65352 0.0
H1029 H 0.94944 0.70725 0.61872 0.0
H1030 H 0.97636 0.65975 0.5141 0.0
H1031 H 0.95747 0.67971 0.53795 0.0
H1032 H 0.91541 0.65856 0.58033 0.0
C1033 C 0.90482 0.69579 0.65581 0.0
C1034 C 0.94154 0.69711 0.61001 0.0
C1035 C 0.89869 0.7048 0.67677 0.0
C1036 C 0.9693 0.65465 0.53006 0.0
C1037 C 0.95851 0.66607 0.54363 0.0
C1038 C 0.92274 0.66941 0.58834 0.0
C1039 C 0.91633 0.70401 0.63883 0.0
C1040 C 0.9241 0.69388 0.61772 0.0
C1041 C 0.9496 0.66003 0.56487 0.0
C1042 C 0.94025 0.67247 0.5813 0.0
H1043 H 0.91964 0.74395 0.66753 0.0
H1044 H 0.92961 0.72863 0.63024 0.0
H1045 H 0.90109 0.67747 0.61108 0.0
H1046 H 0.96378 0.61759 0.56511 0.0
H1047 H 0.94443 0.63742 0.5883 0.0
C1048 C 0.52978 0.34288 0.5978 0.0
C1049 C 0.53669 0.35499 0.58063 0.0
C1050 C 0.53961 0.33781 0.61854 0.0
C1051 C 0.58449 0.32915 0.63303 0.0
H1052 H 0.56701 0.31943 0.69947 0.0
C1053 C 0.62205 0.28196 0.69705 0.0
C1054 C 0.61155 0.2698 0.70994 0.0
C1055 C 0.61447 0.2968 0.68607 0.0
C1056 C 0.57208 0.32198 0.68097 0.0
H1057 H 0.55879 0.37215 0.57247 0.0
H1058 H 0.57622 0.36284 0.6085 0.0
H1059 H 0.54999 0.3383 0.67155 0.0
H1060 H 0.58503 0.26385 0.72225 0.0
H1061 H 0.57163 0.28911 0.70209 0.0
H1062 H 0.60574 0.31181 0.6413 0.0
C1063 C 0.56313 0.35745 0.60594 0.0
C1064 C 0.5624 0.33291 0.66512 0.0
C1065 C 0.55315 0.36277 0.5854 0.0
C1066 C 0.59344 0.27301 0.71238 0.0
C1067 C 0.58579 0.28765 0.70102 0.0
C1068 C 0.594 0.31799 0.64866 0.0
C1069 C 0.55662 0.34456 0.62226 0.0
C1070 C 0.5683 0.33617 0.64079 0.0
C1071 C 0.59616 0.29959 0.68734 0.0
C1072 C 0.58763 0.3138 0.67256 0.0
H1073 H 0.51706 0.3368 0.59467 0.0
H1074 H 0.53437 0.32773 0.63074 0.0
H1075 H 0.5892 0.33128 0.61422 0.0
H1076 H 0.63611 0.27991 0.69521 0.0
H1077 H 0.62293 0.30589 0.67618 0.0
C1078 C 0.97848 0.34026 0.9623 0.0
C1079 C 0.98237 0.35822 0.95988 0.0
C1080 C 0.96349 0.33322 0.9511 0.0
C1081 C 0.93313 0.34248 0.89921 0.0
H1082 H 0.91177 0.29912 0.92249 0.0
C1083 C 0.88765 0.30181 0.83651 0.0
C1084 C 0.8956 0.28545 0.83165 0.0
C1085 C 0.89302 0.31186 0.85694 0.0
C1086 C 0.91742 0.31138 0.91599 0.0
H1087 H 0.9732 0.38317 0.94526 0.0
H1088 H 0.94659 0.37104 0.92642 0.0
H1089 H 0.93099 0.31583 0.9503 0.0
H1090 H 0.91421 0.26608 0.84532 0.0
H1091 H 0.92334 0.2835 0.88128 0.0
H1092 H 0.91974 0.33781 0.86479 0.0
C1093 C 0.9554 0.36223 0.93623 0.0
C1094 C 0.92856 0.32087 0.93175 0.0
C1095 C 0.97061 0.3692 0.94705 0.0
C1096 C 0.90801 0.27872 0.84854 0.0
C1097 C 0.9131 0.2886 0.86921 0.0
C1098 C 0.92174 0.33318 0.88367 0.0
C1099 C 0.95186 0.34407 0.93762 0.0
C1100 C 0.9372 0.33609 0.92313 0.0
C1101 C 0.90609 0.30549 0.87308 0.0
C1102 C 0.9144 0.31719 0.89157 0.0
H1103 H 0.98733 0.33149 0.97212 0.0
H1104 H 0.96148 0.31914 0.95219 0.0
H1105 H 0.93963 0.35401 0.89173 0.0
H1106 H 0.87804 0.3073 0.82377 0.0
H1107 H 0.88749 0.32487 0.8596 0.0
C1108 C 0.95068 0.64247 0.06498 0.0
C1109 C 0.96716 0.64995 0.05943 0.0
C1110 C 0.94046 0.64921 0.0844 0.0
C1111 C 0.94171 0.67356 0.14247 0.0
H1112 H 0.89703 0.69384 0.12249 0.0
C1113 C 0.90675 0.72602 0.20131 0.0
C1114 C 0.8884 0.72782 0.19975 0.0
C1115 C 0.91552 0.71367 0.18661 0.0
C1116 C 0.90922 0.68789 0.12869 0.0
H1117 H 0.98623 0.66974 0.07042 0.0
H1118 H 0.96848 0.68122 0.10483 0.0
H1119 H 0.91408 0.67681 0.09263 0.0
H1120 H 0.86464 0.71741 0.18291 0.0
H1121 H 0.87981 0.69522 0.15813 0.0
H1122 H 0.93691 0.68436 0.17858 0.0
C1123 C 0.96347 0.67029 0.09395 0.0
C1124 C 0.91901 0.67821 0.11148 0.0
C1125 C 0.97352 0.66383 0.07421 0.0
C1126 C 0.87885 0.71644 0.18421 0.0
C1127 C 0.88758 0.70381 0.16988 0.0
C1128 C 0.93176 0.68291 0.15988 0.0
C1129 C 0.94676 0.66322 0.09891 0.0
C1130 C 0.93551 0.67137 0.11808 0.0
C1131 C 0.90607 0.70255 0.17042 0.0
C1132 C 0.9156 0.69063 0.15302 0.0
H1133 H 0.94546 0.63179 0.05382 0.0
H1134 H 0.92757 0.64362 0.08795 0.0
H1135 H 0.95438 0.66823 0.14794 0.0
H1136 H 0.91446 0.73461 0.21316 0.0
H1137 H 0.92976 0.71337 0.18731 0.0
C1138 C 0.60572 0.70124 0.34439 0.0
C1139 C 0.60152 0.71858 0.33773 0.0
C1140 C 0.59927 0.69409 0.36654 0.0
C1141 C 0.56185 0.70106 0.40928 0.0
H1142 H 0.58166 0.66004 0.4419 0.0
C1143 C 0.52169 0.66126 0.47959 0.0
C1144 C 0.5195 0.64379 0.47156 0.0
C1145 C 0.53504 0.6717 0.46952 0.0
C1146 C 0.57609 0.67161 0.43311 0.0
H1147 H 0.58888 0.74266 0.34985 0.0
H1148 H 0.57843 0.73057 0.38919 0.0
H1149 H 0.59983 0.67715 0.41314 0.0
H1150 H 0.53029 0.62312 0.44825 0.0
H1151 H 0.55374 0.64134 0.43086 0.0
H1152 H 0.53809 0.69537 0.42903 0.0
C1153 C 0.58594 0.72214 0.37688 0.0
C1154 C 0.58641 0.68135 0.41652 0.0
C1155 C 0.59201 0.72913 0.35444 0.0
C1156 C 0.5316 0.63659 0.45461 0.0
C1157 C 0.5451 0.64695 0.44483 0.0
C1158 C 0.5517 0.69154 0.42616 0.0
C1159 C 0.5888 0.70429 0.38271 0.0
C1160 C 0.57921 0.69584 0.40371 0.0
C1161 C 0.54658 0.66474 0.45163 0.0
C1162 C 0.55853 0.67642 0.4376 0.0
H1163 H 0.61302 0.69284 0.33175 0.0
H1164 H 0.60162 0.68027 0.37012 0.0
H1165 H 0.55563 0.71187 0.39954 0.0
H1166 H 0.51264 0.66712 0.49279 0.0
H1167 H 0.53598 0.68538 0.47508 0.0
C1168 C 0.46631 0.33792 0.0908 0.0
C1169 C 0.46004 0.35015 0.07331 0.0
C1170 C 0.45594 0.33316 0.11116 0.0
C1171 C 0.41071 0.32554 0.12421 0.0
H1172 H 0.42669 0.31674 0.19166 0.0
C1173 C 0.37127 0.28004 0.18858 0.0
C1174 C 0.38139 0.26801 0.20231 0.0
C1175 C 0.37925 0.29452 0.17721 0.0
C1176 C 0.42203 0.31903 0.17287 0.0
H1177 H 0.43849 0.36776 0.06409 0.0
H1178 H 0.42011 0.35895 0.0994 0.0
H1179 H 0.44455 0.33484 0.16382 0.0
H1180 H 0.40765 0.26189 0.21559 0.0
H1181 H 0.42172 0.28649 0.19482 0.0
H1182 H 0.38903 0.30867 0.1322 0.0
C1183 C 0.43312 0.35326 0.09742 0.0
C1184 C 0.4322 0.32953 0.15707 0.0
C1185 C 0.44364 0.35828 0.07729 0.0
C1186 C 0.39952 0.27095 0.20509 0.0
C1187 C 0.40755 0.28522 0.19337 0.0
C1188 C 0.40072 0.3148 0.13982 0.0
C1189 C 0.43902 0.34033 0.11413 0.0
C1190 C 0.42685 0.33243 0.13241 0.0
C1191 C 0.39757 0.29707 0.17897 0.0
C1192 C 0.40655 0.31093 0.16409 0.0
H1193 H 0.47896 0.33158 0.08828 0.0
H1194 H 0.4607 0.32304 0.12369 0.0
H1195 H 0.40642 0.32743 0.10514 0.0
H1196 H 0.3572 0.27818 0.18644 0.0
H1197 H 0.37108 0.30354 0.16669 0.0
C1198 C 0.46386 0.63267 0.95633 0.0
C1199 C 0.47413 0.64021 0.9753 0.0
C1200 C 0.45126 0.64272 0.94386 0.0
C1201 C 0.44586 0.68654 0.92224 0.0
H1202 H 0.39852 0.67233 0.90407 0.0
C1203 C 0.40941 0.72379 0.84564 0.0
C1204 C 0.39988 0.71346 0.8287 0.0
C1205 C 0.41488 0.71674 0.86835 0.0
C1206 C 0.41176 0.67644 0.90879 0.0
H1207 H 0.47867 0.66385 0.99705 0.0
H1208 H 0.45702 0.68163 0.97452 0.0
H1209 H 0.41469 0.65572 0.93566 0.0
H1210 H 0.38796 0.68797 0.82233 0.0
H1211 H 0.3984 0.67521 0.86119 0.0
H1212 H 0.44384 0.70625 0.89427 0.0
C1213 C 0.45863 0.66789 0.96958 0.0
C1214 C 0.42091 0.66701 0.92704 0.0
C1215 C 0.47101 0.65773 0.9824 0.0
C1216 C 0.39528 0.69619 0.83518 0.0
C1217 C 0.40117 0.68895 0.85761 0.0
C1218 C 0.43692 0.69572 0.90368 0.0
C1219 C 0.44893 0.66054 0.94989 0.0
C1220 C 0.43814 0.67183 0.93356 0.0
C1221 C 0.41142 0.69901 0.87425 0.0
C1222 C 0.41987 0.6906 0.8963 0.0
H1223 H 0.46593 0.61914 0.95063 0.0
H1224 H 0.44404 0.63683 0.92857 0.0
H1225 H 0.45926 0.69033 0.92671 0.0
H1226 H 0.41283 0.73728 0.84116 0.0
H1227 H 0.42222 0.72509 0.88096 0.0
C1228 C 0.11736 0.71836 0.6915 0.0
C1229 C 0.10913 0.72882 0.70969 0.0
C1230 C 0.10744 0.70669 0.67708 0.0
C1231 C 0.06514 0.7045 0.64914 0.0
H1232 H 0.0743 0.6551 0.63634 0.0
C1233 C 0.02264 0.66676 0.57925 0.0
C1234 C 0.031 0.65429 0.56405 0.0
C1235 C 0.03135 0.6738 0.59983 0.0
C1236 C 0.07169 0.66894 0.63945 0.0
H1237 H 0.08433 0.73451 0.72812 0.0
H1238 H 0.06696 0.71456 0.70227 0.0
H1239 H 0.09167 0.67078 0.6677 0.0
H1240 H 0.05478 0.63907 0.55847 0.0
H1241 H 0.07051 0.65213 0.59355 0.0
H1242 H 0.04608 0.70331 0.62013 0.0
C1243 C 0.08106 0.71535 0.69936 0.0
C1244 C 0.08155 0.67782 0.65754 0.0
C1245 C 0.09101 0.72676 0.71408 0.0
C1246 C 0.04809 0.64868 0.57001 0.0
C1247 C 0.05702 0.65608 0.59024 0.0
C1248 C 0.05557 0.69578 0.63075 0.0
C1249 C 0.08915 0.70553 0.68042 0.0
C1250 C 0.0783 0.69565 0.66247 0.0
C1251 C 0.04883 0.66892 0.60525 0.0
C1252 C 0.0587 0.67788 0.6256 0.0
H1253 H 0.13134 0.71961 0.68785 0.0
H1254 H 0.1139 0.69928 0.66245 0.0
H1255 H 0.06264 0.71836 0.65238 0.0
H1256 H 0.00931 0.67102 0.57527 0.0
H1257 H 0.02437 0.6832 0.61134 0.0
C1258 C 0.03132 0.35836 0.46018 0.0
C1259 C 0.0193 0.35094 0.47704 0.0
C1260 C 0.04473 0.34809 0.44989 0.0
C1261 C 0.05132 0.30353 0.43034 0.0
H1262 H 0.09932 0.31814 0.4169 0.0
C1263 C 0.09103 0.26628 0.35782 0.0
C1264 C 0.10021 0.27694 0.34092 0.0
C1265 C 0.08536 0.27312 0.38057 0.0
C1266 C 0.08594 0.31388 0.4204 0.0
H1267 H 0.01248 0.32729 0.49755 0.0
H1268 H 0.03568 0.30926 0.47907 0.0
H1269 H 0.08121 0.33515 0.44589 0.0
H1270 H 0.11164 0.30271 0.33494 0.0
H1271 H 0.10092 0.31503 0.37386 0.0
H1272 H 0.05523 0.28321 0.40368 0.0
C1273 C 0.03473 0.32301 0.47391 0.0
C1274 C 0.07565 0.32357 0.43711 0.0
C1275 C 0.02146 0.33333 0.48442 0.0
C1276 C 0.10459 0.29422 0.34772 0.0
C1277 C 0.09852 0.30123 0.37019 0.0
C1278 C 0.06145 0.29405 0.41337 0.0
C1279 C 0.04621 0.3302 0.45613 0.0
C1280 C 0.05813 0.31867 0.44175 0.0
C1281 C 0.08826 0.29095 0.3865 0.0
C1282 C 0.07876 0.29934 0.40766 0.0
H1283 H 0.03003 0.37194 0.45429 0.0
H1284 H 0.05332 0.35389 0.43602 0.0
H1285 H 0.03776 0.29962 0.43333 0.0
H1286 H 0.08777 0.25279 0.3531 0.0
H1287 H 0.07803 0.26463 0.39299 0.0
C1288 C 0.47472 0.6656 0.40518 0.0
C1289 C 0.4647 0.65499 0.42118 0.0
C1290 C 0.46808 0.67054 0.38195 0.0
C1291 C 0.42983 0.6637 0.33836 0.0
H1292 H 0.43975 0.71229 0.32123 0.0
C1293 C 0.38228 0.7122 0.29126 0.0
C1294 C 0.38872 0.72266 0.27175 0.0
C1295 C 0.39342 0.70054 0.30369 0.0
C1296 C 0.43712 0.69859 0.32547 0.0
H1297 H 0.44022 0.6407 0.42535 0.0
H1298 H 0.42807 0.65017 0.38565 0.0
H1299 H 0.45613 0.69833 0.35459 0.0
H1300 H 0.41161 0.72879 0.24924 0.0
H1301 H 0.4314 0.70884 0.27187 0.0
H1302 H 0.40961 0.6648 0.31043 0.0
C1303 C 0.44133 0.65421 0.39034 0.0
C1304 C 0.44657 0.69049 0.34458 0.0
C1305 C 0.44821 0.64887 0.41326 0.0
C1306 C 0.40634 0.72082 0.2642 0.0
C1307 C 0.41762 0.70945 0.27709 0.0
C1308 C 0.4201 0.67198 0.3196 0.0
C1309 C 0.45103 0.66543 0.37455 0.0
C1310 C 0.44275 0.67306 0.35177 0.0
C1311 C 0.41127 0.69944 0.29716 0.0
C1312 C 0.42344 0.6896 0.31343 0.0
H1313 H 0.48764 0.67023 0.41075 0.0
H1314 H 0.4762 0.67872 0.37009 0.0
H1315 H 0.4268 0.65014 0.34282 0.0
H1316 H 0.36872 0.71335 0.29734 0.0
H1317 H 0.38829 0.6931 0.3193 0.0
C1318 C 0.03759 0.62458 0.0531 0.0
C1319 C 0.0286 0.63145 0.0324 0.0
C1320 C 0.04984 0.63486 0.06593 0.0
C1321 C 0.05594 0.67972 0.08333 0.0
H1322 H 0.1017 0.66504 0.10779 0.0
C1323 C 0.08979 0.72062 0.15833 0.0
C1324 C 0.09795 0.71114 0.17751 0.0
C1325 C 0.0855 0.71233 0.13593 0.0
C1326 C 0.08889 0.66931 0.1013 0.0
H1327 H 0.02604 0.6541 0.00806 0.0
H1328 H 0.04707 0.67228 0.03106 0.0
H1329 H 0.0863 0.64699 0.07699 0.0
H1330 H 0.10881 0.68593 0.18824 0.0
H1331 H 0.10037 0.67106 0.14988 0.0
H1332 H 0.05753 0.70113 0.10871 0.0
C1333 C 0.04471 0.65889 0.03715 0.0
C1334 C 0.08018 0.65903 0.08352 0.0
C1335 C 0.03268 0.64849 0.02404 0.0
C1336 C 0.10258 0.69349 0.17358 0.0
C1337 C 0.09781 0.68503 0.15146 0.0
C1338 C 0.06442 0.68977 0.10143 0.0
C1339 C 0.05311 0.65227 0.05848 0.0
C1340 C 0.06352 0.66404 0.07469 0.0
C1341 C 0.08869 0.6942 0.13261 0.0
C1342 C 0.08089 0.68458 0.11103 0.0
H1343 H 0.03477 0.61144 0.05984 0.0
H1344 H 0.05605 0.62953 0.08247 0.0
H1345 H 0.04296 0.68371 0.07709 0.0
H1346 H 0.08633 0.73434 0.1609 0.0
H1347 H 0.07909 0.72003 0.12159 0.0
C1348 C 0.09956 0.2719 0.77869 0.0
C1349 C 0.11729 0.26715 0.78157 0.0
C1350 C 0.09289 0.28676 0.79066 0.0
C1351 C 0.10218 0.31423 0.84558 0.0
H1352 H 0.0596 0.33766 0.8233 0.0
C1353 C 0.06076 0.35556 0.91268 0.0
C1354 C 0.04419 0.34755 0.91559 0.0
C1355 C 0.07117 0.35168 0.89192 0.0
C1356 C 0.07165 0.33144 0.82957 0.0
H1357 H 0.14231 0.27482 0.7977 0.0
H1358 H 0.13085 0.30121 0.81794 0.0
H1359 H 0.07648 0.31976 0.79399 0.0
H1360 H 0.02485 0.33054 0.89818 0.0
H1361 H 0.04289 0.32404 0.86174 0.0
H1362 H 0.09709 0.32565 0.88126 0.0
C1363 C 0.1219 0.29314 0.80714 0.0
C1364 C 0.08124 0.32106 0.81292 0.0
C1365 C 0.1285 0.27806 0.7955 0.0
C1366 C 0.03764 0.33675 0.8965 0.0
C1367 C 0.04789 0.33317 0.87555 0.0
C1368 C 0.09278 0.32487 0.86205 0.0
C1369 C 0.1039 0.29741 0.80544 0.0
C1370 C 0.09613 0.31161 0.82107 0.0
C1371 C 0.06498 0.34008 0.87353 0.0
C1372 C 0.07702 0.3329 0.85449 0.0
H1373 H 0.09061 0.26376 0.76799 0.0
H1374 H 0.07891 0.28935 0.78921 0.0
H1375 H 0.11344 0.30709 0.85271 0.0
H1376 H 0.06612 0.36396 0.92713 0.0
H1377 H 0.08433 0.35714 0.89072 0.0
C1378 C 0.47391 0.35036 0.53321 0.0
C1379 C 0.47726 0.36839 0.53621 0.0
C1380 C 0.45992 0.34241 0.54576 0.0
C1381 C 0.43241 0.34947 0.60166 0.0
H1382 H 0.41159 0.30547 0.57979 0.0
C1383 C 0.38947 0.30695 0.66636 0.0
C1384 C 0.39766 0.29061 0.67048 0.0
C1385 C 0.39454 0.31744 0.64621 0.0
C1386 C 0.41714 0.31788 0.58595 0.0
H1387 H 0.46788 0.39256 0.55303 0.0
H1388 H 0.44293 0.3789 0.57404 0.0
H1389 H 0.42869 0.3231 0.55042 0.0
H1390 H 0.41657 0.27184 0.65596 0.0
H1391 H 0.42511 0.29001 0.62043 0.0
H1392 H 0.42089 0.34409 0.63723 0.0
C1393 C 0.4515 0.37068 0.56286 0.0
C1394 C 0.42707 0.32791 0.56927 0.0
C1395 C 0.46573 0.37856 0.55072 0.0
C1396 C 0.41017 0.28446 0.6533 0.0
C1397 C 0.41494 0.29476 0.63289 0.0
C1398 C 0.42218 0.33963 0.61814 0.0
C1399 C 0.44873 0.3524 0.56118 0.0
C1400 C 0.43544 0.34348 0.5772 0.0
C1401 C 0.40753 0.31152 0.62958 0.0
C1402 C 0.41502 0.32345 0.61067 0.0
H1403 H 0.48255 0.34219 0.52207 0.0
H1404 H 0.45847 0.32827 0.54423 0.0
H1405 H 0.43878 0.36122 0.60868 0.0
H1406 H 0.3798 0.31201 0.67937 0.0
H1407 H 0.38871 0.33036 0.64399 0.0
C1408 C 0.30455 0.21855 0.23652 0.0
C1409 C 0.31793 0.22674 0.25034 0.0
C1410 C 0.28706 0.22365 0.23963 0.0
C1411 C 0.2621 0.26272 0.25843 0.0
H1412 H 0.22199 0.23181 0.24935 0.0
C1413 C 0.18868 0.28231 0.2701 0.0
C1414 C 0.17674 0.27457 0.25334 0.0
C1415 C 0.20657 0.27818 0.26885 0.0
C1416 C 0.23311 0.2406 0.25162 0.0
H1417 H 0.32344 0.24539 0.27996 0.0
H1418 H 0.29277 0.25397 0.28585 0.0
H1419 H 0.25139 0.21923 0.25296 0.0
H1420 H 0.17434 0.25811 0.22046 0.0
H1421 H 0.20559 0.25099 0.21826 0.0
H1422 H 0.24364 0.28407 0.25738 0.0
C1423 C 0.29586 0.24402 0.27207 0.0
C1424 C 0.24991 0.2334 0.2538 0.0
C1425 C 0.31339 0.23898 0.26886 0.0
C1426 C 0.18321 0.2641 0.23382 0.0
C1427 C 0.20105 0.25991 0.23265 0.0
C1428 C 0.24524 0.26991 0.25646 0.0
C1429 C 0.28263 0.23692 0.25677 0.0
C1430 C 0.26462 0.24439 0.25694 0.0
C1431 C 0.21271 0.26625 0.25086 0.0
C1432 C 0.23065 0.25891 0.2527 0.0
H1433 H 0.30766 0.20904 0.22213 0.0
H1434 H 0.2772 0.21796 0.22746 0.0
H1435 H 0.2732 0.27156 0.26039 0.0
H1436 H 0.18407 0.29052 0.28526 0.0
H1437 H 0.21534 0.28329 0.28303 0.0
C1438 C 0.98976 0.93352 0.47361 0.0
C1439 C 0.97765 0.92627 0.49049 0.0
C1440 C 0.99263 0.95164 0.4731 0.0
C1441 C 0.97608 0.99483 0.49356 0.0
H1442 H 0.02584 0.00606 0.49837 0.0
C1443 C -0.00016 0.06566 0.51087 0.0
C1444 C 0.01315 0.07132 0.49456 0.0
C1445 C 0.99576 0.04778 0.51276 0.0
C1446 C 0.01191 0.00315 0.4969 0.0
H1447 H 0.95786 0.93233 0.51838 0.0
H1448 H 0.96289 0.96403 0.51742 0.0
H1449 H 0.01667 0.97554 0.49358 0.0
H1450 H 0.03339 0.06273 0.46874 0.0
H1451 H 0.02622 0.03169 0.47188 0.0
H1452 H 0.97134 0.02251 0.49653 0.0
C1453 C 0.97021 0.9557 0.50471 0.0
C1454 C 0.00666 0.9857 0.49402 0.0
C1455 C 0.96735 0.93756 0.50526 0.0
C1456 C 0.02303 0.05876 0.48142 0.0
C1457 C 0.01896 0.04094 0.4833 0.0
C1458 C 0.98133 0.01234 0.4963 0.0
C1459 C 0.98341 0.96279 0.48939 0.0
C1460 C 0.98872 0.9814 0.49207 0.0
C1461 C 0.00496 0.03531 0.49844 0.0
C1462 C -0.00068 0.01668 0.49777 0.0
H1463 H 0.99777 0.92516 0.46183 0.0
H1464 H 0.00262 0.95686 0.46072 0.0
H1465 H 0.96216 0.99183 0.49209 0.0
H1466 H 0.99205 0.07507 0.52129 0.0
H1467 H 0.9851 0.04376 0.5249 0.0
C1468 C 0.31182 0.73309 0.73165 0.0
C1469 C 0.3191 0.7217 0.74948 0.0
C1470 C 0.29376 0.73636 0.73137 0.0
C1471 C 0.25655 0.73695 0.7747 0.0
H1472 H 0.22977 0.74746 0.71503 0.0
C1473 C 0.18188 0.75342 0.77224 0.0
C1474 C 0.17662 0.7665 0.75529 0.0
C1475 C 0.19945 0.74805 0.77331 0.0
C1476 C 0.23717 0.74473 0.73185 0.0
H1477 H 0.31309 0.70363 0.7796 0.0
H1478 H 0.28142 0.70912 0.77878 0.0
H1479 H 0.25935 0.73527 0.71127 0.0
H1480 H 0.18583 0.78531 0.7278 0.0
H1481 H 0.2165 0.77599 0.72981 0.0
H1482 H 0.23425 0.7464 0.79522 0.0
C1483 C 0.28975 0.71584 0.76544 0.0
C1484 C 0.25405 0.73769 0.7297 0.0
C1485 C 0.30785 0.71258 0.76575 0.0
C1486 C 0.18945 0.77509 0.7409 0.0
C1487 C 0.20698 0.76966 0.74188 0.0
C1488 C 0.23959 0.7439 0.77684 0.0
C1489 C 0.28262 0.72825 0.74885 0.0
C1490 C 0.26402 0.73394 0.75109 0.0
C1491 C 0.21199 0.75565 0.75738 0.0
C1492 C 0.22987 0.7481 0.75542 0.0
H1493 H 0.32016 0.74027 0.71883 0.0
H1494 H 0.28871 0.74606 0.71843 0.0
H1495 H 0.264 0.73448 0.79154 0.0
H1496 H 0.17227 0.74661 0.78363 0.0
H1497 H 0.203 0.73724 0.78548 0.0
C1498 C 0.50869 0.06257 0.97512 0.0
C1499 C 0.51898 0.06999 0.99416 0.0
C1500 C 0.50523 0.04456 0.97494 0.0
C1501 C 0.51743 0.00161 0.00162 0.0
H1502 H 0.4674 0.9921 0.99505 0.0
C1503 C 0.49002 0.93249 0.01862 0.0
C1504 C 0.47871 0.92621 -8e-05 0.0
C1505 C 0.494 0.95038 0.02011 0.0
C1506 C 0.4814 0.99452 0.99676 0.0
H1507 H 0.53509 0.06424 0.02654 0.0
H1508 H 0.52902 0.03271 0.02619 0.0
H1509 H 0.47822 0.0221 0.99042 0.0
H1510 H 0.46164 0.93379 0.96935 0.0
H1511 H 0.46872 0.96496 0.97176 0.0
H1512 H 0.52065 0.97399 0.00768 0.0
C1513 C 0.52359 0.04083 0.01149 0.0
C1514 C 0.48762 0.01167 0.99399 0.0
C1515 C 0.52707 0.05888 0.01168 0.0
C1516 C 0.47041 0.93826 0.98396 0.0
C1517 C 0.47446 0.95614 0.98537 0.0
C1518 C 0.51122 0.98442 0.00428 0.0
C1519 C 0.51201 0.03367 0.99376 0.0
C1520 C 0.50569 0.01536 0.99622 0.0
C1521 C 0.48679 0.96228 0.00288 0.0
C1522 C 0.49315 0.98069 0.00176 0.0
H1523 H 0.50246 0.07079 0.96119 0.0
H1524 H 0.49661 0.03927 0.96069 0.0
H1525 H 0.53142 0.00411 0.00336 0.0
H1526 H 0.49648 0.9235 0.03134 0.0
H1527 H 0.50322 0.95481 0.03419 0.0
C1528 C 0.1766 0.73988 0.28627 0.0
C1529 C 0.17118 0.72674 0.2695 0.0
C1530 C 0.19451 0.74323 0.28998 0.0
C1531 C 0.23935 0.72577 0.27787 0.0
H1532 H 0.25158 0.77484 0.26759 0.0
C1533 C 0.30612 0.74576 0.23881 0.0
C1534 C 0.31517 0.75964 0.25041 0.0
C1535 C 0.28861 0.74231 0.24478 0.0
C1536 C 0.24839 0.76114 0.27088 0.0
H1537 H 0.18017 0.70591 0.24496 0.0
H1538 H 0.21132 0.71172 0.25137 0.0
H1539 H 0.22084 0.76662 0.27417 0.0
H1540 H 0.31276 0.78133 0.2765 0.0
H1541 H 0.28191 0.77535 0.28678 0.0
H1542 H 0.2668 0.72022 0.27367 0.0
C1543 C 0.20181 0.71945 0.26171 0.0
C1544 C 0.23081 0.75643 0.27476 0.0
C1545 C 0.18395 0.71618 0.25791 0.0
C1546 C 0.3061 0.77056 0.26723 0.0
C1547 C 0.28848 0.76712 0.27316 0.0
C1548 C 0.25688 0.73047 0.27394 0.0
C1549 C 0.20728 0.73338 0.27714 0.0
C1550 C 0.22607 0.73863 0.27754 0.0
C1551 C 0.27974 0.75268 0.26244 0.0
C1552 C 0.26149 0.74813 0.26963 0.0
H1553 H 0.16703 0.7482 0.29554 0.0
H1554 H 0.19836 0.7539 0.30222 0.0
H1555 H 0.23612 0.712 0.28041 0.0
H1556 H 0.31272 0.73718 0.22566 0.0
H1557 H 0.28205 0.73136 0.23576 0.0
C1558 C 0.50326 0.93615 0.51395 0.0
C1559 C 0.51598 0.92884 0.49802 0.0
C1560 C 0.50095 0.95433 0.51507 0.0
C1561 C 0.50457 0.99149 0.47342 0.0
H1562 H 0.49262 0.01918 0.53169 0.0
C1563 C 0.49235 0.06637 0.4708 0.0
C1564 C 0.48009 0.07347 0.48761 0.0
C1565 C 0.49619 0.04842 0.47116 0.0
C1566 C 0.49566 0.01153 0.51521 0.0
H1567 H 0.53732 0.93474 0.47251 0.0
H1568 H 0.53323 0.96663 0.47446 0.0
H1569 H 0.50304 0.98901 0.53683 0.0
H1570 H 0.46103 0.0672 0.51637 0.0
H1571 H 0.46742 0.03574 0.51655 0.0
H1572 H 0.49687 0.01381 0.45173 0.0
C1573 C 0.52495 0.95825 0.48584 0.0
C1574 C 0.50179 0.99435 0.5182 0.0
C1575 C 0.52739 0.94004 0.48491 0.0
C1576 C 0.47065 0.06211 0.50333 0.0
C1577 C 0.47445 0.04413 0.50363 0.0
C1578 C 0.49835 0.00863 0.47041 0.0
C1579 C 0.51124 0.96547 0.50014 0.0
C1580 C 0.50626 0.98417 0.49733 0.0
C1581 C 0.48776 0.03724 0.48825 0.0
C1582 C 0.49376 0.01881 0.49127 0.0
H1583 H 0.49436 0.92778 0.52438 0.0
H1584 H 0.49027 0.95954 0.52625 0.0
H1585 H 0.50757 0.98379 0.45697 0.0
H1586 H 0.49981 0.0748 0.45841 0.0
H1587 H 0.50652 0.04354 0.45909 0.0
C1588 C 0.18857 0.21005 0.74696 0.0
C1589 C 0.17586 0.21935 0.73325 0.0
C1590 C 0.20641 0.21395 0.74412 0.0
C1591 C 0.23285 0.25239 0.72921 0.0
H1592 H 0.27223 0.22032 0.73653 0.0
C1593 C 0.30566 0.27448 0.72707 0.0
C1594 C 0.31744 0.26567 0.74294 0.0
C1595 C 0.28813 0.26909 0.72545 0.0
C1596 C 0.26132 0.22944 0.73477 0.0
H1597 H 0.17186 0.23847 0.70377 0.0
H1598 H 0.20306 0.24509 0.69859 0.0
H1599 H 0.2426 0.20855 0.73064 0.0
H1600 H 0.31985 0.24524 0.77095 0.0
H1601 H 0.28913 0.23607 0.7685 0.0
H1602 H 0.25147 0.27327 0.73374 0.0
C1603 C 0.19921 0.23515 0.71198 0.0
C1604 C 0.24441 0.22269 0.73122 0.0
C1605 C 0.18137 0.23126 0.71483 0.0
C1606 C 0.31109 0.2522 0.75843 0.0
C1607 C 0.29356 0.24682 0.75683 0.0
C1608 C 0.24974 0.25913 0.73278 0.0
C1609 C 0.2118 0.22717 0.72747 0.0
C1610 C 0.22999 0.2341 0.7286 0.0
C1611 C 0.28207 0.25482 0.73972 0.0
C1612 C 0.26412 0.24772 0.73585 0.0
H1613 H 0.18471 0.20071 0.76119 0.0
H1614 H 0.21582 0.20757 0.75632 0.0
H1615 H 0.22194 0.26152 0.72778 0.0
H1616 H 0.31017 0.28491 0.71489 0.0
H1617 H 0.27958 0.2755 0.71208 0.0
C1618 C 0.97481 0.0551 0.98841 0.0
C1619 C 0.98176 0.06749 0.00514 0.0
C1620 C 0.98026 0.03759 0.98951 0.0
C1621 C 0.00259 0.00417 0.02743 0.0
H1622 H 0.01921 0.9871 0.96345 0.0
C1623 C 0.03436 0.9362 0.01914 0.0
C1624 C 0.02647 0.92575 0.00067 0.0
C1625 C 0.03196 0.95443 0.01899 0.0
C1626 C 0.0146 0.99167 0.98142 0.0
H1627 H -0.00162 0.07108 0.03763 0.0
H1628 H 0.0077 0.04039 0.03973 0.0
H1629 H 0.00599 0.01628 0.96642 0.0
H1630 H 0.01152 0.92615 0.96624 0.0
H1631 H 0.00726 0.95778 0.96604 0.0
H1632 H 0.01076 0.9794 0.04235 0.0
C1633 C 0.99825 0.04425 0.02562 0.0
C1634 C 0.00694 0.00829 0.98309 0.0
C1635 C 0.99292 0.06179 0.02439 0.0
C1636 C 0.01762 0.93389 0.98084 0.0
C1637 C 0.01526 0.95206 0.98066 0.0
C1638 C 0.01015 0.98747 0.02574 0.0
C1639 C 0.99257 0.0322 0.00751 0.0
C1640 C 0.00064 0.01457 0.00603 0.0
C1641 C 0.02174 0.96242 0.00031 0.0
C1642 C 0.01601 0.98096 0.00264 0.0
H1643 H 0.96614 0.05913 0.97342 0.0
H1644 H 0.97545 0.02841 0.97564 0.0
H1645 H 0.99785 0.00876 0.04532 0.0
H1646 H 0.04134 0.93025 0.03459 0.0
H1647 H 0.0374 0.96217 0.03411 0.0
C1648 C 0.80983 0.72352 0.73507 0.0
C1649 C 0.82002 0.73325 0.75205 0.0
C1650 C 0.79183 0.72692 0.73249 0.0
C1651 C 0.76079 0.76338 0.7407 0.0
H1652 H 0.7249 0.72772 0.73135 0.0
C1653 C 0.68627 0.77703 0.7469 0.0
C1654 C 0.67479 0.76633 0.73308 0.0
C1655 C 0.70445 0.77437 0.7456 0.0
C1656 C 0.73481 0.73787 0.73342 0.0
H1657 H 0.81911 0.75312 0.78107 0.0
H1658 H 0.78768 0.75884 0.77681 0.0
H1659 H 0.75527 0.71884 0.73879 0.0
H1660 H 0.6733 0.74586 0.70498 0.0
H1661 H 0.70505 0.74158 0.70217 0.0
H1662 H 0.74034 0.78242 0.73543 0.0
C1663 C 0.79368 0.74891 0.76508 0.0
C1664 C 0.75219 0.73274 0.73786 0.0
C1665 C 0.81164 0.74549 0.76769 0.0
C1666 C 0.68185 0.75416 0.71609 0.0
C1667 C 0.70002 0.75159 0.71466 0.0
C1668 C 0.74342 0.76851 0.73616 0.0
C1669 C 0.78374 0.74012 0.74685 0.0
C1670 C 0.76531 0.74544 0.74186 0.0
C1671 C 0.71145 0.76106 0.7303 0.0
C1672 C 0.7302 0.75581 0.7327 0.0
H1673 H 0.81592 0.71401 0.72273 0.0
H1674 H 0.78449 0.71992 0.7183 0.0
H1675 H 0.77071 0.77347 0.74317 0.0
H1676 H 0.6812 0.78652 0.76016 0.0
H1677 H 0.71287 0.7819 0.75793 0.0
C1678 C 0.68761 0.27576 0.23416 0.0
C1679 C 0.67629 0.26601 0.24957 0.0
C1680 C 0.70551 0.27172 0.23304 0.0
C1681 C 0.73563 0.23452 0.24342 0.0
H1682 H 0.77177 0.27014 0.23567 0.0
C1683 C 0.81045 0.22174 0.25142 0.0
C1684 C 0.82168 0.23162 0.23602 0.0
C1685 C 0.79227 0.22437 0.25057 0.0
C1686 C 0.76178 0.26004 0.23741 0.0
H1687 H 0.67498 0.24515 0.27709 0.0
H1688 H 0.70637 0.23837 0.27558 0.0
H1689 H 0.74132 0.27908 0.24204 0.0
H1690 H 0.82264 0.25075 0.20604 0.0
H1691 H 0.79084 0.25522 0.20445 0.0
H1692 H 0.75625 0.21549 0.23918 0.0
C1693 C 0.70131 0.24883 0.26389 0.0
C1694 C 0.74435 0.26516 0.24118 0.0
C1695 C 0.68338 0.25284 0.26495 0.0
C1696 C 0.81432 0.24307 0.21831 0.0
C1697 C 0.79614 0.24572 0.21751 0.0
C1698 C 0.7531 0.2294 0.23977 0.0
C1699 C 0.71247 0.2579 0.2474 0.0
C1700 C 0.73108 0.25247 0.24423 0.0
C1701 C 0.78503 0.23692 0.23432 0.0
C1702 C 0.76633 0.24212 0.2367 0.0
H1703 H 0.68253 0.28597 0.22205 0.0
H1704 H 0.71372 0.27889 0.22004 0.0
H1705 H 0.72565 0.22442 0.24523 0.0
H1706 H 0.81575 0.21275 0.26517 0.0
H1707 H 0.78401 0.2174 0.26375 0.0
C1708 C 0.67975 0.23801 0.77116 0.0
C1709 C 0.67419 0.22514 0.75407 0.0
C1710 C 0.69755 0.2424 0.77297 0.0
C1711 C 0.73574 0.24355 0.7323 0.0
H1712 H 0.76168 0.25583 0.79202 0.0
C1713 C 0.81022 0.25678 0.73381 0.0
C1714 C 0.81676 0.26913 0.75092 0.0
C1715 C 0.79229 0.2529 0.73313 0.0
C1716 C 0.75448 0.25274 0.77516 0.0
H1717 H 0.68297 0.20545 0.72753 0.0
H1718 H 0.71406 0.21301 0.73095 0.0
H1719 H 0.73198 0.24379 0.79565 0.0
H1720 H 0.80957 0.28828 0.77915 0.0
H1721 H 0.77814 0.2817 0.77764 0.0
H1722 H 0.75812 0.25255 0.71178 0.0
C1723 C 0.70462 0.21998 0.74244 0.0
C1724 C 0.73756 0.24572 0.77728 0.0
C1725 C 0.68685 0.21558 0.74064 0.0
C1726 C 0.8049 0.27858 0.76591 0.0
C1727 C 0.78695 0.27471 0.76522 0.0
C1728 C 0.7526 0.25062 0.73018 0.0
C1729 C 0.71 0.23397 0.75774 0.0
C1730 C 0.72811 0.24092 0.75586 0.0
C1731 C 0.78059 0.26136 0.74949 0.0
C1732 C 0.76218 0.25518 0.75158 0.0
H1733 H 0.67027 0.24553 0.78185 0.0
H1734 H 0.70136 0.25321 0.78498 0.0
H1735 H 0.72855 0.24036 0.71545 0.0
H1736 H 0.81905 0.24933 0.72196 0.0
H1737 H 0.78779 0.24252 0.72085 0.0
C1738 C 0.80976 0.77368 0.23994 0.0
C1739 C 0.82319 0.76475 0.25269 0.0
C1740 C 0.79223 0.76876 0.2431 0.0
C1741 C 0.76632 0.72978 0.26008 0.0
H1742 H 0.72726 0.76239 0.25425 0.0
C1743 C 0.69192 0.71272 0.27077 0.0
C1744 C 0.6805 0.72125 0.25405 0.0
C1745 C 0.70998 0.71623 0.27018 0.0
C1746 C 0.73808 0.75314 0.25567 0.0
H1747 H 0.82878 0.74469 0.28034 0.0
H1748 H 0.79803 0.73638 0.28639 0.0
H1749 H 0.75712 0.77376 0.25804 0.0
H1750 H 0.67915 0.73858 0.22198 0.0
H1751 H 0.71064 0.74464 0.22099 0.0
H1752 H 0.74705 0.70917 0.25803 0.0
C1753 C 0.80111 0.74684 0.27339 0.0
C1754 C 0.75515 0.75963 0.25791 0.0
C1755 C 0.81869 0.75171 0.27011 0.0
C1756 C 0.6876 0.73198 0.23528 0.0
C1757 C 0.70559 0.73555 0.2348 0.0
C1758 C 0.74917 0.72327 0.2581 0.0
C1759 C 0.78777 0.7549 0.25926 0.0
C1760 C 0.7695 0.74804 0.25971 0.0
C1761 C 0.71677 0.72834 0.25294 0.0
C1762 C 0.73496 0.73492 0.25542 0.0
H1763 H 0.81283 0.78379 0.22639 0.0
H1764 H 0.78232 0.77516 0.23178 0.0
H1765 H 0.77711 0.72048 0.26106 0.0
H1766 H 0.68681 0.70432 0.28537 0.0
H1767 H 0.71839 0.71046 0.28429 0.0
C1768 C 0.48951 0.43346 0.97288 0.0
C1769 C 0.47634 0.42688 0.98875 0.0
C1770 C 0.49338 0.45143 0.97259 0.0
C1771 C 0.49218 0.48814 0.01588 0.0
H1772 H 0.50436 0.51691 0.95881 0.0
C1773 C 0.50259 0.56283 0.02236 0.0
C1774 C 0.51521 0.5707 0.00685 0.0
C1775 C 0.49905 0.54488 0.02046 0.0
C1776 C 0.50128 0.50893 0.97495 0.0
H1777 H 0.4557 0.43409 0.0148 0.0
H1778 H 0.46237 0.46545 0.0141 0.0
H1779 H 0.49387 0.48682 0.95241 0.0
H1780 H 0.53484 0.56582 0.9783 0.0
H1781 H 0.52885 0.5343 0.9753 0.0
H1782 H 0.4997 0.51005 0.03848 0.0
C1783 C 0.46995 0.45667 0.00233 0.0
C1784 C 0.49516 0.49179 0.97124 0.0
C1785 C 0.46605 0.43875 0.00258 0.0
C1786 C 0.52499 0.56011 0.99045 0.0
C1787 C 0.52144 0.54211 0.98855 0.0
C1788 C 0.49837 0.5052 0.01959 0.0
C1789 C 0.48414 0.46305 0.98819 0.0
C1790 C 0.49037 0.48132 0.99169 0.0
C1791 C 0.5081 0.53442 0.00306 0.0
C1792 C 0.50283 0.51585 -0.00083 0.0
H1793 H 0.4976 0.42462 0.96193 0.0
H1794 H 0.50435 0.45602 0.96146 0.0
H1795 H 0.48901 0.48019 0.03202 0.0
H1796 H 0.49484 0.57066 0.03519 0.0
H1797 H 0.4886 0.53939 0.0318 0.0
C1798 C 0.96834 0.43237 0.49779 0.0
C1799 C 0.9774 0.41988 0.51218 0.0
C1800 C 0.97167 0.45028 0.5009 0.0
C1801 C 0.00709 0.47968 0.52059 0.0
H1802 H 0.97113 0.51554 0.51317 0.0
C1803 C 0.02039 0.55505 0.52521 0.0
C1804 C 0.0111 0.56536 0.50789 0.0
C1805 C 0.017 0.53701 0.52715 0.0
C1806 C 0.98132 0.50565 0.51509 0.0
H1807 H 0.99625 0.41633 0.54216 0.0
H1808 H 0.00194 0.44772 0.54775 0.0
H1809 H 0.96251 0.48474 0.51648 0.0
H1810 H 0.99195 0.56475 0.47789 0.0
H1811 H 0.98627 0.53332 0.48104 0.0
H1812 H 0.02591 0.50067 0.51888 0.0
C1813 C 0.99248 0.44361 0.5338 0.0
C1814 C 0.97638 0.48805 0.51706 0.0
C1815 C 0.98912 0.42567 0.53072 0.0
C1816 C -0.00083 0.55718 0.4916 0.0
C1817 C 0.99581 0.53921 0.49353 0.0
C1818 C 0.01204 0.49734 0.51866 0.0
C1819 C 0.98412 0.45605 0.51848 0.0
C1820 C 0.98922 0.47485 0.51936 0.0
C1821 C 0.00428 0.52906 0.5118 0.0
C1822 C -0.0008 0.51044 0.51538 0.0
H1823 H 0.95922 0.4283 0.48338 0.0
H1824 H 0.96512 0.45953 0.48866 0.0
H1825 H 0.0173 0.46977 0.52204 0.0
H1826 H 0.02965 0.56103 0.53801 0.0
H1827 H 0.02374 0.52946 0.54137 0.0
C1828 C 0.01336 0.42448 0.02516 0.0
C1829 C 0.02634 0.4192 0.00803 0.0
C1830 C 0.00871 0.4422 0.02719 0.0
C1831 C 0.00606 0.47961 0.98618 0.0
H1832 H 0.99721 0.50774 0.04513 0.0
C1833 C 0.99756 0.55415 0.98263 0.0
C1834 C 0.98609 0.56238 -0.00053 0.0
C1835 C 0.0003 0.53606 0.98375 0.0
C1836 C -0.0007 0.4999 0.02853 0.0
H1837 H 0.04597 0.4284 0.9817 0.0
H1838 H 0.03784 0.45931 0.98532 0.0
H1839 H 0.00835 0.47764 0.04958 0.0
H1840 H 0.96766 0.55809 0.02976 0.0
H1841 H 0.97234 0.52627 0.03154 0.0
H1842 H 0.99696 0.50161 0.96505 0.0
C1843 C 0.03107 0.44972 0.99678 0.0
C1844 C 0.00581 0.48279 0.0311 0.0
C1845 C 0.03578 0.43206 0.99485 0.0
C1846 C 0.97662 0.55207 0.01656 0.0
C1847 C 0.9794 0.5339 0.01774 0.0
C1848 C -0.00056 0.49658 0.9836 0.0
C1849 C 0.01694 0.4548 0.01206 0.0
C1850 C 0.00961 0.47269 0.0099 0.0
C1851 C 0.99161 0.52581 0.00173 0.0
C1852 C 0.99635 0.50705 0.0047 0.0
H1853 H 0.00595 0.41484 0.0357 0.0
H1854 H 0.99783 0.44585 0.0392 0.0
H1855 H 0.00843 0.47186 0.96956 0.0
H1856 H 0.00502 0.56177 0.96922 0.0
H1857 H 0.00992 0.53025 0.97131 0.0
C1858 C 0.51131 0.43727 0.47501 0.0
C1859 C 0.52268 0.43137 0.49388 0.0
C1860 C 0.50717 0.45511 0.47299 0.0
C1861 C 0.51908 0.49982 0.49504 0.0
H1862 H 0.46879 0.50814 0.48946 0.0
C1863 C 0.48933 0.56745 0.51631 0.0
C1864 C 0.47773 0.57407 0.49821 0.0
C1865 C 0.49417 0.54974 0.51607 0.0
C1866 C 0.48287 0.50603 0.49084 0.0
H1867 H 0.5398 0.43961 0.52408 0.0
H1868 H 0.53248 0.47069 0.5207 0.0
H1869 H 0.48021 0.47828 0.48558 0.0
H1870 H 0.46114 0.56715 0.46678 0.0
H1871 H 0.46959 0.5362 0.46642 0.0
H1872 H 0.52169 0.52758 0.50059 0.0
C1873 C 0.52678 0.4616 0.50741 0.0
C1874 C 0.48944 0.48896 0.48846 0.0
C1875 C 0.53096 0.44377 0.50937 0.0
C1876 C 0.47012 0.56243 0.48096 0.0
C1877 C 0.47495 0.54469 0.48075 0.0
C1878 C 0.5125 0.51689 0.49748 0.0
C1879 C 0.51431 0.46735 0.48984 0.0
C1880 C 0.50761 0.48566 0.49063 0.0
C1881 C 0.48747 0.53832 0.49779 0.0
C1882 C 0.49432 0.52015 0.49555 0.0
H1883 H 0.50486 0.42803 0.46264 0.0
H1884 H 0.49784 0.45923 0.45888 0.0
H1885 H 0.53315 0.49772 0.49655 0.0
H1886 H 0.49533 0.57609 0.52994 0.0
H1887 H 0.50356 0.54508 0.52978 0.0
C1888 C 0.06431 0.36099 0.05013 0.0
C1889 C 0.05797 0.34623 0.03702 0.0
C1890 C 0.07305 0.35884 0.07286 0.0
C1891 C 0.09565 0.34764 0.11916 0.0
H1892 H 0.06651 0.31697 0.15962 0.0
C1893 C 0.11637 0.31178 0.20958 0.0
C1894 C 0.10287 0.30748 0.22641 0.0
C1895 C 0.11263 0.32196 0.18854 0.0
C1896 C 0.07465 0.32583 0.1488 0.0
H1897 H 0.05764 0.31766 0.03596 0.0
H1898 H 0.07286 0.31398 0.07549 0.0
H1899 H 0.05833 0.32264 0.11683 0.0
H1900 H 0.07574 0.31246 0.23671 0.0
H1901 H 0.06936 0.3307 0.20049 0.0
H1902 H 0.11219 0.35046 0.15144 0.0
C1903 C 0.07075 0.32718 0.06844 0.0
C1904 C 0.07011 0.32883 0.12413 0.0
C1905 C 0.06201 0.3293 0.04585 0.0
C1906 C 0.08626 0.31533 0.22369 0.0
C1907 C 0.08263 0.32573 0.20297 0.0
C1908 C 0.10035 0.34448 0.14402 0.0
C1909 C 0.07557 0.34192 0.08268 0.0
C1910 C 0.08068 0.33949 0.10896 0.0
C1911 C 0.09541 0.32808 0.18433 0.0
C1912 C 0.08989 0.33345 0.15901 0.0
H1913 H 0.06152 0.37422 0.04371 0.0
H1914 H 0.07669 0.37039 0.08354 0.0
H1915 H 0.10392 0.35601 0.10775 0.0
H1916 H 0.12932 0.30592 0.21136 0.0
H1917 H 0.12276 0.32358 0.17451 0.0
C1918 C 0.91019 0.81003 0.28765 0.0
C1919 C 0.89383 0.8024 0.28202 0.0
C1920 C 0.91196 0.82126 0.30802 0.0
C1921 C 0.91173 0.84865 0.34876 0.0
H1922 H 0.89665 0.8252 0.40926 0.0
C1923 C 0.94066 0.86739 0.44406 0.0
C1924 C 0.94838 0.85265 0.45559 0.0
C1925 C 0.92858 0.86517 0.42463 0.0
C1926 C 0.9007 0.83208 0.39254 0.0
H1927 H 0.86624 0.80127 0.29253 0.0
H1928 H 0.86948 0.82071 0.32864 0.0
H1929 H 0.88546 0.81517 0.36909 0.0
H1930 H 0.94861 0.82411 0.45696 0.0
H1931 H 0.92765 0.82027 0.42321 0.0
H1932 H 0.92798 0.8647 0.37207 0.0
C1933 C 0.88088 0.81801 0.31713 0.0
C1934 C 0.89419 0.82645 0.36956 0.0
C1935 C 0.87905 0.80691 0.29648 0.0
C1936 C 0.94305 0.83572 0.44828 0.0
C1937 C 0.93086 0.83353 0.42913 0.0
C1938 C 0.91818 0.85434 0.37174 0.0
C1939 C 0.89745 0.82498 0.32337 0.0
C1940 C 0.90036 0.83409 0.34739 0.0
C1941 C 0.92383 0.8482 0.4167 0.0
C1942 C 0.91342 0.84549 0.39371 0.0
H1943 H 0.92179 0.80697 0.27671 0.0
H1944 H 0.92495 0.82623 0.31254 0.0
H1945 H 0.91652 0.8549 0.33193 0.0
H1946 H 0.94446 0.88062 0.44935 0.0
H1947 H 0.92331 0.8767 0.41537 0.0
C1948 C 0.40637 0.68258 0.70324 0.0
C1949 C 0.38999 0.68888 0.71148 0.0
C1950 C 0.40731 0.67037 0.68391 0.0
C1951 C 0.38417 0.65998 0.62741 0.0
H1952 H 0.42268 0.62679 0.62063 0.0
C1953 C 0.4325 0.62557 0.54873 0.0
C1954 C 0.43714 0.64137 0.53677 0.0
C1955 C 0.42058 0.62572 0.56863 0.0
C1956 C 0.41152 0.6356 0.62219 0.0
H1957 H 0.36168 0.68654 0.7069 0.0
H1958 H 0.36339 0.66535 0.6726 0.0
H1959 H 0.41357 0.6364 0.66195 0.0
H1960 H 0.43171 0.66935 0.53454 0.0
H1961 H 0.41103 0.66963 0.56896 0.0
H1962 H 0.38287 0.66002 0.58756 0.0
C1963 C 0.37547 0.66987 0.68126 0.0
C1964 C 0.40641 0.64123 0.64588 0.0
C1965 C 0.37451 0.68197 0.70088 0.0
C1966 C 0.42856 0.657 0.54361 0.0
C1967 C 0.41652 0.65712 0.56318 0.0
C1968 C 0.38929 0.65436 0.60371 0.0
C1969 C 0.39191 0.66427 0.67221 0.0
C1970 C 0.39342 0.65427 0.6486 0.0
C1971 C 0.41292 0.64162 0.57655 0.0
C1972 C 0.40372 0.64295 0.60084 0.0
H1973 H 0.41852 0.6875 0.71119 0.0
H1974 H 0.4202 0.66652 0.67717 0.0
H1975 H 0.37408 0.67001 0.62889 0.0
H1976 H 0.43889 0.6133 0.54378 0.0
H1977 H 0.41797 0.61358 0.57854 0.0
C1978 C 0.58494 0.18322 0.7859 0.0
C1979 C 0.60168 0.18992 0.7801 0.0
C1980 C 0.58276 0.17165 0.8058 0.0
C1981 C 0.60122 0.16496 0.86647 0.0
H1982 H 0.56503 0.12904 0.87035 0.0
C1983 C 0.55437 0.12707 0.94337 0.0
C1984 C 0.54725 0.14223 0.95457 0.0
C1985 C 0.56611 0.12858 0.92341 0.0
C1986 C 0.57548 0.13873 0.86959 0.0
H1987 H 0.62947 0.1888 0.78951 0.0
H1988 H 0.62556 0.16877 0.82473 0.0
H1989 H 0.57631 0.13809 0.82971 0.0
H1990 H 0.5477 0.17078 0.95483 0.0
H1991 H 0.56825 0.1734 0.92026 0.0
H1992 H 0.59953 0.16646 0.90623 0.0
C1993 C 0.61416 0.17249 0.81377 0.0
C1994 C 0.58184 0.14398 0.84635 0.0
C1995 C 0.61638 0.18393 0.79362 0.0
C1996 C 0.55285 0.15887 0.94643 0.0
C1997 C 0.56476 0.16036 0.92681 0.0
C1998 C 0.59477 0.15982 0.88968 0.0
C1999 C 0.59726 0.16665 0.82046 0.0
C2000 C 0.59416 0.15772 0.84455 0.0
C2001 C 0.57116 0.14526 0.91471 0.0
C2002 C 0.58125 0.14726 0.89134 0.0
H2003 H 0.57338 0.18742 0.77565 0.0
H2004 H 0.56955 0.16752 0.81067 0.0
H2005 H 0.61066 0.17564 0.86566 0.0
H2006 H 0.55028 0.11406 0.94927 0.0
H2007 H 0.57086 0.11676 0.91434 0.0
C2008 C 0.0341 0.63144 0.42214 0.0
C2009 C 0.03955 0.62688 0.44623 0.0
C2010 C 0.04595 0.6309 0.40238 0.0
C2011 C 0.09017 0.64135 0.38989 0.0
H2012 H 0.07682 0.62746 0.32298 0.0
C2013 C 0.11495 0.67986 0.30492 0.0
C2014 C 0.10044 0.68618 0.2913 0.0
C2015 C 0.11288 0.66582 0.3216 0.0
C2016 C 0.08096 0.6312 0.34156 0.0
H2017 H 0.06142 0.61759 0.46861 0.0
H2018 H 0.08259 0.61747 0.43389 0.0
H2019 H 0.06233 0.61386 0.35873 0.0
H2020 H 0.07278 0.68195 0.28304 0.0
H2021 H 0.06917 0.65779 0.31192 0.0
H2022 H 0.10744 0.66001 0.37281 0.0
C2023 C 0.06899 0.62103 0.43036 0.0
C2024 C 0.07273 0.62337 0.36197 0.0
C2025 C 0.05694 0.62112 0.45012 0.0
C2026 C 0.08417 0.67756 0.29352 0.0
C2027 C 0.08217 0.66349 0.30984 0.0
C2028 C 0.09831 0.64931 0.36945 0.0
C2029 C 0.06361 0.62615 0.4064 0.0
C2030 C 0.07646 0.62922 0.3862 0.0
C2031 C 0.09635 0.65772 0.32454 0.0
C2032 C 0.09286 0.64517 0.34511 0.0
H2033 H 0.02073 0.63583 0.41868 0.0
H2034 H 0.04154 0.6352 0.38418 0.0
H2035 H 0.09325 0.64609 0.40842 0.0
H2036 H 0.12769 0.68619 0.30346 0.0
H2037 H 0.12404 0.66163 0.3327 0.0
C2038 C 0.58747 0.77173 0.67719 0.0
C2039 C 0.59645 0.77981 0.69692 0.0
C2040 C 0.58019 0.78183 0.65814 0.0
C2041 C 0.57804 0.82706 0.63104 0.0
H2042 H 0.53363 0.809 0.60629 0.0
C2043 C 0.5433 0.85519 0.54365 0.0
C2044 C 0.52502 0.85297 0.54136 0.0
C2045 C 0.55221 0.84851 0.5644 0.0
C2046 C 0.54581 0.81454 0.61325 0.0
H2047 H 0.60547 0.80468 0.71197 0.0
H2048 H 0.59202 0.82256 0.6792 0.0
H2049 H 0.54912 0.79309 0.63827 0.0
H2050 H 0.50146 0.84352 0.55966 0.0
H2051 H 0.51671 0.83295 0.59661 0.0
H2052 H 0.57415 0.84906 0.60673 0.0
C2053 C 0.59098 0.80837 0.678 0.0
C2054 C 0.55498 0.80511 0.6313 0.0
C2055 C 0.59866 0.79816 0.69681 0.0
C2056 C 0.51562 0.84513 0.56088 0.0
C2057 C 0.52442 0.83893 0.58192 0.0
C2058 C 0.56866 0.83673 0.61321 0.0
C2059 C 0.58124 0.80033 0.65876 0.0
C2060 C 0.57138 0.81102 0.64012 0.0
C2061 C 0.54293 0.83984 0.58352 0.0
C2062 C 0.55249 0.83048 0.60386 0.0
H2063 H 0.5858 0.75757 0.67673 0.0
H2064 H 0.57339 0.77509 0.6432 0.0
H2065 H 0.59065 0.83203 0.63733 0.0
H2066 H 0.55083 0.86114 0.52872 0.0
H2067 H 0.56644 0.84938 0.56474 0.0
C2068 C 0.40079 0.31359 0.79275 0.0
C2069 C 0.38531 0.30413 0.78782 0.0
C2070 C 0.40172 0.32494 0.81305 0.0
C2071 C 0.38544 0.32716 0.87551 0.0
H2072 H 0.41636 0.36778 0.87733 0.0
C2073 C 0.43754 0.33668 0.94957 0.0
C2074 C 0.44272 0.35358 0.95727 0.0
C2075 C 0.42444 0.33456 0.93164 0.0
C2076 C 0.40733 0.35675 0.87731 0.0
H2077 H 0.35828 0.29986 0.79931 0.0
H2078 H 0.36007 0.31951 0.83558 0.0
H2079 H 0.40352 0.35846 0.83787 0.0
H2080 H 0.43758 0.38153 0.95295 0.0
H2081 H 0.41478 0.37777 0.9212 0.0
H2082 H 0.39007 0.32484 0.91471 0.0
C2083 C 0.37141 0.31819 0.82348 0.0
C2084 C 0.40007 0.35134 0.85466 0.0
C2085 C 0.37039 0.30699 0.80278 0.0
C2086 C 0.43399 0.36832 0.94729 0.0
C2087 C 0.42093 0.36619 0.92914 0.0
C2088 C 0.39271 0.33256 0.89816 0.0
C2089 C 0.38725 0.32694 0.82912 0.0
C2090 C 0.38993 0.33589 0.85334 0.0
C2091 C 0.41623 0.34928 0.92086 0.0
C2092 C 0.40455 0.34678 0.89899 0.0
H2093 H 0.41243 0.31178 0.78134 0.0
H2094 H 0.4142 0.33127 0.81705 0.0
H2095 H 0.37766 0.31521 0.8751 0.0
H2096 H 0.44384 0.32502 0.95702 0.0
H2097 H 0.42136 0.32135 0.92538 0.0
C2098 C 0.91231 0.19127 0.20251 0.0
C2099 C 0.89529 0.19787 0.20661 0.0
C2100 C 0.91499 0.17706 0.18664 0.0
C2101 C 0.89696 0.1588 0.13042 0.0
H2102 H 0.9375 0.12824 0.13843 0.0
C2103 C 0.9368 0.1282 0.04814 0.0
C2104 C 0.95333 0.13659 0.04832 0.0
C2105 C 0.9258 0.12913 0.06905 0.0
C2106 C 0.92585 0.13631 0.13605 0.0
H2107 H 0.86757 0.19416 0.19827 0.0
H2108 H 0.87237 0.16932 0.16982 0.0
H2109 H 0.92386 0.14152 0.17508 0.0
H2110 H 0.97163 0.15183 0.0706 0.0
H2111 H 0.95267 0.15305 0.10715 0.0
H2112 H 0.8998 0.15446 0.09115 0.0
C2113 C 0.88358 0.17521 0.1791 0.0
C2114 C 0.9181 0.14398 0.15695 0.0
C2115 C 0.88086 0.18941 0.19533 0.0
C2116 C 0.95891 0.14538 0.06989 0.0
C2117 C 0.94816 0.14591 0.09087 0.0
C2118 C 0.90461 0.15095 0.1095 0.0
C2119 C 0.90074 0.1691 0.1743 0.0
C2120 C 0.90442 0.15629 0.15414 0.0
C2121 C 0.93149 0.13796 0.09055 0.0
C2122 C 0.9198 0.1406 0.11212 0.0
H2123 H 0.92369 0.19733 0.21117 0.0
H2124 H 0.92841 0.17292 0.18304 0.0
H2125 H 0.88642 0.16821 0.12765 0.0
H2126 H 0.93222 0.12135 0.03167 0.0
H2127 H 0.91288 0.12308 0.06842 0.0
C2128 C 0.9625 0.62159 0.92011 0.0
C2129 C 0.95791 0.62813 0.94361 0.0
C2130 C 0.95134 0.62433 0.89976 0.0
C2131 C 0.90794 0.64391 0.88062 0.0
H2132 H 0.93667 0.66568 0.82953 0.0
C2133 C 0.88445 0.69021 0.79794 0.0
C2134 C 0.8936 0.70633 0.79905 0.0
C2135 C 0.88934 0.67618 0.81349 0.0
C2136 C 0.92844 0.65937 0.84339 0.0
H2137 H 0.93792 0.64152 0.96511 0.0
H2138 H 0.91855 0.64675 0.92963 0.0
H2139 H 0.95049 0.64698 0.86043 0.0
H2140 H 0.91407 0.72074 0.81868 0.0
H2141 H 0.9225 0.69644 0.84538 0.0
H2142 H 0.88607 0.65767 0.86419 0.0
C2143 C 0.93045 0.63917 0.92671 0.0
C2144 C 0.93632 0.64849 0.86102 0.0
C2145 C 0.94157 0.63633 0.94702 0.0
C2146 C 0.90694 0.70845 0.81696 0.0
C2147 C 0.91183 0.69453 0.83224 0.0
C2148 C 0.90002 0.65484 0.86282 0.0
C2149 C 0.93557 0.63391 0.90262 0.0
C2150 C 0.92632 0.64129 0.88057 0.0
C2151 C 0.90347 0.67815 0.83015 0.0
C2152 C 0.91042 0.66328 0.84484 0.0
H2153 H 0.97512 0.61523 0.91723 0.0
H2154 H 0.95555 0.61988 0.88154 0.0
H2155 H 0.89984 0.63834 0.89524 0.0
H2156 H 0.8741 0.68818 0.78435 0.0
H2157 H 0.88266 0.66364 0.81177 0.0
C2158 C 0.08329 0.18787 0.69901 0.0
C2159 C 0.10053 0.19056 0.70776 0.0
C2160 C 0.08032 0.17803 0.67756 0.0
C2161 C 0.08352 0.17537 0.62173 0.0
H2162 H 0.09494 0.12743 0.60269 0.0
C2163 C 0.06682 0.15408 0.52506 0.0
C2164 C 0.05529 0.13966 0.52476 0.0
C2165 C 0.07768 0.15701 0.54554 0.0
C2166 C 0.09185 0.14088 0.60778 0.0
H2167 H 0.12801 0.18358 0.70218 0.0
H2168 H 0.12265 0.16634 0.66433 0.0
H2169 H 0.10232 0.13804 0.64487 0.0
H2170 H 0.04732 0.11596 0.54411 0.0
H2171 H 0.06586 0.12147 0.58061 0.0
H2172 H 0.07271 0.17841 0.58546 0.0
C2173 C 0.11156 0.17195 0.67424 0.0
C2174 C 0.09607 0.1469 0.63177 0.0
C2175 C 0.11458 0.18188 0.69579 0.0
C2176 C 0.05609 0.12721 0.54405 0.0
C2177 C 0.06676 0.13033 0.56485 0.0
C2178 C 0.07953 0.1695 0.59792 0.0
C2179 C 0.09448 0.17062 0.66447 0.0
C2180 C 0.09152 0.16409 0.63898 0.0
C2181 C 0.07685 0.14581 0.56634 0.0
C2182 C 0.08341 0.15214 0.59072 0.0
H2183 H 0.07213 0.19407 0.70801 0.0
H2184 H 0.06701 0.17698 0.67041 0.0
H2185 H 0.08007 0.18874 0.62685 0.0
H2186 H 0.06665 0.16368 0.51013 0.0
H2187 H 0.08567 0.16882 0.54596 0.0
C2188 C 0.5647 0.37257 0.45288 0.0
C2189 C 0.55698 0.35798 0.46475 0.0
C2190 C 0.57733 0.37011 0.43419 0.0
C2191 C 0.60565 0.33613 0.40389 0.0
H2192 H 0.59013 0.35797 0.34244 0.0
C2193 C 0.62383 0.30681 0.30845 0.0
C2194 C 0.60835 0.30267 0.29529 0.0
C2195 C 0.62327 0.31865 0.32846 0.0
C2196 C 0.59488 0.352 0.35949 0.0
H2197 H 0.55742 0.32949 0.46768 0.0
H2198 H 0.57916 0.32523 0.4352 0.0
H2199 H 0.57925 0.36907 0.38213 0.0
H2200 H 0.58053 0.30858 0.29147 0.0
H2201 H 0.57959 0.32914 0.32601 0.0
H2202 H 0.62005 0.31807 0.38106 0.0
C2203 C 0.57561 0.33857 0.44026 0.0
C2204 C 0.58876 0.35844 0.38226 0.0
C2205 C 0.56293 0.341 0.45869 0.0
C2206 C 0.59262 0.31135 0.30146 0.0
C2207 C 0.59214 0.32332 0.32107 0.0
C2208 C 0.61177 0.32969 0.3811 0.0
C2209 C 0.5826 0.35304 0.42731 0.0
C2210 C 0.59325 0.34988 0.40458 0.0
C2211 C 0.60733 0.32678 0.3352 0.0
C2212 C 0.60559 0.33692 0.35866 0.0
H2213 H 0.56047 0.38583 0.45725 0.0
H2214 H 0.58255 0.3815 0.42457 0.0
H2215 H 0.60958 0.32949 0.42086 0.0
H2216 H 0.63614 0.30032 0.30402 0.0
H2217 H 0.63516 0.32108 0.33908 0.0
C2218 C 0.43045 0.86226 0.0328 0.0
C2219 C 0.44722 0.85503 0.03728 0.0
C2220 C 0.41663 0.85925 0.04955 0.0
C2221 C 0.40643 0.84718 0.11367 0.0
H2222 H 0.37084 0.81538 0.08788 0.0
C2223 C 0.37705 0.78205 0.15143 0.0
C2224 C 0.37226 0.78693 0.17571 0.0
C2225 C 0.37867 0.79476 0.13284 0.0
C2226 C 0.38038 0.82461 0.09528 0.0
H2227 H 0.46298 0.83985 0.06318 0.0
H2228 H 0.43905 0.83511 0.09277 0.0
H2229 H 0.38998 0.83138 0.05895 0.0
H2230 H 0.36388 0.8086 0.19917 0.0
H2231 H 0.36724 0.831 0.16669 0.0
H2232 H 0.39779 0.83955 0.14996 0.0
C2233 C 0.43653 0.84291 0.07624 0.0
C2234 C 0.39127 0.83379 0.07876 0.0
C2235 C 0.45017 0.8455 0.05926 0.0
C2236 C 0.36757 0.8045 0.18056 0.0
C2237 C 0.36953 0.81731 0.16203 0.0
C2238 C 0.39539 0.83824 0.13015 0.0
C2239 C 0.41959 0.84946 0.07132 0.0
C2240 C 0.40498 0.84436 0.08793 0.0
C2241 C 0.37583 0.81263 0.13832 0.0
C2242 C 0.38295 0.8261 0.12113 0.0
H2243 H 0.42785 0.86958 0.01588 0.0
H2244 H 0.40362 0.86429 0.04536 0.0
H2245 H 0.41692 0.85531 0.12108 0.0
H2246 H 0.38063 0.76857 0.1472 0.0
H2247 H 0.38369 0.79076 0.11482 0.0
C2248 C 0.93149 0.36758 0.55363 0.0
C2249 C 0.93668 0.35193 0.54167 0.0
C2250 C 0.91918 0.3671 0.57301 0.0
C2251 C 0.9093 0.35689 0.62604 0.0
H2252 H 0.87257 0.3216 0.63111 0.0
C2253 C 0.90385 0.30961 0.70654 0.0
C2254 C 0.88746 0.3031 0.71438 0.0
C2255 C 0.90486 0.32176 0.68717 0.0
C2256 C 0.88244 0.33187 0.63006 0.0
H2257 H 0.93183 0.32386 0.53891 0.0
H2258 H 0.91055 0.323 0.57257 0.0
H2259 H 0.88187 0.33193 0.59019 0.0
H2260 H 0.85918 0.30494 0.70896 0.0
H2261 H 0.86103 0.32602 0.67457 0.0
H2262 H 0.91065 0.356 0.66584 0.0
C2263 C 0.91589 0.33565 0.56712 0.0
C2264 C 0.88786 0.33768 0.60661 0.0
C2265 C 0.92829 0.33609 0.54801 0.0
C2266 C 0.87202 0.30966 0.70324 0.0
C2267 C 0.87305 0.32171 0.68359 0.0
C2268 C 0.9039 0.35106 0.64947 0.0
C2269 C 0.9117 0.35101 0.58047 0.0
C2270 C 0.90207 0.34942 0.60436 0.0
C2271 C 0.88952 0.3276 0.67505 0.0
C2272 C 0.89119 0.33772 0.6516 0.0
H2273 H 0.93767 0.38001 0.54903 0.0
H2274 H 0.91612 0.37914 0.58291 0.0
H2275 H 0.92028 0.36596 0.62495 0.0
H2276 H 0.91598 0.30496 0.71491 0.0
H2277 H 0.91777 0.32583 0.68079 0.0
C2278 C 0.40623 0.18265 0.28178 0.0
C2279 C 0.38964 0.18992 0.27652 0.0
C2280 C 0.40849 0.1716 0.30224 0.0
C2281 C 0.40959 0.14517 0.34422 0.0
H2282 H 0.39456 0.16984 0.40381 0.0
C2283 C 0.44019 0.13006 0.4398 0.0
C2284 C 0.4477 0.14533 0.45018 0.0
C2285 C 0.42782 0.13137 0.42058 0.0
C2286 C 0.3986 0.16261 0.38737 0.0
H2287 H 0.36214 0.19041 0.28758 0.0
H2288 H 0.36624 0.17128 0.3238 0.0
H2289 H 0.38251 0.17834 0.36347 0.0
H2290 H 0.44726 0.17389 0.44975 0.0
H2291 H 0.42576 0.17614 0.41637 0.0
H2292 H 0.42668 0.13033 0.36794 0.0
C2293 C 0.37743 0.17414 0.31196 0.0
C2294 C 0.39159 0.16736 0.3643 0.0
C2295 C 0.37511 0.18505 0.29124 0.0
C2296 C 0.44187 0.16188 0.44197 0.0
C2297 C 0.42938 0.16317 0.42304 0.0
C2298 C 0.41653 0.14035 0.36732 0.0
C2299 C 0.39425 0.16771 0.31802 0.0
C2300 C 0.39772 0.1593 0.34239 0.0
C2301 C 0.42255 0.14795 0.41173 0.0
C2302 C 0.41176 0.14966 0.38891 0.0
H2303 H 0.41763 0.186 0.27061 0.0
H2304 H 0.42166 0.16703 0.30657 0.0
H2305 H 0.41437 0.13862 0.32761 0.0
H2306 H 0.44438 0.11711 0.44579 0.0
H2307 H 0.42273 0.11944 0.41218 0.0
C2308 C 0.5574 0.65332 0.06499 0.0
C2309 C 0.54878 0.63764 0.05854 0.0
C2310 C 0.56979 0.65353 0.08408 0.0
C2311 C 0.57709 0.63371 0.14314 0.0
H2312 H 0.61697 0.66561 0.14283 0.0
C2313 C 0.58905 0.6845 0.21765 0.0
C2314 C 0.60613 0.69019 0.22363 0.0
C2315 C 0.58646 0.67121 0.20015 0.0
C2316 C 0.60622 0.65625 0.14333 0.0
H2317 H 0.54686 0.60968 0.06615 0.0
H2318 H 0.56826 0.6102 0.10054 0.0
H2319 H 0.60538 0.65448 0.10355 0.0
H2320 H 0.63397 0.68568 0.21705 0.0
H2321 H 0.62938 0.6626 0.18586 0.0
H2322 H 0.57711 0.63652 0.18283 0.0
C2323 C 0.56553 0.62223 0.09044 0.0
C2324 C 0.59952 0.64997 0.12081 0.0
C2325 C 0.55331 0.62196 0.07087 0.0
C2326 C 0.62064 0.68163 0.21272 0.0
C2327 C 0.61803 0.66842 0.1949 0.0
C2328 C 0.58375 0.64004 0.16568 0.0
C2329 C 0.57368 0.63811 0.09741 0.0
C2330 C 0.58424 0.63955 0.12048 0.0
C2331 C 0.60089 0.66339 0.18803 0.0
C2332 C 0.59768 0.65224 0.16584 0.0
H2333 H 0.55431 0.66556 0.05558 0.0
H2334 H 0.57563 0.66602 0.08928 0.0
H2335 H 0.56531 0.62567 0.14342 0.0
H2336 H 0.5776 0.69068 0.22595 0.0
H2337 H 0.57308 0.66784 0.19501 0.0
C2338 C 0.08969 0.8146 0.79017 0.0
C2339 C 0.10599 0.80635 0.78622 0.0
C2340 C 0.08778 0.8272 0.80876 0.0
C2341 C 0.10467 0.83643 0.86997 0.0
H2342 H 0.06807 0.87197 0.8664 0.0
C2343 C 0.06437 0.86343 0.95489 0.0
C2344 C 0.04718 0.85678 0.95206 0.0
C2345 C 0.07621 0.86303 0.93489 0.0
C2346 C 0.07865 0.86244 0.86766 0.0
H2347 H 0.13339 0.80558 0.79765 0.0
H2348 H 0.12993 0.82757 0.83079 0.0
H2349 H 0.08206 0.86162 0.82815 0.0
H2350 H 0.02871 0.84507 0.92607 0.0
H2351 H 0.04919 0.84479 0.89113 0.0
H2352 H 0.10035 0.83655 0.90945 0.0
C2353 C 0.11867 0.82423 0.81933 0.0
C2354 C 0.08659 0.85644 0.84583 0.0
C2355 C 0.12063 0.81167 0.8004 0.0
C2356 C 0.04191 0.85012 0.92885 0.0
C2357 C 0.05354 0.85013 0.90882 0.0
C2358 C 0.09686 0.84262 0.89187 0.0
C2359 C 0.1021 0.83183 0.82401 0.0
C2360 C 0.09875 0.84249 0.84666 0.0
C2361 C 0.07077 0.85648 0.9117 0.0
C2362 C 0.08304 0.85483 0.89062 0.0
H2363 H 0.07821 0.81097 0.77933 0.0
H2364 H 0.07476 0.83255 0.81208 0.0
H2365 H 0.11398 0.82567 0.87124 0.0
H2366 H 0.06874 0.86863 0.97264 0.0
H2367 H 0.08953 0.8678 0.93746 0.0
loop_
_geom_bond_atom_site_label_1
_geom_bond_atom_site_label_2
_geom_bond_distance
_geom_bond_site_symmetry_2
_ccdc_geom_bond_type
Co0 O1 2.216 . S
Co0 O2 2.091 . S
Co0 O4 2.004 . S
Co0 O10 2.021 . S
Co0 O12 2.137 . S
Co0 O13 2.244 . S
O1 Co0 2.216 . S
O1 C8 1.247 . S
O2 Co0 2.091 . S
O2 C8 1.261 . S
C3 O12 1.247 . S
C3 O13 1.272 . S
O4 Co0 2.004 . S
O4 C9 1.259 . S
Co5 O6 2.061 . S
Co5 O11 2.052 . S
Co5 O13 2.135 . S
O6 Co5 2.061 . S
O6 C9 1.235 . S
C7 O10 1.238 . S
C7 O11 1.241 . S
C8 O1 1.247 . S
C8 O2 1.261 . S
C9 O4 1.259 . S
C9 O6 1.235 . S
O10 Co0 2.021 . S
O10 C7 1.238 . S
O11 Co5 2.052 . S
O11 C7 1.241 . S
O12 Co0 2.137 . S
O12 C3 1.247 . S
O13 Co0 2.244 . S
O13 C3 1.272 . S
O13 Co5 2.135 . S
Co14 O15 2.216 . S
Co14 O16 2.091 . S
Co14 O18 2.004 . S
Co14 O24 2.021 . S
Co14 O26 2.137 . S
Co14 O27 2.244 . S
O15 Co14 2.216 . S
O15 C22 1.247 . S
O16 Co14 2.091 . S
O16 C22 1.261 . S
C17 O26 1.247 . S
C17 O27 1.272 . S
O18 Co14 2.004 . S
O18 C23 1.259 . S
Co19 O20 2.061 . S
Co19 O25 2.052 . S
Co19 O27 2.135 . S
O20 Co19 2.061 . S
O20 C23 1.235 . S
C21 O24 1.238 . S
C21 O25 1.241 . S
C22 O15 1.247 . S
C22 O16 1.261 . S
C23 O18 1.259 . S
C23 O20 1.235 . S
O24 Co14 2.021 . S
O24 C21 1.238 . S
O25 Co19 2.052 . S
O25 C21 1.241 . S
O26 Co14 2.137 . S
O26 C17 1.247 . S
O27 Co14 2.244 . S
O27 C17 1.272 . S
O27 Co19 2.135 . S
Co28 O29 2.216 . S
Co28 O30 2.091 . S
Co28 O32 2.004 . S
Co28 O38 2.021 . S
Co28 O40 2.137 . S
Co28 O41 2.244 . S
O29 Co28 2.216 . S
O29 C36 1.247 . S
O30 Co28 2.091 . S
O30 C36 1.261 . S
C31 O40 1.247 . S
C31 O41 1.272 . S
O32 Co28 2.004 . S
O32 C37 1.259 . S
Co33 O34 2.061 . S
Co33 O39 2.052 . S
Co33 O41 2.135 . S
O34 Co33 2.061 . S
O34 C37 1.235 . S
C35 O38 1.238 . S
C35 O39 1.241 . S
C36 O29 1.247 . S
C36 O30 1.261 . S
C37 O32 1.259 . S
C37 O34 1.235 . S
O38 Co28 2.021 . S
O38 C35 1.238 . S
O39 Co33 2.052 . S
O39 C35 1.241 . S
O40 Co28 2.137 . S
O40 C31 1.247 . S
O41 Co28 2.244 . S
O41 C31 1.272 . S
O41 Co33 2.135 . S
Co42 O43 2.216 . S
Co42 O44 2.091 . S
Co42 O46 2.004 . S
Co42 O52 2.021 . S
Co42 O54 2.137 . S
Co42 O55 2.244 . S
O43 Co42 2.216 . S
O43 C50 1.247 . S
O44 Co42 2.091 . S
O44 C50 1.261 . S
C45 O54 1.247 . S
C45 O55 1.272 . S
O46 Co42 2.004 . S
O46 C51 1.259 . S
Co47 O48 2.061 . S
Co47 O53 2.090 . S
Co47 O55 2.135 . S
O48 Co47 2.061 . S
O48 C51 1.235 . S
C49 O52 1.238 1_556 S
C49 O53 1.236 1_556 S
C50 O43 1.247 . S
C50 O44 1.261 . S
C51 O46 1.259 . S
C51 O48 1.235 . S
O52 Co42 2.021 . S
O52 C49 1.238 1_554 S
O53 Co47 2.090 . S
O53 C49 1.236 1_554 S
O54 Co42 2.137 . S
O54 C45 1.247 . S
O55 Co42 2.244 . S
O55 C45 1.272 . S
O55 Co47 2.135 . S
Co56 O57 2.216 . S
Co56 O58 2.091 . S
Co56 O60 2.004 . S
Co56 O66 2.021 . S
Co56 O68 2.137 . S
Co56 O69 2.244 . S
O57 Co56 2.216 . S
O57 C64 1.247 . S
O58 Co56 2.091 . S
O58 C64 1.261 . S
C59 O68 1.247 . S
C59 O69 1.272 . S
O60 Co56 2.004 . S
O60 C65 1.259 . S
Co61 O62 2.061 . S
Co61 O67 2.052 . S
Co61 O69 2.135 . S
O62 Co61 2.061 . S
O62 C65 1.235 . S
C63 O66 1.238 . S
C63 O67 1.241 . S
C64 O57 1.247 . S
C64 O58 1.261 . S
C65 O60 1.259 . S
C65 O62 1.235 . S
O66 Co56 2.021 . S
O66 C63 1.238 . S
O67 Co61 2.052 . S
O67 C63 1.241 . S
O68 Co56 2.137 . S
O68 C59 1.247 . S
O69 Co56 2.244 . S
O69 C59 1.272 . S
O69 Co61 2.135 . S
Co70 O71 2.216 . S
Co70 O72 2.091 . S
Co70 O74 2.004 . S
Co70 O80 2.021 . S
Co70 O82 2.137 . S
Co70 O83 2.244 . S
O71 Co70 2.216 . S
O71 C78 1.247 . S
O72 Co70 2.091 . S
O72 C78 1.261 . S
C73 O82 1.247 . S
C73 O83 1.272 . S
O74 Co70 2.004 . S
O74 C79 1.259 . S
Co75 O76 2.061 . S
Co75 O81 2.052 . S
Co75 O83 2.135 . S
O76 Co75 2.061 . S
O76 C79 1.235 . S
C77 O80 1.238 . S
C77 O81 1.241 . S
C78 O71 1.247 . S
C78 O72 1.261 . S
C79 O74 1.259 . S
C79 O76 1.235 . S
O80 Co70 2.021 . S
O80 C77 1.238 . S
O81 Co75 2.052 . S
O81 C77 1.241 . S
O82 Co70 2.137 . S
O82 C73 1.247 . S
O83 Co70 2.244 . S
O83 C73 1.272 . S
O83 Co75 2.135 . S
Co84 O85 2.216 . S
Co84 O86 2.091 . S
Co84 O88 2.004 . S
Co84 O94 2.021 . S
Co84 O96 2.137 . S
Co84 O97 2.244 . S
O85 Co84 2.216 . S
O85 C92 1.247 . S
O86 Co84 2.091 . S
O86 C92 1.261 . S
C87 O96 1.247 . S
C87 O97 1.272 . S
O88 Co84 2.004 . S
O88 C93 1.259 . S
Co89 O90 2.061 . S
Co89 O95 2.052 . S
Co89 O97 2.135 . S
O90 Co89 2.061 . S
O90 C93 1.235 . S
C91 O94 1.238 . S
C91 O95 1.241 . S
C92 O85 1.247 . S
C92 O86 1.261 . S
C93 O88 1.259 . S
C93 O90 1.235 . S
O94 Co84 2.021 . S
O94 C91 1.238 . S
O95 Co89 2.052 . S
O95 C91 1.241 . S
O96 Co84 2.137 . S
O96 C87 1.247 . S
O97 Co84 2.244 . S
O97 C87 1.272 . S
O97 Co89 2.135 . S
Co98 O99 2.216 . S
Co98 O100 2.091 . S
Co98 O102 2.004 . S
Co98 O108 2.021 . S
Co98 O110 2.137 . S
Co98 O111 2.244 . S
O99 Co98 2.216 . S
O99 C106 1.247 . S
O100 Co98 2.091 . S
O100 C106 1.261 . S
C101 O110 1.247 . S
C101 O111 1.272 . S
O102 Co98 2.004 . S
O102 C107 1.259 . S
Co103 O104 2.061 . S
Co103 O109 2.090 . S
Co103 O111 2.135 . S
O104 Co103 2.061 . S
O104 C107 1.235 . S
C105 O108 1.238 1_554 S
C105 O109 1.236 1_554 S
C106 O99 1.247 . S
C106 O100 1.261 . S
C107 O102 1.259 . S
C107 O104 1.235 . S
O108 Co98 2.021 . S
O108 C105 1.238 1_556 S
O109 Co103 2.090 . S
O109 C105 1.236 1_556 S
O110 Co98 2.137 . S
O110 C101 1.247 . S
O111 Co98 2.244 . S
O111 C101 1.272 . S
O111 Co103 2.135 . S
Co112 O113 2.216 . S
Co112 O114 2.091 . S
Co112 O116 2.004 . S
Co112 O122 2.021 . S
Co112 O124 2.137 . S
Co112 O125 2.244 . S
O113 Co112 2.216 . S
O113 C120 1.247 . S
O114 Co112 2.091 . S
O114 C120 1.261 . S
C115 O124 1.247 . S
C115 O125 1.272 . S
O116 Co112 2.004 . S
O116 C121 1.259 . S
Co117 O118 2.061 . S
Co117 O123 2.052 . S
Co117 O125 2.135 . S
O118 Co117 2.061 . S
O118 C121 1.235 . S
C119 O122 1.238 . S
C119 O123 1.241 . S
C120 O113 1.247 . S
C120 O114 1.261 . S
C121 O116 1.259 . S
C121 O118 1.235 . S
O122 Co112 2.021 . S
O122 C119 1.238 . S
O123 Co117 2.052 . S
O123 C119 1.241 . S
O124 Co112 2.137 . S
O124 C115 1.247 . S
O125 Co112 2.244 . S
O125 C115 1.272 . S
O125 Co117 2.135 . S
Co126 O127 2.216 . S
Co126 O128 2.091 . S
Co126 O130 2.004 . S
Co126 O136 2.021 . S
Co126 O138 2.137 . S
Co126 O139 2.244 . S
O127 Co126 2.216 . S
O127 C134 1.247 . S
O128 Co126 2.091 . S
O128 C134 1.261 . S
C129 O138 1.247 . S
C129 O139 1.272 . S
O130 Co126 2.004 . S
O130 C135 1.259 . S
Co131 O132 2.061 . S
Co131 O137 2.052 . S
Co131 O139 2.135 . S
O132 Co131 2.061 . S
O132 C135 1.235 . S
C133 O136 1.238 . S
C133 O137 1.241 . S
C134 O127 1.247 . S
C134 O128 1.261 . S
C135 O130 1.259 . S
C135 O132 1.235 . S
O136 Co126 2.021 . S
O136 C133 1.238 . S
O137 Co131 2.052 . S
O137 C133 1.241 . S
O138 Co126 2.137 . S
O138 C129 1.247 . S
O139 Co126 2.244 . S
O139 C129 1.272 . S
O139 Co131 2.135 . S
Co140 O141 2.216 . S
Co140 O142 2.091 . S
Co140 O144 2.004 . S
Co140 O150 2.021 . S
Co140 O152 2.137 . S
Co140 O153 2.244 . S
O141 Co140 2.216 . S
O141 C148 1.247 . S
O142 Co140 2.091 . S
O142 C148 1.261 . S
C143 O152 1.247 . S
C143 O153 1.272 . S
O144 Co140 2.004 . S
O144 C149 1.259 . S
Co145 O146 2.061 . S
Co145 O151 2.052 . S
Co145 O153 2.135 . S
O146 Co145 2.061 . S
O146 C149 1.235 . S
C147 O150 1.238 . S
C147 O151 1.241 . S
C148 O141 1.247 . S
C148 O142 1.261 . S
C149 O144 1.259 . S
C149 O146 1.235 . S
O150 Co140 2.021 . S
O150 C147 1.238 . S
O151 Co145 2.052 . S
O151 C147 1.241 . S
O152 Co140 2.137 . S
O152 C143 1.247 . S
O153 Co140 2.244 . S
O153 C143 1.272 . S
O153 Co145 2.135 . S
Co154 O155 2.216 . S
Co154 O156 2.091 . S
Co154 O158 2.004 . S
Co154 O164 2.021 . S
Co154 O166 2.137 . S
Co154 O167 2.244 . S
O155 Co154 2.216 . S
O155 C162 1.247 . S
O156 Co154 2.091 . S
O156 C162 1.261 . S
C157 O166 1.247 . S
C157 O167 1.272 . S
O158 Co154 2.004 . S
O158 C163 1.259 . S
Co159 O160 2.061 . S
Co159 O165 2.090 . S
Co159 O167 2.135 . S
O160 Co159 2.061 . S
O160 C163 1.235 . S
C161 O164 1.238 1_554 S
C161 O165 1.236 1_554 S
C162 O155 1.247 . S
C162 O156 1.261 . S
C163 O158 1.259 . S
C163 O160 1.235 . S
O164 Co154 2.021 . S
O164 C161 1.238 1_556 S
O165 Co159 2.090 . S
O165 C161 1.236 1_556 S
O166 Co154 2.137 . S
O166 C157 1.247 . S
O167 Co154 2.244 . S
O167 C157 1.272 . S
O167 Co159 2.135 . S
Co168 O169 2.216 . S
Co168 O170 2.091 . S
Co168 O172 2.004 . S
Co168 O178 2.021 . S
Co168 O180 2.137 . S
Co168 O181 2.244 . S
O169 Co168 2.216 . S
O169 C176 1.247 . S
O170 Co168 2.091 . S
O170 C176 1.261 . S
C171 O180 1.247 . S
C171 O181 1.272 . S
O172 Co168 2.004 . S
O172 C177 1.259 . S
Co173 O174 2.061 . S
Co173 O179 2.052 . S
Co173 O181 2.135 . S
O174 Co173 2.061 . S
O174 C177 1.235 . S
C175 O178 1.238 . S
C175 O179 1.241 . S
C176 O169 1.247 . S
C176 O170 1.261 . S
C177 O172 1.259 . S
C177 O174 1.235 . S
O178 Co168 2.021 . S
O178 C175 1.238 . S
O179 Co173 2.052 . S
O179 C175 1.241 . S
O180 Co168 2.137 . S
O180 C171 1.247 . S
O181 Co168 2.244 . S
O181 C171 1.272 . S
O181 Co173 2.135 . S
Co182 O183 2.216 . S
Co182 O184 2.091 . S
Co182 O186 2.004 . S
Co182 O192 2.021 . S
Co182 O194 2.137 . S
Co182 O195 2.244 . S
O183 Co182 2.216 . S
O183 C190 1.247 . S
O184 Co182 2.091 . S
O184 C190 1.261 . S
C185 O194 1.247 . S
C185 O195 1.272 . S
O186 Co182 2.004 . S
O186 C191 1.259 . S
Co187 O188 2.061 . S
Co187 O193 2.052 . S
Co187 O195 2.135 . S
O188 Co187 2.061 . S
O188 C191 1.235 . S
C189 O192 1.238 . S
C189 O193 1.241 . S
C190 O183 1.247 . S
C190 O184 1.261 . S
C191 O186 1.259 . S
C191 O188 1.235 . S
O192 Co182 2.021 . S
O192 C189 1.238 . S
O193 Co187 2.052 . S
O193 C189 1.241 . S
O194 Co182 2.137 . S
O194 C185 1.247 . S
O195 Co182 2.244 . S
O195 C185 1.272 . S
O195 Co187 2.135 . S
Co196 O197 2.216 . S
Co196 O198 2.091 . S
Co196 O200 2.004 . S
Co196 O206 2.021 . S
Co196 O208 2.137 . S
Co196 O209 2.244 . S
O197 Co196 2.216 . S
O197 C204 1.247 . S
O198 Co196 2.091 . S
O198 C204 1.261 . S
C199 O208 1.247 . S
C199 O209 1.272 . S
O200 Co196 2.004 . S
O200 C205 1.259 . S
Co201 O202 2.061 . S
Co201 O207 2.052 . S
Co201 O209 2.135 . S
O202 Co201 2.061 . S
O202 C205 1.235 . S
C203 O206 1.238 . S
C203 O207 1.241 . S
C204 O197 1.247 . S
C204 O198 1.261 . S
C205 O200 1.259 . S
C205 O202 1.235 . S
O206 Co196 2.021 . S
O206 C203 1.238 . S
O207 Co201 2.052 . S
O207 C203 1.241 . S
O208 Co196 2.137 . S
O208 C199 1.247 . S
O209 Co196 2.244 . S
O209 C199 1.272 . S
O209 Co201 2.135 . S
Co210 O211 2.216 . S
Co210 O212 2.091 . S
Co210 O214 2.004 . S
Co210 O220 2.021 . S
Co210 O222 2.137 . S
Co210 O223 2.244 . S
O211 Co210 2.216 . S
O211 C218 1.247 . S
O212 Co210 2.091 . S
O212 C218 1.261 . S
C213 O222 1.247 . S
C213 O223 1.272 . S
O214 Co210 2.004 . S
O214 C219 1.259 . S
Co215 O216 2.061 . S
Co215 O221 2.090 . S
Co215 O223 2.135 . S
O216 Co215 2.061 . S
O216 C219 1.235 . S
C217 O220 1.238 1_556 S
C217 O221 1.236 1_556 S
C218 O211 1.247 . S
C218 O212 1.261 . S
C219 O214 1.259 . S
C219 O216 1.235 . S
O220 Co210 2.021 . S
O220 C217 1.238 1_554 S
O221 Co215 2.090 . S
O221 C217 1.236 1_554 S
O222 Co210 2.137 . S
O222 C213 1.247 . S
O223 Co210 2.244 . S
O223 C213 1.272 . S
O223 Co215 2.135 . S
Co224 O225 2.216 . S
Co224 O226 2.091 . S
Co224 O228 2.004 . S
Co224 O234 2.021 . S
Co224 O236 2.137 . S
Co224 O237 2.244 . S
O225 Co224 2.216 . S
O225 C232 1.247 . S
O226 Co224 2.091 . S
O226 C232 1.261 . S
C227 O236 1.247 . S
C227 O237 1.272 . S
O228 Co224 2.004 . S
O228 C233 1.259 . S
Co229 O230 2.061 . S
Co229 O235 2.052 . S
Co229 O237 2.135 . S
O230 Co229 2.061 . S
O230 C233 1.235 . S
C231 O234 1.238 . S
C231 O235 1.241 . S
C232 O225 1.247 . S
C232 O226 1.261 . S
C233 O228 1.259 . S
C233 O230 1.235 . S
O234 Co224 2.021 . S
O234 C231 1.238 . S
O235 Co229 2.052 . S
O235 C231 1.241 . S
O236 Co224 2.137 . S
O236 C227 1.247 . S
O237 Co224 2.244 . S
O237 C227 1.272 . S
O237 Co229 2.135 . S
Co238 O239 2.216 . S
Co238 O240 2.091 . S
Co238 O242 2.004 . S
Co238 O248 2.021 . S
Co238 O250 2.137 . S
Co238 O251 2.244 . S
O239 Co238 2.216 . S
O239 C246 1.247 . S
O240 Co238 2.091 . S
O240 C246 1.261 . S
C241 O250 1.247 . S
C241 O251 1.272 . S
O242 Co238 2.004 . S
O242 C247 1.259 . S
Co243 O244 2.061 . S
Co243 O249 2.090 . S
Co243 O251 2.135 . S
O244 Co243 2.061 . S
O244 C247 1.235 . S
C245 O248 1.238 1_556 S
C245 O249 1.236 1_556 S
C246 O239 1.247 . S
C246 O240 1.261 . S
C247 O242 1.259 . S
C247 O244 1.235 . S
O248 Co238 2.021 . S
O248 C245 1.238 1_554 S
O249 Co243 2.090 . S
O249 C245 1.236 1_554 S
O250 Co238 2.137 . S
O250 C241 1.247 . S
O251 Co238 2.244 . S
O251 C241 1.272 . S
O251 Co243 2.135 . S
Co252 O253 2.216 . S
Co252 O254 2.091 . S
Co252 O256 2.004 . S
Co252 O262 2.021 . S
Co252 O264 2.137 . S
Co252 O265 2.244 . S
O253 Co252 2.216 . S
O253 C260 1.247 . S
O254 Co252 2.091 . S
O254 C260 1.261 . S
C255 O264 1.247 . S
C255 O265 1.272 . S
O256 Co252 2.004 . S
O256 C261 1.259 . S
Co257 O258 2.061 . S
Co257 O263 2.052 . S
Co257 O265 2.135 . S
O258 Co257 2.061 . S
O258 C261 1.235 . S
C259 O262 1.238 . S
C259 O263 1.241 . S
C260 O253 1.247 . S
C260 O254 1.261 . S
C261 O256 1.259 . S
C261 O258 1.235 . S
O262 Co252 2.021 . S
O262 C259 1.238 . S
O263 Co257 2.052 . S
O263 C259 1.241 . S
O264 Co252 2.137 . S
O264 C255 1.247 . S
O265 Co252 2.244 . S
O265 C255 1.272 . S
O265 Co257 2.135 . S
Co266 O267 2.216 . S
Co266 O268 2.091 . S
Co266 O270 2.004 . S
Co266 O276 2.021 . S
Co266 O278 2.137 . S
Co266 O279 2.244 . S
O267 Co266 2.216 . S
O267 C274 1.247 . S
O268 Co266 2.091 . S
O268 C274 1.261 . S
C269 O278 1.247 . S
C269 O279 1.272 . S
O270 Co266 2.004 . S
O270 C275 1.259 . S
Co271 O272 2.061 . S
Co271 O277 2.052 . S
Co271 O279 2.135 . S
O272 Co271 2.061 . S
O272 C275 1.235 . S
C273 O276 1.238 . S
C273 O277 1.241 . S
C274 O267 1.247 . S
C274 O268 1.261 . S
C275 O270 1.259 . S
C275 O272 1.235 . S
O276 Co266 2.021 . S
O276 C273 1.238 . S
O277 Co271 2.052 . S
O277 C273 1.241 . S
O278 Co266 2.137 . S
O278 C269 1.247 . S
O279 Co266 2.244 . S
O279 C269 1.272 . S
O279 Co271 2.135 . S
Co280 O281 2.216 . S
Co280 O282 2.091 . S
Co280 O284 2.004 . S
Co280 O290 2.021 . S
Co280 O292 2.137 . S
Co280 O293 2.244 . S
O281 Co280 2.216 . S
O281 C288 1.247 . S
O282 Co280 2.091 . S
O282 C288 1.261 . S
C283 O292 1.247 . S
C283 O293 1.272 . S
O284 Co280 2.004 . S
O284 C289 1.259 . S
Co285 O286 2.061 . S
Co285 O291 2.052 . S
Co285 O293 2.135 . S
O286 Co285 2.061 . S
O286 C289 1.235 . S
C287 O290 1.238 . S
C287 O291 1.241 . S
C288 O281 1.247 . S
C288 O282 1.261 . S
C289 O284 1.259 . S
C289 O286 1.235 . S
O290 Co280 2.021 . S
O290 C287 1.238 . S
O291 Co285 2.052 . S
O291 C287 1.241 . S
O292 Co280 2.137 . S
O292 C283 1.247 . S
O293 Co280 2.244 . S
O293 C283 1.272 . S
O293 Co285 2.135 . S
Co294 O295 2.216 . S
Co294 O296 2.091 . S
Co294 O298 2.004 . S
Co294 O304 2.021 . S
Co294 O306 2.137 . S
Co294 O307 2.244 . S
O295 Co294 2.216 . S
O295 C302 1.247 . S
O296 Co294 2.091 . S
O296 C302 1.261 . S
C297 O306 1.247 . S
C297 O307 1.272 . S
O298 Co294 2.004 . S
O298 C303 1.259 . S
Co299 O300 2.061 . S
Co299 O305 2.090 . S
Co299 O307 2.135 . S
O300 Co299 2.061 . S
O300 C303 1.235 . S
C301 O304 1.238 1_554 S
C301 O305 1.236 1_554 S
C302 O295 1.247 . S
C302 O296 1.261 . S
C303 O298 1.259 . S
C303 O300 1.235 . S
O304 Co294 2.021 . S
O304 C301 1.238 1_556 S
O305 Co299 2.090 . S
O305 C301 1.236 1_556 S
O306 Co294 2.137 . S
O306 C297 1.247 . S
O307 Co294 2.244 . S
O307 C297 1.272 . S
O307 Co299 2.135 . S
Co308 O309 2.216 . S
Co308 O310 2.091 . S
Co308 O312 2.004 . S
Co308 O318 2.021 . S
Co308 O320 2.137 . S
Co308 O321 2.244 . S
O309 Co308 2.216 . S
O309 C316 1.247 . S
O310 Co308 2.091 . S
O310 C316 1.261 . S
C311 O320 1.247 . S
C311 O321 1.272 . S
O312 Co308 2.004 . S
O312 C317 1.259 . S
Co313 O314 2.061 . S
Co313 O319 2.052 . S
Co313 O321 2.135 . S
O314 Co313 2.061 . S
O314 C317 1.235 . S
C315 O318 1.238 . S
C315 O319 1.241 . S
C316 O309 1.247 . S
C316 O310 1.261 . S
C317 O312 1.259 . S
C317 O314 1.235 . S
O318 Co308 2.021 . S
O318 C315 1.238 . S
O319 Co313 2.052 . S
O319 C315 1.241 . S
O320 Co308 2.137 . S
O320 C311 1.247 . S
O321 Co308 2.244 . S
O321 C311 1.272 . S
O321 Co313 2.135 . S
Co322 O323 2.216 . S
Co322 O324 2.091 . S
Co322 O326 2.004 . S
Co322 O332 2.021 . S
Co322 O334 2.137 . S
Co322 O335 2.244 . S
O323 Co322 2.216 . S
O323 C330 1.247 . S
O324 Co322 2.091 . S
O324 C330 1.261 . S
C325 O334 1.247 . S
C325 O335 1.272 . S
O326 Co322 2.004 . S
O326 C331 1.259 . S
Co327 O328 2.061 . S
Co327 O333 2.052 . S
Co327 O335 2.135 . S
O328 Co327 2.061 . S
O328 C331 1.235 . S
C329 O332 1.238 . S
C329 O333 1.241 . S
C330 O323 1.247 . S
C330 O324 1.261 . S
C331 O326 1.259 . S
C331 O328 1.235 . S
O332 Co322 2.021 . S
O332 C329 1.238 . S
O333 Co327 2.052 . S
O333 C329 1.241 . S
O334 Co322 2.137 . S
O334 C325 1.247 . S
O335 Co322 2.244 . S
O335 C325 1.272 . S
O335 Co327 2.135 . S
Co336 O337 2.216 . S
Co336 O338 2.091 . S
Co336 O340 2.004 . S
Co336 O346 2.021 . S
Co336 O348 2.137 . S
Co336 O349 2.244 . S
O337 Co336 2.216 . S
O337 C344 1.247 . S
O338 Co336 2.091 . S
O338 C344 1.261 . S
C339 O348 1.247 . S
C339 O349 1.272 . S
O340 Co336 2.004 . S
O340 C345 1.259 . S
Co341 O342 2.061 . S
Co341 O347 2.052 . S
Co341 O349 2.135 . S
O342 Co341 2.061 . S
O342 C345 1.235 . S
C343 O346 1.238 . S
C343 O347 1.241 . S
C344 O337 1.247 . S
C344 O338 1.261 . S
C345 O340 1.259 . S
C345 O342 1.235 . S
O346 Co336 2.021 . S
O346 C343 1.238 . S
O347 Co341 2.052 . S
O347 C343 1.241 . S
O348 Co336 2.137 . S
O348 C339 1.247 . S
O349 Co336 2.244 . S
O349 C339 1.272 . S
O349 Co341 2.135 . S
Co350 O351 2.216 . S
Co350 O352 2.091 . S
Co350 O354 2.004 . S
Co350 O360 2.021 . S
Co350 O362 2.137 . S
Co350 O363 2.244 . S
O351 Co350 2.216 . S
O351 C358 1.247 . S
O352 Co350 2.091 . S
O352 C358 1.261 . S
C353 O362 1.247 . S
C353 O363 1.272 . S
O354 Co350 2.004 . S
O354 C359 1.259 . S
Co355 O356 2.061 . S
Co355 O361 2.090 . S
Co355 O363 2.135 . S
O356 Co355 2.061 . S
O356 C359 1.235 . S
C357 O360 1.238 1_554 S
C357 O361 1.236 1_554 S
C358 O351 1.247 . S
C358 O352 1.261 . S
C359 O354 1.259 . S
C359 O356 1.235 . S
O360 Co350 2.021 . S
O360 C357 1.238 1_556 S
O361 Co355 2.090 . S
O361 C357 1.236 1_556 S
O362 Co350 2.137 . S
O362 C353 1.247 . S
O363 Co350 2.244 . S
O363 C353 1.272 . S
O363 Co355 2.135 . S
Co364 O365 2.216 . S
Co364 O366 2.091 . S
Co364 O368 2.004 . S
Co364 O374 2.021 . S
Co364 O376 2.137 . S
Co364 O377 2.244 . S
O365 Co364 2.216 . S
O365 C372 1.247 . S
O366 Co364 2.091 . S
O366 C372 1.261 . S
C367 O376 1.247 . S
C367 O377 1.272 . S
O368 Co364 2.004 . S
O368 C373 1.259 . S
Co369 O370 2.061 . S
Co369 O375 2.052 . S
Co369 O377 2.135 . S
O370 Co369 2.061 . S
O370 C373 1.235 . S
C371 O374 1.238 . S
C371 O375 1.241 . S
C372 O365 1.247 . S
C372 O366 1.261 . S
C373 O368 1.259 . S
C373 O370 1.235 . S
O374 Co364 2.021 . S
O374 C371 1.238 . S
O375 Co369 2.052 . S
O375 C371 1.241 . S
O376 Co364 2.137 . S
O376 C367 1.247 . S
O377 Co364 2.244 . S
O377 C367 1.272 . S
O377 Co369 2.135 . S
Co378 O379 2.216 . S
Co378 O380 2.091 . S
Co378 O382 2.004 . S
Co378 O388 2.021 . S
Co378 O390 2.137 . S
Co378 O391 2.244 . S
O379 Co378 2.216 . S
O379 C386 1.247 . S
O380 Co378 2.091 . S
O380 C386 1.261 . S
C381 O390 1.247 . S
C381 O391 1.272 . S
O382 Co378 2.004 . S
O382 C387 1.259 . S
Co383 O384 2.061 . S
Co383 O389 2.052 . S
Co383 O391 2.135 . S
O384 Co383 2.061 . S
O384 C387 1.235 . S
C385 O388 1.238 . S
C385 O389 1.241 . S
C386 O379 1.247 . S
C386 O380 1.261 . S
C387 O382 1.259 . S
C387 O384 1.235 . S
O388 Co378 2.021 . S
O388 C385 1.238 . S
O389 Co383 2.052 . S
O389 C385 1.241 . S
O390 Co378 2.137 . S
O390 C381 1.247 . S
O391 Co378 2.244 . S
O391 C381 1.272 . S
O391 Co383 2.135 . S
Co392 O393 2.216 . S
Co392 O394 2.091 . S
Co392 O396 2.004 . S
Co392 O402 2.021 . S
Co392 O404 2.137 . S
Co392 O405 2.244 . S
O393 Co392 2.216 . S
O393 C400 1.247 . S
O394 Co392 2.091 . S
O394 C400 1.261 . S
C395 O404 1.247 . S
C395 O405 1.272 . S
O396 Co392 2.004 . S
O396 C401 1.259 . S
Co397 O398 2.061 . S
Co397 O403 2.052 . S
Co397 O405 2.135 . S
O398 Co397 2.061 . S
O398 C401 1.235 . S
C399 O402 1.238 . S
C399 O403 1.241 . S
C400 O393 1.247 . S
C400 O394 1.261 . S
C401 O396 1.259 . S
C401 O398 1.235 . S
O402 Co392 2.021 . S
O402 C399 1.238 . S
O403 Co397 2.052 . S
O403 C399 1.241 . S
O404 Co392 2.137 . S
O404 C395 1.247 . S
O405 Co392 2.244 . S
O405 C395 1.272 . S
O405 Co397 2.135 . S
Co406 O407 2.216 . S
Co406 O408 2.091 . S
Co406 O410 2.004 . S
Co406 O416 2.021 . S
Co406 O418 2.137 . S
Co406 O419 2.244 . S
O407 Co406 2.216 . S
O407 C414 1.247 . S
O408 Co406 2.091 . S
O408 C414 1.261 . S
C409 O418 1.247 . S
C409 O419 1.272 . S
O410 Co406 2.004 . S
O410 C415 1.259 . S
Co411 O412 2.061 . S
Co411 O417 2.090 . S
Co411 O419 2.135 . S
O412 Co411 2.061 . S
O412 C415 1.235 . S
C413 O416 1.238 1_556 S
C413 O417 1.236 1_556 S
C414 O407 1.247 . S
C414 O408 1.261 . S
C415 O410 1.259 . S
C415 O412 1.235 . S
O416 Co406 2.021 . S
O416 C413 1.238 1_554 S
O417 Co411 2.090 . S
O417 C413 1.236 1_554 S
O418 Co406 2.137 . S
O418 C409 1.247 . S
O419 Co406 2.244 . S
O419 C409 1.272 . S
O419 Co411 2.135 . S
Co420 O421 2.216 . S
Co420 O422 2.091 . S
Co420 O424 2.004 . S
Co420 O430 2.021 . S
Co420 O432 2.137 . S
Co420 O433 2.244 . S
O421 Co420 2.216 . S
O421 C428 1.247 . S
O422 Co420 2.091 . S
O422 C428 1.261 . S
C423 O432 1.247 . S
C423 O433 1.272 . S
O424 Co420 2.004 . S
O424 C429 1.259 . S
Co425 O426 2.061 . S
Co425 O431 2.052 . S
Co425 O433 2.135 . S
O426 Co425 2.061 . S
O426 C429 1.235 . S
C427 O430 1.238 . S
C427 O431 1.241 . S
C428 O421 1.247 . S
C428 O422 1.261 . S
C429 O424 1.259 . S
C429 O426 1.235 . S
O430 Co420 2.021 . S
O430 C427 1.238 . S
O431 Co425 2.052 . S
O431 C427 1.241 . S
O432 Co420 2.137 . S
O432 C423 1.247 . S
O433 Co420 2.244 . S
O433 C423 1.272 . S
O433 Co425 2.135 . S
Co434 O435 2.216 . S
Co434 O436 2.091 . S
Co434 O438 2.004 . S
Co434 O444 2.021 . S
Co434 O446 2.137 . S
Co434 O447 2.244 . S
O435 Co434 2.216 . S
O435 C442 1.247 . S
O436 Co434 2.091 . S
O436 C442 1.261 . S
C437 O446 1.247 . S
C437 O447 1.272 . S
O438 Co434 2.004 . S
O438 C443 1.259 . S
Co439 O440 2.061 . S
Co439 O445 2.052 . S
Co439 O447 2.135 . S
O440 Co439 2.061 . S
O440 C443 1.235 . S
C441 O444 1.238 . S
C441 O445 1.241 . S
C442 O435 1.247 . S
C442 O436 1.261 . S
C443 O438 1.259 . S
C443 O440 1.235 . S
O444 Co434 2.021 . S
O444 C441 1.238 . S
O445 Co439 2.052 . S
O445 C441 1.241 . S
O446 Co434 2.137 . S
O446 C437 1.247 . S
O447 Co434 2.244 . S
O447 C437 1.272 . S
O447 Co439 2.135 . S
C448 C449 1.349 . S
C448 C450 1.327 . S
C448 H473 0.950 . S
C449 C448 1.349 . S
C449 C465 1.349 . S
C450 C448 1.327 . S
C450 C469 1.429 . S
C450 H474 0.950 . S
C451 C468 1.574 . S
C451 C470 1.368 . S
C451 H475 0.949 . S
H452 C456 0.949 . S
C453 C454 1.349 . S
C453 C455 1.327 . S
C453 H476 0.950 . S
C454 C453 1.349 . S
C454 C466 1.349 . S
C455 C453 1.327 . S
C455 C471 1.429 . S
C455 H477 0.950 . S
C456 H452 0.949 . S
C456 C464 1.574 . S
C456 C472 1.368 . S
H457 C465 0.950 . S
H458 C463 0.950 . S
H459 C464 0.949 . S
H460 C466 0.950 . S
H461 C467 0.950 . S
H462 C468 0.949 . S
C463 H458 0.950 . S
C463 C465 1.327 . S
C463 C469 1.429 . S
C464 C456 1.574 . S
C464 H459 0.949 . S
C464 C470 1.368 . S
C465 C449 1.349 . S
C465 H457 0.950 . S
C465 C463 1.327 . S
C466 C454 1.349 . S
C466 H460 0.950 . S
C466 C467 1.327 . S
C467 H461 0.950 . S
C467 C466 1.327 . S
C467 C471 1.429 . S
C468 C451 1.574 . S
C468 H462 0.949 . S
C468 C472 1.368 . S
C469 C450 1.429 . S
C469 C463 1.429 . S
C469 C470 1.523 . S
C470 C451 1.368 . S
C470 C464 1.368 . S
C470 C469 1.523 . S
C471 C455 1.429 . S
C471 C467 1.429 . S
C471 C472 1.523 . S
C472 C456 1.368 . S
C472 C468 1.368 . S
C472 C471 1.523 . S
H473 C448 0.950 . S
H474 C450 0.950 . S
H475 C451 0.949 . S
H476 C453 0.950 . S
H477 C455 0.950 . S
C478 C479 1.349 . S
C478 C480 1.327 1_655 S
C478 H503 0.950 . S
C479 C478 1.349 . S
C479 C495 1.349 . S
C480 C478 1.327 1_455 S
C480 C499 1.429 . S
C480 H504 0.950 . S
C481 C498 1.574 . S
C481 C500 1.368 . S
C481 H505 0.949 . S
H482 C486 0.949 . S
C483 C484 1.349 . S
C483 C485 1.327 . S
C483 H506 0.950 . S
C484 C483 1.349 . S
C484 C496 1.349 . S
C485 C483 1.327 . S
C485 C501 1.429 . S
C485 H507 0.950 . S
C486 H482 0.949 . S
C486 C494 1.574 . S
C486 C502 1.368 . S
H487 C495 0.950 . S
H488 C493 0.950 . S
H489 C494 0.949 . S
H490 C496 0.950 . S
H491 C497 0.950 . S
H492 C498 0.949 . S
C493 H488 0.950 . S
C493 C495 1.327 1_455 S
C493 C499 1.429 . S
C494 C486 1.574 . S
C494 H489 0.949 . S
C494 C500 1.368 . S
C495 C479 1.349 . S
C495 H487 0.950 . S
C495 C493 1.327 1_655 S
C496 C484 1.349 . S
C496 H490 0.950 . S
C496 C497 1.327 . S
C497 H491 0.950 . S
C497 C496 1.327 . S
C497 C501 1.429 . S
C498 C481 1.574 . S
C498 H492 0.949 . S
C498 C502 1.368 . S
C499 C480 1.429 . S
C499 C493 1.429 . S
C499 C500 1.523 . S
C500 C481 1.368 . S
C500 C494 1.368 . S
C500 C499 1.523 . S
C501 C485 1.429 . S
C501 C497 1.429 . S
C501 C502 1.523 . S
C502 C486 1.368 . S
C502 C498 1.368 . S
C502 C501 1.523 . S
H503 C478 0.950 . S
H504 C480 0.950 . S
H505 C481 0.949 . S
H506 C483 0.950 . S
H507 C485 0.950 . S
C508 C509 1.349 . S
C508 C510 1.327 . S
C508 H533 0.950 . S
C509 C508 1.349 . S
C509 C525 1.349 . S
C510 C508 1.327 . S
C510 C529 1.429 . S
C510 H534 0.950 . S
C511 C528 1.574 . S
C511 C530 1.368 . S
C511 H535 0.949 . S
H512 C516 0.949 . S
C513 C514 1.349 . S
C513 C515 1.327 . S
C513 H536 0.950 . S
C514 C513 1.349 . S
C514 C526 1.349 . S
C515 C513 1.327 . S
C515 C531 1.429 . S
C515 H537 0.950 . S
C516 H512 0.949 . S
C516 C524 1.574 . S
C516 C532 1.368 . S
H517 C525 0.950 . S
H518 C523 0.950 . S
H519 C524 0.949 . S
H520 C526 0.950 . S
H521 C527 0.950 . S
H522 C528 0.949 . S
C523 H518 0.950 . S
C523 C525 1.327 . S
C523 C529 1.429 . S
C524 C516 1.574 . S
C524 H519 0.949 . S
C524 C530 1.368 . S
C525 C509 1.349 . S
C525 H517 0.950 . S
C525 C523 1.327 . S
C526 C514 1.349 . S
C526 H520 0.950 . S
C526 C527 1.327 . S
C527 H521 0.950 . S
C527 C526 1.327 . S
C527 C531 1.429 . S
C528 C511 1.574 . S
C528 H522 0.949 . S
C528 C532 1.368 . S
C529 C510 1.429 . S
C529 C523 1.429 . S
C529 C530 1.523 . S
C530 C511 1.368 . S
C530 C524 1.368 . S
C530 C529 1.523 . S
C531 C515 1.429 . S
C531 C527 1.429 . S
C531 C532 1.523 . S
C532 C516 1.368 . S
C532 C528 1.368 . S
C532 C531 1.523 . S
H533 C508 0.950 . S
H534 C510 0.950 . S
H535 C511 0.949 . S
H536 C513 0.950 . S
H537 C515 0.950 . S
C538 C539 1.349 . S
C538 C540 1.327 . S
C538 H563 0.950 . S
C539 C538 1.349 . S
C539 C555 1.349 . S
C540 C538 1.327 . S
C540 C559 1.429 . S
C540 H564 0.950 . S
C541 C558 1.574 . S
C541 C560 1.368 . S
C541 H565 0.949 . S
H542 C546 0.949 . S
C543 C544 1.349 . S
C543 C545 1.327 . S
C543 H566 0.950 . S
C544 C543 1.349 . S
C544 C556 1.349 . S
C545 C543 1.327 . S
C545 C561 1.429 . S
C545 H567 0.950 . S
C546 H542 0.949 . S
C546 C554 1.574 . S
C546 C562 1.368 . S
H547 C555 0.950 . S
H548 C553 0.950 . S
H549 C554 0.949 . S
H550 C556 0.950 . S
H551 C557 0.950 . S
H552 C558 0.949 . S
C553 H548 0.950 . S
C553 C555 1.327 . S
C553 C559 1.429 . S
C554 C546 1.574 . S
C554 H549 0.949 . S
C554 C560 1.368 . S
C555 C539 1.349 . S
C555 H547 0.950 . S
C555 C553 1.327 . S
C556 C544 1.349 . S
C556 H550 0.950 . S
C556 C557 1.327 . S
C557 H551 0.950 . S
C557 C556 1.327 . S
C557 C561 1.429 . S
C558 C541 1.574 . S
C558 H552 0.949 . S
C558 C562 1.368 . S
C559 C540 1.429 . S
C559 C553 1.429 . S
C559 C560 1.523 . S
C560 C541 1.368 . S
C560 C554 1.368 . S
C560 C559 1.523 . S
C561 C545 1.429 . S
C561 C557 1.429 . S
C561 C562 1.523 . S
C562 C546 1.368 . S
C562 C558 1.368 . S
C562 C561 1.523 . S
H563 C538 0.950 . S
H564 C540 0.950 . S
H565 C541 0.949 . S
H566 C543 0.950 . S
H567 C545 0.950 . S
C568 C569 1.349 . S
C568 C570 1.327 . S
C568 H593 0.950 . S
C569 C568 1.349 . S
C569 C585 1.349 . S
C570 C568 1.327 . S
C570 C589 1.429 . S
C570 H594 0.950 . S
C571 C588 1.574 . S
C571 C590 1.368 . S
C571 H595 0.949 . S
H572 C576 0.949 . S
C573 C574 1.349 . S
C573 C575 1.327 . S
C573 H596 0.950 . S
C574 C573 1.349 . S
C574 C586 1.349 . S
C575 C573 1.327 . S
C575 C591 1.429 . S
C575 H597 0.950 . S
C576 H572 0.949 . S
C576 C584 1.574 . S
C576 C592 1.368 . S
H577 C585 0.950 . S
H578 C583 0.950 . S
H579 C584 0.949 . S
H580 C586 0.950 . S
H581 C587 0.950 . S
H582 C588 0.949 . S
C583 H578 0.950 . S
C583 C585 1.327 . S
C583 C589 1.429 . S
C584 C576 1.574 . S
C584 H579 0.949 . S
C584 C590 1.368 . S
C585 C569 1.349 . S
C585 H577 0.950 . S
C585 C583 1.327 . S
C586 C574 1.349 . S
C586 H580 0.950 . S
C586 C587 1.327 . S
C587 H581 0.950 . S
C587 C586 1.327 . S
C587 C591 1.429 . S
C588 C571 1.574 . S
C588 H582 0.949 . S
C588 C592 1.368 . S
C589 C570 1.429 . S
C589 C583 1.429 . S
C589 C590 1.523 . S
C590 C571 1.368 . S
C590 C584 1.368 . S
C590 C589 1.523 . S
C591 C575 1.429 . S
C591 C587 1.429 . S
C591 C592 1.523 . S
C592 C576 1.368 . S
C592 C588 1.368 . S
C592 C591 1.523 . S
H593 C568 0.950 . S
H594 C570 0.950 . S
H595 C571 0.949 . S
H596 C573 0.950 . S
H597 C575 0.950 . S
C598 C599 1.349 . S
C598 C600 1.327 . S
C598 H623 0.950 . S
C599 C598 1.349 . S
C599 C615 1.349 . S
C600 C598 1.327 . S
C600 C619 1.429 . S
C600 H624 0.950 . S
C601 C618 1.574 . S
C601 C620 1.368 . S
C601 H625 0.949 . S
H602 C606 0.949 . S
C603 C604 1.349 . S
C603 C605 1.327 . S
C603 H626 0.950 . S
C604 C603 1.349 . S
C604 C616 1.349 . S
C605 C603 1.327 . S
C605 C621 1.429 . S
C605 H627 0.950 . S
C606 H602 0.949 . S
C606 C614 1.574 . S
C606 C622 1.368 . S
H607 C615 0.950 . S
H608 C613 0.950 . S
H609 C614 0.949 . S
H610 C616 0.950 . S
H611 C617 0.950 . S
H612 C618 0.949 . S
C613 H608 0.950 . S
C613 C615 1.327 . S
C613 C619 1.429 . S
C614 C606 1.574 . S
C614 H609 0.949 . S
C614 C620 1.368 . S
C615 C599 1.349 . S
C615 H607 0.950 . S
C615 C613 1.327 . S
C616 C604 1.349 . S
C616 H610 0.950 . S
C616 C617 1.327 . S
C617 H611 0.950 . S
C617 C616 1.327 . S
C617 C621 1.429 . S
C618 C601 1.574 . S
C618 H612 0.949 . S
C618 C622 1.368 . S
C619 C600 1.429 . S
C619 C613 1.429 . S
C619 C620 1.523 . S
C620 C601 1.368 . S
C620 C614 1.368 . S
C620 C619 1.523 . S
C621 C605 1.429 . S
C621 C617 1.429 . S
C621 C622 1.523 . S
C622 C606 1.368 . S
C622 C618 1.368 . S
C622 C621 1.523 . S
H623 C598 0.950 . S
H624 C600 0.950 . S
H625 C601 0.949 . S
H626 C603 0.950 . S
H627 C605 0.950 . S
C628 C629 1.349 . S
C628 C630 1.327 . S
C628 H653 0.950 . S
C629 C628 1.349 . S
C629 C645 1.349 . S
C630 C628 1.327 . S
C630 C649 1.429 . S
C630 H654 0.950 . S
C631 C648 1.574 . S
C631 C650 1.368 . S
C631 H655 0.949 . S
H632 C636 0.949 . S
C633 C634 1.349 . S
C633 C635 1.327 . S
C633 H656 0.950 . S
C634 C633 1.349 . S
C634 C646 1.349 . S
C635 C633 1.327 . S
C635 C651 1.429 . S
C635 H657 0.950 . S
C636 H632 0.949 . S
C636 C644 1.574 . S
C636 C652 1.368 . S
H637 C645 0.950 . S
H638 C643 0.950 . S
H639 C644 0.949 . S
H640 C646 0.950 . S
H641 C647 0.950 . S
H642 C648 0.949 . S
C643 H638 0.950 . S
C643 C645 1.327 . S
C643 C649 1.429 . S
C644 C636 1.574 . S
C644 H639 0.949 . S
C644 C650 1.368 . S
C645 C629 1.349 . S
C645 H637 0.950 . S
C645 C643 1.327 . S
C646 C634 1.349 . S
C646 H640 0.950 . S
C646 C647 1.327 . S
C647 H641 0.950 . S
C647 C646 1.327 . S
C647 C651 1.429 . S
C648 C631 1.574 . S
C648 H642 0.949 . S
C648 C652 1.368 . S
C649 C630 1.429 . S
C649 C643 1.429 . S
C649 C650 1.523 . S
C650 C631 1.368 . S
C650 C644 1.368 . S
C650 C649 1.523 . S
C651 C635 1.429 . S
C651 C647 1.429 . S
C651 C652 1.523 . S
C652 C636 1.368 . S
C652 C648 1.368 . S
C652 C651 1.523 . S
H653 C628 0.950 . S
H654 C630 0.950 . S
H655 C631 0.949 . S
H656 C633 0.950 . S
H657 C635 0.950 . S
C658 C659 1.349 . S
C658 C660 1.327 . S
C658 H683 0.950 . S
C659 C658 1.349 . S
C659 C675 1.349 . S
C660 C658 1.327 . S
C660 C679 1.429 . S
C660 H684 0.950 . S
C661 C678 1.574 . S
C661 C680 1.368 . S
C661 H685 0.949 . S
H662 C666 0.949 . S
C663 C664 1.349 . S
C663 C665 1.318 1_655 S
C663 H686 0.950 . S
C664 C663 1.349 . S
C664 C676 1.349 1_655 S
C665 C663 1.318 1_455 S
C665 C681 1.438 . S
C665 H687 0.945 1_455 S
C666 H662 0.949 . S
C666 C674 1.574 . S
C666 C682 1.368 . S
H667 C675 0.950 . S
H668 C673 0.950 . S
H669 C674 0.949 . S
H670 C676 0.950 . S
H671 C677 0.950 . S
H672 C678 0.949 . S
C673 H668 0.950 . S
C673 C675 1.327 . S
C673 C679 1.429 . S
C674 C666 1.574 . S
C674 H669 0.949 . S
C674 C680 1.368 . S
C675 C659 1.349 . S
C675 H667 0.950 . S
C675 C673 1.327 . S
C676 C664 1.349 1_455 S
C676 H670 0.950 . S
C676 C677 1.327 . S
C677 H671 0.950 . S
C677 C676 1.327 . S
C677 C681 1.429 . S
C678 C661 1.574 . S
C678 H672 0.949 . S
C678 C682 1.368 . S
C679 C660 1.429 . S
C679 C673 1.429 . S
C679 C680 1.523 . S
C680 C661 1.368 . S
C680 C674 1.368 . S
C680 C679 1.523 . S
C681 C665 1.438 . S
C681 C677 1.429 . S
C681 C682 1.523 . S
C682 C666 1.368 . S
C682 C678 1.368 . S
C682 C681 1.523 . S
H683 C658 0.950 . S
H684 C660 0.950 . S
H685 C661 0.949 . S
H686 C663 0.950 . S
H687 C665 0.945 1_655 S
C688 C689 1.349 . S
C688 C690 1.327 . S
C688 H713 0.950 . S
C689 C688 1.349 . S
C689 C705 1.349 . S
C690 C688 1.327 . S
C690 C709 1.429 . S
C690 H714 0.950 . S
C691 C708 1.574 . S
C691 C710 1.368 . S
C691 H715 0.949 . S
H692 C696 0.949 . S
C693 C694 1.349 . S
C693 C695 1.327 . S
C693 H716 0.950 . S
C694 C693 1.349 . S
C694 C706 1.349 . S
C695 C693 1.327 . S
C695 C711 1.429 . S
C695 H717 0.950 . S
C696 H692 0.949 . S
C696 C704 1.574 . S
C696 C712 1.368 . S
H697 C705 0.950 . S
H698 C703 0.950 . S
H699 C704 0.949 . S
H700 C706 0.950 . S
H701 C707 0.950 . S
H702 C708 0.949 . S
C703 H698 0.950 . S
C703 C705 1.327 . S
C703 C709 1.429 . S
C704 C696 1.574 . S
C704 H699 0.949 . S
C704 C710 1.368 . S
C705 C689 1.349 . S
C705 H697 0.950 . S
C705 C703 1.327 . S
C706 C694 1.349 . S
C706 H700 0.950 . S
C706 C707 1.327 . S
C707 H701 0.950 . S
C707 C706 1.327 . S
C707 C711 1.429 . S
C708 C691 1.574 . S
C708 H702 0.949 . S
C708 C712 1.368 . S
C709 C690 1.429 . S
C709 C703 1.429 . S
C709 C710 1.523 . S
C710 C691 1.368 . S
C710 C704 1.368 . S
C710 C709 1.523 . S
C711 C695 1.429 . S
C711 C707 1.429 . S
C711 C712 1.523 . S
C712 C696 1.368 . S
C712 C708 1.368 . S
C712 C711 1.523 . S
H713 C688 0.950 . S
H714 C690 0.950 . S
H715 C691 0.949 . S
H716 C693 0.950 . S
H717 C695 0.950 . S
C718 C719 1.349 . S
C718 C720 1.327 1_455 S
C718 H743 0.950 . S
C719 C718 1.349 . S
C719 C735 1.375 . S
C720 C718 1.327 1_655 S
C720 C739 1.429 . S
C720 H744 0.950 . S
C721 C738 1.574 . S
C721 C740 1.368 . S
C721 H745 0.949 . S
H722 C726 0.949 . S
C723 C724 1.349 . S
C723 C725 1.327 . S
C723 H746 0.950 . S
C724 C723 1.349 . S
C724 C736 1.349 . S
C725 C723 1.327 . S
C725 C741 1.429 . S
C725 H747 0.950 . S
C726 H722 0.949 . S
C726 C734 1.574 . S
C726 C742 1.368 . S
H727 C735 0.956 . S
H728 C733 0.950 . S
H729 C734 0.949 . S
H730 C736 0.950 . S
H731 C737 0.950 . S
H732 C738 0.949 . S
C733 H728 0.950 . S
C733 C735 1.296 1_655 S
C733 C739 1.429 . S
C734 C726 1.574 . S
C734 H729 0.949 . S
C734 C740 1.368 . S
C735 C719 1.375 . S
C735 H727 0.956 . S
C735 C733 1.296 1_455 S
C736 C724 1.349 . S
C736 H730 0.950 . S
C736 C737 1.327 . S
C737 H731 0.950 . S
C737 C736 1.327 . S
C737 C741 1.429 . S
C738 C721 1.574 . S
C738 H732 0.949 . S
C738 C742 1.368 . S
C739 C720 1.429 . S
C739 C733 1.429 . S
C739 C740 1.523 . S
C740 C721 1.368 . S
C740 C734 1.368 . S
C740 C739 1.523 . S
C741 C725 1.429 . S
C741 C737 1.429 . S
C741 C742 1.523 . S
C742 C726 1.368 . S
C742 C738 1.368 . S
C742 C741 1.523 . S
H743 C718 0.950 . S
H744 C720 0.950 . S
H745 C721 0.949 . S
H746 C723 0.950 . S
H747 C725 0.950 . S
C748 C749 1.349 . S
C748 C750 1.327 . S
C748 H773 0.950 . S
C749 C748 1.349 . S
C749 C765 1.349 . S
C750 C748 1.327 . S
C750 C769 1.429 . S
C750 H774 0.950 . S
C751 C768 1.574 . S
C751 C770 1.368 . S
C751 H775 0.949 . S
H752 C756 0.949 . S
C753 C754 1.349 . S
C753 C755 1.327 . S
C753 H776 0.950 . S
C754 C753 1.349 . S
C754 C766 1.349 . S
C755 C753 1.327 . S
C755 C771 1.429 . S
C755 H777 0.950 . S
C756 H752 0.949 . S
C756 C764 1.574 . S
C756 C772 1.368 . S
H757 C765 0.950 . S
H758 C763 0.950 . S
H759 C764 0.949 . S
H760 C766 0.950 . S
H761 C767 0.950 . S
H762 C768 0.949 . S
C763 H758 0.950 . S
C763 C765 1.327 . S
C763 C769 1.429 . S
C764 C756 1.574 . S
C764 H759 0.949 . S
C764 C770 1.368 . S
C765 C749 1.349 . S
C765 H757 0.950 . S
C765 C763 1.327 . S
C766 C754 1.349 . S
C766 H760 0.950 . S
C766 C767 1.327 . S
C767 H761 0.950 . S
C767 C766 1.327 . S
C767 C771 1.429 . S
C768 C751 1.574 . S
C768 H762 0.949 . S
C768 C772 1.368 . S
C769 C750 1.429 . S
C769 C763 1.429 . S
C769 C770 1.523 . S
C770 C751 1.368 . S
C770 C764 1.368 . S
C770 C769 1.523 . S
C771 C755 1.429 . S
C771 C767 1.429 . S
C771 C772 1.523 . S
C772 C756 1.368 . S
C772 C768 1.368 . S
C772 C771 1.523 . S
H773 C748 0.950 . S
H774 C750 0.950 . S
H775 C751 0.949 . S
H776 C753 0.950 . S
H777 C755 0.950 . S
C778 C779 1.349 . S
C778 C780 1.327 . S
C778 H803 0.950 . S
C779 C778 1.349 . S
C779 C795 1.349 . S
C780 C778 1.327 . S
C780 C799 1.429 . S
C780 H804 0.950 . S
C781 C798 1.574 . S
C781 C800 1.368 . S
C781 H805 0.949 . S
H782 C786 0.949 . S
C783 C784 1.349 . S
C783 C785 1.327 . S
C783 H806 0.950 . S
C784 C783 1.349 . S
C784 C796 1.349 . S
C785 C783 1.327 . S
C785 C801 1.429 . S
C785 H807 0.950 . S
C786 H782 0.949 . S
C786 C794 1.574 . S
C786 C802 1.368 . S
H787 C795 0.950 . S
H788 C793 0.950 . S
H789 C794 0.949 . S
H790 C796 0.950 . S
H791 C797 0.950 . S
H792 C798 0.949 . S
C793 H788 0.950 . S
C793 C795 1.327 . S
C793 C799 1.429 . S
C794 C786 1.574 . S
C794 H789 0.949 . S
C794 C800 1.368 . S
C795 C779 1.349 . S
C795 H787 0.950 . S
C795 C793 1.327 . S
C796 C784 1.349 . S
C796 H790 0.950 . S
C796 C797 1.327 . S
C797 H791 0.950 . S
C797 C796 1.327 . S
C797 C801 1.429 . S
C798 C781 1.574 . S
C798 H792 0.949 . S
C798 C802 1.368 . S
C799 C780 1.429 . S
C799 C793 1.429 . S
C799 C800 1.523 . S
C800 C781 1.368 . S
C800 C794 1.368 . S
C800 C799 1.523 . S
C801 C785 1.429 . S
C801 C797 1.429 . S
C801 C802 1.523 . S
C802 C786 1.368 . S
C802 C798 1.368 . S
C802 C801 1.523 . S
H803 C778 0.950 . S
H804 C780 0.950 . S
H805 C781 0.949 . S
H806 C783 0.950 . S
H807 C785 0.950 . S
C808 C809 1.349 . S
C808 C810 1.327 . S
C808 H833 0.950 . S
C809 C808 1.349 . S
C809 C825 1.349 . S
C810 C808 1.327 . S
C810 C829 1.429 . S
C810 H834 0.950 . S
C811 C828 1.574 . S
C811 C830 1.368 . S
C811 H835 0.949 . S
H812 C816 0.949 . S
C813 C814 1.349 . S
C813 C815 1.327 . S
C813 H836 0.950 . S
C814 C813 1.349 . S
C814 C826 1.349 . S
C815 C813 1.327 . S
C815 C831 1.429 . S
C815 H837 0.950 . S
C816 H812 0.949 . S
C816 C824 1.574 . S
C816 C832 1.368 . S
H817 C825 0.950 . S
H818 C823 0.950 . S
H819 C824 0.949 . S
H820 C826 0.950 . S
H821 C827 0.950 . S
H822 C828 0.949 . S
C823 H818 0.950 . S
C823 C825 1.327 . S
C823 C829 1.429 . S
C824 C816 1.574 . S
C824 H819 0.949 . S
C824 C830 1.368 . S
C825 C809 1.349 . S
C825 H817 0.950 . S
C825 C823 1.327 . S
C826 C814 1.349 . S
C826 H820 0.950 . S
C826 C827 1.327 . S
C827 H821 0.950 . S
C827 C826 1.327 . S
C827 C831 1.429 . S
C828 C811 1.574 . S
C828 H822 0.949 . S
C828 C832 1.368 . S
C829 C810 1.429 . S
C829 C823 1.429 . S
C829 C830 1.523 . S
C830 C811 1.368 . S
C830 C824 1.368 . S
C830 C829 1.523 . S
C831 C815 1.429 . S
C831 C827 1.429 . S
C831 C832 1.523 . S
C832 C816 1.368 . S
C832 C828 1.368 . S
C832 C831 1.523 . S
H833 C808 0.950 . S
H834 C810 0.950 . S
H835 C811 0.949 . S
H836 C813 0.950 . S
H837 C815 0.950 . S
C838 C839 1.349 . S
C838 C840 1.327 . S
C838 H863 0.950 . S
C839 C838 1.349 . S
C839 C855 1.349 . S
C840 C838 1.327 . S
C840 C859 1.429 . S
C840 H864 0.950 . S
C841 C858 1.574 . S
C841 C860 1.368 . S
C841 H865 0.949 . S
H842 C846 0.949 . S
C843 C844 1.349 . S
C843 C845 1.327 . S
C843 H866 0.950 . S
C844 C843 1.349 . S
C844 C856 1.349 . S
C845 C843 1.327 . S
C845 C861 1.429 . S
C845 H867 0.950 . S
C846 H842 0.949 . S
C846 C854 1.574 . S
C846 C862 1.368 . S
H847 C855 0.950 . S
H848 C853 0.950 . S
H849 C854 0.949 . S
H850 C856 0.950 . S
H851 C857 0.950 . S
H852 C858 0.949 . S
C853 H848 0.950 . S
C853 C855 1.327 . S
C853 C859 1.429 . S
C854 C846 1.574 . S
C854 H849 0.949 . S
C854 C860 1.368 . S
C855 C839 1.349 . S
C855 H847 0.950 . S
C855 C853 1.327 . S
C856 C844 1.349 . S
C856 H850 0.950 . S
C856 C857 1.327 . S
C857 H851 0.950 . S
C857 C856 1.327 . S
C857 C861 1.429 . S
C858 C841 1.574 . S
C858 H852 0.949 . S
C858 C862 1.368 . S
C859 C840 1.429 . S
C859 C853 1.429 . S
C859 C860 1.523 . S
C860 C841 1.368 . S
C860 C854 1.368 . S
C860 C859 1.523 . S
C861 C845 1.429 . S
C861 C857 1.429 . S
C861 C862 1.523 . S
C862 C846 1.368 . S
C862 C858 1.368 . S
C862 C861 1.523 . S
H863 C838 0.950 . S
H864 C840 0.950 . S
H865 C841 0.949 . S
H866 C843 0.950 . S
H867 C845 0.950 . S
C868 C869 1.349 . S
C868 C870 1.327 . S
C868 H893 0.950 . S
C869 C868 1.349 . S
C869 C885 1.349 . S
C870 C868 1.327 . S
C870 C889 1.429 . S
C870 H894 0.950 . S
C871 C888 1.574 . S
C871 C890 1.368 . S
C871 H895 0.949 . S
H872 C876 0.949 . S
C873 C874 1.349 . S
C873 C875 1.327 . S
C873 H896 0.950 . S
C874 C873 1.349 . S
C874 C886 1.349 . S
C875 C873 1.327 . S
C875 C891 1.429 . S
C875 H897 0.950 . S
C876 H872 0.949 . S
C876 C884 1.574 . S
C876 C892 1.368 . S
H877 C885 0.950 . S
H878 C883 0.950 . S
H879 C884 0.949 . S
H880 C886 0.950 . S
H881 C887 0.950 . S
H882 C888 0.949 . S
C883 H878 0.950 . S
C883 C885 1.327 . S
C883 C889 1.429 . S
C884 C876 1.574 . S
C884 H879 0.949 . S
C884 C890 1.368 . S
C885 C869 1.349 . S
C885 H877 0.950 . S
C885 C883 1.327 . S
C886 C874 1.349 . S
C886 H880 0.950 . S
C886 C887 1.327 . S
C887 H881 0.950 . S
C887 C886 1.327 . S
C887 C891 1.429 . S
C888 C871 1.574 . S
C888 H882 0.949 . S
C888 C892 1.368 . S
C889 C870 1.429 . S
C889 C883 1.429 . S
C889 C890 1.523 . S
C890 C871 1.368 . S
C890 C884 1.368 . S
C890 C889 1.523 . S
C891 C875 1.429 . S
C891 C887 1.429 . S
C891 C892 1.523 . S
C892 C876 1.368 . S
C892 C888 1.368 . S
C892 C891 1.523 . S
H893 C868 0.950 . S
H894 C870 0.950 . S
H895 C871 0.949 . S
H896 C873 0.950 . S
H897 C875 0.950 . S
C898 C899 1.349 . S
C898 C900 1.327 . S
C898 H923 0.950 . S
C899 C898 1.349 . S
C899 C915 1.349 . S
C900 C898 1.327 . S
C900 C919 1.429 . S
C900 H924 0.950 . S
C901 C918 1.574 . S
C901 C920 1.368 . S
C901 H925 0.949 . S
H902 C906 0.949 . S
C903 C904 1.349 . S
C903 C905 1.327 1_455 S
C903 H926 0.950 . S
C904 C903 1.349 . S
C904 C916 1.322 1_455 S
C905 C903 1.327 1_655 S
C905 C921 1.429 . S
C905 H927 0.950 . S
C906 H902 0.949 . S
C906 C914 1.574 . S
C906 C922 1.368 . S
H907 C915 0.950 . S
H908 C913 0.950 . S
H909 C914 0.949 . S
H910 C916 0.947 1_455 S
H911 C917 0.950 . S
H912 C918 0.949 . S
C913 H908 0.950 . S
C913 C915 1.327 . S
C913 C919 1.429 . S
C914 C906 1.574 . S
C914 H909 0.949 . S
C914 C920 1.368 . S
C915 C899 1.349 . S
C915 H907 0.950 . S
C915 C913 1.327 . S
C916 C904 1.322 1_655 S
C916 H910 0.947 1_655 S
C916 C917 1.358 . S
C917 H911 0.950 . S
C917 C916 1.358 . S
C917 C921 1.429 . S
C918 C901 1.574 . S
C918 H912 0.949 . S
C918 C922 1.368 . S
C919 C900 1.429 . S
C919 C913 1.429 . S
C919 C920 1.523 . S
C920 C901 1.368 . S
C920 C914 1.368 . S
C920 C919 1.523 . S
C921 C905 1.429 . S
C921 C917 1.429 . S
C921 C922 1.523 . S
C922 C906 1.368 . S
C922 C918 1.368 . S
C922 C921 1.523 . S
H923 C898 0.950 . S
H924 C900 0.950 . S
H925 C901 0.949 . S
H926 C903 0.950 . S
H927 C905 0.950 . S
C928 C929 1.349 . S
C928 C930 1.327 . S
C928 H953 0.950 . S
C929 C928 1.349 . S
C929 C945 1.349 . S
C930 C928 1.327 . S
C930 C949 1.429 . S
C930 H954 0.950 . S
C931 C948 1.574 . S
C931 C950 1.368 . S
C931 H955 0.949 . S
H932 C936 0.949 . S
C933 C934 1.349 . S
C933 C935 1.327 . S
C933 H956 0.950 . S
C934 C933 1.349 . S
C934 C946 1.349 . S
C935 C933 1.327 . S
C935 C951 1.429 . S
C935 H957 0.950 . S
C936 H932 0.949 . S
C936 C944 1.574 . S
C936 C952 1.368 . S
H937 C945 0.950 . S
H938 C943 0.950 . S
H939 C944 0.949 . S
H940 C946 0.950 . S
H941 C947 0.950 . S
H942 C948 0.949 . S
C943 H938 0.950 . S
C943 C945 1.327 . S
C943 C949 1.429 . S
C944 C936 1.574 . S
C944 H939 0.949 . S
C944 C950 1.368 . S
C945 C929 1.349 . S
C945 H937 0.950 . S
C945 C943 1.327 . S
C946 C934 1.349 . S
C946 H940 0.950 . S
C946 C947 1.327 . S
C947 H941 0.950 . S
C947 C946 1.327 . S
C947 C951 1.429 . S
C948 C931 1.574 . S
C948 H942 0.949 . S
C948 C952 1.368 . S
C949 C930 1.429 . S
C949 C943 1.429 . S
C949 C950 1.523 . S
C950 C931 1.368 . S
C950 C944 1.368 . S
C950 C949 1.523 . S
C951 C935 1.429 . S
C951 C947 1.429 . S
C951 C952 1.523 . S
C952 C936 1.368 . S
C952 C948 1.368 . S
C952 C951 1.523 . S
H953 C928 0.950 . S
H954 C930 0.950 . S
H955 C931 0.949 . S
H956 C933 0.950 . S
H957 C935 0.950 . S
C958 C959 1.349 . S
C958 C960 1.327 . S
C958 H983 0.950 . S
C959 C958 1.349 . S
C959 C975 1.349 . S
C960 C958 1.327 . S
C960 C979 1.429 . S
C960 H984 0.950 . S
C961 C978 1.574 . S
C961 C980 1.368 . S
C961 H985 0.949 . S
H962 C966 0.949 . S
C963 C964 1.349 . S
C963 C965 1.327 . S
C963 H986 0.950 . S
C964 C963 1.349 . S
C964 C976 1.349 . S
C965 C963 1.327 . S
C965 C981 1.429 . S
C965 H987 0.950 . S
C966 H962 0.949 . S
C966 C974 1.574 . S
C966 C982 1.368 . S
H967 C975 0.950 . S
H968 C973 0.950 . S
H969 C974 0.949 . S
H970 C976 0.950 . S
H971 C977 0.950 . S
H972 C978 0.949 . S
C973 H968 0.950 . S
C973 C975 1.327 . S
C973 C979 1.429 . S
C974 C966 1.574 . S
C974 H969 0.949 . S
C974 C980 1.368 . S
C975 C959 1.349 . S
C975 H967 0.950 . S
C975 C973 1.327 . S
C976 C964 1.349 . S
C976 H970 0.950 . S
C976 C977 1.327 . S
C977 H971 0.950 . S
C977 C976 1.327 . S
C977 C981 1.429 . S
C978 C961 1.574 . S
C978 H972 0.949 . S
C978 C982 1.368 . S
C979 C960 1.429 . S
C979 C973 1.429 . S
C979 C980 1.523 . S
C980 C961 1.368 . S
C980 C974 1.368 . S
C980 C979 1.523 . S
C981 C965 1.429 . S
C981 C977 1.429 . S
C981 C982 1.523 . S
C982 C966 1.368 . S
C982 C978 1.368 . S
C982 C981 1.523 . S
H983 C958 0.950 . S
H984 C960 0.950 . S
H985 C961 0.949 . S
H986 C963 0.950 . S
H987 C965 0.950 . S
C988 C989 1.349 . S
C988 C990 1.327 . S
C988 H1013 0.950 . S
C989 C988 1.349 . S
C989 C1005 1.349 . S
C990 C988 1.327 . S
C990 C1009 1.429 . S
C990 H1014 0.950 . S
C991 C1008 1.574 . S
C991 C1010 1.368 . S
C991 H1015 0.949 . S
H992 C996 0.949 . S
C993 C994 1.349 . S
C993 C995 1.327 . S
C993 H1016 0.950 . S
C994 C993 1.349 . S
C994 C1006 1.349 . S
C995 C993 1.327 . S
C995 C1011 1.429 . S
C995 H1017 0.950 . S
C996 H992 0.949 . S
C996 C1004 1.574 . S
C996 C1012 1.368 . S
H997 C1005 0.950 . S
H998 C1003 0.950 . S
H999 C1004 0.949 . S
H1000 C1006 0.950 . S
H1001 C1007 0.950 . S
H1002 C1008 0.949 . S
C1003 H998 0.950 . S
C1003 C1005 1.327 . S
C1003 C1009 1.429 . S
C1004 C996 1.574 . S
C1004 H999 0.949 . S
C1004 C1010 1.368 . S
C1005 C989 1.349 . S
C1005 H997 0.950 . S
C1005 C1003 1.327 . S
C1006 C994 1.349 . S
C1006 H1000 0.950 . S
C1006 C1007 1.327 . S
C1007 H1001 0.950 . S
C1007 C1006 1.327 . S
C1007 C1011 1.429 . S
C1008 C991 1.574 . S
C1008 H1002 0.949 . S
C1008 C1012 1.368 . S
C1009 C990 1.429 . S
C1009 C1003 1.429 . S
C1009 C1010 1.523 . S
C1010 C991 1.368 . S
C1010 C1004 1.368 . S
C1010 C1009 1.523 . S
C1011 C995 1.429 . S
C1011 C1007 1.429 . S
C1011 C1012 1.523 . S
C1012 C996 1.368 . S
C1012 C1008 1.368 . S
C1012 C1011 1.523 . S
H1013 C988 0.950 . S
H1014 C990 0.950 . S
H1015 C991 0.949 . S
H1016 C993 0.950 . S
H1017 C995 0.950 . S
C1018 C1019 1.349 . S
C1018 C1020 1.327 . S
C1018 H1043 0.950 . S
C1019 C1018 1.349 . S
C1019 C1035 1.349 . S
C1020 C1018 1.327 . S
C1020 C1039 1.429 . S
C1020 H1044 0.950 . S
C1021 C1038 1.574 . S
C1021 C1040 1.368 . S
C1021 H1045 0.949 . S
H1022 C1026 0.949 . S
C1023 C1024 1.349 . S
C1023 C1025 1.327 1_455 S
C1023 H1046 0.950 . S
C1024 C1023 1.349 . S
C1024 C1036 1.349 . S
C1025 C1023 1.327 1_655 S
C1025 C1041 1.429 . S
C1025 H1047 0.950 . S
C1026 H1022 0.949 . S
C1026 C1034 1.574 . S
C1026 C1042 1.368 . S
H1027 C1035 0.950 . S
H1028 C1033 0.950 . S
H1029 C1034 0.949 . S
H1030 C1036 0.950 . S
H1031 C1037 0.950 . S
H1032 C1038 0.949 . S
C1033 H1028 0.950 . S
C1033 C1035 1.327 . S
C1033 C1039 1.429 . S
C1034 C1026 1.574 . S
C1034 H1029 0.949 . S
C1034 C1040 1.368 . S
C1035 C1019 1.349 . S
C1035 H1027 0.950 . S
C1035 C1033 1.327 . S
C1036 C1024 1.349 . S
C1036 H1030 0.950 . S
C1036 C1037 1.327 1_455 S
C1037 H1031 0.950 . S
C1037 C1036 1.327 1_655 S
C1037 C1041 1.429 . S
C1038 C1021 1.574 . S
C1038 H1032 0.949 . S
C1038 C1042 1.368 . S
C1039 C1020 1.429 . S
C1039 C1033 1.429 . S
C1039 C1040 1.523 . S
C1040 C1021 1.368 . S
C1040 C1034 1.368 . S
C1040 C1039 1.523 . S
C1041 C1025 1.429 . S
C1041 C1037 1.429 . S
C1041 C1042 1.523 . S
C1042 C1026 1.368 . S
C1042 C1038 1.368 . S
C1042 C1041 1.523 . S
H1043 C1018 0.950 . S
H1044 C1020 0.950 . S
H1045 C1021 0.949 . S
H1046 C1023 0.950 . S
H1047 C1025 0.950 . S
C1048 C1049 1.349 . S
C1048 C1050 1.327 . S
C1048 H1073 0.950 . S
C1049 C1048 1.349 . S
C1049 C1065 1.349 . S
C1050 C1048 1.327 . S
C1050 C1069 1.429 . S
C1050 H1074 0.950 . S
C1051 C1068 1.574 . S
C1051 C1070 1.368 . S
C1051 H1075 0.949 . S
H1052 C1056 0.949 . S
C1053 C1054 1.349 . S
C1053 C1055 1.327 . S
C1053 H1076 0.950 . S
C1054 C1053 1.349 . S
C1054 C1066 1.349 . S
C1055 C1053 1.327 . S
C1055 C1071 1.429 . S
C1055 H1077 0.950 . S
C1056 H1052 0.949 . S
C1056 C1064 1.574 . S
C1056 C1072 1.368 . S
H1057 C1065 0.950 . S
H1058 C1063 0.950 . S
H1059 C1064 0.949 . S
H1060 C1066 0.950 . S
H1061 C1067 0.950 . S
H1062 C1068 0.949 . S
C1063 H1058 0.950 . S
C1063 C1065 1.327 . S
C1063 C1069 1.429 . S
C1064 C1056 1.574 . S
C1064 H1059 0.949 . S
C1064 C1070 1.368 . S
C1065 C1049 1.349 . S
C1065 H1057 0.950 . S
C1065 C1063 1.327 . S
C1066 C1054 1.349 . S
C1066 H1060 0.950 . S
C1066 C1067 1.327 . S
C1067 H1061 0.950 . S
C1067 C1066 1.327 . S
C1067 C1071 1.429 . S
C1068 C1051 1.574 . S
C1068 H1062 0.949 . S
C1068 C1072 1.368 . S
C1069 C1050 1.429 . S
C1069 C1063 1.429 . S
C1069 C1070 1.523 . S
C1070 C1051 1.368 . S
C1070 C1064 1.368 . S
C1070 C1069 1.523 . S
C1071 C1055 1.429 . S
C1071 C1067 1.429 . S
C1071 C1072 1.523 . S
C1072 C1056 1.368 . S
C1072 C1068 1.368 . S
C1072 C1071 1.523 . S
H1073 C1048 0.950 . S
H1074 C1050 0.950 . S
H1075 C1051 0.949 . S
H1076 C1053 0.950 . S
H1077 C1055 0.950 . S
C1078 C1079 1.349 . S
C1078 C1080 1.327 1_455 S
C1078 H1103 0.950 . S
C1079 C1078 1.349 . S
C1079 C1095 1.349 . S
C1080 C1078 1.327 1_655 S
C1080 C1099 1.429 . S
C1080 H1104 0.950 . S
C1081 C1098 1.574 . S
C1081 C1100 1.368 . S
C1081 H1105 0.949 . S
H1082 C1086 0.949 . S
C1083 C1084 1.349 . S
C1083 C1085 1.327 . S
C1083 H1106 0.950 . S
C1084 C1083 1.349 . S
C1084 C1096 1.349 . S
C1085 C1083 1.327 . S
C1085 C1101 1.429 . S
C1085 H1107 0.950 . S
C1086 H1082 0.949 . S
C1086 C1094 1.574 . S
C1086 C1102 1.368 . S
H1087 C1095 0.950 . S
H1088 C1093 0.950 . S
H1089 C1094 0.949 . S
H1090 C1096 0.950 . S
H1091 C1097 0.950 . S
H1092 C1098 0.949 . S
C1093 H1088 0.950 . S
C1093 C1095 1.327 1_655 S
C1093 C1099 1.429 . S
C1094 C1086 1.574 . S
C1094 H1089 0.949 . S
C1094 C1100 1.368 . S
C1095 C1079 1.349 . S
C1095 H1087 0.950 . S
C1095 C1093 1.327 1_455 S
C1096 C1084 1.349 . S
C1096 H1090 0.950 . S
C1096 C1097 1.327 . S
C1097 H1091 0.950 . S
C1097 C1096 1.327 . S
C1097 C1101 1.429 . S
C1098 C1081 1.574 . S
C1098 H1092 0.949 . S
C1098 C1102 1.368 . S
C1099 C1080 1.429 . S
C1099 C1093 1.429 . S
C1099 C1100 1.523 . S
C1100 C1081 1.368 . S
C1100 C1094 1.368 . S
C1100 C1099 1.523 . S
C1101 C1085 1.429 . S
C1101 C1097 1.429 . S
C1101 C1102 1.523 . S
C1102 C1086 1.368 . S
C1102 C1098 1.368 . S
C1102 C1101 1.523 . S
H1103 C1078 0.950 . S
H1104 C1080 0.950 . S
H1105 C1081 0.949 . S
H1106 C1083 0.950 . S
H1107 C1085 0.950 . S
C1108 C1109 1.349 . S
C1108 C1110 1.327 . S
C1108 H1133 0.950 . S
C1109 C1108 1.349 . S
C1109 C1125 1.349 . S
C1110 C1108 1.327 . S
C1110 C1129 1.429 . S
C1110 H1134 0.950 . S
C1111 C1128 1.574 . S
C1111 C1130 1.368 . S
C1111 H1135 0.949 . S
H1112 C1116 0.949 . S
C1113 C1114 1.349 . S
C1113 C1115 1.327 . S
C1113 H1136 0.950 . S
C1114 C1113 1.349 . S
C1114 C1126 1.349 . S
C1115 C1113 1.327 . S
C1115 C1131 1.429 . S
C1115 H1137 0.950 . S
C1116 H1112 0.949 . S
C1116 C1124 1.574 . S
C1116 C1132 1.368 . S
H1117 C1125 0.950 . S
H1118 C1123 0.950 . S
H1119 C1124 0.949 . S
H1120 C1126 0.950 . S
H1121 C1127 0.950 . S
H1122 C1128 0.949 . S
C1123 H1118 0.950 . S
C1123 C1125 1.327 . S
C1123 C1129 1.429 . S
C1124 C1116 1.574 . S
C1124 H1119 0.949 . S
C1124 C1130 1.368 . S
C1125 C1109 1.349 . S
C1125 H1117 0.950 . S
C1125 C1123 1.327 . S
C1126 C1114 1.349 . S
C1126 H1120 0.950 . S
C1126 C1127 1.327 . S
C1127 H1121 0.950 . S
C1127 C1126 1.327 . S
C1127 C1131 1.429 . S
C1128 C1111 1.574 . S
C1128 H1122 0.949 . S
C1128 C1132 1.368 . S
C1129 C1110 1.429 . S
C1129 C1123 1.429 . S
C1129 C1130 1.523 . S
C1130 C1111 1.368 . S
C1130 C1124 1.368 . S
C1130 C1129 1.523 . S
C1131 C1115 1.429 . S
C1131 C1127 1.429 . S
C1131 C1132 1.523 . S
C1132 C1116 1.368 . S
C1132 C1128 1.368 . S
C1132 C1131 1.523 . S
H1133 C1108 0.950 . S
H1134 C1110 0.950 . S
H1135 C1111 0.949 . S
H1136 C1113 0.950 . S
H1137 C1115 0.950 . S
C1138 C1139 1.349 . S
C1138 C1140 1.327 . S
C1138 H1163 0.950 . S
C1139 C1138 1.349 . S
C1139 C1155 1.349 . S
C1140 C1138 1.327 . S
C1140 C1159 1.429 . S
C1140 H1164 0.950 . S
C1141 C1158 1.574 . S
C1141 C1160 1.368 . S
C1141 H1165 0.949 . S
H1142 C1146 0.949 . S
C1143 C1144 1.349 . S
C1143 C1145 1.327 . S
C1143 H1166 0.950 . S
C1144 C1143 1.349 . S
C1144 C1156 1.349 . S
C1145 C1143 1.327 . S
C1145 C1161 1.429 . S
C1145 H1167 0.950 . S
C1146 H1142 0.949 . S
C1146 C1154 1.574 . S
C1146 C1162 1.368 . S
H1147 C1155 0.950 . S
H1148 C1153 0.950 . S
H1149 C1154 0.949 . S
H1150 C1156 0.950 . S
H1151 C1157 0.950 . S
H1152 C1158 0.949 . S
C1153 H1148 0.950 . S
C1153 C1155 1.327 . S
C1153 C1159 1.429 . S
C1154 C1146 1.574 . S
C1154 H1149 0.949 . S
C1154 C1160 1.368 . S
C1155 C1139 1.349 . S
C1155 H1147 0.950 . S
C1155 C1153 1.327 . S
C1156 C1144 1.349 . S
C1156 H1150 0.950 . S
C1156 C1157 1.327 . S
C1157 H1151 0.950 . S
C1157 C1156 1.327 . S
C1157 C1161 1.429 . S
C1158 C1141 1.574 . S
C1158 H1152 0.949 . S
C1158 C1162 1.368 . S
C1159 C1140 1.429 . S
C1159 C1153 1.429 . S
C1159 C1160 1.523 . S
C1160 C1141 1.368 . S
C1160 C1154 1.368 . S
C1160 C1159 1.523 . S
C1161 C1145 1.429 . S
C1161 C1157 1.429 . S
C1161 C1162 1.523 . S
C1162 C1146 1.368 . S
C1162 C1158 1.368 . S
C1162 C1161 1.523 . S
H1163 C1138 0.950 . S
H1164 C1140 0.950 . S
H1165 C1141 0.949 . S
H1166 C1143 0.950 . S
H1167 C1145 0.950 . S
C1168 C1169 1.349 . S
C1168 C1170 1.327 . S
C1168 H1193 0.950 . S
C1169 C1168 1.349 . S
C1169 C1185 1.349 . S
C1170 C1168 1.327 . S
C1170 C1189 1.429 . S
C1170 H1194 0.950 . S
C1171 C1188 1.574 . S
C1171 C1190 1.368 . S
C1171 H1195 0.949 . S
H1172 C1176 0.949 . S
C1173 C1174 1.349 . S
C1173 C1175 1.327 . S
C1173 H1196 0.950 . S
C1174 C1173 1.349 . S
C1174 C1186 1.349 . S
C1175 C1173 1.327 . S
C1175 C1191 1.429 . S
C1175 H1197 0.950 . S
C1176 H1172 0.949 . S
C1176 C1184 1.574 . S
C1176 C1192 1.368 . S
H1177 C1185 0.950 . S
H1178 C1183 0.950 . S
H1179 C1184 0.949 . S
H1180 C1186 0.950 . S
H1181 C1187 0.950 . S
H1182 C1188 0.949 . S
C1183 H1178 0.950 . S
C1183 C1185 1.327 . S
C1183 C1189 1.429 . S
C1184 C1176 1.574 . S
C1184 H1179 0.949 . S
C1184 C1190 1.368 . S
C1185 C1169 1.349 . S
C1185 H1177 0.950 . S
C1185 C1183 1.327 . S
C1186 C1174 1.349 . S
C1186 H1180 0.950 . S
C1186 C1187 1.327 . S
C1187 H1181 0.950 . S
C1187 C1186 1.327 . S
C1187 C1191 1.429 . S
C1188 C1171 1.574 . S
C1188 H1182 0.949 . S
C1188 C1192 1.368 . S
C1189 C1170 1.429 . S
C1189 C1183 1.429 . S
C1189 C1190 1.523 . S
C1190 C1171 1.368 . S
C1190 C1184 1.368 . S
C1190 C1189 1.523 . S
C1191 C1175 1.429 . S
C1191 C1187 1.429 . S
C1191 C1192 1.523 . S
C1192 C1176 1.368 . S
C1192 C1188 1.368 . S
C1192 C1191 1.523 . S
H1193 C1168 0.950 . S
H1194 C1170 0.950 . S
H1195 C1171 0.949 . S
H1196 C1173 0.950 . S
H1197 C1175 0.950 . S
C1198 C1199 1.349 . S
C1198 C1200 1.327 . S
C1198 H1223 0.950 . S
C1199 C1198 1.349 . S
C1199 C1215 1.349 . S
C1200 C1198 1.327 . S
C1200 C1219 1.429 . S
C1200 H1224 0.950 . S
C1201 C1218 1.574 . S
C1201 C1220 1.368 . S
C1201 H1225 0.949 . S
H1202 C1206 0.949 . S
C1203 C1204 1.349 . S
C1203 C1205 1.327 . S
C1203 H1226 0.950 . S
C1204 C1203 1.349 . S
C1204 C1216 1.349 . S
C1205 C1203 1.327 . S
C1205 C1221 1.429 . S
C1205 H1227 0.950 . S
C1206 H1202 0.949 . S
C1206 C1214 1.574 . S
C1206 C1222 1.368 . S
H1207 C1215 0.950 . S
H1208 C1213 0.950 . S
H1209 C1214 0.949 . S
H1210 C1216 0.950 . S
H1211 C1217 0.950 . S
H1212 C1218 0.949 . S
C1213 H1208 0.950 . S
C1213 C1215 1.327 . S
C1213 C1219 1.429 . S
C1214 C1206 1.574 . S
C1214 H1209 0.949 . S
C1214 C1220 1.368 . S
C1215 C1199 1.349 . S
C1215 H1207 0.950 . S
C1215 C1213 1.327 . S
C1216 C1204 1.349 . S
C1216 H1210 0.950 . S
C1216 C1217 1.327 . S
C1217 H1211 0.950 . S
C1217 C1216 1.327 . S
C1217 C1221 1.429 . S
C1218 C1201 1.574 . S
C1218 H1212 0.949 . S
C1218 C1222 1.368 . S
C1219 C1200 1.429 . S
C1219 C1213 1.429 . S
C1219 C1220 1.523 . S
C1220 C1201 1.368 . S
C1220 C1214 1.368 . S
C1220 C1219 1.523 . S
C1221 C1205 1.429 . S
C1221 C1217 1.429 . S
C1221 C1222 1.523 . S
C1222 C1206 1.368 . S
C1222 C1218 1.368 . S
C1222 C1221 1.523 . S
H1223 C1198 0.950 . S
H1224 C1200 0.950 . S
H1225 C1201 0.949 . S
H1226 C1203 0.950 . S
H1227 C1205 0.950 . S
C1228 C1229 1.349 . S
C1228 C1230 1.327 . S
C1228 H1253 0.950 . S
C1229 C1228 1.349 . S
C1229 C1245 1.349 . S
C1230 C1228 1.327 . S
C1230 C1249 1.429 . S
C1230 H1254 0.950 . S
C1231 C1248 1.574 . S
C1231 C1250 1.368 . S
C1231 H1255 0.949 . S
H1232 C1236 0.949 . S
C1233 C1234 1.349 . S
C1233 C1235 1.327 . S
C1233 H1256 0.950 . S
C1234 C1233 1.349 . S
C1234 C1246 1.349 . S
C1235 C1233 1.327 . S
C1235 C1251 1.429 . S
C1235 H1257 0.950 . S
C1236 H1232 0.949 . S
C1236 C1244 1.574 . S
C1236 C1252 1.368 . S
H1237 C1245 0.950 . S
H1238 C1243 0.950 . S
H1239 C1244 0.949 . S
H1240 C1246 0.950 . S
H1241 C1247 0.950 . S
H1242 C1248 0.949 . S
C1243 H1238 0.950 . S
C1243 C1245 1.327 . S
C1243 C1249 1.429 . S
C1244 C1236 1.574 . S
C1244 H1239 0.949 . S
C1244 C1250 1.368 . S
C1245 C1229 1.349 . S
C1245 H1237 0.950 . S
C1245 C1243 1.327 . S
C1246 C1234 1.349 . S
C1246 H1240 0.950 . S
C1246 C1247 1.327 . S
C1247 H1241 0.950 . S
C1247 C1246 1.327 . S
C1247 C1251 1.429 . S
C1248 C1231 1.574 . S
C1248 H1242 0.949 . S
C1248 C1252 1.368 . S
C1249 C1230 1.429 . S
C1249 C1243 1.429 . S
C1249 C1250 1.523 . S
C1250 C1231 1.368 . S
C1250 C1244 1.368 . S
C1250 C1249 1.523 . S
C1251 C1235 1.429 . S
C1251 C1247 1.429 . S
C1251 C1252 1.523 . S
C1252 C1236 1.368 . S
C1252 C1248 1.368 . S
C1252 C1251 1.523 . S
H1253 C1228 0.950 . S
H1254 C1230 0.950 . S
H1255 C1231 0.949 . S
H1256 C1233 0.950 . S
H1257 C1235 0.950 . S
C1258 C1259 1.374 . S
C1258 C1260 1.297 1_655 S
C1258 H1283 0.955 . S
C1259 C1258 1.374 . S
C1259 C1275 1.349 . S
C1260 C1258 1.297 1_455 S
C1260 C1279 1.429 . S
C1260 H1284 0.950 . S
C1261 C1278 1.574 . S
C1261 C1280 1.368 . S
C1261 H1285 0.949 . S
H1262 C1266 0.949 . S
C1263 C1264 1.349 . S
C1263 C1265 1.327 . S
C1263 H1286 0.950 . S
C1264 C1263 1.349 . S
C1264 C1276 1.349 . S
C1265 C1263 1.327 . S
C1265 C1281 1.429 . S
C1265 H1287 0.950 . S
C1266 H1262 0.949 . S
C1266 C1274 1.574 . S
C1266 C1282 1.368 . S
H1267 C1275 0.950 . S
H1268 C1273 0.950 . S
H1269 C1274 0.949 . S
H1270 C1276 0.950 . S
H1271 C1277 0.950 . S
H1272 C1278 0.949 . S
C1273 H1268 0.950 . S
C1273 C1275 1.327 1_455 S
C1273 C1279 1.429 . S
C1274 C1266 1.574 . S
C1274 H1269 0.949 . S
C1274 C1280 1.368 . S
C1275 C1259 1.349 . S
C1275 H1267 0.950 . S
C1275 C1273 1.327 1_655 S
C1276 C1264 1.349 . S
C1276 H1270 0.950 . S
C1276 C1277 1.327 . S
C1277 H1271 0.950 . S
C1277 C1276 1.327 . S
C1277 C1281 1.429 . S
C1278 C1261 1.574 . S
C1278 H1272 0.949 . S
C1278 C1282 1.368 . S
C1279 C1260 1.429 . S
C1279 C1273 1.429 . S
C1279 C1280 1.523 . S
C1280 C1261 1.368 . S
C1280 C1274 1.368 . S
C1280 C1279 1.523 . S
C1281 C1265 1.429 . S
C1281 C1277 1.429 . S
C1281 C1282 1.523 . S
C1282 C1266 1.368 . S
C1282 C1278 1.368 . S
C1282 C1281 1.523 . S
H1283 C1258 0.955 . S
H1284 C1260 0.950 . S
H1285 C1261 0.949 . S
H1286 C1263 0.950 . S
H1287 C1265 0.950 . S
C1288 C1289 1.349 . S
C1288 C1290 1.327 . S
C1288 H1313 0.950 . S
C1289 C1288 1.349 . S
C1289 C1305 1.349 . S
C1290 C1288 1.327 . S
C1290 C1309 1.429 . S
C1290 H1314 0.950 . S
C1291 C1308 1.574 . S
C1291 C1310 1.368 . S
C1291 H1315 0.949 . S
H1292 C1296 0.949 . S
C1293 C1294 1.349 . S
C1293 C1295 1.327 . S
C1293 H1316 0.950 . S
C1294 C1293 1.349 . S
C1294 C1306 1.349 . S
C1295 C1293 1.327 . S
C1295 C1311 1.429 . S
C1295 H1317 0.950 . S
C1296 H1292 0.949 . S
C1296 C1304 1.574 . S
C1296 C1312 1.368 . S
H1297 C1305 0.950 . S
H1298 C1303 0.950 . S
H1299 C1304 0.949 . S
H1300 C1306 0.950 . S
H1301 C1307 0.950 . S
H1302 C1308 0.949 . S
C1303 H1298 0.950 . S
C1303 C1305 1.327 . S
C1303 C1309 1.429 . S
C1304 C1296 1.574 . S
C1304 H1299 0.949 . S
C1304 C1310 1.368 . S
C1305 C1289 1.349 . S
C1305 H1297 0.950 . S
C1305 C1303 1.327 . S
C1306 C1294 1.349 . S
C1306 H1300 0.950 . S
C1306 C1307 1.327 . S
C1307 H1301 0.950 . S
C1307 C1306 1.327 . S
C1307 C1311 1.429 . S
C1308 C1291 1.574 . S
C1308 H1302 0.949 . S
C1308 C1312 1.368 . S
C1309 C1290 1.429 . S
C1309 C1303 1.429 . S
C1309 C1310 1.523 . S
C1310 C1291 1.368 . S
C1310 C1304 1.368 . S
C1310 C1309 1.523 . S
C1311 C1295 1.429 . S
C1311 C1307 1.429 . S
C1311 C1312 1.523 . S
C1312 C1296 1.368 . S
C1312 C1308 1.368 . S
C1312 C1311 1.523 . S
H1313 C1288 0.950 . S
H1314 C1290 0.950 . S
H1315 C1291 0.949 . S
H1316 C1293 0.950 . S
H1317 C1295 0.950 . S
C1318 C1319 1.311 1_455 S
C1318 C1320 1.369 . S
C1318 H1343 0.948 1_455 S
C1319 C1318 1.311 1_655 S
C1319 C1335 1.349 . S
C1320 C1318 1.369 . S
C1320 C1339 1.429 . S
C1320 H1344 0.950 . S
C1321 C1338 1.574 . S
C1321 C1340 1.368 . S
C1321 H1345 0.949 . S
H1322 C1326 0.949 . S
C1323 C1324 1.349 . S
C1323 C1325 1.327 . S
C1323 H1346 0.950 . S
C1324 C1323 1.349 . S
C1324 C1336 1.349 . S
C1325 C1323 1.327 . S
C1325 C1341 1.429 . S
C1325 H1347 0.950 . S
C1326 H1322 0.949 . S
C1326 C1334 1.574 . S
C1326 C1342 1.368 . S
H1327 C1335 0.950 . S
H1328 C1333 0.950 . S
H1329 C1334 0.949 . S
H1330 C1336 0.950 . S
H1331 C1337 0.950 . S
H1332 C1338 0.949 . S
C1333 H1328 0.950 . S
C1333 C1335 1.327 1_455 S
C1333 C1339 1.429 . S
C1334 C1326 1.574 . S
C1334 H1329 0.949 . S
C1334 C1340 1.368 . S
C1335 C1319 1.349 . S
C1335 H1327 0.950 . S
C1335 C1333 1.327 1_655 S
C1336 C1324 1.349 . S
C1336 H1330 0.950 . S
C1336 C1337 1.327 . S
C1337 H1331 0.950 . S
C1337 C1336 1.327 . S
C1337 C1341 1.429 . S
C1338 C1321 1.574 . S
C1338 H1332 0.949 . S
C1338 C1342 1.368 . S
C1339 C1320 1.429 . S
C1339 C1333 1.429 . S
C1339 C1340 1.523 . S
C1340 C1321 1.368 . S
C1340 C1334 1.368 . S
C1340 C1339 1.523 . S
C1341 C1325 1.429 . S
C1341 C1337 1.429 . S
C1341 C1342 1.523 . S
C1342 C1326 1.368 . S
C1342 C1338 1.368 . S
C1342 C1341 1.523 . S
H1343 C1318 0.948 1_655 S
H1344 C1320 0.950 . S
H1345 C1321 0.949 . S
H1346 C1323 0.950 . S
H1347 C1325 0.950 . S
C1348 C1349 1.349 . S
C1348 C1350 1.327 . S
C1348 H1373 0.950 . S
C1349 C1348 1.349 . S
C1349 C1365 1.349 . S
C1350 C1348 1.327 . S
C1350 C1369 1.429 . S
C1350 H1374 0.950 . S
C1351 C1368 1.574 . S
C1351 C1370 1.368 . S
C1351 H1375 0.949 . S
H1352 C1356 0.949 . S
C1353 C1354 1.349 . S
C1353 C1355 1.327 . S
C1353 H1376 0.950 . S
C1354 C1353 1.349 . S
C1354 C1366 1.349 . S
C1355 C1353 1.327 . S
C1355 C1371 1.429 . S
C1355 H1377 0.950 . S
C1356 H1352 0.949 . S
C1356 C1364 1.574 . S
C1356 C1372 1.368 . S
H1357 C1365 0.950 . S
H1358 C1363 0.950 . S
H1359 C1364 0.949 . S
H1360 C1366 0.950 . S
H1361 C1367 0.950 . S
H1362 C1368 0.949 . S
C1363 H1358 0.950 . S
C1363 C1365 1.327 . S
C1363 C1369 1.429 . S
C1364 C1356 1.574 . S
C1364 H1359 0.949 . S
C1364 C1370 1.368 . S
C1365 C1349 1.349 . S
C1365 H1357 0.950 . S
C1365 C1363 1.327 . S
C1366 C1354 1.349 . S
C1366 H1360 0.950 . S
C1366 C1367 1.327 . S
C1367 H1361 0.950 . S
C1367 C1366 1.327 . S
C1367 C1371 1.429 . S
C1368 C1351 1.574 . S
C1368 H1362 0.949 . S
C1368 C1372 1.368 . S
C1369 C1350 1.429 . S
C1369 C1363 1.429 . S
C1369 C1370 1.523 . S
C1370 C1351 1.368 . S
C1370 C1364 1.368 . S
C1370 C1369 1.523 . S
C1371 C1355 1.429 . S
C1371 C1367 1.429 . S
C1371 C1372 1.523 . S
C1372 C1356 1.368 . S
C1372 C1368 1.368 . S
C1372 C1371 1.523 . S
H1373 C1348 0.950 . S
H1374 C1350 0.950 . S
H1375 C1351 0.949 . S
H1376 C1353 0.950 . S
H1377 C1355 0.950 . S
C1378 C1379 1.349 . S
C1378 C1380 1.327 . S
C1378 H1403 0.950 . S
C1379 C1378 1.349 . S
C1379 C1395 1.349 . S
C1380 C1378 1.327 . S
C1380 C1399 1.429 . S
C1380 H1404 0.950 . S
C1381 C1398 1.574 . S
C1381 C1400 1.368 . S
C1381 H1405 0.949 . S
H1382 C1386 0.949 . S
C1383 C1384 1.349 . S
C1383 C1385 1.327 . S
C1383 H1406 0.950 . S
C1384 C1383 1.349 . S
C1384 C1396 1.349 . S
C1385 C1383 1.327 . S
C1385 C1401 1.429 . S
C1385 H1407 0.950 . S
C1386 H1382 0.949 . S
C1386 C1394 1.574 . S
C1386 C1402 1.368 . S
H1387 C1395 0.950 . S
H1388 C1393 0.950 . S
H1389 C1394 0.949 . S
H1390 C1396 0.950 . S
H1391 C1397 0.950 . S
H1392 C1398 0.949 . S
C1393 H1388 0.950 . S
C1393 C1395 1.327 . S
C1393 C1399 1.429 . S
C1394 C1386 1.574 . S
C1394 H1389 0.949 . S
C1394 C1400 1.368 . S
C1395 C1379 1.349 . S
C1395 H1387 0.950 . S
C1395 C1393 1.327 . S
C1396 C1384 1.349 . S
C1396 H1390 0.950 . S
C1396 C1397 1.327 . S
C1397 H1391 0.950 . S
C1397 C1396 1.327 . S
C1397 C1401 1.429 . S
C1398 C1381 1.574 . S
C1398 H1392 0.949 . S
C1398 C1402 1.368 . S
C1399 C1380 1.429 . S
C1399 C1393 1.429 . S
C1399 C1400 1.523 . S
C1400 C1381 1.368 . S
C1400 C1394 1.368 . S
C1400 C1399 1.523 . S
C1401 C1385 1.429 . S
C1401 C1397 1.429 . S
C1401 C1402 1.523 . S
C1402 C1386 1.368 . S
C1402 C1398 1.368 . S
C1402 C1401 1.523 . S
H1403 C1378 0.950 . S
H1404 C1380 0.950 . S
H1405 C1381 0.949 . S
H1406 C1383 0.950 . S
H1407 C1385 0.950 . S
C1408 C1409 1.349 . S
C1408 C1410 1.327 . S
C1408 H1433 0.950 . S
C1409 C1408 1.349 . S
C1409 C1425 1.349 . S
C1410 C1408 1.327 . S
C1410 C1429 1.429 . S
C1410 H1434 0.950 . S
C1411 C1428 1.574 . S
C1411 C1430 1.368 . S
C1411 H1435 0.949 . S
H1412 C1416 0.949 . S
C1413 C1414 1.349 . S
C1413 C1415 1.327 . S
C1413 H1436 0.950 . S
C1414 C1413 1.349 . S
C1414 C1426 1.349 . S
C1415 C1413 1.327 . S
C1415 C1431 1.429 . S
C1415 H1437 0.950 . S
C1416 H1412 0.949 . S
C1416 C1424 1.574 . S
C1416 C1432 1.368 . S
H1417 C1425 0.950 . S
H1418 C1423 0.950 . S
H1419 C1424 0.949 . S
H1420 C1426 0.950 . S
H1421 C1427 0.950 . S
H1422 C1428 0.949 . S
C1423 H1418 0.950 . S
C1423 C1425 1.327 . S
C1423 C1429 1.429 . S
C1424 C1416 1.574 . S
C1424 H1419 0.949 . S
C1424 C1430 1.368 . S
C1425 C1409 1.349 . S
C1425 H1417 0.950 . S
C1425 C1423 1.327 . S
C1426 C1414 1.349 . S
C1426 H1420 0.950 . S
C1426 C1427 1.327 . S
C1427 H1421 0.950 . S
C1427 C1426 1.327 . S
C1427 C1431 1.429 . S
C1428 C1411 1.574 . S
C1428 H1422 0.949 . S
C1428 C1432 1.368 . S
C1429 C1410 1.429 . S
C1429 C1423 1.429 . S
C1429 C1430 1.523 . S
C1430 C1411 1.368 . S
C1430 C1424 1.368 . S
C1430 C1429 1.523 . S
C1431 C1415 1.429 . S
C1431 C1427 1.429 . S
C1431 C1432 1.523 . S
C1432 C1416 1.368 . S
C1432 C1428 1.368 . S
C1432 C1431 1.523 . S
H1433 C1408 0.950 . S
H1434 C1410 0.950 . S
H1435 C1411 0.949 . S
H1436 C1413 0.950 . S
H1437 C1415 0.950 . S
C1438 C1439 1.349 . S
C1438 C1440 1.327 . S
C1438 H1463 0.950 . S
C1439 C1438 1.349 . S
C1439 C1455 1.349 . S
C1440 C1438 1.327 . S
C1440 C1459 1.429 . S
C1440 H1464 0.950 . S
C1441 C1458 1.574 1_665 S
C1441 C1460 1.368 . S
C1441 H1465 0.949 . S
H1442 C1446 0.949 . S
C1443 C1444 1.349 . S
C1443 C1445 1.327 . S
C1443 H1466 0.950 . S
C1444 C1443 1.349 . S
C1444 C1456 1.349 . S
C1445 C1443 1.327 . S
C1445 C1461 1.429 . S
C1445 H1467 0.950 . S
C1446 H1442 0.949 . S
C1446 C1454 1.574 1_445 S
C1446 C1462 1.368 . S
H1447 C1455 0.950 . S
H1448 C1453 0.950 . S
H1449 C1454 0.949 . S
H1450 C1456 0.950 . S
H1451 C1457 0.950 . S
H1452 C1458 0.949 . S
C1453 H1448 0.950 . S
C1453 C1455 1.327 . S
C1453 C1459 1.429 . S
C1454 C1446 1.574 1_665 S
C1454 H1449 0.949 . S
C1454 C1460 1.368 . S
C1455 C1439 1.349 . S
C1455 H1447 0.950 . S
C1455 C1453 1.327 . S
C1456 C1444 1.349 . S
C1456 H1450 0.950 . S
C1456 C1457 1.327 . S
C1457 H1451 0.950 . S
C1457 C1456 1.327 . S
C1457 C1461 1.429 . S
C1458 C1441 1.574 1_445 S
C1458 H1452 0.949 . S
C1458 C1462 1.368 . S
C1459 C1440 1.429 . S
C1459 C1453 1.429 . S
C1459 C1460 1.523 . S
C1460 C1441 1.368 . S
C1460 C1454 1.368 . S
C1460 C1459 1.523 . S
C1461 C1445 1.429 . S
C1461 C1457 1.429 . S
C1461 C1462 1.523 . S
C1462 C1446 1.368 . S
C1462 C1458 1.368 . S
C1462 C1461 1.523 . S
H1463 C1438 0.950 . S
H1464 C1440 0.950 . S
H1465 C1441 0.949 . S
H1466 C1443 0.950 . S
H1467 C1445 0.950 . S
C1468 C1469 1.349 . S
C1468 C1470 1.327 . S
C1468 H1493 0.950 . S
C1469 C1468 1.349 . S
C1469 C1485 1.349 . S
C1470 C1468 1.327 . S
C1470 C1489 1.429 . S
C1470 H1494 0.950 . S
C1471 C1488 1.574 . S
C1471 C1490 1.368 . S
C1471 H1495 0.949 . S
H1472 C1476 0.949 . S
C1473 C1474 1.349 . S
C1473 C1475 1.327 . S
C1473 H1496 0.950 . S
C1474 C1473 1.349 . S
C1474 C1486 1.349 . S
C1475 C1473 1.327 . S
C1475 C1491 1.429 . S
C1475 H1497 0.950 . S
C1476 H1472 0.949 . S
C1476 C1484 1.574 . S
C1476 C1492 1.368 . S
H1477 C1485 0.950 . S
H1478 C1483 0.950 . S
H1479 C1484 0.949 . S
H1480 C1486 0.950 . S
H1481 C1487 0.950 . S
H1482 C1488 0.949 . S
C1483 H1478 0.950 . S
C1483 C1485 1.327 . S
C1483 C1489 1.429 . S
C1484 C1476 1.574 . S
C1484 H1479 0.949 . S
C1484 C1490 1.368 . S
C1485 C1469 1.349 . S
C1485 H1477 0.950 . S
C1485 C1483 1.327 . S
C1486 C1474 1.349 . S
C1486 H1480 0.950 . S
C1486 C1487 1.327 . S
C1487 H1481 0.950 . S
C1487 C1486 1.327 . S
C1487 C1491 1.429 . S
C1488 C1471 1.574 . S
C1488 H1482 0.949 . S
C1488 C1492 1.368 . S
C1489 C1470 1.429 . S
C1489 C1483 1.429 . S
C1489 C1490 1.523 . S
C1490 C1471 1.368 . S
C1490 C1484 1.368 . S
C1490 C1489 1.523 . S
C1491 C1475 1.429 . S
C1491 C1487 1.429 . S
C1491 C1492 1.523 . S
C1492 C1476 1.368 . S
C1492 C1488 1.368 . S
C1492 C1491 1.523 . S
H1493 C1468 0.950 . S
H1494 C1470 0.950 . S
H1495 C1471 0.949 . S
H1496 C1473 0.950 . S
H1497 C1475 0.950 . S
C1498 C1499 1.349 . S
C1498 C1500 1.327 1_554 S
C1498 H1523 0.950 1_554 S
C1499 C1498 1.349 . S
C1499 C1515 1.349 . S
C1500 C1498 1.327 1_556 S
C1500 C1519 1.429 1_556 S
C1500 H1524 0.950 . S
C1501 C1518 1.574 1_545 S
C1501 C1520 1.368 . S
C1501 H1525 0.949 . S
H1502 C1506 0.949 . S
C1503 C1504 1.349 . S
C1503 C1505 1.327 1_556 S
C1503 H1526 0.950 1_556 S
C1504 C1503 1.349 . S
C1504 C1516 1.349 . S
C1505 C1503 1.327 1_554 S
C1505 C1521 1.429 1_554 S
C1505 H1527 0.950 . S
C1506 H1502 0.949 . S
C1506 C1514 1.574 1_565 S
C1506 C1522 1.368 . S
H1507 C1515 0.950 . S
H1508 C1513 0.950 . S
H1509 C1514 0.949 . S
H1510 C1516 0.950 . S
H1511 C1517 0.950 . S
H1512 C1518 0.949 . S
C1513 H1508 0.950 . S
C1513 C1515 1.327 . S
C1513 C1519 1.429 . S
C1514 C1506 1.574 1_545 S
C1514 H1509 0.949 . S
C1514 C1520 1.368 1_556 S
C1515 C1499 1.349 . S
C1515 H1507 0.950 . S
C1515 C1513 1.327 . S
C1516 C1504 1.349 . S
C1516 H1510 0.950 . S
C1516 C1517 1.327 . S
C1517 H1511 0.950 . S
C1517 C1516 1.327 . S
C1517 C1521 1.429 . S
C1518 C1501 1.574 1_565 S
C1518 H1512 0.949 . S
C1518 C1522 1.368 1_554 S
C1519 C1500 1.429 1_554 S
C1519 C1513 1.429 . S
C1519 C1520 1.523 . S
C1520 C1501 1.368 . S
C1520 C1514 1.368 1_554 S
C1520 C1519 1.523 . S
C1521 C1505 1.429 1_556 S
C1521 C1517 1.429 . S
C1521 C1522 1.523 . S
C1522 C1506 1.368 . S
C1522 C1518 1.368 1_556 S
C1522 C1521 1.523 . S
H1523 C1498 0.950 1_556 S
H1524 C1500 0.950 . S
H1525 C1501 0.949 . S
H1526 C1503 0.950 1_554 S
H1527 C1505 0.950 . S
C1528 C1529 1.349 . S
C1528 C1530 1.327 . S
C1528 H1553 0.950 . S
C1529 C1528 1.349 . S
C1529 C1545 1.349 . S
C1530 C1528 1.327 . S
C1530 C1549 1.429 . S
C1530 H1554 0.950 . S
C1531 C1548 1.574 . S
C1531 C1550 1.368 . S
C1531 H1555 0.949 . S
H1532 C1536 0.949 . S
C1533 C1534 1.349 . S
C1533 C1535 1.327 . S
C1533 H1556 0.950 . S
C1534 C1533 1.349 . S
C1534 C1546 1.349 . S
C1535 C1533 1.327 . S
C1535 C1551 1.429 . S
C1535 H1557 0.950 . S
C1536 H1532 0.949 . S
C1536 C1544 1.574 . S
C1536 C1552 1.368 . S
H1537 C1545 0.950 . S
H1538 C1543 0.950 . S
H1539 C1544 0.949 . S
H1540 C1546 0.950 . S
H1541 C1547 0.950 . S
H1542 C1548 0.949 . S
C1543 H1538 0.950 . S
C1543 C1545 1.327 . S
C1543 C1549 1.429 . S
C1544 C1536 1.574 . S
C1544 H1539 0.949 . S
C1544 C1550 1.368 . S
C1545 C1529 1.349 . S
C1545 H1537 0.950 . S
C1545 C1543 1.327 . S
C1546 C1534 1.349 . S
C1546 H1540 0.950 . S
C1546 C1547 1.327 . S
C1547 H1541 0.950 . S
C1547 C1546 1.327 . S
C1547 C1551 1.429 . S
C1548 C1531 1.574 . S
C1548 H1542 0.949 . S
C1548 C1552 1.368 . S
C1549 C1530 1.429 . S
C1549 C1543 1.429 . S
C1549 C1550 1.523 . S
C1550 C1531 1.368 . S
C1550 C1544 1.368 . S
C1550 C1549 1.523 . S
C1551 C1535 1.429 . S
C1551 C1547 1.429 . S
C1551 C1552 1.523 . S
C1552 C1536 1.368 . S
C1552 C1548 1.368 . S
C1552 C1551 1.523 . S
H1553 C1528 0.950 . S
H1554 C1530 0.950 . S
H1555 C1531 0.949 . S
H1556 C1533 0.950 . S
H1557 C1535 0.950 . S
C1558 C1559 1.349 . S
C1558 C1560 1.327 . S
C1558 H1583 0.950 . S
C1559 C1558 1.349 . S
C1559 C1575 1.349 . S
C1560 C1558 1.327 . S
C1560 C1579 1.429 . S
C1560 H1584 0.950 . S
C1561 C1578 1.599 . S
C1561 C1580 1.368 . S
C1561 H1585 0.949 . S
H1562 C1566 0.949 . S
C1563 C1564 1.349 . S
C1563 C1565 1.327 . S
C1563 H1586 0.950 . S
C1564 C1563 1.349 . S
C1564 C1576 1.349 . S
C1565 C1563 1.327 . S
C1565 C1581 1.429 . S
C1565 H1587 0.950 . S
C1566 H1562 0.949 . S
C1566 C1574 1.599 . S
C1566 C1582 1.368 . S
H1567 C1575 0.950 . S
H1568 C1573 0.950 . S
H1569 C1574 0.949 . S
H1570 C1576 0.950 . S
H1571 C1577 0.950 . S
H1572 C1578 0.949 . S
C1573 H1568 0.950 . S
C1573 C1575 1.327 . S
C1573 C1579 1.429 . S
C1574 C1566 1.599 . S
C1574 H1569 0.949 . S
C1574 C1580 1.344 1_545 S
C1575 C1559 1.349 . S
C1575 H1567 0.950 . S
C1575 C1573 1.327 . S
C1576 C1564 1.349 . S
C1576 H1570 0.950 . S
C1576 C1577 1.327 . S
C1577 H1571 0.950 . S
C1577 C1576 1.327 . S
C1577 C1581 1.429 . S
C1578 C1561 1.599 . S
C1578 H1572 0.949 . S
C1578 C1582 1.344 1_565 S
C1579 C1560 1.429 . S
C1579 C1573 1.429 . S
C1579 C1580 1.523 . S
C1580 C1561 1.368 . S
C1580 C1574 1.344 1_565 S
C1580 C1579 1.523 . S
C1581 C1565 1.429 . S
C1581 C1577 1.429 . S
C1581 C1582 1.523 . S
C1582 C1566 1.368 . S
C1582 C1578 1.344 1_545 S
C1582 C1581 1.523 . S
H1583 C1558 0.950 . S
H1584 C1560 0.950 . S
H1585 C1561 0.949 . S
H1586 C1563 0.950 . S
H1587 C1565 0.950 . S
C1588 C1589 1.349 . S
C1588 C1590 1.327 . S
C1588 H1613 0.950 . S
C1589 C1588 1.349 . S
C1589 C1605 1.349 . S
C1590 C1588 1.327 . S
C1590 C1609 1.429 . S
C1590 H1614 0.950 . S
C1591 C1608 1.574 . S
C1591 C1610 1.368 . S
C1591 H1615 0.949 . S
H1592 C1596 0.949 . S
C1593 C1594 1.349 . S
C1593 C1595 1.327 . S
C1593 H1616 0.950 . S
C1594 C1593 1.349 . S
C1594 C1606 1.349 . S
C1595 C1593 1.327 . S
C1595 C1611 1.429 . S
C1595 H1617 0.950 . S
C1596 H1592 0.949 . S
C1596 C1604 1.574 . S
C1596 C1612 1.368 . S
H1597 C1605 0.950 . S
H1598 C1603 0.950 . S
H1599 C1604 0.949 . S
H1600 C1606 0.950 . S
H1601 C1607 0.950 . S
H1602 C1608 0.949 . S
C1603 H1598 0.950 . S
C1603 C1605 1.327 . S
C1603 C1609 1.429 . S
C1604 C1596 1.574 . S
C1604 H1599 0.949 . S
C1604 C1610 1.368 . S
C1605 C1589 1.349 . S
C1605 H1597 0.950 . S
C1605 C1603 1.327 . S
C1606 C1594 1.349 . S
C1606 H1600 0.950 . S
C1606 C1607 1.327 . S
C1607 H1601 0.950 . S
C1607 C1606 1.327 . S
C1607 C1611 1.429 . S
C1608 C1591 1.574 . S
C1608 H1602 0.949 . S
C1608 C1612 1.368 . S
C1609 C1590 1.429 . S
C1609 C1603 1.429 . S
C1609 C1610 1.523 . S
C1610 C1591 1.368 . S
C1610 C1604 1.368 . S
C1610 C1609 1.523 . S
C1611 C1595 1.429 . S
C1611 C1607 1.429 . S
C1611 C1612 1.523 . S
C1612 C1596 1.368 . S
C1612 C1608 1.368 . S
C1612 C1611 1.523 . S
H1613 C1588 0.950 . S
H1614 C1590 0.950 . S
H1615 C1591 0.949 . S
H1616 C1593 0.950 . S
H1617 C1595 0.950 . S
C1618 C1619 1.349 . S
C1618 C1620 1.327 . S
C1618 H1643 0.950 . S
C1619 C1618 1.349 . S
C1619 C1635 1.349 . S
C1620 C1618 1.327 . S
C1620 C1639 1.429 . S
C1620 H1644 0.999 . S
C1621 C1638 1.624 1_556 S
C1621 C1640 1.317 1_565 S
C1621 H1645 0.953 . S
H1622 C1626 0.953 . S
C1623 C1624 1.349 . S
C1623 C1625 1.327 . S
C1623 H1646 0.950 . S
C1624 C1623 1.349 . S
C1624 C1636 1.349 . S
C1625 C1623 1.327 . S
C1625 C1641 1.429 . S
C1625 H1647 0.999 . S
C1626 H1622 0.953 . S
C1626 C1634 1.624 1_554 S
C1626 C1642 1.317 1_545 S
H1627 C1635 0.950 . S
H1628 C1633 0.950 . S
H1629 C1634 0.949 . S
H1630 C1636 0.950 . S
H1631 C1637 0.950 . S
H1632 C1638 0.949 . S
C1633 H1628 0.950 . S
C1633 C1635 1.327 . S
C1633 C1639 1.429 . S
C1634 C1626 1.624 1_556 S
C1634 H1629 0.949 . S
C1634 C1640 1.368 1_455 S
C1635 C1619 1.349 . S
C1635 H1627 0.950 . S
C1635 C1633 1.327 . S
C1636 C1624 1.349 . S
C1636 H1630 0.950 . S
C1636 C1637 1.327 . S
C1637 H1631 0.950 . S
C1637 C1636 1.327 . S
C1637 C1641 1.429 . S
C1638 C1621 1.624 1_554 S
C1638 H1632 0.949 . S
C1638 C1642 1.368 1_655 S
C1639 C1620 1.429 . S
C1639 C1633 1.429 . S
C1639 C1640 1.523 . S
C1640 C1621 1.317 1_545 S
C1640 C1634 1.368 1_655 S
C1640 C1639 1.523 . S
C1641 C1625 1.429 . S
C1641 C1637 1.429 . S
C1641 C1642 1.523 . S
C1642 C1626 1.317 1_565 S
C1642 C1638 1.368 1_455 S
C1642 C1641 1.523 . S
H1643 C1618 0.950 . S
H1644 C1620 0.999 . S
H1645 C1621 0.953 . S
H1646 C1623 0.950 . S
H1647 C1625 0.999 . S
C1648 C1649 1.349 . S
C1648 C1650 1.327 . S
C1648 H1673 0.950 . S
C1649 C1648 1.349 . S
C1649 C1665 1.349 . S
C1650 C1648 1.327 . S
C1650 C1669 1.429 . S
C1650 H1674 0.950 . S
C1651 C1668 1.574 . S
C1651 C1670 1.368 . S
C1651 H1675 0.949 . S
H1652 C1656 0.949 . S
C1653 C1654 1.349 . S
C1653 C1655 1.327 . S
C1653 H1676 0.950 . S
C1654 C1653 1.349 . S
C1654 C1666 1.349 . S
C1655 C1653 1.327 . S
C1655 C1671 1.429 . S
C1655 H1677 0.950 . S
C1656 H1652 0.949 . S
C1656 C1664 1.574 . S
C1656 C1672 1.368 . S
H1657 C1665 0.950 . S
H1658 C1663 0.950 . S
H1659 C1664 0.949 . S
H1660 C1666 0.950 . S
H1661 C1667 0.950 . S
H1662 C1668 0.949 . S
C1663 H1658 0.950 . S
C1663 C1665 1.327 . S
C1663 C1669 1.429 . S
C1664 C1656 1.574 . S
C1664 H1659 0.949 . S
C1664 C1670 1.368 . S
C1665 C1649 1.349 . S
C1665 H1657 0.950 . S
C1665 C1663 1.327 . S
C1666 C1654 1.349 . S
C1666 H1660 0.950 . S
C1666 C1667 1.327 . S
C1667 H1661 0.950 . S
C1667 C1666 1.327 . S
C1667 C1671 1.429 . S
C1668 C1651 1.574 . S
C1668 H1662 0.949 . S
C1668 C1672 1.368 . S
C1669 C1650 1.429 . S
C1669 C1663 1.429 . S
C1669 C1670 1.523 . S
C1670 C1651 1.368 . S
C1670 C1664 1.368 . S
C1670 C1669 1.523 . S
C1671 C1655 1.429 . S
C1671 C1667 1.429 . S
C1671 C1672 1.523 . S
C1672 C1656 1.368 . S
C1672 C1668 1.368 . S
C1672 C1671 1.523 . S
H1673 C1648 0.950 . S
H1674 C1650 0.950 . S
H1675 C1651 0.949 . S
H1676 C1653 0.950 . S
H1677 C1655 0.950 . S
C1678 C1679 1.349 . S
C1678 C1680 1.327 . S
C1678 H1703 0.950 . S
C1679 C1678 1.349 . S
C1679 C1695 1.349 . S
C1680 C1678 1.327 . S
C1680 C1699 1.429 . S
C1680 H1704 0.950 . S
C1681 C1698 1.574 . S
C1681 C1700 1.368 . S
C1681 H1705 0.949 . S
H1682 C1686 0.949 . S
C1683 C1684 1.349 . S
C1683 C1685 1.327 . S
C1683 H1706 0.950 . S
C1684 C1683 1.349 . S
C1684 C1696 1.349 . S
C1685 C1683 1.327 . S
C1685 C1701 1.429 . S
C1685 H1707 0.950 . S
C1686 H1682 0.949 . S
C1686 C1694 1.574 . S
C1686 C1702 1.368 . S
H1687 C1695 0.950 . S
H1688 C1693 0.950 . S
H1689 C1694 0.949 . S
H1690 C1696 0.950 . S
H1691 C1697 0.950 . S
H1692 C1698 0.949 . S
C1693 H1688 0.950 . S
C1693 C1695 1.327 . S
C1693 C1699 1.429 . S
C1694 C1686 1.574 . S
C1694 H1689 0.949 . S
C1694 C1700 1.368 . S
C1695 C1679 1.349 . S
C1695 H1687 0.950 . S
C1695 C1693 1.327 . S
C1696 C1684 1.349 . S
C1696 H1690 0.950 . S
C1696 C1697 1.327 . S
C1697 H1691 0.950 . S
C1697 C1696 1.327 . S
C1697 C1701 1.429 . S
C1698 C1681 1.574 . S
C1698 H1692 0.949 . S
C1698 C1702 1.368 . S
C1699 C1680 1.429 . S
C1699 C1693 1.429 . S
C1699 C1700 1.523 . S
C1700 C1681 1.368 . S
C1700 C1694 1.368 . S
C1700 C1699 1.523 . S
C1701 C1685 1.429 . S
C1701 C1697 1.429 . S
C1701 C1702 1.523 . S
C1702 C1686 1.368 . S
C1702 C1698 1.368 . S
C1702 C1701 1.523 . S
H1703 C1678 0.950 . S
H1704 C1680 0.950 . S
H1705 C1681 0.949 . S
H1706 C1683 0.950 . S
H1707 C1685 0.950 . S
C1708 C1709 1.349 . S
C1708 C1710 1.327 . S
C1708 H1733 0.950 . S
C1709 C1708 1.349 . S
C1709 C1725 1.349 . S
C1710 C1708 1.327 . S
C1710 C1729 1.429 . S
C1710 H1734 0.950 . S
C1711 C1728 1.574 . S
C1711 C1730 1.368 . S
C1711 H1735 0.949 . S
H1712 C1716 0.949 . S
C1713 C1714 1.349 . S
C1713 C1715 1.327 . S
C1713 H1736 0.950 . S
C1714 C1713 1.349 . S
C1714 C1726 1.349 . S
C1715 C1713 1.327 . S
C1715 C1731 1.429 . S
C1715 H1737 0.950 . S
C1716 H1712 0.949 . S
C1716 C1724 1.574 . S
C1716 C1732 1.368 . S
H1717 C1725 0.950 . S
H1718 C1723 0.950 . S
H1719 C1724 0.949 . S
H1720 C1726 0.950 . S
H1721 C1727 0.950 . S
H1722 C1728 0.949 . S
C1723 H1718 0.950 . S
C1723 C1725 1.327 . S
C1723 C1729 1.429 . S
C1724 C1716 1.574 . S
C1724 H1719 0.949 . S
C1724 C1730 1.368 . S
C1725 C1709 1.349 . S
C1725 H1717 0.950 . S
C1725 C1723 1.327 . S
C1726 C1714 1.349 . S
C1726 H1720 0.950 . S
C1726 C1727 1.327 . S
C1727 H1721 0.950 . S
C1727 C1726 1.327 . S
C1727 C1731 1.429 . S
C1728 C1711 1.574 . S
C1728 H1722 0.949 . S
C1728 C1732 1.368 . S
C1729 C1710 1.429 . S
C1729 C1723 1.429 . S
C1729 C1730 1.523 . S
C1730 C1711 1.368 . S
C1730 C1724 1.368 . S
C1730 C1729 1.523 . S
C1731 C1715 1.429 . S
C1731 C1727 1.429 . S
C1731 C1732 1.523 . S
C1732 C1716 1.368 . S
C1732 C1728 1.368 . S
C1732 C1731 1.523 . S
H1733 C1708 0.950 . S
H1734 C1710 0.950 . S
H1735 C1711 0.949 . S
H1736 C1713 0.950 . S
H1737 C1715 0.950 . S
C1738 C1739 1.349 . S
C1738 C1740 1.327 . S
C1738 H1763 0.950 . S
C1739 C1738 1.349 . S
C1739 C1755 1.349 . S
C1740 C1738 1.327 . S
C1740 C1759 1.429 . S
C1740 H1764 0.950 . S
C1741 C1758 1.574 . S
C1741 C1760 1.368 . S
C1741 H1765 0.949 . S
H1742 C1746 0.949 . S
C1743 C1744 1.349 . S
C1743 C1745 1.327 . S
C1743 H1766 0.950 . S
C1744 C1743 1.349 . S
C1744 C1756 1.349 . S
C1745 C1743 1.327 . S
C1745 C1761 1.429 . S
C1745 H1767 0.950 . S
C1746 H1742 0.949 . S
C1746 C1754 1.574 . S
C1746 C1762 1.368 . S
H1747 C1755 0.950 . S
H1748 C1753 0.950 . S
H1749 C1754 0.949 . S
H1750 C1756 0.950 . S
H1751 C1757 0.950 . S
H1752 C1758 0.949 . S
C1753 H1748 0.950 . S
C1753 C1755 1.327 . S
C1753 C1759 1.429 . S
C1754 C1746 1.574 . S
C1754 H1749 0.949 . S
C1754 C1760 1.368 . S
C1755 C1739 1.349 . S
C1755 H1747 0.950 . S
C1755 C1753 1.327 . S
C1756 C1744 1.349 . S
C1756 H1750 0.950 . S
C1756 C1757 1.327 . S
C1757 H1751 0.950 . S
C1757 C1756 1.327 . S
C1757 C1761 1.429 . S
C1758 C1741 1.574 . S
C1758 H1752 0.949 . S
C1758 C1762 1.368 . S
C1759 C1740 1.429 . S
C1759 C1753 1.429 . S
C1759 C1760 1.523 . S
C1760 C1741 1.368 . S
C1760 C1754 1.368 . S
C1760 C1759 1.523 . S
C1761 C1745 1.429 . S
C1761 C1757 1.429 . S
C1761 C1762 1.523 . S
C1762 C1746 1.368 . S
C1762 C1758 1.368 . S
C1762 C1761 1.523 . S
H1763 C1738 0.950 . S
H1764 C1740 0.950 . S
H1765 C1741 0.949 . S
H1766 C1743 0.950 . S
H1767 C1745 0.950 . S
C1768 C1769 1.349 . S
C1768 C1770 1.327 1_554 S
C1768 H1793 0.950 1_554 S
C1769 C1768 1.349 . S
C1769 C1785 1.349 . S
C1770 C1768 1.327 1_556 S
C1770 C1789 1.429 1_556 S
C1770 H1794 0.950 . S
C1771 C1788 1.574 . S
C1771 C1790 1.368 . S
C1771 H1795 0.949 . S
H1772 C1776 0.949 . S
C1773 C1774 1.349 . S
C1773 C1775 1.327 1_556 S
C1773 H1796 0.950 1_556 S
C1774 C1773 1.349 . S
C1774 C1786 1.349 . S
C1775 C1773 1.327 1_554 S
C1775 C1791 1.429 1_554 S
C1775 H1797 0.950 . S
C1776 H1772 0.949 . S
C1776 C1784 1.574 . S
C1776 C1792 1.368 . S
H1777 C1785 0.950 . S
H1778 C1783 0.950 . S
H1779 C1784 0.949 . S
H1780 C1786 0.950 . S
H1781 C1787 0.950 . S
H1782 C1788 0.949 . S
C1783 H1778 0.950 . S
C1783 C1785 1.327 . S
C1783 C1789 1.429 . S
C1784 C1776 1.574 . S
C1784 H1779 0.949 . S
C1784 C1790 1.368 1_556 S
C1785 C1769 1.349 . S
C1785 H1777 0.950 . S
C1785 C1783 1.327 . S
C1786 C1774 1.349 . S
C1786 H1780 0.950 . S
C1786 C1787 1.327 . S
C1787 H1781 0.950 . S
C1787 C1786 1.327 . S
C1787 C1791 1.429 . S
C1788 C1771 1.574 . S
C1788 H1782 0.949 . S
C1788 C1792 1.368 1_554 S
C1789 C1770 1.429 1_554 S
C1789 C1783 1.429 . S
C1789 C1790 1.523 . S
C1790 C1771 1.368 . S
C1790 C1784 1.368 1_554 S
C1790 C1789 1.523 . S
C1791 C1775 1.429 1_556 S
C1791 C1787 1.429 . S
C1791 C1792 1.523 . S
C1792 C1776 1.368 . S
C1792 C1788 1.368 1_556 S
C1792 C1791 1.523 . S
H1793 C1768 0.950 1_556 S
H1794 C1770 0.950 . S
H1795 C1771 0.949 . S
H1796 C1773 0.950 1_554 S
H1797 C1775 0.950 . S
C1798 C1799 1.349 . S
C1798 C1800 1.327 . S
C1798 H1823 0.950 . S
C1799 C1798 1.349 . S
C1799 C1815 1.349 . S
C1800 C1798 1.327 . S
C1800 C1819 1.429 . S
C1800 H1824 0.950 . S
C1801 C1818 1.574 . S
C1801 C1820 1.368 1_455 S
C1801 H1825 0.949 . S
H1802 C1806 0.949 . S
C1803 C1804 1.349 . S
C1803 C1805 1.327 . S
C1803 H1826 0.950 . S
C1804 C1803 1.349 . S
C1804 C1816 1.349 . S
C1805 C1803 1.327 . S
C1805 C1821 1.429 . S
C1805 H1827 0.950 . S
C1806 H1802 0.949 . S
C1806 C1814 1.574 . S
C1806 C1822 1.368 1_655 S
H1807 C1815 0.950 . S
H1808 C1813 0.950 . S
H1809 C1814 0.949 . S
H1810 C1816 0.950 . S
H1811 C1817 0.950 . S
H1812 C1818 0.949 . S
C1813 H1808 0.950 . S
C1813 C1815 1.327 . S
C1813 C1819 1.429 . S
C1814 C1806 1.574 . S
C1814 H1809 0.949 . S
C1814 C1820 1.368 . S
C1815 C1799 1.349 . S
C1815 H1807 0.950 . S
C1815 C1813 1.327 . S
C1816 C1804 1.349 . S
C1816 H1810 0.950 . S
C1816 C1817 1.327 . S
C1817 H1811 0.950 . S
C1817 C1816 1.327 . S
C1817 C1821 1.429 . S
C1818 C1801 1.574 . S
C1818 H1812 0.949 . S
C1818 C1822 1.368 . S
C1819 C1800 1.429 . S
C1819 C1813 1.429 . S
C1819 C1820 1.523 . S
C1820 C1801 1.368 1_655 S
C1820 C1814 1.368 . S
C1820 C1819 1.523 . S
C1821 C1805 1.429 . S
C1821 C1817 1.429 . S
C1821 C1822 1.523 . S
C1822 C1806 1.368 1_455 S
C1822 C1818 1.368 . S
C1822 C1821 1.523 . S
H1823 C1798 0.950 . S
H1824 C1800 0.950 . S
H1825 C1801 0.949 . S
H1826 C1803 0.950 . S
H1827 C1805 0.950 . S
C1828 C1829 1.349 . S
C1828 C1830 1.327 . S
C1828 H1853 0.950 . S
C1829 C1828 1.349 . S
C1829 C1845 1.349 . S
C1830 C1828 1.327 . S
C1830 C1849 1.429 . S
C1830 H1854 0.950 1_556 S
C1831 C1848 1.574 . S
C1831 C1850 1.368 1_655 S
C1831 H1855 0.949 . S
H1832 C1836 0.949 . S
C1833 C1834 1.349 . S
C1833 C1835 1.327 . S
C1833 H1856 0.950 . S
C1834 C1833 1.349 . S
C1834 C1846 1.349 . S
C1835 C1833 1.327 . S
C1835 C1851 1.429 . S
C1835 H1857 0.950 1_554 S
C1836 H1832 0.949 . S
C1836 C1844 1.574 . S
C1836 C1852 1.368 1_455 S
H1837 C1845 0.950 . S
H1838 C1843 0.950 . S
H1839 C1844 0.949 . S
H1840 C1846 0.950 . S
H1841 C1847 0.950 . S
H1842 C1848 0.949 . S
C1843 H1838 0.950 . S
C1843 C1845 1.327 . S
C1843 C1849 1.429 . S
C1844 C1836 1.574 . S
C1844 H1839 0.949 . S
C1844 C1850 1.368 1_554 S
C1845 C1829 1.349 . S
C1845 H1837 0.950 . S
C1845 C1843 1.327 . S
C1846 C1834 1.349 . S
C1846 H1840 0.950 . S
C1846 C1847 1.327 . S
C1847 H1841 0.950 . S
C1847 C1846 1.327 . S
C1847 C1851 1.429 . S
C1848 C1831 1.574 . S
C1848 H1842 0.949 . S
C1848 C1852 1.368 1_556 S
C1849 C1830 1.429 . S
C1849 C1843 1.429 . S
C1849 C1850 1.523 . S
C1850 C1831 1.368 1_455 S
C1850 C1844 1.368 1_556 S
C1850 C1849 1.523 . S
C1851 C1835 1.429 . S
C1851 C1847 1.429 . S
C1851 C1852 1.523 . S
C1852 C1836 1.368 1_655 S
C1852 C1848 1.368 1_554 S
C1852 C1851 1.523 . S
H1853 C1828 0.950 . S
H1854 C1830 0.950 1_554 S
H1855 C1831 0.949 . S
H1856 C1833 0.950 . S
H1857 C1835 0.950 1_556 S
C1858 C1859 1.349 . S
C1858 C1860 1.327 . S
C1858 H1883 0.950 . S
C1859 C1858 1.349 . S
C1859 C1875 1.349 . S
C1860 C1858 1.327 . S
C1860 C1879 1.429 . S
C1860 H1884 0.950 . S
C1861 C1878 1.574 . S
C1861 C1880 1.368 . S
C1861 H1885 0.949 . S
H1862 C1866 0.949 . S
C1863 C1864 1.349 . S
C1863 C1865 1.327 . S
C1863 H1886 0.950 . S
C1864 C1863 1.349 . S
C1864 C1876 1.349 . S
C1865 C1863 1.327 . S
C1865 C1881 1.429 . S
C1865 H1887 0.950 . S
C1866 H1862 0.949 . S
C1866 C1874 1.574 . S
C1866 C1882 1.368 . S
H1867 C1875 0.950 . S
H1868 C1873 0.950 . S
H1869 C1874 0.949 . S
H1870 C1876 0.950 . S
H1871 C1877 0.950 . S
H1872 C1878 0.949 . S
C1873 H1868 0.950 . S
C1873 C1875 1.327 . S
C1873 C1879 1.429 . S
C1874 C1866 1.574 . S
C1874 H1869 0.949 . S
C1874 C1880 1.368 . S
C1875 C1859 1.349 . S
C1875 H1867 0.950 . S
C1875 C1873 1.327 . S
C1876 C1864 1.349 . S
C1876 H1870 0.950 . S
C1876 C1877 1.327 . S
C1877 H1871 0.950 . S
C1877 C1876 1.327 . S
C1877 C1881 1.429 . S
C1878 C1861 1.574 . S
C1878 H1872 0.949 . S
C1878 C1882 1.368 . S
C1879 C1860 1.429 . S
C1879 C1873 1.429 . S
C1879 C1880 1.523 . S
C1880 C1861 1.368 . S
C1880 C1874 1.368 . S
C1880 C1879 1.523 . S
C1881 C1865 1.429 . S
C1881 C1877 1.429 . S
C1881 C1882 1.523 . S
C1882 C1866 1.368 . S
C1882 C1878 1.368 . S
C1882 C1881 1.523 . S
H1883 C1858 0.950 . S
H1884 C1860 0.950 . S
H1885 C1861 0.949 . S
H1886 C1863 0.950 . S
H1887 C1865 0.950 . S
C1888 C1889 1.349 . S
C1888 C1890 1.327 . S
C1888 H1913 0.950 . S
C1889 C1888 1.349 . S
C1889 C1905 1.349 . S
C1890 C1888 1.327 . S
C1890 C1909 1.429 . S
C1890 H1914 0.950 . S
C1891 C1908 1.574 . S
C1891 C1910 1.368 . S
C1891 H1915 0.949 . S
H1892 C1896 0.949 . S
C1893 C1894 1.349 . S
C1893 C1895 1.327 . S
C1893 H1916 0.950 . S
C1894 C1893 1.349 . S
C1894 C1906 1.349 . S
C1895 C1893 1.327 . S
C1895 C1911 1.429 . S
C1895 H1917 0.950 . S
C1896 H1892 0.949 . S
C1896 C1904 1.574 . S
C1896 C1912 1.368 . S
H1897 C1905 0.950 . S
H1898 C1903 0.950 . S
H1899 C1904 0.949 . S
H1900 C1906 0.950 . S
H1901 C1907 0.950 . S
H1902 C1908 0.949 . S
C1903 H1898 0.950 . S
C1903 C1905 1.327 . S
C1903 C1909 1.429 . S
C1904 C1896 1.574 . S
C1904 H1899 0.949 . S
C1904 C1910 1.368 . S
C1905 C1889 1.349 . S
C1905 H1897 0.950 . S
C1905 C1903 1.327 . S
C1906 C1894 1.349 . S
C1906 H1900 0.950 . S
C1906 C1907 1.327 . S
C1907 H1901 0.950 . S
C1907 C1906 1.327 . S
C1907 C1911 1.429 . S
C1908 C1891 1.574 . S
C1908 H1902 0.949 . S
C1908 C1912 1.368 . S
C1909 C1890 1.429 . S
C1909 C1903 1.429 . S
C1909 C1910 1.523 . S
C1910 C1891 1.368 . S
C1910 C1904 1.368 . S
C1910 C1909 1.523 . S
C1911 C1895 1.429 . S
C1911 C1907 1.429 . S
C1911 C1912 1.523 . S
C1912 C1896 1.368 . S
C1912 C1908 1.368 . S
C1912 C1911 1.523 . S
H1913 C1888 0.950 . S
H1914 C1890 0.950 . S
H1915 C1891 0.949 . S
H1916 C1893 0.950 . S
H1917 C1895 0.950 . S
C1918 C1919 1.349 . S
C1918 C1920 1.327 . S
C1918 H1943 0.950 . S
C1919 C1918 1.349 . S
C1919 C1935 1.349 . S
C1920 C1918 1.327 . S
C1920 C1939 1.429 . S
C1920 H1944 0.950 . S
C1921 C1938 1.574 . S
C1921 C1940 1.368 . S
C1921 H1945 0.949 . S
H1922 C1926 0.949 . S
C1923 C1924 1.349 . S
C1923 C1925 1.327 . S
C1923 H1946 0.950 . S
C1924 C1923 1.349 . S
C1924 C1936 1.349 . S
C1925 C1923 1.327 . S
C1925 C1941 1.429 . S
C1925 H1947 0.950 . S
C1926 H1922 0.949 . S
C1926 C1934 1.574 . S
C1926 C1942 1.368 . S
H1927 C1935 0.950 . S
H1928 C1933 0.950 . S
H1929 C1934 0.949 . S
H1930 C1936 0.950 . S
H1931 C1937 0.950 . S
H1932 C1938 0.949 . S
C1933 H1928 0.950 . S
C1933 C1935 1.327 . S
C1933 C1939 1.429 . S
C1934 C1926 1.574 . S
C1934 H1929 0.949 . S
C1934 C1940 1.368 . S
C1935 C1919 1.349 . S
C1935 H1927 0.950 . S
C1935 C1933 1.327 . S
C1936 C1924 1.349 . S
C1936 H1930 0.950 . S
C1936 C1937 1.327 . S
C1937 H1931 0.950 . S
C1937 C1936 1.327 . S
C1937 C1941 1.429 . S
C1938 C1921 1.574 . S
C1938 H1932 0.949 . S
C1938 C1942 1.368 . S
C1939 C1920 1.429 . S
C1939 C1933 1.429 . S
C1939 C1940 1.523 . S
C1940 C1921 1.368 . S
C1940 C1934 1.368 . S
C1940 C1939 1.523 . S
C1941 C1925 1.429 . S
C1941 C1937 1.429 . S
C1941 C1942 1.523 . S
C1942 C1926 1.368 . S
C1942 C1938 1.368 . S
C1942 C1941 1.523 . S
H1943 C1918 0.950 . S
H1944 C1920 0.950 . S
H1945 C1921 0.949 . S
H1946 C1923 0.950 . S
H1947 C1925 0.950 . S
C1948 C1949 1.349 . S
C1948 C1950 1.327 . S
C1948 H1973 0.950 . S
C1949 C1948 1.349 . S
C1949 C1965 1.349 . S
C1950 C1948 1.327 . S
C1950 C1969 1.429 . S
C1950 H1974 0.950 . S
C1951 C1968 1.574 . S
C1951 C1970 1.368 . S
C1951 H1975 0.949 . S
H1952 C1956 0.949 . S
C1953 C1954 1.349 . S
C1953 C1955 1.327 . S
C1953 H1976 0.950 . S
C1954 C1953 1.349 . S
C1954 C1966 1.349 . S
C1955 C1953 1.327 . S
C1955 C1971 1.429 . S
C1955 H1977 0.950 . S
C1956 H1952 0.949 . S
C1956 C1964 1.574 . S
C1956 C1972 1.368 . S
H1957 C1965 0.950 . S
H1958 C1963 0.950 . S
H1959 C1964 0.949 . S
H1960 C1966 0.950 . S
H1961 C1967 0.950 . S
H1962 C1968 0.949 . S
C1963 H1958 0.950 . S
C1963 C1965 1.327 . S
C1963 C1969 1.429 . S
C1964 C1956 1.574 . S
C1964 H1959 0.949 . S
C1964 C1970 1.368 . S
C1965 C1949 1.349 . S
C1965 H1957 0.950 . S
C1965 C1963 1.327 . S
C1966 C1954 1.349 . S
C1966 H1960 0.950 . S
C1966 C1967 1.327 . S
C1967 H1961 0.950 . S
C1967 C1966 1.327 . S
C1967 C1971 1.429 . S
C1968 C1951 1.574 . S
C1968 H1962 0.949 . S
C1968 C1972 1.368 . S
C1969 C1950 1.429 . S
C1969 C1963 1.429 . S
C1969 C1970 1.523 . S
C1970 C1951 1.368 . S
C1970 C1964 1.368 . S
C1970 C1969 1.523 . S
C1971 C1955 1.429 . S
C1971 C1967 1.429 . S
C1971 C1972 1.523 . S
C1972 C1956 1.368 . S
C1972 C1968 1.368 . S
C1972 C1971 1.523 . S
H1973 C1948 0.950 . S
H1974 C1950 0.950 . S
H1975 C1951 0.949 . S
H1976 C1953 0.950 . S
H1977 C1955 0.950 . S
C1978 C1979 1.349 . S
C1978 C1980 1.327 . S
C1978 H2003 0.950 . S
C1979 C1978 1.349 . S
C1979 C1995 1.349 . S
C1980 C1978 1.327 . S
C1980 C1999 1.429 . S
C1980 H2004 0.950 . S
C1981 C1998 1.574 . S
C1981 C2000 1.368 . S
C1981 H2005 0.949 . S
H1982 C1986 0.949 . S
C1983 C1984 1.349 . S
C1983 C1985 1.327 . S
C1983 H2006 0.950 . S
C1984 C1983 1.349 . S
C1984 C1996 1.349 . S
C1985 C1983 1.327 . S
C1985 C2001 1.429 . S
C1985 H2007 0.950 . S
C1986 H1982 0.949 . S
C1986 C1994 1.574 . S
C1986 C2002 1.368 . S
H1987 C1995 0.950 . S
H1988 C1993 0.950 . S
H1989 C1994 0.949 . S
H1990 C1996 0.950 . S
H1991 C1997 0.950 . S
H1992 C1998 0.949 . S
C1993 H1988 0.950 . S
C1993 C1995 1.327 . S
C1993 C1999 1.429 . S
C1994 C1986 1.574 . S
C1994 H1989 0.949 . S
C1994 C2000 1.368 . S
C1995 C1979 1.349 . S
C1995 H1987 0.950 . S
C1995 C1993 1.327 . S
C1996 C1984 1.349 . S
C1996 H1990 0.950 . S
C1996 C1997 1.327 . S
C1997 H1991 0.950 . S
C1997 C1996 1.327 . S
C1997 C2001 1.429 . S
C1998 C1981 1.574 . S
C1998 H1992 0.949 . S
C1998 C2002 1.368 . S
C1999 C1980 1.429 . S
C1999 C1993 1.429 . S
C1999 C2000 1.523 . S
C2000 C1981 1.368 . S
C2000 C1994 1.368 . S
C2000 C1999 1.523 . S
C2001 C1985 1.429 . S
C2001 C1997 1.429 . S
C2001 C2002 1.523 . S
C2002 C1986 1.368 . S
C2002 C1998 1.368 . S
C2002 C2001 1.523 . S
H2003 C1978 0.950 . S
H2004 C1980 0.950 . S
H2005 C1981 0.949 . S
H2006 C1983 0.950 . S
H2007 C1985 0.950 . S
C2008 C2009 1.349 . S
C2008 C2010 1.327 . S
C2008 H2033 0.950 . S
C2009 C2008 1.349 . S
C2009 C2025 1.349 . S
C2010 C2008 1.327 . S
C2010 C2029 1.429 . S
C2010 H2034 0.950 . S
C2011 C2028 1.574 . S
C2011 C2030 1.368 . S
C2011 H2035 0.949 . S
H2012 C2016 0.949 . S
C2013 C2014 1.349 . S
C2013 C2015 1.327 . S
C2013 H2036 0.950 . S
C2014 C2013 1.349 . S
C2014 C2026 1.349 . S
C2015 C2013 1.327 . S
C2015 C2031 1.429 . S
C2015 H2037 0.950 . S
C2016 H2012 0.949 . S
C2016 C2024 1.574 . S
C2016 C2032 1.368 . S
H2017 C2025 0.950 . S
H2018 C2023 0.950 . S
H2019 C2024 0.949 . S
H2020 C2026 0.950 . S
H2021 C2027 0.950 . S
H2022 C2028 0.949 . S
C2023 H2018 0.950 . S
C2023 C2025 1.327 . S
C2023 C2029 1.429 . S
C2024 C2016 1.574 . S
C2024 H2019 0.949 . S
C2024 C2030 1.368 . S
C2025 C2009 1.349 . S
C2025 H2017 0.950 . S
C2025 C2023 1.327 . S
C2026 C2014 1.349 . S
C2026 H2020 0.950 . S
C2026 C2027 1.327 . S
C2027 H2021 0.950 . S
C2027 C2026 1.327 . S
C2027 C2031 1.429 . S
C2028 C2011 1.574 . S
C2028 H2022 0.949 . S
C2028 C2032 1.368 . S
C2029 C2010 1.429 . S
C2029 C2023 1.429 . S
C2029 C2030 1.523 . S
C2030 C2011 1.368 . S
C2030 C2024 1.368 . S
C2030 C2029 1.523 . S
C2031 C2015 1.429 . S
C2031 C2027 1.429 . S
C2031 C2032 1.523 . S
C2032 C2016 1.368 . S
C2032 C2028 1.368 . S
C2032 C2031 1.523 . S
H2033 C2008 0.950 . S
H2034 C2010 0.950 . S
H2035 C2011 0.949 . S
H2036 C2013 0.950 . S
H2037 C2015 0.950 . S
C2038 C2039 1.349 . S
C2038 C2040 1.327 . S
C2038 H2063 0.950 . S
C2039 C2038 1.349 . S
C2039 C2055 1.349 . S
C2040 C2038 1.327 . S
C2040 C2059 1.429 . S
C2040 H2064 0.950 . S
C2041 C2058 1.574 . S
C2041 C2060 1.368 . S
C2041 H2065 0.949 . S
H2042 C2046 0.949 . S
C2043 C2044 1.349 . S
C2043 C2045 1.327 . S
C2043 H2066 0.950 . S
C2044 C2043 1.349 . S
C2044 C2056 1.349 . S
C2045 C2043 1.327 . S
C2045 C2061 1.429 . S
C2045 H2067 0.950 . S
C2046 H2042 0.949 . S
C2046 C2054 1.574 . S
C2046 C2062 1.368 . S
H2047 C2055 0.950 . S
H2048 C2053 0.950 . S
H2049 C2054 0.949 . S
H2050 C2056 0.950 . S
H2051 C2057 0.950 . S
H2052 C2058 0.949 . S
C2053 H2048 0.950 . S
C2053 C2055 1.327 . S
C2053 C2059 1.429 . S
C2054 C2046 1.574 . S
C2054 H2049 0.949 . S
C2054 C2060 1.368 . S
C2055 C2039 1.349 . S
C2055 H2047 0.950 . S
C2055 C2053 1.327 . S
C2056 C2044 1.349 . S
C2056 H2050 0.950 . S
C2056 C2057 1.327 . S
C2057 H2051 0.950 . S
C2057 C2056 1.327 . S
C2057 C2061 1.429 . S
C2058 C2041 1.574 . S
C2058 H2052 0.949 . S
C2058 C2062 1.368 . S
C2059 C2040 1.429 . S
C2059 C2053 1.429 . S
C2059 C2060 1.523 . S
C2060 C2041 1.368 . S
C2060 C2054 1.368 . S
C2060 C2059 1.523 . S
C2061 C2045 1.429 . S
C2061 C2057 1.429 . S
C2061 C2062 1.523 . S
C2062 C2046 1.368 . S
C2062 C2058 1.368 . S
C2062 C2061 1.523 . S
H2063 C2038 0.950 . S
H2064 C2040 0.950 . S
H2065 C2041 0.949 . S
H2066 C2043 0.950 . S
H2067 C2045 0.950 . S
C2068 C2069 1.349 . S
C2068 C2070 1.327 . S
C2068 H2093 0.950 . S
C2069 C2068 1.349 . S
C2069 C2085 1.349 . S
C2070 C2068 1.327 . S
C2070 C2089 1.429 . S
C2070 H2094 0.950 . S
C2071 C2088 1.574 . S
C2071 C2090 1.368 . S
C2071 H2095 0.949 . S
H2072 C2076 0.949 . S
C2073 C2074 1.349 . S
C2073 C2075 1.327 . S
C2073 H2096 0.950 . S
C2074 C2073 1.349 . S
C2074 C2086 1.349 . S
C2075 C2073 1.327 . S
C2075 C2091 1.429 . S
C2075 H2097 0.950 . S
C2076 H2072 0.949 . S
C2076 C2084 1.574 . S
C2076 C2092 1.368 . S
H2077 C2085 0.950 . S
H2078 C2083 0.950 . S
H2079 C2084 0.949 . S
H2080 C2086 0.950 . S
H2081 C2087 0.950 . S
H2082 C2088 0.949 . S
C2083 H2078 0.950 . S
C2083 C2085 1.327 . S
C2083 C2089 1.429 . S
C2084 C2076 1.574 . S
C2084 H2079 0.949 . S
C2084 C2090 1.368 . S
C2085 C2069 1.349 . S
C2085 H2077 0.950 . S
C2085 C2083 1.327 . S
C2086 C2074 1.349 . S
C2086 H2080 0.950 . S
C2086 C2087 1.327 . S
C2087 H2081 0.950 . S
C2087 C2086 1.327 . S
C2087 C2091 1.429 . S
C2088 C2071 1.574 . S
C2088 H2082 0.949 . S
C2088 C2092 1.368 . S
C2089 C2070 1.429 . S
C2089 C2083 1.429 . S
C2089 C2090 1.523 . S
C2090 C2071 1.368 . S
C2090 C2084 1.368 . S
C2090 C2089 1.523 . S
C2091 C2075 1.429 . S
C2091 C2087 1.429 . S
C2091 C2092 1.523 . S
C2092 C2076 1.368 . S
C2092 C2088 1.368 . S
C2092 C2091 1.523 . S
H2093 C2068 0.950 . S
H2094 C2070 0.950 . S
H2095 C2071 0.949 . S
H2096 C2073 0.950 . S
H2097 C2075 0.950 . S
C2098 C2099 1.349 . S
C2098 C2100 1.327 . S
C2098 H2123 0.950 . S
C2099 C2098 1.349 . S
C2099 C2115 1.349 . S
C2100 C2098 1.327 . S
C2100 C2119 1.429 . S
C2100 H2124 0.950 . S
C2101 C2118 1.574 . S
C2101 C2120 1.368 . S
C2101 H2125 0.949 . S
H2102 C2106 0.949 . S
C2103 C2104 1.349 . S
C2103 C2105 1.327 . S
C2103 H2126 0.950 . S
C2104 C2103 1.349 . S
C2104 C2116 1.349 . S
C2105 C2103 1.327 . S
C2105 C2121 1.429 . S
C2105 H2127 0.950 . S
C2106 H2102 0.949 . S
C2106 C2114 1.574 . S
C2106 C2122 1.368 . S
H2107 C2115 0.950 . S
H2108 C2113 0.950 . S
H2109 C2114 0.949 . S
H2110 C2116 0.950 . S
H2111 C2117 0.950 . S
H2112 C2118 0.949 . S
C2113 H2108 0.950 . S
C2113 C2115 1.327 . S
C2113 C2119 1.429 . S
C2114 C2106 1.574 . S
C2114 H2109 0.949 . S
C2114 C2120 1.368 . S
C2115 C2099 1.349 . S
C2115 H2107 0.950 . S
C2115 C2113 1.327 . S
C2116 C2104 1.349 . S
C2116 H2110 0.950 . S
C2116 C2117 1.327 . S
C2117 H2111 0.950 . S
C2117 C2116 1.327 . S
C2117 C2121 1.429 . S
C2118 C2101 1.574 . S
C2118 H2112 0.949 . S
C2118 C2122 1.368 . S
C2119 C2100 1.429 . S
C2119 C2113 1.429 . S
C2119 C2120 1.523 . S
C2120 C2101 1.368 . S
C2120 C2114 1.368 . S
C2120 C2119 1.523 . S
C2121 C2105 1.429 . S
C2121 C2117 1.429 . S
C2121 C2122 1.523 . S
C2122 C2106 1.368 . S
C2122 C2118 1.368 . S
C2122 C2121 1.523 . S
H2123 C2098 0.950 . S
H2124 C2100 0.950 . S
H2125 C2101 0.949 . S
H2126 C2103 0.950 . S
H2127 C2105 0.950 . S
C2128 C2129 1.349 . S
C2128 C2130 1.327 . S
C2128 H2153 0.950 . S
C2129 C2128 1.349 . S
C2129 C2145 1.349 . S
C2130 C2128 1.327 . S
C2130 C2149 1.429 . S
C2130 H2154 0.950 . S
C2131 C2148 1.574 . S
C2131 C2150 1.368 . S
C2131 H2155 0.949 . S
H2132 C2136 0.949 . S
C2133 C2134 1.349 . S
C2133 C2135 1.327 . S
C2133 H2156 0.950 . S
C2134 C2133 1.349 . S
C2134 C2146 1.349 . S
C2135 C2133 1.327 . S
C2135 C2151 1.429 . S
C2135 H2157 0.950 . S
C2136 H2132 0.949 . S
C2136 C2144 1.574 . S
C2136 C2152 1.368 . S
H2137 C2145 0.950 . S
H2138 C2143 0.950 . S
H2139 C2144 0.949 . S
H2140 C2146 0.950 . S
H2141 C2147 0.950 . S
H2142 C2148 0.949 . S
C2143 H2138 0.950 . S
C2143 C2145 1.327 . S
C2143 C2149 1.429 . S
C2144 C2136 1.574 . S
C2144 H2139 0.949 . S
C2144 C2150 1.368 . S
C2145 C2129 1.349 . S
C2145 H2137 0.950 . S
C2145 C2143 1.327 . S
C2146 C2134 1.349 . S
C2146 H2140 0.950 . S
C2146 C2147 1.327 . S
C2147 H2141 0.950 . S
C2147 C2146 1.327 . S
C2147 C2151 1.429 . S
C2148 C2131 1.574 . S
C2148 H2142 0.949 . S
C2148 C2152 1.368 . S
C2149 C2130 1.429 . S
C2149 C2143 1.429 . S
C2149 C2150 1.523 . S
C2150 C2131 1.368 . S
C2150 C2144 1.368 . S
C2150 C2149 1.523 . S
C2151 C2135 1.429 . S
C2151 C2147 1.429 . S
C2151 C2152 1.523 . S
C2152 C2136 1.368 . S
C2152 C2148 1.368 . S
C2152 C2151 1.523 . S
H2153 C2128 0.950 . S
H2154 C2130 0.950 . S
H2155 C2131 0.949 . S
H2156 C2133 0.950 . S
H2157 C2135 0.950 . S
C2158 C2159 1.349 . S
C2158 C2160 1.327 . S
C2158 H2183 0.950 . S
C2159 C2158 1.349 . S
C2159 C2175 1.349 . S
C2160 C2158 1.327 . S
C2160 C2179 1.429 . S
C2160 H2184 0.950 . S
C2161 C2178 1.574 . S
C2161 C2180 1.368 . S
C2161 H2185 0.949 . S
H2162 C2166 0.949 . S
C2163 C2164 1.349 . S
C2163 C2165 1.327 . S
C2163 H2186 0.950 . S
C2164 C2163 1.349 . S
C2164 C2176 1.349 . S
C2165 C2163 1.327 . S
C2165 C2181 1.429 . S
C2165 H2187 0.950 . S
C2166 H2162 0.949 . S
C2166 C2174 1.574 . S
C2166 C2182 1.368 . S
H2167 C2175 0.950 . S
H2168 C2173 0.950 . S
H2169 C2174 0.949 . S
H2170 C2176 0.950 . S
H2171 C2177 0.950 . S
H2172 C2178 0.949 . S
C2173 H2168 0.950 . S
C2173 C2175 1.327 . S
C2173 C2179 1.429 . S
C2174 C2166 1.574 . S
C2174 H2169 0.949 . S
C2174 C2180 1.368 . S
C2175 C2159 1.349 . S
C2175 H2167 0.950 . S
C2175 C2173 1.327 . S
C2176 C2164 1.349 . S
C2176 H2170 0.950 . S
C2176 C2177 1.327 . S
C2177 H2171 0.950 . S
C2177 C2176 1.327 . S
C2177 C2181 1.429 . S
C2178 C2161 1.574 . S
C2178 H2172 0.949 . S
C2178 C2182 1.368 . S
C2179 C2160 1.429 . S
C2179 C2173 1.429 . S
C2179 C2180 1.523 . S
C2180 C2161 1.368 . S
C2180 C2174 1.368 . S
C2180 C2179 1.523 . S
C2181 C2165 1.429 . S
C2181 C2177 1.429 . S
C2181 C2182 1.523 . S
C2182 C2166 1.368 . S
C2182 C2178 1.368 . S
C2182 C2181 1.523 . S
H2183 C2158 0.950 . S
H2184 C2160 0.950 . S
H2185 C2161 0.949 . S
H2186 C2163 0.950 . S
H2187 C2165 0.950 . S
C2188 C2189 1.349 . S
C2188 C2190 1.327 . S
C2188 H2213 0.950 . S
C2189 C2188 1.349 . S
C2189 C2205 1.349 . S
C2190 C2188 1.327 . S
C2190 C2209 1.429 . S
C2190 H2214 0.950 . S
C2191 C2208 1.574 . S
C2191 C2210 1.368 . S
C2191 H2215 0.949 . S
H2192 C2196 0.949 . S
C2193 C2194 1.349 . S
C2193 C2195 1.327 . S
C2193 H2216 0.950 . S
C2194 C2193 1.349 . S
C2194 C2206 1.349 . S
C2195 C2193 1.327 . S
C2195 C2211 1.429 . S
C2195 H2217 0.950 . S
C2196 H2192 0.949 . S
C2196 C2204 1.574 . S
C2196 C2212 1.368 . S
H2197 C2205 0.950 . S
H2198 C2203 0.950 . S
H2199 C2204 0.949 . S
H2200 C2206 0.950 . S
H2201 C2207 0.950 . S
H2202 C2208 0.949 . S
C2203 H2198 0.950 . S
C2203 C2205 1.327 . S
C2203 C2209 1.429 . S
C2204 C2196 1.574 . S
C2204 H2199 0.949 . S
C2204 C2210 1.368 . S
C2205 C2189 1.349 . S
C2205 H2197 0.950 . S
C2205 C2203 1.327 . S
C2206 C2194 1.349 . S
C2206 H2200 0.950 . S
C2206 C2207 1.327 . S
C2207 H2201 0.950 . S
C2207 C2206 1.327 . S
C2207 C2211 1.429 . S
C2208 C2191 1.574 . S
C2208 H2202 0.949 . S
C2208 C2212 1.368 . S
C2209 C2190 1.429 . S
C2209 C2203 1.429 . S
C2209 C2210 1.523 . S
C2210 C2191 1.368 . S
C2210 C2204 1.368 . S
C2210 C2209 1.523 . S
C2211 C2195 1.429 . S
C2211 C2207 1.429 . S
C2211 C2212 1.523 . S
C2212 C2196 1.368 . S
C2212 C2208 1.368 . S
C2212 C2211 1.523 . S
H2213 C2188 0.950 . S
H2214 C2190 0.950 . S
H2215 C2191 0.949 . S
H2216 C2193 0.950 . S
H2217 C2195 0.950 . S
C2218 C2219 1.349 . S
C2218 C2220 1.327 . S
C2218 H2243 0.950 . S
C2219 C2218 1.349 . S
C2219 C2235 1.349 . S
C2220 C2218 1.327 . S
C2220 C2239 1.429 . S
C2220 H2244 0.950 . S
C2221 C2238 1.574 . S
C2221 C2240 1.368 . S
C2221 H2245 0.949 . S
H2222 C2226 0.949 . S
C2223 C2224 1.349 . S
C2223 C2225 1.327 . S
C2223 H2246 0.950 . S
C2224 C2223 1.349 . S
C2224 C2236 1.349 . S
C2225 C2223 1.327 . S
C2225 C2241 1.429 . S
C2225 H2247 0.950 . S
C2226 H2222 0.949 . S
C2226 C2234 1.574 . S
C2226 C2242 1.368 . S
H2227 C2235 0.950 . S
H2228 C2233 0.950 . S
H2229 C2234 0.949 . S
H2230 C2236 0.950 . S
H2231 C2237 0.950 . S
H2232 C2238 0.949 . S
C2233 H2228 0.950 . S
C2233 C2235 1.327 . S
C2233 C2239 1.429 . S
C2234 C2226 1.574 . S
C2234 H2229 0.949 . S
C2234 C2240 1.368 . S
C2235 C2219 1.349 . S
C2235 H2227 0.950 . S
C2235 C2233 1.327 . S
C2236 C2224 1.349 . S
C2236 H2230 0.950 . S
C2236 C2237 1.327 . S
C2237 H2231 0.950 . S
C2237 C2236 1.327 . S
C2237 C2241 1.429 . S
C2238 C2221 1.574 . S
C2238 H2232 0.949 . S
C2238 C2242 1.368 . S
C2239 C2220 1.429 . S
C2239 C2233 1.429 . S
C2239 C2240 1.523 . S
C2240 C2221 1.368 . S
C2240 C2234 1.368 . S
C2240 C2239 1.523 . S
C2241 C2225 1.429 . S
C2241 C2237 1.429 . S
C2241 C2242 1.523 . S
C2242 C2226 1.368 . S
C2242 C2238 1.368 . S
C2242 C2241 1.523 . S
H2243 C2218 0.950 . S
H2244 C2220 0.950 . S
H2245 C2221 0.949 . S
H2246 C2223 0.950 . S
H2247 C2225 0.950 . S
C2248 C2249 1.349 . S
C2248 C2250 1.327 . S
C2248 H2273 0.950 . S
C2249 C2248 1.349 . S
C2249 C2265 1.349 . S
C2250 C2248 1.327 . S
C2250 C2269 1.429 . S
C2250 H2274 0.950 . S
C2251 C2268 1.574 . S
C2251 C2270 1.368 . S
C2251 H2275 0.949 . S
H2252 C2256 0.949 . S
C2253 C2254 1.349 . S
C2253 C2255 1.327 . S
C2253 H2276 0.950 . S
C2254 C2253 1.349 . S
C2254 C2266 1.349 . S
C2255 C2253 1.327 . S
C2255 C2271 1.429 . S
C2255 H2277 0.950 . S
C2256 H2252 0.949 . S
C2256 C2264 1.574 . S
C2256 C2272 1.368 . S
H2257 C2265 0.950 . S
H2258 C2263 0.950 . S
H2259 C2264 0.949 . S
H2260 C2266 0.950 . S
H2261 C2267 0.950 . S
H2262 C2268 0.949 . S
C2263 H2258 0.950 . S
C2263 C2265 1.327 . S
C2263 C2269 1.429 . S
C2264 C2256 1.574 . S
C2264 H2259 0.949 . S
C2264 C2270 1.368 . S
C2265 C2249 1.349 . S
C2265 H2257 0.950 . S
C2265 C2263 1.327 . S
C2266 C2254 1.349 . S
C2266 H2260 0.950 . S
C2266 C2267 1.327 . S
C2267 H2261 0.950 . S
C2267 C2266 1.327 . S
C2267 C2271 1.429 . S
C2268 C2251 1.574 . S
C2268 H2262 0.949 . S
C2268 C2272 1.368 . S
C2269 C2250 1.429 . S
C2269 C2263 1.429 . S
C2269 C2270 1.523 . S
C2270 C2251 1.368 . S
C2270 C2264 1.368 . S
C2270 C2269 1.523 . S
C2271 C2255 1.429 . S
C2271 C2267 1.429 . S
C2271 C2272 1.523 . S
C2272 C2256 1.368 . S
C2272 C2268 1.368 . S
C2272 C2271 1.523 . S
H2273 C2248 0.950 . S
H2274 C2250 0.950 . S
H2275 C2251 0.949 . S
H2276 C2253 0.950 . S
H2277 C2255 0.950 . S
C2278 C2279 1.349 . S
C2278 C2280 1.327 . S
C2278 H2303 0.950 . S
C2279 C2278 1.349 . S
C2279 C2295 1.349 . S
C2280 C2278 1.327 . S
C2280 C2299 1.429 . S
C2280 H2304 0.950 . S
C2281 C2298 1.574 . S
C2281 C2300 1.368 . S
C2281 H2305 0.949 . S
H2282 C2286 0.949 . S
C2283 C2284 1.349 . S
C2283 C2285 1.327 . S
C2283 H2306 0.950 . S
C2284 C2283 1.349 . S
C2284 C2296 1.349 . S
C2285 C2283 1.327 . S
C2285 C2301 1.429 . S
C2285 H2307 0.950 . S
C2286 H2282 0.949 . S
C2286 C2294 1.574 . S
C2286 C2302 1.368 . S
H2287 C2295 0.950 . S
H2288 C2293 0.950 . S
H2289 C2294 0.949 . S
H2290 C2296 0.950 . S
H2291 C2297 0.950 . S
H2292 C2298 0.949 . S
C2293 H2288 0.950 . S
C2293 C2295 1.327 . S
C2293 C2299 1.429 . S
C2294 C2286 1.574 . S
C2294 H2289 0.949 . S
C2294 C2300 1.368 . S
C2295 C2279 1.349 . S
C2295 H2287 0.950 . S
C2295 C2293 1.327 . S
C2296 C2284 1.349 . S
C2296 H2290 0.950 . S
C2296 C2297 1.327 . S
C2297 H2291 0.950 . S
C2297 C2296 1.327 . S
C2297 C2301 1.429 . S
C2298 C2281 1.574 . S
C2298 H2292 0.949 . S
C2298 C2302 1.368 . S
C2299 C2280 1.429 . S
C2299 C2293 1.429 . S
C2299 C2300 1.523 . S
C2300 C2281 1.368 . S
C2300 C2294 1.368 . S
C2300 C2299 1.523 . S
C2301 C2285 1.429 . S
C2301 C2297 1.429 . S
C2301 C2302 1.523 . S
C2302 C2286 1.368 . S
C2302 C2298 1.368 . S
C2302 C2301 1.523 . S
H2303 C2278 0.950 . S
H2304 C2280 0.950 . S
H2305 C2281 0.949 . S
H2306 C2283 0.950 . S
H2307 C2285 0.950 . S
C2308 C2309 1.349 . S
C2308 C2310 1.327 . S
C2308 H2333 0.950 . S
C2309 C2308 1.349 . S
C2309 C2325 1.349 . S
C2310 C2308 1.327 . S
C2310 C2329 1.429 . S
C2310 H2334 0.950 . S
C2311 C2328 1.574 . S
C2311 C2330 1.368 . S
C2311 H2335 0.949 . S
H2312 C2316 0.949 . S
C2313 C2314 1.349 . S
C2313 C2315 1.327 . S
C2313 H2336 0.950 . S
C2314 C2313 1.349 . S
C2314 C2326 1.349 . S
C2315 C2313 1.327 . S
C2315 C2331 1.429 . S
C2315 H2337 0.950 . S
C2316 H2312 0.949 . S
C2316 C2324 1.574 . S
C2316 C2332 1.368 . S
H2317 C2325 0.950 . S
H2318 C2323 0.950 . S
H2319 C2324 0.949 . S
H2320 C2326 0.950 . S
H2321 C2327 0.950 . S
H2322 C2328 0.949 . S
C2323 H2318 0.950 . S
C2323 C2325 1.327 . S
C2323 C2329 1.429 . S
C2324 C2316 1.574 . S
C2324 H2319 0.949 . S
C2324 C2330 1.368 . S
C2325 C2309 1.349 . S
C2325 H2317 0.950 . S
C2325 C2323 1.327 . S
C2326 C2314 1.349 . S
C2326 H2320 0.950 . S
C2326 C2327 1.327 . S
C2327 H2321 0.950 . S
C2327 C2326 1.327 . S
C2327 C2331 1.429 . S
C2328 C2311 1.574 . S
C2328 H2322 0.949 . S
C2328 C2332 1.368 . S
C2329 C2310 1.429 . S
C2329 C2323 1.429 . S
C2329 C2330 1.523 . S
C2330 C2311 1.368 . S
C2330 C2324 1.368 . S
C2330 C2329 1.523 . S
C2331 C2315 1.429 . S
C2331 C2327 1.429 . S
C2331 C2332 1.523 . S
C2332 C2316 1.368 . S
C2332 C2328 1.368 . S
C2332 C2331 1.523 . S
H2333 C2308 0.950 . S
H2334 C2310 0.950 . S
H2335 C2311 0.949 . S
H2336 C2313 0.950 . S
H2337 C2315 0.950 . S
C2338 C2339 1.349 . S
C2338 C2340 1.327 . S
C2338 H2363 0.950 . S
C2339 C2338 1.349 . S
C2339 C2355 1.349 . S
C2340 C2338 1.327 . S
C2340 C2359 1.429 . S
C2340 H2364 0.950 . S
C2341 C2358 1.574 . S
C2341 C2360 1.368 . S
C2341 H2365 0.949 . S
H2342 C2346 0.949 . S
C2343 C2344 1.349 . S
C2343 C2345 1.327 . S
C2343 H2366 0.950 . S
C2344 C2343 1.349 . S
C2344 C2356 1.349 . S
C2345 C2343 1.327 . S
C2345 C2361 1.429 . S
C2345 H2367 0.950 . S
C2346 H2342 0.949 . S
C2346 C2354 1.574 . S
C2346 C2362 1.368 . S
H2347 C2355 0.950 . S
H2348 C2353 0.950 . S
H2349 C2354 0.949 . S
H2350 C2356 0.950 . S
H2351 C2357 0.950 . S
H2352 C2358 0.949 . S
C2353 H2348 0.950 . S
C2353 C2355 1.327 . S
C2353 C2359 1.429 . S
C2354 C2346 1.574 . S
C2354 H2349 0.949 . S
C2354 C2360 1.368 . S
C2355 C2339 1.349 . S
C2355 H2347 0.950 . S
C2355 C2353 1.327 . S
C2356 C2344 1.349 . S
C2356 H2350 0.950 . S
C2356 C2357 1.327 . S
C2357 H2351 0.950 . S
C2357 C2356 1.327 . S
C2357 C2361 1.429 . S
C2358 C2341 1.574 . S
C2358 H2352 0.949 . S
C2358 C2362 1.368 . S
C2359 C2340 1.429 . S
C2359 C2353 1.429 . S
C2359 C2360 1.523 . S
C2360 C2341 1.368 . S
C2360 C2354 1.368 . S
C2360 C2359 1.523 . S
C2361 C2345 1.429 . S
C2361 C2357 1.429 . S
C2361 C2362 1.523 . S
C2362 C2346 1.368 . S
C2362 C2358 1.368 . S
C2362 C2361 1.523 . S
H2363 C2338 0.950 . S
H2364 C2340 0.950 . S
H2365 C2341 0.949 . S
H2366 C2343 0.950 . S
H2367 C2345 0.950 . S
C449 C135 1.000 . S
C454 C3 1.060 . S
C479 C17 1.059 . S
C484 C373 0.999 . S
C509 C163 1.000 . S
C514 C31 1.060 . S
C539 C345 0.999 . S
C544 C45 1.059 . S
C569 C59 1.060 . S
C574 C219 1.000 . S
C599 C401 0.999 . S
C604 C73 1.059 . S
C629 C87 1.060 . S
C634 C191 1.000 . S
C659 C429 0.999 . S
C664 C101 1.059 . S
C689 C23 1.000 . S
C694 C115 1.060 . S
C719 C129 1.059 . S
C724 C261 0.999 . S
C749 C51 1.000 . S
C754 C143 1.060 . S
C779 C157 1.059 . S
C784 C233 0.999 . S
C809 C171 1.060 . S
C814 C107 1.000 . S
C839 C289 0.999 . S
C844 C185 1.059 . S
C869 C199 1.060 . S
C874 C79 1.000 . S
C899 C317 0.999 . S
C904 C213 1.059 . S
C929 C359 1.000 . S
C934 C227 1.060 . S
C959 C149 0.999 . S
C964 C241 1.059 . S
C989 C255 1.060 . S
C994 C387 1.000 . S
C1019 C121 0.999 . S
C1024 C269 1.059 . S
C1049 C443 1.000 . S
C1054 C283 1.060 . S
C1079 C297 1.059 . S
C1084 C177 0.999 . S
C1109 C415 1.000 . S
C1114 C311 1.060 . S
C1139 C205 0.999 . S
C1144 C325 1.059 . S
C1169 C247 1.000 . S
C1174 C339 1.060 . S
C1199 C353 1.059 . S
C1204 C37 0.999 . S
C1229 C367 1.060 . S
C1234 C275 1.000 . S
C1259 C381 1.059 . S
C1264 C9 0.999 . S
C1289 C331 1.000 . S
C1294 C395 1.060 . S
C1319 C409 1.059 . S
C1324 C65 0.999 . S
C1349 C423 1.060 . S
C1354 C303 1.000 . S
C1379 C437 1.059 . S
C1384 C93 0.999 . S
C1409 C344 1.391 . S
C1414 C8 1.391 . S
C1439 C22 1.392 . S
C1444 C134 1.392 . S
C1469 C36 1.391 . S
C1474 C372 1.391 . S
C1499 C50 1.392 . S
C1504 C162 1.392 . S
C1529 C64 1.391 . S
C1534 C400 1.391 . S
C1559 C78 1.392 . S
C1564 C190 1.392 . S
C1589 C428 1.391 . S
C1594 C92 1.391 . S
C1619 C106 1.392 . S
C1624 C218 1.392 . S
C1649 C120 1.391 . S
C1654 C232 1.391 . S
C1679 C148 1.391 . S
C1684 C260 1.391 . S
C1709 C288 1.391 . S
C1714 C176 1.391 . S
C1739 C316 1.391 . S
C1744 C204 1.391 . S
C1769 C246 1.392 . S
C1774 C358 1.392 . S
C1799 C386 1.392 . S
C1804 C274 1.392 . S
C1829 C302 1.392 . S
C1834 C414 1.392 . S
C1859 C442 1.392 . S
C1864 C330 1.392 . S
C1889 C301 1.791 . S
C1894 C7 1.791 . S
C1919 C315 1.791 . S
C1924 C21 1.791 . S
C1949 C35 1.791 . S
C1954 C329 1.791 . S
C1979 C287 1.791 . S
C1984 C49 1.791 . S
C2009 C273 1.791 . S
C2014 C63 1.791 . S
C2039 C231 1.791 . S
C2044 C77 1.791 . S
C2069 C91 1.791 . S
C2074 C245 1.791 . S
C2099 C259 1.791 . S
C2104 C105 1.791 . S
C2129 C413 1.791 . S
C2134 C119 1.791 . S
C2159 C427 1.791 . S
C2164 C133 1.791 . S
C2189 C441 1.791 . S
C2194 C147 1.791 . S
C2219 C161 1.791 . S
C2224 C399 1.791 . S
C2249 C385 1.791 . S
C2254 C175 1.791 . S
C2279 C343 1.791 . S
C2284 C189 1.791 . S
C2309 C357 1.791 . S
C2314 C203 1.791 . S
C2339 C371 1.791 . S
C2344 C217 1.791 . S
