# Generated by pormake.
# Topology crs, (6)-cn, num edge types: 1
# Building blocks:
#     Node 0, Type 0, BuildingBlock: UKALOJ_clean_sbu_0, # of connection points: 6
#     Node 1, Type 0, BuildingBlock: UKALOJ_clean_sbu_0, # of connection points: 6
#     Node 2, Type 0, BuildingBlock: UKALOJ_clean_sbu_0, # of connection points: 6
#     Node 3, Type 0, BuildingBlock: UKALOJ_clean_sbu_0, # of connection points: 6
#     Node 4, Type 0, BuildingBlock: UKALOJ_clean_sbu_0, # of connection points: 6
#     Node 5, Type 0, BuildingBlock: UKALOJ_clean_sbu_0, # of connection points: 6
#     Node 6, Type 0, BuildingBlock: UKALOJ_clean_sbu_0, # of connection points: 6
#     Node 7, Type 0, BuildingBlock: UKALOJ_clean_sbu_0, # of connection points: 6
#     Node 8, Type 0, BuildingBlock: UKALOJ_clean_sbu_0, # of connection points: 6
#     Node 9, Type 0, BuildingBlock: UKALOJ_clean_sbu_0, # of connection points: 6
#     Node 10, Type 0, BuildingBlock: UKALOJ_clean_sbu_0, # of connection points: 6
#     Node 11, Type 0, BuildingBlock: UKALOJ_clean_sbu_0, # of connection points: 6
#     Node 12, Type 0, BuildingBlock: UKALOJ_clean_sbu_0, # of connection points: 6
#     Node 13, Type 0, BuildingBlock: UKALOJ_clean_sbu_0, # of connection points: 6
#     Node 14, Type 0, BuildingBlock: UKALOJ_clean_sbu_0, # of connection points: 6
#     Node 15, Type 0, BuildingBlock: UKALOJ_clean_sbu_0, # of connection points: 6
#     Edge 16, Type (0, 0), BuildingBlock: KIFKEQ_clean_linker_1, # of connection points: 2
#     Edge 17, Type (0, 0), BuildingBlock: KIFKEQ_clean_linker_1, # of connection points: 2
#     Edge 18, Type (0, 0), BuildingBlock: KIFKEQ_clean_linker_1, # of connection points: 2
#     Edge 19, Type (0, 0), BuildingBlock: KIFKEQ_clean_linker_1, # of connection points: 2
#     Edge 20, Type (0, 0), BuildingBlock: KIFKEQ_clean_linker_1, # of connection points: 2
#     Edge 21, Type (0, 0), BuildingBlock: KIFKEQ_clean_linker_1, # of connection points: 2
#     Edge 22, Type (0, 0), BuildingBlock: KIFKEQ_clean_linker_1, # of connection points: 2
#     Edge 23, Type (0, 0), BuildingBlock: KIFKEQ_clean_linker_1, # of connection points: 2
#     Edge 24, Type (0, 0), BuildingBlock: KIFKEQ_clean_linker_1, # of connection points: 2
#     Edge 25, Type (0, 0), BuildingBlock: KIFKEQ_clean_linker_1, # of connection points: 2
#     Edge 26, Type (0, 0), BuildingBlock: KIFKEQ_clean_linker_1, # of connection points: 2
#     Edge 27, Type (0, 0), BuildingBlock: KIFKEQ_clean_linker_1, # of connection points: 2
#     Edge 28, Type (0, 0), BuildingBlock: KIFKEQ_clean_linker_1, # of connection points: 2
#     Edge 29, Type (0, 0), BuildingBlock: KIFKEQ_clean_linker_1, # of connection points: 2
#     Edge 30, Type (0, 0), BuildingBlock: KIFKEQ_clean_linker_1, # of connection points: 2
#     Edge 31, Type (0, 0), BuildingBlock: KIFKEQ_clean_linker_1, # of connection points: 2
#     Edge 32, Type (0, 0), BuildingBlock: KIFKEQ_clean_linker_1, # of connection points: 2
#     Edge 33, Type (0, 0), BuildingBlock: KIFKEQ_clean_linker_1, # of connection points: 2
#     Edge 34, Type (0, 0), BuildingBlock: KIFKEQ_clean_linker_1, # of connection points: 2
#     Edge 35, Type (0, 0), BuildingBlock: KIFKEQ_clean_linker_1, # of connection points: 2
#     Edge 36, Type (0, 0), BuildingBlock: KIFKEQ_clean_linker_1, # of connection points: 2
#     Edge 37, Type (0, 0), BuildingBlock: KIFKEQ_clean_linker_1, # of connection points: 2
#     Edge 38, Type (0, 0), BuildingBlock: KIFKEQ_clean_linker_1, # of connection points: 2
#     Edge 39, Type (0, 0), BuildingBlock: KIFKEQ_clean_linker_1, # of connection points: 2
#     Edge 40, Type (0, 0), BuildingBlock: KIFKEQ_clean_linker_1, # of connection points: 2
#     Edge 41, Type (0, 0), BuildingBlock: KIFKEQ_clean_linker_1, # of connection points: 2
#     Edge 42, Type (0, 0), BuildingBlock: KIFKEQ_clean_linker_1, # of connection points: 2
#     Edge 43, Type (0, 0), BuildingBlock: KIFKEQ_clean_linker_1, # of connection points: 2
#     Edge 44, Type (0, 0), BuildingBlock: KIFKEQ_clean_linker_1, # of connection points: 2
#     Edge 45, Type (0, 0), BuildingBlock: KIFKEQ_clean_linker_1, # of connection points: 2
#     Edge 46, Type (0, 0), BuildingBlock: KIFKEQ_clean_linker_1, # of connection points: 2
#     Edge 47, Type (0, 0), BuildingBlock: KIFKEQ_clean_linker_1, # of connection points: 2
#     Edge 48, Type (0, 0), BuildingBlock: KIFKEQ_clean_linker_1, # of connection points: 2
#     Edge 49, Type (0, 0), BuildingBlock: KIFKEQ_clean_linker_1, # of connection points: 2
#     Edge 50, Type (0, 0), BuildingBlock: KIFKEQ_clean_linker_1, # of connection points: 2
#     Edge 51, Type (0, 0), BuildingBlock: KIFKEQ_clean_linker_1, # of connection points: 2
#     Edge 52, Type (0, 0), BuildingBlock: KIFKEQ_clean_linker_1, # of connection points: 2
#     Edge 53, Type (0, 0), BuildingBlock: KIFKEQ_clean_linker_1, # of connection points: 2
#     Edge 54, Type (0, 0), BuildingBlock: KIFKEQ_clean_linker_1, # of connection points: 2
#     Edge 55, Type (0, 0), BuildingBlock: KIFKEQ_clean_linker_1, # of connection points: 2
#     Edge 56, Type (0, 0), BuildingBlock: KIFKEQ_clean_linker_1, # of connection points: 2
#     Edge 57, Type (0, 0), BuildingBlock: KIFKEQ_clean_linker_1, # of connection points: 2
#     Edge 58, Type (0, 0), BuildingBlock: KIFKEQ_clean_linker_1, # of connection points: 2
#     Edge 59, Type (0, 0), BuildingBlock: KIFKEQ_clean_linker_1, # of connection points: 2
#     Edge 60, Type (0, 0), BuildingBlock: KIFKEQ_clean_linker_1, # of connection points: 2
#     Edge 61, Type (0, 0), BuildingBlock: KIFKEQ_clean_linker_1, # of connection points: 2
#     Edge 62, Type (0, 0), BuildingBlock: KIFKEQ_clean_linker_1, # of connection points: 2
#     Edge 63, Type (0, 0), BuildingBlock: KIFKEQ_clean_linker_1, # of connection points: 2
# Relax obj value: 0.485
# Max RMSD: 0.347
# Mean RMSD: 0.257
data_MOF--net-crs--node1-UKALOJ_clean_sbu_0--edge1-KIFKEQ_clean_linker_1
_symmetry_space_group_name_H-M    P1
_symmetry_Int_Tables_number       1
_symmetry_cell_setting            triclinic
loop_
_symmetry_equiv_pos_as_xyz
'x, y, z'
_cell_length_a     46.305861
_cell_length_b     46.350216
_cell_length_c     41.538217
_cell_angle_alpha  86.685969
_cell_angle_beta   93.39052
_cell_angle_gamma 102.46395
loop_
_atom_site_label
_atom_site_type_symbol
_atom_site_fract_x
_atom_site_fract_y
_atom_site_fract_z
_atom_type_partial_charge
Zn0 Zn -0.0055 0.04627 0.97628 0.0
O1 O 0.0346 0.04825 0.00432 0.0
C2 C 0.02567 0.09308 0.93114 0.0
Zn3 Zn 0.01586 0.02811 0.93777 0.0
C4 C 0.05646 0.03905 0.99487 0.0
O5 O 0.05529 0.02967 0.96658 0.0
C6 C 0.95328 0.03331 0.91985 0.0
O7 O 0.00018 0.98546 0.95804 0.0
O8 O 0.97976 0.00339 -0.00335 0.0
N9 N 0.03371 0.01143 0.90114 0.0
C10 C 0.02214 0.98935 0.88139 0.0
C11 C 0.06689 0.00601 0.86898 0.0
N12 N 0.06145 0.02189 0.89326 0.0
N13 N 0.04242 0.98574 0.86081 0.0
C14 C 0.98753 0.08853 0.02905 0.0
C15 C 0.94724 0.0666 0.05005 0.0
N16 N 0.97706 0.06371 0.0129 0.0
N17 N 0.95201 0.05013 0.02596 0.0
N18 N 0.96911 0.09094 0.05224 0.0
H19 H 0.02734 0.11764 0.04699 0.0
H20 H 0.0127 0.12879 0.00842 0.0
H21 H 0.03204 0.09912 0.01138 0.0
C22 C 0.01666 0.10947 0.02367 0.0
C23 C 0.99189 0.9697 0.88377 0.0
H24 H -0.00635 0.94615 0.88485 0.0
H25 H 0.97807 0.97347 0.86192 0.0
H26 H 0.98035 0.97388 0.90489 0.0
O27 O 0.97603 0.02617 0.90975 0.0
O28 O 0.95429 0.043 0.94801 0.0
C29 C 0.9859 0.98145 0.98363 0.0
O30 O 0.00967 0.08879 0.95545 0.0
O31 O 0.03211 0.07109 0.91857 0.0
Zn32 Zn 0.05203 0.27383 0.27613 0.0
O33 O 0.03763 0.24082 0.24205 0.0
C34 C 0.09168 0.3096 0.22811 0.0
Zn35 Zn 0.02917 0.30402 0.24623 0.0
C36 C 0.02258 0.24598 0.21663 0.0
O37 O 0.0161 0.2712 0.21187 0.0
C38 C 0.05733 0.33148 0.30664 0.0
O39 O 0.98915 0.28663 0.26999 0.0
O40 O 0.01242 0.25791 0.30045 0.0
N41 N 0.00973 0.33193 0.2173 0.0
C42 C -0.00703 0.35116 0.22354 0.0
C43 C -0.00311 0.35265 0.17254 0.0
N44 N 0.0123 0.33303 0.18566 0.0
N45 N 0.98473 0.36458 0.19578 0.0
C46 C 0.08678 0.22539 0.29836 0.0
C47 C 0.07886 0.22019 0.34865 0.0
N48 N 0.07141 0.24572 0.30499 0.0
N49 N 0.06672 0.24261 0.3363 0.0
N50 N 0.0918 0.20931 0.32532 0.0
H51 H 0.08068 0.19757 0.25816 0.0
H52 H 0.11796 0.2173 0.26559 0.0
H53 H 0.09087 0.23654 0.24708 0.0
C54 C 0.09446 0.21916 0.26526 0.0
C55 C 0.98358 0.35562 0.25655 0.0
H56 H 0.96 0.35731 0.25556 0.0
H57 H -0.00269 0.37647 0.26568 0.0
H58 H 0.98669 0.33758 0.27401 0.0
O59 O 0.04231 0.3366 0.28115 0.0
O60 O 0.06532 0.30688 0.31055 0.0
C61 C 0.98883 0.26692 0.29261 0.0
O62 O 0.09154 0.28982 0.2507 0.0
O63 O 0.06874 0.32021 0.22214 0.0
Zn64 Zn 0.75035 0.25568 0.53901 0.0
O65 O 0.70752 0.24005 0.5203 0.0
C66 C 0.75475 0.19316 0.55874 0.0
Zn67 Zn 0.76554 0.23155 0.5007 0.0
C68 C 0.70072 0.2233 0.49675 0.0
O69 O 0.72117 0.21546 0.48242 0.0
C70 C 0.81436 0.26377 0.54513 0.0
O71 O 0.76722 0.27078 0.47147 0.0
O72 O 0.75204 0.29431 0.50929 0.0
N73 N 0.78272 0.21346 0.46401 0.0
C74 C 0.80765 0.22414 0.44805 0.0
C75 C 0.78727 0.18289 0.42814 0.0
N76 N 0.77002 0.18785 0.4515 0.0
N77 N 0.81106 0.20534 0.42577 0.0
C78 C 0.71293 0.26322 0.59572 0.0
C79 C 0.72745 0.30905 0.60465 0.0
N80 N 0.73422 0.27461 0.575 0.0
N81 N 0.74335 0.30304 0.58069 0.0
N82 N 0.70849 0.28432 0.61474 0.0
H83 H 0.69674 0.22074 0.57381 0.0
H84 H 0.67138 0.23165 0.59929 0.0
H85 H 0.70323 0.2191 0.61662 0.0
C86 C 0.69506 0.23199 0.59605 0.0
C87 C 0.82824 0.25356 0.45282 0.0
H88 H 0.83527 0.26416 0.42908 0.0
H89 H 0.84841 0.25003 0.46678 0.0
H90 H 0.8182 0.26878 0.46569 0.0
O91 O 0.80923 0.24743 0.52099 0.0
O92 O 0.79301 0.2715 0.55752 0.0
C93 C 0.7601 0.29383 0.48067 0.0
O94 O 0.74886 0.21674 0.56815 0.0
O95 O 0.76273 0.19241 0.53009 0.0
Zn96 Zn 0.69756 0.97597 0.76993 0.0
O97 O 0.70658 0.0136 0.73717 0.0
C98 C 0.65557 0.94699 0.7185 0.0
Zn99 Zn 0.72003 0.95315 0.7359 0.0
C100 C 0.72003 0.01349 0.71132 0.0
O101 O 0.72858 0.9904 0.70456 0.0
C102 C 0.70073 0.91582 0.79533 0.0
O103 O 0.76077 0.9692 0.76157 0.0
O104 O 0.73835 0.99111 0.79497 0.0
N105 N 0.73961 0.92986 0.70587 0.0
C106 C 0.76134 0.91462 0.7115 0.0
C107 C 0.74509 0.90807 0.66278 0.0
N108 N 0.72961 0.92575 0.67559 0.0
N109 N 0.76503 0.90057 0.68485 0.0
C110 C 0.6559 0.01422 0.79473 0.0
C111 C 0.66931 0.01688 0.84463 0.0
N112 N 0.67727 -0.00149 0.80014 0.0
N113 N 0.68549 0.0002 0.8312 0.0
N114 N 0.65039 0.02575 0.82228 0.0
H115 H 0.65412 0.0147 0.74233 0.0
H116 H 0.64018 0.04367 0.75938 0.0
H117 H 0.61894 0.00651 0.76074 0.0
C118 C 0.64176 0.02009 0.76228 0.0
C119 C 0.78071 0.91624 0.74193 0.0
H120 H 0.79517 0.93865 0.74272 0.0
H121 H 0.79542 0.90031 0.74331 0.0
H122 H 0.76701 0.91273 0.76336 0.0
O123 O 0.71204 0.91602 0.76817 0.0
O124 O 0.6906 0.93801 0.80237 0.0
C125 C 0.76188 0.98476 0.78602 0.0
O126 O 0.65694 0.96084 0.74425 0.0
O127 O 0.67862 0.93917 0.71003 0.0
Zn128 Zn 0.54021 0.77077 0.27222 0.0
O129 O 0.53017 0.73231 0.2449 0.0
C130 C 0.58369 0.80228 0.22687 0.0
Zn131 Zn 0.51894 0.79396 0.23204 0.0
C132 C 0.51696 0.73272 0.21723 0.0
O133 O 0.51073 0.75654 0.20528 0.0
C134 C 0.54197 0.83208 0.2867 0.0
O135 O 0.47733 0.77815 0.25138 0.0
O136 O 0.49866 0.75712 0.29222 0.0
N137 N 0.50066 0.8161 0.19497 0.0
C138 C 0.484 0.83655 0.19528 0.0
C139 C 0.48946 0.82947 0.14593 0.0
N140 N 0.50405 0.81172 0.16429 0.0
N141 N 0.47704 0.84551 0.16491 0.0
C142 C 0.57819 0.73145 0.31029 0.0
C143 C 0.56267 0.73 0.35779 0.0
N144 N 0.55816 0.74871 0.30944 0.0
N145 N 0.54871 0.74795 0.33903 0.0
N146 N 0.58154 0.71963 0.34039 0.0
H147 H 0.59291 0.70054 0.28173 0.0
H148 H 0.61629 0.73689 0.28208 0.0
H149 H 0.58203 0.73087 0.25847 0.0
C150 C 0.59292 0.72451 0.28133 0.0
C151 C 0.47294 0.84649 0.2251 0.0
H152 H 0.47365 0.83059 0.24584 0.0
H153 H 0.44987 0.84947 0.22061 0.0
H154 H 0.48697 0.86817 0.23137 0.0
O155 O 0.52766 0.83157 0.25965 0.0
O156 O 0.54967 0.80888 0.29855 0.0
C157 C 0.47542 0.76248 0.27755 0.0
O158 O 0.5815 0.78537 0.25216 0.0
O159 O 0.56064 0.80875 0.21284 0.0
Zn160 Zn 0.23284 0.7755 0.46806 0.0
O161 O 0.19791 0.74055 0.48145 0.0
C162 C 0.27356 0.74467 0.50661 0.0
Zn163 Zn 0.25004 0.74532 0.43875 0.0
C164 C 0.19451 0.71605 0.4681 0.0
O165 O 0.21272 0.71253 0.44785 0.0
C166 C 0.2894 0.80475 0.44026 0.0
O167 O 0.22784 0.75928 0.39722 0.0
O168 O 0.20724 0.78591 0.42711 0.0
N169 N 0.26498 0.71614 0.41301 0.0
C170 C 0.27871 0.71951 0.38498 0.0
C171 C 0.27735 0.67539 0.40337 0.0
N172 N 0.26371 0.68859 0.42417 0.0
N173 N 0.28676 0.69421 0.37832 0.0
C174 C 0.20241 0.80032 0.52122 0.0
C175 C 0.19937 0.84297 0.50116 0.0
N176 N 0.21652 0.80427 0.49339 0.0
N177 N 0.2149 0.83095 0.4811 0.0
N178 N 0.1917 0.82427 0.5267 0.0
H179 H 0.21316 0.75875 0.53857 0.0
H180 H 0.17422 0.75909 0.53465 0.0
H181 H 0.1965 0.77703 0.56749 0.0
C182 C 0.19651 0.77213 0.54165 0.0
C183 C 0.28598 0.74815 0.36529 0.0
H184 H 0.27845 0.76623 0.3761 0.0
H185 H 0.27468 0.74531 0.34106 0.0
H186 H 0.31021 0.75465 0.36226 0.0
O187 O 0.28853 0.77893 0.43097 0.0
O188 O 0.26773 0.80972 0.45477 0.0
C189 C 0.21015 0.77637 0.39969 0.0
O190 O 0.25944 0.76514 0.50846 0.0
O191 O 0.272 0.7314 0.48046 0.0
Zn192 Zn 0.34091 0.62379 0.75964 0.0
O193 O 0.34763 0.65776 0.72383 0.0
C194 C 0.29769 0.58753 0.71343 0.0
Zn195 Zn 0.36123 0.59751 0.72825 0.0
C196 C 0.36134 0.65657 0.69853 0.0
O197 O 0.37169 0.63381 0.69445 0.0
C198 C 0.33687 0.56472 0.78894 0.0
O199 O 0.40148 0.61188 0.75436 0.0
O200 O 0.38228 0.64114 0.78243 0.0
N201 N 0.38041 0.57234 0.70071 0.0
C202 C 0.39237 0.54875 0.70881 0.0
C203 C 0.39083 0.5537 0.65748 0.0
N204 N 0.37973 0.57557 0.66878 0.0
N205 N 0.39896 0.53666 0.68221 0.0
C206 C 0.29632 0.65846 0.78192 0.0
C207 C 0.31195 0.66815 0.83023 0.0
N208 N 0.3214 0.64837 0.7873 0.0
N209 N 0.33125 0.65462 0.81726 0.0
N210 N 0.28994 0.67083 0.8084 0.0
H211 H 0.29193 0.65706 0.72998 0.0
H212 H 0.26601 0.67479 0.74785 0.0
H213 H 0.26119 0.63527 0.75136 0.0
C214 C 0.27794 0.65637 0.75086 0.0
C215 C 0.39801 0.53754 0.74266 0.0
H216 H 0.40196 0.55574 0.75961 0.0
H217 H 0.41745 0.52702 0.74401 0.0
H218 H 0.37852 0.52052 0.75002 0.0
O219 O 0.34818 0.56106 0.76267 0.0
O220 O 0.33354 0.59024 0.79489 0.0
C221 C 0.40431 0.63047 0.77623 0.0
O222 O 0.29933 0.60376 0.73738 0.0
O223 O 0.32118 0.58284 0.7026 0.0
Zn224 Zn 0.00462 0.48087 0.5334 0.0
O225 O 0.01821 0.46396 0.49287 0.0
C226 C 0.98525 0.4211 0.5621 0.0
Zn227 Zn 0.04016 0.46767 0.56492 0.0
C228 C 0.03944 0.45044 0.49564 0.0
O229 O 0.05286 0.44831 0.52316 0.0
C230 C 0.004 0.49899 0.60104 0.0
O231 O 0.06921 0.50812 0.552 0.0
O232 O 0.03264 0.52103 0.52336 0.0
N233 N 0.07388 0.45585 0.59312 0.0
C234 C 0.0924 0.47166 0.61513 0.0
C235 C 0.10766 0.43211 0.60962 0.0
N236 N 0.08328 0.43118 0.58988 0.0
N237 N 0.11358 0.45712 0.62605 0.0
C238 C 0.95444 0.49131 0.48248 0.0
C239 C 0.95146 0.53408 0.4966 0.0
N240 N 0.97347 0.49811 0.50801 0.0
N241 N 0.97149 0.52462 0.51665 0.0
N242 N 0.94038 0.51376 0.47473 0.0
H243 H 0.95555 0.44507 0.48328 0.0
H244 H 0.96307 0.46482 0.44528 0.0
H245 H 0.92556 0.45535 0.45836 0.0
C246 C 0.94917 0.46236 0.46652 0.0
C247 C 0.09151 0.50246 0.62419 0.0
H248 H 0.07713 0.51327 0.60787 0.0
H249 H 0.1141 0.51671 0.62452 0.0
H250 H 0.08312 0.50141 0.64878 0.0
O251 O 0.02634 0.48724 0.6056 0.0
O252 O 0.99076 0.49784 0.57354 0.0
C253 C 0.0592 0.5271 0.53406 0.0
O254 O 0.97671 0.44032 0.54293 0.0
O255 O 0.01076 0.42691 0.57646 0.0
Zn256 Zn 0.22968 0.31621 0.9694 0.0
O257 O 0.27059 0.34407 0.98121 0.0
C258 C 0.25949 0.27929 0.93088 0.0
Zn259 Zn 0.24416 0.28008 -0.00148 0.0
C260 C 0.291 0.33363 -0.00391 0.0
O261 O 0.28565 0.30696 0.00657 0.0
C262 C 0.18352 0.2617 0.96981 0.0
O263 O 0.22975 0.29538 0.03997 0.0
O264 O 0.21107 0.32888 0.01143 0.0
N265 N 0.25937 0.24788 0.0244 0.0
C266 C 0.24939 0.22901 0.0491 0.0
C267 C 0.29331 0.22459 0.04107 0.0
N268 N 0.28652 0.24493 0.01932 0.0
N269 N 0.27048 0.21427 0.06015 0.0
C270 C 0.23277 0.36866 0.91965 0.0
C271 C 0.19637 0.38703 0.9308 0.0
N272 N 0.21799 0.35065 0.94266 0.0
N273 N 0.19526 0.36202 0.94945 0.0
N274 N 0.21944 0.3913 0.91156 0.0
H275 H 0.27434 0.35368 0.9235 0.0
H276 H 0.27551 0.38757 0.9002 0.0
H277 H 0.25637 0.35332 0.88393 0.0
C278 C 0.26144 0.36562 0.90641 0.0
C279 C 0.21964 0.22603 0.06295 0.0
H280 H 0.22165 0.22462 0.08973 0.0
H281 H 0.20475 0.20549 0.05457 0.0
H282 H 0.20906 0.2445 0.05471 0.0
O283 O 0.2025 0.25287 0.98918 0.0
O284 O 0.18904 0.28796 0.95755 0.0
C285 C 0.21548 0.31593 0.03861 0.0
O286 O 0.24848 0.30224 0.9282 0.0
O287 O 0.25915 0.26502 0.95779 0.0
Zn288 Zn 0.22104 0.99215 0.24113 0.0
O289 O 0.24052 0.03603 0.22908 0.0
C290 C 0.19439 0.98705 0.17462 0.0
Zn291 Zn 0.25099 0.97826 0.20809 0.0
C292 C 0.26076 0.04294 0.209 0.0
O293 O 0.27003 0.02269 0.19606 0.0
C294 C 0.21038 0.92743 0.24007 0.0
O295 O 0.28331 0.97807 0.24666 0.0
O296 O 0.25397 0.9927 0.27874 0.0
N297 N 0.27692 0.96359 0.17739 0.0
C298 C 0.30654 0.96705 0.17692 0.0
C299 C 0.28743 0.93535 0.14234 0.0
N300 N 0.2651 0.94411 0.15564 0.0
N301 N 0.31372 0.94929 0.15539 0.0
C302 C 0.1787 0.02617 0.27044 0.0
C303 C 0.17916 0.01005 0.31957 0.0
N304 N 0.19513 0.00537 0.2728 0.0
N305 N 0.19517 -0.00478 0.30328 0.0
N306 N 0.16836 0.02936 0.2994 0.0
H307 H 0.17822 0.06852 0.24658 0.0
H308 H 0.15127 0.03816 0.23094 0.0
H309 H 0.18935 0.04268 0.22153 0.0
C310 C 0.17446 0.04493 0.24058 0.0
C311 C 0.32836 0.98877 0.19646 0.0
H312 H 0.3194 0.00846 0.20057 0.0
H313 H 0.34949 -0.00415 0.18407 0.0
H314 H 0.33299 0.9783 0.22031 0.0
O315 O 0.23114 0.93372 0.2205 0.0
O316 O 0.20174 0.9481 0.25286 0.0
C317 C 0.27871 0.98637 0.27416 0.0
O318 O 0.18887 0.99242 0.20301 0.0
O319 O 0.21866 0.97969 0.16986 0.0
Zn320 Zn 0.47727 0.23157 0.78227 0.0
O321 O 0.4528 0.1979 0.7531 0.0
C322 C 0.51962 0.25005 0.72845 0.0
Zn323 Zn 0.46417 0.26322 0.74461 0.0
C324 C 0.43769 0.20288 0.72764 0.0
O325 O 0.43772 0.22939 0.71802 0.0
C326 C 0.50469 0.29173 0.79864 0.0
O327 O 0.4281 0.26305 0.77294 0.0
O328 O 0.43884 0.22969 0.80884 0.0
N329 N 0.45166 0.29439 0.71317 0.0
C330 C 0.44882 0.32216 0.71781 0.0
C331 C 0.4389 0.31449 0.66784 0.0
N332 N 0.44544 0.28964 0.68212 0.0
N333 N 0.44116 0.33525 0.68974 0.0
C334 C 0.50726 0.17987 0.80551 0.0
C335 C 0.50262 0.17634 0.85637 0.0
N336 N 0.49152 0.19991 0.81249 0.0
N337 N 0.48852 0.19754 0.84414 0.0
N338 N 0.51459 0.16504 0.83251 0.0
H339 H 0.49918 0.17984 0.75355 0.0
H340 H 0.51606 0.15052 0.7707 0.0
H341 H 0.53756 0.18756 0.76744 0.0
C342 C 0.51522 0.17414 0.7723 0.0
C343 C 0.45187 0.33593 0.74999 0.0
H344 H 0.43749 0.35219 0.75041 0.0
H345 H 0.47517 0.34776 0.75441 0.0
H346 H 0.44593 0.31892 0.76968 0.0
O347 O 0.49185 0.29643 0.77158 0.0
O348 O 0.50127 0.26555 0.81095 0.0
C349 C 0.42181 0.24674 0.79829 0.0
O350 O 0.51564 0.23567 0.75535 0.0
O351 O 0.4999 0.26319 0.71642 0.0
Zn352 Zn 0.01702 0.73313 0.74953 0.0
O353 O 0.01349 0.6925 0.7287 0.0
C354 C 0.03927 0.76391 0.68792 0.0
Zn355 Zn 0.98069 0.7417 0.71511 0.0
C356 C -0.00599 0.68304 0.70679 0.0
O357 O 0.97611 0.69905 0.69579 0.0
C358 C 0.00519 0.79159 0.75845 0.0
O359 O 0.9503 0.72206 0.74978 0.0
O360 O 0.98599 0.7127 0.7831 0.0
N361 N 0.94685 0.75195 0.68522 0.0
C362 C 0.92301 0.76234 0.69246 0.0
C363 C 0.9249 0.7652 0.64122 0.0
N364 N 0.94788 0.75365 0.65334 0.0
N365 N 0.9088 0.77053 0.66532 0.0
C366 C 0.07683 0.71953 0.77662 0.0
C367 C 0.07339 0.72198 0.82734 0.0
N368 N 0.05009 0.72522 0.78111 0.0
N369 N 0.04795 0.72666 0.81263 0.0
N370 N 0.0919 0.71772 0.80517 0.0
H371 H 0.06908 0.70786 0.72665 0.0
H372 H 0.10043 0.6964 0.74744 0.0
H373 H 0.10264 0.73457 0.73565 0.0
C374 C 0.08762 0.71414 0.74466 0.0
C375 C 0.91471 0.76666 0.726 0.0
H376 H 0.93392 0.76943 0.74342 0.0
H377 H 0.89803 0.74697 0.73401 0.0
H378 H 0.90468 0.78631 0.72646 0.0
O379 O 0.98678 0.78418 0.73494 0.0
O380 O 0.02039 0.77352 0.77025 0.0
C381 C 0.95861 0.71117 0.77657 0.0
O382 O 0.04768 0.75426 0.71538 0.0
O383 O 0.01175 0.7608 0.68067 0.0
Zn384 Zn 0.72373 0.50754 0.28233 0.0
O385 O 0.72616 0.54568 0.25063 0.0
C386 C 0.69001 0.46967 0.23177 0.0
Zn387 Zn 0.7529 0.49019 0.2513 0.0
C388 C 0.74201 0.54851 0.22622 0.0
O389 O 0.755 0.52802 0.22048 0.0
C390 C 0.7367 0.45024 0.30834 0.0
O391 O 0.7898 0.51256 0.27826 0.0
O392 O 0.76076 0.52888 0.30948 0.0
N393 N 0.77889 0.47544 0.22115 0.0
C394 C 0.80558 0.46835 0.22558 0.0
C395 C 0.79167 0.46204 0.17611 0.0
N396 N 0.77031 0.47155 0.1904 0.0
N397 N 0.81411 0.4602 0.19766 0.0
C398 C 0.69569 0.54824 0.3226 0.0
C399 C 0.6566 0.51828 0.33756 0.0
N400 N 0.69611 0.52159 0.31146 0.0
N401 N 0.67199 0.50296 0.32113 0.0
N402 N 0.67101 0.54677 0.33905 0.0
H403 H 0.73502 0.57249 0.29922 0.0
H404 H 0.73089 0.58302 0.33891 0.0
H405 H 0.7078 0.59391 0.30615 0.0
C406 C 0.71862 0.5759 0.31601 0.0
C407 C 0.82251 0.46784 0.25744 0.0
H408 H 0.80741 0.46382 0.27769 0.0
H409 H 0.838 0.48952 0.26022 0.0
H410 H 0.83572 0.45045 0.25858 0.0
O411 O 0.75102 0.45231 0.28283 0.0
O412 O 0.7226 0.47003 0.31358 0.0
C413 C 0.78655 0.52688 0.30246 0.0
O414 O 0.6865 0.48497 0.25506 0.0
O415 O 0.71593 0.46821 0.22489 0.0
Zn416 Zn 0.78611 0.78483 0.04815 0.0
O417 O 0.74114 0.76286 0.04074 0.0
C418 C 0.80017 0.73396 0.08738 0.0
Zn419 Zn 0.80357 0.75523 0.01841 0.0
C420 C 0.73773 0.74001 0.02427 0.0
O421 O 0.76015 0.73276 0.0137 0.0
C422 C 0.8524 0.79983 0.04161 0.0
O423 O 0.7956 0.78121 0.97598 0.0
O424 O 0.78134 0.81198 0.00657 0.0
N425 N 0.81449 0.72412 0.99205 0.0
C426 C 0.82799 0.72616 0.96401 0.0
C427 C 0.81612 0.68033 0.97835 0.0
N428 N 0.8071 0.69568 0.00095 0.0
N429 N 0.82897 0.69897 0.95476 0.0
C430 C 0.76047 0.81382 0.10172 0.0
C431 C 0.77769 0.85973 0.09121 0.0
N432 N 0.77605 0.81593 0.07512 0.0
N433 N 0.78687 0.84443 0.06867 0.0
N434 N 0.76158 0.84095 0.11257 0.0
H435 H 0.73893 0.76751 0.09868 0.0
H436 H 0.72091 0.78861 0.123 0.0
H437 H 0.75479 0.77841 0.13771 0.0
C438 C 0.74268 0.78542 0.11583 0.0
C439 C 0.84159 0.75477 0.94676 0.0
H440 H 0.84767 0.77293 0.96366 0.0
H441 H 0.82533 0.76068 0.92823 0.0
H442 H 0.86165 0.75266 0.93453 0.0
O443 O 0.84778 0.77817 0.0233 0.0
O444 O 0.83072 0.80626 0.05483 0.0
C445 C 0.78555 0.80437 0.97866 0.0
O446 O 0.78973 0.7569 0.08954 0.0
O447 O 0.80948 0.72885 0.06059 0.0
Zn448 Zn 0.47127 0.02949 0.50866 0.0
O449 O 0.498 0.0196 0.5491 0.0
C450 C 0.51266 0.08419 0.48968 0.0
Zn451 Zn 0.50226 0.02069 0.47396 0.0
C452 C 0.52233 0.01267 0.54389 0.0
O453 O 0.52997 0.01282 0.51498 0.0
C454 C 0.44924 0.03366 0.43918 0.0
O455 O 0.48341 0.9753 0.47375 0.0
O456 O 0.45141 0.98417 0.50684 0.0
N457 N 0.53524 0.01721 0.44589 0.0
C458 C 0.53635 0.00133 0.4202 0.0
C459 C 0.58055 0.02402 0.4322 0.0
N460 N 0.56266 0.03155 0.45316 0.0
N461 N 0.56439 0.00555 0.41098 0.0
C462 C 0.43991 0.05458 0.56055 0.0
C463 C 0.39529 0.03035 0.55525 0.0
N464 N 0.43916 0.03502 0.5377 0.0
N465 N 0.41146 0.01983 0.53453 0.0
N466 N 0.41275 0.0522 0.5717 0.0
H467 H 0.48722 0.06665 0.57029 0.0
H468 H 0.46544 0.08041 0.59812 0.0
H469 H 0.4696 0.09688 0.558 0.0
C470 C 0.46721 0.0757 0.5725 0.0
C471 C 0.51072 0.9794 0.40614 0.0
H472 H 0.48928 0.98397 0.41228 0.0
H473 H 0.5121 0.95689 0.41583 0.0
H474 H 0.51182 0.97971 0.37951 0.0
O475 O 0.47386 0.02747 0.43357 0.0
O476 O 0.4437 0.03743 0.46807 0.0
C477 C 0.46054 0.96621 0.48995 0.0
O478 O 0.49204 0.0757 0.50912 0.0
O479 O 0.52042 0.06545 0.47304 0.0
Zn480 Zn 0.51713 0.52325 0.01924 0.0
O481 O 0.53327 0.5009 0.05859 0.0
C482 C 0.57313 0.5649 0.01136 0.0
Zn483 Zn 0.54472 0.50598 0.9863 0.0
C484 C 0.5526 0.48588 0.05502 0.0
O485 O 0.56221 0.48468 0.0272 0.0
C486 C 0.50963 0.54447 0.95101 0.0
O487 O 0.51185 0.46699 0.9804 0.0
O488 O 0.48477 0.48585 0.01165 0.0
N489 N 0.57197 0.4908 0.95771 0.0
C490 C 0.56599 0.47663 0.92991 0.0
C491 C 0.61013 0.47458 0.94582 0.0
N492 N 0.59954 0.48985 0.96737 0.0
N493 N 0.58959 0.46627 0.92188 0.0
C494 C 0.49392 0.55103 0.07527 0.0
C495 C 0.44853 0.54785 0.06042 0.0
N496 N 0.48916 0.53707 0.04737 0.0
N497 N 0.46086 0.53472 0.03835 0.0
N498 N 0.46873 0.55777 0.08409 0.0
H499 H 0.53985 0.54839 0.08526 0.0
H500 H 0.52204 0.55921 0.11848 0.0
H501 H 0.53227 0.58492 0.08506 0.0
C502 C 0.52377 0.56124 0.09191 0.0
C503 C 0.53621 0.47037 0.91216 0.0
H504 H 0.52854 0.4462 0.90945 0.0
H505 H 0.53813 0.48124 0.88768 0.0
H506 H 0.51932 0.47875 0.92421 0.0
O507 O 0.52722 0.52776 0.94627 0.0
O508 O 0.50121 0.54611 0.97926 0.0
C509 C 0.4882 0.46495 0.995 0.0
O510 O 0.54983 0.5609 0.02699 0.0
O511 O 0.57698 0.5453 0.9928 0.0
H512 H 0.96384 0.08152 0.11633 0.0
H513 H 0.98197 0.15013 0.04122 0.0
H514 H 0.97424 0.11896 0.15719 0.0
H515 H -0.00648 0.18757 0.08171 0.0
H516 H 0.98849 0.24922 0.1611 0.0
H517 H 0.97211 0.21119 0.12193 0.0
H518 H 0.01799 0.1526 0.17909 0.0
H519 H 0.03381 0.19035 0.21864 0.0
C520 C 0.96992 0.10467 0.10868 0.0
C521 C 0.97275 0.11304 0.07585 0.0
C522 C 0.97615 0.12606 0.13196 0.0
C523 C 0.98507 0.15622 0.12272 0.0
C524 C 0.98663 0.16456 0.08967 0.0
C525 C 0.98041 0.14317 0.06649 0.0
C526 C -0.00497 0.22819 0.16536 0.0
C527 C 0.01255 0.22285 0.19294 0.0
C528 C 0.98572 0.20644 0.14285 0.0
C529 C -0.00624 0.17887 0.14737 0.0
C530 C 0.01106 0.17344 0.17511 0.0
C531 C 0.02033 0.19518 0.19766 0.0
H532 H 0.86814 0.20997 0.44446 0.0
H533 H 0.8085 0.20787 0.3607 0.0
H534 H 0.91051 0.22238 0.41016 0.0
H535 H 0.85094 0.2198 0.32571 0.0
H536 H 0.93506 0.28284 0.28447 0.0
H537 H 0.89083 0.26373 0.31489 0.0
H538 H 0.93636 0.20348 0.36967 0.0
H539 H 0.98061 0.22284 0.33978 0.0
C540 C 0.86427 0.21177 0.41853 0.0
C541 C 0.83533 0.20822 0.40505 0.0
C542 C 0.88842 0.21868 0.39884 0.0
C543 C 0.88412 0.22222 0.36517 0.0
C544 C 0.85497 0.21755 0.35159 0.0
C545 C 0.83074 0.21044 0.37142 0.0
C546 C 0.93556 0.26541 0.30289 0.0
C547 C 0.96146 0.25457 0.30989 0.0
C548 C 0.91014 0.25429 0.32015 0.0
C549 C 0.9101 0.23214 0.34478 0.0
C550 C 0.93578 0.22082 0.35116 0.0
C551 C 0.96114 0.2319 0.33396 0.0
H552 H 0.69559 0.06211 0.71104 0.0
H553 H 0.75693 0.02427 0.66127 0.0
H554 H 0.70423 0.10516 0.67358 0.0
H555 H 0.76642 0.06775 0.62458 0.0
H556 H 0.75274 0.1359 0.5442 0.0
H557 H 0.74403 0.09224 0.58096 0.0
H558 H 0.74128 0.1477 0.66045 0.0
H559 H 0.74889 0.191 0.62362 0.0
C560 C 0.71112 0.06313 0.69228 0.0
C561 C 0.7256 0.03986 0.68911 0.0
C562 C 0.7162 0.08786 0.6709 0.0
C563 C 0.7361 0.08996 0.64611 0.0
C564 C 0.75062 0.06666 0.64306 0.0
C565 C 0.74532 0.04182 0.66423 0.0
C566 C 0.7504 0.13871 0.56956 0.0
C567 C 0.75138 0.16682 0.58101 0.0
C568 C 0.74551 0.11373 0.59066 0.0
C569 C 0.74179 0.11645 0.62366 0.0
C570 C 0.74341 0.14471 0.6351 0.0
C571 C 0.748 0.16958 0.614 0.0
H572 H 0.9045 0.05697 0.92567 0.0
H573 H 0.93962 -0.00056 0.86769 0.0
H574 H 0.85876 0.04836 0.89187 0.0
H575 H 0.89375 0.98936 0.83534 0.0
H576 H 0.81777 0.99246 0.76492 0.0
H577 H 0.86432 0.00768 0.79595 0.0
H578 H 0.81587 0.01282 0.88065 0.0
H579 H 0.7695 -0.00065 0.84894 0.0
C580 C 0.90238 0.04238 0.90581 0.0
C581 C 0.92568 0.02891 0.89931 0.0
C582 C 0.8761 0.03725 0.88654 0.0
C583 C 0.8724 0.01812 0.86073 0.0
C584 C 0.89586 0.00476 0.8544 0.0
C585 C 0.92221 0.01033 0.87321 0.0
C586 C 0.81717 -0.00296 0.79013 0.0
C587 C 0.79009 -0.00535 0.80456 0.0
C588 C 0.84384 0.0056 0.80804 0.0
C589 C 0.84402 0.01128 0.84102 0.0
C590 C 0.81676 0.00916 0.85526 0.0
C591 C 0.79012 0.00121 0.83715 0.0
H592 H 0.09673 0.00441 0.99023 0.0
H593 H 0.07061 0.0645 0.0529 0.0
H594 H 0.13042 0.99106 0.03296 0.0
H595 H 0.10513 0.05208 0.09523 0.0
H596 H 0.13864 -0.00275 0.17657 0.0
H597 H 0.10758 0.01135 0.13172 0.0
H598 H 0.1745 0.00555 0.0655 0.0
H599 H 0.20506 0.9903 0.11031 0.0
C600 C 0.09877 0.01536 0.01285 0.0
C601 C 0.08086 0.03535 0.01828 0.0
C602 C 0.1181 0.00769 0.03741 0.0
C603 C 0.12016 0.02008 0.06782 0.0
C604 C 0.10351 0.04143 0.07247 0.0
C605 C 0.08396 0.04884 0.04807 0.0
C606 C 0.14656 -0.00138 0.15239 0.0
C607 C 0.17428 0.99257 0.14702 0.0
C608 C 0.12892 0.00709 0.12667 0.0
C609 C 0.13869 0.01006 0.09495 0.0
C610 C 0.16614 0.0033 0.08952 0.0
C611 C 0.18368 -0.00546 0.11524 0.0
H612 H 0.01128 0.44741 0.4362 0.0
H613 H 0.0847 0.42119 0.49043 0.0
H614 H 0.0207 0.42152 0.39038 0.0
H615 H 0.09497 0.3959 0.44364 0.0
H616 H 0.07462 0.32139 0.36961 0.0
H617 H 0.07457 0.35275 0.41461 0.0
H618 H 0.05215 0.42079 0.34825 0.0
H619 H 0.05092 0.38883 0.30347 0.0
C620 C 0.02979 0.43648 0.43821 0.0
C621 C 0.04715 0.4363 0.46713 0.0
C622 C 0.0354 0.42178 0.41167 0.0
C623 C 0.05873 0.40665 0.41307 0.0
C624 C 0.07661 0.40703 0.44177 0.0
C625 C 0.07083 0.42165 0.46855 0.0
C626 C 0.07016 0.34324 0.36457 0.0
C627 C 0.06243 0.35248 0.33299 0.0
C628 C 0.07025 0.36133 0.39042 0.0
C629 C 0.06292 0.38921 0.38525 0.0
C630 C 0.05714 0.39916 0.35332 0.0
C631 C 0.05667 0.38093 0.32755 0.0
H632 H 0.69274 0.24302 0.66269 0.0
H633 H 0.67172 0.32176 0.61566 0.0
H634 H 0.64703 0.23429 0.69148 0.0
H635 H 0.62684 0.31438 0.6459 0.0
H636 H 0.53203 0.27061 0.66698 0.0
H637 H 0.57992 0.2807 0.64267 0.0
H638 H 0.61968 0.24994 0.73131 0.0
H639 H 0.57152 0.23886 0.75519 0.0
C640 C 0.6784 0.25862 0.65891 0.0
C641 C 0.68505 0.28249 0.63632 0.0
C642 C 0.65242 0.25388 0.67563 0.0
C643 C 0.63293 0.2733 0.67043 0.0
C644 C 0.64094 0.29853 0.64971 0.0
C645 C 0.66678 0.30304 0.63277 0.0
C646 C 0.55097 0.26577 0.68115 0.0
C647 C 0.54803 0.25384 0.7129 0.0
C648 C 0.57848 0.27188 0.66738 0.0
C649 C 0.60372 0.26651 0.68521 0.0
C650 C 0.60066 0.25412 0.71683 0.0
C651 C 0.57305 0.24772 0.73049 0.0
H652 H 0.68566 0.91104 0.85868 0.0
H653 H 0.72865 0.87031 0.78964 0.0
H654 H 0.70502 0.88204 0.90231 0.0
H655 H 0.74932 0.84279 0.83309 0.0
H656 H 0.7702 0.78342 0.91849 0.0
H657 H 0.74468 0.80607 0.87419 0.0
H658 H 0.751 0.8835 0.92972 0.0
H659 H 0.77511 0.86014 0.97443 0.0
C660 C 0.69879 0.89554 0.85272 0.0
C661 C 0.70582 0.8933 0.82065 0.0
C662 C 0.71036 0.87925 0.87781 0.0
C663 C 0.72951 0.8606 0.87145 0.0
C664 C 0.7347 0.8568 0.83912 0.0
C665 C 0.72281 0.87274 0.81406 0.0
C666 C 0.76647 0.80545 0.921 0.0
C667 C 0.77471 0.82002 0.94993 0.0
C668 C 0.75173 0.81846 0.89561 0.0
C669 C 0.74528 0.84654 0.89838 0.0
C670 C 0.75468 0.86151 0.92694 0.0
C671 C 0.76897 0.84832 0.95246 0.0
H672 H 0.16727 0.34049 0.04358 0.0
H673 H 0.23411 0.30585 0.10072 0.0
H674 H 0.14147 0.34352 0.09236 0.0
H675 H 0.20937 0.31027 0.14967 0.0
H676 H 0.10384 0.35702 0.18511 0.0
H677 H 0.13821 0.36442 0.14167 0.0
H678 H 0.16746 0.28492 0.17538 0.0
H679 H 0.13421 0.27849 0.21952 0.0
C680 C 0.17687 0.33431 0.06668 0.0
C681 C 0.20252 0.32266 0.06829 0.0
C682 C 0.16216 0.33613 0.09478 0.0
C683 C 0.17305 0.32679 0.12517 0.0
C684 C 0.1998 0.31692 0.12676 0.0
C685 C 0.21417 0.31462 0.09868 0.0
C686 C 0.11816 0.34154 0.18364 0.0
C687 C 0.11622 0.3171 0.20571 0.0
C688 C 0.13767 0.3456 0.15849 0.0
C689 C 0.15542 0.32507 0.15451 0.0
C690 C 0.15452 0.30148 0.1777 0.0
C691 C 0.13533 0.29769 0.20311 0.0
H692 H 0.74963 0.39625 0.3009 0.0
H693 H 0.72956 0.45206 0.37244 0.0
H694 H 0.75554 0.35894 0.34318 0.0
H695 H 0.73734 0.41598 0.41487 0.0
H696 H 0.72481 0.33365 0.48123 0.0
H697 H 0.71803 0.37063 0.43921 0.0
H698 H 0.7866 0.34759 0.38567 0.0
H699 H 0.79181 0.30927 0.42689 0.0
C700 C 0.74655 0.40051 0.3257 0.0
C701 C 0.73883 0.42685 0.33337 0.0
C702 C 0.75028 0.37932 0.35004 0.0
C703 C 0.74707 0.38436 0.38265 0.0
C704 C 0.73939 0.41088 0.39012 0.0
C705 C 0.735 0.43169 0.36575 0.0
C706 C 0.7386 0.33675 0.4606 0.0
C707 C 0.7588 0.31865 0.45725 0.0
C708 C 0.73481 0.35803 0.43646 0.0
C709 C 0.75165 0.36215 0.40876 0.0
C710 C 0.77267 0.34463 0.40614 0.0
C711 C 0.77595 0.32289 0.42995 0.0
H712 H 0.57979 0.00698 0.54372 0.0
H713 H 0.50494 0.99255 0.60435 0.0
H714 H 0.60815 0.98579 0.58642 0.0
H715 H 0.53268 0.9699 0.64658 0.0
H716 H 0.64917 0.92929 0.6561 0.0
H717 H 0.61437 0.94205 0.61426 0.0
H718 H 0.57094 0.97963 0.68569 0.0
H719 H 0.60435 0.96504 0.72754 0.0
C720 C 0.56937 -0.00081 0.56619 0.0
C721 C 0.54021 0.00167 0.57073 0.0
C722 C 0.58549 0.9866 0.5906 0.0
C723 C 0.57271 0.97568 0.62003 0.0
C724 C 0.5435 0.97831 0.62452 0.0
C725 C 0.52754 0.99135 0.60027 0.0
C726 C 0.63158 0.93939 0.66302 0.0
C727 C 0.62999 0.94672 0.69515 0.0
C728 C 0.61189 0.94723 0.6389 0.0
C729 C 0.59034 0.96284 0.64625 0.0
C730 C 0.58719 0.96777 0.67885 0.0
C731 C 0.60656 0.95953 0.70298 0.0
H732 H -0.00075 0.96763 0.81509 0.0
H733 H 0.0817 0.95119 0.85749 0.0
H734 H 0.99048 0.92109 0.78794 0.0
H735 H 0.07445 0.90575 0.82831 0.0
H736 H 0.99046 0.84121 0.72923 0.0
H737 H 0.00286 0.8913 0.74879 0.0
H738 H 0.04322 0.85868 0.8361 0.0
H739 H 0.03202 0.80925 0.81595 0.0
C740 C 0.01559 0.95406 0.81831 0.0
C741 C 0.04046 0.96213 0.83941 0.0
C742 C 0.01088 0.92767 0.80232 0.0
C743 C 0.03139 0.90924 0.80663 0.0
C744 C 0.05771 0.91892 0.82534 0.0
C745 C 0.06213 0.94509 0.84168 0.0
C746 C 0.0019 0.84486 0.75263 0.0
C747 C 0.01034 0.82141 0.77106 0.0
C748 C 0.00903 0.87352 0.76384 0.0
C749 C 0.0244 0.87913 0.79385 0.0
C750 C 0.03218 0.85541 0.81247 0.0
C751 C 0.02542 0.82695 0.8011 0.0
H752 H 0.07182 0.10951 0.89154 0.0
H753 H 0.015 0.14505 0.95037 0.0
H754 H 0.10796 0.1562 0.89306 0.0
H755 H 0.05145 0.19172 0.95187 0.0
H756 H 0.13319 0.27367 0.93875 0.0
H757 H 0.09019 0.23744 0.91796 0.0
H758 H 0.1315 0.16643 0.95484 0.0
H759 H 0.17374 0.202 0.97609 0.0
C760 C 0.06645 0.12762 0.90365 0.0
C761 C 0.04118 0.12334 0.92193 0.0
C762 C 0.08713 0.15431 0.90445 0.0
C763 C 0.08255 0.17702 0.92316 0.0
C764 C 0.05537 0.17434 0.9374 0.0
C765 C 0.0347 0.14756 0.93676 0.0
C766 C 0.13291 0.25029 0.94248 0.0
C767 C 0.15671 0.24058 0.95909 0.0
C768 C 0.10851 0.22974 0.93045 0.0
C769 C 0.10813 0.19943 0.93423 0.0
C770 C 0.13176 0.18982 0.95103 0.0
C771 C 0.15571 0.21016 0.96354 0.0
H772 H 0.61462 0.55184 0.32839 0.0
H773 H 0.6984 0.59504 0.37227 0.0
H774 H 0.59393 0.59444 0.33781 0.0
H775 H 0.67801 0.63843 0.38065 0.0
H776 H 0.63875 0.71889 0.33213 0.0
H777 H 0.66154 0.67586 0.34037 0.0
H778 H 0.58097 0.62519 0.38018 0.0
H779 H 0.5582 0.6682 0.37128 0.0
C780 C 0.6285 0.57034 0.34045 0.0
C781 C 0.6584 0.57056 0.34857 0.0
C782 C 0.61665 0.59471 0.34593 0.0
C783 C 0.63448 0.61985 0.35967 0.0
C784 C 0.66396 0.61948 0.36951 0.0
C785 C 0.67572 0.59486 0.36434 0.0
C786 C 0.62619 0.69861 0.34298 0.0
C787 C 0.59662 0.69643 0.35041 0.0
C788 C 0.63925 0.67414 0.34806 0.0
C789 C 0.62286 0.64712 0.36059 0.0
C790 C 0.59396 0.64567 0.37015 0.0
C791 C 0.58101 0.6702 0.36525 0.0
H792 H 0.29485 0.8634 0.44735 0.0
H793 H 0.34575 0.79792 0.43164 0.0
H794 H 0.34033 0.89927 0.45922 0.0
H795 H 0.39161 0.83423 0.44373 0.0
H796 H 0.46245 0.92878 0.4418 0.0
H797 H 0.42265 0.88754 0.42541 0.0
H798 H 0.37558 0.89679 0.50956 0.0
H799 H 0.41494 0.93785 0.52591 0.0
C800 C 0.3158 0.85685 0.44581 0.0
C801 C 0.31677 0.82776 0.43913 0.0
C802 C 0.34178 0.8773 0.45284 0.0
C803 C 0.36925 0.86909 0.45332 0.0
C804 C 0.37057 0.84086 0.44382 0.0
C805 C 0.3444 0.82023 0.43676 0.0
C806 C 0.44403 0.92141 0.45729 0.0
C807 C 0.4415 0.93685 0.48484 0.0
C808 C 0.42127 0.89792 0.44781 0.0
C809 C 0.39584 0.88972 0.46579 0.0
C810 C 0.39471 0.9033 0.4949 0.0
C811 C 0.41733 0.92664 0.50435 0.0
H812 H 0.14101 0.7489 0.77806 0.0
H813 H 0.10917 0.6773 0.84649 0.0
H814 H 0.19083 0.73888 0.78487 0.0
H815 H 0.15916 0.66722 0.85377 0.0
H816 H 0.23699 0.63407 0.80938 0.0
H817 H 0.18917 0.64735 0.81449 0.0
H818 H 0.2338 0.73844 0.82608 0.0
H819 H 0.28178 0.72469 0.82103 0.0
C820 C 0.14486 0.73105 0.7946 0.0
C821 C 0.12144 0.71333 0.81121 0.0
C822 C 0.17333 0.72559 0.79887 0.0
C823 C 0.17874 0.70221 0.81974 0.0
C824 C 0.15546 0.68524 0.83736 0.0
C825 C 0.12703 0.69096 0.83331 0.0
C826 C 0.23637 0.65679 0.81348 0.0
C827 C 0.2626 0.6785 0.81465 0.0
C828 C 0.20921 0.66437 0.81663 0.0
C829 C 0.20786 0.69391 0.82068 0.0
C830 C 0.23431 0.71553 0.82285 0.0
C831 C 0.26159 0.70778 0.82011 0.0
H832 H 0.83212 0.29861 0.59637 0.0
H833 H 0.86592 0.25674 0.52073 0.0
H834 H 0.88116 0.32915 0.60677 0.0
H835 H 0.91498 0.28777 0.53094 0.0
H836 H 0.95444 0.39145 0.5133 0.0
H837 H 0.91991 0.34395 0.51606 0.0
H838 H 0.93902 0.33596 0.61887 0.0
H839 H 0.97471 0.38383 0.61584 0.0
C840 C 0.85017 0.29534 0.58253 0.0
C841 C 0.84496 0.27622 0.55675 0.0
C842 C 0.87833 0.31259 0.5888 0.0
C843 C 0.90158 0.31107 0.56926 0.0
C844 C 0.8972 0.28946 0.54608 0.0
C845 C 0.86908 0.27198 0.54001 0.0
C846 C 0.95162 0.37934 0.53641 0.0
C847 C 0.96666 0.3913 0.56447 0.0
C848 C 0.93224 0.35197 0.53792 0.0
C849 C 0.92707 0.33626 0.56764 0.0
C850 C 0.94294 0.34766 0.59567 0.0
C851 C 0.96309 0.37493 0.59399 0.0
H852 H 0.35373 0.94086 0.20313 0.0
H853 H 0.33502 0.93579 0.10041 0.0
H854 H 0.39781 0.92168 0.19847 0.0
H855 H 0.37923 0.91526 0.09571 0.0
H856 H 0.42902 0.83571 0.12411 0.0
H857 H 0.39229 0.86679 0.11589 0.0
H858 H 0.4476 0.93259 0.17515 0.0
H859 H 0.48401 0.90135 0.18321 0.0
C860 C 0.35972 0.93688 0.1793 0.0
C861 C 0.3415 0.94094 0.15193 0.0
C862 C 0.38491 0.92554 0.17664 0.0
C863 C 0.39221 0.91736 0.14664 0.0
C864 C 0.37418 0.92155 0.1191 0.0
C865 C 0.34903 0.9333 0.12175 0.0
C866 C 0.4335 0.8572 0.13453 0.0
C867 C 0.45873 0.866 0.1549 0.0
C868 C 0.41264 0.87501 0.1298 0.0
C869 C 0.41692 0.90188 0.14534 0.0
C870 C 0.4435 0.91173 0.16339 0.0
C871 C 0.46424 0.89393 0.16809 0.0
H872 H 0.3654 0.48501 0.70209 0.0
H873 H 0.44682 0.52426 0.6568 0.0
H874 H 0.3764 0.43586 0.69957 0.0
H875 H 0.45833 0.47492 0.6545 0.0
H876 H 0.47891 0.38582 0.70519 0.0
H877 H 0.46921 0.4359 0.69938 0.0
H878 H 0.3829 0.40076 0.65527 0.0
H879 H 0.3929 0.35072 0.661 0.0
C880 C 0.38568 0.4829 0.69163 0.0
C881 C 0.40549 0.50807 0.67992 0.0
C882 C 0.39186 0.45492 0.68992 0.0
C883 C 0.41816 0.45168 0.67678 0.0
C884 C 0.43794 0.47693 0.66481 0.0
C885 C 0.43144 0.50496 0.66604 0.0
C886 C 0.45801 0.38902 0.69408 0.0
C887 C 0.43641 0.36469 0.68392 0.0
C888 C 0.45256 0.41754 0.6905 0.0
C889 C 0.42527 0.42207 0.67703 0.0
C890 C 0.40404 0.39777 0.66593 0.0
C891 C 0.40972 0.3693 0.66906 0.0
H892 H 0.19941 0.84279 0.58719 0.0
H893 H 0.13373 0.80587 0.51477 0.0
H894 H 0.16136 0.83481 0.62737 0.0
H895 H 0.0957 0.79657 0.55458 0.0
H896 H 0.02935 0.79134 0.62946 0.0
H897 H 0.06588 0.81397 0.59048 0.0
H898 H 0.13541 0.79152 0.65483 0.0
H899 H 0.09922 0.7703 0.69413 0.0
C900 C 0.17657 0.83365 0.57992 0.0
C901 C 0.16906 0.82513 0.54825 0.0
C902 C 0.15489 0.82872 0.60279 0.0
C903 C 0.1255 0.81473 0.59429 0.0
C904 C 0.11793 0.80776 0.56194 0.0
C905 C 0.13957 0.81297 0.53913 0.0
C906 C 0.05248 0.79148 0.63534 0.0
C907 C 0.06135 0.77861 0.6647 0.0
C908 C 0.07341 0.8044 0.61298 0.0
C909 C 0.1036 0.80449 0.61943 0.0
C910 C 0.11245 0.79233 0.64921 0.0
C911 C 0.0916 0.77972 0.67164 0.0
H912 H 0.15753 0.90457 0.26687 0.0
H913 H 0.23722 0.88088 0.23832 0.0
H914 H 0.14442 0.85754 0.2975 0.0
H915 H 0.22516 0.83481 0.27012 0.0
H916 H 0.21118 0.7604 0.33744 0.0
H917 H 0.19877 0.78813 0.28883 0.0
H918 H 0.16642 0.84715 0.34789 0.0
H919 H 0.17756 0.81887 0.39586 0.0
C920 C 0.17191 0.889 0.26662 0.0
C921 C 0.1988 0.89661 0.25109 0.0
C922 C 0.16445 0.8621 0.2842 0.0
C923 C 0.18417 0.84279 0.28719 0.0
C924 C 0.20934 0.84902 0.26846 0.0
C925 C 0.21647 0.87564 0.25036 0.0
C926 C 0.20054 0.77877 0.33986 0.0
C927 C 0.19615 0.78806 0.37046 0.0
C928 C 0.19351 0.7947 0.31201 0.0
C929 C 0.18233 0.82035 0.3144 0.0
C930 C 0.1749 0.8275 0.34489 0.0
C931 C 0.18162 0.81142 0.37262 0.0
H932 H 0.94518 0.64378 0.68422 0.0
H933 H 0.03946 0.65529 0.70351 0.0
H934 H 0.943 0.59388 0.66695 0.0
H935 H 0.03795 0.6066 0.68423 0.0
H936 H 0.03187 0.51471 0.65983 0.0
H937 H 0.02569 0.55578 0.69111 0.0
H938 H 0.95418 0.57005 0.62437 0.0
H939 H 0.95898 0.52822 0.59502 0.0
C940 C 0.96547 0.63572 0.68429 0.0
C941 C 0.99249 0.6534 0.69487 0.0
C942 C 0.96432 0.60712 0.6744 0.0
C943 C 0.99032 0.59593 0.67405 0.0
C944 C 0.0173 0.61386 0.68483 0.0
C945 C 0.01829 0.64206 0.69546 0.0
C946 C 0.01424 0.52609 0.65259 0.0
C947 C -0.00369 0.51851 0.62463 0.0
C948 C 0.01093 0.54995 0.6702 0.0
C949 C 0.98997 0.56699 0.65985 0.0
C950 C 0.9705 0.55766 0.63342 0.0
C951 C 0.97343 0.53359 0.6163 0.0
H952 H 0.29053 0.71086 0.31464 0.0
H953 H 0.33387 0.67006 0.39388 0.0
H954 H 0.33659 0.72343 0.28691 0.0
H955 H 0.37912 0.67917 0.36465 0.0
H956 H 0.46151 0.74796 0.33966 0.0
H957 H 0.41389 0.72285 0.35935 0.0
H958 H 0.37707 0.71682 0.26104 0.0
H959 H 0.42448 0.74395 0.24178 0.0
C960 C 0.30984 0.70404 0.32574 0.0
C961 C 0.30936 0.69141 0.35724 0.0
C962 C 0.33618 0.71069 0.3096 0.0
C963 C 0.3621 0.70359 0.32428 0.0
C964 C 0.36001 0.68638 0.35341 0.0
C965 C 0.33393 0.68062 0.36994 0.0
C966 C 0.44311 0.74139 0.32238 0.0
C967 C 0.44637 0.74822 0.28937 0.0
C968 C 0.41589 0.7265 0.33353 0.0
C969 C 0.39153 0.71736 0.31177 0.0
C970 C 0.39511 0.72381 0.27856 0.0
C971 C 0.42222 0.73942 0.2675 0.0
H972 H 0.236 0.08896 0.22172 0.0
H973 H 0.30539 0.06665 0.16895 0.0
H974 H 0.24156 0.13596 0.19086 0.0
H975 H 0.3112 0.11415 0.13862 0.0
H976 H 0.22583 0.16988 0.08033 0.0
H977 H 0.22835 0.13446 0.12536 0.0
H978 H 0.3204 0.17464 0.14454 0.0
H979 H 0.31742 0.21156 0.1005 0.0
C980 C 0.25309 0.09446 0.20432 0.0
C981 C 0.26981 0.07388 0.19713 0.0
C982 C 0.25622 0.12134 0.18676 0.0
C983 C 0.27651 0.12821 0.16234 0.0
C984 C 0.29544 0.10914 0.15749 0.0
C985 C 0.29202 0.082 0.17471 0.0
C986 C 0.24617 0.17214 0.09497 0.0
C987 C 0.27116 0.19405 0.0875 0.0
C988 C 0.2477 0.15169 0.12055 0.0
C989 C 0.27446 0.15233 0.13848 0.0
C990 C 0.29951 0.17408 0.13113 0.0
C991 C 0.2978 0.19494 0.10594 0.0
H992 H 0.82085 0.71865 0.89343 0.0
H993 H 0.86513 0.66089 0.95336 0.0
H994 H 0.84936 0.71253 0.84796 0.0
H995 H 0.89291 0.65323 0.90734 0.0
H996 H 0.96933 0.69825 0.84034 0.0
H997 H 0.93326 0.68604 0.88176 0.0
H998 H 0.86228 0.68272 0.80865 0.0
H999 H 0.89858 0.69606 0.76723 0.0
C1000 C 0.8365 0.70431 0.89657 0.0
C1001 C 0.84182 0.69114 0.92691 0.0
C1002 C 0.85246 0.70031 0.87045 0.0
C1003 C 0.87375 0.68268 0.87416 0.0
C1004 C 0.87709 0.6674 0.90393 0.0
C1005 C 0.86117 0.6716 0.93014 0.0
C1006 C 0.94601 0.69438 0.83305 0.0
C1007 C 0.93675 0.69877 0.8007 0.0
C1008 C 0.92528 0.68709 0.85678 0.0
C1009 C 0.89489 0.68377 0.84852 0.0
C1010 C 0.88558 0.68576 0.81581 0.0
C1011 C 0.90634 0.69337 0.79211 0.0
H1012 H 0.38492 0.6599 0.63906 0.0
H1013 H 0.3339 0.70297 0.6973 0.0
H1014 H 0.37073 0.68769 0.5913 0.0
H1015 H 0.31855 0.72935 0.64974 0.0
H1016 H 0.29415 0.77663 0.55962 0.0
H1017 H 0.32506 0.76298 0.60513 0.0
H1018 H 0.32522 0.68061 0.56122 0.0
H1019 H 0.29571 0.69493 0.51537 0.0
C1020 C 0.37124 0.67575 0.6418 0.0
C1021 C 0.35998 0.67872 0.6718 0.0
C1022 C 0.36283 0.69146 0.61439 0.0
C1023 C 0.34274 0.71008 0.61646 0.0
C1024 C 0.33403 0.71526 0.64707 0.0
C1025 C 0.34275 0.69992 0.67446 0.0
C1026 C 0.30099 0.7557 0.55972 0.0
C1027 C 0.29227 0.73668 0.53416 0.0
C1028 C 0.31873 0.74788 0.58575 0.0
C1029 C 0.32771 0.72068 0.58693 0.0
C1030 C 0.31938 0.70202 0.56091 0.0
C1031 C 0.30206 0.71003 0.53476 0.0
H1032 H 0.32983 0.9652 0.27964 0.0
H1033 H 0.28298 0.0219 0.32477 0.0
H1034 H 0.37147 0.97871 0.31863 0.0
H1035 H 0.32485 0.03658 0.36253 0.0
H1036 H 0.39119 0.03344 0.44664 0.0
H1037 H 0.35023 0.02117 0.40743 0.0
H1038 H 0.41149 0.01678 0.3341 0.0
H1039 H 0.45262 0.02755 0.37419 0.0
C1040 C 0.32846 0.98056 0.29787 0.0
C1041 C 0.30304 0.99231 0.29925 0.0
C1042 C 0.35246 0.98861 0.32004 0.0
C1043 C 0.35177 0.00894 0.34379 0.0
C1044 C 0.32615 0.02048 0.34511 0.0
C1045 C 0.30204 0.01206 0.32335 0.0
C1046 C 0.39607 0.03032 0.42204 0.0
C1047 C 0.42527 0.03154 0.41359 0.0
C1048 C 0.37244 0.0233 0.3994 0.0
C1049 C 0.37733 0.01777 0.36744 0.0
C1050 C 0.40672 0.02024 0.35861 0.0
C1051 C 0.4304 0.02686 0.38148 0.0
H1052 H 0.90289 0.79722 0.01152 0.0
H1053 H 0.86767 0.8488 0.07681 0.0
H1054 H 0.94577 0.83776 0.00467 0.0
H1055 H 0.90901 0.88951 0.06863 0.0
H1056 H 0.97833 0.96507 0.04695 0.0
H1057 H 0.95717 0.91586 0.06959 0.0
H1058 H 0.94882 0.8818 0.9738 0.0
H1059 H 0.97189 0.9304 0.95195 0.0
C1060 C 0.90461 0.81693 0.02494 0.0
C1061 C 0.88153 0.82023 0.04392 0.0
C1062 C 0.92905 0.84027 0.02082 0.0
C1063 C 0.93048 0.86733 0.03524 0.0
C1064 C 0.90893 0.86915 0.05707 0.0
C1065 C 0.88486 0.84577 0.06154 0.0
C1066 C 0.97237 0.94681 0.03098 0.0
C1067 C 0.97599 0.95145 -0.00231 0.0
C1068 C 0.96027 0.91865 0.04387 0.0
C1069 C 0.95065 0.89486 0.02351 0.0
C1070 C 0.95619 0.89933 0.99042 0.0
C1071 C 0.96906 0.92733 0.97772 0.0
H1072 H 0.65327 0.23776 0.52255 0.0
H1073 H 0.67653 0.18072 0.45409 0.0
H1074 H 0.60167 0.21199 0.51726 0.0
H1075 H 0.62491 0.15477 0.44909 0.0
H1076 H 0.5318 0.11528 0.43549 0.0
H1077 H 0.5739 0.15702 0.43232 0.0
H1078 H 0.57679 0.16191 0.53608 0.0
H1079 H 0.53405 0.12045 0.539 0.0
C1080 C 0.64731 0.22004 0.50591 0.0
C1081 C 0.66907 0.21101 0.48897 0.0
C1082 C 0.61773 0.20527 0.50301 0.0
C1083 C 0.60923 0.18126 0.48298 0.0
C1084 C 0.63068 0.17344 0.46448 0.0
C1085 C 0.66032 0.18819 0.46743 0.0
C1086 C 0.54073 0.12612 0.45746 0.0
C1087 C 0.53004 0.11464 0.48753 0.0
C1088 C 0.56497 0.14979 0.45566 0.0
C1089 C 0.57912 0.16219 0.48397 0.0
C1090 C 0.56633 0.15281 0.5138 0.0
C1091 C 0.5418 0.12917 0.51555 0.0
H1092 H 0.87026 0.4894 0.20867 0.0
H1093 H 0.81655 0.4086 0.17353 0.0
H1094 H 0.91508 0.47091 0.20193 0.0
H1095 H 0.86076 0.389 0.16837 0.0
H1096 H 0.94301 0.36225 0.14763 0.0
H1097 H 0.90393 0.39018 0.1419 0.0
H1098 H 0.94005 0.43692 0.22741 0.0
H1099 H 0.9805 0.41103 0.2309 0.0
C1100 C 0.86828 0.46761 0.19955 0.0
C1101 C 0.84033 0.45014 0.19188 0.0
C1102 C 0.89378 0.45692 0.1958 0.0
C1103 C 0.89164 0.42831 0.18485 0.0
C1104 C 0.86345 0.4113 0.17629 0.0
C1105 C 0.83807 0.42229 0.17946 0.0
C1106 C 0.94281 0.37895 0.16475 0.0
C1107 C 0.96396 0.38355 0.19059 0.0
C1108 C 0.92026 0.39472 0.16173 0.0
C1109 C 0.91822 0.41522 0.18474 0.0
C1110 C 0.9407 0.42128 0.20925 0.0
C1111 C 0.96358 0.40591 0.21181 0.0
H1112 H 0.11168 0.55408 0.56343 0.0
H1113 H 0.0482 0.5654 0.48556 0.0
H1114 H 0.1421 0.60263 0.54833 0.0
H1115 H 0.07868 0.61345 0.47056 0.0
H1116 H 0.16959 0.70464 0.52642 0.0
H1117 H 0.13502 0.65938 0.54401 0.0
H1118 H 0.13291 0.62585 0.44885 0.0
H1119 H 0.16765 0.67071 0.43137 0.0
C1120 C 0.1043 0.5669 0.54318 0.0
C1121 C 0.07778 0.55601 0.52551 0.0
C1122 C 0.12147 0.59464 0.53479 0.0
C1123 C 0.11247 0.61147 0.50841 0.0
C1124 C 0.08593 0.60068 0.49096 0.0
C1125 C 0.0686 0.57326 0.49956 0.0
C1126 C 0.16126 0.6878 0.50918 0.0
C1127 C 0.17107 0.69099 0.47758 0.0
C1128 C 0.14183 0.66194 0.51931 0.0
C1129 C 0.13163 0.6394 0.49771 0.0
C1130 C 0.14052 0.64313 0.46579 0.0
C1131 C 0.16032 0.66866 0.45586 0.0
H1132 H 0.66375 0.07782 0.85095 0.0
H1133 H 0.59196 0.01629 0.80536 0.0
H1134 H 0.63055 0.11159 0.85736 0.0
H1135 H 0.55865 0.04998 0.81147 0.0
H1136 H 0.50214 0.10803 0.85446 0.0
H1137 H 0.53512 0.07278 0.85506 0.0
H1138 H 0.60458 0.14238 0.81795 0.0
H1139 H 0.57151 0.17713 0.81732 0.0
C1140 C 0.6408 0.07157 0.84245 0.0
C1141 C 0.63046 0.04484 0.82713 0.0
C1142 C 0.62185 0.09085 0.84598 0.0
C1143 C 0.59203 0.08349 0.83477 0.0
C1144 C 0.58147 0.05621 0.82045 0.0
C1145 C 0.60055 0.03712 0.81656 0.0
C1146 C 0.5246 0.11562 0.84687 0.0
C1147 C 0.53445 0.14504 0.83577 0.0
C1148 C 0.54336 0.09555 0.84697 0.0
C1149 C 0.57243 0.10483 0.8365 0.0
C1150 C 0.58244 0.13461 0.82642 0.0
C1151 C 0.56357 0.15445 0.82589 0.0
H1152 H 0.73828 0.60353 0.24355 0.0
H1153 H 0.76074 0.55671 0.16496 0.0
H1154 H 0.75575 0.65048 0.21399 0.0
H1155 H 0.77674 0.6033 0.13466 0.0
H1156 H 0.82928 0.68869 0.09735 0.0
H1157 H 0.81564 0.64496 0.13319 0.0
H1158 H 0.74645 0.68164 0.1699 0.0
H1159 H 0.76119 0.72584 0.13536 0.0
C1160 C 0.74634 0.60327 0.21964 0.0
C1161 C 0.74822 0.57649 0.20657 0.0
C1162 C 0.75642 0.63019 0.20268 0.0
C1163 C 0.76817 0.63084 0.17207 0.0
C1164 C 0.76878 0.60383 0.15856 0.0
C1165 C 0.75919 0.57704 0.17571 0.0
C1166 C 0.81167 0.68767 0.11371 0.0
C1167 C 0.79629 0.71066 0.1135 0.0
C1168 C 0.80353 0.66243 0.13394 0.0
C1169 C 0.77941 0.65935 0.15393 0.0
C1170 C 0.76521 0.68318 0.15504 0.0
C1171 C 0.77371 0.70864 0.13521 0.0
H1172 H 0.935 0.49363 0.4136 0.0
H1173 H 0.89895 0.54573 0.47743 0.0
H1174 H 0.89933 0.50264 0.37113 0.0
H1175 H 0.86562 0.5576 0.43406 0.0
H1176 H 0.78368 0.53613 0.3658 0.0
H1177 H 0.82254 0.53567 0.40704 0.0
H1178 H 0.88532 0.53719 0.33342 0.0
H1179 H 0.84555 0.53584 0.29198 0.0
C1180 C 0.9192 0.50657 0.4188 0.0
C1181 C 0.91901 0.51791 0.44936 0.0
C1182 C 0.89931 0.51261 0.39406 0.0
C1183 C 0.87947 0.53086 0.39912 0.0
C1184 C 0.88003 0.54292 0.42942 0.0
C1185 C 0.89928 0.53624 0.45427 0.0
C1186 C 0.80592 0.53716 0.35833 0.0
C1187 C 0.81155 0.53551 0.32577 0.0
C1188 C 0.82835 0.53693 0.38206 0.0
C1189 C 0.85704 0.53578 0.37364 0.0
C1190 C 0.86325 0.53708 0.34079 0.0
C1191 C 0.84061 0.53669 0.31703 0.0
H1192 H 0.25069 0.56275 0.74893 0.0
H1193 H 0.28119 0.57182 0.652 0.0
H1194 H 0.20732 0.52613 0.73188 0.0
H1195 H 0.23673 0.53705 0.63399 0.0
H1196 H 0.1693 0.45761 0.61055 0.0
H1197 H 0.21436 0.4878 0.63432 0.0
H1198 H 0.16241 0.5162 0.70488 0.0
H1199 H 0.11833 0.48349 0.683 0.0
C1200 C 0.24751 0.55756 0.72368 0.0
C1201 C 0.26904 0.57015 0.70166 0.0
C1202 C 0.22266 0.53647 0.71384 0.0
C1203 C 0.21846 0.52812 0.68153 0.0
C1204 C 0.23953 0.542 0.65928 0.0
C1205 C 0.26477 0.5624 0.66937 0.0
C1206 C 0.16789 0.46957 0.63184 0.0
C1207 C 0.14035 0.46908 0.64438 0.0
C1208 C 0.19355 0.48744 0.64508 0.0
C1209 C 0.19206 0.50556 0.67079 0.0
C1210 C 0.1647 0.50288 0.68501 0.0
C1211 C 0.13925 0.48438 0.67228 0.0
H1212 H 0.5962 0.82511 0.16646 0.0
H1213 H 0.63676 0.81063 0.26066 0.0
H1214 H 0.64454 0.84564 0.14582 0.0
H1215 H 0.68536 0.83281 0.24056 0.0
H1216 H 0.72773 0.88147 0.1078 0.0
H1217 H 0.68777 0.8827 0.14317 0.0
H1218 H 0.71719 0.81689 0.20761 0.0
H1219 H 0.75823 0.8179 0.17356 0.0
C1220 C 0.61552 0.8268 0.18286 0.0
C1221 C 0.61292 0.81572 0.21488 0.0
C1222 C 0.64327 0.83907 0.17122 0.0
C1223 C 0.66898 0.84101 0.19156 0.0
C1224 C 0.6661 0.83125 0.22413 0.0
C1225 C 0.63833 0.81843 0.2356 0.0
C1226 C 0.72624 0.86837 0.13032 0.0
C1227 C 0.74485 0.84849 0.13745 0.0
C1228 C 0.70323 0.86874 0.15037 0.0
C1229 C 0.69841 0.84883 0.17737 0.0
C1230 C 0.71985 0.83225 0.18682 0.0
C1231 C 0.74315 0.83242 0.16712 0.0
H1232 H 0.69204 0.45151 0.17123 0.0
H1233 H 0.63106 0.45915 0.24349 0.0
H1234 H 0.65196 0.44356 0.13086 0.0
H1235 H 0.59006 0.44904 0.20327 0.0
H1236 H 0.55012 0.49836 0.11754 0.0
H1237 H 0.57725 0.48152 0.16357 0.0
H1238 H 0.6085 0.42235 0.10356 0.0
H1239 H 0.58257 0.44101 0.05671 0.0
C1240 C 0.66979 0.45036 0.17875 0.0
C1241 C 0.66474 0.45698 0.21019 0.0
C1242 C 0.64658 0.44545 0.15554 0.0
C1243 C 0.61773 0.4465 0.1635 0.0
C1244 C 0.61218 0.4492 0.19604 0.0
C1245 C 0.63559 0.45485 0.21914 0.0
C1246 C 0.56242 0.48143 0.11424 0.0
C1247 C 0.56499 0.4716 0.08346 0.0
C1248 C 0.57774 0.47136 0.14085 0.0
C1249 C 0.59557 0.45081 0.13735 0.0
C1250 C 0.5957 0.43882 0.10698 0.0
C1251 C 0.58086 0.44944 0.08015 0.0
H1252 H 0.46169 0.43632 0.94217 0.0
H1253 H 0.46194 0.43521 0.04617 0.0
H1254 H 0.41465 0.3995 0.94143 0.0
H1255 H 0.41564 0.39835 0.04559 0.0
H1256 H 0.33826 0.32005 0.03104 0.0
H1257 H 0.39003 0.34577 0.02826 0.0
H1258 H 0.36455 0.41048 0.95967 0.0
H1259 H 0.31282 0.38509 0.96248 0.0
C1260 C 0.45215 0.42736 0.96477 0.0
C1261 C 0.46484 0.43842 0.99419 0.0
C1262 C 0.42537 0.4066 0.96438 0.0
C1263 C 0.4117 0.39649 0.99346 0.0
C1264 C 0.42592 0.40575 0.02294 0.0
C1265 C 0.45222 0.42682 0.02327 0.0
C1266 C 0.34371 0.33987 0.01553 0.0
C1267 C 0.32156 0.35074 -0.00285 0.0
C1268 C 0.37325 0.35433 0.01375 0.0
C1269 C 0.38105 0.3796 0.99329 0.0
C1270 C 0.35898 0.39057 0.97503 0.0
C1271 C 0.32941 0.37635 0.97709 0.0
H1272 H 0.14779 0.20435 0.31941 0.0
H1273 H 0.05953 0.15456 0.33518 0.0
H1274 H 0.16537 0.15811 0.31784 0.0
H1275 H 0.07672 0.1081 0.33325 0.0
H1276 H 0.11724 0.04203 0.27474 0.0
H1277 H 0.09745 0.08528 0.28589 0.0
H1278 H 0.17003 0.11217 0.35544 0.0
H1279 H 0.18956 0.06879 0.34423 0.0
C1280 C 0.13239 0.18337 0.32297 0.0
C1281 C 0.10253 0.18257 0.32752 0.0
C1282 C 0.14232 0.15706 0.32219 0.0
C1283 C 0.12232 0.12966 0.32545 0.0
C1284 C 0.09249 0.12898 0.33062 0.0
C1285 C 0.08271 0.15533 0.3319 0.0
C1286 C 0.12859 0.05709 0.29264 0.0
C1287 C 0.15487 0.05249 0.30855 0.0
C1288 C 0.11728 0.08161 0.29917 0.0
C1289 C 0.13236 0.10201 0.32141 0.0
C1290 C 0.15814 0.09681 0.33808 0.0
C1291 C 0.16917 0.07204 0.33188 0.0
H1292 H 0.24365 0.4434 0.9362 0.0
H1293 H 0.22573 0.39763 0.84765 0.0
H1294 H 0.27493 0.48541 0.90826 0.0
H1295 H 0.2557 0.44015 0.81868 0.0
H1296 H 0.33509 0.50567 0.78249 0.0
H1297 H 0.30574 0.46408 0.81289 0.0
H1298 H 0.27585 0.52517 0.87132 0.0
H1299 H 0.30632 0.56628 0.84244 0.0
C1300 C 0.24565 0.44302 0.91039 0.0
C1301 C 0.23209 0.41787 0.89374 0.0
C1302 C 0.26363 0.4669 0.89434 0.0
C1303 C 0.26807 0.46617 0.86117 0.0
C1304 C 0.25334 0.44127 0.84433 0.0
C1305 C 0.23573 0.41721 0.8606 0.0
C1306 C 0.32283 0.51013 0.80235 0.0
C1307 C 0.32314 0.53929 0.81003 0.0
C1308 C 0.30558 0.48631 0.81945 0.0
C1309 C 0.28801 0.49122 0.8443 0.0
C1310 C 0.28926 0.52041 0.85264 0.0
C1311 C 0.30677 0.54409 0.83592 0.0
H1312 H 0.27315 0.22596 0.92347 0.0
H1313 H 0.28528 0.31473 0.88096 0.0
H1314 H 0.30949 0.2153 0.88841 0.0
H1315 H 0.32229 0.30447 0.84657 0.0
H1316 H 0.37719 0.27333 0.77569 0.0
H1317 H 0.33374 0.27802 0.80327 0.0
H1318 H 0.36224 0.22913 0.88657 0.0
H1319 H 0.40536 0.22357 0.8584 0.0
C1320 C 0.28325 0.24307 0.90622 0.0
C1321 C 0.27645 0.27125 0.90504 0.0
C1322 C 0.30431 0.23704 0.88638 0.0
C1323 C 0.31925 0.25916 0.86508 0.0
C1324 C 0.31109 0.28681 0.86251 0.0
C1325 C 0.28979 0.29274 0.8822 0.0
C1326 C 0.37413 0.26338 0.79984 0.0
C1327 C 0.39484 0.24819 0.81497 0.0
C1328 C 0.34922 0.2662 0.81569 0.0
C1329 C 0.34449 0.25411 0.8472 0.0
C1330 C 0.36492 0.23837 0.86211 0.0
C1331 C 0.38977 0.23533 0.84609 0.0
H1332 H 0.50292 0.53358 0.88705 0.0
H1333 H 0.49744 0.59869 0.95535 0.0
H1334 H 0.48597 0.56426 0.84362 0.0
H1335 H 0.48249 0.63056 0.91177 0.0
H1336 H 0.45858 0.61925 0.76658 0.0
H1337 H 0.49266 0.60611 0.80902 0.0
H1338 H 0.44008 0.6319 0.88064 0.0
H1339 H 0.40755 0.64669 0.83833 0.0
C1340 C 0.49851 0.55473 0.89258 0.0
C1341 C 0.50072 0.56351 0.92448 0.0
C1342 C 0.48924 0.57264 0.86765 0.0
C1343 C 0.48273 0.60004 0.87406 0.0
C1344 C 0.4866 0.60939 0.90594 0.0
C1345 C 0.49511 0.59112 0.93094 0.0
C1346 C 0.45518 0.6233 0.79136 0.0
C1347 C 0.43007 0.63331 0.79925 0.0
C1348 C 0.47443 0.61536 0.81574 0.0
C1349 C 0.46848 0.61672 0.84838 0.0
C1350 C 0.44548 0.63034 0.85589 0.0
C1351 C 0.42666 0.63888 0.8315 0.0
H1352 H 0.72396 0.69947 0.97899 0.0
H1353 H 0.6863 0.73604 0.05592 0.0
H1354 H 0.68071 0.66041 0.97467 0.0
H1355 H 0.64127 0.69713 0.05031 0.0
H1356 H 0.59829 0.59656 0.96019 0.0
H1357 H 0.63149 0.64496 0.95982 0.0
H1358 H 0.628 0.64557 0.06372 0.0
H1359 H 0.59262 0.59804 0.06335 0.0
C1360 C 0.70598 0.69953 0.99453 0.0
C1361 C 0.70867 0.72047 0.0182 0.0
C1362 C 0.68086 0.67722 0.99175 0.0
C1363 C 0.65742 0.67546 0.01221 0.0
C1364 C 0.65918 0.69762 0.03454 0.0
C1365 C 0.68474 0.72003 0.03755 0.0
C1366 C 0.60471 0.60717 0.98287 0.0
C1367 C 0.59381 0.59351 0.0119 0.0
C1368 C 0.62363 0.63488 0.98273 0.0
C1369 C 0.63292 0.64896 0.01183 0.0
C1370 C 0.62111 0.63556 0.04083 0.0
C1371 C 0.60131 0.60818 0.04077 0.0
H1372 H 0.91199 0.82518 0.63867 0.0
H1373 H 0.85398 0.75283 0.6873 0.0
H1374 H 0.87571 0.85602 0.64159 0.0
H1375 H 0.81662 0.78277 0.68894 0.0
H1376 H 0.77356 0.85406 0.72387 0.0
H1377 H 0.80736 0.82161 0.71654 0.0
H1378 H 0.83031 0.86703 0.62462 0.0
H1379 H 0.79812 0.90091 0.63368 0.0
C1380 C 0.89098 0.81574 0.64918 0.0
C1381 C 0.88561 0.78683 0.66282 0.0
C1382 C 0.87009 0.8333 0.65085 0.0
C1383 C 0.84313 0.82212 0.66579 0.0
C1384 C 0.83733 0.79251 0.678 0.0
C1385 C 0.85848 0.77518 0.67677 0.0
C1386 C 0.78652 0.85753 0.70259 0.0
C1387 C 0.78434 0.8808 0.68005 0.0
C1388 C 0.80541 0.83849 0.69791 0.0
C1389 C 0.82194 0.84167 0.67002 0.0
C1390 C 0.81863 0.86426 0.64678 0.0
C1391 C 0.80006 0.88357 0.65178 0.0
H1392 H 0.40116 0.20512 0.67381 0.0
H1393 H 0.43954 0.14461 0.73716 0.0
H1394 H 0.38299 0.1657 0.63658 0.0
H1395 H 0.42215 0.10562 0.69966 0.0
H1396 H 0.38878 0.0373 0.62935 0.0
H1397 H 0.38319 0.07207 0.66991 0.0
H1398 H 0.41236 0.14509 0.60153 0.0
H1399 H 0.41718 0.11028 0.56153 0.0
C1400 C 0.4053 0.1833 0.68005 0.0
C1401 C 0.42232 0.17811 0.70804 0.0
C1402 C 0.39489 0.16075 0.65874 0.0
C1403 C 0.4015 0.13268 0.66494 0.0
C1404 C 0.41643 0.1269 0.69425 0.0
C1405 C 0.42669 0.14938 0.71563 0.0
C1406 C 0.393 0.06078 0.62303 0.0
C1407 C 0.40374 0.07147 0.59286 0.0
C1408 C 0.39 0.08063 0.6461 0.0
C1409 C 0.39759 0.11133 0.63903 0.0
C1410 C 0.40599 0.12164 0.60774 0.0
C1411 C 0.40905 0.10184 0.5849 0.0
H1412 H 0.53462 0.34292 0.77061 0.0
H1413 H 0.51862 0.29645 0.86309 0.0
H1414 H 0.56513 0.38518 0.7971 0.0
H1415 H 0.54748 0.33934 0.88998 0.0
H1416 H 0.60534 0.41421 0.9356 0.0
H1417 H 0.59256 0.3709 0.90274 0.0
H1418 H 0.55799 0.42352 0.82646 0.0
H1419 H 0.57334 0.46696 0.8584 0.0
C1420 C 0.53755 0.34188 0.7967 0.0
C1421 C 0.52401 0.31664 0.81491 0.0
C1422 C 0.55498 0.36612 0.81192 0.0
C1423 C 0.55866 0.36596 0.84577 0.0
C1424 C 0.54571 0.34022 0.86386 0.0
C1425 C 0.52884 0.31569 0.84854 0.0
C1426 C 0.59605 0.41657 0.91129 0.0
C1427 C 0.58932 0.44352 0.8998 0.0
C1428 C 0.58824 0.3917 0.89265 0.0
C1429 C 0.57321 0.39332 0.86236 0.0
C1430 C 0.56935 0.42116 0.84968 0.0
C1431 C 0.57773 0.44608 0.8681 0.0
H1432 H 0.51709 0.88007 0.27983 0.0
H1433 H 0.58906 0.84717 0.32919 0.0
H1434 H 0.53305 0.92654 0.3062 0.0
H1435 H 0.60595 0.89431 0.35483 0.0
H1436 H 0.58543 0.95815 0.43026 0.0
H1437 H 0.5878 0.91775 0.39627 0.0
H1438 H 0.56935 0.97114 0.31171 0.0
H1439 H 0.56563 0.0109 0.34662 0.0
C1440 C 0.53658 0.883 0.29602 0.0
C1441 C 0.55159 0.86001 0.30287 0.0
C1442 C 0.54605 0.90978 0.31079 0.0
C1443 C 0.571 0.91423 0.33239 0.0
C1444 C 0.58653 0.89144 0.33851 0.0
C1445 C 0.57676 0.86445 0.32404 0.0
C1446 C 0.58318 0.96143 0.40428 0.0
C1447 C 0.57527 0.98709 0.39068 0.0
C1448 C 0.58453 0.93843 0.38475 0.0
C1449 C 0.57813 0.94106 0.35134 0.0
C1450 C 0.57367 0.96828 0.33748 0.0
C1451 C 0.5719 0.99109 0.35718 0.0
H1452 H 0.46019 0.61175 0.06792 0.0
H1453 H 0.47453 0.55335 0.14883 0.0
H1454 H 0.46833 0.65317 0.10313 0.0
H1455 H 0.48179 0.5946 0.18503 0.0
H1456 H 0.5385 0.68214 0.22333 0.0
H1457 H 0.52076 0.63717 0.19374 0.0
H1458 H 0.45204 0.67619 0.1455 0.0
H1459 H 0.47073 0.72137 0.17369 0.0
C1460 C 0.464 0.60779 0.09362 0.0
C1461 C 0.46682 0.57978 0.10598 0.0
C1462 C 0.46869 0.63139 0.11385 0.0
C1463 C 0.47597 0.62723 0.1469 0.0
C1464 C 0.47677 0.59859 0.15958 0.0
C1465 C 0.47232 0.575 0.13914 0.0
C1466 C 0.51966 0.68097 0.20632 0.0
C1467 C 0.50637 0.70532 0.20019 0.0
C1468 C 0.50924 0.65516 0.18968 0.0
C1469 C 0.48504 0.65318 0.16714 0.0
C1470 C 0.4711 0.67723 0.16215 0.0
C1471 C 0.48185 0.70312 0.17825 0.0
loop_
_geom_bond_atom_site_label_1
_geom_bond_atom_site_label_2
_geom_bond_distance
_geom_bond_site_symmetry_2
_ccdc_geom_bond_type
Zn0 O1 2.055 . S
Zn0 O8 2.046 1_455 S
Zn0 N16 2.036 1_455 S
Zn0 O28 2.053 1_454 S
Zn0 O30 2.066 . S
O1 Zn0 2.055 . S
O1 C4 1.259 . S
C2 O30 1.256 1_556 S
C2 O31 1.244 . S
Zn3 O5 2.041 1_546 S
Zn3 O7 2.048 1_446 S
Zn3 N9 2.024 1_545 S
Zn3 O27 2.075 1_455 S
Zn3 O31 2.067 . S
C4 O1 1.259 . S
C4 O5 1.254 1_545 S
O5 Zn3 2.041 1_564 S
O5 C4 1.254 1_565 S
C6 O27 1.256 . S
C6 O28 1.244 . S
O7 Zn3 2.048 1_664 S
O7 C29 1.259 . S
O8 Zn0 2.046 1_655 S
O8 C29 1.254 1_545 S
N9 Zn3 2.024 1_565 S
N9 C10 1.298 . S
N9 N12 1.398 . S
C10 N9 1.298 . S
C10 N13 1.367 . S
C10 C23 1.481 1_455 S
C11 N12 1.299 . S
C11 N13 1.379 . S
N12 N9 1.398 . S
N12 C11 1.299 . S
N13 C10 1.367 . S
N13 C11 1.379 . S
C14 N16 1.298 1_455 S
C14 N18 1.367 1_455 S
C14 C22 1.481 . S
C15 N17 1.299 . S
C15 N18 1.379 . S
N16 Zn0 2.036 1_655 S
N16 C14 1.298 1_655 S
N16 N17 1.398 . S
N17 C15 1.299 . S
N17 N16 1.398 . S
N18 C14 1.367 1_655 S
N18 C15 1.379 . S
H19 C22 0.980 . S
H20 C22 0.981 . S
H21 C22 0.981 . S
C22 C14 1.481 . S
C22 H19 0.980 . S
C22 H20 0.981 . S
C22 H21 0.981 . S
C23 C10 1.481 1_655 S
C23 H24 0.980 . S
C23 H25 0.981 . S
C23 H26 0.981 . S
H24 C23 0.980 . S
H25 C23 0.981 . S
H26 C23 0.981 . S
O27 Zn3 2.075 1_655 S
O27 C6 1.256 . S
O28 Zn0 2.053 1_656 S
O28 C6 1.244 . S
C29 O7 1.259 . S
C29 O8 1.254 1_565 S
O30 Zn0 2.066 . S
O30 C2 1.256 1_554 S
O31 C2 1.244 . S
O31 Zn3 2.067 . S
Zn32 O33 2.055 . S
Zn32 O40 2.046 . S
Zn32 N48 2.036 . S
Zn32 O60 2.053 . S
Zn32 O62 2.066 . S
O33 Zn32 2.055 . S
O33 C36 1.259 . S
C34 O62 1.256 . S
C34 O63 1.244 . S
Zn35 O37 2.046 . S
Zn35 O39 2.055 1_455 S
Zn35 N41 2.034 . S
Zn35 O59 2.066 . S
Zn35 O63 2.053 . S
C36 O33 1.259 . S
C36 O37 1.254 . S
O37 Zn35 2.046 . S
O37 C36 1.254 . S
C38 O59 1.256 . S
C38 O60 1.244 . S
O39 Zn35 2.055 1_655 S
O39 C61 1.259 1_655 S
O40 Zn32 2.046 . S
O40 C61 1.254 . S
N41 Zn35 2.034 . S
N41 C42 1.301 1_455 S
N41 N44 1.397 . S
C42 N41 1.301 1_655 S
C42 N45 1.367 . S
C42 C55 1.481 . S
C43 N44 1.299 1_655 S
C43 N45 1.379 . S
N44 N41 1.397 . S
N44 C43 1.299 1_455 S
N45 C42 1.367 . S
N45 C43 1.379 . S
C46 N48 1.298 . S
C46 N50 1.367 . S
C46 C54 1.481 . S
C47 N49 1.299 . S
C47 N50 1.379 . S
N48 Zn32 2.036 . S
N48 C46 1.298 . S
N48 N49 1.398 . S
N49 C47 1.299 . S
N49 N48 1.398 . S
N50 C46 1.367 . S
N50 C47 1.379 . S
H51 C54 0.980 . S
H52 C54 0.981 . S
H53 C54 0.981 . S
C54 C46 1.481 . S
C54 H51 0.980 . S
C54 H52 0.981 . S
C54 H53 0.981 . S
C55 C42 1.481 . S
C55 H56 0.980 . S
C55 H57 0.981 . S
C55 H58 0.981 . S
H56 C55 0.980 . S
H57 C55 0.981 . S
H58 C55 0.981 . S
O59 Zn35 2.066 . S
O59 C38 1.256 . S
O60 Zn32 2.053 . S
O60 C38 1.244 . S
C61 O39 1.259 1_455 S
C61 O40 1.254 . S
O62 Zn32 2.066 . S
O62 C34 1.256 . S
O63 C34 1.244 . S
O63 Zn35 2.053 . S
Zn64 O65 2.055 . S
Zn64 O72 2.046 . S
Zn64 N80 2.036 . S
Zn64 O92 2.053 . S
Zn64 O94 2.066 . S
O65 Zn64 2.055 . S
O65 C68 1.259 . S
C66 O94 1.256 . S
C66 O95 1.244 . S
Zn67 O69 2.046 . S
Zn67 O71 2.055 . S
Zn67 N73 2.036 . S
Zn67 O91 2.066 . S
Zn67 O95 2.053 . S
C68 O65 1.259 . S
C68 O69 1.254 . S
O69 Zn67 2.046 . S
O69 C68 1.254 . S
C70 O91 1.256 . S
C70 O92 1.244 . S
O71 Zn67 2.055 . S
O71 C93 1.259 . S
O72 Zn64 2.046 . S
O72 C93 1.254 . S
N73 Zn67 2.036 . S
N73 C74 1.298 . S
N73 N76 1.398 . S
C74 N73 1.298 . S
C74 N77 1.367 . S
C74 C87 1.481 . S
C75 N76 1.299 . S
C75 N77 1.379 . S
N76 N73 1.398 . S
N76 C75 1.299 . S
N77 C74 1.367 . S
N77 C75 1.379 . S
C78 N80 1.298 . S
C78 N82 1.367 . S
C78 C86 1.481 . S
C79 N81 1.299 . S
C79 N82 1.379 . S
N80 Zn64 2.036 . S
N80 C78 1.298 . S
N80 N81 1.398 . S
N81 C79 1.299 . S
N81 N80 1.398 . S
N82 C78 1.367 . S
N82 C79 1.379 . S
H83 C86 0.980 . S
H84 C86 0.981 . S
H85 C86 0.981 . S
C86 C78 1.481 . S
C86 H83 0.980 . S
C86 H84 0.981 . S
C86 H85 0.981 . S
C87 C74 1.481 . S
C87 H88 0.980 . S
C87 H89 0.981 . S
C87 H90 0.981 . S
H88 C87 0.980 . S
H89 C87 0.981 . S
H90 C87 0.981 . S
O91 Zn67 2.066 . S
O91 C70 1.256 . S
O92 Zn64 2.053 . S
O92 C70 1.244 . S
C93 O71 1.259 . S
C93 O72 1.254 . S
O94 Zn64 2.066 . S
O94 C66 1.256 . S
O95 C66 1.244 . S
O95 Zn67 2.053 . S
Zn96 O97 2.055 . S
Zn96 O104 2.046 . S
Zn96 N112 2.036 . S
Zn96 O124 2.053 . S
Zn96 O126 2.066 . S
O97 Zn96 2.055 . S
O97 C100 1.259 . S
C98 O126 1.256 . S
C98 O127 1.250 . S
Zn99 O101 2.046 . S
Zn99 O103 2.055 . S
Zn99 N105 2.036 1_545 S
Zn99 O123 2.066 1_545 S
Zn99 O127 2.052 . S
C100 O97 1.259 . S
C100 O101 1.254 . S
O101 Zn99 2.046 . S
O101 C100 1.254 . S
C102 O123 1.256 . S
C102 O124 1.244 1_565 S
O103 Zn99 2.055 . S
O103 C125 1.259 . S
O104 Zn96 2.046 . S
O104 C125 1.254 . S
N105 Zn99 2.036 1_565 S
N105 C106 1.298 . S
N105 N108 1.398 . S
C106 N105 1.298 . S
C106 N109 1.367 . S
C106 C119 1.481 . S
C107 N108 1.299 . S
C107 N109 1.379 . S
N108 N105 1.398 . S
N108 C107 1.299 . S
N109 C106 1.367 . S
N109 C107 1.379 . S
C110 N112 1.298 . S
C110 N114 1.367 . S
C110 C118 1.481 . S
C111 N113 1.299 . S
C111 N114 1.379 . S
N112 Zn96 2.036 . S
N112 C110 1.298 . S
N112 N113 1.398 . S
N113 C111 1.299 . S
N113 N112 1.398 . S
N114 C110 1.367 . S
N114 C111 1.379 . S
H115 C118 0.980 . S
H116 C118 0.981 . S
H117 C118 0.981 . S
C118 C110 1.481 . S
C118 H115 0.980 . S
C118 H116 0.981 . S
C118 H117 0.981 . S
C119 C106 1.481 . S
C119 H120 0.980 . S
C119 H121 0.981 . S
C119 H122 0.981 . S
H120 C119 0.980 . S
H121 C119 0.981 . S
H122 C119 0.981 . S
O123 Zn99 2.066 1_565 S
O123 C102 1.256 . S
O124 Zn96 2.053 . S
O124 C102 1.244 1_545 S
C125 O103 1.259 . S
C125 O104 1.254 . S
O126 Zn96 2.066 . S
O126 C98 1.256 . S
O127 C98 1.250 . S
O127 Zn99 2.052 . S
Zn128 O129 2.055 . S
Zn128 O136 2.046 . S
Zn128 N144 2.036 . S
Zn128 O156 2.053 . S
Zn128 O158 2.066 . S
O129 Zn128 2.055 . S
O129 C132 1.259 . S
C130 O158 1.256 . S
C130 O159 1.244 . S
Zn131 O133 2.046 . S
Zn131 O135 2.055 . S
Zn131 N137 2.036 . S
Zn131 O155 2.066 . S
Zn131 O159 2.053 . S
C132 O129 1.259 . S
C132 O133 1.254 . S
O133 Zn131 2.046 . S
O133 C132 1.254 . S
C134 O155 1.256 . S
C134 O156 1.244 . S
O135 Zn131 2.055 . S
O135 C157 1.259 . S
O136 Zn128 2.046 . S
O136 C157 1.254 . S
N137 Zn131 2.036 . S
N137 C138 1.298 . S
N137 N140 1.398 . S
C138 N137 1.298 . S
C138 N141 1.367 . S
C138 C151 1.481 . S
C139 N140 1.299 . S
C139 N141 1.379 . S
N140 N137 1.398 . S
N140 C139 1.299 . S
N141 C138 1.367 . S
N141 C139 1.379 . S
C142 N144 1.298 . S
C142 N146 1.367 . S
C142 C150 1.481 . S
C143 N145 1.299 . S
C143 N146 1.379 . S
N144 Zn128 2.036 . S
N144 C142 1.298 . S
N144 N145 1.398 . S
N145 C143 1.299 . S
N145 N144 1.398 . S
N146 C142 1.367 . S
N146 C143 1.379 . S
H147 C150 0.980 . S
H148 C150 0.981 . S
H149 C150 0.981 . S
C150 C142 1.481 . S
C150 H147 0.980 . S
C150 H148 0.981 . S
C150 H149 0.981 . S
C151 C138 1.481 . S
C151 H152 0.980 . S
C151 H153 0.981 . S
C151 H154 0.981 . S
H152 C151 0.980 . S
H153 C151 0.981 . S
H154 C151 0.981 . S
O155 Zn131 2.066 . S
O155 C134 1.256 . S
O156 Zn128 2.053 . S
O156 C134 1.244 . S
C157 O135 1.259 . S
C157 O136 1.254 . S
O158 Zn128 2.066 . S
O158 C130 1.256 . S
O159 C130 1.244 . S
O159 Zn131 2.053 . S
Zn160 O161 2.055 . S
Zn160 O168 2.046 . S
Zn160 N176 2.036 . S
Zn160 O188 2.053 . S
Zn160 O190 2.066 . S
O161 Zn160 2.055 . S
O161 C164 1.259 . S
C162 O190 1.256 . S
C162 O191 1.244 . S
Zn163 O165 2.046 . S
Zn163 O167 2.055 . S
Zn163 N169 2.036 . S
Zn163 O187 2.066 . S
Zn163 O191 2.053 . S
C164 O161 1.259 . S
C164 O165 1.254 . S
O165 Zn163 2.046 . S
O165 C164 1.254 . S
C166 O187 1.256 . S
C166 O188 1.244 . S
O167 Zn163 2.055 . S
O167 C189 1.259 . S
O168 Zn160 2.046 . S
O168 C189 1.254 . S
N169 Zn163 2.036 . S
N169 C170 1.298 . S
N169 N172 1.398 . S
C170 N169 1.298 . S
C170 N173 1.367 . S
C170 C183 1.481 . S
C171 N172 1.299 . S
C171 N173 1.379 . S
N172 N169 1.398 . S
N172 C171 1.299 . S
N173 C170 1.367 . S
N173 C171 1.379 . S
C174 N176 1.298 . S
C174 N178 1.367 . S
C174 C182 1.481 . S
C175 N177 1.299 . S
C175 N178 1.379 . S
N176 Zn160 2.036 . S
N176 C174 1.298 . S
N176 N177 1.398 . S
N177 C175 1.299 . S
N177 N176 1.398 . S
N178 C174 1.367 . S
N178 C175 1.379 . S
H179 C182 0.980 . S
H180 C182 0.981 . S
H181 C182 0.981 . S
C182 C174 1.481 . S
C182 H179 0.980 . S
C182 H180 0.981 . S
C182 H181 0.981 . S
C183 C170 1.481 . S
C183 H184 0.980 . S
C183 H185 0.981 . S
C183 H186 0.981 . S
H184 C183 0.980 . S
H185 C183 0.981 . S
H186 C183 0.981 . S
O187 Zn163 2.066 . S
O187 C166 1.256 . S
O188 Zn160 2.053 . S
O188 C166 1.244 . S
C189 O167 1.259 . S
C189 O168 1.254 . S
O190 Zn160 2.066 . S
O190 C162 1.256 . S
O191 C162 1.244 . S
O191 Zn163 2.053 . S
Zn192 O193 2.055 . S
Zn192 O200 2.046 . S
Zn192 N208 2.036 . S
Zn192 O220 2.053 . S
Zn192 O222 2.066 . S
O193 Zn192 2.055 . S
O193 C196 1.259 . S
C194 O222 1.256 . S
C194 O223 1.244 . S
Zn195 O197 2.046 . S
Zn195 O199 2.055 . S
Zn195 N201 2.036 . S
Zn195 O219 2.066 . S
Zn195 O223 2.053 . S
C196 O193 1.259 . S
C196 O197 1.254 . S
O197 Zn195 2.046 . S
O197 C196 1.254 . S
C198 O219 1.256 . S
C198 O220 1.244 . S
O199 Zn195 2.055 . S
O199 C221 1.259 . S
O200 Zn192 2.046 . S
O200 C221 1.254 . S
N201 Zn195 2.036 . S
N201 C202 1.298 . S
N201 N204 1.398 . S
C202 N201 1.298 . S
C202 N205 1.367 . S
C202 C215 1.481 . S
C203 N204 1.299 . S
C203 N205 1.379 . S
N204 N201 1.398 . S
N204 C203 1.299 . S
N205 C202 1.367 . S
N205 C203 1.379 . S
C206 N208 1.298 . S
C206 N210 1.367 . S
C206 C214 1.481 . S
C207 N209 1.299 . S
C207 N210 1.379 . S
N208 Zn192 2.036 . S
N208 C206 1.298 . S
N208 N209 1.398 . S
N209 C207 1.299 . S
N209 N208 1.398 . S
N210 C206 1.367 . S
N210 C207 1.379 . S
H211 C214 0.980 . S
H212 C214 0.981 . S
H213 C214 0.981 . S
C214 C206 1.481 . S
C214 H211 0.980 . S
C214 H212 0.981 . S
C214 H213 0.981 . S
C215 C202 1.481 . S
C215 H216 0.980 . S
C215 H217 0.981 . S
C215 H218 0.981 . S
H216 C215 0.980 . S
H217 C215 0.981 . S
H218 C215 0.981 . S
O219 Zn195 2.066 . S
O219 C198 1.256 . S
O220 Zn192 2.053 . S
O220 C198 1.244 . S
C221 O199 1.259 . S
C221 O200 1.254 . S
O222 Zn192 2.066 . S
O222 C194 1.256 . S
O223 C194 1.244 . S
O223 Zn195 2.053 . S
Zn224 O225 2.055 1_655 S
Zn224 O232 2.046 1_655 S
Zn224 N240 2.036 . S
Zn224 O252 2.053 . S
Zn224 O254 2.066 . S
O225 Zn224 2.055 1_455 S
O225 C228 1.259 . S
C226 O254 1.256 . S
C226 O255 1.243 1_655 S
Zn227 O229 2.046 . S
Zn227 O231 2.055 . S
Zn227 N233 2.036 . S
Zn227 O251 2.066 . S
Zn227 O255 2.054 . S
C228 O225 1.259 . S
C228 O229 1.254 . S
O229 Zn227 2.046 . S
O229 C228 1.254 . S
C230 O251 1.256 . S
C230 O252 1.244 1_455 S
O231 Zn227 2.055 . S
O231 C253 1.259 . S
O232 Zn224 2.046 1_455 S
O232 C253 1.254 . S
N233 Zn227 2.036 . S
N233 C234 1.298 . S
N233 N236 1.398 . S
C234 N233 1.298 . S
C234 N237 1.367 . S
C234 C247 1.481 . S
C235 N236 1.299 . S
C235 N237 1.379 . S
N236 N233 1.398 . S
N236 C235 1.299 . S
N237 C234 1.367 . S
N237 C235 1.379 . S
C238 N240 1.298 . S
C238 N242 1.367 . S
C238 C246 1.481 . S
C239 N241 1.299 . S
C239 N242 1.379 . S
N240 Zn224 2.036 . S
N240 C238 1.298 . S
N240 N241 1.398 . S
N241 C239 1.299 . S
N241 N240 1.398 . S
N242 C238 1.367 . S
N242 C239 1.379 . S
H243 C246 0.980 . S
H244 C246 0.981 . S
H245 C246 0.981 . S
C246 C238 1.481 . S
C246 H243 0.980 . S
C246 H244 0.981 . S
C246 H245 0.981 . S
C247 C234 1.481 . S
C247 H248 0.980 . S
C247 H249 0.981 . S
C247 H250 0.981 . S
H248 C247 0.980 . S
H249 C247 0.981 . S
H250 C247 0.981 . S
O251 Zn227 2.066 . S
O251 C230 1.256 . S
O252 Zn224 2.053 . S
O252 C230 1.244 1_655 S
C253 O231 1.259 . S
C253 O232 1.254 . S
O254 Zn224 2.066 . S
O254 C226 1.256 . S
O255 C226 1.243 1_455 S
O255 Zn227 2.054 . S
Zn256 O257 2.055 1_556 S
Zn256 O264 2.046 1_556 S
Zn256 N272 2.036 . S
Zn256 O284 2.053 . S
Zn256 O286 2.066 . S
O257 Zn256 2.055 1_554 S
O257 C260 1.259 . S
C258 O286 1.256 . S
C258 O287 1.244 . S
Zn259 O261 2.046 . S
Zn259 O263 2.055 . S
Zn259 N265 2.036 . S
Zn259 O283 2.066 . S
Zn259 O287 2.053 1_554 S
C260 O257 1.259 . S
C260 O261 1.254 . S
O261 Zn259 2.046 . S
O261 C260 1.254 . S
C262 O283 1.256 1_556 S
C262 O284 1.244 . S
O263 Zn259 2.055 . S
O263 C285 1.259 . S
O264 Zn256 2.046 1_554 S
O264 C285 1.254 . S
N265 Zn259 2.036 . S
N265 C266 1.298 . S
N265 N268 1.398 . S
C266 N265 1.298 . S
C266 N269 1.367 . S
C266 C279 1.481 . S
C267 N268 1.299 . S
C267 N269 1.379 . S
N268 N265 1.398 . S
N268 C267 1.299 . S
N269 C266 1.367 . S
N269 C267 1.379 . S
C270 N272 1.298 . S
C270 N274 1.367 . S
C270 C278 1.481 . S
C271 N273 1.299 . S
C271 N274 1.379 . S
N272 Zn256 2.036 . S
N272 C270 1.298 . S
N272 N273 1.398 . S
N273 C271 1.299 . S
N273 N272 1.398 . S
N274 C270 1.367 . S
N274 C271 1.379 . S
H275 C278 0.980 . S
H276 C278 0.981 . S
H277 C278 0.981 . S
C278 C270 1.481 . S
C278 H275 0.980 . S
C278 H276 0.981 . S
C278 H277 0.981 . S
C279 C266 1.481 . S
C279 H280 0.980 . S
C279 H281 0.981 . S
C279 H282 0.981 . S
H280 C279 0.980 . S
H281 C279 0.981 . S
H282 C279 0.981 . S
O283 Zn259 2.066 . S
O283 C262 1.256 1_554 S
O284 Zn256 2.053 . S
O284 C262 1.244 . S
C285 O263 1.259 . S
C285 O264 1.254 . S
O286 Zn256 2.066 . S
O286 C258 1.256 . S
O287 C258 1.244 . S
O287 Zn259 2.053 1_556 S
Zn288 O289 2.055 . S
Zn288 O296 2.046 . S
Zn288 N304 2.036 . S
Zn288 O316 2.053 1_545 S
Zn288 O318 2.066 . S
O289 Zn288 2.055 . S
O289 C292 1.259 . S
C290 O318 1.256 1_565 S
C290 O319 1.244 . S
Zn291 O293 2.046 1_565 S
Zn291 O295 2.055 1_565 S
Zn291 N297 2.036 . S
Zn291 O315 2.066 . S
Zn291 O319 2.053 . S
C292 O289 1.259 . S
C292 O293 1.254 . S
O293 Zn291 2.046 1_545 S
O293 C292 1.254 . S
C294 O315 1.256 . S
C294 O316 1.244 . S
O295 Zn291 2.055 1_545 S
O295 C317 1.259 . S
O296 Zn288 2.046 . S
O296 C317 1.254 . S
N297 Zn291 2.036 . S
N297 C298 1.298 . S
N297 N300 1.398 . S
C298 N297 1.298 . S
C298 N301 1.367 . S
C298 C311 1.481 . S
C299 N300 1.299 . S
C299 N301 1.379 . S
N300 N297 1.398 . S
N300 C299 1.299 . S
N301 C298 1.367 . S
N301 C299 1.379 . S
C302 N304 1.298 . S
C302 N306 1.367 . S
C302 C310 1.481 . S
C303 N305 1.299 . S
C303 N306 1.379 . S
N304 Zn288 2.036 . S
N304 C302 1.298 . S
N304 N305 1.398 . S
N305 C303 1.299 . S
N305 N304 1.398 . S
N306 C302 1.367 . S
N306 C303 1.379 . S
H307 C310 0.980 . S
H308 C310 0.981 . S
H309 C310 0.981 . S
C310 C302 1.481 . S
C310 H307 0.980 . S
C310 H308 0.981 . S
C310 H309 0.981 . S
C311 C298 1.481 . S
C311 H312 0.980 . S
C311 H313 0.981 . S
C311 H314 0.981 . S
H312 C311 0.980 . S
H313 C311 0.981 . S
H314 C311 0.981 . S
O315 Zn291 2.066 . S
O315 C294 1.256 . S
O316 Zn288 2.053 1_565 S
O316 C294 1.244 . S
C317 O295 1.259 . S
C317 O296 1.254 . S
O318 Zn288 2.066 . S
O318 C290 1.256 1_545 S
O319 C290 1.244 . S
O319 Zn291 2.053 . S
Zn320 O321 2.055 . S
Zn320 O328 2.046 . S
Zn320 N336 2.036 . S
Zn320 O348 2.053 . S
Zn320 O350 2.066 . S
O321 Zn320 2.055 . S
O321 C324 1.259 . S
C322 O350 1.256 . S
C322 O351 1.244 . S
Zn323 O325 2.046 . S
Zn323 O327 2.055 . S
Zn323 N329 2.036 . S
Zn323 O347 2.066 . S
Zn323 O351 2.053 . S
C324 O321 1.259 . S
C324 O325 1.254 . S
O325 Zn323 2.046 . S
O325 C324 1.254 . S
C326 O347 1.256 . S
C326 O348 1.244 . S
O327 Zn323 2.055 . S
O327 C349 1.259 . S
O328 Zn320 2.046 . S
O328 C349 1.254 . S
N329 Zn323 2.036 . S
N329 C330 1.298 . S
N329 N332 1.398 . S
C330 N329 1.298 . S
C330 N333 1.367 . S
C330 C343 1.481 . S
C331 N332 1.299 . S
C331 N333 1.379 . S
N332 N329 1.398 . S
N332 C331 1.299 . S
N333 C330 1.367 . S
N333 C331 1.379 . S
C334 N336 1.298 . S
C334 N338 1.367 . S
C334 C342 1.481 . S
C335 N337 1.299 . S
C335 N338 1.379 . S
N336 Zn320 2.036 . S
N336 C334 1.298 . S
N336 N337 1.398 . S
N337 C335 1.299 . S
N337 N336 1.398 . S
N338 C334 1.367 . S
N338 C335 1.379 . S
H339 C342 0.980 . S
H340 C342 0.981 . S
H341 C342 0.981 . S
C342 C334 1.481 . S
C342 H339 0.980 . S
C342 H340 0.981 . S
C342 H341 0.981 . S
C343 C330 1.481 . S
C343 H344 0.980 . S
C343 H345 0.981 . S
C343 H346 0.981 . S
H344 C343 0.980 . S
H345 C343 0.981 . S
H346 C343 0.981 . S
O347 Zn323 2.066 . S
O347 C326 1.256 . S
O348 Zn320 2.053 . S
O348 C326 1.244 . S
C349 O327 1.259 . S
C349 O328 1.254 . S
O350 Zn320 2.066 . S
O350 C322 1.256 . S
O351 C322 1.244 . S
O351 Zn323 2.053 . S
Zn352 O353 2.055 . S
Zn352 O360 2.046 1_455 S
Zn352 N368 2.036 . S
Zn352 O380 2.053 . S
Zn352 O382 2.066 . S
O353 Zn352 2.055 . S
O353 C356 1.259 1_455 S
C354 O382 1.256 . S
C354 O383 1.244 . S
Zn355 O357 2.046 . S
Zn355 O359 2.055 . S
Zn355 N361 2.036 . S
Zn355 O379 2.066 1_655 S
Zn355 O383 2.053 1_655 S
C356 O353 1.259 1_655 S
C356 O357 1.254 . S
O357 Zn355 2.046 . S
O357 C356 1.254 . S
C358 O379 1.256 . S
C358 O380 1.244 . S
O359 Zn355 2.055 . S
O359 C381 1.259 . S
O360 Zn352 2.046 1_655 S
O360 C381 1.254 . S
N361 Zn355 2.036 . S
N361 C362 1.298 . S
N361 N364 1.398 . S
C362 N361 1.298 . S
C362 N365 1.367 . S
C362 C375 1.481 . S
C363 N364 1.299 . S
C363 N365 1.379 . S
N364 N361 1.398 . S
N364 C363 1.299 . S
N365 C362 1.367 . S
N365 C363 1.379 . S
C366 N368 1.298 . S
C366 N370 1.367 . S
C366 C374 1.481 . S
C367 N369 1.299 . S
C367 N370 1.379 . S
N368 Zn352 2.036 . S
N368 C366 1.298 . S
N368 N369 1.398 . S
N369 C367 1.299 . S
N369 N368 1.398 . S
N370 C366 1.367 . S
N370 C367 1.379 . S
H371 C374 0.980 . S
H372 C374 0.981 . S
H373 C374 0.981 . S
C374 C366 1.481 . S
C374 H371 0.980 . S
C374 H372 0.981 . S
C374 H373 0.981 . S
C375 C362 1.481 . S
C375 H376 0.980 . S
C375 H377 0.981 . S
C375 H378 0.981 . S
H376 C375 0.980 . S
H377 C375 0.981 . S
H378 C375 0.981 . S
O379 Zn355 2.066 1_455 S
O379 C358 1.256 . S
O380 Zn352 2.053 . S
O380 C358 1.244 . S
C381 O359 1.259 . S
C381 O360 1.254 . S
O382 Zn352 2.066 . S
O382 C354 1.256 . S
O383 C354 1.244 . S
O383 Zn355 2.053 1_455 S
Zn384 O385 2.055 . S
Zn384 O392 2.046 . S
Zn384 N400 2.036 . S
Zn384 O412 2.053 . S
Zn384 O414 2.066 . S
O385 Zn384 2.055 . S
O385 C388 1.259 . S
C386 O414 1.256 . S
C386 O415 1.244 . S
Zn387 O389 2.046 . S
Zn387 O391 2.055 . S
Zn387 N393 2.036 . S
Zn387 O411 2.066 . S
Zn387 O415 2.053 . S
C388 O385 1.259 . S
C388 O389 1.254 . S
O389 Zn387 2.046 . S
O389 C388 1.254 . S
C390 O411 1.256 . S
C390 O412 1.244 . S
O391 Zn387 2.055 . S
O391 C413 1.259 . S
O392 Zn384 2.046 . S
O392 C413 1.254 . S
N393 Zn387 2.036 . S
N393 C394 1.298 . S
N393 N396 1.398 . S
C394 N393 1.298 . S
C394 N397 1.367 . S
C394 C407 1.481 . S
C395 N396 1.299 . S
C395 N397 1.379 . S
N396 N393 1.398 . S
N396 C395 1.299 . S
N397 C394 1.367 . S
N397 C395 1.379 . S
C398 N400 1.298 . S
C398 N402 1.367 . S
C398 C406 1.481 . S
C399 N401 1.299 . S
C399 N402 1.379 . S
N400 Zn384 2.036 . S
N400 C398 1.298 . S
N400 N401 1.398 . S
N401 C399 1.299 . S
N401 N400 1.398 . S
N402 C398 1.367 . S
N402 C399 1.379 . S
H403 C406 0.980 . S
H404 C406 0.981 . S
H405 C406 0.981 . S
C406 C398 1.481 . S
C406 H403 0.980 . S
C406 H404 0.981 . S
C406 H405 0.981 . S
C407 C394 1.481 . S
C407 H408 0.980 . S
C407 H409 0.981 . S
C407 H410 0.981 . S
H408 C407 0.980 . S
H409 C407 0.981 . S
H410 C407 0.981 . S
O411 Zn387 2.066 . S
O411 C390 1.256 . S
O412 Zn384 2.053 . S
O412 C390 1.244 . S
C413 O391 1.259 . S
C413 O392 1.254 . S
O414 Zn384 2.066 . S
O414 C386 1.256 . S
O415 C386 1.244 . S
O415 Zn387 2.053 . S
Zn416 O417 2.055 . S
Zn416 O424 2.046 1_554 S
Zn416 N432 2.036 . S
Zn416 O444 2.053 . S
Zn416 O446 2.066 . S
O417 Zn416 2.055 . S
O417 C420 1.259 1_554 S
C418 O446 1.256 . S
C418 O447 1.244 . S
Zn419 O421 2.046 . S
Zn419 O423 2.055 . S
Zn419 N425 2.036 . S
Zn419 O443 2.066 . S
Zn419 O447 2.053 1_556 S
C420 O417 1.259 1_556 S
C420 O421 1.254 . S
O421 Zn419 2.046 . S
O421 C420 1.254 . S
C422 O443 1.256 1_554 S
C422 O444 1.244 . S
O423 Zn419 2.055 . S
O423 C445 1.259 . S
O424 Zn416 2.046 1_556 S
O424 C445 1.254 . S
N425 Zn419 2.036 . S
N425 C426 1.298 . S
N425 N428 1.398 . S
C426 N425 1.298 . S
C426 N429 1.367 . S
C426 C439 1.481 . S
C427 N428 1.299 . S
C427 N429 1.379 . S
N428 N425 1.398 . S
N428 C427 1.299 . S
N429 C426 1.367 . S
N429 C427 1.379 . S
C430 N432 1.298 . S
C430 N434 1.367 . S
C430 C438 1.481 . S
C431 N433 1.299 . S
C431 N434 1.379 . S
N432 Zn416 2.036 . S
N432 C430 1.298 . S
N432 N433 1.398 . S
N433 C431 1.299 . S
N433 N432 1.398 . S
N434 C430 1.367 . S
N434 C431 1.379 . S
H435 C438 0.980 . S
H436 C438 0.981 . S
H437 C438 0.981 . S
C438 C430 1.481 . S
C438 H435 0.980 . S
C438 H436 0.981 . S
C438 H437 0.981 . S
C439 C426 1.481 . S
C439 H440 0.980 . S
C439 H441 0.981 . S
C439 H442 0.981 . S
H440 C439 0.980 . S
H441 C439 0.981 . S
H442 C439 0.981 . S
O443 Zn419 2.066 . S
O443 C422 1.256 1_556 S
O444 Zn416 2.053 . S
O444 C422 1.244 . S
C445 O423 1.259 . S
C445 O424 1.254 . S
O446 Zn416 2.066 . S
O446 C418 1.256 . S
O447 C418 1.244 . S
O447 Zn419 2.053 1_554 S
Zn448 O449 2.055 . S
Zn448 O456 2.046 . S
Zn448 N464 2.036 . S
Zn448 O476 2.053 . S
Zn448 O478 2.066 . S
O449 Zn448 2.055 . S
O449 C452 1.259 . S
C450 O478 1.256 . S
C450 O479 1.244 . S
Zn451 O453 2.046 1_545 S
Zn451 O455 2.055 1_545 S
Zn451 N457 2.036 1_545 S
Zn451 O475 2.066 . S
Zn451 O479 2.053 . S
C452 O449 1.259 . S
C452 O453 1.254 1_545 S
O453 Zn451 2.046 1_565 S
O453 C452 1.254 1_565 S
C454 O475 1.256 . S
C454 O476 1.244 . S
O455 Zn451 2.055 1_565 S
O455 C477 1.259 . S
O456 Zn448 2.046 . S
O456 C477 1.254 1_545 S
N457 Zn451 2.036 1_565 S
N457 C458 1.298 . S
N457 N460 1.398 . S
C458 N457 1.298 . S
C458 N461 1.367 . S
C458 C471 1.481 . S
C459 N460 1.299 . S
C459 N461 1.379 . S
N460 N457 1.398 . S
N460 C459 1.299 . S
N461 C458 1.367 . S
N461 C459 1.379 . S
C462 N464 1.298 . S
C462 N466 1.367 . S
C462 C470 1.481 . S
C463 N465 1.299 . S
C463 N466 1.379 . S
N464 Zn448 2.036 . S
N464 C462 1.298 . S
N464 N465 1.398 . S
N465 C463 1.299 . S
N465 N464 1.398 . S
N466 C462 1.367 . S
N466 C463 1.379 . S
H467 C470 0.980 . S
H468 C470 0.981 . S
H469 C470 0.981 . S
C470 C462 1.481 . S
C470 H467 0.980 . S
C470 H468 0.981 . S
C470 H469 0.981 . S
C471 C458 1.481 . S
C471 H472 0.980 . S
C471 H473 0.981 . S
C471 H474 0.981 . S
H472 C471 0.980 . S
H473 C471 0.981 . S
H474 C471 0.981 . S
O475 Zn451 2.066 . S
O475 C454 1.256 . S
O476 Zn448 2.053 . S
O476 C454 1.244 . S
C477 O455 1.259 . S
C477 O456 1.254 1_565 S
O478 Zn448 2.066 . S
O478 C450 1.256 . S
O479 C450 1.244 . S
O479 Zn451 2.053 . S
Zn480 O481 2.055 . S
Zn480 O488 2.046 . S
Zn480 N496 2.036 . S
Zn480 O508 2.053 1_554 S
Zn480 O510 2.066 . S
O481 Zn480 2.055 . S
O481 C484 1.259 . S
C482 O510 1.256 1_556 S
C482 O511 1.244 . S
Zn483 O485 2.046 1_556 S
Zn483 O487 2.055 1_556 S
Zn483 N489 2.036 . S
Zn483 O507 2.066 . S
Zn483 O511 2.053 . S
C484 O481 1.259 . S
C484 O485 1.254 . S
O485 Zn483 2.046 1_554 S
O485 C484 1.254 . S
C486 O507 1.256 . S
C486 O508 1.244 . S
O487 Zn483 2.055 1_554 S
O487 C509 1.259 . S
O488 Zn480 2.046 . S
O488 C509 1.254 . S
N489 Zn483 2.036 . S
N489 C490 1.298 . S
N489 N492 1.398 . S
C490 N489 1.298 . S
C490 N493 1.367 . S
C490 C503 1.481 . S
C491 N492 1.299 . S
C491 N493 1.379 . S
N492 N489 1.398 . S
N492 C491 1.299 . S
N493 C490 1.367 . S
N493 C491 1.379 . S
C494 N496 1.298 . S
C494 N498 1.367 . S
C494 C502 1.481 . S
C495 N497 1.299 . S
C495 N498 1.379 . S
N496 Zn480 2.036 . S
N496 C494 1.298 . S
N496 N497 1.398 . S
N497 C495 1.299 . S
N497 N496 1.398 . S
N498 C494 1.367 . S
N498 C495 1.379 . S
H499 C502 0.980 . S
H500 C502 0.981 . S
H501 C502 0.981 . S
C502 C494 1.481 . S
C502 H499 0.980 . S
C502 H500 0.981 . S
C502 H501 0.981 . S
C503 C490 1.481 . S
C503 H504 0.980 . S
C503 H505 0.981 . S
C503 H506 0.981 . S
H504 C503 0.980 . S
H505 C503 0.981 . S
H506 C503 0.981 . S
O507 Zn483 2.066 . S
O507 C486 1.256 . S
O508 Zn480 2.053 1_556 S
O508 C486 1.244 . S
C509 O487 1.259 . S
C509 O488 1.254 . S
O510 Zn480 2.066 . S
O510 C482 1.256 1_554 S
O511 C482 1.244 . S
O511 Zn483 2.053 . S
H512 C520 0.950 . S
H513 C525 0.950 . S
H514 C522 0.950 . S
H515 C524 0.950 . S
H516 C526 0.950 . S
H517 C528 0.950 . S
H518 C530 0.950 . S
H519 C531 0.950 . S
C520 H512 0.950 . S
C520 C521 1.386 . S
C520 C522 1.391 . S
C521 C520 1.386 . S
C521 C525 1.393 1_655 S
C522 H514 0.950 . S
C522 C520 1.391 . S
C522 C523 1.400 1_655 S
C523 C522 1.400 1_455 S
C523 C524 1.398 . S
C523 C529 1.491 . S
C524 H515 0.950 . S
C524 C523 1.398 . S
C524 C525 1.391 . S
C525 H513 0.950 . S
C525 C521 1.393 1_455 S
C525 C524 1.391 . S
C526 H516 0.950 . S
C526 C527 1.386 . S
C526 C528 1.391 . S
C527 C526 1.386 . S
C527 C531 1.393 1_455 S
C528 H517 0.950 . S
C528 C526 1.391 . S
C528 C529 1.400 . S
C529 C523 1.491 . S
C529 C528 1.400 . S
C529 C530 1.398 1_455 S
C530 H518 0.950 . S
C530 C529 1.398 1_655 S
C530 C531 1.391 . S
C531 H519 0.950 . S
C531 C527 1.393 1_655 S
C531 C530 1.391 . S
H532 C540 0.950 . S
H533 C545 0.950 . S
H534 C542 0.950 . S
H535 C544 0.950 . S
H536 C546 0.950 . S
H537 C548 0.950 . S
H538 C550 0.950 . S
H539 C551 0.950 1_455 S
C540 H532 0.950 . S
C540 C541 1.386 . S
C540 C542 1.391 . S
C541 C540 1.386 . S
C541 C545 1.393 . S
C542 H534 0.950 . S
C542 C540 1.391 . S
C542 C543 1.400 . S
C543 C542 1.400 . S
C543 C544 1.398 . S
C543 C549 1.491 . S
C544 H535 0.950 . S
C544 C543 1.398 . S
C544 C545 1.391 . S
C545 H533 0.950 . S
C545 C541 1.393 . S
C545 C544 1.391 . S
C546 H536 0.950 . S
C546 C547 1.386 . S
C546 C548 1.391 . S
C547 C546 1.386 . S
C547 C551 1.393 . S
C548 H537 0.950 . S
C548 C546 1.391 . S
C548 C549 1.400 . S
C549 C543 1.491 . S
C549 C548 1.400 . S
C549 C550 1.398 . S
C550 H538 0.950 . S
C550 C549 1.398 . S
C550 C551 1.391 . S
C551 H539 0.950 1_655 S
C551 C547 1.393 . S
C551 C550 1.391 . S
H552 C560 0.950 . S
H553 C565 0.950 . S
H554 C562 0.950 . S
H555 C564 0.950 . S
H556 C566 0.950 . S
H557 C568 0.950 . S
H558 C570 0.950 . S
H559 C571 0.950 . S
C560 H552 0.950 . S
C560 C561 1.386 . S
C560 C562 1.391 . S
C561 C560 1.386 . S
C561 C565 1.393 . S
C562 H554 0.950 . S
C562 C560 1.391 . S
C562 C563 1.400 . S
C563 C562 1.400 . S
C563 C564 1.398 . S
C563 C569 1.491 . S
C564 H555 0.950 . S
C564 C563 1.398 . S
C564 C565 1.391 . S
C565 H553 0.950 . S
C565 C561 1.393 . S
C565 C564 1.391 . S
C566 H556 0.950 . S
C566 C567 1.386 . S
C566 C568 1.391 . S
C567 C566 1.386 . S
C567 C571 1.393 . S
C568 H557 0.950 . S
C568 C566 1.391 . S
C568 C569 1.400 . S
C569 C563 1.491 . S
C569 C568 1.400 . S
C569 C570 1.398 . S
C570 H558 0.950 . S
C570 C569 1.398 . S
C570 C571 1.391 . S
C571 H559 0.950 . S
C571 C567 1.393 . S
C571 C570 1.391 . S
H572 C580 0.950 . S
H573 C585 0.950 1_565 S
H574 C582 0.950 . S
H575 C584 0.950 1_565 S
H576 C586 0.950 . S
H577 C588 0.940 1_565 S
H578 C590 0.950 . S
H579 C591 0.950 . S
C580 H572 0.950 . S
C580 C581 1.386 . S
C580 C582 1.391 . S
C581 C580 1.386 . S
C581 C585 1.393 . S
C582 H574 0.950 . S
C582 C580 1.391 . S
C582 C583 1.400 . S
C583 C582 1.400 . S
C583 C584 1.398 . S
C583 C589 1.491 . S
C584 H575 0.950 1_545 S
C584 C583 1.398 . S
C584 C585 1.391 . S
C585 H573 0.950 1_545 S
C585 C581 1.393 . S
C585 C584 1.391 . S
C586 H576 0.950 . S
C586 C587 1.386 . S
C586 C588 1.391 . S
C587 C586 1.386 . S
C587 C591 1.393 . S
C588 H577 0.940 1_545 S
C588 C586 1.391 . S
C588 C589 1.400 . S
C589 C583 1.491 . S
C589 C588 1.400 . S
C589 C590 1.398 . S
C590 H578 0.950 . S
C590 C589 1.398 . S
C590 C591 1.391 . S
C591 H579 0.950 . S
C591 C587 1.393 . S
C591 C590 1.391 . S
H592 C600 0.950 . S
H593 C605 0.950 . S
H594 C602 0.950 . S
H595 C604 0.950 . S
H596 C606 0.950 . S
H597 C608 0.950 . S
H598 C610 0.950 . S
H599 C611 0.950 . S
C600 H592 0.950 . S
C600 C601 1.386 . S
C600 C602 1.391 . S
C601 C600 1.386 . S
C601 C605 1.393 1_545 S
C602 H594 0.950 . S
C602 C600 1.391 . S
C602 C603 1.387 1_545 S
C603 C602 1.387 1_565 S
C603 C604 1.403 . S
C603 C609 1.500 . S
C604 H595 0.950 . S
C604 C603 1.403 . S
C604 C605 1.391 . S
C605 H593 0.950 . S
C605 C601 1.393 1_565 S
C605 C604 1.391 . S
C606 H596 0.950 . S
C606 C607 1.386 . S
C606 C608 1.391 . S
C607 C606 1.386 . S
C607 C611 1.393 1_565 S
C608 H597 0.950 . S
C608 C606 1.391 . S
C608 C609 1.400 . S
C609 C603 1.500 . S
C609 C608 1.400 . S
C609 C610 1.398 1_565 S
C610 H598 0.950 . S
C610 C609 1.398 1_545 S
C610 C611 1.391 . S
C611 H599 0.950 . S
C611 C607 1.393 1_545 S
C611 C610 1.391 . S
H612 C620 0.950 . S
H613 C625 0.950 . S
H614 C622 0.950 . S
H615 C624 0.950 . S
H616 C626 0.950 . S
H617 C628 0.950 . S
H618 C630 0.950 . S
H619 C631 0.950 . S
C620 H612 0.950 . S
C620 C621 1.386 . S
C620 C622 1.391 . S
C621 C620 1.386 . S
C621 C625 1.393 . S
C622 H614 0.950 . S
C622 C620 1.391 . S
C622 C623 1.400 . S
C623 C622 1.400 . S
C623 C624 1.398 . S
C623 C629 1.491 . S
C624 H615 0.950 . S
C624 C623 1.398 . S
C624 C625 1.391 . S
C625 H613 0.950 . S
C625 C621 1.393 . S
C625 C624 1.391 . S
C626 H616 0.950 . S
C626 C627 1.386 . S
C626 C628 1.391 . S
C627 C626 1.386 . S
C627 C631 1.393 . S
C628 H617 0.950 . S
C628 C626 1.391 . S
C628 C629 1.400 . S
C629 C623 1.491 . S
C629 C628 1.400 . S
C629 C630 1.398 . S
C630 H618 0.950 . S
C630 C629 1.398 . S
C630 C631 1.391 . S
C631 H619 0.950 . S
C631 C627 1.393 . S
C631 C630 1.391 . S
H632 C640 0.950 . S
H633 C645 0.950 . S
H634 C642 0.950 . S
H635 C644 0.950 . S
H636 C646 0.950 . S
H637 C648 0.950 . S
H638 C650 0.950 . S
H639 C651 0.950 . S
C640 H632 0.950 . S
C640 C641 1.386 . S
C640 C642 1.391 . S
C641 C640 1.386 . S
C641 C645 1.393 . S
C642 H634 0.950 . S
C642 C640 1.391 . S
C642 C643 1.400 . S
C643 C642 1.400 . S
C643 C644 1.398 . S
C643 C649 1.491 . S
C644 H635 0.950 . S
C644 C643 1.398 . S
C644 C645 1.391 . S
C645 H633 0.950 . S
C645 C641 1.393 . S
C645 C644 1.391 . S
C646 H636 0.950 . S
C646 C647 1.386 . S
C646 C648 1.391 . S
C647 C646 1.386 . S
C647 C651 1.393 . S
C648 H637 0.950 . S
C648 C646 1.391 . S
C648 C649 1.400 . S
C649 C643 1.491 . S
C649 C648 1.400 . S
C649 C650 1.398 . S
C650 H638 0.950 . S
C650 C649 1.398 . S
C650 C651 1.391 . S
C651 H639 0.950 . S
C651 C647 1.393 . S
C651 C650 1.391 . S
H652 C660 0.950 . S
H653 C665 0.950 . S
H654 C662 0.950 . S
H655 C664 0.950 . S
H656 C666 0.950 . S
H657 C668 0.950 . S
H658 C670 0.950 . S
H659 C671 0.950 . S
C660 H652 0.950 . S
C660 C661 1.386 . S
C660 C662 1.391 . S
C661 C660 1.386 . S
C661 C665 1.393 . S
C662 H654 0.950 . S
C662 C660 1.391 . S
C662 C663 1.400 . S
C663 C662 1.400 . S
C663 C664 1.398 . S
C663 C669 1.491 . S
C664 H655 0.950 . S
C664 C663 1.398 . S
C664 C665 1.391 . S
C665 H653 0.950 . S
C665 C661 1.393 . S
C665 C664 1.391 . S
C666 H656 0.950 . S
C666 C667 1.386 . S
C666 C668 1.391 . S
C667 C666 1.386 . S
C667 C671 1.393 . S
C668 H657 0.950 . S
C668 C666 1.391 . S
C668 C669 1.400 . S
C669 C663 1.491 . S
C669 C668 1.400 . S
C669 C670 1.398 . S
C670 H658 0.950 . S
C670 C669 1.398 . S
C670 C671 1.391 . S
C671 H659 0.950 . S
C671 C667 1.393 . S
C671 C670 1.391 . S
H672 C680 0.950 . S
H673 C685 0.950 . S
H674 C682 0.950 . S
H675 C684 0.950 . S
H676 C686 0.950 . S
H677 C688 0.950 . S
H678 C690 0.950 . S
H679 C691 0.950 . S
C680 H672 0.950 . S
C680 C681 1.386 . S
C680 C682 1.391 . S
C681 C680 1.386 . S
C681 C685 1.393 . S
C682 H674 0.950 . S
C682 C680 1.391 . S
C682 C683 1.400 . S
C683 C682 1.400 . S
C683 C684 1.398 . S
C683 C689 1.491 . S
C684 H675 0.950 . S
C684 C683 1.398 . S
C684 C685 1.391 . S
C685 H673 0.950 . S
C685 C681 1.393 . S
C685 C684 1.391 . S
C686 H676 0.950 . S
C686 C687 1.386 . S
C686 C688 1.391 . S
C687 C686 1.386 . S
C687 C691 1.393 . S
C688 H677 0.950 . S
C688 C686 1.391 . S
C688 C689 1.400 . S
C689 C683 1.491 . S
C689 C688 1.400 . S
C689 C690 1.398 . S
C690 H678 0.950 . S
C690 C689 1.398 . S
C690 C691 1.391 . S
C691 H679 0.950 . S
C691 C687 1.393 . S
C691 C690 1.391 . S
H692 C700 0.950 . S
H693 C705 0.950 . S
H694 C702 0.950 . S
H695 C704 0.950 . S
H696 C706 0.950 . S
H697 C708 0.950 . S
H698 C710 0.950 . S
H699 C711 0.950 . S
C700 H692 0.950 . S
C700 C701 1.386 . S
C700 C702 1.391 . S
C701 C700 1.386 . S
C701 C705 1.393 . S
C702 H694 0.950 . S
C702 C700 1.391 . S
C702 C703 1.400 . S
C703 C702 1.400 . S
C703 C704 1.398 . S
C703 C709 1.491 . S
C704 H695 0.950 . S
C704 C703 1.398 . S
C704 C705 1.391 . S
C705 H693 0.950 . S
C705 C701 1.393 . S
C705 C704 1.391 . S
C706 H696 0.950 . S
C706 C707 1.386 . S
C706 C708 1.391 . S
C707 C706 1.386 . S
C707 C711 1.393 . S
C708 H697 0.950 . S
C708 C706 1.391 . S
C708 C709 1.400 . S
C709 C703 1.491 . S
C709 C708 1.400 . S
C709 C710 1.398 . S
C710 H698 0.950 . S
C710 C709 1.398 . S
C710 C711 1.391 . S
C711 H699 0.950 . S
C711 C707 1.393 . S
C711 C710 1.391 . S
H712 C720 0.950 . S
H713 C725 0.950 . S
H714 C722 0.950 . S
H715 C724 0.950 . S
H716 C726 0.950 . S
H717 C728 0.950 . S
H718 C730 0.950 . S
H719 C731 0.950 . S
C720 H712 0.950 . S
C720 C721 1.386 . S
C720 C722 1.391 . S
C721 C720 1.386 . S
C721 C725 1.393 1_545 S
C722 H714 0.950 . S
C722 C720 1.391 . S
C722 C723 1.400 . S
C723 C722 1.400 . S
C723 C724 1.398 1_545 S
C723 C729 1.491 . S
C724 H715 0.950 . S
C724 C723 1.398 1_565 S
C724 C725 1.391 . S
C725 H713 0.950 . S
C725 C721 1.393 1_565 S
C725 C724 1.391 . S
C726 H716 0.950 . S
C726 C727 1.386 1_565 S
C726 C728 1.391 . S
C727 C726 1.386 1_545 S
C727 C731 1.393 . S
C728 H717 0.950 . S
C728 C726 1.391 . S
C728 C729 1.400 1_565 S
C729 C723 1.491 . S
C729 C728 1.400 1_545 S
C729 C730 1.398 . S
C730 H718 0.950 . S
C730 C729 1.398 . S
C730 C731 1.391 . S
C731 H719 0.950 . S
C731 C727 1.393 . S
C731 C730 1.391 . S
H732 C740 0.950 1_655 S
H733 C745 0.950 . S
H734 C742 0.950 1_655 S
H735 C744 0.950 . S
H736 C746 0.950 . S
H737 C748 0.950 . S
H738 C750 0.950 1_655 S
H739 C751 0.934 1_655 S
C740 H732 0.950 1_455 S
C740 C741 1.386 . S
C740 C742 1.391 . S
C741 C740 1.386 . S
C741 C745 1.393 . S
C742 H734 0.950 1_455 S
C742 C740 1.391 . S
C742 C743 1.400 . S
C743 C742 1.400 . S
C743 C744 1.398 . S
C743 C749 1.491 . S
C744 H735 0.950 . S
C744 C743 1.398 . S
C744 C745 1.391 . S
C745 H733 0.950 . S
C745 C741 1.393 . S
C745 C744 1.391 . S
C746 H736 0.950 . S
C746 C747 1.386 . S
C746 C748 1.391 . S
C747 C746 1.386 . S
C747 C751 1.411 . S
C748 H737 0.950 . S
C748 C746 1.391 . S
C748 C749 1.400 . S
C749 C743 1.491 . S
C749 C748 1.400 . S
C749 C750 1.398 . S
C750 H738 0.950 1_455 S
C750 C749 1.398 . S
C750 C751 1.388 . S
C751 H739 0.934 1_455 S
C751 C747 1.411 . S
C751 C750 1.388 . S
H752 C760 0.950 . S
H753 C765 0.950 . S
H754 C762 0.950 . S
H755 C764 0.950 . S
H756 C766 0.950 . S
H757 C768 0.950 . S
H758 C770 0.950 . S
H759 C771 0.950 . S
C760 H752 0.950 . S
C760 C761 1.386 1_554 S
C760 C762 1.391 . S
C761 C760 1.386 1_556 S
C761 C765 1.393 . S
C762 H754 0.950 . S
C762 C760 1.391 . S
C762 C763 1.400 1_554 S
C763 C762 1.400 1_556 S
C763 C764 1.398 . S
C763 C769 1.491 . S
C764 H755 0.950 . S
C764 C763 1.398 . S
C764 C765 1.391 . S
C765 H753 0.950 . S
C765 C761 1.393 . S
C765 C764 1.391 . S
C766 H756 0.950 . S
C766 C767 1.386 . S
C766 C768 1.391 . S
C767 C766 1.386 . S
C767 C771 1.393 1_556 S
C768 H757 0.950 . S
C768 C766 1.391 . S
C768 C769 1.400 . S
C769 C763 1.491 . S
C769 C768 1.400 . S
C769 C770 1.398 1_556 S
C770 H758 0.950 . S
C770 C769 1.398 1_554 S
C770 C771 1.391 . S
C771 H759 0.950 . S
C771 C767 1.393 1_554 S
C771 C770 1.391 . S
H772 C780 0.950 . S
H773 C785 0.950 . S
H774 C782 0.950 . S
H775 C784 0.950 . S
H776 C786 0.950 . S
H777 C788 0.950 . S
H778 C790 0.950 . S
H779 C791 0.950 . S
C780 H772 0.950 . S
C780 C781 1.386 . S
C780 C782 1.391 . S
C781 C780 1.386 . S
C781 C785 1.393 . S
C782 H774 0.950 . S
C782 C780 1.391 . S
C782 C783 1.400 . S
C783 C782 1.400 . S
C783 C784 1.398 . S
C783 C789 1.491 . S
C784 H775 0.950 . S
C784 C783 1.398 . S
C784 C785 1.391 . S
C785 H773 0.950 . S
C785 C781 1.393 . S
C785 C784 1.391 . S
C786 H776 0.950 . S
C786 C787 1.386 . S
C786 C788 1.391 . S
C787 C786 1.386 . S
C787 C791 1.393 . S
C788 H777 0.950 . S
C788 C786 1.391 . S
C788 C789 1.400 . S
C789 C783 1.491 . S
C789 C788 1.400 . S
C789 C790 1.398 . S
C790 H778 0.950 . S
C790 C789 1.398 . S
C790 C791 1.391 . S
C791 H779 0.950 . S
C791 C787 1.393 . S
C791 C790 1.391 . S
H792 C800 0.950 . S
H793 C805 0.950 . S
H794 C802 0.950 . S
H795 C804 0.950 . S
H796 C806 0.950 . S
H797 C808 0.950 . S
H798 C810 0.950 . S
H799 C811 0.950 . S
C800 H792 0.950 . S
C800 C801 1.386 . S
C800 C802 1.391 . S
C801 C800 1.386 . S
C801 C805 1.393 . S
C802 H794 0.950 . S
C802 C800 1.391 . S
C802 C803 1.400 . S
C803 C802 1.400 . S
C803 C804 1.398 . S
C803 C809 1.491 . S
C804 H795 0.950 . S
C804 C803 1.398 . S
C804 C805 1.391 . S
C805 H793 0.950 . S
C805 C801 1.393 . S
C805 C804 1.391 . S
C806 H796 0.950 . S
C806 C807 1.386 . S
C806 C808 1.391 . S
C807 C806 1.386 . S
C807 C811 1.393 . S
C808 H797 0.950 . S
C808 C806 1.391 . S
C808 C809 1.400 . S
C809 C803 1.491 . S
C809 C808 1.400 . S
C809 C810 1.398 . S
C810 H798 0.950 . S
C810 C809 1.398 . S
C810 C811 1.391 . S
C811 H799 0.950 . S
C811 C807 1.393 . S
C811 C810 1.391 . S
H812 C820 0.950 . S
H813 C825 0.950 . S
H814 C822 0.950 . S
H815 C824 0.950 . S
H816 C826 0.950 . S
H817 C828 0.950 . S
H818 C830 0.950 . S
H819 C831 0.950 . S
C820 H812 0.950 . S
C820 C821 1.386 . S
C820 C822 1.391 . S
C821 C820 1.386 . S
C821 C825 1.393 . S
C822 H814 0.950 . S
C822 C820 1.391 . S
C822 C823 1.400 . S
C823 C822 1.400 . S
C823 C824 1.398 . S
C823 C829 1.491 . S
C824 H815 0.950 . S
C824 C823 1.398 . S
C824 C825 1.391 . S
C825 H813 0.950 . S
C825 C821 1.393 . S
C825 C824 1.391 . S
C826 H816 0.950 . S
C826 C827 1.386 . S
C826 C828 1.391 . S
C827 C826 1.386 . S
C827 C831 1.393 . S
C828 H817 0.950 . S
C828 C826 1.391 . S
C828 C829 1.400 . S
C829 C823 1.491 . S
C829 C828 1.400 . S
C829 C830 1.398 . S
C830 H818 0.950 . S
C830 C829 1.398 . S
C830 C831 1.391 . S
C831 H819 0.950 . S
C831 C827 1.393 . S
C831 C830 1.391 . S
H832 C840 0.950 . S
H833 C845 0.950 . S
H834 C842 0.950 . S
H835 C844 0.950 . S
H836 C846 0.950 . S
H837 C848 0.950 . S
H838 C850 0.950 . S
H839 C851 0.950 . S
C840 H832 0.950 . S
C840 C841 1.386 . S
C840 C842 1.391 . S
C841 C840 1.386 . S
C841 C845 1.393 . S
C842 H834 0.950 . S
C842 C840 1.391 . S
C842 C843 1.400 . S
C843 C842 1.400 . S
C843 C844 1.398 . S
C843 C849 1.491 . S
C844 H835 0.950 . S
C844 C843 1.398 . S
C844 C845 1.391 . S
C845 H833 0.950 . S
C845 C841 1.393 . S
C845 C844 1.391 . S
C846 H836 0.950 . S
C846 C847 1.386 . S
C846 C848 1.391 . S
C847 C846 1.386 . S
C847 C851 1.393 . S
C848 H837 0.950 . S
C848 C846 1.391 . S
C848 C849 1.400 . S
C849 C843 1.491 . S
C849 C848 1.400 . S
C849 C850 1.398 . S
C850 H838 0.950 . S
C850 C849 1.398 . S
C850 C851 1.391 . S
C851 H839 0.950 . S
C851 C847 1.393 . S
C851 C850 1.391 . S
H852 C860 0.950 . S
H853 C865 0.950 . S
H854 C862 0.950 . S
H855 C864 0.950 . S
H856 C866 0.950 . S
H857 C868 0.950 . S
H858 C870 0.950 . S
H859 C871 0.950 . S
C860 H852 0.950 . S
C860 C861 1.386 . S
C860 C862 1.391 . S
C861 C860 1.386 . S
C861 C865 1.393 . S
C862 H854 0.950 . S
C862 C860 1.391 . S
C862 C863 1.400 . S
C863 C862 1.400 . S
C863 C864 1.398 . S
C863 C869 1.491 . S
C864 H855 0.950 . S
C864 C863 1.398 . S
C864 C865 1.391 . S
C865 H853 0.950 . S
C865 C861 1.393 . S
C865 C864 1.391 . S
C866 H856 0.950 . S
C866 C867 1.386 . S
C866 C868 1.391 . S
C867 C866 1.386 . S
C867 C871 1.393 . S
C868 H857 0.950 . S
C868 C866 1.391 . S
C868 C869 1.400 . S
C869 C863 1.491 . S
C869 C868 1.400 . S
C869 C870 1.398 . S
C870 H858 0.950 . S
C870 C869 1.398 . S
C870 C871 1.391 . S
C871 H859 0.950 . S
C871 C867 1.393 . S
C871 C870 1.391 . S
H872 C880 0.950 . S
H873 C885 0.950 . S
H874 C882 0.950 . S
H875 C884 0.950 . S
H876 C886 0.950 . S
H877 C888 0.950 . S
H878 C890 0.950 . S
H879 C891 0.950 . S
C880 H872 0.950 . S
C880 C881 1.386 . S
C880 C882 1.391 . S
C881 C880 1.386 . S
C881 C885 1.393 . S
C882 H874 0.950 . S
C882 C880 1.391 . S
C882 C883 1.400 . S
C883 C882 1.400 . S
C883 C884 1.398 . S
C883 C889 1.491 . S
C884 H875 0.950 . S
C884 C883 1.398 . S
C884 C885 1.391 . S
C885 H873 0.950 . S
C885 C881 1.393 . S
C885 C884 1.391 . S
C886 H876 0.950 . S
C886 C887 1.386 . S
C886 C888 1.391 . S
C887 C886 1.386 . S
C887 C891 1.393 . S
C888 H877 0.950 . S
C888 C886 1.391 . S
C888 C889 1.400 . S
C889 C883 1.491 . S
C889 C888 1.400 . S
C889 C890 1.398 . S
C890 H878 0.950 . S
C890 C889 1.398 . S
C890 C891 1.391 . S
C891 H879 0.950 . S
C891 C887 1.393 . S
C891 C890 1.391 . S
H892 C900 0.950 . S
H893 C905 0.950 . S
H894 C902 0.950 . S
H895 C904 0.950 . S
H896 C906 0.950 . S
H897 C908 0.950 . S
H898 C910 0.950 . S
H899 C911 0.950 . S
C900 H892 0.950 . S
C900 C901 1.386 . S
C900 C902 1.391 . S
C901 C900 1.386 . S
C901 C905 1.393 . S
C902 H894 0.950 . S
C902 C900 1.391 . S
C902 C903 1.400 . S
C903 C902 1.400 . S
C903 C904 1.398 . S
C903 C909 1.491 . S
C904 H895 0.950 . S
C904 C903 1.398 . S
C904 C905 1.391 . S
C905 H893 0.950 . S
C905 C901 1.393 . S
C905 C904 1.391 . S
C906 H896 0.950 . S
C906 C907 1.386 . S
C906 C908 1.391 . S
C907 C906 1.386 . S
C907 C911 1.393 . S
C908 H897 0.950 . S
C908 C906 1.391 . S
C908 C909 1.400 . S
C909 C903 1.491 . S
C909 C908 1.400 . S
C909 C910 1.398 . S
C910 H898 0.950 . S
C910 C909 1.398 . S
C910 C911 1.391 . S
C911 H899 0.950 . S
C911 C907 1.393 . S
C911 C910 1.391 . S
H912 C920 0.950 . S
H913 C925 0.950 . S
H914 C922 0.950 . S
H915 C924 0.950 . S
H916 C926 0.950 . S
H917 C928 0.950 . S
H918 C930 0.950 . S
H919 C931 0.950 . S
C920 H912 0.950 . S
C920 C921 1.386 . S
C920 C922 1.391 . S
C921 C920 1.386 . S
C921 C925 1.393 . S
C922 H914 0.950 . S
C922 C920 1.391 . S
C922 C923 1.400 . S
C923 C922 1.400 . S
C923 C924 1.398 . S
C923 C929 1.491 . S
C924 H915 0.950 . S
C924 C923 1.398 . S
C924 C925 1.391 . S
C925 H913 0.950 . S
C925 C921 1.393 . S
C925 C924 1.391 . S
C926 H916 0.950 . S
C926 C927 1.386 . S
C926 C928 1.391 . S
C927 C926 1.386 . S
C927 C931 1.393 . S
C928 H917 0.950 . S
C928 C926 1.391 . S
C928 C929 1.400 . S
C929 C923 1.491 . S
C929 C928 1.400 . S
C929 C930 1.398 . S
C930 H918 0.950 . S
C930 C929 1.398 . S
C930 C931 1.391 . S
C931 H919 0.950 . S
C931 C927 1.393 . S
C931 C930 1.391 . S
H932 C940 0.950 . S
H933 C945 0.950 . S
H934 C942 0.950 . S
H935 C944 0.950 . S
H936 C946 0.950 . S
H937 C948 0.950 . S
H938 C950 0.950 . S
H939 C951 0.950 . S
C940 H932 0.950 . S
C940 C941 1.386 . S
C940 C942 1.391 . S
C941 C940 1.386 . S
C941 C945 1.393 1_655 S
C942 H934 0.950 . S
C942 C940 1.391 . S
C942 C943 1.400 . S
C943 C942 1.400 . S
C943 C944 1.398 1_655 S
C943 C949 1.491 . S
C944 H935 0.950 . S
C944 C943 1.398 1_455 S
C944 C945 1.391 . S
C945 H933 0.950 . S
C945 C941 1.393 1_455 S
C945 C944 1.391 . S
C946 H936 0.950 . S
C946 C947 1.386 . S
C946 C948 1.391 . S
C947 C946 1.386 . S
C947 C951 1.393 1_455 S
C948 H937 0.950 . S
C948 C946 1.391 . S
C948 C949 1.400 1_455 S
C949 C943 1.491 . S
C949 C948 1.400 1_655 S
C949 C950 1.398 . S
C950 H938 0.950 . S
C950 C949 1.398 . S
C950 C951 1.391 . S
C951 H939 0.950 . S
C951 C947 1.393 1_655 S
C951 C950 1.391 . S
H952 C960 0.950 . S
H953 C965 0.950 . S
H954 C962 0.950 . S
H955 C964 0.950 . S
H956 C966 0.950 . S
H957 C968 0.950 . S
H958 C970 0.950 . S
H959 C971 0.950 . S
C960 H952 0.950 . S
C960 C961 1.386 . S
C960 C962 1.391 . S
C961 C960 1.386 . S
C961 C965 1.393 . S
C962 H954 0.950 . S
C962 C960 1.391 . S
C962 C963 1.400 . S
C963 C962 1.400 . S
C963 C964 1.398 . S
C963 C969 1.491 . S
C964 H955 0.950 . S
C964 C963 1.398 . S
C964 C965 1.391 . S
C965 H953 0.950 . S
C965 C961 1.393 . S
C965 C964 1.391 . S
C966 H956 0.950 . S
C966 C967 1.386 . S
C966 C968 1.391 . S
C967 C966 1.386 . S
C967 C971 1.393 . S
C968 H957 0.950 . S
C968 C966 1.391 . S
C968 C969 1.400 . S
C969 C963 1.491 . S
C969 C968 1.400 . S
C969 C970 1.398 . S
C970 H958 0.950 . S
C970 C969 1.398 . S
C970 C971 1.391 . S
C971 H959 0.950 . S
C971 C967 1.393 . S
C971 C970 1.391 . S
H972 C980 0.950 . S
H973 C985 0.950 . S
H974 C982 0.950 . S
H975 C984 0.950 . S
H976 C986 0.950 . S
H977 C988 0.950 . S
H978 C990 0.950 . S
H979 C991 0.950 . S
C980 H972 0.950 . S
C980 C981 1.386 . S
C980 C982 1.391 . S
C981 C980 1.386 . S
C981 C985 1.393 . S
C982 H974 0.950 . S
C982 C980 1.391 . S
C982 C983 1.400 . S
C983 C982 1.400 . S
C983 C984 1.398 . S
C983 C989 1.491 . S
C984 H975 0.950 . S
C984 C983 1.398 . S
C984 C985 1.391 . S
C985 H973 0.950 . S
C985 C981 1.393 . S
C985 C984 1.391 . S
C986 H976 0.950 . S
C986 C987 1.386 . S
C986 C988 1.391 . S
C987 C986 1.386 . S
C987 C991 1.393 . S
C988 H977 0.950 . S
C988 C986 1.391 . S
C988 C989 1.400 . S
C989 C983 1.491 . S
C989 C988 1.400 . S
C989 C990 1.398 . S
C990 H978 0.950 . S
C990 C989 1.398 . S
C990 C991 1.391 . S
C991 H979 0.950 . S
C991 C987 1.393 . S
C991 C990 1.391 . S
H992 C1000 0.950 . S
H993 C1005 0.950 . S
H994 C1002 0.950 . S
H995 C1004 0.950 . S
H996 C1006 0.950 . S
H997 C1008 0.950 . S
H998 C1010 0.950 . S
H999 C1011 0.950 . S
C1000 H992 0.950 . S
C1000 C1001 1.386 . S
C1000 C1002 1.391 . S
C1001 C1000 1.386 . S
C1001 C1005 1.393 . S
C1002 H994 0.950 . S
C1002 C1000 1.391 . S
C1002 C1003 1.400 . S
C1003 C1002 1.400 . S
C1003 C1004 1.398 . S
C1003 C1009 1.491 . S
C1004 H995 0.950 . S
C1004 C1003 1.398 . S
C1004 C1005 1.391 . S
C1005 H993 0.950 . S
C1005 C1001 1.393 . S
C1005 C1004 1.391 . S
C1006 H996 0.950 . S
C1006 C1007 1.386 . S
C1006 C1008 1.391 . S
C1007 C1006 1.386 . S
C1007 C1011 1.393 . S
C1008 H997 0.950 . S
C1008 C1006 1.391 . S
C1008 C1009 1.400 . S
C1009 C1003 1.491 . S
C1009 C1008 1.400 . S
C1009 C1010 1.398 . S
C1010 H998 0.950 . S
C1010 C1009 1.398 . S
C1010 C1011 1.391 . S
C1011 H999 0.950 . S
C1011 C1007 1.393 . S
C1011 C1010 1.391 . S
H1012 C1020 0.950 . S
H1013 C1025 0.950 . S
H1014 C1022 0.950 . S
H1015 C1024 0.950 . S
H1016 C1026 0.950 . S
H1017 C1028 0.950 . S
H1018 C1030 0.950 . S
H1019 C1031 0.950 . S
C1020 H1012 0.950 . S
C1020 C1021 1.386 . S
C1020 C1022 1.391 . S
C1021 C1020 1.386 . S
C1021 C1025 1.393 . S
C1022 H1014 0.950 . S
C1022 C1020 1.391 . S
C1022 C1023 1.400 . S
C1023 C1022 1.400 . S
C1023 C1024 1.398 . S
C1023 C1029 1.491 . S
C1024 H1015 0.950 . S
C1024 C1023 1.398 . S
C1024 C1025 1.391 . S
C1025 H1013 0.950 . S
C1025 C1021 1.393 . S
C1025 C1024 1.391 . S
C1026 H1016 0.950 . S
C1026 C1027 1.386 . S
C1026 C1028 1.391 . S
C1027 C1026 1.386 . S
C1027 C1031 1.393 . S
C1028 H1017 0.950 . S
C1028 C1026 1.391 . S
C1028 C1029 1.400 . S
C1029 C1023 1.491 . S
C1029 C1028 1.400 . S
C1029 C1030 1.398 . S
C1030 H1018 0.950 . S
C1030 C1029 1.398 . S
C1030 C1031 1.391 . S
C1031 H1019 0.950 . S
C1031 C1027 1.393 . S
C1031 C1030 1.391 . S
H1032 C1040 0.950 1_565 S
H1033 C1045 0.950 . S
H1034 C1042 0.950 1_565 S
H1035 C1044 0.950 . S
H1036 C1046 0.950 . S
H1037 C1048 0.950 . S
H1038 C1050 0.950 1_565 S
H1039 C1051 0.950 1_565 S
C1040 H1032 0.950 1_545 S
C1040 C1041 1.386 . S
C1040 C1042 1.391 . S
C1041 C1040 1.386 . S
C1041 C1045 1.393 . S
C1042 H1034 0.950 1_545 S
C1042 C1040 1.391 . S
C1042 C1043 1.400 . S
C1043 C1042 1.400 . S
C1043 C1044 1.398 . S
C1043 C1049 1.491 . S
C1044 H1035 0.950 . S
C1044 C1043 1.398 . S
C1044 C1045 1.391 . S
C1045 H1033 0.950 . S
C1045 C1041 1.393 . S
C1045 C1044 1.391 . S
C1046 H1036 0.950 . S
C1046 C1047 1.386 . S
C1046 C1048 1.391 . S
C1047 C1046 1.386 . S
C1047 C1051 1.393 . S
C1048 H1037 0.950 . S
C1048 C1046 1.391 . S
C1048 C1049 1.400 . S
C1049 C1043 1.491 . S
C1049 C1048 1.400 . S
C1049 C1050 1.398 . S
C1050 H1038 0.950 1_545 S
C1050 C1049 1.398 . S
C1050 C1051 1.391 . S
C1051 H1039 0.950 1_545 S
C1051 C1047 1.393 . S
C1051 C1050 1.391 . S
H1052 C1060 0.950 . S
H1053 C1065 0.950 . S
H1054 C1062 0.950 . S
H1055 C1064 0.950 . S
H1056 C1066 0.950 . S
H1057 C1068 0.950 . S
H1058 C1070 0.950 1_556 S
H1059 C1071 0.950 1_556 S
C1060 H1052 0.950 . S
C1060 C1061 1.386 1_556 S
C1060 C1062 1.391 . S
C1061 C1060 1.386 1_554 S
C1061 C1065 1.393 . S
C1062 H1054 0.950 . S
C1062 C1060 1.391 . S
C1062 C1063 1.400 1_556 S
C1063 C1062 1.400 1_554 S
C1063 C1064 1.398 . S
C1063 C1069 1.491 . S
C1064 H1055 0.950 . S
C1064 C1063 1.398 . S
C1064 C1065 1.391 . S
C1065 H1053 0.950 . S
C1065 C1061 1.393 . S
C1065 C1064 1.391 . S
C1066 H1056 0.950 . S
C1066 C1067 1.386 . S
C1066 C1068 1.391 . S
C1067 C1066 1.386 . S
C1067 C1071 1.393 . S
C1068 H1057 0.950 . S
C1068 C1066 1.391 . S
C1068 C1069 1.400 . S
C1069 C1063 1.491 . S
C1069 C1068 1.400 . S
C1069 C1070 1.398 . S
C1070 H1058 0.950 1_554 S
C1070 C1069 1.398 . S
C1070 C1071 1.391 . S
C1071 H1059 0.950 1_554 S
C1071 C1067 1.393 . S
C1071 C1070 1.391 . S
H1072 C1080 0.950 . S
H1073 C1085 0.950 . S
H1074 C1082 0.950 . S
H1075 C1084 0.950 . S
H1076 C1086 0.950 . S
H1077 C1088 0.950 . S
H1078 C1090 0.950 . S
H1079 C1091 0.950 . S
C1080 H1072 0.950 . S
C1080 C1081 1.386 . S
C1080 C1082 1.391 . S
C1081 C1080 1.386 . S
C1081 C1085 1.393 . S
C1082 H1074 0.950 . S
C1082 C1080 1.391 . S
C1082 C1083 1.400 . S
C1083 C1082 1.400 . S
C1083 C1084 1.398 . S
C1083 C1089 1.491 . S
C1084 H1075 0.950 . S
C1084 C1083 1.398 . S
C1084 C1085 1.391 . S
C1085 H1073 0.950 . S
C1085 C1081 1.393 . S
C1085 C1084 1.391 . S
C1086 H1076 0.950 . S
C1086 C1087 1.386 . S
C1086 C1088 1.391 . S
C1087 C1086 1.386 . S
C1087 C1091 1.393 . S
C1088 H1077 0.950 . S
C1088 C1086 1.391 . S
C1088 C1089 1.400 . S
C1089 C1083 1.491 . S
C1089 C1088 1.400 . S
C1089 C1090 1.398 . S
C1090 H1078 0.950 . S
C1090 C1089 1.398 . S
C1090 C1091 1.391 . S
C1091 H1079 0.950 . S
C1091 C1087 1.393 . S
C1091 C1090 1.391 . S
H1092 C1100 0.950 . S
H1093 C1105 0.950 . S
H1094 C1102 0.950 . S
H1095 C1104 0.950 . S
H1096 C1106 0.950 . S
H1097 C1108 0.950 . S
H1098 C1110 0.950 . S
H1099 C1111 0.950 . S
C1100 H1092 0.950 . S
C1100 C1101 1.386 . S
C1100 C1102 1.391 . S
C1101 C1100 1.386 . S
C1101 C1105 1.393 . S
C1102 H1094 0.950 . S
C1102 C1100 1.391 . S
C1102 C1103 1.400 . S
C1103 C1102 1.400 . S
C1103 C1104 1.398 . S
C1103 C1109 1.491 . S
C1104 H1095 0.950 . S
C1104 C1103 1.398 . S
C1104 C1105 1.391 . S
C1105 H1093 0.950 . S
C1105 C1101 1.393 . S
C1105 C1104 1.391 . S
C1106 H1096 0.950 . S
C1106 C1107 1.386 . S
C1106 C1108 1.391 . S
C1107 C1106 1.386 . S
C1107 C1111 1.393 . S
C1108 H1097 0.950 . S
C1108 C1106 1.391 . S
C1108 C1109 1.400 . S
C1109 C1103 1.491 . S
C1109 C1108 1.400 . S
C1109 C1110 1.398 . S
C1110 H1098 0.950 . S
C1110 C1109 1.398 . S
C1110 C1111 1.391 . S
C1111 H1099 0.950 . S
C1111 C1107 1.393 . S
C1111 C1110 1.391 . S
H1112 C1120 0.950 . S
H1113 C1125 0.950 . S
H1114 C1122 0.950 . S
H1115 C1124 0.950 . S
H1116 C1126 0.950 . S
H1117 C1128 0.950 . S
H1118 C1130 0.950 . S
H1119 C1131 0.950 . S
C1120 H1112 0.950 . S
C1120 C1121 1.386 . S
C1120 C1122 1.391 . S
C1121 C1120 1.386 . S
C1121 C1125 1.393 . S
C1122 H1114 0.950 . S
C1122 C1120 1.391 . S
C1122 C1123 1.400 . S
C1123 C1122 1.400 . S
C1123 C1124 1.398 . S
C1123 C1129 1.491 . S
C1124 H1115 0.950 . S
C1124 C1123 1.398 . S
C1124 C1125 1.391 . S
C1125 H1113 0.950 . S
C1125 C1121 1.393 . S
C1125 C1124 1.391 . S
C1126 H1116 0.950 . S
C1126 C1127 1.386 . S
C1126 C1128 1.391 . S
C1127 C1126 1.386 . S
C1127 C1131 1.393 . S
C1128 H1117 0.950 . S
C1128 C1126 1.391 . S
C1128 C1129 1.400 . S
C1129 C1123 1.491 . S
C1129 C1128 1.400 . S
C1129 C1130 1.398 . S
C1130 H1118 0.950 . S
C1130 C1129 1.398 . S
C1130 C1131 1.391 . S
C1131 H1119 0.950 . S
C1131 C1127 1.393 . S
C1131 C1130 1.391 . S
H1132 C1140 0.950 . S
H1133 C1145 0.950 . S
H1134 C1142 0.950 . S
H1135 C1144 0.950 . S
H1136 C1146 0.950 . S
H1137 C1148 0.950 . S
H1138 C1150 0.950 . S
H1139 C1151 0.950 . S
C1140 H1132 0.950 . S
C1140 C1141 1.386 . S
C1140 C1142 1.391 . S
C1141 C1140 1.386 . S
C1141 C1145 1.393 . S
C1142 H1134 0.950 . S
C1142 C1140 1.391 . S
C1142 C1143 1.400 . S
C1143 C1142 1.400 . S
C1143 C1144 1.398 . S
C1143 C1149 1.491 . S
C1144 H1135 0.950 . S
C1144 C1143 1.398 . S
C1144 C1145 1.391 . S
C1145 H1133 0.950 . S
C1145 C1141 1.393 . S
C1145 C1144 1.391 . S
C1146 H1136 0.950 . S
C1146 C1147 1.386 . S
C1146 C1148 1.391 . S
C1147 C1146 1.386 . S
C1147 C1151 1.393 . S
C1148 H1137 0.950 . S
C1148 C1146 1.391 . S
C1148 C1149 1.400 . S
C1149 C1143 1.491 . S
C1149 C1148 1.400 . S
C1149 C1150 1.398 . S
C1150 H1138 0.950 . S
C1150 C1149 1.398 . S
C1150 C1151 1.391 . S
C1151 H1139 0.950 . S
C1151 C1147 1.393 . S
C1151 C1150 1.391 . S
H1152 C1160 0.950 . S
H1153 C1165 0.950 . S
H1154 C1162 0.950 . S
H1155 C1164 0.950 . S
H1156 C1166 0.950 . S
H1157 C1168 0.950 . S
H1158 C1170 0.950 . S
H1159 C1171 0.950 . S
C1160 H1152 0.950 . S
C1160 C1161 1.386 . S
C1160 C1162 1.391 . S
C1161 C1160 1.386 . S
C1161 C1165 1.393 . S
C1162 H1154 0.950 . S
C1162 C1160 1.391 . S
C1162 C1163 1.400 . S
C1163 C1162 1.400 . S
C1163 C1164 1.398 . S
C1163 C1169 1.491 . S
C1164 H1155 0.950 . S
C1164 C1163 1.398 . S
C1164 C1165 1.391 . S
C1165 H1153 0.950 . S
C1165 C1161 1.393 . S
C1165 C1164 1.391 . S
C1166 H1156 0.950 . S
C1166 C1167 1.386 . S
C1166 C1168 1.391 . S
C1167 C1166 1.386 . S
C1167 C1171 1.393 . S
C1168 H1157 0.950 . S
C1168 C1166 1.391 . S
C1168 C1169 1.400 . S
C1169 C1163 1.491 . S
C1169 C1168 1.400 . S
C1169 C1170 1.398 . S
C1170 H1158 0.950 . S
C1170 C1169 1.398 . S
C1170 C1171 1.391 . S
C1171 H1159 0.950 . S
C1171 C1167 1.393 . S
C1171 C1170 1.391 . S
H1172 C1180 0.950 . S
H1173 C1185 0.950 . S
H1174 C1182 0.950 . S
H1175 C1184 0.950 . S
H1176 C1186 0.950 . S
H1177 C1188 0.950 . S
H1178 C1190 0.950 . S
H1179 C1191 0.950 . S
C1180 H1172 0.950 . S
C1180 C1181 1.386 . S
C1180 C1182 1.391 . S
C1181 C1180 1.386 . S
C1181 C1185 1.393 . S
C1182 H1174 0.950 . S
C1182 C1180 1.391 . S
C1182 C1183 1.400 . S
C1183 C1182 1.400 . S
C1183 C1184 1.398 . S
C1183 C1189 1.491 . S
C1184 H1175 0.950 . S
C1184 C1183 1.398 . S
C1184 C1185 1.391 . S
C1185 H1173 0.950 . S
C1185 C1181 1.393 . S
C1185 C1184 1.391 . S
C1186 H1176 0.950 . S
C1186 C1187 1.386 . S
C1186 C1188 1.391 . S
C1187 C1186 1.386 . S
C1187 C1191 1.393 . S
C1188 H1177 0.950 . S
C1188 C1186 1.391 . S
C1188 C1189 1.400 . S
C1189 C1183 1.491 . S
C1189 C1188 1.400 . S
C1189 C1190 1.398 . S
C1190 H1178 0.950 . S
C1190 C1189 1.398 . S
C1190 C1191 1.391 . S
C1191 H1179 0.950 . S
C1191 C1187 1.393 . S
C1191 C1190 1.391 . S
H1192 C1200 0.950 . S
H1193 C1205 0.950 . S
H1194 C1202 0.950 . S
H1195 C1204 0.950 . S
H1196 C1206 0.950 . S
H1197 C1208 0.950 . S
H1198 C1210 0.950 . S
H1199 C1211 0.950 . S
C1200 H1192 0.950 . S
C1200 C1201 1.386 . S
C1200 C1202 1.391 . S
C1201 C1200 1.386 . S
C1201 C1205 1.393 . S
C1202 H1194 0.950 . S
C1202 C1200 1.391 . S
C1202 C1203 1.400 . S
C1203 C1202 1.400 . S
C1203 C1204 1.398 . S
C1203 C1209 1.491 . S
C1204 H1195 0.950 . S
C1204 C1203 1.398 . S
C1204 C1205 1.391 . S
C1205 H1193 0.950 . S
C1205 C1201 1.393 . S
C1205 C1204 1.391 . S
C1206 H1196 0.950 . S
C1206 C1207 1.386 . S
C1206 C1208 1.391 . S
C1207 C1206 1.386 . S
C1207 C1211 1.393 . S
C1208 H1197 0.950 . S
C1208 C1206 1.391 . S
C1208 C1209 1.400 . S
C1209 C1203 1.491 . S
C1209 C1208 1.400 . S
C1209 C1210 1.398 . S
C1210 H1198 0.950 . S
C1210 C1209 1.398 . S
C1210 C1211 1.391 . S
C1211 H1199 0.950 . S
C1211 C1207 1.393 . S
C1211 C1210 1.391 . S
H1212 C1220 0.950 . S
H1213 C1225 0.950 . S
H1214 C1222 0.950 . S
H1215 C1224 0.950 . S
H1216 C1226 0.950 . S
H1217 C1228 0.950 . S
H1218 C1230 0.950 . S
H1219 C1231 0.950 . S
C1220 H1212 0.950 . S
C1220 C1221 1.386 . S
C1220 C1222 1.391 . S
C1221 C1220 1.386 . S
C1221 C1225 1.393 . S
C1222 H1214 0.950 . S
C1222 C1220 1.391 . S
C1222 C1223 1.400 . S
C1223 C1222 1.400 . S
C1223 C1224 1.398 . S
C1223 C1229 1.491 . S
C1224 H1215 0.950 . S
C1224 C1223 1.398 . S
C1224 C1225 1.391 . S
C1225 H1213 0.950 . S
C1225 C1221 1.393 . S
C1225 C1224 1.391 . S
C1226 H1216 0.950 . S
C1226 C1227 1.386 . S
C1226 C1228 1.391 . S
C1227 C1226 1.386 . S
C1227 C1231 1.393 . S
C1228 H1217 0.950 . S
C1228 C1226 1.391 . S
C1228 C1229 1.400 . S
C1229 C1223 1.491 . S
C1229 C1228 1.400 . S
C1229 C1230 1.398 . S
C1230 H1218 0.950 . S
C1230 C1229 1.398 . S
C1230 C1231 1.391 . S
C1231 H1219 0.950 . S
C1231 C1227 1.393 . S
C1231 C1230 1.391 . S
H1232 C1240 0.950 . S
H1233 C1245 0.950 . S
H1234 C1242 0.950 . S
H1235 C1244 0.950 . S
H1236 C1246 0.950 . S
H1237 C1248 0.950 . S
H1238 C1250 0.950 . S
H1239 C1251 0.950 . S
C1240 H1232 0.950 . S
C1240 C1241 1.386 . S
C1240 C1242 1.391 . S
C1241 C1240 1.386 . S
C1241 C1245 1.393 . S
C1242 H1234 0.950 . S
C1242 C1240 1.391 . S
C1242 C1243 1.400 . S
C1243 C1242 1.400 . S
C1243 C1244 1.398 . S
C1243 C1249 1.491 . S
C1244 H1235 0.950 . S
C1244 C1243 1.398 . S
C1244 C1245 1.391 . S
C1245 H1233 0.950 . S
C1245 C1241 1.393 . S
C1245 C1244 1.391 . S
C1246 H1236 0.950 . S
C1246 C1247 1.386 . S
C1246 C1248 1.391 . S
C1247 C1246 1.386 . S
C1247 C1251 1.393 . S
C1248 H1237 0.950 . S
C1248 C1246 1.391 . S
C1248 C1249 1.400 . S
C1249 C1243 1.491 . S
C1249 C1248 1.400 . S
C1249 C1250 1.398 . S
C1250 H1238 0.950 . S
C1250 C1249 1.398 . S
C1250 C1251 1.391 . S
C1251 H1239 0.950 . S
C1251 C1247 1.393 . S
C1251 C1250 1.391 . S
H1252 C1260 0.950 . S
H1253 C1265 0.950 . S
H1254 C1262 0.950 . S
H1255 C1264 0.950 . S
H1256 C1266 0.950 . S
H1257 C1268 0.950 . S
H1258 C1270 0.950 . S
H1259 C1271 0.950 . S
C1260 H1252 0.950 . S
C1260 C1261 1.386 . S
C1260 C1262 1.391 . S
C1261 C1260 1.386 . S
C1261 C1265 1.393 . S
C1262 H1254 0.950 . S
C1262 C1260 1.391 . S
C1262 C1263 1.400 . S
C1263 C1262 1.400 . S
C1263 C1264 1.398 . S
C1263 C1269 1.491 . S
C1264 H1255 0.950 . S
C1264 C1263 1.398 . S
C1264 C1265 1.391 . S
C1265 H1253 0.950 . S
C1265 C1261 1.393 . S
C1265 C1264 1.391 . S
C1266 H1256 0.950 . S
C1266 C1267 1.386 . S
C1266 C1268 1.391 . S
C1267 C1266 1.386 . S
C1267 C1271 1.393 . S
C1268 H1257 0.950 . S
C1268 C1266 1.391 . S
C1268 C1269 1.400 . S
C1269 C1263 1.491 . S
C1269 C1268 1.400 . S
C1269 C1270 1.398 . S
C1270 H1258 0.950 . S
C1270 C1269 1.398 . S
C1270 C1271 1.391 . S
C1271 H1259 0.950 . S
C1271 C1267 1.393 . S
C1271 C1270 1.391 . S
H1272 C1280 0.950 . S
H1273 C1285 0.950 . S
H1274 C1282 0.950 . S
H1275 C1284 0.950 . S
H1276 C1286 0.950 . S
H1277 C1288 0.950 . S
H1278 C1290 0.950 . S
H1279 C1291 0.950 . S
C1280 H1272 0.950 . S
C1280 C1281 1.386 . S
C1280 C1282 1.391 . S
C1281 C1280 1.386 . S
C1281 C1285 1.393 . S
C1282 H1274 0.950 . S
C1282 C1280 1.391 . S
C1282 C1283 1.400 . S
C1283 C1282 1.400 . S
C1283 C1284 1.398 . S
C1283 C1289 1.491 . S
C1284 H1275 0.950 . S
C1284 C1283 1.398 . S
C1284 C1285 1.391 . S
C1285 H1273 0.950 . S
C1285 C1281 1.393 . S
C1285 C1284 1.391 . S
C1286 H1276 0.950 . S
C1286 C1287 1.386 . S
C1286 C1288 1.391 . S
C1287 C1286 1.386 . S
C1287 C1291 1.393 . S
C1288 H1277 0.950 . S
C1288 C1286 1.391 . S
C1288 C1289 1.400 . S
C1289 C1283 1.491 . S
C1289 C1288 1.400 . S
C1289 C1290 1.398 . S
C1290 H1278 0.950 . S
C1290 C1289 1.398 . S
C1290 C1291 1.391 . S
C1291 H1279 0.950 . S
C1291 C1287 1.393 . S
C1291 C1290 1.391 . S
H1292 C1300 0.950 . S
H1293 C1305 0.950 . S
H1294 C1302 0.950 . S
H1295 C1304 0.950 . S
H1296 C1306 0.950 . S
H1297 C1308 0.950 . S
H1298 C1310 0.950 . S
H1299 C1311 0.950 . S
C1300 H1292 0.950 . S
C1300 C1301 1.386 . S
C1300 C1302 1.391 . S
C1301 C1300 1.386 . S
C1301 C1305 1.393 . S
C1302 H1294 0.950 . S
C1302 C1300 1.391 . S
C1302 C1303 1.400 . S
C1303 C1302 1.400 . S
C1303 C1304 1.398 . S
C1303 C1309 1.491 . S
C1304 H1295 0.950 . S
C1304 C1303 1.398 . S
C1304 C1305 1.391 . S
C1305 H1293 0.950 . S
C1305 C1301 1.393 . S
C1305 C1304 1.391 . S
C1306 H1296 0.950 . S
C1306 C1307 1.386 . S
C1306 C1308 1.391 . S
C1307 C1306 1.386 . S
C1307 C1311 1.393 . S
C1308 H1297 0.950 . S
C1308 C1306 1.391 . S
C1308 C1309 1.400 . S
C1309 C1303 1.491 . S
C1309 C1308 1.400 . S
C1309 C1310 1.398 . S
C1310 H1298 0.950 . S
C1310 C1309 1.398 . S
C1310 C1311 1.391 . S
C1311 H1299 0.950 . S
C1311 C1307 1.393 . S
C1311 C1310 1.391 . S
H1312 C1320 0.950 . S
H1313 C1325 0.950 . S
H1314 C1322 0.950 . S
H1315 C1324 0.950 . S
H1316 C1326 0.950 . S
H1317 C1328 0.950 . S
H1318 C1330 0.950 . S
H1319 C1331 0.950 . S
C1320 H1312 0.950 . S
C1320 C1321 1.386 . S
C1320 C1322 1.391 . S
C1321 C1320 1.386 . S
C1321 C1325 1.393 . S
C1322 H1314 0.950 . S
C1322 C1320 1.391 . S
C1322 C1323 1.400 . S
C1323 C1322 1.400 . S
C1323 C1324 1.398 . S
C1323 C1329 1.491 . S
C1324 H1315 0.950 . S
C1324 C1323 1.398 . S
C1324 C1325 1.391 . S
C1325 H1313 0.950 . S
C1325 C1321 1.393 . S
C1325 C1324 1.391 . S
C1326 H1316 0.950 . S
C1326 C1327 1.386 . S
C1326 C1328 1.391 . S
C1327 C1326 1.386 . S
C1327 C1331 1.393 . S
C1328 H1317 0.950 . S
C1328 C1326 1.391 . S
C1328 C1329 1.400 . S
C1329 C1323 1.491 . S
C1329 C1328 1.400 . S
C1329 C1330 1.398 . S
C1330 H1318 0.950 . S
C1330 C1329 1.398 . S
C1330 C1331 1.391 . S
C1331 H1319 0.950 . S
C1331 C1327 1.393 . S
C1331 C1330 1.391 . S
H1332 C1340 0.950 . S
H1333 C1345 0.950 . S
H1334 C1342 0.950 . S
H1335 C1344 0.950 . S
H1336 C1346 0.950 . S
H1337 C1348 0.950 . S
H1338 C1350 0.950 . S
H1339 C1351 0.950 . S
C1340 H1332 0.950 . S
C1340 C1341 1.386 . S
C1340 C1342 1.391 . S
C1341 C1340 1.386 . S
C1341 C1345 1.393 . S
C1342 H1334 0.950 . S
C1342 C1340 1.391 . S
C1342 C1343 1.400 . S
C1343 C1342 1.400 . S
C1343 C1344 1.398 . S
C1343 C1349 1.491 . S
C1344 H1335 0.950 . S
C1344 C1343 1.398 . S
C1344 C1345 1.391 . S
C1345 H1333 0.950 . S
C1345 C1341 1.393 . S
C1345 C1344 1.391 . S
C1346 H1336 0.950 . S
C1346 C1347 1.386 . S
C1346 C1348 1.391 . S
C1347 C1346 1.386 . S
C1347 C1351 1.393 . S
C1348 H1337 0.950 . S
C1348 C1346 1.391 . S
C1348 C1349 1.400 . S
C1349 C1343 1.491 . S
C1349 C1348 1.400 . S
C1349 C1350 1.398 . S
C1350 H1338 0.950 . S
C1350 C1349 1.398 . S
C1350 C1351 1.391 . S
C1351 H1339 0.950 . S
C1351 C1347 1.393 . S
C1351 C1350 1.391 . S
H1352 C1360 0.950 . S
H1353 C1365 0.950 . S
H1354 C1362 0.950 . S
H1355 C1364 0.950 . S
H1356 C1366 0.950 . S
H1357 C1368 0.950 . S
H1358 C1370 0.950 . S
H1359 C1371 0.950 . S
C1360 H1352 0.950 . S
C1360 C1361 1.386 1_554 S
C1360 C1362 1.391 . S
C1361 C1360 1.386 1_556 S
C1361 C1365 1.393 . S
C1362 H1354 0.950 . S
C1362 C1360 1.391 . S
C1362 C1363 1.400 1_554 S
C1363 C1362 1.400 1_556 S
C1363 C1364 1.398 . S
C1363 C1369 1.491 . S
C1364 H1355 0.950 . S
C1364 C1363 1.398 . S
C1364 C1365 1.391 . S
C1365 H1353 0.950 . S
C1365 C1361 1.393 . S
C1365 C1364 1.391 . S
C1366 H1356 0.950 . S
C1366 C1367 1.386 . S
C1366 C1368 1.391 . S
C1367 C1366 1.386 . S
C1367 C1371 1.393 1_556 S
C1368 H1357 0.950 . S
C1368 C1366 1.391 . S
C1368 C1369 1.400 . S
C1369 C1363 1.491 . S
C1369 C1368 1.400 . S
C1369 C1370 1.398 1_556 S
C1370 H1358 0.950 . S
C1370 C1369 1.398 1_554 S
C1370 C1371 1.391 . S
C1371 H1359 0.950 . S
C1371 C1367 1.393 1_554 S
C1371 C1370 1.391 . S
H1372 C1380 0.950 . S
H1373 C1385 0.950 . S
H1374 C1382 0.950 . S
H1375 C1384 0.950 . S
H1376 C1386 0.950 . S
H1377 C1388 0.950 . S
H1378 C1390 0.950 . S
H1379 C1391 0.950 . S
C1380 H1372 0.950 . S
C1380 C1381 1.386 . S
C1380 C1382 1.391 . S
C1381 C1380 1.386 . S
C1381 C1385 1.393 . S
C1382 H1374 0.950 . S
C1382 C1380 1.391 . S
C1382 C1383 1.400 . S
C1383 C1382 1.400 . S
C1383 C1384 1.398 . S
C1383 C1389 1.491 . S
C1384 H1375 0.950 . S
C1384 C1383 1.398 . S
C1384 C1385 1.391 . S
C1385 H1373 0.950 . S
C1385 C1381 1.393 . S
C1385 C1384 1.391 . S
C1386 H1376 0.950 . S
C1386 C1387 1.386 . S
C1386 C1388 1.391 . S
C1387 C1386 1.386 . S
C1387 C1391 1.393 . S
C1388 H1377 0.950 . S
C1388 C1386 1.391 . S
C1388 C1389 1.400 . S
C1389 C1383 1.491 . S
C1389 C1388 1.400 . S
C1389 C1390 1.398 . S
C1390 H1378 0.950 . S
C1390 C1389 1.398 . S
C1390 C1391 1.391 . S
C1391 H1379 0.950 . S
C1391 C1387 1.393 . S
C1391 C1390 1.391 . S
H1392 C1400 0.950 . S
H1393 C1405 0.950 . S
H1394 C1402 0.950 . S
H1395 C1404 0.950 . S
H1396 C1406 0.950 . S
H1397 C1408 0.950 . S
H1398 C1410 0.950 . S
H1399 C1411 0.950 . S
C1400 H1392 0.950 . S
C1400 C1401 1.386 . S
C1400 C1402 1.391 . S
C1401 C1400 1.386 . S
C1401 C1405 1.393 . S
C1402 H1394 0.950 . S
C1402 C1400 1.391 . S
C1402 C1403 1.400 . S
C1403 C1402 1.400 . S
C1403 C1404 1.398 . S
C1403 C1409 1.491 . S
C1404 H1395 0.950 . S
C1404 C1403 1.398 . S
C1404 C1405 1.391 . S
C1405 H1393 0.950 . S
C1405 C1401 1.393 . S
C1405 C1404 1.391 . S
C1406 H1396 0.950 . S
C1406 C1407 1.386 . S
C1406 C1408 1.391 . S
C1407 C1406 1.386 . S
C1407 C1411 1.393 . S
C1408 H1397 0.950 . S
C1408 C1406 1.391 . S
C1408 C1409 1.400 . S
C1409 C1403 1.491 . S
C1409 C1408 1.400 . S
C1409 C1410 1.398 . S
C1410 H1398 0.950 . S
C1410 C1409 1.398 . S
C1410 C1411 1.391 . S
C1411 H1399 0.950 . S
C1411 C1407 1.393 . S
C1411 C1410 1.391 . S
H1412 C1420 0.950 . S
H1413 C1425 0.950 . S
H1414 C1422 0.950 . S
H1415 C1424 0.950 . S
H1416 C1426 0.950 . S
H1417 C1428 0.950 . S
H1418 C1430 0.950 . S
H1419 C1431 0.950 . S
C1420 H1412 0.950 . S
C1420 C1421 1.386 . S
C1420 C1422 1.391 . S
C1421 C1420 1.386 . S
C1421 C1425 1.393 . S
C1422 H1414 0.950 . S
C1422 C1420 1.391 . S
C1422 C1423 1.400 . S
C1423 C1422 1.400 . S
C1423 C1424 1.398 . S
C1423 C1429 1.491 . S
C1424 H1415 0.950 . S
C1424 C1423 1.398 . S
C1424 C1425 1.391 . S
C1425 H1413 0.950 . S
C1425 C1421 1.393 . S
C1425 C1424 1.391 . S
C1426 H1416 0.950 . S
C1426 C1427 1.386 . S
C1426 C1428 1.391 . S
C1427 C1426 1.386 . S
C1427 C1431 1.393 . S
C1428 H1417 0.950 . S
C1428 C1426 1.391 . S
C1428 C1429 1.400 . S
C1429 C1423 1.491 . S
C1429 C1428 1.400 . S
C1429 C1430 1.398 . S
C1430 H1418 0.950 . S
C1430 C1429 1.398 . S
C1430 C1431 1.391 . S
C1431 H1419 0.950 . S
C1431 C1427 1.393 . S
C1431 C1430 1.391 . S
H1432 C1440 0.950 . S
H1433 C1445 0.950 . S
H1434 C1442 0.950 . S
H1435 C1444 0.950 . S
H1436 C1446 0.950 . S
H1437 C1448 0.950 . S
H1438 C1450 0.950 . S
H1439 C1451 0.950 . S
C1440 H1432 0.950 . S
C1440 C1441 1.386 . S
C1440 C1442 1.391 . S
C1441 C1440 1.386 . S
C1441 C1445 1.393 . S
C1442 H1434 0.950 . S
C1442 C1440 1.391 . S
C1442 C1443 1.400 . S
C1443 C1442 1.400 . S
C1443 C1444 1.398 . S
C1443 C1449 1.491 . S
C1444 H1435 0.950 . S
C1444 C1443 1.398 . S
C1444 C1445 1.391 . S
C1445 H1433 0.950 . S
C1445 C1441 1.393 . S
C1445 C1444 1.391 . S
C1446 H1436 0.950 . S
C1446 C1447 1.386 . S
C1446 C1448 1.391 . S
C1447 C1446 1.386 . S
C1447 C1451 1.393 . S
C1448 H1437 0.950 . S
C1448 C1446 1.391 . S
C1448 C1449 1.400 . S
C1449 C1443 1.491 . S
C1449 C1448 1.400 . S
C1449 C1450 1.398 . S
C1450 H1438 0.950 . S
C1450 C1449 1.398 . S
C1450 C1451 1.391 . S
C1451 H1439 0.950 . S
C1451 C1447 1.393 . S
C1451 C1450 1.391 . S
H1452 C1460 0.950 . S
H1453 C1465 0.950 . S
H1454 C1462 0.950 . S
H1455 C1464 0.950 . S
H1456 C1466 0.950 . S
H1457 C1468 0.950 . S
H1458 C1470 0.950 . S
H1459 C1471 0.950 . S
C1460 H1452 0.950 . S
C1460 C1461 1.386 . S
C1460 C1462 1.391 . S
C1461 C1460 1.386 . S
C1461 C1465 1.393 . S
C1462 H1454 0.950 . S
C1462 C1460 1.391 . S
C1462 C1463 1.400 . S
C1463 C1462 1.400 . S
C1463 C1464 1.398 . S
C1463 C1469 1.491 . S
C1464 H1455 0.950 . S
C1464 C1463 1.398 . S
C1464 C1465 1.391 . S
C1465 H1453 0.950 . S
C1465 C1461 1.393 . S
C1465 C1464 1.391 . S
C1466 H1456 0.950 . S
C1466 C1467 1.386 . S
C1466 C1468 1.391 . S
C1467 C1466 1.386 . S
C1467 C1471 1.393 . S
C1468 H1457 0.950 . S
C1468 C1466 1.391 . S
C1468 C1469 1.400 . S
C1469 C1463 1.491 . S
C1469 C1468 1.400 . S
C1469 C1470 1.398 . S
C1470 H1458 0.950 . S
C1470 C1469 1.398 . S
C1470 C1471 1.391 . S
C1471 H1459 0.950 . S
C1471 C1467 1.393 . S
C1471 C1470 1.391 . S
C521 N18 0.767 . S
C527 C36 0.769 . S
C541 N77 0.754 . S
C547 C61 0.754 1_655 S
C561 C100 1.415 . S
C567 C66 1.414 . S
C581 C6 1.415 . S
C587 C125 1.415 . S
C601 C4 1.604 . S
C607 C290 1.591 . S
C621 C228 1.590 . S
C627 C38 1.551 . S
C641 N82 1.025 . S
C647 C322 1.027 . S
C661 C102 1.488 . S
C667 C445 1.495 . S
C681 C285 1.591 . S
C687 C34 1.560 . S
C701 C390 1.578 . S
C707 C93 1.603 . S
C721 C452 1.494 . S
C727 C98 1.485 . S
C741 N13 1.037 . S
C747 C358 1.037 . S
C761 C2 1.192 . S
C767 C262 1.185 . S
C781 N402 0.472 . S
C787 N146 0.450 . S
C801 C166 1.137 . S
C807 C477 1.125 . S
C821 N370 0.162 . S
C827 N210 0.200 . S
C841 C70 1.189 . S
C847 C226 1.180 . S
C861 N301 0.505 . S
C867 N141 0.462 . S
C881 N205 0.187 . S
C887 N333 0.238 . S
C901 N178 0.612 . S
C907 C354 0.607 . S
C921 C294 0.997 . S
C927 C189 1.003 . S
C941 C356 1.401 . S
C947 C230 1.426 . S
C961 N173 0.397 . S
C967 C157 0.371 . S
C981 C292 0.390 . S
C987 N269 0.377 . S
C1001 N429 0.584 . S
C1007 C381 0.569 . S
C1021 C196 1.040 . S
C1027 C162 1.070 . S
C1041 C317 1.279 . S
C1047 C454 1.283 . S
C1061 C422 1.073 . S
C1067 C29 1.070 . S
C1081 C68 1.082 . S
C1087 C450 1.073 . S
C1101 N397 0.707 . S
C1107 N45 0.695 . S
C1121 C253 1.030 . S
C1127 C164 1.030 . S
C1141 N114 0.401 . S
C1147 N338 0.348 . S
C1161 C388 1.289 . S
C1167 C418 1.284 . S
C1181 N242 0.409 . S
C1187 C413 0.384 . S
C1201 C194 0.689 . S
C1207 N237 0.689 . S
C1221 C130 0.600 . S
C1227 N434 0.606 . S
C1241 C386 0.982 . S
C1247 C484 1.001 . S
C1261 C509 1.019 . S
C1267 C260 1.026 . S
C1281 N50 0.704 . S
C1287 N306 0.714 . S
C1301 N274 0.679 . S
C1307 C198 0.681 . S
C1321 C258 1.425 . S
C1327 C349 1.410 . S
C1341 C486 1.070 . S
C1347 C221 1.040 . S
C1361 C420 1.125 . S
C1367 C482 1.137 . S
C1381 N365 0.335 . S
C1387 N109 0.381 . S
C1401 C324 0.533 . S
C1407 N466 0.546 . S
C1421 C326 0.573 . S
C1427 N493 0.576 . S
C1441 C134 0.607 . S
C1447 N461 0.611 . S
C1461 N498 0.355 . S
C1467 C132 0.365 . S
