# Generated by pormake.
# Topology sma, (6)-cn, num edge types: 1
# Building blocks:
#     Node 0, Type 0, BuildingBlock: UKALOJ_clean_sbu_0, # of connection points: 6
#     Node 1, Type 0, BuildingBlock: UKALOJ_clean_sbu_0, # of connection points: 6
#     Node 2, Type 0, BuildingBlock: UKALOJ_clean_sbu_0, # of connection points: 6
#     Edge 3, Type (0, 0), BuildingBlock: UVAHIK_clean_linker_0, # of connection points: 2
#     Edge 4, Type (0, 0), BuildingBlock: UVAHIK_clean_linker_0, # of connection points: 2
#     Edge 5, Type (0, 0), BuildingBlock: UVAHIK_clean_linker_0, # of connection points: 2
#     Edge 6, Type (0, 0), BuildingBlock: UVAHIK_clean_linker_0, # of connection points: 2
#     Edge 7, Type (0, 0), BuildingBlock: UVAHIK_clean_linker_0, # of connection points: 2
#     Edge 8, Type (0, 0), BuildingBlock: UVAHIK_clean_linker_0, # of connection points: 2
#     Edge 9, Type (0, 0), BuildingBlock: UVAHIK_clean_linker_0, # of connection points: 2
#     Edge 10, Type (0, 0), BuildingBlock: UVAHIK_clean_linker_0, # of connection points: 2
#     Edge 11, Type (0, 0), BuildingBlock: UVAHIK_clean_linker_0, # of connection points: 2
# Relax obj value: 0.510
# Max RMSD: 0.333
# Mean RMSD: 0.333
data_MOF--net-sma--node1-UKALOJ_clean_sbu_0--edge1-UVAHIK_clean_linker_0
_symmetry_space_group_name_H-M    P1
_symmetry_Int_Tables_number       1
_symmetry_cell_setting            triclinic
loop_
_symmetry_equiv_pos_as_xyz
'x, y, z'
_cell_length_a     34.263471
_cell_length_b     34.015771
_cell_length_c     22.97602
_cell_angle_alpha  90.065572
_cell_angle_beta   91.013543
_cell_angle_gamma 119.59404
loop_
_atom_site_label
_atom_site_type_symbol
_atom_site_fract_x
_atom_site_fract_y
_atom_site_fract_z
_atom_type_partial_charge
Zn0 Zn 1.03309 0.52987 0.10568 0.0
O1 O 0.0889 0.59983 0.09491 0.0
C2 C 0.10767 0.51379 0.12715 0.0
Zn3 Zn 0.04735 0.53551 0.19569 0.0
C4 C 0.09968 0.62349 0.14177 0.0
O5 O 0.08259 0.60443 0.18902 0.0
C6 C 0.98065 0.44276 0.16837 0.0
O7 O 0.9859 0.53926 0.21097 0.0
O8 O 0.98996 0.5546 0.11773 0.0
N9 N 0.06665 0.54308 0.27998 0.0
C10 C 0.04868 0.51685 0.32662 0.0
C11 C 0.1158 0.56664 0.34992 0.0
N12 N 0.10821 0.57411 0.29456 0.0
N13 N 0.0792 0.53052 0.3708 0.0
C14 C 0.0399 0.52392 0.97343 0.0
C15 C 0.97082 0.49075 0.947 0.0
N16 N 1.01597 0.5215 0.02039 0.0
N17 N 0.97315 0.50146 0.00383 0.0
N18 N 1.01225 0.50454 0.92705 0.0
H19 H 0.10616 0.56113 0.01365 0.0
H20 H 0.10558 0.56041 0.9358 0.0
H21 H 0.09466 0.51034 0.97416 0.0
C22 C 0.08938 0.54002 0.97463 0.0
C23 C 1.00078 0.4798 0.32951 0.0
H24 H 0.97931 0.4861 0.2986 0.0
H25 H 0.98809 0.47713 0.37426 0.0
H26 H 0.99847 0.44714 0.31756 0.0
O27 O 1.01185 0.46582 0.20481 0.0
O28 O 0.97808 0.46158 0.12163 0.0
C29 C 0.97168 0.55112 0.16617 0.0
O30 O 0.07545 0.50353 0.0917 0.0
O31 O 0.10812 0.53241 0.17543 0.0
Zn32 Zn 0.538 0.02817 0.53067 0.0
O33 O 0.60344 0.08912 0.52834 0.0
C34 C 0.50206 0.09154 0.54777 0.0
Zn35 Zn 0.5115 0.03966 0.4536 0.0
C36 C 0.61007 0.10422 0.47656 0.0
O37 O 0.57835 0.08614 0.43924 0.0
C38 C 0.43791 0.96186 0.49425 0.0
O39 O 0.51883 0.98066 0.42119 0.0
O40 O 0.56719 0.99554 0.49209 0.0
N41 N 0.49529 0.05309 0.37393 0.0
C42 C 0.51643 0.06033 0.32308 0.0
C43 C 0.45679 0.06397 0.30705 0.0
N44 N 0.45837 0.05562 0.36412 0.0
N45 N 0.49329 0.06782 0.28075 0.0
C46 C 0.56769 0.02933 0.65885 0.0
C47 C 0.55181 0.96077 0.66917 0.0
N48 N 0.55214 1.00831 0.60714 0.0
N49 N 0.54291 0.9659 0.61334 0.0
N50 N 0.56786 1.00021 0.69853 0.0
H51 H 0.57961 0.09537 0.63179 0.0
H52 H 0.6124 0.0957 0.6935 0.0
H53 H 0.55393 0.07687 0.70203 0.0
C54 C 0.57893 0.07706 0.67179 0.0
C55 C 0.55809 0.05718 0.31388 0.0
H56 H 0.58746 0.09182 0.31281 0.0
H57 H 0.55589 0.04026 0.27167 0.0
H58 H 0.56378 0.03841 0.34909 0.0
O59 O 0.44469 0.99582 0.46503 0.0
O60 O 0.47058 0.96416 0.52497 0.0
C61 C 0.54695 0.97214 0.44786 0.0
O62 O 0.5098 0.06298 0.57343 0.0
O63 O 0.50358 0.09333 0.49232 0.0
Zn64 Zn 0.55489 0.56228 0.85008 0.0
O65 O 0.54044 0.49397 0.87878 0.0
C66 C 0.63767 0.56512 0.81909 0.0
Zn67 Zn 0.54709 0.53674 0.76376 0.0
C68 C 0.52092 0.46189 0.84132 0.0
O69 O 0.51547 0.47116 0.78973 0.0
C70 C 0.5798 0.63532 0.76483 0.0
O71 O 0.48124 0.53245 0.75519 0.0
O72 O 0.48734 0.54153 0.85022 0.0
N73 N 0.54494 0.51472 0.68165 0.0
C74 C 0.54248 0.5325 0.63044 0.0
C75 C 0.56524 0.48564 0.6135 0.0
N76 N 0.55824 0.48495 0.67101 0.0
N77 N 0.55552 0.51518 0.58709 0.0
C78 C 0.58538 0.58544 0.97828 0.0
C79 C 0.5519 0.62137 0.00388 0.0
N80 N 0.56019 0.58517 0.93252 0.0
N81 N 0.53939 0.60743 0.9484 0.0
N82 N 0.58084 0.60815 0.02332 0.0
H83 H 0.62484 0.55832 0.01942 0.0
H84 H 0.65094 0.59618 0.96109 0.0
H85 H 0.60663 0.53941 0.94585 0.0
C86 C 0.61839 0.56848 0.97627 0.0
C87 C 0.53246 0.57053 0.62353 0.0
H88 H 0.50964 0.56397 0.58552 0.0
H89 H 0.56411 0.60235 0.61534 0.0
H90 H 0.51629 0.57468 0.66249 0.0
O91 O 0.5797 0.60404 0.73484 0.0
O92 O 0.56773 0.62747 0.81759 0.0
C93 C 0.46421 0.53355 0.80376 0.0
O94 O 0.62308 0.58475 0.85147 0.0
O95 O 0.61217 0.53943 0.7782 0.0
C96 C 0.13816 0.47179 0.07364 0.0
C97 C 0.14622 0.51002 0.10641 0.0
C98 C 0.17187 0.47217 0.03986 0.0
C99 C 0.29448 0.54026 0.00612 0.0
H100 H 0.25426 0.47536 0.85862 0.0
C101 C 0.41901 0.56927 0.82622 0.0
C102 C 0.41994 0.53009 0.80919 0.0
C103 C 0.38251 0.56616 0.85629 0.0
C104 C 0.26592 0.49355 0.89968 0.0
H105 H 0.19606 0.57833 0.13073 0.0
H106 H 0.25481 0.57984 0.07067 0.0
H107 H 0.19914 0.47078 0.92802 0.0
H108 H 0.38258 0.45702 0.80744 0.0
H109 H 0.31743 0.45143 0.85787 0.0
H110 H 0.36133 0.56421 0.97634 0.0
C111 C 0.22294 0.5488 0.07215 0.0
C112 C 0.23436 0.49064 0.93996 0.0
C113 C 0.18935 0.54799 0.10702 0.0
C114 C 0.38199 0.48772 0.81834 0.0
C115 C 0.34505 0.48458 0.84791 0.0
C116 C 0.32593 0.5438 0.96538 0.0
C117 C 0.21427 0.51133 0.03658 0.0
C118 C 0.24812 0.51382 -0.00598 0.0
C119 C 0.34603 0.52375 0.86973 0.0
C120 C 0.31203 0.52051 0.91174 0.0
H121 H 0.10498 0.44221 0.07204 0.0
H122 H 0.16405 0.44209 0.01484 0.0
H123 H 0.3067 0.55794 0.04736 0.0
H124 H 0.4484 0.60226 0.8211 0.0
H125 H 0.38397 0.5969 0.87206 0.0
C126 C 0.69483 0.14738 0.47158 0.0
C127 C 0.65273 0.14257 0.45669 0.0
C128 C 0.73318 0.17776 0.44085 0.0
C129 C 0.76172 0.23136 0.29629 0.0
H130 H 0.87794 0.31434 0.36508 0.0
C131 C 0.89957 0.38305 0.17183 0.0
C132 C 0.94467 0.39782 0.18658 0.0
C133 C 0.86508 0.34708 0.20175 0.0
C134 C 0.84593 0.29079 0.34493 0.0
H135 H 0.61824 0.16789 0.40145 0.0
H136 H 0.68439 0.22073 0.34941 0.0
H137 H 0.81711 0.26285 0.42744 0.0
H138 H 0.98909 0.38425 0.24058 0.0
H139 H 0.92925 0.32088 0.29124 0.0
H140 H 0.79009 0.25926 0.21394 0.0
C141 C 0.68805 0.20058 0.38328 0.0
C142 C 0.81106 0.26137 0.38085 0.0
C143 C 0.6502 0.17059 0.41361 0.0
C144 C 0.95457 0.37373 0.22846 0.0
C145 C 0.92025 0.33774 0.25805 0.0
C146 C 0.79653 0.26057 0.26042 0.0
C147 C 0.7297 0.20345 0.39491 0.0
C148 C 0.76829 0.23196 0.35704 0.0
C149 C 0.87508 0.32502 0.24673 0.0
C150 C 0.83894 0.29123 0.28428 0.0
H151 H 0.69761 0.12586 0.50415 0.0
H152 H 0.76496 0.17945 0.45099 0.0
H153 H 0.72937 0.20842 0.27638 0.0
H154 H 0.89092 0.40136 0.14036 0.0
H155 H 0.83071 0.33842 0.19196 0.0
C156 C 0.5822 0.92378 0.4347 0.0
C157 C 0.5439 0.92724 0.44721 0.0
C158 C 0.58919 0.89032 0.46117 0.0
C159 C 0.56987 0.83915 0.60155 0.0
H160 H 0.58788 0.74322 0.54081 0.0
C161 C 0.56335 0.69885 0.75003 0.0
C162 C 0.58736 0.67697 0.73465 0.0
C163 C 0.56289 0.73172 0.71361 0.0
C164 C 0.58387 0.77042 0.55875 0.0
H165 H 0.48415 0.89824 0.49945 0.0
H166 H 0.49439 0.83922 0.54111 0.0
H167 H 0.57718 0.793 0.47348 0.0
H168 H 0.63191 0.67434 0.67097 0.0
H169 H 0.63303 0.733 0.60921 0.0
H170 H 0.57719 0.81781 0.68649 0.0
C171 C 0.51853 0.86152 0.50993 0.0
C172 C 0.57751 0.79874 0.51991 0.0
C173 C 0.51168 0.8946 0.48376 0.0
C174 C 0.613 0.69058 0.68397 0.0
C175 C 0.61309 0.72383 0.64805 0.0
C176 C 0.57691 0.81145 0.64027 0.0
C177 C 0.5583 0.86041 0.50135 0.0
C178 C 0.56952 0.83276 0.54104 0.0
C179 C 0.58696 0.74401 0.66129 0.0
C180 C 0.58314 0.776 0.61965 0.0
H181 H 0.6088 0.94965 0.40929 0.0
H182 H 0.62042 0.89042 0.45425 0.0
H183 H 0.56433 0.86557 0.61899 0.0
H184 H 0.54263 0.68855 0.78821 0.0
H185 H 0.54182 0.74581 0.7253 0.0
C186 C 0.71371 0.60464 0.86535 0.0
C187 C 0.67893 0.56516 0.83934 0.0
C188 C 0.74518 0.60265 0.90303 0.0
C189 C 0.78633 0.52644 0.96188 0.0
H190 H 0.82018 0.60774 0.09518 0.0
C191 C 0.88959 0.51281 0.15306 0.0
C192 C 0.92985 0.55331 0.16398 0.0
C193 C 0.85445 0.51295 0.12097 0.0
C194 C 0.811 0.58479 0.05829 0.0
H195 H 0.65154 0.493 0.82955 0.0
H196 H 0.70589 0.48906 0.89604 0.0
H197 H 0.77167 0.6108 0.0186 0.0
H198 H 0.96359 0.62583 0.15382 0.0
H199 H 0.9015 0.6265 0.10083 0.0
H200 H 0.82531 0.50009 0.0025 0.0
C201 C 0.7095 0.52189 0.88686 0.0
C202 C 0.78353 0.58681 0.01384 0.0
C203 C 0.67839 0.52407 0.84823 0.0
C204 C 0.9324 0.59429 0.14774 0.0
C205 C 0.89701 0.59454 0.11652 0.0
C206 C 0.81335 0.52406 0.00676 0.0
C207 C 0.74222 0.56094 0.91675 0.0
C208 C 0.77124 0.55811 0.96444 0.0
C209 C 0.8587 0.55369 0.0999 0.0
C210 C 0.82639 0.55349 0.05527 0.0
H211 H 0.71474 0.63676 0.85961 0.0
H212 H 0.77069 0.63375 0.92333 0.0
H213 H 0.77816 0.50406 0.92458 0.0
H214 H 0.88726 0.48064 0.16339 0.0
H215 H 0.82515 0.48094 0.10947 0.0
C216 C 0.40783 0.89168 0.43526 0.0
C217 C 0.39932 0.91847 0.4739 0.0
C218 C 0.37424 0.86029 0.39795 0.0
C219 C 0.25197 0.80224 0.36027 0.0
H220 H 0.29455 0.8 0.20549 0.0
C221 C 0.12671 0.70126 0.17652 0.0
C222 C 0.1361 0.67075 0.14708 0.0
C223 C 0.16008 0.737 0.20961 0.0
C224 C 0.28209 0.80007 0.24846 0.0
H225 H 0.34839 0.93382 0.50206 0.0
H226 H 0.2892 0.87889 0.43658 0.0
H227 H 0.34765 0.84696 0.28167 0.0
H228 H 0.18863 0.65592 0.12531 0.0
H229 H 0.24742 0.71905 0.18175 0.0
H230 H 0.18634 0.75534 0.3268 0.0
C231 C 0.32177 0.88097 0.43686 0.0
C232 C 0.31259 0.8268 0.29247 0.0
C233 C 0.35556 0.91217 0.47495 0.0
C234 C 0.18071 0.67967 0.14608 0.0
C235 C 0.21424 0.71552 0.17932 0.0
C236 C 0.22142 0.77566 0.31613 0.0
C237 C 0.33124 0.85582 0.39625 0.0
C238 C 0.2981 0.82785 0.34928 0.0
C239 C 0.20366 0.74298 0.21418 0.0
C240 C 0.23609 0.77395 0.2597 0.0
H241 H 0.44153 0.89829 0.42857 0.0
H242 H 0.3829 0.84138 0.36791 0.0
H243 H 0.23951 0.80184 0.40338 0.0
H244 H 0.09242 0.69462 0.17902 0.0
H245 H 0.15095 0.7581 0.23473 0.0
C246 C 0.46821 0.38023 0.8328 0.0
C247 C 0.51077 0.41499 0.85096 0.0
C248 C 0.46264 0.33927 0.81121 0.0
C249 C 0.47196 0.28264 0.71694 0.0
H250 H 0.53628 0.22034 0.76286 0.0
C251 C 0.49734 0.16303 0.5598 0.0
C252 C 0.49534 0.12409 0.58376 0.0
C253 C 0.49602 0.19572 0.59594 0.0
C254 C 0.51773 0.23709 0.74957 0.0
H255 H 0.57988 0.4324 0.86632 0.0
H256 H 0.57037 0.36075 0.8292 0.0
H257 H 0.53815 0.27877 0.82667 0.0
H258 H 0.48845 0.08827 0.66449 0.0
H259 H 0.48578 0.14459 0.72671 0.0
H260 H 0.45159 0.24114 0.63988 0.0
C261 C 0.54109 0.36492 0.83164 0.0
C262 C 0.51912 0.27087 0.78607 0.0
C263 C 0.54653 0.4059 0.85372 0.0
C264 C 0.49053 0.118 0.64437 0.0
C265 C 0.4893 0.15054 0.68031 0.0
C266 C 0.47074 0.24905 0.68039 0.0
C267 C 0.49965 0.33225 0.8068 0.0
C268 C 0.49625 0.29416 0.77026 0.0
C269 C 0.49275 0.19022 0.65684 0.0
C270 C 0.49369 0.22585 0.69606 0.0
H271 H 0.44022 0.38658 0.82934 0.0
H272 H 0.42995 0.31441 0.79406 0.0
H273 H 0.45465 0.30039 0.70256 0.0
H274 H 0.50132 0.16895 0.51342 0.0
H275 H 0.499 0.22598 0.5763 0.0
C276 C 1.0011 0.44437 0.85848 0.0
C277 C 1.02249 0.49046 0.87365 0.0
C278 C 1.0122 0.43033 0.80734 0.0
C279 C 0.09767 0.46928 0.69363 0.0
H280 H 0.9966 0.41436 0.58476 0.0
C281 C 0.09962 0.53832 0.4743 0.0
C282 C 0.07709 0.51041 0.42624 0.0
C283 C 0.09886 0.51956 0.52823 0.0
C284 C 1.02517 0.4282 0.61472 0.0
H285 H 0.07059 0.55809 0.84756 0.0
H286 H 0.09063 0.53392 0.7584 0.0
H287 H 0.98313 0.41013 0.68882 0.0
H288 H 0.0397 0.44082 0.39551 0.0
H289 H 0.03574 0.40788 0.49133 0.0
H290 H 0.13949 0.4912 0.61917 0.0
C291 C 0.06631 0.50841 0.78664 0.0
C292 C 1.01746 0.42581 0.67431 0.0
C293 C 0.05481 0.52236 0.83724 0.0
C294 C 0.05528 0.46318 0.43248 0.0
C295 C 0.0539 0.4443 0.48685 0.0
C296 C 0.10537 0.47166 0.63414 0.0
C297 C 0.04508 0.46231 0.7712 0.0
C298 C 0.05356 0.4494 0.71366 0.0
C299 C 0.07548 0.47244 0.53515 0.0
C300 C 0.06899 0.4542 0.59436 0.0
H301 H 0.97607 0.41938 0.88649 0.0
H302 H 0.99498 0.39473 0.79578 0.0
H303 H 0.126 0.48691 0.72353 0.0
H304 H 0.11711 0.57476 0.47027 0.0
H305 H 0.115 0.54208 0.56512 0.0
C306 C 0.46796 0.03753 0.18238 0.0
C307 C 0.50086 0.07004 0.21964 0.0
C308 C 0.47842 0.03315 0.12532 0.0
C309 C 0.5581 0.08694 0.00827 0.0
H310 H 0.52636 0.96346 0.96943 0.0
C311 C 0.60507 0.04086 0.78948 0.0
C312 C 0.56864 1.0048 0.76044 0.0
C313 C 0.6022 0.0491 0.84836 0.0
C314 C 0.53533 0.99806 0.9796 0.0
H315 H 0.56866 0.12621 0.22635 0.0
H316 H 0.58724 0.11881 0.12582 0.0
H317 H 0.50733 0.98056 0.06426 0.0
H318 H 0.50208 0.94748 0.76967 0.0
H319 H 0.49679 0.9615 0.87229 0.0
H320 H 0.58507 0.10423 0.92291 0.0
C321 C 0.55361 0.09647 0.14079 0.0
C322 C 0.52426 1.00778 0.03364 0.0
C323 C 0.54314 0.10063 0.19801 0.0
C324 C 0.53058 0.97534 0.79159 0.0
C325 C 0.52767 0.98342 0.85022 0.0
C326 C 0.56892 0.07715 0.95388 0.0
C327 C 0.52182 0.06152 0.10482 0.0
C328 C 0.53483 0.05211 0.04799 0.0
C329 C 0.56296 1.02105 0.87881 0.0
C330 C 0.5569 0.03245 0.93874 0.0
H331 H 0.43519 1.01372 0.19861 0.0
H332 H 0.45316 1.00644 0.0979 0.0
H333 H 0.56666 0.1214 0.01859 0.0
H334 H 0.63517 0.06317 0.76628 0.0
H335 H 0.6302 0.07785 0.86972 0.0
C336 C 0.54547 0.54133 0.49163 0.0
C337 C 0.57323 0.53655 0.53295 0.0
C338 C 0.56384 0.5664 0.44168 0.0
C339 C 0.65483 0.59769 0.3436 0.0
H340 H 0.60437 0.66745 0.27529 0.0
C341 C 0.62149 0.65889 0.10576 0.0
C342 C 0.60012 0.61544 0.08062 0.0
C343 C 0.63745 0.66527 0.16333 0.0
C344 C 0.62005 0.6494 0.29426 0.0
H345 H 0.64139 0.55359 0.55569 0.0
H346 H 0.67371 0.59668 0.467 0.0
H347 H 0.59395 0.64878 0.37834 0.0
H348 H 0.57666 0.54458 0.09544 0.0
H349 H 0.60554 0.55552 0.19504 0.0
H350 H 0.67796 0.59541 0.25848 0.0
C351 C 0.63792 0.58144 0.47345 0.0
C352 C 0.61361 0.63825 0.35294 0.0
C353 C 0.61948 0.55651 0.52354 0.0
C354 C 0.59498 0.57858 0.11328 0.0
C355 C 0.61149 0.58494 0.17014 0.0
C356 C 0.66117 0.60874 0.2849 0.0
C357 C 0.61025 0.58685 0.43232 0.0
C358 C 0.62843 0.60985 0.37694 0.0
C359 C 0.6323 0.6282 0.19594 0.0
C360 C 0.64119 0.63204 0.25911 0.0
H361 H 0.50968 0.52572 0.49821 0.0
H362 H 0.54157 0.56897 0.40976 0.0
H363 H 0.66683 0.57596 0.36119 0.0
H364 H 0.62503 0.68754 0.08109 0.0
H365 H 0.65266 0.69875 0.18283 0.0
loop_
_geom_bond_atom_site_label_1
_geom_bond_atom_site_label_2
_geom_bond_distance
_geom_bond_site_symmetry_2
_ccdc_geom_bond_type
Zn0 O1 2.055 . S
Zn0 O8 2.046 1_455 S
Zn0 N16 2.036 . S
Zn0 O28 2.053 1_455 S
Zn0 O30 2.066 . S
O1 Zn0 2.055 . S
O1 C4 1.259 . S
C2 O30 1.256 . S
C2 O31 1.244 . S
Zn3 O5 2.046 . S
Zn3 O7 2.055 1_455 S
Zn3 N9 2.036 . S
Zn3 O27 2.066 1_455 S
Zn3 O31 2.053 . S
C4 O1 1.259 . S
C4 O5 1.254 . S
O5 Zn3 2.046 . S
O5 C4 1.254 . S
C6 O27 1.256 . S
C6 O28 1.244 . S
O7 Zn3 2.055 1_655 S
O7 C29 1.259 . S
O8 Zn0 2.046 1_655 S
O8 C29 1.254 . S
N9 Zn3 2.036 . S
N9 C10 1.298 1_455 S
N9 N12 1.398 . S
C10 N9 1.298 1_655 S
C10 N13 1.367 1_655 S
C10 C23 1.481 . S
C11 N12 1.299 . S
C11 N13 1.379 . S
N12 N9 1.398 . S
N12 C11 1.299 . S
N13 C10 1.367 1_455 S
N13 C11 1.379 . S
C14 N16 1.298 1_556 S
C14 N18 1.367 . S
C14 C22 1.481 . S
C15 N17 1.299 . S
C15 N18 1.379 1_655 S
N16 Zn0 2.036 . S
N16 C14 1.298 1_554 S
N16 N17 1.398 1_454 S
N17 C15 1.299 . S
N17 N16 1.398 1_656 S
N18 C14 1.367 . S
N18 C15 1.379 1_455 S
H19 C22 0.980 1_554 S
H20 C22 0.981 . S
H21 C22 0.981 . S
C22 C14 1.481 . S
C22 H19 0.980 1_556 S
C22 H20 0.981 . S
C22 H21 0.981 . S
C23 C10 1.481 . S
C23 H24 0.980 . S
C23 H25 0.981 . S
C23 H26 0.981 . S
H24 C23 0.980 . S
H25 C23 0.981 . S
H26 C23 0.981 . S
O27 Zn3 2.066 1_655 S
O27 C6 1.256 . S
O28 Zn0 2.053 1_655 S
O28 C6 1.244 . S
C29 O7 1.259 . S
C29 O8 1.254 . S
O30 Zn0 2.066 . S
O30 C2 1.256 . S
O31 C2 1.244 . S
O31 Zn3 2.053 . S
Zn32 O33 2.055 . S
Zn32 O40 2.046 1_545 S
Zn32 N48 2.036 . S
Zn32 O60 2.053 1_545 S
Zn32 O62 2.066 . S
O33 Zn32 2.055 . S
O33 C36 1.259 . S
C34 O62 1.256 . S
C34 O63 1.244 . S
Zn35 O37 2.046 . S
Zn35 O39 2.055 1_545 S
Zn35 N41 2.036 . S
Zn35 O59 2.066 1_545 S
Zn35 O63 2.053 . S
C36 O33 1.259 . S
C36 O37 1.254 . S
O37 Zn35 2.046 . S
O37 C36 1.254 . S
C38 O59 1.256 . S
C38 O60 1.244 . S
O39 Zn35 2.055 1_565 S
O39 C61 1.259 . S
O40 Zn32 2.046 1_565 S
O40 C61 1.254 . S
N41 Zn35 2.036 . S
N41 C42 1.298 1_545 S
N41 N44 1.398 . S
C42 N41 1.298 1_565 S
C42 N45 1.367 1_565 S
C42 C55 1.481 . S
C43 N44 1.299 . S
C43 N45 1.379 . S
N44 N41 1.398 . S
N44 C43 1.299 . S
N45 C42 1.367 1_545 S
N45 C43 1.379 . S
C46 N48 1.298 . S
C46 N50 1.367 . S
C46 C54 1.481 . S
C47 N49 1.299 . S
C47 N50 1.379 1_565 S
N48 Zn32 2.036 . S
N48 C46 1.298 . S
N48 N49 1.398 1_545 S
N49 C47 1.299 . S
N49 N48 1.398 1_565 S
N50 C46 1.367 . S
N50 C47 1.379 1_545 S
H51 C54 0.980 . S
H52 C54 0.981 . S
H53 C54 0.981 . S
C54 C46 1.481 . S
C54 H51 0.980 . S
C54 H52 0.981 . S
C54 H53 0.981 . S
C55 C42 1.481 . S
C55 H56 0.980 . S
C55 H57 0.981 . S
C55 H58 0.981 . S
H56 C55 0.980 . S
H57 C55 0.981 . S
H58 C55 0.981 . S
O59 Zn35 2.066 1_565 S
O59 C38 1.256 . S
O60 Zn32 2.053 1_565 S
O60 C38 1.244 . S
C61 O39 1.259 . S
C61 O40 1.254 . S
O62 Zn32 2.066 . S
O62 C34 1.256 . S
O63 C34 1.244 . S
O63 Zn35 2.053 . S
Zn64 O65 2.055 . S
Zn64 O72 2.046 . S
Zn64 N80 2.036 . S
Zn64 O92 2.053 . S
Zn64 O94 2.066 . S
O65 Zn64 2.055 . S
O65 C68 1.259 . S
C66 O94 1.256 . S
C66 O95 1.244 . S
Zn67 O69 2.046 . S
Zn67 O71 2.055 . S
Zn67 N73 2.036 . S
Zn67 O91 2.066 . S
Zn67 O95 2.053 . S
C68 O65 1.259 . S
C68 O69 1.254 . S
O69 Zn67 2.046 . S
O69 C68 1.254 . S
C70 O91 1.256 . S
C70 O92 1.244 . S
O71 Zn67 2.055 . S
O71 C93 1.259 . S
O72 Zn64 2.046 . S
O72 C93 1.254 . S
N73 Zn67 2.036 . S
N73 C74 1.298 . S
N73 N76 1.398 . S
C74 N73 1.298 . S
C74 N77 1.367 . S
C74 C87 1.481 . S
C75 N76 1.299 . S
C75 N77 1.379 . S
N76 N73 1.398 . S
N76 C75 1.299 . S
N77 C74 1.367 . S
N77 C75 1.379 . S
C78 N80 1.298 1_554 S
C78 N82 1.367 . S
C78 C86 1.481 . S
C79 N81 1.299 . S
C79 N82 1.379 . S
N80 Zn64 2.036 . S
N80 C78 1.298 1_556 S
N80 N81 1.398 1_556 S
N81 C79 1.299 . S
N81 N80 1.398 1_554 S
N82 C78 1.367 . S
N82 C79 1.379 . S
H83 C86 0.980 1_556 S
H84 C86 0.981 . S
H85 C86 0.981 . S
C86 C78 1.481 . S
C86 H83 0.980 1_554 S
C86 H84 0.981 . S
C86 H85 0.981 . S
C87 C74 1.481 . S
C87 H88 0.980 . S
C87 H89 0.981 . S
C87 H90 0.981 . S
H88 C87 0.980 . S
H89 C87 0.981 . S
H90 C87 0.981 . S
O91 Zn67 2.066 . S
O91 C70 1.256 . S
O92 Zn64 2.053 . S
O92 C70 1.244 . S
C93 O71 1.259 . S
C93 O72 1.254 . S
O94 Zn64 2.066 . S
O94 C66 1.256 . S
O95 C66 1.244 . S
O95 Zn67 2.053 . S
C96 C97 1.349 . S
C96 C98 1.327 . S
C96 H121 0.950 . S
C97 C96 1.349 . S
C97 C113 1.349 . S
C98 C96 1.327 . S
C98 C117 1.429 . S
C98 H122 0.950 . S
C99 C116 1.566 1_554 S
C99 C118 1.368 . S
C99 H123 0.949 . S
H100 C104 0.949 . S
C101 C102 1.349 . S
C101 C103 1.327 . S
C101 H124 0.950 . S
C102 C101 1.349 . S
C102 C114 1.349 . S
C103 C101 1.327 . S
C103 C119 1.429 . S
C103 H125 0.950 . S
C104 H100 0.949 . S
C104 C112 1.574 . S
C104 C120 1.368 . S
H105 C113 0.950 . S
H106 C111 0.950 . S
H107 C112 0.949 . S
H108 C114 0.950 . S
H109 C115 0.950 . S
H110 C116 0.948 1_554 S
C111 H106 0.950 . S
C111 C113 1.327 . S
C111 C117 1.429 . S
C112 C104 1.574 . S
C112 H107 0.949 . S
C112 C118 1.368 1_556 S
C113 C97 1.349 . S
C113 H105 0.950 . S
C113 C111 1.327 . S
C114 C102 1.349 . S
C114 H108 0.950 . S
C114 C115 1.327 . S
C115 H109 0.950 . S
C115 C114 1.327 . S
C115 C119 1.429 . S
C116 C99 1.566 1_556 S
C116 H110 0.948 1_556 S
C116 C120 1.377 . S
C117 C98 1.429 . S
C117 C111 1.429 . S
C117 C118 1.523 . S
C118 C99 1.368 . S
C118 C112 1.368 1_554 S
C118 C117 1.523 . S
C119 C103 1.429 . S
C119 C115 1.429 . S
C119 C120 1.523 . S
C120 C104 1.368 . S
C120 C116 1.377 . S
C120 C119 1.523 . S
H121 C96 0.950 . S
H122 C98 0.950 . S
H123 C99 0.949 . S
H124 C101 0.950 . S
H125 C103 0.950 . S
C126 C127 1.349 . S
C126 C128 1.327 . S
C126 H151 0.950 . S
C127 C126 1.349 . S
C127 C143 1.349 . S
C128 C126 1.327 . S
C128 C147 1.429 . S
C128 H152 0.950 . S
C129 C146 1.574 . S
C129 C148 1.368 . S
C129 H153 0.949 . S
H130 C134 0.949 . S
C131 C132 1.349 . S
C131 C133 1.327 . S
C131 H154 0.950 . S
C132 C131 1.349 . S
C132 C144 1.349 . S
C133 C131 1.327 . S
C133 C149 1.429 . S
C133 H155 0.950 . S
C134 H130 0.949 . S
C134 C142 1.574 . S
C134 C150 1.368 . S
H135 C143 0.950 . S
H136 C141 0.950 . S
H137 C142 0.949 . S
H138 C144 0.950 . S
H139 C145 0.950 . S
H140 C146 0.949 . S
C141 H136 0.950 . S
C141 C143 1.327 . S
C141 C147 1.429 . S
C142 C134 1.574 . S
C142 H137 0.949 . S
C142 C148 1.368 . S
C143 C127 1.349 . S
C143 H135 0.950 . S
C143 C141 1.327 . S
C144 C132 1.349 . S
C144 H138 0.950 . S
C144 C145 1.327 . S
C145 H139 0.950 . S
C145 C144 1.327 . S
C145 C149 1.429 . S
C146 C129 1.574 . S
C146 H140 0.949 . S
C146 C150 1.368 . S
C147 C128 1.429 . S
C147 C141 1.429 . S
C147 C148 1.523 . S
C148 C129 1.368 . S
C148 C142 1.368 . S
C148 C147 1.523 . S
C149 C133 1.429 . S
C149 C145 1.429 . S
C149 C150 1.523 . S
C150 C134 1.368 . S
C150 C146 1.368 . S
C150 C149 1.523 . S
H151 C126 0.950 . S
H152 C128 0.950 . S
H153 C129 0.949 . S
H154 C131 0.950 . S
H155 C133 0.950 . S
C156 C157 1.349 . S
C156 C158 1.327 . S
C156 H181 0.950 . S
C157 C156 1.349 . S
C157 C173 1.349 . S
C158 C156 1.327 . S
C158 C177 1.429 . S
C158 H182 0.950 . S
C159 C176 1.574 . S
C159 C178 1.368 . S
C159 H183 0.949 . S
H160 C164 0.949 . S
C161 C162 1.349 . S
C161 C163 1.327 . S
C161 H184 0.950 . S
C162 C161 1.349 . S
C162 C174 1.349 . S
C163 C161 1.327 . S
C163 C179 1.429 . S
C163 H185 0.950 . S
C164 H160 0.949 . S
C164 C172 1.574 . S
C164 C180 1.368 . S
H165 C173 0.950 . S
H166 C171 0.950 . S
H167 C172 0.949 . S
H168 C174 0.950 . S
H169 C175 0.950 . S
H170 C176 0.949 . S
C171 H166 0.950 . S
C171 C173 1.327 . S
C171 C177 1.429 . S
C172 C164 1.574 . S
C172 H167 0.949 . S
C172 C178 1.368 . S
C173 C157 1.349 . S
C173 H165 0.950 . S
C173 C171 1.327 . S
C174 C162 1.349 . S
C174 H168 0.950 . S
C174 C175 1.327 . S
C175 H169 0.950 . S
C175 C174 1.327 . S
C175 C179 1.429 . S
C176 C159 1.574 . S
C176 H170 0.949 . S
C176 C180 1.368 . S
C177 C158 1.429 . S
C177 C171 1.429 . S
C177 C178 1.523 . S
C178 C159 1.368 . S
C178 C172 1.368 . S
C178 C177 1.523 . S
C179 C163 1.429 . S
C179 C175 1.429 . S
C179 C180 1.523 . S
C180 C164 1.368 . S
C180 C176 1.368 . S
C180 C179 1.523 . S
H181 C156 0.950 . S
H182 C158 0.950 . S
H183 C159 0.949 . S
H184 C161 0.950 . S
H185 C163 0.950 . S
C186 C187 1.349 . S
C186 C188 1.327 . S
C186 H211 0.950 . S
C187 C186 1.349 . S
C187 C203 1.349 . S
C188 C186 1.327 . S
C188 C207 1.429 . S
C188 H212 0.950 . S
C189 C206 1.574 . S
C189 C208 1.368 . S
C189 H213 0.949 . S
H190 C194 0.949 . S
C191 C192 1.349 . S
C191 C193 1.327 . S
C191 H214 0.950 . S
C192 C191 1.349 . S
C192 C204 1.349 . S
C193 C191 1.327 . S
C193 C209 1.429 . S
C193 H215 0.950 . S
C194 H190 0.949 . S
C194 C202 1.574 . S
C194 C210 1.368 . S
H195 C203 0.950 . S
H196 C201 0.950 . S
H197 C202 0.949 . S
H198 C204 0.950 . S
H199 C205 0.950 . S
H200 C206 0.949 . S
C201 H196 0.950 . S
C201 C203 1.327 . S
C201 C207 1.429 . S
C202 C194 1.574 . S
C202 H197 0.949 . S
C202 C208 1.368 1_554 S
C203 C187 1.349 . S
C203 H195 0.950 . S
C203 C201 1.327 . S
C204 C192 1.349 . S
C204 H198 0.950 . S
C204 C205 1.327 . S
C205 H199 0.950 . S
C205 C204 1.327 . S
C205 C209 1.429 . S
C206 C189 1.574 . S
C206 H200 0.949 . S
C206 C210 1.368 1_556 S
C207 C188 1.429 . S
C207 C201 1.429 . S
C207 C208 1.523 . S
C208 C189 1.368 . S
C208 C202 1.368 1_556 S
C208 C207 1.523 . S
C209 C193 1.429 . S
C209 C205 1.429 . S
C209 C210 1.523 . S
C210 C194 1.368 . S
C210 C206 1.368 1_554 S
C210 C209 1.523 . S
H211 C186 0.950 . S
H212 C188 0.950 . S
H213 C189 0.949 . S
H214 C191 0.950 . S
H215 C193 0.950 . S
C216 C217 1.349 . S
C216 C218 1.327 . S
C216 H241 0.950 . S
C217 C216 1.349 . S
C217 C233 1.349 . S
C218 C216 1.327 . S
C218 C237 1.429 . S
C218 H242 0.950 . S
C219 C236 1.574 . S
C219 C238 1.368 . S
C219 H243 0.949 . S
H220 C224 0.949 . S
C221 C222 1.349 . S
C221 C223 1.327 . S
C221 H244 0.950 . S
C222 C221 1.349 . S
C222 C234 1.349 . S
C223 C221 1.327 . S
C223 C239 1.429 . S
C223 H245 0.950 . S
C224 H220 0.949 . S
C224 C232 1.574 . S
C224 C240 1.368 . S
H225 C233 0.950 . S
H226 C231 0.950 . S
H227 C232 0.949 . S
H228 C234 0.950 . S
H229 C235 0.950 . S
H230 C236 0.949 . S
C231 H226 0.950 . S
C231 C233 1.327 . S
C231 C237 1.429 . S
C232 C224 1.574 . S
C232 H227 0.949 . S
C232 C238 1.368 . S
C233 C217 1.349 . S
C233 H225 0.950 . S
C233 C231 1.327 . S
C234 C222 1.349 . S
C234 H228 0.950 . S
C234 C235 1.327 . S
C235 H229 0.950 . S
C235 C234 1.327 . S
C235 C239 1.429 . S
C236 C219 1.574 . S
C236 H230 0.949 . S
C236 C240 1.368 . S
C237 C218 1.429 . S
C237 C231 1.429 . S
C237 C238 1.523 . S
C238 C219 1.368 . S
C238 C232 1.368 . S
C238 C237 1.523 . S
C239 C223 1.429 . S
C239 C235 1.429 . S
C239 C240 1.523 . S
C240 C224 1.368 . S
C240 C236 1.368 . S
C240 C239 1.523 . S
H241 C216 0.950 . S
H242 C218 0.950 . S
H243 C219 0.949 . S
H244 C221 0.950 . S
H245 C223 0.950 . S
C246 C247 1.349 . S
C246 C248 1.327 . S
C246 H271 0.950 . S
C247 C246 1.349 . S
C247 C263 1.349 . S
C248 C246 1.327 . S
C248 C267 1.429 . S
C248 H272 0.950 . S
C249 C266 1.574 . S
C249 C268 1.368 . S
C249 H273 0.949 . S
H250 C254 0.949 . S
C251 C252 1.349 . S
C251 C253 1.327 . S
C251 H274 0.950 . S
C252 C251 1.349 . S
C252 C264 1.349 . S
C253 C251 1.327 . S
C253 C269 1.429 . S
C253 H275 0.950 . S
C254 H250 0.949 . S
C254 C262 1.574 . S
C254 C270 1.368 . S
H255 C263 0.950 . S
H256 C261 0.950 . S
H257 C262 0.949 . S
H258 C264 0.950 . S
H259 C265 0.950 . S
H260 C266 0.949 . S
C261 H256 0.950 . S
C261 C263 1.327 . S
C261 C267 1.429 . S
C262 C254 1.574 . S
C262 H257 0.949 . S
C262 C268 1.368 . S
C263 C247 1.349 . S
C263 H255 0.950 . S
C263 C261 1.327 . S
C264 C252 1.349 . S
C264 H258 0.950 . S
C264 C265 1.327 . S
C265 H259 0.950 . S
C265 C264 1.327 . S
C265 C269 1.429 . S
C266 C249 1.574 . S
C266 H260 0.949 . S
C266 C270 1.368 . S
C267 C248 1.429 . S
C267 C261 1.429 . S
C267 C268 1.523 . S
C268 C249 1.368 . S
C268 C262 1.368 . S
C268 C267 1.523 . S
C269 C253 1.429 . S
C269 C265 1.429 . S
C269 C270 1.523 . S
C270 C254 1.368 . S
C270 C266 1.368 . S
C270 C269 1.523 . S
H271 C246 0.950 . S
H272 C248 0.950 . S
H273 C249 0.949 . S
H274 C251 0.950 . S
H275 C253 0.950 . S
C276 C277 1.349 1_655 S
C276 C278 1.327 . S
C276 H301 0.950 . S
C277 C276 1.349 1_455 S
C277 C293 1.349 . S
C278 C276 1.327 . S
C278 C297 1.429 1_655 S
C278 H302 0.950 . S
C279 C296 1.574 . S
C279 C298 1.368 . S
C279 H303 0.949 . S
H280 C284 0.949 . S
C281 C282 1.349 1_455 S
C281 C283 1.327 . S
C281 H304 0.950 . S
C282 C281 1.349 1_655 S
C282 C294 1.349 . S
C283 C281 1.327 . S
C283 C299 1.429 . S
C283 H305 0.950 . S
C284 H280 0.949 . S
C284 C292 1.574 . S
C284 C300 1.368 1_655 S
H285 C293 0.950 . S
H286 C291 0.950 . S
H287 C292 0.949 . S
H288 C294 0.950 . S
H289 C295 0.950 . S
H290 C296 0.949 . S
C291 H286 0.950 . S
C291 C293 1.327 . S
C291 C297 1.429 . S
C292 C284 1.574 . S
C292 H287 0.949 . S
C292 C298 1.368 1_655 S
C293 C277 1.349 . S
C293 H285 0.950 . S
C293 C291 1.327 . S
C294 C282 1.349 . S
C294 H288 0.950 . S
C294 C295 1.327 . S
C295 H289 0.950 . S
C295 C294 1.327 . S
C295 C299 1.429 1_655 S
C296 C279 1.574 . S
C296 H290 0.949 . S
C296 C300 1.368 . S
C297 C278 1.429 1_455 S
C297 C291 1.429 . S
C297 C298 1.523 . S
C298 C279 1.368 . S
C298 C292 1.368 1_455 S
C298 C297 1.523 . S
C299 C283 1.429 . S
C299 C295 1.429 1_455 S
C299 C300 1.523 . S
C300 C284 1.368 1_455 S
C300 C296 1.368 . S
C300 C299 1.523 . S
H301 C276 0.950 . S
H302 C278 0.950 . S
H303 C279 0.949 . S
H304 C281 0.950 . S
H305 C283 0.950 . S
C306 C307 1.349 . S
C306 C308 1.327 . S
C306 H331 0.950 . S
C307 C306 1.349 . S
C307 C323 1.349 1_565 S
C308 C306 1.327 . S
C308 C327 1.429 1_565 S
C308 H332 0.950 . S
C309 C326 1.574 1_554 S
C309 C328 1.368 . S
C309 H333 0.949 . S
H310 C314 0.949 . S
C311 C312 1.349 . S
C311 C313 1.327 . S
C311 H334 0.950 . S
C312 C311 1.349 . S
C312 C324 1.349 1_545 S
C313 C311 1.327 . S
C313 C329 1.429 . S
C313 H335 0.950 . S
C314 H310 0.949 . S
C314 C322 1.574 1_556 S
C314 C330 1.368 1_565 S
H315 C323 0.950 . S
H316 C321 0.950 . S
H317 C322 0.949 . S
H318 C324 0.950 . S
H319 C325 0.950 . S
H320 C326 0.949 . S
C321 H316 0.950 . S
C321 C323 1.327 . S
C321 C327 1.429 . S
C322 C314 1.574 1_554 S
C322 H317 0.949 . S
C322 C328 1.368 1_565 S
C323 C307 1.349 1_545 S
C323 H315 0.950 . S
C323 C321 1.327 . S
C324 C312 1.349 1_565 S
C324 H318 0.950 . S
C324 C325 1.327 . S
C325 H319 0.950 . S
C325 C324 1.327 . S
C325 C329 1.429 1_565 S
C326 C309 1.574 1_556 S
C326 H320 0.949 . S
C326 C330 1.368 . S
C327 C308 1.429 1_545 S
C327 C321 1.429 . S
C327 C328 1.523 . S
C328 C309 1.368 . S
C328 C322 1.368 1_545 S
C328 C327 1.523 . S
C329 C313 1.429 . S
C329 C325 1.429 1_545 S
C329 C330 1.523 . S
C330 C314 1.368 1_545 S
C330 C326 1.368 . S
C330 C329 1.523 . S
H331 C306 0.950 . S
H332 C308 0.950 . S
H333 C309 0.949 . S
H334 C311 0.950 . S
H335 C313 0.950 . S
C336 C337 1.349 . S
C336 C338 1.327 . S
C336 H361 0.950 . S
C337 C336 1.349 . S
C337 C353 1.349 . S
C338 C336 1.327 . S
C338 C357 1.429 . S
C338 H362 0.950 . S
C339 C356 1.574 . S
C339 C358 1.368 . S
C339 H363 0.949 . S
H340 C344 0.949 . S
C341 C342 1.349 . S
C341 C343 1.327 . S
C341 H364 0.950 . S
C342 C341 1.349 . S
C342 C354 1.349 . S
C343 C341 1.327 . S
C343 C359 1.429 . S
C343 H365 0.950 . S
C344 H340 0.949 . S
C344 C352 1.574 . S
C344 C360 1.368 . S
H345 C353 0.950 . S
H346 C351 0.950 . S
H347 C352 0.949 . S
H348 C354 0.950 . S
H349 C355 0.950 . S
H350 C356 0.949 . S
C351 H346 0.950 . S
C351 C353 1.327 . S
C351 C357 1.429 . S
C352 C344 1.574 . S
C352 H347 0.949 . S
C352 C358 1.368 . S
C353 C337 1.349 . S
C353 H345 0.950 . S
C353 C351 1.327 . S
C354 C342 1.349 . S
C354 H348 0.950 . S
C354 C355 1.327 . S
C355 H349 0.950 . S
C355 C354 1.327 . S
C355 C359 1.429 . S
C356 C339 1.574 . S
C356 H350 0.949 . S
C356 C360 1.368 . S
C357 C338 1.429 . S
C357 C351 1.429 . S
C357 C358 1.523 . S
C358 C339 1.368 . S
C358 C352 1.368 . S
C358 C357 1.523 . S
C359 C343 1.429 . S
C359 C355 1.429 . S
C359 C360 1.523 . S
C360 C344 1.368 . S
C360 C356 1.368 . S
C360 C359 1.523 . S
H361 C336 0.950 . S
H362 C338 0.950 . S
H363 C339 0.949 . S
H364 C341 0.950 . S
H365 C343 0.950 . S
C97 C2 1.833 . S
C102 C93 1.817 . S
C127 C36 1.817 . S
C132 C6 1.833 . S
C157 C61 1.817 . S
C162 C70 1.833 . S
C187 C66 1.833 . S
C192 C29 1.817 . S
C217 C38 1.833 . S
C222 C4 1.817 . S
C247 C68 1.817 . S
C252 C34 1.833 . S
C277 N18 0.483 . S
C282 N13 0.483 1_655 S
C307 N45 0.483 1_565 S
C312 N50 0.483 . S
C337 N77 0.483 . S
C342 N82 0.483 . S
