# Generated by pormake.
# Topology yfm, (5)-cn, num edge types: 1
# Building blocks:
#     Node 0, Type 0, BuildingBlock: XOMCOT_clean_sbu_0, # of connection points: 5
#     Node 1, Type 0, BuildingBlock: XOMCOT_clean_sbu_0, # of connection points: 5
#     Node 2, Type 0, BuildingBlock: XOMCOT_clean_sbu_0, # of connection points: 5
#     Node 3, Type 0, BuildingBlock: XOMCOT_clean_sbu_0, # of connection points: 5
#     Node 4, Type 0, BuildingBlock: XOMCOT_clean_sbu_0, # of connection points: 5
#     Node 5, Type 0, BuildingBlock: XOMCOT_clean_sbu_0, # of connection points: 5
#     Node 6, Type 0, BuildingBlock: XOMCOT_clean_sbu_0, # of connection points: 5
#     Node 7, Type 0, BuildingBlock: XOMCOT_clean_sbu_0, # of connection points: 5
#     Node 8, Type 0, BuildingBlock: XOMCOT_clean_sbu_0, # of connection points: 5
#     Node 9, Type 0, BuildingBlock: XOMCOT_clean_sbu_0, # of connection points: 5
#     Node 10, Type 0, BuildingBlock: XOMCOT_clean_sbu_0, # of connection points: 5
#     Node 11, Type 0, BuildingBlock: XOMCOT_clean_sbu_0, # of connection points: 5
#     Node 12, Type 0, BuildingBlock: XOMCOT_clean_sbu_0, # of connection points: 5
#     Node 13, Type 0, BuildingBlock: XOMCOT_clean_sbu_0, # of connection points: 5
#     Node 14, Type 0, BuildingBlock: XOMCOT_clean_sbu_0, # of connection points: 5
#     Node 15, Type 0, BuildingBlock: XOMCOT_clean_sbu_0, # of connection points: 5
#     Node 16, Type 0, BuildingBlock: XOMCOT_clean_sbu_0, # of connection points: 5
#     Node 17, Type 0, BuildingBlock: XOMCOT_clean_sbu_0, # of connection points: 5
#     Node 18, Type 0, BuildingBlock: XOMCOT_clean_sbu_0, # of connection points: 5
#     Node 19, Type 0, BuildingBlock: XOMCOT_clean_sbu_0, # of connection points: 5
#     Node 20, Type 0, BuildingBlock: XOMCOT_clean_sbu_0, # of connection points: 5
#     Node 21, Type 0, BuildingBlock: XOMCOT_clean_sbu_0, # of connection points: 5
#     Node 22, Type 0, BuildingBlock: XOMCOT_clean_sbu_0, # of connection points: 5
#     Node 23, Type 0, BuildingBlock: XOMCOT_clean_sbu_0, # of connection points: 5
#     Node 24, Type 0, BuildingBlock: XOMCOT_clean_sbu_0, # of connection points: 5
#     Node 25, Type 0, BuildingBlock: XOMCOT_clean_sbu_0, # of connection points: 5
#     Node 26, Type 0, BuildingBlock: XOMCOT_clean_sbu_0, # of connection points: 5
#     Node 27, Type 0, BuildingBlock: XOMCOT_clean_sbu_0, # of connection points: 5
#     Node 28, Type 0, BuildingBlock: XOMCOT_clean_sbu_0, # of connection points: 5
#     Node 29, Type 0, BuildingBlock: XOMCOT_clean_sbu_0, # of connection points: 5
#     Node 30, Type 0, BuildingBlock: XOMCOT_clean_sbu_0, # of connection points: 5
#     Node 31, Type 0, BuildingBlock: XOMCOT_clean_sbu_0, # of connection points: 5
#     Edge 32, Type (0, 0), BuildingBlock: EZIPEK_clean_linker_0, # of connection points: 2
#     Edge 33, Type (0, 0), BuildingBlock: EZIPEK_clean_linker_0, # of connection points: 2
#     Edge 34, Type (0, 0), BuildingBlock: EZIPEK_clean_linker_0, # of connection points: 2
#     Edge 35, Type (0, 0), BuildingBlock: EZIPEK_clean_linker_0, # of connection points: 2
#     Edge 36, Type (0, 0), BuildingBlock: EZIPEK_clean_linker_0, # of connection points: 2
#     Edge 37, Type (0, 0), BuildingBlock: EZIPEK_clean_linker_0, # of connection points: 2
#     Edge 38, Type (0, 0), BuildingBlock: EZIPEK_clean_linker_0, # of connection points: 2
#     Edge 39, Type (0, 0), BuildingBlock: EZIPEK_clean_linker_0, # of connection points: 2
#     Edge 40, Type (0, 0), BuildingBlock: EZIPEK_clean_linker_0, # of connection points: 2
#     Edge 41, Type (0, 0), BuildingBlock: EZIPEK_clean_linker_0, # of connection points: 2
#     Edge 42, Type (0, 0), BuildingBlock: EZIPEK_clean_linker_0, # of connection points: 2
#     Edge 43, Type (0, 0), BuildingBlock: EZIPEK_clean_linker_0, # of connection points: 2
#     Edge 44, Type (0, 0), BuildingBlock: EZIPEK_clean_linker_0, # of connection points: 2
#     Edge 45, Type (0, 0), BuildingBlock: EZIPEK_clean_linker_0, # of connection points: 2
#     Edge 46, Type (0, 0), BuildingBlock: EZIPEK_clean_linker_0, # of connection points: 2
#     Edge 47, Type (0, 0), BuildingBlock: EZIPEK_clean_linker_0, # of connection points: 2
#     Edge 48, Type (0, 0), BuildingBlock: EZIPEK_clean_linker_0, # of connection points: 2
#     Edge 49, Type (0, 0), BuildingBlock: EZIPEK_clean_linker_0, # of connection points: 2
#     Edge 50, Type (0, 0), BuildingBlock: EZIPEK_clean_linker_0, # of connection points: 2
#     Edge 51, Type (0, 0), BuildingBlock: EZIPEK_clean_linker_0, # of connection points: 2
#     Edge 52, Type (0, 0), BuildingBlock: EZIPEK_clean_linker_0, # of connection points: 2
#     Edge 53, Type (0, 0), BuildingBlock: EZIPEK_clean_linker_0, # of connection points: 2
#     Edge 54, Type (0, 0), BuildingBlock: EZIPEK_clean_linker_0, # of connection points: 2
#     Edge 55, Type (0, 0), BuildingBlock: EZIPEK_clean_linker_0, # of connection points: 2
#     Edge 56, Type (0, 0), BuildingBlock: EZIPEK_clean_linker_0, # of connection points: 2
#     Edge 57, Type (0, 0), BuildingBlock: EZIPEK_clean_linker_0, # of connection points: 2
#     Edge 58, Type (0, 0), BuildingBlock: EZIPEK_clean_linker_0, # of connection points: 2
#     Edge 59, Type (0, 0), BuildingBlock: EZIPEK_clean_linker_0, # of connection points: 2
#     Edge 60, Type (0, 0), BuildingBlock: EZIPEK_clean_linker_0, # of connection points: 2
#     Edge 61, Type (0, 0), BuildingBlock: EZIPEK_clean_linker_0, # of connection points: 2
#     Edge 62, Type (0, 0), BuildingBlock: EZIPEK_clean_linker_0, # of connection points: 2
#     Edge 63, Type (0, 0), BuildingBlock: EZIPEK_clean_linker_0, # of connection points: 2
#     Edge 64, Type (0, 0), BuildingBlock: EZIPEK_clean_linker_0, # of connection points: 2
#     Edge 65, Type (0, 0), BuildingBlock: EZIPEK_clean_linker_0, # of connection points: 2
#     Edge 66, Type (0, 0), BuildingBlock: EZIPEK_clean_linker_0, # of connection points: 2
#     Edge 67, Type (0, 0), BuildingBlock: EZIPEK_clean_linker_0, # of connection points: 2
#     Edge 68, Type (0, 0), BuildingBlock: EZIPEK_clean_linker_0, # of connection points: 2
#     Edge 69, Type (0, 0), BuildingBlock: EZIPEK_clean_linker_0, # of connection points: 2
#     Edge 70, Type (0, 0), BuildingBlock: EZIPEK_clean_linker_0, # of connection points: 2
#     Edge 71, Type (0, 0), BuildingBlock: EZIPEK_clean_linker_0, # of connection points: 2
#     Edge 72, Type (0, 0), BuildingBlock: EZIPEK_clean_linker_0, # of connection points: 2
#     Edge 73, Type (0, 0), BuildingBlock: EZIPEK_clean_linker_0, # of connection points: 2
#     Edge 74, Type (0, 0), BuildingBlock: EZIPEK_clean_linker_0, # of connection points: 2
#     Edge 75, Type (0, 0), BuildingBlock: EZIPEK_clean_linker_0, # of connection points: 2
#     Edge 76, Type (0, 0), BuildingBlock: EZIPEK_clean_linker_0, # of connection points: 2
#     Edge 77, Type (0, 0), BuildingBlock: EZIPEK_clean_linker_0, # of connection points: 2
#     Edge 78, Type (0, 0), BuildingBlock: EZIPEK_clean_linker_0, # of connection points: 2
#     Edge 79, Type (0, 0), BuildingBlock: EZIPEK_clean_linker_0, # of connection points: 2
#     Edge 80, Type (0, 0), BuildingBlock: EZIPEK_clean_linker_0, # of connection points: 2
#     Edge 81, Type (0, 0), BuildingBlock: EZIPEK_clean_linker_0, # of connection points: 2
#     Edge 82, Type (0, 0), BuildingBlock: EZIPEK_clean_linker_0, # of connection points: 2
#     Edge 83, Type (0, 0), BuildingBlock: EZIPEK_clean_linker_0, # of connection points: 2
#     Edge 84, Type (0, 0), BuildingBlock: EZIPEK_clean_linker_0, # of connection points: 2
#     Edge 85, Type (0, 0), BuildingBlock: EZIPEK_clean_linker_0, # of connection points: 2
#     Edge 86, Type (0, 0), BuildingBlock: EZIPEK_clean_linker_0, # of connection points: 2
#     Edge 87, Type (0, 0), BuildingBlock: EZIPEK_clean_linker_0, # of connection points: 2
#     Edge 88, Type (0, 0), BuildingBlock: EZIPEK_clean_linker_0, # of connection points: 2
#     Edge 89, Type (0, 0), BuildingBlock: EZIPEK_clean_linker_0, # of connection points: 2
#     Edge 90, Type (0, 0), BuildingBlock: EZIPEK_clean_linker_0, # of connection points: 2
#     Edge 91, Type (0, 0), BuildingBlock: EZIPEK_clean_linker_0, # of connection points: 2
#     Edge 92, Type (0, 0), BuildingBlock: EZIPEK_clean_linker_0, # of connection points: 2
#     Edge 93, Type (0, 0), BuildingBlock: EZIPEK_clean_linker_0, # of connection points: 2
#     Edge 94, Type (0, 0), BuildingBlock: EZIPEK_clean_linker_0, # of connection points: 2
#     Edge 95, Type (0, 0), BuildingBlock: EZIPEK_clean_linker_0, # of connection points: 2
#     Edge 96, Type (0, 0), BuildingBlock: EZIPEK_clean_linker_0, # of connection points: 2
#     Edge 97, Type (0, 0), BuildingBlock: EZIPEK_clean_linker_0, # of connection points: 2
#     Edge 98, Type (0, 0), BuildingBlock: EZIPEK_clean_linker_0, # of connection points: 2
#     Edge 99, Type (0, 0), BuildingBlock: EZIPEK_clean_linker_0, # of connection points: 2
#     Edge 100, Type (0, 0), BuildingBlock: EZIPEK_clean_linker_0, # of connection points: 2
#     Edge 101, Type (0, 0), BuildingBlock: EZIPEK_clean_linker_0, # of connection points: 2
#     Edge 102, Type (0, 0), BuildingBlock: EZIPEK_clean_linker_0, # of connection points: 2
#     Edge 103, Type (0, 0), BuildingBlock: EZIPEK_clean_linker_0, # of connection points: 2
#     Edge 104, Type (0, 0), BuildingBlock: EZIPEK_clean_linker_0, # of connection points: 2
#     Edge 105, Type (0, 0), BuildingBlock: EZIPEK_clean_linker_0, # of connection points: 2
#     Edge 106, Type (0, 0), BuildingBlock: EZIPEK_clean_linker_0, # of connection points: 2
#     Edge 107, Type (0, 0), BuildingBlock: EZIPEK_clean_linker_0, # of connection points: 2
#     Edge 108, Type (0, 0), BuildingBlock: EZIPEK_clean_linker_0, # of connection points: 2
#     Edge 109, Type (0, 0), BuildingBlock: EZIPEK_clean_linker_0, # of connection points: 2
#     Edge 110, Type (0, 0), BuildingBlock: EZIPEK_clean_linker_0, # of connection points: 2
#     Edge 111, Type (0, 0), BuildingBlock: EZIPEK_clean_linker_0, # of connection points: 2
# Relax obj value: 0.405
# Max RMSD: 0.226
# Mean RMSD: 0.226
data_MOF--net-yfm--node1-XOMCOT_clean_sbu_0--edge1-EZIPEK_clean_linker_0
_symmetry_space_group_name_H-M    P1
_symmetry_Int_Tables_number       1
_symmetry_cell_setting            triclinic
loop_
_symmetry_equiv_pos_as_xyz
'x, y, z'
_cell_length_a     51.903232
_cell_length_b     52.835127
_cell_length_c     35.791014
_cell_angle_alpha  89.939251
_cell_angle_beta   89.677196
_cell_angle_gamma 90.063741
loop_
_atom_site_label
_atom_site_type_symbol
_atom_site_fract_x
_atom_site_fract_y
_atom_site_fract_z
_atom_type_partial_charge
Co0 Co 0.24595 0.11263 0.0763 0.0
C1 C 0.26436 0.08062 1.01301 0.0
C2 C 0.22837 0.09874 1.00161 0.0
C3 C 0.23814 0.08904 0.9686 0.0
N4 N 0.24495 0.09379 0.02951 0.0
N5 N 0.26088 0.07776 0.97575 0.0
H6 H 0.28181 0.07503 0.02695 0.0
H7 H 0.21159 0.11074 1.00436 0.0
C8 C 0.20943 0.07556 0.11327 0.0
O9 O 0.19184 0.08846 0.09515 0.0
N10 N 0.24837 0.13212 0.12188 0.0
C11 C 0.26989 0.14472 0.13161 0.0
C12 C 0.26843 0.15079 0.16857 0.0
C13 C 0.23328 0.13216 0.15276 0.0
N14 N 0.24561 0.14271 0.18224 0.0
C15 C 0.27201 0.15186 0.03406 0.0
C16 C 0.23159 0.18573 0.04156 0.0
C17 C 0.25568 0.19464 0.02953 0.0
C18 C 0.27578 0.17728 0.02436 0.0
C19 C 0.22867 0.16019 0.05102 0.0
N20 N 0.24902 0.144 0.04875 0.0
H21 H 0.28812 0.13904 0.03228 0.0
H22 H 0.2107 0.1537 0.06315 0.0
H23 H 0.28636 0.148 0.11363 0.0
H24 H 0.21426 0.12405 0.15378 0.0
O25 O 0.28413 0.1069 0.08056 0.0
O26 O 0.25696 0.08162 0.10409 0.0
O27 O 0.23362 0.08096 0.10726 0.0
C28 C 0.28095 0.08735 0.10036 0.0
H29 H 0.23007 0.09163 0.94104 0.0
H30 H 0.28342 0.15987 0.18469 0.0
H31 H 0.21575 0.19872 0.04608 0.0
H32 H 0.29464 0.18364 1.01525 0.0
Co33 Co 0.14881 0.97808 0.32952 0.0
C34 C 0.16494 1.00277 0.25739 0.0
C35 C 0.19 0.97244 0.27244 0.0
C36 C 0.1987 0.9832 0.23962 0.0
N37 N 0.16861 0.98454 0.28364 0.0
N38 N 0.18227 1.00163 0.2284 0.0
H39 H 0.15068 0.01729 0.26117 0.0
H40 H 0.19928 0.95733 0.28756 0.0
C41 C 0.19213 0.94862 0.36501 0.0
O42 O 0.18311 0.92971 0.34515 0.0
N43 N 0.12863 0.9727 0.37539 0.0
C44 C 0.1049 0.98245 0.38164 0.0
C45 C 0.1 0.9833 0.41931 0.0
C46 C 0.13741 0.96721 0.41006 0.0
N47 N 0.12085 0.97457 0.4372 0.0
C48 C 0.10289 0.99591 0.29088 0.0
C49 C 0.08046 0.94825 0.29067 0.0
C50 C 0.06478 0.96947 0.28485 0.0
C51 C 0.0765 0.99341 0.28312 0.0
C52 C 0.10666 0.95159 0.29874 0.0
N53 N 0.11712 0.97524 0.3009 0.0
H54 H 0.11098 0.01468 0.2928 0.0
H55 H 0.11808 0.93542 0.30691 0.0
H56 H 0.09303 0.99156 0.36113 0.0
H57 H 0.15649 0.96044 0.416 0.0
O58 O 0.14631 0.01557 0.33988 0.0
O59 O 0.17749 0.99338 0.35883 0.0
O60 O 0.18258 0.97114 0.35984 0.0
C61 C 0.16723 0.01549 0.35802 0.0
H62 H 0.21662 0.97817 0.22599 0.0
H63 H 0.08395 0.99288 0.43258 0.0
H64 H 0.07211 0.92948 0.29205 0.0
H65 H 0.06499 0.0102 0.27852 0.0
Co66 Co 0.2681 0.89372 0.59458 0.0
C67 C 0.25183 0.92117 0.52567 0.0
C68 C 0.29244 0.91409 0.52514 0.0
C69 C 0.2853 0.9233 0.49046 0.0
N70 N 0.27144 0.91272 0.5475 0.0
N71 N 0.25973 0.92768 0.4908 0.0
H72 H 0.23175 0.92072 0.53381 0.0
H73 H 0.31133 0.90713 0.5324 0.0
C74 C 0.32385 0.90476 0.62221 0.0
O75 O 0.34802 0.89857 0.61626 0.0
N76 N 0.26263 0.87392 0.64009 0.0
C77 C 0.24799 0.85273 0.6402 0.0
C78 C 0.2403 0.84714 0.67578 0.0
C79 C 0.26313 0.88117 0.67647 0.0
N80 N 0.24987 0.86482 0.69876 0.0
C81 C 0.24979 0.85645 0.54314 0.0
C82 C 0.28607 0.82004 0.56061 0.0
C83 C 0.26472 0.81323 0.53913 0.0
C84 C 0.247 0.83193 0.52896 0.0
C85 C 0.28835 0.84481 0.57377 0.0
N86 N 0.2698 0.8624 0.56616 0.0
H87 H 0.23475 0.8701 0.53815 0.0
H88 H 0.30379 0.84905 0.59282 0.0
H89 H 0.24095 0.84315 0.61578 0.0
H90 H 0.27103 0.89894 0.68604 0.0
O91 O 0.23144 0.89937 0.59483 0.0
O92 O 0.26053 0.92388 0.62111 0.0
O93 O 0.30681 0.89396 0.60155 0.0
C94 C 0.23635 0.91959 0.61425 0.0
H95 H 0.29765 0.92506 0.46611 0.0
H96 H 0.22748 0.83192 0.68405 0.0
H97 H 0.29998 0.80592 0.56912 0.0
H98 H 0.23016 0.82715 0.51268 0.0
Co99 Co 0.37422 0.00832 0.83232 0.0
C100 C 0.35688 0.9797 0.76376 0.0
C101 C 0.33521 0.01367 0.77325 0.0
C102 C 0.32413 1.00054 0.7441 0.0
N103 N 0.35553 1.00053 0.78614 0.0
N104 N 0.33772 0.97917 0.73781 0.0
H105 H 0.37096 0.9648 0.76725 0.0
H106 H 0.32814 0.0311 0.78529 0.0
C107 C 0.33608 0.04459 0.8652 0.0
O108 O 0.3513 0.06162 0.84989 0.0
N109 N 0.39248 0.01631 0.87844 0.0
C110 C 0.41363 0.03102 0.88174 0.0
C111 C 0.42142 0.03105 0.91861 0.0
C112 C 0.38723 0.00838 0.91369 0.0
N113 N 0.4047 0.01685 0.93853 0.0
C114 C 0.42513 0.98877 0.82126 0.0
C115 C 0.43834 0.02159 0.76397 0.0
C116 C 0.45775 0.007 0.78076 0.0
C117 C 0.45075 0.98999 0.80909 0.0
C118 C 0.41303 0.02038 0.77782 0.0
N119 N 0.40694 1.00453 0.8066 0.0
H120 H 0.42034 0.97657 0.84454 0.0
H121 H 0.39852 0.03297 0.76677 0.0
H122 H 0.42314 0.0406 0.85877 0.0
H123 H 0.3711 0.99658 0.92147 0.0
O124 O 0.37216 0.97155 0.84675 0.0
O125 O 0.34286 0.99803 0.86096 0.0
O126 O 0.34069 0.02074 0.8592 0.0
C127 C 0.35054 0.97492 0.86236 0.0
H128 H 0.30708 0.00612 0.72888 0.0
H129 H 0.43824 0.0404 0.92985 0.0
H130 H 0.44303 0.03483 0.74184 0.0
H131 H 0.46516 0.97842 0.82266 0.0
Co132 Co 0.23613 0.89697 0.96224 0.0
C133 C 0.25751 0.9174 0.03251 0.0
C134 C 0.22167 0.93535 0.01942 0.0
C135 C 0.2321 0.947 0.05061 0.0
N136 N 0.23772 0.91682 1.00801 0.0
N137 N 0.25458 0.93552 0.0588 0.0
H138 H 0.27458 0.90587 0.03017 0.0
H139 H 0.20421 0.9408 1.00519 0.0
C140 C 0.20514 0.93694 0.92218 0.0
O141 O 0.18629 0.92152 0.93153 0.0
N142 N 0.23633 0.87664 0.91705 0.0
C143 C 0.2559 0.8607 0.90955 0.0
C144 C 0.25588 0.85501 0.87247 0.0
C145 C 0.22349 0.87907 0.88433 0.0
N146 N 0.23577 0.86668 0.85606 0.0
C147 C 0.25657 0.85545 1.00585 0.0
C148 C 0.21322 0.82573 0.99567 0.0
C149 C 0.23602 0.81442 1.00811 0.0
C150 C 0.25748 0.82974 1.01494 0.0
C151 C 0.21301 0.85163 0.98738 0.0
N152 N 0.23486 0.86578 0.99072 0.0
H153 H 0.27412 0.86624 1.00788 0.0
H154 H 0.19612 0.85993 0.97473 0.0
H155 H 0.27068 0.85523 0.92908 0.0
H156 H 0.2064 0.89045 0.88104 0.0
O157 O 0.27492 0.89797 0.95869 0.0
O158 O 0.25135 0.92574 0.93377 0.0
O159 O 0.22845 0.93 0.93092 0.0
C160 C 0.27444 0.91773 0.93895 0.0
H161 H 0.2243 0.96321 0.06527 0.0
H162 H 0.27054 0.8441 0.85809 0.0
H163 H 0.19637 0.81432 0.98982 0.0
H164 H 0.27545 0.82148 0.0242 0.0
Co165 Co 0.37594 0.98892 0.2012 0.0
C166 C 0.35318 0.01526 0.26871 0.0
C167 C 0.34845 0.97492 0.27058 0.0
C168 C 0.33648 0.98535 0.30161 0.0
N169 N 0.35886 0.9936 0.24975 0.0
N170 N 0.3392 0.01072 0.30024 0.0
H171 H 0.35835 0.03403 0.2592 0.0
H172 H 0.34899 0.95508 0.26322 0.0
C173 C 0.33499 0.95586 0.1661 0.0
O174 O 0.35052 0.9371 0.17438 0.0
N175 N 0.3931 0.9841 0.15296 0.0
C176 C 0.41373 0.96913 0.14677 0.0
C177 C 0.4215 0.97152 0.11007 0.0
C178 C 0.38822 0.9949 0.11932 0.0
N179 N 0.40524 0.98747 0.09273 0.0
C180 C 0.42614 0.00936 0.21718 0.0
C181 C 0.44469 0.96507 0.24854 0.0
C182 C 0.46223 0.98414 0.23832 0.0
C183 C 0.45254 0.00686 0.22388 0.0
C184 C 0.41827 0.96847 0.2418 0.0
N185 N 0.40953 0.98994 0.22485 0.0
H186 H 0.41957 0.02614 0.20296 0.0
H187 H 0.40505 0.953 0.24695 0.0
H188 H 0.42271 0.95724 0.16748 0.0
H189 H 0.37238 0.00757 0.11382 0.0
O190 O 0.37408 0.02649 0.19182 0.0
O191 O 0.34401 1.00138 0.1765 0.0
O192 O 0.34115 0.97884 0.17569 0.0
C193 C 0.35206 0.02437 0.17731 0.0
H194 H 0.32588 0.97515 0.32298 0.0
H195 H 0.43764 0.96203 0.09692 0.0
H196 H 0.45151 0.9472 0.25953 0.0
H197 H 0.46552 0.02193 0.21551 0.0
Co198 Co 0.26023 0.12103 0.44533 0.0
C199 C 0.24055 0.09741 0.51479 0.0
C200 C 0.28175 0.09963 0.51553 0.0
C201 C 0.27297 0.09209 0.55059 0.0
N202 N 0.26135 0.10282 0.49289 0.0
N203 N 0.24699 0.09066 0.54993 0.0
H204 H 0.22077 0.09969 0.5062 0.0
H205 H 0.30143 0.10406 0.50791 0.0
C206 C 0.29611 0.08708 0.40073 0.0
O207 O 0.31205 0.10605 0.4062 0.0
N208 N 0.25583 0.14041 0.39935 0.0
C209 C 0.23825 0.15926 0.39742 0.0
C210 C 0.23333 0.16505 0.36101 0.0
C211 C 0.26147 0.13513 0.36316 0.0
N212 N 0.24777 0.14989 0.33945 0.0
C213 C 0.23808 0.16107 0.49148 0.0
C214 C 0.28027 0.19243 0.47966 0.0
C215 C 0.25792 0.2025 0.49576 0.0
C216 C 0.23697 0.18639 0.5032 0.0
C217 C 0.28058 0.16719 0.46856 0.0
N218 N 0.25929 0.15239 0.47278 0.0
H219 H 0.22131 0.14911 0.49477 0.0
H220 H 0.2972 0.1598 0.45385 0.0
H221 H 0.22745 0.16674 0.42068 0.0
H222 H 0.27378 0.11992 0.35399 0.0
O223 O 0.22197 0.11485 0.44297 0.0
O224 O 0.2498 0.08961 0.41974 0.0
O225 O 0.27281 0.08884 0.41471 0.0
C226 C 0.22581 0.09446 0.42515 0.0
H227 H 0.28469 0.08898 0.5751 0.0
H228 H 0.21896 0.17821 0.35095 0.0
H229 H 0.29673 0.20441 0.4736 0.0
H230 H 0.21941 0.19372 0.51556 0.0
Co231 Co 0.14917 0.01827 0.69812 0.0
C232 C 0.16541 1.00126 0.77405 0.0
C233 C 0.17569 0.0401 0.76492 0.0
C234 C 0.18454 0.03268 0.79971 0.0
N235 N 0.16379 0.02032 0.74856 0.0
N236 N 0.17822 0.00819 0.8052 0.0
H237 H 0.15794 0.98237 0.76992 0.0
H238 H 0.17827 0.05855 0.75238 0.0
C239 C 0.16585 0.063 0.65186 0.0
O240 O 0.14562 0.06171 0.63013 0.0
N241 N 0.13392 0.01425 0.64857 0.0
C242 C 0.10848 0.01157 0.64146 0.0
C243 C 0.10517 0.00479 0.60483 0.0
C244 C 0.14577 0.00825 0.61581 0.0
N245 N 0.12851 1.00268 0.58883 0.0
C246 C 0.10083 0.01541 0.73651 0.0
C247 C 0.08195 0.06195 0.71423 0.0
C248 C 0.06482 0.04426 0.72997 0.0
C249 C 0.0748 0.02117 0.74257 0.0
C250 C 0.10781 0.05522 0.70795 0.0
N251 N 0.11659 0.03168 0.71739 0.0
H252 H 0.10784 0.99702 0.7448 0.0
H253 H 0.12015 0.06844 0.69352 0.0
H254 H 0.0931 0.01315 0.66163 0.0
H255 H 0.16645 0.00749 0.61191 0.0
O256 O 0.14391 0.9818 0.70488 0.0
O257 O 0.17868 1.00075 0.68202 0.0
O258 O 0.16502 0.05266 0.6844 0.0
C259 C 0.16726 0.97996 0.69137 0.0
H260 H 0.19536 0.04419 0.81911 0.0
H261 H 0.08703 1.00102 0.59109 0.0
H262 H 0.075 0.08013 0.70463 0.0
H263 H 0.06227 0.00719 0.75539 0.0
Co264 Co 0.77047 0.89007 0.95396 0.0
C265 C 0.74727 0.91809 0.01709 0.0
C266 C 0.78846 0.91688 0.02174 0.0
C267 C 0.77827 0.92768 0.05389 0.0
N268 N 0.76898 0.91094 0.99862 0.0
N269 N 0.75236 0.92821 0.05083 0.0
H270 H 0.72793 0.91509 1.00701 0.0
H271 H 0.80852 0.91267 1.01634 0.0
C272 C 0.81093 0.92494 0.9163 0.0
O273 O 0.82839 0.91117 0.93321 0.0
N274 N 0.7693 0.8687 0.90993 0.0
C275 C 0.75001 0.85193 0.90482 0.0
C276 C 0.74829 0.84603 0.86778 0.0
C277 C 0.77953 0.87226 0.87548 0.0
N278 N 0.76682 0.85873 0.84919 0.0
C279 C 0.7416 0.85471 1.00054 0.0
C280 C 0.77953 0.81796 0.99514 0.0
C281 C 0.7551 0.81114 1.00853 0.0
C282 C 0.73639 0.83007 1.01321 0.0
C283 C 0.78406 0.84279 0.98352 0.0
N284 N 0.76482 0.86027 0.98434 0.0
H285 H 0.72638 0.86862 1.0011 0.0
H286 H 0.80232 0.8476 0.97059 0.0
H287 H 0.73612 0.84644 0.92585 0.0
H288 H 0.79437 0.88586 0.86918 0.0
O289 O 0.7329 0.89763 0.94403 0.0
O290 O 0.76373 0.91978 0.92231 0.0
O291 O 0.78649 0.92028 0.92219 0.0
C292 C 0.73926 0.91621 0.92354 0.0
H293 H 0.78895 0.93405 0.07801 0.0
H294 H 0.73361 0.83434 0.85505 0.0
H295 H 0.79443 0.80383 0.9914 0.0
H296 H 0.71735 0.82537 0.02361 0.0
Co297 Co 0.86839 0.02299 0.70323 0.0
C298 C 0.85557 1.00368 0.77952 0.0
C299 C 0.8286 0.03165 0.76138 0.0
C300 C 0.81852 0.01936 0.79233 0.0
N301 N 0.85183 0.02173 0.75282 0.0
N302 N 0.83539 1.00159 0.80373 0.0
H303 H 0.87153 0.99057 0.77928 0.0
H304 H 0.81849 0.04534 0.74453 0.0
C305 C 0.85265 0.06985 0.6606 0.0
O306 O 0.87476 0.07148 0.64274 0.0
N307 N 0.88458 0.02207 0.65407 0.0
C308 C 0.90969 0.01749 0.64672 0.0
C309 C 0.91295 0.0141 0.60891 0.0
C310 C 0.87274 0.02031 0.62053 0.0
N311 N 0.88976 0.01602 0.59267 0.0
C312 C 0.91622 0.01959 0.74201 0.0
C313 C 0.93564 0.06613 0.72052 0.0
C314 C 0.95269 0.04779 0.73436 0.0
C315 C 0.94243 0.02481 0.74691 0.0
C316 C 0.90939 0.06014 0.71615 0.0
N317 N 0.9003 0.0365 0.72468 0.0
H318 H 0.90941 1.0009 0.74901 0.0
H319 H 0.89695 0.07404 0.70375 0.0
H320 H 0.92447 0.01509 0.66741 0.0
H321 H 0.85211 0.02145 0.61664 0.0
O322 O 0.87529 0.98665 0.70685 0.0
O323 O 0.84046 0.00478 0.68392 0.0
O324 O 0.8515 0.0574 0.69162 0.0
C325 C 0.85279 0.98416 0.69135 0.0
H326 H 0.79952 0.02224 0.80424 0.0
H327 H 0.93075 0.00946 0.59457 0.0
H328 H 0.94283 0.0843 0.71108 0.0
H329 H 0.95492 0.01027 0.75808 0.0
Co330 Co 0.7621 0.12969 0.44735 0.0
C331 C 0.78312 0.10511 0.51515 0.0
C332 C 0.74182 0.10425 0.51546 0.0
C333 C 0.75067 0.09588 0.54984 0.0
N334 N 0.76219 0.10997 0.49357 0.0
N335 N 0.77669 0.09645 0.54961 0.0
H336 H 0.80274 0.10929 0.50691 0.0
H337 H 0.72194 0.1074 0.50787 0.0
C338 C 0.7227 0.09678 0.41154 0.0
O339 O 0.70692 0.11215 0.42917 0.0
N340 N 0.76485 0.15009 0.40154 0.0
C341 C 0.78072 0.17034 0.39853 0.0
C342 C 0.78548 0.1757 0.3618 0.0
C343 C 0.76037 0.14343 0.36539 0.0
N344 N 0.77276 0.15889 0.34075 0.0
C345 C 0.78438 0.17233 0.48924 0.0
C346 C 0.73623 0.19513 0.49356 0.0
C347 C 0.75817 0.20971 0.5003 0.0
C348 C 0.78246 0.19785 0.50012 0.0
C349 C 0.73911 0.17027 0.48165 0.0
N350 N 0.76292 0.15997 0.47711 0.0
H351 H 0.80312 0.16362 0.4863 0.0
H352 H 0.72236 0.15975 0.47267 0.0
H353 H 0.7907 0.17942 0.42098 0.0
H354 H 0.75031 0.12646 0.35709 0.0
O355 O 0.80023 0.12244 0.44094 0.0
O356 O 0.77061 0.09946 0.41815 0.0
O357 O 0.74742 0.09927 0.41659 0.0
C358 C 0.79499 0.10292 0.42155 0.0
H359 H 0.73887 0.09072 0.5737 0.0
H360 H 0.7986 0.19001 0.35126 0.0
H361 H 0.71726 0.20368 0.49355 0.0
H362 H 0.79979 0.2087 0.5053 0.0
Co363 Co 0.65351 0.01269 0.19162 0.0
C364 C 0.66895 0.0252 0.27094 0.0
C365 C 0.70054 0.01333 0.23658 0.0
C366 C 0.7102 0.02379 0.26884 0.0
N367 N 0.67459 0.01459 0.23715 0.0
N368 N 0.69044 0.03162 0.29048 0.0
H369 H 0.64971 0.02934 0.28046 0.0
H370 H 0.71194 0.00729 0.21293 0.0
C371 C 0.67154 0.96618 0.14772 0.0
O372 O 0.64942 0.96279 0.13082 0.0
N373 N 0.63263 0.01258 0.1465 0.0
C374 C 0.60829 0.0215 0.14507 0.0
C375 C 0.6017 0.02583 0.10852 0.0
C376 C 0.64057 0.01203 0.11038 0.0
N377 N 0.62189 0.01961 0.08664 0.0
C378 C 0.60921 0.0122 0.23877 0.0
C379 C 0.59121 0.96513 0.21801 0.0
C380 C 0.57407 0.98235 0.23478 0.0
C381 C 0.5838 0.00552 0.24704 0.0
C382 C 0.61672 0.97262 0.21018 0.0
N383 N 0.625 0.9965 0.21869 0.0
H384 H 0.61499 0.03132 0.24492 0.0
H385 H 0.62896 0.95988 0.19479 0.0
H386 H 0.59659 0.02635 0.16901 0.0
H387 H 0.65997 0.00726 0.10166 0.0
O388 O 0.64364 0.04819 0.19816 0.0
O389 O 0.67756 0.03406 0.1667 0.0
O390 O 0.67261 0.97981 0.17748 0.0
C391 C 0.66376 0.05299 0.17754 0.0
H392 H 0.73038 0.02678 0.27501 0.0
H393 H 0.58356 0.03334 0.09867 0.0
H394 H 0.5844 0.94686 0.20852 0.0
H395 H 0.57123 0.01928 0.26019 0.0
Co396 Co 0.77633 0.12177 0.07773 0.0
C397 C 0.75375 0.09658 1.01021 0.0
C398 C 0.79181 0.08308 0.02198 0.0
C399 C 0.78275 0.07071 0.99064 0.0
N400 N 0.77361 0.09922 0.03453 0.0
N401 N 0.75886 0.07922 0.98327 0.0
H402 H 0.73598 0.10716 1.01189 0.0
H403 H 0.8105 0.08048 0.03446 0.0
C404 C 0.80576 0.08364 0.11848 0.0
O405 O 0.82449 0.09464 0.09971 0.0
N406 N 0.77798 0.14478 0.12035 0.0
C407 C 0.75981 0.16241 0.12696 0.0
C408 C 0.76054 0.16921 0.16385 0.0
C409 C 0.79069 0.14244 0.15319 0.0
N410 N 0.7796 0.1563 0.18096 0.0
C411 C 0.76001 0.16227 0.02879 0.0
C412 C 0.80669 0.18737 0.03554 0.0
C413 C 0.7852 0.20061 0.02248 0.0
C414 C 0.762 0.18751 0.01715 0.0
C415 C 0.80391 0.16217 0.0466 0.0
N416 N 0.78049 0.15059 0.04521 0.0
H417 H 0.74149 0.153 0.02757 0.0
H418 H 0.8198 0.15266 0.06008 0.0
H419 H 0.7452 0.16813 0.10728 0.0
H420 H 0.80641 0.12965 0.15724 0.0
O421 O 0.73778 0.1239 0.08113 0.0
O422 O 0.75859 0.09592 0.11061 0.0
O423 O 0.78222 0.09109 0.11286 0.0
C424 C 0.73631 0.10569 0.10391 0.0
H425 H 0.79293 0.05659 0.97439 0.0
H426 H 0.74673 0.18137 0.17775 0.0
H427 H 0.82479 0.19705 0.04021 0.0
H428 H 0.74503 0.19732 1.00729 0.0
Co429 Co 0.65324 0.01633 0.81967 0.0
C430 C 0.66986 1.0015 0.74434 0.0
C431 C 0.68675 0.03715 0.75909 0.0
C432 C 0.69845 0.02828 0.72666 0.0
N433 N 0.66889 0.02021 0.77031 0.0
N434 N 0.68791 0.00571 0.7177 0.0
H435 H 0.65938 0.98386 0.74681 0.0
H436 H 0.69261 0.0535 0.77513 0.0
C437 C 0.68875 0.04956 0.8651 0.0
O438 O 0.67066 0.06657 0.86003 0.0
N439 N 0.63753 0.01004 0.86835 0.0
C440 C 0.63319 0.98676 0.88263 0.0
C441 C 0.62704 0.98884 0.91961 0.0
C442 C 0.63244 0.02615 0.89689 0.0
N443 N 0.62671 0.0135 0.92896 0.0
C444 C 0.60768 0.99267 0.78763 0.0
C445 C 0.58061 0.03762 0.78525 0.0
C446 C 0.56791 0.01562 0.77219 0.0
C447 C 0.58196 0.99271 0.77558 0.0
C448 C 0.6063 0.03681 0.79661 0.0
N449 N 0.6195 0.01469 0.79737 0.0
H450 H 0.61768 0.97486 0.79033 0.0
H451 H 0.6155 0.05386 0.80666 0.0
H452 H 0.63507 0.96906 0.86785 0.0
H453 H 0.633 0.0465 0.89426 0.0
O454 O 0.66172 0.97925 0.81616 0.0
O455 O 0.68745 0.00607 0.83847 0.0
O456 O 0.68687 0.02786 0.84785 0.0
C457 C 0.68382 0.98269 0.83004 0.0
H458 H 0.71505 0.03655 0.71285 0.0
H459 H 0.62352 0.97325 0.93866 0.0
H460 H 0.57107 0.05549 0.78891 0.0
H461 H 0.57315 0.9745 0.77079 0.0
Co462 Co 0.76307 0.88678 0.58367 0.0
C463 C 0.78212 0.91082 0.51464 0.0
C464 C 0.74093 0.90767 0.51424 0.0
C465 C 0.74932 0.91521 0.47909 0.0
N466 N 0.76155 0.90499 0.53658 0.0
N467 N 0.77526 0.91708 0.47954 0.0
H468 H 0.80198 0.90887 0.52305 0.0
H469 H 0.7214 0.9028 0.52215 0.0
C470 C 0.72542 0.92395 0.62281 0.0
O471 O 0.70714 0.90841 0.61208 0.0
N472 N 0.76742 0.86764 0.6296 0.0
C473 C 0.78745 0.8516 0.63413 0.0
C474 C 0.78968 0.84528 0.67098 0.0
C475 C 0.75744 0.8706 0.66431 0.0
N476 N 0.77102 0.85732 0.68996 0.0
C477 C 0.78869 0.84722 0.54096 0.0
C478 C 0.74664 0.81501 0.54708 0.0
C479 C 0.77029 0.8053 0.53485 0.0
C480 C 0.79128 0.82182 0.53032 0.0
C481 C 0.74499 0.84031 0.55772 0.0
N482 N 0.76612 0.85555 0.55632 0.0
H483 H 0.80529 0.85956 0.53965 0.0
H484 H 0.7273 0.84741 0.5699 0.0
H485 H 0.80109 0.8464 0.61264 0.0
H486 H 0.74132 0.88269 0.67098 0.0
O487 O 0.80119 0.89484 0.5874 0.0
O488 O 0.77194 0.91793 0.61005 0.0
O489 O 0.74933 0.91894 0.61361 0.0
C490 C 0.79631 0.91484 0.60558 0.0
H491 H 0.73745 0.91796 0.45465 0.0
H492 H 0.80477 0.83395 0.68336 0.0
H493 H 0.73014 0.80268 0.55099 0.0
H494 H 0.80981 0.81477 0.521 0.0
Co495 Co 0.86803 0.98998 0.32813 0.0
C496 C 0.85219 0.00745 0.25266 0.0
C497 C 0.82824 0.97729 0.27244 0.0
C498 C 0.81642 0.98849 0.24226 0.0
N499 N 0.85048 0.98953 0.27979 0.0
N500 N 0.83144 0.00753 0.2297 0.0
H501 H 0.86704 0.0218 0.25174 0.0
H502 H 0.81998 0.96238 0.28926 0.0
C503 C 0.85342 0.94343 0.37187 0.0
O504 O 0.87508 0.94238 0.39055 0.0
N505 N 0.88498 0.99193 0.37636 0.0
C506 C 0.9101 0.99694 0.3827 0.0
C507 C 0.9136 1.00087 0.42035 0.0
C508 C 0.87341 0.99383 0.41025 0.0
N509 N 0.89054 0.99879 0.43738 0.0
C510 C 0.91444 0.99498 0.28564 0.0
C511 C 0.93658 0.94962 0.30644 0.0
C512 C 0.95222 0.96831 0.2899 0.0
C513 C 0.94054 0.99072 0.27799 0.0
C514 C 0.91042 0.95469 0.31377 0.0
N515 N 0.89998 0.9777 0.30505 0.0
H516 H 0.90653 0.01321 0.27865 0.0
H517 H 0.89921 0.94074 0.32861 0.0
H518 H 0.92475 0.99901 0.36143 0.0
H519 H 0.85286 0.99215 0.41493 0.0
O520 O 0.87327 0.02664 0.32348 0.0
O521 O 0.83976 0.00749 0.34876 0.0
O522 O 0.85294 0.95503 0.34029 0.0
C523 C 0.85106 0.02855 0.34033 0.0
H524 H 0.7975 0.98387 0.23162 0.0
H525 H 0.93146 0.00576 0.43406 0.0
H526 H 0.9449 0.93192 0.31572 0.0
H527 H 0.9519 0.00554 0.26495 0.0
Co528 Co 0.76033 0.61456 0.58492 0.0
C529 C 0.78243 0.59188 0.51689 0.0
C530 C 0.74219 0.58299 0.52138 0.0
C531 C 0.75201 0.572 0.48913 0.0
N532 N 0.76141 0.59531 0.53882 0.0
N533 N 0.77734 0.57764 0.48663 0.0
H534 H 0.80125 0.59955 0.52273 0.0
H535 H 0.72254 0.5819 0.53141 0.0
C536 C 0.72267 0.57817 0.62071 0.0
O537 O 0.70539 0.59164 0.6029 0.0
N538 N 0.76124 0.63436 0.63039 0.0
C539 C 0.78203 0.64796 0.64051 0.0
C540 C 0.77973 0.6544 0.67734 0.0
C541 C 0.74585 0.63385 0.66098 0.0
N542 N 0.75716 0.64534 0.69053 0.0
C543 C 0.78665 0.65418 0.54346 0.0
C544 C 0.74464 0.68642 0.54737 0.0
C545 C 0.7686 0.69607 0.5362 0.0
C546 C 0.78953 0.67949 0.53261 0.0
C547 C 0.74252 0.66098 0.55746 0.0
N548 N 0.76358 0.64564 0.557 0.0
H549 H 0.80339 0.64209 0.54338 0.0
H550 H 0.7245 0.6539 0.56869 0.0
H551 H 0.79863 0.65164 0.62296 0.0
H552 H 0.72748 0.62447 0.66202 0.0
O553 O 0.79846 0.6088 0.59143 0.0
O554 O 0.7704 0.58366 0.61353 0.0
O555 O 0.74705 0.58309 0.61536 0.0
C556 C 0.79454 0.58888 0.61017 0.0
H557 H 0.74154 0.56038 0.46947 0.0
H558 H 0.79403 0.66429 0.69374 0.0
H559 H 0.72815 0.69881 0.55053 0.0
H560 H 0.80831 0.68649 0.52421 0.0
Co561 Co 0.65006 0.48393 0.82467 0.0
C562 C 0.67081 0.50168 0.75205 0.0
C563 C 0.69447 0.4724 0.77483 0.0
C564 C 0.70752 0.48367 0.74539 0.0
N565 N 0.67152 0.48395 0.77953 0.0
N566 N 0.69265 0.50216 0.73102 0.0
H567 H 0.65568 0.51559 0.74951 0.0
H568 H 0.70222 0.4581 0.79312 0.0
C569 C 0.68804 0.45289 0.8673 0.0
O570 O 0.67584 0.43426 0.85072 0.0
N571 N 0.62866 0.48619 0.8694 0.0
C572 C 0.60882 0.50259 0.87266 0.0
C573 C 0.60332 0.50649 0.9096 0.0
C574 C 0.63475 0.48022 0.90515 0.0
N575 N 0.61975 0.49267 0.93003 0.0
C576 C 0.60628 0.50178 0.78103 0.0
C577 C 0.58044 0.45614 0.78918 0.0
C578 C 0.56636 0.47776 0.77939 0.0
C579 C 0.57978 0.50051 0.77346 0.0
C580 C 0.60677 0.45832 0.79695 0.0
N581 N 0.61891 0.48118 0.795 0.0
H582 H 0.61568 0.52 0.77984 0.0
H583 H 0.61693 0.44222 0.80835 0.0
H584 H 0.60056 0.5134 0.85022 0.0
H585 H 0.65119 0.46915 0.91325 0.0
O586 O 0.65212 0.52198 0.82503 0.0
O587 O 0.67918 0.49863 0.85311 0.0
O588 O 0.68207 0.4761 0.85839 0.0
C589 C 0.67188 0.52135 0.84557 0.0
H590 H 0.72704 0.47952 0.73653 0.0
H591 H 0.58946 0.51983 0.92077 0.0
H592 H 0.57072 0.43828 0.79405 0.0
H593 H 0.56949 0.51757 0.76593 0.0
Co594 Co 0.78266 0.38968 0.08075 0.0
C595 C 0.75787 0.42146 0.02097 0.0
C596 C 0.79679 0.41088 1.00858 0.0
C597 C 0.78585 0.42058 0.97662 0.0
N598 N 0.77921 0.41096 0.03641 0.0
N599 N 0.76128 0.42713 0.98423 0.0
H600 H 0.73969 0.42341 0.03524 0.0
H601 H 0.81559 0.40217 1.01048 0.0
C602 C 0.81003 0.43168 0.11722 0.0
O603 O 0.82666 0.42765 0.09007 0.0
N604 N 0.78628 0.36793 0.12389 0.0
C605 C 0.77089 0.34808 0.13164 0.0
C606 C 0.77409 0.3415 0.16841 0.0
C607 C 0.79949 0.37241 0.15563 0.0
N608 N 0.79152 0.35726 0.18391 0.0
C609 C 0.76586 0.34963 0.03197 0.0
C610 C 0.81127 0.32257 0.03906 0.0
C611 C 0.78925 0.31035 0.02548 0.0
C612 C 0.76673 0.32443 0.02017 0.0
C613 C 0.80948 0.34773 0.05087 0.0
N614 N 0.7866 0.36029 0.04917 0.0
H615 H 0.74789 0.35976 0.03005 0.0
H616 H 0.82568 0.35647 0.06473 0.0
H617 H 0.75658 0.34045 0.11293 0.0
H618 H 0.81335 0.3874 0.15863 0.0
O619 O 0.74417 0.38604 0.08531 0.0
O620 O 0.76404 0.41537 0.11302 0.0
O621 O 0.78762 0.42077 0.11536 0.0
C622 C 0.7421 0.40481 0.10679 0.0
H623 H 0.79477 0.42134 0.94922 0.0
H624 H 0.76265 0.32771 0.1836 0.0
H625 H 0.82891 0.31211 0.04366 0.0
H626 H 0.74943 0.31549 1.00969 0.0
Co627 Co 0.88454 0.49938 0.34858 0.0
C628 C 0.85616 0.47875 0.28113 0.0
C629 C 0.86072 0.51905 0.28027 0.0
C630 C 0.84867 0.51175 0.24776 0.0
N631 N 0.86569 0.49842 0.30125 0.0
N632 N 0.84583 0.48642 0.24821 0.0
H633 H 0.85713 0.45926 0.28969 0.0
H634 H 0.86612 0.53817 0.28769 0.0
C635 C 0.861 0.543 0.39369 0.0
O636 O 0.88234 0.54751 0.41194 0.0
N637 N 0.90371 0.50021 0.39526 0.0
C638 C 0.92933 0.49768 0.39717 0.0
C639 C 0.93644 0.49641 0.43385 0.0
C640 C 0.89554 0.49907 0.43127 0.0
N641 N 0.91536 0.49886 0.45617 0.0
C642 C 0.92636 0.50771 0.29901 0.0
C643 C 0.94505 0.55129 0.33173 0.0
C644 C 0.96188 0.5365 0.30997 0.0
C645 C 0.95172 0.51536 0.29167 0.0
C646 C 0.91977 0.54273 0.33876 0.0
N647 N 0.91145 0.5201 0.32473 0.0
H648 H 0.9196 0.49025 0.2868 0.0
H649 H 0.90791 0.55337 0.35761 0.0
H650 H 0.94184 0.49466 0.37339 0.0
H651 H 0.87546 0.49719 0.43869 0.0
O652 O 0.90003 0.4662 0.33956 0.0
O653 O 0.86313 0.4732 0.36915 0.0
O654 O 0.86105 0.52872 0.36463 0.0
C655 C 0.88074 0.45725 0.35876 0.0
H656 H 0.84303 0.52403 0.22499 0.0
H657 H 0.95571 0.49157 0.44217 0.0
H658 H 0.952 0.56816 0.34557 0.0
H659 H 0.96387 0.50377 0.2739 0.0
Co660 Co 0.77826 0.39403 0.44387 0.0
C661 C 0.79759 0.42117 0.5122 0.0
C662 C 0.75666 0.42318 0.50585 0.0
C663 C 0.76293 0.43297 0.54025 0.0
N664 N 0.77832 0.41561 0.48813 0.0
N665 N 0.78867 0.43167 0.54435 0.0
H666 H 0.81744 0.41616 0.50769 0.0
H667 H 0.73733 0.42012 0.49566 0.0
C668 C 0.7314 0.41051 0.39742 0.0
O669 O 0.72775 0.38784 0.38353 0.0
N670 N 0.77808 0.37181 0.40074 0.0
C671 C 0.78229 0.34679 0.40179 0.0
C672 C 0.78335 0.33772 0.36595 0.0
C673 C 0.77807 0.37771 0.36409 0.0
N674 N 0.77924 0.35698 0.34161 0.0
C675 C 0.77393 0.35632 0.49865 0.0
C676 C 0.72993 0.33342 0.47206 0.0
C677 C 0.74764 0.31894 0.49258 0.0
C678 C 0.76874 0.3313 0.50838 0.0
C679 C 0.73637 0.35837 0.46193 0.0
N680 N 0.7594 0.36854 0.47258 0.0
H681 H 0.79155 0.36474 0.50854 0.0
H682 H 0.72388 0.36844 0.44336 0.0
H683 H 0.7865 0.33617 0.42681 0.0
H684 H 0.77876 0.39701 0.35444 0.0
O685 O 0.81322 0.38176 0.4536 0.0
O686 O 0.80338 0.41506 0.4191 0.0
O687 O 0.74673 0.41387 0.4251 0.0
C688 C 0.8209 0.39972 0.43137 0.0
H689 H 0.74951 0.4394 0.56147 0.0
H690 H 0.78922 0.31869 0.35935 0.0
H691 H 0.7128 0.32471 0.46063 0.0
H692 H 0.78239 0.32106 0.52548 0.0
Co693 Co 0.88156 0.48791 0.72047 0.0
C694 C 0.86016 0.51303 0.78854 0.0
C695 C 0.8372 0.48108 0.77281 0.0
C696 C 0.8246 0.49408 0.80106 0.0
N697 N 0.85943 0.49311 0.76447 0.0
N698 N 0.83896 0.51429 0.81092 0.0
H699 H 0.87505 0.52734 0.7882 0.0
H700 H 0.82975 0.46487 0.75805 0.0
C701 C 0.84256 0.45452 0.68214 0.0
O702 O 0.85079 0.43674 0.7048 0.0
N703 N 0.90375 0.48474 0.67647 0.0
C704 C 0.92405 0.5002 0.67025 0.0
C705 C 0.92974 0.5007 0.6329 0.0
C706 C 0.8978 0.47559 0.64208 0.0
N707 N 0.91291 0.48572 0.61498 0.0
C708 C 0.92443 0.50946 0.76168 0.0
C709 C 0.94948 0.46322 0.76552 0.0
C710 C 0.96362 0.48549 0.77099 0.0
C711 C 0.95059 0.50872 0.77103 0.0
C712 C 0.92347 0.46483 0.75581 0.0
N713 N 0.91186 0.48777 0.75175 0.0
H714 H 0.91535 0.52766 0.75821 0.0
H715 H 0.91327 0.44788 0.7476 0.0
H716 H 0.93235 0.51286 0.69043 0.0
H717 H 0.88146 0.46371 0.63617 0.0
O718 O 0.88068 0.5256 0.71107 0.0
O719 O 0.85332 0.50011 0.68791 0.0
O720 O 0.85021 0.47773 0.68727 0.0
C721 C 0.8611 0.52308 0.69047 0.0
H722 H 0.80584 0.48952 0.81263 0.0
H723 H 0.94376 0.51291 0.61944 0.0
H724 H 0.95902 0.445 0.76517 0.0
H725 H 0.96103 0.52626 0.77506 0.0
Co726 Co 0.762 0.62314 0.95313 0.0
C727 C 0.74181 0.59549 0.01869 0.0
C728 C 0.78304 0.59809 0.02051 0.0
C729 C 0.77418 0.58779 0.05386 0.0
N730 N 0.76268 0.60285 0.99843 0.0
N731 N 0.74824 0.58625 0.05254 0.0
H732 H 0.72207 0.5981 1.01002 0.0
H733 H 0.80275 0.603 1.0137 0.0
C734 C 0.80337 0.59083 0.91657 0.0
O735 O 0.81939 0.60657 0.93277 0.0
N736 N 0.75875 0.64387 0.90838 0.0
C737 C 0.74134 0.66279 0.90548 0.0
C738 C 0.73759 0.66867 0.86871 0.0
C739 C 0.76512 0.63836 0.87256 0.0
N740 N 0.75248 0.65333 0.84803 0.0
C741 C 0.73379 0.65987 0.99874 0.0
C742 C 0.77444 0.69401 0.99611 0.0
C743 C 0.75028 0.7024 1.00829 0.0
C744 C 0.73001 0.68482 1.01126 0.0
C745 C 0.77734 0.66915 0.98383 0.0
N746 N 0.75688 0.65303 0.98331 0.0
H747 H 0.71771 0.64686 0.99845 0.0
H748 H 0.79549 0.66322 0.97169 0.0
H749 H 0.72971 0.67004 0.92796 0.0
H750 H 0.77651 0.62224 0.86421 0.0
O751 O 0.72463 0.61362 0.946 0.0
O752 O 0.75556 0.59275 0.92259 0.0
O753 O 0.77863 0.59349 0.92194 0.0
C754 C 0.73099 0.59483 0.92589 0.0
H755 H 0.78578 0.58267 0.07774 0.0
H756 H 0.72361 0.68191 0.85777 0.0
H757 H 0.79047 0.70707 0.99357 0.0
H758 H 0.71109 0.69077 0.02062 0.0
Co759 Co 0.65491 0.50187 0.19434 0.0
C760 C 0.67486 0.48108 0.26625 0.0
C761 C 0.69128 0.51743 0.25432 0.0
C762 C 0.70199 0.50825 0.28683 0.0
N763 N 0.6744 0.50025 0.241 0.0
N764 N 0.69198 0.48517 0.29399 0.0
H765 H 0.66296 0.4644 0.26456 0.0
H766 H 0.69624 0.53516 0.24106 0.0
C767 C 0.6699 0.55054 0.15411 0.0
O768 O 0.64784 0.5535 0.13692 0.0
N769 N 0.63468 0.50229 0.14878 0.0
C770 C 0.61005 0.49468 0.1474 0.0
C771 C 0.60223 0.4944 0.11109 0.0
C772 C 0.64183 0.50515 0.11257 0.0
N773 N 0.62163 0.50264 0.08866 0.0
C774 C 0.61138 0.49828 0.24313 0.0
C775 C 0.5894 0.54406 0.22386 0.0
C776 C 0.57403 0.52569 0.24152 0.0
C777 C 0.58569 0.5031 0.25292 0.0
C778 C 0.615 0.53837 0.21427 0.0
N779 N 0.62514 0.51507 0.22184 0.0
H780 H 0.61934 0.47995 0.24961 0.0
H781 H 0.62582 0.55207 0.19844 0.0
H782 H 0.59892 0.48791 0.17094 0.0
H783 H 0.6617 0.5078 0.10432 0.0
O784 O 0.64777 0.46548 0.1971 0.0
O785 O 0.68133 0.48331 0.16896 0.0
O786 O 0.67109 0.53654 0.18338 0.0
C787 C 0.66878 0.46291 0.17735 0.0
H788 H 0.71704 0.51722 0.30293 0.0
H789 H 0.58395 0.48676 0.10232 0.0
H790 H 0.58111 0.56188 0.21505 0.0
H791 H 0.57451 0.48855 0.26691 0.0
Co792 Co 0.27355 0.39318 0.45034 0.0
C793 C 0.25946 0.41112 0.52465 0.0
C794 C 0.29576 0.42709 0.50909 0.0
C795 C 0.28934 0.43488 0.54494 0.0
N796 N 0.27694 0.41194 0.49664 0.0
N797 N 0.26699 0.42357 0.55593 0.0
H798 H 0.24096 0.4023 0.52114 0.0
H799 H 0.31265 0.43254 0.49321 0.0
C800 C 0.31191 0.42647 0.40993 0.0
O801 O 0.32901 0.4114 0.42515 0.0
N802 N 0.26763 0.37397 0.40514 0.0
C803 C 0.24532 0.36164 0.3985 0.0
C804 C 0.24418 0.35528 0.36155 0.0
C805 C 0.28016 0.37425 0.372 0.0
N806 N 0.26599 0.36324 0.3448 0.0
C807 C 0.24603 0.35354 0.49044 0.0
C808 C 0.28812 0.32134 0.48955 0.0
C809 C 0.26379 0.31166 0.49886 0.0
C810 C 0.24277 0.32822 0.50083 0.0
C811 C 0.29054 0.34679 0.47943 0.0
N812 N 0.26951 0.36213 0.47842 0.0
H813 H 0.22924 0.36552 0.48929 0.0
H814 H 0.30889 0.35384 0.46936 0.0
H815 H 0.2299 0.35898 0.41849 0.0
H816 H 0.29832 0.38351 0.36728 0.0
O817 O 0.23609 0.40234 0.44914 0.0
O818 O 0.26439 0.4249 0.42302 0.0
O819 O 0.28764 0.4236 0.41859 0.0
C820 C 0.24019 0.42179 0.42935 0.0
H821 H 0.30013 0.44875 0.56054 0.0
H822 H 0.22813 0.34631 0.34758 0.0
H823 H 0.30467 0.30893 0.48748 0.0
H824 H 0.2237 0.3212 0.50765 0.0
Co825 Co 0.37797 0.52611 0.20037 0.0
C826 C 0.35888 0.50059 0.27032 0.0
C827 C 0.33595 0.53274 0.25561 0.0
C828 C 0.32452 0.52071 0.2857 0.0
N829 N 0.35736 0.52002 0.2455 0.0
N830 N 0.33901 0.50057 0.2953 0.0
H831 H 0.37355 0.48611 0.26931 0.0
H832 H 0.32858 0.54925 0.24149 0.0
C833 C 0.33752 0.55858 0.16544 0.0
O834 O 0.34968 0.57674 0.18314 0.0
N835 N 0.39884 0.53106 0.15509 0.0
C836 C 0.42228 0.52066 0.14881 0.0
C837 C 0.42753 0.52054 0.11115 0.0
C838 C 0.3905 0.53729 0.12054 0.0
N839 N 0.40715 0.53039 0.09337 0.0
C840 C 0.42239 0.50542 0.23929 0.0
C841 C 0.44721 0.55188 0.24185 0.0
C842 C 0.46168 0.52978 0.24713 0.0
C843 C 0.44875 0.50645 0.24772 0.0
C844 C 0.421 0.55 0.23302 0.0
N845 N 0.4094 0.52695 0.22968 0.0
H846 H 0.41333 0.48712 0.23657 0.0
H847 H 0.41053 0.56686 0.22518 0.0
H848 H 0.43365 0.5108 0.16917 0.0
H849 H 0.37149 0.54387 0.11453 0.0
O850 O 0.3789 0.48887 0.18888 0.0
O851 O 0.34881 0.51234 0.16973 0.0
O852 O 0.34484 0.53523 0.17025 0.0
C853 C 0.35828 0.48983 0.17018 0.0
H854 H 0.30663 0.52612 0.29918 0.0
H855 H 0.4435 0.51098 0.09763 0.0
H856 H 0.45656 0.57021 0.24129 0.0
H857 H 0.45933 0.48902 0.25187 0.0
Co858 Co 0.25015 0.62391 0.95248 0.0
C859 C 0.26666 0.6042 0.02536 0.0
C860 C 0.23335 0.58417 1.00639 0.0
C861 C 0.2433 0.57166 0.03709 0.0
N862 N 0.24845 0.60421 0.99842 0.0
N863 N 0.26427 0.58436 0.04914 0.0
H864 H 0.28254 0.61745 0.02608 0.0
H865 H 0.21688 0.57838 0.99026 0.0
C866 C 0.21645 0.58574 0.91195 0.0
O867 O 0.19721 0.5992 0.92518 0.0
N868 N 0.25443 0.64384 0.9071 0.0
C869 C 0.27347 0.66107 0.9027 0.0
C870 C 0.27731 0.66571 0.86544 0.0
C871 C 0.24689 0.63842 0.87184 0.0
N872 N 0.26062 0.65151 0.84596 0.0
C873 C 0.27058 0.66673 0.99442 0.0
C874 C 0.22357 0.69164 0.9931 0.0
C875 C 0.24568 0.70504 1.00334 0.0
C876 C 0.26926 0.69217 1.00541 0.0
C877 C 0.22579 0.66644 0.982 0.0
N878 N 0.24917 0.65481 0.9811 0.0
H879 H 0.2891 0.65744 0.99354 0.0
H880 H 0.20911 0.65663 0.9712 0.0
H881 H 0.28569 0.66806 0.92464 0.0
H882 H 0.23334 0.62386 0.86493 0.0
O883 O 0.2889 0.61889 0.95149 0.0
O884 O 0.26267 0.5942 0.92508 0.0
O885 O 0.24003 0.5919 0.92061 0.0
C886 C 0.28649 0.5993 0.93137 0.0
H887 H 0.23617 0.55411 0.04887 0.0
H888 H 0.29205 0.67777 0.85335 0.0
H889 H 0.20513 0.70111 0.99102 0.0
H890 H 0.28671 0.70213 1.01303 0.0
Co891 Co 0.15878 0.48485 0.70967 0.0
C892 C 0.17704 0.50563 0.78101 0.0
C893 C 0.19941 0.47325 0.76557 0.0
C894 C 0.21119 0.48515 0.79541 0.0
N895 N 0.17808 0.48632 0.75619 0.0
N896 N 0.19701 0.50552 0.80504 0.0
H897 H 0.16325 0.52086 0.77973 0.0
H898 H 0.20689 0.45714 0.75054 0.0
C899 C 0.19677 0.45101 0.67475 0.0
O900 O 0.18252 0.43414 0.69229 0.0
N901 N 0.13943 0.48567 0.66302 0.0
C902 C 0.11837 0.50027 0.65828 0.0
C903 C 0.11391 0.50358 0.621 0.0
C904 C 0.14744 0.48026 0.62764 0.0
N905 N 0.13223 0.49123 0.60159 0.0
C906 C 0.11544 0.50602 0.75143 0.0
C907 C 0.08781 0.46114 0.74955 0.0
C908 C 0.07541 0.48335 0.76111 0.0
C909 C 0.08972 0.50578 0.76339 0.0
C910 C 0.11359 0.46216 0.73804 0.0
N911 N 0.12664 0.48454 0.73759 0.0
H912 H 0.12535 0.52394 0.75015 0.0
H913 H 0.12268 0.44539 0.72674 0.0
H914 H 0.10809 0.51007 0.68008 0.0
H915 H 0.16495 0.47028 0.6208 0.0
O916 O 0.16175 0.52248 0.70547 0.0
O917 O 0.18968 0.49789 0.6826 0.0
O918 O 0.19176 0.47486 0.67982 0.0
C919 C 0.18298 0.52107 0.68817 0.0
H920 H 0.22935 0.47991 0.80798 0.0
H921 H 0.09903 0.51531 0.60889 0.0
H922 H 0.07719 0.44356 0.74714 0.0
H923 H 0.08054 0.52332 0.77168 0.0
Co924 Co 0.26714 0.62333 0.57848 0.0
C925 C 0.24727 0.59808 0.5109 0.0
C926 C 0.28847 0.60096 0.50882 0.0
C927 C 0.27974 0.59177 0.47485 0.0
N928 N 0.26805 0.60484 0.53148 0.0
N929 N 0.2538 0.59 0.47637 0.0
H930 H 0.22749 0.60023 0.51993 0.0
H931 H 0.30814 0.60572 0.51575 0.0
C932 C 0.30596 0.58847 0.6144 0.0
O933 O 0.32301 0.60307 0.59776 0.0
N934 N 0.26359 0.64225 0.62485 0.0
C935 C 0.24471 0.65946 0.63007 0.0
C936 C 0.24182 0.66422 0.66742 0.0
C937 C 0.27201 0.63685 0.65973 0.0
N938 N 0.25898 0.65009 0.68616 0.0
C939 C 0.24178 0.66272 0.53525 0.0
C940 C 0.28364 0.69507 0.54219 0.0
C941 C 0.2602 0.70472 0.5295 0.0
C942 C 0.23936 0.6881 0.5243 0.0
C943 C 0.28519 0.66976 0.55276 0.0
N944 N 0.26412 0.65449 0.55107 0.0
H945 H 0.22525 0.65032 0.53371 0.0
H946 H 0.3027 0.66269 0.56524 0.0
H947 H 0.2321 0.66648 0.60858 0.0
H948 H 0.28582 0.62235 0.66608 0.0
O949 O 0.22914 0.61568 0.58353 0.0
O950 O 0.25859 0.59192 0.60547 0.0
O951 O 0.28151 0.59211 0.60821 0.0
C952 C 0.23428 0.59571 0.60168 0.0
H953 H 0.29142 0.58757 0.45049 0.0
H954 H 0.22751 0.67643 0.68012 0.0
H955 H 0.30004 0.70742 0.54647 0.0
H956 H 0.22099 0.6951 0.51451 0.0
Co957 Co 0.15673 0.51122 0.33352 0.0
C958 C 0.17669 0.49108 0.26049 0.0
C959 C 0.18887 0.52936 0.26927 0.0
C960 C 0.20016 0.52049 0.23671 0.0
N961 N 0.17427 0.51085 0.2846 0.0
N962 N 0.19258 0.49639 0.23135 0.0
H963 H 0.16755 0.4729 0.26441 0.0
H964 H 0.19195 0.54786 0.2813 0.0
C965 C 0.17414 0.55759 0.37647 0.0
O966 O 0.15275 0.55943 0.39601 0.0
N967 N 0.1387 0.50993 0.38155 0.0
C968 C 0.11409 0.50248 0.38495 0.0
C969 C 0.10823 0.49936 0.42184 0.0
C970 C 0.14772 0.50988 0.41711 0.0
N971 N 0.12877 0.50575 0.44307 0.0
C972 C 0.11059 0.51051 0.29063 0.0
C973 C 0.09109 0.55597 0.31638 0.0
C974 C 0.07406 0.53826 0.30086 0.0
C975 C 0.08437 0.51593 0.28596 0.0
C976 C 0.11711 0.54952 0.3213 0.0
N977 N 0.12609 0.52625 0.31083 0.0
H978 H 0.11776 0.49237 0.28138 0.0
H979 H 0.12933 0.56258 0.33591 0.0
H980 H 0.10168 0.4974 0.36208 0.0
H981 H 0.168 0.51166 0.4233 0.0
O982 O 0.14825 0.47531 0.32863 0.0
O983 O 0.18364 0.49153 0.35388 0.0
O984 O 0.17437 0.5449 0.34589 0.0
C985 C 0.1701 0.47177 0.34562 0.0
H986 H 0.21373 0.53061 0.21912 0.0
H987 H 0.09045 0.49088 0.43132 0.0
H988 H 0.08391 0.57368 0.3275 0.0
H989 H 0.07194 0.50201 0.27308 0.0
Co990 Co 0.26424 0.38611 0.07974 0.0
C991 C 0.28426 0.40957 1.01028 0.0
C992 C 0.24297 0.40837 1.01001 0.0
C993 C 0.25168 0.41695 0.97549 0.0
N994 N 0.26346 0.40392 0.03198 0.0
N995 N 0.2777 0.41779 0.97589 0.0
H996 H 0.30404 0.40702 0.0187 0.0
H997 H 0.22319 0.40461 0.01793 0.0
C998 C 0.22946 0.42172 0.1239 0.0
O999 O 0.21226 0.404 0.11754 0.0
N1000 N 0.26788 0.36721 0.12615 0.0
C1001 C 0.28543 0.34846 0.12973 0.0
C1002 C 0.2878 0.34196 0.16655 0.0
C1003 C 0.25972 0.37179 0.16148 0.0
N1004 N 0.27171 0.35661 0.18642 0.0
C1005 C 0.28567 0.34487 0.03513 0.0
C1006 C 0.24272 0.31461 0.04763 0.0
C1007 C 0.26485 0.30377 0.03199 0.0
C1008 C 0.28623 0.31932 0.02429 0.0
C1009 C 0.24296 0.34004 0.05785 0.0
N1010 N 0.26456 0.35434 0.05322 0.0
H1011 H 0.30267 0.35644 0.03142 0.0
H1012 H 0.22645 0.34803 0.07215 0.0
H1013 H 0.29743 0.34124 0.10748 0.0
H1014 H 0.2466 0.38665 0.16946 0.0
O1015 O 0.30274 0.39156 0.08216 0.0
O1016 O 0.27538 0.41762 0.10434 0.0
O1017 O 0.25259 0.41884 0.10981 0.0
C1018 C 0.29928 0.41229 0.09934 0.0
H1019 H 0.23987 0.42174 0.95169 0.0
H1020 H 0.3014 0.32862 0.17819 0.0
H1021 H 0.22593 0.30312 0.05387 0.0
H1022 H 0.30362 0.31142 1.01223 0.0
Co1023 Co 0.37011 0.50032 0.83099 0.0
C1024 C 0.35377 0.51787 0.75562 0.0
C1025 C 0.33047 0.48692 0.77455 0.0
C1026 C 0.3192 0.49739 0.74324 0.0
N1027 N 0.35204 0.49999 0.78289 0.0
N1028 N 0.33383 0.51693 0.73128 0.0
H1029 H 0.3681 0.53271 0.75516 0.0
H1030 H 0.32244 0.47174 0.79109 0.0
C1031 C 0.35647 0.45329 0.87452 0.0
O1032 O 0.37744 0.45384 0.8948 0.0
N1033 N 0.38824 0.50278 0.87856 0.0
C1034 C 0.4134 0.50879 0.88239 0.0
C1035 C 0.4185 0.51391 0.91919 0.0
C1036 C 0.37814 0.50544 0.91342 0.0
N1037 N 0.39639 0.51177 0.93855 0.0
C1038 C 0.41586 0.50658 0.7867 0.0
C1039 C 0.43892 0.46142 0.80661 0.0
C1040 C 0.45396 0.48015 0.78914 0.0
C1041 C 0.44185 0.5025 0.77779 0.0
C1042 C 0.41289 0.46624 0.81502 0.0
N1043 N 0.40199 0.48909 0.8066 0.0
H1044 H 0.40767 0.52483 0.78052 0.0
H1045 H 0.40223 0.45227 0.83069 0.0
H1046 H 0.427 0.51108 0.85983 0.0
H1047 H 0.35788 0.5034 0.92015 0.0
O1048 O 0.3735 0.53732 0.82708 0.0
O1049 O 0.34148 0.51594 0.853 0.0
O1050 O 0.35625 0.46473 0.84275 0.0
C1051 C 0.35133 0.53762 0.84447 0.0
H1052 H 0.30102 0.49176 0.73111 0.0
H1053 H 0.43682 0.51968 0.93074 0.0
H1054 H 0.44763 0.44386 0.81572 0.0
H1055 H 0.45283 0.51741 0.7643 0.0
C1056 C 0.20274 0.01145 0.16541 0.0
C1057 C 0.18523 0.01785 0.1948 0.0
C1058 C 0.18096 0.06036 0.16729 0.0
C1059 C 0.20123 0.05539 0.14114 0.0
N1060 N 0.23085 0.02487 0.1147 0.0
N1061 N 0.14574 0.04127 0.20101 0.0
C1062 C 0.21207 0.03058 0.1402 0.0
C1063 C 0.17088 0.04042 0.18992 0.0
N1064 N 0.20695 0.98649 0.15764 0.0
N1065 N 0.17145 0.08426 0.17166 0.0
H1066 H 0.13565 0.02477 0.20756 0.0
H1067 H 0.13382 0.05678 0.19606 0.0
H1068 H 0.17809 0.09982 0.15664 0.0
H1069 H 0.15865 0.08895 0.19314 0.0
H1070 H 0.2177 0.9801 0.13491 0.0
H1071 H 0.19627 0.97216 0.17051 0.0
H1072 H 0.24224 0.00869 0.11644 0.0
H1073 H 0.23571 0.03664 0.09239 0.0
C1074 C 0.20575 0.92221 0.42086 0.0
C1075 C 0.21006 0.94357 0.39725 0.0
C1076 C 0.24601 0.95605 0.43844 0.0
C1077 C 0.24351 0.93302 0.45863 0.0
N1078 N 0.22583 0.891 0.46048 0.0
N1079 N 0.23797 0.97848 0.38037 0.0
C1080 C 0.22477 0.91518 0.4473 0.0
C1081 C 0.23122 0.95994 0.4052 0.0
N1082 N 0.18294 0.90931 0.41984 0.0
N1083 N 0.2621 0.97442 0.4515 0.0
H1084 H 0.22863 0.98106 0.35495 0.0
H1085 H 0.25446 0.98957 0.38315 0.0
H1086 H 0.27279 0.97213 0.47586 0.0
H1087 H 0.26311 0.99253 0.44008 0.0
H1088 H 0.17833 0.89507 0.43894 0.0
H1089 H 0.1674 0.91481 0.40346 0.0
H1090 H 0.2138 0.87662 0.4509 0.0
H1091 H 0.24098 0.88474 0.47705 0.0
C1092 C 0.31993 0.94967 0.64418 0.0
C1093 C 0.31903 0.92353 0.653 0.0
C1094 C 0.32725 0.93435 0.7192 0.0
C1095 C 0.33189 0.96009 0.70934 0.0
N1096 N 0.33671 0.99109 0.66043 0.0
N1097 N 0.32427 0.8906 0.69881 0.0
C1098 C 0.32896 0.96748 0.67129 0.0
C1099 C 0.32317 0.91584 0.69061 0.0
N1100 N 0.31272 0.9574 0.60939 0.0
N1101 N 0.32606 0.92757 0.75594 0.0
H1102 H 0.32004 0.87663 0.67916 0.0
H1103 H 0.3305 0.88355 0.72439 0.0
H1104 H 0.32948 0.94025 0.77749 0.0
H1105 H 0.31969 0.9099 0.76508 0.0
H1106 H 0.31052 0.97633 0.60198 0.0
H1107 H 0.30644 0.94465 0.58915 0.0
H1108 H 0.33735 0.99699 0.63268 0.0
H1109 H 0.34526 1.00388 0.67874 0.0
C1110 C 0.29056 0.04382 0.89237 0.0
C1111 C 0.31651 0.05243 0.89402 0.0
C1112 C 0.30465 0.07992 0.94678 0.0
C1113 C 0.27964 0.06909 0.9482 0.0
N1114 N 0.25018 0.03747 0.92585 0.0
N1115 N 0.34933 0.07365 0.93012 0.0
C1116 C 0.27298 0.05009 0.9219 0.0
C1117 C 0.32388 0.06901 0.92338 0.0
N1118 N 0.28232 0.03056 0.86196 0.0
N1119 N 0.30975 0.10158 0.96611 0.0
H1120 H 0.36421 0.06499 0.91521 0.0
H1121 H 0.35563 0.08375 0.95335 0.0
H1122 H 0.29558 0.11135 0.98088 0.0
H1123 H 0.32705 0.11148 0.96352 0.0
H1124 H 0.26296 0.02663 0.85709 0.0
H1125 H 0.29444 0.02569 0.83978 0.0
H1126 H 0.24498 0.02212 0.90934 0.0
H1127 H 0.23747 0.04093 0.94792 0.0
C1128 C 0.17349 0.96875 0.89396 0.0
C1129 C 0.19934 0.95988 0.89748 0.0
C1130 C 0.21144 0.98565 0.84248 0.0
C1131 C 0.1853 0.99221 0.83668 0.0
N1132 N 0.14111 0.9902 0.85643 0.0
N1133 N 0.24343 0.9726 0.88728 0.0
C1134 C 0.16625 0.98382 0.8624 0.0
C1135 C 0.21864 0.97177 0.87509 0.0
N1136 N 0.1566 0.96509 0.9229 0.0
N1137 N 0.22942 0.99222 0.81624 0.0
H1138 H 0.24796 0.96903 0.91505 0.0
H1139 H 0.25832 0.98155 0.87285 0.0
H1140 H 0.22486 1.00231 0.79213 0.0
H1141 H 0.24835 0.98588 0.81678 0.0
H1142 H 0.13802 0.97241 0.92374 0.0
H1143 H 0.16237 0.95767 0.94854 0.0
H1144 H 0.12568 0.98225 0.87098 0.0
H1145 H 0.13555 1.00261 0.83529 0.0
C1146 C 0.29842 0.95072 0.07392 0.0
C1147 C 0.27366 0.94301 0.0862 0.0
C1148 C 0.28789 0.94784 0.15145 0.0
C1149 C 0.3136 0.95173 0.13886 0.0
N1150 N 0.34392 0.95279 0.0875 0.0
N1151 N 0.24522 0.9317 0.1368 0.0
C1152 C 0.31902 0.95207 0.09989 0.0
C1153 C 0.2684 0.9411 0.12509 0.0
N1154 N 0.302 0.95762 0.03749 0.0
N1155 N 0.28209 0.95069 0.18847 0.0
H1156 H 0.23083 0.92629 0.11823 0.0
H1157 H 0.241 0.92749 0.1646 0.0
H1158 H 0.29601 0.95504 0.20841 0.0
H1159 H 0.26331 0.95071 0.19888 0.0
H1160 H 0.31898 0.96579 0.0275 0.0
H1161 H 0.287 0.95771 0.01819 0.0
H1162 H 0.349 0.95065 0.05948 0.0
H1163 H 0.35958 0.9529 0.10555 0.0
C1164 C 0.33067 0.05518 0.38289 0.0
C1165 C 0.30529 0.0648 0.3771 0.0
C1166 C 0.30133 0.03541 0.32333 0.0
C1167 C 0.32778 0.02898 0.32601 0.0
N1168 N 0.36829 0.03385 0.35693 0.0
N1169 N 0.26727 0.065 0.33805 0.0
C1170 C 0.34262 0.03929 0.35538 0.0
C1171 C 0.2907 0.05493 0.34657 0.0
N1172 N 0.34292 0.06012 0.4158 0.0
N1173 N 0.28619 0.02262 0.29861 0.0
H1174 H 0.25838 0.07889 0.35384 0.0
H1175 H 0.25742 0.06092 0.31352 0.0
H1176 H 0.2935 0.00907 0.28028 0.0
H1177 H 0.26617 0.02395 0.29829 0.0
H1178 H 0.36036 0.05189 0.42329 0.0
H1179 H 0.33424 0.07017 0.43755 0.0
H1180 H 0.38099 0.04289 0.37498 0.0
H1181 H 0.3772 0.0215 0.33816 0.0
C1182 C 0.18963 0.09716 0.61545 0.0
C1183 C 0.19041 0.07381 0.63526 0.0
C1184 C 0.22991 0.06242 0.60053 0.0
C1185 C 0.22925 0.08574 0.58089 0.0
N1186 N 0.21314 0.12831 0.57851 0.0
N1187 N 0.21778 0.03991 0.65686 0.0
C1188 C 0.21046 0.10405 0.59107 0.0
C1189 C 0.21262 0.05823 0.63114 0.0
N1190 N 0.16891 0.11278 0.61992 0.0
N1191 N 0.24612 0.04367 0.58886 0.0
H1192 H 0.20757 0.03841 0.68183 0.0
H1193 H 0.23449 0.029 0.65624 0.0
H1194 H 0.25837 0.04572 0.56587 0.0
H1195 H 0.24552 0.02536 0.59969 0.0
H1196 H 0.1655 0.12845 0.60297 0.0
H1197 H 0.15464 0.10946 0.64 0.0
H1198 H 0.20135 0.14316 0.58708 0.0
H1199 H 0.22902 0.13406 0.56265 0.0
C1200 C 0.82344 0.98972 0.86935 0.0
C1201 C 0.8307 0.98236 0.83251 0.0
C1202 C 0.8296 0.93771 0.85309 0.0
C1203 C 0.81894 0.94489 0.88825 0.0
N1204 N 0.80395 0.97811 0.92895 0.0
N1205 N 0.8349 0.94848 0.78775 0.0
C1206 C 0.81518 0.97103 0.89597 0.0
C1207 C 0.83233 0.95611 0.824 0.0
N1208 N 0.82568 0.01453 0.87946 0.0
N1209 N 0.83747 0.91336 0.84731 0.0
H1210 H 0.83546 0.96107 0.76544 0.0
H1211 H 0.83363 0.92963 0.77946 0.0
H1212 H 0.83623 0.89934 0.8677 0.0
H1213 H 0.84771 0.90772 0.82363 0.0
H1214 H 0.82298 0.021 0.90667 0.0
H1215 H 0.83287 0.02833 0.86134 0.0
H1216 H 0.79794 0.99652 0.93455 0.0
H1217 H 0.79914 0.96519 0.94994 0.0
C1218 C 0.79362 0.0669 0.59814 0.0
C1219 C 0.79389 0.09105 0.58082 0.0
C1220 C 0.82965 0.10355 0.62232 0.0
C1221 C 0.82891 0.07946 0.64032 0.0
N1222 N 0.80259 0.0428 0.65395 0.0
N1223 N 0.80749 0.1345 0.58364 0.0
C1224 C 0.80852 0.06255 0.63098 0.0
C1225 C 0.81059 0.11003 0.59504 0.0
N1226 N 0.77999 0.04763 0.5823 0.0
N1227 N 0.84861 0.12035 0.63143 0.0
H1228 H 0.79304 0.13994 0.56518 0.0
H1229 H 0.81741 0.14971 0.59521 0.0
H1230 H 0.8611 0.11735 0.65374 0.0
H1231 H 0.85243 0.13674 0.61618 0.0
H1232 H 0.7812 0.02893 0.59144 0.0
H1233 H 0.76965 0.04986 0.55762 0.0
H1234 H 0.7869 0.03085 0.64961 0.0
H1235 H 0.81064 0.04088 0.68024 0.0
C1236 C 0.69777 0.08917 0.35196 0.0
C1237 C 0.71227 0.07923 0.38219 0.0
C1238 C 0.7084 0.03666 0.35451 0.0
C1239 C 0.69344 0.04654 0.32462 0.0
N1240 N 0.66661 0.08122 0.30361 0.0
N1241 N 0.72533 0.04259 0.41716 0.0
C1242 C 0.68581 0.07243 0.32602 0.0
C1243 C 0.7159 0.05267 0.38486 0.0
N1244 N 0.69624 0.11477 0.34675 0.0
N1245 N 0.71544 0.01179 0.3538 0.0
H1246 H 0.73037 0.05371 0.44006 0.0
H1247 H 0.72616 0.02322 0.42245 0.0
H1248 H 0.70813 0.9991 0.33419 0.0
H1249 H 0.7291 1.00404 0.37167 0.0
H1250 H 0.68894 0.12293 0.3225 0.0
H1251 H 0.70441 0.12793 0.3648 0.0
H1252 H 0.65863 0.09921 0.30646 0.0
H1253 H 0.65639 0.06996 0.28523 0.0
C1254 C 0.71726 0.91987 0.09711 0.0
C1255 C 0.73373 0.93716 0.07818 0.0
C1256 C 0.7147 0.97201 0.11417 0.0
C1257 C 0.69555 0.95543 0.12939 0.0
N1258 N 0.67862 0.9131 0.13469 0.0
N1259 N 0.74528 0.98005 0.06397 0.0
C1260 C 0.6969 0.92916 0.12062 0.0
C1261 C 0.73171 0.96331 0.08558 0.0
N1262 N 0.72162 0.89452 0.09327 0.0
N1263 N 0.71721 0.996 0.12744 0.0
H1264 H 0.75771 0.97427 0.04263 0.0
H1265 H 0.74236 0.99954 0.06474 0.0
H1266 H 0.7066 1.00242 0.14992 0.0
H1267 H 0.73207 0.00822 0.1197 0.0
H1268 H 0.71199 0.88069 0.10867 0.0
H1269 H 0.73652 0.8874 0.07665 0.0
H1270 H 0.67645 0.89443 0.12599 0.0
H1271 H 0.6649 0.91883 0.15436 0.0
C1272 C 0.82659 0.07019 0.1793 0.0
C1273 C 0.81221 0.06377 0.14691 0.0
C1274 C 0.81417 0.01913 0.16659 0.0
C1275 C 0.82456 0.02642 0.20175 0.0
N1276 N 0.83208 0.06084 0.24467 0.0
N1277 N 0.78986 0.03163 0.11177 0.0
C1278 C 0.82829 0.05253 0.20905 0.0
C1279 C 0.80492 0.0381 0.14143 0.0
N1280 N 0.83924 0.09277 0.18184 0.0
N1281 N 0.81468 0.99431 0.15608 0.0
H1282 H 0.78389 0.04466 0.09171 0.0
H1283 H 0.78193 0.01364 0.10859 0.0
H1284 H 0.82325 0.98028 0.17227 0.0
H1285 H 0.80938 0.98815 0.12957 0.0
H1286 H 0.85137 0.09714 0.20405 0.0
H1287 H 0.84042 0.10567 0.15996 0.0
H1288 H 0.83349 0.07997 0.25144 0.0
H1289 H 0.83027 0.049 0.26781 0.0
C1290 C 0.71261 0.03954 0.92581 0.0
C1291 C 0.70974 0.05495 0.89321 0.0
C1292 C 0.74158 0.08511 0.91917 0.0
C1293 C 0.74239 0.07102 0.95283 0.0
N1294 N 0.72822 0.03587 0.98983 0.0
N1295 N 0.72231 0.09195 0.85812 0.0
C1296 C 0.72803 0.04831 0.95631 0.0
C1297 C 0.72458 0.07759 0.88974 0.0
N1298 N 0.69999 0.01688 0.92831 0.0
N1299 N 0.75773 0.10539 0.91523 0.0
H1300 H 0.71222 0.08586 0.83465 0.0
H1301 H 0.72989 0.11007 0.85509 0.0
H1302 H 0.76994 0.11135 0.93657 0.0
H1303 H 0.76027 0.11551 0.89055 0.0
H1304 H 0.70319 1.00355 0.94916 0.0
H1305 H 0.68657 0.01071 0.90897 0.0
H1306 H 0.71629 0.0207 0.99659 0.0
H1307 H 0.73936 0.04191 1.01232 0.0
C1308 C 0.71907 0.971 0.70547 0.0
C1309 C 0.69874 0.98663 0.69288 0.0
C1310 C 0.69947 0.9644 0.63214 0.0
C1311 C 0.71836 0.94718 0.64573 0.0
N1312 N 0.74584 0.93416 0.6963 0.0
N1313 N 0.66806 0.99752 0.6459 0.0
C1314 C 0.72828 0.95076 0.68248 0.0
C1315 C 0.68859 0.98314 0.65657 0.0
N1316 N 0.72979 0.97577 0.73958 0.0
N1317 N 0.69274 0.9635 0.5953 0.0
H1318 H 0.66042 0.01172 0.66291 0.0
H1319 H 0.65766 0.99446 0.62155 0.0
H1320 H 0.70094 0.9507 0.57652 0.0
H1321 H 0.68088 0.97674 0.58248 0.0
H1322 H 0.74661 0.96736 0.74922 0.0
H1323 H 0.72259 0.98937 0.7579 0.0
H1324 H 0.74995 0.93249 0.72457 0.0
H1325 H 0.75594 0.92166 0.67949 0.0
C1326 C 0.81002 0.90324 0.43577 0.0
C1327 C 0.7925 0.92208 0.44827 0.0
C1328 C 0.80819 0.95019 0.39849 0.0
C1329 C 0.82927 0.93361 0.39098 0.0
N1330 N 0.8493 0.89315 0.40161 0.0
N1331 N 0.77724 0.96489 0.44453 0.0
C1332 C 0.82981 0.90971 0.40939 0.0
C1333 C 0.79216 0.9459 0.4303 0.0
N1334 N 0.80711 0.87897 0.44825 0.0
N1335 N 0.80262 0.96948 0.37465 0.0
H1336 H 0.76564 0.96253 0.46816 0.0
H1337 H 0.77832 0.98354 0.43509 0.0
H1338 H 0.81154 0.97118 0.34888 0.0
H1339 H 0.78653 0.9811 0.37762 0.0
H1340 H 0.81777 0.86375 0.43811 0.0
H1341 H 0.79219 0.87367 0.46628 0.0
H1342 H 0.85284 0.87691 0.41726 0.0
H1343 H 0.86246 0.89617 0.37989 0.0
C1344 C 0.69746 0.54717 0.7108 0.0
C1345 C 0.70028 0.52099 0.70315 0.0
C1346 C 0.72009 0.53223 0.64232 0.0
C1347 C 0.71422 0.55822 0.64836 0.0
N1348 N 0.6902 0.58876 0.68515 0.0
N1349 N 0.7096 0.48859 0.65779 0.0
C1350 C 0.70058 0.56516 0.68146 0.0
C1351 C 0.71047 0.51349 0.66785 0.0
N1352 N 0.69327 0.55513 0.7466 0.0
N1353 N 0.73435 0.52528 0.61183 0.0
H1354 H 0.70133 0.4747 0.67475 0.0
H1355 H 0.71453 0.48211 0.63122 0.0
H1356 H 0.7403 0.53808 0.59132 0.0
H1357 H 0.74152 0.50706 0.60807 0.0
H1358 H 0.69293 0.57417 0.75416 0.0
H1359 H 0.69348 0.54284 0.76937 0.0
H1360 H 0.67825 0.59377 0.70744 0.0
H1361 H 0.69103 0.60243 0.66428 0.0
C1362 C 0.73126 0.45883 0.89996 0.0
C1363 C 0.7066 0.44712 0.89851 0.0
C1364 C 0.71903 0.42054 0.95218 0.0
C1365 C 0.74211 0.43464 0.95671 0.0
N1366 N 0.76756 0.47074 0.93866 0.0
N1367 N 0.67518 0.42047 0.93002 0.0
C1368 C 0.74735 0.45493 0.93172 0.0
C1369 C 0.69991 0.42912 0.92669 0.0
N1370 N 0.74015 0.47231 0.87002 0.0
N1371 N 0.71597 0.39792 0.97011 0.0
H1372 H 0.66025 0.42628 0.91274 0.0
H1373 H 0.66897 0.40948 0.95255 0.0
H1374 H 0.73032 0.3898 0.98636 0.0
H1375 H 0.70055 0.38577 0.96504 0.0
H1376 H 0.75895 0.47915 0.86805 0.0
H1377 H 0.72971 0.47413 0.8454 0.0
H1378 H 0.77147 0.48679 0.92272 0.0
H1379 H 0.77884 0.46914 0.96257 0.0
C1380 C 0.81038 0.47395 0.20536 0.0
C1381 C 0.8362 0.47115 0.2175 0.0
C1382 C 0.84332 0.43977 0.16788 0.0
C1383 C 0.81864 0.4452 0.15222 0.0
N1384 N 0.78016 0.47085 0.15404 0.0
N1385 N 0.87876 0.45513 0.20537 0.0
C1386 C 0.80246 0.46312 0.17058 0.0
C1387 C 0.85306 0.45505 0.19742 0.0
N1388 N 0.79332 0.48669 0.22754 0.0
N1389 N 0.85716 0.41925 0.15607 0.0
H1390 H 0.88675 0.4665 0.22609 0.0
H1391 H 0.89243 0.44589 0.1889 0.0
H1392 H 0.85069 0.40654 0.136 0.0
H1393 H 0.87382 0.41311 0.16939 0.0
H1394 H 0.77362 0.48749 0.22227 0.0
H1395 H 0.79861 0.4944 0.25321 0.0
H1396 H 0.76876 0.48541 0.16455 0.0
H1397 H 0.77436 0.46456 0.12782 0.0
C1398 C 0.80267 0.54273 0.45843 0.0
C1399 C 0.79604 0.56868 0.4595 0.0
C1400 C 0.83042 0.57789 0.41362 0.0
C1401 C 0.83616 0.55165 0.41114 0.0
N1402 N 0.82305 0.50866 0.42456 0.0
N1403 N 0.80019 0.61044 0.43376 0.0
C1404 C 0.82068 0.53395 0.43127 0.0
C1405 C 0.80893 0.58611 0.43568 0.0
N1406 N 0.79303 0.52669 0.48502 0.0
N1407 N 0.84577 0.59494 0.39535 0.0
H1408 H 0.78438 0.61669 0.44935 0.0
H1409 H 0.8071 0.62374 0.41471 0.0
H1410 H 0.86061 0.58943 0.37733 0.0
H1411 H 0.84458 0.61443 0.39929 0.0
H1412 H 0.79948 0.50817 0.48851 0.0
H1413 H 0.78047 0.5326 0.50608 0.0
H1414 H 0.81062 0.49509 0.43575 0.0
H1415 H 0.83566 0.50147 0.4047 0.0
C1416 C 0.68458 0.45611 0.34835 0.0
C1417 C 0.70136 0.46699 0.32124 0.0
C1418 C 0.73801 0.44648 0.35183 0.0
C1419 C 0.72109 0.43268 0.37573 0.0
N1420 N 0.67758 0.42294 0.39459 0.0
N1421 N 0.74304 0.4665 0.29148 0.0
C1422 C 0.69411 0.43705 0.37327 0.0
C1423 C 0.72782 0.46053 0.32148 0.0
N1424 N 0.65983 0.46462 0.35109 0.0
N1425 N 0.7639 0.44646 0.35802 0.0
H1426 H 0.73579 0.47491 0.26738 0.0
H1427 H 0.76198 0.46025 0.28862 0.0
H1428 H 0.77207 0.4374 0.38075 0.0
H1429 H 0.77677 0.45791 0.34325 0.0
H1430 H 0.64722 0.4592 0.37237 0.0
H1431 H 0.65265 0.47883 0.33381 0.0
H1432 H 0.65767 0.42316 0.39118 0.0
H1433 H 0.684 0.40999 0.4145 0.0
C1434 C 0.83422 0.42587 0.62615 0.0
C1435 C 0.82801 0.44799 0.64719 0.0
C1436 C 0.79966 0.46127 0.59592 0.0
C1437 C 0.8027 0.4374 0.57832 0.0
N1438 N 0.81768 0.39435 0.58377 0.0
N1439 N 0.79929 0.4837 0.65475 0.0
C1440 C 0.81845 0.41889 0.59549 0.0
C1441 C 0.80915 0.4649 0.6328 0.0
N1442 N 0.85597 0.41224 0.63347 0.0
N1443 N 0.78841 0.48074 0.57704 0.0
H1444 H 0.80388 0.48554 0.68293 0.0
H1445 H 0.78423 0.49536 0.64625 0.0
H1446 H 0.78221 0.47896 0.54949 0.0
H1447 H 0.788 0.4992 0.58729 0.0
H1448 H 0.86201 0.39728 0.61658 0.0
H1449 H 0.86975 0.41775 0.65285 0.0
H1450 H 0.82734 0.37984 0.5976 0.0
H1451 H 0.80495 0.38806 0.56339 0.0
C1452 C 0.82962 0.55968 0.82708 0.0
C1453 C 0.83173 0.53383 0.83799 0.0
C1454 C 0.81444 0.54523 0.90043 0.0
C1455 C 0.81357 0.57116 0.88989 0.0
N1456 N 0.82614 0.60362 0.84593 0.0
N1457 N 0.83118 0.50308 0.88749 0.0
C1458 C 0.82297 0.57852 0.85409 0.0
C1459 C 0.82541 0.52693 0.87541 0.0
N1460 N 0.83271 0.56627 0.79046 0.0
N1461 N 0.80509 0.53814 0.93466 0.0
H1462 H 0.84041 0.48984 0.87049 0.0
H1463 H 0.82918 0.4971 0.91506 0.0
H1464 H 0.79834 0.55113 0.95434 0.0
H1465 H 0.80266 0.5194 0.9429 0.0
H1466 H 0.82792 0.58402 0.77989 0.0
H1467 H 0.83804 0.55347 0.76987 0.0
H1468 H 0.83562 0.6101 0.82204 0.0
H1469 H 0.82145 0.61807 0.86455 0.0
C1470 C 0.69322 0.58724 0.1228 0.0
C1471 C 0.69377 0.56191 0.13643 0.0
C1472 C 0.73091 0.55316 0.09523 0.0
C1473 C 0.73066 0.57842 0.08212 0.0
N1474 N 0.7159 0.62114 0.09018 0.0
N1475 N 0.72009 0.5246 0.14559 0.0
C1476 C 0.71304 0.59598 0.09796 0.0
C1477 C 0.71479 0.54605 0.12586 0.0
N1478 N 0.67376 0.60298 0.13378 0.0
N1479 N 0.74579 0.5356 0.07735 0.0
H1480 H 0.71123 0.52035 0.17089 0.0
H1481 H 0.73602 0.51322 0.14009 0.0
H1482 H 0.75738 0.54007 0.05437 0.0
H1483 H 0.74466 0.51627 0.08294 0.0
H1484 H 0.67021 0.62047 0.12142 0.0
H1485 H 0.66066 0.59812 0.15483 0.0
H1486 H 0.7052 0.63533 0.10311 0.0
H1487 H 0.73076 0.62801 0.07324 0.0
C1488 C 0.33317 0.45584 0.31658 0.0
C1489 C 0.33304 0.4821 0.32455 0.0
C1490 C 0.31724 0.47214 0.38821 0.0
C1491 C 0.32022 0.44579 0.38125 0.0
N1492 N 0.33831 0.41348 0.34088 0.0
N1493 N 0.33085 0.51467 0.37153 0.0
C1494 C 0.33062 0.43793 0.3462 0.0
C1495 C 0.32659 0.49013 0.3614 0.0
N1496 N 0.33407 0.44788 0.28039 0.0
N1497 N 0.30581 0.48012 0.42058 0.0
H1498 H 0.33941 0.52781 0.35359 0.0
H1499 H 0.32866 0.52121 0.39881 0.0
H1500 H 0.30018 0.46775 0.44183 0.0
H1501 H 0.30043 0.49886 0.42518 0.0
H1502 H 0.33308 0.4289 0.2728 0.0
H1503 H 0.33256 0.46037 0.25796 0.0
H1504 H 0.3481 0.40753 0.31697 0.0
H1505 H 0.33771 0.39981 0.36176 0.0
C1506 C 0.29159 0.56007 0.14116 0.0
C1507 C 0.31825 0.56515 0.13588 0.0
C1508 C 0.30919 0.57784 0.07134 0.0
C1509 C 0.28227 0.57682 0.07825 0.0
N1510 N 0.24817 0.57207 0.12391 0.0
N1511 N 0.35071 0.58638 0.09816 0.0
C1512 C 0.27347 0.56916 0.11431 0.0
C1513 C 0.32654 0.57643 0.10176 0.0
N1514 N 0.28342 0.54699 0.17194 0.0
N1515 N 0.31841 0.57867 0.03557 0.0
H1516 H 0.36403 0.58662 0.1198 0.0
H1517 H 0.35648 0.59664 0.07463 0.0
H1518 H 0.30645 0.57706 1.01238 0.0
H1519 H 0.33802 0.57746 0.02924 0.0
H1520 H 0.26452 0.54065 0.17527 0.0
H1521 H 0.29598 0.54079 0.19265 0.0
H1522 H 0.24116 0.56879 0.15083 0.0
H1523 H 0.2348 0.58056 0.10629 0.0
C1524 C 0.20402 0.57039 0.84751 0.0
C1525 C 0.21135 0.56468 0.8848 0.0
C1526 C 0.20733 0.51925 0.87003 0.0
C1527 C 0.20337 0.5252 0.83181 0.0
N1528 N 0.20555 0.55661 0.7831 0.0
N1529 N 0.22298 0.53302 0.93037 0.0
C1530 C 0.204 0.55085 0.82024 0.0
C1531 C 0.21414 0.53889 0.89561 0.0
N1532 N 0.19611 0.59418 0.83812 0.0
N1533 N 0.20318 0.49512 0.88236 0.0
H1534 H 0.22729 0.54674 0.95018 0.0
H1535 H 0.2281 0.51475 0.93836 0.0
H1536 H 0.1971 0.4806 0.8648 0.0
H1537 H 0.20327 0.49006 0.91049 0.0
H1538 H 0.18868 0.59863 0.81192 0.0
H1539 H 0.19395 0.60864 0.85761 0.0
H1540 H 0.20802 0.57502 0.77322 0.0
H1541 H 0.20746 0.54275 0.76254 0.0
C1542 C 0.24285 0.44942 0.64948 0.0
C1543 C 0.21641 0.44232 0.64663 0.0
C1544 C 0.22824 0.41367 0.59566 0.0
C1545 C 0.25228 0.42605 0.59114 0.0
N1546 N 0.28692 0.44212 0.62851 0.0
N1547 N 0.18387 0.41814 0.61367 0.0
C1548 C 0.26109 0.44059 0.62205 0.0
C1549 C 0.2091 0.42456 0.61883 0.0
N1550 N 0.25068 0.46351 0.67928 0.0
N1551 N 0.22504 0.38959 0.58284 0.0
H1552 H 0.16872 0.42581 0.62911 0.0
H1553 H 0.17798 0.40682 0.5914 0.0
H1554 H 0.24056 0.37905 0.57262 0.0
H1555 H 0.20842 0.379 0.58803 0.0
H1556 H 0.26877 0.47188 0.68134 0.0
H1557 H 0.23857 0.46759 0.70179 0.0
H1558 H 0.29519 0.45179 0.65069 0.0
H1559 H 0.2999 0.43024 0.61479 0.0
C1560 C 0.32089 0.52595 0.66528 0.0
C1561 C 0.32752 0.5348 0.70155 0.0
C1562 C 0.32446 0.57855 0.67819 0.0
C1563 C 0.31437 0.56981 0.64363 0.0
N1564 N 0.30027 0.53474 0.60585 0.0
N1565 N 0.32836 0.57015 0.74423 0.0
C1566 C 0.31155 0.54335 0.6378 0.0
C1567 C 0.32739 0.56129 0.70846 0.0
N1568 N 0.32487 0.50114 0.65637 0.0
N1569 N 0.33152 0.60329 0.68244 0.0
H1570 H 0.32885 0.55831 0.76742 0.0
H1571 H 0.32552 0.58913 0.75103 0.0
H1572 H 0.32986 0.61678 0.66138 0.0
H1573 H 0.34133 0.60984 0.70586 0.0
H1574 H 0.32259 0.49394 0.62952 0.0
H1575 H 0.33316 0.48832 0.6749 0.0
H1576 H 0.29505 0.51589 0.60189 0.0
H1577 H 0.29457 0.54674 0.58426 0.0
C1578 C 0.23646 0.55848 0.43136 0.0
C1579 C 0.23623 0.58323 0.4465 0.0
C1580 C 0.1981 0.59329 0.40847 0.0
C1581 C 0.19844 0.56846 0.39308 0.0
N1582 N 0.22449 0.5315 0.37981 0.0
N1583 N 0.22125 0.62611 0.44224 0.0
C1584 C 0.2197 0.55233 0.40123 0.0
C1585 C 0.21833 0.60124 0.43282 0.0
N1586 N 0.25183 0.54042 0.44695 0.0
N1587 N 0.17837 0.60928 0.39978 0.0
H1588 H 0.23642 0.63245 0.4588 0.0
H1589 H 0.21031 0.64069 0.4309 0.0
H1590 H 0.16482 0.60502 0.37928 0.0
H1591 H 0.17501 0.62632 0.41355 0.0
H1592 H 0.25076 0.52132 0.43988 0.0
H1593 H 0.26386 0.54414 0.46953 0.0
H1594 H 0.24065 0.52006 0.38324 0.0
H1595 H 0.21472 0.52783 0.35517 0.0
C1596 C 0.18804 0.47316 0.17126 0.0
C1597 C 0.20264 0.47893 0.20344 0.0
C1598 C 0.23726 0.45055 0.18118 0.0
C1599 C 0.22211 0.4436 0.14947 0.0
N1600 N 0.18623 0.45376 0.10971 0.0
N1601 N 0.23981 0.47195 0.24136 0.0
C1602 C 0.19827 0.4564 0.14338 0.0
C1603 C 0.22708 0.46762 0.20862 0.0
N1604 N 0.164 0.48338 0.16794 0.0
N1605 N 0.26157 0.44126 0.1852 0.0
H1606 H 0.23283 0.48415 0.26192 0.0
H1607 H 0.25617 0.46216 0.24974 0.0
H1608 H 0.26895 0.42662 0.16934 0.0
H1609 H 0.27513 0.44902 0.20318 0.0
H1610 H 0.15077 0.47801 0.14769 0.0
H1611 H 0.15664 0.49636 0.18718 0.0
H1612 H 0.17008 0.46404 0.10178 0.0
H1613 H 0.19389 0.44304 0.08788 0.0
C1614 C 0.29395 0.4496 0.9299 0.0
C1615 C 0.29526 0.42509 0.94583 0.0
C1616 C 0.3344 0.41672 0.90822 0.0
C1617 C 0.33266 0.44115 0.89156 0.0
N1618 N 0.30417 0.47586 0.87674 0.0
N1619 N 0.31266 0.38302 0.94256 0.0
C1620 C 0.31035 0.45602 0.89923 0.0
C1621 C 0.31433 0.40793 0.93268 0.0
N1622 N 0.278 0.46735 0.94525 0.0
N1623 N 0.35532 0.40189 0.90067 0.0
H1624 H 0.29759 0.37598 0.95895 0.0
H1625 H 0.32458 0.36901 0.93159 0.0
H1626 H 0.36899 0.40669 0.88037 0.0
H1627 H 0.3595 0.38538 0.91533 0.0
H1628 H 0.27822 0.48631 0.93716 0.0
H1629 H 0.26657 0.46376 0.9687 0.0
H1630 H 0.28713 0.48611 0.87955 0.0
H1631 H 0.31386 0.47935 0.85192 0.0
C1632 C 0.23473 0.12565 0.28343 0.0
C1633 C 0.24503 0.14789 0.29956 0.0
C1634 C 0.24347 0.16862 0.23856 0.0
C1635 C 0.2385 0.14504 0.22125 0.0
N1636 N 0.22572 0.10081 0.22999 0.0
N1637 N 0.26133 0.19022 0.29208 0.0
C1638 C 0.23297 0.12356 0.24413 0.0
C1639 C 0.2497 0.16943 0.27703 0.0
N1640 N 0.22608 0.10639 0.3056 0.0
N1641 N 0.24226 0.19021 0.21769 0.0
H1642 H 0.26715 0.19093 0.31991 0.0
H1643 H 0.2674 0.20568 0.27623 0.0
H1644 H 0.23696 0.18985 0.18957 0.0
H1645 H 0.24374 0.2083 0.22902 0.0
H1646 H 0.21833 0.08969 0.29483 0.0
H1647 H 0.22549 0.10768 0.3346 0.0
H1648 H 0.22276 0.09711 0.20182 0.0
H1649 H 0.22276 0.09711 0.20182 0.0
C1650 C 0.13112 0.00723 0.4844 0.0
C1651 C 0.12764 0.98131 0.47498 0.0
C1652 C 0.13289 0.96952 0.54078 0.0
C1653 C 0.13292 0.99551 0.55051 0.0
N1654 N 0.13195 0.03926 0.53307 0.0
N1655 N 0.12647 0.93757 0.49256 0.0
C1656 C 0.13244 0.01441 0.5226 0.0
C1657 C 0.12933 0.96232 0.50273 0.0
N1658 N 0.13345 0.02486 0.45663 0.0
N1659 N 0.13575 0.95198 0.56841 0.0
H1660 H 0.124 0.93211 0.4648 0.0
H1661 H 0.12578 0.92248 0.51121 0.0
H1662 H 0.13828 0.95727 0.59619 0.0
H1663 H 0.13695 0.93258 0.56399 0.0
H1664 H 0.13834 0.04371 0.46116 0.0
H1665 H 0.13287 0.02018 0.42838 0.0
H1666 H 0.12854 0.05422 0.51483 0.0
H1667 H 0.13382 0.04487 0.56085 0.0
C1668 C 0.24781 0.84413 0.76052 0.0
C1669 C 0.24436 0.86604 0.73838 0.0
C1670 C 0.22933 0.88902 0.79401 0.0
C1671 C 0.23204 0.86649 0.81582 0.0
N1672 N 0.23298 0.82102 0.81478 0.0
N1673 N 0.22221 0.90575 0.7319 0.0
C1674 C 0.2374 0.84349 0.79707 0.0
C1675 C 0.23226 0.88749 0.75441 0.0
N1676 N 0.26206 0.82433 0.74736 0.0
N1677 N 0.22493 0.91199 0.81018 0.0
H1678 H 0.22283 0.90454 0.70286 0.0
H1679 H 0.21044 0.92013 0.74218 0.0
H1680 H 0.22216 0.91474 0.83854 0.0
H1681 H 0.22597 0.92893 0.79525 0.0
H1682 H 0.2667 0.80869 0.76378 0.0
H1683 H 0.27164 0.82493 0.72167 0.0
H1684 H 0.23506 0.80356 0.80152 0.0
H1685 H 0.22452 0.82023 0.84131 0.0
C1686 C 0.40948 0.98405 0.98738 0.0
C1687 C 0.40642 0.00981 0.97753 0.0
C1688 C 0.40776 0.02093 0.04396 0.0
C1689 C 0.40601 0.99496 0.05376 0.0
N1690 N 0.40115 0.95164 0.03356 0.0
N1691 N 0.39949 0.05289 0.99694 0.0
C1692 C 0.40578 0.97642 0.0251 0.0
C1693 C 0.40469 0.02835 1.00599 0.0
N1694 N 0.41726 0.96708 0.96097 0.0
N1695 N 0.41398 0.03832 0.07053 0.0
H1696 H 0.39701 0.05884 0.96943 0.0
H1697 H 0.39553 0.0667 0.01693 0.0
H1698 H 0.41811 0.03317 0.09799 0.0
H1699 H 0.41786 0.05722 0.06432 0.0
H1700 H 0.422 0.94839 0.96722 0.0
H1701 H 0.42156 0.97251 0.93358 0.0
H1702 H 0.39836 0.93785 1.01317 0.0
H1703 H 0.39745 0.94538 0.06067 0.0
C1704 C 0.76479 0.83573 0.75023 0.0
C1705 C 0.76946 0.85826 0.73005 0.0
C1706 C 0.77197 0.88185 0.78853 0.0
C1707 C 0.76983 0.85886 0.80901 0.0
N1708 N 0.77256 0.81327 0.80789 0.0
N1709 N 0.78772 0.90014 0.73085 0.0
C1710 C 0.7687 0.83553 0.78938 0.0
C1711 C 0.77611 0.88064 0.74938 0.0
N1712 N 0.75655 0.81459 0.73197 0.0
N1713 N 0.76855 0.90472 0.80551 0.0
H1714 H 0.79241 0.89914 0.7025 0.0
H1715 H 0.79473 0.91613 0.74452 0.0
H1716 H 0.7626 0.90654 0.8332 0.0
H1717 H 0.76851 0.92171 0.79064 0.0
H1718 H 0.75077 0.79817 0.74585 0.0
H1719 H 0.75325 0.81442 0.70323 0.0
H1720 H 0.77384 0.79586 0.79435 0.0
H1721 H 0.7776 0.81264 0.83605 0.0
C1722 C 0.88249 0.0279 0.48977 0.0
C1723 C 0.88542 1.00288 0.4764 0.0
C1724 C 0.88364 0.98654 0.54039 0.0
C1725 C 0.88455 0.01168 0.55381 0.0
N1726 N 0.88468 0.05648 0.54284 0.0
N1727 N 0.88884 0.95822 0.48746 0.0
C1728 C 0.8835 0.03248 0.52889 0.0
C1729 C 0.88561 0.98207 0.50133 0.0
N1730 N 0.87884 0.04711 0.46477 0.0
N1731 N 0.88095 0.96712 0.56533 0.0
H1732 H 0.89005 0.9546 0.45888 0.0
H1733 H 0.89161 0.94225 0.50399 0.0
H1734 H 0.87963 0.97023 0.59406 0.0
H1735 H 0.87806 0.94834 0.55771 0.0
H1736 H 0.87448 0.06562 0.47237 0.0
H1737 H 0.87837 0.04401 0.43599 0.0
H1738 H 0.8865 0.07264 0.52639 0.0
H1739 H 0.885 0.06013 0.57145 0.0
C1740 C 0.7842 0.13469 0.283 0.0
C1741 C 0.77526 0.15714 0.30045 0.0
C1742 C 0.78009 0.17924 0.24071 0.0
C1743 C 0.78311 0.15599 0.22145 0.0
N1744 N 0.78565 0.10993 0.2266 0.0
N1745 N 0.76017 0.19997 0.29347 0.0
C1746 C 0.78474 0.13316 0.2431 0.0
C1747 C 0.77197 0.17921 0.27855 0.0
N1748 N 0.7933 0.11523 0.3043 0.0
N1749 N 0.78524 0.20146 0.2227 0.0
H1750 H 0.75243 0.20005 0.32044 0.0
H1751 H 0.75553 0.21589 0.27765 0.0
H1752 H 0.7926 0.20191 0.19549 0.0
H1753 H 0.78508 0.21894 0.23621 0.0
H1754 H 0.80212 0.09926 0.29302 0.0
H1755 H 0.79474 0.1163 0.33326 0.0
H1756 H 0.78355 0.09314 0.24163 0.0
H1757 H 0.78597 0.10696 0.19806 0.0
C1758 C 0.64142 0.03545 0.98693 0.0
C1759 C 0.62218 0.02218 0.96683 0.0
C1760 C 0.6028 0.00791 0.02586 0.0
C1761 C 0.6224 0.0205 0.0462 0.0
N1762 N 0.65994 0.04807 0.04454 0.0
N1763 N 0.57996 1.00395 0.96721 0.0
C1764 C 0.64133 0.03483 0.02652 0.0
C1765 C 0.60126 0.01128 0.98659 0.0
N1766 N 0.6599 0.0491 0.96872 0.0
N1767 N 0.58697 0.99102 0.04359 0.0
H1768 H 0.57852 0.0068 0.93841 0.0
H1769 H 0.56302 0.99775 0.98002 0.0
H1770 H 0.58901 0.98624 0.07168 0.0
H1771 H 0.57384 0.97957 0.02959 0.0
H1772 H 0.67433 0.05901 0.98273 0.0
H1773 H 0.66028 0.05159 0.94002 0.0
H1774 H 0.66162 0.04918 0.07344 0.0
H1775 H 0.66162 0.04918 0.07344 0.0
C1776 C 0.75203 0.67128 0.74658 0.0
C1777 C 0.74919 0.64739 0.72925 0.0
C1778 C 0.7425 0.6284 0.79128 0.0
C1779 C 0.75119 0.65114 0.80798 0.0
N1780 N 0.76684 0.69379 0.80116 0.0
N1781 N 0.742 0.60223 0.73621 0.0
C1782 C 0.75644 0.67258 0.78552 0.0
C1783 C 0.74418 0.62564 0.75179 0.0
N1784 N 0.75063 0.69271 0.72539 0.0
N1785 N 0.73167 0.60991 0.81297 0.0
H1786 H 0.74153 0.59906 0.70768 0.0
H1787 H 0.74209 0.5856 0.75189 0.0
H1788 H 0.72893 0.61196 0.84167 0.0
H1789 H 0.72286 0.59382 0.80209 0.0
H1790 H 0.75064 0.71087 0.73673 0.0
H1791 H 0.74661 0.69204 0.69684 0.0
H1792 H 0.77322 0.70922 0.78546 0.0
H1793 H 0.77145 0.69492 0.82943 0.0
C1794 C 0.64373 0.50581 0.98714 0.0
C1795 C 0.62186 0.49436 0.97013 0.0
C1796 C 0.59793 0.49913 0.0283 0.0
C1797 C 0.62091 0.50475 0.0478 0.0
N1798 N 0.66 0.52883 0.0407 0.0
N1799 N 0.57925 0.47689 0.97653 0.0
C1800 C 0.64277 0.51207 0.02607 0.0
C1801 C 0.59944 0.48981 0.99156 0.0
N1802 N 0.66491 0.51158 0.96597 0.0
N1803 N 0.57469 0.50679 0.04215 0.0
H1804 H 0.57998 0.46918 0.94969 0.0
H1805 H 0.56305 0.47182 0.99225 0.0
H1806 H 0.57339 0.51884 0.0652 0.0
H1807 H 0.55754 0.50475 0.02741 0.0
H1808 H 0.68259 0.51677 0.97722 0.0
H1809 H 0.66526 0.51031 0.93697 0.0
H1810 H 0.67591 0.53599 0.02641 0.0
H1811 H 0.6559 0.53885 0.06508 0.0
C1812 C 0.78791 0.33464 0.28062 0.0
C1813 C 0.78011 0.35655 0.30066 0.0
C1814 C 0.78467 0.38138 0.24309 0.0
C1815 C 0.79472 0.35988 0.22393 0.0
N1816 N 0.81161 0.31782 0.22784 0.0
N1817 N 0.75769 0.39618 0.29269 0.0
C1818 C 0.79865 0.3373 0.24431 0.0
C1819 C 0.77489 0.37874 0.27972 0.0
N1820 N 0.78027 0.31128 0.29249 0.0
N1821 N 0.78349 0.4048 0.22747 0.0
H1822 H 0.74544 0.39226 0.31513 0.0
H1823 H 0.75319 0.41265 0.27799 0.0
H1824 H 0.79081 0.40952 0.2013 0.0
H1825 H 0.79081 0.40952 0.2013 0.0
H1826 H 0.78411 0.29473 0.27766 0.0
H1827 H 0.76585 0.30918 0.31268 0.0
H1828 H 0.81663 0.30139 0.24224 0.0
H1829 H 0.81944 0.31947 0.20099 0.0
C1830 C 0.93305 0.48008 0.55396 0.0
C1831 C 0.91047 0.48512 0.57471 0.0
C1832 C 0.8912 0.50336 0.51776 0.0
C1833 C 0.91425 0.49801 0.49728 0.0
N1834 N 0.96003 0.50002 0.50864 0.0
N1835 N 0.86747 0.50366 0.57502 0.0
C1836 C 0.93628 0.49112 0.51835 0.0
C1837 C 0.88929 0.49688 0.55634 0.0
N1838 N 0.95239 0.46629 0.56956 0.0
N1839 N 0.87233 0.5179 0.50236 0.0
H1840 H 0.86415 0.50052 0.60337 0.0
H1841 H 0.86415 0.50052 0.60337 0.0
H1842 H 0.87565 0.52898 0.47876 0.0
H1843 H 0.85478 0.52146 0.51577 0.0
H1844 H 0.96892 0.46129 0.55456 0.0
H1845 H 0.95053 0.45805 0.59598 0.0
H1846 H 0.97643 0.49655 0.52457 0.0
H1847 H 0.96216 0.51487 0.4896 0.0
C1848 C 0.27985 0.38066 0.24428 0.0
C1849 C 0.27139 0.35829 0.22652 0.0
C1850 C 0.2675 0.33775 0.28738 0.0
C1851 C 0.27101 0.36145 0.30521 0.0
N1852 N 0.27637 0.40682 0.29923 0.0
N1853 N 0.2543 0.31608 0.23106 0.0
C1854 C 0.27622 0.38337 0.28336 0.0
C1855 C 0.26448 0.3369 0.24807 0.0
N1856 N 0.29238 0.39879 0.22403 0.0
N1857 N 0.26769 0.31605 0.3081 0.0
H1858 H 0.25124 0.31526 0.2023 0.0
H1859 H 0.24674 0.30074 0.24581 0.0
H1860 H 0.27121 0.31613 0.33678 0.0
H1861 H 0.26724 0.29804 0.2963 0.0
H1862 H 0.30033 0.41494 0.23592 0.0
H1863 H 0.29707 0.39635 0.19592 0.0
H1864 H 0.27779 0.42344 0.28363 0.0
H1865 H 0.2725 0.40988 0.32736 0.0
C1866 C 0.39552 0.49581 1.0032 0.0
C1867 C 0.39368 0.51633 0.97802 0.0
C1868 C 0.39837 0.54644 0.02968 0.0
C1869 C 0.40061 0.52587 0.05481 0.0
N1870 N 0.3942 0.48149 0.06751 0.0
N1871 N 0.38785 0.56066 0.96685 0.0
C1872 C 0.39693 0.50066 0.04215 0.0
C1873 C 0.39319 0.54156 0.99129 0.0
N1874 N 0.39716 0.47174 0.98957 0.0
N1875 N 0.40239 0.57047 0.04238 0.0
H1876 H 0.38412 0.55716 0.93871 0.0
H1877 H 0.38507 0.57941 0.97477 0.0
H1878 H 0.40624 0.57435 0.07038 0.0
H1879 H 0.40332 0.58631 0.02514 0.0
H1880 H 0.40152 0.45605 1.00597 0.0
H1881 H 0.3957 0.46771 0.96116 0.0
H1882 H 0.39449 0.48452 0.09627 0.0
H1883 H 0.38899 0.46311 0.06029 0.0
C1884 C 0.26299 0.67259 0.74605 0.0
C1885 C 0.2613 0.6494 0.72642 0.0
C1886 C 0.26197 0.62677 0.78638 0.0
C1887 C 0.25948 0.65019 0.80563 0.0
N1888 N 0.25111 0.69498 0.80225 0.0
N1889 N 0.25355 0.6043 0.72874 0.0
C1890 C 0.25807 0.673 0.78495 0.0
C1891 C 0.25927 0.62634 0.74675 0.0
N1892 N 0.27004 0.69416 0.72763 0.0
N1893 N 0.26803 0.60522 0.80546 0.0
H1894 H 0.24965 0.60348 0.70025 0.0
H1895 H 0.25002 0.58735 0.74279 0.0
H1896 H 0.27172 0.60507 0.83404 0.0
H1897 H 0.2722 0.58815 0.79219 0.0
H1898 H 0.27351 0.71123 0.74131 0.0
H1899 H 0.27534 0.69418 0.69946 0.0
H1900 H 0.24782 0.71177 0.78772 0.0
H1901 H 0.2457 0.69565 0.83035 0.0
C1902 C 0.15245 0.51239 0.50451 0.0
C1903 C 0.13006 0.505 0.48416 0.0
C1904 C 0.11208 0.48599 0.54078 0.0
C1905 C 0.13436 0.49204 0.56122 0.0
N1906 N 0.17651 0.51126 0.56285 0.0
N1907 N 0.08418 0.50425 0.49561 0.0
C1908 C 0.155 0.50508 0.54306 0.0
C1909 C 0.10839 0.49691 0.50538 0.0
N1910 N 0.16866 0.53006 0.48939 0.0
N1911 N 0.0936 0.47081 0.55615 0.0
H1912 H 0.08114 0.51811 0.4753 0.0
H1913 H 0.06797 0.50014 0.5119 0.0
H1914 H 0.09594 0.46219 0.58218 0.0
H1915 H 0.07741 0.46504 0.54119 0.0
H1916 H 0.18502 0.5371 0.50243 0.0
H1917 H 0.16338 0.5408 0.46626 0.0
H1918 H 0.19345 0.51791 0.55066 0.0
H1919 H 0.17805 0.50853 0.59152 0.0
C1920 C 0.31151 0.04884 0.17649 0.0
C1921 C 0.33663 0.0452 0.16231 0.0
C1922 C 0.32679 0.07155 0.10811 0.0
C1923 C 0.30151 0.07529 0.12262 0.0
N1924 N 0.27494 0.0751 0.17899 0.0
N1925 N 0.37086 0.06037 0.12223 0.0
C1926 C 0.29541 0.06637 0.15908 0.0
C1927 C 0.34524 0.05901 0.13067 0.0
N1928 N 0.30298 0.0363 0.20758 0.0
N1929 N 0.33299 0.07839 0.07234 0.0
H1930 H 0.38494 0.05171 0.13839 0.0
H1931 H 0.3782 0.07248 0.10178 0.0
H1932 H 0.32038 0.08746 0.05431 0.0
H1933 H 0.35021 0.07312 0.05942 0.0
H1934 H 0.28428 0.03847 0.21805 0.0
H1935 H 0.3142 0.02342 0.22221 0.0
H1936 H 0.26368 0.09032 0.1706 0.0
H1937 H 0.26368 0.09032 0.1706 0.0
C1938 C 0.17693 0.06244 0.36476 0.0
C1939 C 0.1782 0.03727 0.3789 0.0
C1940 C 0.20806 0.05116 0.42742 0.0
C1941 C 0.20588 0.07628 0.41432 0.0
N1942 N 0.18299 0.10711 0.37764 0.0
N1943 N 0.18827 0.01047 0.43205 0.0
C1944 C 0.18825 0.0824 0.38568 0.0
C1945 C 0.19176 0.03246 0.4127 0.0
N1946 N 0.16704 0.06722 0.33015 0.0
N1947 N 0.226 0.04488 0.4537 0.0
H1948 H 0.17493 0.99705 0.42432 0.0
H1949 H 0.19569 0.00717 0.4586 0.0
H1950 H 0.23709 0.05813 0.46784 0.0
H1951 H 0.23095 0.02624 0.45992 0.0
H1952 H 0.16823 0.08487 0.31725 0.0
H1953 H 0.16015 0.05323 0.31239 0.0
H1954 H 0.16853 0.11258 0.35924 0.0
H1955 H 0.19151 0.12215 0.3918 0.0
C1956 C 0.22424 0.95345 0.65887 0.0
C1957 C 0.2159 0.93476 0.63327 0.0
C1958 C 0.172 0.93838 0.6598 0.0
C1959 C 0.18164 0.95629 0.68534 0.0
N1960 N 0.21791 0.97083 0.72031 0.0
N1961 N 0.18024 0.91167 0.60587 0.0
C1962 C 0.20832 0.95947 0.6892 0.0
C1963 C 0.18928 0.92743 0.63301 0.0
N1964 N 0.24599 0.9674 0.65237 0.0
N1965 N 0.14633 0.93276 0.66068 0.0
H1966 H 0.18996 0.90885 0.5807 0.0
H1967 H 0.16228 0.90296 0.60666 0.0
H1968 H 0.13425 0.93973 0.68165 0.0
H1969 H 0.13709 0.92078 0.64204 0.0
H1970 H 0.25185 0.98203 0.66993 0.0
H1971 H 0.25558 0.96718 0.62667 0.0
H1972 H 0.23764 0.97272 0.72508 0.0
H1973 H 0.20587 0.9756 0.74264 0.0
C1974 C 0.34074 0.9432 0.91251 0.0
C1975 C 0.33434 0.95487 0.87809 0.0
C1976 C 0.29292 0.93383 0.87947 0.0
C1977 C 0.29666 0.92756 0.91751 0.0
N1978 N 0.32604 0.92412 0.96975 0.0
N1979 N 0.30301 0.96259 0.8297 0.0
C1980 C 0.32117 0.93135 0.93387 0.0
C1981 C 0.31011 0.95046 0.86173 0.0
N1982 N 0.36513 0.9436 0.92606 0.0
N1983 N 0.27378 0.92276 0.85947 0.0
H1984 H 0.31514 0.97469 0.81504 0.0
H1985 H 0.28458 0.96143 0.81855 0.0
H1986 H 0.26174 0.90928 0.87113 0.0
H1987 H 0.27247 0.92429 0.83052 0.0
H1988 H 0.3808 0.95087 0.91117 0.0
H1989 H 0.3808 0.95087 0.91117 0.0
H1990 H 0.34389 0.92713 0.98233 0.0
H1991 H 0.31226 0.91585 0.98713 0.0
C1992 C 0.69243 0.93711 0.84814 0.0
C1993 C 0.70086 0.96258 0.8447 0.0
C1994 C 0.72961 0.95759 0.89699 0.0
C1995 C 0.72209 0.93199 0.9008 0.0
N1996 N 0.69959 0.89571 0.87541 0.0
N1997 N 0.73677 0.991 0.85252 0.0
C1998 C 0.70425 0.92116 0.87525 0.0
C1999 C 0.72259 0.97082 0.86472 0.0
N2000 N 0.67366 0.92804 0.8252 0.0
N2001 N 0.7432 0.96942 0.92452 0.0
H2002 H 0.73315 0.99975 0.82691 0.0
H2003 H 0.75383 0.99667 0.86534 0.0
H2004 H 0.74726 0.96069 0.95 0.0
H2005 H 0.74777 0.98863 0.92353 0.0
H2006 H 0.66367 0.91125 0.83018 0.0
H2007 H 0.66852 0.93718 0.80053 0.0
H2008 H 0.68963 0.88636 0.85436 0.0
H2009 H 0.70658 0.8835 0.89571 0.0
C2010 C 0.85448 0.94121 0.65949 0.0
C2011 C 0.84076 0.9601 0.6797 0.0
C2012 C 0.80335 0.95304 0.6424 0.0
C2013 C 0.81471 0.93174 0.62508 0.0
N2014 N 0.85206 0.90415 0.61973 0.0
N2015 N 0.79918 0.97475 0.70081 0.0
C2016 C 0.84059 0.92515 0.63442 0.0
C2017 C 0.81392 0.96189 0.67552 0.0
N2018 N 0.88056 0.93916 0.66285 0.0
N2019 N 0.78359 0.96593 0.62608 0.0
H2020 H 0.80686 0.98188 0.72556 0.0
H2021 H 0.77927 0.9764 0.6981 0.0
H2022 H 0.77767 0.96216 0.59881 0.0
H2023 H 0.77576 0.98234 0.63771 0.0
H2024 H 0.89188 0.92839 0.64475 0.0
H2025 H 0.89095 0.94859 0.68334 0.0
H2026 H 0.86936 0.89693 0.62979 0.0
H2027 H 0.84436 0.89362 0.59801 0.0
C2028 C 0.85177 0.07406 0.36621 0.0
C2029 C 0.83841 0.05241 0.35238 0.0
C2030 C 0.80259 0.06176 0.39261 0.0
C2031 C 0.81319 0.08535 0.40276 0.0
N2032 N 0.84718 0.11625 0.39221 0.0
N2033 N 0.79628 0.0348 0.33986 0.0
C2034 C 0.83767 0.09239 0.38762 0.0
C2035 C 0.81201 0.04979 0.36079 0.0
N2036 N 0.87753 0.07712 0.36003 0.0
N2037 N 0.78443 0.05002 0.41419 0.0
H2038 H 0.80261 0.0264 0.31504 0.0
H2039 H 0.77658 0.03317 0.34551 0.0
H2040 H 0.77914 0.05688 0.44049 0.0
H2041 H 0.77759 0.03194 0.40787 0.0
H2042 H 0.88838 0.09085 0.37374 0.0
H2043 H 0.88824 0.06561 0.34231 0.0
H2044 H 0.86362 0.12268 0.37827 0.0
H2045 H 0.8378 0.13022 0.40749 0.0
C2046 C 0.66745 0.08733 0.13209 0.0
C2047 C 0.67288 0.07839 0.16824 0.0
C2048 C 0.71475 0.09839 0.16576 0.0
C2049 C 0.71274 0.09997 0.12629 0.0
N2050 N 0.6849 0.10104 0.07221 0.0
N2051 N 0.69945 0.07878 0.22244 0.0
C2052 C 0.68814 0.09665 0.10949 0.0
C2053 C 0.69548 0.08589 0.18634 0.0
N2054 N 0.64279 0.08552 0.11943 0.0
N2055 N 0.73455 0.10967 0.18381 0.0
H2056 H 0.68486 0.07014 0.23777 0.0
H2057 H 0.71708 0.08027 0.23606 0.0
H2058 H 0.74876 0.11912 0.16928 0.0
H2059 H 0.73498 0.11218 0.21267 0.0
H2060 H 0.63662 0.09261 0.09387 0.0
H2061 H 0.62813 0.07818 0.13641 0.0
H2062 H 0.66763 0.09826 0.05822 0.0
H2063 H 0.69976 0.10688 0.05461 0.0
C2064 C 0.83864 0.5687 0.61686 0.0
C2065 C 0.8144 0.57575 0.63222 0.0
C2066 C 0.82192 0.54936 0.68656 0.0
C2067 C 0.84686 0.54374 0.67307 0.0
N2068 N 0.88133 0.55217 0.62936 0.0
N2069 N 0.78945 0.58128 0.68867 0.0
C2070 C 0.85614 0.555 0.63964 0.0
C2071 C 0.80797 0.56865 0.66918 0.0
N2072 N 0.84439 0.57364 0.58032 0.0
N2073 N 0.81102 0.53599 0.71525 0.0
H2074 H 0.78064 0.59734 0.67797 0.0
H2075 H 0.78598 0.57803 0.717 0.0
H2076 H 0.82061 0.52174 0.72957 0.0
H2077 H 0.79171 0.53801 0.72292 0.0
H2078 H 0.86056 0.56632 0.56677 0.0
H2079 H 0.83198 0.5833 0.56265 0.0
H2080 H 0.88962 0.56157 0.60668 0.0
H2081 H 0.89445 0.54219 0.64562 0.0
C2082 C 0.72406 0.55366 0.89486 0.0
C2083 C 0.71341 0.57703 0.9066 0.0
C2084 C 0.67295 0.56475 0.87658 0.0
C2085 C 0.68567 0.5435 0.86054 0.0
N2086 N 0.72658 0.52562 0.84239 0.0
N2087 N 0.67869 0.60752 0.89892 0.0
C2088 C 0.71235 0.54068 0.8655 0.0
C2089 C 0.68809 0.58356 0.89474 0.0
N2090 N 0.7443 0.54285 0.913 0.0
N2091 N 0.64675 0.56677 0.87606 0.0
H2092 H 0.68926 0.62244 0.90991 0.0
H2093 H 0.66118 0.61317 0.88748 0.0
H2094 H 0.63476 0.55359 0.86338 0.0
H2095 H 0.63688 0.58067 0.89102 0.0
H2096 H 0.75169 0.52527 0.90522 0.0
H2097 H 0.75086 0.54951 0.93867 0.0
H2098 H 0.74662 0.52457 0.84426 0.0
H2099 H 0.71859 0.51678 0.81909 0.0
C2100 C 0.6966 0.42546 0.18384 0.0
C2101 C 0.67824 0.43857 0.16267 0.0
C2102 C 0.69568 0.41967 0.10531 0.0
C2103 C 0.71772 0.41213 0.1259 0.0
N2104 N 0.73409 0.40015 0.18662 0.0
N2105 N 0.65605 0.44433 0.10487 0.0
C2106 C 0.71668 0.41266 0.16549 0.0
C2107 C 0.67624 0.43408 0.12381 0.0
N2108 N 0.69505 0.4254 0.22181 0.0
N2109 N 0.69306 0.41263 0.06883 0.0
H2110 H 0.6405 0.45238 0.11909 0.0
H2111 H 0.65466 0.44493 0.0759 0.0
H2112 H 0.70587 0.40041 0.05559 0.0
H2113 H 0.67696 0.41664 0.05271 0.0
H2114 H 0.70893 0.41697 0.23877 0.0
H2115 H 0.67868 0.43201 0.2355 0.0
H2116 H 0.74851 0.38881 0.1753 0.0
H2117 H 0.74851 0.38881 0.1753 0.0
C2118 C 0.86541 0.41298 0.35522 0.0
C2119 C 0.88008 0.43134 0.3739 0.0
C2120 C 0.86639 0.41483 0.43437 0.0
C2121 C 0.84723 0.40101 0.41559 0.0
N2122 N 0.83838 0.37572 0.36181 0.0
N2123 N 0.90548 0.43986 0.42789 0.0
C2124 C 0.85003 0.39632 0.37691 0.0
C2125 C 0.88432 0.42886 0.41266 0.0
N2126 N 0.86578 0.4122 0.3172 0.0
N2127 N 0.86683 0.41493 0.47239 0.0
H2128 H 0.91939 0.44819 0.41068 0.0
H2129 H 0.91042 0.43838 0.45596 0.0
H2130 H 0.85549 0.40235 0.48781 0.0
H2131 H 0.87851 0.42689 0.48806 0.0
H2132 H 0.85338 0.40104 0.30142 0.0
H2133 H 0.87898 0.42302 0.30188 0.0
H2134 H 0.82967 0.36234 0.37916 0.0
H2135 H 0.83999 0.37055 0.33383 0.0
C2136 C 0.19359 0.43421 0.42104 0.0
C2137 C 0.21953 0.43426 0.40751 0.0
C2138 C 0.20378 0.44143 0.34462 0.0
C2139 C 0.17938 0.44723 0.35881 0.0
N2140 N 0.14879 0.44537 0.40871 0.0
N2141 N 0.24815 0.44893 0.35787 0.0
C2142 C 0.17342 0.44159 0.39642 0.0
C2143 C 0.22452 0.44072 0.36958 0.0
N2144 N 0.18851 0.42856 0.45761 0.0
N2145 N 0.20741 0.43958 0.30705 0.0
H2146 H 0.26253 0.45431 0.37631 0.0
H2147 H 0.25167 0.45488 0.33051 0.0
H2148 H 0.19185 0.44049 0.28877 0.0
H2149 H 0.22504 0.43432 0.29528 0.0
H2150 H 0.17006 0.4255 0.4682 0.0
H2151 H 0.20294 0.4272 0.47767 0.0
H2152 H 0.14307 0.44461 0.43659 0.0
H2153 H 0.13407 0.44979 0.39003 0.0
C2154 C 0.33642 0.42334 0.14031 0.0
C2155 C 0.31948 0.43 0.11108 0.0
C2156 C 0.33424 0.47366 0.11428 0.0
C2157 C 0.34715 0.46836 0.14843 0.0
N2158 N 0.35836 0.43737 0.19587 0.0
N2159 N 0.30068 0.46208 0.07154 0.0
C2160 C 0.34811 0.4429 0.16174 0.0
C2161 C 0.31797 0.4553 0.09846 0.0
N2162 N 0.34079 0.39843 0.1483 0.0
N2163 N 0.33848 0.49574 0.0955 0.0
H2164 H 0.28979 0.44908 0.05657 0.0
H2165 H 0.29604 0.48084 0.06562 0.0
H2166 H 0.35199 0.50876 0.10399 0.0
H2167 H 0.33159 0.49941 0.06874 0.0
H2168 H 0.35492 0.39236 0.16681 0.0
H2169 H 0.33199 0.38369 0.13385 0.0
H2170 H 0.3566 0.41971 0.20856 0.0
H2171 H 0.36652 0.45071 0.21351 0.0
C2172 C 0.31009 0.55548 0.86041 0.0
C2173 C 0.33663 0.56023 0.85624 0.0
C2174 C 0.332 0.59464 0.90206 0.0
C2175 C 0.30704 0.58498 0.91151 0.0
N2176 N 0.28027 0.54753 0.90995 0.0
N2177 N 0.37364 0.58521 0.87367 0.0
C2178 C 0.29841 0.56275 0.89375 0.0
C2179 C 0.34793 0.58033 0.87689 0.0
N2180 N 0.29695 0.54132 0.83497 0.0
N2181 N 0.34065 0.61694 0.91651 0.0
H2182 H 0.38527 0.57652 0.85368 0.0
H2183 H 0.38346 0.59735 0.89158 0.0
H2184 H 0.3311 0.62692 0.93735 0.0
H2185 H 0.35722 0.62598 0.90672 0.0
H2186 H 0.27716 0.53807 0.83737 0.0
H2187 H 0.30561 0.53487 0.81039 0.0
H2188 H 0.2745 0.53044 0.89803 0.0
H2189 H 0.27395 0.55047 0.93735 0.0
C2190 C 0.22322 0.55244 0.61674 0.0
C2191 C 0.21573 0.57801 0.61839 0.0
C2192 C 0.18674 0.56794 0.67073 0.0
C2193 C 0.19668 0.54278 0.67059 0.0
N2194 N 0.23457 0.51817 0.6569 0.0
N2195 N 0.19238 0.61136 0.64986 0.0
C2196 C 0.21788 0.53693 0.64741 0.0
C2197 C 0.19769 0.58619 0.64583 0.0
N2198 N 0.23677 0.54335 0.58685 0.0
N2199 N 0.16789 0.57483 0.69541 0.0
H2200 H 0.19887 0.62509 0.63119 0.0
H2201 H 0.18236 0.61883 0.67259 0.0
H2202 H 0.16363 0.56455 0.71948 0.0
H2203 H 0.15703 0.59128 0.69253 0.0
H2204 H 0.24157 0.52425 0.58425 0.0
H2205 H 0.24069 0.55447 0.56335 0.0
H2206 H 0.25119 0.51419 0.64146 0.0
H2207 H 0.23393 0.51003 0.68342 0.0
C2208 C 0.26991 0.23477 0.0607 0.0
C2209 C 0.26077 0.22239 0.02812 0.0
C2210 C 0.25666 0.26341 0.99621 0.0
C2211 C 0.26622 0.27569 0.02856 0.0
N2212 N 0.28638 0.27319 0.08899 0.0
N2213 N 0.24942 0.22384 0.96308 0.0
C2214 C 0.27433 0.26135 0.05993 0.0
C2215 C 0.25541 0.23642 0.99524 0.0
N2216 N 0.27331 0.22124 0.09294 0.0
N2217 N 0.24803 0.27766 0.96694 0.0
H2218 H 0.24799 0.20416 0.96179 0.0
H2219 H 0.24767 0.2326 0.93716 0.0
H2220 H 0.24969 0.29734 0.96624 0.0
H2221 H 0.23812 0.27025 0.94425 0.0
H2222 H 0.2767 0.22949 0.11884 0.0
H2223 H 0.27104 0.20165 0.09455 0.0
H2224 H 0.29532 0.26362 0.11077 0.0
H2225 H 0.28934 0.2927 0.08998 0.0
C2226 C 0.99551 0.96803 0.32206 0.0
C2227 C 0.98107 0.96596 0.28854 0.0
C2228 C 0.02159 0.96635 0.25205 0.0
C2229 C 0.03595 0.96706 0.28571 0.0
N2230 N 0.03664 0.9636 0.35297 0.0
N2231 N 0.98027 0.95888 0.22214 0.0
C2232 C 0.02289 0.96628 0.32074 0.0
C2233 C 0.99414 0.96388 0.25363 0.0
N2234 N 0.9832 0.97307 0.3551 0.0
N2235 N 0.03421 0.96846 0.21857 0.0
H2236 H 0.96028 0.95679 0.22249 0.0
H2237 H 0.9886 0.9547 0.19636 0.0
H2238 H 0.05425 0.96928 0.21643 0.0
H2239 H 0.02489 0.97096 0.19316 0.0
H2240 H 0.99279 0.9781 0.37947 0.0
H2241 H 0.96326 0.97433 0.35771 0.0
H2242 H 0.02819 0.95981 0.37884 0.0
H2243 H 0.05668 0.96297 0.35359 0.0
C2244 C 0.24556 0.74535 0.55874 0.0
C2245 C 0.25686 0.73265 0.52778 0.0
C2246 C 0.27092 0.77336 0.5014 0.0
C2247 C 0.25938 0.78597 0.53221 0.0
N2248 N 0.23047 0.7848 0.58523 0.0
N2249 N 0.27584 0.73418 0.46638 0.0
C2250 C 0.24489 0.7722 0.55914 0.0
C2251 C 0.26808 0.74661 0.49796 0.0
N2252 N 0.23693 0.73183 0.58895 0.0
N2253 N 0.28522 0.78691 0.47619 0.0
H2254 H 0.27393 0.71463 0.46332 0.0
H2255 H 0.28218 0.74328 0.44221 0.0
H2256 H 0.28672 0.8066 0.47719 0.0
H2257 H 0.29657 0.7787 0.45545 0.0
H2258 H 0.23176 0.74008 0.61431 0.0
H2259 H 0.23673 0.71213 0.58993 0.0
H2260 H 0.21731 0.77589 0.60296 0.0
H2261 H 0.22982 0.80445 0.58696 0.0
C2262 C 0.49776 0.03427 0.77662 0.0
C2263 C 0.48554 0.01056 0.7705 0.0
C2264 C 0.52686 0.99394 0.74671 0.0
C2265 C 0.53951 0.01586 0.76053 0.0
N2266 N 0.53209 0.0606 0.7537 0.0
N2267 N 0.48802 0.96827 0.74514 0.0
C2268 C 0.52378 0.03749 0.76561 0.0
C2269 C 0.49993 0.99053 0.75385 0.0
N2270 N 0.48514 0.05359 0.79415 0.0
N2271 N 0.53963 0.97856 0.72229 0.0
H2272 H 0.46811 0.96581 0.74707 0.0
H2273 H 0.49802 0.95199 0.73745 0.0
H2274 H 0.55799 0.9832 0.71229 0.0
H2275 H 0.53108 0.96345 0.7084 0.0
H2276 H 0.49445 0.0704 0.80134 0.0
H2277 H 0.46641 0.052 0.80454 0.0
H2278 H 0.52035 0.07662 0.75411 0.0
H2279 H 0.54912 0.06254 0.73826 0.0
C2280 C 0.23406 0.77193 0.04042 0.0
C2281 C 0.23889 0.78638 1.00766 0.0
C2282 C 0.24824 0.74755 0.97244 0.0
C2283 C 0.24461 0.73316 1.00561 0.0
N2284 N 0.23718 0.7312 0.07195 0.0
N2285 N 0.25401 0.78879 0.94383 0.0
C2286 C 0.23843 0.74525 0.03989 0.0
C2287 C 0.24698 0.7744 0.97405 0.0
N2288 N 0.22474 0.78371 0.07167 0.0
N2289 N 0.25209 0.73544 0.93906 0.0
H2290 H 0.25239 0.80844 0.94318 0.0
H2291 H 0.26312 0.78153 0.92019 0.0
H2292 H 0.25426 0.71588 0.93671 0.0
H2293 H 0.25151 0.74449 0.91324 0.0
H2294 H 0.21829 0.77417 0.09538 0.0
H2295 H 0.22192 0.80324 0.07308 0.0
H2296 H 0.23522 0.73895 0.09853 0.0
H2297 H 0.23987 0.71164 0.07223 0.0
C2298 C 0.53116 0.97955 0.20194 0.0
C2299 C 0.5455 0.97813 0.23562 0.0
C2300 C 0.50499 0.97911 0.27188 0.0
C2301 C 0.49075 0.9796 0.23812 0.0
N2302 N 0.49011 0.9732 0.17144 0.0
N2303 N 0.54607 0.97111 0.30205 0.0
C2304 C 0.50383 0.97751 0.2033 0.0
C2305 C 0.53235 0.97613 0.27044 0.0
N2306 N 0.54338 0.98444 0.16875 0.0
N2307 N 0.49254 0.98264 0.30521 0.0
H2308 H 0.56602 0.96868 0.3017 0.0
H2309 H 0.53755 0.96707 0.32778 0.0
H2310 H 0.4726 0.98468 0.30731 0.0
H2311 H 0.50207 0.98533 0.33042 0.0
H2312 H 0.5336 0.98876 0.14423 0.0
H2313 H 0.56328 0.98638 0.16613 0.0
H2314 H 0.4987 0.96892 0.14584 0.0
H2315 H 0.47011 0.97133 0.17135 0.0
C2316 C 0.24762 0.24462 0.46778 0.0
C2317 C 0.25568 0.23047 0.49935 0.0
C2318 C 0.26485 0.26992 0.5331 0.0
C2319 C 0.25964 0.28381 0.50004 0.0
N2320 N 0.24869 0.28458 0.43455 0.0
N2321 N 0.27312 0.22888 0.56146 0.0
C2322 C 0.25151 0.27123 0.46708 0.0
C2323 C 0.26445 0.24293 0.53201 0.0
N2324 N 0.23612 0.23255 0.43846 0.0
N2325 N 0.26985 0.28263 0.56551 0.0
H2326 H 0.27208 0.20916 0.562 0.0
H2327 H 0.28249 0.23656 0.58445 0.0
H2328 H 0.27059 0.30234 0.5669 0.0
H2329 H 0.27143 0.27387 0.59145 0.0
H2330 H 0.22722 0.242 0.41649 0.0
H2331 H 0.23347 0.21301 0.43747 0.0
H2332 H 0.24604 0.27614 0.40859 0.0
H2333 H 0.2509 0.30416 0.43276 0.0
C2334 C 0.022 0.0459 0.69675 0.0
C2335 C 0.03622 0.04867 0.73039 0.0
C2336 C 0.99568 0.0564 0.76497 0.0
C2337 C 0.98142 0.05106 0.73216 0.0
N2338 N 0.98058 0.03983 0.66692 0.0
N2339 N 0.03707 0.05621 0.79669 0.0
C2340 C 0.99451 0.04593 0.69797 0.0
C2341 C 0.02315 0.05397 0.76454 0.0
N2342 N 0.0348 0.04316 0.66347 0.0
N2343 N 0.98284 0.06429 0.79631 0.0
H2344 H 0.05717 0.05604 0.797 0.0
H2345 H 0.02891 0.05715 0.82326 0.0
H2346 H 0.96284 0.06624 0.79725 0.0
H2347 H 0.99185 0.07072 0.82038 0.0
H2348 H 0.02597 0.04438 0.6375 0.0
H2349 H 0.0547 0.04116 0.66133 0.0
H2350 H 0.98852 0.03223 0.64266 0.0
H2351 H 0.96061 0.04122 0.66582 0.0
C2352 C 0.75714 0.76987 0.04413 0.0
C2353 C 0.74863 0.78373 1.0125 0.0
C2354 C 0.73702 0.74415 0.98084 0.0
C2355 C 0.74593 0.7302 1.01219 0.0
N2356 N 0.75964 0.72923 0.07616 0.0
N2357 N 0.72565 0.78473 0.95405 0.0
C2358 C 0.75438 0.74297 0.04474 0.0
C2359 C 0.73683 0.77104 0.98208 0.0
N2360 N 0.76857 0.78245 0.07299 0.0
N2361 N 0.73026 0.73168 0.94889 0.0
H2362 H 0.72618 0.8044 0.95272 0.0
H2363 H 0.71408 0.77677 0.9335 0.0
H2364 H 0.72911 0.71206 0.94716 0.0
H2365 H 0.72725 0.74058 0.92334 0.0
H2366 H 0.77787 0.77353 0.09505 0.0
H2367 H 0.76967 0.80216 0.07407 0.0
H2368 H 0.7639 0.73724 0.10194 0.0
H2369 H 0.75774 0.70957 0.07711 0.0
C2370 C 0.75114 0.2519 0.53183 0.0
C2371 C 0.7556 0.23775 0.49881 0.0
C2372 C 0.75207 0.2764 0.461 0.0
C2373 C 0.74668 0.29062 0.49392 0.0
N2374 N 0.73634 0.29137 0.55952 0.0
N2375 N 0.75591 0.23544 0.43141 0.0
C2376 C 0.74483 0.27815 0.52906 0.0
C2377 C 0.75476 0.24971 0.46328 0.0
N2378 N 0.75337 0.24029 0.56579 0.0
N2379 N 0.75587 0.28837 0.42756 0.0
H2380 H 0.75941 0.21603 0.43136 0.0
H2381 H 0.75162 0.24246 0.40497 0.0
H2382 H 0.75199 0.30737 0.42313 0.0
H2383 H 0.76415 0.27969 0.4043 0.0
H2384 H 0.75292 0.24989 0.59116 0.0
H2385 H 0.75755 0.22106 0.56851 0.0
H2386 H 0.73234 0.28314 0.58534 0.0
H2387 H 0.73107 0.3104 0.55802 0.0
C2388 C 0.77966 0.24188 0.05569 0.0
C2389 C 0.78565 0.22877 0.02212 0.0
C2390 C 0.79248 0.26927 0.98963 0.0
C2391 C 0.78825 0.28222 0.02385 0.0
N2392 N 0.78064 0.28114 0.09048 0.0
N2393 N 0.80001 0.22912 0.95809 0.0
C2394 C 0.78261 0.26858 0.05716 0.0
C2395 C 0.79266 0.24224 0.98927 0.0
N2396 N 0.77054 0.22879 0.08605 0.0
N2397 N 0.79593 0.2829 0.95749 0.0
H2398 H 0.79961 0.2094 0.95677 0.0
H2399 H 0.80789 0.23753 0.93434 0.0
H2400 H 0.79669 0.30263 0.95715 0.0
H2401 H 0.79652 0.27489 0.93096 0.0
H2402 H 0.7627 0.23737 0.10967 0.0
H2403 H 0.76902 0.20914 0.08682 0.0
H2404 H 0.78001 0.27216 0.11637 0.0
H2405 H 0.78139 0.30077 0.09277 0.0
C2406 C 0.76825 0.76412 0.49965 0.0
C2407 C 0.7737 0.77739 0.53312 0.0
C2408 C 0.78052 0.73721 0.56616 0.0
C2409 C 0.77236 0.72394 0.53381 0.0
N2410 N 0.75766 0.72398 0.47015 0.0
N2411 N 0.78377 0.77727 0.59885 0.0
C2412 C 0.76619 0.73719 0.50051 0.0
C2413 C 0.7798 0.76411 0.56645 0.0
N2414 N 0.76526 0.77737 0.46714 0.0
N2415 N 0.789 0.72403 0.59666 0.0
H2416 H 0.78463 0.79697 0.60001 0.0
H2417 H 0.78481 0.76888 0.62512 0.0
H2418 H 0.78864 0.70434 0.59844 0.0
H2419 H 0.79807 0.7324 0.61938 0.0
H2420 H 0.76349 0.76898 0.441 0.0
H2421 H 0.7664 0.79707 0.46595 0.0
H2422 H 0.75014 0.7324 0.4463 0.0
H2423 H 0.75692 0.70425 0.4695 0.0
C2424 C 0.52523 0.48033 0.81689 0.0
C2425 C 0.5375 0.47749 0.78151 0.0
C2426 C 0.49499 0.47306 0.75175 0.0
C2427 C 0.48275 0.47789 0.78666 0.0
N2428 N 0.48614 0.48936 0.85169 0.0
N2429 N 0.53453 0.47336 0.71475 0.0
C2430 C 0.49788 0.48225 0.81905 0.0
C2431 C 0.52248 0.47446 0.74876 0.0
N2432 N 0.53975 0.48087 0.84868 0.0
N2433 N 0.48029 0.46645 0.72173 0.0
H2434 H 0.55454 0.47347 0.7118 0.0
H2435 H 0.52487 0.4739 0.68937 0.0
H2436 H 0.46023 0.46534 0.72306 0.0
H2437 H 0.48786 0.46024 0.69637 0.0
H2438 H 0.53201 0.47952 0.8755 0.0
H2439 H 0.55982 0.48094 0.84848 0.0
H2440 H 0.49603 0.49616 0.87483 0.0
H2441 H 0.46624 0.4902 0.85503 0.0
C2442 C 0.03302 0.53641 0.33903 0.0
C2443 C 0.04536 0.54137 0.30417 0.0
C2444 C 1.00285 0.54885 0.27558 0.0
C2445 C 0.99051 0.54107 0.30924 0.0
N2446 N 0.99388 0.5256 0.37254 0.0
N2447 N 0.04237 0.5516 0.2388 0.0
C2448 C 1.00562 0.53472 0.34098 0.0
C2449 C 0.03033 0.54751 0.27233 0.0
N2450 N 0.04751 0.53319 0.3705 0.0
N2451 N 0.9882 0.55809 0.24704 0.0
H2452 H 0.06238 0.55215 0.23594 0.0
H2453 H 0.03272 0.55322 0.21352 0.0
H2454 H 0.96818 0.55949 0.24886 0.0
H2455 H 0.9958 0.56628 0.22293 0.0
H2456 H 0.03983 0.53299 0.39743 0.0
H2457 H 0.06754 0.53243 0.3703 0.0
H2458 H 1.00367 0.51695 0.39439 0.0
H2459 H 0.97403 0.52526 0.37624 0.0
C2460 C 0.03454 0.48191 0.79989 0.0
C2461 C 0.04679 0.48402 0.76445 0.0
C2462 C 1.00468 0.48526 0.73369 0.0
C2463 C 0.99233 0.48487 0.76925 0.0
N2464 N 0.99496 0.48548 0.83634 0.0
N2465 N 0.04397 0.49178 0.69813 0.0
C2466 C 1.00713 0.48397 0.80246 0.0
C2467 C 0.03196 0.48683 0.7315 0.0
N2468 N 0.04911 0.47735 0.83086 0.0
N2469 N 0.99032 0.48351 0.70186 0.0
H2470 H 0.06393 0.49246 0.69496 0.0
H2471 H 0.03424 0.49722 0.67407 0.0
H2472 H 0.97027 0.48309 0.70195 0.0
H2473 H 0.9982 0.48048 0.67543 0.0
H2474 H 0.04141 0.47304 0.85701 0.0
H2475 H 0.06917 0.47626 0.82988 0.0
H2476 H 1.00456 0.48755 0.8616 0.0
H2477 H 0.97495 0.48625 0.83904 0.0
C2478 C 0.50359 0.53079 0.21135 0.0
C2479 C 0.49055 0.53065 0.24637 0.0
C2480 C 0.53246 0.53112 0.27842 0.0
C2481 C 0.54529 0.52845 0.24345 0.0
N2482 N 0.54255 0.52097 0.17699 0.0
N2483 N 0.4922 0.52865 0.31349 0.0
C2484 C 0.53071 0.5271 0.21 0.0
C2485 C 0.50491 0.53024 0.28003 0.0
N2486 N 0.49013 0.53481 0.17917 0.0
N2487 N 0.54662 0.53521 0.30992 0.0
H2488 H 0.47215 0.52898 0.31563 0.0
H2489 H 0.50138 0.52546 0.33885 0.0
H2490 H 0.56671 0.53605 0.30957 0.0
H2491 H 0.53856 0.53979 0.33573 0.0
H2492 H 0.49891 0.53806 0.15336 0.0
H2493 H 0.47026 0.53731 0.17863 0.0
H2494 H 0.53254 0.5166 0.15269 0.0
H2495 H 0.56229 0.5179 0.17446 0.0
loop_
_geom_bond_atom_site_label_1
_geom_bond_atom_site_label_2
_geom_bond_distance
_geom_bond_site_symmetry_2
_ccdc_geom_bond_type
Co0 N4 2.148 . S
Co0 N10 2.128 . S
Co0 N20 2.194 . S
Co0 O25 2.351 . S
Co0 O26 2.155 . S
Co0 O27 2.096 . S
C1 N4 1.301 . S
C1 N5 1.328 1_554 S
C1 H6 0.930 . S
C2 C3 1.333 1_554 S
C2 N4 1.317 . S
C2 H7 0.930 . S
C3 C2 1.333 1_556 S
C3 N5 1.350 . S
C3 H29 0.931 . S
N4 Co0 2.148 . S
N4 C1 1.301 . S
N4 C2 1.317 . S
N5 C1 1.328 1_556 S
N5 C3 1.350 . S
H6 C1 0.930 . S
H7 C2 0.930 . S
C8 O9 1.224 . S
C8 O27 1.247 . S
O9 C8 1.224 . S
N10 Co0 2.128 . S
N10 C11 1.355 . S
N10 C13 1.311 . S
C11 N10 1.355 . S
C11 C12 1.363 . S
C11 H23 0.929 . S
C12 C11 1.363 . S
C12 N14 1.375 . S
C12 H30 0.931 . S
C13 N10 1.311 . S
C13 N14 1.347 . S
C13 H24 0.929 . S
N14 C12 1.375 . S
N14 C13 1.347 . S
C15 C18 1.365 . S
C15 N20 1.328 . S
C15 H21 0.929 . S
C16 C17 1.362 . S
C16 C19 1.378 . S
C16 H31 0.929 . S
C17 C16 1.362 . S
C17 C18 1.366 . S
C18 C15 1.365 . S
C18 C17 1.366 . S
C18 H32 0.930 . S
C19 C16 1.378 . S
C19 N20 1.315 . S
C19 H22 0.930 . S
N20 Co0 2.194 . S
N20 C15 1.328 . S
N20 C19 1.315 . S
H21 C15 0.929 . S
H22 C19 0.930 . S
H23 C11 0.929 . S
H24 C13 0.929 . S
O25 Co0 2.351 . S
O25 C28 1.244 . S
O26 Co0 2.155 . S
O26 C28 1.240 . S
O27 Co0 2.096 . S
O27 C8 1.247 . S
C28 O25 1.244 . S
C28 O26 1.240 . S
H29 C3 0.931 . S
H30 C12 0.931 . S
H31 C16 0.929 . S
H32 C18 0.930 . S
Co33 N37 2.141 1_545 S
Co33 N43 2.133 . S
Co33 N53 2.192 1_545 S
Co33 O58 2.397 . S
Co33 O59 2.186 . S
Co33 O60 2.062 1_545 S
C34 N37 1.301 1_545 S
C34 N38 1.334 . S
C34 H39 0.930 . S
C35 C36 1.333 . S
C35 N37 1.317 . S
C35 H40 0.930 . S
C36 C35 1.333 . S
C36 N38 1.338 1_565 S
C36 H62 0.931 . S
N37 Co33 2.141 1_565 S
N37 C34 1.301 1_565 S
N37 C35 1.317 . S
N38 C34 1.334 . S
N38 C36 1.338 1_545 S
H39 C34 0.930 . S
H40 C35 0.930 . S
C41 O42 1.224 . S
C41 O60 1.247 . S
O42 C41 1.224 . S
N43 Co33 2.133 . S
N43 C44 1.355 . S
N43 C46 1.311 1_545 S
C44 N43 1.355 . S
C44 C45 1.363 . S
C44 H56 0.929 . S
C45 C44 1.363 . S
C45 N47 1.375 1_545 S
C45 H63 0.931 . S
C46 N43 1.311 1_565 S
C46 N47 1.347 . S
C46 H57 0.929 . S
N47 C45 1.375 1_565 S
N47 C46 1.347 . S
C48 C51 1.365 . S
C48 N53 1.309 1_545 S
C48 H54 0.929 . S
C49 C50 1.362 . S
C49 C52 1.378 . S
C49 H64 0.929 . S
C50 C49 1.362 . S
C50 C51 1.366 1_565 S
C51 C48 1.365 . S
C51 C50 1.366 1_545 S
C51 H65 0.930 . S
C52 C49 1.378 . S
C52 N53 1.336 . S
C52 H55 0.930 . S
N53 Co33 2.192 1_565 S
N53 C48 1.309 1_565 S
N53 C52 1.336 . S
H54 C48 0.929 . S
H55 C52 0.930 . S
H56 C44 0.929 . S
H57 C46 0.929 . S
O58 Co33 2.397 . S
O58 C61 1.244 . S
O59 Co33 2.186 . S
O59 C61 1.240 . S
O60 Co33 2.062 1_565 S
O60 C41 1.247 . S
C61 O58 1.244 . S
C61 O59 1.240 . S
H62 C36 0.931 . S
H63 C45 0.931 . S
H64 C49 0.929 . S
H65 C51 0.930 . S
Co66 N70 2.148 . S
Co66 N76 2.128 . S
Co66 N86 2.194 . S
Co66 O91 2.351 . S
Co66 O92 2.155 . S
Co66 O93 2.096 . S
C67 N70 1.301 . S
C67 N71 1.328 . S
C67 H72 0.930 . S
C68 C69 1.333 . S
C68 N70 1.317 . S
C68 H73 0.930 . S
C69 C68 1.333 . S
C69 N71 1.350 . S
C69 H95 0.931 . S
N70 Co66 2.148 . S
N70 C67 1.301 . S
N70 C68 1.317 . S
N71 C67 1.328 . S
N71 C69 1.350 . S
H72 C67 0.930 . S
H73 C68 0.930 . S
C74 O75 1.224 . S
C74 O93 1.247 . S
O75 C74 1.224 . S
N76 Co66 2.128 . S
N76 C77 1.355 . S
N76 C79 1.311 . S
C77 N76 1.355 . S
C77 C78 1.363 . S
C77 H89 0.929 . S
C78 C77 1.363 . S
C78 N80 1.375 . S
C78 H96 0.931 . S
C79 N76 1.311 . S
C79 N80 1.347 . S
C79 H90 0.929 . S
N80 C78 1.375 . S
N80 C79 1.347 . S
C81 C84 1.365 . S
C81 N86 1.328 . S
C81 H87 0.929 . S
C82 C83 1.362 . S
C82 C85 1.378 . S
C82 H97 0.929 . S
C83 C82 1.362 . S
C83 C84 1.366 . S
C84 C81 1.365 . S
C84 C83 1.366 . S
C84 H98 0.930 . S
C85 C82 1.378 . S
C85 N86 1.315 . S
C85 H88 0.930 . S
N86 Co66 2.194 . S
N86 C81 1.328 . S
N86 C85 1.315 . S
H87 C81 0.929 . S
H88 C85 0.930 . S
H89 C77 0.929 . S
H90 C79 0.929 . S
O91 Co66 2.351 . S
O91 C94 1.244 . S
O92 Co66 2.155 . S
O92 C94 1.240 . S
O93 Co66 2.096 . S
O93 C74 1.247 . S
C94 O91 1.244 . S
C94 O92 1.240 . S
H95 C69 0.931 . S
H96 C78 0.931 . S
H97 C82 0.929 . S
H98 C84 0.930 . S
Co99 N103 2.141 1_565 S
Co99 N109 2.133 . S
Co99 N119 2.192 1_565 S
Co99 O124 2.397 . S
Co99 O125 2.185 . S
Co99 O126 2.063 1_565 S
C100 N103 1.301 1_565 S
C100 N104 1.334 . S
C100 H105 0.930 . S
C101 C102 1.333 . S
C101 N103 1.317 . S
C101 H106 0.930 . S
C102 C101 1.333 . S
C102 N104 1.338 1_545 S
C102 H128 0.931 . S
N103 Co99 2.141 1_545 S
N103 C100 1.301 1_545 S
N103 C101 1.317 . S
N104 C100 1.334 . S
N104 C102 1.338 1_565 S
H105 C100 0.930 . S
H106 C101 0.930 . S
C107 O108 1.224 . S
C107 O126 1.247 . S
O108 C107 1.224 . S
N109 Co99 2.133 . S
N109 C110 1.355 . S
N109 C112 1.311 1_565 S
C110 N109 1.355 . S
C110 C111 1.363 . S
C110 H122 0.929 . S
C111 C110 1.363 . S
C111 N113 1.375 1_565 S
C111 H129 0.931 . S
C112 N109 1.311 1_545 S
C112 N113 1.347 . S
C112 H123 0.929 . S
N113 C111 1.375 1_545 S
N113 C112 1.347 . S
C114 C117 1.365 . S
C114 N119 1.309 1_565 S
C114 H120 0.929 . S
C115 C116 1.362 . S
C115 C118 1.378 . S
C115 H130 0.929 . S
C116 C115 1.362 . S
C116 C117 1.366 1_545 S
C117 C114 1.365 . S
C117 C116 1.366 1_565 S
C117 H131 0.930 . S
C118 C115 1.378 . S
C118 N119 1.336 . S
C118 H121 0.930 . S
N119 Co99 2.192 1_545 S
N119 C114 1.309 1_545 S
N119 C118 1.336 . S
H120 C114 0.929 . S
H121 C118 0.930 . S
H122 C110 0.929 . S
H123 C112 0.929 . S
O124 Co99 2.397 . S
O124 C127 1.244 . S
O125 Co99 2.185 . S
O125 C127 1.240 . S
O126 Co99 2.063 1_545 S
O126 C107 1.247 . S
C127 O124 1.244 . S
C127 O125 1.240 . S
H128 C102 0.931 . S
H129 C111 0.931 . S
H130 C115 0.929 . S
H131 C117 0.930 . S
Co132 N136 2.148 . S
Co132 N142 2.128 . S
Co132 N152 2.194 . S
Co132 O157 2.351 . S
Co132 O158 2.155 . S
Co132 O159 2.096 . S
C133 N136 1.301 . S
C133 N137 1.328 1_556 S
C133 H138 0.930 . S
C134 C135 1.333 1_556 S
C134 N136 1.317 . S
C134 H139 0.930 . S
C135 C134 1.333 1_554 S
C135 N137 1.350 . S
C135 H161 0.931 . S
N136 Co132 2.148 . S
N136 C133 1.301 . S
N136 C134 1.317 . S
N137 C133 1.328 1_554 S
N137 C135 1.350 . S
H138 C133 0.930 . S
H139 C134 0.930 . S
C140 O141 1.224 . S
C140 O159 1.247 . S
O141 C140 1.224 . S
N142 Co132 2.128 . S
N142 C143 1.355 . S
N142 C145 1.311 . S
C143 N142 1.355 . S
C143 C144 1.363 . S
C143 H155 0.929 . S
C144 C143 1.363 . S
C144 N146 1.375 . S
C144 H162 0.931 . S
C145 N142 1.311 . S
C145 N146 1.347 . S
C145 H156 0.929 . S
N146 C144 1.375 . S
N146 C145 1.347 . S
C147 C150 1.365 . S
C147 N152 1.328 . S
C147 H153 0.929 . S
C148 C149 1.362 . S
C148 C151 1.378 . S
C148 H163 0.929 . S
C149 C148 1.362 . S
C149 C150 1.366 . S
C150 C147 1.365 . S
C150 C149 1.366 . S
C150 H164 0.930 . S
C151 C148 1.378 . S
C151 N152 1.315 . S
C151 H154 0.930 . S
N152 Co132 2.194 . S
N152 C147 1.328 . S
N152 C151 1.315 . S
H153 C147 0.929 . S
H154 C151 0.930 . S
H155 C143 0.929 . S
H156 C145 0.929 . S
O157 Co132 2.351 . S
O157 C160 1.244 . S
O158 Co132 2.155 . S
O158 C160 1.240 . S
O159 Co132 2.096 . S
O159 C140 1.247 . S
C160 O157 1.244 . S
C160 O158 1.240 . S
H161 C135 0.931 . S
H162 C144 0.931 . S
H163 C148 0.929 . S
H164 C150 0.930 . S
Co165 N169 2.141 1_545 S
Co165 N175 2.133 . S
Co165 N185 2.192 1_545 S
Co165 O190 2.397 . S
Co165 O191 2.185 . S
Co165 O192 2.063 1_545 S
C166 N169 1.301 1_545 S
C166 N170 1.334 . S
C166 H171 0.930 . S
C167 C168 1.333 . S
C167 N169 1.317 . S
C167 H172 0.930 . S
C168 C167 1.333 . S
C168 N170 1.338 1_565 S
C168 H194 0.931 . S
N169 Co165 2.141 1_565 S
N169 C166 1.301 1_565 S
N169 C167 1.317 . S
N170 C166 1.334 . S
N170 C168 1.338 1_545 S
H171 C166 0.930 . S
H172 C167 0.930 . S
C173 O174 1.224 . S
C173 O192 1.247 . S
O174 C173 1.224 . S
N175 Co165 2.133 . S
N175 C176 1.355 . S
N175 C178 1.311 1_545 S
C176 N175 1.355 . S
C176 C177 1.363 . S
C176 H188 0.929 . S
C177 C176 1.363 . S
C177 N179 1.375 1_545 S
C177 H195 0.931 . S
C178 N175 1.311 1_565 S
C178 N179 1.347 . S
C178 H189 0.929 . S
N179 C177 1.375 1_565 S
N179 C178 1.347 . S
C180 C183 1.365 . S
C180 N185 1.309 1_545 S
C180 H186 0.929 . S
C181 C182 1.362 . S
C181 C184 1.378 . S
C181 H196 0.929 . S
C182 C181 1.362 . S
C182 C183 1.366 1_565 S
C183 C180 1.365 . S
C183 C182 1.366 1_545 S
C183 H197 0.930 . S
C184 C181 1.378 . S
C184 N185 1.336 . S
C184 H187 0.930 . S
N185 Co165 2.192 1_565 S
N185 C180 1.309 1_565 S
N185 C184 1.336 . S
H186 C180 0.929 . S
H187 C184 0.930 . S
H188 C176 0.929 . S
H189 C178 0.929 . S
O190 Co165 2.397 . S
O190 C193 1.244 . S
O191 Co165 2.185 . S
O191 C193 1.240 . S
O192 Co165 2.063 1_565 S
O192 C173 1.247 . S
C193 O190 1.244 . S
C193 O191 1.240 . S
H194 C168 0.931 . S
H195 C177 0.931 . S
H196 C181 0.929 . S
H197 C183 0.930 . S
Co198 N202 2.148 . S
Co198 N208 2.128 . S
Co198 N218 2.194 . S
Co198 O223 2.351 . S
Co198 O224 2.155 . S
Co198 O225 2.096 . S
C199 N202 1.301 . S
C199 N203 1.328 . S
C199 H204 0.930 . S
C200 C201 1.333 . S
C200 N202 1.317 . S
C200 H205 0.930 . S
C201 C200 1.333 . S
C201 N203 1.350 . S
C201 H227 0.931 . S
N202 Co198 2.148 . S
N202 C199 1.301 . S
N202 C200 1.317 . S
N203 C199 1.328 . S
N203 C201 1.350 . S
H204 C199 0.930 . S
H205 C200 0.930 . S
C206 O207 1.224 . S
C206 O225 1.247 . S
O207 C206 1.224 . S
N208 Co198 2.128 . S
N208 C209 1.355 . S
N208 C211 1.311 . S
C209 N208 1.355 . S
C209 C210 1.363 . S
C209 H221 0.929 . S
C210 C209 1.363 . S
C210 N212 1.375 . S
C210 H228 0.931 . S
C211 N208 1.311 . S
C211 N212 1.347 . S
C211 H222 0.929 . S
N212 C210 1.375 . S
N212 C211 1.347 . S
C213 C216 1.365 . S
C213 N218 1.328 . S
C213 H219 0.929 . S
C214 C215 1.362 . S
C214 C217 1.378 . S
C214 H229 0.929 . S
C215 C214 1.362 . S
C215 C216 1.366 . S
C216 C213 1.365 . S
C216 C215 1.366 . S
C216 H230 0.930 . S
C217 C214 1.378 . S
C217 N218 1.315 . S
C217 H220 0.930 . S
N218 Co198 2.194 . S
N218 C213 1.328 . S
N218 C217 1.315 . S
H219 C213 0.929 . S
H220 C217 0.930 . S
H221 C209 0.929 . S
H222 C211 0.929 . S
O223 Co198 2.351 . S
O223 C226 1.244 . S
O224 Co198 2.155 . S
O224 C226 1.240 . S
O225 Co198 2.096 . S
O225 C206 1.247 . S
C226 O223 1.244 . S
C226 O224 1.240 . S
H227 C201 0.931 . S
H228 C210 0.931 . S
H229 C214 0.929 . S
H230 C216 0.930 . S
Co231 N235 2.141 1_565 S
Co231 N241 2.133 . S
Co231 N251 2.192 1_565 S
Co231 O256 2.397 . S
Co231 O257 2.186 . S
Co231 O258 2.062 1_565 S
C232 N235 1.301 1_565 S
C232 N236 1.334 . S
C232 H237 0.930 . S
C233 C234 1.333 . S
C233 N235 1.317 . S
C233 H238 0.930 . S
C234 C233 1.333 . S
C234 N236 1.338 1_545 S
C234 H260 0.931 . S
N235 Co231 2.141 1_545 S
N235 C232 1.301 1_545 S
N235 C233 1.317 . S
N236 C232 1.334 . S
N236 C234 1.338 1_565 S
H237 C232 0.930 . S
H238 C233 0.930 . S
C239 O240 1.224 . S
C239 O258 1.247 . S
O240 C239 1.224 . S
N241 Co231 2.133 . S
N241 C242 1.355 . S
N241 C244 1.311 1_565 S
C242 N241 1.355 . S
C242 C243 1.363 . S
C242 H254 0.929 . S
C243 C242 1.363 . S
C243 N245 1.375 1_565 S
C243 H261 0.931 . S
C244 N241 1.311 1_545 S
C244 N245 1.347 . S
C244 H255 0.929 . S
N245 C243 1.375 1_545 S
N245 C244 1.347 . S
C246 C249 1.365 . S
C246 N251 1.309 1_565 S
C246 H252 0.929 . S
C247 C248 1.362 . S
C247 C250 1.378 . S
C247 H262 0.929 . S
C248 C247 1.362 . S
C248 C249 1.366 1_545 S
C249 C246 1.365 . S
C249 C248 1.366 1_565 S
C249 H263 0.930 . S
C250 C247 1.378 . S
C250 N251 1.336 . S
C250 H253 0.930 . S
N251 Co231 2.192 1_545 S
N251 C246 1.309 1_545 S
N251 C250 1.336 . S
H252 C246 0.929 . S
H253 C250 0.930 . S
H254 C242 0.929 . S
H255 C244 0.929 . S
O256 Co231 2.397 . S
O256 C259 1.244 . S
O257 Co231 2.186 . S
O257 C259 1.240 . S
O258 Co231 2.062 1_545 S
O258 C239 1.247 . S
C259 O256 1.244 . S
C259 O257 1.240 . S
H260 C234 0.931 . S
H261 C243 0.931 . S
H262 C247 0.929 . S
H263 C249 0.930 . S
Co264 N268 2.148 . S
Co264 N274 2.128 . S
Co264 N284 2.194 . S
Co264 O289 2.351 . S
Co264 O290 2.155 . S
Co264 O291 2.096 . S
C265 N268 1.301 . S
C265 N269 1.328 1_556 S
C265 H270 0.930 . S
C266 C267 1.333 1_556 S
C266 N268 1.317 . S
C266 H271 0.930 . S
C267 C266 1.333 1_554 S
C267 N269 1.350 . S
C267 H293 0.931 . S
N268 Co264 2.148 . S
N268 C265 1.301 . S
N268 C266 1.317 . S
N269 C265 1.328 1_554 S
N269 C267 1.350 . S
H270 C265 0.930 . S
H271 C266 0.930 . S
C272 O273 1.224 . S
C272 O291 1.247 . S
O273 C272 1.224 . S
N274 Co264 2.128 . S
N274 C275 1.355 . S
N274 C277 1.311 . S
C275 N274 1.355 . S
C275 C276 1.363 . S
C275 H287 0.929 . S
C276 C275 1.363 . S
C276 N278 1.375 . S
C276 H294 0.931 . S
C277 N274 1.311 . S
C277 N278 1.347 . S
C277 H288 0.929 . S
N278 C276 1.375 . S
N278 C277 1.347 . S
C279 C282 1.365 . S
C279 N284 1.328 . S
C279 H285 0.929 . S
C280 C281 1.362 . S
C280 C283 1.378 . S
C280 H295 0.929 . S
C281 C280 1.362 . S
C281 C282 1.366 . S
C282 C279 1.365 . S
C282 C281 1.366 . S
C282 H296 0.930 . S
C283 C280 1.378 . S
C283 N284 1.315 . S
C283 H286 0.930 . S
N284 Co264 2.194 . S
N284 C279 1.328 . S
N284 C283 1.315 . S
H285 C279 0.929 . S
H286 C283 0.930 . S
H287 C275 0.929 . S
H288 C277 0.929 . S
O289 Co264 2.351 . S
O289 C292 1.244 . S
O290 Co264 2.155 . S
O290 C292 1.240 . S
O291 Co264 2.096 . S
O291 C272 1.247 . S
C292 O289 1.244 . S
C292 O290 1.240 . S
H293 C267 0.931 . S
H294 C276 0.931 . S
H295 C280 0.929 . S
H296 C282 0.930 . S
Co297 N301 2.141 1_565 S
Co297 N307 2.133 . S
Co297 N317 2.192 1_565 S
Co297 O322 2.397 . S
Co297 O323 2.186 . S
Co297 O324 2.062 1_565 S
C298 N301 1.301 1_565 S
C298 N302 1.334 . S
C298 H303 0.930 . S
C299 C300 1.333 . S
C299 N301 1.317 . S
C299 H304 0.930 . S
C300 C299 1.333 . S
C300 N302 1.338 1_545 S
C300 H326 0.931 . S
N301 Co297 2.141 1_545 S
N301 C298 1.301 1_545 S
N301 C299 1.317 . S
N302 C298 1.334 . S
N302 C300 1.338 1_565 S
H303 C298 0.930 . S
H304 C299 0.930 . S
C305 O306 1.224 . S
C305 O324 1.247 . S
O306 C305 1.224 . S
N307 Co297 2.133 . S
N307 C308 1.355 . S
N307 C310 1.311 1_565 S
C308 N307 1.355 . S
C308 C309 1.363 . S
C308 H320 0.929 . S
C309 C308 1.363 . S
C309 N311 1.375 1_565 S
C309 H327 0.931 . S
C310 N307 1.311 1_545 S
C310 N311 1.347 . S
C310 H321 0.929 . S
N311 C309 1.375 1_545 S
N311 C310 1.347 . S
C312 C315 1.365 . S
C312 N317 1.309 1_565 S
C312 H318 0.929 . S
C313 C314 1.362 . S
C313 C316 1.378 . S
C313 H328 0.929 . S
C314 C313 1.362 . S
C314 C315 1.366 1_545 S
C315 C312 1.365 . S
C315 C314 1.366 1_565 S
C315 H329 0.930 . S
C316 C313 1.378 . S
C316 N317 1.336 . S
C316 H319 0.930 . S
N317 Co297 2.192 1_545 S
N317 C312 1.309 1_545 S
N317 C316 1.336 . S
H318 C312 0.929 . S
H319 C316 0.930 . S
H320 C308 0.929 . S
H321 C310 0.929 . S
O322 Co297 2.397 . S
O322 C325 1.244 . S
O323 Co297 2.186 . S
O323 C325 1.240 . S
O324 Co297 2.062 1_545 S
O324 C305 1.247 . S
C325 O322 1.244 . S
C325 O323 1.240 . S
H326 C300 0.931 . S
H327 C309 0.931 . S
H328 C313 0.929 . S
H329 C315 0.930 . S
Co330 N334 2.148 . S
Co330 N340 2.128 . S
Co330 N350 2.194 . S
Co330 O355 2.351 . S
Co330 O356 2.155 . S
Co330 O357 2.096 . S
C331 N334 1.301 . S
C331 N335 1.328 . S
C331 H336 0.930 . S
C332 C333 1.333 . S
C332 N334 1.317 . S
C332 H337 0.930 . S
C333 C332 1.333 . S
C333 N335 1.350 . S
C333 H359 0.931 . S
N334 Co330 2.148 . S
N334 C331 1.301 . S
N334 C332 1.317 . S
N335 C331 1.328 . S
N335 C333 1.350 . S
H336 C331 0.930 . S
H337 C332 0.930 . S
C338 O339 1.224 . S
C338 O357 1.247 . S
O339 C338 1.224 . S
N340 Co330 2.128 . S
N340 C341 1.355 . S
N340 C343 1.311 . S
C341 N340 1.355 . S
C341 C342 1.363 . S
C341 H353 0.929 . S
C342 C341 1.363 . S
C342 N344 1.375 . S
C342 H360 0.931 . S
C343 N340 1.311 . S
C343 N344 1.347 . S
C343 H354 0.929 . S
N344 C342 1.375 . S
N344 C343 1.347 . S
C345 C348 1.365 . S
C345 N350 1.328 . S
C345 H351 0.929 . S
C346 C347 1.362 . S
C346 C349 1.378 . S
C346 H361 0.929 . S
C347 C346 1.362 . S
C347 C348 1.366 . S
C348 C345 1.365 . S
C348 C347 1.366 . S
C348 H362 0.930 . S
C349 C346 1.378 . S
C349 N350 1.315 . S
C349 H352 0.930 . S
N350 Co330 2.194 . S
N350 C345 1.328 . S
N350 C349 1.315 . S
H351 C345 0.929 . S
H352 C349 0.930 . S
H353 C341 0.929 . S
H354 C343 0.929 . S
O355 Co330 2.351 . S
O355 C358 1.244 . S
O356 Co330 2.155 . S
O356 C358 1.240 . S
O357 Co330 2.096 . S
O357 C338 1.247 . S
C358 O355 1.244 . S
C358 O356 1.240 . S
H359 C333 0.931 . S
H360 C342 0.931 . S
H361 C346 0.929 . S
H362 C348 0.930 . S
Co363 N367 2.141 1_545 S
Co363 N373 2.133 . S
Co363 N383 2.192 1_545 S
Co363 O388 2.397 . S
Co363 O389 2.185 . S
Co363 O390 2.063 1_545 S
C364 N367 1.301 1_545 S
C364 N368 1.334 . S
C364 H369 0.930 . S
C365 C366 1.333 . S
C365 N367 1.317 . S
C365 H370 0.930 . S
C366 C365 1.333 . S
C366 N368 1.338 1_565 S
C366 H392 0.931 . S
N367 Co363 2.141 1_565 S
N367 C364 1.301 1_565 S
N367 C365 1.317 . S
N368 C364 1.334 . S
N368 C366 1.338 1_545 S
H369 C364 0.930 . S
H370 C365 0.930 . S
C371 O372 1.224 . S
C371 O390 1.247 . S
O372 C371 1.224 . S
N373 Co363 2.133 . S
N373 C374 1.355 . S
N373 C376 1.311 1_545 S
C374 N373 1.355 . S
C374 C375 1.363 . S
C374 H386 0.929 . S
C375 C374 1.363 . S
C375 N377 1.375 1_545 S
C375 H393 0.931 . S
C376 N373 1.311 1_565 S
C376 N377 1.347 . S
C376 H387 0.929 . S
N377 C375 1.375 1_565 S
N377 C376 1.347 . S
C378 C381 1.365 . S
C378 N383 1.309 1_545 S
C378 H384 0.929 . S
C379 C380 1.362 . S
C379 C382 1.378 . S
C379 H394 0.929 . S
C380 C379 1.362 . S
C380 C381 1.366 1_565 S
C381 C378 1.365 . S
C381 C380 1.366 1_545 S
C381 H395 0.930 . S
C382 C379 1.378 . S
C382 N383 1.336 . S
C382 H385 0.930 . S
N383 Co363 2.192 1_565 S
N383 C378 1.309 1_565 S
N383 C382 1.336 . S
H384 C378 0.929 . S
H385 C382 0.930 . S
H386 C374 0.929 . S
H387 C376 0.929 . S
O388 Co363 2.397 . S
O388 C391 1.244 . S
O389 Co363 2.185 . S
O389 C391 1.240 . S
O390 Co363 2.063 1_565 S
O390 C371 1.247 . S
C391 O388 1.244 . S
C391 O389 1.240 . S
H392 C366 0.931 . S
H393 C375 0.931 . S
H394 C379 0.929 . S
H395 C381 0.930 . S
Co396 N400 2.148 . S
Co396 N406 2.128 . S
Co396 N416 2.194 . S
Co396 O421 2.351 . S
Co396 O422 2.155 . S
Co396 O423 2.096 . S
C397 N400 1.301 . S
C397 N401 1.328 1_554 S
C397 H402 0.930 . S
C398 C399 1.333 1_554 S
C398 N400 1.317 . S
C398 H403 0.930 . S
C399 C398 1.333 1_556 S
C399 N401 1.350 . S
C399 H425 0.931 . S
N400 Co396 2.148 . S
N400 C397 1.301 . S
N400 C398 1.317 . S
N401 C397 1.328 1_556 S
N401 C399 1.350 . S
H402 C397 0.930 . S
H403 C398 0.930 . S
C404 O405 1.224 . S
C404 O423 1.247 . S
O405 C404 1.224 . S
N406 Co396 2.128 . S
N406 C407 1.355 . S
N406 C409 1.311 . S
C407 N406 1.355 . S
C407 C408 1.363 . S
C407 H419 0.929 . S
C408 C407 1.363 . S
C408 N410 1.375 . S
C408 H426 0.931 . S
C409 N406 1.311 . S
C409 N410 1.347 . S
C409 H420 0.929 . S
N410 C408 1.375 . S
N410 C409 1.347 . S
C411 C414 1.365 . S
C411 N416 1.328 . S
C411 H417 0.929 . S
C412 C413 1.362 . S
C412 C415 1.378 . S
C412 H427 0.929 . S
C413 C412 1.362 . S
C413 C414 1.366 . S
C414 C411 1.365 . S
C414 C413 1.366 . S
C414 H428 0.930 . S
C415 C412 1.378 . S
C415 N416 1.315 . S
C415 H418 0.930 . S
N416 Co396 2.194 . S
N416 C411 1.328 . S
N416 C415 1.315 . S
H417 C411 0.929 . S
H418 C415 0.930 . S
H419 C407 0.929 . S
H420 C409 0.929 . S
O421 Co396 2.351 . S
O421 C424 1.244 . S
O422 Co396 2.155 . S
O422 C424 1.240 . S
O423 Co396 2.096 . S
O423 C404 1.247 . S
C424 O421 1.244 . S
C424 O422 1.240 . S
H425 C399 0.931 . S
H426 C408 0.931 . S
H427 C412 0.929 . S
H428 C414 0.930 . S
Co429 N433 2.141 1_565 S
Co429 N439 2.133 . S
Co429 N449 2.192 1_565 S
Co429 O454 2.397 . S
Co429 O455 2.185 . S
Co429 O456 2.063 1_565 S
C430 N433 1.301 1_565 S
C430 N434 1.334 . S
C430 H435 0.930 . S
C431 C432 1.333 . S
C431 N433 1.317 . S
C431 H436 0.930 . S
C432 C431 1.333 . S
C432 N434 1.338 1_545 S
C432 H458 0.931 . S
N433 Co429 2.141 1_545 S
N433 C430 1.301 1_545 S
N433 C431 1.317 . S
N434 C430 1.334 . S
N434 C432 1.338 1_565 S
H435 C430 0.930 . S
H436 C431 0.930 . S
C437 O438 1.224 . S
C437 O456 1.247 . S
O438 C437 1.224 . S
N439 Co429 2.133 . S
N439 C440 1.355 . S
N439 C442 1.311 1_565 S
C440 N439 1.355 . S
C440 C441 1.363 . S
C440 H452 0.929 . S
C441 C440 1.363 . S
C441 N443 1.375 1_565 S
C441 H459 0.931 . S
C442 N439 1.311 1_545 S
C442 N443 1.347 . S
C442 H453 0.929 . S
N443 C441 1.375 1_545 S
N443 C442 1.347 . S
C444 C447 1.365 . S
C444 N449 1.309 1_565 S
C444 H450 0.929 . S
C445 C446 1.362 . S
C445 C448 1.378 . S
C445 H460 0.929 . S
C446 C445 1.362 . S
C446 C447 1.366 1_545 S
C447 C444 1.365 . S
C447 C446 1.366 1_565 S
C447 H461 0.930 . S
C448 C445 1.378 . S
C448 N449 1.336 . S
C448 H451 0.930 . S
N449 Co429 2.192 1_545 S
N449 C444 1.309 1_545 S
N449 C448 1.336 . S
H450 C444 0.929 . S
H451 C448 0.930 . S
H452 C440 0.929 . S
H453 C442 0.929 . S
O454 Co429 2.397 . S
O454 C457 1.244 . S
O455 Co429 2.185 . S
O455 C457 1.240 . S
O456 Co429 2.063 1_545 S
O456 C437 1.247 . S
C457 O454 1.244 . S
C457 O455 1.240 . S
H458 C432 0.931 . S
H459 C441 0.931 . S
H460 C445 0.929 . S
H461 C447 0.930 . S
Co462 N466 2.148 . S
Co462 N472 2.128 . S
Co462 N482 2.194 . S
Co462 O487 2.351 . S
Co462 O488 2.155 . S
Co462 O489 2.096 . S
C463 N466 1.301 . S
C463 N467 1.328 . S
C463 H468 0.930 . S
C464 C465 1.333 . S
C464 N466 1.317 . S
C464 H469 0.930 . S
C465 C464 1.333 . S
C465 N467 1.350 . S
C465 H491 0.931 . S
N466 Co462 2.148 . S
N466 C463 1.301 . S
N466 C464 1.317 . S
N467 C463 1.328 . S
N467 C465 1.350 . S
H468 C463 0.930 . S
H469 C464 0.930 . S
C470 O471 1.224 . S
C470 O489 1.247 . S
O471 C470 1.224 . S
N472 Co462 2.128 . S
N472 C473 1.355 . S
N472 C475 1.311 . S
C473 N472 1.355 . S
C473 C474 1.363 . S
C473 H485 0.929 . S
C474 C473 1.363 . S
C474 N476 1.375 . S
C474 H492 0.931 . S
C475 N472 1.311 . S
C475 N476 1.347 . S
C475 H486 0.929 . S
N476 C474 1.375 . S
N476 C475 1.347 . S
C477 C480 1.365 . S
C477 N482 1.328 . S
C477 H483 0.929 . S
C478 C479 1.362 . S
C478 C481 1.378 . S
C478 H493 0.929 . S
C479 C478 1.362 . S
C479 C480 1.366 . S
C480 C477 1.365 . S
C480 C479 1.366 . S
C480 H494 0.930 . S
C481 C478 1.378 . S
C481 N482 1.315 . S
C481 H484 0.930 . S
N482 Co462 2.194 . S
N482 C477 1.328 . S
N482 C481 1.315 . S
H483 C477 0.929 . S
H484 C481 0.930 . S
H485 C473 0.929 . S
H486 C475 0.929 . S
O487 Co462 2.351 . S
O487 C490 1.244 . S
O488 Co462 2.155 . S
O488 C490 1.240 . S
O489 Co462 2.096 . S
O489 C470 1.247 . S
C490 O487 1.244 . S
C490 O488 1.240 . S
H491 C465 0.931 . S
H492 C474 0.931 . S
H493 C478 0.929 . S
H494 C480 0.930 . S
Co495 N499 2.141 1_545 S
Co495 N505 2.133 . S
Co495 N515 2.192 1_545 S
Co495 O520 2.397 . S
Co495 O521 2.186 . S
Co495 O522 2.062 1_545 S
C496 N499 1.301 1_545 S
C496 N500 1.334 . S
C496 H501 0.930 . S
C497 C498 1.333 . S
C497 N499 1.317 . S
C497 H502 0.930 . S
C498 C497 1.333 . S
C498 N500 1.338 1_565 S
C498 H524 0.931 . S
N499 Co495 2.141 1_565 S
N499 C496 1.301 1_565 S
N499 C497 1.317 . S
N500 C496 1.334 . S
N500 C498 1.338 1_545 S
H501 C496 0.930 . S
H502 C497 0.930 . S
C503 O504 1.224 . S
C503 O522 1.247 . S
O504 C503 1.224 . S
N505 Co495 2.133 . S
N505 C506 1.355 . S
N505 C508 1.311 1_545 S
C506 N505 1.355 . S
C506 C507 1.363 . S
C506 H518 0.929 . S
C507 C506 1.363 . S
C507 N509 1.375 1_545 S
C507 H525 0.931 . S
C508 N505 1.311 1_565 S
C508 N509 1.347 . S
C508 H519 0.929 . S
N509 C507 1.375 1_565 S
N509 C508 1.347 . S
C510 C513 1.365 . S
C510 N515 1.309 1_545 S
C510 H516 0.929 . S
C511 C512 1.362 . S
C511 C514 1.378 . S
C511 H526 0.929 . S
C512 C511 1.362 . S
C512 C513 1.366 1_565 S
C513 C510 1.365 . S
C513 C512 1.366 1_545 S
C513 H527 0.930 . S
C514 C511 1.378 . S
C514 N515 1.336 . S
C514 H517 0.930 . S
N515 Co495 2.192 1_565 S
N515 C510 1.309 1_565 S
N515 C514 1.336 . S
H516 C510 0.929 . S
H517 C514 0.930 . S
H518 C506 0.929 . S
H519 C508 0.929 . S
O520 Co495 2.397 . S
O520 C523 1.244 . S
O521 Co495 2.186 . S
O521 C523 1.240 . S
O522 Co495 2.062 1_565 S
O522 C503 1.247 . S
C523 O520 1.244 . S
C523 O521 1.240 . S
H524 C498 0.931 . S
H525 C507 0.931 . S
H526 C511 0.929 . S
H527 C513 0.930 . S
Co528 N532 2.148 . S
Co528 N538 2.128 . S
Co528 N548 2.194 . S
Co528 O553 2.351 . S
Co528 O554 2.155 . S
Co528 O555 2.096 . S
C529 N532 1.301 . S
C529 N533 1.328 . S
C529 H534 0.930 . S
C530 C531 1.333 . S
C530 N532 1.317 . S
C530 H535 0.930 . S
C531 C530 1.333 . S
C531 N533 1.350 . S
C531 H557 0.931 . S
N532 Co528 2.148 . S
N532 C529 1.301 . S
N532 C530 1.317 . S
N533 C529 1.328 . S
N533 C531 1.350 . S
H534 C529 0.930 . S
H535 C530 0.930 . S
C536 O537 1.224 . S
C536 O555 1.247 . S
O537 C536 1.224 . S
N538 Co528 2.128 . S
N538 C539 1.355 . S
N538 C541 1.311 . S
C539 N538 1.355 . S
C539 C540 1.363 . S
C539 H551 0.929 . S
C540 C539 1.363 . S
C540 N542 1.375 . S
C540 H558 0.931 . S
C541 N538 1.311 . S
C541 N542 1.347 . S
C541 H552 0.929 . S
N542 C540 1.375 . S
N542 C541 1.347 . S
C543 C546 1.365 . S
C543 N548 1.328 . S
C543 H549 0.929 . S
C544 C545 1.362 . S
C544 C547 1.378 . S
C544 H559 0.929 . S
C545 C544 1.362 . S
C545 C546 1.366 . S
C546 C543 1.365 . S
C546 C545 1.366 . S
C546 H560 0.930 . S
C547 C544 1.378 . S
C547 N548 1.315 . S
C547 H550 0.930 . S
N548 Co528 2.194 . S
N548 C543 1.328 . S
N548 C547 1.315 . S
H549 C543 0.929 . S
H550 C547 0.930 . S
H551 C539 0.929 . S
H552 C541 0.929 . S
O553 Co528 2.351 . S
O553 C556 1.244 . S
O554 Co528 2.155 . S
O554 C556 1.240 . S
O555 Co528 2.096 . S
O555 C536 1.247 . S
C556 O553 1.244 . S
C556 O554 1.240 . S
H557 C531 0.931 . S
H558 C540 0.931 . S
H559 C544 0.929 . S
H560 C546 0.930 . S
Co561 N565 2.148 . S
Co561 N571 2.128 . S
Co561 N581 2.194 . S
Co561 O586 2.351 . S
Co561 O587 2.155 . S
Co561 O588 2.096 . S
C562 N565 1.301 . S
C562 N566 1.328 . S
C562 H567 0.930 . S
C563 C564 1.333 . S
C563 N565 1.317 . S
C563 H568 0.930 . S
C564 C563 1.333 . S
C564 N566 1.350 . S
C564 H590 0.931 . S
N565 Co561 2.148 . S
N565 C562 1.301 . S
N565 C563 1.317 . S
N566 C562 1.328 . S
N566 C564 1.350 . S
H567 C562 0.930 . S
H568 C563 0.930 . S
C569 O570 1.224 . S
C569 O588 1.247 . S
O570 C569 1.224 . S
N571 Co561 2.128 . S
N571 C572 1.355 . S
N571 C574 1.311 . S
C572 N571 1.355 . S
C572 C573 1.363 . S
C572 H584 0.929 . S
C573 C572 1.363 . S
C573 N575 1.375 . S
C573 H591 0.931 . S
C574 N571 1.311 . S
C574 N575 1.347 . S
C574 H585 0.929 . S
N575 C573 1.375 . S
N575 C574 1.347 . S
C576 C579 1.365 . S
C576 N581 1.328 . S
C576 H582 0.929 . S
C577 C578 1.362 . S
C577 C580 1.378 . S
C577 H592 0.929 . S
C578 C577 1.362 . S
C578 C579 1.366 . S
C579 C576 1.365 . S
C579 C578 1.366 . S
C579 H593 0.930 . S
C580 C577 1.378 . S
C580 N581 1.315 . S
C580 H583 0.930 . S
N581 Co561 2.194 . S
N581 C576 1.328 . S
N581 C580 1.315 . S
H582 C576 0.929 . S
H583 C580 0.930 . S
H584 C572 0.929 . S
H585 C574 0.929 . S
O586 Co561 2.351 . S
O586 C589 1.244 . S
O587 Co561 2.155 . S
O587 C589 1.240 . S
O588 Co561 2.096 . S
O588 C569 1.247 . S
C589 O586 1.244 . S
C589 O587 1.240 . S
H590 C564 0.931 . S
H591 C573 0.931 . S
H592 C577 0.929 . S
H593 C579 0.930 . S
Co594 N598 2.148 . S
Co594 N604 2.128 . S
Co594 N614 2.194 . S
Co594 O619 2.351 . S
Co594 O620 2.155 . S
Co594 O621 2.096 . S
C595 N598 1.301 . S
C595 N599 1.328 1_554 S
C595 H600 0.930 . S
C596 C597 1.333 1_554 S
C596 N598 1.317 . S
C596 H601 0.930 . S
C597 C596 1.333 1_556 S
C597 N599 1.350 . S
C597 H623 0.931 . S
N598 Co594 2.148 . S
N598 C595 1.301 . S
N598 C596 1.317 . S
N599 C595 1.328 1_556 S
N599 C597 1.350 . S
H600 C595 0.930 . S
H601 C596 0.930 . S
C602 O603 1.224 . S
C602 O621 1.247 . S
O603 C602 1.224 . S
N604 Co594 2.128 . S
N604 C605 1.355 . S
N604 C607 1.311 . S
C605 N604 1.355 . S
C605 C606 1.363 . S
C605 H617 0.929 . S
C606 C605 1.363 . S
C606 N608 1.375 . S
C606 H624 0.931 . S
C607 N604 1.311 . S
C607 N608 1.347 . S
C607 H618 0.929 . S
N608 C606 1.375 . S
N608 C607 1.347 . S
C609 C612 1.365 . S
C609 N614 1.328 . S
C609 H615 0.929 . S
C610 C611 1.362 . S
C610 C613 1.378 . S
C610 H625 0.929 . S
C611 C610 1.362 . S
C611 C612 1.366 . S
C612 C609 1.365 . S
C612 C611 1.366 . S
C612 H626 0.930 . S
C613 C610 1.378 . S
C613 N614 1.315 . S
C613 H616 0.930 . S
N614 Co594 2.194 . S
N614 C609 1.328 . S
N614 C613 1.315 . S
H615 C609 0.929 . S
H616 C613 0.930 . S
H617 C605 0.929 . S
H618 C607 0.929 . S
O619 Co594 2.351 . S
O619 C622 1.244 . S
O620 Co594 2.155 . S
O620 C622 1.240 . S
O621 Co594 2.096 . S
O621 C602 1.247 . S
C622 O619 1.244 . S
C622 O620 1.240 . S
H623 C597 0.931 . S
H624 C606 0.931 . S
H625 C610 0.929 . S
H626 C612 0.930 . S
Co627 N631 2.148 . S
Co627 N637 2.128 . S
Co627 N647 2.194 . S
Co627 O652 2.351 . S
Co627 O653 2.155 . S
Co627 O654 2.096 . S
C628 N631 1.301 . S
C628 N632 1.328 . S
C628 H633 0.930 . S
C629 C630 1.333 . S
C629 N631 1.317 . S
C629 H634 0.930 . S
C630 C629 1.333 . S
C630 N632 1.350 . S
C630 H656 0.931 . S
N631 Co627 2.148 . S
N631 C628 1.301 . S
N631 C629 1.317 . S
N632 C628 1.328 . S
N632 C630 1.350 . S
H633 C628 0.930 . S
H634 C629 0.930 . S
C635 O636 1.224 . S
C635 O654 1.247 . S
O636 C635 1.224 . S
N637 Co627 2.128 . S
N637 C638 1.355 . S
N637 C640 1.311 . S
C638 N637 1.355 . S
C638 C639 1.363 . S
C638 H650 0.929 . S
C639 C638 1.363 . S
C639 N641 1.375 . S
C639 H657 0.931 . S
C640 N637 1.311 . S
C640 N641 1.347 . S
C640 H651 0.929 . S
N641 C639 1.375 . S
N641 C640 1.347 . S
C642 C645 1.365 . S
C642 N647 1.328 . S
C642 H648 0.929 . S
C643 C644 1.362 . S
C643 C646 1.378 . S
C643 H658 0.929 . S
C644 C643 1.362 . S
C644 C645 1.366 . S
C645 C642 1.365 . S
C645 C644 1.366 . S
C645 H659 0.930 . S
C646 C643 1.378 . S
C646 N647 1.315 . S
C646 H649 0.930 . S
N647 Co627 2.194 . S
N647 C642 1.328 . S
N647 C646 1.315 . S
H648 C642 0.929 . S
H649 C646 0.930 . S
H650 C638 0.929 . S
H651 C640 0.929 . S
O652 Co627 2.351 . S
O652 C655 1.244 . S
O653 Co627 2.155 . S
O653 C655 1.240 . S
O654 Co627 2.096 . S
O654 C635 1.247 . S
C655 O652 1.244 . S
C655 O653 1.240 . S
H656 C630 0.931 . S
H657 C639 0.931 . S
H658 C643 0.929 . S
H659 C645 0.930 . S
Co660 N664 2.148 . S
Co660 N670 2.128 . S
Co660 N680 2.194 . S
Co660 O685 2.351 . S
Co660 O686 2.155 . S
Co660 O687 2.096 . S
C661 N664 1.301 . S
C661 N665 1.328 . S
C661 H666 0.930 . S
C662 C663 1.333 . S
C662 N664 1.317 . S
C662 H667 0.930 . S
C663 C662 1.333 . S
C663 N665 1.350 . S
C663 H689 0.931 . S
N664 Co660 2.148 . S
N664 C661 1.301 . S
N664 C662 1.317 . S
N665 C661 1.328 . S
N665 C663 1.350 . S
H666 C661 0.930 . S
H667 C662 0.930 . S
C668 O669 1.224 . S
C668 O687 1.247 . S
O669 C668 1.224 . S
N670 Co660 2.128 . S
N670 C671 1.355 . S
N670 C673 1.311 . S
C671 N670 1.355 . S
C671 C672 1.363 . S
C671 H683 0.929 . S
C672 C671 1.363 . S
C672 N674 1.375 . S
C672 H690 0.931 . S
C673 N670 1.311 . S
C673 N674 1.347 . S
C673 H684 0.929 . S
N674 C672 1.375 . S
N674 C673 1.347 . S
C675 C678 1.365 . S
C675 N680 1.328 . S
C675 H681 0.929 . S
C676 C677 1.362 . S
C676 C679 1.378 . S
C676 H691 0.929 . S
C677 C676 1.362 . S
C677 C678 1.366 . S
C678 C675 1.365 . S
C678 C677 1.366 . S
C678 H692 0.930 . S
C679 C676 1.378 . S
C679 N680 1.315 . S
C679 H682 0.930 . S
N680 Co660 2.194 . S
N680 C675 1.328 . S
N680 C679 1.315 . S
H681 C675 0.929 . S
H682 C679 0.930 . S
H683 C671 0.929 . S
H684 C673 0.929 . S
O685 Co660 2.351 . S
O685 C688 1.244 . S
O686 Co660 2.155 . S
O686 C688 1.240 . S
O687 Co660 2.096 . S
O687 C668 1.247 . S
C688 O685 1.244 . S
C688 O686 1.240 . S
H689 C663 0.931 . S
H690 C672 0.931 . S
H691 C676 0.929 . S
H692 C678 0.930 . S
Co693 N697 2.148 . S
Co693 N703 2.128 . S
Co693 N713 2.194 . S
Co693 O718 2.351 . S
Co693 O719 2.155 . S
Co693 O720 2.096 . S
C694 N697 1.301 . S
C694 N698 1.328 . S
C694 H699 0.930 . S
C695 C696 1.333 . S
C695 N697 1.317 . S
C695 H700 0.930 . S
C696 C695 1.333 . S
C696 N698 1.350 . S
C696 H722 0.931 . S
N697 Co693 2.148 . S
N697 C694 1.301 . S
N697 C695 1.317 . S
N698 C694 1.328 . S
N698 C696 1.350 . S
H699 C694 0.930 . S
H700 C695 0.930 . S
C701 O702 1.224 . S
C701 O720 1.247 . S
O702 C701 1.224 . S
N703 Co693 2.128 . S
N703 C704 1.355 . S
N703 C706 1.311 . S
C704 N703 1.355 . S
C704 C705 1.363 . S
C704 H716 0.929 . S
C705 C704 1.363 . S
C705 N707 1.375 . S
C705 H723 0.931 . S
C706 N703 1.311 . S
C706 N707 1.347 . S
C706 H717 0.929 . S
N707 C705 1.375 . S
N707 C706 1.347 . S
C708 C711 1.365 . S
C708 N713 1.328 . S
C708 H714 0.929 . S
C709 C710 1.362 . S
C709 C712 1.378 . S
C709 H724 0.929 . S
C710 C709 1.362 . S
C710 C711 1.366 . S
C711 C708 1.365 . S
C711 C710 1.366 . S
C711 H725 0.930 . S
C712 C709 1.378 . S
C712 N713 1.315 . S
C712 H715 0.930 . S
N713 Co693 2.194 . S
N713 C708 1.328 . S
N713 C712 1.315 . S
H714 C708 0.929 . S
H715 C712 0.930 . S
H716 C704 0.929 . S
H717 C706 0.929 . S
O718 Co693 2.351 . S
O718 C721 1.244 . S
O719 Co693 2.155 . S
O719 C721 1.240 . S
O720 Co693 2.096 . S
O720 C701 1.247 . S
C721 O718 1.244 . S
C721 O719 1.240 . S
H722 C696 0.931 . S
H723 C705 0.931 . S
H724 C709 0.929 . S
H725 C711 0.930 . S
Co726 N730 2.148 . S
Co726 N736 2.128 . S
Co726 N746 2.194 . S
Co726 O751 2.351 . S
Co726 O752 2.155 . S
Co726 O753 2.096 . S
C727 N730 1.301 . S
C727 N731 1.328 1_556 S
C727 H732 0.930 . S
C728 C729 1.333 1_556 S
C728 N730 1.317 . S
C728 H733 0.930 . S
C729 C728 1.333 1_554 S
C729 N731 1.350 . S
C729 H755 0.931 . S
N730 Co726 2.148 . S
N730 C727 1.301 . S
N730 C728 1.317 . S
N731 C727 1.328 1_554 S
N731 C729 1.350 . S
H732 C727 0.930 . S
H733 C728 0.930 . S
C734 O735 1.224 . S
C734 O753 1.247 . S
O735 C734 1.224 . S
N736 Co726 2.128 . S
N736 C737 1.355 . S
N736 C739 1.311 . S
C737 N736 1.355 . S
C737 C738 1.363 . S
C737 H749 0.929 . S
C738 C737 1.363 . S
C738 N740 1.375 . S
C738 H756 0.931 . S
C739 N736 1.311 . S
C739 N740 1.347 . S
C739 H750 0.929 . S
N740 C738 1.375 . S
N740 C739 1.347 . S
C741 C744 1.365 . S
C741 N746 1.328 . S
C741 H747 0.929 . S
C742 C743 1.362 . S
C742 C745 1.378 . S
C742 H757 0.929 . S
C743 C742 1.362 . S
C743 C744 1.366 . S
C744 C741 1.365 . S
C744 C743 1.366 . S
C744 H758 0.930 . S
C745 C742 1.378 . S
C745 N746 1.315 . S
C745 H748 0.930 . S
N746 Co726 2.194 . S
N746 C741 1.328 . S
N746 C745 1.315 . S
H747 C741 0.929 . S
H748 C745 0.930 . S
H749 C737 0.929 . S
H750 C739 0.929 . S
O751 Co726 2.351 . S
O751 C754 1.244 . S
O752 Co726 2.155 . S
O752 C754 1.240 . S
O753 Co726 2.096 . S
O753 C734 1.247 . S
C754 O751 1.244 . S
C754 O752 1.240 . S
H755 C729 0.931 . S
H756 C738 0.931 . S
H757 C742 0.929 . S
H758 C744 0.930 . S
Co759 N763 2.148 . S
Co759 N769 2.128 . S
Co759 N779 2.194 . S
Co759 O784 2.351 . S
Co759 O785 2.155 . S
Co759 O786 2.096 . S
C760 N763 1.301 . S
C760 N764 1.328 . S
C760 H765 0.930 . S
C761 C762 1.333 . S
C761 N763 1.317 . S
C761 H766 0.930 . S
C762 C761 1.333 . S
C762 N764 1.350 . S
C762 H788 0.931 . S
N763 Co759 2.148 . S
N763 C760 1.301 . S
N763 C761 1.317 . S
N764 C760 1.328 . S
N764 C762 1.350 . S
H765 C760 0.930 . S
H766 C761 0.930 . S
C767 O768 1.224 . S
C767 O786 1.247 . S
O768 C767 1.224 . S
N769 Co759 2.128 . S
N769 C770 1.355 . S
N769 C772 1.311 . S
C770 N769 1.355 . S
C770 C771 1.363 . S
C770 H782 0.929 . S
C771 C770 1.363 . S
C771 N773 1.375 . S
C771 H789 0.931 . S
C772 N769 1.311 . S
C772 N773 1.347 . S
C772 H783 0.929 . S
N773 C771 1.375 . S
N773 C772 1.347 . S
C774 C777 1.365 . S
C774 N779 1.328 . S
C774 H780 0.929 . S
C775 C776 1.362 . S
C775 C778 1.378 . S
C775 H790 0.929 . S
C776 C775 1.362 . S
C776 C777 1.366 . S
C777 C774 1.365 . S
C777 C776 1.366 . S
C777 H791 0.930 . S
C778 C775 1.378 . S
C778 N779 1.315 . S
C778 H781 0.930 . S
N779 Co759 2.194 . S
N779 C774 1.328 . S
N779 C778 1.315 . S
H780 C774 0.929 . S
H781 C778 0.930 . S
H782 C770 0.929 . S
H783 C772 0.929 . S
O784 Co759 2.351 . S
O784 C787 1.244 . S
O785 Co759 2.155 . S
O785 C787 1.240 . S
O786 Co759 2.096 . S
O786 C767 1.247 . S
C787 O784 1.244 . S
C787 O785 1.240 . S
H788 C762 0.931 . S
H789 C771 0.931 . S
H790 C775 0.929 . S
H791 C777 0.930 . S
Co792 N796 2.148 . S
Co792 N802 2.128 . S
Co792 N812 2.194 . S
Co792 O817 2.351 . S
Co792 O818 2.155 . S
Co792 O819 2.096 . S
C793 N796 1.301 . S
C793 N797 1.328 . S
C793 H798 0.930 . S
C794 C795 1.333 . S
C794 N796 1.317 . S
C794 H799 0.930 . S
C795 C794 1.333 . S
C795 N797 1.350 . S
C795 H821 0.931 . S
N796 Co792 2.148 . S
N796 C793 1.301 . S
N796 C794 1.317 . S
N797 C793 1.328 . S
N797 C795 1.350 . S
H798 C793 0.930 . S
H799 C794 0.930 . S
C800 O801 1.224 . S
C800 O819 1.247 . S
O801 C800 1.224 . S
N802 Co792 2.128 . S
N802 C803 1.355 . S
N802 C805 1.311 . S
C803 N802 1.355 . S
C803 C804 1.363 . S
C803 H815 0.929 . S
C804 C803 1.363 . S
C804 N806 1.375 . S
C804 H822 0.931 . S
C805 N802 1.311 . S
C805 N806 1.347 . S
C805 H816 0.929 . S
N806 C804 1.375 . S
N806 C805 1.347 . S
C807 C810 1.365 . S
C807 N812 1.328 . S
C807 H813 0.929 . S
C808 C809 1.362 . S
C808 C811 1.378 . S
C808 H823 0.929 . S
C809 C808 1.362 . S
C809 C810 1.366 . S
C810 C807 1.365 . S
C810 C809 1.366 . S
C810 H824 0.930 . S
C811 C808 1.378 . S
C811 N812 1.315 . S
C811 H814 0.930 . S
N812 Co792 2.194 . S
N812 C807 1.328 . S
N812 C811 1.315 . S
H813 C807 0.929 . S
H814 C811 0.930 . S
H815 C803 0.929 . S
H816 C805 0.929 . S
O817 Co792 2.351 . S
O817 C820 1.244 . S
O818 Co792 2.155 . S
O818 C820 1.240 . S
O819 Co792 2.096 . S
O819 C800 1.247 . S
C820 O817 1.244 . S
C820 O818 1.240 . S
H821 C795 0.931 . S
H822 C804 0.931 . S
H823 C808 0.929 . S
H824 C810 0.930 . S
Co825 N829 2.148 . S
Co825 N835 2.128 . S
Co825 N845 2.194 . S
Co825 O850 2.351 . S
Co825 O851 2.155 . S
Co825 O852 2.096 . S
C826 N829 1.301 . S
C826 N830 1.328 . S
C826 H831 0.930 . S
C827 C828 1.333 . S
C827 N829 1.317 . S
C827 H832 0.930 . S
C828 C827 1.333 . S
C828 N830 1.350 . S
C828 H854 0.931 . S
N829 Co825 2.148 . S
N829 C826 1.301 . S
N829 C827 1.317 . S
N830 C826 1.328 . S
N830 C828 1.350 . S
H831 C826 0.930 . S
H832 C827 0.930 . S
C833 O834 1.224 . S
C833 O852 1.247 . S
O834 C833 1.224 . S
N835 Co825 2.128 . S
N835 C836 1.355 . S
N835 C838 1.311 . S
C836 N835 1.355 . S
C836 C837 1.363 . S
C836 H848 0.929 . S
C837 C836 1.363 . S
C837 N839 1.375 . S
C837 H855 0.931 . S
C838 N835 1.311 . S
C838 N839 1.347 . S
C838 H849 0.929 . S
N839 C837 1.375 . S
N839 C838 1.347 . S
C840 C843 1.365 . S
C840 N845 1.328 . S
C840 H846 0.929 . S
C841 C842 1.362 . S
C841 C844 1.378 . S
C841 H856 0.929 . S
C842 C841 1.362 . S
C842 C843 1.366 . S
C843 C840 1.365 . S
C843 C842 1.366 . S
C843 H857 0.930 . S
C844 C841 1.378 . S
C844 N845 1.315 . S
C844 H847 0.930 . S
N845 Co825 2.194 . S
N845 C840 1.328 . S
N845 C844 1.315 . S
H846 C840 0.929 . S
H847 C844 0.930 . S
H848 C836 0.929 . S
H849 C838 0.929 . S
O850 Co825 2.351 . S
O850 C853 1.244 . S
O851 Co825 2.155 . S
O851 C853 1.240 . S
O852 Co825 2.096 . S
O852 C833 1.247 . S
C853 O850 1.244 . S
C853 O851 1.240 . S
H854 C828 0.931 . S
H855 C837 0.931 . S
H856 C841 0.929 . S
H857 C843 0.930 . S
Co858 N862 2.148 . S
Co858 N868 2.128 . S
Co858 N878 2.194 . S
Co858 O883 2.351 . S
Co858 O884 2.155 . S
Co858 O885 2.096 . S
C859 N862 1.301 . S
C859 N863 1.328 1_556 S
C859 H864 0.930 . S
C860 C861 1.333 1_556 S
C860 N862 1.317 . S
C860 H865 0.930 . S
C861 C860 1.333 1_554 S
C861 N863 1.350 . S
C861 H887 0.931 . S
N862 Co858 2.148 . S
N862 C859 1.301 . S
N862 C860 1.317 . S
N863 C859 1.328 1_554 S
N863 C861 1.350 . S
H864 C859 0.930 . S
H865 C860 0.930 . S
C866 O867 1.224 . S
C866 O885 1.247 . S
O867 C866 1.224 . S
N868 Co858 2.128 . S
N868 C869 1.355 . S
N868 C871 1.311 . S
C869 N868 1.355 . S
C869 C870 1.363 . S
C869 H881 0.929 . S
C870 C869 1.363 . S
C870 N872 1.375 . S
C870 H888 0.931 . S
C871 N868 1.311 . S
C871 N872 1.347 . S
C871 H882 0.929 . S
N872 C870 1.375 . S
N872 C871 1.347 . S
C873 C876 1.365 . S
C873 N878 1.328 . S
C873 H879 0.929 . S
C874 C875 1.362 . S
C874 C877 1.378 . S
C874 H889 0.929 . S
C875 C874 1.362 . S
C875 C876 1.366 . S
C876 C873 1.365 . S
C876 C875 1.366 . S
C876 H890 0.930 . S
C877 C874 1.378 . S
C877 N878 1.315 . S
C877 H880 0.930 . S
N878 Co858 2.194 . S
N878 C873 1.328 . S
N878 C877 1.315 . S
H879 C873 0.929 . S
H880 C877 0.930 . S
H881 C869 0.929 . S
H882 C871 0.929 . S
O883 Co858 2.351 . S
O883 C886 1.244 . S
O884 Co858 2.155 . S
O884 C886 1.240 . S
O885 Co858 2.096 . S
O885 C866 1.247 . S
C886 O883 1.244 . S
C886 O884 1.240 . S
H887 C861 0.931 . S
H888 C870 0.931 . S
H889 C874 0.929 . S
H890 C876 0.930 . S
Co891 N895 2.148 . S
Co891 N901 2.128 . S
Co891 N911 2.194 . S
Co891 O916 2.351 . S
Co891 O917 2.155 . S
Co891 O918 2.096 . S
C892 N895 1.301 . S
C892 N896 1.328 . S
C892 H897 0.930 . S
C893 C894 1.333 . S
C893 N895 1.317 . S
C893 H898 0.930 . S
C894 C893 1.333 . S
C894 N896 1.350 . S
C894 H920 0.931 . S
N895 Co891 2.148 . S
N895 C892 1.301 . S
N895 C893 1.317 . S
N896 C892 1.328 . S
N896 C894 1.350 . S
H897 C892 0.930 . S
H898 C893 0.930 . S
C899 O900 1.224 . S
C899 O918 1.247 . S
O900 C899 1.224 . S
N901 Co891 2.128 . S
N901 C902 1.355 . S
N901 C904 1.311 . S
C902 N901 1.355 . S
C902 C903 1.363 . S
C902 H914 0.929 . S
C903 C902 1.363 . S
C903 N905 1.375 . S
C903 H921 0.931 . S
C904 N901 1.311 . S
C904 N905 1.347 . S
C904 H915 0.929 . S
N905 C903 1.375 . S
N905 C904 1.347 . S
C906 C909 1.365 . S
C906 N911 1.328 . S
C906 H912 0.929 . S
C907 C908 1.362 . S
C907 C910 1.378 . S
C907 H922 0.929 . S
C908 C907 1.362 . S
C908 C909 1.366 . S
C909 C906 1.365 . S
C909 C908 1.366 . S
C909 H923 0.930 . S
C910 C907 1.378 . S
C910 N911 1.315 . S
C910 H913 0.930 . S
N911 Co891 2.194 . S
N911 C906 1.328 . S
N911 C910 1.315 . S
H912 C906 0.929 . S
H913 C910 0.930 . S
H914 C902 0.929 . S
H915 C904 0.929 . S
O916 Co891 2.351 . S
O916 C919 1.244 . S
O917 Co891 2.155 . S
O917 C919 1.240 . S
O918 Co891 2.096 . S
O918 C899 1.247 . S
C919 O916 1.244 . S
C919 O917 1.240 . S
H920 C894 0.931 . S
H921 C903 0.931 . S
H922 C907 0.929 . S
H923 C909 0.930 . S
Co924 N928 2.148 . S
Co924 N934 2.128 . S
Co924 N944 2.194 . S
Co924 O949 2.351 . S
Co924 O950 2.155 . S
Co924 O951 2.096 . S
C925 N928 1.301 . S
C925 N929 1.328 . S
C925 H930 0.930 . S
C926 C927 1.333 . S
C926 N928 1.317 . S
C926 H931 0.930 . S
C927 C926 1.333 . S
C927 N929 1.350 . S
C927 H953 0.931 . S
N928 Co924 2.148 . S
N928 C925 1.301 . S
N928 C926 1.317 . S
N929 C925 1.328 . S
N929 C927 1.350 . S
H930 C925 0.930 . S
H931 C926 0.930 . S
C932 O933 1.224 . S
C932 O951 1.247 . S
O933 C932 1.224 . S
N934 Co924 2.128 . S
N934 C935 1.355 . S
N934 C937 1.311 . S
C935 N934 1.355 . S
C935 C936 1.363 . S
C935 H947 0.929 . S
C936 C935 1.363 . S
C936 N938 1.375 . S
C936 H954 0.931 . S
C937 N934 1.311 . S
C937 N938 1.347 . S
C937 H948 0.929 . S
N938 C936 1.375 . S
N938 C937 1.347 . S
C939 C942 1.365 . S
C939 N944 1.328 . S
C939 H945 0.929 . S
C940 C941 1.362 . S
C940 C943 1.378 . S
C940 H955 0.929 . S
C941 C940 1.362 . S
C941 C942 1.366 . S
C942 C939 1.365 . S
C942 C941 1.366 . S
C942 H956 0.930 . S
C943 C940 1.378 . S
C943 N944 1.315 . S
C943 H946 0.930 . S
N944 Co924 2.194 . S
N944 C939 1.328 . S
N944 C943 1.315 . S
H945 C939 0.929 . S
H946 C943 0.930 . S
H947 C935 0.929 . S
H948 C937 0.929 . S
O949 Co924 2.351 . S
O949 C952 1.244 . S
O950 Co924 2.155 . S
O950 C952 1.240 . S
O951 Co924 2.096 . S
O951 C932 1.247 . S
C952 O949 1.244 . S
C952 O950 1.240 . S
H953 C927 0.931 . S
H954 C936 0.931 . S
H955 C940 0.929 . S
H956 C942 0.930 . S
Co957 N961 2.148 . S
Co957 N967 2.128 . S
Co957 N977 2.194 . S
Co957 O982 2.351 . S
Co957 O983 2.155 . S
Co957 O984 2.096 . S
C958 N961 1.301 . S
C958 N962 1.328 . S
C958 H963 0.930 . S
C959 C960 1.333 . S
C959 N961 1.317 . S
C959 H964 0.930 . S
C960 C959 1.333 . S
C960 N962 1.350 . S
C960 H986 0.931 . S
N961 Co957 2.148 . S
N961 C958 1.301 . S
N961 C959 1.317 . S
N962 C958 1.328 . S
N962 C960 1.350 . S
H963 C958 0.930 . S
H964 C959 0.930 . S
C965 O966 1.224 . S
C965 O984 1.247 . S
O966 C965 1.224 . S
N967 Co957 2.128 . S
N967 C968 1.355 . S
N967 C970 1.311 . S
C968 N967 1.355 . S
C968 C969 1.363 . S
C968 H980 0.929 . S
C969 C968 1.363 . S
C969 N971 1.375 . S
C969 H987 0.931 . S
C970 N967 1.311 . S
C970 N971 1.347 . S
C970 H981 0.929 . S
N971 C969 1.375 . S
N971 C970 1.347 . S
C972 C975 1.365 . S
C972 N977 1.328 . S
C972 H978 0.929 . S
C973 C974 1.362 . S
C973 C976 1.378 . S
C973 H988 0.929 . S
C974 C973 1.362 . S
C974 C975 1.366 . S
C975 C972 1.365 . S
C975 C974 1.366 . S
C975 H989 0.930 . S
C976 C973 1.378 . S
C976 N977 1.315 . S
C976 H979 0.930 . S
N977 Co957 2.194 . S
N977 C972 1.328 . S
N977 C976 1.315 . S
H978 C972 0.929 . S
H979 C976 0.930 . S
H980 C968 0.929 . S
H981 C970 0.929 . S
O982 Co957 2.351 . S
O982 C985 1.244 . S
O983 Co957 2.155 . S
O983 C985 1.240 . S
O984 Co957 2.096 . S
O984 C965 1.247 . S
C985 O982 1.244 . S
C985 O983 1.240 . S
H986 C960 0.931 . S
H987 C969 0.931 . S
H988 C973 0.929 . S
H989 C975 0.930 . S
Co990 N994 2.148 . S
Co990 N1000 2.128 . S
Co990 N1010 2.194 . S
Co990 O1015 2.351 . S
Co990 O1016 2.155 . S
Co990 O1017 2.096 . S
C991 N994 1.301 . S
C991 N995 1.328 1_554 S
C991 H996 0.930 . S
C992 C993 1.333 1_554 S
C992 N994 1.317 . S
C992 H997 0.930 . S
C993 C992 1.333 1_556 S
C993 N995 1.350 . S
C993 H1019 0.931 . S
N994 Co990 2.148 . S
N994 C991 1.301 . S
N994 C992 1.317 . S
N995 C991 1.328 1_556 S
N995 C993 1.350 . S
H996 C991 0.930 . S
H997 C992 0.930 . S
C998 O999 1.224 . S
C998 O1017 1.247 . S
O999 C998 1.224 . S
N1000 Co990 2.128 . S
N1000 C1001 1.355 . S
N1000 C1003 1.311 . S
C1001 N1000 1.355 . S
C1001 C1002 1.363 . S
C1001 H1013 0.929 . S
C1002 C1001 1.363 . S
C1002 N1004 1.375 . S
C1002 H1020 0.931 . S
C1003 N1000 1.311 . S
C1003 N1004 1.347 . S
C1003 H1014 0.929 . S
N1004 C1002 1.375 . S
N1004 C1003 1.347 . S
C1005 C1008 1.365 . S
C1005 N1010 1.328 . S
C1005 H1011 0.929 . S
C1006 C1007 1.362 . S
C1006 C1009 1.378 . S
C1006 H1021 0.929 . S
C1007 C1006 1.362 . S
C1007 C1008 1.366 . S
C1008 C1005 1.365 . S
C1008 C1007 1.366 . S
C1008 H1022 0.930 . S
C1009 C1006 1.378 . S
C1009 N1010 1.315 . S
C1009 H1012 0.930 . S
N1010 Co990 2.194 . S
N1010 C1005 1.328 . S
N1010 C1009 1.315 . S
H1011 C1005 0.929 . S
H1012 C1009 0.930 . S
H1013 C1001 0.929 . S
H1014 C1003 0.929 . S
O1015 Co990 2.351 . S
O1015 C1018 1.244 . S
O1016 Co990 2.155 . S
O1016 C1018 1.240 . S
O1017 Co990 2.096 . S
O1017 C998 1.247 . S
C1018 O1015 1.244 . S
C1018 O1016 1.240 . S
H1019 C993 0.931 . S
H1020 C1002 0.931 . S
H1021 C1006 0.929 . S
H1022 C1008 0.930 . S
Co1023 N1027 2.148 . S
Co1023 N1033 2.128 . S
Co1023 N1043 2.194 . S
Co1023 O1048 2.351 . S
Co1023 O1049 2.155 . S
Co1023 O1050 2.096 . S
C1024 N1027 1.301 . S
C1024 N1028 1.328 . S
C1024 H1029 0.930 . S
C1025 C1026 1.333 . S
C1025 N1027 1.317 . S
C1025 H1030 0.930 . S
C1026 C1025 1.333 . S
C1026 N1028 1.350 . S
C1026 H1052 0.931 . S
N1027 Co1023 2.148 . S
N1027 C1024 1.301 . S
N1027 C1025 1.317 . S
N1028 C1024 1.328 . S
N1028 C1026 1.350 . S
H1029 C1024 0.930 . S
H1030 C1025 0.930 . S
C1031 O1032 1.224 . S
C1031 O1050 1.247 . S
O1032 C1031 1.224 . S
N1033 Co1023 2.128 . S
N1033 C1034 1.355 . S
N1033 C1036 1.311 . S
C1034 N1033 1.355 . S
C1034 C1035 1.363 . S
C1034 H1046 0.929 . S
C1035 C1034 1.363 . S
C1035 N1037 1.375 . S
C1035 H1053 0.931 . S
C1036 N1033 1.311 . S
C1036 N1037 1.347 . S
C1036 H1047 0.929 . S
N1037 C1035 1.375 . S
N1037 C1036 1.347 . S
C1038 C1041 1.365 . S
C1038 N1043 1.328 . S
C1038 H1044 0.929 . S
C1039 C1040 1.362 . S
C1039 C1042 1.378 . S
C1039 H1054 0.929 . S
C1040 C1039 1.362 . S
C1040 C1041 1.366 . S
C1041 C1038 1.365 . S
C1041 C1040 1.366 . S
C1041 H1055 0.930 . S
C1042 C1039 1.378 . S
C1042 N1043 1.315 . S
C1042 H1045 0.930 . S
N1043 Co1023 2.194 . S
N1043 C1038 1.328 . S
N1043 C1042 1.315 . S
H1044 C1038 0.929 . S
H1045 C1042 0.930 . S
H1046 C1034 0.929 . S
H1047 C1036 0.929 . S
O1048 Co1023 2.351 . S
O1048 C1051 1.244 . S
O1049 Co1023 2.155 . S
O1049 C1051 1.240 . S
O1050 Co1023 2.096 . S
O1050 C1031 1.247 . S
C1051 O1048 1.244 . S
C1051 O1049 1.240 . S
H1052 C1026 0.931 . S
H1053 C1035 0.931 . S
H1054 C1039 0.929 . S
H1055 C1041 0.930 . S
C1056 C1057 1.363 . S
C1056 C1062 1.379 . S
C1056 N1064 1.356 . S
C1057 C1056 1.363 . S
C1057 C1063 1.363 . S
C1058 C1059 1.363 . S
C1058 C1063 1.379 . S
C1058 N1065 1.356 . S
C1059 C1058 1.363 . S
C1059 C1062 1.363 . S
N1060 C1062 1.356 . S
N1060 H1072 0.984 . S
N1060 H1073 0.985 . S
N1061 C1063 1.356 . S
N1061 H1066 0.984 . S
N1061 H1067 0.985 . S
C1062 C1056 1.379 . S
C1062 C1059 1.363 . S
C1062 N1060 1.356 . S
C1063 C1057 1.363 . S
C1063 C1058 1.379 . S
C1063 N1061 1.356 . S
N1064 C1056 1.356 . S
N1064 H1070 0.984 1_545 S
N1064 H1071 0.984 1_545 S
N1065 C1058 1.356 . S
N1065 H1068 0.984 . S
N1065 H1069 0.985 . S
H1066 N1061 0.984 . S
H1067 N1061 0.985 . S
H1068 N1065 0.984 . S
H1069 N1065 0.985 . S
H1070 N1064 0.984 1_565 S
H1071 N1064 0.984 1_565 S
H1072 N1060 0.984 . S
H1073 N1060 0.985 . S
C1074 C1075 1.363 . S
C1074 C1080 1.379 . S
C1074 N1082 1.356 . S
C1075 C1074 1.363 . S
C1075 C1081 1.363 . S
C1076 C1077 1.363 . S
C1076 C1081 1.379 . S
C1076 N1083 1.356 . S
C1077 C1076 1.363 . S
C1077 C1080 1.363 . S
N1078 C1080 1.356 . S
N1078 H1090 0.984 . S
N1078 H1091 0.985 . S
N1079 C1081 1.356 . S
N1079 H1084 0.984 . S
N1079 H1085 0.985 . S
C1080 C1074 1.379 . S
C1080 C1077 1.363 . S
C1080 N1078 1.356 . S
C1081 C1075 1.363 . S
C1081 C1076 1.379 . S
C1081 N1079 1.356 . S
N1082 C1074 1.356 . S
N1082 H1088 0.984 . S
N1082 H1089 0.984 . S
N1083 C1076 1.356 . S
N1083 H1086 0.984 . S
N1083 H1087 0.985 . S
H1084 N1079 0.984 . S
H1085 N1079 0.985 . S
H1086 N1083 0.984 . S
H1087 N1083 0.985 . S
H1088 N1082 0.984 . S
H1089 N1082 0.984 . S
H1090 N1078 0.984 . S
H1091 N1078 0.985 . S
C1092 C1093 1.363 . S
C1092 C1098 1.379 . S
C1092 N1100 1.356 . S
C1093 C1092 1.363 . S
C1093 C1099 1.363 . S
C1094 C1095 1.363 . S
C1094 C1099 1.379 . S
C1094 N1101 1.356 . S
C1095 C1094 1.363 . S
C1095 C1098 1.363 . S
N1096 C1098 1.356 1_545 S
N1096 H1108 0.984 . S
N1096 H1109 0.985 . S
N1097 C1099 1.356 . S
N1097 H1102 0.984 . S
N1097 H1103 0.985 . S
C1098 C1092 1.379 . S
C1098 C1095 1.363 . S
C1098 N1096 1.356 1_565 S
C1099 C1093 1.363 . S
C1099 C1094 1.379 . S
C1099 N1097 1.356 . S
N1100 C1092 1.356 . S
N1100 H1106 0.984 . S
N1100 H1107 0.984 . S
N1101 C1094 1.356 . S
N1101 H1104 0.984 . S
N1101 H1105 0.985 . S
H1102 N1097 0.984 . S
H1103 N1097 0.985 . S
H1104 N1101 0.984 . S
H1105 N1101 0.985 . S
H1106 N1100 0.984 . S
H1107 N1100 0.984 . S
H1108 N1096 0.984 . S
H1109 N1096 0.985 . S
C1110 C1111 1.363 . S
C1110 C1116 1.379 . S
C1110 N1118 1.356 . S
C1111 C1110 1.363 . S
C1111 C1117 1.363 . S
C1112 C1113 1.363 . S
C1112 C1117 1.379 . S
C1112 N1119 1.356 . S
C1113 C1112 1.363 . S
C1113 C1116 1.363 . S
N1114 C1116 1.356 . S
N1114 H1126 0.984 . S
N1114 H1127 0.985 . S
N1115 C1117 1.356 . S
N1115 H1120 0.984 . S
N1115 H1121 0.985 . S
C1116 C1110 1.379 . S
C1116 C1113 1.363 . S
C1116 N1114 1.356 . S
C1117 C1111 1.363 . S
C1117 C1112 1.379 . S
C1117 N1115 1.356 . S
N1118 C1110 1.356 . S
N1118 H1124 0.984 . S
N1118 H1125 0.984 . S
N1119 C1112 1.356 . S
N1119 H1122 0.984 . S
N1119 H1123 0.985 . S
H1120 N1115 0.984 . S
H1121 N1115 0.985 . S
H1122 N1119 0.984 . S
H1123 N1119 0.985 . S
H1124 N1118 0.984 . S
H1125 N1118 0.984 . S
H1126 N1114 0.984 . S
H1127 N1114 0.985 . S
C1128 C1129 1.363 . S
C1128 C1134 1.379 . S
C1128 N1136 1.356 . S
C1129 C1128 1.363 . S
C1129 C1135 1.363 . S
C1130 C1131 1.363 . S
C1130 C1135 1.379 . S
C1130 N1137 1.356 . S
C1131 C1130 1.363 . S
C1131 C1134 1.363 . S
N1132 C1134 1.356 . S
N1132 H1144 0.984 . S
N1132 H1145 0.985 . S
N1133 C1135 1.356 . S
N1133 H1138 0.984 . S
N1133 H1139 0.985 . S
C1134 C1128 1.379 . S
C1134 C1131 1.363 . S
C1134 N1132 1.356 . S
C1135 C1129 1.363 . S
C1135 C1130 1.379 . S
C1135 N1133 1.356 . S
N1136 C1128 1.356 . S
N1136 H1142 0.984 . S
N1136 H1143 0.984 . S
N1137 C1130 1.356 . S
N1137 H1140 0.984 . S
N1137 H1141 0.985 . S
H1138 N1133 0.984 . S
H1139 N1133 0.985 . S
H1140 N1137 0.984 . S
H1141 N1137 0.985 . S
H1142 N1136 0.984 . S
H1143 N1136 0.984 . S
H1144 N1132 0.984 . S
H1145 N1132 0.985 . S
C1146 C1147 1.363 . S
C1146 C1152 1.379 . S
C1146 N1154 1.356 . S
C1147 C1146 1.363 . S
C1147 C1153 1.363 . S
C1148 C1149 1.363 . S
C1148 C1153 1.379 . S
C1148 N1155 1.356 . S
C1149 C1148 1.363 . S
C1149 C1152 1.363 . S
N1150 C1152 1.356 . S
N1150 H1162 0.984 . S
N1150 H1163 0.985 . S
N1151 C1153 1.356 . S
N1151 H1156 0.984 . S
N1151 H1157 0.985 . S
C1152 C1146 1.379 . S
C1152 C1149 1.363 . S
C1152 N1150 1.356 . S
C1153 C1147 1.363 . S
C1153 C1148 1.379 . S
C1153 N1151 1.356 . S
N1154 C1146 1.356 . S
N1154 H1160 0.984 . S
N1154 H1161 0.984 . S
N1155 C1148 1.356 . S
N1155 H1158 0.984 . S
N1155 H1159 0.985 . S
H1156 N1151 0.984 . S
H1157 N1151 0.985 . S
H1158 N1155 0.984 . S
H1159 N1155 0.985 . S
H1160 N1154 0.984 . S
H1161 N1154 0.984 . S
H1162 N1150 0.984 . S
H1163 N1150 0.985 . S
C1164 C1165 1.363 . S
C1164 C1170 1.379 . S
C1164 N1172 1.356 . S
C1165 C1164 1.363 . S
C1165 C1171 1.363 . S
C1166 C1167 1.363 . S
C1166 C1171 1.379 . S
C1166 N1173 1.356 . S
C1167 C1166 1.363 . S
C1167 C1170 1.363 . S
N1168 C1170 1.356 . S
N1168 H1180 0.984 . S
N1168 H1181 0.967 1_545 S
N1169 C1171 1.356 . S
N1169 H1174 0.984 . S
N1169 H1175 0.985 . S
C1170 C1164 1.379 . S
C1170 C1167 1.363 . S
C1170 N1168 1.356 . S
C1171 C1165 1.363 . S
C1171 C1166 1.379 . S
C1171 N1169 1.356 . S
N1172 C1164 1.356 . S
N1172 H1178 0.984 . S
N1172 H1179 0.984 . S
N1173 C1166 1.356 . S
N1173 H1176 0.984 . S
N1173 H1177 0.985 . S
H1174 N1169 0.984 . S
H1175 N1169 0.985 . S
H1176 N1173 0.984 . S
H1177 N1173 0.985 . S
H1178 N1172 0.984 . S
H1179 N1172 0.984 . S
H1180 N1168 0.984 . S
H1181 N1168 0.967 1_565 S
C1182 C1183 1.363 . S
C1182 C1188 1.379 . S
C1182 N1190 1.356 . S
C1183 C1182 1.363 . S
C1183 C1189 1.363 . S
C1184 C1185 1.363 . S
C1184 C1189 1.379 . S
C1184 N1191 1.356 . S
C1185 C1184 1.363 . S
C1185 C1188 1.363 . S
N1186 C1188 1.356 . S
N1186 H1198 0.984 . S
N1186 H1199 0.985 . S
N1187 C1189 1.356 . S
N1187 H1192 0.984 . S
N1187 H1193 0.985 . S
C1188 C1182 1.379 . S
C1188 C1185 1.363 . S
C1188 N1186 1.356 . S
C1189 C1183 1.363 . S
C1189 C1184 1.379 . S
C1189 N1187 1.356 . S
N1190 C1182 1.356 . S
N1190 H1196 0.984 . S
N1190 H1197 0.984 . S
N1191 C1184 1.356 . S
N1191 H1194 0.984 . S
N1191 H1195 0.985 . S
H1192 N1187 0.984 . S
H1193 N1187 0.985 . S
H1194 N1191 0.984 . S
H1195 N1191 0.985 . S
H1196 N1190 0.984 . S
H1197 N1190 0.984 . S
H1198 N1186 0.984 . S
H1199 N1186 0.985 . S
C1200 C1201 1.363 . S
C1200 C1206 1.379 . S
C1200 N1208 1.356 . S
C1201 C1200 1.363 . S
C1201 C1207 1.363 . S
C1202 C1203 1.363 . S
C1202 C1207 1.379 . S
C1202 N1209 1.356 . S
C1203 C1202 1.363 . S
C1203 C1206 1.363 . S
N1204 C1206 1.356 . S
N1204 H1216 0.984 . S
N1204 H1217 0.985 . S
N1205 C1207 1.356 . S
N1205 H1210 0.984 . S
N1205 H1211 0.985 . S
C1206 C1200 1.379 . S
C1206 C1203 1.363 . S
C1206 N1204 1.356 . S
C1207 C1201 1.363 . S
C1207 C1202 1.379 . S
C1207 N1205 1.356 . S
N1208 C1200 1.356 . S
N1208 H1214 0.984 1_565 S
N1208 H1215 0.984 1_565 S
N1209 C1202 1.356 . S
N1209 H1212 0.984 . S
N1209 H1213 0.985 . S
H1210 N1205 0.984 . S
H1211 N1205 0.985 . S
H1212 N1209 0.984 . S
H1213 N1209 0.985 . S
H1214 N1208 0.984 1_545 S
H1215 N1208 0.984 1_545 S
H1216 N1204 0.984 . S
H1217 N1204 0.985 . S
C1218 C1219 1.363 . S
C1218 C1224 1.379 . S
C1218 N1226 1.356 . S
C1219 C1218 1.363 . S
C1219 C1225 1.363 . S
C1220 C1221 1.363 . S
C1220 C1225 1.379 . S
C1220 N1227 1.356 . S
C1221 C1220 1.363 . S
C1221 C1224 1.363 . S
N1222 C1224 1.356 . S
N1222 H1234 0.984 . S
N1222 H1235 0.985 . S
N1223 C1225 1.356 . S
N1223 H1228 0.984 . S
N1223 H1229 0.985 . S
C1224 C1218 1.379 . S
C1224 C1221 1.363 . S
C1224 N1222 1.356 . S
C1225 C1219 1.363 . S
C1225 C1220 1.379 . S
C1225 N1223 1.356 . S
N1226 C1218 1.356 . S
N1226 H1232 0.984 . S
N1226 H1233 0.984 . S
N1227 C1220 1.356 . S
N1227 H1230 0.984 . S
N1227 H1231 0.985 . S
H1228 N1223 0.984 . S
H1229 N1223 0.985 . S
H1230 N1227 0.984 . S
H1231 N1227 0.985 . S
H1232 N1226 0.984 . S
H1233 N1226 0.984 . S
H1234 N1222 0.984 . S
H1235 N1222 0.985 . S
C1236 C1237 1.363 . S
C1236 C1242 1.379 . S
C1236 N1244 1.356 . S
C1237 C1236 1.363 . S
C1237 C1243 1.363 . S
C1238 C1239 1.363 . S
C1238 C1243 1.379 . S
C1238 N1245 1.381 . S
C1239 C1238 1.363 . S
C1239 C1242 1.363 . S
N1240 C1242 1.356 . S
N1240 H1252 0.984 . S
N1240 H1253 0.985 . S
N1241 C1243 1.356 . S
N1241 H1246 0.984 . S
N1241 H1247 0.985 . S
C1242 C1236 1.379 . S
C1242 C1239 1.363 . S
C1242 N1240 1.356 . S
C1243 C1237 1.363 . S
C1243 C1238 1.379 . S
C1243 N1241 1.356 . S
N1244 C1236 1.356 . S
N1244 H1250 0.984 . S
N1244 H1251 0.984 . S
N1245 C1238 1.381 . S
N1245 H1248 0.970 1_545 S
N1245 H1249 0.974 1_545 S
H1246 N1241 0.984 . S
H1247 N1241 0.985 . S
H1248 N1245 0.970 1_565 S
H1249 N1245 0.974 1_565 S
H1250 N1244 0.984 . S
H1251 N1244 0.984 . S
H1252 N1240 0.984 . S
H1253 N1240 0.985 . S
C1254 C1255 1.363 . S
C1254 C1260 1.379 . S
C1254 N1262 1.356 . S
C1255 C1254 1.363 . S
C1255 C1261 1.363 . S
C1256 C1257 1.363 . S
C1256 C1261 1.379 . S
C1256 N1263 1.356 . S
C1257 C1256 1.363 . S
C1257 C1260 1.363 . S
N1258 C1260 1.356 . S
N1258 H1270 0.984 . S
N1258 H1271 0.985 . S
N1259 C1261 1.356 . S
N1259 H1264 0.984 . S
N1259 H1265 0.985 . S
C1260 C1254 1.379 . S
C1260 C1257 1.363 . S
C1260 N1258 1.356 . S
C1261 C1255 1.363 . S
C1261 C1256 1.379 . S
C1261 N1259 1.356 . S
N1262 C1254 1.356 . S
N1262 H1268 0.984 . S
N1262 H1269 0.984 . S
N1263 C1256 1.356 . S
N1263 H1266 0.984 . S
N1263 H1267 0.985 . S
H1264 N1259 0.984 . S
H1265 N1259 0.985 . S
H1266 N1263 0.984 . S
H1267 N1263 0.985 . S
H1268 N1262 0.984 . S
H1269 N1262 0.984 . S
H1270 N1258 0.984 . S
H1271 N1258 0.985 . S
C1272 C1273 1.363 . S
C1272 C1278 1.379 . S
C1272 N1280 1.356 . S
C1273 C1272 1.363 . S
C1273 C1279 1.363 . S
C1274 C1275 1.363 . S
C1274 C1279 1.379 . S
C1274 N1281 1.356 1_545 S
C1275 C1274 1.363 . S
C1275 C1278 1.363 . S
N1276 C1278 1.356 . S
N1276 H1288 0.984 . S
N1276 H1289 0.985 . S
N1277 C1279 1.356 . S
N1277 H1282 0.984 . S
N1277 H1283 0.985 . S
C1278 C1272 1.379 . S
C1278 C1275 1.363 . S
C1278 N1276 1.356 . S
C1279 C1273 1.363 . S
C1279 C1274 1.379 . S
C1279 N1277 1.356 . S
N1280 C1272 1.356 . S
N1280 H1286 0.984 . S
N1280 H1287 0.984 . S
N1281 C1274 1.356 1_565 S
N1281 H1284 0.984 . S
N1281 H1285 0.985 . S
H1282 N1277 0.984 . S
H1283 N1277 0.985 . S
H1284 N1281 0.984 . S
H1285 N1281 0.985 . S
H1286 N1280 0.984 . S
H1287 N1280 0.984 . S
H1288 N1276 0.984 . S
H1289 N1276 0.985 . S
C1290 C1291 1.363 . S
C1290 C1296 1.379 . S
C1290 N1298 1.356 . S
C1291 C1290 1.363 . S
C1291 C1297 1.363 . S
C1292 C1293 1.363 . S
C1292 C1297 1.379 . S
C1292 N1299 1.356 . S
C1293 C1292 1.363 . S
C1293 C1296 1.363 . S
N1294 C1296 1.356 . S
N1294 H1306 0.984 . S
N1294 H1307 0.985 . S
N1295 C1297 1.356 . S
N1295 H1300 0.984 . S
N1295 H1301 0.985 . S
C1296 C1290 1.379 . S
C1296 C1293 1.363 . S
C1296 N1294 1.356 . S
C1297 C1291 1.363 . S
C1297 C1292 1.379 . S
C1297 N1295 1.356 . S
N1298 C1290 1.356 . S
N1298 H1304 0.984 . S
N1298 H1305 0.984 . S
N1299 C1292 1.356 . S
N1299 H1302 0.984 . S
N1299 H1303 0.985 . S
H1300 N1295 0.984 . S
H1301 N1295 0.985 . S
H1302 N1299 0.984 . S
H1303 N1299 0.985 . S
H1304 N1298 0.984 . S
H1305 N1298 0.984 . S
H1306 N1294 0.984 . S
H1307 N1294 0.985 . S
C1308 C1309 1.363 . S
C1308 C1314 1.379 . S
C1308 N1316 1.356 . S
C1309 C1308 1.363 . S
C1309 C1315 1.363 . S
C1310 C1311 1.363 . S
C1310 C1315 1.379 . S
C1310 N1317 1.356 . S
C1311 C1310 1.363 . S
C1311 C1314 1.363 . S
N1312 C1314 1.356 . S
N1312 H1324 0.984 . S
N1312 H1325 0.985 . S
N1313 C1315 1.356 . S
N1313 H1318 0.984 . S
N1313 H1319 0.985 . S
C1314 C1308 1.379 . S
C1314 C1311 1.363 . S
C1314 N1312 1.356 . S
C1315 C1309 1.363 . S
C1315 C1310 1.379 . S
C1315 N1313 1.356 . S
N1316 C1308 1.356 . S
N1316 H1322 0.984 . S
N1316 H1323 0.984 . S
N1317 C1310 1.356 . S
N1317 H1320 0.984 . S
N1317 H1321 0.985 . S
H1318 N1313 0.984 . S
H1319 N1313 0.985 . S
H1320 N1317 0.984 . S
H1321 N1317 0.985 . S
H1322 N1316 0.984 . S
H1323 N1316 0.984 . S
H1324 N1312 0.984 . S
H1325 N1312 0.985 . S
C1326 C1327 1.363 . S
C1326 C1332 1.379 . S
C1326 N1334 1.356 . S
C1327 C1326 1.363 . S
C1327 C1333 1.363 . S
C1328 C1329 1.363 . S
C1328 C1333 1.379 . S
C1328 N1335 1.356 . S
C1329 C1328 1.363 . S
C1329 C1332 1.363 . S
N1330 C1332 1.356 . S
N1330 H1342 0.984 . S
N1330 H1343 0.985 . S
N1331 C1333 1.356 . S
N1331 H1336 0.984 . S
N1331 H1337 0.985 . S
C1332 C1326 1.379 . S
C1332 C1329 1.363 . S
C1332 N1330 1.356 . S
C1333 C1327 1.363 . S
C1333 C1328 1.379 . S
C1333 N1331 1.356 . S
N1334 C1326 1.356 . S
N1334 H1340 0.984 . S
N1334 H1341 0.984 . S
N1335 C1328 1.356 . S
N1335 H1338 0.984 . S
N1335 H1339 0.985 . S
H1336 N1331 0.984 . S
H1337 N1331 0.985 . S
H1338 N1335 0.984 . S
H1339 N1335 0.985 . S
H1340 N1334 0.984 . S
H1341 N1334 0.984 . S
H1342 N1330 0.984 . S
H1343 N1330 0.985 . S
C1344 C1345 1.363 . S
C1344 C1350 1.379 . S
C1344 N1352 1.356 . S
C1345 C1344 1.363 . S
C1345 C1351 1.363 . S
C1346 C1347 1.363 . S
C1346 C1351 1.379 . S
C1346 N1353 1.356 . S
C1347 C1346 1.363 . S
C1347 C1350 1.363 . S
N1348 C1350 1.356 . S
N1348 H1360 0.984 . S
N1348 H1361 0.985 . S
N1349 C1351 1.356 . S
N1349 H1354 0.984 . S
N1349 H1355 0.985 . S
C1350 C1344 1.379 . S
C1350 C1347 1.363 . S
C1350 N1348 1.356 . S
C1351 C1345 1.363 . S
C1351 C1346 1.379 . S
C1351 N1349 1.356 . S
N1352 C1344 1.356 . S
N1352 H1358 0.984 . S
N1352 H1359 0.984 . S
N1353 C1346 1.356 . S
N1353 H1356 0.984 . S
N1353 H1357 0.985 . S
H1354 N1349 0.984 . S
H1355 N1349 0.985 . S
H1356 N1353 0.984 . S
H1357 N1353 0.985 . S
H1358 N1352 0.984 . S
H1359 N1352 0.984 . S
H1360 N1348 0.984 . S
H1361 N1348 0.985 . S
C1362 C1363 1.363 . S
C1362 C1368 1.379 . S
C1362 N1370 1.356 . S
C1363 C1362 1.363 . S
C1363 C1369 1.363 . S
C1364 C1365 1.363 . S
C1364 C1369 1.379 . S
C1364 N1371 1.356 . S
C1365 C1364 1.363 . S
C1365 C1368 1.363 . S
N1366 C1368 1.356 . S
N1366 H1378 0.984 . S
N1366 H1379 0.985 . S
N1367 C1369 1.356 . S
N1367 H1372 0.984 . S
N1367 H1373 0.985 . S
C1368 C1362 1.379 . S
C1368 C1365 1.363 . S
C1368 N1366 1.356 . S
C1369 C1363 1.363 . S
C1369 C1364 1.379 . S
C1369 N1367 1.356 . S
N1370 C1362 1.356 . S
N1370 H1376 0.984 . S
N1370 H1377 0.984 . S
N1371 C1364 1.356 . S
N1371 H1374 0.984 . S
N1371 H1375 0.985 . S
H1372 N1367 0.984 . S
H1373 N1367 0.985 . S
H1374 N1371 0.984 . S
H1375 N1371 0.985 . S
H1376 N1370 0.984 . S
H1377 N1370 0.984 . S
H1378 N1366 0.984 . S
H1379 N1366 0.985 . S
C1380 C1381 1.363 . S
C1380 C1386 1.379 . S
C1380 N1388 1.356 . S
C1381 C1380 1.363 . S
C1381 C1387 1.363 . S
C1382 C1383 1.363 . S
C1382 C1387 1.379 . S
C1382 N1389 1.356 . S
C1383 C1382 1.363 . S
C1383 C1386 1.363 . S
N1384 C1386 1.356 . S
N1384 H1396 0.984 . S
N1384 H1397 0.985 . S
N1385 C1387 1.356 . S
N1385 H1390 0.984 . S
N1385 H1391 0.985 . S
C1386 C1380 1.379 . S
C1386 C1383 1.363 . S
C1386 N1384 1.356 . S
C1387 C1381 1.363 . S
C1387 C1382 1.379 . S
C1387 N1385 1.356 . S
N1388 C1380 1.356 . S
N1388 H1394 0.984 . S
N1388 H1395 0.984 . S
N1389 C1382 1.356 . S
N1389 H1392 0.984 . S
N1389 H1393 0.985 . S
H1390 N1385 0.984 . S
H1391 N1385 0.985 . S
H1392 N1389 0.984 . S
H1393 N1389 0.985 . S
H1394 N1388 0.984 . S
H1395 N1388 0.984 . S
H1396 N1384 0.984 . S
H1397 N1384 0.985 . S
C1398 C1399 1.363 . S
C1398 C1404 1.379 . S
C1398 N1406 1.356 . S
C1399 C1398 1.363 . S
C1399 C1405 1.363 . S
C1400 C1401 1.363 . S
C1400 C1405 1.379 . S
C1400 N1407 1.356 . S
C1401 C1400 1.363 . S
C1401 C1404 1.363 . S
N1402 C1404 1.356 . S
N1402 H1414 0.984 . S
N1402 H1415 0.985 . S
N1403 C1405 1.356 . S
N1403 H1408 0.984 . S
N1403 H1409 0.985 . S
C1404 C1398 1.379 . S
C1404 C1401 1.363 . S
C1404 N1402 1.356 . S
C1405 C1399 1.363 . S
C1405 C1400 1.379 . S
C1405 N1403 1.356 . S
N1406 C1398 1.356 . S
N1406 H1412 0.984 . S
N1406 H1413 0.984 . S
N1407 C1400 1.356 . S
N1407 H1410 0.984 . S
N1407 H1411 0.985 . S
H1408 N1403 0.984 . S
H1409 N1403 0.985 . S
H1410 N1407 0.984 . S
H1411 N1407 0.985 . S
H1412 N1406 0.984 . S
H1413 N1406 0.984 . S
H1414 N1402 0.984 . S
H1415 N1402 0.985 . S
C1416 C1417 1.363 . S
C1416 C1422 1.379 . S
C1416 N1424 1.356 . S
C1417 C1416 1.363 . S
C1417 C1423 1.363 . S
C1418 C1419 1.363 . S
C1418 C1423 1.379 . S
C1418 N1425 1.356 . S
C1419 C1418 1.363 . S
C1419 C1422 1.363 . S
N1420 C1422 1.356 . S
N1420 H1432 0.984 . S
N1420 H1433 0.985 . S
N1421 C1423 1.356 . S
N1421 H1426 0.984 . S
N1421 H1427 0.985 . S
C1422 C1416 1.379 . S
C1422 C1419 1.363 . S
C1422 N1420 1.356 . S
C1423 C1417 1.363 . S
C1423 C1418 1.379 . S
C1423 N1421 1.356 . S
N1424 C1416 1.356 . S
N1424 H1430 0.984 . S
N1424 H1431 0.984 . S
N1425 C1418 1.356 . S
N1425 H1428 0.984 . S
N1425 H1429 0.985 . S
H1426 N1421 0.984 . S
H1427 N1421 0.985 . S
H1428 N1425 0.984 . S
H1429 N1425 0.985 . S
H1430 N1424 0.984 . S
H1431 N1424 0.984 . S
H1432 N1420 0.984 . S
H1433 N1420 0.985 . S
C1434 C1435 1.363 . S
C1434 C1440 1.379 . S
C1434 N1442 1.356 . S
C1435 C1434 1.363 . S
C1435 C1441 1.363 . S
C1436 C1437 1.363 . S
C1436 C1441 1.379 . S
C1436 N1443 1.356 . S
C1437 C1436 1.363 . S
C1437 C1440 1.363 . S
N1438 C1440 1.356 . S
N1438 H1450 0.984 . S
N1438 H1451 0.985 . S
N1439 C1441 1.356 . S
N1439 H1444 0.984 . S
N1439 H1445 0.985 . S
C1440 C1434 1.379 . S
C1440 C1437 1.363 . S
C1440 N1438 1.356 . S
C1441 C1435 1.363 . S
C1441 C1436 1.379 . S
C1441 N1439 1.356 . S
N1442 C1434 1.356 . S
N1442 H1448 0.984 . S
N1442 H1449 0.984 . S
N1443 C1436 1.356 . S
N1443 H1446 0.984 . S
N1443 H1447 0.985 . S
H1444 N1439 0.984 . S
H1445 N1439 0.985 . S
H1446 N1443 0.984 . S
H1447 N1443 0.985 . S
H1448 N1442 0.984 . S
H1449 N1442 0.984 . S
H1450 N1438 0.984 . S
H1451 N1438 0.985 . S
C1452 C1453 1.363 . S
C1452 C1458 1.379 . S
C1452 N1460 1.356 . S
C1453 C1452 1.363 . S
C1453 C1459 1.363 . S
C1454 C1455 1.363 . S
C1454 C1459 1.379 . S
C1454 N1461 1.356 . S
C1455 C1454 1.363 . S
C1455 C1458 1.363 . S
N1456 C1458 1.356 . S
N1456 H1468 0.984 . S
N1456 H1469 0.985 . S
N1457 C1459 1.356 . S
N1457 H1462 0.984 . S
N1457 H1463 0.985 . S
C1458 C1452 1.379 . S
C1458 C1455 1.363 . S
C1458 N1456 1.356 . S
C1459 C1453 1.363 . S
C1459 C1454 1.379 . S
C1459 N1457 1.356 . S
N1460 C1452 1.356 . S
N1460 H1466 0.984 . S
N1460 H1467 0.984 . S
N1461 C1454 1.356 . S
N1461 H1464 0.984 . S
N1461 H1465 0.985 . S
H1462 N1457 0.984 . S
H1463 N1457 0.985 . S
H1464 N1461 0.984 . S
H1465 N1461 0.985 . S
H1466 N1460 0.984 . S
H1467 N1460 0.984 . S
H1468 N1456 0.984 . S
H1469 N1456 0.985 . S
C1470 C1471 1.363 . S
C1470 C1476 1.379 . S
C1470 N1478 1.356 . S
C1471 C1470 1.363 . S
C1471 C1477 1.363 . S
C1472 C1473 1.363 . S
C1472 C1477 1.379 . S
C1472 N1479 1.356 . S
C1473 C1472 1.363 . S
C1473 C1476 1.363 . S
N1474 C1476 1.356 . S
N1474 H1486 0.984 . S
N1474 H1487 0.985 . S
N1475 C1477 1.356 . S
N1475 H1480 0.984 . S
N1475 H1481 0.985 . S
C1476 C1470 1.379 . S
C1476 C1473 1.363 . S
C1476 N1474 1.356 . S
C1477 C1471 1.363 . S
C1477 C1472 1.379 . S
C1477 N1475 1.356 . S
N1478 C1470 1.356 . S
N1478 H1484 0.984 . S
N1478 H1485 0.984 . S
N1479 C1472 1.356 . S
N1479 H1482 0.984 . S
N1479 H1483 0.985 . S
H1480 N1475 0.984 . S
H1481 N1475 0.985 . S
H1482 N1479 0.984 . S
H1483 N1479 0.985 . S
H1484 N1478 0.984 . S
H1485 N1478 0.984 . S
H1486 N1474 0.984 . S
H1487 N1474 0.985 . S
C1488 C1489 1.363 . S
C1488 C1494 1.379 . S
C1488 N1496 1.356 . S
C1489 C1488 1.363 . S
C1489 C1495 1.363 . S
C1490 C1491 1.363 . S
C1490 C1495 1.379 . S
C1490 N1497 1.356 . S
C1491 C1490 1.363 . S
C1491 C1494 1.363 . S
N1492 C1494 1.356 . S
N1492 H1504 0.984 . S
N1492 H1505 0.985 . S
N1493 C1495 1.356 . S
N1493 H1498 0.984 . S
N1493 H1499 0.985 . S
C1494 C1488 1.379 . S
C1494 C1491 1.363 . S
C1494 N1492 1.356 . S
C1495 C1489 1.363 . S
C1495 C1490 1.379 . S
C1495 N1493 1.356 . S
N1496 C1488 1.356 . S
N1496 H1502 0.984 . S
N1496 H1503 0.984 . S
N1497 C1490 1.356 . S
N1497 H1500 0.984 . S
N1497 H1501 0.985 . S
H1498 N1493 0.984 . S
H1499 N1493 0.985 . S
H1500 N1497 0.984 . S
H1501 N1497 0.985 . S
H1502 N1496 0.984 . S
H1503 N1496 0.984 . S
H1504 N1492 0.984 . S
H1505 N1492 0.985 . S
C1506 C1507 1.363 . S
C1506 C1512 1.379 . S
C1506 N1514 1.356 . S
C1507 C1506 1.363 . S
C1507 C1513 1.363 . S
C1508 C1509 1.363 . S
C1508 C1513 1.379 . S
C1508 N1515 1.356 . S
C1509 C1508 1.363 . S
C1509 C1512 1.363 . S
N1510 C1512 1.356 . S
N1510 H1522 0.984 . S
N1510 H1523 0.985 . S
N1511 C1513 1.356 . S
N1511 H1516 0.984 . S
N1511 H1517 0.985 . S
C1512 C1506 1.379 . S
C1512 C1509 1.363 . S
C1512 N1510 1.356 . S
C1513 C1507 1.363 . S
C1513 C1508 1.379 . S
C1513 N1511 1.356 . S
N1514 C1506 1.356 . S
N1514 H1520 0.984 . S
N1514 H1521 0.984 . S
N1515 C1508 1.356 . S
N1515 H1518 0.984 . S
N1515 H1519 0.985 . S
H1516 N1511 0.984 . S
H1517 N1511 0.985 . S
H1518 N1515 0.984 . S
H1519 N1515 0.985 . S
H1520 N1514 0.984 . S
H1521 N1514 0.984 . S
H1522 N1510 0.984 . S
H1523 N1510 0.985 . S
C1524 C1525 1.363 . S
C1524 C1530 1.379 . S
C1524 N1532 1.356 . S
C1525 C1524 1.363 . S
C1525 C1531 1.363 . S
C1526 C1527 1.363 . S
C1526 C1531 1.379 . S
C1526 N1533 1.356 . S
C1527 C1526 1.363 . S
C1527 C1530 1.363 . S
N1528 C1530 1.356 . S
N1528 H1540 0.984 . S
N1528 H1541 0.985 . S
N1529 C1531 1.356 . S
N1529 H1534 0.984 . S
N1529 H1535 0.985 . S
C1530 C1524 1.379 . S
C1530 C1527 1.363 . S
C1530 N1528 1.356 . S
C1531 C1525 1.363 . S
C1531 C1526 1.379 . S
C1531 N1529 1.356 . S
N1532 C1524 1.356 . S
N1532 H1538 0.984 . S
N1532 H1539 0.984 . S
N1533 C1526 1.356 . S
N1533 H1536 0.984 . S
N1533 H1537 0.985 . S
H1534 N1529 0.984 . S
H1535 N1529 0.985 . S
H1536 N1533 0.984 . S
H1537 N1533 0.985 . S
H1538 N1532 0.984 . S
H1539 N1532 0.984 . S
H1540 N1528 0.984 . S
H1541 N1528 0.985 . S
C1542 C1543 1.363 . S
C1542 C1548 1.379 . S
C1542 N1550 1.356 . S
C1543 C1542 1.363 . S
C1543 C1549 1.363 . S
C1544 C1545 1.363 . S
C1544 C1549 1.379 . S
C1544 N1551 1.356 . S
C1545 C1544 1.363 . S
C1545 C1548 1.363 . S
N1546 C1548 1.356 . S
N1546 H1558 0.984 . S
N1546 H1559 0.985 . S
N1547 C1549 1.356 . S
N1547 H1552 0.984 . S
N1547 H1553 0.985 . S
C1548 C1542 1.379 . S
C1548 C1545 1.363 . S
C1548 N1546 1.356 . S
C1549 C1543 1.363 . S
C1549 C1544 1.379 . S
C1549 N1547 1.356 . S
N1550 C1542 1.356 . S
N1550 H1556 0.984 . S
N1550 H1557 0.984 . S
N1551 C1544 1.356 . S
N1551 H1554 0.984 . S
N1551 H1555 0.985 . S
H1552 N1547 0.984 . S
H1553 N1547 0.985 . S
H1554 N1551 0.984 . S
H1555 N1551 0.985 . S
H1556 N1550 0.984 . S
H1557 N1550 0.984 . S
H1558 N1546 0.984 . S
H1559 N1546 0.985 . S
C1560 C1561 1.363 . S
C1560 C1566 1.379 . S
C1560 N1568 1.356 . S
C1561 C1560 1.363 . S
C1561 C1567 1.363 . S
C1562 C1563 1.363 . S
C1562 C1567 1.379 . S
C1562 N1569 1.356 . S
C1563 C1562 1.363 . S
C1563 C1566 1.363 . S
N1564 C1566 1.356 . S
N1564 H1576 0.984 . S
N1564 H1577 0.985 . S
N1565 C1567 1.356 . S
N1565 H1570 0.984 . S
N1565 H1571 0.985 . S
C1566 C1560 1.379 . S
C1566 C1563 1.363 . S
C1566 N1564 1.356 . S
C1567 C1561 1.363 . S
C1567 C1562 1.379 . S
C1567 N1565 1.356 . S
N1568 C1560 1.356 . S
N1568 H1574 0.984 . S
N1568 H1575 0.984 . S
N1569 C1562 1.356 . S
N1569 H1572 0.984 . S
N1569 H1573 0.985 . S
H1570 N1565 0.984 . S
H1571 N1565 0.985 . S
H1572 N1569 0.984 . S
H1573 N1569 0.985 . S
H1574 N1568 0.984 . S
H1575 N1568 0.984 . S
H1576 N1564 0.984 . S
H1577 N1564 0.985 . S
C1578 C1579 1.363 . S
C1578 C1584 1.379 . S
C1578 N1586 1.356 . S
C1579 C1578 1.363 . S
C1579 C1585 1.363 . S
C1580 C1581 1.363 . S
C1580 C1585 1.379 . S
C1580 N1587 1.356 . S
C1581 C1580 1.363 . S
C1581 C1584 1.363 . S
N1582 C1584 1.356 . S
N1582 H1594 0.984 . S
N1582 H1595 0.985 . S
N1583 C1585 1.356 . S
N1583 H1588 0.984 . S
N1583 H1589 0.985 . S
C1584 C1578 1.379 . S
C1584 C1581 1.363 . S
C1584 N1582 1.356 . S
C1585 C1579 1.363 . S
C1585 C1580 1.379 . S
C1585 N1583 1.356 . S
N1586 C1578 1.356 . S
N1586 H1592 0.984 . S
N1586 H1593 0.984 . S
N1587 C1580 1.356 . S
N1587 H1590 0.984 . S
N1587 H1591 0.985 . S
H1588 N1583 0.984 . S
H1589 N1583 0.985 . S
H1590 N1587 0.984 . S
H1591 N1587 0.985 . S
H1592 N1586 0.984 . S
H1593 N1586 0.984 . S
H1594 N1582 0.984 . S
H1595 N1582 0.985 . S
C1596 C1597 1.363 . S
C1596 C1602 1.379 . S
C1596 N1604 1.356 . S
C1597 C1596 1.363 . S
C1597 C1603 1.363 . S
C1598 C1599 1.363 . S
C1598 C1603 1.379 . S
C1598 N1605 1.356 . S
C1599 C1598 1.363 . S
C1599 C1602 1.363 . S
N1600 C1602 1.356 . S
N1600 H1612 0.984 . S
N1600 H1613 0.985 . S
N1601 C1603 1.356 . S
N1601 H1606 0.984 . S
N1601 H1607 0.985 . S
C1602 C1596 1.379 . S
C1602 C1599 1.363 . S
C1602 N1600 1.356 . S
C1603 C1597 1.363 . S
C1603 C1598 1.379 . S
C1603 N1601 1.356 . S
N1604 C1596 1.356 . S
N1604 H1610 0.984 . S
N1604 H1611 0.984 . S
N1605 C1598 1.356 . S
N1605 H1608 0.984 . S
N1605 H1609 0.985 . S
H1606 N1601 0.984 . S
H1607 N1601 0.985 . S
H1608 N1605 0.984 . S
H1609 N1605 0.985 . S
H1610 N1604 0.984 . S
H1611 N1604 0.984 . S
H1612 N1600 0.984 . S
H1613 N1600 0.985 . S
C1614 C1615 1.363 . S
C1614 C1620 1.379 . S
C1614 N1622 1.356 . S
C1615 C1614 1.363 . S
C1615 C1621 1.363 . S
C1616 C1617 1.363 . S
C1616 C1621 1.379 . S
C1616 N1623 1.356 . S
C1617 C1616 1.363 . S
C1617 C1620 1.363 . S
N1618 C1620 1.356 . S
N1618 H1630 0.984 . S
N1618 H1631 0.985 . S
N1619 C1621 1.356 . S
N1619 H1624 0.984 . S
N1619 H1625 0.985 . S
C1620 C1614 1.379 . S
C1620 C1617 1.363 . S
C1620 N1618 1.356 . S
C1621 C1615 1.363 . S
C1621 C1616 1.379 . S
C1621 N1619 1.356 . S
N1622 C1614 1.356 . S
N1622 H1628 0.984 . S
N1622 H1629 0.984 . S
N1623 C1616 1.356 . S
N1623 H1626 0.984 . S
N1623 H1627 0.985 . S
H1624 N1619 0.984 . S
H1625 N1619 0.985 . S
H1626 N1623 0.984 . S
H1627 N1623 0.985 . S
H1628 N1622 0.984 . S
H1629 N1622 0.984 . S
H1630 N1618 0.984 . S
H1631 N1618 0.985 . S
C1632 C1633 1.363 . S
C1632 C1638 1.379 . S
C1632 N1640 1.356 . S
C1633 C1632 1.363 . S
C1633 C1639 1.363 . S
C1634 C1635 1.363 . S
C1634 C1639 1.379 . S
C1634 N1641 1.356 . S
C1635 C1634 1.363 . S
C1635 C1638 1.363 . S
N1636 C1638 1.356 . S
N1636 H1648 0.984 . S
N1636 H1649 0.985 . S
N1637 C1639 1.356 . S
N1637 H1642 0.984 . S
N1637 H1643 0.985 . S
C1638 C1632 1.379 . S
C1638 C1635 1.363 . S
C1638 N1636 1.356 . S
C1639 C1633 1.363 . S
C1639 C1634 1.379 . S
C1639 N1637 1.356 . S
N1640 C1632 1.356 . S
N1640 H1646 0.984 . S
N1640 H1647 0.984 . S
N1641 C1634 1.356 . S
N1641 H1644 0.984 . S
N1641 H1645 0.985 . S
H1642 N1637 0.984 . S
H1643 N1637 0.985 . S
H1644 N1641 0.984 . S
H1645 N1641 0.985 . S
H1646 N1640 0.984 . S
H1647 N1640 0.984 . S
H1648 N1636 0.984 . S
H1649 N1636 0.985 . S
C1650 C1651 1.363 1_545 S
C1650 C1656 1.379 . S
C1650 N1658 1.356 . S
C1651 C1650 1.363 1_565 S
C1651 C1657 1.363 . S
C1652 C1653 1.363 1_565 S
C1652 C1657 1.379 . S
C1652 N1659 1.356 . S
C1653 C1652 1.363 1_545 S
C1653 C1656 1.363 . S
N1654 C1656 1.356 . S
N1654 H1666 0.984 . S
N1654 H1667 0.985 . S
N1655 C1657 1.356 . S
N1655 H1660 0.984 . S
N1655 H1661 0.985 . S
C1656 C1650 1.379 . S
C1656 C1653 1.363 . S
C1656 N1654 1.356 . S
C1657 C1651 1.363 . S
C1657 C1652 1.379 . S
C1657 N1655 1.356 . S
N1658 C1650 1.356 . S
N1658 H1664 0.984 . S
N1658 H1665 0.984 . S
N1659 C1652 1.356 . S
N1659 H1662 0.984 . S
N1659 H1663 0.985 . S
H1660 N1655 0.984 . S
H1661 N1655 0.985 . S
H1662 N1659 0.984 . S
H1663 N1659 0.985 . S
H1664 N1658 0.984 . S
H1665 N1658 0.984 . S
H1666 N1654 0.984 . S
H1667 N1654 0.985 . S
C1668 C1669 1.363 . S
C1668 C1674 1.379 . S
C1668 N1676 1.356 . S
C1669 C1668 1.363 . S
C1669 C1675 1.363 . S
C1670 C1671 1.363 . S
C1670 C1675 1.379 . S
C1670 N1677 1.356 . S
C1671 C1670 1.363 . S
C1671 C1674 1.363 . S
N1672 C1674 1.356 . S
N1672 H1684 0.984 . S
N1672 H1685 0.985 . S
N1673 C1675 1.356 . S
N1673 H1678 0.984 . S
N1673 H1679 0.985 . S
C1674 C1668 1.379 . S
C1674 C1671 1.363 . S
C1674 N1672 1.356 . S
C1675 C1669 1.363 . S
C1675 C1670 1.379 . S
C1675 N1673 1.356 . S
N1676 C1668 1.356 . S
N1676 H1682 0.984 . S
N1676 H1683 0.984 . S
N1677 C1670 1.356 . S
N1677 H1680 0.984 . S
N1677 H1681 0.985 . S
H1678 N1673 0.984 . S
H1679 N1673 0.985 . S
H1680 N1677 0.984 . S
H1681 N1677 0.985 . S
H1682 N1676 0.984 . S
H1683 N1676 0.984 . S
H1684 N1672 0.984 . S
H1685 N1672 0.985 . S
C1686 C1687 1.363 1_565 S
C1686 C1692 1.379 1_556 S
C1686 N1694 1.356 . S
C1687 C1686 1.363 1_545 S
C1687 C1693 1.363 . S
C1688 C1689 1.363 1_545 S
C1688 C1693 1.379 1_554 S
C1688 N1695 1.356 . S
C1689 C1688 1.363 1_565 S
C1689 C1692 1.363 . S
N1690 C1692 1.356 . S
N1690 H1702 0.984 . S
N1690 H1703 0.985 . S
N1691 C1693 1.356 . S
N1691 H1696 0.984 . S
N1691 H1697 0.985 . S
C1692 C1686 1.379 1_554 S
C1692 C1689 1.363 . S
C1692 N1690 1.356 . S
C1693 C1687 1.363 . S
C1693 C1688 1.379 1_556 S
C1693 N1691 1.356 . S
N1694 C1686 1.356 . S
N1694 H1700 0.984 . S
N1694 H1701 0.984 . S
N1695 C1688 1.356 . S
N1695 H1698 0.984 . S
N1695 H1699 0.985 . S
H1696 N1691 0.984 . S
H1697 N1691 0.985 . S
H1698 N1695 0.984 . S
H1699 N1695 0.985 . S
H1700 N1694 0.984 . S
H1701 N1694 0.984 . S
H1702 N1690 0.984 . S
H1703 N1690 0.985 . S
C1704 C1705 1.363 . S
C1704 C1710 1.379 . S
C1704 N1712 1.356 . S
C1705 C1704 1.363 . S
C1705 C1711 1.363 . S
C1706 C1707 1.363 . S
C1706 C1711 1.379 . S
C1706 N1713 1.356 . S
C1707 C1706 1.363 . S
C1707 C1710 1.363 . S
N1708 C1710 1.356 . S
N1708 H1720 0.984 . S
N1708 H1721 0.985 . S
N1709 C1711 1.356 . S
N1709 H1714 0.984 . S
N1709 H1715 0.985 . S
C1710 C1704 1.379 . S
C1710 C1707 1.363 . S
C1710 N1708 1.356 . S
C1711 C1705 1.363 . S
C1711 C1706 1.379 . S
C1711 N1709 1.356 . S
N1712 C1704 1.356 . S
N1712 H1718 0.984 . S
N1712 H1719 0.984 . S
N1713 C1706 1.356 . S
N1713 H1716 0.984 . S
N1713 H1717 0.985 . S
H1714 N1709 0.984 . S
H1715 N1709 0.985 . S
H1716 N1713 0.984 . S
H1717 N1713 0.985 . S
H1718 N1712 0.984 . S
H1719 N1712 0.984 . S
H1720 N1708 0.984 . S
H1721 N1708 0.985 . S
C1722 C1723 1.363 1_545 S
C1722 C1728 1.379 . S
C1722 N1730 1.356 . S
C1723 C1722 1.363 1_565 S
C1723 C1729 1.363 . S
C1724 C1725 1.363 1_565 S
C1724 C1729 1.379 . S
C1724 N1731 1.356 . S
C1725 C1724 1.363 1_545 S
C1725 C1728 1.363 . S
N1726 C1728 1.356 . S
N1726 H1738 0.984 . S
N1726 H1739 0.985 . S
N1727 C1729 1.356 . S
N1727 H1732 0.984 . S
N1727 H1733 0.985 . S
C1728 C1722 1.379 . S
C1728 C1725 1.363 . S
C1728 N1726 1.356 . S
C1729 C1723 1.363 . S
C1729 C1724 1.379 . S
C1729 N1727 1.356 . S
N1730 C1722 1.356 . S
N1730 H1736 0.984 . S
N1730 H1737 0.984 . S
N1731 C1724 1.356 . S
N1731 H1734 0.984 . S
N1731 H1735 0.985 . S
H1732 N1727 0.984 . S
H1733 N1727 0.985 . S
H1734 N1731 0.984 . S
H1735 N1731 0.985 . S
H1736 N1730 0.984 . S
H1737 N1730 0.984 . S
H1738 N1726 0.984 . S
H1739 N1726 0.985 . S
C1740 C1741 1.363 . S
C1740 C1746 1.379 . S
C1740 N1748 1.356 . S
C1741 C1740 1.363 . S
C1741 C1747 1.363 . S
C1742 C1743 1.363 . S
C1742 C1747 1.379 . S
C1742 N1749 1.356 . S
C1743 C1742 1.363 . S
C1743 C1746 1.363 . S
N1744 C1746 1.356 . S
N1744 H1756 0.984 . S
N1744 H1757 0.985 . S
N1745 C1747 1.356 . S
N1745 H1750 0.984 . S
N1745 H1751 0.985 . S
C1746 C1740 1.379 . S
C1746 C1743 1.363 . S
C1746 N1744 1.356 . S
C1747 C1741 1.363 . S
C1747 C1742 1.379 . S
C1747 N1745 1.356 . S
N1748 C1740 1.356 . S
N1748 H1754 0.984 . S
N1748 H1755 0.984 . S
N1749 C1742 1.356 . S
N1749 H1752 0.984 . S
N1749 H1753 0.985 . S
H1750 N1745 0.984 . S
H1751 N1745 0.985 . S
H1752 N1749 0.984 . S
H1753 N1749 0.985 . S
H1754 N1748 0.984 . S
H1755 N1748 0.984 . S
H1756 N1744 0.984 . S
H1757 N1744 0.985 . S
C1758 C1759 1.363 . S
C1758 C1764 1.379 1_556 S
C1758 N1766 1.356 . S
C1759 C1758 1.363 . S
C1759 C1765 1.363 1_545 S
C1760 C1761 1.363 . S
C1760 C1765 1.379 1_554 S
C1760 N1767 1.356 . S
C1761 C1760 1.363 . S
C1761 C1764 1.363 1_565 S
N1762 C1764 1.356 . S
N1762 H1774 0.984 . S
N1762 H1775 0.985 . S
N1763 C1765 1.356 . S
N1763 H1768 0.984 . S
N1763 H1769 0.985 . S
C1764 C1758 1.379 1_554 S
C1764 C1761 1.363 1_545 S
C1764 N1762 1.356 . S
C1765 C1759 1.363 1_565 S
C1765 C1760 1.379 1_556 S
C1765 N1763 1.356 . S
N1766 C1758 1.356 . S
N1766 H1772 0.984 . S
N1766 H1773 0.984 . S
N1767 C1760 1.356 . S
N1767 H1770 0.984 . S
N1767 H1771 0.985 . S
H1768 N1763 0.984 . S
H1769 N1763 0.985 . S
H1770 N1767 0.984 . S
H1771 N1767 0.985 . S
H1772 N1766 0.984 . S
H1773 N1766 0.984 . S
H1774 N1762 0.984 . S
H1775 N1762 0.985 . S
C1776 C1777 1.363 . S
C1776 C1782 1.379 . S
C1776 N1784 1.356 . S
C1777 C1776 1.363 . S
C1777 C1783 1.363 . S
C1778 C1779 1.363 . S
C1778 C1783 1.379 . S
C1778 N1785 1.356 . S
C1779 C1778 1.363 . S
C1779 C1782 1.363 . S
N1780 C1782 1.356 . S
N1780 H1792 0.984 . S
N1780 H1793 0.985 . S
N1781 C1783 1.356 . S
N1781 H1786 0.984 . S
N1781 H1787 0.985 . S
C1782 C1776 1.379 . S
C1782 C1779 1.363 . S
C1782 N1780 1.356 . S
C1783 C1777 1.363 . S
C1783 C1778 1.379 . S
C1783 N1781 1.356 . S
N1784 C1776 1.356 . S
N1784 H1790 0.984 . S
N1784 H1791 0.984 . S
N1785 C1778 1.356 . S
N1785 H1788 0.984 . S
N1785 H1789 0.985 . S
H1786 N1781 0.984 . S
H1787 N1781 0.985 . S
H1788 N1785 0.984 . S
H1789 N1785 0.985 . S
H1790 N1784 0.984 . S
H1791 N1784 0.984 . S
H1792 N1780 0.984 . S
H1793 N1780 0.985 . S
C1794 C1795 1.363 . S
C1794 C1800 1.379 1_556 S
C1794 N1802 1.356 . S
C1795 C1794 1.363 . S
C1795 C1801 1.363 . S
C1796 C1797 1.363 . S
C1796 C1801 1.379 1_554 S
C1796 N1803 1.356 . S
C1797 C1796 1.363 . S
C1797 C1800 1.363 . S
N1798 C1800 1.356 . S
N1798 H1810 0.984 . S
N1798 H1811 0.985 . S
N1799 C1801 1.356 . S
N1799 H1804 0.984 . S
N1799 H1805 0.985 . S
C1800 C1794 1.379 1_554 S
C1800 C1797 1.363 . S
C1800 N1798 1.356 . S
C1801 C1795 1.363 . S
C1801 C1796 1.379 1_556 S
C1801 N1799 1.356 . S
N1802 C1794 1.356 . S
N1802 H1808 0.984 . S
N1802 H1809 0.984 . S
N1803 C1796 1.356 . S
N1803 H1806 0.984 . S
N1803 H1807 0.985 . S
H1804 N1799 0.984 . S
H1805 N1799 0.985 . S
H1806 N1803 0.984 . S
H1807 N1803 0.985 . S
H1808 N1802 0.984 . S
H1809 N1802 0.984 . S
H1810 N1798 0.984 . S
H1811 N1798 0.985 . S
C1812 C1813 1.363 . S
C1812 C1818 1.379 . S
C1812 N1820 1.356 . S
C1813 C1812 1.363 . S
C1813 C1819 1.363 . S
C1814 C1815 1.363 . S
C1814 C1819 1.379 . S
C1814 N1821 1.356 . S
C1815 C1814 1.363 . S
C1815 C1818 1.363 . S
N1816 C1818 1.356 . S
N1816 H1828 0.984 . S
N1816 H1829 0.985 . S
N1817 C1819 1.356 . S
N1817 H1822 0.984 . S
N1817 H1823 0.985 . S
C1818 C1812 1.379 . S
C1818 C1815 1.363 . S
C1818 N1816 1.356 . S
C1819 C1813 1.363 . S
C1819 C1814 1.379 . S
C1819 N1817 1.356 . S
N1820 C1812 1.356 . S
N1820 H1826 0.984 . S
N1820 H1827 0.984 . S
N1821 C1814 1.356 . S
N1821 H1824 0.984 . S
N1821 H1825 0.985 . S
H1822 N1817 0.984 . S
H1823 N1817 0.985 . S
H1824 N1821 0.984 . S
H1825 N1821 0.985 . S
H1826 N1820 0.984 . S
H1827 N1820 0.984 . S
H1828 N1816 0.984 . S
H1829 N1816 0.985 . S
C1830 C1831 1.363 . S
C1830 C1836 1.379 . S
C1830 N1838 1.356 . S
C1831 C1830 1.363 . S
C1831 C1837 1.363 . S
C1832 C1833 1.363 . S
C1832 C1837 1.379 . S
C1832 N1839 1.356 . S
C1833 C1832 1.363 . S
C1833 C1836 1.363 . S
N1834 C1836 1.356 . S
N1834 H1846 0.984 . S
N1834 H1847 0.985 . S
N1835 C1837 1.356 . S
N1835 H1840 0.984 . S
N1835 H1841 0.985 . S
C1836 C1830 1.379 . S
C1836 C1833 1.363 . S
C1836 N1834 1.356 . S
C1837 C1831 1.363 . S
C1837 C1832 1.379 . S
C1837 N1835 1.356 . S
N1838 C1830 1.356 . S
N1838 H1844 0.984 . S
N1838 H1845 0.984 . S
N1839 C1832 1.356 . S
N1839 H1842 0.984 . S
N1839 H1843 0.985 . S
H1840 N1835 0.984 . S
H1841 N1835 0.985 . S
H1842 N1839 0.984 . S
H1843 N1839 0.985 . S
H1844 N1838 0.984 . S
H1845 N1838 0.984 . S
H1846 N1834 0.984 . S
H1847 N1834 0.985 . S
C1848 C1849 1.363 . S
C1848 C1854 1.379 . S
C1848 N1856 1.356 . S
C1849 C1848 1.363 . S
C1849 C1855 1.363 . S
C1850 C1851 1.363 . S
C1850 C1855 1.379 . S
C1850 N1857 1.356 . S
C1851 C1850 1.363 . S
C1851 C1854 1.363 . S
N1852 C1854 1.356 . S
N1852 H1864 0.984 . S
N1852 H1865 0.985 . S
N1853 C1855 1.356 . S
N1853 H1858 0.984 . S
N1853 H1859 0.985 . S
C1854 C1848 1.379 . S
C1854 C1851 1.363 . S
C1854 N1852 1.356 . S
C1855 C1849 1.363 . S
C1855 C1850 1.379 . S
C1855 N1853 1.356 . S
N1856 C1848 1.356 . S
N1856 H1862 0.984 . S
N1856 H1863 0.984 . S
N1857 C1850 1.356 . S
N1857 H1860 0.984 . S
N1857 H1861 0.985 . S
H1858 N1853 0.984 . S
H1859 N1853 0.985 . S
H1860 N1857 0.984 . S
H1861 N1857 0.985 . S
H1862 N1856 0.984 . S
H1863 N1856 0.984 . S
H1864 N1852 0.984 . S
H1865 N1852 0.985 . S
C1866 C1867 1.363 . S
C1866 C1872 1.379 1_556 S
C1866 N1874 1.356 . S
C1867 C1866 1.363 . S
C1867 C1873 1.363 . S
C1868 C1869 1.363 . S
C1868 C1873 1.379 1_554 S
C1868 N1875 1.356 . S
C1869 C1868 1.363 . S
C1869 C1872 1.363 . S
N1870 C1872 1.356 . S
N1870 H1882 0.984 . S
N1870 H1883 0.985 . S
N1871 C1873 1.356 . S
N1871 H1876 0.984 . S
N1871 H1877 0.985 . S
C1872 C1866 1.379 1_554 S
C1872 C1869 1.363 . S
C1872 N1870 1.356 . S
C1873 C1867 1.363 . S
C1873 C1868 1.379 1_556 S
C1873 N1871 1.356 . S
N1874 C1866 1.356 . S
N1874 H1880 0.984 . S
N1874 H1881 0.984 . S
N1875 C1868 1.356 . S
N1875 H1878 0.984 . S
N1875 H1879 0.985 . S
H1876 N1871 0.984 . S
H1877 N1871 0.985 . S
H1878 N1875 0.984 . S
H1879 N1875 0.985 . S
H1880 N1874 0.984 . S
H1881 N1874 0.984 . S
H1882 N1870 0.984 . S
H1883 N1870 0.985 . S
C1884 C1885 1.363 . S
C1884 C1890 1.379 . S
C1884 N1892 1.356 . S
C1885 C1884 1.363 . S
C1885 C1891 1.363 . S
C1886 C1887 1.363 . S
C1886 C1891 1.379 . S
C1886 N1893 1.356 . S
C1887 C1886 1.363 . S
C1887 C1890 1.363 . S
N1888 C1890 1.356 . S
N1888 H1900 0.984 . S
N1888 H1901 0.985 . S
N1889 C1891 1.356 . S
N1889 H1894 0.984 . S
N1889 H1895 0.985 . S
C1890 C1884 1.379 . S
C1890 C1887 1.363 . S
C1890 N1888 1.356 . S
C1891 C1885 1.363 . S
C1891 C1886 1.379 . S
C1891 N1889 1.356 . S
N1892 C1884 1.356 . S
N1892 H1898 0.984 . S
N1892 H1899 0.984 . S
N1893 C1886 1.356 . S
N1893 H1896 0.984 . S
N1893 H1897 0.985 . S
H1894 N1889 0.984 . S
H1895 N1889 0.985 . S
H1896 N1893 0.984 . S
H1897 N1893 0.985 . S
H1898 N1892 0.984 . S
H1899 N1892 0.984 . S
H1900 N1888 0.984 . S
H1901 N1888 0.985 . S
C1902 C1903 1.363 . S
C1902 C1908 1.379 . S
C1902 N1910 1.356 . S
C1903 C1902 1.363 . S
C1903 C1909 1.363 . S
C1904 C1905 1.363 . S
C1904 C1909 1.379 . S
C1904 N1911 1.356 . S
C1905 C1904 1.363 . S
C1905 C1908 1.363 . S
N1906 C1908 1.356 . S
N1906 H1918 0.984 . S
N1906 H1919 0.985 . S
N1907 C1909 1.356 . S
N1907 H1912 0.984 . S
N1907 H1913 0.985 . S
C1908 C1902 1.379 . S
C1908 C1905 1.363 . S
C1908 N1906 1.356 . S
C1909 C1903 1.363 . S
C1909 C1904 1.379 . S
C1909 N1907 1.356 . S
N1910 C1902 1.356 . S
N1910 H1916 0.984 . S
N1910 H1917 0.984 . S
N1911 C1904 1.356 . S
N1911 H1914 0.984 . S
N1911 H1915 0.985 . S
H1912 N1907 0.984 . S
H1913 N1907 0.985 . S
H1914 N1911 0.984 . S
H1915 N1911 0.985 . S
H1916 N1910 0.984 . S
H1917 N1910 0.984 . S
H1918 N1906 0.984 . S
H1919 N1906 0.985 . S
C1920 C1921 1.363 . S
C1920 C1926 1.379 . S
C1920 N1928 1.356 . S
C1921 C1920 1.363 . S
C1921 C1927 1.363 . S
C1922 C1923 1.363 . S
C1922 C1927 1.379 . S
C1922 N1929 1.356 . S
C1923 C1922 1.363 . S
C1923 C1926 1.363 . S
N1924 C1926 1.356 . S
N1924 H1936 0.984 . S
N1924 H1937 0.985 . S
N1925 C1927 1.356 . S
N1925 H1930 0.984 . S
N1925 H1931 0.985 . S
C1926 C1920 1.379 . S
C1926 C1923 1.363 . S
C1926 N1924 1.356 . S
C1927 C1921 1.363 . S
C1927 C1922 1.379 . S
C1927 N1925 1.356 . S
N1928 C1920 1.356 . S
N1928 H1934 0.984 . S
N1928 H1935 0.984 . S
N1929 C1922 1.356 . S
N1929 H1932 0.984 . S
N1929 H1933 0.985 . S
H1930 N1925 0.984 . S
H1931 N1925 0.985 . S
H1932 N1929 0.984 . S
H1933 N1929 0.985 . S
H1934 N1928 0.984 . S
H1935 N1928 0.984 . S
H1936 N1924 0.984 . S
H1937 N1924 0.985 . S
C1938 C1939 1.363 . S
C1938 C1944 1.379 . S
C1938 N1946 1.356 . S
C1939 C1938 1.363 . S
C1939 C1945 1.363 . S
C1940 C1941 1.363 . S
C1940 C1945 1.379 . S
C1940 N1947 1.356 . S
C1941 C1940 1.363 . S
C1941 C1944 1.363 . S
N1942 C1944 1.356 . S
N1942 H1954 0.984 . S
N1942 H1955 0.985 . S
N1943 C1945 1.356 . S
N1943 H1948 0.984 . S
N1943 H1949 0.985 . S
C1944 C1938 1.379 . S
C1944 C1941 1.363 . S
C1944 N1942 1.356 . S
C1945 C1939 1.363 . S
C1945 C1940 1.379 . S
C1945 N1943 1.356 . S
N1946 C1938 1.356 . S
N1946 H1952 0.984 . S
N1946 H1953 0.984 . S
N1947 C1940 1.356 . S
N1947 H1950 0.984 . S
N1947 H1951 0.985 . S
H1948 N1943 0.984 . S
H1949 N1943 0.985 . S
H1950 N1947 0.984 . S
H1951 N1947 0.985 . S
H1952 N1946 0.984 . S
H1953 N1946 0.984 . S
H1954 N1942 0.984 . S
H1955 N1942 0.985 . S
C1956 C1957 1.363 . S
C1956 C1962 1.379 . S
C1956 N1964 1.356 . S
C1957 C1956 1.363 . S
C1957 C1963 1.363 . S
C1958 C1959 1.363 . S
C1958 C1963 1.379 . S
C1958 N1965 1.356 . S
C1959 C1958 1.363 . S
C1959 C1962 1.363 . S
N1960 C1962 1.356 . S
N1960 H1972 0.984 . S
N1960 H1973 0.985 . S
N1961 C1963 1.356 . S
N1961 H1966 0.984 . S
N1961 H1967 0.985 . S
C1962 C1956 1.379 . S
C1962 C1959 1.363 . S
C1962 N1960 1.356 . S
C1963 C1957 1.363 . S
C1963 C1958 1.379 . S
C1963 N1961 1.356 . S
N1964 C1956 1.356 . S
N1964 H1970 0.984 . S
N1964 H1971 0.984 . S
N1965 C1958 1.356 . S
N1965 H1968 0.984 . S
N1965 H1969 0.985 . S
H1966 N1961 0.984 . S
H1967 N1961 0.985 . S
H1968 N1965 0.984 . S
H1969 N1965 0.985 . S
H1970 N1964 0.984 . S
H1971 N1964 0.984 . S
H1972 N1960 0.984 . S
H1973 N1960 0.985 . S
C1974 C1975 1.363 . S
C1974 C1980 1.379 . S
C1974 N1982 1.356 . S
C1975 C1974 1.363 . S
C1975 C1981 1.363 . S
C1976 C1977 1.363 . S
C1976 C1981 1.379 . S
C1976 N1983 1.356 . S
C1977 C1976 1.363 . S
C1977 C1980 1.363 . S
N1978 C1980 1.356 . S
N1978 H1990 0.984 . S
N1978 H1991 0.985 . S
N1979 C1981 1.356 . S
N1979 H1984 0.984 . S
N1979 H1985 0.985 . S
C1980 C1974 1.379 . S
C1980 C1977 1.363 . S
C1980 N1978 1.356 . S
C1981 C1975 1.363 . S
C1981 C1976 1.379 . S
C1981 N1979 1.356 . S
N1982 C1974 1.356 . S
N1982 H1988 0.984 . S
N1982 H1989 0.984 . S
N1983 C1976 1.356 . S
N1983 H1986 0.984 . S
N1983 H1987 0.985 . S
H1984 N1979 0.984 . S
H1985 N1979 0.985 . S
H1986 N1983 0.984 . S
H1987 N1983 0.985 . S
H1988 N1982 0.984 . S
H1989 N1982 0.984 . S
H1990 N1978 0.984 . S
H1991 N1978 0.985 . S
C1992 C1993 1.363 . S
C1992 C1998 1.379 . S
C1992 N2000 1.356 . S
C1993 C1992 1.363 . S
C1993 C1999 1.363 . S
C1994 C1995 1.363 . S
C1994 C1999 1.379 . S
C1994 N2001 1.356 . S
C1995 C1994 1.363 . S
C1995 C1998 1.363 . S
N1996 C1998 1.356 . S
N1996 H2008 0.984 . S
N1996 H2009 0.985 . S
N1997 C1999 1.356 . S
N1997 H2002 0.984 . S
N1997 H2003 0.985 . S
C1998 C1992 1.379 . S
C1998 C1995 1.363 . S
C1998 N1996 1.356 . S
C1999 C1993 1.363 . S
C1999 C1994 1.379 . S
C1999 N1997 1.356 . S
N2000 C1992 1.356 . S
N2000 H2006 0.984 . S
N2000 H2007 0.984 . S
N2001 C1994 1.356 . S
N2001 H2004 0.984 . S
N2001 H2005 0.985 . S
H2002 N1997 0.984 . S
H2003 N1997 0.985 . S
H2004 N2001 0.984 . S
H2005 N2001 0.985 . S
H2006 N2000 0.984 . S
H2007 N2000 0.984 . S
H2008 N1996 0.984 . S
H2009 N1996 0.985 . S
C2010 C2011 1.363 . S
C2010 C2016 1.379 . S
C2010 N2018 1.356 . S
C2011 C2010 1.363 . S
C2011 C2017 1.363 . S
C2012 C2013 1.363 . S
C2012 C2017 1.379 . S
C2012 N2019 1.356 . S
C2013 C2012 1.363 . S
C2013 C2016 1.363 . S
N2014 C2016 1.356 . S
N2014 H2026 0.984 . S
N2014 H2027 0.985 . S
N2015 C2017 1.356 . S
N2015 H2020 0.984 . S
N2015 H2021 0.985 . S
C2016 C2010 1.379 . S
C2016 C2013 1.363 . S
C2016 N2014 1.356 . S
C2017 C2011 1.363 . S
C2017 C2012 1.379 . S
C2017 N2015 1.356 . S
N2018 C2010 1.356 . S
N2018 H2024 0.984 . S
N2018 H2025 0.984 . S
N2019 C2012 1.356 . S
N2019 H2022 0.984 . S
N2019 H2023 0.985 . S
H2020 N2015 0.984 . S
H2021 N2015 0.985 . S
H2022 N2019 0.984 . S
H2023 N2019 0.985 . S
H2024 N2018 0.984 . S
H2025 N2018 0.984 . S
H2026 N2014 0.984 . S
H2027 N2014 0.985 . S
C2028 C2029 1.363 . S
C2028 C2034 1.379 . S
C2028 N2036 1.356 . S
C2029 C2028 1.363 . S
C2029 C2035 1.363 . S
C2030 C2031 1.363 . S
C2030 C2035 1.379 . S
C2030 N2037 1.356 . S
C2031 C2030 1.363 . S
C2031 C2034 1.363 . S
N2032 C2034 1.356 . S
N2032 H2044 0.984 . S
N2032 H2045 0.985 . S
N2033 C2035 1.356 . S
N2033 H2038 0.984 . S
N2033 H2039 0.985 . S
C2034 C2028 1.379 . S
C2034 C2031 1.363 . S
C2034 N2032 1.356 . S
C2035 C2029 1.363 . S
C2035 C2030 1.379 . S
C2035 N2033 1.356 . S
N2036 C2028 1.356 . S
N2036 H2042 0.984 . S
N2036 H2043 0.984 . S
N2037 C2030 1.356 . S
N2037 H2040 0.984 . S
N2037 H2041 0.985 . S
H2038 N2033 0.984 . S
H2039 N2033 0.985 . S
H2040 N2037 0.984 . S
H2041 N2037 0.985 . S
H2042 N2036 0.984 . S
H2043 N2036 0.984 . S
H2044 N2032 0.984 . S
H2045 N2032 0.985 . S
C2046 C2047 1.363 . S
C2046 C2052 1.379 . S
C2046 N2054 1.356 . S
C2047 C2046 1.363 . S
C2047 C2053 1.363 . S
C2048 C2049 1.363 . S
C2048 C2053 1.379 . S
C2048 N2055 1.356 . S
C2049 C2048 1.363 . S
C2049 C2052 1.363 . S
N2050 C2052 1.356 . S
N2050 H2062 0.984 . S
N2050 H2063 0.985 . S
N2051 C2053 1.356 . S
N2051 H2056 0.984 . S
N2051 H2057 0.985 . S
C2052 C2046 1.379 . S
C2052 C2049 1.363 . S
C2052 N2050 1.356 . S
C2053 C2047 1.363 . S
C2053 C2048 1.379 . S
C2053 N2051 1.356 . S
N2054 C2046 1.356 . S
N2054 H2060 0.984 . S
N2054 H2061 0.984 . S
N2055 C2048 1.356 . S
N2055 H2058 0.984 . S
N2055 H2059 0.985 . S
H2056 N2051 0.984 . S
H2057 N2051 0.985 . S
H2058 N2055 0.984 . S
H2059 N2055 0.985 . S
H2060 N2054 0.984 . S
H2061 N2054 0.984 . S
H2062 N2050 0.984 . S
H2063 N2050 0.985 . S
C2064 C2065 1.363 . S
C2064 C2070 1.379 . S
C2064 N2072 1.356 . S
C2065 C2064 1.363 . S
C2065 C2071 1.363 . S
C2066 C2067 1.363 . S
C2066 C2071 1.379 . S
C2066 N2073 1.356 . S
C2067 C2066 1.363 . S
C2067 C2070 1.363 . S
N2068 C2070 1.356 . S
N2068 H2080 0.984 . S
N2068 H2081 0.985 . S
N2069 C2071 1.356 . S
N2069 H2074 0.984 . S
N2069 H2075 0.985 . S
C2070 C2064 1.379 . S
C2070 C2067 1.363 . S
C2070 N2068 1.356 . S
C2071 C2065 1.363 . S
C2071 C2066 1.379 . S
C2071 N2069 1.356 . S
N2072 C2064 1.356 . S
N2072 H2078 0.984 . S
N2072 H2079 0.984 . S
N2073 C2066 1.356 . S
N2073 H2076 0.984 . S
N2073 H2077 0.985 . S
H2074 N2069 0.984 . S
H2075 N2069 0.985 . S
H2076 N2073 0.984 . S
H2077 N2073 0.985 . S
H2078 N2072 0.984 . S
H2079 N2072 0.984 . S
H2080 N2068 0.984 . S
H2081 N2068 0.985 . S
C2082 C2083 1.363 . S
C2082 C2088 1.379 . S
C2082 N2090 1.356 . S
C2083 C2082 1.363 . S
C2083 C2089 1.363 . S
C2084 C2085 1.363 . S
C2084 C2089 1.379 . S
C2084 N2091 1.356 . S
C2085 C2084 1.363 . S
C2085 C2088 1.363 . S
N2086 C2088 1.356 . S
N2086 H2098 0.984 . S
N2086 H2099 0.985 . S
N2087 C2089 1.356 . S
N2087 H2092 0.984 . S
N2087 H2093 0.985 . S
C2088 C2082 1.379 . S
C2088 C2085 1.363 . S
C2088 N2086 1.356 . S
C2089 C2083 1.363 . S
C2089 C2084 1.379 . S
C2089 N2087 1.356 . S
N2090 C2082 1.356 . S
N2090 H2096 0.984 . S
N2090 H2097 0.984 . S
N2091 C2084 1.356 . S
N2091 H2094 0.984 . S
N2091 H2095 0.985 . S
H2092 N2087 0.984 . S
H2093 N2087 0.985 . S
H2094 N2091 0.984 . S
H2095 N2091 0.985 . S
H2096 N2090 0.984 . S
H2097 N2090 0.984 . S
H2098 N2086 0.984 . S
H2099 N2086 0.985 . S
C2100 C2101 1.363 . S
C2100 C2106 1.379 . S
C2100 N2108 1.356 . S
C2101 C2100 1.363 . S
C2101 C2107 1.363 . S
C2102 C2103 1.363 . S
C2102 C2107 1.379 . S
C2102 N2109 1.356 . S
C2103 C2102 1.363 . S
C2103 C2106 1.363 . S
N2104 C2106 1.356 . S
N2104 H2116 0.984 . S
N2104 H2117 0.985 . S
N2105 C2107 1.356 . S
N2105 H2110 0.984 . S
N2105 H2111 0.985 . S
C2106 C2100 1.379 . S
C2106 C2103 1.363 . S
C2106 N2104 1.356 . S
C2107 C2101 1.363 . S
C2107 C2102 1.379 . S
C2107 N2105 1.356 . S
N2108 C2100 1.356 . S
N2108 H2114 0.984 . S
N2108 H2115 0.984 . S
N2109 C2102 1.356 . S
N2109 H2112 0.984 . S
N2109 H2113 0.985 . S
H2110 N2105 0.984 . S
H2111 N2105 0.985 . S
H2112 N2109 0.984 . S
H2113 N2109 0.985 . S
H2114 N2108 0.984 . S
H2115 N2108 0.984 . S
H2116 N2104 0.984 . S
H2117 N2104 0.985 . S
C2118 C2119 1.363 . S
C2118 C2124 1.379 . S
C2118 N2126 1.356 . S
C2119 C2118 1.363 . S
C2119 C2125 1.363 . S
C2120 C2121 1.363 . S
C2120 C2125 1.379 . S
C2120 N2127 1.356 . S
C2121 C2120 1.363 . S
C2121 C2124 1.363 . S
N2122 C2124 1.356 . S
N2122 H2134 0.984 . S
N2122 H2135 0.985 . S
N2123 C2125 1.356 . S
N2123 H2128 0.984 . S
N2123 H2129 0.985 . S
C2124 C2118 1.379 . S
C2124 C2121 1.363 . S
C2124 N2122 1.356 . S
C2125 C2119 1.363 . S
C2125 C2120 1.379 . S
C2125 N2123 1.356 . S
N2126 C2118 1.356 . S
N2126 H2132 0.984 . S
N2126 H2133 0.984 . S
N2127 C2120 1.356 . S
N2127 H2130 0.984 . S
N2127 H2131 0.985 . S
H2128 N2123 0.984 . S
H2129 N2123 0.985 . S
H2130 N2127 0.984 . S
H2131 N2127 0.985 . S
H2132 N2126 0.984 . S
H2133 N2126 0.984 . S
H2134 N2122 0.984 . S
H2135 N2122 0.985 . S
C2136 C2137 1.363 . S
C2136 C2142 1.379 . S
C2136 N2144 1.356 . S
C2137 C2136 1.363 . S
C2137 C2143 1.363 . S
C2138 C2139 1.363 . S
C2138 C2143 1.379 . S
C2138 N2145 1.356 . S
C2139 C2138 1.363 . S
C2139 C2142 1.363 . S
N2140 C2142 1.356 . S
N2140 H2152 0.984 . S
N2140 H2153 0.985 . S
N2141 C2143 1.356 . S
N2141 H2146 0.984 . S
N2141 H2147 0.985 . S
C2142 C2136 1.379 . S
C2142 C2139 1.363 . S
C2142 N2140 1.356 . S
C2143 C2137 1.363 . S
C2143 C2138 1.379 . S
C2143 N2141 1.356 . S
N2144 C2136 1.356 . S
N2144 H2150 0.984 . S
N2144 H2151 0.984 . S
N2145 C2138 1.356 . S
N2145 H2148 0.984 . S
N2145 H2149 0.985 . S
H2146 N2141 0.984 . S
H2147 N2141 0.985 . S
H2148 N2145 0.984 . S
H2149 N2145 0.985 . S
H2150 N2144 0.984 . S
H2151 N2144 0.984 . S
H2152 N2140 0.984 . S
H2153 N2140 0.985 . S
C2154 C2155 1.363 . S
C2154 C2160 1.379 . S
C2154 N2162 1.356 . S
C2155 C2154 1.363 . S
C2155 C2161 1.363 . S
C2156 C2157 1.363 . S
C2156 C2161 1.379 . S
C2156 N2163 1.356 . S
C2157 C2156 1.363 . S
C2157 C2160 1.363 . S
N2158 C2160 1.356 . S
N2158 H2170 0.984 . S
N2158 H2171 0.985 . S
N2159 C2161 1.356 . S
N2159 H2164 0.984 . S
N2159 H2165 0.985 . S
C2160 C2154 1.379 . S
C2160 C2157 1.363 . S
C2160 N2158 1.356 . S
C2161 C2155 1.363 . S
C2161 C2156 1.379 . S
C2161 N2159 1.356 . S
N2162 C2154 1.356 . S
N2162 H2168 0.984 . S
N2162 H2169 0.984 . S
N2163 C2156 1.356 . S
N2163 H2166 0.984 . S
N2163 H2167 0.985 . S
H2164 N2159 0.984 . S
H2165 N2159 0.985 . S
H2166 N2163 0.984 . S
H2167 N2163 0.985 . S
H2168 N2162 0.984 . S
H2169 N2162 0.984 . S
H2170 N2158 0.984 . S
H2171 N2158 0.985 . S
C2172 C2173 1.363 . S
C2172 C2178 1.379 . S
C2172 N2180 1.356 . S
C2173 C2172 1.363 . S
C2173 C2179 1.363 . S
C2174 C2175 1.363 . S
C2174 C2179 1.379 . S
C2174 N2181 1.356 . S
C2175 C2174 1.363 . S
C2175 C2178 1.363 . S
N2176 C2178 1.356 . S
N2176 H2188 0.984 . S
N2176 H2189 0.985 . S
N2177 C2179 1.356 . S
N2177 H2182 0.984 . S
N2177 H2183 0.985 . S
C2178 C2172 1.379 . S
C2178 C2175 1.363 . S
C2178 N2176 1.356 . S
C2179 C2173 1.363 . S
C2179 C2174 1.379 . S
C2179 N2177 1.356 . S
N2180 C2172 1.356 . S
N2180 H2186 0.984 . S
N2180 H2187 0.984 . S
N2181 C2174 1.356 . S
N2181 H2184 0.984 . S
N2181 H2185 0.985 . S
H2182 N2177 0.984 . S
H2183 N2177 0.985 . S
H2184 N2181 0.984 . S
H2185 N2181 0.985 . S
H2186 N2180 0.984 . S
H2187 N2180 0.984 . S
H2188 N2176 0.984 . S
H2189 N2176 0.985 . S
C2190 C2191 1.363 . S
C2190 C2196 1.379 . S
C2190 N2198 1.356 . S
C2191 C2190 1.363 . S
C2191 C2197 1.363 . S
C2192 C2193 1.363 . S
C2192 C2197 1.379 . S
C2192 N2199 1.356 . S
C2193 C2192 1.363 . S
C2193 C2196 1.363 . S
N2194 C2196 1.356 . S
N2194 H2206 0.984 . S
N2194 H2207 0.985 . S
N2195 C2197 1.356 . S
N2195 H2200 0.984 . S
N2195 H2201 0.985 . S
C2196 C2190 1.379 . S
C2196 C2193 1.363 . S
C2196 N2194 1.356 . S
C2197 C2191 1.363 . S
C2197 C2192 1.379 . S
C2197 N2195 1.356 . S
N2198 C2190 1.356 . S
N2198 H2204 0.984 . S
N2198 H2205 0.984 . S
N2199 C2192 1.356 . S
N2199 H2202 0.984 . S
N2199 H2203 0.985 . S
H2200 N2195 0.984 . S
H2201 N2195 0.985 . S
H2202 N2199 0.984 . S
H2203 N2199 0.985 . S
H2204 N2198 0.984 . S
H2205 N2198 0.984 . S
H2206 N2194 0.984 . S
H2207 N2194 0.985 . S
C2208 C2209 1.363 . S
C2208 C2214 1.379 . S
C2208 N2216 1.356 . S
C2209 C2208 1.363 . S
C2209 C2215 1.363 . S
C2210 C2211 1.363 . S
C2210 C2215 1.379 . S
C2210 N2217 1.356 1_554 S
C2211 C2210 1.363 . S
C2211 C2214 1.363 . S
N2212 C2214 1.356 . S
N2212 H2224 0.984 . S
N2212 H2225 0.985 . S
N2213 C2215 1.356 1_556 S
N2213 H2218 0.984 1_556 S
N2213 H2219 0.985 . S
C2214 C2208 1.379 . S
C2214 C2211 1.363 . S
C2214 N2212 1.356 . S
C2215 C2209 1.363 . S
C2215 C2210 1.379 . S
C2215 N2213 1.356 1_554 S
N2216 C2208 1.356 . S
N2216 H2222 0.984 . S
N2216 H2223 0.984 . S
N2217 C2210 1.356 1_556 S
N2217 H2220 0.984 1_556 S
N2217 H2221 0.985 . S
H2218 N2213 0.984 1_554 S
H2219 N2213 0.985 . S
H2220 N2217 0.984 1_554 S
H2221 N2217 0.985 . S
H2222 N2216 0.984 . S
H2223 N2216 0.984 . S
H2224 N2212 0.984 . S
H2225 N2212 0.985 . S
C2226 C2227 1.363 . S
C2226 C2232 1.379 1_655 S
C2226 N2234 1.356 . S
C2227 C2226 1.363 . S
C2227 C2233 1.363 1_565 S
C2228 C2229 1.363 1_545 S
C2228 C2233 1.379 1_455 S
C2228 N2235 1.356 . S
C2229 C2228 1.363 1_565 S
C2229 C2232 1.363 . S
N2230 C2232 1.356 . S
N2230 H2242 0.984 . S
N2230 H2243 0.985 . S
N2231 C2233 1.356 . S
N2231 H2236 0.984 . S
N2231 H2237 0.985 . S
C2232 C2226 1.379 1_455 S
C2232 C2229 1.363 . S
C2232 N2230 1.356 . S
C2233 C2227 1.363 1_545 S
C2233 C2228 1.379 1_655 S
C2233 N2231 1.356 . S
N2234 C2226 1.356 . S
N2234 H2240 0.984 . S
N2234 H2241 0.984 . S
N2235 C2228 1.356 . S
N2235 H2238 0.984 . S
N2235 H2239 0.985 . S
H2236 N2231 0.984 . S
H2237 N2231 0.985 . S
H2238 N2235 0.984 . S
H2239 N2235 0.985 . S
H2240 N2234 0.984 . S
H2241 N2234 0.984 . S
H2242 N2230 0.984 . S
H2243 N2230 0.985 . S
C2244 C2245 1.363 . S
C2244 C2250 1.379 . S
C2244 N2252 1.356 . S
C2245 C2244 1.363 . S
C2245 C2251 1.363 . S
C2246 C2247 1.363 . S
C2246 C2251 1.379 . S
C2246 N2253 1.356 . S
C2247 C2246 1.363 . S
C2247 C2250 1.363 . S
N2248 C2250 1.356 . S
N2248 H2260 0.984 . S
N2248 H2261 0.985 . S
N2249 C2251 1.356 . S
N2249 H2254 0.984 . S
N2249 H2255 0.985 . S
C2250 C2244 1.379 . S
C2250 C2247 1.363 . S
C2250 N2248 1.356 . S
C2251 C2245 1.363 . S
C2251 C2246 1.379 . S
C2251 N2249 1.356 . S
N2252 C2244 1.356 . S
N2252 H2258 0.984 . S
N2252 H2259 0.984 . S
N2253 C2246 1.356 . S
N2253 H2256 0.984 . S
N2253 H2257 0.985 . S
H2254 N2249 0.984 . S
H2255 N2249 0.985 . S
H2256 N2253 0.984 . S
H2257 N2253 0.985 . S
H2258 N2252 0.984 . S
H2259 N2252 0.984 . S
H2260 N2248 0.984 . S
H2261 N2248 0.985 . S
C2262 C2263 1.363 . S
C2262 C2268 1.379 . S
C2262 N2270 1.356 . S
C2263 C2262 1.363 . S
C2263 C2269 1.363 1_545 S
C2264 C2265 1.363 1_565 S
C2264 C2269 1.379 . S
C2264 N2271 1.356 . S
C2265 C2264 1.363 1_545 S
C2265 C2268 1.363 . S
N2266 C2268 1.356 . S
N2266 H2278 0.984 . S
N2266 H2279 0.985 . S
N2267 C2269 1.356 . S
N2267 H2272 0.984 . S
N2267 H2273 0.985 . S
C2268 C2262 1.379 . S
C2268 C2265 1.363 . S
C2268 N2266 1.356 . S
C2269 C2263 1.363 1_565 S
C2269 C2264 1.379 . S
C2269 N2267 1.356 . S
N2270 C2262 1.356 . S
N2270 H2276 0.984 . S
N2270 H2277 0.984 . S
N2271 C2264 1.356 . S
N2271 H2274 0.984 . S
N2271 H2275 0.985 . S
H2272 N2267 0.984 . S
H2273 N2267 0.985 . S
H2274 N2271 0.984 . S
H2275 N2271 0.985 . S
H2276 N2270 0.984 . S
H2277 N2270 0.984 . S
H2278 N2266 0.984 . S
H2279 N2266 0.985 . S
C2280 C2281 1.363 . S
C2280 C2286 1.379 . S
C2280 N2288 1.356 1_556 S
C2281 C2280 1.363 . S
C2281 C2287 1.363 . S
C2282 C2283 1.363 . S
C2282 C2287 1.379 . S
C2282 N2289 1.356 . S
C2283 C2282 1.363 . S
C2283 C2286 1.363 . S
N2284 C2286 1.356 1_554 S
N2284 H2296 0.984 . S
N2284 H2297 0.985 1_554 S
N2285 C2287 1.356 . S
N2285 H2290 0.984 . S
N2285 H2291 0.985 . S
C2286 C2280 1.379 . S
C2286 C2283 1.363 . S
C2286 N2284 1.356 1_556 S
C2287 C2281 1.363 . S
C2287 C2282 1.379 . S
C2287 N2285 1.356 . S
N2288 C2280 1.356 1_554 S
N2288 H2294 0.984 . S
N2288 H2295 0.984 1_554 S
N2289 C2282 1.356 . S
N2289 H2292 0.984 . S
N2289 H2293 0.985 . S
H2290 N2285 0.984 . S
H2291 N2285 0.985 . S
H2292 N2289 0.984 . S
H2293 N2289 0.985 . S
H2294 N2288 0.984 . S
H2295 N2288 0.984 1_556 S
H2296 N2284 0.984 . S
H2297 N2284 0.985 1_556 S
C2298 C2299 1.363 1_545 S
C2298 C2304 1.379 . S
C2298 N2306 1.356 . S
C2299 C2298 1.363 1_565 S
C2299 C2305 1.363 . S
C2300 C2301 1.363 . S
C2300 C2305 1.379 . S
C2300 N2307 1.356 . S
C2301 C2300 1.363 . S
C2301 C2304 1.363 1_565 S
N2302 C2304 1.356 . S
N2302 H2314 0.984 . S
N2302 H2315 0.985 . S
N2303 C2305 1.356 . S
N2303 H2308 0.984 . S
N2303 H2309 0.985 . S
C2304 C2298 1.379 . S
C2304 C2301 1.363 1_545 S
C2304 N2302 1.356 . S
C2305 C2299 1.363 . S
C2305 C2300 1.379 . S
C2305 N2303 1.356 . S
N2306 C2298 1.356 . S
N2306 H2312 0.984 . S
N2306 H2313 0.984 . S
N2307 C2300 1.356 . S
N2307 H2310 0.984 . S
N2307 H2311 0.985 . S
H2308 N2303 0.984 . S
H2309 N2303 0.985 . S
H2310 N2307 0.984 . S
H2311 N2307 0.985 . S
H2312 N2306 0.984 . S
H2313 N2306 0.984 . S
H2314 N2302 0.984 . S
H2315 N2302 0.985 . S
C2316 C2317 1.363 . S
C2316 C2322 1.379 . S
C2316 N2324 1.356 . S
C2317 C2316 1.363 . S
C2317 C2323 1.363 . S
C2318 C2319 1.363 . S
C2318 C2323 1.379 . S
C2318 N2325 1.356 . S
C2319 C2318 1.363 . S
C2319 C2322 1.363 . S
N2320 C2322 1.356 . S
N2320 H2332 0.984 . S
N2320 H2333 0.985 . S
N2321 C2323 1.356 . S
N2321 H2326 0.984 . S
N2321 H2327 0.985 . S
C2322 C2316 1.379 . S
C2322 C2319 1.363 . S
C2322 N2320 1.356 . S
C2323 C2317 1.363 . S
C2323 C2318 1.379 . S
C2323 N2321 1.356 . S
N2324 C2316 1.356 . S
N2324 H2330 0.984 . S
N2324 H2331 0.984 . S
N2325 C2318 1.356 . S
N2325 H2328 0.984 . S
N2325 H2329 0.985 . S
H2326 N2321 0.984 . S
H2327 N2321 0.985 . S
H2328 N2325 0.984 . S
H2329 N2325 0.985 . S
H2330 N2324 0.984 . S
H2331 N2324 0.984 . S
H2332 N2320 0.984 . S
H2333 N2320 0.985 . S
C2334 C2335 1.363 1_565 S
C2334 C2340 1.379 1_455 S
C2334 N2342 1.356 . S
C2335 C2334 1.363 1_545 S
C2335 C2341 1.363 . S
C2336 C2337 1.363 . S
C2336 C2341 1.379 1_655 S
C2336 N2343 1.356 . S
C2337 C2336 1.363 . S
C2337 C2340 1.363 1_545 S
N2338 C2340 1.356 . S
N2338 H2350 0.984 . S
N2338 H2351 0.985 . S
N2339 C2341 1.356 . S
N2339 H2344 0.984 . S
N2339 H2345 0.985 . S
C2340 C2334 1.379 1_655 S
C2340 C2337 1.363 1_565 S
C2340 N2338 1.356 . S
C2341 C2335 1.363 . S
C2341 C2336 1.379 1_455 S
C2341 N2339 1.356 . S
N2342 C2334 1.356 . S
N2342 H2348 0.984 . S
N2342 H2349 0.984 . S
N2343 C2336 1.356 . S
N2343 H2346 0.984 . S
N2343 H2347 0.985 . S
H2344 N2339 0.984 . S
H2345 N2339 0.985 . S
H2346 N2343 0.984 . S
H2347 N2343 0.985 . S
H2348 N2342 0.984 . S
H2349 N2342 0.984 . S
H2350 N2338 0.984 . S
H2351 N2338 0.985 . S
C2352 C2353 1.363 . S
C2352 C2358 1.379 . S
C2352 N2360 1.356 1_556 S
C2353 C2352 1.363 . S
C2353 C2359 1.363 . S
C2354 C2355 1.363 . S
C2354 C2359 1.379 . S
C2354 N2361 1.356 . S
C2355 C2354 1.363 . S
C2355 C2358 1.363 . S
N2356 C2358 1.356 1_554 S
N2356 H2368 0.984 . S
N2356 H2369 0.985 1_554 S
N2357 C2359 1.356 . S
N2357 H2362 0.984 . S
N2357 H2363 0.985 . S
C2358 C2352 1.379 . S
C2358 C2355 1.363 . S
C2358 N2356 1.356 1_556 S
C2359 C2353 1.363 . S
C2359 C2354 1.379 . S
C2359 N2357 1.356 . S
N2360 C2352 1.356 1_554 S
N2360 H2366 0.984 . S
N2360 H2367 0.984 1_554 S
N2361 C2354 1.356 . S
N2361 H2364 0.984 . S
N2361 H2365 0.985 . S
H2362 N2357 0.984 . S
H2363 N2357 0.985 . S
H2364 N2361 0.984 . S
H2365 N2361 0.985 . S
H2366 N2360 0.984 . S
H2367 N2360 0.984 1_556 S
H2368 N2356 0.984 . S
H2369 N2356 0.985 1_556 S
C2370 C2371 1.363 . S
C2370 C2376 1.379 . S
C2370 N2378 1.356 . S
C2371 C2370 1.363 . S
C2371 C2377 1.363 . S
C2372 C2373 1.363 . S
C2372 C2377 1.379 . S
C2372 N2379 1.356 . S
C2373 C2372 1.363 . S
C2373 C2376 1.363 . S
N2374 C2376 1.356 . S
N2374 H2386 0.984 . S
N2374 H2387 0.985 . S
N2375 C2377 1.356 . S
N2375 H2380 0.984 . S
N2375 H2381 0.985 . S
C2376 C2370 1.379 . S
C2376 C2373 1.363 . S
C2376 N2374 1.356 . S
C2377 C2371 1.363 . S
C2377 C2372 1.379 . S
C2377 N2375 1.356 . S
N2378 C2370 1.356 . S
N2378 H2384 0.984 . S
N2378 H2385 0.984 . S
N2379 C2372 1.356 . S
N2379 H2382 0.984 . S
N2379 H2383 0.985 . S
H2380 N2375 0.984 . S
H2381 N2375 0.985 . S
H2382 N2379 0.984 . S
H2383 N2379 0.985 . S
H2384 N2378 0.984 . S
H2385 N2378 0.984 . S
H2386 N2374 0.984 . S
H2387 N2374 0.985 . S
C2388 C2389 1.363 . S
C2388 C2394 1.379 . S
C2388 N2396 1.356 . S
C2389 C2388 1.363 . S
C2389 C2395 1.363 . S
C2390 C2391 1.363 . S
C2390 C2395 1.379 . S
C2390 N2397 1.356 1_554 S
C2391 C2390 1.363 . S
C2391 C2394 1.363 . S
N2392 C2394 1.356 . S
N2392 H2404 0.984 . S
N2392 H2405 0.985 . S
N2393 C2395 1.356 1_556 S
N2393 H2398 0.984 1_556 S
N2393 H2399 0.985 . S
C2394 C2388 1.379 . S
C2394 C2391 1.363 . S
C2394 N2392 1.356 . S
C2395 C2389 1.363 . S
C2395 C2390 1.379 . S
C2395 N2393 1.356 1_554 S
N2396 C2388 1.356 . S
N2396 H2402 0.984 . S
N2396 H2403 0.984 . S
N2397 C2390 1.356 1_556 S
N2397 H2400 0.984 1_556 S
N2397 H2401 0.985 . S
H2398 N2393 0.984 1_554 S
H2399 N2393 0.985 . S
H2400 N2397 0.984 1_554 S
H2401 N2397 0.985 . S
H2402 N2396 0.984 . S
H2403 N2396 0.984 . S
H2404 N2392 0.984 . S
H2405 N2392 0.985 . S
C2406 C2407 1.363 . S
C2406 C2412 1.379 . S
C2406 N2414 1.356 . S
C2407 C2406 1.363 . S
C2407 C2413 1.363 . S
C2408 C2409 1.363 . S
C2408 C2413 1.379 . S
C2408 N2415 1.356 . S
C2409 C2408 1.363 . S
C2409 C2412 1.363 . S
N2410 C2412 1.356 . S
N2410 H2422 0.984 . S
N2410 H2423 0.985 . S
N2411 C2413 1.356 . S
N2411 H2416 0.984 . S
N2411 H2417 0.985 . S
C2412 C2406 1.379 . S
C2412 C2409 1.363 . S
C2412 N2410 1.356 . S
C2413 C2407 1.363 . S
C2413 C2408 1.379 . S
C2413 N2411 1.356 . S
N2414 C2406 1.356 . S
N2414 H2420 0.984 . S
N2414 H2421 0.984 . S
N2415 C2408 1.356 . S
N2415 H2418 0.984 . S
N2415 H2419 0.985 . S
H2416 N2411 0.984 . S
H2417 N2411 0.985 . S
H2418 N2415 0.984 . S
H2419 N2415 0.985 . S
H2420 N2414 0.984 . S
H2421 N2414 0.984 . S
H2422 N2410 0.984 . S
H2423 N2410 0.985 . S
C2424 C2425 1.363 . S
C2424 C2430 1.379 . S
C2424 N2432 1.356 . S
C2425 C2424 1.363 . S
C2425 C2431 1.363 . S
C2426 C2427 1.363 . S
C2426 C2431 1.379 . S
C2426 N2433 1.356 . S
C2427 C2426 1.363 . S
C2427 C2430 1.363 . S
N2428 C2430 1.356 . S
N2428 H2440 0.984 . S
N2428 H2441 0.985 . S
N2429 C2431 1.356 . S
N2429 H2434 0.984 . S
N2429 H2435 0.985 . S
C2430 C2424 1.379 . S
C2430 C2427 1.363 . S
C2430 N2428 1.356 . S
C2431 C2425 1.363 . S
C2431 C2426 1.379 . S
C2431 N2429 1.356 . S
N2432 C2424 1.356 . S
N2432 H2438 0.984 . S
N2432 H2439 0.984 . S
N2433 C2426 1.356 . S
N2433 H2436 0.984 . S
N2433 H2437 0.985 . S
H2434 N2429 0.984 . S
H2435 N2429 0.985 . S
H2436 N2433 0.984 . S
H2437 N2433 0.985 . S
H2438 N2432 0.984 . S
H2439 N2432 0.984 . S
H2440 N2428 0.984 . S
H2441 N2428 0.985 . S
C2442 C2443 1.363 . S
C2442 C2448 1.379 1_455 S
C2442 N2450 1.356 . S
C2443 C2442 1.363 . S
C2443 C2449 1.363 . S
C2444 C2445 1.363 . S
C2444 C2449 1.379 1_655 S
C2444 N2451 1.356 . S
C2445 C2444 1.363 . S
C2445 C2448 1.363 . S
N2446 C2448 1.356 . S
N2446 H2458 0.984 . S
N2446 H2459 0.985 . S
N2447 C2449 1.356 . S
N2447 H2452 0.984 . S
N2447 H2453 0.985 . S
C2448 C2442 1.379 1_655 S
C2448 C2445 1.363 . S
C2448 N2446 1.356 . S
C2449 C2443 1.363 . S
C2449 C2444 1.379 1_455 S
C2449 N2447 1.356 . S
N2450 C2442 1.356 . S
N2450 H2456 0.984 . S
N2450 H2457 0.984 . S
N2451 C2444 1.356 . S
N2451 H2454 0.984 . S
N2451 H2455 0.985 . S
H2452 N2447 0.984 . S
H2453 N2447 0.985 . S
H2454 N2451 0.984 . S
H2455 N2451 0.985 . S
H2456 N2450 0.984 . S
H2457 N2450 0.984 . S
H2458 N2446 0.984 . S
H2459 N2446 0.985 . S
C2460 C2461 1.363 . S
C2460 C2466 1.379 1_455 S
C2460 N2468 1.356 . S
C2461 C2460 1.363 . S
C2461 C2467 1.363 . S
C2462 C2463 1.363 . S
C2462 C2467 1.379 1_655 S
C2462 N2469 1.356 . S
C2463 C2462 1.363 . S
C2463 C2466 1.363 . S
N2464 C2466 1.356 . S
N2464 H2476 0.984 . S
N2464 H2477 0.985 . S
N2465 C2467 1.356 . S
N2465 H2470 0.984 . S
N2465 H2471 0.985 . S
C2466 C2460 1.379 1_655 S
C2466 C2463 1.363 . S
C2466 N2464 1.356 . S
C2467 C2461 1.363 . S
C2467 C2462 1.379 1_455 S
C2467 N2465 1.356 . S
N2468 C2460 1.356 . S
N2468 H2474 0.984 . S
N2468 H2475 0.984 . S
N2469 C2462 1.356 . S
N2469 H2472 0.984 . S
N2469 H2473 0.985 . S
H2470 N2465 0.984 . S
H2471 N2465 0.985 . S
H2472 N2469 0.984 . S
H2473 N2469 0.985 . S
H2474 N2468 0.984 . S
H2475 N2468 0.984 . S
H2476 N2464 0.984 . S
H2477 N2464 0.985 . S
C2478 C2479 1.363 . S
C2478 C2484 1.379 . S
C2478 N2486 1.356 . S
C2479 C2478 1.363 . S
C2479 C2485 1.363 . S
C2480 C2481 1.363 . S
C2480 C2485 1.379 . S
C2480 N2487 1.356 . S
C2481 C2480 1.363 . S
C2481 C2484 1.363 . S
N2482 C2484 1.356 . S
N2482 H2494 0.984 . S
N2482 H2495 0.985 . S
N2483 C2485 1.356 . S
N2483 H2488 0.984 . S
N2483 H2489 0.985 . S
C2484 C2478 1.379 . S
C2484 C2481 1.363 . S
C2484 N2482 1.356 . S
C2485 C2479 1.363 . S
C2485 C2480 1.379 . S
C2485 N2483 1.356 . S
N2486 C2478 1.356 . S
N2486 H2492 0.984 . S
N2486 H2493 0.984 . S
N2487 C2480 1.356 . S
N2487 H2490 0.984 . S
N2487 H2491 0.985 . S
H2488 N2483 0.984 . S
H2489 N2483 0.985 . S
H2490 N2487 0.984 . S
H2491 N2487 0.985 . S
H2492 N2486 0.984 . S
H2493 N2486 0.984 . S
H2494 N2482 0.984 . S
H2495 N2482 0.985 . S
C1057 N38 2.165 . S
C1059 C8 2.074 . S
C1075 C41 2.074 . S
C1077 N71 2.155 . S
C1093 C74 2.074 . S
C1095 N104 2.164 . S
C1111 C107 2.074 . S
C1113 N5 2.155 . S
C1129 C140 2.074 . S
C1131 N236 2.165 . S
C1147 N137 2.155 . S
C1149 C173 2.074 . S
C1165 C206 2.074 . S
C1167 N170 2.164 . S
C1183 C239 2.074 . S
C1185 N203 2.155 . S
C1201 N302 2.165 . S
C1203 C272 2.074 . S
C1219 N335 2.155 . S
C1221 C305 2.074 . S
C1237 C338 2.074 . S
C1239 N368 2.164 . S
C1255 N269 2.155 . S
C1257 C371 2.074 . S
C1273 C404 2.074 . S
C1275 N500 2.165 . S
C1291 C437 2.074 . S
C1293 N401 2.155 . S
C1309 N434 2.164 . S
C1311 C470 2.074 . S
C1327 N467 2.155 . S
C1329 C503 2.074 . S
C1345 N566 2.155 . S
C1347 C536 2.074 . S
C1363 C569 2.074 . S
C1365 N599 2.155 . S
C1381 N632 2.155 . S
C1383 C602 2.074 . S
C1399 N533 2.155 . S
C1401 C635 2.074 . S
C1417 N764 2.155 . S
C1419 C668 2.074 . S
C1435 C701 2.074 . S
C1437 N665 2.155 . S
C1453 N698 2.155 . S
C1455 C734 2.074 . S
C1471 C767 2.074 . S
C1473 N731 2.155 . S
C1489 N830 2.155 . S
C1491 C800 2.074 . S
C1507 C833 2.074 . S
C1509 N863 2.155 . S
C1525 C866 2.074 . S
C1527 N896 2.155 . S
C1543 C899 2.074 . S
C1545 N797 2.155 . S
C1561 N1028 2.155 . S
C1563 C932 2.074 . S
C1579 N929 2.155 . S
C1581 C965 2.074 . S
C1597 N962 2.155 . S
C1599 C998 2.074 . S
C1615 N995 2.155 . S
C1617 C1031 2.074 . S
C1633 N212 0.709 . S
C1635 N14 0.709 . S
C1651 N47 0.709 . S
C1653 N245 0.709 . S
C1669 N80 0.709 . S
C1671 N146 0.709 . S
C1687 N113 0.709 . S
C1689 N179 0.709 . S
C1705 N476 0.709 . S
C1707 N278 0.709 . S
C1723 N509 0.709 . S
C1725 N311 0.709 . S
C1741 N344 0.709 . S
C1743 N410 0.709 . S
C1759 N443 0.709 . S
C1761 N377 0.709 . S
C1777 N542 0.709 . S
C1779 N740 0.709 . S
C1795 N575 0.709 . S
C1797 N773 0.709 . S
C1813 N674 0.709 . S
C1815 N608 0.709 . S
C1831 N707 0.709 . S
C1833 N641 0.709 . S
C1849 N1004 0.709 . S
C1851 N806 0.709 . S
C1867 N1037 0.709 . S
C1869 N839 0.709 . S
C1885 N938 0.709 . S
C1887 N872 0.709 . S
C1903 N971 0.709 . S
C1905 N905 0.709 . S
C1921 C193 0.898 . S
C1923 C28 0.898 . S
C1939 C61 0.898 . S
C1941 C226 0.898 . S
C1957 C94 0.898 . S
C1959 C259 0.898 . S
C1975 C127 0.898 . S
C1977 C160 0.898 . S
C1993 C457 0.898 . S
C1995 C292 0.898 . S
C2011 C325 0.898 . S
C2013 C490 0.898 . S
C2029 C523 0.898 . S
C2031 C358 0.898 . S
C2047 C391 0.898 . S
C2049 C424 0.898 . S
C2065 C556 0.898 . S
C2067 C721 0.898 . S
C2083 C754 0.898 . S
C2085 C589 0.898 . S
C2101 C787 0.898 . S
C2103 C622 0.898 . S
C2119 C655 0.898 . S
C2121 C688 0.898 . S
C2137 C820 0.898 . S
C2139 C985 0.898 . S
C2155 C1018 0.898 . S
C2157 C853 0.898 . S
C2173 C1051 0.898 . S
C2175 C886 0.898 . S
C2191 C952 0.898 . S
C2193 C919 0.898 . S
C2209 C17 1.457 . S
C2211 C1007 1.457 . S
C2227 C512 1.457 . S
C2229 C50 1.457 . S
C2245 C941 1.457 . S
C2247 C83 1.457 . S
C2263 C116 1.457 . S
C2265 C446 1.457 . S
C2281 C149 1.457 . S
C2283 C875 1.457 . S
C2299 C380 1.457 . S
C2301 C182 1.457 . S
C2317 C215 1.457 . S
C2319 C809 1.457 . S
C2335 C248 1.457 . S
C2337 C314 1.457 . S
C2353 C281 1.457 . S
C2355 C743 1.457 . S
C2371 C347 1.457 . S
C2373 C677 1.457 . S
C2389 C413 1.457 . S
C2391 C611 1.457 . S
C2407 C479 1.457 . S
C2409 C545 1.457 . S
C2425 C578 1.457 . S
C2427 C1040 1.457 . S
C2443 C974 1.457 . S
C2445 C644 1.457 . S
C2461 C908 1.457 . S
C2463 C710 1.457 . S
C2479 C842 1.457 . S
C2481 C776 1.457 . S
