# Generated by pormake.
# Topology fcm, (5)-cn, num edge types: 1
# Building blocks:
#     Node 0, Type 0, BuildingBlock: BEQFEK_clean_sbu_0, # of connection points: 5
#     Node 1, Type 0, BuildingBlock: BEQFEK_clean_sbu_0, # of connection points: 5
#     Node 2, Type 0, BuildingBlock: BEQFEK_clean_sbu_0, # of connection points: 5
#     Node 3, Type 0, BuildingBlock: BEQFEK_clean_sbu_0, # of connection points: 5
#     Node 4, Type 0, BuildingBlock: BEQFEK_clean_sbu_0, # of connection points: 5
#     Node 5, Type 0, BuildingBlock: BEQFEK_clean_sbu_0, # of connection points: 5
#     Node 6, Type 0, BuildingBlock: BEQFEK_clean_sbu_0, # of connection points: 5
#     Node 7, Type 0, BuildingBlock: BEQFEK_clean_sbu_0, # of connection points: 5
#     Node 8, Type 0, BuildingBlock: BEQFEK_clean_sbu_0, # of connection points: 5
#     Node 9, Type 0, BuildingBlock: BEQFEK_clean_sbu_0, # of connection points: 5
#     Node 10, Type 0, BuildingBlock: BEQFEK_clean_sbu_0, # of connection points: 5
#     Node 11, Type 0, BuildingBlock: BEQFEK_clean_sbu_0, # of connection points: 5
#     Node 12, Type 0, BuildingBlock: BEQFEK_clean_sbu_0, # of connection points: 5
#     Node 13, Type 0, BuildingBlock: BEQFEK_clean_sbu_0, # of connection points: 5
#     Node 14, Type 0, BuildingBlock: BEQFEK_clean_sbu_0, # of connection points: 5
#     Node 15, Type 0, BuildingBlock: BEQFEK_clean_sbu_0, # of connection points: 5
#     Node 16, Type 0, BuildingBlock: BEQFEK_clean_sbu_0, # of connection points: 5
#     Node 17, Type 0, BuildingBlock: BEQFEK_clean_sbu_0, # of connection points: 5
#     Node 18, Type 0, BuildingBlock: BEQFEK_clean_sbu_0, # of connection points: 5
#     Node 19, Type 0, BuildingBlock: BEQFEK_clean_sbu_0, # of connection points: 5
#     Node 20, Type 0, BuildingBlock: BEQFEK_clean_sbu_0, # of connection points: 5
#     Node 21, Type 0, BuildingBlock: BEQFEK_clean_sbu_0, # of connection points: 5
#     Node 22, Type 0, BuildingBlock: BEQFEK_clean_sbu_0, # of connection points: 5
#     Node 23, Type 0, BuildingBlock: BEQFEK_clean_sbu_0, # of connection points: 5
#     Node 24, Type 0, BuildingBlock: BEQFEK_clean_sbu_0, # of connection points: 5
#     Node 25, Type 0, BuildingBlock: BEQFEK_clean_sbu_0, # of connection points: 5
#     Node 26, Type 0, BuildingBlock: BEQFEK_clean_sbu_0, # of connection points: 5
#     Node 27, Type 0, BuildingBlock: BEQFEK_clean_sbu_0, # of connection points: 5
#     Node 28, Type 0, BuildingBlock: BEQFEK_clean_sbu_0, # of connection points: 5
#     Node 29, Type 0, BuildingBlock: BEQFEK_clean_sbu_0, # of connection points: 5
#     Node 30, Type 0, BuildingBlock: BEQFEK_clean_sbu_0, # of connection points: 5
#     Node 31, Type 0, BuildingBlock: BEQFEK_clean_sbu_0, # of connection points: 5
#     Node 32, Type 0, BuildingBlock: BEQFEK_clean_sbu_0, # of connection points: 5
#     Node 33, Type 0, BuildingBlock: BEQFEK_clean_sbu_0, # of connection points: 5
#     Node 34, Type 0, BuildingBlock: BEQFEK_clean_sbu_0, # of connection points: 5
#     Node 35, Type 0, BuildingBlock: BEQFEK_clean_sbu_0, # of connection points: 5
#     Node 36, Type 0, BuildingBlock: BEQFEK_clean_sbu_0, # of connection points: 5
#     Node 37, Type 0, BuildingBlock: BEQFEK_clean_sbu_0, # of connection points: 5
#     Node 38, Type 0, BuildingBlock: BEQFEK_clean_sbu_0, # of connection points: 5
#     Node 39, Type 0, BuildingBlock: BEQFEK_clean_sbu_0, # of connection points: 5
#     Node 40, Type 0, BuildingBlock: BEQFEK_clean_sbu_0, # of connection points: 5
#     Node 41, Type 0, BuildingBlock: BEQFEK_clean_sbu_0, # of connection points: 5
#     Node 42, Type 0, BuildingBlock: BEQFEK_clean_sbu_0, # of connection points: 5
#     Node 43, Type 0, BuildingBlock: BEQFEK_clean_sbu_0, # of connection points: 5
#     Node 44, Type 0, BuildingBlock: BEQFEK_clean_sbu_0, # of connection points: 5
#     Node 45, Type 0, BuildingBlock: BEQFEK_clean_sbu_0, # of connection points: 5
#     Node 46, Type 0, BuildingBlock: BEQFEK_clean_sbu_0, # of connection points: 5
#     Node 47, Type 0, BuildingBlock: BEQFEK_clean_sbu_0, # of connection points: 5
#     Edge 48, Type (0, 0), BuildingBlock: CIFDUS_clean_linker_0, # of connection points: 2
#     Edge 49, Type (0, 0), BuildingBlock: CIFDUS_clean_linker_0, # of connection points: 2
#     Edge 50, Type (0, 0), BuildingBlock: CIFDUS_clean_linker_0, # of connection points: 2
#     Edge 51, Type (0, 0), BuildingBlock: CIFDUS_clean_linker_0, # of connection points: 2
#     Edge 52, Type (0, 0), BuildingBlock: CIFDUS_clean_linker_0, # of connection points: 2
#     Edge 53, Type (0, 0), BuildingBlock: CIFDUS_clean_linker_0, # of connection points: 2
#     Edge 54, Type (0, 0), BuildingBlock: CIFDUS_clean_linker_0, # of connection points: 2
#     Edge 55, Type (0, 0), BuildingBlock: CIFDUS_clean_linker_0, # of connection points: 2
#     Edge 56, Type (0, 0), BuildingBlock: CIFDUS_clean_linker_0, # of connection points: 2
#     Edge 57, Type (0, 0), BuildingBlock: CIFDUS_clean_linker_0, # of connection points: 2
#     Edge 58, Type (0, 0), BuildingBlock: CIFDUS_clean_linker_0, # of connection points: 2
#     Edge 59, Type (0, 0), BuildingBlock: CIFDUS_clean_linker_0, # of connection points: 2
#     Edge 60, Type (0, 0), BuildingBlock: CIFDUS_clean_linker_0, # of connection points: 2
#     Edge 61, Type (0, 0), BuildingBlock: CIFDUS_clean_linker_0, # of connection points: 2
#     Edge 62, Type (0, 0), BuildingBlock: CIFDUS_clean_linker_0, # of connection points: 2
#     Edge 63, Type (0, 0), BuildingBlock: CIFDUS_clean_linker_0, # of connection points: 2
#     Edge 64, Type (0, 0), BuildingBlock: CIFDUS_clean_linker_0, # of connection points: 2
#     Edge 65, Type (0, 0), BuildingBlock: CIFDUS_clean_linker_0, # of connection points: 2
#     Edge 66, Type (0, 0), BuildingBlock: CIFDUS_clean_linker_0, # of connection points: 2
#     Edge 67, Type (0, 0), BuildingBlock: CIFDUS_clean_linker_0, # of connection points: 2
#     Edge 68, Type (0, 0), BuildingBlock: CIFDUS_clean_linker_0, # of connection points: 2
#     Edge 69, Type (0, 0), BuildingBlock: CIFDUS_clean_linker_0, # of connection points: 2
#     Edge 70, Type (0, 0), BuildingBlock: CIFDUS_clean_linker_0, # of connection points: 2
#     Edge 71, Type (0, 0), BuildingBlock: CIFDUS_clean_linker_0, # of connection points: 2
#     Edge 72, Type (0, 0), BuildingBlock: CIFDUS_clean_linker_0, # of connection points: 2
#     Edge 73, Type (0, 0), BuildingBlock: CIFDUS_clean_linker_0, # of connection points: 2
#     Edge 74, Type (0, 0), BuildingBlock: CIFDUS_clean_linker_0, # of connection points: 2
#     Edge 75, Type (0, 0), BuildingBlock: CIFDUS_clean_linker_0, # of connection points: 2
#     Edge 76, Type (0, 0), BuildingBlock: CIFDUS_clean_linker_0, # of connection points: 2
#     Edge 77, Type (0, 0), BuildingBlock: CIFDUS_clean_linker_0, # of connection points: 2
#     Edge 78, Type (0, 0), BuildingBlock: CIFDUS_clean_linker_0, # of connection points: 2
#     Edge 79, Type (0, 0), BuildingBlock: CIFDUS_clean_linker_0, # of connection points: 2
#     Edge 80, Type (0, 0), BuildingBlock: CIFDUS_clean_linker_0, # of connection points: 2
#     Edge 81, Type (0, 0), BuildingBlock: CIFDUS_clean_linker_0, # of connection points: 2
#     Edge 82, Type (0, 0), BuildingBlock: CIFDUS_clean_linker_0, # of connection points: 2
#     Edge 83, Type (0, 0), BuildingBlock: CIFDUS_clean_linker_0, # of connection points: 2
#     Edge 84, Type (0, 0), BuildingBlock: CIFDUS_clean_linker_0, # of connection points: 2
#     Edge 85, Type (0, 0), BuildingBlock: CIFDUS_clean_linker_0, # of connection points: 2
#     Edge 86, Type (0, 0), BuildingBlock: CIFDUS_clean_linker_0, # of connection points: 2
#     Edge 87, Type (0, 0), BuildingBlock: CIFDUS_clean_linker_0, # of connection points: 2
#     Edge 88, Type (0, 0), BuildingBlock: CIFDUS_clean_linker_0, # of connection points: 2
#     Edge 89, Type (0, 0), BuildingBlock: CIFDUS_clean_linker_0, # of connection points: 2
#     Edge 90, Type (0, 0), BuildingBlock: CIFDUS_clean_linker_0, # of connection points: 2
#     Edge 91, Type (0, 0), BuildingBlock: CIFDUS_clean_linker_0, # of connection points: 2
#     Edge 92, Type (0, 0), BuildingBlock: CIFDUS_clean_linker_0, # of connection points: 2
#     Edge 93, Type (0, 0), BuildingBlock: CIFDUS_clean_linker_0, # of connection points: 2
#     Edge 94, Type (0, 0), BuildingBlock: CIFDUS_clean_linker_0, # of connection points: 2
#     Edge 95, Type (0, 0), BuildingBlock: CIFDUS_clean_linker_0, # of connection points: 2
#     Edge 96, Type (0, 0), BuildingBlock: CIFDUS_clean_linker_0, # of connection points: 2
#     Edge 97, Type (0, 0), BuildingBlock: CIFDUS_clean_linker_0, # of connection points: 2
#     Edge 98, Type (0, 0), BuildingBlock: CIFDUS_clean_linker_0, # of connection points: 2
#     Edge 99, Type (0, 0), BuildingBlock: CIFDUS_clean_linker_0, # of connection points: 2
#     Edge 100, Type (0, 0), BuildingBlock: CIFDUS_clean_linker_0, # of connection points: 2
#     Edge 101, Type (0, 0), BuildingBlock: CIFDUS_clean_linker_0, # of connection points: 2
#     Edge 102, Type (0, 0), BuildingBlock: CIFDUS_clean_linker_0, # of connection points: 2
#     Edge 103, Type (0, 0), BuildingBlock: CIFDUS_clean_linker_0, # of connection points: 2
#     Edge 104, Type (0, 0), BuildingBlock: CIFDUS_clean_linker_0, # of connection points: 2
#     Edge 105, Type (0, 0), BuildingBlock: CIFDUS_clean_linker_0, # of connection points: 2
#     Edge 106, Type (0, 0), BuildingBlock: CIFDUS_clean_linker_0, # of connection points: 2
#     Edge 107, Type (0, 0), BuildingBlock: CIFDUS_clean_linker_0, # of connection points: 2
#     Edge 108, Type (0, 0), BuildingBlock: CIFDUS_clean_linker_0, # of connection points: 2
#     Edge 109, Type (0, 0), BuildingBlock: CIFDUS_clean_linker_0, # of connection points: 2
#     Edge 110, Type (0, 0), BuildingBlock: CIFDUS_clean_linker_0, # of connection points: 2
#     Edge 111, Type (0, 0), BuildingBlock: CIFDUS_clean_linker_0, # of connection points: 2
#     Edge 112, Type (0, 0), BuildingBlock: CIFDUS_clean_linker_0, # of connection points: 2
#     Edge 113, Type (0, 0), BuildingBlock: CIFDUS_clean_linker_0, # of connection points: 2
#     Edge 114, Type (0, 0), BuildingBlock: CIFDUS_clean_linker_0, # of connection points: 2
#     Edge 115, Type (0, 0), BuildingBlock: CIFDUS_clean_linker_0, # of connection points: 2
#     Edge 116, Type (0, 0), BuildingBlock: CIFDUS_clean_linker_0, # of connection points: 2
#     Edge 117, Type (0, 0), BuildingBlock: CIFDUS_clean_linker_0, # of connection points: 2
#     Edge 118, Type (0, 0), BuildingBlock: CIFDUS_clean_linker_0, # of connection points: 2
#     Edge 119, Type (0, 0), BuildingBlock: CIFDUS_clean_linker_0, # of connection points: 2
#     Edge 120, Type (0, 0), BuildingBlock: CIFDUS_clean_linker_0, # of connection points: 2
#     Edge 121, Type (0, 0), BuildingBlock: CIFDUS_clean_linker_0, # of connection points: 2
#     Edge 122, Type (0, 0), BuildingBlock: CIFDUS_clean_linker_0, # of connection points: 2
#     Edge 123, Type (0, 0), BuildingBlock: CIFDUS_clean_linker_0, # of connection points: 2
#     Edge 124, Type (0, 0), BuildingBlock: CIFDUS_clean_linker_0, # of connection points: 2
#     Edge 125, Type (0, 0), BuildingBlock: CIFDUS_clean_linker_0, # of connection points: 2
#     Edge 126, Type (0, 0), BuildingBlock: CIFDUS_clean_linker_0, # of connection points: 2
#     Edge 127, Type (0, 0), BuildingBlock: CIFDUS_clean_linker_0, # of connection points: 2
#     Edge 128, Type (0, 0), BuildingBlock: CIFDUS_clean_linker_0, # of connection points: 2
#     Edge 129, Type (0, 0), BuildingBlock: CIFDUS_clean_linker_0, # of connection points: 2
#     Edge 130, Type (0, 0), BuildingBlock: CIFDUS_clean_linker_0, # of connection points: 2
#     Edge 131, Type (0, 0), BuildingBlock: CIFDUS_clean_linker_0, # of connection points: 2
#     Edge 132, Type (0, 0), BuildingBlock: CIFDUS_clean_linker_0, # of connection points: 2
#     Edge 133, Type (0, 0), BuildingBlock: CIFDUS_clean_linker_0, # of connection points: 2
#     Edge 134, Type (0, 0), BuildingBlock: CIFDUS_clean_linker_0, # of connection points: 2
#     Edge 135, Type (0, 0), BuildingBlock: CIFDUS_clean_linker_0, # of connection points: 2
#     Edge 136, Type (0, 0), BuildingBlock: CIFDUS_clean_linker_0, # of connection points: 2
#     Edge 137, Type (0, 0), BuildingBlock: CIFDUS_clean_linker_0, # of connection points: 2
#     Edge 138, Type (0, 0), BuildingBlock: CIFDUS_clean_linker_0, # of connection points: 2
#     Edge 139, Type (0, 0), BuildingBlock: CIFDUS_clean_linker_0, # of connection points: 2
#     Edge 140, Type (0, 0), BuildingBlock: CIFDUS_clean_linker_0, # of connection points: 2
#     Edge 141, Type (0, 0), BuildingBlock: CIFDUS_clean_linker_0, # of connection points: 2
#     Edge 142, Type (0, 0), BuildingBlock: CIFDUS_clean_linker_0, # of connection points: 2
#     Edge 143, Type (0, 0), BuildingBlock: CIFDUS_clean_linker_0, # of connection points: 2
#     Edge 144, Type (0, 0), BuildingBlock: CIFDUS_clean_linker_0, # of connection points: 2
#     Edge 145, Type (0, 0), BuildingBlock: CIFDUS_clean_linker_0, # of connection points: 2
#     Edge 146, Type (0, 0), BuildingBlock: CIFDUS_clean_linker_0, # of connection points: 2
#     Edge 147, Type (0, 0), BuildingBlock: CIFDUS_clean_linker_0, # of connection points: 2
#     Edge 148, Type (0, 0), BuildingBlock: CIFDUS_clean_linker_0, # of connection points: 2
#     Edge 149, Type (0, 0), BuildingBlock: CIFDUS_clean_linker_0, # of connection points: 2
#     Edge 150, Type (0, 0), BuildingBlock: CIFDUS_clean_linker_0, # of connection points: 2
#     Edge 151, Type (0, 0), BuildingBlock: CIFDUS_clean_linker_0, # of connection points: 2
#     Edge 152, Type (0, 0), BuildingBlock: CIFDUS_clean_linker_0, # of connection points: 2
#     Edge 153, Type (0, 0), BuildingBlock: CIFDUS_clean_linker_0, # of connection points: 2
#     Edge 154, Type (0, 0), BuildingBlock: CIFDUS_clean_linker_0, # of connection points: 2
#     Edge 155, Type (0, 0), BuildingBlock: CIFDUS_clean_linker_0, # of connection points: 2
#     Edge 156, Type (0, 0), BuildingBlock: CIFDUS_clean_linker_0, # of connection points: 2
#     Edge 157, Type (0, 0), BuildingBlock: CIFDUS_clean_linker_0, # of connection points: 2
#     Edge 158, Type (0, 0), BuildingBlock: CIFDUS_clean_linker_0, # of connection points: 2
#     Edge 159, Type (0, 0), BuildingBlock: CIFDUS_clean_linker_0, # of connection points: 2
#     Edge 160, Type (0, 0), BuildingBlock: CIFDUS_clean_linker_0, # of connection points: 2
#     Edge 161, Type (0, 0), BuildingBlock: CIFDUS_clean_linker_0, # of connection points: 2
#     Edge 162, Type (0, 0), BuildingBlock: CIFDUS_clean_linker_0, # of connection points: 2
#     Edge 163, Type (0, 0), BuildingBlock: CIFDUS_clean_linker_0, # of connection points: 2
#     Edge 164, Type (0, 0), BuildingBlock: CIFDUS_clean_linker_0, # of connection points: 2
#     Edge 165, Type (0, 0), BuildingBlock: CIFDUS_clean_linker_0, # of connection points: 2
#     Edge 166, Type (0, 0), BuildingBlock: CIFDUS_clean_linker_0, # of connection points: 2
#     Edge 167, Type (0, 0), BuildingBlock: CIFDUS_clean_linker_0, # of connection points: 2
# Relax obj value: 0.490
# Max RMSD: 0.213
# Mean RMSD: 0.213
data_MOF--net-fcm--node1-BEQFEK_clean_sbu_0--edge1-CIFDUS_clean_linker_0
_symmetry_space_group_name_H-M    P1
_symmetry_Int_Tables_number       1
_symmetry_cell_setting            triclinic
loop_
_symmetry_equiv_pos_as_xyz
'x, y, z'
_cell_length_a     62.555296
_cell_length_b     62.570535
_cell_length_c     62.566268
_cell_angle_alpha  90.065421
_cell_angle_beta   89.979217
_cell_angle_gamma 90.050691
loop_
_atom_site_label
_atom_site_type_symbol
_atom_site_fract_x
_atom_site_fract_y
_atom_site_fract_z
_atom_type_partial_charge
Co0 Co 0.02595 0.06455 0.33252 0.0
Co1 Co 0.98984 0.03584 0.35209 0.0
C2 C 0.0078 0.02602 0.3095 0.0
O3 O 0.01898 0.04293 0.31033 0.0
O4 O 0.99658 0.02007 0.32534 0.0
C5 C 0.06755 0.06046 0.32198 0.0
O6 O 0.06039 0.0408 0.32381 0.0
C7 C 0.97529 0.99714 0.37221 0.0
C8 C 0.94708 0.00707 0.39095 0.0
C9 C 0.96035 0.98976 0.38685 0.0
N10 N 0.97115 0.01775 0.36798 0.0
N11 N 0.95404 0.02357 0.37893 0.0
C12 C 0.99497 0.98585 0.36451 0.0
H13 H 0.0074 0.99754 0.3597 0.0
H14 H 0.00148 0.97522 0.37711 0.0
H15 H 0.99083 0.97597 0.35037 0.0
C16 C 0.04343 0.05964 0.37589 0.0
N17 N 0.02914 0.05418 0.36069 0.0
N18 N 0.01435 0.04186 0.36915 0.0
C19 C 0.01913 0.03872 0.39001 0.0
C20 C 0.03767 0.04986 0.39481 0.0
C21 C 0.06154 0.07501 0.37278 0.0
H22 H 0.07519 0.06643 0.36547 0.0
H23 H 0.06714 0.08185 0.38813 0.0
H24 H 0.05658 0.08823 0.3621 0.0
O25 O 0.00216 0.08502 0.33262 0.0
O26 O 0.97569 0.06348 0.34367 0.0
H27 H 0.98845 0.03304 0.40414 0.0
H28 H 0.01054 0.0302 0.42244 0.0
C29 C 0.00514 0.02739 0.40577 0.0
H30 H 0.00562 0.00999 0.40258 0.0
H31 H 0.94777 0.03901 0.37902 0.0
O32 O 0.05434 0.07581 0.32402 0.0
C33 C 0.98247 0.08157 0.33687 0.0
Co34 Co 0.18646 0.76603 0.57536 0.0
Co35 Co 0.2143 0.72965 0.59594 0.0
C36 C 0.22461 0.7468 0.55285 0.0
O37 O 0.20791 0.75828 0.55344 0.0
O38 O 0.23033 0.7357 0.56891 0.0
C39 C 0.18542 0.80669 0.55644 0.0
O40 O 0.204 0.79994 0.54938 0.0
C41 C 0.25232 0.71495 0.61772 0.0
C42 C 0.24116 0.68705 0.63619 0.0
C43 C 0.25883 0.70005 0.63281 0.0
N44 N 0.23184 0.71103 0.6126 0.0
N45 N 0.22531 0.69411 0.62341 0.0
C46 C 0.26425 0.73434 0.61029 0.0
H47 H 0.25301 0.74668 0.60436 0.0
H48 H 0.27408 0.74111 0.62342 0.0
H49 H 0.27503 0.72977 0.59697 0.0
C50 C 0.19412 0.78591 0.61729 0.0
N51 N 0.19791 0.77021 0.60302 0.0
N52 N 0.20876 0.75485 0.61236 0.0
C53 C 0.21203 0.76035 0.63306 0.0
C54 C 0.20286 0.7802 0.63674 0.0
C55 C 0.18201 0.80593 0.61249 0.0
H56 H 0.19079 0.81494 0.60005 0.0
H57 H 0.18039 0.81646 0.62664 0.0
H58 H 0.1659 0.80178 0.60639 0.0
O59 O 0.16578 0.74231 0.57643 0.0
O60 O 0.18653 0.71548 0.58779 0.0
H61 H 0.21756 0.75166 0.66606 0.0
H62 H 0.23914 0.74596 0.64797 0.0
C63 C 0.22151 0.74605 0.64969 0.0
H64 H 0.21545 0.72954 0.64763 0.0
H65 H 0.20977 0.68804 0.62287 0.0
O66 O 0.1735 0.79373 0.56663 0.0
C67 C 0.16864 0.72263 0.58095 0.0
Co68 Co 0.48003 0.93576 0.8346 0.0
Co69 Co 0.51774 0.96223 0.85454 0.0
C70 C 0.50073 0.97397 0.81251 0.0
O71 O 0.48899 0.95742 0.8132 0.0
O72 O 0.51212 0.97948 0.82842 0.0
C73 C 0.43934 0.94303 0.82085 0.0
O74 O 0.44766 0.96225 0.82221 0.0
C75 C 0.53878 0.99803 0.87594 0.0
C76 C 0.56051 0.98176 0.89845 0.0
C77 C 0.55236 0.00166 0.89314 0.0
N78 N 0.5383 0.97693 0.87186 0.0
N79 N 0.55174 0.96735 0.88503 0.0
C80 C 0.52608 0.01416 0.86363 0.0
H81 H 0.50875 0.0111 0.86582 0.0
H82 H 0.53 0.03077 0.86844 0.0
H83 H 0.52964 0.01237 0.84636 0.0
C84 C 0.46223 0.94202 0.87737 0.0
N85 N 0.47737 0.94616 0.86267 0.0
N86 N 0.49243 0.95803 0.87125 0.0
C87 C 0.48682 0.96246 0.8917 0.0
C88 C 0.46745 0.95243 0.89619 0.0
C89 C 0.44457 0.92616 0.87432 0.0
H90 H 0.44943 0.91357 0.86284 0.0
H91 H 0.43035 0.93464 0.86807 0.0
H92 H 0.44016 0.91846 0.88967 0.0
O93 O 0.50196 0.91349 0.83431 0.0
O94 O 0.52965 0.93358 0.84496 0.0
H95 H 0.51483 0.96833 0.91041 0.0
H96 H 0.49073 0.97974 0.92156 0.0
C97 C 0.49949 0.97629 0.90655 0.0
H98 H 0.50292 0.99171 0.89868 0.0
H99 H 0.55394 0.95082 0.88572 0.0
O100 O 0.45089 0.92689 0.82529 0.0
C101 C 0.52186 0.91589 0.83814 0.0
Co102 Co 0.31036 0.22776 0.07993 0.0
Co103 Co 0.28521 0.26437 0.1025 0.0
C104 C 0.27147 0.24919 0.06024 0.0
O105 O 0.28794 0.23741 0.06003 0.0
O106 O 0.2665 0.25995 0.07677 0.0
C107 C 0.30014 0.18744 0.07068 0.0
O108 O 0.2824 0.19639 0.07746 0.0
C109 C 0.25113 0.28308 0.12777 0.0
C110 C 0.26775 0.30833 0.14606 0.0
C111 C 0.2482 0.29796 0.14412 0.0
N112 N 0.27141 0.28447 0.12083 0.0
N113 N 0.28117 0.29987 0.1315 0.0
C114 C 0.23605 0.26595 0.12043 0.0
H115 H 0.24494 0.25276 0.11258 0.0
H116 H 0.22672 0.25942 0.13401 0.0
H117 H 0.22477 0.27282 0.10861 0.0
C118 C 0.30647 0.20812 0.12225 0.0
N119 N 0.30186 0.22407 0.1086 0.0
N120 N 0.2904 0.23866 0.11846 0.0
C121 C 0.28698 0.23199 0.13883 0.0
C122 C 0.29676 0.21222 0.14162 0.0
C123 C 0.32226 0.19063 0.11799 0.0
H124 H 0.3338 0.19549 0.10545 0.0
H125 H 0.31367 0.17604 0.11285 0.0
H126 H 0.33118 0.18662 0.13279 0.0
O127 O 0.33294 0.24942 0.07917 0.0
O128 O 0.31345 0.27652 0.09217 0.0
H129 H 0.28057 0.2611 0.15572 0.0
H130 H 0.27709 0.23735 0.17163 0.0
C131 C 0.27502 0.24429 0.15549 0.0
H132 H 0.25776 0.24394 0.15171 0.0
H133 H 0.29728 0.30378 0.12967 0.0
O134 O 0.31698 0.19883 0.06906 0.0
C135 C 0.33077 0.26912 0.0841 0.0
Co136 Co 0.01623 0.93728 0.16995 0.0
Co137 Co 0.98239 0.96802 0.14987 0.0
C138 C 0.00112 0.9784 0.19136 0.0
O139 O 0.01055 0.96049 0.19067 0.0
O140 O 0.99034 0.98513 0.17553 0.0
C141 C 0.05747 0.94123 0.17969 0.0
O142 O 0.05122 0.96014 0.17306 0.0
C143 C 0.96666 0.00527 0.12717 0.0
C144 C 0.94299 0.9912 0.10508 0.0
C145 C 0.95427 0.00984 0.1093 0.0
N146 N 0.96368 0.98467 0.13244 0.0
N147 N 0.949 0.97652 0.11962 0.0
C148 C 0.98135 0.01997 0.13911 0.0
H149 H 0.97815 0.01864 0.15647 0.0
H150 H 0.99819 0.01515 0.13635 0.0
H151 H 0.97902 0.03689 0.13439 0.0
C152 C 0.03531 0.94123 0.12674 0.0
N153 N 0.02024 0.94635 0.14133 0.0
N154 N 0.00675 0.96008 0.13293 0.0
C155 C 0.01329 0.96454 0.11279 0.0
C156 C 0.03165 0.95292 0.10832 0.0
C157 C 0.05313 0.92569 0.13047 0.0
H158 H 0.04853 0.9138 0.14274 0.0
H159 H 0.06754 0.93454 0.13579 0.0
H160 H 0.05742 0.91703 0.11566 0.0
O161 O 0.99137 0.91812 0.17134 0.0
O162 O 0.9669 0.94177 0.16036 0.0
H163 H 0.0086 0.97766 0.08108 0.0
H164 H 0.0026 0.99535 0.10295 0.0
C165 C 0.00168 0.9786 0.09738 0.0
H166 H 0.98475 0.97364 0.09645 0.0
H167 H 0.9443 0.96052 0.11974 0.0
O168 O 0.04389 0.92606 0.18042 0.0
C169 C 0.97198 0.92338 0.16771 0.0
Co170 Co 0.31331 0.77118 0.41577 0.0
Co171 Co 0.28759 0.73488 0.39291 0.0
C172 C 0.27433 0.75016 0.43549 0.0
O173 O 0.29071 0.76211 0.43579 0.0
O174 O 0.26956 0.73926 0.41899 0.0
C175 C 0.30788 0.81231 0.42804 0.0
O176 O 0.28893 0.80658 0.42102 0.0
C177 C 0.25272 0.71793 0.36727 0.0
C178 C 0.26809 0.69157 0.34951 0.0
C179 C 0.2492 0.7031 0.35103 0.0
N180 N 0.27276 0.71545 0.37458 0.0
N181 N 0.28174 0.69937 0.36424 0.0
C182 C 0.23852 0.73599 0.37401 0.0
H183 H 0.24797 0.74874 0.38196 0.0
H184 H 0.22992 0.74279 0.36008 0.0
H185 H 0.22652 0.72993 0.38559 0.0
C186 C 0.30934 0.79128 0.37337 0.0
N187 N 0.30424 0.77569 0.38734 0.0
N188 N 0.29317 0.76076 0.37744 0.0
C189 C 0.29057 0.76676 0.3568 0.0
C190 C 0.30055 0.7863 0.35376 0.0
C191 C 0.32354 0.80994 0.37825 0.0
H192 H 0.31372 0.82311 0.38488 0.0
H193 H 0.33153 0.81605 0.36368 0.0
H194 H 0.33591 0.80537 0.39006 0.0
O195 O 0.33507 0.74876 0.41551 0.0
O196 O 0.31557 0.72184 0.4022 0.0
H197 H 0.28545 0.75931 0.32341 0.0
H198 H 0.26355 0.75322 0.34087 0.0
C199 C 0.28118 0.75316 0.33949 0.0
H200 H 0.28709 0.73656 0.34094 0.0
H201 H 0.29755 0.69454 0.36637 0.0
O202 O 0.32301 0.79874 0.42775 0.0
C203 C 0.33295 0.72921 0.41009 0.0
Co204 Co 0.47663 0.06239 0.67329 0.0
Co205 Co 0.51286 0.03449 0.65255 0.0
C206 C 0.49595 0.02391 0.69537 0.0
O207 O 0.4846 0.0407 0.69507 0.0
O208 O 0.50683 0.01827 0.67918 0.0
C209 C 0.43547 0.05793 0.68675 0.0
O210 O 0.44291 0.03832 0.68633 0.0
C211 C 0.52755 0.99676 0.63033 0.0
C212 C 0.55286 0.00905 0.60906 0.0
C213 C 0.54032 0.99118 0.61303 0.0
N214 N 0.53156 0.01721 0.63555 0.0
N215 N 0.54719 0.0243 0.62323 0.0
C216 C 0.51123 0.98325 0.64151 0.0
H217 H 0.49496 0.9893 0.63789 0.0
H218 H 0.51251 0.96617 0.63692 0.0
H219 H 0.51363 0.98439 0.65901 0.0
C220 C 0.4566 0.05473 0.63082 0.0
N221 N 0.47248 0.05159 0.64514 0.0
N222 N 0.48767 0.04015 0.63616 0.0
C223 C 0.48179 0.03569 0.61582 0.0
C224 C 0.46186 0.04445 0.61195 0.0
C225 C 0.43669 0.06734 0.63499 0.0
H226 H 0.4404 0.08161 0.64481 0.0
H227 H 0.4251 0.05707 0.64356 0.0
H228 H 0.42893 0.07263 0.62002 0.0
O229 O 0.50044 0.08335 0.67312 0.0
O230 O 0.52677 0.06204 0.66148 0.0
H231 H 0.51215 0.03155 0.60055 0.0
H232 H 0.48968 0.02834 0.58295 0.0
C233 C 0.49566 0.0253 0.59937 0.0
H234 H 0.49566 0.00786 0.60202 0.0
H235 H 0.55285 0.04 0.6234 0.0
O236 O 0.44832 0.07326 0.68283 0.0
C237 C 0.52016 0.07997 0.66883 0.0
Co238 Co 0.18439 0.2252 0.92055 0.0
Co239 Co 0.21011 0.26289 0.90015 0.0
C240 C 0.22201 0.24629 0.94274 0.0
O241 O 0.20603 0.23377 0.94213 0.0
O242 O 0.22688 0.2579 0.92678 0.0
C243 C 0.18866 0.18326 0.93223 0.0
O244 O 0.20831 0.18869 0.92712 0.0
C245 C 0.24617 0.28186 0.87772 0.0
C246 C 0.23179 0.30957 0.86129 0.0
C247 C 0.25064 0.29813 0.86334 0.0
N248 N 0.22554 0.28333 0.88352 0.0
N249 N 0.21709 0.30011 0.8739 0.0
C250 C 0.26117 0.2654 0.88646 0.0
H251 H 0.2651 0.26968 0.90323 0.0
H252 H 0.25322 0.24954 0.88685 0.0
H253 H 0.27627 0.2645 0.87726 0.0
C254 C 0.19218 0.20604 0.87768 0.0
N255 N 0.19507 0.22173 0.89227 0.0
N256 N 0.20616 0.23734 0.88354 0.0
C257 C 0.21102 0.23176 0.86319 0.0
C258 C 0.20251 0.21171 0.85894 0.0
C259 C 0.17946 0.1861 0.88145 0.0
H260 H 0.16601 0.18935 0.8925 0.0
H261 H 0.19005 0.17379 0.88844 0.0
H262 H 0.17291 0.17944 0.86644 0.0
O263 O 0.16222 0.24747 0.92031 0.0
O264 O 0.18155 0.27519 0.90868 0.0
H265 H 0.21558 0.26243 0.84857 0.0
H266 H 0.21911 0.24017 0.83065 0.0
C267 C 0.22179 0.24593 0.84722 0.0
H268 H 0.23922 0.246 0.85027 0.0
H269 H 0.2011 0.30466 0.87535 0.0
O270 O 0.17395 0.19723 0.93099 0.0
C271 C 0.16408 0.26726 0.91577 0.0
Co272 Co 0.32785 0.02328 0.05879 0.0
Co273 Co 0.34791 0.98466 0.03439 0.0
C274 C 0.30509 0.00035 0.0228 0.0
O275 O 0.30609 0.01336 0.03829 0.0
O276 O 0.32094 0.98867 0.01789 0.0
C277 C 0.31761 0.06358 0.04862 0.0
O278 O 0.32268 0.05443 0.0304 0.0
C279 C 0.36859 0.96586 0.99795 0.0
C280 C 0.38856 0.9402 0.01159 0.0
C281 C 0.38412 0.95092 0.99269 0.0
N282 N 0.36426 0.96417 0.01889 0.0
N283 N 0.3759 0.94852 0.02694 0.0
C284 C 0.3602 0.98361 0.98424 0.0
H285 H 0.35446 0.99707 0.99425 0.0
H286 H 0.3727 0.98954 0.97315 0.0
H287 H 0.34656 0.97756 0.97465 0.0
C288 C 0.37057 0.04159 0.05083 0.0
N289 N 0.35595 0.02598 0.04799 0.0
N290 N 0.36454 0.01026 0.037 0.0
C291 C 0.38488 0.01577 0.03195 0.0
C292 C 0.3892 0.03582 0.0404 0.0
C293 C 0.36697 0.06142 0.06381 0.0
H294 H 0.35513 0.05843 0.07661 0.0
H295 H 0.36118 0.0743 0.05316 0.0
H296 H 0.38185 0.06725 0.07135 0.0
O297 O 0.32838 0.00241 0.08215 0.0
O298 O 0.33995 0.97388 0.06379 0.0
H299 H 0.39991 0.98522 0.02817 0.0
H300 H 0.41736 0.0076 0.02332 0.0
C301 C 0.40082 0.00148 0.02129 0.0
H302 H 0.39733 0.00063 0.00396 0.0
H303 H 0.37613 0.94437 0.04309 0.0
O304 O 0.31777 0.05239 0.06563 0.0
C305 C 0.33307 0.98257 0.08104 0.0
Co306 Co 0.23074 0.08538 0.31345 0.0
Co307 Co 0.2703 0.10476 0.28941 0.0
C308 C 0.251 0.06292 0.27629 0.0
O309 O 0.23786 0.06376 0.29173 0.0
O310 O 0.26398 0.07817 0.27254 0.0
C311 C 0.19489 0.05881 0.32405 0.0
O312 O 0.20744 0.04316 0.31785 0.0
C313 C 0.28771 0.12818 0.25349 0.0
C314 C 0.3163 0.14385 0.26704 0.0
C315 C 0.30359 0.14308 0.24885 0.0
N316 N 0.29076 0.12092 0.27347 0.0
N317 N 0.30813 0.12998 0.28136 0.0
C318 C 0.26829 0.12282 0.24052 0.0
H319 H 0.25578 0.1154 0.25066 0.0
H320 H 0.26174 0.13733 0.23273 0.0
H321 H 0.27275 0.11119 0.2279 0.0
C322 C 0.2123 0.12711 0.30244 0.0
N323 N 0.22849 0.11297 0.30173 0.0
N324 N 0.24545 0.12214 0.29339 0.0
C325 C 0.24072 0.14284 0.28931 0.0
C326 C 0.21953 0.14653 0.29474 0.0
C327 C 0.1901 0.12174 0.30952 0.0
H328 H 0.18998 0.11954 0.32712 0.0
H329 H 0.18505 0.10658 0.30186 0.0
H330 H 0.17849 0.13438 0.30516 0.0
O331 O 0.25322 0.08499 0.33566 0.0
O332 O 0.28219 0.09595 0.31784 0.0
H333 H 0.27262 0.15568 0.28907 0.0
H334 H 0.25172 0.17551 0.28874 0.0
C335 C 0.25657 0.15953 0.28273 0.0
H336 H 0.25724 0.16038 0.26506 0.0
H337 H 0.31366 0.12769 0.29691 0.0
O338 O 0.20238 0.07766 0.32513 0.0
C339 C 0.27322 0.08893 0.33481 0.0
Co340 Co 0.17092 0.97289 0.56581 0.0
Co341 Co 0.1495 0.0103 0.54018 0.0
C342 C 0.1927 0.99592 0.52887 0.0
O343 O 0.19256 0.98368 0.54503 0.0
O344 O 0.17618 0.00639 0.52353 0.0
C345 C 0.18709 0.9334 0.55702 0.0
O346 O 0.18635 0.94279 0.53829 0.0
C347 C 0.12914 0.03003 0.50359 0.0
C348 C 0.103 0.04866 0.51817 0.0
C349 C 0.11054 0.0411 0.49873 0.0
N350 N 0.13182 0.03009 0.5249 0.0
N351 N 0.11655 0.04189 0.5335 0.0
C352 C 0.14358 0.01837 0.48844 0.0
H353 H 0.14306 0.00098 0.49189 0.0
H354 H 0.13927 0.02134 0.47151 0.0
H355 H 0.16023 0.02393 0.49087 0.0
C356 C 0.1288 0.95313 0.5582 0.0
N357 N 0.14301 0.969 0.55482 0.0
N358 N 0.13393 0.98409 0.54341 0.0
C359 C 0.11376 0.97782 0.53861 0.0
C360 C 0.10987 0.95799 0.54785 0.0
C361 C 0.13221 0.93496 0.57331 0.0
H362 H 0.14401 0.93929 0.58578 0.0
H363 H 0.13803 0.92103 0.56406 0.0
H364 H 0.117 0.93032 0.58119 0.0
O365 O 0.1698 0.99443 0.58872 0.0
O366 O 0.158 0.02201 0.56917 0.0
H367 H 0.09349 0.00487 0.53393 0.0
H368 H 0.08411 0.98085 0.5209 0.0
C369 C 0.09848 0.9903 0.52519 0.0
H370 H 0.10652 0.99494 0.51022 0.0
H371 H 0.11436 0.04384 0.54992 0.0
O372 O 0.1814 0.94382 0.57359 0.0
C373 C 0.1651 0.0142 0.58672 0.0
Co374 Co 0.27186 0.91533 0.81308 0.0
Co375 Co 0.23607 0.89612 0.78303 0.0
C376 C 0.25553 0.93846 0.77401 0.0
O377 O 0.26661 0.93716 0.7909 0.0
O378 O 0.24338 0.92331 0.76801 0.0
C379 C 0.31317 0.93146 0.81446 0.0
O380 O 0.30782 0.93476 0.79445 0.0
C381 C 0.22359 0.87384 0.74437 0.0
C382 C 0.19569 0.85481 0.75458 0.0
C383 C 0.21003 0.85747 0.73785 0.0
N384 N 0.21815 0.87979 0.7643 0.0
N385 N 0.20109 0.86876 0.77012 0.0
C386 C 0.24184 0.88352 0.73223 0.0
H387 H 0.25718 0.87719 0.73845 0.0
H388 H 0.24059 0.88015 0.71487 0.0
H389 H 0.24197 0.90106 0.73455 0.0
C390 C 0.29134 0.873 0.80493 0.0
N391 N 0.27568 0.88751 0.80177 0.0
N392 N 0.26052 0.87891 0.79 0.0
C393 C 0.26598 0.8584 0.78574 0.0
C394 C 0.28575 0.85416 0.79476 0.0
C395 C 0.31157 0.87734 0.81693 0.0
H396 H 0.3077 0.88402 0.83288 0.0
H397 H 0.32116 0.88916 0.8079 0.0
H398 H 0.32151 0.86286 0.81896 0.0
O399 O 0.24629 0.9161 0.83206 0.0
O400 O 0.2207 0.905 0.8096 0.0
H401 H 0.23498 0.84468 0.78045 0.0
H402 H 0.25653 0.82567 0.78003 0.0
C403 C 0.25175 0.84213 0.77547 0.0
H404 H 0.25307 0.84344 0.7579 0.0
H405 H 0.19403 0.86973 0.78521 0.0
O406 O 0.29929 0.92366 0.82717 0.0
C407 C 0.22664 0.91239 0.82773 0.0
Co408 Co 0.3295 0.97939 0.43805 0.0
Co409 Co 0.35211 0.01457 0.46548 0.0
C410 C 0.30927 0.99921 0.47749 0.0
O411 O 0.30912 0.98782 0.46068 0.0
O412 O 0.32571 0.00995 0.48279 0.0
C413 C 0.31673 0.93819 0.44199 0.0
O414 O 0.3228 0.94347 0.46139 0.0
C415 C 0.37458 0.03351 0.50185 0.0
C416 C 0.39608 0.05685 0.48633 0.0
C417 C 0.39102 0.04789 0.50594 0.0
N418 N 0.3705 0.03363 0.48076 0.0
N419 N 0.38318 0.04784 0.4716 0.0
C420 C 0.36227 0.02033 0.51761 0.0
H421 H 0.34532 0.02551 0.51739 0.0
H422 H 0.36256 0.00328 0.51274 0.0
H423 H 0.36839 0.02213 0.53413 0.0
C424 C 0.37089 0.95772 0.44437 0.0
N425 N 0.35753 0.97419 0.44803 0.0
N426 N 0.36712 0.98835 0.46029 0.0
C427 C 0.38682 0.98089 0.46529 0.0
C428 C 0.38966 0.96111 0.45551 0.0
C429 C 0.36698 0.9402 0.4285 0.0
H430 H 0.35583 0.94557 0.41585 0.0
H431 H 0.36016 0.92615 0.43684 0.0
H432 H 0.38222 0.93509 0.42097 0.0
O433 O 0.33036 0.00232 0.41686 0.0
O434 O 0.34353 0.0284 0.43748 0.0
H435 H 0.40594 0.00833 0.47251 0.0
H436 H 0.41773 0.98333 0.48085 0.0
C437 C 0.40255 0.9923 0.47925 0.0
H438 H 0.39561 0.99441 0.49539 0.0
H439 H 0.38355 0.05084 0.4552 0.0
O440 O 0.31768 0.95216 0.42725 0.0
C441 C 0.33589 0.02172 0.41971 0.0
Co442 Co 0.27227 0.07936 0.68985 0.0
Co443 Co 0.2335 0.09934 0.71499 0.0
C444 C 0.25133 0.05667 0.72689 0.0
O445 O 0.26482 0.05805 0.71177 0.0
O446 O 0.23837 0.0719 0.73081 0.0
C447 C 0.30841 0.05229 0.68047 0.0
O448 O 0.29593 0.03666 0.68683 0.0
C449 C 0.21388 0.12128 0.75133 0.0
C450 C 0.18837 0.14021 0.73599 0.0
C451 C 0.19864 0.13694 0.75535 0.0
N452 N 0.21307 0.11609 0.73048 0.0
N453 N 0.19752 0.12718 0.72148 0.0
C454 C 0.22882 0.11099 0.76694 0.0
H455 H 0.2278 0.09338 0.76525 0.0
H456 H 0.24552 0.11566 0.76327 0.0
H457 H 0.22489 0.11535 0.78368 0.0
C458 C 0.29172 0.1206 0.70047 0.0
N459 N 0.27519 0.10689 0.70155 0.0
N460 N 0.25913 0.11601 0.71161 0.0
C461 C 0.26503 0.13621 0.7169 0.0
C462 C 0.28601 0.13951 0.7103 0.0
C463 C 0.31219 0.11617 0.68894 0.0
H464 H 0.30864 0.10971 0.67282 0.0
H465 H 0.32135 0.1041 0.6981 0.0
H466 H 0.32213 0.13073 0.68706 0.0
O467 O 0.24961 0.07904 0.66784 0.0
O468 O 0.22148 0.09096 0.6864 0.0
H469 H 0.23478 0.1519 0.72043 0.0
H470 H 0.25752 0.16865 0.72642 0.0
C471 C 0.25093 0.15225 0.72767 0.0
H472 H 0.24959 0.1483 0.74485 0.0
H473 H 0.19382 0.12658 0.70522 0.0
O474 O 0.30068 0.07096 0.67862 0.0
C475 C 0.22975 0.08349 0.66925 0.0
Co476 Co 0.16532 0.0152 0.93606 0.0
Co477 Co 0.14546 0.97973 0.96524 0.0
C478 C 0.18638 0.99877 0.97682 0.0
O479 O 0.18579 0.00901 0.95933 0.0
O480 O 0.17062 0.98754 0.98299 0.0
C481 C 0.1751 0.05714 0.93981 0.0
O482 O 0.16813 0.05168 0.95886 0.0
C483 C 0.12322 0.96041 0.00159 0.0
C484 C 0.10341 0.93567 0.986 0.0
C485 C 0.10704 0.94566 0.00546 0.0
N486 N 0.1283 0.95967 0.98072 0.0
N487 N 0.11673 0.94452 0.97158 0.0
C488 C 0.13417 0.97473 0.01739 0.0
H489 H 0.13033 0.99166 0.01382 0.0
H490 H 0.12966 0.97089 0.03408 0.0
H491 H 0.15171 0.97282 0.01584 0.0
C492 C 0.12165 0.03333 0.94056 0.0
N493 N 0.13648 0.01832 0.94505 0.0
N494 N 0.12818 0.00405 0.95806 0.0
C495 C 0.1079 0.00998 0.96275 0.0
C496 C 0.10316 0.02877 0.9519 0.0
C497 C 0.12532 0.05202 0.92606 0.0
H498 H 0.13758 0.04814 0.9139 0.0
H499 H 0.13068 0.06589 0.93571 0.0
H500 H 0.1105 0.05681 0.91771 0.0
O501 O 0.16779 0.99104 0.9161 0.0
O502 O 0.15732 0.96548 0.93877 0.0
H503 H 0.07634 0.00405 0.97578 0.0
H504 H 0.09839 0.99769 0.99317 0.0
C505 C 0.09278 0.99744 0.97639 0.0
H506 H 0.09225 0.98066 0.97079 0.0
H507 H 0.11716 0.94097 0.95528 0.0
O508 O 0.17574 0.04304 0.92513 0.0
C509 C 0.16498 0.97137 0.92074 0.0
Co510 Co 0.22492 0.92737 0.18399 0.0
Co511 Co 0.25925 0.90372 0.21154 0.0
C512 C 0.24544 0.94717 0.22328 0.0
O513 O 0.23397 0.94776 0.20655 0.0
O514 O 0.25556 0.93036 0.22851 0.0
C515 C 0.18403 0.93959 0.1888 0.0
O516 O 0.19012 0.9337 0.208 0.0
C517 C 0.27628 0.88099 0.24831 0.0
C518 C 0.29635 0.85609 0.23339 0.0
C519 C 0.28782 0.86259 0.25279 0.0
N520 N 0.27728 0.8847 0.22719 0.0
N521 N 0.28976 0.87008 0.21841 0.0
C522 C 0.26412 0.89482 0.26365 0.0
H523 H 0.24692 0.8949 0.25932 0.0
H524 H 0.26615 0.88957 0.28044 0.0
H525 H 0.27001 0.91148 0.26233 0.0
C526 C 0.20251 0.88625 0.1893 0.0
N527 N 0.21901 0.8994 0.19369 0.0
N528 N 0.23256 0.88959 0.20638 0.0
C529 C 0.22453 0.87005 0.21113 0.0
C530 C 0.20514 0.86747 0.20057 0.0
C531 C 0.18614 0.89012 0.17228 0.0
H532 H 0.19217 0.90164 0.16026 0.0
H533 H 0.17134 0.89641 0.17968 0.0
H534 H 0.18195 0.87492 0.16411 0.0
O535 O 0.24785 0.92582 0.16287 0.0
O536 O 0.27336 0.91157 0.18349 0.0
H537 H 0.25046 0.84919 0.21877 0.0
H538 H 0.22484 0.83996 0.22837 0.0
C539 C 0.23496 0.85425 0.22569 0.0
H540 H 0.23792 0.86187 0.24134 0.0
H541 H 0.29266 0.86886 0.20203 0.0
O542 O 0.19759 0.93927 0.17363 0.0
C543 C 0.267 0.91947 0.16572 0.0
Co544 Co 0.05817 0.32745 0.02017 0.0
Co545 Co 0.03287 0.34975 0.98314 0.0
C546 C 0.02142 0.30613 0.99703 0.0
O547 O 0.03723 0.30628 0.00969 0.0
O548 O 0.01641 0.32264 0.98636 0.0
C549 C 0.04884 0.31505 0.05994 0.0
O550 O 0.03046 0.32016 0.05116 0.0
C551 C 0.9959 0.37202 0.96669 0.0
C552 C 0.00967 0.39567 0.94449 0.0
C553 C 0.99087 0.39015 0.95492 0.0
N554 N 0.0168 0.36772 0.9642 0.0
N555 N 0.02484 0.38152 0.95037 0.0
C556 C 0.98135 0.35913 0.98071 0.0
H557 H 0.98287 0.342 0.97652 0.0
H558 H 0.9862 0.36103 0.99766 0.0
H559 H 0.96436 0.36369 0.97866 0.0
C560 C 0.05076 0.36921 0.04106 0.0
N561 N 0.04765 0.35545 0.02469 0.0
N562 N 0.03646 0.36491 0.00965 0.0
C563 C 0.03167 0.38493 0.01637 0.0
C564 C 0.04034 0.38813 0.0365 0.0
C565 C 0.06404 0.36464 0.06045 0.0
H566 H 0.07698 0.35321 0.05656 0.0
H567 H 0.05366 0.35786 0.07308 0.0
H568 H 0.07135 0.37934 0.06704 0.0
O569 O 0.08087 0.32875 0.99853 0.0
O570 O 0.06189 0.3418 0.97105 0.0
H571 H 0.02848 0.40233 0.98715 0.0
H572 H 0.0223 0.41774 0.01061 0.0
C573 C 0.021 0.4017 0.00315 0.0
H574 H 0.00389 0.39768 0.00151 0.0
H575 H 0.04098 0.3823 0.94621 0.0
O576 O 0.06574 0.31599 0.04859 0.0
C577 C 0.07925 0.33426 0.97893 0.0
Co578 Co 0.56231 0.16821 0.97759 0.0
Co579 Co 0.53007 0.1516 0.01183 0.0
C580 C 0.52368 0.19378 0.99338 0.0
O581 O 0.54125 0.19084 0.98368 0.0
O582 O 0.51501 0.17877 0.00407 0.0
C583 C 0.56076 0.17813 0.93583 0.0
O584 O 0.541 0.17306 0.94085 0.0
C585 C 0.49291 0.13021 0.03074 0.0
C586 C 0.50786 0.11261 0.05744 0.0
C587 C 0.48881 0.115 0.0464 0.0
N588 N 0.51359 0.1359 0.03205 0.0
N589 N 0.52231 0.12569 0.04833 0.0
C590 C 0.47751 0.13969 0.01506 0.0
H591 H 0.47966 0.15728 0.01461 0.0
H592 H 0.48091 0.13358 0.99879 0.0
H593 H 0.46071 0.136 0.01941 0.0
C594 C 0.55513 0.12509 0.95963 0.0
N595 N 0.55067 0.14053 0.97404 0.0
N596 N 0.53664 0.13334 0.98795 0.0
C597 C 0.53152 0.11299 0.98253 0.0
C598 C 0.54291 0.10724 0.96434 0.0
C599 C 0.57078 0.12747 0.94165 0.0
H600 H 0.58388 0.13845 0.94629 0.0
H601 H 0.56236 0.13402 0.92751 0.0
H602 H 0.57782 0.112 0.93685 0.0
O603 O 0.58179 0.16838 0.00209 0.0
O604 O 0.55701 0.16066 0.02659 0.0
H605 H 0.51951 0.08146 0.99025 0.0
H606 H 0.50086 0.10297 0.99386 0.0
C607 C 0.51783 0.09831 0.99554 0.0
H608 H 0.52245 0.09932 0.01258 0.0
H609 H 0.53842 0.12679 0.05252 0.0
O610 O 0.57506 0.17749 0.95026 0.0
C611 C 0.576 0.16619 0.02152 0.0
Co612 Co 0.07727 0.30414 0.22467 0.0
Co613 Co 0.09953 0.28043 0.2626 0.0
C614 C 0.06025 0.26305 0.24401 0.0
O615 O 0.05978 0.2793 0.23198 0.0
O616 O 0.0759 0.25969 0.25652 0.0
C617 C 0.07208 0.29498 0.1832 0.0
O618 O 0.08066 0.27776 0.19158 0.0
C619 C 0.12478 0.24778 0.28334 0.0
C620 C 0.14152 0.26532 0.30903 0.0
C621 C 0.14007 0.24554 0.29918 0.0
N622 N 0.11772 0.26802 0.28356 0.0
N623 N 0.12754 0.2784 0.29914 0.0
C624 C 0.11659 0.23099 0.26832 0.0
H625 H 0.10114 0.22488 0.27454 0.0
H626 H 0.11347 0.23805 0.25236 0.0
H627 H 0.12774 0.21732 0.26685 0.0
C628 C 0.121 0.30483 0.20831 0.0
N629 N 0.10684 0.29917 0.22345 0.0
N630 N 0.11637 0.28742 0.23796 0.0
C631 C 0.13698 0.28451 0.23188 0.0
C632 C 0.14039 0.29527 0.21269 0.0
C633 C 0.11674 0.32074 0.19095 0.0
H634 H 0.10329 0.33139 0.19541 0.0
H635 H 0.11281 0.31227 0.17591 0.0
H636 H 0.13122 0.33055 0.18792 0.0
O637 O 0.07077 0.32461 0.24712 0.0
O638 O 0.08532 0.30697 0.27465 0.0
H639 H 0.15408 0.27673 0.26045 0.0
H640 H 0.16889 0.2716 0.2362 0.0
C641 C 0.15285 0.2711 0.24369 0.0
H642 H 0.14733 0.2543 0.24379 0.0
H643 H 0.12533 0.29459 0.30247 0.0
O644 O 0.06781 0.3108 0.19531 0.0
C645 C 0.0747 0.32271 0.26704 0.0
Co646 Co 0.93485 0.8304 0.4765 0.0
Co647 Co 0.96509 0.84491 0.51381 0.0
C648 C 0.96817 0.80118 0.49662 0.0
O649 O 0.95206 0.80532 0.48502 0.0
O650 O 0.97693 0.8157 0.5079 0.0
C651 C 0.93699 0.81442 0.43574 0.0
O652 O 0.95626 0.81081 0.4432 0.0
C653 C 0.00468 0.86142 0.53201 0.0
C654 C 0.99309 0.88185 0.55836 0.0
C655 C 0.0114 0.87639 0.54706 0.0
N656 N 0.98345 0.85867 0.53408 0.0
N657 N 0.9767 0.8705 0.55022 0.0
C658 C 0.01738 0.8521 0.51396 0.0
H659 H 0.00663 0.84637 0.50106 0.0
H660 H 0.0287 0.86406 0.50737 0.0
H661 H 0.02674 0.83832 0.52 0.0
C662 C 0.94817 0.87144 0.45872 0.0
N663 N 0.95035 0.85599 0.47351 0.0
N664 N 0.96298 0.86274 0.4889 0.0
C665 C 0.96935 0.88291 0.48416 0.0
C666 C 0.96028 0.88893 0.46476 0.0
C667 C 0.93229 0.8707 0.44084 0.0
H668 H 0.91763 0.8622 0.44599 0.0
H669 H 0.93954 0.86207 0.42717 0.0
H670 H 0.92773 0.88695 0.43544 0.0
O671 O 0.91348 0.83417 0.49917 0.0
O672 O 0.93568 0.84063 0.52648 0.0
H673 H 0.97611 0.89721 0.51454 0.0
H674 H 0.98477 0.91307 0.49202 0.0
C675 C 0.98303 0.8966 0.49825 0.0
H676 H 0.99922 0.88964 0.49914 0.0
H677 H 0.96071 0.87189 0.55475 0.0
O678 O 0.92309 0.82298 0.44788 0.0
C679 C 0.9169 0.83719 0.51906 0.0
Co680 Co 0.92166 0.17487 0.22241 0.0
Co681 Co 0.89966 0.20344 0.25754 0.0
C682 C 0.9431 0.21352 0.24204 0.0
O683 O 0.94282 0.19679 0.2306 0.0
O684 O 0.92674 0.21932 0.2526 0.0
C685 C 0.93303 0.17988 0.18131 0.0
O686 O 0.92715 0.19895 0.18789 0.0
C687 C 0.87724 0.24145 0.27231 0.0
C688 C 0.85596 0.229 0.29755 0.0
C689 C 0.86036 0.24714 0.2856 0.0
N690 N 0.88195 0.22075 0.27565 0.0
N691 N 0.86951 0.21351 0.29111 0.0
C692 C 0.88888 0.25528 0.25659 0.0
H693 H 0.90633 0.25321 0.25864 0.0
H694 H 0.88477 0.25027 0.24008 0.0
H695 H 0.8851 0.27244 0.25884 0.0
C696 C 0.87929 0.1794 0.20252 0.0
N697 N 0.89355 0.18484 0.21775 0.0
N698 N 0.88428 0.19743 0.23182 0.0
C699 C 0.86388 0.20088 0.22552 0.0
C700 C 0.86019 0.18962 0.20678 0.0
C701 C 0.8836 0.16395 0.1847 0.0
H702 H 0.89522 0.15165 0.18986 0.0
H703 H 0.89015 0.1728 0.17085 0.0
H704 H 0.86886 0.15584 0.17924 0.0
O705 O 0.9206 0.15432 0.24605 0.0
O706 O 0.90756 0.17565 0.2718 0.0
H707 H 0.84723 0.20667 0.25484 0.0
H708 H 0.83112 0.21053 0.23136 0.0
C709 C 0.84735 0.21264 0.2382 0.0
H710 H 0.8512 0.22991 0.2383 0.0
H711 H 0.86945 0.19772 0.29644 0.0
O712 O 0.93278 0.16444 0.19457 0.0
C713 C 0.91504 0.15767 0.26543 0.0
Co714 Co 0.43419 0.66862 0.51914 0.0
Co715 Co 0.46067 0.64699 0.4826 0.0
C716 C 0.47311 0.68944 0.49911 0.0
O717 O 0.45659 0.68928 0.51089 0.0
O718 O 0.47822 0.67323 0.48792 0.0
C719 C 0.43847 0.67999 0.56076 0.0
O720 O 0.45777 0.67381 0.55524 0.0
C721 C 0.49597 0.62202 0.46522 0.0
C722 C 0.48108 0.60574 0.43765 0.0
C723 C 0.49978 0.60663 0.44957 0.0
N724 N 0.47595 0.62944 0.46278 0.0
N725 N 0.46728 0.61998 0.44601 0.0
C726 C 0.50989 0.62795 0.48379 0.0
H727 H 0.50026 0.63545 0.49666 0.0
H728 H 0.51827 0.61369 0.49016 0.0
H729 H 0.52206 0.63967 0.47841 0.0
C730 C 0.43847 0.62574 0.53819 0.0
N731 N 0.44367 0.64019 0.52307 0.0
N732 N 0.45495 0.63078 0.50799 0.0
C733 C 0.45753 0.60998 0.51338 0.0
C734 C 0.44737 0.6063 0.53271 0.0
C735 C 0.42399 0.62999 0.55679 0.0
H736 H 0.43354 0.63661 0.57015 0.0
H737 H 0.41625 0.61516 0.56261 0.0
H738 H 0.41142 0.6416 0.55229 0.0
O739 O 0.41272 0.6685 0.49641 0.0
O740 O 0.43272 0.65614 0.46944 0.0
H741 H 0.46244 0.57685 0.50473 0.0
H742 H 0.4846 0.59431 0.49967 0.0
C743 C 0.46696 0.59311 0.49927 0.0
H744 H 0.46135 0.59525 0.48263 0.0
H745 H 0.45157 0.62241 0.44097 0.0
O746 O 0.42368 0.67963 0.54682 0.0
C747 C 0.41513 0.66357 0.47677 0.0
Co748 Co 0.08113 0.68723 0.26671 0.0
Co749 Co 0.10014 0.71823 0.23242 0.0
C750 C 0.05753 0.72613 0.24875 0.0
O751 O 0.05936 0.7086 0.25872 0.0
O752 O 0.07323 0.73427 0.2387 0.0
C753 C 0.07284 0.69403 0.30801 0.0
O754 O 0.07804 0.71272 0.29998 0.0
C755 C 0.12294 0.75449 0.21363 0.0
C756 C 0.1418 0.73874 0.18827 0.0
C757 C 0.13897 0.75817 0.1986 0.0
N758 N 0.11706 0.73385 0.2124 0.0
N759 N 0.12804 0.72464 0.1969 0.0
C760 C 0.11497 0.7694 0.23059 0.0
H761 H 0.10729 0.76033 0.24375 0.0
H762 H 0.12821 0.77926 0.23708 0.0
H763 H 0.10289 0.78027 0.22352 0.0
C764 C 0.12357 0.69287 0.28538 0.0
N765 N 0.10913 0.69768 0.27021 0.0
N766 N 0.1172 0.71193 0.25709 0.0
C767 C 0.13713 0.71703 0.26402 0.0
C768 C 0.14152 0.70531 0.28239 0.0
C769 C 0.12138 0.67497 0.3011 0.0
H770 H 0.10957 0.66302 0.29543 0.0
H771 H 0.11626 0.68142 0.31676 0.0
H772 H 0.13705 0.667 0.30352 0.0
O773 O 0.0808 0.66668 0.24303 0.0
O774 O 0.09042 0.6908 0.21842 0.0
H775 H 0.15315 0.72887 0.23621 0.0
H776 H 0.16794 0.73255 0.26068 0.0
C777 C 0.15177 0.73268 0.25344 0.0
H778 H 0.14512 0.74895 0.25525 0.0
H779 H 0.12703 0.70844 0.19305 0.0
O780 O 0.07176 0.6779 0.29557 0.0
C781 C 0.08391 0.67209 0.22358 0.0
Co782 Co 0.41189 0.316 0.77213 0.0
Co783 Co 0.39303 0.28929 0.73427 0.0
C784 C 0.43561 0.27874 0.75343 0.0
O785 O 0.4343 0.29484 0.76574 0.0
O786 O 0.42028 0.27363 0.74101 0.0
C787 C 0.43819 0.32822 0.80747 0.0
O788 O 0.45394 0.32165 0.79522 0.0
C789 C 0.36995 0.25224 0.71885 0.0
C790 C 0.35476 0.26398 0.68926 0.0
C791 C 0.35524 0.2466 0.70307 0.0
N792 N 0.37723 0.27202 0.7147 0.0
N793 N 0.36847 0.2788 0.69675 0.0
C794 C 0.37536 0.24046 0.73898 0.0
H795 H 0.38316 0.25124 0.75069 0.0
H796 H 0.36082 0.23336 0.74625 0.0
H797 H 0.38672 0.2274 0.73516 0.0
C798 C 0.37086 0.30395 0.79197 0.0
N799 N 0.38474 0.3033 0.77551 0.0
N800 N 0.37562 0.29395 0.75906 0.0
C801 C 0.35514 0.28928 0.76432 0.0
C802 C 0.3516 0.29521 0.78543 0.0
C803 C 0.37638 0.31189 0.81383 0.0
H804 H 0.37746 0.32958 0.81348 0.0
H805 H 0.39212 0.30533 0.81862 0.0
H806 H 0.36434 0.30702 0.8259 0.0
O807 O 0.41143 0.33709 0.74858 0.0
O808 O 0.40102 0.31719 0.72081 0.0
H809 H 0.34215 0.28723 0.73252 0.0
H810 H 0.32245 0.28823 0.75355 0.0
C811 C 0.33836 0.28186 0.74895 0.0
H812 H 0.33731 0.2642 0.74932 0.0
H813 H 0.37088 0.294 0.69032 0.0
O814 O 0.41945 0.32926 0.79975 0.0
C815 C 0.40757 0.33488 0.72867 0.0
Co816 Co 0.52413 0.55847 0.82663 0.0
Co817 Co 0.48655 0.53397 0.84858 0.0
C818 C 0.50145 0.52086 0.80588 0.0
O819 O 0.51411 0.53672 0.80595 0.0
O820 O 0.49019 0.51631 0.8222 0.0
C821 C 0.56507 0.55012 0.8158 0.0
O822 O 0.55698 0.5313 0.82047 0.0
C823 C 0.46505 0.49955 0.87159 0.0
C824 C 0.44332 0.5172 0.89312 0.0
C825 C 0.45098 0.49692 0.88857 0.0
N826 N 0.46613 0.52046 0.86681 0.0
N827 N 0.45279 0.53088 0.87945 0.0
C828 C 0.47715 0.48262 0.85971 0.0
H829 H 0.47307 0.4836 0.84249 0.0
H830 H 0.49458 0.48558 0.86111 0.0
H831 H 0.47322 0.46633 0.86544 0.0
C832 C 0.54408 0.55148 0.86861 0.0
N833 N 0.52785 0.5484 0.8548 0.0
N834 N 0.51273 0.53721 0.86417 0.0
C835 C 0.51929 0.53229 0.88422 0.0
C836 C 0.5395 0.541 0.88746 0.0
C837 C 0.56235 0.56659 0.86512 0.0
H838 H 0.5579 0.57927 0.85361 0.0
H839 H 0.57632 0.55759 0.859 0.0
H840 H 0.56717 0.57421 0.88042 0.0
O841 O 0.50309 0.5816 0.82706 0.0
O842 O 0.4753 0.56302 0.83975 0.0
H843 H 0.49104 0.52769 0.90293 0.0
H844 H 0.51509 0.51779 0.91543 0.0
C845 C 0.50655 0.51966 0.90003 0.0
H846 H 0.5034 0.50354 0.89348 0.0
H847 H 0.45093 0.54745 0.87945 0.0
O848 O 0.55283 0.56637 0.81612 0.0
C849 C 0.48341 0.58024 0.83223 0.0
Co850 Co 0.68139 0.27025 0.08174 0.0
Co851 Co 0.7144 0.2357 0.09606 0.0
C852 C 0.71973 0.25655 0.05473 0.0
O853 O 0.7022 0.26595 0.05852 0.0
O854 O 0.72854 0.24503 0.06895 0.0
C855 C 0.68638 0.31202 0.07788 0.0
O856 O 0.7053 0.30405 0.08223 0.0
C857 C 0.75342 0.21875 0.1143 0.0
C858 C 0.74145 0.19277 0.13495 0.0
C859 C 0.75956 0.20473 0.13037 0.0
N860 N 0.7325 0.2159 0.1104 0.0
N861 N 0.72555 0.19992 0.12233 0.0
C862 C 0.7669 0.23491 0.10286 0.0
H863 H 0.76372 0.23399 0.08547 0.0
H864 H 0.76256 0.25122 0.10829 0.0
H865 H 0.7842 0.23207 0.10548 0.0
C866 C 0.68622 0.28358 0.12631 0.0
N867 N 0.69229 0.27126 0.10972 0.0
N868 N 0.70756 0.25822 0.11577 0.0
C869 C 0.71224 0.26251 0.13651 0.0
C870 C 0.69883 0.27869 0.14376 0.0
C871 C 0.66842 0.29959 0.12543 0.0
H872 H 0.67519 0.31562 0.12209 0.0
H873 H 0.65975 0.30065 0.14079 0.0
H874 H 0.65681 0.29528 0.11277 0.0
O875 O 0.6622 0.24557 0.07973 0.0
O876 O 0.68727 0.22102 0.08692 0.0
H877 H 0.72312 0.2332 0.15011 0.0
H878 H 0.72827 0.25622 0.16655 0.0
C879 C 0.72779 0.25026 0.14985 0.0
H880 H 0.74396 0.25167 0.14282 0.0
H881 H 0.70963 0.19495 0.12299 0.0
O882 O 0.67057 0.29933 0.07558 0.0
C883 C 0.66823 0.22612 0.08142 0.0
Co884 Co 0.9789 0.43495 0.33084 0.0
Co885 Co 0.01902 0.45974 0.34788 0.0
C886 C 0.00097 0.4674 0.3039 0.0
O887 O 0.98679 0.45323 0.30695 0.0
O888 O 0.01412 0.47273 0.31859 0.0
C889 C 0.94266 0.42218 0.30586 0.0
O890 O 0.95467 0.42745 0.28947 0.0
C891 C 0.03724 0.49681 0.36911 0.0
C892 C 0.06545 0.48333 0.38544 0.0
C893 C 0.05306 0.50165 0.38396 0.0
N894 N 0.03975 0.47643 0.36281 0.0
N895 N 0.0569 0.46857 0.37228 0.0
C896 C 0.01984 0.51106 0.36095 0.0
H897 H 0.01616 0.50707 0.34407 0.0
H898 H 0.00506 0.5085 0.37037 0.0
H899 H 0.02457 0.52813 0.36215 0.0
C900 C 0.96029 0.45112 0.37061 0.0
N901 N 0.9766 0.45008 0.35664 0.0
N902 N 0.99377 0.45861 0.36523 0.0
C903 C 0.98906 0.46431 0.38559 0.0
C904 C 0.96763 0.45996 0.38949 0.0
C905 C 0.93799 0.44393 0.36581 0.0
H906 H 0.93737 0.42622 0.36633 0.0
H907 H 0.93341 0.44935 0.34957 0.0
H908 H 0.92632 0.45049 0.37744 0.0
O909 O 0.00114 0.41279 0.33246 0.0
O910 O 0.03034 0.43033 0.34287 0.0
H911 H 0.02099 0.46356 0.39838 0.0
H912 H 1.00012 0.46502 0.41822 0.0
C913 C 0.00518 0.47056 0.40214 0.0
H914 H 0.00651 0.48819 0.40277 0.0
H915 H 0.06205 0.45279 0.3707 0.0
O916 O 0.95065 0.42247 0.3245 0.0
C917 C 0.02111 0.41322 0.33661 0.0
Co918 Co 0.81304 0.73215 0.58158 0.0
Co919 Co 0.78684 0.76921 0.60253 0.0
C920 C 0.7745 0.75194 0.56028 0.0
O921 O 0.79089 0.74004 0.56065 0.0
O922 O 0.76959 0.76353 0.57623 0.0
C923 C 0.80823 0.6909 0.56941 0.0
O924 O 0.78891 0.69676 0.57521 0.0
C925 C 0.75041 0.78519 0.62623 0.0
C926 C 0.76313 0.81383 0.64249 0.0
C927 C 0.74516 0.8008 0.64124 0.0
N928 N 0.77049 0.78871 0.61941 0.0
N929 N 0.77788 0.80609 0.62885 0.0
C930 C 0.73784 0.76573 0.62008 0.0
H931 H 0.74841 0.75347 0.61285 0.0
H932 H 0.72959 0.75881 0.63417 0.0
H933 H 0.72563 0.77024 0.60805 0.0
C934 C 0.8067 0.7128 0.62435 0.0
N935 N 0.80306 0.72842 0.60994 0.0
N936 N 0.79226 0.74397 0.61912 0.0
C937 C 0.78861 0.73853 0.63974 0.0
C938 C 0.79736 0.71856 0.64356 0.0
C939 C 0.81917 0.69284 0.61993 0.0
H940 H 0.80839 0.68077 0.61273 0.0
H941 H 0.82586 0.68577 0.63467 0.0
H942 H 0.83249 0.69625 0.60877 0.0
O943 O 0.83452 0.75506 0.58156 0.0
O944 O 0.81486 0.78247 0.59354 0.0
H945 H 0.78436 0.74794 0.67269 0.0
H946 H 0.76161 0.752 0.65582 0.0
C947 C 0.77927 0.75292 0.65644 0.0
H948 H 0.78446 0.76961 0.65378 0.0
H949 H 0.79335 0.81201 0.62681 0.0
O950 O 0.8234 0.70441 0.57057 0.0
C951 C 0.83237 0.77481 0.58621 0.0
Co952 Co 0.51977 0.43062 0.66762 0.0
Co953 Co 0.48573 0.45976 0.64561 0.0
C954 C 0.50097 0.47013 0.68886 0.0
O955 O 0.51177 0.45296 0.68876 0.0
O956 O 0.49076 0.47618 0.67238 0.0
C957 C 0.56064 0.43503 0.67895 0.0
O958 O 0.55417 0.45426 0.67354 0.0
C959 C 0.46908 0.49753 0.62427 0.0
C960 C 0.44874 0.48375 0.59892 0.0
C961 C 0.45766 0.50278 0.60598 0.0
N962 N 0.46768 0.47632 0.62734 0.0
N963 N 0.45503 0.46823 0.61247 0.0
C964 C 0.48154 0.51222 0.63854 0.0
H965 H 0.49868 0.50769 0.63833 0.0
H966 H 0.47967 0.52921 0.6339 0.0
H967 H 0.47574 0.51039 0.65518 0.0
C968 C 0.54144 0.43649 0.6261 0.0
N969 N 0.52521 0.44071 0.63964 0.0
N970 N 0.51184 0.45407 0.63054 0.0
C971 C 0.51973 0.45942 0.61109 0.0
C972 C 0.53884 0.44854 0.60779 0.0
C973 C 0.55775 0.41927 0.6293 0.0
H974 H 0.55173 0.40694 0.6405 0.0
H975 H 0.57264 0.42638 0.63572 0.0
H976 H 0.56176 0.41157 0.61381 0.0
O977 O 0.49619 0.41013 0.66653 0.0
O978 O 0.47094 0.43204 0.65382 0.0
H979 H 0.49388 0.46893 0.59091 0.0
H980 H 0.5197 0.47826 0.58196 0.0
C981 C 0.50962 0.47511 0.59619 0.0
H982 H 0.50719 0.49041 0.60467 0.0
H983 H 0.45185 0.45195 0.61071 0.0
O984 O 0.54724 0.4197 0.67867 0.0
C985 C 0.47688 0.41389 0.6612 0.0
Co986 Co 0.8143 0.27331 0.91565 0.0
Co987 Co 0.78469 0.23676 0.8973 0.0
C988 C 0.77917 0.25325 0.9417 0.0
O989 O 0.7953 0.26528 0.93925 0.0
O990 O 0.77186 0.24192 0.9264 0.0
C991 C 0.82773 0.3079 0.94297 0.0
O992 O 0.8222 0.295 0.95859 0.0
C993 C 0.74512 0.22243 0.87725 0.0
C994 C 0.75554 0.19506 0.85756 0.0
C995 C 0.73805 0.20801 0.86184 0.0
N996 N 0.76578 0.21833 0.88159 0.0
N997 N 0.7718 0.20166 0.87008 0.0
C998 C 0.73352 0.24163 0.88558 0.0
H999 H 0.74495 0.25347 0.89222 0.0
H1000 H 0.72388 0.24914 0.87273 0.0
H1001 H 0.72253 0.23659 0.89855 0.0
C1002 C 0.80237 0.2937 0.87556 0.0
N1003 N 0.7998 0.27781 0.88978 0.0
N1004 N 0.78856 0.26234 0.88103 0.0
C1005 C 0.78408 0.26788 0.86059 0.0
C1006 C 0.79263 0.28795 0.85666 0.0
C1007 C 0.81478 0.31369 0.8797 0.0
H1008 H 0.83158 0.30958 0.88356 0.0
H1009 H 0.80754 0.32196 0.89359 0.0
H1010 H 0.81451 0.32471 0.86583 0.0
O1011 O 0.83484 0.24975 0.91191 0.0
O1012 O 0.81333 0.22286 0.90204 0.0
H1013 H 0.78108 0.23699 0.84599 0.0
H1014 H 0.77777 0.25908 0.82774 0.0
C1015 C 0.7745 0.25332 0.84419 0.0
H1016 H 0.75695 0.25273 0.84643 0.0
H1017 H 0.78733 0.19561 0.86983 0.0
O1018 O 0.82772 0.30087 0.92391 0.0
C1019 C 0.83178 0.23012 0.90721 0.0
Co1020 Co 0.98132 0.56615 0.16724 0.0
Co1021 Co 0.01432 0.53389 0.1483 0.0
C1022 C 0.99969 0.52803 0.19185 0.0
O1023 O 0.98975 0.54555 0.18953 0.0
O1024 O 0.00893 0.51902 0.17609 0.0
C1025 C 0.9405 0.56274 0.17958 0.0
O1026 O 0.94657 0.54317 0.17497 0.0
C1027 C 0.03269 0.49626 0.12718 0.0
C1028 C 0.05628 0.51104 0.10543 0.0
C1029 C 0.04694 0.49168 0.11075 0.0
N1030 N 0.03326 0.51741 0.13096 0.0
N1031 N 0.04763 0.5261 0.11815 0.0
C1032 C 0.01933 0.48094 0.13983 0.0
H1033 H 0.02412 0.48193 0.15688 0.0
H1034 H 0.00227 0.48565 0.13904 0.0
H1035 H 0.02134 0.46421 0.13435 0.0
C1036 C 0.95948 0.55727 0.1266 0.0
N1037 N 0.97576 0.55394 0.14026 0.0
N1038 N 0.98876 0.5395 0.13226 0.0
C1039 C 0.98075 0.53292 0.1132 0.0
C1040 C 0.96177 0.54379 0.10929 0.0
C1041 C 0.94297 0.57444 0.12888 0.0
H1042 H 0.94895 0.58759 0.13915 0.0
H1043 H 0.92826 0.56755 0.13595 0.0
H1044 H 0.93865 0.58098 0.11297 0.0
O1045 O 0.00528 0.5861 0.16531 0.0
O1046 O 0.02937 0.56132 0.15636 0.0
H1047 H 0.0077 0.52143 0.09554 0.0
H1048 H 0.98222 0.51502 0.08358 0.0
C1049 C 0.99096 0.5167 0.0989 0.0
H1050 H 0.99109 0.50098 0.10699 0.0
H1051 H 0.05089 0.54244 0.11747 0.0
O1052 O 0.95404 0.57787 0.17809 0.0
C1053 C 0.02459 0.58037 0.16209 0.0
Co1054 Co 0.68455 0.72911 0.4229 0.0
Co1055 Co 0.71218 0.76426 0.40042 0.0
C1056 C 0.72373 0.74877 0.44347 0.0
O1057 O 0.70704 0.73724 0.44356 0.0
O1058 O 0.72899 0.75952 0.42707 0.0
C1059 C 0.68889 0.68788 0.43417 0.0
O1060 O 0.70806 0.69381 0.42796 0.0
C1061 C 0.74966 0.77931 0.37796 0.0
C1062 C 0.73718 0.80476 0.35698 0.0
C1063 C 0.75547 0.79314 0.36164 0.0
N1064 N 0.72893 0.78247 0.38257 0.0
N1065 N 0.72162 0.79798 0.37027 0.0
C1066 C 0.76257 0.76132 0.38704 0.0
H1067 H 0.75194 0.74851 0.39314 0.0
H1068 H 0.77351 0.75457 0.37481 0.0
H1069 H 0.7723 0.76744 0.40055 0.0
C1070 C 0.6883 0.70908 0.38041 0.0
N1071 N 0.69392 0.72434 0.39459 0.0
N1072 N 0.70628 0.73845 0.3851 0.0
C1073 C 0.7095 0.7321 0.36466 0.0
C1074 C 0.69826 0.71332 0.36117 0.0
C1075 C 0.67265 0.69147 0.38476 0.0
H1076 H 0.66065 0.69664 0.39671 0.0
H1077 H 0.6814 0.67737 0.39088 0.0
H1078 H 0.6642 0.68643 0.37004 0.0
O1079 O 0.66378 0.75243 0.42218 0.0
O1080 O 0.68433 0.77845 0.40856 0.0
H1081 H 0.71511 0.76134 0.34783 0.0
H1082 H 0.71892 0.73771 0.33181 0.0
C1083 C 0.72111 0.7447 0.34797 0.0
H1084 H 0.73841 0.74487 0.35169 0.0
H1085 H 0.70575 0.80313 0.37014 0.0
O1086 O 0.67387 0.70159 0.43417 0.0
C1087 C 0.6666 0.77176 0.41633 0.0
Co1088 Co 0.82737 0.52361 0.5587 0.0
Co1089 Co 0.8499 0.49005 0.52948 0.0
C1090 C 0.80724 0.50529 0.51817 0.0
O1091 O 0.80713 0.51568 0.53562 0.0
O1092 O 0.82389 0.49543 0.51188 0.0
C1093 C 0.81562 0.56493 0.55545 0.0
O1094 O 0.82225 0.55982 0.53618 0.0
C1095 C 0.87465 0.47242 0.49397 0.0
C1096 C 0.89235 0.44609 0.50944 0.0
C1097 C 0.89003 0.45692 0.4903 0.0
N1098 N 0.8684 0.47107 0.51446 0.0
N1099 N 0.87885 0.45515 0.52357 0.0
C1100 C 0.86541 0.48785 0.4782 0.0
H1101 H 0.85238 0.47975 0.46928 0.0
H1102 H 0.85854 0.50189 0.48658 0.0
H1103 H 0.87755 0.49315 0.46645 0.0
C1104 C 0.86924 0.54501 0.55457 0.0
N1105 N 0.85567 0.52905 0.54952 0.0
N1106 N 0.86523 0.51565 0.53646 0.0
C1107 C 0.88518 0.52307 0.53238 0.0
C1108 C 0.88819 0.54206 0.54359 0.0
C1109 C 0.86525 0.56149 0.57148 0.0
H1110 H 0.85357 0.55554 0.58339 0.0
H1111 H 0.85901 0.57623 0.56394 0.0
H1112 H 0.88038 0.56571 0.57977 0.0
O1113 O 0.82742 0.49974 0.57887 0.0
O1114 O 0.83989 0.47513 0.55618 0.0
H1115 H 0.90343 0.49569 0.52301 0.0
H1116 H 0.91652 0.52086 0.51759 0.0
C1117 C 0.90093 0.51245 0.51785 0.0
H1118 H 0.89451 0.51237 0.50138 0.0
H1119 H 0.87723 0.45086 0.53961 0.0
O1120 O 0.81561 0.55069 0.56996 0.0
C1121 C 0.83212 0.48043 0.57434 0.0
Co1122 Co 0.7296 0.58536 0.8101 0.0
Co1123 Co 0.76697 0.60378 0.78256 0.0
C1124 C 0.74629 0.56427 0.7693 0.0
O1125 O 0.73554 0.5652 0.78649 0.0
O1126 O 0.75864 0.57946 0.76382 0.0
C1127 C 0.68762 0.58121 0.80287 0.0
O1128 O 0.69559 0.58879 0.78498 0.0
C1129 C 0.78892 0.6254 0.74766 0.0
C1130 C 0.81269 0.64524 0.76465 0.0
C1131 C 0.80391 0.64149 0.74467 0.0
N1132 N 0.78841 0.62036 0.76852 0.0
N1133 N 0.80299 0.63193 0.77854 0.0
C1134 C 0.77512 0.61488 0.73113 0.0
H1135 H 0.75802 0.61669 0.73546 0.0
H1136 H 0.77804 0.62133 0.71489 0.0
H1137 H 0.77863 0.5975 0.73093 0.0
C1138 C 0.71512 0.62987 0.80779 0.0
N1139 N 0.72902 0.6144 0.80232 0.0
N1140 N 0.74349 0.62221 0.78929 0.0
C1141 C 0.73865 0.64294 0.78536 0.0
C1142 C 0.72038 0.64837 0.7969 0.0
C1143 C 0.69855 0.62768 0.82494 0.0
H1144 H 0.703 0.61482 0.83628 0.0
H1145 H 0.6829 0.62376 0.81762 0.0
H1146 H 0.69673 0.64295 0.83381 0.0
O1147 O 0.75238 0.58098 0.83102 0.0
O1148 O 0.77928 0.59086 0.80957 0.0
H1149 H 0.76695 0.6601 0.77683 0.0
H1150 H 0.74256 0.67243 0.7675 0.0
C1151 C 0.75077 0.657 0.7703 0.0
H1152 H 0.75247 0.6488 0.75474 0.0
H1153 H 0.80546 0.63162 0.79502 0.0
O1154 O 0.70012 0.57745 0.81849 0.0
C1155 C 0.77232 0.58314 0.82722 0.0
Co1156 Co 0.66406 0.47756 0.06564 0.0
Co1157 Co 0.64459 0.51329 0.03703 0.0
C1158 C 0.68545 0.49397 0.02503 0.0
O1159 O 0.68472 0.48376 0.0425 0.0
O1160 O 0.66966 0.50519 0.01888 0.0
C1161 C 0.66923 0.43614 0.05836 0.0
O1162 O 0.66324 0.44466 0.04013 0.0
C1163 C 0.62087 0.53026 0.00114 0.0
C1164 C 0.60482 0.55861 0.01471 0.0
C1165 C 0.60587 0.54599 0.99646 0.0
N1166 N 0.62798 0.53333 0.02117 0.0
N1167 N 0.61865 0.55054 0.02909 0.0
C1168 C 0.62649 0.51094 0.98812 0.0
H1169 H 0.63287 0.49808 0.9985 0.0
H1170 H 0.61236 0.50487 0.97929 0.0
H1171 H 0.63904 0.51532 0.97637 0.0
C1172 C 0.61974 0.4619 0.06444 0.0
N1173 N 0.63492 0.47576 0.05793 0.0
N1174 N 0.62648 0.48974 0.04477 0.0
C1175 C 0.60558 0.48462 0.04197 0.0
C1176 C 0.60081 0.46675 0.05423 0.0
C1177 C 0.62305 0.44468 0.08073 0.0
H1178 H 0.6365 0.44876 0.0915 0.0
H1179 H 0.6264 0.42938 0.07244 0.0
H1180 H 0.60852 0.44229 0.09057 0.0
O1181 O 0.66739 0.50109 0.08604 0.0
O1182 O 0.65678 0.52706 0.06378 0.0
H1183 H 0.5916 0.51464 0.03325 0.0
H1184 H 0.57309 0.49254 0.03328 0.0
C1185 C 0.58973 0.49744 0.02951 0.0
H1186 H 0.59244 0.49491 0.01221 0.0
H1187 H 0.62082 0.55606 0.04469 0.0
O1188 O 0.67233 0.44836 0.07439 0.0
C1189 C 0.66456 0.52084 0.08169 0.0
Co1190 Co 0.77469 0.41306 0.31796 0.0
Co1191 Co 0.73854 0.39288 0.28966 0.0
C1192 C 0.75591 0.43564 0.27944 0.0
O1193 O 0.76711 0.43492 0.29632 0.0
O1194 O 0.74476 0.41969 0.27357 0.0
C1195 C 0.81569 0.42465 0.31264 0.0
O1196 O 0.8079 0.4225 0.29326 0.0
C1197 C 0.72258 0.37131 0.25174 0.0
C1198 C 0.69916 0.34845 0.26487 0.0
C1199 C 0.71036 0.3535 0.2464 0.0
N1200 N 0.71963 0.37575 0.27257 0.0
N1201 N 0.70508 0.36245 0.28018 0.0
C1202 C 0.7372 0.38392 0.23755 0.0
H1203 H 0.75407 0.38045 0.24179 0.0
H1204 H 0.73437 0.38041 0.22041 0.0
H1205 H 0.7344 0.40121 0.24006 0.0
C1206 C 0.79353 0.37022 0.312 0.0
N1207 N 0.77842 0.38493 0.30744 0.0
N1208 N 0.76377 0.37627 0.29511 0.0
C1209 C 0.76953 0.35579 0.29099 0.0
C1210 C 0.78853 0.35139 0.30152 0.0
C1211 C 0.81215 0.37392 0.32662 0.0
H1212 H 0.80744 0.38445 0.34006 0.0
H1213 H 0.82522 0.38158 0.31745 0.0
H1214 H 0.81857 0.35883 0.3332 0.0
O1215 O 0.75132 0.41282 0.33893 0.0
O1216 O 0.72473 0.40153 0.31772 0.0
H1217 H 0.73995 0.33951 0.28582 0.0
H1218 H 0.76307 0.32354 0.28003 0.0
C1219 C 0.75627 0.33987 0.27905 0.0
H1220 H 0.75546 0.34454 0.26201 0.0
H1221 H 0.70041 0.36187 0.29618 0.0
O1222 O 0.80308 0.42235 0.32847 0.0
C1223 C 0.73161 0.40851 0.33573 0.0
Co1224 Co 0.82578 0.47681 0.93774 0.0
Co1225 Co 0.84565 0.51239 0.96695 0.0
C1226 C 0.80442 0.49308 0.97844 0.0
O1227 O 0.805 0.48295 0.96086 0.0
O1228 O 0.82034 0.50412 0.98473 0.0
C1229 C 0.81718 0.4347 0.94229 0.0
O1230 O 0.81962 0.4419 0.96188 0.0
C1231 C 0.87104 0.52908 0.00238 0.0
C1232 C 0.88627 0.5575 0.98803 0.0
C1233 C 0.88647 0.54469 0.00613 0.0
N1234 N 0.86262 0.5323 0.98287 0.0
N1235 N 0.87141 0.54962 0.97458 0.0
C1236 C 0.86625 0.50977 0.01567 0.0
H1237 H 0.85868 0.49711 0.00579 0.0
H1238 H 0.88101 0.50346 0.02319 0.0
H1239 H 0.85495 0.5143 0.02858 0.0
C1240 C 0.86989 0.4608 0.93917 0.0
N1241 N 0.85471 0.47447 0.94606 0.0
N1242 N 0.86345 0.48887 0.95866 0.0
C1243 C 0.88458 0.48441 0.96044 0.0
C1244 C 0.88918 0.46647 0.94826 0.0
C1245 C 0.86625 0.4431 0.92344 0.0
H1246 H 0.85413 0.44787 0.91147 0.0
H1247 H 0.86062 0.42875 0.93215 0.0
H1248 H 0.88112 0.43864 0.91495 0.0
O1249 O 0.8233 0.50095 0.9178 0.0
O1250 O 0.83397 0.52659 0.94046 0.0
H1251 H 0.89813 0.51515 0.96724 0.0
H1252 H 0.91732 0.49373 0.96663 0.0
C1253 C 0.90081 0.49818 0.97138 0.0
H1254 H 0.89941 0.49613 0.98889 0.0
H1255 H 0.86827 0.55524 0.95921 0.0
O1256 O 0.8176 0.44808 0.92695 0.0
C1257 C 0.82639 0.52062 0.92239 0.0
Co1258 Co 0.77221 0.57451 0.18869 0.0
Co1259 Co 0.73859 0.59479 0.21954 0.0
C1260 C 0.75726 0.5532 0.22994 0.0
O1261 O 0.76694 0.55362 0.21208 0.0
O1262 O 0.74641 0.56911 0.2364 0.0
C1263 C 0.81418 0.56637 0.19047 0.0
O1264 O 0.80897 0.57276 0.20979 0.0
C1265 C 0.72146 0.61632 0.25713 0.0
C1266 C 0.69994 0.64029 0.2428 0.0
C1267 C 0.70946 0.63437 0.26191 0.0
N1268 N 0.7199 0.61242 0.23607 0.0
N1269 N 0.7065 0.62641 0.22769 0.0
C1270 C 0.73472 0.60314 0.27208 0.0
H1271 H 0.73058 0.58604 0.27 0.0
H1272 H 0.7519 0.60505 0.2681 0.0
H1273 H 0.73189 0.60752 0.28902 0.0
C1274 C 0.79086 0.61789 0.19194 0.0
N1275 N 0.77622 0.60313 0.19772 0.0
N1276 N 0.76305 0.61152 0.21176 0.0
C1277 C 0.76946 0.63178 0.21593 0.0
C1278 C 0.78732 0.63641 0.20352 0.0
C1279 C 0.80632 0.61535 0.17384 0.0
H1280 H 0.80055 0.60317 0.16233 0.0
H1281 H 0.82208 0.61041 0.18024 0.0
H1282 H 0.80858 0.63077 0.16537 0.0
O1283 O 0.74732 0.57302 0.16968 0.0
O1284 O 0.72294 0.5843 0.19328 0.0
H1285 H 0.74316 0.65108 0.22601 0.0
H1286 H 0.76884 0.66086 0.23482 0.0
C1287 C 0.75916 0.64631 0.23188 0.0
H1288 H 0.75733 0.63779 0.24723 0.0
H1289 H 0.70305 0.62743 0.2114 0.0
O1290 O 0.79964 0.56487 0.17632 0.0
C1291 C 0.72796 0.57676 0.17492 0.0
Co1292 Co 0.66769 0.52032 0.4321 0.0
Co1293 Co 0.64607 0.48468 0.45972 0.0
C1294 C 0.68876 0.50049 0.47119 0.0
O1295 O 0.68829 0.51176 0.45435 0.0
O1296 O 0.67251 0.48972 0.47708 0.0
C1297 C 0.67934 0.56135 0.4379 0.0
O1298 O 0.67304 0.55488 0.45686 0.0
C1299 C 0.62186 0.46584 0.49527 0.0
C1300 C 0.60233 0.44157 0.47863 0.0
C1301 C 0.60526 0.45128 0.49838 0.0
N1302 N 0.62797 0.46497 0.47465 0.0
N1303 N 0.61655 0.45009 0.46492 0.0
C1304 C 0.63024 0.48208 0.51076 0.0
H1305 H 0.63824 0.49536 0.50215 0.0
H1306 H 0.61714 0.48856 0.52081 0.0
H1307 H 0.64213 0.47435 0.52138 0.0
C1308 C 0.62596 0.54108 0.43843 0.0
N1309 N 0.63959 0.52484 0.44213 0.0
N1310 N 0.63026 0.51054 0.45438 0.0
C1311 C 0.61033 0.51764 0.45918 0.0
C1312 C 0.60722 0.53738 0.44946 0.0
C1313 C 0.62967 0.55873 0.4227 0.0
H1314 H 0.64101 0.55361 0.41009 0.0
H1315 H 0.63618 0.57287 0.43117 0.0
H1316 H 0.61439 0.56359 0.41511 0.0
O1317 O 0.66739 0.49757 0.41064 0.0
O1318 O 0.65543 0.47123 0.43164 0.0
H1319 H 0.59305 0.4892 0.46725 0.0
H1320 H 0.57856 0.51354 0.47251 0.0
C1321 C 0.59454 0.50594 0.47281 0.0
H1322 H 0.60019 0.506 0.48955 0.0
H1323 H 0.61764 0.44661 0.44864 0.0
O1324 O 0.67906 0.54817 0.42238 0.0
C1325 C 0.66277 0.47796 0.41375 0.0
Co1326 Co 0.72885 0.42417 0.6805 0.0
Co1327 Co 0.76195 0.40428 0.71212 0.0
C1328 C 0.74344 0.44613 0.72148 0.0
O1329 O 0.73415 0.44545 0.70346 0.0
O1330 O 0.75392 0.43022 0.72848 0.0
C1331 C 0.68731 0.43232 0.68311 0.0
O1332 O 0.69334 0.42637 0.70232 0.0
C1333 C 0.77744 0.3832 0.75038 0.0
C1334 C 0.7992 0.35876 0.73719 0.0
C1335 C 0.7888 0.36493 0.75578 0.0
N1336 N 0.78012 0.38695 0.72941 0.0
N1337 N 0.79369 0.3727 0.72174 0.0
C1338 C 0.76354 0.39658 0.76458 0.0
H1339 H 0.76821 0.4136 0.76294 0.0
H1340 H 0.74661 0.39512 0.75949 0.0
H1341 H 0.76517 0.39204 0.78163 0.0
C1342 C 0.71025 0.38095 0.68378 0.0
N1343 N 0.7248 0.39572 0.68973 0.0
N1344 N 0.73769 0.38746 0.70407 0.0
C1345 C 0.73117 0.36724 0.70823 0.0
C1346 C 0.71357 0.36254 0.69551 0.0
C1347 C 0.69498 0.38344 0.66552 0.0
H1348 H 0.70102 0.39541 0.65394 0.0
H1349 H 0.67924 0.38869 0.67172 0.0
H1350 H 0.69261 0.36794 0.6572 0.0
O1351 O 0.75389 0.42522 0.66183 0.0
O1352 O 0.77797 0.41438 0.68597 0.0
H1353 H 0.75722 0.34818 0.71929 0.0
H1354 H 0.73133 0.33828 0.72728 0.0
C1355 C 0.74099 0.35288 0.72457 0.0
H1356 H 0.74215 0.36154 0.73991 0.0
H1357 H 0.79787 0.37147 0.70564 0.0
O1358 O 0.70128 0.43363 0.66835 0.0
C1359 C 0.77317 0.42157 0.66743 0.0
Co1360 Co 0.55923 0.82854 0.5227 0.0
Co1361 Co 0.53501 0.85002 0.48451 0.0
C1362 C 0.52233 0.80705 0.50017 0.0
O1363 O 0.53805 0.80727 0.51296 0.0
O1364 O 0.51775 0.82332 0.48885 0.0
C1365 C 0.55324 0.81414 0.5638 0.0
O1366 O 0.53375 0.81354 0.556 0.0
C1367 C 0.50003 0.87502 0.46724 0.0
C1368 C 0.51477 0.89146 0.43971 0.0
C1369 C 0.4962 0.89064 0.45187 0.0
N1370 N 0.51994 0.86743 0.46446 0.0
N1371 N 0.52852 0.87696 0.4477 0.0
C1372 C 0.48636 0.86925 0.48603 0.0
H1373 H 0.49599 0.86122 0.49855 0.0
H1374 H 0.4786 0.88367 0.49285 0.0
H1375 H 0.47369 0.85801 0.48076 0.0
C1376 C 0.55312 0.87106 0.54157 0.0
N1377 N 0.54881 0.85664 0.52613 0.0
N1378 N 0.53922 0.86628 0.5101 0.0
C1379 C 0.53715 0.88728 0.515 0.0
C1380 C 0.54573 0.89079 0.53511 0.0
C1381 C 0.56546 0.86646 0.56154 0.0
H1382 H 0.55509 0.85742 0.57266 0.0
H1383 H 0.57057 0.88123 0.56987 0.0
H1384 H 0.5798 0.85679 0.55771 0.0
O1385 O 0.58204 0.82942 0.50114 0.0
O1386 O 0.56381 0.84164 0.47287 0.0
H1387 H 0.53555 0.92038 0.50521 0.0
H1388 H 0.51246 0.90458 0.49898 0.0
C1389 C 0.53014 0.90436 0.49982 0.0
H1390 H 0.53671 0.90123 0.48369 0.0
H1391 H 0.54418 0.8745 0.4425 0.0
O1392 O 0.5686 0.81885 0.55131 0.0
C1393 C 0.58097 0.83447 0.4814 0.0
Co1394 Co 0.0624 0.66419 0.47262 0.0
Co1395 Co 0.0375 0.6451 0.5116 0.0
C1396 C 0.02754 0.68832 0.49625 0.0
O1397 O 0.04291 0.68652 0.48319 0.0
O1398 O 0.02164 0.67268 0.5078 0.0
C1399 C 0.05234 0.67425 0.43195 0.0
O1400 O 0.03397 0.66962 0.44104 0.0
C1401 C 0.00192 0.62295 0.53145 0.0
C1402 C 0.01726 0.60515 0.55773 0.0
C1403 C 0.99798 0.60753 0.54699 0.0
N1404 N 0.02252 0.62893 0.53275 0.0
N1405 N 0.0315 0.61862 0.54881 0.0
C1406 C 0.98741 0.62998 0.51375 0.0
H1407 H 0.99675 0.63714 0.50049 0.0
H1408 H 0.97783 0.61637 0.50759 0.0
H1409 H 0.97625 0.64228 0.51998 0.0
C1410 C 0.05387 0.62144 0.45495 0.0
N1411 N 0.05086 0.63636 0.47024 0.0
N1412 N 0.03993 0.62803 0.48614 0.0
C1413 C 0.0353 0.60744 0.48113 0.0
C1414 C 0.04378 0.60279 0.46116 0.0
C1415 C 0.0669 0.62476 0.43511 0.0
H1416 H 0.08 0.63628 0.43815 0.0
H1417 H 0.05638 0.63092 0.42229 0.0
H1418 H 0.07403 0.60976 0.42913 0.0
O1419 O 0.08601 0.66325 0.49334 0.0
O1420 O 0.06713 0.65282 0.52196 0.0
H1421 H 0.0323 0.5934 0.51225 0.0
H1422 H 0.02866 0.57485 0.49055 0.0
C1423 C 0.02557 0.59145 0.49602 0.0
H1424 H 0.00805 0.59382 0.49661 0.0
H1425 H 0.04767 0.61979 0.55282 0.0
O1426 O 0.06926 0.67395 0.44329 0.0
C1427 C 0.08461 0.65911 0.5133 0.0
Co1428 Co 0.57668 0.81279 0.72573 0.0
Co1429 Co 0.59889 0.7868 0.76238 0.0
C1430 C 0.55556 0.77489 0.74687 0.0
O1431 O 0.55565 0.79089 0.73441 0.0
O1432 O 0.57182 0.77024 0.75818 0.0
C1433 C 0.54776 0.82077 0.6907 0.0
O1434 O 0.53312 0.81246 0.70324 0.0
C1435 C 0.62095 0.74998 0.77985 0.0
C1436 C 0.64198 0.76411 0.80445 0.0
C1437 C 0.63723 0.74504 0.79413 0.0
N1438 N 0.61653 0.77092 0.78153 0.0
N1439 N 0.62886 0.77923 0.79653 0.0
C1440 C 0.61165 0.73591 0.76282 0.0
H1441 H 0.60521 0.74567 0.74951 0.0
H1442 H 0.62384 0.7247 0.75649 0.0
H1443 H 0.59833 0.72645 0.76975 0.0
C1444 C 0.6173 0.80337 0.7039 0.0
N1445 N 0.60421 0.80136 0.72087 0.0
N1446 N 0.61417 0.79091 0.73612 0.0
C1447 C 0.63415 0.78609 0.72923 0.0
C1448 C 0.6366 0.79364 0.70847 0.0
C1449 C 0.61202 0.81588 0.68426 0.0
H1450 H 0.60465 0.83132 0.68884 0.0
H1451 H 0.60047 0.80654 0.67459 0.0
H1452 H 0.62639 0.81921 0.67442 0.0
O1453 O 0.57817 0.83455 0.74844 0.0
O1454 O 0.59116 0.81519 0.77548 0.0
H1455 H 0.65158 0.78162 0.75836 0.0
H1456 H 0.66663 0.77517 0.73458 0.0
C1457 C 0.65063 0.77456 0.74215 0.0
H1458 H 0.64602 0.75755 0.74357 0.0
H1459 H 0.6291 0.79541 0.80058 0.0
O1460 O 0.56638 0.82422 0.69807 0.0
C1461 C 0.58369 0.83266 0.76797 0.0
Co1462 Co 0.42753 0.33345 0.97515 0.0
Co1463 Co 0.45795 0.34969 0.01156 0.0
C1464 C 0.46249 0.30599 0.99478 0.0
O1465 O 0.44589 0.30919 0.98359 0.0
O1466 O 0.47099 0.32103 0.00556 0.0
C1467 C 0.43131 0.32041 0.93413 0.0
O1468 O 0.45076 0.31906 0.94194 0.0
C1469 C 0.49691 0.36886 0.02857 0.0
C1470 C 0.48439 0.39089 0.05311 0.0
C1471 C 0.50278 0.38587 0.04175 0.0
N1472 N 0.47593 0.36496 0.03124 0.0
N1473 N 0.46868 0.37772 0.04643 0.0
C1474 C 0.5107 0.35656 0.01333 0.0
H1475 H 0.50765 0.36201 0.99674 0.0
H1476 H 0.5279 0.35848 0.0172 0.0
H1477 H 0.50658 0.33936 0.01411 0.0
C1478 C 0.43957 0.37485 0.95606 0.0
N1479 N 0.44171 0.3599 0.97146 0.0
N1480 N 0.45461 0.36708 0.98643 0.0
C1481 C 0.46127 0.38691 0.98074 0.0
C1482 C 0.45213 0.39228 0.96129 0.0
C1483 C 0.42555 0.37265 0.93677 0.0
H1484 H 0.41063 0.36406 0.94093 0.0
H1485 H 0.43433 0.36365 0.92432 0.0
H1486 H 0.42125 0.38829 0.92978 0.0
O1487 O 0.40641 0.33625 0.99814 0.0
O1488 O 0.42907 0.34373 0.02483 0.0
H1489 H 0.46765 0.40162 0.01096 0.0
H1490 H 0.47346 0.41839 0.98842 0.0
C1491 C 0.47403 0.40174 0.99448 0.0
H1492 H 0.49091 0.39654 0.99459 0.0
H1493 H 0.45268 0.37859 0.05107 0.0
O1494 O 0.41612 0.32533 0.94677 0.0
C1495 C 0.41028 0.33929 0.01795 0.0
Co1496 Co 0.4178 0.6843 0.72901 0.0
Co1497 Co 0.39719 0.71052 0.76628 0.0
C1498 C 0.43897 0.7233 0.74869 0.0
O1499 O 0.4386 0.70689 0.73675 0.0
O1500 O 0.42314 0.7281 0.76051 0.0
C1501 C 0.4273 0.68901 0.68696 0.0
O1502 O 0.42048 0.70804 0.69267 0.0
C1503 C 0.37539 0.7464 0.78653 0.0
C1504 C 0.355 0.73062 0.81065 0.0
C1505 C 0.35931 0.75025 0.80134 0.0
N1506 N 0.37992 0.72541 0.78665 0.0
N1507 N 0.36799 0.71611 0.8014 0.0
C1508 C 0.38652 0.76225 0.77243 0.0
H1509 H 0.40377 0.76246 0.77653 0.0
H1510 H 0.38524 0.75717 0.75549 0.0
H1511 H 0.38014 0.77865 0.77444 0.0
C1512 C 0.37461 0.68955 0.71074 0.0
N1513 N 0.38929 0.69386 0.72591 0.0
N1514 N 0.38052 0.70558 0.74099 0.0
C1515 C 0.35998 0.70963 0.73546 0.0
C1516 C 0.35566 0.69967 0.71603 0.0
C1517 C 0.37764 0.67368 0.69305 0.0
H1518 H 0.38963 0.66148 0.69762 0.0
H1519 H 0.38315 0.68212 0.67848 0.0
H1520 H 0.36235 0.66554 0.68918 0.0
O1521 O 0.41867 0.66262 0.7515 0.0
O1522 O 0.40689 0.68235 0.77891 0.0
H1523 H 0.34237 0.71531 0.76423 0.0
H1524 H 0.32917 0.72488 0.74039 0.0
C1525 C 0.34482 0.72287 0.7484 0.0
H1526 H 0.35175 0.73894 0.75084 0.0
H1527 H 0.36797 0.69972 0.80444 0.0
O1528 O 0.42803 0.67423 0.70088 0.0
C1529 C 0.41434 0.66488 0.77128 0.0
Co1530 Co 0.93401 0.16771 0.01259 0.0
Co1531 Co 0.96109 0.14592 0.97624 0.0
C1532 C 0.97321 0.18835 0.99301 0.0
O1533 O 0.95663 0.18808 0.00467 0.0
O1534 O 0.97838 0.17228 0.98168 0.0
C1535 C 0.93944 0.17727 0.05439 0.0
O1536 O 0.9583 0.17058 0.04799 0.0
C1537 C 0.99724 0.12161 0.95884 0.0
C1538 C 0.98214 0.10305 0.93288 0.0
C1539 C 0.00113 0.10543 0.94407 0.0
N1540 N 0.97675 0.1279 0.95693 0.0
N1541 N 0.96793 0.11701 0.9411 0.0
C1542 C 0.01272 0.13132 0.97435 0.0
H1543 H 0.00941 0.12529 0.99067 0.0
H1544 H 0.0295 0.12763 0.96995 0.0
H1545 H 0.0107 0.1489 0.97466 0.0
C1546 C 0.93695 0.12469 0.03087 0.0
N1547 N 0.94293 0.13918 0.01611 0.0
N1548 N 0.95503 0.12988 0.00163 0.0
C1549 C 0.95766 0.10914 0.00727 0.0
C1550 C 0.94634 0.10536 0.02595 0.0
C1551 C 0.92141 0.12887 0.04862 0.0
H1552 H 0.90979 0.14134 0.0439 0.0
H1553 H 0.93031 0.13418 0.06299 0.0
H1554 H 0.91245 0.11426 0.05306 0.0
O1555 O 0.91286 0.16806 0.98957 0.0
O1556 O 0.93302 0.15518 0.96285 0.0
H1557 H 0.9624 0.09302 0.97745 0.0
H1558 H 0.96596 0.07622 0.00055 0.0
C1559 C 0.96859 0.0925 0.99401 0.0
H1560 H 0.986 0.09566 0.99372 0.0
H1561 H 0.95195 0.11842 0.93655 0.0
O1562 O 0.92428 0.17831 0.04085 0.0
C1563 C 0.91544 0.16295 0.96997 0.0
Co1564 Co 0.57738 0.19227 0.76775 0.0
Co1565 Co 0.59569 0.22252 0.73263 0.0
C1566 C 0.55455 0.23257 0.75287 0.0
O1567 O 0.55577 0.21503 0.76299 0.0
O1568 O 0.56987 0.23907 0.74117 0.0
C1569 C 0.56977 0.19311 0.81025 0.0
O1570 O 0.576 0.21268 0.80583 0.0
C1571 C 0.61576 0.26036 0.71409 0.0
C1572 C 0.63536 0.24664 0.68811 0.0
C1573 C 0.63088 0.26561 0.69869 0.0
N1574 N 0.61169 0.2393 0.71275 0.0
N1575 N 0.62314 0.23126 0.69692 0.0
C1576 C 0.6074 0.27436 0.73163 0.0
H1577 H 0.60241 0.2646 0.74556 0.0
H1578 H 0.61969 0.28608 0.73679 0.0
H1579 H 0.59328 0.28327 0.72569 0.0
C1580 C 0.62124 0.19723 0.785 0.0
N1581 N 0.60592 0.20211 0.77064 0.0
N1582 N 0.61373 0.21549 0.75646 0.0
C1583 C 0.63426 0.21997 0.76178 0.0
C1584 C 0.63958 0.20865 0.78019 0.0
C1585 C 0.61938 0.18001 0.80152 0.0
H1586 H 0.60752 0.16783 0.79654 0.0
H1587 H 0.61436 0.18719 0.81692 0.0
H1588 H 0.63505 0.17212 0.80409 0.0
O1589 O 0.57533 0.17281 0.74328 0.0
O1590 O 0.5849 0.19585 0.71774 0.0
H1591 H 0.65021 0.22926 0.73299 0.0
H1592 H 0.66446 0.23648 0.75708 0.0
C1593 C 0.64844 0.23496 0.74968 0.0
H1594 H 0.64105 0.251 0.7494 0.0
H1595 H 0.62343 0.21508 0.69286 0.0
O1596 O 0.56857 0.17949 0.79519 0.0
C1597 C 0.57796 0.17753 0.72363 0.0
Co1598 Co 0.91262 0.8166 0.26817 0.0
Co1599 Co 0.89965 0.78247 0.23371 0.0
C1600 C 0.94191 0.78012 0.25377 0.0
O1601 O 0.93725 0.79741 0.26333 0.0
O1602 O 0.92804 0.77047 0.24237 0.0
C1603 C 0.9216 0.81489 0.30991 0.0
O1604 O 0.92139 0.79501 0.30314 0.0
C1605 C 0.88327 0.74215 0.21629 0.0
C1606 C 0.86253 0.75346 0.1901 0.0
C1607 C 0.86818 0.73529 0.20145 0.0
N1608 N 0.88599 0.76337 0.21403 0.0
N1609 N 0.87395 0.76993 0.19799 0.0
C1610 C 0.89278 0.72949 0.23422 0.0
H1611 H 0.89824 0.74024 0.24724 0.0
H1612 H 0.88102 0.71787 0.24066 0.0
H1613 H 0.90676 0.72046 0.22811 0.0
C1614 C 0.87019 0.80634 0.28462 0.0
N1615 N 0.88619 0.80266 0.27073 0.0
N1616 N 0.88049 0.78764 0.25719 0.0
C1617 C 0.86052 0.78098 0.26245 0.0
C1618 C 0.85353 0.79253 0.28016 0.0
C1619 C 0.8697 0.82456 0.30018 0.0
H1620 H 0.87927 0.83817 0.29409 0.0
H1621 H 0.8764 0.8192 0.31568 0.0
H1622 H 0.85307 0.83006 0.30301 0.0
O1623 O 0.91211 0.83561 0.2433 0.0
O1624 O 0.9066 0.8102 0.21872 0.0
H1625 H 0.8465 0.76862 0.2338 0.0
H1626 H 0.83223 0.76139 0.25784 0.0
C1627 C 0.84827 0.76405 0.25081 0.0
H1628 H 0.85714 0.74882 0.25169 0.0
H1629 H 0.87246 0.78588 0.19336 0.0
O1630 O 0.91848 0.82982 0.29645 0.0
C1631 C 0.91073 0.8296 0.22383 0.0
H1632 H 0.05876 0.0186 0.41508 0.0
H1633 H 0.04124 0.08487 0.42043 0.0
H1634 H 0.06232 0.08823 0.45336 0.0
H1635 H 0.08689 0.0723 0.47997 0.0
H1636 H 0.10388 0.00574 0.47402 0.0
H1637 H 0.08217 0.00251 0.44206 0.0
C1638 C 0.05948 0.03367 0.42365 0.0
C1639 C 0.04871 0.05148 0.41554 0.0
C1640 C 0.07182 0.0355 0.44226 0.0
C1641 C 0.04961 0.07101 0.42654 0.0
C1642 C 0.06167 0.07293 0.44526 0.0
C1643 C 0.08589 0.05717 0.47154 0.0
C1644 C 0.09766 0.03955 0.47894 0.0
C1645 C 0.07309 0.05532 0.45314 0.0
C1646 C 0.0958 0.01986 0.46821 0.0
C1647 C 0.08313 0.01787 0.45003 0.0
H1648 H 0.17842 0.83777 0.71569 0.0
H1649 H 0.24711 0.84253 0.7196 0.0
H1650 H 0.25091 0.81831 0.68949 0.0
H1651 H 0.23475 0.79632 0.66104 0.0
H1652 H 0.16625 0.79064 0.65749 0.0
H1653 H 0.1623 0.8141 0.68862 0.0
C1654 C 0.1942 0.83355 0.70988 0.0
C1655 C 0.21237 0.84276 0.71936 0.0
C1656 C 0.19632 0.81917 0.69272 0.0
C1657 C 0.23275 0.83669 0.71199 0.0
C1658 C 0.23499 0.82248 0.69492 0.0
C1659 C 0.21903 0.80005 0.66735 0.0
C1660 C 0.20081 0.79201 0.65708 0.0
C1661 C 0.21691 0.81377 0.68503 0.0
C1662 C 0.18046 0.79685 0.66522 0.0
C1663 C 0.17821 0.81029 0.68291 0.0
H1664 H 0.42682 0.94462 0.98844 0.0
H1665 H 0.36921 0.95404 0.95179 0.0
H1666 H 0.39018 0.95668 0.91899 0.0
H1667 H 0.42492 0.95766 0.90095 0.0
H1668 H 0.48239 0.94491 0.93668 0.0
H1669 H 0.46156 0.94274 0.96977 0.0
C1670 C 0.41887 0.94698 0.97322 0.0
C1671 C 0.39655 0.94969 0.97258 0.0
C1672 C 0.43103 0.94827 0.95438 0.0
C1673 C 0.38642 0.95259 0.95277 0.0
C1674 C 0.39839 0.95402 0.93401 0.0
C1675 C 0.43286 0.95424 0.91596 0.0
C1676 C 0.45517 0.95178 0.91645 0.0
C1677 C 0.42071 0.95222 0.93468 0.0
C1678 C 0.46529 0.94746 0.93601 0.0
C1679 C 0.45335 0.94594 0.95486 0.0
H1680 H 0.29274 0.13599 0.20703 0.0
H1681 H 0.31768 0.18428 0.2495 0.0
H1682 H 0.3176 0.21024 0.22037 0.0
H1683 H 0.30974 0.21946 0.18272 0.0
H1684 H 0.28304 0.17142 0.14115 0.0
H1685 H 0.28393 0.14529 0.17012 0.0
C1686 C 0.2977 0.15228 0.21011 0.0
C1687 C 0.30468 0.15824 0.23061 0.0
C1688 C 0.29713 0.16726 0.19342 0.0
C1689 C 0.31213 0.17922 0.23389 0.0
C1690 C 0.31196 0.19415 0.21727 0.0
C1691 C 0.30375 0.20339 0.18022 0.0
C1692 C 0.29602 0.19739 0.16001 0.0
C1693 C 0.30427 0.18843 0.19701 0.0
C1694 C 0.28893 0.17635 0.15668 0.0
C1695 C 0.28948 0.16142 0.17319 0.0
H1696 H 0.09217 0.97714 0.03157 0.0
H1697 H 0.08986 0.90902 0.02136 0.0
H1698 H 0.06562 0.90512 0.05188 0.0
H1699 H 0.04489 0.9213 0.08133 0.0
H1700 H 0.04933 0.98911 0.09267 0.0
H1701 H 0.073 0.993 0.06178 0.0
C1702 C 0.08698 0.96134 0.03642 0.0
C1703 C 0.09343 0.94328 0.02469 0.0
C1704 C 0.07326 0.95924 0.05404 0.0
C1705 C 0.0854 0.92311 0.0304 0.0
C1706 C 0.07154 0.92089 0.0478 0.0
C1707 C 0.05142 0.93683 0.07727 0.0
C1708 C 0.04568 0.95487 0.08937 0.0
C1709 C 0.06538 0.93885 0.05977 0.0
C1710 C 0.05357 0.97503 0.08351 0.0
C1711 C 0.06714 0.97724 0.06594 0.0
H1712 H 0.26821 0.80666 0.33439 0.0
H1713 H 0.33564 0.79407 0.32923 0.0
H1714 H 0.33785 0.81684 0.29737 0.0
H1715 H 0.32042 0.84093 0.27136 0.0
H1716 H 0.25282 0.85315 0.27692 0.0
H1717 H 0.25079 0.83021 0.30826 0.0
C1718 C 0.28331 0.8089 0.32614 0.0
C1719 C 0.30175 0.79897 0.33397 0.0
C1720 C 0.28444 0.82216 0.30811 0.0
C1721 C 0.3213 0.8018 0.32337 0.0
C1722 C 0.32255 0.81479 0.30524 0.0
C1723 C 0.30533 0.83865 0.27959 0.0
C1724 C 0.28697 0.8493 0.2723 0.0
C1725 C 0.30423 0.82521 0.29756 0.0
C1726 C 0.26737 0.84586 0.28274 0.0
C1727 C 0.26612 0.83251 0.30052 0.0
H1728 H 0.40672 0.01721 0.5321 0.0
H1729 H 0.40416 0.08546 0.5234 0.0
H1730 H 0.4261 0.09066 0.55546 0.0
H1731 H 0.44629 0.07558 0.58586 0.0
H1732 H 0.44854 0.00731 0.59439 0.0
H1733 H 0.42645 0.00221 0.56249 0.0
C1734 C 0.41054 0.03323 0.53754 0.0
C1735 C 0.40332 0.05098 0.52587 0.0
C1736 C 0.42322 0.03603 0.55584 0.0
C1737 C 0.40928 0.0716 0.53242 0.0
C1738 C 0.42183 0.07456 0.55068 0.0
C1739 C 0.44165 0.05964 0.58082 0.0
C1740 C 0.44864 0.04183 0.59253 0.0
C1741 C 0.42889 0.05688 0.56253 0.0
C1742 C 0.44316 0.02121 0.5856 0.0
C1743 C 0.43053 0.01831 0.56743 0.0
H1744 H 0.2296 0.15423 0.78061 0.0
H1745 H 0.16125 0.15091 0.77249 0.0
H1746 H 0.15625 0.17451 0.80335 0.0
H1747 H 0.17144 0.19607 0.83274 0.0
H1748 H 0.23973 0.19874 0.84112 0.0
H1749 H 0.24474 0.17558 0.80991 0.0
C1750 C 0.2136 0.15824 0.7859 0.0
C1751 C 0.19577 0.1503 0.77471 0.0
C1752 C 0.21089 0.17188 0.80355 0.0
C1753 C 0.17519 0.15655 0.7811 0.0
C1754 C 0.17233 0.17007 0.79869 0.0
C1755 C 0.18737 0.19132 0.82783 0.0
C1756 C 0.2052 0.19868 0.83935 0.0
C1757 C 0.19007 0.1778 0.81007 0.0
C1758 C 0.22581 0.19311 0.83248 0.0
C1759 C 0.22865 0.17982 0.81474 0.0
H1760 H 0.41507 0.05104 0.07173 0.0
H1761 H 0.40712 0.04927 0.00338 0.0
H1762 H 0.43728 0.07394 0.99898 0.0
H1763 H 0.46503 0.09681 0.0148 0.0
H1764 H 0.47185 0.09992 0.08332 0.0
H1765 H 0.44266 0.0742 0.08758 0.0
C1766 C 0.41984 0.0563 0.05592 0.0
C1767 C 0.40874 0.04883 0.03791 0.0
C1768 C 0.43672 0.0709 0.05362 0.0
C1769 C 0.41548 0.05498 0.01744 0.0
C1770 C 0.43256 0.06917 0.01496 0.0
C1771 C 0.45975 0.09233 0.03068 0.0
C1772 C 0.47009 0.10078 0.04877 0.0
C1773 C 0.44304 0.07752 0.03296 0.0
C1774 C 0.46384 0.0939 0.06919 0.0
C1775 C 0.44724 0.07915 0.07162 0.0
H1776 H 0.19638 0.16633 0.32553 0.0
H1777 H 0.21544 0.17146 0.25954 0.0
H1778 H 0.19284 0.20311 0.25522 0.0
H1779 H 0.16638 0.2282 0.26985 0.0
H1780 H 0.14725 0.22335 0.3358 0.0
H1781 H 0.17114 0.19262 0.34067 0.0
C1782 C 0.19554 0.17447 0.31025 0.0
C1783 C 0.20728 0.1666 0.29279 0.0
C1784 C 0.18242 0.19249 0.3079 0.0
C1785 C 0.2065 0.17735 0.27315 0.0
C1786 C 0.19351 0.19532 0.27067 0.0
C1787 C 0.16739 0.22026 0.28522 0.0
C1788 C 0.1548 0.22749 0.30234 0.0
C1789 C 0.18117 0.20281 0.28784 0.0
C1790 C 0.15666 0.21771 0.32239 0.0
C1791 C 0.17027 0.20022 0.32514 0.0
H1792 H 0.01721 0.91845 0.55533 0.0
H1793 H 0.05202 0.86071 0.54097 0.0
H1794 H 0.08538 0.88102 0.53923 0.0
H1795 H 0.10454 0.91547 0.54089 0.0
H1796 H 0.06993 0.97274 0.55729 0.0
H1797 H 0.03657 0.95241 0.55892 0.0
C1798 C 0.03212 0.91025 0.55202 0.0
C1799 C 0.03203 0.88814 0.54784 0.0
C1800 C 0.05124 0.92202 0.55118 0.0
C1801 C 0.05151 0.87779 0.54362 0.0
C1802 C 0.07063 0.88939 0.54275 0.0
C1803 C 0.08968 0.92344 0.54492 0.0
C1804 C 0.08961 0.94563 0.5486 0.0
C1805 C 0.07064 0.91155 0.54626 0.0
C1806 C 0.07029 0.95578 0.55383 0.0
C1807 C 0.05126 0.94412 0.55498 0.0
H1808 H 0.30216 0.82961 0.82666 0.0
H1809 H 0.29754 0.83442 0.75813 0.0
H1810 H 0.32004 0.80269 0.75402 0.0
H1811 H 0.34143 0.77398 0.76995 0.0
H1812 H 0.3464 0.76893 0.83843 0.0
H1813 H 0.32341 0.80041 0.84268 0.0
C1814 C 0.30626 0.82371 0.81087 0.0
C1815 C 0.29855 0.83439 0.79269 0.0
C1816 C 0.31933 0.80558 0.80867 0.0
C1817 C 0.30341 0.82642 0.7723 0.0
C1818 C 0.31632 0.80837 0.76996 0.0
C1819 C 0.33783 0.78005 0.78578 0.0
C1820 C 0.3461 0.76965 0.80387 0.0
C1821 C 0.32454 0.79797 0.78803 0.0
C1822 C 0.34048 0.777 0.82431 0.0
C1823 C 0.32733 0.79492 0.82672 0.0
H1824 H 0.45385 0.88383 0.46057 0.0
H1825 H 0.49824 0.93245 0.4401 0.0
H1826 H 0.46952 0.95889 0.43993 0.0
H1827 H 0.43161 0.96834 0.44601 0.0
H1828 H 0.3878 0.91976 0.46758 0.0
H1829 H 0.41652 0.8933 0.46752 0.0
C1830 C 0.45739 0.90027 0.45651 0.0
C1831 C 0.4783 0.90619 0.45083 0.0
C1832 C 0.44088 0.91547 0.4568 0.0
C1833 C 0.48229 0.92743 0.4446 0.0
C1834 C 0.4659 0.94262 0.44463 0.0
C1835 C 0.42854 0.95203 0.45102 0.0
C1836 C 0.40776 0.94598 0.45701 0.0
C1837 C 0.44515 0.93687 0.45086 0.0
C1838 C 0.40375 0.92472 0.46297 0.0
C1839 C 0.42013 0.9096 0.4629 0.0
H1840 H 0.2796 0.17964 0.69491 0.0
H1841 H 0.32397 0.14109 0.73066 0.0
H1842 H 0.34992 0.17035 0.73079 0.0
H1843 H 0.36064 0.20592 0.71888 0.0
H1844 H 0.31551 0.24575 0.68529 0.0
H1845 H 0.28952 0.21668 0.68538 0.0
C1846 C 0.29475 0.17794 0.70316 0.0
C1847 C 0.29989 0.15844 0.71296 0.0
C1848 C 0.3096 0.19483 0.70312 0.0
C1849 C 0.31972 0.1561 0.72317 0.0
C1850 C 0.33458 0.17274 0.72311 0.0
C1851 C 0.34495 0.20864 0.71221 0.0
C1852 C 0.33998 0.22833 0.70263 0.0
C1853 C 0.32979 0.19209 0.71291 0.0
C1854 C 0.31986 0.23082 0.69286 0.0
C1855 C 0.30486 0.21424 0.69304 0.0
H1856 H 0.07655 0.04242 0.92025 0.0
H1857 H 0.08627 0.045 0.98837 0.0
H1858 H 0.05547 0.06885 0.99217 0.0
H1859 H 0.02614 0.08928 0.97601 0.0
H1860 H 0.01755 0.08839 0.90763 0.0
H1861 H 0.04764 0.06368 0.90395 0.0
C1862 C 0.0721 0.04851 0.93586 0.0
C1863 C 0.0838 0.04228 0.95398 0.0
C1864 C 0.05468 0.06258 0.93783 0.0
C1865 C 0.07744 0.04961 0.97421 0.0
C1866 C 0.05993 0.06332 0.97637 0.0
C1867 C 0.03121 0.08421 0.96024 0.0
C1868 C 0.02004 0.09125 0.94203 0.0
C1869 C 0.04858 0.0701 0.95826 0.0
C1870 C 0.0261 0.08346 0.92185 0.0
C1871 C 0.04327 0.06932 0.91974 0.0
H1872 H 0.12962 0.80072 0.20349 0.0
H1873 H 0.18131 0.75744 0.18904 0.0
H1874 H 0.20642 0.78726 0.1882 0.0
H1875 H 0.214 0.82565 0.19265 0.0
H1876 H 0.16264 0.86863 0.20866 0.0
H1877 H 0.13717 0.83895 0.20823 0.0
C1878 C 0.14641 0.79773 0.20054 0.0
C1879 C 0.15359 0.77678 0.19683 0.0
C1880 C 0.16087 0.81493 0.20048 0.0
C1881 C 0.17531 0.7734 0.19202 0.0
C1882 C 0.18974 0.79043 0.19167 0.0
C1883 C 0.19727 0.82839 0.19631 0.0
C1884 C 0.19018 0.84915 0.20093 0.0
C1885 C 0.18276 0.81123 0.19613 0.0
C1886 C 0.16841 0.8527 0.20509 0.0
C1887 C 0.15387 0.83576 0.20486 0.0
H1888 H 0.07199 0.41378 0.05169 0.0
H1889 H 0.00366 0.40525 0.05169 0.0
H1890 H 0.99952 0.43615 0.07545 0.0
H1891 H 0.01544 0.46572 0.09592 0.0
H1892 H 0.08383 0.47413 0.09621 0.0
H1893 H 0.08799 0.44298 0.07284 0.0
C1894 C 0.05626 0.41856 0.0572 0.0
C1895 C 0.03816 0.40717 0.05036 0.0
C1896 C 0.05407 0.43617 0.07097 0.0
C1897 C 0.01778 0.41383 0.05693 0.0
C1898 C 0.01544 0.43139 0.07053 0.0
C1899 C 0.03128 0.46036 0.09134 0.0
C1900 C 0.04937 0.47176 0.09827 0.0
C1901 C 0.03348 0.44261 0.07775 0.0
C1902 C 0.06972 0.46533 0.09133 0.0
C1903 C 0.07209 0.4476 0.07793 0.0
H1904 H 0.52048 0.02819 0.90603 0.0
H1905 H 0.58831 0.01762 0.91169 0.0
H1906 H 0.59138 0.04878 0.9353 0.0
H1907 H 0.57463 0.07921 0.95408 0.0
H1908 H 0.50704 0.09035 0.94706 0.0
H1909 H 0.50386 0.05859 0.92437 0.0
C1910 C 0.53603 0.03303 0.91195 0.0
C1911 C 0.5543 0.0211 0.90652 0.0
C1912 C 0.53762 0.05089 0.92545 0.0
C1913 C 0.57412 0.02685 0.91534 0.0
C1914 C 0.57585 0.04459 0.92886 0.0
C1915 C 0.5593 0.0748 0.9473 0.0
C1916 C 0.54115 0.08724 0.95181 0.0
C1917 C 0.55771 0.05679 0.93395 0.0
C1918 C 0.52121 0.08099 0.94367 0.0
C1919 C 0.51942 0.06294 0.93064 0.0
H1920 H 0.20558 0.29172 0.13629 0.0
H1921 H 0.24979 0.30957 0.1861 0.0
H1922 H 0.22055 0.31045 0.21199 0.0
H1923 H 0.18228 0.30503 0.22072 0.0
H1924 H 0.13935 0.28366 0.17121 0.0
H1925 H 0.1683 0.28454 0.14514 0.0
C1926 C 0.20902 0.29522 0.15288 0.0
C1927 C 0.23002 0.2999 0.15928 0.0
C1928 C 0.19231 0.29492 0.16782 0.0
C1929 C 0.2338 0.30574 0.18069 0.0
C1930 C 0.21711 0.3061 0.19558 0.0
C1931 C 0.17945 0.30024 0.2043 0.0
C1932 C 0.15878 0.29429 0.19785 0.0
C1933 C 0.19632 0.30043 0.18939 0.0
C1934 C 0.15513 0.28851 0.17646 0.0
C1935 C 0.17166 0.28897 0.16155 0.0
H1936 H 0.95223 0.98293 0.42887 0.0
H1937 H 0.96821 0.95011 0.37036 0.0
H1938 H 0.97115 0.91639 0.38972 0.0
H1939 H 0.96931 0.89618 0.42331 0.0
H1940 H 0.95098 0.92826 0.48145 0.0
H1941 H 0.94919 0.96239 0.46239 0.0
C1942 C 0.95621 0.96835 0.42037 0.0
C1943 C 0.96042 0.96907 0.3983 0.0
C1944 C 0.95775 0.94897 0.43161 0.0
C1945 C 0.96548 0.95007 0.38745 0.0
C1946 C 0.96707 0.93076 0.39848 0.0
C1947 C 0.96508 0.91072 0.43178 0.0
C1948 C 0.96079 0.90989 0.45379 0.0
C1949 C 0.96342 0.93006 0.42058 0.0
C1950 C 0.95502 0.92869 0.46462 0.0
C1951 C 0.95371 0.94812 0.45367 0.0
H1952 H 0.84069 0.22272 0.18772 0.0
H1953 H 0.83545 0.15486 0.19782 0.0
H1954 H 0.80423 0.15334 0.17419 0.0
H1955 H 0.77885 0.17144 0.15012 0.0
H1956 H 0.78275 0.23988 0.14265 0.0
H1957 H 0.81412 0.24106 0.16543 0.0
C1958 C 0.83257 0.20767 0.18477 0.0
C1959 C 0.84043 0.18887 0.19399 0.0
C1960 C 0.81463 0.20699 0.17136 0.0
C1961 C 0.82982 0.16943 0.19038 0.0
C1962 C 0.81199 0.16859 0.17696 0.0
C1963 C 0.78671 0.18656 0.15336 0.0
C1964 C 0.77907 0.20536 0.14376 0.0
C1965 C 0.80439 0.18725 0.16717 0.0
C1966 C 0.78898 0.22495 0.14866 0.0
C1967 C 0.80674 0.22573 0.16209 0.0
H1968 H 0.47921 0.58575 0.55276 0.0
H1969 H 0.4119 0.58189 0.53907 0.0
H1970 H 0.40894 0.54937 0.56079 0.0
H1971 H 0.42564 0.52246 0.58439 0.0
H1972 H 0.49317 0.52663 0.59759 0.0
H1973 H 0.49596 0.5586 0.57565 0.0
C1974 C 0.46398 0.57763 0.55452 0.0
C1975 C 0.44578 0.58604 0.5446 0.0
C1976 C 0.46242 0.5592 0.56717 0.0
C1977 C 0.42605 0.57559 0.5468 0.0
C1978 C 0.42438 0.55708 0.55919 0.0
C1979 C 0.44089 0.53051 0.58254 0.0
C1980 C 0.45898 0.52264 0.59323 0.0
C1981 C 0.44243 0.54884 0.56964 0.0
C1982 C 0.47879 0.53288 0.59032 0.0
C1983 C 0.48048 0.55103 0.57752 0.0
H1984 H 0.2067 0.70961 0.35886 0.0
H1985 H 0.25113 0.69355 0.30864 0.0
H1986 H 0.22202 0.69335 0.28261 0.0
H1987 H 0.18371 0.69813 0.27401 0.0
H1988 H 0.1398 0.71511 0.32428 0.0
H1989 H 0.16893 0.71515 0.35029 0.0
C1990 C 0.21012 0.70649 0.34218 0.0
C1991 C 0.23115 0.70206 0.33568 0.0
C1992 C 0.19337 0.70672 0.32725 0.0
C1993 C 0.23508 0.69706 0.3141 0.0
C1994 C 0.21846 0.69708 0.29915 0.0
C1995 C 0.1807 0.70216 0.2906 0.0
C1996 C 0.1598 0.70686 0.29726 0.0
C1997 C 0.19755 0.70204 0.3055 0.0
C1998 C 0.15586 0.71154 0.31886 0.0
C1999 C 0.17247 0.71152 0.33372 0.0
H2000 H 0.27019 0.26845 0.83866 0.0
H2001 H 0.27322 0.3347 0.85719 0.0
H2002 H 0.30454 0.33995 0.83417 0.0
H2003 H 0.33123 0.32542 0.80901 0.0
H2004 H 0.32782 0.2592 0.79029 0.0
H2005 H 0.29631 0.25413 0.81298 0.0
C2006 C 0.27796 0.28392 0.8379 0.0
C2007 C 0.2699 0.30105 0.85001 0.0
C2008 C 0.29571 0.28681 0.82446 0.0
C2009 C 0.27946 0.32125 0.84823 0.0
C2010 C 0.29729 0.32424 0.83507 0.0
C2011 C 0.32357 0.30989 0.81 0.0
C2012 C 0.33184 0.29264 0.7982 0.0
C2013 C 0.30558 0.30711 0.82316 0.0
C2014 C 0.32163 0.27269 0.79921 0.0
C2015 C 0.30373 0.26977 0.81227 0.0
H2016 H 0.53093 0.55222 0.92874 0.0
H2017 H 0.58038 0.52739 0.88771 0.0
H2018 H 0.60575 0.52782 0.91739 0.0
H2019 H 0.61406 0.53603 0.9547 0.0
H2020 H 0.56443 0.55927 0.99653 0.0
H2021 H 0.53911 0.55932 0.96678 0.0
C2022 C 0.54715 0.54655 0.9265 0.0
C2023 C 0.55379 0.53956 0.90623 0.0
C2024 C 0.56168 0.54688 0.94367 0.0
C2025 C 0.57497 0.53277 0.90327 0.0
C2026 C 0.58948 0.53307 0.92018 0.0
C2027 C 0.59762 0.54065 0.95747 0.0
C2028 C 0.59107 0.54712 0.97796 0.0
C2029 C 0.58304 0.54017 0.94043 0.0
C2030 C 0.56991 0.55412 0.98093 0.0
C2031 C 0.55536 0.55402 0.96396 0.0
H2032 H 0.73105 0.3 0.16301 0.0
H2033 H 0.6656 0.2806 0.17192 0.0
H2034 H 0.66311 0.30259 0.20423 0.0
H2035 H 0.67917 0.32885 0.22893 0.0
H2036 H 0.74589 0.34491 0.22193 0.0
H2037 H 0.74823 0.32302 0.18996 0.0
C2038 C 0.71638 0.30041 0.17225 0.0
C2039 C 0.69838 0.28922 0.16493 0.0
C2040 C 0.71517 0.31286 0.19091 0.0
C2041 C 0.67947 0.28962 0.17703 0.0
C2042 C 0.67807 0.30212 0.19551 0.0
C2043 C 0.69419 0.32762 0.22034 0.0
C2044 C 0.71192 0.33967 0.22712 0.0
C2045 C 0.6957 0.31417 0.20236 0.0
C2046 C 0.7315 0.33719 0.21629 0.0
C2047 C 0.73302 0.32423 0.19818 0.0
H2048 H 0.91553 0.48643 0.47169 0.0
H2049 H 0.89576 0.4206 0.46742 0.0
H2050 H 0.91892 0.41538 0.43621 0.0
H2051 H 0.94421 0.42988 0.40983 0.0
H2052 H 0.96428 0.49562 0.41418 0.0
H2053 H 0.94181 0.50064 0.44593 0.0
C2054 C 0.9161 0.47107 0.46366 0.0
C2055 C 0.9036 0.45404 0.47128 0.0
C2056 C 0.92962 0.4682 0.44597 0.0
C2057 C 0.90505 0.43395 0.46147 0.0
C2058 C 0.91829 0.43099 0.44373 0.0
C2059 C 0.94358 0.44529 0.41775 0.0
C2060 C 0.95556 0.46246 0.40965 0.0
C2061 C 0.93055 0.44803 0.43579 0.0
C2062 C 0.95511 0.48223 0.42023 0.0
C2063 C 0.94219 0.48511 0.43824 0.0
H2064 H 0.77257 0.65993 0.72135 0.0
H2065 H 0.84108 0.65583 0.72715 0.0
H2066 H 0.84533 0.68032 0.69683 0.0
H2067 H 0.82931 0.70253 0.66837 0.0
H2068 H 0.76077 0.70593 0.66259 0.0
H2069 H 0.75664 0.68227 0.69346 0.0
C2070 C 0.78843 0.66405 0.71569 0.0
C2071 C 0.80652 0.65558 0.72593 0.0
C2072 C 0.79067 0.67815 0.69844 0.0
C2073 C 0.82696 0.66188 0.71917 0.0
C2074 C 0.82937 0.67589 0.70192 0.0
C2075 C 0.81352 0.69786 0.67382 0.0
C2076 C 0.79534 0.70551 0.66311 0.0
C2077 C 0.81133 0.68404 0.69137 0.0
C2078 C 0.77493 0.70006 0.67063 0.0
C2079 C 0.77259 0.68648 0.68816 0.0
H2080 H 0.61451 0.45439 0.54121 0.0
H2081 H 0.5627 0.44276 0.49719 0.0
H2082 H 0.53753 0.44081 0.5269 0.0
H2083 H 0.52995 0.44317 0.5655 0.0
H2084 H 0.58148 0.45609 0.60933 0.0
H2085 H 0.60694 0.45713 0.57967 0.0
C2086 C 0.59769 0.45183 0.53805 0.0
C2087 C 0.59051 0.44919 0.51691 0.0
C2088 C 0.58318 0.45101 0.55523 0.0
C2089 C 0.56872 0.44491 0.51328 0.0
C2090 C 0.55425 0.4439 0.53026 0.0
C2091 C 0.54672 0.44646 0.56845 0.0
C2092 C 0.55384 0.44974 0.58948 0.0
C2093 C 0.56125 0.44712 0.55129 0.0
C2094 C 0.57567 0.45349 0.59323 0.0
C2095 C 0.59021 0.45412 0.57629 0.0
H2096 H 0.81904 0.34137 0.77576 0.0
H2097 H 0.75171 0.35609 0.77721 0.0
H2098 H 0.74672 0.33251 0.80767 0.0
H2099 H 0.76161 0.30818 0.83473 0.0
H2100 H 0.82876 0.29328 0.83354 0.0
H2101 H 0.8337 0.31591 0.80196 0.0
C2102 C 0.80333 0.33948 0.78288 0.0
C2103 C 0.78599 0.35115 0.77478 0.0
C2104 C 0.80049 0.32558 0.80026 0.0
C2105 C 0.76558 0.34815 0.78375 0.0
C2106 C 0.76261 0.33437 0.801 0.0
C2107 C 0.7772 0.30972 0.82726 0.0
C2108 C 0.79479 0.29917 0.83613 0.0
C2109 C 0.77995 0.3231 0.80948 0.0
C2110 C 0.81503 0.30129 0.82669 0.0
C2111 C 0.81786 0.3143 0.80879 0.0
H2112 H 0.8818 0.53568 0.04867 0.0
H2113 H 0.92828 0.5557 0.00186 0.0
H2114 H 0.95614 0.556 0.0292 0.0
H2115 H 0.96735 0.55089 0.06674 0.0
H2116 H 0.9207 0.53133 0.11343 0.0
H2117 H 0.89302 0.52995 0.08585 0.0
C2118 C 0.89807 0.53977 0.04438 0.0
C2119 C 0.90297 0.54536 0.02318 0.0
C2120 C 0.91406 0.53982 0.06017 0.0
C2121 C 0.92404 0.55136 0.01808 0.0
C2122 C 0.94004 0.55141 0.03367 0.0
C2123 C 0.95119 0.54599 0.07068 0.0
C2124 C 0.94602 0.54093 0.0919 0.0
C2125 C 0.93527 0.54563 0.05478 0.0
C2126 C 0.92497 0.5351 0.09708 0.0
C2127 C 0.90915 0.53441 0.08135 0.0
H2128 H 0.73024 0.69168 0.34243 0.0
H2129 H 0.66342 0.70669 0.33597 0.0
H2130 H 0.66075 0.68307 0.30476 0.0
H2131 H 0.67747 0.65741 0.27986 0.0
H2132 H 0.74477 0.64374 0.28586 0.0
H2133 H 0.74722 0.66722 0.31676 0.0
C2134 C 0.71518 0.68981 0.33401 0.0
C2135 C 0.697 0.70056 0.34141 0.0
C2136 C 0.7138 0.67617 0.31626 0.0
C2137 C 0.67753 0.69825 0.33053 0.0
C2138 C 0.67602 0.68479 0.31276 0.0
C2139 C 0.6926 0.65948 0.28809 0.0
C2140 C 0.71066 0.64808 0.28115 0.0
C2141 C 0.69401 0.67346 0.30562 0.0
C2142 C 0.73033 0.65137 0.29153 0.0
C2143 C 0.73186 0.66512 0.30902 0.0
H2144 H 0.9298 0.53298 0.55276 0.0
H2145 H 0.88765 0.58436 0.53486 0.0
H2146 H 0.9175 0.60961 0.5357 0.0
H2147 H 0.95561 0.617 0.54125 0.0
H2148 H 0.99822 0.5654 0.55763 0.0
H2149 H 0.96819 0.54046 0.55818 0.0
C2150 C 0.9273 0.54966 0.54877 0.0
C2151 C 0.90671 0.55681 0.54347 0.0
C2152 C 0.94456 0.56407 0.54922 0.0
C2153 C 0.90345 0.57854 0.53891 0.0
C2154 C 0.92048 0.59296 0.53939 0.0
C2155 C 0.95842 0.60026 0.54458 0.0
C2156 C 0.97925 0.59304 0.54889 0.0
C2157 C 0.94113 0.5859 0.54445 0.0
C2158 C 0.98237 0.57142 0.55418 0.0
C2159 C 0.96522 0.55708 0.55436 0.0
H2160 H 0.67998 0.74094 0.80011 0.0
H2161 H 0.62227 0.70398 0.79212 0.0
H2162 H 0.64314 0.67104 0.79144 0.0
H2163 H 0.6778 0.65284 0.79203 0.0
H2164 H 0.73545 0.68916 0.80237 0.0
H2165 H 0.71467 0.72237 0.80288 0.0
C2166 C 0.67197 0.72565 0.79841 0.0
C2167 C 0.64965 0.72494 0.79564 0.0
C2168 C 0.68408 0.70673 0.79822 0.0
C2169 C 0.63948 0.70502 0.79358 0.0
C2170 C 0.65139 0.68617 0.79333 0.0
C2171 C 0.68578 0.66802 0.79463 0.0
C2172 C 0.70812 0.66863 0.79698 0.0
C2173 C 0.6737 0.68687 0.79538 0.0
C2174 C 0.71831 0.68838 0.80008 0.0
C2175 C 0.70641 0.70731 0.80057 0.0
H2176 H 0.58306 0.44444 0.02198 0.0
H2177 H 0.5742 0.46088 0.08821 0.0
H2178 H 0.54353 0.43654 0.09048 0.0
H2179 H 0.51988 0.40976 0.07371 0.0
H2180 H 0.52811 0.39492 0.00682 0.0
H2181 H 0.55846 0.41892 0.00484 0.0
C2182 C 0.57419 0.44281 0.03679 0.0
C2183 C 0.5808 0.45421 0.05493 0.0
C2184 C 0.55676 0.42868 0.03798 0.0
C2185 C 0.56937 0.45204 0.07411 0.0
C2186 C 0.55192 0.43812 0.07541 0.0
C2187 C 0.52845 0.41164 0.05875 0.0
C2188 C 0.52216 0.39967 0.04074 0.0
C2189 C 0.54563 0.42612 0.0575 0.0
C2190 C 0.53313 0.4028 0.02133 0.0
C2191 C 0.55034 0.41695 0.02003 0.0
H2192 H 0.80589 0.33044 0.26803 0.0
H2193 H 0.79729 0.32661 0.3362 0.0
H2194 H 0.81909 0.29411 0.33744 0.0
H2195 H 0.8414 0.26724 0.31906 0.0
H2196 H 0.84784 0.27 0.25048 0.0
H2197 H 0.82631 0.30238 0.24943 0.0
C2198 C 0.80877 0.32236 0.28309 0.0
C2199 C 0.80047 0.331 0.30205 0.0
C2200 C 0.82115 0.30364 0.28362 0.0
C2201 C 0.80399 0.32039 0.32149 0.0
C2202 C 0.81637 0.30181 0.32218 0.0
C2203 C 0.83814 0.27502 0.30392 0.0
C2204 C 0.84708 0.26677 0.28502 0.0
C2205 C 0.82523 0.29341 0.30336 0.0
C2206 C 0.84221 0.27664 0.26543 0.0
C2207 C 0.82958 0.29501 0.26475 0.0
H2208 H 0.91028 0.44592 0.97936 0.0
H2209 H 0.91366 0.4616 0.9125 0.0
H2210 H 0.94567 0.43927 0.90847 0.0
H2211 H 0.97178 0.4139 0.92395 0.0
H2212 H 0.9681 0.39922 0.99123 0.0
H2213 H 0.93721 0.42221 0.99509 0.0
C2214 C 0.91824 0.44457 0.964 0.0
C2215 C 0.90972 0.45509 0.94621 0.0
C2216 C 0.93636 0.43156 0.96182 0.0
C2217 C 0.92 0.45337 0.92634 0.0
C2218 C 0.93821 0.44061 0.92405 0.0
C2219 C 0.96411 0.4157 0.9394 0.0
C2220 C 0.97179 0.40409 0.95703 0.0
C2221 C 0.94635 0.42933 0.94163 0.0
C2222 C 0.96204 0.40704 0.9771 0.0
C2223 C 0.94446 0.42049 0.97944 0.0
H2224 H 0.83026 0.64162 0.20631 0.0
H2225 H 0.7716 0.67647 0.19711 0.0
H2226 H 0.79161 0.71004 0.19487 0.0
H2227 H 0.82569 0.72949 0.19626 0.0
H2228 H 0.88451 0.6948 0.20535 0.0
H2229 H 0.86463 0.6611 0.20673 0.0
C2230 C 0.82193 0.65659 0.20371 0.0
C2231 C 0.79951 0.65669 0.20209 0.0
C2232 C 0.83357 0.67579 0.20242 0.0
C2233 C 0.78883 0.67612 0.19877 0.0
C2234 C 0.80027 0.69526 0.19737 0.0
C2235 C 0.83418 0.71452 0.19834 0.0
C2236 C 0.85652 0.71465 0.20092 0.0
C2237 C 0.82263 0.69529 0.19926 0.0
C2238 C 0.86729 0.69516 0.20372 0.0
C2239 C 0.85593 0.67589 0.20442 0.0
H2240 H 0.54221 0.61375 0.45797 0.0
H2241 H 0.49817 0.56523 0.43638 0.0
H2242 H 0.52724 0.53929 0.43463 0.0
H2243 H 0.56533 0.53018 0.43967 0.0
H2244 H 0.60884 0.57844 0.4626 0.0
H2245 H 0.57981 0.60455 0.46387 0.0
C2246 C 0.53883 0.59742 0.45334 0.0
C2247 C 0.5179 0.59139 0.4478 0.0
C2248 C 0.55556 0.58247 0.45271 0.0
C2249 C 0.51412 0.57034 0.44081 0.0
C2250 C 0.53071 0.55543 0.43991 0.0
C2251 C 0.56828 0.54632 0.44528 0.0
C2252 C 0.58903 0.55238 0.45132 0.0
C2253 C 0.55148 0.56125 0.44598 0.0
C2254 C 0.5929 0.57347 0.45797 0.0
C2255 C 0.57634 0.58839 0.45868 0.0
H2256 H 0.67335 0.27008 0.69213 0.0
H2257 H 0.6154 0.30648 0.70018 0.0
H2258 H 0.63595 0.33976 0.69959 0.0
H2259 H 0.67065 0.35839 0.69832 0.0
H2260 H 0.72852 0.32201 0.69002 0.0
H2261 H 0.70782 0.28877 0.68922 0.0
C2262 C 0.66522 0.28533 0.69353 0.0
C2263 C 0.64295 0.28585 0.69653 0.0
C2264 C 0.67715 0.30434 0.69331 0.0
C2265 C 0.63259 0.30567 0.69834 0.0
C2266 C 0.64432 0.32469 0.69791 0.0
C2267 C 0.67865 0.34316 0.69616 0.0
C2268 C 0.70103 0.34251 0.69447 0.0
C2269 C 0.66663 0.3242 0.6957 0.0
C2270 C 0.71131 0.32277 0.69173 0.0
C2271 C 0.69948 0.30383 0.69116 0.0
H2272 H 0.51448 0.91398 0.55313 0.0
H2273 H 0.58251 0.91252 0.54309 0.0
H2274 H 0.58702 0.94385 0.56631 0.0
H2275 H 0.57151 0.97043 0.59111 0.0
H2276 H 0.50317 0.97148 0.60053 0.0
H2277 H 0.49888 0.94157 0.57629 0.0
C2278 C 0.5302 0.9208 0.55587 0.0
C2279 C 0.54814 0.91117 0.54665 0.0
C2280 C 0.53264 0.93846 0.56948 0.0
C2281 C 0.56852 0.91987 0.55018 0.0
C2282 C 0.57108 0.93764 0.5635 0.0
C2283 C 0.55572 0.96402 0.58789 0.0
C2284 C 0.53784 0.9727 0.59837 0.0
C2285 C 0.55327 0.94684 0.57357 0.0
C2286 C 0.5174 0.96458 0.5936 0.0
C2287 C 0.51483 0.94759 0.57943 0.0
H2288 H 0.02069 0.52466 0.40224 0.0
H2289 H 0.08941 0.51977 0.39934 0.0
H2290 H 0.09272 0.54951 0.42457 0.0
H2291 H 0.07598 0.57731 0.44693 0.0
H2292 H 0.0074 0.58322 0.44824 0.0
H2293 H 0.00401 0.55226 0.42443 0.0
C2294 C 0.03641 0.53039 0.40661 0.0
C2295 C 0.05481 0.52043 0.39833 0.0
C2296 C 0.03816 0.54745 0.42109 0.0
C2297 C 0.07502 0.52741 0.40522 0.0
C2298 C 0.07691 0.54434 0.41969 0.0
C2299 C 0.06034 0.5719 0.44177 0.0
C2300 C 0.04196 0.58271 0.44881 0.0
C2301 C 0.05859 0.55454 0.42764 0.0
C2302 C 0.02173 0.57514 0.44283 0.0
C2303 C 0.01982 0.55758 0.42912 0.0
H2304 H 0.67699 0.80807 0.71577 0.0
H2305 H 0.63759 0.77696 0.6686 0.0
H2306 H 0.66718 0.77752 0.64302 0.0
H2307 H 0.70378 0.78785 0.63384 0.0
H2308 H 0.74423 0.81663 0.68177 0.0
H2309 H 0.71452 0.81668 0.70705 0.0
C2310 C 0.67511 0.80103 0.70003 0.0
C2311 C 0.65532 0.79226 0.69408 0.0
C2312 C 0.69223 0.80133 0.68546 0.0
C2313 C 0.6528 0.78368 0.67349 0.0
C2314 C 0.66965 0.78408 0.65886 0.0
C2315 C 0.70639 0.79356 0.64995 0.0
C2316 C 0.72649 0.80166 0.65597 0.0
C2317 C 0.68942 0.79295 0.66465 0.0
C2318 C 0.72899 0.81019 0.67665 0.0
C2319 C 0.71204 0.8101 0.69121 0.0
H2320 H 0.42226 0.42119 0.94881 0.0
H2321 H 0.48966 0.40746 0.94602 0.0
H2322 H 0.49542 0.43872 0.92315 0.0
H2323 H 0.48105 0.46942 0.90341 0.0
H2324 H 0.41349 0.48272 0.90527 0.0
H2325 H 0.40786 0.45205 0.92896 0.0
C2326 C 0.43814 0.425 0.94297 0.0
C2327 C 0.45548 0.41195 0.94865 0.0
C2328 C 0.44121 0.44274 0.92958 0.0
C2329 C 0.47611 0.4173 0.94166 0.0
C2330 C 0.47936 0.43507 0.92855 0.0
C2331 C 0.46503 0.46529 0.90858 0.0
C2332 C 0.44758 0.47783 0.90206 0.0
C2333 C 0.46198 0.44773 0.92218 0.0
C2334 C 0.42708 0.47301 0.90981 0.0
C2335 C 0.42388 0.45554 0.92337 0.0
H2336 H 0.26363 0.69136 0.675 0.0
H2337 H 0.29941 0.70767 0.61837 0.0
H2338 H 0.33225 0.70975 0.63935 0.0
H2339 H 0.35074 0.70755 0.67392 0.0
H2340 H 0.31556 0.68958 0.73033 0.0
H2341 H 0.28248 0.68775 0.70944 0.0
C2342 C 0.27866 0.69522 0.66725 0.0
C2343 C 0.27901 0.6998 0.64524 0.0
C2344 C 0.29752 0.6963 0.67943 0.0
C2345 C 0.29859 0.7047 0.63539 0.0
C2346 C 0.3174 0.70576 0.64736 0.0
C2347 C 0.33581 0.70318 0.68159 0.0
C2348 C 0.33546 0.69905 0.70365 0.0
C2349 C 0.31702 0.70179 0.66941 0.0
C2350 C 0.31608 0.69336 0.71345 0.0
C2351 C 0.29724 0.69211 0.70147 0.0
H2352 H 0.97792 0.08634 0.0478 0.0
H2353 H 0.91121 0.08042 0.03202 0.0
H2354 H 0.90757 0.05035 0.05689 0.0
H2355 H 0.92321 0.02695 0.08448 0.0
H2356 H 0.99051 0.03219 0.09868 0.0
H2357 H 0.99403 0.06144 0.07351 0.0
C2358 C 0.96271 0.07819 0.04967 0.0
C2359 C 0.94481 0.08548 0.03841 0.0
C2360 C 0.96075 0.06116 0.06409 0.0
C2361 C 0.92512 0.075 0.04078 0.0
C2362 C 0.92304 0.05793 0.05501 0.0
C2363 C 0.93859 0.03462 0.08214 0.0
C2364 C 0.95628 0.02805 0.09431 0.0
C2365 C 0.94068 0.05113 0.06706 0.0
C2366 C 0.97628 0.03768 0.09059 0.0
C2367 C 0.97845 0.0542 0.07582 0.0
H2368 H 0.64506 0.21497 0.8226 0.0
H2369 H 0.67972 0.20078 0.7648 0.0
H2370 H 0.71322 0.19899 0.78504 0.0
H2371 H 0.73258 0.20137 0.81932 0.0
H2372 H 0.69764 0.21495 0.87718 0.0
H2373 H 0.66432 0.2169 0.85689 0.0
C2374 C 0.65998 0.21148 0.81448 0.0
C2375 C 0.66003 0.20827 0.79223 0.0
C2376 C 0.67909 0.21032 0.82626 0.0
C2377 C 0.6794 0.20374 0.78185 0.0
C2378 C 0.6985 0.20255 0.79345 0.0
C2379 C 0.71764 0.20465 0.82749 0.0
C2380 C 0.71765 0.20831 0.8497 0.0
C2381 C 0.69853 0.20579 0.81568 0.0
C2382 C 0.69818 0.21258 0.86005 0.0
C2383 C 0.67908 0.21356 0.84847 0.0
H2384 H 0.76018 0.79602 0.31865 0.0
H2385 H 0.79608 0.79074 0.37723 0.0
H2386 H 0.8294 0.78869 0.35696 0.0
H2387 H 0.84834 0.7884 0.32262 0.0
H2388 H 0.81296 0.7951 0.26395 0.0
H2389 H 0.77933 0.79618 0.28409 0.0
C2390 C 0.77534 0.79456 0.32693 0.0
C2391 C 0.7757 0.79326 0.34937 0.0
C2392 C 0.79444 0.79336 0.31514 0.0
C2393 C 0.79539 0.79134 0.35995 0.0
C2394 C 0.81443 0.79023 0.34838 0.0
C2395 C 0.83322 0.79001 0.31429 0.0
C2396 C 0.833 0.79137 0.29188 0.0
C2397 C 0.81413 0.79111 0.32599 0.0
C2398 C 0.81341 0.79351 0.28118 0.0
C2399 C 0.79425 0.79439 0.29271 0.0
H2400 H 0.1639 0.08891 0.32958 0.0
H2401 H 0.17324 0.02099 0.32168 0.0
H2402 H 0.13463 0.01579 0.31956 0.0
H2403 H 0.09853 0.03057 0.31863 0.0
H2404 H 0.08901 0.09859 0.32531 0.0
H2405 H 0.12767 0.10381 0.32838 0.0
C2406 C 0.15756 0.07296 0.32738 0.0
C2407 C 0.17152 0.0554 0.32559 0.0
C2408 C 0.13539 0.07016 0.32552 0.0
C2409 C 0.16291 0.03481 0.32307 0.0
C2410 C 0.14083 0.03183 0.3217 0.0
C2411 C 0.10486 0.04659 0.32062 0.0
C2412 C 0.09089 0.06418 0.32164 0.0
C2413 C 0.12698 0.04942 0.32258 0.0
C2414 C 0.09941 0.0848 0.32427 0.0
C2415 C 0.12149 0.08776 0.32622 0.0
H2416 H 0.20816 0.83778 0.5369 0.0
H2417 H 0.15375 0.82797 0.5782 0.0
H2418 H 0.15167 0.86641 0.58488 0.0
H2419 H 0.16602 0.90277 0.5796 0.0
H2420 H 0.21744 0.91253 0.53477 0.0
H2421 H 0.22086 0.87395 0.5298 0.0
C2422 C 0.19569 0.84402 0.5472 0.0
C2423 C 0.18135 0.82996 0.55728 0.0
C2424 C 0.1945 0.86606 0.55085 0.0
C2425 C 0.16509 0.8384 0.57033 0.0
C2426 C 0.16402 0.86037 0.57433 0.0
C2427 C 0.17797 0.89641 0.56881 0.0
C2428 C 0.19149 0.91036 0.55758 0.0
C2429 C 0.17885 0.87431 0.56492 0.0
C2430 C 0.20699 0.90198 0.54369 0.0
C2431 C 0.20877 0.87999 0.54066 0.0
H2432 H 0.34352 0.95405 0.79416 0.0
H2433 H 0.3341 0.91134 0.84741 0.0
H2434 H 0.37286 0.90905 0.85258 0.0
H2435 H 0.40953 0.91858 0.84109 0.0
H2436 H 0.41809 0.96399 0.79001 0.0
H2437 H 0.37951 0.96515 0.78418 0.0
C2438 C 0.34992 0.94438 0.80704 0.0
C2439 C 0.336 0.93276 0.82027 0.0
C2440 C 0.37206 0.94322 0.80991 0.0
C2441 C 0.3445 0.92049 0.83704 0.0
C2442 C 0.36665 0.919 0.83985 0.0
C2443 C 0.40289 0.9286 0.82865 0.0
C2444 C 0.4165 0.94106 0.81584 0.0
C2445 C 0.3806 0.93007 0.82617 0.0
C2446 C 0.40781 0.95415 0.79988 0.0
C2447 C 0.3858 0.95496 0.79668 0.0
H2448 H 0.2948 0.08722 0.07691 0.0
H2449 H 0.33648 0.09221 0.02222 0.0
H2450 H 0.33556 0.13111 0.02455 0.0
H2451 H 0.32324 0.16389 0.04252 0.0
H2452 H 0.27864 0.15887 0.09483 0.0
H2453 H 0.28033 0.11996 0.09312 0.0
C2454 C 0.30358 0.09689 0.0655 0.0
C2455 C 0.31575 0.08698 0.04955 0.0
C2456 C 0.3025 0.11925 0.06654 0.0
C2457 C 0.32689 0.09957 0.03462 0.0
C2458 C 0.32647 0.12179 0.03598 0.0
C2459 C 0.31393 0.15419 0.05347 0.0
C2460 C 0.301 0.16407 0.06882 0.0
C2461 C 0.3144 0.13183 0.05193 0.0
C2462 C 0.28868 0.15149 0.08279 0.0
C2463 C 0.28967 0.12927 0.08189 0.0
H2464 H 0.09014 0.96116 0.16027 0.0
H2465 H 0.07586 0.9132 0.20766 0.0
H2466 H 0.11414 0.90922 0.21525 0.0
H2467 H 0.15134 0.91995 0.20866 0.0
H2468 H 0.16569 0.96541 0.15889 0.0
H2469 H 0.12739 0.97 0.15193 0.0
C2470 C 0.09543 0.94984 0.17228 0.0
C2471 C 0.08034 0.93764 0.18363 0.0
C2472 C 0.11731 0.94734 0.17612 0.0
C2473 C 0.08729 0.92273 0.1988 0.0
C2474 C 0.10909 0.92054 0.20317 0.0
C2475 C 0.14604 0.93097 0.19638 0.0
C2476 C 0.16114 0.94262 0.18448 0.0
C2477 C 0.12419 0.93289 0.19202 0.0
C2478 C 0.15424 0.95642 0.16827 0.0
C2479 C 0.13242 0.959 0.16431 0.0
H2480 H 0.2889 0.84671 0.4106 0.0
H2481 H 0.3361 0.82814 0.45723 0.0
H2482 H 0.34219 0.86576 0.46638 0.0
H2483 H 0.33407 0.90372 0.46089 0.0
H2484 H 0.28963 0.92244 0.41168 0.0
H2485 H 0.28233 0.88476 0.40366 0.0
C2486 C 0.30045 0.85094 0.42284 0.0
C2487 C 0.3119 0.83482 0.43346 0.0
C2488 C 0.30429 0.8725 0.42747 0.0
C2489 C 0.32712 0.84038 0.44894 0.0
C2490 C 0.33055 0.86182 0.45416 0.0
C2491 C 0.3227 0.89952 0.44849 0.0
C2492 C 0.31216 0.91568 0.43702 0.0
C2493 C 0.3192 0.87798 0.44353 0.0
C2494 C 0.29783 0.91016 0.4207 0.0
C2495 C 0.29367 0.88869 0.41615 0.0
H2496 H 0.33893 0.08237 0.67243 0.0
H2497 H 0.33087 0.01564 0.68801 0.0
H2498 H 0.36942 0.01199 0.69256 0.0
H2499 H 0.40508 0.02791 0.69332 0.0
H2500 H 0.41321 0.09497 0.67925 0.0
H2501 H 0.37462 0.09859 0.67406 0.0
C2502 C 0.34552 0.06706 0.67698 0.0
C2503 C 0.33191 0.0494 0.68016 0.0
C2504 C 0.36762 0.06525 0.68034 0.0
C2505 C 0.3409 0.02953 0.68547 0.0
C2506 C 0.36294 0.02746 0.68828 0.0
C2507 C 0.39845 0.04341 0.68932 0.0
C2508 C 0.41204 0.06116 0.68672 0.0
C2509 C 0.37638 0.04529 0.68608 0.0
C2510 C 0.40312 0.08109 0.68154 0.0
C2511 C 0.38108 0.08311 0.67833 0.0
H2512 H 0.2082 0.14889 0.91502 0.0
H2513 H 0.15724 0.16716 0.95773 0.0
H2514 H 0.14885 0.12943 0.96413 0.0
H2515 H 0.15623 0.09144 0.9576 0.0
H2516 H 0.20473 0.07323 0.91212 0.0
H2517 H 0.21385 0.11094 0.9065 0.0
C2518 C 0.19529 0.14458 0.92577 0.0
C2519 C 0.18347 0.16065 0.93613 0.0
C2520 C 0.19012 0.12298 0.92872 0.0
C2521 C 0.16655 0.15497 0.94969 0.0
C2522 C 0.16178 0.13346 0.95332 0.0
C2523 C 0.16879 0.09577 0.94646 0.0
C2524 C 0.18 0.07971 0.93543 0.0
C2525 C 0.17348 0.11737 0.94294 0.0
C2526 C 0.19595 0.08541 0.92075 0.0
C2527 C 0.20118 0.1069 0.91762 0.0
H2528 H 0.04207 0.31615 0.16036 0.0
H2529 H 0.09859 0.27728 0.154 0.0
H2530 H 0.09679 0.28019 0.11513 0.0
H2531 H 0.07917 0.29404 0.08283 0.0
H2532 H 0.02085 0.33025 0.08926 0.0
H2533 H 0.0232 0.32802 0.12805 0.0
C2534 C 0.05394 0.30837 0.15038 0.0
C2535 C 0.07046 0.29667 0.15986 0.0
C2536 C 0.05244 0.30955 0.12805 0.0
C2537 C 0.08565 0.28634 0.14692 0.0
C2538 C 0.08468 0.28802 0.12473 0.0
C2539 C 0.06698 0.30133 0.09278 0.0
C2540 C 0.04995 0.3123 0.08327 0.0
C2541 C 0.06814 0.29959 0.1151 0.0
C2542 C 0.03408 0.32155 0.09625 0.0
C2543 C 0.03544 0.32041 0.11844 0.0
H2544 H 0.54185 0.16101 0.90123 0.0
H2545 H 0.59195 0.20439 0.92035 0.0
H2546 H 0.59916 0.21288 0.88277 0.0
H2547 H 0.59015 0.2088 0.84475 0.0
H2548 H 0.54196 0.16332 0.82559 0.0
H2549 H 0.535 0.15462 0.86314 0.0
C2550 C 0.55437 0.17231 0.89713 0.0
C2551 C 0.56619 0.18235 0.91338 0.0
C2552 C 0.55866 0.17668 0.87562 0.0
C2553 C 0.58265 0.19658 0.908 0.0
C2554 C 0.5867 0.20145 0.88659 0.0
C2555 C 0.57814 0.19698 0.84884 0.0
C2556 C 0.56632 0.18689 0.83261 0.0
C2557 C 0.57464 0.19176 0.87032 0.0
C2558 C 0.55114 0.17129 0.83794 0.0
C2559 C 0.54716 0.16637 0.85934 0.0
H2560 H 0.93903 0.78892 0.33908 0.0
H2561 H 0.90697 0.84955 0.33261 0.0
H2562 H 0.90649 0.85364 0.37165 0.0
H2563 H 0.9154 0.83968 0.4076 0.0
H2564 H 0.95028 0.78049 0.41296 0.0
H2565 H 0.94866 0.77561 0.37428 0.0
C2566 C 0.93199 0.80309 0.34619 0.0
C2567 C 0.92307 0.81892 0.33307 0.0
C2568 C 0.93189 0.80532 0.36842 0.0
C2569 C 0.91415 0.83726 0.34245 0.0
C2570 C 0.91368 0.83948 0.36473 0.0
C2571 C 0.92245 0.82567 0.40025 0.0
C2572 C 0.93287 0.81039 0.41298 0.0
C2573 C 0.92243 0.82353 0.37788 0.0
C2574 C 0.9421 0.79236 0.40337 0.0
C2575 C 0.94133 0.78966 0.3813 0.0
H2576 H 0.91444 0.20109 0.14892 0.0
H2577 H 0.95927 0.15053 0.16235 0.0
H2578 H 0.96564 0.14578 0.12393 0.0
H2579 H 0.95859 0.1564 0.08677 0.0
H2580 H 0.91127 0.20465 0.07336 0.0
H2581 H 0.90561 0.21001 0.11178 0.0
C2582 C 0.92567 0.18907 0.14342 0.0
C2583 C 0.93663 0.17634 0.15833 0.0
C2584 C 0.92873 0.18609 0.12144 0.0
C2585 C 0.95074 0.16052 0.15108 0.0
C2586 C 0.95439 0.15786 0.12918 0.0
C2587 C 0.9471 0.16815 0.09229 0.0
C2588 C 0.93554 0.18036 0.07739 0.0
C2589 C 0.94353 0.17063 0.11426 0.0
C2590 C 0.92036 0.19517 0.08462 0.0
C2591 C 0.91717 0.19822 0.10652 0.0
H2592 H 0.4085 0.70735 0.65289 0.0
H2593 H 0.45598 0.66065 0.67053 0.0
H2594 H 0.46413 0.65435 0.63273 0.0
H2595 H 0.45782 0.6624 0.59488 0.0
H2596 H 0.40813 0.70669 0.57713 0.0
H2597 H 0.40066 0.71377 0.61495 0.0
C2598 C 0.42068 0.69585 0.64842 0.0
C2599 C 0.43185 0.68463 0.66433 0.0
C2600 C 0.42482 0.69195 0.62676 0.0
C2601 C 0.44725 0.66945 0.65846 0.0
C2602 C 0.45192 0.66591 0.63691 0.0
C2603 C 0.44542 0.67368 0.59932 0.0
C2604 C 0.43369 0.68426 0.58338 0.0
C2605 C 0.44085 0.67713 0.62096 0.0
C2606 C 0.41737 0.69846 0.58922 0.0
C2607 C 0.41314 0.7025 0.61078 0.0
H2608 H 0.08123 0.69633 0.40826 0.0
H2609 H 0.02578 0.65564 0.40321 0.0
H2610 H 0.02792 0.65682 0.36429 0.0
H2611 H 0.04545 0.66975 0.33143 0.0
H2612 H 0.09833 0.71366 0.33667 0.0
H2613 H 0.09746 0.71083 0.37556 0.0
C2614 C 0.06965 0.68778 0.39858 0.0
C2615 C 0.05345 0.67591 0.4085 0.0
C2616 C 0.07056 0.68904 0.3762 0.0
C2617 C 0.03834 0.66505 0.39587 0.0
C2618 C 0.0396 0.6656 0.37362 0.0
C2619 C 0.05678 0.67857 0.34118 0.0
C2620 C 0.07201 0.69171 0.33136 0.0
C2621 C 0.05563 0.67757 0.36358 0.0
C2622 C 0.08643 0.70342 0.34401 0.0
C2623 C 0.08597 0.70182 0.36622 0.0
H2624 H 0.40784 0.33627 0.83764 0.0
H2625 H 0.47492 0.32184 0.83016 0.0
H2626 H 0.47828 0.31711 0.86871 0.0
H2627 H 0.46191 0.31529 0.90406 0.0
H2628 H 0.39455 0.32839 0.91162 0.0
H2629 H 0.39133 0.33432 0.87311 0.0
C2630 C 0.42319 0.33203 0.84437 0.0
C2631 C 0.44101 0.32908 0.83093 0.0
C2632 C 0.42484 0.32854 0.86643 0.0
C2633 C 0.46091 0.32415 0.84008 0.0
C2634 C 0.46281 0.32123 0.8621 0.0
C2635 C 0.44644 0.31924 0.89733 0.0
C2636 C 0.42846 0.32127 0.9107 0.0
C2637 C 0.44479 0.32295 0.87533 0.0
C2638 C 0.40859 0.32652 0.90166 0.0
C2639 C 0.4068 0.33014 0.8797 0.0
H2640 H 0.58721 0.58344 0.7989 0.0
H2641 H 0.59531 0.52248 0.83005 0.0
H2642 H 0.63395 0.52737 0.83034 0.0
H2643 H 0.66569 0.54896 0.82162 0.0
H2644 H 0.65778 0.60837 0.78775 0.0
H2645 H 0.61894 0.60431 0.78888 0.0
C2646 C 0.59748 0.57121 0.80564 0.0
C2647 C 0.58845 0.55265 0.81437 0.0
C2648 C 0.61974 0.57395 0.80546 0.0
C2649 C 0.6019 0.53685 0.823 0.0
C2650 C 0.624 0.53968 0.82333 0.0
C2651 C 0.65537 0.56103 0.8147 0.0
C2652 C 0.66437 0.57899 0.80484 0.0
C2653 C 0.63311 0.55818 0.81466 0.0
C2654 C 0.65103 0.59442 0.79549 0.0
C2655 C 0.62888 0.59209 0.79608 0.0
H2656 H 0.69149 0.412 0.08671 0.0
H2657 H 0.64652 0.40797 0.03461 0.0
H2658 H 0.64624 0.36911 0.03718 0.0
H2659 H 0.66002 0.336 0.05321 0.0
H2660 H 0.70726 0.33998 0.10321 0.0
H2661 H 0.70531 0.37892 0.10268 0.0
C2662 C 0.68161 0.40255 0.07602 0.0
C2663 C 0.6692 0.41273 0.06046 0.0
C2664 C 0.68192 0.38017 0.07722 0.0
C2665 C 0.65648 0.40041 0.04658 0.0
C2666 C 0.6562 0.3782 0.04808 0.0
C2667 C 0.66967 0.34547 0.06408 0.0
C2668 C 0.68372 0.33531 0.07819 0.0
C2669 C 0.66903 0.36787 0.06319 0.0
C2670 C 0.6964 0.34761 0.09209 0.0
C2671 C 0.69531 0.36984 0.09182 0.0
H2672 H 0.84542 0.42767 0.28152 0.0
H2673 H 0.83857 0.42208 0.34997 0.0
H2674 H 0.87739 0.41885 0.35363 0.0
H2675 H 0.91293 0.41703 0.33723 0.0
H2676 H 0.91958 0.42377 0.26886 0.0
H2677 H 0.88082 0.42611 0.26524 0.0
C2678 C 0.85236 0.4259 0.2973 0.0
C2679 C 0.83912 0.42521 0.31547 0.0
C2680 C 0.87454 0.42377 0.29923 0.0
C2681 C 0.84843 0.42287 0.33575 0.0
C2682 C 0.87058 0.42081 0.33782 0.0
C2683 C 0.90597 0.41905 0.32153 0.0
C2684 C 0.91921 0.42048 0.30337 0.0
C2685 C 0.88374 0.42108 0.31964 0.0
C2686 C 0.90981 0.42266 0.28311 0.0
C2687 C 0.88765 0.42418 0.28104 0.0
H2688 H 0.78779 0.65672 0.58573 0.0
H2689 H 0.8382 0.67468 0.54225 0.0
H2690 H 0.84431 0.63697 0.5335 0.0
H2691 H 0.83507 0.59914 0.53821 0.0
H2692 H 0.78724 0.58098 0.58443 0.0
H2693 H 0.78024 0.61876 0.59226 0.0
C2694 C 0.80008 0.65235 0.5743 0.0
C2695 C 0.8124 0.66833 0.56441 0.0
C2696 C 0.80389 0.63074 0.56992 0.0
C2697 C 0.82854 0.66255 0.54997 0.0
C2698 C 0.83198 0.64107 0.54497 0.0
C2699 C 0.82306 0.60349 0.54994 0.0
C2700 C 0.81144 0.58747 0.56058 0.0
C2701 C 0.8197 0.62507 0.55481 0.0
C2702 C 0.79627 0.59316 0.57606 0.0
C2703 C 0.79229 0.61468 0.58049 0.0
H2704 H 0.65539 0.41031 0.70143 0.0
H2705 H 0.66816 0.45942 0.65482 0.0
H2706 H 0.62963 0.46473 0.64974 0.0
H2707 H 0.59266 0.45609 0.65958 0.0
H2708 H 0.57988 0.40498 0.70402 0.0
H2709 H 0.6184 0.39964 0.70906 0.0
C2710 C 0.64969 0.42219 0.69017 0.0
C2711 C 0.6644 0.43474 0.67872 0.0
C2712 C 0.62771 0.42476 0.68708 0.0
C2713 C 0.657 0.44969 0.6638 0.0
C2714 C 0.63506 0.45274 0.66099 0.0
C2715 C 0.59834 0.44383 0.67044 0.0
C2716 C 0.58362 0.43115 0.68175 0.0
C2717 C 0.62032 0.44053 0.67274 0.0
C2718 C 0.59103 0.41497 0.69531 0.0
C2719 C 0.61297 0.41195 0.69817 0.0
H2720 H 0.81584 0.40337 0.97198 0.0
H2721 H 0.82229 0.41377 0.90407 0.0
H2722 H 0.82884 0.37559 0.89871 0.0
H2723 H 0.83319 0.33954 0.91348 0.0
H2724 H 0.82427 0.32901 0.98107 0.0
H2725 H 0.81953 0.36733 0.98656 0.0
C2726 C 0.81851 0.39731 0.95595 0.0
C2727 C 0.81848 0.41141 0.93843 0.0
C2728 C 0.82237 0.37545 0.95302 0.0
C2729 C 0.82199 0.40324 0.9178 0.0
C2730 C 0.82597 0.38146 0.91476 0.0
C2731 C 0.83 0.34553 0.92938 0.0
C2732 C 0.82863 0.33127 0.94674 0.0
C2733 C 0.8263 0.36745 0.93229 0.0
C2734 C 0.8253 0.33953 0.96737 0.0
C2735 C 0.82238 0.36144 0.97051 0.0
H2736 H 0.90738 0.5416 0.16226 0.0
H2737 H 0.92279 0.59361 0.20486 0.0
H2738 H 0.88463 0.59921 0.21203 0.0
H2739 H 0.84721 0.58844 0.20685 0.0
H2740 H 0.83172 0.53849 0.16188 0.0
H2741 H 0.86987 0.5329 0.15474 0.0
C2742 C 0.90235 0.55414 0.17315 0.0
C2743 C 0.91772 0.567 0.18334 0.0
C2744 C 0.88053 0.55756 0.17667 0.0
C2745 C 0.91113 0.58351 0.19698 0.0
C2746 C 0.88939 0.58666 0.20107 0.0
C2747 C 0.85223 0.57632 0.19549 0.0
C2748 C 0.83687 0.56362 0.1851 0.0
C2749 C 0.87401 0.57363 0.19114 0.0
C2750 C 0.84338 0.54833 0.17007 0.0
C2751 C 0.86512 0.54514 0.16606 0.0
H2752 H 0.66085 0.59435 0.45833 0.0
H2753 H 0.70721 0.57927 0.40955 0.0
H2754 H 0.71483 0.61743 0.4048 0.0
H2755 H 0.70829 0.65481 0.41475 0.0
H2756 H 0.65937 0.67003 0.4609 0.0
H2757 H 0.65263 0.63183 0.46657 0.0
C2758 C 0.67268 0.59945 0.44671 0.0
C2759 C 0.68371 0.58417 0.43446 0.0
C2760 C 0.67644 0.62129 0.44367 0.0
C2761 C 0.69862 0.59086 0.41914 0.0
C2762 C 0.70298 0.6126 0.41649 0.0
C2763 C 0.69622 0.64973 0.42613 0.0
C2764 C 0.6845 0.66506 0.43765 0.0
C2765 C 0.69202 0.62791 0.42872 0.0
C2766 C 0.66859 0.65841 0.45196 0.0
C2767 C 0.66478 0.63664 0.45519 0.0
H2768 H 0.57659 0.83143 0.65994 0.0
H2769 H 0.51127 0.81095 0.66863 0.0
H2770 H 0.50756 0.80611 0.63006 0.0
H2771 H 0.52337 0.80618 0.59418 0.0
H2772 H 0.58962 0.8239 0.58605 0.0
H2773 H 0.59285 0.83005 0.62445 0.0
C2774 C 0.5616 0.82568 0.65351 0.0
C2775 C 0.54438 0.82119 0.66728 0.0
C2776 C 0.55992 0.8219 0.6315 0.0
C2777 C 0.52483 0.81448 0.65846 0.0
C2778 C 0.52276 0.81149 0.63642 0.0
C2779 C 0.5386 0.81116 0.60081 0.0
C2780 C 0.55623 0.81458 0.58724 0.0
C2781 C 0.54033 0.81476 0.62286 0.0
C2782 C 0.57584 0.821 0.59612 0.0
C2783 C 0.57764 0.82476 0.61805 0.0
H2784 H 0.93733 0.16321 0.30166 0.0
H2785 H 0.90568 0.11531 0.26359 0.0
H2786 H 0.92088 0.08703 0.28596 0.0
H2787 H 0.94758 0.07604 0.31253 0.0
H2788 H 0.98373 0.12393 0.34637 0.0
H2789 H 0.96228 0.15221 0.32989 0.0
C2790 C 0.93331 0.14659 0.29874 0.0
C2791 C 0.92033 0.1412 0.28126 0.0
C2792 C 0.94316 0.13048 0.31081 0.0
C2793 C 0.91558 0.11968 0.27711 0.0
C2794 C 0.92435 0.10357 0.28981 0.0
C2795 C 0.95026 0.09266 0.31672 0.0
C2796 C 0.96695 0.09804 0.33071 0.0
C2797 C 0.93879 0.10877 0.30618 0.0
C2798 C 0.97081 0.11957 0.33569 0.0
C2799 C 0.95864 0.13567 0.32619 0.0
H2800 H 0.17135 0.69049 0.55266 0.0
H2801 H 0.12762 0.7225 0.59511 0.0
H2802 H 0.09764 0.70226 0.57998 0.0
H2803 H 0.0835 0.67936 0.55132 0.0
H2804 H 0.12675 0.65177 0.50534 0.0
H2805 H 0.15736 0.66605 0.52517 0.0
C2806 C 0.1553 0.69249 0.55895 0.0
C2807 C 0.15156 0.70759 0.57513 0.0
C2808 C 0.13809 0.68177 0.54929 0.0
C2809 C 0.13074 0.7107 0.58281 0.0
C2810 C 0.11365 0.69925 0.57407 0.0
C2811 C 0.09967 0.67605 0.546 0.0
C2812 C 0.10298 0.66445 0.52705 0.0
C2813 C 0.11705 0.68529 0.55682 0.0
C2814 C 0.12392 0.66064 0.51995 0.0
C2815 C 0.14138 0.66886 0.53123 0.0
H2816 H 0.55465 0.9186 0.81052 0.0
H2817 H 0.5202 0.87428 0.85035 0.0
H2818 H 0.53971 0.84429 0.83436 0.0
H2819 H 0.56277 0.83053 0.80558 0.0
H2820 H 0.59275 0.87469 0.76211 0.0
H2821 H 0.57915 0.90493 0.78295 0.0
C2822 C 0.55193 0.90239 0.81605 0.0
C2823 C 0.53633 0.89852 0.83172 0.0
C2824 C 0.56226 0.88523 0.8059 0.0
C2825 C 0.53234 0.8775 0.83842 0.0
C2826 C 0.54339 0.86041 0.8292 0.0
C2827 C 0.56675 0.8468 0.80108 0.0
C2828 C 0.57887 0.85051 0.78255 0.0
C2829 C 0.55786 0.86403 0.81244 0.0
C2830 C 0.58352 0.87158 0.77643 0.0
C2831 C 0.57568 0.88881 0.78828 0.0
H2832 H 0.41458 0.31327 0.05171 0.0
H2833 H 0.3683 0.35087 0.0174 0.0
H2834 H 0.33929 0.33466 0.03817 0.0
H2835 H 0.32697 0.306 0.06221 0.0
H2836 H 0.37319 0.2646 0.09195 0.0
H2837 H 0.40242 0.28604 0.07715 0.0
C2838 C 0.39818 0.31835 0.0493 0.0
C2839 C 0.39349 0.3334 0.03334 0.0
C2840 C 0.3816 0.30798 0.06031 0.0
C2841 C 0.37219 0.33945 0.0298 0.0
C2842 C 0.35564 0.33007 0.04155 0.0
C2843 C 0.34346 0.30208 0.06583 0.0
C2844 C 0.34806 0.28395 0.07822 0.0
C2845 C 0.36011 0.31376 0.05629 0.0
C2846 C 0.3694 0.27858 0.08247 0.0
C2847 C 0.38606 0.29078 0.07397 0.0
H2848 H 0.90525 0.87267 0.22206 0.0
H2849 H 0.93401 0.81964 0.18869 0.0
H2850 H 0.9546 0.84429 0.16655 0.0
H2851 H 0.96836 0.88078 0.16057 0.0
H2852 H 0.9379 0.93394 0.19205 0.0
H2853 H 0.91389 0.90948 0.21089 0.0
C2854 C 0.9156 0.86658 0.20953 0.0
C2855 C 0.91832 0.84443 0.20715 0.0
C2856 C 0.92729 0.88086 0.19674 0.0
C2857 C 0.9316 0.83666 0.19077 0.0
C2858 C 0.94355 0.85073 0.17824 0.0
C2859 C 0.9561 0.88695 0.17118 0.0
C2860 C 0.95496 0.90898 0.17518 0.0
C2861 C 0.94214 0.87283 0.18166 0.0
C2862 C 0.93897 0.91696 0.18876 0.0
C2863 C 0.92535 0.903 0.19962 0.0
H2864 H 0.41807 0.68731 0.44113 0.0
H2865 H 0.37332 0.65269 0.48036 0.0
H2866 H 0.34341 0.66723 0.45974 0.0
H2867 H 0.33004 0.69388 0.43421 0.0
H2868 H 0.37475 0.73274 0.39914 0.0
H2869 H 0.40469 0.71241 0.41406 0.0
C2870 C 0.40176 0.68256 0.44469 0.0
C2871 C 0.39773 0.66889 0.46198 0.0
C2872 C 0.3847 0.69196 0.4336 0.0
C2873 C 0.37663 0.66315 0.46697 0.0
C2874 C 0.35959 0.67152 0.45527 0.0
C2875 C 0.34634 0.6974 0.42943 0.0
C2876 C 0.35036 0.7145 0.41552 0.0
C2877 C 0.36341 0.68652 0.43905 0.0
C2878 C 0.37146 0.71947 0.40976 0.0
C2879 C 0.38851 0.70795 0.41836 0.0
H2880 H 0.51851 0.12322 0.66424 0.0
H2881 H 0.55714 0.07224 0.68971 0.0
H2882 H 0.58011 0.0982 0.70776 0.0
H2883 H 0.58634 0.13522 0.7199 0.0
H2884 H 0.54977 0.18646 0.69216 0.0
H2885 H 0.52907 0.16073 0.67111 0.0
C2886 C 0.53224 0.1179 0.67337 0.0
C2887 C 0.53605 0.09592 0.67586 0.0
C2888 C 0.54565 0.13295 0.68337 0.0
C2889 C 0.55397 0.08912 0.68754 0.0
C2890 C 0.56702 0.10394 0.69798 0.0
C2891 C 0.57421 0.1407 0.70879 0.0
C2892 C 0.56944 0.16257 0.70757 0.0
C2893 C 0.56263 0.12585 0.69653 0.0
C2894 C 0.55377 0.16965 0.69317 0.0
C2895 C 0.54181 0.15494 0.6813 0.0
H2896 H 0.16573 0.30359 0.93892 0.0
H2897 H 0.12228 0.26194 0.90539 0.0
H2898 H 0.09174 0.28219 0.91918 0.0
H2899 H 0.07745 0.30855 0.94463 0.0
H2900 H 0.12085 0.34631 0.98248 0.0
H2901 H 0.15139 0.3312 0.96309 0.0
C2902 C 0.14956 0.29936 0.93426 0.0
C2903 C 0.14612 0.28152 0.92106 0.0
C2904 C 0.13212 0.31034 0.94321 0.0
C2905 C 0.12518 0.27573 0.91548 0.0
C2906 C 0.10777 0.28724 0.92342 0.0
C2907 C 0.0936 0.31387 0.94812 0.0
C2908 C 0.09704 0.3287 0.96462 0.0
C2909 C 0.11102 0.30415 0.93782 0.0
C2910 C 0.11796 0.33507 0.96961 0.0
C2911 C 0.13536 0.32633 0.95864 0.0
H2912 H 0.30062 0.94594 0.1682 0.0
H2913 H 0.2668 0.90417 0.12516 0.0
H2914 H 0.28791 0.9176 0.095 0.0
H2915 H 0.31191 0.94508 0.08039 0.0
H2916 H 0.34138 0.99061 0.12289 0.0
H2917 H 0.32646 0.97185 0.15383 0.0
C2918 C 0.29842 0.93939 0.15228 0.0
C2919 C 0.28253 0.92396 0.14875 0.0
C2920 C 0.30969 0.94811 0.13495 0.0
C2921 C 0.2792 0.91592 0.12809 0.0
C2922 C 0.29114 0.92369 0.1109 0.0
C2923 C 0.31551 0.95047 0.09648 0.0
C2924 C 0.32778 0.96903 0.09951 0.0
C2925 C 0.30588 0.94034 0.11403 0.0
C2926 C 0.33199 0.97628 0.12032 0.0
C2927 C 0.3234 0.96562 0.13795 0.0
H2928 H 0.31021 0.06678 0.33422 0.0
H2929 H 0.26492 0.09654 0.37673 0.0
H2930 H 0.28324 0.08107 0.40763 0.0
H2931 H 0.30905 0.05514 0.42203 0.0
H2932 H 0.35072 0.02126 0.37898 0.0
H2933 H 0.33731 0.04233 0.34883 0.0
C2934 C 0.30476 0.07029 0.35031 0.0
C2935 C 0.28642 0.08287 0.35333 0.0
C2936 C 0.31467 0.06039 0.36785 0.0
C2937 C 0.27909 0.08693 0.37415 0.0
C2938 C 0.2895 0.07803 0.39176 0.0
C2939 C 0.31555 0.05288 0.4061 0.0
C2940 C 0.331 0.03701 0.4026 0.0
C2941 C 0.30688 0.06418 0.38876 0.0
C2942 C 0.33896 0.03362 0.38192 0.0
C2943 C 0.33121 0.04556 0.36472 0.0
H2944 H 0.1892 0.04972 0.58393 0.0
H2945 H 0.15501 0.01031 0.62884 0.0
H2946 H 0.16952 0.03125 0.65865 0.0
H2947 H 0.19538 0.05781 0.67193 0.0
H2948 H 0.2338 0.0932 0.62709 0.0
H2949 H 0.21415 0.07714 0.59719 0.0
C2950 C 0.18456 0.04613 0.60025 0.0
C2951 C 0.17088 0.02877 0.60431 0.0
C2952 C 0.19392 0.05744 0.61726 0.0
C2953 C 0.1654 0.02375 0.62546 0.0
C2954 C 0.17376 0.03565 0.64245 0.0
C2955 C 0.199 0.06236 0.65559 0.0
C2956 C 0.21571 0.07684 0.65158 0.0
C2957 C 0.1885 0.05213 0.63856 0.0
C2958 C 0.22082 0.08222 0.63043 0.0
C2959 C 0.20968 0.07296 0.61339 0.0
H2960 H 0.15979 0.96781 0.87779 0.0
H2961 H 0.19157 0.93923 0.93172 0.0
H2962 H 0.21298 0.91695 0.90773 0.0
H2963 H 0.22546 0.90874 0.87111 0.0
H2964 H 0.19139 0.93494 0.81733 0.0
H2965 H 0.16788 0.95475 0.84142 0.0
C2966 C 0.17106 0.95632 0.88421 0.0
C2967 C 0.17426 0.95517 0.90638 0.0
C2968 C 0.183 0.94327 0.87034 0.0
C2969 C 0.1888 0.94023 0.91466 0.0
C2970 C 0.20115 0.92762 0.90096 0.0
C2971 C 0.21257 0.91843 0.86477 0.0
C2972 C 0.21021 0.92054 0.84255 0.0
C2973 C 0.19881 0.92945 0.87874 0.0
C2974 C 0.1934 0.933 0.83442 0.0
C2975 C 0.18006 0.94446 0.84817 0.0
H2976 H 0.62542 0.22258 0.08732 0.0
H2977 H 0.67937 0.19231 0.05694 0.0
H2978 H 0.6554 0.16895 0.0368 0.0
H2979 H 0.61895 0.16091 0.02417 0.0
H2980 H 0.56504 0.18938 0.0563 0.0
H2981 H 0.58907 0.20939 0.0797 0.0
C2982 C 0.63185 0.2105 0.07665 0.0
C2983 C 0.65398 0.20927 0.07334 0.0
C2984 C 0.61801 0.19694 0.06534 0.0
C2985 C 0.66231 0.19347 0.05972 0.0
C2986 C 0.64863 0.18022 0.04808 0.0
C2987 C 0.61255 0.1711 0.03666 0.0
C2988 C 0.59039 0.17394 0.03841 0.0
C2989 C 0.62644 0.18236 0.05021 0.0
C2990 C 0.58212 0.18697 0.05474 0.0
C2991 C 0.59583 0.19854 0.068 0.0
H2992 H 0.08959 0.35017 0.29786 0.0
H2993 H 0.03227 0.32517 0.26883 0.0
H2994 H 0.01032 0.34849 0.29099 0.0
H2995 H 0.00749 0.37813 0.31554 0.0
H2996 H 0.06433 0.40669 0.34234 0.0
H2997 H 0.08637 0.37956 0.32465 0.0
C2998 C 0.0723 0.34983 0.29665 0.0
C2999 C 0.06243 0.33628 0.28169 0.0
C3000 C 0.05973 0.36385 0.30903 0.0
C3001 C 0.04008 0.33578 0.2801 0.0
C3002 C 0.02755 0.34901 0.2928 0.0
C3003 C 0.02467 0.3783 0.31791 0.0
C3004 C 0.03421 0.39457 0.33013 0.0
C3005 C 0.03721 0.36344 0.30691 0.0
C3006 C 0.05653 0.39439 0.33296 0.0
C3007 C 0.06917 0.37897 0.3227 0.0
H3008 H 0.91865 0.81473 0.55568 0.0
H3009 H 0.8753 0.84931 0.51492 0.0
H3010 H 0.84478 0.83583 0.53543 0.0
H3011 H 0.83043 0.80977 0.56122 0.0
H3012 H 0.87388 0.77112 0.59796 0.0
H3013 H 0.90439 0.79068 0.58314 0.0
C3014 C 0.90254 0.8198 0.55174 0.0
C3015 C 0.89913 0.83307 0.53398 0.0
C3016 C 0.88511 0.81097 0.56278 0.0
C3017 C 0.87821 0.83915 0.52862 0.0
C3018 C 0.8608 0.83135 0.54026 0.0
C3019 C 0.84658 0.80614 0.56638 0.0
C3020 C 0.85006 0.78927 0.58073 0.0
C3021 C 0.86402 0.81661 0.55684 0.0
C3022 C 0.87097 0.78419 0.58699 0.0
C3023 C 0.88837 0.79528 0.57844 0.0
H3024 H 0.08991 0.62921 0.21951 0.0
H3025 H 0.05946 0.68344 0.19001 0.0
H3026 H 0.03965 0.65977 0.16607 0.0
H3027 H 0.02733 0.6234 0.15721 0.0
H3028 H 0.05968 0.5692 0.18469 0.0
H3029 H 0.08274 0.59301 0.20536 0.0
C3030 C 0.07931 0.63577 0.20747 0.0
C3031 C 0.07591 0.65791 0.20659 0.0
C3032 C 0.06826 0.62208 0.19348 0.0
C3033 C 0.06233 0.66639 0.19087 0.0
C3034 C 0.05089 0.65287 0.17728 0.0
C3035 C 0.03985 0.61689 0.16726 0.0
C3036 C 0.04172 0.59467 0.16961 0.0
C3037 C 0.0532 0.63066 0.17894 0.0
C3038 C 0.05805 0.5863 0.18256 0.0
C3039 C 0.0711 0.59989 0.19456 0.0
H3040 H 0.44329 0.41886 0.68746 0.0
H3041 H 0.47573 0.37247 0.64829 0.0
H3042 H 0.45363 0.34383 0.66334 0.0
H3043 H 0.42904 0.33156 0.69144 0.0
H3044 H 0.40088 0.37746 0.73441 0.0
H3045 H 0.41698 0.40678 0.71409 0.0
C3046 C 0.44498 0.40254 0.68182 0.0
C3047 C 0.46077 0.39767 0.66664 0.0
C3048 C 0.43314 0.38609 0.6915 0.0
C3049 C 0.46344 0.37648 0.65982 0.0
C3050 C 0.45092 0.36014 0.66853 0.0
C3051 C 0.42598 0.34803 0.69594 0.0
C3052 C 0.41371 0.35245 0.71423 0.0
C3053 C 0.43627 0.36466 0.68491 0.0
C3054 C 0.41024 0.37377 0.72031 0.0
C3055 C 0.41951 0.39049 0.70876 0.0
H3056 H 0.4452 0.57909 0.81227 0.0
H3057 H 0.49109 0.62219 0.84027 0.0
H3058 H 0.47094 0.6529 0.82684 0.0
H3059 H 0.4431 0.66716 0.80304 0.0
H3060 H 0.4006 0.62376 0.77062 0.0
H3061 H 0.41619 0.59349 0.78996 0.0
C3062 C 0.45042 0.59525 0.81584 0.0
C3063 C 0.46943 0.59851 0.82732 0.0
C3064 C 0.43939 0.61272 0.80708 0.0
C3065 C 0.47642 0.61942 0.83148 0.0
C3066 C 0.46496 0.63693 0.82375 0.0
C3067 C 0.43692 0.6511 0.80075 0.0
C3068 C 0.4206 0.64755 0.78579 0.0
C3069 C 0.44681 0.63375 0.81097 0.0
C3070 C 0.41303 0.62673 0.78231 0.0
C3071 C 0.42203 0.60947 0.79324 0.0
H3072 H 0.91796 0.18839 0.93539 0.0
H3073 H 0.8741 0.15033 0.97235 0.0
H3074 H 0.84386 0.16503 0.95234 0.0
H3075 H 0.82979 0.19288 0.92859 0.0
H3076 H 0.87346 0.23485 0.89583 0.0
H3077 H 0.9039 0.2144 0.90946 0.0
C3078 C 0.9018 0.1829 0.93853 0.0
C3079 C 0.8981 0.16822 0.95506 0.0
C3080 C 0.88448 0.19237 0.92782 0.0
C3081 C 0.87716 0.16154 0.95952 0.0
C3082 C 0.85993 0.17003 0.94818 0.0
C3083 C 0.84597 0.19706 0.92392 0.0
C3084 C 0.84949 0.21516 0.91114 0.0
C3085 C 0.86334 0.18604 0.93287 0.0
C3086 C 0.87048 0.22087 0.90559 0.0
C3087 C 0.88784 0.20927 0.91349 0.0
H3088 H 0.58077 0.81486 0.44302 0.0
H3089 H 0.62266 0.84258 0.49017 0.0
H3090 H 0.65387 0.82878 0.47103 0.0
H3091 H 0.66865 0.80423 0.44415 0.0
H3092 H 0.62629 0.77203 0.40049 0.0
H3093 H 0.59584 0.79229 0.41456 0.0
C3094 C 0.59679 0.81832 0.4487 0.0
C3095 C 0.59957 0.82973 0.46783 0.0
C3096 C 0.61451 0.80932 0.43828 0.0
C3097 C 0.62028 0.8338 0.47542 0.0
C3098 C 0.63807 0.82586 0.46454 0.0
C3099 C 0.65282 0.80223 0.43735 0.0
C3100 C 0.64955 0.78703 0.42121 0.0
C3101 C 0.63533 0.81296 0.44641 0.0
C3102 C 0.62901 0.78392 0.4128 0.0
C3103 C 0.61165 0.79537 0.42094 0.0
H3104 H 0.83713 0.47919 0.61735 0.0
H3105 H 0.81057 0.44443 0.5641 0.0
H3106 H 0.7912 0.42095 0.58861 0.0
H3107 H 0.77775 0.41407 0.62505 0.0
H3108 H 0.80627 0.44701 0.67842 0.0
H3109 H 0.82928 0.46724 0.65412 0.0
C3110 C 0.82754 0.4661 0.61123 0.0
C3111 C 0.82502 0.46359 0.58908 0.0
C3112 C 0.81671 0.4525 0.62541 0.0
C3113 C 0.81274 0.44654 0.58116 0.0
C3114 C 0.80154 0.43324 0.59514 0.0
C3115 C 0.78946 0.42525 0.6313 0.0
C3116 C 0.7903 0.42928 0.65333 0.0
C3117 C 0.8028 0.43659 0.61726 0.0
C3118 C 0.80551 0.44365 0.66144 0.0
C3119 C 0.81852 0.45534 0.64757 0.0
H3120 H 0.83262 0.52275 0.87954 0.0
H3121 H 0.80169 0.55464 0.9322 0.0
H3122 H 0.78295 0.57825 0.90734 0.0
H3123 H 0.77255 0.58711 0.87036 0.0
H3124 H 0.80574 0.5574 0.81779 0.0
H3125 H 0.82669 0.53586 0.84277 0.0
C3126 C 0.82208 0.53516 0.88549 0.0
C3127 C 0.81831 0.53693 0.90753 0.0
C3128 C 0.81173 0.54896 0.87113 0.0
C3129 C 0.80482 0.55312 0.91523 0.0
C3130 C 0.79402 0.56651 0.90104 0.0
C3131 C 0.7847 0.57623 0.86448 0.0
C3132 C 0.78756 0.57365 0.84238 0.0
C3133 C 0.79693 0.5642 0.87894 0.0
C3134 C 0.8034 0.55967 0.83481 0.0
C3135 C 0.81525 0.54725 0.84906 0.0
H3136 H 0.66049 0.52237 0.12484 0.0
H3137 H 0.68954 0.55455 0.07133 0.0
H3138 H 0.71101 0.57639 0.09568 0.0
H3139 H 0.72469 0.58295 0.13214 0.0
H3140 H 0.69357 0.55294 0.18575 0.0
H3141 H 0.66949 0.53384 0.16154 0.0
C3142 C 0.67116 0.53454 0.11861 0.0
C3143 C 0.67364 0.5368 0.09643 0.0
C3144 C 0.68318 0.54727 0.13271 0.0
C3145 C 0.68736 0.55266 0.08841 0.0
C3146 C 0.69975 0.56501 0.1023 0.0
C3147 C 0.71228 0.57259 0.13845 0.0
C3148 C 0.71093 0.56914 0.16057 0.0
C3149 C 0.69827 0.56198 0.12446 0.0
C3150 C 0.69478 0.55586 0.16872 0.0
C3151 C 0.68113 0.54482 0.1549 0.0
H3152 H 0.69622 0.43252 0.33102 0.0
H3153 H 0.7337 0.39917 0.37808 0.0
H3154 H 0.7124 0.41512 0.40682 0.0
H3155 H 0.6867 0.44252 0.41853 0.0
H3156 H 0.65329 0.4799 0.37144 0.0
H3157 H 0.669 0.45838 0.34272 0.0
C3158 C 0.69924 0.42832 0.34756 0.0
C3159 C 0.71626 0.41456 0.35253 0.0
C3160 C 0.68776 0.43852 0.36397 0.0
C3161 C 0.72054 0.40963 0.37399 0.0
C3162 C 0.70845 0.41883 0.39038 0.0
C3163 C 0.68244 0.44548 0.40198 0.0
C3164 C 0.66873 0.46252 0.39699 0.0
C3165 C 0.69251 0.43386 0.38558 0.0
C3166 C 0.66372 0.46672 0.37554 0.0
C3167 C 0.67278 0.4545 0.35917 0.0
H3168 H 0.00264 0.96251 0.23134 0.0
H3169 H 0.0015 0.02189 0.19645 0.0
H3170 H 0.00451 0.04188 0.2301 0.0
H3171 H 0.00759 0.04225 0.26945 0.0
H3172 H 0.00524 0.98286 0.30427 0.0
H3173 H 0.00353 0.96293 0.27057 0.0
C3174 C 0.0031 0.97984 0.23111 0.0
C3175 C 0.00211 0.99077 0.21148 0.0
C3176 C 0.00425 0.99113 0.25047 0.0
C3177 C 0.00227 0.01319 0.21139 0.0
C3178 C 0.00405 0.02457 0.2306 0.0
C3179 C 0.00683 0.02493 0.2696 0.0
C3180 C 0.00685 0.01395 0.28924 0.0
C3181 C 0.00512 0.01369 0.25022 0.0
C3182 C 0.00534 0.99158 0.28932 0.0
C3183 C 0.00437 0.98023 0.27009 0.0
H3184 H 0.28957 0.74818 0.47568 0.0
H3185 H 0.23084 0.74755 0.43967 0.0
H3186 H 0.21021 0.74668 0.47306 0.0
H3187 H 0.20909 0.74722 0.51252 0.0
H3188 H 0.26793 0.74456 0.5483 0.0
H3189 H 0.28847 0.74552 0.51492 0.0
C3190 C 0.27224 0.74782 0.47518 0.0
C3191 C 0.26166 0.74822 0.45533 0.0
C3192 C 0.26061 0.74676 0.49435 0.0
C3193 C 0.23926 0.7473 0.45479 0.0
C3194 C 0.22752 0.74687 0.47386 0.0
C3195 C 0.22643 0.74681 0.51296 0.0
C3196 C 0.23706 0.74609 0.53279 0.0
C3197 C 0.23804 0.74679 0.49372 0.0
C3198 C 0.25946 0.74515 0.53321 0.0
C3199 C 0.27116 0.74576 0.51415 0.0
H3200 H 0.49845 0.03931 0.73565 0.0
H3201 H 0.49663 0.98057 0.69962 0.0
H3202 H 0.49771 0.95993 0.73288 0.0
H3203 H 0.49858 0.95872 0.7722 0.0
H3204 H 0.5039 0.01731 0.80815 0.0
H3205 H 0.50221 0.03802 0.77491 0.0
C3206 C 0.49825 0.02198 0.73515 0.0
C3207 C 0.49716 0.0114 0.71532 0.0
C3208 C 0.49957 0.01029 0.75427 0.0
C3209 C 0.49739 0.98899 0.71474 0.0
C3210 C 0.49798 0.97723 0.73373 0.0
C3211 C 0.4994 0.97604 0.77272 0.0
C3212 C 0.50112 0.98655 0.79254 0.0
C3213 C 0.49898 0.98772 0.75357 0.0
C3214 C 0.50257 0.00893 0.79305 0.0
C3215 C 0.50152 0.02073 0.77408 0.0
H3216 H 0.20634 0.24666 0.98308 0.0
H3217 H 0.26516 0.25027 0.94732 0.0
H3218 H 0.28559 0.25175 0.98073 0.0
H3219 H 0.28666 0.25087 0.02002 0.0
H3220 H 0.22788 0.25052 0.05598 0.0
H3221 H 0.20731 0.24915 0.02255 0.0
C3222 C 0.22365 0.24776 0.98266 0.0
C3223 C 0.23433 0.24801 0.96283 0.0
C3224 C 0.23517 0.24927 0.00191 0.0
C3225 C 0.25667 0.24994 0.96241 0.0
C3226 C 0.2683 0.25076 0.98148 0.0
C3227 C 0.26932 0.25061 0.02051 0.0
C3228 C 0.25873 0.25056 0.04038 0.0
C3229 C 0.25773 0.25028 0.0013 0.0
C3230 C 0.23631 0.25059 0.04085 0.0
C3231 C 0.22461 0.24969 0.02177 0.0
H3232 H 0.22604 0.99608 0.96044 0.0
H3233 H 0.1919 0.00061 0.02014 0.0
H3234 H 0.22594 0.0017 0.03966 0.0
H3235 H 0.26535 0.00218 0.03944 0.0
H3236 H 0.29932 0.99424 0.97998 0.0
H3237 H 0.2653 0.99352 0.96048 0.0
C3238 C 0.2261 0.99735 0.97774 0.0
C3239 C 0.20661 0.99863 0.98891 0.0
C3240 C 0.24562 0.9973 0.98877 0.0
C3241 C 0.20677 0.99973 0.01129 0.0
C3242 C 0.22618 0.00038 0.02239 0.0
C3243 C 0.26526 0.00027 0.0222 0.0
C3244 C 0.28473 0.99853 0.01104 0.0
C3245 C 0.24569 0.99932 0.01126 0.0
C3246 C 0.28449 0.99563 0.98882 0.0
C3247 C 0.26508 0.99529 0.97771 0.0
H3248 H 0.24788 0.02238 0.29045 0.0
H3249 H 0.25563 0.05955 0.233 0.0
H3250 H 0.25425 0.02679 0.21141 0.0
H3251 H 0.24979 0.98765 0.20901 0.0
H3252 H 0.24561 0.95031 0.26672 0.0
H3253 H 0.24672 0.98308 0.28825 0.0
C3254 C 0.24931 0.02325 0.27319 0.0
C3255 C 0.25158 0.04327 0.26322 0.0
C3256 C 0.24911 0.00437 0.26104 0.0
C3257 C 0.25383 0.04427 0.24094 0.0
C3258 C 0.25298 0.02558 0.22864 0.0
C3259 C 0.24916 0.98676 0.22632 0.0
C3260 C 0.24734 0.96671 0.23635 0.0
C3261 C 0.25044 0.00557 0.23852 0.0
C3262 C 0.24696 0.96561 0.25873 0.0
C3263 C 0.24754 0.98431 0.27099 0.0
H3264 H 0.23328 0.99682 0.54391 0.0
H3265 H 0.19651 0.9997 0.4857 0.0
H3266 H 0.22953 0.00101 0.46467 0.0
H3267 H 0.26879 0.00016 0.46288 0.0
H3268 H 0.30572 0.00052 0.52103 0.0
H3269 H 0.27268 0.99928 0.5422 0.0
C3270 C 0.23256 0.99777 0.52661 0.0
C3271 C 0.21257 0.99791 0.51628 0.0
C3272 C 0.25158 0.99911 0.51471 0.0
C3273 C 0.21174 0.99956 0.49393 0.0
C3274 C 0.23059 0.00025 0.48194 0.0
C3275 C 0.26956 4e-05 0.48021 0.0
C3276 C 0.28957 0.00016 0.49046 0.0
C3277 C 0.25057 0.99985 0.49216 0.0
C3278 C 0.29045 0.00041 0.51286 0.0
C3279 C 0.27159 0.99962 0.52491 0.0
H3280 H 0.27691 0.02185 0.72271 0.0
H3281 H 0.2217 0.04487 0.75715 0.0
H3282 H 0.21736 0.00975 0.7738 0.0
H3283 H 0.22926 0.97228 0.7784 0.0
H3284 H 0.28453 0.9498 0.74407 0.0
H3285 H 0.28868 0.9849 0.72715 0.0
C3286 C 0.26392 0.0193 0.73388 0.0
C3287 C 0.24965 0.03608 0.73861 0.0
C3288 C 0.26138 0.99905 0.74314 0.0
C3289 C 0.233 0.03235 0.75326 0.0
C3290 C 0.23042 0.01221 0.76268 0.0
C3291 C 0.24195 0.97509 0.76691 0.0
C3292 C 0.25632 0.95856 0.76198 0.0
C3293 C 0.24441 0.99541 0.75761 0.0
C3294 C 0.27309 0.9623 0.74762 0.0
C3295 C 0.27554 0.98236 0.73815 0.0
H3296 H 0.03746 0.2661 0.99576 0.0
H3297 H 0.97833 0.30128 0.99237 0.0
H3298 H 0.95821 0.26766 0.9907 0.0
H3299 H 0.95752 0.22834 0.99167 0.0
H3300 H 0.01668 0.19307 0.99196 0.0
H3301 H 0.03691 0.22672 0.99323 0.0
C3302 C 0.02016 0.26635 0.99459 0.0
C3303 C 0.00929 0.28605 0.99447 0.0
C3304 C 0.00883 0.24702 0.9931 0.0
C3305 C 0.98696 0.28628 0.99252 0.0
C3306 C 0.9755 0.26709 0.99164 0.0
C3307 C 0.97486 0.22807 0.99194 0.0
C3308 C 0.98568 0.20835 0.99203 0.0
C3309 C 0.98627 0.24739 0.99215 0.0
C3310 C 0.0081 0.2081 0.99193 0.0
C3311 C 0.0196 0.2273 0.99273 0.0
H3312 H 0.48192 0.20679 0.99708 0.0
H3313 H 0.54646 0.23043 0.99126 0.0
H3314 H 0.53367 0.26712 0.99266 0.0
H3315 H 0.50405 0.29293 0.99478 0.0
H3316 H 0.43928 0.26959 0.99722 0.0
H3317 H 0.4521 0.23271 0.99804 0.0
C3318 C 0.49311 0.22 0.99613 0.0
C3319 C 0.51507 0.21584 0.994 0.0
C3320 C 0.4856 0.24125 0.99638 0.0
C3321 C 0.52942 0.23315 0.99268 0.0
C3322 C 0.52216 0.2542 0.99357 0.0
C3323 C 0.49283 0.27973 0.99563 0.0
C3324 C 0.47082 0.28392 0.99603 0.0
C3325 C 0.50028 0.2585 0.99533 0.0
C3326 C 0.45635 0.26671 0.99683 0.0
C3327 C 0.46365 0.24561 0.9973 0.0
H3328 H 0.98336 0.19771 0.24215 0.0
H3329 H 0.94777 0.25663 0.24588 0.0
H3330 H 0.98121 0.27696 0.24708 0.0
H3331 H 0.02033 0.27794 0.24594 0.0
H3332 H 0.05638 0.21928 0.24503 0.0
H3333 H 0.02287 0.19863 0.24406 0.0
C3334 C 0.98298 0.21502 0.24321 0.0
C3335 C 0.9632 0.22576 0.24362 0.0
C3336 C 0.00225 0.2265 0.24444 0.0
C3337 C 0.96282 0.24809 0.24547 0.0
C3338 C 0.98191 0.25967 0.24612 0.0
C3339 C 0.02082 0.2606 0.24557 0.0
C3340 C 0.04066 0.25003 0.24521 0.0
C3341 C 0.00166 0.24904 0.24544 0.0
C3342 C 0.04122 0.22765 0.24522 0.0
C3343 C 0.02211 0.21593 0.24459 0.0
H3344 H 0.98624 0.70168 0.49198 0.0
H3345 H 0.04972 0.72329 0.50761 0.0
H3346 H 0.03702 0.76013 0.51053 0.0
H3347 H 0.00815 0.78663 0.50672 0.0
H3348 H 0.94526 0.7653 0.48806 0.0
H3349 H 0.95729 0.72826 0.48819 0.0
C3350 C 0.99712 0.71448 0.4963 0.0
C3351 C 0.01877 0.7099 0.49976 0.0
C3352 C 0.98984 0.73578 0.49719 0.0
C3353 C 0.03291 0.72657 0.50496 0.0
C3354 C 0.02569 0.74762 0.50657 0.0
C3355 C 0.99709 0.77385 0.50281 0.0
C3356 C 0.97589 0.77878 0.49734 0.0
C3357 C 0.00424 0.7525 0.50241 0.0
C3358 C 0.96176 0.76201 0.49216 0.0
C3359 C 0.96858 0.74076 0.49229 0.0
H3360 H 0.53791 0.76686 0.49971 0.0
H3361 H 0.47908 0.80248 0.49588 0.0
H3362 H 0.45865 0.76897 0.49529 0.0
H3363 H 0.45764 0.72961 0.49727 0.0
H3364 H 0.51656 0.69396 0.49782 0.0
H3365 H 0.53702 0.72746 0.49819 0.0
C3366 C 0.5206 0.76724 0.49867 0.0
C3367 C 0.50992 0.78704 0.49812 0.0
C3368 C 0.50909 0.74796 0.4978 0.0
C3369 C 0.48758 0.7874 0.49636 0.0
C3370 C 0.47594 0.76828 0.4961 0.0
C3371 C 0.47497 0.72923 0.49741 0.0
C3372 C 0.48566 0.70942 0.49782 0.0
C3373 C 0.48653 0.74849 0.49704 0.0
C3374 C 0.50807 0.70904 0.49756 0.0
C3375 C 0.51971 0.72816 0.49783 0.0
H3376 H 0.04149 0.76392 0.26343 0.0
H3377 H 0.0248 0.70656 0.22921 0.0
H3378 H 0.98738 0.71776 0.22764 0.0
H3379 H 0.95911 0.7435 0.23687 0.0
H3380 H 0.97565 0.80008 0.27287 0.0
H3381 H 0.01303 0.78954 0.27305 0.0
C3382 C 0.02964 0.75414 0.25538 0.0
C3383 C 0.03578 0.73468 0.24616 0.0
C3384 C 0.008 0.76039 0.25511 0.0
C3385 C 0.02032 0.72177 0.2362 0.0
C3386 C 0.99894 0.72809 0.23541 0.0
C3387 C 0.97087 0.75347 0.24483 0.0
C3388 C 0.96441 0.77253 0.25484 0.0
C3389 C 0.99251 0.74728 0.24501 0.0
C3390 C 0.97999 0.78524 0.26508 0.0
C3391 C 0.0015 0.7793 0.26513 0.0
H3392 H 0.51473 0.21601 0.75139 0.0
H3393 H 0.54884 0.2758 0.75499 0.0
H3394 H 0.51482 0.29528 0.75627 0.0
H3395 H 0.47543 0.29514 0.75634 0.0
H3396 H 0.44139 0.23566 0.74884 0.0
H3397 H 0.47537 0.21607 0.749 0.0
C3398 C 0.51467 0.23331 0.75256 0.0
C3399 C 0.53419 0.24451 0.75344 0.0
C3400 C 0.49511 0.24436 0.75251 0.0
C3401 C 0.53398 0.2669 0.75442 0.0
C3402 C 0.51456 0.27799 0.75515 0.0
C3403 C 0.47548 0.27787 0.75479 0.0
C3404 C 0.45598 0.26677 0.75285 0.0
C3405 C 0.49505 0.26687 0.75423 0.0
C3406 C 0.45622 0.24448 0.7504 0.0
C3407 C 0.47562 0.23332 0.75055 0.0
H3408 H 0.49869 0.45504 0.7293 0.0
H3409 H 0.50081 0.51351 0.69296 0.0
H3410 H 0.50118 0.53436 0.72616 0.0
H3411 H 0.50201 0.5358 0.76548 0.0
H3412 H 0.4966 0.47759 0.80189 0.0
H3413 H 0.49625 0.45666 0.76868 0.0
C3414 C 0.49921 0.47236 0.72871 0.0
C3415 C 0.50002 0.48279 0.70879 0.0
C3416 C 0.49881 0.48419 0.74782 0.0
C3417 C 0.50024 0.5052 0.70813 0.0
C3418 C 0.5005 0.51708 0.72709 0.0
C3419 C 0.50069 0.51852 0.7661 0.0
C3420 C 0.4996 0.50816 0.78604 0.0
C3421 C 0.49997 0.50673 0.747 0.0
C3422 C 0.49749 0.48585 0.7867 0.0
C3423 C 0.49736 0.47392 0.76774 0.0
H3424 H 0.75972 0.24556 0.04034 0.0
H3425 H 0.69842 0.26894 0.01901 0.0
H3426 H 0.71057 0.26834 0.98212 0.0
H3427 H 0.73876 0.26153 0.95544 0.0
H3428 H 0.80089 0.24104 0.97671 0.0
H3429 H 0.78833 0.23989 0.01375 0.0
C3430 C 0.74909 0.2506 0.02762 0.0
C3431 C 0.72823 0.25732 0.03256 0.0
C3432 C 0.75627 0.25054 0.00626 0.0
C3433 C 0.71466 0.26386 0.01581 0.0
C3434 C 0.72152 0.26341 0.9946 0.0
C3435 C 0.74937 0.25658 0.96822 0.0
C3436 C 0.77054 0.25107 0.96348 0.0
C3437 C 0.74226 0.25674 0.98958 0.0
C3438 C 0.78441 0.24516 0.98012 0.0
C3439 C 0.77728 0.24459 0.00127 0.0
H3440 H 0.00495 0.50886 0.29091 0.0
H3441 H 0.00158 0.44408 0.26775 0.0
H3442 H 0.00248 0.45666 0.23082 0.0
H3443 H 0.00219 0.48632 0.20486 0.0
H3444 H 0.00213 0.55118 0.22823 0.0
H3445 H 0.0046 0.53851 0.26496 0.0
C3446 C 0.00468 0.4976 0.27772 0.0
C3447 C 0.00329 0.47565 0.28194 0.0
C3448 C 0.00439 0.50498 0.25646 0.0
C3449 C 0.00261 0.46112 0.26479 0.0
C3450 C 0.0031 0.46828 0.24367 0.0
C3451 C 0.00285 0.4976 0.21802 0.0
C3452 C 0.00187 0.5196 0.21383 0.0
C3453 C 0.00366 0.4902 0.23927 0.0
C3454 C 0.00261 0.53411 0.23105 0.0
C3455 C 0.0041 0.5269 0.25209 0.0
H3456 H 0.78947 0.75055 0.51988 0.0
H3457 H 0.73112 0.75535 0.55627 0.0
H3458 H 0.71021 0.75446 0.5231 0.0
H3459 H 0.70867 0.7513 0.48381 0.0
H3460 H 0.76715 0.74989 0.44736 0.0
H3461 H 0.78804 0.75051 0.48055 0.0
C3462 C 0.77216 0.75142 0.52051 0.0
C3463 C 0.76176 0.75272 0.54043 0.0
C3464 C 0.76038 0.75147 0.50142 0.0
C3465 C 0.73941 0.75429 0.54109 0.0
C3466 C 0.72749 0.75372 0.52216 0.0
C3467 C 0.72601 0.75114 0.48319 0.0
C3468 C 0.73645 0.75025 0.46328 0.0
C3469 C 0.73782 0.75213 0.50226 0.0
C3470 C 0.75885 0.75051 0.46255 0.0
C3471 C 0.77074 0.75082 0.48149 0.0
H3472 H 0.76737 0.50242 0.53446 0.0
H3473 H 0.80188 0.50397 0.4748 0.0
H3474 H 0.76802 0.50254 0.45506 0.0
H3475 H 0.72868 0.5018 0.45495 0.0
H3476 H 0.69426 0.49728 0.5145 0.0
H3477 H 0.72812 0.49874 0.53427 0.0
C3478 C 0.76744 0.50248 0.51712 0.0
C3479 C 0.78703 0.50365 0.50603 0.0
C3480 C 0.748 0.50106 0.50597 0.0
C3481 C 0.78699 0.5032 0.48362 0.0
C3482 C 0.76766 0.50241 0.47238 0.0
C3483 C 0.72861 0.50109 0.47227 0.0
C3484 C 0.70903 0.4997 0.48332 0.0
C3485 C 0.74809 0.50149 0.48341 0.0
C3486 C 0.70914 0.49837 0.5057 0.0
C3487 C 0.72846 0.49929 0.51696 0.0
H3488 H 0.74252 0.52443 0.78501 0.0
H3489 H 0.74921 0.55915 0.72589 0.0
H3490 H 0.74782 0.52544 0.7058 0.0
H3491 H 0.74496 0.48611 0.70529 0.0
H3492 H 0.74195 0.45143 0.76474 0.0
H3493 H 0.74161 0.4852 0.78464 0.0
C3494 C 0.74354 0.52461 0.7677 0.0
C3495 C 0.74565 0.54421 0.75686 0.0
C3496 C 0.74341 0.50522 0.75643 0.0
C3497 C 0.74748 0.54424 0.73451 0.0
C3498 C 0.74666 0.525 0.72307 0.0
C3499 C 0.74409 0.486 0.72261 0.0
C3500 C 0.74319 0.46638 0.7336 0.0
C3501 C 0.74463 0.50541 0.73389 0.0
C3502 C 0.74258 0.46636 0.75601 0.0
C3503 C 0.74237 0.48563 0.76733 0.0
H3504 H 0.7645 0.49301 0.96204 0.0
H3505 H 0.79874 0.49404 0.02185 0.0
H3506 H 0.76473 0.49369 0.04143 0.0
H3507 H 0.72535 0.49297 0.04139 0.0
H3508 H 0.69114 0.4954 0.98162 0.0
H3509 H 0.72513 0.49456 0.96202 0.0
C3510 C 0.7645 0.49306 0.97938 0.0
C3511 C 0.78408 0.49324 0.99055 0.0
C3512 C 0.74494 0.49351 0.99043 0.0
C3513 C 0.78388 0.49381 0.01296 0.0
C3514 C 0.76446 0.49358 0.02411 0.0
C3515 C 0.72535 0.49323 0.02405 0.0
C3516 C 0.70578 0.49393 0.0129 0.0
C3517 C 0.74492 0.49338 0.013 0.0
C3518 C 0.70599 0.49477 0.9905 0.0
C3519 C 0.7254 0.49426 0.97934 0.0
H3520 H 0.75826 0.47596 0.29488 0.0
H3521 H 0.75273 0.44026 0.23615 0.0
H3522 H 0.75363 0.47361 0.21563 0.0
H3523 H 0.75616 0.51289 0.2145 0.0
H3524 H 0.75814 0.54873 0.27336 0.0
H3525 H 0.7585 0.51534 0.29385 0.0
C3526 C 0.75728 0.47551 0.27758 0.0
C3527 C 0.75564 0.45571 0.26698 0.0
C3528 C 0.75722 0.49474 0.26599 0.0
C3529 C 0.75399 0.45532 0.24461 0.0
C3530 C 0.75457 0.47436 0.23291 0.0
C3531 C 0.75679 0.51335 0.23182 0.0
C3532 C 0.75746 0.53318 0.24246 0.0
C3533 C 0.75626 0.49414 0.24343 0.0
C3534 C 0.75774 0.53363 0.26488 0.0
C3535 C 0.75795 0.51456 0.27655 0.0
H3536 H 0.47947 0.7086 0.74956 0.0
H3537 H 0.44261 0.76677 0.74974 0.0
H3538 H 0.47566 0.78792 0.74888 0.0
H3539 H 0.51502 0.78966 0.74711 0.0
H3540 H 0.55188 0.73158 0.75056 0.0
H3541 H 0.51883 0.71044 0.75108 0.0
C3542 C 0.47874 0.72593 0.74943 0.0
C3543 C 0.45873 0.7362 0.7494 0.0
C3544 C 0.49775 0.73789 0.74959 0.0
C3545 C 0.45787 0.7586 0.74969 0.0
C3546 C 0.47674 0.77064 0.74915 0.0
C3547 C 0.51577 0.77236 0.74802 0.0
C3548 C 0.53578 0.76209 0.74852 0.0
C3549 C 0.49675 0.76044 0.74894 0.0
C3550 C 0.53662 0.73975 0.75012 0.0
C3551 C 0.51776 0.72771 0.75035 0.0
loop_
_geom_bond_atom_site_label_1
_geom_bond_atom_site_label_2
_geom_bond_distance
_geom_bond_site_symmetry_2
_ccdc_geom_bond_type
Co0 O3 1.970 . S
Co0 N17 1.989 . S
Co0 O25 1.967 1_455 S
Co0 O32 1.920 . S
Co1 O4 1.966 . S
Co1 N10 2.022 . S
Co1 N18 1.993 1_655 S
Co1 O26 1.941 . S
C2 O3 1.219 1_655 S
C2 O4 1.297 . S
O3 Co0 1.970 . S
O3 C2 1.219 1_455 S
O4 Co1 1.966 . S
O4 C2 1.297 . S
C5 O6 1.235 . S
C5 O32 1.289 . S
O6 C5 1.235 . S
C7 C9 1.400 1_545 S
C7 N10 1.351 . S
C7 C12 1.501 1_545 S
C8 C9 1.387 1_545 S
C8 N11 1.341 . S
C9 C7 1.400 1_565 S
C9 C8 1.387 1_565 S
N10 Co1 2.022 . S
N10 C7 1.351 . S
N10 N11 1.365 . S
N11 C8 1.341 . S
N11 N10 1.365 . S
N11 H31 0.862 . S
C12 C7 1.501 1_565 S
C12 H13 0.947 1_565 S
C12 H14 0.961 . S
C12 H15 0.960 . S
H13 C12 0.947 1_545 S
H14 C12 0.961 . S
H15 C12 0.960 . S
C16 N17 1.342 . S
C16 C20 1.401 . S
C16 C21 1.499 . S
N17 Co0 1.989 . S
N17 C16 1.342 . S
N17 N18 1.388 . S
N18 Co1 1.993 1_455 S
N18 N17 1.388 . S
N18 C19 1.346 . S
C19 N18 1.346 . S
C19 C20 1.396 . S
C19 C29 1.510 1_455 S
C20 C16 1.401 . S
C20 C19 1.396 . S
C21 C16 1.499 . S
C21 H22 0.959 . S
C21 H23 0.960 . S
C21 H24 0.961 . S
H22 C21 0.959 . S
H23 C21 0.960 . S
H24 C21 0.961 . S
O25 Co0 1.967 1_655 S
O25 C33 1.258 . S
O26 Co1 1.941 . S
O26 C33 1.266 . S
H27 C29 0.959 . S
H28 C29 0.961 1_455 S
C29 C19 1.510 1_655 S
C29 H27 0.959 . S
C29 H28 0.961 1_655 S
C29 H30 0.960 . S
H30 C29 0.960 . S
H31 N11 0.862 . S
O32 Co0 1.920 . S
O32 C5 1.289 . S
C33 O25 1.258 . S
C33 O26 1.266 . S
Co34 O37 1.970 . S
Co34 N51 1.989 . S
Co34 O59 1.967 . S
Co34 O66 1.920 . S
Co35 O38 1.966 . S
Co35 N44 2.022 . S
Co35 N52 1.993 . S
Co35 O60 1.941 . S
C36 O37 1.258 . S
C36 O38 1.263 . S
O37 Co34 1.970 . S
O37 C36 1.258 . S
O38 Co35 1.966 . S
O38 C36 1.263 . S
C39 O40 1.235 . S
C39 O66 1.289 . S
O40 C39 1.235 . S
C41 C43 1.400 . S
C41 N44 1.351 . S
C41 C46 1.501 . S
C42 C43 1.387 . S
C42 N45 1.341 . S
C43 C41 1.400 . S
C43 C42 1.387 . S
N44 Co35 2.022 . S
N44 C41 1.351 . S
N44 N45 1.365 . S
N45 C42 1.341 . S
N45 N44 1.365 . S
N45 H65 0.862 . S
C46 C41 1.501 . S
C46 H47 0.961 . S
C46 H48 0.961 . S
C46 H49 0.960 . S
H47 C46 0.961 . S
H48 C46 0.961 . S
H49 C46 0.960 . S
C50 N51 1.342 . S
C50 C54 1.401 . S
C50 C55 1.499 . S
N51 Co34 1.989 . S
N51 C50 1.342 . S
N51 N52 1.388 . S
N52 Co35 1.993 . S
N52 N51 1.388 . S
N52 C53 1.346 . S
C53 N52 1.346 . S
C53 C54 1.396 . S
C53 C63 1.510 . S
C54 C50 1.401 . S
C54 C53 1.396 . S
C55 C50 1.499 . S
C55 H56 0.959 . S
C55 H57 0.960 . S
C55 H58 0.961 . S
H56 C55 0.959 . S
H57 C55 0.960 . S
H58 C55 0.961 . S
O59 Co34 1.967 . S
O59 C67 1.258 . S
O60 Co35 1.941 . S
O60 C67 1.266 . S
H61 C63 0.959 . S
H62 C63 0.961 . S
C63 C53 1.510 . S
C63 H61 0.959 . S
C63 H62 0.961 . S
C63 H64 0.960 . S
H64 C63 0.960 . S
H65 N45 0.862 . S
O66 Co34 1.920 . S
O66 C39 1.289 . S
C67 O59 1.258 . S
C67 O60 1.266 . S
Co68 O71 1.970 . S
Co68 N85 1.989 . S
Co68 O93 1.967 . S
Co68 O100 1.920 . S
Co69 O72 1.966 . S
Co69 N78 2.022 . S
Co69 N86 1.993 . S
Co69 O94 1.941 . S
C70 O71 1.258 . S
C70 O72 1.263 . S
O71 Co68 1.970 . S
O71 C70 1.258 . S
O72 Co69 1.966 . S
O72 C70 1.263 . S
C73 O74 1.235 . S
C73 O100 1.289 . S
O74 C73 1.235 . S
C75 C77 1.400 1_565 S
C75 N78 1.351 . S
C75 C80 1.501 1_565 S
C76 C77 1.387 1_565 S
C76 N79 1.341 . S
C77 C75 1.400 1_545 S
C77 C76 1.387 1_545 S
N78 Co69 2.022 . S
N78 C75 1.351 . S
N78 N79 1.365 . S
N79 C76 1.341 . S
N79 N78 1.365 . S
N79 H99 0.862 . S
C80 C75 1.501 1_545 S
C80 H81 0.961 1_545 S
C80 H82 0.961 . S
C80 H83 0.960 . S
H81 C80 0.961 1_565 S
H82 C80 0.961 . S
H83 C80 0.960 . S
C84 N85 1.342 . S
C84 C88 1.401 . S
C84 C89 1.499 . S
N85 Co68 1.989 . S
N85 C84 1.342 . S
N85 N86 1.388 . S
N86 Co69 1.993 . S
N86 N85 1.388 . S
N86 C87 1.346 . S
C87 N86 1.346 . S
C87 C88 1.396 . S
C87 C97 1.510 . S
C88 C84 1.401 . S
C88 C87 1.396 . S
C89 C84 1.499 . S
C89 H90 0.959 . S
C89 H91 0.960 . S
C89 H92 0.961 . S
H90 C89 0.959 . S
H91 C89 0.960 . S
H92 C89 0.961 . S
O93 Co68 1.967 . S
O93 C101 1.258 . S
O94 Co69 1.941 . S
O94 C101 1.266 . S
H95 C97 0.959 . S
H96 C97 0.961 . S
C97 C87 1.510 . S
C97 H95 0.959 . S
C97 H96 0.961 . S
C97 H98 0.960 . S
H98 C97 0.960 . S
H99 N79 0.862 . S
O100 Co68 1.920 . S
O100 C73 1.289 . S
C101 O93 1.258 . S
C101 O94 1.266 . S
Co102 O105 1.970 . S
Co102 N119 1.989 . S
Co102 O127 1.967 . S
Co102 O134 1.920 . S
Co103 O106 1.966 . S
Co103 N112 2.022 . S
Co103 N120 1.993 . S
Co103 O128 1.941 . S
C104 O105 1.258 . S
C104 O106 1.263 . S
O105 Co102 1.970 . S
O105 C104 1.258 . S
O106 Co103 1.966 . S
O106 C104 1.263 . S
C107 O108 1.235 . S
C107 O134 1.289 . S
O108 C107 1.235 . S
C109 C111 1.400 . S
C109 N112 1.351 . S
C109 C114 1.501 . S
C110 C111 1.387 . S
C110 N113 1.341 . S
C111 C109 1.400 . S
C111 C110 1.387 . S
N112 Co103 2.022 . S
N112 C109 1.351 . S
N112 N113 1.365 . S
N113 C110 1.341 . S
N113 N112 1.365 . S
N113 H133 0.862 . S
C114 C109 1.501 . S
C114 H115 0.961 . S
C114 H116 0.961 . S
C114 H117 0.960 . S
H115 C114 0.961 . S
H116 C114 0.961 . S
H117 C114 0.960 . S
C118 N119 1.342 . S
C118 C122 1.401 . S
C118 C123 1.499 . S
N119 Co102 1.989 . S
N119 C118 1.342 . S
N119 N120 1.388 . S
N120 Co103 1.993 . S
N120 N119 1.388 . S
N120 C121 1.346 . S
C121 N120 1.346 . S
C121 C122 1.396 . S
C121 C131 1.510 . S
C122 C118 1.401 . S
C122 C121 1.396 . S
C123 C118 1.499 . S
C123 H124 0.959 . S
C123 H125 0.960 . S
C123 H126 0.961 . S
H124 C123 0.959 . S
H125 C123 0.960 . S
H126 C123 0.961 . S
O127 Co102 1.967 . S
O127 C135 1.258 . S
O128 Co103 1.941 . S
O128 C135 1.266 . S
H129 C131 0.959 . S
H130 C131 0.961 . S
C131 C121 1.510 . S
C131 H129 0.959 . S
C131 H130 0.961 . S
C131 H132 0.960 . S
H132 C131 0.960 . S
H133 N113 0.862 . S
O134 Co102 1.920 . S
O134 C107 1.289 . S
C135 O127 1.258 . S
C135 O128 1.266 . S
Co136 O139 1.970 . S
Co136 N153 1.989 . S
Co136 O161 1.967 1_455 S
Co136 O168 1.920 . S
Co137 O140 1.966 . S
Co137 N146 2.022 . S
Co137 N154 1.993 1_655 S
Co137 O162 1.941 . S
C138 O139 1.219 1_655 S
C138 O140 1.298 . S
O139 Co136 1.970 . S
O139 C138 1.219 1_455 S
O140 Co137 1.966 . S
O140 C138 1.298 . S
C141 O142 1.235 . S
C141 O168 1.289 . S
O142 C141 1.235 . S
C143 C145 1.400 1_565 S
C143 N146 1.351 . S
C143 C148 1.501 1_565 S
C144 C145 1.387 1_565 S
C144 N147 1.341 . S
C145 C143 1.400 1_545 S
C145 C144 1.387 1_545 S
N146 Co137 2.022 . S
N146 C143 1.351 . S
N146 N147 1.365 . S
N147 C144 1.341 . S
N147 N146 1.365 . S
N147 H167 0.862 . S
C148 C143 1.501 1_545 S
C148 H149 0.961 1_545 S
C148 H150 0.961 . S
C148 H151 0.960 . S
H149 C148 0.961 1_565 S
H150 C148 0.961 . S
H151 C148 0.960 . S
C152 N153 1.342 . S
C152 C156 1.401 . S
C152 C157 1.499 . S
N153 Co136 1.989 . S
N153 C152 1.342 . S
N153 N154 1.388 . S
N154 Co137 1.993 1_455 S
N154 N153 1.388 . S
N154 C155 1.346 . S
C155 N154 1.346 . S
C155 C156 1.396 . S
C155 C165 1.510 1_455 S
C156 C152 1.401 . S
C156 C155 1.396 . S
C157 C152 1.499 . S
C157 H158 0.959 . S
C157 H159 0.960 . S
C157 H160 0.961 . S
H158 C157 0.959 . S
H159 C157 0.960 . S
H160 C157 0.961 . S
O161 Co136 1.967 1_655 S
O161 C169 1.258 . S
O162 Co137 1.941 . S
O162 C169 1.266 . S
H163 C165 0.959 . S
H164 C165 0.961 1_455 S
C165 C155 1.510 1_655 S
C165 H163 0.959 . S
C165 H164 0.961 1_655 S
C165 H166 0.960 . S
H166 C165 0.960 . S
H167 N147 0.862 . S
O168 Co136 1.920 . S
O168 C141 1.289 . S
C169 O161 1.258 . S
C169 O162 1.266 . S
Co170 O173 1.970 . S
Co170 N187 1.989 . S
Co170 O195 1.967 . S
Co170 O202 1.920 . S
Co171 O174 1.966 . S
Co171 N180 2.022 . S
Co171 N188 1.993 . S
Co171 O196 1.941 . S
C172 O173 1.258 . S
C172 O174 1.263 . S
O173 Co170 1.970 . S
O173 C172 1.258 . S
O174 Co171 1.966 . S
O174 C172 1.263 . S
C175 O176 1.235 . S
C175 O202 1.289 . S
O176 C175 1.235 . S
C177 C179 1.400 . S
C177 N180 1.351 . S
C177 C182 1.501 . S
C178 C179 1.387 . S
C178 N181 1.341 . S
C179 C177 1.400 . S
C179 C178 1.387 . S
N180 Co171 2.022 . S
N180 C177 1.351 . S
N180 N181 1.365 . S
N181 C178 1.341 . S
N181 N180 1.365 . S
N181 H201 0.862 . S
C182 C177 1.501 . S
C182 H183 0.961 . S
C182 H184 0.961 . S
C182 H185 0.960 . S
H183 C182 0.961 . S
H184 C182 0.961 . S
H185 C182 0.960 . S
C186 N187 1.342 . S
C186 C190 1.401 . S
C186 C191 1.499 . S
N187 Co170 1.989 . S
N187 C186 1.342 . S
N187 N188 1.388 . S
N188 Co171 1.993 . S
N188 N187 1.388 . S
N188 C189 1.346 . S
C189 N188 1.346 . S
C189 C190 1.396 . S
C189 C199 1.510 . S
C190 C186 1.401 . S
C190 C189 1.396 . S
C191 C186 1.499 . S
C191 H192 0.959 . S
C191 H193 0.960 . S
C191 H194 0.961 . S
H192 C191 0.959 . S
H193 C191 0.960 . S
H194 C191 0.961 . S
O195 Co170 1.967 . S
O195 C203 1.258 . S
O196 Co171 1.941 . S
O196 C203 1.266 . S
H197 C199 0.959 . S
H198 C199 0.961 . S
C199 C189 1.510 . S
C199 H197 0.959 . S
C199 H198 0.961 . S
C199 H200 0.960 . S
H200 C199 0.960 . S
H201 N181 0.862 . S
O202 Co170 1.920 . S
O202 C175 1.289 . S
C203 O195 1.258 . S
C203 O196 1.266 . S
Co204 O207 1.970 . S
Co204 N221 1.989 . S
Co204 O229 1.967 . S
Co204 O236 1.920 . S
Co205 O208 1.966 . S
Co205 N214 2.022 . S
Co205 N222 1.993 . S
Co205 O230 1.941 . S
C206 O207 1.258 . S
C206 O208 1.263 . S
O207 Co204 1.970 . S
O207 C206 1.258 . S
O208 Co205 1.966 . S
O208 C206 1.263 . S
C209 O210 1.235 . S
C209 O236 1.289 . S
O210 C209 1.235 . S
C211 C213 1.400 1_545 S
C211 N214 1.351 . S
C211 C216 1.501 1_545 S
C212 C213 1.387 1_545 S
C212 N215 1.341 . S
C213 C211 1.400 1_565 S
C213 C212 1.387 1_565 S
N214 Co205 2.022 . S
N214 C211 1.351 . S
N214 N215 1.365 . S
N215 C212 1.341 . S
N215 N214 1.365 . S
N215 H235 0.862 . S
C216 C211 1.501 1_565 S
C216 H217 0.948 1_565 S
C216 H218 0.961 . S
C216 H219 0.960 . S
H217 C216 0.948 1_545 S
H218 C216 0.961 . S
H219 C216 0.960 . S
C220 N221 1.342 . S
C220 C224 1.401 . S
C220 C225 1.499 . S
N221 Co204 1.989 . S
N221 C220 1.342 . S
N221 N222 1.388 . S
N222 Co205 1.993 . S
N222 N221 1.388 . S
N222 C223 1.346 . S
C223 N222 1.346 . S
C223 C224 1.396 . S
C223 C233 1.510 . S
C224 C220 1.401 . S
C224 C223 1.396 . S
C225 C220 1.499 . S
C225 H226 0.959 . S
C225 H227 0.960 . S
C225 H228 0.961 . S
H226 C225 0.959 . S
H227 C225 0.960 . S
H228 C225 0.961 . S
O229 Co204 1.967 . S
O229 C237 1.258 . S
O230 Co205 1.941 . S
O230 C237 1.266 . S
H231 C233 0.959 . S
H232 C233 0.961 . S
C233 C223 1.510 . S
C233 H231 0.959 . S
C233 H232 0.961 . S
C233 H234 0.960 . S
H234 C233 0.960 . S
H235 N215 0.862 . S
O236 Co204 1.920 . S
O236 C209 1.289 . S
C237 O229 1.258 . S
C237 O230 1.266 . S
Co238 O241 1.970 . S
Co238 N255 1.989 . S
Co238 O263 1.967 . S
Co238 O270 1.920 . S
Co239 O242 1.966 . S
Co239 N248 2.022 . S
Co239 N256 1.993 . S
Co239 O264 1.941 . S
C240 O241 1.258 . S
C240 O242 1.263 . S
O241 Co238 1.970 . S
O241 C240 1.258 . S
O242 Co239 1.966 . S
O242 C240 1.263 . S
C243 O244 1.235 . S
C243 O270 1.289 . S
O244 C243 1.235 . S
C245 C247 1.400 . S
C245 N248 1.351 . S
C245 C250 1.501 . S
C246 C247 1.387 . S
C246 N249 1.341 . S
C247 C245 1.400 . S
C247 C246 1.387 . S
N248 Co239 2.022 . S
N248 C245 1.351 . S
N248 N249 1.365 . S
N249 C246 1.341 . S
N249 N248 1.365 . S
N249 H269 0.862 . S
C250 C245 1.501 . S
C250 H251 0.961 . S
C250 H252 0.961 . S
C250 H253 0.960 . S
H251 C250 0.961 . S
H252 C250 0.961 . S
H253 C250 0.960 . S
C254 N255 1.342 . S
C254 C258 1.401 . S
C254 C259 1.499 . S
N255 Co238 1.989 . S
N255 C254 1.342 . S
N255 N256 1.388 . S
N256 Co239 1.993 . S
N256 N255 1.388 . S
N256 C257 1.346 . S
C257 N256 1.346 . S
C257 C258 1.396 . S
C257 C267 1.510 . S
C258 C254 1.401 . S
C258 C257 1.396 . S
C259 C254 1.499 . S
C259 H260 0.959 . S
C259 H261 0.960 . S
C259 H262 0.961 . S
H260 C259 0.959 . S
H261 C259 0.960 . S
H262 C259 0.961 . S
O263 Co238 1.967 . S
O263 C271 1.258 . S
O264 Co239 1.941 . S
O264 C271 1.266 . S
H265 C267 0.959 . S
H266 C267 0.961 . S
C267 C257 1.510 . S
C267 H265 0.959 . S
C267 H266 0.961 . S
C267 H268 0.960 . S
H268 C267 0.960 . S
H269 N249 0.862 . S
O270 Co238 1.920 . S
O270 C243 1.289 . S
C271 O263 1.258 . S
C271 O264 1.266 . S
Co272 O275 1.970 . S
Co272 N289 1.989 . S
Co272 O297 1.967 1_545 S
Co272 O304 1.920 . S
Co273 O276 1.966 . S
Co273 N282 2.022 . S
Co273 N290 1.993 1_565 S
Co273 O298 1.941 . S
C274 O275 1.219 1_565 S
C274 O276 1.297 . S
O275 Co272 1.970 . S
O275 C274 1.219 1_545 S
O276 Co273 1.966 . S
O276 C274 1.297 . S
C277 O278 1.235 . S
C277 O304 1.289 . S
O278 C277 1.235 . S
C279 C281 1.400 1_554 S
C279 N282 1.351 . S
C279 C284 1.501 1_554 S
C280 C281 1.387 1_554 S
C280 N283 1.341 . S
C281 C279 1.400 1_556 S
C281 C280 1.387 1_556 S
N282 Co273 2.022 . S
N282 C279 1.351 . S
N282 N283 1.365 . S
N283 C280 1.341 . S
N283 N282 1.365 . S
N283 H303 0.862 . S
C284 C279 1.501 1_556 S
C284 H285 0.947 1_556 S
C284 H286 0.961 . S
C284 H287 0.960 . S
H285 C284 0.947 1_554 S
H286 C284 0.961 . S
H287 C284 0.960 . S
C288 N289 1.342 . S
C288 C292 1.401 . S
C288 C293 1.499 . S
N289 Co272 1.989 . S
N289 C288 1.342 . S
N289 N290 1.388 . S
N290 Co273 1.993 1_545 S
N290 N289 1.388 . S
N290 C291 1.346 . S
C291 N290 1.346 . S
C291 C292 1.396 . S
C291 C301 1.510 1_545 S
C292 C288 1.401 . S
C292 C291 1.396 . S
C293 C288 1.499 . S
C293 H294 0.959 . S
C293 H295 0.960 . S
C293 H296 0.961 . S
H294 C293 0.959 . S
H295 C293 0.960 . S
H296 C293 0.961 . S
O297 Co272 1.967 1_565 S
O297 C305 1.258 . S
O298 Co273 1.941 . S
O298 C305 1.266 . S
H299 C301 0.959 . S
H300 C301 0.961 1_545 S
C301 C291 1.510 1_565 S
C301 H299 0.959 . S
C301 H300 0.961 1_565 S
C301 H302 0.960 . S
H302 C301 0.960 . S
H303 N283 0.862 . S
O304 Co272 1.920 . S
O304 C277 1.289 . S
C305 O297 1.258 . S
C305 O298 1.266 . S
Co306 O309 1.970 . S
Co306 N323 1.989 . S
Co306 O331 1.967 . S
Co306 O338 1.920 . S
Co307 O310 1.966 . S
Co307 N316 2.022 . S
Co307 N324 1.993 . S
Co307 O332 1.941 . S
C308 O309 1.258 . S
C308 O310 1.263 . S
O309 Co306 1.970 . S
O309 C308 1.258 . S
O310 Co307 1.966 . S
O310 C308 1.263 . S
C311 O312 1.235 . S
C311 O338 1.289 . S
O312 C311 1.235 . S
C313 C315 1.400 . S
C313 N316 1.351 . S
C313 C318 1.501 . S
C314 C315 1.387 . S
C314 N317 1.341 . S
C315 C313 1.400 . S
C315 C314 1.387 . S
N316 Co307 2.022 . S
N316 C313 1.351 . S
N316 N317 1.365 . S
N317 C314 1.341 . S
N317 N316 1.365 . S
N317 H337 0.862 . S
C318 C313 1.501 . S
C318 H319 0.961 . S
C318 H320 0.961 . S
C318 H321 0.960 . S
H319 C318 0.961 . S
H320 C318 0.961 . S
H321 C318 0.960 . S
C322 N323 1.342 . S
C322 C326 1.401 . S
C322 C327 1.499 . S
N323 Co306 1.989 . S
N323 C322 1.342 . S
N323 N324 1.388 . S
N324 Co307 1.993 . S
N324 N323 1.388 . S
N324 C325 1.346 . S
C325 N324 1.346 . S
C325 C326 1.396 . S
C325 C335 1.510 . S
C326 C322 1.401 . S
C326 C325 1.396 . S
C327 C322 1.499 . S
C327 H328 0.959 . S
C327 H329 0.960 . S
C327 H330 0.961 . S
H328 C327 0.959 . S
H329 C327 0.960 . S
H330 C327 0.961 . S
O331 Co306 1.967 . S
O331 C339 1.258 . S
O332 Co307 1.941 . S
O332 C339 1.266 . S
H333 C335 0.959 . S
H334 C335 0.961 . S
C335 C325 1.510 . S
C335 H333 0.959 . S
C335 H334 0.961 . S
C335 H336 0.960 . S
H336 C335 0.960 . S
H337 N317 0.862 . S
O338 Co306 1.920 . S
O338 C311 1.289 . S
C339 O331 1.258 . S
C339 O332 1.266 . S
Co340 O343 1.970 . S
Co340 N357 1.989 . S
Co340 O365 1.967 1_565 S
Co340 O372 1.920 . S
Co341 O344 1.966 . S
Co341 N350 2.022 . S
Co341 N358 1.993 1_545 S
Co341 O366 1.941 . S
C342 O343 1.258 . S
C342 O344 1.263 1_565 S
O343 Co340 1.970 . S
O343 C342 1.258 . S
O344 Co341 1.966 . S
O344 C342 1.263 1_545 S
C345 O346 1.235 . S
C345 O372 1.289 . S
O346 C345 1.235 . S
C347 C349 1.400 . S
C347 N350 1.351 . S
C347 C352 1.501 . S
C348 C349 1.387 . S
C348 N351 1.341 . S
C349 C347 1.400 . S
C349 C348 1.387 . S
N350 Co341 2.022 . S
N350 C347 1.351 . S
N350 N351 1.365 . S
N351 C348 1.341 . S
N351 N350 1.365 . S
N351 H371 0.862 . S
C352 C347 1.501 . S
C352 H353 0.961 . S
C352 H354 0.961 . S
C352 H355 0.960 . S
H353 C352 0.961 . S
H354 C352 0.961 . S
H355 C352 0.960 . S
C356 N357 1.342 . S
C356 C360 1.401 . S
C356 C361 1.499 . S
N357 Co340 1.989 . S
N357 C356 1.342 . S
N357 N358 1.388 . S
N358 Co341 1.993 1_565 S
N358 N357 1.388 . S
N358 C359 1.346 . S
C359 N358 1.346 . S
C359 C360 1.396 . S
C359 C369 1.501 1_565 S
C360 C356 1.401 . S
C360 C359 1.396 . S
C361 C356 1.499 . S
C361 H362 0.959 . S
C361 H363 0.960 . S
C361 H364 0.961 . S
H362 C361 0.959 . S
H363 C361 0.960 . S
H364 C361 0.961 . S
O365 Co340 1.967 1_545 S
O365 C373 1.258 . S
O366 Co341 1.941 . S
O366 C373 1.266 . S
H367 C369 0.965 . S
H368 C369 0.952 1_565 S
C369 C359 1.501 1_545 S
C369 H367 0.965 . S
C369 H368 0.952 1_545 S
C369 H370 0.973 . S
H370 C369 0.973 . S
H371 N351 0.862 . S
O372 Co340 1.920 . S
O372 C345 1.289 . S
C373 O365 1.258 . S
C373 O366 1.266 . S
Co374 O377 1.970 . S
Co374 N391 1.989 . S
Co374 O399 1.967 . S
Co374 O406 1.920 . S
Co375 O378 1.966 . S
Co375 N384 2.022 . S
Co375 N392 1.993 . S
Co375 O400 1.941 . S
C376 O377 1.258 . S
C376 O378 1.263 . S
O377 Co374 1.970 . S
O377 C376 1.258 . S
O378 Co375 1.966 . S
O378 C376 1.263 . S
C379 O380 1.235 . S
C379 O406 1.289 . S
O380 C379 1.235 . S
C381 C383 1.400 . S
C381 N384 1.351 . S
C381 C386 1.501 . S
C382 C383 1.387 . S
C382 N385 1.341 . S
C383 C381 1.400 . S
C383 C382 1.387 . S
N384 Co375 2.022 . S
N384 C381 1.351 . S
N384 N385 1.365 . S
N385 C382 1.341 . S
N385 N384 1.365 . S
N385 H405 0.862 . S
C386 C381 1.501 . S
C386 H387 0.961 . S
C386 H388 0.961 . S
C386 H389 0.960 . S
H387 C386 0.961 . S
H388 C386 0.961 . S
H389 C386 0.960 . S
C390 N391 1.342 . S
C390 C394 1.401 . S
C390 C395 1.499 . S
N391 Co374 1.989 . S
N391 C390 1.342 . S
N391 N392 1.388 . S
N392 Co375 1.993 . S
N392 N391 1.388 . S
N392 C393 1.346 . S
C393 N392 1.346 . S
C393 C394 1.396 . S
C393 C403 1.510 . S
C394 C390 1.401 . S
C394 C393 1.396 . S
C395 C390 1.499 . S
C395 H396 0.959 . S
C395 H397 0.960 . S
C395 H398 0.961 . S
H396 C395 0.959 . S
H397 C395 0.960 . S
H398 C395 0.961 . S
O399 Co374 1.967 . S
O399 C407 1.258 . S
O400 Co375 1.941 . S
O400 C407 1.266 . S
H401 C403 0.959 . S
H402 C403 0.961 . S
C403 C393 1.510 . S
C403 H401 0.959 . S
C403 H402 0.961 . S
C403 H404 0.960 . S
H404 C403 0.960 . S
H405 N385 0.862 . S
O406 Co374 1.920 . S
O406 C379 1.289 . S
C407 O399 1.258 . S
C407 O400 1.266 . S
Co408 O411 1.970 . S
Co408 N425 1.989 . S
Co408 O433 1.967 1_565 S
Co408 O440 1.920 . S
Co409 O412 1.966 . S
Co409 N418 2.022 . S
Co409 N426 1.993 1_545 S
Co409 O434 1.941 . S
C410 O411 1.258 . S
C410 O412 1.263 1_565 S
O411 Co408 1.970 . S
O411 C410 1.258 . S
O412 Co409 1.966 . S
O412 C410 1.263 1_545 S
C413 O414 1.235 . S
C413 O440 1.289 . S
O414 C413 1.235 . S
C415 C417 1.400 . S
C415 N418 1.351 . S
C415 C420 1.501 . S
C416 C417 1.387 . S
C416 N419 1.341 . S
C417 C415 1.400 . S
C417 C416 1.387 . S
N418 Co409 2.022 . S
N418 C415 1.351 . S
N418 N419 1.365 . S
N419 C416 1.341 . S
N419 N418 1.365 . S
N419 H439 0.862 . S
C420 C415 1.501 . S
C420 H421 0.961 . S
C420 H422 0.961 . S
C420 H423 0.960 . S
H421 C420 0.961 . S
H422 C420 0.961 . S
H423 C420 0.960 . S
C424 N425 1.342 . S
C424 C428 1.401 . S
C424 C429 1.499 . S
N425 Co408 1.989 . S
N425 C424 1.342 . S
N425 N426 1.388 . S
N426 Co409 1.993 1_565 S
N426 N425 1.388 . S
N426 C427 1.346 . S
C427 N426 1.346 . S
C427 C428 1.396 . S
C427 C437 1.501 1_565 S
C428 C424 1.401 . S
C428 C427 1.396 . S
C429 C424 1.499 . S
C429 H430 0.959 . S
C429 H431 0.960 . S
C429 H432 0.961 . S
H430 C429 0.959 . S
H431 C429 0.960 . S
H432 C429 0.961 . S
O433 Co408 1.967 1_545 S
O433 C441 1.258 . S
O434 Co409 1.941 . S
O434 C441 1.266 . S
H435 C437 0.965 . S
H436 C437 0.952 1_565 S
C437 C427 1.501 1_545 S
C437 H435 0.965 . S
C437 H436 0.952 1_545 S
C437 H438 0.973 . S
H438 C437 0.973 . S
H439 N419 0.862 . S
O440 Co408 1.920 . S
O440 C413 1.289 . S
C441 O433 1.258 . S
C441 O434 1.266 . S
Co442 O445 1.970 . S
Co442 N459 1.989 . S
Co442 O467 1.967 . S
Co442 O474 1.920 . S
Co443 O446 1.966 . S
Co443 N452 2.022 . S
Co443 N460 1.993 . S
Co443 O468 1.941 . S
C444 O445 1.258 . S
C444 O446 1.263 . S
O445 Co442 1.970 . S
O445 C444 1.258 . S
O446 Co443 1.966 . S
O446 C444 1.263 . S
C447 O448 1.235 . S
C447 O474 1.289 . S
O448 C447 1.235 . S
C449 C451 1.400 . S
C449 N452 1.351 . S
C449 C454 1.501 . S
C450 C451 1.387 . S
C450 N453 1.341 . S
C451 C449 1.400 . S
C451 C450 1.387 . S
N452 Co443 2.022 . S
N452 C449 1.351 . S
N452 N453 1.365 . S
N453 C450 1.341 . S
N453 N452 1.365 . S
N453 H473 0.862 . S
C454 C449 1.501 . S
C454 H455 0.961 . S
C454 H456 0.961 . S
C454 H457 0.960 . S
H455 C454 0.961 . S
H456 C454 0.961 . S
H457 C454 0.960 . S
C458 N459 1.342 . S
C458 C462 1.401 . S
C458 C463 1.499 . S
N459 Co442 1.989 . S
N459 C458 1.342 . S
N459 N460 1.388 . S
N460 Co443 1.993 . S
N460 N459 1.388 . S
N460 C461 1.346 . S
C461 N460 1.346 . S
C461 C462 1.396 . S
C461 C471 1.510 . S
C462 C458 1.401 . S
C462 C461 1.396 . S
C463 C458 1.499 . S
C463 H464 0.959 . S
C463 H465 0.960 . S
C463 H466 0.961 . S
H464 C463 0.959 . S
H465 C463 0.960 . S
H466 C463 0.961 . S
O467 Co442 1.967 . S
O467 C475 1.258 . S
O468 Co443 1.941 . S
O468 C475 1.266 . S
H469 C471 0.959 . S
H470 C471 0.961 . S
C471 C461 1.510 . S
C471 H469 0.959 . S
C471 H470 0.961 . S
C471 H472 0.960 . S
H472 C471 0.960 . S
H473 N453 0.862 . S
O474 Co442 1.920 . S
O474 C447 1.289 . S
C475 O467 1.258 . S
C475 O468 1.266 . S
Co476 O479 1.970 . S
Co476 N493 1.989 . S
Co476 O501 1.967 1_545 S
Co476 O508 1.920 . S
Co477 O480 1.966 . S
Co477 N486 2.022 . S
Co477 N494 1.993 1_565 S
Co477 O502 1.941 . S
C478 O479 1.219 1_565 S
C478 O480 1.298 . S
O479 Co476 1.970 . S
O479 C478 1.219 1_545 S
O480 Co477 1.966 . S
O480 C478 1.298 . S
C481 O482 1.235 . S
C481 O508 1.289 . S
O482 C481 1.235 . S
C483 C485 1.400 1_556 S
C483 N486 1.351 . S
C483 C488 1.501 1_556 S
C484 C485 1.387 1_556 S
C484 N487 1.341 . S
C485 C483 1.400 1_554 S
C485 C484 1.387 1_554 S
N486 Co477 2.022 . S
N486 C483 1.351 . S
N486 N487 1.365 . S
N487 C484 1.341 . S
N487 N486 1.365 . S
N487 H507 0.862 . S
C488 C483 1.501 1_554 S
C488 H489 0.961 1_554 S
C488 H490 0.961 . S
C488 H491 0.960 . S
H489 C488 0.961 1_556 S
H490 C488 0.961 . S
H491 C488 0.960 . S
C492 N493 1.342 . S
C492 C496 1.401 . S
C492 C497 1.499 . S
N493 Co476 1.989 . S
N493 C492 1.342 . S
N493 N494 1.388 . S
N494 Co477 1.993 1_545 S
N494 N493 1.388 . S
N494 C495 1.346 . S
C495 N494 1.346 . S
C495 C496 1.396 . S
C495 C505 1.510 1_545 S
C496 C492 1.401 . S
C496 C495 1.396 . S
C497 C492 1.499 . S
C497 H498 0.959 . S
C497 H499 0.960 . S
C497 H500 0.961 . S
H498 C497 0.959 . S
H499 C497 0.960 . S
H500 C497 0.961 . S
O501 Co476 1.967 1_565 S
O501 C509 1.258 . S
O502 Co477 1.941 . S
O502 C509 1.266 . S
H503 C505 0.959 . S
H504 C505 0.961 1_545 S
C505 C495 1.510 1_565 S
C505 H503 0.959 . S
C505 H504 0.961 1_565 S
C505 H506 0.960 . S
H506 C505 0.960 . S
H507 N487 0.862 . S
O508 Co476 1.920 . S
O508 C481 1.289 . S
C509 O501 1.258 . S
C509 O502 1.266 . S
Co510 O513 1.970 . S
Co510 N527 1.989 . S
Co510 O535 1.967 . S
Co510 O542 1.920 . S
Co511 O514 1.966 . S
Co511 N520 2.022 . S
Co511 N528 1.993 . S
Co511 O536 1.941 . S
C512 O513 1.258 . S
C512 O514 1.263 . S
O513 Co510 1.970 . S
O513 C512 1.258 . S
O514 Co511 1.966 . S
O514 C512 1.263 . S
C515 O516 1.235 . S
C515 O542 1.289 . S
O516 C515 1.235 . S
C517 C519 1.400 . S
C517 N520 1.351 . S
C517 C522 1.501 . S
C518 C519 1.387 . S
C518 N521 1.341 . S
C519 C517 1.400 . S
C519 C518 1.387 . S
N520 Co511 2.022 . S
N520 C517 1.351 . S
N520 N521 1.365 . S
N521 C518 1.341 . S
N521 N520 1.365 . S
N521 H541 0.862 . S
C522 C517 1.501 . S
C522 H523 0.961 . S
C522 H524 0.961 . S
C522 H525 0.960 . S
H523 C522 0.961 . S
H524 C522 0.961 . S
H525 C522 0.960 . S
C526 N527 1.342 . S
C526 C530 1.401 . S
C526 C531 1.499 . S
N527 Co510 1.989 . S
N527 C526 1.342 . S
N527 N528 1.388 . S
N528 Co511 1.993 . S
N528 N527 1.388 . S
N528 C529 1.346 . S
C529 N528 1.346 . S
C529 C530 1.396 . S
C529 C539 1.510 . S
C530 C526 1.401 . S
C530 C529 1.396 . S
C531 C526 1.499 . S
C531 H532 0.959 . S
C531 H533 0.960 . S
C531 H534 0.961 . S
H532 C531 0.959 . S
H533 C531 0.960 . S
H534 C531 0.961 . S
O535 Co510 1.967 . S
O535 C543 1.258 . S
O536 Co511 1.941 . S
O536 C543 1.266 . S
H537 C539 0.959 . S
H538 C539 0.961 . S
C539 C529 1.510 . S
C539 H537 0.959 . S
C539 H538 0.961 . S
C539 H540 0.960 . S
H540 C539 0.960 . S
H541 N521 0.862 . S
O542 Co510 1.920 . S
O542 C515 1.289 . S
C543 O535 1.258 . S
C543 O536 1.266 . S
Co544 O547 1.970 . S
Co544 N561 1.989 . S
Co544 O569 1.967 1_554 S
Co544 O576 1.920 . S
Co545 O548 1.966 . S
Co545 N554 2.022 . S
Co545 N562 1.993 1_556 S
Co545 O570 1.941 . S
C546 O547 1.219 1_556 S
C546 O548 1.297 . S
O547 Co544 1.970 . S
O547 C546 1.219 1_554 S
O548 Co545 1.966 . S
O548 C546 1.297 . S
C549 O550 1.235 . S
C549 O576 1.289 . S
O550 C549 1.235 . S
C551 C553 1.400 1_455 S
C551 N554 1.351 . S
C551 C556 1.501 1_455 S
C552 C553 1.387 1_455 S
C552 N555 1.341 . S
C553 C551 1.400 1_655 S
C553 C552 1.387 1_655 S
N554 Co545 2.022 . S
N554 C551 1.351 . S
N554 N555 1.365 . S
N555 C552 1.341 . S
N555 N554 1.365 . S
N555 H575 0.862 . S
C556 C551 1.501 1_655 S
C556 H557 0.947 1_655 S
C556 H558 0.961 . S
C556 H559 0.960 . S
H557 C556 0.947 1_455 S
H558 C556 0.961 . S
H559 C556 0.960 . S
C560 N561 1.342 . S
C560 C564 1.401 . S
C560 C565 1.499 . S
N561 Co544 1.989 . S
N561 C560 1.342 . S
N561 N562 1.388 . S
N562 Co545 1.993 1_554 S
N562 N561 1.388 . S
N562 C563 1.346 . S
C563 N562 1.346 . S
C563 C564 1.396 . S
C563 C573 1.510 1_554 S
C564 C560 1.401 . S
C564 C563 1.396 . S
C565 C560 1.499 . S
C565 H566 0.959 . S
C565 H567 0.960 . S
C565 H568 0.961 . S
H566 C565 0.959 . S
H567 C565 0.960 . S
H568 C565 0.961 . S
O569 Co544 1.967 1_556 S
O569 C577 1.258 . S
O570 Co545 1.941 . S
O570 C577 1.266 . S
H571 C573 0.959 . S
H572 C573 0.961 1_554 S
C573 C563 1.510 1_556 S
C573 H571 0.959 . S
C573 H572 0.961 1_556 S
C573 H574 0.960 . S
H574 C573 0.960 . S
H575 N555 0.862 . S
O576 Co544 1.920 . S
O576 C549 1.289 . S
C577 O569 1.258 . S
C577 O570 1.266 . S
Co578 O581 1.970 . S
Co578 N595 1.989 . S
Co578 O603 1.967 1_556 S
Co578 O610 1.920 . S
Co579 O582 1.966 . S
Co579 N588 2.022 . S
Co579 N596 1.993 1_554 S
Co579 O604 1.941 . S
C580 O581 1.258 . S
C580 O582 1.263 1_556 S
O581 Co578 1.970 . S
O581 C580 1.258 . S
O582 Co579 1.966 . S
O582 C580 1.263 1_554 S
C583 O584 1.235 . S
C583 O610 1.289 . S
O584 C583 1.235 . S
C585 C587 1.400 . S
C585 N588 1.351 . S
C585 C590 1.501 . S
C586 C587 1.387 . S
C586 N589 1.341 . S
C587 C585 1.400 . S
C587 C586 1.387 . S
N588 Co579 2.022 . S
N588 C585 1.351 . S
N588 N589 1.365 . S
N589 C586 1.341 . S
N589 N588 1.365 . S
N589 H609 0.862 . S
C590 C585 1.501 . S
C590 H591 0.961 . S
C590 H592 0.961 . S
C590 H593 0.960 . S
H591 C590 0.961 . S
H592 C590 0.961 . S
H593 C590 0.960 . S
C594 N595 1.342 . S
C594 C598 1.401 . S
C594 C599 1.499 . S
N595 Co578 1.989 . S
N595 C594 1.342 . S
N595 N596 1.388 . S
N596 Co579 1.993 1_556 S
N596 N595 1.388 . S
N596 C597 1.346 . S
C597 N596 1.346 . S
C597 C598 1.396 . S
C597 C607 1.501 1_556 S
C598 C594 1.401 . S
C598 C597 1.396 . S
C599 C594 1.499 . S
C599 H600 0.959 . S
C599 H601 0.960 . S
C599 H602 0.961 . S
H600 C599 0.959 . S
H601 C599 0.960 . S
H602 C599 0.961 . S
O603 Co578 1.967 1_554 S
O603 C611 1.258 . S
O604 Co579 1.941 . S
O604 C611 1.266 . S
H605 C607 0.965 . S
H606 C607 0.952 1_556 S
C607 C597 1.501 1_554 S
C607 H605 0.965 . S
C607 H606 0.952 1_554 S
C607 H608 0.973 . S
H608 C607 0.973 . S
H609 N589 0.862 . S
O610 Co578 1.920 . S
O610 C583 1.289 . S
C611 O603 1.258 . S
C611 O604 1.266 . S
Co612 O615 1.970 . S
Co612 N629 1.989 . S
Co612 O637 1.967 . S
Co612 O644 1.920 . S
Co613 O616 1.966 . S
Co613 N622 2.022 . S
Co613 N630 1.993 . S
Co613 O638 1.941 . S
C614 O615 1.258 . S
C614 O616 1.263 . S
O615 Co612 1.970 . S
O615 C614 1.258 . S
O616 Co613 1.966 . S
O616 C614 1.263 . S
C617 O618 1.235 . S
C617 O644 1.289 . S
O618 C617 1.235 . S
C619 C621 1.400 . S
C619 N622 1.351 . S
C619 C624 1.501 . S
C620 C621 1.387 . S
C620 N623 1.341 . S
C621 C619 1.400 . S
C621 C620 1.387 . S
N622 Co613 2.022 . S
N622 C619 1.351 . S
N622 N623 1.365 . S
N623 C620 1.341 . S
N623 N622 1.365 . S
N623 H643 0.862 . S
C624 C619 1.501 . S
C624 H625 0.961 . S
C624 H626 0.961 . S
C624 H627 0.960 . S
H625 C624 0.961 . S
H626 C624 0.961 . S
H627 C624 0.960 . S
C628 N629 1.342 . S
C628 C632 1.401 . S
C628 C633 1.499 . S
N629 Co612 1.989 . S
N629 C628 1.342 . S
N629 N630 1.388 . S
N630 Co613 1.993 . S
N630 N629 1.388 . S
N630 C631 1.346 . S
C631 N630 1.346 . S
C631 C632 1.396 . S
C631 C641 1.510 . S
C632 C628 1.401 . S
C632 C631 1.396 . S
C633 C628 1.499 . S
C633 H634 0.959 . S
C633 H635 0.960 . S
C633 H636 0.961 . S
H634 C633 0.959 . S
H635 C633 0.960 . S
H636 C633 0.961 . S
O637 Co612 1.967 . S
O637 C645 1.258 . S
O638 Co613 1.941 . S
O638 C645 1.266 . S
H639 C641 0.959 . S
H640 C641 0.961 . S
C641 C631 1.510 . S
C641 H639 0.959 . S
C641 H640 0.961 . S
C641 H642 0.960 . S
H642 C641 0.960 . S
H643 N623 0.862 . S
O644 Co612 1.920 . S
O644 C617 1.289 . S
C645 O637 1.258 . S
C645 O638 1.266 . S
Co646 O649 1.970 . S
Co646 N663 1.989 . S
Co646 O671 1.967 . S
Co646 O678 1.920 . S
Co647 O650 1.966 . S
Co647 N656 2.022 . S
Co647 N664 1.993 . S
Co647 O672 1.941 . S
C648 O649 1.258 . S
C648 O650 1.263 . S
O649 Co646 1.970 . S
O649 C648 1.258 . S
O650 Co647 1.966 . S
O650 C648 1.263 . S
C651 O652 1.235 . S
C651 O678 1.289 . S
O652 C651 1.235 . S
C653 C655 1.400 1_655 S
C653 N656 1.351 . S
C653 C658 1.501 1_655 S
C654 C655 1.387 1_655 S
C654 N657 1.341 . S
C655 C653 1.400 1_455 S
C655 C654 1.387 1_455 S
N656 Co647 2.022 . S
N656 C653 1.351 . S
N656 N657 1.365 . S
N657 C654 1.341 . S
N657 N656 1.365 . S
N657 H677 0.862 . S
C658 C653 1.501 1_455 S
C658 H659 0.961 1_455 S
C658 H660 0.961 . S
C658 H661 0.960 . S
H659 C658 0.961 1_655 S
H660 C658 0.961 . S
H661 C658 0.960 . S
C662 N663 1.342 . S
C662 C666 1.401 . S
C662 C667 1.499 . S
N663 Co646 1.989 . S
N663 C662 1.342 . S
N663 N664 1.388 . S
N664 Co647 1.993 . S
N664 N663 1.388 . S
N664 C665 1.346 . S
C665 N664 1.346 . S
C665 C666 1.396 . S
C665 C675 1.510 . S
C666 C662 1.401 . S
C666 C665 1.396 . S
C667 C662 1.499 . S
C667 H668 0.959 . S
C667 H669 0.960 . S
C667 H670 0.961 . S
H668 C667 0.959 . S
H669 C667 0.960 . S
H670 C667 0.961 . S
O671 Co646 1.967 . S
O671 C679 1.258 . S
O672 Co647 1.941 . S
O672 C679 1.266 . S
H673 C675 0.959 . S
H674 C675 0.961 . S
C675 C665 1.510 . S
C675 H673 0.959 . S
C675 H674 0.961 . S
C675 H676 0.960 . S
H676 C675 0.960 . S
H677 N657 0.862 . S
O678 Co646 1.920 . S
O678 C651 1.289 . S
C679 O671 1.258 . S
C679 O672 1.266 . S
Co680 O683 1.970 . S
Co680 N697 1.989 . S
Co680 O705 1.967 . S
Co680 O712 1.920 . S
Co681 O684 1.966 . S
Co681 N690 2.022 . S
Co681 N698 1.993 . S
Co681 O706 1.941 . S
C682 O683 1.258 . S
C682 O684 1.263 . S
O683 Co680 1.970 . S
O683 C682 1.258 . S
O684 Co681 1.966 . S
O684 C682 1.263 . S
C685 O686 1.235 . S
C685 O712 1.289 . S
O686 C685 1.235 . S
C687 C689 1.400 . S
C687 N690 1.351 . S
C687 C692 1.501 . S
C688 C689 1.387 . S
C688 N691 1.341 . S
C689 C687 1.400 . S
C689 C688 1.387 . S
N690 Co681 2.022 . S
N690 C687 1.351 . S
N690 N691 1.365 . S
N691 C688 1.341 . S
N691 N690 1.365 . S
N691 H711 0.862 . S
C692 C687 1.501 . S
C692 H693 0.961 . S
C692 H694 0.961 . S
C692 H695 0.960 . S
H693 C692 0.961 . S
H694 C692 0.961 . S
H695 C692 0.960 . S
C696 N697 1.342 . S
C696 C700 1.401 . S
C696 C701 1.499 . S
N697 Co680 1.989 . S
N697 C696 1.342 . S
N697 N698 1.388 . S
N698 Co681 1.993 . S
N698 N697 1.388 . S
N698 C699 1.346 . S
C699 N698 1.346 . S
C699 C700 1.396 . S
C699 C709 1.510 . S
C700 C696 1.401 . S
C700 C699 1.396 . S
C701 C696 1.499 . S
C701 H702 0.959 . S
C701 H703 0.960 . S
C701 H704 0.961 . S
H702 C701 0.959 . S
H703 C701 0.960 . S
H704 C701 0.961 . S
O705 Co680 1.967 . S
O705 C713 1.258 . S
O706 Co681 1.941 . S
O706 C713 1.266 . S
H707 C709 0.959 . S
H708 C709 0.961 . S
C709 C699 1.510 . S
C709 H707 0.959 . S
C709 H708 0.961 . S
C709 H710 0.960 . S
H710 C709 0.960 . S
H711 N691 0.862 . S
O712 Co680 1.920 . S
O712 C685 1.289 . S
C713 O705 1.258 . S
C713 O706 1.266 . S
Co714 O717 1.970 . S
Co714 N731 1.989 . S
Co714 O739 1.967 . S
Co714 O746 1.920 . S
Co715 O718 1.966 . S
Co715 N724 2.022 . S
Co715 N732 1.993 . S
Co715 O740 1.941 . S
C716 O717 1.258 . S
C716 O718 1.263 . S
O717 Co714 1.970 . S
O717 C716 1.258 . S
O718 Co715 1.966 . S
O718 C716 1.263 . S
C719 O720 1.235 . S
C719 O746 1.289 . S
O720 C719 1.235 . S
C721 C723 1.400 . S
C721 N724 1.351 . S
C721 C726 1.501 . S
C722 C723 1.387 . S
C722 N725 1.341 . S
C723 C721 1.400 . S
C723 C722 1.387 . S
N724 Co715 2.022 . S
N724 C721 1.351 . S
N724 N725 1.365 . S
N725 C722 1.341 . S
N725 N724 1.365 . S
N725 H745 0.862 . S
C726 C721 1.501 . S
C726 H727 0.961 . S
C726 H728 0.961 . S
C726 H729 0.960 . S
H727 C726 0.961 . S
H728 C726 0.961 . S
H729 C726 0.960 . S
C730 N731 1.342 . S
C730 C734 1.401 . S
C730 C735 1.499 . S
N731 Co714 1.989 . S
N731 C730 1.342 . S
N731 N732 1.388 . S
N732 Co715 1.993 . S
N732 N731 1.388 . S
N732 C733 1.346 . S
C733 N732 1.346 . S
C733 C734 1.396 . S
C733 C743 1.510 . S
C734 C730 1.401 . S
C734 C733 1.396 . S
C735 C730 1.499 . S
C735 H736 0.959 . S
C735 H737 0.960 . S
C735 H738 0.961 . S
H736 C735 0.959 . S
H737 C735 0.960 . S
H738 C735 0.961 . S
O739 Co714 1.967 . S
O739 C747 1.258 . S
O740 Co715 1.941 . S
O740 C747 1.266 . S
H741 C743 0.959 . S
H742 C743 0.961 . S
C743 C733 1.510 . S
C743 H741 0.959 . S
C743 H742 0.961 . S
C743 H744 0.960 . S
H744 C743 0.960 . S
H745 N725 0.862 . S
O746 Co714 1.920 . S
O746 C719 1.289 . S
C747 O739 1.258 . S
C747 O740 1.266 . S
Co748 O751 1.970 . S
Co748 N765 1.989 . S
Co748 O773 1.967 . S
Co748 O780 1.920 . S
Co749 O752 1.966 . S
Co749 N758 2.022 . S
Co749 N766 1.993 . S
Co749 O774 1.941 . S
C750 O751 1.258 . S
C750 O752 1.263 . S
O751 Co748 1.970 . S
O751 C750 1.258 . S
O752 Co749 1.966 . S
O752 C750 1.263 . S
C753 O754 1.235 . S
C753 O780 1.289 . S
O754 C753 1.235 . S
C755 C757 1.400 . S
C755 N758 1.351 . S
C755 C760 1.501 . S
C756 C757 1.387 . S
C756 N759 1.341 . S
C757 C755 1.400 . S
C757 C756 1.387 . S
N758 Co749 2.022 . S
N758 C755 1.351 . S
N758 N759 1.365 . S
N759 C756 1.341 . S
N759 N758 1.365 . S
N759 H779 0.862 . S
C760 C755 1.501 . S
C760 H761 0.961 . S
C760 H762 0.961 . S
C760 H763 0.960 . S
H761 C760 0.961 . S
H762 C760 0.961 . S
H763 C760 0.960 . S
C764 N765 1.342 . S
C764 C768 1.401 . S
C764 C769 1.499 . S
N765 Co748 1.989 . S
N765 C764 1.342 . S
N765 N766 1.388 . S
N766 Co749 1.993 . S
N766 N765 1.388 . S
N766 C767 1.346 . S
C767 N766 1.346 . S
C767 C768 1.396 . S
C767 C777 1.510 . S
C768 C764 1.401 . S
C768 C767 1.396 . S
C769 C764 1.499 . S
C769 H770 0.959 . S
C769 H771 0.960 . S
C769 H772 0.961 . S
H770 C769 0.959 . S
H771 C769 0.960 . S
H772 C769 0.961 . S
O773 Co748 1.967 . S
O773 C781 1.258 . S
O774 Co749 1.941 . S
O774 C781 1.266 . S
H775 C777 0.959 . S
H776 C777 0.961 . S
C777 C767 1.510 . S
C777 H775 0.959 . S
C777 H776 0.961 . S
C777 H778 0.960 . S
H778 C777 0.960 . S
H779 N759 0.862 . S
O780 Co748 1.920 . S
O780 C753 1.289 . S
C781 O773 1.258 . S
C781 O774 1.266 . S
Co782 O785 1.970 . S
Co782 N799 1.989 . S
Co782 O807 1.967 . S
Co782 O814 1.920 . S
Co783 O786 1.966 . S
Co783 N792 2.022 . S
Co783 N800 1.993 . S
Co783 O808 1.941 . S
C784 O785 1.258 . S
C784 O786 1.263 . S
O785 Co782 1.970 . S
O785 C784 1.258 . S
O786 Co783 1.966 . S
O786 C784 1.263 . S
C787 O788 1.235 . S
C787 O814 1.289 . S
O788 C787 1.235 . S
C789 C791 1.400 . S
C789 N792 1.351 . S
C789 C794 1.501 . S
C790 C791 1.387 . S
C790 N793 1.341 . S
C791 C789 1.400 . S
C791 C790 1.387 . S
N792 Co783 2.022 . S
N792 C789 1.351 . S
N792 N793 1.365 . S
N793 C790 1.341 . S
N793 N792 1.365 . S
N793 H813 0.862 . S
C794 C789 1.501 . S
C794 H795 0.961 . S
C794 H796 0.961 . S
C794 H797 0.960 . S
H795 C794 0.961 . S
H796 C794 0.961 . S
H797 C794 0.960 . S
C798 N799 1.342 . S
C798 C802 1.401 . S
C798 C803 1.499 . S
N799 Co782 1.989 . S
N799 C798 1.342 . S
N799 N800 1.388 . S
N800 Co783 1.993 . S
N800 N799 1.388 . S
N800 C801 1.346 . S
C801 N800 1.346 . S
C801 C802 1.396 . S
C801 C811 1.510 . S
C802 C798 1.401 . S
C802 C801 1.396 . S
C803 C798 1.499 . S
C803 H804 0.959 . S
C803 H805 0.960 . S
C803 H806 0.961 . S
H804 C803 0.959 . S
H805 C803 0.960 . S
H806 C803 0.961 . S
O807 Co782 1.967 . S
O807 C815 1.258 . S
O808 Co783 1.941 . S
O808 C815 1.266 . S
H809 C811 0.959 . S
H810 C811 0.961 . S
C811 C801 1.510 . S
C811 H809 0.959 . S
C811 H810 0.961 . S
C811 H812 0.960 . S
H812 C811 0.960 . S
H813 N793 0.862 . S
O814 Co782 1.920 . S
O814 C787 1.289 . S
C815 O807 1.258 . S
C815 O808 1.266 . S
Co816 O819 1.970 . S
Co816 N833 1.989 . S
Co816 O841 1.967 . S
Co816 O848 1.920 . S
Co817 O820 1.966 . S
Co817 N826 2.022 . S
Co817 N834 1.993 . S
Co817 O842 1.941 . S
C818 O819 1.258 . S
C818 O820 1.263 . S
O819 Co816 1.970 . S
O819 C818 1.258 . S
O820 Co817 1.966 . S
O820 C818 1.263 . S
C821 O822 1.235 . S
C821 O848 1.289 . S
O822 C821 1.235 . S
C823 C825 1.400 . S
C823 N826 1.351 . S
C823 C828 1.501 . S
C824 C825 1.387 . S
C824 N827 1.341 . S
C825 C823 1.400 . S
C825 C824 1.387 . S
N826 Co817 2.022 . S
N826 C823 1.351 . S
N826 N827 1.365 . S
N827 C824 1.341 . S
N827 N826 1.365 . S
N827 H847 0.862 . S
C828 C823 1.501 . S
C828 H829 0.961 . S
C828 H830 0.961 . S
C828 H831 0.960 . S
H829 C828 0.961 . S
H830 C828 0.961 . S
H831 C828 0.960 . S
C832 N833 1.342 . S
C832 C836 1.401 . S
C832 C837 1.499 . S
N833 Co816 1.989 . S
N833 C832 1.342 . S
N833 N834 1.388 . S
N834 Co817 1.993 . S
N834 N833 1.388 . S
N834 C835 1.346 . S
C835 N834 1.346 . S
C835 C836 1.396 . S
C835 C845 1.510 . S
C836 C832 1.401 . S
C836 C835 1.396 . S
C837 C832 1.499 . S
C837 H838 0.959 . S
C837 H839 0.960 . S
C837 H840 0.961 . S
H838 C837 0.959 . S
H839 C837 0.960 . S
H840 C837 0.961 . S
O841 Co816 1.967 . S
O841 C849 1.258 . S
O842 Co817 1.941 . S
O842 C849 1.266 . S
H843 C845 0.959 . S
H844 C845 0.961 . S
C845 C835 1.510 . S
C845 H843 0.959 . S
C845 H844 0.961 . S
C845 H846 0.960 . S
H846 C845 0.960 . S
H847 N827 0.862 . S
O848 Co816 1.920 . S
O848 C821 1.289 . S
C849 O841 1.258 . S
C849 O842 1.266 . S
Co850 O853 1.970 . S
Co850 N867 1.989 . S
Co850 O875 1.967 . S
Co850 O882 1.920 . S
Co851 O854 1.966 . S
Co851 N860 2.022 . S
Co851 N868 1.993 . S
Co851 O876 1.941 . S
C852 O853 1.258 . S
C852 O854 1.263 . S
O853 Co850 1.970 . S
O853 C852 1.258 . S
O854 Co851 1.966 . S
O854 C852 1.263 . S
C855 O856 1.235 . S
C855 O882 1.289 . S
O856 C855 1.235 . S
C857 C859 1.400 . S
C857 N860 1.351 . S
C857 C862 1.501 . S
C858 C859 1.387 . S
C858 N861 1.341 . S
C859 C857 1.400 . S
C859 C858 1.387 . S
N860 Co851 2.022 . S
N860 C857 1.351 . S
N860 N861 1.365 . S
N861 C858 1.341 . S
N861 N860 1.365 . S
N861 H881 0.862 . S
C862 C857 1.501 . S
C862 H863 0.961 . S
C862 H864 0.961 . S
C862 H865 0.960 . S
H863 C862 0.961 . S
H864 C862 0.961 . S
H865 C862 0.960 . S
C866 N867 1.342 . S
C866 C870 1.401 . S
C866 C871 1.499 . S
N867 Co850 1.989 . S
N867 C866 1.342 . S
N867 N868 1.388 . S
N868 Co851 1.993 . S
N868 N867 1.388 . S
N868 C869 1.346 . S
C869 N868 1.346 . S
C869 C870 1.396 . S
C869 C879 1.510 . S
C870 C866 1.401 . S
C870 C869 1.396 . S
C871 C866 1.499 . S
C871 H872 0.959 . S
C871 H873 0.960 . S
C871 H874 0.961 . S
H872 C871 0.959 . S
H873 C871 0.960 . S
H874 C871 0.961 . S
O875 Co850 1.967 . S
O875 C883 1.258 . S
O876 Co851 1.941 . S
O876 C883 1.266 . S
H877 C879 0.959 . S
H878 C879 0.961 . S
C879 C869 1.510 . S
C879 H877 0.959 . S
C879 H878 0.961 . S
C879 H880 0.960 . S
H880 C879 0.960 . S
H881 N861 0.862 . S
O882 Co850 1.920 . S
O882 C855 1.289 . S
C883 O875 1.258 . S
C883 O876 1.266 . S
Co884 O887 1.970 . S
Co884 N901 1.989 . S
Co884 O909 1.967 1_655 S
Co884 O916 1.920 . S
Co885 O888 1.966 . S
Co885 N894 2.022 . S
Co885 N902 1.993 1_455 S
Co885 O910 1.941 . S
C886 O887 1.258 . S
C886 O888 1.263 1_655 S
O887 Co884 1.970 . S
O887 C886 1.258 . S
O888 Co885 1.966 . S
O888 C886 1.263 1_455 S
C889 O890 1.235 . S
C889 O916 1.289 . S
O890 C889 1.235 . S
C891 C893 1.400 . S
C891 N894 1.351 . S
C891 C896 1.501 . S
C892 C893 1.387 . S
C892 N895 1.341 . S
C893 C891 1.400 . S
C893 C892 1.387 . S
N894 Co885 2.022 . S
N894 C891 1.351 . S
N894 N895 1.365 . S
N895 C892 1.341 . S
N895 N894 1.365 . S
N895 H915 0.862 . S
C896 C891 1.501 . S
C896 H897 0.961 . S
C896 H898 0.961 . S
C896 H899 0.960 . S
H897 C896 0.961 . S
H898 C896 0.961 . S
H899 C896 0.960 . S
C900 N901 1.342 . S
C900 C904 1.401 . S
C900 C905 1.499 . S
N901 Co884 1.989 . S
N901 C900 1.342 . S
N901 N902 1.388 . S
N902 Co885 1.993 1_655 S
N902 N901 1.388 . S
N902 C903 1.346 . S
C903 N902 1.346 . S
C903 C904 1.396 . S
C903 C913 1.501 1_655 S
C904 C900 1.401 . S
C904 C903 1.396 . S
C905 C900 1.499 . S
C905 H906 0.959 . S
C905 H907 0.960 . S
C905 H908 0.961 . S
H906 C905 0.959 . S
H907 C905 0.960 . S
H908 C905 0.961 . S
O909 Co884 1.967 1_455 S
O909 C917 1.258 . S
O910 Co885 1.941 . S
O910 C917 1.266 . S
H911 C913 0.965 . S
H912 C913 0.952 1_655 S
C913 C903 1.501 1_455 S
C913 H911 0.965 . S
C913 H912 0.952 1_455 S
C913 H914 0.973 . S
H914 C913 0.973 . S
H915 N895 0.862 . S
O916 Co884 1.920 . S
O916 C889 1.289 . S
C917 O909 1.258 . S
C917 O910 1.266 . S
Co918 O921 1.970 . S
Co918 N935 1.989 . S
Co918 O943 1.967 . S
Co918 O950 1.920 . S
Co919 O922 1.966 . S
Co919 N928 2.022 . S
Co919 N936 1.993 . S
Co919 O944 1.941 . S
C920 O921 1.258 . S
C920 O922 1.263 . S
O921 Co918 1.970 . S
O921 C920 1.258 . S
O922 Co919 1.966 . S
O922 C920 1.263 . S
C923 O924 1.235 . S
C923 O950 1.289 . S
O924 C923 1.235 . S
C925 C927 1.400 . S
C925 N928 1.351 . S
C925 C930 1.501 . S
C926 C927 1.387 . S
C926 N929 1.341 . S
C927 C925 1.400 . S
C927 C926 1.387 . S
N928 Co919 2.022 . S
N928 C925 1.351 . S
N928 N929 1.365 . S
N929 C926 1.341 . S
N929 N928 1.365 . S
N929 H949 0.862 . S
C930 C925 1.501 . S
C930 H931 0.961 . S
C930 H932 0.961 . S
C930 H933 0.960 . S
H931 C930 0.961 . S
H932 C930 0.961 . S
H933 C930 0.960 . S
C934 N935 1.342 . S
C934 C938 1.401 . S
C934 C939 1.499 . S
N935 Co918 1.989 . S
N935 C934 1.342 . S
N935 N936 1.388 . S
N936 Co919 1.993 . S
N936 N935 1.388 . S
N936 C937 1.346 . S
C937 N936 1.346 . S
C937 C938 1.396 . S
C937 C947 1.510 . S
C938 C934 1.401 . S
C938 C937 1.396 . S
C939 C934 1.499 . S
C939 H940 0.959 . S
C939 H941 0.960 . S
C939 H942 0.961 . S
H940 C939 0.959 . S
H941 C939 0.960 . S
H942 C939 0.961 . S
O943 Co918 1.967 . S
O943 C951 1.258 . S
O944 Co919 1.941 . S
O944 C951 1.266 . S
H945 C947 0.959 . S
H946 C947 0.961 . S
C947 C937 1.510 . S
C947 H945 0.959 . S
C947 H946 0.961 . S
C947 H948 0.960 . S
H948 C947 0.960 . S
H949 N929 0.862 . S
O950 Co918 1.920 . S
O950 C923 1.289 . S
C951 O943 1.258 . S
C951 O944 1.266 . S
Co952 O955 1.970 . S
Co952 N969 1.989 . S
Co952 O977 1.967 . S
Co952 O984 1.920 . S
Co953 O956 1.966 . S
Co953 N962 2.022 . S
Co953 N970 1.993 . S
Co953 O978 1.941 . S
C954 O955 1.258 . S
C954 O956 1.263 . S
O955 Co952 1.970 . S
O955 C954 1.258 . S
O956 Co953 1.966 . S
O956 C954 1.263 . S
C957 O958 1.235 . S
C957 O984 1.289 . S
O958 C957 1.235 . S
C959 C961 1.400 . S
C959 N962 1.351 . S
C959 C964 1.501 . S
C960 C961 1.387 . S
C960 N963 1.341 . S
C961 C959 1.400 . S
C961 C960 1.387 . S
N962 Co953 2.022 . S
N962 C959 1.351 . S
N962 N963 1.365 . S
N963 C960 1.341 . S
N963 N962 1.365 . S
N963 H983 0.862 . S
C964 C959 1.501 . S
C964 H965 0.961 . S
C964 H966 0.961 . S
C964 H967 0.960 . S
H965 C964 0.961 . S
H966 C964 0.961 . S
H967 C964 0.960 . S
C968 N969 1.342 . S
C968 C972 1.401 . S
C968 C973 1.499 . S
N969 Co952 1.989 . S
N969 C968 1.342 . S
N969 N970 1.388 . S
N970 Co953 1.993 . S
N970 N969 1.388 . S
N970 C971 1.346 . S
C971 N970 1.346 . S
C971 C972 1.396 . S
C971 C981 1.510 . S
C972 C968 1.401 . S
C972 C971 1.396 . S
C973 C968 1.499 . S
C973 H974 0.959 . S
C973 H975 0.960 . S
C973 H976 0.961 . S
H974 C973 0.959 . S
H975 C973 0.960 . S
H976 C973 0.961 . S
O977 Co952 1.967 . S
O977 C985 1.258 . S
O978 Co953 1.941 . S
O978 C985 1.266 . S
H979 C981 0.959 . S
H980 C981 0.961 . S
C981 C971 1.510 . S
C981 H979 0.959 . S
C981 H980 0.961 . S
C981 H982 0.960 . S
H982 C981 0.960 . S
H983 N963 0.862 . S
O984 Co952 1.920 . S
O984 C957 1.289 . S
C985 O977 1.258 . S
C985 O978 1.266 . S
Co986 O989 1.970 . S
Co986 N1003 1.989 . S
Co986 O1011 1.967 . S
Co986 O1018 1.920 . S
Co987 O990 1.966 . S
Co987 N996 2.022 . S
Co987 N1004 1.993 . S
Co987 O1012 1.941 . S
C988 O989 1.258 . S
C988 O990 1.263 . S
O989 Co986 1.970 . S
O989 C988 1.258 . S
O990 Co987 1.966 . S
O990 C988 1.263 . S
C991 O992 1.235 . S
C991 O1018 1.289 . S
O992 C991 1.235 . S
C993 C995 1.400 . S
C993 N996 1.351 . S
C993 C998 1.501 . S
C994 C995 1.387 . S
C994 N997 1.341 . S
C995 C993 1.400 . S
C995 C994 1.387 . S
N996 Co987 2.022 . S
N996 C993 1.351 . S
N996 N997 1.365 . S
N997 C994 1.341 . S
N997 N996 1.365 . S
N997 H1017 0.862 . S
C998 C993 1.501 . S
C998 H999 0.961 . S
C998 H1000 0.961 . S
C998 H1001 0.960 . S
H999 C998 0.961 . S
H1000 C998 0.961 . S
H1001 C998 0.960 . S
C1002 N1003 1.342 . S
C1002 C1006 1.401 . S
C1002 C1007 1.499 . S
N1003 Co986 1.989 . S
N1003 C1002 1.342 . S
N1003 N1004 1.388 . S
N1004 Co987 1.993 . S
N1004 N1003 1.388 . S
N1004 C1005 1.346 . S
C1005 N1004 1.346 . S
C1005 C1006 1.396 . S
C1005 C1015 1.510 . S
C1006 C1002 1.401 . S
C1006 C1005 1.396 . S
C1007 C1002 1.499 . S
C1007 H1008 0.959 . S
C1007 H1009 0.960 . S
C1007 H1010 0.961 . S
H1008 C1007 0.959 . S
H1009 C1007 0.960 . S
H1010 C1007 0.961 . S
O1011 Co986 1.967 . S
O1011 C1019 1.258 . S
O1012 Co987 1.941 . S
O1012 C1019 1.266 . S
H1013 C1015 0.959 . S
H1014 C1015 0.961 . S
C1015 C1005 1.510 . S
C1015 H1013 0.959 . S
C1015 H1014 0.961 . S
C1015 H1016 0.960 . S
H1016 C1015 0.960 . S
H1017 N997 0.862 . S
O1018 Co986 1.920 . S
O1018 C991 1.289 . S
C1019 O1011 1.258 . S
C1019 O1012 1.266 . S
Co1020 O1023 1.970 . S
Co1020 N1037 1.989 . S
Co1020 O1045 1.967 1_655 S
Co1020 O1052 1.920 . S
Co1021 O1024 1.966 . S
Co1021 N1030 2.022 . S
Co1021 N1038 1.993 1_455 S
Co1021 O1046 1.941 . S
C1022 O1023 1.258 . S
C1022 O1024 1.263 1_655 S
O1023 Co1020 1.970 . S
O1023 C1022 1.258 . S
O1024 Co1021 1.966 . S
O1024 C1022 1.263 1_455 S
C1025 O1026 1.235 . S
C1025 O1052 1.289 . S
O1026 C1025 1.235 . S
C1027 C1029 1.400 . S
C1027 N1030 1.351 . S
C1027 C1032 1.501 . S
C1028 C1029 1.387 . S
C1028 N1031 1.341 . S
C1029 C1027 1.400 . S
C1029 C1028 1.387 . S
N1030 Co1021 2.022 . S
N1030 C1027 1.351 . S
N1030 N1031 1.365 . S
N1031 C1028 1.341 . S
N1031 N1030 1.365 . S
N1031 H1051 0.862 . S
C1032 C1027 1.501 . S
C1032 H1033 0.961 . S
C1032 H1034 0.961 . S
C1032 H1035 0.960 . S
H1033 C1032 0.961 . S
H1034 C1032 0.961 . S
H1035 C1032 0.960 . S
C1036 N1037 1.342 . S
C1036 C1040 1.401 . S
C1036 C1041 1.499 . S
N1037 Co1020 1.989 . S
N1037 C1036 1.342 . S
N1037 N1038 1.388 . S
N1038 Co1021 1.993 1_655 S
N1038 N1037 1.388 . S
N1038 C1039 1.346 . S
C1039 N1038 1.346 . S
C1039 C1040 1.396 . S
C1039 C1049 1.501 1_655 S
C1040 C1036 1.401 . S
C1040 C1039 1.396 . S
C1041 C1036 1.499 . S
C1041 H1042 0.959 . S
C1041 H1043 0.960 . S
C1041 H1044 0.961 . S
H1042 C1041 0.959 . S
H1043 C1041 0.960 . S
H1044 C1041 0.961 . S
O1045 Co1020 1.967 1_455 S
O1045 C1053 1.258 . S
O1046 Co1021 1.941 . S
O1046 C1053 1.266 . S
H1047 C1049 0.965 . S
H1048 C1049 0.952 1_655 S
C1049 C1039 1.501 1_455 S
C1049 H1047 0.965 . S
C1049 H1048 0.952 1_455 S
C1049 H1050 0.973 . S
H1050 C1049 0.973 . S
H1051 N1031 0.862 . S
O1052 Co1020 1.920 . S
O1052 C1025 1.289 . S
C1053 O1045 1.258 . S
C1053 O1046 1.266 . S
Co1054 O1057 1.970 . S
Co1054 N1071 1.989 . S
Co1054 O1079 1.967 . S
Co1054 O1086 1.920 . S
Co1055 O1058 1.966 . S
Co1055 N1064 2.022 . S
Co1055 N1072 1.993 . S
Co1055 O1080 1.941 . S
C1056 O1057 1.258 . S
C1056 O1058 1.263 . S
O1057 Co1054 1.970 . S
O1057 C1056 1.258 . S
O1058 Co1055 1.966 . S
O1058 C1056 1.263 . S
C1059 O1060 1.235 . S
C1059 O1086 1.289 . S
O1060 C1059 1.235 . S
C1061 C1063 1.400 . S
C1061 N1064 1.351 . S
C1061 C1066 1.501 . S
C1062 C1063 1.387 . S
C1062 N1065 1.341 . S
C1063 C1061 1.400 . S
C1063 C1062 1.387 . S
N1064 Co1055 2.022 . S
N1064 C1061 1.351 . S
N1064 N1065 1.365 . S
N1065 C1062 1.341 . S
N1065 N1064 1.365 . S
N1065 H1085 0.862 . S
C1066 C1061 1.501 . S
C1066 H1067 0.961 . S
C1066 H1068 0.961 . S
C1066 H1069 0.960 . S
H1067 C1066 0.961 . S
H1068 C1066 0.961 . S
H1069 C1066 0.960 . S
C1070 N1071 1.342 . S
C1070 C1074 1.401 . S
C1070 C1075 1.499 . S
N1071 Co1054 1.989 . S
N1071 C1070 1.342 . S
N1071 N1072 1.388 . S
N1072 Co1055 1.993 . S
N1072 N1071 1.388 . S
N1072 C1073 1.346 . S
C1073 N1072 1.346 . S
C1073 C1074 1.396 . S
C1073 C1083 1.510 . S
C1074 C1070 1.401 . S
C1074 C1073 1.396 . S
C1075 C1070 1.499 . S
C1075 H1076 0.959 . S
C1075 H1077 0.960 . S
C1075 H1078 0.961 . S
H1076 C1075 0.959 . S
H1077 C1075 0.960 . S
H1078 C1075 0.961 . S
O1079 Co1054 1.967 . S
O1079 C1087 1.258 . S
O1080 Co1055 1.941 . S
O1080 C1087 1.266 . S
H1081 C1083 0.959 . S
H1082 C1083 0.961 . S
C1083 C1073 1.510 . S
C1083 H1081 0.959 . S
C1083 H1082 0.961 . S
C1083 H1084 0.960 . S
H1084 C1083 0.960 . S
H1085 N1065 0.862 . S
O1086 Co1054 1.920 . S
O1086 C1059 1.289 . S
C1087 O1079 1.258 . S
C1087 O1080 1.266 . S
Co1088 O1091 1.970 . S
Co1088 N1105 1.989 . S
Co1088 O1113 1.967 . S
Co1088 O1120 1.920 . S
Co1089 O1092 1.966 . S
Co1089 N1098 2.022 . S
Co1089 N1106 1.993 . S
Co1089 O1114 1.941 . S
C1090 O1091 1.258 . S
C1090 O1092 1.263 . S
O1091 Co1088 1.970 . S
O1091 C1090 1.258 . S
O1092 Co1089 1.966 . S
O1092 C1090 1.263 . S
C1093 O1094 1.235 . S
C1093 O1120 1.289 . S
O1094 C1093 1.235 . S
C1095 C1097 1.400 . S
C1095 N1098 1.351 . S
C1095 C1100 1.501 . S
C1096 C1097 1.387 . S
C1096 N1099 1.341 . S
C1097 C1095 1.400 . S
C1097 C1096 1.387 . S
N1098 Co1089 2.022 . S
N1098 C1095 1.351 . S
N1098 N1099 1.365 . S
N1099 C1096 1.341 . S
N1099 N1098 1.365 . S
N1099 H1119 0.862 . S
C1100 C1095 1.501 . S
C1100 H1101 0.961 . S
C1100 H1102 0.961 . S
C1100 H1103 0.960 . S
H1101 C1100 0.961 . S
H1102 C1100 0.961 . S
H1103 C1100 0.960 . S
C1104 N1105 1.342 . S
C1104 C1108 1.401 . S
C1104 C1109 1.499 . S
N1105 Co1088 1.989 . S
N1105 C1104 1.342 . S
N1105 N1106 1.388 . S
N1106 Co1089 1.993 . S
N1106 N1105 1.388 . S
N1106 C1107 1.346 . S
C1107 N1106 1.346 . S
C1107 C1108 1.396 . S
C1107 C1117 1.510 . S
C1108 C1104 1.401 . S
C1108 C1107 1.396 . S
C1109 C1104 1.499 . S
C1109 H1110 0.959 . S
C1109 H1111 0.960 . S
C1109 H1112 0.961 . S
H1110 C1109 0.959 . S
H1111 C1109 0.960 . S
H1112 C1109 0.961 . S
O1113 Co1088 1.967 . S
O1113 C1121 1.258 . S
O1114 Co1089 1.941 . S
O1114 C1121 1.266 . S
H1115 C1117 0.959 . S
H1116 C1117 0.961 . S
C1117 C1107 1.510 . S
C1117 H1115 0.959 . S
C1117 H1116 0.961 . S
C1117 H1118 0.960 . S
H1118 C1117 0.960 . S
H1119 N1099 0.862 . S
O1120 Co1088 1.920 . S
O1120 C1093 1.289 . S
C1121 O1113 1.258 . S
C1121 O1114 1.266 . S
Co1122 O1125 1.970 . S
Co1122 N1139 1.989 . S
Co1122 O1147 1.967 . S
Co1122 O1154 1.920 . S
Co1123 O1126 1.966 . S
Co1123 N1132 2.022 . S
Co1123 N1140 1.993 . S
Co1123 O1148 1.941 . S
C1124 O1125 1.258 . S
C1124 O1126 1.263 . S
O1125 Co1122 1.970 . S
O1125 C1124 1.258 . S
O1126 Co1123 1.966 . S
O1126 C1124 1.263 . S
C1127 O1128 1.235 . S
C1127 O1154 1.289 . S
O1128 C1127 1.235 . S
C1129 C1131 1.400 . S
C1129 N1132 1.351 . S
C1129 C1134 1.501 . S
C1130 C1131 1.387 . S
C1130 N1133 1.341 . S
C1131 C1129 1.400 . S
C1131 C1130 1.387 . S
N1132 Co1123 2.022 . S
N1132 C1129 1.351 . S
N1132 N1133 1.365 . S
N1133 C1130 1.341 . S
N1133 N1132 1.365 . S
N1133 H1153 0.862 . S
C1134 C1129 1.501 . S
C1134 H1135 0.961 . S
C1134 H1136 0.961 . S
C1134 H1137 0.960 . S
H1135 C1134 0.961 . S
H1136 C1134 0.961 . S
H1137 C1134 0.960 . S
C1138 N1139 1.342 . S
C1138 C1142 1.401 . S
C1138 C1143 1.499 . S
N1139 Co1122 1.989 . S
N1139 C1138 1.342 . S
N1139 N1140 1.388 . S
N1140 Co1123 1.993 . S
N1140 N1139 1.388 . S
N1140 C1141 1.346 . S
C1141 N1140 1.346 . S
C1141 C1142 1.396 . S
C1141 C1151 1.510 . S
C1142 C1138 1.401 . S
C1142 C1141 1.396 . S
C1143 C1138 1.499 . S
C1143 H1144 0.959 . S
C1143 H1145 0.960 . S
C1143 H1146 0.961 . S
H1144 C1143 0.959 . S
H1145 C1143 0.960 . S
H1146 C1143 0.961 . S
O1147 Co1122 1.967 . S
O1147 C1155 1.258 . S
O1148 Co1123 1.941 . S
O1148 C1155 1.266 . S
H1149 C1151 0.959 . S
H1150 C1151 0.961 . S
C1151 C1141 1.510 . S
C1151 H1149 0.959 . S
C1151 H1150 0.961 . S
C1151 H1152 0.960 . S
H1152 C1151 0.960 . S
H1153 N1133 0.862 . S
O1154 Co1122 1.920 . S
O1154 C1127 1.289 . S
C1155 O1147 1.258 . S
C1155 O1148 1.266 . S
Co1156 O1159 1.970 . S
Co1156 N1173 1.989 . S
Co1156 O1181 1.967 . S
Co1156 O1188 1.920 . S
Co1157 O1160 1.966 . S
Co1157 N1166 2.022 . S
Co1157 N1174 1.993 . S
Co1157 O1182 1.941 . S
C1158 O1159 1.258 . S
C1158 O1160 1.263 . S
O1159 Co1156 1.970 . S
O1159 C1158 1.258 . S
O1160 Co1157 1.966 . S
O1160 C1158 1.263 . S
C1161 O1162 1.235 . S
C1161 O1188 1.289 . S
O1162 C1161 1.235 . S
C1163 C1165 1.400 1_554 S
C1163 N1166 1.351 . S
C1163 C1168 1.501 1_554 S
C1164 C1165 1.387 1_554 S
C1164 N1167 1.341 . S
C1165 C1163 1.400 1_556 S
C1165 C1164 1.387 1_556 S
N1166 Co1157 2.022 . S
N1166 C1163 1.351 . S
N1166 N1167 1.365 . S
N1167 C1164 1.341 . S
N1167 N1166 1.365 . S
N1167 H1187 0.862 . S
C1168 C1163 1.501 1_556 S
C1168 H1169 0.948 1_556 S
C1168 H1170 0.961 . S
C1168 H1171 0.960 . S
H1169 C1168 0.948 1_554 S
H1170 C1168 0.961 . S
H1171 C1168 0.960 . S
C1172 N1173 1.342 . S
C1172 C1176 1.401 . S
C1172 C1177 1.499 . S
N1173 Co1156 1.989 . S
N1173 C1172 1.342 . S
N1173 N1174 1.388 . S
N1174 Co1157 1.993 . S
N1174 N1173 1.388 . S
N1174 C1175 1.346 . S
C1175 N1174 1.346 . S
C1175 C1176 1.396 . S
C1175 C1185 1.510 . S
C1176 C1172 1.401 . S
C1176 C1175 1.396 . S
C1177 C1172 1.499 . S
C1177 H1178 0.959 . S
C1177 H1179 0.960 . S
C1177 H1180 0.961 . S
H1178 C1177 0.959 . S
H1179 C1177 0.960 . S
H1180 C1177 0.961 . S
O1181 Co1156 1.967 . S
O1181 C1189 1.258 . S
O1182 Co1157 1.941 . S
O1182 C1189 1.266 . S
H1183 C1185 0.959 . S
H1184 C1185 0.961 . S
C1185 C1175 1.510 . S
C1185 H1183 0.959 . S
C1185 H1184 0.961 . S
C1185 H1186 0.960 . S
H1186 C1185 0.960 . S
H1187 N1167 0.862 . S
O1188 Co1156 1.920 . S
O1188 C1161 1.289 . S
C1189 O1181 1.258 . S
C1189 O1182 1.266 . S
Co1190 O1193 1.970 . S
Co1190 N1207 1.989 . S
Co1190 O1215 1.967 . S
Co1190 O1222 1.920 . S
Co1191 O1194 1.966 . S
Co1191 N1200 2.022 . S
Co1191 N1208 1.993 . S
Co1191 O1216 1.941 . S
C1192 O1193 1.258 . S
C1192 O1194 1.263 . S
O1193 Co1190 1.970 . S
O1193 C1192 1.258 . S
O1194 Co1191 1.966 . S
O1194 C1192 1.263 . S
C1195 O1196 1.235 . S
C1195 O1222 1.289 . S
O1196 C1195 1.235 . S
C1197 C1199 1.400 . S
C1197 N1200 1.351 . S
C1197 C1202 1.501 . S
C1198 C1199 1.387 . S
C1198 N1201 1.341 . S
C1199 C1197 1.400 . S
C1199 C1198 1.387 . S
N1200 Co1191 2.022 . S
N1200 C1197 1.351 . S
N1200 N1201 1.365 . S
N1201 C1198 1.341 . S
N1201 N1200 1.365 . S
N1201 H1221 0.862 . S
C1202 C1197 1.501 . S
C1202 H1203 0.961 . S
C1202 H1204 0.961 . S
C1202 H1205 0.960 . S
H1203 C1202 0.961 . S
H1204 C1202 0.961 . S
H1205 C1202 0.960 . S
C1206 N1207 1.342 . S
C1206 C1210 1.401 . S
C1206 C1211 1.499 . S
N1207 Co1190 1.989 . S
N1207 C1206 1.342 . S
N1207 N1208 1.388 . S
N1208 Co1191 1.993 . S
N1208 N1207 1.388 . S
N1208 C1209 1.346 . S
C1209 N1208 1.346 . S
C1209 C1210 1.396 . S
C1209 C1219 1.510 . S
C1210 C1206 1.401 . S
C1210 C1209 1.396 . S
C1211 C1206 1.499 . S
C1211 H1212 0.959 . S
C1211 H1213 0.960 . S
C1211 H1214 0.961 . S
H1212 C1211 0.959 . S
H1213 C1211 0.960 . S
H1214 C1211 0.961 . S
O1215 Co1190 1.967 . S
O1215 C1223 1.258 . S
O1216 Co1191 1.941 . S
O1216 C1223 1.266 . S
H1217 C1219 0.959 . S
H1218 C1219 0.961 . S
C1219 C1209 1.510 . S
C1219 H1217 0.959 . S
C1219 H1218 0.961 . S
C1219 H1220 0.960 . S
H1220 C1219 0.960 . S
H1221 N1201 0.862 . S
O1222 Co1190 1.920 . S
O1222 C1195 1.289 . S
C1223 O1215 1.258 . S
C1223 O1216 1.266 . S
Co1224 O1227 1.970 . S
Co1224 N1241 1.989 . S
Co1224 O1249 1.967 . S
Co1224 O1256 1.920 . S
Co1225 O1228 1.966 . S
Co1225 N1234 2.022 . S
Co1225 N1242 1.993 . S
Co1225 O1250 1.941 . S
C1226 O1227 1.258 . S
C1226 O1228 1.263 . S
O1227 Co1224 1.970 . S
O1227 C1226 1.258 . S
O1228 Co1225 1.966 . S
O1228 C1226 1.263 . S
C1229 O1230 1.235 . S
C1229 O1256 1.289 . S
O1230 C1229 1.235 . S
C1231 C1233 1.400 1_556 S
C1231 N1234 1.351 . S
C1231 C1236 1.501 1_556 S
C1232 C1233 1.387 1_556 S
C1232 N1235 1.341 . S
C1233 C1231 1.400 1_554 S
C1233 C1232 1.387 1_554 S
N1234 Co1225 2.022 . S
N1234 C1231 1.351 . S
N1234 N1235 1.365 . S
N1235 C1232 1.341 . S
N1235 N1234 1.365 . S
N1235 H1255 0.862 . S
C1236 C1231 1.501 1_554 S
C1236 H1237 0.961 1_554 S
C1236 H1238 0.961 . S
C1236 H1239 0.960 . S
H1237 C1236 0.961 1_556 S
H1238 C1236 0.961 . S
H1239 C1236 0.960 . S
C1240 N1241 1.342 . S
C1240 C1244 1.401 . S
C1240 C1245 1.499 . S
N1241 Co1224 1.989 . S
N1241 C1240 1.342 . S
N1241 N1242 1.388 . S
N1242 Co1225 1.993 . S
N1242 N1241 1.388 . S
N1242 C1243 1.346 . S
C1243 N1242 1.346 . S
C1243 C1244 1.396 . S
C1243 C1253 1.510 . S
C1244 C1240 1.401 . S
C1244 C1243 1.396 . S
C1245 C1240 1.499 . S
C1245 H1246 0.959 . S
C1245 H1247 0.960 . S
C1245 H1248 0.961 . S
H1246 C1245 0.959 . S
H1247 C1245 0.960 . S
H1248 C1245 0.961 . S
O1249 Co1224 1.967 . S
O1249 C1257 1.258 . S
O1250 Co1225 1.941 . S
O1250 C1257 1.266 . S
H1251 C1253 0.959 . S
H1252 C1253 0.961 . S
C1253 C1243 1.510 . S
C1253 H1251 0.959 . S
C1253 H1252 0.961 . S
C1253 H1254 0.960 . S
H1254 C1253 0.960 . S
H1255 N1235 0.862 . S
O1256 Co1224 1.920 . S
O1256 C1229 1.289 . S
C1257 O1249 1.258 . S
C1257 O1250 1.266 . S
Co1258 O1261 1.970 . S
Co1258 N1275 1.989 . S
Co1258 O1283 1.967 . S
Co1258 O1290 1.920 . S
Co1259 O1262 1.966 . S
Co1259 N1268 2.022 . S
Co1259 N1276 1.993 . S
Co1259 O1284 1.941 . S
C1260 O1261 1.258 . S
C1260 O1262 1.263 . S
O1261 Co1258 1.970 . S
O1261 C1260 1.258 . S
O1262 Co1259 1.966 . S
O1262 C1260 1.263 . S
C1263 O1264 1.235 . S
C1263 O1290 1.289 . S
O1264 C1263 1.235 . S
C1265 C1267 1.400 . S
C1265 N1268 1.351 . S
C1265 C1270 1.501 . S
C1266 C1267 1.387 . S
C1266 N1269 1.341 . S
C1267 C1265 1.400 . S
C1267 C1266 1.387 . S
N1268 Co1259 2.022 . S
N1268 C1265 1.351 . S
N1268 N1269 1.365 . S
N1269 C1266 1.341 . S
N1269 N1268 1.365 . S
N1269 H1289 0.862 . S
C1270 C1265 1.501 . S
C1270 H1271 0.961 . S
C1270 H1272 0.961 . S
C1270 H1273 0.960 . S
H1271 C1270 0.961 . S
H1272 C1270 0.961 . S
H1273 C1270 0.960 . S
C1274 N1275 1.342 . S
C1274 C1278 1.401 . S
C1274 C1279 1.499 . S
N1275 Co1258 1.989 . S
N1275 C1274 1.342 . S
N1275 N1276 1.388 . S
N1276 Co1259 1.993 . S
N1276 N1275 1.388 . S
N1276 C1277 1.346 . S
C1277 N1276 1.346 . S
C1277 C1278 1.396 . S
C1277 C1287 1.510 . S
C1278 C1274 1.401 . S
C1278 C1277 1.396 . S
C1279 C1274 1.499 . S
C1279 H1280 0.959 . S
C1279 H1281 0.960 . S
C1279 H1282 0.961 . S
H1280 C1279 0.959 . S
H1281 C1279 0.960 . S
H1282 C1279 0.961 . S
O1283 Co1258 1.967 . S
O1283 C1291 1.258 . S
O1284 Co1259 1.941 . S
O1284 C1291 1.266 . S
H1285 C1287 0.959 . S
H1286 C1287 0.961 . S
C1287 C1277 1.510 . S
C1287 H1285 0.959 . S
C1287 H1286 0.961 . S
C1287 H1288 0.960 . S
H1288 C1287 0.960 . S
H1289 N1269 0.862 . S
O1290 Co1258 1.920 . S
O1290 C1263 1.289 . S
C1291 O1283 1.258 . S
C1291 O1284 1.266 . S
Co1292 O1295 1.970 . S
Co1292 N1309 1.989 . S
Co1292 O1317 1.967 . S
Co1292 O1324 1.920 . S
Co1293 O1296 1.966 . S
Co1293 N1302 2.022 . S
Co1293 N1310 1.993 . S
Co1293 O1318 1.941 . S
C1294 O1295 1.258 . S
C1294 O1296 1.263 . S
O1295 Co1292 1.970 . S
O1295 C1294 1.258 . S
O1296 Co1293 1.966 . S
O1296 C1294 1.263 . S
C1297 O1298 1.235 . S
C1297 O1324 1.289 . S
O1298 C1297 1.235 . S
C1299 C1301 1.400 . S
C1299 N1302 1.351 . S
C1299 C1304 1.501 . S
C1300 C1301 1.387 . S
C1300 N1303 1.341 . S
C1301 C1299 1.400 . S
C1301 C1300 1.387 . S
N1302 Co1293 2.022 . S
N1302 C1299 1.351 . S
N1302 N1303 1.365 . S
N1303 C1300 1.341 . S
N1303 N1302 1.365 . S
N1303 H1323 0.862 . S
C1304 C1299 1.501 . S
C1304 H1305 0.961 . S
C1304 H1306 0.961 . S
C1304 H1307 0.960 . S
H1305 C1304 0.961 . S
H1306 C1304 0.961 . S
H1307 C1304 0.960 . S
C1308 N1309 1.342 . S
C1308 C1312 1.401 . S
C1308 C1313 1.499 . S
N1309 Co1292 1.989 . S
N1309 C1308 1.342 . S
N1309 N1310 1.388 . S
N1310 Co1293 1.993 . S
N1310 N1309 1.388 . S
N1310 C1311 1.346 . S
C1311 N1310 1.346 . S
C1311 C1312 1.396 . S
C1311 C1321 1.510 . S
C1312 C1308 1.401 . S
C1312 C1311 1.396 . S
C1313 C1308 1.499 . S
C1313 H1314 0.959 . S
C1313 H1315 0.960 . S
C1313 H1316 0.961 . S
H1314 C1313 0.959 . S
H1315 C1313 0.960 . S
H1316 C1313 0.961 . S
O1317 Co1292 1.967 . S
O1317 C1325 1.258 . S
O1318 Co1293 1.941 . S
O1318 C1325 1.266 . S
H1319 C1321 0.959 . S
H1320 C1321 0.961 . S
C1321 C1311 1.510 . S
C1321 H1319 0.959 . S
C1321 H1320 0.961 . S
C1321 H1322 0.960 . S
H1322 C1321 0.960 . S
H1323 N1303 0.862 . S
O1324 Co1292 1.920 . S
O1324 C1297 1.289 . S
C1325 O1317 1.258 . S
C1325 O1318 1.266 . S
Co1326 O1329 1.970 . S
Co1326 N1343 1.989 . S
Co1326 O1351 1.967 . S
Co1326 O1358 1.920 . S
Co1327 O1330 1.966 . S
Co1327 N1336 2.022 . S
Co1327 N1344 1.993 . S
Co1327 O1352 1.941 . S
C1328 O1329 1.258 . S
C1328 O1330 1.263 . S
O1329 Co1326 1.970 . S
O1329 C1328 1.258 . S
O1330 Co1327 1.966 . S
O1330 C1328 1.263 . S
C1331 O1332 1.235 . S
C1331 O1358 1.289 . S
O1332 C1331 1.235 . S
C1333 C1335 1.400 . S
C1333 N1336 1.351 . S
C1333 C1338 1.501 . S
C1334 C1335 1.387 . S
C1334 N1337 1.341 . S
C1335 C1333 1.400 . S
C1335 C1334 1.387 . S
N1336 Co1327 2.022 . S
N1336 C1333 1.351 . S
N1336 N1337 1.365 . S
N1337 C1334 1.341 . S
N1337 N1336 1.365 . S
N1337 H1357 0.862 . S
C1338 C1333 1.501 . S
C1338 H1339 0.961 . S
C1338 H1340 0.961 . S
C1338 H1341 0.960 . S
H1339 C1338 0.961 . S
H1340 C1338 0.961 . S
H1341 C1338 0.960 . S
C1342 N1343 1.342 . S
C1342 C1346 1.401 . S
C1342 C1347 1.499 . S
N1343 Co1326 1.989 . S
N1343 C1342 1.342 . S
N1343 N1344 1.388 . S
N1344 Co1327 1.993 . S
N1344 N1343 1.388 . S
N1344 C1345 1.346 . S
C1345 N1344 1.346 . S
C1345 C1346 1.396 . S
C1345 C1355 1.510 . S
C1346 C1342 1.401 . S
C1346 C1345 1.396 . S
C1347 C1342 1.499 . S
C1347 H1348 0.959 . S
C1347 H1349 0.960 . S
C1347 H1350 0.961 . S
H1348 C1347 0.959 . S
H1349 C1347 0.960 . S
H1350 C1347 0.961 . S
O1351 Co1326 1.967 . S
O1351 C1359 1.258 . S
O1352 Co1327 1.941 . S
O1352 C1359 1.266 . S
H1353 C1355 0.959 . S
H1354 C1355 0.961 . S
C1355 C1345 1.510 . S
C1355 H1353 0.959 . S
C1355 H1354 0.961 . S
C1355 H1356 0.960 . S
H1356 C1355 0.960 . S
H1357 N1337 0.862 . S
O1358 Co1326 1.920 . S
O1358 C1331 1.289 . S
C1359 O1351 1.258 . S
C1359 O1352 1.266 . S
Co1360 O1363 1.970 . S
Co1360 N1377 1.989 . S
Co1360 O1385 1.967 . S
Co1360 O1392 1.920 . S
Co1361 O1364 1.966 . S
Co1361 N1370 2.022 . S
Co1361 N1378 1.993 . S
Co1361 O1386 1.941 . S
C1362 O1363 1.258 . S
C1362 O1364 1.263 . S
O1363 Co1360 1.970 . S
O1363 C1362 1.258 . S
O1364 Co1361 1.966 . S
O1364 C1362 1.263 . S
C1365 O1366 1.235 . S
C1365 O1392 1.289 . S
O1366 C1365 1.235 . S
C1367 C1369 1.400 . S
C1367 N1370 1.351 . S
C1367 C1372 1.501 . S
C1368 C1369 1.387 . S
C1368 N1371 1.341 . S
C1369 C1367 1.400 . S
C1369 C1368 1.387 . S
N1370 Co1361 2.022 . S
N1370 C1367 1.351 . S
N1370 N1371 1.365 . S
N1371 C1368 1.341 . S
N1371 N1370 1.365 . S
N1371 H1391 0.862 . S
C1372 C1367 1.501 . S
C1372 H1373 0.961 . S
C1372 H1374 0.961 . S
C1372 H1375 0.960 . S
H1373 C1372 0.961 . S
H1374 C1372 0.961 . S
H1375 C1372 0.960 . S
C1376 N1377 1.342 . S
C1376 C1380 1.401 . S
C1376 C1381 1.499 . S
N1377 Co1360 1.989 . S
N1377 C1376 1.342 . S
N1377 N1378 1.388 . S
N1378 Co1361 1.993 . S
N1378 N1377 1.388 . S
N1378 C1379 1.346 . S
C1379 N1378 1.346 . S
C1379 C1380 1.396 . S
C1379 C1389 1.510 . S
C1380 C1376 1.401 . S
C1380 C1379 1.396 . S
C1381 C1376 1.499 . S
C1381 H1382 0.959 . S
C1381 H1383 0.960 . S
C1381 H1384 0.961 . S
H1382 C1381 0.959 . S
H1383 C1381 0.960 . S
H1384 C1381 0.961 . S
O1385 Co1360 1.967 . S
O1385 C1393 1.258 . S
O1386 Co1361 1.941 . S
O1386 C1393 1.266 . S
H1387 C1389 0.959 . S
H1388 C1389 0.961 . S
C1389 C1379 1.510 . S
C1389 H1387 0.959 . S
C1389 H1388 0.961 . S
C1389 H1390 0.960 . S
H1390 C1389 0.960 . S
H1391 N1371 0.862 . S
O1392 Co1360 1.920 . S
O1392 C1365 1.289 . S
C1393 O1385 1.258 . S
C1393 O1386 1.266 . S
Co1394 O1397 1.970 . S
Co1394 N1411 1.989 . S
Co1394 O1419 1.967 . S
Co1394 O1426 1.920 . S
Co1395 O1398 1.966 . S
Co1395 N1404 2.022 . S
Co1395 N1412 1.993 . S
Co1395 O1420 1.941 . S
C1396 O1397 1.258 . S
C1396 O1398 1.263 . S
O1397 Co1394 1.970 . S
O1397 C1396 1.258 . S
O1398 Co1395 1.966 . S
O1398 C1396 1.263 . S
C1399 O1400 1.235 . S
C1399 O1426 1.289 . S
O1400 C1399 1.235 . S
C1401 C1403 1.400 1_455 S
C1401 N1404 1.351 . S
C1401 C1406 1.501 1_455 S
C1402 C1403 1.387 1_455 S
C1402 N1405 1.341 . S
C1403 C1401 1.400 1_655 S
C1403 C1402 1.387 1_655 S
N1404 Co1395 2.022 . S
N1404 C1401 1.351 . S
N1404 N1405 1.365 . S
N1405 C1402 1.341 . S
N1405 N1404 1.365 . S
N1405 H1425 0.862 . S
C1406 C1401 1.501 1_655 S
C1406 H1407 0.948 1_655 S
C1406 H1408 0.961 . S
C1406 H1409 0.960 . S
H1407 C1406 0.948 1_455 S
H1408 C1406 0.961 . S
H1409 C1406 0.960 . S
C1410 N1411 1.342 . S
C1410 C1414 1.401 . S
C1410 C1415 1.499 . S
N1411 Co1394 1.989 . S
N1411 C1410 1.342 . S
N1411 N1412 1.388 . S
N1412 Co1395 1.993 . S
N1412 N1411 1.388 . S
N1412 C1413 1.346 . S
C1413 N1412 1.346 . S
C1413 C1414 1.396 . S
C1413 C1423 1.510 . S
C1414 C1410 1.401 . S
C1414 C1413 1.396 . S
C1415 C1410 1.499 . S
C1415 H1416 0.959 . S
C1415 H1417 0.960 . S
C1415 H1418 0.961 . S
H1416 C1415 0.959 . S
H1417 C1415 0.960 . S
H1418 C1415 0.961 . S
O1419 Co1394 1.967 . S
O1419 C1427 1.258 . S
O1420 Co1395 1.941 . S
O1420 C1427 1.266 . S
H1421 C1423 0.959 . S
H1422 C1423 0.961 . S
C1423 C1413 1.510 . S
C1423 H1421 0.959 . S
C1423 H1422 0.961 . S
C1423 H1424 0.960 . S
H1424 C1423 0.960 . S
H1425 N1405 0.862 . S
O1426 Co1394 1.920 . S
O1426 C1399 1.289 . S
C1427 O1419 1.258 . S
C1427 O1420 1.266 . S
Co1428 O1431 1.970 . S
Co1428 N1445 1.989 . S
Co1428 O1453 1.967 . S
Co1428 O1460 1.920 . S
Co1429 O1432 1.966 . S
Co1429 N1438 2.022 . S
Co1429 N1446 1.993 . S
Co1429 O1454 1.941 . S
C1430 O1431 1.258 . S
C1430 O1432 1.263 . S
O1431 Co1428 1.970 . S
O1431 C1430 1.258 . S
O1432 Co1429 1.966 . S
O1432 C1430 1.263 . S
C1433 O1434 1.235 . S
C1433 O1460 1.289 . S
O1434 C1433 1.235 . S
C1435 C1437 1.400 . S
C1435 N1438 1.351 . S
C1435 C1440 1.501 . S
C1436 C1437 1.387 . S
C1436 N1439 1.341 . S
C1437 C1435 1.400 . S
C1437 C1436 1.387 . S
N1438 Co1429 2.022 . S
N1438 C1435 1.351 . S
N1438 N1439 1.365 . S
N1439 C1436 1.341 . S
N1439 N1438 1.365 . S
N1439 H1459 0.862 . S
C1440 C1435 1.501 . S
C1440 H1441 0.961 . S
C1440 H1442 0.961 . S
C1440 H1443 0.960 . S
H1441 C1440 0.961 . S
H1442 C1440 0.961 . S
H1443 C1440 0.960 . S
C1444 N1445 1.342 . S
C1444 C1448 1.401 . S
C1444 C1449 1.499 . S
N1445 Co1428 1.989 . S
N1445 C1444 1.342 . S
N1445 N1446 1.388 . S
N1446 Co1429 1.993 . S
N1446 N1445 1.388 . S
N1446 C1447 1.346 . S
C1447 N1446 1.346 . S
C1447 C1448 1.396 . S
C1447 C1457 1.510 . S
C1448 C1444 1.401 . S
C1448 C1447 1.396 . S
C1449 C1444 1.499 . S
C1449 H1450 0.959 . S
C1449 H1451 0.960 . S
C1449 H1452 0.961 . S
H1450 C1449 0.959 . S
H1451 C1449 0.960 . S
H1452 C1449 0.961 . S
O1453 Co1428 1.967 . S
O1453 C1461 1.258 . S
O1454 Co1429 1.941 . S
O1454 C1461 1.266 . S
H1455 C1457 0.959 . S
H1456 C1457 0.961 . S
C1457 C1447 1.510 . S
C1457 H1455 0.959 . S
C1457 H1456 0.961 . S
C1457 H1458 0.960 . S
H1458 C1457 0.960 . S
H1459 N1439 0.862 . S
O1460 Co1428 1.920 . S
O1460 C1433 1.289 . S
C1461 O1453 1.258 . S
C1461 O1454 1.266 . S
Co1462 O1465 1.970 . S
Co1462 N1479 1.989 . S
Co1462 O1487 1.967 1_556 S
Co1462 O1494 1.920 . S
Co1463 O1466 1.966 . S
Co1463 N1472 2.022 . S
Co1463 N1480 1.993 1_554 S
Co1463 O1488 1.941 . S
C1464 O1465 1.258 . S
C1464 O1466 1.263 1_556 S
O1465 Co1462 1.970 . S
O1465 C1464 1.258 . S
O1466 Co1463 1.966 . S
O1466 C1464 1.263 1_554 S
C1467 O1468 1.235 . S
C1467 O1494 1.289 . S
O1468 C1467 1.235 . S
C1469 C1471 1.400 . S
C1469 N1472 1.351 . S
C1469 C1474 1.501 . S
C1470 C1471 1.387 . S
C1470 N1473 1.341 . S
C1471 C1469 1.400 . S
C1471 C1470 1.387 . S
N1472 Co1463 2.022 . S
N1472 C1469 1.351 . S
N1472 N1473 1.365 . S
N1473 C1470 1.341 . S
N1473 N1472 1.365 . S
N1473 H1493 0.862 . S
C1474 C1469 1.501 . S
C1474 H1475 0.961 . S
C1474 H1476 0.961 . S
C1474 H1477 0.960 . S
H1475 C1474 0.961 . S
H1476 C1474 0.961 . S
H1477 C1474 0.960 . S
C1478 N1479 1.342 . S
C1478 C1482 1.401 . S
C1478 C1483 1.499 . S
N1479 Co1462 1.989 . S
N1479 C1478 1.342 . S
N1479 N1480 1.388 . S
N1480 Co1463 1.993 1_556 S
N1480 N1479 1.388 . S
N1480 C1481 1.346 . S
C1481 N1480 1.346 . S
C1481 C1482 1.396 . S
C1481 C1491 1.501 1_556 S
C1482 C1478 1.401 . S
C1482 C1481 1.396 . S
C1483 C1478 1.499 . S
C1483 H1484 0.959 . S
C1483 H1485 0.960 . S
C1483 H1486 0.961 . S
H1484 C1483 0.959 . S
H1485 C1483 0.960 . S
H1486 C1483 0.961 . S
O1487 Co1462 1.967 1_554 S
O1487 C1495 1.258 . S
O1488 Co1463 1.941 . S
O1488 C1495 1.266 . S
H1489 C1491 0.965 . S
H1490 C1491 0.952 1_556 S
C1491 C1481 1.501 1_554 S
C1491 H1489 0.965 . S
C1491 H1490 0.952 1_554 S
C1491 H1492 0.973 . S
H1492 C1491 0.973 . S
H1493 N1473 0.862 . S
O1494 Co1462 1.920 . S
O1494 C1467 1.289 . S
C1495 O1487 1.258 . S
C1495 O1488 1.266 . S
Co1496 O1499 1.970 . S
Co1496 N1513 1.989 . S
Co1496 O1521 1.967 . S
Co1496 O1528 1.920 . S
Co1497 O1500 1.966 . S
Co1497 N1506 2.022 . S
Co1497 N1514 1.993 . S
Co1497 O1522 1.941 . S
C1498 O1499 1.258 . S
C1498 O1500 1.263 . S
O1499 Co1496 1.970 . S
O1499 C1498 1.258 . S
O1500 Co1497 1.966 . S
O1500 C1498 1.263 . S
C1501 O1502 1.235 . S
C1501 O1528 1.289 . S
O1502 C1501 1.235 . S
C1503 C1505 1.400 . S
C1503 N1506 1.351 . S
C1503 C1508 1.501 . S
C1504 C1505 1.387 . S
C1504 N1507 1.341 . S
C1505 C1503 1.400 . S
C1505 C1504 1.387 . S
N1506 Co1497 2.022 . S
N1506 C1503 1.351 . S
N1506 N1507 1.365 . S
N1507 C1504 1.341 . S
N1507 N1506 1.365 . S
N1507 H1527 0.862 . S
C1508 C1503 1.501 . S
C1508 H1509 0.961 . S
C1508 H1510 0.961 . S
C1508 H1511 0.960 . S
H1509 C1508 0.961 . S
H1510 C1508 0.961 . S
H1511 C1508 0.960 . S
C1512 N1513 1.342 . S
C1512 C1516 1.401 . S
C1512 C1517 1.499 . S
N1513 Co1496 1.989 . S
N1513 C1512 1.342 . S
N1513 N1514 1.388 . S
N1514 Co1497 1.993 . S
N1514 N1513 1.388 . S
N1514 C1515 1.346 . S
C1515 N1514 1.346 . S
C1515 C1516 1.396 . S
C1515 C1525 1.510 . S
C1516 C1512 1.401 . S
C1516 C1515 1.396 . S
C1517 C1512 1.499 . S
C1517 H1518 0.959 . S
C1517 H1519 0.960 . S
C1517 H1520 0.961 . S
H1518 C1517 0.959 . S
H1519 C1517 0.960 . S
H1520 C1517 0.961 . S
O1521 Co1496 1.967 . S
O1521 C1529 1.258 . S
O1522 Co1497 1.941 . S
O1522 C1529 1.266 . S
H1523 C1525 0.959 . S
H1524 C1525 0.961 . S
C1525 C1515 1.510 . S
C1525 H1523 0.959 . S
C1525 H1524 0.961 . S
C1525 H1526 0.960 . S
H1526 C1525 0.960 . S
H1527 N1507 0.862 . S
O1528 Co1496 1.920 . S
O1528 C1501 1.289 . S
C1529 O1521 1.258 . S
C1529 O1522 1.266 . S
Co1530 O1533 1.970 . S
Co1530 N1547 1.989 . S
Co1530 O1555 1.967 1_554 S
Co1530 O1562 1.920 . S
Co1531 O1534 1.966 . S
Co1531 N1540 2.022 . S
Co1531 N1548 1.993 1_556 S
Co1531 O1556 1.941 . S
C1532 O1533 1.219 1_556 S
C1532 O1534 1.298 . S
O1533 Co1530 1.970 . S
O1533 C1532 1.219 1_554 S
O1534 Co1531 1.966 . S
O1534 C1532 1.298 . S
C1535 O1536 1.235 . S
C1535 O1562 1.289 . S
O1536 C1535 1.235 . S
C1537 C1539 1.400 1_655 S
C1537 N1540 1.351 . S
C1537 C1542 1.501 1_655 S
C1538 C1539 1.387 1_655 S
C1538 N1541 1.341 . S
C1539 C1537 1.400 1_455 S
C1539 C1538 1.387 1_455 S
N1540 Co1531 2.022 . S
N1540 C1537 1.351 . S
N1540 N1541 1.365 . S
N1541 C1538 1.341 . S
N1541 N1540 1.365 . S
N1541 H1561 0.862 . S
C1542 C1537 1.501 1_455 S
C1542 H1543 0.961 1_455 S
C1542 H1544 0.961 . S
C1542 H1545 0.960 . S
H1543 C1542 0.961 1_655 S
H1544 C1542 0.961 . S
H1545 C1542 0.960 . S
C1546 N1547 1.342 . S
C1546 C1550 1.401 . S
C1546 C1551 1.499 . S
N1547 Co1530 1.989 . S
N1547 C1546 1.342 . S
N1547 N1548 1.388 . S
N1548 Co1531 1.993 1_554 S
N1548 N1547 1.388 . S
N1548 C1549 1.346 . S
C1549 N1548 1.346 . S
C1549 C1550 1.396 . S
C1549 C1559 1.510 1_554 S
C1550 C1546 1.401 . S
C1550 C1549 1.396 . S
C1551 C1546 1.499 . S
C1551 H1552 0.959 . S
C1551 H1553 0.960 . S
C1551 H1554 0.961 . S
H1552 C1551 0.959 . S
H1553 C1551 0.960 . S
H1554 C1551 0.961 . S
O1555 Co1530 1.967 1_556 S
O1555 C1563 1.258 . S
O1556 Co1531 1.941 . S
O1556 C1563 1.266 . S
H1557 C1559 0.959 . S
H1558 C1559 0.961 1_554 S
C1559 C1549 1.510 1_556 S
C1559 H1557 0.959 . S
C1559 H1558 0.961 1_556 S
C1559 H1560 0.960 . S
H1560 C1559 0.960 . S
H1561 N1541 0.862 . S
O1562 Co1530 1.920 . S
O1562 C1535 1.289 . S
C1563 O1555 1.258 . S
C1563 O1556 1.266 . S
Co1564 O1567 1.970 . S
Co1564 N1581 1.989 . S
Co1564 O1589 1.967 . S
Co1564 O1596 1.920 . S
Co1565 O1568 1.966 . S
Co1565 N1574 2.022 . S
Co1565 N1582 1.993 . S
Co1565 O1590 1.941 . S
C1566 O1567 1.258 . S
C1566 O1568 1.263 . S
O1567 Co1564 1.970 . S
O1567 C1566 1.258 . S
O1568 Co1565 1.966 . S
O1568 C1566 1.263 . S
C1569 O1570 1.235 . S
C1569 O1596 1.289 . S
O1570 C1569 1.235 . S
C1571 C1573 1.400 . S
C1571 N1574 1.351 . S
C1571 C1576 1.501 . S
C1572 C1573 1.387 . S
C1572 N1575 1.341 . S
C1573 C1571 1.400 . S
C1573 C1572 1.387 . S
N1574 Co1565 2.022 . S
N1574 C1571 1.351 . S
N1574 N1575 1.365 . S
N1575 C1572 1.341 . S
N1575 N1574 1.365 . S
N1575 H1595 0.862 . S
C1576 C1571 1.501 . S
C1576 H1577 0.961 . S
C1576 H1578 0.961 . S
C1576 H1579 0.960 . S
H1577 C1576 0.961 . S
H1578 C1576 0.961 . S
H1579 C1576 0.960 . S
C1580 N1581 1.342 . S
C1580 C1584 1.401 . S
C1580 C1585 1.499 . S
N1581 Co1564 1.989 . S
N1581 C1580 1.342 . S
N1581 N1582 1.388 . S
N1582 Co1565 1.993 . S
N1582 N1581 1.388 . S
N1582 C1583 1.346 . S
C1583 N1582 1.346 . S
C1583 C1584 1.396 . S
C1583 C1593 1.510 . S
C1584 C1580 1.401 . S
C1584 C1583 1.396 . S
C1585 C1580 1.499 . S
C1585 H1586 0.959 . S
C1585 H1587 0.960 . S
C1585 H1588 0.961 . S
H1586 C1585 0.959 . S
H1587 C1585 0.960 . S
H1588 C1585 0.961 . S
O1589 Co1564 1.967 . S
O1589 C1597 1.258 . S
O1590 Co1565 1.941 . S
O1590 C1597 1.266 . S
H1591 C1593 0.959 . S
H1592 C1593 0.961 . S
C1593 C1583 1.510 . S
C1593 H1591 0.959 . S
C1593 H1592 0.961 . S
C1593 H1594 0.960 . S
H1594 C1593 0.960 . S
H1595 N1575 0.862 . S
O1596 Co1564 1.920 . S
O1596 C1569 1.289 . S
C1597 O1589 1.258 . S
C1597 O1590 1.266 . S
Co1598 O1601 1.970 . S
Co1598 N1615 1.989 . S
Co1598 O1623 1.967 . S
Co1598 O1630 1.920 . S
Co1599 O1602 1.966 . S
Co1599 N1608 2.022 . S
Co1599 N1616 1.993 . S
Co1599 O1624 1.941 . S
C1600 O1601 1.258 . S
C1600 O1602 1.263 . S
O1601 Co1598 1.970 . S
O1601 C1600 1.258 . S
O1602 Co1599 1.966 . S
O1602 C1600 1.263 . S
C1603 O1604 1.235 . S
C1603 O1630 1.289 . S
O1604 C1603 1.235 . S
C1605 C1607 1.400 . S
C1605 N1608 1.351 . S
C1605 C1610 1.501 . S
C1606 C1607 1.387 . S
C1606 N1609 1.341 . S
C1607 C1605 1.400 . S
C1607 C1606 1.387 . S
N1608 Co1599 2.022 . S
N1608 C1605 1.351 . S
N1608 N1609 1.365 . S
N1609 C1606 1.341 . S
N1609 N1608 1.365 . S
N1609 H1629 0.862 . S
C1610 C1605 1.501 . S
C1610 H1611 0.961 . S
C1610 H1612 0.961 . S
C1610 H1613 0.960 . S
H1611 C1610 0.961 . S
H1612 C1610 0.961 . S
H1613 C1610 0.960 . S
C1614 N1615 1.342 . S
C1614 C1618 1.401 . S
C1614 C1619 1.499 . S
N1615 Co1598 1.989 . S
N1615 C1614 1.342 . S
N1615 N1616 1.388 . S
N1616 Co1599 1.993 . S
N1616 N1615 1.388 . S
N1616 C1617 1.346 . S
C1617 N1616 1.346 . S
C1617 C1618 1.396 . S
C1617 C1627 1.510 . S
C1618 C1614 1.401 . S
C1618 C1617 1.396 . S
C1619 C1614 1.499 . S
C1619 H1620 0.959 . S
C1619 H1621 0.960 . S
C1619 H1622 0.961 . S
H1620 C1619 0.959 . S
H1621 C1619 0.960 . S
H1622 C1619 0.961 . S
O1623 Co1598 1.967 . S
O1623 C1631 1.258 . S
O1624 Co1599 1.941 . S
O1624 C1631 1.266 . S
H1625 C1627 0.959 . S
H1626 C1627 0.961 . S
C1627 C1617 1.510 . S
C1627 H1625 0.959 . S
C1627 H1626 0.961 . S
C1627 H1628 0.960 . S
H1628 C1627 0.960 . S
H1629 N1609 0.862 . S
O1630 Co1598 1.920 . S
O1630 C1603 1.289 . S
C1631 O1623 1.258 . S
C1631 O1624 1.266 . S
H1632 C1638 0.930 . S
H1633 C1641 0.930 . S
H1634 C1642 0.930 . S
H1635 C1643 0.930 . S
H1636 C1646 0.930 . S
H1637 C1647 0.930 . S
C1638 H1632 0.930 . S
C1638 C1639 1.355 . S
C1638 C1640 1.415 . S
C1639 C1638 1.355 . S
C1639 C1641 1.419 . S
C1640 C1638 1.415 . S
C1640 C1645 1.425 . S
C1640 C1647 1.409 . S
C1641 H1633 0.930 . S
C1641 C1639 1.419 . S
C1641 C1642 1.362 . S
C1642 H1634 0.930 . S
C1642 C1641 1.362 . S
C1642 C1645 1.409 . S
C1643 H1635 0.930 . S
C1643 C1644 1.355 . S
C1643 C1645 1.415 . S
C1644 C1643 1.355 . S
C1644 C1646 1.419 . S
C1645 C1640 1.425 . S
C1645 C1642 1.409 . S
C1645 C1643 1.415 . S
C1646 H1636 0.930 . S
C1646 C1644 1.419 . S
C1646 C1647 1.362 . S
C1647 H1637 0.930 . S
C1647 C1640 1.409 . S
C1647 C1646 1.362 . S
H1648 C1654 0.930 . S
H1649 C1657 0.930 . S
H1650 C1658 0.930 . S
H1651 C1659 0.930 . S
H1652 C1662 0.930 . S
H1653 C1663 0.930 . S
C1654 H1648 0.930 . S
C1654 C1655 1.355 . S
C1654 C1656 1.415 . S
C1655 C1654 1.355 . S
C1655 C1657 1.419 . S
C1656 C1654 1.415 . S
C1656 C1661 1.425 . S
C1656 C1663 1.409 . S
C1657 H1649 0.930 . S
C1657 C1655 1.419 . S
C1657 C1658 1.362 . S
C1658 H1650 0.930 . S
C1658 C1657 1.362 . S
C1658 C1661 1.409 . S
C1659 H1651 0.930 . S
C1659 C1660 1.355 . S
C1659 C1661 1.415 . S
C1660 C1659 1.355 . S
C1660 C1662 1.419 . S
C1661 C1656 1.425 . S
C1661 C1658 1.409 . S
C1661 C1659 1.415 . S
C1662 H1652 0.930 . S
C1662 C1660 1.419 . S
C1662 C1663 1.362 . S
C1663 H1653 0.930 . S
C1663 C1656 1.409 . S
C1663 C1662 1.362 . S
H1664 C1670 0.930 . S
H1665 C1673 0.930 . S
H1666 C1674 0.930 . S
H1667 C1675 0.930 . S
H1668 C1678 0.930 . S
H1669 C1679 0.930 . S
C1670 H1664 0.930 . S
C1670 C1671 1.355 . S
C1670 C1672 1.415 . S
C1671 C1670 1.355 . S
C1671 C1673 1.419 . S
C1672 C1670 1.415 . S
C1672 C1677 1.425 . S
C1672 C1679 1.409 . S
C1673 H1665 0.930 . S
C1673 C1671 1.419 . S
C1673 C1674 1.362 . S
C1674 H1666 0.930 . S
C1674 C1673 1.362 . S
C1674 C1677 1.409 . S
C1675 H1667 0.930 . S
C1675 C1676 1.355 . S
C1675 C1677 1.415 . S
C1676 C1675 1.355 . S
C1676 C1678 1.419 . S
C1677 C1672 1.425 . S
C1677 C1674 1.409 . S
C1677 C1675 1.415 . S
C1678 H1668 0.930 . S
C1678 C1676 1.419 . S
C1678 C1679 1.362 . S
C1679 H1669 0.930 . S
C1679 C1672 1.409 . S
C1679 C1678 1.362 . S
H1680 C1686 0.930 . S
H1681 C1689 0.930 . S
H1682 C1690 0.930 . S
H1683 C1691 0.930 . S
H1684 C1694 0.930 . S
H1685 C1695 0.930 . S
C1686 H1680 0.930 . S
C1686 C1687 1.355 . S
C1686 C1688 1.415 . S
C1687 C1686 1.355 . S
C1687 C1689 1.419 . S
C1688 C1686 1.415 . S
C1688 C1693 1.425 . S
C1688 C1695 1.409 . S
C1689 H1681 0.930 . S
C1689 C1687 1.419 . S
C1689 C1690 1.362 . S
C1690 H1682 0.930 . S
C1690 C1689 1.362 . S
C1690 C1693 1.409 . S
C1691 H1683 0.930 . S
C1691 C1692 1.355 . S
C1691 C1693 1.415 . S
C1692 C1691 1.355 . S
C1692 C1694 1.419 . S
C1693 C1688 1.425 . S
C1693 C1690 1.409 . S
C1693 C1691 1.415 . S
C1694 H1684 0.930 . S
C1694 C1692 1.419 . S
C1694 C1695 1.362 . S
C1695 H1685 0.930 . S
C1695 C1688 1.409 . S
C1695 C1694 1.362 . S
H1696 C1702 0.930 . S
H1697 C1705 0.930 . S
H1698 C1706 0.930 . S
H1699 C1707 0.930 . S
H1700 C1710 0.930 . S
H1701 C1711 0.930 . S
C1702 H1696 0.930 . S
C1702 C1703 1.355 . S
C1702 C1704 1.415 . S
C1703 C1702 1.355 . S
C1703 C1705 1.419 . S
C1704 C1702 1.415 . S
C1704 C1709 1.425 . S
C1704 C1711 1.409 . S
C1705 H1697 0.930 . S
C1705 C1703 1.419 . S
C1705 C1706 1.362 . S
C1706 H1698 0.930 . S
C1706 C1705 1.362 . S
C1706 C1709 1.409 . S
C1707 H1699 0.930 . S
C1707 C1708 1.355 . S
C1707 C1709 1.415 . S
C1708 C1707 1.355 . S
C1708 C1710 1.419 . S
C1709 C1704 1.425 . S
C1709 C1706 1.409 . S
C1709 C1707 1.415 . S
C1710 H1700 0.930 . S
C1710 C1708 1.419 . S
C1710 C1711 1.362 . S
C1711 H1701 0.930 . S
C1711 C1704 1.409 . S
C1711 C1710 1.362 . S
H1712 C1718 0.930 . S
H1713 C1721 0.930 . S
H1714 C1722 0.930 . S
H1715 C1723 0.930 . S
H1716 C1726 0.930 . S
H1717 C1727 0.930 . S
C1718 H1712 0.930 . S
C1718 C1719 1.355 . S
C1718 C1720 1.415 . S
C1719 C1718 1.355 . S
C1719 C1721 1.419 . S
C1720 C1718 1.415 . S
C1720 C1725 1.425 . S
C1720 C1727 1.409 . S
C1721 H1713 0.930 . S
C1721 C1719 1.419 . S
C1721 C1722 1.362 . S
C1722 H1714 0.930 . S
C1722 C1721 1.362 . S
C1722 C1725 1.409 . S
C1723 H1715 0.930 . S
C1723 C1724 1.355 . S
C1723 C1725 1.415 . S
C1724 C1723 1.355 . S
C1724 C1726 1.419 . S
C1725 C1720 1.425 . S
C1725 C1722 1.409 . S
C1725 C1723 1.415 . S
C1726 H1716 0.930 . S
C1726 C1724 1.419 . S
C1726 C1727 1.362 . S
C1727 H1717 0.930 . S
C1727 C1720 1.409 . S
C1727 C1726 1.362 . S
H1728 C1734 0.930 . S
H1729 C1737 0.930 . S
H1730 C1738 0.930 . S
H1731 C1739 0.930 . S
H1732 C1742 0.930 . S
H1733 C1743 0.930 . S
C1734 H1728 0.930 . S
C1734 C1735 1.355 . S
C1734 C1736 1.415 . S
C1735 C1734 1.355 . S
C1735 C1737 1.419 . S
C1736 C1734 1.415 . S
C1736 C1741 1.425 . S
C1736 C1743 1.409 . S
C1737 H1729 0.930 . S
C1737 C1735 1.419 . S
C1737 C1738 1.362 . S
C1738 H1730 0.930 . S
C1738 C1737 1.362 . S
C1738 C1741 1.409 . S
C1739 H1731 0.930 . S
C1739 C1740 1.355 . S
C1739 C1741 1.415 . S
C1740 C1739 1.355 . S
C1740 C1742 1.419 . S
C1741 C1736 1.425 . S
C1741 C1738 1.409 . S
C1741 C1739 1.415 . S
C1742 H1732 0.930 . S
C1742 C1740 1.419 . S
C1742 C1743 1.362 . S
C1743 H1733 0.930 . S
C1743 C1736 1.409 . S
C1743 C1742 1.362 . S
H1744 C1750 0.930 . S
H1745 C1753 0.930 . S
H1746 C1754 0.930 . S
H1747 C1755 0.930 . S
H1748 C1758 0.930 . S
H1749 C1759 0.930 . S
C1750 H1744 0.930 . S
C1750 C1751 1.355 . S
C1750 C1752 1.415 . S
C1751 C1750 1.355 . S
C1751 C1753 1.419 . S
C1752 C1750 1.415 . S
C1752 C1757 1.425 . S
C1752 C1759 1.409 . S
C1753 H1745 0.930 . S
C1753 C1751 1.419 . S
C1753 C1754 1.362 . S
C1754 H1746 0.930 . S
C1754 C1753 1.362 . S
C1754 C1757 1.409 . S
C1755 H1747 0.930 . S
C1755 C1756 1.355 . S
C1755 C1757 1.415 . S
C1756 C1755 1.355 . S
C1756 C1758 1.419 . S
C1757 C1752 1.425 . S
C1757 C1754 1.409 . S
C1757 C1755 1.415 . S
C1758 H1748 0.930 . S
C1758 C1756 1.419 . S
C1758 C1759 1.362 . S
C1759 H1749 0.930 . S
C1759 C1752 1.409 . S
C1759 C1758 1.362 . S
H1760 C1766 0.930 . S
H1761 C1769 0.930 . S
H1762 C1770 0.930 . S
H1763 C1771 0.930 . S
H1764 C1774 0.930 . S
H1765 C1775 0.930 . S
C1766 H1760 0.930 . S
C1766 C1767 1.355 . S
C1766 C1768 1.415 . S
C1767 C1766 1.355 . S
C1767 C1769 1.419 . S
C1768 C1766 1.415 . S
C1768 C1773 1.425 . S
C1768 C1775 1.409 . S
C1769 H1761 0.930 . S
C1769 C1767 1.419 . S
C1769 C1770 1.362 . S
C1770 H1762 0.930 . S
C1770 C1769 1.362 . S
C1770 C1773 1.409 . S
C1771 H1763 0.930 . S
C1771 C1772 1.355 . S
C1771 C1773 1.415 . S
C1772 C1771 1.355 . S
C1772 C1774 1.419 . S
C1773 C1768 1.425 . S
C1773 C1770 1.409 . S
C1773 C1771 1.415 . S
C1774 H1764 0.930 . S
C1774 C1772 1.419 . S
C1774 C1775 1.362 . S
C1775 H1765 0.930 . S
C1775 C1768 1.409 . S
C1775 C1774 1.362 . S
H1776 C1782 0.930 . S
H1777 C1785 0.930 . S
H1778 C1786 0.930 . S
H1779 C1787 0.930 . S
H1780 C1790 0.930 . S
H1781 C1791 0.930 . S
C1782 H1776 0.930 . S
C1782 C1783 1.355 . S
C1782 C1784 1.415 . S
C1783 C1782 1.355 . S
C1783 C1785 1.419 . S
C1784 C1782 1.415 . S
C1784 C1789 1.425 . S
C1784 C1791 1.409 . S
C1785 H1777 0.930 . S
C1785 C1783 1.419 . S
C1785 C1786 1.362 . S
C1786 H1778 0.930 . S
C1786 C1785 1.362 . S
C1786 C1789 1.409 . S
C1787 H1779 0.930 . S
C1787 C1788 1.355 . S
C1787 C1789 1.415 . S
C1788 C1787 1.355 . S
C1788 C1790 1.419 . S
C1789 C1784 1.425 . S
C1789 C1786 1.409 . S
C1789 C1787 1.415 . S
C1790 H1780 0.930 . S
C1790 C1788 1.419 . S
C1790 C1791 1.362 . S
C1791 H1781 0.930 . S
C1791 C1784 1.409 . S
C1791 C1790 1.362 . S
H1792 C1798 0.930 . S
H1793 C1801 0.930 . S
H1794 C1802 0.930 . S
H1795 C1803 0.930 . S
H1796 C1806 0.930 . S
H1797 C1807 0.930 . S
C1798 H1792 0.930 . S
C1798 C1799 1.355 . S
C1798 C1800 1.415 . S
C1799 C1798 1.355 . S
C1799 C1801 1.419 . S
C1800 C1798 1.415 . S
C1800 C1805 1.425 . S
C1800 C1807 1.409 . S
C1801 H1793 0.930 . S
C1801 C1799 1.419 . S
C1801 C1802 1.362 . S
C1802 H1794 0.930 . S
C1802 C1801 1.362 . S
C1802 C1805 1.409 . S
C1803 H1795 0.930 . S
C1803 C1804 1.355 . S
C1803 C1805 1.415 . S
C1804 C1803 1.355 . S
C1804 C1806 1.419 . S
C1805 C1800 1.425 . S
C1805 C1802 1.409 . S
C1805 C1803 1.415 . S
C1806 H1796 0.930 . S
C1806 C1804 1.419 . S
C1806 C1807 1.362 . S
C1807 H1797 0.930 . S
C1807 C1800 1.409 . S
C1807 C1806 1.362 . S
H1808 C1814 0.930 . S
H1809 C1817 0.930 . S
H1810 C1818 0.930 . S
H1811 C1819 0.930 . S
H1812 C1822 0.930 . S
H1813 C1823 0.930 . S
C1814 H1808 0.930 . S
C1814 C1815 1.355 . S
C1814 C1816 1.415 . S
C1815 C1814 1.355 . S
C1815 C1817 1.419 . S
C1816 C1814 1.415 . S
C1816 C1821 1.425 . S
C1816 C1823 1.409 . S
C1817 H1809 0.930 . S
C1817 C1815 1.419 . S
C1817 C1818 1.362 . S
C1818 H1810 0.930 . S
C1818 C1817 1.362 . S
C1818 C1821 1.409 . S
C1819 H1811 0.930 . S
C1819 C1820 1.355 . S
C1819 C1821 1.415 . S
C1820 C1819 1.355 . S
C1820 C1822 1.419 . S
C1821 C1816 1.425 . S
C1821 C1818 1.409 . S
C1821 C1819 1.415 . S
C1822 H1812 0.930 . S
C1822 C1820 1.419 . S
C1822 C1823 1.362 . S
C1823 H1813 0.930 . S
C1823 C1816 1.409 . S
C1823 C1822 1.362 . S
H1824 C1830 0.930 . S
H1825 C1833 0.930 . S
H1826 C1834 0.930 . S
H1827 C1835 0.930 . S
H1828 C1838 0.930 . S
H1829 C1839 0.930 . S
C1830 H1824 0.930 . S
C1830 C1831 1.355 . S
C1830 C1832 1.415 . S
C1831 C1830 1.355 . S
C1831 C1833 1.419 . S
C1832 C1830 1.415 . S
C1832 C1837 1.425 . S
C1832 C1839 1.409 . S
C1833 H1825 0.930 . S
C1833 C1831 1.419 . S
C1833 C1834 1.362 . S
C1834 H1826 0.930 . S
C1834 C1833 1.362 . S
C1834 C1837 1.409 . S
C1835 H1827 0.930 . S
C1835 C1836 1.355 . S
C1835 C1837 1.415 . S
C1836 C1835 1.355 . S
C1836 C1838 1.419 . S
C1837 C1832 1.425 . S
C1837 C1834 1.409 . S
C1837 C1835 1.415 . S
C1838 H1828 0.930 . S
C1838 C1836 1.419 . S
C1838 C1839 1.362 . S
C1839 H1829 0.930 . S
C1839 C1832 1.409 . S
C1839 C1838 1.362 . S
H1840 C1846 0.930 . S
H1841 C1849 0.930 . S
H1842 C1850 0.930 . S
H1843 C1851 0.930 . S
H1844 C1854 0.930 . S
H1845 C1855 0.930 . S
C1846 H1840 0.930 . S
C1846 C1847 1.355 . S
C1846 C1848 1.415 . S
C1847 C1846 1.355 . S
C1847 C1849 1.419 . S
C1848 C1846 1.415 . S
C1848 C1853 1.425 . S
C1848 C1855 1.409 . S
C1849 H1841 0.930 . S
C1849 C1847 1.419 . S
C1849 C1850 1.362 . S
C1850 H1842 0.930 . S
C1850 C1849 1.362 . S
C1850 C1853 1.409 . S
C1851 H1843 0.930 . S
C1851 C1852 1.355 . S
C1851 C1853 1.415 . S
C1852 C1851 1.355 . S
C1852 C1854 1.419 . S
C1853 C1848 1.425 . S
C1853 C1850 1.409 . S
C1853 C1851 1.415 . S
C1854 H1844 0.930 . S
C1854 C1852 1.419 . S
C1854 C1855 1.362 . S
C1855 H1845 0.930 . S
C1855 C1848 1.409 . S
C1855 C1854 1.362 . S
H1856 C1862 0.930 . S
H1857 C1865 0.930 . S
H1858 C1866 0.930 . S
H1859 C1867 0.930 . S
H1860 C1870 0.930 . S
H1861 C1871 0.930 . S
C1862 H1856 0.930 . S
C1862 C1863 1.355 . S
C1862 C1864 1.415 . S
C1863 C1862 1.355 . S
C1863 C1865 1.419 . S
C1864 C1862 1.415 . S
C1864 C1869 1.425 . S
C1864 C1871 1.409 . S
C1865 H1857 0.930 . S
C1865 C1863 1.419 . S
C1865 C1866 1.362 . S
C1866 H1858 0.930 . S
C1866 C1865 1.362 . S
C1866 C1869 1.409 . S
C1867 H1859 0.930 . S
C1867 C1868 1.355 . S
C1867 C1869 1.415 . S
C1868 C1867 1.355 . S
C1868 C1870 1.419 . S
C1869 C1864 1.425 . S
C1869 C1866 1.409 . S
C1869 C1867 1.415 . S
C1870 H1860 0.930 . S
C1870 C1868 1.419 . S
C1870 C1871 1.362 . S
C1871 H1861 0.930 . S
C1871 C1864 1.409 . S
C1871 C1870 1.362 . S
H1872 C1878 0.930 . S
H1873 C1881 0.930 . S
H1874 C1882 0.930 . S
H1875 C1883 0.930 . S
H1876 C1886 0.930 . S
H1877 C1887 0.930 . S
C1878 H1872 0.930 . S
C1878 C1879 1.355 . S
C1878 C1880 1.415 . S
C1879 C1878 1.355 . S
C1879 C1881 1.419 . S
C1880 C1878 1.415 . S
C1880 C1885 1.425 . S
C1880 C1887 1.409 . S
C1881 H1873 0.930 . S
C1881 C1879 1.419 . S
C1881 C1882 1.362 . S
C1882 H1874 0.930 . S
C1882 C1881 1.362 . S
C1882 C1885 1.409 . S
C1883 H1875 0.930 . S
C1883 C1884 1.355 . S
C1883 C1885 1.415 . S
C1884 C1883 1.355 . S
C1884 C1886 1.419 . S
C1885 C1880 1.425 . S
C1885 C1882 1.409 . S
C1885 C1883 1.415 . S
C1886 H1876 0.930 . S
C1886 C1884 1.419 . S
C1886 C1887 1.362 . S
C1887 H1877 0.930 . S
C1887 C1880 1.409 . S
C1887 C1886 1.362 . S
H1888 C1894 0.930 . S
H1889 C1897 0.930 . S
H1890 C1898 0.930 . S
H1891 C1899 0.930 . S
H1892 C1902 0.930 . S
H1893 C1903 0.930 . S
C1894 H1888 0.930 . S
C1894 C1895 1.355 . S
C1894 C1896 1.415 . S
C1895 C1894 1.355 . S
C1895 C1897 1.419 . S
C1896 C1894 1.415 . S
C1896 C1901 1.425 . S
C1896 C1903 1.409 . S
C1897 H1889 0.930 . S
C1897 C1895 1.419 . S
C1897 C1898 1.362 . S
C1898 H1890 0.930 . S
C1898 C1897 1.362 . S
C1898 C1901 1.409 . S
C1899 H1891 0.930 . S
C1899 C1900 1.355 . S
C1899 C1901 1.415 . S
C1900 C1899 1.355 . S
C1900 C1902 1.419 . S
C1901 C1896 1.425 . S
C1901 C1898 1.409 . S
C1901 C1899 1.415 . S
C1902 H1892 0.930 . S
C1902 C1900 1.419 . S
C1902 C1903 1.362 . S
C1903 H1893 0.930 . S
C1903 C1896 1.409 . S
C1903 C1902 1.362 . S
H1904 C1910 0.930 . S
H1905 C1913 0.930 . S
H1906 C1914 0.930 . S
H1907 C1915 0.930 . S
H1908 C1918 0.930 . S
H1909 C1919 0.930 . S
C1910 H1904 0.930 . S
C1910 C1911 1.355 . S
C1910 C1912 1.415 . S
C1911 C1910 1.355 . S
C1911 C1913 1.419 . S
C1912 C1910 1.415 . S
C1912 C1917 1.425 . S
C1912 C1919 1.409 . S
C1913 H1905 0.930 . S
C1913 C1911 1.419 . S
C1913 C1914 1.362 . S
C1914 H1906 0.930 . S
C1914 C1913 1.362 . S
C1914 C1917 1.409 . S
C1915 H1907 0.930 . S
C1915 C1916 1.355 . S
C1915 C1917 1.415 . S
C1916 C1915 1.355 . S
C1916 C1918 1.419 . S
C1917 C1912 1.425 . S
C1917 C1914 1.409 . S
C1917 C1915 1.415 . S
C1918 H1908 0.930 . S
C1918 C1916 1.419 . S
C1918 C1919 1.362 . S
C1919 H1909 0.930 . S
C1919 C1912 1.409 . S
C1919 C1918 1.362 . S
H1920 C1926 0.930 . S
H1921 C1929 0.930 . S
H1922 C1930 0.930 . S
H1923 C1931 0.930 . S
H1924 C1934 0.930 . S
H1925 C1935 0.930 . S
C1926 H1920 0.930 . S
C1926 C1927 1.355 . S
C1926 C1928 1.415 . S
C1927 C1926 1.355 . S
C1927 C1929 1.419 . S
C1928 C1926 1.415 . S
C1928 C1933 1.425 . S
C1928 C1935 1.409 . S
C1929 H1921 0.930 . S
C1929 C1927 1.419 . S
C1929 C1930 1.362 . S
C1930 H1922 0.930 . S
C1930 C1929 1.362 . S
C1930 C1933 1.409 . S
C1931 H1923 0.930 . S
C1931 C1932 1.355 . S
C1931 C1933 1.415 . S
C1932 C1931 1.355 . S
C1932 C1934 1.419 . S
C1933 C1928 1.425 . S
C1933 C1930 1.409 . S
C1933 C1931 1.415 . S
C1934 H1924 0.930 . S
C1934 C1932 1.419 . S
C1934 C1935 1.362 . S
C1935 H1925 0.930 . S
C1935 C1928 1.409 . S
C1935 C1934 1.362 . S
H1936 C1942 0.930 . S
H1937 C1945 0.930 . S
H1938 C1946 0.930 . S
H1939 C1947 0.930 . S
H1940 C1950 0.930 . S
H1941 C1951 0.930 . S
C1942 H1936 0.930 . S
C1942 C1943 1.355 . S
C1942 C1944 1.415 . S
C1943 C1942 1.355 . S
C1943 C1945 1.419 . S
C1944 C1942 1.415 . S
C1944 C1949 1.425 . S
C1944 C1951 1.409 . S
C1945 H1937 0.930 . S
C1945 C1943 1.419 . S
C1945 C1946 1.362 . S
C1946 H1938 0.930 . S
C1946 C1945 1.362 . S
C1946 C1949 1.409 . S
C1947 H1939 0.930 . S
C1947 C1948 1.355 . S
C1947 C1949 1.415 . S
C1948 C1947 1.355 . S
C1948 C1950 1.419 . S
C1949 C1944 1.425 . S
C1949 C1946 1.409 . S
C1949 C1947 1.415 . S
C1950 H1940 0.930 . S
C1950 C1948 1.419 . S
C1950 C1951 1.362 . S
C1951 H1941 0.930 . S
C1951 C1944 1.409 . S
C1951 C1950 1.362 . S
H1952 C1958 0.930 . S
H1953 C1961 0.930 . S
H1954 C1962 0.930 . S
H1955 C1963 0.930 . S
H1956 C1966 0.930 . S
H1957 C1967 0.930 . S
C1958 H1952 0.930 . S
C1958 C1959 1.355 . S
C1958 C1960 1.415 . S
C1959 C1958 1.355 . S
C1959 C1961 1.419 . S
C1960 C1958 1.415 . S
C1960 C1965 1.425 . S
C1960 C1967 1.409 . S
C1961 H1953 0.930 . S
C1961 C1959 1.419 . S
C1961 C1962 1.362 . S
C1962 H1954 0.930 . S
C1962 C1961 1.362 . S
C1962 C1965 1.409 . S
C1963 H1955 0.930 . S
C1963 C1964 1.355 . S
C1963 C1965 1.415 . S
C1964 C1963 1.355 . S
C1964 C1966 1.419 . S
C1965 C1960 1.425 . S
C1965 C1962 1.409 . S
C1965 C1963 1.415 . S
C1966 H1956 0.930 . S
C1966 C1964 1.419 . S
C1966 C1967 1.362 . S
C1967 H1957 0.930 . S
C1967 C1960 1.409 . S
C1967 C1966 1.362 . S
H1968 C1974 0.930 . S
H1969 C1977 0.930 . S
H1970 C1978 0.930 . S
H1971 C1979 0.930 . S
H1972 C1982 0.930 . S
H1973 C1983 0.930 . S
C1974 H1968 0.930 . S
C1974 C1975 1.355 . S
C1974 C1976 1.415 . S
C1975 C1974 1.355 . S
C1975 C1977 1.419 . S
C1976 C1974 1.415 . S
C1976 C1981 1.425 . S
C1976 C1983 1.409 . S
C1977 H1969 0.930 . S
C1977 C1975 1.419 . S
C1977 C1978 1.362 . S
C1978 H1970 0.930 . S
C1978 C1977 1.362 . S
C1978 C1981 1.409 . S
C1979 H1971 0.930 . S
C1979 C1980 1.355 . S
C1979 C1981 1.415 . S
C1980 C1979 1.355 . S
C1980 C1982 1.419 . S
C1981 C1976 1.425 . S
C1981 C1978 1.409 . S
C1981 C1979 1.415 . S
C1982 H1972 0.930 . S
C1982 C1980 1.419 . S
C1982 C1983 1.362 . S
C1983 H1973 0.930 . S
C1983 C1976 1.409 . S
C1983 C1982 1.362 . S
H1984 C1990 0.930 . S
H1985 C1993 0.930 . S
H1986 C1994 0.930 . S
H1987 C1995 0.930 . S
H1988 C1998 0.930 . S
H1989 C1999 0.930 . S
C1990 H1984 0.930 . S
C1990 C1991 1.355 . S
C1990 C1992 1.415 . S
C1991 C1990 1.355 . S
C1991 C1993 1.419 . S
C1992 C1990 1.415 . S
C1992 C1997 1.425 . S
C1992 C1999 1.409 . S
C1993 H1985 0.930 . S
C1993 C1991 1.419 . S
C1993 C1994 1.362 . S
C1994 H1986 0.930 . S
C1994 C1993 1.362 . S
C1994 C1997 1.409 . S
C1995 H1987 0.930 . S
C1995 C1996 1.355 . S
C1995 C1997 1.415 . S
C1996 C1995 1.355 . S
C1996 C1998 1.419 . S
C1997 C1992 1.425 . S
C1997 C1994 1.409 . S
C1997 C1995 1.415 . S
C1998 H1988 0.930 . S
C1998 C1996 1.419 . S
C1998 C1999 1.362 . S
C1999 H1989 0.930 . S
C1999 C1992 1.409 . S
C1999 C1998 1.362 . S
H2000 C2006 0.930 . S
H2001 C2009 0.930 . S
H2002 C2010 0.930 . S
H2003 C2011 0.930 . S
H2004 C2014 0.930 . S
H2005 C2015 0.930 . S
C2006 H2000 0.930 . S
C2006 C2007 1.355 . S
C2006 C2008 1.415 . S
C2007 C2006 1.355 . S
C2007 C2009 1.419 . S
C2008 C2006 1.415 . S
C2008 C2013 1.425 . S
C2008 C2015 1.409 . S
C2009 H2001 0.930 . S
C2009 C2007 1.419 . S
C2009 C2010 1.362 . S
C2010 H2002 0.930 . S
C2010 C2009 1.362 . S
C2010 C2013 1.409 . S
C2011 H2003 0.930 . S
C2011 C2012 1.355 . S
C2011 C2013 1.415 . S
C2012 C2011 1.355 . S
C2012 C2014 1.419 . S
C2013 C2008 1.425 . S
C2013 C2010 1.409 . S
C2013 C2011 1.415 . S
C2014 H2004 0.930 . S
C2014 C2012 1.419 . S
C2014 C2015 1.362 . S
C2015 H2005 0.930 . S
C2015 C2008 1.409 . S
C2015 C2014 1.362 . S
H2016 C2022 0.930 . S
H2017 C2025 0.930 . S
H2018 C2026 0.930 . S
H2019 C2027 0.930 . S
H2020 C2030 0.930 1_554 S
H2021 C2031 0.930 . S
C2022 H2016 0.930 . S
C2022 C2023 1.355 . S
C2022 C2024 1.415 . S
C2023 C2022 1.355 . S
C2023 C2025 1.419 . S
C2024 C2022 1.415 . S
C2024 C2029 1.425 . S
C2024 C2031 1.409 . S
C2025 H2017 0.930 . S
C2025 C2023 1.419 . S
C2025 C2026 1.362 . S
C2026 H2018 0.930 . S
C2026 C2025 1.362 . S
C2026 C2029 1.409 . S
C2027 H2019 0.930 . S
C2027 C2028 1.355 . S
C2027 C2029 1.415 . S
C2028 C2027 1.355 . S
C2028 C2030 1.419 . S
C2029 C2024 1.425 . S
C2029 C2026 1.409 . S
C2029 C2027 1.415 . S
C2030 H2020 0.930 1_556 S
C2030 C2028 1.419 . S
C2030 C2031 1.362 . S
C2031 H2021 0.930 . S
C2031 C2024 1.409 . S
C2031 C2030 1.362 . S
H2032 C2038 0.930 . S
H2033 C2041 0.930 . S
H2034 C2042 0.930 . S
H2035 C2043 0.930 . S
H2036 C2046 0.930 . S
H2037 C2047 0.930 . S
C2038 H2032 0.930 . S
C2038 C2039 1.355 . S
C2038 C2040 1.415 . S
C2039 C2038 1.355 . S
C2039 C2041 1.419 . S
C2040 C2038 1.415 . S
C2040 C2045 1.425 . S
C2040 C2047 1.409 . S
C2041 H2033 0.930 . S
C2041 C2039 1.419 . S
C2041 C2042 1.362 . S
C2042 H2034 0.930 . S
C2042 C2041 1.362 . S
C2042 C2045 1.409 . S
C2043 H2035 0.930 . S
C2043 C2044 1.355 . S
C2043 C2045 1.415 . S
C2044 C2043 1.355 . S
C2044 C2046 1.419 . S
C2045 C2040 1.425 . S
C2045 C2042 1.409 . S
C2045 C2043 1.415 . S
C2046 H2036 0.930 . S
C2046 C2044 1.419 . S
C2046 C2047 1.362 . S
C2047 H2037 0.930 . S
C2047 C2040 1.409 . S
C2047 C2046 1.362 . S
H2048 C2054 0.930 . S
H2049 C2057 0.930 . S
H2050 C2058 0.930 . S
H2051 C2059 0.930 . S
H2052 C2062 0.930 . S
H2053 C2063 0.930 . S
C2054 H2048 0.930 . S
C2054 C2055 1.355 . S
C2054 C2056 1.415 . S
C2055 C2054 1.355 . S
C2055 C2057 1.419 . S
C2056 C2054 1.415 . S
C2056 C2061 1.425 . S
C2056 C2063 1.409 . S
C2057 H2049 0.930 . S
C2057 C2055 1.419 . S
C2057 C2058 1.362 . S
C2058 H2050 0.930 . S
C2058 C2057 1.362 . S
C2058 C2061 1.409 . S
C2059 H2051 0.930 . S
C2059 C2060 1.355 . S
C2059 C2061 1.415 . S
C2060 C2059 1.355 . S
C2060 C2062 1.419 . S
C2061 C2056 1.425 . S
C2061 C2058 1.409 . S
C2061 C2059 1.415 . S
C2062 H2052 0.930 . S
C2062 C2060 1.419 . S
C2062 C2063 1.362 . S
C2063 H2053 0.930 . S
C2063 C2056 1.409 . S
C2063 C2062 1.362 . S
H2064 C2070 0.930 . S
H2065 C2073 0.930 . S
H2066 C2074 0.930 . S
H2067 C2075 0.930 . S
H2068 C2078 0.930 . S
H2069 C2079 0.930 . S
C2070 H2064 0.930 . S
C2070 C2071 1.355 . S
C2070 C2072 1.415 . S
C2071 C2070 1.355 . S
C2071 C2073 1.419 . S
C2072 C2070 1.415 . S
C2072 C2077 1.425 . S
C2072 C2079 1.409 . S
C2073 H2065 0.930 . S
C2073 C2071 1.419 . S
C2073 C2074 1.362 . S
C2074 H2066 0.930 . S
C2074 C2073 1.362 . S
C2074 C2077 1.409 . S
C2075 H2067 0.930 . S
C2075 C2076 1.355 . S
C2075 C2077 1.415 . S
C2076 C2075 1.355 . S
C2076 C2078 1.419 . S
C2077 C2072 1.425 . S
C2077 C2074 1.409 . S
C2077 C2075 1.415 . S
C2078 H2068 0.930 . S
C2078 C2076 1.419 . S
C2078 C2079 1.362 . S
C2079 H2069 0.930 . S
C2079 C2072 1.409 . S
C2079 C2078 1.362 . S
H2080 C2086 0.930 . S
H2081 C2089 0.930 . S
H2082 C2090 0.930 . S
H2083 C2091 0.930 . S
H2084 C2094 0.930 . S
H2085 C2095 0.930 . S
C2086 H2080 0.930 . S
C2086 C2087 1.355 . S
C2086 C2088 1.415 . S
C2087 C2086 1.355 . S
C2087 C2089 1.419 . S
C2088 C2086 1.415 . S
C2088 C2093 1.425 . S
C2088 C2095 1.409 . S
C2089 H2081 0.930 . S
C2089 C2087 1.419 . S
C2089 C2090 1.362 . S
C2090 H2082 0.930 . S
C2090 C2089 1.362 . S
C2090 C2093 1.409 . S
C2091 H2083 0.930 . S
C2091 C2092 1.355 . S
C2091 C2093 1.415 . S
C2092 C2091 1.355 . S
C2092 C2094 1.419 . S
C2093 C2088 1.425 . S
C2093 C2090 1.409 . S
C2093 C2091 1.415 . S
C2094 H2084 0.930 . S
C2094 C2092 1.419 . S
C2094 C2095 1.362 . S
C2095 H2085 0.930 . S
C2095 C2088 1.409 . S
C2095 C2094 1.362 . S
H2096 C2102 0.930 . S
H2097 C2105 0.930 . S
H2098 C2106 0.930 . S
H2099 C2107 0.930 . S
H2100 C2110 0.930 . S
H2101 C2111 0.930 . S
C2102 H2096 0.930 . S
C2102 C2103 1.355 . S
C2102 C2104 1.415 . S
C2103 C2102 1.355 . S
C2103 C2105 1.419 . S
C2104 C2102 1.415 . S
C2104 C2109 1.425 . S
C2104 C2111 1.409 . S
C2105 H2097 0.930 . S
C2105 C2103 1.419 . S
C2105 C2106 1.362 . S
C2106 H2098 0.930 . S
C2106 C2105 1.362 . S
C2106 C2109 1.409 . S
C2107 H2099 0.930 . S
C2107 C2108 1.355 . S
C2107 C2109 1.415 . S
C2108 C2107 1.355 . S
C2108 C2110 1.419 . S
C2109 C2104 1.425 . S
C2109 C2106 1.409 . S
C2109 C2107 1.415 . S
C2110 H2100 0.930 . S
C2110 C2108 1.419 . S
C2110 C2111 1.362 . S
C2111 H2101 0.930 . S
C2111 C2104 1.409 . S
C2111 C2110 1.362 . S
H2112 C2118 0.930 . S
H2113 C2121 0.930 1_556 S
H2114 C2122 0.930 . S
H2115 C2123 0.930 . S
H2116 C2126 0.930 . S
H2117 C2127 0.930 . S
C2118 H2112 0.930 . S
C2118 C2119 1.355 . S
C2118 C2120 1.415 . S
C2119 C2118 1.355 . S
C2119 C2121 1.419 . S
C2120 C2118 1.415 . S
C2120 C2125 1.425 . S
C2120 C2127 1.409 . S
C2121 H2113 0.930 1_554 S
C2121 C2119 1.419 . S
C2121 C2122 1.362 . S
C2122 H2114 0.930 . S
C2122 C2121 1.362 . S
C2122 C2125 1.409 . S
C2123 H2115 0.930 . S
C2123 C2124 1.355 . S
C2123 C2125 1.415 . S
C2124 C2123 1.355 . S
C2124 C2126 1.419 . S
C2125 C2120 1.425 . S
C2125 C2122 1.409 . S
C2125 C2123 1.415 . S
C2126 H2116 0.930 . S
C2126 C2124 1.419 . S
C2126 C2127 1.362 . S
C2127 H2117 0.930 . S
C2127 C2120 1.409 . S
C2127 C2126 1.362 . S
H2128 C2134 0.930 . S
H2129 C2137 0.930 . S
H2130 C2138 0.930 . S
H2131 C2139 0.930 . S
H2132 C2142 0.930 . S
H2133 C2143 0.930 . S
C2134 H2128 0.930 . S
C2134 C2135 1.355 . S
C2134 C2136 1.415 . S
C2135 C2134 1.355 . S
C2135 C2137 1.419 . S
C2136 C2134 1.415 . S
C2136 C2141 1.425 . S
C2136 C2143 1.409 . S
C2137 H2129 0.930 . S
C2137 C2135 1.419 . S
C2137 C2138 1.362 . S
C2138 H2130 0.930 . S
C2138 C2137 1.362 . S
C2138 C2141 1.409 . S
C2139 H2131 0.930 . S
C2139 C2140 1.355 . S
C2139 C2141 1.415 . S
C2140 C2139 1.355 . S
C2140 C2142 1.419 . S
C2141 C2136 1.425 . S
C2141 C2138 1.409 . S
C2141 C2139 1.415 . S
C2142 H2132 0.930 . S
C2142 C2140 1.419 . S
C2142 C2143 1.362 . S
C2143 H2133 0.930 . S
C2143 C2136 1.409 . S
C2143 C2142 1.362 . S
H2144 C2150 0.930 . S
H2145 C2153 0.930 . S
H2146 C2154 0.930 . S
H2147 C2155 0.930 . S
H2148 C2158 0.930 1_455 S
H2149 C2159 0.930 . S
C2150 H2144 0.930 . S
C2150 C2151 1.355 . S
C2150 C2152 1.415 . S
C2151 C2150 1.355 . S
C2151 C2153 1.419 . S
C2152 C2150 1.415 . S
C2152 C2157 1.425 . S
C2152 C2159 1.409 . S
C2153 H2145 0.930 . S
C2153 C2151 1.419 . S
C2153 C2154 1.362 . S
C2154 H2146 0.930 . S
C2154 C2153 1.362 . S
C2154 C2157 1.409 . S
C2155 H2147 0.930 . S
C2155 C2156 1.355 . S
C2155 C2157 1.415 . S
C2156 C2155 1.355 . S
C2156 C2158 1.419 . S
C2157 C2152 1.425 . S
C2157 C2154 1.409 . S
C2157 C2155 1.415 . S
C2158 H2148 0.930 1_655 S
C2158 C2156 1.419 . S
C2158 C2159 1.362 . S
C2159 H2149 0.930 . S
C2159 C2152 1.409 . S
C2159 C2158 1.362 . S
H2160 C2166 0.930 . S
H2161 C2169 0.930 . S
H2162 C2170 0.930 . S
H2163 C2171 0.930 . S
H2164 C2174 0.930 . S
H2165 C2175 0.930 . S
C2166 H2160 0.930 . S
C2166 C2167 1.355 . S
C2166 C2168 1.415 . S
C2167 C2166 1.355 . S
C2167 C2169 1.419 . S
C2168 C2166 1.415 . S
C2168 C2173 1.425 . S
C2168 C2175 1.409 . S
C2169 H2161 0.930 . S
C2169 C2167 1.419 . S
C2169 C2170 1.362 . S
C2170 H2162 0.930 . S
C2170 C2169 1.362 . S
C2170 C2173 1.409 . S
C2171 H2163 0.930 . S
C2171 C2172 1.355 . S
C2171 C2173 1.415 . S
C2172 C2171 1.355 . S
C2172 C2174 1.419 . S
C2173 C2168 1.425 . S
C2173 C2170 1.409 . S
C2173 C2171 1.415 . S
C2174 H2164 0.930 . S
C2174 C2172 1.419 . S
C2174 C2175 1.362 . S
C2175 H2165 0.930 . S
C2175 C2168 1.409 . S
C2175 C2174 1.362 . S
H2176 C2182 0.930 . S
H2177 C2185 0.930 . S
H2178 C2186 0.930 . S
H2179 C2187 0.930 . S
H2180 C2190 0.930 . S
H2181 C2191 0.930 . S
C2182 H2176 0.930 . S
C2182 C2183 1.355 . S
C2182 C2184 1.415 . S
C2183 C2182 1.355 . S
C2183 C2185 1.419 . S
C2184 C2182 1.415 . S
C2184 C2189 1.425 . S
C2184 C2191 1.409 . S
C2185 H2177 0.930 . S
C2185 C2183 1.419 . S
C2185 C2186 1.362 . S
C2186 H2178 0.930 . S
C2186 C2185 1.362 . S
C2186 C2189 1.409 . S
C2187 H2179 0.930 . S
C2187 C2188 1.355 . S
C2187 C2189 1.415 . S
C2188 C2187 1.355 . S
C2188 C2190 1.419 . S
C2189 C2184 1.425 . S
C2189 C2186 1.409 . S
C2189 C2187 1.415 . S
C2190 H2180 0.930 . S
C2190 C2188 1.419 . S
C2190 C2191 1.362 . S
C2191 H2181 0.930 . S
C2191 C2184 1.409 . S
C2191 C2190 1.362 . S
H2192 C2198 0.930 . S
H2193 C2201 0.930 . S
H2194 C2202 0.930 . S
H2195 C2203 0.930 . S
H2196 C2206 0.930 . S
H2197 C2207 0.930 . S
C2198 H2192 0.930 . S
C2198 C2199 1.355 . S
C2198 C2200 1.415 . S
C2199 C2198 1.355 . S
C2199 C2201 1.419 . S
C2200 C2198 1.415 . S
C2200 C2205 1.425 . S
C2200 C2207 1.409 . S
C2201 H2193 0.930 . S
C2201 C2199 1.419 . S
C2201 C2202 1.362 . S
C2202 H2194 0.930 . S
C2202 C2201 1.362 . S
C2202 C2205 1.409 . S
C2203 H2195 0.930 . S
C2203 C2204 1.355 . S
C2203 C2205 1.415 . S
C2204 C2203 1.355 . S
C2204 C2206 1.419 . S
C2205 C2200 1.425 . S
C2205 C2202 1.409 . S
C2205 C2203 1.415 . S
C2206 H2196 0.930 . S
C2206 C2204 1.419 . S
C2206 C2207 1.362 . S
C2207 H2197 0.930 . S
C2207 C2200 1.409 . S
C2207 C2206 1.362 . S
H2208 C2214 0.930 . S
H2209 C2217 0.930 . S
H2210 C2218 0.930 . S
H2211 C2219 0.930 . S
H2212 C2222 0.930 . S
H2213 C2223 0.930 . S
C2214 H2208 0.930 . S
C2214 C2215 1.355 . S
C2214 C2216 1.415 . S
C2215 C2214 1.355 . S
C2215 C2217 1.419 . S
C2216 C2214 1.415 . S
C2216 C2221 1.425 . S
C2216 C2223 1.409 . S
C2217 H2209 0.930 . S
C2217 C2215 1.419 . S
C2217 C2218 1.362 . S
C2218 H2210 0.930 . S
C2218 C2217 1.362 . S
C2218 C2221 1.409 . S
C2219 H2211 0.930 . S
C2219 C2220 1.355 . S
C2219 C2221 1.415 . S
C2220 C2219 1.355 . S
C2220 C2222 1.419 . S
C2221 C2216 1.425 . S
C2221 C2218 1.409 . S
C2221 C2219 1.415 . S
C2222 H2212 0.930 . S
C2222 C2220 1.419 . S
C2222 C2223 1.362 . S
C2223 H2213 0.930 . S
C2223 C2216 1.409 . S
C2223 C2222 1.362 . S
H2224 C2230 0.930 . S
H2225 C2233 0.930 . S
H2226 C2234 0.930 . S
H2227 C2235 0.930 . S
H2228 C2238 0.930 . S
H2229 C2239 0.930 . S
C2230 H2224 0.930 . S
C2230 C2231 1.355 . S
C2230 C2232 1.415 . S
C2231 C2230 1.355 . S
C2231 C2233 1.419 . S
C2232 C2230 1.415 . S
C2232 C2237 1.425 . S
C2232 C2239 1.409 . S
C2233 H2225 0.930 . S
C2233 C2231 1.419 . S
C2233 C2234 1.362 . S
C2234 H2226 0.930 . S
C2234 C2233 1.362 . S
C2234 C2237 1.409 . S
C2235 H2227 0.930 . S
C2235 C2236 1.355 . S
C2235 C2237 1.415 . S
C2236 C2235 1.355 . S
C2236 C2238 1.419 . S
C2237 C2232 1.425 . S
C2237 C2234 1.409 . S
C2237 C2235 1.415 . S
C2238 H2228 0.930 . S
C2238 C2236 1.419 . S
C2238 C2239 1.362 . S
C2239 H2229 0.930 . S
C2239 C2232 1.409 . S
C2239 C2238 1.362 . S
H2240 C2246 0.930 . S
H2241 C2249 0.930 . S
H2242 C2250 0.930 . S
H2243 C2251 0.930 . S
H2244 C2254 0.930 . S
H2245 C2255 0.930 . S
C2246 H2240 0.930 . S
C2246 C2247 1.355 . S
C2246 C2248 1.415 . S
C2247 C2246 1.355 . S
C2247 C2249 1.419 . S
C2248 C2246 1.415 . S
C2248 C2253 1.425 . S
C2248 C2255 1.409 . S
C2249 H2241 0.930 . S
C2249 C2247 1.419 . S
C2249 C2250 1.362 . S
C2250 H2242 0.930 . S
C2250 C2249 1.362 . S
C2250 C2253 1.409 . S
C2251 H2243 0.930 . S
C2251 C2252 1.355 . S
C2251 C2253 1.415 . S
C2252 C2251 1.355 . S
C2252 C2254 1.419 . S
C2253 C2248 1.425 . S
C2253 C2250 1.409 . S
C2253 C2251 1.415 . S
C2254 H2244 0.930 . S
C2254 C2252 1.419 . S
C2254 C2255 1.362 . S
C2255 H2245 0.930 . S
C2255 C2248 1.409 . S
C2255 C2254 1.362 . S
H2256 C2262 0.930 . S
H2257 C2265 0.930 . S
H2258 C2266 0.930 . S
H2259 C2267 0.930 . S
H2260 C2270 0.930 . S
H2261 C2271 0.930 . S
C2262 H2256 0.930 . S
C2262 C2263 1.355 . S
C2262 C2264 1.415 . S
C2263 C2262 1.355 . S
C2263 C2265 1.419 . S
C2264 C2262 1.415 . S
C2264 C2269 1.425 . S
C2264 C2271 1.409 . S
C2265 H2257 0.930 . S
C2265 C2263 1.419 . S
C2265 C2266 1.362 . S
C2266 H2258 0.930 . S
C2266 C2265 1.362 . S
C2266 C2269 1.409 . S
C2267 H2259 0.930 . S
C2267 C2268 1.355 . S
C2267 C2269 1.415 . S
C2268 C2267 1.355 . S
C2268 C2270 1.419 . S
C2269 C2264 1.425 . S
C2269 C2266 1.409 . S
C2269 C2267 1.415 . S
C2270 H2260 0.930 . S
C2270 C2268 1.419 . S
C2270 C2271 1.362 . S
C2271 H2261 0.930 . S
C2271 C2264 1.409 . S
C2271 C2270 1.362 . S
H2272 C2278 0.930 . S
H2273 C2281 0.930 . S
H2274 C2282 0.930 . S
H2275 C2283 0.930 . S
H2276 C2286 0.980 . S
H2277 C2287 0.930 . S
C2278 H2272 0.930 . S
C2278 C2279 1.355 . S
C2278 C2280 1.415 . S
C2279 C2278 1.355 . S
C2279 C2281 1.419 . S
C2280 C2278 1.415 . S
C2280 C2285 1.425 . S
C2280 C2287 1.409 . S
C2281 H2273 0.930 . S
C2281 C2279 1.419 . S
C2281 C2282 1.362 . S
C2282 H2274 0.930 . S
C2282 C2281 1.362 . S
C2282 C2285 1.409 . S
C2283 H2275 0.930 . S
C2283 C2284 1.355 . S
C2283 C2285 1.415 . S
C2284 C2283 1.355 . S
C2284 C2286 1.419 . S
C2285 C2280 1.425 . S
C2285 C2282 1.409 . S
C2285 C2283 1.415 . S
C2286 H2276 0.980 . S
C2286 C2284 1.419 . S
C2286 C2287 1.362 . S
C2287 H2277 0.930 . S
C2287 C2280 1.409 . S
C2287 C2286 1.362 . S
H2288 C2294 0.930 . S
H2289 C2297 0.930 . S
H2290 C2298 0.930 . S
H2291 C2299 0.930 . S
H2292 C2302 0.930 . S
H2293 C2303 0.930 . S
C2294 H2288 0.930 . S
C2294 C2295 1.355 . S
C2294 C2296 1.415 . S
C2295 C2294 1.355 . S
C2295 C2297 1.419 . S
C2296 C2294 1.415 . S
C2296 C2301 1.425 . S
C2296 C2303 1.409 . S
C2297 H2289 0.930 . S
C2297 C2295 1.419 . S
C2297 C2298 1.362 . S
C2298 H2290 0.930 . S
C2298 C2297 1.362 . S
C2298 C2301 1.409 . S
C2299 H2291 0.930 . S
C2299 C2300 1.355 . S
C2299 C2301 1.415 . S
C2300 C2299 1.355 . S
C2300 C2302 1.419 . S
C2301 C2296 1.425 . S
C2301 C2298 1.409 . S
C2301 C2299 1.415 . S
C2302 H2292 0.930 . S
C2302 C2300 1.419 . S
C2302 C2303 1.362 . S
C2303 H2293 0.930 . S
C2303 C2296 1.409 . S
C2303 C2302 1.362 . S
H2304 C2310 0.930 . S
H2305 C2313 0.930 . S
H2306 C2314 0.930 . S
H2307 C2315 0.930 . S
H2308 C2318 0.930 . S
H2309 C2319 0.930 . S
C2310 H2304 0.930 . S
C2310 C2311 1.355 . S
C2310 C2312 1.415 . S
C2311 C2310 1.355 . S
C2311 C2313 1.419 . S
C2312 C2310 1.415 . S
C2312 C2317 1.425 . S
C2312 C2319 1.409 . S
C2313 H2305 0.930 . S
C2313 C2311 1.419 . S
C2313 C2314 1.362 . S
C2314 H2306 0.930 . S
C2314 C2313 1.362 . S
C2314 C2317 1.409 . S
C2315 H2307 0.930 . S
C2315 C2316 1.355 . S
C2315 C2317 1.415 . S
C2316 C2315 1.355 . S
C2316 C2318 1.419 . S
C2317 C2312 1.425 . S
C2317 C2314 1.409 . S
C2317 C2315 1.415 . S
C2318 H2308 0.930 . S
C2318 C2316 1.419 . S
C2318 C2319 1.362 . S
C2319 H2309 0.930 . S
C2319 C2312 1.409 . S
C2319 C2318 1.362 . S
H2320 C2326 0.930 . S
H2321 C2329 0.930 . S
H2322 C2330 0.930 . S
H2323 C2331 0.930 . S
H2324 C2334 0.930 . S
H2325 C2335 0.930 . S
C2326 H2320 0.930 . S
C2326 C2327 1.355 . S
C2326 C2328 1.415 . S
C2327 C2326 1.355 . S
C2327 C2329 1.419 . S
C2328 C2326 1.415 . S
C2328 C2333 1.425 . S
C2328 C2335 1.409 . S
C2329 H2321 0.930 . S
C2329 C2327 1.419 . S
C2329 C2330 1.362 . S
C2330 H2322 0.930 . S
C2330 C2329 1.362 . S
C2330 C2333 1.409 . S
C2331 H2323 0.930 . S
C2331 C2332 1.355 . S
C2331 C2333 1.415 . S
C2332 C2331 1.355 . S
C2332 C2334 1.419 . S
C2333 C2328 1.425 . S
C2333 C2330 1.409 . S
C2333 C2331 1.415 . S
C2334 H2324 0.930 . S
C2334 C2332 1.419 . S
C2334 C2335 1.362 . S
C2335 H2325 0.930 . S
C2335 C2328 1.409 . S
C2335 C2334 1.362 . S
H2336 C2342 0.930 . S
H2337 C2345 0.930 . S
H2338 C2346 0.930 . S
H2339 C2347 0.930 . S
H2340 C2350 0.930 . S
H2341 C2351 0.930 . S
C2342 H2336 0.930 . S
C2342 C2343 1.355 . S
C2342 C2344 1.415 . S
C2343 C2342 1.355 . S
C2343 C2345 1.419 . S
C2344 C2342 1.415 . S
C2344 C2349 1.425 . S
C2344 C2351 1.409 . S
C2345 H2337 0.930 . S
C2345 C2343 1.419 . S
C2345 C2346 1.362 . S
C2346 H2338 0.930 . S
C2346 C2345 1.362 . S
C2346 C2349 1.409 . S
C2347 H2339 0.930 . S
C2347 C2348 1.355 . S
C2347 C2349 1.415 . S
C2348 C2347 1.355 . S
C2348 C2350 1.419 . S
C2349 C2344 1.425 . S
C2349 C2346 1.409 . S
C2349 C2347 1.415 . S
C2350 H2340 0.930 . S
C2350 C2348 1.419 . S
C2350 C2351 1.362 . S
C2351 H2341 0.930 . S
C2351 C2344 1.409 . S
C2351 C2350 1.362 . S
H2352 C2358 0.930 . S
H2353 C2361 0.930 . S
H2354 C2362 0.930 . S
H2355 C2363 0.930 . S
H2356 C2366 0.930 . S
H2357 C2367 0.930 . S
C2358 H2352 0.930 . S
C2358 C2359 1.355 . S
C2358 C2360 1.415 . S
C2359 C2358 1.355 . S
C2359 C2361 1.419 . S
C2360 C2358 1.415 . S
C2360 C2365 1.425 . S
C2360 C2367 1.409 . S
C2361 H2353 0.930 . S
C2361 C2359 1.419 . S
C2361 C2362 1.362 . S
C2362 H2354 0.930 . S
C2362 C2361 1.362 . S
C2362 C2365 1.409 . S
C2363 H2355 0.930 . S
C2363 C2364 1.355 . S
C2363 C2365 1.415 . S
C2364 C2363 1.355 . S
C2364 C2366 1.419 . S
C2365 C2360 1.425 . S
C2365 C2362 1.409 . S
C2365 C2363 1.415 . S
C2366 H2356 0.930 . S
C2366 C2364 1.419 . S
C2366 C2367 1.362 . S
C2367 H2357 0.930 . S
C2367 C2360 1.409 . S
C2367 C2366 1.362 . S
H2368 C2374 0.930 . S
H2369 C2377 0.930 . S
H2370 C2378 0.930 . S
H2371 C2379 0.930 . S
H2372 C2382 0.930 . S
H2373 C2383 0.930 . S
C2374 H2368 0.930 . S
C2374 C2375 1.355 . S
C2374 C2376 1.415 . S
C2375 C2374 1.355 . S
C2375 C2377 1.419 . S
C2376 C2374 1.415 . S
C2376 C2381 1.425 . S
C2376 C2383 1.409 . S
C2377 H2369 0.930 . S
C2377 C2375 1.419 . S
C2377 C2378 1.362 . S
C2378 H2370 0.930 . S
C2378 C2377 1.362 . S
C2378 C2381 1.409 . S
C2379 H2371 0.930 . S
C2379 C2380 1.355 . S
C2379 C2381 1.415 . S
C2380 C2379 1.355 . S
C2380 C2382 1.419 . S
C2381 C2376 1.425 . S
C2381 C2378 1.409 . S
C2381 C2379 1.415 . S
C2382 H2372 0.930 . S
C2382 C2380 1.419 . S
C2382 C2383 1.362 . S
C2383 H2373 0.930 . S
C2383 C2376 1.409 . S
C2383 C2382 1.362 . S
H2384 C2390 0.930 . S
H2385 C2393 0.930 . S
H2386 C2394 0.930 . S
H2387 C2395 0.930 . S
H2388 C2398 0.930 . S
H2389 C2399 0.930 . S
C2390 H2384 0.930 . S
C2390 C2391 1.355 . S
C2390 C2392 1.415 . S
C2391 C2390 1.355 . S
C2391 C2393 1.419 . S
C2392 C2390 1.415 . S
C2392 C2397 1.425 . S
C2392 C2399 1.409 . S
C2393 H2385 0.930 . S
C2393 C2391 1.419 . S
C2393 C2394 1.362 . S
C2394 H2386 0.930 . S
C2394 C2393 1.362 . S
C2394 C2397 1.409 . S
C2395 H2387 0.930 . S
C2395 C2396 1.355 . S
C2395 C2397 1.415 . S
C2396 C2395 1.355 . S
C2396 C2398 1.419 . S
C2397 C2392 1.425 . S
C2397 C2394 1.409 . S
C2397 C2395 1.415 . S
C2398 H2388 0.930 . S
C2398 C2396 1.419 . S
C2398 C2399 1.362 . S
C2399 H2389 0.930 . S
C2399 C2392 1.409 . S
C2399 C2398 1.362 . S
H2400 C2406 0.930 . S
H2401 C2409 0.930 . S
H2402 C2410 0.930 . S
H2403 C2411 0.930 . S
H2404 C2414 0.930 . S
H2405 C2415 0.930 . S
C2406 H2400 0.930 . S
C2406 C2407 1.355 . S
C2406 C2408 1.415 . S
C2407 C2406 1.355 . S
C2407 C2409 1.419 . S
C2408 C2406 1.415 . S
C2408 C2413 1.425 . S
C2408 C2415 1.409 . S
C2409 H2401 0.930 . S
C2409 C2407 1.419 . S
C2409 C2410 1.362 . S
C2410 H2402 0.930 . S
C2410 C2409 1.362 . S
C2410 C2413 1.409 . S
C2411 H2403 0.930 . S
C2411 C2412 1.355 . S
C2411 C2413 1.415 . S
C2412 C2411 1.355 . S
C2412 C2414 1.419 . S
C2413 C2408 1.425 . S
C2413 C2410 1.409 . S
C2413 C2411 1.415 . S
C2414 H2404 0.930 . S
C2414 C2412 1.419 . S
C2414 C2415 1.362 . S
C2415 H2405 0.930 . S
C2415 C2408 1.409 . S
C2415 C2414 1.362 . S
H2416 C2422 0.930 . S
H2417 C2425 0.930 . S
H2418 C2426 0.930 . S
H2419 C2427 0.930 . S
H2420 C2430 0.930 . S
H2421 C2431 0.930 . S
C2422 H2416 0.930 . S
C2422 C2423 1.355 . S
C2422 C2424 1.415 . S
C2423 C2422 1.355 . S
C2423 C2425 1.419 . S
C2424 C2422 1.415 . S
C2424 C2429 1.425 . S
C2424 C2431 1.409 . S
C2425 H2417 0.930 . S
C2425 C2423 1.419 . S
C2425 C2426 1.362 . S
C2426 H2418 0.930 . S
C2426 C2425 1.362 . S
C2426 C2429 1.409 . S
C2427 H2419 0.930 . S
C2427 C2428 1.355 . S
C2427 C2429 1.415 . S
C2428 C2427 1.355 . S
C2428 C2430 1.419 . S
C2429 C2424 1.425 . S
C2429 C2426 1.409 . S
C2429 C2427 1.415 . S
C2430 H2420 0.930 . S
C2430 C2428 1.419 . S
C2430 C2431 1.362 . S
C2431 H2421 0.930 . S
C2431 C2424 1.409 . S
C2431 C2430 1.362 . S
H2432 C2438 0.930 . S
H2433 C2441 0.930 . S
H2434 C2442 0.930 . S
H2435 C2443 0.930 . S
H2436 C2446 0.930 . S
H2437 C2447 0.930 . S
C2438 H2432 0.930 . S
C2438 C2439 1.355 . S
C2438 C2440 1.415 . S
C2439 C2438 1.355 . S
C2439 C2441 1.419 . S
C2440 C2438 1.415 . S
C2440 C2445 1.425 . S
C2440 C2447 1.409 . S
C2441 H2433 0.930 . S
C2441 C2439 1.419 . S
C2441 C2442 1.362 . S
C2442 H2434 0.930 . S
C2442 C2441 1.362 . S
C2442 C2445 1.409 . S
C2443 H2435 0.930 . S
C2443 C2444 1.355 . S
C2443 C2445 1.415 . S
C2444 C2443 1.355 . S
C2444 C2446 1.419 . S
C2445 C2440 1.425 . S
C2445 C2442 1.409 . S
C2445 C2443 1.415 . S
C2446 H2436 0.930 . S
C2446 C2444 1.419 . S
C2446 C2447 1.362 . S
C2447 H2437 0.930 . S
C2447 C2440 1.409 . S
C2447 C2446 1.362 . S
H2448 C2454 0.930 . S
H2449 C2457 0.930 . S
H2450 C2458 0.930 . S
H2451 C2459 0.930 . S
H2452 C2462 0.930 . S
H2453 C2463 0.930 . S
C2454 H2448 0.930 . S
C2454 C2455 1.355 . S
C2454 C2456 1.415 . S
C2455 C2454 1.355 . S
C2455 C2457 1.419 . S
C2456 C2454 1.415 . S
C2456 C2461 1.425 . S
C2456 C2463 1.409 . S
C2457 H2449 0.930 . S
C2457 C2455 1.419 . S
C2457 C2458 1.362 . S
C2458 H2450 0.930 . S
C2458 C2457 1.362 . S
C2458 C2461 1.409 . S
C2459 H2451 0.930 . S
C2459 C2460 1.355 . S
C2459 C2461 1.415 . S
C2460 C2459 1.355 . S
C2460 C2462 1.419 . S
C2461 C2456 1.425 . S
C2461 C2458 1.409 . S
C2461 C2459 1.415 . S
C2462 H2452 0.930 . S
C2462 C2460 1.419 . S
C2462 C2463 1.362 . S
C2463 H2453 0.930 . S
C2463 C2456 1.409 . S
C2463 C2462 1.362 . S
H2464 C2470 0.930 . S
H2465 C2473 0.930 . S
H2466 C2474 0.930 . S
H2467 C2475 0.930 . S
H2468 C2478 0.930 . S
H2469 C2479 0.930 . S
C2470 H2464 0.930 . S
C2470 C2471 1.355 . S
C2470 C2472 1.415 . S
C2471 C2470 1.355 . S
C2471 C2473 1.419 . S
C2472 C2470 1.415 . S
C2472 C2477 1.425 . S
C2472 C2479 1.409 . S
C2473 H2465 0.930 . S
C2473 C2471 1.419 . S
C2473 C2474 1.362 . S
C2474 H2466 0.930 . S
C2474 C2473 1.362 . S
C2474 C2477 1.409 . S
C2475 H2467 0.930 . S
C2475 C2476 1.355 . S
C2475 C2477 1.415 . S
C2476 C2475 1.355 . S
C2476 C2478 1.419 . S
C2477 C2472 1.425 . S
C2477 C2474 1.409 . S
C2477 C2475 1.415 . S
C2478 H2468 0.930 . S
C2478 C2476 1.419 . S
C2478 C2479 1.362 . S
C2479 H2469 0.930 . S
C2479 C2472 1.409 . S
C2479 C2478 1.362 . S
H2480 C2486 0.930 . S
H2481 C2489 0.930 . S
H2482 C2490 0.930 . S
H2483 C2491 0.930 . S
H2484 C2494 0.930 . S
H2485 C2495 0.930 . S
C2486 H2480 0.930 . S
C2486 C2487 1.355 . S
C2486 C2488 1.415 . S
C2487 C2486 1.355 . S
C2487 C2489 1.419 . S
C2488 C2486 1.415 . S
C2488 C2493 1.425 . S
C2488 C2495 1.409 . S
C2489 H2481 0.930 . S
C2489 C2487 1.419 . S
C2489 C2490 1.362 . S
C2490 H2482 0.930 . S
C2490 C2489 1.362 . S
C2490 C2493 1.409 . S
C2491 H2483 0.930 . S
C2491 C2492 1.355 . S
C2491 C2493 1.415 . S
C2492 C2491 1.355 . S
C2492 C2494 1.419 . S
C2493 C2488 1.425 . S
C2493 C2490 1.409 . S
C2493 C2491 1.415 . S
C2494 H2484 0.930 . S
C2494 C2492 1.419 . S
C2494 C2495 1.362 . S
C2495 H2485 0.930 . S
C2495 C2488 1.409 . S
C2495 C2494 1.362 . S
H2496 C2502 0.930 . S
H2497 C2505 0.930 . S
H2498 C2506 0.930 . S
H2499 C2507 0.930 . S
H2500 C2510 0.930 . S
H2501 C2511 0.930 . S
C2502 H2496 0.930 . S
C2502 C2503 1.355 . S
C2502 C2504 1.415 . S
C2503 C2502 1.355 . S
C2503 C2505 1.419 . S
C2504 C2502 1.415 . S
C2504 C2509 1.425 . S
C2504 C2511 1.409 . S
C2505 H2497 0.930 . S
C2505 C2503 1.419 . S
C2505 C2506 1.362 . S
C2506 H2498 0.930 . S
C2506 C2505 1.362 . S
C2506 C2509 1.409 . S
C2507 H2499 0.930 . S
C2507 C2508 1.355 . S
C2507 C2509 1.415 . S
C2508 C2507 1.355 . S
C2508 C2510 1.419 . S
C2509 C2504 1.425 . S
C2509 C2506 1.409 . S
C2509 C2507 1.415 . S
C2510 H2500 0.930 . S
C2510 C2508 1.419 . S
C2510 C2511 1.362 . S
C2511 H2501 0.930 . S
C2511 C2504 1.409 . S
C2511 C2510 1.362 . S
H2512 C2518 0.930 . S
H2513 C2521 0.930 . S
H2514 C2522 0.930 . S
H2515 C2523 0.930 . S
H2516 C2526 0.930 . S
H2517 C2527 0.930 . S
C2518 H2512 0.930 . S
C2518 C2519 1.355 . S
C2518 C2520 1.415 . S
C2519 C2518 1.355 . S
C2519 C2521 1.419 . S
C2520 C2518 1.415 . S
C2520 C2525 1.425 . S
C2520 C2527 1.409 . S
C2521 H2513 0.930 . S
C2521 C2519 1.419 . S
C2521 C2522 1.362 . S
C2522 H2514 0.930 . S
C2522 C2521 1.362 . S
C2522 C2525 1.409 . S
C2523 H2515 0.930 . S
C2523 C2524 1.355 . S
C2523 C2525 1.415 . S
C2524 C2523 1.355 . S
C2524 C2526 1.419 . S
C2525 C2520 1.425 . S
C2525 C2522 1.409 . S
C2525 C2523 1.415 . S
C2526 H2516 0.930 . S
C2526 C2524 1.419 . S
C2526 C2527 1.362 . S
C2527 H2517 0.930 . S
C2527 C2520 1.409 . S
C2527 C2526 1.362 . S
H2528 C2534 0.930 . S
H2529 C2537 0.930 . S
H2530 C2538 0.930 . S
H2531 C2539 0.930 . S
H2532 C2542 0.930 . S
H2533 C2543 0.930 . S
C2534 H2528 0.930 . S
C2534 C2535 1.355 . S
C2534 C2536 1.415 . S
C2535 C2534 1.355 . S
C2535 C2537 1.419 . S
C2536 C2534 1.415 . S
C2536 C2541 1.425 . S
C2536 C2543 1.409 . S
C2537 H2529 0.930 . S
C2537 C2535 1.419 . S
C2537 C2538 1.362 . S
C2538 H2530 0.930 . S
C2538 C2537 1.362 . S
C2538 C2541 1.409 . S
C2539 H2531 0.930 . S
C2539 C2540 1.355 . S
C2539 C2541 1.415 . S
C2540 C2539 1.355 . S
C2540 C2542 1.419 . S
C2541 C2536 1.425 . S
C2541 C2538 1.409 . S
C2541 C2539 1.415 . S
C2542 H2532 0.930 . S
C2542 C2540 1.419 . S
C2542 C2543 1.362 . S
C2543 H2533 0.930 . S
C2543 C2536 1.409 . S
C2543 C2542 1.362 . S
H2544 C2550 0.930 . S
H2545 C2553 0.930 . S
H2546 C2554 0.930 . S
H2547 C2555 0.930 . S
H2548 C2558 0.930 . S
H2549 C2559 0.930 . S
C2550 H2544 0.930 . S
C2550 C2551 1.355 . S
C2550 C2552 1.415 . S
C2551 C2550 1.355 . S
C2551 C2553 1.419 . S
C2552 C2550 1.415 . S
C2552 C2557 1.425 . S
C2552 C2559 1.409 . S
C2553 H2545 0.930 . S
C2553 C2551 1.419 . S
C2553 C2554 1.362 . S
C2554 H2546 0.930 . S
C2554 C2553 1.362 . S
C2554 C2557 1.409 . S
C2555 H2547 0.930 . S
C2555 C2556 1.355 . S
C2555 C2557 1.415 . S
C2556 C2555 1.355 . S
C2556 C2558 1.419 . S
C2557 C2552 1.425 . S
C2557 C2554 1.409 . S
C2557 C2555 1.415 . S
C2558 H2548 0.930 . S
C2558 C2556 1.419 . S
C2558 C2559 1.362 . S
C2559 H2549 0.930 . S
C2559 C2552 1.409 . S
C2559 C2558 1.362 . S
H2560 C2566 0.930 . S
H2561 C2569 0.930 . S
H2562 C2570 0.930 . S
H2563 C2571 0.930 . S
H2564 C2574 0.930 . S
H2565 C2575 0.930 . S
C2566 H2560 0.930 . S
C2566 C2567 1.355 . S
C2566 C2568 1.415 . S
C2567 C2566 1.355 . S
C2567 C2569 1.419 . S
C2568 C2566 1.415 . S
C2568 C2573 1.425 . S
C2568 C2575 1.409 . S
C2569 H2561 0.930 . S
C2569 C2567 1.419 . S
C2569 C2570 1.362 . S
C2570 H2562 0.930 . S
C2570 C2569 1.362 . S
C2570 C2573 1.409 . S
C2571 H2563 0.930 . S
C2571 C2572 1.355 . S
C2571 C2573 1.415 . S
C2572 C2571 1.355 . S
C2572 C2574 1.419 . S
C2573 C2568 1.425 . S
C2573 C2570 1.409 . S
C2573 C2571 1.415 . S
C2574 H2564 0.930 . S
C2574 C2572 1.419 . S
C2574 C2575 1.362 . S
C2575 H2565 0.930 . S
C2575 C2568 1.409 . S
C2575 C2574 1.362 . S
H2576 C2582 0.930 . S
H2577 C2585 0.930 . S
H2578 C2586 0.930 . S
H2579 C2587 0.930 . S
H2580 C2590 0.930 . S
H2581 C2591 0.930 . S
C2582 H2576 0.930 . S
C2582 C2583 1.355 . S
C2582 C2584 1.415 . S
C2583 C2582 1.355 . S
C2583 C2585 1.419 . S
C2584 C2582 1.415 . S
C2584 C2589 1.425 . S
C2584 C2591 1.409 . S
C2585 H2577 0.930 . S
C2585 C2583 1.419 . S
C2585 C2586 1.362 . S
C2586 H2578 0.930 . S
C2586 C2585 1.362 . S
C2586 C2589 1.409 . S
C2587 H2579 0.930 . S
C2587 C2588 1.355 . S
C2587 C2589 1.415 . S
C2588 C2587 1.355 . S
C2588 C2590 1.419 . S
C2589 C2584 1.425 . S
C2589 C2586 1.409 . S
C2589 C2587 1.415 . S
C2590 H2580 0.930 . S
C2590 C2588 1.419 . S
C2590 C2591 1.362 . S
C2591 H2581 0.930 . S
C2591 C2584 1.409 . S
C2591 C2590 1.362 . S
H2592 C2598 0.930 . S
H2593 C2601 0.930 . S
H2594 C2602 0.930 . S
H2595 C2603 0.930 . S
H2596 C2606 0.930 . S
H2597 C2607 0.930 . S
C2598 H2592 0.930 . S
C2598 C2599 1.355 . S
C2598 C2600 1.415 . S
C2599 C2598 1.355 . S
C2599 C2601 1.419 . S
C2600 C2598 1.415 . S
C2600 C2605 1.425 . S
C2600 C2607 1.409 . S
C2601 H2593 0.930 . S
C2601 C2599 1.419 . S
C2601 C2602 1.362 . S
C2602 H2594 0.930 . S
C2602 C2601 1.362 . S
C2602 C2605 1.409 . S
C2603 H2595 0.930 . S
C2603 C2604 1.355 . S
C2603 C2605 1.415 . S
C2604 C2603 1.355 . S
C2604 C2606 1.419 . S
C2605 C2600 1.425 . S
C2605 C2602 1.409 . S
C2605 C2603 1.415 . S
C2606 H2596 0.930 . S
C2606 C2604 1.419 . S
C2606 C2607 1.362 . S
C2607 H2597 0.930 . S
C2607 C2600 1.409 . S
C2607 C2606 1.362 . S
H2608 C2614 0.930 . S
H2609 C2617 0.930 . S
H2610 C2618 0.930 . S
H2611 C2619 0.930 . S
H2612 C2622 0.930 . S
H2613 C2623 0.930 . S
C2614 H2608 0.930 . S
C2614 C2615 1.355 . S
C2614 C2616 1.415 . S
C2615 C2614 1.355 . S
C2615 C2617 1.419 . S
C2616 C2614 1.415 . S
C2616 C2621 1.425 . S
C2616 C2623 1.409 . S
C2617 H2609 0.930 . S
C2617 C2615 1.419 . S
C2617 C2618 1.362 . S
C2618 H2610 0.930 . S
C2618 C2617 1.362 . S
C2618 C2621 1.409 . S
C2619 H2611 0.930 . S
C2619 C2620 1.355 . S
C2619 C2621 1.415 . S
C2620 C2619 1.355 . S
C2620 C2622 1.419 . S
C2621 C2616 1.425 . S
C2621 C2618 1.409 . S
C2621 C2619 1.415 . S
C2622 H2612 0.930 . S
C2622 C2620 1.419 . S
C2622 C2623 1.362 . S
C2623 H2613 0.930 . S
C2623 C2616 1.409 . S
C2623 C2622 1.362 . S
H2624 C2630 0.930 . S
H2625 C2633 0.930 . S
H2626 C2634 0.930 . S
H2627 C2635 0.930 . S
H2628 C2638 0.930 . S
H2629 C2639 0.930 . S
C2630 H2624 0.930 . S
C2630 C2631 1.355 . S
C2630 C2632 1.415 . S
C2631 C2630 1.355 . S
C2631 C2633 1.419 . S
C2632 C2630 1.415 . S
C2632 C2637 1.425 . S
C2632 C2639 1.409 . S
C2633 H2625 0.930 . S
C2633 C2631 1.419 . S
C2633 C2634 1.362 . S
C2634 H2626 0.930 . S
C2634 C2633 1.362 . S
C2634 C2637 1.409 . S
C2635 H2627 0.930 . S
C2635 C2636 1.355 . S
C2635 C2637 1.415 . S
C2636 C2635 1.355 . S
C2636 C2638 1.419 . S
C2637 C2632 1.425 . S
C2637 C2634 1.409 . S
C2637 C2635 1.415 . S
C2638 H2628 0.930 . S
C2638 C2636 1.419 . S
C2638 C2639 1.362 . S
C2639 H2629 0.930 . S
C2639 C2632 1.409 . S
C2639 C2638 1.362 . S
H2640 C2646 0.930 . S
H2641 C2649 0.930 . S
H2642 C2650 0.930 . S
H2643 C2651 0.930 . S
H2644 C2654 0.930 . S
H2645 C2655 0.930 . S
C2646 H2640 0.930 . S
C2646 C2647 1.355 . S
C2646 C2648 1.415 . S
C2647 C2646 1.355 . S
C2647 C2649 1.419 . S
C2648 C2646 1.415 . S
C2648 C2653 1.425 . S
C2648 C2655 1.409 . S
C2649 H2641 0.930 . S
C2649 C2647 1.419 . S
C2649 C2650 1.362 . S
C2650 H2642 0.930 . S
C2650 C2649 1.362 . S
C2650 C2653 1.409 . S
C2651 H2643 0.930 . S
C2651 C2652 1.355 . S
C2651 C2653 1.415 . S
C2652 C2651 1.355 . S
C2652 C2654 1.419 . S
C2653 C2648 1.425 . S
C2653 C2650 1.409 . S
C2653 C2651 1.415 . S
C2654 H2644 0.930 . S
C2654 C2652 1.419 . S
C2654 C2655 1.362 . S
C2655 H2645 0.930 . S
C2655 C2648 1.409 . S
C2655 C2654 1.362 . S
H2656 C2662 0.930 . S
H2657 C2665 0.930 . S
H2658 C2666 0.930 . S
H2659 C2667 0.930 . S
H2660 C2670 0.930 . S
H2661 C2671 0.930 . S
C2662 H2656 0.930 . S
C2662 C2663 1.355 . S
C2662 C2664 1.415 . S
C2663 C2662 1.355 . S
C2663 C2665 1.419 . S
C2664 C2662 1.415 . S
C2664 C2669 1.425 . S
C2664 C2671 1.409 . S
C2665 H2657 0.930 . S
C2665 C2663 1.419 . S
C2665 C2666 1.362 . S
C2666 H2658 0.930 . S
C2666 C2665 1.362 . S
C2666 C2669 1.409 . S
C2667 H2659 0.930 . S
C2667 C2668 1.355 . S
C2667 C2669 1.415 . S
C2668 C2667 1.355 . S
C2668 C2670 1.419 . S
C2669 C2664 1.425 . S
C2669 C2666 1.409 . S
C2669 C2667 1.415 . S
C2670 H2660 0.930 . S
C2670 C2668 1.419 . S
C2670 C2671 1.362 . S
C2671 H2661 0.930 . S
C2671 C2664 1.409 . S
C2671 C2670 1.362 . S
H2672 C2678 0.930 . S
H2673 C2681 0.930 . S
H2674 C2682 0.930 . S
H2675 C2683 0.930 . S
H2676 C2686 0.930 . S
H2677 C2687 0.930 . S
C2678 H2672 0.930 . S
C2678 C2679 1.355 . S
C2678 C2680 1.415 . S
C2679 C2678 1.355 . S
C2679 C2681 1.419 . S
C2680 C2678 1.415 . S
C2680 C2685 1.425 . S
C2680 C2687 1.409 . S
C2681 H2673 0.930 . S
C2681 C2679 1.419 . S
C2681 C2682 1.362 . S
C2682 H2674 0.930 . S
C2682 C2681 1.362 . S
C2682 C2685 1.409 . S
C2683 H2675 0.930 . S
C2683 C2684 1.355 . S
C2683 C2685 1.415 . S
C2684 C2683 1.355 . S
C2684 C2686 1.419 . S
C2685 C2680 1.425 . S
C2685 C2682 1.409 . S
C2685 C2683 1.415 . S
C2686 H2676 0.930 . S
C2686 C2684 1.419 . S
C2686 C2687 1.362 . S
C2687 H2677 0.930 . S
C2687 C2680 1.409 . S
C2687 C2686 1.362 . S
H2688 C2694 0.930 . S
H2689 C2697 0.930 . S
H2690 C2698 0.930 . S
H2691 C2699 0.930 . S
H2692 C2702 0.930 . S
H2693 C2703 0.930 . S
C2694 H2688 0.930 . S
C2694 C2695 1.355 . S
C2694 C2696 1.415 . S
C2695 C2694 1.355 . S
C2695 C2697 1.419 . S
C2696 C2694 1.415 . S
C2696 C2701 1.425 . S
C2696 C2703 1.409 . S
C2697 H2689 0.930 . S
C2697 C2695 1.419 . S
C2697 C2698 1.362 . S
C2698 H2690 0.930 . S
C2698 C2697 1.362 . S
C2698 C2701 1.409 . S
C2699 H2691 0.930 . S
C2699 C2700 1.355 . S
C2699 C2701 1.415 . S
C2700 C2699 1.355 . S
C2700 C2702 1.419 . S
C2701 C2696 1.425 . S
C2701 C2698 1.409 . S
C2701 C2699 1.415 . S
C2702 H2692 0.930 . S
C2702 C2700 1.419 . S
C2702 C2703 1.362 . S
C2703 H2693 0.930 . S
C2703 C2696 1.409 . S
C2703 C2702 1.362 . S
H2704 C2710 0.930 . S
H2705 C2713 0.930 . S
H2706 C2714 0.930 . S
H2707 C2715 0.930 . S
H2708 C2718 0.930 . S
H2709 C2719 0.930 . S
C2710 H2704 0.930 . S
C2710 C2711 1.355 . S
C2710 C2712 1.415 . S
C2711 C2710 1.355 . S
C2711 C2713 1.419 . S
C2712 C2710 1.415 . S
C2712 C2717 1.425 . S
C2712 C2719 1.409 . S
C2713 H2705 0.930 . S
C2713 C2711 1.419 . S
C2713 C2714 1.362 . S
C2714 H2706 0.930 . S
C2714 C2713 1.362 . S
C2714 C2717 1.409 . S
C2715 H2707 0.930 . S
C2715 C2716 1.355 . S
C2715 C2717 1.415 . S
C2716 C2715 1.355 . S
C2716 C2718 1.419 . S
C2717 C2712 1.425 . S
C2717 C2714 1.409 . S
C2717 C2715 1.415 . S
C2718 H2708 0.930 . S
C2718 C2716 1.419 . S
C2718 C2719 1.362 . S
C2719 H2709 0.930 . S
C2719 C2712 1.409 . S
C2719 C2718 1.362 . S
H2720 C2726 0.930 . S
H2721 C2729 0.930 . S
H2722 C2730 0.930 . S
H2723 C2731 0.930 . S
H2724 C2734 0.930 . S
H2725 C2735 0.930 . S
C2726 H2720 0.930 . S
C2726 C2727 1.355 . S
C2726 C2728 1.415 . S
C2727 C2726 1.355 . S
C2727 C2729 1.419 . S
C2728 C2726 1.415 . S
C2728 C2733 1.425 . S
C2728 C2735 1.409 . S
C2729 H2721 0.930 . S
C2729 C2727 1.419 . S
C2729 C2730 1.362 . S
C2730 H2722 0.930 . S
C2730 C2729 1.362 . S
C2730 C2733 1.409 . S
C2731 H2723 0.930 . S
C2731 C2732 1.355 . S
C2731 C2733 1.415 . S
C2732 C2731 1.355 . S
C2732 C2734 1.419 . S
C2733 C2728 1.425 . S
C2733 C2730 1.409 . S
C2733 C2731 1.415 . S
C2734 H2724 0.930 . S
C2734 C2732 1.419 . S
C2734 C2735 1.362 . S
C2735 H2725 0.930 . S
C2735 C2728 1.409 . S
C2735 C2734 1.362 . S
H2736 C2742 0.930 . S
H2737 C2745 0.930 . S
H2738 C2746 0.930 . S
H2739 C2747 0.930 . S
H2740 C2750 0.930 . S
H2741 C2751 0.930 . S
C2742 H2736 0.930 . S
C2742 C2743 1.355 . S
C2742 C2744 1.415 . S
C2743 C2742 1.355 . S
C2743 C2745 1.419 . S
C2744 C2742 1.415 . S
C2744 C2749 1.425 . S
C2744 C2751 1.409 . S
C2745 H2737 0.930 . S
C2745 C2743 1.419 . S
C2745 C2746 1.362 . S
C2746 H2738 0.930 . S
C2746 C2745 1.362 . S
C2746 C2749 1.409 . S
C2747 H2739 0.930 . S
C2747 C2748 1.355 . S
C2747 C2749 1.415 . S
C2748 C2747 1.355 . S
C2748 C2750 1.419 . S
C2749 C2744 1.425 . S
C2749 C2746 1.409 . S
C2749 C2747 1.415 . S
C2750 H2740 0.930 . S
C2750 C2748 1.419 . S
C2750 C2751 1.362 . S
C2751 H2741 0.930 . S
C2751 C2744 1.409 . S
C2751 C2750 1.362 . S
H2752 C2758 0.930 . S
H2753 C2761 0.930 . S
H2754 C2762 0.930 . S
H2755 C2763 0.930 . S
H2756 C2766 0.930 . S
H2757 C2767 0.930 . S
C2758 H2752 0.930 . S
C2758 C2759 1.355 . S
C2758 C2760 1.415 . S
C2759 C2758 1.355 . S
C2759 C2761 1.419 . S
C2760 C2758 1.415 . S
C2760 C2765 1.425 . S
C2760 C2767 1.409 . S
C2761 H2753 0.930 . S
C2761 C2759 1.419 . S
C2761 C2762 1.362 . S
C2762 H2754 0.930 . S
C2762 C2761 1.362 . S
C2762 C2765 1.409 . S
C2763 H2755 0.930 . S
C2763 C2764 1.355 . S
C2763 C2765 1.415 . S
C2764 C2763 1.355 . S
C2764 C2766 1.419 . S
C2765 C2760 1.425 . S
C2765 C2762 1.409 . S
C2765 C2763 1.415 . S
C2766 H2756 0.930 . S
C2766 C2764 1.419 . S
C2766 C2767 1.362 . S
C2767 H2757 0.930 . S
C2767 C2760 1.409 . S
C2767 C2766 1.362 . S
H2768 C2774 0.930 . S
H2769 C2777 0.930 . S
H2770 C2778 0.930 . S
H2771 C2779 0.930 . S
H2772 C2782 0.930 . S
H2773 C2783 0.930 . S
C2774 H2768 0.930 . S
C2774 C2775 1.355 . S
C2774 C2776 1.415 . S
C2775 C2774 1.355 . S
C2775 C2777 1.419 . S
C2776 C2774 1.415 . S
C2776 C2781 1.425 . S
C2776 C2783 1.409 . S
C2777 H2769 0.930 . S
C2777 C2775 1.419 . S
C2777 C2778 1.362 . S
C2778 H2770 0.930 . S
C2778 C2777 1.362 . S
C2778 C2781 1.409 . S
C2779 H2771 0.930 . S
C2779 C2780 1.355 . S
C2779 C2781 1.415 . S
C2780 C2779 1.355 . S
C2780 C2782 1.419 . S
C2781 C2776 1.425 . S
C2781 C2778 1.409 . S
C2781 C2779 1.415 . S
C2782 H2772 0.930 . S
C2782 C2780 1.419 . S
C2782 C2783 1.362 . S
C2783 H2773 0.930 . S
C2783 C2776 1.409 . S
C2783 C2782 1.362 . S
H2784 C2790 0.930 . S
H2785 C2793 0.930 . S
H2786 C2794 0.930 . S
H2787 C2795 0.930 . S
H2788 C2798 0.930 . S
H2789 C2799 0.930 . S
C2790 H2784 0.930 . S
C2790 C2791 1.355 . S
C2790 C2792 1.415 . S
C2791 C2790 1.355 . S
C2791 C2793 1.419 . S
C2792 C2790 1.415 . S
C2792 C2797 1.425 . S
C2792 C2799 1.409 . S
C2793 H2785 0.930 . S
C2793 C2791 1.419 . S
C2793 C2794 1.362 . S
C2794 H2786 0.930 . S
C2794 C2793 1.362 . S
C2794 C2797 1.409 . S
C2795 H2787 0.930 . S
C2795 C2796 1.355 . S
C2795 C2797 1.415 . S
C2796 C2795 1.355 . S
C2796 C2798 1.419 . S
C2797 C2792 1.425 . S
C2797 C2794 1.409 . S
C2797 C2795 1.415 . S
C2798 H2788 0.930 . S
C2798 C2796 1.419 . S
C2798 C2799 1.362 . S
C2799 H2789 0.930 . S
C2799 C2792 1.409 . S
C2799 C2798 1.362 . S
H2800 C2806 0.930 . S
H2801 C2809 0.930 . S
H2802 C2810 0.930 . S
H2803 C2811 0.930 . S
H2804 C2814 0.930 . S
H2805 C2815 0.930 . S
C2806 H2800 0.930 . S
C2806 C2807 1.355 . S
C2806 C2808 1.415 . S
C2807 C2806 1.355 . S
C2807 C2809 1.419 . S
C2808 C2806 1.415 . S
C2808 C2813 1.425 . S
C2808 C2815 1.409 . S
C2809 H2801 0.930 . S
C2809 C2807 1.419 . S
C2809 C2810 1.362 . S
C2810 H2802 0.930 . S
C2810 C2809 1.362 . S
C2810 C2813 1.409 . S
C2811 H2803 0.930 . S
C2811 C2812 1.355 . S
C2811 C2813 1.415 . S
C2812 C2811 1.355 . S
C2812 C2814 1.419 . S
C2813 C2808 1.425 . S
C2813 C2810 1.409 . S
C2813 C2811 1.415 . S
C2814 H2804 0.930 . S
C2814 C2812 1.419 . S
C2814 C2815 1.362 . S
C2815 H2805 0.930 . S
C2815 C2808 1.409 . S
C2815 C2814 1.362 . S
H2816 C2822 0.930 . S
H2817 C2825 0.930 . S
H2818 C2826 0.930 . S
H2819 C2827 0.930 . S
H2820 C2830 0.930 . S
H2821 C2831 0.930 . S
C2822 H2816 0.930 . S
C2822 C2823 1.355 . S
C2822 C2824 1.415 . S
C2823 C2822 1.355 . S
C2823 C2825 1.419 . S
C2824 C2822 1.415 . S
C2824 C2829 1.425 . S
C2824 C2831 1.409 . S
C2825 H2817 0.930 . S
C2825 C2823 1.419 . S
C2825 C2826 1.362 . S
C2826 H2818 0.930 . S
C2826 C2825 1.362 . S
C2826 C2829 1.409 . S
C2827 H2819 0.930 . S
C2827 C2828 1.355 . S
C2827 C2829 1.415 . S
C2828 C2827 1.355 . S
C2828 C2830 1.419 . S
C2829 C2824 1.425 . S
C2829 C2826 1.409 . S
C2829 C2827 1.415 . S
C2830 H2820 0.930 . S
C2830 C2828 1.419 . S
C2830 C2831 1.362 . S
C2831 H2821 0.930 . S
C2831 C2824 1.409 . S
C2831 C2830 1.362 . S
H2832 C2838 0.930 . S
H2833 C2841 0.930 . S
H2834 C2842 0.930 . S
H2835 C2843 0.930 . S
H2836 C2846 0.930 . S
H2837 C2847 0.930 . S
C2838 H2832 0.930 . S
C2838 C2839 1.355 . S
C2838 C2840 1.415 . S
C2839 C2838 1.355 . S
C2839 C2841 1.419 . S
C2840 C2838 1.415 . S
C2840 C2845 1.425 . S
C2840 C2847 1.409 . S
C2841 H2833 0.930 . S
C2841 C2839 1.419 . S
C2841 C2842 1.362 . S
C2842 H2834 0.930 . S
C2842 C2841 1.362 . S
C2842 C2845 1.409 . S
C2843 H2835 0.930 . S
C2843 C2844 1.355 . S
C2843 C2845 1.415 . S
C2844 C2843 1.355 . S
C2844 C2846 1.419 . S
C2845 C2840 1.425 . S
C2845 C2842 1.409 . S
C2845 C2843 1.415 . S
C2846 H2836 0.930 . S
C2846 C2844 1.419 . S
C2846 C2847 1.362 . S
C2847 H2837 0.930 . S
C2847 C2840 1.409 . S
C2847 C2846 1.362 . S
H2848 C2854 0.930 . S
H2849 C2857 0.930 . S
H2850 C2858 0.930 . S
H2851 C2859 0.930 . S
H2852 C2862 0.930 . S
H2853 C2863 0.930 . S
C2854 H2848 0.930 . S
C2854 C2855 1.355 . S
C2854 C2856 1.415 . S
C2855 C2854 1.355 . S
C2855 C2857 1.419 . S
C2856 C2854 1.415 . S
C2856 C2861 1.425 . S
C2856 C2863 1.409 . S
C2857 H2849 0.930 . S
C2857 C2855 1.419 . S
C2857 C2858 1.362 . S
C2858 H2850 0.930 . S
C2858 C2857 1.362 . S
C2858 C2861 1.409 . S
C2859 H2851 0.930 . S
C2859 C2860 1.355 . S
C2859 C2861 1.415 . S
C2860 C2859 1.355 . S
C2860 C2862 1.419 . S
C2861 C2856 1.425 . S
C2861 C2858 1.409 . S
C2861 C2859 1.415 . S
C2862 H2852 0.930 . S
C2862 C2860 1.419 . S
C2862 C2863 1.362 . S
C2863 H2853 0.930 . S
C2863 C2856 1.409 . S
C2863 C2862 1.362 . S
H2864 C2870 0.930 . S
H2865 C2873 0.930 . S
H2866 C2874 0.930 . S
H2867 C2875 0.930 . S
H2868 C2878 0.930 . S
H2869 C2879 0.930 . S
C2870 H2864 0.930 . S
C2870 C2871 1.355 . S
C2870 C2872 1.415 . S
C2871 C2870 1.355 . S
C2871 C2873 1.419 . S
C2872 C2870 1.415 . S
C2872 C2877 1.425 . S
C2872 C2879 1.409 . S
C2873 H2865 0.930 . S
C2873 C2871 1.419 . S
C2873 C2874 1.362 . S
C2874 H2866 0.930 . S
C2874 C2873 1.362 . S
C2874 C2877 1.409 . S
C2875 H2867 0.930 . S
C2875 C2876 1.355 . S
C2875 C2877 1.415 . S
C2876 C2875 1.355 . S
C2876 C2878 1.419 . S
C2877 C2872 1.425 . S
C2877 C2874 1.409 . S
C2877 C2875 1.415 . S
C2878 H2868 0.930 . S
C2878 C2876 1.419 . S
C2878 C2879 1.362 . S
C2879 H2869 0.930 . S
C2879 C2872 1.409 . S
C2879 C2878 1.362 . S
H2880 C2886 0.930 . S
H2881 C2889 0.930 . S
H2882 C2890 0.930 . S
H2883 C2891 0.930 . S
H2884 C2894 0.930 . S
H2885 C2895 0.930 . S
C2886 H2880 0.930 . S
C2886 C2887 1.355 . S
C2886 C2888 1.415 . S
C2887 C2886 1.355 . S
C2887 C2889 1.419 . S
C2888 C2886 1.415 . S
C2888 C2893 1.425 . S
C2888 C2895 1.409 . S
C2889 H2881 0.930 . S
C2889 C2887 1.419 . S
C2889 C2890 1.362 . S
C2890 H2882 0.930 . S
C2890 C2889 1.362 . S
C2890 C2893 1.409 . S
C2891 H2883 0.930 . S
C2891 C2892 1.355 . S
C2891 C2893 1.415 . S
C2892 C2891 1.355 . S
C2892 C2894 1.419 . S
C2893 C2888 1.425 . S
C2893 C2890 1.409 . S
C2893 C2891 1.415 . S
C2894 H2884 0.930 . S
C2894 C2892 1.419 . S
C2894 C2895 1.362 . S
C2895 H2885 0.930 . S
C2895 C2888 1.409 . S
C2895 C2894 1.362 . S
H2896 C2902 0.930 . S
H2897 C2905 0.930 . S
H2898 C2906 0.930 . S
H2899 C2907 0.930 . S
H2900 C2910 0.930 . S
H2901 C2911 0.930 . S
C2902 H2896 0.930 . S
C2902 C2903 1.355 . S
C2902 C2904 1.415 . S
C2903 C2902 1.355 . S
C2903 C2905 1.419 . S
C2904 C2902 1.415 . S
C2904 C2909 1.425 . S
C2904 C2911 1.409 . S
C2905 H2897 0.930 . S
C2905 C2903 1.419 . S
C2905 C2906 1.362 . S
C2906 H2898 0.930 . S
C2906 C2905 1.362 . S
C2906 C2909 1.409 . S
C2907 H2899 0.930 . S
C2907 C2908 1.355 . S
C2907 C2909 1.415 . S
C2908 C2907 1.355 . S
C2908 C2910 1.419 . S
C2909 C2904 1.425 . S
C2909 C2906 1.409 . S
C2909 C2907 1.415 . S
C2910 H2900 0.930 . S
C2910 C2908 1.419 . S
C2910 C2911 1.362 . S
C2911 H2901 0.930 . S
C2911 C2904 1.409 . S
C2911 C2910 1.362 . S
H2912 C2918 0.930 . S
H2913 C2921 0.930 . S
H2914 C2922 0.930 . S
H2915 C2923 0.930 . S
H2916 C2926 0.930 . S
H2917 C2927 0.930 . S
C2918 H2912 0.930 . S
C2918 C2919 1.355 . S
C2918 C2920 1.415 . S
C2919 C2918 1.355 . S
C2919 C2921 1.419 . S
C2920 C2918 1.415 . S
C2920 C2925 1.425 . S
C2920 C2927 1.409 . S
C2921 H2913 0.930 . S
C2921 C2919 1.419 . S
C2921 C2922 1.362 . S
C2922 H2914 0.930 . S
C2922 C2921 1.362 . S
C2922 C2925 1.409 . S
C2923 H2915 0.930 . S
C2923 C2924 1.355 . S
C2923 C2925 1.415 . S
C2924 C2923 1.355 . S
C2924 C2926 1.419 . S
C2925 C2920 1.425 . S
C2925 C2922 1.409 . S
C2925 C2923 1.415 . S
C2926 H2916 0.930 . S
C2926 C2924 1.419 . S
C2926 C2927 1.362 . S
C2927 H2917 0.930 . S
C2927 C2920 1.409 . S
C2927 C2926 1.362 . S
H2928 C2934 0.930 . S
H2929 C2937 0.930 . S
H2930 C2938 0.930 . S
H2931 C2939 0.930 . S
H2932 C2942 0.930 . S
H2933 C2943 0.930 . S
C2934 H2928 0.930 . S
C2934 C2935 1.355 . S
C2934 C2936 1.415 . S
C2935 C2934 1.355 . S
C2935 C2937 1.419 . S
C2936 C2934 1.415 . S
C2936 C2941 1.425 . S
C2936 C2943 1.409 . S
C2937 H2929 0.930 . S
C2937 C2935 1.419 . S
C2937 C2938 1.362 . S
C2938 H2930 0.930 . S
C2938 C2937 1.362 . S
C2938 C2941 1.409 . S
C2939 H2931 0.930 . S
C2939 C2940 1.355 . S
C2939 C2941 1.415 . S
C2940 C2939 1.355 . S
C2940 C2942 1.419 . S
C2941 C2936 1.425 . S
C2941 C2938 1.409 . S
C2941 C2939 1.415 . S
C2942 H2932 0.930 . S
C2942 C2940 1.419 . S
C2942 C2943 1.362 . S
C2943 H2933 0.930 . S
C2943 C2936 1.409 . S
C2943 C2942 1.362 . S
H2944 C2950 0.930 . S
H2945 C2953 0.930 . S
H2946 C2954 0.930 . S
H2947 C2955 0.930 . S
H2948 C2958 0.930 . S
H2949 C2959 0.930 . S
C2950 H2944 0.930 . S
C2950 C2951 1.355 . S
C2950 C2952 1.415 . S
C2951 C2950 1.355 . S
C2951 C2953 1.419 . S
C2952 C2950 1.415 . S
C2952 C2957 1.425 . S
C2952 C2959 1.409 . S
C2953 H2945 0.930 . S
C2953 C2951 1.419 . S
C2953 C2954 1.362 . S
C2954 H2946 0.930 . S
C2954 C2953 1.362 . S
C2954 C2957 1.409 . S
C2955 H2947 0.930 . S
C2955 C2956 1.355 . S
C2955 C2957 1.415 . S
C2956 C2955 1.355 . S
C2956 C2958 1.419 . S
C2957 C2952 1.425 . S
C2957 C2954 1.409 . S
C2957 C2955 1.415 . S
C2958 H2948 0.930 . S
C2958 C2956 1.419 . S
C2958 C2959 1.362 . S
C2959 H2949 0.930 . S
C2959 C2952 1.409 . S
C2959 C2958 1.362 . S
H2960 C2966 0.930 . S
H2961 C2969 0.930 . S
H2962 C2970 0.930 . S
H2963 C2971 0.930 . S
H2964 C2974 0.930 . S
H2965 C2975 0.930 . S
C2966 H2960 0.930 . S
C2966 C2967 1.355 . S
C2966 C2968 1.415 . S
C2967 C2966 1.355 . S
C2967 C2969 1.419 . S
C2968 C2966 1.415 . S
C2968 C2973 1.425 . S
C2968 C2975 1.409 . S
C2969 H2961 0.930 . S
C2969 C2967 1.419 . S
C2969 C2970 1.362 . S
C2970 H2962 0.930 . S
C2970 C2969 1.362 . S
C2970 C2973 1.409 . S
C2971 H2963 0.930 . S
C2971 C2972 1.355 . S
C2971 C2973 1.415 . S
C2972 C2971 1.355 . S
C2972 C2974 1.419 . S
C2973 C2968 1.425 . S
C2973 C2970 1.409 . S
C2973 C2971 1.415 . S
C2974 H2964 0.930 . S
C2974 C2972 1.419 . S
C2974 C2975 1.362 . S
C2975 H2965 0.930 . S
C2975 C2968 1.409 . S
C2975 C2974 1.362 . S
H2976 C2982 0.930 . S
H2977 C2985 0.930 . S
H2978 C2986 0.930 . S
H2979 C2987 0.930 . S
H2980 C2990 0.930 . S
H2981 C2991 0.930 . S
C2982 H2976 0.930 . S
C2982 C2983 1.355 . S
C2982 C2984 1.415 . S
C2983 C2982 1.355 . S
C2983 C2985 1.419 . S
C2984 C2982 1.415 . S
C2984 C2989 1.425 . S
C2984 C2991 1.409 . S
C2985 H2977 0.930 . S
C2985 C2983 1.419 . S
C2985 C2986 1.362 . S
C2986 H2978 0.930 . S
C2986 C2985 1.362 . S
C2986 C2989 1.409 . S
C2987 H2979 0.930 . S
C2987 C2988 1.355 . S
C2987 C2989 1.415 . S
C2988 C2987 1.355 . S
C2988 C2990 1.419 . S
C2989 C2984 1.425 . S
C2989 C2986 1.409 . S
C2989 C2987 1.415 . S
C2990 H2980 0.930 . S
C2990 C2988 1.419 . S
C2990 C2991 1.362 . S
C2991 H2981 0.930 . S
C2991 C2984 1.409 . S
C2991 C2990 1.362 . S
H2992 C2998 0.930 . S
H2993 C3001 0.930 . S
H2994 C3002 0.930 . S
H2995 C3003 0.930 . S
H2996 C3006 0.930 . S
H2997 C3007 0.930 . S
C2998 H2992 0.930 . S
C2998 C2999 1.355 . S
C2998 C3000 1.415 . S
C2999 C2998 1.355 . S
C2999 C3001 1.419 . S
C3000 C2998 1.415 . S
C3000 C3005 1.425 . S
C3000 C3007 1.409 . S
C3001 H2993 0.930 . S
C3001 C2999 1.419 . S
C3001 C3002 1.362 . S
C3002 H2994 0.930 . S
C3002 C3001 1.362 . S
C3002 C3005 1.409 . S
C3003 H2995 0.930 . S
C3003 C3004 1.355 . S
C3003 C3005 1.415 . S
C3004 C3003 1.355 . S
C3004 C3006 1.419 . S
C3005 C3000 1.425 . S
C3005 C3002 1.409 . S
C3005 C3003 1.415 . S
C3006 H2996 0.930 . S
C3006 C3004 1.419 . S
C3006 C3007 1.362 . S
C3007 H2997 0.930 . S
C3007 C3000 1.409 . S
C3007 C3006 1.362 . S
H3008 C3014 0.930 . S
H3009 C3017 0.930 . S
H3010 C3018 0.930 . S
H3011 C3019 0.930 . S
H3012 C3022 0.930 . S
H3013 C3023 0.930 . S
C3014 H3008 0.930 . S
C3014 C3015 1.355 . S
C3014 C3016 1.415 . S
C3015 C3014 1.355 . S
C3015 C3017 1.419 . S
C3016 C3014 1.415 . S
C3016 C3021 1.425 . S
C3016 C3023 1.409 . S
C3017 H3009 0.930 . S
C3017 C3015 1.419 . S
C3017 C3018 1.362 . S
C3018 H3010 0.930 . S
C3018 C3017 1.362 . S
C3018 C3021 1.409 . S
C3019 H3011 0.930 . S
C3019 C3020 1.355 . S
C3019 C3021 1.415 . S
C3020 C3019 1.355 . S
C3020 C3022 1.419 . S
C3021 C3016 1.425 . S
C3021 C3018 1.409 . S
C3021 C3019 1.415 . S
C3022 H3012 0.930 . S
C3022 C3020 1.419 . S
C3022 C3023 1.362 . S
C3023 H3013 0.930 . S
C3023 C3016 1.409 . S
C3023 C3022 1.362 . S
H3024 C3030 0.930 . S
H3025 C3033 0.930 . S
H3026 C3034 0.930 . S
H3027 C3035 0.930 . S
H3028 C3038 0.930 . S
H3029 C3039 0.930 . S
C3030 H3024 0.930 . S
C3030 C3031 1.355 . S
C3030 C3032 1.415 . S
C3031 C3030 1.355 . S
C3031 C3033 1.419 . S
C3032 C3030 1.415 . S
C3032 C3037 1.425 . S
C3032 C3039 1.409 . S
C3033 H3025 0.930 . S
C3033 C3031 1.419 . S
C3033 C3034 1.362 . S
C3034 H3026 0.930 . S
C3034 C3033 1.362 . S
C3034 C3037 1.409 . S
C3035 H3027 0.930 . S
C3035 C3036 1.355 . S
C3035 C3037 1.415 . S
C3036 C3035 1.355 . S
C3036 C3038 1.419 . S
C3037 C3032 1.425 . S
C3037 C3034 1.409 . S
C3037 C3035 1.415 . S
C3038 H3028 0.930 . S
C3038 C3036 1.419 . S
C3038 C3039 1.362 . S
C3039 H3029 0.930 . S
C3039 C3032 1.409 . S
C3039 C3038 1.362 . S
H3040 C3046 0.930 . S
H3041 C3049 0.930 . S
H3042 C3050 0.930 . S
H3043 C3051 0.930 . S
H3044 C3054 0.930 . S
H3045 C3055 0.930 . S
C3046 H3040 0.930 . S
C3046 C3047 1.355 . S
C3046 C3048 1.415 . S
C3047 C3046 1.355 . S
C3047 C3049 1.419 . S
C3048 C3046 1.415 . S
C3048 C3053 1.425 . S
C3048 C3055 1.409 . S
C3049 H3041 0.930 . S
C3049 C3047 1.419 . S
C3049 C3050 1.362 . S
C3050 H3042 0.930 . S
C3050 C3049 1.362 . S
C3050 C3053 1.409 . S
C3051 H3043 0.930 . S
C3051 C3052 1.355 . S
C3051 C3053 1.415 . S
C3052 C3051 1.355 . S
C3052 C3054 1.419 . S
C3053 C3048 1.425 . S
C3053 C3050 1.409 . S
C3053 C3051 1.415 . S
C3054 H3044 0.930 . S
C3054 C3052 1.419 . S
C3054 C3055 1.362 . S
C3055 H3045 0.930 . S
C3055 C3048 1.409 . S
C3055 C3054 1.362 . S
H3056 C3062 0.930 . S
H3057 C3065 0.930 . S
H3058 C3066 0.930 . S
H3059 C3067 0.930 . S
H3060 C3070 0.930 . S
H3061 C3071 0.930 . S
C3062 H3056 0.930 . S
C3062 C3063 1.355 . S
C3062 C3064 1.415 . S
C3063 C3062 1.355 . S
C3063 C3065 1.419 . S
C3064 C3062 1.415 . S
C3064 C3069 1.425 . S
C3064 C3071 1.409 . S
C3065 H3057 0.930 . S
C3065 C3063 1.419 . S
C3065 C3066 1.362 . S
C3066 H3058 0.930 . S
C3066 C3065 1.362 . S
C3066 C3069 1.409 . S
C3067 H3059 0.930 . S
C3067 C3068 1.355 . S
C3067 C3069 1.415 . S
C3068 C3067 1.355 . S
C3068 C3070 1.419 . S
C3069 C3064 1.425 . S
C3069 C3066 1.409 . S
C3069 C3067 1.415 . S
C3070 H3060 0.930 . S
C3070 C3068 1.419 . S
C3070 C3071 1.362 . S
C3071 H3061 0.930 . S
C3071 C3064 1.409 . S
C3071 C3070 1.362 . S
H3072 C3078 0.930 . S
H3073 C3081 0.930 . S
H3074 C3082 0.930 . S
H3075 C3083 0.930 . S
H3076 C3086 0.930 . S
H3077 C3087 0.930 . S
C3078 H3072 0.930 . S
C3078 C3079 1.355 . S
C3078 C3080 1.415 . S
C3079 C3078 1.355 . S
C3079 C3081 1.419 . S
C3080 C3078 1.415 . S
C3080 C3085 1.425 . S
C3080 C3087 1.409 . S
C3081 H3073 0.930 . S
C3081 C3079 1.419 . S
C3081 C3082 1.362 . S
C3082 H3074 0.930 . S
C3082 C3081 1.362 . S
C3082 C3085 1.409 . S
C3083 H3075 0.930 . S
C3083 C3084 1.355 . S
C3083 C3085 1.415 . S
C3084 C3083 1.355 . S
C3084 C3086 1.419 . S
C3085 C3080 1.425 . S
C3085 C3082 1.409 . S
C3085 C3083 1.415 . S
C3086 H3076 0.930 . S
C3086 C3084 1.419 . S
C3086 C3087 1.362 . S
C3087 H3077 0.930 . S
C3087 C3080 1.409 . S
C3087 C3086 1.362 . S
H3088 C3094 0.930 . S
H3089 C3097 0.930 . S
H3090 C3098 0.930 . S
H3091 C3099 0.930 . S
H3092 C3102 0.930 . S
H3093 C3103 0.930 . S
C3094 H3088 0.930 . S
C3094 C3095 1.355 . S
C3094 C3096 1.415 . S
C3095 C3094 1.355 . S
C3095 C3097 1.419 . S
C3096 C3094 1.415 . S
C3096 C3101 1.425 . S
C3096 C3103 1.409 . S
C3097 H3089 0.930 . S
C3097 C3095 1.419 . S
C3097 C3098 1.362 . S
C3098 H3090 0.930 . S
C3098 C3097 1.362 . S
C3098 C3101 1.409 . S
C3099 H3091 0.930 . S
C3099 C3100 1.355 . S
C3099 C3101 1.415 . S
C3100 C3099 1.355 . S
C3100 C3102 1.419 . S
C3101 C3096 1.425 . S
C3101 C3098 1.409 . S
C3101 C3099 1.415 . S
C3102 H3092 0.930 . S
C3102 C3100 1.419 . S
C3102 C3103 1.362 . S
C3103 H3093 0.930 . S
C3103 C3096 1.409 . S
C3103 C3102 1.362 . S
H3104 C3110 0.930 . S
H3105 C3113 0.930 . S
H3106 C3114 0.930 . S
H3107 C3115 0.930 . S
H3108 C3118 0.930 . S
H3109 C3119 0.930 . S
C3110 H3104 0.930 . S
C3110 C3111 1.355 . S
C3110 C3112 1.415 . S
C3111 C3110 1.355 . S
C3111 C3113 1.419 . S
C3112 C3110 1.415 . S
C3112 C3117 1.425 . S
C3112 C3119 1.409 . S
C3113 H3105 0.930 . S
C3113 C3111 1.419 . S
C3113 C3114 1.362 . S
C3114 H3106 0.930 . S
C3114 C3113 1.362 . S
C3114 C3117 1.409 . S
C3115 H3107 0.930 . S
C3115 C3116 1.355 . S
C3115 C3117 1.415 . S
C3116 C3115 1.355 . S
C3116 C3118 1.419 . S
C3117 C3112 1.425 . S
C3117 C3114 1.409 . S
C3117 C3115 1.415 . S
C3118 H3108 0.930 . S
C3118 C3116 1.419 . S
C3118 C3119 1.362 . S
C3119 H3109 0.930 . S
C3119 C3112 1.409 . S
C3119 C3118 1.362 . S
H3120 C3126 0.930 . S
H3121 C3129 0.930 . S
H3122 C3130 0.930 . S
H3123 C3131 0.930 . S
H3124 C3134 0.930 . S
H3125 C3135 0.930 . S
C3126 H3120 0.930 . S
C3126 C3127 1.355 . S
C3126 C3128 1.415 . S
C3127 C3126 1.355 . S
C3127 C3129 1.419 . S
C3128 C3126 1.415 . S
C3128 C3133 1.425 . S
C3128 C3135 1.409 . S
C3129 H3121 0.930 . S
C3129 C3127 1.419 . S
C3129 C3130 1.362 . S
C3130 H3122 0.930 . S
C3130 C3129 1.362 . S
C3130 C3133 1.409 . S
C3131 H3123 0.930 . S
C3131 C3132 1.355 . S
C3131 C3133 1.415 . S
C3132 C3131 1.355 . S
C3132 C3134 1.419 . S
C3133 C3128 1.425 . S
C3133 C3130 1.409 . S
C3133 C3131 1.415 . S
C3134 H3124 0.930 . S
C3134 C3132 1.419 . S
C3134 C3135 1.362 . S
C3135 H3125 0.930 . S
C3135 C3128 1.409 . S
C3135 C3134 1.362 . S
H3136 C3142 0.930 . S
H3137 C3145 0.930 . S
H3138 C3146 0.930 . S
H3139 C3147 0.930 . S
H3140 C3150 0.930 . S
H3141 C3151 0.930 . S
C3142 H3136 0.930 . S
C3142 C3143 1.355 . S
C3142 C3144 1.415 . S
C3143 C3142 1.355 . S
C3143 C3145 1.419 . S
C3144 C3142 1.415 . S
C3144 C3149 1.425 . S
C3144 C3151 1.409 . S
C3145 H3137 0.930 . S
C3145 C3143 1.419 . S
C3145 C3146 1.362 . S
C3146 H3138 0.930 . S
C3146 C3145 1.362 . S
C3146 C3149 1.409 . S
C3147 H3139 0.930 . S
C3147 C3148 1.355 . S
C3147 C3149 1.415 . S
C3148 C3147 1.355 . S
C3148 C3150 1.419 . S
C3149 C3144 1.425 . S
C3149 C3146 1.409 . S
C3149 C3147 1.415 . S
C3150 H3140 0.930 . S
C3150 C3148 1.419 . S
C3150 C3151 1.362 . S
C3151 H3141 0.930 . S
C3151 C3144 1.409 . S
C3151 C3150 1.362 . S
H3152 C3158 0.930 . S
H3153 C3161 0.930 . S
H3154 C3162 0.930 . S
H3155 C3163 0.930 . S
H3156 C3166 0.930 . S
H3157 C3167 0.930 . S
C3158 H3152 0.930 . S
C3158 C3159 1.355 . S
C3158 C3160 1.415 . S
C3159 C3158 1.355 . S
C3159 C3161 1.419 . S
C3160 C3158 1.415 . S
C3160 C3165 1.425 . S
C3160 C3167 1.409 . S
C3161 H3153 0.930 . S
C3161 C3159 1.419 . S
C3161 C3162 1.362 . S
C3162 H3154 0.930 . S
C3162 C3161 1.362 . S
C3162 C3165 1.409 . S
C3163 H3155 0.930 . S
C3163 C3164 1.355 . S
C3163 C3165 1.415 . S
C3164 C3163 1.355 . S
C3164 C3166 1.419 . S
C3165 C3160 1.425 . S
C3165 C3162 1.409 . S
C3165 C3163 1.415 . S
C3166 H3156 0.930 . S
C3166 C3164 1.419 . S
C3166 C3167 1.362 . S
C3167 H3157 0.930 . S
C3167 C3160 1.409 . S
C3167 C3166 1.362 . S
H3168 C3174 0.930 . S
H3169 C3177 0.930 . S
H3170 C3178 0.930 . S
H3171 C3179 0.930 . S
H3172 C3182 0.930 . S
H3173 C3183 0.930 . S
C3174 H3168 0.930 . S
C3174 C3175 1.355 1_455 S
C3174 C3176 1.415 . S
C3175 C3174 1.355 1_655 S
C3175 C3177 1.419 1_565 S
C3176 C3174 1.415 . S
C3176 C3181 1.425 1_465 S
C3176 C3183 1.409 . S
C3177 H3169 0.930 . S
C3177 C3175 1.419 1_545 S
C3177 C3178 1.362 . S
C3178 H3170 0.930 . S
C3178 C3177 1.362 . S
C3178 C3181 1.409 . S
C3179 H3171 0.930 . S
C3179 C3180 1.355 . S
C3179 C3181 1.415 . S
C3180 C3179 1.355 . S
C3180 C3182 1.419 1_645 S
C3181 C3176 1.425 1_645 S
C3181 C3178 1.409 . S
C3181 C3179 1.415 . S
C3182 H3172 0.930 . S
C3182 C3180 1.419 1_465 S
C3182 C3183 1.362 . S
C3183 H3173 0.930 . S
C3183 C3176 1.409 . S
C3183 C3182 1.362 . S
H3184 C3190 0.930 . S
H3185 C3193 0.930 . S
H3186 C3194 0.930 . S
H3187 C3195 0.930 . S
H3188 C3198 0.930 . S
H3189 C3199 0.930 . S
C3190 H3184 0.930 . S
C3190 C3191 1.355 . S
C3190 C3192 1.415 . S
C3191 C3190 1.355 . S
C3191 C3193 1.419 . S
C3192 C3190 1.415 . S
C3192 C3197 1.425 . S
C3192 C3199 1.409 . S
C3193 H3185 0.930 . S
C3193 C3191 1.419 . S
C3193 C3194 1.362 . S
C3194 H3186 0.930 . S
C3194 C3193 1.362 . S
C3194 C3197 1.409 . S
C3195 H3187 0.930 . S
C3195 C3196 1.355 . S
C3195 C3197 1.415 . S
C3196 C3195 1.355 . S
C3196 C3198 1.419 . S
C3197 C3192 1.425 . S
C3197 C3194 1.409 . S
C3197 C3195 1.415 . S
C3198 H3188 0.930 . S
C3198 C3196 1.419 . S
C3198 C3199 1.362 . S
C3199 H3189 0.930 . S
C3199 C3192 1.409 . S
C3199 C3198 1.362 . S
H3200 C3206 0.930 . S
H3201 C3209 0.930 . S
H3202 C3210 0.930 . S
H3203 C3211 0.930 . S
H3204 C3214 0.930 . S
H3205 C3215 0.930 . S
C3206 H3200 0.930 . S
C3206 C3207 1.355 . S
C3206 C3208 1.415 . S
C3207 C3206 1.355 . S
C3207 C3209 1.419 1_545 S
C3208 C3206 1.415 . S
C3208 C3213 1.425 1_545 S
C3208 C3215 1.409 . S
C3209 H3201 0.930 . S
C3209 C3207 1.419 1_565 S
C3209 C3210 1.362 . S
C3210 H3202 0.930 . S
C3210 C3209 1.362 . S
C3210 C3213 1.409 . S
C3211 H3203 0.930 . S
C3211 C3212 1.355 . S
C3211 C3213 1.415 . S
C3212 C3211 1.355 . S
C3212 C3214 1.419 1_565 S
C3213 C3208 1.425 1_565 S
C3213 C3210 1.409 . S
C3213 C3211 1.415 . S
C3214 H3204 0.930 . S
C3214 C3212 1.419 1_545 S
C3214 C3215 1.362 . S
C3215 H3205 0.930 . S
C3215 C3208 1.409 . S
C3215 C3214 1.362 . S
H3216 C3222 0.930 . S
H3217 C3225 0.930 . S
H3218 C3226 0.930 . S
H3219 C3227 0.930 . S
H3220 C3230 0.930 . S
H3221 C3231 0.930 . S
C3222 H3216 0.930 . S
C3222 C3223 1.355 . S
C3222 C3224 1.415 . S
C3223 C3222 1.355 . S
C3223 C3225 1.419 . S
C3224 C3222 1.415 . S
C3224 C3229 1.422 1_556 S
C3224 C3231 1.409 1_556 S
C3225 H3217 0.930 . S
C3225 C3223 1.419 . S
C3225 C3226 1.362 . S
C3226 H3218 0.930 . S
C3226 C3225 1.362 . S
C3226 C3229 1.391 1_556 S
C3227 H3219 0.930 . S
C3227 C3228 1.355 . S
C3227 C3229 1.437 . S
C3228 C3227 1.355 . S
C3228 C3230 1.419 . S
C3229 C3224 1.422 1_554 S
C3229 C3226 1.391 1_554 S
C3229 C3227 1.437 . S
C3230 H3220 0.930 . S
C3230 C3228 1.419 . S
C3230 C3231 1.362 . S
C3231 H3221 0.930 . S
C3231 C3224 1.409 1_554 S
C3231 C3230 1.362 . S
H3232 C3238 0.929 . S
H3233 C3241 0.930 . S
H3234 C3242 0.930 . S
H3235 C3243 0.930 . S
H3236 C3246 0.930 . S
H3237 C3247 0.930 . S
C3238 H3232 0.929 . S
C3238 C3239 1.355 1_545 S
C3238 C3240 1.415 1_545 S
C3239 C3238 1.355 1_565 S
C3239 C3241 1.419 1_556 S
C3240 C3238 1.415 1_565 S
C3240 C3245 1.425 1_556 S
C3240 C3247 1.409 1_565 S
C3241 H3233 0.930 . S
C3241 C3239 1.419 1_554 S
C3241 C3242 1.362 . S
C3242 H3234 0.930 . S
C3242 C3241 1.362 . S
C3242 C3245 1.409 . S
C3243 H3235 0.930 . S
C3243 C3244 1.355 . S
C3243 C3245 1.415 . S
C3244 C3243 1.355 . S
C3244 C3246 1.419 1_564 S
C3245 C3240 1.425 1_554 S
C3245 C3242 1.409 . S
C3245 C3243 1.415 . S
C3246 H3236 0.930 . S
C3246 C3244 1.419 1_546 S
C3246 C3247 1.362 . S
C3247 H3237 0.930 . S
C3247 C3240 1.409 1_545 S
C3247 C3246 1.362 . S
H3248 C3254 0.930 . S
H3249 C3257 0.930 . S
H3250 C3258 0.930 . S
H3251 C3259 0.930 . S
H3252 C3262 0.930 . S
H3253 C3263 0.930 . S
C3254 H3248 0.930 . S
C3254 C3255 1.355 . S
C3254 C3256 1.415 1_545 S
C3255 C3254 1.355 . S
C3255 C3257 1.419 . S
C3256 C3254 1.415 1_565 S
C3256 C3261 1.425 . S
C3256 C3263 1.409 . S
C3257 H3249 0.930 . S
C3257 C3255 1.419 . S
C3257 C3258 1.362 . S
C3258 H3250 0.930 . S
C3258 C3257 1.362 . S
C3258 C3261 1.409 1_545 S
C3259 H3251 0.930 . S
C3259 C3260 1.355 . S
C3259 C3261 1.415 . S
C3260 C3259 1.355 . S
C3260 C3262 1.419 . S
C3261 C3256 1.425 . S
C3261 C3258 1.409 1_565 S
C3261 C3259 1.415 . S
C3262 H3252 0.930 . S
C3262 C3260 1.419 . S
C3262 C3263 1.362 . S
C3263 H3253 0.930 . S
C3263 C3256 1.409 . S
C3263 C3262 1.362 . S
H3264 C3270 0.930 . S
H3265 C3273 0.930 . S
H3266 C3274 0.930 . S
H3267 C3275 0.930 . S
H3268 C3278 0.930 . S
H3269 C3279 0.930 . S
C3270 H3264 0.930 . S
C3270 C3271 1.355 1_565 S
C3270 C3272 1.415 . S
C3271 C3270 1.355 1_545 S
C3271 C3273 1.419 . S
C3272 C3270 1.415 . S
C3272 C3277 1.425 1_565 S
C3272 C3279 1.409 . S
C3273 H3265 0.930 . S
C3273 C3271 1.419 . S
C3273 C3274 1.362 . S
C3274 H3266 0.930 . S
C3274 C3273 1.362 . S
C3274 C3277 1.409 . S
C3275 H3267 0.930 . S
C3275 C3276 1.355 1_545 S
C3275 C3277 1.415 . S
C3276 C3275 1.355 1_565 S
C3276 C3278 1.419 . S
C3277 C3272 1.425 1_545 S
C3277 C3274 1.409 . S
C3277 C3275 1.415 . S
C3278 H3268 0.930 . S
C3278 C3276 1.419 . S
C3278 C3279 1.362 . S
C3279 H3269 0.930 . S
C3279 C3272 1.409 . S
C3279 C3278 1.362 . S
H3280 C3286 0.930 . S
H3281 C3289 0.930 . S
H3282 C3290 0.930 . S
H3283 C3291 0.930 . S
H3284 C3294 0.930 . S
H3285 C3295 0.930 . S
C3286 H3280 0.930 . S
C3286 C3287 1.355 . S
C3286 C3288 1.415 . S
C3287 C3286 1.355 . S
C3287 C3289 1.419 . S
C3288 C3286 1.415 . S
C3288 C3293 1.425 1_545 S
C3288 C3295 1.409 . S
C3289 H3281 0.930 . S
C3289 C3287 1.419 . S
C3289 C3290 1.362 1_545 S
C3290 H3282 0.930 . S
C3290 C3289 1.362 1_565 S
C3290 C3293 1.409 . S
C3291 H3283 0.930 . S
C3291 C3292 1.355 . S
C3291 C3293 1.415 . S
C3292 C3291 1.355 . S
C3292 C3294 1.419 . S
C3293 C3288 1.425 1_565 S
C3293 C3290 1.409 . S
C3293 C3291 1.415 . S
C3294 H3284 0.930 . S
C3294 C3292 1.419 . S
C3294 C3295 1.363 1_565 S
C3295 H3285 0.930 . S
C3295 C3288 1.409 . S
C3295 C3294 1.363 1_545 S
H3296 C3302 0.930 . S
H3297 C3305 0.930 . S
H3298 C3306 0.930 . S
H3299 C3307 0.930 . S
H3300 C3310 0.930 . S
H3301 C3311 0.930 . S
C3302 H3296 0.930 . S
C3302 C3303 1.355 . S
C3302 C3304 1.415 . S
C3303 C3302 1.355 . S
C3303 C3305 1.419 1_456 S
C3304 C3302 1.415 . S
C3304 C3309 1.425 1_456 S
C3304 C3311 1.409 . S
C3305 H3297 0.930 . S
C3305 C3303 1.419 1_654 S
C3305 C3306 1.362 . S
C3306 H3298 0.930 . S
C3306 C3305 1.362 . S
C3306 C3309 1.409 . S
C3307 H3299 0.930 . S
C3307 C3308 1.355 1_554 S
C3307 C3309 1.415 . S
C3308 C3307 1.355 1_556 S
C3308 C3310 1.419 1_655 S
C3309 C3304 1.425 1_654 S
C3309 C3306 1.409 . S
C3309 C3307 1.415 . S
C3310 H3300 0.930 . S
C3310 C3308 1.419 1_455 S
C3310 C3311 1.362 . S
C3311 H3301 0.930 . S
C3311 C3304 1.409 . S
C3311 C3310 1.362 . S
H3312 C3318 0.930 . S
H3313 C3321 0.930 . S
H3314 C3322 0.930 . S
H3315 C3323 0.930 . S
H3316 C3326 0.930 . S
H3317 C3327 0.930 . S
C3318 H3312 0.930 . S
C3318 C3319 1.355 1_554 S
C3318 C3320 1.415 . S
C3319 C3318 1.355 1_556 S
C3319 C3321 1.419 . S
C3320 C3318 1.415 . S
C3320 C3325 1.425 1_554 S
C3320 C3327 1.409 . S
C3321 H3313 0.930 . S
C3321 C3319 1.419 . S
C3321 C3322 1.362 . S
C3322 H3314 0.930 . S
C3322 C3321 1.362 . S
C3322 C3325 1.409 . S
C3323 H3315 0.930 . S
C3323 C3324 1.355 1_556 S
C3323 C3325 1.415 . S
C3324 C3323 1.355 1_554 S
C3324 C3326 1.419 . S
C3325 C3320 1.425 1_556 S
C3325 C3322 1.409 . S
C3325 C3323 1.415 . S
C3326 H3316 0.930 . S
C3326 C3324 1.419 . S
C3326 C3327 1.362 . S
C3327 H3317 0.930 . S
C3327 C3320 1.409 . S
C3327 C3326 1.362 . S
H3328 C3334 0.930 . S
H3329 C3337 0.930 . S
H3330 C3338 0.930 . S
H3331 C3339 0.930 . S
H3332 C3342 0.930 . S
H3333 C3343 0.930 . S
C3334 H3328 0.930 . S
C3334 C3335 1.355 . S
C3334 C3336 1.413 . S
C3335 C3334 1.355 . S
C3335 C3337 1.419 . S
C3336 C3334 1.413 . S
C3336 C3341 1.425 . S
C3336 C3343 1.410 1_655 S
C3337 H3329 0.930 . S
C3337 C3335 1.419 . S
C3337 C3338 1.362 . S
C3338 H3330 0.930 . S
C3338 C3337 1.362 . S
C3338 C3341 1.409 . S
C3339 H3331 0.930 . S
C3339 C3340 1.355 . S
C3339 C3341 1.415 1_455 S
C3340 C3339 1.355 . S
C3340 C3342 1.419 . S
C3341 C3336 1.425 . S
C3341 C3338 1.409 . S
C3341 C3339 1.415 1_655 S
C3342 H3332 0.930 . S
C3342 C3340 1.419 . S
C3342 C3343 1.362 . S
C3343 H3333 0.930 . S
C3343 C3336 1.410 1_455 S
C3343 C3342 1.362 . S
H3344 C3350 0.930 . S
H3345 C3353 0.930 . S
H3346 C3354 0.930 . S
H3347 C3355 0.956 . S
H3348 C3358 0.930 . S
H3349 C3359 0.930 . S
C3350 H3344 0.930 . S
C3350 C3351 1.355 1_655 S
C3350 C3352 1.415 . S
C3351 C3350 1.355 1_455 S
C3351 C3353 1.419 . S
C3352 C3350 1.415 . S
C3352 C3357 1.425 1_655 S
C3352 C3359 1.409 . S
C3353 H3345 0.930 . S
C3353 C3351 1.419 . S
C3353 C3354 1.362 . S
C3354 H3346 0.930 . S
C3354 C3353 1.362 . S
C3354 C3357 1.409 . S
C3355 H3347 0.956 . S
C3355 C3356 1.319 1_455 S
C3355 C3357 1.425 . S
C3356 C3355 1.319 1_655 S
C3356 C3358 1.419 . S
C3357 C3352 1.425 1_455 S
C3357 C3354 1.409 . S
C3357 C3355 1.425 . S
C3358 H3348 0.930 . S
C3358 C3356 1.419 . S
C3358 C3359 1.362 . S
C3359 H3349 0.930 . S
C3359 C3352 1.409 . S
C3359 C3358 1.362 . S
H3360 C3366 0.930 . S
H3361 C3369 0.930 . S
H3362 C3370 0.930 . S
H3363 C3371 0.930 . S
H3364 C3374 0.930 . S
H3365 C3375 0.930 . S
C3366 H3360 0.930 . S
C3366 C3367 1.355 . S
C3366 C3368 1.415 . S
C3367 C3366 1.355 . S
C3367 C3369 1.419 . S
C3368 C3366 1.415 . S
C3368 C3373 1.425 . S
C3368 C3375 1.409 . S
C3369 H3361 0.930 . S
C3369 C3367 1.419 . S
C3369 C3370 1.362 . S
C3370 H3362 0.930 . S
C3370 C3369 1.362 . S
C3370 C3373 1.409 . S
C3371 H3363 0.930 . S
C3371 C3372 1.355 . S
C3371 C3373 1.415 . S
C3372 C3371 1.355 . S
C3372 C3374 1.419 . S
C3373 C3368 1.425 . S
C3373 C3370 1.409 . S
C3373 C3371 1.415 . S
C3374 H3364 0.930 . S
C3374 C3372 1.419 . S
C3374 C3375 1.362 . S
C3375 H3365 0.930 . S
C3375 C3368 1.409 . S
C3375 C3374 1.362 . S
H3376 C3382 0.930 . S
H3377 C3385 0.930 . S
H3378 C3386 0.930 . S
H3379 C3387 0.930 . S
H3380 C3390 0.930 . S
H3381 C3391 0.931 . S
C3382 H3376 0.930 . S
C3382 C3383 1.355 . S
C3382 C3384 1.415 . S
C3383 C3382 1.355 . S
C3383 C3385 1.419 . S
C3384 C3382 1.415 . S
C3384 C3389 1.425 1_455 S
C3384 C3391 1.410 . S
C3385 H3377 0.930 . S
C3385 C3383 1.419 . S
C3385 C3386 1.362 1_455 S
C3386 H3378 0.930 . S
C3386 C3385 1.362 1_655 S
C3386 C3389 1.409 . S
C3387 H3379 0.930 . S
C3387 C3388 1.355 . S
C3387 C3389 1.415 . S
C3388 C3387 1.355 . S
C3388 C3390 1.419 . S
C3389 C3384 1.425 1_655 S
C3389 C3386 1.409 . S
C3389 C3387 1.415 . S
C3390 H3380 0.930 . S
C3390 C3388 1.419 . S
C3390 C3391 1.361 1_655 S
C3391 H3381 0.931 . S
C3391 C3384 1.410 . S
C3391 C3390 1.361 1_455 S
H3392 C3398 0.930 . S
H3393 C3401 0.930 . S
H3394 C3402 0.930 . S
H3395 C3403 0.930 . S
H3396 C3406 0.930 . S
H3397 C3407 0.930 . S
C3398 H3392 0.930 . S
C3398 C3399 1.355 . S
C3398 C3400 1.415 . S
C3399 C3398 1.355 . S
C3399 C3401 1.419 . S
C3400 C3398 1.415 . S
C3400 C3405 1.425 . S
C3400 C3407 1.409 . S
C3401 H3393 0.930 . S
C3401 C3399 1.419 . S
C3401 C3402 1.362 . S
C3402 H3394 0.930 . S
C3402 C3401 1.362 . S
C3402 C3405 1.409 . S
C3403 H3395 0.930 . S
C3403 C3404 1.355 . S
C3403 C3405 1.415 . S
C3404 C3403 1.355 . S
C3404 C3406 1.419 . S
C3405 C3400 1.425 . S
C3405 C3402 1.409 . S
C3405 C3403 1.415 . S
C3406 H3396 0.930 . S
C3406 C3404 1.419 . S
C3406 C3407 1.362 . S
C3407 H3397 0.930 . S
C3407 C3400 1.409 . S
C3407 C3406 1.362 . S
H3408 C3414 0.930 . S
H3409 C3417 0.930 . S
H3410 C3418 0.930 . S
H3411 C3419 0.930 . S
H3412 C3422 0.930 . S
H3413 C3423 0.930 . S
C3414 H3408 0.930 . S
C3414 C3415 1.355 . S
C3414 C3416 1.415 . S
C3415 C3414 1.355 . S
C3415 C3417 1.419 . S
C3416 C3414 1.415 . S
C3416 C3421 1.425 . S
C3416 C3423 1.409 . S
C3417 H3409 0.930 . S
C3417 C3415 1.419 . S
C3417 C3418 1.362 . S
C3418 H3410 0.930 . S
C3418 C3417 1.362 . S
C3418 C3421 1.409 . S
C3419 H3411 0.930 . S
C3419 C3420 1.355 . S
C3419 C3421 1.415 . S
C3420 C3419 1.355 . S
C3420 C3422 1.419 . S
C3421 C3416 1.425 . S
C3421 C3418 1.409 . S
C3421 C3419 1.415 . S
C3422 H3412 0.930 . S
C3422 C3420 1.419 . S
C3422 C3423 1.362 . S
C3423 H3413 0.930 . S
C3423 C3416 1.409 . S
C3423 C3422 1.362 . S
H3424 C3430 0.930 . S
H3425 C3433 0.930 . S
H3426 C3434 0.930 . S
H3427 C3435 0.930 . S
H3428 C3438 0.930 . S
H3429 C3439 0.930 1_554 S
C3430 H3424 0.930 . S
C3430 C3431 1.355 . S
C3430 C3432 1.415 . S
C3431 C3430 1.355 . S
C3431 C3433 1.419 . S
C3432 C3430 1.415 . S
C3432 C3437 1.425 1_554 S
C3432 C3439 1.409 1_554 S
C3433 H3425 0.930 . S
C3433 C3431 1.419 . S
C3433 C3434 1.362 1_554 S
C3434 H3426 0.930 . S
C3434 C3433 1.362 1_556 S
C3434 C3437 1.409 . S
C3435 H3427 0.930 . S
C3435 C3436 1.355 . S
C3435 C3437 1.415 . S
C3436 C3435 1.355 . S
C3436 C3438 1.419 . S
C3437 C3432 1.425 1_556 S
C3437 C3434 1.409 . S
C3437 C3435 1.415 . S
C3438 H3428 0.930 . S
C3438 C3436 1.419 . S
C3438 C3439 1.362 . S
C3439 H3429 0.930 1_556 S
C3439 C3432 1.409 1_556 S
C3439 C3438 1.362 . S
H3440 C3446 0.930 . S
H3441 C3449 0.930 . S
H3442 C3450 0.930 . S
H3443 C3451 0.930 . S
H3444 C3454 0.930 . S
H3445 C3455 0.930 . S
C3446 H3440 0.930 . S
C3446 C3447 1.355 1_455 S
C3446 C3448 1.415 . S
C3447 C3446 1.355 1_655 S
C3447 C3449 1.419 . S
C3448 C3446 1.415 . S
C3448 C3453 1.425 1_455 S
C3448 C3455 1.409 . S
C3449 H3441 0.930 . S
C3449 C3447 1.419 . S
C3449 C3450 1.362 . S
C3450 H3442 0.930 . S
C3450 C3449 1.362 . S
C3450 C3453 1.409 . S
C3451 H3443 0.930 . S
C3451 C3452 1.355 1_655 S
C3451 C3453 1.415 . S
C3452 C3451 1.355 1_455 S
C3452 C3454 1.419 . S
C3453 C3448 1.425 1_655 S
C3453 C3450 1.409 . S
C3453 C3451 1.415 . S
C3454 H3444 0.930 . S
C3454 C3452 1.419 . S
C3454 C3455 1.362 . S
C3455 H3445 0.930 . S
C3455 C3448 1.409 . S
C3455 C3454 1.362 . S
H3456 C3462 0.930 . S
H3457 C3465 0.930 . S
H3458 C3466 0.930 . S
H3459 C3467 0.930 . S
H3460 C3470 0.930 . S
H3461 C3471 0.930 . S
C3462 H3456 0.930 . S
C3462 C3463 1.355 . S
C3462 C3464 1.415 . S
C3463 C3462 1.355 . S
C3463 C3465 1.419 . S
C3464 C3462 1.415 . S
C3464 C3469 1.425 . S
C3464 C3471 1.409 . S
C3465 H3457 0.930 . S
C3465 C3463 1.419 . S
C3465 C3466 1.362 . S
C3466 H3458 0.930 . S
C3466 C3465 1.362 . S
C3466 C3469 1.409 . S
C3467 H3459 0.930 . S
C3467 C3468 1.355 . S
C3467 C3469 1.415 . S
C3468 C3467 1.355 . S
C3468 C3470 1.419 . S
C3469 C3464 1.425 . S
C3469 C3466 1.409 . S
C3469 C3467 1.415 . S
C3470 H3460 0.930 . S
C3470 C3468 1.419 . S
C3470 C3471 1.362 . S
C3471 H3461 0.930 . S
C3471 C3464 1.409 . S
C3471 C3470 1.362 . S
H3472 C3478 0.930 . S
H3473 C3481 0.930 . S
H3474 C3482 0.930 . S
H3475 C3483 0.930 . S
H3476 C3486 0.930 . S
H3477 C3487 0.930 . S
C3478 H3472 0.930 . S
C3478 C3479 1.355 . S
C3478 C3480 1.415 . S
C3479 C3478 1.355 . S
C3479 C3481 1.419 . S
C3480 C3478 1.415 . S
C3480 C3485 1.425 . S
C3480 C3487 1.409 . S
C3481 H3473 0.930 . S
C3481 C3479 1.419 . S
C3481 C3482 1.362 . S
C3482 H3474 0.930 . S
C3482 C3481 1.362 . S
C3482 C3485 1.409 . S
C3483 H3475 0.930 . S
C3483 C3484 1.355 . S
C3483 C3485 1.415 . S
C3484 C3483 1.355 . S
C3484 C3486 1.419 . S
C3485 C3480 1.425 . S
C3485 C3482 1.409 . S
C3485 C3483 1.415 . S
C3486 H3476 0.930 . S
C3486 C3484 1.419 . S
C3486 C3487 1.362 . S
C3487 H3477 0.930 . S
C3487 C3480 1.409 . S
C3487 C3486 1.362 . S
H3488 C3494 0.930 . S
H3489 C3497 0.930 . S
H3490 C3498 0.930 . S
H3491 C3499 0.930 . S
H3492 C3502 0.930 . S
H3493 C3503 0.930 . S
C3494 H3488 0.930 . S
C3494 C3495 1.355 . S
C3494 C3496 1.415 . S
C3495 C3494 1.355 . S
C3495 C3497 1.419 . S
C3496 C3494 1.415 . S
C3496 C3501 1.425 . S
C3496 C3503 1.409 . S
C3497 H3489 0.930 . S
C3497 C3495 1.419 . S
C3497 C3498 1.362 . S
C3498 H3490 0.930 . S
C3498 C3497 1.362 . S
C3498 C3501 1.409 . S
C3499 H3491 0.930 . S
C3499 C3500 1.355 . S
C3499 C3501 1.415 . S
C3500 C3499 1.355 . S
C3500 C3502 1.419 . S
C3501 C3496 1.425 . S
C3501 C3498 1.409 . S
C3501 C3499 1.415 . S
C3502 H3492 0.930 . S
C3502 C3500 1.419 . S
C3502 C3503 1.362 . S
C3503 H3493 0.930 . S
C3503 C3496 1.409 . S
C3503 C3502 1.362 . S
H3504 C3510 0.930 1_554 S
H3505 C3513 0.930 . S
H3506 C3514 0.930 . S
H3507 C3515 0.930 1_556 S
H3508 C3518 0.930 . S
H3509 C3519 0.930 . S
C3510 H3504 0.930 1_556 S
C3510 C3511 1.355 . S
C3510 C3512 1.415 1_556 S
C3511 C3510 1.355 . S
C3511 C3513 1.419 . S
C3512 C3510 1.415 1_554 S
C3512 C3517 1.425 1_554 S
C3512 C3519 1.409 . S
C3513 H3505 0.930 . S
C3513 C3511 1.419 . S
C3513 C3514 1.362 . S
C3514 H3506 0.930 . S
C3514 C3513 1.362 . S
C3514 C3517 1.409 . S
C3515 H3507 0.930 1_554 S
C3515 C3516 1.355 . S
C3515 C3517 1.415 1_554 S
C3516 C3515 1.355 . S
C3516 C3518 1.419 . S
C3517 C3512 1.425 1_556 S
C3517 C3514 1.409 . S
C3517 C3515 1.415 1_556 S
C3518 H3508 0.930 . S
C3518 C3516 1.419 . S
C3518 C3519 1.362 . S
C3519 H3509 0.930 . S
C3519 C3512 1.409 . S
C3519 C3518 1.362 . S
H3520 C3526 0.930 . S
H3521 C3529 0.930 . S
H3522 C3530 0.930 . S
H3523 C3531 0.930 . S
H3524 C3534 0.930 . S
H3525 C3535 0.930 . S
C3526 H3520 0.930 . S
C3526 C3527 1.355 . S
C3526 C3528 1.415 . S
C3527 C3526 1.355 . S
C3527 C3529 1.419 . S
C3528 C3526 1.415 . S
C3528 C3533 1.425 . S
C3528 C3535 1.409 . S
C3529 H3521 0.930 . S
C3529 C3527 1.419 . S
C3529 C3530 1.362 . S
C3530 H3522 0.930 . S
C3530 C3529 1.362 . S
C3530 C3533 1.409 . S
C3531 H3523 0.930 . S
C3531 C3532 1.355 . S
C3531 C3533 1.415 . S
C3532 C3531 1.355 . S
C3532 C3534 1.419 . S
C3533 C3528 1.425 . S
C3533 C3530 1.409 . S
C3533 C3531 1.415 . S
C3534 H3524 0.930 . S
C3534 C3532 1.419 . S
C3534 C3535 1.362 . S
C3535 H3525 0.930 . S
C3535 C3528 1.409 . S
C3535 C3534 1.362 . S
H3536 C3542 0.930 . S
H3537 C3545 0.930 . S
H3538 C3546 0.930 . S
H3539 C3547 0.930 . S
H3540 C3550 0.930 . S
H3541 C3551 0.930 . S
C3542 H3536 0.930 . S
C3542 C3543 1.355 . S
C3542 C3544 1.415 . S
C3543 C3542 1.355 . S
C3543 C3545 1.419 . S
C3544 C3542 1.415 . S
C3544 C3549 1.425 . S
C3544 C3551 1.409 . S
C3545 H3537 0.930 . S
C3545 C3543 1.419 . S
C3545 C3546 1.362 . S
C3546 H3538 0.930 . S
C3546 C3545 1.362 . S
C3546 C3549 1.409 . S
C3547 H3539 0.930 . S
C3547 C3548 1.355 . S
C3547 C3549 1.415 . S
C3548 C3547 1.355 . S
C3548 C3550 1.419 . S
C3549 C3544 1.425 . S
C3549 C3546 1.409 . S
C3549 C3547 1.415 . S
C3550 H3540 0.930 . S
C3550 C3548 1.419 . S
C3550 C3551 1.362 . S
C3551 H3541 0.930 . S
C3551 C3544 1.409 . S
C3551 C3550 1.362 . S
C1639 C20 1.262 . S
C1644 C349 1.190 . S
C1655 C383 1.175 . S
C1660 C54 1.246 . S
C1671 C281 1.277 . S
C1676 C88 1.300 . S
C1687 C315 1.186 . S
C1692 C122 1.245 . S
C1703 C485 1.277 . S
C1708 C156 1.300 . S
C1719 C190 1.259 . S
C1724 C519 1.186 . S
C1735 C417 1.247 . S
C1740 C224 1.274 . S
C1751 C451 1.250 . S
C1756 C258 1.276 . S
C1767 C292 1.255 . S
C1772 C587 1.213 . S
C1783 C326 1.247 . S
C1788 C621 1.190 . S
C1799 C655 1.240 . S
C1804 C360 1.290 . S
C1815 C394 1.252 . S
C1820 C1505 1.205 . S
C1831 C1369 1.182 . S
C1836 C428 1.245 . S
C1847 C462 1.247 . S
C1852 C791 1.175 . S
C1863 C496 1.278 . S
C1868 C1539 1.253 . S
C1879 C757 1.186 . S
C1884 C530 1.245 . S
C1895 C564 1.262 . S
C1900 C1029 1.226 . S
C1911 C77 1.277 . S
C1916 C598 1.300 . S
C1927 C111 1.201 . S
C1932 C632 1.250 . S
C1943 C9 1.275 . S
C1948 C666 1.302 . S
C1959 C700 1.286 . S
C1964 C859 1.231 . S
C1975 C734 1.258 . S
C1980 C961 1.185 . S
C1991 C179 1.195 . S
C1996 C768 1.248 . S
C2007 C247 1.240 . S
C2012 C802 1.270 . S
C2023 C836 1.244 . S
C2028 C1165 1.181 . S
C2039 C870 1.278 . S
C2044 C1199 1.215 . S
C2055 C1097 1.224 . S
C2060 C904 1.261 . S
C2071 C1131 1.275 . S
C2076 C938 1.295 . S
C2087 C1301 1.181 . S
C2092 C972 1.244 . S
C2103 C1335 1.202 . S
C2108 C1006 1.270 . S
C2119 C1233 1.194 . S
C2124 C1040 1.247 . S
C2135 C1074 1.288 . S
C2140 C1267 1.235 . S
C2151 C1108 1.244 . S
C2156 C1403 1.181 . S
C2167 C1437 1.276 . S
C2172 C1142 1.301 . S
C2183 C1176 1.268 . S
C2188 C1471 1.199 . S
C2199 C1210 1.299 . S
C2204 C689 1.260 . S
C2215 C1244 1.287 . S
C2220 C553 1.232 . S
C2231 C1278 1.301 . S
C2236 C1607 1.276 . S
C2247 C723 1.209 . S
C2252 C1312 1.253 . S
C2263 C1573 1.275 . S
C2268 C1346 1.301 . S
C2279 C1380 1.257 . S
C2284 C213 1.184 . S
C2295 C893 1.241 . S
C2300 C1414 1.270 . S
C2311 C1448 1.245 . S
C2316 C927 1.176 . S
C2327 C1482 1.254 . S
C2332 C825 1.210 . S
C2343 C43 1.277 . S
C2348 C1516 1.300 . S
C2359 C1550 1.299 . S
C2364 C145 1.260 . S
C2375 C1584 1.297 . S
C2380 C995 1.276 . S
C2391 C1063 1.261 . S
C2396 C1618 1.299 . S
C2407 C311 1.557 . S
C2412 C5 1.582 . S
C2423 C39 1.510 . S
C2428 C345 1.486 . S
C2439 C379 1.514 . S
C2444 C73 1.489 . S
C2455 C277 1.477 . S
C2460 C107 1.485 . S
C2471 C141 1.593 . S
C2476 C515 1.582 . S
C2487 C175 1.554 . S
C2492 C413 1.522 . S
C2503 C447 1.531 . S
C2508 C209 1.562 . S
C2519 C243 1.587 . S
C2524 C481 1.593 . S
C2535 C617 1.483 . S
C2540 C549 1.504 . S
C2551 C583 1.593 . S
C2556 C1569 1.583 . S
C2567 C1603 1.495 . S
C2572 C651 1.479 . S
C2583 C685 1.593 . S
C2588 C1535 1.587 . S
C2599 C1501 1.578 . S
C2604 C719 1.592 . S
C2615 C1399 1.478 . S
C2620 C753 1.492 . S
C2631 C787 1.524 . S
C2636 C1467 1.555 . S
C2647 C821 1.481 . S
C2652 C1127 1.478 . S
C2663 C1161 1.485 . S
C2668 C855 1.477 . S
C2679 C1195 1.500 . S
C2684 C889 1.481 . S
C2695 C923 1.558 . S
C2700 C1093 1.527 . S
C2711 C1331 1.576 . S
C2716 C957 1.548 . S
C2727 C1229 1.517 . S
C2732 C991 1.490 . S
C2743 C1025 1.569 . S
C2748 C1263 1.540 . S
C2759 C1297 1.593 . S
C2764 C1059 1.588 . S
C2775 C1433 1.525 . S
C2780 C1365 1.556 . S
C2791 C713 1.497 . S
C2796 C33 1.468 . S
C2807 C67 1.502 . S
C2812 C1427 1.493 . S
C2823 C101 1.474 . S
C2828 C1461 1.500 . S
C2839 C1495 1.503 . S
C2844 C135 1.493 . S
C2855 C1631 1.479 . S
C2860 C169 1.448 . S
C2871 C747 1.455 . S
C2876 C203 1.487 . S
C2887 C237 1.443 . S
C2892 C1597 1.469 . S
C2903 C271 1.503 . S
C2908 C577 1.489 . S
C2919 C543 1.500 . S
C2924 C305 1.498 . S
C2935 C339 1.453 . S
C2940 C441 1.485 . S
C2951 C373 1.500 . S
C2956 C475 1.474 . S
C2967 C509 1.499 . S
C2972 C407 1.472 . S
C2983 C883 1.495 . S
C2988 C611 1.465 . S
C2999 C645 1.445 . S
C3004 C917 1.473 . S
C3015 C679 1.482 . S
C3020 C951 1.503 . S
C3031 C781 1.440 . S
C3036 C1053 1.460 . S
C3047 C985 1.500 . S
C3052 C815 1.473 . S
C3063 C849 1.499 . S
C3068 C1529 1.471 . S
C3079 C1563 1.493 . S
C3084 C1019 1.503 . S
C3095 C1393 1.500 . S
C3100 C1087 1.498 . S
C3111 C1121 1.465 . S
C3116 C1359 1.442 . S
C3127 C1257 1.455 . S
C3132 C1155 1.440 . S
C3143 C1189 1.474 . S
C3148 C1291 1.445 . S
C3159 C1223 1.499 . S
C3164 C1325 1.471 . S
C3175 C138 2.340 . S
C3180 C2 2.329 . S
C3191 C172 2.333 . S
C3196 C36 2.333 . S
C3207 C206 2.336 . S
C3212 C70 2.326 . S
C3223 C240 2.334 . S
C3228 C104 2.322 . S
C3239 C478 2.339 . S
C3244 C274 2.330 . S
C3255 C308 2.335 . S
C3260 C512 2.329 . S
C3271 C342 2.328 1_545 S
C3276 C410 2.320 . S
C3287 C444 2.323 . S
C3292 C376 2.324 . S
C3303 C546 2.332 . S
C3308 C1532 2.338 . S
C3319 C580 2.320 . S
C3324 C1464 2.328 1_554 S
C3335 C682 2.334 . S
C3340 C614 2.332 . S
C3351 C1396 2.321 . S
C3356 C648 2.326 . S
C3367 C1362 2.327 . S
C3372 C716 2.336 . S
C3383 C750 2.321 . S
C3388 C1600 2.327 . S
C3399 C1566 2.332 . S
C3404 C784 2.334 . S
C3415 C954 2.335 . S
C3420 C818 2.329 . S
C3431 C852 2.320 . S
C3436 C988 2.329 . S
C3447 C886 2.321 . S
C3452 C1022 2.327 1_455 S
C3463 C920 2.325 . S
C3468 C1056 2.322 . S
C3479 C1090 2.329 . S
C3484 C1294 2.320 . S
C3495 C1124 2.327 . S
C3500 C1328 2.321 . S
C3511 C1226 2.321 . S
C3516 C1158 2.332 . S
C3527 C1192 2.336 . S
C3532 C1260 2.327 . S
C3543 C1498 2.334 . S
C3548 C1430 2.322 . S
