# Generated by pormake.
# Topology crr, (4)-cn, num edge types: 1
# Building blocks:
#     Node 0, Type 0, BuildingBlock: NAWXER_clean_sbu_0, # of connection points: 4
#     Node 1, Type 0, BuildingBlock: NAWXER_clean_sbu_0, # of connection points: 4
#     Node 2, Type 0, BuildingBlock: NAWXER_clean_sbu_0, # of connection points: 4
#     Node 3, Type 0, BuildingBlock: NAWXER_clean_sbu_0, # of connection points: 4
#     Node 4, Type 0, BuildingBlock: NAWXER_clean_sbu_0, # of connection points: 4
#     Node 5, Type 0, BuildingBlock: NAWXER_clean_sbu_0, # of connection points: 4
#     Node 6, Type 0, BuildingBlock: NAWXER_clean_sbu_0, # of connection points: 4
#     Node 7, Type 0, BuildingBlock: NAWXER_clean_sbu_0, # of connection points: 4
#     Node 8, Type 0, BuildingBlock: NAWXER_clean_sbu_0, # of connection points: 4
#     Node 9, Type 0, BuildingBlock: NAWXER_clean_sbu_0, # of connection points: 4
#     Node 10, Type 0, BuildingBlock: NAWXER_clean_sbu_0, # of connection points: 4
#     Node 11, Type 0, BuildingBlock: NAWXER_clean_sbu_0, # of connection points: 4
#     Edge 12, Type (0, 0), BuildingBlock: OJICUG_clean_linker_0, # of connection points: 2
#     Edge 13, Type (0, 0), BuildingBlock: OJICUG_clean_linker_0, # of connection points: 2
#     Edge 14, Type (0, 0), BuildingBlock: OJICUG_clean_linker_0, # of connection points: 2
#     Edge 15, Type (0, 0), BuildingBlock: OJICUG_clean_linker_0, # of connection points: 2
#     Edge 16, Type (0, 0), BuildingBlock: OJICUG_clean_linker_0, # of connection points: 2
#     Edge 17, Type (0, 0), BuildingBlock: OJICUG_clean_linker_0, # of connection points: 2
#     Edge 18, Type (0, 0), BuildingBlock: OJICUG_clean_linker_0, # of connection points: 2
#     Edge 19, Type (0, 0), BuildingBlock: OJICUG_clean_linker_0, # of connection points: 2
#     Edge 20, Type (0, 0), BuildingBlock: OJICUG_clean_linker_0, # of connection points: 2
#     Edge 21, Type (0, 0), BuildingBlock: OJICUG_clean_linker_0, # of connection points: 2
#     Edge 22, Type (0, 0), BuildingBlock: OJICUG_clean_linker_0, # of connection points: 2
#     Edge 23, Type (0, 0), BuildingBlock: OJICUG_clean_linker_0, # of connection points: 2
#     Edge 24, Type (0, 0), BuildingBlock: OJICUG_clean_linker_0, # of connection points: 2
#     Edge 25, Type (0, 0), BuildingBlock: OJICUG_clean_linker_0, # of connection points: 2
#     Edge 26, Type (0, 0), BuildingBlock: OJICUG_clean_linker_0, # of connection points: 2
#     Edge 27, Type (0, 0), BuildingBlock: OJICUG_clean_linker_0, # of connection points: 2
#     Edge 28, Type (0, 0), BuildingBlock: OJICUG_clean_linker_0, # of connection points: 2
#     Edge 29, Type (0, 0), BuildingBlock: OJICUG_clean_linker_0, # of connection points: 2
#     Edge 30, Type (0, 0), BuildingBlock: OJICUG_clean_linker_0, # of connection points: 2
#     Edge 31, Type (0, 0), BuildingBlock: OJICUG_clean_linker_0, # of connection points: 2
#     Edge 32, Type (0, 0), BuildingBlock: OJICUG_clean_linker_0, # of connection points: 2
#     Edge 33, Type (0, 0), BuildingBlock: OJICUG_clean_linker_0, # of connection points: 2
#     Edge 34, Type (0, 0), BuildingBlock: OJICUG_clean_linker_0, # of connection points: 2
#     Edge 35, Type (0, 0), BuildingBlock: OJICUG_clean_linker_0, # of connection points: 2
# Relax obj value: 0.065
# Max RMSD: 0.110
# Mean RMSD: 0.110
data_MOF--net-crr--node1-NAWXER_clean_sbu_0--edge1-OJICUG_clean_linker_0
_symmetry_space_group_name_H-M    P1
_symmetry_Int_Tables_number       1
_symmetry_cell_setting            triclinic
loop_
_symmetry_equiv_pos_as_xyz
'x, y, z'
_cell_length_a     29.099537
_cell_length_b     29.251258
_cell_length_c     28.834199
_cell_angle_alpha  89.438724
_cell_angle_beta   90.215872
_cell_angle_gamma 90.494277
loop_
_atom_site_label
_atom_site_type_symbol
_atom_site_fract_x
_atom_site_fract_y
_atom_site_fract_z
_atom_type_partial_charge
C0 C 0.10104 0.35104 0.50608 0.0
C1 C 0.18125 0.39296 0.36249 0.0
O2 O 0.13512 0.37835 0.50242 0.0
Zn3 Zn 0.13925 0.37783 0.43477 0.0
O4 O 0.08136 0.33613 0.46935 0.0
Zn5 Zn 0.08881 0.34059 0.39593 0.0
O6 O 0.09677 0.2768 0.38148 0.0
O7 O 0.15324 0.30726 0.42277 0.0
O8 O 0.14388 0.37028 0.35584 0.0
O9 O 0.19197 0.40537 0.40334 0.0
O10 O 0.08208 0.41768 0.41099 0.0
O11 O 0.03379 0.37126 0.3751 0.0
C12 C 0.13512 0.27273 0.40245 0.0
C13 C 0.04413 0.41103 0.38915 0.0
C14 C 0.37093 0.83273 0.69328 0.0
C15 C 0.32441 0.90526 0.5478 0.0
O16 O 0.35137 0.87126 0.69933 0.0
Zn17 Zn 0.32481 0.92597 0.6575 0.0
O18 O 0.38059 0.8199 0.65242 0.0
Zn19 Zn 0.35495 0.8712 0.61951 0.0
O20 O 0.40244 0.92402 0.63538 0.0
O21 O 0.36477 0.97809 0.67138 0.0
O22 O 0.35017 0.87058 0.55224 0.0
O23 O 0.31401 0.92851 0.58372 0.0
O24 O 0.26101 0.92274 0.67886 0.0
O25 O 0.2845 0.86329 0.63832 0.0
C26 C 0.40221 0.96289 0.65529 0.0
C27 C 0.25292 0.88408 0.66031 0.0
C28 C 0.92654 0.56702 0.36133 0.0
C29 C 0.83179 0.7029 0.38094 0.0
O30 O 0.9438 0.60325 0.34277 0.0
Zn31 Zn 0.92674 0.67376 0.33266 0.0
O32 O 0.88681 0.56835 0.37951 0.0
Zn33 Zn 0.8768 0.6334 0.36969 0.0
O34 O 0.8659 0.6382 0.29682 0.0
O35 O 0.92043 0.68099 0.26538 0.0
O36 O 0.82261 0.66234 0.3945 0.0
O37 O 0.8689 0.71082 0.35823 0.0
O38 O 0.97816 0.70139 0.3655 0.0
O39 O 0.93069 0.66229 0.411 0.0
C40 C 0.8841 0.65696 0.26091 0.0
C41 C 0.96713 0.68665 0.40568 0.0
C42 C 0.59645 0.19772 0.67195 0.0
C43 C 0.64381 0.10744 0.53633 0.0
O44 O 0.61733 0.16031 0.6807 0.0
Zn45 Zn 0.64808 0.10439 0.64742 0.0
O46 O 0.58853 0.20935 0.62991 0.0
Zn47 Zn 0.61595 0.15489 0.60141 0.0
O48 O 0.57104 0.10213 0.62551 0.0
O49 O 0.61 0.05316 0.6689 0.0
O50 O 0.62001 0.1438 0.53401 0.0
O51 O 0.65482 0.0911 0.5761 0.0
O52 O 0.71246 0.11404 0.66603 0.0
O53 O 0.68581 0.16702 0.61815 0.0
C54 C 0.57221 0.06577 0.65057 0.0
C55 C 0.71883 0.15055 0.6423 0.0
C56 C 0.18878 0.60612 0.68209 0.0
C57 C 0.08363 0.66577 0.56464 0.0
O58 O 0.19165 0.60426 0.63829 0.0
Zn59 Zn 0.13522 0.63638 0.62327 0.0
O60 O 0.15447 0.6265 0.70028 0.0
Zn61 Zn 0.09407 0.66204 0.67688 0.0
O62 O 0.04531 0.62639 0.70396 0.0
O63 O 0.07968 0.59178 0.64589 0.0
O64 O 0.06944 0.67393 0.60594 0.0
O65 O 0.12108 0.64453 0.55894 0.0
O66 O 0.14814 0.70626 0.64187 0.0
O67 O 0.10282 0.72341 0.70038 0.0
C68 C 0.04826 0.59249 0.67705 0.0
C69 C 0.13336 0.73524 0.67127 0.0
C70 C 0.55617 0.92918 0.35239 0.0
C71 C 0.69645 0.84549 0.38515 0.0
O72 O 0.56122 0.89697 0.38186 0.0
Zn73 Zn 0.62574 0.88808 0.37122 0.0
O74 O 0.59037 0.94372 0.32853 0.0
Zn75 Zn 0.66222 0.931 0.32287 0.0
O76 O 0.66694 0.9131 0.2581 0.0
O77 O 0.627 0.86449 0.30145 0.0
O78 O 0.70249 0.87846 0.35599 0.0
O79 O 0.6573 0.83967 0.40378 0.0
O80 O 0.65235 0.94935 0.39969 0.0
O81 O 0.68669 0.98975 0.34454 0.0
C82 C 0.64354 0.87625 0.26194 0.0
C83 C 0.67345 0.98566 0.38637 0.0
C84 C 0.88115 0.34415 0.78637 0.0
C85 C 0.99749 0.31859 0.66757 0.0
O86 O 0.87004 0.35819 0.74566 0.0
Zn87 Zn 0.89687 0.3592 0.67726 0.0
O88 O 0.91979 0.32504 0.79307 0.0
Zn89 Zn 0.94053 0.32917 0.72884 0.0
O90 O 0.94952 0.40177 0.71734 0.0
O91 O 0.9014 0.42298 0.66172 0.0
O92 O 0.0016 0.30781 0.71024 0.0
O93 O 0.96045 0.33655 0.65255 0.0
O94 O 0.85412 0.32191 0.64406 0.0
O95 O 0.89275 0.28216 0.69642 0.0
C96 C 0.9333 0.4328 0.69025 0.0
C97 C 0.86172 0.28415 0.66473 0.0
C98 C 0.39662 0.04132 0.33914 0.0
C99 C 0.25994 0.1262 0.3745 0.0
O100 O 0.39319 0.0763 0.36461 0.0
Zn101 Zn 0.32932 0.08576 0.35509 0.0
O102 O 0.36167 0.02631 0.3165 0.0
Zn103 Zn 0.28946 0.04162 0.31121 0.0
O104 O 0.27998 0.06017 0.24604 0.0
O105 O 0.32348 0.10845 0.28548 0.0
O106 O 0.25141 0.09378 0.346 0.0
O107 O 0.30072 0.13285 0.38893 0.0
O108 O 0.30308 0.02692 0.38782 0.0
O109 O 0.26423 0.98435 0.33806 0.0
C110 C 0.30369 0.09691 0.24761 0.0
C111 C 0.27995 0.99088 0.37879 0.0
C112 C 0.32333 0.4144 0.07119 0.0
C113 C 0.31238 0.26003 0.14031 0.0
O114 O 0.35177 0.40724 0.10446 0.0
Zn115 Zn 0.36703 0.35514 0.15464 0.0
O116 O 0.29299 0.3842 0.06187 0.0
Zn117 Zn 0.31254 0.33784 0.10719 0.0
O118 O 0.28989 0.36463 0.17155 0.0
O119 O 0.35037 0.38077 0.21463 0.0
O120 O 0.28577 0.27564 0.10887 0.0
O121 O 0.34227 0.28654 0.15897 0.0
O122 O 0.43062 0.34297 0.13966 0.0
O123 O 0.38148 0.32399 0.08422 0.0
C124 C 0.30696 0.37954 0.20959 0.0
C125 C 0.42291 0.32694 0.0994 0.0
C126 C 0.3372 0.57445 0.80747 0.0
C127 C 0.47458 0.62467 0.89463 0.0
O128 O 0.32976 0.60077 0.84168 0.0
Zn129 Zn 0.36456 0.63509 0.89536 0.0
O130 O 0.3778 0.56016 0.80019 0.0
Zn131 Zn 0.40773 0.59222 0.85248 0.0
O132 O 0.38135 0.55891 0.91327 0.0
O133 O 0.33717 0.60731 0.95061 0.0
O134 O 0.47458 0.59465 0.86286 0.0
O135 O 0.43623 0.64001 0.90928 0.0
O136 O 0.35276 0.69826 0.87547 0.0
O137 O 0.39771 0.65997 0.8284 0.0
C138 C 0.35466 0.56779 0.94723 0.0
C139 C 0.37691 0.6968 0.83866 0.0
C140 C 0.64179 0.72923 0.13191 0.0
C141 C 0.65513 0.57539 0.07195 0.0
O142 O 0.62104 0.69296 0.14484 0.0
Zn143 Zn 0.64843 0.65118 0.10301 0.0
O144 O 0.6702 0.72771 0.098 0.0
Zn145 Zn 0.69669 0.6761 0.05253 0.0
O146 O 0.67354 0.69129 0.98994 0.0
O147 O 0.61922 0.66845 0.03838 0.0
O148 O 0.68152 0.60416 0.05113 0.0
O149 O 0.63001 0.58799 0.10539 0.0
O150 O 0.71842 0.64938 0.12412 0.0
O151 O 0.76235 0.67758 0.06822 0.0
C152 C 0.63153 0.68159 0.99793 0.0
C153 C 0.75831 0.66023 0.10869 0.0
C154 C 0.59629 0.31158 0.8327 0.0
C155 C 0.63051 0.42308 0.95226 0.0
O156 O 0.58704 0.3539 0.83251 0.0
Zn157 Zn 0.61321 0.36781 0.89245 0.0
O158 O 0.61692 0.29382 0.86795 0.0
Zn159 Zn 0.64536 0.31624 0.93341 0.0
O160 O 0.61058 0.28377 0.98089 0.0
O161 O 0.5695 0.33423 0.94156 0.0
O162 O 0.64628 0.38351 0.9626 0.0
O163 O 0.60905 0.42937 0.91427 0.0
O164 O 0.68556 0.35998 0.88154 0.0
O165 O 0.71049 0.30403 0.92669 0.0
C166 C 0.57269 0.30405 0.97388 0.0
C167 C 0.71856 0.3349 0.89638 0.0
C168 C 0.15178 0.19639 0.36787 0.0
C169 C 0.16164 0.23014 0.40079 0.0
H170 H 0.17547 0.13637 0.33377 0.0
C171 C 0.20072 0.22556 0.42921 0.0
H172 H 0.1218 0.19899 0.34565 0.0
C173 C 0.23138 0.19011 0.42234 0.0
C174 C 0.2235 0.15834 0.38706 0.0
H175 H 0.20886 0.25062 0.45548 0.0
H176 H 0.26226 0.18878 0.4434 0.0
C177 C 0.18253 0.16063 0.36108 0.0
C178 C 0.19424 0.84339 0.70804 0.0
C179 C 0.20883 0.85993 0.66459 0.0
H180 H 0.15778 0.78982 0.74442 0.0
C181 C 0.19058 0.84057 0.62414 0.0
H182 H 0.20877 0.85726 0.73962 0.0
C183 C 0.1628 0.80174 0.6268 0.0
C184 C 0.15227 0.782 0.66999 0.0
H185 H 0.20179 0.85258 0.5903 0.0
H186 H 0.15223 0.78526 0.59494 0.0
C187 C 0.16566 0.80456 0.71074 0.0
C188 C 0.72346 0.76783 0.41094 0.0
C189 C 0.73321 0.81121 0.39167 0.0
H190 H 0.7469 0.69931 0.42263 0.0
C191 C 0.77714 0.81967 0.37331 0.0
H192 H 0.68989 0.76015 0.42529 0.0
C193 C 0.80966 0.78493 0.37178 0.0
C194 C 0.79906 0.74073 0.38839 0.0
H195 H 0.78593 0.85274 0.35843 0.0
H196 H 0.84261 0.79243 0.35594 0.0
C197 C 0.75606 0.73287 0.40922 0.0
C198 C 0.80459 0.24368 0.6151 0.0
C199 C 0.8318 0.24414 0.6553 0.0
H200 H 0.74862 0.21269 0.579 0.0
C201 C 0.82635 0.20866 0.68829 0.0
H202 H 0.8084 0.27007 0.58873 0.0
C203 C 0.79158 0.17553 0.68285 0.0
C204 C 0.76205 0.17748 0.64426 0.0
H205 H 0.84697 0.20811 0.71964 0.0
H206 H 0.786 0.1504 0.71013 0.0
C207 C 0.77031 0.21067 0.60957 0.0
C208 C 0.35059 0.1926 0.17529 0.0
C209 C 0.31037 0.21194 0.15682 0.0
H210 H 0.37985 0.1399 0.2175 0.0
C211 C 0.26881 0.18724 0.16034 0.0
H212 H 0.38331 0.21038 0.17247 0.0
C213 C 0.26698 0.1461 0.1861 0.0
C214 C 0.30671 0.12946 0.2083 0.0
H215 H 0.23731 0.20139 0.14643 0.0
H216 H 0.234 0.12965 0.19202 0.0
C217 C 0.34876 0.15198 0.20077 0.0
C218 C 0.30668 0.57011 0.72592 0.0
C219 C 0.29899 0.56834 0.774 0.0
H220 H 0.27749 0.58365 0.65864 0.0
C221 C 0.25371 0.57193 0.79035 0.0
H222 H 0.34126 0.56802 0.71237 0.0
C223 C 0.21759 0.58159 0.75998 0.0
C224 C 0.22571 0.5876 0.71236 0.0
H225 H 0.24666 0.57053 0.82722 0.0
H226 H 0.18363 0.58663 0.77423 0.0
C227 C 0.27021 0.57958 0.69526 0.0
C228 C 0.66805 0.80835 0.15371 0.0
C229 C 0.63699 0.77152 0.15923 0.0
H230 H 0.69445 0.87106 0.18193 0.0
C231 C 0.60423 0.77327 0.19474 0.0
H232 H 0.69366 0.80808 0.12655 0.0
C233 C 0.6047 0.80914 0.22618 0.0
C234 C 0.63793 0.8442 0.22293 0.0
H235 H 0.57943 0.74583 0.19965 0.0
H236 H 0.58018 0.80826 0.25437 0.0
C237 C 0.6685 0.84448 0.18534 0.0
C238 C 0.77311 0.37865 0.84627 0.0
C239 C 0.76474 0.34096 0.8757 0.0
H240 H 0.81729 0.40953 0.79579 0.0
C241 C 0.79931 0.30798 0.88149 0.0
H242 H 0.74768 0.40515 0.84159 0.0
C243 C 0.83983 0.31086 0.8553 0.0
C244 C 0.84605 0.34664 0.82299 0.0
H245 H 0.79397 0.2787 0.90417 0.0
H246 H 0.86456 0.28347 0.85785 0.0
C247 C 0.81318 0.38136 0.82016 0.0
C248 C 0.35243 0.80791 0.77461 0.0
C249 C 0.37727 0.80154 0.73331 0.0
H250 H 0.33247 0.77965 0.84065 0.0
C251 C 0.40498 0.76295 0.72922 0.0
H252 H 0.3306 0.8374 0.7787 0.0
C253 C 0.40631 0.73035 0.76469 0.0
C254 C 0.37948 0.73519 0.80495 0.0
H255 H 0.42473 0.75727 0.69806 0.0
H256 H 0.42732 0.70043 0.75962 0.0
C257 C 0.35336 0.77487 0.8101 0.0
C258 C 0.7959 0.61896 0.17358 0.0
C259 C 0.79796 0.65416 0.14024 0.0
H260 H 0.82223 0.59177 0.23707 0.0
C261 C 0.83381 0.6866 0.1427 0.0
H262 H 0.76897 0.59317 0.17223 0.0
C263 C 0.86457 0.686 0.18046 0.0
C264 C 0.85971 0.65289 0.21592 0.0
H265 H 0.83598 0.71423 0.11749 0.0
H266 H 0.88997 0.71311 0.18344 0.0
C267 C 0.82642 0.61825 0.21083 0.0
C268 C 0.58619 0.208 0.75667 0.0
C269 C 0.58605 0.22747 0.71183 0.0
H270 H 0.58931 0.21922 0.82969 0.0
C271 C 0.58261 0.27517 0.70714 0.0
H272 H 0.58809 0.17129 0.76162 0.0
C273 C 0.58298 0.30289 0.74672 0.0
C274 C 0.58706 0.28321 0.79136 0.0
H275 H 0.58253 0.29115 0.6731 0.0
H276 H 0.5829 0.33969 0.74221 0.0
C277 C 0.58694 0.23547 0.79585 0.0
C278 C 0.2919 0.39978 0.29322 0.0
C279 C 0.27546 0.39121 0.24812 0.0
H280 H 0.27481 0.40784 0.36513 0.0
C281 C 0.22769 0.38977 0.24063 0.0
H282 H 0.32848 0.40128 0.30017 0.0
C283 C 0.19719 0.39344 0.2776 0.0
C284 C 0.21351 0.39895 0.32312 0.0
H285 H 0.21364 0.3838 0.20636 0.0
H286 H 0.1607 0.38999 0.27069 0.0
C287 C 0.26115 0.40375 0.33041 0.0
C288 C 0.06945 0.34971 0.63375 0.0
C289 C 0.03528 0.31546 0.63437 0.0
H290 H 0.11741 0.38833 0.59216 0.0
C291 C 0.02803 0.28908 0.59473 0.0
H292 H 0.07453 0.37143 0.6636 0.0
C293 C 0.05175 0.29909 0.55394 0.0
C294 C 0.08295 0.33607 0.55178 0.0
H295 H 0.00108 0.26327 0.59414 0.0
H296 H 0.04351 0.27945 0.52331 0.0
C297 C 0.09336 0.35987 0.59268 0.0
C298 C 0.2558 0.96971 0.45739 0.0
C299 C 0.27725 0.95673 0.4162 0.0
H300 H 0.25397 0.96367 0.53118 0.0
C301 C 0.30999 0.92172 0.4177 0.0
H302 H 0.2314 -0.00249 0.45721 0.0
C303 C 0.32388 0.90281 0.46036 0.0
C304 C 0.30545 0.9191 0.50202 0.0
H305 H 0.32815 0.9123 0.38652 0.0
H306 H 0.35121 0.8779 0.46088 0.0
C307 C 0.26963 0.95104 0.49984 0.0
C308 C 0.07412 0.68016 0.4792 0.0
C309 C 0.0552 0.67866 0.52404 0.0
H310 H 0.06087 0.68556 0.40607 0.0
C311 C 0.00803 0.68664 0.52947 0.0
H312 H 0.11047 0.67453 0.47401 0.0
C313 C 0.97977 0.69251 0.49069 0.0
C314 C 0.99825 0.69154 0.44578 0.0
H315 H 0.99244 0.68584 0.56353 0.0
H316 H 0.94306 0.6958 0.49573 0.0
C317 C 0.04589 0.68701 0.44035 0.0
C318 C 0.64209 0.09273 0.44977 0.0
C319 C 0.65825 0.0819 0.49456 0.0
H320 H 0.63573 0.07062 0.379 0.0
C321 C 0.68663 0.04344 0.50036 0.0
H322 H 0.62036 0.12213 0.44406 0.0
C323 C 0.6953 0.01437 0.46349 0.0
C324 C 0.67675 0.02342 0.41959 0.0
H325 H 0.70036 0.03421 0.53411 0.0
H326 H 0.71431 0.98323 0.46996 0.0
C327 C 0.65138 0.06362 0.41245 0.0
C328 C 0.45646 0.00208 0.38542 0.0
C329 C 0.43797 0.0133 0.34178 0.0
H330 H 0.50765 0.96443 0.42294 0.0
C331 C 0.45667 0.99418 0.30174 0.0
H332 H 0.4418 0.0158 0.4168 0.0
C333 C 0.49472 0.96556 0.30524 0.0
C334 C 0.513 0.95418 0.34893 0.0
H335 H 0.44236 0.00202 0.26787 0.0
H336 H 0.50999 0.9524 0.27391 0.0
C337 C 0.49337 0.97215 0.38902 0.0
C338 C 0.99738 0.53408 0.64073 0.0
C339 C 0.01537 0.55423 0.68093 0.0
H340 H 0.95536 0.48059 0.61251 0.0
C341 C 0.00263 0.53677 0.72458 0.0
H342 H 0.00655 0.54727 0.60672 0.0
C343 C 0.97431 0.498 0.72787 0.0
C344 C 0.95693 0.47738 0.6876 0.0
H345 H 0.01619 0.55186 0.756 0.0
H346 H 0.96669 0.48359 0.76176 0.0
C347 C 0.96776 0.49638 0.64406 0.0
C348 C 0.48676 0.06198 0.65728 0.0
C349 C 0.5292 0.03924 0.65698 0.0
H350 H 0.41323 0.05569 0.65811 0.0
C351 C 0.52955 0.99135 0.65928 0.0
H352 H 0.48555 0.09897 0.65573 0.0
C353 C 0.48812 0.96662 0.65949 0.0
C354 C 0.44564 0.98936 0.65869 0.0
H355 H 0.56173 0.97301 0.65888 0.0
H356 H 0.48931 0.92961 0.65975 0.0
C357 C 0.44538 0.0373 0.65877 0.0
C358 C 0.00366 0.5315 0.3673 0.0
C359 C 0.95563 0.52602 0.36594 0.0
H360 H 0.06894 0.49958 0.37641 0.0
C361 C 0.93663 0.48194 0.37112 0.0
H362 H 0.01938 0.56508 0.36387 0.0
C363 C 0.96536 0.44406 0.3774 0.0
C364 C 0.01333 0.44999 0.38 0.0
H365 H 0.89973 0.4768 0.37029 0.0
H366 H 0.95005 0.41038 0.38147 0.0
C367 C 0.03211 0.49404 0.3748 0.0
C368 C 0.29266 0.47697 0.01879 0.0
C369 C 0.32972 0.4556 0.04144 0.0
H370 H 0.27143 0.53086 0.97216 0.0
C371 C 0.37436 0.47318 0.03456 0.0
H372 H 0.25795 0.46413 0.02347 0.0
C373 C 0.38206 0.51024 1.00459 0.0
C374 C 0.34521 0.53162 0.98203 0.0
H375 H 0.40368 0.45725 0.05117 0.0
H376 H 0.41699 0.52203 0.99873 0.0
C377 C 0.30031 0.51521 0.98982 0.0
C378 C 0.56115 0.62538 0.90523 0.0
C379 C 0.51774 0.64396 0.91448 0.0
H380 H 0.63282 0.62445 0.92388 0.0
C381 C 0.51515 0.68147 0.94461 0.0
H382 H 0.56441 0.59672 0.88201 0.0
C383 C 0.55409 0.69759 0.96775 0.0
C384 C 0.59683 0.67715 0.961 0.0
H385 H 0.48253 0.6973 0.95211 0.0
H386 H 0.55021 0.72401 0.9935 0.0
C387 C 0.60045 0.64185 0.92844 0.0
C388 C 0.60056 0.49227 0.99104 0.0
C389 C 0.63578 0.46036 0.98563 0.0
H390 H 0.57872 0.553 0.0252 0.0
C391 C 0.67565 0.46375 0.0131 0.0
H392 H 0.56934 0.49001 0.97056 0.0
C393 C 0.68122 0.50006 0.0438 0.0
C394 C 0.64615 0.53211 0.04876 0.0
H395 H 0.7032 0.43938 0.00946 0.0
H396 H 0.71331 0.50391 0.06261 0.0
C397 C 0.60552 0.52763 0.02281 0.0
C398 C 0.50589 0.30761 0.08538 0.0
C399 C 0.46104 0.31411 0.06841 0.0
H400 H 0.57682 0.29736 0.06825 0.0
C401 C 0.45284 0.31039 0.02049 0.0
H402 H 0.51316 0.30992 0.12215 0.0
C403 C 0.48907 0.30362 0.98989 0.0
C404 C 0.53415 0.29933 0.00655 0.0
H405 H 0.4187 0.31505 0.0062 0.0
H406 H 0.48212 0.30377 0.95294 0.0
C407 C 0.54216 0.2998 0.05465 0.0
loop_
_geom_bond_atom_site_label_1
_geom_bond_atom_site_label_2
_geom_bond_distance
_geom_bond_site_symmetry_2
_ccdc_geom_bond_type
C0 O2 1.247 . S
C0 O4 1.258 1_455 S
C1 O8 1.247 . S
C1 O9 1.258 . S
O2 C0 1.247 . S
O2 Zn3 2.028 . S
Zn3 O2 2.028 . S
Zn3 O7 2.035 . S
Zn3 O9 2.035 . S
Zn3 O10 2.028 . S
O4 C0 1.258 1_655 S
O4 Zn5 2.035 1_655 S
Zn5 O4 2.035 1_455 S
Zn5 O6 2.028 . S
Zn5 O8 2.028 . S
Zn5 O11 2.035 1_455 S
O6 Zn5 2.028 . S
O6 C12 1.247 . S
O7 Zn3 2.035 . S
O7 C12 1.258 . S
O8 C1 1.247 . S
O8 Zn5 2.028 . S
O9 C1 1.258 . S
O9 Zn3 2.035 . S
O10 Zn3 2.028 . S
O10 C13 1.247 . S
O11 Zn5 2.035 1_655 S
O11 C13 1.258 1_655 S
C12 O6 1.247 . S
C12 O7 1.258 . S
C13 O10 1.247 . S
C13 O11 1.258 1_455 S
C14 O16 1.247 . S
C14 O18 1.258 . S
C15 O22 1.247 . S
C15 O23 1.258 1_565 S
O16 C14 1.247 . S
O16 Zn17 2.028 . S
Zn17 O16 2.028 . S
Zn17 O21 2.035 1_565 S
Zn17 O23 2.035 1_565 S
Zn17 O24 2.028 . S
O18 C14 1.258 . S
O18 Zn19 2.035 . S
Zn19 O18 2.035 . S
Zn19 O20 2.028 . S
Zn19 O22 2.028 . S
Zn19 O25 2.035 . S
O20 Zn19 2.028 . S
O20 C26 1.247 . S
O21 Zn17 2.035 1_545 S
O21 C26 1.258 1_545 S
O22 C15 1.247 . S
O22 Zn19 2.028 . S
O23 C15 1.258 1_545 S
O23 Zn17 2.035 1_545 S
O24 Zn17 2.028 . S
O24 C27 1.247 . S
O25 Zn19 2.035 . S
O25 C27 1.258 . S
C26 O20 1.247 . S
C26 O21 1.258 1_565 S
C27 O24 1.247 . S
C27 O25 1.258 . S
C28 O30 1.247 1_655 S
C28 O32 1.258 . S
C29 O36 1.247 . S
C29 O37 1.258 . S
O30 C28 1.247 1_455 S
O30 Zn31 2.028 1_455 S
Zn31 O30 2.028 1_655 S
Zn31 O35 2.035 . S
Zn31 O37 2.035 . S
Zn31 O38 2.028 1_655 S
O32 C28 1.258 . S
O32 Zn33 2.035 . S
Zn33 O32 2.035 . S
Zn33 O34 2.028 . S
Zn33 O36 2.028 . S
Zn33 O39 2.035 . S
O34 Zn33 2.028 . S
O34 C40 1.247 . S
O35 Zn31 2.035 . S
O35 C40 1.258 . S
O36 C29 1.247 . S
O36 Zn33 2.028 . S
O37 C29 1.258 . S
O37 Zn31 2.035 . S
O38 Zn31 2.028 1_455 S
O38 C41 1.247 1_455 S
O39 Zn33 2.035 . S
O39 C41 1.258 . S
C40 O34 1.247 . S
C40 O35 1.258 . S
C41 O38 1.247 1_655 S
C41 O39 1.258 . S
C42 O44 1.247 . S
C42 O46 1.258 . S
C43 O50 1.247 . S
C43 O51 1.258 1_545 S
O44 C42 1.247 . S
O44 Zn45 2.028 . S
Zn45 O44 2.028 . S
Zn45 O49 2.035 1_545 S
Zn45 O51 2.035 1_545 S
Zn45 O52 2.028 . S
O46 C42 1.258 . S
O46 Zn47 2.035 . S
Zn47 O46 2.035 . S
Zn47 O48 2.028 . S
Zn47 O50 2.028 . S
Zn47 O53 2.035 . S
O48 Zn47 2.028 . S
O48 C54 1.247 . S
O49 Zn45 2.035 1_565 S
O49 C54 1.258 1_565 S
O50 C43 1.247 . S
O50 Zn47 2.028 . S
O51 C43 1.258 1_565 S
O51 Zn45 2.035 1_565 S
O52 Zn45 2.028 . S
O52 C55 1.247 . S
O53 Zn47 2.035 . S
O53 C55 1.258 . S
C54 O48 1.247 . S
C54 O49 1.258 1_545 S
C55 O52 1.247 . S
C55 O53 1.258 . S
C56 O58 1.247 . S
C56 O60 1.258 . S
C57 O64 1.247 1_455 S
C57 O65 1.258 . S
O58 C56 1.247 . S
O58 Zn59 2.028 . S
Zn59 O58 2.028 . S
Zn59 O63 2.035 . S
Zn59 O65 2.035 . S
Zn59 O66 2.028 . S
O60 C56 1.258 . S
O60 Zn61 2.035 . S
Zn61 O60 2.035 . S
Zn61 O62 2.028 1_455 S
Zn61 O64 2.028 1_455 S
Zn61 O67 2.035 . S
O62 Zn61 2.028 1_655 S
O62 C68 1.247 1_655 S
O63 Zn59 2.035 . S
O63 C68 1.258 . S
O64 C57 1.247 1_655 S
O64 Zn61 2.028 1_655 S
O65 C57 1.258 . S
O65 Zn59 2.035 . S
O66 Zn59 2.028 . S
O66 C69 1.247 . S
O67 Zn61 2.035 . S
O67 C69 1.258 . S
C68 O62 1.247 1_455 S
C68 O63 1.258 . S
C69 O66 1.247 . S
C69 O67 1.258 . S
C70 O72 1.247 . S
C70 O74 1.258 1_565 S
C71 O78 1.247 . S
C71 O79 1.258 . S
O72 C70 1.247 . S
O72 Zn73 2.028 . S
Zn73 O72 2.028 . S
Zn73 O77 2.035 . S
Zn73 O79 2.035 . S
Zn73 O80 2.028 . S
O74 C70 1.258 1_545 S
O74 Zn75 2.035 1_545 S
Zn75 O74 2.035 1_565 S
Zn75 O76 2.028 . S
Zn75 O78 2.028 . S
Zn75 O81 2.035 1_565 S
O76 Zn75 2.028 . S
O76 C82 1.247 . S
O77 Zn73 2.035 . S
O77 C82 1.258 . S
O78 C71 1.247 . S
O78 Zn75 2.028 . S
O79 C71 1.258 . S
O79 Zn73 2.035 . S
O80 Zn73 2.028 . S
O80 C83 1.247 . S
O81 Zn75 2.035 1_545 S
O81 C83 1.258 1_545 S
C82 O76 1.247 . S
C82 O77 1.258 . S
C83 O80 1.247 . S
C83 O81 1.258 1_565 S
C84 O86 1.247 . S
C84 O88 1.258 . S
C85 O92 1.247 1_655 S
C85 O93 1.258 . S
O86 C84 1.247 . S
O86 Zn87 2.028 . S
Zn87 O86 2.028 . S
Zn87 O91 2.035 . S
Zn87 O93 2.035 . S
Zn87 O94 2.028 . S
O88 C84 1.258 . S
O88 Zn89 2.035 . S
Zn89 O88 2.035 . S
Zn89 O90 2.028 1_655 S
Zn89 O92 2.028 1_655 S
Zn89 O95 2.035 . S
O90 Zn89 2.028 1_455 S
O90 C96 1.247 1_455 S
O91 Zn87 2.035 . S
O91 C96 1.258 . S
O92 C85 1.247 1_455 S
O92 Zn89 2.028 1_455 S
O93 C85 1.258 . S
O93 Zn87 2.035 . S
O94 Zn87 2.028 . S
O94 C97 1.247 . S
O95 Zn89 2.035 . S
O95 C97 1.258 . S
C96 O90 1.247 1_655 S
C96 O91 1.258 . S
C97 O94 1.247 . S
C97 O95 1.258 . S
C98 O100 1.247 . S
C98 O102 1.258 1_545 S
C99 O106 1.247 . S
C99 O107 1.258 . S
O100 C98 1.247 . S
O100 Zn101 2.028 . S
Zn101 O100 2.028 . S
Zn101 O105 2.035 . S
Zn101 O107 2.035 . S
Zn101 O108 2.028 . S
O102 C98 1.258 1_565 S
O102 Zn103 2.035 1_565 S
Zn103 O102 2.035 1_545 S
Zn103 O104 2.028 . S
Zn103 O106 2.028 . S
Zn103 O109 2.035 1_545 S
O104 Zn103 2.028 . S
O104 C110 1.247 . S
O105 Zn101 2.035 . S
O105 C110 1.258 . S
O106 C99 1.247 . S
O106 Zn103 2.028 . S
O107 C99 1.258 . S
O107 Zn101 2.035 . S
O108 Zn101 2.028 . S
O108 C111 1.247 . S
O109 Zn103 2.035 1_565 S
O109 C111 1.258 1_565 S
C110 O104 1.247 . S
C110 O105 1.258 . S
C111 O108 1.247 . S
C111 O109 1.258 1_545 S
C112 O114 1.247 . S
C112 O116 1.258 1_554 S
C113 O120 1.247 . S
C113 O121 1.258 . S
O114 C112 1.247 . S
O114 Zn115 2.028 . S
Zn115 O114 2.028 . S
Zn115 O119 2.035 . S
Zn115 O121 2.035 . S
Zn115 O122 2.028 . S
O116 C112 1.258 1_556 S
O116 Zn117 2.035 1_556 S
Zn117 O116 2.035 1_554 S
Zn117 O118 2.028 . S
Zn117 O120 2.028 . S
Zn117 O123 2.035 1_554 S
O118 Zn117 2.028 . S
O118 C124 1.247 . S
O119 Zn115 2.035 . S
O119 C124 1.258 . S
O120 C113 1.247 . S
O120 Zn117 2.028 . S
O121 C113 1.258 . S
O121 Zn115 2.035 . S
O122 Zn115 2.028 . S
O122 C125 1.247 . S
O123 Zn117 2.035 1_556 S
O123 C125 1.258 1_556 S
C124 O118 1.247 . S
C124 O119 1.258 . S
C125 O122 1.247 . S
C125 O123 1.258 1_554 S
C126 O128 1.247 . S
C126 O130 1.258 . S
C127 O134 1.247 . S
C127 O135 1.258 1_556 S
O128 C126 1.247 . S
O128 Zn129 2.028 . S
Zn129 O128 2.028 . S
Zn129 O133 2.035 1_556 S
Zn129 O135 2.035 1_556 S
Zn129 O136 2.028 . S
O130 C126 1.258 . S
O130 Zn131 2.035 . S
Zn131 O130 2.035 . S
Zn131 O132 2.028 . S
Zn131 O134 2.028 . S
Zn131 O137 2.035 . S
O132 Zn131 2.028 . S
O132 C138 1.247 . S
O133 Zn129 2.035 1_554 S
O133 C138 1.258 1_554 S
O134 C127 1.247 . S
O134 Zn131 2.028 . S
O135 C127 1.258 1_554 S
O135 Zn129 2.035 1_554 S
O136 Zn129 2.028 . S
O136 C139 1.247 . S
O137 Zn131 2.035 . S
O137 C139 1.258 . S
C138 O132 1.247 . S
C138 O133 1.258 1_556 S
C139 O136 1.247 . S
C139 O137 1.258 . S
C140 O142 1.247 . S
C140 O144 1.258 . S
C141 O148 1.247 1_554 S
C141 O149 1.258 . S
O142 C140 1.247 . S
O142 Zn143 2.028 . S
Zn143 O142 2.028 . S
Zn143 O147 2.035 . S
Zn143 O149 2.035 . S
Zn143 O150 2.028 . S
O144 C140 1.258 . S
O144 Zn145 2.035 . S
Zn145 O144 2.035 . S
Zn145 O146 2.028 1_554 S
Zn145 O148 2.028 1_554 S
Zn145 O151 2.035 . S
O146 Zn145 2.028 1_556 S
O146 C152 1.247 1_556 S
O147 Zn143 2.035 . S
O147 C152 1.258 . S
O148 C141 1.247 1_556 S
O148 Zn145 2.028 1_556 S
O149 C141 1.258 . S
O149 Zn143 2.035 . S
O150 Zn143 2.028 . S
O150 C153 1.247 . S
O151 Zn145 2.035 . S
O151 C153 1.258 . S
C152 O146 1.247 1_554 S
C152 O147 1.258 . S
C153 O150 1.247 . S
C153 O151 1.258 . S
C154 O156 1.247 . S
C154 O158 1.258 . S
C155 O162 1.247 1_556 S
C155 O163 1.258 . S
O156 C154 1.247 . S
O156 Zn157 2.028 . S
Zn157 O156 2.028 . S
Zn157 O161 2.035 . S
Zn157 O163 2.035 . S
Zn157 O164 2.028 . S
O158 C154 1.258 . S
O158 Zn159 2.035 . S
Zn159 O158 2.035 . S
Zn159 O160 2.028 1_556 S
Zn159 O162 2.028 1_556 S
Zn159 O165 2.035 . S
O160 Zn159 2.028 1_554 S
O160 C166 1.247 1_554 S
O161 Zn157 2.035 . S
O161 C166 1.258 . S
O162 C155 1.247 1_554 S
O162 Zn159 2.028 1_554 S
O163 C155 1.258 . S
O163 Zn157 2.035 . S
O164 Zn157 2.028 . S
O164 C167 1.247 . S
O165 Zn159 2.035 . S
O165 C167 1.258 . S
C166 O160 1.247 1_556 S
C166 O161 1.258 . S
C167 O164 1.247 . S
C167 O165 1.258 . S
C168 C169 1.387 . S
C168 H172 0.950 . S
C168 C177 1.390 . S
C169 C168 1.387 . S
C169 C171 1.387 . S
H170 C177 0.950 . S
C171 C169 1.387 . S
C171 C173 1.390 . S
C171 H175 0.950 . S
H172 C168 0.950 . S
C173 C171 1.390 . S
C173 C174 1.387 . S
C173 H176 0.950 . S
C174 C173 1.387 . S
C174 C177 1.387 . S
H175 C171 0.950 . S
H176 C173 0.950 . S
C177 C168 1.390 . S
C177 H170 0.950 . S
C177 C174 1.387 . S
C178 C179 1.387 . S
C178 H182 0.950 . S
C178 C187 1.390 . S
C179 C178 1.387 . S
C179 C181 1.387 . S
H180 C187 0.950 . S
C181 C179 1.387 . S
C181 C183 1.390 . S
C181 H185 0.950 . S
H182 C178 0.950 . S
C183 C181 1.390 . S
C183 C184 1.387 . S
C183 H186 0.950 . S
C184 C183 1.387 . S
C184 C187 1.387 . S
H185 C181 0.950 . S
H186 C183 0.950 . S
C187 C178 1.390 . S
C187 H180 0.950 . S
C187 C184 1.387 . S
C188 C189 1.387 . S
C188 H192 0.950 . S
C188 C197 1.390 . S
C189 C188 1.387 . S
C189 C191 1.387 . S
H190 C197 0.950 . S
C191 C189 1.387 . S
C191 C193 1.390 . S
C191 H195 0.950 . S
H192 C188 0.950 . S
C193 C191 1.390 . S
C193 C194 1.387 . S
C193 H196 0.950 . S
C194 C193 1.387 . S
C194 C197 1.387 . S
H195 C191 0.950 . S
H196 C193 0.950 . S
C197 C188 1.390 . S
C197 H190 0.950 . S
C197 C194 1.387 . S
C198 C199 1.387 . S
C198 H202 0.950 . S
C198 C207 1.390 . S
C199 C198 1.387 . S
C199 C201 1.387 . S
H200 C207 0.950 . S
C201 C199 1.387 . S
C201 C203 1.390 . S
C201 H205 0.950 . S
H202 C198 0.950 . S
C203 C201 1.390 . S
C203 C204 1.387 . S
C203 H206 0.950 . S
C204 C203 1.387 . S
C204 C207 1.387 . S
H205 C201 0.950 . S
H206 C203 0.950 . S
C207 C198 1.390 . S
C207 H200 0.950 . S
C207 C204 1.387 . S
C208 C209 1.387 . S
C208 H212 0.950 . S
C208 C217 1.390 . S
C209 C208 1.387 . S
C209 C211 1.387 . S
H210 C217 0.950 . S
C211 C209 1.387 . S
C211 C213 1.390 . S
C211 H215 0.950 . S
H212 C208 0.950 . S
C213 C211 1.390 . S
C213 C214 1.387 . S
C213 H216 0.950 . S
C214 C213 1.387 . S
C214 C217 1.387 . S
H215 C211 0.950 . S
H216 C213 0.950 . S
C217 C208 1.390 . S
C217 H210 0.950 . S
C217 C214 1.387 . S
C218 C219 1.387 . S
C218 H222 0.950 . S
C218 C227 1.390 . S
C219 C218 1.387 . S
C219 C221 1.387 . S
H220 C227 0.950 . S
C221 C219 1.387 . S
C221 C223 1.390 . S
C221 H225 0.950 . S
H222 C218 0.950 . S
C223 C221 1.390 . S
C223 C224 1.387 . S
C223 H226 0.950 . S
C224 C223 1.387 . S
C224 C227 1.387 . S
H225 C221 0.950 . S
H226 C223 0.950 . S
C227 C218 1.390 . S
C227 H220 0.950 . S
C227 C224 1.387 . S
C228 C229 1.387 . S
C228 H232 0.950 . S
C228 C237 1.390 . S
C229 C228 1.387 . S
C229 C231 1.387 . S
H230 C237 0.950 . S
C231 C229 1.387 . S
C231 C233 1.390 . S
C231 H235 0.950 . S
H232 C228 0.950 . S
C233 C231 1.390 . S
C233 C234 1.387 . S
C233 H236 0.950 . S
C234 C233 1.387 . S
C234 C237 1.387 . S
H235 C231 0.950 . S
H236 C233 0.950 . S
C237 C228 1.390 . S
C237 H230 0.950 . S
C237 C234 1.387 . S
C238 C239 1.387 . S
C238 H242 0.950 . S
C238 C247 1.390 . S
C239 C238 1.387 . S
C239 C241 1.387 . S
H240 C247 0.950 . S
C241 C239 1.387 . S
C241 C243 1.390 . S
C241 H245 0.950 . S
H242 C238 0.950 . S
C243 C241 1.390 . S
C243 C244 1.387 . S
C243 H246 0.950 . S
C244 C243 1.387 . S
C244 C247 1.387 . S
H245 C241 0.950 . S
H246 C243 0.950 . S
C247 C238 1.390 . S
C247 H240 0.950 . S
C247 C244 1.387 . S
C248 C249 1.387 . S
C248 H252 0.950 . S
C248 C257 1.390 . S
C249 C248 1.387 . S
C249 C251 1.387 . S
H250 C257 0.950 . S
C251 C249 1.387 . S
C251 C253 1.390 . S
C251 H255 0.950 . S
H252 C248 0.950 . S
C253 C251 1.390 . S
C253 C254 1.387 . S
C253 H256 0.950 . S
C254 C253 1.387 . S
C254 C257 1.387 . S
H255 C251 0.950 . S
H256 C253 0.950 . S
C257 C248 1.390 . S
C257 H250 0.950 . S
C257 C254 1.387 . S
C258 C259 1.387 . S
C258 H262 0.950 . S
C258 C267 1.390 . S
C259 C258 1.387 . S
C259 C261 1.387 . S
H260 C267 0.950 . S
C261 C259 1.387 . S
C261 C263 1.390 . S
C261 H265 0.950 . S
H262 C258 0.950 . S
C263 C261 1.390 . S
C263 C264 1.387 . S
C263 H266 0.950 . S
C264 C263 1.387 . S
C264 C267 1.387 . S
H265 C261 0.950 . S
H266 C263 0.950 . S
C267 C258 1.390 . S
C267 H260 0.950 . S
C267 C264 1.387 . S
C268 C269 1.387 . S
C268 H272 0.950 . S
C268 C277 1.390 . S
C269 C268 1.387 . S
C269 C271 1.387 . S
H270 C277 0.950 . S
C271 C269 1.387 . S
C271 C273 1.390 . S
C271 H275 0.950 . S
H272 C268 0.950 . S
C273 C271 1.390 . S
C273 C274 1.387 . S
C273 H276 0.950 . S
C274 C273 1.387 . S
C274 C277 1.387 . S
H275 C271 0.950 . S
H276 C273 0.950 . S
C277 C268 1.390 . S
C277 H270 0.950 . S
C277 C274 1.387 . S
C278 C279 1.387 . S
C278 H282 0.950 . S
C278 C287 1.390 . S
C279 C278 1.387 . S
C279 C281 1.387 . S
H280 C287 0.950 . S
C281 C279 1.387 . S
C281 C283 1.390 . S
C281 H285 0.950 . S
H282 C278 0.950 . S
C283 C281 1.390 . S
C283 C284 1.387 . S
C283 H286 0.950 . S
C284 C283 1.387 . S
C284 C287 1.387 . S
H285 C281 0.950 . S
H286 C283 0.950 . S
C287 C278 1.390 . S
C287 H280 0.950 . S
C287 C284 1.387 . S
C288 C289 1.387 . S
C288 H292 0.950 . S
C288 C297 1.390 1_655 S
C289 C288 1.387 . S
C289 C291 1.387 . S
H290 C297 0.950 . S
C291 C289 1.387 . S
C291 C293 1.390 1_655 S
C291 H295 0.950 . S
H292 C288 0.950 . S
C293 C291 1.390 1_455 S
C293 C294 1.387 . S
C293 H296 0.950 . S
C294 C293 1.387 . S
C294 C297 1.387 . S
H295 C291 0.950 . S
H296 C293 0.950 . S
C297 C288 1.390 1_455 S
C297 H290 0.950 . S
C297 C294 1.387 . S
C298 C299 1.387 . S
C298 H302 0.950 . S
C298 C307 1.390 1_545 S
C299 C298 1.387 . S
C299 C301 1.387 . S
H300 C307 0.950 . S
C301 C299 1.387 . S
C301 C303 1.390 1_545 S
C301 H305 0.950 . S
H302 C298 0.950 . S
C303 C301 1.390 1_565 S
C303 C304 1.387 . S
C303 H306 0.950 . S
C304 C303 1.387 . S
C304 C307 1.387 . S
H305 C301 0.950 . S
H306 C303 0.950 . S
C307 C298 1.390 1_565 S
C307 H300 0.950 . S
C307 C304 1.387 . S
C308 C309 1.387 . S
C308 H312 0.950 . S
C308 C317 1.390 1_455 S
C309 C308 1.387 . S
C309 C311 1.387 . S
H310 C317 0.950 . S
C311 C309 1.387 . S
C311 C313 1.390 1_455 S
C311 H315 0.950 . S
H312 C308 0.950 . S
C313 C311 1.390 1_655 S
C313 C314 1.387 . S
C313 H316 0.950 . S
C314 C313 1.387 . S
C314 C317 1.387 . S
H315 C311 0.950 . S
H316 C313 0.950 . S
C317 C308 1.390 1_655 S
C317 H310 0.950 . S
C317 C314 1.387 . S
C318 C319 1.388 . S
C318 H322 0.950 . S
C318 C327 1.389 1_545 S
C319 C318 1.388 . S
C319 C321 1.388 . S
H320 C327 0.950 . S
C321 C319 1.388 . S
C321 C323 1.389 1_545 S
C321 H325 0.950 . S
H322 C318 0.950 . S
C323 C321 1.389 1_565 S
C323 C324 1.388 . S
C323 H326 0.950 . S
C324 C323 1.388 . S
C324 C327 1.388 . S
H325 C321 0.950 . S
H326 C323 0.950 . S
C327 C318 1.389 1_565 S
C327 H320 0.950 . S
C327 C324 1.388 . S
C328 C329 1.387 . S
C328 H332 0.950 . S
C328 C337 1.390 1_545 S
C329 C328 1.387 . S
C329 C331 1.387 . S
H330 C337 0.950 . S
C331 C329 1.387 . S
C331 C333 1.390 1_545 S
C331 H335 0.950 . S
H332 C328 0.950 . S
C333 C331 1.390 1_565 S
C333 C334 1.387 . S
C333 H336 0.950 . S
C334 C333 1.387 . S
C334 C337 1.387 . S
H335 C331 0.950 . S
H336 C333 0.950 . S
C337 C328 1.390 1_565 S
C337 H330 0.950 . S
C337 C334 1.387 . S
C338 C339 1.388 . S
C338 H342 0.950 . S
C338 C347 1.389 1_455 S
C339 C338 1.388 . S
C339 C341 1.388 . S
H340 C347 0.950 . S
C341 C339 1.388 . S
C341 C343 1.389 1_455 S
C341 H345 0.950 . S
H342 C338 0.950 . S
C343 C341 1.389 1_655 S
C343 C344 1.388 . S
C343 H346 0.950 . S
C344 C343 1.388 . S
C344 C347 1.388 . S
H345 C341 0.950 . S
H346 C343 0.950 . S
C347 C338 1.389 1_655 S
C347 H340 0.950 . S
C347 C344 1.388 . S
C348 C349 1.388 . S
C348 H352 0.950 . S
C348 C357 1.389 1_545 S
C349 C348 1.388 . S
C349 C351 1.388 . S
H350 C357 0.950 . S
C351 C349 1.388 . S
C351 C353 1.389 1_545 S
C351 H355 0.950 . S
H352 C348 0.950 . S
C353 C351 1.389 1_565 S
C353 C354 1.388 . S
C353 H356 0.950 . S
C354 C353 1.388 . S
C354 C357 1.388 . S
H355 C351 0.950 . S
H356 C353 0.950 . S
C357 C348 1.389 1_565 S
C357 H350 0.950 . S
C357 C354 1.388 . S
C358 C359 1.387 . S
C358 H362 0.950 . S
C358 C367 1.390 1_655 S
C359 C358 1.387 . S
C359 C361 1.387 . S
H360 C367 0.950 . S
C361 C359 1.387 . S
C361 C363 1.390 1_655 S
C361 H365 0.950 . S
H362 C358 0.950 . S
C363 C361 1.390 1_455 S
C363 C364 1.387 . S
C363 H366 0.950 . S
C364 C363 1.387 . S
C364 C367 1.387 . S
H365 C361 0.950 . S
H366 C363 0.950 . S
C367 C358 1.390 1_455 S
C367 H360 0.950 . S
C367 C364 1.387 . S
C368 C369 1.388 . S
C368 H372 0.950 . S
C368 C377 1.389 1_554 S
C369 C368 1.388 . S
C369 C371 1.388 . S
H370 C377 0.950 . S
C371 C369 1.388 . S
C371 C373 1.389 1_554 S
C371 H375 0.950 . S
H372 C368 0.950 . S
C373 C371 1.389 1_556 S
C373 C374 1.388 . S
C373 H376 0.950 . S
C374 C373 1.388 . S
C374 C377 1.388 . S
H375 C371 0.950 . S
H376 C373 0.950 . S
C377 C368 1.389 1_556 S
C377 H370 0.950 . S
C377 C374 1.388 . S
C378 C379 1.388 . S
C378 H382 0.950 . S
C378 C387 1.389 1_556 S
C379 C378 1.388 . S
C379 C381 1.388 . S
H380 C387 0.950 . S
C381 C379 1.388 . S
C381 C383 1.389 1_556 S
C381 H385 0.950 . S
H382 C378 0.950 . S
C383 C381 1.389 1_554 S
C383 C384 1.388 . S
C383 H386 0.950 . S
C384 C383 1.388 . S
C384 C387 1.388 . S
H385 C381 0.950 . S
H386 C383 0.950 . S
C387 C378 1.389 1_554 S
C387 H380 0.950 . S
C387 C384 1.388 . S
C388 C389 1.387 . S
C388 H392 0.950 . S
C388 C397 1.390 1_556 S
C389 C388 1.387 . S
C389 C391 1.387 . S
H390 C397 0.950 . S
C391 C389 1.387 . S
C391 C393 1.390 1_556 S
C391 H395 0.950 . S
H392 C388 0.950 . S
C393 C391 1.390 1_554 S
C393 C394 1.387 . S
C393 H396 0.950 . S
C394 C393 1.387 . S
C394 C397 1.387 . S
H395 C391 0.950 . S
H396 C393 0.950 . S
C397 C388 1.390 1_554 S
C397 H390 0.950 . S
C397 C394 1.387 . S
C398 C399 1.388 . S
C398 H402 0.950 . S
C398 C407 1.389 1_554 S
C399 C398 1.388 . S
C399 C401 1.388 . S
H400 C407 0.950 . S
C401 C399 1.388 . S
C401 C403 1.389 1_554 S
C401 H405 0.950 . S
H402 C398 0.950 . S
C403 C401 1.389 1_556 S
C403 C404 1.388 . S
C403 H406 0.950 . S
C404 C403 1.388 . S
C404 C407 1.388 . S
H405 C401 0.950 . S
H406 C403 0.950 . S
C407 C398 1.389 1_556 S
C407 H400 0.950 . S
C407 C404 1.388 . S
C169 C12 1.494 . S
C174 C99 1.493 . S
C179 C27 1.493 . S
C184 C69 1.493 . S
C189 C71 1.494 . S
C194 C29 1.492 . S
C199 C97 1.492 . S
C204 C55 1.494 . S
C209 C113 1.494 . S
C214 C110 1.493 . S
C219 C126 1.493 . S
C224 C56 1.493 . S
C229 C140 1.492 . S
C234 C82 1.494 . S
C239 C167 1.492 . S
C244 C84 1.493 . S
C249 C14 1.494 . S
C254 C139 1.493 . S
C259 C153 1.492 . S
C264 C40 1.493 . S
C269 C42 1.494 . S
C274 C154 1.492 . S
C279 C124 1.493 . S
C284 C1 1.494 . S
C289 C85 1.707 . S
C294 C0 1.705 . S
C299 C111 1.705 . S
C304 C15 1.705 . S
C309 C57 1.707 . S
C314 C41 1.707 . S
C319 C43 1.708 . S
C324 C83 1.708 . S
C329 C98 1.705 . S
C334 C70 1.705 . S
C339 C68 1.710 . S
C344 C96 1.710 . S
C349 C54 1.708 . S
C354 C26 1.708 . S
C359 C28 1.707 . S
C364 C13 1.705 . S
C369 C112 1.708 . S
C374 C138 1.708 . S
C379 C127 1.708 . S
C384 C152 1.710 . S
C389 C155 1.707 . S
C394 C141 1.707 . S
C399 C125 1.708 . S
C404 C166 1.710 . S
