# Generated by pormake.
# Topology zfe, (5)-cn, num edge types: 1
# Building blocks:
#     Node 0, Type 0, BuildingBlock: XOMCOT_clean_sbu_1, # of connection points: 5
#     Node 1, Type 0, BuildingBlock: XOMCOT_clean_sbu_1, # of connection points: 5
#     Node 2, Type 0, BuildingBlock: XOMCOT_clean_sbu_1, # of connection points: 5
#     Node 3, Type 0, BuildingBlock: XOMCOT_clean_sbu_1, # of connection points: 5
#     Node 4, Type 0, BuildingBlock: XOMCOT_clean_sbu_1, # of connection points: 5
#     Node 5, Type 0, BuildingBlock: XOMCOT_clean_sbu_1, # of connection points: 5
#     Node 6, Type 0, BuildingBlock: XOMCOT_clean_sbu_1, # of connection points: 5
#     Node 7, Type 0, BuildingBlock: XOMCOT_clean_sbu_1, # of connection points: 5
#     Node 8, Type 0, BuildingBlock: XOMCOT_clean_sbu_1, # of connection points: 5
#     Node 9, Type 0, BuildingBlock: XOMCOT_clean_sbu_1, # of connection points: 5
#     Node 10, Type 0, BuildingBlock: XOMCOT_clean_sbu_1, # of connection points: 5
#     Node 11, Type 0, BuildingBlock: XOMCOT_clean_sbu_1, # of connection points: 5
#     Node 12, Type 0, BuildingBlock: XOMCOT_clean_sbu_1, # of connection points: 5
#     Node 13, Type 0, BuildingBlock: XOMCOT_clean_sbu_1, # of connection points: 5
#     Node 14, Type 0, BuildingBlock: XOMCOT_clean_sbu_1, # of connection points: 5
#     Node 15, Type 0, BuildingBlock: XOMCOT_clean_sbu_1, # of connection points: 5
#     Edge 16, Type (0, 0), BuildingBlock: CIFDUS_clean_linker_0, # of connection points: 2
#     Edge 17, Type (0, 0), BuildingBlock: CIFDUS_clean_linker_0, # of connection points: 2
#     Edge 18, Type (0, 0), BuildingBlock: CIFDUS_clean_linker_0, # of connection points: 2
#     Edge 19, Type (0, 0), BuildingBlock: CIFDUS_clean_linker_0, # of connection points: 2
#     Edge 20, Type (0, 0), BuildingBlock: CIFDUS_clean_linker_0, # of connection points: 2
#     Edge 21, Type (0, 0), BuildingBlock: CIFDUS_clean_linker_0, # of connection points: 2
#     Edge 22, Type (0, 0), BuildingBlock: CIFDUS_clean_linker_0, # of connection points: 2
#     Edge 23, Type (0, 0), BuildingBlock: CIFDUS_clean_linker_0, # of connection points: 2
#     Edge 24, Type (0, 0), BuildingBlock: CIFDUS_clean_linker_0, # of connection points: 2
#     Edge 25, Type (0, 0), BuildingBlock: CIFDUS_clean_linker_0, # of connection points: 2
#     Edge 26, Type (0, 0), BuildingBlock: CIFDUS_clean_linker_0, # of connection points: 2
#     Edge 27, Type (0, 0), BuildingBlock: CIFDUS_clean_linker_0, # of connection points: 2
#     Edge 28, Type (0, 0), BuildingBlock: CIFDUS_clean_linker_0, # of connection points: 2
#     Edge 29, Type (0, 0), BuildingBlock: CIFDUS_clean_linker_0, # of connection points: 2
#     Edge 30, Type (0, 0), BuildingBlock: CIFDUS_clean_linker_0, # of connection points: 2
#     Edge 31, Type (0, 0), BuildingBlock: CIFDUS_clean_linker_0, # of connection points: 2
#     Edge 32, Type (0, 0), BuildingBlock: CIFDUS_clean_linker_0, # of connection points: 2
#     Edge 33, Type (0, 0), BuildingBlock: CIFDUS_clean_linker_0, # of connection points: 2
#     Edge 34, Type (0, 0), BuildingBlock: CIFDUS_clean_linker_0, # of connection points: 2
#     Edge 35, Type (0, 0), BuildingBlock: CIFDUS_clean_linker_0, # of connection points: 2
#     Edge 36, Type (0, 0), BuildingBlock: CIFDUS_clean_linker_0, # of connection points: 2
#     Edge 37, Type (0, 0), BuildingBlock: CIFDUS_clean_linker_0, # of connection points: 2
#     Edge 38, Type (0, 0), BuildingBlock: CIFDUS_clean_linker_0, # of connection points: 2
#     Edge 39, Type (0, 0), BuildingBlock: CIFDUS_clean_linker_0, # of connection points: 2
#     Edge 40, Type (0, 0), BuildingBlock: CIFDUS_clean_linker_0, # of connection points: 2
#     Edge 41, Type (0, 0), BuildingBlock: CIFDUS_clean_linker_0, # of connection points: 2
#     Edge 42, Type (0, 0), BuildingBlock: CIFDUS_clean_linker_0, # of connection points: 2
#     Edge 43, Type (0, 0), BuildingBlock: CIFDUS_clean_linker_0, # of connection points: 2
#     Edge 44, Type (0, 0), BuildingBlock: CIFDUS_clean_linker_0, # of connection points: 2
#     Edge 45, Type (0, 0), BuildingBlock: CIFDUS_clean_linker_0, # of connection points: 2
#     Edge 46, Type (0, 0), BuildingBlock: CIFDUS_clean_linker_0, # of connection points: 2
#     Edge 47, Type (0, 0), BuildingBlock: CIFDUS_clean_linker_0, # of connection points: 2
#     Edge 48, Type (0, 0), BuildingBlock: CIFDUS_clean_linker_0, # of connection points: 2
#     Edge 49, Type (0, 0), BuildingBlock: CIFDUS_clean_linker_0, # of connection points: 2
#     Edge 50, Type (0, 0), BuildingBlock: CIFDUS_clean_linker_0, # of connection points: 2
#     Edge 51, Type (0, 0), BuildingBlock: CIFDUS_clean_linker_0, # of connection points: 2
#     Edge 52, Type (0, 0), BuildingBlock: CIFDUS_clean_linker_0, # of connection points: 2
#     Edge 53, Type (0, 0), BuildingBlock: CIFDUS_clean_linker_0, # of connection points: 2
#     Edge 54, Type (0, 0), BuildingBlock: CIFDUS_clean_linker_0, # of connection points: 2
#     Edge 55, Type (0, 0), BuildingBlock: CIFDUS_clean_linker_0, # of connection points: 2
# Relax obj value: 0.180
# Max RMSD: 0.150
# Mean RMSD: 0.150
data_MOF--net-zfe--node1-XOMCOT_clean_sbu_1--edge1-CIFDUS_clean_linker_0
_symmetry_space_group_name_H-M    P1
_symmetry_Int_Tables_number       1
_symmetry_cell_setting            triclinic
loop_
_symmetry_equiv_pos_as_xyz
'x, y, z'
_cell_length_a     49.057178
_cell_length_b     49.062912
_cell_length_c     24.292878
_cell_angle_alpha  89.927584
_cell_angle_beta   90.01413
_cell_angle_gamma 89.925096
loop_
_atom_site_label
_atom_site_type_symbol
_atom_site_fract_x
_atom_site_fract_y
_atom_site_fract_z
_atom_type_partial_charge
C0 C 0.09782 0.24747 0.03271 0.0
C1 C 0.11605 0.2683 1.02449 0.0
N2 N 0.10724 0.29017 0.05264 0.0
N3 N 0.07759 0.25609 0.06609 0.0
C4 C 0.0837 0.28242 0.07687 0.0
H5 H 0.09948 0.22706 1.01625 0.0
Co6 Co 0.04848 0.23387 0.08811 0.0
C7 C 0.05397 0.26668 0.19998 0.0
O8 O 0.07919 0.27537 0.1958 0.0
N9 N 0.01953 0.21163 0.11179 0.0
C10 C 0.99555 0.18748 0.17192 0.0
C11 C 0.01876 0.20208 0.1639 0.0
C12 C 0.99636 0.20207 0.08848 0.0
N13 N 0.98129 0.18712 0.12451 0.0
O14 O 0.02348 0.25714 0.04666 0.0
H15 H 0.03417 0.20569 0.19487 0.0
H16 H 0.99079 0.20598 0.04613 0.0
O17 O 0.04328 0.25311 0.16032 0.0
C18 C 0.02738 0.24898 0.99688 0.0
O19 O 0.04399 0.22833 0.98893 0.0
N20 N 0.0733 0.20864 0.11714 0.0
C21 C 0.11193 0.1672 0.12875 0.0
C22 C 0.11341 0.19089 0.16123 0.0
C23 C 0.0939 0.21162 0.15442 0.0
C24 C 0.07149 0.18558 0.08618 0.0
C25 C 0.09022 0.16459 0.09178 0.0
H26 H 0.09621 0.23023 0.17712 0.0
H27 H 0.05571 0.18382 0.05532 0.0
H28 H 0.07127 0.29572 0.10197 0.0
H29 H 0.13501 0.2671 1.00179 0.0
H30 H 0.98968 0.17835 0.21061 0.0
H31 H 0.12998 0.19381 0.19008 0.0
H32 H 0.08777 0.14652 0.06671 0.0
C33 C 0.76231 0.09771 1.02464 0.0
C34 C 0.7416 0.11601 1.01531 0.0
N35 N 0.71863 0.10583 0.03728 0.0
N36 N 0.7526 0.07605 0.05289 0.0
C37 C 0.72565 0.08142 0.05884 0.0
H38 H 0.78313 0.10015 1.01118 0.0
Co39 Co 0.77286 0.04459 0.07237 0.0
C40 C 0.74137 0.0551 0.17914 0.0
O41 O 0.73951 0.0814 0.16966 0.0
N42 N 0.79297 0.01337 0.09211 0.0
C43 C 0.81547 0.9844 0.14594 0.0
C44 C 0.80151 0.0085 0.14405 0.0
C45 C 0.8022 0.99172 0.06291 0.0
N46 N 0.81589 0.9736 0.09503 0.0
O47 O 0.74772 0.02256 0.02979 0.0
H48 H 0.798 0.02175 0.17883 0.0
H49 H 0.79876 0.98922 1.01922 0.0
O50 O 0.75246 0.03969 0.14287 0.0
C51 C 0.75485 0.02757 0.97992 0.0
O52 O 0.77568 0.04383 0.97155 0.0
N53 N 0.80003 0.06633 0.10444 0.0
C54 C 0.84577 0.0984 0.12505 0.0
C55 C 0.82624 0.09397 0.16637 0.0
C56 C 0.80341 0.07773 0.15529 0.0
C57 C 0.81956 0.06953 0.06509 0.0
C58 C 0.84231 0.08569 0.07413 0.0
H59 H 0.78925 0.07409 0.18813 0.0
H60 H 0.81722 0.0596 0.02573 0.0
H61 H 0.71148 0.06789 0.07932 0.0
H62 H 0.74345 0.13575 0.99569 0.0
H63 H 0.82513 0.97588 0.18213 0.0
H64 H 0.82856 0.103 0.20675 0.0
H65 H 0.85733 0.08781 0.04172 0.0
C66 C 0.92062 0.73572 0.94997 0.0
C67 C 0.90364 0.71411 0.95976 0.0
N68 N 0.90615 0.70684 1.01295 0.0
N69 N 0.93414 0.74215 0.99644 0.0
C70 C 0.92463 0.72433 0.03455 0.0
H71 H 0.92224 0.7467 0.91168 0.0
Co72 Co 0.95965 0.77054 0.9999 0.0
C73 C 0.99181 0.74118 0.09202 0.0
O74 O 0.00745 0.72707 0.05866 0.0
N75 N 0.98522 0.79882 1.00326 0.0
C76 C 0.00331 0.84027 1.0083 0.0
C77 C 0.98048 0.82557 0.9942 0.0
C78 C 0.01136 0.79765 1.0208 0.0
N79 N 0.02261 0.82261 0.02502 0.0
O80 O 0.98413 0.74931 0.95205 0.0
H81 H 0.96128 0.83397 0.98029 0.0
H82 H 0.02173 0.77903 0.03219 0.0
O83 O 0.97355 0.75692 0.07177 0.0
C84 C 0.97925 0.7592 0.90386 0.0
O85 O 0.96331 0.7807 0.90073 0.0
N86 N 0.93424 0.79255 0.03674 0.0
C87 C 0.89892 0.83447 0.06811 0.0
C88 C 0.92017 0.82597 0.10312 0.0
C89 C 0.93783 0.80503 0.08643 0.0
C90 C 0.91316 0.79994 1.00333 0.0
C91 C 0.89518 0.82062 1.01834 0.0
H92 H 0.95543 0.80039 0.11141 0.0
H93 H 0.91121 0.79089 0.96303 0.0
H94 H 0.931 0.7242 0.0772 0.0
H95 H 0.88967 0.70513 0.93044 0.0
H96 H 0.00553 0.86221 1.00688 0.0
H97 H 0.92409 0.83643 0.14153 0.0
H98 H 0.87899 0.82628 0.99024 0.0
C99 C 0.23976 0.90251 0.02491 0.0
C100 C 0.26122 0.88493 1.01677 0.0
N101 N 0.28341 0.89567 0.04082 0.0
N102 N 0.24835 0.92421 0.0543 0.0
C103 C 0.27523 0.91961 0.06259 0.0
H104 H 0.21915 0.89959 1.01036 0.0
Co105 Co 0.22671 0.95441 0.07312 0.0
C106 C 0.25823 0.94747 0.18364 0.0
O107 O 0.26466 0.92166 0.17746 0.0
N108 N 0.20535 0.98465 0.09373 0.0
C109 C 0.18178 0.01101 0.15095 0.0
C110 C 0.19273 0.98575 0.14316 0.0
C111 C 0.20172 0.00988 0.07213 0.0
N112 N 0.18761 0.02639 0.10669 0.0
O113 O 0.25129 0.97789 0.03135 0.0
H114 H 0.19241 0.96952 0.17324 0.0
H115 H 0.2102 0.01639 0.03316 0.0
O116 O 0.2454 0.95998 0.14516 0.0
C117 C 0.24429 0.97298 0.98122 0.0
O118 O 0.22414 0.95591 0.97265 0.0
N119 N 0.20018 0.93099 0.10251 0.0
C120 C 0.15505 0.89743 0.11682 0.0
C121 C 0.17615 0.89739 0.15586 0.0
C122 C 0.19893 0.91436 0.14768 0.0
C123 C 0.17949 0.93125 0.06512 0.0
C124 C 0.15687 0.91467 0.07135 0.0
H125 H 0.21513 0.91397 0.17743 0.0
H126 H 0.18077 0.94439 0.02949 0.0
H127 H 0.28857 0.93342 0.08445 0.0
H128 H 0.26038 0.86527 0.99664 0.0
H129 H 0.1705 0.01757 0.18687 0.0
H130 H 0.17514 0.88429 0.1917 0.0
H131 H 0.14083 0.91529 0.04066 0.0
C132 C 0.0998 0.77206 0.54693 0.0
C133 C 0.11952 0.75213 0.55194 0.0
N134 N 0.10891 0.72839 0.53431 0.0
N135 N 0.07699 0.76097 0.52548 0.0
C136 C 0.08295 0.7342 0.52004 0.0
H137 H 0.10213 0.79338 0.55716 0.0
Co138 Co 0.04357 0.77813 0.50989 0.0
C139 C 0.05433 0.74727 0.39964 0.0
O140 O 0.08054 0.74418 0.40851 0.0
N141 N 0.00988 0.79472 0.49333 0.0
C142 C 0.97818 0.81493 0.44215 0.0
C143 C 0.00385 0.80407 0.44243 0.0
C144 C 0.98745 0.80051 0.52368 0.0
N145 N 0.96775 0.81268 0.49315 0.0
O146 O 0.02547 0.75024 0.55455 0.0
H147 H 0.01759 0.8036 0.40763 0.0
H148 H 0.9856 0.79598 0.56712 0.0
O149 O 0.0394 0.75855 0.43672 0.0
C150 C 0.02951 0.76028 0.60291 0.0
O151 O 0.04087 0.78446 0.60624 0.0
N152 N 0.06193 0.80824 0.47841 0.0
C153 C 0.09138 0.85652 0.46586 0.0
C154 C 0.09734 0.83377 0.433 0.0
C155 C 0.08214 0.80966 0.43971 0.0
C156 C 0.05609 0.83048 0.51002 0.0
C157 C 0.07015 0.8548 0.5038 0.0
H158 H 0.08777 0.79209 0.41606 0.0
H159 H 0.04106 0.82904 0.54239 0.0
H160 H 0.06874 0.71935 0.50391 0.0
H161 H 0.14042 0.75513 0.56487 0.0
H162 H 0.96832 0.82466 0.40741 0.0
H163 H 0.11392 0.83444 0.4036 0.0
H164 H 0.06527 0.87185 0.5304 0.0
C165 C 0.27119 0.07685 0.63597 0.0
C166 C 0.29213 0.09457 0.62582 0.0
N167 N 0.2949 0.09735 0.57099 0.0
N168 N 0.26069 0.06799 0.5879 0.0
C169 C 0.27545 0.08108 0.54882 0.0
H170 H 0.26349 0.07186 0.6763 0.0
Co171 Co 0.22995 0.04542 0.58284 0.0
C172 C 0.22927 0.02244 0.46762 0.0
O173 O 0.2026 0.02476 0.46844 0.0
N174 N 0.19884 0.02256 0.5796 0.0
C175 C 0.15621 0.00734 0.57439 0.0
C176 C 0.17234 0.02947 0.58589 0.0
C177 C 0.1982 0.99562 0.5671 0.0
N178 N 0.17247 0.98614 0.56186 0.0
O179 O 0.24846 0.01777 0.62732 0.0
H180 H 0.16483 0.04941 0.59664 0.0
H181 H 0.21624 0.98373 0.55791 0.0
O182 O 0.24334 0.0301 0.50978 0.0
C183 C 0.24035 0.02242 0.67677 0.0
O184 O 0.22167 0.04128 0.68417 0.0
N185 N 0.21076 0.0745 0.54942 0.0
C186 C 0.17167 0.11393 0.52493 0.0
C187 C 0.18644 0.1012 0.48259 0.0
C188 C 0.20678 0.08214 0.4959 0.0
C189 C 0.19924 0.08941 0.59063 0.0
C190 C 0.17951 0.10905 0.57944 0.0
H191 H 0.2185 0.0733 0.46309 0.0
H192 H 0.20378 0.08441 0.63297 0.0
H193 H 0.27153 0.07925 0.50514 0.0
H194 H 0.30344 0.10572 0.6567 0.0
H195 H 0.13415 0.00702 0.5742 0.0
H196 H 0.18173 0.10531 0.43982 0.0
H197 H 0.16894 0.11863 0.61347 0.0
C198 C 0.92017 0.2597 0.64904 0.0
C199 C 0.9019 0.28071 0.64576 0.0
N200 N 0.90518 0.29309 0.59693 0.0
N201 N 0.93492 0.25802 0.60212 0.0
C202 C 0.92564 0.2794 0.57167 0.0
H203 H 0.92212 0.24617 0.68388 0.0
Co204 Co 0.96306 0.23128 0.59477 0.0
C205 C 0.96296 0.24946 0.47619 0.0
O206 O 0.93659 0.24473 0.47615 0.0
N207 N 0.99084 0.20532 0.59044 0.0
C208 C 0.01297 0.16584 0.59438 0.0
C209 C 0.98887 0.17896 0.6059 0.0
C210 C 0.0166 0.20802 0.57137 0.0
N211 N 0.03032 0.18417 0.57278 0.0
O212 O 0.9865 0.25412 0.64058 0.0
H213 H 0.97087 0.16981 0.62378 0.0
H214 H 0.02505 0.22698 0.55629 0.0
O215 O 0.97621 0.24701 0.52178 0.0
C216 C 0.9824 0.2453 0.68981 0.0
O217 O 0.96685 0.22374 0.6961 0.0
N218 N 0.93904 0.20628 0.55922 0.0
C219 C 0.90923 0.15887 0.53496 0.0
C220 C 0.93071 0.16747 0.50072 0.0
C221 C 0.94568 0.1909 0.51412 0.0
C222 C 0.91765 0.19857 0.59154 0.0
C223 C 0.90243 0.17535 0.57997 0.0
H224 H 0.96385 0.19537 0.49068 0.0
H225 H 0.9138 0.20867 0.62993 0.0
H226 H 0.93404 0.28565 0.53266 0.0
H227 H 0.88675 0.28592 0.6764 0.0
H228 H 0.01765 0.14462 0.60223 0.0
H229 H 0.93694 0.15544 0.46556 0.0
H230 H 0.88693 0.16925 0.60918 0.0
C231 C 0.72754 0.93004 0.63195 0.0
C232 C 0.70619 0.91322 0.61958 0.0
N233 N 0.70498 0.91034 0.56457 0.0
N234 N 0.7398 0.93822 0.58503 0.0
C235 C 0.72572 0.92557 0.54447 0.0
H236 H 0.73415 0.93495 0.67307 0.0
Co237 Co 0.77098 0.96019 0.58176 0.0
C238 C 0.76873 0.98932 0.47072 0.0
O239 O 0.79514 0.9934 0.47107 0.0
N240 N 0.80252 0.98224 0.58053 0.0
C241 C 0.84561 0.99621 0.58058 0.0
C242 C 0.82871 0.97398 0.58422 0.0
C243 C 0.80408 0.00977 0.57718 0.0
N244 N 0.83013 0.01878 0.57535 0.0
O245 O 0.75282 0.9873 0.62691 0.0
H246 H 0.83536 0.95312 0.58893 0.0
H247 H 0.78635 0.02276 0.57293 0.0
O248 O 0.75723 0.97639 0.51056 0.0
C249 C 0.76052 0.98176 0.67612 0.0
O250 O 0.77863 0.96228 0.68307 0.0
N251 N 0.78967 0.93176 0.54629 0.0
C252 C 0.82686 0.8906 0.52049 0.0
C253 C 0.81741 0.90866 0.47969 0.0
C254 C 0.79857 0.92905 0.49335 0.0
C255 C 0.79689 0.91299 0.58508 0.0
C256 C 0.81539 0.89229 0.57316 0.0
H257 H 0.7923 0.94292 0.46169 0.0
H258 H 0.7894 0.91512 0.62671 0.0
H259 H 0.73094 0.92704 0.50128 0.0
H260 H 0.69341 0.90275 0.64911 0.0
H261 H 0.86765 0.99568 0.58177 0.0
H262 H 0.8255 0.90802 0.43825 0.0
H263 H 0.82139 0.87835 0.60559 0.0
C264 C 0.59913 0.74787 0.47409 0.0
C265 C 0.617 0.76937 0.47128 0.0
N266 N 0.60435 0.79183 0.49053 0.0
N267 N 0.57534 0.75655 0.49563 0.0
C268 C 0.57892 0.7835 0.50406 0.0
H269 H 0.60344 0.72704 0.46246 0.0
Co270 Co 0.54483 0.73482 0.51019 0.0
C271 C 0.54388 0.76869 0.62036 0.0
O272 O 0.56927 0.77695 0.62399 0.0
N273 N 0.51421 0.71337 0.52701 0.0
C274 C 0.48586 0.69068 0.58166 0.0
C275 C 0.51089 0.70254 0.57778 0.0
C276 C 0.49062 0.70759 0.50042 0.0
N277 N 0.47294 0.69399 0.53333 0.0
O278 O 0.5226 0.75888 0.46529 0.0
H279 H 0.52553 0.70388 0.61094 0.0
H280 H 0.4861 0.71406 0.4588 0.0
O281 O 0.53616 0.75439 0.57917 0.0
C282 C 0.5292 0.75331 0.41542 0.0
O283 O 0.54751 0.7342 0.40692 0.0
N284 N 0.56736 0.70911 0.54496 0.0
C285 C 0.60331 0.66666 0.57029 0.0
C286 C 0.6029 0.69069 0.60196 0.0
C287 C 0.58477 0.71184 0.5884 0.0
C288 C 0.56745 0.68591 0.51422 0.0
C289 C 0.58487 0.6644 0.52651 0.0
H290 H 0.58557 0.73049 0.61141 0.0
H291 H 0.55412 0.68434 0.47888 0.0
H292 H 0.56323 0.79663 0.52062 0.0
H293 H 0.6381 0.76815 0.45853 0.0
H294 H 0.47773 0.68037 0.61751 0.0
H295 H 0.61699 0.69349 0.63579 0.0
H296 H 0.58386 0.64617 0.50153 0.0
C297 C 0.24896 0.5913 0.44606 0.0
C298 C 0.2295 0.6115 0.44597 0.0
N299 N 0.21453 0.60898 0.49206 0.0
N300 N 0.24606 0.57586 0.49163 0.0
C301 C 0.22485 0.58719 0.519 0.0
H302 H 0.26482 0.58856 0.41566 0.0
Co303 Co 0.26923 0.54693 0.51032 0.0
C304 C 0.25206 0.54656 0.6323 0.0
O305 O 0.26938 0.56577 0.64531 0.0
N306 N 0.29221 0.51717 0.53094 0.0
C307 C 0.31949 0.49251 0.58483 0.0
C308 C 0.30501 0.51616 0.58022 0.0
C309 C 0.2995 0.49345 0.50614 0.0
N310 N 0.31604 0.47804 0.53844 0.0
O311 O 0.24543 0.52296 0.46868 0.0
H312 H 0.3047 0.53206 0.61077 0.0
H313 H 0.29276 0.48744 0.46556 0.0
O314 O 0.24931 0.53941 0.58159 0.0
C315 C 0.25565 0.5242 0.42006 0.0
O316 O 0.27944 0.53612 0.41412 0.0
N317 N 0.29483 0.57245 0.53893 0.0
C318 C 0.33508 0.61287 0.54575 0.0
C319 C 0.30905 0.61724 0.56798 0.0
C320 C 0.28901 0.59707 0.56283 0.0
C321 C 0.31997 0.56849 0.51595 0.0
C322 C 0.34042 0.58796 0.52007 0.0
H323 H 0.2686 0.60188 0.57619 0.0
H324 H 0.32405 0.55064 0.49132 0.0
H325 H 0.21771 0.58036 0.5588 0.0
H326 H 0.22739 0.62766 0.41587 0.0
H327 H 0.33236 0.48685 0.6192 0.0
H328 H 0.30383 0.63654 0.58685 0.0
H329 H 0.36014 0.58368 0.50196 0.0
C330 C 0.40323 0.25758 0.45634 0.0
C331 C 0.38396 0.23759 0.46316 0.0
N332 N 0.39523 0.21695 0.49194 0.0
N333 N 0.42662 0.24983 0.48108 0.0
C334 C 0.42116 0.22493 0.50229 0.0
H335 H 0.40044 0.27664 0.43461 0.0
Co336 Co 0.4595 0.26953 0.47834 0.0
C337 C 0.47364 0.26204 0.60026 0.0
O338 O 0.46475 0.28668 0.61066 0.0
N339 N 0.4932 0.28859 0.47419 0.0
C340 C 0.53375 0.3023 0.44319 0.0
C341 C 0.50992 0.28919 0.42991 0.0
C342 C 0.50724 0.30235 0.5134 0.0
N343 N 0.53201 0.31049 0.49578 0.0
O344 O 0.47486 0.24059 0.43227 0.0
H345 H 0.50547 0.28048 0.3902 0.0
H346 H 0.49983 0.30629 0.55429 0.0
O347 O 0.47269 0.25256 0.55064 0.0
C348 C 0.46444 0.2462 0.38495 0.0
O349 O 0.44905 0.26806 0.38097 0.0
N350 N 0.44185 0.29973 0.51268 0.0
C351 C 0.40702 0.34393 0.53384 0.0
C352 C 0.4036 0.31901 0.56139 0.0
C353 C 0.42087 0.29708 0.54955 0.0
C354 C 0.44534 0.32395 0.4857 0.0
C355 C 0.42854 0.34631 0.49628 0.0
H356 H 0.4168 0.27761 0.56879 0.0
H357 H 0.46015 0.32572 0.45302 0.0
H358 H 0.43613 0.21267 0.52374 0.0
H359 H 0.36312 0.23843 0.44863 0.0
H360 H 0.55094 0.30577 0.41616 0.0
H361 H 0.38691 0.31602 0.58992 0.0
H362 H 0.43196 0.36511 0.47393 0.0
C363 C 0.74687 0.40813 0.5023 0.0
C364 C 0.76837 0.39006 0.50149 0.0
N365 N 0.7867 0.39796 0.53956 0.0
N366 N 0.75156 0.42737 0.54076 0.0
C367 C 0.77607 0.42072 0.56247 0.0
H368 H 0.72863 0.40694 0.47741 0.0
Co369 Co 0.72845 0.45658 0.55894 0.0
C370 C 0.74514 0.45625 0.68021 0.0
O371 O 0.72714 0.4376 0.6929 0.0
N372 N 0.70616 0.48669 0.57898 0.0
C373 C 0.68024 0.51327 0.63159 0.0
C374 C 0.69298 0.48858 0.62769 0.0
C375 C 0.7011 0.51092 0.554 0.0
N376 N 0.68544 0.52756 0.58549 0.0
O377 O 0.75246 0.48046 0.51826 0.0
H378 H 0.69217 0.47279 0.65856 0.0
H379 H 0.70915 0.51646 0.5141 0.0
O380 O 0.74817 0.46356 0.62976 0.0
C381 C 0.74481 0.47615 0.4685 0.0
O382 O 0.72323 0.46082 0.46038 0.0
N383 N 0.70231 0.43139 0.58787 0.0
C384 C 0.66165 0.39126 0.59303 0.0
C385 C 0.688 0.38594 0.61288 0.0
C386 C 0.70812 0.40622 0.60956 0.0
C387 C 0.67675 0.4363 0.56758 0.0
C388 C 0.65608 0.41707 0.57147 0.0
H389 H 0.72873 0.40101 0.62132 0.0
H390 H 0.67252 0.45452 0.54411 0.0
H391 H 0.78589 0.43225 0.59476 0.0
H392 H 0.76983 0.37192 0.47635 0.0
H393 H 0.6676 0.51987 0.66555 0.0
H394 H 0.69334 0.36592 0.62831 0.0
H395 H 0.63647 0.42163 0.55307 0.0
C396 C 0.58906 0.25666 0.06994 0.0
C397 C 0.60834 0.23658 0.07689 0.0
N398 N 0.60331 0.21673 0.04014 0.0
N399 N 0.57193 0.24951 0.02898 0.0
C400 C 0.58104 0.22491 1.01189 0.0
H401 H 0.58764 0.27544 0.09304 0.0
Co402 Co 0.542 0.27059 1.00757 0.0
C403 C 0.54658 0.24079 0.88981 0.0
O404 O 0.57189 0.23246 0.88444 0.0
N405 N 0.5118 0.29179 0.98485 0.0
C406 C 0.48684 0.31736 0.92835 0.0
C407 C 0.51118 0.30422 0.93519 0.0
C408 C 0.48736 0.29796 1.00775 0.0
N409 N 0.47171 0.31342 0.97382 0.0
O410 O 0.51853 0.24411 0.04332 0.0
H411 H 0.52754 0.30374 0.90536 0.0
H412 H 0.48104 0.2911 0.0481 0.0
O413 O 0.53932 0.25336 0.93377 0.0
C414 C 0.51896 0.25295 0.09307 0.0
O415 O 0.53 0.27691 0.10222 0.0
N416 N 0.56581 0.29794 0.98332 0.0
C417 C 0.60564 0.33868 0.98314 0.0
C418 C 0.60836 0.31546 0.94944 0.0
C419 C 0.5882 0.29508 0.95047 0.0
C420 C 0.56253 0.32074 1.01461 0.0
C421 C 0.58191 0.34138 1.01465 0.0
H422 H 0.59147 0.27642 0.92798 0.0
H423 H 0.54532 0.32234 0.04222 0.0
H424 H 0.57136 0.21288 0.98026 0.0
H425 H 0.62529 0.2369 0.10545 0.0
H426 H 0.48103 0.32949 0.89298 0.0
H427 H 0.62646 0.31243 0.92468 0.0
H428 H 0.57852 0.35909 0.04036 0.0
C429 C 0.754 0.59083 0.1232 0.0
C430 C 0.77578 0.60836 0.12417 0.0
N431 N 0.79594 0.59762 0.09341 0.0
N432 N 0.76008 0.56905 0.09163 0.0
C433 C 0.78603 0.57352 0.07504 0.0
H434 H 0.73457 0.59424 0.14299 0.0
Co435 Co 0.73521 0.54102 0.07433 0.0
C436 C 0.76672 0.53806 0.96054 0.0
O437 O 0.77678 0.56258 0.95304 0.0
N438 N 0.71034 0.51295 0.05441 0.0
C439 C 0.68398 0.48991 0.99605 0.0
C440 C 0.69689 0.51396 1.00576 0.0
C441 C 0.7051 0.4874 0.07351 0.0
N442 N 0.68926 0.47296 0.03809 0.0
O443 O 0.75742 0.51535 0.11533 0.0
H444 H 0.69764 0.53052 0.97659 0.0
H445 H 0.71388 0.47904 0.11076 0.0
O446 O 0.75287 0.53276 1.00386 0.0
C447 C 0.75132 0.52098 0.16544 0.0
O448 O 0.73257 0.53954 0.17457 0.0
N449 N 0.71176 0.56707 0.04421 0.0
C450 C 0.67106 0.60587 1.02469 0.0
C451 C 0.69162 0.6008 0.98527 0.0
C452 C 0.71223 0.58165 0.99638 0.0
C453 C 0.69209 0.57168 0.08248 0.0
C454 C 0.67213 0.59127 0.07433 0.0
H455 H 0.72794 0.57825 0.96625 0.0
H456 H 0.6923 0.5603 0.12058 0.0
H457 H 0.79737 0.55954 0.04944 0.0
H458 H 0.77608 0.62822 0.14351 0.0
H459 H 0.67205 0.48502 0.95988 0.0
H460 H 0.69178 0.61121 0.946 0.0
H461 H 0.65791 0.59493 0.10751 0.0
C462 C 0.41292 0.74629 0.06754 0.0
C463 C 0.39315 0.76591 0.07383 0.0
N464 N 0.40116 0.7883 0.04636 0.0
N465 N 0.43331 0.75628 0.03616 0.0
C466 C 0.42561 0.78209 1.02421 0.0
H467 H 0.41237 0.72585 0.08421 0.0
Co468 Co 0.46482 0.73662 1.01845 0.0
C469 C 0.46269 0.77071 0.9074 0.0
O470 O 0.43678 0.77698 0.90227 0.0
N471 N 0.49647 0.71713 0.99979 0.0
C472 C 0.52776 0.69715 0.94724 0.0
C473 C 0.50338 0.71068 0.94748 0.0
C474 C 0.51676 0.70653 0.03091 0.0
N475 N 0.53613 0.69453 0.99958 0.0
O476 O 0.48616 0.76156 0.06272 0.0
H477 H 0.49117 0.71499 0.91145 0.0
H478 H 0.51727 0.7074 0.07542 0.0
O479 O 0.47099 0.75716 0.9493 0.0
C480 C 0.48153 0.75382 0.11233 0.0
O481 O 0.46604 0.73232 0.12002 0.0
N482 N 0.44337 0.70994 0.98413 0.0
C483 C 0.40542 0.66827 0.96774 0.0
C484 C 0.40309 0.69315 0.93927 0.0
C485 C 0.42227 0.71388 0.94833 0.0
C486 C 0.44632 0.68556 1.01049 0.0
C487 C 0.42796 0.66441 1.00226 0.0
H488 H 0.41878 0.73353 0.93016 0.0
H489 H 0.46215 0.68297 0.04101 0.0
H490 H 0.43766 0.7962 1.0002 0.0
H491 H 0.37389 0.7636 0.09507 0.0
H492 H 0.53806 0.68883 0.91158 0.0
H493 H 0.3858 0.69718 0.91275 0.0
H494 H 0.43097 0.64547 1.0244 0.0
C495 C 0.26167 0.41571 0.08259 0.0
C496 C 0.24181 0.39628 0.09042 0.0
N497 N 0.21999 0.40332 0.05998 0.0
N498 N 0.25236 0.43483 0.04732 0.0
C499 C 0.22677 0.42686 0.03475 0.0
H500 H 0.28178 0.41577 0.10082 0.0
Co501 Co 0.27213 0.46526 1.02467 0.0
C502 C 0.23564 0.46448 0.91468 0.0
O503 O 0.2258 0.43981 0.90824 0.0
N504 N 0.29197 0.49603 1.00007 0.0
C505 C 0.31417 0.52168 0.93929 0.0
C506 C 0.30118 0.49747 0.9477 0.0
C507 C 0.2999 0.51997 1.02291 0.0
N508 N 0.31335 0.53603 0.98637 0.0
O509 O 0.24793 0.48752 0.06917 0.0
H510 H 0.29865 0.48174 0.91699 0.0
H511 H 0.29574 0.52561 0.0651 0.0
O512 O 0.2509 0.46973 0.95616 0.0
C513 C 0.25975 0.4861 0.11628 0.0
O514 O 0.28464 0.47618 0.11782 0.0
N515 N 0.2975 0.44225 0.99092 0.0
C516 C 0.33787 0.40349 0.9702 0.0
C517 C 0.31261 0.40228 0.94279 0.0
C518 C 0.29247 0.42185 0.95418 0.0
C519 C 0.32213 0.44406 1.01652 0.0
C520 C 0.34262 0.42517 1.00636 0.0
H521 H 0.27252 0.41968 0.93608 0.0
H522 H 0.32554 0.45976 0.04696 0.0
H523 H 0.21314 0.4381 1.00821 0.0
H524 H 0.24361 0.37787 0.11476 0.0
H525 H 0.32411 0.52786 0.90152 0.0
H526 H 0.30803 0.38572 0.91488 0.0
H527 H 0.3619 0.42726 0.02767 0.0
H528 H 0.13178 0.32121 0.97677 0.0
H529 H 0.1183 0.31278 0.15095 0.0
H530 H 0.15167 0.34878 0.16944 0.0
H531 H 0.18811 0.37946 0.13564 0.0
H532 H 0.19958 0.38973 0.96124 0.0
H533 H 0.16352 0.35645 0.94266 0.0
C534 C 0.13586 0.32775 1.01859 0.0
C535 C 0.12283 0.31445 0.06251 0.0
C536 C 0.15486 0.34856 0.02867 0.0
C537 C 0.12801 0.32298 0.11664 0.0
C538 C 0.14723 0.34335 0.12715 0.0
C539 C 0.1823 0.37459 0.09373 0.0
C540 C 0.19643 0.38671 0.04979 0.0
C541 C 0.16129 0.35579 0.08353 0.0
C542 C 0.18878 0.38064 0.99551 0.0
C543 C 0.16832 0.36154 0.98497 0.0
H544 H 0.69118 0.13337 0.95963 0.0
H545 H 0.69053 0.11206 0.13151 0.0
H546 H 0.65288 0.14395 0.1478 0.0
H547 H 0.62337 0.18142 0.11419 0.0
H548 H 0.62217 0.20082 0.94142 0.0
H549 H 0.65707 0.16608 0.92377 0.0
C550 C 0.68233 0.13543 1.00032 0.0
C551 C 0.69355 0.12062 0.04442 0.0
C552 C 0.66057 0.15359 1.00909 0.0
C553 C 0.682 0.12317 0.09702 0.0
C554 C 0.66067 0.14154 0.10634 0.0
C555 C 0.63053 0.17761 0.07269 0.0
C556 C 0.62053 0.19365 0.02914 0.0
C557 C 0.65028 0.15737 0.06294 0.0
C558 C 0.62961 0.18855 0.97535 0.0
C559 C 0.64963 0.16885 0.9654 0.0
H560 H 0.82335 0.63677 0.14885 0.0
H561 H 0.8237 0.59043 0.99796 0.0
H562 H 0.86035 0.61878 0.96208 0.0
H563 H 0.88878 0.65973 0.96927 0.0
H564 H 0.8876 0.70738 0.11811 0.0
H565 H 0.85502 0.67549 0.15929 0.0
C566 C 0.83154 0.63277 0.10824 0.0
C567 C 0.82039 0.61164 0.07597 0.0
C568 C 0.85237 0.64955 0.08733 0.0
C569 C 0.83179 0.60638 1.02393 0.0
C570 C 0.85266 0.62277 1.00311 0.0
C571 C 0.8815 0.66303 1.01086 0.0
C572 C 0.89027 0.68612 0.0403 0.0
C573 C 0.86253 0.64487 0.03379 0.0
C574 C 0.8812 0.68978 0.09463 0.0
C575 C 0.86241 0.67165 0.11798 0.0
H576 H 0.3147 0.87226 0.96394 0.0
H577 H 0.30818 0.88718 0.13791 0.0
H578 H 0.34639 0.85613 0.15563 0.0
H579 H 0.3781 0.82065 0.12165 0.0
H580 H 0.38655 0.80775 0.94741 0.0
H581 H 0.35144 0.84226 0.92903 0.0
C582 C 0.32216 0.86904 1.00547 0.0
C583 C 0.30876 0.88169 0.04968 0.0
C584 C 0.34428 0.85143 1.01507 0.0
C585 C 0.31844 0.87769 0.10344 0.0
C586 C 0.34009 0.85981 0.11351 0.0
C587 C 0.37255 0.82597 0.07978 0.0
C588 C 0.38457 0.81182 0.03584 0.0
C589 C 0.35265 0.84599 0.06976 0.0
C590 C 0.37753 0.81867 0.9816 0.0
C591 C 0.35738 0.83819 0.97122 0.0
H592 H 0.14733 0.70446 0.59741 0.0
H593 H 0.10394 0.697 0.44397 0.0
H594 H 0.13232 0.65821 0.41795 0.0
H595 H 0.17179 0.62832 0.43598 0.0
H596 H 0.21353 0.63336 0.59133 0.0
H597 H 0.18358 0.6709 0.61999 0.0
C598 C 0.14402 0.69409 0.55861 0.0
C599 C 0.12374 0.7037 0.52248 0.0
C600 C 0.16019 0.67142 0.54429 0.0
C601 C 0.11934 0.68995 0.47254 0.0
C602 C 0.13566 0.66784 0.4575 0.0
C603 C 0.17395 0.63749 0.47633 0.0
C604 C 0.19474 0.62834 0.51152 0.0
C605 C 0.15644 0.65869 0.49261 0.0
C606 C 0.19745 0.64007 0.56391 0.0
C607 C 0.18048 0.6616 0.58004 0.0
H608 H 0.35234 0.19228 0.44276 0.0
H609 H 0.40773 0.18542 0.58015 0.0
H610 H 0.38288 0.14567 0.61359 0.0
H611 H 0.34356 0.11502 0.60769 0.0
H612 H 0.28664 0.12317 0.47333 0.0
H613 H 0.31415 0.16001 0.43438 0.0
C614 C 0.35897 0.18218 0.48012 0.0
C615 C 0.38178 0.19215 0.50919 0.0
C616 C 0.34429 0.15953 0.49962 0.0
C617 C 0.39041 0.17824 0.55674 0.0
C618 C 0.37608 0.15556 0.5761 0.0
C619 C 0.33713 0.12483 0.56987 0.0
C620 C 0.31281 0.11652 0.54394 0.0
C621 C 0.35271 0.14637 0.54846 0.0
C622 C 0.30525 0.12901 0.49411 0.0
C623 C 0.32088 0.15026 0.47207 0.0
H624 H 0.81863 0.36578 0.47621 0.0
H625 H 0.80936 0.39703 0.6411 0.0
H626 H 0.84764 0.36927 0.67207 0.0
H627 H 0.88116 0.33325 0.65436 0.0
H628 H 0.89 0.30065 0.49071 0.0
H629 H 0.85487 0.33204 0.45694 0.0
C630 C 0.82505 0.36655 0.51886 0.0
C631 C 0.81092 0.38336 0.55631 0.0
C632 C 0.84702 0.35027 0.53661 0.0
C633 C 0.81989 0.38451 0.61124 0.0
C634 C 0.84171 0.36847 0.62912 0.0
C635 C 0.87552 0.33315 0.61122 0.0
C636 C 0.88794 0.31441 0.57524 0.0
C637 C 0.85504 0.35089 0.59245 0.0
C638 C 0.88085 0.31494 0.51919 0.0
C639 C 0.86058 0.33271 0.50002 0.0
H640 H 0.64894 0.81359 0.4417 0.0
H641 H 0.58823 0.82894 0.56666 0.0
H642 H 0.61263 0.86956 0.59544 0.0
H643 H 0.6537 0.89774 0.59252 0.0
H644 H 0.71613 0.88126 0.47229 0.0
H645 H 0.68849 0.84433 0.43384 0.0
C646 C 0.64098 0.82583 0.47512 0.0
C647 C 0.61688 0.81781 0.50234 0.0
C648 C 0.65553 0.84895 0.49251 0.0
C649 C 0.60656 0.83446 0.54463 0.0
C650 C 0.62066 0.85768 0.56151 0.0
C651 C 0.66117 0.88616 0.55765 0.0
C652 C 0.68709 0.89192 0.53586 0.0
C653 C 0.64552 0.86463 0.53685 0.0
C654 C 0.69623 0.87726 0.48977 0.0
C655 C 0.68053 0.85599 0.46813 0.0
H656 H 0.18148 0.0636 0.18688 0.0
H657 H 0.17644 0.05271 1.01106 0.0
H658 H 0.15588 0.09803 1.00172 0.0
H659 H 0.13422 0.13782 0.04496 0.0
H660 H 0.13553 0.14626 0.22184 0.0
H661 H 0.16306 0.10489 0.22941 0.0
C662 C 0.17589 0.07111 0.14646 0.0
C663 C 0.17985 0.05453 0.0998 0.0
C664 C 0.16333 0.09666 0.14176 0.0
C665 C 0.17349 0.065 0.04755 0.0
C666 C 0.16156 0.09081 0.04233 0.0
C667 C 0.14056 0.13065 0.08522 0.0
C668 C 0.13232 0.14484 0.13291 0.0
C669 C 0.15553 0.10635 0.08936 0.0
C670 C 0.14153 0.13578 0.18453 0.0
C671 C 0.15707 0.11199 0.18889 0.0
H672 H 0.95775 0.14972 0.19147 0.0
H673 H 0.94598 0.19306 0.03819 0.0
H674 H 0.90236 0.16994 0.02562 0.0
H675 H 0.86767 0.13722 0.0584 0.0
H676 H 0.87956 0.09604 0.21366 0.0
H677 H 0.92281 0.11975 0.22639 0.0
C678 C 0.94573 0.15478 0.15562 0.0
C679 C 0.95547 0.17349 0.11608 0.0
C680 C 0.92047 0.142 0.14935 0.0
C681 C 0.93938 0.17872 0.06927 0.0
C682 C 0.91427 0.16562 0.0622 0.0
C683 C 0.87974 0.13357 0.0951 0.0
C684 C 0.87051 0.11489 0.13507 0.0
C685 C 0.90465 0.1472 0.10201 0.0
C686 C 0.8861 0.11052 0.18269 0.0
C687 C 0.91092 0.12388 0.1897 0.0
H688 H 0.88307 0.87536 0.99891 0.0
H689 H 0.87631 0.84806 0.16733 0.0
H690 H 0.8487 0.88809 0.18947 0.0
H691 H 0.82705 0.93079 0.16137 0.0
H692 H 0.83491 0.9592 0.99392 0.0
H693 H 0.86061 0.91807 0.97042 0.0
C694 C 0.87528 0.87797 0.04034 0.0
C695 C 0.88173 0.85864 0.08143 0.0
C696 C 0.85946 0.90108 0.05278 0.0
C697 C 0.87189 0.86269 0.1351 0.0
C698 C 0.85598 0.8855 0.14768 0.0
C699 C 0.83455 0.92825 0.11978 0.0
C700 C 0.82925 0.94842 0.07967 0.0
C701 C 0.8498 0.90489 0.10694 0.0
C702 C 0.8385 0.94411 0.0256 0.0
C703 C 0.8534 0.92065 1.01226 0.0
H704 H 0.14534 0.8499 0.065 0.0
H705 H 0.10942 0.90849 0.17509 0.0
H706 H 0.0642 0.88892 0.15881 0.0
H707 H 0.03444 0.85948 0.10244 0.0
H708 H 0.07023 0.80046 0.99328 0.0
H709 H 0.11608 0.81561 1.01972 0.0
C710 C 0.12768 0.85757 0.08698 0.0
C711 C 0.13052 0.8803 0.12166 0.0
C712 C 0.10177 0.84658 0.07639 0.0
C713 C 0.1076 0.89066 0.14909 0.0
C714 C 0.08177 0.87973 0.13912 0.0
C715 C 0.05239 0.84982 0.08514 0.0
C716 C 0.04925 0.82931 0.04537 0.0
C717 C 0.07851 0.85844 0.10111 0.0
C718 C 0.0724 0.81641 1.02373 0.0
C719 C 0.0985 0.8251 0.0388 0.0
H720 H 0.13023 0.9768 0.49436 0.0
H721 H 0.1956 0.93692 0.58129 0.0
H722 H 0.17847 0.8923 0.55148 0.0
H723 H 0.1417 0.86468 0.50889 0.0
H724 H 0.07594 0.90527 0.42452 0.0
H725 H 0.09651 0.94962 0.44415 0.0
C726 C 0.14072 0.95832 0.50672 0.0
C727 C 0.16381 0.96005 0.54092 0.0
C728 C 0.13074 0.93293 0.48943 0.0
C729 C 0.1777 0.93603 0.55529 0.0
C730 C 0.16787 0.91057 0.53831 0.0
C731 C 0.13249 0.88326 0.49331 0.0
C732 C 0.10762 0.88187 0.4646 0.0
C733 C 0.14406 0.90874 0.5063 0.0
C734 C 0.09534 0.90599 0.44582 0.0
C735 C 0.10692 0.9313 0.45762 0.0
H736 H 0.04837 0.14494 0.50586 0.0
H737 H 0.07446 0.21177 0.60734 0.0
H738 H 0.12227 0.19808 0.59529 0.0
H739 H 0.15569 0.16329 0.56563 0.0
H740 H 0.12926 0.09706 0.4621 0.0
H741 H 0.08266 0.11464 0.46358 0.0
C742 C 0.06469 0.15671 0.5243 0.0
C743 C 0.05818 0.17906 0.55789 0.0
C744 C 0.09196 0.14879 0.51676 0.0
C745 C 0.07923 0.1945 0.58133 0.0
C746 C 0.10645 0.18658 0.57463 0.0
C747 C 0.13982 0.15315 0.54229 0.0
C748 C 0.14584 0.1288 0.51414 0.0
C749 C 0.11297 0.16324 0.54382 0.0
C750 C 0.12518 0.11593 0.48373 0.0
C751 C 0.09846 0.1258 0.48511 0.0
H752 H 0.87851 0.03404 0.53198 0.0
H753 H 0.80301 0.06596 0.59656 0.0
H754 H 0.81956 0.1124 0.58277 0.0
H755 H 0.85648 0.14386 0.55763 0.0
H756 H 0.93337 0.11129 0.50082 0.0
H757 H 0.9149 0.06536 0.50492 0.0
C758 C 0.86569 0.05107 0.54362 0.0
C759 C 0.83961 0.04631 0.56603 0.0
C760 C 0.8755 0.07773 0.53638 0.0
C761 C 0.8231 0.06885 0.57915 0.0
C762 C 0.8326 0.09547 0.57142 0.0
C763 C 0.8693 0.12677 0.54618 0.0
C764 C 0.89645 0.13134 0.52926 0.0
C765 C 0.85893 0.10014 0.5508 0.0
C766 C 0.91233 0.10877 0.51323 0.0
C767 C 0.9019 0.08232 0.5163 0.0
H768 H 0.9222 0.81601 0.43227 0.0
H769 H 0.95495 0.83389 0.59285 0.0
H770 H 0.91298 0.85817 0.61703 0.0
H771 H 0.86919 0.87814 0.58878 0.0
H772 H 0.83675 0.86056 0.42741 0.0
H773 H 0.87684 0.83285 0.40667 0.0
C774 C 0.92011 0.82515 0.47264 0.0
C775 C 0.9418 0.82348 0.51047 0.0
C776 C 0.8962 0.83945 0.48571 0.0
C777 C 0.93855 0.83482 0.56311 0.0
C778 C 0.91465 0.84889 0.57671 0.0
C779 C 0.87053 0.86779 0.54946 0.0
C780 C 0.84995 0.87161 0.50958 0.0
C781 C 0.89363 0.85187 0.53783 0.0
C782 C 0.85241 0.85838 0.45853 0.0
C783 C 0.87528 0.8424 0.44675 0.0
H784 H 0.67055 0.56614 0.65866 0.0
H785 H 0.67721 0.55012 0.48454 0.0
H786 H 0.65488 0.59361 0.46452 0.0
H787 H 0.63001 0.63408 0.49667 0.0
H788 H 0.61985 0.64764 0.67112 0.0
H789 H 0.64727 0.60724 0.69076 0.0
C790 C 0.66701 0.57198 0.61625 0.0
C791 C 0.67513 0.55449 0.57319 0.0
C792 C 0.65347 0.59657 0.60514 0.0
C793 C 0.67122 0.56304 0.51851 0.0
C794 C 0.65826 0.58785 0.50706 0.0
C795 C 0.63363 0.62817 0.53907 0.0
C796 C 0.62244 0.64377 0.58235 0.0
C797 C 0.6487 0.60442 0.55009 0.0
C798 C 0.62821 0.63621 0.63695 0.0
C799 C 0.64373 0.61294 0.64823 0.0
H800 H 0.36999 0.62805 0.46405 0.0
H801 H 0.34859 0.64528 0.63282 0.0
H802 H 0.38784 0.67561 0.64082 0.0
H803 H 0.43092 0.69266 0.6035 0.0
H804 H 0.45428 0.67332 0.43713 0.0
H805 H 0.41126 0.64868 0.42393 0.0
C806 C 0.37389 0.6385 0.50255 0.0
C807 C 0.35667 0.63402 0.54816 0.0
C808 C 0.39682 0.65543 0.50718 0.0
C809 C 0.3615 0.64834 0.5972 0.0
C810 C 0.38403 0.66555 0.60187 0.0
C811 C 0.42647 0.6832 0.56421 0.0
C812 C 0.4459 0.68427 0.52163 0.0
C813 C 0.40222 0.66854 0.5577 0.0
C814 C 0.43962 0.67269 0.47042 0.0
C815 C 0.41518 0.65842 0.46315 0.0
H816 H 0.33005 0.43952 0.61185 0.0
H817 H 0.33161 0.45854 0.43858 0.0
H818 H 0.35911 0.41767 0.42123 0.0
H819 H 0.38527 0.37832 0.45668 0.0
H820 H 0.38521 0.3613 0.63113 0.0
H821 H 0.35467 0.3998 0.64672 0.0
C822 C 0.33645 0.43481 0.57025 0.0
C823 C 0.32912 0.45232 0.52667 0.0
C824 C 0.35271 0.41176 0.56094 0.0
C825 C 0.33689 0.44541 0.47281 0.0
C826 C 0.35283 0.42218 0.46301 0.0
C827 C 0.37873 0.38314 0.49818 0.0
C828 C 0.38778 0.36701 0.54277 0.0
C829 C 0.36134 0.40554 0.50697 0.0
C830 C 0.37851 0.37319 0.59605 0.0
C831 C 0.36112 0.39529 0.60504 0.0
H832 H 0.58583 0.301 0.49448 0.0
H833 H 0.52403 0.35235 0.56581 0.0
H834 H 0.55925 0.38028 0.60978 0.0
H835 H 0.60771 0.39284 0.61895 0.0
H836 H 0.66944 0.34118 0.54759 0.0
H837 H 0.6343 0.31014 0.51385 0.0
C838 C 0.58019 0.3182 0.52004 0.0
C839 C 0.55251 0.32499 0.52628 0.0
C840 C 0.60052 0.33396 0.54532 0.0
C841 C 0.54525 0.34689 0.56041 0.0
C842 C 0.56537 0.36285 0.58534 0.0
C843 C 0.61343 0.37445 0.59706 0.0
C844 C 0.64111 0.36938 0.5855 0.0
C845 C 0.59308 0.35696 0.57694 0.0
C846 C 0.64832 0.34541 0.55746 0.0
C847 C 0.62821 0.32784 0.53753 0.0
H848 H 0.68566 0.438 0.95373 0.0
H849 H 0.67136 0.44548 0.12797 0.0
H850 H 0.64633 0.4021 0.12742 0.0
H851 H 0.62386 0.3654 0.07479 0.0
H852 H 0.63593 0.36027 0.89905 0.0
H853 H 0.66671 0.39933 0.90271 0.0
C854 C 0.67725 0.42999 0.99171 0.0
C855 C 0.67988 0.44513 0.04074 0.0
C856 C 0.66228 0.40566 0.99053 0.0
C857 C 0.66959 0.43419 0.08987 0.0
C858 C 0.65506 0.40957 0.08932 0.0
C859 C 0.63324 0.37279 0.03723 0.0
C860 C 0.62713 0.36014 0.98644 0.0
C861 C 0.65046 0.39568 0.03949 0.0
C862 C 0.64018 0.36951 0.93858 0.0
C863 C 0.65767 0.39198 0.94063 0.0
H864 H 0.5867 0.69881 0.95991 0.0
H865 H 0.537 0.65471 0.07555 0.0
H866 H 0.5744 0.62251 0.09212 0.0
H867 H 0.61922 0.60518 0.06738 0.0
H868 H 0.67146 0.65232 0.9599 0.0
H869 H 0.63438 0.68443 0.94416 0.0
C870 C 0.58442 0.68238 0.98944 0.0
C871 C 0.55937 0.67894 1.01664 0.0
C872 C 0.60603 0.66421 0.99888 0.0
C873 C 0.55631 0.65777 0.05486 0.0
C874 C 0.57754 0.63927 0.06373 0.0
C875 C 0.62316 0.62282 0.0418 0.0
C876 C 0.64855 0.62598 1.01505 0.0
C877 C 0.60228 0.64205 0.03517 0.0
C878 C 0.6522 0.64869 0.98029 0.0
C879 C 0.63106 0.66738 0.97176 0.0
H880 H 0.32242 0.57456 0.9095 0.0
H881 H 0.33334 0.55662 0.08199 0.0
H882 H 0.36099 0.5978 0.09237 0.0
H883 H 0.38538 0.63635 0.05044 0.0
H884 H 0.37733 0.65175 0.87611 0.0
H885 H 0.34514 0.614 0.86844 0.0
C886 C 0.3309 0.57954 0.94941 0.0
C887 C 0.32622 0.56216 0.99471 0.0
C888 C 0.34744 0.60268 0.95457 0.0
C889 C 0.33658 0.56955 0.04648 0.0
C890 C 0.3526 0.59298 0.05228 0.0
C891 C 0.37676 0.63137 1.01061 0.0
C892 C 0.3842 0.64666 0.96368 0.0
C893 C 0.35877 0.60924 1.00626 0.0
C894 C 0.37202 0.64043 0.91287 0.0
C895 C 0.35372 0.61874 0.90841 0.0
H896 H 0.43358 0.32556 0.89787 0.0
H897 H 0.45003 0.328 0.0722 0.0
H898 H 0.40806 0.35398 0.08705 0.0
H899 H 0.36929 0.37974 0.04924 0.0
H900 H 0.35449 0.37952 0.87411 0.0
H901 H 0.39319 0.34874 0.86076 0.0
C902 C 0.428 0.33176 0.93916 0.0
C903 C 0.44521 0.32524 0.98378 0.0
C904 C 0.40424 0.34721 0.9471 0.0
C905 C 0.4372 0.3327 0.03719 0.0
C906 C 0.41331 0.34775 0.04559 0.0
C907 C 0.37453 0.37297 1.00809 0.0
C908 C 0.35928 0.38231 0.96257 0.0
C909 C 0.39711 0.35574 1.00066 0.0
C910 C 0.36585 0.37268 0.90979 0.0
C911 C 0.38809 0.35522 0.90213 0.0
H912 H 0.01611 0.26619 0.45186 0.0
H913 H 0.94064 0.24144 0.37531 0.0
H914 H 0.96121 0.24514 0.28498 0.0
H915 H 1.00082 0.2541 0.22582 0.0
H916 H 0.07611 0.28072 0.29982 0.0
H917 H 0.0555 0.27794 0.39116 0.0
C918 C 0.00413 0.26179 0.41544 0.0
C919 C 0.97669 0.25353 0.42134 0.0
C920 C 0.01608 0.26434 0.36228 0.0
C921 C 0.96169 0.24798 0.37302 0.0
C922 C 0.97347 0.25002 0.32077 0.0
C923 C 0.01272 0.25953 0.26179 0.0
C924 C 0.04012 0.26756 0.25522 0.0
C925 C 1.00067 0.25804 0.31468 0.0
C926 C 0.05498 0.27456 0.30291 0.0
C927 C 0.04321 0.27285 0.35558 0.0
H928 H 0.74814 0.03759 0.43604 0.0
H929 H 0.76016 0.95432 0.38621 0.0
H930 H 0.75052 0.96662 0.29037 0.0
H931 H 0.74482 1.00248 0.21913 0.0
H932 H 0.7313 0.0856 0.27072 0.0
H933 H 0.73485 0.07193 0.36666 0.0
C934 C 0.74755 0.022 0.40444 0.0
C935 C 0.75442 0.99503 0.41829 0.0
C936 C 0.74217 0.02931 0.34927 0.0
C937 C 0.75438 0.97512 0.37675 0.0
C938 C 0.74918 0.98223 0.32177 0.0
C939 C 0.74206 0.01751 0.25133 0.0
C940 C 0.7382 0.04516 0.23708 0.0
C941 C 0.74398 0.00948 0.30719 0.0
C942 C 0.7345 0.06422 0.27982 0.0
C943 C 0.73661 0.05645 0.33507 0.0
H944 H 0.03549 0.71922 0.14732 0.0
H945 H 0.9612 0.76418 0.17503 0.0
H946 H 0.97272 0.76896 0.27245 0.0
H947 H 0.00534 0.76241 0.35005 0.0
H948 H 0.07938 0.71707 0.32062 0.0
H949 H 0.06626 0.71013 0.22516 0.0
C950 C 0.02161 0.72986 0.1746 0.0
C951 C 0.99763 0.74168 0.1529 0.0
C952 C 0.02835 0.73251 0.23103 0.0
C953 C 0.98005 0.7553 0.18966 0.0
C954 C 0.98658 0.75795 0.24579 0.0
C955 C 0.01848 0.75077 0.32301 0.0
C956 C 0.04355 0.74055 0.34323 0.0
C957 C 0.01092 0.74699 0.26701 0.0
C958 C 0.0601 0.72545 0.30686 0.0
C959 C 0.05263 0.72145 0.25182 0.0
H960 H 0.25857 0.97696 0.43818 0.0
H961 H 0.22495 0.05169 0.37425 0.0
H962 H 0.23299 0.03632 0.28024 0.0
H963 H 0.24433 0.99942 0.21564 0.0
H964 H 0.27724 0.92399 0.27869 0.0
H965 H 0.27504 0.94179 0.37233 0.0
C966 C 0.25402 0.99023 0.40365 0.0
C967 C 0.24169 0.01572 0.41345 0.0
C968 C 0.25807 0.98086 0.34903 0.0
C969 C 0.23499 0.03226 0.36805 0.0
C970 C 0.2393 0.02333 0.31406 0.0
C971 C 0.25147 0.98698 0.24967 0.0
C972 C 0.26068 0.9602 0.23956 0.0
C973 C 0.25001 0.99731 0.30392 0.0
C974 C 0.26989 0.94459 0.28468 0.0
C975 C 0.2686 0.95476 0.3386 0.0
H976 H 0.02965 0.74852 0.85688 0.0
H977 H 0.94329 0.74201 0.82801 0.0
H978 H 0.95098 0.7362 0.7301 0.0
H979 H 0.98156 0.74282 0.65012 0.0
H980 H 0.06798 0.74865 0.67782 0.0
H981 H 0.06115 0.74424 0.77694 0.0
C982 C 0.01266 0.7445 0.82953 0.0
C983 C 0.98589 0.74557 0.85049 0.0
C984 C 0.01721 0.74155 0.77202 0.0
C985 C 0.96413 0.74104 0.81369 0.0
C986 C 0.96848 0.738 0.7571 0.0
C987 C 0.99895 0.74163 0.67759 0.0
C988 C 0.02527 0.74582 0.65621 0.0
C989 C 0.99483 0.73955 0.73529 0.0
C990 C 0.0475 0.74509 0.69297 0.0
C991 C 0.04359 0.74295 0.74999 0.0
H992 H 0.25182 0.04678 0.77341 0.0
H993 H 0.25293 0.96832 0.69386 0.0
H994 H 0.25974 0.94611 0.78359 0.0
H995 H 0.25715 0.94893 0.88517 0.0
H996 H 0.2546 0.02739 0.96451 0.0
H997 H 0.2573 0.04987 0.87433 0.0
C998 C 0.25428 0.02482 0.77554 0.0
C999 C 0.25166 0.00914 0.72697 0.0
C1000 C 0.25778 0.01231 0.82733 0.0
C1001 C 0.25503 0.98081 0.73034 0.0
C1002 C 0.25866 0.96815 0.78179 0.0
C1003 C 0.2582 0.97099 0.88278 0.0
C1004 C 0.25574 0.98652 0.93159 0.0
C1005 C 0.25896 0.98365 0.83066 0.0
C1006 C 0.25692 0.01501 0.92791 0.0
C1007 C 0.25802 0.02782 0.87617 0.0
H1008 H 0.05192 0.26407 0.90248 0.0
H1009 H 0.97276 0.25645 0.97755 0.0
H1010 H 0.95128 0.25892 0.88635 0.0
H1011 H 0.95594 0.25475 0.78522 0.0
H1012 H 0.03518 0.2614 0.70999 0.0
H1013 H 0.05581 0.2683 0.8011 0.0
C1014 C 0.02987 0.26406 0.89898 0.0
C1015 C 0.01391 0.26032 0.94694 0.0
C1016 C 0.01781 0.26483 0.84621 0.0
C1017 C 0.98544 0.25989 0.94171 0.0
C1018 C 0.97323 0.26087 0.88935 0.0
C1019 C 0.97766 0.25858 0.78864 0.0
C1020 C 0.99405 0.25753 0.74075 0.0
C1021 C 0.98931 0.26212 0.84129 0.0
C1022 C 0.0221 0.26244 0.74584 0.0
C1023 C 0.03388 0.26606 0.79813 0.0
H1024 H 0.74803 0.95626 0.77089 0.0
H1025 H 0.74769 0.03556 0.69434 0.0
H1026 H 0.73962 0.05681 0.78443 0.0
H1027 H 0.74151 0.05287 0.88575 0.0
H1028 H 0.74383 0.9736 0.96209 0.0
H1029 H 0.74142 0.95204 0.87114 0.0
C1030 C 0.74551 0.97818 0.77376 0.0
C1031 C 0.7488 0.99444 0.72619 0.0
C1032 C 0.7413 0.99012 0.82567 0.0
C1033 C 0.74519 0.0227 0.73025 0.0
C1034 C 0.7408 0.03479 0.78185 0.0
C1035 C 0.74039 0.03085 0.88245 0.0
C1036 C 0.74282 0.01477 0.93049 0.0
C1037 C 0.74 0.01875 0.82999 0.0
C1038 C 0.74155 0.98634 0.92591 0.0
C1039 C 0.74065 0.97407 0.87379 0.0
H1040 H 0.44932 0.77273 0.79833 0.0
H1041 H 0.51826 0.77515 0.90832 0.0
H1042 H 0.54932 0.77696 0.82949 0.0
H1043 H 0.5571 0.77546 0.72897 0.0
H1044 H 0.48821 0.76854 0.61956 0.0
H1045 H 0.45707 0.77098 0.69805 0.0
C1046 C 0.47112 0.77408 0.80511 0.0
C1047 C 0.48138 0.77418 0.8594 0.0
C1048 C 0.48894 0.77415 0.75944 0.0
C1049 C 0.50976 0.77526 0.86715 0.0
C1050 C 0.52756 0.77622 0.822 0.0
C1051 C 0.53526 0.77486 0.72221 0.0
C1052 C 0.52505 0.77214 0.66815 0.0
C1053 C 0.51742 0.77537 0.76789 0.0
C1054 C 0.49667 0.77079 0.66051 0.0
C1055 C 0.47882 0.77214 0.70548 0.0
H1056 H 0.22241 0.45491 0.80626 0.0
H1057 H 0.2465 0.51902 0.91759 0.0
H1058 H 0.25069 0.55059 0.84043 0.0
H1059 H 0.2514 0.55914 0.74116 0.0
H1060 H 0.22913 0.49517 0.62816 0.0
H1061 H 0.21966 0.46475 0.70603 0.0
C1062 C 0.22815 0.4759 0.81381 0.0
C1063 C 0.23443 0.48439 0.86801 0.0
C1064 C 0.23085 0.49404 0.76879 0.0
C1065 C 0.24188 0.51172 0.87658 0.0
C1066 C 0.24425 0.52986 0.83234 0.0
C1067 C 0.24409 0.53866 0.73328 0.0
C1068 C 0.24112 0.52954 0.67845 0.0
C1069 C 0.23938 0.52111 0.77821 0.0
C1070 C 0.23147 0.50292 0.66961 0.0
C1071 C 0.22628 0.4854 0.71428 0.0
H1072 H 0.55787 0.22579 0.78247 0.0
H1073 H 0.49251 0.25438 0.88662 0.0
H1074 H 0.46327 0.25998 0.80637 0.0
H1075 H 0.45754 0.26142 0.70609 0.0
H1076 H 0.52196 0.23308 0.60017 0.0
H1077 H 0.54986 0.22193 0.68134 0.0
C1078 C 0.5371 0.23287 0.78781 0.0
C1079 C 0.52778 0.24027 0.84101 0.0
C1080 C 0.52011 0.23596 0.74096 0.0
C1081 C 0.50064 0.24914 0.84658 0.0
C1082 C 0.48376 0.25223 0.80052 0.0
C1083 C 0.47743 0.2521 0.70072 0.0
C1084 C 0.48756 0.24796 0.64697 0.0
C1085 C 0.49347 0.24637 0.74747 0.0
C1086 C 0.51343 0.23603 0.64085 0.0
C1087 C 0.52954 0.23004 0.68741 0.0
H1088 H 0.74396 0.44429 0.78929 0.0
H1089 H 0.77195 0.50563 0.6752 0.0
H1090 H 0.7835 0.5356 0.75242 0.0
H1091 H 0.78117 0.54612 0.85224 0.0
H1092 H 0.75113 0.48476 0.96446 0.0
H1093 H 0.74482 0.45328 0.88815 0.0
C1094 C 0.75294 0.46407 0.78106 0.0
C1095 C 0.7569 0.47265 0.72618 0.0
C1096 C 0.75888 0.48141 0.82554 0.0
C1097 C 0.76873 0.49835 0.7168 0.0
C1098 C 0.77515 0.51561 0.76105 0.0
C1099 C 0.77365 0.52572 0.86016 0.0
C1100 C 0.76648 0.51802 0.91434 0.0
C1101 C 0.76966 0.50764 0.81561 0.0
C1102 C 0.75668 0.49145 0.92345 0.0
C1103 C 0.75304 0.47335 0.8797 0.0
H1104 H 0.46951 0.23609 0.13299 0.0
H1105 H 0.5556 0.23521 0.16675 0.0
H1106 H 0.54683 0.22712 0.26422 0.0
H1107 H 0.51437 0.23142 0.3421 0.0
H1108 H 0.42825 0.23161 0.30783 0.0
H1109 H 0.43717 0.22792 0.20948 0.0
C1110 C 0.4863 0.23259 0.16119 0.0
C1111 C 0.51316 0.23614 0.14247 0.0
C1112 C 0.48106 0.22837 0.21789 0.0
C1113 C 0.53472 0.23228 0.17999 0.0
C1114 C 0.52971 0.228 0.23608 0.0
C1115 C 0.49761 0.22918 0.31335 0.0
C1116 C 0.47068 0.23199 0.33241 0.0
C1117 C 0.50292 0.22757 0.25608 0.0
C1118 C 0.4492 0.22952 0.29426 0.0
C1119 C 0.45427 0.22773 0.23774 0.0
H1120 H 0.75549 0.44921 0.37487 0.0
H1121 H 0.76311 0.52827 0.45033 0.0
H1122 H 0.77195 0.54868 0.35972 0.0
H1123 H 0.768 0.54494 0.2587 0.0
H1124 H 0.75796 0.46617 0.18326 0.0
H1125 H 0.7603 0.44442 0.2742 0.0
C1126 C 0.75996 0.47081 0.37158 0.0
C1127 C 0.75848 0.48733 0.41906 0.0
C1128 C 0.76432 0.48234 0.31929 0.0
C1129 C 0.76436 0.51518 0.41453 0.0
C1130 C 0.7691 0.52683 0.36261 0.0
C1131 C 0.76737 0.52289 0.2621 0.0
C1132 C 0.76275 0.50711 0.21443 0.0
C1133 C 0.76781 0.51078 0.3146 0.0
C1134 C 0.76185 0.47866 0.21915 0.0
C1135 C 0.76278 0.46632 0.27129 0.0
H1136 H 0.55359 0.76786 0.32057 0.0
H1137 H 0.47487 0.76356 0.39874 0.0
H1138 H 0.45261 0.76869 0.30881 0.0
H1139 H 0.45609 0.76519 0.20759 0.0
H1140 H 0.53484 0.7681 0.12939 0.0
H1141 H 0.55671 0.77333 0.21966 0.0
C1142 C 0.53153 0.76898 0.31804 0.0
C1143 C 0.51583 0.7652 0.36617 0.0
C1144 C 0.51901 0.77135 0.2661 0.0
C1145 C 0.48734 0.76669 0.36249 0.0
C1146 C 0.47467 0.76927 0.31093 0.0
C1147 C 0.47799 0.76797 0.21027 0.0
C1148 C 0.49391 0.76622 0.16196 0.0
C1149 C 0.49033 0.77032 0.26237 0.0
C1150 C 0.52219 0.76973 0.16579 0.0
C1151 C 0.53467 0.77234 0.21753 0.0
H1152 H 0.23791 0.53065 0.16993 0.0
H1153 H 0.25156 0.44425 0.18503 0.0
H1154 H 0.24592 0.44687 0.2844 0.0
H1155 H 0.24776 0.47549 0.36809 0.0
H1156 H 0.23221 0.56151 0.35379 0.0
H1157 H 0.22727 0.55729 0.25437 0.0
C1158 C 0.23824 0.51225 0.1947 0.0
C1159 C 0.24518 0.48729 0.16987 0.0
C1160 C 0.23516 0.51391 0.25266 0.0
C1161 C 0.2461 0.46371 0.20295 0.0
C1162 C 0.24316 0.46521 0.2601 0.0
C1163 C 0.24175 0.49299 0.34358 0.0
C1164 C 0.24026 0.51875 0.36865 0.0
C1165 C 0.23916 0.49043 0.28578 0.0
C1166 C 0.23322 0.54137 0.33583 0.0
C1167 C 0.23073 0.53904 0.27858 0.0
loop_
_geom_bond_atom_site_label_1
_geom_bond_atom_site_label_2
_geom_bond_distance
_geom_bond_site_symmetry_2
_ccdc_geom_bond_type
C0 C1 1.351 . S
C0 N3 1.368 . S
C0 H5 0.931 . S
C1 C0 1.351 . S
C1 N2 1.373 1_556 S
C1 H29 0.930 . S
N2 C1 1.373 1_554 S
N2 C4 1.340 . S
N3 C0 1.368 . S
N3 C4 1.321 1_556 S
N3 Co6 2.135 1_556 S
C4 N2 1.340 . S
C4 N3 1.321 1_554 S
C4 H28 0.930 . S
H5 C0 0.931 . S
Co6 N3 2.135 1_554 S
Co6 N9 2.121 1_455 S
Co6 O14 2.071 1_554 S
Co6 O17 2.039 . S
Co6 N20 2.140 . S
C7 O8 1.227 . S
C7 O17 1.265 . S
O8 C7 1.227 . S
N9 Co6 2.121 1_655 S
N9 C11 1.375 . S
N9 C12 1.313 1_554 S
C10 C11 1.338 . S
C10 N13 1.398 . S
C10 H30 0.930 . S
C11 N9 1.375 . S
C11 C10 1.338 . S
C11 H15 0.931 . S
C12 N9 1.313 1_556 S
C12 N13 1.336 1_556 S
C12 H16 0.930 . S
N13 C10 1.398 . S
N13 C12 1.336 1_554 S
O14 Co6 2.071 1_556 S
O14 C18 1.260 . S
H15 C11 0.931 . S
H16 C12 0.930 . S
O17 Co6 2.039 . S
O17 C7 1.265 . S
C18 O14 1.260 . S
C18 O19 1.227 . S
O19 C18 1.227 . S
N20 Co6 2.140 . S
N20 C23 1.346 . S
N20 C24 1.345 1_554 S
C21 C22 1.387 . S
C21 C25 1.391 1_554 S
C22 C21 1.387 . S
C22 C23 1.369 . S
C22 H31 0.929 . S
C23 N20 1.346 . S
C23 C22 1.369 . S
C23 H26 0.928 . S
C24 N20 1.345 1_556 S
C24 C25 1.371 . S
C24 H27 0.931 . S
C25 C21 1.391 1_556 S
C25 C24 1.371 . S
C25 H32 0.930 . S
H26 C23 0.928 . S
H27 C24 0.931 . S
H28 C4 0.930 . S
H29 C1 0.930 . S
H30 C10 0.930 . S
H31 C22 0.929 . S
H32 C25 0.930 . S
C33 C34 1.351 . S
C33 N36 1.368 . S
C33 H38 0.931 . S
C34 C33 1.351 . S
C34 N35 1.373 1_556 S
C34 H62 0.930 . S
N35 C34 1.373 1_554 S
N35 C37 1.340 . S
N36 C33 1.368 . S
N36 C37 1.321 1_556 S
N36 Co39 2.135 1_556 S
C37 N35 1.340 . S
C37 N36 1.321 1_554 S
C37 H61 0.930 . S
H38 C33 0.931 . S
Co39 N36 2.135 1_554 S
Co39 N42 2.121 1_545 S
Co39 O47 2.071 1_554 S
Co39 O50 2.039 . S
Co39 N53 2.140 . S
C40 O41 1.227 . S
C40 O50 1.265 . S
O41 C40 1.227 . S
N42 Co39 2.121 1_565 S
N42 C44 1.375 . S
N42 C45 1.313 1_554 S
C43 C44 1.338 . S
C43 N46 1.398 . S
C43 H63 0.930 . S
C44 N42 1.375 . S
C44 C43 1.338 . S
C44 H48 0.931 . S
C45 N42 1.313 1_556 S
C45 N46 1.336 1_556 S
C45 H49 0.930 . S
N46 C43 1.398 . S
N46 C45 1.336 1_554 S
O47 Co39 2.071 1_556 S
O47 C51 1.260 . S
H48 C44 0.931 . S
H49 C45 0.930 . S
O50 Co39 2.039 . S
O50 C40 1.265 . S
C51 O47 1.260 . S
C51 O52 1.227 . S
O52 C51 1.227 . S
N53 Co39 2.140 . S
N53 C56 1.346 . S
N53 C57 1.345 1_554 S
C54 C55 1.387 . S
C54 C58 1.391 1_554 S
C55 C54 1.387 . S
C55 C56 1.369 . S
C55 H64 0.929 . S
C56 N53 1.346 . S
C56 C55 1.369 . S
C56 H59 0.928 . S
C57 N53 1.345 1_556 S
C57 C58 1.371 . S
C57 H60 0.931 . S
C58 C54 1.391 1_556 S
C58 C57 1.371 . S
C58 H65 0.930 . S
H59 C56 0.928 . S
H60 C57 0.931 . S
H61 C37 0.930 . S
H62 C34 0.930 . S
H63 C43 0.930 . S
H64 C55 0.929 . S
H65 C58 0.930 . S
C66 C67 1.351 . S
C66 N69 1.368 . S
C66 H71 0.931 . S
C67 C66 1.351 . S
C67 N68 1.373 1_556 S
C67 H95 0.930 . S
N68 C67 1.373 1_554 S
N68 C70 1.340 . S
N69 C66 1.368 . S
N69 C70 1.321 1_556 S
N69 Co72 2.135 1_556 S
C70 N68 1.340 . S
C70 N69 1.321 1_554 S
C70 H94 0.930 . S
H71 C66 0.931 . S
Co72 N69 2.135 1_554 S
Co72 N75 2.121 1_655 S
Co72 O80 2.071 1_554 S
Co72 O83 2.039 . S
Co72 N86 2.140 . S
C73 O74 1.227 . S
C73 O83 1.265 . S
O74 C73 1.227 . S
N75 Co72 2.121 1_455 S
N75 C77 1.375 . S
N75 C78 1.313 1_554 S
C76 C77 1.338 . S
C76 N79 1.398 . S
C76 H96 0.930 . S
C77 N75 1.375 . S
C77 C76 1.338 . S
C77 H81 0.931 . S
C78 N75 1.313 1_556 S
C78 N79 1.336 1_556 S
C78 H82 0.930 . S
N79 C76 1.398 . S
N79 C78 1.336 1_554 S
O80 Co72 2.071 1_556 S
O80 C84 1.260 . S
H81 C77 0.931 . S
H82 C78 0.930 . S
O83 Co72 2.039 . S
O83 C73 1.265 . S
C84 O80 1.260 . S
C84 O85 1.227 . S
O85 C84 1.227 . S
N86 Co72 2.140 . S
N86 C89 1.346 . S
N86 C90 1.345 1_554 S
C87 C88 1.387 . S
C87 C91 1.391 1_554 S
C88 C87 1.387 . S
C88 C89 1.369 . S
C88 H97 0.929 . S
C89 N86 1.346 . S
C89 C88 1.369 . S
C89 H92 0.928 . S
C90 N86 1.345 1_556 S
C90 C91 1.371 . S
C90 H93 0.931 . S
C91 C87 1.391 1_556 S
C91 C90 1.371 . S
C91 H98 0.930 . S
H92 C89 0.928 . S
H93 C90 0.931 . S
H94 C70 0.930 . S
H95 C67 0.930 . S
H96 C76 0.930 . S
H97 C88 0.929 . S
H98 C91 0.930 . S
C99 C100 1.351 . S
C99 N102 1.368 . S
C99 H104 0.931 . S
C100 C99 1.351 . S
C100 N101 1.373 1_556 S
C100 H128 0.930 . S
N101 C100 1.373 1_554 S
N101 C103 1.340 . S
N102 C99 1.368 . S
N102 C103 1.321 1_556 S
N102 Co105 2.135 1_556 S
C103 N101 1.340 . S
C103 N102 1.321 1_554 S
C103 H127 0.930 . S
H104 C99 0.931 . S
Co105 N102 2.135 1_554 S
Co105 N108 2.121 1_565 S
Co105 O113 2.071 1_554 S
Co105 O116 2.039 . S
Co105 N119 2.140 . S
C106 O107 1.227 . S
C106 O116 1.265 . S
O107 C106 1.227 . S
N108 Co105 2.121 1_545 S
N108 C110 1.375 . S
N108 C111 1.313 1_554 S
C109 C110 1.338 . S
C109 N112 1.398 . S
C109 H129 0.930 . S
C110 N108 1.375 . S
C110 C109 1.338 . S
C110 H114 0.931 . S
C111 N108 1.313 1_556 S
C111 N112 1.336 1_556 S
C111 H115 0.930 . S
N112 C109 1.398 . S
N112 C111 1.336 1_554 S
O113 Co105 2.071 1_556 S
O113 C117 1.260 . S
H114 C110 0.931 . S
H115 C111 0.930 . S
O116 Co105 2.039 . S
O116 C106 1.265 . S
C117 O113 1.260 . S
C117 O118 1.227 . S
O118 C117 1.227 . S
N119 Co105 2.140 . S
N119 C122 1.346 . S
N119 C123 1.345 1_554 S
C120 C121 1.387 . S
C120 C124 1.391 1_554 S
C121 C120 1.387 . S
C121 C122 1.369 . S
C121 H130 0.929 . S
C122 N119 1.346 . S
C122 C121 1.369 . S
C122 H125 0.928 . S
C123 N119 1.345 1_556 S
C123 C124 1.371 . S
C123 H126 0.931 . S
C124 C120 1.391 1_556 S
C124 C123 1.371 . S
C124 H131 0.930 . S
H125 C122 0.928 . S
H126 C123 0.931 . S
H127 C103 0.930 . S
H128 C100 0.930 . S
H129 C109 0.930 . S
H130 C121 0.929 . S
H131 C124 0.930 . S
C132 C133 1.351 . S
C132 N135 1.368 . S
C132 H137 0.931 . S
C133 C132 1.351 . S
C133 N134 1.373 . S
C133 H161 0.930 . S
N134 C133 1.373 . S
N134 C136 1.340 . S
N135 C132 1.368 . S
N135 C136 1.321 . S
N135 Co138 2.135 . S
C136 N134 1.340 . S
C136 N135 1.321 . S
C136 H160 0.930 . S
H137 C132 0.931 . S
Co138 N135 2.135 . S
Co138 N141 2.121 1_455 S
Co138 O146 2.071 . S
Co138 O149 2.039 . S
Co138 N152 2.140 . S
C139 O140 1.227 . S
C139 O149 1.265 . S
O140 C139 1.227 . S
N141 Co138 2.121 1_655 S
N141 C143 1.375 . S
N141 C144 1.313 . S
C142 C143 1.338 . S
C142 N145 1.377 . S
C142 H162 0.930 . S
C143 N141 1.375 . S
C143 C142 1.338 . S
C143 H147 0.931 . S
C144 N141 1.313 . S
C144 N145 1.344 . S
C144 H148 0.930 . S
N145 C142 1.377 . S
N145 C144 1.344 . S
O146 Co138 2.071 . S
O146 C150 1.261 . S
H147 C143 0.931 . S
H148 C144 0.930 . S
O149 Co138 2.039 . S
O149 C139 1.265 . S
C150 O146 1.261 . S
C150 O151 1.227 . S
O151 C150 1.227 . S
N152 Co138 2.140 . S
N152 C155 1.346 . S
N152 C156 1.345 . S
C153 C154 1.387 . S
C153 C157 1.391 . S
C154 C153 1.387 . S
C154 C155 1.369 . S
C154 H163 0.929 . S
C155 N152 1.346 . S
C155 C154 1.369 . S
C155 H158 0.928 . S
C156 N152 1.345 . S
C156 C157 1.371 . S
C156 H159 0.931 . S
C157 C153 1.391 . S
C157 C156 1.371 . S
C157 H164 0.930 . S
H158 C155 0.928 . S
H159 C156 0.931 . S
H160 C136 0.930 . S
H161 C133 0.930 . S
H162 C142 0.930 . S
H163 C154 0.929 . S
H164 C157 0.930 . S
C165 C166 1.351 . S
C165 N168 1.368 . S
C165 H170 0.931 . S
C166 C165 1.351 . S
C166 N167 1.373 . S
C166 H194 0.930 . S
N167 C166 1.373 . S
N167 C169 1.340 . S
N168 C165 1.368 . S
N168 C169 1.321 . S
N168 Co171 2.135 . S
C169 N167 1.340 . S
C169 N168 1.321 . S
C169 H193 0.930 . S
H170 C165 0.931 . S
Co171 N168 2.135 . S
Co171 N174 2.121 1_545 S
Co171 O179 2.071 . S
Co171 O182 2.039 . S
Co171 N185 2.140 . S
C172 O173 1.227 . S
C172 O182 1.265 . S
O173 C172 1.227 . S
N174 Co171 2.121 1_565 S
N174 C176 1.375 . S
N174 C177 1.313 . S
C175 C176 1.338 . S
C175 N178 1.377 . S
C175 H195 0.930 . S
C176 N174 1.375 . S
C176 C175 1.338 . S
C176 H180 0.931 . S
C177 N174 1.313 . S
C177 N178 1.344 . S
C177 H181 0.930 . S
N178 C175 1.377 . S
N178 C177 1.344 . S
O179 Co171 2.071 . S
O179 C183 1.261 . S
H180 C176 0.931 . S
H181 C177 0.930 . S
O182 Co171 2.039 . S
O182 C172 1.265 . S
C183 O179 1.261 . S
C183 O184 1.227 . S
O184 C183 1.227 . S
N185 Co171 2.140 . S
N185 C188 1.346 . S
N185 C189 1.345 . S
C186 C187 1.387 . S
C186 C190 1.391 . S
C187 C186 1.387 . S
C187 C188 1.369 . S
C187 H196 0.929 . S
C188 N185 1.346 . S
C188 C187 1.369 . S
C188 H191 0.928 . S
C189 N185 1.345 . S
C189 C190 1.371 . S
C189 H192 0.931 . S
C190 C186 1.391 . S
C190 C189 1.371 . S
C190 H197 0.930 . S
H191 C188 0.928 . S
H192 C189 0.931 . S
H193 C169 0.930 . S
H194 C166 0.930 . S
H195 C175 0.930 . S
H196 C187 0.929 . S
H197 C190 0.930 . S
C198 C199 1.351 . S
C198 N201 1.368 . S
C198 H203 0.931 . S
C199 C198 1.351 . S
C199 N200 1.373 . S
C199 H227 0.930 . S
N200 C199 1.373 . S
N200 C202 1.340 . S
N201 C198 1.368 . S
N201 C202 1.321 . S
N201 Co204 2.135 . S
C202 N200 1.340 . S
C202 N201 1.321 . S
C202 H226 0.930 . S
H203 C198 0.931 . S
Co204 N201 2.135 . S
Co204 N207 2.121 1_655 S
Co204 O212 2.071 . S
Co204 O215 2.039 . S
Co204 N218 2.140 . S
C205 O206 1.227 . S
C205 O215 1.265 . S
O206 C205 1.227 . S
N207 Co204 2.121 1_455 S
N207 C209 1.375 . S
N207 C210 1.313 . S
C208 C209 1.338 . S
C208 N211 1.377 . S
C208 H228 0.930 . S
C209 N207 1.375 . S
C209 C208 1.338 . S
C209 H213 0.931 . S
C210 N207 1.313 . S
C210 N211 1.344 . S
C210 H214 0.930 . S
N211 C208 1.377 . S
N211 C210 1.344 . S
O212 Co204 2.071 . S
O212 C216 1.261 . S
H213 C209 0.931 . S
H214 C210 0.930 . S
O215 Co204 2.039 . S
O215 C205 1.265 . S
C216 O212 1.261 . S
C216 O217 1.227 . S
O217 C216 1.227 . S
N218 Co204 2.140 . S
N218 C221 1.346 . S
N218 C222 1.345 . S
C219 C220 1.387 . S
C219 C223 1.391 . S
C220 C219 1.387 . S
C220 C221 1.369 . S
C220 H229 0.929 . S
C221 N218 1.346 . S
C221 C220 1.369 . S
C221 H224 0.928 . S
C222 N218 1.345 . S
C222 C223 1.371 . S
C222 H225 0.931 . S
C223 C219 1.391 . S
C223 C222 1.371 . S
C223 H230 0.930 . S
H224 C221 0.928 . S
H225 C222 0.931 . S
H226 C202 0.930 . S
H227 C199 0.930 . S
H228 C208 0.930 . S
H229 C220 0.929 . S
H230 C223 0.930 . S
C231 C232 1.351 . S
C231 N234 1.368 . S
C231 H236 0.931 . S
C232 C231 1.351 . S
C232 N233 1.373 . S
C232 H260 0.930 . S
N233 C232 1.373 . S
N233 C235 1.340 . S
N234 C231 1.368 . S
N234 C235 1.321 . S
N234 Co237 2.135 . S
C235 N233 1.340 . S
C235 N234 1.321 . S
C235 H259 0.930 . S
H236 C231 0.931 . S
Co237 N234 2.135 . S
Co237 N240 2.121 1_565 S
Co237 O245 2.071 . S
Co237 O248 2.039 . S
Co237 N251 2.140 . S
C238 O239 1.227 . S
C238 O248 1.265 . S
O239 C238 1.227 . S
N240 Co237 2.121 1_545 S
N240 C242 1.375 . S
N240 C243 1.313 . S
C241 C242 1.338 . S
C241 N244 1.377 . S
C241 H261 0.930 . S
C242 N240 1.375 . S
C242 C241 1.338 . S
C242 H246 0.931 . S
C243 N240 1.313 . S
C243 N244 1.344 . S
C243 H247 0.930 . S
N244 C241 1.377 . S
N244 C243 1.344 . S
O245 Co237 2.071 . S
O245 C249 1.261 . S
H246 C242 0.931 . S
H247 C243 0.930 . S
O248 Co237 2.039 . S
O248 C238 1.265 . S
C249 O245 1.261 . S
C249 O250 1.227 . S
O250 C249 1.227 . S
N251 Co237 2.140 . S
N251 C254 1.346 . S
N251 C255 1.345 . S
C252 C253 1.387 . S
C252 C256 1.391 . S
C253 C252 1.387 . S
C253 C254 1.369 . S
C253 H262 0.929 . S
C254 N251 1.346 . S
C254 C253 1.369 . S
C254 H257 0.928 . S
C255 N251 1.345 . S
C255 C256 1.371 . S
C255 H258 0.931 . S
C256 C252 1.391 . S
C256 C255 1.371 . S
C256 H263 0.930 . S
H257 C254 0.928 . S
H258 C255 0.931 . S
H259 C235 0.930 . S
H260 C232 0.930 . S
H261 C241 0.930 . S
H262 C253 0.929 . S
H263 C256 0.930 . S
C264 C265 1.351 . S
C264 N267 1.368 . S
C264 H269 0.931 . S
C265 C264 1.351 . S
C265 N266 1.373 . S
C265 H293 0.930 . S
N266 C265 1.373 . S
N266 C268 1.340 . S
N267 C264 1.368 . S
N267 C268 1.321 . S
N267 Co270 2.135 . S
C268 N266 1.340 . S
C268 N267 1.321 . S
C268 H292 0.930 . S
H269 C264 0.931 . S
Co270 N267 2.135 . S
Co270 N273 2.121 . S
Co270 O278 2.055 . S
Co270 O281 2.039 . S
Co270 N284 2.140 . S
C271 O272 1.227 . S
C271 O281 1.265 . S
O272 C271 1.227 . S
N273 Co270 2.121 . S
N273 C275 1.375 . S
N273 C276 1.313 . S
C274 C275 1.338 . S
C274 N277 1.377 . S
C274 H294 0.930 . S
C275 N273 1.375 . S
C275 C274 1.338 . S
C275 H279 0.931 . S
C276 N273 1.313 . S
C276 N277 1.344 . S
C276 H280 0.930 . S
N277 C274 1.377 . S
N277 C276 1.344 . S
O278 Co270 2.055 . S
O278 C282 1.253 . S
H279 C275 0.931 . S
H280 C276 0.930 . S
O281 Co270 2.039 . S
O281 C271 1.265 . S
C282 O278 1.253 . S
C282 O283 1.227 . S
O283 C282 1.227 . S
N284 Co270 2.140 . S
N284 C287 1.346 . S
N284 C288 1.345 . S
C285 C286 1.387 . S
C285 C289 1.391 . S
C286 C285 1.387 . S
C286 C287 1.369 . S
C286 H295 0.929 . S
C287 N284 1.346 . S
C287 C286 1.369 . S
C287 H290 0.928 . S
C288 N284 1.345 . S
C288 C289 1.371 . S
C288 H291 0.931 . S
C289 C285 1.391 . S
C289 C288 1.371 . S
C289 H296 0.930 . S
H290 C287 0.928 . S
H291 C288 0.931 . S
H292 C268 0.930 . S
H293 C265 0.930 . S
H294 C274 0.930 . S
H295 C286 0.929 . S
H296 C289 0.930 . S
C297 C298 1.351 . S
C297 N300 1.368 . S
C297 H302 0.931 . S
C298 C297 1.351 . S
C298 N299 1.373 . S
C298 H326 0.930 . S
N299 C298 1.373 . S
N299 C301 1.340 . S
N300 C297 1.368 . S
N300 C301 1.321 . S
N300 Co303 2.135 . S
C301 N299 1.340 . S
C301 N300 1.321 . S
C301 H325 0.930 . S
H302 C297 0.931 . S
Co303 N300 2.135 . S
Co303 N306 2.121 . S
Co303 O311 2.055 . S
Co303 O314 2.039 . S
Co303 N317 2.140 . S
C304 O305 1.227 . S
C304 O314 1.265 . S
O305 C304 1.227 . S
N306 Co303 2.121 . S
N306 C308 1.375 . S
N306 C309 1.313 . S
C307 C308 1.338 . S
C307 N310 1.377 . S
C307 H327 0.930 . S
C308 N306 1.375 . S
C308 C307 1.338 . S
C308 H312 0.931 . S
C309 N306 1.313 . S
C309 N310 1.344 . S
C309 H313 0.930 . S
N310 C307 1.377 . S
N310 C309 1.344 . S
O311 Co303 2.055 . S
O311 C315 1.253 . S
H312 C308 0.931 . S
H313 C309 0.930 . S
O314 Co303 2.039 . S
O314 C304 1.265 . S
C315 O311 1.253 . S
C315 O316 1.227 . S
O316 C315 1.227 . S
N317 Co303 2.140 . S
N317 C320 1.346 . S
N317 C321 1.345 . S
C318 C319 1.387 . S
C318 C322 1.391 . S
C319 C318 1.387 . S
C319 C320 1.369 . S
C319 H328 0.929 . S
C320 N317 1.346 . S
C320 C319 1.369 . S
C320 H323 0.928 . S
C321 N317 1.345 . S
C321 C322 1.371 . S
C321 H324 0.931 . S
C322 C318 1.391 . S
C322 C321 1.371 . S
C322 H329 0.930 . S
H323 C320 0.928 . S
H324 C321 0.931 . S
H325 C301 0.930 . S
H326 C298 0.930 . S
H327 C307 0.930 . S
H328 C319 0.929 . S
H329 C322 0.930 . S
C330 C331 1.351 . S
C330 N333 1.368 . S
C330 H335 0.931 . S
C331 C330 1.351 . S
C331 N332 1.373 . S
C331 H359 0.930 . S
N332 C331 1.373 . S
N332 C334 1.340 . S
N333 C330 1.368 . S
N333 C334 1.321 . S
N333 Co336 2.135 . S
C334 N332 1.340 . S
C334 N333 1.321 . S
C334 H358 0.930 . S
H335 C330 0.931 . S
Co336 N333 2.135 . S
Co336 N339 2.121 . S
Co336 O344 2.055 . S
Co336 O347 2.039 . S
Co336 N350 2.140 . S
C337 O338 1.227 . S
C337 O347 1.265 . S
O338 C337 1.227 . S
N339 Co336 2.121 . S
N339 C341 1.375 . S
N339 C342 1.313 . S
C340 C341 1.338 . S
C340 N343 1.377 . S
C340 H360 0.930 . S
C341 N339 1.375 . S
C341 C340 1.338 . S
C341 H345 0.931 . S
C342 N339 1.313 . S
C342 N343 1.344 . S
C342 H346 0.930 . S
N343 C340 1.377 . S
N343 C342 1.344 . S
O344 Co336 2.055 . S
O344 C348 1.253 . S
H345 C341 0.931 . S
H346 C342 0.930 . S
O347 Co336 2.039 . S
O347 C337 1.265 . S
C348 O344 1.253 . S
C348 O349 1.227 . S
O349 C348 1.227 . S
N350 Co336 2.140 . S
N350 C353 1.346 . S
N350 C354 1.345 . S
C351 C352 1.387 . S
C351 C355 1.391 . S
C352 C351 1.387 . S
C352 C353 1.369 . S
C352 H361 0.929 . S
C353 N350 1.346 . S
C353 C352 1.369 . S
C353 H356 0.928 . S
C354 N350 1.345 . S
C354 C355 1.371 . S
C354 H357 0.931 . S
C355 C351 1.391 . S
C355 C354 1.371 . S
C355 H362 0.930 . S
H356 C353 0.928 . S
H357 C354 0.931 . S
H358 C334 0.930 . S
H359 C331 0.930 . S
H360 C340 0.930 . S
H361 C352 0.929 . S
H362 C355 0.930 . S
C363 C364 1.351 . S
C363 N366 1.368 . S
C363 H368 0.931 . S
C364 C363 1.351 . S
C364 N365 1.373 . S
C364 H392 0.930 . S
N365 C364 1.373 . S
N365 C367 1.340 . S
N366 C363 1.368 . S
N366 C367 1.321 . S
N366 Co369 2.135 . S
C367 N365 1.340 . S
C367 N366 1.321 . S
C367 H391 0.930 . S
H368 C363 0.931 . S
Co369 N366 2.135 . S
Co369 N372 2.121 . S
Co369 O377 2.055 . S
Co369 O380 2.039 . S
Co369 N383 2.140 . S
C370 O371 1.227 . S
C370 O380 1.265 . S
O371 C370 1.227 . S
N372 Co369 2.121 . S
N372 C374 1.375 . S
N372 C375 1.313 . S
C373 C374 1.338 . S
C373 N376 1.377 . S
C373 H393 0.930 . S
C374 N372 1.375 . S
C374 C373 1.338 . S
C374 H378 0.931 . S
C375 N372 1.313 . S
C375 N376 1.344 . S
C375 H379 0.930 . S
N376 C373 1.377 . S
N376 C375 1.344 . S
O377 Co369 2.055 . S
O377 C381 1.253 . S
H378 C374 0.931 . S
H379 C375 0.930 . S
O380 Co369 2.039 . S
O380 C370 1.265 . S
C381 O377 1.253 . S
C381 O382 1.227 . S
O382 C381 1.227 . S
N383 Co369 2.140 . S
N383 C386 1.346 . S
N383 C387 1.345 . S
C384 C385 1.387 . S
C384 C388 1.391 . S
C385 C384 1.387 . S
C385 C386 1.369 . S
C385 H394 0.929 . S
C386 N383 1.346 . S
C386 C385 1.369 . S
C386 H389 0.928 . S
C387 N383 1.345 . S
C387 C388 1.371 . S
C387 H390 0.931 . S
C388 C384 1.391 . S
C388 C387 1.371 . S
C388 H395 0.930 . S
H389 C386 0.928 . S
H390 C387 0.931 . S
H391 C367 0.930 . S
H392 C364 0.930 . S
H393 C373 0.930 . S
H394 C385 0.929 . S
H395 C388 0.930 . S
C396 C397 1.351 . S
C396 N399 1.368 . S
C396 H401 0.931 . S
C397 C396 1.351 . S
C397 N398 1.373 . S
C397 H425 0.930 . S
N398 C397 1.373 . S
N398 C400 1.340 . S
N399 C396 1.368 . S
N399 C400 1.321 . S
N399 Co402 2.135 . S
C400 N398 1.340 . S
C400 N399 1.321 . S
C400 H424 0.930 1_554 S
H401 C396 0.931 . S
Co402 N399 2.135 . S
Co402 N405 2.121 . S
Co402 O410 2.055 . S
Co402 O413 2.039 1_554 S
Co402 N416 2.140 . S
C403 O404 1.227 . S
C403 O413 1.265 . S
O404 C403 1.227 . S
N405 Co402 2.121 . S
N405 C407 1.375 1_554 S
N405 C408 1.313 . S
C406 C407 1.338 . S
C406 N409 1.377 1_556 S
C406 H426 0.930 . S
C407 N405 1.375 1_556 S
C407 C406 1.338 . S
C407 H411 0.931 . S
C408 N405 1.313 . S
C408 N409 1.344 . S
C408 H412 0.930 . S
N409 C406 1.377 1_554 S
N409 C408 1.344 . S
O410 Co402 2.055 . S
O410 C414 1.253 . S
H411 C407 0.931 . S
H412 C408 0.930 . S
O413 Co402 2.039 1_556 S
O413 C403 1.265 . S
C414 O410 1.253 . S
C414 O415 1.227 . S
O415 C414 1.227 . S
N416 Co402 2.140 . S
N416 C419 1.353 . S
N416 C420 1.345 . S
C417 C418 1.387 1_554 S
C417 C421 1.391 . S
C418 C417 1.387 1_556 S
C418 C419 1.369 1_556 S
C418 H427 0.929 . S
C419 N416 1.353 . S
C419 C418 1.369 1_554 S
C419 H422 0.922 1_554 S
C420 N416 1.345 . S
C420 C421 1.371 . S
C420 H423 0.931 . S
C421 C417 1.391 . S
C421 C420 1.371 . S
C421 H428 0.930 . S
H422 C419 0.922 1_556 S
H423 C420 0.931 . S
H424 C400 0.930 1_556 S
H425 C397 0.930 . S
H426 C406 0.930 . S
H427 C418 0.929 . S
H428 C421 0.930 . S
C429 C430 1.351 . S
C429 N432 1.368 . S
C429 H434 0.931 . S
C430 C429 1.351 . S
C430 N431 1.373 . S
C430 H458 0.930 . S
N431 C430 1.373 . S
N431 C433 1.340 . S
N432 C429 1.368 . S
N432 C433 1.321 . S
N432 Co435 2.135 . S
C433 N431 1.340 . S
C433 N432 1.321 . S
C433 H457 0.930 1_554 S
H434 C429 0.931 . S
Co435 N432 2.135 . S
Co435 N438 2.121 . S
Co435 O443 2.055 . S
Co435 O446 2.039 1_554 S
Co435 N449 2.140 . S
C436 O437 1.227 . S
C436 O446 1.265 . S
O437 C436 1.227 . S
N438 Co435 2.121 . S
N438 C440 1.375 1_554 S
N438 C441 1.313 . S
C439 C440 1.338 . S
C439 N442 1.377 1_556 S
C439 H459 0.930 . S
C440 N438 1.375 1_556 S
C440 C439 1.338 . S
C440 H444 0.931 . S
C441 N438 1.313 . S
C441 N442 1.344 . S
C441 H445 0.930 . S
N442 C439 1.377 1_554 S
N442 C441 1.344 . S
O443 Co435 2.055 . S
O443 C447 1.253 . S
H444 C440 0.931 . S
H445 C441 0.930 . S
O446 Co435 2.039 1_556 S
O446 C436 1.265 . S
C447 O443 1.253 . S
C447 O448 1.227 . S
O448 C447 1.227 . S
N449 Co435 2.140 . S
N449 C452 1.353 . S
N449 C453 1.345 . S
C450 C451 1.387 1_554 S
C450 C454 1.391 . S
C451 C450 1.387 1_556 S
C451 C452 1.369 1_556 S
C451 H460 0.929 . S
C452 N449 1.353 . S
C452 C451 1.369 1_554 S
C452 H455 0.922 1_554 S
C453 N449 1.345 . S
C453 C454 1.371 . S
C453 H456 0.931 . S
C454 C450 1.391 . S
C454 C453 1.371 . S
C454 H461 0.930 . S
H455 C452 0.922 1_556 S
H456 C453 0.931 . S
H457 C433 0.930 1_556 S
H458 C430 0.930 . S
H459 C439 0.930 . S
H460 C451 0.929 . S
H461 C454 0.930 . S
C462 C463 1.351 . S
C462 N465 1.368 . S
C462 H467 0.931 . S
C463 C462 1.351 . S
C463 N464 1.373 . S
C463 H491 0.930 . S
N464 C463 1.373 . S
N464 C466 1.340 . S
N465 C462 1.368 . S
N465 C466 1.321 . S
N465 Co468 2.135 . S
C466 N464 1.340 . S
C466 N465 1.321 . S
C466 H490 0.930 1_554 S
H467 C462 0.931 . S
Co468 N465 2.135 . S
Co468 N471 2.121 . S
Co468 O476 2.055 . S
Co468 O479 2.039 1_554 S
Co468 N482 2.140 . S
C469 O470 1.227 . S
C469 O479 1.265 . S
O470 C469 1.227 . S
N471 Co468 2.121 . S
N471 C473 1.375 1_554 S
N471 C474 1.313 . S
C472 C473 1.338 . S
C472 N475 1.377 1_556 S
C472 H492 0.930 . S
C473 N471 1.375 1_556 S
C473 C472 1.338 . S
C473 H477 0.931 . S
C474 N471 1.313 . S
C474 N475 1.344 . S
C474 H478 0.930 . S
N475 C472 1.377 1_554 S
N475 C474 1.344 . S
O476 Co468 2.055 . S
O476 C480 1.253 . S
H477 C473 0.931 . S
H478 C474 0.930 . S
O479 Co468 2.039 1_556 S
O479 C469 1.265 . S
C480 O476 1.253 . S
C480 O481 1.227 . S
O481 C480 1.227 . S
N482 Co468 2.140 . S
N482 C485 1.353 . S
N482 C486 1.345 . S
C483 C484 1.387 1_554 S
C483 C487 1.391 . S
C484 C483 1.387 1_556 S
C484 C485 1.369 1_556 S
C484 H493 0.929 . S
C485 N482 1.353 . S
C485 C484 1.369 1_554 S
C485 H488 0.922 1_554 S
C486 N482 1.345 . S
C486 C487 1.371 . S
C486 H489 0.931 . S
C487 C483 1.391 . S
C487 C486 1.371 . S
C487 H494 0.930 . S
H488 C485 0.922 1_556 S
H489 C486 0.931 . S
H490 C466 0.930 1_556 S
H491 C463 0.930 . S
H492 C472 0.930 . S
H493 C484 0.929 . S
H494 C487 0.930 . S
C495 C496 1.351 . S
C495 N498 1.368 . S
C495 H500 0.931 . S
C496 C495 1.351 . S
C496 N497 1.373 . S
C496 H524 0.930 . S
N497 C496 1.373 . S
N497 C499 1.340 . S
N498 C495 1.368 . S
N498 C499 1.321 . S
N498 Co501 2.135 . S
C499 N497 1.340 . S
C499 N498 1.321 . S
C499 H523 0.930 1_554 S
H500 C495 0.931 . S
Co501 N498 2.135 . S
Co501 N504 2.121 . S
Co501 O509 2.055 . S
Co501 O512 2.039 1_554 S
Co501 N515 2.140 . S
C502 O503 1.227 . S
C502 O512 1.265 . S
O503 C502 1.227 . S
N504 Co501 2.121 . S
N504 C506 1.375 1_554 S
N504 C507 1.313 . S
C505 C506 1.338 . S
C505 N508 1.377 1_556 S
C505 H525 0.930 . S
C506 N504 1.375 1_556 S
C506 C505 1.338 . S
C506 H510 0.931 . S
C507 N504 1.313 . S
C507 N508 1.344 . S
C507 H511 0.930 . S
N508 C505 1.377 1_554 S
N508 C507 1.344 . S
O509 Co501 2.055 . S
O509 C513 1.253 . S
H510 C506 0.931 . S
H511 C507 0.930 . S
O512 Co501 2.039 1_556 S
O512 C502 1.265 . S
C513 O509 1.253 . S
C513 O514 1.227 . S
O514 C513 1.227 . S
N515 Co501 2.140 . S
N515 C518 1.353 . S
N515 C519 1.345 . S
C516 C517 1.387 1_554 S
C516 C520 1.391 . S
C517 C516 1.387 1_556 S
C517 C518 1.369 1_556 S
C517 H526 0.929 . S
C518 N515 1.353 . S
C518 C517 1.369 1_554 S
C518 H521 0.922 1_554 S
C519 N515 1.345 . S
C519 C520 1.371 . S
C519 H522 0.931 . S
C520 C516 1.391 . S
C520 C519 1.371 . S
C520 H527 0.930 . S
H521 C518 0.922 1_556 S
H522 C519 0.931 . S
H523 C499 0.930 1_556 S
H524 C496 0.930 . S
H525 C505 0.930 . S
H526 C517 0.929 . S
H527 C520 0.930 . S
H528 C534 0.930 . S
H529 C537 0.930 . S
H530 C538 0.930 . S
H531 C539 0.930 . S
H532 C542 0.930 1_556 S
H533 C543 0.930 1_556 S
C534 H528 0.930 . S
C534 C535 1.355 . S
C534 C536 1.415 . S
C535 C534 1.355 . S
C535 C537 1.419 . S
C536 C534 1.415 . S
C536 C541 1.425 . S
C536 C543 1.409 . S
C537 H529 0.930 . S
C537 C535 1.419 . S
C537 C538 1.362 . S
C538 H530 0.930 . S
C538 C537 1.362 . S
C538 C541 1.409 . S
C539 H531 0.930 . S
C539 C540 1.355 . S
C539 C541 1.415 . S
C540 C539 1.355 . S
C540 C542 1.419 . S
C541 C536 1.425 . S
C541 C538 1.409 . S
C541 C539 1.415 . S
C542 H532 0.930 1_554 S
C542 C540 1.419 . S
C542 C543 1.362 . S
C543 H533 0.930 1_554 S
C543 C536 1.409 . S
C543 C542 1.362 . S
H544 C550 0.930 . S
H545 C553 0.930 . S
H546 C554 0.930 . S
H547 C555 0.930 . S
H548 C558 0.930 . S
H549 C559 0.930 . S
C550 H544 0.930 . S
C550 C551 1.355 . S
C550 C552 1.415 . S
C551 C550 1.355 . S
C551 C553 1.419 . S
C552 C550 1.415 . S
C552 C557 1.425 . S
C552 C559 1.409 . S
C553 H545 0.930 . S
C553 C551 1.419 . S
C553 C554 1.362 . S
C554 H546 0.930 . S
C554 C553 1.362 . S
C554 C557 1.409 . S
C555 H547 0.930 . S
C555 C556 1.355 . S
C555 C557 1.415 . S
C556 C555 1.355 . S
C556 C558 1.419 . S
C557 C552 1.425 . S
C557 C554 1.409 . S
C557 C555 1.415 . S
C558 H548 0.930 . S
C558 C556 1.419 . S
C558 C559 1.362 . S
C559 H549 0.930 . S
C559 C552 1.409 . S
C559 C558 1.362 . S
H560 C566 0.930 . S
H561 C569 0.930 . S
H562 C570 0.930 . S
H563 C571 0.930 . S
H564 C574 0.930 . S
H565 C575 0.930 . S
C566 H560 0.930 . S
C566 C567 1.355 . S
C566 C568 1.415 . S
C567 C566 1.355 . S
C567 C569 1.419 . S
C568 C566 1.415 . S
C568 C573 1.425 . S
C568 C575 1.409 . S
C569 H561 0.930 . S
C569 C567 1.419 . S
C569 C570 1.362 . S
C570 H562 0.930 . S
C570 C569 1.362 . S
C570 C573 1.409 . S
C571 H563 0.930 . S
C571 C572 1.355 . S
C571 C573 1.415 . S
C572 C571 1.355 . S
C572 C574 1.419 . S
C573 C568 1.425 . S
C573 C570 1.409 . S
C573 C571 1.415 . S
C574 H564 0.930 . S
C574 C572 1.419 . S
C574 C575 1.362 . S
C575 H565 0.930 . S
C575 C568 1.409 . S
C575 C574 1.362 . S
H576 C582 0.930 1_556 S
H577 C585 0.930 . S
H578 C586 0.930 . S
H579 C587 0.930 . S
H580 C590 0.930 . S
H581 C591 0.930 . S
C582 H576 0.930 1_554 S
C582 C583 1.355 . S
C582 C584 1.415 . S
C583 C582 1.355 . S
C583 C585 1.419 . S
C584 C582 1.415 . S
C584 C589 1.425 . S
C584 C591 1.409 1_554 S
C585 H577 0.930 . S
C585 C583 1.419 . S
C585 C586 1.362 . S
C586 H578 0.930 . S
C586 C585 1.362 . S
C586 C589 1.409 . S
C587 H579 0.930 . S
C587 C588 1.355 . S
C587 C589 1.415 . S
C588 C587 1.355 . S
C588 C590 1.419 1_554 S
C589 C584 1.425 . S
C589 C586 1.409 . S
C589 C587 1.415 . S
C590 H580 0.930 . S
C590 C588 1.419 1_556 S
C590 C591 1.362 . S
C591 H581 0.930 . S
C591 C584 1.409 1_556 S
C591 C590 1.362 . S
H592 C598 0.930 . S
H593 C601 0.930 . S
H594 C602 0.930 . S
H595 C603 0.930 . S
H596 C606 0.930 . S
H597 C607 0.930 . S
C598 H592 0.930 . S
C598 C599 1.355 . S
C598 C600 1.415 . S
C599 C598 1.355 . S
C599 C601 1.419 . S
C600 C598 1.415 . S
C600 C605 1.425 . S
C600 C607 1.409 . S
C601 H593 0.930 . S
C601 C599 1.419 . S
C601 C602 1.362 . S
C602 H594 0.930 . S
C602 C601 1.362 . S
C602 C605 1.409 . S
C603 H595 0.930 . S
C603 C604 1.355 . S
C603 C605 1.415 . S
C604 C603 1.355 . S
C604 C606 1.419 . S
C605 C600 1.425 . S
C605 C602 1.409 . S
C605 C603 1.415 . S
C606 H596 0.930 . S
C606 C604 1.419 . S
C606 C607 1.362 . S
C607 H597 0.930 . S
C607 C600 1.409 . S
C607 C606 1.362 . S
H608 C614 0.930 . S
H609 C617 0.930 . S
H610 C618 0.930 . S
H611 C619 0.930 . S
H612 C622 0.930 . S
H613 C623 0.930 . S
C614 H608 0.930 . S
C614 C615 1.355 . S
C614 C616 1.415 . S
C615 C614 1.355 . S
C615 C617 1.419 . S
C616 C614 1.415 . S
C616 C621 1.425 . S
C616 C623 1.409 . S
C617 H609 0.930 . S
C617 C615 1.419 . S
C617 C618 1.362 . S
C618 H610 0.930 . S
C618 C617 1.362 . S
C618 C621 1.409 . S
C619 H611 0.930 . S
C619 C620 1.355 . S
C619 C621 1.415 . S
C620 C619 1.355 . S
C620 C622 1.419 . S
C621 C616 1.425 . S
C621 C618 1.409 . S
C621 C619 1.415 . S
C622 H612 0.930 . S
C622 C620 1.419 . S
C622 C623 1.362 . S
C623 H613 0.930 . S
C623 C616 1.409 . S
C623 C622 1.362 . S
H624 C630 0.930 . S
H625 C633 0.930 . S
H626 C634 0.930 . S
H627 C635 0.930 . S
H628 C638 0.930 . S
H629 C639 0.930 . S
C630 H624 0.930 . S
C630 C631 1.355 . S
C630 C632 1.415 . S
C631 C630 1.355 . S
C631 C633 1.419 . S
C632 C630 1.415 . S
C632 C637 1.425 . S
C632 C639 1.409 . S
C633 H625 0.930 . S
C633 C631 1.419 . S
C633 C634 1.362 . S
C634 H626 0.930 . S
C634 C633 1.362 . S
C634 C637 1.409 . S
C635 H627 0.930 . S
C635 C636 1.355 . S
C635 C637 1.415 . S
C636 C635 1.355 . S
C636 C638 1.419 . S
C637 C632 1.425 . S
C637 C634 1.409 . S
C637 C635 1.415 . S
C638 H628 0.930 . S
C638 C636 1.419 . S
C638 C639 1.362 . S
C639 H629 0.930 . S
C639 C632 1.409 . S
C639 C638 1.362 . S
H640 C646 0.930 . S
H641 C649 0.930 . S
H642 C650 0.930 . S
H643 C651 0.930 . S
H644 C654 0.930 . S
H645 C655 0.930 . S
C646 H640 0.930 . S
C646 C647 1.355 . S
C646 C648 1.415 . S
C647 C646 1.355 . S
C647 C649 1.419 . S
C648 C646 1.415 . S
C648 C653 1.425 . S
C648 C655 1.409 . S
C649 H641 0.930 . S
C649 C647 1.419 . S
C649 C650 1.362 . S
C650 H642 0.930 . S
C650 C649 1.362 . S
C650 C653 1.409 . S
C651 H643 0.930 . S
C651 C652 1.355 . S
C651 C653 1.415 . S
C652 C651 1.355 . S
C652 C654 1.419 . S
C653 C648 1.425 . S
C653 C650 1.409 . S
C653 C651 1.415 . S
C654 H644 0.930 . S
C654 C652 1.419 . S
C654 C655 1.362 . S
C655 H645 0.930 . S
C655 C648 1.409 . S
C655 C654 1.362 . S
H656 C662 0.930 . S
H657 C665 0.930 . S
H658 C666 0.930 . S
H659 C667 0.930 . S
H660 C670 0.930 . S
H661 C671 0.930 . S
C662 H656 0.930 . S
C662 C663 1.355 . S
C662 C664 1.415 . S
C663 C662 1.355 . S
C663 C665 1.419 1_556 S
C664 C662 1.415 . S
C664 C669 1.425 1_556 S
C664 C671 1.409 . S
C665 H657 0.930 . S
C665 C663 1.419 1_554 S
C665 C666 1.362 . S
C666 H658 0.930 . S
C666 C665 1.362 . S
C666 C669 1.409 . S
C667 H659 0.930 . S
C667 C668 1.355 . S
C667 C669 1.415 . S
C668 C667 1.355 . S
C668 C670 1.419 1_554 S
C669 C664 1.425 1_554 S
C669 C666 1.409 . S
C669 C667 1.415 . S
C670 H660 0.930 . S
C670 C668 1.419 1_556 S
C670 C671 1.362 . S
C671 H661 0.930 . S
C671 C664 1.409 . S
C671 C670 1.362 . S
H672 C678 0.930 . S
H673 C681 0.930 . S
H674 C682 0.930 . S
H675 C683 0.930 . S
H676 C686 0.930 . S
H677 C687 0.930 . S
C678 H672 0.930 . S
C678 C679 1.355 . S
C678 C680 1.415 . S
C679 C678 1.355 . S
C679 C681 1.419 1_556 S
C680 C678 1.415 . S
C680 C685 1.425 1_556 S
C680 C687 1.409 . S
C681 H673 0.930 . S
C681 C679 1.419 1_554 S
C681 C682 1.362 . S
C682 H674 0.930 . S
C682 C681 1.362 . S
C682 C685 1.409 . S
C683 H675 0.930 . S
C683 C684 1.355 . S
C683 C685 1.415 . S
C684 C683 1.355 . S
C684 C686 1.419 1_554 S
C685 C680 1.425 1_554 S
C685 C682 1.409 . S
C685 C683 1.415 . S
C686 H676 0.930 . S
C686 C684 1.419 1_556 S
C686 C687 1.362 . S
C687 H677 0.930 . S
C687 C680 1.409 . S
C687 C686 1.362 . S
H688 C694 0.930 . S
H689 C697 0.930 . S
H690 C698 0.930 . S
H691 C699 0.930 . S
H692 C702 0.930 . S
H693 C703 0.930 . S
C694 H688 0.930 . S
C694 C695 1.355 . S
C694 C696 1.415 1_554 S
C695 C694 1.355 . S
C695 C697 1.419 . S
C696 C694 1.415 1_556 S
C696 C701 1.425 1_556 S
C696 C703 1.409 . S
C697 H689 0.930 . S
C697 C695 1.419 . S
C697 C698 1.362 . S
C698 H690 0.930 . S
C698 C697 1.362 . S
C698 C701 1.409 . S
C699 H691 0.930 . S
C699 C700 1.355 . S
C699 C701 1.415 1_556 S
C700 C699 1.355 . S
C700 C702 1.419 . S
C701 C696 1.425 1_554 S
C701 C698 1.409 . S
C701 C699 1.415 1_554 S
C702 H692 0.930 . S
C702 C700 1.419 . S
C702 C703 1.362 . S
C703 H693 0.930 . S
C703 C696 1.409 . S
C703 C702 1.362 . S
H704 C710 0.930 . S
H705 C713 0.930 . S
H706 C714 0.930 . S
H707 C715 0.930 . S
H708 C718 0.930 . S
H709 C719 0.930 . S
C710 H704 0.930 . S
C710 C711 1.355 1_556 S
C710 C712 1.415 . S
C711 C710 1.355 1_554 S
C711 C713 1.419 . S
C712 C710 1.415 . S
C712 C717 1.425 1_556 S
C712 C719 1.409 . S
C713 H705 0.930 . S
C713 C711 1.419 . S
C713 C714 1.362 . S
C714 H706 0.930 . S
C714 C713 1.362 . S
C714 C717 1.409 . S
C715 H707 0.930 . S
C715 C716 1.355 1_554 S
C715 C717 1.415 . S
C716 C715 1.355 1_556 S
C716 C718 1.419 . S
C717 C712 1.425 1_554 S
C717 C714 1.409 . S
C717 C715 1.415 . S
C718 H708 0.930 . S
C718 C716 1.419 . S
C718 C719 1.362 . S
C719 H709 0.930 . S
C719 C712 1.409 . S
C719 C718 1.362 . S
H720 C726 0.930 . S
H721 C729 0.930 . S
H722 C730 0.930 . S
H723 C731 0.930 . S
H724 C734 0.930 . S
H725 C735 0.930 . S
C726 H720 0.930 . S
C726 C727 1.355 . S
C726 C728 1.415 . S
C727 C726 1.355 . S
C727 C729 1.419 . S
C728 C726 1.415 . S
C728 C733 1.425 . S
C728 C735 1.409 . S
C729 H721 0.930 . S
C729 C727 1.419 . S
C729 C730 1.362 . S
C730 H722 0.930 . S
C730 C729 1.362 . S
C730 C733 1.409 . S
C731 H723 0.930 . S
C731 C732 1.355 . S
C731 C733 1.415 . S
C732 C731 1.355 . S
C732 C734 1.419 . S
C733 C728 1.425 . S
C733 C730 1.409 . S
C733 C731 1.415 . S
C734 H724 0.930 . S
C734 C732 1.419 . S
C734 C735 1.362 . S
C735 H725 0.930 . S
C735 C728 1.409 . S
C735 C734 1.362 . S
H736 C742 0.930 . S
H737 C745 0.930 . S
H738 C746 0.930 . S
H739 C747 0.930 . S
H740 C750 0.930 . S
H741 C751 0.930 . S
C742 H736 0.930 . S
C742 C743 1.355 . S
C742 C744 1.415 . S
C743 C742 1.355 . S
C743 C745 1.419 . S
C744 C742 1.415 . S
C744 C749 1.425 . S
C744 C751 1.409 . S
C745 H737 0.930 . S
C745 C743 1.419 . S
C745 C746 1.362 . S
C746 H738 0.930 . S
C746 C745 1.362 . S
C746 C749 1.409 . S
C747 H739 0.930 . S
C747 C748 1.355 . S
C747 C749 1.415 . S
C748 C747 1.355 . S
C748 C750 1.419 . S
C749 C744 1.425 . S
C749 C746 1.409 . S
C749 C747 1.415 . S
C750 H740 0.930 . S
C750 C748 1.419 . S
C750 C751 1.362 . S
C751 H741 0.930 . S
C751 C744 1.409 . S
C751 C750 1.362 . S
H752 C758 0.930 . S
H753 C761 0.930 . S
H754 C762 0.930 . S
H755 C763 0.930 . S
H756 C766 0.930 . S
H757 C767 0.930 . S
C758 H752 0.930 . S
C758 C759 1.355 . S
C758 C760 1.415 . S
C759 C758 1.355 . S
C759 C761 1.419 . S
C760 C758 1.415 . S
C760 C765 1.425 . S
C760 C767 1.409 . S
C761 H753 0.930 . S
C761 C759 1.419 . S
C761 C762 1.362 . S
C762 H754 0.930 . S
C762 C761 1.362 . S
C762 C765 1.409 . S
C763 H755 0.930 . S
C763 C764 1.355 . S
C763 C765 1.415 . S
C764 C763 1.355 . S
C764 C766 1.419 . S
C765 C760 1.425 . S
C765 C762 1.409 . S
C765 C763 1.415 . S
C766 H756 0.930 . S
C766 C764 1.419 . S
C766 C767 1.362 . S
C767 H757 0.930 . S
C767 C760 1.409 . S
C767 C766 1.362 . S
H768 C774 0.930 . S
H769 C777 0.930 . S
H770 C778 0.930 . S
H771 C779 0.930 . S
H772 C782 0.930 . S
H773 C783 0.930 . S
C774 H768 0.930 . S
C774 C775 1.355 . S
C774 C776 1.415 . S
C775 C774 1.355 . S
C775 C777 1.419 . S
C776 C774 1.415 . S
C776 C781 1.425 . S
C776 C783 1.409 . S
C777 H769 0.930 . S
C777 C775 1.419 . S
C777 C778 1.362 . S
C778 H770 0.930 . S
C778 C777 1.362 . S
C778 C781 1.409 . S
C779 H771 0.930 . S
C779 C780 1.355 . S
C779 C781 1.415 . S
C780 C779 1.355 . S
C780 C782 1.419 . S
C781 C776 1.425 . S
C781 C778 1.409 . S
C781 C779 1.415 . S
C782 H772 0.930 . S
C782 C780 1.419 . S
C782 C783 1.362 . S
C783 H773 0.930 . S
C783 C776 1.409 . S
C783 C782 1.362 . S
H784 C790 0.930 . S
H785 C793 0.930 . S
H786 C794 0.930 . S
H787 C795 0.930 . S
H788 C798 0.930 . S
H789 C799 0.930 . S
C790 H784 0.930 . S
C790 C791 1.355 . S
C790 C792 1.415 . S
C791 C790 1.355 . S
C791 C793 1.419 . S
C792 C790 1.415 . S
C792 C797 1.425 . S
C792 C799 1.409 . S
C793 H785 0.930 . S
C793 C791 1.419 . S
C793 C794 1.362 . S
C794 H786 0.930 . S
C794 C793 1.362 . S
C794 C797 1.409 . S
C795 H787 0.930 . S
C795 C796 1.355 . S
C795 C797 1.415 . S
C796 C795 1.355 . S
C796 C798 1.419 . S
C797 C792 1.425 . S
C797 C794 1.409 . S
C797 C795 1.415 . S
C798 H788 0.930 . S
C798 C796 1.419 . S
C798 C799 1.362 . S
C799 H789 0.930 . S
C799 C792 1.409 . S
C799 C798 1.362 . S
H800 C806 0.930 . S
H801 C809 0.930 . S
H802 C810 0.930 . S
H803 C811 0.930 . S
H804 C814 0.930 . S
H805 C815 0.930 . S
C806 H800 0.930 . S
C806 C807 1.355 . S
C806 C808 1.415 . S
C807 C806 1.355 . S
C807 C809 1.419 . S
C808 C806 1.415 . S
C808 C813 1.425 . S
C808 C815 1.409 . S
C809 H801 0.930 . S
C809 C807 1.419 . S
C809 C810 1.362 . S
C810 H802 0.930 . S
C810 C809 1.362 . S
C810 C813 1.409 . S
C811 H803 0.930 . S
C811 C812 1.355 . S
C811 C813 1.415 . S
C812 C811 1.355 . S
C812 C814 1.419 . S
C813 C808 1.425 . S
C813 C810 1.409 . S
C813 C811 1.415 . S
C814 H804 0.930 . S
C814 C812 1.419 . S
C814 C815 1.362 . S
C815 H805 0.930 . S
C815 C808 1.409 . S
C815 C814 1.362 . S
H816 C822 0.930 . S
H817 C825 0.930 . S
H818 C826 0.930 . S
H819 C827 0.930 . S
H820 C830 0.930 . S
H821 C831 0.930 . S
C822 H816 0.930 . S
C822 C823 1.355 . S
C822 C824 1.415 . S
C823 C822 1.355 . S
C823 C825 1.419 . S
C824 C822 1.415 . S
C824 C829 1.425 . S
C824 C831 1.409 . S
C825 H817 0.930 . S
C825 C823 1.419 . S
C825 C826 1.362 . S
C826 H818 0.930 . S
C826 C825 1.362 . S
C826 C829 1.409 . S
C827 H819 0.930 . S
C827 C828 1.355 . S
C827 C829 1.415 . S
C828 C827 1.355 . S
C828 C830 1.419 . S
C829 C824 1.425 . S
C829 C826 1.409 . S
C829 C827 1.415 . S
C830 H820 0.930 . S
C830 C828 1.419 . S
C830 C831 1.362 . S
C831 H821 0.930 . S
C831 C824 1.409 . S
C831 C830 1.362 . S
H832 C838 0.930 . S
H833 C841 0.930 . S
H834 C842 0.930 . S
H835 C843 0.930 . S
H836 C846 0.930 . S
H837 C847 0.930 . S
C838 H832 0.930 . S
C838 C839 1.355 . S
C838 C840 1.415 . S
C839 C838 1.355 . S
C839 C841 1.419 . S
C840 C838 1.415 . S
C840 C845 1.425 . S
C840 C847 1.409 . S
C841 H833 0.930 . S
C841 C839 1.419 . S
C841 C842 1.362 . S
C842 H834 0.930 . S
C842 C841 1.362 . S
C842 C845 1.409 . S
C843 H835 0.930 . S
C843 C844 1.355 . S
C843 C845 1.415 . S
C844 C843 1.355 . S
C844 C846 1.419 . S
C845 C840 1.425 . S
C845 C842 1.409 . S
C845 C843 1.415 . S
C846 H836 0.930 . S
C846 C844 1.419 . S
C846 C847 1.362 . S
C847 H837 0.930 . S
C847 C840 1.409 . S
C847 C846 1.362 . S
H848 C854 0.930 1_556 S
H849 C857 0.930 . S
H850 C858 0.930 . S
H851 C859 0.930 . S
H852 C862 0.930 . S
H853 C863 0.930 . S
C854 H848 0.930 1_554 S
C854 C855 1.355 . S
C854 C856 1.415 . S
C855 C854 1.355 . S
C855 C857 1.419 . S
C856 C854 1.415 . S
C856 C861 1.425 . S
C856 C863 1.409 1_554 S
C857 H849 0.930 . S
C857 C855 1.419 . S
C857 C858 1.362 . S
C858 H850 0.930 . S
C858 C857 1.362 . S
C858 C861 1.409 . S
C859 H851 0.930 . S
C859 C860 1.355 . S
C859 C861 1.415 . S
C860 C859 1.355 . S
C860 C862 1.419 1_554 S
C861 C856 1.425 . S
C861 C858 1.409 . S
C861 C859 1.415 . S
C862 H852 0.930 . S
C862 C860 1.419 1_556 S
C862 C863 1.362 . S
C863 H853 0.930 . S
C863 C856 1.409 1_556 S
C863 C862 1.362 . S
H864 C870 0.930 . S
H865 C873 0.930 . S
H866 C874 0.930 . S
H867 C875 0.930 . S
H868 C878 0.930 1_556 S
H869 C879 0.930 1_556 S
C870 H864 0.930 . S
C870 C871 1.355 . S
C870 C872 1.415 . S
C871 C870 1.355 . S
C871 C873 1.419 . S
C872 C870 1.415 . S
C872 C877 1.425 . S
C872 C879 1.409 . S
C873 H865 0.930 . S
C873 C871 1.419 . S
C873 C874 1.362 . S
C874 H866 0.930 . S
C874 C873 1.362 . S
C874 C877 1.409 . S
C875 H867 0.930 . S
C875 C876 1.355 . S
C875 C877 1.415 . S
C876 C875 1.355 . S
C876 C878 1.419 . S
C877 C872 1.425 . S
C877 C874 1.409 . S
C877 C875 1.415 . S
C878 H868 0.930 1_554 S
C878 C876 1.419 . S
C878 C879 1.362 . S
C879 H869 0.930 1_554 S
C879 C872 1.409 . S
C879 C878 1.362 . S
H880 C886 0.930 . S
H881 C889 0.930 . S
H882 C890 0.930 . S
H883 C891 0.930 . S
H884 C894 0.930 . S
H885 C895 0.930 . S
C886 H880 0.930 . S
C886 C887 1.355 . S
C886 C888 1.415 . S
C887 C886 1.355 . S
C887 C889 1.419 . S
C888 C886 1.415 . S
C888 C893 1.425 . S
C888 C895 1.409 . S
C889 H881 0.930 . S
C889 C887 1.419 . S
C889 C890 1.362 . S
C890 H882 0.930 . S
C890 C889 1.362 . S
C890 C893 1.409 . S
C891 H883 0.930 . S
C891 C892 1.355 . S
C891 C893 1.415 . S
C892 C891 1.355 . S
C892 C894 1.419 . S
C893 C888 1.425 . S
C893 C890 1.409 . S
C893 C891 1.415 . S
C894 H884 0.930 . S
C894 C892 1.419 . S
C894 C895 1.362 . S
C895 H885 0.930 . S
C895 C888 1.409 . S
C895 C894 1.362 . S
H896 C902 0.930 . S
H897 C905 0.930 . S
H898 C906 0.930 . S
H899 C907 0.930 . S
H900 C910 0.930 . S
H901 C911 0.930 . S
C902 H896 0.930 . S
C902 C903 1.355 . S
C902 C904 1.415 . S
C903 C902 1.355 . S
C903 C905 1.419 . S
C904 C902 1.415 . S
C904 C909 1.425 . S
C904 C911 1.409 . S
C905 H897 0.930 . S
C905 C903 1.419 . S
C905 C906 1.362 . S
C906 H898 0.930 . S
C906 C905 1.362 . S
C906 C909 1.409 . S
C907 H899 0.930 . S
C907 C908 1.355 . S
C907 C909 1.415 . S
C908 C907 1.355 . S
C908 C910 1.419 . S
C909 C904 1.425 . S
C909 C906 1.409 . S
C909 C907 1.415 . S
C910 H900 0.930 . S
C910 C908 1.419 . S
C910 C911 1.362 . S
C911 H901 0.930 . S
C911 C904 1.409 . S
C911 C910 1.362 . S
H912 C918 0.930 . S
H913 C921 0.930 . S
H914 C922 0.930 . S
H915 C923 0.930 . S
H916 C926 0.930 . S
H917 C927 0.930 . S
C918 H912 0.930 . S
C918 C919 1.355 1_455 S
C918 C920 1.415 . S
C919 C918 1.355 1_655 S
C919 C921 1.419 . S
C920 C918 1.415 . S
C920 C925 1.425 1_455 S
C920 C927 1.409 . S
C921 H913 0.930 . S
C921 C919 1.419 . S
C921 C922 1.362 . S
C922 H914 0.930 . S
C922 C921 1.362 . S
C922 C925 1.409 . S
C923 H915 0.930 . S
C923 C924 1.355 1_655 S
C923 C925 1.415 . S
C924 C923 1.355 1_455 S
C924 C926 1.419 . S
C925 C920 1.425 1_655 S
C925 C922 1.409 . S
C925 C923 1.415 . S
C926 H916 0.930 . S
C926 C924 1.419 . S
C926 C927 1.362 . S
C927 H917 0.930 . S
C927 C920 1.409 . S
C927 C926 1.362 . S
H928 C934 0.930 . S
H929 C937 0.930 . S
H930 C938 0.930 . S
H931 C939 0.930 . S
H932 C942 0.930 . S
H933 C943 0.930 . S
C934 H928 0.930 . S
C934 C935 1.355 1_545 S
C934 C936 1.415 . S
C935 C934 1.355 1_565 S
C935 C937 1.419 . S
C936 C934 1.415 . S
C936 C941 1.425 1_545 S
C936 C943 1.409 . S
C937 H929 0.930 . S
C937 C935 1.419 . S
C937 C938 1.362 . S
C938 H930 0.930 . S
C938 C937 1.362 . S
C938 C941 1.409 . S
C939 H931 0.930 . S
C939 C940 1.355 1_565 S
C939 C941 1.415 . S
C940 C939 1.355 1_545 S
C940 C942 1.419 . S
C941 C936 1.425 1_565 S
C941 C938 1.409 . S
C941 C939 1.415 . S
C942 H932 0.930 . S
C942 C940 1.419 . S
C942 C943 1.362 . S
C943 H933 0.930 . S
C943 C936 1.409 . S
C943 C942 1.362 . S
H944 C950 0.934 . S
H945 C953 0.930 . S
H946 C954 0.930 . S
H947 C955 0.934 . S
H948 C958 0.930 . S
H949 C959 0.930 . S
C950 H944 0.934 . S
C950 C951 1.355 . S
C950 C952 1.415 1_655 S
C951 C950 1.355 . S
C951 C953 1.419 . S
C952 C950 1.415 1_455 S
C952 C957 1.425 1_455 S
C952 C959 1.409 . S
C953 H945 0.930 . S
C953 C951 1.419 . S
C953 C954 1.362 . S
C954 H946 0.930 . S
C954 C953 1.362 . S
C954 C957 1.409 . S
C955 H947 0.934 . S
C955 C956 1.355 . S
C955 C957 1.415 1_455 S
C956 C955 1.355 . S
C956 C958 1.419 . S
C957 C952 1.425 1_655 S
C957 C954 1.409 . S
C957 C955 1.415 1_655 S
C958 H948 0.930 . S
C958 C956 1.419 . S
C958 C959 1.362 . S
C959 H949 0.930 . S
C959 C952 1.409 . S
C959 C958 1.362 . S
H960 C966 0.930 . S
H961 C969 0.930 . S
H962 C970 0.930 . S
H963 C971 0.930 . S
H964 C974 0.930 . S
H965 C975 0.930 . S
C966 H960 0.930 . S
C966 C967 1.355 1_565 S
C966 C968 1.415 . S
C967 C966 1.355 1_545 S
C967 C969 1.419 . S
C968 C966 1.415 . S
C968 C973 1.425 1_565 S
C968 C975 1.409 . S
C969 H961 0.930 . S
C969 C967 1.419 . S
C969 C970 1.362 . S
C970 H962 0.930 . S
C970 C969 1.362 . S
C970 C973 1.409 . S
C971 H963 0.930 . S
C971 C972 1.355 1_545 S
C971 C973 1.415 . S
C972 C971 1.355 1_565 S
C972 C974 1.419 . S
C973 C968 1.425 1_545 S
C973 C970 1.409 . S
C973 C971 1.415 . S
C974 H964 0.930 . S
C974 C972 1.419 . S
C974 C975 1.362 . S
C975 H965 0.930 . S
C975 C968 1.409 . S
C975 C974 1.362 . S
H976 C982 0.930 . S
H977 C985 0.930 . S
H978 C986 0.930 . S
H979 C987 0.930 . S
H980 C990 0.930 . S
H981 C991 0.930 . S
C982 H976 0.930 . S
C982 C983 1.355 1_455 S
C982 C984 1.415 . S
C983 C982 1.355 1_655 S
C983 C985 1.419 . S
C984 C982 1.415 . S
C984 C989 1.425 1_455 S
C984 C991 1.409 . S
C985 H977 0.930 . S
C985 C983 1.419 . S
C985 C986 1.362 . S
C986 H978 0.930 . S
C986 C985 1.362 . S
C986 C989 1.409 . S
C987 H979 0.930 . S
C987 C988 1.355 1_655 S
C987 C989 1.415 . S
C988 C987 1.355 1_455 S
C988 C990 1.419 . S
C989 C984 1.425 1_655 S
C989 C986 1.409 . S
C989 C987 1.415 . S
C990 H980 0.930 . S
C990 C988 1.419 . S
C990 C991 1.362 . S
C991 H981 0.930 . S
C991 C984 1.409 . S
C991 C990 1.362 . S
H992 C998 0.930 . S
H993 C1001 0.930 . S
H994 C1002 0.930 . S
H995 C1003 0.930 . S
H996 C1006 0.930 . S
H997 C1007 0.930 . S
C998 H992 0.930 . S
C998 C999 1.349 1_545 S
C998 C1000 1.415 . S
C999 C998 1.349 1_565 S
C999 C1001 1.426 . S
C1000 C998 1.415 . S
C1000 C1005 1.425 1_545 S
C1000 C1007 1.409 . S
C1001 H993 0.930 . S
C1001 C999 1.426 . S
C1001 C1002 1.362 . S
C1002 H994 0.930 . S
C1002 C1001 1.362 . S
C1002 C1005 1.409 . S
C1003 H995 0.930 . S
C1003 C1004 1.349 1_565 S
C1003 C1005 1.415 . S
C1004 C1003 1.349 1_545 S
C1004 C1006 1.427 . S
C1005 C1000 1.425 1_565 S
C1005 C1002 1.409 . S
C1005 C1003 1.415 . S
C1006 H996 0.930 . S
C1006 C1004 1.427 . S
C1006 C1007 1.362 . S
C1007 H997 0.930 . S
C1007 C1000 1.409 . S
C1007 C1006 1.362 . S
H1008 C1014 0.930 . S
H1009 C1017 0.930 . S
H1010 C1018 0.930 . S
H1011 C1019 0.930 . S
H1012 C1022 0.930 . S
H1013 C1023 0.930 . S
C1014 H1008 0.930 . S
C1014 C1015 1.355 1_455 S
C1014 C1016 1.415 . S
C1015 C1014 1.355 1_655 S
C1015 C1017 1.419 . S
C1016 C1014 1.415 . S
C1016 C1021 1.425 1_455 S
C1016 C1023 1.409 . S
C1017 H1009 0.930 . S
C1017 C1015 1.419 . S
C1017 C1018 1.362 . S
C1018 H1010 0.930 . S
C1018 C1017 1.362 . S
C1018 C1021 1.409 . S
C1019 H1011 0.930 . S
C1019 C1020 1.355 1_655 S
C1019 C1021 1.415 . S
C1020 C1019 1.355 1_455 S
C1020 C1022 1.419 . S
C1021 C1016 1.425 1_655 S
C1021 C1018 1.409 . S
C1021 C1019 1.415 . S
C1022 H1012 0.930 . S
C1022 C1020 1.419 . S
C1022 C1023 1.362 . S
C1023 H1013 0.930 . S
C1023 C1016 1.409 . S
C1023 C1022 1.362 . S
H1024 C1030 0.930 . S
H1025 C1033 0.930 . S
H1026 C1034 0.930 . S
H1027 C1035 0.930 . S
H1028 C1038 0.930 . S
H1029 C1039 0.930 . S
C1030 H1024 0.930 . S
C1030 C1031 1.355 1_565 S
C1030 C1032 1.415 . S
C1031 C1030 1.355 1_545 S
C1031 C1033 1.419 . S
C1032 C1030 1.415 . S
C1032 C1037 1.425 1_565 S
C1032 C1039 1.409 . S
C1033 H1025 0.930 . S
C1033 C1031 1.419 . S
C1033 C1034 1.362 . S
C1034 H1026 0.930 . S
C1034 C1033 1.362 . S
C1034 C1037 1.409 . S
C1035 H1027 0.930 . S
C1035 C1036 1.355 1_545 S
C1035 C1037 1.415 . S
C1036 C1035 1.355 1_565 S
C1036 C1038 1.419 . S
C1037 C1032 1.425 1_545 S
C1037 C1034 1.409 . S
C1037 C1035 1.415 . S
C1038 H1028 0.930 . S
C1038 C1036 1.419 . S
C1038 C1039 1.362 . S
C1039 H1029 0.930 . S
C1039 C1032 1.409 . S
C1039 C1038 1.362 . S
H1040 C1046 0.930 . S
H1041 C1049 0.930 . S
H1042 C1050 0.930 . S
H1043 C1051 0.930 . S
H1044 C1054 0.930 . S
H1045 C1055 0.930 . S
C1046 H1040 0.930 . S
C1046 C1047 1.355 . S
C1046 C1048 1.415 . S
C1047 C1046 1.355 . S
C1047 C1049 1.419 . S
C1048 C1046 1.415 . S
C1048 C1053 1.425 . S
C1048 C1055 1.409 . S
C1049 H1041 0.930 . S
C1049 C1047 1.419 . S
C1049 C1050 1.362 . S
C1050 H1042 0.930 . S
C1050 C1049 1.362 . S
C1050 C1053 1.409 . S
C1051 H1043 0.930 . S
C1051 C1052 1.355 . S
C1051 C1053 1.415 . S
C1052 C1051 1.355 . S
C1052 C1054 1.419 . S
C1053 C1048 1.425 . S
C1053 C1050 1.409 . S
C1053 C1051 1.415 . S
C1054 H1044 0.930 . S
C1054 C1052 1.419 . S
C1054 C1055 1.362 . S
C1055 H1045 0.930 . S
C1055 C1048 1.409 . S
C1055 C1054 1.362 . S
H1056 C1062 0.930 . S
H1057 C1065 0.930 . S
H1058 C1066 0.930 . S
H1059 C1067 0.930 . S
H1060 C1070 0.930 . S
H1061 C1071 0.930 . S
C1062 H1056 0.930 . S
C1062 C1063 1.355 . S
C1062 C1064 1.415 . S
C1063 C1062 1.355 . S
C1063 C1065 1.419 . S
C1064 C1062 1.415 . S
C1064 C1069 1.425 . S
C1064 C1071 1.409 . S
C1065 H1057 0.930 . S
C1065 C1063 1.419 . S
C1065 C1066 1.362 . S
C1066 H1058 0.930 . S
C1066 C1065 1.362 . S
C1066 C1069 1.409 . S
C1067 H1059 0.930 . S
C1067 C1068 1.355 . S
C1067 C1069 1.415 . S
C1068 C1067 1.355 . S
C1068 C1070 1.419 . S
C1069 C1064 1.425 . S
C1069 C1066 1.409 . S
C1069 C1067 1.415 . S
C1070 H1060 0.930 . S
C1070 C1068 1.419 . S
C1070 C1071 1.362 . S
C1071 H1061 0.930 . S
C1071 C1064 1.409 . S
C1071 C1070 1.362 . S
H1072 C1078 0.930 . S
H1073 C1081 0.930 . S
H1074 C1082 0.930 . S
H1075 C1083 0.930 . S
H1076 C1086 0.930 . S
H1077 C1087 0.930 . S
C1078 H1072 0.930 . S
C1078 C1079 1.355 . S
C1078 C1080 1.415 . S
C1079 C1078 1.355 . S
C1079 C1081 1.419 . S
C1080 C1078 1.415 . S
C1080 C1085 1.425 . S
C1080 C1087 1.409 . S
C1081 H1073 0.930 . S
C1081 C1079 1.419 . S
C1081 C1082 1.362 . S
C1082 H1074 0.930 . S
C1082 C1081 1.362 . S
C1082 C1085 1.409 . S
C1083 H1075 0.930 . S
C1083 C1084 1.355 . S
C1083 C1085 1.415 . S
C1084 C1083 1.355 . S
C1084 C1086 1.419 . S
C1085 C1080 1.425 . S
C1085 C1082 1.409 . S
C1085 C1083 1.415 . S
C1086 H1076 0.930 . S
C1086 C1084 1.419 . S
C1086 C1087 1.362 . S
C1087 H1077 0.930 . S
C1087 C1080 1.409 . S
C1087 C1086 1.362 . S
H1088 C1094 0.930 . S
H1089 C1097 0.930 . S
H1090 C1098 0.930 . S
H1091 C1099 0.930 . S
H1092 C1102 0.930 . S
H1093 C1103 0.930 . S
C1094 H1088 0.930 . S
C1094 C1095 1.355 . S
C1094 C1096 1.415 . S
C1095 C1094 1.355 . S
C1095 C1097 1.419 . S
C1096 C1094 1.415 . S
C1096 C1101 1.425 . S
C1096 C1103 1.409 . S
C1097 H1089 0.930 . S
C1097 C1095 1.419 . S
C1097 C1098 1.362 . S
C1098 H1090 0.930 . S
C1098 C1097 1.362 . S
C1098 C1101 1.409 . S
C1099 H1091 0.930 . S
C1099 C1100 1.355 . S
C1099 C1101 1.415 . S
C1100 C1099 1.355 . S
C1100 C1102 1.419 . S
C1101 C1096 1.425 . S
C1101 C1098 1.409 . S
C1101 C1099 1.415 . S
C1102 H1092 0.930 . S
C1102 C1100 1.419 . S
C1102 C1103 1.362 . S
C1103 H1093 0.930 . S
C1103 C1096 1.409 . S
C1103 C1102 1.362 . S
H1104 C1110 0.930 . S
H1105 C1113 0.930 . S
H1106 C1114 0.930 . S
H1107 C1115 0.930 . S
H1108 C1118 0.930 . S
H1109 C1119 0.930 . S
C1110 H1104 0.930 . S
C1110 C1111 1.355 . S
C1110 C1112 1.415 . S
C1111 C1110 1.355 . S
C1111 C1113 1.419 . S
C1112 C1110 1.415 . S
C1112 C1117 1.425 . S
C1112 C1119 1.409 . S
C1113 H1105 0.930 . S
C1113 C1111 1.419 . S
C1113 C1114 1.362 . S
C1114 H1106 0.930 . S
C1114 C1113 1.362 . S
C1114 C1117 1.409 . S
C1115 H1107 0.930 . S
C1115 C1116 1.355 . S
C1115 C1117 1.415 . S
C1116 C1115 1.355 . S
C1116 C1118 1.419 . S
C1117 C1112 1.425 . S
C1117 C1114 1.409 . S
C1117 C1115 1.415 . S
C1118 H1108 0.930 . S
C1118 C1116 1.419 . S
C1118 C1119 1.362 . S
C1119 H1109 0.930 . S
C1119 C1112 1.409 . S
C1119 C1118 1.362 . S
H1120 C1126 0.930 . S
H1121 C1129 0.930 . S
H1122 C1130 0.930 . S
H1123 C1131 0.930 . S
H1124 C1134 0.930 . S
H1125 C1135 0.930 . S
C1126 H1120 0.930 . S
C1126 C1127 1.355 . S
C1126 C1128 1.415 . S
C1127 C1126 1.355 . S
C1127 C1129 1.419 . S
C1128 C1126 1.415 . S
C1128 C1133 1.425 . S
C1128 C1135 1.409 . S
C1129 H1121 0.930 . S
C1129 C1127 1.419 . S
C1129 C1130 1.362 . S
C1130 H1122 0.930 . S
C1130 C1129 1.362 . S
C1130 C1133 1.409 . S
C1131 H1123 0.930 . S
C1131 C1132 1.355 . S
C1131 C1133 1.415 . S
C1132 C1131 1.355 . S
C1132 C1134 1.419 . S
C1133 C1128 1.425 . S
C1133 C1130 1.409 . S
C1133 C1131 1.415 . S
C1134 H1124 0.930 . S
C1134 C1132 1.419 . S
C1134 C1135 1.362 . S
C1135 H1125 0.930 . S
C1135 C1128 1.409 . S
C1135 C1134 1.362 . S
H1136 C1142 0.930 . S
H1137 C1145 0.930 . S
H1138 C1146 0.930 . S
H1139 C1147 0.930 . S
H1140 C1150 0.930 . S
H1141 C1151 0.930 . S
C1142 H1136 0.930 . S
C1142 C1143 1.355 . S
C1142 C1144 1.415 . S
C1143 C1142 1.355 . S
C1143 C1145 1.419 . S
C1144 C1142 1.415 . S
C1144 C1149 1.425 . S
C1144 C1151 1.409 . S
C1145 H1137 0.930 . S
C1145 C1143 1.419 . S
C1145 C1146 1.362 . S
C1146 H1138 0.930 . S
C1146 C1145 1.362 . S
C1146 C1149 1.409 . S
C1147 H1139 0.930 . S
C1147 C1148 1.355 . S
C1147 C1149 1.415 . S
C1148 C1147 1.355 . S
C1148 C1150 1.419 . S
C1149 C1144 1.425 . S
C1149 C1146 1.409 . S
C1149 C1147 1.415 . S
C1150 H1140 0.930 . S
C1150 C1148 1.419 . S
C1150 C1151 1.362 . S
C1151 H1141 0.930 . S
C1151 C1144 1.409 . S
C1151 C1150 1.362 . S
H1152 C1158 0.930 . S
H1153 C1161 0.930 . S
H1154 C1162 0.930 . S
H1155 C1163 0.930 . S
H1156 C1166 0.930 . S
H1157 C1167 0.930 . S
C1158 H1152 0.930 . S
C1158 C1159 1.355 . S
C1158 C1160 1.415 . S
C1159 C1158 1.355 . S
C1159 C1161 1.419 . S
C1160 C1158 1.415 . S
C1160 C1165 1.425 . S
C1160 C1167 1.409 . S
C1161 H1153 0.930 . S
C1161 C1159 1.419 . S
C1161 C1162 1.362 . S
C1162 H1154 0.930 . S
C1162 C1161 1.362 . S
C1162 C1165 1.409 . S
C1163 H1155 0.930 . S
C1163 C1164 1.355 . S
C1163 C1165 1.415 . S
C1164 C1163 1.355 . S
C1164 C1166 1.419 . S
C1165 C1160 1.425 . S
C1165 C1162 1.409 . S
C1165 C1163 1.415 . S
C1166 H1156 0.930 . S
C1166 C1164 1.419 . S
C1166 C1167 1.362 . S
C1167 H1157 0.930 . S
C1167 C1160 1.409 . S
C1167 C1166 1.362 . S
C535 N2 1.328 . S
C540 N497 1.309 . S
C551 N35 1.332 . S
C556 N398 1.349 . S
C567 N431 1.323 . S
C572 N68 1.304 . S
C583 N101 1.334 . S
C588 N464 1.314 . S
C599 N134 1.322 . S
C604 N299 1.303 . S
C615 N332 1.343 . S
C620 N167 1.325 . S
C631 N365 1.304 . S
C636 N200 1.323 . S
C647 N266 1.324 . S
C652 N233 1.343 . S
C663 N112 1.515 1_556 S
C668 C21 1.572 . S
C679 N13 1.511 1_556 S
C684 C54 1.571 . S
C695 C87 1.592 . S
C700 N46 1.531 1_556 S
C711 C120 1.575 . S
C716 N79 1.526 1_556 S
C727 N178 1.507 . S
C732 C153 1.570 . S
C743 N211 1.553 . S
C748 C186 1.585 . S
C759 N244 1.523 . S
C764 C219 1.573 . S
C775 N145 1.510 . S
C780 C252 1.587 . S
C791 N376 1.506 . S
C796 C285 1.570 . S
C807 C318 1.570 . S
C812 N277 1.506 . S
C823 N310 1.553 . S
C828 C351 1.590 . S
C839 N343 1.495 . S
C844 C384 1.569 . S
C855 N442 1.551 . S
C860 C417 1.584 . S
C871 N475 1.524 . S
C876 C450 1.590 . S
C887 N508 1.532 . S
C892 C483 1.576 . S
C903 N409 1.535 . S
C908 C516 1.577 . S
C919 C205 1.605 . S
C924 C7 1.593 . S
C935 C238 1.610 . S
C940 C40 1.590 . S
C951 C73 1.588 . S
C956 C139 1.622 . S
C967 C172 1.604 . S
C972 C106 1.593 . S
C983 C84 1.030 . S
C988 C150 1.019 . S
C999 C183 1.102 1_565 S
C1004 C117 1.046 1_545 S
C1015 C18 1.085 1_655 S
C1020 C216 1.098 1_455 S
C1031 C249 1.083 1_545 S
C1036 C51 1.099 1_565 S
C1047 C469 1.629 . S
C1052 C271 1.629 . S
C1063 C502 1.619 . S
C1068 C304 1.637 . S
C1079 C403 1.612 . S
C1084 C337 1.639 . S
C1095 C370 1.636 . S
C1100 C436 1.595 . S
C1111 C414 1.038 . S
C1116 C348 1.014 . S
C1127 C381 1.104 . S
C1132 C447 1.047 . S
C1143 C282 1.106 . S
C1148 C480 1.060 . S
C1159 C513 1.013 . S
C1164 C315 1.076 . S
