# Generated by pormake.
# Topology ukb, (4)-cn, num edge types: 1
# Building blocks:
#     Node 0, Type 0, BuildingBlock: ICAMEG_clean_sbu_1, # of connection points: 4
#     Node 1, Type 0, BuildingBlock: ICAMEG_clean_sbu_1, # of connection points: 4
#     Node 2, Type 0, BuildingBlock: ICAMEG_clean_sbu_1, # of connection points: 4
#     Node 3, Type 0, BuildingBlock: ICAMEG_clean_sbu_1, # of connection points: 4
#     Node 4, Type 0, BuildingBlock: ICAMEG_clean_sbu_1, # of connection points: 4
#     Node 5, Type 0, BuildingBlock: ICAMEG_clean_sbu_1, # of connection points: 4
#     Node 6, Type 0, BuildingBlock: ICAMEG_clean_sbu_1, # of connection points: 4
#     Node 7, Type 0, BuildingBlock: ICAMEG_clean_sbu_1, # of connection points: 4
#     Node 8, Type 0, BuildingBlock: ICAMEG_clean_sbu_1, # of connection points: 4
#     Node 9, Type 0, BuildingBlock: ICAMEG_clean_sbu_1, # of connection points: 4
#     Node 10, Type 0, BuildingBlock: ICAMEG_clean_sbu_1, # of connection points: 4
#     Node 11, Type 0, BuildingBlock: ICAMEG_clean_sbu_1, # of connection points: 4
#     Node 12, Type 0, BuildingBlock: ICAMEG_clean_sbu_1, # of connection points: 4
#     Node 13, Type 0, BuildingBlock: ICAMEG_clean_sbu_1, # of connection points: 4
#     Node 14, Type 0, BuildingBlock: ICAMEG_clean_sbu_1, # of connection points: 4
#     Node 15, Type 0, BuildingBlock: ICAMEG_clean_sbu_1, # of connection points: 4
#     Edge 16, Type (0, 0), BuildingBlock: UVAHIK_clean_linker_0, # of connection points: 2
#     Edge 17, Type (0, 0), BuildingBlock: UVAHIK_clean_linker_0, # of connection points: 2
#     Edge 18, Type (0, 0), BuildingBlock: UVAHIK_clean_linker_0, # of connection points: 2
#     Edge 19, Type (0, 0), BuildingBlock: UVAHIK_clean_linker_0, # of connection points: 2
#     Edge 20, Type (0, 0), BuildingBlock: UVAHIK_clean_linker_0, # of connection points: 2
#     Edge 21, Type (0, 0), BuildingBlock: UVAHIK_clean_linker_0, # of connection points: 2
#     Edge 22, Type (0, 0), BuildingBlock: UVAHIK_clean_linker_0, # of connection points: 2
#     Edge 23, Type (0, 0), BuildingBlock: UVAHIK_clean_linker_0, # of connection points: 2
#     Edge 24, Type (0, 0), BuildingBlock: UVAHIK_clean_linker_0, # of connection points: 2
#     Edge 25, Type (0, 0), BuildingBlock: UVAHIK_clean_linker_0, # of connection points: 2
#     Edge 26, Type (0, 0), BuildingBlock: UVAHIK_clean_linker_0, # of connection points: 2
#     Edge 27, Type (0, 0), BuildingBlock: UVAHIK_clean_linker_0, # of connection points: 2
#     Edge 28, Type (0, 0), BuildingBlock: UVAHIK_clean_linker_0, # of connection points: 2
#     Edge 29, Type (0, 0), BuildingBlock: UVAHIK_clean_linker_0, # of connection points: 2
#     Edge 30, Type (0, 0), BuildingBlock: UVAHIK_clean_linker_0, # of connection points: 2
#     Edge 31, Type (0, 0), BuildingBlock: UVAHIK_clean_linker_0, # of connection points: 2
#     Edge 32, Type (0, 0), BuildingBlock: UVAHIK_clean_linker_0, # of connection points: 2
#     Edge 33, Type (0, 0), BuildingBlock: UVAHIK_clean_linker_0, # of connection points: 2
#     Edge 34, Type (0, 0), BuildingBlock: UVAHIK_clean_linker_0, # of connection points: 2
#     Edge 35, Type (0, 0), BuildingBlock: UVAHIK_clean_linker_0, # of connection points: 2
#     Edge 36, Type (0, 0), BuildingBlock: UVAHIK_clean_linker_0, # of connection points: 2
#     Edge 37, Type (0, 0), BuildingBlock: UVAHIK_clean_linker_0, # of connection points: 2
#     Edge 38, Type (0, 0), BuildingBlock: UVAHIK_clean_linker_0, # of connection points: 2
#     Edge 39, Type (0, 0), BuildingBlock: UVAHIK_clean_linker_0, # of connection points: 2
#     Edge 40, Type (0, 0), BuildingBlock: UVAHIK_clean_linker_0, # of connection points: 2
#     Edge 41, Type (0, 0), BuildingBlock: UVAHIK_clean_linker_0, # of connection points: 2
#     Edge 42, Type (0, 0), BuildingBlock: UVAHIK_clean_linker_0, # of connection points: 2
#     Edge 43, Type (0, 0), BuildingBlock: UVAHIK_clean_linker_0, # of connection points: 2
#     Edge 44, Type (0, 0), BuildingBlock: UVAHIK_clean_linker_0, # of connection points: 2
#     Edge 45, Type (0, 0), BuildingBlock: UVAHIK_clean_linker_0, # of connection points: 2
#     Edge 46, Type (0, 0), BuildingBlock: UVAHIK_clean_linker_0, # of connection points: 2
#     Edge 47, Type (0, 0), BuildingBlock: UVAHIK_clean_linker_0, # of connection points: 2
# Relax obj value: 0.077
# Max RMSD: 0.092
# Mean RMSD: 0.092
data_MOF--net-ukb--node1-ICAMEG_clean_sbu_1--edge1-UVAHIK_clean_linker_0
_symmetry_space_group_name_H-M    P1
_symmetry_Int_Tables_number       1
_symmetry_cell_setting            triclinic
loop_
_symmetry_equiv_pos_as_xyz
'x, y, z'
_cell_length_a     59.035062
_cell_length_b     59.036412
_cell_length_c     54.241492
_cell_angle_alpha  90.005126
_cell_angle_beta   89.994145
_cell_angle_gamma 89.98435
loop_
_atom_site_label
_atom_site_type_symbol
_atom_site_fract_x
_atom_site_fract_y
_atom_site_fract_z
_atom_type_partial_charge
Co0 Co 0.56007 0.19058 0.15954 0.0
Co1 Co 0.52806 0.19723 0.21282 0.0
O2 O 0.53122 0.19015 0.17758 0.0
C3 C 0.52711 0.21647 0.12738 0.0
O4 O 0.5117 0.21674 0.14477 0.0
C5 C 0.51001 0.15066 0.20891 0.0
O6 O 0.52721 0.14597 0.19444 0.0
O7 O 0.55438 0.17775 0.2217 0.0
O8 O 0.57538 0.17461 0.18737 0.0
H9 H 0.55594 0.22011 0.29673 0.0
H10 H 0.51849 0.17128 0.13672 0.0
O11 O 0.54614 0.20676 0.1307 0.0
H12 H 0.57451 0.10938 0.13575 0.0
H13 H 0.60995 0.1832 0.08458 0.0
H14 H 0.60764 0.20003 0.1736 0.0
H15 H 0.58459 0.1469 0.15239 0.0
H16 H 0.57376 0.18225 0.10728 0.0
O17 O 0.50751 0.17059 0.21748 0.0
H18 H 0.55968 0.21121 0.25248 0.0
H19 H 0.48911 0.1979 0.24785 0.0
H20 H 0.64423 0.20096 0.15166 0.0
H21 H 0.50777 0.13417 0.11962 0.0
H22 H 0.64553 0.19251 0.10682 0.0
H23 H 0.53585 0.10284 0.11913 0.0
O24 O 0.56824 0.22064 0.17383 0.0
H25 H 0.4529 0.21422 0.17338 0.0
H26 H 0.51488 0.24487 0.22437 0.0
H27 H 0.48237 0.26927 0.21394 0.0
H28 H 0.45104 0.25394 0.18835 0.0
H29 H 0.48594 0.19052 0.18387 0.0
H30 H 0.48463 0.20648 0.29209 0.0
H31 H 0.5182 0.21777 0.31682 0.0
O32 O 0.54862 0.22371 0.20918 0.0
C33 C 0.57176 0.17065 0.21013 0.0
C34 C 0.54118 0.21529 0.28613 0.0
C35 C 0.50116 0.20761 0.28354 0.0
N36 N 0.5246 0.20425 0.24755 0.0
C37 C 0.54317 0.2103 0.26106 0.0
C38 C 0.5038 0.20274 0.2585 0.0
C39 C 0.52 0.21395 0.2974 0.0
C40 C 0.53092 0.15789 0.1363 0.0
N41 N 0.55222 0.16138 0.1454 0.0
C42 C 0.5247 0.13684 0.12671 0.0
C43 C 0.54045 0.11925 0.12648 0.0
C44 C 0.56213 0.12291 0.13582 0.0
C45 C 0.56772 0.14418 0.1453 0.0
C46 C 0.60961 0.18687 0.10413 0.0
C47 C 0.60809 0.19618 0.15412 0.0
C48 C 0.58916 0.18641 0.11707 0.0
N49 N 0.58862 0.19091 0.14179 0.0
C50 C 0.62885 0.1968 0.14178 0.0
C51 C 0.62957 0.19208 0.11662 0.0
C52 C 0.56295 0.23114 0.19357 0.0
C53 C 0.46643 0.22108 0.18458 0.0
C54 C 0.50145 0.23813 0.213 0.0
C55 C 0.48301 0.252 0.20727 0.0
C56 C 0.46542 0.24338 0.19294 0.0
N57 N 0.50234 0.21629 0.20469 0.0
C58 C 0.48513 0.2077 0.19069 0.0
Co59 Co 0.31184 0.56504 0.66299 0.0
Co60 Co 0.30029 0.53177 0.71389 0.0
O61 O 0.31202 0.5361 0.6805 0.0
C62 C 0.28764 0.53445 0.6286 0.0
O63 O 0.27579 0.52714 0.64748 0.0
C64 C 0.34759 0.51556 0.71714 0.0
O65 O 0.35355 0.53383 0.70497 0.0
O66 O 0.31736 0.5586 0.72639 0.0
O67 O 0.32054 0.58161 0.69359 0.0
H68 H 0.26475 0.55637 0.7937 0.0
H69 H 0.33841 0.52665 0.64291 0.0
O70 O 0.30304 0.54927 0.63175 0.0
H71 H 0.39412 0.58716 0.65869 0.0
H72 H 0.3278 0.61606 0.59068 0.0
H73 H 0.29479 0.61121 0.67402 0.0
H74 H 0.35353 0.59337 0.66715 0.0
H75 H 0.32827 0.57999 0.61361 0.0
O76 O 0.3268 0.51194 0.72206 0.0
H77 H 0.27941 0.56165 0.75149 0.0
H78 H 0.2968 0.49193 0.74749 0.0
H79 H 0.29412 0.64767 0.65184 0.0
H80 H 0.37881 0.51979 0.634 0.0
H81 H 0.31071 0.65025 0.60984 0.0
H82 H 0.40698 0.55016 0.64197 0.0
O83 O 0.27927 0.57002 0.6709 0.0
H84 H 0.29139 0.45898 0.66689 0.0
H85 H 0.25257 0.51563 0.71865 0.0
H86 H 0.23105 0.48305 0.70251 0.0
H87 H 0.25049 0.45441 0.67645 0.0
H88 H 0.3122 0.49195 0.68324 0.0
H89 H 0.28252 0.48593 0.78974 0.0
H90 H 0.26627 0.51828 0.81309 0.0
O91 O 0.27356 0.55144 0.70655 0.0
C92 C 0.32288 0.57741 0.71651 0.0
C93 C 0.27174 0.54212 0.78368 0.0
C94 C 0.28174 0.5026 0.78147 0.0
N95 N 0.2888 0.52709 0.747 0.0
C96 C 0.28 0.545 0.75976 0.0
C97 C 0.28985 0.50611 0.75759 0.0
C98 C 0.27261 0.52075 0.79456 0.0
C99 C 0.35054 0.54002 0.64619 0.0
N100 N 0.34361 0.56042 0.65541 0.0
C101 C 0.3734 0.53601 0.64121 0.0
C102 C 0.38921 0.55304 0.64572 0.0
C103 C 0.382 0.57381 0.65512 0.0
C104 C 0.35901 0.5772 0.65992 0.0
C105 C 0.32057 0.61517 0.60899 0.0
C106 C 0.30218 0.61224 0.65583 0.0
C107 C 0.32075 0.59478 0.62204 0.0
N108 N 0.31174 0.59355 0.64522 0.0
C109 C 0.30169 0.63291 0.64332 0.0
C110 C 0.31098 0.63434 0.61975 0.0
C111 C 0.26698 0.56465 0.68935 0.0
C112 C 0.28274 0.47132 0.67826 0.0
C113 C 0.26112 0.50331 0.70723 0.0
C114 C 0.24886 0.48485 0.6982 0.0
C115 C 0.25979 0.46878 0.6836 0.0
N116 N 0.28362 0.50567 0.70191 0.0
C117 C 0.29445 0.48998 0.68764 0.0
Co118 Co 0.93912 0.31143 0.16371 0.0
Co119 Co 0.97058 0.29979 0.21599 0.0
O120 O 0.96749 0.31114 0.18224 0.0
C121 C 0.96917 0.28541 0.12996 0.0
O122 O 0.97492 0.27238 0.14856 0.0
C123 C 0.98654 0.34706 0.21893 0.0
O124 O 0.9687 0.35258 0.20581 0.0
O125 O 0.94332 0.31694 0.22735 0.0
O126 O 0.92198 0.32114 0.19345 0.0
H127 H 0.94327 0.26492 0.29508 0.0
H128 H 0.97885 0.33665 0.14473 0.0
O129 O 0.95554 0.30187 0.13319 0.0
H130 H 0.91927 0.39417 0.15669 0.0
H131 H 0.89056 0.3273 0.08937 0.0
H132 H 0.89219 0.29609 0.17368 0.0
H133 H 0.91171 0.35392 0.16566 0.0
H134 H 0.92601 0.32719 0.11342 0.0
O135 O 0.9901 0.32643 0.22464 0.0
H136 H 0.93944 0.27916 0.25252 0.0
H137 H 0.0092 0.2967 0.25125 0.0
H138 H 0.85633 0.29604 0.15035 0.0
H139 H 0.98709 0.37669 0.13533 0.0
H140 H 0.85537 0.31172 0.10787 0.0
H141 H 0.95719 0.40577 0.14139 0.0
O142 O 0.93309 0.2791 0.17211 0.0
H143 H 0.04493 0.29034 0.17207 0.0
H144 H 0.98647 0.25211 0.22189 0.0
H145 H 0.01957 0.2304 0.20737 0.0
H146 H 0.04912 0.24955 0.1823 0.0
H147 H 0.01143 0.31136 0.1868 0.0
H148 H 0.01375 0.28283 0.29387 0.0
H149 H 0.98064 0.26671 0.31603 0.0
O150 O 0.95116 0.27308 0.20804 0.0
C151 C 0.92518 0.32323 0.21656 0.0
C152 C 0.95784 0.27184 0.28559 0.0
C153 C 0.99739 0.28192 0.28492 0.0
N154 N 0.97411 0.2886 0.24937 0.0
C155 C 0.95579 0.27987 0.26147 0.0
C156 C 0.9947 0.2898 0.26082 0.0
C157 C 0.97881 0.27287 0.29734 0.0
C158 C 0.96569 0.34918 0.14718 0.0
N159 N 0.94481 0.34294 0.15566 0.0
C160 C 0.97048 0.37184 0.14192 0.0
C161 C 0.95371 0.38815 0.14537 0.0
C162 C 0.93243 0.38165 0.15397 0.0
C163 C 0.92827 0.35884 0.15908 0.0
C164 C 0.89075 0.32045 0.10787 0.0
C165 C 0.89187 0.30306 0.15526 0.0
C166 C 0.91079 0.3203 0.12157 0.0
N167 N 0.91113 0.31177 0.145 0.0
C168 C 0.87153 0.30293 0.14211 0.0
C169 C 0.87101 0.31172 0.11827 0.0
C170 C 0.93809 0.2667 0.19062 0.0
C171 C 0.03219 0.28182 0.18302 0.0
C172 C 0.99919 0.26053 0.2109 0.0
C173 C 0.01794 0.24817 0.20279 0.0
C174 C 0.03452 0.25893 0.18874 0.0
N175 N 0.99704 0.28299 0.20525 0.0
C176 C 0.01322 0.29365 0.19148 0.0
Co177 Co 0.19099 0.93594 0.66031 0.0
Co178 Co 0.19936 0.97191 0.70945 0.0
O179 O 0.18924 0.96583 0.67578 0.0
C180 C 0.21438 0.96554 0.62431 0.0
O181 O 0.22588 0.97416 0.64279 0.0
C182 C 0.15232 0.98931 0.70936 0.0
O183 O 0.14617 0.97031 0.69872 0.0
O184 O 0.18092 0.94629 0.72244 0.0
O185 O 0.18244 0.92069 0.69184 0.0
H186 H 0.22957 0.95119 0.79306 0.0
H187 H 0.16299 0.97183 0.63727 0.0
O188 O 0.19953 0.95032 0.62823 0.0
H189 H 0.10994 0.90966 0.65598 0.0
H190 H 0.17865 0.88015 0.59139 0.0
H191 H 0.21001 0.89139 0.67476 0.0
H192 H 0.15059 0.90592 0.66559 0.0
H193 H 0.17611 0.91742 0.61178 0.0
O194 O 0.17307 0.99283 0.71453 0.0
H195 H 0.2171 0.94378 0.75041 0.0
H196 H 0.20234 0.01359 0.74037 0.0
H197 H 0.21276 0.85379 0.65514 0.0
H198 H 0.12248 0.97621 0.62714 0.0
H199 H 0.19701 0.848 0.61315 0.0
H200 H 0.09565 0.94499 0.63658 0.0
O201 O 0.22361 0.93303 0.66909 0.0
H202 H 0.21274 0.04173 0.65856 0.0
H203 H 0.24728 0.98694 0.71597 0.0
H204 H 0.2705 0.01802 0.69914 0.0
H205 H 0.25322 0.04571 0.67025 0.0
H206 H 0.19018 0.01025 0.67566 0.0
H207 H 0.21446 0.02173 0.78298 0.0
H208 H 0.22829 0.99041 0.8096 0.0
O209 O 0.22593 0.95126 0.70532 0.0
C210 C 0.17754 0.92646 0.71387 0.0
C211 C 0.22364 0.96499 0.78162 0.0
C212 C 0.21513 0.00458 0.77597 0.0
N213 N 0.20916 0.97825 0.74287 0.0
C214 C 0.21661 0.96091 0.75744 0.0
C215 C 0.20824 0.99986 0.75188 0.0
C216 C 0.2229 0.987 0.7909 0.0
C217 C 0.15144 0.95809 0.6412 0.0
N218 N 0.15916 0.93861 0.65189 0.0
C219 C 0.12852 0.9607 0.63553 0.0
C220 C 0.11346 0.9432 0.64086 0.0
C221 C 0.12147 0.92337 0.65176 0.0
C222 C 0.1445 0.92137 0.65721 0.0
C223 C 0.18553 0.88245 0.60972 0.0
C224 C 0.20298 0.88895 0.65656 0.0
C225 C 0.18417 0.90352 0.62134 0.0
N226 N 0.19272 0.90651 0.64453 0.0
C227 C 0.20465 0.86765 0.64551 0.0
C228 C 0.19583 0.86441 0.62194 0.0
C229 C 0.23425 0.93842 0.68869 0.0
C230 C 0.22045 0.0298 0.67119 0.0
C231 C 0.23966 0.99886 0.70333 0.0
C232 C 0.25288 0.01646 0.69392 0.0
C233 C 0.24317 0.03201 0.67772 0.0
N234 N 0.21738 0.99683 0.69686 0.0
C235 C 0.20774 0.012 0.681 0.0
Co236 Co 0.56495 0.30804 0.84177 0.0
Co237 Co 0.52999 0.30223 0.7915 0.0
O238 O 0.53534 0.31091 0.82585 0.0
C239 C 0.53435 0.28498 0.87745 0.0
O240 O 0.52494 0.27405 0.85902 0.0
C241 C 0.51266 0.34922 0.79343 0.0
O242 O 0.53142 0.35481 0.80492 0.0
O243 O 0.55586 0.32124 0.7801 0.0
O244 O 0.58091 0.31691 0.8108 0.0
H245 H 0.55257 0.27579 0.70694 0.0
H246 H 0.52952 0.3365 0.86497 0.0
O247 O 0.55006 0.29927 0.87345 0.0
H248 H 0.59337 0.38823 0.84874 0.0
H249 H 0.62032 0.3175 0.91165 0.0
H250 H 0.60909 0.28799 0.82747 0.0
H251 H 0.59617 0.34772 0.83812 0.0
H252 H 0.58339 0.32155 0.89084 0.0
O253 O 0.50916 0.32871 0.7872 0.0
H254 H 0.55905 0.28643 0.75035 0.0
H255 H 0.48898 0.30044 0.75946 0.0
H256 H 0.64635 0.28374 0.8475 0.0
H257 H 0.52608 0.37687 0.87611 0.0
H258 H 0.65215 0.29855 0.8899 0.0
H259 H 0.55814 0.40305 0.86791 0.0
O260 O 0.56698 0.27557 0.83214 0.0
H261 H 0.45904 0.28663 0.83971 0.0
H262 H 0.51533 0.25458 0.78227 0.0
H263 H 0.4839 0.23064 0.79704 0.0
H264 H 0.45546 0.24666 0.82593 0.0
H265 H 0.49086 0.30992 0.82465 0.0
H266 H 0.48177 0.29015 0.71608 0.0
H267 H 0.51369 0.27761 0.68954 0.0
O268 O 0.55066 0.27554 0.79478 0.0
C269 C 0.57567 0.32341 0.78913 0.0
C270 C 0.53851 0.28115 0.71834 0.0
C271 C 0.49877 0.28924 0.72346 0.0
N272 N 0.52439 0.29387 0.75747 0.0
C273 C 0.54207 0.28714 0.74295 0.0
C274 C 0.50297 0.29509 0.74799 0.0
C275 C 0.51669 0.2822 0.70858 0.0
C276 C 0.54362 0.34775 0.86158 0.0
N277 N 0.56304 0.33974 0.85101 0.0
C278 C 0.54154 0.3706 0.86783 0.0
C279 C 0.55952 0.38529 0.86319 0.0
C280 C 0.57929 0.37699 0.85241 0.0
C281 C 0.58075 0.35404 0.84638 0.0
C282 C 0.61802 0.31101 0.89316 0.0
C283 C 0.61151 0.29459 0.84588 0.0
C284 C 0.59713 0.3132 0.88131 0.0
N285 N 0.59413 0.30514 0.85791 0.0
C286 C 0.63264 0.29208 0.85715 0.0
C287 C 0.63587 0.30038 0.88094 0.0
C288 C 0.56248 0.2661 0.81159 0.0
C289 C 0.47129 0.27947 0.82707 0.0
C290 C 0.50307 0.26166 0.79492 0.0
C291 C 0.48528 0.24803 0.80316 0.0
C292 C 0.46931 0.25704 0.81936 0.0
N293 N 0.50487 0.28366 0.80253 0.0
C294 C 0.48929 0.2926 0.81841 0.0
Co295 Co 0.19349 0.56211 0.34503 0.0
Co296 Co 0.19947 0.52783 0.29403 0.0
O297 O 0.191 0.53276 0.32851 0.0
C298 C 0.21869 0.53174 0.379 0.0
O299 O 0.22981 0.52377 0.3599 0.0
C300 C 0.15241 0.51088 0.29632 0.0
O301 O 0.14727 0.52929 0.30868 0.0
O302 O 0.18068 0.55401 0.28308 0.0
O303 O 0.18343 0.57837 0.3147 0.0
H304 H 0.22604 0.55133 0.20982 0.0
H305 H 0.16659 0.5255 0.36827 0.0
O306 O 0.20345 0.54676 0.37605 0.0
H307 H 0.11276 0.58821 0.35493 0.0
H308 H 0.18445 0.61571 0.41659 0.0
H309 H 0.21178 0.60712 0.33118 0.0
H310 H 0.15291 0.59229 0.34321 0.0
H311 H 0.18093 0.5791 0.39501 0.0
O312 O 0.17274 0.50737 0.28944 0.0
H313 H 0.21557 0.55729 0.25338 0.0
H314 H 0.20066 0.48729 0.26125 0.0
H315 H 0.21547 0.64408 0.352 0.0
H316 H 0.12662 0.52078 0.38049 0.0
H317 H 0.20174 0.64854 0.39502 0.0
H318 H 0.09939 0.55226 0.37375 0.0
O319 O 0.22566 0.5653 0.33454 0.0
H320 H 0.21457 0.45618 0.34118 0.0
H321 H 0.24691 0.51275 0.2843 0.0
H322 H 0.27061 0.48092 0.29852 0.0
H323 H 0.25444 0.45234 0.32714 0.0
H324 H 0.19152 0.48839 0.32665 0.0
H325 H 0.21076 0.4806 0.21772 0.0
H326 H 0.22365 0.51275 0.19172 0.0
O327 O 0.22635 0.54813 0.29761 0.0
C328 C 0.17757 0.57347 0.29271 0.0
C329 C 0.22051 0.53717 0.22098 0.0
C330 C 0.21191 0.49748 0.2254 0.0
N331 N 0.20769 0.52263 0.25987 0.0
C332 C 0.21462 0.54043 0.24566 0.0
C333 C 0.20616 0.50138 0.25002 0.0
C334 C 0.21915 0.51552 0.21083 0.0
C335 C 0.15489 0.53936 0.36551 0.0
N336 N 0.1621 0.55917 0.35513 0.0
C337 C 0.13226 0.53655 0.37237 0.0
C338 C 0.11698 0.55421 0.36855 0.0
C339 C 0.12447 0.57437 0.35797 0.0
C340 C 0.14722 0.57656 0.35132 0.0
C341 C 0.19045 0.61399 0.39783 0.0
C342 C 0.20565 0.60897 0.34986 0.0
C343 C 0.18855 0.59329 0.38554 0.0
N344 N 0.19599 0.59103 0.3618 0.0
C345 C 0.20784 0.62992 0.36157 0.0
C346 C 0.20015 0.63241 0.38572 0.0
C347 C 0.23543 0.56044 0.31424 0.0
C348 C 0.22179 0.46849 0.32866 0.0
C349 C 0.23977 0.50042 0.29682 0.0
C350 C 0.25326 0.4824 0.30476 0.0
C351 C 0.24417 0.46636 0.3208 0.0
N352 N 0.21782 0.50236 0.30457 0.0
C353 C 0.2088 0.48671 0.32031 0.0
Co354 Co 0.9447 0.19628 0.84051 0.0
Co355 Co 0.97393 0.20628 0.78611 0.0
O356 O 0.97247 0.19752 0.8209 0.0
C357 C 0.95467 0.22953 0.87978 0.0
O358 O 0.93645 0.24037 0.87246 0.0
C359 C 0.99143 0.1593 0.78654 0.0
O360 O 0.97482 0.15422 0.80165 0.0
O361 O 0.9467 0.18772 0.77771 0.0
O362 O 0.92826 0.18087 0.8132 0.0
H363 H 0.94238 0.23441 0.70572 0.0
H364 H 0.98774 0.1786 0.86105 0.0
O365 O 0.96108 0.21167 0.86846 0.0
H366 H 0.93539 0.11353 0.86079 0.0
H367 H 0.89976 0.18333 0.91826 0.0
H368 H 0.89616 0.20519 0.8306 0.0
H369 H 0.92269 0.15106 0.84639 0.0
H370 H 0.93448 0.18469 0.893 0.0
O371 O 0.99376 0.17953 0.77875 0.0
H372 H 0.94076 0.2234 0.74956 0.0
H373 H 0.01093 0.20753 0.74867 0.0
H374 H 0.86101 0.20398 0.85516 0.0
H375 H 0.00109 0.14142 0.87589 0.0
H376 H 0.86268 0.193 0.89933 0.0
H377 H 0.97485 0.10854 0.87572 0.0
O378 O 0.9346 0.22626 0.82739 0.0
H379 H 0.05009 0.22041 0.82449 0.0
H380 H 0.98832 0.25367 0.77515 0.0
H381 H 0.02168 0.27694 0.78544 0.0
H382 H 0.05291 0.26029 0.81022 0.0
H383 H 0.01629 0.19781 0.81396 0.0
H384 H 0.01327 0.21818 0.70477 0.0
H385 H 0.97884 0.23182 0.68303 0.0
O386 O 0.95427 0.233 0.79269 0.0
C387 C 0.93039 0.17901 0.78989 0.0
C388 C 0.95751 0.22856 0.71501 0.0
C389 C 0.9973 0.21941 0.71446 0.0
N390 N 0.97575 0.21498 0.75169 0.0
C391 C 0.95671 0.22236 0.73984 0.0
C392 C 0.99585 0.21335 0.7393 0.0
C393 C 0.97797 0.22707 0.70228 0.0
C394 C 0.97616 0.16442 0.86114 0.0
N395 N 0.95444 0.16701 0.85291 0.0
C396 C 0.98384 0.14339 0.86947 0.0
C397 C 0.96912 0.12494 0.86934 0.0
C398 C 0.94699 0.12772 0.86094 0.0
C399 C 0.93991 0.149 0.85272 0.0
C400 C 0.8988 0.18812 0.89903 0.0
C401 C 0.897 0.20032 0.84978 0.0
C402 C 0.9184 0.18892 0.88464 0.0
N403 N 0.91732 0.19494 0.86032 0.0
C404 C 0.87705 0.19969 0.86361 0.0
C405 C 0.87801 0.19354 0.88839 0.0
C406 C 0.93971 0.23864 0.80893 0.0
C407 C 0.03661 0.22785 0.81365 0.0
C408 C 0.00176 0.24635 0.78607 0.0
C409 C 0.02065 0.25959 0.79177 0.0
C410 C 0.03817 0.25023 0.80566 0.0
N411 N 1.00039 0.22439 0.7939 0.0
C412 C 0.01746 0.21512 0.80758 0.0
Co413 Co 0.31065 0.93554 0.34054 0.0
Co414 Co 0.29915 0.96995 0.29031 0.0
O415 O 0.31012 0.96494 0.32391 0.0
C416 C 0.28256 0.96391 0.374 0.0
O417 O 0.27159 0.97155 0.35465 0.0
C418 C 0.34674 0.98546 0.28869 0.0
O419 O 0.35204 0.96741 0.30159 0.0
O420 O 0.31585 0.94292 0.27751 0.0
O421 O 0.32298 0.9208 0.31035 0.0
H422 H 0.26424 0.94713 0.20957 0.0
H423 H 0.33292 0.97556 0.36289 0.0
O424 O 0.2986 0.94968 0.37137 0.0
H425 H 0.39347 0.91868 0.35336 0.0
H426 H 0.32423 0.88338 0.41252 0.0
H427 H 0.29842 0.88867 0.32624 0.0
H428 H 0.35419 0.90983 0.34123 0.0
H429 H 0.32391 0.92016 0.39095 0.0
O430 O 0.32619 0.98927 0.28287 0.0
H431 H 0.2781 0.94103 0.25195 0.0
H432 H 0.2971 0.01024 0.2572 0.0
H433 H 0.29866 0.85151 0.34704 0.0
H434 H 0.3719 0.98508 0.37554 0.0
H435 H 0.31162 0.84871 0.3905 0.0
H436 H 0.40252 0.95656 0.37068 0.0
O437 O 0.27902 0.92851 0.32971 0.0
H438 H 0.29101 0.04212 0.33858 0.0
H439 H 0.25198 0.98737 0.28468 0.0
H440 H 0.23089 0.02018 0.30099 0.0
H441 H 0.25045 0.04786 0.32813 0.0
H442 H 0.31137 0.00893 0.32204 0.0
H443 H 0.28363 0.01706 0.21479 0.0
H444 H 0.26698 0.98538 0.19072 0.0
O445 O 0.2721 0.95084 0.29697 0.0
C446 C 0.32401 0.92505 0.28733 0.0
C447 C 0.2714 0.96109 0.21989 0.0
C448 C 0.28232 1.00033 0.22281 0.0
N449 N 0.28826 0.97529 0.25708 0.0
C450 C 0.27922 0.95774 0.24392 0.0
C451 C 0.28997 0.99635 0.24679 0.0
C452 C 0.27297 0.98255 0.20932 0.0
C453 C 0.34612 0.96301 0.36087 0.0
N454 N 0.34131 0.94219 0.35119 0.0
C455 C 0.36818 0.96852 0.368 0.0
C456 C 0.38535 0.95252 0.36525 0.0
C457 C 0.38029 0.93128 0.3555 0.0
C458 C 0.35805 0.92639 0.34853 0.0
C459 C 0.31857 0.88438 0.39357 0.0
C460 C 0.30422 0.88756 0.34511 0.0
C461 C 0.31829 0.90517 0.38128 0.0
N462 N 0.31127 0.90653 0.35731 0.0
C463 C 0.30425 0.86649 0.35681 0.0
C464 C 0.3115 0.86493 0.3812 0.0
C465 C 0.26623 0.93562 0.31237 0.0
C466 C 0.28231 0.03019 0.32676 0.0
C467 C 0.26055 0.99926 0.29659 0.0
C468 C 0.24855 0.01785 0.3057 0.0
C469 C 0.25954 0.03339 0.32091 0.0
N470 N 0.28287 0.99624 0.30241 0.0
C471 C 0.29377 0.01141 0.31728 0.0
Co472 Co 0.43689 0.81441 0.84196 0.0
Co473 Co 0.46979 0.80068 0.7912 0.0
O474 O 0.46592 0.8123 0.82475 0.0
C475 C 0.46481 0.78617 0.87578 0.0
O476 O 0.47198 0.77457 0.85665 0.0
C477 C 0.48763 0.8474 0.78846 0.0
O478 O 0.46981 0.8538 0.80116 0.0
O479 O 0.4435 0.81868 0.77866 0.0
O480 O 0.42205 0.82657 0.81178 0.0
H481 H 0.44392 0.76626 0.71131 0.0
H482 H 0.47812 0.83557 0.86288 0.0
O483 O 0.45105 0.80255 0.87287 0.0
H484 H 0.42356 0.89813 0.85267 0.0
H485 H 0.38654 0.83181 0.91452 0.0
H486 H 0.38935 0.80357 0.829 0.0
H487 H 0.41295 0.85898 0.84184 0.0
H488 H 0.42288 0.82959 0.89222 0.0
O489 O 0.49045 0.82658 0.78311 0.0
H490 H 0.4392 0.78086 0.75362 0.0
H491 H 0.50941 0.7961 0.75745 0.0
H492 H 0.3526 0.80571 0.85053 0.0
H493 H 0.4894 0.87443 0.87423 0.0
H494 H 0.35105 0.8199 0.89362 0.0
H495 H 0.46205 0.90605 0.86903 0.0
O496 O 0.4285 0.78286 0.83214 0.0
H497 H 0.5422 0.78916 0.83821 0.0
H498 H 0.48449 0.75256 0.78598 0.0
H499 H 0.51637 0.72989 0.80198 0.0
H500 H 0.54553 0.74822 0.82827 0.0
H501 H 0.50991 0.81112 0.822 0.0
H502 H 0.51487 0.78185 0.7151 0.0
H503 H 0.48197 0.76671 0.69178 0.0
O504 O 0.44932 0.77472 0.79855 0.0
C505 C 0.42601 0.82741 0.7887 0.0
C506 C 0.45839 0.77275 0.72131 0.0
C507 C 0.4982 0.78153 0.72342 0.0
N508 N 0.47403 0.78917 0.75803 0.0
C509 C 0.45583 0.78098 0.74529 0.0
C510 C 0.495 0.78963 0.74737 0.0
C511 C 0.47974 0.77303 0.71035 0.0
C512 C 0.46608 0.84922 0.86072 0.0
N513 N 0.44492 0.84503 0.85159 0.0
C514 C 0.47258 0.8712 0.86712 0.0
C515 C 0.45724 0.88894 0.86417 0.0
C516 C 0.43565 0.88451 0.85496 0.0
C517 C 0.42976 0.86233 0.84873 0.0
C518 C 0.38699 0.82562 0.89574 0.0
C519 C 0.38879 0.80989 0.8477 0.0
C520 C 0.40753 0.82426 0.88305 0.0
N521 N 0.40822 0.81656 0.85929 0.0
C522 C 0.36794 0.81101 0.85982 0.0
C523 C 0.36708 0.81895 0.884 0.0
C524 C 0.43438 0.76965 0.81463 0.0
C525 C 0.52962 0.78099 0.82675 0.0
C526 C 0.49703 0.76061 0.79753 0.0
C527 C 0.51509 0.74771 0.80646 0.0
C528 C 0.53146 0.75801 0.82119 0.0
N529 N 0.49534 0.78313 0.80306 0.0
C530 C 0.51134 0.79335 0.81745 0.0
Co531 Co 0.6902 0.43977 0.3446 0.0
Co532 Co 0.69931 0.47021 0.29115 0.0
O533 O 0.68997 0.46794 0.32568 0.0
C534 C 0.71773 0.47031 0.37628 0.0
O535 O 0.72952 0.47615 0.35675 0.0
C536 C 0.65279 0.48857 0.29085 0.0
O537 O 0.64687 0.47096 0.30417 0.0
O538 O 0.68012 0.44383 0.28153 0.0
O539 O 0.67884 0.42239 0.31567 0.0
H540 H 0.72711 0.44047 0.20978 0.0
H541 H 0.66641 0.48015 0.36415 0.0
O542 O 0.70139 0.45637 0.37431 0.0
H543 H 0.60771 0.42112 0.35695 0.0
H544 H 0.67724 0.39222 0.42039 0.0
H545 H 0.70453 0.39255 0.33446 0.0
H546 H 0.64736 0.41288 0.34583 0.0
H547 H 0.67661 0.4274 0.39587 0.0
O548 O 0.67335 0.49111 0.28427 0.0
H549 H 0.71546 0.43768 0.25335 0.0
H550 H 0.70254 0.50843 0.25541 0.0
H551 H 0.70528 0.35695 0.35824 0.0
H552 H 0.627 0.48908 0.37571 0.0
H553 H 0.69156 0.35665 0.40154 0.0
H554 H 0.59731 0.45947 0.37204 0.0
O555 O 0.72208 0.43321 0.33452 0.0
H556 H 0.71556 0.54436 0.33302 0.0
H557 H 0.74743 0.48308 0.28187 0.0
H558 H 0.77181 0.51502 0.2943 0.0
H559 H 0.75588 0.54597 0.32003 0.0
H560 H 0.69183 0.512 0.32033 0.0
H561 H 0.71387 0.51197 0.2118 0.0
H562 H 0.72636 0.47783 0.18872 0.0
O563 O 0.7253 0.44937 0.29718 0.0
C564 C 0.67479 0.42566 0.29286 0.0
C565 C 0.72177 0.45548 0.21966 0.0
C566 C 0.71431 0.4956 0.22079 0.0
N567 N 0.70851 0.4729 0.25695 0.0
C568 C 0.71522 0.45402 0.24435 0.0
C569 C 0.70787 0.49349 0.24546 0.0
C570 C 0.72133 0.47644 0.20785 0.0
C571 C 0.65362 0.46712 0.36271 0.0
N572 N 0.65919 0.44601 0.35434 0.0
C573 C 0.63132 0.4723 0.3692 0.0
C574 C 0.61467 0.45569 0.3671 0.0
C575 C 0.62048 0.43418 0.35861 0.0
C576 C 0.64295 0.42963 0.35225 0.0
C577 C 0.68323 0.39213 0.40153 0.0
C578 C 0.69842 0.39252 0.35324 0.0
C579 C 0.68297 0.41201 0.38757 0.0
N580 N 0.6904 0.412 0.36371 0.0
C581 C 0.69893 0.37233 0.36664 0.0
C582 C 0.69126 0.37218 0.39094 0.0
C583 C 0.73287 0.43689 0.31452 0.0
C584 C 0.72268 0.53101 0.32175 0.0
C585 C 0.74039 0.49645 0.29312 0.0
C586 C 0.75427 0.51452 0.30006 0.0
C587 C 0.74531 0.53189 0.31448 0.0
N588 N 0.7182 0.49574 0.30028 0.0
C589 C 0.70931 0.51269 0.31444 0.0
Co590 Co 0.06557 0.69136 0.83958 0.0
Co591 Co 0.03102 0.70203 0.7895 0.0
O592 O 0.0362 0.69074 0.82292 0.0
C593 C 0.03555 0.71564 0.87448 0.0
O594 O 0.02784 0.72733 0.85567 0.0
C595 C 0.01498 0.65466 0.78728 0.0
O596 O 0.03353 0.64889 0.79906 0.0
O597 O 0.05752 0.68477 0.77654 0.0
O598 O 0.08149 0.68247 0.80863 0.0
H599 H 0.05362 0.73644 0.70843 0.0
H600 H 0.02794 0.66462 0.86104 0.0
O601 O 0.05042 0.70031 0.87113 0.0
H602 H 0.08866 0.60935 0.84421 0.0
H603 H 0.11847 0.6766 0.9106 0.0
H604 H 0.11126 0.70875 0.82706 0.0
H605 H 0.09422 0.64991 0.83512 0.0
H606 H 0.08185 0.67558 0.88872 0.0
O607 O 0.01109 0.67539 0.7823 0.0
H608 H 0.05996 0.72237 0.7507 0.0
H609 H 0.99038 0.70505 0.75701 0.0
H610 H 0.14824 0.70996 0.84818 0.0
H611 H 0.02173 0.62424 0.87061 0.0
H612 H 0.15201 0.69381 0.89026 0.0
H613 H 0.0522 0.59629 0.86212 0.0
O614 O 0.07001 0.72388 0.83118 0.0
H615 H 0.95937 0.7115 0.83839 0.0
H616 H 0.01473 0.74969 0.78451 0.0
H617 H 0.98252 0.77139 0.80125 0.0
H618 H 0.95454 0.75227 0.82838 0.0
H619 H 0.99197 0.69049 0.82141 0.0
H620 H 0.98332 0.71873 0.71473 0.0
H621 H 0.01507 0.73465 0.69018 0.0
O622 O 0.05081 0.72888 0.79582 0.0
C623 C 0.07663 0.67958 0.78594 0.0
C624 C 0.03964 0.7296 0.71897 0.0
C625 C 1.00019 0.71963 0.72249 0.0
N626 N 0.02553 0.71306 0.75636 0.0
C627 C 0.04311 0.72167 0.74293 0.0
C628 C 0.00429 0.71186 0.7464 0.0
C629 C 0.01801 0.72857 0.70873 0.0
C630 C 0.04136 0.65258 0.85753 0.0
N631 N 0.06145 0.65962 0.84766 0.0
C632 C 0.03771 0.62973 0.86289 0.0
C633 C 0.0548 0.61406 0.85808 0.0
C634 C 0.07526 0.62137 0.84802 0.0
C635 C 0.07829 0.64435 0.84286 0.0
C636 C 0.11705 0.68364 0.89224 0.0
C637 C 0.11281 0.70153 0.84529 0.0
C638 C 0.09636 0.68315 0.87978 0.0
N639 N 0.09448 0.69191 0.85654 0.0
C640 C 0.13378 0.70234 0.85719 0.0
C641 C 0.13587 0.69329 0.88082 0.0
C642 C 0.06426 0.73584 0.81262 0.0
C643 C 0.97143 0.72001 0.82655 0.0
C644 C 0.0027 0.74128 0.79638 0.0
C645 C 0.98445 0.75364 0.80575 0.0
C646 C 0.96874 0.74289 0.82096 0.0
N647 N 0.00521 0.71884 0.80195 0.0
C648 C 0.98987 0.70818 0.81682 0.0
Co649 Co 0.80952 0.06669 0.33657 0.0
Co650 Co 0.80452 0.02841 0.28903 0.0
O651 O 0.81349 0.03639 0.32264 0.0
C652 C 0.78763 0.03702 0.37383 0.0
O653 O 0.77785 0.02594 0.35575 0.0
C654 C 0.85267 0.01415 0.28963 0.0
O655 O 0.85789 0.03449 0.29761 0.0
O656 O 0.82174 0.05456 0.27525 0.0
O657 O 0.81777 0.08115 0.30452 0.0
H658 H 0.77528 0.04384 0.20367 0.0
H659 H 0.83925 0.0336 0.36183 0.0
O660 O 0.80114 0.05329 0.3692 0.0
H661 H 0.88861 0.09832 0.34144 0.0
H662 H 0.8169 0.12608 0.40272 0.0
H663 H 0.78791 0.10922 0.31946 0.0
H664 H 0.84801 0.09906 0.33077 0.0
H665 H 0.82229 0.08824 0.38434 0.0
O666 O 0.83206 0.00882 0.28581 0.0
H667 H 0.78626 0.05375 0.2462 0.0
H668 H 0.80476 0.98541 0.26018 0.0
H669 H 0.78231 0.14734 0.33705 0.0
H670 H 0.87973 0.03224 0.37303 0.0
H671 H 0.79686 0.15597 0.37898 0.0
H672 H 0.90471 0.06475 0.36277 0.0
O673 O 0.77699 0.06706 0.32697 0.0
H674 H 0.7939 0.95981 0.3426 0.0
H675 H 0.75763 0.01059 0.28215 0.0
H676 H 0.73579 0.97887 0.29975 0.0
H677 H 0.75395 0.95319 0.33018 0.0
H678 H 0.81505 0.99188 0.32472 0.0
H679 H 0.79416 0.9748 0.21773 0.0
H680 H 0.77921 0.00412 0.18919 0.0
O681 O 0.77675 0.0477 0.29136 0.0
C682 C 0.82363 0.07488 0.28295 0.0
C683 C 0.78171 0.0309 0.21596 0.0
C684 C 0.79233 0.99216 0.22384 0.0
N685 N 0.79595 0.02014 0.25571 0.0
C686 C 0.78789 0.0364 0.24008 0.0
C687 C 0.79834 0.99828 0.24784 0.0
C688 C 0.78394 0.00861 0.20784 0.0
C689 C 0.84998 0.04789 0.3575 0.0
N690 N 0.84126 0.06642 0.34579 0.0
C691 C 0.8729 0.04699 0.3638 0.0
C692 C 0.88692 0.06522 0.35801 0.0
C693 C 0.8779 0.08406 0.34603 0.0
C694 C 0.8549 0.08436 0.33999 0.0
C695 C 0.81053 0.12255 0.38441 0.0
C696 C 0.79442 0.11289 0.33765 0.0
C697 C 0.81349 0.10114 0.37393 0.0
N698 N 0.80558 0.09659 0.35077 0.0
C699 C 0.79114 0.13449 0.34754 0.0
C700 C 0.79929 0.13931 0.37108 0.0
C701 C 0.76724 0.0605 0.30725 0.0
C702 C 0.78582 0.97085 0.32931 0.0
C703 C 0.76562 0.99955 0.29546 0.0
C704 C 0.75319 0.98158 0.30531 0.0
C705 C 0.76339 0.96716 0.32236 0.0
N706 N 0.78762 0.00304 0.30235 0.0
C707 C 0.79774 0.98898 0.31905 0.0
Co708 Co 0.43568 0.68918 0.15935 0.0
Co709 Co 0.46951 0.6997 0.21015 0.0
O710 O 0.46501 0.68958 0.17614 0.0
C711 C 0.46433 0.71666 0.12555 0.0
O712 O 0.47185 0.728 0.14469 0.0
C713 C 0.48753 0.65299 0.21041 0.0
O714 O 0.46931 0.64692 0.19822 0.0
O715 O 0.44363 0.681 0.22219 0.0
O716 O 0.4205 0.67734 0.18956 0.0
H717 H 0.44504 0.73001 0.29252 0.0
H718 H 0.47549 0.66626 0.13733 0.0
O719 O 0.4501 0.70068 0.12844 0.0
H720 H 0.41811 0.60634 0.14776 0.0
H721 H 0.38372 0.6752 0.08729 0.0
H722 H 0.38893 0.70238 0.17308 0.0
H723 H 0.4096 0.64581 0.15937 0.0
H724 H 0.42038 0.67531 0.1091 0.0
O725 O 0.49051 0.67366 0.21632 0.0
H726 H 0.43953 0.71732 0.24961 0.0
H727 H 0.50983 0.70321 0.24306 0.0
H728 H 0.35188 0.70237 0.15203 0.0
H729 H 0.48466 0.62705 0.1252 0.0
H730 H 0.34913 0.68872 0.10882 0.0
H731 H 0.45589 0.59675 0.1305 0.0
O732 O 0.42905 0.72099 0.16977 0.0
H733 H 0.54109 0.71394 0.16252 0.0
H734 H 0.4836 0.74782 0.21721 0.0
H735 H 0.515 0.77144 0.2018 0.0
H736 H 0.54405 0.75449 0.17427 0.0
H737 H 0.50929 0.69097 0.1782 0.0
H738 H 0.51608 0.71556 0.28597 0.0
H739 H 0.48355 0.72917 0.31097 0.0
O740 O 0.44872 0.72579 0.20483 0.0
C741 C 0.4252 0.67435 0.21227 0.0
C742 C 0.45936 0.72418 0.2818 0.0
C743 C 0.49923 0.71604 0.27813 0.0
N744 N 0.47436 0.70969 0.2438 0.0
C745 C 0.45636 0.71703 0.25747 0.0
C746 C 0.49558 0.70902 0.25386 0.0
C747 C 0.48097 0.72368 0.29214 0.0
C748 C 0.46282 0.65319 0.13953 0.0
N749 N 0.44204 0.65831 0.14915 0.0
C750 C 0.46814 0.63101 0.13269 0.0
C751 C 0.452 0.61401 0.1357 0.0
C752 C 0.43081 0.61938 0.14542 0.0
C753 C 0.42611 0.64174 0.15208 0.0
C754 C 0.3847 0.68116 0.10613 0.0
C755 C 0.38783 0.69628 0.15432 0.0
C756 C 0.40542 0.68132 0.11855 0.0
N757 N 0.40676 0.68872 0.14239 0.0
C758 C 0.36682 0.69638 0.14248 0.0
C759 C 0.36529 0.68874 0.11823 0.0
C760 C 0.43462 0.73263 0.18865 0.0
C761 C 0.52857 0.7215 0.17455 0.0
C762 C 0.49612 0.74034 0.20518 0.0
C763 C 0.5139 0.75379 0.19655 0.0
C764 C 0.5302 0.74426 0.18112 0.0
N765 N 0.49466 0.71802 0.19868 0.0
C766 C 0.51058 0.70856 0.18356 0.0
Co767 Co 0.80859 0.43894 0.6608 0.0
Co768 Co 0.80075 0.47491 0.71027 0.0
O769 O 0.81098 0.46862 0.67667 0.0
C770 C 0.78559 0.46956 0.62545 0.0
O771 O 0.77459 0.47841 0.64416 0.0
C772 C 0.84864 0.48984 0.71091 0.0
O773 O 0.85391 0.47094 0.69952 0.0
O774 O 0.81756 0.44815 0.72334 0.0
O775 O 0.81721 0.42328 0.69199 0.0
H776 H 0.76786 0.45505 0.79292 0.0
H777 H 0.83685 0.47472 0.6379 0.0
O778 O 0.79995 0.45381 0.62901 0.0
H779 H 0.88926 0.41165 0.65526 0.0
H780 H 0.81956 0.38382 0.59096 0.0
H781 H 0.78929 0.39442 0.67491 0.0
H782 H 0.84864 0.40834 0.66524 0.0
H783 H 0.82272 0.42082 0.61182 0.0
O784 O 0.82807 0.49422 0.71616 0.0
H785 H 0.78064 0.44742 0.75041 0.0
H786 H 0.79971 0.51633 0.74178 0.0
H787 H 0.78593 0.35709 0.65483 0.0
H788 H 0.87732 0.47867 0.62742 0.0
H789 H 0.80113 0.35161 0.61254 0.0
H790 H 0.90383 0.447 0.63618 0.0
O791 O 0.776 0.43628 0.66993 0.0
H792 H 0.79222 0.54565 0.65965 0.0
H793 H 0.75385 0.493 0.71649 0.0
H794 H 0.73273 0.52551 0.69955 0.0
H795 H 0.75196 0.55214 0.67093 0.0
H796 H 0.81261 0.51277 0.67685 0.0
H797 H 0.78735 0.52466 0.78427 0.0
H798 H 0.7712 0.49391 0.8101 0.0
O799 O 0.77317 0.45587 0.70531 0.0
C800 C 0.82128 0.42852 0.71435 0.0
C801 C 0.77482 0.46861 0.78182 0.0
C802 C 0.78578 0.50767 0.77698 0.0
N803 N 0.79077 0.48144 0.74359 0.0
C804 C 0.78202 0.4644 0.75772 0.0
C805 C 0.79281 0.50284 0.75296 0.0
C806 C 0.77671 0.49041 0.79146 0.0
C807 C 0.84825 0.46078 0.64153 0.0
N808 N 0.84037 0.44128 0.65205 0.0
C809 C 0.87116 0.46315 0.63566 0.0
C810 C 0.88603 0.44539 0.64061 0.0
C811 C 0.87787 0.42555 0.65133 0.0
C812 C 0.85486 0.4238 0.657 0.0
C813 C 0.81291 0.38598 0.60941 0.0
C814 C 0.79607 0.39213 0.65657 0.0
C815 C 0.81461 0.4069 0.62129 0.0
N816 N 0.80635 0.40972 0.64464 0.0
C817 C 0.79406 0.37097 0.64527 0.0
C818 C 0.80257 0.36792 0.62153 0.0
C819 C 0.765 0.44266 0.68896 0.0
C820 C 0.78366 0.53419 0.67213 0.0
C821 C 0.76227 0.50442 0.70394 0.0
C822 C 0.75026 0.52285 0.69448 0.0
C823 C 0.76107 0.5378 0.67844 0.0
N824 N 0.78443 0.50098 0.69765 0.0
C825 C 0.79515 0.51559 0.68198 0.0
Co826 Co 0.06462 0.80544 0.1599 0.0
Co827 Co 0.02877 0.79931 0.20971 0.0
O828 O 0.03517 0.8088 0.1759 0.0
C829 C 0.03378 0.78207 0.12503 0.0
O830 O 0.02512 0.77111 0.14387 0.0
C831 C 0.01585 0.84782 0.21083 0.0
O832 O 0.03588 0.85259 0.20168 0.0
O833 O 0.05619 0.81539 0.22248 0.0
O834 O 0.08057 0.81423 0.19073 0.0
H835 H 0.04768 0.767 0.2929 0.0
H836 H 0.02929 0.83416 0.13688 0.0
O837 O 0.0494 0.7966 0.1284 0.0
H838 H 0.09378 0.88529 0.15239 0.0
H839 H 0.11957 0.81379 0.08947 0.0
H840 H 0.10885 0.78555 0.17423 0.0
H841 H 0.09622 0.84478 0.16315 0.0
H842 H 0.08276 0.81815 0.11047 0.0
O843 O 0.01023 0.82732 0.21487 0.0
H844 H 0.05565 0.77883 0.25016 0.0
H845 H 0.98747 0.80035 0.24137 0.0
H846 H 0.14599 0.78099 0.154 0.0
H847 H 0.02618 0.87454 0.12564 0.0
H848 H 0.15153 0.79517 0.11131 0.0
H849 H 0.05857 0.90041 0.13345 0.0
O850 O 0.06663 0.77297 0.16976 0.0
H851 H 0.95768 0.79203 0.15942 0.0
H852 H 0.00929 0.75313 0.21698 0.0
H853 H 0.97612 0.73271 0.20058 0.0
H854 H 0.95001 0.75221 0.1716 0.0
H855 H 0.9912 0.81172 0.17608 0.0
H856 H 0.9788 0.78894 0.28409 0.0
H857 H 0.00901 0.77204 0.31013 0.0
O858 O 0.04699 0.77109 0.20522 0.0
C859 C 0.07579 0.81857 0.21315 0.0
C860 C 0.03435 0.77428 0.28172 0.0
C861 C 0.99571 0.78662 0.27678 0.0
N862 N 0.02201 0.79011 0.24323 0.0
C863 C 0.03875 0.78096 0.25748 0.0
C864 C 1.00073 0.7931 0.25262 0.0
C865 C 0.01266 0.77713 0.29138 0.0
C866 C 0.04352 0.84528 0.14013 0.0
N867 N 0.06295 0.8371 0.15052 0.0
C868 C 0.04164 0.86814 0.13381 0.0
C869 C 0.05981 0.88265 0.13823 0.0
C870 C 0.07956 0.87418 0.14887 0.0
C871 C 0.08082 0.85123 0.15497 0.0
C872 C 0.11738 0.80757 0.10809 0.0
C873 C 0.11116 0.79187 0.1557 0.0
C874 C 0.09656 0.80995 0.12005 0.0
N875 N 0.0937 0.80223 0.14361 0.0
C876 C 0.13221 0.78919 0.14432 0.0
C877 C 0.1353 0.79713 0.12035 0.0
C878 C 0.06001 0.76241 0.18898 0.0
C879 C 0.96892 0.78336 0.17205 0.0
C880 C 0.99811 0.76166 0.20426 0.0
C881 C 0.97929 0.75005 0.19511 0.0
C882 C 0.96464 0.76101 0.17887 0.0
N883 N 0.0022 0.78358 0.19748 0.0
C884 C 0.98789 0.79444 0.1816 0.0
Co885 Co 0.69543 0.06148 0.66185 0.0
Co886 Co 0.70199 0.02824 0.71417 0.0
O887 O 0.69484 0.03219 0.67899 0.0
C888 C 0.71992 0.02927 0.62709 0.0
O889 O 0.71991 0.01257 0.64303 0.0
C890 C 0.65534 0.01015 0.71034 0.0
O891 O 0.6502 0.02797 0.69698 0.0
O892 O 0.68249 0.05438 0.72403 0.0
O893 O 0.68032 0.07627 0.69035 0.0
H894 H 0.72549 0.05404 0.79867 0.0
H895 H 0.67499 0.02081 0.63829 0.0
O896 O 0.71083 0.04825 0.63223 0.0
H897 H 0.61409 0.07787 0.64017 0.0
H898 H 0.68747 0.11357 0.58876 0.0
H899 H 0.70604 0.10846 0.67723 0.0
H900 H 0.65204 0.08691 0.65631 0.0
H901 H 0.68631 0.07679 0.61026 0.0
O902 O 0.67546 0.00746 0.71829 0.0
H903 H 0.71639 0.05885 0.7546 0.0
H904 H 0.70269 0.98847 0.7481 0.0
H905 H 0.70718 0.14562 0.65649 0.0
H906 H 0.63742 0.01113 0.62167 0.0
H907 H 0.69787 0.14834 0.61193 0.0
H908 H 0.60659 0.03975 0.62261 0.0
O909 O 0.72586 0.06872 0.67578 0.0
H910 H 0.71909 0.95444 0.67187 0.0
H911 H 0.74958 0.01464 0.72543 0.0
H912 H 0.774 0.98247 0.71384 0.0
H913 H 0.75875 0.95203 0.68694 0.0
H914 H 0.69536 0.98711 0.6836 0.0
H915 H 0.71146 0.98294 0.79215 0.0
H916 H 0.72304 0.01586 0.81772 0.0
O917 O 0.7285 0.04887 0.711 0.0
C918 C 0.67601 0.07226 0.71292 0.0
C919 C 0.72052 0.03956 0.7877 0.0
C920 C 0.71262 0.99965 0.78405 0.0
N921 N 0.70916 0.02394 0.74876 0.0
C922 C 0.71541 0.04216 0.76273 0.0
C923 C 0.70762 0.0029 0.75913 0.0
C924 C 0.71912 0.01813 0.79839 0.0
C925 C 0.66182 0.03347 0.63849 0.0
N926 N 0.66585 0.05448 0.6481 0.0
C927 C 0.6405 0.02784 0.62917 0.0
C928 C 0.6232 0.04388 0.62975 0.0
C929 C 0.62739 0.06526 0.63961 0.0
C930 C 0.64891 0.07027 0.6488 0.0
C931 C 0.69152 0.11261 0.60819 0.0
C932 C 0.70181 0.10953 0.65787 0.0
C933 C 0.69095 0.09182 0.62046 0.0
N934 N 0.69593 0.0905 0.64504 0.0
C935 C 0.70255 0.13061 0.64621 0.0
C936 C 0.69735 0.13211 0.6212 0.0
C937 C 0.73624 0.06314 0.6955 0.0
C938 C 0.72592 0.96758 0.68363 0.0
C939 C 0.74288 0.00159 0.71352 0.0
C940 C 0.75675 0.98335 0.70712 0.0
C941 C 0.74818 0.96626 0.69206 0.0
N942 N 0.72106 0.00277 0.70517 0.0
C943 C 0.71253 0.98607 0.69043 0.0
C944 C 0.47874 0.13641 0.23585 0.0
C945 C 0.49394 0.13267 0.2163 0.0
C946 C 0.46396 0.11935 0.24347 0.0
C947 C 0.43493 0.06824 0.22249 0.0
H948 H 0.42756 0.05625 0.29238 0.0
C949 C 0.35976 0.01764 0.26227 0.0
C950 C 0.3646 0.00128 0.28035 0.0
C951 C 0.37656 0.03248 0.25409 0.0
C952 C 0.42957 0.05929 0.2728 0.0
H953 H 0.50531 0.10817 0.1892 0.0
H954 H 0.47914 0.07836 0.20238 0.0
H955 H 0.45523 0.08437 0.27867 0.0
H956 H 0.39084 0.98777 0.30417 0.0
H957 H 0.42019 0.01402 0.29004 0.0
H958 H 0.40903 0.04338 0.21665 0.0
C959 C 0.47882 0.09453 0.21181 0.0
C960 C 0.44525 0.0755 0.26497 0.0
C961 C 0.49383 0.11155 0.20434 0.0
C962 C 0.3866 1.00016 0.29018 0.0
C963 C 0.40337 0.01523 0.28218 0.0
C964 C 0.41906 0.05221 0.23034 0.0
C965 C 0.46385 0.09822 0.23157 0.0
C966 C 0.44797 0.08025 0.23975 0.0
C967 C 0.39852 0.03148 0.26398 0.0
C968 C 0.41611 0.04768 0.25559 0.0
H969 H 0.47839 0.15248 0.24549 0.0
H970 H 0.45242 0.12277 0.25854 0.0
H971 H 0.43658 0.07165 0.20295 0.0
H972 H 0.34299 0.01893 0.25428 0.0
H973 H 0.37226 0.04501 0.24026 0.0
C974 C 0.38721 0.50008 0.71651 0.0
C975 C 0.36492 0.49915 0.72553 0.0
C976 C 0.4034 0.48432 0.72438 0.0
C977 C 0.43755 0.45634 0.75341 0.0
H978 H 0.4183 0.3945 0.7651 0.0
C979 C 0.49742 0.38892 0.79593 0.0
C980 C 0.49582 0.36675 0.78666 0.0
C981 C 0.48156 0.40541 0.78908 0.0
C982 C 0.42407 0.41163 0.76172 0.0
H983 H 0.34226 0.48126 0.75028 0.0
H984 H 0.37049 0.4543 0.76444 0.0
H985 H 0.39092 0.42231 0.75108 0.0
H986 H 0.47644 0.3446 0.76268 0.0
H987 H 0.4493 0.3733 0.75033 0.0
H988 H 0.47093 0.44533 0.76314 0.0
C989 C 0.37543 0.46675 0.7508 0.0
C990 C 0.40824 0.42772 0.754 0.0
C991 C 0.35923 0.48232 0.74277 0.0
C992 C 0.47808 0.36145 0.77037 0.0
C993 C 0.46239 0.37793 0.76337 0.0
C994 C 0.45345 0.44016 0.76095 0.0
C995 C 0.3977 0.4674 0.7416 0.0
C996 C 0.41473 0.45031 0.74976 0.0
C997 C 0.46385 0.40013 0.77267 0.0
C998 C 0.44692 0.41757 0.76516 0.0
H999 H 0.3921 0.51278 0.70312 0.0
H1000 H 0.42028 0.48517 0.71662 0.0
H1001 H 0.44314 0.47361 0.75062 0.0
H1002 H 0.51084 0.39352 0.8086 0.0
H1003 H 0.48305 0.42223 0.79687 0.0
C1004 C 0.00215 0.38652 0.21678 0.0
C1005 C 0.00254 0.36476 0.22729 0.0
C1006 C 0.01747 0.40312 0.22458 0.0
C1007 C 0.05368 0.41973 0.27659 0.0
H1008 H 0.08783 0.45327 0.22761 0.0
C1009 C 0.11297 0.49534 0.30025 0.0
C1010 C 0.13453 0.49454 0.28928 0.0
C1011 C 0.09608 0.48003 0.29312 0.0
C1012 C 0.0784 0.44403 0.24148 0.0
H1013 H 0.01912 0.34344 0.25444 0.0
H1014 H 0.04564 0.37251 0.2682 0.0
H1015 H 0.05955 0.42556 0.21436 0.0
H1016 H 0.15524 0.47709 0.26219 0.0
H1017 H 0.12573 0.45065 0.24964 0.0
H1018 H 0.07263 0.43815 0.30371 0.0
C1019 C 0.0335 0.3767 0.25394 0.0
C1020 C 0.06211 0.42832 0.23391 0.0
C1021 C 0.01841 0.36002 0.24592 0.0
C1022 C 0.13883 0.47815 0.27106 0.0
C1023 C 0.12189 0.46309 0.26372 0.0
C1024 C 0.06976 0.43567 0.28417 0.0
C1025 C 0.03326 0.39839 0.24328 0.0
C1026 C 0.04976 0.41583 0.25137 0.0
C1027 C 0.10034 0.46387 0.27464 0.0
C1028 C 0.08246 0.44779 0.26669 0.0
H1029 H 0.99016 0.39067 0.20235 0.0
H1030 H 0.01684 0.41973 0.21614 0.0
H1031 H 0.04427 0.41045 0.29045 0.0
H1032 H 0.10915 0.50774 0.31437 0.0
H1033 H 0.07957 0.48105 0.30177 0.0
C1034 C 0.11254 0.00455 0.70864 0.0
C1035 C 0.13522 0.00657 0.71621 0.0
C1036 C 0.09651 0.02088 0.71552 0.0
C1037 C 0.09202 0.07996 0.73877 0.0
H1038 H 0.03111 0.06189 0.7568 0.0
C1039 C 0.00747 0.11997 0.7891 0.0
C1040 C 0.00736 0.14153 0.77812 0.0
C1041 C 0.02262 0.10328 0.78105 0.0
C1042 C 0.04811 0.06722 0.75204 0.0
H1043 H 0.15877 0.02724 0.73714 0.0
H1044 H 0.13091 0.05525 0.74948 0.0
H1045 H 0.05844 0.03323 0.74399 0.0
H1046 H 0.02283 0.16235 0.74978 0.0
H1047 H 0.04879 0.13324 0.73543 0.0
H1048 H 0.08204 0.11378 0.74761 0.0
C1049 C 0.1255 0.04141 0.73779 0.0
C1050 C 0.0637 0.0508 0.74435 0.0
C1051 C 0.14149 0.02522 0.73081 0.0
C1052 C 0.02259 0.14598 0.7588 0.0
C1053 C 0.03759 0.12929 0.75064 0.0
C1054 C 0.07651 0.09632 0.74657 0.0
C1055 C 0.1028 0.03952 0.7302 0.0
C1056 C 0.0859 0.05696 0.73771 0.0
C1057 C 0.0379 0.10775 0.76173 0.0
C1058 C 0.05434 0.09019 0.75334 0.0
H1059 H 0.10717 0.99043 0.69731 0.0
H1060 H 0.07925 0.01903 0.70909 0.0
H1061 H 0.10885 0.08541 0.73348 0.0
H1062 H 0.99601 0.11603 0.8041 0.0
H1063 H 0.02259 0.08701 0.79026 0.0
C1064 C 0.52125 0.85815 0.7629 0.0
C1065 C 0.50437 0.86434 0.7799 0.0
C1066 C 0.53701 0.87405 0.75459 0.0
C1067 C 0.57628 0.90663 0.75104 0.0
H1068 H 0.5588 0.96902 0.73942 0.0
C1069 C 0.6426 0.97629 0.73432 0.0
C1070 C 0.63771 0.99341 0.71711 0.0
C1071 C 0.62603 0.96071 0.74131 0.0
C1072 C 0.56392 0.95161 0.74232 0.0
H1073 H 0.4909 0.89209 0.80162 0.0
H1074 H 0.51878 0.91975 0.78755 0.0
H1075 H 0.53033 0.9416 0.75246 0.0
H1076 H 0.61156 0.00743 0.69356 0.0
H1077 H 0.58266 0.97987 0.70541 0.0
H1078 H 0.60969 0.9164 0.74026 0.0
C1079 C 0.51954 0.9027 0.78023 0.0
C1080 C 0.54765 0.93594 0.75014 0.0
C1081 C 0.50363 0.88681 0.78842 0.0
C1082 C 0.61585 0.9945 0.70693 0.0
C1083 C 0.59925 0.97878 0.71384 0.0
C1084 C 0.59249 0.92223 0.7431 0.0
C1085 C 0.53646 0.89651 0.76322 0.0
C1086 C 0.55365 0.91325 0.75469 0.0
C1087 C 0.60414 0.9617 0.73116 0.0
C1088 C 0.58658 0.94497 0.73879 0.0
H1089 H 0.5222 0.84103 0.75579 0.0
H1090 H 0.54951 0.86873 0.74117 0.0
H1091 H 0.58162 0.88939 0.75463 0.0
H1092 H 0.65921 0.97502 0.74269 0.0
H1093 H 0.63033 0.94809 0.75503 0.0
C1094 C 0.50325 0.61345 0.20937 0.0
C1095 C 0.50442 0.63584 0.2181 0.0
C1096 C 0.51914 0.59731 0.21702 0.0
C1097 C 0.57622 0.59228 0.24542 0.0
H1098 H 0.55748 0.53042 0.25801 0.0
C1099 C 0.61347 0.50476 0.29238 0.0
C1100 C 0.63559 0.50527 0.28282 0.0
C1101 C 0.59729 0.52052 0.28451 0.0
C1102 C 0.56297 0.54767 0.25482 0.0
H1103 H 0.52308 0.65875 0.2419 0.0
H1104 H 0.55034 0.63063 0.25558 0.0
H1105 H 0.52958 0.55823 0.24456 0.0
H1106 H 0.65799 0.52257 0.25729 0.0
H1107 H 0.62978 0.5496 0.24324 0.0
H1108 H 0.6094 0.58199 0.25643 0.0
C1109 C 0.53752 0.62557 0.24241 0.0
C1110 C 0.54701 0.56356 0.24675 0.0
C1111 C 0.52177 0.64171 0.23464 0.0
C1112 C 0.64115 0.5218 0.2652 0.0
C1113 C 0.62497 0.53742 0.25721 0.0
C1114 C 0.59211 0.57645 0.25361 0.0
C1115 C 0.53647 0.60316 0.23367 0.0
C1116 C 0.55343 0.58608 0.24195 0.0
C1117 C 0.60284 0.53705 0.2668 0.0
C1118 C 0.58573 0.55392 0.25837 0.0
H1119 H 0.49014 0.60841 0.19652 0.0
H1120 H 0.51799 0.58031 0.20964 0.0
H1121 H 0.58188 0.60937 0.24162 0.0
H1122 H 0.60868 0.4923 0.30608 0.0
H1123 H 0.58052 0.51992 0.29257 0.0
C1124 C 0.9999 0.61489 0.78823 0.0
C1125 C 0.99867 0.63715 0.77917 0.0
C1126 C 0.98426 0.59852 0.78054 0.0
C1127 C 0.92748 0.5932 0.75149 0.0
H1128 H 0.94542 0.53062 0.74215 0.0
C1129 C 0.88867 0.50431 0.70921 0.0
C1130 C 0.86648 0.50606 0.71839 0.0
C1131 C 0.90529 0.51993 0.71634 0.0
C1132 C 0.94017 0.54807 0.74441 0.0
H1133 H 0.98038 0.65956 0.75448 0.0
H1134 H 0.95364 0.63104 0.74062 0.0
H1135 H 0.97363 0.55858 0.75447 0.0
H1136 H 0.84448 0.52527 0.74272 0.0
H1137 H 0.87339 0.55194 0.75557 0.0
H1138 H 0.89427 0.58299 0.74064 0.0
C1139 C 0.96622 0.62625 0.75418 0.0
C1140 C 0.9563 0.56406 0.75183 0.0
C1141 C 0.98167 0.64262 0.76204 0.0
C1142 C 0.86134 0.52356 0.73505 0.0
C1143 C 0.87794 0.53898 0.74234 0.0
C1144 C 0.91145 0.5773 0.7439 0.0
C1145 C 0.96716 0.60402 0.76345 0.0
C1146 C 0.95014 0.58685 0.75552 0.0
C1147 C 0.9001 0.53752 0.73295 0.0
C1148 C 0.91751 0.55448 0.7404 0.0
H1149 H 0.01276 0.61017 0.80152 0.0
H1150 H 0.98534 0.58167 0.78833 0.0
H1151 H 0.92198 0.61049 0.75446 0.0
H1152 H 0.89314 0.49105 0.69628 0.0
H1153 H 0.9221 0.51843 0.70851 0.0
C1154 C 0.89338 0.00445 0.28103 0.0
C1155 C 0.87065 0.99766 0.28325 0.0
C1156 C 0.90991 0.98911 0.27297 0.0
C1157 C 0.91533 0.93477 0.23892 0.0
H1158 H 0.97622 0.93425 0.2657 0.0
C1159 C 0.97721 0.8609 0.22322 0.0
C1160 C 0.9998 0.86615 0.21737 0.0
C1161 C 0.9621 0.8779 0.23027 0.0
C1162 C 0.95934 0.93439 0.25786 0.0
H1163 H 0.84764 0.96918 0.2798 0.0
H1164 H 0.8764 0.94243 0.26649 0.0
H1165 H 0.94869 0.96186 0.28093 0.0
H1166 H 0.02423 0.89343 0.21422 0.0
H1167 H 0.99773 0.92322 0.2268 0.0
H1168 H 0.92583 0.90698 0.21628 0.0
C1169 C 0.88145 0.95973 0.2702 0.0
C1170 C 0.94357 0.95021 0.26656 0.0
C1171 C 0.86495 0.97506 0.27804 0.0
C1172 C 0.00692 0.88885 0.21857 0.0
C1173 C 0.99181 0.90588 0.22591 0.0
C1174 C 0.93101 0.91888 0.2304 0.0
C1175 C 0.90407 0.96662 0.26711 0.0
C1176 C 0.92127 0.95043 0.25738 0.0
C1177 C 0.96925 0.90055 0.23184 0.0
C1178 C 0.95311 0.91836 0.23993 0.0
H1179 H 0.89831 0.02177 0.28484 0.0
H1180 H 0.92713 0.99507 0.27066 0.0
H1181 H 0.89851 0.93478 0.23094 0.0
H1182 H 0.97115 0.84359 0.22247 0.0
H1183 H 0.94489 0.87324 0.23496 0.0
C1184 C 0.58799 0.2641 0.18192 0.0
C1185 C 0.57476 0.25262 0.19956 0.0
C1186 C 0.59992 0.28377 0.18839 0.0
C1187 C 0.62807 0.30903 0.2402 0.0
H1188 H 0.61686 0.36863 0.21268 0.0
C1189 C 0.65515 0.38821 0.29203 0.0
C1190 C 0.66368 0.407 0.27911 0.0
C1191 C 0.64559 0.36999 0.27952 0.0
C1192 C 0.62052 0.35205 0.22023 0.0
H1193 H 0.56345 0.25319 0.23771 0.0
H1194 H 0.58467 0.28689 0.24892 0.0
H1195 H 0.59789 0.33538 0.19499 0.0
H1196 H 0.66857 0.42135 0.24266 0.0
H1197 H 0.65211 0.38908 0.22064 0.0
H1198 H 0.65063 0.32523 0.26534 0.0
C1199 C 0.58565 0.28075 0.23012 0.0
C1200 C 0.60963 0.33309 0.21013 0.0
C1201 C 0.57347 0.26145 0.22361 0.0
C1202 C 0.6621 0.40719 0.25321 0.0
C1203 C 0.65262 0.38873 0.24059 0.0
C1204 C 0.63914 0.32781 0.25004 0.0
C1205 C 0.59912 0.29195 0.21267 0.0
C1206 C 0.61286 0.31156 0.22056 0.0
C1207 C 0.64452 0.36978 0.25364 0.0
C1208 C 0.63493 0.34967 0.24076 0.0
H1209 H 0.58927 0.2578 0.16322 0.0
H1210 H 0.61025 0.29219 0.17467 0.0
H1211 H 0.63101 0.29252 0.24832 0.0
H1212 H 0.65594 0.38739 0.31195 0.0
H1213 H 0.63897 0.35601 0.29026 0.0
C1214 C 0.22884 0.56709 0.70947 0.0
C1215 C 0.2443 0.57522 0.69183 0.0
C1216 C 0.2084 0.57835 0.71369 0.0
C1217 C 0.18484 0.63494 0.71207 0.0
H1218 H 0.12803 0.60442 0.72587 0.0
C1219 C 0.11714 0.67048 0.77717 0.0
C1220 C 0.09428 0.66943 0.77001 0.0
C1221 C 0.13392 0.66023 0.76293 0.0
C1222 C 0.14367 0.61321 0.72173 0.0
H1223 H 0.24994 0.6012 0.66418 0.0
H1224 H 0.21431 0.62108 0.67193 0.0
H1225 H 0.1598 0.58299 0.70855 0.0
H1226 H 0.07112 0.6569 0.74213 0.0
H1227 H 0.10065 0.63839 0.71741 0.0
H1228 H 0.16906 0.66492 0.72625 0.0
C1229 C 0.21809 0.60591 0.68238 0.0
C1230 C 0.16188 0.60094 0.712 0.0
C1231 C 0.23845 0.59446 0.67791 0.0
C1232 C 0.0886 0.65806 0.74808 0.0
C1233 C 0.10543 0.64742 0.734 0.0
C1234 C 0.16675 0.64712 0.72208 0.0
C1235 C 0.20303 0.59815 0.70058 0.0
C1236 C 0.18279 0.61159 0.70756 0.0
C1237 C 0.12824 0.6484 0.74136 0.0
C1238 C 0.14617 0.63627 0.72751 0.0
H1239 H 0.23274 0.55235 0.72055 0.0
H1240 H 0.19725 0.57211 0.72803 0.0
H1241 H 0.20079 0.64356 0.70903 0.0
H1242 H 0.12213 0.67915 0.79391 0.0
H1243 H 0.15133 0.66103 0.7692 0.0
C1244 C 0.84739 0.08633 0.24647 0.0
C1245 C 0.8335 0.0923 0.26651 0.0
C1246 C 0.85802 0.10315 0.23235 0.0
C1247 C 0.89056 0.14263 0.22093 0.0
H1248 H 0.8591 0.19814 0.20376 0.0
C1249 C 0.93493 0.2287 0.21092 0.0
C1250 C 0.92753 0.24397 0.1927 0.0
C1251 C 0.92387 0.20807 0.21445 0.0
C1252 C 0.86809 0.18263 0.20802 0.0
H1253 H 0.81916 0.1206 0.28678 0.0
H1254 H 0.8374 0.14968 0.26216 0.0
H1255 H 0.8377 0.16587 0.21949 0.0
H1256 H 0.90303 0.24907 0.16338 0.0
H1257 H 0.88355 0.21301 0.1698 0.0
H1258 H 0.92107 0.1597 0.21028 0.0
C1259 C 0.84014 0.13208 0.25731 0.0
C1260 C 0.85585 0.16422 0.21722 0.0
C1261 C 0.82983 0.11537 0.27156 0.0
C1262 C 0.90919 0.23774 0.17759 0.0
C1263 C 0.89796 0.21713 0.18131 0.0
C1264 C 0.90284 0.16112 0.21191 0.0
C1265 C 0.85459 0.1262 0.23777 0.0
C1266 C 0.86703 0.14425 0.22438 0.0
C1267 C 0.90501 0.20222 0.2 0.0
C1268 C 0.8918 0.18152 0.20596 0.0
H1269 H 0.85059 0.0687 0.24215 0.0
H1270 H 0.86904 0.09815 0.21735 0.0
H1271 H 0.89964 0.1275 0.22641 0.0
H1272 H 0.94897 0.23287 0.22293 0.0
H1273 H 0.92953 0.1971 0.22923 0.0
C1274 C 0.26904 0.93448 0.71468 0.0
C1275 C 0.25715 0.92883 0.69307 0.0
C1276 C 0.28999 0.92467 0.71981 0.0
C1277 C 0.32462 0.87433 0.70629 0.0
H1278 H 0.36959 0.90846 0.74285 0.0
C1279 C 0.40825 0.83612 0.74746 0.0
C1280 C 0.40948 0.83973 0.77308 0.0
C1281 C 0.39202 0.84755 0.73321 0.0
C1282 C 0.35727 0.89878 0.73245 0.0
H1283 H 0.25836 0.90863 0.65966 0.0
H1284 H 0.29526 0.89164 0.66858 0.0
H1285 H 0.33701 0.92802 0.72527 0.0
H1286 H 0.39473 0.85839 0.80362 0.0
H1287 H 0.36716 0.87855 0.77884 0.0
H1288 H 0.34498 0.845 0.71399 0.0
C1289 C 0.28812 0.90355 0.68164 0.0
C1290 C 0.33854 0.90992 0.72251 0.0
C1291 C 0.26703 0.91338 0.67647 0.0
C1292 C 0.39439 0.85519 0.784 0.0
C1293 C 0.37861 0.86686 0.76978 0.0
C1294 C 0.34358 0.8632 0.71604 0.0
C1295 C 0.29979 0.90899 0.70347 0.0
C1296 C 0.32152 0.89772 0.71014 0.0
C1297 C 0.37719 0.86314 0.7443 0.0
C1298 C 0.35962 0.87524 0.72994 0.0
H1299 H 0.26202 0.9462 0.728 0.0
H1300 H 0.29819 0.92894 0.73706 0.0
H1301 H 0.31181 0.86438 0.69698 0.0
H1302 H 0.41955 0.82423 0.7385 0.0
H1303 H 0.39116 0.84437 0.71356 0.0
C1304 C 0.57035 0.23448 0.78215 0.0
C1305 C 0.57267 0.2437 0.80594 0.0
C1306 C 0.58175 0.21471 0.77563 0.0
C1307 C 0.60733 0.16259 0.79589 0.0
H1308 H 0.64539 0.17024 0.73821 0.0
C1309 C 0.66262 0.09021 0.75263 0.0
C1310 C 0.66323 0.08983 0.72668 0.0
C1311 C 0.65207 0.10818 0.76514 0.0
C1312 C 0.6347 0.1677 0.7542 0.0
H1313 H 0.58797 0.23855 0.84192 0.0
H1314 H 0.60766 0.20345 0.83041 0.0
H1315 H 0.6254 0.2027 0.75517 0.0
H1316 H 0.65226 0.10756 0.6937 0.0
H1317 H 0.63351 0.13801 0.71521 0.0
H1318 H 0.61597 0.12728 0.79424 0.0
C1319 C 0.59708 0.21188 0.81691 0.0
C1320 C 0.62338 0.18634 0.76397 0.0
C1321 C 0.58586 0.23196 0.82342 0.0
C1322 C 0.65237 0.10729 0.71363 0.0
C1323 C 0.64175 0.12497 0.72603 0.0
C1324 C 0.61851 0.14373 0.78587 0.0
C1325 C 0.59552 0.20346 0.79277 0.0
C1326 C 0.60922 0.18389 0.78454 0.0
C1327 C 0.64191 0.126 0.7519 0.0
C1328 C 0.63186 0.14602 0.7645 0.0
H1329 H 0.56026 0.24286 0.7682 0.0
H1330 H 0.58013 0.20838 0.75696 0.0
H1331 H 0.59647 0.16037 0.8118 0.0
H1332 H 0.67086 0.07704 0.76325 0.0
H1333 H 0.65248 0.10847 0.78509 0.0
C1334 C 0.39088 0.6498 0.21602 0.0
C1335 C 0.40843 0.66195 0.22753 0.0
C1336 C 0.37524 0.63763 0.22994 0.0
C1337 C 0.34465 0.63578 0.28629 0.0
H1338 H 0.33554 0.57237 0.27043 0.0
C1339 C 0.2693 0.58408 0.32615 0.0
C1340 C 0.25815 0.57007 0.30902 0.0
C1341 C 0.29024 0.59394 0.32033 0.0
C1342 C 0.33775 0.59008 0.27503 0.0
H1343 H 0.42282 0.67132 0.26292 0.0
H1344 H 0.39467 0.65044 0.28742 0.0
H1345 H 0.3674 0.59279 0.25246 0.0
H1346 H 0.26054 0.55534 0.27239 0.0
H1347 H 0.29632 0.57278 0.26218 0.0
H1348 H 0.31416 0.63357 0.30757 0.0
C1349 C 0.39355 0.65014 0.26749 0.0
C1350 C 0.35611 0.60167 0.26489 0.0
C1351 C 0.40962 0.662 0.25347 0.0
C1352 C 0.26858 0.56592 0.28615 0.0
C1353 C 0.28933 0.57581 0.28034 0.0
C1354 C 0.32602 0.62425 0.29621 0.0
C1355 C 0.37641 0.63766 0.25575 0.0
C1356 C 0.35937 0.62475 0.26991 0.0
C1357 C 0.30043 0.59003 0.29726 0.0
C1358 C 0.32196 0.60142 0.29005 0.0
H1359 H 0.38919 0.6495 0.19618 0.0
H1360 H 0.36197 0.62837 0.22051 0.0
H1361 H 0.3468 0.65364 0.29027 0.0
H1362 H 0.26178 0.58764 0.34395 0.0
H1363 H 0.29839 0.60466 0.33388 0.0
C1364 C 0.82923 0.38783 0.72341 0.0
C1365 C 0.83119 0.41071 0.73027 0.0
C1366 C 0.8395 0.37087 0.73735 0.0
C1367 C 0.88777 0.36065 0.77704 0.0
H1368 H 0.85784 0.30321 0.78914 0.0
C1369 C 0.90802 0.26555 0.81919 0.0
C1370 C 0.92771 0.26052 0.80563 0.0
C1371 C 0.89594 0.28554 0.81471 0.0
C1372 C 0.86636 0.31924 0.78626 0.0
H1373 H 0.84523 0.43368 0.75747 0.0
H1374 H 0.86368 0.40383 0.78172 0.0
H1375 H 0.83608 0.33517 0.7731 0.0
H1376 H 0.9505 0.27305 0.77731 0.0
H1377 H 0.92956 0.30779 0.7697 0.0
H1378 H 0.91824 0.34446 0.78937 0.0
C1379 C 0.85399 0.39917 0.76554 0.0
C1380 C 0.85394 0.33747 0.77691 0.0
C1381 C 0.84337 0.41621 0.75173 0.0
C1382 C 0.93541 0.27629 0.78809 0.0
C1383 C 0.92349 0.29634 0.78383 0.0
C1384 C 0.90025 0.34234 0.78617 0.0
C1385 C 0.85223 0.37634 0.75838 0.0
C1386 C 0.86463 0.35819 0.77166 0.0
C1387 C 0.90346 0.30104 0.79682 0.0
C1388 C 0.88978 0.32129 0.79035 0.0
H1389 H 0.81991 0.38295 0.70705 0.0
H1390 H 0.83808 0.35347 0.73118 0.0
H1391 H 0.89647 0.37638 0.77305 0.0
H1392 H 0.90158 0.25379 0.83283 0.0
H1393 H 0.88059 0.28878 0.82508 0.0
C1394 C 0.08961 0.83891 0.25129 0.0
C1395 C 0.09407 0.8286 0.22839 0.0
C1396 C 0.10693 0.85017 0.26411 0.0
C1397 C 0.15148 0.86407 0.29124 0.0
H1398 H 0.18832 0.90204 0.24885 0.0
C1399 C 0.23848 0.90374 0.31884 0.0
C1400 C 0.24362 0.92516 0.30893 0.0
C1401 C 0.21822 0.89277 0.31256 0.0
C1402 C 0.17807 0.89177 0.26107 0.0
H1403 H 0.12062 0.82084 0.20192 0.0
H1404 H 0.15041 0.84013 0.22417 0.0
H1405 H 0.15702 0.88088 0.23138 0.0
H1406 H 0.23063 0.95255 0.28628 0.0
H1407 H 0.19542 0.93376 0.27584 0.0
H1408 H 0.17282 0.87515 0.321 0.0
C1409 C 0.13352 0.84001 0.232 0.0
C1410 C 0.16027 0.87941 0.25097 0.0
C1411 C 0.11637 0.82887 0.21926 0.0
C1412 C 0.22745 0.93593 0.29395 0.0
C1413 C 0.20725 0.92511 0.28787 0.0
C1414 C 0.16949 0.87646 0.30142 0.0
C1415 C 0.12892 0.85129 0.25421 0.0
C1416 C 0.14693 0.86521 0.26582 0.0
C1417 C 0.20272 0.9031 0.29637 0.0
C1418 C 0.18301 0.8904 0.28637 0.0
H1419 H 0.07264 0.83894 0.25888 0.0
H1420 H 0.10293 0.85874 0.28123 0.0
H1421 H 0.14148 0.85321 0.3031 0.0
H1422 H 0.25056 0.89498 0.33047 0.0
H1423 H 0.21525 0.87578 0.31935 0.0
C1424 C 0.33283 0.61806 0.7235 0.0
C1425 C 0.33246 0.59562 0.73219 0.0
C1426 C 0.3421 0.63538 0.73776 0.0
C1427 C 0.3846 0.64646 0.78434 0.0
H1428 H 0.355 0.70504 0.78848 0.0
C1429 C 0.40177 0.74338 0.82335 0.0
C1430 C 0.42283 0.74747 0.81204 0.0
C1431 C 0.38997 0.72324 0.81871 0.0
C1432 C 0.36335 0.68871 0.78786 0.0
H1433 H 0.34153 0.57383 0.76285 0.0
H1434 H 0.35833 0.60427 0.78765 0.0
H1435 H 0.33477 0.67285 0.7707 0.0
H1436 H 0.44838 0.73305 0.78789 0.0
H1437 H 0.42801 0.69804 0.78014 0.0
H1438 H 0.41352 0.66258 0.80058 0.0
C1439 C 0.35118 0.60831 0.7698 0.0
C1440 C 0.35184 0.67034 0.77751 0.0
C1441 C 0.34152 0.59094 0.75564 0.0
C1442 C 0.43221 0.73055 0.79689 0.0
C1443 C 0.4206 0.71036 0.79256 0.0
C1444 C 0.39621 0.66492 0.79445 0.0
C1445 C 0.35152 0.6307 0.76097 0.0
C1446 C 0.36253 0.64918 0.77511 0.0
C1447 C 0.39916 0.70665 0.80302 0.0
C1448 C 0.38588 0.68635 0.79579 0.0
H1449 H 0.32596 0.62234 0.70558 0.0
H1450 H 0.34241 0.6524 0.73032 0.0
H1451 H 0.39328 0.63037 0.78262 0.0
H1452 H 0.39403 0.75606 0.83508 0.0
H1453 H 0.3735 0.72077 0.82709 0.0
C1454 C 0.9079 0.33549 0.25707 0.0
C1455 C 0.90658 0.33346 0.23124 0.0
C1456 C 0.88983 0.34481 0.2705 0.0
C1457 C 0.82833 0.35693 0.26456 0.0
H1458 H 0.83824 0.40242 0.31505 0.0
C1459 C 0.76529 0.42676 0.28699 0.0
C1460 C 0.75478 0.42517 0.31023 0.0
C1461 C 0.78465 0.41418 0.2817 0.0
C1462 C 0.83532 0.38944 0.30128 0.0
H1463 H 0.88519 0.34 0.19939 0.0
H1464 H 0.85434 0.3564 0.2225 0.0
H1465 H 0.87077 0.38226 0.29717 0.0
H1466 H 0.75717 0.40977 0.3465 0.0
H1467 H 0.79163 0.38797 0.33713 0.0
H1468 H 0.7931 0.36508 0.26763 0.0
C1469 C 0.86902 0.35039 0.23255 0.0
C1470 C 0.85386 0.3779 0.29107 0.0
C1471 C 0.88691 0.34113 0.21923 0.0
C1472 C 0.76478 0.41136 0.32841 0.0
C1473 C 0.78447 0.39894 0.32314 0.0
C1474 C 0.80996 0.36858 0.27455 0.0
C1475 C 0.87009 0.35217 0.25835 0.0
C1476 C 0.85058 0.36202 0.27202 0.0
C1477 C 0.7942 0.39997 0.29956 0.0
C1478 C 0.81335 0.38529 0.29251 0.0
H1479 H 0.92278 0.32973 0.26693 0.0
H1480 H 0.89115 0.34593 0.29037 0.0
H1481 H 0.82515 0.34442 0.25037 0.0
H1482 H 0.75824 0.43723 0.27251 0.0
H1483 H 0.79198 0.41523 0.26342 0.0
C1484 C 0.06641 0.77346 0.79133 0.0
C1485 C 0.07453 0.7586 0.80957 0.0
C1486 C 0.07732 0.79401 0.78676 0.0
C1487 C 0.13338 0.81909 0.78948 0.0
H1488 H 0.10169 0.87453 0.77251 0.0
C1489 C 0.16964 0.88596 0.72395 0.0
C1490 C 0.16728 0.90901 0.72998 0.0
C1491 C 0.15935 0.8693 0.73831 0.0
C1492 C 0.11081 0.85928 0.77754 0.0
H1493 H 0.10014 0.75415 0.83789 0.0
H1494 H 0.11937 0.79 0.8296 0.0
H1495 H 0.08064 0.84265 0.79006 0.0
H1496 H 0.1524 0.93261 0.756 0.0
H1497 H 0.13391 0.90326 0.78094 0.0
H1498 H 0.16337 0.83537 0.77609 0.0
C1499 C 0.1045 0.78565 0.8189 0.0
C1500 C 0.09875 0.841 0.7874 0.0
C1501 C 0.09341 0.76516 0.82369 0.0
C1502 C 0.15458 0.91499 0.75093 0.0
C1503 C 0.14394 0.89825 0.76513 0.0
C1504 C 0.14537 0.83725 0.7794 0.0
C1505 C 0.09675 0.80012 0.80013 0.0
C1506 C 0.10984 0.82055 0.79296 0.0
C1507 C 0.14622 0.87525 0.75889 0.0
C1508 C 0.13412 0.85734 0.7728 0.0
H1509 H 0.05193 0.76901 0.78007 0.0
H1510 H 0.07111 0.80467 0.77197 0.0
H1511 H 0.14237 0.8035 0.79341 0.0
H1512 H 0.17936 0.88072 0.70801 0.0
H1513 H 0.16117 0.85174 0.73287 0.0
C1514 C 0.59029 0.15809 0.24959 0.0
C1515 C 0.58884 0.15713 0.22371 0.0
C1516 C 0.6072 0.14606 0.26212 0.0
C1517 C 0.64528 0.09736 0.25648 0.0
H1518 H 0.6864 0.13056 0.2989 0.0
C1519 C 0.73397 0.06391 0.27888 0.0
C1520 C 0.74412 0.06896 0.30168 0.0
C1521 C 0.71297 0.07307 0.27261 0.0
C1522 C 0.67484 0.12085 0.28757 0.0
H1523 H 0.60377 0.14238 0.19085 0.0
H1524 H 0.63275 0.12109 0.21272 0.0
H1525 H 0.6529 0.14943 0.28229 0.0
H1526 H 0.73964 0.08713 0.33612 0.0
H1527 H 0.70261 0.1027 0.32537 0.0
H1528 H 0.66698 0.06879 0.26161 0.0
C1529 C 0.6209 0.13122 0.22327 0.0
C1530 C 0.65569 0.13172 0.27801 0.0
C1531 C 0.60434 0.14353 0.21074 0.0
C1532 C 0.73237 0.08294 0.31836 0.0
C1533 C 0.7112 0.09199 0.31213 0.0
C1534 C 0.66421 0.0864 0.26629 0.0
C1535 C 0.62262 0.1325 0.24904 0.0
C1536 C 0.64109 0.12024 0.26185 0.0
C1537 C 0.70134 0.08737 0.28903 0.0
C1538 C 0.67962 0.09818 0.28137 0.0
H1539 H 0.57868 0.16849 0.26012 0.0
H1540 H 0.6082 0.1473 0.28202 0.0
H1541 H 0.63409 0.08805 0.24432 0.0
H1542 H 0.74247 0.05329 0.26547 0.0
H1543 H 0.70622 0.06944 0.25447 0.0
C1544 C 0.40741 0.76378 0.17658 0.0
C1545 C 0.42409 0.7552 0.19262 0.0
C1546 C 0.3971 0.78476 0.18132 0.0
C1547 C 0.40445 0.83727 0.21867 0.0
H1548 H 0.33898 0.84167 0.21529 0.0
C1549 C 0.35255 0.89429 0.28179 0.0
C1550 C 0.3359 0.90842 0.27149 0.0
C1551 C 0.36369 0.87826 0.26739 0.0
C1552 C 0.3573 0.84083 0.21587 0.0
H1553 H 0.44298 0.7622 0.22617 0.0
H1554 H 0.42501 0.79813 0.23443 0.0
H1555 H 0.35809 0.80824 0.19844 0.0
H1556 H 0.31779 0.91668 0.23788 0.0
H1557 H 0.33703 0.88785 0.21266 0.0
H1558 H 0.40353 0.86917 0.23743 0.0
C1559 C 0.42012 0.78902 0.21793 0.0
C1560 C 0.36827 0.82172 0.20621 0.0
C1561 C 0.43035 0.7682 0.21325 0.0
C1562 C 0.33063 0.9061 0.24631 0.0
C1563 C 0.34153 0.88961 0.23192 0.0
C1564 C 0.39351 0.85616 0.22851 0.0
C1565 C 0.40334 0.7976 0.2021 0.0
C1566 C 0.39193 0.81938 0.2083 0.0
C1567 C 0.35825 0.87564 0.24238 0.0
C1568 C 0.3698 0.85778 0.2279 0.0
H1569 H 0.40215 0.75422 0.16053 0.0
H1570 H 0.38429 0.79093 0.16871 0.0
H1571 H 0.42273 0.8363 0.22001 0.0
H1572 H 0.35711 0.89564 0.30104 0.0
H1573 H 0.37634 0.86753 0.27597 0.0
C1574 C 0.73465 0.41356 0.68124 0.0
C1575 C 0.74209 0.43322 0.69346 0.0
C1576 C 0.71442 0.40295 0.68827 0.0
C1577 C 0.67851 0.39793 0.74339 0.0
H1578 H 0.63742 0.3654 0.70028 0.0
C1579 C 0.58862 0.34685 0.75285 0.0
C1580 C 0.59365 0.33459 0.77442 0.0
C1581 C 0.60567 0.35891 0.74051 0.0
C1582 C 0.64866 0.37458 0.7125 0.0
H1583 H 0.73317 0.45803 0.72138 0.0
H1584 H 0.69787 0.44003 0.733 0.0
H1585 H 0.66825 0.38798 0.68249 0.0
H1586 H 0.62086 0.32435 0.79901 0.0
H1587 H 0.65027 0.34494 0.77748 0.0
H1588 H 0.65907 0.38486 0.77333 0.0
C1589 C 0.70793 0.43236 0.71853 0.0
C1590 C 0.66641 0.38733 0.70234 0.0
C1591 C 0.72817 0.44279 0.71172 0.0
C1592 C 0.61621 0.33387 0.7827 0.0
C1593 C 0.63313 0.34578 0.7704 0.0
C1594 C 0.6609 0.38527 0.75346 0.0
C1595 C 0.70119 0.41189 0.70753 0.0
C1596 C 0.6816 0.39908 0.71772 0.0
C1597 C 0.62802 0.35889 0.74953 0.0
C1598 C 0.64593 0.37319 0.73821 0.0
H1599 H 0.74495 0.40574 0.66707 0.0
H1600 H 0.70978 0.38715 0.67948 0.0
H1601 H 0.69005 0.40643 0.75585 0.0
H1602 H 0.57142 0.3477 0.74594 0.0
H1603 H 0.60121 0.36888 0.72447 0.0
C1604 C 0.15484 0.58646 0.25596 0.0
C1605 C 0.16605 0.59138 0.27822 0.0
C1606 C 0.14271 0.60338 0.2435 0.0
C1607 C 0.11463 0.65807 0.25594 0.0
H1608 H 0.11467 0.66564 0.18494 0.0
C1609 C 0.05885 0.72569 0.21192 0.0
C1610 C 0.06902 0.73941 0.19388 0.0
C1611 C 0.06892 0.7054 0.2192 0.0
C1612 C 0.11455 0.66376 0.2048 0.0
H1613 H 0.1742 0.61827 0.3041 0.0
H1614 H 0.15357 0.64751 0.28233 0.0
H1615 H 0.13688 0.63507 0.20362 0.0
H1616 H 0.09722 0.74185 0.16836 0.0
H1617 H 0.11522 0.70669 0.18164 0.0
H1618 H 0.09316 0.68704 0.25747 0.0
C1619 C 0.15357 0.63053 0.27478 0.0
C1620 C 0.12709 0.64613 0.21547 0.0
C1621 C 0.16553 0.61372 0.28722 0.0
C1622 C 0.08893 0.73172 0.18234 0.0
C1623 C 0.09921 0.71148 0.18988 0.0
C1624 C 0.10222 0.67562 0.24535 0.0
C1625 C 0.14161 0.62551 0.25307 0.0
C1626 C 0.12749 0.6433 0.24121 0.0
C1627 C 0.08965 0.69843 0.20894 0.0
C1628 C 0.10208 0.67882 0.21967 0.0
H1629 H 0.15494 0.56944 0.2485 0.0
H1630 H 0.13362 0.59897 0.22684 0.0
H1631 H 0.11424 0.65616 0.2758 0.0
H1632 H 0.04339 0.7309 0.22103 0.0
H1633 H 0.06076 0.69548 0.23346 0.0
C1634 C 0.89854 0.15108 0.7894 0.0
C1635 C 0.91289 0.1659 0.77646 0.0
C1636 C 0.88169 0.13898 0.7771 0.0
C1637 C 0.84428 0.14072 0.72422 0.0
H1638 H 0.83601 0.07686 0.7383 0.0
C1639 C 0.76874 0.08903 0.68465 0.0
C1640 C 0.75832 0.07396 0.70125 0.0
C1641 C 0.78936 0.09943 0.69066 0.0
C1642 C 0.83795 0.09473 0.73429 0.0
H1643 H 0.92065 0.17971 0.74035 0.0
H1644 H 0.89067 0.15877 0.71889 0.0
H1645 H 0.8689 0.09666 0.75474 0.0
H1646 H 0.76153 0.05815 0.73726 0.0
H1647 H 0.79683 0.07649 0.7478 0.0
H1648 H 0.81279 0.13908 0.70469 0.0
C1649 C 0.89276 0.15647 0.73857 0.0
C1650 C 0.85686 0.10601 0.74361 0.0
C1651 C 0.90995 0.16834 0.75084 0.0
C1652 C 0.76905 0.06951 0.72389 0.0
C1653 C 0.78949 0.07993 0.7299 0.0
C1654 C 0.82516 0.12947 0.71507 0.0
C1655 C 0.87853 0.14162 0.75162 0.0
C1656 C 0.85997 0.12922 0.73913 0.0
C1657 C 0.79997 0.09501 0.7134 0.0
C1658 C 0.82149 0.10644 0.72051 0.0
H1659 H 0.90025 0.14877 0.8091 0.0
H1660 H 0.87078 0.12787 0.78767 0.0
H1661 H 0.84623 0.15866 0.72061 0.0
H1662 H 0.76098 0.09285 0.66704 0.0
H1663 H 0.79705 0.11082 0.67744 0.0
C1664 C 0.5004 0.22661 0.09306 0.0
C1665 C 0.52239 0.22655 0.10302 0.0
C1666 C 0.49663 0.23457 0.06904 0.0
C1667 C 0.51696 0.27324 0.02297 0.0
H1668 H 0.50275 0.22934 0.97208 0.0
C1669 C 0.54093 0.28904 0.92266 0.0
C1670 C 0.52786 0.28011 0.90331 0.0
C1671 C 0.53583 0.284 0.94711 0.0
C1672 C 0.50618 0.242 0.98603 0.0
H1673 H 0.55747 0.23539 0.09615 0.0
H1674 H 0.55069 0.25011 0.05472 0.0
H1675 H 0.50117 0.21819 0.0155 0.0
H1676 H 0.49876 0.25921 0.89461 0.0
H1677 H 0.48943 0.25075 0.93765 0.0
H1678 H 0.52202 0.29712 0.99394 0.0
C1679 C 0.53651 0.24367 0.06529 0.0
C1680 C 0.50532 0.23555 0.01087 0.0
C1681 C 0.54036 0.23522 0.08892 0.0
C1682 C 0.50922 0.26628 0.9091 0.0
C1683 C 0.50394 0.26137 0.93376 0.0
C1684 C 0.51741 0.27982 0.99826 0.0
C1685 C 0.5147 0.24315 0.05504 0.0
C1686 C 0.51142 0.25094 0.02942 0.0
C1687 C 0.51729 0.2701 0.95309 0.0
C1688 C 0.51291 0.26406 0.97938 0.0
H1689 H 0.4863 0.21986 0.10351 0.0
H1690 H 0.4797 0.23401 0.06139 0.0
H1691 H 0.52159 0.28541 0.03706 0.0
H1692 H 0.55553 0.29961 0.91896 0.0
H1693 H 0.54691 0.29058 0.96131 0.0
C1694 C 0.24259 0.50955 0.40896 0.0
C1695 C 0.2247 0.5247 0.40441 0.0
C1696 C 0.24917 0.50456 0.4332 0.0
C1697 C 0.26945 0.51115 0.48441 0.0
H1698 H 0.22589 0.51129 0.53792 0.0
C1699 C 0.29364 0.53645 0.58301 0.0
C1700 C 0.28216 0.52693 0.60321 0.0
C1701 C 0.2874 0.53101 0.55891 0.0
C1702 C 0.23834 0.51078 0.52327 0.0
H1703 H 0.19919 0.54585 0.42184 0.0
H1704 H 0.21087 0.53759 0.46365 0.0
H1705 H 0.21262 0.51006 0.49551 0.0
H1706 H 0.25574 0.50338 0.61388 0.0
H1707 H 0.24503 0.49357 0.57168 0.0
H1708 H 0.29517 0.5118 0.51219 0.0
C1709 C 0.21967 0.5292 0.44869 0.0
C1710 C 0.2307 0.51039 0.49888 0.0
C1711 C 0.21309 0.53412 0.42459 0.0
C1712 C 0.26482 0.51115 0.59873 0.0
C1713 C 0.25861 0.50561 0.57453 0.0
C1714 C 0.2771 0.51138 0.50882 0.0
C1715 C 0.23798 0.5146 0.45337 0.0
C1716 C 0.24614 0.51132 0.47913 0.0
C1717 C 0.26959 0.51577 0.55431 0.0
C1718 C 0.26163 0.51194 0.52856 0.0
H1719 H 0.25181 0.5019 0.39384 0.0
H1720 H 0.26318 0.49303 0.43613 0.0
H1721 H 0.28186 0.51195 0.46974 0.0
H1722 H 0.30709 0.54867 0.58572 0.0
H1723 H 0.29602 0.53949 0.5439 0.0
C1724 C 0.98736 0.25949 0.09884 0.0
C1725 C 0.97669 0.28013 0.10453 0.0
C1726 C 0.99198 0.25374 0.07426 0.0
C1727 C 0.99456 0.27771 0.01058 0.0
H1728 H 0.97496 0.21776 0.99072 0.0
C1729 C 0.96064 0.25718 0.91403 0.0
C1730 C 0.96541 0.23601 0.9034 0.0
C1731 C 0.96816 0.26233 0.93778 0.0
C1732 C 0.98095 0.23442 0.99596 0.0
H1733 H 0.9636 0.3114 0.08898 0.0
H1734 H 0.97135 0.30133 0.04653 0.0
H1735 H 0.97728 0.22713 0.0344 0.0
H1736 H 0.98262 0.20394 0.909 0.0
H1737 H 0.99562 0.21293 0.95071 0.0
H1738 H 0.99716 0.28529 0.97205 0.0
C1739 C 0.97638 0.28959 0.06086 0.0
C1740 C 0.98232 0.23979 0.02104 0.0
C1741 C 0.97173 0.29529 0.08529 0.0
C1742 C 0.97871 0.22043 0.91666 0.0
C1743 C 0.98603 0.2255 0.94059 0.0
C1744 C 0.99308 0.27237 0.98552 0.0
C1745 C 0.98617 0.26858 0.05495 0.0
C1746 C 0.98846 0.26173 0.02864 0.0
C1747 C 0.98046 0.24635 0.95157 0.0
C1748 C 0.98562 0.25088 0.97793 0.0
H1749 H 0.99146 0.24747 0.11324 0.0
H1750 H 0.99975 0.23751 0.07035 0.0
H1751 H 0.99983 0.29462 0.01579 0.0
H1752 H 0.95049 0.26956 0.90427 0.0
H1753 H 0.96338 0.27845 0.94579 0.0
C1754 C 0.28776 0.96216 0.41967 0.0
C1755 C 0.2759 0.97081 0.39926 0.0
C1756 C 0.28094 0.96729 0.44363 0.0
C1757 C 0.26949 0.98729 0.49315 0.0
H1758 H 0.20524 0.98351 0.50714 0.0
C1759 C 0.23605 0.98863 0.59326 0.0
C1760 C 0.2195 0.97223 0.59857 0.0
C1761 C 0.24186 0.99354 0.56879 0.0
C1762 C 0.22325 0.98461 0.50357 0.0
H1763 H 0.24796 0.99234 0.38811 0.0
H1764 H 0.23611 0.00154 0.43018 0.0
H1765 H 0.21827 0.98255 0.46457 0.0
H1766 H 0.19554 0.94869 0.58226 0.0
H1767 H 0.20595 0.95682 0.53997 0.0
H1768 H 0.2746 0.98793 0.53216 0.0
C1769 C 0.25055 0.99049 0.42753 0.0
C1770 C 0.23071 0.98437 0.4791 0.0
C1771 C 0.25739 0.9853 0.40342 0.0
C1772 C 0.20839 0.96141 0.57889 0.0
C1773 C 0.21423 0.96624 0.55453 0.0
C1774 C 0.26205 0.98739 0.51761 0.0
C1775 C 0.26212 0.98133 0.44793 0.0
C1776 C 0.25398 0.98504 0.47361 0.0
C1777 C 0.23126 0.98213 0.54912 0.0
C1778 C 0.23887 0.98541 0.52316 0.0
H1779 H 0.30213 0.95097 0.41722 0.0
H1780 H 0.29003 0.95958 0.4588 0.0
H1781 H 0.28751 0.98829 0.48959 0.0
H1782 H 0.24482 0.99739 0.60798 0.0
H1783 H 0.25484 0.00609 0.56529 0.0
C1784 C 0.48674 0.76187 0.90562 0.0
C1785 C 0.47166 0.77983 0.90116 0.0
C1786 C 0.49197 0.75537 0.92983 0.0
C1787 C 0.48681 0.77435 0.99549 0.0
H1788 H 0.4863 0.70998 0.00932 0.0
C1789 C 0.46185 0.71134 0.07993 0.0
C1790 C 0.47131 0.72284 0.10016 0.0
C1791 C 0.46707 0.71775 0.05586 0.0
C1792 C 0.48646 0.72804 0.00581 0.0
H1793 H 0.45071 0.80542 0.91875 0.0
H1794 H 0.45928 0.79385 0.96047 0.0
H1795 H 0.4856 0.72297 0.96679 0.0
H1796 H 0.49441 0.74964 0.11085 0.0
H1797 H 0.50383 0.7607 0.0686 0.0
H1798 H 0.48612 0.77943 0.03451 0.0
C1799 C 0.46752 0.78497 0.94547 0.0
C1800 C 0.48639 0.7355 0.98135 0.0
C1801 C 0.46241 0.79149 0.92141 0.0
C1802 C 0.48671 0.74053 0.09568 0.0
C1803 C 0.49203 0.74692 0.07146 0.0
C1804 C 0.48667 0.76689 0.01996 0.0
C1805 C 0.48219 0.7667 0.95007 0.0
C1806 C 0.48586 0.75877 0.97587 0.0
C1807 C 0.48204 0.73576 0.05124 0.0
C1808 C 0.48579 0.74363 0.02544 0.0
H1809 H 0.49428 0.75263 0.89044 0.0
H1810 H 0.50354 0.74138 0.93268 0.0
H1811 H 0.48693 0.79241 0.99198 0.0
H1812 H 0.44992 0.69762 0.08261 0.0
H1813 H 0.45867 0.70902 0.04087 0.0
C1814 C 0.79085 0.46551 0.57994 0.0
C1815 C 0.78058 0.47678 0.59985 0.0
C1816 C 0.78521 0.47102 0.5557 0.0
C1817 C 0.73889 0.496 0.51926 0.0
H1818 H 0.78209 0.48803 0.4661 0.0
C1819 C 0.74362 0.49164 0.40502 0.0
C1820 C 0.7242 0.47833 0.40121 0.0
C1821 C 0.75056 0.49722 0.42898 0.0
C1822 C 0.76983 0.49078 0.48065 0.0
H1823 H 0.75697 0.50338 0.60982 0.0
H1824 H 0.74733 0.5133 0.56733 0.0
H1825 H 0.79524 0.48803 0.50859 0.0
H1826 H 0.69632 0.46129 0.41961 0.0
H1827 H 0.70858 0.47048 0.46094 0.0
H1828 H 0.71349 0.49885 0.49132 0.0
C1829 C 0.75947 0.49987 0.57054 0.0
C1830 C 0.77734 0.49045 0.50509 0.0
C1831 C 0.76506 0.49425 0.5949 0.0
C1832 C 0.71142 0.4715 0.42179 0.0
C1833 C 0.71836 0.47699 0.44561 0.0
C1834 C 0.7314 0.49653 0.49482 0.0
C1835 C 0.76926 0.48808 0.55063 0.0
C1836 C 0.76186 0.49224 0.52474 0.0
C1837 C 0.73821 0.48962 0.4496 0.0
C1838 C 0.74666 0.49311 0.47522 0.0
H1839 H 0.80288 0.45194 0.58301 0.0
H1840 H 0.79281 0.46125 0.54096 0.0
H1841 H 0.72643 0.49739 0.53384 0.0
H1842 H 0.75377 0.49729 0.38955 0.0
H1843 H 0.76579 0.50722 0.43136 0.0
C1844 C 0.01111 0.75926 0.09453 0.0
C1845 C 0.02678 0.77661 0.09947 0.0
C1846 C 0.00614 0.75309 0.07017 0.0
C1847 C 0.01292 0.77201 0.00484 0.0
H1848 H 0.01303 0.70765 0.99076 0.0
C1849 C 0.03784 0.70944 0.92001 0.0
C1850 C 0.02831 0.72112 0.89995 0.0
C1851 C 0.03259 0.7156 0.94418 0.0
C1852 C 0.01296 0.7257 0.99436 0.0
H1853 H 0.04885 0.80163 0.08261 0.0
H1854 H 0.04057 0.79068 0.04054 0.0
H1855 H 0.01328 0.72055 0.03338 0.0
H1856 H 0.00498 0.74786 0.88961 0.0
H1857 H 0.99556 0.75848 0.93196 0.0
H1858 H 0.01402 0.77716 0.96584 0.0
C1859 C 0.03181 0.78199 0.05531 0.0
C1860 C 0.0128 0.73311 0.01884 0.0
C1861 C 0.03673 0.78815 0.07955 0.0
C1862 C 0.01274 0.73862 0.90465 0.0
C1863 C 0.00742 0.74476 0.92892 0.0
C1864 C 0.01322 0.7646 0.98036 0.0
C1865 C 0.01671 0.76417 0.05027 0.0
C1866 C 0.01342 0.75636 0.0244 0.0
C1867 C 0.01756 0.73354 0.94899 0.0
C1868 C 0.01389 0.74134 0.97481 0.0
H1869 H 0.00305 0.75012 0.10946 0.0
H1870 H 0.99423 0.73947 0.06694 0.0
H1871 H 0.01298 0.79005 0.00843 0.0
H1872 H 0.04989 0.69585 0.91712 0.0
H1873 H 0.04103 0.70679 0.95909 0.0
C1874 C 0.73653 0.04547 0.58892 0.0
C1875 C 0.72928 0.0263 0.60202 0.0
C1876 C 0.74311 0.04373 0.56435 0.0
C1877 C 0.75953 0.0038 0.51456 0.0
H1878 H 0.74175 0.05478 0.47376 0.0
C1879 C 0.76984 0.0124 0.40652 0.0
C1880 C 0.78171 0.03215 0.39984 0.0
C1881 C 0.76332 0.00882 0.4311 0.0
C1882 C 0.74677 0.04041 0.48493 0.0
H1883 H 0.72399 0.99004 0.59992 0.0
H1884 H 0.73502 0.98701 0.55639 0.0
H1885 H 0.73037 0.0537 0.51681 0.0
H1886 H 0.79638 0.06335 0.41384 0.0
H1887 H 0.78457 0.05728 0.45626 0.0
H1888 H 0.77569 0.99054 0.48204 0.0
C1889 C 0.73589 0.00338 0.56534 0.0
C1890 C 0.74044 0.03984 0.50966 0.0
C1891 C 0.72956 0.00509 0.59024 0.0
C1892 C 0.78727 0.04795 0.41827 0.0
C1893 C 0.78047 0.04455 0.44258 0.0
C1894 C 0.76563 0.00425 0.48955 0.0
C1895 C 0.74223 0.02283 0.55195 0.0
C1896 C 0.74729 0.02189 0.52504 0.0
C1897 C 0.76823 0.02512 0.44919 0.0
C1898 C 0.75976 0.02287 0.47475 0.0
H1899 H 0.73684 0.06201 0.5976 0.0
H1900 H 0.74863 0.05895 0.55496 0.0
H1901 H 0.7651 0.98973 0.52584 0.0
H1902 H 0.7654 0.99988 0.39275 0.0
H1903 H 0.75384 0.99372 0.43583 0.0
loop_
_geom_bond_atom_site_label_1
_geom_bond_atom_site_label_2
_geom_bond_distance
_geom_bond_site_symmetry_2
_ccdc_geom_bond_type
Co0 O2 2.143 . S
Co0 O8 2.074 . S
Co0 O11 2.093 . S
Co0 O24 2.097 . S
Co0 N41 2.151 . S
Co0 N49 2.214 . S
Co1 O2 2.160 . S
Co1 O7 2.058 . S
Co1 O17 2.057 . S
Co1 O32 2.037 . S
Co1 N36 2.145 . S
Co1 N57 2.257 . S
O2 Co0 2.143 . S
O2 Co1 2.160 . S
C3 O4 1.278 . S
C3 O11 1.224 . S
O4 C3 1.278 . S
C5 O6 1.245 . S
C5 O17 1.232 . S
O6 C5 1.245 . S
O7 Co1 2.058 . S
O7 C33 1.269 . S
O8 Co0 2.074 . S
O8 C33 1.257 . S
H9 C34 0.930 . S
H10 C40 0.930 . S
O11 Co0 2.093 . S
O11 C3 1.224 . S
H12 C44 0.929 . S
H13 C46 0.930 . S
H14 C47 0.930 . S
H15 C45 0.929 . S
H16 C48 0.928 . S
O17 Co1 2.057 . S
O17 C5 1.232 . S
H18 C37 0.929 . S
H19 C38 0.929 . S
H20 C50 0.931 . S
H21 C42 0.929 . S
H22 C51 0.930 . S
H23 C43 0.931 . S
O24 Co0 2.097 . S
O24 C52 1.214 . S
H25 C53 0.929 . S
H26 C54 0.929 . S
H27 C55 0.930 . S
H28 C56 0.929 . S
H29 C58 0.930 . S
H30 C35 0.930 . S
H31 C39 0.930 . S
O32 Co1 2.037 . S
O32 C52 1.234 . S
C33 O7 1.269 . S
C33 O8 1.257 . S
C34 H9 0.930 . S
C34 C37 1.388 . S
C34 C39 1.418 . S
C35 H30 0.930 . S
C35 C38 1.404 . S
C35 C39 1.353 . S
N36 Co1 2.145 . S
N36 C37 1.397 . S
N36 C38 1.334 . S
C37 H18 0.929 . S
C37 C34 1.388 . S
C37 N36 1.397 . S
C38 H19 0.929 . S
C38 C35 1.404 . S
C38 N36 1.334 . S
C39 H31 0.930 . S
C39 C34 1.418 . S
C39 C35 1.353 . S
C40 H10 0.930 . S
C40 N41 1.330 . S
C40 C42 1.446 . S
N41 Co0 2.151 . S
N41 C40 1.330 . S
N41 C45 1.418 . S
C42 H21 0.929 . S
C42 C40 1.446 . S
C42 C43 1.332 . S
C43 H23 0.931 . S
C43 C42 1.332 . S
C43 C44 1.267 . S
C44 H12 0.929 . S
C44 C43 1.267 . S
C44 C45 1.251 . S
C45 H15 0.929 . S
C45 N41 1.418 . S
C45 C44 1.251 . S
C46 H13 0.930 . S
C46 C48 1.406 . S
C46 C51 1.261 . S
C47 H14 0.930 . S
C47 N49 1.325 . S
C47 C50 1.357 . S
C48 H16 0.928 . S
C48 C46 1.406 . S
C48 N49 1.261 . S
N49 Co0 2.214 . S
N49 C47 1.325 . S
N49 C48 1.261 . S
C50 H20 0.931 . S
C50 C47 1.357 . S
C50 C51 1.312 . S
C51 H22 0.930 . S
C51 C46 1.261 . S
C51 C50 1.312 . S
C52 O24 1.214 . S
C52 O32 1.234 . S
C53 H25 0.929 . S
C53 C56 1.391 . S
C53 C58 1.391 . S
C54 H26 0.929 . S
C54 C55 1.390 . S
C54 N57 1.391 . S
C55 H27 0.930 . S
C55 C54 1.390 . S
C55 C56 1.392 . S
C56 H28 0.929 . S
C56 C53 1.391 . S
C56 C55 1.392 . S
N57 Co1 2.257 . S
N57 C54 1.391 . S
N57 C58 1.388 . S
C58 H29 0.930 . S
C58 C53 1.391 . S
C58 N57 1.388 . S
Co59 O61 2.143 . S
Co59 O67 2.074 . S
Co59 O70 2.093 . S
Co59 O83 2.097 . S
Co59 N100 2.151 . S
Co59 N108 2.214 . S
Co60 O61 2.160 . S
Co60 O66 2.058 . S
Co60 O76 2.057 . S
Co60 O91 2.037 . S
Co60 N95 2.145 . S
Co60 N116 2.257 . S
O61 Co59 2.143 . S
O61 Co60 2.160 . S
C62 O63 1.278 . S
C62 O70 1.224 . S
O63 C62 1.278 . S
C64 O65 1.245 . S
C64 O76 1.232 . S
O65 C64 1.245 . S
O66 Co60 2.058 . S
O66 C92 1.269 . S
O67 Co59 2.074 . S
O67 C92 1.257 . S
H68 C93 0.930 . S
H69 C99 0.930 . S
O70 Co59 2.093 . S
O70 C62 1.224 . S
H71 C103 0.929 . S
H72 C105 0.930 . S
H73 C106 0.930 . S
H74 C104 0.929 . S
H75 C107 0.928 . S
O76 Co60 2.057 . S
O76 C64 1.232 . S
H77 C96 0.929 . S
H78 C97 0.929 . S
H79 C109 0.931 . S
H80 C101 0.929 . S
H81 C110 0.930 . S
H82 C102 0.931 . S
O83 Co59 2.097 . S
O83 C111 1.214 . S
H84 C112 0.929 . S
H85 C113 0.929 . S
H86 C114 0.930 . S
H87 C115 0.929 . S
H88 C117 0.930 . S
H89 C94 0.930 . S
H90 C98 0.930 . S
O91 Co60 2.037 . S
O91 C111 1.234 . S
C92 O66 1.269 . S
C92 O67 1.257 . S
C93 H68 0.930 . S
C93 C96 1.388 . S
C93 C98 1.418 . S
C94 H89 0.930 . S
C94 C97 1.404 . S
C94 C98 1.353 . S
N95 Co60 2.145 . S
N95 C96 1.397 . S
N95 C97 1.334 . S
C96 H77 0.929 . S
C96 C93 1.388 . S
C96 N95 1.397 . S
C97 H78 0.929 . S
C97 C94 1.404 . S
C97 N95 1.334 . S
C98 H90 0.930 . S
C98 C93 1.418 . S
C98 C94 1.353 . S
C99 H69 0.930 . S
C99 N100 1.330 . S
C99 C101 1.446 . S
N100 Co59 2.151 . S
N100 C99 1.330 . S
N100 C104 1.418 . S
C101 H80 0.929 . S
C101 C99 1.446 . S
C101 C102 1.332 . S
C102 H82 0.931 . S
C102 C101 1.332 . S
C102 C103 1.267 . S
C103 H71 0.929 . S
C103 C102 1.267 . S
C103 C104 1.251 . S
C104 H74 0.929 . S
C104 N100 1.418 . S
C104 C103 1.251 . S
C105 H72 0.930 . S
C105 C107 1.406 . S
C105 C110 1.261 . S
C106 H73 0.930 . S
C106 N108 1.325 . S
C106 C109 1.357 . S
C107 H75 0.928 . S
C107 C105 1.406 . S
C107 N108 1.261 . S
N108 Co59 2.214 . S
N108 C106 1.325 . S
N108 C107 1.261 . S
C109 H79 0.931 . S
C109 C106 1.357 . S
C109 C110 1.312 . S
C110 H81 0.930 . S
C110 C105 1.261 . S
C110 C109 1.312 . S
C111 O83 1.214 . S
C111 O91 1.234 . S
C112 H84 0.929 . S
C112 C115 1.391 . S
C112 C117 1.391 . S
C113 H85 0.929 . S
C113 C114 1.390 . S
C113 N116 1.391 . S
C114 H86 0.930 . S
C114 C113 1.390 . S
C114 C115 1.392 . S
C115 H87 0.929 . S
C115 C112 1.391 . S
C115 C114 1.392 . S
N116 Co60 2.257 . S
N116 C113 1.391 . S
N116 C117 1.388 . S
C117 H88 0.930 . S
C117 C112 1.391 . S
C117 N116 1.388 . S
Co118 O120 2.143 . S
Co118 O126 2.074 . S
Co118 O129 2.093 . S
Co118 O142 2.097 . S
Co118 N159 2.151 . S
Co118 N167 2.214 . S
Co119 O120 2.160 . S
Co119 O125 2.058 . S
Co119 O135 2.057 1_655 S
Co119 O150 2.037 . S
Co119 N154 2.145 . S
Co119 N175 2.257 1_655 S
O120 Co118 2.143 . S
O120 Co119 2.160 . S
C121 O122 1.278 . S
C121 O129 1.224 . S
O122 C121 1.278 . S
C123 O124 1.245 . S
C123 O135 1.232 . S
O124 C123 1.245 . S
O125 Co119 2.058 . S
O125 C151 1.269 . S
O126 Co118 2.074 . S
O126 C151 1.257 . S
H127 C152 0.930 . S
H128 C158 0.930 . S
O129 Co118 2.093 . S
O129 C121 1.224 . S
H130 C162 0.929 . S
H131 C164 0.930 . S
H132 C165 0.930 . S
H133 C163 0.929 . S
H134 C166 0.928 . S
O135 Co119 2.057 1_455 S
O135 C123 1.232 . S
H136 C155 0.929 . S
H137 C156 0.929 . S
H138 C168 0.931 . S
H139 C160 0.929 . S
H140 C169 0.930 . S
H141 C161 0.931 . S
O142 Co118 2.097 . S
O142 C170 1.214 . S
H143 C171 0.929 . S
H144 C172 0.929 1_655 S
H145 C173 0.930 . S
H146 C174 0.929 . S
H147 C176 0.930 . S
H148 C153 0.930 . S
H149 C157 0.930 . S
O150 Co119 2.037 . S
O150 C170 1.234 . S
C151 O125 1.269 . S
C151 O126 1.257 . S
C152 H127 0.930 . S
C152 C155 1.388 . S
C152 C157 1.418 . S
C153 H148 0.930 . S
C153 C156 1.404 . S
C153 C157 1.353 1_455 S
N154 Co119 2.145 . S
N154 C155 1.397 . S
N154 C156 1.334 1_655 S
C155 H136 0.929 . S
C155 C152 1.388 . S
C155 N154 1.397 . S
C156 H137 0.929 . S
C156 C153 1.404 . S
C156 N154 1.334 1_455 S
C157 H149 0.930 . S
C157 C152 1.418 . S
C157 C153 1.353 1_655 S
C158 H128 0.930 . S
C158 N159 1.330 . S
C158 C160 1.446 . S
N159 Co118 2.151 . S
N159 C158 1.330 . S
N159 C163 1.418 . S
C160 H139 0.929 . S
C160 C158 1.446 . S
C160 C161 1.332 . S
C161 H141 0.931 . S
C161 C160 1.332 . S
C161 C162 1.267 . S
C162 H130 0.929 . S
C162 C161 1.267 . S
C162 C163 1.251 . S
C163 H133 0.929 . S
C163 N159 1.418 . S
C163 C162 1.251 . S
C164 H131 0.930 . S
C164 C166 1.406 . S
C164 C169 1.261 . S
C165 H132 0.930 . S
C165 N167 1.325 . S
C165 C168 1.357 . S
C166 H134 0.928 . S
C166 C164 1.406 . S
C166 N167 1.261 . S
N167 Co118 2.214 . S
N167 C165 1.325 . S
N167 C166 1.261 . S
C168 H138 0.931 . S
C168 C165 1.357 . S
C168 C169 1.312 . S
C169 H140 0.930 . S
C169 C164 1.261 . S
C169 C168 1.312 . S
C170 O142 1.214 . S
C170 O150 1.234 . S
C171 H143 0.929 . S
C171 C174 1.391 . S
C171 C176 1.391 . S
C172 H144 0.929 1_455 S
C172 C173 1.390 . S
C172 N175 1.391 . S
C173 H145 0.930 . S
C173 C172 1.390 . S
C173 C174 1.392 . S
C174 H146 0.929 . S
C174 C171 1.391 . S
C174 C173 1.392 . S
N175 Co119 2.257 1_455 S
N175 C172 1.391 . S
N175 C176 1.388 . S
C176 H147 0.930 . S
C176 C171 1.391 . S
C176 N175 1.388 . S
Co177 O179 2.143 . S
Co177 O185 2.074 . S
Co177 O188 2.093 . S
Co177 O201 2.097 . S
Co177 N218 2.151 . S
Co177 N226 2.214 . S
Co178 O179 2.160 . S
Co178 O184 2.058 . S
Co178 O194 2.057 1_565 S
Co178 O209 2.037 . S
Co178 N213 2.145 . S
Co178 N234 2.257 1_565 S
O179 Co177 2.143 . S
O179 Co178 2.160 . S
C180 O181 1.278 . S
C180 O188 1.224 . S
O181 C180 1.278 . S
C182 O183 1.245 . S
C182 O194 1.232 . S
O183 C182 1.245 . S
O184 Co178 2.058 . S
O184 C210 1.269 . S
O185 Co177 2.074 . S
O185 C210 1.257 . S
H186 C211 0.930 . S
H187 C217 0.930 . S
O188 Co177 2.093 . S
O188 C180 1.224 . S
H189 C221 0.929 . S
H190 C223 0.930 . S
H191 C224 0.930 . S
H192 C222 0.929 . S
H193 C225 0.928 . S
O194 Co178 2.057 1_545 S
O194 C182 1.232 . S
H195 C214 0.929 . S
H196 C215 0.929 . S
H197 C227 0.931 . S
H198 C219 0.929 . S
H199 C228 0.930 . S
H200 C220 0.931 . S
O201 Co177 2.097 . S
O201 C229 1.214 . S
H202 C230 0.929 . S
H203 C231 0.929 1_565 S
H204 C232 0.930 . S
H205 C233 0.929 . S
H206 C235 0.930 . S
H207 C212 0.930 . S
H208 C216 0.930 . S
O209 Co178 2.037 . S
O209 C229 1.234 . S
C210 O184 1.269 . S
C210 O185 1.257 . S
C211 H186 0.930 . S
C211 C214 1.388 . S
C211 C216 1.418 . S
C212 H207 0.930 . S
C212 C215 1.404 . S
C212 C216 1.353 1_545 S
N213 Co178 2.145 . S
N213 C214 1.397 . S
N213 C215 1.334 1_565 S
C214 H195 0.929 . S
C214 C211 1.388 . S
C214 N213 1.397 . S
C215 H196 0.929 . S
C215 C212 1.404 . S
C215 N213 1.334 1_545 S
C216 H208 0.930 . S
C216 C211 1.418 . S
C216 C212 1.353 1_565 S
C217 H187 0.930 . S
C217 N218 1.330 . S
C217 C219 1.446 . S
N218 Co177 2.151 . S
N218 C217 1.330 . S
N218 C222 1.418 . S
C219 H198 0.929 . S
C219 C217 1.446 . S
C219 C220 1.332 . S
C220 H200 0.931 . S
C220 C219 1.332 . S
C220 C221 1.267 . S
C221 H189 0.929 . S
C221 C220 1.267 . S
C221 C222 1.251 . S
C222 H192 0.929 . S
C222 N218 1.418 . S
C222 C221 1.251 . S
C223 H190 0.930 . S
C223 C225 1.406 . S
C223 C228 1.261 . S
C224 H191 0.930 . S
C224 N226 1.325 . S
C224 C227 1.357 . S
C225 H193 0.928 . S
C225 C223 1.406 . S
C225 N226 1.261 . S
N226 Co177 2.214 . S
N226 C224 1.325 . S
N226 C225 1.261 . S
C227 H197 0.931 . S
C227 C224 1.357 . S
C227 C228 1.312 . S
C228 H199 0.930 . S
C228 C223 1.261 . S
C228 C227 1.312 . S
C229 O201 1.214 . S
C229 O209 1.234 . S
C230 H202 0.929 . S
C230 C233 1.391 . S
C230 C235 1.391 . S
C231 H203 0.929 1_545 S
C231 C232 1.390 . S
C231 N234 1.391 . S
C232 H204 0.930 . S
C232 C231 1.390 . S
C232 C233 1.392 . S
C233 H205 0.929 . S
C233 C230 1.391 . S
C233 C232 1.392 . S
N234 Co178 2.257 1_545 S
N234 C231 1.391 . S
N234 C235 1.388 . S
C235 H206 0.930 . S
C235 C230 1.391 . S
C235 N234 1.388 . S
Co236 O238 2.143 . S
Co236 O244 2.074 . S
Co236 O247 2.093 . S
Co236 O260 2.097 . S
Co236 N277 2.151 . S
Co236 N285 2.214 . S
Co237 O238 2.160 . S
Co237 O243 2.058 . S
Co237 O253 2.057 . S
Co237 O268 2.037 . S
Co237 N272 2.145 . S
Co237 N293 2.257 . S
O238 Co236 2.143 . S
O238 Co237 2.160 . S
C239 O240 1.278 . S
C239 O247 1.224 . S
O240 C239 1.278 . S
C241 O242 1.245 . S
C241 O253 1.232 . S
O242 C241 1.245 . S
O243 Co237 2.058 . S
O243 C269 1.269 . S
O244 Co236 2.074 . S
O244 C269 1.257 . S
H245 C270 0.930 . S
H246 C276 0.930 . S
O247 Co236 2.093 . S
O247 C239 1.224 . S
H248 C280 0.929 . S
H249 C282 0.930 . S
H250 C283 0.930 . S
H251 C281 0.929 . S
H252 C284 0.928 . S
O253 Co237 2.057 . S
O253 C241 1.232 . S
H254 C273 0.929 . S
H255 C274 0.929 . S
H256 C286 0.931 . S
H257 C278 0.929 . S
H258 C287 0.930 . S
H259 C279 0.931 . S
O260 Co236 2.097 . S
O260 C288 1.214 . S
H261 C289 0.929 . S
H262 C290 0.929 . S
H263 C291 0.930 . S
H264 C292 0.929 . S
H265 C294 0.930 . S
H266 C271 0.930 . S
H267 C275 0.930 . S
O268 Co237 2.037 . S
O268 C288 1.234 . S
C269 O243 1.269 . S
C269 O244 1.257 . S
C270 H245 0.930 . S
C270 C273 1.388 . S
C270 C275 1.418 . S
C271 H266 0.930 . S
C271 C274 1.404 . S
C271 C275 1.353 . S
N272 Co237 2.145 . S
N272 C273 1.397 . S
N272 C274 1.334 . S
C273 H254 0.929 . S
C273 C270 1.388 . S
C273 N272 1.397 . S
C274 H255 0.929 . S
C274 C271 1.404 . S
C274 N272 1.334 . S
C275 H267 0.930 . S
C275 C270 1.418 . S
C275 C271 1.353 . S
C276 H246 0.930 . S
C276 N277 1.330 . S
C276 C278 1.446 . S
N277 Co236 2.151 . S
N277 C276 1.330 . S
N277 C281 1.418 . S
C278 H257 0.929 . S
C278 C276 1.446 . S
C278 C279 1.332 . S
C279 H259 0.931 . S
C279 C278 1.332 . S
C279 C280 1.267 . S
C280 H248 0.929 . S
C280 C279 1.267 . S
C280 C281 1.251 . S
C281 H251 0.929 . S
C281 N277 1.418 . S
C281 C280 1.251 . S
C282 H249 0.930 . S
C282 C284 1.406 . S
C282 C287 1.261 . S
C283 H250 0.930 . S
C283 N285 1.325 . S
C283 C286 1.357 . S
C284 H252 0.928 . S
C284 C282 1.406 . S
C284 N285 1.261 . S
N285 Co236 2.214 . S
N285 C283 1.325 . S
N285 C284 1.261 . S
C286 H256 0.931 . S
C286 C283 1.357 . S
C286 C287 1.312 . S
C287 H258 0.930 . S
C287 C282 1.261 . S
C287 C286 1.312 . S
C288 O260 1.214 . S
C288 O268 1.234 . S
C289 H261 0.929 . S
C289 C292 1.391 . S
C289 C294 1.391 . S
C290 H262 0.929 . S
C290 C291 1.390 . S
C290 N293 1.391 . S
C291 H263 0.930 . S
C291 C290 1.390 . S
C291 C292 1.392 . S
C292 H264 0.929 . S
C292 C289 1.391 . S
C292 C291 1.392 . S
N293 Co237 2.257 . S
N293 C290 1.391 . S
N293 C294 1.388 . S
C294 H265 0.930 . S
C294 C289 1.391 . S
C294 N293 1.388 . S
Co295 O297 2.143 . S
Co295 O303 2.074 . S
Co295 O306 2.093 . S
Co295 O319 2.097 . S
Co295 N336 2.151 . S
Co295 N344 2.214 . S
Co296 O297 2.160 . S
Co296 O302 2.058 . S
Co296 O312 2.057 . S
Co296 O327 2.037 . S
Co296 N331 2.145 . S
Co296 N352 2.257 . S
O297 Co295 2.143 . S
O297 Co296 2.160 . S
C298 O299 1.278 . S
C298 O306 1.224 . S
O299 C298 1.278 . S
C300 O301 1.245 . S
C300 O312 1.232 . S
O301 C300 1.245 . S
O302 Co296 2.058 . S
O302 C328 1.269 . S
O303 Co295 2.074 . S
O303 C328 1.257 . S
H304 C329 0.930 . S
H305 C335 0.930 . S
O306 Co295 2.093 . S
O306 C298 1.224 . S
H307 C339 0.929 . S
H308 C341 0.930 . S
H309 C342 0.930 . S
H310 C340 0.929 . S
H311 C343 0.928 . S
O312 Co296 2.057 . S
O312 C300 1.232 . S
H313 C332 0.929 . S
H314 C333 0.929 . S
H315 C345 0.931 . S
H316 C337 0.929 . S
H317 C346 0.930 . S
H318 C338 0.931 . S
O319 Co295 2.097 . S
O319 C347 1.214 . S
H320 C348 0.929 . S
H321 C349 0.929 . S
H322 C350 0.930 . S
H323 C351 0.929 . S
H324 C353 0.930 . S
H325 C330 0.930 . S
H326 C334 0.930 . S
O327 Co296 2.037 . S
O327 C347 1.234 . S
C328 O302 1.269 . S
C328 O303 1.257 . S
C329 H304 0.930 . S
C329 C332 1.388 . S
C329 C334 1.418 . S
C330 H325 0.930 . S
C330 C333 1.404 . S
C330 C334 1.353 . S
N331 Co296 2.145 . S
N331 C332 1.397 . S
N331 C333 1.334 . S
C332 H313 0.929 . S
C332 C329 1.388 . S
C332 N331 1.397 . S
C333 H314 0.929 . S
C333 C330 1.404 . S
C333 N331 1.334 . S
C334 H326 0.930 . S
C334 C329 1.418 . S
C334 C330 1.353 . S
C335 H305 0.930 . S
C335 N336 1.330 . S
C335 C337 1.446 . S
N336 Co295 2.151 . S
N336 C335 1.330 . S
N336 C340 1.418 . S
C337 H316 0.929 . S
C337 C335 1.446 . S
C337 C338 1.332 . S
C338 H318 0.931 . S
C338 C337 1.332 . S
C338 C339 1.267 . S
C339 H307 0.929 . S
C339 C338 1.267 . S
C339 C340 1.251 . S
C340 H310 0.929 . S
C340 N336 1.418 . S
C340 C339 1.251 . S
C341 H308 0.930 . S
C341 C343 1.406 . S
C341 C346 1.261 . S
C342 H309 0.930 . S
C342 N344 1.325 . S
C342 C345 1.357 . S
C343 H311 0.928 . S
C343 C341 1.406 . S
C343 N344 1.261 . S
N344 Co295 2.214 . S
N344 C342 1.325 . S
N344 C343 1.261 . S
C345 H315 0.931 . S
C345 C342 1.357 . S
C345 C346 1.312 . S
C346 H317 0.930 . S
C346 C341 1.261 . S
C346 C345 1.312 . S
C347 O319 1.214 . S
C347 O327 1.234 . S
C348 H320 0.929 . S
C348 C351 1.391 . S
C348 C353 1.391 . S
C349 H321 0.929 . S
C349 C350 1.390 . S
C349 N352 1.391 . S
C350 H322 0.930 . S
C350 C349 1.390 . S
C350 C351 1.392 . S
C351 H323 0.929 . S
C351 C348 1.391 . S
C351 C350 1.392 . S
N352 Co296 2.257 . S
N352 C349 1.391 . S
N352 C353 1.388 . S
C353 H324 0.930 . S
C353 C348 1.391 . S
C353 N352 1.388 . S
Co354 O356 2.143 . S
Co354 O362 2.074 . S
Co354 O365 2.093 . S
Co354 O378 2.097 . S
Co354 N395 2.151 . S
Co354 N403 2.214 . S
Co355 O356 2.160 . S
Co355 O361 2.058 . S
Co355 O371 2.057 1_655 S
Co355 O386 2.037 . S
Co355 N390 2.145 . S
Co355 N411 2.257 1_655 S
O356 Co354 2.143 . S
O356 Co355 2.160 . S
C357 O358 1.278 . S
C357 O365 1.224 . S
O358 C357 1.278 . S
C359 O360 1.245 . S
C359 O371 1.232 . S
O360 C359 1.245 . S
O361 Co355 2.058 . S
O361 C387 1.269 . S
O362 Co354 2.074 . S
O362 C387 1.257 . S
H363 C388 0.930 . S
H364 C394 0.930 . S
O365 Co354 2.093 . S
O365 C357 1.224 . S
H366 C398 0.929 . S
H367 C400 0.930 . S
H368 C401 0.930 . S
H369 C399 0.929 . S
H370 C402 0.928 . S
O371 Co355 2.057 1_455 S
O371 C359 1.232 . S
H372 C391 0.929 . S
H373 C392 0.929 . S
H374 C404 0.931 . S
H375 C396 0.929 . S
H376 C405 0.930 . S
H377 C397 0.931 . S
O378 Co354 2.097 . S
O378 C406 1.214 . S
H379 C407 0.929 . S
H380 C408 0.929 1_655 S
H381 C409 0.930 . S
H382 C410 0.929 . S
H383 C412 0.930 . S
H384 C389 0.930 . S
H385 C393 0.930 . S
O386 Co355 2.037 . S
O386 C406 1.234 . S
C387 O361 1.269 . S
C387 O362 1.257 . S
C388 H363 0.930 . S
C388 C391 1.388 . S
C388 C393 1.418 . S
C389 H384 0.930 . S
C389 C392 1.404 . S
C389 C393 1.353 1_455 S
N390 Co355 2.145 . S
N390 C391 1.397 . S
N390 C392 1.334 1_655 S
C391 H372 0.929 . S
C391 C388 1.388 . S
C391 N390 1.397 . S
C392 H373 0.929 . S
C392 C389 1.404 . S
C392 N390 1.334 1_455 S
C393 H385 0.930 . S
C393 C388 1.418 . S
C393 C389 1.353 1_655 S
C394 H364 0.930 . S
C394 N395 1.330 . S
C394 C396 1.446 . S
N395 Co354 2.151 . S
N395 C394 1.330 . S
N395 C399 1.418 . S
C396 H375 0.929 . S
C396 C394 1.446 . S
C396 C397 1.332 . S
C397 H377 0.931 . S
C397 C396 1.332 . S
C397 C398 1.267 . S
C398 H366 0.929 . S
C398 C397 1.267 . S
C398 C399 1.251 . S
C399 H369 0.929 . S
C399 N395 1.418 . S
C399 C398 1.251 . S
C400 H367 0.930 . S
C400 C402 1.406 . S
C400 C405 1.261 . S
C401 H368 0.930 . S
C401 N403 1.325 . S
C401 C404 1.357 . S
C402 H370 0.928 . S
C402 C400 1.406 . S
C402 N403 1.261 . S
N403 Co354 2.214 . S
N403 C401 1.325 . S
N403 C402 1.261 . S
C404 H374 0.931 . S
C404 C401 1.357 . S
C404 C405 1.312 . S
C405 H376 0.930 . S
C405 C400 1.261 . S
C405 C404 1.312 . S
C406 O378 1.214 . S
C406 O386 1.234 . S
C407 H379 0.929 . S
C407 C410 1.391 . S
C407 C412 1.391 . S
C408 H380 0.929 1_455 S
C408 C409 1.390 . S
C408 N411 1.391 . S
C409 H381 0.930 . S
C409 C408 1.390 . S
C409 C410 1.392 . S
C410 H382 0.929 . S
C410 C407 1.391 . S
C410 C409 1.392 . S
N411 Co355 2.257 1_455 S
N411 C408 1.391 . S
N411 C412 1.388 . S
C412 H383 0.930 . S
C412 C407 1.391 . S
C412 N411 1.388 . S
Co413 O415 2.143 . S
Co413 O421 2.074 . S
Co413 O424 2.093 . S
Co413 O437 2.097 . S
Co413 N454 2.151 . S
Co413 N462 2.214 . S
Co414 O415 2.160 . S
Co414 O420 2.058 . S
Co414 O430 2.057 1_565 S
Co414 O445 2.037 . S
Co414 N449 2.145 . S
Co414 N470 2.257 1_565 S
O415 Co413 2.143 . S
O415 Co414 2.160 . S
C416 O417 1.278 . S
C416 O424 1.224 . S
O417 C416 1.278 . S
C418 O419 1.245 . S
C418 O430 1.232 . S
O419 C418 1.245 . S
O420 Co414 2.058 . S
O420 C446 1.269 . S
O421 Co413 2.074 . S
O421 C446 1.257 . S
H422 C447 0.930 . S
H423 C453 0.930 . S
O424 Co413 2.093 . S
O424 C416 1.224 . S
H425 C457 0.929 . S
H426 C459 0.930 . S
H427 C460 0.930 . S
H428 C458 0.929 . S
H429 C461 0.928 . S
O430 Co414 2.057 1_545 S
O430 C418 1.232 . S
H431 C450 0.929 . S
H432 C451 0.929 . S
H433 C463 0.931 . S
H434 C455 0.929 . S
H435 C464 0.930 . S
H436 C456 0.931 . S
O437 Co413 2.097 . S
O437 C465 1.214 . S
H438 C466 0.929 . S
H439 C467 0.929 1_565 S
H440 C468 0.930 . S
H441 C469 0.929 . S
H442 C471 0.930 . S
H443 C448 0.930 . S
H444 C452 0.930 . S
O445 Co414 2.037 . S
O445 C465 1.234 . S
C446 O420 1.269 . S
C446 O421 1.257 . S
C447 H422 0.930 . S
C447 C450 1.388 . S
C447 C452 1.418 . S
C448 H443 0.930 . S
C448 C451 1.404 . S
C448 C452 1.353 1_545 S
N449 Co414 2.145 . S
N449 C450 1.397 . S
N449 C451 1.334 1_565 S
C450 H431 0.929 . S
C450 C447 1.388 . S
C450 N449 1.397 . S
C451 H432 0.929 . S
C451 C448 1.404 . S
C451 N449 1.334 1_545 S
C452 H444 0.930 . S
C452 C447 1.418 . S
C452 C448 1.353 1_565 S
C453 H423 0.930 . S
C453 N454 1.330 . S
C453 C455 1.446 . S
N454 Co413 2.151 . S
N454 C453 1.330 . S
N454 C458 1.418 . S
C455 H434 0.929 . S
C455 C453 1.446 . S
C455 C456 1.332 . S
C456 H436 0.931 . S
C456 C455 1.332 . S
C456 C457 1.267 . S
C457 H425 0.929 . S
C457 C456 1.267 . S
C457 C458 1.251 . S
C458 H428 0.929 . S
C458 N454 1.418 . S
C458 C457 1.251 . S
C459 H426 0.930 . S
C459 C461 1.406 . S
C459 C464 1.261 . S
C460 H427 0.930 . S
C460 N462 1.325 . S
C460 C463 1.357 . S
C461 H429 0.928 . S
C461 C459 1.406 . S
C461 N462 1.261 . S
N462 Co413 2.214 . S
N462 C460 1.325 . S
N462 C461 1.261 . S
C463 H433 0.931 . S
C463 C460 1.357 . S
C463 C464 1.312 . S
C464 H435 0.930 . S
C464 C459 1.261 . S
C464 C463 1.312 . S
C465 O437 1.214 . S
C465 O445 1.234 . S
C466 H438 0.929 . S
C466 C469 1.391 . S
C466 C471 1.391 . S
C467 H439 0.929 1_545 S
C467 C468 1.390 . S
C467 N470 1.391 . S
C468 H440 0.930 . S
C468 C467 1.390 . S
C468 C469 1.392 . S
C469 H441 0.929 . S
C469 C466 1.391 . S
C469 C468 1.392 . S
N470 Co414 2.257 1_545 S
N470 C467 1.391 . S
N470 C471 1.388 . S
C471 H442 0.930 . S
C471 C466 1.391 . S
C471 N470 1.388 . S
Co472 O474 2.143 . S
Co472 O480 2.074 . S
Co472 O483 2.093 . S
Co472 O496 2.097 . S
Co472 N513 2.151 . S
Co472 N521 2.214 . S
Co473 O474 2.160 . S
Co473 O479 2.058 . S
Co473 O489 2.057 . S
Co473 O504 2.037 . S
Co473 N508 2.145 . S
Co473 N529 2.257 . S
O474 Co472 2.143 . S
O474 Co473 2.160 . S
C475 O476 1.278 . S
C475 O483 1.224 . S
O476 C475 1.278 . S
C477 O478 1.245 . S
C477 O489 1.232 . S
O478 C477 1.245 . S
O479 Co473 2.058 . S
O479 C505 1.269 . S
O480 Co472 2.074 . S
O480 C505 1.257 . S
H481 C506 0.930 . S
H482 C512 0.930 . S
O483 Co472 2.093 . S
O483 C475 1.224 . S
H484 C516 0.929 . S
H485 C518 0.930 . S
H486 C519 0.930 . S
H487 C517 0.929 . S
H488 C520 0.928 . S
O489 Co473 2.057 . S
O489 C477 1.232 . S
H490 C509 0.929 . S
H491 C510 0.929 . S
H492 C522 0.931 . S
H493 C514 0.929 . S
H494 C523 0.930 . S
H495 C515 0.931 . S
O496 Co472 2.097 . S
O496 C524 1.214 . S
H497 C525 0.929 . S
H498 C526 0.929 . S
H499 C527 0.930 . S
H500 C528 0.929 . S
H501 C530 0.930 . S
H502 C507 0.930 . S
H503 C511 0.930 . S
O504 Co473 2.037 . S
O504 C524 1.234 . S
C505 O479 1.269 . S
C505 O480 1.257 . S
C506 H481 0.930 . S
C506 C509 1.388 . S
C506 C511 1.418 . S
C507 H502 0.930 . S
C507 C510 1.404 . S
C507 C511 1.353 . S
N508 Co473 2.145 . S
N508 C509 1.397 . S
N508 C510 1.334 . S
C509 H490 0.929 . S
C509 C506 1.388 . S
C509 N508 1.397 . S
C510 H491 0.929 . S
C510 C507 1.404 . S
C510 N508 1.334 . S
C511 H503 0.930 . S
C511 C506 1.418 . S
C511 C507 1.353 . S
C512 H482 0.930 . S
C512 N513 1.330 . S
C512 C514 1.446 . S
N513 Co472 2.151 . S
N513 C512 1.330 . S
N513 C517 1.418 . S
C514 H493 0.929 . S
C514 C512 1.446 . S
C514 C515 1.332 . S
C515 H495 0.931 . S
C515 C514 1.332 . S
C515 C516 1.267 . S
C516 H484 0.929 . S
C516 C515 1.267 . S
C516 C517 1.251 . S
C517 H487 0.929 . S
C517 N513 1.418 . S
C517 C516 1.251 . S
C518 H485 0.930 . S
C518 C520 1.406 . S
C518 C523 1.261 . S
C519 H486 0.930 . S
C519 N521 1.325 . S
C519 C522 1.357 . S
C520 H488 0.928 . S
C520 C518 1.406 . S
C520 N521 1.261 . S
N521 Co472 2.214 . S
N521 C519 1.325 . S
N521 C520 1.261 . S
C522 H492 0.931 . S
C522 C519 1.357 . S
C522 C523 1.312 . S
C523 H494 0.930 . S
C523 C518 1.261 . S
C523 C522 1.312 . S
C524 O496 1.214 . S
C524 O504 1.234 . S
C525 H497 0.929 . S
C525 C528 1.391 . S
C525 C530 1.391 . S
C526 H498 0.929 . S
C526 C527 1.390 . S
C526 N529 1.391 . S
C527 H499 0.930 . S
C527 C526 1.390 . S
C527 C528 1.392 . S
C528 H500 0.929 . S
C528 C525 1.391 . S
C528 C527 1.392 . S
N529 Co473 2.257 . S
N529 C526 1.391 . S
N529 C530 1.388 . S
C530 H501 0.930 . S
C530 C525 1.391 . S
C530 N529 1.388 . S
Co531 O533 2.143 . S
Co531 O539 2.074 . S
Co531 O542 2.093 . S
Co531 O555 2.097 . S
Co531 N572 2.151 . S
Co531 N580 2.214 . S
Co532 O533 2.160 . S
Co532 O538 2.058 . S
Co532 O548 2.057 . S
Co532 O563 2.037 . S
Co532 N567 2.145 . S
Co532 N588 2.257 . S
O533 Co531 2.143 . S
O533 Co532 2.160 . S
C534 O535 1.278 . S
C534 O542 1.224 . S
O535 C534 1.278 . S
C536 O537 1.245 . S
C536 O548 1.232 . S
O537 C536 1.245 . S
O538 Co532 2.058 . S
O538 C564 1.269 . S
O539 Co531 2.074 . S
O539 C564 1.257 . S
H540 C565 0.930 . S
H541 C571 0.930 . S
O542 Co531 2.093 . S
O542 C534 1.224 . S
H543 C575 0.929 . S
H544 C577 0.930 . S
H545 C578 0.930 . S
H546 C576 0.929 . S
H547 C579 0.928 . S
O548 Co532 2.057 . S
O548 C536 1.232 . S
H549 C568 0.929 . S
H550 C569 0.929 . S
H551 C581 0.931 . S
H552 C573 0.929 . S
H553 C582 0.930 . S
H554 C574 0.931 . S
O555 Co531 2.097 . S
O555 C583 1.214 . S
H556 C584 0.929 . S
H557 C585 0.929 . S
H558 C586 0.930 . S
H559 C587 0.929 . S
H560 C589 0.930 . S
H561 C566 0.930 . S
H562 C570 0.930 . S
O563 Co532 2.037 . S
O563 C583 1.234 . S
C564 O538 1.269 . S
C564 O539 1.257 . S
C565 H540 0.930 . S
C565 C568 1.388 . S
C565 C570 1.418 . S
C566 H561 0.930 . S
C566 C569 1.404 . S
C566 C570 1.353 . S
N567 Co532 2.145 . S
N567 C568 1.397 . S
N567 C569 1.334 . S
C568 H549 0.929 . S
C568 C565 1.388 . S
C568 N567 1.397 . S
C569 H550 0.929 . S
C569 C566 1.404 . S
C569 N567 1.334 . S
C570 H562 0.930 . S
C570 C565 1.418 . S
C570 C566 1.353 . S
C571 H541 0.930 . S
C571 N572 1.330 . S
C571 C573 1.446 . S
N572 Co531 2.151 . S
N572 C571 1.330 . S
N572 C576 1.418 . S
C573 H552 0.929 . S
C573 C571 1.446 . S
C573 C574 1.332 . S
C574 H554 0.931 . S
C574 C573 1.332 . S
C574 C575 1.267 . S
C575 H543 0.929 . S
C575 C574 1.267 . S
C575 C576 1.251 . S
C576 H546 0.929 . S
C576 N572 1.418 . S
C576 C575 1.251 . S
C577 H544 0.930 . S
C577 C579 1.406 . S
C577 C582 1.261 . S
C578 H545 0.930 . S
C578 N580 1.325 . S
C578 C581 1.357 . S
C579 H547 0.928 . S
C579 C577 1.406 . S
C579 N580 1.261 . S
N580 Co531 2.214 . S
N580 C578 1.325 . S
N580 C579 1.261 . S
C581 H551 0.931 . S
C581 C578 1.357 . S
C581 C582 1.312 . S
C582 H553 0.930 . S
C582 C577 1.261 . S
C582 C581 1.312 . S
C583 O555 1.214 . S
C583 O563 1.234 . S
C584 H556 0.929 . S
C584 C587 1.391 . S
C584 C589 1.391 . S
C585 H557 0.929 . S
C585 C586 1.390 . S
C585 N588 1.391 . S
C586 H558 0.930 . S
C586 C585 1.390 . S
C586 C587 1.392 . S
C587 H559 0.929 . S
C587 C584 1.391 . S
C587 C586 1.392 . S
N588 Co532 2.257 . S
N588 C585 1.391 . S
N588 C589 1.388 . S
C589 H560 0.930 . S
C589 C584 1.391 . S
C589 N588 1.388 . S
Co590 O592 2.143 . S
Co590 O598 2.074 . S
Co590 O601 2.093 . S
Co590 O614 2.097 . S
Co590 N631 2.151 . S
Co590 N639 2.214 . S
Co591 O592 2.160 . S
Co591 O597 2.058 . S
Co591 O607 2.057 1_455 S
Co591 O622 2.037 . S
Co591 N626 2.145 . S
Co591 N647 2.257 1_455 S
O592 Co590 2.143 . S
O592 Co591 2.160 . S
C593 O594 1.278 . S
C593 O601 1.224 . S
O594 C593 1.278 . S
C595 O596 1.245 . S
C595 O607 1.232 . S
O596 C595 1.245 . S
O597 Co591 2.058 . S
O597 C623 1.269 . S
O598 Co590 2.074 . S
O598 C623 1.257 . S
H599 C624 0.930 . S
H600 C630 0.930 . S
O601 Co590 2.093 . S
O601 C593 1.224 . S
H602 C634 0.929 . S
H603 C636 0.930 . S
H604 C637 0.930 . S
H605 C635 0.929 . S
H606 C638 0.928 . S
O607 Co591 2.057 1_655 S
O607 C595 1.232 . S
H608 C627 0.929 . S
H609 C628 0.929 . S
H610 C640 0.931 . S
H611 C632 0.929 . S
H612 C641 0.930 . S
H613 C633 0.931 . S
O614 Co590 2.097 . S
O614 C642 1.214 . S
H615 C643 0.929 . S
H616 C644 0.929 1_455 S
H617 C645 0.930 . S
H618 C646 0.929 . S
H619 C648 0.930 . S
H620 C625 0.930 . S
H621 C629 0.930 . S
O622 Co591 2.037 . S
O622 C642 1.234 . S
C623 O597 1.269 . S
C623 O598 1.257 . S
C624 H599 0.930 . S
C624 C627 1.388 . S
C624 C629 1.418 . S
C625 H620 0.930 . S
C625 C628 1.404 . S
C625 C629 1.353 1_655 S
N626 Co591 2.145 . S
N626 C627 1.397 . S
N626 C628 1.334 1_455 S
C627 H608 0.929 . S
C627 C624 1.388 . S
C627 N626 1.397 . S
C628 H609 0.929 . S
C628 C625 1.404 . S
C628 N626 1.334 1_655 S
C629 H621 0.930 . S
C629 C624 1.418 . S
C629 C625 1.353 1_455 S
C630 H600 0.930 . S
C630 N631 1.330 . S
C630 C632 1.446 . S
N631 Co590 2.151 . S
N631 C630 1.330 . S
N631 C635 1.418 . S
C632 H611 0.929 . S
C632 C630 1.446 . S
C632 C633 1.332 . S
C633 H613 0.931 . S
C633 C632 1.332 . S
C633 C634 1.267 . S
C634 H602 0.929 . S
C634 C633 1.267 . S
C634 C635 1.251 . S
C635 H605 0.929 . S
C635 N631 1.418 . S
C635 C634 1.251 . S
C636 H603 0.930 . S
C636 C638 1.406 . S
C636 C641 1.261 . S
C637 H604 0.930 . S
C637 N639 1.325 . S
C637 C640 1.357 . S
C638 H606 0.928 . S
C638 C636 1.406 . S
C638 N639 1.261 . S
N639 Co590 2.214 . S
N639 C637 1.325 . S
N639 C638 1.261 . S
C640 H610 0.931 . S
C640 C637 1.357 . S
C640 C641 1.312 . S
C641 H612 0.930 . S
C641 C636 1.261 . S
C641 C640 1.312 . S
C642 O614 1.214 . S
C642 O622 1.234 . S
C643 H615 0.929 . S
C643 C646 1.391 . S
C643 C648 1.391 . S
C644 H616 0.929 1_655 S
C644 C645 1.390 . S
C644 N647 1.391 . S
C645 H617 0.930 . S
C645 C644 1.390 . S
C645 C646 1.392 . S
C646 H618 0.929 . S
C646 C643 1.391 . S
C646 C645 1.392 . S
N647 Co591 2.257 1_655 S
N647 C644 1.391 . S
N647 C648 1.388 . S
C648 H619 0.930 . S
C648 C643 1.391 . S
C648 N647 1.388 . S
Co649 O651 2.143 . S
Co649 O657 2.074 . S
Co649 O660 2.093 . S
Co649 O673 2.097 . S
Co649 N690 2.151 . S
Co649 N698 2.214 . S
Co650 O651 2.160 . S
Co650 O656 2.058 . S
Co650 O666 2.057 1_545 S
Co650 O681 2.037 . S
Co650 N685 2.145 . S
Co650 N706 2.257 1_545 S
O651 Co649 2.143 . S
O651 Co650 2.160 . S
C652 O653 1.278 . S
C652 O660 1.224 . S
O653 C652 1.278 . S
C654 O655 1.245 . S
C654 O666 1.232 . S
O655 C654 1.245 . S
O656 Co650 2.058 . S
O656 C682 1.269 . S
O657 Co649 2.074 . S
O657 C682 1.257 . S
H658 C683 0.930 . S
H659 C689 0.930 . S
O660 Co649 2.093 . S
O660 C652 1.224 . S
H661 C693 0.929 . S
H662 C695 0.930 . S
H663 C696 0.930 . S
H664 C694 0.929 . S
H665 C697 0.928 . S
O666 Co650 2.057 1_565 S
O666 C654 1.232 . S
H667 C686 0.929 . S
H668 C687 0.929 . S
H669 C699 0.931 . S
H670 C691 0.929 . S
H671 C700 0.930 . S
H672 C692 0.931 . S
O673 Co649 2.097 . S
O673 C701 1.214 . S
H674 C702 0.929 . S
H675 C703 0.929 1_545 S
H676 C704 0.930 . S
H677 C705 0.929 . S
H678 C707 0.930 . S
H679 C684 0.930 . S
H680 C688 0.930 . S
O681 Co650 2.037 . S
O681 C701 1.234 . S
C682 O656 1.269 . S
C682 O657 1.257 . S
C683 H658 0.930 . S
C683 C686 1.388 . S
C683 C688 1.418 . S
C684 H679 0.930 . S
C684 C687 1.404 . S
C684 C688 1.353 1_565 S
N685 Co650 2.145 . S
N685 C686 1.397 . S
N685 C687 1.334 1_545 S
C686 H667 0.929 . S
C686 C683 1.388 . S
C686 N685 1.397 . S
C687 H668 0.929 . S
C687 C684 1.404 . S
C687 N685 1.334 1_565 S
C688 H680 0.930 . S
C688 C683 1.418 . S
C688 C684 1.353 1_545 S
C689 H659 0.930 . S
C689 N690 1.330 . S
C689 C691 1.446 . S
N690 Co649 2.151 . S
N690 C689 1.330 . S
N690 C694 1.418 . S
C691 H670 0.929 . S
C691 C689 1.446 . S
C691 C692 1.332 . S
C692 H672 0.931 . S
C692 C691 1.332 . S
C692 C693 1.267 . S
C693 H661 0.929 . S
C693 C692 1.267 . S
C693 C694 1.251 . S
C694 H664 0.929 . S
C694 N690 1.418 . S
C694 C693 1.251 . S
C695 H662 0.930 . S
C695 C697 1.406 . S
C695 C700 1.261 . S
C696 H663 0.930 . S
C696 N698 1.325 . S
C696 C699 1.357 . S
C697 H665 0.928 . S
C697 C695 1.406 . S
C697 N698 1.261 . S
N698 Co649 2.214 . S
N698 C696 1.325 . S
N698 C697 1.261 . S
C699 H669 0.931 . S
C699 C696 1.357 . S
C699 C700 1.312 . S
C700 H671 0.930 . S
C700 C695 1.261 . S
C700 C699 1.312 . S
C701 O673 1.214 . S
C701 O681 1.234 . S
C702 H674 0.929 . S
C702 C705 1.391 . S
C702 C707 1.391 . S
C703 H675 0.929 1_565 S
C703 C704 1.390 . S
C703 N706 1.391 . S
C704 H676 0.930 . S
C704 C703 1.390 . S
C704 C705 1.392 . S
C705 H677 0.929 . S
C705 C702 1.391 . S
C705 C704 1.392 . S
N706 Co650 2.257 1_565 S
N706 C703 1.391 . S
N706 C707 1.388 . S
C707 H678 0.930 . S
C707 C702 1.391 . S
C707 N706 1.388 . S
Co708 O710 2.143 . S
Co708 O716 2.074 . S
Co708 O719 2.093 . S
Co708 O732 2.097 . S
Co708 N749 2.151 . S
Co708 N757 2.214 . S
Co709 O710 2.160 . S
Co709 O715 2.058 . S
Co709 O725 2.057 . S
Co709 O740 2.037 . S
Co709 N744 2.145 . S
Co709 N765 2.257 . S
O710 Co708 2.143 . S
O710 Co709 2.160 . S
C711 O712 1.278 . S
C711 O719 1.224 . S
O712 C711 1.278 . S
C713 O714 1.245 . S
C713 O725 1.232 . S
O714 C713 1.245 . S
O715 Co709 2.058 . S
O715 C741 1.269 . S
O716 Co708 2.074 . S
O716 C741 1.257 . S
H717 C742 0.930 . S
H718 C748 0.930 . S
O719 Co708 2.093 . S
O719 C711 1.224 . S
H720 C752 0.929 . S
H721 C754 0.930 . S
H722 C755 0.930 . S
H723 C753 0.929 . S
H724 C756 0.928 . S
O725 Co709 2.057 . S
O725 C713 1.232 . S
H726 C745 0.929 . S
H727 C746 0.929 . S
H728 C758 0.931 . S
H729 C750 0.929 . S
H730 C759 0.930 . S
H731 C751 0.931 . S
O732 Co708 2.097 . S
O732 C760 1.214 . S
H733 C761 0.929 . S
H734 C762 0.929 . S
H735 C763 0.930 . S
H736 C764 0.929 . S
H737 C766 0.930 . S
H738 C743 0.930 . S
H739 C747 0.930 . S
O740 Co709 2.037 . S
O740 C760 1.234 . S
C741 O715 1.269 . S
C741 O716 1.257 . S
C742 H717 0.930 . S
C742 C745 1.388 . S
C742 C747 1.418 . S
C743 H738 0.930 . S
C743 C746 1.404 . S
C743 C747 1.353 . S
N744 Co709 2.145 . S
N744 C745 1.397 . S
N744 C746 1.334 . S
C745 H726 0.929 . S
C745 C742 1.388 . S
C745 N744 1.397 . S
C746 H727 0.929 . S
C746 C743 1.404 . S
C746 N744 1.334 . S
C747 H739 0.930 . S
C747 C742 1.418 . S
C747 C743 1.353 . S
C748 H718 0.930 . S
C748 N749 1.330 . S
C748 C750 1.446 . S
N749 Co708 2.151 . S
N749 C748 1.330 . S
N749 C753 1.418 . S
C750 H729 0.929 . S
C750 C748 1.446 . S
C750 C751 1.332 . S
C751 H731 0.931 . S
C751 C750 1.332 . S
C751 C752 1.267 . S
C752 H720 0.929 . S
C752 C751 1.267 . S
C752 C753 1.251 . S
C753 H723 0.929 . S
C753 N749 1.418 . S
C753 C752 1.251 . S
C754 H721 0.930 . S
C754 C756 1.406 . S
C754 C759 1.261 . S
C755 H722 0.930 . S
C755 N757 1.325 . S
C755 C758 1.357 . S
C756 H724 0.928 . S
C756 C754 1.406 . S
C756 N757 1.261 . S
N757 Co708 2.214 . S
N757 C755 1.325 . S
N757 C756 1.261 . S
C758 H728 0.931 . S
C758 C755 1.357 . S
C758 C759 1.312 . S
C759 H730 0.930 . S
C759 C754 1.261 . S
C759 C758 1.312 . S
C760 O732 1.214 . S
C760 O740 1.234 . S
C761 H733 0.929 . S
C761 C764 1.391 . S
C761 C766 1.391 . S
C762 H734 0.929 . S
C762 C763 1.390 . S
C762 N765 1.391 . S
C763 H735 0.930 . S
C763 C762 1.390 . S
C763 C764 1.392 . S
C764 H736 0.929 . S
C764 C761 1.391 . S
C764 C763 1.392 . S
N765 Co709 2.257 . S
N765 C762 1.391 . S
N765 C766 1.388 . S
C766 H737 0.930 . S
C766 C761 1.391 . S
C766 N765 1.388 . S
Co767 O769 2.143 . S
Co767 O775 2.074 . S
Co767 O778 2.093 . S
Co767 O791 2.097 . S
Co767 N808 2.151 . S
Co767 N816 2.214 . S
Co768 O769 2.160 . S
Co768 O774 2.058 . S
Co768 O784 2.057 . S
Co768 O799 2.037 . S
Co768 N803 2.145 . S
Co768 N824 2.257 . S
O769 Co767 2.143 . S
O769 Co768 2.160 . S
C770 O771 1.278 . S
C770 O778 1.224 . S
O771 C770 1.278 . S
C772 O773 1.245 . S
C772 O784 1.232 . S
O773 C772 1.245 . S
O774 Co768 2.058 . S
O774 C800 1.269 . S
O775 Co767 2.074 . S
O775 C800 1.257 . S
H776 C801 0.930 . S
H777 C807 0.930 . S
O778 Co767 2.093 . S
O778 C770 1.224 . S
H779 C811 0.929 . S
H780 C813 0.930 . S
H781 C814 0.930 . S
H782 C812 0.929 . S
H783 C815 0.928 . S
O784 Co768 2.057 . S
O784 C772 1.232 . S
H785 C804 0.929 . S
H786 C805 0.929 . S
H787 C817 0.931 . S
H788 C809 0.929 . S
H789 C818 0.930 . S
H790 C810 0.931 . S
O791 Co767 2.097 . S
O791 C819 1.214 . S
H792 C820 0.929 . S
H793 C821 0.929 . S
H794 C822 0.930 . S
H795 C823 0.929 . S
H796 C825 0.930 . S
H797 C802 0.930 . S
H798 C806 0.930 . S
O799 Co768 2.037 . S
O799 C819 1.234 . S
C800 O774 1.269 . S
C800 O775 1.257 . S
C801 H776 0.930 . S
C801 C804 1.388 . S
C801 C806 1.418 . S
C802 H797 0.930 . S
C802 C805 1.404 . S
C802 C806 1.353 . S
N803 Co768 2.145 . S
N803 C804 1.397 . S
N803 C805 1.334 . S
C804 H785 0.929 . S
C804 C801 1.388 . S
C804 N803 1.397 . S
C805 H786 0.929 . S
C805 C802 1.404 . S
C805 N803 1.334 . S
C806 H798 0.930 . S
C806 C801 1.418 . S
C806 C802 1.353 . S
C807 H777 0.930 . S
C807 N808 1.330 . S
C807 C809 1.446 . S
N808 Co767 2.151 . S
N808 C807 1.330 . S
N808 C812 1.418 . S
C809 H788 0.929 . S
C809 C807 1.446 . S
C809 C810 1.332 . S
C810 H790 0.931 . S
C810 C809 1.332 . S
C810 C811 1.267 . S
C811 H779 0.929 . S
C811 C810 1.267 . S
C811 C812 1.251 . S
C812 H782 0.929 . S
C812 N808 1.418 . S
C812 C811 1.251 . S
C813 H780 0.930 . S
C813 C815 1.406 . S
C813 C818 1.261 . S
C814 H781 0.930 . S
C814 N816 1.325 . S
C814 C817 1.357 . S
C815 H783 0.928 . S
C815 C813 1.406 . S
C815 N816 1.261 . S
N816 Co767 2.214 . S
N816 C814 1.325 . S
N816 C815 1.261 . S
C817 H787 0.931 . S
C817 C814 1.357 . S
C817 C818 1.312 . S
C818 H789 0.930 . S
C818 C813 1.261 . S
C818 C817 1.312 . S
C819 O791 1.214 . S
C819 O799 1.234 . S
C820 H792 0.929 . S
C820 C823 1.391 . S
C820 C825 1.391 . S
C821 H793 0.929 . S
C821 C822 1.390 . S
C821 N824 1.391 . S
C822 H794 0.930 . S
C822 C821 1.390 . S
C822 C823 1.392 . S
C823 H795 0.929 . S
C823 C820 1.391 . S
C823 C822 1.392 . S
N824 Co768 2.257 . S
N824 C821 1.391 . S
N824 C825 1.388 . S
C825 H796 0.930 . S
C825 C820 1.391 . S
C825 N824 1.388 . S
Co826 O828 2.143 . S
Co826 O834 2.074 . S
Co826 O837 2.093 . S
Co826 O850 2.097 . S
Co826 N867 2.151 . S
Co826 N875 2.214 . S
Co827 O828 2.160 . S
Co827 O833 2.058 . S
Co827 O843 2.057 1_455 S
Co827 O858 2.037 . S
Co827 N862 2.145 . S
Co827 N883 2.257 1_455 S
O828 Co826 2.143 . S
O828 Co827 2.160 . S
C829 O830 1.278 . S
C829 O837 1.224 . S
O830 C829 1.278 . S
C831 O832 1.245 . S
C831 O843 1.232 . S
O832 C831 1.245 . S
O833 Co827 2.058 . S
O833 C859 1.269 . S
O834 Co826 2.074 . S
O834 C859 1.257 . S
H835 C860 0.930 . S
H836 C866 0.930 . S
O837 Co826 2.093 . S
O837 C829 1.224 . S
H838 C870 0.929 . S
H839 C872 0.930 . S
H840 C873 0.930 . S
H841 C871 0.929 . S
H842 C874 0.928 . S
O843 Co827 2.057 1_655 S
O843 C831 1.232 . S
H844 C863 0.929 . S
H845 C864 0.929 . S
H846 C876 0.931 . S
H847 C868 0.929 . S
H848 C877 0.930 . S
H849 C869 0.931 . S
O850 Co826 2.097 . S
O850 C878 1.214 . S
H851 C879 0.929 . S
H852 C880 0.929 1_455 S
H853 C881 0.930 . S
H854 C882 0.929 . S
H855 C884 0.930 . S
H856 C861 0.930 . S
H857 C865 0.930 . S
O858 Co827 2.037 . S
O858 C878 1.234 . S
C859 O833 1.269 . S
C859 O834 1.257 . S
C860 H835 0.930 . S
C860 C863 1.388 . S
C860 C865 1.418 . S
C861 H856 0.930 . S
C861 C864 1.404 . S
C861 C865 1.353 1_655 S
N862 Co827 2.145 . S
N862 C863 1.397 . S
N862 C864 1.334 1_455 S
C863 H844 0.929 . S
C863 C860 1.388 . S
C863 N862 1.397 . S
C864 H845 0.929 . S
C864 C861 1.404 . S
C864 N862 1.334 1_655 S
C865 H857 0.930 . S
C865 C860 1.418 . S
C865 C861 1.353 1_455 S
C866 H836 0.930 . S
C866 N867 1.330 . S
C866 C868 1.446 . S
N867 Co826 2.151 . S
N867 C866 1.330 . S
N867 C871 1.418 . S
C868 H847 0.929 . S
C868 C866 1.446 . S
C868 C869 1.332 . S
C869 H849 0.931 . S
C869 C868 1.332 . S
C869 C870 1.267 . S
C870 H838 0.929 . S
C870 C869 1.267 . S
C870 C871 1.251 . S
C871 H841 0.929 . S
C871 N867 1.418 . S
C871 C870 1.251 . S
C872 H839 0.930 . S
C872 C874 1.406 . S
C872 C877 1.261 . S
C873 H840 0.930 . S
C873 N875 1.325 . S
C873 C876 1.357 . S
C874 H842 0.928 . S
C874 C872 1.406 . S
C874 N875 1.261 . S
N875 Co826 2.214 . S
N875 C873 1.325 . S
N875 C874 1.261 . S
C876 H846 0.931 . S
C876 C873 1.357 . S
C876 C877 1.312 . S
C877 H848 0.930 . S
C877 C872 1.261 . S
C877 C876 1.312 . S
C878 O850 1.214 . S
C878 O858 1.234 . S
C879 H851 0.929 . S
C879 C882 1.391 . S
C879 C884 1.391 . S
C880 H852 0.929 1_655 S
C880 C881 1.390 . S
C880 N883 1.391 . S
C881 H853 0.930 . S
C881 C880 1.390 . S
C881 C882 1.392 . S
C882 H854 0.929 . S
C882 C879 1.391 . S
C882 C881 1.392 . S
N883 Co827 2.257 1_655 S
N883 C880 1.391 . S
N883 C884 1.388 . S
C884 H855 0.930 . S
C884 C879 1.391 . S
C884 N883 1.388 . S
Co885 O887 2.143 . S
Co885 O893 2.074 . S
Co885 O896 2.093 . S
Co885 O909 2.097 . S
Co885 N926 2.151 . S
Co885 N934 2.214 . S
Co886 O887 2.160 . S
Co886 O892 2.058 . S
Co886 O902 2.057 1_545 S
Co886 O917 2.037 . S
Co886 N921 2.145 . S
Co886 N942 2.257 1_545 S
O887 Co885 2.143 . S
O887 Co886 2.160 . S
C888 O889 1.278 . S
C888 O896 1.224 . S
O889 C888 1.278 . S
C890 O891 1.245 . S
C890 O902 1.232 . S
O891 C890 1.245 . S
O892 Co886 2.058 . S
O892 C918 1.269 . S
O893 Co885 2.074 . S
O893 C918 1.257 . S
H894 C919 0.930 . S
H895 C925 0.930 . S
O896 Co885 2.093 . S
O896 C888 1.224 . S
H897 C929 0.929 . S
H898 C931 0.930 . S
H899 C932 0.930 . S
H900 C930 0.929 . S
H901 C933 0.928 . S
O902 Co886 2.057 1_565 S
O902 C890 1.232 . S
H903 C922 0.929 . S
H904 C923 0.929 . S
H905 C935 0.931 . S
H906 C927 0.929 . S
H907 C936 0.930 . S
H908 C928 0.931 . S
O909 Co885 2.097 . S
O909 C937 1.214 . S
H910 C938 0.929 . S
H911 C939 0.929 1_545 S
H912 C940 0.930 . S
H913 C941 0.929 . S
H914 C943 0.930 . S
H915 C920 0.930 . S
H916 C924 0.930 . S
O917 Co886 2.037 . S
O917 C937 1.234 . S
C918 O892 1.269 . S
C918 O893 1.257 . S
C919 H894 0.930 . S
C919 C922 1.388 . S
C919 C924 1.418 . S
C920 H915 0.930 . S
C920 C923 1.404 . S
C920 C924 1.353 1_565 S
N921 Co886 2.145 . S
N921 C922 1.397 . S
N921 C923 1.334 1_545 S
C922 H903 0.929 . S
C922 C919 1.388 . S
C922 N921 1.397 . S
C923 H904 0.929 . S
C923 C920 1.404 . S
C923 N921 1.334 1_565 S
C924 H916 0.930 . S
C924 C919 1.418 . S
C924 C920 1.353 1_545 S
C925 H895 0.930 . S
C925 N926 1.330 . S
C925 C927 1.446 . S
N926 Co885 2.151 . S
N926 C925 1.330 . S
N926 C930 1.418 . S
C927 H906 0.929 . S
C927 C925 1.446 . S
C927 C928 1.332 . S
C928 H908 0.931 . S
C928 C927 1.332 . S
C928 C929 1.267 . S
C929 H897 0.929 . S
C929 C928 1.267 . S
C929 C930 1.251 . S
C930 H900 0.929 . S
C930 N926 1.418 . S
C930 C929 1.251 . S
C931 H898 0.930 . S
C931 C933 1.406 . S
C931 C936 1.261 . S
C932 H899 0.930 . S
C932 N934 1.325 . S
C932 C935 1.357 . S
C933 H901 0.928 . S
C933 C931 1.406 . S
C933 N934 1.261 . S
N934 Co885 2.214 . S
N934 C932 1.325 . S
N934 C933 1.261 . S
C935 H905 0.931 . S
C935 C932 1.357 . S
C935 C936 1.312 . S
C936 H907 0.930 . S
C936 C931 1.261 . S
C936 C935 1.312 . S
C937 O909 1.214 . S
C937 O917 1.234 . S
C938 H910 0.929 . S
C938 C941 1.391 . S
C938 C943 1.391 . S
C939 H911 0.929 1_565 S
C939 C940 1.390 . S
C939 N942 1.391 . S
C940 H912 0.930 . S
C940 C939 1.390 . S
C940 C941 1.392 . S
C941 H913 0.929 . S
C941 C938 1.391 . S
C941 C940 1.392 . S
N942 Co886 2.257 1_565 S
N942 C939 1.391 . S
N942 C943 1.388 . S
C943 H914 0.930 . S
C943 C938 1.391 . S
C943 N942 1.388 . S
C944 C945 1.349 . S
C944 C946 1.327 . S
C944 H969 0.950 . S
C945 C944 1.349 . S
C945 C961 1.349 . S
C946 C944 1.327 . S
C946 C965 1.429 . S
C946 H970 0.950 . S
C947 C964 1.574 . S
C947 C966 1.368 . S
C947 H971 0.949 . S
H948 C952 0.949 . S
C949 C950 1.349 . S
C949 C951 1.327 . S
C949 H972 0.950 . S
C950 C949 1.349 . S
C950 C962 1.349 . S
C951 C949 1.327 . S
C951 C967 1.429 . S
C951 H973 0.950 . S
C952 H948 0.949 . S
C952 C960 1.574 . S
C952 C968 1.368 . S
H953 C961 0.950 . S
H954 C959 0.950 . S
H955 C960 0.949 . S
H956 C962 0.950 . S
H957 C963 0.950 . S
H958 C964 0.949 . S
C959 H954 0.950 . S
C959 C961 1.327 . S
C959 C965 1.429 . S
C960 C952 1.574 . S
C960 H955 0.949 . S
C960 C966 1.368 . S
C961 C945 1.349 . S
C961 H953 0.950 . S
C961 C959 1.327 . S
C962 C950 1.349 . S
C962 H956 0.950 . S
C962 C963 1.327 . S
C963 H957 0.950 . S
C963 C962 1.327 . S
C963 C967 1.429 . S
C964 C947 1.574 . S
C964 H958 0.949 . S
C964 C968 1.368 . S
C965 C946 1.429 . S
C965 C959 1.429 . S
C965 C966 1.523 . S
C966 C947 1.368 . S
C966 C960 1.368 . S
C966 C965 1.523 . S
C967 C951 1.429 . S
C967 C963 1.429 . S
C967 C968 1.523 . S
C968 C952 1.368 . S
C968 C964 1.368 . S
C968 C967 1.523 . S
H969 C944 0.950 . S
H970 C946 0.950 . S
H971 C947 0.949 . S
H972 C949 0.950 . S
H973 C951 0.950 . S
C974 C975 1.349 . S
C974 C976 1.327 . S
C974 H999 0.950 . S
C975 C974 1.349 . S
C975 C991 1.349 . S
C976 C974 1.327 . S
C976 C995 1.429 . S
C976 H1000 0.950 . S
C977 C994 1.574 . S
C977 C996 1.368 . S
C977 H1001 0.949 . S
H978 C982 0.949 . S
C979 C980 1.349 . S
C979 C981 1.327 . S
C979 H1002 0.950 . S
C980 C979 1.349 . S
C980 C992 1.349 . S
C981 C979 1.327 . S
C981 C997 1.429 . S
C981 H1003 0.950 . S
C982 H978 0.949 . S
C982 C990 1.574 . S
C982 C998 1.368 . S
H983 C991 0.950 . S
H984 C989 0.950 . S
H985 C990 0.949 . S
H986 C992 0.950 . S
H987 C993 0.950 . S
H988 C994 0.949 . S
C989 H984 0.950 . S
C989 C991 1.327 . S
C989 C995 1.429 . S
C990 C982 1.574 . S
C990 H985 0.949 . S
C990 C996 1.368 . S
C991 C975 1.349 . S
C991 H983 0.950 . S
C991 C989 1.327 . S
C992 C980 1.349 . S
C992 H986 0.950 . S
C992 C993 1.327 . S
C993 H987 0.950 . S
C993 C992 1.327 . S
C993 C997 1.429 . S
C994 C977 1.574 . S
C994 H988 0.949 . S
C994 C998 1.368 . S
C995 C976 1.429 . S
C995 C989 1.429 . S
C995 C996 1.523 . S
C996 C977 1.368 . S
C996 C990 1.368 . S
C996 C995 1.523 . S
C997 C981 1.429 . S
C997 C993 1.429 . S
C997 C998 1.523 . S
C998 C982 1.368 . S
C998 C994 1.368 . S
C998 C997 1.523 . S
H999 C974 0.950 . S
H1000 C976 0.950 . S
H1001 C977 0.949 . S
H1002 C979 0.950 . S
H1003 C981 0.950 . S
C1004 C1005 1.349 . S
C1004 C1006 1.327 . S
C1004 H1029 0.950 . S
C1005 C1004 1.349 . S
C1005 C1021 1.349 . S
C1006 C1004 1.327 . S
C1006 C1025 1.429 . S
C1006 H1030 0.950 . S
C1007 C1024 1.574 . S
C1007 C1026 1.368 . S
C1007 H1031 0.949 . S
H1008 C1012 0.949 . S
C1009 C1010 1.349 . S
C1009 C1011 1.327 . S
C1009 H1032 0.950 . S
C1010 C1009 1.349 . S
C1010 C1022 1.349 . S
C1011 C1009 1.327 . S
C1011 C1027 1.429 . S
C1011 H1033 0.950 . S
C1012 H1008 0.949 . S
C1012 C1020 1.574 . S
C1012 C1028 1.368 . S
H1013 C1021 0.950 . S
H1014 C1019 0.950 . S
H1015 C1020 0.949 . S
H1016 C1022 0.950 . S
H1017 C1023 0.950 . S
H1018 C1024 0.949 . S
C1019 H1014 0.950 . S
C1019 C1021 1.327 . S
C1019 C1025 1.429 . S
C1020 C1012 1.574 . S
C1020 H1015 0.949 . S
C1020 C1026 1.368 . S
C1021 C1005 1.349 . S
C1021 H1013 0.950 . S
C1021 C1019 1.327 . S
C1022 C1010 1.349 . S
C1022 H1016 0.950 . S
C1022 C1023 1.327 . S
C1023 H1017 0.950 . S
C1023 C1022 1.327 . S
C1023 C1027 1.429 . S
C1024 C1007 1.574 . S
C1024 H1018 0.949 . S
C1024 C1028 1.368 . S
C1025 C1006 1.429 . S
C1025 C1019 1.429 . S
C1025 C1026 1.523 . S
C1026 C1007 1.368 . S
C1026 C1020 1.368 . S
C1026 C1025 1.523 . S
C1027 C1011 1.429 . S
C1027 C1023 1.429 . S
C1027 C1028 1.523 . S
C1028 C1012 1.368 . S
C1028 C1024 1.368 . S
C1028 C1027 1.523 . S
H1029 C1004 0.950 . S
H1030 C1006 0.950 . S
H1031 C1007 0.949 . S
H1032 C1009 0.950 . S
H1033 C1011 0.950 . S
C1034 C1035 1.349 . S
C1034 C1036 1.327 . S
C1034 H1059 0.950 . S
C1035 C1034 1.349 . S
C1035 C1051 1.349 . S
C1036 C1034 1.327 . S
C1036 C1055 1.429 . S
C1036 H1060 0.950 . S
C1037 C1054 1.574 . S
C1037 C1056 1.368 . S
C1037 H1061 0.949 . S
H1038 C1042 0.949 . S
C1039 C1040 1.349 . S
C1039 C1041 1.327 . S
C1039 H1062 0.950 . S
C1040 C1039 1.349 . S
C1040 C1052 1.349 . S
C1041 C1039 1.327 . S
C1041 C1057 1.429 . S
C1041 H1063 0.950 . S
C1042 H1038 0.949 . S
C1042 C1050 1.574 . S
C1042 C1058 1.368 . S
H1043 C1051 0.950 . S
H1044 C1049 0.950 . S
H1045 C1050 0.949 . S
H1046 C1052 0.950 . S
H1047 C1053 0.950 . S
H1048 C1054 0.949 . S
C1049 H1044 0.950 . S
C1049 C1051 1.327 . S
C1049 C1055 1.429 . S
C1050 C1042 1.574 . S
C1050 H1045 0.949 . S
C1050 C1056 1.368 . S
C1051 C1035 1.349 . S
C1051 H1043 0.950 . S
C1051 C1049 1.327 . S
C1052 C1040 1.349 . S
C1052 H1046 0.950 . S
C1052 C1053 1.327 . S
C1053 H1047 0.950 . S
C1053 C1052 1.327 . S
C1053 C1057 1.429 . S
C1054 C1037 1.574 . S
C1054 H1048 0.949 . S
C1054 C1058 1.368 . S
C1055 C1036 1.429 . S
C1055 C1049 1.429 . S
C1055 C1056 1.523 . S
C1056 C1037 1.368 . S
C1056 C1050 1.368 . S
C1056 C1055 1.523 . S
C1057 C1041 1.429 . S
C1057 C1053 1.429 . S
C1057 C1058 1.523 . S
C1058 C1042 1.368 . S
C1058 C1054 1.368 . S
C1058 C1057 1.523 . S
H1059 C1034 0.950 . S
H1060 C1036 0.950 . S
H1061 C1037 0.949 . S
H1062 C1039 0.950 . S
H1063 C1041 0.950 . S
C1064 C1065 1.349 . S
C1064 C1066 1.327 . S
C1064 H1089 0.950 . S
C1065 C1064 1.349 . S
C1065 C1081 1.349 . S
C1066 C1064 1.327 . S
C1066 C1085 1.429 . S
C1066 H1090 0.950 . S
C1067 C1084 1.574 . S
C1067 C1086 1.368 . S
C1067 H1091 0.949 . S
H1068 C1072 0.949 . S
C1069 C1070 1.349 . S
C1069 C1071 1.327 . S
C1069 H1092 0.950 . S
C1070 C1069 1.349 . S
C1070 C1082 1.349 . S
C1071 C1069 1.327 . S
C1071 C1087 1.429 . S
C1071 H1093 0.950 . S
C1072 H1068 0.949 . S
C1072 C1080 1.574 . S
C1072 C1088 1.368 . S
H1073 C1081 0.950 . S
H1074 C1079 0.950 . S
H1075 C1080 0.949 . S
H1076 C1082 0.950 . S
H1077 C1083 0.950 . S
H1078 C1084 0.949 . S
C1079 H1074 0.950 . S
C1079 C1081 1.327 . S
C1079 C1085 1.429 . S
C1080 C1072 1.574 . S
C1080 H1075 0.949 . S
C1080 C1086 1.368 . S
C1081 C1065 1.349 . S
C1081 H1073 0.950 . S
C1081 C1079 1.327 . S
C1082 C1070 1.349 . S
C1082 H1076 0.950 . S
C1082 C1083 1.327 . S
C1083 H1077 0.950 . S
C1083 C1082 1.327 . S
C1083 C1087 1.429 . S
C1084 C1067 1.574 . S
C1084 H1078 0.949 . S
C1084 C1088 1.368 . S
C1085 C1066 1.429 . S
C1085 C1079 1.429 . S
C1085 C1086 1.523 . S
C1086 C1067 1.368 . S
C1086 C1080 1.368 . S
C1086 C1085 1.523 . S
C1087 C1071 1.429 . S
C1087 C1083 1.429 . S
C1087 C1088 1.523 . S
C1088 C1072 1.368 . S
C1088 C1084 1.368 . S
C1088 C1087 1.523 . S
H1089 C1064 0.950 . S
H1090 C1066 0.950 . S
H1091 C1067 0.949 . S
H1092 C1069 0.950 . S
H1093 C1071 0.950 . S
C1094 C1095 1.349 . S
C1094 C1096 1.327 . S
C1094 H1119 0.950 . S
C1095 C1094 1.349 . S
C1095 C1111 1.349 . S
C1096 C1094 1.327 . S
C1096 C1115 1.429 . S
C1096 H1120 0.950 . S
C1097 C1114 1.574 . S
C1097 C1116 1.368 . S
C1097 H1121 0.949 . S
H1098 C1102 0.949 . S
C1099 C1100 1.349 . S
C1099 C1101 1.327 . S
C1099 H1122 0.950 . S
C1100 C1099 1.349 . S
C1100 C1112 1.349 . S
C1101 C1099 1.327 . S
C1101 C1117 1.429 . S
C1101 H1123 0.950 . S
C1102 H1098 0.949 . S
C1102 C1110 1.574 . S
C1102 C1118 1.368 . S
H1103 C1111 0.950 . S
H1104 C1109 0.950 . S
H1105 C1110 0.949 . S
H1106 C1112 0.950 . S
H1107 C1113 0.950 . S
H1108 C1114 0.949 . S
C1109 H1104 0.950 . S
C1109 C1111 1.327 . S
C1109 C1115 1.429 . S
C1110 C1102 1.574 . S
C1110 H1105 0.949 . S
C1110 C1116 1.368 . S
C1111 C1095 1.349 . S
C1111 H1103 0.950 . S
C1111 C1109 1.327 . S
C1112 C1100 1.349 . S
C1112 H1106 0.950 . S
C1112 C1113 1.327 . S
C1113 H1107 0.950 . S
C1113 C1112 1.327 . S
C1113 C1117 1.429 . S
C1114 C1097 1.574 . S
C1114 H1108 0.949 . S
C1114 C1118 1.368 . S
C1115 C1096 1.429 . S
C1115 C1109 1.429 . S
C1115 C1116 1.523 . S
C1116 C1097 1.368 . S
C1116 C1110 1.368 . S
C1116 C1115 1.523 . S
C1117 C1101 1.429 . S
C1117 C1113 1.429 . S
C1117 C1118 1.523 . S
C1118 C1102 1.368 . S
C1118 C1114 1.368 . S
C1118 C1117 1.523 . S
H1119 C1094 0.950 . S
H1120 C1096 0.950 . S
H1121 C1097 0.949 . S
H1122 C1099 0.950 . S
H1123 C1101 0.950 . S
C1124 C1125 1.349 . S
C1124 C1126 1.327 . S
C1124 H1149 0.950 . S
C1125 C1124 1.349 . S
C1125 C1141 1.349 . S
C1126 C1124 1.327 . S
C1126 C1145 1.429 . S
C1126 H1150 0.950 . S
C1127 C1144 1.574 . S
C1127 C1146 1.368 . S
C1127 H1151 0.949 . S
H1128 C1132 0.949 . S
C1129 C1130 1.349 . S
C1129 C1131 1.327 . S
C1129 H1152 0.950 . S
C1130 C1129 1.349 . S
C1130 C1142 1.349 . S
C1131 C1129 1.327 . S
C1131 C1147 1.429 . S
C1131 H1153 0.950 . S
C1132 H1128 0.949 . S
C1132 C1140 1.574 . S
C1132 C1148 1.368 . S
H1133 C1141 0.950 . S
H1134 C1139 0.950 . S
H1135 C1140 0.949 . S
H1136 C1142 0.950 . S
H1137 C1143 0.950 . S
H1138 C1144 0.949 . S
C1139 H1134 0.950 . S
C1139 C1141 1.327 . S
C1139 C1145 1.429 . S
C1140 C1132 1.574 . S
C1140 H1135 0.949 . S
C1140 C1146 1.368 . S
C1141 C1125 1.349 . S
C1141 H1133 0.950 . S
C1141 C1139 1.327 . S
C1142 C1130 1.349 . S
C1142 H1136 0.950 . S
C1142 C1143 1.327 . S
C1143 H1137 0.950 . S
C1143 C1142 1.327 . S
C1143 C1147 1.429 . S
C1144 C1127 1.574 . S
C1144 H1138 0.949 . S
C1144 C1148 1.368 . S
C1145 C1126 1.429 . S
C1145 C1139 1.429 . S
C1145 C1146 1.523 . S
C1146 C1127 1.368 . S
C1146 C1140 1.368 . S
C1146 C1145 1.523 . S
C1147 C1131 1.429 . S
C1147 C1143 1.429 . S
C1147 C1148 1.523 . S
C1148 C1132 1.368 . S
C1148 C1144 1.368 . S
C1148 C1147 1.523 . S
H1149 C1124 0.950 . S
H1150 C1126 0.950 . S
H1151 C1127 0.949 . S
H1152 C1129 0.950 . S
H1153 C1131 0.950 . S
C1154 C1155 1.349 . S
C1154 C1156 1.327 . S
C1154 H1179 0.950 . S
C1155 C1154 1.349 . S
C1155 C1171 1.349 . S
C1156 C1154 1.327 . S
C1156 C1175 1.429 . S
C1156 H1180 0.950 . S
C1157 C1174 1.574 . S
C1157 C1176 1.368 . S
C1157 H1181 0.949 . S
H1158 C1162 0.949 . S
C1159 C1160 1.349 . S
C1159 C1161 1.327 . S
C1159 H1182 0.950 . S
C1160 C1159 1.349 . S
C1160 C1172 1.349 . S
C1161 C1159 1.327 . S
C1161 C1177 1.429 . S
C1161 H1183 0.950 . S
C1162 H1158 0.949 . S
C1162 C1170 1.574 . S
C1162 C1178 1.368 . S
H1163 C1171 0.950 . S
H1164 C1169 0.950 . S
H1165 C1170 0.949 . S
H1166 C1172 0.950 . S
H1167 C1173 0.950 . S
H1168 C1174 0.949 . S
C1169 H1164 0.950 . S
C1169 C1171 1.327 . S
C1169 C1175 1.429 . S
C1170 C1162 1.574 . S
C1170 H1165 0.949 . S
C1170 C1176 1.368 . S
C1171 C1155 1.349 . S
C1171 H1163 0.950 . S
C1171 C1169 1.327 . S
C1172 C1160 1.349 . S
C1172 H1166 0.950 . S
C1172 C1173 1.327 . S
C1173 H1167 0.950 . S
C1173 C1172 1.327 . S
C1173 C1177 1.429 . S
C1174 C1157 1.574 . S
C1174 H1168 0.949 . S
C1174 C1178 1.368 . S
C1175 C1156 1.429 . S
C1175 C1169 1.429 . S
C1175 C1176 1.523 . S
C1176 C1157 1.368 . S
C1176 C1170 1.368 . S
C1176 C1175 1.523 . S
C1177 C1161 1.429 . S
C1177 C1173 1.429 . S
C1177 C1178 1.523 . S
C1178 C1162 1.368 . S
C1178 C1174 1.368 . S
C1178 C1177 1.523 . S
H1179 C1154 0.950 . S
H1180 C1156 0.950 . S
H1181 C1157 0.949 . S
H1182 C1159 0.950 . S
H1183 C1161 0.950 . S
C1184 C1185 1.349 . S
C1184 C1186 1.327 . S
C1184 H1209 0.950 . S
C1185 C1184 1.349 . S
C1185 C1201 1.349 . S
C1186 C1184 1.327 . S
C1186 C1205 1.429 . S
C1186 H1210 0.950 . S
C1187 C1204 1.574 . S
C1187 C1206 1.368 . S
C1187 H1211 0.949 . S
H1188 C1192 0.949 . S
C1189 C1190 1.349 . S
C1189 C1191 1.327 . S
C1189 H1212 0.950 . S
C1190 C1189 1.349 . S
C1190 C1202 1.349 . S
C1191 C1189 1.327 . S
C1191 C1207 1.429 . S
C1191 H1213 0.950 . S
C1192 H1188 0.949 . S
C1192 C1200 1.574 . S
C1192 C1208 1.368 . S
H1193 C1201 0.950 . S
H1194 C1199 0.950 . S
H1195 C1200 0.949 . S
H1196 C1202 0.950 . S
H1197 C1203 0.950 . S
H1198 C1204 0.949 . S
C1199 H1194 0.950 . S
C1199 C1201 1.327 . S
C1199 C1205 1.429 . S
C1200 C1192 1.574 . S
C1200 H1195 0.949 . S
C1200 C1206 1.368 . S
C1201 C1185 1.349 . S
C1201 H1193 0.950 . S
C1201 C1199 1.327 . S
C1202 C1190 1.349 . S
C1202 H1196 0.950 . S
C1202 C1203 1.327 . S
C1203 H1197 0.950 . S
C1203 C1202 1.327 . S
C1203 C1207 1.429 . S
C1204 C1187 1.574 . S
C1204 H1198 0.949 . S
C1204 C1208 1.368 . S
C1205 C1186 1.429 . S
C1205 C1199 1.429 . S
C1205 C1206 1.523 . S
C1206 C1187 1.368 . S
C1206 C1200 1.368 . S
C1206 C1205 1.523 . S
C1207 C1191 1.429 . S
C1207 C1203 1.429 . S
C1207 C1208 1.523 . S
C1208 C1192 1.368 . S
C1208 C1204 1.368 . S
C1208 C1207 1.523 . S
H1209 C1184 0.950 . S
H1210 C1186 0.950 . S
H1211 C1187 0.949 . S
H1212 C1189 0.950 . S
H1213 C1191 0.950 . S
C1214 C1215 1.349 . S
C1214 C1216 1.327 . S
C1214 H1239 0.950 . S
C1215 C1214 1.349 . S
C1215 C1231 1.349 . S
C1216 C1214 1.327 . S
C1216 C1235 1.429 . S
C1216 H1240 0.950 . S
C1217 C1234 1.574 . S
C1217 C1236 1.368 . S
C1217 H1241 0.949 . S
H1218 C1222 0.949 . S
C1219 C1220 1.349 . S
C1219 C1221 1.327 . S
C1219 H1242 0.950 . S
C1220 C1219 1.349 . S
C1220 C1232 1.349 . S
C1221 C1219 1.327 . S
C1221 C1237 1.429 . S
C1221 H1243 0.950 . S
C1222 H1218 0.949 . S
C1222 C1230 1.574 . S
C1222 C1238 1.368 . S
H1223 C1231 0.950 . S
H1224 C1229 0.950 . S
H1225 C1230 0.949 . S
H1226 C1232 0.950 . S
H1227 C1233 0.950 . S
H1228 C1234 0.949 . S
C1229 H1224 0.950 . S
C1229 C1231 1.327 . S
C1229 C1235 1.429 . S
C1230 C1222 1.574 . S
C1230 H1225 0.949 . S
C1230 C1236 1.368 . S
C1231 C1215 1.349 . S
C1231 H1223 0.950 . S
C1231 C1229 1.327 . S
C1232 C1220 1.349 . S
C1232 H1226 0.950 . S
C1232 C1233 1.327 . S
C1233 H1227 0.950 . S
C1233 C1232 1.327 . S
C1233 C1237 1.429 . S
C1234 C1217 1.574 . S
C1234 H1228 0.949 . S
C1234 C1238 1.368 . S
C1235 C1216 1.429 . S
C1235 C1229 1.429 . S
C1235 C1236 1.523 . S
C1236 C1217 1.368 . S
C1236 C1230 1.368 . S
C1236 C1235 1.523 . S
C1237 C1221 1.429 . S
C1237 C1233 1.429 . S
C1237 C1238 1.523 . S
C1238 C1222 1.368 . S
C1238 C1234 1.368 . S
C1238 C1237 1.523 . S
H1239 C1214 0.950 . S
H1240 C1216 0.950 . S
H1241 C1217 0.949 . S
H1242 C1219 0.950 . S
H1243 C1221 0.950 . S
C1244 C1245 1.349 . S
C1244 C1246 1.327 . S
C1244 H1269 0.950 . S
C1245 C1244 1.349 . S
C1245 C1261 1.349 . S
C1246 C1244 1.327 . S
C1246 C1265 1.429 . S
C1246 H1270 0.950 . S
C1247 C1264 1.574 . S
C1247 C1266 1.368 . S
C1247 H1271 0.949 . S
H1248 C1252 0.949 . S
C1249 C1250 1.349 . S
C1249 C1251 1.327 . S
C1249 H1272 0.950 . S
C1250 C1249 1.349 . S
C1250 C1262 1.349 . S
C1251 C1249 1.327 . S
C1251 C1267 1.429 . S
C1251 H1273 0.950 . S
C1252 H1248 0.949 . S
C1252 C1260 1.574 . S
C1252 C1268 1.368 . S
H1253 C1261 0.950 . S
H1254 C1259 0.950 . S
H1255 C1260 0.949 . S
H1256 C1262 0.950 . S
H1257 C1263 0.950 . S
H1258 C1264 0.949 . S
C1259 H1254 0.950 . S
C1259 C1261 1.327 . S
C1259 C1265 1.429 . S
C1260 C1252 1.574 . S
C1260 H1255 0.949 . S
C1260 C1266 1.368 . S
C1261 C1245 1.349 . S
C1261 H1253 0.950 . S
C1261 C1259 1.327 . S
C1262 C1250 1.349 . S
C1262 H1256 0.950 . S
C1262 C1263 1.327 . S
C1263 H1257 0.950 . S
C1263 C1262 1.327 . S
C1263 C1267 1.429 . S
C1264 C1247 1.574 . S
C1264 H1258 0.949 . S
C1264 C1268 1.368 . S
C1265 C1246 1.429 . S
C1265 C1259 1.429 . S
C1265 C1266 1.523 . S
C1266 C1247 1.368 . S
C1266 C1260 1.368 . S
C1266 C1265 1.523 . S
C1267 C1251 1.429 . S
C1267 C1263 1.429 . S
C1267 C1268 1.523 . S
C1268 C1252 1.368 . S
C1268 C1264 1.368 . S
C1268 C1267 1.523 . S
H1269 C1244 0.950 . S
H1270 C1246 0.950 . S
H1271 C1247 0.949 . S
H1272 C1249 0.950 . S
H1273 C1251 0.950 . S
C1274 C1275 1.349 . S
C1274 C1276 1.327 . S
C1274 H1299 0.950 . S
C1275 C1274 1.349 . S
C1275 C1291 1.349 . S
C1276 C1274 1.327 . S
C1276 C1295 1.429 . S
C1276 H1300 0.950 . S
C1277 C1294 1.574 . S
C1277 C1296 1.368 . S
C1277 H1301 0.949 . S
H1278 C1282 0.949 . S
C1279 C1280 1.349 . S
C1279 C1281 1.327 . S
C1279 H1302 0.950 . S
C1280 C1279 1.349 . S
C1280 C1292 1.349 . S
C1281 C1279 1.327 . S
C1281 C1297 1.429 . S
C1281 H1303 0.950 . S
C1282 H1278 0.949 . S
C1282 C1290 1.574 . S
C1282 C1298 1.368 . S
H1283 C1291 0.950 . S
H1284 C1289 0.950 . S
H1285 C1290 0.949 . S
H1286 C1292 0.950 . S
H1287 C1293 0.950 . S
H1288 C1294 0.949 . S
C1289 H1284 0.950 . S
C1289 C1291 1.327 . S
C1289 C1295 1.429 . S
C1290 C1282 1.574 . S
C1290 H1285 0.949 . S
C1290 C1296 1.368 . S
C1291 C1275 1.349 . S
C1291 H1283 0.950 . S
C1291 C1289 1.327 . S
C1292 C1280 1.349 . S
C1292 H1286 0.950 . S
C1292 C1293 1.327 . S
C1293 H1287 0.950 . S
C1293 C1292 1.327 . S
C1293 C1297 1.429 . S
C1294 C1277 1.574 . S
C1294 H1288 0.949 . S
C1294 C1298 1.368 . S
C1295 C1276 1.429 . S
C1295 C1289 1.429 . S
C1295 C1296 1.523 . S
C1296 C1277 1.368 . S
C1296 C1290 1.368 . S
C1296 C1295 1.523 . S
C1297 C1281 1.429 . S
C1297 C1293 1.429 . S
C1297 C1298 1.523 . S
C1298 C1282 1.368 . S
C1298 C1294 1.368 . S
C1298 C1297 1.523 . S
H1299 C1274 0.950 . S
H1300 C1276 0.950 . S
H1301 C1277 0.949 . S
H1302 C1279 0.950 . S
H1303 C1281 0.950 . S
C1304 C1305 1.349 . S
C1304 C1306 1.327 . S
C1304 H1329 0.950 . S
C1305 C1304 1.349 . S
C1305 C1321 1.349 . S
C1306 C1304 1.327 . S
C1306 C1325 1.429 . S
C1306 H1330 0.950 . S
C1307 C1324 1.574 . S
C1307 C1326 1.368 . S
C1307 H1331 0.949 . S
H1308 C1312 0.949 . S
C1309 C1310 1.349 . S
C1309 C1311 1.327 . S
C1309 H1332 0.950 . S
C1310 C1309 1.349 . S
C1310 C1322 1.349 . S
C1311 C1309 1.327 . S
C1311 C1327 1.429 . S
C1311 H1333 0.950 . S
C1312 H1308 0.949 . S
C1312 C1320 1.574 . S
C1312 C1328 1.368 . S
H1313 C1321 0.950 . S
H1314 C1319 0.950 . S
H1315 C1320 0.949 . S
H1316 C1322 0.950 . S
H1317 C1323 0.950 . S
H1318 C1324 0.949 . S
C1319 H1314 0.950 . S
C1319 C1321 1.327 . S
C1319 C1325 1.429 . S
C1320 C1312 1.574 . S
C1320 H1315 0.949 . S
C1320 C1326 1.368 . S
C1321 C1305 1.349 . S
C1321 H1313 0.950 . S
C1321 C1319 1.327 . S
C1322 C1310 1.349 . S
C1322 H1316 0.950 . S
C1322 C1323 1.327 . S
C1323 H1317 0.950 . S
C1323 C1322 1.327 . S
C1323 C1327 1.429 . S
C1324 C1307 1.574 . S
C1324 H1318 0.949 . S
C1324 C1328 1.368 . S
C1325 C1306 1.429 . S
C1325 C1319 1.429 . S
C1325 C1326 1.523 . S
C1326 C1307 1.368 . S
C1326 C1320 1.368 . S
C1326 C1325 1.523 . S
C1327 C1311 1.429 . S
C1327 C1323 1.429 . S
C1327 C1328 1.523 . S
C1328 C1312 1.368 . S
C1328 C1324 1.368 . S
C1328 C1327 1.523 . S
H1329 C1304 0.950 . S
H1330 C1306 0.950 . S
H1331 C1307 0.949 . S
H1332 C1309 0.950 . S
H1333 C1311 0.950 . S
C1334 C1335 1.349 . S
C1334 C1336 1.327 . S
C1334 H1359 0.950 . S
C1335 C1334 1.349 . S
C1335 C1351 1.349 . S
C1336 C1334 1.327 . S
C1336 C1355 1.429 . S
C1336 H1360 0.950 . S
C1337 C1354 1.574 . S
C1337 C1356 1.368 . S
C1337 H1361 0.949 . S
H1338 C1342 0.949 . S
C1339 C1340 1.349 . S
C1339 C1341 1.327 . S
C1339 H1362 0.950 . S
C1340 C1339 1.349 . S
C1340 C1352 1.349 . S
C1341 C1339 1.327 . S
C1341 C1357 1.429 . S
C1341 H1363 0.950 . S
C1342 H1338 0.949 . S
C1342 C1350 1.574 . S
C1342 C1358 1.368 . S
H1343 C1351 0.950 . S
H1344 C1349 0.950 . S
H1345 C1350 0.949 . S
H1346 C1352 0.950 . S
H1347 C1353 0.950 . S
H1348 C1354 0.949 . S
C1349 H1344 0.950 . S
C1349 C1351 1.327 . S
C1349 C1355 1.429 . S
C1350 C1342 1.574 . S
C1350 H1345 0.949 . S
C1350 C1356 1.368 . S
C1351 C1335 1.349 . S
C1351 H1343 0.950 . S
C1351 C1349 1.327 . S
C1352 C1340 1.349 . S
C1352 H1346 0.950 . S
C1352 C1353 1.327 . S
C1353 H1347 0.950 . S
C1353 C1352 1.327 . S
C1353 C1357 1.429 . S
C1354 C1337 1.574 . S
C1354 H1348 0.949 . S
C1354 C1358 1.368 . S
C1355 C1336 1.429 . S
C1355 C1349 1.429 . S
C1355 C1356 1.523 . S
C1356 C1337 1.368 . S
C1356 C1350 1.368 . S
C1356 C1355 1.523 . S
C1357 C1341 1.429 . S
C1357 C1353 1.429 . S
C1357 C1358 1.523 . S
C1358 C1342 1.368 . S
C1358 C1354 1.368 . S
C1358 C1357 1.523 . S
H1359 C1334 0.950 . S
H1360 C1336 0.950 . S
H1361 C1337 0.949 . S
H1362 C1339 0.950 . S
H1363 C1341 0.950 . S
C1364 C1365 1.349 . S
C1364 C1366 1.327 . S
C1364 H1389 0.950 . S
C1365 C1364 1.349 . S
C1365 C1381 1.349 . S
C1366 C1364 1.327 . S
C1366 C1385 1.429 . S
C1366 H1390 0.950 . S
C1367 C1384 1.574 . S
C1367 C1386 1.368 . S
C1367 H1391 0.949 . S
H1368 C1372 0.949 . S
C1369 C1370 1.349 . S
C1369 C1371 1.327 . S
C1369 H1392 0.950 . S
C1370 C1369 1.349 . S
C1370 C1382 1.349 . S
C1371 C1369 1.327 . S
C1371 C1387 1.429 . S
C1371 H1393 0.950 . S
C1372 H1368 0.949 . S
C1372 C1380 1.574 . S
C1372 C1388 1.368 . S
H1373 C1381 0.950 . S
H1374 C1379 0.950 . S
H1375 C1380 0.949 . S
H1376 C1382 0.950 . S
H1377 C1383 0.950 . S
H1378 C1384 0.949 . S
C1379 H1374 0.950 . S
C1379 C1381 1.327 . S
C1379 C1385 1.429 . S
C1380 C1372 1.574 . S
C1380 H1375 0.949 . S
C1380 C1386 1.368 . S
C1381 C1365 1.349 . S
C1381 H1373 0.950 . S
C1381 C1379 1.327 . S
C1382 C1370 1.349 . S
C1382 H1376 0.950 . S
C1382 C1383 1.327 . S
C1383 H1377 0.950 . S
C1383 C1382 1.327 . S
C1383 C1387 1.429 . S
C1384 C1367 1.574 . S
C1384 H1378 0.949 . S
C1384 C1388 1.368 . S
C1385 C1366 1.429 . S
C1385 C1379 1.429 . S
C1385 C1386 1.523 . S
C1386 C1367 1.368 . S
C1386 C1380 1.368 . S
C1386 C1385 1.523 . S
C1387 C1371 1.429 . S
C1387 C1383 1.429 . S
C1387 C1388 1.523 . S
C1388 C1372 1.368 . S
C1388 C1384 1.368 . S
C1388 C1387 1.523 . S
H1389 C1364 0.950 . S
H1390 C1366 0.950 . S
H1391 C1367 0.949 . S
H1392 C1369 0.950 . S
H1393 C1371 0.950 . S
C1394 C1395 1.349 . S
C1394 C1396 1.327 . S
C1394 H1419 0.950 . S
C1395 C1394 1.349 . S
C1395 C1411 1.349 . S
C1396 C1394 1.327 . S
C1396 C1415 1.429 . S
C1396 H1420 0.950 . S
C1397 C1414 1.574 . S
C1397 C1416 1.368 . S
C1397 H1421 0.949 . S
H1398 C1402 0.949 . S
C1399 C1400 1.349 . S
C1399 C1401 1.327 . S
C1399 H1422 0.950 . S
C1400 C1399 1.349 . S
C1400 C1412 1.349 . S
C1401 C1399 1.327 . S
C1401 C1417 1.429 . S
C1401 H1423 0.950 . S
C1402 H1398 0.949 . S
C1402 C1410 1.574 . S
C1402 C1418 1.368 . S
H1403 C1411 0.950 . S
H1404 C1409 0.950 . S
H1405 C1410 0.949 . S
H1406 C1412 0.950 . S
H1407 C1413 0.950 . S
H1408 C1414 0.949 . S
C1409 H1404 0.950 . S
C1409 C1411 1.327 . S
C1409 C1415 1.429 . S
C1410 C1402 1.574 . S
C1410 H1405 0.949 . S
C1410 C1416 1.368 . S
C1411 C1395 1.349 . S
C1411 H1403 0.950 . S
C1411 C1409 1.327 . S
C1412 C1400 1.349 . S
C1412 H1406 0.950 . S
C1412 C1413 1.327 . S
C1413 H1407 0.950 . S
C1413 C1412 1.327 . S
C1413 C1417 1.429 . S
C1414 C1397 1.574 . S
C1414 H1408 0.949 . S
C1414 C1418 1.368 . S
C1415 C1396 1.429 . S
C1415 C1409 1.429 . S
C1415 C1416 1.523 . S
C1416 C1397 1.368 . S
C1416 C1410 1.368 . S
C1416 C1415 1.523 . S
C1417 C1401 1.429 . S
C1417 C1413 1.429 . S
C1417 C1418 1.523 . S
C1418 C1402 1.368 . S
C1418 C1414 1.368 . S
C1418 C1417 1.523 . S
H1419 C1394 0.950 . S
H1420 C1396 0.950 . S
H1421 C1397 0.949 . S
H1422 C1399 0.950 . S
H1423 C1401 0.950 . S
C1424 C1425 1.349 . S
C1424 C1426 1.327 . S
C1424 H1449 0.950 . S
C1425 C1424 1.349 . S
C1425 C1441 1.349 . S
C1426 C1424 1.327 . S
C1426 C1445 1.429 . S
C1426 H1450 0.950 . S
C1427 C1444 1.574 . S
C1427 C1446 1.368 . S
C1427 H1451 0.949 . S
H1428 C1432 0.949 . S
C1429 C1430 1.349 . S
C1429 C1431 1.327 . S
C1429 H1452 0.950 . S
C1430 C1429 1.349 . S
C1430 C1442 1.349 . S
C1431 C1429 1.327 . S
C1431 C1447 1.429 . S
C1431 H1453 0.950 . S
C1432 H1428 0.949 . S
C1432 C1440 1.574 . S
C1432 C1448 1.368 . S
H1433 C1441 0.950 . S
H1434 C1439 0.950 . S
H1435 C1440 0.949 . S
H1436 C1442 0.950 . S
H1437 C1443 0.950 . S
H1438 C1444 0.949 . S
C1439 H1434 0.950 . S
C1439 C1441 1.327 . S
C1439 C1445 1.429 . S
C1440 C1432 1.574 . S
C1440 H1435 0.949 . S
C1440 C1446 1.368 . S
C1441 C1425 1.349 . S
C1441 H1433 0.950 . S
C1441 C1439 1.327 . S
C1442 C1430 1.349 . S
C1442 H1436 0.950 . S
C1442 C1443 1.327 . S
C1443 H1437 0.950 . S
C1443 C1442 1.327 . S
C1443 C1447 1.429 . S
C1444 C1427 1.574 . S
C1444 H1438 0.949 . S
C1444 C1448 1.368 . S
C1445 C1426 1.429 . S
C1445 C1439 1.429 . S
C1445 C1446 1.523 . S
C1446 C1427 1.368 . S
C1446 C1440 1.368 . S
C1446 C1445 1.523 . S
C1447 C1431 1.429 . S
C1447 C1443 1.429 . S
C1447 C1448 1.523 . S
C1448 C1432 1.368 . S
C1448 C1444 1.368 . S
C1448 C1447 1.523 . S
H1449 C1424 0.950 . S
H1450 C1426 0.950 . S
H1451 C1427 0.949 . S
H1452 C1429 0.950 . S
H1453 C1431 0.950 . S
C1454 C1455 1.349 . S
C1454 C1456 1.327 . S
C1454 H1479 0.950 . S
C1455 C1454 1.349 . S
C1455 C1471 1.349 . S
C1456 C1454 1.327 . S
C1456 C1475 1.429 . S
C1456 H1480 0.950 . S
C1457 C1474 1.574 . S
C1457 C1476 1.368 . S
C1457 H1481 0.949 . S
H1458 C1462 0.949 . S
C1459 C1460 1.349 . S
C1459 C1461 1.327 . S
C1459 H1482 0.950 . S
C1460 C1459 1.349 . S
C1460 C1472 1.349 . S
C1461 C1459 1.327 . S
C1461 C1477 1.429 . S
C1461 H1483 0.950 . S
C1462 H1458 0.949 . S
C1462 C1470 1.574 . S
C1462 C1478 1.368 . S
H1463 C1471 0.950 . S
H1464 C1469 0.950 . S
H1465 C1470 0.949 . S
H1466 C1472 0.950 . S
H1467 C1473 0.950 . S
H1468 C1474 0.949 . S
C1469 H1464 0.950 . S
C1469 C1471 1.327 . S
C1469 C1475 1.429 . S
C1470 C1462 1.574 . S
C1470 H1465 0.949 . S
C1470 C1476 1.368 . S
C1471 C1455 1.349 . S
C1471 H1463 0.950 . S
C1471 C1469 1.327 . S
C1472 C1460 1.349 . S
C1472 H1466 0.950 . S
C1472 C1473 1.327 . S
C1473 H1467 0.950 . S
C1473 C1472 1.327 . S
C1473 C1477 1.429 . S
C1474 C1457 1.574 . S
C1474 H1468 0.949 . S
C1474 C1478 1.368 . S
C1475 C1456 1.429 . S
C1475 C1469 1.429 . S
C1475 C1476 1.523 . S
C1476 C1457 1.368 . S
C1476 C1470 1.368 . S
C1476 C1475 1.523 . S
C1477 C1461 1.429 . S
C1477 C1473 1.429 . S
C1477 C1478 1.523 . S
C1478 C1462 1.368 . S
C1478 C1474 1.368 . S
C1478 C1477 1.523 . S
H1479 C1454 0.950 . S
H1480 C1456 0.950 . S
H1481 C1457 0.949 . S
H1482 C1459 0.950 . S
H1483 C1461 0.950 . S
C1484 C1485 1.349 . S
C1484 C1486 1.327 . S
C1484 H1509 0.950 . S
C1485 C1484 1.349 . S
C1485 C1501 1.349 . S
C1486 C1484 1.327 . S
C1486 C1505 1.429 . S
C1486 H1510 0.950 . S
C1487 C1504 1.574 . S
C1487 C1506 1.368 . S
C1487 H1511 0.949 . S
H1488 C1492 0.949 . S
C1489 C1490 1.349 . S
C1489 C1491 1.327 . S
C1489 H1512 0.950 . S
C1490 C1489 1.349 . S
C1490 C1502 1.349 . S
C1491 C1489 1.327 . S
C1491 C1507 1.429 . S
C1491 H1513 0.950 . S
C1492 H1488 0.949 . S
C1492 C1500 1.574 . S
C1492 C1508 1.368 . S
H1493 C1501 0.950 . S
H1494 C1499 0.950 . S
H1495 C1500 0.949 . S
H1496 C1502 0.950 . S
H1497 C1503 0.950 . S
H1498 C1504 0.949 . S
C1499 H1494 0.950 . S
C1499 C1501 1.327 . S
C1499 C1505 1.429 . S
C1500 C1492 1.574 . S
C1500 H1495 0.949 . S
C1500 C1506 1.368 . S
C1501 C1485 1.349 . S
C1501 H1493 0.950 . S
C1501 C1499 1.327 . S
C1502 C1490 1.349 . S
C1502 H1496 0.950 . S
C1502 C1503 1.327 . S
C1503 H1497 0.950 . S
C1503 C1502 1.327 . S
C1503 C1507 1.429 . S
C1504 C1487 1.574 . S
C1504 H1498 0.949 . S
C1504 C1508 1.368 . S
C1505 C1486 1.429 . S
C1505 C1499 1.429 . S
C1505 C1506 1.523 . S
C1506 C1487 1.368 . S
C1506 C1500 1.368 . S
C1506 C1505 1.523 . S
C1507 C1491 1.429 . S
C1507 C1503 1.429 . S
C1507 C1508 1.523 . S
C1508 C1492 1.368 . S
C1508 C1504 1.368 . S
C1508 C1507 1.523 . S
H1509 C1484 0.950 . S
H1510 C1486 0.950 . S
H1511 C1487 0.949 . S
H1512 C1489 0.950 . S
H1513 C1491 0.950 . S
C1514 C1515 1.349 . S
C1514 C1516 1.327 . S
C1514 H1539 0.950 . S
C1515 C1514 1.349 . S
C1515 C1531 1.349 . S
C1516 C1514 1.327 . S
C1516 C1535 1.429 . S
C1516 H1540 0.950 . S
C1517 C1534 1.574 . S
C1517 C1536 1.368 . S
C1517 H1541 0.949 . S
H1518 C1522 0.949 . S
C1519 C1520 1.349 . S
C1519 C1521 1.327 . S
C1519 H1542 0.950 . S
C1520 C1519 1.349 . S
C1520 C1532 1.349 . S
C1521 C1519 1.327 . S
C1521 C1537 1.429 . S
C1521 H1543 0.950 . S
C1522 H1518 0.949 . S
C1522 C1530 1.574 . S
C1522 C1538 1.368 . S
H1523 C1531 0.950 . S
H1524 C1529 0.950 . S
H1525 C1530 0.949 . S
H1526 C1532 0.950 . S
H1527 C1533 0.950 . S
H1528 C1534 0.949 . S
C1529 H1524 0.950 . S
C1529 C1531 1.327 . S
C1529 C1535 1.429 . S
C1530 C1522 1.574 . S
C1530 H1525 0.949 . S
C1530 C1536 1.368 . S
C1531 C1515 1.349 . S
C1531 H1523 0.950 . S
C1531 C1529 1.327 . S
C1532 C1520 1.349 . S
C1532 H1526 0.950 . S
C1532 C1533 1.327 . S
C1533 H1527 0.950 . S
C1533 C1532 1.327 . S
C1533 C1537 1.429 . S
C1534 C1517 1.574 . S
C1534 H1528 0.949 . S
C1534 C1538 1.368 . S
C1535 C1516 1.429 . S
C1535 C1529 1.429 . S
C1535 C1536 1.523 . S
C1536 C1517 1.368 . S
C1536 C1530 1.368 . S
C1536 C1535 1.523 . S
C1537 C1521 1.429 . S
C1537 C1533 1.429 . S
C1537 C1538 1.523 . S
C1538 C1522 1.368 . S
C1538 C1534 1.368 . S
C1538 C1537 1.523 . S
H1539 C1514 0.950 . S
H1540 C1516 0.950 . S
H1541 C1517 0.949 . S
H1542 C1519 0.950 . S
H1543 C1521 0.950 . S
C1544 C1545 1.349 . S
C1544 C1546 1.327 . S
C1544 H1569 0.950 . S
C1545 C1544 1.349 . S
C1545 C1561 1.349 . S
C1546 C1544 1.327 . S
C1546 C1565 1.429 . S
C1546 H1570 0.950 . S
C1547 C1564 1.574 . S
C1547 C1566 1.368 . S
C1547 H1571 0.949 . S
H1548 C1552 0.949 . S
C1549 C1550 1.349 . S
C1549 C1551 1.327 . S
C1549 H1572 0.950 . S
C1550 C1549 1.349 . S
C1550 C1562 1.349 . S
C1551 C1549 1.327 . S
C1551 C1567 1.429 . S
C1551 H1573 0.950 . S
C1552 H1548 0.949 . S
C1552 C1560 1.574 . S
C1552 C1568 1.368 . S
H1553 C1561 0.950 . S
H1554 C1559 0.950 . S
H1555 C1560 0.949 . S
H1556 C1562 0.950 . S
H1557 C1563 0.950 . S
H1558 C1564 0.949 . S
C1559 H1554 0.950 . S
C1559 C1561 1.327 . S
C1559 C1565 1.429 . S
C1560 C1552 1.574 . S
C1560 H1555 0.949 . S
C1560 C1566 1.368 . S
C1561 C1545 1.349 . S
C1561 H1553 0.950 . S
C1561 C1559 1.327 . S
C1562 C1550 1.349 . S
C1562 H1556 0.950 . S
C1562 C1563 1.327 . S
C1563 H1557 0.950 . S
C1563 C1562 1.327 . S
C1563 C1567 1.429 . S
C1564 C1547 1.574 . S
C1564 H1558 0.949 . S
C1564 C1568 1.368 . S
C1565 C1546 1.429 . S
C1565 C1559 1.429 . S
C1565 C1566 1.523 . S
C1566 C1547 1.368 . S
C1566 C1560 1.368 . S
C1566 C1565 1.523 . S
C1567 C1551 1.429 . S
C1567 C1563 1.429 . S
C1567 C1568 1.523 . S
C1568 C1552 1.368 . S
C1568 C1564 1.368 . S
C1568 C1567 1.523 . S
H1569 C1544 0.950 . S
H1570 C1546 0.950 . S
H1571 C1547 0.949 . S
H1572 C1549 0.950 . S
H1573 C1551 0.950 . S
C1574 C1575 1.349 . S
C1574 C1576 1.327 . S
C1574 H1599 0.950 . S
C1575 C1574 1.349 . S
C1575 C1591 1.349 . S
C1576 C1574 1.327 . S
C1576 C1595 1.429 . S
C1576 H1600 0.950 . S
C1577 C1594 1.574 . S
C1577 C1596 1.368 . S
C1577 H1601 0.949 . S
H1578 C1582 0.949 . S
C1579 C1580 1.349 . S
C1579 C1581 1.327 . S
C1579 H1602 0.950 . S
C1580 C1579 1.349 . S
C1580 C1592 1.349 . S
C1581 C1579 1.327 . S
C1581 C1597 1.429 . S
C1581 H1603 0.950 . S
C1582 H1578 0.949 . S
C1582 C1590 1.574 . S
C1582 C1598 1.368 . S
H1583 C1591 0.950 . S
H1584 C1589 0.950 . S
H1585 C1590 0.949 . S
H1586 C1592 0.950 . S
H1587 C1593 0.950 . S
H1588 C1594 0.949 . S
C1589 H1584 0.950 . S
C1589 C1591 1.327 . S
C1589 C1595 1.429 . S
C1590 C1582 1.574 . S
C1590 H1585 0.949 . S
C1590 C1596 1.368 . S
C1591 C1575 1.349 . S
C1591 H1583 0.950 . S
C1591 C1589 1.327 . S
C1592 C1580 1.349 . S
C1592 H1586 0.950 . S
C1592 C1593 1.327 . S
C1593 H1587 0.950 . S
C1593 C1592 1.327 . S
C1593 C1597 1.429 . S
C1594 C1577 1.574 . S
C1594 H1588 0.949 . S
C1594 C1598 1.368 . S
C1595 C1576 1.429 . S
C1595 C1589 1.429 . S
C1595 C1596 1.523 . S
C1596 C1577 1.368 . S
C1596 C1590 1.368 . S
C1596 C1595 1.523 . S
C1597 C1581 1.429 . S
C1597 C1593 1.429 . S
C1597 C1598 1.523 . S
C1598 C1582 1.368 . S
C1598 C1594 1.368 . S
C1598 C1597 1.523 . S
H1599 C1574 0.950 . S
H1600 C1576 0.950 . S
H1601 C1577 0.949 . S
H1602 C1579 0.950 . S
H1603 C1581 0.950 . S
C1604 C1605 1.349 . S
C1604 C1606 1.327 . S
C1604 H1629 0.950 . S
C1605 C1604 1.349 . S
C1605 C1621 1.349 . S
C1606 C1604 1.327 . S
C1606 C1625 1.429 . S
C1606 H1630 0.950 . S
C1607 C1624 1.574 . S
C1607 C1626 1.368 . S
C1607 H1631 0.949 . S
H1608 C1612 0.949 . S
C1609 C1610 1.349 . S
C1609 C1611 1.327 . S
C1609 H1632 0.950 . S
C1610 C1609 1.349 . S
C1610 C1622 1.349 . S
C1611 C1609 1.327 . S
C1611 C1627 1.429 . S
C1611 H1633 0.950 . S
C1612 H1608 0.949 . S
C1612 C1620 1.574 . S
C1612 C1628 1.368 . S
H1613 C1621 0.950 . S
H1614 C1619 0.950 . S
H1615 C1620 0.949 . S
H1616 C1622 0.950 . S
H1617 C1623 0.950 . S
H1618 C1624 0.949 . S
C1619 H1614 0.950 . S
C1619 C1621 1.327 . S
C1619 C1625 1.429 . S
C1620 C1612 1.574 . S
C1620 H1615 0.949 . S
C1620 C1626 1.368 . S
C1621 C1605 1.349 . S
C1621 H1613 0.950 . S
C1621 C1619 1.327 . S
C1622 C1610 1.349 . S
C1622 H1616 0.950 . S
C1622 C1623 1.327 . S
C1623 H1617 0.950 . S
C1623 C1622 1.327 . S
C1623 C1627 1.429 . S
C1624 C1607 1.574 . S
C1624 H1618 0.949 . S
C1624 C1628 1.368 . S
C1625 C1606 1.429 . S
C1625 C1619 1.429 . S
C1625 C1626 1.523 . S
C1626 C1607 1.368 . S
C1626 C1620 1.368 . S
C1626 C1625 1.523 . S
C1627 C1611 1.429 . S
C1627 C1623 1.429 . S
C1627 C1628 1.523 . S
C1628 C1612 1.368 . S
C1628 C1624 1.368 . S
C1628 C1627 1.523 . S
H1629 C1604 0.950 . S
H1630 C1606 0.950 . S
H1631 C1607 0.949 . S
H1632 C1609 0.950 . S
H1633 C1611 0.950 . S
C1634 C1635 1.349 . S
C1634 C1636 1.327 . S
C1634 H1659 0.950 . S
C1635 C1634 1.349 . S
C1635 C1651 1.349 . S
C1636 C1634 1.327 . S
C1636 C1655 1.429 . S
C1636 H1660 0.950 . S
C1637 C1654 1.574 . S
C1637 C1656 1.368 . S
C1637 H1661 0.949 . S
H1638 C1642 0.949 . S
C1639 C1640 1.349 . S
C1639 C1641 1.327 . S
C1639 H1662 0.950 . S
C1640 C1639 1.349 . S
C1640 C1652 1.349 . S
C1641 C1639 1.327 . S
C1641 C1657 1.429 . S
C1641 H1663 0.950 . S
C1642 H1638 0.949 . S
C1642 C1650 1.574 . S
C1642 C1658 1.368 . S
H1643 C1651 0.950 . S
H1644 C1649 0.950 . S
H1645 C1650 0.949 . S
H1646 C1652 0.950 . S
H1647 C1653 0.950 . S
H1648 C1654 0.949 . S
C1649 H1644 0.950 . S
C1649 C1651 1.327 . S
C1649 C1655 1.429 . S
C1650 C1642 1.574 . S
C1650 H1645 0.949 . S
C1650 C1656 1.368 . S
C1651 C1635 1.349 . S
C1651 H1643 0.950 . S
C1651 C1649 1.327 . S
C1652 C1640 1.349 . S
C1652 H1646 0.950 . S
C1652 C1653 1.327 . S
C1653 H1647 0.950 . S
C1653 C1652 1.327 . S
C1653 C1657 1.429 . S
C1654 C1637 1.574 . S
C1654 H1648 0.949 . S
C1654 C1658 1.368 . S
C1655 C1636 1.429 . S
C1655 C1649 1.429 . S
C1655 C1656 1.523 . S
C1656 C1637 1.368 . S
C1656 C1650 1.368 . S
C1656 C1655 1.523 . S
C1657 C1641 1.429 . S
C1657 C1653 1.429 . S
C1657 C1658 1.523 . S
C1658 C1642 1.368 . S
C1658 C1654 1.368 . S
C1658 C1657 1.523 . S
H1659 C1634 0.950 . S
H1660 C1636 0.950 . S
H1661 C1637 0.949 . S
H1662 C1639 0.950 . S
H1663 C1641 0.950 . S
C1664 C1665 1.349 . S
C1664 C1666 1.327 . S
C1664 H1689 0.950 . S
C1665 C1664 1.349 . S
C1665 C1681 1.349 . S
C1666 C1664 1.327 . S
C1666 C1685 1.429 . S
C1666 H1690 0.950 . S
C1667 C1684 1.574 1_554 S
C1667 C1686 1.368 . S
C1667 H1691 0.949 . S
H1668 C1672 0.949 . S
C1669 C1670 1.349 . S
C1669 C1671 1.327 . S
C1669 H1692 0.950 . S
C1670 C1669 1.349 . S
C1670 C1682 1.349 . S
C1671 C1669 1.327 . S
C1671 C1687 1.429 . S
C1671 H1693 0.950 . S
C1672 H1668 0.949 . S
C1672 C1680 1.574 1_556 S
C1672 C1688 1.368 . S
H1673 C1681 0.950 . S
H1674 C1679 0.950 . S
H1675 C1680 0.949 . S
H1676 C1682 0.950 . S
H1677 C1683 0.950 . S
H1678 C1684 0.949 . S
C1679 H1674 0.950 . S
C1679 C1681 1.327 . S
C1679 C1685 1.429 . S
C1680 C1672 1.574 1_554 S
C1680 H1675 0.949 . S
C1680 C1686 1.368 . S
C1681 C1665 1.349 . S
C1681 H1673 0.950 . S
C1681 C1679 1.327 . S
C1682 C1670 1.349 . S
C1682 H1676 0.950 . S
C1682 C1683 1.327 . S
C1683 H1677 0.950 . S
C1683 C1682 1.327 . S
C1683 C1687 1.429 . S
C1684 C1667 1.574 1_556 S
C1684 H1678 0.949 . S
C1684 C1688 1.368 . S
C1685 C1666 1.429 . S
C1685 C1679 1.429 . S
C1685 C1686 1.523 . S
C1686 C1667 1.368 . S
C1686 C1680 1.368 . S
C1686 C1685 1.523 . S
C1687 C1671 1.429 . S
C1687 C1683 1.429 . S
C1687 C1688 1.523 . S
C1688 C1672 1.368 . S
C1688 C1684 1.368 . S
C1688 C1687 1.523 . S
H1689 C1664 0.950 . S
H1690 C1666 0.950 . S
H1691 C1667 0.949 . S
H1692 C1669 0.950 . S
H1693 C1671 0.950 . S
C1694 C1695 1.349 . S
C1694 C1696 1.327 . S
C1694 H1719 0.950 . S
C1695 C1694 1.349 . S
C1695 C1711 1.349 . S
C1696 C1694 1.327 . S
C1696 C1715 1.429 . S
C1696 H1720 0.950 . S
C1697 C1714 1.574 . S
C1697 C1716 1.368 . S
C1697 H1721 0.949 . S
H1698 C1702 0.949 . S
C1699 C1700 1.349 . S
C1699 C1701 1.327 . S
C1699 H1722 0.950 . S
C1700 C1699 1.349 . S
C1700 C1712 1.349 . S
C1701 C1699 1.327 . S
C1701 C1717 1.429 . S
C1701 H1723 0.950 . S
C1702 H1698 0.949 . S
C1702 C1710 1.574 . S
C1702 C1718 1.368 . S
H1703 C1711 0.950 . S
H1704 C1709 0.950 . S
H1705 C1710 0.949 . S
H1706 C1712 0.950 . S
H1707 C1713 0.950 . S
H1708 C1714 0.949 . S
C1709 H1704 0.950 . S
C1709 C1711 1.327 . S
C1709 C1715 1.429 . S
C1710 C1702 1.574 . S
C1710 H1705 0.949 . S
C1710 C1716 1.368 . S
C1711 C1695 1.349 . S
C1711 H1703 0.950 . S
C1711 C1709 1.327 . S
C1712 C1700 1.349 . S
C1712 H1706 0.950 . S
C1712 C1713 1.327 . S
C1713 H1707 0.950 . S
C1713 C1712 1.327 . S
C1713 C1717 1.429 . S
C1714 C1697 1.574 . S
C1714 H1708 0.949 . S
C1714 C1718 1.368 . S
C1715 C1696 1.429 . S
C1715 C1709 1.429 . S
C1715 C1716 1.523 . S
C1716 C1697 1.368 . S
C1716 C1710 1.368 . S
C1716 C1715 1.523 . S
C1717 C1701 1.429 . S
C1717 C1713 1.429 . S
C1717 C1718 1.523 . S
C1718 C1702 1.368 . S
C1718 C1714 1.368 . S
C1718 C1717 1.523 . S
H1719 C1694 0.950 . S
H1720 C1696 0.950 . S
H1721 C1697 0.949 . S
H1722 C1699 0.950 . S
H1723 C1701 0.950 . S
C1724 C1725 1.349 . S
C1724 C1726 1.327 . S
C1724 H1749 0.950 . S
C1725 C1724 1.349 . S
C1725 C1741 1.349 . S
C1726 C1724 1.327 . S
C1726 C1745 1.429 . S
C1726 H1750 0.950 . S
C1727 C1744 1.574 1_554 S
C1727 C1746 1.368 . S
C1727 H1751 0.949 . S
H1728 C1732 0.949 . S
C1729 C1730 1.349 . S
C1729 C1731 1.327 . S
C1729 H1752 0.950 . S
C1730 C1729 1.349 . S
C1730 C1742 1.349 . S
C1731 C1729 1.327 . S
C1731 C1747 1.429 . S
C1731 H1753 0.950 . S
C1732 H1728 0.949 . S
C1732 C1740 1.574 1_556 S
C1732 C1748 1.368 . S
H1733 C1741 0.950 . S
H1734 C1739 0.950 . S
H1735 C1740 0.949 . S
H1736 C1742 0.950 . S
H1737 C1743 0.950 . S
H1738 C1744 0.949 . S
C1739 H1734 0.950 . S
C1739 C1741 1.327 . S
C1739 C1745 1.429 . S
C1740 C1732 1.574 1_554 S
C1740 H1735 0.949 . S
C1740 C1746 1.368 . S
C1741 C1725 1.349 . S
C1741 H1733 0.950 . S
C1741 C1739 1.327 . S
C1742 C1730 1.349 . S
C1742 H1736 0.950 . S
C1742 C1743 1.327 . S
C1743 H1737 0.950 . S
C1743 C1742 1.327 . S
C1743 C1747 1.429 . S
C1744 C1727 1.574 1_556 S
C1744 H1738 0.949 . S
C1744 C1748 1.368 . S
C1745 C1726 1.429 . S
C1745 C1739 1.429 . S
C1745 C1746 1.523 . S
C1746 C1727 1.368 . S
C1746 C1740 1.368 . S
C1746 C1745 1.523 . S
C1747 C1731 1.429 . S
C1747 C1743 1.429 . S
C1747 C1748 1.523 . S
C1748 C1732 1.368 . S
C1748 C1744 1.368 . S
C1748 C1747 1.523 . S
H1749 C1724 0.950 . S
H1750 C1726 0.950 . S
H1751 C1727 0.949 . S
H1752 C1729 0.950 . S
H1753 C1731 0.950 . S
C1754 C1755 1.349 . S
C1754 C1756 1.327 . S
C1754 H1779 0.950 . S
C1755 C1754 1.349 . S
C1755 C1771 1.349 1_565 S
C1756 C1754 1.327 . S
C1756 C1775 1.429 . S
C1756 H1780 0.950 . S
C1757 C1774 1.574 . S
C1757 C1776 1.368 1_545 S
C1757 H1781 0.949 . S
H1758 C1762 0.949 . S
C1759 C1760 1.349 1_545 S
C1759 C1761 1.327 . S
C1759 H1782 0.950 . S
C1760 C1759 1.349 1_565 S
C1760 C1772 1.349 . S
C1761 C1759 1.327 . S
C1761 C1777 1.429 1_545 S
C1761 H1783 0.950 . S
C1762 H1758 0.949 . S
C1762 C1770 1.574 . S
C1762 C1778 1.368 . S
H1763 C1771 0.950 . S
H1764 C1769 0.950 . S
H1765 C1770 0.949 . S
H1766 C1772 0.950 . S
H1767 C1773 0.950 . S
H1768 C1774 0.949 . S
C1769 H1764 0.950 . S
C1769 C1771 1.327 . S
C1769 C1775 1.429 1_545 S
C1770 C1762 1.574 . S
C1770 H1765 0.949 . S
C1770 C1776 1.368 . S
C1771 C1755 1.349 1_545 S
C1771 H1763 0.950 . S
C1771 C1769 1.327 . S
C1772 C1760 1.349 . S
C1772 H1766 0.950 . S
C1772 C1773 1.327 . S
C1773 H1767 0.950 . S
C1773 C1772 1.327 . S
C1773 C1777 1.429 . S
C1774 C1757 1.574 . S
C1774 H1768 0.949 . S
C1774 C1778 1.368 1_545 S
C1775 C1756 1.429 . S
C1775 C1769 1.429 1_565 S
C1775 C1776 1.523 . S
C1776 C1757 1.368 1_565 S
C1776 C1770 1.368 . S
C1776 C1775 1.523 . S
C1777 C1761 1.429 1_565 S
C1777 C1773 1.429 . S
C1777 C1778 1.523 . S
C1778 C1762 1.368 . S
C1778 C1774 1.368 1_565 S
C1778 C1777 1.523 . S
H1779 C1754 0.950 . S
H1780 C1756 0.950 . S
H1781 C1757 0.949 . S
H1782 C1759 0.950 . S
H1783 C1761 0.950 . S
C1784 C1785 1.349 . S
C1784 C1786 1.327 . S
C1784 H1809 0.950 . S
C1785 C1784 1.349 . S
C1785 C1801 1.349 . S
C1786 C1784 1.327 . S
C1786 C1805 1.429 . S
C1786 H1810 0.950 . S
C1787 C1804 1.574 1_556 S
C1787 C1806 1.368 . S
C1787 H1811 0.949 . S
H1788 C1792 0.949 . S
C1789 C1790 1.349 . S
C1789 C1791 1.327 . S
C1789 H1812 0.950 . S
C1790 C1789 1.349 . S
C1790 C1802 1.349 . S
C1791 C1789 1.327 . S
C1791 C1807 1.429 . S
C1791 H1813 0.950 . S
C1792 H1788 0.949 . S
C1792 C1800 1.574 1_554 S
C1792 C1808 1.368 . S
H1793 C1801 0.950 . S
H1794 C1799 0.950 . S
H1795 C1800 0.949 . S
H1796 C1802 0.950 . S
H1797 C1803 0.950 . S
H1798 C1804 0.949 . S
C1799 H1794 0.950 . S
C1799 C1801 1.327 . S
C1799 C1805 1.429 . S
C1800 C1792 1.574 1_556 S
C1800 H1795 0.949 . S
C1800 C1806 1.368 . S
C1801 C1785 1.349 . S
C1801 H1793 0.950 . S
C1801 C1799 1.327 . S
C1802 C1790 1.349 . S
C1802 H1796 0.950 . S
C1802 C1803 1.327 . S
C1803 H1797 0.950 . S
C1803 C1802 1.327 . S
C1803 C1807 1.429 . S
C1804 C1787 1.574 1_554 S
C1804 H1798 0.949 . S
C1804 C1808 1.368 . S
C1805 C1786 1.429 . S
C1805 C1799 1.429 . S
C1805 C1806 1.523 . S
C1806 C1787 1.368 . S
C1806 C1800 1.368 . S
C1806 C1805 1.523 . S
C1807 C1791 1.429 . S
C1807 C1803 1.429 . S
C1807 C1808 1.523 . S
C1808 C1792 1.368 . S
C1808 C1804 1.368 . S
C1808 C1807 1.523 . S
H1809 C1784 0.950 . S
H1810 C1786 0.950 . S
H1811 C1787 0.949 . S
H1812 C1789 0.950 . S
H1813 C1791 0.950 . S
C1814 C1815 1.349 . S
C1814 C1816 1.327 . S
C1814 H1839 0.950 . S
C1815 C1814 1.349 . S
C1815 C1831 1.349 . S
C1816 C1814 1.327 . S
C1816 C1835 1.429 . S
C1816 H1840 0.950 . S
C1817 C1834 1.574 . S
C1817 C1836 1.368 . S
C1817 H1841 0.949 . S
H1818 C1822 0.949 . S
C1819 C1820 1.349 . S
C1819 C1821 1.327 . S
C1819 H1842 0.950 . S
C1820 C1819 1.349 . S
C1820 C1832 1.349 . S
C1821 C1819 1.327 . S
C1821 C1837 1.429 . S
C1821 H1843 0.950 . S
C1822 H1818 0.949 . S
C1822 C1830 1.574 . S
C1822 C1838 1.368 . S
H1823 C1831 0.950 . S
H1824 C1829 0.950 . S
H1825 C1830 0.949 . S
H1826 C1832 0.950 . S
H1827 C1833 0.950 . S
H1828 C1834 0.949 . S
C1829 H1824 0.950 . S
C1829 C1831 1.327 . S
C1829 C1835 1.429 . S
C1830 C1822 1.574 . S
C1830 H1825 0.949 . S
C1830 C1836 1.368 . S
C1831 C1815 1.349 . S
C1831 H1823 0.950 . S
C1831 C1829 1.327 . S
C1832 C1820 1.349 . S
C1832 H1826 0.950 . S
C1832 C1833 1.327 . S
C1833 H1827 0.950 . S
C1833 C1832 1.327 . S
C1833 C1837 1.429 . S
C1834 C1817 1.574 . S
C1834 H1828 0.949 . S
C1834 C1838 1.368 . S
C1835 C1816 1.429 . S
C1835 C1829 1.429 . S
C1835 C1836 1.523 . S
C1836 C1817 1.368 . S
C1836 C1830 1.368 . S
C1836 C1835 1.523 . S
C1837 C1821 1.429 . S
C1837 C1833 1.429 . S
C1837 C1838 1.523 . S
C1838 C1822 1.368 . S
C1838 C1834 1.368 . S
C1838 C1837 1.523 . S
H1839 C1814 0.950 . S
H1840 C1816 0.950 . S
H1841 C1817 0.949 . S
H1842 C1819 0.950 . S
H1843 C1821 0.950 . S
C1844 C1845 1.349 . S
C1844 C1846 1.327 . S
C1844 H1869 0.950 1_455 S
C1845 C1844 1.349 . S
C1845 C1861 1.349 . S
C1846 C1844 1.327 . S
C1846 C1865 1.429 . S
C1846 H1870 0.950 1_455 S
C1847 C1864 1.574 1_554 S
C1847 C1866 1.368 . S
C1847 H1871 0.949 . S
H1848 C1852 0.949 1_655 S
C1849 C1850 1.349 . S
C1849 C1851 1.327 . S
C1849 H1872 0.950 . S
C1850 C1849 1.349 . S
C1850 C1862 1.349 . S
C1851 C1849 1.327 . S
C1851 C1867 1.429 . S
C1851 H1873 0.950 . S
C1852 H1848 0.949 1_455 S
C1852 C1860 1.574 1_556 S
C1852 C1868 1.368 . S
H1853 C1861 0.950 . S
H1854 C1859 0.950 . S
H1855 C1860 0.949 1_655 S
H1856 C1862 0.950 1_655 S
H1857 C1863 0.950 1_655 S
H1858 C1864 0.949 . S
C1859 H1854 0.950 . S
C1859 C1861 1.327 . S
C1859 C1865 1.429 . S
C1860 C1852 1.574 1_554 S
C1860 H1855 0.949 1_455 S
C1860 C1866 1.368 . S
C1861 C1845 1.349 . S
C1861 H1853 0.950 . S
C1861 C1859 1.327 . S
C1862 C1850 1.349 . S
C1862 H1856 0.950 1_455 S
C1862 C1863 1.327 . S
C1863 H1857 0.950 1_455 S
C1863 C1862 1.327 . S
C1863 C1867 1.429 . S
C1864 C1847 1.574 1_556 S
C1864 H1858 0.949 . S
C1864 C1868 1.368 . S
C1865 C1846 1.429 . S
C1865 C1859 1.429 . S
C1865 C1866 1.523 . S
C1866 C1847 1.368 . S
C1866 C1860 1.368 . S
C1866 C1865 1.523 . S
C1867 C1851 1.429 . S
C1867 C1863 1.429 . S
C1867 C1868 1.523 . S
C1868 C1852 1.368 . S
C1868 C1864 1.368 . S
C1868 C1867 1.523 . S
H1869 C1844 0.950 1_655 S
H1870 C1846 0.950 1_655 S
H1871 C1847 0.949 . S
H1872 C1849 0.950 . S
H1873 C1851 0.950 . S
C1874 C1875 1.349 . S
C1874 C1876 1.327 . S
C1874 H1899 0.950 . S
C1875 C1874 1.349 . S
C1875 C1891 1.349 1_545 S
C1876 C1874 1.327 . S
C1876 C1895 1.429 . S
C1876 H1900 0.950 . S
C1877 C1894 1.574 . S
C1877 C1896 1.368 1_565 S
C1877 H1901 0.949 . S
H1878 C1882 0.949 . S
C1879 C1880 1.349 1_565 S
C1879 C1881 1.327 . S
C1879 H1902 0.950 . S
C1880 C1879 1.349 1_545 S
C1880 C1892 1.349 . S
C1881 C1879 1.327 . S
C1881 C1897 1.429 1_565 S
C1881 H1903 0.950 . S
C1882 H1878 0.949 . S
C1882 C1890 1.574 . S
C1882 C1898 1.368 . S
H1883 C1891 0.950 . S
H1884 C1889 0.950 . S
H1885 C1890 0.949 . S
H1886 C1892 0.950 . S
H1887 C1893 0.950 . S
H1888 C1894 0.949 . S
C1889 H1884 0.950 . S
C1889 C1891 1.327 . S
C1889 C1895 1.429 1_565 S
C1890 C1882 1.574 . S
C1890 H1885 0.949 . S
C1890 C1896 1.368 . S
C1891 C1875 1.349 1_565 S
C1891 H1883 0.950 . S
C1891 C1889 1.327 . S
C1892 C1880 1.349 . S
C1892 H1886 0.950 . S
C1892 C1893 1.327 . S
C1893 H1887 0.950 . S
C1893 C1892 1.327 . S
C1893 C1897 1.429 . S
C1894 C1877 1.574 . S
C1894 H1888 0.949 . S
C1894 C1898 1.368 1_565 S
C1895 C1876 1.429 . S
C1895 C1889 1.429 1_545 S
C1895 C1896 1.523 . S
C1896 C1877 1.368 1_545 S
C1896 C1890 1.368 . S
C1896 C1895 1.523 . S
C1897 C1881 1.429 1_545 S
C1897 C1893 1.429 . S
C1897 C1898 1.523 . S
C1898 C1882 1.368 . S
C1898 C1894 1.368 1_545 S
C1898 C1897 1.523 . S
H1899 C1874 0.950 . S
H1900 C1876 0.950 . S
H1901 C1877 0.949 . S
H1902 C1879 0.950 . S
H1903 C1881 0.950 . S
C945 C5 1.458 . S
C950 C418 1.458 . S
C975 C64 1.458 . S
C980 C241 1.458 . S
C1005 C123 1.458 . S
C1010 C300 1.458 . S
C1035 C182 1.457 . S
C1040 C359 1.457 . S
C1065 C477 1.458 . S
C1070 C890 1.458 . S
C1095 C713 1.458 . S
C1100 C536 1.458 . S
C1125 C595 1.458 . S
C1130 C772 1.458 . S
C1155 C654 1.457 . S
C1160 C831 1.457 . S
C1185 C52 1.609 . S
C1190 C564 1.607 . S
C1215 C111 1.609 . S
C1220 C623 1.607 . S
C1245 C682 1.607 . S
C1250 C170 1.609 . S
C1275 C229 1.609 . S
C1280 C505 1.607 . S
C1305 C288 1.609 . S
C1310 C918 1.607 . S
C1335 C741 1.607 . S
C1340 C347 1.609 . S
C1365 C800 1.607 . S
C1370 C406 1.609 . S
C1395 C859 1.607 . S
C1400 C465 1.609 . S
C1425 C92 1.607 . S
C1430 C524 1.609 . S
C1455 C151 1.607 . S
C1460 C583 1.609 . S
C1485 C642 1.609 . S
C1490 C210 1.607 . S
C1515 C33 1.607 . S
C1520 C701 1.609 . S
C1545 C760 1.609 . S
C1550 C446 1.607 . S
C1575 C819 1.609 . S
C1580 C269 1.607 . S
C1605 C328 1.607 . S
C1610 C878 1.609 . S
C1635 C387 1.607 . S
C1640 C937 1.609 . S
C1665 C3 1.666 . S
C1670 C239 1.666 . S
C1695 C298 1.666 . S
C1700 C62 1.666 . S
C1725 C121 1.666 . S
C1730 C357 1.666 . S
C1755 C416 1.666 . S
C1760 C180 1.666 . S
C1785 C475 1.666 . S
C1790 C711 1.666 . S
C1815 C770 1.666 . S
C1820 C534 1.666 . S
C1845 C829 1.666 . S
C1850 C593 1.666 . S
C1875 C888 1.666 . S
C1880 C652 1.666 . S
