# Generated by pormake.
# Topology uku, (4)-cn, num edge types: 1
# Building blocks:
#     Node 0, Type 0, BuildingBlock: CEKHIL_clean_sbu_0, # of connection points: 4
#     Node 1, Type 0, BuildingBlock: CEKHIL_clean_sbu_0, # of connection points: 4
#     Node 2, Type 0, BuildingBlock: CEKHIL_clean_sbu_0, # of connection points: 4
#     Node 3, Type 0, BuildingBlock: CEKHIL_clean_sbu_0, # of connection points: 4
#     Node 4, Type 0, BuildingBlock: CEKHIL_clean_sbu_0, # of connection points: 4
#     Node 5, Type 0, BuildingBlock: CEKHIL_clean_sbu_0, # of connection points: 4
#     Node 6, Type 0, BuildingBlock: CEKHIL_clean_sbu_0, # of connection points: 4
#     Node 7, Type 0, BuildingBlock: CEKHIL_clean_sbu_0, # of connection points: 4
#     Node 8, Type 0, BuildingBlock: CEKHIL_clean_sbu_0, # of connection points: 4
#     Node 9, Type 0, BuildingBlock: CEKHIL_clean_sbu_0, # of connection points: 4
#     Node 10, Type 0, BuildingBlock: CEKHIL_clean_sbu_0, # of connection points: 4
#     Node 11, Type 0, BuildingBlock: CEKHIL_clean_sbu_0, # of connection points: 4
#     Edge 12, Type (0, 0), BuildingBlock: EZIPEK_clean_linker_0, # of connection points: 2
#     Edge 13, Type (0, 0), BuildingBlock: EZIPEK_clean_linker_0, # of connection points: 2
#     Edge 14, Type (0, 0), BuildingBlock: EZIPEK_clean_linker_0, # of connection points: 2
#     Edge 15, Type (0, 0), BuildingBlock: EZIPEK_clean_linker_0, # of connection points: 2
#     Edge 16, Type (0, 0), BuildingBlock: EZIPEK_clean_linker_0, # of connection points: 2
#     Edge 17, Type (0, 0), BuildingBlock: EZIPEK_clean_linker_0, # of connection points: 2
#     Edge 18, Type (0, 0), BuildingBlock: EZIPEK_clean_linker_0, # of connection points: 2
#     Edge 19, Type (0, 0), BuildingBlock: EZIPEK_clean_linker_0, # of connection points: 2
#     Edge 20, Type (0, 0), BuildingBlock: EZIPEK_clean_linker_0, # of connection points: 2
#     Edge 21, Type (0, 0), BuildingBlock: EZIPEK_clean_linker_0, # of connection points: 2
#     Edge 22, Type (0, 0), BuildingBlock: EZIPEK_clean_linker_0, # of connection points: 2
#     Edge 23, Type (0, 0), BuildingBlock: EZIPEK_clean_linker_0, # of connection points: 2
#     Edge 24, Type (0, 0), BuildingBlock: EZIPEK_clean_linker_0, # of connection points: 2
#     Edge 25, Type (0, 0), BuildingBlock: EZIPEK_clean_linker_0, # of connection points: 2
#     Edge 26, Type (0, 0), BuildingBlock: EZIPEK_clean_linker_0, # of connection points: 2
#     Edge 27, Type (0, 0), BuildingBlock: EZIPEK_clean_linker_0, # of connection points: 2
#     Edge 28, Type (0, 0), BuildingBlock: EZIPEK_clean_linker_0, # of connection points: 2
#     Edge 29, Type (0, 0), BuildingBlock: EZIPEK_clean_linker_0, # of connection points: 2
#     Edge 30, Type (0, 0), BuildingBlock: EZIPEK_clean_linker_0, # of connection points: 2
#     Edge 31, Type (0, 0), BuildingBlock: EZIPEK_clean_linker_0, # of connection points: 2
#     Edge 32, Type (0, 0), BuildingBlock: EZIPEK_clean_linker_0, # of connection points: 2
#     Edge 33, Type (0, 0), BuildingBlock: EZIPEK_clean_linker_0, # of connection points: 2
#     Edge 34, Type (0, 0), BuildingBlock: EZIPEK_clean_linker_0, # of connection points: 2
#     Edge 35, Type (0, 0), BuildingBlock: EZIPEK_clean_linker_0, # of connection points: 2
# Relax obj value: 0.372
# Max RMSD: 0.262
# Mean RMSD: 0.262
data_MOF--net-uku--node1-CEKHIL_clean_sbu_0--edge1-EZIPEK_clean_linker_0
_symmetry_space_group_name_H-M    P1
_symmetry_Int_Tables_number       1
_symmetry_cell_setting            triclinic
loop_
_symmetry_equiv_pos_as_xyz
'x, y, z'
_cell_length_a     29.822439
_cell_length_b     29.833939
_cell_length_c     29.874091
_cell_angle_alpha  89.93587
_cell_angle_beta   89.772823
_cell_angle_gamma 89.94684
loop_
_atom_site_label
_atom_site_type_symbol
_atom_site_fract_x
_atom_site_fract_y
_atom_site_fract_z
_atom_type_partial_charge
Co0 Co 0.06422 0.15622 0.6437 0.0
O1 O 0.00191 0.15987 0.62853 0.0
O2 O 0.0564 0.13582 0.58337 0.0
C3 C 0.06815 0.22402 0.67562 0.0
O4 O 0.13154 0.14815 0.64698 0.0
Co5 Co 0.09404 0.1591 0.74348 0.0
O6 O 0.15552 0.155 0.71805 0.0
C7 C 0.05478 0.07674 0.70649 0.0
C8 C 0.01411 0.14449 0.58973 0.0
C9 C 0.16262 0.14797 0.67656 0.0
O10 O 0.05582 0.0936 0.66688 0.0
O11 O 0.06411 0.09882 0.74197 0.0
O12 O 0.07182 0.22054 0.6324 0.0
O13 O 0.05907 0.18763 0.69705 0.0
Co14 Co 0.96721 0.8109 0.67099 0.0
O15 O 0.01836 0.79202 0.63687 0.0
O16 O 0.96007 0.83011 0.6101 0.0
C17 C 0.95503 0.74586 0.70699 0.0
O18 O 0.90873 0.83555 0.69624 0.0
Co19 Co 0.97197 0.81425 0.77475 0.0
O20 O 0.90646 0.8254 0.77095 0.0
C21 C 0.00735 0.88972 0.72139 0.0
C22 C -0.00121 0.81117 0.60316 0.0
C23 C 0.88854 0.83778 0.73432 0.0
O24 O -0.00293 0.86921 0.68518 0.0
O25 O 0.0022 0.87298 0.76056 0.0
O26 O 0.94051 0.75164 0.66651 0.0
O27 O 0.98067 0.77738 0.72204 0.0
Co28 Co 0.06735 0.80653 0.34793 0.0
O29 O 0.03386 0.78548 0.39821 0.0
O30 O 0.09319 0.83065 0.40178 0.0
C31 C 0.07311 0.74017 0.31184 0.0
O32 O 0.11081 0.8334 0.30251 0.0
Co33 Co 0.02154 0.80278 0.25506 0.0
O34 O 0.0762 0.83547 0.236 0.0
C35 C 0.99509 0.87285 0.31749 0.0
C36 C 0.06113 0.80915 0.42222 0.0
C37 C 0.10979 0.84416 0.26082 0.0
O38 O 0.02692 0.86064 0.34369 0.0
O39 O 0.98429 0.85146 0.28212 0.0
O40 O 0.10023 0.7502 0.34427 0.0
O41 O 0.04061 0.76834 0.30658 0.0
Co42 Co 0.87147 0.12694 0.36838 0.0
O43 O 0.92626 0.1359 0.40012 0.0
O44 O 0.86124 0.11558 0.43103 0.0
C45 C 0.87684 0.19001 0.32691 0.0
O46 O 0.80792 0.11646 0.34659 0.0
Co47 Co 0.87276 0.1146 0.2649 0.0
O48 O 0.80687 0.12126 0.27131 0.0
C49 C 0.90514 0.04255 0.32405 0.0
C50 C 0.9034 0.12553 0.43565 0.0
C51 C 0.78712 0.11803 0.30906 0.0
O52 O 0.8882 0.06234 0.35834 0.0
O53 O 0.9062 0.05963 0.28475 0.0
O54 O 0.86076 0.1916 0.36733 0.0
O55 O 0.8918 0.15131 0.31466 0.0
Co56 Co 0.60114 0.10573 0.15744 0.0
O57 O 0.55929 0.05734 0.16308 0.0
O58 O 0.54423 0.12381 0.13275 0.0
C59 C 0.62802 0.10051 0.22774 0.0
O60 O 0.63497 0.16379 0.14688 0.0
Co61 Co 0.70386 0.08857 0.16796 0.0
O62 O 0.70848 0.15464 0.16169 0.0
C63 C 0.65818 0.0633 0.08432 0.0
C64 C 0.53067 0.08397 0.14412 0.0
C65 C 0.67522 0.17874 0.15005 0.0
O66 O 0.62177 0.08272 0.09722 0.0
O67 O 0.69278 0.05847 0.10909 0.0
O68 O 0.59117 0.12249 0.22023 0.0
O69 O 0.64491 0.08013 0.19362 0.0
Co70 Co 0.31242 0.93688 0.11726 0.0
O71 O 0.32551 7e-05 0.12206 0.0
O72 O 0.37565 0.94495 0.12497 0.0
C73 C 0.25193 0.93535 0.16397 0.0
O74 O 0.31327 0.86902 0.11577 0.0
Co75 Co 0.22409 0.90191 0.07639 0.0
O76 O 0.24501 0.84278 0.09785 0.0
C77 C 0.2912 0.94312 0.01825 0.0
C78 C 0.36717 0.98762 0.12551 0.0
C79 C 0.28531 0.8369 0.11035 0.0
O80 O 0.32 0.94063 0.0501 0.0
O81 O 0.24982 0.93314 0.02303 0.0
O82 O 0.29254 0.93433 0.17982 0.0
O83 O 0.25001 0.94113 0.12121 0.0
Co84 Co 0.67198 0.942 0.82469 0.0
O85 O 0.64177 0.99032 0.795 0.0
O86 O 0.60843 0.93232 0.82824 0.0
C87 C 0.72496 0.92941 0.77175 0.0
O88 O 0.69218 0.88584 0.85737 0.0
Co89 Co 0.77105 0.9539 0.85463 0.0
O90 O 0.76708 0.88878 0.86699 0.0
C91 C 0.69831 0.99128 0.91024 0.0
C92 C 0.60503 0.97009 0.80673 0.0
C93 C 0.72967 0.86833 0.86927 0.0
O94 O 0.66924 0.97577 0.8828 0.0
O95 O 0.74071 0.9883 0.90398 0.0
O96 O 0.68495 0.91275 0.7678 0.0
O97 O 0.72948 0.95675 0.805 0.0
Co98 Co 0.35989 0.06856 0.7704 0.0
O99 O 0.40428 0.02608 0.75156 0.0
O100 O 0.41673 0.08493 0.79558 0.0
C101 C 0.32688 0.07876 0.70359 0.0
O102 O 0.32265 0.11952 0.79641 0.0
Co103 Co 0.25858 0.0451 0.76489 0.0
O104 O 0.24922 0.10858 0.78277 0.0
C105 C 0.31228 0.011 0.84016 0.0
C106 C 0.43188 0.04904 0.77597 0.0
C107 C 0.28138 0.13201 0.79811 0.0
O108 O 0.34686 0.03153 0.82493 0.0
O109 O 0.27452 0.00975 0.81998 0.0
O110 O 0.36346 0.1002 0.71341 0.0
O111 O 0.31484 0.04859 0.73229 0.0
Co112 Co 0.19501 0.63216 0.07639 0.0
O113 O 0.21698 0.60109 0.02479 0.0
O114 O 0.17564 0.57067 0.07904 0.0
C115 C 0.2596 0.66752 0.09166 0.0
O116 O 0.16686 0.65315 0.13465 0.0
Co117 Co 0.19341 0.73678 0.07954 0.0
O118 O 0.17503 0.72771 0.14271 0.0
C119 C 0.11947 0.68711 0.03606 0.0
C120 C 0.19682 0.56616 0.04116 0.0
C121 C 0.1624 0.68955 0.15711 0.0
O122 O 0.13841 0.64921 0.04408 0.0
O123 O 0.13693 0.72512 0.04543 0.0
O124 O 0.25366 0.62668 0.10569 0.0
O125 O 0.22842 0.68384 0.0668 0.0
Co126 Co 0.16449 0.33571 0.91165 0.0
O127 O 0.1924 0.36174 0.96337 0.0
O128 O 0.1613 0.39967 0.90831 0.0
C129 C 0.21965 0.28541 0.89606 0.0
O130 O 0.13523 0.32255 0.85225 0.0
Co131 Co 0.13705 0.23513 0.90888 0.0
O132 O 0.1291 0.24783 0.84406 0.0
C133 C 0.08057 0.29989 0.95798 0.0
C134 C 0.18451 0.40043 0.945 0.0
C135 C 0.12654 0.28769 0.8289 0.0
O136 O 0.10449 0.3328 0.94337 0.0
O137 O 0.09013 0.25862 0.9511 0.0
O138 O 0.22307 0.32693 0.88347 0.0
O139 O 0.18487 0.27714 0.92061 0.0
Co140 Co 0.84871 0.66728 0.95683 0.0
O141 O 0.83483 0.64583 0.01595 0.0
O142 O 0.85922 0.60403 0.95906 0.0
C143 C 0.78778 0.71062 0.94744 0.0
O144 O 0.86581 0.67665 0.89196 0.0
Co145 Co 0.86606 0.76903 0.94069 0.0
O146 O 0.87289 0.7504 0.87727 0.0
C147 C 0.93707 0.7131 0.97951 0.0
C148 C 0.84673 0.60681 0.00068 0.0
C149 C 0.87417 0.70942 0.86541 0.0
O150 O 0.91256 0.67815 0.97455 0.0
O151 O 0.92367 0.75307 0.97151 0.0
O152 O 0.78527 0.6677 0.94062 0.0
O153 O 0.825 0.72457 0.96437 0.0
Co154 Co 0.83711 0.36325 0.10091 0.0
O155 O 0.8239 0.40825 0.05738 0.0
O156 O 0.86113 0.41967 0.12087 0.0
C157 C 0.76761 0.33308 0.10214 0.0
O158 O 0.85484 0.32541 0.15453 0.0
Co159 Co 0.83057 0.26233 0.07627 0.0
O160 O 0.83503 0.25367 0.14189 0.0
C161 C 0.90935 0.31481 0.04705 0.0
C162 C 0.84446 0.43564 0.08398 0.0
C163 C 0.849 0.28474 0.16746 0.0
O164 O 0.89527 0.34896 0.06926 0.0
O165 O 0.88711 0.27833 0.04317 0.0
O166 O 0.77675 0.36848 0.12558 0.0
O167 O 0.79977 0.31956 0.07631 0.0
C168 C 0.95119 0.09051 0.49429 0.0
C169 C 0.92485 0.12718 0.47966 0.0
C170 C 0.95552 0.17484 0.53833 0.0
C171 C 0.98121 0.13789 0.55379 0.0
N172 N 0.99541 0.05824 0.55413 0.0
N173 N 0.89338 0.20037 0.49287 0.0
C174 C 0.97662 0.09491 0.53407 0.0
C175 C 0.92402 0.16802 0.50362 0.0
N176 N 0.9528 0.05204 0.46951 0.0
N177 N 0.9633 0.21698 0.55457 0.0
H178 H 0.87025 0.19658 0.46703 0.0
H179 H 0.8881 0.22904 0.51204 0.0
H180 H 0.98698 0.22391 0.57917 0.0
H181 H 0.94916 0.24582 0.54094 0.0
H182 H 0.97552 0.02619 0.47543 0.0
H183 H 0.93291 0.04699 0.4413 0.0
H184 H 0.98963 0.02546 0.5437 0.0
H185 H 0.01349 0.06019 0.58389 0.0
C186 C 0.05354 0.77136 0.49559 0.0
C187 C 0.05411 0.81182 0.47085 0.0
C188 C 0.02776 0.85295 0.5366 0.0
C189 C 0.01999 0.8115 0.55859 0.0
N190 N 0.0204 0.73044 0.55718 0.0
N191 N 0.03792 0.89106 0.46576 0.0
C192 C 0.03201 0.7704 0.53789 0.0
C193 C 0.04072 0.85282 0.49087 0.0
N194 N 0.0739 0.73396 0.47859 0.0
N195 N 0.02388 0.89234 0.55967 0.0
H196 H 0.04749 0.89266 0.43222 0.0
H197 H 0.02306 0.92048 0.47734 0.0
H198 H 0.0153 0.8937 0.59352 0.0
H199 H 0.03342 0.92325 0.54649 0.0
H200 H 0.07832 0.70456 0.49691 0.0
H201 H 0.09047 0.73392 0.44774 0.0
H202 H 0.02408 0.69968 0.5411 0.0
H203 H 0.00321 0.72801 0.58752 0.0
C204 C 0.43487 0.0225 0.09039 0.0
C205 C 0.40433 0.02025 0.127 0.0
C206 C 0.45336 0.06798 0.17195 0.0
C207 C 0.48452 0.06866 0.13599 0.0
N208 N 0.50197 0.05606 0.05835 0.0
N209 N 0.37915 0.04741 0.1988 0.0
C210 C 0.47412 0.04913 0.0942 0.0
C211 C 0.41169 0.0455 0.16647 0.0
N212 N 0.42692 -0.00197 0.05255 0.0
N213 N 0.46457 0.08735 0.21185 0.0
H214 H 0.34898 0.02994 0.19659 0.0
H215 H 0.38047 0.06852 0.22645 0.0
H216 H 0.49381 0.10602 0.21609 0.0
H217 H 0.44609 0.08365 0.24123 0.0
H218 H 0.45013 0.99367 0.02683 0.0
H219 H 0.39737 0.98022 0.04747 0.0
H220 H 0.49466 0.04621 0.02579 0.0
H221 H 0.53128 0.075 0.06045 0.0
C222 C 0.54713 0.00037 0.75447 0.0
C223 C 0.56115 0.99118 0.79884 0.0
C224 C 0.49019 0.0199 0.82837 0.0
C225 C 0.47749 0.03215 0.78427 0.0
N226 N 0.4966 0.04188 0.70638 0.0
N227 N 0.5507 0.001 0.87851 0.0
C228 C 0.50679 0.02466 0.74755 0.0
C229 C 0.53405 0.00345 0.83597 0.0
N230 N 0.57141 0.98435 0.719 0.0
N231 N 0.4598 0.02175 0.86275 0.0
H232 H 0.58276 0.98928 0.88578 0.0
H233 H 0.5343 0.01448 0.90626 0.0
H234 H 0.42718 0.03358 0.8591 0.0
H235 H 0.4657 0.00791 0.89421 0.0
H236 H 0.56036 0.98584 0.68601 0.0
H237 H 0.60095 0.966 0.72279 0.0
H238 H 0.51873 0.04145 0.67934 0.0
H239 H 0.46754 0.06038 0.70033 0.0
C240 C 0.21911 0.44476 0.00886 0.0
C241 C 0.19842 0.44373 0.96609 0.0
C242 C 0.18116 0.52353 0.97145 0.0
C243 C 0.19688 0.52361 0.01615 0.0
N244 N 0.23123 0.48507 0.07832 0.0
N245 N 0.18639 0.48778 0.89939 0.0
C246 C 0.21601 0.48441 0.03521 0.0
C247 C 0.18715 0.48476 0.94501 0.0
N248 N 0.24605 0.41008 0.0219 0.0
N249 N 0.15845 0.55966 0.95473 0.0
H250 H 0.19782 0.46193 0.87882 0.0
H251 H 0.18169 0.51789 0.88232 0.0
H252 H 0.15177 0.58844 0.97337 0.0
H253 H 0.14218 0.55913 0.92392 0.0
H254 H 0.26432 0.40967 0.05148 0.0
H255 H 0.25589 0.38472 2e-05 0.0
H256 H 0.23986 0.45636 0.09615 0.0
H257 H 0.23308 0.51421 0.09742 0.0
C258 C 0.88866 0.54508 0.03786 0.0
C259 C 0.84726 0.56698 0.02964 0.0
C260 C 0.80732 0.50873 0.07112 0.0
C261 C 0.84741 0.48332 0.07232 0.0
N262 N 0.92634 0.47551 0.05636 0.0
N263 N 0.76659 0.56967 0.03636 0.0
C264 C 0.88836 0.50123 0.05624 0.0
C265 C 0.80641 0.54927 0.04636 0.0
N266 N 0.92813 0.56658 0.02875 0.0
N267 N 0.77033 0.49401 0.09396 0.0
H268 H 0.76444 0.59955 0.01836 0.0
H269 H 0.73542 0.55546 0.04314 0.0
H270 H 0.77033 0.46445 0.11267 0.0
H271 H 0.74126 0.51297 0.09793 0.0
H272 H 0.9594 0.55425 0.03811 0.0
H273 H 0.9294 0.59888 0.01545 0.0
H274 H 0.95589 0.48463 0.04006 0.0
H275 H 0.92762 0.44363 0.07066 0.0
C276 C 0.24473 0.16096 0.66434 0.0
C277 C 0.20747 0.13149 0.66353 0.0
C278 C 0.2581 0.06716 0.65948 0.0
C279 C 0.29352 0.09602 0.67119 0.0
N280 N 0.32576 0.16864 0.65889 0.0
N281 N 0.1778 0.05664 0.65386 0.0
C282 C 0.28866 0.14263 0.66502 0.0
C283 C 0.2139 0.08461 0.65749 0.0
N284 N 0.23782 0.20607 0.66648 0.0
N285 N 0.26739 0.0231 0.65134 0.0
H286 H 0.14493 0.06814 0.65142 0.0
H287 H 0.17998 0.02185 0.65477 0.0
H288 H 0.30025 0.01096 0.65239 0.0
H289 H 0.24401 -2e-05 0.63989 0.0
H290 H 0.26311 0.22939 0.67213 0.0
H291 H 0.20587 0.21978 0.66373 0.0
H292 H 0.32453 0.20283 0.65207 0.0
H293 H 0.35762 0.15459 0.65534 0.0
C294 C 0.80666 0.9326 0.75524 0.0
C295 C 0.7652 0.91109 0.74778 0.0
C296 C 0.80589 0.84543 0.71862 0.0
C297 C 0.84598 0.86314 0.73694 0.0
N298 N 0.88447 0.9239 0.77446 0.0
N299 N 0.72523 0.85186 0.70989 0.0
C300 C 0.84642 0.90688 0.7556 0.0
C301 C 0.76466 0.86895 0.72536 0.0
N302 N 0.80813 0.97811 0.75986 0.0
N303 N 0.80752 0.80666 0.69434 0.0
H304 H 0.69716 0.87182 0.70428 0.0
H305 H 0.72081 0.81856 0.70059 0.0
H306 H 0.83716 0.78891 0.68914 0.0
H307 H 0.78048 0.79324 0.67707 0.0
H308 H 0.83797 -0.00384 0.76166 0.0
H309 H 0.77967 -0.00192 0.75569 0.0
H310 H 0.88471 0.95347 0.79299 0.0
H311 H 0.91524 0.90734 0.77418 0.0
C312 C 0.17712 0.89725 0.16906 0.0
C313 C 0.21207 0.92033 0.19088 0.0
C314 C 0.17541 0.90046 0.26228 0.0
C315 C 0.14855 0.86805 0.23938 0.0
N316 N 0.13895 0.82692 0.16989 0.0
N317 N 0.24248 0.94653 0.26102 0.0
C318 C 0.15438 0.86345 0.19248 0.0
C319 C 0.21113 0.92219 0.2385 0.0
N320 N 0.16249 0.90965 0.12776 0.0
N321 N 0.16528 0.91343 0.305 0.0
H322 H 0.264 0.96905 0.24514 0.0
H323 H 0.24711 0.94387 0.29549 0.0
H324 H 0.13778 0.90181 0.32299 0.0
H325 H 0.18136 0.93989 0.32101 0.0
H326 H 0.13568 0.89356 0.11217 0.0
H327 H 0.17199 0.93993 0.11308 0.0
H328 H 0.14443 0.82291 0.13558 0.0
H329 H 0.12645 0.79864 0.18626 0.0
C330 C 0.67821 0.06365 0.2823 0.0
C331 C 0.6538 0.10243 0.26998 0.0
C332 C 0.70997 0.15044 0.30409 0.0
C333 C 0.73806 0.11243 0.30848 0.0
N334 N 0.74469 0.03275 0.31795 0.0
N335 N 0.63451 0.17792 0.29039 0.0
C336 C 0.72039 0.06875 0.30352 0.0
C337 C 0.66557 0.14445 0.28817 0.0
N338 N 0.66159 0.02246 0.27138 0.0
N339 N 0.72655 0.19205 0.31314 0.0
H340 H 0.60123 0.1729 0.28113 0.0
H341 H 0.64042 0.20862 0.30582 0.0
H342 H 0.75837 0.19659 0.32679 0.0
H343 H 0.70945 0.22165 0.30611 0.0
H344 H 0.67903 0.9925 0.27522 0.0
H345 H 0.62949 0.01874 0.25802 0.0
H346 H 0.73349 -0.00023 0.31685 0.0
H347 H 0.7752 0.03662 0.33444 0.0
C348 C 0.69206 0.25898 0.16793 0.0
C349 C 0.68459 0.22513 0.1357 0.0
C350 C 0.71402 0.27378 0.07665 0.0
C351 C 0.72731 0.30464 0.11013 0.0
N352 N 0.70489 0.33808 0.18025 0.0
N353 N 0.67315 0.20578 0.05828 0.0
C354 C 0.70864 0.30114 0.15362 0.0
C355 C 0.69029 0.23446 0.08947 0.0
N356 N 0.68425 0.25051 0.21214 0.0
N357 N 0.72467 0.28219 0.03293 0.0
H358 H 0.65493 0.17726 0.06699 0.0
H359 H 0.6738 0.21169 0.02397 0.0
H360 H 0.73721 0.31319 0.02256 0.0
H361 H 0.72121 0.25902 0.00718 0.0
H362 H 0.6935 0.27234 0.23766 0.0
H363 H 0.67032 0.22044 0.2231 0.0
H364 H 0.68911 0.33762 0.21141 0.0
H365 H 0.71167 0.37026 0.16849 0.0
C366 C 0.28529 0.71788 0.15038 0.0
C367 C 0.29427 0.69795 0.10869 0.0
C368 C 0.32298 0.76893 0.08011 0.0
C369 C 0.30065 0.79043 0.11618 0.0
N370 N 0.26649 0.78678 0.18929 0.0
N371 N 0.33351 0.69905 0.03902 0.0
C372 C 0.28468 0.76529 0.15318 0.0
C373 C 0.31865 0.72172 0.07586 0.0
N374 N 0.27556 0.69118 0.18608 0.0
N375 N 0.34571 0.79391 0.04912 0.0
H376 H 0.33026 0.66424 0.03682 0.0
H377 H 0.34849 0.71399 0.01128 0.0
H378 H 0.34861 0.82865 0.05159 0.0
H379 H 0.36384 0.78037 0.02258 0.0
H380 H 0.27044 0.70325 0.21839 0.0
H381 H 0.27712 0.65633 0.18332 0.0
H382 H 0.24966 0.77029 0.21509 0.0
H383 H 0.26717 0.82163 0.19245 0.0
C384 C 0.7469 0.78176 0.95945 0.0
C385 C 0.75372 0.74353 0.93234 0.0
C386 C 0.72852 0.78453 0.86623 0.0
C387 C 0.72938 0.82446 0.89184 0.0
N388 N 0.73254 0.86188 0.96322 0.0
N389 N 0.73055 0.7032 0.86652 0.0
C390 C 0.73546 0.82313 0.93892 0.0
C391 C 0.73779 0.74301 0.88773 0.0
N392 N 0.7514 0.77771 0.00479 0.0
N393 N 0.72163 0.78674 0.82107 0.0
H394 H 0.73395 0.67242 0.88255 0.0
H395 H 0.71607 0.70063 0.83498 0.0
H396 H 0.71351 0.81655 0.80469 0.0
H397 H 0.72607 0.75969 0.79952 0.0
H398 H 0.74542 0.80332 0.02762 0.0
H399 H 0.75806 0.74683 0.01991 0.0
H400 H 0.74017 0.8645 -0.00297 0.0
H401 H 0.723 0.89239 0.94907 0.0
C402 C 0.25046 0.16649 0.86792 0.0
C403 C 0.27025 0.17219 0.82497 0.0
C404 C 0.27251 0.25364 0.83653 0.0
C405 C 0.24707 0.24805 0.87649 0.0
N406 N 0.23416 0.20002 0.9399 0.0
N407 N 0.29914 0.22052 0.7671 0.0
C408 C 0.24252 0.20461 0.89511 0.0
C409 C 0.2815 0.21559 0.80909 0.0
N410 N 0.23813 0.12477 0.88246 0.0
N411 N 0.29139 0.29421 0.8268 0.0
H412 H 0.30725 0.1933 0.74679 0.0
H413 H 0.30269 0.25134 0.75111 0.0
H414 H 0.29186 0.32054 0.84961 0.0
H415 H 0.31251 0.29981 0.79956 0.0
H416 H 0.21845 0.11938 0.91083 0.0
H417 H 0.24493 0.09545 0.86475 0.0
H418 H 0.23439 0.16936 0.95659 0.0
H419 H 0.23322 0.22749 0.96149 0.0
C420 C 0.12711 0.68362 0.27893 0.0
C421 C 0.08647 0.70819 0.27588 0.0
C422 C 0.08961 0.70621 0.19479 0.0
C423 C 0.13387 0.68887 0.19748 0.0
N424 N 0.18852 0.64687 0.23919 0.0
N425 N 0.01869 0.71545 0.23331 0.0
C426 C 0.15063 0.67258 0.23877 0.0
C427 C 0.06415 0.71053 0.23446 0.0
N428 N 0.14237 0.6707 0.31998 0.0
N429 N 0.07251 0.72015 0.15477 0.0
H430 H -0.00067 0.71474 0.26251 0.0
H431 H 0.00016 0.71424 0.20384 0.0
H432 H 0.08971 0.71663 0.12457 0.0
H433 H 0.04237 0.73763 0.15204 0.0
H434 H 0.17366 0.65648 0.32574 0.0
H435 H 0.12225 0.67303 0.34856 0.0
H436 H 0.20254 0.633 0.26784 0.0
H437 H 0.20453 0.63683 0.20981 0.0
C438 C 0.12246 0.27941 0.70364 0.0
C439 C 0.07758 0.26515 0.70094 0.0
C440 C 0.06341 0.29437 0.77574 0.0
C441 C 0.11019 0.29358 0.78295 0.0
N442 N 0.18531 0.29264 0.75312 0.0
N443 N 0.00225 0.26846 0.72892 0.0
C444 C 0.1402 0.28949 0.74639 0.0
C445 C 0.04677 0.27698 0.73496 0.0
N446 N 0.14763 0.28268 0.66567 0.0
N447 N 0.03556 0.31072 0.80817 0.0
H448 H 0.99001 0.25712 0.69822 0.0
H449 H 0.97814 0.2716 0.75401 0.0
H450 H 0.0481 0.32506 0.8374 0.0
H451 H 0.00105 0.31408 0.80434 0.0
H452 H 0.17964 0.29664 0.66515 0.0
H453 H 0.13424 0.2756 0.63425 0.0
H454 H 0.20901 0.28501 0.72856 0.0
H455 H 0.19873 0.30155 0.78408 0.0
C456 C 0.866 0.70788 0.78213 0.0
C457 C 0.89221 0.69952 0.82059 0.0
C458 C 0.9604 0.69861 0.77526 0.0
C459 C 0.93463 0.71325 0.73842 0.0
N460 N 0.8636 0.70527 0.70119 0.0
N461 N 0.96093 0.6699 0.85128 0.0
C462 C 0.88746 0.70901 0.73981 0.0
C463 C 0.93834 0.68861 0.81622 0.0
N464 N 0.82123 0.71633 0.78624 0.0
N465 N 0.00599 0.69661 0.77128 0.0
H466 H 0.9456 0.66258 0.88182 0.0
H467 H 0.99381 0.65836 0.84909 0.0
H468 H 0.02204 0.70103 0.74044 0.0
H469 H 0.0276 0.69165 0.79811 0.0
H470 H 0.80154 0.72763 0.75977 0.0
H471 H 0.80457 0.71401 0.81688 0.0
H472 H 0.82914 0.69952 0.7007 0.0
H473 H 0.87922 0.70202 0.67008 0.0
C474 C 0.84015 0.25824 0.2913 0.0
C475 C 0.87696 0.22824 0.29482 0.0
C476 C 0.90307 0.24942 0.22 0.0
C477 C 0.86198 0.2722 0.21332 0.0
N478 N 0.79317 0.30303 0.24218 0.0
N479 N 0.95277 0.21232 0.27248 0.0
C480 C 0.8314 0.27879 0.24919 0.0
C481 C 0.9115 0.2293 0.26214 0.0
N482 N 0.81503 0.2686 0.3282 0.0
N483 N 0.93295 0.24535 0.18538 0.0
H484 H 0.96015 0.20001 0.30435 0.0
H485 H 0.98073 0.21472 0.25167 0.0
H486 H 0.92864 0.26157 0.15472 0.0
H487 H 0.96099 0.22459 0.18617 0.0
H488 H 0.78928 0.29212 0.32835 0.0
H489 H 0.82321 0.25794 0.36027 0.0
H490 H 0.76654 0.30465 0.26471 0.0
H491 H 0.78747 0.32062 0.21259 0.0
C492 C 0.07461 -0.00211 0.72825 0.0
C493 C 0.0427 0.02893 0.71107 0.0
C494 C 0.9878 0.9687 0.70168 0.0
C495 C 0.02015 0.9374 0.71744 0.0
N496 N 0.09539 0.91994 0.74034 0.0
N497 N 0.97055 0.04448 0.6781 0.0
C498 C 0.06379 0.95142 0.72962 0.0
C499 C -0.00016 0.01443 0.69666 0.0
N500 N 0.1154 0.01283 0.74282 0.0
N501 N 0.94479 0.95505 0.69348 0.0
H502 H 0.97567 0.07903 0.6783 0.0
H503 H 0.94193 0.03529 0.66055 0.0
H504 H 0.93451 0.92179 0.69526 0.0
H505 H 0.91811 0.9768 0.68787 0.0
H506 H 0.13803 0.99326 0.76065 0.0
H507 H 0.12639 0.04574 0.73871 0.0
H508 H 0.12917 0.92695 0.7452 0.0
H509 H 0.08848 0.88568 0.74145 0.0
C510 C 0.97443 -0.00248 0.33413 0.0
C511 C 0.92718 -0.0012 0.33041 0.0
C512 C 0.92465 0.91682 0.33025 0.0
C513 C 0.97207 0.91587 0.32634 0.0
N514 N 0.04215 0.95603 0.31808 0.0
N515 N 0.85655 0.9606 0.32257 0.0
C516 C -0.00283 0.95635 0.3272 0.0
C517 C 0.90195 0.95867 0.32821 0.0
N518 N -0.00245 0.03573 0.34419 0.0
N519 N 0.90154 0.87781 0.33683 0.0
H520 H 0.83893 0.99077 0.32207 0.0
H521 H 0.83686 0.93269 0.31556 0.0
H522 H 0.91739 0.84671 0.3393 0.0
H523 H 0.86737 0.87666 0.34403 0.0
H524 H 0.0316 0.03591 0.35187 0.0
H525 H 0.98179 0.06658 0.34917 0.0
H526 H 0.06096 0.98508 0.31349 0.0
H527 H 0.06009 0.92699 0.3107 0.0
C528 C 0.69861 0.05557 0.96383 0.0
C529 C 0.68209 0.01268 0.95207 0.0
C530 C 0.63951 0.00974 0.02261 0.0
C531 C 0.66238 0.04858 0.03728 0.0
N532 N 0.7164 0.10739 0.0233 0.0
N533 N 0.64021 0.9461 0.97261 0.0
C534 C 0.69259 0.07132 0.00823 0.0
C535 C 0.6528 0.9892 0.98171 0.0
N536 N 0.7188 0.08184 0.93211 0.0
N537 N 0.60573 0.99195 0.04806 0.0
H538 H 0.64977 0.92887 0.94383 0.0
H539 H 0.62345 0.92575 -0.00447 0.0
H540 H 0.5964 0.00489 0.07914 0.0
H541 H 0.58447 0.96678 0.03666 0.0
H542 H 0.72761 0.11517 0.93755 0.0
H543 H 0.7224 0.07189 0.89881 0.0
H544 H 0.74269 0.12187 0.00539 0.0
H545 H 0.71203 0.12109 0.05509 0.0
C546 C 0.31763 0.00402 0.96701 0.0
C547 C 0.30585 0.95841 0.97346 0.0
C548 C 0.30934 0.94539 0.89239 0.0
C549 C 0.31481 0.9921 0.88581 0.0
N550 N 0.32282 0.06686 0.916 0.0
N551 N 0.29221 0.88459 0.94383 0.0
C552 C 0.31959 0.02159 0.92286 0.0
C553 C 0.30256 0.92867 0.93652 0.0
N554 N 0.32606 0.03085 0.00309 0.0
N555 N 0.3118 0.91717 0.85642 0.0
H556 H 0.29056 0.87056 0.97582 0.0
H557 H 0.28385 0.86214 0.91859 0.0
H558 H 0.31725 0.92865 0.82384 0.0
H559 H 0.31202 0.88239 0.85888 0.0
H560 H 0.34074 0.06241 0.00068 0.0
H561 H 0.3214 0.02058 0.03606 0.0
H562 H 0.32002 0.09061 0.94135 0.0
H563 H 0.32519 0.08156 0.88446 0.0
C564 C 0.01957 0.7174 0.96366 0.0
C565 C 0.98401 0.70598 0.99334 0.0
C566 C 0.03739 0.67198 0.0454 0.0
C567 C 0.07332 0.6878 0.0182 0.0
N568 N 0.09964 0.72645 0.95227 0.0
N569 N 0.9588 0.67878 0.06512 0.0
C570 C 0.06464 0.71074 0.9775 0.0
C571 C 0.9928 0.68461 0.03476 0.0
N572 N 0.01026 0.73299 0.92162 0.0
N573 N 0.04564 0.64521 0.08165 0.0
H574 H 0.92576 0.68839 0.05893 0.0
H575 H 0.96383 0.66831 0.09798 0.0
H576 H 0.07762 0.6371 0.09283 0.0
H577 H 0.02056 0.62819 0.09905 0.0
H578 H 0.0343 0.7368 0.89656 0.0
H579 H 0.97783 0.73915 0.91031 0.0
H580 H 0.09589 0.74865 0.92565 0.0
H581 H 0.13302 0.71861 0.95914 0.0
C582 C -0.00329 0.30082 0.95606 0.0
C583 C 0.03695 0.30959 0.97978 0.0
C584 C 0.99348 0.32488 0.04796 0.0
C585 C 0.95323 0.31765 0.02363 0.0
N586 N 0.9163 0.31133 0.95232 0.0
N587 N 0.07379 0.33841 0.04535 0.0
C588 C 0.95481 0.30946 0.97695 0.0
C589 C 0.03533 0.32474 0.02473 0.0
N590 N -0.0016 0.2831 0.91389 0.0
N591 N 0.99209 0.32907 0.09352 0.0
H592 H 0.10517 0.33712 0.02984 0.0
H593 H 0.07415 0.35425 0.07639 0.0
H594 H 0.96235 0.32885 0.11194 0.0
H595 H 0.02058 0.32922 0.11355 0.0
H596 H 0.9703 0.27111 0.89715 0.0
H597 H 0.02831 0.27717 0.89676 0.0
H598 H 0.91588 0.31017 0.91748 0.0
H599 H 0.8851 0.31882 0.96639 0.0
loop_
_geom_bond_atom_site_label_1
_geom_bond_atom_site_label_2
_geom_bond_distance
_geom_bond_site_symmetry_2
_ccdc_geom_bond_type
Co0 O1 2.216 . S
Co0 O2 2.091 . S
Co0 O4 2.004 . S
Co0 O10 2.021 . S
Co0 O12 2.137 . S
Co0 O13 2.244 . S
O1 Co0 2.216 . S
O1 C8 1.247 . S
O2 Co0 2.091 . S
O2 C8 1.261 . S
C3 O12 1.247 . S
C3 O13 1.272 . S
O4 Co0 2.004 . S
O4 C9 1.259 . S
Co5 O6 2.061 . S
Co5 O11 2.052 . S
Co5 O13 2.135 . S
O6 Co5 2.061 . S
O6 C9 1.235 . S
C7 O10 1.238 . S
C7 O11 1.241 . S
C8 O1 1.247 . S
C8 O2 1.261 . S
C9 O4 1.259 . S
C9 O6 1.235 . S
O10 Co0 2.021 . S
O10 C7 1.238 . S
O11 Co5 2.052 . S
O11 C7 1.241 . S
O12 Co0 2.137 . S
O12 C3 1.247 . S
O13 Co0 2.244 . S
O13 C3 1.272 . S
O13 Co5 2.135 . S
Co14 O15 2.216 . S
Co14 O16 2.091 . S
Co14 O18 2.004 . S
Co14 O24 2.021 . S
Co14 O26 2.137 . S
Co14 O27 2.244 . S
O15 Co14 2.216 . S
O15 C22 1.247 . S
O16 Co14 2.091 . S
O16 C22 1.261 . S
C17 O26 1.247 . S
C17 O27 1.272 . S
O18 Co14 2.004 . S
O18 C23 1.259 . S
Co19 O20 2.061 . S
Co19 O25 2.052 . S
Co19 O27 2.135 . S
O20 Co19 2.061 . S
O20 C23 1.235 . S
C21 O24 1.238 . S
C21 O25 1.241 . S
C22 O15 1.247 . S
C22 O16 1.261 . S
C23 O18 1.259 . S
C23 O20 1.235 . S
O24 Co14 2.021 . S
O24 C21 1.238 . S
O25 Co19 2.052 . S
O25 C21 1.241 . S
O26 Co14 2.137 . S
O26 C17 1.247 . S
O27 Co14 2.244 . S
O27 C17 1.272 . S
O27 Co19 2.135 . S
Co28 O29 2.216 . S
Co28 O30 2.091 . S
Co28 O32 2.004 . S
Co28 O38 2.021 . S
Co28 O40 2.137 . S
Co28 O41 2.244 . S
O29 Co28 2.216 . S
O29 C36 1.247 . S
O30 Co28 2.091 . S
O30 C36 1.261 . S
C31 O40 1.247 . S
C31 O41 1.272 . S
O32 Co28 2.004 . S
O32 C37 1.259 . S
Co33 O34 2.061 . S
Co33 O39 2.052 . S
Co33 O41 2.135 . S
O34 Co33 2.061 . S
O34 C37 1.235 . S
C35 O38 1.238 . S
C35 O39 1.241 . S
C36 O29 1.247 . S
C36 O30 1.261 . S
C37 O32 1.259 . S
C37 O34 1.235 . S
O38 Co28 2.021 . S
O38 C35 1.238 . S
O39 Co33 2.052 . S
O39 C35 1.241 . S
O40 Co28 2.137 . S
O40 C31 1.247 . S
O41 Co28 2.244 . S
O41 C31 1.272 . S
O41 Co33 2.135 . S
Co42 O43 2.216 . S
Co42 O44 2.091 . S
Co42 O46 2.004 . S
Co42 O52 2.021 . S
Co42 O54 2.137 . S
Co42 O55 2.244 . S
O43 Co42 2.216 . S
O43 C50 1.247 . S
O44 Co42 2.091 . S
O44 C50 1.261 . S
C45 O54 1.247 . S
C45 O55 1.272 . S
O46 Co42 2.004 . S
O46 C51 1.259 . S
Co47 O48 2.061 . S
Co47 O53 2.052 . S
Co47 O55 2.135 . S
O48 Co47 2.061 . S
O48 C51 1.235 . S
C49 O52 1.238 . S
C49 O53 1.241 . S
C50 O43 1.247 . S
C50 O44 1.261 . S
C51 O46 1.259 . S
C51 O48 1.235 . S
O52 Co42 2.021 . S
O52 C49 1.238 . S
O53 Co47 2.052 . S
O53 C49 1.241 . S
O54 Co42 2.137 . S
O54 C45 1.247 . S
O55 Co42 2.244 . S
O55 C45 1.272 . S
O55 Co47 2.135 . S
Co56 O57 2.216 . S
Co56 O58 2.091 . S
Co56 O60 2.004 . S
Co56 O66 2.021 . S
Co56 O68 2.137 . S
Co56 O69 2.244 . S
O57 Co56 2.216 . S
O57 C64 1.247 . S
O58 Co56 2.091 . S
O58 C64 1.261 . S
C59 O68 1.247 . S
C59 O69 1.272 . S
O60 Co56 2.004 . S
O60 C65 1.259 . S
Co61 O62 2.061 . S
Co61 O67 2.052 . S
Co61 O69 2.135 . S
O62 Co61 2.061 . S
O62 C65 1.235 . S
C63 O66 1.238 . S
C63 O67 1.241 . S
C64 O57 1.247 . S
C64 O58 1.261 . S
C65 O60 1.259 . S
C65 O62 1.235 . S
O66 Co56 2.021 . S
O66 C63 1.238 . S
O67 Co61 2.052 . S
O67 C63 1.241 . S
O68 Co56 2.137 . S
O68 C59 1.247 . S
O69 Co56 2.244 . S
O69 C59 1.272 . S
O69 Co61 2.135 . S
Co70 O71 2.216 . S
Co70 O72 2.091 . S
Co70 O74 2.004 . S
Co70 O80 2.021 . S
Co70 O82 2.137 . S
Co70 O83 2.244 . S
O71 Co70 2.216 . S
O71 C78 1.247 . S
O72 Co70 2.091 . S
O72 C78 1.261 . S
C73 O82 1.247 . S
C73 O83 1.272 . S
O74 Co70 2.004 . S
O74 C79 1.259 . S
Co75 O76 2.061 . S
Co75 O81 2.052 . S
Co75 O83 2.135 . S
O76 Co75 2.061 . S
O76 C79 1.235 . S
C77 O80 1.238 . S
C77 O81 1.241 . S
C78 O71 1.247 . S
C78 O72 1.261 . S
C79 O74 1.259 . S
C79 O76 1.235 . S
O80 Co70 2.021 . S
O80 C77 1.238 . S
O81 Co75 2.052 . S
O81 C77 1.241 . S
O82 Co70 2.137 . S
O82 C73 1.247 . S
O83 Co70 2.244 . S
O83 C73 1.272 . S
O83 Co75 2.135 . S
Co84 O85 2.216 . S
Co84 O86 2.091 . S
Co84 O88 2.004 . S
Co84 O94 2.021 . S
Co84 O96 2.137 . S
Co84 O97 2.244 . S
O85 Co84 2.216 . S
O85 C92 1.247 . S
O86 Co84 2.091 . S
O86 C92 1.261 . S
C87 O96 1.247 . S
C87 O97 1.272 . S
O88 Co84 2.004 . S
O88 C93 1.259 . S
Co89 O90 2.061 . S
Co89 O95 2.052 . S
Co89 O97 2.135 . S
O90 Co89 2.061 . S
O90 C93 1.235 . S
C91 O94 1.238 . S
C91 O95 1.241 . S
C92 O85 1.247 . S
C92 O86 1.261 . S
C93 O88 1.259 . S
C93 O90 1.235 . S
O94 Co84 2.021 . S
O94 C91 1.238 . S
O95 Co89 2.052 . S
O95 C91 1.241 . S
O96 Co84 2.137 . S
O96 C87 1.247 . S
O97 Co84 2.244 . S
O97 C87 1.272 . S
O97 Co89 2.135 . S
Co98 O99 2.216 . S
Co98 O100 2.091 . S
Co98 O102 2.004 . S
Co98 O108 2.021 . S
Co98 O110 2.137 . S
Co98 O111 2.244 . S
O99 Co98 2.216 . S
O99 C106 1.247 . S
O100 Co98 2.091 . S
O100 C106 1.261 . S
C101 O110 1.247 . S
C101 O111 1.272 . S
O102 Co98 2.004 . S
O102 C107 1.259 . S
Co103 O104 2.061 . S
Co103 O109 2.052 . S
Co103 O111 2.135 . S
O104 Co103 2.061 . S
O104 C107 1.235 . S
C105 O108 1.238 . S
C105 O109 1.241 . S
C106 O99 1.247 . S
C106 O100 1.261 . S
C107 O102 1.259 . S
C107 O104 1.235 . S
O108 Co98 2.021 . S
O108 C105 1.238 . S
O109 Co103 2.052 . S
O109 C105 1.241 . S
O110 Co98 2.137 . S
O110 C101 1.247 . S
O111 Co98 2.244 . S
O111 C101 1.272 . S
O111 Co103 2.135 . S
Co112 O113 2.216 . S
Co112 O114 2.091 . S
Co112 O116 2.004 . S
Co112 O122 2.021 . S
Co112 O124 2.137 . S
Co112 O125 2.244 . S
O113 Co112 2.216 . S
O113 C120 1.247 . S
O114 Co112 2.091 . S
O114 C120 1.261 . S
C115 O124 1.247 . S
C115 O125 1.272 . S
O116 Co112 2.004 . S
O116 C121 1.259 . S
Co117 O118 2.061 . S
Co117 O123 2.052 . S
Co117 O125 2.135 . S
O118 Co117 2.061 . S
O118 C121 1.235 . S
C119 O122 1.238 . S
C119 O123 1.241 . S
C120 O113 1.247 . S
C120 O114 1.261 . S
C121 O116 1.259 . S
C121 O118 1.235 . S
O122 Co112 2.021 . S
O122 C119 1.238 . S
O123 Co117 2.052 . S
O123 C119 1.241 . S
O124 Co112 2.137 . S
O124 C115 1.247 . S
O125 Co112 2.244 . S
O125 C115 1.272 . S
O125 Co117 2.135 . S
Co126 O127 2.216 . S
Co126 O128 2.091 . S
Co126 O130 2.004 . S
Co126 O136 2.021 . S
Co126 O138 2.137 . S
Co126 O139 2.244 . S
O127 Co126 2.216 . S
O127 C134 1.247 . S
O128 Co126 2.091 . S
O128 C134 1.261 . S
C129 O138 1.247 . S
C129 O139 1.272 . S
O130 Co126 2.004 . S
O130 C135 1.259 . S
Co131 O132 2.061 . S
Co131 O137 2.052 . S
Co131 O139 2.135 . S
O132 Co131 2.061 . S
O132 C135 1.235 . S
C133 O136 1.238 . S
C133 O137 1.241 . S
C134 O127 1.247 . S
C134 O128 1.261 . S
C135 O130 1.259 . S
C135 O132 1.235 . S
O136 Co126 2.021 . S
O136 C133 1.238 . S
O137 Co131 2.052 . S
O137 C133 1.241 . S
O138 Co126 2.137 . S
O138 C129 1.247 . S
O139 Co126 2.244 . S
O139 C129 1.272 . S
O139 Co131 2.135 . S
Co140 O141 2.216 . S
Co140 O142 2.091 . S
Co140 O144 2.004 . S
Co140 O150 2.021 . S
Co140 O152 2.137 . S
Co140 O153 2.244 . S
O141 Co140 2.216 . S
O141 C148 1.247 . S
O142 Co140 2.091 . S
O142 C148 1.261 . S
C143 O152 1.247 . S
C143 O153 1.272 . S
O144 Co140 2.004 . S
O144 C149 1.259 . S
Co145 O146 2.061 . S
Co145 O151 2.052 . S
Co145 O153 2.135 . S
O146 Co145 2.061 . S
O146 C149 1.235 . S
C147 O150 1.238 . S
C147 O151 1.241 . S
C148 O141 1.247 . S
C148 O142 1.261 . S
C149 O144 1.259 . S
C149 O146 1.235 . S
O150 Co140 2.021 . S
O150 C147 1.238 . S
O151 Co145 2.052 . S
O151 C147 1.241 . S
O152 Co140 2.137 . S
O152 C143 1.247 . S
O153 Co140 2.244 . S
O153 C143 1.272 . S
O153 Co145 2.135 . S
Co154 O155 2.216 . S
Co154 O156 2.091 . S
Co154 O158 2.004 . S
Co154 O164 2.021 . S
Co154 O166 2.137 . S
Co154 O167 2.244 . S
O155 Co154 2.216 . S
O155 C162 1.247 . S
O156 Co154 2.091 . S
O156 C162 1.261 . S
C157 O166 1.247 . S
C157 O167 1.272 . S
O158 Co154 2.004 . S
O158 C163 1.259 . S
Co159 O160 2.061 . S
Co159 O165 2.052 . S
Co159 O167 2.135 . S
O160 Co159 2.061 . S
O160 C163 1.235 . S
C161 O164 1.238 . S
C161 O165 1.241 . S
C162 O155 1.247 . S
C162 O156 1.261 . S
C163 O158 1.259 . S
C163 O160 1.235 . S
O164 Co154 2.021 . S
O164 C161 1.238 . S
O165 Co159 2.052 . S
O165 C161 1.241 . S
O166 Co154 2.137 . S
O166 C157 1.247 . S
O167 Co154 2.244 . S
O167 C157 1.272 . S
O167 Co159 2.135 . S
C168 C169 1.363 . S
C168 C174 1.379 . S
C168 N176 1.356 . S
C169 C168 1.363 . S
C169 C175 1.363 1_655 S
C170 C171 1.363 . S
C170 C175 1.379 . S
C170 N177 1.356 . S
C171 C170 1.363 . S
C171 C174 1.363 1_455 S
N172 C174 1.356 1_455 S
N172 H184 0.984 1_455 S
N172 H185 0.985 . S
N173 C175 1.356 1_655 S
N173 H178 0.984 . S
N173 H179 0.985 1_655 S
C174 C168 1.379 . S
C174 C171 1.363 1_655 S
C174 N172 1.356 1_655 S
C175 C169 1.363 1_455 S
C175 C170 1.379 . S
C175 N173 1.356 1_455 S
N176 C168 1.356 . S
N176 H182 0.984 . S
N176 H183 0.984 . S
N177 C170 1.356 . S
N177 H180 0.984 . S
N177 H181 0.985 . S
H178 N173 0.984 . S
H179 N173 0.985 1_455 S
H180 N177 0.984 . S
H181 N177 0.985 . S
H182 N176 0.984 . S
H183 N176 0.984 . S
H184 N172 0.984 1_655 S
H185 N172 0.985 . S
C186 C187 1.363 1_655 S
C186 C192 1.379 . S
C186 N194 1.356 1_655 S
C187 C186 1.363 1_455 S
C187 C193 1.363 . S
C188 C189 1.363 1_455 S
C188 C193 1.379 . S
C188 N195 1.356 1_455 S
C189 C188 1.363 1_655 S
C189 C192 1.363 . S
N190 C192 1.356 . S
N190 H202 0.984 . S
N190 H203 0.985 . S
N191 C193 1.356 . S
N191 H196 0.984 . S
N191 H197 0.985 . S
C192 C186 1.379 . S
C192 C189 1.363 . S
C192 N190 1.356 . S
C193 C187 1.363 . S
C193 C188 1.379 . S
C193 N191 1.356 . S
N194 C186 1.356 1_455 S
N194 H200 0.984 1_455 S
N194 H201 0.984 . S
N195 C188 1.356 1_655 S
N195 H198 0.984 . S
N195 H199 0.985 1_655 S
H196 N191 0.984 . S
H197 N191 0.985 . S
H198 N195 0.984 . S
H199 N195 0.985 1_455 S
H200 N194 0.984 1_655 S
H201 N194 0.984 . S
H202 N190 0.984 . S
H203 N190 0.985 . S
C204 C205 1.363 . S
C204 C210 1.379 . S
C204 N212 1.356 . S
C205 C204 1.363 . S
C205 C211 1.363 1_565 S
C206 C207 1.363 . S
C206 C211 1.379 . S
C206 N213 1.356 . S
C207 C206 1.363 . S
C207 C210 1.363 1_545 S
N208 C210 1.356 1_545 S
N208 H220 0.984 1_545 S
N208 H221 0.985 . S
N209 C211 1.356 1_565 S
N209 H214 0.984 . S
N209 H215 0.985 1_565 S
C210 C204 1.379 . S
C210 C207 1.363 1_565 S
C210 N208 1.356 1_565 S
C211 C205 1.363 1_545 S
C211 C206 1.379 . S
C211 N209 1.356 1_545 S
N212 C204 1.356 . S
N212 H218 0.984 . S
N212 H219 0.984 . S
N213 C206 1.356 . S
N213 H216 0.984 . S
N213 H217 0.985 . S
H214 N209 0.984 . S
H215 N209 0.985 1_545 S
H216 N213 0.984 . S
H217 N213 0.985 . S
H218 N212 0.984 . S
H219 N212 0.984 . S
H220 N208 0.984 1_565 S
H221 N208 0.985 . S
C222 C223 1.363 1_545 S
C222 C228 1.379 . S
C222 N230 1.356 1_545 S
C223 C222 1.363 1_565 S
C223 C229 1.363 . S
C224 C225 1.363 1_565 S
C224 C229 1.379 . S
C224 N231 1.356 1_565 S
C225 C224 1.363 1_545 S
C225 C228 1.363 . S
N226 C228 1.356 . S
N226 H238 0.984 . S
N226 H239 0.985 . S
N227 C229 1.356 . S
N227 H232 0.984 . S
N227 H233 0.985 . S
C228 C222 1.379 . S
C228 C225 1.363 . S
C228 N226 1.356 . S
C229 C223 1.363 . S
C229 C224 1.379 . S
C229 N227 1.356 . S
N230 C222 1.356 1_565 S
N230 H236 0.984 1_565 S
N230 H237 0.984 . S
N231 C224 1.356 1_545 S
N231 H234 0.984 . S
N231 H235 0.985 1_545 S
H232 N227 0.984 . S
H233 N227 0.985 . S
H234 N231 0.984 . S
H235 N231 0.985 1_565 S
H236 N230 0.984 1_545 S
H237 N230 0.984 . S
H238 N226 0.984 . S
H239 N226 0.985 . S
C240 C241 1.363 1_554 S
C240 C246 1.379 . S
C240 N248 1.356 . S
C241 C240 1.363 1_556 S
C241 C247 1.363 . S
C242 C243 1.363 1_556 S
C242 C247 1.379 . S
C242 N249 1.356 . S
C243 C242 1.363 1_554 S
C243 C246 1.363 . S
N244 C246 1.356 . S
N244 H256 0.984 . S
N244 H257 0.985 . S
N245 C247 1.356 . S
N245 H250 0.984 . S
N245 H251 0.985 . S
C246 C240 1.379 . S
C246 C243 1.363 . S
C246 N244 1.356 . S
C247 C241 1.363 . S
C247 C242 1.379 . S
C247 N245 1.356 . S
N248 C240 1.356 . S
N248 H254 0.984 . S
N248 H255 0.984 1_554 S
N249 C242 1.356 . S
N249 H252 0.984 1_556 S
N249 H253 0.985 . S
H250 N245 0.984 . S
H251 N245 0.985 . S
H252 N249 0.984 1_554 S
H253 N249 0.985 . S
H254 N248 0.984 . S
H255 N248 0.984 1_556 S
H256 N244 0.984 . S
H257 N244 0.985 . S
C258 C259 1.363 1_554 S
C258 C264 1.379 . S
C258 N266 1.355 1_554 S
C259 C258 1.363 1_556 S
C259 C265 1.363 . S
C260 C261 1.363 1_556 S
C260 C265 1.379 . S
C260 N267 1.355 1_556 S
C261 C260 1.363 1_554 S
C261 C264 1.363 . S
N262 C264 1.356 . S
N262 H274 0.984 . S
N262 H275 0.985 . S
N263 C265 1.356 . S
N263 H268 0.984 . S
N263 H269 0.985 . S
C264 C258 1.379 . S
C264 C261 1.363 . S
C264 N262 1.356 . S
C265 C259 1.363 . S
C265 C260 1.379 . S
C265 N263 1.356 . S
N266 C258 1.355 1_556 S
N266 H272 0.976 1_556 S
N266 H273 0.995 . S
N267 C260 1.355 1_554 S
N267 H270 0.995 . S
N267 H271 0.976 1_554 S
H268 N263 0.984 . S
H269 N263 0.985 . S
H270 N267 0.995 . S
H271 N267 0.976 1_556 S
H272 N266 0.976 1_554 S
H273 N266 0.995 . S
H274 N262 0.984 . S
H275 N262 0.985 . S
C276 C277 1.363 . S
C276 C282 1.379 . S
C276 N284 1.356 . S
C277 C276 1.363 . S
C277 C283 1.363 . S
C278 C279 1.363 . S
C278 C283 1.379 . S
C278 N285 1.356 . S
C279 C278 1.363 . S
C279 C282 1.363 . S
N280 C282 1.356 . S
N280 H292 0.984 . S
N280 H293 0.985 . S
N281 C283 1.356 . S
N281 H286 0.984 . S
N281 H287 0.985 . S
C282 C276 1.379 . S
C282 C279 1.363 . S
C282 N280 1.356 . S
C283 C277 1.363 . S
C283 C278 1.379 . S
C283 N281 1.356 . S
N284 C276 1.356 . S
N284 H290 0.984 . S
N284 H291 0.984 . S
N285 C278 1.356 . S
N285 H288 0.984 . S
N285 H289 0.985 . S
H286 N281 0.984 . S
H287 N281 0.985 . S
H288 N285 0.984 . S
H289 N285 0.985 . S
H290 N284 0.984 . S
H291 N284 0.984 . S
H292 N280 0.984 . S
H293 N280 0.985 . S
C294 C295 1.363 . S
C294 C300 1.379 . S
C294 N302 1.356 . S
C295 C294 1.363 . S
C295 C301 1.363 . S
C296 C297 1.363 . S
C296 C301 1.379 . S
C296 N303 1.356 . S
C297 C296 1.363 . S
C297 C300 1.363 . S
N298 C300 1.356 . S
N298 H310 0.984 . S
N298 H311 0.985 . S
N299 C301 1.356 . S
N299 H304 0.984 . S
N299 H305 0.985 . S
C300 C294 1.379 . S
C300 C297 1.363 . S
C300 N298 1.356 . S
C301 C295 1.363 . S
C301 C296 1.379 . S
C301 N299 1.356 . S
N302 C294 1.356 . S
N302 H308 0.984 . S
N302 H309 0.984 . S
N303 C296 1.356 . S
N303 H306 0.984 . S
N303 H307 0.985 . S
H304 N299 0.984 . S
H305 N299 0.985 . S
H306 N303 0.984 . S
H307 N303 0.985 . S
H308 N302 0.984 . S
H309 N302 0.984 . S
H310 N298 0.984 . S
H311 N298 0.985 . S
C312 C313 1.363 . S
C312 C318 1.379 . S
C312 N320 1.356 . S
C313 C312 1.363 . S
C313 C319 1.363 . S
C314 C315 1.363 . S
C314 C319 1.379 . S
C314 N321 1.356 . S
C315 C314 1.363 . S
C315 C318 1.363 . S
N316 C318 1.356 . S
N316 H328 0.984 . S
N316 H329 0.985 . S
N317 C319 1.356 . S
N317 H322 0.984 . S
N317 H323 0.985 . S
C318 C312 1.379 . S
C318 C315 1.363 . S
C318 N316 1.356 . S
C319 C313 1.363 . S
C319 C314 1.379 . S
C319 N317 1.356 . S
N320 C312 1.356 . S
N320 H326 0.984 . S
N320 H327 0.984 . S
N321 C314 1.356 . S
N321 H324 0.984 . S
N321 H325 0.985 . S
H322 N317 0.984 . S
H323 N317 0.985 . S
H324 N321 0.984 . S
H325 N321 0.985 . S
H326 N320 0.984 . S
H327 N320 0.984 . S
H328 N316 0.984 . S
H329 N316 0.985 . S
C330 C331 1.363 . S
C330 C336 1.379 . S
C330 N338 1.356 . S
C331 C330 1.363 . S
C331 C337 1.363 . S
C332 C333 1.363 . S
C332 C337 1.379 . S
C332 N339 1.356 . S
C333 C332 1.363 . S
C333 C336 1.363 . S
N334 C336 1.356 . S
N334 H346 0.984 . S
N334 H347 0.985 . S
N335 C337 1.356 . S
N335 H340 0.984 . S
N335 H341 0.985 . S
C336 C330 1.379 . S
C336 C333 1.363 . S
C336 N334 1.356 . S
C337 C331 1.363 . S
C337 C332 1.379 . S
C337 N335 1.356 . S
N338 C330 1.356 . S
N338 H344 0.984 . S
N338 H345 0.984 . S
N339 C332 1.356 . S
N339 H342 0.984 . S
N339 H343 0.985 . S
H340 N335 0.984 . S
H341 N335 0.985 . S
H342 N339 0.984 . S
H343 N339 0.985 . S
H344 N338 0.984 . S
H345 N338 0.984 . S
H346 N334 0.984 . S
H347 N334 0.985 . S
C348 C349 1.363 . S
C348 C354 1.379 . S
C348 N356 1.356 . S
C349 C348 1.363 . S
C349 C355 1.363 . S
C350 C351 1.363 . S
C350 C355 1.379 . S
C350 N357 1.356 . S
C351 C350 1.363 . S
C351 C354 1.363 . S
N352 C354 1.356 . S
N352 H364 0.984 . S
N352 H365 0.985 . S
N353 C355 1.356 . S
N353 H358 0.984 . S
N353 H359 0.985 . S
C354 C348 1.379 . S
C354 C351 1.363 . S
C354 N352 1.356 . S
C355 C349 1.363 . S
C355 C350 1.379 . S
C355 N353 1.356 . S
N356 C348 1.356 . S
N356 H362 0.984 . S
N356 H363 0.984 . S
N357 C350 1.356 . S
N357 H360 0.984 . S
N357 H361 0.985 1_554 S
H358 N353 0.984 . S
H359 N353 0.985 . S
H360 N357 0.984 . S
H361 N357 0.985 1_556 S
H362 N356 0.984 . S
H363 N356 0.984 . S
H364 N352 0.984 . S
H365 N352 0.985 . S
C366 C367 1.363 . S
C366 C372 1.379 . S
C366 N374 1.356 . S
C367 C366 1.363 . S
C367 C373 1.363 . S
C368 C369 1.363 . S
C368 C373 1.379 . S
C368 N375 1.356 . S
C369 C368 1.363 . S
C369 C372 1.363 . S
N370 C372 1.356 . S
N370 H382 0.984 . S
N370 H383 0.985 . S
N371 C373 1.356 . S
N371 H376 0.984 . S
N371 H377 0.985 . S
C372 C366 1.379 . S
C372 C369 1.363 . S
C372 N370 1.356 . S
C373 C367 1.363 . S
C373 C368 1.379 . S
C373 N371 1.356 . S
N374 C366 1.356 . S
N374 H380 0.984 . S
N374 H381 0.984 . S
N375 C368 1.356 . S
N375 H378 0.984 . S
N375 H379 0.985 . S
H376 N371 0.984 . S
H377 N371 0.985 . S
H378 N375 0.984 . S
H379 N375 0.985 . S
H380 N374 0.984 . S
H381 N374 0.984 . S
H382 N370 0.984 . S
H383 N370 0.985 . S
C384 C385 1.363 . S
C384 C390 1.379 . S
C384 N392 1.356 . S
C385 C384 1.363 . S
C385 C391 1.363 . S
C386 C387 1.363 . S
C386 C391 1.379 . S
C386 N393 1.356 . S
C387 C386 1.363 . S
C387 C390 1.363 . S
N388 C390 1.356 . S
N388 H400 0.984 . S
N388 H401 0.985 . S
N389 C391 1.356 . S
N389 H394 0.984 . S
N389 H395 0.985 . S
C390 C384 1.379 . S
C390 C387 1.363 . S
C390 N388 1.356 . S
C391 C385 1.363 . S
C391 C386 1.379 . S
C391 N389 1.356 . S
N392 C384 1.356 . S
N392 H398 0.984 1_556 S
N392 H399 0.984 . S
N393 C386 1.356 . S
N393 H396 0.984 . S
N393 H397 0.985 . S
H394 N389 0.984 . S
H395 N389 0.985 . S
H396 N393 0.984 . S
H397 N393 0.985 . S
H398 N392 0.984 1_554 S
H399 N392 0.984 . S
H400 N388 0.984 . S
H401 N388 0.985 . S
C402 C403 1.363 . S
C402 C408 1.379 . S
C402 N410 1.356 . S
C403 C402 1.363 . S
C403 C409 1.363 . S
C404 C405 1.363 . S
C404 C409 1.379 . S
C404 N411 1.356 . S
C405 C404 1.363 . S
C405 C408 1.363 . S
N406 C408 1.356 . S
N406 H418 0.984 1_556 S
N406 H419 0.985 . S
N407 C409 1.356 . S
N407 H412 0.984 . S
N407 H413 0.985 . S
C408 C402 1.379 . S
C408 C405 1.363 . S
C408 N406 1.356 . S
C409 C403 1.363 . S
C409 C404 1.379 . S
C409 N407 1.356 . S
N410 C402 1.356 . S
N410 H416 0.984 . S
N410 H417 0.984 . S
N411 C404 1.356 . S
N411 H414 0.984 . S
N411 H415 0.985 . S
H412 N407 0.984 . S
H413 N407 0.985 . S
H414 N411 0.984 . S
H415 N411 0.985 . S
H416 N410 0.984 . S
H417 N410 0.984 . S
H418 N406 0.984 1_554 S
H419 N406 0.985 . S
C420 C421 1.363 . S
C420 C426 1.379 . S
C420 N428 1.356 . S
C421 C420 1.363 . S
C421 C427 1.363 . S
C422 C423 1.363 . S
C422 C427 1.379 . S
C422 N429 1.356 . S
C423 C422 1.363 . S
C423 C426 1.363 . S
N424 C426 1.356 . S
N424 H436 0.984 . S
N424 H437 0.985 . S
N425 C427 1.356 . S
N425 H430 0.984 . S
N425 H431 0.985 . S
C426 C420 1.379 . S
C426 C423 1.363 . S
C426 N424 1.356 . S
C427 C421 1.363 . S
C427 C422 1.379 . S
C427 N425 1.356 . S
N428 C420 1.356 . S
N428 H434 0.984 . S
N428 H435 0.984 . S
N429 C422 1.356 . S
N429 H432 0.984 . S
N429 H433 0.985 . S
H430 N425 0.984 . S
H431 N425 0.985 . S
H432 N429 0.984 . S
H433 N429 0.985 . S
H434 N428 0.984 . S
H435 N428 0.984 . S
H436 N424 0.984 . S
H437 N424 0.985 . S
C438 C439 1.363 . S
C438 C444 1.379 . S
C438 N446 1.356 . S
C439 C438 1.363 . S
C439 C445 1.363 . S
C440 C441 1.363 . S
C440 C445 1.379 . S
C440 N447 1.356 . S
C441 C440 1.363 . S
C441 C444 1.363 . S
N442 C444 1.356 . S
N442 H454 0.984 . S
N442 H455 0.985 . S
N443 C445 1.356 . S
N443 H448 0.984 . S
N443 H449 0.985 1_455 S
C444 C438 1.379 . S
C444 C441 1.363 . S
C444 N442 1.356 . S
C445 C439 1.363 . S
C445 C440 1.379 . S
C445 N443 1.356 . S
N446 C438 1.356 . S
N446 H452 0.984 . S
N446 H453 0.984 . S
N447 C440 1.356 . S
N447 H450 0.984 . S
N447 H451 0.985 . S
H448 N443 0.984 . S
H449 N443 0.985 1_655 S
H450 N447 0.984 . S
H451 N447 0.985 . S
H452 N446 0.984 . S
H453 N446 0.984 . S
H454 N442 0.984 . S
H455 N442 0.985 . S
C456 C457 1.363 . S
C456 C462 1.379 . S
C456 N464 1.356 . S
C457 C456 1.363 . S
C457 C463 1.363 . S
C458 C459 1.363 . S
C458 C463 1.379 . S
C458 N465 1.356 . S
C459 C458 1.363 . S
C459 C462 1.363 . S
N460 C462 1.356 . S
N460 H472 0.984 . S
N460 H473 0.985 . S
N461 C463 1.356 . S
N461 H466 0.984 . S
N461 H467 0.985 . S
C462 C456 1.379 . S
C462 C459 1.363 . S
C462 N460 1.356 . S
C463 C457 1.363 . S
C463 C458 1.379 . S
C463 N461 1.356 . S
N464 C456 1.356 . S
N464 H470 0.984 . S
N464 H471 0.984 . S
N465 C458 1.356 . S
N465 H468 0.984 . S
N465 H469 0.985 . S
H466 N461 0.984 . S
H467 N461 0.985 . S
H468 N465 0.984 . S
H469 N465 0.985 . S
H470 N464 0.984 . S
H471 N464 0.984 . S
H472 N460 0.984 . S
H473 N460 0.985 . S
C474 C475 1.363 . S
C474 C480 1.379 . S
C474 N482 1.356 . S
C475 C474 1.363 . S
C475 C481 1.363 . S
C476 C477 1.363 . S
C476 C481 1.379 . S
C476 N483 1.356 . S
C477 C476 1.363 . S
C477 C480 1.363 . S
N478 C480 1.356 . S
N478 H490 0.984 . S
N478 H491 0.985 . S
N479 C481 1.356 . S
N479 H484 0.984 . S
N479 H485 0.985 1_655 S
C480 C474 1.379 . S
C480 C477 1.363 . S
C480 N478 1.356 . S
C481 C475 1.363 . S
C481 C476 1.379 . S
C481 N479 1.356 . S
N482 C474 1.356 . S
N482 H488 0.984 . S
N482 H489 0.984 . S
N483 C476 1.356 . S
N483 H486 0.984 . S
N483 H487 0.985 . S
H484 N479 0.984 . S
H485 N479 0.985 1_455 S
H486 N483 0.984 . S
H487 N483 0.985 . S
H488 N482 0.984 . S
H489 N482 0.984 . S
H490 N478 0.984 . S
H491 N478 0.985 . S
C492 C493 1.363 . S
C492 C498 1.379 1_545 S
C492 N500 1.356 . S
C493 C492 1.363 . S
C493 C499 1.363 1_455 S
C494 C495 1.363 . S
C494 C499 1.379 1_565 S
C494 N501 1.356 . S
C495 C494 1.363 . S
C495 C498 1.363 1_655 S
N496 C498 1.356 . S
N496 H508 0.984 . S
N496 H509 0.985 1_455 S
N497 C499 1.356 . S
N497 H502 0.984 1_655 S
N497 H503 0.985 . S
C498 C492 1.379 1_565 S
C498 C495 1.363 1_455 S
C498 N496 1.356 . S
C499 C493 1.363 1_655 S
C499 C494 1.379 1_545 S
C499 N497 1.356 . S
N500 C492 1.356 . S
N500 H506 0.984 . S
N500 H507 0.984 . S
N501 C494 1.356 . S
N501 H504 0.984 . S
N501 H505 0.985 . S
H502 N497 0.984 1_455 S
H503 N497 0.985 . S
H504 N501 0.984 . S
H505 N501 0.985 . S
H506 N500 0.984 . S
H507 N500 0.984 . S
H508 N496 0.984 . S
H509 N496 0.985 1_655 S
C510 C511 1.363 1_455 S
C510 C516 1.379 1_545 S
C510 N518 1.356 . S
C511 C510 1.363 1_655 S
C511 C517 1.363 . S
C512 C513 1.363 1_655 S
C512 C517 1.379 1_565 S
C512 N519 1.356 . S
C513 C512 1.363 1_455 S
C513 C516 1.363 . S
N514 C516 1.356 . S
N514 H526 0.984 . S
N514 H527 0.985 . S
N515 C517 1.356 . S
N515 H520 0.984 . S
N515 H521 0.985 . S
C516 C510 1.379 1_565 S
C516 C513 1.363 . S
C516 N514 1.356 . S
C517 C511 1.363 . S
C517 C512 1.379 1_545 S
C517 N515 1.356 . S
N518 C510 1.356 . S
N518 H524 0.984 . S
N518 H525 0.984 1_455 S
N519 C512 1.356 . S
N519 H522 0.984 1_655 S
N519 H523 0.985 . S
H520 N515 0.984 . S
H521 N515 0.985 . S
H522 N519 0.984 1_455 S
H523 N519 0.985 . S
H524 N518 0.984 . S
H525 N518 0.984 1_655 S
H526 N514 0.984 . S
H527 N514 0.985 . S
C528 C529 1.363 1_545 S
C528 C534 1.379 1_556 S
C528 N536 1.356 . S
C529 C528 1.363 1_565 S
C529 C535 1.363 . S
C530 C531 1.363 1_565 S
C530 C535 1.379 1_554 S
C530 N537 1.356 . S
C531 C530 1.363 1_545 S
C531 C534 1.363 . S
N532 C534 1.356 . S
N532 H544 0.984 . S
N532 H545 0.985 . S
N533 C535 1.356 . S
N533 H538 0.984 . S
N533 H539 0.985 . S
C534 C528 1.379 1_554 S
C534 C531 1.363 . S
C534 N532 1.356 . S
C535 C529 1.363 . S
C535 C530 1.379 1_556 S
C535 N533 1.356 . S
N536 C528 1.356 . S
N536 H542 0.984 . S
N536 H543 0.984 . S
N537 C530 1.356 . S
N537 H540 0.984 . S
N537 H541 0.985 . S
H538 N533 0.984 . S
H539 N533 0.985 . S
H540 N537 0.984 . S
H541 N537 0.985 . S
H542 N536 0.984 . S
H543 N536 0.984 . S
H544 N532 0.984 . S
H545 N532 0.985 . S
C546 C547 1.363 1_545 S
C546 C552 1.379 1_554 S
C546 N554 1.356 . S
C547 C546 1.363 1_565 S
C547 C553 1.363 . S
C548 C549 1.363 1_565 S
C548 C553 1.379 1_556 S
C548 N555 1.356 . S
C549 C548 1.363 1_545 S
C549 C552 1.363 . S
N550 C552 1.356 . S
N550 H562 0.984 . S
N550 H563 0.985 . S
N551 C553 1.356 . S
N551 H556 0.984 . S
N551 H557 0.985 . S
C552 C546 1.379 1_556 S
C552 C549 1.363 . S
C552 N550 1.356 . S
C553 C547 1.363 . S
C553 C548 1.379 1_554 S
C553 N551 1.356 . S
N554 C546 1.356 . S
N554 H560 0.984 . S
N554 H561 0.984 1_545 S
N555 C548 1.356 . S
N555 H558 0.984 1_565 S
N555 H559 0.985 . S
H556 N551 0.984 . S
H557 N551 0.985 . S
H558 N555 0.984 1_545 S
H559 N555 0.985 . S
H560 N554 0.984 . S
H561 N554 0.984 1_565 S
H562 N550 0.984 . S
H563 N550 0.985 . S
C564 C565 1.363 . S
C564 C570 1.379 1_655 S
C564 N572 1.356 . S
C565 C564 1.363 . S
C565 C571 1.363 1_556 S
C566 C567 1.363 . S
C566 C571 1.379 1_455 S
C566 N573 1.356 . S
C567 C566 1.363 . S
C567 C570 1.363 1_554 S
N568 C570 1.356 . S
N568 H580 0.984 . S
N568 H581 0.985 1_556 S
N569 C571 1.356 . S
N569 H574 0.984 1_554 S
N569 H575 0.985 . S
C570 C564 1.379 1_455 S
C570 C567 1.363 1_556 S
C570 N568 1.356 . S
C571 C565 1.363 1_554 S
C571 C566 1.379 1_655 S
C571 N569 1.356 . S
N572 C564 1.356 . S
N572 H578 0.984 . S
N572 H579 0.984 . S
N573 C566 1.356 . S
N573 H576 0.984 . S
N573 H577 0.985 . S
H574 N569 0.984 1_556 S
H575 N569 0.985 . S
H576 N573 0.984 . S
H577 N573 0.985 . S
H578 N572 0.984 . S
H579 N572 0.984 . S
H580 N568 0.984 . S
H581 N568 0.985 1_554 S
C582 C583 1.363 . S
C582 C588 1.379 1_455 S
C582 N590 1.356 . S
C583 C582 1.363 . S
C583 C589 1.363 1_556 S
C584 C585 1.363 . S
C584 C589 1.379 1_655 S
C584 N591 1.356 . S
C585 C584 1.363 . S
C585 C588 1.363 1_554 S
N586 C588 1.356 . S
N586 H598 0.984 . S
N586 H599 0.985 1_556 S
N587 C589 1.356 . S
N587 H592 0.984 1_554 S
N587 H593 0.985 . S
C588 C582 1.379 1_655 S
C588 C585 1.363 1_556 S
C588 N586 1.356 . S
C589 C583 1.363 1_554 S
C589 C584 1.379 1_455 S
C589 N587 1.356 . S
N590 C582 1.356 . S
N590 H596 0.984 . S
N590 H597 0.984 . S
N591 C584 1.356 . S
N591 H594 0.984 . S
N591 H595 0.985 . S
H592 N587 0.984 1_556 S
H593 N587 0.985 . S
H594 N591 0.984 . S
H595 N591 0.985 . S
H596 N590 0.984 . S
H597 N590 0.984 . S
H598 N586 0.984 . S
H599 N586 0.985 1_554 S
C169 C50 1.188 . S
C171 C8 1.188 . S
C187 C36 1.188 . S
C189 C22 1.188 . S
C205 C78 1.188 . S
C207 C64 1.188 . S
C223 C92 1.188 . S
C225 C106 1.188 . S
C241 C134 1.188 . S
C243 C120 1.188 . S
C259 C148 1.188 . S
C261 C162 1.188 . S
C277 C9 1.148 . S
C279 C101 1.134 . S
C295 C87 1.134 . S
C297 C23 1.148 . S
C313 C73 1.134 . S
C315 C37 1.148 . S
C331 C59 1.134 . S
C333 C51 1.148 . S
C349 C65 1.148 . S
C351 C157 1.134 . S
C367 C115 1.134 . S
C369 C79 1.148 . S
C385 C143 1.134 . S
C387 C93 1.148 . S
C403 C107 1.148 . S
C405 C129 1.134 . S
C421 C31 1.134 . S
C423 C121 1.148 . S
C439 C3 1.134 . S
C441 C135 1.148 . S
C457 C149 1.148 . S
C459 C17 1.134 . S
C475 C45 1.134 . S
C477 C163 1.148 . S
C493 C7 1.300 . S
C495 C21 1.300 . S
C511 C49 1.300 . S
C513 C35 1.300 . S
C529 C91 1.300 . S
C531 C63 1.300 . S
C547 C77 1.300 . S
C549 C105 1.300 . S
C565 C147 1.300 . S
C567 C119 1.300 . S
C583 C133 1.300 . S
C585 C161 1.300 . S
