# Generated by pormake.
# Topology wmt, (6)-cn, num edge types: 1
# Building blocks:
#     Node 0, Type 0, BuildingBlock: GEDQOX_clean_sbu_0, # of connection points: 6
#     Node 1, Type 0, BuildingBlock: GEDQOX_clean_sbu_0, # of connection points: 6
#     Node 2, Type 0, BuildingBlock: GEDQOX_clean_sbu_0, # of connection points: 6
#     Node 3, Type 0, BuildingBlock: GEDQOX_clean_sbu_0, # of connection points: 6
#     Node 4, Type 0, BuildingBlock: GEDQOX_clean_sbu_0, # of connection points: 6
#     Node 5, Type 0, BuildingBlock: GEDQOX_clean_sbu_0, # of connection points: 6
#     Node 6, Type 0, BuildingBlock: GEDQOX_clean_sbu_0, # of connection points: 6
#     Node 7, Type 0, BuildingBlock: GEDQOX_clean_sbu_0, # of connection points: 6
#     Node 8, Type 0, BuildingBlock: GEDQOX_clean_sbu_0, # of connection points: 6
#     Node 9, Type 0, BuildingBlock: GEDQOX_clean_sbu_0, # of connection points: 6
#     Node 10, Type 0, BuildingBlock: GEDQOX_clean_sbu_0, # of connection points: 6
#     Node 11, Type 0, BuildingBlock: GEDQOX_clean_sbu_0, # of connection points: 6
#     Node 12, Type 0, BuildingBlock: GEDQOX_clean_sbu_0, # of connection points: 6
#     Node 13, Type 0, BuildingBlock: GEDQOX_clean_sbu_0, # of connection points: 6
#     Node 14, Type 0, BuildingBlock: GEDQOX_clean_sbu_0, # of connection points: 6
#     Node 15, Type 0, BuildingBlock: GEDQOX_clean_sbu_0, # of connection points: 6
#     Node 16, Type 0, BuildingBlock: GEDQOX_clean_sbu_0, # of connection points: 6
#     Node 17, Type 0, BuildingBlock: GEDQOX_clean_sbu_0, # of connection points: 6
#     Node 18, Type 0, BuildingBlock: GEDQOX_clean_sbu_0, # of connection points: 6
#     Node 19, Type 0, BuildingBlock: GEDQOX_clean_sbu_0, # of connection points: 6
#     Node 20, Type 0, BuildingBlock: GEDQOX_clean_sbu_0, # of connection points: 6
#     Node 21, Type 0, BuildingBlock: GEDQOX_clean_sbu_0, # of connection points: 6
#     Node 22, Type 0, BuildingBlock: GEDQOX_clean_sbu_0, # of connection points: 6
#     Node 23, Type 0, BuildingBlock: GEDQOX_clean_sbu_0, # of connection points: 6
#     Node 24, Type 0, BuildingBlock: GEDQOX_clean_sbu_0, # of connection points: 6
#     Node 25, Type 0, BuildingBlock: GEDQOX_clean_sbu_0, # of connection points: 6
#     Node 26, Type 0, BuildingBlock: GEDQOX_clean_sbu_0, # of connection points: 6
#     Node 27, Type 0, BuildingBlock: GEDQOX_clean_sbu_0, # of connection points: 6
#     Node 28, Type 0, BuildingBlock: GEDQOX_clean_sbu_0, # of connection points: 6
#     Node 29, Type 0, BuildingBlock: GEDQOX_clean_sbu_0, # of connection points: 6
#     Node 30, Type 0, BuildingBlock: GEDQOX_clean_sbu_0, # of connection points: 6
#     Node 31, Type 0, BuildingBlock: GEDQOX_clean_sbu_0, # of connection points: 6
#     Node 32, Type 0, BuildingBlock: GEDQOX_clean_sbu_0, # of connection points: 6
#     Node 33, Type 0, BuildingBlock: GEDQOX_clean_sbu_0, # of connection points: 6
#     Node 34, Type 0, BuildingBlock: GEDQOX_clean_sbu_0, # of connection points: 6
#     Node 35, Type 0, BuildingBlock: GEDQOX_clean_sbu_0, # of connection points: 6
#     Edge 36, Type (0, 0), BuildingBlock: XIVTED_clean_linker_0, # of connection points: 2
#     Edge 37, Type (0, 0), BuildingBlock: XIVTED_clean_linker_0, # of connection points: 2
#     Edge 38, Type (0, 0), BuildingBlock: XIVTED_clean_linker_0, # of connection points: 2
#     Edge 39, Type (0, 0), BuildingBlock: XIVTED_clean_linker_0, # of connection points: 2
#     Edge 40, Type (0, 0), BuildingBlock: XIVTED_clean_linker_0, # of connection points: 2
#     Edge 41, Type (0, 0), BuildingBlock: XIVTED_clean_linker_0, # of connection points: 2
#     Edge 42, Type (0, 0), BuildingBlock: XIVTED_clean_linker_0, # of connection points: 2
#     Edge 43, Type (0, 0), BuildingBlock: XIVTED_clean_linker_0, # of connection points: 2
#     Edge 44, Type (0, 0), BuildingBlock: XIVTED_clean_linker_0, # of connection points: 2
#     Edge 45, Type (0, 0), BuildingBlock: XIVTED_clean_linker_0, # of connection points: 2
#     Edge 46, Type (0, 0), BuildingBlock: XIVTED_clean_linker_0, # of connection points: 2
#     Edge 47, Type (0, 0), BuildingBlock: XIVTED_clean_linker_0, # of connection points: 2
#     Edge 48, Type (0, 0), BuildingBlock: XIVTED_clean_linker_0, # of connection points: 2
#     Edge 49, Type (0, 0), BuildingBlock: XIVTED_clean_linker_0, # of connection points: 2
#     Edge 50, Type (0, 0), BuildingBlock: XIVTED_clean_linker_0, # of connection points: 2
#     Edge 51, Type (0, 0), BuildingBlock: XIVTED_clean_linker_0, # of connection points: 2
#     Edge 52, Type (0, 0), BuildingBlock: XIVTED_clean_linker_0, # of connection points: 2
#     Edge 53, Type (0, 0), BuildingBlock: XIVTED_clean_linker_0, # of connection points: 2
#     Edge 54, Type (0, 0), BuildingBlock: XIVTED_clean_linker_0, # of connection points: 2
#     Edge 55, Type (0, 0), BuildingBlock: XIVTED_clean_linker_0, # of connection points: 2
#     Edge 56, Type (0, 0), BuildingBlock: XIVTED_clean_linker_0, # of connection points: 2
#     Edge 57, Type (0, 0), BuildingBlock: XIVTED_clean_linker_0, # of connection points: 2
#     Edge 58, Type (0, 0), BuildingBlock: XIVTED_clean_linker_0, # of connection points: 2
#     Edge 59, Type (0, 0), BuildingBlock: XIVTED_clean_linker_0, # of connection points: 2
#     Edge 60, Type (0, 0), BuildingBlock: XIVTED_clean_linker_0, # of connection points: 2
#     Edge 61, Type (0, 0), BuildingBlock: XIVTED_clean_linker_0, # of connection points: 2
#     Edge 62, Type (0, 0), BuildingBlock: XIVTED_clean_linker_0, # of connection points: 2
#     Edge 63, Type (0, 0), BuildingBlock: XIVTED_clean_linker_0, # of connection points: 2
#     Edge 64, Type (0, 0), BuildingBlock: XIVTED_clean_linker_0, # of connection points: 2
#     Edge 65, Type (0, 0), BuildingBlock: XIVTED_clean_linker_0, # of connection points: 2
#     Edge 66, Type (0, 0), BuildingBlock: XIVTED_clean_linker_0, # of connection points: 2
#     Edge 67, Type (0, 0), BuildingBlock: XIVTED_clean_linker_0, # of connection points: 2
#     Edge 68, Type (0, 0), BuildingBlock: XIVTED_clean_linker_0, # of connection points: 2
#     Edge 69, Type (0, 0), BuildingBlock: XIVTED_clean_linker_0, # of connection points: 2
#     Edge 70, Type (0, 0), BuildingBlock: XIVTED_clean_linker_0, # of connection points: 2
#     Edge 71, Type (0, 0), BuildingBlock: XIVTED_clean_linker_0, # of connection points: 2
#     Edge 72, Type (0, 0), BuildingBlock: XIVTED_clean_linker_0, # of connection points: 2
#     Edge 73, Type (0, 0), BuildingBlock: XIVTED_clean_linker_0, # of connection points: 2
#     Edge 74, Type (0, 0), BuildingBlock: XIVTED_clean_linker_0, # of connection points: 2
#     Edge 75, Type (0, 0), BuildingBlock: XIVTED_clean_linker_0, # of connection points: 2
#     Edge 76, Type (0, 0), BuildingBlock: XIVTED_clean_linker_0, # of connection points: 2
#     Edge 77, Type (0, 0), BuildingBlock: XIVTED_clean_linker_0, # of connection points: 2
#     Edge 78, Type (0, 0), BuildingBlock: XIVTED_clean_linker_0, # of connection points: 2
#     Edge 79, Type (0, 0), BuildingBlock: XIVTED_clean_linker_0, # of connection points: 2
#     Edge 80, Type (0, 0), BuildingBlock: XIVTED_clean_linker_0, # of connection points: 2
#     Edge 81, Type (0, 0), BuildingBlock: XIVTED_clean_linker_0, # of connection points: 2
#     Edge 82, Type (0, 0), BuildingBlock: XIVTED_clean_linker_0, # of connection points: 2
#     Edge 83, Type (0, 0), BuildingBlock: XIVTED_clean_linker_0, # of connection points: 2
#     Edge 84, Type (0, 0), BuildingBlock: XIVTED_clean_linker_0, # of connection points: 2
#     Edge 85, Type (0, 0), BuildingBlock: XIVTED_clean_linker_0, # of connection points: 2
#     Edge 86, Type (0, 0), BuildingBlock: XIVTED_clean_linker_0, # of connection points: 2
#     Edge 87, Type (0, 0), BuildingBlock: XIVTED_clean_linker_0, # of connection points: 2
#     Edge 88, Type (0, 0), BuildingBlock: XIVTED_clean_linker_0, # of connection points: 2
#     Edge 89, Type (0, 0), BuildingBlock: XIVTED_clean_linker_0, # of connection points: 2
#     Edge 90, Type (0, 0), BuildingBlock: XIVTED_clean_linker_0, # of connection points: 2
#     Edge 91, Type (0, 0), BuildingBlock: XIVTED_clean_linker_0, # of connection points: 2
#     Edge 92, Type (0, 0), BuildingBlock: XIVTED_clean_linker_0, # of connection points: 2
#     Edge 93, Type (0, 0), BuildingBlock: XIVTED_clean_linker_0, # of connection points: 2
#     Edge 94, Type (0, 0), BuildingBlock: XIVTED_clean_linker_0, # of connection points: 2
#     Edge 95, Type (0, 0), BuildingBlock: XIVTED_clean_linker_0, # of connection points: 2
#     Edge 96, Type (0, 0), BuildingBlock: XIVTED_clean_linker_0, # of connection points: 2
#     Edge 97, Type (0, 0), BuildingBlock: XIVTED_clean_linker_0, # of connection points: 2
#     Edge 98, Type (0, 0), BuildingBlock: XIVTED_clean_linker_0, # of connection points: 2
#     Edge 99, Type (0, 0), BuildingBlock: XIVTED_clean_linker_0, # of connection points: 2
#     Edge 100, Type (0, 0), BuildingBlock: XIVTED_clean_linker_0, # of connection points: 2
#     Edge 101, Type (0, 0), BuildingBlock: XIVTED_clean_linker_0, # of connection points: 2
#     Edge 102, Type (0, 0), BuildingBlock: XIVTED_clean_linker_0, # of connection points: 2
#     Edge 103, Type (0, 0), BuildingBlock: XIVTED_clean_linker_0, # of connection points: 2
#     Edge 104, Type (0, 0), BuildingBlock: XIVTED_clean_linker_0, # of connection points: 2
#     Edge 105, Type (0, 0), BuildingBlock: XIVTED_clean_linker_0, # of connection points: 2
#     Edge 106, Type (0, 0), BuildingBlock: XIVTED_clean_linker_0, # of connection points: 2
#     Edge 107, Type (0, 0), BuildingBlock: XIVTED_clean_linker_0, # of connection points: 2
#     Edge 108, Type (0, 0), BuildingBlock: XIVTED_clean_linker_0, # of connection points: 2
#     Edge 109, Type (0, 0), BuildingBlock: XIVTED_clean_linker_0, # of connection points: 2
#     Edge 110, Type (0, 0), BuildingBlock: XIVTED_clean_linker_0, # of connection points: 2
#     Edge 111, Type (0, 0), BuildingBlock: XIVTED_clean_linker_0, # of connection points: 2
#     Edge 112, Type (0, 0), BuildingBlock: XIVTED_clean_linker_0, # of connection points: 2
#     Edge 113, Type (0, 0), BuildingBlock: XIVTED_clean_linker_0, # of connection points: 2
#     Edge 114, Type (0, 0), BuildingBlock: XIVTED_clean_linker_0, # of connection points: 2
#     Edge 115, Type (0, 0), BuildingBlock: XIVTED_clean_linker_0, # of connection points: 2
#     Edge 116, Type (0, 0), BuildingBlock: XIVTED_clean_linker_0, # of connection points: 2
#     Edge 117, Type (0, 0), BuildingBlock: XIVTED_clean_linker_0, # of connection points: 2
#     Edge 118, Type (0, 0), BuildingBlock: XIVTED_clean_linker_0, # of connection points: 2
#     Edge 119, Type (0, 0), BuildingBlock: XIVTED_clean_linker_0, # of connection points: 2
#     Edge 120, Type (0, 0), BuildingBlock: XIVTED_clean_linker_0, # of connection points: 2
#     Edge 121, Type (0, 0), BuildingBlock: XIVTED_clean_linker_0, # of connection points: 2
#     Edge 122, Type (0, 0), BuildingBlock: XIVTED_clean_linker_0, # of connection points: 2
#     Edge 123, Type (0, 0), BuildingBlock: XIVTED_clean_linker_0, # of connection points: 2
#     Edge 124, Type (0, 0), BuildingBlock: XIVTED_clean_linker_0, # of connection points: 2
#     Edge 125, Type (0, 0), BuildingBlock: XIVTED_clean_linker_0, # of connection points: 2
#     Edge 126, Type (0, 0), BuildingBlock: XIVTED_clean_linker_0, # of connection points: 2
#     Edge 127, Type (0, 0), BuildingBlock: XIVTED_clean_linker_0, # of connection points: 2
#     Edge 128, Type (0, 0), BuildingBlock: XIVTED_clean_linker_0, # of connection points: 2
#     Edge 129, Type (0, 0), BuildingBlock: XIVTED_clean_linker_0, # of connection points: 2
#     Edge 130, Type (0, 0), BuildingBlock: XIVTED_clean_linker_0, # of connection points: 2
#     Edge 131, Type (0, 0), BuildingBlock: XIVTED_clean_linker_0, # of connection points: 2
#     Edge 132, Type (0, 0), BuildingBlock: XIVTED_clean_linker_0, # of connection points: 2
#     Edge 133, Type (0, 0), BuildingBlock: XIVTED_clean_linker_0, # of connection points: 2
#     Edge 134, Type (0, 0), BuildingBlock: XIVTED_clean_linker_0, # of connection points: 2
#     Edge 135, Type (0, 0), BuildingBlock: XIVTED_clean_linker_0, # of connection points: 2
#     Edge 136, Type (0, 0), BuildingBlock: XIVTED_clean_linker_0, # of connection points: 2
#     Edge 137, Type (0, 0), BuildingBlock: XIVTED_clean_linker_0, # of connection points: 2
#     Edge 138, Type (0, 0), BuildingBlock: XIVTED_clean_linker_0, # of connection points: 2
#     Edge 139, Type (0, 0), BuildingBlock: XIVTED_clean_linker_0, # of connection points: 2
#     Edge 140, Type (0, 0), BuildingBlock: XIVTED_clean_linker_0, # of connection points: 2
#     Edge 141, Type (0, 0), BuildingBlock: XIVTED_clean_linker_0, # of connection points: 2
#     Edge 142, Type (0, 0), BuildingBlock: XIVTED_clean_linker_0, # of connection points: 2
#     Edge 143, Type (0, 0), BuildingBlock: XIVTED_clean_linker_0, # of connection points: 2
# Relax obj value: 0.160
# Max RMSD: 0.201
# Mean RMSD: 0.201
data_MOF--net-wmt--node1-GEDQOX_clean_sbu_0--edge1-XIVTED_clean_linker_0
_symmetry_space_group_name_H-M    P1
_symmetry_Int_Tables_number       1
_symmetry_cell_setting            triclinic
loop_
_symmetry_equiv_pos_as_xyz
'x, y, z'
_cell_length_a     84.757608
_cell_length_b     84.695558
_cell_length_c     36.645638
_cell_angle_alpha  89.977967
_cell_angle_beta   90.010799
_cell_angle_gamma 120.003
loop_
_atom_site_label
_atom_site_type_symbol
_atom_site_fract_x
_atom_site_fract_y
_atom_site_fract_z
_atom_type_partial_charge
Nd0 Nd 0.03896 0.47867 0.03254 0.0
Nd1 Nd 0.07216 0.50319 0.98303 0.0
C2 C 0.00978 0.46331 0.07503 0.0
C3 C 0.0064 0.46125 0.11497 0.0
C4 C 0.99118 0.46146 0.12949 0.0
C5 C 0.98829 0.46059 0.16734 0.0
C6 C 0.0006 0.45951 0.19171 0.0
C7 C 0.01586 0.45931 0.17693 0.0
C8 C 0.01876 0.46023 0.13907 0.0
C9 C 0.06811 0.47277 0.03915 0.0
C10 C 0.07369 0.51373 0.06708 0.0
C11 C 0.0989 0.51794 0.93427 0.0
C12 C 0.10028 0.52124 0.89454 0.0
C13 C 0.0852 0.51123 0.87177 0.0
C14 C 0.08624 0.51517 0.83448 0.0
C15 C 0.10237 0.52935 0.81917 0.0
C16 C 0.1175 0.53933 0.84212 0.0
C17 C 0.11646 0.53528 0.87945 0.0
C18 C 0.04718 0.51449 0.99236 0.0
C19 C 0.03409 0.46993 0.945 0.0
O20 O 0.017 0.48 0.06261 0.0
O21 O 0.01678 0.45412 0.05987 0.0
O22 O 0.05774 0.4718 0.06601 0.0
O23 O 0.06243 0.47591 1.00985 0.0
O24 O 0.0558 0.50503 0.06436 0.0
O25 O 0.08385 0.51226 0.04131 0.0
O26 O 0.09146 0.50099 0.94514 0.0
O27 O 0.09337 0.52729 0.95324 0.0
O28 O 0.0646 0.52576 0.99348 0.0
O29 O 0.04414 0.49862 0.98761 0.0
O30 O 0.0509 0.48389 0.94044 0.0
O31 O 0.02649 0.46493 0.9777 0.0
H32 H 0.9816 0.46253 0.11153 0.0
H33 H 0.97656 0.46111 0.1775 0.0
H34 H 0.02556 0.4583 0.1946 0.0
H35 H 0.03074 0.46028 0.12865 0.0
H36 H 0.07252 0.50058 0.88296 0.0
H37 H 0.07422 0.50741 0.81781 0.0
H38 H 0.13015 0.55024 0.83121 0.0
H39 H 0.12822 0.54327 0.89663 0.0
Nd40 Nd 0.51631 0.5654 0.04572 0.0
Nd41 Nd 0.48536 0.56429 1.00062 0.0
C42 C 0.53623 0.56031 0.0951 0.0
C43 C 0.53558 0.55638 0.13468 0.0
C44 C 0.52003 0.54207 0.15126 0.0
C45 C 0.5199 0.53861 0.18873 0.0
C46 C 0.53528 0.54951 0.21058 0.0
C47 C 0.55072 0.56394 0.19378 0.0
C48 C 0.55088 0.56726 0.15633 0.0
C49 C 0.52046 0.59887 0.02998 0.0
C50 C 0.47828 0.55722 0.08625 0.0
C51 C 0.46524 0.56968 0.95232 0.0
C52 C 0.46176 0.56698 0.91251 0.0
C53 C 0.47613 0.57326 0.88729 0.0
C54 C 0.47257 0.5695 0.85004 0.0
C55 C 0.45455 0.55924 0.83703 0.0
C56 C 0.44018 0.55343 0.86227 0.0
C57 C 0.44376 0.55727 0.89956 0.0
C58 C 0.48296 0.53123 1.01311 0.0
C59 C 0.52247 0.56738 0.95951 0.0
O60 O 0.52438 0.54736 0.07397 0.0
O61 O 0.53892 0.5764 0.08609 0.0
O62 O 0.53353 0.59511 0.02957 0.0
O63 O 0.50558 0.58519 0.03977 0.0
O64 O 0.49206 0.55417 0.08492 0.0
O65 O 0.4743 0.56444 0.05816 0.0
O66 O 0.48141 0.58252 0.96286 0.0
O67 O 0.45905 0.55485 0.97194 0.0
O68 O 0.46887 0.53343 1.01471 0.0
O69 O 0.49681 0.54592 1.00483 0.0
O70 O 0.50805 0.5697 0.9574 0.0
O71 O 0.52758 0.56365 0.99081 0.0
H72 H 0.50796 0.53354 0.13532 0.0
H73 H 0.50782 0.52726 0.20041 0.0
H74 H 0.56268 0.57291 0.20961 0.0
H75 H 0.56299 0.57844 0.14427 0.0
H76 H 0.49016 0.58082 0.89635 0.0
H77 H 0.48401 0.57449 0.83145 0.0
H78 H 0.42615 0.54534 0.85347 0.0
H79 H 0.43244 0.55227 0.91847 0.0
Nd80 Nd 0.43187 0.95565 0.04684 0.0
Nd81 Nd 0.42202 0.92178 1.00068 0.0
C82 C 0.44594 0.98237 0.09569 0.0
C83 C 0.44846 0.98405 0.1357 0.0
C84 C 0.46267 0.0001 0.15075 0.0
C85 C 0.46513 0.00204 0.18864 0.0
C86 C 0.45321 0.98803 0.21228 0.0
C87 C 0.43907 0.97186 0.19705 0.0
C88 C 0.4368 0.96983 0.15912 0.0
C89 C 0.39529 0.93243 0.03865 0.0
C90 C 0.43054 0.91996 0.08524 0.0
C91 C 0.40932 0.89548 0.95122 0.0
C92 C 0.41392 0.89584 0.91228 0.0
C93 C 0.40718 0.87968 0.89203 0.0
C94 C 0.41307 0.88012 0.85602 0.0
C95 C 0.42593 0.89673 0.83988 0.0
C96 C 0.43214 0.91293 0.86003 0.0
C97 C 0.42624 0.91248 0.89581 0.0
C98 C 0.45858 0.9465 1.00545 0.0
C99 C 0.42682 0.96015 0.96218 0.0
O100 O 0.45554 0.97673 0.07791 0.0
O101 O 0.42921 0.975 0.08363 0.0
O102 O 0.40293 0.95005 0.03921 0.0
O103 O 0.4067 0.92724 0.04429 0.0
O104 O 0.4383 0.93783 0.08357 0.0
O105 O 0.42011 0.90951 0.05829 0.0
O106 O 0.40094 0.9044 0.96007 0.0
O107 O 0.42247 0.89856 0.97388 0.0
O108 O 0.45214 0.92905 1.0071 0.0
O109 O 0.44586 0.94979 1.00131 0.0
O110 O 0.41952 0.94211 0.96048 0.0
O111 O 0.43493 0.96927 0.99208 0.0
H112 H 0.47175 0.01124 0.13316 0.0
H113 H 0.47608 0.0147 0.19947 0.0
H114 H 0.42979 0.96074 0.21449 0.0
H115 H 0.42585 0.95722 0.1481 0.0
H116 H 0.39774 0.86669 0.90436 0.0
H117 H 0.4081 0.8674 0.84134 0.0
H118 H 0.4418 0.92599 0.84829 0.0
H119 H 0.43167 0.92511 0.91098 0.0
Nd120 Nd 0.47657 0.03985 0.65147 0.0
Nd121 Nd 0.49951 0.07309 0.69966 0.0
C122 C 0.46527 0.01344 0.60213 0.0
C123 C 0.4647 0.0116 0.56185 0.0
C124 C 0.46934 -0.00052 0.54558 0.0
C125 C 0.46873 -0.00266 0.50759 0.0
C126 C 0.46318 0.00712 0.48503 0.0
C127 C 0.45859 0.01933 0.50139 0.0
C128 C 0.45947 0.02165 0.53936 0.0
C129 C 0.46317 0.06325 0.65695 0.0
C130 C 0.51144 0.07612 0.61615 0.0
C131 C 0.51278 0.09892 0.75014 0.0
C132 C 0.51622 0.09815 0.7894 0.0
C133 C 0.52452 0.114 0.8108 0.0
C134 C 0.52844 0.1131 0.84776 0.0
C135 C 0.52409 0.09629 0.86391 0.0
C136 C 0.51578 0.08048 0.84207 0.0
C137 C 0.51187 0.0814 0.80535 0.0
C138 C 0.51104 0.04806 0.69609 0.0
C139 C 0.46512 0.03473 0.73534 0.0
O140 O 0.48134 0.02089 0.61743 0.0
O141 O 0.45466 0.01874 0.61702 0.0
O142 O 0.45318 0.04569 0.65459 0.0
O143 O 0.47989 0.06837 0.65385 0.0
O144 O 0.50164 0.0582 0.61683 0.0
O145 O 0.51062 0.08611 0.64308 0.0
O146 O 0.49565 0.09045 0.74006 0.0
O147 O 0.523 0.09565 0.72826 0.0
O148 O 0.52224 0.06547 0.6945 0.0
O149 O 0.49507 0.04496 0.69901 0.0
O150 O 0.47553 0.05277 0.73757 0.0
O151 O 0.46515 0.02587 0.70575 0.0
H152 H 0.47326 0.99149 0.56236 0.0
H153 H 0.4722 0.98771 0.49593 0.0
H154 H 0.45445 0.02721 0.48477 0.0
H155 H 0.45595 0.03122 0.5511 0.0
H156 H 0.52807 0.12707 0.79891 0.0
H157 H 0.53472 0.12552 0.86371 0.0
H158 H 0.51257 0.06735 0.85312 0.0
H159 H 0.50566 0.06902 0.7892 0.0
Nd160 Nd 0.94989 0.43304 0.63344 0.0
Nd161 Nd 0.91798 0.43081 0.67897 0.0
C162 C 0.97491 0.44039 0.58229 0.0
C163 C 0.97753 0.44417 0.5426 0.0
C164 C 0.96427 0.44502 0.52106 0.0
C165 C 0.96687 0.44815 0.4833 0.0
C166 C 0.98282 0.45048 0.4662 0.0
C167 C -0.00384 0.44987 0.4882 0.0
C168 C -0.00648 0.44676 0.52587 0.0
C169 C 0.92757 0.39993 0.66466 0.0
C170 C 0.91214 0.42637 0.59274 0.0
C171 C 0.8937 0.42522 0.73032 0.0
C172 C 0.89387 0.42999 0.76939 0.0
C173 C 0.90216 0.42474 0.79639 0.0
C174 C 0.9027 0.43008 0.83284 0.0
C175 C 0.89513 0.44091 0.84301 0.0
C176 C 0.88662 0.44589 0.81603 0.0
C177 C 0.88593 0.44042 0.77974 0.0
C178 C 0.94174 0.46412 0.64942 0.0
C179 C 0.95718 0.43897 0.7192 0.0
O180 O 0.97455 0.45282 0.60284 0.0
O181 O 0.96275 0.42383 0.59206 0.0
O182 O 0.94513 0.40712 0.66178 0.0
O183 O 0.922 0.4097 0.64962 0.0
O184 O 0.92988 0.43288 0.59134 0.0
O185 O 0.90303 0.42188 0.62391 0.0
O186 O 0.89867 0.41329 0.72202 0.0
O187 O 0.89986 0.43879 0.70719 0.0
O188 O 0.92426 0.4577 0.64992 0.0
O189 O 0.94556 0.4532 0.66463 0.0
O190 O 0.93959 0.43374 0.7223 0.0
O191 O 0.96522 0.44171 0.68712 0.0
H192 H 0.95187 0.44323 0.53336 0.0
H193 H 0.9564 0.4488 0.46756 0.0
H194 H 0.0085 0.45135 0.47623 0.0
H195 H 0.00396 0.44618 0.54193 0.0
H196 H 0.90846 0.41675 0.78933 0.0
H197 H 0.90951 0.42616 0.85288 0.0
H198 H 0.88049 0.45405 0.82298 0.0
H199 H 0.87937 0.44457 0.75958 0.0
Nd200 Nd 0.55461 0.51798 0.65064 0.0
Nd201 Nd 0.55873 0.49038 0.69818 0.0
C202 C 0.54515 0.53438 0.60058 0.0
C203 C 0.54364 0.5347 0.56023 0.0
C204 C 0.53118 0.51917 0.54043 0.0
C205 C 0.52979 0.51996 0.50241 0.0
C206 C 0.54102 0.5362 0.48329 0.0
C207 C 0.55347 0.55168 0.50316 0.0
C208 C 0.55467 0.55096 0.54116 0.0
C209 C 0.58976 0.5257 0.66017 0.0
C210 C 0.54999 0.48068 0.61332 0.0
C211 C 0.56828 0.4732 0.74601 0.0
C212 C 0.56531 0.46847 0.78518 0.0
C213 C 0.5646 0.48036 0.81097 0.0
C214 C 0.5607 0.47513 0.84763 0.0
C215 C 0.55725 0.45782 0.85914 0.0
C216 C 0.55818 0.44605 0.83324 0.0
C217 C 0.56221 0.45135 0.79668 0.0
C218 C 0.52374 0.48373 0.69004 0.0
C219 C 0.55884 0.52671 0.73598 0.0
O220 O 0.53354 0.5195 0.61762 0.0
O221 O 0.56156 0.54165 0.6143 0.0
O222 O 0.58473 0.53784 0.65916 0.0
O223 O 0.57652 0.50988 0.65458 0.0
O224 O 0.54503 0.49312 0.61386 0.0
O225 O 0.55895 0.47878 0.64102 0.0
O226 O 0.5787 0.49044 0.73748 0.0
O227 O 0.55387 0.4649 0.7252 0.0
O228 O 0.52775 0.47082 0.69016 0.0
O229 O 0.53784 0.49877 0.69512 0.0
O230 O 0.56362 0.51396 0.73878 0.0
O231 O 0.55255 0.52941 0.70509 0.0
H232 H 0.52255 0.50637 0.55421 0.0
H233 H 0.52016 0.50776 0.4879 0.0
H234 H 0.56215 0.56447 0.48935 0.0
H235 H 0.56428 0.56317 0.55569 0.0
H236 H 0.56674 0.49357 0.8027 0.0
H237 H 0.55986 0.48443 0.86674 0.0
H238 H 0.55577 0.43271 0.84124 0.0
H239 H 0.56264 0.44195 0.77722 0.0
Nd240 Nd 0.92204 0.49471 0.18334 0.0
Nd241 Nd 0.95392 0.5271 0.14213 0.0
C242 C 0.89587 0.47468 0.23039 0.0
C243 C 0.89537 0.4694 0.26888 0.0
C244 C 0.87893 0.46135 0.28838 0.0
C245 C 0.87829 0.45555 0.32448 0.0
C246 C 0.89409 0.4576 0.34152 0.0
C247 C 0.91063 0.4661 0.32204 0.0
C248 C 0.91127 0.47198 0.28614 0.0
C249 C 0.95 0.48947 0.16216 0.0
C250 C 0.95839 0.52737 0.22928 0.0
C251 C 0.97938 0.54663 0.09322 0.0
C252 C 0.9819 0.54561 0.05327 0.0
C253 C -0.00242 0.54583 0.04022 0.0
C254 C 0.00021 0.54476 1.00271 0.0
C255 C 0.98731 0.54371 0.97703 0.0
C256 C 0.97157 0.54346 0.99032 0.0
C257 C 0.96886 0.54432 0.02787 0.0
C258 C 0.927 0.5331 0.16656 0.0
C259 C 0.92028 0.49322 0.09599 0.0
O260 O 0.90143 0.49191 0.22421 0.0
O261 O 0.90277 0.4679 0.20746 0.0
O262 O 0.93308 0.4765 0.1611 0.0
O263 O 0.9512 0.50369 0.17512 0.0
O264 O 0.94131 0.5135 0.22984 0.0
O265 O 0.96717 0.53432 0.19831 0.0
O266 O 0.97969 0.53405 0.11339 0.0
O267 O 0.96696 0.55053 0.10387 0.0
O268 O 0.94419 0.54543 0.16726 0.0
O269 O 0.92436 0.51852 0.15173 0.0
O270 O 0.9375 0.50629 0.0974 0.0
O271 O 0.90991 0.48745 0.1255 0.0
H272 H 0.86653 0.45929 0.27551 0.0
H273 H 0.86535 0.44899 0.33866 0.0
H274 H 0.9231 0.46817 0.33456 0.0
H275 H 0.92413 0.47832 0.27164 0.0
H276 H 0.00784 0.54682 0.05918 0.0
H277 H 0.01233 0.54461 0.99397 0.0
H278 H 0.9614 0.54295 0.97173 0.0
H279 H 0.95659 0.5441 0.03695 0.0
Nd280 Nd 0.5006 0.42448 0.19627 0.0
Nd281 Nd 0.47484 0.43113 0.14734 0.0
C282 C 0.51551 0.41432 0.248 0.0
C283 C 0.51807 0.41685 0.28801 0.0
C284 C 0.5033 0.41228 0.31152 0.0
C285 C 0.50619 0.41607 0.34888 0.0
C286 C 0.52392 0.42468 0.36365 0.0
C287 C 0.53861 0.42872 0.34017 0.0
C288 C 0.53569 0.42482 0.30281 0.0
C289 C 0.51228 0.46007 0.17884 0.0
C290 C 0.4687 0.43214 0.23312 0.0
C291 C 0.46028 0.44194 0.09585 0.0
C292 C 0.46 0.44333 0.05535 0.0
C293 C 0.47469 0.45739 0.03611 0.0
C294 C 0.47384 0.45902 0.99817 0.0
C295 C 0.45839 0.44644 0.97844 0.0
C296 C 0.44378 0.43229 0.99761 0.0
C297 C 0.44451 0.43085 0.03558 0.0
C298 C 0.46147 0.3959 0.16907 0.0
C299 C 0.50751 0.42597 0.11014 0.0
O300 O 0.4989 0.40383 0.23584 0.0
O301 O 0.52475 0.42899 0.2282 0.0
O302 O 0.52314 0.45342 0.17861 0.0
O303 O 0.49653 0.44809 0.18767 0.0
O304 O 0.47948 0.42499 0.23683 0.0
O305 O 0.46655 0.43811 0.20126 0.0
O306 O 0.47543 0.45298 0.11294 0.0
O307 O 0.45194 0.42558 0.11009 0.0
O308 O 0.45173 0.40376 0.16637 0.0
O309 O 0.47767 0.40622 0.15853 0.0
O310 O 0.4966 0.43282 0.10771 0.0
O311 O 0.5098 0.41919 0.14088 0.0
H312 H 0.48953 0.40609 0.30103 0.0
H313 H 0.49449 0.41243 0.36612 0.0
H314 H 0.55246 0.43551 0.35033 0.0
H315 H 0.54731 0.42848 0.28524 0.0
H316 H 0.48688 0.46714 0.05027 0.0
H317 H 0.48539 0.46999 0.98421 0.0
H318 H 0.4316 0.4225 0.98329 0.0
H319 H 0.43287 0.41999 0.04954 0.0
Nd320 Nd 0.56244 0.07008 0.19717 0.0
Nd321 Nd 0.56274 0.03954 0.15229 0.0
C322 C 0.56838 0.09548 0.24632 0.0
C323 C 0.5649 0.09571 0.28572 0.0
C324 C 0.56878 0.11206 0.30295 0.0
C325 C 0.5652 0.11229 0.34027 0.0
C326 C 0.55773 0.09616 0.36107 0.0
C327 C 0.55381 0.07979 0.34348 0.0
C328 C 0.5573 0.07957 0.30622 0.0
C329 C 0.52889 0.04153 0.1791 0.0
C330 C 0.56022 0.0333 0.23851 0.0
C331 C 0.55851 0.01507 0.10216 0.0
C332 C 0.55581 0.01217 0.06216 0.0
C333 C 0.54273 0.01459 0.04319 0.0
C334 C 0.54034 0.01146 1.00542 0.0
C335 C 0.55124 0.00623 0.98572 0.0
C336 C 0.5644 0.00398 1.0048 0.0
C337 C 0.56657 0.00682 0.04255 0.0
C338 C 0.59604 0.06629 0.17592 0.0
C339 C 0.55858 0.07188 0.11069 0.0
O340 O 0.58059 0.09101 0.23721 0.0
O341 O 0.55395 0.08777 0.22545 0.0
O342 O 0.53248 0.05834 0.17844 0.0
O343 O 0.54254 0.04078 0.18947 0.0
O344 O 0.56407 0.05058 0.24094 0.0
O345 O 0.55702 0.02492 0.20671 0.0
O346 O 0.54509 0.0141 0.12155 0.0
O347 O 0.57443 0.0281 0.11306 0.0
O348 O 0.59076 0.04903 0.1761 0.0
O349 O 0.58404 0.06931 0.16251 0.0
O350 O 0.55478 0.05477 0.11151 0.0
O351 O 0.56513 0.08252 0.13975 0.0
H352 H 0.57458 0.12465 0.28754 0.0
H353 H 0.56851 0.12513 0.35292 0.0
H354 H 0.54776 0.06705 0.35842 0.0
H355 H 0.55396 0.06677 0.29335 0.0
H356 H 0.53443 0.01898 0.05745 0.0
H357 H 0.53022 0.0135 0.99151 0.0
H358 H 0.57291 -0.0002 0.99055 0.0
H359 H 0.57673 0.00484 0.05648 0.0
Nd360 Nd 0.48692 0.91966 0.50594 0.0
Nd361 Nd 0.52079 0.94822 0.54915 0.0
C362 C 0.46505 0.89571 0.45683 0.0
C363 C 0.46181 0.8954 0.41695 0.0
C364 C 0.47622 0.90188 0.39177 0.0
C365 C 0.47294 0.90209 0.35435 0.0
C366 C 0.45518 0.89601 0.34109 0.0
C367 C 0.44076 0.88924 0.36642 0.0
C368 C 0.44405 0.88892 0.40385 0.0
C369 C 0.4856 0.94938 0.53071 0.0
C370 C 0.5222 0.95498 0.463 0.0
C371 C 0.54296 0.97158 0.59883 0.0
C372 C 0.54275 0.97505 0.63841 0.0
C373 C 0.52672 0.97164 0.65647 0.0
C374 C 0.527 0.9755 0.69381 0.0
C375 C 0.5433 0.98264 0.71409 0.0
C376 C 0.55921 0.98562 0.69582 0.0
C377 C 0.55893 0.98196 0.65849 0.0
C378 C 0.52316 0.91962 0.52148 0.0
C379 C 0.48416 0.91698 0.59304 0.0
O380 O 0.4804 0.89694 0.46755 0.0
O381 O 0.46046 0.90566 0.47653 0.0
O382 O 0.47138 0.93311 0.53082 0.0
O383 O 0.49898 0.94914 0.51695 0.0
O384 O 0.50751 0.93842 0.46103 0.0
O385 O 0.52928 0.96281 0.49461 0.0
O386 O 0.53235 0.97475 0.57787 0.0
O387 O 0.54319 0.95677 0.58962 0.0
O388 O 0.5366 0.93633 0.52138 0.0
O389 O 0.50918 0.9182 0.53687 0.0
O390 O 0.49856 0.93351 0.5923 0.0
O391 O 0.47772 0.90701 0.5631 0.0
H392 H 0.49009 0.90696 0.40095 0.0
H393 H 0.48439 0.90711 0.33581 0.0
H394 H 0.42695 0.88466 0.35752 0.0
H395 H 0.4327 0.88388 0.42271 0.0
H396 H 0.51399 0.96603 0.6417 0.0
H397 H 0.51447 0.97312 0.70656 0.0
H398 H 0.57194 0.99063 0.71037 0.0
H399 H 0.57143 0.98452 0.64525 0.0
Nd400 Nd 0.07374 0.56241 0.48253 0.0
Nd401 Nd 0.04544 0.55898 0.5407 0.0
C402 C 0.10074 0.5695 0.43703 0.0
C403 C 0.10268 0.56761 0.39722 0.0
C404 C 0.1015 0.57945 0.37188 0.0
C405 C 0.1022 0.57676 0.33437 0.0
C406 C 0.10405 0.56214 0.32121 0.0
C407 C 0.10591 0.55073 0.34663 0.0
C408 C 0.1053 0.55348 0.38416 0.0
C409 C 0.04501 0.52813 0.49379 0.0
C410 C 0.03694 0.56044 0.45283 0.0
C411 C 0.01853 0.55085 0.58758 0.0
C412 C 0.01582 0.54964 0.62773 0.0
C413 C -0.00076 0.53619 0.64252 0.0
C414 C -0.00365 0.53481 0.68037 0.0
C415 C 0.00993 0.54707 0.70452 0.0
C416 C 0.02659 0.56059 0.68939 0.0
C417 C 0.02953 0.56178 0.65155 0.0
C418 C 0.07467 0.59342 0.53035 0.0
C419 C 0.08046 0.55798 0.56996 0.0
O420 O 0.09672 0.58185 0.44768 0.0
O421 O 0.09201 0.5543 0.4556 0.0
O422 O 0.05112 0.53427 0.46133 0.0
O423 O 0.05389 0.53985 0.51769 0.0
O424 O 0.05433 0.56648 0.44573 0.0
O425 O 0.03003 0.5551 0.48603 0.0
O426 O 0.02143 0.53855 0.57239 0.0
O427 O 0.02871 0.56712 0.57364 0.0
O428 O 0.06752 0.58696 0.56207 0.0
O429 O 0.06598 0.58212 0.5055 0.0
O430 O 0.06303 0.55191 0.57566 0.0
O431 O 0.08844 0.56521 0.53828 0.0
H432 H 0.09973 0.59064 0.38092 0.0
H433 H 0.10108 0.58604 0.31565 0.0
H434 H 0.10718 0.53924 0.33762 0.0
H435 H 0.10643 0.54423 0.40299 0.0
H436 H 0.98844 0.52672 0.6247 0.0
H437 H 0.98347 0.52399 0.69062 0.0
H438 H 0.03732 0.57051 0.70667 0.0
H439 H 0.04249 0.5723 0.64091 0.0
Nd440 Nd 0.41877 0.49841 0.49875 0.0
Nd441 Nd 0.42395 0.4704 0.54259 0.0
C442 C 0.40851 0.51459 0.45007 0.0
C443 C 0.41124 0.51766 0.41013 0.0
C444 C 0.40761 0.50329 0.38615 0.0
C445 C 0.41208 0.5067 0.34911 0.0
C446 C 0.42035 0.52457 0.33508 0.0
C447 C 0.42333 0.53884 0.3589 0.0
C448 C 0.41883 0.53541 0.39601 0.0
C449 C 0.45423 0.50776 0.51101 0.0
C450 C 0.42354 0.4656 0.45617 0.0
C451 C 0.43283 0.45287 0.59118 0.0
C452 C 0.43697 0.45363 0.63064 0.0
C453 C 0.44798 0.4702 0.64879 0.0
C454 C 0.45178 0.47043 0.68613 0.0
C455 C 0.4444 0.45408 0.70634 0.0
C456 C 0.43316 0.43756 0.68794 0.0
C457 C 0.4296 0.43735 0.65059 0.0
C458 C 0.38854 0.46011 0.52693 0.0
C459 C 0.42548 0.50557 0.58457 0.0
O460 O 0.3979 0.49779 0.46122 0.0
O461 O 0.42315 0.5234 0.47012 0.0
O462 O 0.44874 0.51958 0.51206 0.0
O463 O 0.44128 0.49233 0.50279 0.0
O464 O 0.41816 0.47792 0.45468 0.0
O465 O 0.42841 0.4614 0.48724 0.0
O466 O 0.4447 0.46604 0.57047 0.0
O467 O 0.41602 0.44786 0.58248 0.0
O468 O 0.39529 0.44936 0.52516 0.0
O469 O 0.40034 0.47592 0.53731 0.0
O470 O 0.43126 0.49376 0.58245 0.0
O471 O 0.41688 0.50807 0.5569 0.0
H472 H 0.40171 0.48944 0.3961 0.0
H473 H 0.40928 0.4953 0.33155 0.0
H474 H 0.42982 0.55278 0.34924 0.0
H475 H 0.42182 0.54674 0.41393 0.0
H476 H 0.45368 0.48297 0.63414 0.0
H477 H 0.46064 0.48343 0.69898 0.0
H478 H 0.4268 0.42469 0.70242 0.0
H479 H 0.42093 0.42441 0.63729 0.0
Nd480 Nd 0.71615 0.81803 0.3891 0.0
Nd481 Nd 0.74082 0.84678 0.33186 0.0
C482 C 0.69634 0.80003 0.44681 0.0
C483 C 0.6944 0.80141 0.487 0.0
C484 C 0.68015 0.80362 0.50092 0.0
C485 C 0.67702 0.80311 0.53864 0.0
C486 C 0.68789 0.80007 0.56352 0.0
C487 C 0.70236 0.79819 0.54959 0.0
C488 C 0.70557 0.79886 0.51191 0.0
C489 C 0.73492 0.80724 0.34438 0.0
C490 C 0.75504 0.85273 0.41679 0.0
C491 C 0.76371 0.8678 0.28042 0.0
C492 C 0.76158 0.8715 0.2418 0.0
C493 C 0.77687 0.88283 0.22044 0.0
C494 C 0.77482 0.88639 0.18382 0.0
C495 C 0.75739 0.87872 0.16788 0.0
C496 C 0.74213 0.86717 0.18944 0.0
C497 C 0.74421 0.86361 0.22593 0.0
C498 C 0.71378 0.85112 0.36313 0.0
C499 C 0.7016 0.81349 0.30579 0.0
O500 O 0.69208 0.80965 0.42509 0.0
O501 O 0.71033 0.79886 0.43504 0.0
O502 O 0.7182 0.7967 0.35478 0.0
O503 O 0.7415 0.82294 0.35822 0.0
O504 O 0.74027 0.83715 0.42482 0.0
O505 O 0.75861 0.85964 0.38331 0.0
O506 O 0.76053 0.85131 0.2876 0.0
O507 O 0.75659 0.87373 0.30476 0.0
O508 O 0.7166 0.85251 0.32809 0.0
O509 O 0.72433 0.84697 0.37843 0.0
O510 O 0.71889 0.82398 0.29676 0.0
O511 O 0.6963 0.81135 0.34037 0.0
H512 H 0.67107 0.80521 0.48254 0.0
H513 H 0.66563 0.80442 0.54819 0.0
H514 H 0.71117 0.79606 0.56784 0.0
H515 H 0.7166 0.79696 0.50234 0.0
H516 H 0.79041 0.88902 0.23214 0.0
H517 H 0.78686 0.89545 0.16825 0.0
H518 H 0.72852 0.86075 0.17805 0.0
H519 H 0.73222 0.85469 0.24182 0.0
Nd520 Nd 0.18075 0.8984 0.37963 0.0
Nd521 Nd 0.14834 0.8961 0.33551 0.0
C522 C 0.20148 0.89464 0.42913 0.0
C523 C 0.20108 0.89076 0.46867 0.0
C524 C 0.18504 0.87786 0.48636 0.0
C525 C 0.1852 0.87421 0.5237 0.0
C526 C 0.20137 0.88355 0.54432 0.0
C527 C 0.21729 0.89669 0.52641 0.0
C528 C 0.21714 0.90017 0.4891 0.0
C529 C 0.18566 0.93072 0.3537 0.0
C530 C 0.14518 0.89537 0.42284 0.0
C531 C 0.12794 0.90048 0.28626 0.0
C532 C 0.12293 0.89583 0.24734 0.0
C533 C 0.13613 0.89983 0.22015 0.0
C534 C 0.13089 0.89449 0.18386 0.0
C535 C 0.11234 0.8849 0.17404 0.0
C536 C 0.09923 0.88123 0.20125 0.0
C537 C 0.10447 0.88667 0.23739 0.0
C538 C 0.14453 0.8636 0.35758 0.0
C539 C 0.18303 0.89441 0.29337 0.0
O540 O 0.18997 0.88135 0.40813 0.0
O541 O 0.20332 0.91043 0.42012 0.0
O542 O 0.19837 0.92641 0.35402 0.0
O543 O 0.17105 0.9185 0.36797 0.0
O544 O 0.15856 0.89169 0.42213 0.0
O545 O 0.1397 0.9001 0.39301 0.0
O546 O 0.14474 0.91304 0.29373 0.0
O547 O 0.12155 0.88675 0.30904 0.0
O548 O 0.13094 0.86663 0.35742 0.0
O549 O 0.15857 0.87707 0.34533 0.0
O550 O 0.16872 0.8969 0.29103 0.0
O551 O 0.18944 0.89278 0.32511 0.0
H552 H 0.1724 0.87056 0.47133 0.0
H553 H 0.17269 0.86389 0.53622 0.0
H554 H 0.22992 0.90451 0.54126 0.0
H555 H 0.22964 0.91029 0.47615 0.0
H556 H 0.15049 0.90682 0.22699 0.0
H557 H 0.14134 0.89737 0.1637 0.0
H558 H 0.08485 0.87407 0.19461 0.0
H559 H 0.09404 0.88348 0.25777 0.0
Nd560 Nd 0.09512 0.27185 0.39094 0.0
Nd561 Nd 0.09594 0.24636 0.33021 0.0
C562 C 0.10079 0.29656 0.44175 0.0
C563 C 0.10229 0.29889 0.48223 0.0
C564 C 0.11751 0.30076 0.50154 0.0
C565 C 0.11914 0.30396 0.53934 0.0
C566 C 0.10548 0.30514 0.55899 0.0
C567 C 0.0902 0.3031 0.53967 0.0
C568 C 0.0887 0.30014 0.50184 0.0
C569 C 0.06186 0.24411 0.36904 0.0
C570 C 0.09177 0.23404 0.41668 0.0
C571 C 0.09219 0.22246 0.27946 0.0
C572 C 0.09664 0.22393 0.24023 0.0
C573 C 0.09047 0.20823 0.21872 0.0
C574 C 0.09541 0.20967 0.18179 0.0
C575 C 0.10671 0.22685 0.16584 0.0
C576 C 0.11249 0.24255 0.18744 0.0
C577 C 0.10747 0.24111 0.22418 0.0
C578 C 0.12884 0.27319 0.35645 0.0
C579 C 0.09956 0.28453 0.30387 0.0
O580 O 0.11389 0.29579 0.42443 0.0
O581 O 0.0847 0.2854 0.42809 0.0
O582 O 0.06568 0.24975 0.40251 0.0
O583 O 0.075 0.2537 0.348 0.0
O584 O 0.09763 0.25114 0.42584 0.0
O585 O 0.08803 0.22819 0.38242 0.0
O586 O 0.07906 0.22557 0.2887 0.0
O587 O 0.10615 0.23022 0.3016 0.0
O588 O 0.12583 0.26967 0.32181 0.0
O589 O 0.11484 0.26301 0.37438 0.0
O590 O 0.09461 0.26764 0.29444 0.0
O591 O 0.10237 0.28993 0.3385 0.0
H592 H 0.12821 0.29979 0.48745 0.0
H593 H 0.13102 0.30529 0.55327 0.0
H594 H 0.07952 0.30416 0.5537 0.0
H595 H 0.07691 0.29898 0.48782 0.0
H596 H 0.08206 0.19485 0.23061 0.0
H597 H 0.09081 0.19731 0.16603 0.0
H598 H 0.12094 0.25601 0.17593 0.0
H599 H 0.11225 0.25341 0.24024 0.0
Nd600 Nd 0.13034 0.36712 0.99406 0.0
Nd601 Nd 0.16068 0.40134 0.03323 0.0
C602 C 0.11147 0.34033 0.94689 0.0
C603 C 0.11166 0.33677 0.90715 0.0
C604 C 0.12792 0.34171 0.88829 0.0
C605 C 0.1277 0.33815 0.85077 0.0
C606 C 0.11119 0.32953 0.83107 0.0
C607 C 0.09497 0.32483 0.85016 0.0
C608 C 0.09522 0.32836 0.88762 0.0
C609 C 0.1214 0.39279 1.01365 0.0
C610 C 0.16332 0.40036 0.94622 0.0
C611 C 0.17871 0.42955 0.07727 0.0
C612 C 0.1854 0.43227 0.11522 0.0
C613 C 0.18711 0.44706 0.13564 0.0
C614 C 0.19387 0.44997 0.17141 0.0
C615 C 0.19919 0.43821 0.18719 0.0
C616 C 0.19716 0.42323 0.16677 0.0
C617 C 0.19025 0.42024 0.13124 0.0
C618 C 0.16916 0.37486 1.01784 0.0
C619 C 0.13028 0.36443 0.0818 0.0
O620 O 0.12476 0.34138 0.96692 0.0
O621 O 0.1069 0.35242 0.95612 0.0
O622 O 0.1103 0.37536 1.01648 0.0
O623 O 0.13643 0.39629 0.99975 0.0
O624 O 0.15194 0.38273 0.9502 0.0
O625 O 0.16693 0.41181 0.97373 0.0
O626 O 0.16101 0.42135 0.07293 0.0
O627 O 0.18666 0.42398 0.05409 0.0
O628 O 0.1811 0.39213 1.01563 0.0
O629 O 0.15424 0.37267 0.02897 0.0
O630 O 0.1431 0.38202 0.08127 0.0
O631 O 0.12395 0.35491 0.0513 0.0
H632 H 0.1408 0.34827 0.90258 0.0
H633 H 0.14049 0.34191 0.8374 0.0
H634 H 0.082 0.3186 0.83614 0.0
H635 H 0.08249 0.32454 0.90138 0.0
H636 H 0.18335 0.45645 0.1238 0.0
H637 H 0.1953 0.46163 0.18642 0.0
H638 H 0.20082 0.41374 0.17839 0.0
H639 H 0.18881 0.40858 0.11618 0.0
Nd640 Nd 0.61997 0.76508 0.99467 0.0
Nd641 Nd 0.58619 0.76233 0.03389 0.0
C642 C 0.64715 0.77206 0.94912 0.0
C643 C 0.6517 0.77631 0.90997 0.0
C644 C 0.64244 0.78255 0.88776 0.0
C645 C 0.64647 0.78574 0.85036 0.0
C646 C 0.65986 0.78272 0.83433 0.0
C647 C 0.6693 0.77678 0.85703 0.0
C648 C 0.66523 0.77358 0.8943 0.0
C649 C 0.59317 0.73078 1.01312 0.0
C650 C 0.58766 0.76651 0.947 0.0
C651 C 0.55741 0.75223 0.07608 0.0
C652 C 0.55361 0.75476 0.11424 0.0
C653 C 0.53975 0.74003 0.1335 0.0
C654 C 0.53599 0.74216 0.16978 0.0
C655 C 0.54594 0.75912 0.18731 0.0
C656 C 0.55983 0.77385 0.1679 0.0
C657 C 0.5637 0.77167 0.13178 0.0
C658 C 0.6137 0.79702 1.01939 0.0
C659 C 0.62218 0.76693 0.0827 0.0
O660 O 0.64647 0.78448 0.96913 0.0
O661 O 0.63404 0.7556 0.95683 0.0
O662 O 0.61044 0.73636 1.01635 0.0
O663 O 0.59046 0.74289 0.99956 0.0
O664 O 0.60519 0.77228 0.95085 0.0
O665 O 0.57611 0.7587 0.97433 0.0
O666 O 0.5649 0.74212 0.07089 0.0
O667 O 0.56421 0.76665 0.05497 0.0
O668 O 0.59659 0.79235 1.01714 0.0
O669 O 0.61518 0.78379 0.03016 0.0
O670 O 0.60479 0.76285 0.0822 0.0
O671 O 0.63168 0.76994 0.05224 0.0
H672 H 0.63199 0.78481 0.89926 0.0
H673 H 0.6388 0.79019 0.83391 0.0
H674 H 0.67993 0.77462 0.84604 0.0
H675 H 0.67261 0.76884 0.91091 0.0
H676 H 0.53184 0.72686 0.12047 0.0
H677 H 0.52518 0.73059 0.18401 0.0
H678 H 0.56796 0.787 0.18086 0.0
H679 H 0.57461 0.7832 0.11766 0.0
Nd680 Nd 0.22573 0.85014 0.98471 0.0
Nd681 Nd 0.23218 0.82436 0.03488 0.0
C682 C 0.21465 0.86425 0.93277 0.0
C683 C 0.2135 0.86485 0.89225 0.0
C684 C 0.19952 0.85029 0.87257 0.0
C685 C 0.19793 0.85149 0.8347 0.0
C686 C 0.21042 0.8672 0.81543 0.0
C687 C 0.22449 0.88167 0.83507 0.0
C688 C 0.22593 0.88056 0.87297 0.0
C689 C 0.26079 0.86364 1.00733 0.0
C690 C 0.23175 0.81776 0.94854 0.0
C691 C 0.2422 0.8095 0.08711 0.0
C692 C 0.23844 0.80603 0.12646 0.0
C693 C 0.24466 0.79589 0.14577 0.0
C694 C 0.24055 0.79203 0.18293 0.0
C695 C 0.23018 0.7983 0.20144 0.0
C696 C 0.22399 0.80847 0.18179 0.0
C697 C 0.22805 0.81225 0.14472 0.0
C698 C 0.19675 0.81273 1.01664 0.0
C699 C 0.22365 0.856 0.07046 0.0
O700 O 0.20388 0.84882 0.94928 0.0
O701 O 0.23087 0.873 0.94761 0.0
O702 O 0.25301 0.87342 1.00355 0.0
O703 O 0.25052 0.84733 0.99726 0.0
O704 O 0.22499 0.82873 0.94535 0.0
O705 O 0.23801 0.81529 0.97982 0.0
O706 O 0.25199 0.8266 0.07716 0.0
O707 O 0.22829 0.80011 0.06553 0.0
O708 O 0.20322 0.80172 1.01725 0.0
O709 O 0.20877 0.82847 1.02516 0.0
O710 O 0.23083 0.84527 0.07494 0.0
O711 O 0.21817 0.85825 0.03813 0.0
H712 H 0.18975 0.83796 0.88639 0.0
H713 H 0.18703 0.84003 0.82043 0.0
H714 H 0.23421 0.89406 0.82121 0.0
H715 H 0.2367 0.89212 0.88727 0.0
H716 H 0.25263 0.79089 0.13207 0.0
H717 H 0.24565 0.7843 0.19722 0.0
H718 H 0.2157 0.81325 0.19489 0.0
H719 H 0.2229 0.81989 0.13019 0.0
Nd720 Nd 0.57536 0.80971 0.52367 0.0
Nd721 Nd 0.60182 0.83245 0.46165 0.0
C722 C 0.55122 0.79178 0.5757 0.0
C723 C 0.55324 0.78916 0.6149 0.0
C724 C 0.53798 0.78068 0.63786 0.0
C725 C 0.54006 0.77822 0.67509 0.0
C726 C 0.55749 0.78422 0.69003 0.0
C727 C 0.5727 0.79264 0.66662 0.0
C728 C 0.5706 0.79513 0.62959 0.0
C729 C 0.60129 0.80083 0.50377 0.0
C730 C 0.61429 0.84338 0.54791 0.0
C731 C 0.62694 0.84886 0.41014 0.0
C732 C 0.62877 0.84938 0.36957 0.0
C733 C 0.63459 0.83846 0.35176 0.0
C734 C 0.63757 0.83978 0.31396 0.0
C735 C 0.63454 0.85187 0.29278 0.0
C736 C 0.62841 0.86257 0.31044 0.0
C737 C 0.62571 0.86146 0.34836 0.0
C738 C 0.57461 0.84016 0.4751 0.0
C739 C 0.56336 0.79845 0.43834 0.0
O740 O 0.55586 0.8084 0.56574 0.0
O741 O 0.55731 0.78404 0.55326 0.0
O742 O 0.59774 0.80235 0.53761 0.0
O743 O 0.59175 0.80443 0.48329 0.0
O744 O 0.59705 0.83307 0.5573 0.0
O745 O 0.61982 0.84403 0.51378 0.0
O746 O 0.62397 0.83398 0.42689 0.0
O747 O 0.61792 0.85607 0.42482 0.0
O748 O 0.58086 0.84001 0.4429 0.0
O749 O 0.58339 0.83729 0.49961 0.0
O750 O 0.58074 0.80809 0.42959 0.0
O751 O 0.55729 0.79868 0.47161 0.0
H752 H 0.52446 0.776 0.62703 0.0
H753 H 0.52806 0.77186 0.69223 0.0
H754 H 0.5863 0.79715 0.67677 0.0
H755 H 0.58257 0.80168 0.61232 0.0
H756 H 0.63693 0.82892 0.36709 0.0
H757 H 0.6421 0.83119 0.30125 0.0
H758 H 0.62612 0.87216 0.29504 0.0
H759 H 0.6214 0.87023 0.36106 0.0
Nd760 Nd 0.16909 0.75762 0.53739 0.0
Nd761 Nd 0.13943 0.75828 0.48686 0.0
C762 C 0.18822 0.75131 0.58675 0.0
C763 C 0.19287 0.75499 0.62586 0.0
C764 C 0.18005 0.75362 0.65183 0.0
C765 C 0.18515 0.75822 0.68838 0.0
C766 C 0.20321 0.76443 0.6996 0.0
C767 C 0.2159 0.76549 0.67356 0.0
C768 C 0.21077 0.76079 0.63713 0.0
C769 C 0.17309 0.79122 0.52407 0.0
C770 C 0.13205 0.75535 0.57509 0.0
C771 C 0.11934 0.76634 0.4438 0.0
C772 C 0.11702 0.76676 0.40382 0.0
C773 C 0.10769 0.7751 0.38927 0.0
C774 C 0.10647 0.77665 0.35135 0.0
C775 C 0.11465 0.76995 0.32705 0.0
C776 C 0.12401 0.76159 0.34194 0.0
C777 C 0.12521 0.76005 0.37984 0.0
C778 C 0.14062 0.72619 0.48585 0.0
C779 C 0.17754 0.76581 0.45224 0.0
O780 O 0.17136 0.73946 0.57827 0.0
O781 O 0.19523 0.76555 0.56539 0.0
O782 O 0.1869 0.78859 0.52503 0.0
O783 O 0.15861 0.77665 0.52979 0.0
O784 O 0.14807 0.75625 0.57984 0.0
O785 O 0.12556 0.75557 0.54225 0.0
O786 O 0.13539 0.77848 0.45619 0.0
O787 O 0.11312 0.75028 0.45914 0.0
O788 O 0.13646 0.73265 0.45767 0.0
O789 O 0.14278 0.73602 0.51313 0.0
O790 O 0.16572 0.77158 0.45381 0.0
O791 O 0.17886 0.75601 0.47906 0.0
H792 H 0.16619 0.7493 0.64377 0.0
H793 H 0.17509 0.75745 0.70762 0.0
H794 H 0.22986 0.77003 0.68133 0.0
H795 H 0.22088 0.76195 0.61757 0.0
H796 H 0.10145 0.78057 0.40726 0.0
H797 H 0.09899 0.783 0.34112 0.0
H798 H 0.13077 0.75654 0.32434 0.0
H799 H 0.13278 0.75386 0.39047 0.0
Nd800 Nd 0.22273 0.41229 0.52333 0.0
Nd801 Nd 0.22345 0.38529 0.46722 0.0
C802 C 0.22701 0.43626 0.5743 0.0
C803 C 0.22237 0.4344 0.61369 0.0
C804 C 0.22262 0.42064 0.63465 0.0
C805 C 0.21743 0.41829 0.67139 0.0
C806 C 0.21165 0.4295 0.68818 0.0
C807 C 0.2117 0.4435 0.66723 0.0
C808 C 0.21698 0.44589 0.63036 0.0
C809 C 0.18978 0.38603 0.49612 0.0
C810 C 0.21482 0.37258 0.55158 0.0
C811 C 0.21954 0.36391 0.41083 0.0
C812 C 0.21678 0.36137 0.37065 0.0
C813 C 0.20131 0.35981 0.35295 0.0
C814 C 0.19862 0.35602 0.31533 0.0
C815 C 0.2113 0.35365 0.29457 0.0
C816 C 0.22692 0.35563 0.31239 0.0
C817 C 0.22956 0.35937 0.34981 0.0
C818 C 0.25426 0.40342 0.50921 0.0
C819 C 0.23046 0.42498 0.43755 0.0
O820 O 0.23989 0.43279 0.56476 0.0
O821 O 0.21323 0.42929 0.5516 0.0
O822 O 0.1924 0.38968 0.53076 0.0
O823 O 0.20424 0.39541 0.47888 0.0
O824 O 0.22287 0.39017 0.55922 0.0
O825 O 0.21055 0.36663 0.51755 0.0
O826 O 0.20594 0.36166 0.43152 0.0
O827 O 0.23536 0.37696 0.42235 0.0
O828 O 0.24674 0.38632 0.50033 0.0
O829 O 0.24565 0.41057 0.49545 0.0
O830 O 0.22994 0.40946 0.43039 0.0
O831 O 0.22789 0.42949 0.47081 0.0
H832 H 0.22667 0.41155 0.62255 0.0
H833 H 0.21792 0.40758 0.68662 0.0
H834 H 0.20718 0.45228 0.67899 0.0
H835 H 0.21659 0.45653 0.6147 0.0
H836 H 0.19118 0.36126 0.3682 0.0
H837 H 0.18637 0.35448 0.30274 0.0
H838 H 0.23719 0.35428 0.29741 0.0
H839 H 0.24158 0.36044 0.36264 0.0
Nd840 Nd 0.15378 0.25393 0.82125 0.0
Nd841 Nd 0.18391 0.28889 0.86108 0.0
C842 C 0.13658 0.22575 0.77689 0.0
C843 C 0.13042 0.22278 0.73861 0.0
C844 C 0.13003 0.20848 0.71856 0.0
C845 C 0.12395 0.20539 0.68232 0.0
C846 C 0.11801 0.21647 0.66569 0.0
C847 C 0.11862 0.23091 0.68581 0.0
C848 C 0.12485 0.2341 0.72184 0.0
C849 C 0.14388 0.27875 0.84151 0.0
C850 C 0.18246 0.29178 0.77332 0.0
C851 C 0.20116 0.31639 0.90764 0.0
C852 C 0.20047 0.31955 0.94736 0.0
C853 C 0.20294 0.33631 0.95985 0.0
C854 C 0.20253 0.33957 0.99734 0.0
C855 C 0.19963 0.3261 1.02336 0.0
C856 C 0.1968 0.30917 1.01053 0.0
C857 C 0.1973 0.306 0.97309 0.0
C858 C 0.19393 0.26447 0.8383 0.0
C859 C 0.15348 0.25322 0.909 0.0
O860 O 0.15423 0.23409 0.7822 0.0
O861 O 0.1282 0.23126 0.7991 0.0
O862 O 0.13259 0.26127 0.84274 0.0
O863 O 0.15891 0.28201 0.82863 0.0
O864 O 0.17001 0.27407 0.77339 0.0
O865 O 0.18909 0.30108 0.80394 0.0
O866 O 0.18708 0.31377 0.88834 0.0
O867 O 0.20731 0.30558 0.89781 0.0
O868 O 0.20484 0.28204 0.83715 0.0
O869 O 0.17892 0.26043 0.8529 0.0
O870 O 0.16484 0.27097 0.90699 0.0
O871 O 0.14851 0.24258 0.87983 0.0
H872 H 0.13435 0.19966 0.73101 0.0
H873 H 0.12361 0.19415 0.66752 0.0
H874 H 0.11446 0.23989 0.67353 0.0
H875 H 0.12528 0.24538 0.73662 0.0
H876 H 0.20537 0.34699 0.94056 0.0
H877 H 0.20492 0.35282 1.00588 0.0
H878 H 0.19416 0.29828 0.0294 0.0
H879 H 0.19538 0.29298 0.96424 0.0
Nd880 Nd 0.73095 0.8979 0.81983 0.0
Nd881 Nd 0.69567 0.89084 0.85926 0.0
C882 C 0.75952 0.90995 0.77601 0.0
C883 C 0.76311 0.90791 0.73735 0.0
C884 C 0.77818 0.90603 0.72838 0.0
C885 C 0.78138 0.90317 0.69217 0.0
C886 C 0.76959 0.9022 0.6641 0.0
C887 C 0.75466 0.9044 0.67312 0.0
C888 C 0.7514 0.90715 0.70939 0.0
C889 C 0.70724 0.86232 0.83733 0.0
C890 C 0.69317 0.8886 0.77171 0.0
C891 C 0.66797 0.88013 0.9054 0.0
C892 C 0.66451 0.87613 0.94491 0.0
C893 C 0.67499 0.87089 0.96594 0.0
C894 C 0.67153 0.86725 1.00336 0.0
C895 C 0.65752 0.86881 1.02075 0.0
C896 C 0.6472 0.87424 0.9994 0.0
C897 C 0.65063 0.8778 0.96202 0.0
C898 C 0.71877 0.92624 0.83951 0.0
C899 C 0.73095 0.89641 0.90776 0.0
O900 O 0.75116 0.91912 0.7829 0.0
O901 O 0.75376 0.89542 0.79642 0.0
O902 O 0.72481 0.86946 0.83953 0.0
O903 O 0.70331 0.87376 0.82515 0.0
O904 O 0.71105 0.89475 0.77192 0.0
O905 O 0.68359 0.88446 0.80222 0.0
O906 O 0.67089 0.86891 0.88593 0.0
O907 O 0.67877 0.89717 0.89638 0.0
O908 O 0.70112 0.91833 0.83741 0.0
O909 O 0.72374 0.91571 0.85303 0.0
O910 O 0.71313 0.88879 0.90461 0.0
O911 O 0.74187 0.90346 0.87917 0.0
H912 H 0.78737 0.90656 0.74951 0.0
H913 H 0.79308 0.90169 0.68614 0.0
H914 H 0.74516 0.90346 0.65228 0.0
H915 H 0.7396 0.90842 0.71562 0.0
H916 H 0.68577 0.86947 0.95341 0.0
H917 H 0.67968 0.8629 1.01844 0.0
H918 H 0.6366 0.87608 1.01161 0.0
H919 H 0.64247 0.88198 0.94644 0.0
Nd920 Nd 0.08534 0.82582 0.83608 0.0
Nd921 Nd 0.09027 0.79855 0.88454 0.0
C922 C 0.07616 0.8418 0.78466 0.0
C923 C 0.08087 0.84632 0.74581 0.0
C924 C 0.07286 0.85451 0.72544 0.0
C925 C 0.07827 0.86 0.68928 0.0
C926 C 0.09192 0.85752 0.67295 0.0
C927 C 0.09952 0.84884 0.69329 0.0
C928 C 0.09405 0.84329 0.7293 0.0
C929 C 0.12048 0.83541 0.85255 0.0
C930 C 0.09119 0.79278 0.79828 0.0
C931 C 0.10047 0.78335 0.93588 0.0
C932 C 0.10199 0.78307 0.97633 0.0
C933 C 0.11255 0.79907 0.99669 0.0
C934 C 0.11424 0.79827 0.0347 0.0
C935 C 0.10538 0.78146 0.05337 0.0
C936 C 0.09468 0.76553 0.03283 0.0
C937 C 0.09307 0.76634 0.99489 0.0
C938 C 0.05531 0.78708 0.86356 0.0
C939 C 0.08666 0.83196 0.92297 0.0
O940 O 0.06629 0.82446 0.79278 0.0
O941 O 0.0895 0.85072 0.80775 0.0
O942 O 0.11498 0.84721 0.85242 0.0
O943 O 0.10775 0.81998 0.8442 0.0
O944 O 0.08528 0.80461 0.79471 0.0
O945 O 0.09627 0.78962 0.83029 0.0
O946 O 0.11176 0.79839 0.91872 0.0
O947 O 0.08406 0.77541 0.92193 0.0
O948 O 0.0622 0.77646 0.86647 0.0
O949 O 0.06643 0.80316 0.87374 0.0
O950 O 0.09266 0.82031 0.92485 0.0
O951 O 0.08057 0.83514 0.89213 0.0
H952 H 0.06268 0.85699 0.73775 0.0
H953 H 0.07222 0.86674 0.67454 0.0
H954 H 0.10984 0.84643 0.68143 0.0
H955 H 0.10036 0.83693 0.74451 0.0
H956 H 0.11962 0.81222 0.9833 0.0
H957 H 0.12278 0.81083 0.04931 0.0
H958 H 0.08736 0.75236 0.04606 0.0
H959 H 0.08484 0.75379 0.97997 0.0
Nd960 Nd 0.36787 0.13453 0.71279 0.0
Nd961 Nd 0.39864 0.16537 0.66676 0.0
C962 C 0.34381 0.11564 0.76459 0.0
C963 C 0.34204 0.11578 0.80503 0.0
C964 C 0.3437 0.13102 0.82382 0.0
C965 C 0.34114 0.13049 0.86176 0.0
C966 C 0.33709 0.11476 0.88213 0.0
C967 C 0.33585 0.09969 0.86318 0.0
C968 C 0.33817 0.10017 0.82523 0.0
C969 C 0.39273 0.12651 0.68438 0.0
C970 C 0.40297 0.16913 0.75393 0.0
C971 C 0.4232 0.18458 0.61613 0.0
C972 C 0.42346 0.18801 0.57636 0.0
C973 C 0.41488 0.17363 0.55125 0.0
C974 C 0.41456 0.17722 0.51402 0.0
C975 C 0.42264 0.19528 0.50092 0.0
C976 C 0.43156 0.20963 0.5261 0.0
C977 C 0.43197 0.20602 0.56334 0.0
C978 C 0.37183 0.17173 0.69084 0.0
C979 C 0.36035 0.13221 0.62675 0.0
O980 O 0.34366 0.12877 0.74597 0.0
O981 O 0.35546 0.1112 0.75166 0.0
O982 O 0.37538 0.11494 0.68649 0.0
O983 O 0.39685 0.14172 0.69856 0.0
O984 O 0.38576 0.15609 0.75473 0.0
O985 O 0.41247 0.17429 0.72318 0.0
O986 O 0.41956 0.16829 0.62661 0.0
O987 O 0.41535 0.19129 0.63665 0.0
O988 O 0.38888 0.18438 0.69077 0.0
O989 O 0.36999 0.1572 0.67827 0.0
O990 O 0.37776 0.14521 0.62347 0.0
O991 O 0.35246 0.12688 0.65903 0.0
H992 H 0.34686 0.14335 0.80922 0.0
H993 H 0.34203 0.14235 0.87491 0.0
H994 H 0.3332 0.08745 0.87762 0.0
H995 H 0.33689 0.08823 0.81158 0.0
H996 H 0.40821 0.15959 0.56037 0.0
H997 H 0.40784 0.16577 0.49553 0.0
H998 H 0.43773 0.22369 0.5173 0.0
H999 H 0.43867 0.21736 0.58214 0.0
Nd1000 Nd 0.85426 0.23024 0.70396 0.0
Nd1001 Nd 0.82827 0.23639 0.65647 0.0
C1002 C 0.86941 0.21891 0.75307 0.0
C1003 C 0.86975 0.21678 0.79322 0.0
C1004 C 0.8542 0.20419 0.81275 0.0
C1005 C 0.85511 0.20204 0.85051 0.0
C1006 C 0.87155 0.21254 0.86969 0.0
C1007 C 0.88698 0.22528 0.85 0.0
C1008 C 0.88611 0.22727 0.81229 0.0
C1009 C 0.86463 0.26618 0.6943 0.0
C1010 C 0.81805 0.22804 0.74108 0.0
C1011 C 0.81179 0.24648 0.60801 0.0
C1012 C 0.80675 0.24308 0.56894 0.0
C1013 C 0.81844 0.24214 0.54296 0.0
C1014 C 0.81297 0.23797 0.50645 0.0
C1015 C 0.79561 0.23447 0.49523 0.0
C1016 C 0.78401 0.23555 0.52134 0.0
C1017 C 0.78955 0.23984 0.55775 0.0
C1018 C 0.81996 0.2007 0.66347 0.0
C1019 C 0.86381 0.23508 0.61911 0.0
O1020 O 0.85432 0.20802 0.73578 0.0
O1021 O 0.8774 0.23556 0.74032 0.0
O1022 O 0.87572 0.25983 0.69531 0.0
O1023 O 0.84834 0.25378 0.69992 0.0
O1024 O 0.8295 0.22181 0.74055 0.0
O1025 O 0.81713 0.23764 0.71348 0.0
O1026 O 0.82913 0.25638 0.61608 0.0
O1027 O 0.80308 0.23248 0.62972 0.0
O1028 O 0.80767 0.20552 0.66469 0.0
O1029 O 0.83527 0.21442 0.65862 0.0
O1030 O 0.85182 0.24083 0.61633 0.0
O1031 O 0.86557 0.22788 0.64966 0.0
H1032 H 0.84134 0.19592 0.79891 0.0
H1033 H 0.84298 0.19194 0.8645 0.0
H1034 H 0.89979 0.23392 0.86371 0.0
H1035 H 0.8983 0.23707 0.79798 0.0
H1036 H 0.8317 0.24437 0.55094 0.0
H1037 H 0.82215 0.23702 0.48721 0.0
H1038 H 0.77064 0.23311 0.51362 0.0
H1039 H 0.78028 0.24043 0.57733 0.0
Nd1040 Nd 0.75443 0.61759 0.7048 0.0
Nd1041 Nd 0.75264 0.58634 0.65817 0.0
C1042 C 0.7619 0.64316 0.75441 0.0
C1043 C 0.76535 0.64577 0.79423 0.0
C1044 C 0.77929 0.64398 0.81118 0.0
C1045 C 0.78201 0.64632 0.84903 0.0
C1046 C 0.77064 0.65017 0.87072 0.0
C1047 C 0.75682 0.65205 0.85361 0.0
C1048 C 0.75428 0.64997 0.81584 0.0
C1049 C 0.7203 0.58977 0.68968 0.0
C1050 C 0.76035 0.58582 0.74318 0.0
C1051 C 0.74481 0.56027 0.60969 0.0
C1052 C 0.74916 0.56032 0.5708 0.0
C1053 C 0.74282 0.5439 0.55168 0.0
C1054 C 0.74823 0.544 0.51546 0.0
C1055 C 0.76019 0.56055 0.49802 0.0
C1056 C 0.76601 0.57699 0.51705 0.0
C1057 C 0.76053 0.57688 0.55305 0.0
C1058 C 0.78664 0.61621 0.66712 0.0
C1059 C 0.75087 0.62156 0.61891 0.0
O1060 O 0.77432 0.64272 0.7339 0.0
O1061 O 0.74531 0.63119 0.74449 0.0
O1062 O 0.72476 0.60682 0.69 0.0
O1063 O 0.73343 0.58754 0.69866 0.0
O1064 O 0.76484 0.60312 0.74219 0.0
O1065 O 0.75187 0.57474 0.71553 0.0
O1066 O 0.73371 0.56633 0.61763 0.0
O1067 O 0.75876 0.5665 0.63184 0.0
O1068 O 0.78389 0.5997 0.66842 0.0
O1069 O 0.77202 0.61593 0.66135 0.0
O1070 O 0.74735 0.60437 0.61652 0.0
O1071 O 0.75617 0.6307 0.64991 0.0
H1072 H 0.78796 0.64059 0.79531 0.0
H1073 H 0.7927 0.64467 0.86142 0.0
H1074 H 0.74798 0.65523 0.86947 0.0
H1075 H 0.74352 0.65152 0.80347 0.0
H1076 H 0.73404 0.53099 0.56502 0.0
H1077 H 0.74359 0.53113 0.50159 0.0
H1078 H 0.77499 0.58998 0.5042 0.0
H1079 H 0.76551 0.58971 0.56733 0.0
Nd1080 Nd 0.79805 0.70232 0.30969 0.0
Nd1081 Nd 0.82541 0.73381 0.35675 0.0
C1082 C 0.78158 0.6763 0.26 0.0
C1083 C 0.78199 0.67382 0.22 0.0
C1084 C 0.79796 0.67716 0.2017 0.0
C1085 C 0.79775 0.67419 0.16398 0.0
C1086 C 0.78159 0.66797 0.14363 0.0
C1087 C 0.76573 0.66492 0.16213 0.0
C1088 C 0.76592 0.66769 0.19978 0.0
C1089 C 0.78955 0.7292 0.32 0.0
C1090 C 0.83501 0.73517 0.27205 0.0
C1091 C 0.84306 0.75996 0.40557 0.0
C1092 C 0.84841 0.76129 0.44451 0.0
C1093 C 0.83584 0.75077 0.47179 0.0
C1094 C 0.84153 0.75168 0.50809 0.0
C1095 C 0.85993 0.76299 0.51783 0.0
C1096 C 0.8724 0.77366 0.4905 0.0
C1097 C 0.86668 0.77285 0.45435 0.0
C1098 C 0.83196 0.70531 0.34867 0.0
C1099 C 0.78906 0.69786 0.3948 0.0
O1100 O 0.79564 0.67866 0.27905 0.0
O1101 O 0.77511 0.68658 0.27123 0.0
O1102 O 0.77783 0.71189 0.31995 0.0
O1103 O 0.80553 0.73225 0.31383 0.0
O1104 O 0.82295 0.71764 0.2729 0.0
O1105 O 0.8366 0.74596 0.29962 0.0
O1106 O 0.82574 0.75323 0.39797 0.0
O1107 O 0.85116 0.75432 0.38309 0.0
O1108 O 0.84483 0.72222 0.34748 0.0
O1109 O 0.81704 0.70449 0.3542 0.0
O1110 O 0.80182 0.71538 0.39738 0.0
O1111 O 0.78636 0.68879 0.36403 0.0
H1112 H 0.81062 0.68199 0.21647 0.0
H1113 H 0.8102 0.67653 0.15094 0.0
H1114 H 0.75312 0.66054 0.14749 0.0
H1115 H 0.75344 0.66507 0.21316 0.0
H1116 H 0.82167 0.74163 0.46503 0.0
H1117 H 0.8316 0.74313 0.52832 0.0
H1118 H 0.88662 0.78267 0.49706 0.0
H1119 H 0.87664 0.78112 0.43387 0.0
Nd1120 Nd 0.2771 0.09483 0.31446 0.0
Nd1121 Nd 0.24604 0.09364 0.36212 0.0
C1122 C 0.30533 0.10282 0.27187 0.0
C1123 C 0.30841 0.10375 0.23166 0.0
C1124 C 0.30464 0.11502 0.2093 0.0
C1125 C 0.30812 0.11631 0.17171 0.0
C1126 C 0.31515 0.10612 0.15522 0.0
C1127 C 0.31867 0.09465 0.17747 0.0
C1128 C 0.31545 0.09359 0.21525 0.0
C1129 C 0.24486 0.06207 0.31367 0.0
C1130 C 0.24471 0.09804 0.27514 0.0
C1131 C 0.22073 0.0877 0.41142 0.0
C1132 C 0.21967 0.08917 0.45149 0.0
C1133 C 0.22765 0.08229 0.4756 0.0
C1134 C 0.22769 0.08519 0.51326 0.0
C1135 C 0.21994 0.09522 0.52766 0.0
C1136 C 0.21158 0.10169 0.50336 0.0
C1137 C 0.21142 0.09865 0.46579 0.0
C1138 C 0.27381 0.12757 0.3433 0.0
C1139 C 0.28159 0.09404 0.40269 0.0
O1140 O 0.30186 0.11502 0.28564 0.0
O1141 O 0.29542 0.08665 0.28672 0.0
O1142 O 0.25543 0.06905 0.28566 0.0
O1143 O 0.25182 0.07196 0.3414 0.0
O1144 O 0.26247 0.10468 0.27674 0.0
O1145 O 0.23407 0.09008 0.30379 0.0
O1146 O 0.22336 0.07478 0.39848 0.0
O1147 O 0.23016 0.10312 0.39408 0.0
O1148 O 0.25681 0.12329 0.34209 0.0
O1149 O 0.27509 0.11413 0.35331 0.0
O1150 O 0.26621 0.0945 0.40613 0.0
O1151 O 0.28829 0.09335 0.37046 0.0
H1152 H 0.29896 0.12287 0.22077 0.0
H1153 H 0.30502 0.12509 0.15542 0.0
H1154 H 0.32419 0.08671 0.16574 0.0
H1155 H 0.31853 0.08483 0.2317 0.0
H1156 H 0.23416 0.07496 0.46536 0.0
H1157 H 0.23398 0.0797 0.53102 0.0
H1158 H 0.20572 0.10969 0.51313 0.0
H1159 H 0.20526 0.10418 0.4477 0.0
Nd1160 Nd 0.89981 0.1907 0.30827 0.0
Nd1161 Nd 0.89638 0.15873 0.35492 0.0
C1162 C 0.89532 0.21065 0.25808 0.0
C1163 C 0.89194 0.20971 0.21829 0.0
C1164 C 0.87838 0.1937 0.20149 0.0
C1165 C 0.8755 0.19318 0.16374 0.0
C1166 C 0.88635 0.20854 0.14196 0.0
C1167 C 0.89994 0.22449 0.15886 0.0
C1168 C 0.90263 0.22508 0.19662 0.0
C1169 C 0.93231 0.19329 0.32592 0.0
C1170 C 0.8927 0.15301 0.26798 0.0
C1171 C 0.89943 0.13741 0.40408 0.0
C1172 C 0.89468 0.13211 0.44284 0.0
C1173 C 0.8988 0.14512 0.4705 0.0
C1174 C 0.89369 0.13961 0.50678 0.0
C1175 C 0.88423 0.12098 0.51613 0.0
C1176 C 0.88032 0.10805 0.48838 0.0
C1177 C 0.88553 0.11356 0.45224 0.0
C1178 C 0.86446 0.1581 0.33925 0.0
C1179 C 0.90114 0.19685 0.3945 0.0
O1180 O 0.88212 0.1987 0.27862 0.0
O1181 O 0.91133 0.21356 0.26836 0.0
O1182 O 0.92968 0.20711 0.32386 0.0
O1183 O 0.91823 0.17857 0.31686 0.0
O1184 O 0.88984 0.16693 0.26824 0.0
O1185 O 0.89802 0.14805 0.29771 0.0
O1186 O 0.91245 0.15409 0.39709 0.0
O1187 O 0.88579 0.13167 0.38126 0.0
O1188 O 0.86579 0.14349 0.33873 0.0
O1189 O 0.87933 0.17152 0.34824 0.0
O1190 O 0.90236 0.18181 0.39744 0.0
O1191 O 0.8983 0.20238 0.36279 0.0
H1192 H 0.87012 0.18154 0.21741 0.0
H1193 H 0.86505 0.18064 0.15148 0.0
H1194 H 0.90841 0.2366 0.14288 0.0
H1195 H 0.91315 0.23757 0.20892 0.0
H1196 H 0.90578 0.15953 0.46408 0.0
H1197 H 0.89674 0.14992 0.52735 0.0
H1198 H 0.87326 0.09361 0.49462 0.0
H1199 H 0.88225 0.10327 0.43147 0.0
Nd1200 Nd 0.24754 0.15929 0.86253 0.0
Nd1201 Nd 0.2803 0.18429 0.81219 0.0
C1202 C 0.22157 0.14469 0.91279 0.0
C1203 C 0.22201 0.14042 0.95167 0.0
C1204 C 0.20593 0.1316 0.97232 0.0
C1205 C 0.20634 0.12619 1.00838 0.0
C1206 C 0.22283 0.12939 1.02416 0.0
C1207 C 0.23896 0.13877 1.00359 0.0
C1208 C 0.23855 0.14419 0.96777 0.0
C1209 C 0.27426 0.15014 0.85712 0.0
C1210 C 0.28443 0.19497 0.89866 0.0
C1211 C 0.30933 0.20018 0.76953 0.0
C1212 C 0.31252 0.20181 0.72947 0.0
C1213 C 0.32585 0.19852 0.71444 0.0
C1214 C 0.32837 0.19891 0.67653 0.0
C1215 C 0.31764 0.20268 0.65256 0.0
C1216 C 0.30438 0.20611 0.66787 0.0
C1217 C 0.30179 0.20559 0.70577 0.0
C1218 C 0.24967 0.18762 0.80312 0.0
C1219 C 0.24709 0.14726 0.77988 0.0
O1220 O 0.22989 0.16198 0.90411 0.0
O1221 O 0.2252 0.1351 0.88998 0.0
O1222 O 0.25709 0.13796 0.85724 0.0
O1223 O 0.27625 0.16574 0.85928 0.0
O1224 O 0.26813 0.18032 0.9038 0.0
O1225 O 0.29205 0.19966 0.86594 0.0
O1226 O 0.30294 0.18377 0.78302 0.0
O1227 O 0.30179 0.20899 0.78411 0.0
O1228 O 0.2606 0.18919 0.77688 0.0
O1229 O 0.25574 0.18551 0.83288 0.0
O1230 O 0.26495 0.15695 0.78301 0.0
O1231 O 0.23633 0.14857 0.80449 0.0
H1232 H 0.19302 0.12851 0.96029 0.0
H1233 H 0.19368 0.11893 1.02342 0.0
H1234 H 0.25194 0.14173 1.01506 0.0
H1235 H 0.25112 0.15098 0.9523 0.0
H1236 H 0.3342 0.19541 0.73207 0.0
H1237 H 0.33851 0.19589 0.66604 0.0
H1238 H 0.29601 0.20933 0.6506 0.0
H1239 H 0.29128 0.20802 0.71647 0.0
Nd1240 Nd 0.82889 0.09071 0.85528 0.0
Nd1241 Nd 0.80199 0.09725 0.81023 0.0
C1242 C 0.84433 0.08074 0.90631 0.0
C1243 C 0.84876 0.08601 0.94496 0.0
C1244 C 0.85627 0.07791 0.9671 0.0
C1245 C 0.86143 0.08383 1.0032 0.0
C1246 C 0.85925 0.09804 1.01761 0.0
C1247 C 0.8512 0.10569 0.9955 0.0
C1248 C 0.84606 0.09978 0.95962 0.0
C1249 C 0.84099 0.12615 0.8359 0.0
C1250 C 0.79905 0.10029 0.89644 0.0
C1251 C 0.78598 0.10758 0.76103 0.0
C1252 C 0.7866 0.11081 0.72122 0.0
C1253 C 0.80312 0.11913 0.70178 0.0
C1254 C 0.80334 0.12234 0.66419 0.0
C1255 C 0.78698 0.11684 0.64516 0.0
C1256 C 0.77047 0.10831 0.66464 0.0
C1257 C 0.77031 0.10544 0.70229 0.0
C1258 C 0.78868 0.06214 0.83326 0.0
C1259 C 0.83313 0.0913 0.76828 0.0
O1260 O 0.82697 0.07126 0.89821 0.0
O1261 O 0.85356 0.09371 0.88265 0.0
O1262 O 0.85152 0.11912 0.83558 0.0
O1263 O 0.82541 0.11467 0.84684 0.0
O1264 O 0.81014 0.09346 0.89877 0.0
O1265 O 0.79511 0.1049 0.86479 0.0
O1266 O 0.80017 0.11898 0.78018 0.0
O1267 O 0.77924 0.09067 0.77164 0.0
O1268 O 0.77934 0.07049 0.8328 0.0
O1269 O 0.80456 0.07212 0.82069 0.0
O1270 O 0.82248 0.09851 0.7679 0.0
O1271 O 0.8362 0.08462 0.79843 0.0
H1272 H 0.85846 0.06726 0.95626 0.0
H1273 H 0.86766 0.07771 1.0194 0.0
H1274 H 0.849 0.11642 1.00586 0.0
H1275 H 0.84027 0.1062 0.94305 0.0
H1276 H 0.81584 0.12305 0.71557 0.0
H1277 H 0.81624 0.12877 0.64986 0.0
H1278 H 0.75767 0.10402 0.65078 0.0
H1279 H 0.75741 0.09898 0.71667 0.0
Nd1280 Nd 0.89239 0.73786 0.85498 0.0
Nd1281 Nd 0.88591 0.70518 0.80705 0.0
C1282 C 0.90211 0.7627 0.90723 0.0
C1283 C 0.89796 0.76174 0.94655 0.0
C1284 C 0.90511 0.77765 0.96773 0.0
C1285 C 0.9007 0.77668 1.00491 0.0
C1286 C 0.88912 0.75975 1.02156 0.0
C1287 C 0.88198 0.74387 1.00001 0.0
C1288 C 0.88632 0.74487 0.96296 0.0
C1289 C 0.85697 0.71462 0.83551 0.0
C1290 C 0.88336 0.698 0.89297 0.0
C1291 C 0.87597 0.68004 0.75518 0.0
C1292 C 0.87556 0.67865 0.71459 0.0
C1293 C 0.86375 0.68208 0.69334 0.0
C1294 C 0.86279 0.67963 0.65538 0.0
C1295 C 0.87392 0.67409 0.63757 0.0
C1296 C 0.88599 0.67103 0.6587 0.0
C1297 C 0.88667 0.67312 0.69674 0.0
C1298 C 0.92093 0.72666 0.83029 0.0
C1299 C 0.89217 0.74321 0.76826 0.0
O1300 O 0.91216 0.75573 0.8971 0.0
O1301 O 0.88833 0.75818 0.88533 0.0
O1302 O 0.86397 0.73219 0.83608 0.0
O1303 O 0.86851 0.7104 0.8454 0.0
O1304 O 0.89077 0.71597 0.89625 0.0
O1305 O 0.87778 0.68983 0.86103 0.0
O1306 O 0.86475 0.68433 0.77091 0.0
O1307 O 0.89194 0.6877 0.77101 0.0
O1308 O 0.91274 0.70902 0.82809 0.0
O1309 O 0.91095 0.73279 0.81882 0.0
O1310 O 0.88546 0.72545 0.76619 0.0
O1311 O 0.89832 0.75233 0.79923 0.0
H1312 H 0.91406 0.79081 0.9555 0.0
H1313 H 0.90654 0.78915 1.02069 0.0
H1314 H 0.87275 0.73063 1.01161 0.0
H1315 H 0.88044 0.73244 0.94702 0.0
H1316 H 0.85521 0.68663 0.70597 0.0
H1317 H 0.85347 0.68228 0.63988 0.0
H1318 H 0.89465 0.66661 0.64588 0.0
H1319 H 0.89584 0.67026 0.71228 0.0
Nd1320 Nd 0.8146 0.5822 0.15816 0.0
Nd1321 Nd 0.84303 0.61486 0.20492 0.0
C1322 C 0.79716 0.55677 0.10783 0.0
C1323 C 0.79463 0.55758 0.06819 0.0
C1324 C 0.78701 0.54171 0.04684 0.0
C1325 C 0.78403 0.54255 1.00937 0.0
C1326 C 0.78874 0.55933 0.99267 0.0
C1327 C 0.79643 0.57517 1.01436 0.0
C1328 C 0.7993 0.57429 0.05164 0.0
C1329 C 0.80533 0.60783 0.17682 0.0
C1330 C 0.84775 0.61923 0.11687 0.0
C1331 C 0.86133 0.64358 0.24755 0.0
C1332 C 0.86262 0.64641 0.28785 0.0
C1333 C 0.84693 0.64133 0.309 0.0
C1334 C 0.84817 0.64445 0.34667 0.0
C1335 C 0.8651 0.65233 0.36476 0.0
C1336 C 0.88079 0.65714 0.34354 0.0
C1337 C 0.87955 0.65433 0.3056 0.0
C1338 C 0.84685 0.5844 0.20569 0.0
C1339 C 0.80942 0.58059 0.2449 0.0
O1340 O 0.81366 0.56168 0.11886 0.0
O1341 O 0.78935 0.56355 0.1282 0.0
O1342 O 0.79375 0.59046 0.17786 0.0
O1343 O 0.82062 0.6106 0.1667 0.0
O1344 O 0.83251 0.60323 0.11412 0.0
O1345 O 0.85516 0.62648 0.14877 0.0
O1346 O 0.84561 0.63912 0.23269 0.0
O1347 O 0.86878 0.6346 0.23344 0.0
O1348 O 0.84976 0.59487 0.23362 0.0
O1349 O 0.8429 0.59064 0.17816 0.0
O1350 O 0.81899 0.59853 0.24287 0.0
O1351 O 0.80766 0.57012 0.2165 0.0
H1352 H 0.78325 0.52867 0.05917 0.0
H1353 H 0.77819 0.53013 0.99346 0.0
H1354 H 0.7999 0.58827 1.00269 0.0
H1355 H 0.80492 0.58666 0.06768 0.0
H1356 H 0.83359 0.63496 0.29649 0.0
H1357 H 0.83576 0.64082 0.36144 0.0
H1358 H 0.89407 0.66291 0.35618 0.0
H1359 H 0.89187 0.65829 0.29013 0.0
Nd1360 Nd 0.39716 0.2319 0.16295 0.0
Nd1361 Nd 0.36452 0.2255 0.20965 0.0
C1362 C 0.42306 0.24214 0.11288 0.0
C1363 C 0.42277 0.23717 0.07414 0.0
C1364 C 0.43889 0.24476 0.05357 0.0
C1365 C 0.43873 0.23893 1.01761 0.0
C1366 C 0.42244 0.22527 1.00175 0.0
C1367 C 0.40625 0.2181 1.02228 0.0
C1368 C 0.40642 0.22399 0.05803 0.0
C1369 C 0.37049 0.1961 0.17053 0.0
C1370 C 0.35978 0.22941 0.12449 0.0
C1371 C 0.33869 0.21447 0.26034 0.0
C1372 C 0.33715 0.21186 0.30049 0.0
C1373 C 0.32089 0.19807 0.31579 0.0
C1374 C 0.31888 0.19587 0.35376 0.0
C1375 C 0.33305 0.20754 0.37751 0.0
C1376 C 0.34952 0.2211 0.36189 0.0
C1377 C 0.35156 0.22319 0.32388 0.0
C1378 C 0.38944 0.26138 0.19749 0.0
C1379 C 0.39888 0.22409 0.24781 0.0
O1380 O 0.41514 0.2516 0.12077 0.0
O1381 O 0.41901 0.22897 0.13622 0.0
O1382 O 0.38769 0.20129 0.17173 0.0
O1383 O 0.3684 0.20953 0.16542 0.0
O1384 O 0.37755 0.23524 0.12225 0.0
O1385 O 0.35067 0.22253 0.1551 0.0
O1386 O 0.34196 0.20334 0.24147 0.0
O1387 O 0.34788 0.23124 0.24837 0.0
O1388 O 0.37194 0.25468 0.19806 0.0
O1389 O 0.3937 0.24939 0.20492 0.0
O1390 O 0.38121 0.21773 0.24654 0.0
O1391 O 0.40958 0.23357 0.22028 0.0
H1392 H 0.45167 0.25491 0.06555 0.0
H1393 H 0.45144 0.24466 1.00269 0.0
H1394 H 0.39342 0.2078 1.01079 0.0
H1395 H 0.39381 0.21799 0.07339 0.0
H1396 H 0.30964 0.18907 0.29832 0.0
H1397 H 0.30615 0.18499 0.36444 0.0
H1398 H 0.36072 0.23048 0.379 0.0
H1399 H 0.36431 0.23386 0.31279 0.0
Nd1400 Nd 0.75962 0.17809 0.15764 0.0
Nd1401 Nd 0.76653 0.15272 0.20557 0.0
C1402 C 0.74988 0.19317 0.10536 0.0
C1403 C 0.75421 0.19626 0.06609 0.0
C1404 C 0.74765 0.20547 0.04464 0.0
C1405 C 0.75226 0.2088 1.00752 0.0
C1406 C 0.76346 0.20289 0.99121 0.0
C1407 C 0.77 0.19369 1.01303 0.0
C1408 C 0.76545 0.19045 0.05001 0.0
C1409 C 0.7955 0.18964 0.17243 0.0
C1410 C 0.76633 0.14578 0.1202 0.0
C1411 C 0.77771 0.13815 0.25636 0.0
C1412 C 0.77837 0.13683 0.29682 0.0
C1413 C 0.79304 0.15027 0.31708 0.0
C1414 C 0.7943 0.14832 0.35478 0.0
C1415 C 0.78076 0.13295 0.37346 0.0
C1416 C 0.76587 0.1197 0.35318 0.0
C1417 C 0.76479 0.12154 0.31542 0.0
C1418 C 0.73075 0.13926 0.18741 0.0
C1419 C 0.76197 0.18553 0.24352 0.0
O1420 O 0.73982 0.17615 0.11559 0.0
O1421 O 0.76359 0.20249 0.1274 0.0
O1422 O 0.7889 0.20053 0.17358 0.0
O1423 O 0.78329 0.1739 0.16421 0.0
O1424 O 0.75892 0.15633 0.11722 0.0
O1425 O 0.77303 0.14413 0.15153 0.0
O1426 O 0.78831 0.154 0.2412 0.0
O1427 O 0.76174 0.12932 0.2406 0.0
O1428 O 0.73877 0.12965 0.18899 0.0
O1429 O 0.74139 0.15564 0.19669 0.0
O1430 O 0.76905 0.1748 0.24531 0.0
O1431 O 0.75458 0.18742 0.21323 0.0
H1432 H 0.73901 0.21013 0.05661 0.0
H1433 H 0.74688 0.2158 0.99153 0.0
H1434 H 0.77892 0.18923 1.0017 0.0
H1435 H 0.77088 0.18355 0.06618 0.0
H1436 H 0.8037 0.16225 0.30378 0.0
H1437 H 0.80612 0.15874 0.36905 0.0
H1438 H 0.75494 0.10785 0.36642 0.0
H1439 H 0.75331 0.11086 0.30074 0.0
H1440 H 0.09438 0.38866 0.05909 0.0
H1441 H 0.07416 0.45638 0.09726 0.0
H1442 H 0.13655 0.42793 0.9887 0.0
H1443 H 0.0887 0.4704 0.98425 0.0
H1444 H 0.08986 0.43875 0.09654 0.0
H1445 H 0.08417 0.41052 0.0708 0.0
C1446 C 0.10161 0.402 0.04645 0.0
C1447 C 0.11628 0.40655 1.02289 0.0
C1448 C 0.08964 0.44573 0.07196 0.0
C1449 C 0.10476 0.43164 0.03621 0.0
C1450 C 0.08083 0.4559 0.07241 0.0
C1451 C 0.07986 0.46455 0.04054 0.0
C1452 C 0.09759 0.44428 0.03945 0.0
C1453 C 0.08894 0.46371 1.00923 0.0
C1454 C 0.0959 0.41453 0.05342 0.0
C1455 C 0.1252 0.42398 1.00714 0.0
N1456 N 0.09737 0.45362 1.00938 0.0
N1457 N 0.11907 0.43583 1.01355 0.0
H1458 H 0.55817 0.71227 0.98697 0.0
H1459 H 0.53932 0.62043 0.08611 0.0
H1460 H 0.5956 0.707 0.05876 0.0
H1461 H 0.51254 0.62008 0.98596 0.0
H1462 H 0.55362 0.65361 0.08841 0.0
H1463 H 0.53576 0.67985 0.99732 0.0
C1464 C 0.56153 0.70434 1.0053 0.0
C1465 C 0.57877 0.71211 1.0217 0.0
C1466 C 0.54433 0.64629 0.06629 0.0
C1467 C 0.55334 0.67551 0.03404 0.0
C1468 C 0.53609 0.6274 0.06514 0.0
C1469 C 0.52486 0.61772 0.03579 0.0
C1470 C 0.54149 0.65555 0.03757 0.0
C1471 C 0.52112 0.62722 1.00907 0.0
C1472 C 0.5488 0.68593 1.01112 0.0
C1473 C 0.58253 0.7014 0.04524 0.0
N1474 N 0.52968 0.64577 1.01026 0.0
N1475 N 0.56994 0.68364 0.05063 0.0
H1476 H 0.37528 0.89499 0.03108 0.0
H1477 H 0.28161 0.89634 0.0388 0.0
H1478 H 0.37014 0.94289 0.04353 0.0
H1479 H 0.28356 0.84927 0.99991 0.0
H1480 H 0.31407 0.91159 0.05081 0.0
H1481 H 0.34175 0.87624 0.02782 0.0
C1482 C 0.3671 0.9015 0.03332 0.0
C1483 C 0.3754 0.92047 0.03749 0.0
C1484 C 0.3075 0.89791 0.03971 0.0
C1485 C 0.33748 0.89935 0.03419 0.0
C1486 C 0.28893 0.88918 0.0329 0.0
C1487 C 0.28002 0.87167 1.01781 0.0
C1488 C 0.31738 0.88916 0.03111 0.0
C1489 C 0.29007 0.86288 1.0113 0.0
C1490 C 0.34806 0.89085 0.03143 0.0
C1491 C 0.36432 0.92832 0.04018 0.0
N1492 N 0.30837 0.87183 1.01763 0.0
N1493 N 0.346 0.91774 0.03852 0.0
H1494 H 0.47943 0.09991 0.67341 0.0
H1495 H 0.38578 0.09902 0.63858 0.0
H1496 H 0.42897 0.0538 0.63706 0.0
H1497 H 0.42904 0.1412 0.70248 0.0
H1498 H 0.40511 0.08613 0.62546 0.0
H1499 H 0.46437 0.11848 0.67394 0.0
C1500 C 0.46529 0.0938 0.66522 0.0
C1501 C 0.45534 0.07531 0.65545 0.0
C1502 C 0.41052 0.09828 0.64217 0.0
C1503 C 0.4383 0.09628 0.6555 0.0
C1504 C 0.39948 0.10567 0.64957 0.0
C1505 C 0.40576 0.12096 0.67213 0.0
C1506 C 0.42793 0.10606 0.65787 0.0
C1507 C 0.42372 0.12927 0.68517 0.0
C1508 C 0.45674 0.10434 0.66557 0.0
C1509 C 0.4371 0.06795 0.6451 0.0
N1510 N 0.43417 0.12151 0.67834 0.0
N1511 N 0.42921 0.07844 0.64542 0.0
H1512 H 0.93732 0.38071 0.70841 0.0
H1513 H 0.84614 0.28467 0.67975 0.0
H1514 H 0.89129 0.37641 0.64941 0.0
H1515 H 0.89853 0.29248 0.71203 0.0
H1516 H 0.85944 0.31816 0.6788 0.0
H1517 H 0.91984 0.34835 0.72225 0.0
C1518 C 0.92342 0.37291 0.69862 0.0
C1519 C 0.91581 0.38109 0.67723 0.0
C1520 C 0.86788 0.31242 0.68638 0.0
C1521 C 0.89575 0.34387 0.69235 0.0
C1522 C 0.86032 0.29341 0.68697 0.0
C1523 C 0.87133 0.2859 0.69565 0.0
C1524 C 0.8864 0.32374 0.69515 0.0
C1525 C 0.88959 0.29769 0.70479 0.0
C1526 C 0.91343 0.35441 0.70644 0.0
C1527 C 0.89764 0.37047 0.66576 0.0
N1528 N 0.89651 0.31594 0.70426 0.0
N1529 N 0.88824 0.35224 0.67298 0.0
H1530 H 0.60691 0.50742 0.68491 0.0
H1531 H 0.70316 0.59245 0.63061 0.0
H1532 H 0.61604 0.55555 0.62677 0.0
H1533 H 0.69778 0.55535 0.7166 0.0
H1534 H 0.67141 0.57236 0.61413 0.0
H1535 H 0.6401 0.51905 0.68396 0.0
C1536 C 0.61588 0.52024 0.67149 0.0
C1537 C 0.60895 0.53077 0.65649 0.0
C1538 C 0.67716 0.5684 0.6363 0.0
C1539 C 0.64632 0.54377 0.65452 0.0
C1540 C 0.69526 0.57984 0.64561 0.0
C1541 C 0.70279 0.5756 0.67535 0.0
C1542 C 0.66636 0.55289 0.65761 0.0
C1543 C 0.69223 0.55904 0.69364 0.0
C1544 C 0.6347 0.52683 0.67095 0.0
C1545 C 0.62093 0.5472 0.63923 0.0
N1546 N 0.67427 0.54838 0.68504 0.0
N1547 N 0.639 0.5532 0.63884 0.0
H1548 H 0.84569 0.56339 0.14776 0.0
H1549 H 0.92909 0.55717 0.2174 0.0
H1550 H 0.8648 0.57719 0.25868 0.0
H1551 H 0.89222 0.51756 0.13997 0.0
H1552 H 0.90608 0.56564 0.23132 0.0
H1553 H 0.86245 0.54679 0.14219 0.0
C1554 C 0.85314 0.56265 0.17108 0.0
C1555 C 0.85412 0.57187 0.20353 0.0
C1556 C 0.90291 0.55491 0.21165 0.0
C1557 C 0.87341 0.55331 0.19717 0.0
C1558 C 0.91604 0.55017 0.20359 0.0
C1559 C 0.91249 0.53678 0.17741 0.0
C1560 C 0.88632 0.54655 0.19261 0.0
C1561 C 0.89539 0.52798 0.16034 0.0
C1562 C 0.86265 0.55317 0.16792 0.0
C1563 C 0.86388 0.57045 0.23302 0.0
N1564 N 0.88299 0.53328 0.16771 0.0
N1565 N 0.87346 0.56166 0.22891 0.0
H1566 H 0.42713 0.28014 0.19279 0.0
H1567 H 0.42965 0.37558 0.20364 0.0
H1568 H 0.38039 0.28759 0.1981 0.0
H1569 H 0.47496 0.37251 0.15799 0.0
H1570 H 0.41392 0.34299 0.21455 0.0
H1571 H 0.44704 0.31367 0.19 0.0
C1572 C 0.42111 0.2888 0.1935 0.0
C1573 C 0.40213 0.28116 0.19575 0.0
C1574 C 0.42732 0.34936 0.20221 0.0
C1575 C 0.42454 0.31899 0.19312 0.0
C1576 C 0.43633 0.36799 0.19605 0.0
C1577 C 0.45344 0.37661 0.17928 0.0
C1578 C 0.43536 0.33911 0.19128 0.0
C1579 C 0.46165 0.36621 0.17067 0.0
C1580 C 0.43242 0.30782 0.19187 0.0
C1581 C 0.39493 0.29285 0.19642 0.0
N1582 N 0.45239 0.34782 0.17638 0.0
N1583 N 0.40612 0.3111 0.19525 0.0
H1584 H 0.61507 0.10265 0.15535 0.0
H1585 H 0.70719 0.10336 0.18022 0.0
H1586 H 0.62035 0.06111 0.21308 0.0
H1587 H 0.70886 0.15501 0.18904 0.0
H1588 H 0.67424 0.08782 0.18077 0.0
H1589 H 0.64849 0.12287 0.15959 0.0
C1590 C 0.6232 0.09795 0.16947 0.0
C1591 C 0.61511 0.08011 0.18327 0.0
C1592 C 0.68176 0.10256 0.18269 0.0
C1593 C 0.65276 0.10276 0.18769 0.0
C1594 C 0.7006 0.11148 0.18218 0.0
C1595 C 0.71077 0.13049 0.18507 0.0
C1596 C 0.67283 0.11265 0.18565 0.0
C1597 C 0.70143 0.14029 0.18709 0.0
C1598 C 0.64215 0.10944 0.17181 0.0
C1599 C 0.6261 0.07463 0.20141 0.0
N1600 N 0.68282 0.13122 0.18728 0.0
N1601 N 0.64435 0.08579 0.20261 0.0
H1602 H 0.55972 0.85174 0.42386 0.0
H1603 H 0.511 0.88758 0.55876 0.0
H1604 H 0.56178 0.84549 0.54039 0.0
H1605 H 0.54179 0.91731 0.46419 0.0
H1606 H 0.52009 0.86449 0.54728 0.0
H1607 H 0.54301 0.86788 0.43373 0.0
C1608 C 0.55645 0.85356 0.45156 0.0
C1609 C 0.56244 0.84762 0.48145 0.0
C1610 C 0.52454 0.87595 0.52884 0.0
C1611 C 0.54311 0.86582 0.4927 0.0
C1612 C 0.51929 0.88896 0.53515 0.0
C1613 C 0.52575 0.90424 0.5123 0.0
C1614 C 0.53581 0.87813 0.49896 0.0
C1615 C 0.53662 0.90569 0.48238 0.0
C1616 C 0.54691 0.86275 0.45708 0.0
C1617 C 0.55759 0.85011 0.51669 0.0
N1618 N 0.54129 0.89275 0.47648 0.0
N1619 N 0.54826 0.8592 0.52145 0.0
H1620 H 0.0933 0.6198 0.58089 0.0
H1621 H 0.14896 0.71078 0.54204 0.0
H1622 H 0.08645 0.6109 0.4647 0.0
H1623 H 0.12145 0.6979 0.43818 0.0
H1624 H 0.13709 0.67846 0.5531 0.0
H1625 H 0.113 0.65223 0.57004 0.0
C1626 C 0.09626 0.62469 0.55302 0.0
C1627 C 0.0882 0.61271 0.52368 0.0
C1628 C 0.13342 0.68257 0.52802 0.0
C1629 C 0.11118 0.64994 0.51069 0.0
C1630 C 0.14047 0.7011 0.52147 0.0
C1631 C 0.13593 0.70699 0.48949 0.0
C1632 C 0.12139 0.66976 0.50266 0.0
C1633 C 0.12512 0.69389 0.46342 0.0
C1634 C 0.10771 0.64326 0.54671 0.0
C1635 C 0.0924 0.61974 0.48809 0.0
N1636 N 0.11799 0.67584 0.4708 0.0
N1637 N 0.10344 0.63795 0.48259 0.0
H1638 H 0.36218 0.42475 0.52392 0.0
H1639 H 0.27806 0.44042 0.50525 0.0
H1640 H 0.36989 0.47905 0.53046 0.0
H1641 H 0.27407 0.38971 0.53881 0.0
H1642 H 0.31131 0.4557 0.51361 0.0
H1643 H 0.3295 0.41224 0.52618 0.0
C1644 C 0.35696 0.43408 0.52578 0.0
C1645 C 0.36874 0.45297 0.52705 0.0
C1646 C 0.30306 0.44131 0.51971 0.0
C1647 C 0.33111 0.43865 0.52967 0.0
C1648 C 0.28414 0.43261 0.51508 0.0
C1649 C 0.27343 0.41374 0.52079 0.0
C1650 C 0.31112 0.43094 0.52982 0.0
C1651 C 0.28189 0.40423 0.53355 0.0
C1652 C 0.33825 0.4269 0.52735 0.0
C1653 C 0.36119 0.46438 0.52946 0.0
N1654 N 0.30023 0.41287 0.53715 0.0
N1655 N 0.34274 0.45703 0.53044 0.0
H1656 H 0.7565 0.72276 0.29819 0.0
H1657 H 0.77164 0.82002 0.3527 0.0
H1658 H 0.80907 0.76632 0.33256 0.0
H1659 H 0.72276 0.77677 0.304 0.0
H1660 H 0.7873 0.80281 0.33943 0.0
H1661 H 0.74545 0.74409 0.2947 0.0
C1662 C 0.76576 0.73691 0.30499 0.0
C1663 C 0.78366 0.74278 0.31611 0.0
C1664 C 0.77327 0.79729 0.33102 0.0
C1665 C 0.77098 0.76746 0.31255 0.0
C1666 C 0.76437 0.80713 0.3384 0.0
C1667 C 0.74583 0.79957 0.32989 0.0
C1668 C 0.76345 0.77991 0.31505 0.0
C1669 C 0.73699 0.78289 0.31149 0.0
C1670 C 0.75946 0.74916 0.3028 0.0
C1671 C 0.79513 0.76131 0.32405 0.0
N1672 N 0.74581 0.77355 0.30508 0.0
N1673 N 0.7885 0.77303 0.32266 0.0
H1674 H 0.17163 0.95078 0.38343 0.0
H1675 H 0.23411 0.03723 0.25886 0.0
H1676 H 0.20789 0.95177 0.29982 0.0
H1677 H 0.22375 0.04276 0.3721 0.0
H1678 H 0.21496 0.00418 0.26437 0.0
H1679 H 0.1818 0.98304 0.37015 0.0
C1680 C 0.1814 0.95769 0.36177 0.0
C1681 C 0.18914 0.94885 0.34282 0.0
C1682 C 0.21664 0.01268 0.28781 0.0
C1683 C 0.20041 0.98516 0.32726 0.0
C1684 C 0.22753 0.03151 0.28472 0.0
C1685 C 0.23078 0.04266 0.31531 0.0
C1686 C 0.20881 0.00498 0.32158 0.0
C1687 C 0.22175 0.03456 0.34803 0.0
C1688 C 0.18722 0.97601 0.35437 0.0
C1689 C 0.20179 0.95827 0.31519 0.0
N1690 N 0.21127 0.01611 0.35048 0.0
N1691 N 0.20707 0.97595 0.30823 0.0
H1692 H 0.945 0.17367 0.36245 0.0
H1693 H 0.04781 0.24094 0.30064 0.0
H1694 H 0.96132 0.21894 0.28884 0.0
H1695 H 0.03364 0.21885 0.40951 0.0
H1696 H 0.01546 0.2238 0.2839 0.0
H1697 H 0.97717 0.18166 0.36783 0.0
C1698 C 0.95531 0.18501 0.34692 0.0
C1699 C 0.95074 0.19587 0.32567 0.0
C1700 C 0.01954 0.22245 0.31121 0.0
C1701 C 0.987 0.20471 0.33085 0.0
C1702 C 0.03793 0.23217 0.32073 0.0
C1703 C 0.04321 0.23152 0.35666 0.0
C1704 C 0.00653 0.21187 0.33768 0.0
C1705 C 0.02996 0.2199 0.38168 0.0
C1706 C 0.97356 0.18956 0.34999 0.0
C1707 C 0.96445 0.21043 0.30594 0.0
N1708 N 0.01213 0.21061 0.37183 0.0
N1709 N 0.98201 0.21447 0.30906 0.0
H1710 H 0.24833 0.20969 0.75034 0.0
H1711 H 0.17744 0.22859 0.85761 0.0
H1712 H 0.22365 0.18324 0.85209 0.0
H1713 H 0.22219 0.26972 0.79476 0.0
H1714 H 0.18792 0.20699 0.84347 0.0
H1715 H 0.23194 0.22668 0.75385 0.0
C1716 C 0.23915 0.20717 0.77298 0.0
C1717 C 0.23744 0.19524 0.80123 0.0
C1718 C 0.19529 0.2207 0.83253 0.0
C1719 C 0.21872 0.21445 0.80523 0.0
C1720 C 0.18935 0.23299 0.84052 0.0
C1721 C 0.19916 0.25097 0.82767 0.0
C1722 C 0.2109 0.22639 0.81097 0.0
C1723 C 0.21442 0.25601 0.80552 0.0
C1724 C 0.22992 0.21693 0.77506 0.0
C1725 C 0.22542 0.19247 0.82998 0.0
N1726 N 0.21986 0.24377 0.79786 0.0
N1727 N 0.21655 0.2021 0.83138 0.0
H1728 H 0.75364 0.03931 0.85198 0.0
H1729 H 0.75601 0.94673 0.84733 0.0
H1730 H 0.80337 0.03972 0.82458 0.0
H1731 H 0.70823 0.95096 0.82534 0.0
H1732 H 0.7745 0.9803 0.84725 0.0
H1733 H 0.73762 0.00621 0.85321 0.0
C1734 C 0.76123 0.03241 0.84642 0.0
C1735 C 0.77979 0.04223 0.8377 0.0
C1736 C 0.75999 0.97377 0.84225 0.0
C1737 C 0.76147 0.00424 0.83898 0.0
C1738 C 0.74947 0.95471 0.84227 0.0
C1739 C 0.73058 0.94614 0.83658 0.0
C1740 C 0.7514 0.98412 0.83709 0.0
C1741 C 0.72272 0.957 0.83004 0.0
C1742 C 0.75204 0.0135 0.84694 0.0
C1743 C 0.78899 0.03257 0.83115 0.0
N1744 N 0.73313 0.9754 0.83082 0.0
N1745 N 0.77969 0.01399 0.83181 0.0
H1746 H 0.03098 0.75283 0.8434 0.0
H1747 H 0.94371 0.76403 0.82504 0.0
H1748 H 0.03551 0.80494 0.86619 0.0
H1749 H 0.94279 0.71398 0.85227 0.0
H1750 H 0.97721 0.78058 0.83225 0.0
H1751 H -0.0016 0.73958 0.8356 0.0
C1752 C 0.02508 0.76152 0.8467 0.0
C1753 C 0.03586 0.77992 0.856 0.0
C1754 C 0.96953 0.766 0.83683 0.0
C1755 C -0.0016 0.76477 0.84725 0.0
C1756 C 0.95052 0.7566 0.83277 0.0
C1757 C 0.94058 0.73761 0.83761 0.0
C1758 C 0.97838 0.75617 0.8453 0.0
C1759 C 0.94993 0.72857 0.84779 0.0
C1760 C 0.00645 0.75392 0.84238 0.0
C1761 C 0.02753 0.79062 0.85935 0.0
N1762 N 0.96826 0.7379 0.85095 0.0
N1763 N 0.00914 0.78284 0.8551 0.0
H1764 H -0.0032 0.44916 0.94176 0.0
H1765 H -0.00619 0.45147 0.7234 0.0
H1766 H 0.04463 0.47278 0.87328 0.0
H1767 H 0.94617 0.43349 0.7912 0.0
H1768 H 0.01217 0.4567 0.77799 0.0
H1769 H 0.97772 0.44018 0.88707 0.0
C1770 C 0.00333 0.45223 0.91526 0.0
C1771 C 0.02243 0.46191 0.91223 0.0
C1772 C -0.0023 0.45157 0.781 0.0
C1773 C 0.00057 0.45182 0.84938 0.0
C1774 C 0.98715 0.44858 0.74975 0.0
C1775 C 0.96836 0.44207 0.75256 0.0
C1776 C 0.98948 0.44802 0.81556 0.0
C1777 C 0.9606 0.43858 0.78762 0.0
C1778 C 0.99239 0.44722 0.88402 0.0
C1779 C 0.03002 0.46557 0.87706 0.0
N1780 N 0.97119 0.44161 0.81772 0.0
N1781 N 0.0191 0.46062 0.8471 0.0
H1782 H 0.51524 0.57189 0.88812 0.0
H1783 H 0.56793 0.524 0.80716 0.0
H1784 H 0.54943 0.55875 0.95381 0.0
H1785 H 0.54661 0.55098 0.74007 0.0
H1786 H 0.56178 0.537 0.86139 0.0
H1787 H 0.52701 0.5648 0.83331 0.0
C1788 C 0.52539 0.56778 0.89105 0.0
C1789 C 0.53123 0.56581 0.92572 0.0
C1790 C 0.55866 0.54022 0.83471 0.0
C1791 C 0.54456 0.55739 0.86313 0.0
C1792 C 0.56218 0.5328 0.80374 0.0
C1793 C 0.55764 0.53622 0.76895 0.0
C1794 C 0.55037 0.55097 0.83086 0.0
C1795 C 0.55023 0.5478 0.76627 0.0
C1796 C 0.5321 0.5637 0.85974 0.0
C1797 C 0.54442 0.56039 0.92774 0.0
N1798 N 0.54664 0.55455 0.79676 0.0
N1799 N 0.55045 0.55616 0.89697 0.0
H1800 H 0.43882 -0.0034 0.95728 0.0
H1801 H 0.44157 -0.00199 0.73936 0.0
H1802 H 0.41853 0.94813 0.89108 0.0
H1803 H 0.46689 0.0465 0.80609 0.0
H1804 H 0.42908 0.97959 0.79421 0.0
H1805 H 0.44509 0.01481 0.90209 0.0
C1806 C 0.43549 0.98972 0.93114 0.0
C1807 C 0.42828 0.97076 0.92889 0.0
C1808 C 0.43721 0.99426 0.79687 0.0
C1809 C 0.43556 0.99171 0.86531 0.0
C1810 C 0.44435 0.00484 0.76552 0.0
C1811 C 0.45546 0.02388 0.76806 0.0
C1812 C 0.4412 0.00271 0.8312 0.0
C1813 C 0.45844 0.0319 0.80275 0.0
C1814 C 0.43912 0.00018 0.89958 0.0
C1815 C 0.42413 0.96268 0.89418 0.0
N1816 N 0.45149 0.02126 0.83297 0.0
N1817 N 0.42799 0.97322 0.86375 0.0
H1818 H 0.94678 0.5151 0.29942 0.0
H1819 H 0.04665 0.57436 0.38389 0.0
H1820 H -0.00642 0.55487 0.23883 0.0
H1821 H -0.00065 0.54112 0.45031 0.0
H1822 H 0.02689 0.56793 0.33112 0.0
H1823 H 0.96512 0.52485 0.35537 0.0
C1824 C 0.96083 0.52599 0.29785 0.0
C1825 C 0.96863 0.53409 0.26416 0.0
C1826 C 0.02076 0.56213 0.35724 0.0
C1827 C 0.98974 0.54521 0.32817 0.0
C1828 C 0.03207 0.56581 0.38751 0.0
C1829 C 0.02471 0.5582 0.4217 0.0
C1830 C 0.00186 0.55055 0.36082 0.0
C1831 C 0.00567 0.54728 0.42453 0.0
C1832 C 0.9713 0.53153 0.32985 0.0
C1833 C 0.98693 0.54812 0.26398 0.0
N1834 N -0.00508 0.54363 0.39443 0.0
N1835 N -0.00316 0.55311 0.29532 0.0
H1836 H 0.469 0.4215 0.30393 0.0
H1837 H 0.42073 0.47447 0.38498 0.0
H1838 H 0.44865 0.44933 0.23676 0.0
H1839 H 0.43421 0.44016 0.44943 0.0
H1840 H 0.42995 0.46474 0.33002 0.0
H1841 H 0.45576 0.42775 0.35745 0.0
C1842 C 0.46168 0.42883 0.30036 0.0
C1843 C 0.46001 0.43493 0.26574 0.0
C1844 C 0.43071 0.45921 0.35618 0.0
C1845 C 0.44485 0.44222 0.32699 0.0
C1846 C 0.42537 0.46472 0.38759 0.0
C1847 C 0.42676 0.45822 0.422 0.0
C1848 C 0.43759 0.4472 0.35922 0.0
C1849 C 0.43299 0.44565 0.42359 0.0
C1850 C 0.45409 0.43239 0.33095 0.0
C1851 C 0.45033 0.44437 0.26287 0.0
N1852 N 0.4383 0.44069 0.39277 0.0
N1853 N 0.44323 0.44781 0.29307 0.0
H1854 H 0.56645 0.04481 0.31014 0.0
H1855 H 0.5138 0.94382 0.39158 0.0
H1856 H 0.54628 -0.00351 0.24347 0.0
H1857 H 0.54729 0.99132 0.45746 0.0
H1858 H 0.52455 0.96299 0.33693 0.0
H1859 H 0.55856 0.02559 0.36476 0.0
C1860 C 0.56051 0.03022 0.30693 0.0
C1861 C 0.55703 0.0223 0.27209 0.0
C1862 C 0.52965 0.96917 0.36336 0.0
C1863 C 0.54779 0.00021 0.33444 0.0
C1864 C 0.52352 0.95822 0.39458 0.0
C1865 C 0.52964 0.96592 0.42924 0.0
C1866 C 0.54182 0.98801 0.36681 0.0
C1867 C 0.54221 0.98472 0.43136 0.0
C1868 C 0.55601 0.01925 0.33812 0.0
C1869 C 0.54927 0.00326 0.26969 0.0
N1870 N 0.54776 0.99512 0.40067 0.0
N1871 N 0.54479 0.99289 0.30036 0.0
H1872 H 0.66398 0.79835 0.30601 0.0
H1873 H 0.65605 0.77158 0.09384 0.0
H1874 H 0.70892 0.80762 0.2365 0.0
H1875 H 0.61141 0.77077 0.15214 0.0
H1876 H 0.67404 0.78091 0.14941 0.0
H1877 H 0.64322 0.78488 0.25349 0.0
C1878 C 0.66946 0.79741 0.27992 0.0
C1879 C 0.68827 0.8042 0.27573 0.0
C1880 C 0.66029 0.77863 0.15029 0.0
C1881 C 0.66464 0.78876 0.21577 0.0
C1882 C 0.64992 0.77323 0.11842 0.0
C1883 C 0.63216 0.77048 0.11801 0.0
C1884 C 0.653 0.78144 0.18245 0.0
C1885 C 0.62504 0.77273 0.15107 0.0
C1886 C 0.65762 0.7898 0.24995 0.0
C1887 C 0.69459 0.80272 0.24118 0.0
N1888 N 0.63552 0.7782 0.18192 0.0
N1889 N 0.68287 0.7952 0.21279 0.0
H1890 H 0.20528 0.87489 0.07212 0.0
H1891 H 0.21055 0.88654 0.28885 0.0
H1892 H 0.23265 0.85521 0.14238 0.0
H1893 H 0.17361 0.89503 0.22152 0.0
H1894 H 0.22189 0.87893 0.23455 0.0
H1895 H 0.19677 0.88608 0.12557 0.0
C1896 C 0.20965 0.87303 0.09875 0.0
C1897 C 0.21967 0.86399 0.10269 0.0
C1898 C 0.21137 0.88253 0.2316 0.0
C1899 C 0.20988 0.87684 0.16415 0.0
C1900 C 0.20488 0.88696 0.26263 0.0
C1901 C 0.19098 0.89136 0.25989 0.0
C1902 C 0.20402 0.88257 0.19736 0.0
C1903 C 0.18428 0.89169 0.22502 0.0
C1904 C 0.2047 0.87939 0.12929 0.0
C1905 C 0.22488 0.86202 0.13798 0.0
N1906 N 0.19083 0.88729 0.19512 0.0
N1907 N 0.2199 0.86836 0.16734 0.0
H1908 H 0.08465 0.27619 0.23607 0.0
H1909 H 0.14435 0.37621 0.15119 0.0
H1910 H 0.12086 0.3223 0.30248 0.0
H1911 H 0.10269 0.32955 0.09331 0.0
H1912 H 0.1358 0.35786 0.20744 0.0
H1913 H 0.0909 0.29645 0.18446 0.0
C1914 C 0.09387 0.29066 0.23991 0.0
C1915 C 0.10226 0.2975 0.2738 0.0
C1916 C 0.12845 0.35174 0.18245 0.0
C1917 C 0.10972 0.32105 0.21398 0.0
C1918 C 0.13328 0.36222 0.15031 0.0
C1919 C 0.1243 0.35444 0.11722 0.0
C1920 C 0.11457 0.33334 0.18149 0.0
C1921 C 0.11013 0.3362 0.11789 0.0
C1922 C 0.09744 0.30228 0.21027 0.0
C1923 C 0.11401 0.31643 0.27694 0.0
N1924 N 0.10583 0.32634 0.14926 0.0
N1925 N 0.11754 0.32754 0.2473 0.0
H1926 H 0.65179 0.85797 0.54837 0.0
H1927 H 0.65856 0.88201 0.76174 0.0
H1928 H 0.60707 0.85108 0.61593 0.0
H1929 H 0.70441 0.88658 0.70147 0.0
H1930 H 0.64075 0.87345 0.70601 0.0
H1931 H 0.67234 0.87111 0.60117 0.0
C1932 C 0.64633 0.85945 0.57404 0.0
C1933 C 0.62761 0.85333 0.57764 0.0
C1934 C 0.65472 0.87637 0.7047 0.0
C1935 C 0.65101 0.86826 0.63809 0.0
C1936 C 0.66497 0.88129 0.73671 0.0
C1937 C 0.68305 0.88492 0.73657 0.0
C1938 C 0.66242 0.8749 0.67184 0.0
C1939 C 0.69053 0.8839 0.70295 0.0
C1940 C 0.65805 0.86686 0.60422 0.0
C1941 C 0.62132 0.85546 0.61171 0.0
N1942 N 0.68015 0.87885 0.67197 0.0
N1943 N 0.63292 0.86265 0.64039 0.0
H1944 H 0.10537 0.76469 0.57726 0.0
H1945 H 0.10524 0.76993 0.7953 0.0
H1946 H 0.1375 0.75063 0.64716 0.0
H1947 H 0.08432 0.79657 0.72612 0.0
H1948 H 0.11268 0.75826 0.74121 0.0
H1949 H 0.0931 0.7717 0.63139 0.0
C1950 C 0.10964 0.76277 0.60396 0.0
C1951 C 0.12259 0.75712 0.60759 0.0
C1952 C 0.10636 0.76657 0.73782 0.0
C1953 C 0.10862 0.76525 0.66967 0.0
C1954 C 0.10205 0.77323 0.76875 0.0
C1955 C 0.09422 0.78439 0.76538 0.0
C1956 C 0.10278 0.77096 0.70303 0.0
C1957 C 0.09039 0.78808 0.7301 0.0
C1958 C 0.10271 0.76692 0.63484 0.0
C1959 C 0.12766 0.75505 0.64295 0.0
N1960 N 0.09478 0.78145 0.70029 0.0
N1961 N 0.12073 0.75917 0.67255 0.0
H1962 H 0.16838 0.28032 0.70379 0.0
H1963 H 0.22807 0.38086 0.6208 0.0
H1964 H 0.20919 0.3271 0.76283 0.0
H1965 H 0.19228 0.33495 0.55338 0.0
H1966 H 0.22086 0.36056 0.67253 0.0
H1967 H 0.17662 0.29907 0.64808 0.0
C1968 C 0.17916 0.29443 0.70505 0.0
C1969 C 0.18802 0.30211 0.73828 0.0
C1970 C 0.21457 0.35479 0.64649 0.0
C1971 C 0.1974 0.32363 0.67469 0.0
C1972 C 0.21867 0.36645 0.61676 0.0
C1973 C 0.21076 0.35968 0.58248 0.0
C1974 C 0.20231 0.33605 0.64245 0.0
C1975 C 0.19876 0.34079 0.57923 0.0
C1976 C 0.18381 0.30513 0.67323 0.0
C1977 C 0.20184 0.32051 0.73812 0.0
N1978 N 0.19481 0.32963 0.60889 0.0
N1979 N 0.20599 0.33056 0.70707 0.0
H1980 H 0.32333 0.11028 0.62364 0.0
H1981 H 0.31753 0.10321 0.40593 0.0
H1982 H 0.3708 0.13691 0.55434 0.0
H1983 H 0.27171 0.09183 0.47479 0.0
H1984 H 0.33686 0.1112 0.46017 0.0
H1985 H 0.3041 0.09924 0.56956 0.0
C1986 C 0.32978 0.11372 0.59706 0.0
C1987 C 0.3488 0.12463 0.59368 0.0
C1988 C 0.32255 0.10683 0.46339 0.0
C1989 C 0.32665 0.11188 0.53133 0.0
C1990 C 0.31144 0.10213 0.43245 0.0
C1991 C 0.2929 0.09683 0.43569 0.0
C1992 C 0.31508 0.10606 0.49797 0.0
C1993 C 0.28589 0.09586 0.47087 0.0
C1994 C 0.31873 0.10743 0.56614 0.0
C1995 C 0.35624 0.12861 0.55835 0.0
N1996 N 0.29697 0.10044 0.50057 0.0
N1997 N 0.34515 0.12223 0.52855 0.0
H1998 H 0.89387 0.22483 0.39865 0.0
H1999 H 0.88817 0.22297 0.61598 0.0
H2000 H 0.90548 0.19007 0.46627 0.0
H2001 H 0.86129 0.24395 0.54764 0.0
H2002 H 0.90048 0.21651 0.56173 0.0
H2003 H 0.88785 0.2373 0.45336 0.0
C2004 C 0.89542 0.21996 0.42499 0.0
C2005 C 0.90004 0.2062 0.42777 0.0
C2006 C 0.89202 0.22267 0.5586 0.0
C2007 C 0.89312 0.22054 0.49059 0.0
C2008 C 0.88499 0.22644 0.58959 0.0
C2009 C 0.87341 0.23381 0.58643 0.0
C2010 C 0.8876 0.22637 0.52403 0.0
C2011 C 0.87 0.23814 0.55142 0.0
C2012 C 0.89189 0.22707 0.45621 0.0
C2013 C 0.90185 0.20055 0.46275 0.0
N2014 N 0.87696 0.23422 0.52152 0.0
N2015 N 0.89829 0.20768 0.4928 0.0
H2016 H 0.74443 0.60947 0.54774 0.0
H2017 H 0.79248 0.70992 0.46581 0.0
H2018 H 0.7602 0.65738 0.61359 0.0
H2019 H 0.76429 0.66148 0.39945 0.0
H2020 H 0.77987 0.69099 0.5204 0.0
H2021 H 0.75063 0.62818 0.49287 0.0
C2022 C 0.74893 0.62383 0.55071 0.0
C2023 C 0.75193 0.63185 0.58539 0.0
C2024 C 0.77628 0.68456 0.49382 0.0
C2025 C 0.7593 0.6534 0.52274 0.0
C2026 C 0.78347 0.69538 0.46264 0.0
C2027 C 0.77962 0.68731 0.42794 0.0
C2028 C 0.76533 0.66553 0.49028 0.0
C2029 C 0.7678 0.66835 0.42558 0.0
C2030 C 0.7525 0.63453 0.51937 0.0
C2031 C 0.75781 0.65058 0.58749 0.0
N2032 N 0.76128 0.65811 0.45628 0.0
N2033 N 0.76151 0.66073 0.55666 0.0
H2034 H 0.32116 0.21948 0.90171 0.0
H2035 H 0.32373 0.21912 0.11995 0.0
H2036 H 0.27347 0.19147 0.97005 0.0
H2037 H 0.37167 0.23702 0.05311 0.0
H2038 H 0.30563 0.21397 0.06504 0.0
H2039 H 0.34006 0.23096 0.95651 0.0
C2040 C 0.31459 0.21599 0.92817 0.0
C2041 C 0.29566 0.20438 0.93119 0.0
C2042 C 0.32013 0.21916 0.06233 0.0
C2043 C 0.3173 0.21743 0.99406 0.0
C2044 C 0.33053 0.22215 0.09374 0.0
C2045 C 0.34928 0.22837 0.09125 0.0
C2046 C 0.32845 0.2224 0.02793 0.0
C2047 C 0.35726 0.23216 0.0564 0.0
C2048 C 0.32544 0.22248 0.95946 0.0
C2049 C 0.288 0.20029 0.9663 0.0
N2050 N 0.34678 0.22899 0.02607 0.0
N2051 N 0.29884 0.20672 0.99628 0.0
H2052 H 0.80571 0.09532 0.96783 0.0
H2053 H 0.75667 0.1476 0.04933 0.0
H2054 H 0.77704 0.11524 0.90203 0.0
H2055 H 0.78195 0.12432 0.11591 0.0
H2056 H 0.76303 0.13485 0.99518 0.0
H2057 H 0.79614 0.10479 1.02263 0.0
C2058 C 0.7973 0.10154 0.96486 0.0
C2059 C 0.79226 0.10455 0.93018 0.0
C2060 C 0.76708 0.13243 1.02168 0.0
C2061 C 0.78134 0.11552 0.99285 0.0
C2062 C 0.76343 0.13971 0.05264 0.0
C2063 C 0.76884 0.13711 0.08728 0.0
C2064 C 0.77625 0.12252 1.02532 0.0
C2065 C 0.77757 0.12675 0.0898 0.0
C2066 C 0.79185 0.10697 0.99619 0.0
C2067 C 0.78133 0.11269 0.92812 0.0
N2068 N 0.78108 0.11993 0.05927 0.0
N2069 N 0.77634 0.11797 0.95895 0.0
H2070 H 0.89306 0.70927 0.96403 0.0
H2071 H 0.83921 0.60818 0.04571 0.0
H2072 H 0.86598 0.66075 0.89763 0.0
H2073 H 0.87335 0.6556 0.11118 0.0
H2074 H 0.8492 0.62727 0.99117 0.0
H2075 H 0.88616 0.69002 1.01826 0.0
C2076 C 0.88575 0.69459 0.96077 0.0
C2077 C 0.88006 0.68666 0.9261 0.0
C2078 C 0.85465 0.6335 1.01742 0.0
C2079 C 0.87207 0.66451 0.9882 0.0
C2080 C 0.84894 0.62257 0.04865 0.0
C2081 C 0.85538 0.63026 0.08323 0.0
C2082 C 0.86679 0.65233 1.02066 0.0
C2083 C 0.86803 0.64903 0.08516 0.0
C2084 C 0.88184 0.6836 0.99178 0.0
C2085 C 0.87064 0.66753 0.92369 0.0
N2086 N 0.87319 0.65943 0.05439 0.0
N2087 N 0.86687 0.65716 0.95426 0.0
H2088 H 0.10625 0.58341 0.6155 0.0
H2089 H 0.08862 0.50582 0.76125 0.0
H2090 H 0.07533 0.52577 0.59406 0.0
H2091 H 0.11781 0.56323 0.78686 0.0
H2092 H 0.08763 0.51333 0.69733 0.0
H2093 H 0.11517 0.5769 0.67514 0.0
C2094 C 0.10196 0.56944 0.62283 0.0
C2095 C 0.09034 0.55509 0.59981 0.0
C2096 C 0.0944 0.52433 0.71681 0.0
C2097 C 0.09983 0.54746 0.66808 0.0
C2098 C 0.09486 0.52003 0.75342 0.0
C2099 C 0.10312 0.53389 0.77964 0.0
C2100 C 0.10213 0.54266 0.70609 0.0
C2101 C 0.11134 0.55208 0.76763 0.0
C2102 C 0.10681 0.56569 0.657 0.0
C2103 C 0.08455 0.53719 0.61093 0.0
N2104 N 0.11047 0.55593 0.73182 0.0
N2105 N 0.08923 0.53387 0.64433 0.0
H2106 H 0.47379 0.54903 0.79256 0.0
H2107 H 0.40912 0.52392 0.61629 0.0
H2108 H 0.42678 0.55614 0.79195 0.0
H2109 H 0.45218 0.51147 0.63204 0.0
H2110 H 0.41646 0.5389 0.67691 0.0
H2111 H 0.46743 0.53867 0.72988 0.0
C2112 C 0.46223 0.54866 0.77915 0.0
C2113 C 0.45089 0.55359 0.79784 0.0
C2114 C 0.42431 0.53295 0.66671 0.0
C2115 C 0.44313 0.54115 0.72534 0.0
C2116 C 0.42019 0.5245 0.63211 0.0
C2117 C 0.42997 0.51631 0.61898 0.0
C2118 C 0.43842 0.53333 0.68779 0.0
C2119 C 0.44413 0.51742 0.64079 0.0
C2120 C 0.45847 0.54255 0.74322 0.0
C2121 C 0.43581 0.55232 0.77884 0.0
N2122 N 0.44785 0.52566 0.67378 0.0
N2123 N 0.43233 0.54617 0.74366 0.0
H2124 H 0.4083 0.87813 0.77699 0.0
H2125 H 0.50014 0.92774 0.65914 0.0
H2126 H 0.46152 0.91648 0.81896 0.0
H2127 H 0.44804 0.89194 0.60948 0.0
H2128 H 0.48578 0.92103 0.71855 0.0
H2129 H 0.422 0.88049 0.7165 0.0
C2130 C 0.42285 0.88695 0.77357 0.0
C2131 C 0.43373 0.8973 0.80307 0.0
C2132 C 0.47738 0.91447 0.69488 0.0
C2133 C 0.44945 0.90001 0.73413 0.0
C2134 C 0.48562 0.91829 0.66075 0.0
C2135 C 0.47527 0.91049 0.62911 0.0
C2136 C 0.4585 0.90279 0.69789 0.0
C2137 C 0.45653 0.89821 0.63317 0.0
C2138 C 0.43063 0.88832 0.73904 0.0
C2139 C 0.45249 0.90853 0.79699 0.0
N2140 N 0.44867 0.89485 0.66698 0.0
N2141 N 0.45967 0.90958 0.76339 0.0
H2142 H 0.50336 0.06937 0.91289 0.0
H2143 H 0.57034 0.1071 0.08474 0.0
H2144 H 0.55415 0.12028 0.90493 0.0
H2145 H 0.53552 0.05023 0.05806 0.0
H2146 H 0.56158 0.11516 0.02604 0.0
H2147 H 0.51154 0.06539 0.97446 0.0
C2148 C 0.51627 0.07974 0.924 0.0
C2149 C 0.52825 0.09498 0.90312 0.0
C2150 C 0.55589 0.10096 0.03345 0.0
C2151 C 0.53757 0.09061 0.97446 0.0
C2152 C 0.56082 0.09637 0.06688 0.0
C2153 C 0.55369 0.07796 0.07651 0.0
C2154 C 0.54344 0.08703 1.01027 0.0
C2155 C 0.54146 0.06461 0.05215 0.0
C2156 C 0.52088 0.07749 0.95933 0.0
C2157 C 0.54449 0.10827 0.91986 0.0
N2158 N 0.5367 0.0694 1.02055 0.0
N2159 N 0.54877 0.10572 0.95449 0.0
H2160 H 0.88946 0.42206 0.90762 0.0
H2161 H 0.92889 0.51091 0.03129 0.0
H2162 H 0.90468 0.47536 0.86542 0.0
H2163 H 0.89641 0.45729 0.07764 0.0
H2164 H 0.92121 0.49775 0.97033 0.0
H2165 H 0.89314 0.43415 0.97 0.0
C2166 C 0.89355 0.43628 0.91146 0.0
C2167 C 0.89676 0.4477 0.88118 0.0
C2168 C 0.91553 0.48882 0.9937 0.0
C2169 C 0.90103 0.4616 0.95238 0.0
C2170 C 0.91992 0.49633 0.02857 0.0
C2171 C 0.91321 0.48518 0.05958 0.0
C2172 C 0.90459 0.46987 0.9895 0.0
C2173 C 0.90168 0.46638 0.05441 0.0
C2174 C 0.89551 0.44312 0.94704 0.0
C2175 C 0.90189 0.46598 0.88783 0.0
N2176 N 0.89791 0.45925 1.01997 0.0
N2177 N 0.904 0.47236 0.92257 0.0
H2178 H 0.49434 0.40404 0.05097 0.0
H2179 H 0.57209 0.47736 0.92212 0.0
H2180 H 0.54245 0.45086 0.09274 0.0
H2181 H 0.53041 0.42459 0.88404 0.0
H2182 H 0.56209 0.4676 0.98495 0.0
H2183 H 0.50816 0.41042 0.99008 0.0
C2184 C 0.5081 0.41531 0.04741 0.0
C2185 C 0.5175 0.4267 0.07684 0.0
C2186 C 0.55525 0.45809 0.96288 0.0
C2187 C 0.53307 0.43468 1.00712 0.0
C2188 C 0.56086 0.46371 0.92697 0.0
C2189 C 0.55204 0.45181 0.89768 0.0
C2190 C 0.54053 0.44052 0.96963 0.0
C2191 C 0.53772 0.43419 0.9057 0.0
C2192 C 0.51592 0.41908 1.01265 0.0
C2193 C 0.535 0.44153 0.07077 0.0
N2194 N 0.53232 0.42915 0.94081 0.0
N2195 N 0.54215 0.44524 0.03647 0.0
H2196 H 0.87632 0.46012 0.40245 0.0
H2197 H 0.91692 0.41247 0.53059 0.0
H2198 H 0.91005 0.43843 0.36577 0.0
H2199 H 0.88861 0.43867 0.57414 0.0
H2200 H 0.90962 0.41753 0.46907 0.0
H2201 H 0.8765 0.44886 0.46424 0.0
C2202 C 0.88363 0.45287 0.40731 0.0
C2203 C 0.89336 0.45039 0.37894 0.0
C2204 C 0.90466 0.42193 0.49192 0.0
C2205 C 0.89354 0.43742 0.44938 0.0
C2206 C 0.90868 0.41886 0.5271 0.0
C2207 C 0.90325 0.42506 0.5574 0.0
C2208 C 0.89532 0.43154 0.48672 0.0
C2209 C 0.89281 0.43346 0.55142 0.0
C2210 C 0.88376 0.4465 0.44257 0.0
C2211 C 0.90265 0.44097 0.38685 0.0
N2212 N 0.88938 0.43671 0.51663 0.0
N2213 N 0.90253 0.43491 0.4212 0.0
H2214 H 0.52203 0.47304 0.56795 0.0
H2215 H 0.54916 0.4249 0.41219 0.0
H2216 H 0.56627 0.46223 0.58246 0.0
H2217 H 0.50624 0.43812 0.40449 0.0
H2218 H 0.5549 0.43628 0.47527 0.0
H2219 H 0.51496 0.45755 0.50995 0.0
C2220 C 0.53022 0.46723 0.55908 0.0
C2221 C 0.54486 0.46906 0.58021 0.0
C2222 C 0.54414 0.43651 0.45976 0.0
C2223 C 0.5369 0.45129 0.51247 0.0
C2224 C 0.5409 0.43012 0.42366 0.0
C2225 C 0.52713 0.43047 0.40275 0.0
C2226 C 0.53355 0.44333 0.47506 0.0
C2227 C 0.51676 0.4372 0.41942 0.0
C2228 C 0.52616 0.45836 0.52565 0.0
C2229 C 0.55485 0.4611 0.56708 0.0
N2230 N 0.52024 0.44337 0.4543 0.0
N2231 N 0.55081 0.4527 0.53374 0.0
H2232 H 0.56385 0.07789 0.41585 0.0
H2233 H 0.51654 0.10546 0.57402 0.0
H2234 H 0.5434 0.11475 0.3974 0.0
H2235 H 0.53181 0.06413 0.58311 0.0
H2236 H 0.5305 0.11313 0.51267 0.0
H2237 H 0.55607 0.07644 0.48017 0.0
C2238 C 0.55768 0.08567 0.4253 0.0
C2239 C 0.55406 0.09625 0.40092 0.0
C2240 C 0.53107 0.10262 0.52848 0.0
C2241 C 0.54517 0.09479 0.47519 0.0
C2242 C 0.5233 0.09841 0.56358 0.0
C2243 C 0.52309 0.08419 0.58362 0.0
C2244 C 0.53872 0.09259 0.51373 0.0
C2245 C 0.53169 0.0752 0.56859 0.0
C2246 C 0.55332 0.08494 0.4622 0.0
C2247 C 0.54646 0.10642 0.41516 0.0
N2248 N 0.53901 0.07946 0.53466 0.0
N2249 N 0.54211 0.10531 0.45128 0.0
H2250 H 0.47715 0.92313 0.29338 0.0
H2251 H 0.40835 0.8877 0.1231 0.0
H2252 H 0.42567 0.87276 0.29784 0.0
H2253 H 0.46142 0.93611 0.12481 0.0
H2254 H 0.41446 0.87995 0.18468 0.0
H2255 H 0.4717 0.9263 0.22962 0.0
C2256 C 0.46476 0.91255 0.28093 0.0
C2257 C 0.45193 0.89759 0.30138 0.0
C2258 C 0.42482 0.89212 0.17118 0.0
C2259 C 0.44529 0.9014 0.22751 0.0
C2260 C 0.42139 0.89643 0.13597 0.0
C2261 C 0.43436 0.91259 0.11878 0.0
C2262 C 0.44134 0.90405 0.18895 0.0
C2263 C 0.45094 0.92356 0.13692 0.0
C2264 C 0.46156 0.91445 0.24431 0.0
C2265 C 0.4359 0.88465 0.28345 0.0
N2266 N 0.45386 0.91915 0.1708 0.0
N2267 N 0.43299 0.88688 0.24762 0.0
H2268 H 0.05943 0.53039 0.10694 0.0
H2269 H 0.12311 0.5497 0.28031 0.0
H2270 H 0.10541 0.52171 0.10401 0.0
H2271 H 0.08167 0.56492 0.27095 0.0
H2272 H 0.11842 0.54069 0.21577 0.0
H2273 H 0.0692 0.5448 0.16594 0.0
C2274 C 0.07183 0.53179 0.11847 0.0
C2275 C 0.08165 0.52487 0.10033 0.0
C2276 C 0.11055 0.54622 0.22783 0.0
C2277 C 0.09276 0.54106 0.16923 0.0
C2278 C 0.11311 0.55125 0.26474 0.0
C2279 C 0.10273 0.55805 0.28133 0.0
C2280 C 0.09742 0.54787 0.20741 0.0
C2281 C 0.09018 0.55999 0.25952 0.0
C2282 C 0.07738 0.54 0.15245 0.0
C2283 C 0.09753 0.527 0.11696 0.0
N2284 N 0.08782 0.55482 0.22397 0.0
N2285 N 0.10248 0.5347 0.15084 0.0
H2286 H 0.4549 0.5685 0.11387 0.0
H2287 H 0.43651 0.50893 0.29609 0.0
H2288 H 0.47667 0.53309 0.13672 0.0
H2289 H 0.41963 0.54912 0.28599 0.0
H2290 H 0.44836 0.51581 0.23429 0.0
H2291 H 0.43913 0.55995 0.17345 0.0
C2292 C 0.45624 0.55886 0.13113 0.0
C2293 C 0.46726 0.55165 0.12031 0.0
C2294 C 0.44201 0.52312 0.24538 0.0
C2295 C 0.44933 0.54181 0.1881 0.0
C2296 C 0.43506 0.51907 0.28075 0.0
C2297 C 0.42695 0.52838 0.29648 0.0
C2298 C 0.44096 0.53668 0.22514 0.0
C2299 C 0.42592 0.5417 0.27519 0.0
C2300 C 0.44732 0.55405 0.16515 0.0
C2301 C 0.46853 0.53922 0.14385 0.0
N2302 N 0.43287 0.54548 0.24064 0.0
N2303 N 0.45976 0.53477 0.17638 0.0
H2304 H 0.76185 0.89543 0.93041 0.0
H2305 H 0.73105 0.88523 0.14074 0.0
H2306 H 0.71565 0.89843 0.9709 0.0
H2307 H 0.77824 0.88223 0.10685 0.0
H2308 H 0.72645 0.89131 0.07798 0.0
H2309 H 0.76976 0.89242 0.99402 0.0
C2310 C 0.75355 0.89571 0.95258 0.0
C2311 C 0.73796 0.89699 0.94525 0.0
C2312 C 0.73787 0.88937 0.08408 0.0
C2313 C 0.74676 0.89341 1.01771 0.0
C2314 C 0.74043 0.88574 0.12007 0.0
C2315 C 0.75496 0.883 0.12931 0.0
C2316 C 0.74989 0.89029 0.05658 0.0
C2317 C 0.76689 0.88433 0.10114 0.0
C2318 C 0.75797 0.89386 0.98882 0.0
C2319 C 0.72761 0.89715 0.97505 0.0
N2320 N 0.76404 0.88777 0.06606 0.0
N2321 N 0.73212 0.8953 1.00965 0.0
H2322 H 0.10055 0.86855 0.93722 0.0
H2323 H 0.08488 0.85132 0.15301 0.0
H2324 H 0.07384 0.81552 0.98784 0.0
H2325 H 0.12671 0.90244 0.10855 0.0
H2326 H 0.07613 0.83945 0.09116 0.0
H2327 H 0.10558 0.88259 0.99835 0.0
C2328 C 0.0953 0.8599 0.96109 0.0
C2329 C 0.08663 0.84087 0.95761 0.0
C2330 C 0.08716 0.85331 0.09485 0.0
C2331 C 0.09246 0.85669 0.02713 0.0
C2332 C 0.09211 0.86015 0.13022 0.0
C2333 C 0.10659 0.87792 0.13611 0.0
C2334 C 0.09663 0.8643 0.06482 0.0
C2335 C 0.1156 0.88859 0.10533 0.0
C2336 C 0.09836 0.86788 0.9959 0.0
C2337 C 0.08049 0.83025 0.98938 0.0
N2338 N 0.11048 0.88163 0.07101 0.0
N2339 N 0.08351 0.83827 1.02268 0.0
H2340 H 0.17275 0.2629 0.97159 0.0
H2341 H 0.08718 0.20817 0.1047 0.0
H2342 H 0.11884 0.22678 0.9304 0.0
H2343 H 0.14095 0.24924 0.13918 0.0
H2344 H 0.09836 0.212 0.04152 0.0
H2345 H 0.16136 0.255 0.03363 0.0
C2346 C 0.15847 0.25321 0.97571 0.0
C2347 C 0.1467 0.2457 0.94585 0.0
C2348 C 0.10768 0.22012 0.06299 0.0
C2349 C 0.13334 0.23646 1.01729 0.0
C2350 C 0.10134 0.2179 0.09906 0.0
C2351 C 0.1131 0.22852 0.12733 0.0
C2352 C 0.12595 0.23292 0.05521 0.0
C2353 C 0.13127 0.24099 0.11833 0.0
C2354 C 0.15193 0.24865 1.01122 0.0
C2355 C 0.12837 0.23284 0.95274 0.0
N2356 N 0.13708 0.24282 0.08323 0.0
N2357 N 0.12217 0.22874 0.98785 0.0
H2358 H 0.20952 0.44042 0.42173 0.0
H2359 H 0.22915 0.43689 0.21014 0.0
H2360 H 0.25249 0.43264 0.37894 0.0
H2361 H 0.18711 0.44711 0.24942 0.0
H2362 H 0.24056 0.43988 0.27228 0.0
H2363 H 0.20433 0.44838 0.36008 0.0
C2364 C 0.21836 0.44114 0.39965 0.0
C2365 C 0.23143 0.43586 0.4053 0.0
C2366 C 0.22893 0.44164 0.26744 0.0
C2367 C 0.22524 0.44432 0.3348 0.0
C2368 C 0.22234 0.43981 0.23191 0.0
C2369 C 0.20699 0.44149 0.22464 0.0
C2370 C 0.22003 0.44498 0.29624 0.0
C2371 C 0.19896 0.44567 0.25384 0.0
C2372 C 0.21522 0.44542 0.36437 0.0
C2373 C 0.24224 0.4366 0.37565 0.0
N2374 N 0.20541 0.44703 0.28845 0.0
N2375 N 0.23874 0.44046 0.34168 0.0
H2376 H 0.54038 0.73633 0.24512 0.0
H2377 H 0.54618 0.80911 0.39077 0.0
H2378 H 0.54323 0.78723 0.21763 0.0
H2379 H 0.55488 0.76451 0.41704 0.0
H2380 H 0.53617 0.79638 0.3295 0.0
H2381 H 0.53754 0.74205 0.30963 0.0
C2382 C 0.54011 0.74856 0.2526 0.0
C2383 C 0.5423 0.76145 0.22602 0.0
C2384 C 0.53971 0.78904 0.34899 0.0
C2385 C 0.53907 0.76807 0.29973 0.0
C2386 C 0.54513 0.79615 0.38408 0.0
C2387 C 0.551 0.78761 0.40891 0.0
C2388 C 0.54046 0.77344 0.33868 0.0
C2389 C 0.55008 0.77124 0.3987 0.0
C2390 C 0.53854 0.75184 0.28943 0.0
C2391 C 0.54194 0.77711 0.2373 0.0
N2392 N 0.54517 0.76479 0.36414 0.0
N2393 N 0.54052 0.78004 0.27329 0.0
H2394 H 0.19154 0.7469 0.41535 0.0
H2395 H 0.2299 0.8211 0.25405 0.0
H2396 H 0.1899 0.79696 0.41387 0.0
H2397 H 0.22037 0.76645 0.23931 0.0
H2398 H 0.22029 0.81388 0.31737 0.0
H2399 H 0.20713 0.75526 0.35553 0.0
C2400 C 0.1948 0.75978 0.40289 0.0
C2401 C 0.18941 0.77124 0.41956 0.0
C2402 C 0.22034 0.80344 0.30041 0.0
C2403 C 0.20705 0.78082 0.35163 0.0
C2404 C 0.22576 0.80754 0.26409 0.0
C2405 C 0.22568 0.79429 0.24099 0.0
C2406 C 0.21475 0.78591 0.31412 0.0
C2407 C 0.22066 0.77711 0.25607 0.0
C2408 C 0.20354 0.76447 0.3687 0.0
C2409 C 0.19374 0.78767 0.40205 0.0
N2410 N 0.21523 0.77335 0.2916 0.0
N2411 N 0.20221 0.79191 0.3692 0.0
H2412 H 0.60825 0.79231 0.89709 0.0
H2413 H 0.5357 0.75532 0.73568 0.0
H2414 H 0.55345 0.74813 0.91457 0.0
H2415 H 0.58496 0.80782 0.73544 0.0
H2416 H 0.54141 0.75139 0.79984 0.0
H2417 H 0.59975 0.79692 0.83667 0.0
C2418 C 0.59435 0.78354 0.88828 0.0
C2419 C 0.58159 0.76972 0.91108 0.0
C2420 C 0.55087 0.76379 0.7857 0.0
C2421 C 0.57165 0.77496 0.84095 0.0
C2422 C 0.54761 0.7661 0.74907 0.0
C2423 C 0.55998 0.78186 0.72971 0.0
C2424 C 0.56668 0.77727 0.80307 0.0
C2425 C 0.57525 0.79524 0.74866 0.0
C2426 C 0.58946 0.78626 0.85361 0.0
C2427 C 0.56372 0.75897 0.89796 0.0
N2428 N 0.57819 0.79257 0.78398 0.0
N2429 N 0.55929 0.76169 0.86354 0.0
H2430 H 0.18525 0.74831 0.76351 0.0
H2431 H 0.2511 0.83298 0.88725 0.0
H2432 H 0.23437 0.79467 0.72294 0.0
H2433 H 0.21137 0.78144 0.93321 0.0
H2434 H 0.24582 0.8187 0.82709 0.0
H2435 H 0.19456 0.75972 0.82587 0.0
C2436 C 0.19801 0.76085 0.76771 0.0
C2437 C 0.20901 0.77056 0.73787 0.0
C2438 C 0.23852 0.81035 0.85036 0.0
C2439 C 0.21977 0.78369 0.80918 0.0
C2440 C 0.24166 0.81848 0.88471 0.0
C2441 C 0.23194 0.80823 0.91514 0.0
C2442 C 0.22514 0.79192 0.8462 0.0
C2443 C 0.21943 0.78964 0.91042 0.0
C2444 C 0.20338 0.76728 0.80333 0.0
C2445 C 0.22552 0.78663 0.74503 0.0
N2446 N 0.21618 0.7821 0.87644 0.0
N2447 N 0.23029 0.79275 0.77983 0.0
H2448 H 0.19128 0.39655 0.7222 0.0
H2449 H 0.18225 0.43539 0.91641 0.0
H2450 H 0.21631 0.45435 0.74254 0.0
H2451 H 0.16461 0.37909 0.89236 0.0
H2452 H 0.19461 0.44348 0.85378 0.0
H2453 H 0.18083 0.39063 0.78496 0.0
C2454 C 0.19477 0.40807 0.73992 0.0
C2455 C 0.20495 0.42601 0.72684 0.0
C2456 C 0.18802 0.42938 0.86245 0.0
C2457 C 0.19259 0.41924 0.79959 0.0
C2458 C 0.18102 0.42477 0.8982 0.0
C2459 C 0.17211 0.40648 0.90973 0.0
C2460 C 0.1861 0.41558 0.83827 0.0
C2461 C 0.17099 0.39332 0.88484 0.0
C2462 C 0.18867 0.40466 0.77594 0.0
C2463 C 0.20846 0.44028 0.75123 0.0
N2464 N 0.17777 0.3981 0.8506 0.0
N2465 N 0.20232 0.4366 0.78643 0.0
H2466 H 0.06603 0.22078 0.46897 0.0
H2467 H 0.13293 0.20938 0.60569 0.0
H2468 H 0.11511 0.22195 0.43424 0.0
H2469 H 0.08775 0.21605 0.63863 0.0
H2470 H 0.12299 0.20686 0.54201 0.0
H2471 H 0.06962 0.21098 0.52965 0.0
C2472 C 0.07714 0.21818 0.47382 0.0
C2473 C 0.09014 0.22185 0.44666 0.0
C2474 C 0.11513 0.20865 0.56324 0.0
C2475 C 0.09495 0.21162 0.51639 0.0
C2476 C 0.12077 0.21005 0.59958 0.0
C2477 C 0.11129 0.21319 0.62743 0.0
C2478 C 0.09985 0.2103 0.55477 0.0
C2479 C 0.09568 0.21401 0.61795 0.0
C2480 C 0.07937 0.21286 0.50857 0.0
C2481 C 0.10463 0.21888 0.45443 0.0
N2482 N 0.09053 0.2127 0.58247 0.0
N2483 N 0.10684 0.21422 0.48884 0.0
H2484 H 0.76644 0.91759 0.60033 0.0
H2485 H 0.7657 0.84105 0.47571 0.0
H2486 H 0.77889 0.87719 0.64071 0.0
H2487 H 0.7667 0.88857 0.43093 0.0
H2488 H 0.77374 0.85578 0.53542 0.0
H2489 H 0.76865 0.90865 0.53778 0.0
C2490 C 0.76974 0.90691 0.59605 0.0
C2491 C 0.77235 0.89804 0.62589 0.0
C2492 C 0.77269 0.86324 0.51244 0.0
C2493 C 0.77495 0.88777 0.5543 0.0
C2494 C 0.76827 0.85488 0.47826 0.0
C2495 C 0.76567 0.86367 0.44836 0.0
C2496 C 0.77404 0.88034 0.51705 0.0
C2497 C 0.76883 0.88145 0.45322 0.0
C2498 C 0.77115 0.90192 0.56032 0.0
C2499 C 0.77686 0.88449 0.61864 0.0
N2500 N 0.77246 0.88907 0.48714 0.0
N2501 N 0.77779 0.87964 0.58368 0.0
H2502 H 0.07254 0.85623 0.6111 0.0
H2503 H 0.16251 0.90437 0.48751 0.0
H2504 H 0.12728 0.87544 0.64962 0.0
H2505 H 0.10884 0.8821 0.44091 0.0
H2506 H 0.14921 0.89683 0.54803 0.0
H2507 H 0.08483 0.8679 0.54991 0.0
C2508 C 0.08712 0.86297 0.60679 0.0
C2509 C 0.09887 0.86467 0.63558 0.0
C2510 C 0.14023 0.8937 0.52481 0.0
C2511 C 0.11298 0.8781 0.56573 0.0
C2512 C 0.14785 0.89812 0.49011 0.0
C2513 C 0.13676 0.89384 0.45906 0.0
C2514 C 0.12123 0.8847 0.52893 0.0
C2515 C 0.11787 0.88576 0.46417 0.0
C2516 C 0.0941 0.86958 0.57183 0.0
C2517 C 0.11763 0.87346 0.62827 0.0
N2518 N 0.11064 0.88124 0.49852 0.0
N2519 N 0.12403 0.87978 0.59426 0.0
H2520 H 0.39334 0.17615 0.45581 0.0
H2521 H 0.43272 0.24305 0.28274 0.0
H2522 H 0.44751 0.22315 0.45614 0.0
H2523 H 0.37987 0.19451 0.29019 0.0
H2524 H 0.4402 0.23583 0.34362 0.0
H2525 H 0.38981 0.18243 0.39284 0.0
C2526 C 0.40465 0.18769 0.44257 0.0
C2527 C 0.42081 0.19902 0.46163 0.0
C2528 C 0.42707 0.22671 0.33151 0.0
C2529 C 0.41664 0.20669 0.38866 0.0
C2530 C 0.42287 0.23076 0.29671 0.0
C2531 C 0.40562 0.21943 0.28129 0.0
C2532 C 0.41393 0.2112 0.35059 0.0
C2533 C 0.39331 0.20376 0.30081 0.0
C2534 C 0.40257 0.1914 0.40642 0.0
C2535 C 0.43472 0.2141 0.4428 0.0
N2536 N 0.39767 0.20023 0.33417 0.0
N2537 N 0.43231 0.21754 0.40742 0.0
H2538 H 0.81505 0.24903 0.43202 0.0
H2539 H 0.7396 0.17321 0.30235 0.0
H2540 H 0.76213 0.20791 0.47048 0.0
H2541 H 0.78821 0.21982 0.26162 0.0
H2542 H 0.74656 0.18673 0.36357 0.0
H2543 H 0.80502 0.23929 0.36926 0.0
C2544 C 0.80131 0.23796 0.42729 0.0
C2545 C 0.78946 0.22925 0.4567 0.0
C2546 C 0.75551 0.19425 0.34115 0.0
C2547 C 0.77781 0.21804 0.38469 0.0
C2548 C 0.7514 0.18663 0.30617 0.0
C2549 C 0.76311 0.19568 0.27692 0.0
C2550 C 0.77173 0.21085 0.34705 0.0
C2551 C 0.77863 0.21267 0.28341 0.0
C2552 C 0.79554 0.23249 0.39139 0.0
C2553 C 0.77171 0.21514 0.44875 0.0
N2554 N 0.7826 0.21962 0.31785 0.0
N2555 N 0.7665 0.2099 0.41362 0.0
H2556 H 0.77525 0.55216 0.26407 0.0
H2557 H 0.79531 0.58064 0.47501 0.0
H2558 H 0.82696 0.5926 0.30854 0.0
H2559 H 0.74178 0.54094 0.43674 0.0
H2560 H 0.80729 0.58242 0.41402 0.0
H2561 H 0.76287 0.54471 0.3268 0.0
C2562 C 0.78406 0.55912 0.28703 0.0
C2563 C 0.8021 0.57303 0.28129 0.0
C2564 C 0.79291 0.57324 0.41873 0.0
C2565 C 0.78817 0.56486 0.35241 0.0
C2566 C 0.78604 0.57233 0.45364 0.0
C2567 C 0.76746 0.56084 0.46091 0.0
C2568 C 0.78116 0.56268 0.39043 0.0
C2569 C 0.75619 0.55001 0.43226 0.0
C2570 C 0.777 0.55501 0.3227 0.0
C2571 C 0.81293 0.58186 0.31178 0.0
N2572 N 0.76318 0.55132 0.39812 0.0
N2573 N 0.80579 0.57771 0.34581 0.0
H2574 H 0.90975 0.74471 0.70585 0.0
H2575 H 0.84362 0.7635 0.58261 0.0
H2576 H 0.87286 0.7603 0.75211 0.0
H2577 H 0.89071 0.76276 0.54012 0.0
H2578 H 0.85391 0.76256 0.64477 0.0
H2579 H 0.9035 0.75219 0.64507 0.0
C2580 C 0.90077 0.7503 0.7032 0.0
C2581 C 0.89215 0.75233 0.73399 0.0
C2582 C 0.86207 0.76278 0.62183 0.0
C2583 C 0.88416 0.76009 0.66428 0.0
C2584 C 0.85613 0.76317 0.58632 0.0
C2585 C 0.86628 0.76317 0.55597 0.0
C2586 C 0.87817 0.76213 0.62714 0.0
C2587 C 0.88251 0.76295 0.56256 0.0
C2588 C 0.89705 0.75441 0.66847 0.0
C2589 C 0.88014 0.75903 0.72906 0.0
N2590 N 0.88783 0.76228 0.59729 0.0
N2591 N 0.87629 0.76243 0.69477 0.0
H2592 H 0.19531 0.09837 0.57256 0.0
H2593 H 0.26381 0.13234 0.74227 0.0
H2594 H 0.24848 0.10314 0.5738 0.0
H2595 H 0.21462 0.13559 0.74229 0.0
H2596 H 0.25544 0.1172 0.68365 0.0
H2597 H 0.19967 0.10833 0.63646 0.0
C2598 C 0.20787 0.10144 0.58613 0.0
C2599 C 0.22156 0.0999 0.56739 0.0
C2600 C 0.24631 0.12103 0.69638 0.0
C2601 C 0.22646 0.11105 0.64085 0.0
C2602 C 0.25105 0.12964 0.73014 0.0
C2603 C 0.23995 0.13535 0.74727 0.0
C2604 C 0.23037 0.11818 0.67894 0.0
C2605 C 0.22355 0.13136 0.73009 0.0
C2606 C 0.21028 0.10703 0.62272 0.0
C2607 C 0.23737 0.10378 0.58688 0.0
N2608 N 0.21933 0.1232 0.69654 0.0
N2609 N 0.23936 0.10919 0.62227 0.0
H2610 H 0.81549 0.07684 0.70516 0.0
H2611 H 0.90262 0.13533 0.58075 0.0
H2612 H 0.86942 0.10688 0.75083 0.0
H2613 H 0.85121 0.09293 0.53871 0.0
H2614 H 0.89117 0.12564 0.64307 0.0
H2615 H 0.82865 0.08243 0.64401 0.0
C2616 C 0.83018 0.0842 0.70223 0.0
C2617 C 0.84142 0.09109 0.73301 0.0
C2618 C 0.88248 0.11836 0.62017 0.0
C2619 C 0.85666 0.09828 0.66287 0.0
C2620 C 0.88895 0.12398 0.58458 0.0
C2621 C 0.87786 0.11497 0.55432 0.0
C2622 C 0.8647 0.10378 0.62562 0.0
C2623 C 0.86033 0.1002 0.56106 0.0
C2624 C 0.83771 0.08752 0.6673 0.0
C2625 C 0.86035 0.10098 0.72776 0.0
N2626 N 0.85427 0.0952 0.59584 0.0
N2627 N 0.8674 0.10451 0.69326 0.0
H2628 H 0.2413 0.11221 0.0448 0.0
H2629 H 0.21641 0.10445 0.25801 0.0
H2630 H 0.20527 0.12991 0.08752 0.0
H2631 H 0.25693 0.09427 0.20998 0.0
H2632 H 0.20859 0.11017 0.19618 0.0
H2633 H 0.24374 0.10199 0.10536 0.0
C2634 C 0.23394 0.11404 0.06704 0.0
C2635 C 0.22333 0.12225 0.06109 0.0
C2636 C 0.21904 0.10648 0.19934 0.0
C2637 C 0.22594 0.11036 0.13117 0.0
C2638 C 0.22339 0.1031 0.2345 0.0
C2639 C 0.2374 0.09901 0.23906 0.0
C2640 C 0.22868 0.10553 0.16886 0.0
C2641 C 0.24616 0.09758 0.2078 0.0
C2642 C 0.23525 0.10809 0.10172 0.0
C2643 C 0.21366 0.12371 0.09091 0.0
N2644 N 0.24171 0.10088 0.17429 0.0
N2645 N 0.21533 0.11798 0.1248 0.0
H2646 H 0.88242 0.1169 0.25236 0.0
H2647 H 0.87781 0.1338 0.03775 0.0
H2648 H 0.89755 0.16856 0.20171 0.0
H2649 H 0.85663 0.07972 0.08209 0.0
H2650 H 0.88775 0.14646 0.09833 0.0
H2651 H 0.87563 0.10269 0.1911 0.0
C2652 C 0.88455 0.12526 0.22846 0.0
C2653 C 0.89041 0.1439 0.2322 0.0
C2654 C 0.88094 0.1318 0.09507 0.0
C2655 C 0.88271 0.12788 0.16255 0.0
C2656 C 0.87514 0.12454 0.06033 0.0
C2657 C 0.86607 0.10562 0.05476 0.0
C2658 C 0.87769 0.12016 0.12497 0.0
C2659 C 0.86353 0.09439 0.08512 0.0
C2660 C 0.88058 0.11716 0.1936 0.0
C2661 C 0.89285 0.1541 0.20035 0.0
N2662 N 0.86918 0.10181 0.11902 0.0
N2663 N 0.88895 0.14598 0.16717 0.0
H2664 H 0.88632 0.73421 0.07087 0.0
H2665 H 0.85123 0.76936 0.23907 0.0
H2666 H 0.88125 0.78232 0.06284 0.0
H2667 H 0.84495 0.71575 0.22911 0.0
H2668 H 0.86707 0.77748 0.17944 0.0
H2669 H 0.87611 0.73045 0.13393 0.0
C2670 C 0.88302 0.744 0.08233 0.0
C2671 C 0.88436 0.75842 0.06114 0.0
C2672 C 0.86236 0.76403 0.19071 0.0
C2673 C 0.87274 0.75428 0.13407 0.0
C2674 C 0.85346 0.75946 0.22476 0.0
C2675 C 0.84671 0.74185 0.23906 0.0
C2676 C 0.8647 0.75096 0.17139 0.0
C2677 C 0.84981 0.72947 0.21922 0.0
C2678 C 0.87726 0.74189 0.11852 0.0
C2679 C 0.88041 0.77097 0.07808 0.0
N2680 N 0.85849 0.73424 0.18662 0.0
N2681 N 0.87462 0.76854 0.11347 0.0
H2682 H 0.75908 0.53587 0.95069 0.0
H2683 H 0.78906 0.60645 0.78686 0.0
H2684 H 0.81102 0.58557 0.944 0.0
H2685 H 0.74408 0.55152 0.77539 0.0
H2686 H 0.79694 0.59822 0.84449 0.0
H2687 H 0.75305 0.5402 0.88693 0.0
C2688 C 0.76932 0.54754 0.93574 0.0
C2689 C 0.78548 0.56053 0.95302 0.0
C2690 C 0.78545 0.58782 0.8294 0.0
C2691 C 0.77856 0.56562 0.88028 0.0
C2692 C 0.78089 0.59253 0.79635 0.0
C2693 C 0.76583 0.57966 0.77623 0.0
C2694 C 0.77472 0.57011 0.84322 0.0
C2695 C 0.75583 0.56183 0.79001 0.0
C2696 C 0.76583 0.55002 0.89938 0.0
C2697 C 0.79818 0.57543 0.93226 0.0
N2698 N 0.7603 0.55762 0.82302 0.0
N2699 N 0.79437 0.57762 0.89728 0.0
H2700 H 0.39619 0.15241 0.81925 0.0
H2701 H 0.44018 0.24385 0.93892 0.0
H2702 H 0.42657 0.20561 0.77 0.0
H2703 H 0.40458 0.18963 0.98008 0.0
H2704 H 0.43877 0.23081 0.87815 0.0
H2705 H 0.40314 0.1664 0.87926 0.0
C2706 C 0.40466 0.1671 0.82114 0.0
C2707 C 0.41081 0.17786 0.78952 0.0
C2708 C 0.43134 0.22181 0.90056 0.0
C2709 C 0.41853 0.19418 0.85877 0.0
C2710 C 0.43216 0.22922 0.93528 0.0
C2711 C 0.42231 0.21785 0.96469 0.0
C2712 C 0.42074 0.20287 0.89532 0.0
C2713 C 0.41212 0.199 0.95824 0.0
C2714 C 0.40854 0.17512 0.85554 0.0
C2715 C 0.42171 0.19682 0.79371 0.0
N2716 N 0.4116 0.19218 0.92444 0.0
N2717 N 0.42505 0.20444 0.82777 0.0
H2718 H 0.80545 0.19766 0.78201 0.0
H2719 H 0.7726 0.23366 0.94995 0.0
H2720 H 0.80427 0.2479 0.77546 0.0
H2721 H 0.76567 0.17971 0.9421 0.0
H2722 H 0.78295 0.23928 0.88616 0.0
H2723 H 0.78974 0.19097 0.83998 0.0
C2724 C 0.80166 0.20723 0.79261 0.0
C2725 C 0.80621 0.22339 0.77375 0.0
C2726 C 0.77901 0.22618 0.89838 0.0
C2727 C 0.78834 0.21592 0.84134 0.0
C2728 C 0.77304 0.22292 0.93478 0.0
C2729 C 0.76847 0.20625 0.95173 0.0
C2730 C 0.78043 0.21268 0.87882 0.0
C2731 C 0.76944 0.19292 0.93066 0.0
C2732 C 0.79266 0.20339 0.82593 0.0
C2733 C 0.80092 0.23524 0.78901 0.0
N2734 N 0.7754 0.19648 0.8956 0.0
N2735 N 0.79245 0.23139 0.82227 0.0
H2736 H 0.96819 0.44143 0.22979 0.0
H2737 H 0.01447 0.4722 0.42778 0.0
H2738 H 0.02606 0.47567 0.24664 0.0
H2739 H 0.95714 0.43462 0.41147 0.0
H2740 H 0.0187 0.47474 0.36163 0.0
H2741 H 0.96365 0.4401 0.2959 0.0
C2742 C 0.97996 0.44878 0.24726 0.0
C2743 C -0.00243 0.45866 0.23224 0.0
C2744 C 0.00518 0.46596 0.37249 0.0
C2745 C 0.99242 0.45703 0.30856 0.0
C2746 C 0.00275 0.46441 0.41041 0.0
C2747 C 0.98542 0.45304 0.42563 0.0
C2748 C 0.9902 0.45613 0.34921 0.0
C2749 C 0.97074 0.44369 0.40131 0.0
C2750 C 0.97735 0.44792 0.28515 0.0
C2751 C 0.01226 0.46765 0.25668 0.0
N2752 N 0.97347 0.44539 0.3645 0.0
N2753 N 0.00935 0.46662 0.29343 0.0
H2754 H 0.5692 0.55174 0.43447 0.0
H2755 H 0.50687 0.53763 0.25993 0.0
H2756 H 0.5105 0.52271 0.43975 0.0
H2757 H 0.56375 0.55334 0.25325 0.0
H2758 H 0.50777 0.53315 0.32572 0.0
H2759 H 0.56744 0.55397 0.36826 0.0
C2760 C 0.55592 0.54586 0.42169 0.0
C2761 C 0.53998 0.53709 0.44277 0.0
C2762 C 0.52002 0.53752 0.30977 0.0
C2763 C 0.53784 0.53959 0.36668 0.0
C2764 C 0.51952 0.54 0.27207 0.0
C2765 C 0.5353 0.54603 0.25067 0.0
C2766 C 0.53645 0.54122 0.32644 0.0
C2767 C 0.55132 0.5491 0.26843 0.0
C2768 C 0.55492 0.54705 0.38382 0.0
C2769 C 0.52314 0.5295 0.42457 0.0
N2770 N 0.55149 0.54677 0.30513 0.0
N2771 N 0.52251 0.53104 0.38763 0.0
H2772 H 0.48434 0.00157 0.25387 0.0
H2773 H 0.43536 0.00234 0.43988 0.0
H2774 H 0.42643 0.98036 0.26261 0.0
H2775 H 0.48769 0.00539 0.43827 0.0
H2776 H 0.43305 -0.00248 0.37378 0.0
H2777 H 0.48702 0.00614 0.32029 0.0
C2778 C 0.4722 -0.00211 0.26976 0.0
C2779 C 0.45512 0.99052 0.25265 0.0
C2780 C 0.44504 -0.00078 0.38786 0.0
C2781 C 0.45812 -0.00413 0.32857 0.0
C2782 C 0.44642 0.0021 0.42558 0.0
C2783 C 0.46175 0.0043 0.4447 0.0
C2784 C 0.45921 -0.00121 0.36882 0.0
C2785 C 0.47557 0.00363 0.4247 0.0
C2786 C 0.47373 0.00043 0.30765 0.0
C2787 C 0.43983 0.9859 0.27465 0.0
N2788 N 0.47403 0.00105 0.38787 0.0
N2789 N 0.44171 0.98876 0.31133 0.0
H2790 H 0.96188 0.52603 0.92234 0.0
H2791 H 0.03471 0.55503 0.76059 0.0
H2792 H 0.01985 0.56023 0.93884 0.0
H2793 H 0.97773 0.53641 0.7419 0.0
H2794 H 0.02929 0.55389 0.82623 0.0
H2795 H 0.96723 0.52653 0.85673 0.0
C2796 C 0.97574 0.53374 0.91239 0.0
C2797 C 0.99039 0.54322 0.9367 0.0
C2798 C 0.01798 0.55004 0.80772 0.0
C2799 C -0.00338 0.54344 0.861 0.0
C2800 C 0.02107 0.5508 0.77004 0.0
C2801 C 0.00672 0.54592 0.74508 0.0
C2802 C 0.00035 0.54417 0.82097 0.0
C2803 C 0.98926 0.54008 0.75965 0.0
C2804 C 0.97877 0.53391 0.87476 0.0
C2805 C 0.00806 0.5525 0.92166 0.0
N2806 N 0.98659 0.53935 0.79644 0.0
N2807 N 0.01065 0.55235 0.88497 0.0
H2808 H 0.44935 0.47981 0.75857 0.0
H2809 H 0.44726 0.4193 0.92745 0.0
H2810 H 0.44804 0.42844 0.74626 0.0
H2811 H 0.46734 0.477 0.93737 0.0
H2812 H 0.44501 0.42177 0.86133 0.0
H2813 H 0.45407 0.4787 0.82418 0.0
C2814 C 0.4502 0.46836 0.76939 0.0
C2815 C 0.4481 0.45411 0.74641 0.0
C2816 C 0.44997 0.43392 0.87791 0.0
C2817 C 0.45311 0.45261 0.82206 0.0
C2818 C 0.45116 0.43249 0.9157 0.0
C2819 C 0.45746 0.44796 0.93803 0.0
C2820 C 0.45485 0.45089 0.86216 0.0
C2821 C 0.46252 0.46475 0.92118 0.0
C2822 C 0.4528 0.46771 0.80701 0.0
C2823 C 0.44908 0.43955 0.76262 0.0
N2824 N 0.46097 0.46575 0.88432 0.0
N2825 N 0.45136 0.43912 0.79929 0.0
H2826 H 0.51973 0.98721 0.9455 0.0
H2827 H 0.57119 0.01052 0.75287 0.0
H2828 H 0.57814 0.01867 0.934 0.0
H2829 H 0.5167 0.96498 0.76697 0.0
H2830 H 0.57267 0.01652 0.81814 0.0
H2831 H 0.51709 0.98189 0.8792 0.0
C2832 C 0.53198 0.9931 0.92902 0.0
C2833 C 0.5492 0.00333 0.9454 0.0
C2834 C 0.56038 0.00521 0.80696 0.0
C2835 C 0.54626 -0.00261 0.86956 0.0
C2836 C 0.55954 0.00166 0.76956 0.0
C2837 C 0.54388 0.987 0.75398 0.0
C2838 C 0.54539 0.99423 0.82935 0.0
C2839 C 0.52904 0.9765 0.77736 0.0
C2840 C 0.53046 0.98997 0.89125 0.0
C2841 C 0.56461 0.01053 0.92268 0.0
N2842 N 0.53017 0.9803 0.81377 0.0
N2843 N 0.56277 0.00748 0.88606 0.0
H2844 H 0.66768 0.762 0.788 0.0
H2845 H 0.67737 0.81984 0.60714 0.0
H2846 H 0.66071 0.80911 0.78829 0.0
H2847 H 0.68867 0.77554 0.61153 0.0
H2848 H 0.67028 0.8158 0.67259 0.0
H2849 H 0.67454 0.76649 0.72299 0.0
C2850 C 0.66773 0.77342 0.77456 0.0
C2851 C 0.66375 0.78529 0.79412 0.0
C2852 C 0.67434 0.80699 0.65923 0.0
C2853 C 0.67141 0.79038 0.71874 0.0
C2854 C 0.67833 0.80924 0.62176 0.0
C2855 C 0.68374 0.79808 0.60359 0.0
C2856 C 0.67561 0.79337 0.6788 0.0
C2857 C 0.68486 0.78468 0.62427 0.0
C2858 C 0.67156 0.77591 0.7372 0.0
C2859 C 0.66358 0.79952 0.77455 0.0
N2860 N 0.68081 0.7827 0.66053 0.0
N2861 N 0.66738 0.80168 0.73808 0.0
H2862 H 0.23765 0.88022 0.76419 0.0
H2863 H 0.17457 0.87469 0.5965 0.0
H2864 H 0.17957 0.85743 0.77461 0.0
H2865 H 0.22911 0.88364 0.58381 0.0
H2866 H 0.17619 0.86958 0.66181 0.0
H2867 H 0.23502 0.8833 0.69845 0.0
C2868 C 0.22434 0.8759 0.75267 0.0
C2869 C 0.20883 0.8686 0.77509 0.0
C2870 C 0.18777 0.87262 0.64466 0.0
C2871 C 0.20568 0.87209 0.69949 0.0
C2872 C 0.18684 0.87545 0.6072 0.0
C2873 C 0.20178 0.87977 0.58423 0.0
C2874 C 0.2038 0.87423 0.65953 0.0
C2875 C 0.21737 0.8808 0.60023 0.0
C2876 C 0.22282 0.87756 0.71504 0.0
C2877 C 0.19188 0.86301 0.75841 0.0
N2878 N 0.21799 0.87817 0.63672 0.0
N2879 N 0.19078 0.86498 0.72171 0.0
H2880 H 0.08471 0.30025 0.7924 0.0
H2881 H 0.13577 0.32899 0.59891 0.0
H2882 H 0.13677 0.34917 0.77748 0.0
H2883 H 0.07887 0.28901 0.61146 0.0
H2884 H 0.13773 0.33467 0.66491 0.0
H2885 H 0.08364 0.29427 0.72712 0.0
C2886 C 0.0959 0.30986 0.77555 0.0
C2887 C 0.11077 0.3254 0.79098 0.0
C2888 C 0.12482 0.32465 0.6532 0.0
C2889 C 0.10977 0.31827 0.71546 0.0
C2890 C 0.12371 0.32131 0.6155 0.0
C2891 C 0.1071 0.30852 0.59936 0.0
C2892 C 0.10927 0.315 0.6752 0.0
C2893 C 0.09191 0.29915 0.62242 0.0
C2894 C 0.09531 0.30633 0.73811 0.0
C2895 C 0.12506 0.33693 0.76731 0.0
N2896 N 0.09338 0.30253 0.65899 0.0
N2897 N 0.12419 0.33314 0.7309 0.0
H2898 H 0.62454 0.85409 0.05689 0.0
H2899 H 0.66373 0.85398 0.25552 0.0
H2900 H 0.68178 0.87463 0.0769 0.0
H2901 H 0.6131 0.85338 0.23815 0.0
H2902 H 0.66924 0.85718 0.18945 0.0
H2903 H 0.61891 0.84958 0.1224 0.0
C2904 C 0.63599 0.85779 0.07487 0.0
C2905 C 0.65375 0.86502 0.06085 0.0
C2906 C 0.65693 0.85634 0.20013 0.0
C2907 C 0.64718 0.85933 0.13647 0.0
C2908 C 0.65371 0.8544 0.23782 0.0
C2909 C 0.63794 0.85346 0.25253 0.0
C2910 C 0.64415 0.85706 0.17674 0.0
C2911 C 0.62553 0.85425 0.22816 0.0
C2912 C 0.6327 0.85507 0.11241 0.0
C2913 C 0.66783 0.86888 0.08597 0.0
N2914 N 0.62886 0.85591 0.19158 0.0
N2915 N 0.66424 0.866 0.12241 0.0
H2916 H 0.11076 0.74549 0.27327 0.0
H2917 H 0.10762 0.8056 0.1068 0.0
H2918 H 0.11585 0.79842 0.28771 0.0
H2919 H 0.1076 0.75497 0.09307 0.0
H2920 H 0.11031 0.80321 0.17284 0.0
H2921 H 0.10912 0.74865 0.20737 0.0
C2922 C 0.11166 0.75785 0.2627 0.0
C2923 C 0.11348 0.7717 0.28648 0.0
C2924 C 0.10972 0.79263 0.15536 0.0
C2925 C 0.11135 0.77532 0.21036 0.0
C2926 C 0.10829 0.79403 0.11749 0.0
C2927 C 0.1073 0.78043 0.09393 0.0
C2928 C 0.11014 0.7775 0.17008 0.0
C2929 C 0.10797 0.76565 0.10987 0.0
C2930 C 0.11061 0.7596 0.22491 0.0
C2931 C 0.1142 0.78723 0.27076 0.0
N2932 N 0.10931 0.76458 0.14673 0.0
N2933 N 0.11313 0.7886 0.23385 0.0
H2934 H 0.18765 0.34673 0.06043 0.0
H2935 H 0.2186 0.32993 0.25706 0.0
H2936 H 0.21313 0.31424 0.07879 0.0
H2937 H 0.19698 0.36597 0.24089 0.0
H2938 H 0.21513 0.32307 0.19204 0.0
H2939 H 0.18957 0.35307 0.12604 0.0
C2940 C 0.19367 0.34093 0.07806 0.0
C2941 C 0.20019 0.32984 0.0636 0.0
C2942 C 0.21113 0.33249 0.20258 0.0
C2943 C 0.20228 0.33699 0.13927 0.0
C2944 C 0.21321 0.33652 0.23986 0.0
C2945 C 0.20831 0.34877 0.25477 0.0
C2946 C 0.20404 0.34068 0.1795 0.0
C2947 C 0.20091 0.35641 0.23087 0.0
C2948 C 0.19468 0.3445 0.11567 0.0
C2949 C 0.20761 0.32257 0.08832 0.0
N2950 N 0.19908 0.35232 0.1945 0.0
N2951 N 0.20847 0.32629 0.12465 0.0
H2952 H 0.30674 0.07826 0.10676 0.0
H2953 H 0.35313 0.14259 0.93319 0.0
H2954 H 0.33137 0.13676 0.11176 0.0
H2955 H 0.31397 0.08509 0.92462 0.0
H2956 H 0.34777 0.14074 0.99904 0.0
H2957 H 0.31211 0.08047 0.04078 0.0
C2958 C 0.31338 0.09159 0.09404 0.0
C2959 C 0.31859 0.10733 0.11497 0.0
C2960 C 0.34036 0.12854 0.98267 0.0
C2961 C 0.32482 0.10999 0.03913 0.0
C2962 C 0.34332 0.12958 0.94487 0.0
C2963 C 0.33405 0.11396 0.92274 0.0
C2964 C 0.32818 0.11173 0.99887 0.0
C2965 C 0.32179 0.09747 0.94018 0.0
C2966 C 0.31634 0.09283 0.05628 0.0
C2967 C 0.32697 0.12423 0.09674 0.0
N2968 N 0.3193 0.0968 0.977 0.0
N2969 N 0.3299 0.12512 0.06001 0.0
H2970 H 0.84552 0.20513 0.92274 0.0
H2971 H 0.91259 0.22056 0.0891 0.0
H2972 H 0.90028 0.21482 0.90905 0.0
H2973 H 0.85441 0.19519 0.10311 0.0
H2974 H 0.90849 0.22041 1.02306 0.0
H2975 H 0.84846 0.20277 0.9887 0.0
C2976 C 0.85811 0.20661 0.9334 0.0
C2977 C 0.87273 0.21034 0.90997 0.0
C2978 C 0.89659 0.2148 0.0405 0.0
C2979 C 0.87626 0.208 0.9858 0.0
C2980 C 0.89894 0.21499 0.07824 0.0
C2981 C 0.88383 0.20795 0.10167 0.0
C2982 C 0.87901 0.20773 0.02589 0.0
C2983 C 0.86642 0.20067 0.08601 0.0
C2984 C 0.85979 0.20535 0.97117 0.0
C2985 C 0.88877 0.21238 0.9258 0.0
N2986 N 0.86449 0.20088 0.04912 0.0
N2987 N 0.89012 0.2113 0.96258 0.0
H2988 H 0.74397 0.63482 0.9225 0.0
H2989 H 0.80832 0.6871 0.09199 0.0
H2990 H 0.80212 0.66929 0.91105 0.0
H2991 H 0.7538 0.64121 0.10287 0.0
H2992 H 0.80645 0.682 0.02595 0.0
H2993 H 0.74724 0.63849 0.98865 0.0
C2994 C 0.75744 0.6432 0.93394 0.0
C2995 C 0.77277 0.65184 0.91115 0.0
C2996 C 0.79494 0.67303 0.04289 0.0
C2997 C 0.77665 0.65613 0.98718 0.0
C2998 C 0.79601 0.67586 0.08071 0.0
C2999 C 0.78113 0.66469 0.10336 0.0
C3000 C 0.77883 0.65902 0.02742 0.0
C3001 C 0.76549 0.6505 0.08673 0.0
C3002 C 0.75932 0.64521 0.97176 0.0
C3003 C 0.78994 0.66232 0.92761 0.0
N3004 N 0.76472 0.64818 0.04993 0.0
N3005 N 0.79141 0.66431 0.9646 0.0
H3006 H 0.30193 0.19829 0.41716 0.0
H3007 H 0.34951 0.21444 0.6134 0.0
H3008 H 0.35829 0.21326 0.43144 0.0
H3009 H 0.29158 0.19146 0.5983 0.0
H3010 H 0.35321 0.21481 0.54718 0.0
H3011 H 0.29813 0.19639 0.48329 0.0
C3012 C 0.31351 0.20102 0.43403 0.0
C3013 C 0.33049 0.20593 0.41821 0.0
C3014 C 0.33968 0.20967 0.55837 0.0
C3015 C 0.32623 0.20412 0.49475 0.0
C3016 C 0.33752 0.20935 0.59634 0.0
C3017 C 0.32018 0.20294 0.61192 0.0
C3018 C 0.32444 0.20363 0.53544 0.0
C3019 C 0.30527 0.19685 0.5879 0.0
C3020 C 0.31133 0.20005 0.47199 0.0
C3021 C 0.345 0.20968 0.44204 0.0
N3022 N 0.30776 0.19738 0.55108 0.0
N3023 N 0.34255 0.20874 0.47893 0.0
H3024 H 0.80833 0.14797 0.60555 0.0
H3025 H 0.76958 0.10106 0.41189 0.0
H3026 H 0.76562 0.09203 0.59347 0.0
H3027 H 0.79553 0.15934 0.42744 0.0
H3028 H 0.77141 0.09734 0.47742 0.0
H3029 H 0.80742 0.1522 0.53932 0.0
C3030 C 0.79885 0.13656 0.58892 0.0
C3031 C 0.78698 0.11963 0.60503 0.0
C3032 C 0.77668 0.11094 0.46646 0.0
C3033 C 0.78596 0.12433 0.52939 0.0
C3034 C 0.77553 0.11311 0.42893 0.0
C3035 C 0.78223 0.13057 0.41367 0.0
C3036 C 0.78482 0.12631 0.48923 0.0
C3037 C 0.79034 0.14561 0.43754 0.0
C3038 C 0.79826 0.13901 0.55122 0.0
C3039 C 0.77488 0.10535 0.58225 0.0
N3040 N 0.79143 0.14314 0.47402 0.0
N3041 N 0.77474 0.10799 0.54565 0.0
H3042 H 0.90203 0.68632 0.58832 0.0
H3043 H 0.83977 0.63213 0.41811 0.0
H3044 H 0.8434 0.65552 0.59481 0.0
H3045 H 0.89321 0.67958 0.40516 0.0
H3046 H 0.84171 0.63789 0.48361 0.0
H3047 H 0.89999 0.68123 0.52213 0.0
C3048 C 0.88873 0.67845 0.57583 0.0
C3049 C 0.87286 0.67135 0.59718 0.0
C3050 C 0.85299 0.64704 0.46636 0.0
C3051 C 0.87044 0.66533 0.5214 0.0
C3052 C 0.85188 0.64386 0.42871 0.0
C3053 C 0.8663 0.65543 0.40537 0.0
C3054 C 0.86875 0.66171 0.48131 0.0
C3055 C 0.88181 0.67004 0.42163 0.0
C3056 C 0.88758 0.67563 0.53803 0.0
C3057 C 0.85598 0.66137 0.57941 0.0
N3058 N 0.88264 0.6727 0.45843 0.0
N3059 N 0.85522 0.65853 0.54267 0.0
H3060 H 0.01207 0.49828 0.97213 0.0
H3061 H 0.98597 0.50746 0.17552 0.0
H3062 H 0.05036 0.53657 0.04938 0.0
H3063 H 0.94611 0.47561 0.09362 0.0
H3064 H 0.00994 0.51767 0.12949 0.0
H3065 H 0.98719 0.49211 1.01368 0.0
C3066 C 0.01511 0.5059 0.99742 0.0
C3067 C 0.03317 0.51754 1.00814 0.0
C3068 C -0.00402 0.50835 0.12158 0.0
C3069 C 0.00514 0.50986 0.05635 0.0
C3070 C 0.98241 0.50225 0.14793 0.0
C3071 C 0.96422 0.49069 0.13809 0.0
C3072 C 0.99119 0.50297 0.08518 0.0
C3073 C 0.96008 0.48441 0.10215 0.0
C3074 C 0.00097 0.50214 1.02137 0.0
C3075 C 0.03655 0.5272 0.04077 0.0
N3076 N 0.97351 0.49084 0.07673 0.0
N3077 N 0.02264 0.5227 0.06447 0.0
H3078 H 0.46462 0.51282 0.07408 0.0
H3079 H 0.53006 0.47296 0.11408 0.0
H3080 H 0.50663 0.51965 0.99863 0.0
H3081 H 0.4991 0.48192 0.19654 0.0
H3082 H 0.52272 0.4904 0.0707 0.0
H3083 H 0.47555 0.49841 0.11727 0.0
C3084 C 0.47575 0.5107 0.06622 0.0
C3085 C 0.48487 0.51742 0.03315 0.0
C3086 C 0.51798 0.48898 0.0986 0.0
C3087 C 0.49787 0.50182 0.08247 0.0
C3088 C 0.52244 0.47934 0.12342 0.0
C3089 C 0.515 0.476 0.15854 0.0
C3090 C 0.50588 0.49494 0.10929 0.0
C3091 C 0.50494 0.48419 0.16942 0.0
C3092 C 0.48226 0.50289 0.09109 0.0
C3093 C 0.49935 0.51461 1.02416 0.0
N3094 N 0.50032 0.49299 0.1446 0.0
N3095 N 0.50558 0.50716 0.04892 0.0
H3096 H 0.51356 0.00557 0.19134 0.0
H3097 H 0.47861 0.98185 0.98674 0.0
H3098 H 0.51484 0.04475 0.11455 0.0
H3099 H 0.476 0.94204 0.06343 0.0
H3100 H 0.49677 0.006 0.03019 0.0
H3101 H 0.50046 0.98204 0.1444 0.0
C3102 C 0.51054 0.00902 0.16475 0.0
C3103 C 0.51534 0.027 0.15637 0.0
C3104 C 0.49258 0.99204 0.03731 0.0
C3105 C 0.5014 0.00063 0.10233 0.0
C3106 C 0.48255 0.97833 1.01228 0.0
C3107 C 0.47555 0.96007 1.02224 0.0
C3108 C 0.49521 0.98724 0.0725 0.0
C3109 C 0.48098 0.95604 0.05526 0.0
C3110 C 0.50344 -0.00427 0.13782 0.0
C3111 C 0.51132 0.03098 0.12179 0.0
N3112 N 0.4901 0.96955 0.0799 0.0
N3113 N 0.50481 0.01789 0.09567 0.0
H3114 H 0.46902 0.94638 0.59621 0.0
H3115 H 0.53473 0.05135 0.64231 0.0
H3116 H 0.50973 0.985 0.52253 0.0
H3117 H 0.49413 0.0129 0.71621 0.0
H3118 H 0.52976 0.02605 0.60259 0.0
H3119 H 0.47984 0.97008 0.64317 0.0
C3120 C 0.47991 0.96001 0.58973 0.0
C3121 C 0.48848 0.96395 0.55569 0.0
C3122 C 0.52229 0.02309 0.62801 0.0
C3123 C 0.50137 0.99072 0.60916 0.0
C3124 C 0.52536 0.0375 0.65086 0.0
C3125 C 0.51449 0.03404 0.68182 0.0
C3126 C 0.50827 0.00536 0.63657 0.0
C3127 C 0.50253 0.01597 0.69203 0.0
C3128 C 0.48634 0.97341 0.61664 0.0
C3129 C 0.50278 0.9816 0.54862 0.0
N3130 N 0.49939 0.00224 0.66896 0.0
N3131 N 0.50887 0.99437 0.57524 0.0
H3132 H 0.93491 0.46858 0.57796 0.0
H3133 H 0.03863 0.50273 0.54375 0.0
H3134 H 0.97704 0.48771 0.65983 0.0
H3135 H 0.01156 0.51903 0.46552 0.0
H3136 H 0.01038 0.48659 0.57818 0.0
H3137 H 0.95865 0.48107 0.53022 0.0
C3138 C 0.94912 0.47607 0.58585 0.0
C3139 C 0.95422 0.47707 0.62262 0.0
C3140 C 0.01049 0.4934 0.55306 0.0
C3141 C 0.98085 0.49041 0.56903 0.0
C3142 C 0.02646 0.50226 0.5331 0.0
C3143 C 0.02734 0.51244 0.50245 0.0
C3144 C -0.00451 0.49507 0.54252 0.0
C3145 C 0.0113 0.51149 0.48955 0.0
C3146 C 0.96255 0.48289 0.55872 0.0
C3147 C 0.97267 0.48661 0.6317 0.0
N3148 N -0.00406 0.50335 0.51036 0.0
N3149 N 0.98535 0.49263 0.60502 0.0
H3150 H 0.5054 0.46172 0.63269 0.0
H3151 H 0.47057 0.52928 0.57029 0.0
H3152 H 0.50877 0.50489 0.7005 0.0
H3153 H 0.47166 0.48893 0.50032 0.0
H3154 H 0.48603 0.52177 0.61771 0.0
H3155 H 0.49033 0.46988 0.58558 0.0
C3156 C 0.5023 0.47244 0.63816 0.0
C3157 C 0.50855 0.48294 0.66989 0.0
C3158 C 0.48317 0.51477 0.59174 0.0
C3159 C 0.49222 0.49281 0.61611 0.0
C3160 C 0.47471 0.51934 0.56448 0.0
C3161 C 0.46953 0.50932 0.53203 0.0
C3162 C 0.48626 0.50013 0.5861 0.0
C3163 C 0.4752 0.49665 0.52551 0.0
C3164 C 0.4941 0.47738 0.61102 0.0
C3165 C 0.50429 0.4967 0.67592 0.0
N3166 N 0.48297 0.49209 0.55272 0.0
N3167 N 0.49662 0.50149 0.64889 0.0
H3168 H 0.60599 0.78623 0.44271 0.0
H3169 H 0.71133 0.86079 0.43146 0.0
H3170 H 0.63541 0.82184 0.53227 0.0
H3171 H 0.67867 0.83169 0.33827 0.0
H3172 H 0.6843 0.84589 0.4701 0.0
H3173 H 0.63407 0.79952 0.40712 0.0
C3174 C 0.61858 0.79641 0.4553 0.0
C3175 C 0.6185 0.80314 0.49016 0.0
C3176 C 0.68295 0.84296 0.44113 0.0
C3177 C 0.65027 0.81908 0.44913 0.0
C3178 C 0.69826 0.85169 0.41899 0.0
C3179 C 0.69707 0.84746 0.38176 0.0
C3180 C 0.66643 0.8297 0.4259 0.0
C3181 C 0.68004 0.83539 0.36685 0.0
C3182 C 0.63449 0.80424 0.43475 0.0
C3183 C 0.635 0.81638 0.50535 0.0
N3184 N 0.66538 0.82661 0.38921 0.0
N3185 N 0.65025 0.82427 0.48435 0.0
H3186 H 0.12626 0.84846 0.42095 0.0
H3187 H 0.19604 0.81438 0.47208 0.0
H3188 H 0.16695 0.85021 0.34776 0.0
H3189 H 0.14889 0.80221 0.5371 0.0
H3190 H 0.18842 0.83239 0.4309 0.0
H3191 H 0.13545 0.83351 0.46675 0.0
C3192 C 0.13672 0.84515 0.41423 0.0
C3193 C 0.14592 0.85044 0.38087 0.0
C3194 C 0.17991 0.82601 0.45453 0.0
C3195 C 0.15692 0.83423 0.43294 0.0
C3196 C 0.18444 0.81602 0.47821 0.0
C3197 C 0.17281 0.80664 0.50721 0.0
C3198 C 0.16378 0.82654 0.46044 0.0
C3199 C 0.15798 0.80913 0.51446 0.0
C3200 C 0.14218 0.83694 0.44045 0.0
C3201 C 0.15961 0.84626 0.3734 0.0
N3202 N 0.15368 0.81866 0.49081 0.0
N3203 N 0.16486 0.83854 0.39945 0.0
H3204 H 0.17325 0.35178 0.52557 0.0
H3205 H 0.14268 0.30723 0.32719 0.0
H3206 H 0.1756 0.3821 0.42923 0.0
H3207 H 0.14445 0.27813 0.4222 0.0
H3208 H 0.15559 0.33524 0.36348 0.0
H3209 H 0.16064 0.32401 0.48872 0.0
C3210 C 0.17035 0.3524 0.49698 0.0
C3211 C 0.17558 0.3691 0.48009 0.0
C3212 C 0.15351 0.3228 0.37622 0.0
C3213 C 0.16157 0.33778 0.43784 0.0
C3214 C 0.14651 0.30695 0.3553 0.0
C3215 C 0.14252 0.29052 0.37201 0.0
C3216 C 0.15646 0.32199 0.41382 0.0
C3217 C 0.14739 0.29066 0.40857 0.0
C3218 C 0.16347 0.33665 0.47578 0.0
C3219 C 0.17173 0.36935 0.44299 0.0
N3220 N 0.15391 0.30614 0.42848 0.0
N3221 N 0.16513 0.35392 0.42292 0.0
H3222 H 0.1571 0.31421 0.82685 0.0
H3223 H 0.15238 0.33914 0.03427 0.0
H3224 H 0.13007 0.27351 0.91032 0.0
H3225 H 0.18618 0.37831 0.95296 0.0
H3226 H 0.14446 0.3146 0.99037 0.0
H3227 H 0.16564 0.33805 0.87257 0.0
C3228 C 0.15244 0.31038 0.85471 0.0
C3229 C 0.14295 0.29204 0.86515 0.0
C3230 C 0.15385 0.32852 0.98228 0.0
C3231 C 0.15326 0.31898 0.91759 0.0
C3232 C 0.15857 0.34245 1.00741 0.0
C3233 C 0.16979 0.36062 0.99683 0.0
C3234 C 0.16016 0.33298 0.9463 0.0
C3235 C 0.17748 0.3644 0.96197 0.0
C3236 C 0.1576 0.32392 0.88087 0.0
C3237 C 0.13731 0.28758 0.9014 0.0
N3238 N 0.1722 0.35065 0.93754 0.0
N3239 N 0.14282 0.30104 0.92663 0.0
H3240 H 0.67169 0.83952 0.82379 0.0
H3241 H 0.64965 0.81413 0.03371 0.0
H3242 H 0.7135 0.85286 0.90455 0.0
H3243 H 0.61049 0.81115 0.95494 0.0
H3244 H 0.67348 0.82764 0.98733 0.0
H3245 H 0.64851 0.82427 0.87079 0.0
C3246 C 0.67591 0.83861 0.85126 0.0
C3247 C 0.69437 0.84757 0.8607 0.0
C3248 C 0.65973 0.82428 0.98028 0.0
C3249 C 0.66824 0.83124 0.91459 0.0
C3250 C 0.64625 0.81693 1.00687 0.0
C3251 C 0.62817 0.81131 0.99763 0.0
C3252 C 0.65489 0.82572 0.94438 0.0
C3253 C 0.62431 0.81519 0.96281 0.0
C3254 C 0.66274 0.83026 0.87816 0.0
C3255 C 0.69932 0.84613 0.89643 0.0
N3256 N 0.63755 0.82182 0.93701 0.0
N3257 N 0.68625 0.83846 0.92247 0.0
H3258 H 0.13374 0.85251 0.91754 0.0
H3259 H 0.1841 0.7954 0.9516 0.0
H3260 H 0.14049 0.82018 0.83486 0.0
H3261 H 0.17473 0.82553 0.03528 0.0
H3262 H 0.16632 0.80257 0.90898 0.0
H3263 H 0.15036 0.84407 0.9606 0.0
C3264 C 0.13944 0.84429 0.90814 0.0
C3265 C 0.1359 0.837 0.87293 0.0
C3266 C 0.16779 0.80725 0.93692 0.0
C3267 C 0.15382 0.82649 0.92192 0.0
C3268 C 0.17757 0.8028 0.96134 0.0
C3269 C 0.18078 0.80997 0.99663 0.0
C3270 C 0.16148 0.81901 0.9482 0.0
C3271 C 0.17247 0.81985 1.00803 0.0
C3272 C 0.1485 0.83909 0.93283 0.0
C3273 C 0.14309 0.82603 0.86199 0.0
N3274 N 0.16343 0.82438 0.98364 0.0
N3275 N 0.15148 0.82084 0.88664 0.0
H3276 H 0.30949 0.16913 0.87634 0.0
H3277 H 0.33593 0.15329 0.67818 0.0
H3278 H 0.27221 0.12665 0.80414 0.0
H3279 H 0.37606 0.18806 0.7571 0.0
H3280 H 0.31216 0.14456 0.72401 0.0
H3281 H 0.33463 0.17488 0.83585 0.0
C3282 C 0.30678 0.16054 0.85256 0.0
C3283 C 0.28889 0.14768 0.84285 0.0
C3284 C 0.32612 0.15421 0.73132 0.0
C3285 C 0.31715 0.15476 0.79582 0.0
C3286 C 0.33959 0.15945 0.70503 0.0
C3287 C 0.3578 0.17137 0.71418 0.0
C3288 C 0.33101 0.16092 0.76694 0.0
C3289 C 0.36206 0.17896 0.74913 0.0
C3290 C 0.32105 0.16401 0.82921 0.0
C3291 C 0.28589 0.13683 0.81209 0.0
N3292 N 0.34869 0.17345 0.77456 0.0
N3293 N 0.2999 0.14098 0.7889 0.0
H3294 H 0.79814 0.18177 0.7206 0.0
H3295 H 0.85824 0.13645 0.77002 0.0
H3296 H 0.83949 0.18439 0.64828 0.0
H3297 H 0.82754 0.14836 0.84807 0.0
H3298 H 0.85111 0.15259 0.72313 0.0
H3299 H 0.80543 0.16445 0.76413 0.0
C3300 C 0.80826 0.17806 0.71337 0.0
C3301 C 0.81851 0.18468 0.68145 0.0
C3302 C 0.84627 0.15199 0.75073 0.0
C3303 C 0.82734 0.16565 0.73103 0.0
C3304 C 0.85064 0.14312 0.77755 0.0
C3305 C 0.84329 0.14107 0.81258 0.0
C3306 C 0.83436 0.15848 0.75933 0.0
C3307 C 0.8333 0.14964 0.8211 0.0
C3308 C 0.8127 0.16854 0.73843 0.0
C3309 C 0.83149 0.1796 0.67306 0.0
N3310 N 0.82881 0.15771 0.79441 0.0
N3311 N 0.8358 0.17059 0.69808 0.0
H3312 H 0.84777 0.72226 0.76945 0.0
H3313 H 0.79954 0.65076 0.64596 0.0
H3314 H 0.83383 0.67908 0.84726 0.0
H3315 H 0.80637 0.61786 0.72712 0.0
H3316 H 0.81431 0.67696 0.68606 0.0
H3317 H 0.83235 0.69962 0.72196 0.0
C3318 C 0.84062 0.70795 0.77677 0.0
C3319 C 0.84203 0.70237 0.81194 0.0
C3320 C 0.81323 0.66429 0.69494 0.0
C3321 C 0.82476 0.67636 0.75804 0.0
C3322 C 0.80498 0.64936 0.67176 0.0
C3323 C 0.80177 0.63227 0.68356 0.0
C3324 C 0.81827 0.66197 0.73013 0.0
C3325 C 0.80872 0.63089 0.71717 0.0
C3326 C 0.83197 0.69493 0.74954 0.0
C3327 C 0.83298 0.68377 0.82021 0.0
N3328 N 0.81637 0.64555 0.73971 0.0
N3329 N 0.82499 0.67139 0.79322 0.0
H3330 H 0.78681 0.60276 0.24065 0.0
H3331 H 0.8528 0.70745 0.29023 0.0
H3332 H 0.82177 0.6438 0.16331 0.0
H3333 H 0.81117 0.66952 0.36319 0.0
H3334 H 0.8439 0.68287 0.24582 0.0
H3335 H 0.79517 0.62658 0.28667 0.0
C3336 C 0.79566 0.61688 0.23302 0.0
C3337 C 0.80394 0.62146 0.19865 0.0
C3338 C 0.83691 0.67985 0.27182 0.0
C3339 C 0.81402 0.64843 0.2509 0.0
C3340 C 0.84226 0.69377 0.29737 0.0
C3341 C 0.83242 0.69041 0.3298 0.0
C3342 C 0.82177 0.66261 0.27924 0.0
C3343 C 0.81888 0.67254 0.33806 0.0
C3344 C 0.8007 0.63042 0.25939 0.0
C3345 C 0.81535 0.63985 0.18988 0.0
N3346 N 0.81371 0.65927 0.3126 0.0
N3347 N 0.82036 0.65271 0.21613 0.0
H3348 H 0.33503 0.1779 0.1525 0.0
H3349 H 0.30967 0.1448 0.35806 0.0
H3350 H 0.37355 0.17886 0.23045 0.0
H3351 H 0.27067 0.14169 0.27867 0.0
H3352 H 0.33371 0.15884 0.31228 0.0
H3353 H 0.31057 0.1617 0.19655 0.0
C3354 C 0.33815 0.17401 0.17853 0.0
C3355 C 0.35621 0.17995 0.1885 0.0
C3356 C 0.31995 0.15529 0.30492 0.0
C3357 C 0.32875 0.16255 0.23941 0.0
C3358 C 0.30635 0.14765 0.33119 0.0
C3359 C 0.28828 0.14192 0.32165 0.0
C3360 C 0.31523 0.15683 0.26894 0.0
C3361 C 0.2845 0.14586 0.2868 0.0
C3362 C 0.32429 0.16512 0.20389 0.0
C3363 C 0.35973 0.17465 0.2222 0.0
N3364 N 0.29786 0.15274 0.26127 0.0
N3365 N 0.34612 0.16664 0.24707 0.0
H3366 H 0.84719 0.14079 0.27664 0.0
H3367 H 0.80908 0.20767 0.23663 0.0
H3368 H 0.85375 0.18252 0.35262 0.0
H3369 H 0.81688 0.17597 0.15407 0.0
H3370 H 0.82644 0.2001 0.27962 0.0
H3371 H 0.83377 0.15247 0.23273 0.0
C3372 C 0.84523 0.15203 0.28441 0.0
C3373 C 0.85147 0.16077 0.31799 0.0
C3374 C 0.82482 0.19526 0.25177 0.0
C3375 C 0.83714 0.17471 0.26779 0.0
C3376 C 0.8152 0.19985 0.22715 0.0
C3377 C 0.81153 0.19224 0.19216 0.0
C3378 C 0.83047 0.18293 0.24097 0.0
C3379 C 0.81941 0.18193 0.1811 0.0
C3380 C 0.83801 0.15898 0.25915 0.0
C3381 C 0.849 0.17549 0.32679 0.0
N3382 N 0.82823 0.17723 0.20572 0.0
N3383 N 0.84215 0.18216 0.30163 0.0
loop_
_geom_bond_atom_site_label_1
_geom_bond_atom_site_label_2
_geom_bond_distance
_geom_bond_site_symmetry_2
_ccdc_geom_bond_type
Nd0 C2 2.836 . S
Nd0 O20 2.500 . S
Nd0 O21 2.492 . S
Nd0 O22 2.487 . S
Nd0 O23 2.682 1_554 S
Nd0 O24 2.410 . S
Nd0 O29 2.414 . S
Nd0 O31 2.424 1_554 S
Nd1 C11 2.836 . S
Nd1 O23 2.414 . S
Nd1 O25 2.424 1_556 S
Nd1 O26 2.500 . S
Nd1 O27 2.492 . S
Nd1 O28 2.487 . S
Nd1 O29 2.682 1_556 S
Nd1 O30 2.410 . S
C2 Nd0 2.836 . S
C2 C3 1.498 . S
C2 O20 1.258 . S
C2 O21 1.239 . S
C3 C2 1.498 . S
C3 C4 1.366 . S
C3 C8 1.407 . S
C4 C3 1.366 . S
C4 C5 1.392 . S
C4 H32 0.930 . S
C5 C4 1.392 . S
C5 C6 1.398 . S
C5 H33 0.929 . S
C6 C5 1.398 . S
C6 C7 1.352 . S
C7 C6 1.352 . S
C7 C8 1.384 . S
C7 H34 0.930 . S
C8 C3 1.407 . S
C8 C7 1.384 . S
C8 H35 0.929 . S
C9 O22 1.241 1_556 S
C9 O23 1.273 . S
C10 O24 1.251 . S
C10 O25 1.268 . S
C11 Nd1 2.836 . S
C11 C12 1.498 . S
C11 O26 1.258 . S
C11 O27 1.239 . S
C12 C11 1.498 . S
C12 C13 1.366 . S
C12 C17 1.407 . S
C13 C12 1.366 . S
C13 C14 1.392 . S
C13 H36 0.930 . S
C14 C13 1.392 . S
C14 C15 1.398 . S
C14 H37 0.929 . S
C15 C14 1.398 . S
C15 C16 1.352 . S
C16 C15 1.352 . S
C16 C17 1.384 . S
C16 H38 0.930 . S
C17 C12 1.407 . S
C17 C16 1.384 . S
C17 H39 0.929 . S
C18 O28 1.241 1_554 S
C18 O29 1.273 . S
C19 O30 1.251 . S
C19 O31 1.268 . S
O20 Nd0 2.500 . S
O20 C2 1.258 . S
O21 Nd0 2.492 . S
O21 C2 1.239 . S
O22 Nd0 2.487 . S
O22 C9 1.241 1_554 S
O23 Nd0 2.682 1_556 S
O23 Nd1 2.414 . S
O23 C9 1.273 . S
O24 Nd0 2.410 . S
O24 C10 1.251 . S
O25 Nd1 2.424 1_554 S
O25 C10 1.268 . S
O26 Nd1 2.500 . S
O26 C11 1.258 . S
O27 Nd1 2.492 . S
O27 C11 1.239 . S
O28 Nd1 2.487 . S
O28 C18 1.241 1_556 S
O29 Nd0 2.414 . S
O29 Nd1 2.682 1_554 S
O29 C18 1.273 . S
O30 Nd1 2.410 . S
O30 C19 1.251 . S
O31 Nd0 2.424 1_556 S
O31 C19 1.268 . S
H32 C4 0.930 . S
H33 C5 0.929 . S
H34 C7 0.930 . S
H35 C8 0.929 . S
H36 C13 0.930 . S
H37 C14 0.929 . S
H38 C16 0.930 . S
H39 C17 0.929 . S
Nd40 C42 2.836 . S
Nd40 O60 2.500 . S
Nd40 O61 2.492 . S
Nd40 O62 2.487 . S
Nd40 O63 2.682 1_554 S
Nd40 O64 2.410 . S
Nd40 O69 2.414 . S
Nd40 O71 2.424 1_554 S
Nd41 C51 2.836 . S
Nd41 O63 2.414 . S
Nd41 O65 2.424 1_556 S
Nd41 O66 2.500 . S
Nd41 O67 2.492 . S
Nd41 O68 2.487 . S
Nd41 O69 2.682 1_556 S
Nd41 O70 2.410 . S
C42 Nd40 2.836 . S
C42 C43 1.498 . S
C42 O60 1.258 . S
C42 O61 1.239 . S
C43 C42 1.498 . S
C43 C44 1.366 . S
C43 C48 1.407 . S
C44 C43 1.366 . S
C44 C45 1.392 . S
C44 H72 0.930 . S
C45 C44 1.392 . S
C45 C46 1.398 . S
C45 H73 0.929 . S
C46 C45 1.398 . S
C46 C47 1.352 . S
C47 C46 1.352 . S
C47 C48 1.384 . S
C47 H74 0.930 . S
C48 C43 1.407 . S
C48 C47 1.384 . S
C48 H75 0.929 . S
C49 O62 1.241 1_556 S
C49 O63 1.273 . S
C50 O64 1.251 . S
C50 O65 1.268 . S
C51 Nd41 2.836 . S
C51 C52 1.498 . S
C51 O66 1.258 . S
C51 O67 1.239 . S
C52 C51 1.498 . S
C52 C53 1.366 . S
C52 C57 1.407 . S
C53 C52 1.366 . S
C53 C54 1.392 . S
C53 H76 0.930 . S
C54 C53 1.392 . S
C54 C55 1.398 . S
C54 H77 0.929 . S
C55 C54 1.398 . S
C55 C56 1.352 . S
C56 C55 1.352 . S
C56 C57 1.384 . S
C56 H78 0.930 . S
C57 C52 1.407 . S
C57 C56 1.384 . S
C57 H79 0.929 . S
C58 O68 1.241 1_554 S
C58 O69 1.273 . S
C59 O70 1.251 . S
C59 O71 1.268 . S
O60 Nd40 2.500 . S
O60 C42 1.258 . S
O61 Nd40 2.492 . S
O61 C42 1.239 . S
O62 Nd40 2.487 . S
O62 C49 1.241 1_554 S
O63 Nd40 2.682 1_556 S
O63 Nd41 2.414 . S
O63 C49 1.273 . S
O64 Nd40 2.410 . S
O64 C50 1.251 . S
O65 Nd41 2.424 1_554 S
O65 C50 1.268 . S
O66 Nd41 2.500 . S
O66 C51 1.258 . S
O67 Nd41 2.492 . S
O67 C51 1.239 . S
O68 Nd41 2.487 . S
O68 C58 1.241 1_556 S
O69 Nd40 2.414 . S
O69 Nd41 2.682 1_554 S
O69 C58 1.273 . S
O70 Nd41 2.410 . S
O70 C59 1.251 . S
O71 Nd40 2.424 1_556 S
O71 C59 1.268 . S
H72 C44 0.930 . S
H73 C45 0.929 . S
H74 C47 0.930 . S
H75 C48 0.929 . S
H76 C53 0.930 . S
H77 C54 0.929 . S
H78 C56 0.930 . S
H79 C57 0.929 . S
Nd80 C82 2.836 . S
Nd80 O100 2.500 . S
Nd80 O101 2.492 . S
Nd80 O102 2.487 . S
Nd80 O103 2.682 1_554 S
Nd80 O104 2.410 . S
Nd80 O109 2.414 . S
Nd80 O111 2.424 1_554 S
Nd81 C91 2.836 . S
Nd81 O103 2.414 . S
Nd81 O105 2.424 1_556 S
Nd81 O106 2.500 . S
Nd81 O107 2.492 . S
Nd81 O108 2.487 . S
Nd81 O109 2.682 1_556 S
Nd81 O110 2.410 . S
C82 Nd80 2.836 . S
C82 C83 1.498 . S
C82 O100 1.258 . S
C82 O101 1.239 . S
C83 C82 1.498 . S
C83 C84 1.366 . S
C83 C88 1.407 . S
C84 C83 1.366 . S
C84 C85 1.392 . S
C84 H112 0.930 . S
C85 C84 1.392 . S
C85 C86 1.398 . S
C85 H113 0.929 . S
C86 C85 1.398 . S
C86 C87 1.352 . S
C87 C86 1.352 . S
C87 C88 1.384 . S
C87 H114 0.930 . S
C88 C83 1.407 . S
C88 C87 1.384 . S
C88 H115 0.929 . S
C89 O102 1.241 1_556 S
C89 O103 1.273 . S
C90 O104 1.251 . S
C90 O105 1.268 . S
C91 Nd81 2.836 . S
C91 C92 1.498 . S
C91 O106 1.258 . S
C91 O107 1.239 . S
C92 C91 1.498 . S
C92 C93 1.366 . S
C92 C97 1.407 . S
C93 C92 1.366 . S
C93 C94 1.392 . S
C93 H116 0.930 . S
C94 C93 1.392 . S
C94 C95 1.398 . S
C94 H117 0.929 . S
C95 C94 1.398 . S
C95 C96 1.352 . S
C96 C95 1.352 . S
C96 C97 1.384 . S
C96 H118 0.930 . S
C97 C92 1.407 . S
C97 C96 1.384 . S
C97 H119 0.929 . S
C98 O108 1.241 1_554 S
C98 O109 1.273 . S
C99 O110 1.251 . S
C99 O111 1.268 . S
O100 Nd80 2.500 . S
O100 C82 1.258 . S
O101 Nd80 2.492 . S
O101 C82 1.239 . S
O102 Nd80 2.487 . S
O102 C89 1.241 1_554 S
O103 Nd80 2.682 1_556 S
O103 Nd81 2.414 . S
O103 C89 1.273 . S
O104 Nd80 2.410 . S
O104 C90 1.251 . S
O105 Nd81 2.424 1_554 S
O105 C90 1.268 . S
O106 Nd81 2.500 . S
O106 C91 1.258 . S
O107 Nd81 2.492 . S
O107 C91 1.239 . S
O108 Nd81 2.487 . S
O108 C98 1.241 1_556 S
O109 Nd80 2.414 . S
O109 Nd81 2.682 1_554 S
O109 C98 1.273 . S
O110 Nd81 2.410 . S
O110 C99 1.251 . S
O111 Nd80 2.424 1_556 S
O111 C99 1.268 . S
H112 C84 0.930 . S
H113 C85 0.929 . S
H114 C87 0.930 . S
H115 C88 0.929 . S
H116 C93 0.930 . S
H117 C94 0.929 . S
H118 C96 0.930 . S
H119 C97 0.929 . S
Nd120 C122 2.836 . S
Nd120 O140 2.500 . S
Nd120 O141 2.492 . S
Nd120 O142 2.487 . S
Nd120 O143 2.682 . S
Nd120 O144 2.410 . S
Nd120 O149 2.414 . S
Nd120 O151 2.424 . S
Nd121 C131 2.836 . S
Nd121 O143 2.414 . S
Nd121 O145 2.424 . S
Nd121 O146 2.500 . S
Nd121 O147 2.492 . S
Nd121 O148 2.487 . S
Nd121 O149 2.682 . S
Nd121 O150 2.410 . S
C122 Nd120 2.836 . S
C122 C123 1.498 . S
C122 O140 1.258 . S
C122 O141 1.239 . S
C123 C122 1.498 . S
C123 C124 1.366 . S
C123 C128 1.407 . S
C124 C123 1.366 . S
C124 C125 1.392 . S
C124 H152 0.930 . S
C125 C124 1.392 . S
C125 C126 1.398 . S
C125 H153 0.929 . S
C126 C125 1.398 . S
C126 C127 1.352 . S
C127 C126 1.352 . S
C127 C128 1.384 . S
C127 H154 0.930 . S
C128 C123 1.407 . S
C128 C127 1.384 . S
C128 H155 0.929 . S
C129 O142 1.241 . S
C129 O143 1.273 . S
C130 O144 1.251 . S
C130 O145 1.268 . S
C131 Nd121 2.836 . S
C131 C132 1.498 . S
C131 O146 1.258 . S
C131 O147 1.239 . S
C132 C131 1.498 . S
C132 C133 1.366 . S
C132 C137 1.407 . S
C133 C132 1.366 . S
C133 C134 1.392 . S
C133 H156 0.930 . S
C134 C133 1.392 . S
C134 C135 1.398 . S
C134 H157 0.929 . S
C135 C134 1.398 . S
C135 C136 1.352 . S
C136 C135 1.352 . S
C136 C137 1.384 . S
C136 H158 0.930 . S
C137 C132 1.407 . S
C137 C136 1.384 . S
C137 H159 0.929 . S
C138 O148 1.241 . S
C138 O149 1.273 . S
C139 O150 1.251 . S
C139 O151 1.268 . S
O140 Nd120 2.500 . S
O140 C122 1.258 . S
O141 Nd120 2.492 . S
O141 C122 1.239 . S
O142 Nd120 2.487 . S
O142 C129 1.241 . S
O143 Nd120 2.682 . S
O143 Nd121 2.414 . S
O143 C129 1.273 . S
O144 Nd120 2.410 . S
O144 C130 1.251 . S
O145 Nd121 2.424 . S
O145 C130 1.268 . S
O146 Nd121 2.500 . S
O146 C131 1.258 . S
O147 Nd121 2.492 . S
O147 C131 1.239 . S
O148 Nd121 2.487 . S
O148 C138 1.241 . S
O149 Nd120 2.414 . S
O149 Nd121 2.682 . S
O149 C138 1.273 . S
O150 Nd121 2.410 . S
O150 C139 1.251 . S
O151 Nd120 2.424 . S
O151 C139 1.268 . S
H152 C124 0.930 . S
H153 C125 0.929 . S
H154 C127 0.930 . S
H155 C128 0.929 . S
H156 C133 0.930 . S
H157 C134 0.929 . S
H158 C136 0.930 . S
H159 C137 0.929 . S
Nd160 C162 2.836 . S
Nd160 O180 2.500 . S
Nd160 O181 2.492 . S
Nd160 O182 2.487 . S
Nd160 O183 2.682 . S
Nd160 O184 2.410 . S
Nd160 O189 2.414 . S
Nd160 O191 2.424 . S
Nd161 C171 2.836 . S
Nd161 O183 2.414 . S
Nd161 O185 2.424 . S
Nd161 O186 2.500 . S
Nd161 O187 2.492 . S
Nd161 O188 2.487 . S
Nd161 O189 2.682 . S
Nd161 O190 2.410 . S
C162 Nd160 2.836 . S
C162 C163 1.498 . S
C162 O180 1.258 . S
C162 O181 1.239 . S
C163 C162 1.498 . S
C163 C164 1.366 . S
C163 C168 1.407 . S
C164 C163 1.366 . S
C164 C165 1.392 . S
C164 H192 0.930 . S
C165 C164 1.392 . S
C165 C166 1.398 . S
C165 H193 0.929 . S
C166 C165 1.398 . S
C166 C167 1.352 . S
C167 C166 1.352 . S
C167 C168 1.384 . S
C167 H194 0.930 . S
C168 C163 1.407 . S
C168 C167 1.384 . S
C168 H195 0.929 . S
C169 O182 1.241 . S
C169 O183 1.273 . S
C170 O184 1.251 . S
C170 O185 1.268 . S
C171 Nd161 2.836 . S
C171 C172 1.498 . S
C171 O186 1.258 . S
C171 O187 1.239 . S
C172 C171 1.498 . S
C172 C173 1.366 . S
C172 C177 1.407 . S
C173 C172 1.366 . S
C173 C174 1.392 . S
C173 H196 0.930 . S
C174 C173 1.392 . S
C174 C175 1.398 . S
C174 H197 0.929 . S
C175 C174 1.398 . S
C175 C176 1.352 . S
C176 C175 1.352 . S
C176 C177 1.384 . S
C176 H198 0.930 . S
C177 C172 1.407 . S
C177 C176 1.384 . S
C177 H199 0.929 . S
C178 O188 1.241 . S
C178 O189 1.273 . S
C179 O190 1.251 . S
C179 O191 1.268 . S
O180 Nd160 2.500 . S
O180 C162 1.258 . S
O181 Nd160 2.492 . S
O181 C162 1.239 . S
O182 Nd160 2.487 . S
O182 C169 1.241 . S
O183 Nd160 2.682 . S
O183 Nd161 2.414 . S
O183 C169 1.273 . S
O184 Nd160 2.410 . S
O184 C170 1.251 . S
O185 Nd161 2.424 . S
O185 C170 1.268 . S
O186 Nd161 2.500 . S
O186 C171 1.258 . S
O187 Nd161 2.492 . S
O187 C171 1.239 . S
O188 Nd161 2.487 . S
O188 C178 1.241 . S
O189 Nd160 2.414 . S
O189 Nd161 2.682 . S
O189 C178 1.273 . S
O190 Nd161 2.410 . S
O190 C179 1.251 . S
O191 Nd160 2.424 . S
O191 C179 1.268 . S
H192 C164 0.930 . S
H193 C165 0.929 . S
H194 C167 0.930 . S
H195 C168 0.929 . S
H196 C173 0.930 . S
H197 C174 0.929 . S
H198 C176 0.930 . S
H199 C177 0.929 . S
Nd200 C202 2.836 . S
Nd200 O220 2.500 . S
Nd200 O221 2.492 . S
Nd200 O222 2.487 . S
Nd200 O223 2.682 . S
Nd200 O224 2.410 . S
Nd200 O229 2.414 . S
Nd200 O231 2.424 . S
Nd201 C211 2.836 . S
Nd201 O223 2.414 . S
Nd201 O225 2.424 . S
Nd201 O226 2.500 . S
Nd201 O227 2.492 . S
Nd201 O228 2.487 . S
Nd201 O229 2.682 . S
Nd201 O230 2.410 . S
C202 Nd200 2.836 . S
C202 C203 1.498 . S
C202 O220 1.258 . S
C202 O221 1.239 . S
C203 C202 1.498 . S
C203 C204 1.366 . S
C203 C208 1.407 . S
C204 C203 1.366 . S
C204 C205 1.392 . S
C204 H232 0.930 . S
C205 C204 1.392 . S
C205 C206 1.398 . S
C205 H233 0.929 . S
C206 C205 1.398 . S
C206 C207 1.352 . S
C207 C206 1.352 . S
C207 C208 1.384 . S
C207 H234 0.930 . S
C208 C203 1.407 . S
C208 C207 1.384 . S
C208 H235 0.929 . S
C209 O222 1.241 . S
C209 O223 1.273 . S
C210 O224 1.251 . S
C210 O225 1.268 . S
C211 Nd201 2.836 . S
C211 C212 1.498 . S
C211 O226 1.258 . S
C211 O227 1.239 . S
C212 C211 1.498 . S
C212 C213 1.366 . S
C212 C217 1.407 . S
C213 C212 1.366 . S
C213 C214 1.392 . S
C213 H236 0.930 . S
C214 C213 1.392 . S
C214 C215 1.398 . S
C214 H237 0.929 . S
C215 C214 1.398 . S
C215 C216 1.352 . S
C216 C215 1.352 . S
C216 C217 1.384 . S
C216 H238 0.930 . S
C217 C212 1.407 . S
C217 C216 1.384 . S
C217 H239 0.929 . S
C218 O228 1.241 . S
C218 O229 1.273 . S
C219 O230 1.251 . S
C219 O231 1.268 . S
O220 Nd200 2.500 . S
O220 C202 1.258 . S
O221 Nd200 2.492 . S
O221 C202 1.239 . S
O222 Nd200 2.487 . S
O222 C209 1.241 . S
O223 Nd200 2.682 . S
O223 Nd201 2.414 . S
O223 C209 1.273 . S
O224 Nd200 2.410 . S
O224 C210 1.251 . S
O225 Nd201 2.424 . S
O225 C210 1.268 . S
O226 Nd201 2.500 . S
O226 C211 1.258 . S
O227 Nd201 2.492 . S
O227 C211 1.239 . S
O228 Nd201 2.487 . S
O228 C218 1.241 . S
O229 Nd200 2.414 . S
O229 Nd201 2.682 . S
O229 C218 1.273 . S
O230 Nd201 2.410 . S
O230 C219 1.251 . S
O231 Nd200 2.424 . S
O231 C219 1.268 . S
H232 C204 0.930 . S
H233 C205 0.929 . S
H234 C207 0.930 . S
H235 C208 0.929 . S
H236 C213 0.930 . S
H237 C214 0.929 . S
H238 C216 0.930 . S
H239 C217 0.929 . S
Nd240 C242 2.836 . S
Nd240 O260 2.500 . S
Nd240 O261 2.492 . S
Nd240 O262 2.487 . S
Nd240 O263 2.682 . S
Nd240 O264 2.410 . S
Nd240 O269 2.414 . S
Nd240 O271 2.424 . S
Nd241 C251 2.836 . S
Nd241 O263 2.414 . S
Nd241 O265 2.424 . S
Nd241 O266 2.500 . S
Nd241 O267 2.492 . S
Nd241 O268 2.487 . S
Nd241 O269 2.682 . S
Nd241 O270 2.410 . S
C242 Nd240 2.836 . S
C242 C243 1.498 . S
C242 O260 1.258 . S
C242 O261 1.239 . S
C243 C242 1.498 . S
C243 C244 1.366 . S
C243 C248 1.407 . S
C244 C243 1.366 . S
C244 C245 1.392 . S
C244 H272 0.930 . S
C245 C244 1.392 . S
C245 C246 1.398 . S
C245 H273 0.929 . S
C246 C245 1.398 . S
C246 C247 1.352 . S
C247 C246 1.352 . S
C247 C248 1.384 . S
C247 H274 0.930 . S
C248 C243 1.407 . S
C248 C247 1.384 . S
C248 H275 0.929 . S
C249 O262 1.241 . S
C249 O263 1.273 . S
C250 O264 1.251 . S
C250 O265 1.268 . S
C251 Nd241 2.836 . S
C251 C252 1.474 1_554 S
C251 O266 1.258 . S
C251 O267 1.239 . S
C252 C251 1.474 1_556 S
C252 C253 1.382 . S
C252 C257 1.416 . S
C253 C252 1.382 . S
C253 C254 1.392 . S
C253 H276 0.930 . S
C254 C253 1.392 . S
C254 C255 1.398 . S
C254 H277 0.929 . S
C255 C254 1.398 . S
C255 C256 1.352 . S
C256 C255 1.352 . S
C256 C257 1.384 . S
C256 H278 0.930 . S
C257 C252 1.416 . S
C257 C256 1.384 . S
C257 H279 0.930 1_556 S
C258 O268 1.241 . S
C258 O269 1.273 . S
C259 O270 1.251 . S
C259 O271 1.268 . S
O260 Nd240 2.500 . S
O260 C242 1.258 . S
O261 Nd240 2.492 . S
O261 C242 1.239 . S
O262 Nd240 2.487 . S
O262 C249 1.241 . S
O263 Nd240 2.682 . S
O263 Nd241 2.414 . S
O263 C249 1.273 . S
O264 Nd240 2.410 . S
O264 C250 1.251 . S
O265 Nd241 2.424 . S
O265 C250 1.268 . S
O266 Nd241 2.500 . S
O266 C251 1.258 . S
O267 Nd241 2.492 . S
O267 C251 1.239 . S
O268 Nd241 2.487 . S
O268 C258 1.241 . S
O269 Nd240 2.414 . S
O269 Nd241 2.682 . S
O269 C258 1.273 . S
O270 Nd241 2.410 . S
O270 C259 1.251 . S
O271 Nd240 2.424 . S
O271 C259 1.268 . S
H272 C244 0.930 . S
H273 C245 0.929 . S
H274 C247 0.930 . S
H275 C248 0.929 . S
H276 C253 0.930 . S
H277 C254 0.929 . S
H278 C256 0.930 . S
H279 C257 0.930 1_554 S
Nd280 C282 2.836 . S
Nd280 O300 2.500 . S
Nd280 O301 2.492 . S
Nd280 O302 2.487 . S
Nd280 O303 2.682 . S
Nd280 O304 2.410 . S
Nd280 O309 2.414 . S
Nd280 O311 2.424 . S
Nd281 C291 2.836 . S
Nd281 O303 2.414 . S
Nd281 O305 2.424 . S
Nd281 O306 2.500 . S
Nd281 O307 2.492 . S
Nd281 O308 2.487 . S
Nd281 O309 2.682 . S
Nd281 O310 2.410 . S
C282 Nd280 2.836 . S
C282 C283 1.498 . S
C282 O300 1.258 . S
C282 O301 1.239 . S
C283 C282 1.498 . S
C283 C284 1.366 . S
C283 C288 1.407 . S
C284 C283 1.366 . S
C284 C285 1.392 . S
C284 H312 0.930 . S
C285 C284 1.392 . S
C285 C286 1.398 . S
C285 H313 0.929 . S
C286 C285 1.398 . S
C286 C287 1.352 . S
C287 C286 1.352 . S
C287 C288 1.384 . S
C287 H314 0.930 . S
C288 C283 1.407 . S
C288 C287 1.384 . S
C288 H315 0.929 . S
C289 O302 1.241 . S
C289 O303 1.273 . S
C290 O304 1.251 . S
C290 O305 1.268 . S
C291 Nd281 2.836 . S
C291 C292 1.473 1_554 S
C291 O306 1.258 . S
C291 O307 1.239 . S
C292 C291 1.473 1_556 S
C292 C293 1.383 . S
C292 C297 1.417 . S
C293 C292 1.383 . S
C293 C294 1.392 . S
C293 H316 0.930 . S
C294 C293 1.392 . S
C294 C295 1.398 . S
C294 H317 0.929 . S
C295 C294 1.398 . S
C295 C296 1.352 . S
C296 C295 1.352 . S
C296 C297 1.384 . S
C296 H318 0.930 . S
C297 C292 1.417 . S
C297 C296 1.384 . S
C297 H319 0.931 1_556 S
C298 O308 1.241 . S
C298 O309 1.273 . S
C299 O310 1.251 . S
C299 O311 1.268 . S
O300 Nd280 2.500 . S
O300 C282 1.258 . S
O301 Nd280 2.492 . S
O301 C282 1.239 . S
O302 Nd280 2.487 . S
O302 C289 1.241 . S
O303 Nd280 2.682 . S
O303 Nd281 2.414 . S
O303 C289 1.273 . S
O304 Nd280 2.410 . S
O304 C290 1.251 . S
O305 Nd281 2.424 . S
O305 C290 1.268 . S
O306 Nd281 2.500 . S
O306 C291 1.258 . S
O307 Nd281 2.492 . S
O307 C291 1.239 . S
O308 Nd281 2.487 . S
O308 C298 1.241 . S
O309 Nd280 2.414 . S
O309 Nd281 2.682 . S
O309 C298 1.273 . S
O310 Nd281 2.410 . S
O310 C299 1.251 . S
O311 Nd280 2.424 . S
O311 C299 1.268 . S
H312 C284 0.930 . S
H313 C285 0.929 . S
H314 C287 0.930 . S
H315 C288 0.929 . S
H316 C293 0.930 . S
H317 C294 0.929 . S
H318 C296 0.930 . S
H319 C297 0.931 1_554 S
Nd320 C322 2.836 . S
Nd320 O340 2.500 . S
Nd320 O341 2.492 . S
Nd320 O342 2.487 . S
Nd320 O343 2.682 . S
Nd320 O344 2.410 . S
Nd320 O349 2.414 . S
Nd320 O351 2.424 . S
Nd321 C331 2.836 . S
Nd321 O343 2.414 . S
Nd321 O345 2.424 . S
Nd321 O346 2.500 . S
Nd321 O347 2.492 . S
Nd321 O348 2.487 . S
Nd321 O349 2.682 . S
Nd321 O350 2.410 . S
C322 Nd320 2.836 . S
C322 C323 1.498 . S
C322 O340 1.258 . S
C322 O341 1.239 . S
C323 C322 1.498 . S
C323 C324 1.366 . S
C323 C328 1.407 . S
C324 C323 1.366 . S
C324 C325 1.392 . S
C324 H352 0.930 . S
C325 C324 1.392 . S
C325 C326 1.398 . S
C325 H353 0.929 . S
C326 C325 1.398 . S
C326 C327 1.352 . S
C327 C326 1.352 . S
C327 C328 1.384 . S
C327 H354 0.930 . S
C328 C323 1.407 . S
C328 C327 1.384 . S
C328 H355 0.929 . S
C329 O342 1.241 . S
C329 O343 1.273 . S
C330 O344 1.251 . S
C330 O345 1.268 . S
C331 Nd321 2.836 . S
C331 C332 1.474 1_554 S
C331 O346 1.258 . S
C331 O347 1.239 . S
C332 C331 1.474 1_556 S
C332 C333 1.382 . S
C332 C337 1.416 . S
C333 C332 1.382 . S
C333 C334 1.392 . S
C333 H356 0.930 . S
C334 C333 1.392 . S
C334 C335 1.398 . S
C334 H357 0.929 . S
C335 C334 1.398 . S
C335 C336 1.352 . S
C336 C335 1.352 . S
C336 C337 1.384 . S
C336 H358 0.930 . S
C337 C332 1.416 . S
C337 C336 1.384 . S
C337 H359 0.930 1_556 S
C338 O348 1.241 . S
C338 O349 1.273 . S
C339 O350 1.251 . S
C339 O351 1.268 . S
O340 Nd320 2.500 . S
O340 C322 1.258 . S
O341 Nd320 2.492 . S
O341 C322 1.239 . S
O342 Nd320 2.487 . S
O342 C329 1.241 . S
O343 Nd320 2.682 . S
O343 Nd321 2.414 . S
O343 C329 1.273 . S
O344 Nd320 2.410 . S
O344 C330 1.251 . S
O345 Nd321 2.424 . S
O345 C330 1.268 . S
O346 Nd321 2.500 . S
O346 C331 1.258 . S
O347 Nd321 2.492 . S
O347 C331 1.239 . S
O348 Nd321 2.487 . S
O348 C338 1.241 . S
O349 Nd320 2.414 . S
O349 Nd321 2.682 . S
O349 C338 1.273 . S
O350 Nd321 2.410 . S
O350 C339 1.251 . S
O351 Nd320 2.424 . S
O351 C339 1.268 . S
H352 C324 0.930 . S
H353 C325 0.929 . S
H354 C327 0.930 . S
H355 C328 0.929 . S
H356 C333 0.930 . S
H357 C334 0.929 . S
H358 C336 0.930 . S
H359 C337 0.930 1_554 S
Nd360 C362 2.836 . S
Nd360 O380 2.500 . S
Nd360 O381 2.492 . S
Nd360 O382 2.487 . S
Nd360 O383 2.682 . S
Nd360 O384 2.410 . S
Nd360 O389 2.414 . S
Nd360 O391 2.424 . S
Nd361 C371 2.836 . S
Nd361 O383 2.414 . S
Nd361 O385 2.424 . S
Nd361 O386 2.500 . S
Nd361 O387 2.492 . S
Nd361 O388 2.487 . S
Nd361 O389 2.682 . S
Nd361 O390 2.410 . S
C362 Nd360 2.836 . S
C362 C363 1.498 . S
C362 O380 1.258 . S
C362 O381 1.239 . S
C363 C362 1.498 . S
C363 C364 1.366 . S
C363 C368 1.407 . S
C364 C363 1.366 . S
C364 C365 1.392 . S
C364 H392 0.930 . S
C365 C364 1.392 . S
C365 C366 1.398 . S
C365 H393 0.929 . S
C366 C365 1.398 . S
C366 C367 1.352 . S
C367 C366 1.352 . S
C367 C368 1.384 . S
C367 H394 0.930 . S
C368 C363 1.407 . S
C368 C367 1.384 . S
C368 H395 0.929 . S
C369 O382 1.241 . S
C369 O383 1.273 . S
C370 O384 1.251 . S
C370 O385 1.268 . S
C371 Nd361 2.836 . S
C371 C372 1.498 . S
C371 O386 1.258 . S
C371 O387 1.239 . S
C372 C371 1.498 . S
C372 C373 1.366 . S
C372 C377 1.407 . S
C373 C372 1.366 . S
C373 C374 1.392 . S
C373 H396 0.930 . S
C374 C373 1.392 . S
C374 C375 1.398 . S
C374 H397 0.929 . S
C375 C374 1.398 . S
C375 C376 1.352 . S
C376 C375 1.352 . S
C376 C377 1.384 . S
C376 H398 0.930 . S
C377 C372 1.407 . S
C377 C376 1.384 . S
C377 H399 0.929 . S
C378 O388 1.241 . S
C378 O389 1.273 . S
C379 O390 1.251 . S
C379 O391 1.268 . S
O380 Nd360 2.500 . S
O380 C362 1.258 . S
O381 Nd360 2.492 . S
O381 C362 1.239 . S
O382 Nd360 2.487 . S
O382 C369 1.241 . S
O383 Nd360 2.682 . S
O383 Nd361 2.414 . S
O383 C369 1.273 . S
O384 Nd360 2.410 . S
O384 C370 1.251 . S
O385 Nd361 2.424 . S
O385 C370 1.268 . S
O386 Nd361 2.500 . S
O386 C371 1.258 . S
O387 Nd361 2.492 . S
O387 C371 1.239 . S
O388 Nd361 2.487 . S
O388 C378 1.241 . S
O389 Nd360 2.414 . S
O389 Nd361 2.682 . S
O389 C378 1.273 . S
O390 Nd361 2.410 . S
O390 C379 1.251 . S
O391 Nd360 2.424 . S
O391 C379 1.268 . S
H392 C364 0.930 . S
H393 C365 0.929 . S
H394 C367 0.930 . S
H395 C368 0.929 . S
H396 C373 0.930 . S
H397 C374 0.929 . S
H398 C376 0.930 . S
H399 C377 0.929 . S
Nd400 C402 2.836 . S
Nd400 O420 2.500 . S
Nd400 O421 2.492 . S
Nd400 O422 2.487 . S
Nd400 O423 2.682 . S
Nd400 O424 2.410 . S
Nd400 O429 2.414 . S
Nd400 O431 2.424 . S
Nd401 C411 2.836 . S
Nd401 O423 2.414 . S
Nd401 O425 2.424 . S
Nd401 O426 2.500 . S
Nd401 O427 2.492 . S
Nd401 O428 2.487 . S
Nd401 O429 2.682 . S
Nd401 O430 2.410 . S
C402 Nd400 2.836 . S
C402 C403 1.498 . S
C402 O420 1.258 . S
C402 O421 1.239 . S
C403 C402 1.498 . S
C403 C404 1.366 . S
C403 C408 1.407 . S
C404 C403 1.366 . S
C404 C405 1.392 . S
C404 H432 0.930 . S
C405 C404 1.392 . S
C405 C406 1.398 . S
C405 H433 0.929 . S
C406 C405 1.398 . S
C406 C407 1.352 . S
C407 C406 1.352 . S
C407 C408 1.384 . S
C407 H434 0.930 . S
C408 C403 1.407 . S
C408 C407 1.384 . S
C408 H435 0.929 . S
C409 O422 1.241 . S
C409 O423 1.273 . S
C410 O424 1.251 . S
C410 O425 1.268 . S
C411 Nd401 2.836 . S
C411 C412 1.498 . S
C411 O426 1.258 . S
C411 O427 1.239 . S
C412 C411 1.498 . S
C412 C413 1.366 . S
C412 C417 1.407 . S
C413 C412 1.366 . S
C413 C414 1.392 . S
C413 H436 0.930 . S
C414 C413 1.392 . S
C414 C415 1.398 . S
C414 H437 0.929 . S
C415 C414 1.398 . S
C415 C416 1.352 . S
C416 C415 1.352 . S
C416 C417 1.384 . S
C416 H438 0.930 . S
C417 C412 1.407 . S
C417 C416 1.384 . S
C417 H439 0.929 . S
C418 O428 1.241 . S
C418 O429 1.273 . S
C419 O430 1.251 . S
C419 O431 1.268 . S
O420 Nd400 2.500 . S
O420 C402 1.258 . S
O421 Nd400 2.492 . S
O421 C402 1.239 . S
O422 Nd400 2.487 . S
O422 C409 1.241 . S
O423 Nd400 2.682 . S
O423 Nd401 2.414 . S
O423 C409 1.273 . S
O424 Nd400 2.410 . S
O424 C410 1.251 . S
O425 Nd401 2.424 . S
O425 C410 1.268 . S
O426 Nd401 2.500 . S
O426 C411 1.258 . S
O427 Nd401 2.492 . S
O427 C411 1.239 . S
O428 Nd401 2.487 . S
O428 C418 1.241 . S
O429 Nd400 2.414 . S
O429 Nd401 2.682 . S
O429 C418 1.273 . S
O430 Nd401 2.410 . S
O430 C419 1.251 . S
O431 Nd400 2.424 . S
O431 C419 1.268 . S
H432 C404 0.930 . S
H433 C405 0.929 . S
H434 C407 0.930 . S
H435 C408 0.929 . S
H436 C413 0.930 . S
H437 C414 0.929 . S
H438 C416 0.930 . S
H439 C417 0.929 . S
Nd440 C442 2.836 . S
Nd440 O460 2.500 . S
Nd440 O461 2.492 . S
Nd440 O462 2.487 . S
Nd440 O463 2.682 . S
Nd440 O464 2.410 . S
Nd440 O469 2.414 . S
Nd440 O471 2.424 . S
Nd441 C451 2.836 . S
Nd441 O463 2.414 . S
Nd441 O465 2.424 . S
Nd441 O466 2.500 . S
Nd441 O467 2.492 . S
Nd441 O468 2.487 . S
Nd441 O469 2.682 . S
Nd441 O470 2.410 . S
C442 Nd440 2.836 . S
C442 C443 1.498 . S
C442 O460 1.258 . S
C442 O461 1.239 . S
C443 C442 1.498 . S
C443 C444 1.366 . S
C443 C448 1.407 . S
C444 C443 1.366 . S
C444 C445 1.392 . S
C444 H472 0.930 . S
C445 C444 1.392 . S
C445 C446 1.398 . S
C445 H473 0.929 . S
C446 C445 1.398 . S
C446 C447 1.352 . S
C447 C446 1.352 . S
C447 C448 1.384 . S
C447 H474 0.930 . S
C448 C443 1.407 . S
C448 C447 1.384 . S
C448 H475 0.929 . S
C449 O462 1.241 . S
C449 O463 1.273 . S
C450 O464 1.251 . S
C450 O465 1.268 . S
C451 Nd441 2.836 . S
C451 C452 1.498 . S
C451 O466 1.258 . S
C451 O467 1.239 . S
C452 C451 1.498 . S
C452 C453 1.366 . S
C452 C457 1.407 . S
C453 C452 1.366 . S
C453 C454 1.392 . S
C453 H476 0.930 . S
C454 C453 1.392 . S
C454 C455 1.398 . S
C454 H477 0.929 . S
C455 C454 1.398 . S
C455 C456 1.352 . S
C456 C455 1.352 . S
C456 C457 1.384 . S
C456 H478 0.930 . S
C457 C452 1.407 . S
C457 C456 1.384 . S
C457 H479 0.929 . S
C458 O468 1.241 . S
C458 O469 1.273 . S
C459 O470 1.251 . S
C459 O471 1.268 . S
O460 Nd440 2.500 . S
O460 C442 1.258 . S
O461 Nd440 2.492 . S
O461 C442 1.239 . S
O462 Nd440 2.487 . S
O462 C449 1.241 . S
O463 Nd440 2.682 . S
O463 Nd441 2.414 . S
O463 C449 1.273 . S
O464 Nd440 2.410 . S
O464 C450 1.251 . S
O465 Nd441 2.424 . S
O465 C450 1.268 . S
O466 Nd441 2.500 . S
O466 C451 1.258 . S
O467 Nd441 2.492 . S
O467 C451 1.239 . S
O468 Nd441 2.487 . S
O468 C458 1.241 . S
O469 Nd440 2.414 . S
O469 Nd441 2.682 . S
O469 C458 1.273 . S
O470 Nd441 2.410 . S
O470 C459 1.251 . S
O471 Nd440 2.424 . S
O471 C459 1.268 . S
H472 C444 0.930 . S
H473 C445 0.929 . S
H474 C447 0.930 . S
H475 C448 0.929 . S
H476 C453 0.930 . S
H477 C454 0.929 . S
H478 C456 0.930 . S
H479 C457 0.929 . S
Nd480 C482 2.836 . S
Nd480 O500 2.500 . S
Nd480 O501 2.492 . S
Nd480 O502 2.487 . S
Nd480 O503 2.682 . S
Nd480 O504 2.410 . S
Nd480 O509 2.414 . S
Nd480 O511 2.424 . S
Nd481 C491 2.836 . S
Nd481 O503 2.414 . S
Nd481 O505 2.424 . S
Nd481 O506 2.500 . S
Nd481 O507 2.492 . S
Nd481 O508 2.487 . S
Nd481 O509 2.682 . S
Nd481 O510 2.410 . S
C482 Nd480 2.836 . S
C482 C483 1.498 . S
C482 O500 1.258 . S
C482 O501 1.239 . S
C483 C482 1.498 . S
C483 C484 1.366 . S
C483 C488 1.407 . S
C484 C483 1.366 . S
C484 C485 1.392 . S
C484 H512 0.930 . S
C485 C484 1.392 . S
C485 C486 1.398 . S
C485 H513 0.929 . S
C486 C485 1.398 . S
C486 C487 1.352 . S
C487 C486 1.352 . S
C487 C488 1.384 . S
C487 H514 0.930 . S
C488 C483 1.407 . S
C488 C487 1.384 . S
C488 H515 0.929 . S
C489 O502 1.241 . S
C489 O503 1.273 . S
C490 O504 1.251 . S
C490 O505 1.268 . S
C491 Nd481 2.836 . S
C491 C492 1.498 . S
C491 O506 1.258 . S
C491 O507 1.239 . S
C492 C491 1.498 . S
C492 C493 1.366 . S
C492 C497 1.407 . S
C493 C492 1.366 . S
C493 C494 1.392 . S
C493 H516 0.930 . S
C494 C493 1.392 . S
C494 C495 1.398 . S
C494 H517 0.929 . S
C495 C494 1.398 . S
C495 C496 1.352 . S
C496 C495 1.352 . S
C496 C497 1.384 . S
C496 H518 0.930 . S
C497 C492 1.407 . S
C497 C496 1.384 . S
C497 H519 0.929 . S
C498 O508 1.241 . S
C498 O509 1.273 . S
C499 O510 1.251 . S
C499 O511 1.268 . S
O500 Nd480 2.500 . S
O500 C482 1.258 . S
O501 Nd480 2.492 . S
O501 C482 1.239 . S
O502 Nd480 2.487 . S
O502 C489 1.241 . S
O503 Nd480 2.682 . S
O503 Nd481 2.414 . S
O503 C489 1.273 . S
O504 Nd480 2.410 . S
O504 C490 1.251 . S
O505 Nd481 2.424 . S
O505 C490 1.268 . S
O506 Nd481 2.500 . S
O506 C491 1.258 . S
O507 Nd481 2.492 . S
O507 C491 1.239 . S
O508 Nd481 2.487 . S
O508 C498 1.241 . S
O509 Nd480 2.414 . S
O509 Nd481 2.682 . S
O509 C498 1.273 . S
O510 Nd481 2.410 . S
O510 C499 1.251 . S
O511 Nd480 2.424 . S
O511 C499 1.268 . S
H512 C484 0.930 . S
H513 C485 0.929 . S
H514 C487 0.930 . S
H515 C488 0.929 . S
H516 C493 0.930 . S
H517 C494 0.929 . S
H518 C496 0.930 . S
H519 C497 0.929 . S
Nd520 C522 2.836 . S
Nd520 O540 2.500 . S
Nd520 O541 2.492 . S
Nd520 O542 2.487 . S
Nd520 O543 2.682 . S
Nd520 O544 2.410 . S
Nd520 O549 2.414 . S
Nd520 O551 2.424 . S
Nd521 C531 2.836 . S
Nd521 O543 2.414 . S
Nd521 O545 2.424 . S
Nd521 O546 2.500 . S
Nd521 O547 2.492 . S
Nd521 O548 2.487 . S
Nd521 O549 2.682 . S
Nd521 O550 2.410 . S
C522 Nd520 2.836 . S
C522 C523 1.498 . S
C522 O540 1.258 . S
C522 O541 1.239 . S
C523 C522 1.498 . S
C523 C524 1.366 . S
C523 C528 1.407 . S
C524 C523 1.366 . S
C524 C525 1.392 . S
C524 H552 0.930 . S
C525 C524 1.392 . S
C525 C526 1.398 . S
C525 H553 0.929 . S
C526 C525 1.398 . S
C526 C527 1.352 . S
C527 C526 1.352 . S
C527 C528 1.384 . S
C527 H554 0.930 . S
C528 C523 1.407 . S
C528 C527 1.384 . S
C528 H555 0.929 . S
C529 O542 1.241 . S
C529 O543 1.273 . S
C530 O544 1.251 . S
C530 O545 1.268 . S
C531 Nd521 2.836 . S
C531 C532 1.498 . S
C531 O546 1.258 . S
C531 O547 1.239 . S
C532 C531 1.498 . S
C532 C533 1.366 . S
C532 C537 1.407 . S
C533 C532 1.366 . S
C533 C534 1.392 . S
C533 H556 0.930 . S
C534 C533 1.392 . S
C534 C535 1.398 . S
C534 H557 0.929 . S
C535 C534 1.398 . S
C535 C536 1.352 . S
C536 C535 1.352 . S
C536 C537 1.384 . S
C536 H558 0.930 . S
C537 C532 1.407 . S
C537 C536 1.384 . S
C537 H559 0.929 . S
C538 O548 1.241 . S
C538 O549 1.273 . S
C539 O550 1.251 . S
C539 O551 1.268 . S
O540 Nd520 2.500 . S
O540 C522 1.258 . S
O541 Nd520 2.492 . S
O541 C522 1.239 . S
O542 Nd520 2.487 . S
O542 C529 1.241 . S
O543 Nd520 2.682 . S
O543 Nd521 2.414 . S
O543 C529 1.273 . S
O544 Nd520 2.410 . S
O544 C530 1.251 . S
O545 Nd521 2.424 . S
O545 C530 1.268 . S
O546 Nd521 2.500 . S
O546 C531 1.258 . S
O547 Nd521 2.492 . S
O547 C531 1.239 . S
O548 Nd521 2.487 . S
O548 C538 1.241 . S
O549 Nd520 2.414 . S
O549 Nd521 2.682 . S
O549 C538 1.273 . S
O550 Nd521 2.410 . S
O550 C539 1.251 . S
O551 Nd520 2.424 . S
O551 C539 1.268 . S
H552 C524 0.930 . S
H553 C525 0.929 . S
H554 C527 0.930 . S
H555 C528 0.929 . S
H556 C533 0.930 . S
H557 C534 0.929 . S
H558 C536 0.930 . S
H559 C537 0.929 . S
Nd560 C562 2.836 . S
Nd560 O580 2.500 . S
Nd560 O581 2.492 . S
Nd560 O582 2.487 . S
Nd560 O583 2.682 . S
Nd560 O584 2.410 . S
Nd560 O589 2.414 . S
Nd560 O591 2.424 . S
Nd561 C571 2.836 . S
Nd561 O583 2.414 . S
Nd561 O585 2.424 . S
Nd561 O586 2.500 . S
Nd561 O587 2.492 . S
Nd561 O588 2.487 . S
Nd561 O589 2.682 . S
Nd561 O590 2.410 . S
C562 Nd560 2.836 . S
C562 C563 1.498 . S
C562 O580 1.258 . S
C562 O581 1.239 . S
C563 C562 1.498 . S
C563 C564 1.366 . S
C563 C568 1.407 . S
C564 C563 1.366 . S
C564 C565 1.392 . S
C564 H592 0.930 . S
C565 C564 1.392 . S
C565 C566 1.398 . S
C565 H593 0.929 . S
C566 C565 1.398 . S
C566 C567 1.352 . S
C567 C566 1.352 . S
C567 C568 1.384 . S
C567 H594 0.930 . S
C568 C563 1.407 . S
C568 C567 1.384 . S
C568 H595 0.929 . S
C569 O582 1.241 . S
C569 O583 1.273 . S
C570 O584 1.251 . S
C570 O585 1.268 . S
C571 Nd561 2.836 . S
C571 C572 1.498 . S
C571 O586 1.258 . S
C571 O587 1.239 . S
C572 C571 1.498 . S
C572 C573 1.366 . S
C572 C577 1.407 . S
C573 C572 1.366 . S
C573 C574 1.392 . S
C573 H596 0.930 . S
C574 C573 1.392 . S
C574 C575 1.398 . S
C574 H597 0.929 . S
C575 C574 1.398 . S
C575 C576 1.352 . S
C576 C575 1.352 . S
C576 C577 1.384 . S
C576 H598 0.930 . S
C577 C572 1.407 . S
C577 C576 1.384 . S
C577 H599 0.929 . S
C578 O588 1.241 . S
C578 O589 1.273 . S
C579 O590 1.251 . S
C579 O591 1.268 . S
O580 Nd560 2.500 . S
O580 C562 1.258 . S
O581 Nd560 2.492 . S
O581 C562 1.239 . S
O582 Nd560 2.487 . S
O582 C569 1.241 . S
O583 Nd560 2.682 . S
O583 Nd561 2.414 . S
O583 C569 1.273 . S
O584 Nd560 2.410 . S
O584 C570 1.251 . S
O585 Nd561 2.424 . S
O585 C570 1.268 . S
O586 Nd561 2.500 . S
O586 C571 1.258 . S
O587 Nd561 2.492 . S
O587 C571 1.239 . S
O588 Nd561 2.487 . S
O588 C578 1.241 . S
O589 Nd560 2.414 . S
O589 Nd561 2.682 . S
O589 C578 1.273 . S
O590 Nd561 2.410 . S
O590 C579 1.251 . S
O591 Nd560 2.424 . S
O591 C579 1.268 . S
H592 C564 0.930 . S
H593 C565 0.929 . S
H594 C567 0.930 . S
H595 C568 0.929 . S
H596 C573 0.930 . S
H597 C574 0.929 . S
H598 C576 0.930 . S
H599 C577 0.929 . S
Nd600 C602 2.836 . S
Nd600 O620 2.500 . S
Nd600 O621 2.492 . S
Nd600 O622 2.487 . S
Nd600 O623 2.682 . S
Nd600 O624 2.410 . S
Nd600 O629 2.414 . S
Nd600 O631 2.424 1_556 S
Nd601 C611 2.836 1_556 S
Nd601 O623 2.414 . S
Nd601 O625 2.424 . S
Nd601 O626 2.500 1_556 S
Nd601 O627 2.492 1_556 S
Nd601 O628 2.487 . S
Nd601 O629 2.682 . S
Nd601 O630 2.410 1_556 S
C602 Nd600 2.836 . S
C602 C603 1.498 . S
C602 O620 1.258 . S
C602 O621 1.239 . S
C603 C602 1.498 . S
C603 C604 1.366 . S
C603 C608 1.407 . S
C604 C603 1.366 . S
C604 C605 1.392 . S
C604 H632 0.930 . S
C605 C604 1.392 . S
C605 C606 1.398 . S
C605 H633 0.929 . S
C606 C605 1.398 . S
C606 C607 1.352 . S
C607 C606 1.352 . S
C607 C608 1.384 . S
C607 H634 0.930 . S
C608 C603 1.407 . S
C608 C607 1.384 . S
C608 H635 0.929 . S
C609 O622 1.241 . S
C609 O623 1.273 . S
C610 O624 1.251 . S
C610 O625 1.268 . S
C611 Nd601 2.836 1_554 S
C611 C612 1.498 . S
C611 O626 1.258 . S
C611 O627 1.239 . S
C612 C611 1.498 . S
C612 C613 1.366 . S
C612 C617 1.407 . S
C613 C612 1.366 . S
C613 C614 1.392 . S
C613 H636 0.930 . S
C614 C613 1.392 . S
C614 C615 1.398 . S
C614 H637 0.929 . S
C615 C614 1.398 . S
C615 C616 1.352 . S
C616 C615 1.352 . S
C616 C617 1.384 . S
C616 H638 0.930 . S
C617 C612 1.407 . S
C617 C616 1.384 . S
C617 H639 0.929 . S
C618 O628 1.241 . S
C618 O629 1.273 . S
C619 O630 1.251 . S
C619 O631 1.268 . S
O620 Nd600 2.500 . S
O620 C602 1.258 . S
O621 Nd600 2.492 . S
O621 C602 1.239 . S
O622 Nd600 2.487 . S
O622 C609 1.241 . S
O623 Nd600 2.682 . S
O623 Nd601 2.414 . S
O623 C609 1.273 . S
O624 Nd600 2.410 . S
O624 C610 1.251 . S
O625 Nd601 2.424 . S
O625 C610 1.268 . S
O626 Nd601 2.500 1_554 S
O626 C611 1.258 . S
O627 Nd601 2.492 1_554 S
O627 C611 1.239 . S
O628 Nd601 2.487 . S
O628 C618 1.241 . S
O629 Nd600 2.414 . S
O629 Nd601 2.682 . S
O629 C618 1.273 . S
O630 Nd601 2.410 1_554 S
O630 C619 1.251 . S
O631 Nd600 2.424 1_554 S
O631 C619 1.268 . S
H632 C604 0.930 . S
H633 C605 0.929 . S
H634 C607 0.930 . S
H635 C608 0.929 . S
H636 C613 0.930 . S
H637 C614 0.929 . S
H638 C616 0.930 . S
H639 C617 0.929 . S
Nd640 C642 2.836 . S
Nd640 O660 2.500 . S
Nd640 O661 2.492 . S
Nd640 O662 2.487 . S
Nd640 O663 2.682 . S
Nd640 O664 2.410 . S
Nd640 O669 2.414 . S
Nd640 O671 2.424 1_556 S
Nd641 C651 2.836 1_556 S
Nd641 O663 2.414 . S
Nd641 O665 2.424 . S
Nd641 O666 2.500 1_556 S
Nd641 O667 2.492 1_556 S
Nd641 O668 2.487 . S
Nd641 O669 2.682 . S
Nd641 O670 2.410 1_556 S
C642 Nd640 2.836 . S
C642 C643 1.498 . S
C642 O660 1.258 . S
C642 O661 1.239 . S
C643 C642 1.498 . S
C643 C644 1.366 . S
C643 C648 1.407 . S
C644 C643 1.366 . S
C644 C645 1.392 . S
C644 H672 0.930 . S
C645 C644 1.392 . S
C645 C646 1.398 . S
C645 H673 0.929 . S
C646 C645 1.398 . S
C646 C647 1.352 . S
C647 C646 1.352 . S
C647 C648 1.384 . S
C647 H674 0.930 . S
C648 C643 1.407 . S
C648 C647 1.384 . S
C648 H675 0.929 . S
C649 O662 1.241 . S
C649 O663 1.273 . S
C650 O664 1.251 . S
C650 O665 1.268 . S
C651 Nd641 2.836 1_554 S
C651 C652 1.498 . S
C651 O666 1.258 . S
C651 O667 1.239 . S
C652 C651 1.498 . S
C652 C653 1.366 . S
C652 C657 1.407 . S
C653 C652 1.366 . S
C653 C654 1.392 . S
C653 H676 0.930 . S
C654 C653 1.392 . S
C654 C655 1.398 . S
C654 H677 0.929 . S
C655 C654 1.398 . S
C655 C656 1.352 . S
C656 C655 1.352 . S
C656 C657 1.384 . S
C656 H678 0.930 . S
C657 C652 1.407 . S
C657 C656 1.384 . S
C657 H679 0.929 . S
C658 O668 1.241 . S
C658 O669 1.273 . S
C659 O670 1.251 . S
C659 O671 1.268 . S
O660 Nd640 2.500 . S
O660 C642 1.258 . S
O661 Nd640 2.492 . S
O661 C642 1.239 . S
O662 Nd640 2.487 . S
O662 C649 1.241 . S
O663 Nd640 2.682 . S
O663 Nd641 2.414 . S
O663 C649 1.273 . S
O664 Nd640 2.410 . S
O664 C650 1.251 . S
O665 Nd641 2.424 . S
O665 C650 1.268 . S
O666 Nd641 2.500 1_554 S
O666 C651 1.258 . S
O667 Nd641 2.492 1_554 S
O667 C651 1.239 . S
O668 Nd641 2.487 . S
O668 C658 1.241 . S
O669 Nd640 2.414 . S
O669 Nd641 2.682 . S
O669 C658 1.273 . S
O670 Nd641 2.410 1_554 S
O670 C659 1.251 . S
O671 Nd640 2.424 1_554 S
O671 C659 1.268 . S
H672 C644 0.930 . S
H673 C645 0.929 . S
H674 C647 0.930 . S
H675 C648 0.929 . S
H676 C653 0.930 . S
H677 C654 0.929 . S
H678 C656 0.930 . S
H679 C657 0.929 . S
Nd680 C682 2.836 . S
Nd680 O700 2.500 . S
Nd680 O701 2.492 . S
Nd680 O702 2.487 . S
Nd680 O703 2.682 . S
Nd680 O704 2.410 . S
Nd680 O709 2.414 . S
Nd680 O711 2.424 1_556 S
Nd681 C691 2.836 1_556 S
Nd681 O703 2.414 . S
Nd681 O705 2.424 . S
Nd681 O706 2.500 1_556 S
Nd681 O707 2.492 1_556 S
Nd681 O708 2.487 . S
Nd681 O709 2.682 . S
Nd681 O710 2.410 1_556 S
C682 Nd680 2.836 . S
C682 C683 1.498 . S
C682 O700 1.258 . S
C682 O701 1.239 . S
C683 C682 1.498 . S
C683 C684 1.366 . S
C683 C688 1.407 . S
C684 C683 1.366 . S
C684 C685 1.392 . S
C684 H712 0.930 . S
C685 C684 1.392 . S
C685 C686 1.398 . S
C685 H713 0.929 . S
C686 C685 1.398 . S
C686 C687 1.352 . S
C687 C686 1.352 . S
C687 C688 1.384 . S
C687 H714 0.930 . S
C688 C683 1.407 . S
C688 C687 1.384 . S
C688 H715 0.929 . S
C689 O702 1.241 . S
C689 O703 1.273 . S
C690 O704 1.251 . S
C690 O705 1.268 . S
C691 Nd681 2.836 1_554 S
C691 C692 1.498 . S
C691 O706 1.258 . S
C691 O707 1.239 . S
C692 C691 1.498 . S
C692 C693 1.366 . S
C692 C697 1.407 . S
C693 C692 1.366 . S
C693 C694 1.392 . S
C693 H716 0.930 . S
C694 C693 1.392 . S
C694 C695 1.398 . S
C694 H717 0.929 . S
C695 C694 1.398 . S
C695 C696 1.352 . S
C696 C695 1.352 . S
C696 C697 1.384 . S
C696 H718 0.930 . S
C697 C692 1.407 . S
C697 C696 1.384 . S
C697 H719 0.929 . S
C698 O708 1.241 . S
C698 O709 1.273 . S
C699 O710 1.251 . S
C699 O711 1.268 . S
O700 Nd680 2.500 . S
O700 C682 1.258 . S
O701 Nd680 2.492 . S
O701 C682 1.239 . S
O702 Nd680 2.487 . S
O702 C689 1.241 . S
O703 Nd680 2.682 . S
O703 Nd681 2.414 . S
O703 C689 1.273 . S
O704 Nd680 2.410 . S
O704 C690 1.251 . S
O705 Nd681 2.424 . S
O705 C690 1.268 . S
O706 Nd681 2.500 1_554 S
O706 C691 1.258 . S
O707 Nd681 2.492 1_554 S
O707 C691 1.239 . S
O708 Nd681 2.487 . S
O708 C698 1.241 . S
O709 Nd680 2.414 . S
O709 Nd681 2.682 . S
O709 C698 1.273 . S
O710 Nd681 2.410 1_554 S
O710 C699 1.251 . S
O711 Nd680 2.424 1_554 S
O711 C699 1.268 . S
H712 C684 0.930 . S
H713 C685 0.929 . S
H714 C687 0.930 . S
H715 C688 0.929 . S
H716 C693 0.930 . S
H717 C694 0.929 . S
H718 C696 0.930 . S
H719 C697 0.929 . S
Nd720 C722 2.836 . S
Nd720 O740 2.500 . S
Nd720 O741 2.492 . S
Nd720 O742 2.487 . S
Nd720 O743 2.682 . S
Nd720 O744 2.410 . S
Nd720 O749 2.414 . S
Nd720 O751 2.424 . S
Nd721 C731 2.836 . S
Nd721 O743 2.414 . S
Nd721 O745 2.424 . S
Nd721 O746 2.500 . S
Nd721 O747 2.492 . S
Nd721 O748 2.487 . S
Nd721 O749 2.682 . S
Nd721 O750 2.410 . S
C722 Nd720 2.836 . S
C722 C723 1.498 . S
C722 O740 1.258 . S
C722 O741 1.239 . S
C723 C722 1.498 . S
C723 C724 1.366 . S
C723 C728 1.407 . S
C724 C723 1.366 . S
C724 C725 1.392 . S
C724 H752 0.930 . S
C725 C724 1.392 . S
C725 C726 1.398 . S
C725 H753 0.929 . S
C726 C725 1.398 . S
C726 C727 1.352 . S
C727 C726 1.352 . S
C727 C728 1.384 . S
C727 H754 0.930 . S
C728 C723 1.407 . S
C728 C727 1.384 . S
C728 H755 0.929 . S
C729 O742 1.241 . S
C729 O743 1.273 . S
C730 O744 1.251 . S
C730 O745 1.268 . S
C731 Nd721 2.836 . S
C731 C732 1.498 . S
C731 O746 1.258 . S
C731 O747 1.239 . S
C732 C731 1.498 . S
C732 C733 1.366 . S
C732 C737 1.407 . S
C733 C732 1.366 . S
C733 C734 1.392 . S
C733 H756 0.930 . S
C734 C733 1.392 . S
C734 C735 1.398 . S
C734 H757 0.929 . S
C735 C734 1.398 . S
C735 C736 1.352 . S
C736 C735 1.352 . S
C736 C737 1.384 . S
C736 H758 0.930 . S
C737 C732 1.407 . S
C737 C736 1.384 . S
C737 H759 0.929 . S
C738 O748 1.241 . S
C738 O749 1.273 . S
C739 O750 1.251 . S
C739 O751 1.268 . S
O740 Nd720 2.500 . S
O740 C722 1.258 . S
O741 Nd720 2.492 . S
O741 C722 1.239 . S
O742 Nd720 2.487 . S
O742 C729 1.241 . S
O743 Nd720 2.682 . S
O743 Nd721 2.414 . S
O743 C729 1.273 . S
O744 Nd720 2.410 . S
O744 C730 1.251 . S
O745 Nd721 2.424 . S
O745 C730 1.268 . S
O746 Nd721 2.500 . S
O746 C731 1.258 . S
O747 Nd721 2.492 . S
O747 C731 1.239 . S
O748 Nd721 2.487 . S
O748 C738 1.241 . S
O749 Nd720 2.414 . S
O749 Nd721 2.682 . S
O749 C738 1.273 . S
O750 Nd721 2.410 . S
O750 C739 1.251 . S
O751 Nd720 2.424 . S
O751 C739 1.268 . S
H752 C724 0.930 . S
H753 C725 0.929 . S
H754 C727 0.930 . S
H755 C728 0.929 . S
H756 C733 0.930 . S
H757 C734 0.929 . S
H758 C736 0.930 . S
H759 C737 0.929 . S
Nd760 C762 2.836 . S
Nd760 O780 2.500 . S
Nd760 O781 2.492 . S
Nd760 O782 2.487 . S
Nd760 O783 2.682 . S
Nd760 O784 2.410 . S
Nd760 O789 2.414 . S
Nd760 O791 2.424 . S
Nd761 C771 2.836 . S
Nd761 O783 2.414 . S
Nd761 O785 2.424 . S
Nd761 O786 2.500 . S
Nd761 O787 2.492 . S
Nd761 O788 2.487 . S
Nd761 O789 2.682 . S
Nd761 O790 2.410 . S
C762 Nd760 2.836 . S
C762 C763 1.498 . S
C762 O780 1.258 . S
C762 O781 1.239 . S
C763 C762 1.498 . S
C763 C764 1.366 . S
C763 C768 1.407 . S
C764 C763 1.366 . S
C764 C765 1.392 . S
C764 H792 0.930 . S
C765 C764 1.392 . S
C765 C766 1.398 . S
C765 H793 0.929 . S
C766 C765 1.398 . S
C766 C767 1.352 . S
C767 C766 1.352 . S
C767 C768 1.384 . S
C767 H794 0.930 . S
C768 C763 1.407 . S
C768 C767 1.384 . S
C768 H795 0.929 . S
C769 O782 1.241 . S
C769 O783 1.273 . S
C770 O784 1.251 . S
C770 O785 1.268 . S
C771 Nd761 2.836 . S
C771 C772 1.498 . S
C771 O786 1.258 . S
C771 O787 1.239 . S
C772 C771 1.498 . S
C772 C773 1.366 . S
C772 C777 1.407 . S
C773 C772 1.366 . S
C773 C774 1.392 . S
C773 H796 0.930 . S
C774 C773 1.392 . S
C774 C775 1.398 . S
C774 H797 0.929 . S
C775 C774 1.398 . S
C775 C776 1.352 . S
C776 C775 1.352 . S
C776 C777 1.384 . S
C776 H798 0.930 . S
C777 C772 1.407 . S
C777 C776 1.384 . S
C777 H799 0.929 . S
C778 O788 1.241 . S
C778 O789 1.273 . S
C779 O790 1.251 . S
C779 O791 1.268 . S
O780 Nd760 2.500 . S
O780 C762 1.258 . S
O781 Nd760 2.492 . S
O781 C762 1.239 . S
O782 Nd760 2.487 . S
O782 C769 1.241 . S
O783 Nd760 2.682 . S
O783 Nd761 2.414 . S
O783 C769 1.273 . S
O784 Nd760 2.410 . S
O784 C770 1.251 . S
O785 Nd761 2.424 . S
O785 C770 1.268 . S
O786 Nd761 2.500 . S
O786 C771 1.258 . S
O787 Nd761 2.492 . S
O787 C771 1.239 . S
O788 Nd761 2.487 . S
O788 C778 1.241 . S
O789 Nd760 2.414 . S
O789 Nd761 2.682 . S
O789 C778 1.273 . S
O790 Nd761 2.410 . S
O790 C779 1.251 . S
O791 Nd760 2.424 . S
O791 C779 1.268 . S
H792 C764 0.930 . S
H793 C765 0.929 . S
H794 C767 0.930 . S
H795 C768 0.929 . S
H796 C773 0.930 . S
H797 C774 0.929 . S
H798 C776 0.930 . S
H799 C777 0.929 . S
Nd800 C802 2.836 . S
Nd800 O820 2.500 . S
Nd800 O821 2.492 . S
Nd800 O822 2.487 . S
Nd800 O823 2.682 . S
Nd800 O824 2.410 . S
Nd800 O829 2.414 . S
Nd800 O831 2.424 . S
Nd801 C811 2.836 . S
Nd801 O823 2.414 . S
Nd801 O825 2.424 . S
Nd801 O826 2.500 . S
Nd801 O827 2.492 . S
Nd801 O828 2.487 . S
Nd801 O829 2.682 . S
Nd801 O830 2.410 . S
C802 Nd800 2.836 . S
C802 C803 1.498 . S
C802 O820 1.258 . S
C802 O821 1.239 . S
C803 C802 1.498 . S
C803 C804 1.366 . S
C803 C808 1.407 . S
C804 C803 1.366 . S
C804 C805 1.392 . S
C804 H832 0.930 . S
C805 C804 1.392 . S
C805 C806 1.398 . S
C805 H833 0.929 . S
C806 C805 1.398 . S
C806 C807 1.352 . S
C807 C806 1.352 . S
C807 C808 1.384 . S
C807 H834 0.930 . S
C808 C803 1.407 . S
C808 C807 1.384 . S
C808 H835 0.929 . S
C809 O822 1.241 . S
C809 O823 1.273 . S
C810 O824 1.251 . S
C810 O825 1.268 . S
C811 Nd801 2.836 . S
C811 C812 1.498 . S
C811 O826 1.258 . S
C811 O827 1.239 . S
C812 C811 1.498 . S
C812 C813 1.366 . S
C812 C817 1.407 . S
C813 C812 1.366 . S
C813 C814 1.392 . S
C813 H836 0.930 . S
C814 C813 1.392 . S
C814 C815 1.398 . S
C814 H837 0.929 . S
C815 C814 1.398 . S
C815 C816 1.352 . S
C816 C815 1.352 . S
C816 C817 1.384 . S
C816 H838 0.930 . S
C817 C812 1.407 . S
C817 C816 1.384 . S
C817 H839 0.929 . S
C818 O828 1.241 . S
C818 O829 1.273 . S
C819 O830 1.251 . S
C819 O831 1.268 . S
O820 Nd800 2.500 . S
O820 C802 1.258 . S
O821 Nd800 2.492 . S
O821 C802 1.239 . S
O822 Nd800 2.487 . S
O822 C809 1.241 . S
O823 Nd800 2.682 . S
O823 Nd801 2.414 . S
O823 C809 1.273 . S
O824 Nd800 2.410 . S
O824 C810 1.251 . S
O825 Nd801 2.424 . S
O825 C810 1.268 . S
O826 Nd801 2.500 . S
O826 C811 1.258 . S
O827 Nd801 2.492 . S
O827 C811 1.239 . S
O828 Nd801 2.487 . S
O828 C818 1.241 . S
O829 Nd800 2.414 . S
O829 Nd801 2.682 . S
O829 C818 1.273 . S
O830 Nd801 2.410 . S
O830 C819 1.251 . S
O831 Nd800 2.424 . S
O831 C819 1.268 . S
H832 C804 0.930 . S
H833 C805 0.929 . S
H834 C807 0.930 . S
H835 C808 0.929 . S
H836 C813 0.930 . S
H837 C814 0.929 . S
H838 C816 0.930 . S
H839 C817 0.929 . S
Nd840 C842 2.836 . S
Nd840 O860 2.500 . S
Nd840 O861 2.492 . S
Nd840 O862 2.487 . S
Nd840 O863 2.682 . S
Nd840 O864 2.410 . S
Nd840 O869 2.414 . S
Nd840 O871 2.424 . S
Nd841 C851 2.836 . S
Nd841 O863 2.414 . S
Nd841 O865 2.424 . S
Nd841 O866 2.500 . S
Nd841 O867 2.492 . S
Nd841 O868 2.487 . S
Nd841 O869 2.682 . S
Nd841 O870 2.410 . S
C842 Nd840 2.836 . S
C842 C843 1.498 . S
C842 O860 1.258 . S
C842 O861 1.239 . S
C843 C842 1.498 . S
C843 C844 1.366 . S
C843 C848 1.407 . S
C844 C843 1.366 . S
C844 C845 1.392 . S
C844 H872 0.930 . S
C845 C844 1.392 . S
C845 C846 1.398 . S
C845 H873 0.929 . S
C846 C845 1.398 . S
C846 C847 1.352 . S
C847 C846 1.352 . S
C847 C848 1.384 . S
C847 H874 0.930 . S
C848 C843 1.407 . S
C848 C847 1.384 . S
C848 H875 0.929 . S
C849 O862 1.241 . S
C849 O863 1.273 . S
C850 O864 1.251 . S
C850 O865 1.268 . S
C851 Nd841 2.836 . S
C851 C852 1.498 . S
C851 O866 1.258 . S
C851 O867 1.239 . S
C852 C851 1.498 . S
C852 C853 1.366 . S
C852 C857 1.407 . S
C853 C852 1.366 . S
C853 C854 1.392 1_556 S
C853 H876 0.930 . S
C854 C853 1.392 1_554 S
C854 C855 1.398 . S
C854 H877 0.929 . S
C855 C854 1.398 . S
C855 C856 1.352 . S
C856 C855 1.352 . S
C856 C857 1.384 1_554 S
C856 H878 0.930 . S
C857 C852 1.407 . S
C857 C856 1.384 1_556 S
C857 H879 0.929 . S
C858 O868 1.241 . S
C858 O869 1.273 . S
C859 O870 1.251 . S
C859 O871 1.268 . S
O860 Nd840 2.500 . S
O860 C842 1.258 . S
O861 Nd840 2.492 . S
O861 C842 1.239 . S
O862 Nd840 2.487 . S
O862 C849 1.241 . S
O863 Nd840 2.682 . S
O863 Nd841 2.414 . S
O863 C849 1.273 . S
O864 Nd840 2.410 . S
O864 C850 1.251 . S
O865 Nd841 2.424 . S
O865 C850 1.268 . S
O866 Nd841 2.500 . S
O866 C851 1.258 . S
O867 Nd841 2.492 . S
O867 C851 1.239 . S
O868 Nd841 2.487 . S
O868 C858 1.241 . S
O869 Nd840 2.414 . S
O869 Nd841 2.682 . S
O869 C858 1.273 . S
O870 Nd841 2.410 . S
O870 C859 1.251 . S
O871 Nd840 2.424 . S
O871 C859 1.268 . S
H872 C844 0.930 . S
H873 C845 0.929 . S
H874 C847 0.930 . S
H875 C848 0.929 . S
H876 C853 0.930 . S
H877 C854 0.929 . S
H878 C856 0.930 . S
H879 C857 0.929 . S
Nd880 C882 2.836 . S
Nd880 O900 2.500 . S
Nd880 O901 2.492 . S
Nd880 O902 2.487 . S
Nd880 O903 2.682 . S
Nd880 O904 2.410 . S
Nd880 O909 2.414 . S
Nd880 O911 2.424 . S
Nd881 C891 2.836 . S
Nd881 O903 2.414 . S
Nd881 O905 2.424 . S
Nd881 O906 2.500 . S
Nd881 O907 2.492 . S
Nd881 O908 2.487 . S
Nd881 O909 2.682 . S
Nd881 O910 2.410 . S
C882 Nd880 2.836 . S
C882 C883 1.498 . S
C882 O900 1.258 . S
C882 O901 1.239 . S
C883 C882 1.498 . S
C883 C884 1.366 . S
C883 C888 1.407 . S
C884 C883 1.366 . S
C884 C885 1.392 . S
C884 H912 0.930 . S
C885 C884 1.392 . S
C885 C886 1.398 . S
C885 H913 0.929 . S
C886 C885 1.398 . S
C886 C887 1.352 . S
C887 C886 1.352 . S
C887 C888 1.384 . S
C887 H914 0.930 . S
C888 C883 1.407 . S
C888 C887 1.384 . S
C888 H915 0.929 . S
C889 O902 1.241 . S
C889 O903 1.273 . S
C890 O904 1.251 . S
C890 O905 1.268 . S
C891 Nd881 2.836 . S
C891 C892 1.498 . S
C891 O906 1.258 . S
C891 O907 1.239 . S
C892 C891 1.498 . S
C892 C893 1.366 . S
C892 C897 1.407 . S
C893 C892 1.366 . S
C893 C894 1.392 1_556 S
C893 H916 0.930 . S
C894 C893 1.392 1_554 S
C894 C895 1.398 . S
C894 H917 0.929 . S
C895 C894 1.398 . S
C895 C896 1.352 . S
C896 C895 1.352 . S
C896 C897 1.384 1_554 S
C896 H918 0.930 . S
C897 C892 1.407 . S
C897 C896 1.384 1_556 S
C897 H919 0.929 . S
C898 O908 1.241 . S
C898 O909 1.273 . S
C899 O910 1.251 . S
C899 O911 1.268 . S
O900 Nd880 2.500 . S
O900 C882 1.258 . S
O901 Nd880 2.492 . S
O901 C882 1.239 . S
O902 Nd880 2.487 . S
O902 C889 1.241 . S
O903 Nd880 2.682 . S
O903 Nd881 2.414 . S
O903 C889 1.273 . S
O904 Nd880 2.410 . S
O904 C890 1.251 . S
O905 Nd881 2.424 . S
O905 C890 1.268 . S
O906 Nd881 2.500 . S
O906 C891 1.258 . S
O907 Nd881 2.492 . S
O907 C891 1.239 . S
O908 Nd881 2.487 . S
O908 C898 1.241 . S
O909 Nd880 2.414 . S
O909 Nd881 2.682 . S
O909 C898 1.273 . S
O910 Nd881 2.410 . S
O910 C899 1.251 . S
O911 Nd880 2.424 . S
O911 C899 1.268 . S
H912 C884 0.930 . S
H913 C885 0.929 . S
H914 C887 0.930 . S
H915 C888 0.929 . S
H916 C893 0.930 . S
H917 C894 0.929 . S
H918 C896 0.930 . S
H919 C897 0.929 . S
Nd920 C922 2.836 . S
Nd920 O940 2.500 . S
Nd920 O941 2.492 . S
Nd920 O942 2.487 . S
Nd920 O943 2.682 . S
Nd920 O944 2.410 . S
Nd920 O949 2.414 . S
Nd920 O951 2.424 . S
Nd921 C931 2.836 . S
Nd921 O943 2.414 . S
Nd921 O945 2.424 . S
Nd921 O946 2.500 . S
Nd921 O947 2.492 . S
Nd921 O948 2.487 . S
Nd921 O949 2.682 . S
Nd921 O950 2.410 . S
C922 Nd920 2.836 . S
C922 C923 1.498 . S
C922 O940 1.258 . S
C922 O941 1.239 . S
C923 C922 1.498 . S
C923 C924 1.366 . S
C923 C928 1.407 . S
C924 C923 1.366 . S
C924 C925 1.392 . S
C924 H952 0.930 . S
C925 C924 1.392 . S
C925 C926 1.398 . S
C925 H953 0.929 . S
C926 C925 1.398 . S
C926 C927 1.352 . S
C927 C926 1.352 . S
C927 C928 1.384 . S
C927 H954 0.930 . S
C928 C923 1.407 . S
C928 C927 1.384 . S
C928 H955 0.929 . S
C929 O942 1.241 . S
C929 O943 1.273 . S
C930 O944 1.251 . S
C930 O945 1.268 . S
C931 Nd921 2.836 . S
C931 C932 1.498 . S
C931 O946 1.258 . S
C931 O947 1.239 . S
C932 C931 1.498 . S
C932 C933 1.366 . S
C932 C937 1.407 . S
C933 C932 1.366 . S
C933 C934 1.392 1_556 S
C933 H956 0.930 . S
C934 C933 1.392 1_554 S
C934 C935 1.398 . S
C934 H957 0.929 . S
C935 C934 1.398 . S
C935 C936 1.352 . S
C936 C935 1.352 . S
C936 C937 1.384 1_554 S
C936 H958 0.930 . S
C937 C932 1.407 . S
C937 C936 1.384 1_556 S
C937 H959 0.929 . S
C938 O948 1.241 . S
C938 O949 1.273 . S
C939 O950 1.251 . S
C939 O951 1.268 . S
O940 Nd920 2.500 . S
O940 C922 1.258 . S
O941 Nd920 2.492 . S
O941 C922 1.239 . S
O942 Nd920 2.487 . S
O942 C929 1.241 . S
O943 Nd920 2.682 . S
O943 Nd921 2.414 . S
O943 C929 1.273 . S
O944 Nd920 2.410 . S
O944 C930 1.251 . S
O945 Nd921 2.424 . S
O945 C930 1.268 . S
O946 Nd921 2.500 . S
O946 C931 1.258 . S
O947 Nd921 2.492 . S
O947 C931 1.239 . S
O948 Nd921 2.487 . S
O948 C938 1.241 . S
O949 Nd920 2.414 . S
O949 Nd921 2.682 . S
O949 C938 1.273 . S
O950 Nd921 2.410 . S
O950 C939 1.251 . S
O951 Nd920 2.424 . S
O951 C939 1.268 . S
H952 C924 0.930 . S
H953 C925 0.929 . S
H954 C927 0.930 . S
H955 C928 0.929 . S
H956 C933 0.930 . S
H957 C934 0.929 . S
H958 C936 0.930 . S
H959 C937 0.929 . S
Nd960 C962 2.836 . S
Nd960 O980 2.500 . S
Nd960 O981 2.492 . S
Nd960 O982 2.487 . S
Nd960 O983 2.682 . S
Nd960 O984 2.410 . S
Nd960 O989 2.414 . S
Nd960 O991 2.424 . S
Nd961 C971 2.836 . S
Nd961 O983 2.414 . S
Nd961 O985 2.424 . S
Nd961 O986 2.500 . S
Nd961 O987 2.492 . S
Nd961 O988 2.487 . S
Nd961 O989 2.682 . S
Nd961 O990 2.410 . S
C962 Nd960 2.836 . S
C962 C963 1.498 . S
C962 O980 1.258 . S
C962 O981 1.239 . S
C963 C962 1.498 . S
C963 C964 1.366 . S
C963 C968 1.407 . S
C964 C963 1.366 . S
C964 C965 1.392 . S
C964 H992 0.930 . S
C965 C964 1.392 . S
C965 C966 1.398 . S
C965 H993 0.929 . S
C966 C965 1.398 . S
C966 C967 1.352 . S
C967 C966 1.352 . S
C967 C968 1.384 . S
C967 H994 0.930 . S
C968 C963 1.407 . S
C968 C967 1.384 . S
C968 H995 0.929 . S
C969 O982 1.241 . S
C969 O983 1.273 . S
C970 O984 1.251 . S
C970 O985 1.268 . S
C971 Nd961 2.836 . S
C971 C972 1.498 . S
C971 O986 1.258 . S
C971 O987 1.239 . S
C972 C971 1.498 . S
C972 C973 1.366 . S
C972 C977 1.407 . S
C973 C972 1.366 . S
C973 C974 1.392 . S
C973 H996 0.930 . S
C974 C973 1.392 . S
C974 C975 1.398 . S
C974 H997 0.929 . S
C975 C974 1.398 . S
C975 C976 1.352 . S
C976 C975 1.352 . S
C976 C977 1.384 . S
C976 H998 0.930 . S
C977 C972 1.407 . S
C977 C976 1.384 . S
C977 H999 0.929 . S
C978 O988 1.241 . S
C978 O989 1.273 . S
C979 O990 1.251 . S
C979 O991 1.268 . S
O980 Nd960 2.500 . S
O980 C962 1.258 . S
O981 Nd960 2.492 . S
O981 C962 1.239 . S
O982 Nd960 2.487 . S
O982 C969 1.241 . S
O983 Nd960 2.682 . S
O983 Nd961 2.414 . S
O983 C969 1.273 . S
O984 Nd960 2.410 . S
O984 C970 1.251 . S
O985 Nd961 2.424 . S
O985 C970 1.268 . S
O986 Nd961 2.500 . S
O986 C971 1.258 . S
O987 Nd961 2.492 . S
O987 C971 1.239 . S
O988 Nd961 2.487 . S
O988 C978 1.241 . S
O989 Nd960 2.414 . S
O989 Nd961 2.682 . S
O989 C978 1.273 . S
O990 Nd961 2.410 . S
O990 C979 1.251 . S
O991 Nd960 2.424 . S
O991 C979 1.268 . S
H992 C964 0.930 . S
H993 C965 0.929 . S
H994 C967 0.930 . S
H995 C968 0.929 . S
H996 C973 0.930 . S
H997 C974 0.929 . S
H998 C976 0.930 . S
H999 C977 0.929 . S
Nd1000 C1002 2.836 . S
Nd1000 O1020 2.500 . S
Nd1000 O1021 2.492 . S
Nd1000 O1022 2.487 . S
Nd1000 O1023 2.682 . S
Nd1000 O1024 2.410 . S
Nd1000 O1029 2.414 . S
Nd1000 O1031 2.424 . S
Nd1001 C1011 2.836 . S
Nd1001 O1023 2.414 . S
Nd1001 O1025 2.424 . S
Nd1001 O1026 2.500 . S
Nd1001 O1027 2.492 . S
Nd1001 O1028 2.487 . S
Nd1001 O1029 2.682 . S
Nd1001 O1030 2.410 . S
C1002 Nd1000 2.836 . S
C1002 C1003 1.498 . S
C1002 O1020 1.258 . S
C1002 O1021 1.239 . S
C1003 C1002 1.498 . S
C1003 C1004 1.366 . S
C1003 C1008 1.407 . S
C1004 C1003 1.366 . S
C1004 C1005 1.392 . S
C1004 H1032 0.930 . S
C1005 C1004 1.392 . S
C1005 C1006 1.398 . S
C1005 H1033 0.929 . S
C1006 C1005 1.398 . S
C1006 C1007 1.352 . S
C1007 C1006 1.352 . S
C1007 C1008 1.384 . S
C1007 H1034 0.930 . S
C1008 C1003 1.407 . S
C1008 C1007 1.384 . S
C1008 H1035 0.929 . S
C1009 O1022 1.241 . S
C1009 O1023 1.273 . S
C1010 O1024 1.251 . S
C1010 O1025 1.268 . S
C1011 Nd1001 2.836 . S
C1011 C1012 1.498 . S
C1011 O1026 1.258 . S
C1011 O1027 1.239 . S
C1012 C1011 1.498 . S
C1012 C1013 1.366 . S
C1012 C1017 1.407 . S
C1013 C1012 1.366 . S
C1013 C1014 1.392 . S
C1013 H1036 0.930 . S
C1014 C1013 1.392 . S
C1014 C1015 1.398 . S
C1014 H1037 0.929 . S
C1015 C1014 1.398 . S
C1015 C1016 1.352 . S
C1016 C1015 1.352 . S
C1016 C1017 1.384 . S
C1016 H1038 0.930 . S
C1017 C1012 1.407 . S
C1017 C1016 1.384 . S
C1017 H1039 0.929 . S
C1018 O1028 1.241 . S
C1018 O1029 1.273 . S
C1019 O1030 1.251 . S
C1019 O1031 1.268 . S
O1020 Nd1000 2.500 . S
O1020 C1002 1.258 . S
O1021 Nd1000 2.492 . S
O1021 C1002 1.239 . S
O1022 Nd1000 2.487 . S
O1022 C1009 1.241 . S
O1023 Nd1000 2.682 . S
O1023 Nd1001 2.414 . S
O1023 C1009 1.273 . S
O1024 Nd1000 2.410 . S
O1024 C1010 1.251 . S
O1025 Nd1001 2.424 . S
O1025 C1010 1.268 . S
O1026 Nd1001 2.500 . S
O1026 C1011 1.258 . S
O1027 Nd1001 2.492 . S
O1027 C1011 1.239 . S
O1028 Nd1001 2.487 . S
O1028 C1018 1.241 . S
O1029 Nd1000 2.414 . S
O1029 Nd1001 2.682 . S
O1029 C1018 1.273 . S
O1030 Nd1001 2.410 . S
O1030 C1019 1.251 . S
O1031 Nd1000 2.424 . S
O1031 C1019 1.268 . S
H1032 C1004 0.930 . S
H1033 C1005 0.929 . S
H1034 C1007 0.930 . S
H1035 C1008 0.929 . S
H1036 C1013 0.930 . S
H1037 C1014 0.929 . S
H1038 C1016 0.930 . S
H1039 C1017 0.929 . S
Nd1040 C1042 2.836 . S
Nd1040 O1060 2.500 . S
Nd1040 O1061 2.492 . S
Nd1040 O1062 2.487 . S
Nd1040 O1063 2.682 . S
Nd1040 O1064 2.410 . S
Nd1040 O1069 2.414 . S
Nd1040 O1071 2.424 . S
Nd1041 C1051 2.836 . S
Nd1041 O1063 2.414 . S
Nd1041 O1065 2.424 . S
Nd1041 O1066 2.500 . S
Nd1041 O1067 2.492 . S
Nd1041 O1068 2.487 . S
Nd1041 O1069 2.682 . S
Nd1041 O1070 2.410 . S
C1042 Nd1040 2.836 . S
C1042 C1043 1.498 . S
C1042 O1060 1.258 . S
C1042 O1061 1.239 . S
C1043 C1042 1.498 . S
C1043 C1044 1.366 . S
C1043 C1048 1.407 . S
C1044 C1043 1.366 . S
C1044 C1045 1.392 . S
C1044 H1072 0.930 . S
C1045 C1044 1.392 . S
C1045 C1046 1.398 . S
C1045 H1073 0.929 . S
C1046 C1045 1.398 . S
C1046 C1047 1.352 . S
C1047 C1046 1.352 . S
C1047 C1048 1.384 . S
C1047 H1074 0.930 . S
C1048 C1043 1.407 . S
C1048 C1047 1.384 . S
C1048 H1075 0.929 . S
C1049 O1062 1.241 . S
C1049 O1063 1.273 . S
C1050 O1064 1.251 . S
C1050 O1065 1.268 . S
C1051 Nd1041 2.836 . S
C1051 C1052 1.498 . S
C1051 O1066 1.258 . S
C1051 O1067 1.239 . S
C1052 C1051 1.498 . S
C1052 C1053 1.366 . S
C1052 C1057 1.407 . S
C1053 C1052 1.366 . S
C1053 C1054 1.392 . S
C1053 H1076 0.930 . S
C1054 C1053 1.392 . S
C1054 C1055 1.398 . S
C1054 H1077 0.929 . S
C1055 C1054 1.398 . S
C1055 C1056 1.352 . S
C1056 C1055 1.352 . S
C1056 C1057 1.384 . S
C1056 H1078 0.930 . S
C1057 C1052 1.407 . S
C1057 C1056 1.384 . S
C1057 H1079 0.929 . S
C1058 O1068 1.241 . S
C1058 O1069 1.273 . S
C1059 O1070 1.251 . S
C1059 O1071 1.268 . S
O1060 Nd1040 2.500 . S
O1060 C1042 1.258 . S
O1061 Nd1040 2.492 . S
O1061 C1042 1.239 . S
O1062 Nd1040 2.487 . S
O1062 C1049 1.241 . S
O1063 Nd1040 2.682 . S
O1063 Nd1041 2.414 . S
O1063 C1049 1.273 . S
O1064 Nd1040 2.410 . S
O1064 C1050 1.251 . S
O1065 Nd1041 2.424 . S
O1065 C1050 1.268 . S
O1066 Nd1041 2.500 . S
O1066 C1051 1.258 . S
O1067 Nd1041 2.492 . S
O1067 C1051 1.239 . S
O1068 Nd1041 2.487 . S
O1068 C1058 1.241 . S
O1069 Nd1040 2.414 . S
O1069 Nd1041 2.682 . S
O1069 C1058 1.273 . S
O1070 Nd1041 2.410 . S
O1070 C1059 1.251 . S
O1071 Nd1040 2.424 . S
O1071 C1059 1.268 . S
H1072 C1044 0.930 . S
H1073 C1045 0.929 . S
H1074 C1047 0.930 . S
H1075 C1048 0.929 . S
H1076 C1053 0.930 . S
H1077 C1054 0.929 . S
H1078 C1056 0.930 . S
H1079 C1057 0.929 . S
Nd1080 C1082 2.836 . S
Nd1080 O1100 2.500 . S
Nd1080 O1101 2.492 . S
Nd1080 O1102 2.487 . S
Nd1080 O1103 2.682 . S
Nd1080 O1104 2.410 . S
Nd1080 O1109 2.414 . S
Nd1080 O1111 2.424 . S
Nd1081 C1091 2.836 . S
Nd1081 O1103 2.414 . S
Nd1081 O1105 2.424 . S
Nd1081 O1106 2.500 . S
Nd1081 O1107 2.492 . S
Nd1081 O1108 2.487 . S
Nd1081 O1109 2.682 . S
Nd1081 O1110 2.410 . S
C1082 Nd1080 2.836 . S
C1082 C1083 1.498 . S
C1082 O1100 1.258 . S
C1082 O1101 1.239 . S
C1083 C1082 1.498 . S
C1083 C1084 1.366 . S
C1083 C1088 1.407 . S
C1084 C1083 1.366 . S
C1084 C1085 1.392 . S
C1084 H1112 0.930 . S
C1085 C1084 1.392 . S
C1085 C1086 1.398 . S
C1085 H1113 0.929 . S
C1086 C1085 1.398 . S
C1086 C1087 1.352 . S
C1087 C1086 1.352 . S
C1087 C1088 1.384 . S
C1087 H1114 0.930 . S
C1088 C1083 1.407 . S
C1088 C1087 1.384 . S
C1088 H1115 0.929 . S
C1089 O1102 1.241 . S
C1089 O1103 1.273 . S
C1090 O1104 1.251 . S
C1090 O1105 1.268 . S
C1091 Nd1081 2.836 . S
C1091 C1092 1.498 . S
C1091 O1106 1.258 . S
C1091 O1107 1.239 . S
C1092 C1091 1.498 . S
C1092 C1093 1.366 . S
C1092 C1097 1.407 . S
C1093 C1092 1.366 . S
C1093 C1094 1.392 . S
C1093 H1116 0.930 . S
C1094 C1093 1.392 . S
C1094 C1095 1.398 . S
C1094 H1117 0.929 . S
C1095 C1094 1.398 . S
C1095 C1096 1.352 . S
C1096 C1095 1.352 . S
C1096 C1097 1.384 . S
C1096 H1118 0.930 . S
C1097 C1092 1.407 . S
C1097 C1096 1.384 . S
C1097 H1119 0.929 . S
C1098 O1108 1.241 . S
C1098 O1109 1.273 . S
C1099 O1110 1.251 . S
C1099 O1111 1.268 . S
O1100 Nd1080 2.500 . S
O1100 C1082 1.258 . S
O1101 Nd1080 2.492 . S
O1101 C1082 1.239 . S
O1102 Nd1080 2.487 . S
O1102 C1089 1.241 . S
O1103 Nd1080 2.682 . S
O1103 Nd1081 2.414 . S
O1103 C1089 1.273 . S
O1104 Nd1080 2.410 . S
O1104 C1090 1.251 . S
O1105 Nd1081 2.424 . S
O1105 C1090 1.268 . S
O1106 Nd1081 2.500 . S
O1106 C1091 1.258 . S
O1107 Nd1081 2.492 . S
O1107 C1091 1.239 . S
O1108 Nd1081 2.487 . S
O1108 C1098 1.241 . S
O1109 Nd1080 2.414 . S
O1109 Nd1081 2.682 . S
O1109 C1098 1.273 . S
O1110 Nd1081 2.410 . S
O1110 C1099 1.251 . S
O1111 Nd1080 2.424 . S
O1111 C1099 1.268 . S
H1112 C1084 0.930 . S
H1113 C1085 0.929 . S
H1114 C1087 0.930 . S
H1115 C1088 0.929 . S
H1116 C1093 0.930 . S
H1117 C1094 0.929 . S
H1118 C1096 0.930 . S
H1119 C1097 0.929 . S
Nd1120 C1122 2.836 . S
Nd1120 O1140 2.500 . S
Nd1120 O1141 2.492 . S
Nd1120 O1142 2.487 . S
Nd1120 O1143 2.682 . S
Nd1120 O1144 2.410 . S
Nd1120 O1149 2.414 . S
Nd1120 O1151 2.424 . S
Nd1121 C1131 2.836 . S
Nd1121 O1143 2.414 . S
Nd1121 O1145 2.424 . S
Nd1121 O1146 2.500 . S
Nd1121 O1147 2.492 . S
Nd1121 O1148 2.487 . S
Nd1121 O1149 2.682 . S
Nd1121 O1150 2.410 . S
C1122 Nd1120 2.836 . S
C1122 C1123 1.498 . S
C1122 O1140 1.258 . S
C1122 O1141 1.239 . S
C1123 C1122 1.498 . S
C1123 C1124 1.366 . S
C1123 C1128 1.407 . S
C1124 C1123 1.366 . S
C1124 C1125 1.392 . S
C1124 H1152 0.930 . S
C1125 C1124 1.392 . S
C1125 C1126 1.398 . S
C1125 H1153 0.929 . S
C1126 C1125 1.398 . S
C1126 C1127 1.352 . S
C1127 C1126 1.352 . S
C1127 C1128 1.384 . S
C1127 H1154 0.930 . S
C1128 C1123 1.407 . S
C1128 C1127 1.384 . S
C1128 H1155 0.929 . S
C1129 O1142 1.241 . S
C1129 O1143 1.273 . S
C1130 O1144 1.251 . S
C1130 O1145 1.268 . S
C1131 Nd1121 2.836 . S
C1131 C1132 1.498 . S
C1131 O1146 1.258 . S
C1131 O1147 1.239 . S
C1132 C1131 1.498 . S
C1132 C1133 1.366 . S
C1132 C1137 1.407 . S
C1133 C1132 1.366 . S
C1133 C1134 1.392 . S
C1133 H1156 0.930 . S
C1134 C1133 1.392 . S
C1134 C1135 1.398 . S
C1134 H1157 0.929 . S
C1135 C1134 1.398 . S
C1135 C1136 1.352 . S
C1136 C1135 1.352 . S
C1136 C1137 1.384 . S
C1136 H1158 0.930 . S
C1137 C1132 1.407 . S
C1137 C1136 1.384 . S
C1137 H1159 0.929 . S
C1138 O1148 1.241 . S
C1138 O1149 1.273 . S
C1139 O1150 1.251 . S
C1139 O1151 1.268 . S
O1140 Nd1120 2.500 . S
O1140 C1122 1.258 . S
O1141 Nd1120 2.492 . S
O1141 C1122 1.239 . S
O1142 Nd1120 2.487 . S
O1142 C1129 1.241 . S
O1143 Nd1120 2.682 . S
O1143 Nd1121 2.414 . S
O1143 C1129 1.273 . S
O1144 Nd1120 2.410 . S
O1144 C1130 1.251 . S
O1145 Nd1121 2.424 . S
O1145 C1130 1.268 . S
O1146 Nd1121 2.500 . S
O1146 C1131 1.258 . S
O1147 Nd1121 2.492 . S
O1147 C1131 1.239 . S
O1148 Nd1121 2.487 . S
O1148 C1138 1.241 . S
O1149 Nd1120 2.414 . S
O1149 Nd1121 2.682 . S
O1149 C1138 1.273 . S
O1150 Nd1121 2.410 . S
O1150 C1139 1.251 . S
O1151 Nd1120 2.424 . S
O1151 C1139 1.268 . S
H1152 C1124 0.930 . S
H1153 C1125 0.929 . S
H1154 C1127 0.930 . S
H1155 C1128 0.929 . S
H1156 C1133 0.930 . S
H1157 C1134 0.929 . S
H1158 C1136 0.930 . S
H1159 C1137 0.929 . S
Nd1160 C1162 2.836 . S
Nd1160 O1180 2.500 . S
Nd1160 O1181 2.492 . S
Nd1160 O1182 2.487 . S
Nd1160 O1183 2.682 . S
Nd1160 O1184 2.410 . S
Nd1160 O1189 2.414 . S
Nd1160 O1191 2.424 . S
Nd1161 C1171 2.836 . S
Nd1161 O1183 2.414 . S
Nd1161 O1185 2.424 . S
Nd1161 O1186 2.500 . S
Nd1161 O1187 2.492 . S
Nd1161 O1188 2.487 . S
Nd1161 O1189 2.682 . S
Nd1161 O1190 2.410 . S
C1162 Nd1160 2.836 . S
C1162 C1163 1.498 . S
C1162 O1180 1.258 . S
C1162 O1181 1.239 . S
C1163 C1162 1.498 . S
C1163 C1164 1.366 . S
C1163 C1168 1.407 . S
C1164 C1163 1.366 . S
C1164 C1165 1.392 . S
C1164 H1192 0.930 . S
C1165 C1164 1.392 . S
C1165 C1166 1.398 . S
C1165 H1193 0.929 . S
C1166 C1165 1.398 . S
C1166 C1167 1.352 . S
C1167 C1166 1.352 . S
C1167 C1168 1.384 . S
C1167 H1194 0.930 . S
C1168 C1163 1.407 . S
C1168 C1167 1.384 . S
C1168 H1195 0.929 . S
C1169 O1182 1.241 . S
C1169 O1183 1.273 . S
C1170 O1184 1.251 . S
C1170 O1185 1.268 . S
C1171 Nd1161 2.836 . S
C1171 C1172 1.498 . S
C1171 O1186 1.258 . S
C1171 O1187 1.239 . S
C1172 C1171 1.498 . S
C1172 C1173 1.366 . S
C1172 C1177 1.407 . S
C1173 C1172 1.366 . S
C1173 C1174 1.392 . S
C1173 H1196 0.930 . S
C1174 C1173 1.392 . S
C1174 C1175 1.398 . S
C1174 H1197 0.929 . S
C1175 C1174 1.398 . S
C1175 C1176 1.352 . S
C1176 C1175 1.352 . S
C1176 C1177 1.384 . S
C1176 H1198 0.930 . S
C1177 C1172 1.407 . S
C1177 C1176 1.384 . S
C1177 H1199 0.929 . S
C1178 O1188 1.241 . S
C1178 O1189 1.273 . S
C1179 O1190 1.251 . S
C1179 O1191 1.268 . S
O1180 Nd1160 2.500 . S
O1180 C1162 1.258 . S
O1181 Nd1160 2.492 . S
O1181 C1162 1.239 . S
O1182 Nd1160 2.487 . S
O1182 C1169 1.241 . S
O1183 Nd1160 2.682 . S
O1183 Nd1161 2.414 . S
O1183 C1169 1.273 . S
O1184 Nd1160 2.410 . S
O1184 C1170 1.251 . S
O1185 Nd1161 2.424 . S
O1185 C1170 1.268 . S
O1186 Nd1161 2.500 . S
O1186 C1171 1.258 . S
O1187 Nd1161 2.492 . S
O1187 C1171 1.239 . S
O1188 Nd1161 2.487 . S
O1188 C1178 1.241 . S
O1189 Nd1160 2.414 . S
O1189 Nd1161 2.682 . S
O1189 C1178 1.273 . S
O1190 Nd1161 2.410 . S
O1190 C1179 1.251 . S
O1191 Nd1160 2.424 . S
O1191 C1179 1.268 . S
H1192 C1164 0.930 . S
H1193 C1165 0.929 . S
H1194 C1167 0.930 . S
H1195 C1168 0.929 . S
H1196 C1173 0.930 . S
H1197 C1174 0.929 . S
H1198 C1176 0.930 . S
H1199 C1177 0.929 . S
Nd1200 C1202 2.836 . S
Nd1200 O1220 2.500 . S
Nd1200 O1221 2.492 . S
Nd1200 O1222 2.487 . S
Nd1200 O1223 2.682 . S
Nd1200 O1224 2.410 . S
Nd1200 O1229 2.414 . S
Nd1200 O1231 2.424 . S
Nd1201 C1211 2.836 . S
Nd1201 O1223 2.414 . S
Nd1201 O1225 2.424 . S
Nd1201 O1226 2.500 . S
Nd1201 O1227 2.492 . S
Nd1201 O1228 2.487 . S
Nd1201 O1229 2.682 . S
Nd1201 O1230 2.410 . S
C1202 Nd1200 2.836 . S
C1202 C1203 1.498 . S
C1202 O1220 1.258 . S
C1202 O1221 1.239 . S
C1203 C1202 1.498 . S
C1203 C1204 1.366 . S
C1203 C1208 1.407 . S
C1204 C1203 1.366 . S
C1204 C1205 1.392 . S
C1204 H1232 0.930 . S
C1205 C1204 1.392 . S
C1205 C1206 1.398 1_556 S
C1205 H1233 0.929 1_556 S
C1206 C1205 1.398 1_554 S
C1206 C1207 1.352 1_554 S
C1207 C1206 1.352 1_556 S
C1207 C1208 1.384 . S
C1207 H1234 0.930 . S
C1208 C1203 1.407 . S
C1208 C1207 1.384 . S
C1208 H1235 0.929 . S
C1209 O1222 1.241 . S
C1209 O1223 1.273 . S
C1210 O1224 1.251 . S
C1210 O1225 1.268 . S
C1211 Nd1201 2.836 . S
C1211 C1212 1.498 . S
C1211 O1226 1.258 . S
C1211 O1227 1.239 . S
C1212 C1211 1.498 . S
C1212 C1213 1.366 . S
C1212 C1217 1.407 . S
C1213 C1212 1.366 . S
C1213 C1214 1.392 . S
C1213 H1236 0.930 . S
C1214 C1213 1.392 . S
C1214 C1215 1.398 . S
C1214 H1237 0.929 . S
C1215 C1214 1.398 . S
C1215 C1216 1.352 . S
C1216 C1215 1.352 . S
C1216 C1217 1.384 . S
C1216 H1238 0.930 . S
C1217 C1212 1.407 . S
C1217 C1216 1.384 . S
C1217 H1239 0.929 . S
C1218 O1228 1.241 . S
C1218 O1229 1.273 . S
C1219 O1230 1.251 . S
C1219 O1231 1.268 . S
O1220 Nd1200 2.500 . S
O1220 C1202 1.258 . S
O1221 Nd1200 2.492 . S
O1221 C1202 1.239 . S
O1222 Nd1200 2.487 . S
O1222 C1209 1.241 . S
O1223 Nd1200 2.682 . S
O1223 Nd1201 2.414 . S
O1223 C1209 1.273 . S
O1224 Nd1200 2.410 . S
O1224 C1210 1.251 . S
O1225 Nd1201 2.424 . S
O1225 C1210 1.268 . S
O1226 Nd1201 2.500 . S
O1226 C1211 1.258 . S
O1227 Nd1201 2.492 . S
O1227 C1211 1.239 . S
O1228 Nd1201 2.487 . S
O1228 C1218 1.241 . S
O1229 Nd1200 2.414 . S
O1229 Nd1201 2.682 . S
O1229 C1218 1.273 . S
O1230 Nd1201 2.410 . S
O1230 C1219 1.251 . S
O1231 Nd1200 2.424 . S
O1231 C1219 1.268 . S
H1232 C1204 0.930 . S
H1233 C1205 0.929 1_554 S
H1234 C1207 0.930 . S
H1235 C1208 0.929 . S
H1236 C1213 0.930 . S
H1237 C1214 0.929 . S
H1238 C1216 0.930 . S
H1239 C1217 0.929 . S
Nd1240 C1242 2.836 . S
Nd1240 O1260 2.500 . S
Nd1240 O1261 2.492 . S
Nd1240 O1262 2.487 . S
Nd1240 O1263 2.682 . S
Nd1240 O1264 2.410 . S
Nd1240 O1269 2.414 . S
Nd1240 O1271 2.424 . S
Nd1241 C1251 2.836 . S
Nd1241 O1263 2.414 . S
Nd1241 O1265 2.424 . S
Nd1241 O1266 2.500 . S
Nd1241 O1267 2.492 . S
Nd1241 O1268 2.487 . S
Nd1241 O1269 2.682 . S
Nd1241 O1270 2.410 . S
C1242 Nd1240 2.836 . S
C1242 C1243 1.498 . S
C1242 O1260 1.258 . S
C1242 O1261 1.239 . S
C1243 C1242 1.498 . S
C1243 C1244 1.366 . S
C1243 C1248 1.407 . S
C1244 C1243 1.366 . S
C1244 C1245 1.392 . S
C1244 H1272 0.930 . S
C1245 C1244 1.392 . S
C1245 C1246 1.398 1_556 S
C1245 H1273 0.929 1_556 S
C1246 C1245 1.398 1_554 S
C1246 C1247 1.352 1_554 S
C1247 C1246 1.352 1_556 S
C1247 C1248 1.384 . S
C1247 H1274 0.930 . S
C1248 C1243 1.407 . S
C1248 C1247 1.384 . S
C1248 H1275 0.929 . S
C1249 O1262 1.241 . S
C1249 O1263 1.273 . S
C1250 O1264 1.251 . S
C1250 O1265 1.268 . S
C1251 Nd1241 2.836 . S
C1251 C1252 1.498 . S
C1251 O1266 1.258 . S
C1251 O1267 1.239 . S
C1252 C1251 1.498 . S
C1252 C1253 1.366 . S
C1252 C1257 1.407 . S
C1253 C1252 1.366 . S
C1253 C1254 1.392 . S
C1253 H1276 0.930 . S
C1254 C1253 1.392 . S
C1254 C1255 1.398 . S
C1254 H1277 0.929 . S
C1255 C1254 1.398 . S
C1255 C1256 1.352 . S
C1256 C1255 1.352 . S
C1256 C1257 1.384 . S
C1256 H1278 0.930 . S
C1257 C1252 1.407 . S
C1257 C1256 1.384 . S
C1257 H1279 0.929 . S
C1258 O1268 1.241 . S
C1258 O1269 1.273 . S
C1259 O1270 1.251 . S
C1259 O1271 1.268 . S
O1260 Nd1240 2.500 . S
O1260 C1242 1.258 . S
O1261 Nd1240 2.492 . S
O1261 C1242 1.239 . S
O1262 Nd1240 2.487 . S
O1262 C1249 1.241 . S
O1263 Nd1240 2.682 . S
O1263 Nd1241 2.414 . S
O1263 C1249 1.273 . S
O1264 Nd1240 2.410 . S
O1264 C1250 1.251 . S
O1265 Nd1241 2.424 . S
O1265 C1250 1.268 . S
O1266 Nd1241 2.500 . S
O1266 C1251 1.258 . S
O1267 Nd1241 2.492 . S
O1267 C1251 1.239 . S
O1268 Nd1241 2.487 . S
O1268 C1258 1.241 . S
O1269 Nd1240 2.414 . S
O1269 Nd1241 2.682 . S
O1269 C1258 1.273 . S
O1270 Nd1241 2.410 . S
O1270 C1259 1.251 . S
O1271 Nd1240 2.424 . S
O1271 C1259 1.268 . S
H1272 C1244 0.930 . S
H1273 C1245 0.929 1_554 S
H1274 C1247 0.930 . S
H1275 C1248 0.929 . S
H1276 C1253 0.930 . S
H1277 C1254 0.929 . S
H1278 C1256 0.930 . S
H1279 C1257 0.929 . S
Nd1280 C1282 2.836 . S
Nd1280 O1300 2.500 . S
Nd1280 O1301 2.492 . S
Nd1280 O1302 2.487 . S
Nd1280 O1303 2.682 . S
Nd1280 O1304 2.410 . S
Nd1280 O1309 2.414 . S
Nd1280 O1311 2.424 . S
Nd1281 C1291 2.836 . S
Nd1281 O1303 2.414 . S
Nd1281 O1305 2.424 . S
Nd1281 O1306 2.500 . S
Nd1281 O1307 2.492 . S
Nd1281 O1308 2.487 . S
Nd1281 O1309 2.682 . S
Nd1281 O1310 2.410 . S
C1282 Nd1280 2.836 . S
C1282 C1283 1.498 . S
C1282 O1300 1.258 . S
C1282 O1301 1.239 . S
C1283 C1282 1.498 . S
C1283 C1284 1.366 . S
C1283 C1288 1.407 . S
C1284 C1283 1.366 . S
C1284 C1285 1.392 . S
C1284 H1312 0.930 . S
C1285 C1284 1.392 . S
C1285 C1286 1.398 1_556 S
C1285 H1313 0.929 1_556 S
C1286 C1285 1.398 1_554 S
C1286 C1287 1.352 1_554 S
C1287 C1286 1.352 1_556 S
C1287 C1288 1.384 . S
C1287 H1314 0.930 . S
C1288 C1283 1.407 . S
C1288 C1287 1.384 . S
C1288 H1315 0.929 . S
C1289 O1302 1.241 . S
C1289 O1303 1.273 . S
C1290 O1304 1.251 . S
C1290 O1305 1.268 . S
C1291 Nd1281 2.836 . S
C1291 C1292 1.498 . S
C1291 O1306 1.258 . S
C1291 O1307 1.239 . S
C1292 C1291 1.498 . S
C1292 C1293 1.366 . S
C1292 C1297 1.407 . S
C1293 C1292 1.366 . S
C1293 C1294 1.392 . S
C1293 H1316 0.930 . S
C1294 C1293 1.392 . S
C1294 C1295 1.398 . S
C1294 H1317 0.929 . S
C1295 C1294 1.398 . S
C1295 C1296 1.352 . S
C1296 C1295 1.352 . S
C1296 C1297 1.384 . S
C1296 H1318 0.930 . S
C1297 C1292 1.407 . S
C1297 C1296 1.384 . S
C1297 H1319 0.929 . S
C1298 O1308 1.241 . S
C1298 O1309 1.273 . S
C1299 O1310 1.251 . S
C1299 O1311 1.268 . S
O1300 Nd1280 2.500 . S
O1300 C1282 1.258 . S
O1301 Nd1280 2.492 . S
O1301 C1282 1.239 . S
O1302 Nd1280 2.487 . S
O1302 C1289 1.241 . S
O1303 Nd1280 2.682 . S
O1303 Nd1281 2.414 . S
O1303 C1289 1.273 . S
O1304 Nd1280 2.410 . S
O1304 C1290 1.251 . S
O1305 Nd1281 2.424 . S
O1305 C1290 1.268 . S
O1306 Nd1281 2.500 . S
O1306 C1291 1.258 . S
O1307 Nd1281 2.492 . S
O1307 C1291 1.239 . S
O1308 Nd1281 2.487 . S
O1308 C1298 1.241 . S
O1309 Nd1280 2.414 . S
O1309 Nd1281 2.682 . S
O1309 C1298 1.273 . S
O1310 Nd1281 2.410 . S
O1310 C1299 1.251 . S
O1311 Nd1280 2.424 . S
O1311 C1299 1.268 . S
H1312 C1284 0.930 . S
H1313 C1285 0.929 1_554 S
H1314 C1287 0.930 . S
H1315 C1288 0.929 . S
H1316 C1293 0.930 . S
H1317 C1294 0.929 . S
H1318 C1296 0.930 . S
H1319 C1297 0.929 . S
Nd1320 C1322 2.836 . S
Nd1320 O1340 2.500 . S
Nd1320 O1341 2.492 . S
Nd1320 O1342 2.487 . S
Nd1320 O1343 2.682 . S
Nd1320 O1344 2.410 . S
Nd1320 O1349 2.414 . S
Nd1320 O1351 2.424 . S
Nd1321 C1331 2.836 . S
Nd1321 O1343 2.414 . S
Nd1321 O1345 2.424 . S
Nd1321 O1346 2.500 . S
Nd1321 O1347 2.492 . S
Nd1321 O1348 2.487 . S
Nd1321 O1349 2.682 . S
Nd1321 O1350 2.410 . S
C1322 Nd1320 2.836 . S
C1322 C1323 1.498 . S
C1322 O1340 1.258 . S
C1322 O1341 1.239 . S
C1323 C1322 1.498 . S
C1323 C1324 1.366 . S
C1323 C1328 1.407 . S
C1324 C1323 1.366 . S
C1324 C1325 1.392 1_554 S
C1324 H1352 0.930 . S
C1325 C1324 1.392 1_556 S
C1325 C1326 1.398 . S
C1325 H1353 0.929 . S
C1326 C1325 1.398 . S
C1326 C1327 1.352 . S
C1327 C1326 1.352 . S
C1327 C1328 1.384 1_556 S
C1327 H1354 0.930 . S
C1328 C1323 1.407 . S
C1328 C1327 1.384 1_554 S
C1328 H1355 0.929 . S
C1329 O1342 1.241 . S
C1329 O1343 1.273 . S
C1330 O1344 1.251 . S
C1330 O1345 1.268 . S
C1331 Nd1321 2.836 . S
C1331 C1332 1.498 . S
C1331 O1346 1.258 . S
C1331 O1347 1.239 . S
C1332 C1331 1.498 . S
C1332 C1333 1.366 . S
C1332 C1337 1.407 . S
C1333 C1332 1.366 . S
C1333 C1334 1.392 . S
C1333 H1356 0.930 . S
C1334 C1333 1.392 . S
C1334 C1335 1.398 . S
C1334 H1357 0.929 . S
C1335 C1334 1.398 . S
C1335 C1336 1.352 . S
C1336 C1335 1.352 . S
C1336 C1337 1.384 . S
C1336 H1358 0.930 . S
C1337 C1332 1.407 . S
C1337 C1336 1.384 . S
C1337 H1359 0.929 . S
C1338 O1348 1.241 . S
C1338 O1349 1.273 . S
C1339 O1350 1.251 . S
C1339 O1351 1.268 . S
O1340 Nd1320 2.500 . S
O1340 C1322 1.258 . S
O1341 Nd1320 2.492 . S
O1341 C1322 1.239 . S
O1342 Nd1320 2.487 . S
O1342 C1329 1.241 . S
O1343 Nd1320 2.682 . S
O1343 Nd1321 2.414 . S
O1343 C1329 1.273 . S
O1344 Nd1320 2.410 . S
O1344 C1330 1.251 . S
O1345 Nd1321 2.424 . S
O1345 C1330 1.268 . S
O1346 Nd1321 2.500 . S
O1346 C1331 1.258 . S
O1347 Nd1321 2.492 . S
O1347 C1331 1.239 . S
O1348 Nd1321 2.487 . S
O1348 C1338 1.241 . S
O1349 Nd1320 2.414 . S
O1349 Nd1321 2.682 . S
O1349 C1338 1.273 . S
O1350 Nd1321 2.410 . S
O1350 C1339 1.251 . S
O1351 Nd1320 2.424 . S
O1351 C1339 1.268 . S
H1352 C1324 0.930 . S
H1353 C1325 0.929 . S
H1354 C1327 0.930 . S
H1355 C1328 0.929 . S
H1356 C1333 0.930 . S
H1357 C1334 0.929 . S
H1358 C1336 0.930 . S
H1359 C1337 0.929 . S
Nd1360 C1362 2.836 . S
Nd1360 O1380 2.500 . S
Nd1360 O1381 2.492 . S
Nd1360 O1382 2.487 . S
Nd1360 O1383 2.682 . S
Nd1360 O1384 2.410 . S
Nd1360 O1389 2.414 . S
Nd1360 O1391 2.424 . S
Nd1361 C1371 2.836 . S
Nd1361 O1383 2.414 . S
Nd1361 O1385 2.424 . S
Nd1361 O1386 2.500 . S
Nd1361 O1387 2.492 . S
Nd1361 O1388 2.487 . S
Nd1361 O1389 2.682 . S
Nd1361 O1390 2.410 . S
C1362 Nd1360 2.836 . S
C1362 C1363 1.498 . S
C1362 O1380 1.258 . S
C1362 O1381 1.239 . S
C1363 C1362 1.498 . S
C1363 C1364 1.366 . S
C1363 C1368 1.407 . S
C1364 C1363 1.366 . S
C1364 C1365 1.392 1_554 S
C1364 H1392 0.930 . S
C1365 C1364 1.392 1_556 S
C1365 C1366 1.398 . S
C1365 H1393 0.929 . S
C1366 C1365 1.398 . S
C1366 C1367 1.352 . S
C1367 C1366 1.352 . S
C1367 C1368 1.384 1_556 S
C1367 H1394 0.930 . S
C1368 C1363 1.407 . S
C1368 C1367 1.384 1_554 S
C1368 H1395 0.929 . S
C1369 O1382 1.241 . S
C1369 O1383 1.273 . S
C1370 O1384 1.251 . S
C1370 O1385 1.268 . S
C1371 Nd1361 2.836 . S
C1371 C1372 1.498 . S
C1371 O1386 1.258 . S
C1371 O1387 1.239 . S
C1372 C1371 1.498 . S
C1372 C1373 1.366 . S
C1372 C1377 1.407 . S
C1373 C1372 1.366 . S
C1373 C1374 1.392 . S
C1373 H1396 0.930 . S
C1374 C1373 1.392 . S
C1374 C1375 1.398 . S
C1374 H1397 0.929 . S
C1375 C1374 1.398 . S
C1375 C1376 1.352 . S
C1376 C1375 1.352 . S
C1376 C1377 1.384 . S
C1376 H1398 0.930 . S
C1377 C1372 1.407 . S
C1377 C1376 1.384 . S
C1377 H1399 0.929 . S
C1378 O1388 1.241 . S
C1378 O1389 1.273 . S
C1379 O1390 1.251 . S
C1379 O1391 1.268 . S
O1380 Nd1360 2.500 . S
O1380 C1362 1.258 . S
O1381 Nd1360 2.492 . S
O1381 C1362 1.239 . S
O1382 Nd1360 2.487 . S
O1382 C1369 1.241 . S
O1383 Nd1360 2.682 . S
O1383 Nd1361 2.414 . S
O1383 C1369 1.273 . S
O1384 Nd1360 2.410 . S
O1384 C1370 1.251 . S
O1385 Nd1361 2.424 . S
O1385 C1370 1.268 . S
O1386 Nd1361 2.500 . S
O1386 C1371 1.258 . S
O1387 Nd1361 2.492 . S
O1387 C1371 1.239 . S
O1388 Nd1361 2.487 . S
O1388 C1378 1.241 . S
O1389 Nd1360 2.414 . S
O1389 Nd1361 2.682 . S
O1389 C1378 1.273 . S
O1390 Nd1361 2.410 . S
O1390 C1379 1.251 . S
O1391 Nd1360 2.424 . S
O1391 C1379 1.268 . S
H1392 C1364 0.930 . S
H1393 C1365 0.929 . S
H1394 C1367 0.930 . S
H1395 C1368 0.929 . S
H1396 C1373 0.930 . S
H1397 C1374 0.929 . S
H1398 C1376 0.930 . S
H1399 C1377 0.929 . S
Nd1400 C1402 2.836 . S
Nd1400 O1420 2.500 . S
Nd1400 O1421 2.492 . S
Nd1400 O1422 2.487 . S
Nd1400 O1423 2.682 . S
Nd1400 O1424 2.410 . S
Nd1400 O1429 2.414 . S
Nd1400 O1431 2.424 . S
Nd1401 C1411 2.836 . S
Nd1401 O1423 2.414 . S
Nd1401 O1425 2.424 . S
Nd1401 O1426 2.500 . S
Nd1401 O1427 2.492 . S
Nd1401 O1428 2.487 . S
Nd1401 O1429 2.682 . S
Nd1401 O1430 2.410 . S
C1402 Nd1400 2.836 . S
C1402 C1403 1.498 . S
C1402 O1420 1.258 . S
C1402 O1421 1.239 . S
C1403 C1402 1.498 . S
C1403 C1404 1.366 . S
C1403 C1408 1.407 . S
C1404 C1403 1.366 . S
C1404 C1405 1.392 1_554 S
C1404 H1432 0.930 . S
C1405 C1404 1.392 1_556 S
C1405 C1406 1.398 . S
C1405 H1433 0.929 . S
C1406 C1405 1.398 . S
C1406 C1407 1.352 . S
C1407 C1406 1.352 . S
C1407 C1408 1.384 1_556 S
C1407 H1434 0.930 . S
C1408 C1403 1.407 . S
C1408 C1407 1.384 1_554 S
C1408 H1435 0.929 . S
C1409 O1422 1.241 . S
C1409 O1423 1.273 . S
C1410 O1424 1.251 . S
C1410 O1425 1.268 . S
C1411 Nd1401 2.836 . S
C1411 C1412 1.498 . S
C1411 O1426 1.258 . S
C1411 O1427 1.239 . S
C1412 C1411 1.498 . S
C1412 C1413 1.366 . S
C1412 C1417 1.407 . S
C1413 C1412 1.366 . S
C1413 C1414 1.392 . S
C1413 H1436 0.930 . S
C1414 C1413 1.392 . S
C1414 C1415 1.398 . S
C1414 H1437 0.929 . S
C1415 C1414 1.398 . S
C1415 C1416 1.352 . S
C1416 C1415 1.352 . S
C1416 C1417 1.384 . S
C1416 H1438 0.930 . S
C1417 C1412 1.407 . S
C1417 C1416 1.384 . S
C1417 H1439 0.929 . S
C1418 O1428 1.241 . S
C1418 O1429 1.273 . S
C1419 O1430 1.251 . S
C1419 O1431 1.268 . S
O1420 Nd1400 2.500 . S
O1420 C1402 1.258 . S
O1421 Nd1400 2.492 . S
O1421 C1402 1.239 . S
O1422 Nd1400 2.487 . S
O1422 C1409 1.241 . S
O1423 Nd1400 2.682 . S
O1423 Nd1401 2.414 . S
O1423 C1409 1.273 . S
O1424 Nd1400 2.410 . S
O1424 C1410 1.251 . S
O1425 Nd1401 2.424 . S
O1425 C1410 1.268 . S
O1426 Nd1401 2.500 . S
O1426 C1411 1.258 . S
O1427 Nd1401 2.492 . S
O1427 C1411 1.239 . S
O1428 Nd1401 2.487 . S
O1428 C1418 1.241 . S
O1429 Nd1400 2.414 . S
O1429 Nd1401 2.682 . S
O1429 C1418 1.273 . S
O1430 Nd1401 2.410 . S
O1430 C1419 1.251 . S
O1431 Nd1400 2.424 . S
O1431 C1419 1.268 . S
H1432 C1404 0.930 . S
H1433 C1405 0.929 . S
H1434 C1407 0.930 . S
H1435 C1408 0.929 . S
H1436 C1413 0.930 . S
H1437 C1414 0.929 . S
H1438 C1416 0.930 . S
H1439 C1417 0.929 . S
H1440 C1446 0.930 . S
H1441 C1450 0.930 . S
H1442 C1455 0.929 . S
H1443 C1453 0.929 . S
H1444 C1448 0.929 . S
H1445 C1454 0.929 . S
C1446 H1440 0.930 . S
C1446 C1447 1.367 . S
C1446 C1454 1.378 . S
C1447 C1446 1.367 . S
C1447 C1455 1.433 . S
C1448 H1444 0.929 . S
C1448 C1450 1.378 . S
C1448 C1452 1.350 . S
C1449 C1452 1.463 . S
C1449 C1454 1.350 . S
C1449 N1457 1.427 . S
C1450 H1441 0.930 . S
C1450 C1448 1.378 . S
C1450 C1451 1.367 . S
C1451 C1450 1.367 . S
C1451 C1453 1.433 . S
C1452 C1448 1.350 . S
C1452 C1449 1.463 . S
C1452 N1456 1.427 . S
C1453 H1443 0.929 . S
C1453 C1451 1.433 . S
C1453 N1456 1.384 . S
C1454 H1445 0.929 . S
C1454 C1446 1.378 . S
C1454 C1449 1.350 . S
C1455 H1442 0.929 . S
C1455 C1447 1.433 . S
C1455 N1457 1.384 . S
N1456 C1452 1.427 . S
N1456 C1453 1.384 . S
N1457 C1449 1.427 . S
N1457 C1455 1.384 . S
H1458 C1464 0.930 . S
H1459 C1468 0.930 . S
H1460 C1473 0.929 . S
H1461 C1471 0.929 . S
H1462 C1466 0.929 . S
H1463 C1472 0.929 . S
C1464 H1458 0.930 . S
C1464 C1465 1.367 . S
C1464 C1472 1.378 . S
C1465 C1464 1.367 . S
C1465 C1473 1.433 1_556 S
C1466 H1462 0.929 . S
C1466 C1468 1.378 . S
C1466 C1470 1.350 1_554 S
C1467 C1470 1.463 . S
C1467 C1472 1.350 . S
C1467 N1475 1.427 1_556 S
C1468 H1459 0.930 . S
C1468 C1466 1.378 . S
C1468 C1469 1.367 1_554 S
C1469 C1468 1.367 1_556 S
C1469 C1471 1.433 . S
C1470 C1466 1.350 1_556 S
C1470 C1467 1.463 . S
C1470 N1474 1.427 . S
C1471 H1461 0.929 . S
C1471 C1469 1.433 . S
C1471 N1474 1.384 . S
C1472 H1463 0.929 . S
C1472 C1464 1.378 . S
C1472 C1467 1.350 . S
C1473 H1460 0.929 . S
C1473 C1465 1.433 1_554 S
C1473 N1475 1.384 . S
N1474 C1470 1.427 . S
N1474 C1471 1.384 . S
N1475 C1467 1.427 1_554 S
N1475 C1473 1.384 . S
H1476 C1482 0.930 . S
H1477 C1486 0.930 . S
H1478 C1491 0.929 . S
H1479 C1489 0.929 . S
H1480 C1484 0.929 . S
H1481 C1490 0.929 . S
C1482 H1476 0.930 . S
C1482 C1483 1.367 . S
C1482 C1490 1.378 . S
C1483 C1482 1.367 . S
C1483 C1491 1.433 1_556 S
C1484 H1480 0.929 . S
C1484 C1486 1.378 . S
C1484 C1488 1.350 1_554 S
C1485 C1488 1.463 . S
C1485 C1490 1.350 . S
C1485 N1493 1.427 1_556 S
C1486 H1477 0.930 . S
C1486 C1484 1.378 . S
C1486 C1487 1.367 1_554 S
C1487 C1486 1.367 1_556 S
C1487 C1489 1.433 . S
C1488 C1484 1.350 1_556 S
C1488 C1485 1.463 . S
C1488 N1492 1.427 . S
C1489 H1479 0.929 . S
C1489 C1487 1.433 . S
C1489 N1492 1.384 . S
C1490 H1481 0.929 . S
C1490 C1482 1.378 . S
C1490 C1485 1.350 . S
C1491 H1478 0.929 . S
C1491 C1483 1.433 1_554 S
C1491 N1493 1.384 . S
N1492 C1488 1.427 . S
N1492 C1489 1.384 . S
N1493 C1485 1.427 1_554 S
N1493 C1491 1.384 . S
H1494 C1500 0.930 . S
H1495 C1504 0.930 . S
H1496 C1509 0.929 . S
H1497 C1507 0.929 . S
H1498 C1502 0.929 . S
H1499 C1508 0.929 . S
C1500 H1494 0.930 . S
C1500 C1501 1.367 . S
C1500 C1508 1.378 . S
C1501 C1500 1.367 . S
C1501 C1509 1.433 . S
C1502 H1498 0.929 . S
C1502 C1504 1.378 . S
C1502 C1506 1.350 . S
C1503 C1506 1.463 . S
C1503 C1508 1.350 . S
C1503 N1511 1.427 . S
C1504 H1495 0.930 . S
C1504 C1502 1.378 . S
C1504 C1505 1.367 . S
C1505 C1504 1.367 . S
C1505 C1507 1.433 . S
C1506 C1502 1.350 . S
C1506 C1503 1.463 . S
C1506 N1510 1.427 . S
C1507 H1497 0.929 . S
C1507 C1505 1.433 . S
C1507 N1510 1.384 . S
C1508 H1499 0.929 . S
C1508 C1500 1.378 . S
C1508 C1503 1.350 . S
C1509 H1496 0.929 . S
C1509 C1501 1.433 . S
C1509 N1511 1.384 . S
N1510 C1506 1.427 . S
N1510 C1507 1.384 . S
N1511 C1503 1.427 . S
N1511 C1509 1.384 . S
H1512 C1518 0.930 . S
H1513 C1522 0.930 . S
H1514 C1527 0.929 . S
H1515 C1525 0.929 . S
H1516 C1520 0.929 . S
H1517 C1526 0.929 . S
C1518 H1512 0.930 . S
C1518 C1519 1.367 . S
C1518 C1526 1.378 . S
C1519 C1518 1.367 . S
C1519 C1527 1.433 . S
C1520 H1516 0.929 . S
C1520 C1522 1.378 . S
C1520 C1524 1.350 . S
C1521 C1524 1.463 . S
C1521 C1526 1.350 . S
C1521 N1529 1.427 . S
C1522 H1513 0.930 . S
C1522 C1520 1.378 . S
C1522 C1523 1.367 . S
C1523 C1522 1.367 . S
C1523 C1525 1.433 . S
C1524 C1520 1.350 . S
C1524 C1521 1.463 . S
C1524 N1528 1.427 . S
C1525 H1515 0.929 . S
C1525 C1523 1.433 . S
C1525 N1528 1.384 . S
C1526 H1517 0.929 . S
C1526 C1518 1.378 . S
C1526 C1521 1.350 . S
C1527 H1514 0.929 . S
C1527 C1519 1.433 . S
C1527 N1529 1.384 . S
N1528 C1524 1.427 . S
N1528 C1525 1.384 . S
N1529 C1521 1.427 . S
N1529 C1527 1.384 . S
H1530 C1536 0.930 . S
H1531 C1540 0.930 . S
H1532 C1545 0.929 . S
H1533 C1543 0.929 . S
H1534 C1538 0.929 . S
H1535 C1544 0.929 . S
C1536 H1530 0.930 . S
C1536 C1537 1.367 . S
C1536 C1544 1.378 . S
C1537 C1536 1.367 . S
C1537 C1545 1.433 . S
C1538 H1534 0.929 . S
C1538 C1540 1.378 . S
C1538 C1542 1.350 . S
C1539 C1542 1.463 . S
C1539 C1544 1.350 . S
C1539 N1547 1.427 . S
C1540 H1531 0.930 . S
C1540 C1538 1.378 . S
C1540 C1541 1.367 . S
C1541 C1540 1.367 . S
C1541 C1543 1.433 . S
C1542 C1538 1.350 . S
C1542 C1539 1.463 . S
C1542 N1546 1.427 . S
C1543 H1533 0.929 . S
C1543 C1541 1.433 . S
C1543 N1546 1.384 . S
C1544 H1535 0.929 . S
C1544 C1536 1.378 . S
C1544 C1539 1.350 . S
C1545 H1532 0.929 . S
C1545 C1537 1.433 . S
C1545 N1547 1.384 . S
N1546 C1542 1.427 . S
N1546 C1543 1.384 . S
N1547 C1539 1.427 . S
N1547 C1545 1.384 . S
H1548 C1554 0.930 . S
H1549 C1558 0.930 . S
H1550 C1563 0.929 . S
H1551 C1561 0.929 . S
H1552 C1556 0.929 . S
H1553 C1562 0.929 . S
C1554 H1548 0.930 . S
C1554 C1555 1.367 . S
C1554 C1562 1.378 . S
C1555 C1554 1.367 . S
C1555 C1563 1.433 . S
C1556 H1552 0.929 . S
C1556 C1558 1.378 . S
C1556 C1560 1.350 . S
C1557 C1560 1.463 . S
C1557 C1562 1.350 . S
C1557 N1565 1.427 . S
C1558 H1549 0.930 . S
C1558 C1556 1.378 . S
C1558 C1559 1.367 . S
C1559 C1558 1.367 . S
C1559 C1561 1.433 . S
C1560 C1556 1.350 . S
C1560 C1557 1.463 . S
C1560 N1564 1.427 . S
C1561 H1551 0.929 . S
C1561 C1559 1.433 . S
C1561 N1564 1.384 . S
C1562 H1553 0.929 . S
C1562 C1554 1.378 . S
C1562 C1557 1.350 . S
C1563 H1550 0.929 . S
C1563 C1555 1.433 . S
C1563 N1565 1.384 . S
N1564 C1560 1.427 . S
N1564 C1561 1.384 . S
N1565 C1557 1.427 . S
N1565 C1563 1.384 . S
H1566 C1572 0.930 . S
H1567 C1576 0.930 . S
H1568 C1581 0.929 . S
H1569 C1579 0.929 . S
H1570 C1574 0.929 . S
H1571 C1580 0.929 . S
C1572 H1566 0.930 . S
C1572 C1573 1.367 . S
C1572 C1580 1.378 . S
C1573 C1572 1.367 . S
C1573 C1581 1.433 . S
C1574 H1570 0.929 . S
C1574 C1576 1.378 . S
C1574 C1578 1.350 . S
C1575 C1578 1.463 . S
C1575 C1580 1.350 . S
C1575 N1583 1.427 . S
C1576 H1567 0.930 . S
C1576 C1574 1.378 . S
C1576 C1577 1.367 . S
C1577 C1576 1.367 . S
C1577 C1579 1.433 . S
C1578 C1574 1.350 . S
C1578 C1575 1.463 . S
C1578 N1582 1.427 . S
C1579 H1569 0.929 . S
C1579 C1577 1.433 . S
C1579 N1582 1.384 . S
C1580 H1571 0.929 . S
C1580 C1572 1.378 . S
C1580 C1575 1.350 . S
C1581 H1568 0.929 . S
C1581 C1573 1.433 . S
C1581 N1583 1.384 . S
N1582 C1578 1.427 . S
N1582 C1579 1.384 . S
N1583 C1575 1.427 . S
N1583 C1581 1.384 . S
H1584 C1590 0.930 . S
H1585 C1594 0.930 . S
H1586 C1599 0.929 . S
H1587 C1597 0.929 . S
H1588 C1592 0.929 . S
H1589 C1598 0.929 . S
C1590 H1584 0.930 . S
C1590 C1591 1.367 . S
C1590 C1598 1.378 . S
C1591 C1590 1.367 . S
C1591 C1599 1.433 . S
C1592 H1588 0.929 . S
C1592 C1594 1.378 . S
C1592 C1596 1.350 . S
C1593 C1596 1.463 . S
C1593 C1598 1.350 . S
C1593 N1601 1.427 . S
C1594 H1585 0.930 . S
C1594 C1592 1.378 . S
C1594 C1595 1.367 . S
C1595 C1594 1.367 . S
C1595 C1597 1.433 . S
C1596 C1592 1.350 . S
C1596 C1593 1.463 . S
C1596 N1600 1.427 . S
C1597 H1587 0.929 . S
C1597 C1595 1.433 . S
C1597 N1600 1.384 . S
C1598 H1589 0.929 . S
C1598 C1590 1.378 . S
C1598 C1593 1.350 . S
C1599 H1586 0.929 . S
C1599 C1591 1.433 . S
C1599 N1601 1.384 . S
N1600 C1596 1.427 . S
N1600 C1597 1.384 . S
N1601 C1593 1.427 . S
N1601 C1599 1.384 . S
H1602 C1608 0.930 . S
H1603 C1612 0.930 . S
H1604 C1617 0.929 . S
H1605 C1615 0.929 . S
H1606 C1610 0.929 . S
H1607 C1616 0.929 . S
C1608 H1602 0.930 . S
C1608 C1609 1.367 . S
C1608 C1616 1.378 . S
C1609 C1608 1.367 . S
C1609 C1617 1.433 . S
C1610 H1606 0.929 . S
C1610 C1612 1.378 . S
C1610 C1614 1.350 . S
C1611 C1614 1.463 . S
C1611 C1616 1.350 . S
C1611 N1619 1.427 . S
C1612 H1603 0.930 . S
C1612 C1610 1.378 . S
C1612 C1613 1.367 . S
C1613 C1612 1.367 . S
C1613 C1615 1.433 . S
C1614 C1610 1.350 . S
C1614 C1611 1.463 . S
C1614 N1618 1.427 . S
C1615 H1605 0.929 . S
C1615 C1613 1.433 . S
C1615 N1618 1.384 . S
C1616 H1607 0.929 . S
C1616 C1608 1.378 . S
C1616 C1611 1.350 . S
C1617 H1604 0.929 . S
C1617 C1609 1.433 . S
C1617 N1619 1.384 . S
N1618 C1614 1.427 . S
N1618 C1615 1.384 . S
N1619 C1611 1.427 . S
N1619 C1617 1.384 . S
H1620 C1626 0.930 . S
H1621 C1630 0.930 . S
H1622 C1635 0.929 . S
H1623 C1633 0.929 . S
H1624 C1628 0.929 . S
H1625 C1634 0.929 . S
C1626 H1620 0.930 . S
C1626 C1627 1.367 . S
C1626 C1634 1.378 . S
C1627 C1626 1.367 . S
C1627 C1635 1.433 . S
C1628 H1624 0.929 . S
C1628 C1630 1.378 . S
C1628 C1632 1.350 . S
C1629 C1632 1.463 . S
C1629 C1634 1.350 . S
C1629 N1637 1.427 . S
C1630 H1621 0.930 . S
C1630 C1628 1.378 . S
C1630 C1631 1.367 . S
C1631 C1630 1.367 . S
C1631 C1633 1.433 . S
C1632 C1628 1.350 . S
C1632 C1629 1.463 . S
C1632 N1636 1.427 . S
C1633 H1623 0.929 . S
C1633 C1631 1.433 . S
C1633 N1636 1.384 . S
C1634 H1625 0.929 . S
C1634 C1626 1.378 . S
C1634 C1629 1.350 . S
C1635 H1622 0.929 . S
C1635 C1627 1.433 . S
C1635 N1637 1.384 . S
N1636 C1632 1.427 . S
N1636 C1633 1.384 . S
N1637 C1629 1.427 . S
N1637 C1635 1.384 . S
H1638 C1644 0.930 . S
H1639 C1648 0.930 . S
H1640 C1653 0.929 . S
H1641 C1651 0.929 . S
H1642 C1646 0.929 . S
H1643 C1652 0.929 . S
C1644 H1638 0.930 . S
C1644 C1645 1.367 . S
C1644 C1652 1.378 . S
C1645 C1644 1.367 . S
C1645 C1653 1.433 . S
C1646 H1642 0.929 . S
C1646 C1648 1.378 . S
C1646 C1650 1.350 . S
C1647 C1650 1.463 . S
C1647 C1652 1.350 . S
C1647 N1655 1.427 . S
C1648 H1639 0.930 . S
C1648 C1646 1.378 . S
C1648 C1649 1.367 . S
C1649 C1648 1.367 . S
C1649 C1651 1.433 . S
C1650 C1646 1.350 . S
C1650 C1647 1.463 . S
C1650 N1654 1.427 . S
C1651 H1641 0.929 . S
C1651 C1649 1.433 . S
C1651 N1654 1.384 . S
C1652 H1643 0.929 . S
C1652 C1644 1.378 . S
C1652 C1647 1.350 . S
C1653 H1640 0.929 . S
C1653 C1645 1.433 . S
C1653 N1655 1.384 . S
N1654 C1650 1.427 . S
N1654 C1651 1.384 . S
N1655 C1647 1.427 . S
N1655 C1653 1.384 . S
H1656 C1662 0.930 . S
H1657 C1666 0.930 . S
H1658 C1671 0.929 . S
H1659 C1669 0.929 . S
H1660 C1664 0.929 . S
H1661 C1670 0.929 . S
C1662 H1656 0.930 . S
C1662 C1663 1.367 . S
C1662 C1670 1.378 . S
C1663 C1662 1.367 . S
C1663 C1671 1.433 . S
C1664 H1660 0.929 . S
C1664 C1666 1.378 . S
C1664 C1668 1.350 . S
C1665 C1668 1.463 . S
C1665 C1670 1.350 . S
C1665 N1673 1.427 . S
C1666 H1657 0.930 . S
C1666 C1664 1.378 . S
C1666 C1667 1.367 . S
C1667 C1666 1.367 . S
C1667 C1669 1.433 . S
C1668 C1664 1.350 . S
C1668 C1665 1.463 . S
C1668 N1672 1.427 . S
C1669 H1659 0.929 . S
C1669 C1667 1.433 . S
C1669 N1672 1.384 . S
C1670 H1661 0.929 . S
C1670 C1662 1.378 . S
C1670 C1665 1.350 . S
C1671 H1658 0.929 . S
C1671 C1663 1.433 . S
C1671 N1673 1.384 . S
N1672 C1668 1.427 . S
N1672 C1669 1.384 . S
N1673 C1665 1.427 . S
N1673 C1671 1.384 . S
H1674 C1680 0.930 . S
H1675 C1684 0.930 . S
H1676 C1689 0.929 . S
H1677 C1687 0.929 . S
H1678 C1682 0.929 . S
H1679 C1688 0.929 . S
C1680 H1674 0.930 . S
C1680 C1681 1.367 . S
C1680 C1688 1.378 . S
C1681 C1680 1.367 . S
C1681 C1689 1.433 . S
C1682 H1678 0.929 . S
C1682 C1684 1.378 . S
C1682 C1686 1.350 . S
C1683 C1686 1.463 1_565 S
C1683 C1688 1.350 . S
C1683 N1691 1.427 . S
C1684 H1675 0.930 . S
C1684 C1682 1.378 . S
C1684 C1685 1.367 . S
C1685 C1684 1.367 . S
C1685 C1687 1.433 . S
C1686 C1682 1.350 . S
C1686 C1683 1.463 1_545 S
C1686 N1690 1.427 . S
C1687 H1677 0.929 . S
C1687 C1685 1.433 . S
C1687 N1690 1.384 . S
C1688 H1679 0.929 . S
C1688 C1680 1.378 . S
C1688 C1683 1.350 . S
C1689 H1676 0.929 . S
C1689 C1681 1.433 . S
C1689 N1691 1.384 . S
N1690 C1686 1.427 . S
N1690 C1687 1.384 . S
N1691 C1683 1.427 . S
N1691 C1689 1.384 . S
H1692 C1698 0.930 . S
H1693 C1702 0.930 . S
H1694 C1707 0.929 . S
H1695 C1705 0.929 . S
H1696 C1700 0.929 . S
H1697 C1706 0.929 . S
C1698 H1692 0.930 . S
C1698 C1699 1.367 . S
C1698 C1706 1.378 . S
C1699 C1698 1.367 . S
C1699 C1707 1.433 . S
C1700 H1696 0.929 . S
C1700 C1702 1.378 . S
C1700 C1704 1.350 . S
C1701 C1704 1.463 1_655 S
C1701 C1706 1.350 . S
C1701 N1709 1.427 . S
C1702 H1693 0.930 . S
C1702 C1700 1.378 . S
C1702 C1703 1.367 . S
C1703 C1702 1.367 . S
C1703 C1705 1.433 . S
C1704 C1700 1.350 . S
C1704 C1701 1.463 1_455 S
C1704 N1708 1.427 . S
C1705 H1695 0.929 . S
C1705 C1703 1.433 . S
C1705 N1708 1.384 . S
C1706 H1697 0.929 . S
C1706 C1698 1.378 . S
C1706 C1701 1.350 . S
C1707 H1694 0.929 . S
C1707 C1699 1.433 . S
C1707 N1709 1.384 . S
N1708 C1704 1.427 . S
N1708 C1705 1.384 . S
N1709 C1701 1.427 . S
N1709 C1707 1.384 . S
H1710 C1716 0.930 . S
H1711 C1720 0.930 . S
H1712 C1725 0.929 . S
H1713 C1723 0.929 . S
H1714 C1718 0.929 . S
H1715 C1724 0.929 . S
C1716 H1710 0.930 . S
C1716 C1717 1.367 . S
C1716 C1724 1.378 . S
C1717 C1716 1.367 . S
C1717 C1725 1.433 . S
C1718 H1714 0.929 . S
C1718 C1720 1.378 . S
C1718 C1722 1.350 . S
C1719 C1722 1.463 . S
C1719 C1724 1.350 . S
C1719 N1727 1.427 . S
C1720 H1711 0.930 . S
C1720 C1718 1.378 . S
C1720 C1721 1.367 . S
C1721 C1720 1.367 . S
C1721 C1723 1.433 . S
C1722 C1718 1.350 . S
C1722 C1719 1.463 . S
C1722 N1726 1.427 . S
C1723 H1713 0.929 . S
C1723 C1721 1.433 . S
C1723 N1726 1.384 . S
C1724 H1715 0.929 . S
C1724 C1716 1.378 . S
C1724 C1719 1.350 . S
C1725 H1712 0.929 . S
C1725 C1717 1.433 . S
C1725 N1727 1.384 . S
N1726 C1722 1.427 . S
N1726 C1723 1.384 . S
N1727 C1719 1.427 . S
N1727 C1725 1.384 . S
H1728 C1734 0.930 . S
H1729 C1738 0.930 . S
H1730 C1743 0.929 . S
H1731 C1741 0.929 . S
H1732 C1736 0.929 . S
H1733 C1742 0.929 . S
C1734 H1728 0.930 . S
C1734 C1735 1.367 . S
C1734 C1742 1.378 . S
C1735 C1734 1.367 . S
C1735 C1743 1.433 . S
C1736 H1732 0.929 . S
C1736 C1738 1.378 . S
C1736 C1740 1.350 . S
C1737 C1740 1.463 1_545 S
C1737 C1742 1.350 . S
C1737 N1745 1.427 . S
C1738 H1729 0.930 . S
C1738 C1736 1.378 . S
C1738 C1739 1.367 . S
C1739 C1738 1.367 . S
C1739 C1741 1.433 . S
C1740 C1736 1.350 . S
C1740 C1737 1.463 1_565 S
C1740 N1744 1.427 . S
C1741 H1731 0.929 . S
C1741 C1739 1.433 . S
C1741 N1744 1.384 . S
C1742 H1733 0.929 . S
C1742 C1734 1.378 . S
C1742 C1737 1.350 . S
C1743 H1730 0.929 . S
C1743 C1735 1.433 . S
C1743 N1745 1.384 . S
N1744 C1740 1.427 . S
N1744 C1741 1.384 . S
N1745 C1737 1.427 . S
N1745 C1743 1.384 . S
H1746 C1752 0.930 . S
H1747 C1756 0.930 . S
H1748 C1761 0.929 . S
H1749 C1759 0.929 . S
H1750 C1754 0.929 . S
H1751 C1760 0.929 . S
C1752 H1746 0.930 . S
C1752 C1753 1.367 . S
C1752 C1760 1.378 . S
C1753 C1752 1.367 . S
C1753 C1761 1.433 . S
C1754 H1750 0.929 . S
C1754 C1756 1.378 . S
C1754 C1758 1.350 . S
C1755 C1758 1.463 1_455 S
C1755 C1760 1.350 . S
C1755 N1763 1.427 . S
C1756 H1747 0.930 . S
C1756 C1754 1.378 . S
C1756 C1757 1.367 . S
C1757 C1756 1.367 . S
C1757 C1759 1.433 . S
C1758 C1754 1.350 . S
C1758 C1755 1.463 1_655 S
C1758 N1762 1.427 . S
C1759 H1749 0.929 . S
C1759 C1757 1.433 . S
C1759 N1762 1.384 . S
C1760 H1751 0.929 . S
C1760 C1752 1.378 . S
C1760 C1755 1.350 . S
C1761 H1748 0.929 . S
C1761 C1753 1.433 . S
C1761 N1763 1.384 . S
N1762 C1758 1.427 . S
N1762 C1759 1.384 . S
N1763 C1755 1.427 . S
N1763 C1761 1.384 . S
H1764 C1770 0.930 . S
H1765 C1774 0.930 . S
H1766 C1779 0.929 . S
H1767 C1777 0.929 . S
H1768 C1772 0.929 1_455 S
H1769 C1778 0.929 1_655 S
C1770 H1764 0.930 . S
C1770 C1771 1.367 . S
C1770 C1778 1.378 . S
C1771 C1770 1.367 . S
C1771 C1779 1.433 . S
C1772 H1768 0.929 1_655 S
C1772 C1774 1.378 . S
C1772 C1776 1.350 . S
C1773 C1776 1.463 1_455 S
C1773 C1778 1.350 . S
C1773 N1781 1.427 . S
C1774 H1765 0.930 . S
C1774 C1772 1.378 . S
C1774 C1775 1.367 . S
C1775 C1774 1.367 . S
C1775 C1777 1.433 . S
C1776 C1772 1.350 . S
C1776 C1773 1.463 1_655 S
C1776 N1780 1.427 . S
C1777 H1767 0.929 . S
C1777 C1775 1.433 . S
C1777 N1780 1.384 . S
C1778 H1769 0.929 1_455 S
C1778 C1770 1.378 . S
C1778 C1773 1.350 . S
C1779 H1766 0.929 . S
C1779 C1771 1.433 . S
C1779 N1781 1.384 . S
N1780 C1776 1.427 . S
N1780 C1777 1.384 . S
N1781 C1773 1.427 . S
N1781 C1779 1.384 . S
H1782 C1788 0.930 . S
H1783 C1792 0.930 . S
H1784 C1797 0.929 . S
H1785 C1795 0.929 . S
H1786 C1790 0.929 . S
H1787 C1796 0.929 . S
C1788 H1782 0.930 . S
C1788 C1789 1.367 . S
C1788 C1796 1.378 . S
C1789 C1788 1.367 . S
C1789 C1797 1.433 . S
C1790 H1786 0.929 . S
C1790 C1792 1.378 . S
C1790 C1794 1.350 . S
C1791 C1794 1.463 . S
C1791 C1796 1.350 . S
C1791 N1799 1.427 . S
C1792 H1783 0.930 . S
C1792 C1790 1.378 . S
C1792 C1793 1.367 . S
C1793 C1792 1.367 . S
C1793 C1795 1.433 . S
C1794 C1790 1.350 . S
C1794 C1791 1.463 . S
C1794 N1798 1.427 . S
C1795 H1785 0.929 . S
C1795 C1793 1.433 . S
C1795 N1798 1.384 . S
C1796 H1787 0.929 . S
C1796 C1788 1.378 . S
C1796 C1791 1.350 . S
C1797 H1784 0.929 . S
C1797 C1789 1.433 . S
C1797 N1799 1.384 . S
N1798 C1794 1.427 . S
N1798 C1795 1.384 . S
N1799 C1791 1.427 . S
N1799 C1797 1.384 . S
H1800 C1806 0.930 . S
H1801 C1810 0.930 . S
H1802 C1815 0.929 . S
H1803 C1813 0.929 . S
H1804 C1808 0.929 . S
H1805 C1814 0.929 . S
C1806 H1800 0.930 . S
C1806 C1807 1.367 . S
C1806 C1814 1.378 1_565 S
C1807 C1806 1.367 . S
C1807 C1815 1.433 . S
C1808 H1804 0.929 . S
C1808 C1810 1.378 1_565 S
C1808 C1812 1.350 1_565 S
C1809 C1812 1.463 1_565 S
C1809 C1814 1.350 1_565 S
C1809 N1817 1.427 . S
C1810 H1801 0.930 . S
C1810 C1808 1.378 1_545 S
C1810 C1811 1.367 . S
C1811 C1810 1.367 . S
C1811 C1813 1.433 . S
C1812 C1808 1.350 1_545 S
C1812 C1809 1.463 1_545 S
C1812 N1816 1.427 . S
C1813 H1803 0.929 . S
C1813 C1811 1.433 . S
C1813 N1816 1.384 . S
C1814 H1805 0.929 . S
C1814 C1806 1.378 1_545 S
C1814 C1809 1.350 1_545 S
C1815 H1802 0.929 . S
C1815 C1807 1.433 . S
C1815 N1817 1.384 . S
N1816 C1812 1.427 . S
N1816 C1813 1.384 . S
N1817 C1809 1.427 . S
N1817 C1815 1.384 . S
H1818 C1824 0.930 . S
H1819 C1828 0.930 . S
H1820 C1833 0.929 . S
H1821 C1831 0.929 . S
H1822 C1826 0.929 . S
H1823 C1832 0.929 . S
C1824 H1818 0.930 . S
C1824 C1825 1.367 . S
C1824 C1832 1.378 . S
C1825 C1824 1.367 . S
C1825 C1833 1.433 . S
C1826 H1822 0.929 . S
C1826 C1828 1.378 . S
C1826 C1830 1.350 . S
C1827 C1830 1.463 1_655 S
C1827 C1832 1.350 . S
C1827 N1835 1.451 . S
C1828 H1819 0.930 . S
C1828 C1826 1.378 . S
C1828 C1829 1.367 . S
C1829 C1828 1.367 . S
C1829 C1831 1.433 . S
C1830 C1826 1.350 . S
C1830 C1827 1.463 1_455 S
C1830 N1834 1.452 . S
C1831 H1821 0.929 . S
C1831 C1829 1.433 . S
C1831 N1834 1.404 . S
C1832 H1823 0.929 . S
C1832 C1824 1.378 . S
C1832 C1827 1.350 . S
C1833 H1820 0.929 . S
C1833 C1825 1.433 . S
C1833 N1835 1.403 . S
N1834 C1830 1.452 . S
N1834 C1831 1.404 . S
N1835 C1827 1.451 . S
N1835 C1833 1.403 . S
H1836 C1842 0.930 . S
H1837 C1846 0.930 . S
H1838 C1851 0.929 . S
H1839 C1849 0.929 . S
H1840 C1844 0.929 . S
H1841 C1850 0.929 . S
C1842 H1836 0.930 . S
C1842 C1843 1.367 . S
C1842 C1850 1.378 . S
C1843 C1842 1.367 . S
C1843 C1851 1.433 . S
C1844 H1840 0.929 . S
C1844 C1846 1.378 . S
C1844 C1848 1.350 . S
C1845 C1848 1.463 . S
C1845 C1850 1.350 . S
C1845 N1853 1.427 . S
C1846 H1837 0.930 . S
C1846 C1844 1.378 . S
C1846 C1847 1.367 . S
C1847 C1846 1.367 . S
C1847 C1849 1.433 . S
C1848 C1844 1.350 . S
C1848 C1845 1.463 . S
C1848 N1852 1.427 . S
C1849 H1839 0.929 . S
C1849 C1847 1.433 . S
C1849 N1852 1.384 . S
C1850 H1841 0.929 . S
C1850 C1842 1.378 . S
C1850 C1845 1.350 . S
C1851 H1838 0.929 . S
C1851 C1843 1.433 . S
C1851 N1853 1.384 . S
N1852 C1848 1.427 . S
N1852 C1849 1.384 . S
N1853 C1845 1.427 . S
N1853 C1851 1.384 . S
H1854 C1860 0.930 . S
H1855 C1864 0.930 . S
H1856 C1869 0.944 . S
H1857 C1867 0.945 . S
H1858 C1862 0.929 . S
H1859 C1868 0.929 . S
C1860 H1854 0.930 . S
C1860 C1861 1.367 . S
C1860 C1868 1.378 . S
C1861 C1860 1.367 . S
C1861 C1869 1.433 . S
C1862 H1858 0.929 . S
C1862 C1864 1.378 . S
C1862 C1866 1.350 . S
C1863 C1866 1.463 1_545 S
C1863 C1868 1.350 . S
C1863 N1871 1.427 1_545 S
C1864 H1855 0.930 . S
C1864 C1862 1.378 . S
C1864 C1865 1.367 . S
C1865 C1864 1.367 . S
C1865 C1867 1.433 . S
C1866 C1862 1.350 . S
C1866 C1863 1.463 1_565 S
C1866 N1870 1.427 1_565 S
C1867 H1857 0.945 . S
C1867 C1865 1.433 . S
C1867 N1870 1.384 1_565 S
C1868 H1859 0.929 . S
C1868 C1860 1.378 . S
C1868 C1863 1.350 . S
C1869 H1856 0.944 . S
C1869 C1861 1.433 . S
C1869 N1871 1.384 1_545 S
N1870 C1866 1.427 1_545 S
N1870 C1867 1.384 1_545 S
N1871 C1863 1.427 1_565 S
N1871 C1869 1.384 1_565 S
H1872 C1878 0.930 . S
H1873 C1882 0.930 . S
H1874 C1887 0.929 . S
H1875 C1885 0.929 . S
H1876 C1880 0.929 . S
H1877 C1886 0.929 . S
C1878 H1872 0.930 . S
C1878 C1879 1.367 . S
C1878 C1886 1.378 . S
C1879 C1878 1.367 . S
C1879 C1887 1.433 . S
C1880 H1876 0.929 . S
C1880 C1882 1.378 . S
C1880 C1884 1.350 . S
C1881 C1884 1.463 . S
C1881 C1886 1.350 . S
C1881 N1889 1.427 . S
C1882 H1873 0.930 . S
C1882 C1880 1.378 . S
C1882 C1883 1.367 . S
C1883 C1882 1.367 . S
C1883 C1885 1.433 . S
C1884 C1880 1.350 . S
C1884 C1881 1.463 . S
C1884 N1888 1.427 . S
C1885 H1875 0.929 . S
C1885 C1883 1.433 . S
C1885 N1888 1.384 . S
C1886 H1877 0.929 . S
C1886 C1878 1.378 . S
C1886 C1881 1.350 . S
C1887 H1874 0.929 . S
C1887 C1879 1.433 . S
C1887 N1889 1.384 . S
N1888 C1884 1.427 . S
N1888 C1885 1.384 . S
N1889 C1881 1.427 . S
N1889 C1887 1.384 . S
H1890 C1896 0.930 . S
H1891 C1900 0.930 . S
H1892 C1905 0.929 . S
H1893 C1903 0.929 . S
H1894 C1898 0.929 . S
H1895 C1904 0.929 . S
C1896 H1890 0.930 . S
C1896 C1897 1.367 . S
C1896 C1904 1.378 . S
C1897 C1896 1.367 . S
C1897 C1905 1.433 . S
C1898 H1894 0.929 . S
C1898 C1900 1.378 . S
C1898 C1902 1.350 . S
C1899 C1902 1.463 . S
C1899 C1904 1.350 . S
C1899 N1907 1.427 . S
C1900 H1891 0.930 . S
C1900 C1898 1.378 . S
C1900 C1901 1.367 . S
C1901 C1900 1.367 . S
C1901 C1903 1.433 . S
C1902 C1898 1.350 . S
C1902 C1899 1.463 . S
C1902 N1906 1.427 . S
C1903 H1893 0.929 . S
C1903 C1901 1.433 . S
C1903 N1906 1.384 . S
C1904 H1895 0.929 . S
C1904 C1896 1.378 . S
C1904 C1899 1.350 . S
C1905 H1892 0.929 . S
C1905 C1897 1.433 . S
C1905 N1907 1.384 . S
N1906 C1902 1.427 . S
N1906 C1903 1.384 . S
N1907 C1899 1.427 . S
N1907 C1905 1.384 . S
H1908 C1914 0.930 . S
H1909 C1918 0.930 . S
H1910 C1923 0.929 . S
H1911 C1921 0.929 . S
H1912 C1916 0.929 . S
H1913 C1922 0.929 . S
C1914 H1908 0.930 . S
C1914 C1915 1.367 . S
C1914 C1922 1.378 . S
C1915 C1914 1.367 . S
C1915 C1923 1.433 . S
C1916 H1912 0.929 . S
C1916 C1918 1.378 . S
C1916 C1920 1.350 . S
C1917 C1920 1.463 . S
C1917 C1922 1.350 . S
C1917 N1925 1.427 . S
C1918 H1909 0.930 . S
C1918 C1916 1.378 . S
C1918 C1919 1.367 . S
C1919 C1918 1.367 . S
C1919 C1921 1.433 . S
C1920 C1916 1.350 . S
C1920 C1917 1.463 . S
C1920 N1924 1.427 . S
C1921 H1911 0.929 . S
C1921 C1919 1.433 . S
C1921 N1924 1.384 . S
C1922 H1913 0.929 . S
C1922 C1914 1.378 . S
C1922 C1917 1.350 . S
C1923 H1910 0.929 . S
C1923 C1915 1.433 . S
C1923 N1925 1.384 . S
N1924 C1920 1.427 . S
N1924 C1921 1.384 . S
N1925 C1917 1.427 . S
N1925 C1923 1.384 . S
H1926 C1932 0.930 . S
H1927 C1936 0.930 . S
H1928 C1941 0.929 . S
H1929 C1939 0.929 . S
H1930 C1934 0.929 . S
H1931 C1940 0.929 . S
C1932 H1926 0.930 . S
C1932 C1933 1.367 . S
C1932 C1940 1.378 . S
C1933 C1932 1.367 . S
C1933 C1941 1.433 . S
C1934 H1930 0.929 . S
C1934 C1936 1.378 . S
C1934 C1938 1.350 . S
C1935 C1938 1.463 . S
C1935 C1940 1.350 . S
C1935 N1943 1.427 . S
C1936 H1927 0.930 . S
C1936 C1934 1.378 . S
C1936 C1937 1.367 . S
C1937 C1936 1.367 . S
C1937 C1939 1.433 . S
C1938 C1934 1.350 . S
C1938 C1935 1.463 . S
C1938 N1942 1.427 . S
C1939 H1929 0.929 . S
C1939 C1937 1.433 . S
C1939 N1942 1.384 . S
C1940 H1931 0.929 . S
C1940 C1932 1.378 . S
C1940 C1935 1.350 . S
C1941 H1928 0.929 . S
C1941 C1933 1.433 . S
C1941 N1943 1.384 . S
N1942 C1938 1.427 . S
N1942 C1939 1.384 . S
N1943 C1935 1.427 . S
N1943 C1941 1.384 . S
H1944 C1950 0.930 . S
H1945 C1954 0.930 . S
H1946 C1959 0.929 . S
H1947 C1957 0.929 . S
H1948 C1952 0.929 . S
H1949 C1958 0.929 . S
C1950 H1944 0.930 . S
C1950 C1951 1.367 . S
C1950 C1958 1.378 . S
C1951 C1950 1.367 . S
C1951 C1959 1.433 . S
C1952 H1948 0.929 . S
C1952 C1954 1.378 . S
C1952 C1956 1.350 . S
C1953 C1956 1.463 . S
C1953 C1958 1.350 . S
C1953 N1961 1.427 . S
C1954 H1945 0.930 . S
C1954 C1952 1.378 . S
C1954 C1955 1.367 . S
C1955 C1954 1.367 . S
C1955 C1957 1.433 . S
C1956 C1952 1.350 . S
C1956 C1953 1.463 . S
C1956 N1960 1.427 . S
C1957 H1947 0.929 . S
C1957 C1955 1.433 . S
C1957 N1960 1.384 . S
C1958 H1949 0.929 . S
C1958 C1950 1.378 . S
C1958 C1953 1.350 . S
C1959 H1946 0.929 . S
C1959 C1951 1.433 . S
C1959 N1961 1.384 . S
N1960 C1956 1.427 . S
N1960 C1957 1.384 . S
N1961 C1953 1.427 . S
N1961 C1959 1.384 . S
H1962 C1968 0.930 . S
H1963 C1972 0.930 . S
H1964 C1977 0.929 . S
H1965 C1975 0.929 . S
H1966 C1970 0.929 . S
H1967 C1976 0.929 . S
C1968 H1962 0.930 . S
C1968 C1969 1.367 . S
C1968 C1976 1.378 . S
C1969 C1968 1.367 . S
C1969 C1977 1.433 . S
C1970 H1966 0.929 . S
C1970 C1972 1.378 . S
C1970 C1974 1.350 . S
C1971 C1974 1.463 . S
C1971 C1976 1.350 . S
C1971 N1979 1.427 . S
C1972 H1963 0.930 . S
C1972 C1970 1.378 . S
C1972 C1973 1.367 . S
C1973 C1972 1.367 . S
C1973 C1975 1.433 . S
C1974 C1970 1.350 . S
C1974 C1971 1.463 . S
C1974 N1978 1.427 . S
C1975 H1965 0.929 . S
C1975 C1973 1.433 . S
C1975 N1978 1.384 . S
C1976 H1967 0.929 . S
C1976 C1968 1.378 . S
C1976 C1971 1.350 . S
C1977 H1964 0.929 . S
C1977 C1969 1.433 . S
C1977 N1979 1.384 . S
N1978 C1974 1.427 . S
N1978 C1975 1.384 . S
N1979 C1971 1.427 . S
N1979 C1977 1.384 . S
H1980 C1986 0.930 . S
H1981 C1990 0.930 . S
H1982 C1995 0.929 . S
H1983 C1993 0.929 . S
H1984 C1988 0.929 . S
H1985 C1994 0.929 . S
C1986 H1980 0.930 . S
C1986 C1987 1.367 . S
C1986 C1994 1.378 . S
C1987 C1986 1.367 . S
C1987 C1995 1.433 . S
C1988 H1984 0.929 . S
C1988 C1990 1.378 . S
C1988 C1992 1.350 . S
C1989 C1992 1.463 . S
C1989 C1994 1.350 . S
C1989 N1997 1.427 . S
C1990 H1981 0.930 . S
C1990 C1988 1.378 . S
C1990 C1991 1.367 . S
C1991 C1990 1.367 . S
C1991 C1993 1.433 . S
C1992 C1988 1.350 . S
C1992 C1989 1.463 . S
C1992 N1996 1.427 . S
C1993 H1983 0.929 . S
C1993 C1991 1.433 . S
C1993 N1996 1.384 . S
C1994 H1985 0.929 . S
C1994 C1986 1.378 . S
C1994 C1989 1.350 . S
C1995 H1982 0.929 . S
C1995 C1987 1.433 . S
C1995 N1997 1.384 . S
N1996 C1992 1.427 . S
N1996 C1993 1.384 . S
N1997 C1989 1.427 . S
N1997 C1995 1.384 . S
H1998 C2004 0.930 . S
H1999 C2008 0.930 . S
H2000 C2013 0.929 . S
H2001 C2011 0.929 . S
H2002 C2006 0.929 . S
H2003 C2012 0.929 . S
C2004 H1998 0.930 . S
C2004 C2005 1.367 . S
C2004 C2012 1.378 . S
C2005 C2004 1.367 . S
C2005 C2013 1.433 . S
C2006 H2002 0.929 . S
C2006 C2008 1.378 . S
C2006 C2010 1.350 . S
C2007 C2010 1.463 . S
C2007 C2012 1.350 . S
C2007 N2015 1.427 . S
C2008 H1999 0.930 . S
C2008 C2006 1.378 . S
C2008 C2009 1.367 . S
C2009 C2008 1.367 . S
C2009 C2011 1.433 . S
C2010 C2006 1.350 . S
C2010 C2007 1.463 . S
C2010 N2014 1.427 . S
C2011 H2001 0.929 . S
C2011 C2009 1.433 . S
C2011 N2014 1.384 . S
C2012 H2003 0.929 . S
C2012 C2004 1.378 . S
C2012 C2007 1.350 . S
C2013 H2000 0.929 . S
C2013 C2005 1.433 . S
C2013 N2015 1.384 . S
N2014 C2010 1.427 . S
N2014 C2011 1.384 . S
N2015 C2007 1.427 . S
N2015 C2013 1.384 . S
H2016 C2022 0.930 . S
H2017 C2026 0.930 . S
H2018 C2031 0.929 . S
H2019 C2029 0.929 . S
H2020 C2024 0.929 . S
H2021 C2030 0.929 . S
C2022 H2016 0.930 . S
C2022 C2023 1.367 . S
C2022 C2030 1.378 . S
C2023 C2022 1.367 . S
C2023 C2031 1.433 . S
C2024 H2020 0.929 . S
C2024 C2026 1.378 . S
C2024 C2028 1.350 . S
C2025 C2028 1.463 . S
C2025 C2030 1.350 . S
C2025 N2033 1.427 . S
C2026 H2017 0.930 . S
C2026 C2024 1.378 . S
C2026 C2027 1.367 . S
C2027 C2026 1.367 . S
C2027 C2029 1.433 . S
C2028 C2024 1.350 . S
C2028 C2025 1.463 . S
C2028 N2032 1.427 . S
C2029 H2019 0.929 . S
C2029 C2027 1.433 . S
C2029 N2032 1.384 . S
C2030 H2021 0.929 . S
C2030 C2022 1.378 . S
C2030 C2025 1.350 . S
C2031 H2018 0.929 . S
C2031 C2023 1.433 . S
C2031 N2033 1.384 . S
N2032 C2028 1.427 . S
N2032 C2029 1.384 . S
N2033 C2025 1.427 . S
N2033 C2031 1.384 . S
H2034 C2040 0.930 . S
H2035 C2044 0.930 . S
H2036 C2049 0.929 . S
H2037 C2047 0.929 . S
H2038 C2042 0.929 . S
H2039 C2048 0.929 . S
C2040 H2034 0.930 . S
C2040 C2041 1.367 . S
C2040 C2048 1.378 . S
C2041 C2040 1.367 . S
C2041 C2049 1.433 . S
C2042 H2038 0.929 . S
C2042 C2044 1.378 . S
C2042 C2046 1.350 . S
C2043 C2046 1.463 1_556 S
C2043 C2048 1.350 . S
C2043 N2051 1.427 . S
C2044 H2035 0.930 . S
C2044 C2042 1.378 . S
C2044 C2045 1.367 . S
C2045 C2044 1.367 . S
C2045 C2047 1.433 . S
C2046 C2042 1.350 . S
C2046 C2043 1.463 1_554 S
C2046 N2050 1.427 . S
C2047 H2037 0.929 . S
C2047 C2045 1.433 . S
C2047 N2050 1.384 . S
C2048 H2039 0.929 . S
C2048 C2040 1.378 . S
C2048 C2043 1.350 . S
C2049 H2036 0.929 . S
C2049 C2041 1.433 . S
C2049 N2051 1.384 . S
N2050 C2046 1.427 . S
N2050 C2047 1.384 . S
N2051 C2043 1.427 . S
N2051 C2049 1.384 . S
H2052 C2058 0.930 . S
H2053 C2062 0.930 . S
H2054 C2067 0.929 . S
H2055 C2065 0.929 . S
H2056 C2060 0.929 1_556 S
H2057 C2066 0.929 . S
C2058 H2052 0.930 . S
C2058 C2059 1.367 . S
C2058 C2066 1.378 . S
C2059 C2058 1.367 . S
C2059 C2067 1.433 . S
C2060 H2056 0.929 1_554 S
C2060 C2062 1.378 . S
C2060 C2064 1.350 . S
C2061 C2064 1.463 1_556 S
C2061 C2066 1.350 . S
C2061 N2069 1.427 . S
C2062 H2053 0.930 . S
C2062 C2060 1.378 . S
C2062 C2063 1.367 . S
C2063 C2062 1.367 . S
C2063 C2065 1.433 . S
C2064 C2060 1.350 . S
C2064 C2061 1.463 1_554 S
C2064 N2068 1.427 . S
C2065 H2055 0.929 . S
C2065 C2063 1.433 . S
C2065 N2068 1.384 . S
C2066 H2057 0.929 . S
C2066 C2058 1.378 . S
C2066 C2061 1.350 . S
C2067 H2054 0.929 . S
C2067 C2059 1.433 . S
C2067 N2069 1.384 . S
N2068 C2064 1.427 . S
N2068 C2065 1.384 . S
N2069 C2061 1.427 . S
N2069 C2067 1.384 . S
H2070 C2076 0.930 . S
H2071 C2080 0.930 . S
H2072 C2085 0.929 . S
H2073 C2083 0.929 . S
H2074 C2078 0.947 . S
H2075 C2084 0.929 . S
C2076 H2070 0.930 . S
C2076 C2077 1.367 . S
C2076 C2084 1.378 . S
C2077 C2076 1.367 . S
C2077 C2085 1.433 . S
C2078 H2074 0.947 . S
C2078 C2080 1.360 1_556 S
C2078 C2082 1.349 1_556 S
C2079 C2082 1.444 1_556 S
C2079 C2084 1.350 . S
C2079 N2087 1.427 . S
C2080 H2071 0.930 . S
C2080 C2078 1.360 1_554 S
C2080 C2081 1.367 . S
C2081 C2080 1.367 . S
C2081 C2083 1.433 . S
C2082 C2078 1.349 1_554 S
C2082 C2079 1.444 1_554 S
C2082 N2086 1.447 . S
C2083 H2073 0.929 . S
C2083 C2081 1.433 . S
C2083 N2086 1.384 . S
C2084 H2075 0.929 . S
C2084 C2076 1.378 . S
C2084 C2079 1.350 . S
C2085 H2072 0.929 . S
C2085 C2077 1.433 . S
C2085 N2087 1.384 . S
N2086 C2082 1.447 . S
N2086 C2083 1.384 . S
N2087 C2079 1.427 . S
N2087 C2085 1.384 . S
H2088 C2094 0.930 . S
H2089 C2098 0.930 . S
H2090 C2103 0.929 . S
H2091 C2101 0.929 . S
H2092 C2096 0.929 . S
H2093 C2102 0.929 . S
C2094 H2088 0.930 . S
C2094 C2095 1.367 . S
C2094 C2102 1.378 . S
C2095 C2094 1.367 . S
C2095 C2103 1.433 . S
C2096 H2092 0.929 . S
C2096 C2098 1.378 . S
C2096 C2100 1.350 . S
C2097 C2100 1.463 . S
C2097 C2102 1.350 . S
C2097 N2105 1.427 . S
C2098 H2089 0.930 . S
C2098 C2096 1.378 . S
C2098 C2099 1.367 . S
C2099 C2098 1.367 . S
C2099 C2101 1.433 . S
C2100 C2096 1.350 . S
C2100 C2097 1.463 . S
C2100 N2104 1.427 . S
C2101 H2091 0.929 . S
C2101 C2099 1.433 . S
C2101 N2104 1.384 . S
C2102 H2093 0.929 . S
C2102 C2094 1.378 . S
C2102 C2097 1.350 . S
C2103 H2090 0.929 . S
C2103 C2095 1.433 . S
C2103 N2105 1.384 . S
N2104 C2100 1.427 . S
N2104 C2101 1.384 . S
N2105 C2097 1.427 . S
N2105 C2103 1.384 . S
H2106 C2112 0.930 . S
H2107 C2116 0.930 . S
H2108 C2121 0.929 . S
H2109 C2119 0.929 . S
H2110 C2114 0.929 . S
H2111 C2120 0.929 . S
C2112 H2106 0.930 . S
C2112 C2113 1.367 . S
C2112 C2120 1.378 . S
C2113 C2112 1.367 . S
C2113 C2121 1.433 . S
C2114 H2110 0.929 . S
C2114 C2116 1.378 . S
C2114 C2118 1.350 . S
C2115 C2118 1.463 . S
C2115 C2120 1.350 . S
C2115 N2123 1.427 . S
C2116 H2107 0.930 . S
C2116 C2114 1.378 . S
C2116 C2117 1.367 . S
C2117 C2116 1.367 . S
C2117 C2119 1.433 . S
C2118 C2114 1.350 . S
C2118 C2115 1.463 . S
C2118 N2122 1.427 . S
C2119 H2109 0.929 . S
C2119 C2117 1.433 . S
C2119 N2122 1.384 . S
C2120 H2111 0.929 . S
C2120 C2112 1.378 . S
C2120 C2115 1.350 . S
C2121 H2108 0.929 . S
C2121 C2113 1.433 . S
C2121 N2123 1.384 . S
N2122 C2118 1.427 . S
N2122 C2119 1.384 . S
N2123 C2115 1.427 . S
N2123 C2121 1.384 . S
H2124 C2130 0.930 . S
H2125 C2134 0.930 . S
H2126 C2139 0.929 . S
H2127 C2137 0.929 . S
H2128 C2132 0.929 . S
H2129 C2138 0.929 . S
C2130 H2124 0.930 . S
C2130 C2131 1.367 . S
C2130 C2138 1.378 . S
C2131 C2130 1.367 . S
C2131 C2139 1.433 . S
C2132 H2128 0.929 . S
C2132 C2134 1.378 . S
C2132 C2136 1.350 . S
C2133 C2136 1.463 . S
C2133 C2138 1.350 . S
C2133 N2141 1.427 . S
C2134 H2125 0.930 . S
C2134 C2132 1.378 . S
C2134 C2135 1.367 . S
C2135 C2134 1.367 . S
C2135 C2137 1.433 . S
C2136 C2132 1.350 . S
C2136 C2133 1.463 . S
C2136 N2140 1.427 . S
C2137 H2127 0.929 . S
C2137 C2135 1.433 . S
C2137 N2140 1.384 . S
C2138 H2129 0.929 . S
C2138 C2130 1.378 . S
C2138 C2133 1.350 . S
C2139 H2126 0.929 . S
C2139 C2131 1.433 . S
C2139 N2141 1.384 . S
N2140 C2136 1.427 . S
N2140 C2137 1.384 . S
N2141 C2133 1.427 . S
N2141 C2139 1.384 . S
H2142 C2148 0.930 . S
H2143 C2152 0.930 . S
H2144 C2157 0.929 . S
H2145 C2155 0.929 . S
H2146 C2150 0.929 . S
H2147 C2156 0.929 . S
C2148 H2142 0.930 . S
C2148 C2149 1.367 . S
C2148 C2156 1.378 . S
C2149 C2148 1.367 . S
C2149 C2157 1.433 . S
C2150 H2146 0.929 . S
C2150 C2152 1.378 1_556 S
C2150 C2154 1.350 . S
C2151 C2154 1.463 . S
C2151 C2156 1.350 . S
C2151 N2159 1.427 . S
C2152 H2143 0.930 . S
C2152 C2150 1.378 1_554 S
C2152 C2153 1.367 . S
C2153 C2152 1.367 . S
C2153 C2155 1.433 . S
C2154 C2150 1.350 . S
C2154 C2151 1.463 . S
C2154 N2158 1.427 . S
C2155 H2145 0.929 . S
C2155 C2153 1.433 . S
C2155 N2158 1.384 1_554 S
C2156 H2147 0.929 . S
C2156 C2148 1.378 . S
C2156 C2151 1.350 . S
C2157 H2144 0.929 . S
C2157 C2149 1.433 . S
C2157 N2159 1.384 . S
N2158 C2154 1.427 . S
N2158 C2155 1.384 1_556 S
N2159 C2151 1.427 . S
N2159 C2157 1.384 . S
H2160 C2166 0.930 . S
H2161 C2170 0.930 . S
H2162 C2175 0.929 . S
H2163 C2173 0.929 . S
H2164 C2168 0.929 . S
H2165 C2174 0.929 . S
C2166 H2160 0.930 . S
C2166 C2167 1.367 . S
C2166 C2174 1.378 . S
C2167 C2166 1.367 . S
C2167 C2175 1.433 . S
C2168 H2164 0.929 . S
C2168 C2170 1.378 1_556 S
C2168 C2172 1.350 . S
C2169 C2172 1.463 . S
C2169 C2174 1.350 . S
C2169 N2177 1.427 . S
C2170 H2161 0.930 . S
C2170 C2168 1.378 1_554 S
C2170 C2171 1.367 . S
C2171 C2170 1.367 . S
C2171 C2173 1.433 . S
C2172 C2168 1.350 . S
C2172 C2169 1.463 . S
C2172 N2176 1.445 . S
C2173 H2163 0.929 . S
C2173 C2171 1.433 . S
C2173 N2176 1.363 1_554 S
C2174 H2165 0.929 . S
C2174 C2166 1.378 . S
C2174 C2169 1.350 . S
C2175 H2162 0.929 . S
C2175 C2167 1.433 . S
C2175 N2177 1.384 . S
N2176 C2172 1.445 . S
N2176 C2173 1.363 1_556 S
N2177 C2169 1.427 . S
N2177 C2175 1.384 . S
H2178 C2184 0.930 . S
H2179 C2188 0.930 . S
H2180 C2193 0.929 . S
H2181 C2191 0.929 . S
H2182 C2186 0.929 . S
H2183 C2192 0.929 . S
C2184 H2178 0.930 . S
C2184 C2185 1.367 . S
C2184 C2192 1.378 1_554 S
C2185 C2184 1.367 . S
C2185 C2193 1.433 . S
C2186 H2182 0.929 . S
C2186 C2188 1.378 . S
C2186 C2190 1.350 . S
C2187 C2190 1.463 . S
C2187 C2192 1.350 . S
C2187 N2195 1.427 . S
C2188 H2179 0.930 . S
C2188 C2186 1.378 . S
C2188 C2189 1.367 . S
C2189 C2188 1.367 . S
C2189 C2191 1.433 . S
C2190 C2186 1.350 . S
C2190 C2187 1.463 . S
C2190 N2194 1.427 . S
C2191 H2181 0.929 . S
C2191 C2189 1.433 . S
C2191 N2194 1.384 . S
C2192 H2183 0.929 . S
C2192 C2184 1.378 1_556 S
C2192 C2187 1.350 . S
C2193 H2180 0.929 . S
C2193 C2185 1.433 . S
C2193 N2195 1.384 1_554 S
N2194 C2190 1.427 . S
N2194 C2191 1.384 . S
N2195 C2187 1.427 . S
N2195 C2193 1.384 1_556 S
H2196 C2202 0.930 . S
H2197 C2206 0.930 . S
H2198 C2211 0.929 . S
H2199 C2209 0.929 . S
H2200 C2204 0.929 . S
H2201 C2210 0.929 . S
C2202 H2196 0.930 . S
C2202 C2203 1.367 . S
C2202 C2210 1.378 . S
C2203 C2202 1.367 . S
C2203 C2211 1.433 . S
C2204 H2200 0.929 . S
C2204 C2206 1.378 . S
C2204 C2208 1.350 . S
C2205 C2208 1.463 . S
C2205 C2210 1.350 . S
C2205 N2213 1.427 . S
C2206 H2197 0.930 . S
C2206 C2204 1.378 . S
C2206 C2207 1.367 . S
C2207 C2206 1.367 . S
C2207 C2209 1.433 . S
C2208 C2204 1.350 . S
C2208 C2205 1.463 . S
C2208 N2212 1.427 . S
C2209 H2199 0.929 . S
C2209 C2207 1.433 . S
C2209 N2212 1.384 . S
C2210 H2201 0.929 . S
C2210 C2202 1.378 . S
C2210 C2205 1.350 . S
C2211 H2198 0.929 . S
C2211 C2203 1.433 . S
C2211 N2213 1.384 . S
N2212 C2208 1.427 . S
N2212 C2209 1.384 . S
N2213 C2205 1.427 . S
N2213 C2211 1.384 . S
H2214 C2220 0.930 . S
H2215 C2224 0.930 . S
H2216 C2229 0.929 . S
H2217 C2227 0.929 . S
H2218 C2222 0.929 . S
H2219 C2228 0.929 . S
C2220 H2214 0.930 . S
C2220 C2221 1.367 . S
C2220 C2228 1.378 . S
C2221 C2220 1.367 . S
C2221 C2229 1.433 . S
C2222 H2218 0.929 . S
C2222 C2224 1.378 . S
C2222 C2226 1.350 . S
C2223 C2226 1.463 . S
C2223 C2228 1.350 . S
C2223 N2231 1.427 . S
C2224 H2215 0.930 . S
C2224 C2222 1.378 . S
C2224 C2225 1.367 . S
C2225 C2224 1.367 . S
C2225 C2227 1.433 . S
C2226 C2222 1.350 . S
C2226 C2223 1.463 . S
C2226 N2230 1.427 . S
C2227 H2217 0.929 . S
C2227 C2225 1.433 . S
C2227 N2230 1.384 . S
C2228 H2219 0.929 . S
C2228 C2220 1.378 . S
C2228 C2223 1.350 . S
C2229 H2216 0.929 . S
C2229 C2221 1.433 . S
C2229 N2231 1.384 . S
N2230 C2226 1.427 . S
N2230 C2227 1.384 . S
N2231 C2223 1.427 . S
N2231 C2229 1.384 . S
H2232 C2238 0.930 . S
H2233 C2242 0.930 . S
H2234 C2247 0.929 . S
H2235 C2245 0.929 . S
H2236 C2240 0.929 . S
H2237 C2246 0.929 . S
C2238 H2232 0.930 . S
C2238 C2239 1.367 . S
C2238 C2246 1.378 . S
C2239 C2238 1.367 . S
C2239 C2247 1.433 . S
C2240 H2236 0.929 . S
C2240 C2242 1.378 . S
C2240 C2244 1.350 . S
C2241 C2244 1.463 . S
C2241 C2246 1.350 . S
C2241 N2249 1.427 . S
C2242 H2233 0.930 . S
C2242 C2240 1.378 . S
C2242 C2243 1.367 . S
C2243 C2242 1.367 . S
C2243 C2245 1.433 . S
C2244 C2240 1.350 . S
C2244 C2241 1.463 . S
C2244 N2248 1.427 . S
C2245 H2235 0.929 . S
C2245 C2243 1.433 . S
C2245 N2248 1.384 . S
C2246 H2237 0.929 . S
C2246 C2238 1.378 . S
C2246 C2241 1.350 . S
C2247 H2234 0.929 . S
C2247 C2239 1.433 . S
C2247 N2249 1.384 . S
N2248 C2244 1.427 . S
N2248 C2245 1.384 . S
N2249 C2241 1.427 . S
N2249 C2247 1.384 . S
H2250 C2256 0.930 . S
H2251 C2260 0.930 . S
H2252 C2265 0.929 . S
H2253 C2263 0.929 . S
H2254 C2258 0.929 . S
H2255 C2264 0.929 . S
C2256 H2250 0.930 . S
C2256 C2257 1.367 . S
C2256 C2264 1.378 . S
C2257 C2256 1.367 . S
C2257 C2265 1.433 . S
C2258 H2254 0.929 . S
C2258 C2260 1.378 . S
C2258 C2262 1.350 . S
C2259 C2262 1.463 . S
C2259 C2264 1.350 . S
C2259 N2267 1.427 . S
C2260 H2251 0.930 . S
C2260 C2258 1.378 . S
C2260 C2261 1.367 . S
C2261 C2260 1.367 . S
C2261 C2263 1.433 . S
C2262 C2258 1.350 . S
C2262 C2259 1.463 . S
C2262 N2266 1.427 . S
C2263 H2253 0.929 . S
C2263 C2261 1.433 . S
C2263 N2266 1.384 . S
C2264 H2255 0.929 . S
C2264 C2256 1.378 . S
C2264 C2259 1.350 . S
C2265 H2252 0.929 . S
C2265 C2257 1.433 . S
C2265 N2267 1.384 . S
N2266 C2262 1.427 . S
N2266 C2263 1.384 . S
N2267 C2259 1.427 . S
N2267 C2265 1.384 . S
H2268 C2274 0.930 . S
H2269 C2278 0.930 . S
H2270 C2283 0.929 . S
H2271 C2281 0.929 . S
H2272 C2276 0.929 . S
H2273 C2282 0.929 . S
C2274 H2268 0.930 . S
C2274 C2275 1.367 . S
C2274 C2282 1.378 . S
C2275 C2274 1.367 . S
C2275 C2283 1.433 . S
C2276 H2272 0.929 . S
C2276 C2278 1.378 . S
C2276 C2280 1.350 . S
C2277 C2280 1.463 . S
C2277 C2282 1.350 . S
C2277 N2285 1.427 . S
C2278 H2269 0.930 . S
C2278 C2276 1.378 . S
C2278 C2279 1.367 . S
C2279 C2278 1.367 . S
C2279 C2281 1.433 . S
C2280 C2276 1.350 . S
C2280 C2277 1.463 . S
C2280 N2284 1.427 . S
C2281 H2271 0.929 . S
C2281 C2279 1.433 . S
C2281 N2284 1.384 . S
C2282 H2273 0.929 . S
C2282 C2274 1.378 . S
C2282 C2277 1.350 . S
C2283 H2270 0.929 . S
C2283 C2275 1.433 . S
C2283 N2285 1.384 . S
N2284 C2280 1.427 . S
N2284 C2281 1.384 . S
N2285 C2277 1.427 . S
N2285 C2283 1.384 . S
H2286 C2292 0.930 . S
H2287 C2296 0.930 . S
H2288 C2301 0.929 . S
H2289 C2299 0.929 . S
H2290 C2294 0.929 . S
H2291 C2300 0.929 . S
C2292 H2286 0.930 . S
C2292 C2293 1.367 . S
C2292 C2300 1.378 . S
C2293 C2292 1.367 . S
C2293 C2301 1.433 . S
C2294 H2290 0.929 . S
C2294 C2296 1.378 . S
C2294 C2298 1.350 . S
C2295 C2298 1.463 . S
C2295 C2300 1.350 . S
C2295 N2303 1.427 . S
C2296 H2287 0.930 . S
C2296 C2294 1.378 . S
C2296 C2297 1.367 . S
C2297 C2296 1.367 . S
C2297 C2299 1.433 . S
C2298 C2294 1.350 . S
C2298 C2295 1.463 . S
C2298 N2302 1.427 . S
C2299 H2289 0.929 . S
C2299 C2297 1.433 . S
C2299 N2302 1.384 . S
C2300 H2291 0.929 . S
C2300 C2292 1.378 . S
C2300 C2295 1.350 . S
C2301 H2288 0.929 . S
C2301 C2293 1.433 . S
C2301 N2303 1.384 . S
N2302 C2298 1.427 . S
N2302 C2299 1.384 . S
N2303 C2295 1.427 . S
N2303 C2301 1.384 . S
H2304 C2310 0.930 . S
H2305 C2314 0.930 . S
H2306 C2319 0.929 . S
H2307 C2317 0.929 . S
H2308 C2312 0.929 . S
H2309 C2318 0.929 . S
C2310 H2304 0.930 . S
C2310 C2311 1.367 . S
C2310 C2318 1.378 . S
C2311 C2310 1.367 . S
C2311 C2319 1.433 . S
C2312 H2308 0.929 . S
C2312 C2314 1.378 . S
C2312 C2316 1.350 . S
C2313 C2316 1.442 1_556 S
C2313 C2318 1.367 . S
C2313 N2321 1.430 . S
C2314 H2305 0.930 . S
C2314 C2312 1.378 . S
C2314 C2315 1.367 . S
C2315 C2314 1.367 . S
C2315 C2317 1.433 . S
C2316 C2312 1.350 . S
C2316 C2313 1.442 1_554 S
C2316 N2320 1.427 . S
C2317 H2307 0.929 . S
C2317 C2315 1.433 . S
C2317 N2320 1.384 . S
C2318 H2309 0.929 . S
C2318 C2310 1.378 . S
C2318 C2313 1.367 . S
C2319 H2306 0.929 . S
C2319 C2311 1.433 . S
C2319 N2321 1.384 . S
N2320 C2316 1.427 . S
N2320 C2317 1.384 . S
N2321 C2313 1.430 . S
N2321 C2319 1.384 . S
H2322 C2328 0.930 . S
H2323 C2332 0.930 . S
H2324 C2337 0.929 . S
H2325 C2335 0.929 . S
H2326 C2330 0.929 . S
H2327 C2336 0.929 . S
C2328 H2322 0.930 . S
C2328 C2329 1.367 . S
C2328 C2336 1.378 . S
C2329 C2328 1.367 . S
C2329 C2337 1.433 . S
C2330 H2326 0.929 . S
C2330 C2332 1.378 . S
C2330 C2334 1.350 . S
C2331 C2334 1.443 1_556 S
C2331 C2336 1.365 . S
C2331 N2339 1.431 . S
C2332 H2323 0.930 . S
C2332 C2330 1.378 . S
C2332 C2333 1.367 . S
C2333 C2332 1.367 . S
C2333 C2335 1.433 . S
C2334 C2330 1.350 . S
C2334 C2331 1.443 1_554 S
C2334 N2338 1.427 . S
C2335 H2325 0.929 . S
C2335 C2333 1.433 . S
C2335 N2338 1.384 . S
C2336 H2327 0.929 . S
C2336 C2328 1.378 . S
C2336 C2331 1.365 . S
C2337 H2324 0.929 . S
C2337 C2329 1.433 . S
C2337 N2339 1.384 . S
N2338 C2334 1.427 . S
N2338 C2335 1.384 . S
N2339 C2331 1.431 . S
N2339 C2337 1.384 . S
H2340 C2346 0.930 . S
H2341 C2350 0.930 . S
H2342 C2355 0.929 . S
H2343 C2353 0.929 . S
H2344 C2348 0.929 . S
H2345 C2354 0.929 1_554 S
C2346 H2340 0.930 . S
C2346 C2347 1.367 . S
C2346 C2354 1.378 . S
C2347 C2346 1.367 . S
C2347 C2355 1.433 . S
C2348 H2344 0.929 . S
C2348 C2350 1.378 . S
C2348 C2352 1.350 . S
C2349 C2352 1.462 . S
C2349 C2354 1.350 1_554 S
C2349 N2357 1.427 1_554 S
C2350 H2341 0.930 . S
C2350 C2348 1.378 . S
C2350 C2351 1.367 . S
C2351 C2350 1.367 . S
C2351 C2353 1.433 . S
C2352 C2348 1.350 . S
C2352 C2349 1.462 . S
C2352 N2356 1.427 . S
C2353 H2343 0.929 . S
C2353 C2351 1.433 . S
C2353 N2356 1.384 . S
C2354 H2345 0.929 1_556 S
C2354 C2346 1.378 . S
C2354 C2349 1.350 1_556 S
C2355 H2342 0.929 . S
C2355 C2347 1.433 . S
C2355 N2357 1.384 . S
N2356 C2352 1.427 . S
N2356 C2353 1.384 . S
N2357 C2349 1.427 1_556 S
N2357 C2355 1.384 . S
H2358 C2364 0.930 . S
H2359 C2368 0.930 . S
H2360 C2373 0.929 . S
H2361 C2371 0.929 . S
H2362 C2366 0.929 . S
H2363 C2372 0.929 . S
C2364 H2358 0.930 . S
C2364 C2365 1.367 . S
C2364 C2372 1.378 . S
C2365 C2364 1.367 . S
C2365 C2373 1.433 . S
C2366 H2362 0.929 . S
C2366 C2368 1.378 . S
C2366 C2370 1.350 . S
C2367 C2370 1.463 . S
C2367 C2372 1.350 . S
C2367 N2375 1.427 . S
C2368 H2359 0.930 . S
C2368 C2366 1.378 . S
C2368 C2369 1.367 . S
C2369 C2368 1.367 . S
C2369 C2371 1.433 . S
C2370 C2366 1.350 . S
C2370 C2367 1.463 . S
C2370 N2374 1.427 . S
C2371 H2361 0.929 . S
C2371 C2369 1.433 . S
C2371 N2374 1.384 . S
C2372 H2363 0.929 . S
C2372 C2364 1.378 . S
C2372 C2367 1.350 . S
C2373 H2360 0.929 . S
C2373 C2365 1.433 . S
C2373 N2375 1.384 . S
N2374 C2370 1.427 . S
N2374 C2371 1.384 . S
N2375 C2367 1.427 . S
N2375 C2373 1.384 . S
H2376 C2382 0.930 . S
H2377 C2386 0.930 . S
H2378 C2391 0.929 . S
H2379 C2389 0.929 . S
H2380 C2384 0.929 . S
H2381 C2390 0.929 . S
C2382 H2376 0.930 . S
C2382 C2383 1.367 . S
C2382 C2390 1.378 . S
C2383 C2382 1.367 . S
C2383 C2391 1.433 . S
C2384 H2380 0.929 . S
C2384 C2386 1.378 . S
C2384 C2388 1.350 . S
C2385 C2388 1.463 . S
C2385 C2390 1.350 . S
C2385 N2393 1.427 . S
C2386 H2377 0.930 . S
C2386 C2384 1.378 . S
C2386 C2387 1.367 . S
C2387 C2386 1.367 . S
C2387 C2389 1.433 . S
C2388 C2384 1.350 . S
C2388 C2385 1.463 . S
C2388 N2392 1.427 . S
C2389 H2379 0.929 . S
C2389 C2387 1.433 . S
C2389 N2392 1.384 . S
C2390 H2381 0.929 . S
C2390 C2382 1.378 . S
C2390 C2385 1.350 . S
C2391 H2378 0.929 . S
C2391 C2383 1.433 . S
C2391 N2393 1.384 . S
N2392 C2388 1.427 . S
N2392 C2389 1.384 . S
N2393 C2385 1.427 . S
N2393 C2391 1.384 . S
H2394 C2400 0.930 . S
H2395 C2404 0.930 . S
H2396 C2409 0.929 . S
H2397 C2407 0.929 . S
H2398 C2402 0.929 . S
H2399 C2408 0.929 . S
C2400 H2394 0.930 . S
C2400 C2401 1.367 . S
C2400 C2408 1.378 . S
C2401 C2400 1.367 . S
C2401 C2409 1.433 . S
C2402 H2398 0.929 . S
C2402 C2404 1.378 . S
C2402 C2406 1.350 . S
C2403 C2406 1.463 . S
C2403 C2408 1.350 . S
C2403 N2411 1.427 . S
C2404 H2395 0.930 . S
C2404 C2402 1.378 . S
C2404 C2405 1.367 . S
C2405 C2404 1.367 . S
C2405 C2407 1.433 . S
C2406 C2402 1.350 . S
C2406 C2403 1.463 . S
C2406 N2410 1.427 . S
C2407 H2397 0.929 . S
C2407 C2405 1.433 . S
C2407 N2410 1.384 . S
C2408 H2399 0.929 . S
C2408 C2400 1.378 . S
C2408 C2403 1.350 . S
C2409 H2396 0.929 . S
C2409 C2401 1.433 . S
C2409 N2411 1.384 . S
N2410 C2406 1.427 . S
N2410 C2407 1.384 . S
N2411 C2403 1.427 . S
N2411 C2409 1.384 . S
H2412 C2418 0.930 . S
H2413 C2422 0.930 . S
H2414 C2427 0.929 . S
H2415 C2425 0.929 . S
H2416 C2420 0.929 . S
H2417 C2426 0.929 . S
C2418 H2412 0.930 . S
C2418 C2419 1.367 . S
C2418 C2426 1.378 . S
C2419 C2418 1.367 . S
C2419 C2427 1.433 . S
C2420 H2416 0.929 . S
C2420 C2422 1.378 . S
C2420 C2424 1.350 . S
C2421 C2424 1.463 . S
C2421 C2426 1.350 . S
C2421 N2429 1.427 . S
C2422 H2413 0.930 . S
C2422 C2420 1.378 . S
C2422 C2423 1.367 . S
C2423 C2422 1.367 . S
C2423 C2425 1.433 . S
C2424 C2420 1.350 . S
C2424 C2421 1.463 . S
C2424 N2428 1.427 . S
C2425 H2415 0.929 . S
C2425 C2423 1.433 . S
C2425 N2428 1.384 . S
C2426 H2417 0.929 . S
C2426 C2418 1.378 . S
C2426 C2421 1.350 . S
C2427 H2414 0.929 . S
C2427 C2419 1.433 . S
C2427 N2429 1.384 . S
N2428 C2424 1.427 . S
N2428 C2425 1.384 . S
N2429 C2421 1.427 . S
N2429 C2427 1.384 . S
H2430 C2436 0.930 . S
H2431 C2440 0.930 . S
H2432 C2445 0.929 . S
H2433 C2443 0.929 . S
H2434 C2438 0.929 . S
H2435 C2444 0.929 . S
C2436 H2430 0.930 . S
C2436 C2437 1.367 . S
C2436 C2444 1.378 . S
C2437 C2436 1.367 . S
C2437 C2445 1.433 . S
C2438 H2434 0.929 . S
C2438 C2440 1.378 . S
C2438 C2442 1.350 . S
C2439 C2442 1.463 . S
C2439 C2444 1.350 . S
C2439 N2447 1.427 . S
C2440 H2431 0.930 . S
C2440 C2438 1.378 . S
C2440 C2441 1.367 . S
C2441 C2440 1.367 . S
C2441 C2443 1.433 . S
C2442 C2438 1.350 . S
C2442 C2439 1.463 . S
C2442 N2446 1.427 . S
C2443 H2433 0.929 . S
C2443 C2441 1.433 . S
C2443 N2446 1.384 . S
C2444 H2435 0.929 . S
C2444 C2436 1.378 . S
C2444 C2439 1.350 . S
C2445 H2432 0.929 . S
C2445 C2437 1.433 . S
C2445 N2447 1.384 . S
N2446 C2442 1.427 . S
N2446 C2443 1.384 . S
N2447 C2439 1.427 . S
N2447 C2445 1.384 . S
H2448 C2454 0.930 . S
H2449 C2458 0.930 . S
H2450 C2463 0.929 . S
H2451 C2461 0.929 . S
H2452 C2456 0.929 . S
H2453 C2462 0.929 . S
C2454 H2448 0.930 . S
C2454 C2455 1.367 . S
C2454 C2462 1.378 . S
C2455 C2454 1.367 . S
C2455 C2463 1.433 . S
C2456 H2452 0.929 . S
C2456 C2458 1.378 . S
C2456 C2460 1.350 . S
C2457 C2460 1.463 . S
C2457 C2462 1.350 . S
C2457 N2465 1.427 . S
C2458 H2449 0.930 . S
C2458 C2456 1.378 . S
C2458 C2459 1.367 . S
C2459 C2458 1.367 . S
C2459 C2461 1.433 . S
C2460 C2456 1.350 . S
C2460 C2457 1.463 . S
C2460 N2464 1.427 . S
C2461 H2451 0.929 . S
C2461 C2459 1.433 . S
C2461 N2464 1.384 . S
C2462 H2453 0.929 . S
C2462 C2454 1.378 . S
C2462 C2457 1.350 . S
C2463 H2450 0.929 . S
C2463 C2455 1.433 . S
C2463 N2465 1.384 . S
N2464 C2460 1.427 . S
N2464 C2461 1.384 . S
N2465 C2457 1.427 . S
N2465 C2463 1.384 . S
H2466 C2472 0.930 . S
H2467 C2476 0.930 . S
H2468 C2481 0.929 . S
H2469 C2479 0.929 . S
H2470 C2474 0.929 . S
H2471 C2480 0.929 . S
C2472 H2466 0.930 . S
C2472 C2473 1.367 . S
C2472 C2480 1.378 . S
C2473 C2472 1.367 . S
C2473 C2481 1.433 . S
C2474 H2470 0.929 . S
C2474 C2476 1.378 . S
C2474 C2478 1.350 . S
C2475 C2478 1.463 . S
C2475 C2480 1.350 . S
C2475 N2483 1.427 . S
C2476 H2467 0.930 . S
C2476 C2474 1.378 . S
C2476 C2477 1.367 . S
C2477 C2476 1.367 . S
C2477 C2479 1.433 . S
C2478 C2474 1.350 . S
C2478 C2475 1.463 . S
C2478 N2482 1.427 . S
C2479 H2469 0.929 . S
C2479 C2477 1.433 . S
C2479 N2482 1.384 . S
C2480 H2471 0.929 . S
C2480 C2472 1.378 . S
C2480 C2475 1.350 . S
C2481 H2468 0.929 . S
C2481 C2473 1.433 . S
C2481 N2483 1.384 . S
N2482 C2478 1.427 . S
N2482 C2479 1.384 . S
N2483 C2475 1.427 . S
N2483 C2481 1.384 . S
H2484 C2490 0.930 . S
H2485 C2494 0.930 . S
H2486 C2499 0.929 . S
H2487 C2497 0.929 . S
H2488 C2492 0.929 . S
H2489 C2498 0.929 . S
C2490 H2484 0.930 . S
C2490 C2491 1.367 . S
C2490 C2498 1.378 . S
C2491 C2490 1.367 . S
C2491 C2499 1.433 . S
C2492 H2488 0.929 . S
C2492 C2494 1.378 . S
C2492 C2496 1.350 . S
C2493 C2496 1.463 . S
C2493 C2498 1.350 . S
C2493 N2501 1.427 . S
C2494 H2485 0.930 . S
C2494 C2492 1.378 . S
C2494 C2495 1.367 . S
C2495 C2494 1.367 . S
C2495 C2497 1.433 . S
C2496 C2492 1.350 . S
C2496 C2493 1.463 . S
C2496 N2500 1.427 . S
C2497 H2487 0.929 . S
C2497 C2495 1.433 . S
C2497 N2500 1.384 . S
C2498 H2489 0.929 . S
C2498 C2490 1.378 . S
C2498 C2493 1.350 . S
C2499 H2486 0.929 . S
C2499 C2491 1.433 . S
C2499 N2501 1.384 . S
N2500 C2496 1.427 . S
N2500 C2497 1.384 . S
N2501 C2493 1.427 . S
N2501 C2499 1.384 . S
H2502 C2508 0.930 . S
H2503 C2512 0.930 . S
H2504 C2517 0.929 . S
H2505 C2515 0.929 . S
H2506 C2510 0.929 . S
H2507 C2516 0.929 . S
C2508 H2502 0.930 . S
C2508 C2509 1.367 . S
C2508 C2516 1.378 . S
C2509 C2508 1.367 . S
C2509 C2517 1.433 . S
C2510 H2506 0.929 . S
C2510 C2512 1.378 . S
C2510 C2514 1.350 . S
C2511 C2514 1.463 . S
C2511 C2516 1.350 . S
C2511 N2519 1.427 . S
C2512 H2503 0.930 . S
C2512 C2510 1.378 . S
C2512 C2513 1.367 . S
C2513 C2512 1.367 . S
C2513 C2515 1.433 . S
C2514 C2510 1.350 . S
C2514 C2511 1.463 . S
C2514 N2518 1.427 . S
C2515 H2505 0.929 . S
C2515 C2513 1.433 . S
C2515 N2518 1.384 . S
C2516 H2507 0.929 . S
C2516 C2508 1.378 . S
C2516 C2511 1.350 . S
C2517 H2504 0.929 . S
C2517 C2509 1.433 . S
C2517 N2519 1.384 . S
N2518 C2514 1.427 . S
N2518 C2515 1.384 . S
N2519 C2511 1.427 . S
N2519 C2517 1.384 . S
H2520 C2526 0.930 . S
H2521 C2530 0.930 . S
H2522 C2535 0.929 . S
H2523 C2533 0.929 . S
H2524 C2528 0.929 . S
H2525 C2534 0.929 . S
C2526 H2520 0.930 . S
C2526 C2527 1.367 . S
C2526 C2534 1.378 . S
C2527 C2526 1.367 . S
C2527 C2535 1.433 . S
C2528 H2524 0.929 . S
C2528 C2530 1.378 . S
C2528 C2532 1.350 . S
C2529 C2532 1.463 . S
C2529 C2534 1.350 . S
C2529 N2537 1.427 . S
C2530 H2521 0.930 . S
C2530 C2528 1.378 . S
C2530 C2531 1.367 . S
C2531 C2530 1.367 . S
C2531 C2533 1.433 . S
C2532 C2528 1.350 . S
C2532 C2529 1.463 . S
C2532 N2536 1.427 . S
C2533 H2523 0.929 . S
C2533 C2531 1.433 . S
C2533 N2536 1.384 . S
C2534 H2525 0.929 . S
C2534 C2526 1.378 . S
C2534 C2529 1.350 . S
C2535 H2522 0.929 . S
C2535 C2527 1.433 . S
C2535 N2537 1.384 . S
N2536 C2532 1.427 . S
N2536 C2533 1.384 . S
N2537 C2529 1.427 . S
N2537 C2535 1.384 . S
H2538 C2544 0.930 . S
H2539 C2548 0.930 . S
H2540 C2553 0.929 . S
H2541 C2551 0.929 . S
H2542 C2546 0.929 . S
H2543 C2552 0.929 . S
C2544 H2538 0.930 . S
C2544 C2545 1.367 . S
C2544 C2552 1.378 . S
C2545 C2544 1.367 . S
C2545 C2553 1.433 . S
C2546 H2542 0.929 . S
C2546 C2548 1.378 . S
C2546 C2550 1.350 . S
C2547 C2550 1.463 . S
C2547 C2552 1.350 . S
C2547 N2555 1.427 . S
C2548 H2539 0.930 . S
C2548 C2546 1.378 . S
C2548 C2549 1.367 . S
C2549 C2548 1.367 . S
C2549 C2551 1.433 . S
C2550 C2546 1.350 . S
C2550 C2547 1.463 . S
C2550 N2554 1.427 . S
C2551 H2541 0.929 . S
C2551 C2549 1.433 . S
C2551 N2554 1.384 . S
C2552 H2543 0.929 . S
C2552 C2544 1.378 . S
C2552 C2547 1.350 . S
C2553 H2540 0.929 . S
C2553 C2545 1.433 . S
C2553 N2555 1.384 . S
N2554 C2550 1.427 . S
N2554 C2551 1.384 . S
N2555 C2547 1.427 . S
N2555 C2553 1.384 . S
H2556 C2562 0.930 . S
H2557 C2566 0.930 . S
H2558 C2571 0.929 . S
H2559 C2569 0.929 . S
H2560 C2564 0.929 . S
H2561 C2570 0.929 . S
C2562 H2556 0.930 . S
C2562 C2563 1.367 . S
C2562 C2570 1.378 . S
C2563 C2562 1.367 . S
C2563 C2571 1.433 . S
C2564 H2560 0.929 . S
C2564 C2566 1.378 . S
C2564 C2568 1.350 . S
C2565 C2568 1.463 . S
C2565 C2570 1.350 . S
C2565 N2573 1.427 . S
C2566 H2557 0.930 . S
C2566 C2564 1.378 . S
C2566 C2567 1.367 . S
C2567 C2566 1.367 . S
C2567 C2569 1.433 . S
C2568 C2564 1.350 . S
C2568 C2565 1.463 . S
C2568 N2572 1.427 . S
C2569 H2559 0.929 . S
C2569 C2567 1.433 . S
C2569 N2572 1.384 . S
C2570 H2561 0.929 . S
C2570 C2562 1.378 . S
C2570 C2565 1.350 . S
C2571 H2558 0.929 . S
C2571 C2563 1.433 . S
C2571 N2573 1.384 . S
N2572 C2568 1.427 . S
N2572 C2569 1.384 . S
N2573 C2565 1.427 . S
N2573 C2571 1.384 . S
H2574 C2580 0.930 . S
H2575 C2584 0.930 . S
H2576 C2589 0.929 . S
H2577 C2587 0.929 . S
H2578 C2582 0.929 . S
H2579 C2588 0.929 . S
C2580 H2574 0.930 . S
C2580 C2581 1.367 . S
C2580 C2588 1.378 . S
C2581 C2580 1.367 . S
C2581 C2589 1.433 . S
C2582 H2578 0.929 . S
C2582 C2584 1.378 . S
C2582 C2586 1.350 . S
C2583 C2586 1.463 . S
C2583 C2588 1.350 . S
C2583 N2591 1.427 . S
C2584 H2575 0.930 . S
C2584 C2582 1.378 . S
C2584 C2585 1.367 . S
C2585 C2584 1.367 . S
C2585 C2587 1.433 . S
C2586 C2582 1.350 . S
C2586 C2583 1.463 . S
C2586 N2590 1.427 . S
C2587 H2577 0.929 . S
C2587 C2585 1.433 . S
C2587 N2590 1.384 . S
C2588 H2579 0.929 . S
C2588 C2580 1.378 . S
C2588 C2583 1.350 . S
C2589 H2576 0.929 . S
C2589 C2581 1.433 . S
C2589 N2591 1.384 . S
N2590 C2586 1.427 . S
N2590 C2587 1.384 . S
N2591 C2583 1.427 . S
N2591 C2589 1.384 . S
H2592 C2598 0.930 . S
H2593 C2602 0.930 . S
H2594 C2607 0.929 . S
H2595 C2605 0.929 . S
H2596 C2600 0.929 . S
H2597 C2606 0.929 . S
C2598 H2592 0.930 . S
C2598 C2599 1.367 . S
C2598 C2606 1.378 . S
C2599 C2598 1.367 . S
C2599 C2607 1.433 . S
C2600 H2596 0.929 . S
C2600 C2602 1.378 . S
C2600 C2604 1.350 . S
C2601 C2604 1.463 . S
C2601 C2606 1.350 . S
C2601 N2609 1.427 . S
C2602 H2593 0.930 . S
C2602 C2600 1.378 . S
C2602 C2603 1.367 . S
C2603 C2602 1.367 . S
C2603 C2605 1.433 . S
C2604 C2600 1.350 . S
C2604 C2601 1.463 . S
C2604 N2608 1.427 . S
C2605 H2595 0.929 . S
C2605 C2603 1.433 . S
C2605 N2608 1.384 . S
C2606 H2597 0.929 . S
C2606 C2598 1.378 . S
C2606 C2601 1.350 . S
C2607 H2594 0.929 . S
C2607 C2599 1.433 . S
C2607 N2609 1.384 . S
N2608 C2604 1.427 . S
N2608 C2605 1.384 . S
N2609 C2601 1.427 . S
N2609 C2607 1.384 . S
H2610 C2616 0.930 . S
H2611 C2620 0.930 . S
H2612 C2625 0.929 . S
H2613 C2623 0.929 . S
H2614 C2618 0.929 . S
H2615 C2624 0.929 . S
C2616 H2610 0.930 . S
C2616 C2617 1.367 . S
C2616 C2624 1.378 . S
C2617 C2616 1.367 . S
C2617 C2625 1.433 . S
C2618 H2614 0.929 . S
C2618 C2620 1.378 . S
C2618 C2622 1.350 . S
C2619 C2622 1.463 . S
C2619 C2624 1.350 . S
C2619 N2627 1.427 . S
C2620 H2611 0.930 . S
C2620 C2618 1.378 . S
C2620 C2621 1.367 . S
C2621 C2620 1.367 . S
C2621 C2623 1.433 . S
C2622 C2618 1.350 . S
C2622 C2619 1.463 . S
C2622 N2626 1.427 . S
C2623 H2613 0.929 . S
C2623 C2621 1.433 . S
C2623 N2626 1.384 . S
C2624 H2615 0.929 . S
C2624 C2616 1.378 . S
C2624 C2619 1.350 . S
C2625 H2612 0.929 . S
C2625 C2617 1.433 . S
C2625 N2627 1.384 . S
N2626 C2622 1.427 . S
N2626 C2623 1.384 . S
N2627 C2619 1.427 . S
N2627 C2625 1.384 . S
H2628 C2634 0.930 . S
H2629 C2638 0.930 . S
H2630 C2643 0.929 . S
H2631 C2641 0.929 . S
H2632 C2636 0.929 . S
H2633 C2642 0.929 . S
C2634 H2628 0.930 . S
C2634 C2635 1.367 . S
C2634 C2642 1.378 . S
C2635 C2634 1.367 . S
C2635 C2643 1.433 . S
C2636 H2632 0.929 . S
C2636 C2638 1.378 . S
C2636 C2640 1.350 . S
C2637 C2640 1.463 . S
C2637 C2642 1.350 . S
C2637 N2645 1.427 . S
C2638 H2629 0.930 . S
C2638 C2636 1.378 . S
C2638 C2639 1.367 . S
C2639 C2638 1.367 . S
C2639 C2641 1.433 . S
C2640 C2636 1.350 . S
C2640 C2637 1.463 . S
C2640 N2644 1.427 . S
C2641 H2631 0.929 . S
C2641 C2639 1.433 . S
C2641 N2644 1.384 . S
C2642 H2633 0.929 . S
C2642 C2634 1.378 . S
C2642 C2637 1.350 . S
C2643 H2630 0.929 . S
C2643 C2635 1.433 . S
C2643 N2645 1.384 . S
N2644 C2640 1.427 . S
N2644 C2641 1.384 . S
N2645 C2637 1.427 . S
N2645 C2643 1.384 . S
H2646 C2652 0.930 . S
H2647 C2656 0.930 . S
H2648 C2661 0.929 . S
H2649 C2659 0.929 . S
H2650 C2654 0.929 . S
H2651 C2660 0.929 . S
C2652 H2646 0.930 . S
C2652 C2653 1.367 . S
C2652 C2660 1.378 . S
C2653 C2652 1.367 . S
C2653 C2661 1.433 . S
C2654 H2650 0.929 . S
C2654 C2656 1.378 . S
C2654 C2658 1.350 . S
C2655 C2658 1.463 . S
C2655 C2660 1.350 . S
C2655 N2663 1.427 . S
C2656 H2647 0.930 . S
C2656 C2654 1.378 . S
C2656 C2657 1.367 . S
C2657 C2656 1.367 . S
C2657 C2659 1.433 . S
C2658 C2654 1.350 . S
C2658 C2655 1.463 . S
C2658 N2662 1.427 . S
C2659 H2649 0.929 . S
C2659 C2657 1.433 . S
C2659 N2662 1.384 . S
C2660 H2651 0.929 . S
C2660 C2652 1.378 . S
C2660 C2655 1.350 . S
C2661 H2648 0.929 . S
C2661 C2653 1.433 . S
C2661 N2663 1.384 . S
N2662 C2658 1.427 . S
N2662 C2659 1.384 . S
N2663 C2655 1.427 . S
N2663 C2661 1.384 . S
H2664 C2670 0.930 . S
H2665 C2674 0.930 . S
H2666 C2679 0.929 . S
H2667 C2677 0.929 . S
H2668 C2672 0.929 . S
H2669 C2678 0.929 . S
C2670 H2664 0.930 . S
C2670 C2671 1.367 . S
C2670 C2678 1.378 . S
C2671 C2670 1.367 . S
C2671 C2679 1.433 . S
C2672 H2668 0.929 . S
C2672 C2674 1.378 . S
C2672 C2676 1.350 . S
C2673 C2676 1.463 . S
C2673 C2678 1.350 . S
C2673 N2681 1.427 . S
C2674 H2665 0.930 . S
C2674 C2672 1.378 . S
C2674 C2675 1.367 . S
C2675 C2674 1.367 . S
C2675 C2677 1.433 . S
C2676 C2672 1.350 . S
C2676 C2673 1.463 . S
C2676 N2680 1.427 . S
C2677 H2667 0.929 . S
C2677 C2675 1.433 . S
C2677 N2680 1.384 . S
C2678 H2669 0.929 . S
C2678 C2670 1.378 . S
C2678 C2673 1.350 . S
C2679 H2666 0.929 . S
C2679 C2671 1.433 . S
C2679 N2681 1.384 . S
N2680 C2676 1.427 . S
N2680 C2677 1.384 . S
N2681 C2673 1.427 . S
N2681 C2679 1.384 . S
H2682 C2688 0.930 . S
H2683 C2692 0.930 . S
H2684 C2697 0.929 . S
H2685 C2695 0.929 . S
H2686 C2690 0.929 . S
H2687 C2696 0.929 . S
C2688 H2682 0.930 . S
C2688 C2689 1.367 . S
C2688 C2696 1.378 . S
C2689 C2688 1.367 . S
C2689 C2697 1.433 . S
C2690 H2686 0.929 . S
C2690 C2692 1.378 . S
C2690 C2694 1.350 . S
C2691 C2694 1.463 . S
C2691 C2696 1.350 . S
C2691 N2699 1.427 . S
C2692 H2683 0.930 . S
C2692 C2690 1.378 . S
C2692 C2693 1.367 . S
C2693 C2692 1.367 . S
C2693 C2695 1.433 . S
C2694 C2690 1.350 . S
C2694 C2691 1.463 . S
C2694 N2698 1.427 . S
C2695 H2685 0.929 . S
C2695 C2693 1.433 . S
C2695 N2698 1.384 . S
C2696 H2687 0.929 . S
C2696 C2688 1.378 . S
C2696 C2691 1.350 . S
C2697 H2684 0.929 . S
C2697 C2689 1.433 . S
C2697 N2699 1.384 . S
N2698 C2694 1.427 . S
N2698 C2695 1.384 . S
N2699 C2691 1.427 . S
N2699 C2697 1.384 . S
H2700 C2706 0.930 . S
H2701 C2710 0.930 . S
H2702 C2715 0.929 . S
H2703 C2713 0.929 . S
H2704 C2708 0.929 . S
H2705 C2714 0.929 . S
C2706 H2700 0.930 . S
C2706 C2707 1.367 . S
C2706 C2714 1.378 . S
C2707 C2706 1.367 . S
C2707 C2715 1.433 . S
C2708 H2704 0.929 . S
C2708 C2710 1.378 . S
C2708 C2712 1.350 . S
C2709 C2712 1.463 . S
C2709 C2714 1.350 . S
C2709 N2717 1.427 . S
C2710 H2701 0.930 . S
C2710 C2708 1.378 . S
C2710 C2711 1.367 . S
C2711 C2710 1.367 . S
C2711 C2713 1.433 . S
C2712 C2708 1.350 . S
C2712 C2709 1.463 . S
C2712 N2716 1.427 . S
C2713 H2703 0.929 . S
C2713 C2711 1.433 . S
C2713 N2716 1.384 . S
C2714 H2705 0.929 . S
C2714 C2706 1.378 . S
C2714 C2709 1.350 . S
C2715 H2702 0.929 . S
C2715 C2707 1.433 . S
C2715 N2717 1.384 . S
N2716 C2712 1.427 . S
N2716 C2713 1.384 . S
N2717 C2709 1.427 . S
N2717 C2715 1.384 . S
H2718 C2724 0.930 . S
H2719 C2728 0.930 . S
H2720 C2733 0.929 . S
H2721 C2731 0.929 . S
H2722 C2726 0.929 . S
H2723 C2732 0.929 . S
C2724 H2718 0.930 . S
C2724 C2725 1.367 . S
C2724 C2732 1.378 . S
C2725 C2724 1.367 . S
C2725 C2733 1.433 . S
C2726 H2722 0.929 . S
C2726 C2728 1.378 . S
C2726 C2730 1.350 . S
C2727 C2730 1.463 . S
C2727 C2732 1.350 . S
C2727 N2735 1.427 . S
C2728 H2719 0.930 . S
C2728 C2726 1.378 . S
C2728 C2729 1.367 . S
C2729 C2728 1.367 . S
C2729 C2731 1.433 . S
C2730 C2726 1.350 . S
C2730 C2727 1.463 . S
C2730 N2734 1.427 . S
C2731 H2721 0.929 . S
C2731 C2729 1.433 . S
C2731 N2734 1.384 . S
C2732 H2723 0.929 . S
C2732 C2724 1.378 . S
C2732 C2727 1.350 . S
C2733 H2720 0.929 . S
C2733 C2725 1.433 . S
C2733 N2735 1.384 . S
N2734 C2730 1.427 . S
N2734 C2731 1.384 . S
N2735 C2727 1.427 . S
N2735 C2733 1.384 . S
H2736 C2742 0.888 1_655 S
H2737 C2746 0.887 1_455 S
H2738 C2751 0.929 . S
H2739 C2749 0.929 . S
H2740 C2744 0.929 . S
H2741 C2750 0.929 . S
C2742 H2736 0.888 1_455 S
C2742 C2743 1.367 . S
C2742 C2750 1.378 1_455 S
C2743 C2742 1.367 . S
C2743 C2751 1.433 . S
C2744 H2740 0.929 . S
C2744 C2746 1.378 1_455 S
C2744 C2748 1.350 1_455 S
C2745 C2748 1.463 1_455 S
C2745 C2750 1.350 1_455 S
C2745 N2753 1.427 . S
C2746 H2737 0.887 1_655 S
C2746 C2744 1.378 1_655 S
C2746 C2747 1.367 . S
C2747 C2746 1.367 . S
C2747 C2749 1.433 . S
C2748 C2744 1.350 1_655 S
C2748 C2745 1.463 1_655 S
C2748 N2752 1.427 . S
C2749 H2739 0.929 . S
C2749 C2747 1.433 . S
C2749 N2752 1.384 . S
C2750 H2741 0.929 . S
C2750 C2742 1.378 1_655 S
C2750 C2745 1.350 1_655 S
C2751 H2738 0.929 . S
C2751 C2743 1.433 . S
C2751 N2753 1.384 . S
N2752 C2748 1.427 . S
N2752 C2749 1.384 . S
N2753 C2745 1.427 . S
N2753 C2751 1.384 . S
H2754 C2760 0.930 . S
H2755 C2764 0.930 . S
H2756 C2769 0.929 . S
H2757 C2767 0.929 . S
H2758 C2762 0.929 . S
H2759 C2768 0.929 . S
C2760 H2754 0.930 . S
C2760 C2761 1.367 . S
C2760 C2768 1.378 . S
C2761 C2760 1.367 . S
C2761 C2769 1.433 . S
C2762 H2758 0.929 . S
C2762 C2764 1.378 . S
C2762 C2766 1.350 . S
C2763 C2766 1.463 . S
C2763 C2768 1.350 . S
C2763 N2771 1.427 . S
C2764 H2755 0.930 . S
C2764 C2762 1.378 . S
C2764 C2765 1.367 . S
C2765 C2764 1.367 . S
C2765 C2767 1.433 . S
C2766 C2762 1.350 . S
C2766 C2763 1.463 . S
C2766 N2770 1.427 . S
C2767 H2757 0.929 . S
C2767 C2765 1.433 . S
C2767 N2770 1.384 . S
C2768 H2759 0.929 . S
C2768 C2760 1.378 . S
C2768 C2763 1.350 . S
C2769 H2756 0.929 . S
C2769 C2761 1.433 . S
C2769 N2771 1.384 . S
N2770 C2766 1.427 . S
N2770 C2767 1.384 . S
N2771 C2763 1.427 . S
N2771 C2769 1.384 . S
H2772 C2778 0.930 . S
H2773 C2782 0.930 . S
H2774 C2787 0.929 . S
H2775 C2785 0.929 . S
H2776 C2780 0.929 . S
H2777 C2786 0.929 . S
C2778 H2772 0.930 . S
C2778 C2779 1.367 . S
C2778 C2786 1.378 . S
C2779 C2778 1.367 . S
C2779 C2787 1.433 . S
C2780 H2776 0.929 . S
C2780 C2782 1.378 . S
C2780 C2784 1.350 . S
C2781 C2784 1.463 1_565 S
C2781 C2786 1.350 . S
C2781 N2789 1.427 . S
C2782 H2773 0.930 . S
C2782 C2780 1.378 . S
C2782 C2783 1.367 . S
C2783 C2782 1.367 . S
C2783 C2785 1.433 . S
C2784 C2780 1.350 . S
C2784 C2781 1.463 1_545 S
C2784 N2788 1.427 . S
C2785 H2775 0.929 . S
C2785 C2783 1.433 . S
C2785 N2788 1.384 . S
C2786 H2777 0.929 . S
C2786 C2778 1.378 . S
C2786 C2781 1.350 . S
C2787 H2774 0.929 . S
C2787 C2779 1.433 . S
C2787 N2789 1.384 . S
N2788 C2784 1.427 . S
N2788 C2785 1.384 . S
N2789 C2781 1.427 . S
N2789 C2787 1.384 . S
H2790 C2796 0.930 . S
H2791 C2800 0.930 . S
H2792 C2805 0.929 . S
H2793 C2803 0.929 . S
H2794 C2798 0.929 . S
H2795 C2804 0.929 . S
C2796 H2790 0.930 . S
C2796 C2797 1.367 . S
C2796 C2804 1.378 . S
C2797 C2796 1.367 . S
C2797 C2805 1.433 1_655 S
C2798 H2794 0.929 . S
C2798 C2800 1.378 . S
C2798 C2802 1.350 . S
C2799 C2802 1.463 1_655 S
C2799 C2804 1.350 . S
C2799 N2807 1.427 1_655 S
C2800 H2791 0.930 . S
C2800 C2798 1.378 . S
C2800 C2801 1.367 . S
C2801 C2800 1.367 . S
C2801 C2803 1.433 1_455 S
C2802 C2798 1.350 . S
C2802 C2799 1.463 1_455 S
C2802 N2806 1.427 1_455 S
C2803 H2793 0.929 . S
C2803 C2801 1.433 1_655 S
C2803 N2806 1.384 . S
C2804 H2795 0.929 . S
C2804 C2796 1.378 . S
C2804 C2799 1.350 . S
C2805 H2792 0.929 . S
C2805 C2797 1.433 1_455 S
C2805 N2807 1.384 . S
N2806 C2802 1.427 1_655 S
N2806 C2803 1.384 . S
N2807 C2799 1.427 1_455 S
N2807 C2805 1.384 . S
H2808 C2814 0.930 . S
H2809 C2818 0.930 . S
H2810 C2823 0.929 . S
H2811 C2821 0.929 . S
H2812 C2816 0.929 . S
H2813 C2822 0.929 . S
C2814 H2808 0.930 . S
C2814 C2815 1.367 . S
C2814 C2822 1.378 . S
C2815 C2814 1.367 . S
C2815 C2823 1.433 . S
C2816 H2812 0.929 . S
C2816 C2818 1.378 . S
C2816 C2820 1.350 . S
C2817 C2820 1.463 . S
C2817 C2822 1.350 . S
C2817 N2825 1.427 . S
C2818 H2809 0.930 . S
C2818 C2816 1.378 . S
C2818 C2819 1.367 . S
C2819 C2818 1.367 . S
C2819 C2821 1.433 . S
C2820 C2816 1.350 . S
C2820 C2817 1.463 . S
C2820 N2824 1.427 . S
C2821 H2811 0.929 . S
C2821 C2819 1.433 . S
C2821 N2824 1.384 . S
C2822 H2813 0.929 . S
C2822 C2814 1.378 . S
C2822 C2817 1.350 . S
C2823 H2810 0.929 . S
C2823 C2815 1.433 . S
C2823 N2825 1.384 . S
N2824 C2820 1.427 . S
N2824 C2821 1.384 . S
N2825 C2817 1.427 . S
N2825 C2823 1.384 . S
H2826 C2832 0.938 . S
H2827 C2836 0.936 . S
H2828 C2841 0.929 . S
H2829 C2839 0.929 . S
H2830 C2834 0.929 . S
H2831 C2840 0.929 . S
C2832 H2826 0.938 . S
C2832 C2833 1.351 1_565 S
C2832 C2840 1.388 . S
C2833 C2832 1.351 1_545 S
C2833 C2841 1.433 . S
C2834 H2830 0.929 . S
C2834 C2836 1.386 . S
C2834 C2838 1.350 1_545 S
C2835 C2838 1.463 1_545 S
C2835 C2840 1.350 1_545 S
C2835 N2843 1.427 . S
C2836 H2827 0.936 . S
C2836 C2834 1.386 . S
C2836 C2837 1.353 1_545 S
C2837 C2836 1.353 1_565 S
C2837 C2839 1.433 . S
C2838 C2834 1.350 1_565 S
C2838 C2835 1.463 1_565 S
C2838 N2842 1.427 . S
C2839 H2829 0.929 . S
C2839 C2837 1.433 . S
C2839 N2842 1.384 . S
C2840 H2831 0.929 . S
C2840 C2832 1.388 . S
C2840 C2835 1.350 1_565 S
C2841 H2828 0.929 . S
C2841 C2833 1.433 . S
C2841 N2843 1.384 . S
N2842 C2838 1.427 . S
N2842 C2839 1.384 . S
N2843 C2835 1.427 . S
N2843 C2841 1.384 . S
H2844 C2850 0.930 . S
H2845 C2854 0.930 . S
H2846 C2859 0.929 . S
H2847 C2857 0.929 . S
H2848 C2852 0.929 . S
H2849 C2858 0.929 . S
C2850 H2844 0.930 . S
C2850 C2851 1.367 . S
C2850 C2858 1.378 . S
C2851 C2850 1.367 . S
C2851 C2859 1.433 . S
C2852 H2848 0.929 . S
C2852 C2854 1.378 . S
C2852 C2856 1.350 . S
C2853 C2856 1.463 . S
C2853 C2858 1.350 . S
C2853 N2861 1.427 . S
C2854 H2845 0.930 . S
C2854 C2852 1.378 . S
C2854 C2855 1.367 . S
C2855 C2854 1.367 . S
C2855 C2857 1.433 . S
C2856 C2852 1.350 . S
C2856 C2853 1.463 . S
C2856 N2860 1.427 . S
C2857 H2847 0.929 . S
C2857 C2855 1.433 . S
C2857 N2860 1.384 . S
C2858 H2849 0.929 . S
C2858 C2850 1.378 . S
C2858 C2853 1.350 . S
C2859 H2846 0.929 . S
C2859 C2851 1.433 . S
C2859 N2861 1.384 . S
N2860 C2856 1.427 . S
N2860 C2857 1.384 . S
N2861 C2853 1.427 . S
N2861 C2859 1.384 . S
H2862 C2868 0.930 . S
H2863 C2872 0.930 . S
H2864 C2877 0.929 . S
H2865 C2875 0.929 . S
H2866 C2870 0.929 . S
H2867 C2876 0.929 . S
C2868 H2862 0.930 . S
C2868 C2869 1.367 . S
C2868 C2876 1.378 . S
C2869 C2868 1.367 . S
C2869 C2877 1.433 . S
C2870 H2866 0.929 . S
C2870 C2872 1.378 . S
C2870 C2874 1.350 . S
C2871 C2874 1.463 . S
C2871 C2876 1.350 . S
C2871 N2879 1.427 . S
C2872 H2863 0.930 . S
C2872 C2870 1.378 . S
C2872 C2873 1.367 . S
C2873 C2872 1.367 . S
C2873 C2875 1.433 . S
C2874 C2870 1.350 . S
C2874 C2871 1.463 . S
C2874 N2878 1.427 . S
C2875 H2865 0.929 . S
C2875 C2873 1.433 . S
C2875 N2878 1.384 . S
C2876 H2867 0.929 . S
C2876 C2868 1.378 . S
C2876 C2871 1.350 . S
C2877 H2864 0.929 . S
C2877 C2869 1.433 . S
C2877 N2879 1.384 . S
N2878 C2874 1.427 . S
N2878 C2875 1.384 . S
N2879 C2871 1.427 . S
N2879 C2877 1.384 . S
H2880 C2886 0.930 . S
H2881 C2890 0.930 . S
H2882 C2895 0.929 . S
H2883 C2893 0.929 . S
H2884 C2888 0.929 . S
H2885 C2894 0.929 . S
C2886 H2880 0.930 . S
C2886 C2887 1.367 . S
C2886 C2894 1.378 . S
C2887 C2886 1.367 . S
C2887 C2895 1.433 . S
C2888 H2884 0.929 . S
C2888 C2890 1.378 . S
C2888 C2892 1.350 . S
C2889 C2892 1.463 . S
C2889 C2894 1.350 . S
C2889 N2897 1.427 . S
C2890 H2881 0.930 . S
C2890 C2888 1.378 . S
C2890 C2891 1.367 . S
C2891 C2890 1.367 . S
C2891 C2893 1.433 . S
C2892 C2888 1.350 . S
C2892 C2889 1.463 . S
C2892 N2896 1.427 . S
C2893 H2883 0.929 . S
C2893 C2891 1.433 . S
C2893 N2896 1.384 . S
C2894 H2885 0.929 . S
C2894 C2886 1.378 . S
C2894 C2889 1.350 . S
C2895 H2882 0.929 . S
C2895 C2887 1.433 . S
C2895 N2897 1.384 . S
N2896 C2892 1.427 . S
N2896 C2893 1.384 . S
N2897 C2889 1.427 . S
N2897 C2895 1.384 . S
H2898 C2904 0.930 . S
H2899 C2908 0.930 . S
H2900 C2913 0.929 . S
H2901 C2911 0.929 . S
H2902 C2906 0.929 . S
H2903 C2912 0.929 . S
C2904 H2898 0.930 . S
C2904 C2905 1.367 . S
C2904 C2912 1.378 . S
C2905 C2904 1.367 . S
C2905 C2913 1.433 . S
C2906 H2902 0.929 . S
C2906 C2908 1.378 . S
C2906 C2910 1.350 . S
C2907 C2910 1.463 . S
C2907 C2912 1.350 . S
C2907 N2915 1.427 . S
C2908 H2899 0.930 . S
C2908 C2906 1.378 . S
C2908 C2909 1.367 . S
C2909 C2908 1.367 . S
C2909 C2911 1.433 . S
C2910 C2906 1.350 . S
C2910 C2907 1.463 . S
C2910 N2914 1.427 . S
C2911 H2901 0.929 . S
C2911 C2909 1.433 . S
C2911 N2914 1.384 . S
C2912 H2903 0.929 . S
C2912 C2904 1.378 . S
C2912 C2907 1.350 . S
C2913 H2900 0.929 . S
C2913 C2905 1.433 . S
C2913 N2915 1.384 . S
N2914 C2910 1.427 . S
N2914 C2911 1.384 . S
N2915 C2907 1.427 . S
N2915 C2913 1.384 . S
H2916 C2922 0.930 . S
H2917 C2926 0.930 . S
H2918 C2931 0.929 . S
H2919 C2929 0.929 . S
H2920 C2924 0.929 . S
H2921 C2930 0.929 . S
C2922 H2916 0.930 . S
C2922 C2923 1.367 . S
C2922 C2930 1.378 . S
C2923 C2922 1.367 . S
C2923 C2931 1.433 . S
C2924 H2920 0.929 . S
C2924 C2926 1.378 . S
C2924 C2928 1.350 . S
C2925 C2928 1.463 . S
C2925 C2930 1.350 . S
C2925 N2933 1.427 . S
C2926 H2917 0.930 . S
C2926 C2924 1.378 . S
C2926 C2927 1.367 . S
C2927 C2926 1.367 . S
C2927 C2929 1.433 . S
C2928 C2924 1.350 . S
C2928 C2925 1.463 . S
C2928 N2932 1.427 . S
C2929 H2919 0.929 . S
C2929 C2927 1.433 . S
C2929 N2932 1.384 . S
C2930 H2921 0.929 . S
C2930 C2922 1.378 . S
C2930 C2925 1.350 . S
C2931 H2918 0.929 . S
C2931 C2923 1.433 . S
C2931 N2933 1.384 . S
N2932 C2928 1.427 . S
N2932 C2929 1.384 . S
N2933 C2925 1.427 . S
N2933 C2931 1.384 . S
H2934 C2940 0.930 . S
H2935 C2944 0.930 . S
H2936 C2949 0.929 . S
H2937 C2947 0.929 . S
H2938 C2942 0.929 . S
H2939 C2948 0.929 . S
C2940 H2934 0.930 . S
C2940 C2941 1.367 . S
C2940 C2948 1.378 . S
C2941 C2940 1.367 . S
C2941 C2949 1.433 . S
C2942 H2938 0.929 . S
C2942 C2944 1.378 . S
C2942 C2946 1.350 . S
C2943 C2946 1.463 . S
C2943 C2948 1.350 . S
C2943 N2951 1.427 . S
C2944 H2935 0.930 . S
C2944 C2942 1.378 . S
C2944 C2945 1.367 . S
C2945 C2944 1.367 . S
C2945 C2947 1.433 . S
C2946 C2942 1.350 . S
C2946 C2943 1.463 . S
C2946 N2950 1.427 . S
C2947 H2937 0.929 . S
C2947 C2945 1.433 . S
C2947 N2950 1.384 . S
C2948 H2939 0.929 . S
C2948 C2940 1.378 . S
C2948 C2943 1.350 . S
C2949 H2936 0.929 . S
C2949 C2941 1.433 . S
C2949 N2951 1.384 . S
N2950 C2946 1.427 . S
N2950 C2947 1.384 . S
N2951 C2943 1.427 . S
N2951 C2949 1.384 . S
H2952 C2958 0.930 . S
H2953 C2962 0.930 . S
H2954 C2967 0.929 . S
H2955 C2965 0.929 . S
H2956 C2960 0.929 . S
H2957 C2966 0.929 1_556 S
C2958 H2952 0.930 . S
C2958 C2959 1.367 . S
C2958 C2966 1.378 . S
C2959 C2958 1.367 . S
C2959 C2967 1.433 . S
C2960 H2956 0.929 . S
C2960 C2962 1.378 . S
C2960 C2964 1.350 . S
C2961 C2964 1.463 1_554 S
C2961 C2966 1.350 . S
C2961 N2969 1.427 . S
C2962 H2953 0.930 . S
C2962 C2960 1.378 . S
C2962 C2963 1.367 . S
C2963 C2962 1.367 . S
C2963 C2965 1.433 . S
C2964 C2960 1.350 . S
C2964 C2961 1.463 1_556 S
C2964 N2968 1.427 . S
C2965 H2955 0.929 . S
C2965 C2963 1.433 . S
C2965 N2968 1.384 . S
C2966 H2957 0.929 1_554 S
C2966 C2958 1.378 . S
C2966 C2961 1.350 . S
C2967 H2954 0.929 . S
C2967 C2959 1.433 . S
C2967 N2969 1.384 . S
N2968 C2964 1.427 . S
N2968 C2965 1.384 . S
N2969 C2961 1.427 . S
N2969 C2967 1.384 . S
H2970 C2976 0.930 . S
H2971 C2980 0.930 . S
H2972 C2985 0.929 . S
H2973 C2983 0.929 . S
H2974 C2978 0.929 1_556 S
H2975 C2984 0.929 . S
C2976 H2970 0.930 . S
C2976 C2977 1.367 . S
C2976 C2984 1.378 . S
C2977 C2976 1.367 . S
C2977 C2985 1.433 . S
C2978 H2974 0.929 1_554 S
C2978 C2980 1.378 . S
C2978 C2982 1.350 . S
C2979 C2982 1.463 1_556 S
C2979 C2984 1.350 . S
C2979 N2987 1.427 . S
C2980 H2971 0.930 . S
C2980 C2978 1.378 . S
C2980 C2981 1.367 . S
C2981 C2980 1.367 . S
C2981 C2983 1.433 . S
C2982 C2978 1.350 . S
C2982 C2979 1.463 1_554 S
C2982 N2986 1.427 . S
C2983 H2973 0.929 . S
C2983 C2981 1.433 . S
C2983 N2986 1.384 . S
C2984 H2975 0.929 . S
C2984 C2976 1.378 . S
C2984 C2979 1.350 . S
C2985 H2972 0.929 . S
C2985 C2977 1.433 . S
C2985 N2987 1.384 . S
N2986 C2982 1.427 . S
N2986 C2983 1.384 . S
N2987 C2979 1.427 . S
N2987 C2985 1.384 . S
H2988 C2994 0.930 . S
H2989 C2998 0.930 . S
H2990 C3003 0.929 . S
H2991 C3001 0.929 . S
H2992 C2996 0.929 1_556 S
H2993 C3002 0.929 . S
C2994 H2988 0.930 . S
C2994 C2995 1.367 . S
C2994 C3002 1.378 . S
C2995 C2994 1.367 . S
C2995 C3003 1.433 . S
C2996 H2992 0.929 1_554 S
C2996 C2998 1.378 . S
C2996 C3000 1.350 . S
C2997 C3000 1.463 1_556 S
C2997 C3002 1.350 . S
C2997 N3005 1.427 . S
C2998 H2989 0.930 . S
C2998 C2996 1.378 . S
C2998 C2999 1.367 . S
C2999 C2998 1.367 . S
C2999 C3001 1.433 . S
C3000 C2996 1.350 . S
C3000 C2997 1.463 1_554 S
C3000 N3004 1.427 . S
C3001 H2991 0.929 . S
C3001 C2999 1.433 . S
C3001 N3004 1.384 . S
C3002 H2993 0.929 . S
C3002 C2994 1.378 . S
C3002 C2997 1.350 . S
C3003 H2990 0.929 . S
C3003 C2995 1.433 . S
C3003 N3005 1.384 . S
N3004 C3000 1.427 . S
N3004 C3001 1.384 . S
N3005 C2997 1.427 . S
N3005 C3003 1.384 . S
H3006 C3012 0.930 . S
H3007 C3016 0.930 . S
H3008 C3021 0.929 . S
H3009 C3019 0.929 . S
H3010 C3014 0.929 . S
H3011 C3020 0.929 . S
C3012 H3006 0.930 . S
C3012 C3013 1.367 . S
C3012 C3020 1.378 . S
C3013 C3012 1.367 . S
C3013 C3021 1.433 . S
C3014 H3010 0.929 . S
C3014 C3016 1.378 . S
C3014 C3018 1.350 . S
C3015 C3018 1.463 . S
C3015 C3020 1.350 . S
C3015 N3023 1.427 . S
C3016 H3007 0.930 . S
C3016 C3014 1.378 . S
C3016 C3017 1.367 . S
C3017 C3016 1.367 . S
C3017 C3019 1.433 . S
C3018 C3014 1.350 . S
C3018 C3015 1.463 . S
C3018 N3022 1.427 . S
C3019 H3009 0.929 . S
C3019 C3017 1.433 . S
C3019 N3022 1.384 . S
C3020 H3011 0.929 . S
C3020 C3012 1.378 . S
C3020 C3015 1.350 . S
C3021 H3008 0.929 . S
C3021 C3013 1.433 . S
C3021 N3023 1.384 . S
N3022 C3018 1.427 . S
N3022 C3019 1.384 . S
N3023 C3015 1.427 . S
N3023 C3021 1.384 . S
H3024 C3030 0.930 . S
H3025 C3034 0.930 . S
H3026 C3039 0.929 . S
H3027 C3037 0.929 . S
H3028 C3032 0.929 . S
H3029 C3038 0.929 . S
C3030 H3024 0.930 . S
C3030 C3031 1.367 . S
C3030 C3038 1.378 . S
C3031 C3030 1.367 . S
C3031 C3039 1.433 . S
C3032 H3028 0.929 . S
C3032 C3034 1.378 . S
C3032 C3036 1.350 . S
C3033 C3036 1.463 . S
C3033 C3038 1.350 . S
C3033 N3041 1.427 . S
C3034 H3025 0.930 . S
C3034 C3032 1.378 . S
C3034 C3035 1.367 . S
C3035 C3034 1.367 . S
C3035 C3037 1.433 . S
C3036 C3032 1.350 . S
C3036 C3033 1.463 . S
C3036 N3040 1.427 . S
C3037 H3027 0.929 . S
C3037 C3035 1.433 . S
C3037 N3040 1.384 . S
C3038 H3029 0.929 . S
C3038 C3030 1.378 . S
C3038 C3033 1.350 . S
C3039 H3026 0.929 . S
C3039 C3031 1.433 . S
C3039 N3041 1.384 . S
N3040 C3036 1.427 . S
N3040 C3037 1.384 . S
N3041 C3033 1.427 . S
N3041 C3039 1.384 . S
H3042 C3048 0.930 . S
H3043 C3052 0.930 . S
H3044 C3057 0.929 . S
H3045 C3055 0.929 . S
H3046 C3050 0.929 . S
H3047 C3056 0.929 . S
C3048 H3042 0.930 . S
C3048 C3049 1.367 . S
C3048 C3056 1.378 . S
C3049 C3048 1.367 . S
C3049 C3057 1.433 . S
C3050 H3046 0.929 . S
C3050 C3052 1.378 . S
C3050 C3054 1.350 . S
C3051 C3054 1.463 . S
C3051 C3056 1.350 . S
C3051 N3059 1.427 . S
C3052 H3043 0.930 . S
C3052 C3050 1.378 . S
C3052 C3053 1.367 . S
C3053 C3052 1.367 . S
C3053 C3055 1.433 . S
C3054 C3050 1.350 . S
C3054 C3051 1.463 . S
C3054 N3058 1.427 . S
C3055 H3045 0.929 . S
C3055 C3053 1.433 . S
C3055 N3058 1.384 . S
C3056 H3047 0.929 . S
C3056 C3048 1.378 . S
C3056 C3051 1.350 . S
C3057 H3044 0.929 . S
C3057 C3049 1.433 . S
C3057 N3059 1.384 . S
N3058 C3054 1.427 . S
N3058 C3055 1.384 . S
N3059 C3051 1.427 . S
N3059 C3057 1.384 . S
H3060 C3066 0.930 . S
H3061 C3070 0.930 . S
H3062 C3075 0.929 1_556 S
H3063 C3073 0.929 . S
H3064 C3068 0.929 . S
H3065 C3074 0.929 . S
C3066 H3060 0.930 . S
C3066 C3067 1.367 . S
C3066 C3074 1.378 . S
C3067 C3066 1.367 . S
C3067 C3075 1.433 . S
C3068 H3064 0.929 . S
C3068 C3070 1.378 . S
C3068 C3072 1.350 . S
C3069 C3072 1.463 1_455 S
C3069 C3074 1.350 . S
C3069 N3077 1.427 . S
C3070 H3061 0.930 . S
C3070 C3068 1.378 . S
C3070 C3071 1.367 . S
C3071 C3070 1.367 . S
C3071 C3073 1.433 . S
C3072 C3068 1.350 . S
C3072 C3069 1.463 1_655 S
C3072 N3076 1.427 . S
C3073 H3063 0.929 . S
C3073 C3071 1.433 . S
C3073 N3076 1.384 . S
C3074 H3065 0.929 . S
C3074 C3066 1.378 . S
C3074 C3069 1.350 . S
C3075 H3062 0.929 1_554 S
C3075 C3067 1.433 . S
C3075 N3077 1.384 . S
N3076 C3072 1.427 . S
N3076 C3073 1.384 . S
N3077 C3069 1.427 . S
N3077 C3075 1.384 . S
H3078 C3084 0.930 . S
H3079 C3088 0.930 . S
H3080 C3093 0.929 . S
H3081 C3091 0.929 . S
H3082 C3086 0.929 . S
H3083 C3092 0.929 . S
C3084 H3078 0.930 . S
C3084 C3085 1.367 . S
C3084 C3092 1.378 . S
C3085 C3084 1.367 . S
C3085 C3093 1.433 1_554 S
C3086 H3082 0.929 . S
C3086 C3088 1.378 . S
C3086 C3090 1.350 . S
C3087 C3090 1.463 . S
C3087 C3092 1.350 . S
C3087 N3095 1.427 . S
C3088 H3079 0.930 . S
C3088 C3086 1.378 . S
C3088 C3089 1.367 . S
C3089 C3088 1.367 . S
C3089 C3091 1.433 . S
C3090 C3086 1.350 . S
C3090 C3087 1.463 . S
C3090 N3094 1.427 . S
C3091 H3081 0.929 . S
C3091 C3089 1.433 . S
C3091 N3094 1.384 . S
C3092 H3083 0.929 . S
C3092 C3084 1.378 . S
C3092 C3087 1.350 . S
C3093 H3080 0.929 . S
C3093 C3085 1.433 1_556 S
C3093 N3095 1.384 1_556 S
N3094 C3090 1.427 . S
N3094 C3091 1.384 . S
N3095 C3087 1.427 . S
N3095 C3093 1.384 1_554 S
H3096 C3102 0.930 . S
H3097 C3106 0.930 . S
H3098 C3111 0.929 . S
H3099 C3109 0.929 . S
H3100 C3104 0.929 1_545 S
H3101 C3110 0.929 1_565 S
C3102 H3096 0.930 . S
C3102 C3103 1.367 . S
C3102 C3110 1.378 . S
C3103 C3102 1.367 . S
C3103 C3111 1.433 . S
C3104 H3100 0.929 1_565 S
C3104 C3106 1.378 1_554 S
C3104 C3108 1.350 . S
C3105 C3108 1.463 1_545 S
C3105 C3110 1.350 . S
C3105 N3113 1.427 . S
C3106 H3097 0.930 . S
C3106 C3104 1.378 1_556 S
C3106 C3107 1.367 1_556 S
C3107 C3106 1.367 1_554 S
C3107 C3109 1.433 . S
C3108 C3104 1.350 . S
C3108 C3105 1.463 1_565 S
C3108 N3112 1.427 . S
C3109 H3099 0.929 . S
C3109 C3107 1.433 . S
C3109 N3112 1.384 . S
C3110 H3101 0.929 1_545 S
C3110 C3102 1.378 . S
C3110 C3105 1.350 . S
C3111 H3098 0.929 . S
C3111 C3103 1.433 . S
C3111 N3113 1.384 . S
N3112 C3108 1.427 . S
N3112 C3109 1.384 . S
N3113 C3105 1.427 . S
N3113 C3111 1.384 . S
H3114 C3120 0.930 . S
H3115 C3124 0.930 . S
H3116 C3129 0.929 . S
H3117 C3127 0.929 . S
H3118 C3122 0.929 . S
H3119 C3128 0.929 . S
C3120 H3114 0.930 . S
C3120 C3121 1.367 . S
C3120 C3128 1.378 . S
C3121 C3120 1.367 . S
C3121 C3129 1.433 . S
C3122 H3118 0.929 . S
C3122 C3124 1.378 . S
C3122 C3126 1.350 . S
C3123 C3126 1.463 1_565 S
C3123 C3128 1.350 . S
C3123 N3131 1.427 . S
C3124 H3115 0.930 . S
C3124 C3122 1.378 . S
C3124 C3125 1.367 . S
C3125 C3124 1.367 . S
C3125 C3127 1.433 . S
C3126 C3122 1.350 . S
C3126 C3123 1.463 1_545 S
C3126 N3130 1.427 . S
C3127 H3117 0.929 . S
C3127 C3125 1.433 . S
C3127 N3130 1.384 . S
C3128 H3119 0.929 . S
C3128 C3120 1.378 . S
C3128 C3123 1.350 . S
C3129 H3116 0.929 . S
C3129 C3121 1.433 . S
C3129 N3131 1.384 . S
N3130 C3126 1.427 . S
N3130 C3127 1.384 . S
N3131 C3123 1.427 . S
N3131 C3129 1.384 . S
H3132 C3138 0.930 . S
H3133 C3142 0.930 . S
H3134 C3147 0.929 . S
H3135 C3145 0.929 . S
H3136 C3140 0.929 . S
H3137 C3146 0.929 . S
C3138 H3132 0.930 . S
C3138 C3139 1.367 . S
C3138 C3146 1.378 . S
C3139 C3138 1.367 . S
C3139 C3147 1.433 . S
C3140 H3136 0.929 . S
C3140 C3142 1.378 . S
C3140 C3144 1.350 . S
C3141 C3144 1.463 1_655 S
C3141 C3146 1.350 . S
C3141 N3149 1.425 1_655 S
C3142 H3133 0.930 . S
C3142 C3140 1.378 . S
C3142 C3143 1.367 . S
C3143 C3142 1.367 . S
C3143 C3145 1.433 . S
C3144 C3140 1.350 . S
C3144 C3141 1.463 1_455 S
C3144 N3148 1.425 1_455 S
C3145 H3135 0.929 . S
C3145 C3143 1.433 . S
C3145 N3148 1.383 1_455 S
C3146 H3137 0.929 . S
C3146 C3138 1.378 . S
C3146 C3141 1.350 . S
C3147 H3134 0.929 . S
C3147 C3139 1.433 . S
C3147 N3149 1.382 1_655 S
N3148 C3144 1.425 1_655 S
N3148 C3145 1.383 1_655 S
N3149 C3141 1.425 1_455 S
N3149 C3147 1.382 1_455 S
H3150 C3156 0.930 . S
H3151 C3160 0.930 . S
H3152 C3165 0.929 . S
H3153 C3163 0.929 . S
H3154 C3158 0.929 . S
H3155 C3164 0.929 . S
C3156 H3150 0.930 . S
C3156 C3157 1.367 . S
C3156 C3164 1.378 . S
C3157 C3156 1.367 . S
C3157 C3165 1.433 . S
C3158 H3154 0.929 . S
C3158 C3160 1.378 . S
C3158 C3162 1.350 . S
C3159 C3162 1.463 . S
C3159 C3164 1.350 . S
C3159 N3167 1.427 . S
C3160 H3151 0.930 . S
C3160 C3158 1.378 . S
C3160 C3161 1.367 . S
C3161 C3160 1.367 . S
C3161 C3163 1.433 . S
C3162 C3158 1.350 . S
C3162 C3159 1.463 . S
C3162 N3166 1.427 . S
C3163 H3153 0.929 . S
C3163 C3161 1.433 . S
C3163 N3166 1.384 . S
C3164 H3155 0.929 . S
C3164 C3156 1.378 . S
C3164 C3159 1.350 . S
C3165 H3152 0.929 . S
C3165 C3157 1.433 . S
C3165 N3167 1.384 . S
N3166 C3162 1.427 . S
N3166 C3163 1.384 . S
N3167 C3159 1.427 . S
N3167 C3165 1.384 . S
H3168 C3174 0.930 . S
H3169 C3178 0.930 . S
H3170 C3183 0.929 . S
H3171 C3181 0.929 . S
H3172 C3176 0.929 . S
H3173 C3182 0.929 . S
C3174 H3168 0.930 . S
C3174 C3175 1.367 . S
C3174 C3182 1.378 . S
C3175 C3174 1.367 . S
C3175 C3183 1.433 . S
C3176 H3172 0.929 . S
C3176 C3178 1.378 . S
C3176 C3180 1.350 . S
C3177 C3180 1.463 . S
C3177 C3182 1.350 . S
C3177 N3185 1.427 . S
C3178 H3169 0.930 . S
C3178 C3176 1.378 . S
C3178 C3179 1.367 . S
C3179 C3178 1.367 . S
C3179 C3181 1.433 . S
C3180 C3176 1.350 . S
C3180 C3177 1.463 . S
C3180 N3184 1.427 . S
C3181 H3171 0.929 . S
C3181 C3179 1.433 . S
C3181 N3184 1.384 . S
C3182 H3173 0.929 . S
C3182 C3174 1.378 . S
C3182 C3177 1.350 . S
C3183 H3170 0.929 . S
C3183 C3175 1.433 . S
C3183 N3185 1.384 . S
N3184 C3180 1.427 . S
N3184 C3181 1.384 . S
N3185 C3177 1.427 . S
N3185 C3183 1.384 . S
H3186 C3192 0.930 . S
H3187 C3196 0.930 . S
H3188 C3201 0.929 . S
H3189 C3199 0.929 . S
H3190 C3194 0.929 . S
H3191 C3200 0.929 . S
C3192 H3186 0.930 . S
C3192 C3193 1.367 . S
C3192 C3200 1.378 . S
C3193 C3192 1.367 . S
C3193 C3201 1.433 . S
C3194 H3190 0.929 . S
C3194 C3196 1.378 . S
C3194 C3198 1.350 . S
C3195 C3198 1.463 . S
C3195 C3200 1.350 . S
C3195 N3203 1.427 . S
C3196 H3187 0.930 . S
C3196 C3194 1.378 . S
C3196 C3197 1.367 . S
C3197 C3196 1.367 . S
C3197 C3199 1.433 . S
C3198 C3194 1.350 . S
C3198 C3195 1.463 . S
C3198 N3202 1.427 . S
C3199 H3189 0.929 . S
C3199 C3197 1.433 . S
C3199 N3202 1.384 . S
C3200 H3191 0.929 . S
C3200 C3192 1.378 . S
C3200 C3195 1.350 . S
C3201 H3188 0.929 . S
C3201 C3193 1.433 . S
C3201 N3203 1.384 . S
N3202 C3198 1.427 . S
N3202 C3199 1.384 . S
N3203 C3195 1.427 . S
N3203 C3201 1.384 . S
H3204 C3210 0.930 . S
H3205 C3214 0.930 . S
H3206 C3219 0.929 . S
H3207 C3217 0.929 . S
H3208 C3212 0.929 . S
H3209 C3218 0.929 . S
C3210 H3204 0.930 . S
C3210 C3211 1.367 . S
C3210 C3218 1.378 . S
C3211 C3210 1.367 . S
C3211 C3219 1.433 . S
C3212 H3208 0.929 . S
C3212 C3214 1.378 . S
C3212 C3216 1.350 . S
C3213 C3216 1.463 . S
C3213 C3218 1.350 . S
C3213 N3221 1.427 . S
C3214 H3205 0.930 . S
C3214 C3212 1.378 . S
C3214 C3215 1.367 . S
C3215 C3214 1.367 . S
C3215 C3217 1.433 . S
C3216 C3212 1.350 . S
C3216 C3213 1.463 . S
C3216 N3220 1.427 . S
C3217 H3207 0.929 . S
C3217 C3215 1.433 . S
C3217 N3220 1.384 . S
C3218 H3209 0.929 . S
C3218 C3210 1.378 . S
C3218 C3213 1.350 . S
C3219 H3206 0.929 . S
C3219 C3211 1.433 . S
C3219 N3221 1.384 . S
N3220 C3216 1.427 . S
N3220 C3217 1.384 . S
N3221 C3213 1.427 . S
N3221 C3219 1.384 . S
H3222 C3228 0.930 . S
H3223 C3232 0.930 . S
H3224 C3237 0.929 . S
H3225 C3235 0.929 . S
H3226 C3230 0.929 . S
H3227 C3236 0.929 . S
C3228 H3222 0.930 . S
C3228 C3229 1.367 . S
C3228 C3236 1.378 . S
C3229 C3228 1.367 . S
C3229 C3237 1.433 . S
C3230 H3226 0.929 . S
C3230 C3232 1.378 . S
C3230 C3234 1.350 . S
C3231 C3234 1.463 . S
C3231 C3236 1.350 . S
C3231 N3239 1.427 . S
C3232 H3223 0.930 . S
C3232 C3230 1.378 . S
C3232 C3233 1.367 . S
C3233 C3232 1.367 . S
C3233 C3235 1.433 . S
C3234 C3230 1.350 . S
C3234 C3231 1.463 . S
C3234 N3238 1.427 . S
C3235 H3225 0.929 . S
C3235 C3233 1.433 . S
C3235 N3238 1.384 . S
C3236 H3227 0.929 . S
C3236 C3228 1.378 . S
C3236 C3231 1.350 . S
C3237 H3224 0.929 . S
C3237 C3229 1.433 . S
C3237 N3239 1.384 . S
N3238 C3234 1.427 . S
N3238 C3235 1.384 . S
N3239 C3231 1.427 . S
N3239 C3237 1.384 . S
H3240 C3246 0.930 . S
H3241 C3250 0.930 . S
H3242 C3255 0.929 . S
H3243 C3253 0.929 . S
H3244 C3248 0.929 . S
H3245 C3254 0.929 . S
C3246 H3240 0.930 . S
C3246 C3247 1.367 . S
C3246 C3254 1.378 . S
C3247 C3246 1.367 . S
C3247 C3255 1.433 . S
C3248 H3244 0.929 . S
C3248 C3250 1.378 . S
C3248 C3252 1.350 . S
C3249 C3252 1.463 . S
C3249 C3254 1.350 . S
C3249 N3257 1.427 . S
C3250 H3241 0.930 . S
C3250 C3248 1.378 . S
C3250 C3251 1.367 . S
C3251 C3250 1.367 . S
C3251 C3253 1.433 . S
C3252 C3248 1.350 . S
C3252 C3249 1.463 . S
C3252 N3256 1.427 . S
C3253 H3243 0.929 . S
C3253 C3251 1.433 . S
C3253 N3256 1.384 . S
C3254 H3245 0.929 . S
C3254 C3246 1.378 . S
C3254 C3249 1.350 . S
C3255 H3242 0.929 . S
C3255 C3247 1.433 . S
C3255 N3257 1.384 . S
N3256 C3252 1.427 . S
N3256 C3253 1.384 . S
N3257 C3249 1.427 . S
N3257 C3255 1.384 . S
H3258 C3264 0.930 . S
H3259 C3268 0.930 . S
H3260 C3273 0.929 . S
H3261 C3271 0.929 . S
H3262 C3266 0.929 . S
H3263 C3272 0.929 . S
C3264 H3258 0.930 . S
C3264 C3265 1.367 . S
C3264 C3272 1.378 . S
C3265 C3264 1.367 . S
C3265 C3273 1.433 . S
C3266 H3262 0.929 . S
C3266 C3268 1.378 . S
C3266 C3270 1.350 . S
C3267 C3270 1.463 . S
C3267 C3272 1.350 . S
C3267 N3275 1.427 . S
C3268 H3259 0.930 . S
C3268 C3266 1.378 . S
C3268 C3269 1.367 . S
C3269 C3268 1.367 . S
C3269 C3271 1.433 . S
C3270 C3266 1.350 . S
C3270 C3267 1.463 . S
C3270 N3274 1.427 . S
C3271 H3261 0.929 . S
C3271 C3269 1.433 . S
C3271 N3274 1.384 . S
C3272 H3263 0.929 . S
C3272 C3264 1.378 . S
C3272 C3267 1.350 . S
C3273 H3260 0.929 . S
C3273 C3265 1.433 . S
C3273 N3275 1.384 . S
N3274 C3270 1.427 . S
N3274 C3271 1.384 . S
N3275 C3267 1.427 . S
N3275 C3273 1.384 . S
H3276 C3282 0.930 . S
H3277 C3286 0.930 . S
H3278 C3291 0.929 . S
H3279 C3289 0.929 . S
H3280 C3284 0.929 . S
H3281 C3290 0.929 . S
C3282 H3276 0.930 . S
C3282 C3283 1.367 . S
C3282 C3290 1.378 . S
C3283 C3282 1.367 . S
C3283 C3291 1.433 . S
C3284 H3280 0.929 . S
C3284 C3286 1.378 . S
C3284 C3288 1.350 . S
C3285 C3288 1.463 . S
C3285 C3290 1.350 . S
C3285 N3293 1.427 . S
C3286 H3277 0.930 . S
C3286 C3284 1.378 . S
C3286 C3287 1.367 . S
C3287 C3286 1.367 . S
C3287 C3289 1.433 . S
C3288 C3284 1.350 . S
C3288 C3285 1.463 . S
C3288 N3292 1.427 . S
C3289 H3279 0.929 . S
C3289 C3287 1.433 . S
C3289 N3292 1.384 . S
C3290 H3281 0.929 . S
C3290 C3282 1.378 . S
C3290 C3285 1.350 . S
C3291 H3278 0.929 . S
C3291 C3283 1.433 . S
C3291 N3293 1.384 . S
N3292 C3288 1.427 . S
N3292 C3289 1.384 . S
N3293 C3285 1.427 . S
N3293 C3291 1.384 . S
H3294 C3300 0.930 . S
H3295 C3304 0.930 . S
H3296 C3309 0.929 . S
H3297 C3307 0.929 . S
H3298 C3302 0.929 . S
H3299 C3308 0.929 . S
C3300 H3294 0.930 . S
C3300 C3301 1.367 . S
C3300 C3308 1.378 . S
C3301 C3300 1.367 . S
C3301 C3309 1.433 . S
C3302 H3298 0.929 . S
C3302 C3304 1.378 . S
C3302 C3306 1.350 . S
C3303 C3306 1.463 . S
C3303 C3308 1.350 . S
C3303 N3311 1.427 . S
C3304 H3295 0.930 . S
C3304 C3302 1.378 . S
C3304 C3305 1.367 . S
C3305 C3304 1.367 . S
C3305 C3307 1.433 . S
C3306 C3302 1.350 . S
C3306 C3303 1.463 . S
C3306 N3310 1.427 . S
C3307 H3297 0.929 . S
C3307 C3305 1.433 . S
C3307 N3310 1.384 . S
C3308 H3299 0.929 . S
C3308 C3300 1.378 . S
C3308 C3303 1.350 . S
C3309 H3296 0.929 . S
C3309 C3301 1.433 . S
C3309 N3311 1.384 . S
N3310 C3306 1.427 . S
N3310 C3307 1.384 . S
N3311 C3303 1.427 . S
N3311 C3309 1.384 . S
H3312 C3318 0.930 . S
H3313 C3322 0.930 . S
H3314 C3327 0.929 . S
H3315 C3325 0.929 . S
H3316 C3320 0.929 . S
H3317 C3326 0.929 . S
C3318 H3312 0.930 . S
C3318 C3319 1.367 . S
C3318 C3326 1.378 . S
C3319 C3318 1.367 . S
C3319 C3327 1.433 . S
C3320 H3316 0.929 . S
C3320 C3322 1.378 . S
C3320 C3324 1.350 . S
C3321 C3324 1.463 . S
C3321 C3326 1.350 . S
C3321 N3329 1.427 . S
C3322 H3313 0.930 . S
C3322 C3320 1.378 . S
C3322 C3323 1.367 . S
C3323 C3322 1.367 . S
C3323 C3325 1.433 . S
C3324 C3320 1.350 . S
C3324 C3321 1.463 . S
C3324 N3328 1.427 . S
C3325 H3315 0.929 . S
C3325 C3323 1.433 . S
C3325 N3328 1.384 . S
C3326 H3317 0.929 . S
C3326 C3318 1.378 . S
C3326 C3321 1.350 . S
C3327 H3314 0.929 . S
C3327 C3319 1.433 . S
C3327 N3329 1.384 . S
N3328 C3324 1.427 . S
N3328 C3325 1.384 . S
N3329 C3321 1.427 . S
N3329 C3327 1.384 . S
H3330 C3336 0.930 . S
H3331 C3340 0.930 . S
H3332 C3345 0.929 . S
H3333 C3343 0.929 . S
H3334 C3338 0.929 . S
H3335 C3344 0.929 . S
C3336 H3330 0.930 . S
C3336 C3337 1.367 . S
C3336 C3344 1.378 . S
C3337 C3336 1.367 . S
C3337 C3345 1.433 . S
C3338 H3334 0.929 . S
C3338 C3340 1.378 . S
C3338 C3342 1.350 . S
C3339 C3342 1.463 . S
C3339 C3344 1.350 . S
C3339 N3347 1.427 . S
C3340 H3331 0.930 . S
C3340 C3338 1.378 . S
C3340 C3341 1.367 . S
C3341 C3340 1.367 . S
C3341 C3343 1.433 . S
C3342 C3338 1.350 . S
C3342 C3339 1.463 . S
C3342 N3346 1.427 . S
C3343 H3333 0.929 . S
C3343 C3341 1.433 . S
C3343 N3346 1.384 . S
C3344 H3335 0.929 . S
C3344 C3336 1.378 . S
C3344 C3339 1.350 . S
C3345 H3332 0.929 . S
C3345 C3337 1.433 . S
C3345 N3347 1.384 . S
N3346 C3342 1.427 . S
N3346 C3343 1.384 . S
N3347 C3339 1.427 . S
N3347 C3345 1.384 . S
H3348 C3354 0.930 . S
H3349 C3358 0.930 . S
H3350 C3363 0.929 . S
H3351 C3361 0.929 . S
H3352 C3356 0.929 . S
H3353 C3362 0.929 . S
C3354 H3348 0.930 . S
C3354 C3355 1.367 . S
C3354 C3362 1.378 . S
C3355 C3354 1.367 . S
C3355 C3363 1.433 . S
C3356 H3352 0.929 . S
C3356 C3358 1.378 . S
C3356 C3360 1.350 . S
C3357 C3360 1.463 . S
C3357 C3362 1.350 . S
C3357 N3365 1.427 . S
C3358 H3349 0.930 . S
C3358 C3356 1.378 . S
C3358 C3359 1.367 . S
C3359 C3358 1.367 . S
C3359 C3361 1.433 . S
C3360 C3356 1.350 . S
C3360 C3357 1.463 . S
C3360 N3364 1.427 . S
C3361 H3351 0.929 . S
C3361 C3359 1.433 . S
C3361 N3364 1.384 . S
C3362 H3353 0.929 . S
C3362 C3354 1.378 . S
C3362 C3357 1.350 . S
C3363 H3350 0.929 . S
C3363 C3355 1.433 . S
C3363 N3365 1.384 . S
N3364 C3360 1.427 . S
N3364 C3361 1.384 . S
N3365 C3357 1.427 . S
N3365 C3363 1.384 . S
H3366 C3372 0.930 . S
H3367 C3376 0.930 . S
H3368 C3381 0.929 . S
H3369 C3379 0.929 . S
H3370 C3374 0.929 . S
H3371 C3380 0.929 . S
C3372 H3366 0.930 . S
C3372 C3373 1.367 . S
C3372 C3380 1.378 . S
C3373 C3372 1.367 . S
C3373 C3381 1.433 . S
C3374 H3370 0.929 . S
C3374 C3376 1.378 . S
C3374 C3378 1.350 . S
C3375 C3378 1.463 . S
C3375 C3380 1.350 . S
C3375 N3383 1.427 . S
C3376 H3367 0.930 . S
C3376 C3374 1.378 . S
C3376 C3377 1.367 . S
C3377 C3376 1.367 . S
C3377 C3379 1.433 . S
C3378 C3374 1.350 . S
C3378 C3375 1.463 . S
C3378 N3382 1.427 . S
C3379 H3369 0.929 . S
C3379 C3377 1.433 . S
C3379 N3382 1.384 . S
C3380 H3371 0.929 . S
C3380 C3372 1.378 . S
C3380 C3375 1.350 . S
C3381 H3368 0.929 . S
C3381 C3373 1.433 . S
C3381 N3383 1.384 . S
N3382 C3378 1.427 . S
N3382 C3379 1.384 . S
N3383 C3375 1.427 . S
N3383 C3381 1.384 . S
C1447 C609 1.006 . S
C1451 C9 1.027 . S
C1465 C649 1.015 . S
C1469 C49 1.002 . S
C1483 C89 1.027 . S
C1487 C689 1.015 . S
C1501 C129 1.029 . S
C1505 C969 1.014 . S
C1519 C169 1.002 . S
C1523 C1009 1.016 . S
C1537 C209 1.029 . S
C1541 C1049 1.015 . S
C1555 C1338 1.026 . S
C1559 C258 1.006 . S
C1573 C1378 1.012 . S
C1577 C298 1.002 . S
C1591 C338 1.011 . S
C1595 C1418 1.004 . S
C1609 C738 1.003 . S
C1613 C378 1.021 . S
C1627 C418 1.026 . S
C1631 C778 1.005 . S
C1645 C458 1.001 . S
C1649 C818 1.018 . S
C1663 C1089 1.001 . S
C1667 C489 1.016 . S
C1681 C529 1.021 . S
C1685 C1129 1.001 . S
C1699 C1169 1.022 . S
C1703 C569 1.001 . S
C1717 C1218 1.000 . S
C1721 C858 1.019 . S
C1735 C1258 1.012 . S
C1739 C898 1.029 . S
C1753 C938 1.014 . S
C1757 C1298 1.029 . S
C1771 C19 2.068 . S
C1775 C179 2.062 . S
C1789 C59 2.071 . S
C1793 C219 2.065 . S
C1807 C99 2.061 . S
C1811 C139 2.063 . S
C1825 C250 2.071 . S
C1829 C410 2.066 . S
C1843 C290 2.068 . S
C1847 C450 2.070 . S
C1861 C330 2.070 . S
C1865 C370 2.068 . S
C1879 C499 2.062 . S
C1883 C659 2.068 . S
C1897 C699 2.064 . S
C1901 C539 2.062 . S
C1915 C579 2.070 . S
C1919 C619 2.067 . S
C1933 C730 2.067 . S
C1937 C890 2.061 . S
C1951 C770 2.061 . S
C1955 C930 2.065 . S
C1969 C850 2.067 . S
C1973 C810 2.071 . S
C1987 C979 2.065 . S
C1991 C1139 2.061 . S
C2005 C1179 2.065 . S
C2009 C1019 2.061 . S
C2023 C1059 2.071 . S
C2027 C1099 2.067 . S
C2041 C1210 2.062 . S
C2045 C1370 2.069 . S
C2059 C1250 2.064 . S
C2063 C1410 2.071 . S
C2077 C1290 2.070 . S
C2081 C1330 2.069 . S
C2095 C419 1.571 . S
C2099 C15 1.541 . S
C2113 C55 1.537 . S
C2117 C459 1.572 . S
C2131 C95 1.541 . S
C2135 C379 1.571 . S
C2149 C135 1.531 . S
C2153 C339 1.571 . S
C2167 C175 1.542 . S
C2171 C259 1.571 . S
C2185 C299 1.572 . S
C2189 C215 1.542 . S
C2203 C246 1.539 . S
C2207 C170 1.572 . S
C2221 C210 1.570 . S
C2225 C286 1.539 . S
C2239 C326 1.532 . S
C2243 C130 1.571 . S
C2257 C366 1.539 . S
C2261 C90 1.572 . S
C2275 C10 1.570 . S
C2279 C406 1.534 . S
C2293 C50 1.572 . S
C2297 C446 1.533 . S
C2311 C899 1.569 . S
C2315 C495 1.536 . S
C2329 C939 1.571 . S
C2333 C535 1.531 . S
C2347 C859 1.572 . S
C2351 C575 1.539 . S
C2365 C819 1.569 . S
C2369 C615 1.538 . S
C2383 C655 1.539 . S
C2387 C739 1.572 . S
C2401 C779 1.571 . S
C2405 C695 1.531 . S
C2419 C650 1.570 . S
C2423 C726 1.541 . S
C2437 C766 1.542 . S
C2441 C690 1.571 . S
C2455 C806 1.535 . S
C2459 C610 1.572 . S
C2473 C570 1.573 . S
C2477 C846 1.539 . S
C2491 C886 1.531 . S
C2495 C490 1.571 . S
C2509 C926 1.539 . S
C2513 C530 1.572 . S
C2527 C975 1.533 . S
C2531 C1379 1.572 . S
C2545 C1015 1.541 . S
C2549 C1419 1.572 . S
C2563 C1339 1.570 . S
C2567 C1055 1.535 . S
C2581 C1299 1.571 . S
C2585 C1095 1.542 . S
C2599 C1135 1.535 . S
C2603 C1219 1.570 . S
C2617 C1259 1.571 . S
C2621 C1175 1.542 . S
C2635 C1206 1.536 . S
C2639 C1130 1.570 . S
C2653 C1170 1.570 . S
C2657 C1246 1.536 . S
C2671 C1286 1.532 . S
C2675 C1090 1.571 . S
C2689 C1326 1.543 . S
C2693 C1050 1.570 . S
C2707 C970 1.571 . S
C2711 C1366 1.537 . S
C2725 C1010 1.570 . S
C2729 C1406 1.542 . S
C2743 C6 1.111 . S
C2747 C166 1.118 . S
C2761 C206 1.119 . S
C2765 C46 1.113 . S
C2779 C86 1.110 . S
C2783 C126 1.119 . S
C2797 C255 1.116 . S
C2801 C415 1.117 . S
C2815 C455 1.114 . S
C2819 C295 1.119 . S
C2833 C335 1.111 . S
C2837 C375 1.116 . S
C2851 C646 1.119 . S
C2855 C486 1.112 . S
C2869 C686 1.120 . S
C2873 C526 1.113 . S
C2887 C606 1.117 . S
C2891 C566 1.111 . S
C2905 C895 1.117 . S
C2909 C735 1.111 . S
C2923 C775 1.119 . S
C2927 C935 1.110 . S
C2941 C855 1.110 . S
C2945 C815 1.119 . S
C2959 C1126 1.119 . S
C2963 C966 1.114 . S
C2977 C1006 1.115 . S
C2981 C1166 1.119 . S
C2995 C1046 1.118 . S
C2999 C1086 1.115 . S
C3013 C1375 1.114 . S
C3017 C1215 1.113 . S
C3031 C1255 1.111 . S
C3035 C1415 1.117 . S
C3049 C1295 1.119 . S
C3053 C1335 1.114 . S
C3067 C18 0.283 . S
C3071 C249 0.283 . S
C3085 C58 0.272 . S
C3089 C289 0.272 . S
C3103 C329 0.307 . S
C3107 C98 0.307 . S
C3121 C369 0.293 . S
C3125 C138 0.293 . S
C3139 C178 0.275 . S
C3143 C409 0.275 . S
C3157 C218 0.296 . S
C3161 C449 0.296 . S
C3175 C729 0.280 . S
C3179 C498 0.280 . S
C3193 C538 0.301 . S
C3197 C769 0.301 . S
C3211 C809 0.305 . S
C3215 C578 0.305 . S
C3229 C849 0.311 . S
C3233 C618 0.311 . S
C3247 C889 0.308 . S
C3251 C658 0.308 . S
C3265 C929 0.277 . S
C3269 C698 0.277 . S
C3283 C1209 0.309 . S
C3287 C978 0.309 . S
C3301 C1018 0.272 . S
C3305 C1249 0.272 . S
C3319 C1289 0.280 . S
C3323 C1058 0.280 . S
C3337 C1329 0.273 . S
C3341 C1098 0.273 . S
C3355 C1369 0.310 . S
C3359 C1138 0.310 . S
C3373 C1178 0.272 . S
C3377 C1409 0.272 . S
