# Generated by pormake.
# Topology mdf, (4)-cn, num edge types: 1
# Building blocks:
#     Node 0, Type 0, BuildingBlock: ICAMEG_clean_sbu_1, # of connection points: 4
#     Node 1, Type 0, BuildingBlock: ICAMEG_clean_sbu_1, # of connection points: 4
#     Node 2, Type 0, BuildingBlock: ICAMEG_clean_sbu_1, # of connection points: 4
#     Node 3, Type 0, BuildingBlock: ICAMEG_clean_sbu_1, # of connection points: 4
#     Node 4, Type 0, BuildingBlock: ICAMEG_clean_sbu_1, # of connection points: 4
#     Node 5, Type 0, BuildingBlock: ICAMEG_clean_sbu_1, # of connection points: 4
#     Node 6, Type 0, BuildingBlock: ICAMEG_clean_sbu_1, # of connection points: 4
#     Node 7, Type 0, BuildingBlock: ICAMEG_clean_sbu_1, # of connection points: 4
#     Edge 8, Type (0, 0), BuildingBlock: ZUJKAS_clean_linker_0, # of connection points: 2
#     Edge 9, Type (0, 0), BuildingBlock: ZUJKAS_clean_linker_0, # of connection points: 2
#     Edge 10, Type (0, 0), BuildingBlock: ZUJKAS_clean_linker_0, # of connection points: 2
#     Edge 11, Type (0, 0), BuildingBlock: ZUJKAS_clean_linker_0, # of connection points: 2
#     Edge 12, Type (0, 0), BuildingBlock: ZUJKAS_clean_linker_0, # of connection points: 2
#     Edge 13, Type (0, 0), BuildingBlock: ZUJKAS_clean_linker_0, # of connection points: 2
#     Edge 14, Type (0, 0), BuildingBlock: ZUJKAS_clean_linker_0, # of connection points: 2
#     Edge 15, Type (0, 0), BuildingBlock: ZUJKAS_clean_linker_0, # of connection points: 2
#     Edge 16, Type (0, 0), BuildingBlock: ZUJKAS_clean_linker_0, # of connection points: 2
#     Edge 17, Type (0, 0), BuildingBlock: ZUJKAS_clean_linker_0, # of connection points: 2
#     Edge 18, Type (0, 0), BuildingBlock: ZUJKAS_clean_linker_0, # of connection points: 2
#     Edge 19, Type (0, 0), BuildingBlock: ZUJKAS_clean_linker_0, # of connection points: 2
#     Edge 20, Type (0, 0), BuildingBlock: ZUJKAS_clean_linker_0, # of connection points: 2
#     Edge 21, Type (0, 0), BuildingBlock: ZUJKAS_clean_linker_0, # of connection points: 2
#     Edge 22, Type (0, 0), BuildingBlock: ZUJKAS_clean_linker_0, # of connection points: 2
#     Edge 23, Type (0, 0), BuildingBlock: ZUJKAS_clean_linker_0, # of connection points: 2
# Relax obj value: 0.009
# Max RMSD: 0.053
# Mean RMSD: 0.053
data_MOF--net-mdf--node1-ICAMEG_clean_sbu_1--edge1-ZUJKAS_clean_linker_0
_symmetry_space_group_name_H-M    P1
_symmetry_Int_Tables_number       1
_symmetry_cell_setting            triclinic
loop_
_symmetry_equiv_pos_as_xyz
'x, y, z'
_cell_length_a     53.51808
_cell_length_b     53.516359
_cell_length_c     14.100002
_cell_angle_alpha  90.109138
_cell_angle_beta   90.087361
_cell_angle_gamma 90.136536
loop_
_atom_site_label
_atom_site_type_symbol
_atom_site_fract_x
_atom_site_fract_y
_atom_site_fract_z
_atom_type_partial_charge
Co0 Co 0.24393 0.50332 0.4956 0.0
Co1 Co 0.25676 0.50382 0.25584 0.0
O2 O 0.25035 0.52123 0.37641 0.0
C3 C 0.20028 0.53797 0.49038 0.0
O4 O 0.1951 0.53035 0.40394 0.0
C5 C 0.29698 0.54295 0.26678 0.0
O6 O 0.29677 0.54187 0.35966 0.0
O7 O 0.28377 0.48384 0.31584 0.0
O8 O 0.26884 0.47693 0.46208 0.0
H9 H 0.27203 0.4284 0.0511 0.0
H10 H 0.25638 0.5573 0.5056 0.0
O11 O 0.21915 0.52933 0.53427 0.0
H12 H 0.32141 0.51511 0.69428 0.0
H13 H 0.22613 0.49724 0.84559 0.0
H14 H 0.2371 0.45006 0.54783 0.0
H15 H 0.28812 0.49072 0.61592 0.0
H16 H 0.23591 0.51915 0.69655 0.0
O17 O 0.28219 0.5295 0.21761 0.0
H18 H 0.26317 0.45072 0.20055 0.0
H19 H 0.26487 0.52024 0.05576 0.0
H20 H 0.22805 0.42733 0.69596 0.0
H21 H 0.28915 0.58245 0.58395 0.0
H22 H 0.22245 0.45097 0.84622 0.0
H23 H 0.32199 0.56134 0.67904 0.0
O24 O 0.2168 0.48344 0.43446 0.0
H25 H 0.21047 0.5831 0.18381 0.0
H26 H 0.21299 0.492 0.13177 0.0
H27 H 0.1792 0.51674 0.0593 0.0
H28 H 0.17783 0.56265 0.08497 0.0
H29 H 0.24388 0.5576 0.25539 0.0
H30 H 0.27444 0.49873 0.90544 0.0
H31 H 0.27779 0.45247 0.90219 0.0
O32 O 0.23154 0.47744 0.28743 0.0
C33 C 0.28447 0.47273 0.39572 0.0
C34 C 0.27049 0.44856 0.05151 0.0
C35 C 0.27185 0.48803 0.96976 0.0
N36 N 0.2633 0.48673 0.13686 0.0
C37 C 0.26537 0.46129 0.13584 0.0
C38 C 0.26652 0.50011 0.05523 0.0
C39 C 0.27376 0.46208 0.96802 0.0
C40 C 0.27052 0.54799 0.54732 0.0
N41 N 0.27034 0.52257 0.55598 0.0
C42 C 0.28908 0.56232 0.59124 0.0
C43 C 0.30753 0.55047 0.64443 0.0
C44 C 0.30723 0.52452 0.6529 0.0
C45 C 0.2884 0.51079 0.60787 0.0
C46 C 0.22865 0.48672 0.78067 0.0
C47 C 0.23496 0.46045 0.61311 0.0
C48 C 0.23409 0.49903 0.69591 0.0
N49 N 0.2372 0.48589 0.61353 0.0
C50 C 0.22973 0.44749 0.6967 0.0
C51 C 0.22655 0.46076 0.78094 0.0
C52 C 0.21598 0.47279 0.35354 0.0
C53 C 0.21091 0.56312 0.17189 0.0
C54 C 0.21249 0.51195 0.14356 0.0
C55 C 0.19333 0.52587 0.10215 0.0
C56 C 0.19258 0.55163 0.11654 0.0
N57 N 0.23047 0.52338 0.19737 0.0
C58 C 0.22982 0.54861 0.21201 0.0
Co59 Co 0.49995 0.75845 0.49404 0.0
Co60 Co 0.49771 0.74549 0.73504 0.0
O61 O 0.48137 0.75213 0.61221 0.0
C62 C 0.46533 0.80204 0.50272 0.0
O63 O 0.47 0.80443 0.59375 0.0
C64 C 0.45412 0.70909 0.72498 0.0
O65 O 0.44801 0.71649 0.63948 0.0
O66 O 0.51914 0.71924 0.67654 0.0
O67 O 0.52508 0.73252 0.52748 0.0
H68 H 0.57176 0.7317 0.94826 0.0
H69 H 0.44554 0.74847 0.47915 0.0
O70 O 0.47535 0.78454 0.45508 0.0
H71 H 0.48581 0.68206 0.29123 0.0
H72 H 0.50814 0.77646 0.14483 0.0
H73 H 0.55361 0.76362 0.44523 0.0
H74 H 0.51121 0.71404 0.37265 0.0
H75 H 0.48526 0.76732 0.29239 0.0
O76 O 0.47267 0.71873 0.76854 0.0
H77 H 0.55047 0.74059 0.79672 0.0
H78 H 0.47981 0.73576 0.93238 0.0
H79 H 0.57727 0.77215 0.29872 0.0
H80 H 0.41939 0.717 0.39788 0.0
H81 H 0.55449 0.77869 0.14716 0.0
H82 H 0.43953 0.68346 0.30316 0.0
O83 O 0.52062 0.78461 0.5574 0.0
H84 H 0.41713 0.79122 0.79716 0.0
H85 H 0.50728 0.78787 0.86758 0.0
H86 H 0.48155 0.82077 0.94063 0.0
H87 H 0.43607 0.82254 0.90597 0.0
H88 H 0.44355 0.75887 0.72497 0.0
H89 H 0.50032 0.72635 0.08486 0.0
H90 H 0.54662 0.7244 0.09358 0.0
O91 O 0.52349 0.7717 0.70838 0.0
C92 C 0.52975 0.71772 0.59581 0.0
C93 C 0.55157 0.73256 0.94538 0.0
C94 C 0.51147 0.72951 0.02201 0.0
N95 N 0.51394 0.73887 0.85572 0.0
C96 C 0.53942 0.73769 0.85986 0.0
C97 C 0.49997 0.73478 0.93537 0.0
C98 C 0.53745 0.72843 0.02687 0.0
C99 C 0.45444 0.73398 0.43784 0.0
N100 N 0.47988 0.73304 0.43121 0.0
C101 C 0.43954 0.71618 0.39215 0.0
C102 C 0.45085 0.69735 0.33914 0.0
C103 C 0.47681 0.69652 0.33256 0.0
C104 C 0.49111 0.71461 0.37939 0.0
C105 C 0.51828 0.77357 0.21036 0.0
C106 C 0.54358 0.76623 0.3794 0.0
C107 C 0.50542 0.76848 0.29428 0.0
N108 N 0.51809 0.76485 0.37739 0.0
C109 C 0.55707 0.77114 0.29673 0.0
C110 C 0.54428 0.77484 0.21175 0.0
C111 C 0.52966 0.78631 0.64093 0.0
C112 C 0.43688 0.79054 0.81341 0.0
C113 C 0.48753 0.78848 0.85193 0.0
C114 C 0.47304 0.80716 0.89367 0.0
C115 C 0.44753 0.80814 0.87426 0.0
N116 N 0.47693 0.77108 0.79306 0.0
C117 C 0.45196 0.77208 0.77315 0.0
Co118 Co 0.24496 0.00172 0.75411 0.0
Co119 Co 0.2578 1.00038 0.99253 0.0
O120 O 0.25156 0.9833 0.87166 0.0
C121 C 0.20294 0.96519 0.75785 0.0
O122 O 0.19887 0.97137 0.84666 0.0
C123 C 0.30076 0.96508 0.98516 0.0
O124 O 0.30551 0.97251 0.8983 0.0
O125 O 0.28535 0.02008 0.93389 0.0
O126 O 0.26907 0.02878 0.79093 0.0
H127 H 0.27434 0.07497 0.20084 0.0
H128 H 0.25968 0.94845 0.74496 0.0
O129 O 0.22087 0.97518 0.71229 0.0
H130 H 0.32343 0.99366 0.55979 0.0
H131 H 0.22752 0.00924 0.40421 0.0
H132 H 0.2366 0.05502 0.70618 0.0
H133 H 0.28862 0.0164 0.63473 0.0
H134 H 0.23785 0.98683 0.55168 0.0
O135 O 0.28214 0.97388 0.03005 0.0
H136 H 0.26539 0.05322 0.05008 0.0
H137 H 0.2648 0.98334 0.19237 0.0
H138 H 0.22714 0.07829 0.55963 0.0
H139 H 0.29414 0.92494 0.67077 0.0
H140 H 0.22251 0.05535 0.40722 0.0
H141 H 0.32632 0.94759 0.57743 0.0
O142 O 0.21724 0.02026 0.81618 0.0
H143 H 0.20969 0.92176 0.06084 0.0
H144 H 0.2139 0.01275 0.11451 0.0
H145 H 0.17935 0.98848 0.18447 0.0
H146 H 0.17712 0.94262 0.15796 0.0
H147 H 0.24385 0.94681 0.99161 0.0
H148 H 0.27453 0.00424 0.34397 0.0
H149 H 0.27903 0.05042 0.34915 0.0
O150 O 0.23333 0.02732 0.96067 0.0
C151 C 0.28533 0.03216 0.85601 0.0
C152 C 0.27231 0.05485 0.19958 0.0
C153 C 0.27243 0.01516 0.2799 0.0
N154 N 0.26445 0.01705 0.11241 0.0
C155 C 0.26714 0.04244 0.11449 0.0
C156 C 0.26705 0.00341 0.19371 0.0
C157 C 0.27498 0.04107 0.28274 0.0
C158 C 0.27355 0.9584 0.70401 0.0
N159 N 0.27208 0.98373 0.69387 0.0
C160 C 0.29305 0.94501 0.66238 0.0
C161 C 0.31112 0.95773 0.61012 0.0
C162 C 0.30952 0.98358 0.60025 0.0
C163 C 0.28979 0.99636 0.64303 0.0
C164 C 0.22969 0.01947 0.47001 0.0
C165 C 0.23493 0.04495 0.63994 0.0
C166 C 0.2354 0.00686 0.55389 0.0
N167 N 0.23797 0.01962 0.63745 0.0
C168 C 0.22945 0.05821 0.55726 0.0
C169 C 0.22682 0.04533 0.47181 0.0
C170 C 0.21704 0.03133 0.89635 0.0
C171 C 0.21048 0.94172 0.07305 0.0
C172 C 0.213 0.99283 0.10221 0.0
C173 C 0.19343 0.97917 0.14227 0.0
C174 C 0.1922 0.95344 0.12744 0.0
N175 N 0.2309 0.98119 0.04914 0.0
C176 C 0.22981 0.95598 0.03426 0.0
Co177 Co 0.00139 0.75717 0.25227 0.0
Co178 Co 0.00315 0.74459 0.01317 0.0
O179 O 0.01989 0.75081 0.13476 0.0
C180 C 0.03736 0.79971 0.24779 0.0
O181 O 0.03162 0.80327 0.15826 0.0
C182 C 0.03757 0.70072 0.01919 0.0
O183 O 0.02855 0.69455 0.10254 0.0
O184 O 0.98297 0.71718 0.07058 0.0
O185 O 0.97498 0.7324 0.21577 0.0
H186 H 0.9293 0.72821 0.80101 0.0
H187 H 0.05494 0.74353 0.26047 0.0
O188 O 0.02735 0.78189 0.29388 0.0
H189 H 0.01131 0.67923 0.44834 0.0
H190 H 0.99345 0.77487 0.6019 0.0
H191 H 0.9479 0.76421 0.30019 0.0
H192 H 0.98776 0.71343 0.37303 0.0
H193 H 0.01611 0.76484 0.45463 0.0
O194 O 0.02983 0.72025 0.97711 0.0
H195 H 0.95049 0.73729 0.95276 0.0
H196 H 0.02094 0.73724 0.81443 0.0
H197 H 0.92441 0.77336 0.44657 0.0
H198 H 0.07926 0.70968 0.33495 0.0
H199 H 0.94724 0.77881 0.59882 0.0
H200 H 0.05741 0.67724 0.42969 0.0
O201 O 0.9822 0.78448 0.19013 0.0
H202 H 0.08219 0.79237 0.94804 0.0
H203 H 0.99133 0.78854 0.89089 0.0
H204 H 0.01595 0.82297 0.82184 0.0
H205 H 0.06174 0.82501 0.8501 0.0
H206 H 0.0568 0.75833 0.01635 0.0
H207 H 1.00058 0.72746 0.66184 0.0
H208 H 0.95441 0.72315 0.65421 0.0
O209 O 0.9762 0.76912 0.04377 0.0
C210 C 0.97125 0.7166 0.14932 0.0
C211 C 0.94942 0.73015 0.80335 0.0
C212 C 0.98943 0.72971 0.72526 0.0
N213 N 0.98691 0.73796 0.89246 0.0
C214 C 0.96152 0.7354 0.889 0.0
C215 C 1.00086 0.73516 0.81199 0.0
C216 C 0.96352 0.72727 0.72104 0.0
C217 C 0.04534 0.72952 0.30193 0.0
N218 N 0.02 0.73051 0.31269 0.0
C219 C 0.05919 0.71038 0.34375 0.0
C220 C 0.04691 0.69216 0.39681 0.0
C221 C 0.02105 0.69326 0.40726 0.0
C222 C 0.00781 0.71265 0.36425 0.0
C223 C 0.98328 0.77237 0.53615 0.0
C224 C 0.95793 0.76625 0.36637 0.0
C225 C 0.99603 0.76683 0.45238 0.0
N226 N 0.98333 0.76384 0.36888 0.0
C227 C 0.94454 0.77154 0.44895 0.0
C228 C 0.95736 0.77464 0.53431 0.0
C229 C 0.97159 0.78496 0.10908 0.0
C230 C 0.06226 0.79165 0.93506 0.0
C231 C 0.01122 0.78935 0.90395 0.0
C232 C 0.02508 0.80886 0.86441 0.0
C233 C 0.05077 0.80998 0.88022 0.0
N234 N 0.02264 0.77141 0.95748 0.0
C235 C 0.04781 0.77239 0.97332 0.0
Co236 Co 0.74458 1.00088 0.01164 0.0
Co237 Co 0.75781 0.00389 0.77144 0.0
O238 O 0.75142 0.01985 0.895 0.0
C239 C 0.70131 0.03582 0.00561 0.0
O240 O 0.69759 0.02968 0.91646 0.0
C241 C 0.79495 0.04681 0.78394 0.0
O242 O 0.78835 0.05207 0.87119 0.0
O243 O 0.78393 0.98215 0.82894 0.0
O244 O 0.76977 0.97509 0.97624 0.0
H245 H 0.77086 0.93052 0.55405 0.0
H246 H 0.75621 0.05491 0.03113 0.0
O247 O 0.71934 0.02627 0.05184 0.0
H248 H 0.82131 0.01153 0.21543 0.0
H249 H 0.72628 0.99168 0.36025 0.0
H250 H 0.73787 0.94717 0.05698 0.0
H251 H 0.78865 0.98759 0.13153 0.0
H252 H 0.73595 0.01494 0.21406 0.0
O253 O 0.78464 0.02889 0.73872 0.0
H254 H 0.76245 0.95132 0.707 0.0
H255 H 0.76732 0.02243 0.57482 0.0
H256 H 0.72878 0.92312 0.20203 0.0
H257 H 0.78837 0.0796 0.11499 0.0
H258 H 0.7229 0.94541 0.35508 0.0
H259 H 0.82124 0.0579 0.20795 0.0
O260 O 0.71787 0.98124 0.94691 0.0
H261 H 0.71273 0.08505 0.71535 0.0
H262 H 0.71513 0.99517 0.63922 0.0
H263 H 0.68227 0.02148 0.56905 0.0
H264 H 0.68097 0.06682 0.60666 0.0
H265 H 0.74507 0.05804 0.78459 0.0
H266 H 0.77621 0.0024 0.42091 0.0
H267 H 0.77789 0.95612 0.40974 0.0
O268 O 0.73147 0.97815 0.79693 0.0
C269 C 0.7849 0.97082 0.90841 0.0
C270 C 0.77012 0.9507 0.55801 0.0
C271 C 0.77317 0.99104 0.48332 0.0
N272 N 0.76422 0.98804 0.64983 0.0
C273 C 0.76527 0.96258 0.64434 0.0
C274 C 0.76819 0.00227 0.57076 0.0
C275 C 0.7741 0.96507 0.47708 0.0
C276 C 0.7704 0.04533 0.07164 0.0
N277 N 0.77059 0.01983 0.0759 0.0
C278 C 0.78861 0.05941 0.11879 0.0
C279 C 0.80706 0.04722 0.17082 0.0
C280 C 0.80714 0.0212 0.17491 0.0
C281 C 0.78867 0.00774 0.12669 0.0
C282 C 0.7289 0.98175 0.29408 0.0
C283 C 0.73554 0.95698 0.12344 0.0
C284 C 0.73428 0.99483 0.21093 0.0
N285 N 0.7376 0.98242 0.12705 0.0
C286 C 0.73031 0.94327 0.20529 0.0
C287 C 0.72698 0.95579 0.2911 0.0
C288 C 0.71643 0.97222 0.8633 0.0
C289 C 0.71319 0.06535 0.69789 0.0
C290 C 0.71472 0.01486 0.65612 0.0
C291 C 0.69606 0.02968 0.61601 0.0
C292 C 0.69535 0.05511 0.63709 0.0
N293 N 0.73234 0.02506 0.71502 0.0
C294 C 0.73161 0.04996 0.73651 0.0
Co295 Co 1.00028 0.25753 0.99913 0.0
Co296 Co 0.99844 0.24424 0.23889 0.0
O297 O 0.98174 0.25076 0.11685 0.0
C298 C 0.9648 0.30031 0.0054 0.0
O299 O 0.97084 0.30405 0.09463 0.0
C300 C 0.95478 0.2079 0.23123 0.0
O301 O 0.94915 0.21442 0.14423 0.0
O302 O 0.01911 0.21761 0.17953 0.0
O303 O 0.02654 0.23273 0.034 0.0
H304 H 0.07302 0.22982 0.44883 0.0
H305 H 0.94638 0.24516 0.98228 0.0
O306 O 0.97452 0.28239 0.95913 0.0
H307 H 0.99007 0.18026 0.7979 0.0
H308 H 0.00834 0.27527 0.64969 0.0
H309 H 0.05377 0.26491 0.95158 0.0
H310 H 0.01381 0.21343 0.87966 0.0
H311 H 0.9856 0.26552 0.79697 0.0
O312 O 0.97309 0.21801 0.27475 0.0
H313 H 0.05134 0.23841 0.29786 0.0
H314 H 0.98112 0.23546 0.43752 0.0
H315 H 0.07733 0.27403 0.80535 0.0
H316 H 0.92186 0.21247 0.90059 0.0
H317 H 0.05457 0.27928 0.65299 0.0
H318 H 0.94373 0.1797 0.80759 0.0
O319 O 0.01963 0.28464 0.06259 0.0
H320 H 0.91874 0.29097 0.30473 0.0
H321 H 0.00929 0.28717 0.36764 0.0
H322 H 0.98426 0.32066 0.44048 0.0
H323 H 0.93861 0.32267 0.40953 0.0
H324 H 0.94447 0.25796 0.23277 0.0
H325 H 0.00201 0.2263 0.58945 0.0
H326 H 0.0483 0.22366 0.59597 0.0
O327 O 0.02462 0.26994 0.21022 0.0
C328 C 0.03058 0.21709 0.10034 0.0
C329 C 0.05284 0.23102 0.44696 0.0
C330 C 0.01299 0.22901 0.52585 0.0
N331 N 0.01501 0.23764 0.3589 0.0
C332 C 0.04047 0.23598 0.36175 0.0
C333 C 0.00126 0.23412 0.43951 0.0
C334 C 0.03897 0.22753 0.52946 0.0
C335 C 0.95603 0.231 0.9418 0.0
N336 N 0.98151 0.23115 0.93635 0.0
C337 C 0.94205 0.2125 0.89584 0.0
C338 C 0.95433 0.1941 0.8438 0.0
C339 C 0.98032 0.19438 0.83846 0.0
C340 C 0.99369 0.21314 0.88549 0.0
C341 C 0.01848 0.27291 0.71554 0.0
C342 C 0.04376 0.26696 0.88542 0.0
C343 C 0.00569 0.2675 0.79931 0.0
N344 N 0.01835 0.26453 0.88282 0.0
C345 C 0.05719 0.27221 0.8029 0.0
C346 C 0.04441 0.27519 0.71748 0.0
C347 C 0.02966 0.28553 0.14461 0.0
C348 C 0.93859 0.29019 0.31933 0.0
C349 C 0.98943 0.28786 0.35375 0.0
C350 C 0.97536 0.30689 0.3953 0.0
C351 C 0.94975 0.308 0.37794 0.0
N352 N 0.97832 0.27027 0.29709 0.0
C353 C 0.95325 0.2714 0.27918 0.0
Co354 Co 0.74326 0.49867 0.26719 0.0
Co355 Co 0.75742 0.50137 0.50632 0.0
O356 O 0.75026 0.48243 0.38951 0.0
C357 C 0.70752 0.45459 0.27728 0.0
O358 O 0.71555 0.44825 0.36171 0.0
C359 C 0.7997 0.46533 0.49939 0.0
O360 O 0.80251 0.47025 0.40883 0.0
O361 O 0.78435 0.52045 0.44121 0.0
O362 O 0.76913 0.52485 0.29386 0.0
H363 H 0.77425 0.57903 0.69749 0.0
H364 H 0.75734 0.44463 0.27472 0.0
O365 O 0.71673 0.47334 0.23386 0.0
H366 H 0.81869 0.48399 0.06168 0.0
H367 H 0.72476 0.50111 0.91665 0.0
H368 H 0.73733 0.55138 0.20648 0.0
H369 H 0.78553 0.50912 0.13583 0.0
H370 H 0.73371 0.48068 0.06959 0.0
O371 O 0.7824 0.47579 0.54668 0.0
H372 H 0.76528 0.55499 0.55182 0.0
H373 H 0.76553 0.48735 0.70892 0.0
H374 H 0.72877 0.57259 0.05466 0.0
H375 H 0.78997 0.41881 0.20136 0.0
H376 H 0.72246 0.54739 0.90836 0.0
H377 H 0.82101 0.43844 0.09382 0.0
O378 O 0.71687 0.51959 0.3269 0.0
H379 H 0.71228 0.42337 0.6071 0.0
H380 H 0.71353 0.51537 0.62592 0.0
H381 H 0.68027 0.49194 0.70771 0.0
H382 H 0.67953 0.44558 0.69888 0.0
H383 H 0.74508 0.44756 0.52544 0.0
H384 H 0.77493 0.5106 0.85585 0.0
H385 H 0.77907 0.5568 0.85096 0.0
O386 O 0.73259 0.52757 0.47133 0.0
C387 C 0.78497 0.53011 0.35862 0.0
C388 C 0.77238 0.55891 0.70061 0.0
C389 C 0.77278 0.5205 0.78949 0.0
N390 N 0.76472 0.51982 0.62187 0.0
C391 C 0.76724 0.54521 0.6184 0.0
C392 C 0.76755 0.50743 0.70593 0.0
C393 C 0.77512 0.54643 0.78667 0.0
C394 C 0.7704 0.45333 0.22702 0.0
N395 N 0.76907 0.47833 0.20836 0.0
C396 C 0.78903 0.4386 0.18613 0.0
C397 C 0.80648 0.44963 0.12601 0.0
C398 C 0.80519 0.47517 0.10798 0.0
C399 C 0.78634 0.48932 0.15031 0.0
C400 C 0.72751 0.51229 0.9799 0.0
C401 C 0.73472 0.5403 0.14303 0.0
C402 C 0.73251 0.50083 0.06679 0.0
N403 N 0.73622 0.51484 0.14685 0.0
C404 C 0.72981 0.55241 0.05732 0.0
C405 C 0.72623 0.53826 0.97529 0.0
C406 C 0.71667 0.53135 0.40564 0.0
C407 C 0.71239 0.44356 0.61143 0.0
C408 C 0.71319 0.49522 0.62064 0.0
C409 C 0.69438 0.48204 0.66764 0.0
C410 C 0.694 0.45603 0.66281 0.0
N411 N 0.73116 0.48285 0.5703 0.0
C412 C 0.73094 0.45736 0.5655 0.0
Co413 Co 0.50091 0.25939 0.73703 0.0
Co414 Co 0.50312 0.2461 0.49816 0.0
O415 O 0.51966 0.25252 0.62018 0.0
C416 C 0.5398 0.29948 0.73137 0.0
O417 O 0.53809 0.30009 0.63862 0.0
C418 C 0.53695 0.20202 0.50954 0.0
O419 O 0.52759 0.19671 0.5932 0.0
O420 O 0.48257 0.21908 0.55612 0.0
O421 O 0.47432 0.2348 0.7004 0.0
H422 H 0.42947 0.23068 0.284 0.0
H423 H 0.55432 0.24541 0.74823 0.0
O424 O 0.52671 0.28422 0.77947 0.0
H425 H 0.50962 0.18163 0.93496 0.0
H426 H 0.49207 0.27705 0.08643 0.0
H427 H 0.44738 0.26728 0.78242 0.0
H428 H 0.48656 0.2159 0.85794 0.0
H429 H 0.51512 0.2672 0.93987 0.0
O430 O 0.52953 0.22121 0.46448 0.0
H431 H 0.45051 0.23937 0.43641 0.0
H432 H 0.52125 0.23787 0.30032 0.0
H433 H 0.42352 0.27648 0.9279 0.0
H434 H 0.57816 0.2115 0.82444 0.0
H435 H 0.44591 0.28141 0.08134 0.0
H436 H 0.55577 0.1793 0.9186 0.0
O437 O 0.48228 0.28669 0.67321 0.0
H438 H 0.58321 0.29141 0.42592 0.0
H439 H 0.49202 0.29021 0.37574 0.0
H440 H 0.5173 0.32365 0.30327 0.0
H441 H 0.56327 0.32434 0.32784 0.0
H442 H 0.55716 0.25849 0.49821 0.0
H443 H 0.50101 0.22867 0.14692 0.0
H444 H 0.45479 0.22524 0.1379 0.0
O445 O 0.47638 0.27113 0.52699 0.0
C446 C 0.47069 0.21886 0.63441 0.0
C447 C 0.44962 0.23222 0.28697 0.0
C448 C 0.48978 0.23106 0.21007 0.0
N449 N 0.48706 0.23932 0.37723 0.0
C450 C 0.46163 0.23723 0.373 0.0
C451 C 0.50113 0.2362 0.29722 0.0
C452 C 0.46384 0.22914 0.20505 0.0
C453 C 0.54449 0.23154 0.78954 0.0
N454 N 0.51912 0.23272 0.79907 0.0
C455 C 0.55806 0.21235 0.83231 0.0
C456 C 0.54548 0.19427 0.88503 0.0
C457 C 0.51959 0.19556 0.89419 0.0
C458 C 0.50663 0.21499 0.85026 0.0
C459 C 0.48209 0.27477 0.02014 0.0
C460 C 0.45722 0.26914 0.84909 0.0
C461 C 0.49505 0.26929 0.93679 0.0
N462 N 0.48258 0.26645 0.85271 0.0
C463 C 0.44362 0.27446 0.93116 0.0
C464 C 0.45619 0.27727 0.01719 0.0
C465 C 0.4718 0.28711 0.59195 0.0
C466 C 0.56321 0.29129 0.41458 0.0
C467 C 0.51196 0.29051 0.38766 0.0
C468 C 0.52621 0.30943 0.346 0.0
C469 C 0.552 0.30979 0.35969 0.0
N470 N 0.5231 0.27243 0.44136 0.0
C471 C 0.54838 0.27264 0.45502 0.0
H472 H 0.40343 0.70421 0.71369 0.0
H473 H 0.37651 0.67754 0.8109 0.0
H474 H 0.44175 0.6461 0.94556 0.0
H475 H 0.46846 0.67413 0.85366 0.0
H476 H 0.36895 0.63176 0.82653 0.0
H477 H 0.40448 0.6615 0.17649 0.0
H478 H 0.41374 0.67696 0.06876 0.0
H479 H 0.42943 0.6489 0.10708 0.0
C480 C 0.41195 0.69159 0.76418 0.0
C481 C 0.43798 0.69131 0.77666 0.0
C482 C 0.39657 0.67636 0.81995 0.0
C483 C 0.40694 0.66017 0.888 0.0
C484 C 0.43309 0.6591 0.89693 0.0
H485 H 0.32237 0.5335 0.10468 0.0
H486 H 0.34943 0.56186 0.01621 0.0
C487 C 0.4484 0.67487 0.84334 0.0
C488 C 0.39043 0.64401 0.94747 0.0
H489 H 0.38067 0.62347 0.17385 0.0
C490 C 0.37139 0.63022 0.90267 0.0
C491 C 0.39303 0.64227 0.04742 0.0
C492 C 0.41108 0.65844 0.10269 0.0
C493 C 0.35529 0.61452 0.95408 0.0
C494 C 0.35917 0.61128 0.05289 0.0
C495 C 0.37787 0.62547 0.09805 0.0
C496 C 0.34405 0.59341 0.1106 0.0
C497 C 0.33389 0.60226 0.90161 0.0
C498 C 0.33336 0.60091 0.19733 0.0
C499 C 0.31879 0.58424 0.25047 0.0
C500 C 0.31422 0.55996 0.21676 0.0
C501 C 0.32533 0.55227 0.13147 0.0
C502 C 0.34055 0.56861 0.08016 0.0
H503 H 0.32813 0.61353 0.8392 0.0
H504 H 0.33994 0.58374 0.87473 0.0
H505 H 0.31735 0.59968 0.948 0.0
H506 H 0.33588 0.61982 0.2232 0.0
H507 H 0.31037 0.5906 0.31601 0.0
H508 H 0.462 0.80939 0.31238 0.0
H509 H 0.43469 0.83786 0.22706 0.0
H510 H 0.40315 0.86292 0.49202 0.0
H511 H 0.43121 0.83481 0.57877 0.0
H512 H 0.38532 0.83864 0.21678 0.0
H513 H 0.41838 0.92867 0.36752 0.0
H514 H 0.43494 0.89975 0.38553 0.0
H515 H 0.40785 0.90698 0.45577 0.0
C516 C 0.44936 0.82102 0.3529 0.0
C517 C 0.44881 0.81985 0.45257 0.0
C518 C 0.43374 0.83733 0.3038 0.0
C519 C 0.41706 0.8528 0.35292 0.0
C520 C 0.4163 0.85162 0.45257 0.0
H521 H 0.2985 0.95063 0.17036 0.0
H522 H 0.32695 0.92322 0.25581 0.0
C523 C 0.43223 0.83545 0.50209 0.0
C524 C 0.40001 0.86941 0.29867 0.0
H525 H 0.38202 0.93018 0.27049 0.0
C526 C 0.38473 0.85868 0.22825 0.0
C527 C 0.39928 0.89558 0.3133 0.0
C528 C 0.41615 0.90849 0.38395 0.0
C529 C 0.36855 0.87332 0.17308 0.0
C530 C 0.36766 0.89937 0.18853 0.0
C531 C 0.38283 0.91016 0.25889 0.0
C532 C 0.35042 0.91565 0.13462 0.0
C533 C 0.35216 0.86083 0.0998 0.0
C534 C 0.35424 0.92049 0.03783 0.0
C535 C 0.33801 0.93635 0.98833 0.0
C536 C 0.31767 0.94752 0.03498 0.0
C537 C 0.3139 0.94236 0.13186 0.0
C538 C 0.33018 0.92673 0.18115 0.0
H539 H 0.35224 0.84015 0.1067 0.0
H540 H 0.33262 0.86758 0.10596 0.0
H541 H 0.35898 0.86571 0.02788 0.0
H542 H 0.36993 0.91222 1.00094 0.0
H543 H 0.34148 0.93996 0.91394 0.0
H544 H 0.04546 0.80307 0.43838 0.0
H545 H 0.0733 0.8315 0.52282 0.0
H546 H 0.09738 0.86302 0.25675 0.0
H547 H 0.0688 0.83501 0.17136 0.0
H548 H 0.12268 0.83618 0.51944 0.0
H549 H 0.08027 0.92535 0.40155 0.0
H550 H 0.06543 0.89551 0.38141 0.0
H551 H 0.09026 0.90593 0.30502 0.0
C552 C 0.05659 0.81608 0.39749 0.0
C553 C 0.05479 0.81684 0.29793 0.0
C554 C 0.07255 0.83235 0.44609 0.0
C555 C 0.08718 0.84973 0.3965 0.0
C556 C 0.0858 0.85026 0.29688 0.0
H557 H 0.20235 0.9541 0.56879 0.0
H558 H 0.17427 0.92578 0.48428 0.0
C559 C 0.06958 0.83411 0.24805 0.0
C560 C 0.10417 0.8668 0.44969 0.0
H561 H 0.11856 0.92834 0.4867 0.0
C562 C 0.12166 0.85634 0.51256 0.0
C563 C 0.1028 0.89314 0.44119 0.0
C564 C 0.08352 0.90569 0.37939 0.0
C565 C 0.138 0.87142 0.56592 0.0
C566 C 0.13679 0.89766 0.55641 0.0
C567 C 0.1194 0.90818 0.49365 0.0
C568 C 0.15388 0.9145 0.60932 0.0
C569 C 0.15675 0.85925 0.63095 0.0
C570 C 0.15163 0.91762 0.70787 0.0
C571 C 0.16762 0.93397 0.75675 0.0
C572 C 0.18618 0.94738 0.70778 0.0
C573 C 0.18837 0.94403 0.60902 0.0
C574 C 0.17229 0.92789 0.56035 0.0
H575 H 0.15799 0.83876 0.61903 0.0
H576 H 0.17556 0.86764 0.62075 0.0
H577 H 0.15119 0.86253 0.70573 0.0
H578 H 0.13735 0.90758 0.74676 0.0
H579 H 0.16541 0.93613 0.83267 0.0
H580 H 0.06096 0.70987 0.8511 0.0
H581 H 0.08829 0.6822 0.76178 0.0
H582 H 0.08289 0.6269 0.98285 0.0
H583 H 0.055 0.65448 0.07289 0.0
H584 H 0.13398 0.66205 0.80965 0.0
H585 H 0.06361 0.58758 0.74289 0.0
H586 H 0.05523 0.61824 0.78574 0.0
H587 H 0.06806 0.59551 0.86567 0.0
C588 C 0.06552 0.69184 0.88117 0.0
C589 C 0.05559 0.68433 0.96909 0.0
C590 C 0.08121 0.67604 0.82982 0.0
C591 C 0.08731 0.65233 0.86479 0.0
C592 C 0.078 0.64494 0.95363 0.0
H593 H 0.20702 0.55769 0.66709 0.0
H594 H 0.1795 0.58565 0.75403 0.0
C595 C 0.06223 0.6608 0.00535 0.0
C596 C 0.10359 0.63562 0.80788 0.0
H597 H 0.10509 0.57935 0.69301 0.0
C598 C 0.12766 0.64397 0.78415 0.0
C599 C 0.09515 0.61224 0.77317 0.0
C600 C 0.06903 0.60287 0.79226 0.0
C601 C 0.14368 0.62942 0.72798 0.0
C602 C 0.13555 0.60569 0.69581 0.0
C603 C 0.11133 0.59749 0.71814 0.0
C604 C 0.15222 0.58881 0.6414 0.0
C605 C 0.16906 0.63975 0.70251 0.0
C606 C 0.1458 0.58083 0.5495 0.0
C607 C 0.16152 0.5646 0.49923 0.0
C608 C 0.18382 0.55594 0.5405 0.0
C609 C 0.19007 0.564 0.63269 0.0
C610 C 0.17441 0.58014 0.68259 0.0
H611 H 0.16967 0.66043 0.7093 0.0
H612 H 0.18326 0.63189 0.75142 0.0
H613 H 0.17429 0.63457 0.62888 0.0
H614 H 0.12867 0.58721 0.51661 0.0
H615 H 0.1561 0.55868 0.42863 0.0
H616 H 0.80347 0.09673 0.81082 0.0
H617 H 0.82985 0.12426 0.71483 0.0
H618 H 0.85398 0.06084 0.54932 0.0
H619 H 0.8264 0.03366 0.64095 0.0
H620 H 0.87632 0.12901 0.68464 0.0
H621 H 0.8343 0.10452 0.33868 0.0
H622 H 0.82119 0.09385 0.44904 0.0
H623 H 0.84681 0.07731 0.3948 0.0
C624 C 0.81444 0.08871 0.75395 0.0
C625 C 0.81273 0.06311 0.73278 0.0
C626 C 0.8295 0.10446 0.69891 0.0
C627 C 0.84346 0.09484 0.62264 0.0
C628 C 0.84268 0.069 0.60488 0.0
H629 H 0.9683 0.17682 0.37486 0.0
H630 H 0.94143 0.14919 0.46759 0.0
C631 C 0.82713 0.05339 0.65813 0.0
C632 C 0.85905 0.11176 0.56281 0.0
H633 H 0.87327 0.12643 0.3333 0.0
C634 C 0.87545 0.12857 0.60779 0.0
C635 C 0.85766 0.11172 0.46232 0.0
C636 C 0.83882 0.09608 0.40856 0.0
C637 C 0.89072 0.14494 0.55564 0.0
C638 C 0.89053 0.14369 0.45512 0.0
C639 C 0.87381 0.1272 0.41015 0.0
C640 C 0.90723 0.15949 0.39518 0.0
C641 C 0.90627 0.16382 0.60944 0.0
C642 C 0.89739 0.17339 0.31918 0.0
C643 C 0.91295 0.18848 0.26354 0.0
C644 C 0.9386 0.19029 0.2838 0.0
C645 C 0.94853 0.17601 0.35837 0.0
C646 C 0.9331 0.16043 0.41226 0.0
H647 H 0.89788 0.1682 0.67957 0.0
H648 H 0.92512 0.15597 0.6227 0.0
H649 H 0.90831 0.18153 0.56926 0.0
H650 H 0.87756 0.17291 0.3038 0.0
H651 H 0.90478 0.19934 0.20673 0.0
H652 H 0.95287 0.30007 0.8173 0.0
H653 H 0.92513 0.32834 0.73255 0.0
H654 H 0.90924 0.36738 0.99312 0.0
H655 H 0.93724 0.33905 0.07954 0.0
H656 H 0.86585 0.35239 0.87109 0.0
H657 H 0.94014 0.40404 0.67727 0.0
H658 H 0.94205 0.3705 0.67367 0.0
H659 H 0.94633 0.3866 0.78434 0.0
C660 C 0.94356 0.31465 0.85708 0.0
C661 C 0.9474 0.31735 0.95543 0.0
C662 C 0.92778 0.33086 0.80817 0.0
C663 C 0.91544 0.35011 0.85635 0.0
C664 C 0.91879 0.3527 0.9547 0.0
H665 H 0.80522 0.45974 0.69009 0.0
H666 H 0.83314 0.43167 0.7744 0.0
C667 C 0.93478 0.33653 0.00387 0.0
C668 C 0.89871 0.36716 0.80358 0.0
H669 H 0.89835 0.41231 0.63277 0.0
C670 C 0.8729 0.36562 0.81938 0.0
C671 C 0.90802 0.38408 0.73527 0.0
C672 C 0.93566 0.38665 0.71671 0.0
C673 C 0.85605 0.38037 0.76764 0.0
C674 C 0.86535 0.39764 0.7002 0.0
C675 C 0.89121 0.39908 0.6843 0.0
C676 C 0.84864 0.41493 0.64772 0.0
C677 C 0.82841 0.37678 0.78414 0.0
C678 C 0.84873 0.41566 0.54802 0.0
C679 C 0.83297 0.43212 0.49912 0.0
C680 C 0.81683 0.44805 0.54925 0.0
C681 C 0.81711 0.44747 0.64905 0.0
C682 C 0.83299 0.43128 0.6976 0.0
H683 H 0.82427 0.35794 0.8132 0.0
H684 H 0.82187 0.39078 0.83663 0.0
H685 H 0.81758 0.37926 0.71758 0.0
H686 H 0.86084 0.40335 0.50805 0.0
H687 H 0.83324 0.43216 0.4223 0.0
H688 H 0.67131 0.46983 0.15538 0.0
H689 H 0.64179 0.44385 0.06652 0.0
H690 H 0.67456 0.37769 0.18923 0.0
H691 H 0.70277 0.40386 0.2836 0.0
H692 H 0.6474 0.41291 0.93532 0.0
H693 H 0.60451 0.35977 0.22863 0.0
H694 H 0.62504 0.3859 0.24996 0.0
H695 H 0.63762 0.35522 0.22694 0.0
C696 C 0.67184 0.44974 0.16457 0.0
C697 C 0.68903 0.43883 0.22727 0.0
C698 C 0.65505 0.43487 0.11341 0.0
C699 C 0.65548 0.40869 0.12204 0.0
C700 C 0.67305 0.39779 0.18365 0.0
H701 H 0.58702 0.31399 0.68207 0.0
H702 H 0.61573 0.34015 0.77492 0.0
C703 C 0.68933 0.41274 0.23718 0.0
C704 C 0.63828 0.39297 0.06344 0.0
H705 H 0.59772 0.3437 0.07278 0.0
C706 C 0.63632 0.39796 0.96579 0.0
C707 C 0.62347 0.3736 0.10268 0.0
C708 C 0.62255 0.36851 0.20793 0.0
C709 C 0.62009 0.3843 0.90668 0.0
C710 C 0.60634 0.36403 0.94498 0.0
C711 C 0.60835 0.35902 0.0426 0.0
C712 C 0.5891 0.34824 0.88668 0.0
C713 C 0.61733 0.39249 0.8048 0.0
C714 C 0.56486 0.34309 0.91971 0.0
C715 C 0.54892 0.3273 0.86878 0.0
C716 C 0.55658 0.31682 0.78228 0.0
C717 C 0.58058 0.32221 0.74788 0.0
C718 C 0.59689 0.33736 0.80064 0.0
H719 H 0.62199 0.4126 0.79626 0.0
H720 H 0.63048 0.38172 0.75989 0.0
H721 H 0.59803 0.38939 0.77826 0.0
H722 H 0.55824 0.35116 0.98553 0.0
H723 H 0.53047 0.3234 0.89678 0.0
H724 H 0.70337 0.05025 0.19105 0.0
H725 H 0.67517 0.07804 0.27568 0.0
H726 H 0.63272 0.08947 0.01929 0.0
H727 H 0.6608 0.06115 0.93351 0.0
H728 H 0.66492 0.1277 0.24233 0.0
H729 H 0.57892 0.06981 0.21233 0.0
H730 H 0.60962 0.05764 0.18675 0.0
H731 H 0.59386 0.07696 0.10158 0.0
C732 C 0.68803 0.05856 0.15223 0.0
C733 C 0.68429 0.05332 0.05532 0.0
C734 C 0.67192 0.0745 0.20097 0.0
C735 C 0.65165 0.08556 0.15426 0.0
C736 C 0.64797 0.08072 0.05721 0.0
H737 H 0.56328 0.21061 0.34736 0.0
H738 H 0.59146 0.1822 0.26485 0.0
C739 C 0.66412 0.06466 0.00815 0.0
C740 C 0.63481 0.10251 0.20764 0.0
H741 H 0.57449 0.10998 0.28164 0.0
C742 C 0.64515 0.12383 0.25088 0.0
C743 C 0.60909 0.09723 0.21986 0.0
C744 C 0.59717 0.07406 0.17848 0.0
C745 C 0.63041 0.14017 0.3049 0.0
C746 C 0.60462 0.13519 0.31533 0.0
C747 C 0.59429 0.11374 0.27322 0.0
C748 C 0.58796 0.15246 0.36754 0.0
C749 C 0.64254 0.16254 0.35141 0.0
C750 C 0.57653 0.14507 0.45261 0.0
C751 C 0.56039 0.16135 0.50054 0.0
C752 C 0.5552 0.18515 0.46334 0.0
C753 C 0.56684 0.19244 0.3782 0.0
C754 C 0.58303 0.17626 0.33091 0.0
H755 H 0.66322 0.16088 0.3534 0.0
H756 H 0.63771 0.17962 0.31085 0.0
H757 H 0.63556 0.16497 0.42499 0.0
H758 H 0.58009 0.12671 0.4818 0.0
H759 H 0.55167 0.15513 0.56562 0.0
H760 H 0.29032 0.44326 0.55248 0.0
H761 H 0.32297 0.41267 0.58344 0.0
H762 H 0.35618 0.4285 0.31172 0.0
H763 H 0.32353 0.4594 0.27965 0.0
H764 H 0.33487 0.36964 0.47276 0.0
H765 H 0.4147 0.43585 0.50511 0.0
H766 H 0.38254 0.44579 0.51302 0.0
H767 H 0.39603 0.4388 0.39957 0.0
C768 C 0.30455 0.44039 0.49907 0.0
C769 C 0.3043 0.45395 0.41355 0.0
C770 C 0.32321 0.42283 0.51705 0.0
C771 C 0.34212 0.41855 0.45043 0.0
C772 C 0.34193 0.43184 0.3647 0.0
H773 H 0.44379 0.29283 0.43084 0.0
H774 H 0.41261 0.3248 0.39744 0.0
C775 C 0.32319 0.4494 0.34634 0.0
C776 C 0.36166 0.3997 0.47043 0.0
H777 H 0.42419 0.39267 0.51124 0.0
C778 C 0.35441 0.37465 0.48106 0.0
C779 C 0.38706 0.40639 0.48239 0.0
C780 C 0.39565 0.43318 0.47527 0.0
C781 C 0.37195 0.35601 0.50227 0.0
C782 C 0.39741 0.36261 0.51235 0.0
C783 C 0.40465 0.3877 0.5029 0.0
C784 C 0.41679 0.34361 0.53241 0.0
C785 C 0.36307 0.32945 0.5151 0.0
C786 C 0.42982 0.34389 0.61883 0.0
C787 C 0.44772 0.32559 0.63849 0.0
C788 C 0.45307 0.3068 0.57153 0.0
C789 C 0.44017 0.30691 0.48435 0.0
C790 C 0.42224 0.32513 0.46507 0.0
H791 H 0.34253 0.32841 0.52586 0.0
H792 H 0.36775 0.31845 0.45076 0.0
H793 H 0.37251 0.3206 0.57661 0.0
H794 H 0.42589 0.3581 0.67156 0.0
H795 H 0.4573 0.32614 0.70619 0.0
H796 H 0.70415 0.95254 0.68987 0.0
H797 H 0.67136 0.92249 0.65243 0.0
H798 H 0.65118 0.91881 0.94809 0.0
H799 H 0.6835 0.94967 0.98613 0.0
H800 H 0.66578 0.8753 0.7073 0.0
H801 H 0.58381 0.9297 0.82899 0.0
H802 H 0.6144 0.94351 0.816 0.0
H803 H 0.6069 0.92552 0.91992 0.0
C804 C 0.69261 0.94563 0.74714 0.0
C805 C 0.69636 0.95384 0.84108 0.0
C806 C 0.67387 0.92833 0.72546 0.0
C807 C 0.65845 0.91867 0.79704 0.0
C808 C 0.66235 0.92649 0.89115 0.0
H809 H 0.54966 0.7991 0.81339 0.0
H810 H 0.58051 0.83151 0.84794 0.0
C811 C 0.68098 0.94404 0.9129 0.0
C812 C 0.63897 0.89979 0.77303 0.0
H813 H 0.57652 0.88691 0.79033 0.0
C814 C 0.64625 0.87796 0.72492 0.0
C815 C 0.61342 0.90325 0.79564 0.0
C816 C 0.60409 0.92687 0.84212 0.0
C817 C 0.6288 0.85937 0.70039 0.0
C818 C 0.60342 0.8627 0.72443 0.0
C819 C 0.59605 0.88447 0.77223 0.0
C820 C 0.58436 0.84342 0.70235 0.0
C821 C 0.6376 0.83606 0.65041 0.0
C822 C 0.57617 0.83954 0.60887 0.0
C823 C 0.55828 0.82112 0.58863 0.0
C824 C 0.54837 0.80617 0.66162 0.0
C825 C 0.55672 0.81024 0.75525 0.0
C826 C 0.57439 0.82878 0.77537 0.0
H827 H 0.65831 0.83487 0.64769 0.0
H828 H 0.63021 0.81918 0.68662 0.0
H829 H 0.63032 0.83594 0.57667 0.0
H830 H 0.58361 0.85078 0.55163 0.0
H831 H 0.55238 0.8185 0.51576 0.0
H832 H 0.04367 0.17775 0.21559 0.0
H833 H 0.07507 0.14548 0.18396 0.0
H834 H 0.09162 0.17959 0.91453 0.0
H835 H 0.0606 0.21181 0.94494 0.0
H836 H 0.07767 0.11152 0.02145 0.0
H837 H 0.16029 0.17408 0.05149 0.0
H838 H 0.13003 0.18229 0.0986 0.0
H839 H 0.13607 0.18508 0.97377 0.0
C840 C 0.05403 0.17843 0.14971 0.0
C841 C 0.0496 0.19747 0.08305 0.0
C842 C 0.0719 0.15995 0.13172 0.0
C843 C 0.08579 0.16035 0.04738 0.0
C844 C 0.08132 0.17917 0.9806 0.0
H845 H 0.17741 0.04522 0.78363 0.0
H846 H 0.14488 0.0759 0.8206 0.0
C847 C 0.06347 0.19754 0.99819 0.0
C848 C 0.10495 0.14108 0.02825 0.0
H849 H 0.16745 0.13338 0.99053 0.0
C850 C 0.09732 0.11621 0.01507 0.0
C851 C 0.13056 0.14732 0.0206 0.0
C852 C 0.13986 0.17359 0.03761 0.0
C853 C 0.11466 0.09742 0.99272 0.0
C854 C 0.14017 0.1038 0.98253 0.0
C855 C 0.14782 0.12861 0.99738 0.0
C856 C 0.15946 0.08491 0.95981 0.0
C857 C 0.10562 0.07086 0.98148 0.0
C858 C 0.17864 0.08018 0.02503 0.0
C859 C 0.19724 0.06282 0.00415 0.0
C860 C 0.19718 0.04985 0.91711 0.0
C861 C 0.17799 0.05476 0.85142 0.0
C862 C 0.15931 0.07218 0.87261 0.0
H863 H 0.08665 0.06818 0.01174 0.0
H864 H 0.10483 0.06608 0.90491 0.0
H865 H 0.11866 0.05763 0.01641 0.0
H866 H 0.17916 0.0899 0.0925 0.0
H867 H 0.21171 0.05965 0.05654 0.0
H868 H 0.95914 0.67659 0.03481 0.0
H869 H 0.92781 0.64402 0.0653 0.0
H870 H 0.90943 0.67901 0.33169 0.0
H871 H 0.94041 0.71148 0.30247 0.0
H872 H 0.9245 0.61072 0.23082 0.0
H873 H 0.84156 0.67192 0.18802 0.0
H874 H 0.87201 0.68016 0.14255 0.0
H875 H 0.86529 0.68377 0.26658 0.0
C876 C 0.94839 0.6774 0.09976 0.0
C877 C 0.95229 0.69677 0.16589 0.0
C878 C 0.93055 0.65875 0.11712 0.0
C879 C 0.91616 0.6593 0.20027 0.0
C880 C 0.92012 0.67845 0.26651 0.0
H881 H 0.82413 0.54583 0.47084 0.0
H882 H 0.8566 0.57638 0.43079 0.0
C883 C 0.93794 0.69698 0.24961 0.0
C884 C 0.89703 0.63985 0.21882 0.0
H885 H 0.83437 0.63153 0.25178 0.0
C886 C 0.90477 0.61518 0.23494 0.0
C887 C 0.87132 0.64576 0.22354 0.0
C888 C 0.86192 0.67178 0.20351 0.0
C889 C 0.88746 0.59633 0.25767 0.0
C890 C 0.86183 0.60241 0.26511 0.0
C891 C 0.85407 0.62697 0.24698 0.0
C892 C 0.8426 0.58347 0.28935 0.0
C893 C 0.89666 0.57 0.27258 0.0
C894 C 0.82376 0.57765 0.22375 0.0
C895 C 0.80519 0.5603 0.24632 0.0
C896 C 0.80491 0.54847 0.33551 0.0
C897 C 0.82379 0.55446 0.40145 0.0
C898 C 0.84245 0.57182 0.37852 0.0
H899 H 0.91581 0.56733 0.24403 0.0
H900 H 0.89709 0.56592 0.34969 0.0
H901 H 0.88392 0.5563 0.23821 0.0
H902 H 0.82346 0.58653 0.15474 0.0
H903 H 0.79098 0.55629 0.19365 0.0
H904 H 0.33278 0.03391 0.92934 0.0
H905 H 0.36584 0.06399 0.89105 0.0
H906 H 0.31494 0.10353 0.70741 0.0
H907 H 0.28241 0.07291 0.74158 0.0
H908 H 0.35736 0.09902 0.62291 0.0
H909 H 0.37639 0.13285 0.98756 0.0
H910 H 0.38099 0.09983 0.97555 0.0
H911 H 0.35023 0.11283 0.96015 0.0
C912 C 0.32864 0.04917 0.88149 0.0
C913 C 0.30498 0.0511 0.83875 0.0
C914 C 0.34751 0.06645 0.85998 0.0
C915 C 0.34284 0.08637 0.79751 0.0
C916 C 0.31909 0.08838 0.75574 0.0
H917 H 0.42989 0.22156 0.74875 0.0
H918 H 0.3995 0.1888 0.78306 0.0
C919 C 0.30045 0.07087 0.77557 0.0
C920 C 0.36267 0.10482 0.77287 0.0
H921 H 0.40426 0.14646 0.86761 0.0
C922 C 0.36755 0.10946 0.67653 0.0
C923 C 0.37585 0.11866 0.84259 0.0
C924 C 0.37044 0.116 0.94715 0.0
C925 C 0.38488 0.1277 0.64793 0.0
C926 C 0.39857 0.14104 0.71765 0.0
C927 C 0.39393 0.13616 0.814 0.0
C928 C 0.41686 0.16101 0.69296 0.0
C929 C 0.38751 0.13309 0.54335 0.0
C930 C 0.43681 0.15648 0.63044 0.0
C931 C 0.45393 0.17547 0.6088 0.0
C932 C 0.45183 0.19912 0.6515 0.0
C933 C 0.43204 0.20352 0.71475 0.0
C934 C 0.41468 0.18476 0.73468 0.0
H935 H 0.37072 0.127 0.50295 0.0
H936 H 0.39054 0.15332 0.53026 0.0
H937 H 0.40376 0.12264 0.51501 0.0
H938 H 0.43941 0.13815 0.59945 0.0
H939 H 0.46923 0.17143 0.56097 0.0
H940 H 0.82391 0.95778 0.79125 0.0
H941 H 0.85634 0.92642 0.82139 0.0
H942 H 0.82294 0.90964 0.0919 0.0
H943 H 0.7906 0.94063 0.06306 0.0
H944 H 0.89065 0.92395 0.98432 0.0
H945 H 0.82853 0.84101 0.95316 0.0
H946 H 0.82022 0.87124 0.90606 0.0
H947 H 0.8174 0.8652 0.03086 0.0
C948 C 0.82341 0.94737 0.85703 0.0
C949 C 0.80455 0.95174 0.92449 0.0
C950 C 0.84199 0.92952 0.87418 0.0
C951 C 0.84185 0.91559 0.95844 0.0
C952 C 0.82318 0.91998 0.02591 0.0
H953 H 0.95702 0.82424 0.22255 0.0
H954 H 0.92619 0.85661 0.18534 0.0
C955 C 0.80473 0.93781 0.0092 0.0
C956 C 0.86124 0.89651 0.97692 0.0
H957 H 0.86929 0.83402 0.01382 0.0
C958 C 0.88607 0.90426 0.99035 0.0
C959 C 0.85515 0.87086 0.98418 0.0
C960 C 0.82893 0.86145 0.96707 0.0
C961 C 0.90494 0.88701 0.01267 0.0
C962 C 0.8987 0.86145 0.02249 0.0
C963 C 0.87395 0.85368 0.00726 0.0
C964 C 0.91769 0.84225 0.04534 0.0
C965 C 0.93144 0.89618 0.02441 0.0
C966 C 0.92277 0.82326 0.9797 0.0
C967 C 0.94024 0.80476 1.00067 0.0
C968 C 0.95296 0.80472 0.08825 0.0
C969 C 0.94767 0.82372 0.15437 0.0
C970 C 0.93017 0.84232 0.13304 0.0
H971 H 0.93403 0.91524 0.99485 0.0
H972 H 0.93617 0.8968 0.10103 0.0
H973 H 0.94476 0.88329 0.9891 0.0
H974 H 0.91325 0.82281 0.91184 0.0
H975 H 0.9437 0.79045 0.94792 0.0
H976 H 0.04433 0.32464 0.03092 0.0
H977 H 0.07541 0.35703 0.0671 0.0
H978 H 0.08807 0.3241 0.34163 0.0
H979 H 0.05722 0.29175 0.30679 0.0
H980 H 0.07645 0.39178 0.22993 0.0
H981 H 0.15855 0.32847 0.21446 0.0
H982 H 0.12878 0.32051 0.16186 0.0
H983 H 0.13313 0.31805 0.28778 0.0
C984 C 0.05371 0.32426 0.09902 0.0
C985 C 0.04827 0.30546 0.16567 0.0
C986 C 0.07142 0.34282 0.11959 0.0
C987 C 0.08419 0.34279 0.20664 0.0
C988 C 0.07864 0.32427 0.27359 0.0
H989 H 0.1767 0.45884 0.46792 0.0
H990 H 0.14411 0.42784 0.43317 0.0
C991 C 0.0609 0.30582 0.25344 0.0
C992 C 0.10341 0.36202 0.22774 0.0
H993 H 0.16587 0.36969 0.26911 0.0
C994 C 0.09601 0.38701 0.23839 0.0
C995 C 0.12892 0.35571 0.2381 0.0
C996 C 0.13798 0.32928 0.22429 0.0
C997 C 0.11346 0.40585 0.2604 0.0
C998 C 0.13889 0.39945 0.27254 0.0
C999 C 0.14631 0.3745 0.26065 0.0
C1000 C 0.15831 0.41848 0.29402 0.0
C1001 C 0.10467 0.43252 0.26896 0.0
C1002 C 0.17729 0.42319 0.22799 0.0
C1003 C 0.19589 0.44081 0.24747 0.0
C1004 C 0.19609 0.45403 0.334 0.0
C1005 C 0.17712 0.4491 0.40053 0.0
C1006 C 0.1584 0.43148 0.38063 0.0
H1007 H 0.08561 0.43504 0.23923 0.0
H1008 H 0.10425 0.43792 0.34496 0.0
H1009 H 0.1177 0.44538 0.23194 0.0
H1010 H 0.17762 0.41328 0.16091 0.0
H1011 H 0.21017 0.44398 0.19446 0.0
H1012 H 0.54645 0.68167 0.71981 0.0
H1013 H 0.57802 0.64945 0.68958 0.0
H1014 H 0.58687 0.67644 0.40371 0.0
H1015 H 0.55585 0.70867 0.43285 0.0
H1016 H 0.57862 0.61124 0.54599 0.0
H1017 H 0.65844 0.67704 0.51134 0.0
H1018 H 0.62906 0.68599 0.56406 0.0
H1019 H 0.63214 0.68436 0.43727 0.0
C1020 C 0.55512 0.68077 0.65054 0.0
C1021 C 0.5486 0.69788 0.57901 0.0
C1022 C 0.57312 0.66233 0.63339 0.0
C1023 C 0.58498 0.66081 0.54481 0.0
C1024 C 0.57825 0.67757 0.47306 0.0
H1025 H 0.67532 0.54216 0.29694 0.0
H1026 H 0.64269 0.57303 0.33099 0.0
C1027 C 0.56036 0.69595 0.48996 0.0
C1028 C 0.60441 0.64173 0.52656 0.0
H1029 H 0.66576 0.63493 0.46566 0.0
C1030 C 0.5977 0.61637 0.52877 0.0
C1031 C 0.62931 0.64853 0.50472 0.0
C1032 C 0.6378 0.67544 0.50495 0.0
C1033 C 0.61519 0.5976 0.50795 0.0
C1034 C 0.63989 0.60447 0.48375 0.0
C1035 C 0.6467 0.62979 0.48315 0.0
C1036 C 0.65931 0.58561 0.46269 0.0
C1037 C 0.60731 0.57057 0.51319 0.0
C1038 C 0.67957 0.58282 0.5247 0.0
C1039 C 0.69815 0.56529 0.50569 0.0
C1040 C 0.69701 0.55027 0.4236 0.0
C1041 C 0.67678 0.55336 0.36079 0.0
C1042 C 0.65806 0.57087 0.38034 0.0
H1043 H 0.58894 0.56826 0.54878 0.0
H1044 H 0.6058 0.56284 0.44031 0.0
H1045 H 0.62149 0.55943 0.55205 0.0
H1046 H 0.68091 0.59413 0.58835 0.0
H1047 H 0.71344 0.56356 0.55566 0.0
loop_
_geom_bond_atom_site_label_1
_geom_bond_atom_site_label_2
_geom_bond_distance
_geom_bond_site_symmetry_2
_ccdc_geom_bond_type
Co0 O2 2.143 . S
Co0 O8 2.074 . S
Co0 O11 2.093 . S
Co0 O24 2.097 . S
Co0 N41 2.151 . S
Co0 N49 2.214 . S
Co1 O2 2.160 . S
Co1 O7 2.058 . S
Co1 O17 2.057 . S
Co1 O32 2.037 . S
Co1 N36 2.145 . S
Co1 N57 2.257 . S
O2 Co0 2.143 . S
O2 Co1 2.160 . S
C3 O4 1.278 . S
C3 O11 1.224 . S
O4 C3 1.278 . S
C5 O6 1.245 . S
C5 O17 1.232 . S
O6 C5 1.245 . S
O7 Co1 2.058 . S
O7 C33 1.269 . S
O8 Co0 2.074 . S
O8 C33 1.257 . S
H9 C34 0.930 . S
H10 C40 0.930 . S
O11 Co0 2.093 . S
O11 C3 1.224 . S
H12 C44 0.929 . S
H13 C46 0.930 . S
H14 C47 0.930 . S
H15 C45 0.929 . S
H16 C48 0.928 . S
O17 Co1 2.057 . S
O17 C5 1.232 . S
H18 C37 0.929 . S
H19 C38 0.929 . S
H20 C50 0.931 . S
H21 C42 0.929 . S
H22 C51 0.930 . S
H23 C43 0.931 . S
O24 Co0 2.097 . S
O24 C52 1.214 . S
H25 C53 0.929 . S
H26 C54 0.929 . S
H27 C55 0.930 . S
H28 C56 0.929 . S
H29 C58 0.930 . S
H30 C35 0.930 . S
H31 C39 0.930 . S
O32 Co1 2.037 . S
O32 C52 1.234 . S
C33 O7 1.269 . S
C33 O8 1.257 . S
C34 H9 0.930 . S
C34 C37 1.388 . S
C34 C39 1.418 1_554 S
C35 H30 0.930 . S
C35 C38 1.404 1_556 S
C35 C39 1.353 . S
N36 Co1 2.145 . S
N36 C37 1.397 . S
N36 C38 1.334 . S
C37 H18 0.929 . S
C37 C34 1.388 . S
C37 N36 1.397 . S
C38 H19 0.929 . S
C38 C35 1.404 1_554 S
C38 N36 1.334 . S
C39 H31 0.930 . S
C39 C34 1.418 1_556 S
C39 C35 1.353 . S
C40 H10 0.930 . S
C40 N41 1.330 . S
C40 C42 1.446 . S
N41 Co0 2.151 . S
N41 C40 1.330 . S
N41 C45 1.418 . S
C42 H21 0.929 . S
C42 C40 1.446 . S
C42 C43 1.332 . S
C43 H23 0.931 . S
C43 C42 1.332 . S
C43 C44 1.267 . S
C44 H12 0.929 . S
C44 C43 1.267 . S
C44 C45 1.251 . S
C45 H15 0.929 . S
C45 N41 1.418 . S
C45 C44 1.251 . S
C46 H13 0.930 . S
C46 C48 1.406 . S
C46 C51 1.261 . S
C47 H14 0.930 . S
C47 N49 1.325 . S
C47 C50 1.357 . S
C48 H16 0.928 . S
C48 C46 1.406 . S
C48 N49 1.261 . S
N49 Co0 2.214 . S
N49 C47 1.325 . S
N49 C48 1.261 . S
C50 H20 0.931 . S
C50 C47 1.357 . S
C50 C51 1.312 . S
C51 H22 0.930 . S
C51 C46 1.261 . S
C51 C50 1.312 . S
C52 O24 1.214 . S
C52 O32 1.234 . S
C53 H25 0.929 . S
C53 C56 1.391 . S
C53 C58 1.391 . S
C54 H26 0.929 . S
C54 C55 1.390 . S
C54 N57 1.391 . S
C55 H27 0.930 . S
C55 C54 1.390 . S
C55 C56 1.392 . S
C56 H28 0.929 . S
C56 C53 1.391 . S
C56 C55 1.392 . S
N57 Co1 2.257 . S
N57 C54 1.391 . S
N57 C58 1.388 . S
C58 H29 0.930 . S
C58 C53 1.391 . S
C58 N57 1.388 . S
Co59 O61 2.143 . S
Co59 O67 2.074 . S
Co59 O70 2.093 . S
Co59 O83 2.097 . S
Co59 N100 2.151 . S
Co59 N108 2.214 . S
Co60 O61 2.160 . S
Co60 O66 2.058 . S
Co60 O76 2.057 . S
Co60 O91 2.037 . S
Co60 N95 2.145 . S
Co60 N116 2.257 . S
O61 Co59 2.143 . S
O61 Co60 2.160 . S
C62 O63 1.278 . S
C62 O70 1.224 . S
O63 C62 1.278 . S
C64 O65 1.245 . S
C64 O76 1.232 . S
O65 C64 1.245 . S
O66 Co60 2.058 . S
O66 C92 1.269 . S
O67 Co59 2.074 . S
O67 C92 1.257 . S
H68 C93 0.930 . S
H69 C99 0.930 . S
O70 Co59 2.093 . S
O70 C62 1.224 . S
H71 C103 0.929 . S
H72 C105 0.930 . S
H73 C106 0.930 . S
H74 C104 0.929 . S
H75 C107 0.928 . S
O76 Co60 2.057 . S
O76 C64 1.232 . S
H77 C96 0.929 . S
H78 C97 0.929 . S
H79 C109 0.931 . S
H80 C101 0.929 . S
H81 C110 0.930 . S
H82 C102 0.931 . S
O83 Co59 2.097 . S
O83 C111 1.214 . S
H84 C112 0.929 . S
H85 C113 0.929 . S
H86 C114 0.930 . S
H87 C115 0.929 . S
H88 C117 0.930 . S
H89 C94 0.930 . S
H90 C98 0.930 . S
O91 Co60 2.037 . S
O91 C111 1.234 . S
C92 O66 1.269 . S
C92 O67 1.257 . S
C93 H68 0.930 . S
C93 C96 1.388 . S
C93 C98 1.418 1_556 S
C94 H89 0.930 . S
C94 C97 1.404 1_554 S
C94 C98 1.353 . S
N95 Co60 2.145 . S
N95 C96 1.397 . S
N95 C97 1.334 . S
C96 H77 0.929 . S
C96 C93 1.388 . S
C96 N95 1.397 . S
C97 H78 0.929 . S
C97 C94 1.404 1_556 S
C97 N95 1.334 . S
C98 H90 0.930 . S
C98 C93 1.418 1_554 S
C98 C94 1.353 . S
C99 H69 0.930 . S
C99 N100 1.330 . S
C99 C101 1.446 . S
N100 Co59 2.151 . S
N100 C99 1.330 . S
N100 C104 1.418 . S
C101 H80 0.929 . S
C101 C99 1.446 . S
C101 C102 1.332 . S
C102 H82 0.931 . S
C102 C101 1.332 . S
C102 C103 1.267 . S
C103 H71 0.929 . S
C103 C102 1.267 . S
C103 C104 1.251 . S
C104 H74 0.929 . S
C104 N100 1.418 . S
C104 C103 1.251 . S
C105 H72 0.930 . S
C105 C107 1.406 . S
C105 C110 1.261 . S
C106 H73 0.930 . S
C106 N108 1.325 . S
C106 C109 1.357 . S
C107 H75 0.928 . S
C107 C105 1.406 . S
C107 N108 1.261 . S
N108 Co59 2.214 . S
N108 C106 1.325 . S
N108 C107 1.261 . S
C109 H79 0.931 . S
C109 C106 1.357 . S
C109 C110 1.312 . S
C110 H81 0.930 . S
C110 C105 1.261 . S
C110 C109 1.312 . S
C111 O83 1.214 . S
C111 O91 1.234 . S
C112 H84 0.929 . S
C112 C115 1.391 . S
C112 C117 1.391 . S
C113 H85 0.929 . S
C113 C114 1.390 . S
C113 N116 1.391 . S
C114 H86 0.930 . S
C114 C113 1.390 . S
C114 C115 1.392 . S
C115 H87 0.929 . S
C115 C112 1.391 . S
C115 C114 1.392 . S
N116 Co60 2.257 . S
N116 C113 1.391 . S
N116 C117 1.388 . S
C117 H88 0.930 . S
C117 C112 1.391 . S
C117 N116 1.388 . S
Co118 O120 2.143 1_545 S
Co118 O126 2.074 . S
Co118 O129 2.093 1_545 S
Co118 O142 2.097 . S
Co118 N159 2.151 1_545 S
Co118 N167 2.214 . S
Co119 O120 2.159 . S
Co119 O125 2.059 1_565 S
Co119 O135 2.057 1_556 S
Co119 O150 2.037 1_565 S
Co119 N154 2.145 1_566 S
Co119 N175 2.257 1_556 S
O120 Co118 2.143 1_565 S
O120 Co119 2.159 . S
C121 O122 1.278 . S
C121 O129 1.224 . S
O122 C121 1.278 . S
C123 O124 1.245 . S
C123 O135 1.232 1_556 S
O124 C123 1.245 . S
O125 Co119 2.059 1_545 S
O125 C151 1.269 . S
O126 Co118 2.074 . S
O126 C151 1.257 . S
H127 C152 0.930 . S
H128 C158 0.930 . S
O129 Co118 2.093 1_565 S
O129 C121 1.224 . S
H130 C162 0.929 . S
H131 C164 0.930 . S
H132 C165 0.930 . S
H133 C163 0.929 1_545 S
H134 C166 0.928 . S
O135 Co119 2.057 1_554 S
O135 C123 1.232 1_554 S
H136 C155 0.929 . S
H137 C156 0.929 1_565 S
H138 C168 0.931 . S
H139 C160 0.929 . S
H140 C169 0.930 . S
H141 C161 0.931 . S
O142 Co118 2.097 . S
O142 C170 1.214 . S
H143 C171 0.929 . S
H144 C172 0.929 1_545 S
H145 C173 0.930 . S
H146 C174 0.929 . S
H147 C176 0.930 . S
H148 C153 0.930 . S
H149 C157 0.930 . S
O150 Co119 2.037 1_545 S
O150 C170 1.234 . S
C151 O125 1.269 . S
C151 O126 1.257 . S
C152 H127 0.930 . S
C152 C155 1.388 . S
C152 C157 1.418 . S
C153 H148 0.930 . S
C153 C156 1.404 . S
C153 C157 1.353 . S
N154 Co119 2.145 1_544 S
N154 C155 1.397 . S
N154 C156 1.334 . S
C155 H136 0.929 . S
C155 C152 1.388 . S
C155 N154 1.397 . S
C156 H137 0.929 1_545 S
C156 C153 1.404 . S
C156 N154 1.334 . S
C157 H149 0.930 . S
C157 C152 1.418 . S
C157 C153 1.353 . S
C158 H128 0.930 . S
C158 N159 1.330 . S
C158 C160 1.446 . S
N159 Co118 2.151 1_565 S
N159 C158 1.330 . S
N159 C163 1.418 . S
C160 H139 0.929 . S
C160 C158 1.446 . S
C160 C161 1.332 . S
C161 H141 0.931 . S
C161 C160 1.332 . S
C161 C162 1.267 . S
C162 H130 0.929 . S
C162 C161 1.267 . S
C162 C163 1.251 . S
C163 H133 0.929 1_565 S
C163 N159 1.418 . S
C163 C162 1.251 . S
C164 H131 0.930 . S
C164 C166 1.406 . S
C164 C169 1.261 . S
C165 H132 0.930 . S
C165 N167 1.325 . S
C165 C168 1.357 . S
C166 H134 0.928 . S
C166 C164 1.406 . S
C166 N167 1.261 . S
N167 Co118 2.214 . S
N167 C165 1.325 . S
N167 C166 1.261 . S
C168 H138 0.931 . S
C168 C165 1.357 . S
C168 C169 1.312 . S
C169 H140 0.930 . S
C169 C164 1.261 . S
C169 C168 1.312 . S
C170 O142 1.214 . S
C170 O150 1.234 . S
C171 H143 0.929 . S
C171 C174 1.391 . S
C171 C176 1.391 . S
C172 H144 0.929 1_565 S
C172 C173 1.390 . S
C172 N175 1.391 . S
C173 H145 0.930 . S
C173 C172 1.390 . S
C173 C174 1.392 . S
C174 H146 0.929 . S
C174 C171 1.391 . S
C174 C173 1.392 . S
N175 Co119 2.257 1_554 S
N175 C172 1.391 . S
N175 C176 1.388 . S
C176 H147 0.930 . S
C176 C171 1.391 . S
C176 N175 1.388 . S
Co177 O179 2.143 1_655 S
Co177 O185 2.074 . S
Co177 O188 2.093 1_655 S
Co177 O201 2.097 . S
Co177 N218 2.151 1_655 S
Co177 N226 2.214 . S
Co178 O179 2.159 . S
Co178 O184 2.059 1_455 S
Co178 O194 2.057 1_554 S
Co178 O209 2.037 1_455 S
Co178 N213 2.145 1_454 S
Co178 N234 2.257 1_554 S
O179 Co177 2.143 1_455 S
O179 Co178 2.159 . S
C180 O181 1.278 . S
C180 O188 1.224 . S
O181 C180 1.278 . S
C182 O183 1.245 . S
C182 O194 1.232 1_554 S
O183 C182 1.245 . S
O184 Co178 2.059 1_655 S
O184 C210 1.269 . S
O185 Co177 2.074 . S
O185 C210 1.257 . S
H186 C211 0.930 . S
H187 C217 0.930 . S
O188 Co177 2.093 1_455 S
O188 C180 1.224 . S
H189 C221 0.929 . S
H190 C223 0.930 . S
H191 C224 0.930 . S
H192 C222 0.929 1_655 S
H193 C225 0.928 . S
O194 Co178 2.057 1_556 S
O194 C182 1.232 1_556 S
H195 C214 0.929 . S
H196 C215 0.929 1_455 S
H197 C227 0.931 . S
H198 C219 0.929 . S
H199 C228 0.930 . S
H200 C220 0.931 . S
O201 Co177 2.097 . S
O201 C229 1.214 . S
H202 C230 0.929 . S
H203 C231 0.929 1_655 S
H204 C232 0.930 . S
H205 C233 0.929 . S
H206 C235 0.930 . S
H207 C212 0.930 . S
H208 C216 0.930 . S
O209 Co178 2.037 1_655 S
O209 C229 1.234 . S
C210 O184 1.269 . S
C210 O185 1.257 . S
C211 H186 0.930 . S
C211 C214 1.388 . S
C211 C216 1.418 . S
C212 H207 0.930 . S
C212 C215 1.404 . S
C212 C216 1.353 . S
N213 Co178 2.145 1_656 S
N213 C214 1.397 . S
N213 C215 1.334 . S
C214 H195 0.929 . S
C214 C211 1.388 . S
C214 N213 1.397 . S
C215 H196 0.929 1_655 S
C215 C212 1.404 . S
C215 N213 1.334 . S
C216 H208 0.930 . S
C216 C211 1.418 . S
C216 C212 1.353 . S
C217 H187 0.930 . S
C217 N218 1.330 . S
C217 C219 1.446 . S
N218 Co177 2.151 1_455 S
N218 C217 1.330 . S
N218 C222 1.418 . S
C219 H198 0.929 . S
C219 C217 1.446 . S
C219 C220 1.332 . S
C220 H200 0.931 . S
C220 C219 1.332 . S
C220 C221 1.267 . S
C221 H189 0.929 . S
C221 C220 1.267 . S
C221 C222 1.251 . S
C222 H192 0.929 1_455 S
C222 N218 1.418 . S
C222 C221 1.251 . S
C223 H190 0.930 . S
C223 C225 1.406 . S
C223 C228 1.261 . S
C224 H191 0.930 . S
C224 N226 1.325 . S
C224 C227 1.357 . S
C225 H193 0.928 . S
C225 C223 1.406 . S
C225 N226 1.261 . S
N226 Co177 2.214 . S
N226 C224 1.325 . S
N226 C225 1.261 . S
C227 H197 0.931 . S
C227 C224 1.357 . S
C227 C228 1.312 . S
C228 H199 0.930 . S
C228 C223 1.261 . S
C228 C227 1.312 . S
C229 O201 1.214 . S
C229 O209 1.234 . S
C230 H202 0.929 . S
C230 C233 1.391 . S
C230 C235 1.391 . S
C231 H203 0.929 1_455 S
C231 C232 1.390 . S
C231 N234 1.391 . S
C232 H204 0.930 . S
C232 C231 1.390 . S
C232 C233 1.392 . S
C233 H205 0.929 . S
C233 C230 1.391 . S
C233 C232 1.392 . S
N234 Co178 2.257 1_556 S
N234 C231 1.391 . S
N234 C235 1.388 . S
C235 H206 0.930 . S
C235 C230 1.391 . S
C235 N234 1.388 . S
Co236 O238 2.117 1_564 S
Co236 O244 2.107 1_554 S
Co236 O247 2.059 1_565 S
Co236 O260 2.120 1_554 S
Co236 N277 2.131 1_565 S
Co236 N285 2.243 . S
Co237 O238 2.166 . S
Co237 O243 2.052 1_545 S
Co237 O253 2.066 . S
Co237 O268 2.029 1_545 S
Co237 N272 2.139 1_545 S
Co237 N293 2.263 . S
O238 Co236 2.117 1_546 S
O238 Co237 2.166 . S
C239 O240 1.278 . S
C239 O247 1.224 1_556 S
O240 C239 1.278 . S
C241 O242 1.245 . S
C241 O253 1.232 . S
O242 C241 1.245 . S
O243 Co237 2.052 1_565 S
O243 C269 1.269 . S
O244 Co236 2.107 1_556 S
O244 C269 1.257 . S
H245 C270 0.930 . S
H246 C276 0.930 . S
O247 Co236 2.059 1_545 S
O247 C239 1.224 1_554 S
H248 C280 0.929 . S
H249 C282 0.930 . S
H250 C283 0.930 . S
H251 C281 0.929 1_565 S
H252 C284 0.928 . S
O253 Co237 2.066 . S
O253 C241 1.232 . S
H254 C273 0.929 . S
H255 C274 0.929 1_545 S
H256 C286 0.931 . S
H257 C278 0.929 . S
H258 C287 0.930 . S
H259 C279 0.931 . S
O260 Co236 2.120 1_556 S
O260 C288 1.214 . S
H261 C289 0.929 . S
H262 C290 0.929 1_565 S
H263 C291 0.930 . S
H264 C292 0.929 . S
H265 C294 0.930 . S
H266 C271 0.930 . S
H267 C275 0.930 . S
O268 Co237 2.029 1_565 S
O268 C288 1.234 . S
C269 O243 1.269 . S
C269 O244 1.257 . S
C270 H245 0.930 . S
C270 C273 1.388 . S
C270 C275 1.418 . S
C271 H266 0.930 . S
C271 C274 1.404 . S
C271 C275 1.353 . S
N272 Co237 2.139 1_565 S
N272 C273 1.397 . S
N272 C274 1.334 . S
C273 H254 0.929 . S
C273 C270 1.388 . S
C273 N272 1.397 . S
C274 H255 0.929 1_565 S
C274 C271 1.404 . S
C274 N272 1.334 . S
C275 H267 0.930 . S
C275 C270 1.418 . S
C275 C271 1.353 . S
C276 H246 0.930 . S
C276 N277 1.330 . S
C276 C278 1.446 . S
N277 Co236 2.131 1_545 S
N277 C276 1.330 . S
N277 C281 1.418 . S
C278 H257 0.929 . S
C278 C276 1.446 . S
C278 C279 1.332 . S
C279 H259 0.931 . S
C279 C278 1.332 . S
C279 C280 1.267 . S
C280 H248 0.929 . S
C280 C279 1.267 . S
C280 C281 1.251 . S
C281 H251 0.929 1_545 S
C281 N277 1.418 . S
C281 C280 1.251 . S
C282 H249 0.930 . S
C282 C284 1.406 . S
C282 C287 1.261 . S
C283 H250 0.930 . S
C283 N285 1.325 . S
C283 C286 1.357 . S
C284 H252 0.928 . S
C284 C282 1.406 . S
C284 N285 1.261 . S
N285 Co236 2.243 . S
N285 C283 1.325 . S
N285 C284 1.261 . S
C286 H256 0.931 . S
C286 C283 1.357 . S
C286 C287 1.312 . S
C287 H258 0.930 . S
C287 C282 1.261 . S
C287 C286 1.312 . S
C288 O260 1.214 . S
C288 O268 1.234 . S
C289 H261 0.929 . S
C289 C292 1.391 . S
C289 C294 1.391 . S
C290 H262 0.929 1_545 S
C290 C291 1.390 . S
C290 N293 1.391 . S
C291 H263 0.930 . S
C291 C290 1.390 . S
C291 C292 1.392 . S
C292 H264 0.929 . S
C292 C289 1.391 . S
C292 C291 1.392 . S
N293 Co237 2.263 . S
N293 C290 1.391 . S
N293 C294 1.388 . S
C294 H265 0.930 . S
C294 C289 1.391 . S
C294 N293 1.388 . S
Co295 O297 2.117 1_456 S
Co295 O303 2.107 1_556 S
Co295 O306 2.059 1_455 S
Co295 O319 2.120 1_556 S
Co295 N336 2.131 1_455 S
Co295 N344 2.243 . S
Co296 O297 2.166 . S
Co296 O302 2.052 1_655 S
Co296 O312 2.066 . S
Co296 O327 2.029 1_655 S
Co296 N331 2.139 1_655 S
Co296 N352 2.263 . S
O297 Co295 2.117 1_654 S
O297 Co296 2.166 . S
C298 O299 1.278 . S
C298 O306 1.224 1_554 S
O299 C298 1.278 . S
C300 O301 1.245 . S
C300 O312 1.232 . S
O301 C300 1.245 . S
O302 Co296 2.052 1_455 S
O302 C328 1.269 . S
O303 Co295 2.107 1_554 S
O303 C328 1.257 . S
H304 C329 0.930 . S
H305 C335 0.930 . S
O306 Co295 2.059 1_655 S
O306 C298 1.224 1_556 S
H307 C339 0.929 . S
H308 C341 0.930 . S
H309 C342 0.930 . S
H310 C340 0.929 1_455 S
H311 C343 0.928 . S
O312 Co296 2.066 . S
O312 C300 1.232 . S
H313 C332 0.929 . S
H314 C333 0.929 1_655 S
H315 C345 0.931 . S
H316 C337 0.929 . S
H317 C346 0.930 . S
H318 C338 0.931 . S
O319 Co295 2.120 1_554 S
O319 C347 1.214 . S
H320 C348 0.929 . S
H321 C349 0.929 1_455 S
H322 C350 0.930 . S
H323 C351 0.929 . S
H324 C353 0.930 . S
H325 C330 0.930 . S
H326 C334 0.930 . S
O327 Co296 2.029 1_455 S
O327 C347 1.234 . S
C328 O302 1.269 . S
C328 O303 1.257 . S
C329 H304 0.930 . S
C329 C332 1.388 . S
C329 C334 1.418 . S
C330 H325 0.930 . S
C330 C333 1.404 . S
C330 C334 1.353 . S
N331 Co296 2.139 1_455 S
N331 C332 1.397 . S
N331 C333 1.334 . S
C332 H313 0.929 . S
C332 C329 1.388 . S
C332 N331 1.397 . S
C333 H314 0.929 1_455 S
C333 C330 1.404 . S
C333 N331 1.334 . S
C334 H326 0.930 . S
C334 C329 1.418 . S
C334 C330 1.353 . S
C335 H305 0.930 . S
C335 N336 1.330 . S
C335 C337 1.446 . S
N336 Co295 2.131 1_655 S
N336 C335 1.330 . S
N336 C340 1.418 . S
C337 H316 0.929 . S
C337 C335 1.446 . S
C337 C338 1.332 . S
C338 H318 0.931 . S
C338 C337 1.332 . S
C338 C339 1.267 . S
C339 H307 0.929 . S
C339 C338 1.267 . S
C339 C340 1.251 . S
C340 H310 0.929 1_655 S
C340 N336 1.418 . S
C340 C339 1.251 . S
C341 H308 0.930 . S
C341 C343 1.406 . S
C341 C346 1.261 . S
C342 H309 0.930 . S
C342 N344 1.325 . S
C342 C345 1.357 . S
C343 H311 0.928 . S
C343 C341 1.406 . S
C343 N344 1.261 . S
N344 Co295 2.243 . S
N344 C342 1.325 . S
N344 C343 1.261 . S
C345 H315 0.931 . S
C345 C342 1.357 . S
C345 C346 1.312 . S
C346 H317 0.930 . S
C346 C341 1.261 . S
C346 C345 1.312 . S
C347 O319 1.214 . S
C347 O327 1.234 . S
C348 H320 0.929 . S
C348 C351 1.391 . S
C348 C353 1.391 . S
C349 H321 0.929 1_655 S
C349 C350 1.390 . S
C349 N352 1.391 . S
C350 H322 0.930 . S
C350 C349 1.390 . S
C350 C351 1.392 . S
C351 H323 0.929 . S
C351 C348 1.391 . S
C351 C350 1.392 . S
N352 Co296 2.263 . S
N352 C349 1.391 . S
N352 C353 1.388 . S
C353 H324 0.930 . S
C353 C348 1.391 . S
C353 N352 1.388 . S
Co354 O356 2.143 . S
Co354 O362 2.074 . S
Co354 O365 2.093 . S
Co354 O378 2.097 . S
Co354 N395 2.151 . S
Co354 N403 2.214 . S
Co355 O356 2.160 . S
Co355 O361 2.058 . S
Co355 O371 2.057 . S
Co355 O386 2.037 . S
Co355 N390 2.145 . S
Co355 N411 2.257 . S
O356 Co354 2.143 . S
O356 Co355 2.160 . S
C357 O358 1.278 . S
C357 O365 1.224 . S
O358 C357 1.278 . S
C359 O360 1.245 . S
C359 O371 1.232 . S
O360 C359 1.245 . S
O361 Co355 2.058 . S
O361 C387 1.269 . S
O362 Co354 2.074 . S
O362 C387 1.257 . S
H363 C388 0.930 . S
H364 C394 0.930 . S
O365 Co354 2.093 . S
O365 C357 1.224 . S
H366 C398 0.929 1_556 S
H367 C400 0.930 . S
H368 C401 0.930 . S
H369 C399 0.929 . S
H370 C402 0.928 . S
O371 Co355 2.057 . S
O371 C359 1.232 . S
H372 C391 0.929 . S
H373 C392 0.929 . S
H374 C404 0.931 . S
H375 C396 0.929 . S
H376 C405 0.930 . S
H377 C397 0.931 1_556 S
O378 Co354 2.097 . S
O378 C406 1.214 . S
H379 C407 0.929 . S
H380 C408 0.929 . S
H381 C409 0.930 . S
H382 C410 0.929 . S
H383 C412 0.930 . S
H384 C389 0.930 . S
H385 C393 0.930 . S
O386 Co355 2.037 . S
O386 C406 1.234 . S
C387 O361 1.269 . S
C387 O362 1.257 . S
C388 H363 0.930 . S
C388 C391 1.388 . S
C388 C393 1.418 . S
C389 H384 0.930 . S
C389 C392 1.404 . S
C389 C393 1.353 . S
N390 Co355 2.145 . S
N390 C391 1.397 . S
N390 C392 1.334 . S
C391 H372 0.929 . S
C391 C388 1.388 . S
C391 N390 1.397 . S
C392 H373 0.929 . S
C392 C389 1.404 . S
C392 N390 1.334 . S
C393 H385 0.930 . S
C393 C388 1.418 . S
C393 C389 1.353 . S
C394 H364 0.930 . S
C394 N395 1.330 . S
C394 C396 1.446 . S
N395 Co354 2.151 . S
N395 C394 1.330 . S
N395 C399 1.418 . S
C396 H375 0.929 . S
C396 C394 1.446 . S
C396 C397 1.332 . S
C397 H377 0.931 1_554 S
C397 C396 1.332 . S
C397 C398 1.267 . S
C398 H366 0.929 1_554 S
C398 C397 1.267 . S
C398 C399 1.251 . S
C399 H369 0.929 . S
C399 N395 1.418 . S
C399 C398 1.251 . S
C400 H367 0.930 . S
C400 C402 1.406 1_556 S
C400 C405 1.261 . S
C401 H368 0.930 . S
C401 N403 1.325 . S
C401 C404 1.357 . S
C402 H370 0.928 . S
C402 C400 1.406 1_554 S
C402 N403 1.261 . S
N403 Co354 2.214 . S
N403 C401 1.325 . S
N403 C402 1.261 . S
C404 H374 0.931 . S
C404 C401 1.357 . S
C404 C405 1.312 1_554 S
C405 H376 0.930 . S
C405 C400 1.261 . S
C405 C404 1.312 1_556 S
C406 O378 1.214 . S
C406 O386 1.234 . S
C407 H379 0.929 . S
C407 C410 1.391 . S
C407 C412 1.391 . S
C408 H380 0.929 . S
C408 C409 1.390 . S
C408 N411 1.391 . S
C409 H381 0.930 . S
C409 C408 1.390 . S
C409 C410 1.392 . S
C410 H382 0.929 . S
C410 C407 1.391 . S
C410 C409 1.392 . S
N411 Co355 2.257 . S
N411 C408 1.391 . S
N411 C412 1.388 . S
C412 H383 0.930 . S
C412 C407 1.391 . S
C412 N411 1.388 . S
Co413 O415 2.143 . S
Co413 O421 2.074 . S
Co413 O424 2.093 . S
Co413 O437 2.097 . S
Co413 N454 2.151 . S
Co413 N462 2.214 . S
Co414 O415 2.160 . S
Co414 O420 2.058 . S
Co414 O430 2.057 . S
Co414 O445 2.037 . S
Co414 N449 2.145 . S
Co414 N470 2.257 . S
O415 Co413 2.143 . S
O415 Co414 2.160 . S
C416 O417 1.278 . S
C416 O424 1.224 . S
O417 C416 1.278 . S
C418 O419 1.245 . S
C418 O430 1.232 . S
O419 C418 1.245 . S
O420 Co414 2.058 . S
O420 C446 1.269 . S
O421 Co413 2.074 . S
O421 C446 1.257 . S
H422 C447 0.930 . S
H423 C453 0.930 . S
O424 Co413 2.093 . S
O424 C416 1.224 . S
H425 C457 0.929 1_554 S
H426 C459 0.930 . S
H427 C460 0.930 . S
H428 C458 0.929 . S
H429 C461 0.928 . S
O430 Co414 2.057 . S
O430 C418 1.232 . S
H431 C450 0.929 . S
H432 C451 0.929 . S
H433 C463 0.931 . S
H434 C455 0.929 . S
H435 C464 0.930 . S
H436 C456 0.931 1_554 S
O437 Co413 2.097 . S
O437 C465 1.214 . S
H438 C466 0.929 . S
H439 C467 0.929 . S
H440 C468 0.930 . S
H441 C469 0.929 . S
H442 C471 0.930 . S
H443 C448 0.930 . S
H444 C452 0.930 . S
O445 Co414 2.037 . S
O445 C465 1.234 . S
C446 O420 1.269 . S
C446 O421 1.257 . S
C447 H422 0.930 . S
C447 C450 1.388 . S
C447 C452 1.418 . S
C448 H443 0.930 . S
C448 C451 1.404 . S
C448 C452 1.353 . S
N449 Co414 2.145 . S
N449 C450 1.397 . S
N449 C451 1.334 . S
C450 H431 0.929 . S
C450 C447 1.388 . S
C450 N449 1.397 . S
C451 H432 0.929 . S
C451 C448 1.404 . S
C451 N449 1.334 . S
C452 H444 0.930 . S
C452 C447 1.418 . S
C452 C448 1.353 . S
C453 H423 0.930 . S
C453 N454 1.330 . S
C453 C455 1.446 . S
N454 Co413 2.151 . S
N454 C453 1.330 . S
N454 C458 1.418 . S
C455 H434 0.929 . S
C455 C453 1.446 . S
C455 C456 1.332 . S
C456 H436 0.931 1_556 S
C456 C455 1.332 . S
C456 C457 1.267 . S
C457 H425 0.929 1_556 S
C457 C456 1.267 . S
C457 C458 1.251 . S
C458 H428 0.929 . S
C458 N454 1.418 . S
C458 C457 1.251 . S
C459 H426 0.930 . S
C459 C461 1.406 1_554 S
C459 C464 1.261 . S
C460 H427 0.930 . S
C460 N462 1.325 . S
C460 C463 1.357 . S
C461 H429 0.928 . S
C461 C459 1.406 1_556 S
C461 N462 1.261 . S
N462 Co413 2.214 . S
N462 C460 1.325 . S
N462 C461 1.261 . S
C463 H433 0.931 . S
C463 C460 1.357 . S
C463 C464 1.312 1_556 S
C464 H435 0.930 . S
C464 C459 1.261 . S
C464 C463 1.312 1_554 S
C465 O437 1.214 . S
C465 O445 1.234 . S
C466 H438 0.929 . S
C466 C469 1.391 . S
C466 C471 1.391 . S
C467 H439 0.929 . S
C467 C468 1.390 . S
C467 N470 1.391 . S
C468 H440 0.930 . S
C468 C467 1.390 . S
C468 C469 1.392 . S
C469 H441 0.929 . S
C469 C466 1.391 . S
C469 C468 1.392 . S
N470 Co414 2.257 . S
N470 C467 1.391 . S
N470 C471 1.388 . S
C471 H442 0.930 . S
C471 C466 1.391 . S
C471 N470 1.388 . S
H472 C480 0.929 . S
H473 C482 0.930 . S
H474 C484 0.930 . S
H475 C487 0.929 . S
H476 C490 0.930 . S
H477 C492 0.960 . S
H478 C492 0.960 . S
H479 C492 0.960 . S
C480 H472 0.929 . S
C480 C481 1.377 . S
C480 C482 1.384 . S
C481 C480 1.377 . S
C481 C487 1.390 . S
C482 H473 0.930 . S
C482 C480 1.384 . S
C482 C483 1.372 . S
C483 C482 1.372 . S
C483 C484 1.400 . S
C483 C488 1.490 . S
C484 H474 0.930 . S
C484 C483 1.400 . S
C484 C487 1.386 . S
H485 C501 0.930 . S
H486 C502 0.931 . S
C487 H475 0.929 . S
C487 C481 1.390 . S
C487 C484 1.386 . S
C488 C483 1.490 . S
C488 C490 1.395 . S
C488 C491 1.403 1_556 S
H489 C495 0.930 . S
C490 H476 0.930 . S
C490 C488 1.395 . S
C490 C493 1.403 . S
C491 C488 1.403 1_554 S
C491 C492 1.524 . S
C491 C495 1.400 . S
C492 H477 0.960 . S
C492 H478 0.960 . S
C492 H479 0.960 . S
C492 C491 1.524 . S
C493 C490 1.403 . S
C493 C494 1.392 1_556 S
C493 C497 1.495 . S
C494 C493 1.392 1_554 S
C494 C495 1.385 . S
C494 C496 1.478 . S
C495 H489 0.930 . S
C495 C491 1.400 . S
C495 C494 1.385 . S
C496 C494 1.478 . S
C496 C498 1.381 . S
C496 C502 1.383 . S
C497 C493 1.495 . S
C497 H503 0.959 . S
C497 H504 0.961 . S
C497 H505 0.960 . S
C498 C496 1.381 . S
C498 C499 1.394 . S
C498 H506 0.930 . S
C499 C498 1.394 . S
C499 C500 1.383 . S
C499 H507 0.929 . S
C500 C499 1.383 . S
C500 C501 1.377 . S
C501 H485 0.930 . S
C501 C500 1.377 . S
C501 C502 1.379 . S
C502 H486 0.931 . S
C502 C496 1.383 . S
C502 C501 1.379 . S
H503 C497 0.959 . S
H504 C497 0.961 . S
H505 C497 0.960 . S
H506 C498 0.930 . S
H507 C499 0.929 . S
H508 C516 0.929 . S
H509 C518 0.930 . S
H510 C520 0.930 . S
H511 C523 0.929 . S
H512 C526 0.930 . S
H513 C528 0.960 . S
H514 C528 0.960 . S
H515 C528 0.960 . S
C516 H508 0.929 . S
C516 C517 1.377 . S
C516 C518 1.384 . S
C517 C516 1.377 . S
C517 C523 1.390 . S
C518 H509 0.930 . S
C518 C516 1.384 . S
C518 C519 1.372 . S
C519 C518 1.372 . S
C519 C520 1.400 . S
C519 C524 1.490 . S
C520 H510 0.930 . S
C520 C519 1.400 . S
C520 C523 1.386 . S
H521 C537 0.930 . S
H522 C538 0.931 . S
C523 H511 0.929 . S
C523 C517 1.390 . S
C523 C520 1.386 . S
C524 C519 1.490 . S
C524 C526 1.395 . S
C524 C527 1.403 . S
H525 C531 0.930 . S
C526 H512 0.930 . S
C526 C524 1.395 . S
C526 C529 1.403 . S
C527 C524 1.403 . S
C527 C528 1.524 . S
C527 C531 1.400 . S
C528 H513 0.960 . S
C528 H514 0.960 . S
C528 H515 0.960 . S
C528 C527 1.524 . S
C529 C526 1.403 . S
C529 C530 1.392 . S
C529 C533 1.495 . S
C530 C529 1.392 . S
C530 C531 1.385 . S
C530 C532 1.478 . S
C531 H525 0.930 . S
C531 C527 1.400 . S
C531 C530 1.385 . S
C532 C530 1.478 . S
C532 C534 1.381 . S
C532 C538 1.383 . S
C533 C529 1.495 . S
C533 H539 0.959 . S
C533 H540 0.961 . S
C533 H541 0.960 . S
C534 C532 1.381 . S
C534 C535 1.394 1_554 S
C534 H542 0.930 . S
C535 C534 1.394 1_556 S
C535 C536 1.383 1_556 S
C535 H543 0.929 . S
C536 C535 1.383 1_554 S
C536 C537 1.377 . S
C537 H521 0.930 . S
C537 C536 1.377 . S
C537 C538 1.379 . S
C538 H522 0.931 . S
C538 C532 1.383 . S
C538 C537 1.379 . S
H539 C533 0.959 . S
H540 C533 0.961 . S
H541 C533 0.960 . S
H542 C534 0.930 . S
H543 C535 0.929 . S
H544 C552 0.929 . S
H545 C554 0.930 . S
H546 C556 0.930 . S
H547 C559 0.929 . S
H548 C562 0.930 . S
H549 C564 0.960 . S
H550 C564 0.960 . S
H551 C564 0.960 . S
C552 H544 0.929 . S
C552 C553 1.377 . S
C552 C554 1.384 . S
C553 C552 1.377 . S
C553 C559 1.390 . S
C554 H545 0.930 . S
C554 C552 1.384 . S
C554 C555 1.372 . S
C555 C554 1.372 . S
C555 C556 1.400 . S
C555 C560 1.490 . S
C556 H546 0.930 . S
C556 C555 1.400 . S
C556 C559 1.386 . S
H557 C573 0.930 . S
H558 C574 0.931 . S
C559 H547 0.929 . S
C559 C553 1.390 . S
C559 C556 1.386 . S
C560 C555 1.490 . S
C560 C562 1.395 . S
C560 C563 1.403 . S
H561 C567 0.930 . S
C562 H548 0.930 . S
C562 C560 1.395 . S
C562 C565 1.403 . S
C563 C560 1.403 . S
C563 C564 1.524 . S
C563 C567 1.400 . S
C564 H549 0.960 . S
C564 H550 0.960 . S
C564 H551 0.960 . S
C564 C563 1.524 . S
C565 C562 1.403 . S
C565 C566 1.392 . S
C565 C569 1.495 . S
C566 C565 1.392 . S
C566 C567 1.385 . S
C566 C568 1.478 . S
C567 H561 0.930 . S
C567 C563 1.400 . S
C567 C566 1.385 . S
C568 C566 1.478 . S
C568 C570 1.381 . S
C568 C574 1.383 . S
C569 C565 1.495 . S
C569 H575 0.959 . S
C569 H576 0.961 . S
C569 H577 0.960 . S
C570 C568 1.381 . S
C570 C571 1.394 . S
C570 H578 0.930 . S
C571 C570 1.394 . S
C571 C572 1.383 . S
C571 H579 0.929 . S
C572 C571 1.383 . S
C572 C573 1.377 . S
C573 H557 0.930 . S
C573 C572 1.377 . S
C573 C574 1.379 . S
C574 H558 0.931 . S
C574 C568 1.383 . S
C574 C573 1.379 . S
H575 C569 0.959 . S
H576 C569 0.961 . S
H577 C569 0.960 . S
H578 C570 0.930 . S
H579 C571 0.929 . S
H580 C588 0.929 . S
H581 C590 0.930 . S
H582 C592 0.930 . S
H583 C595 0.929 1_554 S
H584 C598 0.930 . S
H585 C600 0.960 . S
H586 C600 0.960 . S
H587 C600 0.960 . S
C588 H580 0.929 . S
C588 C589 1.377 . S
C588 C590 1.384 . S
C589 C588 1.377 . S
C589 C595 1.390 . S
C590 H581 0.930 . S
C590 C588 1.384 . S
C590 C591 1.372 . S
C591 C590 1.372 . S
C591 C592 1.400 . S
C591 C596 1.490 . S
C592 H582 0.930 . S
C592 C591 1.400 . S
C592 C595 1.386 . S
H593 C609 0.930 . S
H594 C610 0.931 . S
C595 H583 0.929 1_556 S
C595 C589 1.390 . S
C595 C592 1.386 . S
C596 C591 1.490 . S
C596 C598 1.395 . S
C596 C599 1.403 . S
H597 C603 0.930 . S
C598 H584 0.930 . S
C598 C596 1.395 . S
C598 C601 1.403 . S
C599 C596 1.403 . S
C599 C600 1.524 . S
C599 C603 1.400 . S
C600 H585 0.960 . S
C600 H586 0.960 . S
C600 H587 0.960 . S
C600 C599 1.524 . S
C601 C598 1.403 . S
C601 C602 1.392 . S
C601 C605 1.495 . S
C602 C601 1.392 . S
C602 C603 1.385 . S
C602 C604 1.478 . S
C603 H597 0.930 . S
C603 C599 1.400 . S
C603 C602 1.385 . S
C604 C602 1.478 . S
C604 C606 1.381 . S
C604 C610 1.383 . S
C605 C601 1.495 . S
C605 H611 0.959 . S
C605 H612 0.961 . S
C605 H613 0.960 . S
C606 C604 1.381 . S
C606 C607 1.394 . S
C606 H614 0.930 . S
C607 C606 1.394 . S
C607 C608 1.383 . S
C607 H615 0.929 . S
C608 C607 1.383 . S
C608 C609 1.377 . S
C609 H593 0.930 . S
C609 C608 1.377 . S
C609 C610 1.379 . S
C610 H594 0.931 . S
C610 C604 1.383 . S
C610 C609 1.379 . S
H611 C605 0.959 . S
H612 C605 0.961 . S
H613 C605 0.960 . S
H614 C606 0.930 . S
H615 C607 0.929 . S
H616 C624 0.929 . S
H617 C626 0.930 . S
H618 C628 0.930 . S
H619 C631 0.929 . S
H620 C634 0.930 . S
H621 C636 0.960 . S
H622 C636 0.960 . S
H623 C636 0.960 . S
C624 H616 0.929 . S
C624 C625 1.377 . S
C624 C626 1.384 . S
C625 C624 1.377 . S
C625 C631 1.390 . S
C626 H617 0.930 . S
C626 C624 1.384 . S
C626 C627 1.372 . S
C627 C626 1.372 . S
C627 C628 1.400 . S
C627 C632 1.490 . S
C628 H618 0.930 . S
C628 C627 1.400 . S
C628 C631 1.386 . S
H629 C645 0.930 . S
H630 C646 0.931 . S
C631 H619 0.929 . S
C631 C625 1.390 . S
C631 C628 1.386 . S
C632 C627 1.490 . S
C632 C634 1.395 . S
C632 C635 1.403 . S
H633 C639 0.930 . S
C634 H620 0.930 . S
C634 C632 1.395 . S
C634 C637 1.403 . S
C635 C632 1.403 . S
C635 C636 1.524 . S
C635 C639 1.400 . S
C636 H621 0.960 . S
C636 H622 0.960 . S
C636 H623 0.960 . S
C636 C635 1.524 . S
C637 C634 1.403 . S
C637 C638 1.392 . S
C637 C641 1.495 . S
C638 C637 1.392 . S
C638 C639 1.385 . S
C638 C640 1.478 . S
C639 H633 0.930 . S
C639 C635 1.400 . S
C639 C638 1.385 . S
C640 C638 1.478 . S
C640 C642 1.381 . S
C640 C646 1.383 . S
C641 C637 1.495 . S
C641 H647 0.959 . S
C641 H648 0.961 . S
C641 H649 0.960 . S
C642 C640 1.381 . S
C642 C643 1.394 . S
C642 H650 0.930 . S
C643 C642 1.394 . S
C643 C644 1.383 . S
C643 H651 0.929 . S
C644 C643 1.383 . S
C644 C645 1.377 . S
C645 H629 0.930 . S
C645 C644 1.377 . S
C645 C646 1.379 . S
C646 H630 0.931 . S
C646 C640 1.383 . S
C646 C645 1.379 . S
H647 C641 0.959 . S
H648 C641 0.961 . S
H649 C641 0.960 . S
H650 C642 0.930 . S
H651 C643 0.929 . S
H652 C660 0.929 . S
H653 C662 0.930 . S
H654 C664 0.930 . S
H655 C667 0.929 . S
H656 C670 0.930 . S
H657 C672 0.960 . S
H658 C672 0.960 . S
H659 C672 0.960 . S
C660 H652 0.929 . S
C660 C661 1.377 . S
C660 C662 1.384 . S
C661 C660 1.377 . S
C661 C667 1.390 . S
C662 H653 0.930 . S
C662 C660 1.384 . S
C662 C663 1.372 . S
C663 C662 1.372 . S
C663 C664 1.400 . S
C663 C668 1.490 . S
C664 H654 0.930 . S
C664 C663 1.400 . S
C664 C667 1.386 . S
H665 C681 0.930 . S
H666 C682 0.931 . S
C667 H655 0.929 . S
C667 C661 1.390 . S
C667 C664 1.386 . S
C668 C663 1.490 . S
C668 C670 1.395 . S
C668 C671 1.403 . S
H669 C675 0.930 . S
C670 H656 0.930 . S
C670 C668 1.395 . S
C670 C673 1.403 . S
C671 C668 1.403 . S
C671 C672 1.524 . S
C671 C675 1.400 . S
C672 H657 0.960 . S
C672 H658 0.960 . S
C672 H659 0.960 . S
C672 C671 1.524 . S
C673 C670 1.403 . S
C673 C674 1.392 . S
C673 C677 1.495 . S
C674 C673 1.392 . S
C674 C675 1.385 . S
C674 C676 1.478 . S
C675 H669 0.930 . S
C675 C671 1.400 . S
C675 C674 1.385 . S
C676 C674 1.478 . S
C676 C678 1.381 . S
C676 C682 1.383 . S
C677 C673 1.495 . S
C677 H683 0.959 . S
C677 H684 0.961 . S
C677 H685 0.960 . S
C678 C676 1.381 . S
C678 C679 1.394 . S
C678 H686 0.930 . S
C679 C678 1.394 . S
C679 C680 1.383 . S
C679 H687 0.929 . S
C680 C679 1.383 . S
C680 C681 1.377 . S
C681 H665 0.930 . S
C681 C680 1.377 . S
C681 C682 1.379 . S
C682 H666 0.931 . S
C682 C676 1.383 . S
C682 C681 1.379 . S
H683 C677 0.959 . S
H684 C677 0.961 . S
H685 C677 0.960 . S
H686 C678 0.930 . S
H687 C679 0.929 . S
H688 C696 0.929 . S
H689 C698 0.930 . S
H690 C700 0.930 . S
H691 C703 0.929 . S
H692 C706 0.930 . S
H693 C708 0.960 . S
H694 C708 0.960 . S
H695 C708 0.960 . S
C696 H688 0.929 . S
C696 C697 1.377 . S
C696 C698 1.384 . S
C697 C696 1.377 . S
C697 C703 1.390 . S
C698 H689 0.930 . S
C698 C696 1.384 . S
C698 C699 1.372 . S
C699 C698 1.372 . S
C699 C700 1.400 . S
C699 C704 1.490 . S
C700 H690 0.930 . S
C700 C699 1.400 . S
C700 C703 1.386 . S
H701 C717 0.930 . S
H702 C718 0.931 . S
C703 H691 0.929 . S
C703 C697 1.390 . S
C703 C700 1.386 . S
C704 C699 1.490 . S
C704 C706 1.395 1_554 S
C704 C707 1.403 . S
H705 C711 0.930 . S
C706 H692 0.930 . S
C706 C704 1.395 1_556 S
C706 C709 1.403 . S
C707 C704 1.403 . S
C707 C708 1.524 . S
C707 C711 1.400 . S
C708 H693 0.960 . S
C708 H694 0.960 . S
C708 H695 0.960 . S
C708 C707 1.524 . S
C709 C706 1.403 . S
C709 C710 1.392 . S
C709 C713 1.495 . S
C710 C709 1.392 . S
C710 C711 1.385 1_556 S
C710 C712 1.478 . S
C711 H705 0.930 . S
C711 C707 1.400 . S
C711 C710 1.385 1_554 S
C712 C710 1.478 . S
C712 C714 1.381 . S
C712 C718 1.383 . S
C713 C709 1.495 . S
C713 H719 0.959 . S
C713 H720 0.961 . S
C713 H721 0.960 . S
C714 C712 1.381 . S
C714 C715 1.394 . S
C714 H722 0.930 . S
C715 C714 1.394 . S
C715 C716 1.383 . S
C715 H723 0.929 . S
C716 C715 1.383 . S
C716 C717 1.377 . S
C717 H701 0.930 . S
C717 C716 1.377 . S
C717 C718 1.379 . S
C718 H702 0.931 . S
C718 C712 1.383 . S
C718 C717 1.379 . S
H719 C713 0.959 . S
H720 C713 0.961 . S
H721 C713 0.960 . S
H722 C714 0.930 . S
H723 C715 0.929 . S
H724 C732 0.929 . S
H725 C734 0.930 . S
H726 C736 0.930 . S
H727 C739 0.929 1_556 S
H728 C742 0.930 . S
H729 C744 0.960 . S
H730 C744 0.960 . S
H731 C744 0.960 . S
C732 H724 0.929 . S
C732 C733 1.377 . S
C732 C734 1.384 . S
C733 C732 1.377 . S
C733 C739 1.390 . S
C734 H725 0.930 . S
C734 C732 1.384 . S
C734 C735 1.372 . S
C735 C734 1.372 . S
C735 C736 1.400 . S
C735 C740 1.490 . S
C736 H726 0.930 . S
C736 C735 1.400 . S
C736 C739 1.386 . S
H737 C753 0.930 . S
H738 C754 0.931 . S
C739 H727 0.929 1_554 S
C739 C733 1.390 . S
C739 C736 1.386 . S
C740 C735 1.490 . S
C740 C742 1.395 . S
C740 C743 1.403 . S
H741 C747 0.930 . S
C742 H728 0.930 . S
C742 C740 1.395 . S
C742 C745 1.403 . S
C743 C740 1.403 . S
C743 C744 1.524 . S
C743 C747 1.400 . S
C744 H729 0.960 . S
C744 H730 0.960 . S
C744 H731 0.960 . S
C744 C743 1.524 . S
C745 C742 1.403 . S
C745 C746 1.392 . S
C745 C749 1.495 . S
C746 C745 1.392 . S
C746 C747 1.385 . S
C746 C748 1.478 . S
C747 H741 0.930 . S
C747 C743 1.400 . S
C747 C746 1.385 . S
C748 C746 1.478 . S
C748 C750 1.381 . S
C748 C754 1.383 . S
C749 C745 1.495 . S
C749 H755 0.959 . S
C749 H756 0.961 . S
C749 H757 0.960 . S
C750 C748 1.381 . S
C750 C751 1.394 . S
C750 H758 0.930 . S
C751 C750 1.394 . S
C751 C752 1.383 . S
C751 H759 0.929 . S
C752 C751 1.383 . S
C752 C753 1.377 . S
C753 H737 0.930 . S
C753 C752 1.377 . S
C753 C754 1.379 . S
C754 H738 0.931 . S
C754 C748 1.383 . S
C754 C753 1.379 . S
H755 C749 0.959 . S
H756 C749 0.961 . S
H757 C749 0.960 . S
H758 C750 0.930 . S
H759 C751 0.929 . S
H760 C768 0.929 . S
H761 C770 0.930 . S
H762 C772 0.930 . S
H763 C775 0.929 . S
H764 C778 0.930 . S
H765 C780 0.960 . S
H766 C780 0.960 . S
H767 C780 0.960 . S
C768 H760 0.929 . S
C768 C769 1.377 . S
C768 C770 1.384 . S
C769 C768 1.377 . S
C769 C775 1.390 . S
C770 H761 0.930 . S
C770 C768 1.384 . S
C770 C771 1.372 . S
C771 C770 1.372 . S
C771 C772 1.400 . S
C771 C776 1.490 . S
C772 H762 0.930 . S
C772 C771 1.400 . S
C772 C775 1.386 . S
H773 C789 0.930 . S
H774 C790 0.931 . S
C775 H763 0.929 . S
C775 C769 1.390 . S
C775 C772 1.386 . S
C776 C771 1.490 . S
C776 C778 1.395 . S
C776 C779 1.403 . S
H777 C783 0.930 . S
C778 H764 0.930 . S
C778 C776 1.395 . S
C778 C781 1.403 . S
C779 C776 1.403 . S
C779 C780 1.524 . S
C779 C783 1.400 . S
C780 H765 0.960 . S
C780 H766 0.960 . S
C780 H767 0.960 . S
C780 C779 1.524 . S
C781 C778 1.403 . S
C781 C782 1.392 . S
C781 C785 1.495 . S
C782 C781 1.392 . S
C782 C783 1.385 . S
C782 C784 1.478 . S
C783 H777 0.930 . S
C783 C779 1.400 . S
C783 C782 1.385 . S
C784 C782 1.478 . S
C784 C786 1.381 . S
C784 C790 1.383 . S
C785 C781 1.495 . S
C785 H791 0.959 . S
C785 H792 0.961 . S
C785 H793 0.960 . S
C786 C784 1.381 . S
C786 C787 1.394 . S
C786 H794 0.930 . S
C787 C786 1.394 . S
C787 C788 1.383 . S
C787 H795 0.929 . S
C788 C787 1.383 . S
C788 C789 1.377 . S
C789 H773 0.930 . S
C789 C788 1.377 . S
C789 C790 1.379 . S
C790 H774 0.931 . S
C790 C784 1.383 . S
C790 C789 1.379 . S
H791 C785 0.959 . S
H792 C785 0.961 . S
H793 C785 0.960 . S
H794 C786 0.930 . S
H795 C787 0.929 . S
H796 C804 0.929 . S
H797 C806 0.930 . S
H798 C808 0.930 . S
H799 C811 0.929 . S
H800 C814 0.930 . S
H801 C816 0.960 . S
H802 C816 0.960 . S
H803 C816 0.960 . S
C804 H796 0.929 . S
C804 C805 1.377 . S
C804 C806 1.384 . S
C805 C804 1.377 . S
C805 C811 1.390 . S
C806 H797 0.930 . S
C806 C804 1.384 . S
C806 C807 1.372 . S
C807 C806 1.372 . S
C807 C808 1.400 . S
C807 C812 1.490 . S
C808 H798 0.930 . S
C808 C807 1.400 . S
C808 C811 1.386 . S
H809 C825 0.930 . S
H810 C826 0.931 . S
C811 H799 0.929 . S
C811 C805 1.390 . S
C811 C808 1.386 . S
C812 C807 1.490 . S
C812 C814 1.395 . S
C812 C815 1.403 . S
H813 C819 0.930 . S
C814 H800 0.930 . S
C814 C812 1.395 . S
C814 C817 1.403 . S
C815 C812 1.403 . S
C815 C816 1.524 . S
C815 C819 1.400 . S
C816 H801 0.960 . S
C816 H802 0.960 . S
C816 H803 0.960 . S
C816 C815 1.524 . S
C817 C814 1.403 . S
C817 C818 1.392 . S
C817 C821 1.495 . S
C818 C817 1.392 . S
C818 C819 1.385 . S
C818 C820 1.478 . S
C819 H813 0.930 . S
C819 C815 1.400 . S
C819 C818 1.385 . S
C820 C818 1.478 . S
C820 C822 1.381 . S
C820 C826 1.383 . S
C821 C817 1.495 . S
C821 H827 0.959 . S
C821 H828 0.961 . S
C821 H829 0.960 . S
C822 C820 1.381 . S
C822 C823 1.394 . S
C822 H830 0.930 . S
C823 C822 1.394 . S
C823 C824 1.383 . S
C823 H831 0.929 . S
C824 C823 1.383 . S
C824 C825 1.377 . S
C825 H809 0.930 . S
C825 C824 1.377 . S
C825 C826 1.379 . S
C826 H810 0.931 . S
C826 C820 1.383 . S
C826 C825 1.379 . S
H827 C821 0.959 . S
H828 C821 0.961 . S
H829 C821 0.960 . S
H830 C822 0.930 . S
H831 C823 0.929 . S
H832 C840 0.929 . S
H833 C842 0.930 . S
H834 C844 0.930 . S
H835 C847 0.929 1_556 S
H836 C850 0.930 . S
H837 C852 0.960 . S
H838 C852 0.960 . S
H839 C852 0.960 . S
C840 H832 0.929 . S
C840 C841 1.377 . S
C840 C842 1.384 . S
C841 C840 1.377 . S
C841 C847 1.390 . S
C842 H833 0.930 . S
C842 C840 1.384 . S
C842 C843 1.372 . S
C843 C842 1.372 . S
C843 C844 1.400 1_554 S
C843 C848 1.490 . S
C844 H834 0.930 . S
C844 C843 1.400 1_556 S
C844 C847 1.386 1_556 S
H845 C861 0.930 . S
H846 C862 0.931 . S
C847 H835 0.929 1_554 S
C847 C841 1.390 . S
C847 C844 1.386 1_554 S
C848 C843 1.490 . S
C848 C850 1.395 1_554 S
C848 C851 1.403 . S
H849 C855 0.930 . S
C850 H836 0.930 . S
C850 C848 1.395 1_556 S
C850 C853 1.403 . S
C851 C848 1.403 . S
C851 C852 1.524 . S
C851 C855 1.400 . S
C852 H837 0.960 . S
C852 H838 0.960 . S
C852 H839 0.960 . S
C852 C851 1.524 . S
C853 C850 1.403 . S
C853 C854 1.392 . S
C853 C857 1.495 . S
C854 C853 1.392 . S
C854 C855 1.385 1_556 S
C854 C856 1.478 . S
C855 H849 0.930 . S
C855 C851 1.400 . S
C855 C854 1.385 1_554 S
C856 C854 1.478 . S
C856 C858 1.381 1_556 S
C856 C862 1.383 . S
C857 C853 1.495 . S
C857 H863 0.959 . S
C857 H864 0.961 . S
C857 H865 0.960 . S
C858 C856 1.381 1_554 S
C858 C859 1.392 1_554 S
C858 H866 0.930 . S
C859 C858 1.392 1_556 S
C859 C860 1.393 . S
C859 H867 0.922 1_556 S
C860 C859 1.393 . S
C860 C861 1.377 . S
C861 H845 0.930 . S
C861 C860 1.377 . S
C861 C862 1.379 . S
C862 H846 0.931 . S
C862 C856 1.383 . S
C862 C861 1.379 . S
H863 C857 0.959 . S
H864 C857 0.961 . S
H865 C857 0.960 . S
H866 C858 0.930 . S
H867 C859 0.922 1_554 S
H868 C876 0.929 . S
H869 C878 0.930 . S
H870 C880 0.930 . S
H871 C883 0.929 . S
H872 C886 0.930 . S
H873 C888 0.960 . S
H874 C888 0.960 . S
H875 C888 0.960 . S
C876 H868 0.929 . S
C876 C877 1.377 . S
C876 C878 1.384 . S
C877 C876 1.377 . S
C877 C883 1.390 . S
C878 H869 0.930 . S
C878 C876 1.384 . S
C878 C879 1.372 . S
C879 C878 1.372 . S
C879 C880 1.400 . S
C879 C884 1.490 . S
C880 H870 0.930 . S
C880 C879 1.400 . S
C880 C883 1.386 . S
H881 C897 0.930 . S
H882 C898 0.931 . S
C883 H871 0.929 . S
C883 C877 1.390 . S
C883 C880 1.386 . S
C884 C879 1.490 . S
C884 C886 1.395 . S
C884 C887 1.403 . S
H885 C891 0.930 . S
C886 H872 0.930 . S
C886 C884 1.395 . S
C886 C889 1.403 . S
C887 C884 1.403 . S
C887 C888 1.524 . S
C887 C891 1.400 . S
C888 H873 0.960 . S
C888 H874 0.960 . S
C888 H875 0.960 . S
C888 C887 1.524 . S
C889 C886 1.403 . S
C889 C890 1.392 . S
C889 C893 1.495 . S
C890 C889 1.392 . S
C890 C891 1.385 . S
C890 C892 1.478 . S
C891 H885 0.930 . S
C891 C887 1.400 . S
C891 C890 1.385 . S
C892 C890 1.478 . S
C892 C894 1.381 . S
C892 C898 1.383 . S
C893 C889 1.495 . S
C893 H899 0.959 . S
C893 H900 0.961 . S
C893 H901 0.960 . S
C894 C892 1.381 . S
C894 C895 1.394 . S
C894 H902 0.930 . S
C895 C894 1.394 . S
C895 C896 1.383 . S
C895 H903 0.929 . S
C896 C895 1.383 . S
C896 C897 1.377 . S
C897 H881 0.930 . S
C897 C896 1.377 . S
C897 C898 1.379 . S
C898 H882 0.931 . S
C898 C892 1.383 . S
C898 C897 1.379 . S
H899 C893 0.959 . S
H900 C893 0.961 . S
H901 C893 0.960 . S
H902 C894 0.930 . S
H903 C895 0.929 . S
H904 C912 0.929 . S
H905 C914 0.930 . S
H906 C916 0.930 . S
H907 C919 0.929 . S
H908 C922 0.930 . S
H909 C924 0.960 . S
H910 C924 0.960 . S
H911 C924 0.960 . S
C912 H904 0.929 . S
C912 C913 1.377 . S
C912 C914 1.384 . S
C913 C912 1.377 . S
C913 C919 1.390 . S
C914 H905 0.930 . S
C914 C912 1.384 . S
C914 C915 1.372 . S
C915 C914 1.372 . S
C915 C916 1.400 . S
C915 C920 1.490 . S
C916 H906 0.930 . S
C916 C915 1.400 . S
C916 C919 1.386 . S
H917 C933 0.930 . S
H918 C934 0.931 . S
C919 H907 0.929 . S
C919 C913 1.390 . S
C919 C916 1.386 . S
C920 C915 1.490 . S
C920 C922 1.395 . S
C920 C923 1.403 . S
H921 C927 0.930 . S
C922 H908 0.930 . S
C922 C920 1.395 . S
C922 C925 1.403 . S
C923 C920 1.403 . S
C923 C924 1.524 . S
C923 C927 1.400 . S
C924 H909 0.960 . S
C924 H910 0.960 . S
C924 H911 0.960 . S
C924 C923 1.524 . S
C925 C922 1.403 . S
C925 C926 1.392 . S
C925 C929 1.495 . S
C926 C925 1.392 . S
C926 C927 1.385 . S
C926 C928 1.478 . S
C927 H921 0.930 . S
C927 C923 1.400 . S
C927 C926 1.385 . S
C928 C926 1.478 . S
C928 C930 1.381 . S
C928 C934 1.383 . S
C929 C925 1.495 . S
C929 H935 0.959 . S
C929 H936 0.961 . S
C929 H937 0.960 . S
C930 C928 1.381 . S
C930 C931 1.394 . S
C930 H938 0.930 . S
C931 C930 1.394 . S
C931 C932 1.383 . S
C931 H939 0.929 . S
C932 C931 1.383 . S
C932 C933 1.377 . S
C933 H917 0.930 . S
C933 C932 1.377 . S
C933 C934 1.379 . S
C934 H918 0.931 . S
C934 C928 1.383 . S
C934 C933 1.379 . S
H935 C929 0.959 . S
H936 C929 0.961 . S
H937 C929 0.960 . S
H938 C930 0.930 . S
H939 C931 0.929 . S
H940 C948 0.929 . S
H941 C950 0.930 . S
H942 C952 0.930 . S
H943 C955 0.929 . S
H944 C958 0.930 . S
H945 C960 0.960 . S
H946 C960 0.960 1_556 S
H947 C960 0.960 . S
C948 H940 0.929 . S
C948 C949 1.377 . S
C948 C950 1.384 . S
C949 C948 1.377 . S
C949 C955 1.390 1_556 S
C950 H941 0.930 . S
C950 C948 1.384 . S
C950 C951 1.372 . S
C951 C950 1.372 . S
C951 C952 1.400 1_556 S
C951 C956 1.490 . S
C952 H942 0.930 . S
C952 C951 1.400 1_554 S
C952 C955 1.386 . S
H953 C969 0.930 . S
H954 C970 0.931 . S
C955 H943 0.929 . S
C955 C949 1.390 1_554 S
C955 C952 1.386 . S
C956 C951 1.490 . S
C956 C958 1.395 . S
C956 C959 1.403 1_556 S
H957 C963 0.930 . S
C958 H944 0.930 . S
C958 C956 1.395 . S
C958 C961 1.403 . S
C959 C956 1.403 1_554 S
C959 C960 1.524 . S
C959 C963 1.400 . S
C960 H945 0.960 . S
C960 H946 0.960 1_554 S
C960 H947 0.960 . S
C960 C959 1.524 . S
C961 C958 1.403 . S
C961 C962 1.392 1_556 S
C961 C965 1.495 . S
C962 C961 1.392 1_554 S
C962 C963 1.385 . S
C962 C964 1.478 . S
C963 H957 0.930 . S
C963 C959 1.400 . S
C963 C962 1.385 . S
C964 C962 1.478 . S
C964 C966 1.381 1_554 S
C964 C970 1.383 . S
C965 C961 1.495 . S
C965 H971 0.959 . S
C965 H972 0.961 1_556 S
C965 H973 0.960 . S
C966 C964 1.381 1_556 S
C966 C967 1.394 . S
C966 H974 0.930 . S
C967 C966 1.394 . S
C967 C968 1.383 1_556 S
C967 H975 0.929 . S
C968 C967 1.383 1_554 S
C968 C969 1.377 . S
C969 H953 0.930 . S
C969 C968 1.377 . S
C969 C970 1.379 . S
C970 H954 0.931 . S
C970 C964 1.383 . S
C970 C969 1.379 . S
H971 C965 0.959 . S
H972 C965 0.961 1_554 S
H973 C965 0.960 . S
H974 C966 0.930 . S
H975 C967 0.929 . S
H976 C984 0.929 . S
H977 C986 0.930 . S
H978 C988 0.930 . S
H979 C991 0.929 . S
H980 C994 0.930 . S
H981 C996 0.960 . S
H982 C996 0.960 . S
H983 C996 0.960 . S
C984 H976 0.929 . S
C984 C985 1.377 . S
C984 C986 1.384 . S
C985 C984 1.377 . S
C985 C991 1.390 . S
C986 H977 0.930 . S
C986 C984 1.384 . S
C986 C987 1.372 . S
C987 C986 1.372 . S
C987 C988 1.400 . S
C987 C992 1.490 . S
C988 H978 0.930 . S
C988 C987 1.400 . S
C988 C991 1.386 . S
H989 C1005 0.930 . S
H990 C1006 0.931 . S
C991 H979 0.929 . S
C991 C985 1.390 . S
C991 C988 1.386 . S
C992 C987 1.490 . S
C992 C994 1.395 . S
C992 C995 1.403 . S
H993 C999 0.930 . S
C994 H980 0.930 . S
C994 C992 1.395 . S
C994 C997 1.403 . S
C995 C992 1.403 . S
C995 C996 1.524 . S
C995 C999 1.400 . S
C996 H981 0.960 . S
C996 H982 0.960 . S
C996 H983 0.960 . S
C996 C995 1.524 . S
C997 C994 1.403 . S
C997 C998 1.392 . S
C997 C1001 1.495 . S
C998 C997 1.392 . S
C998 C999 1.385 . S
C998 C1000 1.478 . S
C999 H993 0.930 . S
C999 C995 1.400 . S
C999 C998 1.385 . S
C1000 C998 1.478 . S
C1000 C1002 1.381 . S
C1000 C1006 1.383 . S
C1001 C997 1.495 . S
C1001 H1007 0.959 . S
C1001 H1008 0.961 . S
C1001 H1009 0.960 . S
C1002 C1000 1.381 . S
C1002 C1003 1.394 . S
C1002 H1010 0.930 . S
C1003 C1002 1.394 . S
C1003 C1004 1.383 . S
C1003 H1011 0.929 . S
C1004 C1003 1.383 . S
C1004 C1005 1.377 . S
C1005 H989 0.930 . S
C1005 C1004 1.377 . S
C1005 C1006 1.379 . S
C1006 H990 0.931 . S
C1006 C1000 1.383 . S
C1006 C1005 1.379 . S
H1007 C1001 0.959 . S
H1008 C1001 0.961 . S
H1009 C1001 0.960 . S
H1010 C1002 0.930 . S
H1011 C1003 0.929 . S
H1012 C1020 0.929 . S
H1013 C1022 0.930 . S
H1014 C1024 0.930 . S
H1015 C1027 0.929 . S
H1016 C1030 0.930 . S
H1017 C1032 0.960 . S
H1018 C1032 0.960 . S
H1019 C1032 0.960 . S
C1020 H1012 0.929 . S
C1020 C1021 1.377 . S
C1020 C1022 1.384 . S
C1021 C1020 1.377 . S
C1021 C1027 1.390 . S
C1022 H1013 0.930 . S
C1022 C1020 1.384 . S
C1022 C1023 1.372 . S
C1023 C1022 1.372 . S
C1023 C1024 1.400 . S
C1023 C1028 1.490 . S
C1024 H1014 0.930 . S
C1024 C1023 1.400 . S
C1024 C1027 1.386 . S
H1025 C1041 0.930 . S
H1026 C1042 0.931 . S
C1027 H1015 0.929 . S
C1027 C1021 1.390 . S
C1027 C1024 1.386 . S
C1028 C1023 1.490 . S
C1028 C1030 1.395 . S
C1028 C1031 1.403 . S
H1029 C1035 0.930 . S
C1030 H1016 0.930 . S
C1030 C1028 1.395 . S
C1030 C1033 1.403 . S
C1031 C1028 1.403 . S
C1031 C1032 1.524 . S
C1031 C1035 1.400 . S
C1032 H1017 0.960 . S
C1032 H1018 0.960 . S
C1032 H1019 0.960 . S
C1032 C1031 1.524 . S
C1033 C1030 1.403 . S
C1033 C1034 1.392 . S
C1033 C1037 1.495 . S
C1034 C1033 1.392 . S
C1034 C1035 1.385 . S
C1034 C1036 1.478 . S
C1035 H1029 0.930 . S
C1035 C1031 1.400 . S
C1035 C1034 1.385 . S
C1036 C1034 1.478 . S
C1036 C1038 1.381 . S
C1036 C1042 1.383 . S
C1037 C1033 1.495 . S
C1037 H1043 0.959 . S
C1037 H1044 0.961 . S
C1037 H1045 0.960 . S
C1038 C1036 1.381 . S
C1038 C1039 1.394 . S
C1038 H1046 0.930 . S
C1039 C1038 1.394 . S
C1039 C1040 1.383 . S
C1039 H1047 0.929 . S
C1040 C1039 1.383 . S
C1040 C1041 1.377 . S
C1041 H1025 0.930 . S
C1041 C1040 1.377 . S
C1041 C1042 1.379 . S
C1042 H1026 0.931 . S
C1042 C1036 1.383 . S
C1042 C1041 1.379 . S
H1043 C1037 0.959 . S
H1044 C1037 0.961 . S
H1045 C1037 0.960 . S
H1046 C1038 0.930 . S
H1047 C1039 0.929 . S
C481 C64 1.507 . S
C500 C5 1.507 . S
C517 C62 1.496 . S
C536 C123 1.509 1_554 S
C553 C180 1.499 . S
C572 C121 1.509 . S
C589 C182 1.509 1_556 S
C608 C3 1.507 . S
C625 C241 1.507 . S
C644 C300 1.506 . S
C661 C298 1.500 1_556 S
C680 C359 1.510 . S
C697 C357 1.499 . S
C716 C416 1.495 . S
C733 C239 1.497 1_554 S
C752 C418 1.510 . S
C769 C33 1.516 . S
C788 C465 1.516 . S
C805 C288 1.509 . S
C824 C111 1.511 . S
C841 C328 1.515 . S
C860 C170 1.506 . S
C877 C210 1.520 . S
C896 C387 1.517 . S
C913 C151 1.520 . S
C932 C446 1.515 . S
C949 C269 1.515 . S
C968 C229 1.505 . S
C985 C347 1.510 . S
C1004 C52 1.501 . S
C1021 C92 1.516 . S
C1040 C406 1.507 . S
