# Generated by pormake.
# Topology uon, (4)-cn, num edge types: 1
# Building blocks:
#     Node 0, Type 0, BuildingBlock: ICAMEG_clean_sbu_1, # of connection points: 4
#     Node 1, Type 0, BuildingBlock: ICAMEG_clean_sbu_1, # of connection points: 4
#     Node 2, Type 0, BuildingBlock: ICAMEG_clean_sbu_1, # of connection points: 4
#     Node 3, Type 0, BuildingBlock: ICAMEG_clean_sbu_1, # of connection points: 4
#     Node 4, Type 0, BuildingBlock: ICAMEG_clean_sbu_1, # of connection points: 4
#     Node 5, Type 0, BuildingBlock: ICAMEG_clean_sbu_1, # of connection points: 4
#     Edge 6, Type (0, 0), BuildingBlock: UVAHIK_clean_linker_0, # of connection points: 2
#     Edge 7, Type (0, 0), BuildingBlock: UVAHIK_clean_linker_0, # of connection points: 2
#     Edge 8, Type (0, 0), BuildingBlock: UVAHIK_clean_linker_0, # of connection points: 2
#     Edge 9, Type (0, 0), BuildingBlock: UVAHIK_clean_linker_0, # of connection points: 2
#     Edge 10, Type (0, 0), BuildingBlock: UVAHIK_clean_linker_0, # of connection points: 2
#     Edge 11, Type (0, 0), BuildingBlock: UVAHIK_clean_linker_0, # of connection points: 2
#     Edge 12, Type (0, 0), BuildingBlock: UVAHIK_clean_linker_0, # of connection points: 2
#     Edge 13, Type (0, 0), BuildingBlock: UVAHIK_clean_linker_0, # of connection points: 2
#     Edge 14, Type (0, 0), BuildingBlock: UVAHIK_clean_linker_0, # of connection points: 2
#     Edge 15, Type (0, 0), BuildingBlock: UVAHIK_clean_linker_0, # of connection points: 2
#     Edge 16, Type (0, 0), BuildingBlock: UVAHIK_clean_linker_0, # of connection points: 2
#     Edge 17, Type (0, 0), BuildingBlock: UVAHIK_clean_linker_0, # of connection points: 2
# Relax obj value: 0.158
# Max RMSD: 0.296
# Mean RMSD: 0.272
data_MOF--net-uon--node1-ICAMEG_clean_sbu_1--edge1-UVAHIK_clean_linker_0
_symmetry_space_group_name_H-M    P1
_symmetry_Int_Tables_number       1
_symmetry_cell_setting            triclinic
loop_
_symmetry_equiv_pos_as_xyz
'x, y, z'
_cell_length_a     46.842252
_cell_length_b     46.827062
_cell_length_c     21.793213
_cell_angle_alpha  89.544143
_cell_angle_beta   90.452524
_cell_angle_gamma 120.02439
loop_
_atom_site_label
_atom_site_type_symbol
_atom_site_fract_x
_atom_site_fract_y
_atom_site_fract_z
_atom_type_partial_charge
Co0 Co 0.18289 0.41933 0.98092 0.0
Co1 Co 0.23871 0.43198 0.09777 0.0
O2 O 0.22084 0.41784 0.01503 0.0
C3 C 0.23706 0.44814 0.88697 0.0
O4 O 0.25347 0.43659 0.91695 0.0
C5 C 0.22376 0.3633 0.08592 0.0
O6 O 0.19463 0.35646 0.06524 0.0
O7 O 0.19407 0.40648 0.13376 0.0
O8 O 0.15797 0.40095 0.0595 0.0
H9 H 0.24276 0.47533 0.30968 0.0
H10 H 0.20992 0.38135 0.91485 0.0
O11 O 0.20772 0.44016 0.90253 0.0
H12 H 0.09274 0.3019 0.95118 0.0
H13 H 0.10236 0.40749 0.81502 0.0
H14 H 0.13693 0.43975 0.02963 0.0
H15 H 0.11683 0.35944 0.98506 0.0
H16 H 0.14947 0.40436 0.859 0.0
O17 O 0.2441 0.39226 0.10477 0.0
H18 H 0.22101 0.45867 0.20458 0.0
H19 H 0.29405 0.43279 0.16765 0.0
H20 H 0.08952 0.443 0.98777 0.0
H21 H 0.18689 0.32443 0.87992 0.0
H22 H 0.07195 0.42677 0.87972 0.0
H23 H 0.1278 0.28401 0.89798 0.0
O24 O 0.20068 0.46482 0.01076 0.0
H25 H 0.33391 0.4481 0.96734 0.0
H26 H 0.29382 0.50142 0.10979 0.0
H27 H 0.34923 0.53392 0.06505 0.0
H28 H 0.36967 0.50727 0.9933 0.0
H29 H 0.27842 0.41664 0.01214 0.0
H30 H 0.31648 0.44894 0.27248 0.0
H31 H 0.29085 0.47049 0.3442 0.0
O32 O 0.23376 0.47204 0.09139 0.0
C33 C 0.16489 0.39699 0.11467 0.0
C34 C 0.25422 0.46609 0.27878 0.0
C35 C 0.29557 0.45124 0.25792 0.0
N36 N 0.25646 0.4451 0.17991 0.0
C37 C 0.24208 0.45673 0.21918 0.0
C38 C 0.28275 0.4421 0.19867 0.0
C39 C 0.28118 0.46334 0.29814 0.0
C40 C 0.18422 0.36453 0.92201 0.0
N41 N 0.16481 0.37438 0.95085 0.0
C42 C 0.17126 0.332 0.90247 0.0
C43 C 0.13815 0.3093 0.91277 0.0
C44 C 0.11849 0.31933 0.94261 0.0
C45 C 0.13233 0.35204 0.96163 0.0
C46 C 0.10971 0.41452 0.86222 0.0
C47 C 0.12923 0.43239 0.98274 0.0
C48 C 0.13637 0.41285 0.8873 0.0
N49 N 0.14561 0.42147 0.94701 0.0
C50 C 0.10246 0.4344 0.95922 0.0
C51 C 0.09265 0.42533 0.89856 0.0
C52 C 0.21962 0.48221 0.05404 0.0
C53 C 0.32528 0.46001 0.99849 0.0
C54 C 0.30229 0.48968 0.07802 0.0
C55 C 0.33382 0.50819 0.05314 0.0
C56 C 0.3453 0.49322 0.01299 0.0
N57 N 0.28265 0.45717 0.06317 0.0
C58 C 0.29389 0.44226 0.02429 0.0
Co59 Co 0.81208 0.25854 0.60348 0.0
Co60 Co 0.88031 0.27404 0.69028 0.0
O61 O 0.85858 0.28401 0.62388 0.0
C62 C 0.82253 0.32439 0.6319 0.0
O63 O 0.83783 0.32317 0.68167 0.0
C64 C 0.91178 0.27052 0.5771 0.0
O65 O 0.88172 0.24992 0.55825 0.0
O66 O 0.85692 0.22625 0.66987 0.0
O67 O 0.81208 0.21612 0.6146 0.0
H68 H 0.88781 0.21162 0.87255 0.0
H69 H 0.85781 0.31181 0.51975 0.0
O70 O 0.81111 0.30071 0.59355 0.0
H71 H 0.80903 0.21013 0.39653 0.0
H72 H 0.71021 0.23554 0.4848 0.0
H73 H 0.75466 0.19808 0.65324 0.0
H74 H 0.79244 0.20865 0.50421 0.0
H75 H 0.76952 0.26638 0.51051 0.0
O76 O 0.91659 0.28252 0.6311 0.0
H77 H 0.85926 0.22403 0.78999 0.0
H78 H 0.95046 0.30405 0.72921 0.0
H79 H 0.69526 0.16639 0.62886 0.0
H80 H 0.875 0.31447 0.41214 0.0
H81 H 0.67268 0.18509 0.54407 0.0
H82 H 0.85062 0.26334 0.34986 0.0
O83 O 0.79992 0.25653 0.69074 0.0
H84 H 0.9447 0.39576 0.64579 0.0
H85 H 0.89139 0.31094 0.80685 0.0
H86 H 0.91866 0.3698 0.83471 0.0
H87 H 0.94561 0.41266 0.75387 0.0
H88 H 0.91694 0.33665 0.61988 0.0
H89 H 0.98005 0.2924 0.81092 0.0
H90 H 0.94864 0.24595 0.88341 0.0
O91 O 0.8437 0.26506 0.74877 0.0
C92 C 0.83014 0.20667 0.64199 0.0
C93 C 0.90175 0.232 0.84139 0.0
C94 C 0.95353 0.2773 0.80673 0.0
N95 N 0.90317 0.26489 0.75518 0.0
C96 C 0.88572 0.2392 0.79467 0.0
C97 C 0.93667 0.28374 0.76051 0.0
C98 C 0.93589 0.25124 0.84741 0.0
C99 C 0.84686 0.28953 0.49271 0.0
N100 N 0.82401 0.26015 0.51804 0.0
C101 C 0.85678 0.29116 0.43191 0.0
C102 C 0.84312 0.26245 0.39701 0.0
C103 C 0.8198 0.23258 0.42318 0.0
C104 C 0.81052 0.23188 0.48417 0.0
C105 C 0.71977 0.22709 0.52172 0.0
C106 C 0.74506 0.20623 0.61598 0.0
C107 C 0.75331 0.24447 0.53652 0.0
N108 N 0.76556 0.23383 0.58289 0.0
C109 C 0.71139 0.18825 0.60252 0.0
C110 C 0.69873 0.19878 0.55499 0.0
C111 C 0.81395 0.25873 0.74222 0.0
C112 C 0.93314 0.37731 0.68146 0.0
C113 C 0.90302 0.32946 0.77141 0.0
C114 C 0.91847 0.36274 0.78747 0.0
C115 C 0.9336 0.38678 0.74209 0.0
N116 N 0.90276 0.32038 0.71188 0.0
C117 C 0.91749 0.3438 0.66711 0.0
Co118 Co 0.58089 0.76838 0.64776 0.0
Co119 Co 0.57337 0.81138 0.76979 0.0
O120 O 0.58464 0.80793 0.68517 0.0
C121 C 0.54758 0.79424 0.56367 0.0
O122 O 0.55857 0.8206 0.59769 0.0
C123 C 0.64324 0.86171 0.75396 0.0
O124 O 0.64699 0.83855 0.7283 0.0
O125 O 0.59672 0.78853 0.80034 0.0
O126 O 0.603 0.76151 0.72119 0.0
H127 H 0.5327 0.76942 0.98251 0.0
H128 H 0.61453 0.83313 0.57921 0.0
O129 O 0.55642 0.77287 0.57441 0.0
H130 H 0.69641 0.7968 0.59437 0.0
H131 H 0.58395 0.70029 0.4731 0.0
H132 H 0.56299 0.70177 0.69413 0.0
H133 H 0.64093 0.76273 0.63785 0.0
H134 H 0.58946 0.75037 0.52124 0.0
O135 O 0.61545 0.85478 0.77651 0.0
H136 H 0.5459 0.76503 0.87482 0.0
H137 H 0.57912 0.86668 0.84578 0.0
H138 H 0.55748 0.65127 0.64808 0.0
H139 H 0.6694 0.8677 0.53493 0.0
H140 H 0.568 0.65034 0.53677 0.0
H141 H 0.71098 0.84972 0.54232 0.0
O142 O 0.53728 0.74038 0.68561 0.0
H143 H 0.56285 0.89849 0.65163 0.0
H144 H 0.50646 0.80242 0.78979 0.0
H145 H 0.47687 0.83039 0.7528 0.0
H146 H 0.50511 0.87887 0.6833 0.0
H147 H 0.59126 0.86932 0.68846 0.0
H148 H 0.5665 0.87225 0.95324 0.0
H149 H 0.54301 0.82335 0.02233 0.0
O150 O 0.53116 0.76805 0.76344 0.0
C151 C 0.60678 0.77015 0.77754 0.0
C152 C 0.54281 0.79088 0.95279 0.0
C153 C 0.56182 0.84861 0.93638 0.0
N154 N 0.56296 0.81549 0.85398 0.0
C155 C 0.55023 0.78851 0.89175 0.0
C156 C 0.56896 0.84531 0.87562 0.0
C157 C 0.54863 0.82115 0.97512 0.0
C158 C 0.63194 0.82462 0.58189 0.0
N159 N 0.62395 0.79543 0.61017 0.0
C160 C 0.66325 0.84454 0.557 0.0
C161 C 0.68661 0.83449 0.5613 0.0
C162 C 0.67844 0.80483 0.59049 0.0
C163 C 0.64692 0.78561 0.61498 0.0
C164 C 0.5794 0.70042 0.52168 0.0
C165 C 0.56789 0.70162 0.64579 0.0
C166 C 0.58242 0.72867 0.54914 0.0
N167 N 0.57692 0.72906 0.61054 0.0
C168 C 0.5646 0.67292 0.61991 0.0
C169 C 0.57046 0.67241 0.55744 0.0
C170 C 0.5206 0.74276 0.72904 0.0
C171 C 0.55026 0.87736 0.68183 0.0
C172 C 0.51877 0.82314 0.75877 0.0
C173 C 0.50196 0.83906 0.73837 0.0
C174 C 0.51785 0.86631 0.69952 0.0
N175 N 0.55047 0.83392 0.74078 0.0
C176 C 0.5663 0.86084 0.70319 0.0
Co177 Co 0.74154 0.54584 0.27255 0.0
Co178 Co 0.72131 0.59702 0.35127 0.0
O179 O 0.71416 0.56544 0.28679 0.0
C180 C 0.67553 0.48933 0.29724 0.0
O181 O 0.67343 0.50701 0.34152 0.0
C182 C 0.72651 0.63136 0.23498 0.0
O183 O 0.7477 0.62226 0.21898 0.0
O184 O 0.76961 0.62268 0.33544 0.0
O185 O 0.78255 0.58938 0.28362 0.0
H186 H 0.77716 0.66786 0.53512 0.0
H187 H 0.68919 0.53499 0.18303 0.0
O188 O 0.70095 0.50148 0.26299 0.0
H189 H 0.79306 0.59026 0.06639 0.0
H190 H 0.77146 0.46908 0.16763 0.0
H191 H 0.80212 0.55234 0.33002 0.0
H192 H 0.79313 0.5768 0.17606 0.0
H193 H 0.73804 0.49555 0.18519 0.0
O194 O 0.71362 0.62417 0.28831 0.0
H195 H 0.7682 0.62714 0.4552 0.0
H196 H 0.68848 0.63551 0.38149 0.0
H197 H 0.83636 0.52669 0.31376 0.0
H198 H 0.68793 0.54781 0.07332 0.0
H199 H 0.82107 0.48472 0.23206 0.0
H200 H 0.74016 0.57574 0.01434 0.0
O201 O 0.74207 0.53665 0.36106 0.0
H202 H 0.60106 0.53668 0.2942 0.0
H203 H 0.68119 0.57035 0.46462 0.0
H204 H 0.62169 0.53724 0.48662 0.0
H205 H 0.58118 0.52021 0.40103 0.0
H206 H 0.66076 0.56955 0.27421 0.0
H207 H 0.69669 0.67648 0.46042 0.0
H208 H 0.74124 0.69282 0.53806 0.0
O209 O 0.72942 0.57011 0.41395 0.0
C210 C 0.79043 0.61661 0.30995 0.0
C211 C 0.75759 0.66085 0.50168 0.0
C212 C 0.71246 0.66573 0.45969 0.0
N213 N 0.72768 0.62879 0.41407 0.0
C214 C 0.75234 0.63774 0.45643 0.0
C215 C 0.70797 0.64258 0.41505 0.0
C216 C 0.73745 0.67488 0.50325 0.0
C217 C 0.71196 0.54685 0.15746 0.0
N218 N 0.74116 0.55497 0.18574 0.0
C219 C 0.71112 0.55418 0.09545 0.0
C220 C 0.74044 0.56989 0.0624 0.0
C221 C 0.77013 0.57805 0.09159 0.0
C222 C 0.77003 0.57041 0.15369 0.0
C223 C 0.77842 0.48741 0.20324 0.0
C224 C 0.79546 0.53429 0.29405 0.0
C225 C 0.75958 0.50243 0.21344 0.0
N226 N 0.76832 0.52569 0.25816 0.0
C227 C 0.81488 0.51977 0.2852 0.0
C228 C 0.80626 0.4962 0.23941 0.0
C229 C 0.73737 0.54774 0.41081 0.0
C230 C 0.61847 0.54403 0.3319 0.0
C231 C 0.66371 0.56299 0.42714 0.0
C232 C 0.63005 0.54429 0.43988 0.0
C233 C 0.60733 0.53476 0.39184 0.0
N234 N 0.67443 0.57203 0.36824 0.0
C235 C 0.6523 0.56278 0.32089 0.0
Co236 Co 0.22626 0.81359 0.31285 0.0
Co237 Co 0.18442 0.75925 0.43212 0.0
O238 O 0.18695 0.77685 0.34945 0.0
C239 C 0.19814 0.75772 0.22262 0.0
O240 O 0.17139 0.74202 0.25565 0.0
C241 C 0.13419 0.77937 0.42492 0.0
O242 O 0.15726 0.80729 0.4015 0.0
O243 O 0.20776 0.80428 0.46698 0.0
O244 O 0.23462 0.83989 0.38998 0.0
H245 H 0.22828 0.75307 0.6399 0.0
H246 H 0.16032 0.78642 0.2489 0.0
O247 O 0.22016 0.78728 0.23572 0.0
H248 H 0.20054 0.90463 0.2781 0.0
H249 H 0.29312 0.89044 0.14189 0.0
H250 H 0.29367 0.85968 0.35868 0.0
H251 H 0.23387 0.88032 0.31295 0.0
H252 H 0.24317 0.84474 0.18886 0.0
O253 O 0.14117 0.75764 0.44329 0.0
H254 H 0.23168 0.77457 0.53486 0.0
H255 H 0.12988 0.7069 0.50619 0.0
H256 H 0.34409 0.90573 0.31378 0.0
H257 H 0.12649 0.80966 0.21306 0.0
H258 H 0.34399 0.92136 0.20462 0.0
H259 H 0.14642 0.86926 0.22756 0.0
O260 O 0.25392 0.7955 0.34344 0.0
H261 H 0.09633 0.66583 0.30874 0.0
H262 H 0.19388 0.70092 0.44154 0.0
H263 H 0.16573 0.64485 0.39849 0.0
H264 H 0.11654 0.62693 0.33163 0.0
H265 H 0.12559 0.72191 0.35161 0.0
H266 H 0.12529 0.68479 0.61107 0.0
H267 H 0.17477 0.70784 0.6786 0.0
O268 O 0.22756 0.76071 0.42152 0.0
C269 C 0.22653 0.83335 0.44643 0.0
C270 C 0.20657 0.74273 0.61083 0.0
C271 C 0.14876 0.70444 0.59467 0.0
N272 N 0.18109 0.74177 0.5143 0.0
C273 C 0.20838 0.75473 0.55126 0.0
C274 C 0.15149 0.71708 0.53538 0.0
C275 C 0.17653 0.71738 0.63254 0.0
C276 C 0.16969 0.81233 0.25457 0.0
N277 N 0.19956 0.8319 0.282 0.0
C278 C 0.15018 0.82541 0.23449 0.0
C279 C 0.16131 0.85881 0.24278 0.0
C280 C 0.19165 0.87865 0.27113 0.0
C281 C 0.21044 0.86469 0.29074 0.0
C282 C 0.29344 0.88391 0.18954 0.0
C283 C 0.2934 0.86653 0.31129 0.0
C284 C 0.26527 0.85804 0.21632 0.0
N285 N 0.26546 0.84982 0.27658 0.0
C286 C 0.32203 0.89253 0.28605 0.0
C287 C 0.32198 0.90126 0.22477 0.0
C288 C 0.25188 0.77528 0.38489 0.0
C289 C 0.11775 0.67335 0.3378 0.0
C290 C 0.17276 0.69353 0.41186 0.0
C291 C 0.15678 0.66163 0.38795 0.0
C292 C 0.12914 0.65156 0.35056 0.0
N293 N 0.16162 0.71489 0.39874 0.0
C294 C 0.13434 0.70506 0.36257 0.0
Co295 Co 0.45143 0.19027 0.9139 0.0
Co296 Co 0.396 0.12496 0.00333 0.0
O297 O 0.42709 0.14386 0.93573 0.0
C298 C 0.50293 0.17363 0.94122 0.0
O299 O 0.48591 0.15874 0.99051 0.0
C300 C 0.35885 0.09501 0.8907 0.0
O301 O 0.37119 0.12545 0.87103 0.0
O302 O 0.37523 0.15191 0.9831 0.0
O303 O 0.41156 0.19477 0.92594 0.0
H304 H 0.33275 0.12621 0.1875 0.0
H305 H 0.45244 0.14103 0.83082 0.0
O306 O 0.49217 0.18688 0.90307 0.0
H307 H 0.40538 0.19657 0.70799 0.0
H308 H 0.53428 0.28796 0.79133 0.0
H309 H 0.45534 0.2511 0.96266 0.0
H310 H 0.42318 0.21322 0.81499 0.0
H311 H 0.50184 0.22897 0.81902 0.0
O312 O 0.36481 0.08952 0.94548 0.0
H313 H 0.37297 0.15103 0.10343 0.0
H314 H 0.35105 0.05594 0.04434 0.0
H315 H 0.48706 0.31028 0.93625 0.0
H316 H 0.4351 0.12368 0.72389 0.0
H317 H 0.52687 0.32904 0.85001 0.0
H318 H 0.41129 0.15148 0.66181 0.0
O319 O 0.46392 0.20246 0.00065 0.0
H320 H 0.44186 0.05059 0.95827 0.0
H321 H 0.42096 0.11116 0.11937 0.0
H322 H 0.448 0.07913 0.14679 0.0
H323 H 0.45856 0.04851 0.06592 0.0
H324 H 0.41515 0.08313 0.93278 0.0
H325 H 0.31041 0.03005 0.12755 0.0
H326 H 0.30115 0.06529 0.19995 0.0
O327 O 0.42724 0.16074 0.06051 0.0
C328 C 0.38419 0.17887 0.9543 0.0
C329 C 0.33666 0.1106 0.1564 0.0
C330 C 0.32408 0.05662 0.12268 0.0
N331 N 0.36453 0.10495 0.06942 0.0
C332 C 0.35948 0.12452 0.10884 0.0
C333 C 0.34707 0.07141 0.07561 0.0
C334 C 0.3189 0.07641 0.1633 0.0
C335 C 0.44241 0.15346 0.80384 0.0
N336 N 0.439 0.17823 0.82892 0.0
C337 C 0.43252 0.14345 0.74342 0.0
C338 C 0.41911 0.15902 0.70865 0.0
C339 C 0.41577 0.18431 0.73454 0.0
C340 C 0.42586 0.19361 0.79515 0.0
C341 C 0.51694 0.28008 0.82889 0.0
C342 C 0.47244 0.25906 0.92479 0.0
C343 C 0.49855 0.24673 0.84482 0.0
N344 N 0.47649 0.2366 0.89198 0.0
C345 C 0.49041 0.2926 0.91018 0.0
C346 C 0.51277 0.30312 0.86183 0.0
C347 C 0.45255 0.18933 0.05284 0.0
C348 C 0.4373 0.06374 0.99394 0.0
C349 C 0.42553 0.09794 0.08392 0.0
C350 C 0.4408 0.07981 0.09973 0.0
C351 C 0.4467 0.06262 0.05434 0.0
N352 N 0.4163 0.09884 0.02461 0.0
C353 C 0.42205 0.0821 0.97983 0.0
C354 C 0.21802 0.31199 0.0392 0.0
C355 C 0.23531 0.33943 0.07769 0.0
C356 C 0.23146 0.29217 0.02431 0.0
C357 C 0.25959 0.24587 0.01992 0.0
H358 H 0.35393 0.29214 0.99174 0.0
C359 C 0.33483 0.17954 0.99599 0.0
C360 C 0.3625 0.19343 0.95726 0.0
C361 C 0.31681 0.1955 0.00531 0.0
C362 C 0.32749 0.27883 0.99853 0.0
H363 H 0.27928 0.36651 0.13358 0.0
H364 H 0.30222 0.33146 0.10911 0.0
H365 H 0.32725 0.323 0.02106 0.0
H366 H 0.39165 0.23409 0.89507 0.0
H367 H 0.35972 0.26151 0.91029 0.0
H368 H 0.25985 0.20174 0.99597 0.0
C369 C 0.27876 0.32576 0.0889 0.0
C370 C 0.31226 0.29649 0.01644 0.0
C371 C 0.26547 0.34569 0.10339 0.0
C372 C 0.37066 0.2228 0.92562 0.0
C373 C 0.35249 0.23867 0.93469 0.0
C374 C 0.27485 0.22818 0.00171 0.0
C375 C 0.26236 0.29929 0.04792 0.0
C376 C 0.27819 0.28022 0.028 0.0
C377 C 0.32587 0.22564 0.97585 0.0
C378 C 0.30904 0.24443 0.99125 0.0
H379 H 0.19479 0.30661 0.01838 0.0
H380 H 0.21826 0.27211 0.99233 0.0
H381 H 0.23333 0.23255 0.02866 0.0
H382 H 0.32777 0.15695 0.0212 0.0
H383 H 0.29667 0.1849 0.03776 0.0
C384 C 0.96905 0.31126 0.54235 0.0
C385 C 0.93927 0.28166 0.53324 0.0
C386 C 0.99363 0.32306 0.49748 0.0
C387 C 0.0053 0.31348 0.33149 0.0
H388 H 0.09788 0.3614 0.37579 0.0
C389 C 0.14272 0.36839 0.21504 0.0
C390 C 0.13787 0.38119 0.1599 0.0
C391 C 0.11821 0.35531 0.25976 0.0
C392 C 0.07216 0.34771 0.36245 0.0
H393 H 0.91236 0.24057 0.47126 0.0
H394 H 0.95553 0.26031 0.39455 0.0
H395 H 0.05652 0.33954 0.45601 0.0
H396 H 0.10321 0.38993 0.10821 0.0
H397 H 0.06078 0.36809 0.18703 0.0
H398 H 0.02093 0.32042 0.23801 0.0
C399 C 0.95965 0.27512 0.43509 0.0
C400 C 0.04836 0.3356 0.40864 0.0
C401 C 0.93497 0.2636 0.47943 0.0
C402 C 0.10766 0.3801 0.15005 0.0
C403 C 0.08326 0.36743 0.19526 0.0
C404 C 0.0291 0.32524 0.28533 0.0
C405 C 0.9891 0.30529 0.44292 0.0
C406 C 0.01459 0.31829 0.39382 0.0
C407 C 0.08834 0.35512 0.25099 0.0
C408 C 0.06287 0.34252 0.30014 0.0
H409 H 0.97292 0.32586 0.58315 0.0
H410 H 0.01578 0.34658 0.5049 0.0
H411 H 0.97956 0.30081 0.3181 0.0
H412 H 0.16558 0.3685 0.22384 0.0
H413 H 0.12275 0.34532 0.30126 0.0
C414 C 0.78987 0.14823 0.61272 0.0
C415 C 0.81829 0.17083 0.64516 0.0
C416 C 0.7762 0.11432 0.62208 0.0
C417 C 0.76047 0.04274 0.63338 0.0
H418 H 0.7471 0.01566 0.80441 0.0
C419 C 0.6955 0.90576 0.70671 0.0
C420 C 0.66947 0.89659 0.74825 0.0
C421 C 0.71795 0.93904 0.69538 0.0
C422 C 0.7508 0.02288 0.75649 0.0
H423 H 0.85543 0.17527 0.71084 0.0
H424 H 0.83137 0.11612 0.72719 0.0
H425 H 0.77882 0.07424 0.77819 0.0
H426 H 0.64741 0.91503 0.81242 0.0
H427 H 0.68689 0.97311 0.79322 0.0
H428 H 0.73172 0.99138 0.61176 0.0
C429 C 0.81964 0.12475 0.69485 0.0
C430 C 0.76916 0.05635 0.74145 0.0
C431 C 0.83349 0.15864 0.68513 0.0
C432 C 0.66721 0.92132 0.78018 0.0
C433 C 0.68988 0.95457 0.76937 0.0
C434 C 0.74239 0.00923 0.64843 0.0
C435 C 0.7905 0.10229 0.66437 0.0
C436 C 0.77372 0.06665 0.67977 0.0
C437 C 0.71506 0.96376 0.72594 0.0
C438 C 0.7369 0.99901 0.71015 0.0
H439 H 0.77751 0.1567 0.58154 0.0
H440 H 0.75358 0.09757 0.59824 0.0
H441 H 0.76376 0.05 0.58548 0.0
H442 H 0.69786 0.8873 0.68118 0.0
H443 H 0.73729 0.94546 0.66205 0.0
C444 C 0.73426 0.66085 0.1351 0.0
C445 C 0.71608 0.64783 0.18924 0.0
C446 C 0.72371 0.67492 0.09008 0.0
C447 C 0.66717 0.70814 0.06423 0.0
H448 H 0.68089 0.69656 0.89308 0.0
C449 C 0.62317 0.72851 0.8083 0.0
C450 C 0.62326 0.75802 0.81984 0.0
C451 C 0.63579 0.71558 0.85195 0.0
C452 C 0.67653 0.69978 0.94057 0.0
H453 H 0.67245 0.6392 0.23858 0.0
H454 H 0.65343 0.66288 0.15933 0.0
H455 H 0.69864 0.67201 0.97252 0.0
H456 H 0.63848 0.79817 0.88439 0.0
H457 H 0.66164 0.77652 0.9589 0.0
H458 H 0.64365 0.7345 0.03242 0.0
C459 C 0.67636 0.66306 0.15217 0.0
C460 C 0.6872 0.6861 0.98633 0.0
C461 C 0.68718 0.64935 0.19761 0.0
C462 C 0.63758 0.77509 0.87451 0.0
C463 C 0.65064 0.7625 0.91755 0.0
C464 C 0.65616 0.72146 0.01853 0.0
C465 C 0.69443 0.67593 0.09766 0.0
C466 C 0.68279 0.69022 0.04881 0.0
C467 C 0.64923 0.73218 0.90763 0.0
C468 C 0.66087 0.71766 0.95606 0.0
H469 H 0.75673 0.66017 0.12738 0.0
H470 H 0.73867 0.68518 0.04946 0.0
H471 H 0.66366 0.71223 0.11172 0.0
H472 H 0.61222 0.71474 0.76667 0.0
H473 H 0.634 0.69205 0.84281 0.0
C474 C 0.84952 0.6378 0.28192 0.0
C475 C 0.82589 0.64166 0.31456 0.0
C476 C 0.88315 0.659 0.29224 0.0
C477 C 0.9535 0.71675 0.30613 0.0
H478 H 0.97963 0.72616 0.47753 0.0
C479 C 0.08993 0.78887 0.38192 0.0
C480 C 0.09929 0.77078 0.42069 0.0
C481 C 0.05661 0.77807 0.37114 0.0
C482 C 0.97267 0.7239 0.42953 0.0
H483 H 0.81926 0.67182 0.38184 0.0
H484 H 0.87801 0.70858 0.40007 0.0
H485 H 0.92113 0.69854 0.4503 0.0
H486 H 0.08114 0.72816 0.48088 0.0
H487 H 0.02299 0.70963 0.46275 0.0
H488 H 0.00504 0.74132 0.28535 0.0
C489 C 0.87037 0.68904 0.36667 0.0
C490 C 0.93924 0.70835 0.41395 0.0
C491 C 0.83673 0.66807 0.3559 0.0
C492 C 0.0747 0.74261 0.45078 0.0
C493 C 0.04141 0.73207 0.44059 0.0
C494 C 0.98694 0.73264 0.32174 0.0
C495 C 0.89388 0.68433 0.3358 0.0
C496 C 0.92932 0.70405 0.35207 0.0
C497 C 0.03205 0.74927 0.39959 0.0
C498 C 0.99682 0.73578 0.38356 0.0
H499 H 0.84208 0.61777 0.24971 0.0
H500 H 0.90073 0.65463 0.26812 0.0
H501 H 0.94651 0.7139 0.25811 0.0
H502 H 0.10829 0.81062 0.35788 0.0
H503 H 0.05004 0.7919 0.33968 0.0
C504 C 0.32745 0.0346 0.86584 0.0
C505 C 0.34158 0.06762 0.84673 0.0
C506 C 0.31338 0.00908 0.82289 0.0
C507 C 0.28293 0.99063 0.66154 0.0
H508 H 0.29855 0.91726 0.68234 0.0
C509 C 0.25592 0.89388 0.47181 0.0
C510 C 0.23937 0.86074 0.49119 0.0
C511 C 0.26785 0.91938 0.51486 0.0
C512 C 0.29379 0.93749 0.67616 0.0
H513 H 0.35173 0.09973 0.76758 0.0
H514 H 0.328 0.05552 0.69307 0.0
H515 H 0.31925 0.96075 0.75903 0.0
H516 H 0.22263 0.82856 0.57128 0.0
H517 H 0.24353 0.87291 0.64567 0.0
H518 H 0.25796 0.96745 0.57791 0.0
C519 C 0.32705 0.04912 0.74116 0.0
C520 C 0.3055 0.96234 0.72027 0.0
C521 C 0.34084 0.07454 0.78402 0.0
C522 C 0.23519 0.85375 0.55449 0.0
C523 C 0.24734 0.87917 0.59732 0.0
C524 C 0.27146 0.96588 0.61715 0.0
C525 C 0.31338 0.01607 0.75991 0.0
C526 C 0.30017 0.98921 0.71361 0.0
C527 C 0.2638 0.91223 0.57805 0.0
C528 C 0.27669 0.93901 0.62413 0.0
H529 H 0.32758 0.02847 0.91383 0.0
H530 H 0.30259 0.98387 0.83906 0.0
H531 H 0.27796 0.0107 0.65532 0.0
H532 H 0.25959 0.90015 0.42347 0.0
H533 H 0.28067 0.9447 0.49878 0.0
C534 C 0.1797 0.70768 0.15897 0.0
C535 C 0.20537 0.73839 0.1787 0.0
C536 C 0.18661 0.68539 0.13019 0.0
C537 C 0.20583 0.64352 0.05716 0.0
H538 H 0.27285 0.63286 0.14265 0.0
C539 C 0.22105 0.53192 0.00874 0.0
C540 C 0.22555 0.51616 0.05997 0.0
C541 C 0.22474 0.56323 0.01396 0.0
C542 C 0.25399 0.63544 0.11841 0.0
H543 H 0.25841 0.7709 0.17962 0.0
H544 H 0.27053 0.73194 0.12828 0.0
H545 H 0.26715 0.68079 0.16367 0.0
H546 H 0.23858 0.52131 0.15647 0.0
H547 H 0.2436 0.57555 0.1665 0.0
H548 H 0.19103 0.5972 0.01514 0.0
C549 C 0.24504 0.72498 0.136 0.0
C550 C 0.25108 0.66323 0.12969 0.0
C551 C 0.23808 0.74743 0.16473 0.0
C552 C 0.23489 0.53284 0.11624 0.0
C553 C 0.23802 0.56406 0.12177 0.0
C554 C 0.20853 0.61566 0.0463 0.0
C555 C 0.21939 0.69327 0.1204 0.0
C556 C 0.22636 0.66712 0.10039 0.0
C557 C 0.23241 0.57938 0.07085 0.0
C558 C 0.23215 0.61085 0.07782 0.0
H559 H 0.15423 0.70003 0.169 0.0
H560 H 0.16622 0.66113 0.1194 0.0
H561 H 0.18681 0.64598 0.03322 0.0
H562 H 0.21441 0.51996 0.96443 0.0
H563 H 0.22108 0.57456 0.97341 0.0
C564 C 0.55368 0.17588 0.98381 0.0
C565 C 0.53593 0.17759 0.9329 0.0
C566 C 0.58589 0.18196 0.97688 0.0
C567 C 0.64275 0.18008 0.86715 0.0
H568 H 0.71289 0.25292 0.95719 0.0
C569 C 0.78222 0.27361 0.81186 0.0
C570 C 0.79305 0.25164 0.7961 0.0
C571 C 0.75387 0.26278 0.8472 0.0
C572 C 0.69349 0.2322 0.93257 0.0
H573 H 0.53752 0.18609 0.83476 0.0
H574 H 0.59356 0.19571 0.8224 0.0
H575 H 0.65511 0.23561 0.97917 0.0
H576 H 0.78436 0.20197 0.8068 0.0
H577 H 0.73437 0.18277 0.86826 0.0
H578 H 0.68087 0.1771 0.81937 0.0
C579 C 0.58257 0.18999 0.86763 0.0
C580 C 0.66057 0.2223 0.94511 0.0
C581 C 0.55064 0.18461 0.87472 0.0
C582 C 0.77673 0.21944 0.81978 0.0
C583 C 0.74805 0.20842 0.85429 0.0
C584 C 0.67556 0.18953 0.85545 0.0
C585 C 0.60058 0.1891 0.91875 0.0
C586 C 0.63502 0.19676 0.91126 0.0
C587 C 0.7356 0.22962 0.86589 0.0
C588 C 0.70126 0.21619 0.88695 0.0
H589 H 0.54303 0.17075 0.0293 0.0
H590 H 0.59935 0.18113 0.01687 0.0
H591 H 0.62342 0.16025 0.84068 0.0
H592 H 0.79412 0.29832 0.79269 0.0
H593 H 0.74461 0.27951 0.85493 0.0
C594 C 0.47872 0.68343 0.71433 0.0
C595 C 0.48708 0.71433 0.73886 0.0
C596 C 0.44703 0.65656 0.72101 0.0
C597 C 0.37146 0.62526 0.81418 0.0
H598 H 0.33659 0.55817 0.68773 0.0
C599 C 0.2496 0.50295 0.84526 0.0
C600 C 0.25578 0.4765 0.84565 0.0
C601 C 0.27278 0.53351 0.82062 0.0
C602 C 0.34588 0.57689 0.72304 0.0
H603 H 0.46852 0.74119 0.78977 0.0
H604 H 0.41265 0.69428 0.80019 0.0
H605 H 0.38736 0.61016 0.66913 0.0
H606 H 0.2893 0.46022 0.81588 0.0
H607 H 0.32907 0.51314 0.77052 0.0
H608 H 0.32983 0.59162 0.868 0.0
C609 C 0.4309 0.69074 0.77662 0.0
C610 C 0.37512 0.60654 0.71281 0.0
C611 C 0.46292 0.71768 0.7706 0.0
C612 C 0.28392 0.48019 0.81597 0.0
C613 C 0.30665 0.51045 0.79006 0.0
C614 C 0.34189 0.5958 0.82395 0.0
C615 C 0.42254 0.65984 0.75165 0.0
C616 C 0.38895 0.63062 0.75911 0.0
C617 C 0.30196 0.53772 0.79452 0.0
C618 C 0.32943 0.57098 0.7792 0.0
H619 H 0.49678 0.6798 0.6902 0.0
H620 H 0.44196 0.63302 0.70279 0.0
H621 H 0.38139 0.64299 0.85111 0.0
H622 H 0.2282 0.50084 0.86822 0.0
H623 H 0.26864 0.55421 0.8244 0.0
C624 C 0.721 0.50168 0.48383 0.0
C625 C 0.74339 0.53433 0.46703 0.0
C626 C 0.73117 0.48417 0.52164 0.0
C627 C 0.80434 0.4791 0.53637 0.0
H628 H 0.75623 0.41209 0.65981 0.0
C629 C 0.81027 0.35988 0.56304 0.0
C630 C 0.81698 0.35245 0.62207 0.0
C631 C 0.80416 0.38591 0.55411 0.0
C632 C 0.77008 0.43097 0.62584 0.0
H633 H 0.79304 0.57513 0.47849 0.0
H634 H 0.81103 0.54446 0.54453 0.0
H635 H 0.73917 0.45253 0.63378 0.0
H636 H 0.82227 0.36614 0.71814 0.0
H637 H 0.81057 0.41117 0.70245 0.0
H638 H 0.83399 0.45645 0.52574 0.0
C639 C 0.78557 0.53254 0.52934 0.0
C640 C 0.76033 0.45399 0.61099 0.0
C641 C 0.77524 0.55016 0.49222 0.0
C642 C 0.81738 0.37148 0.67204 0.0
C643 C 0.81056 0.39708 0.66324 0.0
C644 C 0.81366 0.45578 0.55037 0.0
C645 C 0.76407 0.49895 0.54189 0.0
C646 C 0.7771 0.47795 0.56544 0.0
C647 C 0.80398 0.40452 0.60418 0.0
C648 C 0.79625 0.43118 0.59438 0.0
H649 H 0.69657 0.48889 0.46349 0.0
H650 H 0.7142 0.45823 0.53005 0.0
H651 H 0.81739 0.49696 0.50037 0.0
H652 H 0.80983 0.34563 0.52374 0.0
H653 H 0.7989 0.39109 0.50817 0.0
C654 C 0.28641 0.75797 0.4459 0.0
C655 C 0.27958 0.76873 0.39028 0.0
C656 C 0.31431 0.75452 0.45166 0.0
C657 C 0.39615 0.78566 0.3806 0.0
H658 H 0.40132 0.72467 0.4952 0.0
C659 C 0.49754 0.75481 0.50317 0.0
C660 C 0.52083 0.78733 0.51952 0.0
C661 C 0.46833 0.74809 0.4729 0.0
C662 C 0.40023 0.74144 0.46199 0.0
H663 H 0.29524 0.78203 0.29582 0.0
H664 H 0.3431 0.77502 0.30525 0.0
H665 H 0.34789 0.71914 0.4711 0.0
H666 H 0.53308 0.83845 0.5128 0.0
H667 H 0.48261 0.82689 0.46066 0.0
H668 H 0.4484 0.80794 0.37145 0.0
C669 C 0.32775 0.7704 0.34518 0.0
C670 C 0.36963 0.7386 0.44894 0.0
C671 C 0.30021 0.77433 0.33972 0.0
C672 C 0.51556 0.81311 0.501 0.0
C673 C 0.48661 0.80646 0.47068 0.0
C674 C 0.42663 0.78831 0.39323 0.0
C675 C 0.33569 0.76128 0.40162 0.0
C676 C 0.36733 0.7613 0.40949 0.0
C677 C 0.46212 0.77381 0.45807 0.0
C678 C 0.42922 0.76695 0.43565 0.0
H679 H 0.27093 0.75342 0.48563 0.0
H680 H 0.31978 0.74784 0.49607 0.0
H681 H 0.39555 0.8038 0.35035 0.0
H682 H 0.5009 0.73441 0.51705 0.0
H683 H 0.45012 0.7227 0.46311 0.0
C684 C 0.50554 0.22482 0.10517 0.0
C685 C 0.47102 0.20879 0.10641 0.0
C686 C 0.52421 0.249 0.14807 0.0
C687 C 0.51979 0.31279 0.2318 0.0
H688 H 0.60727 0.33322 0.2844 0.0
C689 C 0.61896 0.44213 0.31977 0.0
C690 C 0.64936 0.4546 0.28953 0.0
C691 C 0.5946 0.40898 0.31344 0.0
C692 C 0.58282 0.32777 0.27038 0.0
H693 H 0.42864 0.20377 0.15505 0.0
H694 H 0.46157 0.24687 0.23054 0.0
H695 H 0.56783 0.27756 0.25001 0.0
H696 H 0.67814 0.44207 0.22943 0.0
H697 H 0.63577 0.38443 0.21856 0.0
H698 H 0.53538 0.36347 0.24965 0.0
C699 C 0.47409 0.24049 0.19641 0.0
C700 C 0.56023 0.29593 0.2509 0.0
C701 C 0.4553 0.21575 0.1537 0.0
C702 C 0.65496 0.43328 0.25316 0.0
C703 C 0.63083 0.40016 0.24747 0.0
C704 C 0.54237 0.34466 0.25163 0.0
C705 C 0.50876 0.25803 0.19276 0.0
C706 C 0.52901 0.28851 0.22871 0.0
C707 C 0.60042 0.38765 0.27753 0.0
C708 C 0.57457 0.35277 0.26848 0.0
H709 H 0.51814 0.21981 0.06895 0.0
H710 H 0.55078 0.26224 0.14332 0.0
H711 H 0.49604 0.30795 0.21451 0.0
H712 H 0.61393 0.45799 0.34812 0.0
H713 H 0.57134 0.39997 0.33698 0.0
loop_
_geom_bond_atom_site_label_1
_geom_bond_atom_site_label_2
_geom_bond_distance
_geom_bond_site_symmetry_2
_ccdc_geom_bond_type
Co0 O2 2.143 . S
Co0 O8 2.074 1_556 S
Co0 O11 2.093 . S
Co0 O24 2.097 1_556 S
Co0 N41 2.151 . S
Co0 N49 2.214 . S
Co1 O2 2.160 1_554 S
Co1 O7 2.058 . S
Co1 O17 2.057 . S
Co1 O32 2.037 . S
Co1 N36 2.145 . S
Co1 N57 2.257 . S
O2 Co0 2.143 . S
O2 Co1 2.160 1_556 S
C3 O4 1.278 . S
C3 O11 1.224 . S
O4 C3 1.278 . S
C5 O6 1.245 1_554 S
C5 O17 1.232 . S
O6 C5 1.245 1_556 S
O7 Co1 2.058 . S
O7 C33 1.269 . S
O8 Co0 2.074 1_554 S
O8 C33 1.257 . S
H9 C34 0.930 . S
H10 C40 0.930 . S
O11 Co0 2.093 . S
O11 C3 1.224 . S
H12 C44 0.929 . S
H13 C46 0.930 . S
H14 C47 0.930 . S
H15 C45 0.929 . S
H16 C48 0.928 . S
O17 Co1 2.057 . S
O17 C5 1.232 . S
H18 C37 0.929 . S
H19 C38 0.929 . S
H20 C50 0.931 . S
H21 C42 0.929 . S
H22 C51 0.930 . S
H23 C43 0.931 . S
O24 Co0 2.097 1_554 S
O24 C52 1.214 . S
H25 C53 0.929 . S
H26 C54 0.929 . S
H27 C55 0.930 . S
H28 C56 0.929 . S
H29 C58 0.930 . S
H30 C35 0.930 . S
H31 C39 0.930 . S
O32 Co1 2.037 . S
O32 C52 1.234 . S
C33 O7 1.269 . S
C33 O8 1.257 . S
C34 H9 0.930 . S
C34 C37 1.388 . S
C34 C39 1.418 . S
C35 H30 0.930 . S
C35 C38 1.404 . S
C35 C39 1.353 . S
N36 Co1 2.145 . S
N36 C37 1.397 . S
N36 C38 1.334 . S
C37 H18 0.929 . S
C37 C34 1.388 . S
C37 N36 1.397 . S
C38 H19 0.929 . S
C38 C35 1.404 . S
C38 N36 1.334 . S
C39 H31 0.930 . S
C39 C34 1.418 . S
C39 C35 1.353 . S
C40 H10 0.930 . S
C40 N41 1.330 . S
C40 C42 1.446 . S
N41 Co0 2.151 . S
N41 C40 1.330 . S
N41 C45 1.418 . S
C42 H21 0.929 . S
C42 C40 1.446 . S
C42 C43 1.332 . S
C43 H23 0.931 . S
C43 C42 1.332 . S
C43 C44 1.267 . S
C44 H12 0.929 . S
C44 C43 1.267 . S
C44 C45 1.251 . S
C45 H15 0.929 . S
C45 N41 1.418 . S
C45 C44 1.251 . S
C46 H13 0.930 . S
C46 C48 1.406 . S
C46 C51 1.261 . S
C47 H14 0.930 . S
C47 N49 1.325 . S
C47 C50 1.357 . S
C48 H16 0.928 . S
C48 C46 1.406 . S
C48 N49 1.261 . S
N49 Co0 2.214 . S
N49 C47 1.325 . S
N49 C48 1.261 . S
C50 H20 0.931 . S
C50 C47 1.357 . S
C50 C51 1.312 . S
C51 H22 0.930 . S
C51 C46 1.261 . S
C51 C50 1.312 . S
C52 O24 1.214 . S
C52 O32 1.234 . S
C53 H25 0.929 . S
C53 C56 1.391 . S
C53 C58 1.391 . S
C54 H26 0.929 . S
C54 C55 1.390 . S
C54 N57 1.391 . S
C55 H27 0.930 . S
C55 C54 1.390 . S
C55 C56 1.392 . S
C56 H28 0.929 . S
C56 C53 1.391 . S
C56 C55 1.392 . S
N57 Co1 2.257 . S
N57 C54 1.391 . S
N57 C58 1.388 . S
C58 H29 0.930 . S
C58 C53 1.391 . S
C58 N57 1.388 . S
Co59 O61 2.143 . S
Co59 O67 2.074 . S
Co59 O70 2.093 . S
Co59 O83 2.097 . S
Co59 N100 2.151 . S
Co59 N108 2.214 . S
Co60 O61 2.160 . S
Co60 O66 2.058 . S
Co60 O76 2.057 . S
Co60 O91 2.037 . S
Co60 N95 2.145 . S
Co60 N116 2.257 . S
O61 Co59 2.143 . S
O61 Co60 2.160 . S
C62 O63 1.278 . S
C62 O70 1.224 . S
O63 C62 1.278 . S
C64 O65 1.245 . S
C64 O76 1.232 . S
O65 C64 1.245 . S
O66 Co60 2.058 . S
O66 C92 1.269 . S
O67 Co59 2.074 . S
O67 C92 1.257 . S
H68 C93 0.930 . S
H69 C99 0.930 . S
O70 Co59 2.093 . S
O70 C62 1.224 . S
H71 C103 0.929 . S
H72 C105 0.930 . S
H73 C106 0.930 . S
H74 C104 0.929 . S
H75 C107 0.928 . S
O76 Co60 2.057 . S
O76 C64 1.232 . S
H77 C96 0.929 . S
H78 C97 0.929 . S
H79 C109 0.931 . S
H80 C101 0.929 . S
H81 C110 0.930 . S
H82 C102 0.931 . S
O83 Co59 2.097 . S
O83 C111 1.214 . S
H84 C112 0.929 . S
H85 C113 0.929 . S
H86 C114 0.930 . S
H87 C115 0.929 . S
H88 C117 0.930 . S
H89 C94 0.930 . S
H90 C98 0.930 . S
O91 Co60 2.037 . S
O91 C111 1.234 . S
C92 O66 1.269 . S
C92 O67 1.257 . S
C93 H68 0.930 . S
C93 C96 1.388 . S
C93 C98 1.418 . S
C94 H89 0.930 . S
C94 C97 1.404 . S
C94 C98 1.353 . S
N95 Co60 2.145 . S
N95 C96 1.397 . S
N95 C97 1.334 . S
C96 H77 0.929 . S
C96 C93 1.388 . S
C96 N95 1.397 . S
C97 H78 0.929 . S
C97 C94 1.404 . S
C97 N95 1.334 . S
C98 H90 0.930 . S
C98 C93 1.418 . S
C98 C94 1.353 . S
C99 H69 0.930 . S
C99 N100 1.330 . S
C99 C101 1.446 . S
N100 Co59 2.151 . S
N100 C99 1.330 . S
N100 C104 1.418 . S
C101 H80 0.929 . S
C101 C99 1.446 . S
C101 C102 1.332 . S
C102 H82 0.931 . S
C102 C101 1.332 . S
C102 C103 1.267 . S
C103 H71 0.929 . S
C103 C102 1.267 . S
C103 C104 1.251 . S
C104 H74 0.929 . S
C104 N100 1.418 . S
C104 C103 1.251 . S
C105 H72 0.930 . S
C105 C107 1.406 . S
C105 C110 1.261 . S
C106 H73 0.930 . S
C106 N108 1.325 . S
C106 C109 1.357 . S
C107 H75 0.928 . S
C107 C105 1.406 . S
C107 N108 1.261 . S
N108 Co59 2.214 . S
N108 C106 1.325 . S
N108 C107 1.261 . S
C109 H79 0.931 . S
C109 C106 1.357 . S
C109 C110 1.312 . S
C110 H81 0.930 . S
C110 C105 1.261 . S
C110 C109 1.312 . S
C111 O83 1.214 . S
C111 O91 1.234 . S
C112 H84 0.929 . S
C112 C115 1.391 . S
C112 C117 1.391 . S
C113 H85 0.929 . S
C113 C114 1.390 . S
C113 N116 1.391 . S
C114 H86 0.930 . S
C114 C113 1.390 . S
C114 C115 1.392 . S
C115 H87 0.929 . S
C115 C112 1.391 . S
C115 C114 1.392 . S
N116 Co60 2.257 . S
N116 C113 1.391 . S
N116 C117 1.388 . S
C117 H88 0.930 . S
C117 C112 1.391 . S
C117 N116 1.388 . S
Co118 O120 2.143 . S
Co118 O126 2.074 . S
Co118 O129 2.093 . S
Co118 O142 2.097 . S
Co118 N159 2.151 . S
Co118 N167 2.214 . S
Co119 O120 2.160 . S
Co119 O125 2.058 . S
Co119 O135 2.057 . S
Co119 O150 2.037 . S
Co119 N154 2.145 . S
Co119 N175 2.257 . S
O120 Co118 2.143 . S
O120 Co119 2.160 . S
C121 O122 1.278 . S
C121 O129 1.224 . S
O122 C121 1.278 . S
C123 O124 1.245 . S
C123 O135 1.232 . S
O124 C123 1.245 . S
O125 Co119 2.058 . S
O125 C151 1.269 . S
O126 Co118 2.074 . S
O126 C151 1.257 . S
H127 C152 0.930 . S
H128 C158 0.930 . S
O129 Co118 2.093 . S
O129 C121 1.224 . S
H130 C162 0.929 . S
H131 C164 0.930 . S
H132 C165 0.930 . S
H133 C163 0.929 . S
H134 C166 0.928 . S
O135 Co119 2.057 . S
O135 C123 1.232 . S
H136 C155 0.929 . S
H137 C156 0.929 . S
H138 C168 0.931 . S
H139 C160 0.929 . S
H140 C169 0.930 . S
H141 C161 0.931 . S
O142 Co118 2.097 . S
O142 C170 1.214 . S
H143 C171 0.929 . S
H144 C172 0.929 . S
H145 C173 0.930 . S
H146 C174 0.929 . S
H147 C176 0.930 . S
H148 C153 0.930 . S
H149 C157 0.930 . S
O150 Co119 2.037 . S
O150 C170 1.234 . S
C151 O125 1.269 . S
C151 O126 1.257 . S
C152 H127 0.930 . S
C152 C155 1.388 . S
C152 C157 1.418 . S
C153 H148 0.930 . S
C153 C156 1.404 . S
C153 C157 1.353 . S
N154 Co119 2.145 . S
N154 C155 1.397 . S
N154 C156 1.334 . S
C155 H136 0.929 . S
C155 C152 1.388 . S
C155 N154 1.397 . S
C156 H137 0.929 . S
C156 C153 1.404 . S
C156 N154 1.334 . S
C157 H149 0.930 . S
C157 C152 1.418 . S
C157 C153 1.353 . S
C158 H128 0.930 . S
C158 N159 1.330 . S
C158 C160 1.446 . S
N159 Co118 2.151 . S
N159 C158 1.330 . S
N159 C163 1.418 . S
C160 H139 0.929 . S
C160 C158 1.446 . S
C160 C161 1.332 . S
C161 H141 0.931 . S
C161 C160 1.332 . S
C161 C162 1.267 . S
C162 H130 0.929 . S
C162 C161 1.267 . S
C162 C163 1.251 . S
C163 H133 0.929 . S
C163 N159 1.418 . S
C163 C162 1.251 . S
C164 H131 0.930 . S
C164 C166 1.406 . S
C164 C169 1.261 . S
C165 H132 0.930 . S
C165 N167 1.325 . S
C165 C168 1.357 . S
C166 H134 0.928 . S
C166 C164 1.406 . S
C166 N167 1.261 . S
N167 Co118 2.214 . S
N167 C165 1.325 . S
N167 C166 1.261 . S
C168 H138 0.931 . S
C168 C165 1.357 . S
C168 C169 1.312 . S
C169 H140 0.930 . S
C169 C164 1.261 . S
C169 C168 1.312 . S
C170 O142 1.214 . S
C170 O150 1.234 . S
C171 H143 0.929 . S
C171 C174 1.391 . S
C171 C176 1.391 . S
C172 H144 0.929 . S
C172 C173 1.390 . S
C172 N175 1.391 . S
C173 H145 0.930 . S
C173 C172 1.390 . S
C173 C174 1.392 . S
C174 H146 0.929 . S
C174 C171 1.391 . S
C174 C173 1.392 . S
N175 Co119 2.257 . S
N175 C172 1.391 . S
N175 C176 1.388 . S
C176 H147 0.930 . S
C176 C171 1.391 . S
C176 N175 1.388 . S
Co177 O179 2.143 . S
Co177 O185 2.074 . S
Co177 O188 2.093 . S
Co177 O201 2.097 . S
Co177 N218 2.151 . S
Co177 N226 2.214 . S
Co178 O179 2.160 . S
Co178 O184 2.058 . S
Co178 O194 2.057 . S
Co178 O209 2.037 . S
Co178 N213 2.145 . S
Co178 N234 2.257 . S
O179 Co177 2.143 . S
O179 Co178 2.160 . S
C180 O181 1.278 . S
C180 O188 1.224 . S
O181 C180 1.278 . S
C182 O183 1.245 . S
C182 O194 1.232 . S
O183 C182 1.245 . S
O184 Co178 2.058 . S
O184 C210 1.269 . S
O185 Co177 2.074 . S
O185 C210 1.257 . S
H186 C211 0.930 . S
H187 C217 0.930 . S
O188 Co177 2.093 . S
O188 C180 1.224 . S
H189 C221 0.929 . S
H190 C223 0.930 . S
H191 C224 0.930 . S
H192 C222 0.929 . S
H193 C225 0.928 . S
O194 Co178 2.057 . S
O194 C182 1.232 . S
H195 C214 0.929 . S
H196 C215 0.929 . S
H197 C227 0.931 . S
H198 C219 0.929 . S
H199 C228 0.930 . S
H200 C220 0.931 . S
O201 Co177 2.097 . S
O201 C229 1.214 . S
H202 C230 0.929 . S
H203 C231 0.929 . S
H204 C232 0.930 . S
H205 C233 0.929 . S
H206 C235 0.930 . S
H207 C212 0.930 . S
H208 C216 0.930 . S
O209 Co178 2.037 . S
O209 C229 1.234 . S
C210 O184 1.269 . S
C210 O185 1.257 . S
C211 H186 0.930 . S
C211 C214 1.388 . S
C211 C216 1.418 . S
C212 H207 0.930 . S
C212 C215 1.404 . S
C212 C216 1.353 . S
N213 Co178 2.145 . S
N213 C214 1.397 . S
N213 C215 1.334 . S
C214 H195 0.929 . S
C214 C211 1.388 . S
C214 N213 1.397 . S
C215 H196 0.929 . S
C215 C212 1.404 . S
C215 N213 1.334 . S
C216 H208 0.930 . S
C216 C211 1.418 . S
C216 C212 1.353 . S
C217 H187 0.930 . S
C217 N218 1.330 . S
C217 C219 1.446 . S
N218 Co177 2.151 . S
N218 C217 1.330 . S
N218 C222 1.418 . S
C219 H198 0.929 . S
C219 C217 1.446 . S
C219 C220 1.332 . S
C220 H200 0.931 . S
C220 C219 1.332 . S
C220 C221 1.267 . S
C221 H189 0.929 . S
C221 C220 1.267 . S
C221 C222 1.251 . S
C222 H192 0.929 . S
C222 N218 1.418 . S
C222 C221 1.251 . S
C223 H190 0.930 . S
C223 C225 1.406 . S
C223 C228 1.261 . S
C224 H191 0.930 . S
C224 N226 1.325 . S
C224 C227 1.357 . S
C225 H193 0.928 . S
C225 C223 1.406 . S
C225 N226 1.261 . S
N226 Co177 2.214 . S
N226 C224 1.325 . S
N226 C225 1.261 . S
C227 H197 0.931 . S
C227 C224 1.357 . S
C227 C228 1.312 . S
C228 H199 0.930 . S
C228 C223 1.261 . S
C228 C227 1.312 . S
C229 O201 1.214 . S
C229 O209 1.234 . S
C230 H202 0.929 . S
C230 C233 1.391 . S
C230 C235 1.391 . S
C231 H203 0.929 . S
C231 C232 1.390 . S
C231 N234 1.391 . S
C232 H204 0.930 . S
C232 C231 1.390 . S
C232 C233 1.392 . S
C233 H205 0.929 . S
C233 C230 1.391 . S
C233 C232 1.392 . S
N234 Co178 2.257 . S
N234 C231 1.391 . S
N234 C235 1.388 . S
C235 H206 0.930 . S
C235 C230 1.391 . S
C235 N234 1.388 . S
Co236 O238 2.143 . S
Co236 O244 2.074 . S
Co236 O247 2.093 . S
Co236 O260 2.097 . S
Co236 N277 2.151 . S
Co236 N285 2.214 . S
Co237 O238 2.160 . S
Co237 O243 2.058 . S
Co237 O253 2.057 . S
Co237 O268 2.037 . S
Co237 N272 2.145 . S
Co237 N293 2.257 . S
O238 Co236 2.143 . S
O238 Co237 2.160 . S
C239 O240 1.278 . S
C239 O247 1.224 . S
O240 C239 1.278 . S
C241 O242 1.245 . S
C241 O253 1.232 . S
O242 C241 1.245 . S
O243 Co237 2.058 . S
O243 C269 1.269 . S
O244 Co236 2.074 . S
O244 C269 1.257 . S
H245 C270 0.930 . S
H246 C276 0.930 . S
O247 Co236 2.093 . S
O247 C239 1.224 . S
H248 C280 0.929 . S
H249 C282 0.930 . S
H250 C283 0.930 . S
H251 C281 0.929 . S
H252 C284 0.928 . S
O253 Co237 2.057 . S
O253 C241 1.232 . S
H254 C273 0.929 . S
H255 C274 0.929 . S
H256 C286 0.931 . S
H257 C278 0.929 . S
H258 C287 0.930 . S
H259 C279 0.931 . S
O260 Co236 2.097 . S
O260 C288 1.214 . S
H261 C289 0.929 . S
H262 C290 0.929 . S
H263 C291 0.930 . S
H264 C292 0.929 . S
H265 C294 0.930 . S
H266 C271 0.930 . S
H267 C275 0.930 . S
O268 Co237 2.037 . S
O268 C288 1.234 . S
C269 O243 1.269 . S
C269 O244 1.257 . S
C270 H245 0.930 . S
C270 C273 1.388 . S
C270 C275 1.418 . S
C271 H266 0.930 . S
C271 C274 1.404 . S
C271 C275 1.353 . S
N272 Co237 2.145 . S
N272 C273 1.397 . S
N272 C274 1.334 . S
C273 H254 0.929 . S
C273 C270 1.388 . S
C273 N272 1.397 . S
C274 H255 0.929 . S
C274 C271 1.404 . S
C274 N272 1.334 . S
C275 H267 0.930 . S
C275 C270 1.418 . S
C275 C271 1.353 . S
C276 H246 0.930 . S
C276 N277 1.330 . S
C276 C278 1.446 . S
N277 Co236 2.151 . S
N277 C276 1.330 . S
N277 C281 1.418 . S
C278 H257 0.929 . S
C278 C276 1.446 . S
C278 C279 1.332 . S
C279 H259 0.931 . S
C279 C278 1.332 . S
C279 C280 1.267 . S
C280 H248 0.929 . S
C280 C279 1.267 . S
C280 C281 1.251 . S
C281 H251 0.929 . S
C281 N277 1.418 . S
C281 C280 1.251 . S
C282 H249 0.930 . S
C282 C284 1.406 . S
C282 C287 1.261 . S
C283 H250 0.930 . S
C283 N285 1.325 . S
C283 C286 1.357 . S
C284 H252 0.928 . S
C284 C282 1.406 . S
C284 N285 1.261 . S
N285 Co236 2.214 . S
N285 C283 1.325 . S
N285 C284 1.261 . S
C286 H256 0.931 . S
C286 C283 1.357 . S
C286 C287 1.312 . S
C287 H258 0.930 . S
C287 C282 1.261 . S
C287 C286 1.312 . S
C288 O260 1.214 . S
C288 O268 1.234 . S
C289 H261 0.929 . S
C289 C292 1.391 . S
C289 C294 1.391 . S
C290 H262 0.929 . S
C290 C291 1.390 . S
C290 N293 1.391 . S
C291 H263 0.930 . S
C291 C290 1.390 . S
C291 C292 1.392 . S
C292 H264 0.929 . S
C292 C289 1.391 . S
C292 C291 1.392 . S
N293 Co237 2.257 . S
N293 C290 1.391 . S
N293 C294 1.388 . S
C294 H265 0.930 . S
C294 C289 1.391 . S
C294 N293 1.388 . S
Co295 O297 2.143 . S
Co295 O303 2.074 . S
Co295 O306 2.093 . S
Co295 O319 2.097 1_556 S
Co295 N336 2.151 . S
Co295 N344 2.214 . S
Co296 O297 2.160 1_554 S
Co296 O302 2.058 . S
Co296 O312 2.057 . S
Co296 O327 2.037 . S
Co296 N331 2.145 . S
Co296 N352 2.257 . S
O297 Co295 2.143 . S
O297 Co296 2.160 1_556 S
C298 O299 1.278 . S
C298 O306 1.224 . S
O299 C298 1.278 . S
C300 O301 1.245 . S
C300 O312 1.232 1_556 S
O301 C300 1.245 . S
O302 Co296 2.058 . S
O302 C328 1.265 1_554 S
O303 Co295 2.074 . S
O303 C328 1.260 . S
H304 C329 0.930 . S
H305 C335 0.930 . S
O306 Co295 2.093 . S
O306 C298 1.224 . S
H307 C339 0.929 . S
H308 C341 0.930 . S
H309 C342 0.930 . S
H310 C340 0.929 . S
H311 C343 0.928 . S
O312 Co296 2.057 . S
O312 C300 1.232 1_554 S
H313 C332 0.929 . S
H314 C333 0.929 . S
H315 C345 0.931 . S
H316 C337 0.929 . S
H317 C346 0.930 . S
H318 C338 0.931 . S
O319 Co295 2.097 1_554 S
O319 C347 1.214 . S
H320 C348 0.929 . S
H321 C349 0.929 . S
H322 C350 0.930 . S
H323 C351 0.929 . S
H324 C353 0.930 . S
H325 C330 0.930 . S
H326 C334 0.930 . S
O327 Co296 2.037 . S
O327 C347 1.234 . S
C328 O302 1.265 1_556 S
C328 O303 1.260 . S
C329 H304 0.930 . S
C329 C332 1.388 . S
C329 C334 1.418 . S
C330 H325 0.930 . S
C330 C333 1.404 . S
C330 C334 1.353 . S
N331 Co296 2.145 . S
N331 C332 1.397 . S
N331 C333 1.334 . S
C332 H313 0.929 . S
C332 C329 1.388 . S
C332 N331 1.397 . S
C333 H314 0.929 . S
C333 C330 1.404 . S
C333 N331 1.334 . S
C334 H326 0.930 . S
C334 C329 1.418 . S
C334 C330 1.353 . S
C335 H305 0.930 . S
C335 N336 1.330 . S
C335 C337 1.446 . S
N336 Co295 2.151 . S
N336 C335 1.330 . S
N336 C340 1.418 . S
C337 H316 0.929 . S
C337 C335 1.446 . S
C337 C338 1.332 . S
C338 H318 0.931 . S
C338 C337 1.332 . S
C338 C339 1.267 . S
C339 H307 0.929 . S
C339 C338 1.267 . S
C339 C340 1.251 . S
C340 H310 0.929 . S
C340 N336 1.418 . S
C340 C339 1.251 . S
C341 H308 0.930 . S
C341 C343 1.406 . S
C341 C346 1.261 . S
C342 H309 0.930 . S
C342 N344 1.325 1_554 S
C342 C345 1.357 . S
C343 H311 0.928 . S
C343 C341 1.406 . S
C343 N344 1.261 . S
N344 Co295 2.214 . S
N344 C342 1.325 1_556 S
N344 C343 1.261 . S
C345 H315 0.931 . S
C345 C342 1.357 . S
C345 C346 1.312 1_554 S
C346 H317 0.930 . S
C346 C341 1.261 . S
C346 C345 1.312 1_556 S
C347 O319 1.214 . S
C347 O327 1.234 . S
C348 H320 0.929 . S
C348 C351 1.391 . S
C348 C353 1.391 . S
C349 H321 0.929 . S
C349 C350 1.390 . S
C349 N352 1.391 . S
C350 H322 0.930 . S
C350 C349 1.390 . S
C350 C351 1.392 . S
C351 H323 0.929 . S
C351 C348 1.391 . S
C351 C350 1.392 . S
N352 Co296 2.257 . S
N352 C349 1.391 . S
N352 C353 1.388 . S
C353 H324 0.930 . S
C353 C348 1.391 . S
C353 N352 1.388 . S
C354 C355 1.349 1_556 S
C354 C356 1.327 . S
C354 H379 0.950 . S
C355 C354 1.349 1_554 S
C355 C371 1.349 . S
C356 C354 1.327 . S
C356 C375 1.429 1_556 S
C356 H380 0.950 . S
C357 C374 1.574 . S
C357 C376 1.368 . S
C357 H381 0.949 . S
H358 C362 0.949 . S
C359 C360 1.349 1_554 S
C359 C361 1.327 . S
C359 H382 0.950 . S
C360 C359 1.349 1_556 S
C360 C372 1.349 . S
C361 C359 1.327 . S
C361 C377 1.429 . S
C361 H383 0.950 . S
C362 H358 0.949 . S
C362 C370 1.574 . S
C362 C378 1.368 1_556 S
H363 C371 0.950 . S
H364 C369 0.950 . S
H365 C370 0.949 . S
H366 C372 0.950 . S
H367 C373 0.950 . S
H368 C374 0.949 . S
C369 H364 0.950 . S
C369 C371 1.327 . S
C369 C375 1.429 . S
C370 C362 1.574 . S
C370 H365 0.949 . S
C370 C376 1.368 1_556 S
C371 C355 1.349 . S
C371 H363 0.950 . S
C371 C369 1.327 . S
C372 C360 1.349 . S
C372 H366 0.950 . S
C372 C373 1.327 . S
C373 H367 0.950 . S
C373 C372 1.327 . S
C373 C377 1.429 1_556 S
C374 C357 1.574 . S
C374 H368 0.949 . S
C374 C378 1.368 . S
C375 C356 1.429 1_554 S
C375 C369 1.429 . S
C375 C376 1.523 . S
C376 C357 1.368 . S
C376 C370 1.368 1_554 S
C376 C375 1.523 . S
C377 C361 1.429 . S
C377 C373 1.429 1_554 S
C377 C378 1.523 . S
C378 C362 1.368 1_554 S
C378 C374 1.368 . S
C378 C377 1.523 . S
H379 C354 0.950 . S
H380 C356 0.950 . S
H381 C357 0.949 . S
H382 C359 0.950 . S
H383 C361 0.950 . S
C384 C385 1.349 1_455 S
C384 C386 1.327 . S
C384 H409 0.950 . S
C385 C384 1.349 1_655 S
C385 C401 1.349 . S
C386 C384 1.327 . S
C386 C405 1.429 1_455 S
C386 H410 0.950 . S
C387 C404 1.574 1_655 S
C387 C406 1.368 1_655 S
C387 H411 0.949 . S
H388 C392 0.949 . S
C389 C390 1.349 . S
C389 C391 1.327 . S
C389 H412 0.950 . S
C390 C389 1.349 . S
C390 C402 1.349 . S
C391 C389 1.327 . S
C391 C407 1.429 . S
C391 H413 0.950 . S
C392 H388 0.949 . S
C392 C400 1.574 . S
C392 C408 1.368 . S
H393 C401 0.950 . S
H394 C399 0.950 . S
H395 C400 0.949 . S
H396 C402 0.950 . S
H397 C403 0.950 . S
H398 C404 0.944 1_655 S
C399 H394 0.950 . S
C399 C401 1.327 . S
C399 C405 1.429 . S
C400 C392 1.574 . S
C400 H395 0.949 . S
C400 C406 1.368 . S
C401 C385 1.349 . S
C401 H393 0.950 . S
C401 C399 1.327 . S
C402 C390 1.349 . S
C402 H396 0.950 . S
C402 C403 1.327 . S
C403 H397 0.950 . S
C403 C402 1.327 . S
C403 C407 1.429 . S
C404 C387 1.574 1_455 S
C404 H398 0.944 1_455 S
C404 C408 1.368 . S
C405 C386 1.429 1_655 S
C405 C399 1.429 . S
C405 C406 1.523 1_655 S
C406 C387 1.368 1_455 S
C406 C400 1.368 . S
C406 C405 1.523 1_455 S
C407 C391 1.429 . S
C407 C403 1.429 . S
C407 C408 1.523 . S
C408 C392 1.368 . S
C408 C404 1.368 . S
C408 C407 1.523 . S
H409 C384 0.950 . S
H410 C386 0.950 . S
H411 C387 0.949 . S
H412 C389 0.950 . S
H413 C391 0.950 . S
C414 C415 1.349 . S
C414 C416 1.327 . S
C414 H439 0.950 . S
C415 C414 1.349 . S
C415 C431 1.349 . S
C416 C414 1.327 . S
C416 C435 1.429 . S
C416 H440 0.950 . S
C417 C434 1.574 . S
C417 C436 1.368 . S
C417 H441 0.949 . S
H418 C422 0.949 1_565 S
C419 C420 1.349 . S
C419 C421 1.327 . S
C419 H442 0.950 . S
C420 C419 1.349 . S
C420 C432 1.349 . S
C421 C419 1.327 . S
C421 C437 1.429 . S
C421 H443 0.950 . S
C422 H418 0.949 1_545 S
C422 C430 1.574 . S
C422 C438 1.368 1_545 S
H423 C431 0.950 . S
H424 C429 0.950 . S
H425 C430 0.949 . S
H426 C432 0.950 . S
H427 C433 0.950 . S
H428 C434 0.930 1_565 S
C429 H424 0.950 . S
C429 C431 1.327 . S
C429 C435 1.429 . S
C430 C422 1.574 . S
C430 H425 0.949 . S
C430 C436 1.368 . S
C431 C415 1.349 . S
C431 H423 0.950 . S
C431 C429 1.327 . S
C432 C420 1.349 . S
C432 H426 0.950 . S
C432 C433 1.327 . S
C433 H427 0.950 . S
C433 C432 1.327 . S
C433 C437 1.429 . S
C434 C417 1.574 . S
C434 H428 0.930 1_545 S
C434 C438 1.368 1_545 S
C435 C416 1.429 . S
C435 C429 1.429 . S
C435 C436 1.523 . S
C436 C417 1.368 . S
C436 C430 1.368 . S
C436 C435 1.523 . S
C437 C421 1.429 . S
C437 C433 1.429 . S
C437 C438 1.523 . S
C438 C422 1.368 1_565 S
C438 C434 1.368 1_565 S
C438 C437 1.523 . S
H439 C414 0.950 . S
H440 C416 0.950 . S
H441 C417 0.949 . S
H442 C419 0.950 . S
H443 C421 0.950 . S
C444 C445 1.349 . S
C444 C446 1.327 . S
C444 H469 0.950 . S
C445 C444 1.349 . S
C445 C461 1.349 . S
C446 C444 1.327 . S
C446 C465 1.429 . S
C446 H470 0.950 . S
C447 C464 1.574 1_554 S
C447 C466 1.368 . S
C447 H471 0.949 . S
H448 C452 0.949 . S
C449 C450 1.349 . S
C449 C451 1.327 . S
C449 H472 0.950 . S
C450 C449 1.349 . S
C450 C462 1.349 . S
C451 C449 1.327 . S
C451 C467 1.429 . S
C451 H473 0.950 . S
C452 H448 0.949 . S
C452 C460 1.574 1_556 S
C452 C468 1.368 . S
H453 C461 0.950 . S
H454 C459 0.950 . S
H455 C460 0.949 . S
H456 C462 0.950 . S
H457 C463 0.950 . S
H458 C464 0.949 . S
C459 H454 0.950 . S
C459 C461 1.327 . S
C459 C465 1.429 . S
C460 C452 1.574 1_554 S
C460 H455 0.949 . S
C460 C466 1.368 . S
C461 C445 1.349 . S
C461 H453 0.950 . S
C461 C459 1.327 . S
C462 C450 1.349 . S
C462 H456 0.950 . S
C462 C463 1.327 . S
C463 H457 0.950 . S
C463 C462 1.327 . S
C463 C467 1.429 . S
C464 C447 1.574 1_556 S
C464 H458 0.949 . S
C464 C468 1.368 . S
C465 C446 1.429 . S
C465 C459 1.429 . S
C465 C466 1.523 . S
C466 C447 1.368 . S
C466 C460 1.368 . S
C466 C465 1.523 . S
C467 C451 1.429 . S
C467 C463 1.429 . S
C467 C468 1.523 . S
C468 C452 1.368 . S
C468 C464 1.368 . S
C468 C467 1.523 . S
H469 C444 0.950 . S
H470 C446 0.950 . S
H471 C447 0.949 . S
H472 C449 0.950 . S
H473 C451 0.950 . S
C474 C475 1.349 . S
C474 C476 1.327 . S
C474 H499 0.950 . S
C475 C474 1.349 . S
C475 C491 1.349 . S
C476 C474 1.327 . S
C476 C495 1.429 . S
C476 H500 0.950 . S
C477 C494 1.574 . S
C477 C496 1.368 . S
C477 H501 0.949 . S
H478 C482 0.949 1_455 S
C479 C480 1.349 . S
C479 C481 1.327 . S
C479 H502 0.950 . S
C480 C479 1.349 . S
C480 C492 1.349 . S
C481 C479 1.327 . S
C481 C497 1.429 . S
C481 H503 0.950 . S
C482 H478 0.949 1_655 S
C482 C490 1.574 . S
C482 C498 1.365 1_655 S
H483 C491 0.950 . S
H484 C489 0.950 . S
H485 C490 0.949 . S
H486 C492 0.950 . S
H487 C493 0.950 . S
H488 C494 0.954 . S
C489 H484 0.950 . S
C489 C491 1.327 . S
C489 C495 1.429 . S
C490 C482 1.574 . S
C490 H485 0.949 . S
C490 C496 1.368 . S
C491 C475 1.349 . S
C491 H483 0.950 . S
C491 C489 1.327 . S
C492 C480 1.349 . S
C492 H486 0.950 . S
C492 C493 1.327 . S
C493 H487 0.950 . S
C493 C492 1.327 . S
C493 C497 1.429 . S
C494 C477 1.574 . S
C494 H488 0.954 . S
C494 C498 1.345 1_655 S
C495 C476 1.429 . S
C495 C489 1.429 . S
C495 C496 1.523 . S
C496 C477 1.368 . S
C496 C490 1.368 . S
C496 C495 1.523 . S
C497 C481 1.429 . S
C497 C493 1.429 . S
C497 C498 1.559 . S
C498 C482 1.365 1_455 S
C498 C494 1.345 1_455 S
C498 C497 1.559 . S
H499 C474 0.950 . S
H500 C476 0.950 . S
H501 C477 0.949 . S
H502 C479 0.950 . S
H503 C481 0.950 . S
C504 C505 1.349 . S
C504 C506 1.327 1_545 S
C504 H529 0.950 1_545 S
C505 C504 1.349 . S
C505 C521 1.349 . S
C506 C504 1.327 1_565 S
C506 C525 1.429 1_565 S
C506 H530 0.950 . S
C507 C524 1.574 1_545 S
C507 C526 1.368 1_545 S
C507 H531 0.949 . S
H508 C512 0.949 . S
C509 C510 1.349 . S
C509 C511 1.327 . S
C509 H532 0.950 . S
C510 C509 1.349 . S
C510 C522 1.349 . S
C511 C509 1.327 . S
C511 C527 1.429 . S
C511 H533 0.950 . S
C512 H508 0.949 . S
C512 C520 1.574 . S
C512 C528 1.368 . S
H513 C521 0.950 . S
H514 C519 0.950 . S
H515 C520 0.949 . S
H516 C522 0.950 . S
H517 C523 0.950 . S
H518 C524 0.949 . S
C519 H514 0.950 . S
C519 C521 1.327 . S
C519 C525 1.429 . S
C520 C512 1.574 . S
C520 H515 0.949 . S
C520 C526 1.368 . S
C521 C505 1.349 . S
C521 H513 0.950 . S
C521 C519 1.327 . S
C522 C510 1.349 . S
C522 H516 0.950 . S
C522 C523 1.327 . S
C523 H517 0.950 . S
C523 C522 1.327 . S
C523 C527 1.429 . S
C524 C507 1.574 1_565 S
C524 H518 0.949 . S
C524 C528 1.368 . S
C525 C506 1.429 1_545 S
C525 C519 1.429 . S
C525 C526 1.523 1_545 S
C526 C507 1.368 1_565 S
C526 C520 1.368 . S
C526 C525 1.523 1_565 S
C527 C511 1.429 . S
C527 C523 1.429 . S
C527 C528 1.523 . S
C528 C512 1.368 . S
C528 C524 1.368 . S
C528 C527 1.523 . S
H529 C504 0.950 1_565 S
H530 C506 0.950 . S
H531 C507 0.949 . S
H532 C509 0.950 . S
H533 C511 0.950 . S
C534 C535 1.349 . S
C534 C536 1.327 . S
C534 H559 0.950 . S
C535 C534 1.349 . S
C535 C551 1.349 . S
C536 C534 1.327 . S
C536 C555 1.429 . S
C536 H560 0.950 . S
C537 C554 1.574 . S
C537 C556 1.368 . S
C537 H561 0.949 . S
H538 C542 0.949 . S
C539 C540 1.349 . S
C539 C541 1.327 . S
C539 H562 0.950 . S
C540 C539 1.349 . S
C540 C552 1.349 . S
C541 C539 1.327 . S
C541 C557 1.429 . S
C541 H563 0.950 . S
C542 H538 0.949 . S
C542 C550 1.574 . S
C542 C558 1.368 . S
H543 C551 0.950 . S
H544 C549 0.950 . S
H545 C550 0.949 . S
H546 C552 0.950 . S
H547 C553 0.950 . S
H548 C554 0.949 . S
C549 H544 0.950 . S
C549 C551 1.327 . S
C549 C555 1.429 . S
C550 C542 1.574 . S
C550 H545 0.949 . S
C550 C556 1.368 . S
C551 C535 1.349 . S
C551 H543 0.950 . S
C551 C549 1.327 . S
C552 C540 1.349 . S
C552 H546 0.950 . S
C552 C553 1.327 . S
C553 H547 0.950 . S
C553 C552 1.327 . S
C553 C557 1.429 . S
C554 C537 1.574 . S
C554 H548 0.949 . S
C554 C558 1.368 . S
C555 C536 1.429 . S
C555 C549 1.429 . S
C555 C556 1.523 . S
C556 C537 1.368 . S
C556 C550 1.368 . S
C556 C555 1.523 . S
C557 C541 1.429 . S
C557 C553 1.429 . S
C557 C558 1.523 . S
C558 C542 1.368 . S
C558 C554 1.368 . S
C558 C557 1.523 . S
H559 C534 0.950 . S
H560 C536 0.950 . S
H561 C537 0.949 . S
H562 C539 0.950 . S
H563 C541 0.950 . S
C564 C565 1.349 . S
C564 C566 1.327 . S
C564 H589 0.950 1_556 S
C565 C564 1.349 . S
C565 C581 1.349 . S
C566 C564 1.327 . S
C566 C585 1.429 . S
C566 H590 0.950 . S
C567 C584 1.574 . S
C567 C586 1.368 . S
C567 H591 0.949 . S
H568 C572 0.949 . S
C569 C570 1.349 . S
C569 C571 1.327 . S
C569 H592 0.950 . S
C570 C569 1.349 . S
C570 C582 1.349 . S
C571 C569 1.327 . S
C571 C587 1.429 . S
C571 H593 0.950 . S
C572 H568 0.949 . S
C572 C580 1.574 . S
C572 C588 1.368 . S
H573 C581 0.950 . S
H574 C579 0.950 . S
H575 C580 0.949 . S
H576 C582 0.950 . S
H577 C583 0.950 . S
H578 C584 0.949 . S
C579 H574 0.950 . S
C579 C581 1.327 . S
C579 C585 1.429 . S
C580 C572 1.574 . S
C580 H575 0.949 . S
C580 C586 1.368 . S
C581 C565 1.349 . S
C581 H573 0.950 . S
C581 C579 1.327 . S
C582 C570 1.349 . S
C582 H576 0.950 . S
C582 C583 1.327 . S
C583 H577 0.950 . S
C583 C582 1.327 . S
C583 C587 1.429 . S
C584 C567 1.574 . S
C584 H578 0.949 . S
C584 C588 1.368 . S
C585 C566 1.429 . S
C585 C579 1.429 . S
C585 C586 1.523 . S
C586 C567 1.368 . S
C586 C580 1.368 . S
C586 C585 1.523 . S
C587 C571 1.429 . S
C587 C583 1.429 . S
C587 C588 1.523 . S
C588 C572 1.368 . S
C588 C584 1.368 . S
C588 C587 1.523 . S
H589 C564 0.950 1_554 S
H590 C566 0.950 . S
H591 C567 0.949 . S
H592 C569 0.950 . S
H593 C571 0.950 . S
C594 C595 1.349 . S
C594 C596 1.327 . S
C594 H619 0.950 . S
C595 C594 1.349 . S
C595 C611 1.349 . S
C596 C594 1.327 . S
C596 C615 1.429 . S
C596 H620 0.950 . S
C597 C614 1.574 . S
C597 C616 1.368 . S
C597 H621 0.949 . S
H598 C602 0.949 . S
C599 C600 1.349 . S
C599 C601 1.327 . S
C599 H622 0.950 . S
C600 C599 1.349 . S
C600 C612 1.349 . S
C601 C599 1.327 . S
C601 C617 1.429 . S
C601 H623 0.950 . S
C602 H598 0.949 . S
C602 C610 1.574 . S
C602 C618 1.368 . S
H603 C611 0.950 . S
H604 C609 0.950 . S
H605 C610 0.949 . S
H606 C612 0.950 . S
H607 C613 0.950 . S
H608 C614 0.949 . S
C609 H604 0.950 . S
C609 C611 1.327 . S
C609 C615 1.429 . S
C610 C602 1.574 . S
C610 H605 0.949 . S
C610 C616 1.368 . S
C611 C595 1.349 . S
C611 H603 0.950 . S
C611 C609 1.327 . S
C612 C600 1.349 . S
C612 H606 0.950 . S
C612 C613 1.327 . S
C613 H607 0.950 . S
C613 C612 1.327 . S
C613 C617 1.429 . S
C614 C597 1.574 . S
C614 H608 0.949 . S
C614 C618 1.368 . S
C615 C596 1.429 . S
C615 C609 1.429 . S
C615 C616 1.523 . S
C616 C597 1.368 . S
C616 C610 1.368 . S
C616 C615 1.523 . S
C617 C601 1.429 . S
C617 C613 1.429 . S
C617 C618 1.523 . S
C618 C602 1.368 . S
C618 C614 1.368 . S
C618 C617 1.523 . S
H619 C594 0.950 . S
H620 C596 0.950 . S
H621 C597 0.949 . S
H622 C599 0.950 . S
H623 C601 0.950 . S
C624 C625 1.349 . S
C624 C626 1.327 . S
C624 H649 0.950 . S
C625 C624 1.349 . S
C625 C641 1.349 . S
C626 C624 1.327 . S
C626 C645 1.429 . S
C626 H650 0.950 . S
C627 C644 1.574 . S
C627 C646 1.368 . S
C627 H651 0.949 . S
H628 C632 0.949 . S
C629 C630 1.349 . S
C629 C631 1.327 . S
C629 H652 0.950 . S
C630 C629 1.349 . S
C630 C642 1.349 . S
C631 C629 1.327 . S
C631 C647 1.429 . S
C631 H653 0.950 . S
C632 H628 0.949 . S
C632 C640 1.574 . S
C632 C648 1.368 . S
H633 C641 0.950 . S
H634 C639 0.950 . S
H635 C640 0.949 . S
H636 C642 0.950 . S
H637 C643 0.950 . S
H638 C644 0.949 . S
C639 H634 0.950 . S
C639 C641 1.327 . S
C639 C645 1.429 . S
C640 C632 1.574 . S
C640 H635 0.949 . S
C640 C646 1.368 . S
C641 C625 1.349 . S
C641 H633 0.950 . S
C641 C639 1.327 . S
C642 C630 1.349 . S
C642 H636 0.950 . S
C642 C643 1.327 . S
C643 H637 0.950 . S
C643 C642 1.327 . S
C643 C647 1.429 . S
C644 C627 1.574 . S
C644 H638 0.949 . S
C644 C648 1.368 . S
C645 C626 1.429 . S
C645 C639 1.429 . S
C645 C646 1.523 . S
C646 C627 1.368 . S
C646 C640 1.368 . S
C646 C645 1.523 . S
C647 C631 1.429 . S
C647 C643 1.429 . S
C647 C648 1.523 . S
C648 C632 1.368 . S
C648 C644 1.368 . S
C648 C647 1.523 . S
H649 C624 0.950 . S
H650 C626 0.950 . S
H651 C627 0.949 . S
H652 C629 0.950 . S
H653 C631 0.950 . S
C654 C655 1.349 . S
C654 C656 1.327 . S
C654 H679 0.950 . S
C655 C654 1.349 . S
C655 C671 1.349 . S
C656 C654 1.327 . S
C656 C675 1.429 . S
C656 H680 0.950 . S
C657 C674 1.574 . S
C657 C676 1.368 . S
C657 H681 0.949 . S
H658 C662 0.949 . S
C659 C660 1.349 . S
C659 C661 1.327 . S
C659 H682 0.950 . S
C660 C659 1.349 . S
C660 C672 1.349 . S
C661 C659 1.327 . S
C661 C677 1.429 . S
C661 H683 0.950 . S
C662 H658 0.949 . S
C662 C670 1.574 . S
C662 C678 1.368 . S
H663 C671 0.950 . S
H664 C669 0.950 . S
H665 C670 0.949 . S
H666 C672 0.950 . S
H667 C673 0.950 . S
H668 C674 0.949 . S
C669 H664 0.950 . S
C669 C671 1.327 . S
C669 C675 1.429 . S
C670 C662 1.574 . S
C670 H665 0.949 . S
C670 C676 1.368 . S
C671 C655 1.349 . S
C671 H663 0.950 . S
C671 C669 1.327 . S
C672 C660 1.349 . S
C672 H666 0.950 . S
C672 C673 1.327 . S
C673 H667 0.950 . S
C673 C672 1.327 . S
C673 C677 1.429 . S
C674 C657 1.574 . S
C674 H668 0.949 . S
C674 C678 1.368 . S
C675 C656 1.429 . S
C675 C669 1.429 . S
C675 C676 1.523 . S
C676 C657 1.368 . S
C676 C670 1.368 . S
C676 C675 1.523 . S
C677 C661 1.429 . S
C677 C673 1.429 . S
C677 C678 1.523 . S
C678 C662 1.368 . S
C678 C674 1.368 . S
C678 C677 1.523 . S
H679 C654 0.950 . S
H680 C656 0.950 . S
H681 C657 0.949 . S
H682 C659 0.950 . S
H683 C661 0.950 . S
C684 C685 1.349 . S
C684 C686 1.327 . S
C684 H709 0.950 . S
C685 C684 1.349 . S
C685 C701 1.349 . S
C686 C684 1.327 . S
C686 C705 1.429 . S
C686 H710 0.950 . S
C687 C704 1.574 . S
C687 C706 1.368 . S
C687 H711 0.949 . S
H688 C692 0.949 . S
C689 C690 1.349 . S
C689 C691 1.327 . S
C689 H712 0.950 . S
C690 C689 1.349 . S
C690 C702 1.349 . S
C691 C689 1.327 . S
C691 C707 1.429 . S
C691 H713 0.950 . S
C692 H688 0.949 . S
C692 C700 1.574 . S
C692 C708 1.368 . S
H693 C701 0.950 . S
H694 C699 0.950 . S
H695 C700 0.949 . S
H696 C702 0.950 . S
H697 C703 0.950 . S
H698 C704 0.949 . S
C699 H694 0.950 . S
C699 C701 1.327 . S
C699 C705 1.429 . S
C700 C692 1.574 . S
C700 H695 0.949 . S
C700 C706 1.368 . S
C701 C685 1.349 . S
C701 H693 0.950 . S
C701 C699 1.327 . S
C702 C690 1.349 . S
C702 H696 0.950 . S
C702 C703 1.327 . S
C703 H697 0.950 . S
C703 C702 1.327 . S
C703 C707 1.429 . S
C704 C687 1.574 . S
C704 H698 0.949 . S
C704 C708 1.368 . S
C705 C686 1.429 . S
C705 C699 1.429 . S
C705 C706 1.523 . S
C706 C687 1.368 . S
C706 C700 1.368 . S
C706 C705 1.523 . S
C707 C691 1.429 . S
C707 C703 1.429 . S
C707 C708 1.523 . S
C708 C692 1.368 . S
C708 C704 1.368 . S
C708 C707 1.523 . S
H709 C684 0.950 . S
H710 C686 0.950 . S
H711 C687 0.949 . S
H712 C689 0.950 . S
H713 C691 0.950 . S
C355 C5 1.319 . S
C360 C328 1.318 . S
C385 C64 2.135 . S
C390 C33 2.132 . S
C415 C92 1.380 . S
C420 C123 1.382 . S
C445 C182 2.143 . S
C450 C151 2.133 . S
C475 C210 1.387 . S
C480 C241 1.388 . S
C505 C300 2.147 . S
C510 C269 2.125 . S
C535 C239 1.354 . S
C540 C52 1.478 . S
C565 C298 1.488 . S
C570 C111 1.402 . S
C595 C170 1.514 . S
C600 C3 1.398 . S
C625 C229 1.450 . S
C630 C62 1.528 . S
C655 C288 1.501 . S
C660 C121 1.385 . S
C685 C347 1.467 . S
C690 C180 1.551 . S
