# Generated by pormake.
# Topology vmn, (7)-cn, num edge types: 1
# Building blocks:
#     Node 0, Type 0, BuildingBlock: HICVOG_clean_sbu_0, # of connection points: 7
#     Node 1, Type 0, BuildingBlock: HICVOG_clean_sbu_0, # of connection points: 7
#     Node 2, Type 0, BuildingBlock: HICVOG_clean_sbu_0, # of connection points: 7
#     Node 3, Type 0, BuildingBlock: HICVOG_clean_sbu_0, # of connection points: 7
#     Node 4, Type 0, BuildingBlock: HICVOG_clean_sbu_0, # of connection points: 7
#     Node 5, Type 0, BuildingBlock: HICVOG_clean_sbu_0, # of connection points: 7
#     Node 6, Type 0, BuildingBlock: HICVOG_clean_sbu_0, # of connection points: 7
#     Node 7, Type 0, BuildingBlock: HICVOG_clean_sbu_0, # of connection points: 7
#     Edge 8, Type (0, 0), BuildingBlock: CIFDUS_clean_linker_0, # of connection points: 2
#     Edge 9, Type (0, 0), BuildingBlock: CIFDUS_clean_linker_0, # of connection points: 2
#     Edge 10, Type (0, 0), BuildingBlock: CIFDUS_clean_linker_0, # of connection points: 2
#     Edge 11, Type (0, 0), BuildingBlock: CIFDUS_clean_linker_0, # of connection points: 2
#     Edge 12, Type (0, 0), BuildingBlock: CIFDUS_clean_linker_0, # of connection points: 2
#     Edge 13, Type (0, 0), BuildingBlock: CIFDUS_clean_linker_0, # of connection points: 2
#     Edge 14, Type (0, 0), BuildingBlock: CIFDUS_clean_linker_0, # of connection points: 2
#     Edge 15, Type (0, 0), BuildingBlock: CIFDUS_clean_linker_0, # of connection points: 2
#     Edge 16, Type (0, 0), BuildingBlock: CIFDUS_clean_linker_0, # of connection points: 2
#     Edge 17, Type (0, 0), BuildingBlock: CIFDUS_clean_linker_0, # of connection points: 2
#     Edge 18, Type (0, 0), BuildingBlock: CIFDUS_clean_linker_0, # of connection points: 2
#     Edge 19, Type (0, 0), BuildingBlock: CIFDUS_clean_linker_0, # of connection points: 2
#     Edge 20, Type (0, 0), BuildingBlock: CIFDUS_clean_linker_0, # of connection points: 2
#     Edge 21, Type (0, 0), BuildingBlock: CIFDUS_clean_linker_0, # of connection points: 2
#     Edge 22, Type (0, 0), BuildingBlock: CIFDUS_clean_linker_0, # of connection points: 2
#     Edge 23, Type (0, 0), BuildingBlock: CIFDUS_clean_linker_0, # of connection points: 2
#     Edge 24, Type (0, 0), BuildingBlock: CIFDUS_clean_linker_0, # of connection points: 2
#     Edge 25, Type (0, 0), BuildingBlock: CIFDUS_clean_linker_0, # of connection points: 2
#     Edge 26, Type (0, 0), BuildingBlock: CIFDUS_clean_linker_0, # of connection points: 2
#     Edge 27, Type (0, 0), BuildingBlock: CIFDUS_clean_linker_0, # of connection points: 2
#     Edge 28, Type (0, 0), BuildingBlock: CIFDUS_clean_linker_0, # of connection points: 2
#     Edge 29, Type (0, 0), BuildingBlock: CIFDUS_clean_linker_0, # of connection points: 2
#     Edge 30, Type (0, 0), BuildingBlock: CIFDUS_clean_linker_0, # of connection points: 2
#     Edge 31, Type (0, 0), BuildingBlock: CIFDUS_clean_linker_0, # of connection points: 2
#     Edge 32, Type (0, 0), BuildingBlock: CIFDUS_clean_linker_0, # of connection points: 2
#     Edge 33, Type (0, 0), BuildingBlock: CIFDUS_clean_linker_0, # of connection points: 2
#     Edge 34, Type (0, 0), BuildingBlock: CIFDUS_clean_linker_0, # of connection points: 2
#     Edge 35, Type (0, 0), BuildingBlock: CIFDUS_clean_linker_0, # of connection points: 2
# Relax obj value: 0.167
# Max RMSD: 0.219
# Mean RMSD: 0.219
data_MOF--net-vmn--node1-HICVOG_clean_sbu_0--edge1-CIFDUS_clean_linker_0
_symmetry_space_group_name_H-M    P1
_symmetry_Int_Tables_number       1
_symmetry_cell_setting            triclinic
loop_
_symmetry_equiv_pos_as_xyz
'x, y, z'
_cell_length_a     35.848358
_cell_length_b     28.008188
_cell_length_c     25.325108
_cell_angle_alpha  89.839694
_cell_angle_beta   97.22214
_cell_angle_gamma 89.941156
loop_
_atom_site_label
_atom_site_type_symbol
_atom_site_fract_x
_atom_site_fract_y
_atom_site_fract_z
_atom_type_partial_charge
Zn0 Zn 0.96213 0.36156 0.17073 0.0
C1 C 0.99326 0.34391 0.32443 0.0
N2 N 0.98457 0.39082 0.32529 0.0
C3 C 0.97976 0.40296 0.27365 0.0
N4 N 0.98534 0.36506 0.24299 0.0
N5 N 0.99557 0.3281 0.27425 0.0
C6 C 0.04625 0.18061 0.25885 0.0
O7 O 0.06641 0.19299 0.22124 0.0
O8 O 0.96734 0.42382 0.13574 0.0
Zn9 Zn 0.03346 0.2821 0.25242 0.0
N10 N 0.90923 0.34479 0.16776 0.0
C11 C 0.85985 0.31146 0.2104 0.0
C12 C 0.89744 0.32423 0.21137 0.0
C13 C 0.88482 0.35309 0.12287 0.0
N14 N 0.83557 0.31935 0.16566 0.0
C15 C 0.84665 0.3397 0.12124 0.0
O16 O 0.03228 0.2746 0.17062 0.0
C17 C 0.01411 0.28838 0.12656 0.0
O18 O 0.98732 0.31807 0.12506 0.0
H19 H 0.91709 0.31776 0.24664 0.0
H20 H 0.89531 0.37025 0.08946 0.0
C21 C 0.11604 0.28694 0.26695 0.0
C22 C 0.15133 0.30809 0.28382 0.0
C23 C 0.12008 0.37082 0.32334 0.0
C24 C 0.08551 0.35015 0.30592 0.0
N25 N 0.08377 0.30829 0.2785 0.0
N26 N 0.15197 0.34949 0.3119 0.0
H27 H 0.11415 0.25412 0.24488 0.0
C28 C 1.00108 0.43326 0.12919 0.0
O29 O 0.02815 0.40489 0.15043 0.0
O30 O 0.02824 0.21309 0.28047 0.0
H31 H 0.06047 0.36826 0.31382 0.0
H32 H 0.85003 0.29515 0.24487 0.0
H33 H 0.12156 0.404 0.34528 0.0
Zn34 Zn 0.55215 0.36826 0.84987 0.0
C35 C 0.50627 0.34516 0.69908 0.0
N36 N 0.5109 0.39267 0.69505 0.0
C37 C 0.52318 0.40582 0.74509 0.0
N38 N 0.52623 0.36764 0.77813 0.0
N39 N 0.51409 0.32947 0.74999 0.0
C40 C 0.46509 0.18106 0.76993 0.0
O41 O 0.44655 0.19297 0.80949 0.0
O42 O 0.54425 0.43044 0.88377 0.0
Zn43 Zn 0.48149 0.28139 0.77969 0.0
N44 N 0.60576 0.35813 0.84891 0.0
C45 C 0.6566 0.34113 0.80003 0.0
C46 C 0.61839 0.34887 0.80162 0.0
C47 C 0.62992 0.36001 0.89496 0.0
N48 N 0.68065 0.34259 0.84587 0.0
C49 C 0.66873 0.35165 0.89388 0.0
O50 O 0.49206 0.27112 0.86015 0.0
C51 C 0.51082 0.28745 0.90227 0.0
O52 O 0.53342 0.32209 0.90072 0.0
H53 H 0.59895 0.34749 0.7654 0.0
H54 H 0.61869 0.36837 0.93147 0.0
C55 C 0.39782 0.28474 0.7605 0.0
C56 C 0.36345 0.30961 0.76006 0.0
C57 C 0.39718 0.38208 0.77538 0.0
C58 C 0.43084 0.35724 0.77741 0.0
N59 N 0.43087 0.30926 0.76964 0.0
N60 N 0.36444 0.35775 0.76723 0.0
H61 H 0.3983 0.24648 0.75573 0.0
C62 C 0.51101 0.43735 0.89441 0.0
O63 O 0.48475 0.40625 0.87796 0.0
O64 O 0.48264 0.21366 0.74772 0.0
H65 H 0.45683 0.3761 0.78642 0.0
H66 H 0.6671 0.33378 0.76266 0.0
H67 H 0.39705 0.42028 0.78155 0.0
Zn68 Zn 0.98011 0.76323 0.76873 0.0
C69 C 0.03407 0.64363 0.74633 0.0
N70 N 0.02618 0.6545 0.69445 0.0
C71 C 0.01722 0.70135 0.69505 0.0
N72 N 0.01797 0.71829 0.74537 0.0
N73 N 0.03027 0.68224 0.77689 0.0
C74 C 0.01339 0.62024 0.89686 0.0
O75 O 0.98697 0.64982 0.87629 0.0
O76 O 0.97755 0.8296 0.73467 0.0
Zn77 Zn 0.05411 0.68689 0.8494 0.0
N78 N 0.93061 0.73395 0.75063 0.0
C79 C 0.89371 0.66652 0.71994 0.0
C80 C 0.92847 0.6887 0.73114 0.0
C81 C 0.89886 0.75807 0.75919 0.0
N82 N 0.86218 0.69043 0.72853 0.0
C83 C 0.86344 0.73581 0.74775 0.0
O84 O 0.03067 0.73333 0.89415 0.0
C85 C 1.00438 0.76373 0.89309 0.0
O86 O 0.98474 0.77601 0.84961 0.0
H87 H 0.95343 0.66952 0.72466 0.0
H88 H 0.90146 0.79365 0.77571 0.0
C89 C 0.13171 0.69486 0.89821 0.0
C90 C 0.17038 0.70575 0.89914 0.0
C91 C 0.15859 0.72609 0.80716 0.0
C92 C 0.12058 0.71579 0.80683 0.0
N93 N 0.10781 0.70035 0.85215 0.0
N94 N 0.18236 0.72095 0.85295 0.0
H95 H 0.12046 0.68179 0.93312 0.0
C96 C 1.0019 0.8609 0.7513 0.0
O97 O 0.03129 0.84755 0.78437 0.0
O98 O 0.04695 0.62653 0.88722 0.0
H99 H 0.10134 0.7201 0.77068 0.0
H100 H 0.89178 0.63045 0.70467 0.0
H101 H 0.16916 0.73833 0.77132 0.0
Zn102 Zn 0.53777 0.76486 0.25781 0.0
C103 C 0.48496 0.64554 0.28245 0.0
N104 N 0.49321 0.6565 0.33418 0.0
C105 C 0.50155 0.7035 0.33306 0.0
N106 N 0.5 0.7205 0.28251 0.0
N107 N 0.4879 0.68421 0.25147 0.0
C108 C 0.50418 0.62185 0.12973 0.0
O109 O 0.53069 0.65173 0.14888 0.0
O110 O 0.54273 0.83171 0.29018 0.0
Zn111 Zn 0.46362 0.688 0.17901 0.0
N112 N 0.58703 0.73467 0.27493 0.0
C113 C 0.62397 0.66685 0.30501 0.0
C114 C 0.58922 0.68932 0.29438 0.0
C115 C 0.61872 0.75874 0.26619 0.0
N116 N 0.65545 0.69073 0.29623 0.0
C117 C 0.65412 0.7363 0.27729 0.0
O118 O 0.48613 0.73463 0.13328 0.0
C119 C 0.51235 0.76499 0.13387 0.0
O120 O 0.53227 0.77716 0.17703 0.0
H121 H 0.56434 0.67033 0.30141 0.0
H122 H 0.6161 0.79453 0.24996 0.0
C123 C 0.38594 0.69551 0.13055 0.0
C124 C 0.34713 0.70551 0.12985 0.0
C125 C 0.35868 0.72409 0.22217 0.0
C126 C 0.39683 0.71468 0.22229 0.0
N127 N 0.40979 0.70056 0.17668 0.0
N128 N 0.33496 0.7194 0.17631 0.0
H129 H 0.39735 0.68344 0.09541 0.0
C130 C 0.51858 0.865 0.28081 0.0
O131 O 0.48513 0.85479 0.25606 0.0
O132 O 0.47103 0.62755 0.14141 0.0
H133 H 0.41602 0.7186 0.25852 0.0
H134 H 0.62593 0.63067 0.32017 0.0
H135 H 0.34795 0.73526 0.25825 0.0
Zn136 Zn 0.45796 0.85925 0.68308 0.0
C137 C 0.50422 0.84501 0.83535 0.0
N138 N 0.49021 0.88938 0.83887 0.0
C139 C 0.47735 0.89983 0.78821 0.0
N140 N 0.48246 0.86328 0.75529 0.0
N141 N 0.50053 0.82893 0.78439 0.0
C142 C 0.51803 0.68794 0.77483 0.0
O143 O 0.48713 0.70145 0.74502 0.0
O144 O 0.45977 0.92245 0.64922 0.0
Zn145 Zn 0.53742 0.78624 0.75595 0.0
N146 N 0.40557 0.84113 0.68115 0.0
C147 C 0.35509 0.81117 0.72396 0.0
C148 C 0.39271 0.82437 0.72584 0.0
C149 C 0.38234 0.84526 0.63445 0.0
N150 N 0.33195 0.81493 0.67735 0.0
C151 C 0.34427 0.83145 0.63191 0.0
O152 O 0.52943 0.77441 0.67533 0.0
C153 C 0.50864 0.7869 0.63296 0.0
O154 O 0.48199 0.81655 0.63396 0.0
H155 H 0.41152 0.8213 0.76258 0.0
H156 H 0.39369 0.85967 0.60022 0.0
C157 C 0.61865 0.79435 0.76857 0.0
C158 C 0.6532 0.81914 0.77729 0.0
C159 C 0.61954 0.89108 0.7873 0.0
C160 C 0.58568 0.86648 0.77825 0.0
N161 N 0.58577 0.81858 0.76965 0.0
N162 N 0.65227 0.867 0.78651 0.0
H163 H 0.61744 0.75665 0.75963 0.0
C164 C 0.49128 0.9324 0.63419 0.0
O165 O 0.51984 0.90326 0.64635 0.0
O166 O 0.54301 0.71925 0.78896 0.0
H167 H 0.55955 0.88574 0.77751 0.0
H168 H 0.34435 0.79784 0.75922 0.0
H169 H 0.61983 0.92916 0.79435 0.0
Zn170 Zn 0.97991 0.78518 0.27214 0.0
C171 C 0.0377 0.89937 0.23842 0.0
N172 N 0.02455 0.88908 0.18789 0.0
C173 C 0.01171 0.84412 0.19146 0.0
N174 N 0.01635 0.8276 0.24241 0.0
N175 N 0.03388 0.86227 0.27131 0.0
C176 C 0.02516 0.93122 0.39368 0.0
O177 O 0.99698 0.90137 0.38305 0.0
O178 O 0.97228 0.71844 0.23957 0.0
Zn179 Zn 0.05892 0.859 0.34335 0.0
N180 N 0.93197 0.81865 0.26032 0.0
C181 C 0.89879 0.89212 0.24626 0.0
C182 C 0.93245 0.8669 0.25433 0.0
C183 C 0.89891 0.79462 0.25972 0.0
N184 N 0.86586 0.86823 0.24532 0.0
C185 C 0.86456 0.81999 0.2519 0.0
O186 O 0.03621 0.81557 0.39332 0.0
C187 C 0.01003 0.78536 0.39467 0.0
O188 O 0.9891 0.77284 0.35257 0.0
H189 H 0.95873 0.88588 0.25629 0.0
H190 H 0.89985 0.75653 0.2666 0.0
C191 C 0.13475 0.84548 0.39151 0.0
C192 C 0.17307 0.83292 0.39356 0.0
C193 C 0.16264 0.81585 0.30081 0.0
C194 C 0.12478 0.82781 0.29938 0.0
N195 N 0.1116 0.84236 0.34465 0.0
N196 N 0.1857 0.8186 0.34755 0.0
H197 H 0.12313 0.85819 0.42623 0.0
C198 C 0.99639 0.68524 0.25027 0.0
O199 O 0.02935 0.69597 0.27627 0.0
O200 O 0.05628 0.92223 0.37694 0.0
H201 H 0.10605 0.82557 0.26251 0.0
H202 H 0.89879 0.93049 0.24126 0.0
H203 H 0.17364 0.80429 0.26508 0.0
Zn204 Zn 0.4789 0.2629 0.27737 0.0
C205 C 0.53526 0.14662 0.25442 0.0
N206 N 0.52744 0.15731 0.20252 0.0
C207 C 0.51811 0.20406 0.20291 0.0
N208 N 0.51854 0.2211 0.25316 0.0
N209 N 0.53124 0.18528 0.28467 0.0
C210 C 0.5249 0.11745 0.40865 0.0
O211 O 0.49588 0.14597 0.3971 0.0
O212 O 0.4737 0.33069 0.24724 0.0
Zn213 Zn 0.55592 0.19048 0.35628 0.0
N214 N 0.43031 0.23146 0.25758 0.0
C215 C 0.39482 0.16497 0.22064 0.0
C216 C 0.42912 0.18773 0.2342 0.0
C217 C 0.39807 0.25318 0.2684 0.0
N218 N 0.36282 0.18652 0.23145 0.0
C219 C 0.36313 0.23005 0.25527 0.0
O220 O 0.53016 0.23259 0.40303 0.0
C221 C 0.50248 0.26086 0.40212 0.0
O222 O 0.4828 0.27288 0.35857 0.0
H223 H 0.45442 0.17015 0.22621 0.0
H224 H 0.39988 0.28813 0.28655 0.0
C225 C 0.63213 0.2033 0.40349 0.0
C226 C 0.66983 0.21877 0.40622 0.0
C227 C 0.65659 0.24778 0.31734 0.0
C228 C 0.61936 0.23288 0.31532 0.0
N229 N 0.60787 0.21093 0.35831 0.0
N230 N 0.68075 0.24049 0.36244 0.0
H231 H 0.62187 0.18493 0.43633 0.0
C232 C 0.49823 0.36337 0.25698 0.0
O233 O 0.53175 0.35206 0.28085 0.0
O234 O 0.55572 0.12741 0.39154 0.0
H235 H 0.59975 0.23873 0.27981 0.0
H236 H 0.39363 0.13024 0.20193 0.0
H237 H 0.66624 0.26522 0.28339 0.0
Zn238 Zn 0.03551 0.26235 0.7452 0.0
C239 C 0.99356 0.14232 0.78497 0.0
N240 N 1.0072 0.15592 0.83438 0.0
C241 C 0.01136 0.20341 0.82976 0.0
N242 N 1.0019 0.21867 0.77893 0.0
N243 N 0.98887 0.18036 0.75179 0.0
C244 C 0.99557 0.11108 0.62532 0.0
O245 O 0.02146 0.14445 0.63019 0.0
O246 O 0.04598 0.32816 0.77891 0.0
Zn247 Zn 0.96112 0.17996 0.68075 0.0
N248 N 0.08298 0.22842 0.74627 0.0
C249 C 0.11327 0.15503 0.73076 0.0
C250 C 0.0807 0.18142 0.73327 0.0
C251 C 0.11692 0.25064 0.75561 0.0
N252 N 0.14707 0.17697 0.74025 0.0
C253 C 0.15018 0.22423 0.7525 0.0
O254 O 0.97858 0.22568 0.62803 0.0
C255 C 1.00079 0.26055 0.62533 0.0
O256 O 0.02096 0.27637 0.66649 0.0
H257 H 0.05375 0.16465 0.72399 0.0
H258 H 0.11762 0.28856 0.76345 0.0
C259 C 0.88409 0.19248 0.63673 0.0
C260 C 0.84548 0.20232 0.63749 0.0
C261 C 0.85717 0.20976 0.73179 0.0
C262 C 0.89524 0.20054 0.7305 0.0
N263 N 0.90796 0.1921 0.68311 0.0
N264 N 0.83339 0.2105 0.6856 0.0
H265 H 0.89539 0.18468 0.60013 0.0
C266 C 0.02164 0.3615 0.77222 0.0
O267 O 0.98734 0.35116 0.7507 0.0
O268 O 0.966 0.11682 0.64726 0.0
H269 H 0.91452 0.20013 0.76695 0.0
H270 H 0.1117 0.11753 0.72061 0.0
H271 H 0.84656 0.21648 0.76922 0.0
H272 H 0.99822 0.96581 0.28583 0.0
H273 H 0.10247 0.94281 0.22182 0.0
H274 H 0.11612 0.02845 0.22775 0.0
H275 H 0.09475 0.11021 0.24092 0.0
H276 H 0.99037 0.13457 0.3047 0.0
H277 H 0.98085 0.048 0.3108 0.0
C278 C 0.02458 0.97951 0.27521 0.0
C279 C 0.04987 0.94809 0.25465 0.0
C280 C 0.03188 0.029 0.27808 0.0
C281 C 0.08313 0.96628 0.23884 0.0
C282 C 0.09072 1.01525 0.24183 0.0
C283 C 0.07008 0.09668 0.25681 0.0
C284 C 0.04296 0.12892 0.27145 0.0
C285 C 0.06475 0.04705 0.25979 0.0
C286 C 0.01156 0.11065 0.29285 0.0
C287 C 1.00603 0.06112 0.29605 0.0
H288 H 0.51458 0.96763 0.73914 0.0
H289 H 0.41252 0.94165 0.80767 0.0
H290 H 0.3977 0.02708 0.80311 0.0
H291 H 0.41778 0.10961 0.78983 0.0
H292 H 0.51955 0.13648 0.72026 0.0
H293 H 0.52989 0.05026 0.71305 0.0
C294 C 0.48828 0.98056 0.75072 0.0
C295 C 0.46401 0.94833 0.7722 0.0
C296 C 0.48023 0.02993 0.74843 0.0
C297 C 0.43103 0.9657 0.78978 0.0
C298 C 0.42278 1.01457 0.78759 0.0
C299 C 0.44198 0.09667 0.77235 0.0
C300 C 0.4682 0.12956 0.75646 0.0
C301 C 0.44777 0.04714 0.76858 0.0
C302 C 0.49904 0.11208 0.7331 0.0
C303 C 0.50507 0.06272 0.72927 0.0
H304 H 0.94209 0.07419 0.74284 0.0
H305 H 0.05994 0.0986 0.79274 0.0
H306 H 0.07377 1.01491 0.77977 0.0
H307 H 0.05208 0.9332 0.76488 0.0
H308 H 0.93451 0.90524 0.71711 0.0
H309 H 0.921 0.99109 0.71769 0.0
C310 C 0.97078 0.06113 0.74957 0.0
C311 C 1.00007 0.09276 0.76787 0.0
C312 C 0.9786 1.01203 0.74304 0.0
C313 C 0.03705 0.07523 0.77755 0.0
C314 C 0.045 0.0272 0.77058 0.0
C315 C 0.02354 0.94584 0.75377 0.0
C316 C 0.99437 0.9127 0.74165 0.0
C317 C 0.01595 0.99503 0.75484 0.0
C318 C 0.9576 0.9299 0.72674 0.0
C319 C 0.94979 0.97907 0.72744 0.0
H320 H 0.47622 0.94178 0.30173 0.0
H321 H 0.58774 0.90216 0.27138 0.0
H322 H 0.60451 0.98638 0.26417 0.0
H323 H 0.58489 0.07171 0.25657 0.0
H324 H 0.47457 0.11047 0.29244 0.0
H325 H 0.46007 0.02693 0.30788 0.0
C326 C 0.5044 0.95167 0.29455 0.0
C327 C 0.53052 0.91573 0.28664 0.0
C328 C 0.51402 1.00025 0.29105 0.0
C329 C 0.56707 0.92909 0.27781 0.0
C330 C 0.57663 0.97733 0.27328 0.0
C331 C 0.55809 0.06175 0.26898 0.0
C332 C 0.53086 0.09717 0.2735 0.0
C333 C 0.55002 1.01329 0.2784 0.0
C334 C 0.49603 0.08387 0.28895 0.0
C335 C 0.48765 0.03602 0.29763 0.0
H336 H 0.46726 0.61611 0.76535 0.0
H337 H 0.58583 0.64289 0.80493 0.0
H338 H 0.59848 0.55678 0.80533 0.0
H339 H 0.57597 0.47351 0.78366 0.0
H340 H 0.45722 0.45049 0.74044 0.0
H341 H 0.44456 0.53456 0.75308 0.0
C342 C 0.49587 0.6032 0.77484 0.0
C343 C 0.52551 0.63608 0.78445 0.0
C344 C 0.50295 0.55384 0.77427 0.0
C345 C 0.56237 0.61848 0.79727 0.0
C346 C 0.56967 0.56913 0.79718 0.0
C347 C 0.54738 0.48699 0.77829 0.0
C348 C 0.51745 0.4556 0.7621 0.0
C349 C 0.54026 0.53638 0.78419 0.0
C350 C 0.48059 0.47361 0.75418 0.0
C351 C 0.47332 0.5219 0.76085 0.0
H352 H 0.92889 0.47674 0.25692 0.0
H353 H 0.04575 0.44091 0.25678 0.0
H354 H 0.06109 0.52472 0.24444 0.0
H355 H 0.04253 0.60913 0.24303 0.0
H356 H 0.92569 0.64649 0.24114 0.0
H357 H 0.90903 0.56183 0.24409 0.0
C358 C 0.95749 0.48742 0.25305 0.0
C359 C 0.98614 0.45276 0.25728 0.0
C360 C 0.96619 0.53612 0.24604 0.0
C361 C 0.02321 0.46696 0.25305 0.0
C362 C 0.03204 0.51493 0.24624 0.0
C363 C 0.01334 0.59874 0.24239 0.0
C364 C 0.98551 0.6342 0.24238 0.0
C365 C 1.00396 0.54998 0.24405 0.0
C366 C 0.94774 0.62002 0.24104 0.0
C367 C 0.9382 0.57152 0.24311 0.0
H368 H 0.54158 0.4392 0.23655 0.0
H369 H 0.42963 0.40216 0.26714 0.0
H370 H 0.41391 0.48679 0.27416 0.0
H371 H 0.43446 0.57176 0.28084 0.0
H372 H 0.54539 0.60759 0.24516 0.0
H373 H 0.55884 0.52386 0.23033 0.0
C374 C 0.51355 0.44974 0.24381 0.0
C375 C 0.48697 0.41442 0.25171 0.0
C376 C 0.50454 0.49852 0.24717 0.0
C377 C 0.45062 0.42862 0.26068 0.0
C378 C 0.44167 0.47708 0.26508 0.0
C379 C 0.46117 0.56113 0.2686 0.0
C380 C 0.48882 0.59591 0.26378 0.0
C381 C 0.4687 0.51242 0.25969 0.0
C382 C 0.52354 0.58165 0.24872 0.0
C383 C 0.53135 0.53362 0.24043 0.0
H384 H 0.97812 0.43706 0.79231 0.0
H385 H 0.09083 0.40044 0.76474 0.0
H386 H 0.10637 0.48524 0.75825 0.0
H387 H 0.08536 0.57023 0.75051 0.0
H388 H 0.97301 0.60514 0.78093 0.0
H389 H 0.96005 0.52138 0.79673 0.0
C390 C 1.00629 0.44767 0.78585 0.0
C391 C 0.03312 0.41241 0.77857 0.0
C392 C 0.01506 0.49648 0.78236 0.0
C393 C 0.06962 0.42679 0.77066 0.0
C394 C 0.07846 0.47536 0.76653 0.0
C395 C 0.05844 0.55939 0.76184 0.0
C396 C 0.03031 0.59395 0.76519 0.0
C397 C 0.05109 0.5106 0.77089 0.0
C398 C 0.99528 0.5794 0.77885 0.0
C399 C 0.98775 0.53135 0.78761 0.0
H400 H 0.95114 0.48041 0.0588 0.0
H401 H 0.06958 0.46954 0.11558 0.0
H402 H 0.084 0.52515 0.04657 0.0
H403 H 0.06303 0.57501 0.96911 0.0
H404 H 0.94464 0.586 0.91235 0.0
H405 H 0.9301 0.5312 0.98212 0.0
C406 C 0.98007 0.49064 0.05647 0.0
C407 C 0.00928 0.47096 0.09201 0.0
C408 C 0.98817 0.52188 0.01631 0.0
C409 C 0.04664 0.48423 0.08843 0.0
C410 C 0.05492 0.51578 0.04891 0.0
C411 C 0.03408 0.56502 0.97169 0.0
C412 C 1.00493 0.58417 0.93568 0.0
C413 C 0.02594 0.53425 1.01224 0.0
C414 C 0.96752 0.57154 0.93976 0.0
C415 C 0.95919 0.54044 0.97969 0.0
H416 H 0.45299 0.57386 0.06242 0.0
H417 H 0.57245 0.59203 0.10633 0.0
H418 H 0.58509 0.53908 0.03421 0.0
H419 H 0.56217 0.48776 0.95918 0.0
H420 H 0.44273 0.46906 0.91568 0.0
H421 H 0.43006 0.52324 0.98672 0.0
C422 C 0.4818 0.56585 0.05655 0.0
C423 C 0.51176 0.58655 0.08966 0.0
C424 C 0.48882 0.53604 0.01469 0.0
C425 C 0.54892 0.57637 0.08129 0.0
C426 C 0.55617 0.54634 0.03997 0.0
C427 C 0.53336 0.496 0.9648 0.0
C428 C 0.50341 0.47453 0.9324 0.0
C429 C 0.52632 0.52628 1.00626 0.0
C430 C 0.46624 0.4852 0.94031 0.0
C431 C 0.45898 0.51591 0.98103 0.0
H432 H 0.47524 0.10786 0.47911 0.0
H433 H 0.57097 0.03988 0.42317 0.0
H434 H 0.57032 0.97762 0.49101 0.0
H435 H 0.54236 0.94298 0.56569 0.0
H436 H 0.44641 1.01094 0.62108 0.0
H437 H 0.44775 0.07379 0.5542 0.0
C438 C 0.49572 0.07914 0.48144 0.0
C439 C 0.52301 0.07809 0.44634 0.0
C440 C 0.49546 0.04413 0.52073 0.0
C441 C 0.54975 0.04121 0.45005 0.0
C442 C 0.54945 1.00582 0.4888 0.0
C443 C 0.52205 0.97188 0.5635 0.0
C444 C 0.49435 0.9726 0.59798 0.0
C445 C 0.52258 1.00718 0.52451 0.0
C446 C 0.46789 1.00979 0.59458 0.0
C447 C 0.46856 0.04552 0.55636 0.0
H448 H 0.97847 0.93694 0.46873 0.0
H449 H 0.06699 1.01238 0.40298 0.0
H450 H 0.06672 0.07401 0.47115 0.0
H451 H 0.04198 0.10528 0.54971 0.0
H452 H 0.95369 0.02964 0.61596 0.0
H453 H 0.95377 0.96822 0.5476 0.0
C454 C 0.99735 0.96721 0.46898 0.0
C455 C 0.02258 0.9705 0.43104 0.0
C456 C 0.99755 1.00174 0.50874 0.0
C457 C 0.04736 1.00933 0.43205 0.0
C458 C 0.04731 0.04435 0.47102 0.0
C459 C 0.02301 0.07511 0.54955 0.0
C460 C 0.99794 0.07178 0.58773 0.0
C461 C 0.02281 0.04056 0.50984 0.0
C462 C 0.97326 0.03281 0.58683 0.0
C463 C 0.97316 0.9979 0.5477 0.0
H464 H 0.77045 0.33954 0.11742 0.0
H465 H 0.85795 0.3532 0.01533 0.0
H466 H 0.81069 0.36076 0.93827 0.0
H467 H 0.7447 0.36058 0.89869 0.0
H468 H 0.65739 0.34138 1.00019 0.0
H469 H 0.70448 0.33914 0.07783 0.0
C470 C 0.77943 0.34425 0.07843 0.0
C471 C 0.81816 0.34636 0.07316 0.0
C472 C 0.752 0.34759 0.03365 0.0
C473 C 0.82873 0.35254 0.02181 0.0
C474 C 0.80155 0.35642 0.9772 0.0
C475 C 0.73572 0.35597 0.9377 0.0
C476 C 0.69705 0.35186 0.94274 0.0
C477 C 0.76313 0.35364 0.9826 0.0
C478 C 0.68648 0.34591 0.99413 0.0
C479 C 0.7136 0.34411 0.03897 0.0
H480 H 0.2708 0.69999 0.12451 0.0
H481 H 0.35927 0.70494 0.0232 0.0
H482 H 0.31263 0.70262 0.94496 0.0
H483 H 0.24678 0.70227 0.90443 0.0
H484 H 0.15826 0.70228 1.00577 0.0
H485 H 0.20494 0.69943 0.08396 0.0
C486 C 0.28014 0.70048 0.08542 0.0
C487 C 0.31903 0.70208 0.08073 0.0
C488 C 0.253 0.70008 0.04004 0.0
C489 C 0.33001 0.70262 0.02919 0.0
C490 C 0.30315 0.70175 0.98394 0.0
C491 C 0.23743 0.70156 0.9435 0.0
C492 C 0.19853 0.70194 0.94821 0.0
C493 C 0.26458 0.70085 0.98887 0.0
C494 C 0.18755 0.70094 0.99975 0.0
C495 C 0.21442 0.69976 0.04498 0.0
H496 H 0.26777 0.83301 0.62292 0.0
H497 H 0.35927 0.83396 0.52675 0.0
H498 H 0.31453 0.83678 0.44649 0.0
H499 H 0.24951 0.83697 0.40266 0.0
H500 H 0.15806 0.83075 0.49872 0.0
H501 H 0.20275 0.83209 0.57906 0.0
C502 C 0.27813 0.83387 0.5845 0.0
C503 C 0.31724 0.8341 0.58179 0.0
C504 C 0.25214 0.83456 0.53794 0.0
C505 C 0.32968 0.83511 0.53114 0.0
C506 C 0.30396 0.83623 0.48475 0.0
C507 C 0.23915 0.83594 0.44107 0.0
C508 C 0.20005 0.83461 0.44376 0.0
C509 C 0.26514 0.83579 0.48764 0.0
C510 C 0.18762 0.83318 0.4944 0.0
C511 C 0.21332 0.83343 0.54082 0.0
H512 H 0.76926 0.19497 0.6306 0.0
H513 H 0.85813 0.21601 0.5322 0.0
H514 H 0.81195 0.2205 0.45359 0.0
H515 H 0.74626 0.22056 0.41213 0.0
H516 H 0.6573 0.20466 0.51139 0.0
H517 H 0.70362 0.1961 0.58937 0.0
C518 C 0.77876 0.2005 0.59206 0.0
C519 C 0.8176 0.20427 0.58813 0.0
C520 C 0.75188 0.20402 0.5466 0.0
C521 C 0.82886 0.21156 0.53733 0.0
C522 C 0.80227 0.21467 0.49195 0.0
C523 C 0.73679 0.21517 0.45073 0.0
C524 C 0.69792 0.21249 0.45486 0.0
C525 C 0.76371 0.21112 0.49611 0.0
C526 C 0.68667 0.2056 0.50573 0.0
C527 C 0.7133 0.20116 0.55089 0.0
H528 H 0.29386 0.21199 0.20322 0.0
H529 H 0.34993 0.29374 0.33429 0.0
H530 H 0.28951 0.32405 0.35396 0.0
H531 H 0.22085 0.32619 0.33546 0.0
H532 H 0.16488 0.24513 0.20352 0.0
H533 H 0.22516 0.2148 0.18415 0.0
C534 C 0.293 0.23647 0.23615 0.0
C535 C 0.32673 0.25086 0.26665 0.0
C536 C 0.25806 0.25338 0.24778 0.0
C537 C 0.32481 0.28275 0.30908 0.0
C538 C 0.2901 0.29977 0.32082 0.0
C539 C 0.22161 0.30191 0.30233 0.0
C540 C 0.18782 0.28764 0.27178 0.0
C541 C 0.25657 0.28519 0.29054 0.0
C542 C 0.18984 0.25606 0.22903 0.0
C543 C 0.22455 0.23899 0.21737 0.0
H544 H 0.30202 0.33888 0.80229 0.0
H545 H 0.34097 0.22667 0.70602 0.0
H546 H 0.27846 0.19058 0.6964 0.0
H547 H 0.21251 0.19243 0.71302 0.0
H548 H 0.17428 0.30465 0.81023 0.0
H549 H 0.23679 0.33972 0.82056 0.0
C550 C 0.29694 0.30655 0.77902 0.0
C551 C 0.32632 0.28553 0.75508 0.0
C552 C 0.26096 0.28631 0.77325 0.0
C553 C 0.3192 0.24333 0.72563 0.0
C554 C 0.28333 0.22287 0.71973 0.0
C555 C 0.21775 0.22448 0.73671 0.0
C556 C 0.18824 0.24616 0.75993 0.0
C557 C 0.25398 0.24424 0.74315 0.0
C558 C 0.19583 0.2877 0.79049 0.0
C559 C 0.2318 0.30762 0.79693 0.0
H560 H 0.79949 0.69335 0.7703 0.0
H561 H 0.84592 0.83193 0.74175 0.0
H562 H 0.78531 0.86906 0.74962 0.0
H563 H 0.71869 0.86199 0.76087 0.0
H564 H 0.67254 0.72329 0.79063 0.0
H565 H 0.73334 0.68664 0.78475 0.0
C566 C 0.79646 0.73174 0.76588 0.0
C567 C 0.8275 0.75967 0.75581 0.0
C568 C 0.76139 0.75288 0.76987 0.0
C569 C 0.82295 0.80942 0.75055 0.0
C570 C 0.7881 0.83072 0.75452 0.0
C571 C 0.72175 0.82372 0.76636 0.0
C572 C 0.69039 0.79566 0.77509 0.0
C573 C 0.75708 0.80273 0.76374 0.0
C574 C 0.6954 0.74607 0.78221 0.0
C575 C 0.73046 0.72494 0.77942 0.0
H576 H 0.71777 0.69447 0.25286 0.0
H577 H 0.67164 0.83212 0.28595 0.0
H578 H 0.73234 0.86942 0.2795 0.0
H579 H 0.79903 0.86251 0.26875 0.0
H580 H 0.84486 0.72478 0.2342 0.0
H581 H 0.7839 0.68815 0.23818 0.0
C582 C 0.7209 0.7327 0.25852 0.0
C583 C 0.68997 0.76034 0.26955 0.0
C584 C 0.75601 0.7539 0.25533 0.0
C585 C 0.69457 0.8099 0.2764 0.0
C586 C 0.72947 0.83126 0.27325 0.0
C587 C 0.79587 0.82446 0.26177 0.0
C588 C 0.8272 0.79662 0.25239 0.0
C589 C 0.76045 0.80351 0.26326 0.0
C590 C 0.82204 0.74734 0.24325 0.0
C591 C 0.78689 0.72623 0.24493 0.0
H592 H 0.05067 0.17706 0.92316 0.0
H593 H 0.98956 0.29556 0.84516 0.0
H594 H 0.98846 0.3348 0.93127 0.0
H595 H 0.99645 0.32922 0.02907 0.0
H596 H 0.05479 0.20845 0.10728 0.0
H597 H 0.06512 0.17595 0.02065 0.0
C598 C 0.03794 0.2121 0.92486 0.0
C599 C 0.02029 0.23352 0.87771 0.0
C600 C 0.03604 0.23328 0.97469 0.0
C601 C 1.00399 0.27883 0.88054 0.0
C602 C 1.00276 0.30078 0.92998 0.0
C603 C 0.01166 0.29587 0.02733 0.0
C604 C 0.02413 0.27074 0.07478 0.0
C605 C 0.0173 0.27734 0.97738 0.0
C606 C 0.04455 0.22826 0.0716 0.0
C607 C 0.05045 0.20968 0.02201 0.0
H608 H 0.4876 0.16933 0.10817 0.0
H609 H 0.53106 0.29857 0.1845 0.0
H610 H 0.53096 0.33696 0.09732 0.0
H611 H 0.52537 0.33011 0.99934 0.0
H612 H 0.48279 0.19974 0.92374 0.0
H613 H 0.47618 0.16512 1.01077 0.0
C614 C 0.4963 0.20628 0.10575 0.0
C615 C 0.50915 0.23126 0.15272 0.0
C616 C 0.4972 0.22739 0.05558 0.0
C617 C 0.52027 0.27903 0.14906 0.0
C618 C 0.52084 0.30062 0.09912 0.0
C619 C 0.51459 0.29412 1.00187 0.0
C620 C 0.50524 0.2672 0.955 0.0
C621 C 0.51055 0.27456 0.05212 0.0
C622 C 0.49051 0.22107 0.95904 0.0
C623 C 0.48667 0.20128 1.00882 0.0
H624 H 0.01691 0.71967 0.98914 0.0
H625 H 0.97141 0.8491 0.91362 0.0
H626 H 0.96301 0.88212 1.00093 0.0
H627 H 0.9761 0.87775 0.09869 0.0
H628 H 0.02383 0.74958 0.17377 0.0
H629 H 0.02243 0.71155 0.08663 0.0
C630 C 1.00495 0.75507 0.9917 0.0
C631 C 0.9956 0.78243 0.94496 0.0
C632 C 1.00015 0.77364 0.04193 0.0
C633 C 0.9792 0.82759 0.94891 0.0
C634 C 0.9744 0.84641 0.99884 0.0
C635 C 0.98513 0.84094 0.09601 0.0
C636 C 0.99973 0.81625 0.14271 0.0
C637 C 0.98571 0.82023 0.04562 0.0
C638 C 0.01149 0.76878 0.13873 0.0
C639 C 0.01145 0.74747 0.08872 0.0
H640 H 0.49967 0.72082 0.03829 0.0
H641 H 0.54519 0.85022 0.11267 0.0
H642 H 0.55357 0.88306 0.02509 0.0
H643 H 0.54029 0.87861 0.92741 0.0
H644 H 0.49235 0.75058 0.85353 0.0
H645 H 0.49406 0.71256 0.94092 0.0
C646 C 0.51161 0.75617 0.03541 0.0
C647 C 0.52095 0.78362 0.08185 0.0
C648 C 0.51641 0.77463 0.98506 0.0
C649 C 0.53737 0.8287 0.07755 0.0
C650 C 0.54217 0.8474 0.02749 0.0
C651 C 0.53134 0.84181 0.93043 0.0
C652 C 0.51663 0.81712 0.88402 0.0
C653 C 0.53085 0.82117 0.98097 0.0
C654 C 0.50488 0.7697 0.88836 0.0
C655 C 0.50505 0.74843 0.93851 0.0
H656 H 0.49212 0.82894 0.53575 0.0
H657 H 0.54186 0.70215 0.61227 0.0
H658 H 0.54888 0.6679 0.52524 0.0
H659 H 0.53512 0.6708 0.42766 0.0
H660 H 0.4852 0.797 0.35079 0.0
H661 H 0.48513 0.83547 0.43764 0.0
C662 C 0.50466 0.79387 0.53339 0.0
C663 C 0.51581 0.7677 0.58051 0.0
C664 C 0.50891 0.7746 0.48318 0.0
C665 C 0.5328 0.72285 0.57676 0.0
C666 C 0.5368 0.70327 0.52697 0.0
C667 C 0.52501 0.70717 0.42987 0.0
C668 C 0.51033 0.7312 0.38283 0.0
C669 C 0.52424 0.7284 0.47997 0.0
C670 C 0.49737 0.77823 0.38624 0.0
C671 C 0.49675 0.79984 0.43601 0.0
H672 H 0.98437 0.66841 0.60045 0.0
H673 H 0.03326 0.79489 0.67684 0.0
H674 H 0.03334 0.83347 0.58982 0.0
H675 H 0.0265 0.82713 0.49175 0.0
H676 H 0.9778 0.70006 0.41572 0.0
H677 H 0.97098 0.66551 0.50287 0.0
C678 C 0.99426 0.70486 0.59807 0.0
C679 C 0.00857 0.72897 0.64504 0.0
C680 C 0.99507 0.72615 0.5479 0.0
C681 C 0.0213 0.77607 0.64144 0.0
C682 C 0.02195 0.79775 0.59158 0.0
C683 C 0.01426 0.79191 0.49424 0.0
C684 C 1.00333 0.76576 0.44725 0.0
C685 C 0.01008 0.77249 0.54451 0.0
C686 C 0.98671 0.72072 0.45116 0.0
C687 C 0.9828 0.70098 0.50101 0.0
H688 H 0.46711 0.37216 0.60589 0.0
H689 H 0.52784 0.25308 0.68333 0.0
H690 H 0.52867 0.21403 0.59706 0.0
H691 H 0.52055 0.21987 0.49928 0.0
H692 H 0.46218 0.34084 0.42164 0.0
H693 H 0.45227 0.37339 0.50846 0.0
C694 C 0.4797 0.33706 0.604 0.0
C695 C 0.4973 0.31539 0.65098 0.0
C696 C 0.48138 0.31591 0.55413 0.0
C697 C 0.51343 0.26999 0.64801 0.0
C698 C 0.51452 0.24813 0.59852 0.0
C699 C 0.50546 0.25328 0.50126 0.0
C700 C 0.49285 0.27851 0.45398 0.0
C701 C 0.49998 0.27175 0.55126 0.0
C702 C 0.47251 0.32102 0.4573 0.0
C703 C 0.46686 0.33961 0.50695 0.0
H704 H 0.02395 0.37784 0.41906 0.0
H705 H 0.97862 0.24953 0.34259 0.0
H706 H 0.97794 0.21142 0.42995 0.0
H707 H 0.98402 0.21831 0.52819 0.0
H708 H 0.02848 0.34807 0.60328 0.0
H709 H 0.03505 0.38234 0.51616 0.0
C710 C 0.01456 0.34116 0.42146 0.0
C711 C 1.00145 0.31638 0.37449 0.0
C712 C 0.0132 0.32033 0.47159 0.0
C713 C 0.98955 0.26893 0.37811 0.0
C714 C 0.98855 0.24753 0.4281 0.0
C715 C 0.99507 0.25415 0.52548 0.0
C716 C 1.0051 0.28097 0.57227 0.0
C717 C 0.99917 0.2735 0.47513 0.0
C718 C 0.02022 0.32686 0.56804 0.0
C719 C 0.02409 0.34642 0.51822 0.0
loop_
_geom_bond_atom_site_label_1
_geom_bond_atom_site_label_2
_geom_bond_distance
_geom_bond_site_symmetry_2
_ccdc_geom_bond_type
Zn0 N4 2.024 . S
Zn0 O8 2.019 . S
Zn0 N10 2.119 . S
Zn0 O18 1.975 1_655 S
C1 N2 1.334 . S
C1 N5 1.336 . S
N2 C1 1.334 . S
N2 C3 1.334 1_455 S
C3 N2 1.334 1_655 S
C3 N4 1.343 . S
N4 Zn0 2.024 . S
N4 C3 1.343 . S
N4 N5 1.344 1_655 S
N5 C1 1.336 . S
N5 N4 1.344 1_455 S
N5 Zn9 2.020 . S
C6 O7 1.244 1_455 S
C6 O30 1.257 . S
O7 C6 1.244 1_655 S
O8 Zn0 2.019 . S
O8 C28 1.257 1_655 S
Zn9 N5 2.020 . S
Zn9 O16 1.975 . S
Zn9 N25 2.119 . S
Zn9 O30 2.019 . S
N10 Zn0 2.119 . S
N10 C12 1.334 . S
N10 C13 1.328 . S
C11 C12 1.391 . S
C11 N14 1.329 . S
C11 H32 0.930 . S
C12 N10 1.334 . S
C12 C11 1.391 . S
C12 H19 0.930 . S
C13 N10 1.328 . S
C13 C15 1.392 . S
C13 H20 0.930 . S
N14 C11 1.329 . S
N14 C15 1.331 . S
C15 C13 1.392 . S
C15 N14 1.331 . S
O16 Zn9 1.975 . S
O16 C17 1.252 . S
C17 O16 1.252 . S
C17 O18 1.252 . S
O18 Zn0 1.975 1_455 S
O18 C17 1.252 . S
H19 C12 0.930 . S
H20 C13 0.930 . S
C21 C22 1.392 . S
C21 N25 1.328 . S
C21 H27 0.930 . S
C22 C21 1.392 . S
C22 N26 1.331 . S
C23 C24 1.391 . S
C23 N26 1.329 . S
C23 H33 0.930 . S
C24 C23 1.391 . S
C24 N25 1.334 . S
C24 H31 0.930 . S
N25 Zn9 2.119 . S
N25 C21 1.328 . S
N25 C24 1.334 . S
N26 C22 1.331 . S
N26 C23 1.329 . S
H27 C21 0.930 . S
C28 O8 1.257 1_455 S
C28 O29 1.244 . S
O29 C28 1.244 . S
O30 C6 1.257 . S
O30 Zn9 2.019 . S
H31 C24 0.930 . S
H32 C11 0.930 . S
H33 C23 0.930 . S
Zn34 N38 2.020 . S
Zn34 O42 2.019 . S
Zn34 N44 2.119 . S
Zn34 O52 1.975 . S
C35 N36 1.334 . S
C35 N39 1.336 . S
N36 C35 1.334 . S
N36 C37 1.334 . S
C37 N36 1.334 . S
C37 N38 1.336 . S
N38 Zn34 2.020 . S
N38 C37 1.336 . S
N38 N39 1.354 . S
N39 C35 1.336 . S
N39 N38 1.354 . S
N39 Zn43 2.020 . S
C40 O41 1.244 . S
C40 O64 1.257 . S
O41 C40 1.244 . S
O42 Zn34 2.019 . S
O42 C62 1.257 . S
Zn43 N39 2.020 . S
Zn43 O50 1.975 . S
Zn43 N59 2.119 . S
Zn43 O64 2.019 . S
N44 Zn34 2.119 . S
N44 C46 1.334 . S
N44 C47 1.328 . S
C45 C46 1.391 . S
C45 N48 1.329 . S
C45 H66 0.930 . S
C46 N44 1.334 . S
C46 C45 1.391 . S
C46 H53 0.930 . S
C47 N44 1.328 . S
C47 C49 1.392 . S
C47 H54 0.930 . S
N48 C45 1.329 . S
N48 C49 1.331 . S
C49 C47 1.392 . S
C49 N48 1.331 . S
O50 Zn43 1.975 . S
O50 C51 1.252 . S
C51 O50 1.252 . S
C51 O52 1.252 . S
O52 Zn34 1.975 . S
O52 C51 1.252 . S
H53 C46 0.930 . S
H54 C47 0.930 . S
C55 C56 1.392 . S
C55 N59 1.328 . S
C55 H61 0.930 . S
C56 C55 1.392 . S
C56 N60 1.331 . S
C57 C58 1.391 . S
C57 N60 1.329 . S
C57 H67 0.930 . S
C58 C57 1.391 . S
C58 N59 1.334 . S
C58 H65 0.930 . S
N59 Zn43 2.119 . S
N59 C55 1.328 . S
N59 C58 1.334 . S
N60 C56 1.331 . S
N60 C57 1.329 . S
H61 C55 0.930 . S
C62 O42 1.257 . S
C62 O63 1.244 . S
O63 C62 1.244 . S
O64 C40 1.257 . S
O64 Zn43 2.019 . S
H65 C58 0.930 . S
H66 C45 0.930 . S
H67 C57 0.930 . S
Zn68 N72 2.020 . S
Zn68 O76 2.019 . S
Zn68 N78 2.119 . S
Zn68 O86 1.975 . S
C69 N70 1.334 1_455 S
C69 N73 1.343 . S
N70 C69 1.334 1_655 S
N70 C71 1.334 . S
C71 N70 1.334 . S
C71 N72 1.336 . S
N72 Zn68 2.020 . S
N72 C71 1.336 . S
N72 N73 1.344 1_655 S
N73 C69 1.343 . S
N73 N72 1.344 1_455 S
N73 Zn77 2.024 . S
C74 O75 1.244 . S
C74 O98 1.257 1_655 S
O75 C74 1.244 . S
O76 Zn68 2.019 . S
O76 C96 1.257 . S
Zn77 N73 2.024 . S
Zn77 O84 1.975 1_455 S
Zn77 N93 2.119 . S
Zn77 O98 2.019 . S
N78 Zn68 2.119 . S
N78 C80 1.334 . S
N78 C81 1.328 . S
C79 C80 1.391 . S
C79 N82 1.329 . S
C79 H100 0.930 . S
C80 N78 1.334 . S
C80 C79 1.391 . S
C80 H87 0.930 . S
C81 N78 1.328 . S
C81 C83 1.392 . S
C81 H88 0.930 . S
N82 C79 1.329 . S
N82 C83 1.331 . S
C83 C81 1.392 . S
C83 N82 1.331 . S
O84 Zn77 1.975 1_655 S
O84 C85 1.252 . S
C85 O84 1.252 . S
C85 O86 1.252 . S
O86 Zn68 1.975 . S
O86 C85 1.252 . S
H87 C80 0.930 . S
H88 C81 0.930 . S
C89 C90 1.392 . S
C89 N93 1.328 . S
C89 H95 0.930 . S
C90 C89 1.392 . S
C90 N94 1.331 . S
C91 C92 1.391 . S
C91 N94 1.329 . S
C91 H101 0.930 . S
C92 C91 1.391 . S
C92 N93 1.334 . S
C92 H99 0.930 . S
N93 Zn77 2.119 . S
N93 C89 1.328 . S
N93 C92 1.334 . S
N94 C90 1.331 . S
N94 C91 1.329 . S
H95 C89 0.930 . S
C96 O76 1.257 . S
C96 O97 1.244 1_655 S
O97 C96 1.244 1_455 S
O98 C74 1.257 1_455 S
O98 Zn77 2.019 . S
H99 C92 0.930 . S
H100 C79 0.930 . S
H101 C91 0.930 . S
Zn102 N106 2.020 . S
Zn102 O110 2.019 . S
Zn102 N112 2.119 . S
Zn102 O120 1.975 . S
C103 N104 1.334 . S
C103 N107 1.336 . S
N104 C103 1.334 . S
N104 C105 1.334 . S
C105 N104 1.334 . S
C105 N106 1.336 . S
N106 Zn102 2.020 . S
N106 C105 1.336 . S
N106 N107 1.354 . S
N107 C103 1.336 . S
N107 N106 1.354 . S
N107 Zn111 2.020 . S
C108 O109 1.244 . S
C108 O132 1.257 . S
O109 C108 1.244 . S
O110 Zn102 2.019 . S
O110 C130 1.257 . S
Zn111 N107 2.020 . S
Zn111 O118 1.975 . S
Zn111 N127 2.119 . S
Zn111 O132 2.019 . S
N112 Zn102 2.119 . S
N112 C114 1.334 . S
N112 C115 1.328 . S
C113 C114 1.391 . S
C113 N116 1.329 . S
C113 H134 0.930 . S
C114 N112 1.334 . S
C114 C113 1.391 . S
C114 H121 0.930 . S
C115 N112 1.328 . S
C115 C117 1.392 . S
C115 H122 0.930 . S
N116 C113 1.329 . S
N116 C117 1.331 . S
C117 C115 1.392 . S
C117 N116 1.331 . S
O118 Zn111 1.975 . S
O118 C119 1.252 . S
C119 O118 1.252 . S
C119 O120 1.252 . S
O120 Zn102 1.975 . S
O120 C119 1.252 . S
H121 C114 0.930 . S
H122 C115 0.930 . S
C123 C124 1.392 . S
C123 N127 1.328 . S
C123 H129 0.930 . S
C124 C123 1.392 . S
C124 N128 1.331 . S
C125 C126 1.391 . S
C125 N128 1.329 . S
C125 H135 0.930 . S
C126 C125 1.391 . S
C126 N127 1.334 . S
C126 H133 0.930 . S
N127 Zn111 2.119 . S
N127 C123 1.328 . S
N127 C126 1.334 . S
N128 C124 1.331 . S
N128 C125 1.329 . S
H129 C123 0.930 . S
C130 O110 1.257 . S
C130 O131 1.244 . S
O131 C130 1.244 . S
O132 C108 1.257 . S
O132 Zn111 2.019 . S
H133 C126 0.930 . S
H134 C113 0.930 . S
H135 C125 0.930 . S
Zn136 N140 2.020 . S
Zn136 O144 2.019 . S
Zn136 N146 2.119 . S
Zn136 O154 1.975 . S
C137 N138 1.334 . S
C137 N141 1.336 . S
N138 C137 1.334 . S
N138 C139 1.334 . S
C139 N138 1.334 . S
C139 N140 1.336 . S
N140 Zn136 2.020 . S
N140 C139 1.336 . S
N140 N141 1.354 . S
N141 C137 1.336 . S
N141 N140 1.354 . S
N141 Zn145 2.020 . S
C142 O143 1.244 . S
C142 O166 1.257 . S
O143 C142 1.244 . S
O144 Zn136 2.019 . S
O144 C164 1.257 . S
Zn145 N141 2.020 . S
Zn145 O152 1.975 . S
Zn145 N161 2.119 . S
Zn145 O166 2.019 . S
N146 Zn136 2.119 . S
N146 C148 1.334 . S
N146 C149 1.328 . S
C147 C148 1.391 . S
C147 N150 1.329 . S
C147 H168 0.930 . S
C148 N146 1.334 . S
C148 C147 1.391 . S
C148 H155 0.930 . S
C149 N146 1.328 . S
C149 C151 1.392 . S
C149 H156 0.930 . S
N150 C147 1.329 . S
N150 C151 1.331 . S
C151 C149 1.392 . S
C151 N150 1.331 . S
O152 Zn145 1.975 . S
O152 C153 1.252 . S
C153 O152 1.252 . S
C153 O154 1.252 . S
O154 Zn136 1.975 . S
O154 C153 1.252 . S
H155 C148 0.930 . S
H156 C149 0.930 . S
C157 C158 1.392 . S
C157 N161 1.328 . S
C157 H163 0.930 . S
C158 C157 1.392 . S
C158 N162 1.331 . S
C159 C160 1.391 . S
C159 N162 1.329 . S
C159 H169 0.930 . S
C160 C159 1.391 . S
C160 N161 1.334 . S
C160 H167 0.930 . S
N161 Zn145 2.119 . S
N161 C157 1.328 . S
N161 C160 1.334 . S
N162 C158 1.331 . S
N162 C159 1.329 . S
H163 C157 0.930 . S
C164 O144 1.257 . S
C164 O165 1.244 . S
O165 C164 1.244 . S
O166 C142 1.257 . S
O166 Zn145 2.019 . S
H167 C160 0.930 . S
H168 C147 0.930 . S
H169 C159 0.930 . S
Zn170 N174 2.020 . S
Zn170 O178 2.019 . S
Zn170 N180 2.119 . S
Zn170 O188 1.975 . S
C171 N172 1.334 1_455 S
C171 N175 1.343 . S
N172 C171 1.334 1_655 S
N172 C173 1.334 . S
C173 N172 1.334 . S
C173 N174 1.336 . S
N174 Zn170 2.020 . S
N174 C173 1.336 . S
N174 N175 1.344 1_655 S
N175 C171 1.343 . S
N175 N174 1.344 1_455 S
N175 Zn179 2.024 . S
C176 O177 1.244 . S
C176 O200 1.257 1_655 S
O177 C176 1.244 . S
O178 Zn170 2.019 . S
O178 C198 1.257 . S
Zn179 N175 2.024 . S
Zn179 O186 1.975 1_455 S
Zn179 N195 2.119 . S
Zn179 O200 2.019 . S
N180 Zn170 2.119 . S
N180 C182 1.334 . S
N180 C183 1.328 . S
C181 C182 1.391 . S
C181 N184 1.329 . S
C181 H202 0.930 . S
C182 N180 1.334 . S
C182 C181 1.391 . S
C182 H189 0.930 . S
C183 N180 1.328 . S
C183 C185 1.392 . S
C183 H190 0.930 . S
N184 C181 1.329 . S
N184 C185 1.331 . S
C185 C183 1.392 . S
C185 N184 1.331 . S
O186 Zn179 1.975 1_655 S
O186 C187 1.252 . S
C187 O186 1.252 . S
C187 O188 1.252 . S
O188 Zn170 1.975 . S
O188 C187 1.252 . S
H189 C182 0.930 . S
H190 C183 0.930 . S
C191 C192 1.392 . S
C191 N195 1.328 . S
C191 H197 0.930 . S
C192 C191 1.392 . S
C192 N196 1.331 . S
C193 C194 1.391 . S
C193 N196 1.329 . S
C193 H203 0.930 . S
C194 C193 1.391 . S
C194 N195 1.334 . S
C194 H201 0.930 . S
N195 Zn179 2.119 . S
N195 C191 1.328 . S
N195 C194 1.334 . S
N196 C192 1.331 . S
N196 C193 1.329 . S
H197 C191 0.930 . S
C198 O178 1.257 . S
C198 O199 1.244 1_655 S
O199 C198 1.244 1_455 S
O200 C176 1.257 1_455 S
O200 Zn179 2.019 . S
H201 C194 0.930 . S
H202 C181 0.930 . S
H203 C193 0.930 . S
Zn204 N208 2.020 . S
Zn204 O212 2.019 . S
Zn204 N214 2.119 . S
Zn204 O222 1.975 . S
C205 N206 1.334 . S
C205 N209 1.336 . S
N206 C205 1.334 . S
N206 C207 1.334 . S
C207 N206 1.334 . S
C207 N208 1.336 . S
N208 Zn204 2.020 . S
N208 C207 1.336 . S
N208 N209 1.354 . S
N209 C205 1.336 . S
N209 N208 1.354 . S
N209 Zn213 2.020 . S
C210 O211 1.244 . S
C210 O234 1.257 . S
O211 C210 1.244 . S
O212 Zn204 2.019 . S
O212 C232 1.257 . S
Zn213 N209 2.020 . S
Zn213 O220 1.975 . S
Zn213 N229 2.119 . S
Zn213 O234 2.019 . S
N214 Zn204 2.119 . S
N214 C216 1.334 . S
N214 C217 1.328 . S
C215 C216 1.391 . S
C215 N218 1.329 . S
C215 H236 0.930 . S
C216 N214 1.334 . S
C216 C215 1.391 . S
C216 H223 0.930 . S
C217 N214 1.328 . S
C217 C219 1.392 . S
C217 H224 0.930 . S
N218 C215 1.329 . S
N218 C219 1.331 . S
C219 C217 1.392 . S
C219 N218 1.331 . S
O220 Zn213 1.975 . S
O220 C221 1.252 . S
C221 O220 1.252 . S
C221 O222 1.252 . S
O222 Zn204 1.975 . S
O222 C221 1.252 . S
H223 C216 0.930 . S
H224 C217 0.930 . S
C225 C226 1.392 . S
C225 N229 1.328 . S
C225 H231 0.930 . S
C226 C225 1.392 . S
C226 N230 1.331 . S
C227 C228 1.391 . S
C227 N230 1.329 . S
C227 H237 0.930 . S
C228 C227 1.391 . S
C228 N229 1.334 . S
C228 H235 0.930 . S
N229 Zn213 2.119 . S
N229 C225 1.328 . S
N229 C228 1.334 . S
N230 C226 1.331 . S
N230 C227 1.329 . S
H231 C225 0.930 . S
C232 O212 1.257 . S
C232 O233 1.244 . S
O233 C232 1.244 . S
O234 C210 1.257 . S
O234 Zn213 2.019 . S
H235 C228 0.930 . S
H236 C215 0.930 . S
H237 C227 0.930 . S
Zn238 N242 2.020 . S
Zn238 O246 2.019 . S
Zn238 N248 2.119 . S
Zn238 O256 1.975 . S
C239 N240 1.334 1_655 S
C239 N243 1.343 . S
N240 C239 1.334 1_455 S
N240 C241 1.334 . S
C241 N240 1.334 . S
C241 N242 1.336 . S
N242 Zn238 2.020 . S
N242 C241 1.336 . S
N242 N243 1.344 1_455 S
N243 C239 1.343 . S
N243 N242 1.344 1_655 S
N243 Zn247 2.024 . S
C244 O245 1.244 . S
C244 O268 1.257 1_455 S
O245 C244 1.244 . S
O246 Zn238 2.019 . S
O246 C266 1.257 . S
Zn247 N243 2.024 . S
Zn247 O254 1.975 1_655 S
Zn247 N263 2.119 . S
Zn247 O268 2.019 . S
N248 Zn238 2.119 . S
N248 C250 1.334 . S
N248 C251 1.328 . S
C249 C250 1.391 . S
C249 N252 1.329 . S
C249 H270 0.930 . S
C250 N248 1.334 . S
C250 C249 1.391 . S
C250 H257 0.930 . S
C251 N248 1.328 . S
C251 C253 1.392 . S
C251 H258 0.930 . S
N252 C249 1.329 . S
N252 C253 1.331 . S
C253 C251 1.392 . S
C253 N252 1.331 . S
O254 Zn247 1.975 1_455 S
O254 C255 1.252 . S
C255 O254 1.252 . S
C255 O256 1.252 . S
O256 Zn238 1.975 . S
O256 C255 1.252 . S
H257 C250 0.930 . S
H258 C251 0.930 . S
C259 C260 1.392 . S
C259 N263 1.328 . S
C259 H265 0.930 . S
C260 C259 1.392 . S
C260 N264 1.331 . S
C261 C262 1.391 . S
C261 N264 1.329 . S
C261 H271 0.930 . S
C262 C261 1.391 . S
C262 N263 1.334 . S
C262 H269 0.930 . S
N263 Zn247 2.119 . S
N263 C259 1.328 . S
N263 C262 1.334 . S
N264 C260 1.331 . S
N264 C261 1.329 . S
H265 C259 0.930 . S
C266 O246 1.257 . S
C266 O267 1.244 1_455 S
O267 C266 1.244 1_655 S
O268 C244 1.257 1_655 S
O268 Zn247 2.019 . S
H269 C262 0.930 . S
H270 C249 0.930 . S
H271 C261 0.930 . S
H272 C278 0.930 . S
H273 C281 0.930 . S
H274 C282 0.930 . S
H275 C283 0.930 . S
H276 C286 0.930 . S
H277 C287 0.930 . S
C278 H272 0.930 . S
C278 C279 1.355 1_655 S
C278 C280 1.419 1_565 S
C279 C278 1.355 1_455 S
C279 C281 1.419 . S
C280 C278 1.419 1_545 S
C280 C285 1.403 1_655 S
C280 C287 1.427 . S
C281 H273 0.930 . S
C281 C279 1.419 . S
C281 C282 1.362 1_565 S
C282 H274 0.930 . S
C282 C281 1.362 1_545 S
C282 C285 1.409 . S
C283 H275 0.930 . S
C283 C284 1.355 . S
C283 C285 1.415 . S
C284 C283 1.355 . S
C284 C286 1.419 1_455 S
C285 C280 1.403 1_455 S
C285 C282 1.409 . S
C285 C283 1.415 . S
C286 H276 0.930 . S
C286 C284 1.419 1_655 S
C286 C287 1.362 . S
C287 H277 0.930 . S
C287 C280 1.427 . S
C287 C286 1.362 . S
H288 C294 0.930 . S
H289 C297 0.930 . S
H290 C298 0.930 . S
H291 C299 0.930 . S
H292 C302 0.930 . S
H293 C303 0.930 . S
C294 H288 0.930 . S
C294 C295 1.355 . S
C294 C296 1.415 1_565 S
C295 C294 1.355 . S
C295 C297 1.419 . S
C296 C294 1.415 1_545 S
C296 C301 1.425 . S
C296 C303 1.409 . S
C297 H289 0.930 . S
C297 C295 1.419 . S
C297 C298 1.362 1_565 S
C298 H290 0.930 . S
C298 C297 1.362 1_545 S
C298 C301 1.409 . S
C299 H291 0.930 . S
C299 C300 1.355 . S
C299 C301 1.415 . S
C300 C299 1.355 . S
C300 C302 1.419 . S
C301 C296 1.425 . S
C301 C298 1.409 . S
C301 C299 1.415 . S
C302 H292 0.930 . S
C302 C300 1.419 . S
C302 C303 1.362 . S
C303 H293 0.930 . S
C303 C296 1.409 . S
C303 C302 1.362 . S
H304 C310 0.930 . S
H305 C313 0.930 . S
H306 C314 0.930 . S
H307 C315 0.930 . S
H308 C318 0.930 . S
H309 C319 0.930 . S
C310 H304 0.930 . S
C310 C311 1.355 . S
C310 C312 1.415 1_545 S
C311 C310 1.355 . S
C311 C313 1.419 1_655 S
C312 C310 1.415 1_565 S
C312 C317 1.425 1_655 S
C312 C319 1.409 . S
C313 H305 0.930 . S
C313 C311 1.419 1_455 S
C313 C314 1.362 1_545 S
C314 H306 0.930 . S
C314 C313 1.362 1_565 S
C314 C317 1.409 . S
C315 H307 0.930 . S
C315 C316 1.355 1_455 S
C315 C317 1.415 . S
C316 C315 1.355 1_655 S
C316 C318 1.419 . S
C317 C312 1.425 1_455 S
C317 C314 1.409 . S
C317 C315 1.415 . S
C318 H308 0.930 . S
C318 C316 1.419 . S
C318 C319 1.362 . S
C319 H309 0.930 . S
C319 C312 1.409 . S
C319 C318 1.362 . S
H320 C326 0.930 . S
H321 C329 0.930 . S
H322 C330 0.930 . S
H323 C331 0.930 . S
H324 C334 0.930 . S
H325 C335 0.930 . S
C326 H320 0.930 . S
C326 C327 1.355 . S
C326 C328 1.415 . S
C327 C326 1.355 . S
C327 C329 1.419 . S
C328 C326 1.415 . S
C328 C333 1.425 . S
C328 C335 1.409 . S
C329 H321 0.930 . S
C329 C327 1.419 . S
C329 C330 1.362 . S
C330 H322 0.930 . S
C330 C329 1.362 . S
C330 C333 1.409 . S
C331 H323 0.930 . S
C331 C332 1.355 . S
C331 C333 1.415 1_545 S
C332 C331 1.355 . S
C332 C334 1.419 . S
C333 C328 1.425 . S
C333 C330 1.409 . S
C333 C331 1.415 1_565 S
C334 H324 0.930 . S
C334 C332 1.419 . S
C334 C335 1.362 1_545 S
C335 H325 0.930 . S
C335 C328 1.409 . S
C335 C334 1.362 1_565 S
H336 C342 0.930 . S
H337 C345 0.930 . S
H338 C346 0.930 . S
H339 C347 0.930 . S
H340 C350 0.930 . S
H341 C351 0.930 . S
C342 H336 0.930 . S
C342 C343 1.355 . S
C342 C344 1.415 . S
C343 C342 1.355 . S
C343 C345 1.419 . S
C344 C342 1.415 . S
C344 C349 1.425 . S
C344 C351 1.409 . S
C345 H337 0.930 . S
C345 C343 1.419 . S
C345 C346 1.362 . S
C346 H338 0.930 . S
C346 C345 1.362 . S
C346 C349 1.409 . S
C347 H339 0.930 . S
C347 C348 1.355 . S
C347 C349 1.415 . S
C348 C347 1.355 . S
C348 C350 1.419 . S
C349 C344 1.425 . S
C349 C346 1.409 . S
C349 C347 1.415 . S
C350 H340 0.930 . S
C350 C348 1.419 . S
C350 C351 1.362 . S
C351 H341 0.930 . S
C351 C344 1.409 . S
C351 C350 1.362 . S
H352 C358 0.930 . S
H353 C361 0.930 . S
H354 C362 0.930 . S
H355 C363 0.930 . S
H356 C366 0.930 . S
H357 C367 0.930 . S
C358 H352 0.930 . S
C358 C359 1.355 . S
C358 C360 1.415 . S
C359 C358 1.355 . S
C359 C361 1.419 1_655 S
C360 C358 1.415 . S
C360 C365 1.407 1_655 S
C360 C367 1.409 . S
C361 H353 0.930 . S
C361 C359 1.419 1_455 S
C361 C362 1.362 . S
C362 H354 0.930 . S
C362 C361 1.362 . S
C362 C365 1.425 . S
C363 H355 0.930 . S
C363 C364 1.355 1_455 S
C363 C365 1.417 . S
C364 C363 1.355 1_655 S
C364 C366 1.419 . S
C365 C360 1.407 1_455 S
C365 C362 1.425 . S
C365 C363 1.417 . S
C366 H356 0.930 . S
C366 C364 1.419 . S
C366 C367 1.362 . S
C367 H357 0.930 . S
C367 C360 1.409 . S
C367 C366 1.362 . S
H368 C374 0.930 . S
H369 C377 0.930 . S
H370 C378 0.930 . S
H371 C379 0.930 . S
H372 C382 0.930 . S
H373 C383 0.930 . S
C374 H368 0.930 . S
C374 C375 1.355 . S
C374 C376 1.415 . S
C375 C374 1.355 . S
C375 C377 1.419 . S
C376 C374 1.415 . S
C376 C381 1.425 . S
C376 C383 1.409 . S
C377 H369 0.930 . S
C377 C375 1.419 . S
C377 C378 1.362 . S
C378 H370 0.930 . S
C378 C377 1.362 . S
C378 C381 1.409 . S
C379 H371 0.930 . S
C379 C380 1.355 . S
C379 C381 1.415 . S
C380 C379 1.355 . S
C380 C382 1.419 . S
C381 C376 1.425 . S
C381 C378 1.409 . S
C381 C379 1.415 . S
C382 H372 0.930 . S
C382 C380 1.419 . S
C382 C383 1.362 . S
C383 H373 0.930 . S
C383 C376 1.409 . S
C383 C382 1.362 . S
H384 C390 0.930 . S
H385 C393 0.930 . S
H386 C394 0.930 . S
H387 C395 0.930 . S
H388 C398 0.930 . S
H389 C399 0.930 . S
C390 H384 0.930 . S
C390 C391 1.355 1_655 S
C390 C392 1.418 . S
C391 C390 1.355 1_455 S
C391 C393 1.419 . S
C392 C390 1.418 . S
C392 C397 1.404 1_655 S
C392 C399 1.427 . S
C393 H385 0.930 . S
C393 C391 1.419 . S
C393 C394 1.362 . S
C394 H386 0.930 . S
C394 C393 1.362 . S
C394 C397 1.409 . S
C395 H387 0.930 . S
C395 C396 1.355 . S
C395 C397 1.415 . S
C396 C395 1.355 . S
C396 C398 1.419 1_455 S
C397 C392 1.404 1_455 S
C397 C394 1.409 . S
C397 C395 1.415 . S
C398 H388 0.930 . S
C398 C396 1.419 1_655 S
C398 C399 1.362 . S
C399 H389 0.930 . S
C399 C392 1.427 . S
C399 C398 1.362 . S
H400 C406 0.930 . S
H401 C409 0.930 . S
H402 C410 0.930 . S
H403 C411 0.930 . S
H404 C414 0.930 . S
H405 C415 0.930 . S
C406 H400 0.930 . S
C406 C407 1.355 1_655 S
C406 C408 1.415 . S
C407 C406 1.355 1_455 S
C407 C409 1.419 . S
C408 C406 1.415 . S
C408 C413 1.425 1_654 S
C408 C415 1.409 . S
C409 H401 0.930 . S
C409 C407 1.419 . S
C409 C410 1.362 1_554 S
C410 H402 0.930 . S
C410 C409 1.362 1_556 S
C410 C413 1.409 . S
C411 H403 0.930 . S
C411 C412 1.355 1_455 S
C411 C413 1.415 . S
C412 C411 1.355 1_655 S
C412 C414 1.419 . S
C413 C408 1.425 1_456 S
C413 C410 1.409 . S
C413 C411 1.415 . S
C414 H404 0.930 . S
C414 C412 1.419 . S
C414 C415 1.362 1_556 S
C415 H405 0.930 . S
C415 C408 1.409 . S
C415 C414 1.362 1_554 S
H416 C422 0.930 . S
H417 C425 0.930 . S
H418 C426 0.930 . S
H419 C427 0.930 . S
H420 C430 0.930 . S
H421 C431 0.930 . S
C422 H416 0.930 . S
C422 C423 1.355 . S
C422 C424 1.415 1_554 S
C423 C422 1.355 . S
C423 C425 1.419 . S
C424 C422 1.415 1_556 S
C424 C429 1.425 1_556 S
C424 C431 1.409 . S
C425 H417 0.930 . S
C425 C423 1.419 . S
C425 C426 1.362 . S
C426 H418 0.930 . S
C426 C425 1.362 . S
C426 C429 1.409 . S
C427 H419 0.930 . S
C427 C428 1.355 . S
C427 C429 1.415 1_556 S
C428 C427 1.355 . S
C428 C430 1.419 . S
C429 C424 1.425 1_554 S
C429 C426 1.409 . S
C429 C427 1.415 1_554 S
C430 H420 0.930 . S
C430 C428 1.419 . S
C430 C431 1.362 . S
C431 H421 0.930 . S
C431 C424 1.409 . S
C431 C430 1.362 . S
H432 C438 0.930 . S
H433 C441 0.930 . S
H434 C442 0.930 . S
H435 C443 0.930 . S
H436 C446 0.930 . S
H437 C447 0.930 . S
C438 H432 0.930 . S
C438 C439 1.355 . S
C438 C440 1.415 . S
C439 C438 1.355 . S
C439 C441 1.419 . S
C440 C438 1.415 . S
C440 C445 1.425 1_545 S
C440 C447 1.409 1_545 S
C441 H433 0.930 . S
C441 C439 1.419 . S
C441 C442 1.362 . S
C442 H434 0.930 . S
C442 C441 1.362 . S
C442 C445 1.409 1_545 S
C443 H435 0.930 . S
C443 C444 1.355 . S
C443 C445 1.415 . S
C444 C443 1.355 . S
C444 C446 1.419 . S
C445 C440 1.425 1_565 S
C445 C442 1.409 1_565 S
C445 C443 1.415 . S
C446 H436 0.930 . S
C446 C444 1.419 . S
C446 C447 1.362 . S
C447 H437 0.930 . S
C447 C440 1.409 1_565 S
C447 C446 1.362 . S
H448 C454 0.930 . S
H449 C457 0.930 . S
H450 C458 0.930 . S
H451 C459 0.930 . S
H452 C462 0.930 . S
H453 C463 0.930 . S
C454 H448 0.930 . S
C454 C455 1.355 . S
C454 C456 1.415 . S
C455 C454 1.355 . S
C455 C457 1.419 1_655 S
C456 C454 1.415 . S
C456 C461 1.425 1_665 S
C456 C463 1.409 . S
C457 H449 0.930 . S
C457 C455 1.419 1_455 S
C457 C458 1.362 1_565 S
C458 H450 0.930 . S
C458 C457 1.362 1_545 S
C458 C461 1.409 . S
C459 H451 0.930 . S
C459 C460 1.355 . S
C459 C461 1.415 . S
C460 C459 1.355 . S
C460 C462 1.419 1_455 S
C461 C456 1.425 1_445 S
C461 C458 1.409 . S
C461 C459 1.415 . S
C462 H452 0.930 . S
C462 C460 1.419 1_655 S
C462 C463 1.362 1_545 S
C463 H453 0.930 . S
C463 C456 1.409 . S
C463 C462 1.362 1_565 S
H464 C470 0.930 . S
H465 C473 0.930 . S
H466 C474 0.930 . S
H467 C475 0.930 . S
H468 C478 0.930 . S
H469 C479 0.930 . S
C470 H464 0.930 . S
C470 C471 1.355 . S
C470 C472 1.415 . S
C471 C470 1.355 . S
C471 C473 1.419 1_554 S
C472 C470 1.415 . S
C472 C477 1.425 1_554 S
C472 C479 1.409 . S
C473 H465 0.930 . S
C473 C471 1.419 1_556 S
C473 C474 1.362 . S
C474 H466 0.930 . S
C474 C473 1.362 . S
C474 C477 1.409 . S
C475 H467 0.930 . S
C475 C476 1.355 . S
C475 C477 1.415 . S
C476 C475 1.355 . S
C476 C478 1.419 1_556 S
C477 C472 1.425 1_556 S
C477 C474 1.409 . S
C477 C475 1.415 . S
C478 H468 0.930 . S
C478 C476 1.419 1_554 S
C478 C479 1.362 . S
C479 H469 0.930 . S
C479 C472 1.409 . S
C479 C478 1.362 . S
H480 C486 0.930 . S
H481 C489 0.930 1_556 S
H482 C490 0.930 . S
H483 C491 0.930 . S
H484 C494 0.930 1_554 S
H485 C495 0.930 . S
C486 H480 0.930 . S
C486 C487 1.355 . S
C486 C488 1.415 . S
C487 C486 1.355 . S
C487 C489 1.419 . S
C488 C486 1.415 . S
C488 C493 1.425 1_554 S
C488 C495 1.409 . S
C489 H481 0.930 1_554 S
C489 C487 1.419 . S
C489 C490 1.362 1_554 S
C490 H482 0.930 . S
C490 C489 1.362 1_556 S
C490 C493 1.409 . S
C491 H483 0.930 . S
C491 C492 1.355 . S
C491 C493 1.415 . S
C492 C491 1.355 . S
C492 C494 1.419 . S
C493 C488 1.425 1_556 S
C493 C490 1.409 . S
C493 C491 1.415 . S
C494 H484 0.930 1_556 S
C494 C492 1.419 . S
C494 C495 1.362 1_556 S
C495 H485 0.930 . S
C495 C488 1.409 . S
C495 C494 1.362 1_554 S
H496 C502 0.930 . S
H497 C505 0.930 . S
H498 C506 0.930 . S
H499 C507 0.930 . S
H500 C510 0.930 . S
H501 C511 0.930 . S
C502 H496 0.930 . S
C502 C503 1.355 . S
C502 C504 1.415 . S
C503 C502 1.355 . S
C503 C505 1.419 . S
C504 C502 1.415 . S
C504 C509 1.425 . S
C504 C511 1.409 . S
C505 H497 0.930 . S
C505 C503 1.419 . S
C505 C506 1.362 . S
C506 H498 0.930 . S
C506 C505 1.362 . S
C506 C509 1.409 . S
C507 H499 0.930 . S
C507 C508 1.355 . S
C507 C509 1.415 . S
C508 C507 1.355 . S
C508 C510 1.419 . S
C509 C504 1.425 . S
C509 C506 1.409 . S
C509 C507 1.415 . S
C510 H500 0.930 . S
C510 C508 1.419 . S
C510 C511 1.362 . S
C511 H501 0.930 . S
C511 C504 1.409 . S
C511 C510 1.362 . S
H512 C518 0.930 . S
H513 C521 0.930 . S
H514 C522 0.930 . S
H515 C523 0.930 . S
H516 C526 0.930 . S
H517 C527 0.930 . S
C518 H512 0.930 . S
C518 C519 1.355 . S
C518 C520 1.415 . S
C519 C518 1.355 . S
C519 C521 1.419 . S
C520 C518 1.415 . S
C520 C525 1.425 . S
C520 C527 1.409 . S
C521 H513 0.930 . S
C521 C519 1.419 . S
C521 C522 1.362 . S
C522 H514 0.930 . S
C522 C521 1.362 . S
C522 C525 1.409 . S
C523 H515 0.930 . S
C523 C524 1.355 . S
C523 C525 1.415 . S
C524 C523 1.355 . S
C524 C526 1.419 . S
C525 C520 1.425 . S
C525 C522 1.409 . S
C525 C523 1.415 . S
C526 H516 0.930 . S
C526 C524 1.419 . S
C526 C527 1.362 . S
C527 H517 0.930 . S
C527 C520 1.409 . S
C527 C526 1.362 . S
H528 C534 0.930 . S
H529 C537 0.930 . S
H530 C538 0.930 . S
H531 C539 0.930 . S
H532 C542 0.930 . S
H533 C543 0.930 . S
C534 H528 0.930 . S
C534 C535 1.355 . S
C534 C536 1.415 . S
C535 C534 1.355 . S
C535 C537 1.419 . S
C536 C534 1.415 . S
C536 C541 1.425 . S
C536 C543 1.409 . S
C537 H529 0.930 . S
C537 C535 1.419 . S
C537 C538 1.362 . S
C538 H530 0.930 . S
C538 C537 1.362 . S
C538 C541 1.409 . S
C539 H531 0.930 . S
C539 C540 1.355 . S
C539 C541 1.415 . S
C540 C539 1.355 . S
C540 C542 1.419 . S
C541 C536 1.425 . S
C541 C538 1.409 . S
C541 C539 1.415 . S
C542 H532 0.930 . S
C542 C540 1.419 . S
C542 C543 1.362 . S
C543 H533 0.930 . S
C543 C536 1.409 . S
C543 C542 1.362 . S
H544 C550 0.930 . S
H545 C553 0.930 . S
H546 C554 0.930 . S
H547 C555 0.930 . S
H548 C558 0.930 . S
H549 C559 0.930 . S
C550 H544 0.930 . S
C550 C551 1.355 . S
C550 C552 1.415 . S
C551 C550 1.355 . S
C551 C553 1.419 . S
C552 C550 1.415 . S
C552 C557 1.425 . S
C552 C559 1.409 . S
C553 H545 0.930 . S
C553 C551 1.419 . S
C553 C554 1.362 . S
C554 H546 0.930 . S
C554 C553 1.362 . S
C554 C557 1.409 . S
C555 H547 0.930 . S
C555 C556 1.355 . S
C555 C557 1.415 . S
C556 C555 1.355 . S
C556 C558 1.419 . S
C557 C552 1.425 . S
C557 C554 1.409 . S
C557 C555 1.415 . S
C558 H548 0.930 . S
C558 C556 1.419 . S
C558 C559 1.362 . S
C559 H549 0.930 . S
C559 C552 1.409 . S
C559 C558 1.362 . S
H560 C566 0.930 . S
H561 C569 0.930 . S
H562 C570 0.930 . S
H563 C571 0.930 . S
H564 C574 0.930 . S
H565 C575 0.930 . S
C566 H560 0.930 . S
C566 C567 1.355 . S
C566 C568 1.415 . S
C567 C566 1.355 . S
C567 C569 1.419 . S
C568 C566 1.415 . S
C568 C573 1.425 . S
C568 C575 1.409 . S
C569 H561 0.930 . S
C569 C567 1.419 . S
C569 C570 1.362 . S
C570 H562 0.930 . S
C570 C569 1.362 . S
C570 C573 1.409 . S
C571 H563 0.930 . S
C571 C572 1.355 . S
C571 C573 1.415 . S
C572 C571 1.355 . S
C572 C574 1.419 . S
C573 C568 1.425 . S
C573 C570 1.409 . S
C573 C571 1.415 . S
C574 H564 0.930 . S
C574 C572 1.419 . S
C574 C575 1.362 . S
C575 H565 0.930 . S
C575 C568 1.409 . S
C575 C574 1.362 . S
H576 C582 0.930 . S
H577 C585 0.930 . S
H578 C586 0.930 . S
H579 C587 0.930 . S
H580 C590 0.930 . S
H581 C591 0.930 . S
C582 H576 0.930 . S
C582 C583 1.355 . S
C582 C584 1.415 . S
C583 C582 1.355 . S
C583 C585 1.419 . S
C584 C582 1.415 . S
C584 C589 1.425 . S
C584 C591 1.409 . S
C585 H577 0.930 . S
C585 C583 1.419 . S
C585 C586 1.362 . S
C586 H578 0.930 . S
C586 C585 1.362 . S
C586 C589 1.409 . S
C587 H579 0.930 . S
C587 C588 1.355 . S
C587 C589 1.415 . S
C588 C587 1.355 . S
C588 C590 1.419 . S
C589 C584 1.425 . S
C589 C586 1.409 . S
C589 C587 1.415 . S
C590 H580 0.930 . S
C590 C588 1.419 . S
C590 C591 1.362 . S
C591 H581 0.930 . S
C591 C584 1.409 . S
C591 C590 1.362 . S
H592 C598 0.930 . S
H593 C601 0.930 . S
H594 C602 0.930 . S
H595 C603 0.930 . S
H596 C606 0.930 . S
H597 C607 0.930 . S
C598 H592 0.930 . S
C598 C599 1.355 . S
C598 C600 1.415 . S
C599 C598 1.355 . S
C599 C601 1.419 1_455 S
C600 C598 1.415 . S
C600 C605 1.425 . S
C600 C607 1.409 . S
C601 H593 0.930 . S
C601 C599 1.419 1_655 S
C601 C602 1.362 . S
C602 H594 0.930 . S
C602 C601 1.362 . S
C602 C605 1.409 1_655 S
C603 H595 0.930 . S
C603 C604 1.355 1_656 S
C603 C605 1.415 1_655 S
C604 C603 1.355 1_454 S
C604 C606 1.419 . S
C605 C600 1.425 . S
C605 C602 1.409 1_455 S
C605 C603 1.415 1_455 S
C606 H596 0.930 . S
C606 C604 1.419 . S
C606 C607 1.362 1_554 S
C607 H597 0.930 . S
C607 C600 1.409 . S
C607 C606 1.362 1_556 S
H608 C614 0.930 . S
H609 C617 0.930 . S
H610 C618 0.930 . S
H611 C619 0.930 1_556 S
H612 C622 0.930 . S
H613 C623 0.930 . S
C614 H608 0.930 . S
C614 C615 1.355 . S
C614 C616 1.415 . S
C615 C614 1.355 . S
C615 C617 1.419 . S
C616 C614 1.415 . S
C616 C621 1.425 . S
C616 C623 1.409 . S
C617 H609 0.930 . S
C617 C615 1.419 . S
C617 C618 1.362 . S
C618 H610 0.930 . S
C618 C617 1.362 . S
C618 C621 1.409 . S
C619 H611 0.930 1_554 S
C619 C620 1.355 1_554 S
C619 C621 1.415 . S
C620 C619 1.355 1_556 S
C620 C622 1.419 1_556 S
C621 C616 1.425 . S
C621 C618 1.409 . S
C621 C619 1.415 . S
C622 H612 0.930 . S
C622 C620 1.419 1_554 S
C622 C623 1.362 . S
C623 H613 0.930 . S
C623 C616 1.409 . S
C623 C622 1.362 . S
H624 C630 0.930 . S
H625 C633 0.930 . S
H626 C634 0.930 . S
H627 C635 0.930 1_455 S
H628 C638 0.930 . S
H629 C639 0.930 . S
C630 H624 0.930 . S
C630 C631 1.355 1_554 S
C630 C632 1.415 . S
C631 C630 1.355 1_556 S
C631 C633 1.419 1_655 S
C632 C630 1.415 . S
C632 C637 1.425 . S
C632 C639 1.409 . S
C633 H625 0.930 . S
C633 C631 1.419 1_455 S
C633 C634 1.362 1_556 S
C634 H626 0.930 . S
C634 C633 1.362 1_554 S
C634 C637 1.409 1_455 S
C635 H627 0.930 1_655 S
C635 C636 1.355 . S
C635 C637 1.415 . S
C636 C635 1.355 . S
C636 C638 1.419 . S
C637 C632 1.425 . S
C637 C634 1.409 1_655 S
C637 C635 1.415 . S
C638 H628 0.930 . S
C638 C636 1.419 . S
C638 C639 1.362 . S
C639 H629 0.930 . S
C639 C632 1.409 . S
C639 C638 1.362 . S
H640 C646 0.930 . S
H641 C649 0.930 . S
H642 C650 0.930 . S
H643 C651 0.930 . S
H644 C654 0.930 . S
H645 C655 0.930 . S
C646 H640 0.930 . S
C646 C647 1.355 1_556 S
C646 C648 1.415 . S
C647 C646 1.355 1_554 S
C647 C649 1.419 . S
C648 C646 1.415 . S
C648 C653 1.425 . S
C648 C655 1.409 . S
C649 H641 0.930 . S
C649 C647 1.419 . S
C649 C650 1.362 1_554 S
C650 H642 0.930 . S
C650 C649 1.362 1_556 S
C650 C653 1.409 . S
C651 H643 0.930 . S
C651 C652 1.355 . S
C651 C653 1.415 . S
C652 C651 1.355 . S
C652 C654 1.419 . S
C653 C648 1.425 . S
C653 C650 1.409 . S
C653 C651 1.415 . S
C654 H644 0.930 . S
C654 C652 1.419 . S
C654 C655 1.362 . S
C655 H645 0.930 . S
C655 C648 1.409 . S
C655 C654 1.362 . S
H656 C662 0.930 . S
H657 C665 0.930 . S
H658 C666 0.930 . S
H659 C667 0.930 . S
H660 C670 0.930 . S
H661 C671 0.930 . S
C662 H656 0.930 . S
C662 C663 1.355 . S
C662 C664 1.415 . S
C663 C662 1.355 . S
C663 C665 1.419 . S
C664 C662 1.415 . S
C664 C669 1.425 . S
C664 C671 1.409 . S
C665 H657 0.930 . S
C665 C663 1.419 . S
C665 C666 1.362 . S
C666 H658 0.930 . S
C666 C665 1.362 . S
C666 C669 1.409 . S
C667 H659 0.930 . S
C667 C668 1.355 . S
C667 C669 1.415 . S
C668 C667 1.355 . S
C668 C670 1.419 . S
C669 C664 1.425 . S
C669 C666 1.409 . S
C669 C667 1.415 . S
C670 H660 0.930 . S
C670 C668 1.419 . S
C670 C671 1.362 . S
C671 H661 0.930 . S
C671 C664 1.409 . S
C671 C670 1.362 . S
H672 C678 0.930 1_455 S
H673 C681 0.930 . S
H674 C682 0.930 . S
H675 C683 0.930 . S
H676 C686 0.930 . S
H677 C687 0.930 . S
C678 H672 0.930 1_655 S
C678 C679 1.355 . S
C678 C680 1.415 . S
C679 C678 1.355 . S
C679 C681 1.419 . S
C680 C678 1.415 . S
C680 C685 1.425 . S
C680 C687 1.409 1_655 S
C681 H673 0.930 . S
C681 C679 1.419 . S
C681 C682 1.362 . S
C682 H674 0.930 . S
C682 C681 1.362 . S
C682 C685 1.409 . S
C683 H675 0.930 . S
C683 C684 1.355 . S
C683 C685 1.415 . S
C684 C683 1.355 . S
C684 C686 1.419 1_655 S
C685 C680 1.425 . S
C685 C682 1.409 . S
C685 C683 1.415 . S
C686 H676 0.930 . S
C686 C684 1.419 1_455 S
C686 C687 1.362 . S
C687 H677 0.930 . S
C687 C680 1.409 1_455 S
C687 C686 1.362 . S
H688 C694 0.930 . S
H689 C697 0.930 . S
H690 C698 0.930 . S
H691 C699 0.930 . S
H692 C702 0.930 . S
H693 C703 0.930 . S
C694 H688 0.930 . S
C694 C695 1.355 . S
C694 C696 1.415 . S
C695 C694 1.355 . S
C695 C697 1.419 . S
C696 C694 1.415 . S
C696 C701 1.425 . S
C696 C703 1.409 . S
C697 H689 0.930 . S
C697 C695 1.419 . S
C697 C698 1.362 . S
C698 H690 0.930 . S
C698 C697 1.362 . S
C698 C701 1.409 . S
C699 H691 0.930 . S
C699 C700 1.355 . S
C699 C701 1.415 . S
C700 C699 1.355 . S
C700 C702 1.419 . S
C701 C696 1.425 . S
C701 C698 1.409 . S
C701 C699 1.415 . S
C702 H692 0.930 . S
C702 C700 1.419 . S
C702 C703 1.362 . S
C703 H693 0.930 . S
C703 C696 1.409 . S
C703 C702 1.362 . S
H704 C710 0.930 . S
H705 C713 0.930 . S
H706 C714 0.922 1_655 S
H707 C715 0.937 . S
H708 C718 0.930 . S
H709 C719 0.930 . S
C710 H704 0.930 . S
C710 C711 1.355 . S
C710 C712 1.415 . S
C711 C710 1.355 . S
C711 C713 1.419 . S
C712 C710 1.415 . S
C712 C717 1.425 . S
C712 C719 1.409 . S
C713 H705 0.930 . S
C713 C711 1.419 . S
C713 C714 1.362 . S
C714 H706 0.922 1_455 S
C714 C713 1.362 . S
C714 C717 1.409 . S
C715 H707 0.937 . S
C715 C716 1.355 . S
C715 C717 1.415 . S
C716 C715 1.355 . S
C716 C718 1.419 . S
C717 C712 1.425 . S
C717 C714 1.409 . S
C717 C715 1.415 . S
C718 H708 0.930 . S
C718 C716 1.419 . S
C718 C719 1.362 . S
C719 H709 0.930 . S
C719 C712 1.409 . S
C719 C718 1.362 . S
C279 C171 1.907 . S
C284 C6 1.952 . S
C295 C139 1.905 . S
C300 C40 1.953 . S
C311 C239 1.856 . S
C316 C96 1.950 . S
C327 C130 1.947 . S
C332 C205 1.862 . S
C343 C142 1.958 . S
C348 C37 1.870 . S
C359 C3 1.861 . S
C364 C198 1.947 . S
C375 C232 1.941 . S
C380 C103 1.893 . S
C391 C266 1.942 . S
C396 C69 1.876 . S
C407 C28 0.241 . S
C412 C74 0.241 . S
C423 C108 0.390 . S
C428 C62 0.390 . S
C439 C210 0.193 . S
C444 C164 0.193 . S
C455 C176 0.350 . S
C460 C244 0.350 . S
C471 C15 2.017 . S
C476 C49 2.062 . S
C487 C124 2.020 . S
C492 C90 2.061 . S
C503 C151 2.045 . S
C508 C192 2.042 . S
C519 C260 2.051 . S
C524 C226 2.002 . S
C535 C219 1.114 . S
C540 C22 1.114 . S
C551 C56 1.135 . S
C556 C253 1.135 . S
C567 C83 1.185 . S
C572 C158 1.185 . S
C583 C117 1.122 . S
C588 C185 1.122 . S
C599 C241 1.777 . S
C604 C17 1.881 . S
C615 C207 1.805 . S
C620 C51 1.872 . S
C631 C85 1.885 . S
C636 C173 1.828 . S
C647 C119 1.886 . S
C652 C137 1.819 . S
C663 C153 1.885 . S
C668 C105 1.822 . S
C679 C71 1.812 . S
C684 C187 1.873 . S
C695 C35 1.793 . S
C700 C221 1.884 . S
C711 C1 1.824 . S
C716 C255 1.885 . S
