# Generated by pormake.
# Topology lcs, (4)-cn, num edge types: 1
# Building blocks:
#     Node 0, Type 0, BuildingBlock: CEKHIL_clean_sbu_0, # of connection points: 4
#     Node 1, Type 0, BuildingBlock: CEKHIL_clean_sbu_0, # of connection points: 4
#     Node 2, Type 0, BuildingBlock: CEKHIL_clean_sbu_0, # of connection points: 4
#     Node 3, Type 0, BuildingBlock: CEKHIL_clean_sbu_0, # of connection points: 4
#     Node 4, Type 0, BuildingBlock: CEKHIL_clean_sbu_0, # of connection points: 4
#     Node 5, Type 0, BuildingBlock: CEKHIL_clean_sbu_0, # of connection points: 4
#     Node 6, Type 0, BuildingBlock: CEKHIL_clean_sbu_0, # of connection points: 4
#     Node 7, Type 0, BuildingBlock: CEKHIL_clean_sbu_0, # of connection points: 4
#     Node 8, Type 0, BuildingBlock: CEKHIL_clean_sbu_0, # of connection points: 4
#     Node 9, Type 0, BuildingBlock: CEKHIL_clean_sbu_0, # of connection points: 4
#     Node 10, Type 0, BuildingBlock: CEKHIL_clean_sbu_0, # of connection points: 4
#     Node 11, Type 0, BuildingBlock: CEKHIL_clean_sbu_0, # of connection points: 4
#     Node 12, Type 0, BuildingBlock: CEKHIL_clean_sbu_0, # of connection points: 4
#     Node 13, Type 0, BuildingBlock: CEKHIL_clean_sbu_0, # of connection points: 4
#     Node 14, Type 0, BuildingBlock: CEKHIL_clean_sbu_0, # of connection points: 4
#     Node 15, Type 0, BuildingBlock: CEKHIL_clean_sbu_0, # of connection points: 4
#     Node 16, Type 0, BuildingBlock: CEKHIL_clean_sbu_0, # of connection points: 4
#     Node 17, Type 0, BuildingBlock: CEKHIL_clean_sbu_0, # of connection points: 4
#     Node 18, Type 0, BuildingBlock: CEKHIL_clean_sbu_0, # of connection points: 4
#     Node 19, Type 0, BuildingBlock: CEKHIL_clean_sbu_0, # of connection points: 4
#     Node 20, Type 0, BuildingBlock: CEKHIL_clean_sbu_0, # of connection points: 4
#     Node 21, Type 0, BuildingBlock: CEKHIL_clean_sbu_0, # of connection points: 4
#     Node 22, Type 0, BuildingBlock: CEKHIL_clean_sbu_0, # of connection points: 4
#     Node 23, Type 0, BuildingBlock: CEKHIL_clean_sbu_0, # of connection points: 4
#     Edge 24, Type (0, 0), BuildingBlock: ZUJKAS_clean_linker_0, # of connection points: 2
#     Edge 25, Type (0, 0), BuildingBlock: ZUJKAS_clean_linker_0, # of connection points: 2
#     Edge 26, Type (0, 0), BuildingBlock: ZUJKAS_clean_linker_0, # of connection points: 2
#     Edge 27, Type (0, 0), BuildingBlock: ZUJKAS_clean_linker_0, # of connection points: 2
#     Edge 28, Type (0, 0), BuildingBlock: ZUJKAS_clean_linker_0, # of connection points: 2
#     Edge 29, Type (0, 0), BuildingBlock: ZUJKAS_clean_linker_0, # of connection points: 2
#     Edge 30, Type (0, 0), BuildingBlock: ZUJKAS_clean_linker_0, # of connection points: 2
#     Edge 31, Type (0, 0), BuildingBlock: ZUJKAS_clean_linker_0, # of connection points: 2
#     Edge 32, Type (0, 0), BuildingBlock: ZUJKAS_clean_linker_0, # of connection points: 2
#     Edge 33, Type (0, 0), BuildingBlock: ZUJKAS_clean_linker_0, # of connection points: 2
#     Edge 34, Type (0, 0), BuildingBlock: ZUJKAS_clean_linker_0, # of connection points: 2
#     Edge 35, Type (0, 0), BuildingBlock: ZUJKAS_clean_linker_0, # of connection points: 2
#     Edge 36, Type (0, 0), BuildingBlock: ZUJKAS_clean_linker_0, # of connection points: 2
#     Edge 37, Type (0, 0), BuildingBlock: ZUJKAS_clean_linker_0, # of connection points: 2
#     Edge 38, Type (0, 0), BuildingBlock: ZUJKAS_clean_linker_0, # of connection points: 2
#     Edge 39, Type (0, 0), BuildingBlock: ZUJKAS_clean_linker_0, # of connection points: 2
#     Edge 40, Type (0, 0), BuildingBlock: ZUJKAS_clean_linker_0, # of connection points: 2
#     Edge 41, Type (0, 0), BuildingBlock: ZUJKAS_clean_linker_0, # of connection points: 2
#     Edge 42, Type (0, 0), BuildingBlock: ZUJKAS_clean_linker_0, # of connection points: 2
#     Edge 43, Type (0, 0), BuildingBlock: ZUJKAS_clean_linker_0, # of connection points: 2
#     Edge 44, Type (0, 0), BuildingBlock: ZUJKAS_clean_linker_0, # of connection points: 2
#     Edge 45, Type (0, 0), BuildingBlock: ZUJKAS_clean_linker_0, # of connection points: 2
#     Edge 46, Type (0, 0), BuildingBlock: ZUJKAS_clean_linker_0, # of connection points: 2
#     Edge 47, Type (0, 0), BuildingBlock: ZUJKAS_clean_linker_0, # of connection points: 2
#     Edge 48, Type (0, 0), BuildingBlock: ZUJKAS_clean_linker_0, # of connection points: 2
#     Edge 49, Type (0, 0), BuildingBlock: ZUJKAS_clean_linker_0, # of connection points: 2
#     Edge 50, Type (0, 0), BuildingBlock: ZUJKAS_clean_linker_0, # of connection points: 2
#     Edge 51, Type (0, 0), BuildingBlock: ZUJKAS_clean_linker_0, # of connection points: 2
#     Edge 52, Type (0, 0), BuildingBlock: ZUJKAS_clean_linker_0, # of connection points: 2
#     Edge 53, Type (0, 0), BuildingBlock: ZUJKAS_clean_linker_0, # of connection points: 2
#     Edge 54, Type (0, 0), BuildingBlock: ZUJKAS_clean_linker_0, # of connection points: 2
#     Edge 55, Type (0, 0), BuildingBlock: ZUJKAS_clean_linker_0, # of connection points: 2
#     Edge 56, Type (0, 0), BuildingBlock: ZUJKAS_clean_linker_0, # of connection points: 2
#     Edge 57, Type (0, 0), BuildingBlock: ZUJKAS_clean_linker_0, # of connection points: 2
#     Edge 58, Type (0, 0), BuildingBlock: ZUJKAS_clean_linker_0, # of connection points: 2
#     Edge 59, Type (0, 0), BuildingBlock: ZUJKAS_clean_linker_0, # of connection points: 2
#     Edge 60, Type (0, 0), BuildingBlock: ZUJKAS_clean_linker_0, # of connection points: 2
#     Edge 61, Type (0, 0), BuildingBlock: ZUJKAS_clean_linker_0, # of connection points: 2
#     Edge 62, Type (0, 0), BuildingBlock: ZUJKAS_clean_linker_0, # of connection points: 2
#     Edge 63, Type (0, 0), BuildingBlock: ZUJKAS_clean_linker_0, # of connection points: 2
#     Edge 64, Type (0, 0), BuildingBlock: ZUJKAS_clean_linker_0, # of connection points: 2
#     Edge 65, Type (0, 0), BuildingBlock: ZUJKAS_clean_linker_0, # of connection points: 2
#     Edge 66, Type (0, 0), BuildingBlock: ZUJKAS_clean_linker_0, # of connection points: 2
#     Edge 67, Type (0, 0), BuildingBlock: ZUJKAS_clean_linker_0, # of connection points: 2
#     Edge 68, Type (0, 0), BuildingBlock: ZUJKAS_clean_linker_0, # of connection points: 2
#     Edge 69, Type (0, 0), BuildingBlock: ZUJKAS_clean_linker_0, # of connection points: 2
#     Edge 70, Type (0, 0), BuildingBlock: ZUJKAS_clean_linker_0, # of connection points: 2
#     Edge 71, Type (0, 0), BuildingBlock: ZUJKAS_clean_linker_0, # of connection points: 2
# Relax obj value: 0.002
# Max RMSD: 0.025
# Mean RMSD: 0.021
data_MOF--net-lcs--node1-CEKHIL_clean_sbu_0--edge1-ZUJKAS_clean_linker_0
_symmetry_space_group_name_H-M    P1
_symmetry_Int_Tables_number       1
_symmetry_cell_setting            triclinic
loop_
_symmetry_equiv_pos_as_xyz
'x, y, z'
_cell_length_a     64.120299
_cell_length_b     63.036978
_cell_length_c     63.049907
_cell_angle_alpha  90.692671
_cell_angle_beta   90.341839
_cell_angle_gamma 90.568808
loop_
_atom_site_label
_atom_site_type_symbol
_atom_site_fract_x
_atom_site_fract_y
_atom_site_fract_z
_atom_type_partial_charge
Co0 Co 0.00868 0.26499 0.39028 0.0
O1 O 0.98077 0.27563 0.38677 0.0
O2 O 0.9926 0.26043 0.41581 0.0
C3 C 0.02484 0.29409 0.37696 0.0
O4 O 0.03651 0.25295 0.40054 0.0
Co5 Co 0.03809 0.25732 0.35241 0.0
O6 O 0.06008 0.2548 0.37444 0.0
C7 C 1.00393 0.22656 0.3607 0.0
C8 C 0.97733 0.26976 0.40611 0.0
C9 C 0.05534 0.2513 0.39368 0.0
O10 O 0.99962 0.23637 0.37817 0.0
O11 O 0.01773 0.23327 0.34771 0.0
O12 O 0.01892 0.29374 0.39662 0.0
O13 O 0.01967 0.27757 0.36572 0.0
Co14 Co 0.01568 0.75497 0.63705 0.0
O15 O 0.04231 0.74202 0.64175 0.0
O16 O 0.02381 0.73802 0.61235 0.0
C17 C 0.02626 0.78746 0.64879 0.0
O18 O 0.98772 0.76695 0.62652 0.0
Co19 Co 0.99168 0.77362 0.67546 0.0
O20 O 0.97375 0.78601 0.65321 0.0
C21 C 0.99342 0.72723 0.66908 0.0
C22 C 0.04095 0.73412 0.62275 0.0
C23 C 0.97375 0.77968 0.63392 0.0
O24 O 1.00104 0.72981 0.65039 0.0
O25 O 0.99058 0.74259 0.68219 0.0
O26 O 0.02971 0.78147 0.62937 0.0
O27 O 0.01792 0.77324 0.6607 0.0
Co28 Co 0.50933 0.76377 0.89012 0.0
O29 O 0.48169 0.77509 0.88677 0.0
O30 O 0.49317 0.75914 0.91555 0.0
C31 C 0.52628 0.79263 0.87734 0.0
O32 O 0.5369 0.75099 0.90018 0.0
Co33 Co 0.53813 0.7557 0.85183 0.0
O34 O 0.55989 0.75023 0.87346 0.0
C35 C 0.50273 0.72643 0.8595 0.0
C36 C 0.4781 0.76894 0.906 0.0
C37 C 0.55532 0.74754 0.89289 0.0
O38 O 0.49955 0.73556 0.87759 0.0
O39 O 0.51627 0.73323 0.84628 0.0
O40 O 0.52019 0.79216 0.89694 0.0
O41 O 0.52069 0.77646 0.86578 0.0
Co42 Co 0.51592 0.25494 0.13742 0.0
O43 O 0.54269 0.24186 0.14104 0.0
O44 O 0.52371 0.23935 0.11177 0.0
C45 C 0.52641 0.28695 0.1506 0.0
O46 O 0.48774 0.26715 0.12788 0.0
Co47 Co 0.49237 0.27158 0.17703 0.0
O48 O 0.47265 0.28313 0.15592 0.0
C49 C 0.49487 0.22556 0.16869 0.0
C50 C 0.54095 0.23486 0.12172 0.0
C51 C 0.47293 0.27819 0.13625 0.0
O52 O 0.50169 0.22904 0.14983 0.0
O53 O 0.4924 0.24032 0.18255 0.0
O54 O 0.52958 0.28198 0.13084 0.0
O55 O 0.5184 0.27205 0.16189 0.0
Co56 Co 0.01495 0.75683 0.13389 0.0
O57 O 0.04244 0.76925 0.1367 0.0
O58 O 0.03079 0.75224 0.1081 0.0
C59 C 0.99774 0.78542 0.14678 0.0
O60 O 0.98728 0.74308 0.12449 0.0
Co61 Co 0.98737 0.74894 0.17304 0.0
O62 O 0.96504 0.74288 0.15192 0.0
C63 C 0.02205 0.71976 0.16398 0.0
C64 C 0.04577 0.763 0.11735 0.0
C65 C 0.96903 0.73976 0.13236 0.0
O66 O 0.02526 0.72913 0.14619 0.0
O67 O 0.0087 0.72634 0.17752 0.0
O68 O 1.00348 0.78453 0.12708 0.0
O69 O 1.00399 0.76995 0.15843 0.0
Co70 Co 0.49941 0.76154 0.38901 0.0
O71 O 0.47198 0.7489 0.38687 0.0
O72 O 0.49213 0.7473 0.41528 0.0
C73 C 0.48978 0.79305 0.37521 0.0
O74 O 0.52831 0.77342 0.39731 0.0
Co75 Co 0.52255 0.77627 0.34852 0.0
O76 O 0.54298 0.78873 0.36893 0.0
C77 C 0.51975 0.73059 0.3583 0.0
C78 C 0.4743 0.74272 0.40625 0.0
C79 C 0.54316 0.78415 0.38857 0.0
O80 O 0.51236 0.73483 0.37685 0.0
O81 O 0.52279 0.74473 0.34421 0.0
O82 O 0.48708 0.7893 0.39523 0.0
O83 O 0.49686 0.77741 0.36416 0.0
Co84 Co 0.51436 0.25578 0.63375 0.0
O85 O 0.54206 0.26769 0.63658 0.0
O86 O 0.53013 0.25096 0.60794 0.0
C87 C 0.49783 0.28474 0.64677 0.0
O88 O 0.48645 0.24247 0.62432 0.0
Co89 Co 0.48626 0.24853 0.67263 0.0
O90 O 0.46375 0.24487 0.6512 0.0
C91 C 0.52014 0.21825 0.66353 0.0
C92 C 0.54529 0.26143 0.61721 0.0
C93 C 0.46784 0.2408 0.63183 0.0
O94 O 0.52412 0.22789 0.64604 0.0
O95 O 0.50656 0.22489 0.67681 0.0
O96 O 0.50342 0.28376 0.62703 0.0
O97 O 0.50368 0.26905 0.65832 0.0
Co98 Co 0.99917 0.2617 0.88616 0.0
O99 O 0.972 0.24851 0.88364 0.0
O100 O 0.99171 0.24753 0.91242 0.0
C101 C 0.98931 0.29298 0.87195 0.0
O102 O 0.02775 0.27421 0.89485 0.0
Co103 Co 0.02265 0.27633 0.84574 0.0
O104 O 0.04295 0.28872 0.86629 0.0
C105 C 0.02009 0.23076 0.85588 0.0
C106 C 0.97411 0.24254 0.90312 0.0
C107 C 0.04277 0.28464 0.88605 0.0
O108 O 0.01276 0.23513 0.87443 0.0
O109 O 0.02293 0.24478 0.84163 0.0
O110 O 0.98615 0.28923 0.8919 0.0
O111 O 0.99685 0.27737 0.86119 0.0
Co112 Co 0.37915 1.00194 0.26622 0.0
O113 O 0.37709 0.97498 0.2802 0.0
O114 O 0.40508 0.9867 0.26342 0.0
C115 C 0.36563 0.02118 0.29337 0.0
O116 O 0.38777 0.02896 0.25086 0.0
Co117 Co 0.34025 0.02812 0.25549 0.0
O118 O 0.36038 0.05054 0.24714 0.0
C119 C 0.3497 0.99 0.22977 0.0
C120 C 0.39632 0.972 0.27471 0.0
C121 C 0.37974 0.04669 0.24521 0.0
O122 O 0.36762 0.98868 0.23903 0.0
O123 O 0.33592 1.00348 0.23543 0.0
O124 O 0.38521 0.01613 0.29326 0.0
O125 O 0.35453 0.01326 0.27796 0.0
Co126 Co 0.25446 0.1311 0.50594 0.0
O127 O 0.22666 0.12861 0.49428 0.0
O128 O 0.23919 0.15715 0.51079 0.0
C129 C 0.27074 0.11787 0.4769 0.0
O130 O 0.28251 0.14015 0.51912 0.0
Co131 Co 0.28191 0.09183 0.51305 0.0
O132 O 0.30474 0.1129 0.51721 0.0
C133 C 0.24811 0.10131 0.54337 0.0
C134 C 0.22381 0.14804 0.50053 0.0
C135 C 0.30094 0.13235 0.52114 0.0
O136 O 0.24453 0.11893 0.53385 0.0
O137 O 0.26142 0.08782 0.53665 0.0
O138 O 0.26545 0.13768 0.47791 0.0
O139 O 0.26472 0.10638 0.49262 0.0
Co140 Co 0.13104 0.00973 0.7692 0.0
O141 O 0.12734 0.99333 0.79455 0.0
O142 O 0.15607 0.99375 0.77534 0.0
C143 C 0.11805 0.04005 0.7832 0.0
O144 O 0.14099 0.02517 0.74257 0.0
Co145 Co 0.09339 0.02949 0.74572 0.0
O146 O 0.11498 0.04476 0.72931 0.0
C147 C 0.10076 0.98326 0.74257 0.0
C148 C 0.14634 0.98693 0.79202 0.0
C149 C 0.13395 0.03893 0.72939 0.0
O150 O 0.11882 0.98564 0.75146 0.0
O151 O 0.08779 0.99845 0.74063 0.0
O152 O 0.1374 0.03504 0.7865 0.0
O153 O 0.10705 0.02614 0.77282 0.0
Co154 Co 0.26115 0.87321 0.99932 0.0
O155 O 0.28862 0.87591 0.98733 0.0
O156 O 0.27671 0.84735 0.00348 0.0
C157 C 0.2441 0.88653 0.97086 0.0
O158 O 0.23361 0.86385 0.01275 0.0
Co159 Co 0.23371 0.91216 0.00813 0.0
O160 O 0.21138 0.89111 0.0141 0.0
C161 C 0.26943 0.90364 0.03645 0.0
C162 C 0.29184 0.85661 0.99338 0.0
C163 C 0.21546 0.87156 0.01663 0.0
O164 O 0.27184 0.88543 0.0273 0.0
O165 O 0.25622 0.91724 0.02995 0.0
O166 O 0.24943 0.86671 0.97124 0.0
O167 O 0.2504 0.89791 0.98689 0.0
Co168 Co 0.26964 0.37861 0.00477 0.0
O169 O 0.29726 0.38216 0.0166 0.0
O170 O 0.27794 0.35327 0.02005 0.0
C171 C 0.27827 0.39139 0.97244 0.0
O172 O 0.24072 0.36892 0.99386 0.0
Co173 Co 0.24523 0.41802 0.9892 0.0
O174 O 0.22407 0.39685 0.97983 0.0
C175 C 0.24921 0.41002 0.0351 0.0
C176 C 0.29561 0.36303 0.02373 0.0
C177 C 0.22492 0.37724 0.98439 0.0
O178 O 0.25692 0.39153 0.03131 0.0
O179 O 0.24556 0.42349 0.02052 0.0
O180 O 0.28175 0.37169 0.97702 0.0
O181 O 0.27111 0.40279 0.98779 0.0
Co182 Co 0.7534 0.13069 0.01284 0.0
O183 O 0.72679 0.12658 0.02629 0.0
O184 O 0.74579 0.15588 0.0292 0.0
C185 C 0.74243 0.11833 0.98074 0.0
O186 O 0.78137 0.14087 1.00043 0.0
Co187 Co 0.77715 0.09224 0.99404 0.0
O188 O 0.795 0.11427 0.98105 0.0
C189 C 0.77637 0.09926 0.04056 0.0
C190 C 0.72856 0.14579 0.03362 0.0
C191 C 0.79518 0.13352 0.98748 0.0
O192 O 0.76803 0.11763 0.03809 0.0
O193 O 0.77947 0.0863 0.02512 0.0
O194 O 0.73929 0.13793 0.98631 0.0
O195 O 0.75082 0.10668 0.99508 0.0
Co196 Co 0.14122 0.51084 0.2607 0.0
O197 O 0.14535 0.5362 0.2444 0.0
O198 O 0.11673 0.51643 0.24335 0.0
C199 C 0.15293 0.52546 0.29153 0.0
O200 O 0.13089 0.48415 0.27601 0.0
Co201 Co 0.17836 0.48867 0.28281 0.0
O202 O 0.15621 0.47292 0.29785 0.0
C203 C 0.17226 0.48377 0.23636 0.0
C204 C 0.12654 0.53343 0.23717 0.0
C205 C 0.13751 0.47201 0.29093 0.0
O206 O 0.15448 0.49315 0.23741 0.0
O207 O 0.1845 0.48197 0.25236 0.0
O208 O 0.13376 0.52815 0.28545 0.0
O209 O 0.16455 0.51529 0.27834 0.0
Co210 Co 0.77003 0.87868 0.5039 0.0
O211 O 0.7968 0.88204 0.51775 0.0
O212 O 0.77725 0.8531 0.51927 0.0
C213 C 0.78089 0.89181 0.47244 0.0
O214 O 0.74191 0.86904 0.49095 0.0
Co215 Co 0.74641 0.91768 0.48633 0.0
O216 O 0.72792 0.89604 0.47293 0.0
C217 C 0.7468 0.90956 0.53255 0.0
C218 C 0.79467 0.86274 0.52433 0.0
C219 C 0.72777 0.87671 0.47862 0.0
O220 O 0.75554 0.8914 0.52956 0.0
O221 O 0.74361 0.92272 0.51758 0.0
O222 O 0.78402 0.87205 0.47703 0.0
O223 O 0.77261 0.90305 0.4873 0.0
Co224 Co 0.89246 0.99742 0.26165 0.0
O225 O 0.8957 0.98336 0.28842 0.0
O226 O 0.86757 1.00079 0.27853 0.0
C227 C 0.90444 0.96997 0.24177 0.0
O228 O 0.88257 0.01298 0.23524 0.0
Co229 Co 0.92964 0.00746 0.23266 0.0
O230 O 0.90814 0.01427 0.21115 0.0
C231 C 0.92268 0.03411 0.27089 0.0
C232 C 0.87683 0.98927 0.29266 0.0
C233 C 0.88929 0.01733 0.21656 0.0
O234 O 0.9052 0.02443 0.27411 0.0
O235 O 0.93525 0.02861 0.25613 0.0
O236 O 0.88516 0.97041 0.24791 0.0
O237 O 0.91617 0.98533 0.24884 0.0
Co238 Co 0.25315 0.62915 0.51328 0.0
O239 O 0.22627 0.62416 0.52574 0.0
O240 O 0.24477 0.65353 0.53054 0.0
C241 C 0.24297 0.61798 0.48051 0.0
O242 O 0.28131 0.64007 0.50192 0.0
Co243 Co 0.27757 0.59156 0.49371 0.0
O244 O 0.29518 0.61429 0.48161 0.0
C245 C 0.27604 0.59705 0.54036 0.0
C246 C 0.2275 0.64306 0.53392 0.0
C247 C 0.29523 0.63329 0.48877 0.0
O248 O 0.26735 0.61529 0.53833 0.0
O249 O 0.27968 0.58465 0.52459 0.0
O250 O 0.2396 0.63733 0.48677 0.0
O251 O 0.25115 0.60583 0.49455 0.0
Co252 Co 0.39134 0.49637 0.76252 0.0
O253 O 0.39426 0.48274 0.78958 0.0
O254 O 0.36613 0.49973 0.77889 0.0
C255 C 0.40394 0.46878 0.74325 0.0
O256 O 0.38171 0.5114 0.73573 0.0
Co257 Co 0.42883 0.50638 0.73393 0.0
O258 O 0.40759 0.51274 0.712 0.0
C259 C 0.42093 0.53367 0.77152 0.0
C260 C 0.37524 0.4885 0.79335 0.0
C261 C 0.38863 0.51561 0.7171 0.0
O262 O 0.40358 0.52372 0.77475 0.0
O263 O 0.43375 0.52812 0.75702 0.0
O264 O 0.38456 0.46908 0.74907 0.0
O265 O 0.4154 0.48436 0.75029 0.0
Co266 Co 0.64159 0.01022 0.76083 0.0
O267 O 0.6451 0.03631 0.74559 0.0
O268 O 0.61685 0.01605 0.74388 0.0
C269 C 0.65332 0.0237 0.7922 0.0
O270 O 0.63197 0.98272 0.77515 0.0
Co271 Co 0.67984 0.98812 0.78112 0.0
O272 O 0.65863 0.96941 0.79402 0.0
C273 C 0.67304 0.9853 0.73473 0.0
C274 C 0.62634 0.03345 0.7383 0.0
C275 C 0.63959 0.96904 0.78809 0.0
O276 O 0.65488 0.99375 0.73666 0.0
O277 O 0.6858 0.98351 0.75028 0.0
O278 O 0.63406 0.02632 0.78638 0.0
O279 O 0.66501 0.01444 0.7784 0.0
Co280 Co 0.75521 0.63119 0.00695 0.0
O281 O 0.72751 0.62824 0.99512 0.0
O282 O 0.73944 0.65691 0.01185 0.0
C283 C 0.77192 0.61828 0.97802 0.0
O284 O 0.7831 0.64072 0.02017 0.0
Co285 Co 0.78299 0.59211 0.01433 0.0
O286 O 0.80534 0.61337 0.01996 0.0
C287 C 0.74889 0.60121 0.04431 0.0
C288 C 0.72429 0.64759 1.00142 0.0
C289 C 0.80138 0.63291 0.02321 0.0
O290 O 0.74538 0.61888 0.03485 0.0
O291 O 0.76222 0.58774 0.0376 0.0
O292 O 0.76611 0.63794 0.97894 0.0
O293 O 0.76603 0.60669 0.99371 0.0
Co294 Co 0.87751 0.5025 0.76598 0.0
O295 O 0.87488 0.47552 0.77979 0.0
O296 O 0.90286 0.48639 0.76251 0.0
C297 C 0.86495 0.52193 0.79348 0.0
O298 O 0.88664 0.52946 0.75075 0.0
Co299 Co 0.839 0.52957 0.75594 0.0
O300 O 0.85955 0.55155 0.74751 0.0
C301 C 0.84732 0.49155 0.72976 0.0
C302 C 0.89387 0.47188 0.77386 0.0
C303 C 0.87883 0.54737 0.74534 0.0
O304 O 0.86528 0.48982 0.73885 0.0
O305 O 0.83385 0.50525 0.73565 0.0
O306 O 0.88433 0.51618 0.79309 0.0
O307 O 0.85342 0.51448 0.77816 0.0
Co308 Co 0.75971 0.37307 0.49966 0.0
O309 O 0.78716 0.3761 0.48765 0.0
O310 O 0.7756 0.3474 0.5038 0.0
C311 C 0.74244 0.38617 0.47123 0.0
O312 O 0.73227 0.36333 0.51307 0.0
Co313 Co 0.73175 0.41166 0.5085 0.0
O314 O 0.70968 0.39029 0.51435 0.0
C315 C 0.76774 0.40373 0.53664 0.0
C316 C 0.79061 0.35683 0.49368 0.0
C317 C 0.714 0.37079 0.51688 0.0
O318 O 0.77024 0.38545 0.52765 0.0
O319 O 0.75441 0.41718 0.53006 0.0
O320 O 0.74805 0.36643 0.47157 0.0
O321 O 0.74861 0.39761 0.48726 0.0
Co322 Co 0.63037 0.51022 0.26976 0.0
O323 O 0.62623 0.49367 0.29496 0.0
O324 O 0.65522 0.49406 0.27617 0.0
C325 C 0.61731 0.54049 0.28381 0.0
O326 O 0.64089 0.52574 0.24336 0.0
Co327 Co 0.5935 0.53052 0.24565 0.0
O328 O 0.61548 0.5461 0.23015 0.0
C329 C 0.60092 0.48431 0.24145 0.0
C330 C 0.64522 0.48716 0.29265 0.0
C331 C 0.63432 0.5399 0.23035 0.0
O332 O 0.6183 0.48625 0.25174 0.0
O333 O 0.58836 0.49974 0.23877 0.0
O334 O 0.6366 0.53536 0.28729 0.0
O335 O 0.60638 0.52676 0.27311 0.0
H336 H 0.14506 0.44689 0.32505 0.0
H337 H 0.12403 0.41754 0.3381 0.0
H338 H 0.07731 0.42938 0.29039 0.0
H339 H 0.09834 0.45916 0.27709 0.0
H340 H 0.06106 0.42059 0.33194 0.0
H341 H 0.11825 0.36037 0.30596 0.0
H342 H 0.12948 0.38129 0.32204 0.0
H343 H 0.11868 0.38727 0.29644 0.0
C344 C 0.1303 0.44341 0.31726 0.0
C345 C 0.12355 0.45533 0.29979 0.0
C346 C 0.11832 0.42651 0.32475 0.0
C347 C 0.09933 0.42097 0.31495 0.0
C348 C 0.09203 0.43329 0.29807 0.0
H349 H 0.03767 0.29885 0.33603 0.0
H350 H 0.05448 0.32988 0.3203 0.0
C351 C 0.10406 0.45031 0.29051 0.0
C352 C 0.08746 0.40208 0.3223 0.0
H353 H 0.09185 0.34868 0.32966 0.0
C354 C 0.06769 0.40483 0.3313 0.0
C355 C 0.096 0.38147 0.3212 0.0
C356 C 0.11668 0.37731 0.31071 0.0
C357 C 0.05654 0.38762 0.33987 0.0
C358 C 0.06556 0.36719 0.3397 0.0
C359 C 0.08503 0.36436 0.33005 0.0
C360 C 0.05512 0.34848 0.34937 0.0
C361 C 0.03515 0.39146 0.34886 0.0
C362 C 0.0502 0.34841 0.37106 0.0
C363 C 0.04059 0.33066 0.38011 0.0
C364 C 0.03583 0.31257 0.36768 0.0
C365 C 0.0411 0.31253 0.34606 0.0
C366 C 0.05068 0.33028 0.33702 0.0
H367 H 0.02817 0.40616 0.3425 0.0
H368 H 0.02445 0.3779 0.3453 0.0
H369 H 0.0364 0.39332 0.36635 0.0
H370 H 0.05394 0.36203 0.38105 0.0
H371 H 0.03681 0.33116 0.39683 0.0
H372 H 0.96188 0.76528 0.59386 0.0
H373 H 0.93118 0.77605 0.57319 0.0
H374 H 0.91524 0.82104 0.62235 0.0
H375 H 0.94537 0.81039 0.64301 0.0
H376 H 0.88156 0.79651 0.60969 0.0
H377 H 0.92197 0.83078 0.54004 0.0
H378 H 0.92856 0.80391 0.54632 0.0
H379 H 0.93548 0.82503 0.56447 0.0
C380 C 0.95195 0.77761 0.60015 0.0
C381 C 0.95619 0.78688 0.62018 0.0
C382 C 0.9344 0.78379 0.58829 0.0
C383 C 0.92088 0.79946 0.59616 0.0
C384 C 0.92532 0.80888 0.61595 0.0
H385 H 0.83116 0.88065 0.53829 0.0
H386 H 0.86075 0.86338 0.55509 0.0
C387 C 0.94269 0.80274 0.62775 0.0
C388 C 0.90181 0.806 0.58432 0.0
H389 H 0.88525 0.83131 0.53971 0.0
C390 C 0.88234 0.80395 0.59428 0.0
C391 C 0.90282 0.81589 0.56432 0.0
C392 C 0.92331 0.81924 0.55315 0.0
C393 C 0.864 0.81191 0.58508 0.0
C394 C 0.86502 0.82192 0.56513 0.0
C395 C 0.88442 0.82356 0.55495 0.0
C396 C 0.84649 0.83214 0.55523 0.0
C397 C 0.84385 0.81033 0.59724 0.0
C398 C 0.82843 0.8204 0.54974 0.0
C399 C 0.81129 0.83034 0.5402 0.0
C400 C 0.81196 0.85217 0.53582 0.0
C401 C 0.83004 0.86383 0.54145 0.0
C402 C 0.84706 0.85394 0.551 0.0
H403 H 0.84657 0.80663 0.61421 0.0
H404 H 0.83502 0.82536 0.59632 0.0
H405 H 0.83402 0.79745 0.59022 0.0
H406 H 0.82769 0.80349 0.55249 0.0
H407 H 0.79771 0.82085 0.53589 0.0
H408 H 0.39886 0.55183 0.8045 0.0
H409 H 0.40748 0.58476 0.82416 0.0
H410 H 0.46334 0.59211 0.78725 0.0
H411 H 0.45512 0.55953 0.76771 0.0
H412 H 0.45587 0.59599 0.84426 0.0
H413 H 0.41993 0.64808 0.78379 0.0
H414 H 0.41008 0.62169 0.78901 0.0
H415 H 0.43384 0.62507 0.77454 0.0
C416 C 0.41305 0.56037 0.80066 0.0
C417 C 0.42624 0.55296 0.78443 0.0
C418 C 0.41794 0.57916 0.81192 0.0
C419 C 0.43601 0.59081 0.80707 0.0
C420 C 0.44932 0.58331 0.79119 0.0
H421 H 0.50474 0.70363 0.82244 0.0
H422 H 0.48581 0.67136 0.81257 0.0
C423 C 0.44453 0.56462 0.78003 0.0
C424 C 0.4411 0.61122 0.8179 0.0
H425 H 0.44264 0.6645 0.80893 0.0
C426 C 0.45262 0.61106 0.83688 0.0
C427 C 0.43691 0.63075 0.80807 0.0
C428 C 0.42442 0.63162 0.78776 0.0
C429 C 0.46103 0.62993 0.84571 0.0
C430 C 0.45761 0.64941 0.83534 0.0
C431 C 0.44523 0.64959 0.81688 0.0
C432 C 0.46861 0.66934 0.84189 0.0
C433 C 0.47454 0.62873 0.86532 0.0
C434 C 0.46514 0.67915 0.86167 0.0
C435 C 0.47605 0.69778 0.86747 0.0
C436 C 0.49061 0.70694 0.85355 0.0
C437 C 0.49376 0.69712 0.83366 0.0
C438 C 0.48288 0.67861 0.82792 0.0
H439 H 0.47833 0.61212 0.86943 0.0
H440 H 0.48932 0.63773 0.8631 0.0
H441 H 0.46622 0.636 0.87893 0.0
H442 H 0.45395 0.67246 0.87258 0.0
H443 H 0.47313 0.70494 0.88286 0.0
H444 H 0.54969 0.23039 0.07922 0.0
H445 H 0.58156 0.21591 0.0635 0.0
H446 H 0.60393 0.19961 0.12582 0.0
H447 H 0.57267 0.21472 0.14153 0.0
H448 H 0.63369 0.21872 0.10501 0.0
H449 H 0.59949 0.15636 0.05235 0.0
H450 H 0.58971 0.18232 0.04702 0.0
H451 H 0.58432 0.17011 0.07209 0.0
C452 C 0.56127 0.22338 0.08949 0.0
C453 C 0.55863 0.22365 0.1116 0.0
C454 C 0.57949 0.21505 0.08049 0.0
C455 C 0.59519 0.20642 0.09341 0.0
C456 C 0.59218 0.20619 0.11545 0.0
H457 H 0.6962 0.12586 0.05296 0.0
H458 H 0.66484 0.14165 0.06786 0.0
C459 C 0.5742 0.21476 0.12443 0.0
C460 C 0.61519 0.19847 0.08437 0.0
H461 H 0.63571 0.16322 0.04875 0.0
C462 C 0.6341 0.20654 0.09272 0.0
C463 C 0.61585 0.18245 0.06845 0.0
C464 C 0.59628 0.17214 0.05959 0.0
C465 C 0.65352 0.19896 0.08584 0.0
C466 C 0.6542 0.18326 0.0696 0.0
C467 C 0.63529 0.17534 0.0611 0.0
C468 C 0.67419 0.17409 0.06179 0.0
C469 C 0.67306 0.20734 0.09662 0.0
C470 C 0.69024 0.18701 0.05366 0.0
C471 C 0.70849 0.17796 0.04547 0.0
C472 C 0.71084 0.15582 0.04484 0.0
C473 C 0.6949 0.14299 0.05323 0.0
C474 C 0.67688 0.15201 0.06166 0.0
H475 H 0.66966 0.21432 0.11248 0.0
H476 H 0.68475 0.19463 0.09859 0.0
H477 H 0.68003 0.22003 0.0868 0.0
H478 H 0.68843 0.20404 0.05306 0.0
H479 H 0.72033 0.18825 0.03882 0.0
H480 H 0.145 0.56801 0.21944 0.0
H481 H 0.128 0.59841 0.20337 0.0
H482 H 0.06807 0.56785 0.21062 0.0
H483 H 0.08506 0.53708 0.22656 0.0
H484 H 0.07285 0.59028 0.17141 0.0
H485 H 0.09541 0.63977 0.24147 0.0
H486 H 0.11681 0.6269 0.22855 0.0
H487 H 0.0971 0.61122 0.24133 0.0
C488 C 0.12822 0.56756 0.21736 0.0
C489 C 0.11637 0.55018 0.22449 0.0
C490 C 0.11852 0.58503 0.20823 0.0
C491 C 0.09673 0.58562 0.20619 0.0
C492 C 0.08491 0.56779 0.21215 0.0
H493 H 0.01918 0.69599 0.19986 0.0
H494 H 0.03739 0.66349 0.20837 0.0
C495 C 0.09464 0.5502 0.22124 0.0
C496 C 0.08632 0.60536 0.19913 0.0
H497 H 0.0794 0.6574 0.21293 0.0
C498 C 0.07428 0.60498 0.18044 0.0
C499 C 0.08801 0.62448 0.21107 0.0
C500 C 0.09986 0.62568 0.23182 0.0
C501 C 0.06401 0.62325 0.17331 0.0
C502 C 0.06603 0.64246 0.18508 0.0
C503 C 0.07802 0.64276 0.20379 0.0
C504 C 0.05482 0.66214 0.17914 0.0
C505 C 0.05063 0.62172 0.15359 0.0
C506 C 0.05866 0.67244 0.15987 0.0
C507 C 0.04819 0.69122 0.15487 0.0
C508 C 0.03373 0.7001 0.1691 0.0
C509 C 0.03014 0.68974 0.18843 0.0
C510 C 0.04056 0.67107 0.19338 0.0
H511 H 0.04703 0.60499 0.14908 0.0
H512 H 0.03575 0.6303 0.15585 0.0
H513 H 0.05905 0.62917 0.14022 0.0
H514 H 0.0699 0.66609 0.1488 0.0
H515 H 0.05142 0.69875 0.13988 0.0
H516 H 0.57872 0.80325 0.37424 0.0
H517 H 0.60985 0.8134 0.39419 0.0
H518 H 0.58194 0.79045 0.45164 0.0
H519 H 0.55031 0.78009 0.43166 0.0
H520 H 0.60091 0.83154 0.4554 0.0
H521 H 0.65485 0.77413 0.41849 0.0
H522 H 0.64012 0.78861 0.39928 0.0
H523 H 0.62682 0.77103 0.41708 0.0
C524 C 0.57904 0.80025 0.39112 0.0
C525 C 0.56187 0.79075 0.40128 0.0
C526 C 0.59703 0.80594 0.40248 0.0
C527 C 0.59844 0.8023 0.42432 0.0
C528 C 0.58128 0.79318 0.43472 0.0
H529 H 0.71884 0.83476 0.488 0.0
H530 H 0.68745 0.8142 0.47774 0.0
C531 C 0.56319 0.78731 0.42328 0.0
C532 C 0.6176 0.80907 0.43612 0.0
H533 H 0.67074 0.80491 0.43526 0.0
C534 C 0.61614 0.82543 0.45131 0.0
C535 C 0.63749 0.80092 0.43102 0.0
C536 C 0.63995 0.78255 0.41573 0.0
C537 C 0.63411 0.8348 0.46043 0.0
C538 C 0.65405 0.82777 0.45406 0.0
C539 C 0.65547 0.81045 0.43998 0.0
C540 C 0.67338 0.83965 0.46013 0.0
C541 C 0.63163 0.85262 0.47638 0.0
C542 C 0.67614 0.86049 0.45314 0.0
C543 C 0.69398 0.87214 0.45877 0.0
C544 C 0.70965 0.86328 0.47159 0.0
C545 C 0.70713 0.84213 0.47817 0.0
C546 C 0.68918 0.83037 0.47237 0.0
H547 H 0.61611 0.85196 0.48411 0.0
H548 H 0.64395 0.8521 0.48881 0.0
H549 H 0.63298 0.86802 0.46814 0.0
H550 H 0.66439 0.86782 0.4433 0.0
H551 H 0.69529 0.88829 0.45321 0.0
H552 H 0.47808 0.31617 0.62518 0.0
H553 H 0.46062 0.34731 0.64 0.0
H554 H 0.47515 0.32641 0.70325 0.0
H555 H 0.49184 0.29482 0.68852 0.0
H556 H 0.43701 0.34094 0.70201 0.0
H557 H 0.48861 0.39952 0.66311 0.0
H558 H 0.47538 0.38241 0.64441 0.0
H559 H 0.49394 0.3715 0.66274 0.0
C560 C 0.47749 0.3182 0.64225 0.0
C561 C 0.48646 0.30312 0.65568 0.0
C562 C 0.46766 0.33612 0.65071 0.0
C563 C 0.46701 0.33957 0.67276 0.0
C564 C 0.47554 0.32423 0.68619 0.0
H565 H 0.44501 0.45954 0.73728 0.0
H566 H 0.45954 0.42818 0.71983 0.0
C567 C 0.48509 0.30616 0.67775 0.0
C568 C 0.45738 0.35904 0.68194 0.0
H569 H 0.45898 0.41325 0.68081 0.0
C570 C 0.44185 0.35675 0.69739 0.0
C571 C 0.46389 0.37974 0.6762 0.0
C572 C 0.48151 0.38349 0.66088 0.0
C573 C 0.43266 0.37446 0.70721 0.0
C574 C 0.43863 0.39514 0.70091 0.0
C575 C 0.45419 0.39744 0.68548 0.0
C576 C 0.4296 0.4146 0.71073 0.0
C577 C 0.41718 0.37073 0.72476 0.0
C578 C 0.40793 0.41779 0.71102 0.0
C579 C 0.39958 0.43557 0.72128 0.0
C580 C 0.41275 0.45079 0.73104 0.0
C581 C 0.43445 0.44809 0.72992 0.0
C582 C 0.44277 0.43015 0.71994 0.0
H583 H 0.41905 0.3548 0.73184 0.0
H584 H 0.41889 0.38288 0.73757 0.0
H585 H 0.40113 0.37157 0.71819 0.0
H586 H 0.39744 0.40643 0.70344 0.0
H587 H 0.3828 0.43734 0.72168 0.0
H588 H 0.93706 0.22926 0.88602 0.0
H589 H 0.90734 0.21328 0.90395 0.0
H590 H 0.94127 0.2154 0.96319 0.0
H591 H 0.97144 0.23127 0.94516 0.0
H592 H 0.92066 0.17734 0.95677 0.0
H593 H 0.8663 0.24327 0.9425 0.0
H594 H 0.87787 0.23373 0.91842 0.0
H595 H 0.89409 0.24588 0.93866 0.0
C596 C 0.9383 0.22634 0.90287 0.0
C597 C 0.95665 0.23167 0.91417 0.0
C598 C 0.92116 0.21735 0.91315 0.0
C599 C 0.9218 0.21361 0.93504 0.0
C600 C 0.9403 0.21836 0.94633 0.0
H601 H 0.80695 0.17361 1.00185 0.0
H602 H 0.83796 0.19422 0.99145 0.0
C603 C 0.95755 0.22738 0.936 0.0
C604 C 0.9033 0.20417 0.94581 0.0
H605 H 0.85067 0.20993 0.95211 0.0
C606 C 0.90543 0.18462 0.95599 0.0
C607 C 0.88341 0.21379 0.94518 0.0
C608 C 0.88028 0.23543 0.9358 0.0
C609 C 0.88808 0.17395 0.96452 0.0
C610 C 0.86796 0.18286 0.96255 0.0
C611 C 0.866 0.20293 0.95339 0.0
C612 C 0.84875 0.17094 0.96863 0.0
C613 C 0.89147 0.15309 0.97545 0.0
C614 C 0.84412 0.15137 0.9588 0.0
C615 C 0.82651 0.13966 0.96463 0.0
C616 C 0.81287 0.14723 0.98039 0.0
C617 C 0.81709 0.16724 0.98971 0.0
C618 C 0.83485 0.17901 0.98383 0.0
H619 H 0.9077 0.15181 0.98154 0.0
H620 H 0.88052 0.15103 0.98886 0.0
H621 H 0.88878 0.13991 0.96389 0.0
H622 H 0.85423 0.14506 0.94661 0.0
H623 H 0.82375 0.12448 0.95683 0.0
H624 H 0.29011 0.13928 0.445 0.0
H625 H 0.30734 0.12429 0.41378 0.0
H626 H 0.29333 0.06113 0.43553 0.0
H627 H 0.27681 0.07605 0.46717 0.0
H628 H 0.33158 0.06285 0.42064 0.0
H629 H 0.27901 0.10007 0.36216 0.0
H630 H 0.29208 0.11919 0.37895 0.0
H631 H 0.27386 0.10063 0.39024 0.0
C632 C 0.29076 0.1222 0.44315 0.0
C633 C 0.28198 0.10884 0.45847 0.0
C634 C 0.30046 0.11364 0.42518 0.0
C635 C 0.30119 0.09156 0.42196 0.0
C636 C 0.29285 0.07821 0.43754 0.0
H637 H 0.32432 0.02586 0.30257 0.0
H638 H 0.30924 0.04328 0.33373 0.0
C639 C 0.2834 0.08676 0.45564 0.0
C640 C 0.31077 0.08228 0.4025 0.0
H641 H 0.30882 0.08275 0.34831 0.0
C642 C 0.32656 0.06718 0.40482 0.0
C643 C 0.30403 0.08764 0.38182 0.0
C644 C 0.28617 0.1026 0.37809 0.0
C645 C 0.33583 0.05739 0.38714 0.0
C646 C 0.32964 0.06335 0.36645 0.0
C647 C 0.31378 0.07836 0.36412 0.0
C648 C 0.3389 0.05365 0.34703 0.0
C649 C 0.35168 0.04027 0.3909 0.0
C650 C 0.36056 0.05414 0.34375 0.0
C651 C 0.36922 0.04393 0.32609 0.0
C652 C 0.35636 0.03342 0.31109 0.0
C653 C 0.33463 0.03379 0.31386 0.0
C654 C 0.326 0.04375 0.33168 0.0
H655 H 0.35003 0.03329 0.40691 0.0
H656 H 0.3502 0.02732 0.37888 0.0
H657 H 0.3676 0.04724 0.38986 0.0
H658 H 0.37082 0.06224 0.35495 0.0
H659 H 0.386 0.04413 0.32427 0.0
H660 H 0.12655 0.07213 0.70289 0.0
H661 H 0.14734 0.08371 0.67279 0.0
H662 H 0.1935 0.03668 0.68714 0.0
H663 H 0.1727 0.02482 0.71738 0.0
H664 H 0.18992 0.0985 0.6701 0.0
H665 H 0.17557 0.02348 0.62482 0.0
H666 H 0.16031 0.03095 0.64764 0.0
H667 H 0.18607 0.02057 0.65111 0.0
C668 C 0.14119 0.06428 0.69981 0.0
C669 C 0.14782 0.04736 0.71252 0.0
C670 C 0.15308 0.07099 0.68257 0.0
C671 C 0.1718 0.06086 0.67751 0.0
C672 C 0.17892 0.04451 0.69058 0.0
H673 H 0.25574 0.06895 0.57076 0.0
H674 H 0.23759 0.06041 0.6034 0.0
C675 C 0.16707 0.03784 0.70795 0.0
C676 C 0.18338 0.06701 0.65812 0.0
H677 H 0.19775 0.04879 0.60915 0.0
C678 C 0.19167 0.08765 0.65676 0.0
C679 C 0.18554 0.05287 0.6407 0.0
C680 C 0.17629 0.03077 0.64094 0.0
C681 C 0.20244 0.09439 0.6386 0.0
C682 C 0.20452 0.08027 0.62111 0.0
C683 C 0.19616 0.05964 0.62251 0.0
C684 C 0.21574 0.08624 0.60138 0.0
C685 C 0.21194 0.11639 0.63858 0.0
C686 C 0.20948 0.1036 0.58915 0.0
C687 C 0.21998 0.10868 0.57037 0.0
C688 C 0.23679 0.09631 0.5633 0.0
C689 C 0.24285 0.07885 0.57557 0.0
C690 C 0.23248 0.07391 0.59432 0.0
H691 H 0.21397 0.12287 0.65494 0.0
H692 H 0.22734 0.11645 0.63062 0.0
H693 H 0.20145 0.12717 0.62984 0.0
H694 H 0.19629 0.11308 0.59395 0.0
H695 H 0.21477 0.12213 0.5613 0.0
H696 H 0.12763 0.96336 0.82257 0.0
H697 H 0.14424 0.94469 0.85178 0.0
H698 H 0.20481 0.96297 0.82839 0.0
H699 H 0.18821 0.98101 0.79854 0.0
H700 H 0.20567 0.92347 0.84273 0.0
H701 H 0.16776 0.9742 0.90314 0.0
H702 H 0.14906 0.96053 0.88659 0.0
H703 H 0.16647 0.97985 0.87521 0.0
C704 C 0.1445 0.96325 0.82352 0.0
C705 C 0.15661 0.97382 0.80834 0.0
C706 C 0.15399 0.95272 0.84036 0.0
C707 C 0.17578 0.95295 0.84273 0.0
C708 C 0.18796 0.96272 0.82706 0.0
H709 H 0.23901 0.92851 0.96234 0.0
H710 H 0.22309 0.94409 0.93092 0.0
C711 C 0.17846 0.97301 0.80998 0.0
C712 C 0.18579 0.94333 0.86169 0.0
H713 H 0.18525 0.94375 0.91591 0.0
C714 C 0.20126 0.92797 0.85874 0.0
C715 C 0.18039 0.94947 0.88264 0.0
C716 C 0.16518 0.96708 0.88712 0.0
C717 C 0.2112 0.91836 0.87606 0.0
C718 C 0.20505 0.92376 0.897 0.0
C719 C 0.1898 0.93934 0.89992 0.0
C720 C 0.21464 0.914 0.91614 0.0
C721 C 0.22858 0.90296 0.87169 0.0
C722 C 0.21491 0.89187 0.91862 0.0
C723 C 0.22429 0.8829 0.93649 0.0
C724 C 0.23318 0.89591 0.95247 0.0
C725 C 0.23229 0.91805 0.95032 0.0
C726 C 0.22319 0.92698 0.93233 0.0
H727 H 0.23558 0.90556 0.85584 0.0
H728 H 0.2411 0.90438 0.88388 0.0
H729 H 0.22222 0.88654 0.87188 0.0
H730 H 0.20785 0.88148 0.90676 0.0
H731 H 0.22457 0.86579 0.93779 0.0
H732 H 0.29542 0.87802 0.05978 0.0
H733 H 0.31436 0.8874 0.09261 0.0
H734 H 0.29062 0.95103 0.08961 0.0
H735 H 0.27187 0.942 0.05701 0.0
H736 H 0.33416 0.94861 0.09938 0.0
H737 H 0.28524 0.89712 0.15075 0.0
H738 H 0.29728 0.88489 0.12804 0.0
H739 H 0.27724 0.90417 0.12427 0.0
C740 C 0.29432 0.89404 0.06605 0.0
C741 C 0.28194 0.90918 0.05576 0.0
C742 C 0.30509 0.89934 0.08487 0.0
C743 C 0.30372 0.91986 0.09367 0.0
C744 C 0.29187 0.93509 0.08313 0.0
H745 H 0.31165 0.98315 0.21116 0.0
H746 H 0.30358 0.96317 0.17882 0.0
C747 C 0.28108 0.92983 0.06447 0.0
C748 C 0.31404 0.92569 0.11414 0.0
H749 H 0.30984 0.91941 0.16772 0.0
C750 C 0.32915 0.94197 0.11432 0.0
C751 C 0.30733 0.91711 0.1336 0.0
C752 C 0.2908 0.89994 0.13435 0.0
C753 C 0.33716 0.95046 0.13347 0.0
C754 C 0.32996 0.94233 0.15295 0.0
C755 C 0.31544 0.9255 0.15275 0.0
C756 C 0.33521 0.95289 0.17353 0.0
C757 C 0.35235 0.96886 0.13275 0.0
C758 C 0.35568 0.9534 0.18164 0.0
C759 C 0.36042 0.96487 0.20032 0.0
C760 C 0.34476 0.97611 0.21112 0.0
C761 C 0.32418 0.9749 0.20323 0.0
C762 C 0.31948 0.96338 0.18474 0.0
H763 H 0.35416 0.97515 0.11646 0.0
H764 H 0.34716 0.98193 0.14337 0.0
H765 H 0.36787 0.96363 0.13842 0.0
H766 H 0.36803 0.94519 0.17337 0.0
H767 H 0.37641 0.96541 0.20594 0.0
H768 H 0.33537 0.3782 0.02684 0.0
H769 H 0.36541 0.36199 0.04371 0.0
H770 H 0.32693 0.3091 0.06268 0.0
H771 H 0.29672 0.32503 0.04503 0.0
H772 H 0.37267 0.35372 0.08332 0.0
H773 H 0.3756 0.27785 0.03824 0.0
H774 H 0.35922 0.29951 0.0303 0.0
H775 H 0.35101 0.28196 0.05103 0.0
C776 C 0.33323 0.36306 0.03451 0.0
C777 C 0.31358 0.35291 0.03455 0.0
C778 C 0.3505 0.35377 0.04417 0.0
C779 C 0.34867 0.33411 0.05426 0.0
C780 C 0.32898 0.32398 0.05454 0.0
H781 H 0.4355 0.29275 0.15021 0.0
H782 H 0.40614 0.30538 0.12957 0.0
C783 C 0.31165 0.33321 0.04463 0.0
C784 C 0.36723 0.32498 0.06521 0.0
H785 H 0.39775 0.28085 0.06872 0.0
C786 C 0.37815 0.3378 0.08 0.0
C787 C 0.37475 0.30433 0.06071 0.0
C788 C 0.36468 0.29018 0.04405 0.0
C789 C 0.39601 0.33055 0.09058 0.0
C790 C 0.40296 0.30958 0.08685 0.0
C791 C 0.39235 0.29684 0.07176 0.0
C792 C 0.42071 0.30051 0.09908 0.0
C793 C 0.40746 0.34566 0.10544 0.0
C794 C 0.43853 0.29258 0.08885 0.0
C795 C 0.4555 0.285 0.10073 0.0
C796 C 0.45494 0.28525 0.12305 0.0
C797 C 0.43677 0.29263 0.13309 0.0
C798 C 0.41988 0.29997 0.12128 0.0
H799 H 0.40441 0.36246 0.10141 0.0
H800 H 0.40196 0.34312 0.12188 0.0
H801 H 0.42455 0.34305 0.10504 0.0
H802 H 0.43948 0.29266 0.07171 0.0
H803 H 0.46915 0.27933 0.09245 0.0
H804 H 0.99124 0.79577 0.18842 0.0
H805 H 0.97359 0.82701 0.20266 0.0
H806 H 0.95916 0.84696 0.13906 0.0
H807 H 0.97756 0.81616 0.12475 0.0
H808 H 0.97317 0.8793 0.16121 0.0
H809 H 0.91314 0.83908 0.20922 0.0
H810 H 0.93887 0.83109 0.21673 0.0
H811 H 0.92912 0.8249 0.19048 0.0
C812 C 0.98412 0.8067 0.17748 0.0
C813 C 0.98575 0.80348 0.15546 0.0
C814 C 0.97388 0.82451 0.18565 0.0
C815 C 0.96465 0.83922 0.17198 0.0
C816 C 0.96607 0.83585 0.14996 0.0
H817 H 0.88265 0.93843 0.22104 0.0
H818 H 0.8967 0.90755 0.20224 0.0
C819 C 0.97656 0.81821 0.14179 0.0
C820 C 0.95447 0.85867 0.18057 0.0
H821 H 0.91874 0.87608 0.21664 0.0
C822 C 0.96112 0.87856 0.17319 0.0
C823 C 0.93846 0.85781 0.19593 0.0
C824 C 0.92932 0.83706 0.20337 0.0
C825 C 0.95265 0.89753 0.1811 0.0
C826 C 0.93757 0.89671 0.1974 0.0
C827 C 0.9305 0.87681 0.20436 0.0
C828 C 0.92908 0.9162 0.20767 0.0
C829 C 0.95977 0.91822 0.17161 0.0
C830 C 0.94253 0.93146 0.21696 0.0
C831 C 0.93452 0.9493 0.22741 0.0
C832 C 0.91287 0.95203 0.2292 0.0
C833 C 0.89941 0.9368 0.21989 0.0
C834 C 0.90743 0.9191 0.20919 0.0
H835 H 0.96545 0.91587 0.15514 0.0
H836 H 0.94701 0.93 0.17137 0.0
H837 H 0.97291 0.92486 0.18119 0.0
H838 H 0.95926 0.92936 0.2166 0.0
H839 H 0.94531 0.96062 0.23463 0.0
H840 H 0.19027 0.6237 0.5415 0.0
H841 H 0.15875 0.63911 0.55612 0.0
H842 H 0.19113 0.69873 0.56599 0.0
H843 H 0.22289 0.68344 0.55069 0.0
H844 H 0.14992 0.65519 0.59403 0.0
H845 H 0.14003 0.71763 0.53366 0.0
H846 H 0.15853 0.69645 0.53066 0.0
H847 H 0.16462 0.71901 0.5474 0.0
C848 C 0.19082 0.6401 0.54682 0.0
C849 C 0.20916 0.65236 0.54481 0.0
C850 C 0.17269 0.6489 0.55519 0.0
C851 C 0.17234 0.67022 0.56182 0.0
C852 C 0.19081 0.6824 0.5605 0.0
H853 H 0.07747 0.72457 0.64233 0.0
H854 H 0.10844 0.70867 0.62706 0.0
C855 C 0.20904 0.67358 0.55197 0.0
C856 C 0.15259 0.6793 0.57026 0.0
H857 H 0.11677 0.71846 0.56285 0.0
C858 C 0.14269 0.66902 0.58717 0.0
C859 C 0.14284 0.69709 0.56107 0.0
C860 C 0.15191 0.70809 0.54206 0.0
C861 C 0.1236 0.67615 0.59531 0.0
C862 C 0.11427 0.69443 0.58669 0.0
C863 C 0.12395 0.70453 0.56955 0.0
C864 C 0.09496 0.70376 0.59583 0.0
C865 C 0.11345 0.66376 0.61285 0.0
C866 C 0.07702 0.70677 0.58328 0.0
C867 C 0.05913 0.71609 0.59201 0.0
C868 C 0.05894 0.72269 0.6134 0.0
C869 C 0.07693 0.71954 0.62585 0.0
C870 C 0.0947 0.71032 0.61715 0.0
H871 H 0.11877 0.64703 0.61293 0.0
H872 H 0.11779 0.67108 0.62837 0.0
H873 H 0.09619 0.6638 0.61133 0.0
H874 H 0.07688 0.70195 0.56674 0.0
H875 H 0.04562 0.71845 0.58195 0.0
H876 H 0.97924 0.69417 0.64393 0.0
H877 H 0.96226 0.66132 0.6558 0.0
H878 H 0.97511 0.67907 0.72088 0.0
H879 H 0.99134 0.71208 0.70923 0.0
H880 H 0.97294 0.62685 0.67986 0.0
H881 H 0.91234 0.67386 0.72076 0.0
H882 H 0.93093 0.68568 0.703 0.0
H883 H 0.93817 0.68023 0.73001 0.0
C884 C 0.97867 0.6909 0.66074 0.0
C885 C 0.98629 0.70587 0.67566 0.0
C886 C 0.96896 0.67214 0.66751 0.0
C887 C 0.96689 0.66802 0.68927 0.0
C888 C 0.97593 0.68221 0.70405 0.0
H889 H 0.92162 0.55058 0.74718 0.0
H890 H 0.94369 0.57889 0.73285 0.0
C891 C 0.9853 0.70104 0.69735 0.0
C892 C 0.95426 0.64965 0.69665 0.0
H893 H 0.9125 0.63697 0.72753 0.0
C894 C 0.95967 0.62902 0.69022 0.0
C895 C 0.9367 0.65251 0.70987 0.0
C896 C 0.92903 0.67427 0.71614 0.0
C897 C 0.94819 0.61118 0.69693 0.0
C898 C 0.93114 0.61404 0.71083 0.0
C899 C 0.92566 0.6347 0.71704 0.0
C900 C 0.91816 0.59607 0.71868 0.0
C901 C 0.95416 0.58954 0.68864 0.0
C902 C 0.89642 0.59645 0.71593 0.0
C903 C 0.88378 0.5806 0.72449 0.0
C904 C 0.89255 0.56381 0.73589 0.0
C905 C 0.91437 0.5632 0.73836 0.0
C906 C 0.92703 0.5793 0.73001 0.0
H907 H 0.96325 0.59063 0.67374 0.0
H908 H 0.96405 0.58162 0.70061 0.0
H909 H 0.94015 0.57944 0.68559 0.0
H910 H 0.88916 0.6092 0.70729 0.0
H911 H 0.86707 0.58152 0.72213 0.0
H912 H 0.18765 0.13127 0.48436 0.0
H913 H 0.15789 0.15029 0.46985 0.0
H914 H 0.18702 0.20994 0.48743 0.0
H915 H 0.21675 0.19091 0.5025 0.0
H916 H 0.1441 0.21003 0.49384 0.0
H917 H 0.16256 0.17989 0.41322 0.0
H918 H 0.15835 0.15915 0.43201 0.0
H919 H 0.18018 0.17707 0.43538 0.0
C920 C 0.18764 0.14843 0.48539 0.0
C921 C 0.20468 0.15959 0.49439 0.0
C922 C 0.17064 0.15929 0.47697 0.0
C923 C 0.17043 0.18156 0.47705 0.0
C924 C 0.1869 0.19275 0.48704 0.0
H925 H 0.09747 0.25404 0.38798 0.0
H926 H 0.12498 0.23886 0.40974 0.0
C927 C 0.20388 0.18186 0.49567 0.0
C928 C 0.1536 0.19307 0.46574 0.0
H929 H 0.13066 0.19812 0.41705 0.0
C930 C 0.14117 0.20749 0.47704 0.0
C931 C 0.15 0.19005 0.44372 0.0
C932 C 0.1636 0.17587 0.4303 0.0
C933 C 0.12503 0.21867 0.46699 0.0
C934 C 0.12098 0.21504 0.44512 0.0
C935 C 0.1336 0.20081 0.43383 0.0
C936 C 0.1041 0.22606 0.43331 0.0
C937 C 0.11281 0.23457 0.4798 0.0
C938 C 0.0831 0.22424 0.4394 0.0
C939 C 0.06725 0.23314 0.42703 0.0
C940 C 0.07206 0.24374 0.40812 0.0
C941 C 0.09314 0.2459 0.40235 0.0
C942 C 0.10893 0.23721 0.4148 0.0
H943 H 0.12152 0.23989 0.49422 0.0
H944 H 0.10897 0.2487 0.47023 0.0
H945 H 0.09799 0.22709 0.48499 0.0
H946 H 0.07888 0.21532 0.45333 0.0
H947 H 0.05119 0.23102 0.43186 0.0
H948 H 0.56948 0.47588 0.21315 0.0
H949 H 0.55814 0.44163 0.19889 0.0
H950 H 0.60661 0.41073 0.23432 0.0
H951 H 0.61845 0.44525 0.24857 0.0
H952 H 0.60268 0.39542 0.1929 0.0
H953 H 0.52558 0.39743 0.23189 0.0
H954 H 0.53054 0.42054 0.2163 0.0
H955 H 0.54657 0.41541 0.23917 0.0
C956 C 0.5778 0.46186 0.21802 0.0
C957 C 0.59478 0.46336 0.23223 0.0
C958 C 0.57119 0.44224 0.20988 0.0
C959 C 0.5812 0.42359 0.21592 0.0
C960 C 0.59854 0.42496 0.22961 0.0
H961 H 0.52595 0.29862 0.19237 0.0
H962 H 0.54015 0.33114 0.20854 0.0
C963 C 0.60529 0.44469 0.23773 0.0
C964 C 0.57344 0.40276 0.20775 0.0
H965 H 0.52959 0.37173 0.20411 0.0
C966 C 0.58676 0.39012 0.19548 0.0
C967 C 0.55276 0.39572 0.21141 0.0
C968 C 0.5381 0.40788 0.2256 0.0
C969 C 0.57974 0.37093 0.18621 0.0
C970 C 0.55871 0.36448 0.18893 0.0
C971 C 0.54561 0.37682 0.20175 0.0
C972 C 0.54999 0.34485 0.17888 0.0
C973 C 0.595 0.35766 0.17383 0.0
C974 C 0.55034 0.34192 0.15676 0.0
C975 C 0.54231 0.32327 0.14746 0.0
C976 C 0.53354 0.30734 0.16011 0.0
C977 C 0.53261 0.31059 0.18218 0.0
C978 C 0.54077 0.32916 0.19147 0.0
H979 H 0.61139 0.36145 0.17845 0.0
H980 H 0.59212 0.34046 0.17623 0.0
H981 H 0.59323 0.361 0.15668 0.0
H982 H 0.55683 0.35407 0.14667 0.0
H983 H 0.54313 0.32127 0.1304 0.0
H984 H 0.32604 0.87316 0.97388 0.0
H985 H 0.35736 0.85463 0.96247 0.0
H986 H 0.33365 0.79658 0.98911 0.0
H987 H 0.30201 0.81504 1.00048 0.0
H988 H 0.38733 0.83201 0.98577 0.0
H989 H 0.34568 0.78052 0.9267 0.0
H990 H 0.33385 0.80363 0.93856 0.0
H991 H 0.33611 0.77964 0.95342 0.0
C992 C 0.32748 0.85647 0.97743 0.0
C993 C 0.31145 0.84554 0.98798 0.0
C994 C 0.34543 0.84591 0.97091 0.0
C995 C 0.34773 0.82416 0.97467 0.0
C996 C 0.33205 0.81329 0.98574 0.0
H997 H 0.46716 0.7613 0.94726 0.0
H998 H 0.43528 0.77248 0.96543 0.0
C999 C 0.31404 0.82389 0.99233 0.0
C1000 C 0.3664 0.81301 0.96648 0.0
H1001 H 0.38204 0.77645 0.92955 0.0
C1002 C 0.3862 0.8197 0.97364 0.0
C1003 C 0.36486 0.79712 0.95049 0.0
C1004 C 0.34403 0.78984 0.94165 0.0
C1005 C 0.40451 0.81121 0.96498 0.0
C1006 C 0.40297 0.7954 0.94889 0.0
C1007 C 0.38317 0.78844 0.942 0.0
C1008 C 0.42169 0.78718 0.93783 0.0
C1009 C 0.42535 0.81985 0.97249 0.0
C1010 C 0.42432 0.79111 0.91615 0.0
C1011 C 0.44241 0.78468 0.90574 0.0
C1012 C 0.45825 0.77407 0.91677 0.0
C1013 C 0.45529 0.7695 0.93834 0.0
C1014 C 0.43715 0.77599 0.94877 0.0
H1015 H 0.42374 0.83477 0.98187 0.0
H1016 H 0.43299 0.80797 0.98269 0.0
H1017 H 0.43574 0.82296 0.95882 0.0
H1018 H 0.41257 0.79965 0.90738 0.0
H1019 H 0.44415 0.7884 0.88911 0.0
H1020 H 0.93512 0.4621 0.76853 0.0
H1021 H 0.95383 0.43179 0.78324 0.0
H1022 H 0.8967 0.40873 0.81084 0.0
H1023 H 0.87793 0.43875 0.79615 0.0
H1024 H 0.95727 0.42113 0.82678 0.0
H1025 H 0.91961 0.35632 0.77971 0.0
H1026 H 0.91831 0.38381 0.77213 0.0
H1027 H 0.90146 0.37377 0.79245 0.0
C1028 C 0.92651 0.45041 0.77749 0.0
C1029 C 0.90502 0.45278 0.7811 0.0
C1030 C 0.93723 0.43317 0.78595 0.0
C1031 C 0.92661 0.41791 0.79795 0.0
C1032 C 0.90513 0.42012 0.80133 0.0
H1033 H 0.96994 0.32728 0.88994 0.0
H1034 H 0.95655 0.35854 0.87173 0.0
C1035 C 0.89444 0.43734 0.79296 0.0
C1036 C 0.93801 0.4001 0.80774 0.0
H1037 H 0.93923 0.34604 0.81006 0.0
C1038 C 0.95348 0.4047 0.82301 0.0
C1039 C 0.93315 0.37869 0.80266 0.0
C1040 C 0.91737 0.37278 0.7857 0.0
C1041 C 0.9638 0.38843 0.83381 0.0
C1042 C 0.95832 0.36705 0.82934 0.0
C1043 C 0.94328 0.36246 0.81362 0.0
C1044 C 0.96787 0.34909 0.84078 0.0
C1045 C 0.98054 0.39426 0.8498 0.0
C1046 C 0.97862 0.33339 0.82945 0.0
C1047 C 0.98619 0.31553 0.83977 0.0
C1048 C 0.98304 0.31293 0.86165 0.0
C1049 C 0.9727 0.32889 0.8731 0.0
C1050 C 0.96512 0.3468 0.86273 0.0
H1051 H 0.98663 0.41062 0.8474 0.0
H1052 H 0.97391 0.3935 0.86599 0.0
H1053 H 0.99374 0.38302 0.8489 0.0
H1054 H 0.98086 0.3348 0.8125 0.0
H1055 H 0.99409 0.30352 0.83049 0.0
H1056 H 0.34181 0.12147 0.52657 0.0
H1057 H 0.36982 0.14248 0.54291 0.0
H1058 H 0.32805 0.19502 0.5512 0.0
H1059 H 0.29967 0.17408 0.53473 0.0
H1060 H 0.37097 0.20542 0.53589 0.0
H1061 H 0.36922 0.15587 0.60819 0.0
H1062 H 0.37107 0.14143 0.58352 0.0
H1063 H 0.34796 0.15623 0.58929 0.0
C1064 C 0.33848 0.13753 0.53171 0.0
C1065 C 0.31831 0.14596 0.52951 0.0
C1066 C 0.35457 0.14951 0.54108 0.0
C1067 C 0.35095 0.17018 0.5485 0.0
C1068 C 0.33114 0.17904 0.54562 0.0
H1069 H 0.42647 0.23765 0.64167 0.0
H1070 H 0.39827 0.2223 0.62028 0.0
C1071 C 0.31493 0.16703 0.53624 0.0
C1072 C 0.36762 0.18199 0.56021 0.0
H1073 H 0.39689 0.18075 0.60559 0.0
C1074 C 0.37663 0.20012 0.55116 0.0
C1075 C 0.37483 0.17511 0.5802 0.0
C1076 C 0.3652 0.1562 0.59103 0.0
C1077 C 0.39295 0.21135 0.56148 0.0
C1078 C 0.40049 0.20413 0.58124 0.0
C1079 C 0.39122 0.18619 0.59037 0.0
C1080 C 0.41757 0.21516 0.59317 0.0
C1081 C 0.40177 0.23101 0.55134 0.0
C1082 C 0.43788 0.21643 0.58498 0.0
C1083 C 0.4542 0.22525 0.59724 0.0
C1084 C 0.45051 0.23283 0.61798 0.0
C1085 C 0.43001 0.23191 0.62585 0.0
C1086 C 0.41379 0.22314 0.61362 0.0
H1087 H 0.39124 0.23715 0.53882 0.0
H1088 H 0.40458 0.24372 0.56339 0.0
H1089 H 0.41694 0.22716 0.5439 0.0
H1090 H 0.44125 0.21005 0.56937 0.0
H1091 H 0.46976 0.22564 0.59067 0.0
H1092 H 0.53046 0.69858 0.38555 0.0
H1093 H 0.54737 0.66495 0.37609 0.0
H1094 H 0.5417 0.67992 0.30979 0.0
H1095 H 0.52514 0.71337 0.31898 0.0
H1096 H 0.53567 0.62977 0.34954 0.0
H1097 H 0.60479 0.67235 0.31846 0.0
H1098 H 0.58547 0.6852 0.33475 0.0
H1099 H 0.58076 0.681 0.30684 0.0
C1100 C 0.53252 0.69452 0.36896 0.0
C1101 C 0.52673 0.7088 0.35304 0.0
C1102 C 0.54226 0.67537 0.36359 0.0
C1103 C 0.54628 0.67026 0.34226 0.0
C1104 C 0.53926 0.68384 0.32636 0.0
H1105 H 0.57788 0.55483 0.27731 0.0
H1106 H 0.56149 0.58584 0.2934 0.0
C1107 C 0.5297 0.70292 0.33167 0.0
C1108 C 0.55837 0.65116 0.33634 0.0
H1109 H 0.60149 0.63566 0.30889 0.0
C1110 C 0.55017 0.63101 0.34085 0.0
C1111 C 0.57751 0.65282 0.32538 0.0
C1112 C 0.58779 0.67401 0.32125 0.0
C1113 C 0.56013 0.61248 0.33379 0.0
C1114 C 0.57854 0.61421 0.32159 0.0
C1115 C 0.58723 0.63434 0.31797 0.0
C1116 C 0.58866 0.59542 0.31181 0.0
C1117 C 0.55081 0.59123 0.33945 0.0
C1118 C 0.60968 0.59095 0.31612 0.0
C1119 C 0.61921 0.57333 0.3067 0.0
C1120 C 0.60788 0.55994 0.29275 0.0
C1121 C 0.587 0.56475 0.2881 0.0
C1122 C 0.57753 0.58236 0.29745 0.0
H1123 H 0.54104 0.5924 0.3539 0.0
H1124 H 0.54068 0.5855 0.32621 0.0
H1125 H 0.56314 0.5793 0.34215 0.0
H1126 H 0.61864 0.60096 0.32697 0.0
H1127 H 0.63532 0.57003 0.31058 0.0
H1128 H 0.0773 0.78838 0.13239 0.0
H1129 H 0.10703 0.80248 0.11298 0.0
H1130 H 0.08803 0.76643 0.05747 0.0
H1131 H 0.05772 0.75265 0.07672 0.0
H1132 H 0.14017 0.78508 0.09372 0.0
H1133 H 0.09101 0.82574 0.03417 0.0
H1134 H 0.08026 0.81403 0.0577 0.0
H1135 H 0.08692 0.79757 0.03531 0.0
C1136 C 0.07947 0.7833 0.11609 0.0
C1137 C 0.065 0.76952 0.10605 0.0
C1138 C 0.09654 0.79138 0.10499 0.0
C1139 C 0.09961 0.78588 0.08361 0.0
C1140 C 0.08573 0.77134 0.07379 0.0
H1141 H 0.21555 0.82807 0.02063 0.0
H1142 H 0.18804 0.80545 0.03534 0.0
C1143 C 0.0685 0.76334 0.08487 0.0
C1144 C 0.11699 0.796 0.07168 0.0
H1145 H 0.12739 0.82876 0.03017 0.0
C1146 C 0.13741 0.79452 0.07973 0.0
C1147 C 0.11336 0.80855 0.05357 0.0
C1148 C 0.0917 0.81179 0.04474 0.0
C1149 C 0.15417 0.80552 0.07047 0.0
C1150 C 0.15055 0.81798 0.0523 0.0
C1151 C 0.13021 0.8191 0.04399 0.0
C1152 C 0.16721 0.83132 0.04263 0.0
C1153 C 0.17541 0.80444 0.08084 0.0
C1154 C 0.16446 0.85332 0.04116 0.0
C1155 C 0.17999 0.86623 0.03251 0.0
C1156 C 0.19876 0.85749 0.02512 0.0
C1157 C 0.2014 0.83538 0.02632 0.0
C1158 C 0.18572 0.82242 0.03486 0.0
H1159 H 0.17447 0.79855 0.09735 0.0
H1160 H 0.18532 0.79336 0.07164 0.0
H1161 H 0.18318 0.82026 0.08115 0.0
H1162 H 0.15034 0.86059 0.047 0.0
H1163 H 0.17733 0.88315 0.0319 0.0
H1164 H 0.72842 0.94674 0.54415 0.0
H1165 H 0.71585 0.95747 0.57884 0.0
H1166 H 0.7355 0.89794 0.60481 0.0
H1167 H 0.74819 0.88672 0.56972 0.0
H1168 H 0.69346 0.91204 0.61672 0.0
H1169 H 0.75423 0.97428 0.62953 0.0
H1170 H 0.74088 0.97576 0.60448 0.0
H1171 H 0.75686 0.95322 0.61009 0.0
C1172 C 0.73021 0.9358 0.55713 0.0
C1173 C 0.73951 0.91584 0.55406 0.0
C1174 C 0.723 0.94206 0.57702 0.0
C1175 C 0.72496 0.92863 0.59442 0.0
C1176 C 0.73394 0.90857 0.59154 0.0
H1177 H 0.71079 0.96832 0.72483 0.0
H1178 H 0.7222 0.95372 0.69108 0.0
C1179 C 0.74124 0.90222 0.57151 0.0
C1180 C 0.71765 0.93591 0.61551 0.0
H1181 H 0.72529 0.97489 0.65287 0.0
C1182 C 0.70048 0.92567 0.62475 0.0
C1183 C 0.7269 0.95366 0.62593 0.0
C1184 C 0.74586 0.96479 0.61713 0.0
C1185 C 0.69205 0.93302 0.644 0.0
C1186 C 0.70093 0.95118 0.65407 0.0
C1187 C 0.71834 0.96113 0.64499 0.0
C1188 C 0.69319 0.95958 0.67462 0.0
C1189 C 0.67392 0.92119 0.65357 0.0
C1190 C 0.67305 0.96794 0.67658 0.0
C1191 C 0.66636 0.97644 0.69603 0.0
C1192 C 0.67976 0.97674 0.7138 0.0
C1193 C 0.69994 0.96838 0.7116 0.0
C1194 C 0.70656 0.95998 0.69226 0.0
H1195 H 0.67181 0.90515 0.64633 0.0
H1196 H 0.67612 0.91951 0.67095 0.0
H1197 H 0.65941 0.93024 0.65089 0.0
H1198 H 0.6626 0.96812 0.66303 0.0
H1199 H 0.65075 0.98275 0.69712 0.0
H1200 H 0.83562 0.99364 0.30293 0.0
H1201 H 0.81739 0.97834 0.33334 0.0
H1202 H 0.8752 0.95217 0.35581 0.0
H1203 H 0.89351 0.96738 0.3256 0.0
H1204 H 0.81563 0.93396 0.34382 0.0
H1205 H 0.8511 0.9833 0.40831 0.0
H1206 H 0.85178 0.99094 0.38081 0.0
H1207 H 0.86954 0.9714 0.39054 0.0
C1208 C 0.84449 0.98487 0.3145 0.0
C1209 C 0.86602 0.98178 0.3119 0.0
C1210 C 0.83404 0.97607 0.3318 0.0
C1211 C 0.84498 0.96426 0.34689 0.0
C1212 C 0.86652 0.96147 0.3445 0.0
H1213 H 0.80214 0.87312 0.43964 0.0
H1214 H 0.81626 0.89054 0.40815 0.0
C1215 C 0.87694 0.97014 0.32719 0.0
C1216 C 0.83385 0.95416 0.36473 0.0
H1217 H 0.8317 0.95291 0.41878 0.0
C1218 C 0.81902 0.93817 0.36022 0.0
C1219 C 0.83821 0.9598 0.38608 0.0
C1220 C 0.85339 0.97742 0.39181 0.0
C1221 C 0.80875 0.92733 0.37655 0.0
C1222 C 0.81362 0.93252 0.39791 0.0
C1223 C 0.82811 0.94883 0.40239 0.0
C1224 C 0.80375 0.92142 0.41596 0.0
C1225 C 0.79266 0.91058 0.37084 0.0
C1226 C 0.79208 0.93298 0.43077 0.0
C1227 C 0.78408 0.92311 0.44873 0.0
C1228 C 0.78771 0.90147 0.45233 0.0
C1229 C 0.79899 0.88977 0.43724 0.0
C1230 C 0.80701 0.89969 0.41921 0.0
H1231 H 0.78711 0.91208 0.3542 0.0
H1232 H 0.79967 0.89466 0.37255 0.0
H1233 H 0.77903 0.91152 0.38159 0.0
H1234 H 0.78942 0.94976 0.42859 0.0
H1235 H 0.77545 0.93259 0.46004 0.0
H1236 H 0.77835 0.12293 0.07775 0.0
H1237 H 0.79304 0.11202 0.11197 0.0
H1238 H 0.80577 0.05006 0.08567 0.0
H1239 H 0.79095 0.0605 0.05191 0.0
H1240 H 0.78962 0.04816 0.12608 0.0
H1241 H 0.85587 0.10572 0.12205 0.0
H1242 H 0.83012 0.11668 0.12087 0.0
H1243 H 0.83911 0.10002 0.09957 0.0
C1244 C 0.78411 0.10693 0.07933 0.0
C1245 C 0.78364 0.09271 0.06193 0.0
C1246 C 0.79261 0.10076 0.09886 0.0
C1247 C 0.8008 0.08031 0.10128 0.0
C1248 C 0.79961 0.06593 0.08419 0.0
H1249 H 0.89679 0.02566 0.17479 0.0
H1250 H 0.87358 0.04207 0.14916 0.0
C1251 C 0.79117 0.07202 0.0648 0.0
C1252 C 0.81145 0.07375 0.12111 0.0
H1253 H 0.85597 0.08181 0.15026 0.0
C1254 C 0.80398 0.05568 0.13159 0.0
C1255 C 0.8303 0.08346 0.12811 0.0
C1256 C 0.83949 0.10245 0.11705 0.0
C1257 C 0.8152 0.0466 0.14835 0.0
C1258 C 0.83426 0.05608 0.15507 0.0
C1259 C 0.84133 0.0746 0.14511 0.0
C1260 C 0.84803 0.04606 0.17105 0.0
C1261 C 0.80712 0.02633 0.15796 0.0
C1262 C 0.84142 0.04284 0.19198 0.0
C1263 C 0.85466 0.03327 0.20674 0.0
C1264 C 0.87486 0.02692 0.20089 0.0
C1265 C 0.88139 0.03031 0.17992 0.0
C1266 C 0.86814 0.03976 0.16521 0.0
H1267 H 0.79464 0.01877 0.14809 0.0
H1268 H 0.81992 0.01479 0.16002 0.0
H1269 H 0.80054 0.0299 0.17383 0.0
H1270 H 0.8261 0.04789 0.19695 0.0
H1271 H 0.84915 0.03107 0.22277 0.0
H1272 H 0.69324 0.02087 0.8068 0.0
H1273 H 0.70814 0.03683 0.83907 0.0
H1274 H 0.64795 0.0619 0.85551 0.0
H1275 H 0.63284 0.04582 0.82323 0.0
H1276 H 0.70864 0.08051 0.84974 0.0
H1277 H 0.66756 0.03239 0.91018 0.0
H1278 H 0.66897 0.02437 0.88264 0.0
H1279 H 0.65101 0.04453 0.89078 0.0
C1280 C 0.6831 0.02959 0.81738 0.0
C1281 C 0.66185 0.03207 0.8125 0.0
C1282 C 0.69166 0.03874 0.83577 0.0
C1283 C 0.67913 0.05042 0.84973 0.0
C1284 C 0.65783 0.05269 0.84509 0.0
H1285 H 0.72198 0.13864 0.94876 0.0
H1286 H 0.70705 0.12269 0.91636 0.0
C1287 C 0.64923 0.04354 0.82663 0.0
C1288 C 0.68862 0.06083 0.8687 0.0
H1289 H 0.68818 0.06129 0.92284 0.0
C1290 C 0.70418 0.07633 0.86574 0.0
C1291 C 0.68288 0.05519 0.88951 0.0
C1292 C 0.66682 0.03809 0.89359 0.0
C1293 C 0.71408 0.08646 0.88307 0.0
C1294 C 0.70811 0.08106 0.90388 0.0
C1295 C 0.69263 0.06547 0.90684 0.0
C1296 C 0.71801 0.09105 0.92286 0.0
C1297 C 0.73115 0.10252 0.87901 0.0
C1298 C 0.72906 0.07854 0.93725 0.0
C1299 C 0.73757 0.08759 0.95573 0.0
C1300 C 0.73505 0.1093 0.96025 0.0
C1301 C 0.72427 0.12189 0.94565 0.0
C1302 C 0.71578 0.11282 0.92712 0.0
H1303 H 0.73709 0.10134 0.86252 0.0
H1304 H 0.72492 0.11873 0.88145 0.0
H1305 H 0.74439 0.10045 0.8902 0.0
H1306 H 0.73093 0.06171 0.93425 0.0
H1307 H 0.74576 0.07746 0.96668 0.0
H1308 H 0.59361 0.7324 0.8819 0.0
H1309 H 0.62029 0.71762 0.90483 0.0
H1310 H 0.58183 0.72954 0.95948 0.0
H1311 H 0.55458 0.7439 0.93644 0.0
H1312 H 0.64283 0.73472 0.93649 0.0
H1313 H 0.59537 0.66779 0.96731 0.0
H1314 H 0.58682 0.68375 0.94542 0.0
H1315 H 0.58463 0.69357 0.97221 0.0
C1316 C 0.59071 0.73192 0.89879 0.0
C1317 C 0.5718 0.73928 0.90725 0.0
C1318 C 0.60606 0.72345 0.91192 0.0
C1319 C 0.60302 0.72214 0.93389 0.0
C1320 C 0.58438 0.72989 0.94253 0.0
H1321 H 0.71257 0.6882 0.01201 0.0
H1322 H 0.68222 0.70748 0.99866 0.0
C1323 C 0.56885 0.73824 0.92934 0.0
C1324 C 0.61955 0.71266 0.94743 0.0
H1325 H 0.6297 0.67139 0.98052 0.0
C1326 C 0.63993 0.72096 0.94624 0.0
C1327 C 0.61582 0.69457 0.96003 0.0
C1328 C 0.59454 0.68424 0.96124 0.0
C1329 C 0.65673 0.7114 0.95676 0.0
C1330 C 0.653 0.69332 0.96938 0.0
C1331 C 0.63254 0.68534 0.97101 0.0
C1332 C 0.67034 0.68134 0.97937 0.0
C1333 C 0.67843 0.72016 0.95337 0.0
C1334 C 0.67325 0.65994 0.97384 0.0
C1335 C 0.69035 0.64883 0.98169 0.0
C1336 C 0.705 0.65887 0.99525 0.0
C1337 C 0.70165 0.68005 1.00148 0.0
C1338 C 0.6844 0.69114 0.99373 0.0
H1339 H 0.67916 0.73071 0.93939 0.0
H1340 H 0.68332 0.72961 0.96753 0.0
H1341 H 0.68979 0.70716 0.95106 0.0
H1342 H 0.66262 0.65197 0.96288 0.0
H1343 H 0.6924 0.63252 0.97658 0.0
H1344 H 0.07873 0.05442 0.77628 0.0
H1345 H 0.06251 0.08599 0.79145 0.0
H1346 H 0.11952 0.10133 0.82517 0.0
H1347 H 0.13604 0.06986 0.80969 0.0
H1348 H 0.05584 0.09657 0.83364 0.0
H1349 H 0.10659 0.15642 0.79477 0.0
H1350 H 0.10595 0.12889 0.78659 0.0
H1351 H 0.12021 0.13698 0.81 0.0
C1352 C 0.0879 0.06459 0.78679 0.0
C1353 C 0.10872 0.05973 0.79169 0.0
C1354 C 0.07856 0.08258 0.79553 0.0
C1355 C 0.08983 0.0961 0.80932 0.0
C1356 C 0.11063 0.0913 0.81429 0.0
H1357 H 0.03139 0.19912 0.8833 0.0
H1358 H 0.04797 0.16533 0.87393 0.0
C1359 C 0.12004 0.07331 0.80546 0.0
C1360 C 0.07964 0.11518 0.81839 0.0
H1361 H 0.08155 0.1693 0.81879 0.0
C1362 C 0.06149 0.1125 0.8305 0.0
C1363 C 0.08699 0.13591 0.81414 0.0
C1364 C 0.10589 0.13984 0.80052 0.0
C1365 C 0.0503 0.13001 0.83819 0.0
C1366 C 0.05764 0.15073 0.83389 0.0
C1367 C 0.076 0.15338 0.82213 0.0
C1368 C 0.04586 0.16998 0.84001 0.0
C1369 C 0.03034 0.12624 0.85017 0.0
C1370 C 0.03899 0.18364 0.82411 0.0
C1371 C 0.02971 0.20287 0.82939 0.0
C1372 C 0.02705 0.20895 0.85074 0.0
C1373 C 0.03307 0.19483 0.86672 0.0
C1374 C 0.04254 0.17553 0.86138 0.0
H1375 H 0.02465 0.10961 0.8484 0.0
H1376 H 0.0331 0.12952 0.86729 0.0
H1377 H 0.01793 0.13706 0.84463 0.0
H1378 H 0.04127 0.17963 0.80753 0.0
H1379 H 0.0251 0.21326 0.81666 0.0
H1380 H 0.94302 0.28838 0.38897 0.0
H1381 H 0.91141 0.29968 0.40716 0.0
H1382 H 0.93474 0.27405 0.46568 0.0
H1383 H 0.96664 0.26283 0.44759 0.0
H1384 H 0.88119 0.27689 0.42992 0.0
H1385 H 0.92269 0.33643 0.48098 0.0
H1386 H 0.9347 0.32421 0.45815 0.0
H1387 H 0.93214 0.30973 0.48237 0.0
C1388 C 0.94141 0.285 0.40568 0.0
C1389 C 0.95743 0.27482 0.41686 0.0
C1390 C 0.9233 0.29146 0.41606 0.0
C1391 C 0.92083 0.28801 0.43785 0.0
C1392 C 0.93647 0.27721 0.44894 0.0
H1393 H 0.80128 0.31542 0.50089 0.0
H1394 H 0.83301 0.29723 0.48936 0.0
C1395 C 0.95463 0.2707 0.43854 0.0
C1396 C 0.90209 0.2963 0.44885 0.0
H1397 H 0.88634 0.33332 0.48528 0.0
C1398 C 0.8823 0.28908 0.44217 0.0
C1399 C 0.90358 0.31237 0.46467 0.0
C1400 C 0.92438 0.32133 0.47192 0.0
C1401 C 0.86396 0.29772 0.45064 0.0
C1402 C 0.86545 0.31385 0.46641 0.0
C1403 C 0.88524 0.32083 0.47332 0.0
C1404 C 0.84671 0.32487 0.47466 0.0
C1405 C 0.84314 0.29013 0.44203 0.0
C1406 C 0.84416 0.34657 0.47083 0.0
C1407 C 0.82615 0.35699 0.47744 0.0
C1408 C 0.8103 0.34596 0.48817 0.0
C1409 C 0.81315 0.32435 0.4926 0.0
C1410 C 0.83122 0.3139 0.48591 0.0
H1411 H 0.84479 0.28074 0.42712 0.0
H1412 H 0.83547 0.2799 0.45393 0.0
H1413 H 0.83276 0.30376 0.43894 0.0
H1414 H 0.85593 0.35537 0.46224 0.0
H1415 H 0.82451 0.37364 0.47382 0.0
H1416 H 0.65242 0.93108 0.80313 0.0
H1417 H 0.63144 0.90233 0.81734 0.0
H1418 H 0.5756 0.93836 0.80654 0.0
H1419 H 0.59667 0.96716 0.79141 0.0
H1420 H 0.60829 0.90155 0.85115 0.0
H1421 H 0.55804 0.88221 0.78151 0.0
H1422 H 0.58044 0.89963 0.77982 0.0
H1423 H 0.55625 0.9093 0.79034 0.0
C1424 C 0.63566 0.93294 0.80362 0.0
C1425 C 0.62624 0.9515 0.79613 0.0
C1426 C 0.62364 0.91641 0.81179 0.0
C1427 C 0.60187 0.91798 0.8129 0.0
C1428 C 0.59232 0.9365 0.80543 0.0
H1429 H 0.53215 0.83182 0.89548 0.0
H1430 H 0.54944 0.86275 0.88015 0.0
C1431 C 0.60438 0.95302 0.7969 0.0
C1432 C 0.58961 0.90039 0.82264 0.0
H1433 H 0.55033 0.86432 0.81341 0.0
C1434 C 0.59561 0.89343 0.84286 0.0
C1435 C 0.5732 0.88957 0.81179 0.0
C1436 C 0.5667 0.89539 0.78959 0.0
C1437 C 0.58593 0.8759 0.8524 0.0
C1438 C 0.56919 0.86539 0.84179 0.0
C1439 C 0.56305 0.87244 0.82164 0.0
C1440 C 0.55826 0.8467 0.85104 0.0
C1441 C 0.59434 0.8684 0.8734 0.0
C1442 C 0.5568 0.82747 0.83958 0.0
C1443 C 0.54657 0.80985 0.84818 0.0
C1444 C 0.53768 0.81105 0.86848 0.0
C1445 C 0.53909 0.8303 0.87992 0.0
C1446 C 0.54907 0.84799 0.8712 0.0
H1447 H 0.61068 0.87387 0.87612 0.0
H1448 H 0.58471 0.87502 0.88641 0.0
H1449 H 0.59386 0.85083 0.87434 0.0
H1450 H 0.56369 0.82604 0.82399 0.0
H1451 H 0.54567 0.79527 0.83894 0.0
H1452 H 0.96982 0.20826 0.3802 0.0
H1453 H 0.95244 0.17444 0.37076 0.0
H1454 H 0.99583 0.16525 0.31963 0.0
H1455 H 0.01313 0.19869 0.3287 0.0
H1456 H 0.93506 0.16147 0.32744 0.0
H1457 H 0.99839 0.11002 0.35681 0.0
H1458 H 0.99505 0.13703 0.36603 0.0
H1459 H 0.00709 0.1318 0.34087 0.0
C1460 C 0.97567 0.19902 0.36696 0.0
C1461 C 0.99295 0.20625 0.35527 0.0
C1462 C 0.96569 0.17973 0.36158 0.0
C1463 C 0.97302 0.16726 0.34464 0.0
C1464 C 0.99009 0.17451 0.33291 0.0
H1465 H 0.95798 0.05854 0.2682 0.0
H1466 H 0.96755 0.08991 0.28896 0.0
C1467 C 0.99992 0.19374 0.33812 0.0
C1468 C 0.963 0.14667 0.33875 0.0
H1469 H 0.97412 0.09415 0.33232 0.0
C1470 C 0.94333 0.14663 0.32887 0.0
C1471 C 0.97386 0.12738 0.34068 0.0
C1472 C 0.9947 0.12642 0.35184 0.0
C1473 C 0.93486 0.12799 0.3196 0.0
C1474 C 0.94626 0.10889 0.32057 0.0
C1475 C 0.96541 0.10878 0.3315 0.0
C1476 C 0.9399 0.08947 0.30843 0.0
C1477 C 0.91441 0.12916 0.30773 0.0
C1478 C 0.92117 0.07854 0.31256 0.0
C1479 C 0.91553 0.06043 0.30057 0.0
C1480 C 0.92858 0.05288 0.2843 0.0
C1481 C 0.94745 0.06378 0.28052 0.0
C1482 C 0.95301 0.08178 0.29243 0.0
H1483 H 0.90939 0.14579 0.30537 0.0
H1484 H 0.9156 0.1212 0.29197 0.0
H1485 H 0.90213 0.12082 0.31684 0.0
H1486 H 0.91096 0.08396 0.32508 0.0
H1487 H 0.90094 0.05242 0.30401 0.0
H1488 H 0.58568 0.03478 0.72396 0.0
H1489 H 0.56807 0.06497 0.70758 0.0
H1490 H 0.62583 0.10056 0.70884 0.0
H1491 H 0.64343 0.0707 0.72514 0.0
H1492 H 0.59233 0.12166 0.7279 0.0
H1493 H 0.5712 0.09125 0.64746 0.0
H1494 H 0.56402 0.07438 0.6691 0.0
H1495 H 0.59109 0.07922 0.66365 0.0
C1496 C 0.5947 0.04889 0.72037 0.0
C1497 C 0.61596 0.05032 0.72592 0.0
C1498 C 0.58463 0.06612 0.71094 0.0
C1499 C 0.59567 0.08501 0.70687 0.0
C1500 C 0.61701 0.08615 0.71179 0.0
H1501 H 0.55324 0.1998 0.64262 0.0
H1502 H 0.57182 0.16739 0.65235 0.0
C1503 C 0.62705 0.06901 0.72111 0.0
C1504 C 0.5848 0.10426 0.69924 0.0
H1505 H 0.55722 0.12459 0.65769 0.0
C1506 C 0.58471 0.1223 0.71252 0.0
C1507 C 0.57506 0.10519 0.67908 0.0
C1508 C 0.57542 0.08657 0.66385 0.0
C1509 C 0.57489 0.14109 0.70638 0.0
C1510 C 0.56459 0.14186 0.68648 0.0
C1511 C 0.565 0.12396 0.67298 0.0
C1512 C 0.55286 0.16096 0.67985 0.0
C1513 C 0.5758 0.16005 0.72122 0.0
C1514 C 0.53582 0.16789 0.69181 0.0
C1515 C 0.52529 0.18637 0.68641 0.0
C1516 C 0.53139 0.19837 0.66874 0.0
C1517 C 0.54815 0.19107 0.65638 0.0
C1518 C 0.55876 0.17251 0.66188 0.0
H1519 H 0.58883 0.15886 0.73284 0.0
H1520 H 0.5777 0.17502 0.71231 0.0
H1521 H 0.56103 0.16091 0.73026 0.0
H1522 H 0.53069 0.15903 0.70548 0.0
H1523 H 0.51232 0.19123 0.6962 0.0
H1524 H 0.18475 0.38899 0.98824 0.0
H1525 H 0.15351 0.37009 0.97608 0.0
H1526 H 0.19128 0.31766 0.95512 0.0
H1527 H 0.22273 0.33635 0.96833 0.0
H1528 H 0.14467 0.36116 0.93716 0.0
H1529 H 0.14379 0.28555 0.98099 0.0
H1530 H 0.1607 0.30751 0.98841 0.0
H1531 H 0.16768 0.28991 0.96696 0.0
C1532 C 0.18638 0.37324 0.9814 0.0
C1533 C 0.20619 0.36417 0.97914 0.0
C1534 C 0.16848 0.36243 0.97444 0.0
C1535 C 0.16987 0.34235 0.96469 0.0
C1536 C 0.18963 0.3329 0.96298 0.0
H1537 H 0.0803 0.2986 0.87135 0.0
H1538 H 0.11044 0.31124 0.89149 0.0
C1539 C 0.20764 0.34362 0.97041 0.0
C1540 C 0.15084 0.33266 0.95458 0.0
H1541 H 0.12037 0.2878 0.95136 0.0
C1542 C 0.13934 0.34516 0.94047 0.0
C1543 C 0.14361 0.31186 0.95895 0.0
C1544 C 0.15446 0.29799 0.97482 0.0
C1545 C 0.12112 0.33748 0.93049 0.0
C1546 C 0.11442 0.31637 0.93407 0.0
C1547 C 0.12561 0.30391 0.94847 0.0
C1548 C 0.09634 0.30694 0.92223 0.0
C1549 C 0.10909 0.35223 0.91635 0.0
C1550 C 0.07852 0.29943 0.93279 0.0
C1551 C 0.06108 0.2919 0.92122 0.0
C1552 C 0.06119 0.29182 0.89888 0.0
C1553 C 0.07938 0.29876 0.8885 0.0
C1554 C 0.09672 0.30604 0.90001 0.0
H1555 H 0.11237 0.36914 0.92044 0.0
H1556 H 0.11384 0.34956 0.89964 0.0
H1557 H 0.09203 0.34933 0.9175 0.0
H1558 H 0.07793 0.29984 0.94996 0.0
H1559 H 0.04744 0.28654 0.92974 0.0
H1560 H 0.4364 0.73124 0.38989 0.0
H1561 H 0.40678 0.71544 0.40811 0.0
H1562 H 0.44237 0.71437 0.4663 0.0
H1563 H 0.47244 0.73013 0.44798 0.0
H1564 H 0.4207 0.67692 0.45869 0.0
H1565 H 0.36757 0.74475 0.4493 0.0
H1566 H 0.37833 0.73621 0.42446 0.0
H1567 H 0.39531 0.74692 0.44486 0.0
C1568 C 0.43802 0.72768 0.40658 0.0
C1569 C 0.45682 0.73207 0.41749 0.0
C1570 C 0.42094 0.71879 0.41703 0.0
C1571 C 0.4221 0.71418 0.43872 0.0
C1572 C 0.44101 0.71803 0.44961 0.0
H1573 H 0.30766 0.6723 0.5055 0.0
H1574 H 0.33882 0.69316 0.49596 0.0
C1575 C 0.4582 0.72697 0.43911 0.0
C1576 C 0.40371 0.70468 0.4496 0.0
H1577 H 0.35137 0.71121 0.45738 0.0
C1578 C 0.40562 0.68457 0.45867 0.0
C1579 C 0.38404 0.71476 0.44998 0.0
C1580 C 0.3812 0.73695 0.44183 0.0
C1581 C 0.38823 0.6738 0.46699 0.0
C1582 C 0.36827 0.68322 0.46591 0.0
C1583 C 0.36657 0.70383 0.45796 0.0
C1584 C 0.34893 0.67126 0.47149 0.0
C1585 C 0.39137 0.65226 0.47662 0.0
C1586 C 0.34386 0.65245 0.46047 0.0
C1587 C 0.32618 0.64062 0.4658 0.0
C1588 C 0.3129 0.64731 0.48225 0.0
C1589 C 0.31752 0.66663 0.49279 0.0
C1590 C 0.33536 0.67853 0.48741 0.0
H1591 H 0.40765 0.65034 0.48237 0.0
H1592 H 0.38057 0.64963 0.49006 0.0
H1593 H 0.38828 0.63981 0.46438 0.0
H1594 H 0.3537 0.64681 0.44772 0.0
H1595 H 0.32309 0.62601 0.45706 0.0
H1596 H 0.88477 0.53394 0.83019 0.0
H1597 H 0.86967 0.55125 0.86134 0.0
H1598 H 0.81055 0.55537 0.82874 0.0
H1599 H 0.82543 0.53749 0.7977 0.0
H1600 H 0.85206 0.5893 0.86816 0.0
H1601 H 0.79377 0.5256 0.88241 0.0
H1602 H 0.81474 0.52258 0.8637 0.0
H1603 H 0.79164 0.53687 0.85651 0.0
C1604 C 0.86857 0.5386 0.82961 0.0
C1605 C 0.85623 0.53415 0.81155 0.0
C1606 C 0.85996 0.54851 0.84744 0.0
C1607 C 0.83884 0.55422 0.8476 0.0
C1608 C 0.82672 0.55059 0.82924 0.0
H1609 H 0.78094 0.63793 0.94077 0.0
H1610 H 0.79784 0.62275 0.90951 0.0
C1611 C 0.83529 0.54052 0.81144 0.0
C1612 C 0.82957 0.56371 0.86708 0.0
H1613 H 0.79072 0.55695 0.90332 0.0
C1614 C 0.83867 0.5822 0.87587 0.0
C1615 C 0.81233 0.55425 0.87741 0.0
C1616 C 0.80267 0.53361 0.86968 0.0
C1617 C 0.83085 0.59164 0.89449 0.0
C1618 C 0.81311 0.58263 0.90434 0.0
C1619 C 0.80419 0.56399 0.8957 0.0
C1620 C 0.80352 0.59219 0.92363 0.0
C1621 C 0.84199 0.61089 0.90364 0.0
C1622 C 0.80062 0.57998 0.94191 0.0
C1623 C 0.79067 0.58854 0.95973 0.0
C1624 C 0.78342 0.60951 0.95963 0.0
C1625 C 0.78651 0.62178 0.94142 0.0
C1626 C 0.79631 0.61316 0.92356 0.0
H1627 H 0.85844 0.61179 0.89825 0.0
H1628 H 0.83402 0.62542 0.89823 0.0
H1629 H 0.84188 0.61081 0.92125 0.0
H1630 H 0.80596 0.56374 0.94235 0.0
H1631 H 0.78851 0.57867 0.9735 0.0
H1632 H 0.62804 0.57389 0.2046 0.0
H1633 H 0.64905 0.58521 0.17456 0.0
H1634 H 0.69365 0.53637 0.1879 0.0
H1635 H 0.67261 0.52475 0.21807 0.0
H1636 H 0.69197 0.59856 0.17155 0.0
H1637 H 0.6748 0.52449 0.12565 0.0
H1638 H 0.66004 0.5322 0.14874 0.0
H1639 H 0.68548 0.52095 0.15179 0.0
C1640 C 0.6424 0.5656 0.20132 0.0
C1641 C 0.6485 0.54823 0.21371 0.0
C1642 C 0.65442 0.57216 0.18412 0.0
C1643 C 0.67273 0.56144 0.17877 0.0
C1644 C 0.67938 0.54466 0.19156 0.0
H1645 H 0.75581 0.56823 0.07117 0.0
H1646 H 0.73773 0.55979 0.10388 0.0
C1647 C 0.6674 0.53813 0.2089 0.0
C1648 C 0.68433 0.5674 0.15933 0.0
H1649 H 0.69757 0.54925 0.10999 0.0
C1650 C 0.69324 0.58779 0.15808 0.0
C1651 C 0.68586 0.55338 0.14173 0.0
C1652 C 0.67592 0.53158 0.14184 0.0
C1653 C 0.70398 0.59439 0.13986 0.0
C1654 C 0.70542 0.58039 0.12219 0.0
C1655 C 0.69647 0.56001 0.12349 0.0
C1656 C 0.71656 0.58623 0.10238 0.0
C1657 C 0.71412 0.61609 0.13993 0.0
C1658 C 0.71062 0.60388 0.09039 0.0
C1659 C 0.72107 0.60889 0.07157 0.0
C1660 C 0.73751 0.59618 0.06421 0.0
C1661 C 0.74322 0.57841 0.07621 0.0
C1662 C 0.73289 0.57352 0.095 0.0
H1663 H 0.71652 0.62236 0.15632 0.0
H1664 H 0.72942 0.61575 0.13179 0.0
H1665 H 0.70387 0.62727 0.13141 0.0
H1666 H 0.69774 0.61366 0.09544 0.0
H1667 H 0.71614 0.6226 0.06272 0.0
H1668 H 0.73613 0.42804 0.46301 0.0
H1669 H 0.71929 0.44335 0.43198 0.0
H1670 H 0.70595 0.38053 0.40726 0.0
H1671 H 0.72356 0.36512 0.43796 0.0
H1672 H 0.72001 0.40495 0.37668 0.0
H1673 H 0.65866 0.44894 0.41937 0.0
H1674 H 0.68422 0.45652 0.42848 0.0
H1675 H 0.67492 0.42978 0.43232 0.0
C1676 C 0.72945 0.41747 0.45106 0.0
C1677 C 0.73107 0.39535 0.45301 0.0
C1678 C 0.7197 0.42626 0.43335 0.0
C1679 C 0.71093 0.41314 0.41739 0.0
C1680 C 0.71249 0.39102 0.41936 0.0
H1681 H 0.62589 0.46342 0.32267 0.0
H1682 H 0.64194 0.44375 0.35153 0.0
C1683 C 0.7225 0.38221 0.43696 0.0
C1684 C 0.70071 0.4225 0.39839 0.0
H1685 H 0.66392 0.45816 0.38317 0.0
C1686 C 0.70762 0.41646 0.3781 0.0
C1687 C 0.6843 0.43729 0.40013 0.0
C1688 C 0.67494 0.44334 0.42124 0.0
C1689 C 0.69889 0.42507 0.35959 0.0
C1690 C 0.68321 0.44066 0.36139 0.0
C1691 C 0.67608 0.4464 0.38168 0.0
C1692 C 0.67372 0.45112 0.34257 0.0
C1693 C 0.7063 0.41697 0.33835 0.0
C1694 C 0.68616 0.46168 0.32762 0.0
C1695 C 0.67696 0.47263 0.3108 0.0
C1696 C 0.65514 0.47368 0.30889 0.0
C1697 C 0.64275 0.46294 0.3237 0.0
C1698 C 0.65192 0.45172 0.34027 0.0
H1699 H 0.71291 0.4008 0.33957 0.0
H1700 H 0.69344 0.41651 0.32648 0.0
H1701 H 0.71882 0.42764 0.33249 0.0
H1702 H 0.70297 0.46201 0.32928 0.0
H1703 H 0.68692 0.48098 0.2998 0.0
H1704 H 0.80907 0.48551 0.7112 0.0
H1705 H 0.80046 0.46516 0.6792 0.0
H1706 H 0.86458 0.44611 0.67352 0.0
H1707 H 0.87348 0.4666 0.70576 0.0
H1708 H 0.84702 0.46279 0.63579 0.0
H1709 H 0.79586 0.40059 0.66935 0.0
H1710 H 0.78895 0.42687 0.67785 0.0
H1711 H 0.8138 0.41624 0.68544 0.0
C1712 C 0.82139 0.47685 0.70334 0.0
C1713 C 0.84201 0.47776 0.71112 0.0
C1714 C 0.81637 0.46507 0.68508 0.0
C1715 C 0.8318 0.45387 0.6741 0.0
C1716 C 0.85239 0.45451 0.68186 0.0
H1717 H 0.79142 0.37783 0.56203 0.0
H1718 H 0.81018 0.38781 0.59482 0.0
C1719 C 0.85743 0.46619 0.70031 0.0
C1720 C 0.82643 0.44282 0.65379 0.0
H1721 H 0.79218 0.40676 0.63191 0.0
C1722 C 0.83531 0.45027 0.63496 0.0
C1723 C 0.81134 0.42629 0.6527 0.0
C1724 C 0.80207 0.41686 0.67243 0.0
C1725 C 0.82855 0.44256 0.61503 0.0
C1726 C 0.81238 0.42713 0.61391 0.0
C1727 C 0.80444 0.41872 0.63276 0.0
C1728 C 0.80219 0.42103 0.59345 0.0
C1729 C 0.83845 0.45135 0.59532 0.0
C1730 C 0.79141 0.43634 0.58189 0.0
C1731 C 0.78061 0.43071 0.56333 0.0
C1732 C 0.7803 0.40957 0.55582 0.0
C1733 C 0.79139 0.39426 0.56727 0.0
C1734 C 0.80209 0.39991 0.58603 0.0
H1735 H 0.85429 0.4579 0.59868 0.0
H1736 H 0.83957 0.43898 0.5827 0.0
H1737 H 0.82871 0.46442 0.58921 0.0
H1738 H 0.79095 0.45264 0.58749 0.0
H1739 H 0.7723 0.44297 0.55498 0.0
H1740 H 0.42258 0.04908 0.2456 0.0
H1741 H 0.4447 0.0774 0.23133 0.0
H1742 H 0.39002 0.10953 0.20866 0.0
H1743 H 0.36785 0.08175 0.22329 0.0
H1744 H 0.45027 0.09336 0.19123 0.0
H1745 H 0.418 0.15514 0.24458 0.0
H1746 H 0.4129 0.12725 0.24825 0.0
H1747 H 0.39827 0.14187 0.22895 0.0
C1748 C 0.41526 0.06218 0.23758 0.0
C1749 C 0.3934 0.06327 0.23588 0.0
C1750 C 0.42794 0.07832 0.22938 0.0
C1751 C 0.41901 0.09581 0.21929 0.0
C1752 C 0.39725 0.0965 0.21687 0.0
H1753 H 0.47894 0.19363 0.14312 0.0
H1754 H 0.46239 0.1605 0.15473 0.0
C1755 C 0.38459 0.08053 0.22522 0.0
C1756 C 0.43228 0.11362 0.21173 0.0
H1757 H 0.4392 0.16721 0.21636 0.0
C1758 C 0.44797 0.10951 0.19679 0.0
C1759 C 0.42948 0.13464 0.21923 0.0
C1760 C 0.4139 0.14 0.23629 0.0
C1761 C 0.46064 0.12594 0.18887 0.0
C1762 C 0.45725 0.14707 0.19578 0.0
C1763 C 0.44175 0.15106 0.21092 0.0
C1764 C 0.46969 0.16545 0.18803 0.0
C1765 C 0.47776 0.12046 0.17351 0.0
C1766 C 0.47942 0.17921 0.20278 0.0
C1767 C 0.4885 0.19823 0.19623 0.0
C1768 C 0.48823 0.20389 0.17474 0.0
C1769 C 0.47955 0.18959 0.15976 0.0
C1770 C 0.47015 0.17061 0.16639 0.0
H1771 H 0.4822 0.10351 0.17461 0.0
H1772 H 0.47219 0.12325 0.15709 0.0
H1773 H 0.49185 0.13048 0.1764 0.0
H1774 H 0.47936 0.17559 0.21953 0.0
H1775 H 0.4952 0.20883 0.20815 0.0
H1776 H 0.05131 0.8166 0.62947 0.0
H1777 H 0.06623 0.84915 0.64505 0.0
H1778 H 0.03267 0.83771 0.70296 0.0
H1779 H 0.0182 0.80484 0.6877 0.0
H1780 H 0.04909 0.88464 0.65953 0.0
H1781 H 0.09099 0.84637 0.72558 0.0
H1782 H 0.07955 0.8314 0.70381 0.0
H1783 H 0.06364 0.84015 0.7256 0.0
C1784 C 0.04706 0.82106 0.6455 0.0
C1785 C 0.03371 0.8081 0.65743 0.0
C1786 C 0.05565 0.83964 0.65441 0.0
C1787 C 0.051 0.84561 0.67537 0.0
C1788 C 0.03702 0.83309 0.687 0.0
H1789 H 0.06166 0.96998 0.73118 0.0
H1790 H 0.0512 0.93643 0.71467 0.0
C1791 C 0.02859 0.81442 0.67818 0.0
C1792 C 0.0604 0.86518 0.68489 0.0
H1793 H 0.08748 0.88412 0.72809 0.0
C1794 C 0.05763 0.88448 0.67443 0.0
C1795 C 0.07197 0.86495 0.7041 0.0
C1796 C 0.07693 0.84457 0.71531 0.0
C1797 C 0.06542 0.90363 0.68303 0.0
C1798 C 0.07578 0.90358 0.70292 0.0
C1799 C 0.07927 0.88419 0.713 0.0
C1800 C 0.08235 0.92357 0.71385 0.0
C1801 C 0.06257 0.92372 0.67059 0.0
C1802 C 0.10324 0.92714 0.71986 0.0
C1803 C 0.10931 0.94634 0.72966 0.0
C1804 C 0.09454 0.96226 0.73357 0.0
C1805 C 0.07354 0.95826 0.72811 0.0
C1806 C 0.06751 0.93909 0.71853 0.0
H1807 H 0.06073 0.92027 0.65335 0.0
H1808 H 0.04822 0.93178 0.67603 0.0
H1809 H 0.07599 0.93479 0.6729 0.0
H1810 H 0.11492 0.91526 0.71661 0.0
H1811 H 0.12558 0.94888 0.73372 0.0
H1812 H 0.48235 0.79963 0.3334 0.0
H1813 H 0.46949 0.83164 0.31675 0.0
H1814 H 0.471 0.86421 0.37737 0.0
H1815 H 0.48278 0.83159 0.39436 0.0
H1816 H 0.4368 0.8727 0.35898 0.0
H1817 H 0.49761 0.88404 0.29874 0.0
H1818 H 0.48621 0.85815 0.29564 0.0
H1819 H 0.5003 0.86501 0.31967 0.0
C1820 C 0.48018 0.81369 0.34317 0.0
C1821 C 0.48364 0.81315 0.36518 0.0
C1822 C 0.473 0.8321 0.33357 0.0
C1823 C 0.46974 0.85064 0.34563 0.0
C1824 C 0.47351 0.8502 0.36764 0.0
H1825 H 0.43834 0.96905 0.28128 0.0
H1826 H 0.45688 0.94049 0.29919 0.0
C1827 C 0.48027 0.83158 0.37735 0.0
C1828 C 0.46092 0.86985 0.33549 0.0
H1829 H 0.46474 0.9012 0.2918 0.0
C1830 C 0.44313 0.87909 0.34445 0.0
C1831 C 0.46932 0.87862 0.31674 0.0
C1832 C 0.48955 0.87107 0.30732 0.0
C1833 C 0.43311 0.89624 0.33486 0.0
C1834 C 0.44047 0.9038 0.31516 0.0
C1835 C 0.45874 0.89514 0.30662 0.0
C1836 C 0.42944 0.92065 0.30323 0.0
C1837 C 0.41497 0.90622 0.34625 0.0
C1838 C 0.40799 0.91876 0.2988 0.0
C1839 C 0.39733 0.93524 0.28899 0.0
C1840 C 0.40803 0.95365 0.28271 0.0
C1841 C 0.42971 0.95501 0.28589 0.0
C1842 C 0.4403 0.93871 0.29619 0.0
H1843 H 0.4161 0.90388 0.36366 0.0
H1844 H 0.41411 0.92351 0.34322 0.0
H1845 H 0.40023 0.89856 0.34071 0.0
H1846 H 0.39937 0.90467 0.30324 0.0
H1847 H 0.38065 0.93367 0.2865 0.0
H1848 H 0.80387 0.6766 0.024 0.0
H1849 H 0.83269 0.69882 0.03776 0.0
H1850 H 0.86586 0.64263 0.05595 0.0
H1851 H 0.83777 0.62051 0.04164 0.0
H1852 H 0.8481 0.70409 0.0759 0.0
H1853 H 0.91142 0.67297 0.02618 0.0
H1854 H 0.88437 0.66685 0.0207 0.0
H1855 H 0.89887 0.65156 0.03966 0.0
C1856 C 0.81741 0.66901 0.03077 0.0
C1857 C 0.81856 0.64675 0.0315 0.0
C1858 C 0.83389 0.68173 0.03861 0.0
C1859 C 0.85177 0.67243 0.04741 0.0
C1860 C 0.85267 0.65024 0.04853 0.0
H1861 H 0.93317 0.71987 0.14451 0.0
H1862 H 0.90498 0.70606 0.1222 0.0
C1863 C 0.83643 0.63757 0.04048 0.0
C1864 C 0.86904 0.68571 0.0566 0.0
H1865 H 0.92218 0.68957 0.05943 0.0
C1866 C 0.86428 0.70114 0.07203 0.0
C1867 C 0.89021 0.6824 0.05123 0.0
C1868 C 0.89647 0.66772 0.03335 0.0
C1869 C 0.88006 0.71235 0.08308 0.0
C1870 C 0.90125 0.70749 0.07918 0.0
C1871 C 0.906 0.69303 0.06283 0.0
C1872 C 0.91858 0.71625 0.09262 0.0
C1873 C 0.87377 0.72929 0.09884 0.0
C1874 C 0.93626 0.72578 0.08347 0.0
C1875 C 0.95279 0.7333 0.09627 0.0
C1876 C 0.9519 0.73154 0.11847 0.0
C1877 C 0.93428 0.72181 0.12751 0.0
C1878 C 0.91798 0.71405 0.11474 0.0
H1879 H 0.85869 0.7365 0.09424 0.0
H1880 H 0.87164 0.72203 0.11464 0.0
H1881 H 0.88575 0.74208 0.10023 0.0
H1882 H 0.93723 0.72748 0.06643 0.0
H1883 H 0.96613 0.7407 0.08879 0.0
H1884 H 0.55672 0.25157 0.57632 0.0
H1885 H 0.5873 0.2648 0.55714 0.0
H1886 H 0.6074 0.29952 0.6131 0.0
H1887 H 0.5774 0.28597 0.6324 0.0
H1888 H 0.59686 0.30462 0.54764 0.0
H1889 H 0.66136 0.27325 0.59596 0.0
H1890 H 0.63481 0.26394 0.5987 0.0
H1891 H 0.64351 0.28785 0.61215 0.0
C1892 C 0.56789 0.26169 0.58463 0.0
C1893 C 0.56465 0.26761 0.60593 0.0
C1894 C 0.58534 0.2693 0.57364 0.0
C1895 C 0.59992 0.28291 0.58373 0.0
C1896 C 0.59679 0.28858 0.60507 0.0
H1897 H 0.6753 0.38168 0.53122 0.0
H1898 H 0.64833 0.35865 0.54562 0.0
C1899 C 0.57947 0.28091 0.61608 0.0
C1900 C 0.61748 0.29259 0.57167 0.0
H1901 H 0.6698 0.30338 0.57419 0.0
C1902 C 0.61285 0.30406 0.55329 0.0
C1903 C 0.63847 0.29164 0.57873 0.0
C1904 C 0.64486 0.2783 0.59733 0.0
C1905 C 0.62838 0.31541 0.54245 0.0
C1906 C 0.64907 0.31578 0.55047 0.0
C1907 C 0.65391 0.30343 0.5682 0.0
C1908 C 0.66563 0.32962 0.54132 0.0
C1909 C 0.62239 0.32691 0.5225 0.0
C1910 C 0.68475 0.32116 0.53468 0.0
C1911 C 0.70046 0.33442 0.52662 0.0
C1912 C 0.69738 0.35644 0.5251 0.0
C1913 C 0.67823 0.36481 0.5319 0.0
C1914 C 0.66266 0.3516 0.54004 0.0
H1915 H 0.60857 0.31937 0.51469 0.0
H1916 H 0.61825 0.3435 0.52663 0.0
H1917 H 0.63542 0.32724 0.51098 0.0
H1918 H 0.68751 0.30428 0.53567 0.0
H1919 H 0.71499 0.32739 0.52161 0.0
H1920 H 0.23803 0.44924 0.04942 0.0
H1921 H 0.22552 0.45929 0.08438 0.0
H1922 H 0.23373 0.39522 0.10581 0.0
H1923 H 0.24622 0.38475 0.07043 0.0
H1924 H 0.19389 0.41402 0.116 0.0
H1925 H 0.2605 0.46633 0.13906 0.0
H1926 H 0.24965 0.47204 0.11346 0.0
H1927 H 0.26205 0.44699 0.11778 0.0
C1928 C 0.23737 0.4372 0.06151 0.0
C1929 C 0.2432 0.41613 0.05704 0.0
C1930 C 0.23026 0.44305 0.08157 0.0
C1931 C 0.22889 0.42807 0.09773 0.0
C1932 C 0.23477 0.40703 0.09351 0.0
H1933 H 0.20784 0.46146 0.2291 0.0
H1934 H 0.22035 0.44679 0.19579 0.0
C1935 C 0.242 0.40111 0.07335 0.0
C1936 C 0.22081 0.43457 0.11878 0.0
H1937 H 0.2297 0.46943 0.15975 0.0
C1938 C 0.20178 0.42599 0.1257 0.0
C1939 C 0.23118 0.45013 0.13139 0.0
C1940 C 0.25207 0.45929 0.12518 0.0
C1941 C 0.1926 0.43295 0.14473 0.0
C1942 C 0.20264 0.44906 0.15694 0.0
C1943 C 0.2219 0.45726 0.15022 0.0
C1944 C 0.19398 0.45714 0.17722 0.0
C1945 C 0.17238 0.42289 0.15172 0.0
C1946 C 0.17489 0.4679 0.1779 0.0
C1947 C 0.16757 0.47644 0.19708 0.0
C1948 C 0.17931 0.47442 0.21588 0.0
C1949 C 0.19833 0.46345 0.21503 0.0
C1950 C 0.20556 0.45498 0.19595 0.0
H1951 H 0.16919 0.40764 0.14323 0.0
H1952 H 0.17261 0.41996 0.16905 0.0
H1953 H 0.15935 0.43381 0.1483 0.0
H1954 H 0.16586 0.47007 0.16353 0.0
H1955 H 0.15291 0.48482 0.19712 0.0
H1956 H 0.33383 0.49283 0.80277 0.0
H1957 H 0.31503 0.47768 0.83288 0.0
H1958 H 0.37245 0.45177 0.85669 0.0
H1959 H 0.39132 0.46686 0.82678 0.0
H1960 H 0.31299 0.43351 0.84359 0.0
H1961 H 0.34737 0.48303 0.90853 0.0
H1962 H 0.34866 0.49051 0.881 0.0
H1963 H 0.36616 0.47099 0.89125 0.0
C1964 C 0.34249 0.48416 0.81457 0.0
C1965 C 0.36408 0.48111 0.81243 0.0
C1966 C 0.33171 0.47543 0.8317 0.0
C1967 C 0.34238 0.46375 0.84708 0.0
C1968 C 0.36397 0.46099 0.84516 0.0
H1969 H 0.29876 0.37266 0.93918 0.0
H1970 H 0.31258 0.39015 0.90762 0.0
C1971 C 0.37472 0.46959 0.82802 0.0
C1972 C 0.3309 0.45372 0.86476 0.0
H1973 H 0.32787 0.4526 0.91876 0.0
C1974 C 0.31611 0.43776 0.86004 0.0
C1975 C 0.3349 0.45943 0.88616 0.0
C1976 C 0.35 0.47705 0.89212 0.0
C1977 C 0.30555 0.42697 0.87622 0.0
C1978 C 0.31009 0.43218 0.89765 0.0
C1979 C 0.32453 0.4485 0.90232 0.0
C1980 C 0.3001 0.421 0.91557 0.0
C1981 C 0.28954 0.41022 0.87027 0.0
C1982 C 0.28848 0.4325 0.93048 0.0
C1983 C 0.28066 0.4226 0.9485 0.0
C1984 C 0.28442 0.40098 0.95207 0.0
C1985 C 0.29551 0.3893 0.93681 0.0
C1986 C 0.30335 0.39926 0.91874 0.0
H1987 H 0.28409 0.41187 0.85361 0.0
H1988 H 0.2966 0.39431 0.87185 0.0
H1989 H 0.27584 0.41101 0.88094 0.0
H1990 H 0.28581 0.4493 0.92837 0.0
H1991 H 0.27216 0.43205 0.95995 0.0
H1992 H 0.27665 0.61961 0.57822 0.0
H1993 H 0.29127 0.60825 0.6123 0.0
H1994 H 0.30651 0.54758 0.58448 0.0
H1995 H 0.29175 0.55846 0.55081 0.0
H1996 H 0.28996 0.54399 0.62465 0.0
H1997 H 0.35421 0.604 0.62293 0.0
H1998 H 0.32812 0.6141 0.62168 0.0
H1999 H 0.3379 0.59829 0.60012 0.0
C2000 C 0.28294 0.60379 0.57943 0.0
C2001 C 0.28319 0.59007 0.56164 0.0
C2002 C 0.2914 0.59737 0.59888 0.0
C2003 C 0.30029 0.57718 0.60083 0.0
C2004 C 0.2998 0.56325 0.58335 0.0
H2005 H 0.39682 0.52452 0.67557 0.0
H2006 H 0.37366 0.54037 0.64952 0.0
C2007 C 0.2914 0.56958 0.56402 0.0
C2008 C 0.31093 0.57049 0.62062 0.0
H2009 H 0.35463 0.57962 0.65075 0.0
C2010 C 0.30395 0.55193 0.63057 0.0
C2011 C 0.32931 0.58075 0.62814 0.0
C2012 C 0.338 0.6003 0.61764 0.0
C2013 C 0.3152 0.54295 0.64737 0.0
C2014 C 0.33377 0.55302 0.65465 0.0
C2015 C 0.34036 0.57197 0.64517 0.0
C2016 C 0.3475 0.54331 0.67084 0.0
C2017 C 0.30768 0.52222 0.65646 0.0
C2018 C 0.34053 0.5397 0.69157 0.0
C2019 C 0.35375 0.53048 0.70656 0.0
C2020 C 0.37427 0.52485 0.70115 0.0
C2021 C 0.38116 0.5286 0.68037 0.0
C2022 C 0.36794 0.53774 0.66542 0.0
H2023 H 0.29568 0.51437 0.64621 0.0
H2024 H 0.32087 0.51114 0.6586 0.0
H2025 H 0.30067 0.52525 0.67224 0.0
H2026 H 0.32494 0.5442 0.69621 0.0
H2027 H 0.34794 0.52797 0.72244 0.0
H2028 H 0.1324 0.5486 0.32181 0.0
H2029 H 0.14746 0.56547 0.35376 0.0
H2030 H 0.20755 0.53953 0.33835 0.0
H2031 H 0.19272 0.52275 0.30647 0.0
H2032 H 0.1692 0.54666 0.38858 0.0
H2033 H 0.21869 0.60416 0.34513 0.0
H2034 H 0.1972 0.5899 0.33274 0.0
H2035 H 0.22172 0.57699 0.33687 0.0
C2036 C 0.14879 0.54642 0.3253 0.0
C2037 C 0.16141 0.53446 0.31158 0.0
C2038 C 0.15737 0.55607 0.34352 0.0
C2039 C 0.17869 0.55404 0.34817 0.0
C2040 C 0.19116 0.54163 0.3348 0.0
H2041 H 0.24608 0.5775 0.4652 0.0
H2042 H 0.23036 0.56266 0.43278 0.0
C2043 C 0.18261 0.53195 0.31667 0.0
C2044 C 0.18798 0.56479 0.36703 0.0
H2045 H 0.22492 0.60141 0.38223 0.0
C2046 C 0.1813 0.55871 0.38722 0.0
C2047 C 0.20358 0.58068 0.36516 0.0
C2048 C 0.21063 0.58851 0.34382 0.0
C2049 C 0.19025 0.5677 0.40566 0.0
C2050 C 0.20643 0.58298 0.40378 0.0
C2051 C 0.21268 0.58951 0.38359 0.0
C2052 C 0.21706 0.59231 0.42267 0.0
C2053 C 0.18223 0.56088 0.42699 0.0
C2054 C 0.21547 0.61406 0.42726 0.0
C2055 C 0.22452 0.62263 0.44575 0.0
C2056 C 0.23541 0.60957 0.45985 0.0
C2057 C 0.23769 0.58796 0.45472 0.0
C2058 C 0.22861 0.57941 0.43628 0.0
H2059 H 0.16662 0.55314 0.42569 0.0
H2060 H 0.19317 0.54929 0.43393 0.0
H2061 H 0.18119 0.57464 0.43809 0.0
H2062 H 0.20675 0.6243 0.41684 0.0
H2063 H 0.22254 0.63935 0.44926 0.0
loop_
_geom_bond_atom_site_label_1
_geom_bond_atom_site_label_2
_geom_bond_distance
_geom_bond_site_symmetry_2
_ccdc_geom_bond_type
Co0 O1 2.216 1_455 S
Co0 O2 2.091 1_455 S
Co0 O4 2.004 . S
Co0 O10 2.021 1_455 S
Co0 O12 2.137 . S
Co0 O13 2.244 . S
O1 Co0 2.216 1_655 S
O1 C8 1.247 . S
O2 Co0 2.091 1_655 S
O2 C8 1.261 . S
C3 O12 1.247 . S
C3 O13 1.272 . S
O4 Co0 2.004 . S
O4 C9 1.259 . S
Co5 O6 2.061 . S
Co5 O11 2.052 . S
Co5 O13 2.135 . S
O6 Co5 2.061 . S
O6 C9 1.235 . S
C7 O10 1.238 . S
C7 O11 1.241 1_655 S
C8 O1 1.247 . S
C8 O2 1.261 . S
C9 O4 1.259 . S
C9 O6 1.235 . S
O10 Co0 2.021 1_655 S
O10 C7 1.238 . S
O11 Co5 2.052 . S
O11 C7 1.241 1_455 S
O12 Co0 2.137 . S
O12 C3 1.247 . S
O13 Co0 2.244 . S
O13 C3 1.272 . S
O13 Co5 2.135 . S
Co14 O15 2.216 . S
Co14 O16 2.091 . S
Co14 O18 2.004 1_455 S
Co14 O24 2.021 1_455 S
Co14 O26 2.137 . S
Co14 O27 2.244 . S
O15 Co14 2.216 . S
O15 C22 1.247 . S
O16 Co14 2.091 . S
O16 C22 1.261 . S
C17 O26 1.247 . S
C17 O27 1.272 . S
O18 Co14 2.004 1_655 S
O18 C23 1.259 . S
Co19 O20 2.061 . S
Co19 O25 2.052 . S
Co19 O27 2.135 1_655 S
O20 Co19 2.061 . S
O20 C23 1.235 . S
C21 O24 1.238 . S
C21 O25 1.241 . S
C22 O15 1.247 . S
C22 O16 1.261 . S
C23 O18 1.259 . S
C23 O20 1.235 . S
O24 Co14 2.021 1_655 S
O24 C21 1.238 . S
O25 Co19 2.052 . S
O25 C21 1.241 . S
O26 Co14 2.137 . S
O26 C17 1.247 . S
O27 Co14 2.244 . S
O27 C17 1.272 . S
O27 Co19 2.135 1_455 S
Co28 O29 2.216 . S
Co28 O30 2.091 . S
Co28 O32 2.004 . S
Co28 O38 2.021 . S
Co28 O40 2.137 . S
Co28 O41 2.244 . S
O29 Co28 2.216 . S
O29 C36 1.247 . S
O30 Co28 2.091 . S
O30 C36 1.261 . S
C31 O40 1.247 . S
C31 O41 1.272 . S
O32 Co28 2.004 . S
O32 C37 1.259 . S
Co33 O34 2.061 . S
Co33 O39 2.052 . S
Co33 O41 2.135 . S
O34 Co33 2.061 . S
O34 C37 1.235 . S
C35 O38 1.238 . S
C35 O39 1.241 . S
C36 O29 1.247 . S
C36 O30 1.261 . S
C37 O32 1.259 . S
C37 O34 1.235 . S
O38 Co28 2.021 . S
O38 C35 1.238 . S
O39 Co33 2.052 . S
O39 C35 1.241 . S
O40 Co28 2.137 . S
O40 C31 1.247 . S
O41 Co28 2.244 . S
O41 C31 1.272 . S
O41 Co33 2.135 . S
Co42 O43 2.216 . S
Co42 O44 2.091 . S
Co42 O46 2.004 . S
Co42 O52 2.021 . S
Co42 O54 2.137 . S
Co42 O55 2.244 . S
O43 Co42 2.216 . S
O43 C50 1.247 . S
O44 Co42 2.091 . S
O44 C50 1.261 . S
C45 O54 1.247 . S
C45 O55 1.272 . S
O46 Co42 2.004 . S
O46 C51 1.259 . S
Co47 O48 2.061 . S
Co47 O53 2.052 . S
Co47 O55 2.135 . S
O48 Co47 2.061 . S
O48 C51 1.235 . S
C49 O52 1.238 . S
C49 O53 1.241 . S
C50 O43 1.247 . S
C50 O44 1.261 . S
C51 O46 1.259 . S
C51 O48 1.235 . S
O52 Co42 2.021 . S
O52 C49 1.238 . S
O53 Co47 2.052 . S
O53 C49 1.241 . S
O54 Co42 2.137 . S
O54 C45 1.247 . S
O55 Co42 2.244 . S
O55 C45 1.272 . S
O55 Co47 2.135 . S
Co56 O57 2.216 . S
Co56 O58 2.091 . S
Co56 O60 2.004 1_455 S
Co56 O66 2.021 . S
Co56 O68 2.137 1_455 S
Co56 O69 2.244 1_455 S
O57 Co56 2.216 . S
O57 C64 1.247 . S
O58 Co56 2.091 . S
O58 C64 1.261 . S
C59 O68 1.247 . S
C59 O69 1.272 . S
O60 Co56 2.004 1_655 S
O60 C65 1.259 . S
Co61 O62 2.061 . S
Co61 O67 2.052 1_655 S
Co61 O69 2.135 . S
O62 Co61 2.061 . S
O62 C65 1.235 . S
C63 O66 1.238 . S
C63 O67 1.241 . S
C64 O57 1.247 . S
C64 O58 1.261 . S
C65 O60 1.259 . S
C65 O62 1.235 . S
O66 Co56 2.021 . S
O66 C63 1.238 . S
O67 Co61 2.052 1_455 S
O67 C63 1.241 . S
O68 Co56 2.137 1_655 S
O68 C59 1.247 . S
O69 Co56 2.244 1_655 S
O69 C59 1.272 . S
O69 Co61 2.135 . S
Co70 O71 2.216 . S
Co70 O72 2.091 . S
Co70 O74 2.004 . S
Co70 O80 2.021 . S
Co70 O82 2.137 . S
Co70 O83 2.244 . S
O71 Co70 2.216 . S
O71 C78 1.247 . S
O72 Co70 2.091 . S
O72 C78 1.261 . S
C73 O82 1.247 . S
C73 O83 1.272 . S
O74 Co70 2.004 . S
O74 C79 1.259 . S
Co75 O76 2.061 . S
Co75 O81 2.052 . S
Co75 O83 2.135 . S
O76 Co75 2.061 . S
O76 C79 1.235 . S
C77 O80 1.238 . S
C77 O81 1.241 . S
C78 O71 1.247 . S
C78 O72 1.261 . S
C79 O74 1.259 . S
C79 O76 1.235 . S
O80 Co70 2.021 . S
O80 C77 1.238 . S
O81 Co75 2.052 . S
O81 C77 1.241 . S
O82 Co70 2.137 . S
O82 C73 1.247 . S
O83 Co70 2.244 . S
O83 C73 1.272 . S
O83 Co75 2.135 . S
Co84 O85 2.216 . S
Co84 O86 2.091 . S
Co84 O88 2.004 . S
Co84 O94 2.021 . S
Co84 O96 2.137 . S
Co84 O97 2.244 . S
O85 Co84 2.216 . S
O85 C92 1.247 . S
O86 Co84 2.091 . S
O86 C92 1.261 . S
C87 O96 1.247 . S
C87 O97 1.272 . S
O88 Co84 2.004 . S
O88 C93 1.259 . S
Co89 O90 2.061 . S
Co89 O95 2.052 . S
Co89 O97 2.135 . S
O90 Co89 2.061 . S
O90 C93 1.235 . S
C91 O94 1.238 . S
C91 O95 1.241 . S
C92 O85 1.247 . S
C92 O86 1.261 . S
C93 O88 1.259 . S
C93 O90 1.235 . S
O94 Co84 2.021 . S
O94 C91 1.238 . S
O95 Co89 2.052 . S
O95 C91 1.241 . S
O96 Co84 2.137 . S
O96 C87 1.247 . S
O97 Co84 2.244 . S
O97 C87 1.272 . S
O97 Co89 2.135 . S
Co98 O99 2.256 . S
Co98 O100 2.116 . S
Co98 O102 1.970 1_655 S
Co98 O108 1.998 1_655 S
Co98 O110 2.161 . S
Co98 O111 2.241 1_655 S
O99 Co98 2.256 . S
O99 C106 1.247 . S
O100 Co98 2.116 . S
O100 C106 1.261 . S
C101 O110 1.247 . S
C101 O111 1.272 1_655 S
O102 Co98 1.970 1_455 S
O102 C107 1.259 . S
Co103 O104 2.061 . S
Co103 O109 2.052 . S
Co103 O111 2.135 . S
O104 Co103 2.061 . S
O104 C107 1.235 . S
C105 O108 1.238 . S
C105 O109 1.241 . S
C106 O99 1.247 . S
C106 O100 1.261 . S
C107 O102 1.259 . S
C107 O104 1.235 . S
O108 Co98 1.998 1_455 S
O108 C105 1.238 . S
O109 Co103 2.052 . S
O109 C105 1.241 . S
O110 Co98 2.161 . S
O110 C101 1.247 . S
O111 Co98 2.241 1_455 S
O111 C101 1.272 1_455 S
O111 Co103 2.135 . S
Co112 O113 2.249 . S
Co112 O114 2.114 . S
Co112 O116 1.976 1_565 S
Co112 O122 2.034 . S
Co112 O124 2.124 1_565 S
Co112 O125 2.228 1_565 S
O113 Co112 2.249 . S
O113 C120 1.247 . S
O114 Co112 2.114 . S
O114 C120 1.261 . S
C115 O124 1.247 . S
C115 O125 1.272 . S
O116 Co112 1.976 1_545 S
O116 C121 1.259 . S
Co117 O118 2.061 . S
Co117 O123 2.052 . S
Co117 O125 2.135 . S
O118 Co117 2.061 . S
O118 C121 1.235 . S
C119 O122 1.238 . S
C119 O123 1.241 1_565 S
C120 O113 1.247 . S
C120 O114 1.261 . S
C121 O116 1.259 . S
C121 O118 1.235 . S
O122 Co112 2.034 . S
O122 C119 1.238 . S
O123 Co117 2.052 . S
O123 C119 1.241 1_545 S
O124 Co112 2.124 1_545 S
O124 C115 1.247 . S
O125 Co112 2.228 1_545 S
O125 C115 1.272 . S
O125 Co117 2.135 . S
Co126 O127 2.216 . S
Co126 O128 2.091 . S
Co126 O130 2.004 . S
Co126 O136 2.021 . S
Co126 O138 2.137 . S
Co126 O139 2.244 . S
O127 Co126 2.216 . S
O127 C134 1.247 . S
O128 Co126 2.091 . S
O128 C134 1.261 . S
C129 O138 1.247 . S
C129 O139 1.272 . S
O130 Co126 2.004 . S
O130 C135 1.259 . S
Co131 O132 2.061 . S
Co131 O137 2.052 . S
Co131 O139 2.135 . S
O132 Co131 2.061 . S
O132 C135 1.235 . S
C133 O136 1.238 . S
C133 O137 1.241 . S
C134 O127 1.247 . S
C134 O128 1.261 . S
C135 O130 1.259 . S
C135 O132 1.235 . S
O136 Co126 2.021 . S
O136 C133 1.238 . S
O137 Co131 2.052 . S
O137 C133 1.241 . S
O138 Co126 2.137 . S
O138 C129 1.247 . S
O139 Co126 2.244 . S
O139 C129 1.272 . S
O139 Co131 2.135 . S
Co140 O141 2.216 1_545 S
Co140 O142 2.091 1_545 S
Co140 O144 2.004 . S
Co140 O150 2.021 1_545 S
Co140 O152 2.137 . S
Co140 O153 2.244 . S
O141 Co140 2.216 1_565 S
O141 C148 1.247 . S
O142 Co140 2.091 1_565 S
O142 C148 1.261 . S
C143 O152 1.247 . S
C143 O153 1.272 . S
O144 Co140 2.004 . S
O144 C149 1.259 . S
Co145 O146 2.061 . S
Co145 O151 2.052 1_545 S
Co145 O153 2.135 . S
O146 Co145 2.061 . S
O146 C149 1.235 . S
C147 O150 1.238 . S
C147 O151 1.241 . S
C148 O141 1.247 . S
C148 O142 1.261 . S
C149 O144 1.259 . S
C149 O146 1.235 . S
O150 Co140 2.021 1_565 S
O150 C147 1.238 . S
O151 Co145 2.052 1_565 S
O151 C147 1.241 . S
O152 Co140 2.137 . S
O152 C143 1.247 . S
O153 Co140 2.244 . S
O153 C143 1.272 . S
O153 Co145 2.135 . S
Co154 O155 2.216 1_554 S
Co154 O156 2.091 1_554 S
Co154 O158 2.004 . S
Co154 O164 2.021 . S
Co154 O166 2.137 1_554 S
Co154 O167 2.244 1_554 S
O155 Co154 2.216 1_556 S
O155 C162 1.247 . S
O156 Co154 2.091 1_556 S
O156 C162 1.261 . S
C157 O166 1.247 . S
C157 O167 1.272 . S
O158 Co154 2.004 . S
O158 C163 1.259 . S
Co159 O160 2.061 . S
Co159 O165 2.052 . S
Co159 O167 2.135 1_554 S
O160 Co159 2.061 . S
O160 C163 1.235 . S
C161 O164 1.238 . S
C161 O165 1.241 . S
C162 O155 1.247 . S
C162 O156 1.261 . S
C163 O158 1.259 . S
C163 O160 1.235 . S
O164 Co154 2.021 . S
O164 C161 1.238 . S
O165 Co159 2.052 . S
O165 C161 1.241 . S
O166 Co154 2.137 1_556 S
O166 C157 1.247 . S
O167 Co154 2.244 1_556 S
O167 C157 1.272 . S
O167 Co159 2.135 1_556 S
Co168 O169 2.216 . S
Co168 O170 2.091 . S
Co168 O172 2.004 1_554 S
Co168 O178 2.021 . S
Co168 O180 2.137 1_554 S
Co168 O181 2.244 1_554 S
O169 Co168 2.216 . S
O169 C176 1.247 . S
O170 Co168 2.091 . S
O170 C176 1.261 . S
C171 O180 1.247 . S
C171 O181 1.272 . S
O172 Co168 2.004 1_556 S
O172 C177 1.259 . S
Co173 O174 2.061 . S
Co173 O179 2.052 1_556 S
Co173 O181 2.135 . S
O174 Co173 2.061 . S
O174 C177 1.235 . S
C175 O178 1.238 . S
C175 O179 1.241 . S
C176 O169 1.247 . S
C176 O170 1.261 . S
C177 O172 1.259 . S
C177 O174 1.235 . S
O178 Co168 2.021 . S
O178 C175 1.238 . S
O179 Co173 2.052 1_554 S
O179 C175 1.241 . S
O180 Co168 2.137 1_556 S
O180 C171 1.247 . S
O181 Co168 2.244 1_556 S
O181 C171 1.272 . S
O181 Co173 2.135 . S
Co182 O183 2.216 . S
Co182 O184 2.091 . S
Co182 O186 2.004 1_554 S
Co182 O192 2.021 . S
Co182 O194 2.137 1_554 S
Co182 O195 2.244 1_554 S
O183 Co182 2.216 . S
O183 C190 1.247 . S
O184 Co182 2.091 . S
O184 C190 1.261 . S
C185 O194 1.247 . S
C185 O195 1.272 . S
O186 Co182 2.004 1_556 S
O186 C191 1.259 . S
Co187 O188 2.061 . S
Co187 O193 2.052 1_556 S
Co187 O195 2.135 . S
O188 Co187 2.061 . S
O188 C191 1.235 . S
C189 O192 1.238 . S
C189 O193 1.241 . S
C190 O183 1.247 . S
C190 O184 1.261 . S
C191 O186 1.259 . S
C191 O188 1.235 . S
O192 Co182 2.021 . S
O192 C189 1.238 . S
O193 Co187 2.052 1_554 S
O193 C189 1.241 . S
O194 Co182 2.137 1_556 S
O194 C185 1.247 . S
O195 Co182 2.244 1_556 S
O195 C185 1.272 . S
O195 Co187 2.135 . S
Co196 O197 2.216 . S
Co196 O198 2.091 . S
Co196 O200 2.004 . S
Co196 O206 2.021 . S
Co196 O208 2.137 . S
Co196 O209 2.244 . S
O197 Co196 2.216 . S
O197 C204 1.247 . S
O198 Co196 2.091 . S
O198 C204 1.261 . S
C199 O208 1.247 . S
C199 O209 1.272 . S
O200 Co196 2.004 . S
O200 C205 1.259 . S
Co201 O202 2.061 . S
Co201 O207 2.052 . S
Co201 O209 2.135 . S
O202 Co201 2.061 . S
O202 C205 1.235 . S
C203 O206 1.238 . S
C203 O207 1.241 . S
C204 O197 1.247 . S
C204 O198 1.261 . S
C205 O200 1.259 . S
C205 O202 1.235 . S
O206 Co196 2.021 . S
O206 C203 1.238 . S
O207 Co201 2.052 . S
O207 C203 1.241 . S
O208 Co196 2.137 . S
O208 C199 1.247 . S
O209 Co196 2.244 . S
O209 C199 1.272 . S
O209 Co201 2.135 . S
Co210 O211 2.216 . S
Co210 O212 2.091 . S
Co210 O214 2.004 . S
Co210 O220 2.021 . S
Co210 O222 2.137 . S
Co210 O223 2.244 . S
O211 Co210 2.216 . S
O211 C218 1.247 . S
O212 Co210 2.091 . S
O212 C218 1.261 . S
C213 O222 1.247 . S
C213 O223 1.272 . S
O214 Co210 2.004 . S
O214 C219 1.259 . S
Co215 O216 2.061 . S
Co215 O221 2.052 . S
Co215 O223 2.135 . S
O216 Co215 2.061 . S
O216 C219 1.235 . S
C217 O220 1.238 . S
C217 O221 1.241 . S
C218 O211 1.247 . S
C218 O212 1.261 . S
C219 O214 1.259 . S
C219 O216 1.235 . S
O220 Co210 2.021 . S
O220 C217 1.238 . S
O221 Co215 2.052 . S
O221 C217 1.241 . S
O222 Co210 2.137 . S
O222 C213 1.247 . S
O223 Co210 2.244 . S
O223 C213 1.272 . S
O223 Co215 2.135 . S
Co224 O225 2.216 . S
Co224 O226 2.091 . S
Co224 O228 2.004 1_565 S
Co224 O234 2.021 1_565 S
Co224 O236 2.137 . S
Co224 O237 2.244 . S
O225 Co224 2.216 . S
O225 C232 1.247 . S
O226 Co224 2.091 . S
O226 C232 1.261 . S
C227 O236 1.247 . S
C227 O237 1.272 . S
O228 Co224 2.004 1_545 S
O228 C233 1.259 . S
Co229 O230 2.061 . S
Co229 O235 2.052 . S
Co229 O237 2.135 1_545 S
O230 Co229 2.061 . S
O230 C233 1.235 . S
C231 O234 1.238 . S
C231 O235 1.241 . S
C232 O225 1.247 . S
C232 O226 1.261 . S
C233 O228 1.259 . S
C233 O230 1.235 . S
O234 Co224 2.021 1_545 S
O234 C231 1.238 . S
O235 Co229 2.052 . S
O235 C231 1.241 . S
O236 Co224 2.137 . S
O236 C227 1.247 . S
O237 Co224 2.244 . S
O237 C227 1.272 . S
O237 Co229 2.135 1_565 S
Co238 O239 2.216 . S
Co238 O240 2.091 . S
Co238 O242 2.004 . S
Co238 O248 2.021 . S
Co238 O250 2.137 . S
Co238 O251 2.244 . S
O239 Co238 2.216 . S
O239 C246 1.247 . S
O240 Co238 2.091 . S
O240 C246 1.261 . S
C241 O250 1.247 . S
C241 O251 1.272 . S
O242 Co238 2.004 . S
O242 C247 1.259 . S
Co243 O244 2.061 . S
Co243 O249 2.052 . S
Co243 O251 2.135 . S
O244 Co243 2.061 . S
O244 C247 1.235 . S
C245 O248 1.238 . S
C245 O249 1.241 . S
C246 O239 1.247 . S
C246 O240 1.261 . S
C247 O242 1.259 . S
C247 O244 1.235 . S
O248 Co238 2.021 . S
O248 C245 1.238 . S
O249 Co243 2.052 . S
O249 C245 1.241 . S
O250 Co238 2.137 . S
O250 C241 1.247 . S
O251 Co238 2.244 . S
O251 C241 1.272 . S
O251 Co243 2.135 . S
Co252 O253 2.216 . S
Co252 O254 2.091 . S
Co252 O256 2.004 . S
Co252 O262 2.021 . S
Co252 O264 2.137 . S
Co252 O265 2.244 . S
O253 Co252 2.216 . S
O253 C260 1.247 . S
O254 Co252 2.091 . S
O254 C260 1.261 . S
C255 O264 1.247 . S
C255 O265 1.272 . S
O256 Co252 2.004 . S
O256 C261 1.259 . S
Co257 O258 2.061 . S
Co257 O263 2.052 . S
Co257 O265 2.135 . S
O258 Co257 2.061 . S
O258 C261 1.235 . S
C259 O262 1.238 . S
C259 O263 1.241 . S
C260 O253 1.247 . S
C260 O254 1.261 . S
C261 O256 1.259 . S
C261 O258 1.235 . S
O262 Co252 2.021 . S
O262 C259 1.238 . S
O263 Co257 2.052 . S
O263 C259 1.241 . S
O264 Co252 2.137 . S
O264 C255 1.247 . S
O265 Co252 2.244 . S
O265 C255 1.272 . S
O265 Co257 2.135 . S
Co266 O267 2.216 . S
Co266 O268 2.091 . S
Co266 O270 2.004 1_545 S
Co266 O276 2.021 1_545 S
Co266 O278 2.137 . S
Co266 O279 2.244 . S
O267 Co266 2.216 . S
O267 C274 1.247 . S
O268 Co266 2.091 . S
O268 C274 1.261 . S
C269 O278 1.247 . S
C269 O279 1.272 . S
O270 Co266 2.004 1_565 S
O270 C275 1.259 . S
Co271 O272 2.061 . S
Co271 O277 2.052 . S
Co271 O279 2.135 1_565 S
O272 Co271 2.061 . S
O272 C275 1.235 . S
C273 O276 1.238 . S
C273 O277 1.241 . S
C274 O267 1.247 . S
C274 O268 1.261 . S
C275 O270 1.259 . S
C275 O272 1.235 . S
O276 Co266 2.021 1_565 S
O276 C273 1.238 . S
O277 Co271 2.052 . S
O277 C273 1.241 . S
O278 Co266 2.137 . S
O278 C269 1.247 . S
O279 Co266 2.244 . S
O279 C269 1.272 . S
O279 Co271 2.135 1_545 S
Co280 O281 2.212 1_554 S
Co280 O282 2.089 1_554 S
Co280 O284 2.008 . S
Co280 O290 2.029 . S
Co280 O292 2.129 1_554 S
Co280 O293 2.242 1_554 S
O281 Co280 2.212 1_556 S
O281 C288 1.247 . S
O282 Co280 2.089 1_556 S
O282 C288 1.261 . S
C283 O292 1.247 . S
C283 O293 1.272 . S
O284 Co280 2.008 . S
O284 C289 1.259 . S
Co285 O286 2.061 . S
Co285 O291 2.052 . S
Co285 O293 2.135 1_554 S
O286 Co285 2.061 . S
O286 C289 1.235 . S
C287 O290 1.238 . S
C287 O291 1.241 . S
C288 O281 1.247 . S
C288 O282 1.261 . S
C289 O284 1.259 . S
C289 O286 1.235 . S
O290 Co280 2.029 . S
O290 C287 1.238 . S
O291 Co285 2.052 . S
O291 C287 1.241 . S
O292 Co280 2.129 1_556 S
O292 C283 1.247 . S
O293 Co280 2.242 1_556 S
O293 C283 1.272 . S
O293 Co285 2.135 1_556 S
Co294 O295 2.216 . S
Co294 O296 2.091 . S
Co294 O298 2.004 . S
Co294 O304 2.021 . S
Co294 O306 2.137 . S
Co294 O307 2.244 . S
O295 Co294 2.216 . S
O295 C302 1.247 . S
O296 Co294 2.091 . S
O296 C302 1.261 . S
C297 O306 1.247 . S
C297 O307 1.272 . S
O298 Co294 2.004 . S
O298 C303 1.259 . S
Co299 O300 2.061 . S
Co299 O305 2.052 . S
Co299 O307 2.135 . S
O300 Co299 2.061 . S
O300 C303 1.235 . S
C301 O304 1.238 . S
C301 O305 1.241 . S
C302 O295 1.247 . S
C302 O296 1.261 . S
C303 O298 1.259 . S
C303 O300 1.235 . S
O304 Co294 2.021 . S
O304 C301 1.238 . S
O305 Co299 2.052 . S
O305 C301 1.241 . S
O306 Co294 2.137 . S
O306 C297 1.247 . S
O307 Co294 2.244 . S
O307 C297 1.272 . S
O307 Co299 2.135 . S
Co308 O309 2.216 . S
Co308 O310 2.091 . S
Co308 O312 2.004 . S
Co308 O318 2.021 . S
Co308 O320 2.137 . S
Co308 O321 2.244 . S
O309 Co308 2.216 . S
O309 C316 1.247 . S
O310 Co308 2.091 . S
O310 C316 1.261 . S
C311 O320 1.247 . S
C311 O321 1.272 . S
O312 Co308 2.004 . S
O312 C317 1.259 . S
Co313 O314 2.061 . S
Co313 O319 2.052 . S
Co313 O321 2.135 . S
O314 Co313 2.061 . S
O314 C317 1.235 . S
C315 O318 1.238 . S
C315 O319 1.241 . S
C316 O309 1.247 . S
C316 O310 1.261 . S
C317 O312 1.259 . S
C317 O314 1.235 . S
O318 Co308 2.021 . S
O318 C315 1.238 . S
O319 Co313 2.052 . S
O319 C315 1.241 . S
O320 Co308 2.137 . S
O320 C311 1.247 . S
O321 Co308 2.244 . S
O321 C311 1.272 . S
O321 Co313 2.135 . S
Co322 O323 2.216 . S
Co322 O324 2.091 . S
Co322 O326 2.004 . S
Co322 O332 2.021 . S
Co322 O334 2.137 . S
Co322 O335 2.244 . S
O323 Co322 2.216 . S
O323 C330 1.247 . S
O324 Co322 2.091 . S
O324 C330 1.261 . S
C325 O334 1.247 . S
C325 O335 1.272 . S
O326 Co322 2.004 . S
O326 C331 1.259 . S
Co327 O328 2.061 . S
Co327 O333 2.052 . S
Co327 O335 2.135 . S
O328 Co327 2.061 . S
O328 C331 1.235 . S
C329 O332 1.238 . S
C329 O333 1.241 . S
C330 O323 1.247 . S
C330 O324 1.261 . S
C331 O326 1.259 . S
C331 O328 1.235 . S
O332 Co322 2.021 . S
O332 C329 1.238 . S
O333 Co327 2.052 . S
O333 C329 1.241 . S
O334 Co322 2.137 . S
O334 C325 1.247 . S
O335 Co322 2.244 . S
O335 C325 1.272 . S
O335 Co327 2.135 . S
H336 C344 0.929 . S
H337 C346 0.930 . S
H338 C348 0.930 . S
H339 C351 0.929 . S
H340 C354 0.930 . S
H341 C356 0.960 . S
H342 C356 0.960 . S
H343 C356 0.960 . S
C344 H336 0.929 . S
C344 C345 1.377 . S
C344 C346 1.384 . S
C345 C344 1.377 . S
C345 C351 1.390 . S
C346 H337 0.930 . S
C346 C344 1.384 . S
C346 C347 1.372 . S
C347 C346 1.372 . S
C347 C348 1.400 . S
C347 C352 1.490 . S
C348 H338 0.930 . S
C348 C347 1.400 . S
C348 C351 1.386 . S
H349 C365 0.930 . S
H350 C366 0.931 . S
C351 H339 0.929 . S
C351 C345 1.390 . S
C351 C348 1.386 . S
C352 C347 1.490 . S
C352 C354 1.395 . S
C352 C355 1.403 . S
H353 C359 0.930 . S
C354 H340 0.930 . S
C354 C352 1.395 . S
C354 C357 1.403 . S
C355 C352 1.403 . S
C355 C356 1.524 . S
C355 C359 1.400 . S
C356 H341 0.960 . S
C356 H342 0.960 . S
C356 H343 0.960 . S
C356 C355 1.524 . S
C357 C354 1.403 . S
C357 C358 1.392 . S
C357 C361 1.495 . S
C358 C357 1.392 . S
C358 C359 1.385 . S
C358 C360 1.478 . S
C359 H353 0.930 . S
C359 C355 1.400 . S
C359 C358 1.385 . S
C360 C358 1.478 . S
C360 C362 1.381 . S
C360 C366 1.383 . S
C361 C357 1.495 . S
C361 H367 0.959 . S
C361 H368 0.961 . S
C361 H369 0.960 . S
C362 C360 1.381 . S
C362 C363 1.394 . S
C362 H370 0.930 . S
C363 C362 1.394 . S
C363 C364 1.383 . S
C363 H371 0.929 . S
C364 C363 1.383 . S
C364 C365 1.377 . S
C365 H349 0.930 . S
C365 C364 1.377 . S
C365 C366 1.379 . S
C366 H350 0.931 . S
C366 C360 1.383 . S
C366 C365 1.379 . S
H367 C361 0.959 . S
H368 C361 0.961 . S
H369 C361 0.960 . S
H370 C362 0.930 . S
H371 C363 0.929 . S
H372 C380 0.929 . S
H373 C382 0.930 . S
H374 C384 0.930 . S
H375 C387 0.929 . S
H376 C390 0.930 . S
H377 C392 0.960 . S
H378 C392 0.960 . S
H379 C392 0.960 . S
C380 H372 0.929 . S
C380 C381 1.377 . S
C380 C382 1.384 . S
C381 C380 1.377 . S
C381 C387 1.390 . S
C382 H373 0.930 . S
C382 C380 1.384 . S
C382 C383 1.372 . S
C383 C382 1.372 . S
C383 C384 1.400 . S
C383 C388 1.490 . S
C384 H374 0.930 . S
C384 C383 1.400 . S
C384 C387 1.386 . S
H385 C401 0.930 . S
H386 C402 0.931 . S
C387 H375 0.929 . S
C387 C381 1.390 . S
C387 C384 1.386 . S
C388 C383 1.490 . S
C388 C390 1.395 . S
C388 C391 1.403 . S
H389 C395 0.930 . S
C390 H376 0.930 . S
C390 C388 1.395 . S
C390 C393 1.403 . S
C391 C388 1.403 . S
C391 C392 1.524 . S
C391 C395 1.400 . S
C392 H377 0.960 . S
C392 H378 0.960 . S
C392 H379 0.960 . S
C392 C391 1.524 . S
C393 C390 1.403 . S
C393 C394 1.392 . S
C393 C397 1.495 . S
C394 C393 1.392 . S
C394 C395 1.385 . S
C394 C396 1.478 . S
C395 H389 0.930 . S
C395 C391 1.400 . S
C395 C394 1.385 . S
C396 C394 1.478 . S
C396 C398 1.381 . S
C396 C402 1.383 . S
C397 C393 1.495 . S
C397 H403 0.959 . S
C397 H404 0.961 . S
C397 H405 0.960 . S
C398 C396 1.381 . S
C398 C399 1.394 . S
C398 H406 0.930 . S
C399 C398 1.394 . S
C399 C400 1.383 . S
C399 H407 0.929 . S
C400 C399 1.383 . S
C400 C401 1.377 . S
C401 H385 0.930 . S
C401 C400 1.377 . S
C401 C402 1.379 . S
C402 H386 0.931 . S
C402 C396 1.383 . S
C402 C401 1.379 . S
H403 C397 0.959 . S
H404 C397 0.961 . S
H405 C397 0.960 . S
H406 C398 0.930 . S
H407 C399 0.929 . S
H408 C416 0.929 . S
H409 C418 0.930 . S
H410 C420 0.930 . S
H411 C423 0.929 . S
H412 C426 0.930 . S
H413 C428 0.960 . S
H414 C428 0.960 . S
H415 C428 0.960 . S
C416 H408 0.929 . S
C416 C417 1.377 . S
C416 C418 1.384 . S
C417 C416 1.377 . S
C417 C423 1.390 . S
C418 H409 0.930 . S
C418 C416 1.384 . S
C418 C419 1.372 . S
C419 C418 1.372 . S
C419 C420 1.400 . S
C419 C424 1.490 . S
C420 H410 0.930 . S
C420 C419 1.400 . S
C420 C423 1.386 . S
H421 C437 0.930 . S
H422 C438 0.931 . S
C423 H411 0.929 . S
C423 C417 1.390 . S
C423 C420 1.386 . S
C424 C419 1.490 . S
C424 C426 1.395 . S
C424 C427 1.403 . S
H425 C431 0.930 . S
C426 H412 0.930 . S
C426 C424 1.395 . S
C426 C429 1.403 . S
C427 C424 1.403 . S
C427 C428 1.524 . S
C427 C431 1.400 . S
C428 H413 0.960 . S
C428 H414 0.960 . S
C428 H415 0.960 . S
C428 C427 1.524 . S
C429 C426 1.403 . S
C429 C430 1.392 . S
C429 C433 1.495 . S
C430 C429 1.392 . S
C430 C431 1.385 . S
C430 C432 1.478 . S
C431 H425 0.930 . S
C431 C427 1.400 . S
C431 C430 1.385 . S
C432 C430 1.478 . S
C432 C434 1.381 . S
C432 C438 1.383 . S
C433 C429 1.495 . S
C433 H439 0.959 . S
C433 H440 0.961 . S
C433 H441 0.960 . S
C434 C432 1.381 . S
C434 C435 1.394 . S
C434 H442 0.930 . S
C435 C434 1.394 . S
C435 C436 1.383 . S
C435 H443 0.929 . S
C436 C435 1.383 . S
C436 C437 1.377 . S
C437 H421 0.930 . S
C437 C436 1.377 . S
C437 C438 1.379 . S
C438 H422 0.931 . S
C438 C432 1.383 . S
C438 C437 1.379 . S
H439 C433 0.959 . S
H440 C433 0.961 . S
H441 C433 0.960 . S
H442 C434 0.930 . S
H443 C435 0.929 . S
H444 C452 0.929 . S
H445 C454 0.930 . S
H446 C456 0.930 . S
H447 C459 0.929 . S
H448 C462 0.930 . S
H449 C464 0.960 . S
H450 C464 0.960 . S
H451 C464 0.960 . S
C452 H444 0.929 . S
C452 C453 1.377 . S
C452 C454 1.384 . S
C453 C452 1.377 . S
C453 C459 1.390 . S
C454 H445 0.930 . S
C454 C452 1.384 . S
C454 C455 1.372 . S
C455 C454 1.372 . S
C455 C456 1.400 . S
C455 C460 1.490 . S
C456 H446 0.930 . S
C456 C455 1.400 . S
C456 C459 1.386 . S
H457 C473 0.930 . S
H458 C474 0.931 . S
C459 H447 0.929 . S
C459 C453 1.390 . S
C459 C456 1.386 . S
C460 C455 1.490 . S
C460 C462 1.395 . S
C460 C463 1.403 . S
H461 C467 0.930 . S
C462 H448 0.930 . S
C462 C460 1.395 . S
C462 C465 1.403 . S
C463 C460 1.403 . S
C463 C464 1.524 . S
C463 C467 1.400 . S
C464 H449 0.960 . S
C464 H450 0.960 . S
C464 H451 0.960 . S
C464 C463 1.524 . S
C465 C462 1.403 . S
C465 C466 1.392 . S
C465 C469 1.495 . S
C466 C465 1.392 . S
C466 C467 1.385 . S
C466 C468 1.478 . S
C467 H461 0.930 . S
C467 C463 1.400 . S
C467 C466 1.385 . S
C468 C466 1.478 . S
C468 C470 1.381 . S
C468 C474 1.383 . S
C469 C465 1.495 . S
C469 H475 0.959 . S
C469 H476 0.961 . S
C469 H477 0.960 . S
C470 C468 1.381 . S
C470 C471 1.394 . S
C470 H478 0.930 . S
C471 C470 1.394 . S
C471 C472 1.383 . S
C471 H479 0.929 . S
C472 C471 1.383 . S
C472 C473 1.377 . S
C473 H457 0.930 . S
C473 C472 1.377 . S
C473 C474 1.379 . S
C474 H458 0.931 . S
C474 C468 1.383 . S
C474 C473 1.379 . S
H475 C469 0.959 . S
H476 C469 0.961 . S
H477 C469 0.960 . S
H478 C470 0.930 . S
H479 C471 0.929 . S
H480 C488 0.929 . S
H481 C490 0.930 . S
H482 C492 0.930 . S
H483 C495 0.929 . S
H484 C498 0.930 . S
H485 C500 0.960 . S
H486 C500 0.960 . S
H487 C500 0.960 . S
C488 H480 0.929 . S
C488 C489 1.377 . S
C488 C490 1.384 . S
C489 C488 1.377 . S
C489 C495 1.390 . S
C490 H481 0.930 . S
C490 C488 1.384 . S
C490 C491 1.372 . S
C491 C490 1.372 . S
C491 C492 1.400 . S
C491 C496 1.490 . S
C492 H482 0.930 . S
C492 C491 1.400 . S
C492 C495 1.386 . S
H493 C509 0.930 . S
H494 C510 0.931 . S
C495 H483 0.929 . S
C495 C489 1.390 . S
C495 C492 1.386 . S
C496 C491 1.490 . S
C496 C498 1.395 . S
C496 C499 1.403 . S
H497 C503 0.930 . S
C498 H484 0.930 . S
C498 C496 1.395 . S
C498 C501 1.403 . S
C499 C496 1.403 . S
C499 C500 1.524 . S
C499 C503 1.400 . S
C500 H485 0.960 . S
C500 H486 0.960 . S
C500 H487 0.960 . S
C500 C499 1.524 . S
C501 C498 1.403 . S
C501 C502 1.392 . S
C501 C505 1.495 . S
C502 C501 1.392 . S
C502 C503 1.385 . S
C502 C504 1.478 . S
C503 H497 0.930 . S
C503 C499 1.400 . S
C503 C502 1.385 . S
C504 C502 1.478 . S
C504 C506 1.381 . S
C504 C510 1.383 . S
C505 C501 1.495 . S
C505 H511 0.959 . S
C505 H512 0.961 . S
C505 H513 0.960 . S
C506 C504 1.381 . S
C506 C507 1.394 . S
C506 H514 0.930 . S
C507 C506 1.394 . S
C507 C508 1.383 . S
C507 H515 0.929 . S
C508 C507 1.383 . S
C508 C509 1.377 . S
C509 H493 0.930 . S
C509 C508 1.377 . S
C509 C510 1.379 . S
C510 H494 0.931 . S
C510 C504 1.383 . S
C510 C509 1.379 . S
H511 C505 0.959 . S
H512 C505 0.961 . S
H513 C505 0.960 . S
H514 C506 0.930 . S
H515 C507 0.929 . S
H516 C524 0.929 . S
H517 C526 0.930 . S
H518 C528 0.930 . S
H519 C531 0.929 . S
H520 C534 0.930 . S
H521 C536 0.960 . S
H522 C536 0.960 . S
H523 C536 0.960 . S
C524 H516 0.929 . S
C524 C525 1.377 . S
C524 C526 1.384 . S
C525 C524 1.377 . S
C525 C531 1.390 . S
C526 H517 0.930 . S
C526 C524 1.384 . S
C526 C527 1.372 . S
C527 C526 1.372 . S
C527 C528 1.400 . S
C527 C532 1.490 . S
C528 H518 0.930 . S
C528 C527 1.400 . S
C528 C531 1.386 . S
H529 C545 0.930 . S
H530 C546 0.931 . S
C531 H519 0.929 . S
C531 C525 1.390 . S
C531 C528 1.386 . S
C532 C527 1.490 . S
C532 C534 1.395 . S
C532 C535 1.403 . S
H533 C539 0.930 . S
C534 H520 0.930 . S
C534 C532 1.395 . S
C534 C537 1.403 . S
C535 C532 1.403 . S
C535 C536 1.524 . S
C535 C539 1.400 . S
C536 H521 0.960 . S
C536 H522 0.960 . S
C536 H523 0.960 . S
C536 C535 1.524 . S
C537 C534 1.403 . S
C537 C538 1.392 . S
C537 C541 1.495 . S
C538 C537 1.392 . S
C538 C539 1.385 . S
C538 C540 1.478 . S
C539 H533 0.930 . S
C539 C535 1.400 . S
C539 C538 1.385 . S
C540 C538 1.478 . S
C540 C542 1.381 . S
C540 C546 1.383 . S
C541 C537 1.495 . S
C541 H547 0.959 . S
C541 H548 0.961 . S
C541 H549 0.960 . S
C542 C540 1.381 . S
C542 C543 1.394 . S
C542 H550 0.930 . S
C543 C542 1.394 . S
C543 C544 1.383 . S
C543 H551 0.929 . S
C544 C543 1.383 . S
C544 C545 1.377 . S
C545 H529 0.930 . S
C545 C544 1.377 . S
C545 C546 1.379 . S
C546 H530 0.931 . S
C546 C540 1.383 . S
C546 C545 1.379 . S
H547 C541 0.959 . S
H548 C541 0.961 . S
H549 C541 0.960 . S
H550 C542 0.930 . S
H551 C543 0.929 . S
H552 C560 0.929 . S
H553 C562 0.930 . S
H554 C564 0.930 . S
H555 C567 0.929 . S
H556 C570 0.930 . S
H557 C572 0.960 . S
H558 C572 0.960 . S
H559 C572 0.960 . S
C560 H552 0.929 . S
C560 C561 1.377 . S
C560 C562 1.384 . S
C561 C560 1.377 . S
C561 C567 1.390 . S
C562 H553 0.930 . S
C562 C560 1.384 . S
C562 C563 1.372 . S
C563 C562 1.372 . S
C563 C564 1.400 . S
C563 C568 1.490 . S
C564 H554 0.930 . S
C564 C563 1.400 . S
C564 C567 1.386 . S
H565 C581 0.930 . S
H566 C582 0.931 . S
C567 H555 0.929 . S
C567 C561 1.390 . S
C567 C564 1.386 . S
C568 C563 1.490 . S
C568 C570 1.395 . S
C568 C571 1.403 . S
H569 C575 0.930 . S
C570 H556 0.930 . S
C570 C568 1.395 . S
C570 C573 1.403 . S
C571 C568 1.403 . S
C571 C572 1.524 . S
C571 C575 1.400 . S
C572 H557 0.960 . S
C572 H558 0.960 . S
C572 H559 0.960 . S
C572 C571 1.524 . S
C573 C570 1.403 . S
C573 C574 1.392 . S
C573 C577 1.495 . S
C574 C573 1.392 . S
C574 C575 1.385 . S
C574 C576 1.478 . S
C575 H569 0.930 . S
C575 C571 1.400 . S
C575 C574 1.385 . S
C576 C574 1.478 . S
C576 C578 1.381 . S
C576 C582 1.383 . S
C577 C573 1.495 . S
C577 H583 0.959 . S
C577 H584 0.961 . S
C577 H585 0.960 . S
C578 C576 1.381 . S
C578 C579 1.394 . S
C578 H586 0.930 . S
C579 C578 1.394 . S
C579 C580 1.383 . S
C579 H587 0.929 . S
C580 C579 1.383 . S
C580 C581 1.377 . S
C581 H565 0.930 . S
C581 C580 1.377 . S
C581 C582 1.379 . S
C582 H566 0.931 . S
C582 C576 1.383 . S
C582 C581 1.379 . S
H583 C577 0.959 . S
H584 C577 0.961 . S
H585 C577 0.960 . S
H586 C578 0.930 . S
H587 C579 0.929 . S
H588 C596 0.929 . S
H589 C598 0.930 . S
H590 C600 0.930 . S
H591 C603 0.929 . S
H592 C606 0.930 . S
H593 C608 0.960 . S
H594 C608 0.960 . S
H595 C608 0.960 . S
C596 H588 0.929 . S
C596 C597 1.377 . S
C596 C598 1.384 . S
C597 C596 1.377 . S
C597 C603 1.390 . S
C598 H589 0.930 . S
C598 C596 1.384 . S
C598 C599 1.372 . S
C599 C598 1.372 . S
C599 C600 1.400 . S
C599 C604 1.490 . S
C600 H590 0.930 . S
C600 C599 1.400 . S
C600 C603 1.386 . S
H601 C617 0.930 . S
H602 C618 0.931 . S
C603 H591 0.929 . S
C603 C597 1.390 . S
C603 C600 1.386 . S
C604 C599 1.490 . S
C604 C606 1.395 . S
C604 C607 1.403 . S
H605 C611 0.930 . S
C606 H592 0.930 . S
C606 C604 1.395 . S
C606 C609 1.403 . S
C607 C604 1.403 . S
C607 C608 1.524 . S
C607 C611 1.400 . S
C608 H593 0.960 . S
C608 H594 0.960 . S
C608 H595 0.960 . S
C608 C607 1.524 . S
C609 C606 1.403 . S
C609 C610 1.392 . S
C609 C613 1.495 . S
C610 C609 1.392 . S
C610 C611 1.385 . S
C610 C612 1.478 . S
C611 H605 0.930 . S
C611 C607 1.400 . S
C611 C610 1.385 . S
C612 C610 1.478 . S
C612 C614 1.381 . S
C612 C618 1.383 . S
C613 C609 1.495 . S
C613 H619 0.959 . S
C613 H620 0.961 . S
C613 H621 0.960 . S
C614 C612 1.381 . S
C614 C615 1.394 . S
C614 H622 0.930 . S
C615 C614 1.394 . S
C615 C616 1.383 . S
C615 H623 0.929 . S
C616 C615 1.383 . S
C616 C617 1.377 . S
C617 H601 0.930 . S
C617 C616 1.377 . S
C617 C618 1.379 . S
C618 H602 0.931 . S
C618 C612 1.383 . S
C618 C617 1.379 . S
H619 C613 0.959 . S
H620 C613 0.961 . S
H621 C613 0.960 . S
H622 C614 0.930 . S
H623 C615 0.929 . S
H624 C632 0.929 . S
H625 C634 0.930 . S
H626 C636 0.930 . S
H627 C639 0.929 . S
H628 C642 0.930 . S
H629 C644 0.960 . S
H630 C644 0.960 . S
H631 C644 0.960 . S
C632 H624 0.929 . S
C632 C633 1.377 . S
C632 C634 1.384 . S
C633 C632 1.377 . S
C633 C639 1.390 . S
C634 H625 0.930 . S
C634 C632 1.384 . S
C634 C635 1.372 . S
C635 C634 1.372 . S
C635 C636 1.400 . S
C635 C640 1.490 . S
C636 H626 0.930 . S
C636 C635 1.400 . S
C636 C639 1.386 . S
H637 C653 0.930 . S
H638 C654 0.931 . S
C639 H627 0.929 . S
C639 C633 1.390 . S
C639 C636 1.386 . S
C640 C635 1.490 . S
C640 C642 1.395 . S
C640 C643 1.403 . S
H641 C647 0.930 . S
C642 H628 0.930 . S
C642 C640 1.395 . S
C642 C645 1.403 . S
C643 C640 1.403 . S
C643 C644 1.524 . S
C643 C647 1.400 . S
C644 H629 0.960 . S
C644 H630 0.960 . S
C644 H631 0.960 . S
C644 C643 1.524 . S
C645 C642 1.403 . S
C645 C646 1.392 . S
C645 C649 1.495 . S
C646 C645 1.392 . S
C646 C647 1.385 . S
C646 C648 1.478 . S
C647 H641 0.930 . S
C647 C643 1.400 . S
C647 C646 1.385 . S
C648 C646 1.478 . S
C648 C650 1.381 . S
C648 C654 1.383 . S
C649 C645 1.495 . S
C649 H655 0.959 . S
C649 H656 0.961 . S
C649 H657 0.960 . S
C650 C648 1.381 . S
C650 C651 1.394 . S
C650 H658 0.930 . S
C651 C650 1.394 . S
C651 C652 1.383 . S
C651 H659 0.929 . S
C652 C651 1.383 . S
C652 C653 1.377 . S
C653 H637 0.930 . S
C653 C652 1.377 . S
C653 C654 1.379 . S
C654 H638 0.931 . S
C654 C648 1.383 . S
C654 C653 1.379 . S
H655 C649 0.959 . S
H656 C649 0.961 . S
H657 C649 0.960 . S
H658 C650 0.930 . S
H659 C651 0.929 . S
H660 C668 0.929 . S
H661 C670 0.930 . S
H662 C672 0.930 . S
H663 C675 0.929 . S
H664 C678 0.930 . S
H665 C680 0.960 . S
H666 C680 0.960 . S
H667 C680 0.960 . S
C668 H660 0.929 . S
C668 C669 1.377 . S
C668 C670 1.384 . S
C669 C668 1.377 . S
C669 C675 1.390 . S
C670 H661 0.930 . S
C670 C668 1.384 . S
C670 C671 1.372 . S
C671 C670 1.372 . S
C671 C672 1.400 . S
C671 C676 1.490 . S
C672 H662 0.930 . S
C672 C671 1.400 . S
C672 C675 1.386 . S
H673 C689 0.930 . S
H674 C690 0.931 . S
C675 H663 0.929 . S
C675 C669 1.390 . S
C675 C672 1.386 . S
C676 C671 1.490 . S
C676 C678 1.395 . S
C676 C679 1.403 . S
H677 C683 0.930 . S
C678 H664 0.930 . S
C678 C676 1.395 . S
C678 C681 1.403 . S
C679 C676 1.403 . S
C679 C680 1.524 . S
C679 C683 1.400 . S
C680 H665 0.960 . S
C680 H666 0.960 . S
C680 H667 0.960 . S
C680 C679 1.524 . S
C681 C678 1.403 . S
C681 C682 1.392 . S
C681 C685 1.495 . S
C682 C681 1.392 . S
C682 C683 1.385 . S
C682 C684 1.478 . S
C683 H677 0.930 . S
C683 C679 1.400 . S
C683 C682 1.385 . S
C684 C682 1.478 . S
C684 C686 1.381 . S
C684 C690 1.383 . S
C685 C681 1.495 . S
C685 H691 0.959 . S
C685 H692 0.961 . S
C685 H693 0.960 . S
C686 C684 1.381 . S
C686 C687 1.394 . S
C686 H694 0.930 . S
C687 C686 1.394 . S
C687 C688 1.383 . S
C687 H695 0.929 . S
C688 C687 1.383 . S
C688 C689 1.377 . S
C689 H673 0.930 . S
C689 C688 1.377 . S
C689 C690 1.379 . S
C690 H674 0.931 . S
C690 C684 1.383 . S
C690 C689 1.379 . S
H691 C685 0.959 . S
H692 C685 0.961 . S
H693 C685 0.960 . S
H694 C686 0.930 . S
H695 C687 0.929 . S
H696 C704 0.929 . S
H697 C706 0.930 . S
H698 C708 0.930 . S
H699 C711 0.929 1_545 S
H700 C714 0.930 . S
H701 C716 0.960 . S
H702 C716 0.960 . S
H703 C716 0.960 . S
C704 H696 0.929 . S
C704 C705 1.377 . S
C704 C706 1.384 . S
C705 C704 1.377 . S
C705 C711 1.390 . S
C706 H697 0.930 . S
C706 C704 1.384 . S
C706 C707 1.372 . S
C707 C706 1.372 . S
C707 C708 1.400 . S
C707 C712 1.490 . S
C708 H698 0.930 . S
C708 C707 1.400 . S
C708 C711 1.386 . S
H709 C725 0.930 . S
H710 C726 0.931 . S
C711 H699 0.929 1_565 S
C711 C705 1.390 . S
C711 C708 1.386 . S
C712 C707 1.490 . S
C712 C714 1.395 . S
C712 C715 1.403 . S
H713 C719 0.930 . S
C714 H700 0.930 . S
C714 C712 1.395 . S
C714 C717 1.403 . S
C715 C712 1.403 . S
C715 C716 1.524 . S
C715 C719 1.400 . S
C716 H701 0.960 . S
C716 H702 0.960 . S
C716 H703 0.960 . S
C716 C715 1.524 . S
C717 C714 1.403 . S
C717 C718 1.392 . S
C717 C721 1.495 . S
C718 C717 1.392 . S
C718 C719 1.385 . S
C718 C720 1.478 . S
C719 H713 0.930 . S
C719 C715 1.400 . S
C719 C718 1.385 . S
C720 C718 1.478 . S
C720 C722 1.381 . S
C720 C726 1.383 . S
C721 C717 1.495 . S
C721 H727 0.959 . S
C721 H728 0.961 . S
C721 H729 0.960 . S
C722 C720 1.381 . S
C722 C723 1.394 . S
C722 H730 0.930 . S
C723 C722 1.394 . S
C723 C724 1.383 . S
C723 H731 0.929 . S
C724 C723 1.383 . S
C724 C725 1.377 . S
C725 H709 0.930 . S
C725 C724 1.377 . S
C725 C726 1.379 . S
C726 H710 0.931 . S
C726 C720 1.383 . S
C726 C725 1.379 . S
H727 C721 0.959 . S
H728 C721 0.961 . S
H729 C721 0.960 . S
H730 C722 0.930 . S
H731 C723 0.929 . S
H732 C740 0.929 . S
H733 C742 0.930 . S
H734 C744 0.930 . S
H735 C747 0.929 . S
H736 C750 0.930 . S
H737 C752 0.960 . S
H738 C752 0.960 . S
H739 C752 0.960 . S
C740 H732 0.929 . S
C740 C741 1.377 . S
C740 C742 1.384 . S
C741 C740 1.377 . S
C741 C747 1.390 . S
C742 H733 0.930 . S
C742 C740 1.384 . S
C742 C743 1.372 . S
C743 C742 1.372 . S
C743 C744 1.400 . S
C743 C748 1.490 . S
C744 H734 0.930 . S
C744 C743 1.400 . S
C744 C747 1.386 . S
H745 C761 0.930 . S
H746 C762 0.931 . S
C747 H735 0.929 . S
C747 C741 1.390 . S
C747 C744 1.386 . S
C748 C743 1.490 . S
C748 C750 1.395 . S
C748 C751 1.403 . S
H749 C755 0.930 . S
C750 H736 0.930 . S
C750 C748 1.395 . S
C750 C753 1.403 . S
C751 C748 1.403 . S
C751 C752 1.524 . S
C751 C755 1.400 . S
C752 H737 0.960 . S
C752 H738 0.960 . S
C752 H739 0.960 . S
C752 C751 1.524 . S
C753 C750 1.403 . S
C753 C754 1.392 . S
C753 C757 1.495 . S
C754 C753 1.392 . S
C754 C755 1.385 . S
C754 C756 1.478 . S
C755 H749 0.930 . S
C755 C751 1.400 . S
C755 C754 1.385 . S
C756 C754 1.478 . S
C756 C758 1.381 . S
C756 C762 1.383 . S
C757 C753 1.495 . S
C757 H763 0.959 . S
C757 H764 0.961 . S
C757 H765 0.960 . S
C758 C756 1.381 . S
C758 C759 1.394 . S
C758 H766 0.930 . S
C759 C758 1.394 . S
C759 C760 1.383 . S
C759 H767 0.929 . S
C760 C759 1.383 . S
C760 C761 1.377 . S
C761 H745 0.930 . S
C761 C760 1.377 . S
C761 C762 1.379 . S
C762 H746 0.931 . S
C762 C756 1.383 . S
C762 C761 1.379 . S
H763 C757 0.959 . S
H764 C757 0.961 . S
H765 C757 0.960 . S
H766 C758 0.930 . S
H767 C759 0.929 . S
H768 C776 0.929 . S
H769 C778 0.930 . S
H770 C780 0.930 . S
H771 C783 0.929 . S
H772 C786 0.930 . S
H773 C788 0.960 . S
H774 C788 0.960 . S
H775 C788 0.960 . S
C776 H768 0.929 . S
C776 C777 1.377 . S
C776 C778 1.384 . S
C777 C776 1.377 . S
C777 C783 1.390 . S
C778 H769 0.930 . S
C778 C776 1.384 . S
C778 C779 1.372 . S
C779 C778 1.372 . S
C779 C780 1.400 . S
C779 C784 1.490 . S
C780 H770 0.930 . S
C780 C779 1.400 . S
C780 C783 1.386 . S
H781 C797 0.930 . S
H782 C798 0.931 . S
C783 H771 0.929 . S
C783 C777 1.390 . S
C783 C780 1.386 . S
C784 C779 1.490 . S
C784 C786 1.395 . S
C784 C787 1.403 . S
H785 C791 0.930 . S
C786 H772 0.930 . S
C786 C784 1.395 . S
C786 C789 1.403 . S
C787 C784 1.403 . S
C787 C788 1.524 . S
C787 C791 1.400 . S
C788 H773 0.960 . S
C788 H774 0.960 . S
C788 H775 0.960 . S
C788 C787 1.524 . S
C789 C786 1.403 . S
C789 C790 1.392 . S
C789 C793 1.495 . S
C790 C789 1.392 . S
C790 C791 1.385 . S
C790 C792 1.478 . S
C791 H785 0.930 . S
C791 C787 1.400 . S
C791 C790 1.385 . S
C792 C790 1.478 . S
C792 C794 1.381 . S
C792 C798 1.383 . S
C793 C789 1.495 . S
C793 H799 0.959 . S
C793 H800 0.961 . S
C793 H801 0.960 . S
C794 C792 1.381 . S
C794 C795 1.394 . S
C794 H802 0.930 . S
C795 C794 1.394 . S
C795 C796 1.383 . S
C795 H803 0.929 . S
C796 C795 1.383 . S
C796 C797 1.377 . S
C797 H781 0.930 . S
C797 C796 1.377 . S
C797 C798 1.379 . S
C798 H782 0.931 . S
C798 C792 1.383 . S
C798 C797 1.379 . S
H799 C793 0.959 . S
H800 C793 0.961 . S
H801 C793 0.960 . S
H802 C794 0.930 . S
H803 C795 0.929 . S
H804 C812 0.970 . S
H805 C814 0.930 . S
H806 C816 0.930 . S
H807 C819 0.929 . S
H808 C822 0.930 . S
H809 C824 0.960 . S
H810 C824 0.960 . S
H811 C824 0.960 . S
C812 H804 0.970 . S
C812 C813 1.377 . S
C812 C814 1.384 . S
C813 C812 1.377 . S
C813 C819 1.390 . S
C814 H805 0.930 . S
C814 C812 1.384 . S
C814 C815 1.372 . S
C815 C814 1.372 . S
C815 C816 1.400 . S
C815 C820 1.490 . S
C816 H806 0.930 . S
C816 C815 1.400 . S
C816 C819 1.386 . S
H817 C833 0.930 . S
H818 C834 0.931 . S
C819 H807 0.929 . S
C819 C813 1.390 . S
C819 C816 1.386 . S
C820 C815 1.490 . S
C820 C822 1.395 . S
C820 C823 1.403 . S
H821 C827 0.930 . S
C822 H808 0.930 . S
C822 C820 1.395 . S
C822 C825 1.403 . S
C823 C820 1.403 . S
C823 C824 1.524 . S
C823 C827 1.400 . S
C824 H809 0.960 . S
C824 H810 0.960 . S
C824 H811 0.960 . S
C824 C823 1.524 . S
C825 C822 1.403 . S
C825 C826 1.392 . S
C825 C829 1.495 . S
C826 C825 1.392 . S
C826 C827 1.385 . S
C826 C828 1.478 . S
C827 H821 0.930 . S
C827 C823 1.400 . S
C827 C826 1.385 . S
C828 C826 1.478 . S
C828 C830 1.381 . S
C828 C834 1.383 . S
C829 C825 1.495 . S
C829 H835 0.959 . S
C829 H836 0.961 . S
C829 H837 0.960 . S
C830 C828 1.381 . S
C830 C831 1.394 . S
C830 H838 0.930 . S
C831 C830 1.394 . S
C831 C832 1.383 . S
C831 H839 0.929 . S
C832 C831 1.383 . S
C832 C833 1.377 . S
C833 H817 0.930 . S
C833 C832 1.377 . S
C833 C834 1.379 . S
C834 H818 0.931 . S
C834 C828 1.383 . S
C834 C833 1.379 . S
H835 C829 0.959 . S
H836 C829 0.961 . S
H837 C829 0.960 . S
H838 C830 0.930 . S
H839 C831 0.929 . S
H840 C848 0.929 . S
H841 C850 0.930 . S
H842 C852 0.930 . S
H843 C855 0.929 . S
H844 C858 0.930 . S
H845 C860 0.960 . S
H846 C860 0.960 . S
H847 C860 0.960 . S
C848 H840 0.929 . S
C848 C849 1.377 . S
C848 C850 1.384 . S
C849 C848 1.377 . S
C849 C855 1.390 . S
C850 H841 0.930 . S
C850 C848 1.384 . S
C850 C851 1.372 . S
C851 C850 1.372 . S
C851 C852 1.400 . S
C851 C856 1.490 . S
C852 H842 0.930 . S
C852 C851 1.400 . S
C852 C855 1.386 . S
H853 C869 0.930 . S
H854 C870 0.931 . S
C855 H843 0.929 . S
C855 C849 1.390 . S
C855 C852 1.386 . S
C856 C851 1.490 . S
C856 C858 1.395 . S
C856 C859 1.403 . S
H857 C863 0.930 . S
C858 H844 0.930 . S
C858 C856 1.395 . S
C858 C861 1.403 . S
C859 C856 1.403 . S
C859 C860 1.524 . S
C859 C863 1.400 . S
C860 H845 0.960 . S
C860 H846 0.960 . S
C860 H847 0.960 . S
C860 C859 1.524 . S
C861 C858 1.403 . S
C861 C862 1.392 . S
C861 C865 1.495 . S
C862 C861 1.392 . S
C862 C863 1.385 . S
C862 C864 1.478 . S
C863 H857 0.930 . S
C863 C859 1.400 . S
C863 C862 1.385 . S
C864 C862 1.478 . S
C864 C866 1.381 . S
C864 C870 1.383 . S
C865 C861 1.495 . S
C865 H871 0.959 . S
C865 H872 0.961 . S
C865 H873 0.960 . S
C866 C864 1.381 . S
C866 C867 1.394 . S
C866 H874 0.930 . S
C867 C866 1.394 . S
C867 C868 1.383 . S
C867 H875 0.929 . S
C868 C867 1.383 . S
C868 C869 1.377 . S
C869 H853 0.930 . S
C869 C868 1.377 . S
C869 C870 1.379 . S
C870 H854 0.931 . S
C870 C864 1.383 . S
C870 C869 1.379 . S
H871 C865 0.959 . S
H872 C865 0.961 . S
H873 C865 0.960 . S
H874 C866 0.930 . S
H875 C867 0.929 . S
H876 C884 0.929 . S
H877 C886 0.930 . S
H878 C888 0.930 . S
H879 C891 0.929 1_455 S
H880 C894 0.930 . S
H881 C896 0.960 . S
H882 C896 0.960 . S
H883 C896 0.960 . S
C884 H876 0.929 . S
C884 C885 1.377 . S
C884 C886 1.384 . S
C885 C884 1.377 . S
C885 C891 1.390 . S
C886 H877 0.930 . S
C886 C884 1.384 . S
C886 C887 1.372 . S
C887 C886 1.372 . S
C887 C888 1.400 . S
C887 C892 1.490 . S
C888 H878 0.930 . S
C888 C887 1.400 . S
C888 C891 1.386 . S
H889 C905 0.930 . S
H890 C906 0.931 . S
C891 H879 0.929 1_655 S
C891 C885 1.390 . S
C891 C888 1.386 . S
C892 C887 1.490 . S
C892 C894 1.395 . S
C892 C895 1.403 . S
H893 C899 0.930 . S
C894 H880 0.930 . S
C894 C892 1.395 . S
C894 C897 1.403 . S
C895 C892 1.403 . S
C895 C896 1.524 . S
C895 C899 1.400 . S
C896 H881 0.960 . S
C896 H882 0.960 . S
C896 H883 0.960 . S
C896 C895 1.524 . S
C897 C894 1.403 . S
C897 C898 1.392 . S
C897 C901 1.495 . S
C898 C897 1.392 . S
C898 C899 1.385 . S
C898 C900 1.478 . S
C899 H893 0.930 . S
C899 C895 1.400 . S
C899 C898 1.385 . S
C900 C898 1.478 . S
C900 C902 1.381 . S
C900 C906 1.383 . S
C901 C897 1.495 . S
C901 H907 0.959 . S
C901 H908 0.961 . S
C901 H909 0.960 . S
C902 C900 1.381 . S
C902 C903 1.394 . S
C902 H910 0.930 . S
C903 C902 1.394 . S
C903 C904 1.383 . S
C903 H911 0.929 . S
C904 C903 1.383 . S
C904 C905 1.377 . S
C905 H889 0.930 . S
C905 C904 1.377 . S
C905 C906 1.379 . S
C906 H890 0.931 . S
C906 C900 1.383 . S
C906 C905 1.379 . S
H907 C901 0.959 . S
H908 C901 0.961 . S
H909 C901 0.960 . S
H910 C902 0.930 . S
H911 C903 0.929 . S
H912 C920 0.929 . S
H913 C922 0.930 . S
H914 C924 0.930 . S
H915 C927 0.929 . S
H916 C930 0.930 . S
H917 C932 0.960 . S
H918 C932 0.960 . S
H919 C932 0.960 . S
C920 H912 0.929 . S
C920 C921 1.377 . S
C920 C922 1.384 . S
C921 C920 1.377 . S
C921 C927 1.390 . S
C922 H913 0.930 . S
C922 C920 1.384 . S
C922 C923 1.372 . S
C923 C922 1.372 . S
C923 C924 1.400 . S
C923 C928 1.490 . S
C924 H914 0.930 . S
C924 C923 1.400 . S
C924 C927 1.386 . S
H925 C941 0.930 . S
H926 C942 0.931 . S
C927 H915 0.929 . S
C927 C921 1.390 . S
C927 C924 1.386 . S
C928 C923 1.490 . S
C928 C930 1.395 . S
C928 C931 1.403 . S
H929 C935 0.930 . S
C930 H916 0.930 . S
C930 C928 1.395 . S
C930 C933 1.403 . S
C931 C928 1.403 . S
C931 C932 1.524 . S
C931 C935 1.400 . S
C932 H917 0.960 . S
C932 H918 0.960 . S
C932 H919 0.960 . S
C932 C931 1.524 . S
C933 C930 1.403 . S
C933 C934 1.392 . S
C933 C937 1.495 . S
C934 C933 1.392 . S
C934 C935 1.385 . S
C934 C936 1.478 . S
C935 H929 0.930 . S
C935 C931 1.400 . S
C935 C934 1.385 . S
C936 C934 1.478 . S
C936 C938 1.381 . S
C936 C942 1.383 . S
C937 C933 1.495 . S
C937 H943 0.959 . S
C937 H944 0.961 . S
C937 H945 0.960 . S
C938 C936 1.381 . S
C938 C939 1.394 . S
C938 H946 0.930 . S
C939 C938 1.394 . S
C939 C940 1.383 . S
C939 H947 0.929 . S
C940 C939 1.383 . S
C940 C941 1.377 . S
C941 H925 0.930 . S
C941 C940 1.377 . S
C941 C942 1.379 . S
C942 H926 0.931 . S
C942 C936 1.383 . S
C942 C941 1.379 . S
H943 C937 0.959 . S
H944 C937 0.961 . S
H945 C937 0.960 . S
H946 C938 0.930 . S
H947 C939 0.929 . S
H948 C956 0.929 . S
H949 C958 0.930 . S
H950 C960 0.930 . S
H951 C963 0.929 . S
H952 C966 0.930 . S
H953 C968 0.960 . S
H954 C968 0.960 . S
H955 C968 0.960 . S
C956 H948 0.929 . S
C956 C957 1.377 . S
C956 C958 1.384 . S
C957 C956 1.377 . S
C957 C963 1.390 . S
C958 H949 0.930 . S
C958 C956 1.384 . S
C958 C959 1.372 . S
C959 C958 1.372 . S
C959 C960 1.400 . S
C959 C964 1.490 . S
C960 H950 0.930 . S
C960 C959 1.400 . S
C960 C963 1.386 . S
H961 C977 0.930 . S
H962 C978 0.931 . S
C963 H951 0.929 . S
C963 C957 1.390 . S
C963 C960 1.386 . S
C964 C959 1.490 . S
C964 C966 1.395 . S
C964 C967 1.403 . S
H965 C971 0.930 . S
C966 H952 0.930 . S
C966 C964 1.395 . S
C966 C969 1.403 . S
C967 C964 1.403 . S
C967 C968 1.524 . S
C967 C971 1.400 . S
C968 H953 0.960 . S
C968 H954 0.960 . S
C968 H955 0.960 . S
C968 C967 1.524 . S
C969 C966 1.403 . S
C969 C970 1.392 . S
C969 C973 1.495 . S
C970 C969 1.392 . S
C970 C971 1.385 . S
C970 C972 1.478 . S
C971 H965 0.930 . S
C971 C967 1.400 . S
C971 C970 1.385 . S
C972 C970 1.478 . S
C972 C974 1.381 . S
C972 C978 1.383 . S
C973 C969 1.495 . S
C973 H979 0.959 . S
C973 H980 0.961 . S
C973 H981 0.960 . S
C974 C972 1.381 . S
C974 C975 1.394 . S
C974 H982 0.930 . S
C975 C974 1.394 . S
C975 C976 1.383 . S
C975 H983 0.929 . S
C976 C975 1.383 . S
C976 C977 1.377 . S
C977 H961 0.930 . S
C977 C976 1.377 . S
C977 C978 1.379 . S
C978 H962 0.931 . S
C978 C972 1.383 . S
C978 C977 1.379 . S
H979 C973 0.959 . S
H980 C973 0.961 . S
H981 C973 0.960 . S
H982 C974 0.930 . S
H983 C975 0.929 . S
H984 C992 0.929 . S
H985 C994 0.930 . S
H986 C996 0.930 . S
H987 C999 0.929 . S
H988 C1002 0.930 . S
H989 C1004 0.960 . S
H990 C1004 0.960 . S
H991 C1004 0.960 . S
C992 H984 0.929 . S
C992 C993 1.377 . S
C992 C994 1.384 . S
C993 C992 1.377 . S
C993 C999 1.390 . S
C994 H985 0.930 . S
C994 C992 1.384 . S
C994 C995 1.372 . S
C995 C994 1.372 . S
C995 C996 1.400 . S
C995 C1000 1.490 . S
C996 H986 0.930 . S
C996 C995 1.400 . S
C996 C999 1.386 . S
H997 C1013 0.930 . S
H998 C1014 0.931 . S
C999 H987 0.929 . S
C999 C993 1.390 . S
C999 C996 1.386 . S
C1000 C995 1.490 . S
C1000 C1002 1.395 . S
C1000 C1003 1.403 . S
H1001 C1007 0.930 . S
C1002 H988 0.930 . S
C1002 C1000 1.395 . S
C1002 C1005 1.403 . S
C1003 C1000 1.403 . S
C1003 C1004 1.524 . S
C1003 C1007 1.400 . S
C1004 H989 0.960 . S
C1004 H990 0.960 . S
C1004 H991 0.960 . S
C1004 C1003 1.524 . S
C1005 C1002 1.403 . S
C1005 C1006 1.392 . S
C1005 C1009 1.495 . S
C1006 C1005 1.392 . S
C1006 C1007 1.385 . S
C1006 C1008 1.478 . S
C1007 H1001 0.930 . S
C1007 C1003 1.400 . S
C1007 C1006 1.385 . S
C1008 C1006 1.478 . S
C1008 C1010 1.381 . S
C1008 C1014 1.383 . S
C1009 C1005 1.495 . S
C1009 H1015 0.959 . S
C1009 H1016 0.961 . S
C1009 H1017 0.960 . S
C1010 C1008 1.381 . S
C1010 C1011 1.394 . S
C1010 H1018 0.930 . S
C1011 C1010 1.394 . S
C1011 C1012 1.383 . S
C1011 H1019 0.929 . S
C1012 C1011 1.383 . S
C1012 C1013 1.377 . S
C1013 H997 0.930 . S
C1013 C1012 1.377 . S
C1013 C1014 1.379 . S
C1014 H998 0.931 . S
C1014 C1008 1.383 . S
C1014 C1013 1.379 . S
H1015 C1009 0.959 . S
H1016 C1009 0.961 . S
H1017 C1009 0.960 . S
H1018 C1010 0.930 . S
H1019 C1011 0.929 . S
H1020 C1028 0.929 . S
H1021 C1030 0.930 . S
H1022 C1032 0.930 . S
H1023 C1035 0.929 . S
H1024 C1038 0.930 . S
H1025 C1040 0.960 . S
H1026 C1040 0.960 . S
H1027 C1040 0.960 . S
C1028 H1020 0.929 . S
C1028 C1029 1.377 . S
C1028 C1030 1.384 . S
C1029 C1028 1.377 . S
C1029 C1035 1.390 . S
C1030 H1021 0.930 . S
C1030 C1028 1.384 . S
C1030 C1031 1.372 . S
C1031 C1030 1.372 . S
C1031 C1032 1.400 . S
C1031 C1036 1.490 . S
C1032 H1022 0.930 . S
C1032 C1031 1.400 . S
C1032 C1035 1.386 . S
H1033 C1049 0.930 . S
H1034 C1050 0.931 . S
C1035 H1023 0.929 . S
C1035 C1029 1.390 . S
C1035 C1032 1.386 . S
C1036 C1031 1.490 . S
C1036 C1038 1.395 . S
C1036 C1039 1.403 . S
H1037 C1043 0.930 . S
C1038 H1024 0.930 . S
C1038 C1036 1.395 . S
C1038 C1041 1.403 . S
C1039 C1036 1.403 . S
C1039 C1040 1.524 . S
C1039 C1043 1.400 . S
C1040 H1025 0.960 . S
C1040 H1026 0.960 . S
C1040 H1027 0.960 . S
C1040 C1039 1.524 . S
C1041 C1038 1.403 . S
C1041 C1042 1.392 . S
C1041 C1045 1.495 . S
C1042 C1041 1.392 . S
C1042 C1043 1.385 . S
C1042 C1044 1.478 . S
C1043 H1037 0.930 . S
C1043 C1039 1.400 . S
C1043 C1042 1.385 . S
C1044 C1042 1.478 . S
C1044 C1046 1.381 . S
C1044 C1050 1.383 . S
C1045 C1041 1.495 . S
C1045 H1051 0.959 . S
C1045 H1052 0.961 . S
C1045 H1053 0.960 . S
C1046 C1044 1.381 . S
C1046 C1047 1.394 . S
C1046 H1054 0.930 . S
C1047 C1046 1.394 . S
C1047 C1048 1.383 . S
C1047 H1055 0.929 . S
C1048 C1047 1.383 . S
C1048 C1049 1.377 . S
C1049 H1033 0.930 . S
C1049 C1048 1.377 . S
C1049 C1050 1.379 . S
C1050 H1034 0.931 . S
C1050 C1044 1.383 . S
C1050 C1049 1.379 . S
H1051 C1045 0.959 . S
H1052 C1045 0.961 . S
H1053 C1045 0.960 . S
H1054 C1046 0.930 . S
H1055 C1047 0.929 . S
H1056 C1064 0.929 . S
H1057 C1066 0.930 . S
H1058 C1068 0.930 . S
H1059 C1071 0.929 . S
H1060 C1074 0.930 . S
H1061 C1076 0.960 . S
H1062 C1076 0.960 . S
H1063 C1076 0.960 . S
C1064 H1056 0.929 . S
C1064 C1065 1.377 . S
C1064 C1066 1.384 . S
C1065 C1064 1.377 . S
C1065 C1071 1.390 . S
C1066 H1057 0.930 . S
C1066 C1064 1.384 . S
C1066 C1067 1.372 . S
C1067 C1066 1.372 . S
C1067 C1068 1.400 . S
C1067 C1072 1.490 . S
C1068 H1058 0.930 . S
C1068 C1067 1.400 . S
C1068 C1071 1.386 . S
H1069 C1085 0.930 . S
H1070 C1086 0.931 . S
C1071 H1059 0.929 . S
C1071 C1065 1.390 . S
C1071 C1068 1.386 . S
C1072 C1067 1.490 . S
C1072 C1074 1.395 . S
C1072 C1075 1.403 . S
H1073 C1079 0.930 . S
C1074 H1060 0.930 . S
C1074 C1072 1.395 . S
C1074 C1077 1.403 . S
C1075 C1072 1.403 . S
C1075 C1076 1.524 . S
C1075 C1079 1.400 . S
C1076 H1061 0.960 . S
C1076 H1062 0.960 . S
C1076 H1063 0.960 . S
C1076 C1075 1.524 . S
C1077 C1074 1.403 . S
C1077 C1078 1.392 . S
C1077 C1081 1.495 . S
C1078 C1077 1.392 . S
C1078 C1079 1.385 . S
C1078 C1080 1.478 . S
C1079 H1073 0.930 . S
C1079 C1075 1.400 . S
C1079 C1078 1.385 . S
C1080 C1078 1.478 . S
C1080 C1082 1.381 . S
C1080 C1086 1.383 . S
C1081 C1077 1.495 . S
C1081 H1087 0.959 . S
C1081 H1088 0.961 . S
C1081 H1089 0.960 . S
C1082 C1080 1.381 . S
C1082 C1083 1.394 . S
C1082 H1090 0.930 . S
C1083 C1082 1.394 . S
C1083 C1084 1.383 . S
C1083 H1091 0.929 . S
C1084 C1083 1.383 . S
C1084 C1085 1.377 . S
C1085 H1069 0.930 . S
C1085 C1084 1.377 . S
C1085 C1086 1.379 . S
C1086 H1070 0.931 . S
C1086 C1080 1.383 . S
C1086 C1085 1.379 . S
H1087 C1081 0.959 . S
H1088 C1081 0.961 . S
H1089 C1081 0.960 . S
H1090 C1082 0.930 . S
H1091 C1083 0.929 . S
H1092 C1100 0.929 . S
H1093 C1102 0.930 . S
H1094 C1104 0.930 . S
H1095 C1107 0.929 . S
H1096 C1110 0.930 . S
H1097 C1112 0.960 . S
H1098 C1112 0.960 . S
H1099 C1112 0.960 . S
C1100 H1092 0.929 . S
C1100 C1101 1.377 . S
C1100 C1102 1.384 . S
C1101 C1100 1.377 . S
C1101 C1107 1.390 . S
C1102 H1093 0.930 . S
C1102 C1100 1.384 . S
C1102 C1103 1.372 . S
C1103 C1102 1.372 . S
C1103 C1104 1.400 . S
C1103 C1108 1.490 . S
C1104 H1094 0.930 . S
C1104 C1103 1.400 . S
C1104 C1107 1.386 . S
H1105 C1121 0.930 . S
H1106 C1122 0.931 . S
C1107 H1095 0.929 . S
C1107 C1101 1.390 . S
C1107 C1104 1.386 . S
C1108 C1103 1.490 . S
C1108 C1110 1.395 . S
C1108 C1111 1.403 . S
H1109 C1115 0.930 . S
C1110 H1096 0.930 . S
C1110 C1108 1.395 . S
C1110 C1113 1.403 . S
C1111 C1108 1.403 . S
C1111 C1112 1.524 . S
C1111 C1115 1.400 . S
C1112 H1097 0.960 . S
C1112 H1098 0.960 . S
C1112 H1099 0.960 . S
C1112 C1111 1.524 . S
C1113 C1110 1.403 . S
C1113 C1114 1.392 . S
C1113 C1117 1.495 . S
C1114 C1113 1.392 . S
C1114 C1115 1.385 . S
C1114 C1116 1.478 . S
C1115 H1109 0.930 . S
C1115 C1111 1.400 . S
C1115 C1114 1.385 . S
C1116 C1114 1.478 . S
C1116 C1118 1.381 . S
C1116 C1122 1.383 . S
C1117 C1113 1.495 . S
C1117 H1123 0.959 . S
C1117 H1124 0.961 . S
C1117 H1125 0.960 . S
C1118 C1116 1.381 . S
C1118 C1119 1.394 . S
C1118 H1126 0.930 . S
C1119 C1118 1.394 . S
C1119 C1120 1.383 . S
C1119 H1127 0.929 . S
C1120 C1119 1.383 . S
C1120 C1121 1.377 . S
C1121 H1105 0.930 . S
C1121 C1120 1.377 . S
C1121 C1122 1.379 . S
C1122 H1106 0.931 . S
C1122 C1116 1.383 . S
C1122 C1121 1.379 . S
H1123 C1117 0.959 . S
H1124 C1117 0.961 . S
H1125 C1117 0.960 . S
H1126 C1118 0.930 . S
H1127 C1119 0.929 . S
H1128 C1136 0.929 . S
H1129 C1138 0.930 . S
H1130 C1140 0.930 . S
H1131 C1143 0.929 . S
H1132 C1146 0.930 . S
H1133 C1148 0.960 . S
H1134 C1148 0.960 . S
H1135 C1148 0.960 . S
C1136 H1128 0.929 . S
C1136 C1137 1.377 . S
C1136 C1138 1.384 . S
C1137 C1136 1.377 . S
C1137 C1143 1.390 . S
C1138 H1129 0.930 . S
C1138 C1136 1.384 . S
C1138 C1139 1.372 . S
C1139 C1138 1.372 . S
C1139 C1140 1.400 . S
C1139 C1144 1.490 . S
C1140 H1130 0.930 . S
C1140 C1139 1.400 . S
C1140 C1143 1.386 . S
H1141 C1157 0.930 . S
H1142 C1158 0.931 . S
C1143 H1131 0.929 . S
C1143 C1137 1.390 . S
C1143 C1140 1.386 . S
C1144 C1139 1.490 . S
C1144 C1146 1.395 . S
C1144 C1147 1.403 . S
H1145 C1151 0.930 . S
C1146 H1132 0.930 . S
C1146 C1144 1.395 . S
C1146 C1149 1.403 . S
C1147 C1144 1.403 . S
C1147 C1148 1.524 . S
C1147 C1151 1.400 . S
C1148 H1133 0.960 . S
C1148 H1134 0.960 . S
C1148 H1135 0.960 . S
C1148 C1147 1.524 . S
C1149 C1146 1.403 . S
C1149 C1150 1.392 . S
C1149 C1153 1.495 . S
C1150 C1149 1.392 . S
C1150 C1151 1.385 . S
C1150 C1152 1.478 . S
C1151 H1145 0.930 . S
C1151 C1147 1.400 . S
C1151 C1150 1.385 . S
C1152 C1150 1.478 . S
C1152 C1154 1.381 . S
C1152 C1158 1.383 . S
C1153 C1149 1.495 . S
C1153 H1159 0.959 . S
C1153 H1160 0.961 . S
C1153 H1161 0.960 . S
C1154 C1152 1.381 . S
C1154 C1155 1.394 . S
C1154 H1162 0.930 . S
C1155 C1154 1.394 . S
C1155 C1156 1.383 . S
C1155 H1163 0.929 . S
C1156 C1155 1.383 . S
C1156 C1157 1.377 . S
C1157 H1141 0.930 . S
C1157 C1156 1.377 . S
C1157 C1158 1.379 . S
C1158 H1142 0.931 . S
C1158 C1152 1.383 . S
C1158 C1157 1.379 . S
H1159 C1153 0.959 . S
H1160 C1153 0.961 . S
H1161 C1153 0.960 . S
H1162 C1154 0.930 . S
H1163 C1155 0.929 . S
H1164 C1172 0.929 . S
H1165 C1174 0.930 . S
H1166 C1176 0.930 . S
H1167 C1179 0.929 . S
H1168 C1182 0.930 . S
H1169 C1184 0.960 . S
H1170 C1184 0.960 . S
H1171 C1184 0.960 . S
C1172 H1164 0.929 . S
C1172 C1173 1.377 . S
C1172 C1174 1.384 . S
C1173 C1172 1.377 . S
C1173 C1179 1.390 . S
C1174 H1165 0.930 . S
C1174 C1172 1.384 . S
C1174 C1175 1.372 . S
C1175 C1174 1.372 . S
C1175 C1176 1.400 . S
C1175 C1180 1.490 . S
C1176 H1166 0.930 . S
C1176 C1175 1.400 . S
C1176 C1179 1.386 . S
H1177 C1193 0.930 . S
H1178 C1194 0.931 . S
C1179 H1167 0.929 . S
C1179 C1173 1.390 . S
C1179 C1176 1.386 . S
C1180 C1175 1.490 . S
C1180 C1182 1.395 . S
C1180 C1183 1.403 . S
H1181 C1187 0.930 . S
C1182 H1168 0.930 . S
C1182 C1180 1.395 . S
C1182 C1185 1.403 . S
C1183 C1180 1.403 . S
C1183 C1184 1.524 . S
C1183 C1187 1.400 . S
C1184 H1169 0.960 . S
C1184 H1170 0.960 . S
C1184 H1171 0.960 . S
C1184 C1183 1.524 . S
C1185 C1182 1.403 . S
C1185 C1186 1.392 . S
C1185 C1189 1.495 . S
C1186 C1185 1.392 . S
C1186 C1187 1.385 . S
C1186 C1188 1.478 . S
C1187 H1181 0.930 . S
C1187 C1183 1.400 . S
C1187 C1186 1.385 . S
C1188 C1186 1.478 . S
C1188 C1190 1.381 . S
C1188 C1194 1.383 . S
C1189 C1185 1.495 . S
C1189 H1195 0.959 . S
C1189 H1196 0.961 . S
C1189 H1197 0.960 . S
C1190 C1188 1.381 . S
C1190 C1191 1.394 . S
C1190 H1198 0.930 . S
C1191 C1190 1.394 . S
C1191 C1192 1.383 . S
C1191 H1199 0.929 . S
C1192 C1191 1.383 . S
C1192 C1193 1.377 . S
C1193 H1177 0.930 . S
C1193 C1192 1.377 . S
C1193 C1194 1.379 . S
C1194 H1178 0.931 . S
C1194 C1188 1.383 . S
C1194 C1193 1.379 . S
H1195 C1189 0.959 . S
H1196 C1189 0.961 . S
H1197 C1189 0.960 . S
H1198 C1190 0.930 . S
H1199 C1191 0.929 . S
H1200 C1208 0.929 . S
H1201 C1210 0.930 . S
H1202 C1212 0.930 . S
H1203 C1215 0.929 . S
H1204 C1218 0.930 . S
H1205 C1220 0.960 . S
H1206 C1220 0.960 . S
H1207 C1220 0.960 . S
C1208 H1200 0.929 . S
C1208 C1209 1.377 . S
C1208 C1210 1.384 . S
C1209 C1208 1.377 . S
C1209 C1215 1.390 . S
C1210 H1201 0.930 . S
C1210 C1208 1.384 . S
C1210 C1211 1.372 . S
C1211 C1210 1.372 . S
C1211 C1212 1.400 . S
C1211 C1216 1.490 . S
C1212 H1202 0.930 . S
C1212 C1211 1.400 . S
C1212 C1215 1.386 . S
H1213 C1229 0.930 . S
H1214 C1230 0.931 . S
C1215 H1203 0.929 . S
C1215 C1209 1.390 . S
C1215 C1212 1.386 . S
C1216 C1211 1.490 . S
C1216 C1218 1.395 . S
C1216 C1219 1.403 . S
H1217 C1223 0.930 . S
C1218 H1204 0.930 . S
C1218 C1216 1.395 . S
C1218 C1221 1.403 . S
C1219 C1216 1.403 . S
C1219 C1220 1.524 . S
C1219 C1223 1.400 . S
C1220 H1205 0.960 . S
C1220 H1206 0.960 . S
C1220 H1207 0.960 . S
C1220 C1219 1.524 . S
C1221 C1218 1.403 . S
C1221 C1222 1.392 . S
C1221 C1225 1.495 . S
C1222 C1221 1.392 . S
C1222 C1223 1.385 . S
C1222 C1224 1.478 . S
C1223 H1217 0.930 . S
C1223 C1219 1.400 . S
C1223 C1222 1.385 . S
C1224 C1222 1.478 . S
C1224 C1226 1.381 . S
C1224 C1230 1.383 . S
C1225 C1221 1.495 . S
C1225 H1231 0.959 . S
C1225 H1232 0.961 . S
C1225 H1233 0.960 . S
C1226 C1224 1.381 . S
C1226 C1227 1.394 . S
C1226 H1234 0.930 . S
C1227 C1226 1.394 . S
C1227 C1228 1.383 . S
C1227 H1235 0.929 . S
C1228 C1227 1.383 . S
C1228 C1229 1.377 . S
C1229 H1213 0.930 . S
C1229 C1228 1.377 . S
C1229 C1230 1.379 . S
C1230 H1214 0.931 . S
C1230 C1224 1.383 . S
C1230 C1229 1.379 . S
H1231 C1225 0.959 . S
H1232 C1225 0.961 . S
H1233 C1225 0.960 . S
H1234 C1226 0.930 . S
H1235 C1227 0.929 . S
H1236 C1244 0.929 . S
H1237 C1246 0.930 . S
H1238 C1248 0.930 . S
H1239 C1251 0.929 . S
H1240 C1254 0.930 . S
H1241 C1256 0.960 . S
H1242 C1256 0.960 . S
H1243 C1256 0.960 . S
C1244 H1236 0.929 . S
C1244 C1245 1.377 . S
C1244 C1246 1.384 . S
C1245 C1244 1.377 . S
C1245 C1251 1.390 . S
C1246 H1237 0.930 . S
C1246 C1244 1.384 . S
C1246 C1247 1.372 . S
C1247 C1246 1.372 . S
C1247 C1248 1.400 . S
C1247 C1252 1.490 . S
C1248 H1238 0.930 . S
C1248 C1247 1.400 . S
C1248 C1251 1.386 . S
H1249 C1265 0.930 . S
H1250 C1266 0.931 . S
C1251 H1239 0.929 . S
C1251 C1245 1.390 . S
C1251 C1248 1.386 . S
C1252 C1247 1.490 . S
C1252 C1254 1.395 . S
C1252 C1255 1.403 . S
H1253 C1259 0.930 . S
C1254 H1240 0.930 . S
C1254 C1252 1.395 . S
C1254 C1257 1.403 . S
C1255 C1252 1.403 . S
C1255 C1256 1.524 . S
C1255 C1259 1.400 . S
C1256 H1241 0.960 . S
C1256 H1242 0.960 . S
C1256 H1243 0.960 . S
C1256 C1255 1.524 . S
C1257 C1254 1.403 . S
C1257 C1258 1.392 . S
C1257 C1261 1.495 . S
C1258 C1257 1.392 . S
C1258 C1259 1.385 . S
C1258 C1260 1.478 . S
C1259 H1253 0.930 . S
C1259 C1255 1.400 . S
C1259 C1258 1.385 . S
C1260 C1258 1.478 . S
C1260 C1262 1.381 . S
C1260 C1266 1.383 . S
C1261 C1257 1.495 . S
C1261 H1267 0.959 . S
C1261 H1268 0.961 . S
C1261 H1269 0.960 . S
C1262 C1260 1.381 . S
C1262 C1263 1.394 . S
C1262 H1270 0.930 . S
C1263 C1262 1.394 . S
C1263 C1264 1.383 . S
C1263 H1271 0.929 . S
C1264 C1263 1.383 . S
C1264 C1265 1.377 . S
C1265 H1249 0.930 . S
C1265 C1264 1.377 . S
C1265 C1266 1.379 . S
C1266 H1250 0.931 . S
C1266 C1260 1.383 . S
C1266 C1265 1.379 . S
H1267 C1261 0.959 . S
H1268 C1261 0.961 . S
H1269 C1261 0.960 . S
H1270 C1262 0.930 . S
H1271 C1263 0.929 . S
H1272 C1280 0.929 . S
H1273 C1282 0.930 . S
H1274 C1284 0.930 . S
H1275 C1287 0.929 . S
H1276 C1290 0.930 . S
H1277 C1292 0.960 . S
H1278 C1292 0.960 . S
H1279 C1292 0.960 . S
C1280 H1272 0.929 . S
C1280 C1281 1.377 . S
C1280 C1282 1.384 . S
C1281 C1280 1.377 . S
C1281 C1287 1.390 . S
C1282 H1273 0.930 . S
C1282 C1280 1.384 . S
C1282 C1283 1.372 . S
C1283 C1282 1.372 . S
C1283 C1284 1.400 . S
C1283 C1288 1.490 . S
C1284 H1274 0.930 . S
C1284 C1283 1.400 . S
C1284 C1287 1.386 . S
H1285 C1301 0.930 . S
H1286 C1302 0.931 . S
C1287 H1275 0.929 . S
C1287 C1281 1.390 . S
C1287 C1284 1.386 . S
C1288 C1283 1.490 . S
C1288 C1290 1.395 . S
C1288 C1291 1.403 . S
H1289 C1295 0.930 . S
C1290 H1276 0.930 . S
C1290 C1288 1.395 . S
C1290 C1293 1.403 . S
C1291 C1288 1.403 . S
C1291 C1292 1.524 . S
C1291 C1295 1.400 . S
C1292 H1277 0.960 . S
C1292 H1278 0.960 . S
C1292 H1279 0.960 . S
C1292 C1291 1.524 . S
C1293 C1290 1.403 . S
C1293 C1294 1.392 . S
C1293 C1297 1.495 . S
C1294 C1293 1.392 . S
C1294 C1295 1.385 . S
C1294 C1296 1.478 . S
C1295 H1289 0.930 . S
C1295 C1291 1.400 . S
C1295 C1294 1.385 . S
C1296 C1294 1.478 . S
C1296 C1298 1.381 . S
C1296 C1302 1.383 . S
C1297 C1293 1.495 . S
C1297 H1303 0.959 . S
C1297 H1304 0.961 . S
C1297 H1305 0.960 . S
C1298 C1296 1.381 . S
C1298 C1299 1.394 . S
C1298 H1306 0.930 . S
C1299 C1298 1.394 . S
C1299 C1300 1.383 . S
C1299 H1307 0.929 . S
C1300 C1299 1.383 . S
C1300 C1301 1.377 . S
C1301 H1285 0.930 . S
C1301 C1300 1.377 . S
C1301 C1302 1.379 . S
C1302 H1286 0.931 . S
C1302 C1296 1.383 . S
C1302 C1301 1.379 . S
H1303 C1297 0.959 . S
H1304 C1297 0.961 . S
H1305 C1297 0.960 . S
H1306 C1298 0.930 . S
H1307 C1299 0.929 . S
H1308 C1316 0.929 . S
H1309 C1318 0.930 . S
H1310 C1320 0.930 . S
H1311 C1323 0.929 . S
H1312 C1326 0.930 . S
H1313 C1328 0.960 . S
H1314 C1328 0.960 . S
H1315 C1328 0.960 . S
C1316 H1308 0.929 . S
C1316 C1317 1.377 . S
C1316 C1318 1.384 . S
C1317 C1316 1.377 . S
C1317 C1323 1.390 . S
C1318 H1309 0.930 . S
C1318 C1316 1.384 . S
C1318 C1319 1.372 . S
C1319 C1318 1.372 . S
C1319 C1320 1.400 . S
C1319 C1324 1.490 . S
C1320 H1310 0.930 . S
C1320 C1319 1.400 . S
C1320 C1323 1.386 . S
H1321 C1337 0.930 . S
H1322 C1338 0.931 . S
C1323 H1311 0.929 . S
C1323 C1317 1.390 . S
C1323 C1320 1.386 . S
C1324 C1319 1.490 . S
C1324 C1326 1.395 . S
C1324 C1327 1.403 . S
H1325 C1331 0.930 . S
C1326 H1312 0.930 . S
C1326 C1324 1.395 . S
C1326 C1329 1.403 . S
C1327 C1324 1.403 . S
C1327 C1328 1.524 . S
C1327 C1331 1.400 . S
C1328 H1313 0.960 . S
C1328 H1314 0.960 . S
C1328 H1315 0.960 . S
C1328 C1327 1.524 . S
C1329 C1326 1.403 . S
C1329 C1330 1.392 . S
C1329 C1333 1.495 . S
C1330 C1329 1.392 . S
C1330 C1331 1.385 . S
C1330 C1332 1.478 . S
C1331 H1325 0.930 . S
C1331 C1327 1.400 . S
C1331 C1330 1.385 . S
C1332 C1330 1.478 . S
C1332 C1334 1.381 . S
C1332 C1338 1.383 . S
C1333 C1329 1.495 . S
C1333 H1339 0.959 . S
C1333 H1340 0.961 . S
C1333 H1341 0.960 . S
C1334 C1332 1.381 . S
C1334 C1335 1.394 . S
C1334 H1342 0.930 . S
C1335 C1334 1.394 . S
C1335 C1336 1.383 . S
C1335 H1343 0.929 . S
C1336 C1335 1.383 . S
C1336 C1337 1.377 . S
C1337 H1321 0.930 . S
C1337 C1336 1.377 . S
C1337 C1338 1.379 . S
C1338 H1322 0.931 . S
C1338 C1332 1.383 . S
C1338 C1337 1.379 . S
H1339 C1333 0.959 . S
H1340 C1333 0.961 . S
H1341 C1333 0.960 . S
H1342 C1334 0.930 . S
H1343 C1335 0.929 . S
H1344 C1352 0.929 . S
H1345 C1354 0.930 . S
H1346 C1356 0.930 . S
H1347 C1359 0.929 . S
H1348 C1362 0.930 . S
H1349 C1364 0.960 . S
H1350 C1364 0.960 . S
H1351 C1364 0.960 . S
C1352 H1344 0.929 . S
C1352 C1353 1.377 . S
C1352 C1354 1.384 . S
C1353 C1352 1.377 . S
C1353 C1359 1.390 . S
C1354 H1345 0.930 . S
C1354 C1352 1.384 . S
C1354 C1355 1.372 . S
C1355 C1354 1.372 . S
C1355 C1356 1.400 . S
C1355 C1360 1.490 . S
C1356 H1346 0.930 . S
C1356 C1355 1.400 . S
C1356 C1359 1.386 . S
H1357 C1373 0.930 . S
H1358 C1374 0.931 . S
C1359 H1347 0.929 . S
C1359 C1353 1.390 . S
C1359 C1356 1.386 . S
C1360 C1355 1.490 . S
C1360 C1362 1.395 . S
C1360 C1363 1.403 . S
H1361 C1367 0.930 . S
C1362 H1348 0.930 . S
C1362 C1360 1.395 . S
C1362 C1365 1.403 . S
C1363 C1360 1.403 . S
C1363 C1364 1.524 . S
C1363 C1367 1.400 . S
C1364 H1349 0.960 . S
C1364 H1350 0.960 . S
C1364 H1351 0.960 . S
C1364 C1363 1.524 . S
C1365 C1362 1.403 . S
C1365 C1366 1.392 . S
C1365 C1369 1.495 . S
C1366 C1365 1.392 . S
C1366 C1367 1.385 . S
C1366 C1368 1.478 . S
C1367 H1361 0.930 . S
C1367 C1363 1.400 . S
C1367 C1366 1.385 . S
C1368 C1366 1.478 . S
C1368 C1370 1.381 . S
C1368 C1374 1.383 . S
C1369 C1365 1.495 . S
C1369 H1375 0.959 . S
C1369 H1376 0.961 . S
C1369 H1377 0.960 . S
C1370 C1368 1.381 . S
C1370 C1371 1.394 . S
C1370 H1378 0.930 . S
C1371 C1370 1.394 . S
C1371 C1372 1.383 . S
C1371 H1379 0.929 . S
C1372 C1371 1.383 . S
C1372 C1373 1.377 . S
C1373 H1357 0.930 . S
C1373 C1372 1.377 . S
C1373 C1374 1.379 . S
C1374 H1358 0.931 . S
C1374 C1368 1.383 . S
C1374 C1373 1.379 . S
H1375 C1369 0.959 . S
H1376 C1369 0.961 . S
H1377 C1369 0.960 . S
H1378 C1370 0.930 . S
H1379 C1371 0.929 . S
H1380 C1388 0.929 . S
H1381 C1390 0.930 . S
H1382 C1392 0.930 . S
H1383 C1395 0.929 . S
H1384 C1398 0.930 . S
H1385 C1400 0.960 . S
H1386 C1400 0.960 . S
H1387 C1400 0.960 . S
C1388 H1380 0.929 . S
C1388 C1389 1.377 . S
C1388 C1390 1.384 . S
C1389 C1388 1.377 . S
C1389 C1395 1.390 . S
C1390 H1381 0.930 . S
C1390 C1388 1.384 . S
C1390 C1391 1.372 . S
C1391 C1390 1.372 . S
C1391 C1392 1.400 . S
C1391 C1396 1.490 . S
C1392 H1382 0.930 . S
C1392 C1391 1.400 . S
C1392 C1395 1.386 . S
H1393 C1409 0.930 . S
H1394 C1410 0.931 . S
C1395 H1383 0.929 . S
C1395 C1389 1.390 . S
C1395 C1392 1.386 . S
C1396 C1391 1.490 . S
C1396 C1398 1.395 . S
C1396 C1399 1.403 . S
H1397 C1403 0.930 . S
C1398 H1384 0.930 . S
C1398 C1396 1.395 . S
C1398 C1401 1.403 . S
C1399 C1396 1.403 . S
C1399 C1400 1.524 . S
C1399 C1403 1.400 . S
C1400 H1385 0.960 . S
C1400 H1386 0.960 . S
C1400 H1387 0.960 . S
C1400 C1399 1.524 . S
C1401 C1398 1.403 . S
C1401 C1402 1.392 . S
C1401 C1405 1.495 . S
C1402 C1401 1.392 . S
C1402 C1403 1.385 . S
C1402 C1404 1.478 . S
C1403 H1397 0.930 . S
C1403 C1399 1.400 . S
C1403 C1402 1.385 . S
C1404 C1402 1.478 . S
C1404 C1406 1.381 . S
C1404 C1410 1.383 . S
C1405 C1401 1.495 . S
C1405 H1411 0.959 . S
C1405 H1412 0.961 . S
C1405 H1413 0.960 . S
C1406 C1404 1.381 . S
C1406 C1407 1.394 . S
C1406 H1414 0.930 . S
C1407 C1406 1.394 . S
C1407 C1408 1.383 . S
C1407 H1415 0.929 . S
C1408 C1407 1.383 . S
C1408 C1409 1.377 . S
C1409 H1393 0.930 . S
C1409 C1408 1.377 . S
C1409 C1410 1.379 . S
C1410 H1394 0.931 . S
C1410 C1404 1.383 . S
C1410 C1409 1.379 . S
H1411 C1405 0.959 . S
H1412 C1405 0.961 . S
H1413 C1405 0.960 . S
H1414 C1406 0.930 . S
H1415 C1407 0.929 . S
H1416 C1424 0.929 . S
H1417 C1426 0.930 . S
H1418 C1428 0.930 . S
H1419 C1431 0.929 . S
H1420 C1434 0.930 . S
H1421 C1436 0.960 . S
H1422 C1436 0.960 . S
H1423 C1436 0.960 . S
C1424 H1416 0.929 . S
C1424 C1425 1.377 . S
C1424 C1426 1.384 . S
C1425 C1424 1.377 . S
C1425 C1431 1.390 . S
C1426 H1417 0.930 . S
C1426 C1424 1.384 . S
C1426 C1427 1.372 . S
C1427 C1426 1.372 . S
C1427 C1428 1.400 . S
C1427 C1432 1.490 . S
C1428 H1418 0.930 . S
C1428 C1427 1.400 . S
C1428 C1431 1.386 . S
H1429 C1445 0.930 . S
H1430 C1446 0.931 . S
C1431 H1419 0.929 . S
C1431 C1425 1.390 . S
C1431 C1428 1.386 . S
C1432 C1427 1.490 . S
C1432 C1434 1.395 . S
C1432 C1435 1.403 . S
H1433 C1439 0.930 . S
C1434 H1420 0.930 . S
C1434 C1432 1.395 . S
C1434 C1437 1.403 . S
C1435 C1432 1.403 . S
C1435 C1436 1.524 . S
C1435 C1439 1.400 . S
C1436 H1421 0.960 . S
C1436 H1422 0.960 . S
C1436 H1423 0.960 . S
C1436 C1435 1.524 . S
C1437 C1434 1.403 . S
C1437 C1438 1.392 . S
C1437 C1441 1.495 . S
C1438 C1437 1.392 . S
C1438 C1439 1.385 . S
C1438 C1440 1.478 . S
C1439 H1433 0.930 . S
C1439 C1435 1.400 . S
C1439 C1438 1.385 . S
C1440 C1438 1.478 . S
C1440 C1442 1.381 . S
C1440 C1446 1.383 . S
C1441 C1437 1.495 . S
C1441 H1447 0.959 . S
C1441 H1448 0.961 . S
C1441 H1449 0.960 . S
C1442 C1440 1.381 . S
C1442 C1443 1.394 . S
C1442 H1450 0.930 . S
C1443 C1442 1.394 . S
C1443 C1444 1.383 . S
C1443 H1451 0.929 . S
C1444 C1443 1.383 . S
C1444 C1445 1.377 . S
C1445 H1429 0.930 . S
C1445 C1444 1.377 . S
C1445 C1446 1.379 . S
C1446 H1430 0.931 . S
C1446 C1440 1.383 . S
C1446 C1445 1.379 . S
H1447 C1441 0.959 . S
H1448 C1441 0.961 . S
H1449 C1441 0.960 . S
H1450 C1442 0.930 . S
H1451 C1443 0.929 . S
H1452 C1460 0.929 . S
H1453 C1462 0.930 . S
H1454 C1464 0.930 . S
H1455 C1467 0.929 . S
H1456 C1470 0.930 . S
H1457 C1472 0.960 . S
H1458 C1472 0.960 . S
H1459 C1472 0.960 . S
C1460 H1452 0.929 . S
C1460 C1461 1.377 . S
C1460 C1462 1.384 . S
C1461 C1460 1.377 . S
C1461 C1467 1.390 . S
C1462 H1453 0.930 . S
C1462 C1460 1.384 . S
C1462 C1463 1.372 . S
C1463 C1462 1.372 . S
C1463 C1464 1.400 . S
C1463 C1468 1.490 . S
C1464 H1454 0.930 . S
C1464 C1463 1.400 . S
C1464 C1467 1.386 . S
H1465 C1481 0.930 . S
H1466 C1482 0.931 . S
C1467 H1455 0.929 . S
C1467 C1461 1.390 . S
C1467 C1464 1.386 . S
C1468 C1463 1.490 . S
C1468 C1470 1.395 . S
C1468 C1471 1.403 . S
H1469 C1475 0.930 . S
C1470 H1456 0.930 . S
C1470 C1468 1.395 . S
C1470 C1473 1.403 . S
C1471 C1468 1.403 . S
C1471 C1472 1.524 . S
C1471 C1475 1.400 . S
C1472 H1457 0.960 . S
C1472 H1458 0.960 . S
C1472 H1459 0.960 . S
C1472 C1471 1.524 . S
C1473 C1470 1.403 . S
C1473 C1474 1.392 . S
C1473 C1477 1.495 . S
C1474 C1473 1.392 . S
C1474 C1475 1.385 . S
C1474 C1476 1.478 . S
C1475 H1469 0.930 . S
C1475 C1471 1.400 . S
C1475 C1474 1.385 . S
C1476 C1474 1.478 . S
C1476 C1478 1.381 . S
C1476 C1482 1.383 . S
C1477 C1473 1.495 . S
C1477 H1483 0.959 . S
C1477 H1484 0.961 . S
C1477 H1485 0.960 . S
C1478 C1476 1.381 . S
C1478 C1479 1.394 . S
C1478 H1486 0.930 . S
C1479 C1478 1.394 . S
C1479 C1480 1.383 . S
C1479 H1487 0.929 . S
C1480 C1479 1.383 . S
C1480 C1481 1.377 . S
C1481 H1465 0.930 . S
C1481 C1480 1.377 . S
C1481 C1482 1.379 . S
C1482 H1466 0.931 . S
C1482 C1476 1.383 . S
C1482 C1481 1.379 . S
H1483 C1477 0.959 . S
H1484 C1477 0.961 . S
H1485 C1477 0.960 . S
H1486 C1478 0.930 . S
H1487 C1479 0.929 . S
H1488 C1496 0.929 . S
H1489 C1498 0.930 . S
H1490 C1500 0.930 . S
H1491 C1503 0.929 . S
H1492 C1506 0.930 . S
H1493 C1508 0.960 . S
H1494 C1508 0.960 . S
H1495 C1508 0.960 . S
C1496 H1488 0.929 . S
C1496 C1497 1.377 . S
C1496 C1498 1.384 . S
C1497 C1496 1.377 . S
C1497 C1503 1.390 . S
C1498 H1489 0.930 . S
C1498 C1496 1.384 . S
C1498 C1499 1.372 . S
C1499 C1498 1.372 . S
C1499 C1500 1.400 . S
C1499 C1504 1.490 . S
C1500 H1490 0.930 . S
C1500 C1499 1.400 . S
C1500 C1503 1.386 . S
H1501 C1517 0.930 . S
H1502 C1518 0.931 . S
C1503 H1491 0.929 . S
C1503 C1497 1.390 . S
C1503 C1500 1.386 . S
C1504 C1499 1.490 . S
C1504 C1506 1.395 . S
C1504 C1507 1.403 . S
H1505 C1511 0.930 . S
C1506 H1492 0.930 . S
C1506 C1504 1.395 . S
C1506 C1509 1.403 . S
C1507 C1504 1.403 . S
C1507 C1508 1.524 . S
C1507 C1511 1.400 . S
C1508 H1493 0.960 . S
C1508 H1494 0.960 . S
C1508 H1495 0.960 . S
C1508 C1507 1.524 . S
C1509 C1506 1.403 . S
C1509 C1510 1.392 . S
C1509 C1513 1.495 . S
C1510 C1509 1.392 . S
C1510 C1511 1.385 . S
C1510 C1512 1.478 . S
C1511 H1505 0.930 . S
C1511 C1507 1.400 . S
C1511 C1510 1.385 . S
C1512 C1510 1.478 . S
C1512 C1514 1.381 . S
C1512 C1518 1.383 . S
C1513 C1509 1.495 . S
C1513 H1519 0.959 . S
C1513 H1520 0.961 . S
C1513 H1521 0.960 . S
C1514 C1512 1.381 . S
C1514 C1515 1.394 . S
C1514 H1522 0.930 . S
C1515 C1514 1.394 . S
C1515 C1516 1.383 . S
C1515 H1523 0.929 . S
C1516 C1515 1.383 . S
C1516 C1517 1.377 . S
C1517 H1501 0.930 . S
C1517 C1516 1.377 . S
C1517 C1518 1.379 . S
C1518 H1502 0.931 . S
C1518 C1512 1.383 . S
C1518 C1517 1.379 . S
H1519 C1513 0.959 . S
H1520 C1513 0.961 . S
H1521 C1513 0.960 . S
H1522 C1514 0.930 . S
H1523 C1515 0.929 . S
H1524 C1532 0.890 1_554 S
H1525 C1534 0.930 . S
H1526 C1536 0.930 . S
H1527 C1539 0.929 . S
H1528 C1542 0.930 . S
H1529 C1544 0.960 . S
H1530 C1544 0.960 . S
H1531 C1544 0.960 . S
C1532 H1524 0.890 1_556 S
C1532 C1533 1.377 . S
C1532 C1534 1.384 . S
C1533 C1532 1.377 . S
C1533 C1539 1.390 . S
C1534 H1525 0.930 . S
C1534 C1532 1.384 . S
C1534 C1535 1.372 . S
C1535 C1534 1.372 . S
C1535 C1536 1.400 . S
C1535 C1540 1.490 . S
C1536 H1526 0.930 . S
C1536 C1535 1.400 . S
C1536 C1539 1.386 . S
H1537 C1553 0.930 . S
H1538 C1554 0.931 . S
C1539 H1527 0.929 . S
C1539 C1533 1.390 . S
C1539 C1536 1.386 . S
C1540 C1535 1.490 . S
C1540 C1542 1.395 . S
C1540 C1543 1.403 . S
H1541 C1547 0.930 . S
C1542 H1528 0.930 . S
C1542 C1540 1.395 . S
C1542 C1545 1.403 . S
C1543 C1540 1.403 . S
C1543 C1544 1.524 . S
C1543 C1547 1.400 . S
C1544 H1529 0.960 . S
C1544 H1530 0.960 . S
C1544 H1531 0.960 . S
C1544 C1543 1.524 . S
C1545 C1542 1.403 . S
C1545 C1546 1.392 . S
C1545 C1549 1.495 . S
C1546 C1545 1.392 . S
C1546 C1547 1.385 . S
C1546 C1548 1.478 . S
C1547 H1541 0.930 . S
C1547 C1543 1.400 . S
C1547 C1546 1.385 . S
C1548 C1546 1.478 . S
C1548 C1550 1.381 . S
C1548 C1554 1.383 . S
C1549 C1545 1.495 . S
C1549 H1555 0.959 . S
C1549 H1556 0.961 . S
C1549 H1557 0.960 . S
C1550 C1548 1.381 . S
C1550 C1551 1.394 . S
C1550 H1558 0.930 . S
C1551 C1550 1.394 . S
C1551 C1552 1.383 . S
C1551 H1559 0.929 . S
C1552 C1551 1.383 . S
C1552 C1553 1.377 . S
C1553 H1537 0.930 . S
C1553 C1552 1.377 . S
C1553 C1554 1.379 . S
C1554 H1538 0.931 . S
C1554 C1548 1.383 . S
C1554 C1553 1.379 . S
H1555 C1549 0.959 . S
H1556 C1549 0.961 . S
H1557 C1549 0.960 . S
H1558 C1550 0.930 . S
H1559 C1551 0.929 . S
H1560 C1568 0.929 . S
H1561 C1570 0.930 . S
H1562 C1572 0.930 . S
H1563 C1575 0.929 . S
H1564 C1578 0.930 . S
H1565 C1580 0.960 . S
H1566 C1580 0.960 . S
H1567 C1580 0.960 . S
C1568 H1560 0.929 . S
C1568 C1569 1.377 . S
C1568 C1570 1.384 . S
C1569 C1568 1.377 . S
C1569 C1575 1.390 . S
C1570 H1561 0.930 . S
C1570 C1568 1.384 . S
C1570 C1571 1.372 . S
C1571 C1570 1.372 . S
C1571 C1572 1.400 . S
C1571 C1576 1.490 . S
C1572 H1562 0.930 . S
C1572 C1571 1.400 . S
C1572 C1575 1.386 . S
H1573 C1589 0.930 . S
H1574 C1590 0.931 . S
C1575 H1563 0.929 . S
C1575 C1569 1.390 . S
C1575 C1572 1.386 . S
C1576 C1571 1.490 . S
C1576 C1578 1.395 . S
C1576 C1579 1.403 . S
H1577 C1583 0.930 . S
C1578 H1564 0.930 . S
C1578 C1576 1.395 . S
C1578 C1581 1.403 . S
C1579 C1576 1.403 . S
C1579 C1580 1.524 . S
C1579 C1583 1.400 . S
C1580 H1565 0.960 . S
C1580 H1566 0.960 . S
C1580 H1567 0.960 . S
C1580 C1579 1.524 . S
C1581 C1578 1.403 . S
C1581 C1582 1.392 . S
C1581 C1585 1.495 . S
C1582 C1581 1.392 . S
C1582 C1583 1.385 . S
C1582 C1584 1.478 . S
C1583 H1577 0.930 . S
C1583 C1579 1.400 . S
C1583 C1582 1.385 . S
C1584 C1582 1.478 . S
C1584 C1586 1.381 . S
C1584 C1590 1.383 . S
C1585 C1581 1.495 . S
C1585 H1591 0.959 . S
C1585 H1592 0.961 . S
C1585 H1593 0.960 . S
C1586 C1584 1.381 . S
C1586 C1587 1.394 . S
C1586 H1594 0.930 . S
C1587 C1586 1.394 . S
C1587 C1588 1.383 . S
C1587 H1595 0.929 . S
C1588 C1587 1.383 . S
C1588 C1589 1.377 . S
C1589 H1573 0.930 . S
C1589 C1588 1.377 . S
C1589 C1590 1.379 . S
C1590 H1574 0.931 . S
C1590 C1584 1.383 . S
C1590 C1589 1.379 . S
H1591 C1585 0.959 . S
H1592 C1585 0.961 . S
H1593 C1585 0.960 . S
H1594 C1586 0.930 . S
H1595 C1587 0.929 . S
H1596 C1604 0.929 . S
H1597 C1606 0.930 . S
H1598 C1608 0.930 . S
H1599 C1611 0.929 . S
H1600 C1614 0.930 . S
H1601 C1616 0.960 . S
H1602 C1616 0.960 . S
H1603 C1616 0.960 . S
C1604 H1596 0.929 . S
C1604 C1605 1.377 . S
C1604 C1606 1.384 . S
C1605 C1604 1.377 . S
C1605 C1611 1.390 . S
C1606 H1597 0.930 . S
C1606 C1604 1.384 . S
C1606 C1607 1.372 . S
C1607 C1606 1.372 . S
C1607 C1608 1.400 . S
C1607 C1612 1.490 . S
C1608 H1598 0.930 . S
C1608 C1607 1.400 . S
C1608 C1611 1.386 . S
H1609 C1625 0.930 . S
H1610 C1626 0.931 . S
C1611 H1599 0.929 . S
C1611 C1605 1.390 . S
C1611 C1608 1.386 . S
C1612 C1607 1.490 . S
C1612 C1614 1.395 . S
C1612 C1615 1.403 . S
H1613 C1619 0.930 . S
C1614 H1600 0.930 . S
C1614 C1612 1.395 . S
C1614 C1617 1.403 . S
C1615 C1612 1.403 . S
C1615 C1616 1.524 . S
C1615 C1619 1.400 . S
C1616 H1601 0.960 . S
C1616 H1602 0.960 . S
C1616 H1603 0.960 . S
C1616 C1615 1.524 . S
C1617 C1614 1.403 . S
C1617 C1618 1.392 . S
C1617 C1621 1.495 . S
C1618 C1617 1.392 . S
C1618 C1619 1.385 . S
C1618 C1620 1.478 . S
C1619 H1613 0.930 . S
C1619 C1615 1.400 . S
C1619 C1618 1.385 . S
C1620 C1618 1.478 . S
C1620 C1622 1.381 . S
C1620 C1626 1.383 . S
C1621 C1617 1.495 . S
C1621 H1627 0.959 . S
C1621 H1628 0.961 . S
C1621 H1629 0.960 . S
C1622 C1620 1.381 . S
C1622 C1623 1.394 . S
C1622 H1630 0.930 . S
C1623 C1622 1.394 . S
C1623 C1624 1.383 . S
C1623 H1631 0.929 . S
C1624 C1623 1.383 . S
C1624 C1625 1.377 . S
C1625 H1609 0.930 . S
C1625 C1624 1.377 . S
C1625 C1626 1.379 . S
C1626 H1610 0.931 . S
C1626 C1620 1.383 . S
C1626 C1625 1.379 . S
H1627 C1621 0.959 . S
H1628 C1621 0.961 . S
H1629 C1621 0.960 . S
H1630 C1622 0.930 . S
H1631 C1623 0.929 . S
H1632 C1640 0.929 . S
H1633 C1642 0.930 . S
H1634 C1644 0.930 . S
H1635 C1647 0.929 . S
H1636 C1650 0.930 . S
H1637 C1652 0.960 . S
H1638 C1652 0.960 . S
H1639 C1652 0.960 . S
C1640 H1632 0.929 . S
C1640 C1641 1.377 . S
C1640 C1642 1.384 . S
C1641 C1640 1.377 . S
C1641 C1647 1.390 . S
C1642 H1633 0.930 . S
C1642 C1640 1.384 . S
C1642 C1643 1.372 . S
C1643 C1642 1.372 . S
C1643 C1644 1.400 . S
C1643 C1648 1.490 . S
C1644 H1634 0.930 . S
C1644 C1643 1.400 . S
C1644 C1647 1.386 . S
H1645 C1661 0.930 . S
H1646 C1662 0.931 . S
C1647 H1635 0.929 . S
C1647 C1641 1.390 . S
C1647 C1644 1.386 . S
C1648 C1643 1.490 . S
C1648 C1650 1.395 . S
C1648 C1651 1.403 . S
H1649 C1655 0.930 . S
C1650 H1636 0.930 . S
C1650 C1648 1.395 . S
C1650 C1653 1.403 . S
C1651 C1648 1.403 . S
C1651 C1652 1.524 . S
C1651 C1655 1.400 . S
C1652 H1637 0.960 . S
C1652 H1638 0.960 . S
C1652 H1639 0.960 . S
C1652 C1651 1.524 . S
C1653 C1650 1.403 . S
C1653 C1654 1.392 . S
C1653 C1657 1.495 . S
C1654 C1653 1.392 . S
C1654 C1655 1.385 . S
C1654 C1656 1.478 . S
C1655 H1649 0.930 . S
C1655 C1651 1.400 . S
C1655 C1654 1.385 . S
C1656 C1654 1.478 . S
C1656 C1658 1.381 . S
C1656 C1662 1.383 . S
C1657 C1653 1.495 . S
C1657 H1663 0.959 . S
C1657 H1664 0.961 . S
C1657 H1665 0.960 . S
C1658 C1656 1.381 . S
C1658 C1659 1.394 . S
C1658 H1666 0.930 . S
C1659 C1658 1.394 . S
C1659 C1660 1.383 . S
C1659 H1667 0.929 . S
C1660 C1659 1.383 . S
C1660 C1661 1.377 . S
C1661 H1645 0.930 . S
C1661 C1660 1.377 . S
C1661 C1662 1.379 . S
C1662 H1646 0.931 . S
C1662 C1656 1.383 . S
C1662 C1661 1.379 . S
H1663 C1657 0.959 . S
H1664 C1657 0.961 . S
H1665 C1657 0.960 . S
H1666 C1658 0.930 . S
H1667 C1659 0.929 . S
H1668 C1676 0.929 . S
H1669 C1678 0.930 . S
H1670 C1680 0.930 . S
H1671 C1683 0.929 . S
H1672 C1686 0.930 . S
H1673 C1688 0.960 . S
H1674 C1688 0.960 . S
H1675 C1688 0.960 . S
C1676 H1668 0.929 . S
C1676 C1677 1.377 . S
C1676 C1678 1.384 . S
C1677 C1676 1.377 . S
C1677 C1683 1.390 . S
C1678 H1669 0.930 . S
C1678 C1676 1.384 . S
C1678 C1679 1.372 . S
C1679 C1678 1.372 . S
C1679 C1680 1.400 . S
C1679 C1684 1.490 . S
C1680 H1670 0.930 . S
C1680 C1679 1.400 . S
C1680 C1683 1.386 . S
H1681 C1697 0.930 . S
H1682 C1698 0.931 . S
C1683 H1671 0.929 . S
C1683 C1677 1.390 . S
C1683 C1680 1.386 . S
C1684 C1679 1.490 . S
C1684 C1686 1.395 . S
C1684 C1687 1.403 . S
H1685 C1691 0.930 . S
C1686 H1672 0.930 . S
C1686 C1684 1.395 . S
C1686 C1689 1.403 . S
C1687 C1684 1.403 . S
C1687 C1688 1.524 . S
C1687 C1691 1.400 . S
C1688 H1673 0.960 . S
C1688 H1674 0.960 . S
C1688 H1675 0.960 . S
C1688 C1687 1.524 . S
C1689 C1686 1.403 . S
C1689 C1690 1.392 . S
C1689 C1693 1.495 . S
C1690 C1689 1.392 . S
C1690 C1691 1.385 . S
C1690 C1692 1.478 . S
C1691 H1685 0.930 . S
C1691 C1687 1.400 . S
C1691 C1690 1.385 . S
C1692 C1690 1.478 . S
C1692 C1694 1.381 . S
C1692 C1698 1.383 . S
C1693 C1689 1.495 . S
C1693 H1699 0.959 . S
C1693 H1700 0.961 . S
C1693 H1701 0.960 . S
C1694 C1692 1.381 . S
C1694 C1695 1.394 . S
C1694 H1702 0.930 . S
C1695 C1694 1.394 . S
C1695 C1696 1.383 . S
C1695 H1703 0.929 . S
C1696 C1695 1.383 . S
C1696 C1697 1.377 . S
C1697 H1681 0.930 . S
C1697 C1696 1.377 . S
C1697 C1698 1.379 . S
C1698 H1682 0.931 . S
C1698 C1692 1.383 . S
C1698 C1697 1.379 . S
H1699 C1693 0.959 . S
H1700 C1693 0.961 . S
H1701 C1693 0.960 . S
H1702 C1694 0.930 . S
H1703 C1695 0.929 . S
H1704 C1712 0.929 . S
H1705 C1714 0.930 . S
H1706 C1716 0.930 . S
H1707 C1719 0.929 . S
H1708 C1722 0.930 . S
H1709 C1724 0.960 . S
H1710 C1724 0.960 . S
H1711 C1724 0.960 . S
C1712 H1704 0.929 . S
C1712 C1713 1.377 . S
C1712 C1714 1.384 . S
C1713 C1712 1.377 . S
C1713 C1719 1.390 . S
C1714 H1705 0.930 . S
C1714 C1712 1.384 . S
C1714 C1715 1.372 . S
C1715 C1714 1.372 . S
C1715 C1716 1.400 . S
C1715 C1720 1.490 . S
C1716 H1706 0.930 . S
C1716 C1715 1.400 . S
C1716 C1719 1.386 . S
H1717 C1733 0.930 . S
H1718 C1734 0.931 . S
C1719 H1707 0.929 . S
C1719 C1713 1.390 . S
C1719 C1716 1.386 . S
C1720 C1715 1.490 . S
C1720 C1722 1.395 . S
C1720 C1723 1.403 . S
H1721 C1727 0.930 . S
C1722 H1708 0.930 . S
C1722 C1720 1.395 . S
C1722 C1725 1.403 . S
C1723 C1720 1.403 . S
C1723 C1724 1.524 . S
C1723 C1727 1.400 . S
C1724 H1709 0.960 . S
C1724 H1710 0.960 . S
C1724 H1711 0.960 . S
C1724 C1723 1.524 . S
C1725 C1722 1.403 . S
C1725 C1726 1.392 . S
C1725 C1729 1.495 . S
C1726 C1725 1.392 . S
C1726 C1727 1.385 . S
C1726 C1728 1.478 . S
C1727 H1721 0.930 . S
C1727 C1723 1.400 . S
C1727 C1726 1.385 . S
C1728 C1726 1.478 . S
C1728 C1730 1.381 . S
C1728 C1734 1.383 . S
C1729 C1725 1.495 . S
C1729 H1735 0.959 . S
C1729 H1736 0.961 . S
C1729 H1737 0.960 . S
C1730 C1728 1.381 . S
C1730 C1731 1.394 . S
C1730 H1738 0.930 . S
C1731 C1730 1.394 . S
C1731 C1732 1.383 . S
C1731 H1739 0.929 . S
C1732 C1731 1.383 . S
C1732 C1733 1.377 . S
C1733 H1717 0.930 . S
C1733 C1732 1.377 . S
C1733 C1734 1.379 . S
C1734 H1718 0.931 . S
C1734 C1728 1.383 . S
C1734 C1733 1.379 . S
H1735 C1729 0.959 . S
H1736 C1729 0.961 . S
H1737 C1729 0.960 . S
H1738 C1730 0.930 . S
H1739 C1731 0.929 . S
H1740 C1748 0.929 . S
H1741 C1750 0.930 . S
H1742 C1752 0.930 . S
H1743 C1755 0.929 . S
H1744 C1758 0.930 . S
H1745 C1760 0.960 . S
H1746 C1760 0.960 . S
H1747 C1760 0.960 . S
C1748 H1740 0.929 . S
C1748 C1749 1.377 . S
C1748 C1750 1.384 . S
C1749 C1748 1.377 . S
C1749 C1755 1.390 . S
C1750 H1741 0.930 . S
C1750 C1748 1.384 . S
C1750 C1751 1.372 . S
C1751 C1750 1.372 . S
C1751 C1752 1.400 . S
C1751 C1756 1.490 . S
C1752 H1742 0.930 . S
C1752 C1751 1.400 . S
C1752 C1755 1.386 . S
H1753 C1769 0.930 . S
H1754 C1770 0.931 . S
C1755 H1743 0.929 . S
C1755 C1749 1.390 . S
C1755 C1752 1.386 . S
C1756 C1751 1.490 . S
C1756 C1758 1.395 . S
C1756 C1759 1.403 . S
H1757 C1763 0.930 . S
C1758 H1744 0.930 . S
C1758 C1756 1.395 . S
C1758 C1761 1.403 . S
C1759 C1756 1.403 . S
C1759 C1760 1.524 . S
C1759 C1763 1.400 . S
C1760 H1745 0.960 . S
C1760 H1746 0.960 . S
C1760 H1747 0.960 . S
C1760 C1759 1.524 . S
C1761 C1758 1.403 . S
C1761 C1762 1.392 . S
C1761 C1765 1.495 . S
C1762 C1761 1.392 . S
C1762 C1763 1.385 . S
C1762 C1764 1.478 . S
C1763 H1757 0.930 . S
C1763 C1759 1.400 . S
C1763 C1762 1.385 . S
C1764 C1762 1.478 . S
C1764 C1766 1.381 . S
C1764 C1770 1.383 . S
C1765 C1761 1.495 . S
C1765 H1771 0.959 . S
C1765 H1772 0.961 . S
C1765 H1773 0.960 . S
C1766 C1764 1.381 . S
C1766 C1767 1.394 . S
C1766 H1774 0.930 . S
C1767 C1766 1.394 . S
C1767 C1768 1.383 . S
C1767 H1775 0.929 . S
C1768 C1767 1.383 . S
C1768 C1769 1.377 . S
C1769 H1753 0.930 . S
C1769 C1768 1.377 . S
C1769 C1770 1.379 . S
C1770 H1754 0.931 . S
C1770 C1764 1.383 . S
C1770 C1769 1.379 . S
H1771 C1765 0.959 . S
H1772 C1765 0.961 . S
H1773 C1765 0.960 . S
H1774 C1766 0.930 . S
H1775 C1767 0.929 . S
H1776 C1784 0.929 . S
H1777 C1786 0.930 . S
H1778 C1788 0.930 . S
H1779 C1791 0.929 . S
H1780 C1794 0.930 . S
H1781 C1796 0.960 . S
H1782 C1796 0.960 . S
H1783 C1796 0.960 . S
C1784 H1776 0.929 . S
C1784 C1785 1.377 . S
C1784 C1786 1.384 . S
C1785 C1784 1.377 . S
C1785 C1791 1.390 . S
C1786 H1777 0.930 . S
C1786 C1784 1.384 . S
C1786 C1787 1.372 . S
C1787 C1786 1.372 . S
C1787 C1788 1.400 . S
C1787 C1792 1.490 . S
C1788 H1778 0.930 . S
C1788 C1787 1.400 . S
C1788 C1791 1.386 . S
H1789 C1805 0.930 . S
H1790 C1806 0.931 . S
C1791 H1779 0.929 . S
C1791 C1785 1.390 . S
C1791 C1788 1.386 . S
C1792 C1787 1.490 . S
C1792 C1794 1.395 . S
C1792 C1795 1.403 . S
H1793 C1799 0.930 . S
C1794 H1780 0.930 . S
C1794 C1792 1.395 . S
C1794 C1797 1.403 . S
C1795 C1792 1.403 . S
C1795 C1796 1.524 . S
C1795 C1799 1.400 . S
C1796 H1781 0.960 . S
C1796 H1782 0.960 . S
C1796 H1783 0.960 . S
C1796 C1795 1.524 . S
C1797 C1794 1.403 . S
C1797 C1798 1.392 . S
C1797 C1801 1.495 . S
C1798 C1797 1.392 . S
C1798 C1799 1.385 . S
C1798 C1800 1.478 . S
C1799 H1793 0.930 . S
C1799 C1795 1.400 . S
C1799 C1798 1.385 . S
C1800 C1798 1.478 . S
C1800 C1802 1.381 . S
C1800 C1806 1.383 . S
C1801 C1797 1.495 . S
C1801 H1807 0.959 . S
C1801 H1808 0.961 . S
C1801 H1809 0.960 . S
C1802 C1800 1.381 . S
C1802 C1803 1.394 . S
C1802 H1810 0.930 . S
C1803 C1802 1.394 . S
C1803 C1804 1.383 . S
C1803 H1811 0.929 . S
C1804 C1803 1.383 . S
C1804 C1805 1.377 . S
C1805 H1789 0.930 . S
C1805 C1804 1.377 . S
C1805 C1806 1.379 . S
C1806 H1790 0.931 . S
C1806 C1800 1.383 . S
C1806 C1805 1.379 . S
H1807 C1801 0.959 . S
H1808 C1801 0.961 . S
H1809 C1801 0.960 . S
H1810 C1802 0.930 . S
H1811 C1803 0.929 . S
H1812 C1820 0.929 . S
H1813 C1822 0.930 . S
H1814 C1824 0.930 . S
H1815 C1827 0.929 . S
H1816 C1830 0.930 . S
H1817 C1832 0.960 . S
H1818 C1832 0.960 . S
H1819 C1832 0.960 . S
C1820 H1812 0.929 . S
C1820 C1821 1.377 . S
C1820 C1822 1.384 . S
C1821 C1820 1.377 . S
C1821 C1827 1.390 . S
C1822 H1813 0.930 . S
C1822 C1820 1.384 . S
C1822 C1823 1.372 . S
C1823 C1822 1.372 . S
C1823 C1824 1.400 . S
C1823 C1828 1.490 . S
C1824 H1814 0.930 . S
C1824 C1823 1.400 . S
C1824 C1827 1.386 . S
H1825 C1841 0.930 . S
H1826 C1842 0.931 . S
C1827 H1815 0.929 . S
C1827 C1821 1.390 . S
C1827 C1824 1.386 . S
C1828 C1823 1.490 . S
C1828 C1830 1.395 . S
C1828 C1831 1.403 . S
H1829 C1835 0.930 . S
C1830 H1816 0.930 . S
C1830 C1828 1.395 . S
C1830 C1833 1.403 . S
C1831 C1828 1.403 . S
C1831 C1832 1.524 . S
C1831 C1835 1.400 . S
C1832 H1817 0.960 . S
C1832 H1818 0.960 . S
C1832 H1819 0.960 . S
C1832 C1831 1.524 . S
C1833 C1830 1.403 . S
C1833 C1834 1.392 . S
C1833 C1837 1.495 . S
C1834 C1833 1.392 . S
C1834 C1835 1.385 . S
C1834 C1836 1.478 . S
C1835 H1829 0.930 . S
C1835 C1831 1.400 . S
C1835 C1834 1.385 . S
C1836 C1834 1.478 . S
C1836 C1838 1.381 . S
C1836 C1842 1.383 . S
C1837 C1833 1.495 . S
C1837 H1843 0.959 . S
C1837 H1844 0.961 . S
C1837 H1845 0.960 . S
C1838 C1836 1.381 . S
C1838 C1839 1.394 . S
C1838 H1846 0.930 . S
C1839 C1838 1.394 . S
C1839 C1840 1.383 . S
C1839 H1847 0.929 . S
C1840 C1839 1.383 . S
C1840 C1841 1.377 . S
C1841 H1825 0.930 . S
C1841 C1840 1.377 . S
C1841 C1842 1.379 . S
C1842 H1826 0.931 . S
C1842 C1836 1.383 . S
C1842 C1841 1.379 . S
H1843 C1837 0.959 . S
H1844 C1837 0.961 . S
H1845 C1837 0.960 . S
H1846 C1838 0.930 . S
H1847 C1839 0.929 . S
H1848 C1856 0.929 . S
H1849 C1858 0.930 . S
H1850 C1860 0.930 . S
H1851 C1863 0.929 . S
H1852 C1866 0.930 . S
H1853 C1868 0.960 . S
H1854 C1868 0.960 . S
H1855 C1868 0.960 . S
C1856 H1848 0.929 . S
C1856 C1857 1.377 . S
C1856 C1858 1.384 . S
C1857 C1856 1.377 . S
C1857 C1863 1.390 . S
C1858 H1849 0.930 . S
C1858 C1856 1.384 . S
C1858 C1859 1.372 . S
C1859 C1858 1.372 . S
C1859 C1860 1.400 . S
C1859 C1864 1.490 . S
C1860 H1850 0.930 . S
C1860 C1859 1.400 . S
C1860 C1863 1.386 . S
H1861 C1877 0.930 . S
H1862 C1878 0.931 . S
C1863 H1851 0.929 . S
C1863 C1857 1.390 . S
C1863 C1860 1.386 . S
C1864 C1859 1.490 . S
C1864 C1866 1.395 . S
C1864 C1867 1.403 . S
H1865 C1871 0.930 . S
C1866 H1852 0.930 . S
C1866 C1864 1.395 . S
C1866 C1869 1.403 . S
C1867 C1864 1.403 . S
C1867 C1868 1.524 . S
C1867 C1871 1.400 . S
C1868 H1853 0.960 . S
C1868 H1854 0.960 . S
C1868 H1855 0.960 . S
C1868 C1867 1.524 . S
C1869 C1866 1.403 . S
C1869 C1870 1.392 . S
C1869 C1873 1.495 . S
C1870 C1869 1.392 . S
C1870 C1871 1.385 . S
C1870 C1872 1.478 . S
C1871 H1865 0.930 . S
C1871 C1867 1.400 . S
C1871 C1870 1.385 . S
C1872 C1870 1.478 . S
C1872 C1874 1.381 . S
C1872 C1878 1.383 . S
C1873 C1869 1.495 . S
C1873 H1879 0.959 . S
C1873 H1880 0.961 . S
C1873 H1881 0.960 . S
C1874 C1872 1.381 . S
C1874 C1875 1.394 . S
C1874 H1882 0.930 . S
C1875 C1874 1.394 . S
C1875 C1876 1.383 . S
C1875 H1883 0.929 . S
C1876 C1875 1.383 . S
C1876 C1877 1.377 . S
C1877 H1861 0.930 . S
C1877 C1876 1.377 . S
C1877 C1878 1.379 . S
C1878 H1862 0.931 . S
C1878 C1872 1.383 . S
C1878 C1877 1.379 . S
H1879 C1873 0.959 . S
H1880 C1873 0.961 . S
H1881 C1873 0.960 . S
H1882 C1874 0.930 . S
H1883 C1875 0.929 . S
H1884 C1892 0.929 . S
H1885 C1894 0.930 . S
H1886 C1896 0.930 . S
H1887 C1899 0.929 . S
H1888 C1902 0.930 . S
H1889 C1904 0.960 . S
H1890 C1904 0.960 . S
H1891 C1904 0.960 . S
C1892 H1884 0.929 . S
C1892 C1893 1.377 . S
C1892 C1894 1.384 . S
C1893 C1892 1.377 . S
C1893 C1899 1.390 . S
C1894 H1885 0.930 . S
C1894 C1892 1.384 . S
C1894 C1895 1.372 . S
C1895 C1894 1.372 . S
C1895 C1896 1.400 . S
C1895 C1900 1.490 . S
C1896 H1886 0.930 . S
C1896 C1895 1.400 . S
C1896 C1899 1.386 . S
H1897 C1913 0.930 . S
H1898 C1914 0.931 . S
C1899 H1887 0.929 . S
C1899 C1893 1.390 . S
C1899 C1896 1.386 . S
C1900 C1895 1.490 . S
C1900 C1902 1.395 . S
C1900 C1903 1.403 . S
H1901 C1907 0.930 . S
C1902 H1888 0.930 . S
C1902 C1900 1.395 . S
C1902 C1905 1.403 . S
C1903 C1900 1.403 . S
C1903 C1904 1.524 . S
C1903 C1907 1.400 . S
C1904 H1889 0.960 . S
C1904 H1890 0.960 . S
C1904 H1891 0.960 . S
C1904 C1903 1.524 . S
C1905 C1902 1.403 . S
C1905 C1906 1.392 . S
C1905 C1909 1.495 . S
C1906 C1905 1.392 . S
C1906 C1907 1.385 . S
C1906 C1908 1.478 . S
C1907 H1901 0.930 . S
C1907 C1903 1.400 . S
C1907 C1906 1.385 . S
C1908 C1906 1.478 . S
C1908 C1910 1.381 . S
C1908 C1914 1.383 . S
C1909 C1905 1.495 . S
C1909 H1915 0.959 . S
C1909 H1916 0.961 . S
C1909 H1917 0.960 . S
C1910 C1908 1.381 . S
C1910 C1911 1.394 . S
C1910 H1918 0.930 . S
C1911 C1910 1.394 . S
C1911 C1912 1.383 . S
C1911 H1919 0.929 . S
C1912 C1911 1.383 . S
C1912 C1913 1.377 . S
C1913 H1897 0.930 . S
C1913 C1912 1.377 . S
C1913 C1914 1.379 . S
C1914 H1898 0.931 . S
C1914 C1908 1.383 . S
C1914 C1913 1.379 . S
H1915 C1909 0.959 . S
H1916 C1909 0.961 . S
H1917 C1909 0.960 . S
H1918 C1910 0.930 . S
H1919 C1911 0.929 . S
H1920 C1928 0.929 . S
H1921 C1930 0.930 . S
H1922 C1932 0.930 . S
H1923 C1935 0.929 . S
H1924 C1938 0.930 . S
H1925 C1940 0.960 . S
H1926 C1940 0.960 . S
H1927 C1940 0.960 . S
C1928 H1920 0.929 . S
C1928 C1929 1.377 . S
C1928 C1930 1.384 . S
C1929 C1928 1.377 . S
C1929 C1935 1.390 . S
C1930 H1921 0.930 . S
C1930 C1928 1.384 . S
C1930 C1931 1.372 . S
C1931 C1930 1.372 . S
C1931 C1932 1.400 . S
C1931 C1936 1.490 . S
C1932 H1922 0.930 . S
C1932 C1931 1.400 . S
C1932 C1935 1.386 . S
H1933 C1949 0.930 . S
H1934 C1950 0.931 . S
C1935 H1923 0.929 . S
C1935 C1929 1.390 . S
C1935 C1932 1.386 . S
C1936 C1931 1.490 . S
C1936 C1938 1.395 . S
C1936 C1939 1.403 . S
H1937 C1943 0.930 . S
C1938 H1924 0.930 . S
C1938 C1936 1.395 . S
C1938 C1941 1.403 . S
C1939 C1936 1.403 . S
C1939 C1940 1.524 . S
C1939 C1943 1.400 . S
C1940 H1925 0.960 . S
C1940 H1926 0.960 . S
C1940 H1927 0.960 . S
C1940 C1939 1.524 . S
C1941 C1938 1.403 . S
C1941 C1942 1.392 . S
C1941 C1945 1.495 . S
C1942 C1941 1.392 . S
C1942 C1943 1.385 . S
C1942 C1944 1.478 . S
C1943 H1937 0.930 . S
C1943 C1939 1.400 . S
C1943 C1942 1.385 . S
C1944 C1942 1.478 . S
C1944 C1946 1.381 . S
C1944 C1950 1.383 . S
C1945 C1941 1.495 . S
C1945 H1951 0.959 . S
C1945 H1952 0.961 . S
C1945 H1953 0.960 . S
C1946 C1944 1.381 . S
C1946 C1947 1.394 . S
C1946 H1954 0.930 . S
C1947 C1946 1.394 . S
C1947 C1948 1.383 . S
C1947 H1955 0.929 . S
C1948 C1947 1.383 . S
C1948 C1949 1.377 . S
C1949 H1933 0.930 . S
C1949 C1948 1.377 . S
C1949 C1950 1.379 . S
C1950 H1934 0.931 . S
C1950 C1944 1.383 . S
C1950 C1949 1.379 . S
H1951 C1945 0.959 . S
H1952 C1945 0.961 . S
H1953 C1945 0.960 . S
H1954 C1946 0.930 . S
H1955 C1947 0.929 . S
H1956 C1964 0.929 . S
H1957 C1966 0.930 . S
H1958 C1968 0.930 . S
H1959 C1971 0.929 . S
H1960 C1974 0.930 . S
H1961 C1976 0.960 . S
H1962 C1976 0.960 . S
H1963 C1976 0.960 . S
C1964 H1956 0.929 . S
C1964 C1965 1.377 . S
C1964 C1966 1.384 . S
C1965 C1964 1.377 . S
C1965 C1971 1.390 . S
C1966 H1957 0.930 . S
C1966 C1964 1.384 . S
C1966 C1967 1.372 . S
C1967 C1966 1.372 . S
C1967 C1968 1.400 . S
C1967 C1972 1.490 . S
C1968 H1958 0.930 . S
C1968 C1967 1.400 . S
C1968 C1971 1.386 . S
H1969 C1985 0.930 . S
H1970 C1986 0.931 . S
C1971 H1959 0.929 . S
C1971 C1965 1.390 . S
C1971 C1968 1.386 . S
C1972 C1967 1.490 . S
C1972 C1974 1.395 . S
C1972 C1975 1.403 . S
H1973 C1979 0.930 . S
C1974 H1960 0.930 . S
C1974 C1972 1.395 . S
C1974 C1977 1.403 . S
C1975 C1972 1.403 . S
C1975 C1976 1.524 . S
C1975 C1979 1.400 . S
C1976 H1961 0.960 . S
C1976 H1962 0.960 . S
C1976 H1963 0.960 . S
C1976 C1975 1.524 . S
C1977 C1974 1.403 . S
C1977 C1978 1.392 . S
C1977 C1981 1.495 . S
C1978 C1977 1.392 . S
C1978 C1979 1.385 . S
C1978 C1980 1.478 . S
C1979 H1973 0.930 . S
C1979 C1975 1.400 . S
C1979 C1978 1.385 . S
C1980 C1978 1.478 . S
C1980 C1982 1.381 . S
C1980 C1986 1.383 . S
C1981 C1977 1.495 . S
C1981 H1987 0.959 . S
C1981 H1988 0.961 . S
C1981 H1989 0.960 . S
C1982 C1980 1.381 . S
C1982 C1983 1.394 . S
C1982 H1990 0.930 . S
C1983 C1982 1.394 . S
C1983 C1984 1.383 . S
C1983 H1991 0.929 . S
C1984 C1983 1.383 . S
C1984 C1985 1.377 . S
C1985 H1969 0.930 . S
C1985 C1984 1.377 . S
C1985 C1986 1.379 . S
C1986 H1970 0.931 . S
C1986 C1980 1.383 . S
C1986 C1985 1.379 . S
H1987 C1981 0.959 . S
H1988 C1981 0.961 . S
H1989 C1981 0.960 . S
H1990 C1982 0.930 . S
H1991 C1983 0.929 . S
H1992 C2000 0.929 . S
H1993 C2002 0.930 . S
H1994 C2004 0.930 . S
H1995 C2007 0.929 . S
H1996 C2010 0.930 . S
H1997 C2012 0.960 . S
H1998 C2012 0.960 . S
H1999 C2012 0.960 . S
C2000 H1992 0.929 . S
C2000 C2001 1.377 . S
C2000 C2002 1.384 . S
C2001 C2000 1.377 . S
C2001 C2007 1.390 . S
C2002 H1993 0.930 . S
C2002 C2000 1.384 . S
C2002 C2003 1.372 . S
C2003 C2002 1.372 . S
C2003 C2004 1.400 . S
C2003 C2008 1.490 . S
C2004 H1994 0.930 . S
C2004 C2003 1.400 . S
C2004 C2007 1.386 . S
H2005 C2021 0.930 . S
H2006 C2022 0.931 . S
C2007 H1995 0.929 . S
C2007 C2001 1.390 . S
C2007 C2004 1.386 . S
C2008 C2003 1.490 . S
C2008 C2010 1.395 . S
C2008 C2011 1.403 . S
H2009 C2015 0.930 . S
C2010 H1996 0.930 . S
C2010 C2008 1.395 . S
C2010 C2013 1.403 . S
C2011 C2008 1.403 . S
C2011 C2012 1.524 . S
C2011 C2015 1.400 . S
C2012 H1997 0.960 . S
C2012 H1998 0.960 . S
C2012 H1999 0.960 . S
C2012 C2011 1.524 . S
C2013 C2010 1.403 . S
C2013 C2014 1.392 . S
C2013 C2017 1.495 . S
C2014 C2013 1.392 . S
C2014 C2015 1.385 . S
C2014 C2016 1.478 . S
C2015 H2009 0.930 . S
C2015 C2011 1.400 . S
C2015 C2014 1.385 . S
C2016 C2014 1.478 . S
C2016 C2018 1.381 . S
C2016 C2022 1.383 . S
C2017 C2013 1.495 . S
C2017 H2023 0.959 . S
C2017 H2024 0.961 . S
C2017 H2025 0.960 . S
C2018 C2016 1.381 . S
C2018 C2019 1.394 . S
C2018 H2026 0.930 . S
C2019 C2018 1.394 . S
C2019 C2020 1.383 . S
C2019 H2027 0.929 . S
C2020 C2019 1.383 . S
C2020 C2021 1.377 . S
C2021 H2005 0.930 . S
C2021 C2020 1.377 . S
C2021 C2022 1.379 . S
C2022 H2006 0.931 . S
C2022 C2016 1.383 . S
C2022 C2021 1.379 . S
H2023 C2017 0.959 . S
H2024 C2017 0.961 . S
H2025 C2017 0.960 . S
H2026 C2018 0.930 . S
H2027 C2019 0.929 . S
H2028 C2036 0.929 . S
H2029 C2038 0.930 . S
H2030 C2040 0.930 . S
H2031 C2043 0.929 . S
H2032 C2046 0.930 . S
H2033 C2048 0.960 . S
H2034 C2048 0.960 . S
H2035 C2048 0.960 . S
C2036 H2028 0.929 . S
C2036 C2037 1.377 . S
C2036 C2038 1.384 . S
C2037 C2036 1.377 . S
C2037 C2043 1.390 . S
C2038 H2029 0.930 . S
C2038 C2036 1.384 . S
C2038 C2039 1.372 . S
C2039 C2038 1.372 . S
C2039 C2040 1.400 . S
C2039 C2044 1.490 . S
C2040 H2030 0.930 . S
C2040 C2039 1.400 . S
C2040 C2043 1.386 . S
H2041 C2057 0.930 . S
H2042 C2058 0.931 . S
C2043 H2031 0.929 . S
C2043 C2037 1.390 . S
C2043 C2040 1.386 . S
C2044 C2039 1.490 . S
C2044 C2046 1.395 . S
C2044 C2047 1.403 . S
H2045 C2051 0.930 . S
C2046 H2032 0.930 . S
C2046 C2044 1.395 . S
C2046 C2049 1.403 . S
C2047 C2044 1.403 . S
C2047 C2048 1.524 . S
C2047 C2051 1.400 . S
C2048 H2033 0.960 . S
C2048 H2034 0.960 . S
C2048 H2035 0.960 . S
C2048 C2047 1.524 . S
C2049 C2046 1.403 . S
C2049 C2050 1.392 . S
C2049 C2053 1.495 . S
C2050 C2049 1.392 . S
C2050 C2051 1.385 . S
C2050 C2052 1.478 . S
C2051 H2045 0.930 . S
C2051 C2047 1.400 . S
C2051 C2050 1.385 . S
C2052 C2050 1.478 . S
C2052 C2054 1.381 . S
C2052 C2058 1.383 . S
C2053 C2049 1.495 . S
C2053 H2059 0.959 . S
C2053 H2060 0.961 . S
C2053 H2061 0.960 . S
C2054 C2052 1.381 . S
C2054 C2055 1.394 . S
C2054 H2062 0.930 . S
C2055 C2054 1.394 . S
C2055 C2056 1.383 . S
C2055 H2063 0.929 . S
C2056 C2055 1.383 . S
C2056 C2057 1.377 . S
C2057 H2041 0.930 . S
C2057 C2056 1.377 . S
C2057 C2058 1.379 . S
C2058 H2042 0.931 . S
C2058 C2052 1.383 . S
C2058 C2057 1.379 . S
H2059 C2053 0.959 . S
H2060 C2053 0.961 . S
H2061 C2053 0.960 . S
H2062 C2054 0.930 . S
H2063 C2055 0.929 . S
C345 C205 1.533 . S
C364 C3 1.536 . S
C381 C23 1.516 . S
C400 C218 1.522 . S
C417 C259 1.520 . S
C436 C35 1.513 . S
C453 C50 1.526 . S
C472 C190 1.520 . S
C489 C204 1.586 . S
C508 C63 1.562 . S
C525 C79 1.531 . S
C544 C219 1.524 . S
C561 C87 1.537 . S
C580 C255 1.531 . S
C597 C106 1.524 . S
C616 C191 1.504 . S
C633 C129 1.542 . S
C652 C115 1.536 . S
C669 C149 1.600 . S
C688 C133 1.595 . S
C705 C148 1.521 . S
C724 C157 1.507 . S
C741 C161 1.519 . S
C760 C119 1.493 . S
C777 C176 1.524 . S
C796 C51 1.508 . S
C813 C59 1.540 . S
C832 C227 1.547 . S
C849 C246 1.525 . S
C868 C22 1.527 . S
C885 C21 1.431 . S
C904 C303 1.445 . S
C921 C134 1.417 . S
C940 C9 1.417 . S
C957 C329 1.409 . S
C976 C45 1.418 . S
C993 C162 1.400 . S
C1012 C36 1.393 . S
C1029 C302 1.453 . S
C1048 C101 1.453 . S
C1065 C135 1.426 . S
C1084 C93 1.433 . S
C1101 C77 1.398 . S
C1120 C325 1.418 . S
C1137 C64 1.404 . S
C1156 C163 1.400 . S
C1173 C217 1.406 . S
C1192 C273 1.396 . S
C1209 C232 1.453 . S
C1228 C213 1.443 . S
C1245 C189 1.437 . S
C1264 C233 1.449 . S
C1281 C269 1.425 . S
C1300 C185 1.411 . S
C1317 C37 1.408 . S
C1336 C288 1.411 . S
C1353 C143 1.423 . S
C1372 C105 1.412 . S
C1389 C8 1.399 . S
C1408 C316 1.392 . S
C1425 C275 1.536 . S
C1444 C31 1.537 . S
C1461 C7 1.520 . S
C1480 C231 1.524 . S
C1497 C274 1.585 . S
C1516 C91 1.547 . S
C1533 C177 1.534 . S
C1552 C107 1.523 . S
C1569 C78 1.523 . S
C1588 C247 1.497 . S
C1605 C297 1.545 . S
C1624 C283 1.540 . S
C1641 C331 1.599 . S
C1660 C287 1.589 . S
C1677 C311 1.519 . S
C1696 C330 1.515 . S
C1713 C301 1.507 . S
C1732 C315 1.524 . S
C1749 C121 1.441 . S
C1768 C49 1.443 . S
C1785 C17 1.429 . S
C1804 C147 1.394 . S
C1821 C73 1.450 . S
C1840 C120 1.453 . S
C1857 C289 1.430 . S
C1876 C65 1.413 . S
C1893 C92 1.405 . S
C1912 C317 1.382 . S
C1929 C175 1.406 . S
C1948 C203 1.393 . S
C1965 C260 1.454 . S
C1984 C171 1.446 . S
C2001 C245 1.438 . S
C2020 C261 1.447 . S
C2037 C199 1.422 . S
C2056 C241 1.426 . S
