# Generated by pormake.
# Topology lhb, (8)-cn, num edge types: 1
# Building blocks:
#     Node 0, Type 0, BuildingBlock: OLANAS_clean_sbu_2, # of connection points: 8
#     Node 1, Type 0, BuildingBlock: OLANAS_clean_sbu_2, # of connection points: 8
#     Node 2, Type 0, BuildingBlock: OLANAS_clean_sbu_2, # of connection points: 8
#     Node 3, Type 0, BuildingBlock: OLANAS_clean_sbu_2, # of connection points: 8
#     Node 4, Type 0, BuildingBlock: OLANAS_clean_sbu_2, # of connection points: 8
#     Node 5, Type 0, BuildingBlock: OLANAS_clean_sbu_2, # of connection points: 8
#     Node 6, Type 0, BuildingBlock: OLANAS_clean_sbu_2, # of connection points: 8
#     Node 7, Type 0, BuildingBlock: OLANAS_clean_sbu_2, # of connection points: 8
#     Edge 8, Type (0, 0), BuildingBlock: AJUNOK_clean_linker_0, # of connection points: 2
#     Edge 9, Type (0, 0), BuildingBlock: AJUNOK_clean_linker_0, # of connection points: 2
#     Edge 10, Type (0, 0), BuildingBlock: AJUNOK_clean_linker_0, # of connection points: 2
#     Edge 11, Type (0, 0), BuildingBlock: AJUNOK_clean_linker_0, # of connection points: 2
#     Edge 12, Type (0, 0), BuildingBlock: AJUNOK_clean_linker_0, # of connection points: 2
#     Edge 13, Type (0, 0), BuildingBlock: AJUNOK_clean_linker_0, # of connection points: 2
#     Edge 14, Type (0, 0), BuildingBlock: AJUNOK_clean_linker_0, # of connection points: 2
#     Edge 15, Type (0, 0), BuildingBlock: AJUNOK_clean_linker_0, # of connection points: 2
#     Edge 16, Type (0, 0), BuildingBlock: AJUNOK_clean_linker_0, # of connection points: 2
#     Edge 17, Type (0, 0), BuildingBlock: AJUNOK_clean_linker_0, # of connection points: 2
#     Edge 18, Type (0, 0), BuildingBlock: AJUNOK_clean_linker_0, # of connection points: 2
#     Edge 19, Type (0, 0), BuildingBlock: AJUNOK_clean_linker_0, # of connection points: 2
#     Edge 20, Type (0, 0), BuildingBlock: AJUNOK_clean_linker_0, # of connection points: 2
#     Edge 21, Type (0, 0), BuildingBlock: AJUNOK_clean_linker_0, # of connection points: 2
#     Edge 22, Type (0, 0), BuildingBlock: AJUNOK_clean_linker_0, # of connection points: 2
#     Edge 23, Type (0, 0), BuildingBlock: AJUNOK_clean_linker_0, # of connection points: 2
#     Edge 24, Type (0, 0), BuildingBlock: AJUNOK_clean_linker_0, # of connection points: 2
#     Edge 25, Type (0, 0), BuildingBlock: AJUNOK_clean_linker_0, # of connection points: 2
#     Edge 26, Type (0, 0), BuildingBlock: AJUNOK_clean_linker_0, # of connection points: 2
#     Edge 27, Type (0, 0), BuildingBlock: AJUNOK_clean_linker_0, # of connection points: 2
#     Edge 28, Type (0, 0), BuildingBlock: AJUNOK_clean_linker_0, # of connection points: 2
#     Edge 29, Type (0, 0), BuildingBlock: AJUNOK_clean_linker_0, # of connection points: 2
#     Edge 30, Type (0, 0), BuildingBlock: AJUNOK_clean_linker_0, # of connection points: 2
#     Edge 31, Type (0, 0), BuildingBlock: AJUNOK_clean_linker_0, # of connection points: 2
#     Edge 32, Type (0, 0), BuildingBlock: AJUNOK_clean_linker_0, # of connection points: 2
#     Edge 33, Type (0, 0), BuildingBlock: AJUNOK_clean_linker_0, # of connection points: 2
#     Edge 34, Type (0, 0), BuildingBlock: AJUNOK_clean_linker_0, # of connection points: 2
#     Edge 35, Type (0, 0), BuildingBlock: AJUNOK_clean_linker_0, # of connection points: 2
#     Edge 36, Type (0, 0), BuildingBlock: AJUNOK_clean_linker_0, # of connection points: 2
#     Edge 37, Type (0, 0), BuildingBlock: AJUNOK_clean_linker_0, # of connection points: 2
#     Edge 38, Type (0, 0), BuildingBlock: AJUNOK_clean_linker_0, # of connection points: 2
#     Edge 39, Type (0, 0), BuildingBlock: AJUNOK_clean_linker_0, # of connection points: 2
# Relax obj value: 0.220
# Max RMSD: 0.285
# Mean RMSD: 0.285
data_MOF--net-lhb--node1-OLANAS_clean_sbu_2--edge1-AJUNOK_clean_linker_0
_symmetry_space_group_name_H-M    P1
_symmetry_Int_Tables_number       1
_symmetry_cell_setting            triclinic
loop_
_symmetry_equiv_pos_as_xyz
'x, y, z'
_cell_length_a     24.331771
_cell_length_b     15.14555
_cell_length_c     51.854121
_cell_angle_alpha  89.98344
_cell_angle_beta   89.893221
_cell_angle_gamma 89.981164
loop_
_atom_site_label
_atom_site_type_symbol
_atom_site_fract_x
_atom_site_fract_y
_atom_site_fract_z
_atom_type_partial_charge
C0 C 0.05008 0.90293 0.01541 0.0
O1 O 0.05905 0.84104 0.03269 0.0
C2 C 0.09423 0.93806 -0.00116 0.0
C3 C 0.14991 0.91504 -0.00195 0.0
C4 C 0.18412 0.95953 0.98013 0.0
C5 C 0.16239 0.02502 0.96351 0.0
C6 C 0.10621 0.04383 0.96526 0.0
N7 N 0.07646 1.00051 0.9828 0.0
N8 N 0.01357 0.12026 0.01054 0.0
Co9 Co 0.00337 0.02916 0.98478 0.0
N10 N 0.93031 0.05817 0.98636 0.0
C11 C 0.8615 0.14994 0.0033 0.0
C12 C 0.82388 0.10733 0.9866 0.0
C13 C 0.84157 0.03965 0.96966 0.0
C14 C 0.89732 1.01704 0.96974 0.0
C15 C 0.91643 0.12273 0.00259 0.0
N16 N 0.98178 0.94253 0.95921 0.0
N17 N 0.99898 0.93879 0.01153 0.0
N18 N 0.01943 0.11545 0.95811 0.0
C19 C 0.96408 0.15752 0.01686 0.0
O20 O 0.95968 0.22092 0.03405 0.0
C21 C 0.07351 0.10959 0.95094 0.0
O22 O 0.09563 0.16381 0.93406 0.0
C23 C 0.98395 0.18657 0.95048 0.0
C24 C 0.95897 0.34309 0.95045 0.0
C25 C 0.99296 0.27378 0.95912 0.0
C26 C 0.94354 0.17029 0.93205 0.0
C27 C 0.90927 0.23845 0.92339 0.0
C28 C 0.91419 0.32235 0.93449 0.0
C29 C 0.92669 0.9502 0.95421 0.0
O30 O 0.90101 0.89648 0.9384 0.0
C31 C 0.01439 0.86887 0.95077 0.0
C32 C 0.05213 0.88096 0.93069 0.0
C33 C 0.08006 0.80859 0.92002 0.0
C34 C 0.07187 0.72449 0.93056 0.0
C35 C 0.03169 0.71003 0.94952 0.0
C36 C 0.00365 0.78292 0.96003 0.0
C37 C 0.95255 0.91948 0.02778 0.0
C38 C 0.90348 0.88585 0.01731 0.0
C39 C 0.85674 0.87618 0.03289 0.0
C40 C 0.86045 0.89392 0.05928 0.0
C41 C 0.91011 0.92092 0.07022 0.0
C42 C 0.95608 0.93393 0.0545 0.0
C43 C 0.0642 0.14158 0.02303 0.0
C44 C 0.1662 0.16714 0.04642 0.0
C45 C 0.12349 0.12703 0.06017 0.0
C46 C 0.07241 0.1151 0.04853 0.0
C47 C 0.10609 0.18681 0.0098 0.0
C48 C 0.1576 0.19829 0.02131 0.0
H49 H 0.16649 0.86503 0.01076 0.0
H50 H 0.22742 0.94348 0.97917 0.0
H51 H 0.1886 0.05958 0.94998 0.0
H52 H 0.84812 0.20226 0.01605 0.0
H53 H 0.78108 0.12678 0.98678 0.0
H54 H 0.81278 1.00685 0.957 0.0
H55 H 0.02801 0.28807 0.97117 0.0
H56 H 0.94218 0.10584 0.92306 0.0
H57 H 0.88738 0.37483 0.92783 0.0
H58 H 0.05584 0.94561 0.92192 0.0
H59 H 0.09199 0.66815 0.9217 0.0
H60 H 0.97107 0.77251 0.97396 0.0
H61 H 0.90142 0.86707 -0.0027 0.0
H62 H 0.82451 0.88571 0.07149 0.0
H63 H 0.99416 0.95612 0.06299 0.0
H64 H 0.20555 0.17772 0.05575 0.0
H65 H 0.03934 0.08432 0.05914 0.0
H66 H 0.099 0.21284 -0.00925 0.0
C67 C 0.21993 0.1321 0.26809 0.0
O68 O 0.21935 0.06669 0.28475 0.0
C69 C 0.17005 0.16259 0.25469 0.0
C70 C 0.11627 0.13042 0.25631 0.0
C71 C 0.07572 0.17062 0.24062 0.0
C72 C 0.08947 0.24098 0.22378 0.0
C73 C 0.14414 0.26954 0.22324 0.0
N74 N 0.18015 0.22946 0.23864 0.0
N75 N 0.24366 0.35396 0.26429 0.0
Co76 Co 0.25147 0.26799 0.23672 0.0
N77 N 0.32275 0.30632 0.23452 0.0
C78 C 0.39241 0.39839 0.25034 0.0
C79 C 0.42801 0.36073 0.23168 0.0
C80 C 0.40888 0.29515 0.2144 0.0
C81 C 0.35391 0.26889 0.21639 0.0
C82 C 0.338 0.36866 0.25117 0.0
N83 N 0.27041 0.18808 0.20895 0.0
N84 N 0.26735 0.17504 0.26134 0.0
N85 N 0.22426 0.35492 0.21249 0.0
C86 C 0.29282 0.39558 0.26846 0.0
O87 O 0.29958 0.45339 0.28709 0.0
C88 C 0.16927 0.34194 0.20831 0.0
O89 O 0.14042 0.39351 0.19307 0.0
C90 C 0.25373 0.42974 0.20263 0.0
C91 C 0.26535 0.5893 0.1993 0.0
C92 C 0.24266 0.51527 0.21182 0.0
C93 C 0.2886 0.41824 0.18154 0.0
C94 C 0.30989 0.49106 0.168 0.0
C95 C 0.298 0.5763 0.1772 0.0
C96 C 0.32385 0.2013 0.20155 0.0
O97 O 0.34772 0.15263 0.18378 0.0
C98 C 0.23773 0.11601 0.19968 0.0
C99 C 0.2069 0.12776 0.17729 0.0
C100 C 0.18136 0.05558 0.16549 0.0
C101 C 0.18407 0.97216 0.17703 0.0
C102 C 0.21498 0.95861 0.19951 0.0
C103 C 0.24225 0.03119 0.2107 0.0
C104 C 0.31985 0.15597 0.2724 0.0
C105 C 0.3615 0.11471 0.25792 0.0
C106 C 0.41408 0.10418 0.2685 0.0
C107 C 0.4242 0.1334 0.29368 0.0
C108 C 0.3818 0.16881 0.30863 0.0
C109 C 0.32954 0.17819 0.2981 0.0
C110 C 0.19778 0.35892 0.28155 0.0
C111 C 0.10471 0.32702 0.31077 0.0
C112 C 0.15631 0.30832 0.32112 0.0
C113 C 0.2031 0.32622 0.30664 0.0
C114 C 0.14678 0.39263 0.27329 0.0
C115 C 0.09938 0.38008 0.2886 0.0
H116 H 0.10588 0.0763 0.26904 0.0
H117 H 0.03375 0.14719 0.24146 0.0
H118 H 0.05852 0.27174 0.21181 0.0
H119 H 0.40701 0.44843 0.26355 0.0
H120 H 0.47038 0.38219 0.23065 0.0
H121 H 0.4361 0.26606 0.20023 0.0
H122 H 0.21551 0.52379 0.2282 0.0
H123 H 0.29589 0.35188 0.17471 0.0
H124 H 0.31054 0.63354 0.16617 0.0
H125 H 0.20649 0.19196 0.16803 0.0
H126 H 0.16581 0.91627 0.16718 0.0
H127 H 0.26842 0.02107 0.22727 0.0
H128 H 0.35314 0.08973 0.23884 0.0
H129 H 0.46436 0.12333 0.30228 0.0
H130 H 0.29652 0.20261 0.30993 0.0
H131 H 0.06875 0.30811 0.32181 0.0
H132 H 0.24313 0.31337 0.31462 0.0
H133 H 0.14532 0.43006 0.2556 0.0
C134 C 0.70872 0.60026 0.25988 0.0
O135 O 0.69917 0.53891 0.27726 0.0
C136 C 0.66514 0.63575 0.24307 0.0
C137 C 0.61007 0.61017 0.24103 0.0
C138 C 0.57651 0.65558 0.22308 0.0
C139 C 0.59832 0.72429 0.2076 0.0
C140 C 0.65393 0.74552 0.21053 0.0
N141 N 0.68289 0.70157 0.22817 0.0
N142 N 0.74218 0.82009 0.25823 0.0
Co143 Co 0.75531 0.73223 0.2314 0.0
N144 N 0.82792 0.7626 0.23432 0.0
C145 C 0.8951 0.84992 0.25426 0.0
C146 C 0.93463 0.80819 0.23827 0.0
C147 C 0.91875 0.74289 0.22021 0.0
C148 C 0.86299 0.72095 0.2187 0.0
C149 C 0.84009 0.82468 0.25161 0.0
N150 N 0.77985 0.64865 0.2053 0.0
N151 N 0.75933 0.63868 0.257 0.0
N152 N 0.7402 0.8214 0.20538 0.0
C153 C 0.79114 0.85722 0.26549 0.0
O154 O 0.79418 0.91821 0.28347 0.0
C155 C 0.68675 0.8141 0.19734 0.0
O156 O 0.66489 0.86973 0.1808 0.0
C157 C 0.77386 0.89739 0.2 0.0
C158 C 0.78916 0.05678 0.20163 0.0
C159 C 0.75841 0.9821 0.20878 0.0
C160 C 0.81798 0.88913 0.18283 0.0
C161 C 0.84859 0.9636 0.17525 0.0
C162 C 0.83689 0.04532 0.18681 0.0
C163 C 0.83562 0.65491 0.20221 0.0
O164 O 0.86305 0.60303 0.18646 0.0
C165 C 0.74704 0.5798 0.19402 0.0
C166 C 0.71056 0.601 0.17423 0.0
C167 C 0.67638 0.53651 0.16335 0.0
C168 C 0.67882 0.44995 0.17302 0.0
C169 C 0.72037 0.42419 0.19043 0.0
C170 C 0.75332 0.49089 0.20157 0.0
C171 C 0.80318 0.62825 0.27515 0.0
C172 C 0.85377 0.59013 0.26783 0.0
C173 C 0.8988 0.59413 0.28484 0.0
C174 C 0.89331 0.64491 0.30737 0.0
C175 C 0.84165 0.67014 0.3163 0.0
C176 C 0.7961 0.65891 0.30043 0.0
C177 C 0.69069 0.83953 0.27066 0.0
C178 C 0.58827 0.86362 0.29423 0.0
C179 C 0.63222 0.83074 0.30863 0.0
C180 C 0.68378 0.82159 0.29701 0.0
C181 C 0.64734 0.87886 0.25695 0.0
C182 C 0.59593 0.89074 0.26865 0.0
H183 H 0.5935 0.55742 0.25278 0.0
H184 H 0.53369 0.63751 0.22116 0.0
H185 H 0.57266 0.75917 0.19395 0.0
H186 H 0.90721 0.89984 0.26805 0.0
H187 H 0.97749 0.82639 0.23988 0.0
H188 H 0.94894 0.71101 0.20801 0.0
H189 H 0.72065 0.99066 0.2195 0.0
H190 H 0.82442 0.82599 0.17354 0.0
H191 H 0.85945 0.10348 0.18069 0.0
H192 H 0.71054 0.66762 0.16667 0.0
H193 H 0.6501 0.40141 0.16576 0.0
H194 H 0.7849 0.47405 0.21541 0.0
H195 H 0.85684 0.55519 0.2497 0.0
H196 H 0.92848 0.65464 0.3199 0.0
H197 H 0.75561 0.67418 0.30751 0.0
H198 H 0.54877 0.87355 0.30355 0.0
H199 H 0.71827 0.80092 0.3085 0.0
H200 H 0.65355 0.90245 0.2376 0.0
C201 C 0.04932 0.38965 0.51286 0.0
O202 O 0.05873 0.33104 0.53104 0.0
C203 C 0.09367 0.42673 0.49675 0.0
C204 C 0.14986 0.40702 0.49672 0.0
C205 C 0.18368 0.45018 0.47835 0.0
C206 C 0.16101 0.51069 0.46043 0.0
C207 C 0.10438 0.5265 0.46152 0.0
N208 N 0.07516 0.48539 0.47969 0.0
N209 N 0.0038 0.60102 0.50466 0.0
Co210 Co 0.00102 0.50553 0.4795 0.0
N211 N 0.92689 0.5257 0.47873 0.0
C212 C 0.85196 0.61091 0.49257 0.0
C213 C 0.81869 0.56175 0.4754 0.0
C214 C 0.84171 0.49452 0.45976 0.0
C215 C 0.89827 0.47921 0.46155 0.0
C216 C 0.90796 0.5904 0.49372 0.0
N217 N 0.98695 0.4127 0.45442 0.0
N218 N 0.99741 0.41902 0.50722 0.0
N219 N 0.01586 0.58953 0.45199 0.0
C220 C 0.95176 0.63264 0.50894 0.0
O221 O 0.94169 0.69671 0.52539 0.0
C222 C 0.07059 0.58681 0.44573 0.0
O223 O 0.09252 0.64188 0.42903 0.0
C224 C 0.98073 0.66252 0.44524 0.0
C225 C 0.95718 0.81932 0.44818 0.0
C226 C 0.99081 0.74757 0.45522 0.0
C227 C 0.93897 0.65077 0.42698 0.0
C228 C 0.90512 0.72191 0.41972 0.0
C229 C 0.91188 0.80341 0.43207 0.0
C230 C 0.93255 0.41442 0.44756 0.0
O231 O 0.91109 0.35498 0.43209 0.0
C232 C 0.02152 0.33675 0.45008 0.0
C233 C 0.06413 0.34124 0.43191 0.0
C234 C 0.0948 0.26533 0.42554 0.0
C235 C 0.08556 0.18721 0.4394 0.0
C236 C 0.03925 0.17889 0.45527 0.0
C237 C 0.00816 0.25435 0.46111 0.0
C238 C 0.94963 0.39548 0.52201 0.0
C239 C 0.90506 0.3521 0.51038 0.0
C240 C 0.85721 0.33474 0.52444 0.0
C241 C 0.85443 0.35866 0.55047 0.0
C242 C 0.8995 0.39805 0.56255 0.0
C243 C 0.94723 0.4157 0.5484 0.0
C244 C 0.05016 0.62558 0.52021 0.0
C245 C 0.14197 0.66377 0.55061 0.0
C246 C 0.09433 0.63093 0.56218 0.0
C247 C 0.04839 0.61213 0.54702 0.0
C248 C 0.09743 0.66293 0.50894 0.0
C249 C 0.14385 0.68018 0.52408 0.0
H250 H 0.16703 0.35993 0.51018 0.0
H251 H 0.22732 0.43648 0.47792 0.0
H252 H 0.18679 0.5435 0.44636 0.0
H253 H 0.83453 0.66299 0.50431 0.0
H254 H 0.77516 0.57582 0.47417 0.0
H255 H 0.81626 0.45665 0.44673 0.0
H256 H 0.02642 0.75822 0.46726 0.0
H257 H 0.93564 0.58775 0.41726 0.0
H258 H 0.88528 0.85783 0.42668 0.0
H259 H 0.0698 0.40188 0.42115 0.0
H260 H 0.10888 0.12839 0.43461 0.0
H261 H 0.97136 0.24724 0.47255 0.0
H262 H 0.90708 0.33146 0.49059 0.0
H263 H 0.81729 0.34559 0.56145 0.0
H264 H 0.98204 0.44602 0.55779 0.0
H265 H 0.17784 0.67706 0.56241 0.0
H266 H 0.01164 0.58631 0.55598 0.0
H267 H 0.09829 0.67883 0.48868 0.0
C268 C 0.20273 0.64545 0.76343 0.0
O269 O 0.19707 0.58205 0.78055 0.0
C270 C 0.15601 0.68003 0.74845 0.0
C271 C 0.10114 0.65246 0.74839 0.0
C272 C 0.06434 0.69549 0.73137 0.0
C273 C 0.08279 0.76396 0.71488 0.0
C274 C 0.13837 0.78733 0.71587 0.0
N275 N 0.1706 0.74543 0.73267 0.0
N276 N 0.23632 0.86511 0.75909 0.0
Co277 Co 0.24351 0.77567 0.73236 0.0
N278 N 0.31639 0.80579 0.73165 0.0
C279 C 0.38685 0.8978 0.74671 0.0
C280 C 0.42224 0.857 0.72854 0.0
C281 C 0.40263 0.78988 0.71191 0.0
C282 C 0.34735 0.76547 0.71396 0.0
C283 C 0.33211 0.86976 0.74767 0.0
N284 N 0.26203 0.69079 0.70563 0.0
N285 N 0.25256 0.68377 0.75826 0.0
N286 N 0.22305 0.863 0.70662 0.0
C287 C 0.2865 0.90284 0.76375 0.0
O288 O 0.29332 0.96491 0.78117 0.0
C289 C 0.1683 0.855 0.70095 0.0
O290 O 0.14341 0.90832 0.68472 0.0
C291 C 0.25611 0.93581 0.69785 0.0
C292 C 0.27385 0.09462 0.69571 0.0
C293 C 0.24578 0.0225 0.70669 0.0
C294 C 0.29294 0.92248 0.67745 0.0
C295 C 0.32073 0.99402 0.66623 0.0
C296 C 0.31386 0.0785 0.67675 0.0
C297 C 0.31638 0.69885 0.69914 0.0
O298 O 0.33996 0.64708 0.68205 0.0
C299 C 0.22749 0.62026 0.69664 0.0
C300 C 0.1894 0.63734 0.67708 0.0
C301 C 0.1563 0.56942 0.6672 0.0
C302 C 0.16031 0.48501 0.67814 0.0
C303 C 0.20313 0.46355 0.69523 0.0
C304 C 0.23576 0.53267 0.70511 0.0
C305 C 0.30129 0.66511 0.77284 0.0
C306 C 0.34734 0.62538 0.76114 0.0
C307 C 0.39562 0.61265 0.77541 0.0
C308 C 0.39712 0.63735 0.80138 0.0
C309 C 0.35091 0.67327 0.81336 0.0
C310 C 0.30282 0.68598 0.7992 0.0
C311 C 0.18804 0.88395 0.77405 0.0
C312 C 0.09186 0.90754 0.80279 0.0
C313 C 0.13871 0.87329 0.81466 0.0
C314 C 0.18704 0.86298 0.80041 0.0
C315 C 0.14181 0.92396 0.76271 0.0
C316 C 0.09335 0.93466 0.77703 0.0
H317 H 0.08718 0.5996 0.76082 0.0
H318 H 0.02162 0.67568 0.73093 0.0
H319 H 0.05468 0.79686 0.70189 0.0
H320 H 0.4017 0.94957 0.75928 0.0
H321 H 0.46477 0.87748 0.72733 0.0
H322 H 0.42961 0.75887 0.69798 0.0
H323 H 0.21351 0.03406 0.72069 0.0
H324 H 0.29627 0.85734 0.66897 0.0
H325 H 0.33501 0.13399 0.66799 0.0
H326 H 0.18877 0.70238 0.66843 0.0
H327 H 0.13401 0.4329 0.67087 0.0
H328 H 0.26938 0.51842 0.7181 0.0
H329 H 0.34565 0.60401 0.74129 0.0
H330 H 0.43464 0.62846 0.81239 0.0
H331 H 0.26694 0.7127 0.80859 0.0
H332 H 0.05452 0.91635 0.814 0.0
H333 H 0.22347 0.83816 0.80973 0.0
H334 H 0.1435 0.94762 0.7431 0.0
C335 C 0.7045 0.17058 0.76758 0.0
O336 O 0.6955 0.10926 0.78504 0.0
C337 C 0.66024 0.20709 0.7515 0.0
C338 C 0.60404 0.18752 0.7517 0.0
C339 C 0.5697 0.23347 0.73422 0.0
C340 C 0.59179 0.29718 0.7171 0.0
C341 C 0.6484 0.31303 0.71802 0.0
N342 N 0.67846 0.26772 0.73495 0.0
N343 N 0.74438 0.3865 0.76166 0.0
Co344 Co 0.75217 0.29332 0.73605 0.0
N345 N 0.82579 0.3197 0.73679 0.0
C346 C 0.89644 0.41046 0.7524 0.0
C347 C 0.93289 0.36557 0.73559 0.0
C348 C 0.91358 0.29794 0.71908 0.0
C349 C 0.85763 0.27687 0.72001 0.0
C350 C 0.84114 0.38514 0.75237 0.0
N351 N 0.77217 0.20361 0.71087 0.0
N352 N 0.75587 0.20414 0.76292 0.0
N353 N 0.73631 0.37896 0.70907 0.0
C354 C 0.79473 0.42257 0.76696 0.0
O355 O 0.80114 0.48589 0.78403 0.0
C356 C 0.68153 0.37659 0.70306 0.0
O357 O 0.65959 0.43024 0.686 0.0
C358 C 0.77285 0.44532 0.69915 0.0
C359 C 0.79804 0.60099 0.69409 0.0
C360 C 0.76665 0.53472 0.70635 0.0
C361 C 0.80836 0.42313 0.67896 0.0
C362 C 0.83998 0.48812 0.66669 0.0
C363 C 0.83737 0.57529 0.67566 0.0
C364 C 0.827 0.21059 0.70504 0.0
O365 O 0.85141 0.15718 0.68863 0.0
C366 C 0.73914 0.13062 0.70227 0.0
C367 C 0.69825 0.14729 0.68421 0.0
C368 C 0.67794 0.0798 0.66847 0.0
C369 C 0.69191 0.99214 0.67439 0.0
C370 C 0.73055 0.97227 0.69369 0.0
C371 C 0.75477 0.04245 0.70741 0.0
C372 C 0.80311 0.17978 0.7777 0.0
C373 C 0.84812 0.13685 0.76617 0.0
C374 C 0.89499 0.11753 0.78073 0.0
C375 C 0.8955 0.13715 0.8071 0.0
C376 C 0.84951 0.17494 0.81888 0.0
C377 C 0.80349 0.19631 0.80423 0.0
C378 C 0.69607 0.40591 0.77645 0.0
C379 C 0.59908 0.42726 0.80461 0.0
C380 C 0.64643 0.39651 0.81693 0.0
C381 C 0.69495 0.38606 0.80286 0.0
C382 C 0.64968 0.44378 0.76474 0.0
C383 C 0.60048 0.45181 0.7786 0.0
H384 H 0.58718 0.13908 0.76487 0.0
H385 H 0.52603 0.22003 0.73402 0.0
H386 H 0.56554 0.33281 0.70387 0.0
H387 H 0.91096 0.46314 0.76473 0.0
H388 H 0.97591 0.3836 0.73521 0.0
H389 H 0.94131 0.26396 0.7061 0.0
H390 H 0.7349 0.55249 0.72006 0.0
H391 H 0.80752 0.35646 0.67144 0.0
H392 H 0.86205 0.62524 0.66612 0.0
H393 H 0.6871 0.2147 0.68043 0.0
H394 H 0.67634 0.93902 0.6625 0.0
H395 H 0.78801 0.02915 0.72069 0.0
H396 H 0.84681 0.11747 0.74622 0.0
H397 H 0.93154 0.12188 0.81857 0.0
H398 H 0.76806 0.22563 0.81346 0.0
H399 H 0.5613 0.43457 0.81557 0.0
H400 H 0.73143 0.36147 0.81229 0.0
H401 H 0.65164 0.46668 0.74505 0.0
C402 C 0.54066 0.86624 0.51479 0.0
O403 O 0.54394 0.80367 0.5323 0.0
C404 C 0.58798 0.89283 0.49878 0.0
C405 C 0.64109 0.85747 0.49792 0.0
C406 C 0.67837 0.89243 0.47954 0.0
C407 C 0.66197 0.96027 0.46238 0.0
C408 C 0.60802 0.99157 0.46422 0.0
N409 N 0.57551 0.95773 0.48245 0.0
N410 N 0.51669 0.08703 0.50886 0.0
Co411 Co 0.50426 0.99711 0.4829 0.0
N412 N 0.43291 0.0361 0.48287 0.0
C413 C 0.36724 0.13579 0.49868 0.0
C414 C 0.32923 0.09842 0.48113 0.0
C415 C 0.34516 0.02915 0.46434 0.0
C416 C 0.39944 0.99902 0.46567 0.0
C417 C 0.42072 0.10186 0.49896 0.0
N418 N 0.48051 0.91331 0.45703 0.0
N419 N 0.49249 0.90944 0.50959 0.0
N420 N 0.52732 0.0787 0.45629 0.0
C421 C 0.46853 0.13026 0.51425 0.0
O422 O 0.46581 0.19531 0.53098 0.0
C423 C 0.58033 0.06091 0.44903 0.0
O424 O 0.60639 0.10869 0.43173 0.0
C425 C 0.49759 0.1548 0.44764 0.0
C426 C 0.47858 0.31329 0.44945 0.0
C427 C 0.50448 0.23769 0.45963 0.0
C428 C 0.46634 0.14821 0.42523 0.0
C429 C 0.4424 0.22345 0.4144 0.0
C430 C 0.44708 0.30482 0.42695 0.0
C431 C 0.42666 0.9284 0.45079 0.0
O432 O 0.4 0.87863 0.43424 0.0
C433 C 0.51095 0.8386 0.44779 0.0
C434 C 0.54218 0.84699 0.42531 0.0
C435 C 0.56678 0.77278 0.41406 0.0
C436 C 0.56047 0.68987 0.42569 0.0
C437 C 0.52898 0.67974 0.44827 0.0
C438 C 0.50469 0.75518 0.45941 0.0
C439 C 0.44262 0.89515 0.52365 0.0
C440 C 0.39746 0.85382 0.51182 0.0
C441 C 0.34781 0.84502 0.52525 0.0
C442 C 0.34415 0.87477 0.55072 0.0
C443 C 0.38953 0.91268 0.56294 0.0
C444 C 0.43887 0.92284 0.54941 0.0
C445 C 0.56741 0.10399 0.52187 0.0
C446 C 0.66785 0.12371 0.54671 0.0
C447 C 0.62052 0.10759 0.56138 0.0
C448 C 0.57058 0.09352 0.54872 0.0
C449 C 0.61331 0.13568 0.50819 0.0
C450 C 0.66409 0.14364 0.52052 0.0
H451 H 0.65327 0.80453 0.51071 0.0
H452 H 0.71976 0.86652 0.47846 0.0
H453 H 0.69033 0.98671 0.44825 0.0
H454 H 0.35527 0.18931 0.51133 0.0
H455 H 0.28754 0.12323 0.4805 0.0
H456 H 0.31616 1.00065 0.45091 0.0
H457 H 0.53095 0.24382 0.47627 0.0
H458 H 0.46414 0.08537 0.41526 0.0
H459 H 0.42969 0.36308 0.41792 0.0
H460 H 0.54436 0.91056 0.41576 0.0
H461 H 0.57744 0.63224 0.41615 0.0
H462 H 0.47962 0.74884 0.47655 0.0
H463 H 0.40074 0.82872 0.49239 0.0
H464 H 0.30579 0.86747 0.56124 0.0
H465 H 0.47382 0.95354 0.55865 0.0
H466 H 0.70733 0.12996 0.55623 0.0
H467 H 0.53399 0.07757 0.55966 0.0
H468 H 0.60951 0.15647 0.48841 0.0
C469 C 0.53574 0.44021 0.01736 0.0
O470 O 0.53861 0.37861 0.03518 0.0
C471 C 0.58458 0.47156 0.00316 0.0
C472 C 0.63947 0.44525 0.0055 0.0
C473 C 0.67882 0.48599 0.9892 0.0
C474 C 0.66288 0.55112 0.97107 0.0
C475 C 0.60719 0.57365 0.96975 0.0
N476 N 0.57236 0.53338 0.98579 0.0
N477 N 0.50519 0.65827 0.00886 0.0
Co478 Co 0.49996 0.56519 0.98329 0.0
N479 N 0.42765 0.59739 0.98042 0.0
C480 C 0.35684 0.69409 -0.00753 0.0
C481 C 0.32315 0.65185 0.97394 0.0
C482 C 0.34395 0.5822 0.9585 0.0
C483 C 0.3986 0.55648 0.9622 0.0
C484 C 0.41094 0.66422 -0.00479 0.0
N485 N 0.48354 0.4768 0.95733 0.0
N486 N 0.48693 0.47818 0.01025 0.0
N487 N 0.52424 0.6479 0.95697 0.0
C488 C 0.45511 0.6982 0.01193 0.0
O489 O 0.44716 0.76249 0.02855 0.0
C490 C 0.57972 0.63962 0.95322 0.0
O491 O 0.607 0.69079 0.93721 0.0
C492 C 0.49175 0.71812 0.94621 0.0
C493 C 0.46459 0.87377 0.94446 0.0
C494 C 0.4974 0.80582 0.95499 0.0
C495 C 0.45647 0.69982 0.92566 0.0
C496 C 0.42336 0.76629 0.91504 0.0
C497 C 0.42454 0.85079 0.92607 0.0
C498 C 0.43059 0.48718 0.94888 0.0
O499 O 0.40846 0.43397 0.93178 0.0
C500 C 0.51713 0.40203 0.9507 0.0
C501 C 0.55794 0.41233 0.93192 0.0
C502 C 0.58646 0.33881 0.9223 0.0
C503 C 0.57634 0.2555 0.93303 0.0
C504 C 0.53272 0.24248 0.95033 0.0
C505 C 0.50374 0.31645 0.9596 0.0
C506 C 0.43519 0.45929 0.02244 0.0
C507 C 0.39193 0.4221 0.00823 0.0
C508 C 0.33994 0.41225 0.01934 0.0
C509 C 0.33204 0.43734 0.04499 0.0
C510 C 0.37652 0.46187 0.06062 0.0
C511 C 0.42819 0.47409 0.04902 0.0
C512 C 0.55177 0.6765 0.02485 0.0
C513 C 0.64466 0.70087 0.0556 0.0
C514 C 0.5983 0.65934 0.06587 0.0
C515 C 0.55181 0.64736 0.05051 0.0
C516 C 0.59811 0.72038 0.01481 0.0
C517 C 0.64504 0.73114 0.03013 0.0
H518 H 0.65162 0.39535 0.0193 0.0
H519 H 0.72161 0.46719 -0.00936 0.0
H520 H 0.69295 0.58246 0.95869 0.0
H521 H 0.34125 0.74825 0.00396 0.0
H522 H 0.28113 0.67352 0.9714 0.0
H523 H 0.31837 0.55036 0.94422 0.0
H524 H 0.52875 0.82089 0.96907 0.0
H525 H 0.45687 0.63438 0.91726 0.0
H526 H 0.39723 0.90118 0.91861 0.0
H527 H 0.56323 0.47649 0.92303 0.0
H528 H 0.59721 0.19833 0.92505 0.0
H529 H 0.46861 0.30697 0.97211 0.0
H530 H 0.39875 0.39836 0.98893 0.0
H531 H 0.29153 0.42972 0.05346 0.0
H532 H 0.46336 0.49168 0.06058 0.0
H533 H 0.68122 0.70804 0.0674 0.0
H534 H 0.51634 0.61369 0.05824 0.0
H535 H 0.59798 0.745 -0.00475 0.0
C536 C 0.10618 0.14412 0.1072 0.0
C537 C 0.13265 0.09944 0.08694 0.0
C538 C 0.12057 0.12741 0.1329 0.0
C539 C 0.16101 0.06447 0.1389 0.0
H540 H 0.07608 0.19491 0.10308 0.0
H541 H 0.10113 0.16537 0.1481 0.0
S542 S 0.23986 0.92727 0.09252 0.0
N543 N 0.19906 0.98804 0.07431 0.0
N544 N 0.226 0.95567 0.12259 0.0
C545 C 0.18601 1.01697 0.11875 0.0
C546 C 0.17181 0.03474 0.09271 0.0
C547 C 0.88433 1.01808 0.10626 0.0
C548 C 0.91098 0.94139 0.09792 0.0
C549 C 0.8691 0.02829 0.13203 0.0
C550 C 0.8798 0.96185 0.15049 0.0
H551 H 0.87132 0.06739 0.09239 0.0
H552 H 0.84457 0.08556 0.13682 0.0
S553 S 0.9582 0.75565 0.13868 0.0
N554 N 0.9541 0.803 0.11002 0.0
N555 N 0.92672 0.82293 0.15899 0.0
C556 C 0.9114 0.88865 0.14269 0.0
C557 C 0.92668 0.87818 0.11625 0.0
C558 C 0.1581 0.33382 0.39282 0.0
C559 C 0.12527 0.26204 0.40061 0.0
C560 C 0.17479 0.34306 0.36703 0.0
C561 C 0.15917 0.28078 0.34833 0.0
H562 H 0.16757 0.38626 0.40631 0.0
H563 H 0.19547 0.40328 0.36126 0.0
S564 S 0.08036 0.07542 0.35886 0.0
N565 N 0.0827 0.123 0.38745 0.0
N566 N 0.11567 0.14056 0.33946 0.0
C567 C 0.13151 0.20461 0.35625 0.0
C568 C 0.11404 0.1952 0.38231 0.0
C569 C 0.86356 0.77452 0.35129 0.0
C570 C 0.83717 0.69682 0.34351 0.0
C571 C 0.88107 0.78521 0.37676 0.0
C572 C 0.87296 0.7183 0.39535 0.0
H573 H 0.87549 0.82342 0.33708 0.0
H574 H 0.90555 0.84293 0.38119 0.0
S575 S 0.79665 0.50948 0.38529 0.0
N576 N 0.79696 0.55728 0.35665 0.0
N577 N 0.82911 0.5779 0.40484 0.0
C578 C 0.84153 0.6444 0.38828 0.0
C579 C 0.82359 0.63369 0.36228 0.0
C580 C 0.11986 0.52927 0.59726 0.0
C581 C 0.09597 0.60931 0.5898 0.0
C582 C 0.13569 0.51498 0.62279 0.0
C583 C 0.12801 0.58025 0.64192 0.0
H584 H 0.1298 0.47973 0.5829 0.0
H585 H 0.1577 0.45459 0.62703 0.0
S586 S 0.05989 0.79694 0.63231 0.0
N587 N 0.06063 0.75177 0.6033 0.0
N588 N 0.08871 0.72414 0.6518 0.0
C589 C 0.10031 0.65824 0.6349 0.0
C590 C 0.08465 0.67296 0.60871 0.0
C591 C 0.85172 0.52627 0.62028 0.0
C592 C 0.86481 0.46999 0.64106 0.0
C593 C 0.86613 0.50458 0.59499 0.0
C594 C 0.89418 0.42605 0.58955 0.0
H595 H 0.82736 0.58524 0.62333 0.0
H596 H 0.85304 0.54749 0.57943 0.0
S597 S 0.94225 0.25965 0.63668 0.0
N598 N 0.91105 0.3352 0.65444 0.0
N599 N 0.93754 0.29402 0.60651 0.0
C600 C 0.90984 0.37098 0.60999 0.0
C601 C 0.89521 0.39302 0.63586 0.0
C602 C 0.10051 0.77672 0.84857 0.0
C603 C 0.13517 0.84699 0.8419 0.0
C604 C 0.08607 0.76148 0.87424 0.0
C605 C 0.10549 0.81646 0.89415 0.0
H606 H 0.0821 0.73624 0.83367 0.0
H607 H 0.05658 0.70966 0.87827 0.0
S608 S 0.20192 1.00405 0.88667 0.0
N609 N 0.19218 0.96792 0.85695 0.0
N610 N 0.16488 0.93928 0.90558 0.0
C611 C 0.14274 0.88396 0.88781 0.0
C612 C 0.15776 0.89909 0.86156 0.0
C613 C 0.87546 0.2774 0.85354 0.0
C614 C 0.85184 0.19707 0.84629 0.0
C615 C 0.88952 0.29312 0.87917 0.0
C616 C 0.8803 0.22889 0.89842 0.0
H617 H 0.88634 0.32597 0.83904 0.0
H618 H 0.91167 0.35333 0.88342 0.0
S619 S 0.81133 1.01297 0.88918 0.0
N620 N 0.81422 0.05631 0.85995 0.0
N621 N 0.83945 0.08647 0.90864 0.0
C622 C 0.85246 0.15107 0.89154 0.0
C623 C 0.83852 0.13493 0.86529 0.0
C624 C 0.61435 0.04206 0.6318 0.0
C625 C 0.65267 0.10068 0.64297 0.0
C626 C 0.60102 0.04707 0.60554 0.0
C627 C 0.62416 0.11273 0.58982 0.0
H628 H 0.59694 0.98863 0.64303 0.0
H629 H 0.57508 0.99637 0.59726 0.0
S630 S 0.7162 0.29508 0.61015 0.0
N631 N 0.70907 0.23261 0.63594 0.0
N632 N 0.67691 0.24897 0.58811 0.0
C633 C 0.65634 0.17872 0.6014 0.0
C634 C 0.67242 0.17112 0.6276 0.0
C635 C 0.401 0.89402 0.61044 0.0
C636 C 0.38283 0.94504 0.58949 0.0
C637 C 0.38325 0.91295 0.63564 0.0
C638 C 0.347 0.98355 0.64052 0.0
H639 H 0.4264 0.83635 0.60713 0.0
H640 H 0.39611 0.87009 0.65124 0.0
S641 S 0.28952 0.13758 0.59162 0.0
N642 N 0.3292 0.07006 0.57495 0.0
N643 N 0.29478 0.10535 0.62192 0.0
C644 C 0.33072 0.03708 0.61961 0.0
C645 C 0.34894 1.01784 0.59416 0.0
C646 C 0.59584 0.28644 0.87712 0.0
C647 C 0.61351 0.34436 0.89671 0.0
C648 C 0.61032 0.30037 0.8514 0.0
C649 C 0.64315 0.37232 0.84433 0.0
H650 H 0.56734 0.23341 0.88133 0.0
H651 H 0.59312 0.25753 0.83674 0.0
S652 S 0.7056 0.53699 0.88815 0.0
N653 N 0.66997 0.47151 0.90743 0.0
N654 N 0.69709 0.49784 0.85867 0.0
C655 C 0.66434 0.42729 0.86369 0.0
C656 C 0.64941 0.41335 0.89001 0.0
C657 C 0.36689 0.67035 0.88563 0.0
C658 C 0.39448 0.75072 0.89015 0.0
C659 C 0.34844 0.64776 0.86085 0.0
C660 C 0.35633 0.70539 0.83997 0.0
H661 H 0.36185 0.62285 0.90107 0.0
H662 H 0.33065 0.58309 0.85772 0.0
S663 S 0.42361 0.92408 0.84111 0.0
N664 N 0.42737 0.88841 0.87113 0.0
N665 N 0.39051 0.8465 0.82511 0.0
C666 C 0.38071 0.78755 0.84436 0.0
C667 C 0.40025 0.81023 0.86935 0.0
C668 C 0.59751 0.67058 0.11374 0.0
C669 C 0.60287 0.61868 0.09149 0.0
C670 C 0.61731 0.64035 0.13756 0.0
C671 C 0.64407 0.55805 0.13973 0.0
H672 H 0.58103 0.73689 0.11241 0.0
H673 H 0.61456 0.684 0.15401 0.0
S674 S 0.66562 0.39722 0.08643 0.0
N675 N 0.6328 0.4804 0.07288 0.0
N676 N 0.67235 0.42447 0.11707 0.0
C677 C 0.64661 0.50394 0.11761 0.0
C678 C 0.62552 0.53423 0.09359 0.0
C679 C 0.31571 0.41069 0.12599 0.0
C680 C 0.33578 0.47813 0.14209 0.0
C681 C 0.3326 0.40311 0.10046 0.0
C682 C 0.36804 0.4654 0.08908 0.0
H683 H 0.28448 0.365 0.13252 0.0
H684 H 0.31566 0.34926 0.08926 0.0
S685 S 0.44022 0.64599 0.12357 0.0
N686 N 0.40134 0.59926 0.14586 0.0
N687 N 0.42802 0.59132 0.09664 0.0
C688 C 0.3913 0.53028 0.10513 0.0
C689 C 0.37597 0.53558 0.13178 0.0
C690 C 0.5674 0.73021 0.3678 0.0
C691 C 0.59073 0.77961 0.38794 0.0
C692 C 0.58313 0.74443 0.34219 0.0
C693 C 0.62321 0.80762 0.33593 0.0
H694 H 0.53478 0.68337 0.37173 0.0
H695 H 0.56251 0.70787 0.32707 0.0
S696 S 0.7002 0.94825 0.38179 0.0
N697 N 0.65818 0.89 0.4002 0.0
N698 N 0.68846 0.916 0.35185 0.0
C699 C 0.649 0.85411 0.35595 0.0
C700 C 0.63244 0.84043 0.38205 0.0
C701 C 0.38011 0.15859 0.38129 0.0
C702 C 0.42134 0.21942 0.38786 0.0
C703 C 0.36526 0.14568 0.35549 0.0
C704 C 0.39205 0.1921 0.33566 0.0
H705 H 0.36044 0.11921 0.39612 0.0
H706 H 0.33452 0.09639 0.35093 0.0
S707 S 0.50087 0.36085 0.34284 0.0
N708 N 0.48719 0.32865 0.3726 0.0
N709 N 0.45927 0.30362 0.32408 0.0
C710 C 0.4319 0.25502 0.34202 0.0
C711 C 0.44658 0.26892 0.36819 0.0
C712 C 0.99003 0.57787 0.92981 0.0
C713 C 0.01 0.61884 0.95216 0.0
C714 C 0.97401 0.48966 0.92985 0.0
C715 C 0.97591 0.43778 0.9524 0.0
H716 H 0.98794 0.61409 0.91179 0.0
H717 H 0.96112 0.4615 0.91165 0.0
S718 S 0.02426 0.51447 0.01644 0.0
N719 N 0.03096 0.60217 -0.00233 0.0
N720 N 0.9991 0.43503 -0.00196 0.0
C721 C 0.99522 0.47811 0.97516 0.0
C722 C 0.01217 0.56905 0.97503 0.0
C723 C 0.29323 0.74556 0.20806 0.0
C724 C 0.25128 0.68151 0.20689 0.0
C725 C 0.28101 0.8361 0.20848 0.0
C726 C 0.22633 0.86605 0.20764 0.0
H727 H 0.33593 0.72559 0.20693 0.0
H728 H 0.3147 0.8827 0.20724 0.0
S729 S 0.10133 0.72576 0.20905 0.0
N730 N 0.15277 0.65459 0.2082 0.0
N731 N 0.12987 0.82472 0.20943 0.0
C732 C 0.18403 0.80273 0.20906 0.0
C733 C 0.19646 0.71046 0.2086 0.0
C734 C 0.76581 0.2051 0.22174 0.0
C735 C 0.76345 0.14574 0.20091 0.0
C736 C 0.75019 0.29448 0.21862 0.0
C737 C 0.73277 0.32769 0.19445 0.0
H738 H 0.78136 0.18312 0.24021 0.0
H739 H 0.7528 0.3381 0.23511 0.0
S740 S 0.72217 0.19634 0.13386 0.0
N741 N 0.74104 0.12424 0.15592 0.0
N742 N 0.71741 0.29132 0.1492 0.0
C743 C 0.73041 0.2674 0.17368 0.0
C744 C 0.7442 0.17683 0.17715 0.0
C745 C 0.9715 0.97205 0.43158 0.0
C746 C 0.9747 0.91277 0.4525 0.0
C747 C 0.98967 0.05888 0.43364 0.0
C748 C 0.01345 0.09053 0.45642 0.0
H749 H 0.95636 0.95079 0.41297 0.0
H750 H 0.98689 0.10112 0.41681 0.0
S751 S 0.02919 0.96635 0.51748 0.0
N752 N 0.00072 0.89458 0.49753 0.0
N753 N 0.0375 0.05866 0.50086 0.0
C754 C 0.01634 0.03376 0.47778 0.0
C755 C 0.99672 0.94457 0.47588 0.0
C756 C 0.23411 0.22765 0.67538 0.0
C757 C 0.25265 0.1865 0.69799 0.0
C758 C 0.21879 0.31621 0.67506 0.0
C759 C 0.21949 0.36843 0.69756 0.0
H760 H 0.23237 0.19123 0.65743 0.0
H761 H 0.20729 0.34422 0.65663 0.0
S762 S 0.26249 0.29107 0.76242 0.0
N763 N 0.27027 0.20325 0.74381 0.0
N764 N 0.23918 0.37081 0.74358 0.0
C765 C 0.2369 0.32779 0.72065 0.0
C766 C 0.25343 0.23652 0.72084 0.0
C767 C 0.77937 0.74573 0.67276 0.0
C768 C 0.78315 0.69684 0.69582 0.0
C769 C 0.76473 0.83475 0.67268 0.0
C770 C 0.75149 0.87969 0.69558 0.0
H771 H 0.78676 0.71463 0.65427 0.0
H772 H 0.76292 0.86842 0.65426 0.0
S773 S 0.75597 0.78439 0.76147 0.0
N774 N 0.77425 0.70157 0.74254 0.0
N775 N 0.74446 0.86955 0.74226 0.0
C776 C 0.75573 0.83279 0.71897 0.0
C777 C 0.77147 0.74123 0.71909 0.0
C778 C 0.55828 0.52419 0.45793 0.0
C779 C 0.51628 0.58844 0.45739 0.0
C780 C 0.54598 0.43361 0.45856 0.0
C781 C 0.49122 0.40403 0.45871 0.0
H782 H 0.60086 0.5439 0.45583 0.0
H783 H 0.57937 0.38679 0.45646 0.0
S784 S 0.36664 0.54439 0.46324 0.0
N785 N 0.41795 0.61541 0.46116 0.0
N786 N 0.39519 0.44545 0.46296 0.0
C787 C 0.44927 0.4674 0.46138 0.0
C788 C 0.46168 0.55959 0.46059 0.0
C789 C 0.4764 0.026 0.9267 0.0
C790 C 0.47758 0.96976 0.94838 0.0
C791 C 0.49105 0.1147 0.92833 0.0
C792 C 0.50909 0.15208 0.95156 0.0
H793 H 0.46598 1.00099 0.90781 0.0
H794 H 0.49036 0.1539 0.91083 0.0
S795 S 0.51804 0.03757 0.01455 0.0
N796 N 0.49567 0.96066 -0.00548 0.0
N797 N 0.52575 0.12832 -0.00283 0.0
C798 C 0.50956 0.09854 0.9737 0.0
C799 C 0.49367 1.00718 0.97216 0.0
C800 C 0.24222 0.39699 0.00628 0.0
C801 C 0.29556 0.36097 0.00694 0.0
C802 C 0.19582 0.34216 0.00722 0.0
C803 C 0.20172 0.25009 0.00892 0.0
H804 H 0.2365 0.46765 0.00821 0.0
H805 H 0.15573 0.37223 0.00972 0.0
S806 S 0.33161 0.12346 0.00468 0.0
N807 N 0.35108 0.22794 0.00418 0.0
N808 N 0.26378 0.12499 0.00611 0.0
C809 C 0.2543 0.21341 0.00579 0.0
C810 C 0.30143 0.26907 0.00464 0.0
C811 C 0.79563 0.75585 0.01728 0.0
C812 C 0.80338 0.84588 0.02261 0.0
C813 C 0.74253 0.71971 0.0164 0.0
C814 C 0.69587 0.77288 0.02053 0.0
H815 H 0.83068 0.71182 0.01631 0.0
H816 H 0.73814 0.6487 0.01491 0.0
S817 S 0.69441 1.01431 0.03122 0.0
N818 N 0.76029 0.98878 0.02911 0.0
N819 N 0.66053 0.92092 0.02697 0.0
C820 C 0.70304 0.86419 0.02314 0.0
C821 C 0.75694 0.90077 0.02432 0.0
C822 C 0.01607 0.45175 0.30723 0.0
C823 C 0.04668 0.43067 0.28496 0.0
C824 C 0.96724 0.49806 0.30609 0.0
C825 C 0.94787 0.53505 0.283 0.0
H826 H 0.02991 0.43462 0.32639 0.0
H827 H 0.94532 0.50701 0.32412 0.0
S828 S 0.01016 0.50138 0.21837 0.0
N829 N 0.05101 0.44651 0.23813 0.0
N830 N 0.96162 0.54526 0.23664 0.0
C831 C 0.97711 0.51557 0.26023 0.0
C832 C 0.02627 0.46248 0.26113 0.0
C833 C 0.29515 0.70953 0.51506 0.0
C834 C 0.29914 0.80193 0.51397 0.0
C835 C 0.24363 0.66801 0.51482 0.0
C836 C 0.19491 0.71786 0.51333 0.0
H837 H 0.33139 0.67005 0.51887 0.0
H838 H 0.24162 0.59758 0.51842 0.0
S839 S 0.18458 0.96002 0.50529 0.0
N840 N 0.2512 0.94075 0.50773 0.0
N841 N 0.15433 0.86248 0.5069 0.0
C842 C 0.19891 0.80902 0.5091 0.0
C843 C 0.25123 0.85128 0.50955 0.0
C844 C 0.8116 0.19617 0.51051 0.0
C845 C 0.81004 0.2885 0.51284 0.0
C846 C 0.76278 0.14737 0.50861 0.0
C847 C 0.71133 0.18989 0.50883 0.0
H848 H 0.85009 0.16113 0.51292 0.0
H849 H 0.76494 0.07606 0.51 0.0
S850 S 0.68676 0.43116 0.50921 0.0
N851 N 0.75421 0.42108 0.51131 0.0
N852 N 0.66246 0.32956 0.50716 0.0
C853 C 0.71001 0.28246 0.50761 0.0
C854 C 0.75952 0.33192 0.50993 0.0
C855 C 0.99398 0.11952 0.76919 0.0
C856 C 0.94362 0.07401 0.76945 0.0
C857 C 0.04391 0.07355 0.76776 0.0
C858 C 0.04469 0.98089 0.76684 0.0
H859 H 0.99484 0.19016 0.7725 0.0
H860 H 0.08189 0.10993 0.77023 0.0
S861 S 0.92387 0.83293 0.76266 0.0
N862 N 0.89727 0.93305 0.76493 0.0
N863 N 0.99128 0.84629 0.7628 0.0
C864 C 0.99462 0.93567 0.76429 0.0
C865 C 0.94385 0.98249 0.76546 0.0
C866 C 0.5018 0.43857 0.76703 0.0
C867 C 0.55019 0.48944 0.76712 0.0
C868 C 0.45003 0.47897 0.76567 0.0
C869 C 0.44538 0.57129 0.76456 0.0
H870 H 0.50388 0.36811 0.77054 0.0
H871 H 0.41369 0.43868 0.76842 0.0
S872 S 0.55964 0.73205 0.7601 0.0
N873 N 0.59042 0.63509 0.76235 0.0
N874 N 0.49298 0.71126 0.76027 0.0
C875 C 0.49344 0.62172 0.76174 0.0
C876 C 0.54608 0.5806 0.76289 0.0
C877 C 0.49808 0.90498 0.25567 0.0
C878 C 0.55129 0.94129 0.25621 0.0
C879 C 0.45162 0.95969 0.2553 0.0
C880 C 0.45736 0.05195 0.25568 0.0
H881 H 0.49237 0.83469 0.25853 0.0
H882 H 0.41154 0.92994 0.25809 0.0
S883 S 0.58719 0.1781 0.25051 0.0
N884 N 0.60683 0.07374 0.25183 0.0
N885 N 0.51931 0.17661 0.25137 0.0
C886 C 0.50998 0.08821 0.25231 0.0
C887 C 0.55722 0.03261 0.25251 0.0
loop_
_geom_bond_atom_site_label_1
_geom_bond_atom_site_label_2
_geom_bond_distance
_geom_bond_site_symmetry_2
_ccdc_geom_bond_type
C0 O1 1.201 . S
C0 C2 1.493 . S
C0 N17 1.318 1_455 S
O1 C0 1.201 . S
C2 C0 1.493 . S
C2 C3 1.381 . S
C2 N7 1.335 1_554 S
C3 C2 1.381 . S
C3 C4 1.411 1_554 S
C3 H49 0.931 . S
C4 C3 1.411 1_556 S
C4 C5 1.384 . S
C4 H50 0.930 . S
C5 C4 1.384 . S
C5 C6 1.376 . S
C5 H51 0.929 . S
C6 C5 1.376 . S
C6 N7 1.330 . S
C6 C21 1.484 1_565 S
N7 C2 1.335 1_556 S
N7 C6 1.330 . S
N7 Co9 1.859 1_565 S
N8 Co9 1.962 1_554 S
N8 C19 1.318 1_455 S
N8 C43 1.421 . S
Co9 N7 1.859 1_545 S
Co9 N8 1.962 1_556 S
Co9 N10 1.859 1_455 S
Co9 N16 1.958 1_445 S
Co9 N17 1.962 1_446 S
Co9 N18 1.958 . S
N10 Co9 1.859 1_655 S
N10 C14 1.330 . S
N10 C15 1.335 1_556 S
C11 C12 1.411 1_554 S
C11 C15 1.381 . S
C11 H52 0.931 . S
C12 C11 1.411 1_556 S
C12 C13 1.384 . S
C12 H53 0.930 . S
C13 C12 1.384 . S
C13 C14 1.376 . S
C13 H54 0.929 . S
C14 N10 1.330 . S
C14 C13 1.376 . S
C14 C29 1.484 1_545 S
C15 N10 1.335 1_554 S
C15 C11 1.381 . S
C15 C19 1.493 . S
N16 Co9 1.958 1_665 S
N16 C29 1.344 . S
N16 C31 1.433 . S
N17 C0 1.318 1_655 S
N17 Co9 1.962 1_664 S
N17 C37 1.421 . S
N18 Co9 1.958 . S
N18 C21 1.344 . S
N18 C23 1.435 . S
C19 N8 1.318 1_655 S
C19 C15 1.493 . S
C19 O20 1.201 . S
O20 C19 1.201 . S
C21 C6 1.484 1_545 S
C21 N18 1.344 . S
C21 O22 1.268 . S
O22 C21 1.268 . S
C23 N18 1.435 . S
C23 C25 1.395 . S
C23 C26 1.354 1_455 S
C24 C25 1.382 1_655 S
C24 C28 1.386 . S
C25 C23 1.395 . S
C25 C24 1.382 1_455 S
C25 H55 0.928 . S
C26 C23 1.354 1_655 S
C26 C27 1.367 . S
C26 H56 0.930 . S
C27 C26 1.367 . S
C27 C28 1.369 . S
C28 C24 1.386 . S
C28 C27 1.369 . S
C28 H57 0.930 . S
C29 C14 1.484 1_565 S
C29 N16 1.344 . S
C29 O30 1.268 . S
O30 C29 1.268 . S
C31 N16 1.433 . S
C31 C32 1.357 1_655 S
C31 C36 1.394 . S
C32 C31 1.357 1_455 S
C32 C33 1.367 . S
C32 H58 0.930 . S
C33 C32 1.367 . S
C33 C34 1.369 . S
C34 C33 1.369 . S
C34 C35 1.386 . S
C34 H59 0.930 . S
C35 C34 1.386 . S
C35 C36 1.382 1_455 S
C36 C31 1.394 . S
C36 C35 1.382 1_655 S
C36 H60 0.928 . S
C37 N17 1.421 . S
C37 C38 1.371 . S
C37 C42 1.385 . S
C38 C37 1.371 . S
C38 C39 1.367 . S
C38 H61 0.931 . S
C39 C38 1.367 . S
C39 C40 1.401 . S
C40 C39 1.401 . S
C40 C41 1.385 . S
C40 H62 0.930 . S
C41 C40 1.385 . S
C41 C42 1.402 . S
C42 C37 1.385 . S
C42 C41 1.402 . S
C42 H63 0.929 . S
C43 N8 1.421 . S
C43 C46 1.385 . S
C43 C47 1.371 . S
C44 C45 1.385 . S
C44 C48 1.401 . S
C44 H64 0.930 . S
C45 C44 1.385 . S
C45 C46 1.402 . S
C46 C43 1.385 . S
C46 C45 1.402 . S
C46 H65 0.929 . S
C47 C43 1.371 . S
C47 C48 1.367 . S
C47 H66 0.931 . S
C48 C44 1.401 . S
C48 C47 1.367 . S
H49 C3 0.931 . S
H50 C4 0.930 . S
H51 C5 0.929 . S
H52 C11 0.931 . S
H53 C12 0.930 . S
H54 C13 0.929 . S
H55 C25 0.928 . S
H56 C26 0.930 . S
H57 C28 0.930 . S
H58 C32 0.930 . S
H59 C34 0.930 . S
H60 C36 0.928 . S
H61 C38 0.931 . S
H62 C40 0.930 . S
H63 C42 0.929 . S
H64 C44 0.930 . S
H65 C46 0.929 . S
H66 C47 0.931 . S
C67 O68 1.201 . S
C67 C69 1.493 . S
C67 N84 1.318 . S
O68 C67 1.201 . S
C69 C67 1.493 . S
C69 C70 1.381 . S
C69 N74 1.335 . S
C70 C69 1.381 . S
C70 C71 1.411 . S
C70 H116 0.931 . S
C71 C70 1.411 . S
C71 C72 1.384 . S
C71 H117 0.930 . S
C72 C71 1.384 . S
C72 C73 1.376 . S
C72 H118 0.929 . S
C73 C72 1.376 . S
C73 N74 1.330 . S
C73 C88 1.484 . S
N74 C69 1.335 . S
N74 C73 1.330 . S
N74 Co76 1.859 . S
N75 Co76 1.962 . S
N75 C86 1.318 . S
N75 C110 1.421 . S
Co76 N74 1.859 . S
Co76 N75 1.962 . S
Co76 N77 1.859 . S
Co76 N83 1.958 . S
Co76 N84 1.962 . S
Co76 N85 1.958 . S
N77 Co76 1.859 . S
N77 C81 1.330 . S
N77 C82 1.335 . S
C78 C79 1.411 . S
C78 C82 1.381 . S
C78 H119 0.931 . S
C79 C78 1.411 . S
C79 C80 1.384 . S
C79 H120 0.930 . S
C80 C79 1.384 . S
C80 C81 1.376 . S
C80 H121 0.929 . S
C81 N77 1.330 . S
C81 C80 1.376 . S
C81 C96 1.484 . S
C82 N77 1.335 . S
C82 C78 1.381 . S
C82 C86 1.493 . S
N83 Co76 1.958 . S
N83 C96 1.344 . S
N83 C98 1.425 . S
N84 C67 1.318 . S
N84 Co76 1.962 . S
N84 C104 1.421 . S
N85 Co76 1.958 . S
N85 C88 1.344 . S
N85 C90 1.425 . S
C86 N75 1.318 . S
C86 C82 1.493 . S
C86 O87 1.201 . S
O87 C86 1.201 . S
C88 C73 1.484 . S
C88 N85 1.344 . S
C88 O89 1.268 . S
O89 C88 1.268 . S
C90 N85 1.425 . S
C90 C92 1.392 . S
C90 C93 1.368 . S
C91 C92 1.382 . S
C91 C95 1.386 . S
C92 C90 1.392 . S
C92 C91 1.382 . S
C92 H122 0.928 . S
C93 C90 1.368 . S
C93 C94 1.367 . S
C93 H123 0.930 . S
C94 C93 1.367 . S
C94 C95 1.369 . S
C95 C91 1.386 . S
C95 C94 1.369 . S
C95 H124 0.930 . S
C96 C81 1.484 . S
C96 N83 1.344 . S
C96 O97 1.268 . S
O97 C96 1.268 . S
C98 N83 1.425 . S
C98 C99 1.368 . S
C98 C103 1.392 . S
C99 C98 1.368 . S
C99 C100 1.367 . S
C99 H125 0.930 . S
C100 C99 1.367 . S
C100 C101 1.369 1_545 S
C101 C100 1.369 1_565 S
C101 C102 1.386 . S
C101 H126 0.930 . S
C102 C101 1.386 . S
C102 C103 1.382 1_565 S
C103 C98 1.392 . S
C103 C102 1.382 1_545 S
C103 H127 0.928 . S
C104 N84 1.421 . S
C104 C105 1.371 . S
C104 C109 1.385 . S
C105 C104 1.371 . S
C105 C106 1.367 . S
C105 H128 0.931 . S
C106 C105 1.367 . S
C106 C107 1.401 . S
C107 C106 1.401 . S
C107 C108 1.385 . S
C107 H129 0.930 . S
C108 C107 1.385 . S
C108 C109 1.402 . S
C109 C104 1.385 . S
C109 C108 1.402 . S
C109 H130 0.929 . S
C110 N75 1.421 . S
C110 C113 1.385 . S
C110 C114 1.371 . S
C111 C112 1.385 . S
C111 C115 1.401 . S
C111 H131 0.930 . S
C112 C111 1.385 . S
C112 C113 1.402 . S
C113 C110 1.385 . S
C113 C112 1.402 . S
C113 H132 0.929 . S
C114 C110 1.371 . S
C114 C115 1.367 . S
C114 H133 0.931 . S
C115 C111 1.401 . S
C115 C114 1.367 . S
H116 C70 0.931 . S
H117 C71 0.930 . S
H118 C72 0.929 . S
H119 C78 0.931 . S
H120 C79 0.930 . S
H121 C80 0.929 . S
H122 C92 0.928 . S
H123 C93 0.930 . S
H124 C95 0.930 . S
H125 C99 0.930 . S
H126 C101 0.930 . S
H127 C103 0.928 . S
H128 C105 0.931 . S
H129 C107 0.930 . S
H130 C109 0.929 . S
H131 C111 0.930 . S
H132 C113 0.929 . S
H133 C114 0.931 . S
C134 O135 1.201 . S
C134 C136 1.493 . S
C134 N151 1.318 . S
O135 C134 1.201 . S
C136 C134 1.493 . S
C136 C137 1.381 . S
C136 N141 1.335 . S
C137 C136 1.381 . S
C137 C138 1.411 . S
C137 H183 0.931 . S
C138 C137 1.411 . S
C138 C139 1.384 . S
C138 H184 0.930 . S
C139 C138 1.384 . S
C139 C140 1.376 . S
C139 H185 0.929 . S
C140 C139 1.376 . S
C140 N141 1.330 . S
C140 C155 1.484 . S
N141 C136 1.335 . S
N141 C140 1.330 . S
N141 Co143 1.859 . S
N142 Co143 1.962 . S
N142 C153 1.318 . S
N142 C177 1.421 . S
Co143 N141 1.859 . S
Co143 N142 1.962 . S
Co143 N144 1.859 . S
Co143 N150 1.958 . S
Co143 N151 1.962 . S
Co143 N152 1.958 . S
N144 Co143 1.859 . S
N144 C148 1.330 . S
N144 C149 1.335 . S
C145 C146 1.411 . S
C145 C149 1.381 . S
C145 H186 0.931 . S
C146 C145 1.411 . S
C146 C147 1.384 . S
C146 H187 0.930 . S
C147 C146 1.384 . S
C147 C148 1.376 . S
C147 H188 0.929 . S
C148 N144 1.330 . S
C148 C147 1.376 . S
C148 C163 1.484 . S
C149 N144 1.335 . S
C149 C145 1.381 . S
C149 C153 1.493 . S
N150 Co143 1.958 . S
N150 C163 1.344 . S
N150 C165 1.425 . S
N151 C134 1.318 . S
N151 Co143 1.962 . S
N151 C171 1.421 . S
N152 Co143 1.958 . S
N152 C155 1.344 . S
N152 C157 1.425 . S
C153 N142 1.318 . S
C153 C149 1.493 . S
C153 O154 1.201 . S
O154 C153 1.201 . S
C155 C140 1.484 . S
C155 N152 1.344 . S
C155 O156 1.268 . S
O156 C155 1.268 . S
C157 N152 1.425 . S
C157 C159 1.392 . S
C157 C160 1.368 . S
C158 C159 1.382 1_545 S
C158 C162 1.386 . S
C159 C157 1.392 . S
C159 C158 1.382 1_565 S
C159 H189 0.928 . S
C160 C157 1.368 . S
C160 C161 1.367 . S
C160 H190 0.930 . S
C161 C160 1.367 . S
C161 C162 1.369 1_565 S
C162 C158 1.386 . S
C162 C161 1.369 1_545 S
C162 H191 0.930 . S
C163 C148 1.484 . S
C163 N150 1.344 . S
C163 O164 1.268 . S
O164 C163 1.268 . S
C165 N150 1.425 . S
C165 C166 1.368 . S
C165 C170 1.392 . S
C166 C165 1.368 . S
C166 C167 1.367 . S
C166 H192 0.930 . S
C167 C166 1.367 . S
C167 C168 1.369 . S
C168 C167 1.369 . S
C168 C169 1.386 . S
C168 H193 0.930 . S
C169 C168 1.386 . S
C169 C170 1.382 . S
C170 C165 1.392 . S
C170 C169 1.382 . S
C170 H194 0.928 . S
C171 N151 1.421 . S
C171 C172 1.371 . S
C171 C176 1.385 . S
C172 C171 1.371 . S
C172 C173 1.367 . S
C172 H195 0.931 . S
C173 C172 1.367 . S
C173 C174 1.401 . S
C174 C173 1.401 . S
C174 C175 1.385 . S
C174 H196 0.930 . S
C175 C174 1.385 . S
C175 C176 1.402 . S
C176 C171 1.385 . S
C176 C175 1.402 . S
C176 H197 0.929 . S
C177 N142 1.421 . S
C177 C180 1.385 . S
C177 C181 1.371 . S
C178 C179 1.385 . S
C178 C182 1.401 . S
C178 H198 0.930 . S
C179 C178 1.385 . S
C179 C180 1.402 . S
C180 C177 1.385 . S
C180 C179 1.402 . S
C180 H199 0.929 . S
C181 C177 1.371 . S
C181 C182 1.367 . S
C181 H200 0.931 . S
C182 C178 1.401 . S
C182 C181 1.367 . S
H183 C137 0.931 . S
H184 C138 0.930 . S
H185 C139 0.929 . S
H186 C145 0.931 . S
H187 C146 0.930 . S
H188 C147 0.929 . S
H189 C159 0.928 . S
H190 C160 0.930 . S
H191 C162 0.930 . S
H192 C166 0.930 . S
H193 C168 0.930 . S
H194 C170 0.928 . S
H195 C172 0.931 . S
H196 C174 0.930 . S
H197 C176 0.929 . S
H198 C178 0.930 . S
H199 C180 0.929 . S
H200 C181 0.931 . S
C201 O202 1.201 . S
C201 C203 1.493 . S
C201 N218 1.318 1_455 S
O202 C201 1.201 . S
C203 C201 1.493 . S
C203 C204 1.381 . S
C203 N208 1.335 . S
C204 C203 1.381 . S
C204 C205 1.411 . S
C204 H250 0.931 . S
C205 C204 1.411 . S
C205 C206 1.384 . S
C205 H251 0.930 . S
C206 C205 1.384 . S
C206 C207 1.376 . S
C206 H252 0.929 . S
C207 C206 1.376 . S
C207 N208 1.330 . S
C207 C222 1.484 . S
N208 C203 1.335 . S
N208 C207 1.330 . S
N208 Co210 1.859 . S
N209 Co210 1.962 . S
N209 C220 1.318 1_455 S
N209 C244 1.421 . S
Co210 N208 1.859 . S
Co210 N209 1.962 . S
Co210 N211 1.859 1_455 S
Co210 N217 1.958 1_455 S
Co210 N218 1.962 1_455 S
Co210 N219 1.958 . S
N211 Co210 1.859 1_655 S
N211 C215 1.330 . S
N211 C216 1.335 . S
C212 C213 1.411 . S
C212 C216 1.381 . S
C212 H253 0.931 . S
C213 C212 1.411 . S
C213 C214 1.384 . S
C213 H254 0.930 . S
C214 C213 1.384 . S
C214 C215 1.376 . S
C214 H255 0.929 . S
C215 N211 1.330 . S
C215 C214 1.376 . S
C215 C230 1.484 . S
C216 N211 1.335 . S
C216 C212 1.381 . S
C216 C220 1.493 . S
N217 Co210 1.958 1_655 S
N217 C230 1.344 . S
N217 C232 1.433 . S
N218 C201 1.318 1_655 S
N218 Co210 1.962 1_655 S
N218 C238 1.421 . S
N219 Co210 1.958 . S
N219 C222 1.344 . S
N219 C224 1.435 . S
C220 N209 1.318 1_655 S
C220 C216 1.493 . S
C220 O221 1.201 . S
O221 C220 1.201 . S
C222 C207 1.484 . S
C222 N219 1.344 . S
C222 O223 1.268 . S
O223 C222 1.268 . S
C224 N219 1.435 . S
C224 C226 1.395 . S
C224 C227 1.354 1_455 S
C225 C226 1.382 1_655 S
C225 C229 1.386 . S
C226 C224 1.395 . S
C226 C225 1.382 1_455 S
C226 H256 0.928 . S
C227 C224 1.354 1_655 S
C227 C228 1.367 . S
C227 H257 0.930 . S
C228 C227 1.367 . S
C228 C229 1.369 . S
C229 C225 1.386 . S
C229 C228 1.369 . S
C229 H258 0.930 . S
C230 C215 1.484 . S
C230 N217 1.344 . S
C230 O231 1.268 . S
O231 C230 1.268 . S
C232 N217 1.433 . S
C232 C233 1.357 1_655 S
C232 C237 1.394 . S
C233 C232 1.357 1_455 S
C233 C234 1.367 . S
C233 H259 0.930 . S
C234 C233 1.367 . S
C234 C235 1.369 . S
C235 C234 1.369 . S
C235 C236 1.386 . S
C235 H260 0.930 . S
C236 C235 1.386 . S
C236 C237 1.382 1_455 S
C237 C232 1.394 . S
C237 C236 1.382 1_655 S
C237 H261 0.928 . S
C238 N218 1.421 . S
C238 C239 1.371 . S
C238 C243 1.385 . S
C239 C238 1.371 . S
C239 C240 1.367 . S
C239 H262 0.931 . S
C240 C239 1.367 . S
C240 C241 1.401 . S
C241 C240 1.401 . S
C241 C242 1.385 . S
C241 H263 0.930 . S
C242 C241 1.385 . S
C242 C243 1.402 . S
C243 C238 1.385 . S
C243 C242 1.402 . S
C243 H264 0.929 . S
C244 N209 1.421 . S
C244 C247 1.385 . S
C244 C248 1.371 . S
C245 C246 1.385 . S
C245 C249 1.401 . S
C245 H265 0.930 . S
C246 C245 1.385 . S
C246 C247 1.402 . S
C247 C244 1.385 . S
C247 C246 1.402 . S
C247 H266 0.929 . S
C248 C244 1.371 . S
C248 C249 1.367 . S
C248 H267 0.931 . S
C249 C245 1.401 . S
C249 C248 1.367 . S
H250 C204 0.931 . S
H251 C205 0.930 . S
H252 C206 0.929 . S
H253 C212 0.931 . S
H254 C213 0.930 . S
H255 C214 0.929 . S
H256 C226 0.928 . S
H257 C227 0.930 . S
H258 C229 0.930 . S
H259 C233 0.930 . S
H260 C235 0.930 . S
H261 C237 0.928 . S
H262 C239 0.931 . S
H263 C241 0.930 . S
H264 C243 0.929 . S
H265 C245 0.930 . S
H266 C247 0.929 . S
H267 C248 0.931 . S
C268 O269 1.201 . S
C268 C270 1.493 . S
C268 N285 1.318 . S
O269 C268 1.201 . S
C270 C268 1.493 . S
C270 C271 1.381 . S
C270 N275 1.335 . S
C271 C270 1.381 . S
C271 C272 1.411 . S
C271 H317 0.931 . S
C272 C271 1.411 . S
C272 C273 1.384 . S
C272 H318 0.930 . S
C273 C272 1.384 . S
C273 C274 1.376 . S
C273 H319 0.929 . S
C274 C273 1.376 . S
C274 N275 1.330 . S
C274 C289 1.484 . S
N275 C270 1.335 . S
N275 C274 1.330 . S
N275 Co277 1.859 . S
N276 Co277 1.962 . S
N276 C287 1.318 . S
N276 C311 1.421 . S
Co277 N275 1.859 . S
Co277 N276 1.962 . S
Co277 N278 1.859 . S
Co277 N284 1.958 . S
Co277 N285 1.962 . S
Co277 N286 1.958 . S
N278 Co277 1.859 . S
N278 C282 1.330 . S
N278 C283 1.335 . S
C279 C280 1.411 . S
C279 C283 1.381 . S
C279 H320 0.931 . S
C280 C279 1.411 . S
C280 C281 1.384 . S
C280 H321 0.930 . S
C281 C280 1.384 . S
C281 C282 1.376 . S
C281 H322 0.929 . S
C282 N278 1.330 . S
C282 C281 1.376 . S
C282 C297 1.484 . S
C283 N278 1.335 . S
C283 C279 1.381 . S
C283 C287 1.493 . S
N284 Co277 1.958 . S
N284 C297 1.344 . S
N284 C299 1.425 . S
N285 C268 1.318 . S
N285 Co277 1.962 . S
N285 C305 1.421 . S
N286 Co277 1.958 . S
N286 C289 1.344 . S
N286 C291 1.425 . S
C287 N276 1.318 . S
C287 C283 1.493 . S
C287 O288 1.201 . S
O288 C287 1.201 . S
C289 C274 1.484 . S
C289 N286 1.344 . S
C289 O290 1.268 . S
O290 C289 1.268 . S
C291 N286 1.425 . S
C291 C293 1.392 . S
C291 C294 1.368 . S
C292 C293 1.382 1_545 S
C292 C296 1.386 . S
C293 C291 1.392 . S
C293 C292 1.382 1_565 S
C293 H323 0.928 . S
C294 C291 1.368 . S
C294 C295 1.367 . S
C294 H324 0.930 . S
C295 C294 1.367 . S
C295 C296 1.369 1_565 S
C296 C292 1.386 . S
C296 C295 1.369 1_545 S
C296 H325 0.930 . S
C297 C282 1.484 . S
C297 N284 1.344 . S
C297 O298 1.268 . S
O298 C297 1.268 . S
C299 N284 1.425 . S
C299 C300 1.368 . S
C299 C304 1.392 . S
C300 C299 1.368 . S
C300 C301 1.367 . S
C300 H326 0.930 . S
C301 C300 1.367 . S
C301 C302 1.369 . S
C302 C301 1.369 . S
C302 C303 1.386 . S
C302 H327 0.930 . S
C303 C302 1.386 . S
C303 C304 1.382 . S
C304 C299 1.392 . S
C304 C303 1.382 . S
C304 H328 0.928 . S
C305 N285 1.421 . S
C305 C306 1.371 . S
C305 C310 1.385 . S
C306 C305 1.371 . S
C306 C307 1.367 . S
C306 H329 0.931 . S
C307 C306 1.367 . S
C307 C308 1.401 . S
C308 C307 1.401 . S
C308 C309 1.385 . S
C308 H330 0.930 . S
C309 C308 1.385 . S
C309 C310 1.402 . S
C310 C305 1.385 . S
C310 C309 1.402 . S
C310 H331 0.929 . S
C311 N276 1.421 . S
C311 C314 1.385 . S
C311 C315 1.371 . S
C312 C313 1.385 . S
C312 C316 1.401 . S
C312 H332 0.930 . S
C313 C312 1.385 . S
C313 C314 1.402 . S
C314 C311 1.385 . S
C314 C313 1.402 . S
C314 H333 0.929 . S
C315 C311 1.371 . S
C315 C316 1.367 . S
C315 H334 0.931 . S
C316 C312 1.401 . S
C316 C315 1.367 . S
H317 C271 0.931 . S
H318 C272 0.930 . S
H319 C273 0.929 . S
H320 C279 0.931 . S
H321 C280 0.930 . S
H322 C281 0.929 . S
H323 C293 0.928 . S
H324 C294 0.930 . S
H325 C296 0.930 . S
H326 C300 0.930 . S
H327 C302 0.930 . S
H328 C304 0.928 . S
H329 C306 0.931 . S
H330 C308 0.930 . S
H331 C310 0.929 . S
H332 C312 0.930 . S
H333 C314 0.929 . S
H334 C315 0.931 . S
C335 O336 1.201 . S
C335 C337 1.493 . S
C335 N352 1.318 . S
O336 C335 1.201 . S
C337 C335 1.493 . S
C337 C338 1.381 . S
C337 N342 1.335 . S
C338 C337 1.381 . S
C338 C339 1.411 . S
C338 H384 0.931 . S
C339 C338 1.411 . S
C339 C340 1.384 . S
C339 H385 0.930 . S
C340 C339 1.384 . S
C340 C341 1.376 . S
C340 H386 0.929 . S
C341 C340 1.376 . S
C341 N342 1.330 . S
C341 C356 1.484 . S
N342 C337 1.335 . S
N342 C341 1.330 . S
N342 Co344 1.859 . S
N343 Co344 1.962 . S
N343 C354 1.318 . S
N343 C378 1.421 . S
Co344 N342 1.859 . S
Co344 N343 1.962 . S
Co344 N345 1.859 . S
Co344 N351 1.958 . S
Co344 N352 1.962 . S
Co344 N353 1.958 . S
N345 Co344 1.859 . S
N345 C349 1.330 . S
N345 C350 1.335 . S
C346 C347 1.411 . S
C346 C350 1.381 . S
C346 H387 0.931 . S
C347 C346 1.411 . S
C347 C348 1.384 . S
C347 H388 0.930 . S
C348 C347 1.384 . S
C348 C349 1.376 . S
C348 H389 0.929 . S
C349 N345 1.330 . S
C349 C348 1.376 . S
C349 C364 1.484 . S
C350 N345 1.335 . S
C350 C346 1.381 . S
C350 C354 1.493 . S
N351 Co344 1.958 . S
N351 C364 1.344 . S
N351 C366 1.425 . S
N352 C335 1.318 . S
N352 Co344 1.962 . S
N352 C372 1.421 . S
N353 Co344 1.958 . S
N353 C356 1.344 . S
N353 C358 1.425 . S
C354 N343 1.318 . S
C354 C350 1.493 . S
C354 O355 1.201 . S
O355 C354 1.201 . S
C356 C341 1.484 . S
C356 N353 1.344 . S
C356 O357 1.268 . S
O357 C356 1.268 . S
C358 N353 1.425 . S
C358 C360 1.392 . S
C358 C361 1.368 . S
C359 C360 1.382 . S
C359 C363 1.386 . S
C360 C358 1.392 . S
C360 C359 1.382 . S
C360 H390 0.928 . S
C361 C358 1.368 . S
C361 C362 1.367 . S
C361 H391 0.930 . S
C362 C361 1.367 . S
C362 C363 1.369 . S
C363 C359 1.386 . S
C363 C362 1.369 . S
C363 H392 0.930 . S
C364 C349 1.484 . S
C364 N351 1.344 . S
C364 O365 1.268 . S
O365 C364 1.268 . S
C366 N351 1.425 . S
C366 C367 1.368 . S
C366 C371 1.392 . S
C367 C366 1.368 . S
C367 C368 1.367 . S
C367 H393 0.930 . S
C368 C367 1.367 . S
C368 C369 1.369 1_545 S
C369 C368 1.369 1_565 S
C369 C370 1.386 . S
C369 H394 0.930 . S
C370 C369 1.386 . S
C370 C371 1.382 1_565 S
C371 C366 1.392 . S
C371 C370 1.382 1_545 S
C371 H395 0.928 . S
C372 N352 1.421 . S
C372 C373 1.371 . S
C372 C377 1.385 . S
C373 C372 1.371 . S
C373 C374 1.367 . S
C373 H396 0.931 . S
C374 C373 1.367 . S
C374 C375 1.401 . S
C375 C374 1.401 . S
C375 C376 1.385 . S
C375 H397 0.930 . S
C376 C375 1.385 . S
C376 C377 1.402 . S
C377 C372 1.385 . S
C377 C376 1.402 . S
C377 H398 0.929 . S
C378 N343 1.421 . S
C378 C381 1.385 . S
C378 C382 1.371 . S
C379 C380 1.385 . S
C379 C383 1.401 . S
C379 H399 0.930 . S
C380 C379 1.385 . S
C380 C381 1.402 . S
C381 C378 1.385 . S
C381 C380 1.402 . S
C381 H400 0.929 . S
C382 C378 1.371 . S
C382 C383 1.367 . S
C382 H401 0.931 . S
C383 C379 1.401 . S
C383 C382 1.367 . S
H384 C338 0.931 . S
H385 C339 0.930 . S
H386 C340 0.929 . S
H387 C346 0.931 . S
H388 C347 0.930 . S
H389 C348 0.929 . S
H390 C360 0.928 . S
H391 C361 0.930 . S
H392 C363 0.930 . S
H393 C367 0.930 . S
H394 C369 0.930 . S
H395 C371 0.928 . S
H396 C373 0.931 . S
H397 C375 0.930 . S
H398 C377 0.929 . S
H399 C379 0.930 . S
H400 C381 0.929 . S
H401 C382 0.931 . S
C402 O403 1.201 . S
C402 C404 1.493 . S
C402 N419 1.318 . S
O403 C402 1.201 . S
C404 C402 1.493 . S
C404 C405 1.381 . S
C404 N409 1.335 . S
C405 C404 1.381 . S
C405 C406 1.411 . S
C405 H451 0.931 . S
C406 C405 1.411 . S
C406 C407 1.384 . S
C406 H452 0.930 . S
C407 C406 1.384 . S
C407 C408 1.376 . S
C407 H453 0.929 . S
C408 C407 1.376 . S
C408 N409 1.330 . S
C408 C423 1.484 1_565 S
N409 C404 1.335 . S
N409 C408 1.330 . S
N409 Co411 1.859 1_565 S
N410 Co411 1.962 . S
N410 C421 1.318 . S
N410 C445 1.421 . S
Co411 N409 1.859 1_545 S
Co411 N410 1.962 . S
Co411 N412 1.859 . S
Co411 N418 1.958 1_545 S
Co411 N419 1.962 1_545 S
Co411 N420 1.958 . S
N412 Co411 1.859 . S
N412 C416 1.330 . S
N412 C417 1.335 . S
C413 C414 1.411 . S
C413 C417 1.381 . S
C413 H454 0.931 . S
C414 C413 1.411 . S
C414 C415 1.384 . S
C414 H455 0.930 . S
C415 C414 1.384 . S
C415 C416 1.376 . S
C415 H456 0.929 . S
C416 N412 1.330 . S
C416 C415 1.376 . S
C416 C431 1.484 1_545 S
C417 N412 1.335 . S
C417 C413 1.381 . S
C417 C421 1.493 . S
N418 Co411 1.958 1_565 S
N418 C431 1.344 . S
N418 C433 1.425 . S
N419 C402 1.318 . S
N419 Co411 1.962 1_565 S
N419 C439 1.421 . S
N420 Co411 1.958 . S
N420 C423 1.344 . S
N420 C425 1.425 . S
C421 N410 1.318 . S
C421 C417 1.493 . S
C421 O422 1.201 . S
O422 C421 1.201 . S
C423 C408 1.484 1_545 S
C423 N420 1.344 . S
C423 O424 1.268 . S
O424 C423 1.268 . S
C425 N420 1.425 . S
C425 C427 1.392 . S
C425 C428 1.368 . S
C426 C427 1.382 . S
C426 C430 1.386 . S
C427 C425 1.392 . S
C427 C426 1.382 . S
C427 H457 0.928 . S
C428 C425 1.368 . S
C428 C429 1.367 . S
C428 H458 0.930 . S
C429 C428 1.367 . S
C429 C430 1.369 . S
C430 C426 1.386 . S
C430 C429 1.369 . S
C430 H459 0.930 . S
C431 C416 1.484 1_565 S
C431 N418 1.344 . S
C431 O432 1.268 . S
O432 C431 1.268 . S
C433 N418 1.425 . S
C433 C434 1.368 . S
C433 C438 1.392 . S
C434 C433 1.368 . S
C434 C435 1.367 . S
C434 H460 0.930 . S
C435 C434 1.367 . S
C435 C436 1.369 . S
C436 C435 1.369 . S
C436 C437 1.386 . S
C436 H461 0.930 . S
C437 C436 1.386 . S
C437 C438 1.382 . S
C438 C433 1.392 . S
C438 C437 1.382 . S
C438 H462 0.928 . S
C439 N419 1.421 . S
C439 C440 1.371 . S
C439 C444 1.385 . S
C440 C439 1.371 . S
C440 C441 1.367 . S
C440 H463 0.931 . S
C441 C440 1.367 . S
C441 C442 1.401 . S
C442 C441 1.401 . S
C442 C443 1.385 . S
C442 H464 0.930 . S
C443 C442 1.385 . S
C443 C444 1.402 . S
C444 C439 1.385 . S
C444 C443 1.402 . S
C444 H465 0.929 . S
C445 N410 1.421 . S
C445 C448 1.385 . S
C445 C449 1.371 . S
C446 C447 1.385 . S
C446 C450 1.401 . S
C446 H466 0.930 . S
C447 C446 1.385 . S
C447 C448 1.402 . S
C448 C445 1.385 . S
C448 C447 1.402 . S
C448 H467 0.929 . S
C449 C445 1.371 . S
C449 C450 1.367 . S
C449 H468 0.931 . S
C450 C446 1.401 . S
C450 C449 1.367 . S
H451 C405 0.931 . S
H452 C406 0.930 . S
H453 C407 0.929 . S
H454 C413 0.931 . S
H455 C414 0.930 . S
H456 C415 0.929 . S
H457 C427 0.928 . S
H458 C428 0.930 . S
H459 C430 0.930 . S
H460 C434 0.930 . S
H461 C436 0.930 . S
H462 C438 0.928 . S
H463 C440 0.931 . S
H464 C442 0.930 . S
H465 C444 0.929 . S
H466 C446 0.930 . S
H467 C448 0.929 . S
H468 C449 0.931 . S
C469 O470 1.201 . S
C469 C471 1.493 . S
C469 N486 1.318 . S
O470 C469 1.201 . S
C471 C469 1.493 . S
C471 C472 1.381 . S
C471 N476 1.335 1_554 S
C472 C471 1.381 . S
C472 C473 1.411 1_554 S
C472 H518 0.931 . S
C473 C472 1.411 1_556 S
C473 C474 1.384 . S
C473 H519 0.930 . S
C474 C473 1.384 . S
C474 C475 1.376 . S
C474 H520 0.929 . S
C475 C474 1.376 . S
C475 N476 1.330 . S
C475 C490 1.484 . S
N476 C471 1.335 1_556 S
N476 C475 1.330 . S
N476 Co478 1.859 . S
N477 Co478 1.962 1_554 S
N477 C488 1.318 . S
N477 C512 1.421 . S
Co478 N476 1.859 . S
Co478 N477 1.962 1_556 S
Co478 N479 1.859 . S
Co478 N485 1.958 . S
Co478 N486 1.962 1_556 S
Co478 N487 1.958 . S
N479 Co478 1.859 . S
N479 C483 1.330 . S
N479 C484 1.335 1_556 S
C480 C481 1.411 1_554 S
C480 C484 1.381 . S
C480 H521 0.931 . S
C481 C480 1.411 1_556 S
C481 C482 1.384 . S
C481 H522 0.930 . S
C482 C481 1.384 . S
C482 C483 1.376 . S
C482 H523 0.929 . S
C483 N479 1.330 . S
C483 C482 1.376 . S
C483 C498 1.484 . S
C484 N479 1.335 1_554 S
C484 C480 1.381 . S
C484 C488 1.493 . S
N485 Co478 1.958 . S
N485 C498 1.344 . S
N485 C500 1.425 . S
N486 C469 1.318 . S
N486 Co478 1.962 1_554 S
N486 C506 1.421 . S
N487 Co478 1.958 . S
N487 C490 1.344 . S
N487 C492 1.425 . S
C488 N477 1.318 . S
C488 C484 1.493 . S
C488 O489 1.201 . S
O489 C488 1.201 . S
C490 C475 1.484 . S
C490 N487 1.344 . S
C490 O491 1.268 . S
O491 C490 1.268 . S
C492 N487 1.425 . S
C492 C494 1.392 . S
C492 C495 1.368 . S
C493 C494 1.382 . S
C493 C497 1.386 . S
C494 C492 1.392 . S
C494 C493 1.382 . S
C494 H524 0.928 . S
C495 C492 1.368 . S
C495 C496 1.367 . S
C495 H525 0.930 . S
C496 C495 1.367 . S
C496 C497 1.369 . S
C497 C493 1.386 . S
C497 C496 1.369 . S
C497 H526 0.930 . S
C498 C483 1.484 . S
C498 N485 1.344 . S
C498 O499 1.268 . S
O499 C498 1.268 . S
C500 N485 1.425 . S
C500 C501 1.368 . S
C500 C505 1.392 . S
C501 C500 1.368 . S
C501 C502 1.367 . S
C501 H527 0.930 . S
C502 C501 1.367 . S
C502 C503 1.369 . S
C503 C502 1.369 . S
C503 C504 1.386 . S
C503 H528 0.930 . S
C504 C503 1.386 . S
C504 C505 1.382 . S
C505 C500 1.392 . S
C505 C504 1.382 . S
C505 H529 0.928 . S
C506 N486 1.421 . S
C506 C507 1.371 . S
C506 C511 1.385 . S
C507 C506 1.371 . S
C507 C508 1.367 . S
C507 H530 0.931 . S
C508 C507 1.367 . S
C508 C509 1.401 . S
C509 C508 1.401 . S
C509 C510 1.385 . S
C509 H531 0.930 . S
C510 C509 1.385 . S
C510 C511 1.402 . S
C511 C506 1.385 . S
C511 C510 1.402 . S
C511 H532 0.929 . S
C512 N477 1.421 . S
C512 C515 1.385 . S
C512 C516 1.371 . S
C513 C514 1.385 . S
C513 C517 1.401 . S
C513 H533 0.930 . S
C514 C513 1.385 . S
C514 C515 1.402 . S
C515 C512 1.385 . S
C515 C514 1.402 . S
C515 H534 0.929 . S
C516 C512 1.371 . S
C516 C517 1.367 . S
C516 H535 0.931 . S
C517 C513 1.401 . S
C517 C516 1.367 . S
H518 C472 0.931 . S
H519 C473 0.930 . S
H520 C474 0.929 . S
H521 C480 0.931 . S
H522 C481 0.930 . S
H523 C482 0.929 . S
H524 C494 0.928 . S
H525 C495 0.930 . S
H526 C497 0.930 . S
H527 C501 0.930 . S
H528 C503 0.930 . S
H529 C505 0.928 . S
H530 C507 0.931 . S
H531 C509 0.930 . S
H532 C511 0.929 . S
H533 C513 0.930 . S
H534 C515 0.929 . S
H535 C516 0.931 . S
C536 C537 1.369 . S
C536 C538 1.419 . S
C536 H540 0.930 . S
C537 C536 1.369 . S
C537 C546 1.429 . S
C538 C536 1.419 . S
C538 C539 1.363 . S
C538 H541 0.929 . S
C539 C538 1.363 . S
C539 C545 1.428 . S
H540 C536 0.930 . S
H541 C538 0.929 . S
S542 N543 1.613 . S
S542 N544 1.610 . S
N543 S542 1.613 . S
N543 C546 1.350 1_565 S
N544 S542 1.610 . S
N544 C545 1.351 1_565 S
C545 C539 1.428 . S
C545 N544 1.351 1_545 S
C545 C546 1.434 . S
C546 C537 1.429 . S
C546 N543 1.350 1_545 S
C546 C545 1.434 . S
C547 C548 1.369 . S
C547 C549 1.419 . S
C547 H551 0.930 1_565 S
C548 C547 1.369 . S
C548 C557 1.429 . S
C549 C547 1.419 . S
C549 C550 1.363 . S
C549 H552 0.929 1_565 S
C550 C549 1.363 . S
C550 C556 1.428 . S
H551 C547 0.930 1_545 S
H552 C549 0.929 1_545 S
S553 N554 1.613 . S
S553 N555 1.610 . S
N554 S553 1.613 . S
N554 C557 1.350 . S
N555 S553 1.610 . S
N555 C556 1.351 . S
C556 C550 1.428 . S
C556 N555 1.351 . S
C556 C557 1.434 . S
C557 C548 1.429 . S
C557 N554 1.350 . S
C557 C556 1.434 . S
C558 C559 1.369 . S
C558 C560 1.419 . S
C558 H562 0.930 . S
C559 C558 1.369 . S
C559 C568 1.429 . S
C560 C558 1.419 . S
C560 C561 1.363 . S
C560 H563 0.929 . S
C561 C560 1.363 . S
C561 C567 1.428 . S
H562 C558 0.930 . S
H563 C560 0.929 . S
S564 N565 1.613 . S
S564 N566 1.610 . S
N565 S564 1.613 . S
N565 C568 1.350 . S
N566 S564 1.610 . S
N566 C567 1.351 . S
C567 C561 1.428 . S
C567 N566 1.351 . S
C567 C568 1.434 . S
C568 C559 1.429 . S
C568 N565 1.350 . S
C568 C567 1.434 . S
C569 C570 1.369 . S
C569 C571 1.419 . S
C569 H573 0.930 . S
C570 C569 1.369 . S
C570 C579 1.429 . S
C571 C569 1.419 . S
C571 C572 1.363 . S
C571 H574 0.929 . S
C572 C571 1.363 . S
C572 C578 1.428 . S
H573 C569 0.930 . S
H574 C571 0.929 . S
S575 N576 1.613 . S
S575 N577 1.610 . S
N576 S575 1.613 . S
N576 C579 1.350 . S
N577 S575 1.610 . S
N577 C578 1.351 . S
C578 C572 1.428 . S
C578 N577 1.351 . S
C578 C579 1.434 . S
C579 C570 1.429 . S
C579 N576 1.350 . S
C579 C578 1.434 . S
C580 C581 1.369 . S
C580 C582 1.419 . S
C580 H584 0.930 . S
C581 C580 1.369 . S
C581 C590 1.429 . S
C582 C580 1.419 . S
C582 C583 1.363 . S
C582 H585 0.929 . S
C583 C582 1.363 . S
C583 C589 1.428 . S
H584 C580 0.930 . S
H585 C582 0.929 . S
S586 N587 1.613 . S
S586 N588 1.610 . S
N587 S586 1.613 . S
N587 C590 1.350 . S
N588 S586 1.610 . S
N588 C589 1.351 . S
C589 C583 1.428 . S
C589 N588 1.351 . S
C589 C590 1.434 . S
C590 C581 1.429 . S
C590 N587 1.350 . S
C590 C589 1.434 . S
C591 C592 1.369 . S
C591 C593 1.419 . S
C591 H595 0.930 . S
C592 C591 1.369 . S
C592 C601 1.429 . S
C593 C591 1.419 . S
C593 C594 1.363 . S
C593 H596 0.929 . S
C594 C593 1.363 . S
C594 C600 1.428 . S
H595 C591 0.930 . S
H596 C593 0.929 . S
S597 N598 1.613 . S
S597 N599 1.610 . S
N598 S597 1.613 . S
N598 C601 1.350 . S
N599 S597 1.610 . S
N599 C600 1.351 . S
C600 C594 1.428 . S
C600 N599 1.351 . S
C600 C601 1.434 . S
C601 C592 1.429 . S
C601 N598 1.350 . S
C601 C600 1.434 . S
C602 C603 1.369 . S
C602 C604 1.419 . S
C602 H606 0.930 . S
C603 C602 1.369 . S
C603 C612 1.429 . S
C604 C602 1.419 . S
C604 C605 1.363 . S
C604 H607 0.929 . S
C605 C604 1.363 . S
C605 C611 1.428 . S
H606 C602 0.930 . S
H607 C604 0.929 . S
S608 N609 1.613 . S
S608 N610 1.610 . S
N609 S608 1.613 . S
N609 C612 1.350 . S
N610 S608 1.610 . S
N610 C611 1.351 . S
C611 C605 1.428 . S
C611 N610 1.351 . S
C611 C612 1.434 . S
C612 C603 1.429 . S
C612 N609 1.350 . S
C612 C611 1.434 . S
C613 C614 1.369 . S
C613 C615 1.419 . S
C613 H617 0.930 . S
C614 C613 1.369 . S
C614 C623 1.429 . S
C615 C613 1.419 . S
C615 C616 1.363 . S
C615 H618 0.929 . S
C616 C615 1.363 . S
C616 C622 1.428 . S
H617 C613 0.930 . S
H618 C615 0.929 . S
S619 N620 1.613 1_565 S
S619 N621 1.610 1_565 S
N620 S619 1.613 1_545 S
N620 C623 1.350 . S
N621 S619 1.610 1_545 S
N621 C622 1.351 . S
C622 C616 1.428 . S
C622 N621 1.351 . S
C622 C623 1.434 . S
C623 C614 1.429 . S
C623 N620 1.350 . S
C623 C622 1.434 . S
C624 C625 1.369 . S
C624 C626 1.419 . S
C624 H628 0.930 1_545 S
C625 C624 1.369 . S
C625 C634 1.429 . S
C626 C624 1.419 . S
C626 C627 1.363 . S
C626 H629 0.925 1_545 S
C627 C626 1.363 . S
C627 C633 1.428 . S
H628 C624 0.930 1_565 S
H629 C626 0.925 1_565 S
S630 N631 1.613 . S
S630 N632 1.610 . S
N631 S630 1.613 . S
N631 C634 1.350 . S
N632 S630 1.610 . S
N632 C633 1.351 . S
C633 C627 1.428 . S
C633 N632 1.351 . S
C633 C634 1.434 . S
C634 C625 1.429 . S
C634 N631 1.350 . S
C634 C633 1.434 . S
C635 C636 1.369 . S
C635 C637 1.419 . S
C635 H639 0.930 . S
C636 C635 1.369 . S
C636 C645 1.429 . S
C637 C635 1.419 . S
C637 C638 1.363 . S
C637 H640 0.929 1_565 S
C638 C637 1.363 . S
C638 C644 1.428 . S
H639 C635 0.930 . S
H640 C637 0.929 1_545 S
S641 N642 1.613 . S
S641 N643 1.610 . S
N642 S641 1.613 . S
N642 C645 1.350 . S
N643 S641 1.610 . S
N643 C644 1.351 . S
C644 C638 1.428 . S
C644 N643 1.351 . S
C644 C645 1.434 . S
C645 C636 1.429 . S
C645 N642 1.350 . S
C645 C644 1.434 . S
C646 C647 1.369 . S
C646 C648 1.419 . S
C646 H650 0.930 . S
C647 C646 1.369 . S
C647 C656 1.429 . S
C648 C646 1.419 . S
C648 C649 1.363 . S
C648 H651 0.929 . S
C649 C648 1.363 . S
C649 C655 1.428 . S
H650 C646 0.930 . S
H651 C648 0.929 . S
S652 N653 1.613 . S
S652 N654 1.610 . S
N653 S652 1.613 . S
N653 C656 1.350 . S
N654 S652 1.610 . S
N654 C655 1.351 . S
C655 C649 1.428 . S
C655 N654 1.351 . S
C655 C656 1.434 . S
C656 C647 1.429 . S
C656 N653 1.350 . S
C656 C655 1.434 . S
C657 C658 1.369 . S
C657 C659 1.419 . S
C657 H661 0.930 . S
C658 C657 1.369 . S
C658 C667 1.429 . S
C659 C657 1.419 . S
C659 C660 1.363 . S
C659 H662 0.929 . S
C660 C659 1.363 . S
C660 C666 1.428 . S
H661 C657 0.930 . S
H662 C659 0.929 . S
S663 N664 1.613 . S
S663 N665 1.610 . S
N664 S663 1.613 . S
N664 C667 1.350 . S
N665 S663 1.610 . S
N665 C666 1.351 . S
C666 C660 1.428 . S
C666 N665 1.351 . S
C666 C667 1.434 . S
C667 C658 1.429 . S
C667 N664 1.350 . S
C667 C666 1.434 . S
C668 C669 1.369 . S
C668 C670 1.419 . S
C668 H672 0.930 . S
C669 C668 1.369 . S
C669 C678 1.429 . S
C670 C668 1.419 . S
C670 C671 1.363 . S
C670 H673 0.929 . S
C671 C670 1.363 . S
C671 C677 1.428 . S
H672 C668 0.930 . S
H673 C670 0.929 . S
S674 N675 1.613 . S
S674 N676 1.610 . S
N675 S674 1.613 . S
N675 C678 1.350 . S
N676 S674 1.610 . S
N676 C677 1.351 . S
C677 C671 1.428 . S
C677 N676 1.351 . S
C677 C678 1.434 . S
C678 C669 1.429 . S
C678 N675 1.350 . S
C678 C677 1.434 . S
C679 C680 1.369 . S
C679 C681 1.419 . S
C679 H683 0.930 . S
C680 C679 1.369 . S
C680 C689 1.429 . S
C681 C679 1.419 . S
C681 C682 1.363 . S
C681 H684 0.929 . S
C682 C681 1.363 . S
C682 C688 1.428 . S
H683 C679 0.930 . S
H684 C681 0.929 . S
S685 N686 1.613 . S
S685 N687 1.610 . S
N686 S685 1.613 . S
N686 C689 1.350 . S
N687 S685 1.610 . S
N687 C688 1.351 . S
C688 C682 1.428 . S
C688 N687 1.351 . S
C688 C689 1.434 . S
C689 C680 1.429 . S
C689 N686 1.350 . S
C689 C688 1.434 . S
C690 C691 1.369 . S
C690 C692 1.419 . S
C690 H694 0.930 . S
C691 C690 1.369 . S
C691 C700 1.429 . S
C692 C690 1.419 . S
C692 C693 1.363 . S
C692 H695 0.929 . S
C693 C692 1.363 . S
C693 C699 1.428 . S
H694 C690 0.930 . S
H695 C692 0.929 . S
S696 N697 1.613 . S
S696 N698 1.610 . S
N697 S696 1.613 . S
N697 C700 1.350 . S
N698 S696 1.610 . S
N698 C699 1.351 . S
C699 C693 1.428 . S
C699 N698 1.351 . S
C699 C700 1.434 . S
C700 C691 1.429 . S
C700 N697 1.350 . S
C700 C699 1.434 . S
C701 C702 1.369 . S
C701 C703 1.419 . S
C701 H705 0.930 . S
C702 C701 1.369 . S
C702 C711 1.429 . S
C703 C701 1.419 . S
C703 C704 1.363 . S
C703 H706 0.929 . S
C704 C703 1.363 . S
C704 C710 1.428 . S
H705 C701 0.930 . S
H706 C703 0.929 . S
S707 N708 1.613 . S
S707 N709 1.610 . S
N708 S707 1.613 . S
N708 C711 1.350 . S
N709 S707 1.610 . S
N709 C710 1.351 . S
C710 C704 1.428 . S
C710 N709 1.351 . S
C710 C711 1.434 . S
C711 C702 1.429 . S
C711 N708 1.350 . S
C711 C710 1.434 . S
C712 C713 1.369 1_655 S
C712 C714 1.419 . S
C712 H716 0.930 . S
C713 C712 1.369 1_455 S
C713 C722 1.429 . S
C714 C712 1.419 . S
C714 C715 1.363 . S
C714 H717 0.929 . S
C715 C714 1.363 . S
C715 C721 1.428 1_655 S
H716 C712 0.930 . S
H717 C714 0.929 . S
S718 N719 1.613 . S
S718 N720 1.610 . S
N719 S718 1.613 . S
N719 C722 1.350 1_554 S
N720 S718 1.610 . S
N720 C721 1.351 1_554 S
C721 C715 1.428 1_455 S
C721 N720 1.351 1_556 S
C721 C722 1.434 . S
C722 C713 1.429 . S
C722 N719 1.350 1_556 S
C722 C721 1.434 . S
C723 C724 1.369 . S
C723 C725 1.419 . S
C723 H727 0.930 . S
C724 C723 1.369 . S
C724 C733 1.429 . S
C725 C723 1.419 . S
C725 C726 1.363 . S
C725 H728 0.929 . S
C726 C725 1.363 . S
C726 C732 1.428 . S
H727 C723 0.930 . S
H728 C725 0.929 . S
S729 N730 1.613 . S
S729 N731 1.610 . S
N730 S729 1.613 . S
N730 C733 1.350 . S
N731 S729 1.610 . S
N731 C732 1.351 . S
C732 C726 1.428 . S
C732 N731 1.351 . S
C732 C733 1.434 . S
C733 C724 1.429 . S
C733 N730 1.350 . S
C733 C732 1.434 . S
C734 C735 1.369 . S
C734 C736 1.419 . S
C734 H738 0.930 . S
C735 C734 1.369 . S
C735 C744 1.429 . S
C736 C734 1.419 . S
C736 C737 1.363 . S
C736 H739 0.929 . S
C737 C736 1.363 . S
C737 C743 1.428 . S
H738 C734 0.930 . S
H739 C736 0.929 . S
S740 N741 1.613 . S
S740 N742 1.610 . S
N741 S740 1.613 . S
N741 C744 1.350 . S
N742 S740 1.610 . S
N742 C743 1.351 . S
C743 C737 1.428 . S
C743 N742 1.351 . S
C743 C744 1.434 . S
C744 C735 1.429 . S
C744 N741 1.350 . S
C744 C743 1.434 . S
C745 C746 1.369 . S
C745 C747 1.419 1_565 S
C745 H749 0.930 . S
C746 C745 1.369 . S
C746 C755 1.429 1_655 S
C747 C745 1.419 1_545 S
C747 C748 1.363 1_655 S
C747 H750 0.929 . S
C748 C747 1.363 1_455 S
C748 C754 1.428 . S
H749 C745 0.930 . S
H750 C747 0.929 . S
S751 N752 1.613 . S
S751 N753 1.610 1_565 S
N752 S751 1.613 . S
N752 C755 1.350 . S
N753 S751 1.610 1_545 S
N753 C754 1.351 . S
C754 C748 1.428 . S
C754 N753 1.351 . S
C754 C755 1.434 1_545 S
C755 C746 1.429 1_455 S
C755 N752 1.350 . S
C755 C754 1.434 1_565 S
C756 C757 1.369 . S
C756 C758 1.419 . S
C756 H760 0.930 . S
C757 C756 1.369 . S
C757 C766 1.429 . S
C758 C756 1.419 . S
C758 C759 1.363 . S
C758 H761 0.929 . S
C759 C758 1.363 . S
C759 C765 1.428 . S
H760 C756 0.930 . S
H761 C758 0.929 . S
S762 N763 1.613 . S
S762 N764 1.610 . S
N763 S762 1.613 . S
N763 C766 1.350 . S
N764 S762 1.610 . S
N764 C765 1.351 . S
C765 C759 1.428 . S
C765 N764 1.351 . S
C765 C766 1.434 . S
C766 C757 1.429 . S
C766 N763 1.350 . S
C766 C765 1.434 . S
C767 C768 1.369 . S
C767 C769 1.419 . S
C767 H771 0.930 . S
C768 C767 1.369 . S
C768 C777 1.429 . S
C769 C767 1.419 . S
C769 C770 1.363 . S
C769 H772 0.929 . S
C770 C769 1.363 . S
C770 C776 1.428 . S
H771 C767 0.930 . S
H772 C769 0.929 . S
S773 N774 1.613 . S
S773 N775 1.610 . S
N774 S773 1.613 . S
N774 C777 1.350 . S
N775 S773 1.610 . S
N775 C776 1.351 . S
C776 C770 1.428 . S
C776 N775 1.351 . S
C776 C777 1.434 . S
C777 C768 1.429 . S
C777 N774 1.350 . S
C777 C776 1.434 . S
C778 C779 1.369 . S
C778 C780 1.419 . S
C778 H782 0.930 . S
C779 C778 1.369 . S
C779 C788 1.429 . S
C780 C778 1.419 . S
C780 C781 1.363 . S
C780 H783 0.929 . S
C781 C780 1.363 . S
C781 C787 1.428 . S
H782 C778 0.930 . S
H783 C780 0.929 . S
S784 N785 1.613 . S
S784 N786 1.610 . S
N785 S784 1.613 . S
N785 C788 1.350 . S
N786 S784 1.610 . S
N786 C787 1.351 . S
C787 C781 1.428 . S
C787 N786 1.351 . S
C787 C788 1.434 . S
C788 C779 1.429 . S
C788 N785 1.350 . S
C788 C787 1.434 . S
C789 C790 1.369 . S
C789 C791 1.419 1_565 S
C789 H793 0.930 . S
C790 C789 1.369 . S
C790 C799 1.429 . S
C791 C789 1.419 1_545 S
C791 C792 1.363 . S
C791 H794 0.929 . S
C792 C791 1.363 . S
C792 C798 1.428 . S
H793 C789 0.930 . S
H794 C791 0.929 . S
S795 N796 1.613 . S
S795 N797 1.610 1_565 S
N796 S795 1.613 . S
N796 C799 1.350 1_554 S
N797 S795 1.610 1_545 S
N797 C798 1.351 1_554 S
C798 C792 1.428 . S
C798 N797 1.351 1_556 S
C798 C799 1.434 1_545 S
C799 C790 1.429 . S
C799 N796 1.350 1_556 S
C799 C798 1.434 1_565 S
C800 C801 1.369 . S
C800 C802 1.419 . S
C800 H804 0.930 . S
C801 C800 1.369 . S
C801 C810 1.429 . S
C802 C800 1.419 . S
C802 C803 1.363 . S
C802 H805 0.929 . S
C803 C802 1.363 . S
C803 C809 1.428 . S
H804 C800 0.930 . S
H805 C802 0.929 . S
S806 N807 1.613 . S
S806 N808 1.610 . S
N807 S806 1.613 . S
N807 C810 1.350 . S
N808 S806 1.610 . S
N808 C809 1.351 . S
C809 C803 1.428 . S
C809 N808 1.351 . S
C809 C810 1.434 . S
C810 C801 1.429 . S
C810 N807 1.350 . S
C810 C809 1.434 . S
C811 C812 1.369 . S
C811 C813 1.419 . S
C811 H815 0.930 . S
C812 C811 1.369 . S
C812 C821 1.429 . S
C813 C811 1.419 . S
C813 C814 1.363 . S
C813 H816 0.929 . S
C814 C813 1.363 . S
C814 C820 1.428 . S
H815 C811 0.930 . S
H816 C813 0.929 . S
S817 N818 1.613 . S
S817 N819 1.610 . S
N818 S817 1.613 . S
N818 C821 1.350 . S
N819 S817 1.610 . S
N819 C820 1.351 . S
C820 C814 1.428 . S
C820 N819 1.351 . S
C820 C821 1.434 . S
C821 C812 1.429 . S
C821 N818 1.350 . S
C821 C820 1.434 . S
C822 C823 1.369 . S
C822 C824 1.419 1_455 S
C822 H826 0.930 . S
C823 C822 1.369 . S
C823 C832 1.429 . S
C824 C822 1.419 1_655 S
C824 C825 1.363 . S
C824 H827 0.929 . S
C825 C824 1.363 . S
C825 C831 1.428 . S
H826 C822 0.930 . S
H827 C824 0.929 . S
S828 N829 1.613 . S
S828 N830 1.610 1_455 S
N829 S828 1.613 . S
N829 C832 1.350 . S
N830 S828 1.610 1_655 S
N830 C831 1.351 . S
C831 C825 1.428 . S
C831 N830 1.351 . S
C831 C832 1.434 1_655 S
C832 C823 1.429 . S
C832 N829 1.350 . S
C832 C831 1.434 1_455 S
C833 C834 1.369 . S
C833 C835 1.419 . S
C833 H837 0.930 . S
C834 C833 1.369 . S
C834 C843 1.429 . S
C835 C833 1.419 . S
C835 C836 1.363 . S
C835 H838 0.929 . S
C836 C835 1.363 . S
C836 C842 1.428 . S
H837 C833 0.930 . S
H838 C835 0.929 . S
S839 N840 1.613 . S
S839 N841 1.610 . S
N840 S839 1.613 . S
N840 C843 1.350 . S
N841 S839 1.610 . S
N841 C842 1.351 . S
C842 C836 1.428 . S
C842 N841 1.351 . S
C842 C843 1.434 . S
C843 C834 1.429 . S
C843 N840 1.350 . S
C843 C842 1.434 . S
C844 C845 1.369 . S
C844 C846 1.419 . S
C844 H848 0.930 . S
C845 C844 1.369 . S
C845 C854 1.429 . S
C846 C844 1.419 . S
C846 C847 1.363 . S
C846 H849 0.929 . S
C847 C846 1.363 . S
C847 C853 1.428 . S
H848 C844 0.930 . S
H849 C846 0.929 . S
S850 N851 1.613 . S
S850 N852 1.610 . S
N851 S850 1.613 . S
N851 C854 1.350 . S
N852 S850 1.610 . S
N852 C853 1.351 . S
C853 C847 1.428 . S
C853 N852 1.351 . S
C853 C854 1.434 . S
C854 C845 1.429 . S
C854 N851 1.350 . S
C854 C853 1.434 . S
C855 C856 1.369 . S
C855 C857 1.419 1_655 S
C855 H859 0.930 . S
C856 C855 1.369 . S
C856 C865 1.429 1_545 S
C857 C855 1.419 1_455 S
C857 C858 1.363 1_545 S
C857 H860 0.929 . S
C858 C857 1.363 1_565 S
C858 C864 1.428 . S
H859 C855 0.930 . S
H860 C857 0.929 . S
S861 N862 1.613 . S
S861 N863 1.610 1_655 S
N862 S861 1.613 . S
N862 C865 1.350 . S
N863 S861 1.610 1_455 S
N863 C864 1.351 . S
C864 C858 1.428 . S
C864 N863 1.351 . S
C864 C865 1.434 1_455 S
C865 C856 1.429 1_565 S
C865 N862 1.350 . S
C865 C864 1.434 1_655 S
C866 C867 1.369 . S
C866 C868 1.419 . S
C866 H870 0.930 . S
C867 C866 1.369 . S
C867 C876 1.429 . S
C868 C866 1.419 . S
C868 C869 1.363 . S
C868 H871 0.929 . S
C869 C868 1.363 . S
C869 C875 1.428 . S
H870 C866 0.930 . S
H871 C868 0.929 . S
S872 N873 1.613 . S
S872 N874 1.610 . S
N873 S872 1.613 . S
N873 C876 1.350 . S
N874 S872 1.610 . S
N874 C875 1.351 . S
C875 C869 1.428 . S
C875 N874 1.351 . S
C875 C876 1.434 . S
C876 C867 1.429 . S
C876 N873 1.350 . S
C876 C875 1.434 . S
C877 C878 1.369 . S
C877 C879 1.419 . S
C877 H881 0.930 . S
C878 C877 1.369 . S
C878 C887 1.429 1_565 S
C879 C877 1.419 . S
C879 C880 1.363 1_565 S
C879 H882 0.929 . S
C880 C879 1.363 1_545 S
C880 C886 1.428 . S
H881 C877 0.930 . S
H882 C879 0.929 . S
S883 N884 1.613 . S
S883 N885 1.610 . S
N884 S883 1.613 . S
N884 C887 1.350 . S
N885 S883 1.610 . S
N885 C886 1.351 . S
C886 C880 1.428 . S
C886 N885 1.351 . S
C886 C887 1.434 . S
C887 C878 1.429 1_545 S
C887 N884 1.350 . S
C887 C886 1.434 . S
C537 C45 1.292 . S
C539 C100 1.266 . S
C548 C41 1.288 . S
C550 C161 1.270 . S
C559 C234 1.270 . S
C561 C112 1.292 . S
C570 C175 1.291 . S
C572 C228 1.275 . S
C581 C246 1.289 . S
C583 C301 1.270 . S
C592 C362 1.274 . S
C594 C242 1.291 . S
C603 C313 1.294 . S
C605 C33 1.272 . S
C614 C376 1.290 . S
C616 C27 1.274 . S
C625 C368 1.269 . S
C627 C447 1.289 . S
C636 C443 1.288 . S
C638 C295 1.267 . S
C647 C502 1.273 . S
C649 C380 1.290 . S
C658 C496 1.271 . S
C660 C309 1.293 . S
C669 C514 1.292 . S
C671 C167 1.268 . S
C680 C94 1.270 . S
C682 C510 1.293 . S
C691 C435 1.273 . S
C693 C179 1.290 . S
C702 C429 1.268 . S
C704 C108 1.292 . S
C713 C35 1.903 . S
C715 C24 1.903 . S
C724 C91 1.901 . S
C726 C102 1.902 . S
C735 C158 1.899 . S
C737 C169 1.900 . S
C746 C225 1.904 . S
C748 C236 1.903 . S
C757 C292 1.904 . S
C759 C303 1.903 . S
C768 C359 1.904 . S
C770 C370 1.903 . S
C779 C437 1.903 . S
C781 C426 1.903 . S
C790 C493 1.904 . S
C792 C504 1.903 . S
C801 C508 1.426 . S
C803 C48 1.422 . S
C812 C39 1.423 . S
C814 C517 1.427 . S
C823 C115 1.428 . S
C825 C173 1.427 . S
C834 C441 1.421 . S
C836 C249 1.422 . S
C845 C240 1.425 . S
C847 C450 1.427 . S
C856 C374 1.422 . S
C858 C316 1.423 . S
C867 C383 1.422 . S
C869 C307 1.422 . S
C878 C182 1.421 . S
C880 C106 1.422 . S
