# Generated by pormake.
# Topology sra, (4)-cn, num edge types: 1
# Building blocks:
#     Node 0, Type 0, BuildingBlock: KUFVIS_clean_sbu_0, # of connection points: 4
#     Node 1, Type 0, BuildingBlock: KUFVIS_clean_sbu_0, # of connection points: 4
#     Node 2, Type 0, BuildingBlock: KUFVIS_clean_sbu_0, # of connection points: 4
#     Node 3, Type 0, BuildingBlock: KUFVIS_clean_sbu_0, # of connection points: 4
#     Node 4, Type 0, BuildingBlock: KUFVIS_clean_sbu_0, # of connection points: 4
#     Node 5, Type 0, BuildingBlock: KUFVIS_clean_sbu_0, # of connection points: 4
#     Node 6, Type 0, BuildingBlock: KUFVIS_clean_sbu_0, # of connection points: 4
#     Node 7, Type 0, BuildingBlock: KUFVIS_clean_sbu_0, # of connection points: 4
#     Edge 8, Type (0, 0), None
#     Edge 9, Type (0, 0), None
#     Edge 10, Type (0, 0), None
#     Edge 11, Type (0, 0), None
#     Edge 12, Type (0, 0), None
#     Edge 13, Type (0, 0), None
#     Edge 14, Type (0, 0), None
#     Edge 15, Type (0, 0), None
#     Edge 16, Type (0, 0), None
#     Edge 17, Type (0, 0), None
#     Edge 18, Type (0, 0), None
#     Edge 19, Type (0, 0), None
#     Edge 20, Type (0, 0), None
#     Edge 21, Type (0, 0), None
#     Edge 22, Type (0, 0), None
#     Edge 23, Type (0, 0), None
# Relax obj value: 0.056
# Max RMSD: 0.083
# Mean RMSD: 0.083
data_MOF--net-sra--node1-KUFVIS_clean_sbu_0--edge1-none
_symmetry_space_group_name_H-M    P1
_symmetry_Int_Tables_number       1
_symmetry_cell_setting            triclinic
loop_
_symmetry_equiv_pos_as_xyz
'x, y, z'
_cell_length_a     10.887012
_cell_length_b     23.939687
_cell_length_c     14.75301
_cell_angle_alpha  89.999698
_cell_angle_beta   90.000001
_cell_angle_gamma 89.999963
loop_
_atom_site_label
_atom_site_type_symbol
_atom_site_fract_x
_atom_site_fract_y
_atom_site_fract_z
_atom_type_partial_charge
Mn0 Mn 1.01182 0.13715 0.15829 0.0
Mn1 Mn 1.01487 1.01343 0.26427 0.0
C2 C 0.83424 0.10317 0.22908 0.0
C3 C 0.04111 0.23355 0.16684 0.0
C4 C 0.05656 0.03178 0.06055 0.0
O5 O 0.19276 0.11835 0.18749 0.0
O6 O 0.15988 0.05816 0.30384 0.0
C7 C 0.17931 0.94666 0.429 0.0
N8 N 0.07967 0.94244 0.37467 0.0
C9 C 1.01343 0.85556 0.45073 0.0
C10 C 0.1194 0.86083 0.50483 0.0
C11 C 0.20251 0.90491 0.49253 0.0
C12 C 0.99805 0.89252 0.37818 0.0
H13 H 0.23992 0.98228 0.42358 0.0
C14 C 0.22924 0.09131 0.25798 0.0
O15 O 0.05152 0.20648 0.09137 0.0
O16 O 1.02025 0.20453 0.23958 0.0
N17 N 0.836 0.95546 0.2077 0.0
C18 C 0.69682 0.98009 0.20117 0.0
C19 C 0.56784 0.9362 0.30847 0.0
C20 C 0.62141 0.88535 0.37619 0.0
C21 C 0.76603 0.8628 0.37828 0.0
C22 C 0.87952 0.8882 0.31247 0.0
H23 H 0.79542 0.97459 0.18865 0.0
O24 O 0.82467 0.14283 0.16929 0.0
O25 O 0.94152 0.08269 0.23296 0.0
O26 O 1.00727 0.07989 0.05614 0.0
O27 O 0.09592 1.01155 0.13543 0.0
C28 C 0.79832 0.82457 0.44538 0.0
C29 C 0.91912 0.81888 0.47628 0.0
H30 H 0.13495 0.83259 0.56099 0.0
H31 H 0.28246 0.90811 0.53553 0.0
H32 H 0.46785 0.94055 0.31275 0.0
H33 H 0.55623 0.86588 0.42158 0.0
H34 H 0.72681 0.80208 0.48087 0.0
H35 H 0.93422 0.79092 0.53278 0.0
Mn36 Mn 0.07769 0.39114 0.15829 0.0
Mn37 Mn 0.07463 0.51486 0.26427 0.0
C38 C 0.25526 0.42512 0.22909 0.0
C39 C 0.04841 0.29474 0.16684 0.0
C40 C 0.03294 0.49651 0.06055 0.0
O41 O 0.89675 0.40994 0.18749 0.0
O42 O 0.92963 0.47013 0.30384 0.0
C43 C 0.91019 0.58163 0.429 0.0
N44 N 1.00984 0.58585 0.37467 0.0
C45 C 0.07607 0.67273 0.45074 0.0
C46 C 0.97011 0.66746 0.50483 0.0
C47 C 0.887 0.62338 0.49253 0.0
C48 C 0.09145 0.63577 0.37818 0.0
H49 H 0.84958 0.54601 0.42358 0.0
C50 C 0.86026 0.43698 0.25798 0.0
O51 O 0.03799 0.32182 0.09137 0.0
O52 O 0.06926 0.32377 0.23958 0.0
N53 N 0.2535 0.57283 0.2077 0.0
C54 C 0.39269 0.5482 0.20117 0.0
C55 C 0.52166 0.59209 0.30847 0.0
C56 C 0.46809 0.64294 0.37619 0.0
C57 C 0.32348 0.6655 0.37828 0.0
C58 C 0.20999 0.64009 0.31247 0.0
H59 H 0.29409 0.5537 0.18865 0.0
O60 O 0.26484 0.38546 0.16929 0.0
O61 O 0.14799 0.4456 0.23296 0.0
O62 O 0.08223 0.4484 0.05614 0.0
O63 O 0.99358 0.51674 0.13543 0.0
C64 C 0.29118 0.70372 0.44538 0.0
C65 C 0.17039 0.70941 0.47629 0.0
H66 H 0.95455 0.6957 0.56099 0.0
H67 H 0.80705 0.62018 0.53553 0.0
H68 H 0.62165 0.58775 0.31275 0.0
H69 H 0.53327 0.66241 0.42158 0.0
H70 H 0.3627 0.72621 0.48087 0.0
H71 H 0.15529 0.73737 0.53279 0.0
Mn72 Mn 1.01181 0.89114 0.88082 0.0
Mn73 Mn 1.01487 0.01486 0.77484 0.0
C74 C 0.83424 0.92512 0.81002 0.0
C75 C 0.04111 0.79474 0.87226 0.0
C76 C 0.05658 0.9965 0.97856 0.0
O77 O 0.19276 0.90994 0.85162 0.0
O78 O 0.15988 0.97014 0.73528 0.0
C79 C 0.17931 0.08163 0.61011 0.0
N80 N 0.07966 0.08585 0.66445 0.0
C81 C 1.01343 0.17273 0.58838 0.0
C82 C 0.11939 0.16747 0.53428 0.0
C83 C 0.2025 0.12339 0.54658 0.0
C84 C 0.99805 0.13577 0.66094 0.0
H85 H 0.23992 0.04601 0.61553 0.0
C86 C 0.22924 0.93698 0.78114 0.0
O87 O 0.05152 0.82182 0.94774 0.0
O88 O 1.02025 0.82377 0.79952 0.0
N89 N 0.836 0.07283 0.83141 0.0
C90 C 0.69682 0.0482 0.83794 0.0
C91 C 0.56784 0.09209 0.73064 0.0
C92 C 0.62141 0.14294 0.66292 0.0
C93 C 0.76602 0.1655 0.66083 0.0
C94 C 0.87951 0.14009 0.72664 0.0
H95 H 0.79542 0.0537 0.85046 0.0
O96 O 0.82467 0.88546 0.86982 0.0
O97 O 0.94152 0.9456 0.80614 0.0
O98 O 1.00727 0.9484 0.98297 0.0
O99 O 0.09592 0.01674 0.90368 0.0
C100 C 0.79831 0.20372 0.59373 0.0
C101 C 0.91911 0.20941 0.56283 0.0
H102 H 0.13495 0.19571 0.47812 0.0
H103 H 0.28245 0.12018 0.50358 0.0
H104 H 0.46785 0.08774 0.72636 0.0
H105 H 0.55623 0.16241 0.61753 0.0
H106 H 0.7268 0.22621 0.55824 0.0
H107 H 0.93421 0.23738 0.50633 0.0
Mn108 Mn 0.07769 0.63715 0.88082 0.0
Mn109 Mn 0.07463 0.51343 0.77484 0.0
C110 C 0.25526 0.60317 0.81002 0.0
C111 C 0.04841 0.73355 0.87226 0.0
C112 C 0.03293 0.53179 0.97856 0.0
O113 O 0.89675 0.61835 0.85162 0.0
O114 O 0.92963 0.55816 0.73528 0.0
C115 C 0.91019 0.44666 0.61011 0.0
N116 N 1.00984 0.44244 0.66444 0.0
C117 C 0.07608 0.35556 0.58837 0.0
C118 C 0.97011 0.36083 0.53428 0.0
C119 C 0.887 0.40491 0.54658 0.0
C120 C 0.09146 0.39252 0.66093 0.0
H121 H 0.84958 0.48228 0.61553 0.0
C122 C 0.86026 0.59131 0.78114 0.0
O123 O 0.038 0.70648 0.94774 0.0
O124 O 0.06926 0.70453 0.79952 0.0
N125 N 0.2535 0.45546 0.83141 0.0
C126 C 0.39269 0.48009 0.83794 0.0
C127 C 0.52166 0.4362 0.73064 0.0
C128 C 0.4681 0.38535 0.66292 0.0
C129 C 0.32348 0.3628 0.66083 0.0
C130 C 0.20999 0.3882 0.72664 0.0
H131 H 0.29409 0.47459 0.85046 0.0
O132 O 0.26484 0.64283 0.86981 0.0
O133 O 0.14799 0.58269 0.80614 0.0
O134 O 0.08224 0.57989 0.98296 0.0
O135 O 0.99359 0.51155 0.90368 0.0
C136 C 0.29119 0.32457 0.59373 0.0
C137 C 0.17039 0.31889 0.56282 0.0
H138 H 0.95456 0.33259 0.47812 0.0
H139 H 0.80705 0.40811 0.50358 0.0
H140 H 0.62165 0.44055 0.72636 0.0
H141 H 0.53328 0.36589 0.61753 0.0
H142 H 0.3627 0.30208 0.55824 0.0
H143 H 0.15529 0.29092 0.50632 0.0
Mn144 Mn 0.51176 0.63715 0.6583 0.0
Mn145 Mn 0.51485 0.51342 0.76428 0.0
C146 C 0.3343 0.60321 0.72916 0.0
C147 C 0.5411 0.73355 0.66686 0.0
C148 C 0.55647 0.53178 0.56055 0.0
O149 O 0.69271 0.61834 0.68748 0.0
O150 O 0.65985 0.55814 0.80383 0.0
C151 C 0.67927 0.44664 0.92899 0.0
N152 N 0.57963 0.44242 0.87466 0.0
C153 C 0.51337 0.35555 0.95072 0.0
C154 C 0.61933 0.36081 1.00483 0.0
C155 C 0.70245 0.40488 0.99253 0.0
C156 C 0.498 0.39251 0.87816 0.0
H157 H 0.73989 0.48226 0.92358 0.0
C158 C 0.72919 0.59131 0.75799 0.0
O159 O 0.55146 0.70648 0.59138 0.0
O160 O 0.52026 0.70452 0.7396 0.0
N161 N 0.33597 0.45547 0.7077 0.0
C162 C 0.19678 0.4801 0.70117 0.0
C163 C 0.0678 0.43621 0.80847 0.0
C164 C 0.12136 0.38535 0.87617 0.0
C165 C 0.26597 0.36279 0.87826 0.0
C166 C 0.37947 0.3882 0.81246 0.0
H167 H 0.29539 0.4746 0.68865 0.0
O168 O 0.3246 0.64286 0.66936 0.0
O169 O 0.44152 0.58268 0.73296 0.0
O170 O 0.50717 0.57989 0.55615 0.0
O171 O 0.59587 0.51155 0.63543 0.0
C172 C 0.29826 0.32456 0.94536 0.0
C173 C 0.41905 0.31887 0.97627 0.0
H174 H 0.63487 0.33257 0.06099 0.0
H175 H 0.7824 0.40809 0.03553 0.0
H176 H 0.96781 0.44055 0.81274 0.0
H177 H 0.05617 0.36589 0.92156 0.0
H178 H 0.22674 0.30207 0.98084 0.0
H179 H 0.43414 0.29091 0.03277 0.0
Mn180 Mn 0.57775 0.89114 0.6583 0.0
Mn181 Mn 0.57466 0.01487 0.76428 0.0
C182 C 0.75521 0.92508 0.72916 0.0
C183 C 0.54842 0.79474 0.66686 0.0
C184 C 0.53304 0.99651 0.56055 0.0
O185 O 0.39679 0.90996 0.68748 0.0
O186 O 0.42966 0.97015 0.80383 0.0
C187 C 0.41023 0.08165 0.92899 0.0
N188 N 0.50988 0.08587 0.87466 0.0
C189 C 0.57613 0.17274 0.95072 0.0
C190 C 0.47018 0.16748 1.00483 0.0
C191 C 0.38706 0.1234 0.99253 0.0
C192 C 0.5915 0.13578 0.87816 0.0
H193 H 0.34962 0.04603 0.92358 0.0
C194 C 0.36032 0.93698 0.75799 0.0
O195 O 0.53805 0.82182 0.59138 0.0
O196 O 0.56925 0.82377 0.7396 0.0
N197 N 0.75354 0.07283 0.7077 0.0
C198 C 0.89272 0.04819 0.70117 0.0
C199 C 1.0217 0.09208 0.80847 0.0
C200 C 0.96815 0.14294 0.87617 0.0
C201 C 0.82354 0.1655 0.87826 0.0
C202 C 0.71004 0.1401 0.81246 0.0
H203 H 0.79412 0.0537 0.68865 0.0
O204 O 0.76491 0.88543 0.66936 0.0
O205 O 0.64799 0.94561 0.73296 0.0
O206 O 0.58234 0.94841 0.55615 0.0
O207 O 0.49364 0.01674 0.63543 0.0
C208 C 0.79125 0.20373 0.94536 0.0
C209 C 0.67046 0.20942 0.97627 0.0
H210 H 0.45463 0.19572 0.06099 0.0
H211 H 0.30711 0.1202 0.03554 0.0
H212 H 0.12169 0.08774 0.81274 0.0
H213 H 0.03333 0.16241 0.92156 0.0
H214 H 0.86277 0.22622 0.98085 0.0
H215 H 0.65537 0.23738 0.03277 0.0
Mn216 Mn 0.51176 0.39114 0.38081 0.0
Mn217 Mn 0.51485 0.51487 0.27484 0.0
C218 C 0.3343 0.42508 0.30995 0.0
C219 C 0.5411 0.29474 0.37224 0.0
C220 C 0.55649 0.49651 0.47856 0.0
O221 O 0.69271 0.40996 0.35164 0.0
O222 O 0.65986 0.47015 0.23528 0.0
C223 C 0.67927 0.58165 0.11012 0.0
N224 N 0.57963 0.58587 0.16445 0.0
C225 C 0.51337 0.67274 0.08839 0.0
C226 C 0.61932 0.66748 0.03428 0.0
C227 C 0.70245 0.62341 0.04658 0.0
C228 C 0.498 0.63579 0.16095 0.0
H229 H 0.73989 0.54603 0.11553 0.0
C230 C 0.72919 0.43698 0.28113 0.0
O231 O 0.55146 0.32182 0.44772 0.0
O232 O 0.52026 0.32377 0.2995 0.0
N233 N 0.33596 0.57283 0.33141 0.0
C234 C 0.19678 0.54819 0.33794 0.0
C235 C 0.0678 0.59208 0.23065 0.0
C236 C 0.12135 0.64294 0.16294 0.0
C237 C 0.26596 0.6655 0.16085 0.0
C238 C 0.37946 0.6401 0.22666 0.0
H239 H 0.29539 0.5537 0.35046 0.0
O240 O 0.3246 0.38543 0.36975 0.0
O241 O 0.44152 0.44561 0.30614 0.0
O242 O 0.50716 0.4484 0.48295 0.0
O243 O 0.59586 0.51675 0.40369 0.0
C244 C 0.29825 0.70373 0.09375 0.0
C245 C 0.41904 0.70942 0.06284 0.0
H246 H 0.63487 0.69572 0.97812 0.0
H247 H 0.78239 0.62021 1.00358 0.0
H248 H 0.96781 0.58774 0.22637 0.0
H249 H 0.05617 0.6624 0.11755 0.0
H250 H 0.22673 0.72622 0.05826 0.0
H251 H 0.43413 0.73739 1.00634 0.0
Mn252 Mn 0.57775 0.13715 0.38081 0.0
Mn253 Mn 0.57466 1.01342 0.27484 0.0
C254 C 0.75521 0.10321 0.30994 0.0
C255 C 0.54842 0.23355 0.37224 0.0
C256 C 0.53302 0.03179 0.47856 0.0
O257 O 0.39679 0.11834 0.35163 0.0
O258 O 0.42965 0.05814 0.23528 0.0
C259 C 0.41024 0.94664 0.11012 0.0
N260 N 0.50988 0.94242 0.16445 0.0
C261 C 0.57614 0.85555 0.08838 0.0
C262 C 0.47018 0.86081 0.03428 0.0
C263 C 0.38706 0.90489 0.04658 0.0
C264 C 0.59151 0.89251 0.16095 0.0
H265 H 0.34962 0.98226 0.11553 0.0
C266 C 0.36032 0.09131 0.28113 0.0
O267 O 0.53805 0.20648 0.44772 0.0
O268 O 0.56925 0.20452 0.2995 0.0
N269 N 0.75354 0.95546 0.33141 0.0
C270 C 0.89272 0.9801 0.33794 0.0
C271 C 1.02171 0.93621 0.23065 0.0
C272 C 0.96815 0.88535 0.16294 0.0
C273 C 0.82354 0.86279 0.16085 0.0
C274 C 0.71004 0.8882 0.22665 0.0
H275 H 0.79412 0.97459 0.35046 0.0
O276 O 0.76491 0.14286 0.36974 0.0
O277 O 0.64799 0.08268 0.30614 0.0
O278 O 0.58235 0.07989 0.48295 0.0
O279 O 0.49364 1.01155 0.40369 0.0
C280 C 0.79126 0.82456 0.09375 0.0
C281 C 0.67046 0.81888 0.06284 0.0
H282 H 0.45464 0.83258 0.97812 0.0
H283 H 0.30711 0.90809 1.00357 0.0
H284 H 0.1217 0.94056 0.22637 0.0
H285 H 0.03334 0.86589 0.11755 0.0
H286 H 0.86277 0.80208 0.05826 0.0
H287 H 0.65537 0.79091 1.00634 0.0
loop_
_geom_bond_atom_site_label_1
_geom_bond_atom_site_label_2
_geom_bond_distance
_geom_bond_site_symmetry_2
_ccdc_geom_bond_type
Mn0 O5 2.095 . S
Mn0 O15 2.162 . S
Mn0 O16 2.297 . S
Mn0 O24 2.385 1_455 S
Mn0 O25 2.209 1_455 S
Mn0 O26 2.094 . S
Mn1 O6 2.121 1_665 S
Mn1 N8 2.257 . S
Mn1 N17 2.282 . S
Mn1 O25 2.215 1_565 S
Mn1 O27 2.117 . S
C2 O24 1.234 . S
C2 O25 1.283 . S
C3 O15 1.281 . S
C3 O16 1.236 . S
C4 O26 1.240 . S
C4 O27 1.264 1_445 S
O5 Mn0 2.095 . S
O5 C14 1.250 . S
O6 Mn1 2.121 1_445 S
O6 C14 1.258 . S
C7 N8 1.326 1_455 S
C7 C11 1.460 1_455 S
C7 H13 0.929 1_565 S
N8 Mn1 2.257 . S
N8 C7 1.326 1_655 S
N8 C12 1.362 . S
C9 C10 1.258 . S
C9 C12 1.431 . S
C9 C29 1.449 . S
C10 C9 1.258 . S
C10 C11 1.477 . S
C10 H30 0.931 . S
C11 C7 1.460 1_655 S
C11 C10 1.477 . S
C11 H31 0.930 1_655 S
C12 N8 1.362 . S
C12 C9 1.431 . S
C12 C22 1.476 . S
H13 C7 0.929 1_545 S
C14 O5 1.250 . S
C14 O6 1.258 . S
O15 Mn0 2.162 . S
O15 C3 1.281 . S
O16 Mn0 2.297 . S
O16 C3 1.236 . S
N17 Mn1 2.282 . S
N17 C18 1.328 . S
N17 C22 1.318 . S
C18 N17 1.328 . S
C18 C19 1.457 . S
C18 H23 0.929 . S
C19 C18 1.457 . S
C19 C20 1.291 . S
C19 H32 0.931 . S
C20 C19 1.291 . S
C20 C21 1.373 . S
C20 H33 0.929 . S
C21 C20 1.373 . S
C21 C22 1.396 . S
C21 C28 1.403 . S
C22 C12 1.476 . S
C22 N17 1.318 . S
C22 C21 1.396 . S
H23 C18 0.929 . S
O24 Mn0 2.385 1_655 S
O24 C2 1.234 . S
O25 Mn0 2.209 1_655 S
O25 Mn1 2.215 1_545 S
O25 C2 1.283 . S
O26 Mn0 2.094 . S
O26 C4 1.240 . S
O27 Mn1 2.117 . S
O27 C4 1.264 1_665 S
C28 C21 1.403 . S
C28 C29 1.399 . S
C28 H34 0.929 . S
C29 C9 1.449 . S
C29 C28 1.399 . S
C29 H35 0.930 . S
H30 C10 0.931 . S
H31 C11 0.930 1_455 S
H32 C19 0.931 . S
H33 C20 0.929 . S
H34 C28 0.929 . S
H35 C29 0.930 . S
Mn36 O41 2.095 1_455 S
Mn36 O51 2.162 . S
Mn36 O52 2.297 . S
Mn36 O60 2.385 . S
Mn36 O61 2.209 . S
Mn36 O62 2.094 . S
Mn37 O42 2.121 1_455 S
Mn37 N44 2.257 . S
Mn37 N53 2.282 . S
Mn37 O61 2.215 . S
Mn37 O63 2.117 . S
C38 O60 1.234 . S
C38 O61 1.283 . S
C39 O51 1.281 . S
C39 O52 1.236 . S
C40 O62 1.240 . S
C40 O63 1.264 . S
O41 Mn36 2.095 1_655 S
O41 C50 1.250 . S
O42 Mn37 2.121 1_655 S
O42 C50 1.258 . S
C43 N44 1.326 . S
C43 C47 1.460 . S
C43 H49 0.929 1_455 S
N44 Mn37 2.257 . S
N44 C43 1.326 . S
N44 C48 1.362 . S
C45 C46 1.258 . S
C45 C48 1.431 . S
C45 C65 1.449 . S
C46 C45 1.258 . S
C46 C47 1.477 . S
C46 H66 0.931 . S
C47 C43 1.460 . S
C47 C46 1.477 . S
C47 H67 0.930 1_455 S
C48 N44 1.362 . S
C48 C45 1.431 . S
C48 C58 1.476 . S
H49 C43 0.929 1_655 S
C50 O41 1.250 . S
C50 O42 1.258 . S
O51 Mn36 2.162 . S
O51 C39 1.281 . S
O52 Mn36 2.297 . S
O52 C39 1.236 . S
N53 Mn37 2.282 . S
N53 C54 1.328 . S
N53 C58 1.318 . S
C54 N53 1.328 . S
C54 C55 1.457 . S
C54 H59 0.929 . S
C55 C54 1.457 . S
C55 C56 1.291 . S
C55 H68 0.931 . S
C56 C55 1.291 . S
C56 C57 1.373 . S
C56 H69 0.929 . S
C57 C56 1.373 . S
C57 C58 1.396 . S
C57 C64 1.403 . S
C58 C48 1.476 . S
C58 N53 1.318 . S
C58 C57 1.396 . S
H59 C54 0.929 . S
O60 Mn36 2.385 . S
O60 C38 1.234 . S
O61 Mn36 2.209 . S
O61 Mn37 2.215 . S
O61 C38 1.283 . S
O62 Mn36 2.094 . S
O62 C40 1.240 . S
O63 Mn37 2.117 . S
O63 C40 1.264 . S
C64 C57 1.403 . S
C64 C65 1.399 . S
C64 H70 0.929 . S
C65 C45 1.449 . S
C65 C64 1.399 . S
C65 H71 0.930 . S
H66 C46 0.931 . S
H67 C47 0.930 1_655 S
H68 C55 0.931 . S
H69 C56 0.929 . S
H70 C64 0.929 . S
H71 C65 0.930 . S
Mn72 O77 2.095 . S
Mn72 O87 2.162 . S
Mn72 O88 2.297 . S
Mn72 O96 2.385 1_455 S
Mn72 O97 2.209 1_455 S
Mn72 O98 2.094 . S
Mn73 O78 2.121 1_645 S
Mn73 N80 2.257 . S
Mn73 N89 2.282 . S
Mn73 O97 2.215 1_545 S
Mn73 O99 2.117 . S
C74 O96 1.234 . S
C74 O97 1.283 . S
C75 O87 1.281 . S
C75 O88 1.236 . S
C76 O98 1.240 . S
C76 O99 1.264 1_465 S
O77 Mn72 2.095 . S
O77 C86 1.250 . S
O78 Mn73 2.121 1_465 S
O78 C86 1.258 . S
C79 N80 1.326 1_455 S
C79 C83 1.460 1_455 S
C79 H85 0.929 1_545 S
N80 Mn73 2.257 . S
N80 C79 1.326 1_655 S
N80 C84 1.362 . S
C81 C82 1.258 . S
C81 C84 1.431 . S
C81 C101 1.449 . S
C82 C81 1.258 . S
C82 C83 1.477 . S
C82 H102 0.931 . S
C83 C79 1.460 1_655 S
C83 C82 1.477 . S
C83 H103 0.930 1_655 S
C84 N80 1.362 . S
C84 C81 1.431 . S
C84 C94 1.476 . S
H85 C79 0.929 1_565 S
C86 O77 1.250 . S
C86 O78 1.258 . S
O87 Mn72 2.162 . S
O87 C75 1.281 . S
O88 Mn72 2.297 . S
O88 C75 1.236 . S
N89 Mn73 2.282 . S
N89 C90 1.328 . S
N89 C94 1.318 . S
C90 N89 1.328 . S
C90 C91 1.457 . S
C90 H95 0.929 . S
C91 C90 1.457 . S
C91 C92 1.291 . S
C91 H104 0.931 . S
C92 C91 1.291 . S
C92 C93 1.373 . S
C92 H105 0.929 . S
C93 C92 1.373 . S
C93 C94 1.396 . S
C93 C100 1.403 . S
C94 C84 1.476 . S
C94 N89 1.318 . S
C94 C93 1.396 . S
H95 C90 0.929 . S
O96 Mn72 2.385 1_655 S
O96 C74 1.234 . S
O97 Mn72 2.209 1_655 S
O97 Mn73 2.215 1_565 S
O97 C74 1.283 . S
O98 Mn72 2.094 . S
O98 C76 1.240 . S
O99 Mn73 2.117 . S
O99 C76 1.264 1_645 S
C100 C93 1.403 . S
C100 C101 1.399 . S
C100 H106 0.929 . S
C101 C81 1.449 . S
C101 C100 1.399 . S
C101 H107 0.930 . S
H102 C82 0.931 . S
H103 C83 0.930 1_455 S
H104 C91 0.931 . S
H105 C92 0.929 . S
H106 C100 0.929 . S
H107 C101 0.930 . S
Mn108 O113 2.095 1_455 S
Mn108 O123 2.162 . S
Mn108 O124 2.297 . S
Mn108 O132 2.385 . S
Mn108 O133 2.209 . S
Mn108 O134 2.094 . S
Mn109 O114 2.121 1_455 S
Mn109 N116 2.257 . S
Mn109 N125 2.282 . S
Mn109 O133 2.215 . S
Mn109 O135 2.117 . S
C110 O132 1.234 . S
C110 O133 1.283 . S
C111 O123 1.281 . S
C111 O124 1.236 . S
C112 O134 1.240 . S
C112 O135 1.264 . S
O113 Mn108 2.095 1_655 S
O113 C122 1.250 . S
O114 Mn109 2.121 1_655 S
O114 C122 1.258 . S
C115 N116 1.326 . S
C115 C119 1.460 . S
C115 H121 0.929 1_455 S
N116 Mn109 2.257 . S
N116 C115 1.326 . S
N116 C120 1.362 . S
C117 C118 1.258 . S
C117 C120 1.431 . S
C117 C137 1.449 . S
C118 C117 1.258 . S
C118 C119 1.477 . S
C118 H138 0.931 . S
C119 C115 1.460 . S
C119 C118 1.477 . S
C119 H139 0.930 1_455 S
C120 N116 1.362 . S
C120 C117 1.431 . S
C120 C130 1.476 . S
H121 C115 0.929 1_655 S
C122 O113 1.250 . S
C122 O114 1.258 . S
O123 Mn108 2.162 . S
O123 C111 1.281 . S
O124 Mn108 2.297 . S
O124 C111 1.236 . S
N125 Mn109 2.282 . S
N125 C126 1.328 . S
N125 C130 1.318 . S
C126 N125 1.328 . S
C126 C127 1.457 . S
C126 H131 0.929 . S
C127 C126 1.457 . S
C127 C128 1.291 . S
C127 H140 0.931 . S
C128 C127 1.291 . S
C128 C129 1.373 . S
C128 H141 0.929 . S
C129 C128 1.373 . S
C129 C130 1.396 . S
C129 C136 1.403 . S
C130 C120 1.476 . S
C130 N125 1.318 . S
C130 C129 1.396 . S
H131 C126 0.929 . S
O132 Mn108 2.385 . S
O132 C110 1.234 . S
O133 Mn108 2.209 . S
O133 Mn109 2.215 . S
O133 C110 1.283 . S
O134 Mn108 2.094 . S
O134 C112 1.240 . S
O135 Mn109 2.117 . S
O135 C112 1.264 . S
C136 C129 1.403 . S
C136 C137 1.399 . S
C136 H142 0.929 . S
C137 C117 1.449 . S
C137 C136 1.399 . S
C137 H143 0.930 . S
H138 C118 0.931 . S
H139 C119 0.930 1_655 S
H140 C127 0.931 . S
H141 C128 0.929 . S
H142 C136 0.929 . S
H143 C137 0.930 . S
Mn144 O149 2.095 . S
Mn144 O159 2.162 . S
Mn144 O160 2.297 . S
Mn144 O168 2.385 . S
Mn144 O169 2.209 . S
Mn144 O170 2.094 . S
Mn145 O150 2.121 . S
Mn145 N152 2.257 . S
Mn145 N161 2.282 . S
Mn145 O169 2.215 . S
Mn145 O171 2.117 . S
C146 O168 1.234 . S
C146 O169 1.283 . S
C147 O159 1.281 . S
C147 O160 1.236 . S
C148 O170 1.240 . S
C148 O171 1.264 . S
O149 Mn144 2.095 . S
O149 C158 1.250 . S
O150 Mn145 2.121 . S
O150 C158 1.258 . S
C151 N152 1.326 . S
C151 C155 1.460 1_556 S
C151 H157 0.929 . S
N152 Mn145 2.257 . S
N152 C151 1.326 . S
N152 C156 1.362 . S
C153 C154 1.258 1_556 S
C153 C156 1.431 . S
C153 C173 1.449 . S
C154 C153 1.258 1_554 S
C154 C155 1.477 . S
C154 H174 0.931 . S
C155 C151 1.460 1_554 S
C155 C154 1.477 . S
C155 H175 0.930 . S
C156 N152 1.362 . S
C156 C153 1.431 . S
C156 C166 1.476 . S
H157 C151 0.929 . S
C158 O149 1.250 . S
C158 O150 1.258 . S
O159 Mn144 2.162 . S
O159 C147 1.281 . S
O160 Mn144 2.297 . S
O160 C147 1.236 . S
N161 Mn145 2.282 . S
N161 C162 1.328 . S
N161 C166 1.318 . S
C162 N161 1.328 . S
C162 C163 1.457 . S
C162 H167 0.929 . S
C163 C162 1.457 . S
C163 C164 1.291 . S
C163 H176 0.931 . S
C164 C163 1.291 . S
C164 C165 1.373 . S
C164 H177 0.929 . S
C165 C164 1.373 . S
C165 C166 1.396 . S
C165 C172 1.403 . S
C166 C156 1.476 . S
C166 N161 1.318 . S
C166 C165 1.396 . S
H167 C162 0.929 . S
O168 Mn144 2.385 . S
O168 C146 1.234 . S
O169 Mn144 2.209 . S
O169 Mn145 2.215 . S
O169 C146 1.283 . S
O170 Mn144 2.094 . S
O170 C148 1.240 . S
O171 Mn145 2.117 . S
O171 C148 1.264 . S
C172 C165 1.403 . S
C172 C173 1.399 . S
C172 H178 0.929 . S
C173 C153 1.449 . S
C173 C172 1.399 . S
C173 H179 0.930 1_556 S
H174 C154 0.931 . S
H175 C155 0.930 . S
H176 C163 0.931 . S
H177 C164 0.929 . S
H178 C172 0.929 . S
H179 C173 0.930 1_554 S
Mn180 O185 2.095 . S
Mn180 O195 2.162 . S
Mn180 O196 2.297 . S
Mn180 O204 2.385 . S
Mn180 O205 2.209 . S
Mn180 O206 2.094 . S
Mn181 O186 2.121 1_545 S
Mn181 N188 2.257 . S
Mn181 N197 2.282 . S
Mn181 O205 2.215 1_545 S
Mn181 O207 2.117 . S
C182 O204 1.234 . S
C182 O205 1.283 . S
C183 O195 1.281 . S
C183 O196 1.236 . S
C184 O206 1.240 . S
C184 O207 1.264 1_565 S
O185 Mn180 2.095 . S
O185 C194 1.250 . S
O186 Mn181 2.121 1_565 S
O186 C194 1.258 . S
C187 N188 1.326 . S
C187 C191 1.460 1_556 S
C187 H193 0.929 1_545 S
N188 Mn181 2.257 . S
N188 C187 1.326 . S
N188 C192 1.362 . S
C189 C190 1.258 1_556 S
C189 C192 1.431 . S
C189 C209 1.449 . S
C190 C189 1.258 1_554 S
C190 C191 1.477 . S
C190 H210 0.931 . S
C191 C187 1.460 1_554 S
C191 C190 1.477 . S
C191 H211 0.930 . S
C192 N188 1.362 . S
C192 C189 1.431 . S
C192 C202 1.476 . S
H193 C187 0.929 1_565 S
C194 O185 1.250 . S
C194 O186 1.258 . S
O195 Mn180 2.162 . S
O195 C183 1.281 . S
O196 Mn180 2.297 . S
O196 C183 1.236 . S
N197 Mn181 2.282 . S
N197 C198 1.328 . S
N197 C202 1.318 . S
C198 N197 1.328 . S
C198 C199 1.457 . S
C198 H203 0.929 . S
C199 C198 1.457 . S
C199 C200 1.291 . S
C199 H212 0.931 . S
C200 C199 1.291 . S
C200 C201 1.373 . S
C200 H213 0.929 . S
C201 C200 1.373 . S
C201 C202 1.396 . S
C201 C208 1.403 . S
C202 C192 1.476 . S
C202 N197 1.318 . S
C202 C201 1.396 . S
H203 C198 0.929 . S
O204 Mn180 2.385 . S
O204 C182 1.234 . S
O205 Mn180 2.209 . S
O205 Mn181 2.215 1_565 S
O205 C182 1.283 . S
O206 Mn180 2.094 . S
O206 C184 1.240 . S
O207 Mn181 2.117 . S
O207 C184 1.264 1_545 S
C208 C201 1.403 . S
C208 C209 1.399 . S
C208 H214 0.929 . S
C209 C189 1.449 . S
C209 C208 1.399 . S
C209 H215 0.930 1_556 S
H210 C190 0.931 . S
H211 C191 0.930 . S
H212 C199 0.931 . S
H213 C200 0.929 . S
H214 C208 0.929 . S
H215 C209 0.930 1_554 S
Mn216 O221 2.095 . S
Mn216 O231 2.162 . S
Mn216 O232 2.297 . S
Mn216 O240 2.385 . S
Mn216 O241 2.209 . S
Mn216 O242 2.094 . S
Mn217 O222 2.121 . S
Mn217 N224 2.257 . S
Mn217 N233 2.282 . S
Mn217 O241 2.215 . S
Mn217 O243 2.117 . S
C218 O240 1.234 . S
C218 O241 1.283 . S
C219 O231 1.281 . S
C219 O232 1.236 . S
C220 O242 1.240 . S
C220 O243 1.264 . S
O221 Mn216 2.095 . S
O221 C230 1.250 . S
O222 Mn217 2.121 . S
O222 C230 1.258 . S
C223 N224 1.326 . S
C223 C227 1.460 1_554 S
C223 H229 0.929 . S
N224 Mn217 2.257 . S
N224 C223 1.326 . S
N224 C228 1.362 . S
C225 C226 1.258 1_554 S
C225 C228 1.431 . S
C225 C245 1.449 . S
C226 C225 1.258 1_556 S
C226 C227 1.477 . S
C226 H246 0.931 . S
C227 C223 1.460 1_556 S
C227 C226 1.477 . S
C227 H247 0.930 . S
C228 N224 1.362 . S
C228 C225 1.431 . S
C228 C238 1.476 . S
H229 C223 0.929 . S
C230 O221 1.250 . S
C230 O222 1.258 . S
O231 Mn216 2.162 . S
O231 C219 1.281 . S
O232 Mn216 2.297 . S
O232 C219 1.236 . S
N233 Mn217 2.282 . S
N233 C234 1.328 . S
N233 C238 1.318 . S
C234 N233 1.328 . S
C234 C235 1.457 . S
C234 H239 0.929 . S
C235 C234 1.457 . S
C235 C236 1.291 . S
C235 H248 0.931 . S
C236 C235 1.291 . S
C236 C237 1.373 . S
C236 H249 0.929 . S
C237 C236 1.373 . S
C237 C238 1.396 . S
C237 C244 1.403 . S
C238 C228 1.476 . S
C238 N233 1.318 . S
C238 C237 1.396 . S
H239 C234 0.929 . S
O240 Mn216 2.385 . S
O240 C218 1.234 . S
O241 Mn216 2.209 . S
O241 Mn217 2.215 . S
O241 C218 1.283 . S
O242 Mn216 2.094 . S
O242 C220 1.240 . S
O243 Mn217 2.117 . S
O243 C220 1.264 . S
C244 C237 1.403 . S
C244 C245 1.399 . S
C244 H250 0.929 . S
C245 C225 1.449 . S
C245 C244 1.399 . S
C245 H251 0.930 1_554 S
H246 C226 0.931 . S
H247 C227 0.930 . S
H248 C235 0.931 . S
H249 C236 0.929 . S
H250 C244 0.929 . S
H251 C245 0.930 1_556 S
Mn252 O257 2.095 . S
Mn252 O267 2.162 . S
Mn252 O268 2.297 . S
Mn252 O276 2.385 . S
Mn252 O277 2.209 . S
Mn252 O278 2.094 . S
Mn253 O258 2.121 1_565 S
Mn253 N260 2.257 . S
Mn253 N269 2.282 . S
Mn253 O277 2.215 1_565 S
Mn253 O279 2.117 . S
C254 O276 1.234 . S
C254 O277 1.283 . S
C255 O267 1.281 . S
C255 O268 1.236 . S
C256 O278 1.240 . S
C256 O279 1.264 1_545 S
O257 Mn252 2.095 . S
O257 C266 1.250 . S
O258 Mn253 2.121 1_545 S
O258 C266 1.258 . S
C259 N260 1.326 . S
C259 C263 1.460 1_554 S
C259 H265 0.929 1_565 S
N260 Mn253 2.257 . S
N260 C259 1.326 . S
N260 C264 1.362 . S
C261 C262 1.258 1_554 S
C261 C264 1.431 . S
C261 C281 1.449 . S
C262 C261 1.258 1_556 S
C262 C263 1.477 . S
C262 H282 0.931 . S
C263 C259 1.460 1_556 S
C263 C262 1.477 . S
C263 H283 0.930 . S
C264 N260 1.362 . S
C264 C261 1.431 . S
C264 C274 1.476 . S
H265 C259 0.929 1_545 S
C266 O257 1.250 . S
C266 O258 1.258 . S
O267 Mn252 2.162 . S
O267 C255 1.281 . S
O268 Mn252 2.297 . S
O268 C255 1.236 . S
N269 Mn253 2.282 . S
N269 C270 1.328 . S
N269 C274 1.318 . S
C270 N269 1.328 . S
C270 C271 1.457 . S
C270 H275 0.929 . S
C271 C270 1.457 . S
C271 C272 1.291 . S
C271 H284 0.931 . S
C272 C271 1.291 . S
C272 C273 1.373 . S
C272 H285 0.929 . S
C273 C272 1.373 . S
C273 C274 1.396 . S
C273 C280 1.403 . S
C274 C264 1.476 . S
C274 N269 1.318 . S
C274 C273 1.396 . S
H275 C270 0.929 . S
O276 Mn252 2.385 . S
O276 C254 1.234 . S
O277 Mn252 2.209 . S
O277 Mn253 2.215 1_545 S
O277 C254 1.283 . S
O278 Mn252 2.094 . S
O278 C256 1.240 . S
O279 Mn253 2.117 . S
O279 C256 1.264 1_565 S
C280 C273 1.403 . S
C280 C281 1.399 . S
C280 H286 0.929 . S
C281 C261 1.449 . S
C281 C280 1.399 . S
C281 H287 0.930 1_554 S
H282 C262 0.931 . S
H283 C263 0.930 . S
H284 C271 0.931 . S
H285 C272 0.929 . S
H286 C280 0.929 . S
H287 C281 0.930 1_556 S
C39 C3 1.472 . S
C75 C111 1.472 . S
C147 C183 1.472 . S
C219 C255 1.472 . S
C266 C14 1.346 . S
C230 C50 1.346 . S
C86 C194 1.346 . S
C158 C122 1.346 . S
C182 C74 1.453 . S
C146 C110 1.453 . S
C254 C2 1.453 . S
C38 C218 1.453 . S
C4 C76 1.375 1_544 S
C112 C40 1.375 1_556 S
C220 C148 1.375 . S
C184 C256 1.375 1_565 S
