# Generated by pormake.
# Topology yfa, (5)-cn, num edge types: 1
# Building blocks:
#     Node 0, Type 0, BuildingBlock: BEQFEK_clean_sbu_0, # of connection points: 5
#     Node 1, Type 0, BuildingBlock: BEQFEK_clean_sbu_0, # of connection points: 5
#     Node 2, Type 0, BuildingBlock: BEQFEK_clean_sbu_0, # of connection points: 5
#     Node 3, Type 0, BuildingBlock: BEQFEK_clean_sbu_0, # of connection points: 5
#     Node 4, Type 0, BuildingBlock: BEQFEK_clean_sbu_0, # of connection points: 5
#     Node 5, Type 0, BuildingBlock: BEQFEK_clean_sbu_0, # of connection points: 5
#     Node 6, Type 0, BuildingBlock: BEQFEK_clean_sbu_0, # of connection points: 5
#     Node 7, Type 0, BuildingBlock: BEQFEK_clean_sbu_0, # of connection points: 5
#     Node 8, Type 0, BuildingBlock: BEQFEK_clean_sbu_0, # of connection points: 5
#     Node 9, Type 0, BuildingBlock: BEQFEK_clean_sbu_0, # of connection points: 5
#     Node 10, Type 0, BuildingBlock: BEQFEK_clean_sbu_0, # of connection points: 5
#     Node 11, Type 0, BuildingBlock: BEQFEK_clean_sbu_0, # of connection points: 5
#     Node 12, Type 0, BuildingBlock: BEQFEK_clean_sbu_0, # of connection points: 5
#     Node 13, Type 0, BuildingBlock: BEQFEK_clean_sbu_0, # of connection points: 5
#     Node 14, Type 0, BuildingBlock: BEQFEK_clean_sbu_0, # of connection points: 5
#     Node 15, Type 0, BuildingBlock: BEQFEK_clean_sbu_0, # of connection points: 5
#     Edge 16, Type (0, 0), BuildingBlock: OJICUG_clean_linker_0, # of connection points: 2
#     Edge 17, Type (0, 0), BuildingBlock: OJICUG_clean_linker_0, # of connection points: 2
#     Edge 18, Type (0, 0), BuildingBlock: OJICUG_clean_linker_0, # of connection points: 2
#     Edge 19, Type (0, 0), BuildingBlock: OJICUG_clean_linker_0, # of connection points: 2
#     Edge 20, Type (0, 0), BuildingBlock: OJICUG_clean_linker_0, # of connection points: 2
#     Edge 21, Type (0, 0), BuildingBlock: OJICUG_clean_linker_0, # of connection points: 2
#     Edge 22, Type (0, 0), BuildingBlock: OJICUG_clean_linker_0, # of connection points: 2
#     Edge 23, Type (0, 0), BuildingBlock: OJICUG_clean_linker_0, # of connection points: 2
#     Edge 24, Type (0, 0), BuildingBlock: OJICUG_clean_linker_0, # of connection points: 2
#     Edge 25, Type (0, 0), BuildingBlock: OJICUG_clean_linker_0, # of connection points: 2
#     Edge 26, Type (0, 0), BuildingBlock: OJICUG_clean_linker_0, # of connection points: 2
#     Edge 27, Type (0, 0), BuildingBlock: OJICUG_clean_linker_0, # of connection points: 2
#     Edge 28, Type (0, 0), BuildingBlock: OJICUG_clean_linker_0, # of connection points: 2
#     Edge 29, Type (0, 0), BuildingBlock: OJICUG_clean_linker_0, # of connection points: 2
#     Edge 30, Type (0, 0), BuildingBlock: OJICUG_clean_linker_0, # of connection points: 2
#     Edge 31, Type (0, 0), BuildingBlock: OJICUG_clean_linker_0, # of connection points: 2
#     Edge 32, Type (0, 0), BuildingBlock: OJICUG_clean_linker_0, # of connection points: 2
#     Edge 33, Type (0, 0), BuildingBlock: OJICUG_clean_linker_0, # of connection points: 2
#     Edge 34, Type (0, 0), BuildingBlock: OJICUG_clean_linker_0, # of connection points: 2
#     Edge 35, Type (0, 0), BuildingBlock: OJICUG_clean_linker_0, # of connection points: 2
#     Edge 36, Type (0, 0), BuildingBlock: OJICUG_clean_linker_0, # of connection points: 2
#     Edge 37, Type (0, 0), BuildingBlock: OJICUG_clean_linker_0, # of connection points: 2
#     Edge 38, Type (0, 0), BuildingBlock: OJICUG_clean_linker_0, # of connection points: 2
#     Edge 39, Type (0, 0), BuildingBlock: OJICUG_clean_linker_0, # of connection points: 2
#     Edge 40, Type (0, 0), BuildingBlock: OJICUG_clean_linker_0, # of connection points: 2
#     Edge 41, Type (0, 0), BuildingBlock: OJICUG_clean_linker_0, # of connection points: 2
#     Edge 42, Type (0, 0), BuildingBlock: OJICUG_clean_linker_0, # of connection points: 2
#     Edge 43, Type (0, 0), BuildingBlock: OJICUG_clean_linker_0, # of connection points: 2
#     Edge 44, Type (0, 0), BuildingBlock: OJICUG_clean_linker_0, # of connection points: 2
#     Edge 45, Type (0, 0), BuildingBlock: OJICUG_clean_linker_0, # of connection points: 2
#     Edge 46, Type (0, 0), BuildingBlock: OJICUG_clean_linker_0, # of connection points: 2
#     Edge 47, Type (0, 0), BuildingBlock: OJICUG_clean_linker_0, # of connection points: 2
#     Edge 48, Type (0, 0), BuildingBlock: OJICUG_clean_linker_0, # of connection points: 2
#     Edge 49, Type (0, 0), BuildingBlock: OJICUG_clean_linker_0, # of connection points: 2
#     Edge 50, Type (0, 0), BuildingBlock: OJICUG_clean_linker_0, # of connection points: 2
#     Edge 51, Type (0, 0), BuildingBlock: OJICUG_clean_linker_0, # of connection points: 2
#     Edge 52, Type (0, 0), BuildingBlock: OJICUG_clean_linker_0, # of connection points: 2
#     Edge 53, Type (0, 0), BuildingBlock: OJICUG_clean_linker_0, # of connection points: 2
#     Edge 54, Type (0, 0), BuildingBlock: OJICUG_clean_linker_0, # of connection points: 2
#     Edge 55, Type (0, 0), BuildingBlock: OJICUG_clean_linker_0, # of connection points: 2
# Relax obj value: 0.824
# Max RMSD: 0.295
# Mean RMSD: 0.295
data_MOF--net-yfa--node1-BEQFEK_clean_sbu_0--edge1-OJICUG_clean_linker_0
_symmetry_space_group_name_H-M    P1
_symmetry_Int_Tables_number       1
_symmetry_cell_setting            triclinic
loop_
_symmetry_equiv_pos_as_xyz
'x, y, z'
_cell_length_a     36.614439
_cell_length_b     36.587335
_cell_length_c     23.274003
_cell_angle_alpha  89.958723
_cell_angle_beta   89.918777
_cell_angle_gamma 89.989007
loop_
_atom_site_label
_atom_site_type_symbol
_atom_site_fract_x
_atom_site_fract_y
_atom_site_fract_z
_atom_type_partial_charge
Co0 Co 0.65038 0.01619 0.16219 0.0
Co1 Co 0.65446 0.08639 0.08831 0.0
C2 C 0.71591 0.04126 0.1316 0.0
O3 O 0.69628 0.01372 0.12188 0.0
O4 O 0.70516 0.07177 0.11191 0.0
C5 C 0.65311 0.94009 0.18829 0.0
O6 O 0.6675 0.93748 0.13672 0.0
C7 C 0.66158 0.10688 0.96996 0.0
C8 C 0.64702 0.16538 0.96905 0.0
C9 C 0.65433 0.13589 0.9333 0.0
N10 N 0.65763 0.11838 0.02431 0.0
N11 N 0.64979 0.15361 0.02376 0.0
C12 C 0.67141 0.06841 0.95441 0.0
H13 H 0.6465 0.0512 0.95409 0.0
H14 H 0.6844 0.06729 0.91132 0.0
H15 H 0.69017 0.05688 0.9872 0.0
C16 C 0.58539 0.00103 0.09203 0.0
N17 N 0.61534 0.02046 0.10554 0.0
N18 N 0.61705 0.05007 0.07357 0.0
C19 C 0.58702 0.05102 0.03991 0.0
C20 C 0.56648 0.01972 0.04977 0.0
C21 C 0.57575 0.96505 0.11857 0.0
H22 H 0.57594 0.96747 0.16607 0.0
H23 H 0.59672 0.94483 0.10584 0.0
H24 H 0.5489 0.95465 0.10413 0.0
O25 O 0.64605 0.06066 0.21282 0.0
O26 O 0.64001 0.11122 0.15902 0.0
H27 H 0.58579 0.10912 0.02546 0.0
H28 H 0.54461 0.08529 0.00478 0.0
C29 C 0.57487 0.08369 0.00623 0.0
H30 H 0.58488 0.08127 0.96154 0.0
H31 H 0.64412 0.16901 0.06042 0.0
O32 O 0.64407 0.97129 0.20762 0.0
C33 C 0.64086 0.09514 0.20769 0.0
Co34 Co 0.4798 0.64546 0.16491 0.0
Co35 Co 0.41038 0.64958 0.09073 0.0
C36 C 0.45511 0.71145 0.13564 0.0
O37 O 0.48293 0.69208 0.12662 0.0
O38 O 0.42457 0.6996 0.11798 0.0
C39 C 0.55532 0.64934 0.1919 0.0
O40 O 0.55756 0.66459 0.14091 0.0
C41 C 0.39267 0.6587 0.97187 0.0
C42 C 0.33416 0.64479 0.96711 0.0
C43 C 0.36457 0.65224 0.93333 0.0
N44 N 0.37981 0.6542 0.02538 0.0
N45 N 0.34458 0.64675 0.02255 0.0
C46 C 0.43158 0.66824 0.9588 0.0
H47 H 0.44843 0.64308 0.95818 0.0
H48 H 0.43383 0.68197 0.91638 0.0
H49 H 0.4426 0.68626 0.993 0.0
C50 C 0.49635 0.58151 0.09292 0.0
N51 N 0.47646 0.61102 0.10726 0.0
N52 N 0.44694 0.61264 0.07531 0.0
C53 C 0.44646 0.58299 0.04079 0.0
C54 C 0.47803 0.56278 0.05009 0.0
C55 C 0.53239 0.5721 0.11929 0.0
H56 H 0.52973 0.5713 0.16676 0.0
H57 H 0.55219 0.59375 0.10786 0.0
H58 H 0.54341 0.54575 0.10359 0.0
O59 O 0.43472 0.64052 0.21453 0.0
O60 O 0.38466 0.63386 0.15994 0.0
H61 H 0.41247 0.5406 0.00512 0.0
H62 H 0.41689 0.58085 0.96191 0.0
C63 C 0.41408 0.57089 0.00657 0.0
H64 H 0.38852 0.5819 0.02533 0.0
H65 H 0.32825 0.64073 0.05811 0.0
O66 O 0.5244 0.63905 0.21084 0.0
C67 C 0.40036 0.63484 0.20888 0.0
Co68 Co 0.84263 0.48018 0.1626 0.0
Co69 Co 0.84522 0.40585 0.09961 0.0
C70 C 0.78007 0.45128 0.12966 0.0
O71 O 0.79852 0.4794 0.11789 0.0
O72 O 0.79292 0.42057 0.11411 0.0
C73 C 0.83614 0.55699 0.18764 0.0
O74 O 0.82145 0.55977 0.13637 0.0
C75 C 0.84225 0.38275 0.98239 0.0
C76 C 0.85926 0.32496 0.98393 0.0
C77 C 0.85133 0.35369 0.94697 0.0
N78 N 0.84556 0.3721 0.03732 0.0
N79 N 0.85498 0.33725 0.0382 0.0
C80 C 0.8315 0.42065 0.96488 0.0
H81 H 0.85601 0.43839 0.96339 0.0
H82 H 0.81859 0.42053 0.92175 0.0
H83 H 0.81242 0.43243 -0.00299 0.0
C84 C 0.90875 0.49532 0.09386 0.0
N85 N 0.88039 0.47444 0.11048 0.0
N86 N 0.88168 0.44275 0.08403 0.0
C87 C 0.91223 0.44182 0.05157 0.0
C88 C 0.92986 0.47531 0.05565 0.0
C89 C 0.91417 0.53409 0.11244 0.0
H90 H 0.91624 0.53525 0.15996 0.0
H91 H 0.89004 0.55032 0.09936 0.0
H92 H 0.93873 0.54667 0.09288 0.0
O93 O 0.8441 0.43822 0.218 0.0
O94 O 0.85655 0.38483 0.17565 0.0
H95 H 0.91746 0.38333 0.04644 0.0
H96 H 0.9575 0.40854 0.02384 0.0
C97 C 0.92718 0.40813 0.02372 0.0
H98 H 0.91811 0.40705 0.97848 0.0
H99 H 0.86054 0.3225 0.07559 0.0
O100 O 0.84664 0.52602 0.20587 0.0
C101 C 0.85055 0.40387 0.22081 0.0
Co102 Co 0.01149 0.84673 0.16339 0.0
Co103 Co 0.08134 0.84158 0.09015 0.0
C104 C 0.03578 0.77965 0.13563 0.0
O105 O 0.00781 0.7991 0.12804 0.0
O106 O 0.06634 0.79193 0.11841 0.0
C107 C 0.93581 0.84459 0.19171 0.0
O108 O 0.93279 0.82855 0.14148 0.0
C109 C 0.10065 0.83221 0.97172 0.0
C110 C 0.15926 0.84599 0.96897 0.0
C111 C 0.12935 0.83879 0.93412 0.0
N112 N 0.11272 0.83646 0.02567 0.0
N113 N 0.14802 0.84381 0.02403 0.0
C114 C 0.06192 0.82281 0.9574 0.0
H115 H 0.0504 0.80465 0.9911 0.0
H116 H 0.04512 0.848 0.95657 0.0
H117 H 0.06023 0.80929 0.9148 0.0
C118 C 0.9959 0.91018 0.0897 0.0
N119 N 0.01532 0.88042 0.10444 0.0
N120 N 0.0452 0.87861 0.07324 0.0
C121 C 0.04637 0.90834 0.03881 0.0
C122 C 0.01492 0.92889 0.04746 0.0
C123 C 0.95985 0.92014 0.11565 0.0
H124 H 0.96254 0.9221 0.16302 0.0
H125 H 0.94009 0.8982 0.10566 0.0
H126 H 0.94879 0.94607 0.09837 0.0
O127 O 0.05628 0.85192 0.21331 0.0
O128 O 0.10673 0.85765 0.15922 0.0
H129 H 0.10452 0.90892 0.0251 0.0
H130 H 0.08125 0.95049 0.00431 0.0
C131 C 0.07933 0.92022 0.00561 0.0
H132 H 0.07706 0.91035 0.96085 0.0
H133 H 0.16381 0.84971 0.06013 0.0
O134 O 0.96707 0.85463 0.20938 0.0
C135 C 0.09071 0.8573 0.20797 0.0
Co136 Co 0.65016 0.47926 0.3284 0.0
Co137 Co 0.65479 0.40923 0.40251 0.0
C138 C 0.71618 0.45415 0.3572 0.0
O139 O 0.69679 0.48195 0.36645 0.0
O140 O 0.70521 0.42382 0.37731 0.0
C141 C 0.65277 0.55523 0.30209 0.0
O142 O 0.66769 0.55777 0.35323 0.0
C143 C 0.66238 0.38905 0.52093 0.0
C144 C 0.64845 0.3304 0.52221 0.0
C145 C 0.65547 0.36003 0.55777 0.0
N146 N 0.65851 0.37741 0.46666 0.0
N147 N 0.65105 0.34211 0.46743 0.0
C148 C 0.67182 0.42765 0.53627 0.0
H149 H 0.64672 0.44456 0.53697 0.0
H150 H 0.68498 0.42893 0.57917 0.0
H151 H 0.6903 0.43936 0.50318 0.0
C152 C 0.58565 0.49446 0.39999 0.0
N153 N 0.61568 0.47518 0.38619 0.0
N154 N 0.61748 0.4455 0.41795 0.0
C155 C 0.58745 0.44433 0.45172 0.0
C156 C 0.56677 0.47558 0.44217 0.0
C157 C 0.57576 0.53038 0.3735 0.0
H158 H 0.59697 0.55055 0.38524 0.0
H159 H 0.54916 0.54093 0.38889 0.0
H160 H 0.5753 0.52778 0.32602 0.0
O161 O 0.64537 0.43466 0.27815 0.0
O162 O 0.63985 0.38419 0.33233 0.0
H163 H 0.58657 0.38616 0.46556 0.0
H164 H 0.54514 0.40963 0.48625 0.0
C165 C 0.57539 0.41144 0.485 0.0
H166 H 0.58521 0.41373 0.52977 0.0
H167 H 0.6455 0.32658 0.43087 0.0
O168 O 0.64338 0.52408 0.28302 0.0
C169 C 0.64028 0.40018 0.28357 0.0
Co170 Co 0.00651 0.64911 0.32753 0.0
Co171 Co 0.07925 0.65473 0.39668 0.0
C172 C 0.03145 0.71449 0.36124 0.0
O173 O 0.00475 0.69374 0.37118 0.0
O174 O 0.06165 0.7062 0.38452 0.0
C175 C 0.9294 0.65126 0.30518 0.0
O176 O 0.92671 0.66522 0.35699 0.0
C177 C 0.10935 0.65934 0.51123 0.0
C178 C 0.16672 0.64289 0.49808 0.0
C179 C 0.14115 0.65056 0.54057 0.0
N180 N 0.11569 0.65609 0.45462 0.0
N181 N 0.15033 0.64737 0.44684 0.0
C182 C 0.07221 0.66609 0.53613 0.0
H183 H 0.05105 0.66575 0.50206 0.0
H184 H 0.0657 0.64535 0.56941 0.0
H185 H 0.07192 0.69332 0.55706 0.0
C186 C 0.99551 0.583 0.39738 0.0
N187 N 0.01429 0.61311 0.38232 0.0
N188 N 0.04442 0.61555 0.41296 0.0
C189 C 0.04621 0.58582 0.44749 0.0
C190 C 0.01509 0.56465 0.43934 0.0
C191 C 0.95891 0.57317 0.37334 0.0
H192 H 0.96031 0.57275 0.32573 0.0
H193 H 0.93896 0.5944 0.38622 0.0
H194 H 0.94882 0.54651 0.38933 0.0
O195 O 0.04823 0.64735 0.2719 0.0
O196 O 0.10081 0.64463 0.32064 0.0
H197 H 0.08075 0.54465 0.48565 0.0
H198 H 0.07699 0.58634 0.52553 0.0
C199 C 0.07907 0.57484 0.48163 0.0
H200 H 0.10433 0.58502 0.46089 0.0
H201 H 0.16206 0.64196 0.40685 0.0
O202 O 0.96054 0.64249 0.28548 0.0
C203 C 0.08302 0.64466 0.27354 0.0
Co204 Co 0.84442 0.01702 0.32917 0.0
Co205 Co 0.84075 0.08706 0.40287 0.0
C206 C 0.77894 0.04234 0.35918 0.0
O207 O 0.79834 0.01467 0.36909 0.0
O208 O 0.7902 0.07291 0.37781 0.0
C209 C 0.84087 0.94109 0.3031 0.0
O210 O 0.82625 0.93876 0.35454 0.0
C211 C 0.83338 0.10649 0.52156 0.0
C212 C 0.84804 0.16494 0.5238 0.0
C213 C 0.84068 0.13511 0.55889 0.0
N214 N 0.83733 0.11852 0.46747 0.0
N215 N 0.84524 0.15373 0.46882 0.0
C216 C 0.82351 0.06788 0.53628 0.0
H217 H 0.84843 0.05069 0.53665 0.0
H218 H 0.8103 0.06642 0.57919 0.0
H219 H 0.80493 0.05662 0.50306 0.0
C220 C 0.90895 0.00099 0.39994 0.0
N221 N 0.8793 0.02079 0.38603 0.0
N222 N 0.87782 0.05044 0.41784 0.0
C223 C 0.90772 0.05107 0.45177 0.0
C224 C 0.9279 0.01949 0.4423 0.0
C225 C 0.91823 0.96484 0.37372 0.0
H226 H 0.91826 0.96719 0.3262 0.0
H227 H 0.89695 0.94493 0.38637 0.0
H228 H 0.94489 0.95412 0.38848 0.0
O229 O 0.84932 0.06167 0.27876 0.0
O230 O 0.85584 0.1121 0.33263 0.0
H231 H 0.90928 0.10914 0.4663 0.0
H232 H 0.9504 0.08503 0.48662 0.0
C233 C 0.92013 0.08362 0.48541 0.0
H234 H 0.91027 0.08117 0.53018 0.0
H235 H 0.85098 0.16948 0.43252 0.0
O236 O 0.85044 0.97213 0.2837 0.0
C237 C 0.85491 0.09609 0.28393 0.0
Co238 Co 0.48093 0.84866 0.32847 0.0
Co239 Co 0.41134 0.84405 0.40289 0.0
C240 C 0.45618 0.78232 0.35721 0.0
O241 O 0.48411 0.80165 0.36555 0.0
O242 O 0.42576 0.79413 0.37564 0.0
C243 C 0.55656 0.84562 0.30066 0.0
O244 O 0.55924 0.83022 0.35148 0.0
C245 C 0.39237 0.83464 0.52137 0.0
C246 C 0.33398 0.8493 0.52486 0.0
C247 C 0.36391 0.84142 0.55931 0.0
N248 N 0.38015 0.83942 0.46761 0.0
N249 N 0.34498 0.84731 0.46967 0.0
C250 C 0.43101 0.82455 0.53517 0.0
H251 H 0.44204 0.80626 0.50129 0.0
H252 H 0.44823 0.84946 0.53582 0.0
H253 H 0.4327 0.81091 0.57771 0.0
C254 C 0.4971 0.9123 0.40121 0.0
N255 N 0.47738 0.88271 0.38679 0.0
N256 N 0.44786 0.88087 0.41885 0.0
C257 C 0.44724 0.91042 0.4536 0.0
C258 C 0.47868 0.93082 0.44423 0.0
C259 C 0.53294 0.92216 0.37442 0.0
H260 H 0.53007 0.9232 0.32701 0.0
H261 H 0.55299 0.90062 0.38528 0.0
H262 H 0.54378 0.94852 0.39032 0.0
O263 O 0.43601 0.85368 0.27894 0.0
O264 O 0.38588 0.8599 0.33365 0.0
H265 H 0.38926 0.91161 0.46881 0.0
H266 H 0.41326 0.95257 0.49027 0.0
C267 C 0.41478 0.9223 0.488 0.0
H268 H 0.41738 0.91181 0.53239 0.0
H269 H 0.32912 0.85362 0.43379 0.0
O270 O 0.52544 0.85565 0.28232 0.0
C271 C 0.40164 0.8592 0.2847 0.0
Co272 Co 0.34854 0.98043 0.82862 0.0
Co273 Co 0.3442 0.91074 0.90288 0.0
C274 C 0.28221 0.95503 0.85632 0.0
O275 O 0.30117 0.98324 0.86462 0.0
O276 O 0.29438 0.92473 0.87472 0.0
C277 C 0.34509 0.05606 0.80041 0.0
O278 O 0.32934 0.05877 0.85097 0.0
C279 C 0.33478 0.89157 0.02137 0.0
C280 C 0.34968 0.8332 0.02452 0.0
C281 C 0.34172 0.86307 0.05916 0.0
N282 N 0.33955 0.87945 0.96752 0.0
N283 N 0.34758 0.84428 0.96939 0.0
C284 C 0.32452 0.93017 0.0354 0.0
H285 H 0.34933 0.94751 0.03619 0.0
H286 H 0.31084 0.93172 0.07793 0.0
H287 H 0.30623 0.94121 0.00156 0.0
C288 C 0.4116 0.99717 0.90209 0.0
N289 N 0.38221 0.97723 0.88746 0.0
N290 N 0.38059 0.94759 0.9193 0.0
C291 C 0.41009 0.94712 0.95408 0.0
C292 C 0.43022 0.97878 0.94499 0.0
C293 C 0.42125 0.03313 0.87546 0.0
H294 H 0.42279 0.03021 0.82808 0.0
H295 H 0.39938 0.05294 0.88576 0.0
H296 H 0.44729 0.04433 0.89195 0.0
O297 O 0.35422 0.93549 0.7792 0.0
O298 O 0.36066 0.88537 0.8339 0.0
H299 H 0.41162 0.88906 0.96882 0.0
H300 H 0.4525 0.91323 0.99007 0.0
C301 C 0.42224 0.9146 0.9881 0.0
H302 H 0.41191 0.91703 0.03262 0.0
H303 H 0.35394 0.8285 0.93342 0.0
O304 O 0.3555 0.02496 0.78243 0.0
C305 C 0.36003 0.90114 0.78497 0.0
Co306 Co 0.51668 0.34373 0.82997 0.0
Co307 Co 0.58692 0.3397 0.90294 0.0
C308 C 0.54167 0.27812 0.86007 0.0
O309 O 0.51421 0.29777 0.87025 0.0
O310 O 0.57232 0.28908 0.87867 0.0
C311 C 0.44066 0.34072 0.80474 0.0
O312 O 0.43836 0.32627 0.85629 0.0
C313 C 0.60673 0.33221 0.02127 0.0
C314 C 0.66516 0.34676 0.02308 0.0
C315 C 0.63544 0.3394 0.05837 0.0
N316 N 0.6186 0.33622 0.96711 0.0
N317 N 0.6538 0.34406 0.96819 0.0
C318 C 0.56815 0.32245 0.03624 0.0
H319 H 0.55103 0.34743 0.03655 0.0
H320 H 0.56672 0.30935 0.07923 0.0
H321 H 0.5568 0.3038 0.00318 0.0
C322 C 0.50145 0.40864 0.90054 0.0
N323 N 0.52094 0.37878 0.88658 0.0
N324 N 0.55065 0.37712 0.91815 0.0
C325 C 0.55161 0.4071 0.95198 0.0
C326 C 0.5202 0.42753 0.9427 0.0
C327 C 0.46531 0.41815 0.87464 0.0
H328 H 0.46744 0.4179 0.8271 0.0
H329 H 0.44526 0.39712 0.88782 0.0
H330 H 0.45492 0.44501 0.8892 0.0
O331 O 0.56108 0.34824 0.779 0.0
O332 O 0.61174 0.35441 0.83232 0.0
H333 H 0.60969 0.40831 0.96597 0.0
H334 H 0.5859 0.44957 0.98674 0.0
C335 C 0.58431 0.41928 0.98538 0.0
H336 H 0.58197 0.40934 0.0301 0.0
H337 H 0.66944 0.34981 0.93177 0.0
O338 O 0.4717 0.34994 0.78499 0.0
C339 C 0.59554 0.35356 0.78379 0.0
Co340 Co 0.1471 0.51524 0.82842 0.0
Co341 Co 0.14479 0.58953 0.89116 0.0
C342 C 0.20976 0.54351 0.86163 0.0
O343 O 0.19108 0.51554 0.87335 0.0
O344 O 0.19683 0.57441 0.87599 0.0
C345 C 0.15358 0.43852 0.80397 0.0
O346 O 0.16818 0.43607 0.85534 0.0
C347 C 0.1482 0.61239 0.00839 0.0
C348 C 0.13164 0.67031 0.00722 0.0
C349 C 0.13939 0.64143 0.044 0.0
N350 N 0.1449 0.62318 0.95355 0.0
N351 N 0.13575 0.65811 0.95287 0.0
C352 C 0.15864 0.57435 0.02565 0.0
H353 H 0.13399 0.5568 0.02696 0.0
H354 H 0.17152 0.57424 0.0688 0.0
H355 H 0.17765 0.56251 0.99347 0.0
C356 C 0.08076 0.50049 0.89681 0.0
N357 N 0.10924 0.52123 0.88023 0.0
N358 N 0.10807 0.55293 0.90665 0.0
C359 C 0.07752 0.55402 0.93908 0.0
C360 C 0.05972 0.52062 0.93497 0.0
C361 C 0.07524 0.46171 0.87836 0.0
H362 H 0.07324 0.46049 0.83083 0.0
H363 H 0.09929 0.44541 0.89158 0.0
H364 H 0.05061 0.44924 0.89787 0.0
O365 O 0.14636 0.55729 0.77307 0.0
O366 O 0.13368 0.61069 0.81528 0.0
H367 H 0.07276 0.61254 0.94448 0.0
H368 H 0.0325 0.58759 0.96693 0.0
C369 C 0.06282 0.58778 0.96707 0.0
H370 H 0.0719 0.5887 0.01231 0.0
H371 H 0.13025 0.67297 0.91559 0.0
O372 O 0.14302 0.46936 0.78527 0.0
C373 C 0.14006 0.59168 0.77024 0.0
Co374 Co 0.98015 0.14959 0.8295 0.0
Co375 Co 0.91018 0.15441 0.90266 0.0
C376 C 0.95573 0.2163 0.85786 0.0
O377 O 0.98359 0.19681 0.86615 0.0
O378 O 0.92514 0.20432 0.8754 0.0
C379 C 0.05596 0.15177 0.80178 0.0
O380 O 0.05893 0.16738 0.85235 0.0
C381 C 0.89035 0.16298 0.02111 0.0
C382 C 0.83165 0.14951 0.02291 0.0
C383 C 0.8614 0.15639 0.05822 0.0
N384 N 0.87855 0.15905 0.96694 0.0
N385 N 0.84321 0.15186 0.96803 0.0
C386 C 0.92904 0.17215 0.03608 0.0
H387 H 0.94572 0.14688 0.03694 0.0
H388 H 0.93053 0.18551 0.07883 0.0
H389 H 0.94083 0.19039 0.00272 0.0
C390 C 0.99548 0.08556 0.90212 0.0
N391 N 0.97613 0.11545 0.88778 0.0
N392 N 0.94627 0.1172 0.91905 0.0
C393 C 0.94505 0.08729 0.9531 0.0
C394 C 0.97644 0.06671 0.94417 0.0
C395 C 0.03154 0.0757 0.87614 0.0
H396 H 0.029 0.07433 0.8287 0.0
H397 H 0.05139 0.09741 0.88695 0.0
H398 H 0.04242 0.04951 0.89272 0.0
O399 O 0.9355 0.14473 0.77924 0.0
O400 O 0.88498 0.13879 0.83312 0.0
H401 H 0.8869 0.08674 0.96689 0.0
H402 H 0.9101 0.04502 0.98706 0.0
C403 C 0.91208 0.0753 0.98618 0.0
H404 H 0.9144 0.08489 0.03108 0.0
H405 H 0.82757 0.14626 0.93163 0.0
O406 O 0.02469 0.14206 0.7837 0.0
C407 C 0.90106 0.13938 0.78443 0.0
Co408 Co 0.34908 0.51292 0.6651 0.0
Co409 Co 0.34395 0.58255 0.59091 0.0
C410 C 0.28191 0.53876 0.64069 0.0
O411 O 0.30041 0.51006 0.63368 0.0
O412 O 0.29467 0.5687 0.62168 0.0
C413 C 0.34589 0.43746 0.69419 0.0
O414 O 0.32901 0.43465 0.64463 0.0
C415 C 0.33359 0.60175 0.4725 0.0
C416 C 0.34815 0.6602 0.46934 0.0
C417 C 0.3403 0.63034 0.43469 0.0
N418 N 0.33843 0.61384 0.52635 0.0
N419 N 0.34624 0.64905 0.52446 0.0
C420 C 0.32348 0.56313 0.45846 0.0
H421 H 0.34838 0.54593 0.45701 0.0
H422 H 0.30953 0.56162 0.41621 0.0
H423 H 0.30548 0.55191 0.49262 0.0
C424 C 0.41069 0.49576 0.58856 0.0
N425 N 0.38144 0.5157 0.60409 0.0
N426 N 0.37979 0.54557 0.57283 0.0
C427 C 0.40912 0.5462 0.53755 0.0
C428 C 0.4292 0.51441 0.54572 0.0
C429 C 0.42064 0.45981 0.61486 0.0
H430 H 0.42354 0.46292 0.66204 0.0
H431 H 0.39828 0.44024 0.60638 0.0
H432 H 0.44608 0.44825 0.59658 0.0
O433 O 0.35606 0.55791 0.71397 0.0
O434 O 0.36162 0.60799 0.65898 0.0
H435 H 0.41057 0.60441 0.52408 0.0
H436 H 0.4516 0.5805 0.50259 0.0
C437 C 0.42133 0.57905 0.50432 0.0
H438 H 0.41121 0.57698 0.45969 0.0
H439 H 0.35267 0.66482 0.5604 0.0
O440 O 0.35701 0.46853 0.71116 0.0
C441 C 0.36187 0.59224 0.70793 0.0
Co442 Co 0.98443 0.34514 0.66395 0.0
Co443 Co 0.91187 0.33967 0.59452 0.0
C444 C 0.95949 0.27972 0.63071 0.0
O445 O 0.98622 0.30039 0.6206 0.0
O446 O 0.9292 0.28818 0.60783 0.0
C447 C 0.06147 0.34293 0.68697 0.0
O448 O 0.06435 0.3288 0.6353 0.0
C449 C 0.882 0.33524 0.47962 0.0
C450 C 0.82467 0.35182 0.49273 0.0
C451 C 0.85028 0.34427 0.45026 0.0
N452 N 0.87558 0.33826 0.53626 0.0
N453 N 0.84095 0.34704 0.54399 0.0
C454 C 0.91912 0.32851 0.45468 0.0
H455 H 0.94026 0.32854 0.4888 0.0
H456 H 0.92573 0.34942 0.42172 0.0
H457 H 0.91931 0.30143 0.43328 0.0
C458 C 0.99585 0.4111 0.59388 0.0
N459 N 0.97695 0.38105 0.60894 0.0
N460 N 0.94686 0.37869 0.5782 0.0
C461 C 0.9452 0.40841 0.54364 0.0
C462 C 0.97638 0.42948 0.55183 0.0
C463 C 0.03243 0.42085 0.61804 0.0
H464 H 0.03094 0.42138 0.66565 0.0
H465 H 0.05233 0.39953 0.60536 0.0
H466 H 0.04264 0.44745 0.60197 0.0
O467 O 0.94255 0.34714 0.71932 0.0
O468 O 0.8901 0.35021 0.67027 0.0
H469 H 0.91072 0.44977 0.50588 0.0
H470 H 0.91446 0.40827 0.46555 0.0
C471 C 0.91236 0.41956 0.50957 0.0
H472 H 0.88708 0.40932 0.53017 0.0
H473 H 0.82918 0.35235 0.58398 0.0
O474 O 0.03026 0.35177 0.70632 0.0
C475 C 0.90778 0.35009 0.71748 0.0
Co476 Co 0.14551 0.97836 0.66389 0.0
Co477 Co 0.1493 0.90856 0.59017 0.0
C478 C 0.21128 0.95318 0.63484 0.0
O479 O 0.19205 0.98105 0.62541 0.0
O480 O 0.19941 0.92259 0.61729 0.0
C481 C 0.14956 0.05406 0.6906 0.0
O482 O 0.16471 0.05629 0.63953 0.0
C483 C 0.15771 0.88972 0.47137 0.0
C484 C 0.1434 0.83121 0.46826 0.0
C485 C 0.1508 0.86123 0.43361 0.0
N486 N 0.15349 0.87742 0.52527 0.0
N487 N 0.14579 0.84218 0.5234 0.0
C488 C 0.16748 0.92844 0.45722 0.0
H489 H 0.14247 0.9455 0.45654 0.0
H490 H 0.18099 0.93014 0.41457 0.0
H491 H 0.18574 0.93967 0.4909 0.0
C492 C 0.08166 0.99494 0.59199 0.0
N493 N 0.11109 0.97496 0.60633 0.0
N494 N 0.11255 0.9453 0.57456 0.0
C495 C 0.08286 0.94485 0.54019 0.0
C496 C 0.06283 0.97656 0.54937 0.0
C497 C 0.07241 0.03111 0.61821 0.0
H498 H 0.0717 0.02858 0.66569 0.0
H499 H 0.09407 0.05084 0.60651 0.0
H500 H 0.04608 0.04216 0.60261 0.0
O501 O 0.14033 0.9335 0.71387 0.0
O502 O 0.13348 0.88325 0.65965 0.0
H503 H 0.08144 0.88682 0.5252 0.0
H504 H 0.04023 0.91091 0.5052 0.0
C505 C 0.0705 0.91238 0.50634 0.0
H506 H 0.0803 0.91499 0.46156 0.0
H507 H 0.1399 0.82624 0.55944 0.0
O508 O 0.13931 0.02313 0.7096 0.0
C509 C 0.13449 0.89913 0.70846 0.0
Co510 Co 0.51513 0.15101 0.66231 0.0
Co511 Co 0.58531 0.15555 0.58822 0.0
C512 C 0.5399 0.21666 0.63134 0.0
O513 O 0.51254 0.1968 0.62164 0.0
O514 O 0.57036 0.20636 0.61095 0.0
C515 C 0.439 0.15323 0.68808 0.0
O516 O 0.43639 0.16742 0.63639 0.0
C517 C 0.6059 0.16269 0.46999 0.0
C518 C 0.66429 0.14786 0.469 0.0
C519 C 0.63486 0.15534 0.43329 0.0
N520 N 0.61735 0.15864 0.52431 0.0
N521 N 0.65252 0.15064 0.52373 0.0
C522 C 0.56748 0.17268 0.45451 0.0
H523 H 0.55607 0.19155 0.48728 0.0
H524 H 0.55018 0.14782 0.45431 0.0
H525 H 0.5664 0.18563 0.4114 0.0
C526 C 0.50048 0.0858 0.59225 0.0
N527 N 0.5197 0.1159 0.60575 0.0
N528 N 0.54922 0.11784 0.57362 0.0
C529 C 0.55032 0.08783 0.53985 0.0
C530 C 0.5192 0.06706 0.54982 0.0
C531 C 0.46462 0.07589 0.61891 0.0
H532 H 0.467 0.0764 0.66641 0.0
H533 H 0.44418 0.09654 0.60585 0.0
H534 H 0.45456 0.04881 0.60485 0.0
O535 O 0.5595 0.14694 0.713 0.0
O536 O 0.61011 0.14149 0.65918 0.0
H537 H 0.60836 0.08672 0.52531 0.0
H538 H 0.58458 0.04566 0.50383 0.0
C539 C 0.58295 0.07594 0.50588 0.0
H540 H 0.58053 0.08629 0.4614 0.0
H541 H 0.66787 0.14487 0.56037 0.0
O542 O 0.47021 0.14454 0.70762 0.0
C543 C 0.594 0.14209 0.70786 0.0
C544 C 0.61618 0.88345 0.18436 0.0
C545 C 0.63762 0.90778 0.21646 0.0
H546 H 0.57231 0.84466 0.18679 0.0
C547 C 0.6376 0.90542 0.27659 0.0
H548 H 0.61588 0.88471 0.13787 0.0
C549 C 0.614 0.88124 0.30442 0.0
C550 C 0.58905 0.86055 0.27233 0.0
H551 H 0.65403 0.92397 0.30202 0.0
H552 H 0.61279 0.88152 0.35091 0.0
C553 C 0.59133 0.86056 0.2122 0.0
C554 C 0.61581 0.61182 0.30699 0.0
C555 C 0.63717 0.58762 0.27441 0.0
H556 H 0.5717 0.65035 0.30549 0.0
C557 C 0.63689 0.59013 0.2143 0.0
H558 H 0.61576 0.61047 0.35348 0.0
C559 C 0.61306 0.61427 0.187 0.0
C560 C 0.5881 0.63471 0.21961 0.0
H561 H 0.65328 0.5717 0.18851 0.0
H562 H 0.61164 0.61409 0.14052 0.0
C563 C 0.59069 0.63463 0.27969 0.0
C564 C 0.84962 0.59061 0.27747 0.0
C565 C 0.85013 0.5894 0.21722 0.0
H566 H 0.87383 0.61313 0.35326 0.0
C567 C 0.87133 0.61469 0.18655 0.0
H568 H 0.83352 0.57112 0.30178 0.0
C569 C 0.89527 0.63774 0.21585 0.0
C570 C 0.89716 0.63658 0.27603 0.0
H571 H 0.87233 0.61397 0.14003 0.0
H572 H 0.91415 0.65449 0.19145 0.0
C573 C 0.8726 0.61461 0.30681 0.0
C574 C 0.90133 0.86044 0.27998 0.0
C575 C 0.90358 0.86017 0.21986 0.0
H576 H 0.87722 0.88527 0.35405 0.0
C577 C 0.879 0.88122 0.18755 0.0
H578 H 0.92007 0.84429 0.30555 0.0
C579 C 0.85587 0.90594 0.21512 0.0
C580 C 0.8559 0.90849 0.27523 0.0
H581 H 0.8802 0.88129 0.14105 0.0
H582 H 0.83976 0.9247 0.18951 0.0
C583 C 0.8769 0.88387 0.30758 0.0
C584 C 0.38033 0.11377 0.80415 0.0
C585 C 0.35988 0.08862 0.77205 0.0
H586 H 0.42273 0.15414 0.80178 0.0
C587 C 0.35996 0.09082 0.71192 0.0
H588 H 0.38054 0.11261 0.85064 0.0
C589 C 0.38268 0.11583 0.68409 0.0
C590 C 0.40679 0.13751 0.7162 0.0
H591 H 0.34425 0.07165 0.68651 0.0
H592 H 0.384 0.11549 0.63761 0.0
C593 C 0.40435 0.13754 0.77633 0.0
C594 C 0.38121 0.37984 0.68972 0.0
C595 C 0.36083 0.4049 0.7222 0.0
H596 H 0.42382 0.33966 0.69133 0.0
C597 C 0.36117 0.40265 0.78232 0.0
H598 H 0.38116 0.38102 0.64323 0.0
C599 C 0.3841 0.37768 0.80972 0.0
C600 C 0.40818 0.35617 0.77718 0.0
H601 H 0.34551 0.42176 0.808 0.0
H602 H 0.38561 0.37797 0.85619 0.0
C603 C 0.40547 0.35616 0.71709 0.0
C604 C 0.09525 0.35711 0.77636 0.0
C605 C 0.09356 0.3579 0.71615 0.0
H606 H 0.11766 0.38154 0.85203 0.0
C607 C 0.11805 0.37991 0.68528 0.0
H608 H 0.07641 0.34034 0.80082 0.0
C609 C 0.14067 0.40431 0.71447 0.0
C610 C 0.13991 0.40587 0.77469 0.0
H611 H 0.11699 0.38109 0.6388 0.0
H612 H 0.1567 0.42379 0.69003 0.0
C613 C 0.11884 0.38056 0.80554 0.0
C614 C 0.13512 0.08948 0.77853 0.0
C615 C 0.13499 0.08687 0.71844 0.0
H616 H 0.11124 0.1146 0.85255 0.0
C617 C 0.11439 0.11178 0.68604 0.0
H618 H 0.15095 0.07051 0.80416 0.0
C619 C 0.09036 0.13563 0.71359 0.0
C620 C 0.08812 0.13598 0.77372 0.0
H621 H 0.11403 0.11033 0.63957 0.0
H622 H 0.07183 0.15201 0.688 0.0
C623 C 0.11241 0.11462 0.80606 0.0
C624 C 0.75256 0.0094 0.2749 0.0
C625 C 0.75958 0.0426 0.30322 0.0
H626 H 0.73497 0.98293 0.19803 0.0
C627 C 0.75361 0.07554 0.27337 0.0
H628 H 0.75722 0.98349 0.29626 0.0
C629 C 0.74161 0.0752 0.21638 0.0
C630 C 0.73462 0.04193 0.1881 0.0
H631 H 0.75914 0.10167 0.29339 0.0
H632 H 0.73705 0.10111 0.19502 0.0
C633 C 0.74041 0.00906 0.21813 0.0
C634 C 0.42202 0.73982 0.21906 0.0
C635 C 0.45496 0.73262 0.18992 0.0
H636 H 0.3964 0.75925 0.29571 0.0
C637 C 0.48814 0.74006 0.21797 0.0
H638 H 0.39591 0.73396 0.19928 0.0
C639 C 0.48843 0.75391 0.27377 0.0
C640 C 0.45555 0.76108 0.30299 0.0
H641 H 0.51404 0.73444 0.19721 0.0
H642 H 0.51454 0.75975 0.2936 0.0
C643 C 0.42231 0.75361 0.27502 0.0
C644 C 0.75333 0.41897 0.21548 0.0
C645 C 0.76073 0.45173 0.18586 0.0
H646 H 0.73544 0.39384 0.29348 0.0
C647 C 0.75471 0.4851 0.21438 0.0
H648 H 0.75791 0.39269 0.19533 0.0
C649 C 0.74231 0.48574 0.27111 0.0
C650 C 0.73522 0.45303 0.30088 0.0
H651 H 0.76029 0.51089 0.19323 0.0
H652 H 0.73767 0.51199 0.29136 0.0
C653 C 0.74105 0.41961 0.27235 0.0
C654 C 0.00111 0.7335 0.26965 0.0
C655 C 0.03311 0.73063 0.30275 0.0
H656 H 0.97711 0.74953 0.18985 0.0
C657 C 0.06669 0.74016 0.27738 0.0
H658 H 0.9748 0.72607 0.2875 0.0
C659 C 0.06809 0.75285 0.22076 0.0
C660 C 0.03586 0.757 0.18845 0.0
H661 H 0.09199 0.73784 0.30117 0.0
H662 H 0.09429 0.76111 0.20345 0.0
C663 C 0.00249 0.74637 0.21325 0.0
C664 C 0.23953 0.92033 0.71862 0.0
C665 C 0.23226 0.9532 0.6893 0.0
H666 H 0.25916 0.89496 0.79533 0.0
C667 C 0.23955 0.98648 0.71721 0.0
H668 H 0.23375 0.89413 0.69897 0.0
C669 C 0.25341 0.98696 0.77298 0.0
C670 C 0.26078 0.95417 0.80232 0.0
H671 H 0.23387 0.01234 0.69633 0.0
H672 H 0.25916 0.01317 0.79264 0.0
C673 C 0.25338 0.92081 0.77454 0.0
C674 C 0.57407 0.24161 0.71644 0.0
C675 C 0.54073 0.23482 0.68832 0.0
H676 H 0.60074 0.25862 0.79351 0.0
C677 C 0.50798 0.24039 0.71872 0.0
H678 H 0.59989 0.23721 0.69477 0.0
C679 C 0.50848 0.25221 0.77568 0.0
C680 C 0.54174 0.25907 0.80382 0.0
H681 H 0.48181 0.23508 0.69872 0.0
H682 H 0.48266 0.25676 0.79733 0.0
C683 C 0.57457 0.25323 0.77362 0.0
C684 C 0.23583 0.50899 0.77814 0.0
C685 C 0.23019 0.54251 0.80643 0.0
H686 H 0.25465 0.48161 0.70264 0.0
C687 C 0.23926 0.57504 0.77738 0.0
H688 H 0.22886 0.48336 0.79874 0.0
C689 C 0.25342 0.57404 0.72161 0.0
C690 C 0.25937 0.54046 0.69363 0.0
H691 H 0.2349 0.60144 0.79729 0.0
H692 H 0.26079 0.59963 0.70125 0.0
C693 C 0.25 0.50799 0.72247 0.0
C694 C 0.92331 0.24228 0.77208 0.0
C695 C 0.95568 0.23799 0.80401 0.0
H696 H 0.89908 0.25709 0.69183 0.0
C697 C 0.98905 0.24784 0.77839 0.0
H698 H 0.89711 0.23462 0.79004 0.0
C699 C 0.99023 0.26029 0.72174 0.0
C700 C 0.95804 0.2635 0.68916 0.0
H701 H 0.01454 0.24455 0.80144 0.0
H702 H 0.01652 0.26727 0.70335 0.0
C703 C 0.92451 0.25452 0.7152 0.0
C704 C 0.62476 0.10507 0.84958 0.0
C705 C 0.64509 0.13453 0.87153 0.0
H706 H 0.59239 0.08472 0.77997 0.0
C707 C 0.65169 0.16498 0.83616 0.0
H708 H 0.61824 0.0816 0.87573 0.0
C709 C 0.63719 0.16638 0.7806 0.0
C710 C 0.61531 0.13769 0.76043 0.0
H711 H 0.66688 0.18822 0.85225 0.0
H712 H 0.64128 0.19068 0.75476 0.0
C713 C 0.60969 0.10683 0.79473 0.0
C714 C 0.338 0.65092 0.83452 0.0
C715 C 0.36742 0.64356 0.87145 0.0
H716 H 0.31387 0.64102 0.75192 0.0
C717 C 0.39702 0.62281 0.8508 0.0
H718 H 0.31468 0.66646 0.84955 0.0
C719 C 0.39619 0.60783 0.7958 0.0
C720 C 0.36621 0.61406 0.76002 0.0
H721 H 0.41974 0.61578 0.87811 0.0
H722 H 0.41819 0.59 0.78215 0.0
C723 C 0.33758 0.63656 0.77884 0.0
C724 C 0.88153 0.38429 0.86347 0.0
C725 C 0.86086 0.35497 0.8852 0.0
H726 H 0.91282 0.40535 0.79301 0.0
C727 C 0.85304 0.32526 0.84901 0.0
H728 H 0.88882 0.40724 0.89023 0.0
C729 C 0.86619 0.32473 0.79243 0.0
C730 C 0.88821 0.35337 0.77216 0.0
H731 H 0.8375 0.30216 0.86489 0.0
H732 H 0.86076 0.30118 0.7656 0.0
C733 C 0.89544 0.38327 0.80776 0.0
C734 C 0.15887 0.8557 0.78083 0.0
C735 C 0.13011 0.8776 0.76092 0.0
H736 H 0.18104 0.82597 0.85225 0.0
C737 C 0.09944 0.88322 0.79559 0.0
H738 H 0.18308 0.8517 0.75475 0.0
C739 C 0.09795 0.86816 0.85055 0.0
C740 C 0.12751 0.84781 0.87222 0.0
H741 H 0.07731 0.90059 0.78109 0.0
H742 H 0.07467 0.8748 0.87699 0.0
C743 C 0.15772 0.84115 0.83642 0.0
C744 C 0.61068 0.38884 0.6966 0.0
C745 C 0.61668 0.3581 0.73099 0.0
H746 H 0.61882 0.41402 0.61541 0.0
C747 C 0.63883 0.32961 0.71073 0.0
H748 H 0.59316 0.41079 0.71141 0.0
C749 C 0.65324 0.33107 0.65505 0.0
C750 C 0.64627 0.36139 0.61961 0.0
H751 H 0.6432 0.30538 0.73662 0.0
H752 H 0.66866 0.30797 0.63893 0.0
C753 C 0.62564 0.39067 0.64161 0.0
C754 C 0.12599 0.64322 0.70173 0.0
C755 C 0.14217 0.60914 0.71305 0.0
H756 H 0.11341 0.68369 0.63786 0.0
C757 C 0.16067 0.59095 0.66848 0.0
H758 H 0.11194 0.65805 0.73542 0.0
C759 C 0.16178 0.60563 0.6134 0.0
C760 C 0.144 0.63867 0.60112 0.0
H761 H 0.17401 0.56493 0.67586 0.0
H762 H 0.1753 0.59019 0.57983 0.0
C763 C 0.12673 0.6578 0.64598 0.0
C764 C 0.8702 0.10344 0.64206 0.0
C765 C 0.84989 0.13312 0.62066 0.0
H766 H 0.90262 0.08249 0.71125 0.0
C767 C 0.84329 0.16324 0.65665 0.0
H768 H 0.87668 0.08019 0.61546 0.0
C769 C 0.85778 0.16413 0.71222 0.0
C770 C 0.87968 0.13527 0.73185 0.0
H771 H 0.8281 0.18663 0.64102 0.0
H772 H 0.85371 0.18822 0.73851 0.0
C773 C 0.88529 0.10471 0.69694 0.0
C774 C 0.33596 0.8436 0.65725 0.0
C775 C 0.36614 0.85002 0.62128 0.0
H776 H 0.31093 0.85425 0.73909 0.0
C777 C 0.39605 0.86985 0.6429 0.0
H778 H 0.31239 0.82882 0.64147 0.0
C779 C 0.39491 0.88473 0.69795 0.0
C780 C 0.36424 0.87944 0.73274 0.0
H781 H 0.41934 0.87626 0.61632 0.0
H782 H 0.41728 0.90181 0.71238 0.0
C783 C 0.33515 0.85797 0.71292 0.0
C784 C 0.35872 0.83403 0.21251 0.0
C785 C 0.37995 0.86327 0.23246 0.0
H786 H 0.32967 0.81119 0.14103 0.0
C787 C 0.38494 0.89409 0.19785 0.0
H788 H 0.35521 0.80971 0.23854 0.0
C789 C 0.36999 0.89524 0.14287 0.0
C790 C 0.35038 0.86521 0.12112 0.0
H791 H 0.40182 0.91658 0.21238 0.0
H792 H 0.37618 0.91867 0.11644 0.0
C793 C 0.34427 0.83486 0.15691 0.0
C794 C 0.66472 0.35655 0.21152 0.0
C795 C 0.63602 0.37866 0.23116 0.0
H796 H 0.68697 0.32663 0.14031 0.0
C797 C 0.60547 0.38437 0.19638 0.0
H798 H 0.68878 0.35238 0.23774 0.0
C799 C 0.60405 0.36916 0.14158 0.0
C800 C 0.63359 0.34867 0.12012 0.0
H801 H 0.58336 0.40184 0.21072 0.0
H802 H 0.58081 0.37572 0.11508 0.0
C803 C 0.66369 0.34196 0.15599 0.0
C804 C 0.10891 0.61083 0.1272 0.0
C805 C 0.12984 0.64005 0.10575 0.0
H806 H 0.07746 0.58978 0.19747 0.0
C807 C 0.13791 0.66957 0.14218 0.0
H808 H 0.10143 0.58805 0.10026 0.0
C809 C 0.12476 0.67001 0.19876 0.0
C810 C 0.1025 0.64148 0.21877 0.0
H811 H 0.15365 0.69258 0.1265 0.0
H812 H 0.13038 0.69342 0.2258 0.0
C813 C 0.09501 0.61178 0.18291 0.0
C814 C 0.83111 0.13969 0.21124 0.0
C815 C 0.85955 0.11744 0.23134 0.0
H816 H 0.80951 0.16969 0.13964 0.0
C817 C 0.89025 0.11144 0.19687 0.0
H818 H 0.80691 0.14404 0.23718 0.0
C819 C 0.89208 0.1265 0.14195 0.0
C820 C 0.86285 0.14722 0.12008 0.0
H821 H 0.91214 0.09383 0.21154 0.0
H822 H 0.91538 0.11964 0.11567 0.0
C823 C 0.83259 0.15421 0.15564 0.0
C824 C 0.38355 0.59969 0.29552 0.0
C825 C 0.37864 0.63065 0.2612 0.0
H826 H 0.3747 0.57483 0.37673 0.0
C827 C 0.35743 0.65984 0.28147 0.0
H828 H 0.4004 0.57722 0.28075 0.0
C829 C 0.34291 0.65882 0.3371 0.0
C830 C 0.34895 0.62834 0.37263 0.0
H831 H 0.35397 0.68426 0.25567 0.0
H832 H 0.32832 0.68246 0.35321 0.0
C833 C 0.36854 0.59836 0.35054 0.0
C834 C 0.83151 0.40498 0.32334 0.0
C835 C 0.84904 0.38646 0.27813 0.0
H836 H 0.81762 0.40573 0.41229 0.0
C837 C 0.86471 0.35206 0.28892 0.0
H838 H 0.81871 0.43133 0.31652 0.0
C839 C 0.86422 0.33736 0.34462 0.0
C840 C 0.8476 0.35663 0.38993 0.0
H841 H 0.8781 0.33702 0.25481 0.0
H842 H 0.87711 0.31119 0.35233 0.0
C843 C 0.83053 0.39013 0.37831 0.0
C844 C 0.13419 0.83266 0.27995 0.0
C845 C 0.11218 0.86147 0.26046 0.0
H846 H 0.16387 0.81008 0.35109 0.0
C847 C 0.10643 0.89192 0.29553 0.0
H848 H 0.13836 0.80864 0.25354 0.0
C849 C 0.12147 0.89311 0.35047 0.0
C850 C 0.14184 0.86344 0.37176 0.0
H851 H 0.08901 0.91411 0.28134 0.0
H852 H 0.11484 0.91626 0.3772 0.0
C853 C 0.14863 0.83347 0.33556 0.0
C854 C 0.66536 0.13807 0.28062 0.0
C855 C 0.63652 0.11646 0.26028 0.0
H856 H 0.68733 0.16753 0.35239 0.0
C857 C 0.6056 0.11106 0.29448 0.0
H858 H 0.68972 0.14196 0.25485 0.0
C859 C 0.6039 0.12608 0.3494 0.0
C860 C 0.63348 0.14616 0.37149 0.0
H861 H 0.58339 0.09394 0.27961 0.0
H862 H 0.58037 0.1197 0.37548 0.0
C863 C 0.664 0.15255 0.33621 0.0
C864 C 0.52856 0.00783 0.96312 0.0
C865 C 0.53143 0.00962 0.0231 0.0
H866 H 0.49417 0.99555 0.89122 0.0
C867 C 0.50091 0.00131 0.05727 0.0
H868 H 0.55187 0.01402 0.93609 0.0
C869 C 0.46806 0.99079 0.03176 0.0
C870 C 0.4652 0.98901 0.97178 0.0
H871 H 0.50246 0.0031 0.10366 0.0
H872 H 0.44475 0.98457 0.05878 0.0
C873 C 0.49571 0.99734 0.93762 0.0
C874 C 0.50811 0.4648 0.0301 0.0
C875 C 0.50989 0.46235 0.97006 0.0
H876 H 0.49546 0.49858 0.10267 0.0
C877 C 0.50127 0.49304 0.93648 0.0
H878 H 0.51453 0.44134 0.05668 0.0
C879 C 0.49042 0.52563 0.96263 0.0
C880 C 0.4886 0.52806 0.02267 0.0
H881 H 0.50304 0.49182 0.89005 0.0
H882 H 0.48398 0.54908 0.93605 0.0
C883 C 0.49727 0.49738 0.05624 0.0
C884 C 0.99684 0.49393 0.93564 0.0
C885 C 0.02633 0.50918 0.96565 0.0
H886 H 0.943 0.47116 0.94115 0.0
C887 C 0.02396 0.51341 0.02547 0.0
H888 H -0.0021 0.49097 0.88936 0.0
C889 C 0.99268 0.50217 0.05498 0.0
C890 C 0.9632 0.48688 0.02497 0.0
H891 H 0.04654 0.52491 0.04947 0.0
H892 H 0.99163 0.50511 0.10126 0.0
C893 C 0.96556 0.48267 0.96515 0.0
C894 C 0.00452 0.96781 0.96112 0.0
C895 C 0.00543 0.96429 0.02108 0.0
H896 H 0.99349 0.00304 0.88958 0.0
C897 C 0.99683 0.99457 0.05559 0.0
H898 H 0.01094 0.94471 0.9338 0.0
C899 C 0.98691 0.02779 0.03046 0.0
C900 C 0.98599 0.0313 0.9705 0.0
H901 H -0.00206 0.99256 0.102 0.0
H902 H 0.9805 0.05088 0.05779 0.0
C903 C 0.9946 0.00103 0.93598 0.0
C904 C 0.49481 0.4963 0.55366 0.0
C905 C 0.46449 0.50468 0.51921 0.0
H906 H 0.55112 0.48016 0.55575 0.0
C907 C 0.46789 0.50352 0.45925 0.0
H908 H 0.49287 0.49762 0.60007 0.0
C909 C 0.50107 0.49357 0.43404 0.0
C910 C 0.5314 0.48522 0.4685 0.0
H911 H 0.44475 0.5098 0.432 0.0
H912 H 0.50301 0.49222 0.38764 0.0
C913 C 0.52798 0.48639 0.52847 0.0
C914 C 0.99644 0.49888 0.43561 0.0
C915 C 0.00551 0.52991 0.46805 0.0
H916 H 0.97981 0.44264 0.43715 0.0
C917 C 0.00504 0.52778 0.52823 0.0
H918 H -0.00282 0.49977 0.3891 0.0
C919 C 0.99516 0.49523 0.55558 0.0
C920 C 0.98606 0.4642 0.52314 0.0
H921 H 0.01177 0.55147 0.55404 0.0
H922 H 0.9944 0.49433 0.60209 0.0
C923 C 0.98656 0.46632 0.46296 0.0
C924 C 0.02572 0.98906 0.462 0.0
C925 C 0.02815 0.98722 0.52203 0.0
H926 H 0.99201 0.00192 0.38951 0.0
C927 C -0.00245 0.99602 0.55568 0.0
H928 H 0.04912 0.9825 0.43538 0.0
C929 C 0.96505 0.00705 0.52961 0.0
C930 C 0.96261 0.00888 0.46958 0.0
H931 H -0.00124 0.99421 0.6021 0.0
H932 H 0.94165 0.01359 0.55625 0.0
C933 C 0.99322 0.0001 0.43593 0.0
C934 C 0.49084 0.96846 0.5312 0.0
C935 C 0.48881 0.96579 0.47121 0.0
H936 H 0.50324 0.00271 0.60329 0.0
C937 C 0.49682 0.99648 0.43725 0.0
H938 H 0.48487 0.945 0.55807 0.0
C939 C 0.50722 0.02932 0.46294 0.0
C940 C 0.50923 0.03201 0.52293 0.0
H941 H 0.49485 0.99508 0.39086 0.0
H942 H 0.51315 0.05279 0.43606 0.0
C943 C 0.50126 0.0013 0.5569 0.0
loop_
_geom_bond_atom_site_label_1
_geom_bond_atom_site_label_2
_geom_bond_distance
_geom_bond_site_symmetry_2
_ccdc_geom_bond_type
Co0 O3 1.970 . S
Co0 N17 1.989 . S
Co0 O25 1.967 . S
Co0 O32 1.920 1_545 S
Co1 O4 1.966 . S
Co1 N10 2.022 . S
Co1 N18 1.993 . S
Co1 O26 1.941 . S
C2 O3 1.258 . S
C2 O4 1.263 . S
O3 Co0 1.970 . S
O3 C2 1.258 . S
O4 Co1 1.966 . S
O4 C2 1.263 . S
C5 O6 1.235 . S
C5 O32 1.289 . S
O6 C5 1.235 . S
C7 C9 1.400 . S
C7 N10 1.351 1_556 S
C7 C12 1.501 . S
C8 C9 1.387 . S
C8 N11 1.341 . S
C9 C7 1.400 . S
C9 C8 1.387 . S
N10 Co1 2.022 . S
N10 C7 1.351 1_554 S
N10 N11 1.365 1_554 S
N11 C8 1.341 . S
N11 N10 1.365 1_556 S
N11 H31 0.862 1_556 S
C12 C7 1.501 . S
C12 H13 0.961 1_556 S
C12 H14 0.961 . S
C12 H15 0.960 . S
H13 C12 0.961 1_554 S
H14 C12 0.961 . S
H15 C12 0.960 . S
C16 N17 1.342 . S
C16 C20 1.401 . S
C16 C21 1.499 1_545 S
N17 Co0 1.989 . S
N17 C16 1.342 . S
N17 N18 1.388 . S
N18 Co1 1.993 . S
N18 N17 1.388 . S
N18 C19 1.346 . S
C19 N18 1.346 . S
C19 C20 1.396 . S
C19 C29 1.510 1_554 S
C20 C16 1.401 . S
C20 C19 1.396 . S
C21 C16 1.499 1_565 S
C21 H22 0.959 . S
C21 H23 0.960 . S
C21 H24 0.961 . S
H22 C21 0.959 . S
H23 C21 0.960 . S
H24 C21 0.961 . S
O25 Co0 1.967 . S
O25 C33 1.258 . S
O26 Co1 1.941 . S
O26 C33 1.266 . S
H27 C29 0.959 . S
H28 C29 0.961 . S
C29 C19 1.510 1_556 S
C29 H27 0.959 . S
C29 H28 0.961 . S
C29 H30 0.960 . S
H30 C29 0.960 . S
H31 N11 0.862 1_554 S
O32 Co0 1.920 1_565 S
O32 C5 1.289 . S
C33 O25 1.258 . S
C33 O26 1.266 . S
Co34 O37 1.970 . S
Co34 N51 1.989 . S
Co34 O59 1.967 . S
Co34 O66 1.920 . S
Co35 O38 1.966 . S
Co35 N44 2.022 . S
Co35 N52 1.993 . S
Co35 O60 1.941 . S
C36 O37 1.258 . S
C36 O38 1.263 . S
O37 Co34 1.970 . S
O37 C36 1.258 . S
O38 Co35 1.966 . S
O38 C36 1.263 . S
C39 O40 1.235 . S
C39 O66 1.289 . S
O40 C39 1.235 . S
C41 C43 1.400 . S
C41 N44 1.351 1_556 S
C41 C46 1.501 . S
C42 C43 1.387 . S
C42 N45 1.341 . S
C43 C41 1.400 . S
C43 C42 1.387 . S
N44 Co35 2.022 . S
N44 C41 1.351 1_554 S
N44 N45 1.365 1_554 S
N45 C42 1.341 . S
N45 N44 1.365 1_556 S
N45 H65 0.862 1_556 S
C46 C41 1.501 . S
C46 H47 0.961 1_556 S
C46 H48 0.961 . S
C46 H49 0.960 . S
H47 C46 0.961 1_554 S
H48 C46 0.961 . S
H49 C46 0.960 . S
C50 N51 1.342 . S
C50 C54 1.401 . S
C50 C55 1.499 . S
N51 Co34 1.989 . S
N51 C50 1.342 . S
N51 N52 1.388 . S
N52 Co35 1.993 . S
N52 N51 1.388 . S
N52 C53 1.346 . S
C53 N52 1.346 . S
C53 C54 1.396 . S
C53 C63 1.510 1_554 S
C54 C50 1.401 . S
C54 C53 1.396 . S
C55 C50 1.499 . S
C55 H56 0.959 . S
C55 H57 0.960 . S
C55 H58 0.961 . S
H56 C55 0.959 . S
H57 C55 0.960 . S
H58 C55 0.961 . S
O59 Co34 1.967 . S
O59 C67 1.258 . S
O60 Co35 1.941 . S
O60 C67 1.266 . S
H61 C63 0.959 . S
H62 C63 0.961 . S
C63 C53 1.510 1_556 S
C63 H61 0.959 . S
C63 H62 0.961 . S
C63 H64 0.960 . S
H64 C63 0.960 . S
H65 N45 0.862 1_554 S
O66 Co34 1.920 . S
O66 C39 1.289 . S
C67 O59 1.258 . S
C67 O60 1.266 . S
Co68 O71 1.970 . S
Co68 N85 1.989 . S
Co68 O93 1.967 . S
Co68 O100 1.920 . S
Co69 O72 1.966 . S
Co69 N78 2.022 . S
Co69 N86 1.993 . S
Co69 O94 1.941 . S
C70 O71 1.258 . S
C70 O72 1.263 . S
O71 Co68 1.970 . S
O71 C70 1.258 . S
O72 Co69 1.966 . S
O72 C70 1.263 . S
C73 O74 1.235 . S
C73 O100 1.289 . S
O74 C73 1.235 . S
C75 C77 1.400 . S
C75 N78 1.351 1_556 S
C75 C80 1.501 . S
C76 C77 1.387 . S
C76 N79 1.341 . S
C77 C75 1.400 . S
C77 C76 1.387 . S
N78 Co69 2.022 . S
N78 C75 1.351 1_554 S
N78 N79 1.365 1_554 S
N79 C76 1.341 . S
N79 N78 1.365 1_556 S
N79 H99 0.862 1_556 S
C80 C75 1.501 . S
C80 H81 0.961 1_556 S
C80 H82 0.961 . S
C80 H83 0.960 . S
H81 C80 0.961 1_554 S
H82 C80 0.961 . S
H83 C80 0.960 . S
C84 N85 1.342 . S
C84 C88 1.401 . S
C84 C89 1.499 . S
N85 Co68 1.989 . S
N85 C84 1.342 . S
N85 N86 1.388 . S
N86 Co69 1.993 . S
N86 N85 1.388 . S
N86 C87 1.346 . S
C87 N86 1.346 . S
C87 C88 1.396 . S
C87 C97 1.510 1_554 S
C88 C84 1.401 . S
C88 C87 1.396 . S
C89 C84 1.499 . S
C89 H90 0.959 . S
C89 H91 0.960 . S
C89 H92 0.961 . S
H90 C89 0.959 . S
H91 C89 0.960 . S
H92 C89 0.961 . S
O93 Co68 1.967 . S
O93 C101 1.258 . S
O94 Co69 1.941 . S
O94 C101 1.266 . S
H95 C97 0.959 . S
H96 C97 0.961 . S
C97 C87 1.510 1_556 S
C97 H95 0.959 . S
C97 H96 0.961 . S
C97 H98 0.960 . S
H98 C97 0.960 . S
H99 N79 0.862 1_554 S
O100 Co68 1.920 . S
O100 C73 1.289 . S
C101 O93 1.258 . S
C101 O94 1.266 . S
Co102 O105 1.970 . S
Co102 N119 1.989 . S
Co102 O127 1.967 . S
Co102 O134 1.920 1_455 S
Co103 O106 1.966 . S
Co103 N112 2.022 . S
Co103 N120 1.993 . S
Co103 O128 1.941 . S
C104 O105 1.258 . S
C104 O106 1.263 . S
O105 Co102 1.970 . S
O105 C104 1.258 . S
O106 Co103 1.966 . S
O106 C104 1.263 . S
C107 O108 1.235 . S
C107 O134 1.289 . S
O108 C107 1.235 . S
C109 C111 1.400 . S
C109 N112 1.351 1_556 S
C109 C114 1.501 . S
C110 C111 1.387 . S
C110 N113 1.341 . S
C111 C109 1.400 . S
C111 C110 1.387 . S
N112 Co103 2.022 . S
N112 C109 1.351 1_554 S
N112 N113 1.365 1_554 S
N113 C110 1.341 . S
N113 N112 1.365 1_556 S
N113 H133 0.862 1_556 S
C114 C109 1.501 . S
C114 H115 0.961 1_556 S
C114 H116 0.961 . S
C114 H117 0.960 . S
H115 C114 0.961 1_554 S
H116 C114 0.961 . S
H117 C114 0.960 . S
C118 N119 1.342 . S
C118 C122 1.401 . S
C118 C123 1.499 1_455 S
N119 Co102 1.989 . S
N119 C118 1.342 . S
N119 N120 1.388 . S
N120 Co103 1.993 . S
N120 N119 1.388 . S
N120 C121 1.346 . S
C121 N120 1.346 . S
C121 C122 1.396 . S
C121 C131 1.510 1_554 S
C122 C118 1.401 . S
C122 C121 1.396 . S
C123 C118 1.499 1_655 S
C123 H124 0.959 . S
C123 H125 0.960 . S
C123 H126 0.961 . S
H124 C123 0.959 . S
H125 C123 0.960 . S
H126 C123 0.961 . S
O127 Co102 1.967 . S
O127 C135 1.258 . S
O128 Co103 1.941 . S
O128 C135 1.266 . S
H129 C131 0.959 . S
H130 C131 0.961 . S
C131 C121 1.510 1_556 S
C131 H129 0.959 . S
C131 H130 0.961 . S
C131 H132 0.960 . S
H132 C131 0.960 . S
H133 N113 0.862 1_554 S
O134 Co102 1.920 1_655 S
O134 C107 1.289 . S
C135 O127 1.258 . S
C135 O128 1.266 . S
Co136 O139 1.970 . S
Co136 N153 1.989 . S
Co136 O161 1.967 . S
Co136 O168 1.920 . S
Co137 O140 1.966 . S
Co137 N146 2.022 . S
Co137 N154 1.993 . S
Co137 O162 1.941 . S
C138 O139 1.258 . S
C138 O140 1.263 . S
O139 Co136 1.970 . S
O139 C138 1.258 . S
O140 Co137 1.966 . S
O140 C138 1.263 . S
C141 O142 1.235 . S
C141 O168 1.289 . S
O142 C141 1.235 . S
C143 C145 1.400 . S
C143 N146 1.351 . S
C143 C148 1.501 . S
C144 C145 1.387 . S
C144 N147 1.341 . S
C145 C143 1.400 . S
C145 C144 1.387 . S
N146 Co137 2.022 . S
N146 C143 1.351 . S
N146 N147 1.365 . S
N147 C144 1.341 . S
N147 N146 1.365 . S
N147 H167 0.862 . S
C148 C143 1.501 . S
C148 H149 0.961 . S
C148 H150 0.961 . S
C148 H151 0.960 . S
H149 C148 0.961 . S
H150 C148 0.961 . S
H151 C148 0.960 . S
C152 N153 1.342 . S
C152 C156 1.401 . S
C152 C157 1.499 . S
N153 Co136 1.989 . S
N153 C152 1.342 . S
N153 N154 1.388 . S
N154 Co137 1.993 . S
N154 N153 1.388 . S
N154 C155 1.346 . S
C155 N154 1.346 . S
C155 C156 1.396 . S
C155 C165 1.510 . S
C156 C152 1.401 . S
C156 C155 1.396 . S
C157 C152 1.499 . S
C157 H158 0.959 . S
C157 H159 0.960 . S
C157 H160 0.961 . S
H158 C157 0.959 . S
H159 C157 0.960 . S
H160 C157 0.961 . S
O161 Co136 1.967 . S
O161 C169 1.258 . S
O162 Co137 1.941 . S
O162 C169 1.266 . S
H163 C165 0.959 . S
H164 C165 0.961 . S
C165 C155 1.510 . S
C165 H163 0.959 . S
C165 H164 0.961 . S
C165 H166 0.960 . S
H166 C165 0.960 . S
H167 N147 0.862 . S
O168 Co136 1.920 . S
O168 C141 1.289 . S
C169 O161 1.258 . S
C169 O162 1.266 . S
Co170 O173 1.970 . S
Co170 N187 1.989 . S
Co170 O195 1.967 . S
Co170 O202 1.920 1_455 S
Co171 O174 1.966 . S
Co171 N180 2.022 . S
Co171 N188 1.993 . S
Co171 O196 1.941 . S
C172 O173 1.258 . S
C172 O174 1.263 . S
O173 Co170 1.970 . S
O173 C172 1.258 . S
O174 Co171 1.966 . S
O174 C172 1.263 . S
C175 O176 1.235 . S
C175 O202 1.289 . S
O176 C175 1.235 . S
C177 C179 1.400 . S
C177 N180 1.351 . S
C177 C182 1.501 . S
C178 C179 1.387 . S
C178 N181 1.341 . S
C179 C177 1.400 . S
C179 C178 1.387 . S
N180 Co171 2.022 . S
N180 C177 1.351 . S
N180 N181 1.365 . S
N181 C178 1.341 . S
N181 N180 1.365 . S
N181 H201 0.862 . S
C182 C177 1.501 . S
C182 H183 0.961 . S
C182 H184 0.961 . S
C182 H185 0.960 . S
H183 C182 0.961 . S
H184 C182 0.961 . S
H185 C182 0.960 . S
C186 N187 1.342 . S
C186 C190 1.401 . S
C186 C191 1.499 1_455 S
N187 Co170 1.989 . S
N187 C186 1.342 . S
N187 N188 1.388 . S
N188 Co171 1.993 . S
N188 N187 1.388 . S
N188 C189 1.346 . S
C189 N188 1.346 . S
C189 C190 1.396 . S
C189 C199 1.510 . S
C190 C186 1.401 . S
C190 C189 1.396 . S
C191 C186 1.499 1_655 S
C191 H192 0.959 . S
C191 H193 0.960 . S
C191 H194 0.961 . S
H192 C191 0.959 . S
H193 C191 0.960 . S
H194 C191 0.961 . S
O195 Co170 1.967 . S
O195 C203 1.258 . S
O196 Co171 1.941 . S
O196 C203 1.266 . S
H197 C199 0.959 . S
H198 C199 0.961 . S
C199 C189 1.510 . S
C199 H197 0.959 . S
C199 H198 0.961 . S
C199 H200 0.960 . S
H200 C199 0.960 . S
H201 N181 0.862 . S
O202 Co170 1.920 1_655 S
O202 C175 1.289 . S
C203 O195 1.258 . S
C203 O196 1.266 . S
Co204 O207 1.970 . S
Co204 N221 1.989 . S
Co204 O229 1.967 . S
Co204 O236 1.920 1_545 S
Co205 O208 1.966 . S
Co205 N214 2.022 . S
Co205 N222 1.993 . S
Co205 O230 1.941 . S
C206 O207 1.258 . S
C206 O208 1.263 . S
O207 Co204 1.970 . S
O207 C206 1.258 . S
O208 Co205 1.966 . S
O208 C206 1.263 . S
C209 O210 1.235 . S
C209 O236 1.289 . S
O210 C209 1.235 . S
C211 C213 1.400 . S
C211 N214 1.351 . S
C211 C216 1.501 . S
C212 C213 1.387 . S
C212 N215 1.341 . S
C213 C211 1.400 . S
C213 C212 1.387 . S
N214 Co205 2.022 . S
N214 C211 1.351 . S
N214 N215 1.365 . S
N215 C212 1.341 . S
N215 N214 1.365 . S
N215 H235 0.862 . S
C216 C211 1.501 . S
C216 H217 0.961 . S
C216 H218 0.961 . S
C216 H219 0.960 . S
H217 C216 0.961 . S
H218 C216 0.961 . S
H219 C216 0.960 . S
C220 N221 1.342 . S
C220 C224 1.401 . S
C220 C225 1.499 1_545 S
N221 Co204 1.989 . S
N221 C220 1.342 . S
N221 N222 1.388 . S
N222 Co205 1.993 . S
N222 N221 1.388 . S
N222 C223 1.346 . S
C223 N222 1.346 . S
C223 C224 1.396 . S
C223 C233 1.510 . S
C224 C220 1.401 . S
C224 C223 1.396 . S
C225 C220 1.499 1_565 S
C225 H226 0.959 . S
C225 H227 0.960 . S
C225 H228 0.961 . S
H226 C225 0.959 . S
H227 C225 0.960 . S
H228 C225 0.961 . S
O229 Co204 1.967 . S
O229 C237 1.258 . S
O230 Co205 1.941 . S
O230 C237 1.266 . S
H231 C233 0.959 . S
H232 C233 0.961 . S
C233 C223 1.510 . S
C233 H231 0.959 . S
C233 H232 0.961 . S
C233 H234 0.960 . S
H234 C233 0.960 . S
H235 N215 0.862 . S
O236 Co204 1.920 1_565 S
O236 C209 1.289 . S
C237 O229 1.258 . S
C237 O230 1.266 . S
Co238 O241 1.970 . S
Co238 N255 1.989 . S
Co238 O263 1.967 . S
Co238 O270 1.920 . S
Co239 O242 1.966 . S
Co239 N248 2.022 . S
Co239 N256 1.993 . S
Co239 O264 1.941 . S
C240 O241 1.258 . S
C240 O242 1.263 . S
O241 Co238 1.970 . S
O241 C240 1.258 . S
O242 Co239 1.966 . S
O242 C240 1.263 . S
C243 O244 1.235 . S
C243 O270 1.289 . S
O244 C243 1.235 . S
C245 C247 1.400 . S
C245 N248 1.351 . S
C245 C250 1.501 . S
C246 C247 1.387 . S
C246 N249 1.341 . S
C247 C245 1.400 . S
C247 C246 1.387 . S
N248 Co239 2.022 . S
N248 C245 1.351 . S
N248 N249 1.365 . S
N249 C246 1.341 . S
N249 N248 1.365 . S
N249 H269 0.862 . S
C250 C245 1.501 . S
C250 H251 0.961 . S
C250 H252 0.961 . S
C250 H253 0.960 . S
H251 C250 0.961 . S
H252 C250 0.961 . S
H253 C250 0.960 . S
C254 N255 1.342 . S
C254 C258 1.401 . S
C254 C259 1.499 . S
N255 Co238 1.989 . S
N255 C254 1.342 . S
N255 N256 1.388 . S
N256 Co239 1.993 . S
N256 N255 1.388 . S
N256 C257 1.346 . S
C257 N256 1.346 . S
C257 C258 1.396 . S
C257 C267 1.510 . S
C258 C254 1.401 . S
C258 C257 1.396 . S
C259 C254 1.499 . S
C259 H260 0.959 . S
C259 H261 0.960 . S
C259 H262 0.961 . S
H260 C259 0.959 . S
H261 C259 0.960 . S
H262 C259 0.961 . S
O263 Co238 1.967 . S
O263 C271 1.258 . S
O264 Co239 1.941 . S
O264 C271 1.266 . S
H265 C267 0.959 . S
H266 C267 0.961 . S
C267 C257 1.510 . S
C267 H265 0.959 . S
C267 H266 0.961 . S
C267 H268 0.960 . S
H268 C267 0.960 . S
H269 N249 0.862 . S
O270 Co238 1.920 . S
O270 C243 1.289 . S
C271 O263 1.258 . S
C271 O264 1.266 . S
Co272 O275 1.970 . S
Co272 N289 1.989 . S
Co272 O297 1.967 . S
Co272 O304 1.920 1_565 S
Co273 O276 1.966 . S
Co273 N282 2.022 . S
Co273 N290 1.993 . S
Co273 O298 1.941 . S
C274 O275 1.258 . S
C274 O276 1.263 . S
O275 Co272 1.970 . S
O275 C274 1.258 . S
O276 Co273 1.966 . S
O276 C274 1.263 . S
C277 O278 1.235 . S
C277 O304 1.289 . S
O278 C277 1.235 . S
C279 C281 1.400 . S
C279 N282 1.351 1_554 S
C279 C284 1.501 . S
C280 C281 1.387 . S
C280 N283 1.341 . S
C281 C279 1.400 . S
C281 C280 1.387 . S
N282 Co273 2.022 . S
N282 C279 1.351 1_556 S
N282 N283 1.365 1_556 S
N283 C280 1.341 . S
N283 N282 1.365 1_554 S
N283 H303 0.862 1_554 S
C284 C279 1.501 . S
C284 H285 0.961 1_554 S
C284 H286 0.961 . S
C284 H287 0.960 . S
H285 C284 0.961 1_556 S
H286 C284 0.961 . S
H287 C284 0.960 . S
C288 N289 1.342 . S
C288 C292 1.401 . S
C288 C293 1.499 1_565 S
N289 Co272 1.989 . S
N289 C288 1.342 . S
N289 N290 1.388 . S
N290 Co273 1.993 . S
N290 N289 1.388 . S
N290 C291 1.346 . S
C291 N290 1.346 . S
C291 C292 1.396 . S
C291 C301 1.510 1_556 S
C292 C288 1.401 . S
C292 C291 1.396 . S
C293 C288 1.499 1_545 S
C293 H294 0.959 . S
C293 H295 0.960 . S
C293 H296 0.961 . S
H294 C293 0.959 . S
H295 C293 0.960 . S
H296 C293 0.961 . S
O297 Co272 1.967 . S
O297 C305 1.258 . S
O298 Co273 1.941 . S
O298 C305 1.266 . S
H299 C301 0.959 . S
H300 C301 0.961 . S
C301 C291 1.510 1_554 S
C301 H299 0.959 . S
C301 H300 0.961 . S
C301 H302 0.960 . S
H302 C301 0.960 . S
H303 N283 0.862 1_556 S
O304 Co272 1.920 1_545 S
O304 C277 1.289 . S
C305 O297 1.258 . S
C305 O298 1.266 . S
Co306 O309 1.970 . S
Co306 N323 1.989 . S
Co306 O331 1.967 . S
Co306 O338 1.920 . S
Co307 O310 1.966 . S
Co307 N316 2.022 . S
Co307 N324 1.993 . S
Co307 O332 1.941 . S
C308 O309 1.258 . S
C308 O310 1.263 . S
O309 Co306 1.970 . S
O309 C308 1.258 . S
O310 Co307 1.966 . S
O310 C308 1.263 . S
C311 O312 1.235 . S
C311 O338 1.289 . S
O312 C311 1.235 . S
C313 C315 1.400 . S
C313 N316 1.351 1_554 S
C313 C318 1.501 . S
C314 C315 1.387 . S
C314 N317 1.341 . S
C315 C313 1.400 . S
C315 C314 1.387 . S
N316 Co307 2.022 . S
N316 C313 1.351 1_556 S
N316 N317 1.365 1_556 S
N317 C314 1.341 . S
N317 N316 1.365 1_554 S
N317 H337 0.862 1_554 S
C318 C313 1.501 . S
C318 H319 0.961 1_554 S
C318 H320 0.961 . S
C318 H321 0.960 . S
H319 C318 0.961 1_556 S
H320 C318 0.961 . S
H321 C318 0.960 . S
C322 N323 1.342 . S
C322 C326 1.401 . S
C322 C327 1.499 . S
N323 Co306 1.989 . S
N323 C322 1.342 . S
N323 N324 1.388 . S
N324 Co307 1.993 . S
N324 N323 1.388 . S
N324 C325 1.346 . S
C325 N324 1.346 . S
C325 C326 1.396 . S
C325 C335 1.510 1_556 S
C326 C322 1.401 . S
C326 C325 1.396 . S
C327 C322 1.499 . S
C327 H328 0.959 . S
C327 H329 0.960 . S
C327 H330 0.961 . S
H328 C327 0.959 . S
H329 C327 0.960 . S
H330 C327 0.961 . S
O331 Co306 1.967 . S
O331 C339 1.258 . S
O332 Co307 1.941 . S
O332 C339 1.266 . S
H333 C335 0.959 . S
H334 C335 0.961 . S
C335 C325 1.510 1_554 S
C335 H333 0.959 . S
C335 H334 0.961 . S
C335 H336 0.960 . S
H336 C335 0.960 . S
H337 N317 0.862 1_556 S
O338 Co306 1.920 . S
O338 C311 1.289 . S
C339 O331 1.258 . S
C339 O332 1.266 . S
Co340 O343 1.970 . S
Co340 N357 1.989 . S
Co340 O365 1.967 . S
Co340 O372 1.920 . S
Co341 O344 1.966 . S
Co341 N350 2.022 . S
Co341 N358 1.993 . S
Co341 O366 1.941 . S
C342 O343 1.258 . S
C342 O344 1.263 . S
O343 Co340 1.970 . S
O343 C342 1.258 . S
O344 Co341 1.966 . S
O344 C342 1.263 . S
C345 O346 1.235 . S
C345 O372 1.289 . S
O346 C345 1.235 . S
C347 C349 1.400 . S
C347 N350 1.351 1_554 S
C347 C352 1.501 . S
C348 C349 1.387 . S
C348 N351 1.341 . S
C349 C347 1.400 . S
C349 C348 1.387 . S
N350 Co341 2.022 . S
N350 C347 1.351 1_556 S
N350 N351 1.365 1_556 S
N351 C348 1.341 . S
N351 N350 1.365 1_554 S
N351 H371 0.862 1_554 S
C352 C347 1.501 . S
C352 H353 0.961 1_554 S
C352 H354 0.961 . S
C352 H355 0.960 . S
H353 C352 0.961 1_556 S
H354 C352 0.961 . S
H355 C352 0.960 . S
C356 N357 1.342 . S
C356 C360 1.401 . S
C356 C361 1.499 . S
N357 Co340 1.989 . S
N357 C356 1.342 . S
N357 N358 1.388 . S
N358 Co341 1.993 . S
N358 N357 1.388 . S
N358 C359 1.346 . S
C359 N358 1.346 . S
C359 C360 1.396 . S
C359 C369 1.510 1_556 S
C360 C356 1.401 . S
C360 C359 1.396 . S
C361 C356 1.499 . S
C361 H362 0.959 . S
C361 H363 0.960 . S
C361 H364 0.961 . S
H362 C361 0.959 . S
H363 C361 0.960 . S
H364 C361 0.961 . S
O365 Co340 1.967 . S
O365 C373 1.258 . S
O366 Co341 1.941 . S
O366 C373 1.266 . S
H367 C369 0.959 . S
H368 C369 0.961 . S
C369 C359 1.510 1_554 S
C369 H367 0.959 . S
C369 H368 0.961 . S
C369 H370 0.960 . S
H370 C369 0.960 . S
H371 N351 0.862 1_556 S
O372 Co340 1.920 . S
O372 C345 1.289 . S
C373 O365 1.258 . S
C373 O366 1.266 . S
Co374 O377 1.970 . S
Co374 N391 1.989 . S
Co374 O399 1.967 . S
Co374 O406 1.920 1_655 S
Co375 O378 1.966 . S
Co375 N384 2.022 . S
Co375 N392 1.993 . S
Co375 O400 1.941 . S
C376 O377 1.258 . S
C376 O378 1.263 . S
O377 Co374 1.970 . S
O377 C376 1.258 . S
O378 Co375 1.966 . S
O378 C376 1.263 . S
C379 O380 1.235 . S
C379 O406 1.289 . S
O380 C379 1.235 . S
C381 C383 1.400 . S
C381 N384 1.351 1_554 S
C381 C386 1.501 . S
C382 C383 1.387 . S
C382 N385 1.341 . S
C383 C381 1.400 . S
C383 C382 1.387 . S
N384 Co375 2.022 . S
N384 C381 1.351 1_556 S
N384 N385 1.365 1_556 S
N385 C382 1.341 . S
N385 N384 1.365 1_554 S
N385 H405 0.862 1_554 S
C386 C381 1.501 . S
C386 H387 0.961 1_554 S
C386 H388 0.961 . S
C386 H389 0.960 . S
H387 C386 0.961 1_556 S
H388 C386 0.961 . S
H389 C386 0.960 . S
C390 N391 1.342 . S
C390 C394 1.401 . S
C390 C395 1.499 1_655 S
N391 Co374 1.989 . S
N391 C390 1.342 . S
N391 N392 1.388 . S
N392 Co375 1.993 . S
N392 N391 1.388 . S
N392 C393 1.346 . S
C393 N392 1.346 . S
C393 C394 1.396 . S
C393 C403 1.510 1_556 S
C394 C390 1.401 . S
C394 C393 1.396 . S
C395 C390 1.499 1_455 S
C395 H396 0.959 . S
C395 H397 0.960 . S
C395 H398 0.961 . S
H396 C395 0.959 . S
H397 C395 0.960 . S
H398 C395 0.961 . S
O399 Co374 1.967 . S
O399 C407 1.258 . S
O400 Co375 1.941 . S
O400 C407 1.266 . S
H401 C403 0.959 . S
H402 C403 0.961 . S
C403 C393 1.510 1_554 S
C403 H401 0.959 . S
C403 H402 0.961 . S
C403 H404 0.960 . S
H404 C403 0.960 . S
H405 N385 0.862 1_556 S
O406 Co374 1.920 1_455 S
O406 C379 1.289 . S
C407 O399 1.258 . S
C407 O400 1.266 . S
Co408 O411 1.970 . S
Co408 N425 1.989 . S
Co408 O433 1.967 . S
Co408 O440 1.920 . S
Co409 O412 1.966 . S
Co409 N418 2.022 . S
Co409 N426 1.993 . S
Co409 O434 1.941 . S
C410 O411 1.258 . S
C410 O412 1.263 . S
O411 Co408 1.970 . S
O411 C410 1.258 . S
O412 Co409 1.966 . S
O412 C410 1.263 . S
C413 O414 1.235 . S
C413 O440 1.289 . S
O414 C413 1.235 . S
C415 C417 1.400 . S
C415 N418 1.351 . S
C415 C420 1.501 . S
C416 C417 1.387 . S
C416 N419 1.341 . S
C417 C415 1.400 . S
C417 C416 1.387 . S
N418 Co409 2.022 . S
N418 C415 1.351 . S
N418 N419 1.365 . S
N419 C416 1.341 . S
N419 N418 1.365 . S
N419 H439 0.862 . S
C420 C415 1.501 . S
C420 H421 0.961 . S
C420 H422 0.961 . S
C420 H423 0.960 . S
H421 C420 0.961 . S
H422 C420 0.961 . S
H423 C420 0.960 . S
C424 N425 1.342 . S
C424 C428 1.401 . S
C424 C429 1.499 . S
N425 Co408 1.989 . S
N425 C424 1.342 . S
N425 N426 1.388 . S
N426 Co409 1.993 . S
N426 N425 1.388 . S
N426 C427 1.346 . S
C427 N426 1.346 . S
C427 C428 1.396 . S
C427 C437 1.510 . S
C428 C424 1.401 . S
C428 C427 1.396 . S
C429 C424 1.499 . S
C429 H430 0.959 . S
C429 H431 0.960 . S
C429 H432 0.961 . S
H430 C429 0.959 . S
H431 C429 0.960 . S
H432 C429 0.961 . S
O433 Co408 1.967 . S
O433 C441 1.258 . S
O434 Co409 1.941 . S
O434 C441 1.266 . S
H435 C437 0.959 . S
H436 C437 0.961 . S
C437 C427 1.510 . S
C437 H435 0.959 . S
C437 H436 0.961 . S
C437 H438 0.960 . S
H438 C437 0.960 . S
H439 N419 0.862 . S
O440 Co408 1.920 . S
O440 C413 1.289 . S
C441 O433 1.258 . S
C441 O434 1.266 . S
Co442 O445 1.970 . S
Co442 N459 1.989 . S
Co442 O467 1.967 . S
Co442 O474 1.920 1_655 S
Co443 O446 1.966 . S
Co443 N452 2.022 . S
Co443 N460 1.993 . S
Co443 O468 1.941 . S
C444 O445 1.258 . S
C444 O446 1.263 . S
O445 Co442 1.970 . S
O445 C444 1.258 . S
O446 Co443 1.966 . S
O446 C444 1.263 . S
C447 O448 1.235 . S
C447 O474 1.289 . S
O448 C447 1.235 . S
C449 C451 1.400 . S
C449 N452 1.351 . S
C449 C454 1.501 . S
C450 C451 1.387 . S
C450 N453 1.341 . S
C451 C449 1.400 . S
C451 C450 1.387 . S
N452 Co443 2.022 . S
N452 C449 1.351 . S
N452 N453 1.365 . S
N453 C450 1.341 . S
N453 N452 1.365 . S
N453 H473 0.862 . S
C454 C449 1.501 . S
C454 H455 0.961 . S
C454 H456 0.961 . S
C454 H457 0.960 . S
H455 C454 0.961 . S
H456 C454 0.961 . S
H457 C454 0.960 . S
C458 N459 1.342 . S
C458 C462 1.401 . S
C458 C463 1.499 1_655 S
N459 Co442 1.989 . S
N459 C458 1.342 . S
N459 N460 1.388 . S
N460 Co443 1.993 . S
N460 N459 1.388 . S
N460 C461 1.346 . S
C461 N460 1.346 . S
C461 C462 1.396 . S
C461 C471 1.510 . S
C462 C458 1.401 . S
C462 C461 1.396 . S
C463 C458 1.499 1_455 S
C463 H464 0.959 . S
C463 H465 0.960 . S
C463 H466 0.961 . S
H464 C463 0.959 . S
H465 C463 0.960 . S
H466 C463 0.961 . S
O467 Co442 1.967 . S
O467 C475 1.258 . S
O468 Co443 1.941 . S
O468 C475 1.266 . S
H469 C471 0.959 . S
H470 C471 0.961 . S
C471 C461 1.510 . S
C471 H469 0.959 . S
C471 H470 0.961 . S
C471 H472 0.960 . S
H472 C471 0.960 . S
H473 N453 0.862 . S
O474 Co442 1.920 1_455 S
O474 C447 1.289 . S
C475 O467 1.258 . S
C475 O468 1.266 . S
Co476 O479 1.970 . S
Co476 N493 1.989 . S
Co476 O501 1.967 . S
Co476 O508 1.920 1_565 S
Co477 O480 1.966 . S
Co477 N486 2.022 . S
Co477 N494 1.993 . S
Co477 O502 1.941 . S
C478 O479 1.258 . S
C478 O480 1.263 . S
O479 Co476 1.970 . S
O479 C478 1.258 . S
O480 Co477 1.966 . S
O480 C478 1.263 . S
C481 O482 1.235 . S
C481 O508 1.289 . S
O482 C481 1.235 . S
C483 C485 1.400 . S
C483 N486 1.351 . S
C483 C488 1.501 . S
C484 C485 1.387 . S
C484 N487 1.341 . S
C485 C483 1.400 . S
C485 C484 1.387 . S
N486 Co477 2.022 . S
N486 C483 1.351 . S
N486 N487 1.365 . S
N487 C484 1.341 . S
N487 N486 1.365 . S
N487 H507 0.862 . S
C488 C483 1.501 . S
C488 H489 0.961 . S
C488 H490 0.961 . S
C488 H491 0.960 . S
H489 C488 0.961 . S
H490 C488 0.961 . S
H491 C488 0.960 . S
C492 N493 1.342 . S
C492 C496 1.401 . S
C492 C497 1.499 1_565 S
N493 Co476 1.989 . S
N493 C492 1.342 . S
N493 N494 1.388 . S
N494 Co477 1.993 . S
N494 N493 1.388 . S
N494 C495 1.346 . S
C495 N494 1.346 . S
C495 C496 1.396 . S
C495 C505 1.510 . S
C496 C492 1.401 . S
C496 C495 1.396 . S
C497 C492 1.499 1_545 S
C497 H498 0.959 . S
C497 H499 0.960 . S
C497 H500 0.961 . S
H498 C497 0.959 . S
H499 C497 0.960 . S
H500 C497 0.961 . S
O501 Co476 1.967 . S
O501 C509 1.258 . S
O502 Co477 1.941 . S
O502 C509 1.266 . S
H503 C505 0.959 . S
H504 C505 0.961 . S
C505 C495 1.510 . S
C505 H503 0.959 . S
C505 H504 0.961 . S
C505 H506 0.960 . S
H506 C505 0.960 . S
H507 N487 0.862 . S
O508 Co476 1.920 1_545 S
O508 C481 1.289 . S
C509 O501 1.258 . S
C509 O502 1.266 . S
Co510 O513 1.970 . S
Co510 N527 1.989 . S
Co510 O535 1.967 . S
Co510 O542 1.920 . S
Co511 O514 1.966 . S
Co511 N520 2.022 . S
Co511 N528 1.993 . S
Co511 O536 1.941 . S
C512 O513 1.258 . S
C512 O514 1.263 . S
O513 Co510 1.970 . S
O513 C512 1.258 . S
O514 Co511 1.966 . S
O514 C512 1.263 . S
C515 O516 1.235 . S
C515 O542 1.289 . S
O516 C515 1.235 . S
C517 C519 1.400 . S
C517 N520 1.351 . S
C517 C522 1.501 . S
C518 C519 1.387 . S
C518 N521 1.341 . S
C519 C517 1.400 . S
C519 C518 1.387 . S
N520 Co511 2.022 . S
N520 C517 1.351 . S
N520 N521 1.365 . S
N521 C518 1.341 . S
N521 N520 1.365 . S
N521 H541 0.862 . S
C522 C517 1.501 . S
C522 H523 0.961 . S
C522 H524 0.961 . S
C522 H525 0.960 . S
H523 C522 0.961 . S
H524 C522 0.961 . S
H525 C522 0.960 . S
C526 N527 1.342 . S
C526 C530 1.401 . S
C526 C531 1.499 . S
N527 Co510 1.989 . S
N527 C526 1.342 . S
N527 N528 1.388 . S
N528 Co511 1.993 . S
N528 N527 1.388 . S
N528 C529 1.346 . S
C529 N528 1.346 . S
C529 C530 1.396 . S
C529 C539 1.510 . S
C530 C526 1.401 . S
C530 C529 1.396 . S
C531 C526 1.499 . S
C531 H532 0.959 . S
C531 H533 0.960 . S
C531 H534 0.961 . S
H532 C531 0.959 . S
H533 C531 0.960 . S
H534 C531 0.961 . S
O535 Co510 1.967 . S
O535 C543 1.258 . S
O536 Co511 1.941 . S
O536 C543 1.266 . S
H537 C539 0.959 . S
H538 C539 0.961 . S
C539 C529 1.510 . S
C539 H537 0.959 . S
C539 H538 0.961 . S
C539 H540 0.960 . S
H540 C539 0.960 . S
H541 N521 0.862 . S
O542 Co510 1.920 . S
O542 C515 1.289 . S
C543 O535 1.258 . S
C543 O536 1.266 . S
C544 C545 1.387 . S
C544 H548 0.950 . S
C544 C553 1.390 . S
C545 C544 1.387 . S
C545 C547 1.387 . S
H546 C553 0.950 . S
C547 C545 1.387 . S
C547 C549 1.390 . S
C547 H551 0.950 . S
H548 C544 0.950 . S
C549 C547 1.390 . S
C549 C550 1.387 . S
C549 H552 0.950 . S
C550 C549 1.387 . S
C550 C553 1.387 . S
H551 C547 0.950 . S
H552 C549 0.950 . S
C553 C544 1.390 . S
C553 H546 0.950 . S
C553 C550 1.387 . S
C554 C555 1.387 . S
C554 H558 0.950 . S
C554 C563 1.390 . S
C555 C554 1.387 . S
C555 C557 1.387 . S
H556 C563 0.950 . S
C557 C555 1.387 . S
C557 C559 1.390 . S
C557 H561 0.950 . S
H558 C554 0.950 . S
C559 C557 1.390 . S
C559 C560 1.387 . S
C559 H562 0.950 . S
C560 C559 1.387 . S
C560 C563 1.387 . S
H561 C557 0.950 . S
H562 C559 0.950 . S
C563 C554 1.390 . S
C563 H556 0.950 . S
C563 C560 1.387 . S
C564 C565 1.387 . S
C564 H568 0.950 . S
C564 C573 1.390 . S
C565 C564 1.387 . S
C565 C567 1.387 . S
H566 C573 0.950 . S
C567 C565 1.387 . S
C567 C569 1.390 . S
C567 H571 0.950 . S
H568 C564 0.950 . S
C569 C567 1.390 . S
C569 C570 1.387 . S
C569 H572 0.950 . S
C570 C569 1.387 . S
C570 C573 1.387 . S
H571 C567 0.950 . S
H572 C569 0.950 . S
C573 C564 1.390 . S
C573 H566 0.950 . S
C573 C570 1.387 . S
C574 C575 1.387 . S
C574 H578 0.950 . S
C574 C583 1.390 . S
C575 C574 1.387 . S
C575 C577 1.387 . S
H576 C583 0.950 . S
C577 C575 1.387 . S
C577 C579 1.390 . S
C577 H581 0.950 . S
H578 C574 0.950 . S
C579 C577 1.390 . S
C579 C580 1.387 . S
C579 H582 0.950 . S
C580 C579 1.387 . S
C580 C583 1.387 . S
H581 C577 0.950 . S
H582 C579 0.950 . S
C583 C574 1.390 . S
C583 H576 0.950 . S
C583 C580 1.387 . S
C584 C585 1.387 . S
C584 H588 0.950 . S
C584 C593 1.390 . S
C585 C584 1.387 . S
C585 C587 1.387 . S
H586 C593 0.950 . S
C587 C585 1.387 . S
C587 C589 1.390 . S
C587 H591 0.950 . S
H588 C584 0.950 . S
C589 C587 1.390 . S
C589 C590 1.387 . S
C589 H592 0.950 . S
C590 C589 1.387 . S
C590 C593 1.387 . S
H591 C587 0.950 . S
H592 C589 0.950 . S
C593 C584 1.390 . S
C593 H586 0.950 . S
C593 C590 1.387 . S
C594 C595 1.387 . S
C594 H598 0.950 . S
C594 C603 1.390 . S
C595 C594 1.387 . S
C595 C597 1.387 . S
H596 C603 0.950 . S
C597 C595 1.387 . S
C597 C599 1.390 . S
C597 H601 0.950 . S
H598 C594 0.950 . S
C599 C597 1.390 . S
C599 C600 1.387 . S
C599 H602 0.950 . S
C600 C599 1.387 . S
C600 C603 1.387 . S
H601 C597 0.950 . S
H602 C599 0.950 . S
C603 C594 1.390 . S
C603 H596 0.950 . S
C603 C600 1.387 . S
C604 C605 1.387 . S
C604 H608 0.950 . S
C604 C613 1.390 . S
C605 C604 1.387 . S
C605 C607 1.387 . S
H606 C613 0.950 . S
C607 C605 1.387 . S
C607 C609 1.390 . S
C607 H611 0.950 . S
H608 C604 0.950 . S
C609 C607 1.390 . S
C609 C610 1.387 . S
C609 H612 0.950 . S
C610 C609 1.387 . S
C610 C613 1.387 . S
H611 C607 0.950 . S
H612 C609 0.950 . S
C613 C604 1.390 . S
C613 H606 0.950 . S
C613 C610 1.387 . S
C614 C615 1.387 . S
C614 H618 0.950 . S
C614 C623 1.390 . S
C615 C614 1.387 . S
C615 C617 1.387 . S
H616 C623 0.950 . S
C617 C615 1.387 . S
C617 C619 1.390 . S
C617 H621 0.950 . S
H618 C614 0.950 . S
C619 C617 1.390 . S
C619 C620 1.387 . S
C619 H622 0.950 . S
C620 C619 1.387 . S
C620 C623 1.387 . S
H621 C617 0.950 . S
H622 C619 0.950 . S
C623 C614 1.390 . S
C623 H616 0.950 . S
C623 C620 1.387 . S
C624 C625 1.387 . S
C624 H628 0.950 1_545 S
C624 C633 1.390 . S
C625 C624 1.387 . S
C625 C627 1.387 . S
H626 C633 0.950 1_565 S
C627 C625 1.387 . S
C627 C629 1.390 . S
C627 H631 0.950 . S
H628 C624 0.950 1_565 S
C629 C627 1.390 . S
C629 C630 1.387 . S
C629 H632 0.950 . S
C630 C629 1.387 . S
C630 C633 1.387 . S
H631 C627 0.950 . S
H632 C629 0.950 . S
C633 C624 1.390 . S
C633 H626 0.950 1_545 S
C633 C630 1.387 . S
C634 C635 1.387 . S
C634 H638 0.950 . S
C634 C643 1.390 . S
C635 C634 1.387 . S
C635 C637 1.387 . S
H636 C643 0.950 . S
C637 C635 1.387 . S
C637 C639 1.390 . S
C637 H641 0.950 . S
H638 C634 0.950 . S
C639 C637 1.390 . S
C639 C640 1.387 . S
C639 H642 0.950 . S
C640 C639 1.387 . S
C640 C643 1.387 . S
H641 C637 0.950 . S
H642 C639 0.950 . S
C643 C634 1.390 . S
C643 H636 0.950 . S
C643 C640 1.387 . S
C644 C645 1.387 . S
C644 H648 0.950 . S
C644 C653 1.390 . S
C645 C644 1.387 . S
C645 C647 1.387 . S
H646 C653 0.950 . S
C647 C645 1.387 . S
C647 C649 1.390 . S
C647 H651 0.950 . S
H648 C644 0.950 . S
C649 C647 1.390 . S
C649 C650 1.387 . S
C649 H652 0.950 . S
C650 C649 1.387 . S
C650 C653 1.387 . S
H651 C647 0.950 . S
H652 C649 0.950 . S
C653 C644 1.390 . S
C653 H646 0.950 . S
C653 C650 1.387 . S
C654 C655 1.387 . S
C654 H658 0.950 1_455 S
C654 C663 1.390 . S
C655 C654 1.387 . S
C655 C657 1.387 . S
H656 C663 0.950 1_655 S
C657 C655 1.387 . S
C657 C659 1.390 . S
C657 H661 0.950 . S
H658 C654 0.950 1_655 S
C659 C657 1.390 . S
C659 C660 1.387 . S
C659 H662 0.950 . S
C660 C659 1.387 . S
C660 C663 1.387 . S
H661 C657 0.950 . S
H662 C659 0.950 . S
C663 C654 1.390 . S
C663 H656 0.950 1_455 S
C663 C660 1.387 . S
C664 C665 1.387 . S
C664 H668 0.950 . S
C664 C673 1.390 . S
C665 C664 1.387 . S
C665 C667 1.387 . S
H666 C673 0.950 . S
C667 C665 1.387 . S
C667 C669 1.390 . S
C667 H671 0.950 1_565 S
H668 C664 0.950 . S
C669 C667 1.390 . S
C669 C670 1.387 . S
C669 H672 0.950 1_565 S
C670 C669 1.387 . S
C670 C673 1.387 . S
H671 C667 0.950 1_545 S
H672 C669 0.950 1_545 S
C673 C664 1.390 . S
C673 H666 0.950 . S
C673 C670 1.387 . S
C674 C675 1.387 . S
C674 H678 0.950 . S
C674 C683 1.390 . S
C675 C674 1.387 . S
C675 C677 1.387 . S
H676 C683 0.950 . S
C677 C675 1.387 . S
C677 C679 1.390 . S
C677 H681 0.950 . S
H678 C674 0.950 . S
C679 C677 1.390 . S
C679 C680 1.387 . S
C679 H682 0.950 . S
C680 C679 1.387 . S
C680 C683 1.387 . S
H681 C677 0.950 . S
H682 C679 0.950 . S
C683 C674 1.390 . S
C683 H676 0.950 . S
C683 C680 1.387 . S
C684 C685 1.387 . S
C684 H688 0.950 . S
C684 C693 1.390 . S
C685 C684 1.387 . S
C685 C687 1.387 . S
H686 C693 0.950 . S
C687 C685 1.387 . S
C687 C689 1.390 . S
C687 H691 0.950 . S
H688 C684 0.950 . S
C689 C687 1.390 . S
C689 C690 1.387 . S
C689 H692 0.950 . S
C690 C689 1.387 . S
C690 C693 1.387 . S
H691 C687 0.950 . S
H692 C689 0.950 . S
C693 C684 1.390 . S
C693 H686 0.950 . S
C693 C690 1.387 . S
C694 C695 1.387 . S
C694 H698 0.950 . S
C694 C703 1.390 . S
C695 C694 1.387 . S
C695 C697 1.387 . S
H696 C703 0.950 . S
C697 C695 1.387 . S
C697 C699 1.390 . S
C697 H701 0.950 1_655 S
H698 C694 0.950 . S
C699 C697 1.390 . S
C699 C700 1.387 . S
C699 H702 0.950 1_655 S
C700 C699 1.387 . S
C700 C703 1.387 . S
H701 C697 0.950 1_455 S
H702 C699 0.950 1_455 S
C703 C694 1.390 . S
C703 H696 0.950 . S
C703 C700 1.387 . S
C704 C705 1.387 . S
C704 H708 0.950 . S
C704 C713 1.390 . S
C705 C704 1.387 . S
C705 C707 1.387 . S
H706 C713 0.950 . S
C707 C705 1.387 . S
C707 C709 1.390 . S
C707 H711 0.950 . S
H708 C704 0.950 . S
C709 C707 1.390 . S
C709 C710 1.387 . S
C709 H712 0.950 . S
C710 C709 1.387 . S
C710 C713 1.387 . S
H711 C707 0.950 . S
H712 C709 0.950 . S
C713 C704 1.390 . S
C713 H706 0.950 . S
C713 C710 1.387 . S
C714 C715 1.387 . S
C714 H718 0.950 . S
C714 C723 1.390 . S
C715 C714 1.387 . S
C715 C717 1.387 . S
H716 C723 0.950 . S
C717 C715 1.387 . S
C717 C719 1.390 . S
C717 H721 0.950 . S
H718 C714 0.950 . S
C719 C717 1.390 . S
C719 C720 1.387 . S
C719 H722 0.950 . S
C720 C719 1.387 . S
C720 C723 1.387 . S
H721 C717 0.950 . S
H722 C719 0.950 . S
C723 C714 1.390 . S
C723 H716 0.950 . S
C723 C720 1.387 . S
C724 C725 1.387 . S
C724 H728 0.950 . S
C724 C733 1.390 . S
C725 C724 1.387 . S
C725 C727 1.387 . S
H726 C733 0.950 . S
C727 C725 1.387 . S
C727 C729 1.390 . S
C727 H731 0.950 . S
H728 C724 0.950 . S
C729 C727 1.390 . S
C729 C730 1.387 . S
C729 H732 0.950 . S
C730 C729 1.387 . S
C730 C733 1.387 . S
H731 C727 0.950 . S
H732 C729 0.950 . S
C733 C724 1.390 . S
C733 H726 0.950 . S
C733 C730 1.387 . S
C734 C735 1.387 . S
C734 H738 0.950 . S
C734 C743 1.390 . S
C735 C734 1.387 . S
C735 C737 1.387 . S
H736 C743 0.950 . S
C737 C735 1.387 . S
C737 C739 1.390 . S
C737 H741 0.950 . S
H738 C734 0.950 . S
C739 C737 1.390 . S
C739 C740 1.387 . S
C739 H742 0.950 . S
C740 C739 1.387 . S
C740 C743 1.387 . S
H741 C737 0.950 . S
H742 C739 0.950 . S
C743 C734 1.390 . S
C743 H736 0.950 . S
C743 C740 1.387 . S
C744 C745 1.387 . S
C744 H748 0.950 . S
C744 C753 1.390 . S
C745 C744 1.387 . S
C745 C747 1.387 . S
H746 C753 0.950 . S
C747 C745 1.387 . S
C747 C749 1.390 . S
C747 H751 0.950 . S
H748 C744 0.950 . S
C749 C747 1.390 . S
C749 C750 1.387 . S
C749 H752 0.950 . S
C750 C749 1.387 . S
C750 C753 1.387 . S
H751 C747 0.950 . S
H752 C749 0.950 . S
C753 C744 1.390 . S
C753 H746 0.950 . S
C753 C750 1.387 . S
C754 C755 1.387 . S
C754 H758 0.950 . S
C754 C763 1.390 . S
C755 C754 1.387 . S
C755 C757 1.387 . S
H756 C763 0.950 . S
C757 C755 1.387 . S
C757 C759 1.390 . S
C757 H761 0.950 . S
H758 C754 0.950 . S
C759 C757 1.390 . S
C759 C760 1.387 . S
C759 H762 0.950 . S
C760 C759 1.387 . S
C760 C763 1.387 . S
H761 C757 0.950 . S
H762 C759 0.950 . S
C763 C754 1.390 . S
C763 H756 0.950 . S
C763 C760 1.387 . S
C764 C765 1.387 . S
C764 H768 0.950 . S
C764 C773 1.390 . S
C765 C764 1.387 . S
C765 C767 1.387 . S
H766 C773 0.950 . S
C767 C765 1.387 . S
C767 C769 1.390 . S
C767 H771 0.950 . S
H768 C764 0.950 . S
C769 C767 1.390 . S
C769 C770 1.387 . S
C769 H772 0.950 . S
C770 C769 1.387 . S
C770 C773 1.387 . S
H771 C767 0.950 . S
H772 C769 0.950 . S
C773 C764 1.390 . S
C773 H766 0.950 . S
C773 C770 1.387 . S
C774 C775 1.387 . S
C774 H778 0.950 . S
C774 C783 1.390 . S
C775 C774 1.387 . S
C775 C777 1.387 . S
H776 C783 0.950 . S
C777 C775 1.387 . S
C777 C779 1.390 . S
C777 H781 0.950 . S
H778 C774 0.950 . S
C779 C777 1.390 . S
C779 C780 1.387 . S
C779 H782 0.950 . S
C780 C779 1.387 . S
C780 C783 1.387 . S
H781 C777 0.950 . S
H782 C779 0.950 . S
C783 C774 1.390 . S
C783 H776 0.950 . S
C783 C780 1.387 . S
C784 C785 1.387 . S
C784 H788 0.950 . S
C784 C793 1.390 . S
C785 C784 1.387 . S
C785 C787 1.387 . S
H786 C793 0.950 . S
C787 C785 1.387 . S
C787 C789 1.390 . S
C787 H791 0.950 . S
H788 C784 0.950 . S
C789 C787 1.390 . S
C789 C790 1.387 . S
C789 H792 0.950 . S
C790 C789 1.387 . S
C790 C793 1.387 . S
H791 C787 0.950 . S
H792 C789 0.950 . S
C793 C784 1.390 . S
C793 H786 0.950 . S
C793 C790 1.387 . S
C794 C795 1.387 . S
C794 H798 0.950 . S
C794 C803 1.390 . S
C795 C794 1.387 . S
C795 C797 1.387 . S
H796 C803 0.950 . S
C797 C795 1.387 . S
C797 C799 1.390 . S
C797 H801 0.950 . S
H798 C794 0.950 . S
C799 C797 1.390 . S
C799 C800 1.387 . S
C799 H802 0.950 . S
C800 C799 1.387 . S
C800 C803 1.387 . S
H801 C797 0.950 . S
H802 C799 0.950 . S
C803 C794 1.390 . S
C803 H796 0.950 . S
C803 C800 1.387 . S
C804 C805 1.387 . S
C804 H808 0.950 . S
C804 C813 1.390 . S
C805 C804 1.387 . S
C805 C807 1.387 . S
H806 C813 0.950 . S
C807 C805 1.387 . S
C807 C809 1.390 . S
C807 H811 0.950 . S
H808 C804 0.950 . S
C809 C807 1.390 . S
C809 C810 1.387 . S
C809 H812 0.950 . S
C810 C809 1.387 . S
C810 C813 1.387 . S
H811 C807 0.950 . S
H812 C809 0.950 . S
C813 C804 1.390 . S
C813 H806 0.950 . S
C813 C810 1.387 . S
C814 C815 1.387 . S
C814 H818 0.950 . S
C814 C823 1.390 . S
C815 C814 1.387 . S
C815 C817 1.387 . S
H816 C823 0.950 . S
C817 C815 1.387 . S
C817 C819 1.390 . S
C817 H821 0.950 . S
H818 C814 0.950 . S
C819 C817 1.390 . S
C819 C820 1.387 . S
C819 H822 0.950 . S
C820 C819 1.387 . S
C820 C823 1.387 . S
H821 C817 0.950 . S
H822 C819 0.950 . S
C823 C814 1.390 . S
C823 H816 0.950 . S
C823 C820 1.387 . S
C824 C825 1.387 . S
C824 H828 0.950 . S
C824 C833 1.390 . S
C825 C824 1.387 . S
C825 C827 1.387 . S
H826 C833 0.950 . S
C827 C825 1.387 . S
C827 C829 1.390 . S
C827 H831 0.950 . S
H828 C824 0.950 . S
C829 C827 1.390 . S
C829 C830 1.387 . S
C829 H832 0.950 . S
C830 C829 1.387 . S
C830 C833 1.387 . S
H831 C827 0.950 . S
H832 C829 0.950 . S
C833 C824 1.390 . S
C833 H826 0.950 . S
C833 C830 1.387 . S
C834 C835 1.387 . S
C834 H838 0.950 . S
C834 C843 1.390 . S
C835 C834 1.387 . S
C835 C837 1.387 . S
H836 C843 0.950 . S
C837 C835 1.387 . S
C837 C839 1.390 . S
C837 H841 0.950 . S
H838 C834 0.950 . S
C839 C837 1.390 . S
C839 C840 1.387 . S
C839 H842 0.950 . S
C840 C839 1.387 . S
C840 C843 1.387 . S
H841 C837 0.950 . S
H842 C839 0.950 . S
C843 C834 1.390 . S
C843 H836 0.950 . S
C843 C840 1.387 . S
C844 C845 1.387 . S
C844 H848 0.950 . S
C844 C853 1.390 . S
C845 C844 1.387 . S
C845 C847 1.387 . S
H846 C853 0.950 . S
C847 C845 1.387 . S
C847 C849 1.390 . S
C847 H851 0.950 . S
H848 C844 0.950 . S
C849 C847 1.390 . S
C849 C850 1.387 . S
C849 H852 0.950 . S
C850 C849 1.387 . S
C850 C853 1.387 . S
H851 C847 0.950 . S
H852 C849 0.950 . S
C853 C844 1.390 . S
C853 H846 0.950 . S
C853 C850 1.387 . S
C854 C855 1.387 . S
C854 H858 0.950 . S
C854 C863 1.390 . S
C855 C854 1.387 . S
C855 C857 1.387 . S
H856 C863 0.950 . S
C857 C855 1.387 . S
C857 C859 1.390 . S
C857 H861 0.950 . S
H858 C854 0.950 . S
C859 C857 1.390 . S
C859 C860 1.387 . S
C859 H862 0.950 . S
C860 C859 1.387 . S
C860 C863 1.387 . S
H861 C857 0.950 . S
H862 C859 0.950 . S
C863 C854 1.390 . S
C863 H856 0.950 . S
C863 C860 1.387 . S
C864 C865 1.376 1_556 S
C864 H868 0.950 . S
C864 C873 1.390 1_545 S
C865 C864 1.376 1_554 S
C865 C867 1.399 . S
H866 C873 0.950 . S
C867 C865 1.399 . S
C867 C869 1.390 1_545 S
C867 H871 0.950 . S
H868 C864 0.950 . S
C869 C867 1.390 1_565 S
C869 C870 1.376 1_554 S
C869 H872 0.950 . S
C870 C869 1.376 1_556 S
C870 C873 1.399 . S
H871 C867 0.950 . S
H872 C869 0.950 . S
C873 C864 1.390 1_565 S
C873 H866 0.950 . S
C873 C870 1.399 . S
C874 C875 1.376 1_554 S
C874 H878 0.950 . S
C874 C883 1.390 . S
C875 C874 1.376 1_556 S
C875 C877 1.399 . S
H876 C883 0.950 . S
C877 C875 1.399 . S
C877 C879 1.390 . S
C877 H881 0.950 . S
H878 C874 0.950 . S
C879 C877 1.390 . S
C879 C880 1.376 1_556 S
C879 H882 0.950 . S
C880 C879 1.376 1_554 S
C880 C883 1.399 . S
H881 C877 0.950 . S
H882 C879 0.950 . S
C883 C874 1.390 . S
C883 H876 0.950 . S
C883 C880 1.399 . S
C884 C885 1.399 . S
C884 H888 0.950 . S
C884 C893 1.390 1_455 S
C885 C884 1.399 . S
C885 C887 1.376 1_556 S
H886 C893 0.950 . S
C887 C885 1.376 1_554 S
C887 C889 1.390 1_455 S
C887 H891 0.950 . S
H888 C884 0.950 . S
C889 C887 1.390 1_655 S
C889 C890 1.399 . S
C889 H892 0.950 . S
C890 C889 1.399 . S
C890 C893 1.376 1_554 S
H891 C887 0.950 . S
H892 C889 0.950 . S
C893 C884 1.390 1_655 S
C893 H886 0.950 . S
C893 C890 1.376 1_556 S
C894 C895 1.376 1_556 S
C894 H898 0.950 . S
C894 C903 1.390 1_465 S
C895 C894 1.376 1_554 S
C895 C897 1.399 . S
H896 C903 0.950 . S
C897 C895 1.399 . S
C897 C899 1.390 1_465 S
C897 H901 0.950 . S
H898 C894 0.950 . S
C899 C897 1.390 1_645 S
C899 C900 1.376 1_554 S
C899 H902 0.950 . S
C900 C899 1.376 1_556 S
C900 C903 1.399 . S
H901 C897 0.950 . S
H902 C899 0.950 . S
C903 C894 1.390 1_645 S
C903 H896 0.950 . S
C903 C900 1.399 . S
C904 C905 1.387 . S
C904 H908 0.950 . S
C904 C913 1.390 . S
C905 C904 1.387 . S
C905 C907 1.387 . S
H906 C913 0.950 . S
C907 C905 1.387 . S
C907 C909 1.390 . S
C907 H911 0.950 . S
H908 C904 0.950 . S
C909 C907 1.390 . S
C909 C910 1.387 . S
C909 H912 0.950 . S
C910 C909 1.387 . S
C910 C913 1.387 . S
H911 C907 0.950 . S
H912 C909 0.950 . S
C913 C904 1.390 . S
C913 H906 0.950 . S
C913 C910 1.387 . S
C914 C915 1.387 . S
C914 H918 0.950 . S
C914 C923 1.390 1_455 S
C915 C914 1.387 . S
C915 C917 1.387 . S
H916 C923 0.950 . S
C917 C915 1.387 . S
C917 C919 1.390 1_455 S
C917 H921 0.950 . S
H918 C914 0.950 . S
C919 C917 1.390 1_655 S
C919 C920 1.387 . S
C919 H922 0.950 . S
C920 C919 1.387 . S
C920 C923 1.387 . S
H921 C917 0.950 . S
H922 C919 0.950 . S
C923 C914 1.390 1_655 S
C923 H916 0.950 . S
C923 C920 1.387 . S
C924 C925 1.388 . S
C924 H928 0.950 . S
C924 C933 1.390 1_465 S
C925 C924 1.388 . S
C925 C927 1.387 . S
H926 C933 0.950 . S
C927 C925 1.387 . S
C927 C929 1.390 1_465 S
C927 H931 0.950 . S
H928 C924 0.950 . S
C929 C927 1.390 1_645 S
C929 C930 1.388 . S
C929 H932 0.950 . S
C930 C929 1.388 . S
C930 C933 1.387 . S
H931 C927 0.950 . S
H932 C929 0.950 . S
C933 C924 1.390 1_645 S
C933 H926 0.950 . S
C933 C930 1.387 . S
C934 C935 1.387 . S
C934 H938 0.950 . S
C934 C943 1.390 1_565 S
C935 C934 1.387 . S
C935 C937 1.387 . S
H936 C943 0.950 . S
C937 C935 1.387 . S
C937 C939 1.390 1_565 S
C937 H941 0.950 . S
H938 C934 0.950 . S
C939 C937 1.390 1_545 S
C939 C940 1.387 . S
C939 H942 0.950 . S
C940 C939 1.387 . S
C940 C943 1.387 . S
H941 C937 0.950 . S
H942 C939 0.950 . S
C943 C934 1.390 1_545 S
C943 H936 0.950 . S
C943 C940 1.387 . S
C545 C5 1.020 . S
C550 C243 1.021 . S
C555 C141 1.019 . S
C560 C39 1.020 . S
C565 C73 1.021 . S
C570 C175 1.020 . S
C575 C107 1.021 . S
C580 C209 1.020 . S
C585 C277 1.021 . S
C590 C515 1.020 . S
C595 C413 1.022 . S
C600 C311 1.020 . S
C605 C447 1.020 . S
C610 C345 1.021 . S
C615 C481 1.019 . S
C620 C379 1.021 . S
C625 C206 1.627 . S
C630 C2 1.627 . S
C635 C36 1.632 . S
C640 C240 1.632 . S
C645 C70 1.632 . S
C650 C138 1.632 . S
C655 C172 1.627 . S
C660 C104 1.627 . S
C665 C478 1.627 . S
C670 C274 1.627 . S
C675 C512 1.627 . S
C680 C308 1.627 . S
C685 C342 1.632 . S
C690 C410 1.632 . S
C695 C376 1.627 . S
C700 C444 1.627 . S
C705 C9 1.545 . S
C710 C543 1.798 . S
C715 C43 1.540 . S
C720 C441 1.799 . S
C725 C77 1.545 . S
C730 C475 1.798 . S
C735 C509 1.798 . S
C740 C111 1.540 . S
C745 C339 1.798 . S
C750 C145 1.545 . S
C755 C373 1.799 . S
C760 C179 1.544 . S
C765 C213 1.545 . S
C770 C407 1.798 . S
C775 C247 1.540 . S
C780 C305 1.798 . S
C785 C271 1.798 . S
C790 C281 1.545 . S
C795 C169 1.798 . S
C800 C315 1.545 . S
C805 C349 1.540 . S
C810 C203 1.799 . S
C815 C237 1.798 . S
C820 C383 1.545 . S
C825 C67 1.798 . S
C830 C417 1.540 . S
C835 C101 1.799 . S
C840 C451 1.543 . S
C845 C135 1.798 . S
C850 C485 1.545 . S
C855 C33 1.798 . S
C860 C519 1.545 . S
C865 C20 1.478 . S
C870 C292 1.478 . S
C875 C326 1.478 . S
C880 C54 1.478 . S
C885 C360 1.478 . S
C890 C88 1.478 . S
C895 C122 1.478 . S
C900 C394 1.478 . S
C905 C428 1.474 . S
C910 C156 1.474 . S
C915 C190 1.474 . S
C920 C462 1.474 . S
C925 C496 1.474 . S
C930 C224 1.474 . S
C935 C258 1.474 . S
C940 C530 1.474 . S
