# Generated by pormake.
# Topology sth, (5)-cn, num edge types: 1
# Building blocks:
#     Node 0, Type 0, BuildingBlock: XOMCOT_clean_sbu_0, # of connection points: 5
#     Node 1, Type 0, BuildingBlock: XOMCOT_clean_sbu_0, # of connection points: 5
#     Node 2, Type 0, BuildingBlock: XOMCOT_clean_sbu_0, # of connection points: 5
#     Node 3, Type 0, BuildingBlock: XOMCOT_clean_sbu_0, # of connection points: 5
#     Node 4, Type 0, BuildingBlock: XOMCOT_clean_sbu_0, # of connection points: 5
#     Node 5, Type 0, BuildingBlock: XOMCOT_clean_sbu_0, # of connection points: 5
#     Node 6, Type 0, BuildingBlock: XOMCOT_clean_sbu_0, # of connection points: 5
#     Node 7, Type 0, BuildingBlock: XOMCOT_clean_sbu_0, # of connection points: 5
#     Node 8, Type 0, BuildingBlock: XOMCOT_clean_sbu_0, # of connection points: 5
#     Node 9, Type 0, BuildingBlock: XOMCOT_clean_sbu_0, # of connection points: 5
#     Node 10, Type 0, BuildingBlock: XOMCOT_clean_sbu_0, # of connection points: 5
#     Node 11, Type 0, BuildingBlock: XOMCOT_clean_sbu_0, # of connection points: 5
#     Node 12, Type 0, BuildingBlock: XOMCOT_clean_sbu_0, # of connection points: 5
#     Node 13, Type 0, BuildingBlock: XOMCOT_clean_sbu_0, # of connection points: 5
#     Node 14, Type 0, BuildingBlock: XOMCOT_clean_sbu_0, # of connection points: 5
#     Node 15, Type 0, BuildingBlock: XOMCOT_clean_sbu_0, # of connection points: 5
#     Node 16, Type 0, BuildingBlock: XOMCOT_clean_sbu_0, # of connection points: 5
#     Node 17, Type 0, BuildingBlock: XOMCOT_clean_sbu_0, # of connection points: 5
#     Edge 18, Type (0, 0), BuildingBlock: XIVTED_clean_linker_0, # of connection points: 2
#     Edge 19, Type (0, 0), BuildingBlock: XIVTED_clean_linker_0, # of connection points: 2
#     Edge 20, Type (0, 0), BuildingBlock: XIVTED_clean_linker_0, # of connection points: 2
#     Edge 21, Type (0, 0), BuildingBlock: XIVTED_clean_linker_0, # of connection points: 2
#     Edge 22, Type (0, 0), BuildingBlock: XIVTED_clean_linker_0, # of connection points: 2
#     Edge 23, Type (0, 0), BuildingBlock: XIVTED_clean_linker_0, # of connection points: 2
#     Edge 24, Type (0, 0), BuildingBlock: XIVTED_clean_linker_0, # of connection points: 2
#     Edge 25, Type (0, 0), BuildingBlock: XIVTED_clean_linker_0, # of connection points: 2
#     Edge 26, Type (0, 0), BuildingBlock: XIVTED_clean_linker_0, # of connection points: 2
#     Edge 27, Type (0, 0), BuildingBlock: XIVTED_clean_linker_0, # of connection points: 2
#     Edge 28, Type (0, 0), BuildingBlock: XIVTED_clean_linker_0, # of connection points: 2
#     Edge 29, Type (0, 0), BuildingBlock: XIVTED_clean_linker_0, # of connection points: 2
#     Edge 30, Type (0, 0), BuildingBlock: XIVTED_clean_linker_0, # of connection points: 2
#     Edge 31, Type (0, 0), BuildingBlock: XIVTED_clean_linker_0, # of connection points: 2
#     Edge 32, Type (0, 0), BuildingBlock: XIVTED_clean_linker_0, # of connection points: 2
#     Edge 33, Type (0, 0), BuildingBlock: XIVTED_clean_linker_0, # of connection points: 2
#     Edge 34, Type (0, 0), BuildingBlock: XIVTED_clean_linker_0, # of connection points: 2
#     Edge 35, Type (0, 0), BuildingBlock: XIVTED_clean_linker_0, # of connection points: 2
#     Edge 36, Type (0, 0), BuildingBlock: XIVTED_clean_linker_0, # of connection points: 2
#     Edge 37, Type (0, 0), BuildingBlock: XIVTED_clean_linker_0, # of connection points: 2
#     Edge 38, Type (0, 0), BuildingBlock: XIVTED_clean_linker_0, # of connection points: 2
#     Edge 39, Type (0, 0), BuildingBlock: XIVTED_clean_linker_0, # of connection points: 2
#     Edge 40, Type (0, 0), BuildingBlock: XIVTED_clean_linker_0, # of connection points: 2
#     Edge 41, Type (0, 0), BuildingBlock: XIVTED_clean_linker_0, # of connection points: 2
#     Edge 42, Type (0, 0), BuildingBlock: XIVTED_clean_linker_0, # of connection points: 2
#     Edge 43, Type (0, 0), BuildingBlock: XIVTED_clean_linker_0, # of connection points: 2
#     Edge 44, Type (0, 0), BuildingBlock: XIVTED_clean_linker_0, # of connection points: 2
#     Edge 45, Type (0, 0), BuildingBlock: XIVTED_clean_linker_0, # of connection points: 2
#     Edge 46, Type (0, 0), BuildingBlock: XIVTED_clean_linker_0, # of connection points: 2
#     Edge 47, Type (0, 0), BuildingBlock: XIVTED_clean_linker_0, # of connection points: 2
#     Edge 48, Type (0, 0), BuildingBlock: XIVTED_clean_linker_0, # of connection points: 2
#     Edge 49, Type (0, 0), BuildingBlock: XIVTED_clean_linker_0, # of connection points: 2
#     Edge 50, Type (0, 0), BuildingBlock: XIVTED_clean_linker_0, # of connection points: 2
#     Edge 51, Type (0, 0), BuildingBlock: XIVTED_clean_linker_0, # of connection points: 2
#     Edge 52, Type (0, 0), BuildingBlock: XIVTED_clean_linker_0, # of connection points: 2
#     Edge 53, Type (0, 0), BuildingBlock: XIVTED_clean_linker_0, # of connection points: 2
#     Edge 54, Type (0, 0), BuildingBlock: XIVTED_clean_linker_0, # of connection points: 2
#     Edge 55, Type (0, 0), BuildingBlock: XIVTED_clean_linker_0, # of connection points: 2
#     Edge 56, Type (0, 0), BuildingBlock: XIVTED_clean_linker_0, # of connection points: 2
#     Edge 57, Type (0, 0), BuildingBlock: XIVTED_clean_linker_0, # of connection points: 2
#     Edge 58, Type (0, 0), BuildingBlock: XIVTED_clean_linker_0, # of connection points: 2
#     Edge 59, Type (0, 0), BuildingBlock: XIVTED_clean_linker_0, # of connection points: 2
#     Edge 60, Type (0, 0), BuildingBlock: XIVTED_clean_linker_0, # of connection points: 2
#     Edge 61, Type (0, 0), BuildingBlock: XIVTED_clean_linker_0, # of connection points: 2
#     Edge 62, Type (0, 0), BuildingBlock: XIVTED_clean_linker_0, # of connection points: 2
# Relax obj value: 0.190
# Max RMSD: 0.215
# Mean RMSD: 0.215
data_MOF--net-sth--node1-XOMCOT_clean_sbu_0--edge1-XIVTED_clean_linker_0
_symmetry_space_group_name_H-M    P1
_symmetry_Int_Tables_number       1
_symmetry_cell_setting            triclinic
loop_
_symmetry_equiv_pos_as_xyz
'x, y, z'
_cell_length_a     40.714398
_cell_length_b     40.815677
_cell_length_c     78.982289
_cell_angle_alpha  89.876388
_cell_angle_beta   90.321006
_cell_angle_gamma 120.10883
loop_
_atom_site_label
_atom_site_type_symbol
_atom_site_fract_x
_atom_site_fract_y
_atom_site_fract_z
_atom_type_partial_charge
Co0 Co 0.10302 0.27256 0.22611 0.0
C1 C 0.18027 0.31772 0.21107 0.0
C2 C 0.17067 0.34718 0.23118 0.0
C3 C 0.20655 0.37022 0.22492 0.0
N4 N 0.15431 0.31416 0.22264 0.0
N5 N 0.21268 0.3518 0.21225 0.0
H6 H 0.17549 0.29587 0.20202 0.0
H7 H 0.15724 0.35415 0.24122 0.0
C8 C 0.11558 0.20779 0.23251 0.0
O9 O 0.09413 0.20124 0.24591 0.0
N10 N 0.05033 0.23084 0.22908 0.0
C11 C 0.02074 0.23441 0.23439 0.0
C12 C 0.98781 0.19997 0.2334 0.0
C13 C 0.03397 0.19401 0.22412 0.0
N14 N 0.99608 0.17442 0.22706 0.0
C15 C 0.09243 0.28243 0.2613 0.0
C16 C 0.1566 0.2833 0.27354 0.0
C17 C 0.13393 0.28957 0.28492 0.0
C18 C 0.1016 0.28928 0.27845 0.0
C19 C 0.1466 0.27702 0.25634 0.0
N20 N 0.11411 0.27544 0.25044 0.0
H21 H 0.06891 0.28487 0.25669 0.0
H22 H 0.16553 0.27422 0.2477 0.0
H23 H 0.02221 0.26048 0.23821 0.0
H24 H 0.04893 0.18177 0.21797 0.0
O25 O 0.08535 0.30837 0.22567 0.0
O26 O 0.0898 0.27926 0.20297 0.0
O27 O 0.12136 0.23478 0.22238 0.0
C28 C 0.0808 0.30315 0.20946 0.0
H29 H 0.22621 0.39877 0.22909 0.0
H30 H 0.95987 0.19418 0.23717 0.0
H31 H 0.18209 0.28362 0.27777 0.0
H32 H 0.08409 0.29585 0.28639 0.0
Co33 Co 0.73228 0.82468 0.23231 0.0
C34 C 0.69178 0.85782 0.21466 0.0
C35 C 0.65772 0.81935 0.23427 0.0
C36 C 0.63637 0.83196 0.22592 0.0
N37 N 0.69239 0.83564 0.2272 0.0
N38 N 0.65775 0.85606 0.21357 0.0
H39 H 0.7153 0.87386 0.20617 0.0
H40 H 0.64839 0.79914 0.24454 0.0
C41 C 0.80236 0.89991 0.23734 0.0
O42 O 0.80852 0.88464 0.25077 0.0
N43 N 0.77259 0.81324 0.23661 0.0
C44 C 0.7738 0.78775 0.24714 0.0
C45 C 0.80804 0.78904 0.24515 0.0
C46 C 0.80535 0.82818 0.22784 0.0
N47 N 0.82795 0.8148 0.23313 0.0
C48 C 0.71202 0.8028 0.26689 0.0
C49 C 0.72561 0.87184 0.27917 0.0
C50 C 0.71092 0.84068 0.29016 0.0
C51 C 0.70415 0.80589 0.28377 0.0
C52 C 0.73272 0.86737 0.26219 0.0
N53 N 0.72746 0.83346 0.25636 0.0
H54 H 0.70374 0.775 0.26219 0.0
H55 H 0.74113 0.89093 0.25366 0.0
H56 H 0.75166 0.7689 0.25557 0.0
H57 H 0.81266 0.84882 0.21784 0.0
O58 O 0.69586 0.77115 0.23174 0.0
O59 O 0.72755 0.80447 0.20941 0.0
O60 O 0.77217 0.88037 0.22842 0.0
C61 C 0.70294 0.77164 0.21575 0.0
H62 H 0.60733 0.82401 0.22876 0.0
H63 H 0.81788 0.77296 0.25232 0.0
H64 H 0.72998 0.89894 0.28345 0.0
H65 H 0.6921 0.78085 0.29169 0.0
Co66 Co 0.17558 0.9135 0.22192 0.0
C67 C 0.16074 0.84003 0.20519 0.0
C68 C 0.1195 0.83371 0.22368 0.0
C69 C 0.10987 0.79854 0.21779 0.0
N70 N 0.15161 0.85995 0.21605 0.0
N71 N 0.13565 0.80227 0.20622 0.0
H72 H 0.18513 0.85254 0.19692 0.0
H73 H 0.10411 0.83974 0.23311 0.0
C74 C 0.10678 0.92623 0.22348 0.0
O75 O 0.12559 0.95899 0.2312 0.0
N76 N 0.19922 0.9668 0.22799 0.0
C77 C 0.22216 0.98321 0.24141 0.0
C78 C 0.23095 0.02036 0.24229 0.0
C79 C 0.19652 0.99497 0.22023 0.0
N80 N 0.21382 0.02763 0.22928 0.0
C81 C 0.18447 0.87865 0.25133 0.0
C82 C 0.14415 0.89676 0.27371 0.0
C83 C 0.16075 0.87592 0.27961 0.0
C84 C 0.18108 0.86686 0.26812 0.0
C85 C 0.14832 0.9081 0.25677 0.0
N86 N 0.16809 0.89885 0.24575 0.0
H87 H 0.20023 0.87132 0.24268 0.0
H88 H 0.13623 0.92485 0.25284 0.0
H89 H 0.23082 0.9688 0.25032 0.0
H90 H 0.1791 0.99046 0.20911 0.0
O91 O 0.22568 0.92053 0.21984 0.0
O92 O 0.19417 0.92871 0.19887 0.0
O93 O 0.12273 0.90704 0.2196 0.0
C94 C 0.22563 0.93102 0.20434 0.0
H95 H 0.08521 0.77211 0.2215 0.0
H96 H 0.24737 0.03988 0.2523 0.0
H97 H 0.12811 0.90439 0.2821 0.0
H98 H 0.19511 0.85153 0.27211 0.0
Co99 Co 0.29614 0.1234 0.79105 0.0
C100 C 0.33462 0.19331 0.812 0.0
C101 C 0.36895 0.19372 0.79135 0.0
C102 C 0.39031 0.22531 0.80109 0.0
N103 N 0.33405 0.17373 0.79812 0.0
N104 N 0.3689 0.22499 0.81413 0.0
H105 H 0.31116 0.18373 0.82072 0.0
H106 H 0.3787 0.1852 0.78041 0.0
C107 C 0.22661 0.12707 0.78256 0.0
O108 O 0.22485 0.10827 0.76878 0.0
N109 N 0.2586 0.07183 0.78439 0.0
C110 C 0.26348 0.04815 0.77416 0.0
C111 C 0.2297 0.01476 0.7726 0.0
C112 C 0.22235 0.05111 0.78987 0.0
N113 N 0.20378 0.01685 0.78232 0.0
C114 C 0.32383 0.12746 0.7574 0.0
C115 C 0.30685 0.18024 0.74455 0.0
C116 C 0.32092 0.1632 0.73361 0.0
C117 C 0.33077 0.13761 0.74044 0.0
C118 C 0.30041 0.16919 0.7616 0.0
N119 N 0.30605 0.14078 0.76751 0.0
H120 H 0.33389 0.10958 0.76242 0.0
H121 H 0.2908 0.18348 0.76999 0.0
H122 H 0.28962 0.05375 0.76837 0.0
H123 H 0.20925 0.06149 0.79859 0.0
O124 O 0.33346 0.10782 0.7931 0.0
O125 O 0.29562 0.10439 0.81385 0.0
O126 O 0.25414 0.1369 0.79314 0.0
C127 C 0.32231 0.09812 0.80856 0.0
H128 H 0.41954 0.24675 0.79881 0.0
H129 H 0.22448 0.99081 0.76481 0.0
H130 H 0.30032 0.20135 0.73995 0.0
H131 H 0.34415 0.12568 0.73276 0.0
Co132 Co 0.90994 0.16783 0.79184 0.0
C133 C 0.82769 0.14622 0.79987 0.0
C134 C 0.86573 0.16962 0.82095 0.0
C135 C 0.83022 0.16081 0.82616 0.0
N136 N 0.86485 0.16078 0.80437 0.0
N137 N 0.80618 0.14579 0.81303 0.0
H138 H 0.81602 0.13468 0.78754 0.0
H139 H 0.89015 0.18063 0.82922 0.0
C140 C 0.86467 0.08324 0.79565 0.0
O141 O 0.83386 0.08444 0.79212 0.0
N142 N 0.95535 0.1753 0.78052 0.0
C143 C 0.97411 0.19933 0.76775 0.0
C144 C 1.00837 0.20058 0.76554 0.0
C145 C 0.97829 0.16228 0.78587 0.0
N146 N 1.01092 0.17728 0.77696 0.0
C147 C 0.86836 0.17483 0.76402 0.0
C148 C 0.8727 0.12265 0.74326 0.0
C149 C 0.85832 0.14479 0.73654 0.0
C150 C 0.85538 0.17052 0.74728 0.0
C151 C 0.88494 0.12752 0.76011 0.0
N152 N 0.88282 0.15343 0.77029 0.0
H153 H 0.86807 0.19638 0.77184 0.0
H154 H 0.89833 0.11204 0.76463 0.0
H155 H 0.96424 0.21585 0.76098 0.0
H156 H 0.97214 0.14377 0.79668 0.0
O157 O 0.92853 0.22161 0.79065 0.0
O158 O 0.94175 0.19337 0.81138 0.0
O159 O 0.89682 0.11378 0.79663 0.0
C160 C 0.94604 0.22469 0.80486 0.0
H161 H 0.82217 0.16304 0.83897 0.0
H162 H 0.02997 0.21774 0.75641 0.0
H163 H 0.87565 0.10257 0.7354 0.0
H164 H 0.84513 0.18871 0.74254 0.0
Co165 Co 0.86259 0.75329 0.78824 0.0
C166 C 0.89155 0.70042 0.79782 0.0
C167 C 0.90776 0.74744 0.81469 0.0
C168 C 0.92529 0.72811 0.81999 0.0
N169 N 0.88688 0.73052 0.80076 0.0
N170 N 0.91531 0.69874 0.80943 0.0
H171 H 0.87924 0.68127 0.78719 0.0
H172 H 0.91089 0.773 0.82032 0.0
C173 C 0.9274 0.8279 0.77757 0.0
O174 O 0.90998 0.82308 0.76297 0.0
N175 N 0.83944 0.77921 0.77687 0.0
C176 C 0.8277 0.77875 0.76075 0.0
C177 C 0.82141 0.8088 0.7586 0.0
C178 C 0.83912 0.80888 0.78421 0.0
N179 N 0.8285 0.82739 0.77342 0.0
C180 C 0.8454 0.7111 0.75758 0.0
C181 C 0.91851 0.73993 0.74575 0.0
C182 C 0.88796 0.71416 0.73565 0.0
C183 C 0.85115 0.69916 0.74197 0.0
C184 C 0.91144 0.7507 0.76159 0.0
N185 N 0.87503 0.73807 0.76684 0.0
H186 H 0.81656 0.69974 0.76182 0.0
H187 H 0.93528 0.76911 0.76954 0.0
H188 H 0.82632 0.76023 0.75075 0.0
H189 H 0.84981 0.81889 0.79686 0.0
O190 O 0.81335 0.70923 0.79139 0.0
O191 O 0.84001 0.75726 0.80933 0.0
O192 O 0.91245 0.80269 0.7891 0.0
C193 C 0.81067 0.72482 0.80517 0.0
H194 H 0.94429 0.73523 0.83075 0.0
H195 H 0.81396 0.81737 0.74688 0.0
H196 H 0.9475 0.75126 0.74155 0.0
H197 H 0.82667 0.67915 0.73465 0.0
Co198 Co 0.80995 0.60873 0.55886 0.0
C199 C 0.88972 0.66681 0.54691 0.0
C200 C 0.85374 0.62612 0.52831 0.0
C201 C 0.88898 0.64762 0.52142 0.0
N202 N 0.85381 0.63767 0.54432 0.0
N203 N 0.91155 0.67301 0.53306 0.0
H204 H 0.90066 0.68141 0.55877 0.0
H205 H 0.83006 0.60202 0.52229 0.0
C206 C 0.84941 0.56424 0.55803 0.0
O207 O 0.88114 0.59657 0.56002 0.0
N208 N 0.76509 0.57785 0.57202 0.0
C209 C 0.75269 0.58535 0.58648 0.0
C210 C 0.71842 0.55377 0.59069 0.0
C211 C 0.73838 0.54259 0.56753 0.0
N212 N 0.70953 0.52715 0.57863 0.0
C213 C 0.85444 0.66235 0.5848 0.0
C214 C 0.85263 0.60983 0.60748 0.0
C215 C 0.86688 0.6472 0.61303 0.0
C216 C 0.86845 0.67382 0.60128 0.0
C217 C 0.83839 0.59946 0.59106 0.0
N218 N 0.8397 0.62557 0.57979 0.0
H219 H 0.85376 0.68277 0.5763 0.0
H220 H 0.82387 0.56973 0.58792 0.0
H221 H 0.7674 0.61172 0.59343 0.0
H222 H 0.7403 0.52839 0.55633 0.0
O223 O 0.79674 0.64786 0.55716 0.0
O224 O 0.77694 0.59959 0.53938 0.0
O225 O 0.81779 0.56374 0.55693 0.0
C226 C 0.77684 0.63023 0.54386 0.0
H227 H 0.89789 0.64398 0.50901 0.0
H228 H 0.70114 0.55085 0.60158 0.0
H229 H 0.85082 0.58813 0.61597 0.0
H230 H 0.87833 0.70283 0.60499 0.0
Co231 Co 0.42122 0.19992 0.55416 0.0
C232 C 0.36593 0.21441 0.5346 0.0
C233 C 0.41374 0.26526 0.54417 0.0
C234 C 0.39236 0.27518 0.53428 0.0
N235 N 0.39761 0.22715 0.54437 0.0
N236 N 0.36248 0.24338 0.52822 0.0
H237 H 0.34671 0.18494 0.5316 0.0
H238 H 0.43997 0.28515 0.55035 0.0
C239 C 0.49442 0.26057 0.56892 0.0
O240 O 0.48763 0.23817 0.58201 0.0
N241 N 0.44663 0.17382 0.5631 0.0
C242 C 0.43548 0.145 0.5742 0.0
C243 C 0.46419 0.13647 0.57588 0.0
C244 C 0.48124 0.18133 0.55784 0.0
N245 N 0.49309 0.15969 0.56568 0.0
C246 C 0.37588 0.17251 0.58385 0.0
C247 C 0.40661 0.23936 0.6019 0.0
C248 C 0.38115 0.20536 0.61 0.0
C249 C 0.36425 0.1721 0.60037 0.0
C250 C 0.41691 0.23858 0.58501 0.0
N251 N 0.40401 0.20486 0.57668 0.0
H252 H 0.36266 0.14603 0.57709 0.0
H253 H 0.43607 0.26508 0.579 0.0
H254 H 0.40859 0.13063 0.58061 0.0
H255 H 0.49753 0.20256 0.54841 0.0
O256 O 0.37793 0.15212 0.54839 0.0
O257 O 0.42717 0.18365 0.53158 0.0
O258 O 0.47104 0.2496 0.55643 0.0
C259 C 0.39488 0.1528 0.5345 0.0
H260 H 0.39851 0.30371 0.53155 0.0
H261 H 0.46401 0.11527 0.58419 0.0
H262 H 0.41942 0.26606 0.60863 0.0
H263 H 0.34269 0.14545 0.60568 0.0
Co264 Co 0.8347 0.22718 0.55886 0.0
C265 C 0.82279 0.1532 0.5433 0.0
C266 C 0.8087 0.18705 0.52742 0.0
C267 C 0.80216 0.15575 0.51846 0.0
N268 N 0.82179 0.18593 0.543 0.0
N269 N 0.81105 0.13438 0.52834 0.0
H270 H 0.83138 0.14289 0.55403 0.0
H271 H 0.80355 0.20914 0.52293 0.0
C272 C 0.75039 0.18454 0.55745 0.0
O273 O 0.75282 0.15382 0.55926 0.0
N274 N 0.84679 0.26964 0.57331 0.0
C275 C 0.87277 0.28469 0.58584 0.0
C276 C 0.87654 0.31915 0.59031 0.0
C277 C 0.83511 0.29463 0.57037 0.0
N278 N 0.85275 0.32516 0.58052 0.0
C279 C 0.84575 0.18127 0.58317 0.0
C280 C 0.79765 0.18268 0.60733 0.0
C281 C 0.82172 0.16875 0.61195 0.0
C282 C 0.84504 0.167 0.59936 0.0
C283 C 0.79874 0.19602 0.5909 0.0
N284 N 0.82272 0.19544 0.57899 0.0
H285 H 0.86684 0.18328 0.57435 0.0
H286 H 0.78262 0.2099 0.58829 0.0
H287 H 0.88915 0.27249 0.59072 0.0
H288 H 0.81624 0.29182 0.56006 0.0
O289 O 0.88798 0.24311 0.55738 0.0
O290 O 0.8581 0.26251 0.54018 0.0
O291 O 0.7807 0.21698 0.55692 0.0
C292 C 0.88974 0.2641 0.54466 0.0
H293 H 0.79039 0.14864 0.50579 0.0
H294 H 0.89622 0.33883 0.59956 0.0
H295 H 0.77995 0.18588 0.61659 0.0
H296 H 0.86404 0.15633 0.60213 0.0
Co297 Co 0.94809 0.46178 0.12393 0.0
C298 C 1.00789 0.53651 0.13936 0.0
C299 C 0.97362 0.54164 0.11994 0.0
C300 C 0.99953 0.57722 0.12542 0.0
N301 N 0.97891 0.5159 0.1284 0.0
N302 N 0.02116 0.57423 0.13759 0.0
H303 H 0.01909 0.52448 0.14833 0.0
H304 H 0.95207 0.53494 0.11036 0.0
C305 C 0.86636 0.44786 0.12264 0.0
O306 O 0.85304 0.41415 0.11596 0.0
N307 N 0.91715 0.40785 0.11939 0.0
C308 C 0.91968 0.38885 0.106 0.0
C309 C 0.89215 0.35127 0.10741 0.0
C310 C 0.88956 0.3812 0.12922 0.0
N311 N 0.8728 0.34662 0.12187 0.0
C312 C 0.9899 0.49157 0.09363 0.0
C313 C 0.92989 0.47165 0.0716 0.0
C314 C 0.96697 0.49049 0.06519 0.0
C315 C 0.99718 0.5006 0.07651 0.0
C316 C 0.92385 0.46327 0.08888 0.0
N317 N 0.95366 0.47317 0.09971 0.0
H318 H 1.01361 0.49958 0.10214 0.0
H319 H 0.89519 0.44819 0.09324 0.0
H320 H 0.93951 0.4015 0.09568 0.0
H321 H 0.88038 0.3875 0.141 0.0
O322 O 0.99098 0.45425 0.12651 0.0
O323 O 0.95287 0.44942 0.1474 0.0
O324 O 0.90189 0.46889 0.12589 0.0
C325 C 0.98128 0.44572 0.14223 0.0
H326 H 1.0016 0.60339 0.12112 0.0
H327 H 0.88556 0.32946 0.09805 0.0
H328 H 0.90565 0.46339 0.06334 0.0
H329 H 0.02627 0.51464 0.07214 0.0
Co330 Co 0.55567 0.48786 0.12612 0.0
C331 C 0.47865 0.46755 0.14046 0.0
C332 C 0.47895 0.42191 0.12722 0.0
C333 C 0.44311 0.40927 0.13311 0.0
N334 N 0.50153 0.45869 0.13146 0.0
N335 N 0.44267 0.43771 0.14145 0.0
H336 H 0.48793 0.49484 0.14625 0.0
H337 H 0.48774 0.40435 0.1208 0.0
C338 C 0.57414 0.42902 0.11444 0.0
O339 O 0.59466 0.45258 0.10239 0.0
N340 N 0.60998 0.51534 0.12146 0.0
C341 C 0.63084 0.54155 0.10969 0.0
C342 C 0.66745 0.5476 0.11016 0.0
C343 C 0.63457 0.50717 0.12926 0.0
N344 N 0.66949 0.52537 0.12231 0.0
C345 C 0.54722 0.519 0.09503 0.0
C346 C 0.51764 0.45496 0.07505 0.0
C347 C 0.52467 0.48914 0.06769 0.0
C348 C 0.53883 0.52116 0.07809 0.0
C349 C 0.52624 0.45396 0.0922 0.0
N350 N 0.5425 0.48617 0.10193 0.0
H351 H 0.55841 0.54453 0.10243 0.0
H352 H 0.5198 0.42702 0.0973 0.0
H353 H 0.62045 0.55435 0.10081 0.0
H354 H 0.62614 0.48617 0.13918 0.0
O355 O 0.55783 0.53482 0.13155 0.0
O356 O 0.56883 0.50098 0.15009 0.0
O357 O 0.55665 0.43856 0.12502 0.0
C358 C 0.56863 0.53221 0.14667 0.0
H359 H 0.41938 0.38065 0.13199 0.0
H360 H 0.68999 0.56501 0.10145 0.0
H361 H 0.50625 0.42929 0.06759 0.0
H362 H 0.54351 0.54798 0.0732 0.0
Co363 Co 0.53231 0.07551 0.13042 0.0
C364 C 0.55174 0.01541 0.14213 0.0
C365 C 0.55308 0.05291 0.16144 0.0
C366 C 0.56539 0.03026 0.16842 0.0
N367 N 0.54432 0.04395 0.14494 0.0
N368 N 0.56457 1.00681 0.15634 0.0
H369 H 0.55084 1.0031 0.12995 0.0
H370 H 0.5528 0.07611 0.16787 0.0
C371 C 0.61649 0.11607 0.13195 0.0
O372 O 0.61335 0.08332 0.12816 0.0
N373 N 0.52127 0.10886 0.11737 0.0
C374 C 0.50104 0.10223 0.10295 0.0
C375 C 0.50052 0.13483 0.09864 0.0
C376 C 0.53205 0.14471 0.1218 0.0
N377 N 0.51986 0.16131 0.11061 0.0
C378 C 0.52127 0.0215 0.10497 0.0
C379 C 0.56774 0.07292 0.0809 0.0
C380 C 0.54303 0.03526 0.07593 0.0
C381 C 0.5208 1.00921 0.08846 0.0
C382 C 0.56786 0.08395 0.09771 0.0
N383 N 0.54434 0.05845 0.1095 0.0
H384 H 0.50141 1.0015 0.11397 0.0
H385 H 0.58446 0.11369 0.10084 0.0
H386 H 0.48764 0.07569 0.0961 0.0
H387 H 0.54874 0.15843 0.13301 0.0
O388 O 0.47896 0.03824 0.13089 0.0
O389 O 0.50775 0.08399 0.14979 0.0
O390 O 0.58654 0.11862 0.1334 0.0
C391 C 0.47642 0.0547 0.14442 0.0
H392 H 0.57582 0.03195 0.18122 0.0
H393 H 0.48645 0.13855 0.08776 0.0
H394 H 0.58493 0.09435 0.0717 0.0
H395 H 0.50174 0.9797 0.08542 0.0
Co396 Co 0.46044 0.94398 0.89387 0.0
C397 C 0.52958 0.99446 0.87282 0.0
C398 C 0.54145 0.97015 0.89447 0.0
C399 C 0.57377 0.98842 0.88492 0.0
N400 N 0.51351 0.97377 0.88702 0.0
N401 N 0.56639 1.00364 0.87134 0.0
H402 H 0.51439 1.00076 0.86328 0.0
H403 H 0.53801 0.95338 0.90564 0.0
C404 C 0.44745 0.86309 0.89624 0.0
O405 O 0.41405 0.84973 0.90326 0.0
N406 N 0.40725 0.91356 0.90034 0.0
C407 C 0.39086 0.91611 0.91465 0.0
C408 C 0.35346 0.88755 0.91469 0.0
C409 C 0.37884 0.88509 0.89138 0.0
N410 N 0.34589 0.86739 0.90018 0.0
C411 C 0.49662 0.98944 0.92297 0.0
C412 C 0.47764 0.93182 0.94606 0.0
C413 C 0.49767 0.96943 0.95178 0.0
C414 C 0.50759 0.99844 0.93991 0.0
C415 C 0.4675 0.92405 0.92897 0.0
N416 N 0.47661 0.95266 0.91763 0.0
H417 H 0.50399 0.01219 0.91405 0.0
H418 H 0.45114 0.895 0.9252 0.0
H419 H 0.40528 0.93644 0.92467 0.0
H420 H 0.38324 0.87586 0.87921 0.0
O421 O 0.45259 0.98641 0.89127 0.0
O422 O 0.44361 0.94555 0.87086 0.0
O423 O 0.46756 0.89812 0.89227 0.0
C424 C 0.44153 0.97495 0.87589 0.0
H425 H 0.60043 0.98942 0.88745 0.0
H426 H 0.33416 0.88107 0.92516 0.0
H427 H 0.46955 0.90847 0.95475 0.0
H428 H 0.5227 0.0279 0.94374 0.0
Co429 Co 0.08188 0.51911 0.88743 0.0
C430 C 0.0414 0.54942 0.86718 0.0
C431 C 1.00514 0.50789 0.88534 0.0
C432 C 0.98375 0.51893 0.87601 0.0
N433 N 0.04125 0.52712 0.87986 0.0
N434 N 1.00645 0.54493 0.86454 0.0
H435 H 0.06631 0.56771 0.85979 0.0
H436 H 0.995 0.48692 0.89531 0.0
C437 C 0.14276 0.59636 0.8975 0.0
O438 O 0.14442 0.58061 0.91177 0.0
N439 N 0.12269 0.50985 0.89446 0.0
C440 C 0.11857 0.47689 0.90045 0.0
C441 C 0.15317 0.47881 0.90072 0.0
C442 C 0.16003 0.5307 0.89051 0.0
N443 N 0.17918 0.51266 0.89452 0.0
C444 C 0.05836 0.4936 0.9214 0.0
C445 C 0.05287 0.55488 0.9324 0.0
C446 C 0.04266 0.52432 0.94343 0.0
C447 C 0.04559 0.49349 0.9377 0.0
C448 C 0.06523 0.55364 0.916 0.0
N449 N 0.06917 0.52377 0.91084 0.0
H450 H 0.05768 0.46839 0.9171 0.0
H451 H 0.07094 0.5764 0.90733 0.0
H452 H 0.09202 0.45161 0.9032 0.0
H453 H 0.17267 0.5574 0.88384 0.0
O454 O 0.04834 0.46555 0.88511 0.0
O455 O 0.08547 0.50251 0.86465 0.0
O456 O 0.11955 0.57591 0.88578 0.0
C457 C 0.06062 0.46849 0.86977 0.0
H458 H 0.9538 0.50874 0.8777 0.0
H459 H 0.15862 0.45654 0.90465 0.0
H460 H 0.0501 0.57885 0.93621 0.0
H461 H 0.03759 0.46907 0.94572 0.0
Co462 Co 0.51652 0.57509 0.88766 0.0
C463 C 0.48724 0.49187 0.88126 0.0
C464 C 0.47067 0.51982 0.86285 0.0
C465 C 0.45255 0.48212 0.85898 0.0
N466 N 0.4922 0.52613 0.8768 0.0
N467 N 0.46277 0.46456 0.8705 0.0
H468 H 0.49982 0.48677 0.89233 0.0
H469 H 0.46731 0.54123 0.85626 0.0
C470 C 0.45114 0.58496 0.89795 0.0
O471 O 0.46959 0.60145 0.91195 0.0
N472 N 0.53945 0.62574 0.89724 0.0
C473 C 0.55975 0.64216 0.91144 0.0
C474 C 0.5634 0.67761 0.91314 0.0
C475 C 0.53262 0.65192 0.89032 0.0
N476 N 0.54565 0.68319 0.89994 0.0
C477 C 0.53864 0.55657 0.91881 0.0
C478 C 0.46811 0.51732 0.93379 0.0
C479 C 0.50064 0.52677 0.94351 0.0
C480 C 0.53595 0.54498 0.93552 0.0
C481 C 0.47214 0.52946 0.91685 0.0
N482 N 0.50745 0.55146 0.91002 0.0
H483 H 0.56654 0.57175 0.91332 0.0
H484 H 0.44691 0.52175 0.90946 0.0
H485 H 0.56977 0.62934 0.92048 0.0
H486 H 0.51563 0.64677 0.87898 0.0
O487 O 0.56601 0.58151 0.88396 0.0
O488 O 0.53624 0.59883 0.86569 0.0
O489 O 0.46552 0.57239 0.8872 0.0
C490 C 0.56673 0.59767 0.86975 0.0
H491 H 0.43293 0.46839 0.84857 0.0
H492 H 0.5756 0.69647 0.92387 0.0
H493 H 0.44011 0.50208 0.93936 0.0
H494 H 0.56167 0.55144 0.94235 0.0
Co495 Co 0.61597 0.77242 0.4681 0.0
C496 C 0.68028 0.84877 0.48102 0.0
C497 C 0.64047 0.81284 0.49972 0.0
C498 C 0.66676 0.84546 0.5075 0.0
N499 N 0.64871 0.81432 0.48312 0.0
N500 N 0.69183 0.86821 0.49583 0.0
H501 H 0.69382 0.86018 0.46903 0.0
H502 H 0.6159 0.78991 0.50576 0.0
C503 C 0.57763 0.81723 0.47209 0.0
O504 O 0.61128 0.84693 0.46953 0.0
N505 N 0.58174 0.72931 0.45449 0.0
C506 C 0.58997 0.71051 0.44281 0.0
C507 C 0.55665 0.67819 0.43818 0.0
C508 C 0.54393 0.70853 0.45677 0.0
N509 N 0.52789 0.67733 0.44696 0.0
C510 C 0.66823 0.8163 0.44187 0.0
C511 C 0.61455 0.81603 0.42022 0.0
C512 C 0.65111 0.82826 0.41399 0.0
C513 C 0.67843 0.82937 0.42525 0.0
C514 C 0.6055 0.80311 0.43688 0.0
N515 N 0.63212 0.80319 0.44756 0.0
H516 H 0.68891 0.81452 0.44985 0.0
H517 H 0.57621 0.79035 0.4407 0.0
H518 H 0.61823 0.71899 0.43839 0.0
H519 H 0.52856 0.71501 0.46605 0.0
O520 O 0.65327 0.75669 0.46782 0.0
O521 O 0.60748 0.73766 0.4868 0.0
O522 O 0.57369 0.78408 0.47208 0.0
C523 C 0.63738 0.73715 0.48132 0.0
H524 H 0.66615 0.85273 0.52063 0.0
H525 H 0.5538 0.65683 0.42925 0.0
H526 H 0.59243 0.81462 0.41205 0.0
H527 H 0.7068 0.83774 0.42098 0.0
Co528 Co 0.25824 0.85414 0.45528 0.0
C529 C 0.18729 0.82312 0.47503 0.0
C530 C 0.1921 0.86453 0.45687 0.0
C531 C 0.15937 0.85274 0.46601 0.0
N532 N 0.20948 0.84591 0.46252 0.0
N533 N 0.15638 0.82677 0.47745 0.0
H534 H 0.19412 0.80498 0.48245 0.0
H535 H 0.20272 0.88554 0.44691 0.0
C536 C 0.24819 0.77827 0.44853 0.0
O537 O 0.26812 0.79367 0.43479 0.0
N538 N 0.30818 0.86311 0.44871 0.0
C539 C 0.33321 0.8886 0.43766 0.0
C540 C 0.36693 0.88866 0.43887 0.0
C541 C 0.3277 0.84888 0.4568 0.0
N542 N 0.36337 0.86359 0.45086 0.0
C543 C 0.25359 0.87684 0.42154 0.0
C544 C 0.19215 0.80945 0.41077 0.0
C545 C 0.20718 0.8409 0.39999 0.0
C546 C 0.23837 0.87476 0.40553 0.0
C547 C 0.20815 0.81289 0.42691 0.0
N548 N 0.23952 0.84599 0.43193 0.0
H549 H 0.27529 0.90424 0.42584 0.0
H550 H 0.19409 0.78941 0.43556 0.0
H551 H 0.32875 0.90752 0.42978 0.0
H552 H 0.31642 0.8291 0.46723 0.0
O553 O 0.27821 0.90787 0.45606 0.0
O554 O 0.27916 0.87398 0.47776 0.0
O555 O 0.24023 0.79807 0.4585 0.0
C556 C 0.28795 0.90711 0.4716 0.0
H557 H 0.13915 0.8623 0.46421 0.0
H558 H 0.39238 0.90629 0.43166 0.0
H559 H 0.16725 0.78309 0.4071 0.0
H560 H 0.25043 0.89993 0.3977 0.0
Co561 Co 0.18202 0.4154 0.46243 0.0
C562 C 0.19944 0.35218 0.4689 0.0
C563 C 0.21492 0.39261 0.48908 0.0
C564 C 0.22374 0.36581 0.49401 0.0
N565 N 0.19919 0.38409 0.47348 0.0
N566 N 0.21409 0.34045 0.48143 0.0
H567 H 0.1894 0.33799 0.45684 0.0
H568 H 0.2202 0.41719 0.49637 0.0
C569 C 0.25247 0.48201 0.44925 0.0
O570 O 0.23255 0.48035 0.43579 0.0
N571 N 0.16589 0.44912 0.45281 0.0
C572 C 0.13798 0.44326 0.44178 0.0
C573 C 0.13676 0.47644 0.44024 0.0
C574 C 0.17999 0.48512 0.45821 0.0
N575 N 0.16355 0.50276 0.45049 0.0
C576 C 0.15027 0.37241 0.43233 0.0
C577 C 0.21649 0.39045 0.41554 0.0
C578 C 0.18169 0.37003 0.40685 0.0
C579 C 0.14838 0.35945 0.41592 0.0
C580 C 0.21703 0.40215 0.43236 0.0
N581 N 0.18422 0.39557 0.44009 0.0
H582 H 0.12382 0.36412 0.43858 0.0
H583 H 0.2439 0.41689 0.43895 0.0
H584 H 0.11928 0.41699 0.43541 0.0
H585 H 0.20217 0.49826 0.46769 0.0
O586 O 0.13016 0.37883 0.46737 0.0
O587 O 0.16726 0.42555 0.48463 0.0
O588 O 0.23708 0.45774 0.4612 0.0
C589 C 0.13379 0.39654 0.4814 0.0
H590 H 0.23746 0.36557 0.50576 0.0
H591 H 0.11812 0.48104 0.43199 0.0
H592 H 0.24305 0.39816 0.40935 0.0
H593 H 0.12064 0.34159 0.41031 0.0
H594 H 0.37021 0.40081 0.13062 0.0
H595 H 0.28477 0.40483 0.22118 0.0
H596 H 0.44057 0.46367 0.17298 0.0
H597 H 0.21827 0.3331 0.17974 0.0
H598 H 0.34127 0.43134 0.20333 0.0
H599 H 0.31373 0.38203 0.14769 0.0
C600 C 0.37365 0.41114 0.1435 0.0
C601 C 0.41009 0.43365 0.15043 0.0
C602 C 0.31432 0.40987 0.19813 0.0
C603 C 0.34537 0.41169 0.17026 0.0
C604 C 0.28194 0.39473 0.2083 0.0
C605 C 0.2465 0.36662 0.20198 0.0
C606 C 0.31141 0.39702 0.18142 0.0
C607 C 0.24489 0.35434 0.18525 0.0
C608 C 0.3414 0.40023 0.15328 0.0
C609 C 0.41299 0.4465 0.16714 0.0
N610 N 0.27679 0.36965 0.17558 0.0
N611 N 0.38102 0.43498 0.17657 0.0
H612 H 0.70261 0.92389 0.19832 0.0
H613 H 0.52605 0.93042 0.15637 0.0
H614 H 0.58661 0.83271 0.20168 0.0
H615 H 0.63736 0.02786 0.16239 0.0
H616 H 0.55038 0.89005 0.16734 0.0
H617 H 0.68168 0.95834 0.17991 0.0
C618 C 0.67282 0.91091 0.19503 0.0
C619 C 0.64628 0.87555 0.20175 0.0
C620 C 0.56971 0.92016 0.16592 0.0
C621 C 0.62205 0.91486 0.18069 0.0
C622 C 0.5559 0.94297 0.15948 0.0
C623 C 0.57994 0.98221 0.15841 0.0
C624 C 0.60781 0.93692 0.17131 0.0
C625 C 0.6182 0.99756 0.16296 0.0
C626 C 0.66084 0.93065 0.18458 0.0
C627 C 0.60795 0.86022 0.1971 0.0
N628 N 0.63093 0.97497 0.16934 0.0
N629 N 0.59698 0.88001 0.18695 0.0
H630 H 0.0709 0.64368 0.12563 0.0
H631 H 0.1171 0.73326 0.21817 0.0
H632 H 0.03636 0.57733 0.17135 0.0
H633 H 0.14764 0.79973 0.17252 0.0
H634 H 0.09876 0.67643 0.20133 0.0
H635 H 0.10983 0.70064 0.14243 0.0
C636 C 0.07204 0.64108 0.13924 0.0
C637 C 0.04994 0.60581 0.14714 0.0
C638 C 0.11006 0.70344 0.19495 0.0
C639 C 0.09428 0.67112 0.16655 0.0
C640 C 0.12062 0.73591 0.20457 0.0
C641 C 0.13349 0.77115 0.19669 0.0
C642 C 0.11198 0.706 0.17723 0.0
C643 C 0.13789 0.77314 0.17906 0.0
C644 C 0.09427 0.67363 0.14883 0.0
C645 C 0.05291 0.60393 0.16477 0.0
N646 N 0.12654 0.74089 0.16989 0.0
N647 N 0.07415 0.63623 0.17391 0.0
H648 H 0.38986 0.40971 0.87191 0.0
H649 H 0.4399 0.26643 0.82716 0.0
H650 H 0.5035 0.42915 0.86762 0.0
H651 H 0.32616 0.24746 0.83154 0.0
H652 H 0.46234 0.31977 0.84668 0.0
H653 H 0.3648 0.34416 0.86273 0.0
C654 C 0.40941 0.39954 0.86958 0.0
C655 C 0.44868 0.42455 0.87052 0.0
C656 C 0.43239 0.30373 0.84356 0.0
C657 C 0.42054 0.35018 0.85936 0.0
C658 C 0.41957 0.27339 0.83232 0.0
C659 C 0.38119 0.25296 0.82742 0.0
C660 C 0.40674 0.31407 0.84991 0.0
C661 C 0.35598 0.26256 0.83489 0.0
C662 C 0.3952 0.3623 0.86418 0.0
C663 C 0.47304 0.41048 0.86718 0.0
N664 N 0.36929 0.29279 0.84556 0.0
N665 N 0.4586 0.37437 0.86141 0.0
H666 H 0.75578 0.07318 0.80459 0.0
H667 H 0.58948 0.07372 0.85878 0.0
H668 H 0.76463 0.17375 0.82648 0.0
H669 H 0.604 0.97687 0.85346 0.0
H670 H 0.64364 0.10953 0.83957 0.0
H671 H 0.68995 0.03662 0.81478 0.0
C672 C 0.74332 0.08775 0.81098 0.0
C673 C 0.76546 0.12648 0.81467 0.0
C674 C 0.63443 0.08018 0.84234 0.0
C675 C 0.69067 0.08501 0.82658 0.0
C676 C 0.60344 0.05978 0.85316 0.0
C677 C 0.59251 0.02246 0.85767 0.0
C678 C 0.65413 0.06284 0.83582 0.0
C679 C 0.61178 1.00567 0.85029 0.0
C680 C 0.70599 0.06688 0.81698 0.0
C681 C 0.74832 0.14393 0.82337 0.0
N682 N 0.64171 0.02596 0.83982 0.0
N683 N 0.7121 0.12309 0.82915 0.0
H684 H 0.05114 0.61374 0.84996 0.0
H685 H 0.87402 0.62208 0.81043 0.0
H686 H 0.93602 0.52006 0.85121 0.0
H687 H 0.98805 0.71672 0.81271 0.0
H688 H 0.89768 0.58037 0.82035 0.0
H689 H 0.0302 0.64809 0.83163 0.0
C690 C 0.02157 0.60015 0.84623 0.0
C691 C 0.99527 0.56415 0.85242 0.0
C692 C 0.91766 0.61014 0.81833 0.0
C693 C 0.97088 0.60355 0.83149 0.0
C694 C 0.90417 0.63372 0.8125 0.0
C695 C 0.9292 0.6727 0.81086 0.0
C696 C 0.9564 0.62587 0.82249 0.0
C697 C 0.96795 0.68675 0.81394 0.0
C698 C 1.00954 0.61986 0.8358 0.0
C699 C 0.95719 0.54811 0.84714 0.0
N700 N 0.98031 0.66349 0.81978 0.0
N701 N 0.9461 0.56802 0.83714 0.0
H702 H 0.7403 0.67559 0.79306 0.0
H703 H 0.63809 0.62331 0.88156 0.0
H704 H 0.7989 0.73485 0.83857 0.0
H705 H 0.57647 0.61709 0.83592 0.0
H706 H 0.69758 0.6566 0.86593 0.0
H707 H 0.68022 0.64644 0.80845 0.0
C708 C 0.74053 0.68235 0.80633 0.0
C709 C 0.77464 0.70747 0.81462 0.0
C710 C 0.67106 0.64803 0.85935 0.0
C711 C 0.70605 0.67396 0.83225 0.0
C712 C 0.63706 0.62875 0.86819 0.0
C713 C 0.60227 0.6172 0.85996 0.0
C714 C 0.67034 0.65513 0.84204 0.0
C715 C 0.60269 0.62546 0.8427 0.0
C716 C 0.7062 0.66592 0.81503 0.0
C717 C 0.77323 0.71558 0.83175 0.0
N718 N 0.63627 0.6436 0.83422 0.0
N719 N 0.73948 0.69847 0.84008 0.0
H720 H 0.42472 0.96643 0.84175 0.0
H721 H 0.31929 0.08776 0.84319 0.0
H722 H 0.41909 0.02414 0.88639 0.0
H723 H 0.36226 0.0655 0.79746 0.0
H724 H 0.34821 0.05725 0.85958 0.0
H725 H 0.39456 0.9957 0.82541 0.0
C726 C 0.41726 0.98529 0.84809 0.0
C727 C 0.42468 0.99304 0.86542 0.0
C728 C 0.35125 0.05911 0.84595 0.0
C729 C 0.38965 0.02602 0.84694 0.0
C730 C 0.33466 0.07639 0.83662 0.0
C731 C 0.33857 0.07939 0.81897 0.0
C732 C 0.37127 0.0442 0.83752 0.0
C733 C 0.3588 0.06412 0.81107 0.0
C734 C 0.40007 1.00198 0.83878 0.0
C735 C 0.41423 0.01759 0.87302 0.0
N736 N 0.37422 0.0471 0.82036 0.0
N737 N 0.39709 0.033 0.86378 0.0
H738 H 0.03081 0.39691 0.88147 0.0
H739 H 0.96849 0.29504 0.79193 0.0
H740 H 0.06164 0.46081 0.83494 0.0
H741 H 0.97296 0.23884 0.83747 0.0
H742 H 1.00049 0.35574 0.80701 0.0
H743 H 1.00715 0.33871 0.86529 0.0
C744 C 0.03261 0.39871 0.86778 0.0
C745 C 0.04801 0.43382 0.85953 0.0
C746 C 0.99478 0.33017 0.81364 0.0
C747 C 0.02062 0.36677 0.84082 0.0
C748 C 0.97642 0.29549 0.80508 0.0
C749 C 0.96788 0.26177 0.81349 0.0
C750 C 1.00417 0.33109 0.83082 0.0
C751 C 0.97896 0.26408 0.83049 0.0
C752 C 0.01925 0.36537 0.85855 0.0
C753 C 0.04996 0.43433 0.84179 0.0
N754 N 0.99616 0.29805 0.83862 0.0
N755 N 0.036 0.40119 0.83298 0.0
H756 H 0.66957 0.6994 0.22772 0.0
H757 H 0.57906 0.60188 0.13937 0.0
H758 H 0.69288 0.76242 0.18115 0.0
H759 H 0.59683 0.5403 0.17945 0.0
H760 H 0.61248 0.65968 0.15602 0.0
H761 H 0.63607 0.64026 0.21163 0.0
C762 C 0.66766 0.70082 0.21408 0.0
C763 C 0.68402 0.736 0.20576 0.0
C764 C 0.60899 0.63355 0.16123 0.0
C765 C 0.64515 0.66818 0.1873 0.0
C766 C 0.58957 0.6003 0.1518 0.0
C767 C 0.58497 0.56591 0.158 0.0
C768 C 0.62367 0.63271 0.1772 0.0
C769 C 0.59953 0.56603 0.17418 0.0
C770 C 0.64862 0.66699 0.20492 0.0
C771 C 0.6808 0.736 0.18807 0.0
N772 N 0.61815 0.59892 0.18326 0.0
N773 N 0.66143 0.70263 0.17945 0.0
H774 H 0.23609 0.94616 0.17 0.0
H775 H 0.46289 0.06491 0.1775 0.0
H776 H 0.297 0.95761 0.21654 0.0
H777 H 0.40582 1.01059 0.13095 0.0
H778 H 0.40099 0.0356 0.19172 0.0
H779 H 0.29727 0.97873 0.15498 0.0
C780 C 0.26221 0.95536 0.17702 0.0
C781 C 0.26139 0.94883 0.1945 0.0
C782 C 0.4021 0.03029 0.17836 0.0
C783 C 0.33116 0.98679 0.17759 0.0
C784 C 0.43734 0.04717 0.17025 0.0
C785 C 0.43947 0.03996 0.15307 0.0
C786 C 0.36875 1.00664 0.16915 0.0
C787 C 0.40545 0.01662 0.14427 0.0
C788 C 0.29703 0.97395 0.16848 0.0
C789 C 0.29616 0.96162 0.20302 0.0
N790 N 0.3715 1.00086 0.15238 0.0
N791 N 0.32951 0.98015 0.19453 0.0
H792 H 0.04498 0.33941 0.2214 0.0
H793 H 0.03327 0.42616 0.13228 0.0
H794 H 0.08215 0.31389 0.17477 0.0
H795 H 0.96828 0.42349 0.17575 0.0
H796 H 0.05712 0.39111 0.14831 0.0
H797 H 0.02189 0.37521 0.2055 0.0
C798 C 0.04829 0.3413 0.20777 0.0
C799 C 0.06562 0.32356 0.19941 0.0
C800 C 0.03777 0.39829 0.15438 0.0
C801 C 0.03935 0.36509 0.18108 0.0
C802 C 0.02429 0.41861 0.14529 0.0
C803 C 0.99872 0.42798 0.15268 0.0
C804 C 0.02599 0.38741 0.17112 0.0
C805 C 0.98802 0.41706 0.16954 0.0
C806 C 0.03498 0.36175 0.1987 0.0
C807 C 0.06889 0.32695 0.18173 0.0
N808 N 1.00173 0.39743 0.17819 0.0
N809 N 0.05611 0.34752 0.17316 0.0
H810 H 0.13146 0.75674 0.49074 0.0
H811 H 0.951 0.74951 0.53489 0.0
H812 H 0.11144 0.85098 0.49147 0.0
H813 H 0.96242 0.65188 0.52569 0.0
H814 H 1.01629 0.79042 0.52459 0.0
H815 H 0.07609 0.72123 0.50887 0.0
C816 C 0.11575 0.77017 0.49488 0.0
C817 C 0.12586 0.80672 0.48935 0.0
C818 C 1.00478 0.76009 0.52515 0.0
C819 C 0.06219 0.76613 0.51006 0.0
C820 C 0.96781 0.73694 0.53118 0.0
C821 C 0.95171 0.69753 0.53108 0.0
C822 C 0.02554 0.74348 0.51907 0.0
C823 C 0.97411 0.68225 0.5259 0.0
C824 C 0.084 0.74982 0.50518 0.0
C825 C 0.10422 0.82258 0.49509 0.0
N826 N 1.00974 0.70518 0.51997 0.0
N827 N 0.0733 0.80213 0.50502 0.0
H828 H 0.26415 0.33391 0.46155 0.0
H829 H 0.28596 0.20418 0.53175 0.0
H830 H 0.18724 0.28196 0.50306 0.0
H831 H 0.37562 0.28223 0.49914 0.0
H832 H 0.24065 0.21556 0.51557 0.0
H833 H 0.29547 0.29765 0.46909 0.0
C834 C 0.25281 0.31349 0.47175 0.0
C835 C 0.22305 0.3106 0.48166 0.0
C836 C 0.27009 0.22949 0.5117 0.0
C837 C 0.25915 0.27001 0.49073 0.0
C838 C 0.29576 0.22275 0.52085 0.0
C839 C 0.33442 0.24253 0.51678 0.0
C840 C 0.28331 0.25592 0.49834 0.0
C841 C 0.34599 0.26671 0.50269 0.0
C842 C 0.27094 0.29322 0.47623 0.0
C843 C 0.20997 0.2846 0.49509 0.0
N844 N 0.32068 0.27302 0.49409 0.0
N845 N 0.2284 0.26571 0.4994 0.0
H846 H 0.71765 0.92769 0.47397 0.0
H847 H 0.79618 0.07544 0.54932 0.0
H848 H 0.73152 0.89763 0.52481 0.0
H849 H 0.81276 0.1091 0.49682 0.0
H850 H 0.77663 1.01064 0.54056 0.0
H851 H 0.75675 0.99472 0.48156 0.0
C852 C 0.7296 0.93514 0.4866 0.0
C853 C 0.7207 0.90704 0.49886 0.0
C854 C 0.78503 0.03235 0.53097 0.0
C855 C 0.76468 0.98355 0.50777 0.0
C856 C 0.79637 0.06941 0.53599 0.0
C857 C 0.80536 0.09764 0.52379 0.0
C858 C 0.78238 0.02345 0.51362 0.0
C859 C 0.80495 0.08804 0.50665 0.0
C860 C 0.75172 0.97342 0.49098 0.0
C861 C 0.73684 0.91841 0.51509 0.0
N862 N 0.79307 0.05173 0.50207 0.0
N863 N 0.75746 0.95571 0.51915 0.0
H864 H 0.33531 0.08394 0.54237 0.0
H865 H 0.3337 0.97718 0.4588 0.0
H866 H 0.42047 0.1407 0.50391 0.0
H867 H 0.28828 0.91879 0.50597 0.0
H868 H 0.36221 0.03775 0.4738 0.0
H869 H 0.31312 0.02422 0.52771 0.0
C870 C 0.34923 0.08402 0.53071 0.0
C871 C 0.37983 0.11764 0.52433 0.0
C872 C 0.34637 0.01172 0.4809 0.0
C873 C 0.35426 0.04863 0.50746 0.0
C874 C 0.32999 0.97714 0.47238 0.0
C875 C 0.30844 0.94295 0.48119 0.0
C876 C 0.3405 0.01225 0.49832 0.0
C877 C 0.30474 0.94449 0.49874 0.0
C878 C 0.33665 0.04966 0.52245 0.0
C879 C 0.3967 0.11557 0.50923 0.0
N880 N 0.32017 0.97866 0.50671 0.0
N881 N 0.38351 0.0816 0.50122 0.0
H882 H 0.12847 0.39574 0.51633 0.0
H883 H 0.90136 0.29986 0.51401 0.0
H884 H 0.06215 0.37 0.47045 0.0
H885 H 0.96123 0.28485 0.55581 0.0
H886 H 0.96215 0.33828 0.49958 0.0
H887 H 0.06905 0.36771 0.53281 0.0
C888 C 0.10152 0.38481 0.50979 0.0
C889 C 0.10002 0.38482 0.49206 0.0
C890 C 0.96195 0.32672 0.51196 0.0
C891 C 0.03256 0.35326 0.51062 0.0
C892 C 0.92729 0.30485 0.52019 0.0
C893 C 0.92621 0.28879 0.53603 0.0
C894 C 0.99583 0.33301 0.51972 0.0
C895 C 0.96075 0.29632 0.5435 0.0
C896 C 0.06772 0.36864 0.51914 0.0
C897 C 0.06445 0.37013 0.48412 0.0
N898 N 0.99416 0.31785 0.53528 0.0
N899 N 0.03222 0.35497 0.49343 0.0
H900 H 0.79542 0.70356 0.54011 0.0
H901 H 0.60375 0.67302 0.50131 0.0
H902 H 0.70934 0.58992 0.52663 0.0
H903 H 0.7121 0.76003 0.48252 0.0
H904 H 0.63657 0.64443 0.51648 0.0
H905 H 0.75957 0.728 0.5249 0.0
C906 C 0.76889 0.68378 0.53397 0.0
C907 C 0.75539 0.64475 0.53446 0.0
C908 C 0.65288 0.66971 0.50895 0.0
C909 C 0.71392 0.67241 0.51752 0.0
C910 C 0.63431 0.68605 0.50042 0.0
C911 C 0.65531 0.71875 0.49063 0.0
C912 C 0.69261 0.68709 0.50807 0.0
C913 C 0.69484 0.73462 0.48983 0.0
C914 C 0.74856 0.69772 0.52531 0.0
C915 C 0.72082 0.62027 0.52634 0.0
N916 N 0.71225 0.71894 0.49859 0.0
N917 N 0.70095 0.63449 0.51829 0.0
H918 H 0.20555 0.32855 0.29976 0.0
H919 H 0.13061 0.36784 0.38364 0.0
H920 H 0.0862 0.27041 0.31219 0.0
H921 H 0.22693 0.35084 0.38768 0.0
H922 H 0.12113 0.34566 0.35459 0.0
H923 H 0.2206 0.34763 0.32959 0.0
C924 C 0.18249 0.31932 0.30868 0.0
C925 C 0.14437 0.29829 0.30322 0.0
C926 C 0.1443 0.34671 0.36185 0.0
C927 C 0.16168 0.32111 0.33715 0.0
C928 C 0.1497 0.35916 0.37853 0.0
C929 C 0.17893 0.36011 0.38848 0.0
C930 C 0.16883 0.336 0.35468 0.0
C931 C 0.20383 0.35034 0.38062 0.0
C932 C 0.19122 0.33043 0.32567 0.0
C933 C 0.11592 0.28764 0.3155 0.0
N934 N 0.19822 0.33862 0.36412 0.0
N935 N 0.12513 0.29967 0.33175 0.0
H936 H 0.64482 0.79289 0.30626 0.0
H937 H 0.71669 0.88266 0.39837 0.0
H938 H 0.75297 0.89397 0.31451 0.0
H939 H 0.60459 0.7893 0.38732 0.0
H940 H 0.73058 0.88937 0.36794 0.0
H941 H 0.62942 0.79335 0.33598 0.0
C942 C 0.66534 0.81528 0.31436 0.0
C943 C 0.70042 0.84319 0.30793 0.0
C944 C 0.70283 0.86771 0.3722 0.0
C945 C 0.68297 0.84394 0.34219 0.0
C946 C 0.69491 0.86375 0.38958 0.0
C947 C 0.65934 0.83541 0.39551 0.0
C948 C 0.6751 0.84294 0.36065 0.0
C949 C 0.63218 0.81197 0.38346 0.0
C950 C 0.65648 0.81563 0.33136 0.0
C951 C 0.72562 0.87192 0.31896 0.0
N952 N 0.64072 0.81612 0.3667 0.0
N953 N 0.71659 0.87135 0.33561 0.0
H954 H 0.15272 0.8102 0.29332 0.0
H955 H 0.18695 0.89064 0.38783 0.0
H956 H 0.16454 0.91778 0.30742 0.0
H957 H 0.18853 0.78917 0.37429 0.0
H958 H 0.1678 0.89486 0.35898 0.0
H959 H 0.15606 0.79665 0.32327 0.0
C960 C 0.15586 0.83092 0.30269 0.0
C961 C 0.15875 0.8654 0.29778 0.0
C962 C 0.17198 0.87143 0.36229 0.0
C963 C 0.16209 0.84978 0.33209 0.0
C964 C 0.18292 0.86904 0.37875 0.0
C965 C 0.18992 0.83987 0.38332 0.0
C966 C 0.16824 0.8446 0.3502 0.0
C967 C 0.18356 0.81218 0.37121 0.0
C968 C 0.15753 0.82303 0.31979 0.0
C969 C 0.16189 0.89072 0.31053 0.0
N970 N 0.17355 0.8155 0.35509 0.0
N971 N 0.16377 0.88252 0.32705 0.0
H972 H 0.37229 0.2558 0.63043 0.0
H973 H 0.30215 0.11231 0.70815 0.0
H974 H 0.37276 0.15025 0.63191 0.0
H975 H 0.34969 0.23204 0.71701 0.0
H976 H 0.31622 0.12498 0.67821 0.0
H977 H 0.35553 0.24778 0.66074 0.0
C978 C 0.36901 0.23111 0.63707 0.0
C979 C 0.37312 0.20323 0.62846 0.0
C980 C 0.3236 0.14857 0.68666 0.0
C981 C 0.35346 0.19374 0.66278 0.0
C982 C 0.31559 0.14136 0.70377 0.0
C983 C 0.32556 0.17124 0.71516 0.0
C984 C 0.34156 0.18598 0.68071 0.0
C985 C 0.34177 0.20821 0.70865 0.0
C986 C 0.35932 0.22652 0.65429 0.0
C987 C 0.36863 0.17187 0.63775 0.0
N988 N 0.34961 0.21467 0.69179 0.0
N989 N 0.35876 0.16789 0.65427 0.0
H990 H 0.79694 0.14364 0.72111 0.0
H991 H 0.88567 0.17923 0.62888 0.0
H992 H 0.90073 0.14398 0.71 0.0
H993 H 0.76653 0.13933 0.63683 0.0
H994 H 0.89234 0.1692 0.65873 0.0
H995 H 0.78602 0.14555 0.69059 0.0
C996 C 0.81731 0.14394 0.71225 0.0
C997 C 0.84973 0.14353 0.71812 0.0
C998 C 0.86465 0.16233 0.65392 0.0
C999 C 0.83762 0.14606 0.68326 0.0
C1000 C 0.86064 0.16772 0.63674 0.0
C1001 C 0.82535 0.16001 0.63007 0.0
C1002 C 0.83338 0.14968 0.66474 0.0
C1003 C 0.79446 0.14629 0.6413 0.0
C1004 C 0.81098 0.14485 0.69486 0.0
C1005 C 0.87512 0.14379 0.70607 0.0
N1006 N 0.79926 0.14188 0.65807 0.0
N1007 N 0.8687 0.14538 0.68926 0.0
H1008 H 0.85496 0.64321 0.72203 0.0
H1009 H 0.92296 0.71428 0.62723 0.0
H1010 H 0.93246 0.76028 0.70989 0.0
H1011 H 0.83149 0.60315 0.64077 0.0
H1012 H 0.93417 0.7304 0.65743 0.0
H1013 H 0.85488 0.62649 0.69241 0.0
C1014 C 0.87231 0.66537 0.71312 0.0
C1015 C 0.89336 0.70325 0.71839 0.0
C1016 C 0.91193 0.70239 0.65372 0.0
C1017 C 0.89317 0.68437 0.6843 0.0
C1018 C 0.90535 0.69319 0.63648 0.0
C1019 C 0.87627 0.65718 0.6313 0.0
C1020 C 0.88936 0.67537 0.6659 0.0
C1021 C 0.85476 0.63097 0.64397 0.0
C1022 C 0.87221 0.65584 0.69619 0.0
C1023 C 0.91583 0.73072 0.70635 0.0
N1024 N 0.86168 0.64062 0.66057 0.0
N1025 N 0.9148 0.72082 0.6898 0.0
H1026 H 0.92694 0.44426 0.03862 0.0
H1027 H 0.0711 0.5803 0.96762 0.0
H1028 H 0.02363 0.55409 0.04971 0.0
H1029 H 0.98059 0.46602 0.95844 0.0
H1030 H 0.04968 0.5749 0.99704 0.0
H1031 H 0.94173 0.45542 1.00855 0.0
C1032 C 0.95102 0.47096 0.03473 0.0
C1033 C 0.97418 0.49818 0.04676 0.0
C1034 C 0.03437 0.55112 0.98854 0.0
C1035 C 0.99167 0.51097 0.01224 0.0
C1036 C 0.04645 0.5543 0.97175 0.0
C1037 C 0.02788 0.5234 0.96067 0.0
C1038 C 1.00338 0.5169 0.9942 0.0
C1039 C 0.99617 0.49028 0.96666 0.0
C1040 C 0.95962 0.47722 0.01753 0.0
C1041 C 1.00534 0.53204 0.04091 0.0
N1042 N 0.98508 0.48785 0.98301 0.0
N1043 N 1.01328 0.5374 0.02409 0.0
H1044 H 0.46653 0.43804 0.04684 0.0
H1045 H 0.54407 0.57809 0.96729 0.0
H1046 H 0.56908 0.5473 0.0464 0.0
H1047 H 0.45435 0.46199 0.96199 0.0
H1048 H 0.54782 0.5679 0.99735 0.0
H1049 H 0.45719 0.44604 0.01664 0.0
C1050 C 0.48713 0.46359 0.04043 0.0
C1051 C 0.51844 0.49224 0.04929 0.0
C1052 C 0.52722 0.54449 0.98971 0.0
C1053 C 0.50761 0.50169 0.01489 0.0
C1054 C 0.52508 0.55033 0.97251 0.0
C1055 C 0.49931 0.52065 0.96208 0.0
C1056 C 0.50342 0.50862 0.99673 0.0
C1057 C 0.47472 0.48555 0.96962 0.0
C1058 C 0.48163 0.46819 0.02323 0.0
C1059 C 0.54403 0.52481 0.04031 0.0
N1060 N 0.47757 0.48034 0.98653 0.0
N1061 N 0.53796 0.52862 0.02372 0.0
H1062 H 0.47688 0.98479 0.05972 0.0
H1063 H 0.56353 0.02547 0.96646 0.0
H1064 H 0.59611 0.06039 0.05014 0.0
H1065 H 0.4518 0.93382 0.97892 0.0
H1066 H 0.57599 0.04079 0.99668 0.0
H1067 H 0.46736 0.96755 0.02997 0.0
C1068 C 0.50132 0.99743 0.05147 0.0
C1069 C 0.53756 0.02387 0.05767 0.0
C1070 C 0.54885 0.0172 0.99279 0.0
C1071 C 0.52636 1.0048 0.02312 0.0
C1072 C 0.54164 1.00856 0.97554 0.0
C1073 C 0.50655 0.97827 0.97011 0.0
C1074 C 0.52063 0.99569 1.00471 0.0
C1075 C 0.47941 0.95711 0.98248 0.0
C1076 C 0.4957 0.98772 0.03435 0.0
C1077 C 0.56762 0.0401 0.04602 0.0
N1078 N 0.48694 0.96635 0.99913 0.0
N1079 N 0.56134 0.03039 0.02931 0.0
H1080 H 0.22238 0.07734 0.25428 0.0
H1081 H 0.14057 0.19029 0.20305 0.0
H1082 H 0.18825 0.05038 0.20191 0.0
H1083 H 0.13383 0.17354 0.25714 0.0
H1084 H 0.16918 0.14939 0.20075 0.0
H1085 H 0.20316 0.12449 0.25357 0.0
C1086 C 0.21149 0.08153 0.24248 0.0
C1087 C 0.20686 0.05918 0.22814 0.0
C1088 C 0.16145 0.15491 0.21308 0.0
C1089 C 0.18383 0.11364 0.22744 0.0
C1090 C 0.14533 0.17829 0.2144 0.0
C1091 C 0.13454 0.18509 0.2303 0.0
C1092 C 0.16756 0.13918 0.2278 0.0
C1093 C 0.14126 0.16881 0.2446 0.0
C1094 C 0.20007 0.10847 0.24217 0.0
C1095 C 0.19192 0.06637 0.21336 0.0
N1096 N 0.15738 0.14687 0.24301 0.0
N1097 N 0.18074 0.09285 0.2134 0.0
H1098 H 0.79326 0.95237 0.21874 0.0
H1099 H 1.01089 0.11688 0.23082 0.0
H1100 H 0.87735 0.93773 0.24577 0.0
H1101 H 0.92095 0.14 0.21915 0.0
H1102 H 0.96421 0.04886 0.23093 0.0
H1103 H 0.84157 0.01913 0.21369 0.0
C1104 C 0.82189 0.96305 0.22345 0.0
C1105 C 0.83114 0.93951 0.23284 0.0
C1106 C 0.95474 0.06882 0.22821 0.0
C1107 C 0.88654 0.01555 0.22698 0.0
C1108 C 0.98145 0.10763 0.228 0.0
C1109 C 0.96982 0.13424 0.2251 0.0
C1110 C 0.91609 0.05636 0.22528 0.0
C1111 C 0.93111 0.12054 0.22169 0.0
C1112 C 0.84939 1.00114 0.22063 0.0
C1113 C 0.86874 0.95491 0.23866 0.0
N1114 N 0.90567 0.08266 0.22191 0.0
N1115 N 0.89493 0.99178 0.23565 0.0
H1116 H 0.86596 0.77592 0.23306 0.0
H1117 H 0.06644 0.96297 0.22307 0.0
H1118 H 0.8792 0.8858 0.22296 0.0
H1119 H 0.05267 0.85129 0.21912 0.0
H1120 H 0.99761 0.93476 0.22266 0.0
H1121 H 0.93392 0.80217 0.2278 0.0
C1122 C 0.88311 0.80547 0.22962 0.0
C1123 C 0.86693 0.82872 0.22851 0.0
C1124 C 1.00957 0.91638 0.22171 0.0
C1125 C 0.94453 0.85895 0.22255 0.0
C1126 C 0.04891 0.93248 0.22198 0.0
C1127 C 0.06533 0.90943 0.22127 0.0
C1128 C 0.98634 0.87684 0.22099 0.0
C1129 C 0.04121 0.87012 0.21973 0.0
C1130 C 0.92181 0.82038 0.22653 0.0
C1131 C 0.89035 0.86674 0.22382 0.0
N1132 N 1.00286 0.85499 0.21987 0.0
N1133 N 0.928 0.88074 0.22121 0.0
H1134 H 0.08602 0.22843 0.77334 0.0
H1135 H 0.1516 0.07622 0.78094 0.0
H1136 H 1.00838 0.11239 0.78692 0.0
H1137 H 0.22987 0.19448 0.7903 0.0
H1138 H 0.09884 0.08884 0.78154 0.0
H1139 H 0.13932 0.21703 0.77749 0.0
C1140 C 0.0802 0.20054 0.77716 0.0
C1141 C 0.04265 0.17124 0.7797 0.0
C1142 C 0.12744 0.11201 0.78371 0.0
C1143 C 0.1035 0.15799 0.78443 0.0
C1144 C 0.15754 0.10482 0.78339 0.0
C1145 C 0.19503 0.13433 0.78571 0.0
C1146 C 0.13486 0.14925 0.78586 0.0
C1147 C 0.20128 0.17091 0.78868 0.0
C1148 C 0.11063 0.19416 0.77968 0.0
C1149 C 0.03683 0.13579 0.78489 0.0
N1150 N 0.17152 0.17749 0.7884 0.0
N1151 N 0.06682 0.13004 0.78688 0.0
H1152 H 0.91771 0.06714 0.78334 0.0
H1153 H 0.79912 0.84547 0.79979 0.0
H1154 H 0.80618 0.01495 0.80557 0.0
H1155 H 0.86662 0.89136 0.75494 0.0
H1156 H 0.80957 0.90879 0.80672 0.0
H1157 H 0.90865 1.00382 0.7779 0.0
C1158 C 0.89171 0.04239 0.78741 0.0
C1159 C 0.86263 0.04614 0.79494 0.0
C1160 C 0.82189 0.9049 0.79532 0.0
C1161 C 0.85221 0.97413 0.78877 0.0
C1162 C 0.81584 0.86896 0.79137 0.0
C1163 C 0.83156 0.86341 0.77668 0.0
C1164 C 0.84482 0.93562 0.78476 0.0
C1165 C 0.85349 0.89459 0.7662 0.0
C1166 C 0.88641 1.0064 0.78413 0.0
C1167 C 0.82925 0.01318 0.79974 0.0
N1168 N 0.85984 0.92957 0.77054 0.0
N1169 N 0.82498 0.97851 0.79663 0.0
H1170 H 0.16115 0.9772 0.7556 0.0
H1171 H 0.97153 0.85134 0.80641 0.0
H1172 H 0.15478 0.99761 0.80868 0.0
H1173 H 0.97354 0.87572 0.75307 0.0
H1174 H 0.03908 0.89987 0.80835 0.0
H1175 H 0.09283 0.93357 0.75514 0.0
C1176 C 0.14531 0.97217 0.76721 0.0
C1177 C 0.16358 0.99069 0.78224 0.0
C1178 C 0.02446 0.89473 0.7963 0.0
C1179 C 0.08527 0.94094 0.7818 0.0
C1180 C 0.98603 0.86707 0.79516 0.0
C1181 C 0.96691 0.85932 0.77953 0.0
C1182 C 0.04388 0.91412 0.78164 0.0
C1183 C 0.98705 0.88061 0.76537 0.0
C1184 C 0.10629 0.94759 0.7669 0.0
C1185 C 0.1416 0.98379 0.79686 0.0
N1186 N 0.0245 0.90667 0.76673 0.0
N1187 N 0.10348 0.95908 0.79634 0.0
H1188 H 0.91099 0.55579 0.56365 0.0
H1189 H 0.79137 0.33033 0.5714 0.0
H1190 H 0.789 0.49132 0.55807 0.0
H1191 H 0.90938 0.39759 0.58556 0.0
H1192 H 0.78992 0.38846 0.56552 0.0
H1193 H 0.91119 0.49752 0.5701 0.0
C1194 C 0.88421 0.52934 0.56365 0.0
C1195 C 0.84989 0.52851 0.56032 0.0
C1196 C 0.81607 0.39053 0.57002 0.0
C1197 C 0.84997 0.46153 0.56785 0.0
C1198 C 0.81692 0.35739 0.57336 0.0
C1199 C 0.85059 0.35917 0.57892 0.0
C1200 C 0.84925 0.42576 0.5721 0.0
C1201 C 0.88277 0.39493 0.58144 0.0
C1202 C 0.88436 0.49606 0.56745 0.0
C1203 C 0.81613 0.49332 0.56053 0.0
N1204 N 0.88139 0.42682 0.57788 0.0
N1205 N 0.81702 0.46122 0.56425 0.0
H1206 H 0.67041 0.48026 0.6046 0.0
H1207 H 0.52131 0.31458 0.54386 0.0
H1208 H 0.67367 0.48877 0.55015 0.0
H1209 H 0.53994 0.29695 0.59613 0.0
H1210 H 0.57262 0.38058 0.54628 0.0
H1211 H 0.61708 0.41512 0.60221 0.0
C1212 C 0.65965 0.46852 0.59217 0.0
C1213 C 0.67662 0.48979 0.57756 0.0
C1214 C 0.56549 0.36217 0.55719 0.0
C1215 C 0.61587 0.41546 0.57469 0.0
C1216 C 0.53624 0.32451 0.55581 0.0
C1217 C 0.52638 0.30011 0.56978 0.0
C1218 C 0.5847 0.37566 0.57271 0.0
C1219 C 0.54665 0.31461 0.58499 0.0
C1220 C 0.62947 0.4313 0.59079 0.0
C1221 C 0.66178 0.47313 0.56173 0.0
N1222 N 0.57468 0.35142 0.58606 0.0
N1223 N 0.63227 0.437 0.56071 0.0
H1224 H 0.7332 0.24152 0.55454 0.0
H1225 H 0.51036 0.104 0.57042 0.0
H1226 H 0.68099 0.12053 0.56104 0.0
H1227 H 0.55997 0.2221 0.55741 0.0
H1228 H 0.57304 0.10993 0.5679 0.0
H1229 H 0.67029 0.23542 0.55613 0.0
C1230 C 0.70855 0.21366 0.55623 0.0
C1231 C 0.71248 0.1815 0.55766 0.0
C1232 C 0.57019 0.13453 0.56554 0.0
C1233 C 0.64034 0.17434 0.55962 0.0
C1234 C 0.53441 0.13117 0.56706 0.0
C1235 C 0.52976 0.16251 0.56405 0.0
C1236 C 0.60173 0.16959 0.5611 0.0
C1237 C 0.562 0.19701 0.55958 0.0
C1238 C 0.67261 0.2102 0.55715 0.0
C1239 C 0.67944 0.14615 0.55987 0.0
N1240 N 0.59654 0.19963 0.5583 0.0
N1241 N 0.64488 0.14356 0.56084 0.0
H1242 H 0.8817 0.52189 0.12423 0.0
H1243 H 0.66164 0.45842 0.13275 0.0
H1244 H 0.78991 0.40608 0.1264 0.0
H1245 H 0.74551 0.57113 0.11704 0.0
H1246 H 0.71105 0.44191 0.13505 0.0
H1247 H 0.83486 0.54319 0.12584 0.0
C1248 C 0.85182 0.50101 0.12524 0.0
C1249 C 0.83965 0.46214 0.12508 0.0
C1250 C 0.71883 0.47038 0.1312 0.0
C1251 C 0.78622 0.48622 0.12698 0.0
C1252 C 0.69057 0.48002 0.13005 0.0
C1253 C 0.69933 0.5164 0.12477 0.0
C1254 C 0.75643 0.49718 0.12707 0.0
C1255 C 0.73743 0.54272 0.12105 0.0
C1256 C 0.82514 0.51316 0.12605 0.0
C1257 C 0.8006 0.43631 0.12632 0.0
N1258 N 0.76462 0.5326 0.12224 0.0
N1259 N 0.77541 0.44879 0.12721 0.0
H1260 H 0.52397 0.20086 0.13882 0.0
H1261 H 0.5907 0.3941 0.08916 0.0
H1262 H 0.53086 0.20869 0.08439 0.0
H1263 H 0.54154 0.37426 0.13905 0.0
H1264 H 0.57664 0.32852 0.08824 0.0
H1265 H 0.53745 0.26648 0.14012 0.0
C1266 C 0.52841 0.21647 0.12715 0.0
C1267 C 0.52638 0.19939 0.11146 0.0
C1268 C 0.56894 0.33852 0.09939 0.0
C1269 C 0.54204 0.27444 0.11287 0.0
C1270 C 0.57716 0.37605 0.09999 0.0
C1271 C 0.56727 0.38976 0.11422 0.0
C1272 C 0.55117 0.31451 0.11321 0.0
C1273 C 0.5496 0.36488 0.12782 0.0
C1274 C 0.53588 0.25379 0.1279 0.0
C1275 C 0.5319 0.22072 0.09671 0.0
N1276 N 0.54226 0.32849 0.12701 0.0
N1277 N 0.5398 0.25724 0.09778 0.0
H1278 H 0.68457 0.11915 0.12837 0.0
H1279 H 0.8121 0.34452 0.1372 0.0
H1280 H 0.63653 0.19066 0.13771 0.0
H1281 H 0.85213 0.27326 0.11655 0.0
H1282 H 0.74962 0.28823 0.14171 0.0
H1283 H 0.74766 0.17494 0.12817 0.0
C1284 C 0.68722 0.14659 0.13047 0.0
C1285 C 0.65499 0.15012 0.13294 0.0
C1286 C 0.77219 0.2849 0.13633 0.0
C1287 C 0.72775 0.21454 0.13273 0.0
C1288 C 0.80796 0.31697 0.1339 0.0
C1289 C 0.8374 0.31355 0.12647 0.0
C1290 C 0.7659 0.24912 0.13144 0.0
C1291 C 0.83019 0.27719 0.12218 0.0
C1292 C 0.7234 0.17852 0.13032 0.0
C1293 C 0.66051 0.18657 0.13569 0.0
N1294 N 0.79524 0.24648 0.1247 0.0
N1295 N 0.6962 0.2174 0.13545 0.0
H1296 H 0.40837 0.78645 0.89393 0.0
H1297 H 0.58616 0.75791 0.90837 0.0
H1298 H 0.52252 0.88188 0.89575 0.0
H1299 H 0.47809 0.67177 0.88854 0.0
H1300 H 0.56403 0.80409 0.90616 0.0
H1301 H 0.43395 0.74383 0.89409 0.0
C1302 C 0.4389 0.79843 0.89426 0.0
C1303 C 0.46336 0.83772 0.89482 0.0
C1304 C 0.54545 0.77511 0.90216 0.0
C1305 C 0.49295 0.789 0.89523 0.0
C1306 C 0.55797 0.74885 0.90349 0.0
C1307 C 0.53411 0.71115 0.89845 0.0
C1308 C 0.50862 0.76318 0.89606 0.0
C1309 C 0.49776 0.70067 0.89225 0.0
C1310 C 0.45352 0.77409 0.89433 0.0
C1311 C 0.50271 0.85172 0.8952 0.0
N1312 N 0.48612 0.72643 0.89133 0.0
N1313 N 0.51636 0.82731 0.89557 0.0
H1314 H 0.33738 0.81462 0.87635 0.0
H1315 H 0.15924 0.64935 0.92161 0.0
H1316 H 0.27706 0.83504 0.91599 0.0
H1317 H 0.18321 0.63758 0.86962 0.0
H1318 H 0.20502 0.71711 0.92019 0.0
H1319 H 0.28395 0.75006 0.87359 0.0
C1320 C 0.31296 0.80606 0.88434 0.0
C1321 C 0.31253 0.83077 0.89668 0.0
C1322 C 0.20004 0.69992 0.909 0.0
C1323 C 0.25128 0.75607 0.89369 0.0
C1324 C 0.17398 0.6612 0.90982 0.0
C1325 C 0.16742 0.63789 0.8957 0.0
C1326 C 0.22066 0.71554 0.89408 0.0
C1327 C 0.18729 0.6547 0.88074 0.0
C1328 C 0.28238 0.76895 0.88274 0.0
C1329 C 0.27962 0.81723 0.90661 0.0
N1330 N 0.21354 0.69249 0.88038 0.0
N1331 N 0.25077 0.78082 0.90508 0.0
H1332 H 0.41839 0.62222 0.91255 0.0
H1333 H 0.21005 0.47145 0.88369 0.0
H1334 H 0.3955 0.53236 0.87737 0.0
H1335 H 0.23836 0.58321 0.90014 0.0
H1336 H 0.27773 0.49207 0.88241 0.0
H1337 H 0.35248 0.60766 0.90942 0.0
C1338 C 0.39953 0.59953 0.90413 0.0
C1339 C 0.4123 0.57825 0.89531 0.0
C1340 C 0.26922 0.51224 0.88613 0.0
C1341 C 0.337 0.56133 0.89179 0.0
C1342 C 0.23067 0.50043 0.88694 0.0
C1343 C 0.21881 0.52567 0.89212 0.0
C1344 C 0.29613 0.54937 0.89089 0.0
C1345 C 0.24653 0.56304 0.89603 0.0
C1346 C 0.36203 0.59141 0.90228 0.0
C1347 C 0.38681 0.54944 0.88442 0.0
N1348 N 0.28401 0.57368 0.89558 0.0
N1349 N 0.35024 0.5415 0.88314 0.0
H1350 H 0.57791 0.8837 0.47511 0.0
H1351 H 0.35431 0.79603 0.46122 0.0
H1352 H 0.50139 0.7634 0.46973 0.0
H1353 H 0.43857 0.91316 0.45327 0.0
H1354 H 0.40529 0.78296 0.46906 0.0
H1355 H 0.52442 0.89417 0.47225 0.0
C1356 C 0.54976 0.85936 0.47345 0.0
C1357 C 0.54425 0.82261 0.47247 0.0
C1358 C 0.41249 0.81152 0.46567 0.0
C1359 C 0.48256 0.83457 0.46908 0.0
C1360 C 0.38348 0.819 0.4613 0.0
C1361 C 0.39237 0.85567 0.45648 0.0
C1362 C 0.45046 0.84109 0.46544 0.0
C1363 C 0.43056 0.88442 0.45666 0.0
C1364 C 0.51918 0.86542 0.47178 0.0
C1365 C 0.50696 0.79222 0.47051 0.0
N1366 N 0.45811 0.87652 0.46106 0.0
N1367 N 0.47748 0.79889 0.46874 0.0
H1368 H 0.23483 0.56106 0.45528 0.0
H1369 H 0.17948 0.72292 0.4612 0.0
H1370 H 0.11894 0.53494 0.44891 0.0
H1371 H 0.28722 0.74197 0.44288 0.0
H1372 H 0.15726 0.65445 0.46302 0.0
H1373 H 0.25492 0.62827 0.45707 0.0
C1374 C 0.21354 0.56947 0.45443 0.0
C1375 C 0.17514 0.54236 0.45193 0.0
C1376 C 0.18583 0.6738 0.45874 0.0
C1377 C 0.198 0.61945 0.45403 0.0
C1378 C 0.19858 0.71275 0.45785 0.0
C1379 C 0.23517 0.73794 0.45185 0.0
C1380 C 0.21025 0.66041 0.45398 0.0
C1381 C 0.25873 0.72341 0.44748 0.0
C1382 C 0.22505 0.60785 0.45537 0.0
C1383 C 0.14884 0.555 0.45069 0.0
N1384 N 0.24595 0.68573 0.44868 0.0
N1385 N 0.16071 0.5927 0.45182 0.0
H1386 H 0.49841 0.6012 0.44623 0.0
H1387 H 0.2851 0.55304 0.4363 0.0
H1388 H 0.46772 0.68795 0.4478 0.0
H1389 H 0.3119 0.47748 0.46338 0.0
H1390 H 0.3527 0.60073 0.43582 0.0
H1391 H 0.43057 0.55266 0.44771 0.0
C1392 C 0.47732 0.6099 0.44672 0.0
C1393 C 0.48843 0.64847 0.44687 0.0
C1394 C 0.34377 0.57378 0.44193 0.0
C1395 C 0.41142 0.5936 0.44844 0.0
C1396 C 0.30528 0.54657 0.44218 0.0
C1397 C 0.293 0.5114 0.44995 0.0
C1398 C 0.37032 0.56543 0.44908 0.0
C1399 C 0.32029 0.50443 0.4574 0.0
C1400 C 0.43882 0.58235 0.44772 0.0
C1401 C 0.46017 0.65847 0.44773 0.0
N1402 N 0.35785 0.5311 0.45661 0.0
N1403 N 0.42294 0.63122 0.44833 0.0
loop_
_geom_bond_atom_site_label_1
_geom_bond_atom_site_label_2
_geom_bond_distance
_geom_bond_site_symmetry_2
_ccdc_geom_bond_type
Co0 N4 2.148 . S
Co0 N10 2.128 . S
Co0 N20 2.194 . S
Co0 O25 2.351 . S
Co0 O26 2.155 . S
Co0 O27 2.096 . S
C1 N4 1.301 . S
C1 N5 1.328 . S
C1 H6 0.930 . S
C2 C3 1.333 . S
C2 N4 1.317 . S
C2 H7 0.930 . S
C3 C2 1.333 . S
C3 N5 1.350 . S
C3 H29 0.931 . S
N4 Co0 2.148 . S
N4 C1 1.301 . S
N4 C2 1.317 . S
N5 C1 1.328 . S
N5 C3 1.350 . S
H6 C1 0.930 . S
H7 C2 0.930 . S
C8 O9 1.224 . S
C8 O27 1.247 . S
O9 C8 1.224 . S
N10 Co0 2.128 . S
N10 C11 1.355 . S
N10 C13 1.311 . S
C11 N10 1.355 . S
C11 C12 1.363 . S
C11 H23 0.929 . S
C12 C11 1.363 . S
C12 N14 1.376 1_455 S
C12 H30 0.931 1_455 S
C13 N10 1.311 . S
C13 N14 1.345 1_455 S
C13 H24 0.929 . S
N14 C12 1.376 1_655 S
N14 C13 1.345 1_655 S
C15 C18 1.365 . S
C15 N20 1.328 . S
C15 H21 0.929 . S
C16 C17 1.362 . S
C16 C19 1.378 . S
C16 H31 0.929 . S
C17 C16 1.362 . S
C17 C18 1.366 . S
C18 C15 1.365 . S
C18 C17 1.366 . S
C18 H32 0.930 . S
C19 C16 1.378 . S
C19 N20 1.315 . S
C19 H22 0.930 . S
N20 Co0 2.194 . S
N20 C15 1.328 . S
N20 C19 1.315 . S
H21 C15 0.929 . S
H22 C19 0.930 . S
H23 C11 0.929 . S
H24 C13 0.929 . S
O25 Co0 2.351 . S
O25 C28 1.244 . S
O26 Co0 2.155 . S
O26 C28 1.240 . S
O27 Co0 2.096 . S
O27 C8 1.247 . S
C28 O25 1.244 . S
C28 O26 1.240 . S
H29 C3 0.931 . S
H30 C12 0.931 1_655 S
H31 C16 0.929 . S
H32 C18 0.930 . S
Co33 N37 2.148 . S
Co33 N43 2.128 . S
Co33 N53 2.194 . S
Co33 O58 2.351 . S
Co33 O59 2.155 . S
Co33 O60 2.096 . S
C34 N37 1.301 . S
C34 N38 1.328 . S
C34 H39 0.930 . S
C35 C36 1.333 . S
C35 N37 1.317 . S
C35 H40 0.930 . S
C36 C35 1.333 . S
C36 N38 1.350 . S
C36 H62 0.931 . S
N37 Co33 2.148 . S
N37 C34 1.301 . S
N37 C35 1.317 . S
N38 C34 1.328 . S
N38 C36 1.350 . S
H39 C34 0.930 . S
H40 C35 0.930 . S
C41 O42 1.224 . S
C41 O60 1.247 . S
O42 C41 1.224 . S
N43 Co33 2.128 . S
N43 C44 1.355 . S
N43 C46 1.311 . S
C44 N43 1.355 . S
C44 C45 1.363 . S
C44 H56 0.929 . S
C45 C44 1.363 . S
C45 N47 1.375 . S
C45 H63 0.931 . S
C46 N43 1.311 . S
C46 N47 1.347 . S
C46 H57 0.929 . S
N47 C45 1.375 . S
N47 C46 1.347 . S
C48 C51 1.365 . S
C48 N53 1.328 . S
C48 H54 0.929 . S
C49 C50 1.362 . S
C49 C52 1.378 . S
C49 H64 0.929 . S
C50 C49 1.362 . S
C50 C51 1.366 . S
C51 C48 1.365 . S
C51 C50 1.366 . S
C51 H65 0.930 . S
C52 C49 1.378 . S
C52 N53 1.315 . S
C52 H55 0.930 . S
N53 Co33 2.194 . S
N53 C48 1.328 . S
N53 C52 1.315 . S
H54 C48 0.929 . S
H55 C52 0.930 . S
H56 C44 0.929 . S
H57 C46 0.929 . S
O58 Co33 2.351 . S
O58 C61 1.244 . S
O59 Co33 2.155 . S
O59 C61 1.240 . S
O60 Co33 2.096 . S
O60 C41 1.247 . S
C61 O58 1.244 . S
C61 O59 1.240 . S
H62 C36 0.931 . S
H63 C45 0.931 . S
H64 C49 0.929 . S
H65 C51 0.930 . S
Co66 N70 2.148 . S
Co66 N76 2.128 . S
Co66 N86 2.194 . S
Co66 O91 2.351 . S
Co66 O92 2.155 . S
Co66 O93 2.096 . S
C67 N70 1.301 . S
C67 N71 1.328 . S
C67 H72 0.930 . S
C68 C69 1.333 . S
C68 N70 1.317 . S
C68 H73 0.930 . S
C69 C68 1.333 . S
C69 N71 1.350 . S
C69 H95 0.931 . S
N70 Co66 2.148 . S
N70 C67 1.301 . S
N70 C68 1.317 . S
N71 C67 1.328 . S
N71 C69 1.350 . S
H72 C67 0.930 . S
H73 C68 0.930 . S
C74 O75 1.224 . S
C74 O93 1.247 . S
O75 C74 1.224 . S
N76 Co66 2.128 . S
N76 C77 1.355 . S
N76 C79 1.311 . S
C77 N76 1.355 . S
C77 C78 1.363 . S
C77 H89 0.929 . S
C78 C77 1.363 . S
C78 N80 1.375 . S
C78 H96 0.931 1_565 S
C79 N76 1.311 . S
C79 N80 1.347 . S
C79 H90 0.929 . S
N80 C78 1.375 . S
N80 C79 1.347 . S
C81 C84 1.365 . S
C81 N86 1.328 . S
C81 H87 0.929 . S
C82 C83 1.362 . S
C82 C85 1.378 . S
C82 H97 0.929 . S
C83 C82 1.362 . S
C83 C84 1.366 . S
C84 C81 1.365 . S
C84 C83 1.366 . S
C84 H98 0.930 . S
C85 C82 1.378 . S
C85 N86 1.315 . S
C85 H88 0.930 . S
N86 Co66 2.194 . S
N86 C81 1.328 . S
N86 C85 1.315 . S
H87 C81 0.929 . S
H88 C85 0.930 . S
H89 C77 0.929 . S
H90 C79 0.929 . S
O91 Co66 2.351 . S
O91 C94 1.244 . S
O92 Co66 2.155 . S
O92 C94 1.240 . S
O93 Co66 2.096 . S
O93 C74 1.247 . S
C94 O91 1.244 . S
C94 O92 1.240 . S
H95 C69 0.931 . S
H96 C78 0.931 1_545 S
H97 C82 0.929 . S
H98 C84 0.930 . S
Co99 N103 2.148 . S
Co99 N109 2.128 . S
Co99 N119 2.194 . S
Co99 O124 2.351 . S
Co99 O125 2.155 . S
Co99 O126 2.096 . S
C100 N103 1.301 . S
C100 N104 1.328 . S
C100 H105 0.930 . S
C101 C102 1.333 . S
C101 N103 1.317 . S
C101 H106 0.930 . S
C102 C101 1.333 . S
C102 N104 1.350 . S
C102 H128 0.931 . S
N103 Co99 2.148 . S
N103 C100 1.301 . S
N103 C101 1.317 . S
N104 C100 1.328 . S
N104 C102 1.350 . S
H105 C100 0.930 . S
H106 C101 0.930 . S
C107 O108 1.224 . S
C107 O126 1.247 . S
O108 C107 1.224 . S
N109 Co99 2.128 . S
N109 C110 1.355 . S
N109 C112 1.311 . S
C110 N109 1.355 . S
C110 C111 1.363 . S
C110 H122 0.929 . S
C111 C110 1.363 . S
C111 N113 1.376 1_545 S
C111 H129 0.931 1_545 S
C112 N109 1.311 . S
C112 N113 1.345 1_545 S
C112 H123 0.929 . S
N113 C111 1.376 1_565 S
N113 C112 1.345 1_565 S
C114 C117 1.365 . S
C114 N119 1.328 . S
C114 H120 0.929 . S
C115 C116 1.362 . S
C115 C118 1.378 . S
C115 H130 0.929 . S
C116 C115 1.362 . S
C116 C117 1.366 . S
C117 C114 1.365 . S
C117 C116 1.366 . S
C117 H131 0.930 . S
C118 C115 1.378 . S
C118 N119 1.315 . S
C118 H121 0.930 . S
N119 Co99 2.194 . S
N119 C114 1.328 . S
N119 C118 1.315 . S
H120 C114 0.929 . S
H121 C118 0.930 . S
H122 C110 0.929 . S
H123 C112 0.929 . S
O124 Co99 2.351 . S
O124 C127 1.244 . S
O125 Co99 2.155 . S
O125 C127 1.240 . S
O126 Co99 2.096 . S
O126 C107 1.247 . S
C127 O124 1.244 . S
C127 O125 1.240 . S
H128 C102 0.931 . S
H129 C111 0.931 1_565 S
H130 C115 0.929 . S
H131 C117 0.930 . S
Co132 N136 2.148 . S
Co132 N142 2.128 . S
Co132 N152 2.194 . S
Co132 O157 2.351 . S
Co132 O158 2.155 . S
Co132 O159 2.096 . S
C133 N136 1.301 . S
C133 N137 1.328 . S
C133 H138 0.930 . S
C134 C135 1.333 . S
C134 N136 1.317 . S
C134 H139 0.930 . S
C135 C134 1.333 . S
C135 N137 1.350 . S
C135 H161 0.931 . S
N136 Co132 2.148 . S
N136 C133 1.301 . S
N136 C134 1.317 . S
N137 C133 1.328 . S
N137 C135 1.350 . S
H138 C133 0.930 . S
H139 C134 0.930 . S
C140 O141 1.224 . S
C140 O159 1.247 . S
O141 C140 1.224 . S
N142 Co132 2.128 . S
N142 C143 1.355 . S
N142 C145 1.311 . S
C143 N142 1.355 . S
C143 C144 1.363 . S
C143 H155 0.929 . S
C144 C143 1.363 . S
C144 N146 1.375 . S
C144 H162 0.931 1_655 S
C145 N142 1.311 . S
C145 N146 1.347 . S
C145 H156 0.929 . S
N146 C144 1.375 . S
N146 C145 1.347 . S
C147 C150 1.365 . S
C147 N152 1.328 . S
C147 H153 0.929 . S
C148 C149 1.362 . S
C148 C151 1.378 . S
C148 H163 0.929 . S
C149 C148 1.362 . S
C149 C150 1.366 . S
C150 C147 1.365 . S
C150 C149 1.366 . S
C150 H164 0.930 . S
C151 C148 1.378 . S
C151 N152 1.315 . S
C151 H154 0.930 . S
N152 Co132 2.194 . S
N152 C147 1.328 . S
N152 C151 1.315 . S
H153 C147 0.929 . S
H154 C151 0.930 . S
H155 C143 0.929 . S
H156 C145 0.929 . S
O157 Co132 2.351 . S
O157 C160 1.244 . S
O158 Co132 2.155 . S
O158 C160 1.240 . S
O159 Co132 2.096 . S
O159 C140 1.247 . S
C160 O157 1.244 . S
C160 O158 1.240 . S
H161 C135 0.931 . S
H162 C144 0.931 1_455 S
H163 C148 0.929 . S
H164 C150 0.930 . S
Co165 N169 2.148 . S
Co165 N175 2.128 . S
Co165 N185 2.194 . S
Co165 O190 2.351 . S
Co165 O191 2.155 . S
Co165 O192 2.096 . S
C166 N169 1.301 . S
C166 N170 1.328 . S
C166 H171 0.930 . S
C167 C168 1.333 . S
C167 N169 1.317 . S
C167 H172 0.930 . S
C168 C167 1.333 . S
C168 N170 1.350 . S
C168 H194 0.931 . S
N169 Co165 2.148 . S
N169 C166 1.301 . S
N169 C167 1.317 . S
N170 C166 1.328 . S
N170 C168 1.350 . S
H171 C166 0.930 . S
H172 C167 0.930 . S
C173 O174 1.224 . S
C173 O192 1.247 . S
O174 C173 1.224 . S
N175 Co165 2.128 . S
N175 C176 1.355 . S
N175 C178 1.311 . S
C176 N175 1.355 . S
C176 C177 1.363 . S
C176 H188 0.929 . S
C177 C176 1.363 . S
C177 N179 1.375 . S
C177 H195 0.931 . S
C178 N175 1.311 . S
C178 N179 1.347 . S
C178 H189 0.929 . S
N179 C177 1.375 . S
N179 C178 1.347 . S
C180 C183 1.365 . S
C180 N185 1.328 . S
C180 H186 0.929 . S
C181 C182 1.362 . S
C181 C184 1.378 . S
C181 H196 0.929 . S
C182 C181 1.362 . S
C182 C183 1.366 . S
C183 C180 1.365 . S
C183 C182 1.366 . S
C183 H197 0.930 . S
C184 C181 1.378 . S
C184 N185 1.315 . S
C184 H187 0.930 . S
N185 Co165 2.194 . S
N185 C180 1.328 . S
N185 C184 1.315 . S
H186 C180 0.929 . S
H187 C184 0.930 . S
H188 C176 0.929 . S
H189 C178 0.929 . S
O190 Co165 2.351 . S
O190 C193 1.244 . S
O191 Co165 2.155 . S
O191 C193 1.240 . S
O192 Co165 2.096 . S
O192 C173 1.247 . S
C193 O190 1.244 . S
C193 O191 1.240 . S
H194 C168 0.931 . S
H195 C177 0.931 . S
H196 C181 0.929 . S
H197 C183 0.930 . S
Co198 N202 2.148 . S
Co198 N208 2.128 . S
Co198 N218 2.194 . S
Co198 O223 2.351 . S
Co198 O224 2.155 . S
Co198 O225 2.096 . S
C199 N202 1.301 . S
C199 N203 1.328 . S
C199 H204 0.930 . S
C200 C201 1.333 . S
C200 N202 1.317 . S
C200 H205 0.930 . S
C201 C200 1.333 . S
C201 N203 1.350 . S
C201 H227 0.931 . S
N202 Co198 2.148 . S
N202 C199 1.301 . S
N202 C200 1.317 . S
N203 C199 1.328 . S
N203 C201 1.350 . S
H204 C199 0.930 . S
H205 C200 0.930 . S
C206 O207 1.224 . S
C206 O225 1.247 . S
O207 C206 1.224 . S
N208 Co198 2.128 . S
N208 C209 1.355 . S
N208 C211 1.311 . S
C209 N208 1.355 . S
C209 C210 1.363 . S
C209 H221 0.929 . S
C210 C209 1.363 . S
C210 N212 1.375 . S
C210 H228 0.931 . S
C211 N208 1.311 . S
C211 N212 1.347 . S
C211 H222 0.929 . S
N212 C210 1.375 . S
N212 C211 1.347 . S
C213 C216 1.365 . S
C213 N218 1.328 . S
C213 H219 0.929 . S
C214 C215 1.362 . S
C214 C217 1.378 . S
C214 H229 0.929 . S
C215 C214 1.362 . S
C215 C216 1.366 . S
C216 C213 1.365 . S
C216 C215 1.366 . S
C216 H230 0.930 . S
C217 C214 1.378 . S
C217 N218 1.315 . S
C217 H220 0.930 . S
N218 Co198 2.194 . S
N218 C213 1.328 . S
N218 C217 1.315 . S
H219 C213 0.929 . S
H220 C217 0.930 . S
H221 C209 0.929 . S
H222 C211 0.929 . S
O223 Co198 2.351 . S
O223 C226 1.244 . S
O224 Co198 2.155 . S
O224 C226 1.240 . S
O225 Co198 2.096 . S
O225 C206 1.247 . S
C226 O223 1.244 . S
C226 O224 1.240 . S
H227 C201 0.931 . S
H228 C210 0.931 . S
H229 C214 0.929 . S
H230 C216 0.930 . S
Co231 N235 2.148 . S
Co231 N241 2.128 . S
Co231 N251 2.194 . S
Co231 O256 2.351 . S
Co231 O257 2.155 . S
Co231 O258 2.096 . S
C232 N235 1.301 . S
C232 N236 1.328 . S
C232 H237 0.930 . S
C233 C234 1.333 . S
C233 N235 1.317 . S
C233 H238 0.930 . S
C234 C233 1.333 . S
C234 N236 1.350 . S
C234 H260 0.931 . S
N235 Co231 2.148 . S
N235 C232 1.301 . S
N235 C233 1.317 . S
N236 C232 1.328 . S
N236 C234 1.350 . S
H237 C232 0.930 . S
H238 C233 0.930 . S
C239 O240 1.224 . S
C239 O258 1.247 . S
O240 C239 1.224 . S
N241 Co231 2.128 . S
N241 C242 1.355 . S
N241 C244 1.311 . S
C242 N241 1.355 . S
C242 C243 1.363 . S
C242 H254 0.929 . S
C243 C242 1.363 . S
C243 N245 1.375 . S
C243 H261 0.931 . S
C244 N241 1.311 . S
C244 N245 1.347 . S
C244 H255 0.929 . S
N245 C243 1.375 . S
N245 C244 1.347 . S
C246 C249 1.365 . S
C246 N251 1.328 . S
C246 H252 0.929 . S
C247 C248 1.362 . S
C247 C250 1.378 . S
C247 H262 0.929 . S
C248 C247 1.362 . S
C248 C249 1.366 . S
C249 C246 1.365 . S
C249 C248 1.366 . S
C249 H263 0.930 . S
C250 C247 1.378 . S
C250 N251 1.315 . S
C250 H253 0.930 . S
N251 Co231 2.194 . S
N251 C246 1.328 . S
N251 C250 1.315 . S
H252 C246 0.929 . S
H253 C250 0.930 . S
H254 C242 0.929 . S
H255 C244 0.929 . S
O256 Co231 2.351 . S
O256 C259 1.244 . S
O257 Co231 2.155 . S
O257 C259 1.240 . S
O258 Co231 2.096 . S
O258 C239 1.247 . S
C259 O256 1.244 . S
C259 O257 1.240 . S
H260 C234 0.931 . S
H261 C243 0.931 . S
H262 C247 0.929 . S
H263 C249 0.930 . S
Co264 N268 2.148 . S
Co264 N274 2.128 . S
Co264 N284 2.194 . S
Co264 O289 2.351 . S
Co264 O290 2.155 . S
Co264 O291 2.096 . S
C265 N268 1.301 . S
C265 N269 1.328 . S
C265 H270 0.930 . S
C266 C267 1.333 . S
C266 N268 1.317 . S
C266 H271 0.930 . S
C267 C266 1.333 . S
C267 N269 1.350 . S
C267 H293 0.931 . S
N268 Co264 2.148 . S
N268 C265 1.301 . S
N268 C266 1.317 . S
N269 C265 1.328 . S
N269 C267 1.350 . S
H270 C265 0.930 . S
H271 C266 0.930 . S
C272 O273 1.224 . S
C272 O291 1.247 . S
O273 C272 1.224 . S
N274 Co264 2.128 . S
N274 C275 1.355 . S
N274 C277 1.311 . S
C275 N274 1.355 . S
C275 C276 1.363 . S
C275 H287 0.929 . S
C276 C275 1.363 . S
C276 N278 1.375 . S
C276 H294 0.931 . S
C277 N274 1.311 . S
C277 N278 1.347 . S
C277 H288 0.929 . S
N278 C276 1.375 . S
N278 C277 1.347 . S
C279 C282 1.365 . S
C279 N284 1.328 . S
C279 H285 0.929 . S
C280 C281 1.362 . S
C280 C283 1.378 . S
C280 H295 0.929 . S
C281 C280 1.362 . S
C281 C282 1.366 . S
C282 C279 1.365 . S
C282 C281 1.366 . S
C282 H296 0.930 . S
C283 C280 1.378 . S
C283 N284 1.315 . S
C283 H286 0.930 . S
N284 Co264 2.194 . S
N284 C279 1.328 . S
N284 C283 1.315 . S
H285 C279 0.929 . S
H286 C283 0.930 . S
H287 C275 0.929 . S
H288 C277 0.929 . S
O289 Co264 2.351 . S
O289 C292 1.244 . S
O290 Co264 2.155 . S
O290 C292 1.240 . S
O291 Co264 2.096 . S
O291 C272 1.247 . S
C292 O289 1.244 . S
C292 O290 1.240 . S
H293 C267 0.931 . S
H294 C276 0.931 . S
H295 C280 0.929 . S
H296 C282 0.930 . S
Co297 N301 2.148 . S
Co297 N307 2.128 . S
Co297 N317 2.194 . S
Co297 O322 2.351 . S
Co297 O323 2.155 . S
Co297 O324 2.096 . S
C298 N301 1.301 . S
C298 N302 1.328 1_655 S
C298 H303 0.930 1_655 S
C299 C300 1.333 . S
C299 N301 1.317 . S
C299 H304 0.930 . S
C300 C299 1.333 . S
C300 N302 1.350 1_655 S
C300 H326 0.931 . S
N301 Co297 2.148 . S
N301 C298 1.301 . S
N301 C299 1.317 . S
N302 C298 1.328 1_455 S
N302 C300 1.350 1_455 S
H303 C298 0.930 1_455 S
H304 C299 0.930 . S
C305 O306 1.224 . S
C305 O324 1.247 . S
O306 C305 1.224 . S
N307 Co297 2.128 . S
N307 C308 1.355 . S
N307 C310 1.311 . S
C308 N307 1.355 . S
C308 C309 1.363 . S
C308 H320 0.929 . S
C309 C308 1.363 . S
C309 N311 1.375 . S
C309 H327 0.931 . S
C310 N307 1.311 . S
C310 N311 1.347 . S
C310 H321 0.929 . S
N311 C309 1.375 . S
N311 C310 1.347 . S
C312 C315 1.365 . S
C312 N317 1.328 . S
C312 H318 0.929 . S
C313 C314 1.362 . S
C313 C316 1.378 . S
C313 H328 0.929 . S
C314 C313 1.362 . S
C314 C315 1.366 . S
C315 C312 1.365 . S
C315 C314 1.366 . S
C315 H329 0.930 1_655 S
C316 C313 1.378 . S
C316 N317 1.315 . S
C316 H319 0.930 . S
N317 Co297 2.194 . S
N317 C312 1.328 . S
N317 C316 1.315 . S
H318 C312 0.929 . S
H319 C316 0.930 . S
H320 C308 0.929 . S
H321 C310 0.929 . S
O322 Co297 2.351 . S
O322 C325 1.244 . S
O323 Co297 2.155 . S
O323 C325 1.240 . S
O324 Co297 2.096 . S
O324 C305 1.247 . S
C325 O322 1.244 . S
C325 O323 1.240 . S
H326 C300 0.931 . S
H327 C309 0.931 . S
H328 C313 0.929 . S
H329 C315 0.930 1_455 S
Co330 N334 2.148 . S
Co330 N340 2.128 . S
Co330 N350 2.194 . S
Co330 O355 2.351 . S
Co330 O356 2.155 . S
Co330 O357 2.096 . S
C331 N334 1.301 . S
C331 N335 1.328 . S
C331 H336 0.930 . S
C332 C333 1.333 . S
C332 N334 1.317 . S
C332 H337 0.930 . S
C333 C332 1.333 . S
C333 N335 1.350 . S
C333 H359 0.931 . S
N334 Co330 2.148 . S
N334 C331 1.301 . S
N334 C332 1.317 . S
N335 C331 1.328 . S
N335 C333 1.350 . S
H336 C331 0.930 . S
H337 C332 0.930 . S
C338 O339 1.224 . S
C338 O357 1.247 . S
O339 C338 1.224 . S
N340 Co330 2.128 . S
N340 C341 1.355 . S
N340 C343 1.311 . S
C341 N340 1.355 . S
C341 C342 1.363 . S
C341 H353 0.929 . S
C342 C341 1.363 . S
C342 N344 1.375 . S
C342 H360 0.931 . S
C343 N340 1.311 . S
C343 N344 1.347 . S
C343 H354 0.929 . S
N344 C342 1.375 . S
N344 C343 1.347 . S
C345 C348 1.365 . S
C345 N350 1.328 . S
C345 H351 0.929 . S
C346 C347 1.362 . S
C346 C349 1.378 . S
C346 H361 0.929 . S
C347 C346 1.362 . S
C347 C348 1.366 . S
C348 C345 1.365 . S
C348 C347 1.366 . S
C348 H362 0.930 . S
C349 C346 1.378 . S
C349 N350 1.315 . S
C349 H352 0.930 . S
N350 Co330 2.194 . S
N350 C345 1.328 . S
N350 C349 1.315 . S
H351 C345 0.929 . S
H352 C349 0.930 . S
H353 C341 0.929 . S
H354 C343 0.929 . S
O355 Co330 2.351 . S
O355 C358 1.244 . S
O356 Co330 2.155 . S
O356 C358 1.240 . S
O357 Co330 2.096 . S
O357 C338 1.247 . S
C358 O355 1.244 . S
C358 O356 1.240 . S
H359 C333 0.931 . S
H360 C342 0.931 . S
H361 C346 0.929 . S
H362 C348 0.930 . S
Co363 N367 2.148 . S
Co363 N373 2.128 . S
Co363 N383 2.194 . S
Co363 O388 2.351 . S
Co363 O389 2.155 . S
Co363 O390 2.096 . S
C364 N367 1.301 . S
C364 N368 1.328 1_545 S
C364 H369 0.930 1_545 S
C365 C366 1.333 . S
C365 N367 1.317 . S
C365 H370 0.930 . S
C366 C365 1.333 . S
C366 N368 1.350 1_545 S
C366 H392 0.931 . S
N367 Co363 2.148 . S
N367 C364 1.301 . S
N367 C365 1.317 . S
N368 C364 1.328 1_565 S
N368 C366 1.350 1_565 S
H369 C364 0.930 1_565 S
H370 C365 0.930 . S
C371 O372 1.224 . S
C371 O390 1.247 . S
O372 C371 1.224 . S
N373 Co363 2.128 . S
N373 C374 1.355 . S
N373 C376 1.311 . S
C374 N373 1.355 . S
C374 C375 1.363 . S
C374 H386 0.929 . S
C375 C374 1.363 . S
C375 N377 1.375 . S
C375 H393 0.931 . S
C376 N373 1.311 . S
C376 N377 1.347 . S
C376 H387 0.929 . S
N377 C375 1.375 . S
N377 C376 1.347 . S
C378 C381 1.365 . S
C378 N383 1.328 . S
C378 H384 0.929 . S
C379 C380 1.362 . S
C379 C382 1.378 . S
C379 H394 0.929 . S
C380 C379 1.362 . S
C380 C381 1.366 . S
C381 C378 1.365 . S
C381 C380 1.366 . S
C381 H395 0.930 1_545 S
C382 C379 1.378 . S
C382 N383 1.315 . S
C382 H385 0.930 . S
N383 Co363 2.194 . S
N383 C378 1.328 . S
N383 C382 1.315 . S
H384 C378 0.929 . S
H385 C382 0.930 . S
H386 C374 0.929 . S
H387 C376 0.929 . S
O388 Co363 2.351 . S
O388 C391 1.244 . S
O389 Co363 2.155 . S
O389 C391 1.240 . S
O390 Co363 2.096 . S
O390 C371 1.247 . S
C391 O388 1.244 . S
C391 O389 1.240 . S
H392 C366 0.931 . S
H393 C375 0.931 . S
H394 C379 0.929 . S
H395 C381 0.930 1_565 S
Co396 N400 2.148 . S
Co396 N406 2.128 . S
Co396 N416 2.194 . S
Co396 O421 2.351 . S
Co396 O422 2.155 . S
Co396 O423 2.096 . S
C397 N400 1.301 . S
C397 N401 1.328 1_565 S
C397 H402 0.930 1_565 S
C398 C399 1.333 . S
C398 N400 1.317 . S
C398 H403 0.930 . S
C399 C398 1.333 . S
C399 N401 1.350 1_565 S
C399 H425 0.931 . S
N400 Co396 2.148 . S
N400 C397 1.301 . S
N400 C398 1.317 . S
N401 C397 1.328 1_545 S
N401 C399 1.350 1_545 S
H402 C397 0.930 1_545 S
H403 C398 0.930 . S
C404 O405 1.224 . S
C404 O423 1.247 . S
O405 C404 1.224 . S
N406 Co396 2.128 . S
N406 C407 1.355 . S
N406 C409 1.311 . S
C407 N406 1.355 . S
C407 C408 1.363 . S
C407 H419 0.929 . S
C408 C407 1.363 . S
C408 N410 1.375 . S
C408 H426 0.931 . S
C409 N406 1.311 . S
C409 N410 1.347 . S
C409 H420 0.929 . S
N410 C408 1.375 . S
N410 C409 1.347 . S
C411 C414 1.365 . S
C411 N416 1.328 . S
C411 H417 0.929 . S
C412 C413 1.362 . S
C412 C415 1.378 . S
C412 H427 0.929 . S
C413 C412 1.362 . S
C413 C414 1.366 . S
C414 C411 1.365 . S
C414 C413 1.366 . S
C414 H428 0.930 1_565 S
C415 C412 1.378 . S
C415 N416 1.315 . S
C415 H418 0.930 . S
N416 Co396 2.194 . S
N416 C411 1.328 . S
N416 C415 1.315 . S
H417 C411 0.929 . S
H418 C415 0.930 . S
H419 C407 0.929 . S
H420 C409 0.929 . S
O421 Co396 2.351 . S
O421 C424 1.244 . S
O422 Co396 2.155 . S
O422 C424 1.240 . S
O423 Co396 2.096 . S
O423 C404 1.247 . S
C424 O421 1.244 . S
C424 O422 1.240 . S
H425 C399 0.931 . S
H426 C408 0.931 . S
H427 C412 0.929 . S
H428 C414 0.930 1_545 S
Co429 N433 2.148 . S
Co429 N439 2.128 . S
Co429 N449 2.194 . S
Co429 O454 2.351 . S
Co429 O455 2.155 . S
Co429 O456 2.096 . S
C430 N433 1.301 . S
C430 N434 1.328 1_455 S
C430 H435 0.930 1_455 S
C431 C432 1.333 . S
C431 N433 1.317 . S
C431 H436 0.930 . S
C432 C431 1.333 . S
C432 N434 1.350 1_455 S
C432 H458 0.931 . S
N433 Co429 2.148 . S
N433 C430 1.301 . S
N433 C431 1.317 . S
N434 C430 1.328 1_655 S
N434 C432 1.350 1_655 S
H435 C430 0.930 1_655 S
H436 C431 0.930 . S
C437 O438 1.224 . S
C437 O456 1.247 . S
O438 C437 1.224 . S
N439 Co429 2.128 . S
N439 C440 1.355 . S
N439 C442 1.311 . S
C440 N439 1.355 . S
C440 C441 1.363 . S
C440 H452 0.929 . S
C441 C440 1.363 . S
C441 N443 1.375 . S
C441 H459 0.931 . S
C442 N439 1.311 . S
C442 N443 1.347 . S
C442 H453 0.929 . S
N443 C441 1.375 . S
N443 C442 1.347 . S
C444 C447 1.365 . S
C444 N449 1.328 . S
C444 H450 0.929 . S
C445 C446 1.362 . S
C445 C448 1.378 . S
C445 H460 0.929 . S
C446 C445 1.362 . S
C446 C447 1.366 . S
C447 C444 1.365 . S
C447 C446 1.366 . S
C447 H461 0.930 1_455 S
C448 C445 1.378 . S
C448 N449 1.315 . S
C448 H451 0.930 . S
N449 Co429 2.194 . S
N449 C444 1.328 . S
N449 C448 1.315 . S
H450 C444 0.929 . S
H451 C448 0.930 . S
H452 C440 0.929 . S
H453 C442 0.929 . S
O454 Co429 2.351 . S
O454 C457 1.244 . S
O455 Co429 2.155 . S
O455 C457 1.240 . S
O456 Co429 2.096 . S
O456 C437 1.247 . S
C457 O454 1.244 . S
C457 O455 1.240 . S
H458 C432 0.931 . S
H459 C441 0.931 . S
H460 C445 0.929 . S
H461 C447 0.930 1_655 S
Co462 N466 2.148 . S
Co462 N472 2.128 . S
Co462 N482 2.194 . S
Co462 O487 2.351 . S
Co462 O488 2.155 . S
Co462 O489 2.096 . S
C463 N466 1.301 . S
C463 N467 1.328 . S
C463 H468 0.930 . S
C464 C465 1.333 . S
C464 N466 1.317 . S
C464 H469 0.930 . S
C465 C464 1.333 . S
C465 N467 1.350 . S
C465 H491 0.931 . S
N466 Co462 2.148 . S
N466 C463 1.301 . S
N466 C464 1.317 . S
N467 C463 1.328 . S
N467 C465 1.350 . S
H468 C463 0.930 . S
H469 C464 0.930 . S
C470 O471 1.224 . S
C470 O489 1.247 . S
O471 C470 1.224 . S
N472 Co462 2.128 . S
N472 C473 1.355 . S
N472 C475 1.311 . S
C473 N472 1.355 . S
C473 C474 1.363 . S
C473 H485 0.929 . S
C474 C473 1.363 . S
C474 N476 1.375 . S
C474 H492 0.931 . S
C475 N472 1.311 . S
C475 N476 1.347 . S
C475 H486 0.929 . S
N476 C474 1.375 . S
N476 C475 1.347 . S
C477 C480 1.365 . S
C477 N482 1.328 . S
C477 H483 0.929 . S
C478 C479 1.362 . S
C478 C481 1.378 . S
C478 H493 0.929 . S
C479 C478 1.362 . S
C479 C480 1.366 . S
C480 C477 1.365 . S
C480 C479 1.366 . S
C480 H494 0.930 . S
C481 C478 1.378 . S
C481 N482 1.315 . S
C481 H484 0.930 . S
N482 Co462 2.194 . S
N482 C477 1.328 . S
N482 C481 1.315 . S
H483 C477 0.929 . S
H484 C481 0.930 . S
H485 C473 0.929 . S
H486 C475 0.929 . S
O487 Co462 2.351 . S
O487 C490 1.244 . S
O488 Co462 2.155 . S
O488 C490 1.240 . S
O489 Co462 2.096 . S
O489 C470 1.247 . S
C490 O487 1.244 . S
C490 O488 1.240 . S
H491 C465 0.931 . S
H492 C474 0.931 . S
H493 C478 0.929 . S
H494 C480 0.930 . S
Co495 N499 2.148 . S
Co495 N505 2.128 . S
Co495 N515 2.194 . S
Co495 O520 2.351 . S
Co495 O521 2.155 . S
Co495 O522 2.096 . S
C496 N499 1.301 . S
C496 N500 1.328 . S
C496 H501 0.930 . S
C497 C498 1.333 . S
C497 N499 1.317 . S
C497 H502 0.930 . S
C498 C497 1.333 . S
C498 N500 1.350 . S
C498 H524 0.931 . S
N499 Co495 2.148 . S
N499 C496 1.301 . S
N499 C497 1.317 . S
N500 C496 1.328 . S
N500 C498 1.350 . S
H501 C496 0.930 . S
H502 C497 0.930 . S
C503 O504 1.224 . S
C503 O522 1.247 . S
O504 C503 1.224 . S
N505 Co495 2.128 . S
N505 C506 1.355 . S
N505 C508 1.311 . S
C506 N505 1.355 . S
C506 C507 1.363 . S
C506 H518 0.929 . S
C507 C506 1.363 . S
C507 N509 1.375 . S
C507 H525 0.931 . S
C508 N505 1.311 . S
C508 N509 1.347 . S
C508 H519 0.929 . S
N509 C507 1.375 . S
N509 C508 1.347 . S
C510 C513 1.365 . S
C510 N515 1.328 . S
C510 H516 0.929 . S
C511 C512 1.362 . S
C511 C514 1.378 . S
C511 H526 0.929 . S
C512 C511 1.362 . S
C512 C513 1.366 . S
C513 C510 1.365 . S
C513 C512 1.366 . S
C513 H527 0.930 . S
C514 C511 1.378 . S
C514 N515 1.315 . S
C514 H517 0.930 . S
N515 Co495 2.194 . S
N515 C510 1.328 . S
N515 C514 1.315 . S
H516 C510 0.929 . S
H517 C514 0.930 . S
H518 C506 0.929 . S
H519 C508 0.929 . S
O520 Co495 2.351 . S
O520 C523 1.244 . S
O521 Co495 2.155 . S
O521 C523 1.240 . S
O522 Co495 2.096 . S
O522 C503 1.247 . S
C523 O520 1.244 . S
C523 O521 1.240 . S
H524 C498 0.931 . S
H525 C507 0.931 . S
H526 C511 0.929 . S
H527 C513 0.930 . S
Co528 N532 2.148 . S
Co528 N538 2.128 . S
Co528 N548 2.194 . S
Co528 O553 2.351 . S
Co528 O554 2.155 . S
Co528 O555 2.096 . S
C529 N532 1.301 . S
C529 N533 1.328 . S
C529 H534 0.930 . S
C530 C531 1.333 . S
C530 N532 1.317 . S
C530 H535 0.930 . S
C531 C530 1.333 . S
C531 N533 1.350 . S
C531 H557 0.931 . S
N532 Co528 2.148 . S
N532 C529 1.301 . S
N532 C530 1.317 . S
N533 C529 1.328 . S
N533 C531 1.350 . S
H534 C529 0.930 . S
H535 C530 0.930 . S
C536 O537 1.224 . S
C536 O555 1.247 . S
O537 C536 1.224 . S
N538 Co528 2.128 . S
N538 C539 1.355 . S
N538 C541 1.311 . S
C539 N538 1.355 . S
C539 C540 1.363 . S
C539 H551 0.929 . S
C540 C539 1.363 . S
C540 N542 1.375 . S
C540 H558 0.931 . S
C541 N538 1.311 . S
C541 N542 1.347 . S
C541 H552 0.929 . S
N542 C540 1.375 . S
N542 C541 1.347 . S
C543 C546 1.365 . S
C543 N548 1.328 . S
C543 H549 0.929 . S
C544 C545 1.362 . S
C544 C547 1.378 . S
C544 H559 0.929 . S
C545 C544 1.362 . S
C545 C546 1.366 . S
C546 C543 1.365 . S
C546 C545 1.366 . S
C546 H560 0.930 . S
C547 C544 1.378 . S
C547 N548 1.315 . S
C547 H550 0.930 . S
N548 Co528 2.194 . S
N548 C543 1.328 . S
N548 C547 1.315 . S
H549 C543 0.929 . S
H550 C547 0.930 . S
H551 C539 0.929 . S
H552 C541 0.929 . S
O553 Co528 2.351 . S
O553 C556 1.244 . S
O554 Co528 2.155 . S
O554 C556 1.240 . S
O555 Co528 2.096 . S
O555 C536 1.247 . S
C556 O553 1.244 . S
C556 O554 1.240 . S
H557 C531 0.931 . S
H558 C540 0.931 . S
H559 C544 0.929 . S
H560 C546 0.930 . S
Co561 N565 2.148 . S
Co561 N571 2.128 . S
Co561 N581 2.194 . S
Co561 O586 2.351 . S
Co561 O587 2.155 . S
Co561 O588 2.096 . S
C562 N565 1.301 . S
C562 N566 1.328 . S
C562 H567 0.930 . S
C563 C564 1.333 . S
C563 N565 1.317 . S
C563 H568 0.930 . S
C564 C563 1.333 . S
C564 N566 1.350 . S
C564 H590 0.931 . S
N565 Co561 2.148 . S
N565 C562 1.301 . S
N565 C563 1.317 . S
N566 C562 1.328 . S
N566 C564 1.350 . S
H567 C562 0.930 . S
H568 C563 0.930 . S
C569 O570 1.224 . S
C569 O588 1.247 . S
O570 C569 1.224 . S
N571 Co561 2.128 . S
N571 C572 1.355 . S
N571 C574 1.311 . S
C572 N571 1.355 . S
C572 C573 1.363 . S
C572 H584 0.929 . S
C573 C572 1.363 . S
C573 N575 1.375 . S
C573 H591 0.931 . S
C574 N571 1.311 . S
C574 N575 1.347 . S
C574 H585 0.929 . S
N575 C573 1.375 . S
N575 C574 1.347 . S
C576 C579 1.365 . S
C576 N581 1.328 . S
C576 H582 0.929 . S
C577 C578 1.362 . S
C577 C580 1.378 . S
C577 H592 0.929 . S
C578 C577 1.362 . S
C578 C579 1.366 . S
C579 C576 1.365 . S
C579 C578 1.366 . S
C579 H593 0.930 . S
C580 C577 1.378 . S
C580 N581 1.315 . S
C580 H583 0.930 . S
N581 Co561 2.194 . S
N581 C576 1.328 . S
N581 C580 1.315 . S
H582 C576 0.929 . S
H583 C580 0.930 . S
H584 C572 0.929 . S
H585 C574 0.929 . S
O586 Co561 2.351 . S
O586 C589 1.244 . S
O587 Co561 2.155 . S
O587 C589 1.240 . S
O588 Co561 2.096 . S
O588 C569 1.247 . S
C589 O586 1.244 . S
C589 O587 1.240 . S
H590 C564 0.931 . S
H591 C573 0.931 . S
H592 C577 0.929 . S
H593 C579 0.930 . S
H594 C600 0.930 . S
H595 C604 0.930 . S
H596 C609 0.929 . S
H597 C607 0.929 . S
H598 C602 0.929 . S
H599 C608 0.929 . S
C600 H594 0.930 . S
C600 C601 1.367 . S
C600 C608 1.378 . S
C601 C600 1.367 . S
C601 C609 1.433 . S
C602 H598 0.929 . S
C602 C604 1.378 . S
C602 C606 1.350 . S
C603 C606 1.463 . S
C603 C608 1.350 . S
C603 N611 1.427 . S
C604 H595 0.930 . S
C604 C602 1.378 . S
C604 C605 1.367 . S
C605 C604 1.367 . S
C605 C607 1.433 . S
C606 C602 1.350 . S
C606 C603 1.463 . S
C606 N610 1.427 . S
C607 H597 0.929 . S
C607 C605 1.433 . S
C607 N610 1.384 . S
C608 H599 0.929 . S
C608 C600 1.378 . S
C608 C603 1.350 . S
C609 H596 0.929 . S
C609 C601 1.433 . S
C609 N611 1.384 . S
N610 C606 1.427 . S
N610 C607 1.384 . S
N611 C603 1.427 . S
N611 C609 1.384 . S
H612 C618 0.930 . S
H613 C622 0.930 . S
H614 C627 0.929 . S
H615 C625 0.929 . S
H616 C620 0.929 . S
H617 C626 0.929 . S
C618 H612 0.930 . S
C618 C619 1.367 . S
C618 C626 1.378 . S
C619 C618 1.367 . S
C619 C627 1.433 . S
C620 H616 0.929 . S
C620 C622 1.378 . S
C620 C624 1.350 . S
C621 C624 1.463 . S
C621 C626 1.350 . S
C621 N629 1.427 . S
C622 H613 0.930 . S
C622 C620 1.378 . S
C622 C623 1.367 . S
C623 C622 1.367 . S
C623 C625 1.433 . S
C624 C620 1.350 . S
C624 C621 1.463 . S
C624 N628 1.427 . S
C625 H615 0.929 . S
C625 C623 1.433 . S
C625 N628 1.384 . S
C626 H617 0.929 . S
C626 C618 1.378 . S
C626 C621 1.350 . S
C627 H614 0.929 . S
C627 C619 1.433 . S
C627 N629 1.384 . S
N628 C624 1.427 . S
N628 C625 1.384 . S
N629 C621 1.427 . S
N629 C627 1.384 . S
H630 C636 0.930 . S
H631 C640 0.930 . S
H632 C645 0.929 . S
H633 C643 0.929 . S
H634 C638 0.929 . S
H635 C644 0.929 . S
C636 H630 0.930 . S
C636 C637 1.367 . S
C636 C644 1.378 . S
C637 C636 1.367 . S
C637 C645 1.433 . S
C638 H634 0.929 . S
C638 C640 1.378 . S
C638 C642 1.350 . S
C639 C642 1.463 . S
C639 C644 1.350 . S
C639 N647 1.427 . S
C640 H631 0.930 . S
C640 C638 1.378 . S
C640 C641 1.367 . S
C641 C640 1.367 . S
C641 C643 1.433 . S
C642 C638 1.350 . S
C642 C639 1.463 . S
C642 N646 1.427 . S
C643 H633 0.929 . S
C643 C641 1.433 . S
C643 N646 1.384 . S
C644 H635 0.929 . S
C644 C636 1.378 . S
C644 C639 1.350 . S
C645 H632 0.929 . S
C645 C637 1.433 . S
C645 N647 1.384 . S
N646 C642 1.427 . S
N646 C643 1.384 . S
N647 C639 1.427 . S
N647 C645 1.384 . S
H648 C654 0.930 . S
H649 C658 0.930 . S
H650 C663 0.929 . S
H651 C661 0.929 . S
H652 C656 0.929 . S
H653 C662 0.929 . S
C654 H648 0.930 . S
C654 C655 1.367 . S
C654 C662 1.378 . S
C655 C654 1.367 . S
C655 C663 1.433 . S
C656 H652 0.929 . S
C656 C658 1.378 . S
C656 C660 1.350 . S
C657 C660 1.463 . S
C657 C662 1.350 . S
C657 N665 1.427 . S
C658 H649 0.930 . S
C658 C656 1.378 . S
C658 C659 1.367 . S
C659 C658 1.367 . S
C659 C661 1.433 . S
C660 C656 1.350 . S
C660 C657 1.463 . S
C660 N664 1.427 . S
C661 H651 0.929 . S
C661 C659 1.433 . S
C661 N664 1.384 . S
C662 H653 0.929 . S
C662 C654 1.378 . S
C662 C657 1.350 . S
C663 H650 0.929 . S
C663 C655 1.433 . S
C663 N665 1.384 . S
N664 C660 1.427 . S
N664 C661 1.384 . S
N665 C657 1.427 . S
N665 C663 1.384 . S
H666 C672 0.930 . S
H667 C676 0.930 . S
H668 C681 0.929 . S
H669 C679 0.929 1_565 S
H670 C674 0.929 . S
H671 C680 0.929 . S
C672 H666 0.930 . S
C672 C673 1.367 . S
C672 C680 1.378 . S
C673 C672 1.367 . S
C673 C681 1.433 . S
C674 H670 0.929 . S
C674 C676 1.378 . S
C674 C678 1.350 . S
C675 C678 1.463 . S
C675 C680 1.350 . S
C675 N683 1.427 . S
C676 H667 0.930 . S
C676 C674 1.378 . S
C676 C677 1.367 . S
C677 C676 1.367 . S
C677 C679 1.433 . S
C678 C674 1.350 . S
C678 C675 1.463 . S
C678 N682 1.427 . S
C679 H669 0.929 1_545 S
C679 C677 1.433 . S
C679 N682 1.384 . S
C680 H671 0.929 . S
C680 C672 1.378 . S
C680 C675 1.350 . S
C681 H668 0.929 . S
C681 C673 1.433 . S
C681 N683 1.384 . S
N682 C678 1.427 . S
N682 C679 1.384 . S
N683 C675 1.427 . S
N683 C681 1.384 . S
H684 C690 0.930 1_455 S
H685 C694 0.930 . S
H686 C699 0.929 . S
H687 C697 0.929 . S
H688 C692 0.929 . S
H689 C698 0.929 . S
C690 H684 0.930 1_655 S
C690 C691 1.367 . S
C690 C698 1.378 . S
C691 C690 1.367 . S
C691 C699 1.433 . S
C692 H688 0.929 . S
C692 C694 1.378 . S
C692 C696 1.350 . S
C693 C696 1.463 . S
C693 C698 1.350 . S
C693 N701 1.427 . S
C694 H685 0.930 . S
C694 C692 1.378 . S
C694 C695 1.367 . S
C695 C694 1.367 . S
C695 C697 1.433 . S
C696 C692 1.350 . S
C696 C693 1.463 . S
C696 N700 1.427 . S
C697 H687 0.929 . S
C697 C695 1.433 . S
C697 N700 1.384 . S
C698 H689 0.929 . S
C698 C690 1.378 . S
C698 C693 1.350 . S
C699 H686 0.929 . S
C699 C691 1.433 . S
C699 N701 1.384 . S
N700 C696 1.427 . S
N700 C697 1.384 . S
N701 C693 1.427 . S
N701 C699 1.384 . S
H702 C708 0.930 . S
H703 C712 0.930 . S
H704 C717 0.929 . S
H705 C715 0.929 . S
H706 C710 0.929 . S
H707 C716 0.929 . S
C708 H702 0.930 . S
C708 C709 1.367 . S
C708 C716 1.378 . S
C709 C708 1.367 . S
C709 C717 1.433 . S
C710 H706 0.929 . S
C710 C712 1.378 . S
C710 C714 1.350 . S
C711 C714 1.463 . S
C711 C716 1.350 . S
C711 N719 1.427 . S
C712 H703 0.930 . S
C712 C710 1.378 . S
C712 C713 1.367 . S
C713 C712 1.367 . S
C713 C715 1.433 . S
C714 C710 1.350 . S
C714 C711 1.463 . S
C714 N718 1.427 . S
C715 H705 0.929 . S
C715 C713 1.433 . S
C715 N718 1.384 . S
C716 H707 0.929 . S
C716 C708 1.378 . S
C716 C711 1.350 . S
C717 H704 0.929 . S
C717 C709 1.433 . S
C717 N719 1.384 . S
N718 C714 1.427 . S
N718 C715 1.384 . S
N719 C711 1.427 . S
N719 C717 1.384 . S
H720 C726 0.930 . S
H721 C730 0.930 . S
H722 C735 0.929 . S
H723 C733 0.929 . S
H724 C728 0.929 . S
H725 C734 0.927 1_545 S
C726 H720 0.930 . S
C726 C727 1.367 . S
C726 C734 1.393 . S
C727 C726 1.367 . S
C727 C735 1.433 . S
C728 H724 0.929 . S
C728 C730 1.378 . S
C728 C732 1.350 . S
C729 C732 1.463 . S
C729 C734 1.336 1_545 S
C729 N737 1.427 . S
C730 H721 0.930 . S
C730 C728 1.378 . S
C730 C731 1.367 . S
C731 C730 1.367 . S
C731 C733 1.433 . S
C732 C728 1.350 . S
C732 C729 1.463 . S
C732 N736 1.427 . S
C733 H723 0.929 . S
C733 C731 1.433 . S
C733 N736 1.384 . S
C734 H725 0.927 1_565 S
C734 C726 1.393 . S
C734 C729 1.336 1_565 S
C735 H722 0.929 . S
C735 C727 1.433 . S
C735 N737 1.384 1_565 S
N736 C732 1.427 . S
N736 C733 1.384 . S
N737 C729 1.427 . S
N737 C735 1.384 1_545 S
H738 C744 0.930 . S
H739 C748 0.930 . S
H740 C753 0.929 . S
H741 C751 0.929 . S
H742 C746 0.926 1_455 S
H743 C752 0.929 . S
C744 H738 0.930 . S
C744 C745 1.367 1_655 S
C744 C752 1.378 . S
C745 C744 1.367 1_455 S
C745 C753 1.433 . S
C746 H742 0.926 1_655 S
C746 C748 1.378 . S
C746 C750 1.350 . S
C747 C750 1.463 . S
C747 C752 1.350 . S
C747 N755 1.427 1_655 S
C748 H739 0.930 . S
C748 C746 1.378 . S
C748 C749 1.367 . S
C749 C748 1.367 . S
C749 C751 1.433 . S
C750 C746 1.350 . S
C750 C747 1.463 . S
C750 N754 1.427 . S
C751 H741 0.929 . S
C751 C749 1.433 . S
C751 N754 1.384 . S
C752 H743 0.929 . S
C752 C744 1.378 . S
C752 C747 1.350 . S
C753 H740 0.929 . S
C753 C745 1.433 . S
C753 N755 1.384 . S
N754 C750 1.427 . S
N754 C751 1.384 . S
N755 C747 1.427 1_455 S
N755 C753 1.384 . S
H756 C762 0.930 . S
H757 C766 0.930 . S
H758 C771 0.929 . S
H759 C769 0.929 . S
H760 C764 0.929 . S
H761 C770 0.929 . S
C762 H756 0.930 . S
C762 C763 1.367 . S
C762 C770 1.378 . S
C763 C762 1.367 . S
C763 C771 1.433 . S
C764 H760 0.929 . S
C764 C766 1.378 . S
C764 C768 1.350 . S
C765 C768 1.463 . S
C765 C770 1.350 . S
C765 N773 1.427 . S
C766 H757 0.930 . S
C766 C764 1.378 . S
C766 C767 1.367 . S
C767 C766 1.367 . S
C767 C769 1.433 . S
C768 C764 1.350 . S
C768 C765 1.463 . S
C768 N772 1.427 . S
C769 H759 0.929 . S
C769 C767 1.433 . S
C769 N772 1.384 . S
C770 H761 0.929 . S
C770 C762 1.378 . S
C770 C765 1.350 . S
C771 H758 0.929 . S
C771 C763 1.433 . S
C771 N773 1.384 . S
N772 C768 1.427 . S
N772 C769 1.384 . S
N773 C765 1.427 . S
N773 C771 1.384 . S
H774 C780 0.930 . S
H775 C784 0.930 . S
H776 C789 0.929 . S
H777 C787 0.929 . S
H778 C782 0.929 . S
H779 C788 0.929 . S
C780 H774 0.930 . S
C780 C781 1.367 . S
C780 C788 1.378 . S
C781 C780 1.367 . S
C781 C789 1.433 . S
C782 H778 0.929 . S
C782 C784 1.378 . S
C782 C786 1.350 1_545 S
C783 C786 1.463 . S
C783 C788 1.350 . S
C783 N791 1.427 . S
C784 H775 0.930 . S
C784 C782 1.378 . S
C784 C785 1.367 . S
C785 C784 1.367 . S
C785 C787 1.433 1_545 S
C786 C782 1.350 1_565 S
C786 C783 1.463 . S
C786 N790 1.427 . S
C787 H777 0.929 . S
C787 C785 1.433 1_565 S
C787 N790 1.384 . S
C788 H779 0.929 . S
C788 C780 1.378 . S
C788 C783 1.350 . S
C789 H776 0.929 . S
C789 C781 1.433 . S
C789 N791 1.384 . S
N790 C786 1.427 . S
N790 C787 1.384 . S
N791 C783 1.427 . S
N791 C789 1.384 . S
H792 C798 0.930 . S
H793 C802 0.930 . S
H794 C807 0.929 . S
H795 C805 0.929 . S
H796 C800 0.929 . S
H797 C806 0.929 . S
C798 H792 0.930 . S
C798 C799 1.367 . S
C798 C806 1.378 . S
C799 C798 1.367 . S
C799 C807 1.433 . S
C800 H796 0.929 . S
C800 C802 1.378 . S
C800 C804 1.350 1_655 S
C801 C804 1.463 . S
C801 C806 1.350 . S
C801 N809 1.427 . S
C802 H793 0.930 . S
C802 C800 1.378 . S
C802 C803 1.367 . S
C803 C802 1.367 . S
C803 C805 1.433 1_655 S
C804 C800 1.350 1_455 S
C804 C801 1.463 . S
C804 N808 1.427 . S
C805 H795 0.929 . S
C805 C803 1.433 1_455 S
C805 N808 1.384 . S
C806 H797 0.929 . S
C806 C798 1.378 . S
C806 C801 1.350 . S
C807 H794 0.929 . S
C807 C799 1.433 . S
C807 N809 1.384 . S
N808 C804 1.427 . S
N808 C805 1.384 . S
N809 C801 1.427 . S
N809 C807 1.384 . S
H810 C816 0.930 . S
H811 C820 0.930 . S
H812 C825 0.929 . S
H813 C823 0.929 . S
H814 C818 0.929 . S
H815 C824 0.929 . S
C816 H810 0.930 . S
C816 C817 1.367 . S
C816 C824 1.378 . S
C817 C816 1.367 . S
C817 C825 1.433 . S
C818 H814 0.929 . S
C818 C820 1.378 . S
C818 C822 1.350 . S
C819 C822 1.463 1_455 S
C819 C824 1.350 . S
C819 N827 1.427 . S
C820 H811 0.930 . S
C820 C818 1.378 . S
C820 C821 1.367 . S
C821 C820 1.367 . S
C821 C823 1.433 . S
C822 C818 1.350 . S
C822 C819 1.463 1_655 S
C822 N826 1.427 . S
C823 H813 0.929 . S
C823 C821 1.433 . S
C823 N826 1.384 . S
C824 H815 0.929 . S
C824 C816 1.378 . S
C824 C819 1.350 . S
C825 H812 0.929 . S
C825 C817 1.433 . S
C825 N827 1.384 . S
N826 C822 1.427 . S
N826 C823 1.384 . S
N827 C819 1.427 . S
N827 C825 1.384 . S
H828 C834 0.930 . S
H829 C838 0.930 . S
H830 C843 0.929 . S
H831 C841 0.929 . S
H832 C836 0.929 . S
H833 C842 0.929 . S
C834 H828 0.930 . S
C834 C835 1.367 . S
C834 C842 1.378 . S
C835 C834 1.367 . S
C835 C843 1.433 . S
C836 H832 0.929 . S
C836 C838 1.378 . S
C836 C840 1.350 . S
C837 C840 1.463 . S
C837 C842 1.350 . S
C837 N845 1.427 . S
C838 H829 0.930 . S
C838 C836 1.378 . S
C838 C839 1.367 . S
C839 C838 1.367 . S
C839 C841 1.433 . S
C840 C836 1.350 . S
C840 C837 1.463 . S
C840 N844 1.427 . S
C841 H831 0.929 . S
C841 C839 1.433 . S
C841 N844 1.384 . S
C842 H833 0.929 . S
C842 C834 1.378 . S
C842 C837 1.350 . S
C843 H830 0.929 . S
C843 C835 1.433 . S
C843 N845 1.384 . S
N844 C840 1.427 . S
N844 C841 1.384 . S
N845 C837 1.427 . S
N845 C843 1.384 . S
H846 C852 0.930 . S
H847 C856 0.930 . S
H848 C861 0.929 . S
H849 C859 0.929 . S
H850 C854 0.929 1_565 S
H851 C860 0.929 1_545 S
C852 H846 0.930 . S
C852 C853 1.367 . S
C852 C860 1.378 . S
C853 C852 1.367 . S
C853 C861 1.433 . S
C854 H850 0.929 1_545 S
C854 C856 1.378 . S
C854 C858 1.350 . S
C855 C858 1.463 1_565 S
C855 C860 1.350 . S
C855 N863 1.427 . S
C856 H847 0.930 . S
C856 C854 1.378 . S
C856 C857 1.367 . S
C857 C856 1.367 . S
C857 C859 1.433 . S
C858 C854 1.350 . S
C858 C855 1.463 1_545 S
C858 N862 1.427 . S
C859 H849 0.929 . S
C859 C857 1.433 . S
C859 N862 1.384 . S
C860 H851 0.929 1_565 S
C860 C852 1.378 . S
C860 C855 1.350 . S
C861 H848 0.929 . S
C861 C853 1.433 . S
C861 N863 1.384 . S
N862 C858 1.427 . S
N862 C859 1.384 . S
N863 C855 1.427 . S
N863 C861 1.384 . S
H864 C870 0.930 . S
H865 C874 0.930 . S
H866 C879 0.929 . S
H867 C877 0.929 . S
H868 C872 0.929 . S
H869 C878 0.929 . S
C870 H864 0.930 . S
C870 C871 1.367 . S
C870 C878 1.378 . S
C871 C870 1.367 . S
C871 C879 1.433 . S
C872 H868 0.929 . S
C872 C874 1.378 . S
C872 C876 1.350 . S
C873 C876 1.463 1_545 S
C873 C878 1.350 . S
C873 N881 1.427 . S
C874 H865 0.930 . S
C874 C872 1.378 . S
C874 C875 1.367 . S
C875 C874 1.367 . S
C875 C877 1.433 . S
C876 C872 1.350 . S
C876 C873 1.463 1_565 S
C876 N880 1.427 . S
C877 H867 0.929 . S
C877 C875 1.433 . S
C877 N880 1.384 . S
C878 H869 0.929 . S
C878 C870 1.378 . S
C878 C873 1.350 . S
C879 H866 0.929 . S
C879 C871 1.433 . S
C879 N881 1.384 . S
N880 C876 1.427 . S
N880 C877 1.384 . S
N881 C873 1.427 . S
N881 C879 1.384 . S
H882 C888 0.930 . S
H883 C892 0.930 . S
H884 C897 0.929 . S
H885 C895 0.929 . S
H886 C890 0.929 . S
H887 C896 0.929 . S
C888 H882 0.930 . S
C888 C889 1.367 . S
C888 C896 1.378 . S
C889 C888 1.367 . S
C889 C897 1.433 . S
C890 H886 0.929 . S
C890 C892 1.378 . S
C890 C894 1.350 . S
C891 C894 1.463 1_455 S
C891 C896 1.350 . S
C891 N899 1.427 . S
C892 H883 0.930 . S
C892 C890 1.378 . S
C892 C893 1.367 . S
C893 C892 1.367 . S
C893 C895 1.433 . S
C894 C890 1.350 . S
C894 C891 1.463 1_655 S
C894 N898 1.427 . S
C895 H885 0.929 . S
C895 C893 1.433 . S
C895 N898 1.384 . S
C896 H887 0.929 . S
C896 C888 1.378 . S
C896 C891 1.350 . S
C897 H884 0.929 . S
C897 C889 1.433 . S
C897 N899 1.384 . S
N898 C894 1.427 . S
N898 C895 1.384 . S
N899 C891 1.427 . S
N899 C897 1.384 . S
H900 C906 0.930 . S
H901 C910 0.930 . S
H902 C915 0.929 . S
H903 C913 0.929 . S
H904 C908 0.929 . S
H905 C914 0.929 . S
C906 H900 0.930 . S
C906 C907 1.367 . S
C906 C914 1.378 . S
C907 C906 1.367 . S
C907 C915 1.433 . S
C908 H904 0.929 . S
C908 C910 1.378 . S
C908 C912 1.350 . S
C909 C912 1.463 . S
C909 C914 1.350 . S
C909 N917 1.427 . S
C910 H901 0.930 . S
C910 C908 1.378 . S
C910 C911 1.367 . S
C911 C910 1.367 . S
C911 C913 1.433 . S
C912 C908 1.350 . S
C912 C909 1.463 . S
C912 N916 1.427 . S
C913 H903 0.929 . S
C913 C911 1.433 . S
C913 N916 1.384 . S
C914 H905 0.929 . S
C914 C906 1.378 . S
C914 C909 1.350 . S
C915 H902 0.929 . S
C915 C907 1.433 . S
C915 N917 1.384 . S
N916 C912 1.427 . S
N916 C913 1.384 . S
N917 C909 1.427 . S
N917 C915 1.384 . S
H918 C924 0.930 . S
H919 C928 0.930 . S
H920 C933 0.929 . S
H921 C931 0.929 . S
H922 C926 0.929 . S
H923 C932 0.929 . S
C924 H918 0.930 . S
C924 C925 1.367 . S
C924 C932 1.378 . S
C925 C924 1.367 . S
C925 C933 1.433 . S
C926 H922 0.929 . S
C926 C928 1.378 . S
C926 C930 1.350 . S
C927 C930 1.463 . S
C927 C932 1.350 . S
C927 N935 1.427 . S
C928 H919 0.930 . S
C928 C926 1.378 . S
C928 C929 1.367 . S
C929 C928 1.367 . S
C929 C931 1.433 . S
C930 C926 1.350 . S
C930 C927 1.463 . S
C930 N934 1.427 . S
C931 H921 0.929 . S
C931 C929 1.433 . S
C931 N934 1.384 . S
C932 H923 0.929 . S
C932 C924 1.378 . S
C932 C927 1.350 . S
C933 H920 0.929 . S
C933 C925 1.433 . S
C933 N935 1.384 . S
N934 C930 1.427 . S
N934 C931 1.384 . S
N935 C927 1.427 . S
N935 C933 1.384 . S
H936 C942 0.930 . S
H937 C946 0.930 . S
H938 C951 0.929 . S
H939 C949 0.929 . S
H940 C944 0.929 . S
H941 C950 0.929 . S
C942 H936 0.930 . S
C942 C943 1.367 . S
C942 C950 1.378 . S
C943 C942 1.367 . S
C943 C951 1.433 . S
C944 H940 0.929 . S
C944 C946 1.378 . S
C944 C948 1.350 . S
C945 C948 1.463 . S
C945 C950 1.350 . S
C945 N953 1.427 . S
C946 H937 0.930 . S
C946 C944 1.378 . S
C946 C947 1.367 . S
C947 C946 1.367 . S
C947 C949 1.433 . S
C948 C944 1.350 . S
C948 C945 1.463 . S
C948 N952 1.427 . S
C949 H939 0.929 . S
C949 C947 1.433 . S
C949 N952 1.384 . S
C950 H941 0.929 . S
C950 C942 1.378 . S
C950 C945 1.350 . S
C951 H938 0.929 . S
C951 C943 1.433 . S
C951 N953 1.384 . S
N952 C948 1.427 . S
N952 C949 1.384 . S
N953 C945 1.427 . S
N953 C951 1.384 . S
H954 C960 0.930 . S
H955 C964 0.930 . S
H956 C969 0.929 . S
H957 C967 0.929 . S
H958 C962 0.929 . S
H959 C968 0.929 . S
C960 H954 0.930 . S
C960 C961 1.367 . S
C960 C968 1.378 . S
C961 C960 1.367 . S
C961 C969 1.433 . S
C962 H958 0.929 . S
C962 C964 1.378 . S
C962 C966 1.350 . S
C963 C966 1.463 . S
C963 C968 1.350 . S
C963 N971 1.427 . S
C964 H955 0.930 . S
C964 C962 1.378 . S
C964 C965 1.367 . S
C965 C964 1.367 . S
C965 C967 1.433 . S
C966 C962 1.350 . S
C966 C963 1.463 . S
C966 N970 1.427 . S
C967 H957 0.929 . S
C967 C965 1.433 . S
C967 N970 1.384 . S
C968 H959 0.929 . S
C968 C960 1.378 . S
C968 C963 1.350 . S
C969 H956 0.929 . S
C969 C961 1.433 . S
C969 N971 1.384 . S
N970 C966 1.427 . S
N970 C967 1.384 . S
N971 C963 1.427 . S
N971 C969 1.384 . S
H972 C978 0.930 . S
H973 C982 0.930 . S
H974 C987 0.929 . S
H975 C985 0.929 . S
H976 C980 0.929 . S
H977 C986 0.929 . S
C978 H972 0.930 . S
C978 C979 1.367 . S
C978 C986 1.378 . S
C979 C978 1.367 . S
C979 C987 1.433 . S
C980 H976 0.929 . S
C980 C982 1.378 . S
C980 C984 1.350 . S
C981 C984 1.463 . S
C981 C986 1.350 . S
C981 N989 1.427 . S
C982 H973 0.930 . S
C982 C980 1.378 . S
C982 C983 1.367 . S
C983 C982 1.367 . S
C983 C985 1.433 . S
C984 C980 1.350 . S
C984 C981 1.463 . S
C984 N988 1.427 . S
C985 H975 0.929 . S
C985 C983 1.433 . S
C985 N988 1.384 . S
C986 H977 0.929 . S
C986 C978 1.378 . S
C986 C981 1.350 . S
C987 H974 0.929 . S
C987 C979 1.433 . S
C987 N989 1.384 . S
N988 C984 1.427 . S
N988 C985 1.384 . S
N989 C981 1.427 . S
N989 C987 1.384 . S
H990 C996 0.930 . S
H991 C1000 0.930 . S
H992 C1005 0.929 . S
H993 C1003 0.929 . S
H994 C998 0.929 . S
H995 C1004 0.929 . S
C996 H990 0.930 . S
C996 C997 1.367 . S
C996 C1004 1.378 . S
C997 C996 1.367 . S
C997 C1005 1.433 . S
C998 H994 0.929 . S
C998 C1000 1.378 . S
C998 C1002 1.350 . S
C999 C1002 1.463 . S
C999 C1004 1.350 . S
C999 N1007 1.427 . S
C1000 H991 0.930 . S
C1000 C998 1.378 . S
C1000 C1001 1.367 . S
C1001 C1000 1.367 . S
C1001 C1003 1.433 . S
C1002 C998 1.350 . S
C1002 C999 1.463 . S
C1002 N1006 1.427 . S
C1003 H993 0.929 . S
C1003 C1001 1.433 . S
C1003 N1006 1.384 . S
C1004 H995 0.929 . S
C1004 C996 1.378 . S
C1004 C999 1.350 . S
C1005 H992 0.929 . S
C1005 C997 1.433 . S
C1005 N1007 1.384 . S
N1006 C1002 1.427 . S
N1006 C1003 1.384 . S
N1007 C999 1.427 . S
N1007 C1005 1.384 . S
H1008 C1014 0.930 . S
H1009 C1018 0.930 . S
H1010 C1023 0.929 . S
H1011 C1021 0.929 . S
H1012 C1016 0.929 . S
H1013 C1022 0.929 . S
C1014 H1008 0.930 . S
C1014 C1015 1.367 . S
C1014 C1022 1.378 . S
C1015 C1014 1.367 . S
C1015 C1023 1.433 . S
C1016 H1012 0.929 . S
C1016 C1018 1.378 . S
C1016 C1020 1.350 . S
C1017 C1020 1.463 . S
C1017 C1022 1.350 . S
C1017 N1025 1.427 . S
C1018 H1009 0.930 . S
C1018 C1016 1.378 . S
C1018 C1019 1.367 . S
C1019 C1018 1.367 . S
C1019 C1021 1.433 . S
C1020 C1016 1.350 . S
C1020 C1017 1.463 . S
C1020 N1024 1.427 . S
C1021 H1011 0.929 . S
C1021 C1019 1.433 . S
C1021 N1024 1.384 . S
C1022 H1013 0.929 . S
C1022 C1014 1.378 . S
C1022 C1017 1.350 . S
C1023 H1010 0.929 . S
C1023 C1015 1.433 . S
C1023 N1025 1.384 . S
N1024 C1020 1.427 . S
N1024 C1021 1.384 . S
N1025 C1017 1.427 . S
N1025 C1023 1.384 . S
H1026 C1032 0.930 . S
H1027 C1036 0.930 . S
H1028 C1041 0.929 . S
H1029 C1039 0.929 . S
H1030 C1034 0.929 . S
H1031 C1040 0.929 . S
C1032 H1026 0.930 . S
C1032 C1033 1.367 . S
C1032 C1040 1.378 . S
C1033 C1032 1.367 . S
C1033 C1041 1.433 1_655 S
C1034 H1030 0.929 . S
C1034 C1036 1.378 . S
C1034 C1038 1.350 . S
C1035 C1038 1.463 1_654 S
C1035 C1040 1.350 . S
C1035 N1043 1.427 1_655 S
C1036 H1027 0.930 . S
C1036 C1034 1.378 . S
C1036 C1037 1.367 . S
C1037 C1036 1.367 . S
C1037 C1039 1.433 1_455 S
C1038 C1034 1.350 . S
C1038 C1035 1.463 1_456 S
C1038 N1042 1.427 1_455 S
C1039 H1029 0.929 . S
C1039 C1037 1.433 1_655 S
C1039 N1042 1.384 . S
C1040 H1031 0.929 . S
C1040 C1032 1.378 . S
C1040 C1035 1.350 . S
C1041 H1028 0.929 . S
C1041 C1033 1.433 1_455 S
C1041 N1043 1.384 . S
N1042 C1038 1.427 1_655 S
N1042 C1039 1.384 . S
N1043 C1035 1.427 1_455 S
N1043 C1041 1.384 . S
H1044 C1050 0.930 . S
H1045 C1054 0.930 . S
H1046 C1059 0.929 . S
H1047 C1057 0.929 . S
H1048 C1052 0.929 . S
H1049 C1058 0.929 . S
C1050 H1044 0.930 . S
C1050 C1051 1.367 . S
C1050 C1058 1.378 . S
C1051 C1050 1.367 . S
C1051 C1059 1.433 . S
C1052 H1048 0.929 . S
C1052 C1054 1.378 . S
C1052 C1056 1.350 . S
C1053 C1056 1.463 1_554 S
C1053 C1058 1.350 . S
C1053 N1061 1.427 . S
C1054 H1045 0.930 . S
C1054 C1052 1.378 . S
C1054 C1055 1.367 . S
C1055 C1054 1.367 . S
C1055 C1057 1.433 . S
C1056 C1052 1.350 . S
C1056 C1053 1.463 1_556 S
C1056 N1060 1.427 . S
C1057 H1047 0.929 . S
C1057 C1055 1.433 . S
C1057 N1060 1.384 . S
C1058 H1049 0.929 . S
C1058 C1050 1.378 . S
C1058 C1053 1.350 . S
C1059 H1046 0.929 . S
C1059 C1051 1.433 . S
C1059 N1061 1.384 . S
N1060 C1056 1.427 . S
N1060 C1057 1.384 . S
N1061 C1053 1.427 . S
N1061 C1059 1.384 . S
H1062 C1068 0.930 . S
H1063 C1072 0.930 . S
H1064 C1077 0.929 . S
H1065 C1075 0.929 . S
H1066 C1070 0.929 . S
H1067 C1076 0.929 . S
C1068 H1062 0.930 . S
C1068 C1069 1.367 1_565 S
C1068 C1076 1.378 . S
C1069 C1068 1.367 1_545 S
C1069 C1077 1.433 . S
C1070 H1066 0.929 . S
C1070 C1072 1.378 . S
C1070 C1074 1.350 1_545 S
C1071 C1074 1.461 1_544 S
C1071 C1076 1.342 1_545 S
C1071 N1079 1.438 . S
C1072 H1063 0.930 . S
C1072 C1070 1.378 . S
C1072 C1073 1.367 1_545 S
C1073 C1072 1.367 1_565 S
C1073 C1075 1.433 . S
C1074 C1070 1.350 1_565 S
C1074 C1071 1.461 1_566 S
C1074 N1078 1.427 . S
C1075 H1065 0.929 . S
C1075 C1073 1.433 . S
C1075 N1078 1.384 . S
C1076 H1067 0.929 . S
C1076 C1068 1.378 . S
C1076 C1071 1.342 1_565 S
C1077 H1064 0.929 . S
C1077 C1069 1.433 . S
C1077 N1079 1.384 . S
N1078 C1074 1.427 . S
N1078 C1075 1.384 . S
N1079 C1071 1.438 . S
N1079 C1077 1.384 . S
H1080 C1086 0.930 . S
H1081 C1090 0.930 . S
H1082 C1095 0.929 . S
H1083 C1093 0.929 . S
H1084 C1088 0.929 . S
H1085 C1094 0.929 . S
C1086 H1080 0.930 . S
C1086 C1087 1.367 . S
C1086 C1094 1.378 . S
C1087 C1086 1.367 . S
C1087 C1095 1.433 . S
C1088 H1084 0.929 . S
C1088 C1090 1.378 . S
C1088 C1092 1.350 . S
C1089 C1092 1.463 . S
C1089 C1094 1.350 . S
C1089 N1097 1.427 . S
C1090 H1081 0.930 . S
C1090 C1088 1.378 . S
C1090 C1091 1.367 . S
C1091 C1090 1.367 . S
C1091 C1093 1.433 . S
C1092 C1088 1.350 . S
C1092 C1089 1.463 . S
C1092 N1096 1.427 . S
C1093 H1083 0.929 . S
C1093 C1091 1.433 . S
C1093 N1096 1.384 . S
C1094 H1085 0.929 . S
C1094 C1086 1.378 . S
C1094 C1089 1.350 . S
C1095 H1082 0.929 . S
C1095 C1087 1.433 . S
C1095 N1097 1.384 . S
N1096 C1092 1.427 . S
N1096 C1093 1.384 . S
N1097 C1089 1.427 . S
N1097 C1095 1.384 . S
H1098 C1104 0.930 . S
H1099 C1108 0.930 . S
H1100 C1113 0.929 . S
H1101 C1111 0.929 . S
H1102 C1106 0.929 . S
H1103 C1112 0.929 . S
C1104 H1098 0.930 . S
C1104 C1105 1.367 . S
C1104 C1112 1.378 1_565 S
C1105 C1104 1.367 . S
C1105 C1113 1.433 . S
C1106 H1102 0.929 . S
C1106 C1108 1.378 . S
C1106 C1110 1.350 . S
C1107 C1110 1.463 . S
C1107 C1112 1.350 . S
C1107 N1115 1.427 1_545 S
C1108 H1099 0.930 . S
C1108 C1106 1.378 . S
C1108 C1109 1.367 . S
C1109 C1108 1.367 . S
C1109 C1111 1.433 . S
C1110 C1106 1.350 . S
C1110 C1107 1.463 . S
C1110 N1114 1.427 . S
C1111 H1101 0.929 . S
C1111 C1109 1.433 . S
C1111 N1114 1.384 . S
C1112 H1103 0.929 . S
C1112 C1104 1.378 1_545 S
C1112 C1107 1.350 . S
C1113 H1100 0.929 . S
C1113 C1105 1.433 . S
C1113 N1115 1.384 . S
N1114 C1110 1.427 . S
N1114 C1111 1.384 . S
N1115 C1107 1.427 1_565 S
N1115 C1113 1.384 . S
H1116 C1122 0.930 . S
H1117 C1126 0.930 . S
H1118 C1131 0.929 . S
H1119 C1129 0.929 . S
H1120 C1124 0.926 1_655 S
H1121 C1130 0.929 . S
C1122 H1116 0.930 . S
C1122 C1123 1.367 . S
C1122 C1130 1.378 . S
C1123 C1122 1.367 . S
C1123 C1131 1.433 . S
C1124 H1120 0.926 1_455 S
C1124 C1126 1.381 . S
C1124 C1128 1.349 1_455 S
C1125 C1128 1.463 . S
C1125 C1130 1.350 . S
C1125 N1133 1.427 . S
C1126 H1117 0.930 . S
C1126 C1124 1.381 . S
C1126 C1127 1.367 . S
C1127 C1126 1.367 . S
C1127 C1129 1.433 . S
C1128 C1124 1.349 1_655 S
C1128 C1125 1.463 . S
C1128 N1132 1.427 . S
C1129 H1119 0.929 . S
C1129 C1127 1.433 . S
C1129 N1132 1.384 1_455 S
C1130 H1121 0.929 . S
C1130 C1122 1.378 . S
C1130 C1125 1.350 . S
C1131 H1118 0.929 . S
C1131 C1123 1.433 . S
C1131 N1133 1.384 . S
N1132 C1128 1.427 . S
N1132 C1129 1.384 1_655 S
N1133 C1125 1.427 . S
N1133 C1131 1.384 . S
H1134 C1140 0.930 . S
H1135 C1144 0.930 . S
H1136 C1149 0.929 1_655 S
H1137 C1147 0.929 . S
H1138 C1142 0.929 . S
H1139 C1148 0.929 . S
C1140 H1134 0.930 . S
C1140 C1141 1.367 . S
C1140 C1148 1.378 . S
C1141 C1140 1.367 . S
C1141 C1149 1.433 . S
C1142 H1138 0.929 . S
C1142 C1144 1.378 . S
C1142 C1146 1.350 . S
C1143 C1146 1.463 . S
C1143 C1148 1.350 . S
C1143 N1151 1.427 . S
C1144 H1135 0.930 . S
C1144 C1142 1.378 . S
C1144 C1145 1.367 . S
C1145 C1144 1.367 . S
C1145 C1147 1.433 . S
C1146 C1142 1.350 . S
C1146 C1143 1.463 . S
C1146 N1150 1.427 . S
C1147 H1137 0.929 . S
C1147 C1145 1.433 . S
C1147 N1150 1.384 . S
C1148 H1139 0.929 . S
C1148 C1140 1.378 . S
C1148 C1143 1.350 . S
C1149 H1136 0.929 1_455 S
C1149 C1141 1.433 . S
C1149 N1151 1.384 . S
N1150 C1146 1.427 . S
N1150 C1147 1.384 . S
N1151 C1143 1.427 . S
N1151 C1149 1.384 . S
H1152 C1158 0.930 . S
H1153 C1162 0.930 . S
H1154 C1167 0.929 . S
H1155 C1165 0.929 . S
H1156 C1160 0.929 . S
H1157 C1166 0.929 . S
C1158 H1152 0.930 . S
C1158 C1159 1.367 . S
C1158 C1166 1.378 1_545 S
C1159 C1158 1.367 . S
C1159 C1167 1.433 . S
C1160 H1156 0.929 . S
C1160 C1162 1.378 . S
C1160 C1164 1.350 . S
C1161 C1164 1.463 . S
C1161 C1166 1.350 . S
C1161 N1169 1.427 . S
C1162 H1153 0.930 . S
C1162 C1160 1.378 . S
C1162 C1163 1.367 . S
C1163 C1162 1.367 . S
C1163 C1165 1.433 . S
C1164 C1160 1.350 . S
C1164 C1161 1.463 . S
C1164 N1168 1.427 . S
C1165 H1155 0.929 . S
C1165 C1163 1.433 . S
C1165 N1168 1.384 . S
C1166 H1157 0.929 . S
C1166 C1158 1.378 1_565 S
C1166 C1161 1.350 . S
C1167 H1154 0.929 . S
C1167 C1159 1.433 . S
C1167 N1169 1.384 1_545 S
N1168 C1164 1.427 . S
N1168 C1165 1.384 . S
N1169 C1161 1.427 . S
N1169 C1167 1.384 1_565 S
H1170 C1176 0.930 . S
H1171 C1180 0.930 . S
H1172 C1185 0.929 . S
H1173 C1183 0.929 . S
H1174 C1178 0.929 . S
H1175 C1184 0.929 . S
C1176 H1170 0.930 . S
C1176 C1177 1.367 . S
C1176 C1184 1.378 . S
C1177 C1176 1.367 . S
C1177 C1185 1.433 . S
C1178 H1174 0.929 . S
C1178 C1180 1.378 1_455 S
C1178 C1182 1.350 . S
C1179 C1182 1.463 . S
C1179 C1184 1.350 . S
C1179 N1187 1.427 . S
C1180 H1171 0.930 . S
C1180 C1178 1.378 1_655 S
C1180 C1181 1.367 . S
C1181 C1180 1.367 . S
C1181 C1183 1.433 . S
C1182 C1178 1.350 . S
C1182 C1179 1.463 . S
C1182 N1186 1.427 . S
C1183 H1173 0.929 . S
C1183 C1181 1.433 . S
C1183 N1186 1.384 1_655 S
C1184 H1175 0.929 . S
C1184 C1176 1.378 . S
C1184 C1179 1.350 . S
C1185 H1172 0.929 . S
C1185 C1177 1.433 . S
C1185 N1187 1.384 . S
N1186 C1182 1.427 . S
N1186 C1183 1.384 1_455 S
N1187 C1179 1.427 . S
N1187 C1185 1.384 . S
H1188 C1194 0.930 . S
H1189 C1198 0.930 . S
H1190 C1203 0.929 . S
H1191 C1201 0.929 . S
H1192 C1196 0.929 . S
H1193 C1202 0.929 . S
C1194 H1188 0.930 . S
C1194 C1195 1.367 . S
C1194 C1202 1.378 . S
C1195 C1194 1.367 . S
C1195 C1203 1.433 . S
C1196 H1192 0.929 . S
C1196 C1198 1.378 . S
C1196 C1200 1.350 . S
C1197 C1200 1.463 . S
C1197 C1202 1.350 . S
C1197 N1205 1.427 . S
C1198 H1189 0.930 . S
C1198 C1196 1.378 . S
C1198 C1199 1.367 . S
C1199 C1198 1.367 . S
C1199 C1201 1.433 . S
C1200 C1196 1.350 . S
C1200 C1197 1.463 . S
C1200 N1204 1.427 . S
C1201 H1191 0.929 . S
C1201 C1199 1.433 . S
C1201 N1204 1.384 . S
C1202 H1193 0.929 . S
C1202 C1194 1.378 . S
C1202 C1197 1.350 . S
C1203 H1190 0.929 . S
C1203 C1195 1.433 . S
C1203 N1205 1.384 . S
N1204 C1200 1.427 . S
N1204 C1201 1.384 . S
N1205 C1197 1.427 . S
N1205 C1203 1.384 . S
H1206 C1212 0.930 . S
H1207 C1216 0.930 . S
H1208 C1221 0.929 . S
H1209 C1219 0.929 . S
H1210 C1214 0.929 . S
H1211 C1220 0.929 . S
C1212 H1206 0.930 . S
C1212 C1213 1.367 . S
C1212 C1220 1.378 . S
C1213 C1212 1.367 . S
C1213 C1221 1.433 . S
C1214 H1210 0.929 . S
C1214 C1216 1.378 . S
C1214 C1218 1.350 . S
C1215 C1218 1.463 . S
C1215 C1220 1.350 . S
C1215 N1223 1.427 . S
C1216 H1207 0.930 . S
C1216 C1214 1.378 . S
C1216 C1217 1.367 . S
C1217 C1216 1.367 . S
C1217 C1219 1.433 . S
C1218 C1214 1.350 . S
C1218 C1215 1.463 . S
C1218 N1222 1.427 . S
C1219 H1209 0.929 . S
C1219 C1217 1.433 . S
C1219 N1222 1.384 . S
C1220 H1211 0.929 . S
C1220 C1212 1.378 . S
C1220 C1215 1.350 . S
C1221 H1208 0.929 . S
C1221 C1213 1.433 . S
C1221 N1223 1.384 . S
N1222 C1218 1.427 . S
N1222 C1219 1.384 . S
N1223 C1215 1.427 . S
N1223 C1221 1.384 . S
H1224 C1230 0.930 . S
H1225 C1234 0.930 . S
H1226 C1239 0.929 . S
H1227 C1237 0.929 . S
H1228 C1232 0.929 . S
H1229 C1238 0.929 . S
C1230 H1224 0.930 . S
C1230 C1231 1.367 . S
C1230 C1238 1.378 . S
C1231 C1230 1.367 . S
C1231 C1239 1.433 . S
C1232 H1228 0.929 . S
C1232 C1234 1.378 . S
C1232 C1236 1.350 . S
C1233 C1236 1.463 . S
C1233 C1238 1.350 . S
C1233 N1241 1.427 . S
C1234 H1225 0.930 . S
C1234 C1232 1.378 . S
C1234 C1235 1.367 . S
C1235 C1234 1.367 . S
C1235 C1237 1.433 . S
C1236 C1232 1.350 . S
C1236 C1233 1.463 . S
C1236 N1240 1.427 . S
C1237 H1227 0.929 . S
C1237 C1235 1.433 . S
C1237 N1240 1.384 . S
C1238 H1229 0.929 . S
C1238 C1230 1.378 . S
C1238 C1233 1.350 . S
C1239 H1226 0.929 . S
C1239 C1231 1.433 . S
C1239 N1241 1.384 . S
N1240 C1236 1.427 . S
N1240 C1237 1.384 . S
N1241 C1233 1.427 . S
N1241 C1239 1.384 . S
H1242 C1248 0.930 . S
H1243 C1252 0.930 . S
H1244 C1257 0.929 . S
H1245 C1255 0.929 . S
H1246 C1250 0.929 . S
H1247 C1256 0.929 . S
C1248 H1242 0.930 . S
C1248 C1249 1.367 . S
C1248 C1256 1.378 . S
C1249 C1248 1.367 . S
C1249 C1257 1.433 . S
C1250 H1246 0.929 . S
C1250 C1252 1.378 . S
C1250 C1254 1.350 . S
C1251 C1254 1.463 . S
C1251 C1256 1.350 . S
C1251 N1259 1.427 . S
C1252 H1243 0.930 . S
C1252 C1250 1.378 . S
C1252 C1253 1.367 . S
C1253 C1252 1.367 . S
C1253 C1255 1.433 . S
C1254 C1250 1.350 . S
C1254 C1251 1.463 . S
C1254 N1258 1.427 . S
C1255 H1245 0.929 . S
C1255 C1253 1.433 . S
C1255 N1258 1.384 . S
C1256 H1247 0.929 . S
C1256 C1248 1.378 . S
C1256 C1251 1.350 . S
C1257 H1244 0.929 . S
C1257 C1249 1.433 . S
C1257 N1259 1.384 . S
N1258 C1254 1.427 . S
N1258 C1255 1.384 . S
N1259 C1251 1.427 . S
N1259 C1257 1.384 . S
H1260 C1266 0.930 . S
H1261 C1270 0.930 . S
H1262 C1275 0.929 . S
H1263 C1273 0.929 . S
H1264 C1268 0.929 . S
H1265 C1274 0.929 . S
C1266 H1260 0.930 . S
C1266 C1267 1.367 . S
C1266 C1274 1.378 . S
C1267 C1266 1.367 . S
C1267 C1275 1.433 . S
C1268 H1264 0.929 . S
C1268 C1270 1.378 . S
C1268 C1272 1.350 . S
C1269 C1272 1.463 . S
C1269 C1274 1.350 . S
C1269 N1277 1.427 . S
C1270 H1261 0.930 . S
C1270 C1268 1.378 . S
C1270 C1271 1.367 . S
C1271 C1270 1.367 . S
C1271 C1273 1.433 . S
C1272 C1268 1.350 . S
C1272 C1269 1.463 . S
C1272 N1276 1.427 . S
C1273 H1263 0.929 . S
C1273 C1271 1.433 . S
C1273 N1276 1.384 . S
C1274 H1265 0.929 . S
C1274 C1266 1.378 . S
C1274 C1269 1.350 . S
C1275 H1262 0.929 . S
C1275 C1267 1.433 . S
C1275 N1277 1.384 . S
N1276 C1272 1.427 . S
N1276 C1273 1.384 . S
N1277 C1269 1.427 . S
N1277 C1275 1.384 . S
H1278 C1284 0.930 . S
H1279 C1288 0.930 . S
H1280 C1293 0.929 . S
H1281 C1291 0.929 . S
H1282 C1286 0.929 . S
H1283 C1292 0.929 . S
C1284 H1278 0.930 . S
C1284 C1285 1.367 . S
C1284 C1292 1.378 . S
C1285 C1284 1.367 . S
C1285 C1293 1.433 . S
C1286 H1282 0.929 . S
C1286 C1288 1.378 . S
C1286 C1290 1.350 . S
C1287 C1290 1.463 . S
C1287 C1292 1.350 . S
C1287 N1295 1.427 . S
C1288 H1279 0.930 . S
C1288 C1286 1.378 . S
C1288 C1289 1.367 . S
C1289 C1288 1.367 . S
C1289 C1291 1.433 . S
C1290 C1286 1.350 . S
C1290 C1287 1.463 . S
C1290 N1294 1.427 . S
C1291 H1281 0.929 . S
C1291 C1289 1.433 . S
C1291 N1294 1.384 . S
C1292 H1283 0.929 . S
C1292 C1284 1.378 . S
C1292 C1287 1.350 . S
C1293 H1280 0.929 . S
C1293 C1285 1.433 . S
C1293 N1295 1.384 . S
N1294 C1290 1.427 . S
N1294 C1291 1.384 . S
N1295 C1287 1.427 . S
N1295 C1293 1.384 . S
H1296 C1302 0.930 . S
H1297 C1306 0.930 . S
H1298 C1311 0.929 . S
H1299 C1309 0.929 . S
H1300 C1304 0.929 . S
H1301 C1310 0.929 . S
C1302 H1296 0.930 . S
C1302 C1303 1.367 . S
C1302 C1310 1.378 . S
C1303 C1302 1.367 . S
C1303 C1311 1.433 . S
C1304 H1300 0.929 . S
C1304 C1306 1.378 . S
C1304 C1308 1.350 . S
C1305 C1308 1.463 . S
C1305 C1310 1.350 . S
C1305 N1313 1.427 . S
C1306 H1297 0.930 . S
C1306 C1304 1.378 . S
C1306 C1307 1.367 . S
C1307 C1306 1.367 . S
C1307 C1309 1.433 . S
C1308 C1304 1.350 . S
C1308 C1305 1.463 . S
C1308 N1312 1.427 . S
C1309 H1299 0.929 . S
C1309 C1307 1.433 . S
C1309 N1312 1.384 . S
C1310 H1301 0.929 . S
C1310 C1302 1.378 . S
C1310 C1305 1.350 . S
C1311 H1298 0.929 . S
C1311 C1303 1.433 . S
C1311 N1313 1.384 . S
N1312 C1308 1.427 . S
N1312 C1309 1.384 . S
N1313 C1305 1.427 . S
N1313 C1311 1.384 . S
H1314 C1320 0.930 . S
H1315 C1324 0.930 . S
H1316 C1329 0.929 . S
H1317 C1327 0.929 . S
H1318 C1322 0.929 . S
H1319 C1328 0.929 . S
C1320 H1314 0.930 . S
C1320 C1321 1.367 . S
C1320 C1328 1.378 . S
C1321 C1320 1.367 . S
C1321 C1329 1.433 . S
C1322 H1318 0.929 . S
C1322 C1324 1.378 . S
C1322 C1326 1.350 . S
C1323 C1326 1.463 . S
C1323 C1328 1.350 . S
C1323 N1331 1.427 . S
C1324 H1315 0.930 . S
C1324 C1322 1.378 . S
C1324 C1325 1.367 . S
C1325 C1324 1.367 . S
C1325 C1327 1.433 . S
C1326 C1322 1.350 . S
C1326 C1323 1.463 . S
C1326 N1330 1.427 . S
C1327 H1317 0.929 . S
C1327 C1325 1.433 . S
C1327 N1330 1.384 . S
C1328 H1319 0.929 . S
C1328 C1320 1.378 . S
C1328 C1323 1.350 . S
C1329 H1316 0.929 . S
C1329 C1321 1.433 . S
C1329 N1331 1.384 . S
N1330 C1326 1.427 . S
N1330 C1327 1.384 . S
N1331 C1323 1.427 . S
N1331 C1329 1.384 . S
H1332 C1338 0.930 . S
H1333 C1342 0.930 . S
H1334 C1347 0.929 . S
H1335 C1345 0.929 . S
H1336 C1340 0.929 . S
H1337 C1346 0.929 . S
C1338 H1332 0.930 . S
C1338 C1339 1.367 . S
C1338 C1346 1.378 . S
C1339 C1338 1.367 . S
C1339 C1347 1.433 . S
C1340 H1336 0.929 . S
C1340 C1342 1.378 . S
C1340 C1344 1.350 . S
C1341 C1344 1.463 . S
C1341 C1346 1.350 . S
C1341 N1349 1.427 . S
C1342 H1333 0.930 . S
C1342 C1340 1.378 . S
C1342 C1343 1.367 . S
C1343 C1342 1.367 . S
C1343 C1345 1.433 . S
C1344 C1340 1.350 . S
C1344 C1341 1.463 . S
C1344 N1348 1.427 . S
C1345 H1335 0.929 . S
C1345 C1343 1.433 . S
C1345 N1348 1.384 . S
C1346 H1337 0.929 . S
C1346 C1338 1.378 . S
C1346 C1341 1.350 . S
C1347 H1334 0.929 . S
C1347 C1339 1.433 . S
C1347 N1349 1.384 . S
N1348 C1344 1.427 . S
N1348 C1345 1.384 . S
N1349 C1341 1.427 . S
N1349 C1347 1.384 . S
H1350 C1356 0.930 . S
H1351 C1360 0.930 . S
H1352 C1365 0.929 . S
H1353 C1363 0.929 . S
H1354 C1358 0.929 . S
H1355 C1364 0.929 . S
C1356 H1350 0.930 . S
C1356 C1357 1.367 . S
C1356 C1364 1.378 . S
C1357 C1356 1.367 . S
C1357 C1365 1.433 . S
C1358 H1354 0.929 . S
C1358 C1360 1.378 . S
C1358 C1362 1.350 . S
C1359 C1362 1.463 . S
C1359 C1364 1.350 . S
C1359 N1367 1.427 . S
C1360 H1351 0.930 . S
C1360 C1358 1.378 . S
C1360 C1361 1.367 . S
C1361 C1360 1.367 . S
C1361 C1363 1.433 . S
C1362 C1358 1.350 . S
C1362 C1359 1.463 . S
C1362 N1366 1.427 . S
C1363 H1353 0.929 . S
C1363 C1361 1.433 . S
C1363 N1366 1.384 . S
C1364 H1355 0.929 . S
C1364 C1356 1.378 . S
C1364 C1359 1.350 . S
C1365 H1352 0.929 . S
C1365 C1357 1.433 . S
C1365 N1367 1.384 . S
N1366 C1362 1.427 . S
N1366 C1363 1.384 . S
N1367 C1359 1.427 . S
N1367 C1365 1.384 . S
H1368 C1374 0.930 . S
H1369 C1378 0.930 . S
H1370 C1383 0.929 . S
H1371 C1381 0.929 . S
H1372 C1376 0.929 . S
H1373 C1382 0.929 . S
C1374 H1368 0.930 . S
C1374 C1375 1.367 . S
C1374 C1382 1.378 . S
C1375 C1374 1.367 . S
C1375 C1383 1.433 . S
C1376 H1372 0.929 . S
C1376 C1378 1.378 . S
C1376 C1380 1.350 . S
C1377 C1380 1.463 . S
C1377 C1382 1.350 . S
C1377 N1385 1.427 . S
C1378 H1369 0.930 . S
C1378 C1376 1.378 . S
C1378 C1379 1.367 . S
C1379 C1378 1.367 . S
C1379 C1381 1.433 . S
C1380 C1376 1.350 . S
C1380 C1377 1.463 . S
C1380 N1384 1.427 . S
C1381 H1371 0.929 . S
C1381 C1379 1.433 . S
C1381 N1384 1.384 . S
C1382 H1373 0.929 . S
C1382 C1374 1.378 . S
C1382 C1377 1.350 . S
C1383 H1370 0.929 . S
C1383 C1375 1.433 . S
C1383 N1385 1.384 . S
N1384 C1380 1.427 . S
N1384 C1381 1.384 . S
N1385 C1377 1.427 . S
N1385 C1383 1.384 . S
H1386 C1392 0.930 . S
H1387 C1396 0.930 . S
H1388 C1401 0.929 . S
H1389 C1399 0.929 . S
H1390 C1394 0.929 . S
H1391 C1400 0.929 . S
C1392 H1386 0.930 . S
C1392 C1393 1.367 . S
C1392 C1400 1.378 . S
C1393 C1392 1.367 . S
C1393 C1401 1.433 . S
C1394 H1390 0.929 . S
C1394 C1396 1.378 . S
C1394 C1398 1.350 . S
C1395 C1398 1.463 . S
C1395 C1400 1.350 . S
C1395 N1403 1.427 . S
C1396 H1387 0.930 . S
C1396 C1394 1.378 . S
C1396 C1397 1.367 . S
C1397 C1396 1.367 . S
C1397 C1399 1.433 . S
C1398 C1394 1.350 . S
C1398 C1395 1.463 . S
C1398 N1402 1.427 . S
C1399 H1389 0.929 . S
C1399 C1397 1.433 . S
C1399 N1402 1.384 . S
C1400 H1391 0.929 . S
C1400 C1392 1.378 . S
C1400 C1395 1.350 . S
C1401 H1388 0.929 . S
C1401 C1393 1.433 . S
C1401 N1403 1.384 . S
N1402 C1398 1.427 . S
N1402 C1399 1.384 . S
N1403 C1395 1.427 . S
N1403 C1401 1.384 . S
C601 N335 1.785 . S
C605 N5 1.786 . S
C619 N38 1.782 . S
C623 N368 1.776 . S
C637 N302 1.785 . S
C641 N71 1.786 . S
C655 N467 1.774 . S
C659 N104 1.790 . S
C673 N137 1.775 . S
C677 N401 1.790 . S
C691 N434 1.774 . S
C695 N170 1.790 . S
C709 C193 1.771 . S
C713 C490 1.774 . S
C727 C424 1.779 . S
C731 C127 1.779 . S
C745 C457 1.773 . S
C749 C160 1.771 . S
C763 C61 1.772 . S
C767 C358 1.771 . S
C781 C94 1.780 . S
C785 C391 1.778 . S
C799 C28 1.774 . S
C803 C325 1.772 . S
C817 N533 1.774 . S
C821 N203 1.789 . S
C835 N566 1.780 . S
C839 N236 1.790 . S
C853 N500 1.789 . S
C857 N269 1.781 . S
C871 C259 1.774 . S
C875 C556 1.772 . S
C889 C589 1.779 . S
C893 C292 1.779 . S
C907 C226 1.775 . S
C911 C523 1.772 . S
C925 C17 1.314 . S
C929 C578 1.316 . S
C943 C50 1.319 . S
C947 C512 1.320 . S
C961 C83 1.319 . S
C965 C545 1.319 . S
C979 C248 1.315 . S
C983 C116 1.317 . S
C997 C149 1.318 . S
C1001 C281 1.319 . S
C1015 C182 1.319 . S
C1019 C215 1.319 . S
C1033 C314 1.314 . S
C1037 C446 1.313 . S
C1051 C347 1.316 . S
C1055 C479 1.318 . S
C1069 C380 1.319 . S
C1073 C413 1.318 . S
C1087 N80 1.482 1_545 S
C1091 C8 1.468 . S
C1105 C41 1.465 . S
C1109 N14 1.483 . S
C1123 N47 1.475 . S
C1127 C74 1.461 . S
C1141 N146 1.476 1_455 S
C1145 C107 1.463 . S
C1159 C140 1.458 . S
C1163 N179 1.473 . S
C1177 N113 1.483 . S
C1181 C173 1.469 . S
C1195 C206 1.456 . S
C1199 N278 1.473 . S
C1213 N212 1.482 . S
C1217 C239 1.469 . S
C1231 C272 1.468 . S
C1235 N245 1.483 . S
C1249 C305 1.457 . S
C1253 N344 1.475 . S
C1267 N377 1.474 . S
C1271 C338 1.456 . S
C1285 C371 1.457 . S
C1289 N311 1.473 . S
C1303 C404 1.468 . S
C1307 N476 1.481 . S
C1321 N410 1.474 . S
C1325 C437 1.456 . S
C1339 C470 1.461 . S
C1343 N443 1.475 . S
C1357 C503 1.457 . S
C1361 N542 1.473 . S
C1375 N575 1.475 . S
C1379 C536 1.457 . S
C1393 N509 1.476 . S
C1397 C569 1.463 . S
