# Generated by pormake.
# Topology und, (4)-cn, num edge types: 1
# Building blocks:
#     Node 0, Type 0, BuildingBlock: QUQFOY_clean_sbu_3, # of connection points: 4
#     Node 1, Type 0, BuildingBlock: QUQFOY_clean_sbu_3, # of connection points: 4
#     Node 2, Type 0, BuildingBlock: QUQFOY_clean_sbu_3, # of connection points: 4
#     Node 3, Type 0, BuildingBlock: QUQFOY_clean_sbu_3, # of connection points: 4
#     Node 4, Type 0, BuildingBlock: QUQFOY_clean_sbu_3, # of connection points: 4
#     Node 5, Type 0, BuildingBlock: QUQFOY_clean_sbu_3, # of connection points: 4
#     Node 6, Type 0, BuildingBlock: QUQFOY_clean_sbu_3, # of connection points: 4
#     Node 7, Type 0, BuildingBlock: QUQFOY_clean_sbu_3, # of connection points: 4
#     Node 8, Type 0, BuildingBlock: QUQFOY_clean_sbu_3, # of connection points: 4
#     Node 9, Type 0, BuildingBlock: QUQFOY_clean_sbu_3, # of connection points: 4
#     Node 10, Type 0, BuildingBlock: QUQFOY_clean_sbu_3, # of connection points: 4
#     Node 11, Type 0, BuildingBlock: QUQFOY_clean_sbu_3, # of connection points: 4
#     Node 12, Type 0, BuildingBlock: QUQFOY_clean_sbu_3, # of connection points: 4
#     Node 13, Type 0, BuildingBlock: QUQFOY_clean_sbu_3, # of connection points: 4
#     Node 14, Type 0, BuildingBlock: QUQFOY_clean_sbu_3, # of connection points: 4
#     Node 15, Type 0, BuildingBlock: QUQFOY_clean_sbu_3, # of connection points: 4
#     Edge 16, Type (0, 0), BuildingBlock: ZUJKAS_clean_linker_0, # of connection points: 2
#     Edge 17, Type (0, 0), BuildingBlock: ZUJKAS_clean_linker_0, # of connection points: 2
#     Edge 18, Type (0, 0), BuildingBlock: ZUJKAS_clean_linker_0, # of connection points: 2
#     Edge 19, Type (0, 0), BuildingBlock: ZUJKAS_clean_linker_0, # of connection points: 2
#     Edge 20, Type (0, 0), BuildingBlock: ZUJKAS_clean_linker_0, # of connection points: 2
#     Edge 21, Type (0, 0), BuildingBlock: ZUJKAS_clean_linker_0, # of connection points: 2
#     Edge 22, Type (0, 0), BuildingBlock: ZUJKAS_clean_linker_0, # of connection points: 2
#     Edge 23, Type (0, 0), BuildingBlock: ZUJKAS_clean_linker_0, # of connection points: 2
#     Edge 24, Type (0, 0), BuildingBlock: ZUJKAS_clean_linker_0, # of connection points: 2
#     Edge 25, Type (0, 0), BuildingBlock: ZUJKAS_clean_linker_0, # of connection points: 2
#     Edge 26, Type (0, 0), BuildingBlock: ZUJKAS_clean_linker_0, # of connection points: 2
#     Edge 27, Type (0, 0), BuildingBlock: ZUJKAS_clean_linker_0, # of connection points: 2
#     Edge 28, Type (0, 0), BuildingBlock: ZUJKAS_clean_linker_0, # of connection points: 2
#     Edge 29, Type (0, 0), BuildingBlock: ZUJKAS_clean_linker_0, # of connection points: 2
#     Edge 30, Type (0, 0), BuildingBlock: ZUJKAS_clean_linker_0, # of connection points: 2
#     Edge 31, Type (0, 0), BuildingBlock: ZUJKAS_clean_linker_0, # of connection points: 2
#     Edge 32, Type (0, 0), BuildingBlock: ZUJKAS_clean_linker_0, # of connection points: 2
#     Edge 33, Type (0, 0), BuildingBlock: ZUJKAS_clean_linker_0, # of connection points: 2
#     Edge 34, Type (0, 0), BuildingBlock: ZUJKAS_clean_linker_0, # of connection points: 2
#     Edge 35, Type (0, 0), BuildingBlock: ZUJKAS_clean_linker_0, # of connection points: 2
#     Edge 36, Type (0, 0), BuildingBlock: ZUJKAS_clean_linker_0, # of connection points: 2
#     Edge 37, Type (0, 0), BuildingBlock: ZUJKAS_clean_linker_0, # of connection points: 2
#     Edge 38, Type (0, 0), BuildingBlock: ZUJKAS_clean_linker_0, # of connection points: 2
#     Edge 39, Type (0, 0), BuildingBlock: ZUJKAS_clean_linker_0, # of connection points: 2
#     Edge 40, Type (0, 0), BuildingBlock: ZUJKAS_clean_linker_0, # of connection points: 2
#     Edge 41, Type (0, 0), BuildingBlock: ZUJKAS_clean_linker_0, # of connection points: 2
#     Edge 42, Type (0, 0), BuildingBlock: ZUJKAS_clean_linker_0, # of connection points: 2
#     Edge 43, Type (0, 0), BuildingBlock: ZUJKAS_clean_linker_0, # of connection points: 2
#     Edge 44, Type (0, 0), BuildingBlock: ZUJKAS_clean_linker_0, # of connection points: 2
#     Edge 45, Type (0, 0), BuildingBlock: ZUJKAS_clean_linker_0, # of connection points: 2
#     Edge 46, Type (0, 0), BuildingBlock: ZUJKAS_clean_linker_0, # of connection points: 2
#     Edge 47, Type (0, 0), BuildingBlock: ZUJKAS_clean_linker_0, # of connection points: 2
# Relax obj value: 0.006
# Max RMSD: 0.046
# Mean RMSD: 0.046
data_MOF--net-und--node1-QUQFOY_clean_sbu_3--edge1-ZUJKAS_clean_linker_0
_symmetry_space_group_name_H-M    P1
_symmetry_Int_Tables_number       1
_symmetry_cell_setting            triclinic
loop_
_symmetry_equiv_pos_as_xyz
'x, y, z'
_cell_length_a     79.189076
_cell_length_b     79.167819
_cell_length_c     29.489492
_cell_angle_alpha  90.003507
_cell_angle_beta   89.985575
_cell_angle_gamma 94.658852
loop_
_atom_site_label
_atom_site_type_symbol
_atom_site_fract_x
_atom_site_fract_y
_atom_site_fract_z
_atom_type_partial_charge
C0 C 0.25567 0.31888 0.08484 0.0
O1 O 0.27037 0.32403 0.07081 0.0
Cd2 Cd 0.27453 0.34362 0.00843 0.0
O3 O 0.24257 0.32469 0.06777 0.0
Cd4 Cd 0.2331 0.34506 0.01231 0.0
C5 C 0.2491 0.32116 0.92988 0.0
O6 O 0.25682 0.36605 0.02241 0.0
O7 O 0.23959 0.3709 0.96822 0.0
O8 O 0.21385 0.3504 0.07332 0.0
C9 C 0.25294 0.37556 0.99009 0.0
O10 O 0.2637 0.32689 0.94372 0.0
C11 C 0.20088 0.35136 0.04849 0.0
O12 O 0.23567 0.32508 0.94986 0.0
O13 O 0.20274 0.34911 0.00614 0.0
C14 C 0.92727 0.99185 0.17976 0.0
O15 O 0.92233 0.97728 0.19502 0.0
Cd16 Cd 0.90519 0.97425 0.26252 0.0
O17 O 0.92241 0.00513 0.19835 0.0
Cd18 Cd 0.90433 0.01525 0.25854 0.0
C19 C 0.931 -0.00036 0.33414 0.0
O20 O 0.88229 0.99202 0.25463 0.0
O21 O 0.8811 0.00909 0.31147 0.0
O22 O 0.897 0.03393 0.19831 0.0
C23 C 0.87467 -0.00382 0.29032 0.0
O24 O 0.92449 0.98504 0.32241 0.0
C25 C 0.89737 0.04726 0.22225 0.0
O26 O 0.9266 0.01301 0.31485 0.0
O27 O 0.90106 0.04586 0.26398 0.0
C28 C 0.23111 0.69045 0.58323 0.0
O29 O 0.21658 0.68528 0.56815 0.0
Cd30 Cd 0.21354 0.66712 0.50268 0.0
O31 O 0.24443 0.68517 0.56587 0.0
Cd32 Cd 0.25438 0.66573 0.50847 0.0
C33 C 0.2396 0.69154 0.42942 0.0
O34 O 0.23084 0.64407 0.51371 0.0
O35 O 0.24792 0.64201 0.45727 0.0
O36 O 0.27275 0.65837 0.56948 0.0
C37 C 0.23495 0.63597 0.47878 0.0
O38 O 0.22488 0.6854 0.44126 0.0
C39 C 0.28611 0.65836 0.54575 0.0
O40 O 0.25281 0.68724 0.4497 0.0
O41 O 0.28487 0.66196 0.50391 0.0
C42 C 0.55823 0.01792 0.68039 0.0
O43 O 0.56317 0.03269 0.69424 0.0
Cd44 Cd 0.58149 0.03714 0.75914 0.0
O45 O 0.5637 0.00492 0.69892 0.0
Cd46 Cd 0.58328 -0.00351 0.75787 0.0
C47 C 0.55764 0.01237 0.8359 0.0
O48 O 0.60491 0.02007 0.75089 0.0
O49 O 0.60657 0.00391 0.80947 0.0
O50 O 0.59255 0.97711 0.70147 0.0
C51 C 0.61281 0.01647 0.78663 0.0
O52 O 0.56363 0.02696 0.82257 0.0
C53 C 0.59138 0.96408 0.72669 0.0
O54 O 0.56192 -0.00106 0.81667 0.0
O55 O 0.58615 0.96601 0.767 0.0
C56 C 0.72982 0.68884 0.91993 0.0
O57 O 0.71513 0.68437 0.93517 0.0
Cd58 Cd 0.71134 0.66847 0.00464 0.0
O59 O 0.74291 0.68405 0.93958 0.0
Cd60 Cd 0.75187 0.66663 0.00264 0.0
C61 C 0.73665 0.6948 0.07477 0.0
O62 O 0.7284 0.64488 0.00269 0.0
O63 O 0.7449 0.64562 0.06124 0.0
O64 O 0.76943 0.65293 0.94992 0.0
C65 C 0.73229 0.63842 0.04033 0.0
O66 O 0.72201 0.68847 0.06285 0.0
C67 C 0.78343 0.65685 0.96969 0.0
O68 O 0.75001 0.68981 0.05669 0.0
O69 O 0.78297 0.66565 0.00571 0.0
C70 C 0.05551 0.0164 0.83717 0.0
O71 O 0.06026 0.03117 0.82293 0.0
Cd72 Cd 0.07988 0.03571 0.76065 0.0
O73 O 0.06168 0.00345 0.82027 0.0
Cd74 Cd 0.08225 0.99434 0.76492 0.0
C75 C 0.05822 0.00973 0.68181 0.0
O76 O 0.10267 0.01851 0.77525 0.0
O77 O 0.10828 0.00124 0.7218 0.0
O78 O 0.08785 0.97521 0.82595 0.0
C79 C 0.11246 0.01478 0.7434 0.0
O80 O 0.06356 0.02446 0.69566 0.0
C81 C 0.08869 0.96219 0.80123 0.0
O82 O 0.06241 -0.00355 0.702 0.0
O83 O 0.08637 0.96399 0.75889 0.0
C84 C 0.75567 0.32071 0.42973 0.0
O85 O 0.77029 0.32583 0.44425 0.0
Cd86 Cd 0.77423 0.34408 0.50932 0.0
O87 O 0.74245 0.32589 0.44789 0.0
Cd88 Cd 0.73342 0.34509 0.50714 0.0
C89 C 0.74961 0.31977 0.58549 0.0
O90 O 0.75664 0.36701 0.49977 0.0
O91 O 0.74043 0.36878 0.55817 0.0
O92 O 0.71374 0.35383 0.45079 0.0
C93 C 0.75293 0.37506 0.53513 0.0
O94 O 0.76415 0.32601 0.5725 0.0
C95 C 0.70076 0.35245 0.47619 0.0
O96 O 0.73616 0.32383 0.56599 0.0
O97 O 0.70287 0.34734 0.51652 0.0
C98 C 0.42863 0.99223 0.34145 0.0
O99 O 0.42413 0.97759 0.32595 0.0
Cd100 Cd 0.40696 0.97378 0.25872 0.0
O101 O 0.42321 0.00535 0.32339 0.0
Cd102 Cd 0.40433 0.01421 0.26331 0.0
C103 C 0.43132 3e-05 0.18621 0.0
O104 O 0.38308 0.99028 0.26507 0.0
O105 O 0.38241 0.00702 0.20726 0.0
O106 O 0.39117 0.03135 0.31829 0.0
C107 C 0.37586 0.99418 0.22851 0.0
O108 O 0.42552 0.98521 0.19816 0.0
C109 C 0.39438 0.04542 0.29826 0.0
O110 O 0.42646 0.01314 0.20585 0.0
O111 O 0.40257 0.04519 0.26117 0.0
C112 C 0.75365 0.81798 0.57947 0.0
O113 O 0.76835 0.82332 0.56596 0.0
Cd114 Cd 0.77226 0.84312 0.50414 0.0
O115 O 0.74056 0.82388 0.56259 0.0
Cd116 Cd 0.73151 0.84494 0.50833 0.0
C117 C 0.74663 0.82098 0.42545 0.0
O118 O 0.75524 0.86616 0.5186 0.0
O119 O 0.73877 0.86978 0.46168 0.0
O120 O 0.71271 0.85112 0.56958 0.0
C121 C 0.75154 0.87517 0.48498 0.0
O122 O 0.76131 0.82661 0.43898 0.0
C123 C 0.69961 0.85201 0.54521 0.0
O124 O 0.73333 0.82494 0.44591 0.0
O125 O 0.70119 0.8494 0.50292 0.0
C126 C 0.42991 0.49431 0.68632 0.0
O127 O 0.42528 0.4797 0.70184 0.0
Cd128 Cd 0.40728 0.47577 0.76748 0.0
O129 O 0.42437 0.50749 0.70378 0.0
Cd130 Cd 0.40515 0.51666 0.76271 0.0
C131 C 0.43108 0.50167 0.84183 0.0
O132 O 0.384 0.49275 0.7571 0.0
O133 O 0.38094 0.50995 0.81272 0.0
O134 O 0.39632 0.53556 0.70446 0.0
C135 C 0.37551 0.4967 0.79142 0.0
O136 O 0.42523 0.48691 0.82949 0.0
C137 C 0.39716 0.54876 0.72904 0.0
O138 O 0.42657 0.51487 0.82187 0.0
O139 O 0.40205 0.54716 0.76977 0.0
C140 C 0.73401 0.19103 0.09013 0.0
O141 O 0.71935 0.1861 0.07555 0.0
Cd142 Cd 0.71526 0.16837 0.00956 0.0
O143 O 0.74716 0.18584 0.07159 0.0
Cd144 Cd 0.75596 0.16684 0.01153 0.0
C145 C 0.74023 0.19297 0.93465 0.0
O146 O 0.73251 0.14512 0.01768 0.0
O147 O 0.74863 0.14371 0.95898 0.0
O148 O 0.77529 0.15754 0.06799 0.0
C149 C 0.73611 0.13735 0.98174 0.0
O150 O 0.72564 0.18679 0.94741 0.0
C151 C 0.78834 0.1587 0.04284 0.0
O152 O 0.75363 0.18862 0.95386 0.0
O153 O 0.78645 0.16395 0.00255 0.0
C154 C 0.05835 0.51595 0.17746 0.0
O155 O 0.06353 0.53071 0.19094 0.0
Cd156 Cd 0.08172 0.53515 0.25593 0.0
O157 O 0.06352 0.50291 0.19655 0.0
Cd158 Cd 0.08278 0.49442 0.25629 0.0
C159 C 0.05725 0.51115 0.3331 0.0
O160 O 0.10475 0.51758 0.24784 0.0
O161 O 0.10631 0.5019 0.30735 0.0
O162 O 0.09114 0.47434 0.20042 0.0
C163 C 0.11269 0.51415 0.28363 0.0
O164 O 0.06353 0.52558 0.31937 0.0
C165 C 0.09027 0.4616 0.22668 0.0
O166 O 0.06136 0.49753 0.31451 0.0
O167 O 0.08562 0.46401 0.2673 0.0
C168 C 0.23093 0.1906 0.42769 0.0
O169 O 0.21623 0.18645 0.4433 0.0
Cd170 Cd 0.21199 0.16944 0.51081 0.0
O171 O 0.24392 0.18498 0.44593 0.0
Cd172 Cd 0.25266 0.16628 0.50645 0.0
C173 C 0.23844 0.19353 0.58333 0.0
O174 O 0.22838 0.14553 0.50484 0.0
O175 O 0.24566 0.14362 0.561 0.0
O176 O 0.26976 0.15333 0.45098 0.0
C177 C 0.23228 0.13787 0.54068 0.0
O178 O 0.22361 0.1879 0.57108 0.0
C179 C 0.28383 0.15642 0.47108 0.0
O180 O 0.25155 0.18847 0.56406 0.0
O181 O 0.28362 0.16444 0.50844 0.0
C182 C 0.55861 0.51751 0.34421 0.0
O183 O 0.5638 0.53219 0.33023 0.0
Cd184 Cd 0.58248 0.53596 0.26599 0.0
O185 O 0.56397 0.50437 0.32604 0.0
Cd186 Cd 0.58354 0.49506 0.26811 0.0
C187 C 0.55861 0.51121 0.18887 0.0
O188 O 0.60527 0.51835 0.27745 0.0
O189 O 0.60809 0.502 0.21986 0.0
O190 O 0.58965 0.47553 0.32766 0.0
C191 C 0.61386 0.51467 0.24302 0.0
O192 O 0.56475 0.52574 0.20229 0.0
C193 C 0.58998 0.4626 0.30237 0.0
O194 O 0.56262 0.49772 0.2083 0.0
O195 O 0.58718 0.46463 0.26035 0.0
C196 C 0.2533 0.81937 0.92525 0.0
O197 O 0.26812 0.82433 0.93868 0.0
Cd198 Cd 0.27302 0.84262 0.00341 0.0
O199 O 0.24036 0.82477 0.94431 0.0
Cd200 Cd 0.23228 0.84424 0.00407 0.0
C201 C 0.24883 0.81872 0.08129 0.0
O202 O 0.25575 0.86587 -0.00455 0.0
O203 O 0.24006 0.86779 0.05482 0.0
O204 O 0.21229 0.85332 0.94905 0.0
C205 C 0.25245 0.87392 0.03118 0.0
O206 O 0.26332 0.82476 0.06732 0.0
C207 C 0.19953 0.85213 0.97524 0.0
O208 O 0.23527 0.82295 0.06269 0.0
O209 O 0.20189 0.84698 0.01541 0.0
C210 C 0.92901 0.49424 0.83672 0.0
O211 O 0.9241 0.47968 0.82134 0.0
Cd212 Cd 0.90619 0.47624 0.75546 0.0
O213 O 0.92364 0.5075 0.81932 0.0
Cd214 Cd 0.90431 0.51688 0.76095 0.0
C215 C 0.93029 0.50231 0.68181 0.0
O216 O 0.88284 0.49325 0.76464 0.0
O217 O 0.88147 0.51 0.70711 0.0
O218 O 0.89244 0.53424 0.81772 0.0
C219 C 0.87512 0.49721 0.72894 0.0
O220 O 0.92436 0.48754 0.69391 0.0
C221 C 0.89538 0.54826 0.79726 0.0
O222 O 0.92582 0.51549 0.70194 0.0
O223 O 0.90284 0.5479 0.75909 0.0
H224 H 0.28028 0.30194 0.12653 0.0
H225 H 0.27622 0.27935 0.18324 0.0
H226 H 0.22229 0.28365 0.1806 0.0
H227 H 0.22613 0.30601 0.12384 0.0
H228 H 0.26088 0.28044 0.26977 0.0
H229 H 0.2264 0.23296 0.15777 0.0
H230 H 0.23836 0.25161 0.13604 0.0
H231 H 0.21755 0.25313 0.1593 0.0
C232 C 0.26756 0.29808 0.13802 0.0
C233 C 0.25353 0.3057 0.12042 0.0
C234 C 0.26527 0.28517 0.17035 0.0
C235 C 0.24893 0.27965 0.18536 0.0
C236 C 0.23496 0.28748 0.16864 0.0
H237 H 0.20671 0.20727 0.3835 0.0
H238 H 0.21126 0.22877 0.32402 0.0
C239 C 0.23722 0.30034 0.13638 0.0
C240 C 0.24644 0.26593 0.21925 0.0
H241 H 0.22681 0.22645 0.23646 0.0
C242 C 0.25354 0.26858 0.26247 0.0
C243 C 0.2368 0.25053 0.20949 0.0
C244 C 0.22946 0.24677 0.16302 0.0
C245 C 0.25095 0.25633 0.29665 0.0
C246 C 0.24125 0.24096 0.28695 0.0
C247 C 0.2342 0.23828 0.24369 0.0
C248 C 0.23842 0.22745 0.32131 0.0
C249 C 0.2583 0.26008 0.34313 0.0
C250 C 0.25214 0.21935 0.33845 0.0
C251 C 0.24962 0.20711 0.37228 0.0
C252 C 0.23327 0.20267 0.38947 0.0
C253 C 0.21945 0.21043 0.37111 0.0
C254 C 0.22202 0.22271 0.33719 0.0
H255 H 0.2618 0.27383 0.34803 0.0
H256 H 0.24919 0.25564 0.37006 0.0
H257 H 0.26993 0.2533 0.34736 0.0
H258 H 0.26485 0.22262 0.3259 0.0
H259 H 0.26054 0.2013 0.38536 0.0
H260 H 0.94305 0.97379 0.38265 0.0
H261 H 0.965 0.97571 0.4409 0.0
H262 H 0.9709 0.03 0.42471 0.0
H263 H 0.94877 0.02828 0.36662 0.0
H264 H -0.00114 0.98906 0.43219 0.0
H265 H 0.96416 0.02353 0.56206 0.0
H266 H 0.95371 0.01312 0.51402 0.0
H267 H 0.96539 0.03338 0.50716 0.0
C268 C 0.94893 0.98618 0.39156 0.0
C269 C 0.94409 0.00091 0.37005 0.0
C270 C 0.96149 0.98722 0.42481 0.0
C271 C 0.96941 0.00299 0.43739 0.0
C272 C 0.96471 0.01773 0.41598 0.0
H273 H 0.04752 0.03533 0.62982 0.0
H274 H 0.0267 0.0332 0.56877 0.0
C275 C 0.95211 0.01671 0.38267 0.0
C276 C 0.98283 0.00392 0.47231 0.0
H277 H 0.99298 0.01979 0.57722 0.0
C278 C -0.00241 -0.00427 0.46399 0.0
C279 C 0.98106 0.01262 0.51368 0.0
C280 C 0.96518 0.02105 0.52511 0.0
C281 C 0.01081 -0.00376 0.49576 0.0
C282 C 0.00904 0.00496 0.53708 0.0
C283 C -0.00572 0.01314 0.5454 0.0
C284 C 0.02239 0.0059 0.57221 0.0
C285 C 0.02667 0.98775 0.48449 0.0
C286 C 0.0269 0.99121 0.59422 0.0
C287 C 0.03885 0.99235 0.62921 0.0
C288 C 0.04639 0.00824 0.64291 0.0
C289 C 0.04197 0.02289 0.62023 0.0
C290 C 0.03006 0.02172 0.58533 0.0
H291 H 0.0277 0.98522 0.44757 0.0
H292 H 0.03815 -0.00432 0.49556 0.0
H293 H 0.02642 0.97545 0.5026 0.0
H294 H 0.02089 0.97891 0.58506 0.0
H295 H 0.0419 0.98084 0.64608 0.0
H296 H 0.20589 0.70618 0.62606 0.0
H297 H 0.20925 0.72843 0.6839 0.0
H298 H 0.26339 0.72558 0.68164 0.0
H299 H 0.26025 0.70353 0.62383 0.0
H300 H 0.22502 0.72762 0.77118 0.0
H301 H 0.25732 0.77612 0.65789 0.0
H302 H 0.24573 0.75719 0.63658 0.0
H303 H 0.26675 0.75624 0.65893 0.0
C304 C 0.21851 0.71025 0.63796 0.0
C305 C 0.23281 0.70317 0.62005 0.0
C306 C 0.22039 0.72296 0.67094 0.0
C307 C 0.23659 0.72882 0.68629 0.0
C308 C 0.25082 0.72146 0.66947 0.0
H309 H 0.27762 0.80335 0.87969 0.0
H310 H 0.27321 0.78132 0.82166 0.0
C311 C 0.24897 0.70879 0.63659 0.0
C312 C 0.23868 0.74258 0.72012 0.0
H313 H 0.25687 0.7827 0.73643 0.0
C314 C 0.23188 0.73971 0.7636 0.0
C315 C 0.24767 0.75829 0.70995 0.0
C316 C 0.25468 0.76226 0.6632 0.0
C317 C 0.23418 0.75205 0.79767 0.0
C318 C 0.24325 0.76773 0.78756 0.0
C319 C 0.24997 0.77063 0.74399 0.0
C320 C 0.24589 0.78132 0.82179 0.0
C321 C 0.22724 0.74805 0.84446 0.0
C322 C 0.232 0.78882 0.84021 0.0
C323 C 0.23445 0.80137 0.87329 0.0
C324 C 0.25088 0.80673 0.88837 0.0
C325 C 0.26481 0.79949 0.86893 0.0
C326 C 0.26232 0.7869 0.83581 0.0
H327 H 0.22439 0.7342 0.84955 0.0
H328 H 0.23631 0.75292 0.871 0.0
H329 H 0.21529 0.75425 0.84911 0.0
H330 H 0.21924 0.78492 0.82906 0.0
H331 H 0.22344 0.80676 0.88728 0.0
H332 H 0.44761 0.0293 0.15252 0.0
H333 H 0.46897 0.03188 0.09223 0.0
H334 H 0.4654 0.97752 0.07731 0.0
H335 H 0.44403 0.97478 0.13689 0.0
H336 H 0.5006 0.01728 0.09031 0.0
H337 H 0.45916 -0.00534 0.94728 0.0
H338 H 0.45085 0.00143 0.00073 0.0
H339 H 0.45834 0.98069 -0.00466 0.0
C340 C 0.45129 0.0179 0.13622 0.0
C341 C 0.44405 0.00184 0.14942 0.0
C342 C 0.4635 0.0194 0.10186 0.0
C343 C 0.46854 0.0049 0.07998 0.0
C344 C 0.46142 0.98888 0.09321 0.0
H345 H 0.54104 0.98373 0.87203 0.0
H346 H 0.51992 0.98209 0.93282 0.0
C347 C 0.44926 0.98735 0.12747 0.0
C348 C 0.48165 0.00639 0.04422 0.0
H349 H 0.4888 -0.00264 0.93307 0.0
C350 C 0.49803 0.01305 0.05583 0.0
C351 C 0.4782 0.00078 -0.0006 0.0
C352 C 0.46065 0.99413 0.9847 0.0
C353 C 0.51121 0.01391 0.02392 0.0
C354 C 0.50778 0.0082 0.97917 0.0
C355 C 0.49137 0.00163 0.96751 0.0
C356 C 0.52097 0.00919 0.94363 0.0
C357 C 0.52876 0.02055 0.03858 0.0
C358 C 0.52844 0.02497 0.92954 0.0
C359 C 0.54049 0.02596 0.89493 0.0
C360 C 0.54523 0.01117 0.87354 0.0
C361 C 0.53772 -0.00465 0.88784 0.0
C362 C 0.52564 0.99439 0.92249 0.0
H363 H 0.53018 0.02032 0.07606 0.0
H364 H 0.53852 0.01303 0.02319 0.0
H365 H 0.53121 0.03388 0.02713 0.0
H366 H 0.52475 0.03655 0.94486 0.0
H367 H 0.54595 0.03836 0.88467 0.0
H368 H 0.22049 0.80174 0.11791 0.0
H369 H 0.21931 0.78044 0.17813 0.0
H370 H 0.27375 0.78628 0.18997 0.0
H371 H 0.27513 0.8074 0.12953 0.0
H372 H 0.26041 0.75256 0.18396 0.0
H373 H 0.22697 0.78785 0.31453 0.0
H374 H 0.21652 0.7863 0.26048 0.0
H375 H 0.23684 0.79804 0.26537 0.0
C376 C 0.23221 0.79859 0.13351 0.0
C377 C 0.2479 0.8063 0.11891 0.0
C378 C 0.2315 0.78648 0.16807 0.0
C379 C 0.24643 0.78197 0.18881 0.0
C380 C 0.26208 0.78965 0.17445 0.0
H381 H 0.26856 0.70862 0.39645 0.0
H382 H 0.27071 0.73045 0.33746 0.0
C383 C 0.26283 0.80174 0.13992 0.0
C384 C 0.24582 0.76876 0.22433 0.0
H385 H 0.23032 0.75886 0.32979 0.0
C386 C 0.25393 0.75395 0.21598 0.0
C387 C 0.23735 0.77068 0.26597 0.0
C388 C 0.22904 0.78663 0.27745 0.0
C389 C 0.25346 0.74078 0.24788 0.0
C390 C 0.24488 0.74265 0.28938 0.0
C391 C 0.23686 0.7575 0.29784 0.0
C392 C 0.24376 0.7292 0.32423 0.0
C393 C 0.26178 0.72482 0.2365 0.0
C394 C 0.22789 0.72147 0.33661 0.0
C395 C 0.22659 0.70908 0.37031 0.0
C396 C 0.24117 0.70424 0.39251 0.0
C397 C 0.2571 0.71199 0.37989 0.0
C398 C 0.25836 0.72441 0.34609 0.0
H399 H 0.26439 0.72384 0.19962 0.0
H400 H 0.27401 0.72488 0.25484 0.0
H401 H 0.25369 0.71341 0.24728 0.0
H402 H 0.21647 0.72505 0.32016 0.0
H403 H 0.21412 0.70341 0.37917 0.0
H404 H 0.44038 0.02169 0.38298 0.0
H405 H 0.46229 0.02554 0.44103 0.0
H406 H 0.46665 0.97161 0.44394 0.0
H407 H 0.44483 0.96758 0.38524 0.0
H408 H 0.46365 0.0119 0.52892 0.0
H409 H 0.51537 0.99174 0.41888 0.0
H410 H 0.49519 -0.00311 0.39655 0.0
H411 H 0.49715 0.97675 0.42331 0.0
C412 C 0.44592 0.0106 0.396 0.0
C413 C 0.44094 0.99432 0.37917 0.0
C414 C 0.45844 0.01285 0.42922 0.0
C415 C 0.46626 -0.0011 0.44612 0.0
C416 C 0.46097 0.98257 0.43059 0.0
H417 H 0.54593 0.98819 0.64119 0.0
H418 H 0.52361 0.984 0.58434 0.0
C419 C 0.44843 0.98029 0.39728 0.0
C420 C 0.48006 0.00158 0.47971 0.0
H421 H 0.52221 -0.00253 0.49576 0.0
C422 C 0.47647 0.00878 0.52173 0.0
C423 C 0.49675 -0.00246 0.46998 0.0
C424 C 0.50145 0.99043 0.42462 0.0
C425 C 0.48911 0.01182 0.5547 0.0
C426 C 0.5058 0.00779 0.54496 0.0
C427 C 0.50939 0.00056 0.50297 0.0
C428 C 0.51965 0.01061 0.57834 0.0
C429 C 0.48444 0.01899 0.60001 0.0
C430 C 0.52504 0.02703 0.59302 0.0
C431 C 0.53783 0.02951 0.62558 0.0
C432 C 0.54546 0.01559 0.64382 0.0
C433 C 0.54029 -0.0008 0.62804 0.0
C434 C 0.52754 -0.00324 0.59552 0.0
H435 H 0.47053 0.01772 0.60579 0.0
H436 H 0.49071 0.01256 0.6281 0.0
H437 H 0.48878 0.03267 0.6012 0.0
H438 H 0.51929 0.03791 0.57944 0.0
H439 H 0.54156 0.04229 0.63685 0.0
H440 H 0.26763 0.21044 0.61574 0.0
H441 H 0.27005 0.23222 0.67506 0.0
H442 H 0.21578 0.22761 0.69187 0.0
H443 H 0.21319 0.20587 0.63332 0.0
H444 H 0.2545 0.26357 0.67555 0.0
H445 H 0.23386 0.22278 0.8217 0.0
H446 H 0.24068 0.21425 0.76856 0.0
H447 H 0.21967 0.22107 0.77412 0.0
C448 C 0.25623 0.21398 0.63231 0.0
C449 C 0.24023 0.20636 0.61986 0.0
C450 C 0.25764 0.22642 0.66608 0.0
C451 C 0.24311 0.23131 0.68815 0.0
C452 C 0.22716 0.22377 0.6758 0.0
H453 H 0.2206 0.30411 0.89416 0.0
H454 H 0.21923 0.28299 0.83333 0.0
C455 C 0.22573 0.21139 0.6421 0.0
C456 C 0.24444 0.24472 0.72311 0.0
H457 H 0.23554 0.25255 0.83397 0.0
C458 C 0.25049 0.26117 0.71029 0.0
C459 C 0.2391 0.2415 0.76826 0.0
C460 C 0.2331 0.22392 0.78421 0.0
C461 C 0.25099 0.27463 0.74133 0.0
C462 C 0.24553 0.27143 0.7864 0.0
C463 C 0.23959 0.25495 0.79926 0.0
C464 C 0.24627 0.28491 0.82119 0.0
C465 C 0.25697 0.29222 0.7254 0.0
C466 C 0.26192 0.29293 0.83436 0.0
C467 C 0.26276 0.30497 0.86897 0.0
C468 C 0.24794 0.30916 0.8913 0.0
C469 C 0.23224 0.30122 0.87761 0.0
C470 C 0.23143 0.28914 0.84295 0.0
H471 H 0.25646 0.29331 0.68786 0.0
H472 H 0.24922 0.30184 0.74054 0.0
H473 H 0.27032 0.29518 0.73612 0.0
H474 H 0.27354 0.28959 0.81856 0.0
H475 H 0.27508 0.31078 0.87869 0.0
H476 H 0.03802 0.04056 0.87909 0.0
H477 H 0.01593 0.03602 0.93707 0.0
H478 H 0.02122 0.98226 0.93342 0.0
H479 H 0.04333 0.98661 0.87613 0.0
H480 H 0.98491 0.0154 0.92945 0.0
H481 H 0.02509 0.9939 0.06904 0.0
H482 H 0.03385 0.00482 0.01955 0.0
H483 H 0.02694 0.98266 0.0166 0.0
C484 C 0.03457 0.02779 0.89088 0.0
C485 C 0.04249 0.01396 0.87309 0.0
C486 C 0.02195 0.02523 0.9239 0.0
C487 C 0.01715 0.00884 0.93984 0.0
C488 C 0.02499 -0.00497 0.92214 0.0
H489 H 0.94322 0.96695 0.13626 0.0
H490 H 0.96425 0.97062 0.07531 0.0
C491 C 0.03757 -0.00244 0.8892 0.0
C492 C 0.00356 0.00603 0.97401 0.0
H493 H -0.00464 0.99083 0.0807 0.0
C494 C 0.98718 0.01011 0.96262 0.0
C495 C 0.0066 -0.00098 0.01705 0.0
C496 C 0.02409 -0.00503 0.03158 0.0
C497 C 0.97365 0.00716 0.99307 0.0
C498 C 0.97671 0.0002 0.03616 0.0
C499 C 0.99308 -0.00394 0.04747 0.0
C500 C 0.96327 -0.0022 0.07087 0.0
C501 C 0.95617 0.01126 0.97864 0.0
C502 C 0.95584 0.01188 0.08842 0.0
C503 C 0.94388 0.00984 0.1231 0.0
C504 C 0.93918 0.99368 0.14111 0.0
C505 C 0.94651 0.97955 0.12304 0.0
C506 C 0.95854 0.98162 0.08832 0.0
H507 H 0.95509 0.01205 0.94114 0.0
H508 H 0.94636 0.0016 0.99135 0.0
H509 H 0.9535 0.02373 0.99298 0.0
H510 H 0.95957 0.02451 0.07599 0.0
H511 H 0.93852 0.02102 0.13624 0.0
H512 H 0.7593 0.69949 0.877 0.0
H513 H 0.76339 0.72061 0.81694 0.0
H514 H 0.70965 0.72596 0.81424 0.0
H515 H 0.70534 0.70466 0.87431 0.0
H516 H 0.72552 0.72416 0.72674 0.0
H517 H 0.75941 0.77162 0.84028 0.0
H518 H 0.76789 0.75125 0.83928 0.0
H519 H 0.74701 0.75317 0.86158 0.0
C520 C 0.7483 0.70506 0.86354 0.0
C521 C 0.73199 0.7005 0.88079 0.0
C522 C 0.7507 0.71718 0.82935 0.0
C523 C 0.73687 0.72504 0.81192 0.0
C524 C 0.72049 0.72008 0.82763 0.0
H525 H 0.72405 0.80431 0.61662 0.0
H526 H 0.72027 0.78148 0.67211 0.0
C527 C 0.71806 0.70792 0.86189 0.0
C528 C 0.73959 0.73868 0.7779 0.0
H529 H 0.75862 0.7785 0.76224 0.0
C530 C 0.7327 0.73607 0.73444 0.0
C531 C 0.74901 0.75416 0.78822 0.0
C532 C 0.75615 0.75785 0.83496 0.0
C533 C 0.7352 0.74849 0.70063 0.0
C534 C 0.74457 0.76399 0.71101 0.0
C535 C 0.7515 0.76657 0.75445 0.0
C536 C 0.74698 0.77788 0.67758 0.0
C537 C 0.72804 0.74482 0.65392 0.0
C538 C 0.76332 0.78376 0.66337 0.0
C539 C 0.76558 0.79692 0.6318 0.0
C540 C 0.7515 0.80447 0.61417 0.0
C541 C 0.73517 0.79872 0.62924 0.0
C542 C 0.73295 0.78559 0.66074 0.0
H543 H 0.72521 0.73101 0.64822 0.0
H544 H 0.71604 0.75101 0.65015 0.0
H545 H 0.73696 0.74991 0.62725 0.0
H546 H 0.77431 0.77803 0.67636 0.0
H547 H 0.77831 0.80107 0.62098 0.0
H548 H 0.78066 0.30495 0.38615 0.0
H549 H 0.77708 0.2831 0.32737 0.0
H550 H 0.72295 0.28589 0.33151 0.0
H551 H 0.72633 0.30779 0.38968 0.0
H552 H 0.75805 0.25139 0.33557 0.0
H553 H 0.73408 0.28986 0.19572 0.0
H554 H 0.74467 0.29926 0.24492 0.0
H555 H 0.7228 0.29128 0.24824 0.0
C556 C 0.768 0.30105 0.37421 0.0
C557 C 0.75379 0.30815 0.39255 0.0
C558 C 0.76599 0.28855 0.34073 0.0
C559 C 0.74978 0.28306 0.32482 0.0
C560 C 0.73559 0.29019 0.34277 0.0
H561 H 0.7092 0.20675 0.1345 0.0
H562 H 0.71299 0.22845 0.1936 0.0
C563 C 0.73757 0.30265 0.37621 0.0
C564 C 0.74756 0.26933 0.2909 0.0
H565 H 0.73214 0.26002 0.18502 0.0
C566 C 0.75249 0.25327 0.30252 0.0
C567 C 0.74021 0.27186 0.248 0.0
C568 C 0.73526 0.28903 0.23319 0.0
C569 C 0.75 0.23953 0.27256 0.0
C570 C 0.74262 0.24206 0.2297 0.0
C571 C 0.73771 0.25813 0.21806 0.0
C572 C 0.74028 0.22831 0.19585 0.0
C573 C 0.75495 0.22237 0.28736 0.0
C574 C 0.75439 0.22111 0.17767 0.0
C575 C 0.75229 0.20874 0.14403 0.0
C576 C 0.73603 0.2034 0.12772 0.0
C577 C 0.72189 0.21054 0.14638 0.0
C578 C 0.72402 0.22295 0.18006 0.0
H579 H 0.7562 0.22156 0.32481 0.0
H580 H 0.7455 0.21215 0.27579 0.0
H581 H 0.76738 0.22009 0.27212 0.0
H582 H 0.76707 0.22532 0.18885 0.0
H583 H 0.76347 0.20356 0.13032 0.0
H584 H 0.71431 0.20477 0.88594 0.0
H585 H 0.71616 0.22623 0.82645 0.0
H586 H 0.77055 0.23145 0.83979 0.0
H587 H 0.76888 0.21004 0.8999 0.0
H588 H 0.75499 0.26251 0.83929 0.0
H589 H 0.733 0.221 0.69568 0.0
H590 H 0.71924 0.2197 0.7442 0.0
H591 H 0.74021 0.21272 0.74869 0.0
C592 C 0.72671 0.21038 0.87615 0.0
C593 C 0.74147 0.20564 0.89764 0.0
C594 C 0.72772 0.22259 0.84194 0.0
C595 C 0.7435 0.23022 0.82837 0.0
C596 C 0.75827 0.2256 0.84971 0.0
H597 H 0.77565 0.30845 0.63473 0.0
H598 H 0.77398 0.28716 0.69469 0.0
C599 C 0.75728 0.21335 0.88397 0.0
C600 C 0.74448 0.24345 0.79292 0.0
H601 H 0.73527 0.25065 0.68191 0.0
C602 C 0.75079 0.25993 0.80479 0.0
C603 C 0.73889 0.23999 0.7481 0.0
C604 C 0.73259 0.22237 0.73315 0.0
C605 C 0.75138 0.27317 0.7731 0.0
C606 C 0.74577 0.26971 0.72828 0.0
C607 C 0.73948 0.25323 0.71641 0.0
C608 C 0.74665 0.28295 0.69285 0.0
C609 C 0.75767 0.2908 0.78804 0.0
C610 C 0.73184 0.28741 0.67144 0.0
C611 C 0.73273 0.29954 0.63691 0.0
C612 C 0.74849 0.30732 0.62302 0.0
C613 C 0.76329 0.30278 0.64467 0.0
C614 C 0.76238 0.29068 0.67915 0.0
H615 H 0.75728 0.29216 0.82552 0.0
H616 H 0.77101 0.29348 0.77695 0.0
H617 H 0.75003 0.30044 0.77255 0.0
H618 H 0.71959 0.28149 0.68145 0.0
H619 H 0.72109 0.3027 0.62088 0.0
H620 H 0.71079 0.70801 0.12044 0.0
H621 H 0.71274 0.73027 0.17778 0.0
H622 H 0.76721 0.73423 0.1665 0.0
H623 H 0.76543 0.71201 0.10853 0.0
H624 H 0.72991 0.73004 0.26141 0.0
H625 H 0.75466 0.78353 0.15166 0.0
H626 H 0.74513 0.76383 0.1289 0.0
H627 H 0.7665 0.76511 0.14987 0.0
C628 C 0.72321 0.71362 0.12992 0.0
C629 C 0.73797 0.70825 0.10974 0.0
C630 C 0.72428 0.72635 0.16274 0.0
C631 C 0.74009 0.73402 0.17586 0.0
C632 C 0.75487 0.72865 0.15615 0.0
H633 H 0.77236 0.80973 0.37487 0.0
H634 H 0.77027 0.78883 0.31393 0.0
C635 C 0.75383 0.71589 0.12325 0.0
C636 C 0.74102 0.74729 0.21121 0.0
H637 H 0.7531 0.78903 0.23048 0.0
C638 C 0.73492 0.74296 0.25469 0.0
C639 C 0.74757 0.76409 0.20214 0.0
C640 C 0.75372 0.76953 0.15554 0.0
C641 C 0.73544 0.75496 0.28972 0.0
C642 C 0.74195 0.77178 0.28065 0.0
C643 C 0.74806 0.77611 0.23717 0.0
C644 C 0.74293 0.78496 0.31627 0.0
C645 C 0.7294 0.74944 0.33637 0.0
C646 C 0.7282 0.78994 0.33707 0.0
C647 C 0.72932 0.80189 0.37208 0.0
C648 C 0.74522 0.80909 0.38664 0.0
C649 C 0.75991 0.80439 0.36469 0.0
C650 C 0.75876 0.79246 0.32979 0.0
H651 H 0.72861 0.73543 0.3402 0.0
H652 H 0.73796 0.7552 0.36298 0.0
H653 H 0.71656 0.75369 0.34217 0.0
H654 H 0.71584 0.78451 0.32644 0.0
H655 H 0.71776 0.8053 0.38805 0.0
H656 H 0.54138 0.4828 0.1533 0.0
H657 H 0.51996 0.48152 0.09336 0.0
H658 H 0.52635 0.53588 0.07937 0.0
H659 H 0.5476 0.53737 0.13946 0.0
H660 H 0.49248 0.52284 0.08675 0.0
H661 H 0.52707 0.48852 0.95643 0.0
H662 H 0.52563 0.47837 0.01092 0.0
H663 H 0.5375 0.49858 0.005 0.0
C664 C 0.53834 0.49448 0.13725 0.0
C665 C 0.54623 0.51018 0.15118 0.0
C666 C 0.52615 0.49371 0.10288 0.0
C667 C 0.52175 0.5086 0.08167 0.0
C668 C 0.52964 0.52426 0.09528 0.0
H669 H 0.44811 0.53068 0.87476 0.0
H670 H 0.46994 0.53286 0.93373 0.0
C671 C 0.5418 0.52505 0.1296 0.0
C672 C 0.50844 0.50795 0.04644 0.0
H673 H 0.49815 0.49218 0.94151 0.0
C674 C 0.49373 0.51622 0.05486 0.0
C675 C 0.51016 0.49931 0.00498 0.0
C676 C 0.526 0.49081 0.99346 0.0
C677 C 0.48049 0.51576 0.0232 0.0
C678 C 0.48217 0.50703 0.98185 0.0
C679 C 0.49692 0.49885 0.97333 0.0
C680 C 0.46865 0.50592 0.94721 0.0
C681 C 0.46464 0.52425 0.03469 0.0
C682 C 0.46088 0.49004 0.93499 0.0
C683 C 0.4485 0.48873 0.90127 0.0
C684 C 0.4437 0.50329 0.8789 0.0
C685 C 0.45145 0.51923 0.89145 0.0
C686 C 0.46387 0.52051 0.92525 0.0
H687 H 0.46375 0.52692 0.07157 0.0
H688 H 0.46478 0.53648 0.01627 0.0
H689 H 0.45314 0.51625 0.02412 0.0
H690 H 0.46444 0.47863 0.95151 0.0
H691 H 0.44282 0.47625 0.89251 0.0
H692 H 0.04595 0.5376 0.3808 0.0
H693 H 0.02473 0.53641 0.44099 0.0
H694 H 0.0186 0.48195 0.42957 0.0
H695 H 0.03999 0.48294 0.36958 0.0
H696 H 0.99089 0.52315 0.43533 0.0
H697 H 0.0263 0.48985 0.56587 0.0
H698 H 0.03644 0.49964 0.51653 0.0
H699 H 0.02467 0.47932 0.51191 0.0
C700 C 0.04019 0.52533 0.39121 0.0
C701 C 0.04472 0.51034 0.37042 0.0
C702 C 0.02805 0.5247 0.42559 0.0
C703 C 0.02027 0.5091 0.44002 0.0
C704 C 0.02471 0.4941 0.41943 0.0
H705 H 0.94217 0.4769 0.63136 0.0
H706 H 0.96365 0.47933 0.57197 0.0
C707 C 0.03688 0.49471 0.38502 0.0
C708 C 0.00711 0.50859 0.47567 0.0
H709 H -0.00265 0.49325 0.58137 0.0
C710 C 0.99231 0.51671 0.4674 0.0
C711 C 0.00908 0.50018 0.51738 0.0
C712 C 0.02503 0.49187 0.52878 0.0
C713 C 0.97919 0.5163 0.49944 0.0
C714 C 0.9811 0.50777 0.54099 0.0
C715 C -0.00405 0.49976 0.54938 0.0
C716 C 0.96767 0.50663 0.57592 0.0
C717 C 0.96322 0.52462 0.48815 0.0
C718 C 0.96285 0.52122 0.59782 0.0
C719 C 0.95052 0.51991 0.63186 0.0
C720 C 0.94289 0.50395 0.64468 0.0
C721 C 0.94775 0.48939 0.62239 0.0
C722 C 0.96005 0.49073 0.58845 0.0
H723 H 0.96221 0.52722 0.45127 0.0
H724 H 0.95182 0.51653 0.499 0.0
H725 H 0.96329 0.53686 0.50648 0.0
H726 H 0.96881 0.53359 0.58909 0.0
H727 H 0.94713 0.53136 0.64847 0.0
H728 H 0.04249 0.54054 0.13252 0.0
H729 H 0.02034 0.53642 0.07473 0.0
H730 H 0.02362 0.48237 0.0809 0.0
H731 H 0.04557 0.48627 0.13885 0.0
H732 H 0.02127 0.52031 0.98913 0.0
H733 H 0.97307 0.48778 0.10296 0.0
H734 H 0.99193 0.49953 0.12411 0.0
H735 H 0.99304 0.47852 0.10181 0.0
C736 C 0.03854 0.52778 0.12151 0.0
C737 C 0.04571 0.51373 0.14057 0.0
C738 C 0.02588 0.52546 0.08854 0.0
C739 C 0.02016 0.50908 0.07429 0.0
C740 C 0.02762 0.49508 0.09224 0.0
H741 H 0.94487 0.46915 0.8796 0.0
H742 H 0.96712 0.47266 0.93733 0.0
C743 C 0.04023 0.49737 0.12518 0.0
C744 C 0.00645 0.50661 0.0404 0.0
H745 H 0.96629 0.48843 0.02468 0.0
C746 C 0.00922 0.5134 -0.00312 0.0
C747 C 0.99078 0.49754 0.05075 0.0
C748 C 0.98691 0.49054 0.09754 0.0
C749 C -0.00321 0.51117 0.96308 0.0
C750 C 0.98112 0.50215 0.97347 0.0
C751 C 0.97836 0.4953 0.01693 0.0
C752 C 0.96731 0.49998 0.93982 0.0
C753 C 0.00062 0.51824 0.91634 0.0
C754 C 0.95982 0.51416 0.9231 0.0
C755 C 0.94714 0.51222 0.89028 0.0
C756 C 0.94164 0.49603 0.8737 0.0
C757 C 0.94884 0.48178 0.89154 0.0
C758 C 0.96155 0.48376 0.92446 0.0
H759 H 0.01445 0.521 0.91084 0.0
H760 H -0.00444 0.50928 0.88973 0.0
H761 H -0.00551 0.53026 0.91224 0.0
H762 H 0.96387 0.52675 0.93529 0.0
H763 H 0.9418 0.52346 0.87756 0.0
H764 H 0.44191 0.52364 0.64461 0.0
H765 H 0.46345 0.5272 0.58549 0.0
H766 H 0.4679 0.47328 0.58444 0.0
H767 H 0.44618 0.4695 0.64346 0.0
H768 H 0.49697 0.51792 0.59199 0.0
H769 H 0.46203 0.48508 0.44955 0.0
H770 H 0.45154 0.49193 0.4999 0.0
H771 H 0.46263 0.47302 0.50106 0.0
C772 C 0.44733 0.51248 0.63161 0.0
C773 C 0.4423 0.49626 0.64876 0.0
C774 C 0.45966 0.51457 0.59786 0.0
C775 C 0.46712 0.5005 0.5804 0.0
C776 C 0.46206 0.48426 0.59701 0.0
H777 H 0.54606 0.48801 0.38407 0.0
H778 H 0.52434 0.48429 0.44269 0.0
C779 C 0.44971 0.48215 0.63084 0.0
C780 C 0.48071 0.50297 0.54615 0.0
H781 H 0.49106 0.49353 0.4373 0.0
C782 C 0.49569 0.51265 0.55809 0.0
C783 C 0.47894 0.49604 0.50209 0.0
C784 C 0.46288 0.48605 0.48708 0.0
C785 C 0.50911 0.51538 0.52723 0.0
C786 C 0.50732 0.50848 0.48313 0.0
C787 C 0.49235 0.49879 0.47121 0.0
C788 C 0.5209 0.51102 0.44884 0.0
C789 C 0.52519 0.5253 0.54237 0.0
C790 C 0.52613 0.52731 0.43289 0.0
C791 C 0.53861 0.52952 0.39939 0.0
C792 C 0.54594 0.51543 0.38108 0.0
C793 C 0.54068 0.49914 0.39739 0.0
C794 C 0.52826 0.49697 0.43086 0.0
H795 H 0.5261 0.52606 0.57993 0.0
H796 H 0.53652 0.51952 0.52915 0.0
H797 H 0.52539 0.53842 0.52898 0.0
H798 H 0.52037 0.53829 0.44583 0.0
H799 H 0.5423 0.54221 0.3874 0.0
H800 H 0.09536 0.4517 0.13972 0.0
H801 H 0.10861 0.42656 0.11446 0.0
H802 H 0.11117 0.40937 0.25284 0.0
H803 H 0.09778 0.43455 0.27854 0.0
H804 H 0.14272 0.41446 0.20507 0.0
H805 H 0.09502 0.37476 0.10599 0.0
H806 H 0.09604 0.397 0.09298 0.0
H807 H 0.0893 0.38979 0.14837 0.0
C808 C 0.09837 0.44238 0.16472 0.0
C809 C 0.09567 0.44515 0.21115 0.0
C810 C 0.1058 0.42794 0.15016 0.0
C811 C 0.11069 0.41604 0.18175 0.0
C812 C 0.10729 0.41835 0.22795 0.0
H813 H 0.19024 0.34765 0.13589 0.0
H814 H 0.16618 0.36006 0.17114 0.0
C815 C 0.09969 0.43273 0.24255 0.0
C816 C 0.1217 0.40287 0.16705 0.0
H817 H 0.12414 0.36988 0.09344 0.0
C818 C 0.13862 0.40448 0.18138 0.0
C819 C 0.11629 0.39008 0.13566 0.0
C820 C 0.09813 0.38766 0.12005 0.0
C821 C 0.15055 0.39419 0.16343 0.0
C822 C 0.14525 0.38151 0.13137 0.0
C823 C 0.12816 0.37954 0.11814 0.0
C824 C 0.15759 0.37113 0.10902 0.0
C825 C 0.16889 0.39772 0.17704 0.0
C826 C 0.15996 0.37217 0.06187 0.0
C827 C 0.17347 0.36473 0.04145 0.0
C828 C 0.18489 0.35634 0.06806 0.0
C829 C 0.18177 0.35429 0.11472 0.0
C830 C 0.16809 0.36143 0.13492 0.0
H831 H 0.17136 0.41045 0.19267 0.0
H832 H 0.17221 0.38818 0.20239 0.0
H833 H 0.17742 0.39694 0.14734 0.0
H834 H 0.15193 0.3795 0.04119 0.0
H835 H 0.17557 0.36645 0.00539 0.0
H836 H 0.78084 0.88847 0.52483 0.0
H837 H 0.80068 0.91123 0.49567 0.0
H838 H 0.76799 0.91718 0.38077 0.0
H839 H 0.74799 0.89473 0.41002 0.0
H840 H 0.81745 0.91069 0.41488 0.0
H841 H 0.77879 0.96594 0.42098 0.0
H842 H 0.77297 0.94648 0.45114 0.0
H843 H 0.7685 0.94812 0.39156 0.0
C844 C 0.77776 0.89481 0.49373 0.0
C845 C 0.76286 0.88981 0.4697 0.0
C846 C 0.78911 0.90779 0.47711 0.0
C847 C 0.7857 0.91602 0.43636 0.0
C848 C 0.77069 0.91126 0.41279 0.0
H849 H 0.85942 0.96682 0.2553 0.0
H850 H 0.83739 0.94775 0.29083 0.0
C851 C 0.75932 0.89834 0.42942 0.0
C852 C 0.79843 0.92865 0.41664 0.0
H853 H 0.80406 0.96912 0.37625 0.0
C854 C 0.81457 0.92351 0.40675 0.0
C855 C 0.79467 0.94539 0.40644 0.0
C856 C 0.77785 0.95189 0.41848 0.0
C857 C 0.82697 0.93457 0.38601 0.0
C858 C 0.82298 0.95107 0.37401 0.0
C859 C 0.80698 0.95636 0.38489 0.0
C860 C 0.83541 0.96312 0.351 0.0
C861 C 0.8443 0.92853 0.37762 0.0
C862 C 0.84106 0.97838 0.37228 0.0
C863 C 0.85352 0.98935 0.35193 0.0
C864 C 0.86051 0.98526 0.30987 0.0
C865 C 0.85437 0.97025 0.28786 0.0
C866 C 0.84187 0.9593 0.30822 0.0
H867 H 0.84663 0.91743 0.39914 0.0
H868 H 0.84526 0.92463 0.34162 0.0
H869 H 0.85441 0.93878 0.38433 0.0
H870 H 0.83614 0.98159 0.40519 0.0
H871 H 0.85793 0.00086 0.36965 0.0
H872 H 0.29479 0.65879 0.63487 0.0
H873 H 0.31893 0.64647 0.66964 0.0
H874 H 0.33676 0.63305 0.53715 0.0
H875 H 0.31297 0.64601 0.5021 0.0
H876 H 0.32266 0.6141 0.66515 0.0
H877 H 0.38092 0.64798 0.59648 0.0
H878 H 0.3604 0.65623 0.59145 0.0
H879 H 0.36674 0.64051 0.55213 0.0
C880 C 0.3041 0.65359 0.6131 0.0
C881 C 0.30198 0.65325 0.56582 0.0
C882 C 0.3179 0.64658 0.63301 0.0
C883 C 0.32975 0.63893 0.60607 0.0
C884 C 0.32805 0.63925 0.55864 0.0
H885 H 0.38992 0.55649 0.64156 0.0
H886 H 0.37603 0.58103 0.61445 0.0
C887 C 0.31437 0.64653 0.53863 0.0
C888 C 0.34228 0.62856 0.62777 0.0
H889 H 0.38392 0.62007 0.62755 0.0
C890 C 0.33611 0.61567 0.65761 0.0
C891 C 0.35982 0.63052 0.61777 0.0
C892 C 0.36738 0.64468 0.58806 0.0
C893 C 0.34683 0.60431 0.67631 0.0
C894 C 0.36421 0.60589 0.66502 0.0
C895 C 0.37055 0.61898 0.63611 0.0
C896 C 0.37548 0.59306 0.68018 0.0
C897 C 0.33939 0.59021 0.70656 0.0
C898 C 0.38021 0.59205 0.72588 0.0
C899 C 0.38817 0.57804 0.74155 0.0
C900 C 0.39136 0.56481 0.7117 0.0
C901 C 0.38751 0.56641 0.66544 0.0
C902 C 0.37966 0.58046 0.64981 0.0
H903 H 0.32534 0.58967 0.70797 0.0
H904 H 0.34319 0.5778 0.69441 0.0
H905 H 0.34438 0.59217 0.74149 0.0
H906 H 0.37703 0.60171 0.74974 0.0
H907 H 0.39104 0.57717 0.77734 0.0
H908 H 0.70724 0.12245 0.02024 0.0
H909 H 0.6877 0.10014 0.98776 0.0
H910 H 0.71984 0.09804 0.87013 0.0
H911 H 0.73956 0.12011 0.90258 0.0
H912 H 0.67051 0.10239 0.90676 0.0
H913 H 0.71062 0.04809 0.90398 0.0
H914 H 0.71589 0.06692 0.9373 0.0
H915 H 0.72021 0.06691 0.87744 0.0
C916 C 0.71027 0.11707 0.98775 0.0
C917 C 0.72493 0.12303 0.96395 0.0
C918 C 0.69908 0.10436 0.96924 0.0
C919 C 0.70243 0.09733 0.9268 0.0
C920 C 0.7172 0.10305 0.90332 0.0
H921 H 0.62727 0.04577 0.74909 0.0
H922 H 0.6497 0.06519 0.78171 0.0
C923 C 0.7284 0.11574 0.92182 0.0
C924 C 0.68991 0.08484 0.90575 0.0
H925 H 0.68469 0.04472 0.86279 0.0
C926 C 0.67357 0.08975 0.89729 0.0
C927 C 0.69395 0.06835 0.89377 0.0
C928 C 0.71107 0.06216 0.90393 0.0
C929 C 0.66118 0.07866 0.87668 0.0
C930 C 0.66536 0.06235 0.86346 0.0
C931 C 0.68163 0.05734 0.87245 0.0
C932 C 0.65277 0.05009 0.84188 0.0
C933 C 0.64363 0.08439 0.87 0.0
C934 C 0.64756 0.03491 0.86416 0.0
C935 C 0.63487 0.02377 0.84553 0.0
C936 C 0.62719 0.0276 0.8042 0.0
C937 C 0.63287 0.04253 0.78112 0.0
C938 C 0.6456 0.05367 0.79979 0.0
H939 H 0.64142 0.09553 0.89149 0.0
H940 H 0.64206 0.08807 0.83403 0.0
H941 H 0.6338 0.07401 0.878 0.0
H942 H 0.65302 0.03191 0.89658 0.0
H943 H 0.63083 0.01233 0.86403 0.0
H944 H 0.12779 0.54255 0.24311 0.0
H945 H 0.15062 0.56196 0.27371 0.0
H946 H 0.15299 0.5305 0.39257 0.0
H947 H 0.13042 0.51091 0.362 0.0
H948 H 0.1492 0.57978 0.35342 0.0
H949 H 0.20274 0.53881 0.35729 0.0
H950 H 0.18369 0.5335 0.3249 0.0
H951 H 0.18401 0.52957 0.38495 0.0
C952 C 0.13334 0.53964 0.27546 0.0
C953 C 0.12731 0.52521 0.30017 0.0
C954 C 0.14636 0.55074 0.29289 0.0
C955 C 0.15362 0.54755 0.33513 0.0
C956 C 0.14782 0.53301 0.35948 0.0
H957 H 0.20505 0.6219 0.51369 0.0
H958 H 0.18565 0.5999 0.47924 0.0
C959 C 0.13483 0.52189 0.34207 0.0
C960 C 0.16636 0.56004 0.35528 0.0
H961 H 0.20637 0.56469 0.39906 0.0
C962 C 0.16174 0.57652 0.36313 0.0
C963 C 0.18275 0.55577 0.36756 0.0
C964 C 0.18868 0.5385 0.35787 0.0
C965 C 0.17296 0.5888 0.38376 0.0
C966 C 0.1891 0.58434 0.39766 0.0
C967 C 0.19388 0.56797 0.38894 0.0
C968 C 0.20134 0.59669 0.42025 0.0
C969 C 0.16751 0.60649 0.38996 0.0
C970 C 0.21684 0.60165 0.39931 0.0
C971 C 0.228 0.6141 0.41904 0.0
C972 C 0.22383 0.62177 0.46013 0.0
C973 C 0.20856 0.61631 0.48188 0.0
C974 C 0.19743 0.60383 0.46214 0.0
H975 H 0.15669 0.60892 0.36756 0.0
H976 H 0.16344 0.6081 0.4256 0.0
H977 H 0.17814 0.61615 0.38282 0.0
H978 H 0.22012 0.5962 0.36709 0.0
H979 H 0.2397 0.61798 0.40154 0.0
H980 H 0.59628 0.93565 0.77638 0.0
H981 H 0.60952 0.91041 0.75037 0.0
H982 H 0.6125 0.93064 0.61462 0.0
H983 H 0.59934 0.95583 0.64012 0.0
H984 H 0.60296 0.89281 0.62524 0.0
H985 H 0.66152 0.91865 0.7147 0.0
H986 H 0.64203 0.91657 0.74638 0.0
H987 H 0.64457 0.93172 0.70118 0.0
C988 C 0.59946 0.93456 0.74084 0.0
C989 C 0.59699 0.94781 0.71039 0.0
C990 C 0.607 0.92015 0.72608 0.0
C991 C 0.61205 0.91879 0.68071 0.0
C992 C 0.60863 0.93149 0.64975 0.0
H993 H 0.67367 0.86615 0.50218 0.0
H994 H 0.65008 0.87918 0.5379 0.0
C995 C 0.60121 0.9459 0.66446 0.0
C996 C 0.62269 0.9053 0.66628 0.0
H997 H 0.66348 0.89464 0.66978 0.0
C998 C 0.61614 0.89298 0.63538 0.0
C999 C 0.63984 0.90564 0.67967 0.0
C1000 C 0.64754 0.91887 0.71212 0.0
C1001 C 0.62646 0.8811 0.61684 0.0
C1002 C 0.64383 0.88194 0.62866 0.0
C1003 C 0.65016 0.89394 0.66078 0.0
C1004 C 0.65612 0.8715 0.60615 0.0
C1005 C 0.61864 0.86784 0.58476 0.0
C1006 C 0.66738 0.86281 0.63246 0.0
C1007 C 0.6811 0.85575 0.61223 0.0
C1008 C 0.68372 0.85709 0.56521 0.0
C1009 C 0.67187 0.86484 0.53847 0.0
C1010 C 0.65829 0.87217 0.55885 0.0
H1011 H 0.60494 0.86495 0.59207 0.0
H1012 H 0.61976 0.87273 0.54953 0.0
H1013 H 0.62507 0.85591 0.58681 0.0
H1014 H 0.66599 0.86215 0.66899 0.0
H1015 H 0.68999 0.84975 0.63362 0.0
H1016 H 0.35106 0.50457 0.85097 0.0
H1017 H 0.32888 0.48526 0.88485 0.0
H1018 H 0.34666 0.44374 0.8083 0.0
H1019 H 0.36836 0.46315 0.7728 0.0
H1020 H 0.3134 0.44178 0.809 0.0
H1021 H 0.33635 0.45269 0.9849 0.0
H1022 H 0.33093 0.47179 0.95783 0.0
H1023 H 0.34822 0.46071 0.93624 0.0
C1024 C 0.35015 0.49133 0.84121 0.0
C1025 C 0.36147 0.48531 0.80952 0.0
C1026 C 0.33758 0.48029 0.86088 0.0
C1027 C 0.33641 0.46297 0.85007 0.0
C1028 C 0.34741 0.45704 0.81739 0.0
H1029 H 0.28672 0.38135 0.0078 0.0
H1030 H 0.30653 0.40309 0.97388 0.0
C1031 C 0.35978 0.46814 0.7971 0.0
C1032 C 0.32377 0.45096 0.87273 0.0
H1033 H 0.30996 0.43648 0.97642 0.0
C1034 C 0.31267 0.44059 0.84561 0.0
C1035 C 0.32302 0.44923 0.9205 0.0
C1036 C 0.33538 0.45907 0.95155 0.0
C1037 C 0.30083 0.42854 0.86487 0.0
C1038 C 0.29963 0.42728 0.91268 0.0
C1039 C 0.31074 0.43762 0.93981 0.0
C1040 C 0.28739 0.41482 0.9352 0.0
C1041 C 0.29017 0.41693 0.83364 0.0
C1042 C 0.26999 0.41452 0.92582 0.0
C1043 C 0.25871 0.40195 0.94454 0.0
C1044 C 0.26458 0.38975 0.97391 0.0
C1045 C 0.28185 0.39062 0.98528 0.0
C1046 C 0.29318 0.40301 0.96588 0.0
H1047 H 0.29607 0.41612 0.7996 0.0
H1048 H 0.28819 0.40393 0.84787 0.0
H1049 H 0.27761 0.42197 0.82903 0.0
H1050 H 0.26516 0.42384 0.90345 0.0
H1051 H 0.24542 0.40168 0.93568 0.0
H1052 H 0.81659 0.15328 0.993 0.0
H1053 H 0.8415 0.13948 0.0189 0.0
H1054 H 0.82147 0.13722 0.1549 0.0
H1055 H 0.7966 0.15093 0.12951 0.0
H1056 H 0.85977 0.14555 0.14295 0.0
H1057 H 0.83114 0.08758 0.05581 0.0
H1058 H 0.83372 0.10697 0.02381 0.0
H1059 H 0.81885 0.10509 0.06975 0.0
C1060 C 0.81768 0.15017 0.02859 0.0
C1061 C 0.80455 0.15296 0.05913 0.0
C1062 C 0.8319 0.14232 0.04329 0.0
C1063 C 0.8332 0.13728 0.08869 0.0
C1064 C 0.82067 0.14108 0.11976 0.0
H1065 H 0.8847 0.07392 0.26592 0.0
H1066 H 0.87228 0.09801 0.23073 0.0
C1067 C 0.80644 0.14881 0.10511 0.0
C1068 C 0.84628 0.12613 0.10291 0.0
H1069 H 0.85517 0.08478 0.09996 0.0
C1070 C 0.85899 0.13231 0.13314 0.0
C1071 C 0.84514 0.1089 0.08997 0.0
C1072 C 0.83146 0.10161 0.05824 0.0
C1073 C 0.87052 0.12154 0.1514 0.0
C1074 C 0.8689 0.10411 0.14 0.0
C1075 C 0.85647 0.09814 0.10862 0.0
C1076 C 0.87902 0.09144 0.16207 0.0
C1077 C 0.88425 0.12896 0.18266 0.0
C1078 C 0.88696 0.07973 0.13535 0.0
C1079 C 0.89361 0.06574 0.1553 0.0
C1080 C 0.89265 0.06331 0.20243 0.0
C1081 C 0.8857 0.07557 0.22953 0.0
C1082 C 0.87873 0.08943 0.20944 0.0
H1083 H 0.88761 0.14256 0.17497 0.0
H1084 H 0.8796 0.12812 0.21815 0.0
H1085 H 0.89586 0.12204 0.18012 0.0
H1086 H 0.88732 0.081 0.09877 0.0
H1087 H 0.89903 0.05653 0.13364 0.0
H1088 H 0.7863 0.63234 0.90685 0.0
H1089 H 0.81195 0.62117 0.87861 0.0
H1090 H 0.84226 0.65691 0.96146 0.0
H1091 H 0.8163 0.66775 0.99167 0.0
H1092 H 0.83824 0.63507 0.83201 0.0
H1093 H 0.86032 0.61324 -0.0001 0.0
H1094 H 0.83963 0.62075 0.99239 0.0
H1095 H 0.85809 0.63552 -0.00599 0.0
C1096 C 0.7984 0.63787 0.91915 0.0
C1097 C 0.79929 0.65083 0.95177 0.0
C1098 C 0.81309 0.63151 0.9028 0.0
C1099 C 0.82906 0.63806 0.9182 0.0
C1100 C 0.83008 0.6514 0.9498 0.0
H1101 H 0.90409 0.58121 0.7714 0.0
H1102 H 0.89274 0.60686 0.80193 0.0
C1103 C 0.81526 0.65763 0.96687 0.0
C1104 C 0.84428 0.63018 0.90166 0.0
H1105 H 0.87418 0.60419 0.93566 0.0
C1106 C 0.84634 0.62853 0.8546 0.0
C1107 C 0.8549 0.6218 0.93131 0.0
C1108 C 0.85314 0.62277 0.98221 0.0
C1109 C 0.85747 0.61741 0.83634 0.0
C1110 C 0.86735 0.60821 0.8661 0.0
C1111 C 0.86652 0.61119 0.91299 0.0
C1112 C 0.87607 0.59337 0.8504 0.0
C1113 C 0.85741 0.61456 0.7857 0.0
C1114 C 0.87111 0.57741 0.86888 0.0
C1115 C 0.87781 0.56291 0.85233 0.0
C1116 C 0.88951 0.56399 0.81645 0.0
C1117 C 0.89493 0.58001 0.79872 0.0
C1118 C 0.88839 0.59464 0.81597 0.0
H1119 H 0.84685 0.62047 0.76865 0.0
H1120 H 0.86948 0.62022 0.77109 0.0
H1121 H 0.85627 0.6008 0.77776 0.0
H1122 H 0.8616 0.57606 0.89536 0.0
H1123 H 0.87339 0.55077 0.8668 0.0
H1124 H 0.19881 0.13023 0.52228 0.0
H1125 H 0.17947 0.10888 0.55943 0.0
H1126 H 0.22084 0.09291 0.63984 0.0
H1127 H 0.24006 0.11476 0.60424 0.0
H1128 H 0.17818 0.07578 0.56257 0.0
H1129 H 0.18733 0.10042 0.73741 0.0
H1130 H 0.19552 0.112 0.68844 0.0
H1131 H 0.20679 0.09518 0.71194 0.0
C1132 C 0.20377 0.12215 0.54787 0.0
C1133 C 0.22089 0.12422 0.5607 0.0
C1134 C 0.19272 0.10998 0.5691 0.0
C1135 C 0.19862 0.09955 0.60318 0.0
C1136 C 0.21587 0.10117 0.61474 0.0
H1137 H 0.13922 0.00775 0.69066 0.0
H1138 H 0.16105 0.02792 0.65865 0.0
C1139 C 0.22687 0.11355 0.5941 0.0
C1140 C 0.18671 0.08687 0.62608 0.0
H1141 H 0.17191 0.07351 0.72987 0.0
C1142 C 0.17677 0.07532 0.59915 0.0
C1143 C 0.18468 0.08646 0.67379 0.0
C1144 C 0.19401 0.09929 0.70454 0.0
C1145 C 0.1649 0.06334 0.61852 0.0
C1146 C 0.16338 0.06245 0.66633 0.0
C1147 C 0.17326 0.07405 0.69328 0.0
C1148 C 0.15115 0.05 0.68895 0.0
C1149 C 0.15374 0.05216 0.58737 0.0
C1150 C 0.13896 0.05559 0.71881 0.0
C1151 C 0.12675 0.04403 0.73811 0.0
C1152 C 0.12645 0.02672 0.72744 0.0
C1153 C 0.13904 0.02107 0.69895 0.0
C1154 C 0.15143 0.03259 0.68035 0.0
H1155 H 0.15294 0.05782 0.55303 0.0
H1156 H 0.15919 0.03976 0.58355 0.0
H1157 H 0.14071 0.04989 0.60118 0.0
H1158 H 0.13858 0.06896 0.7262 0.0
H1159 H 0.11718 0.04873 0.75995 0.0
H1160 H 0.69229 0.3606 0.38992 0.0
H1161 H 0.66698 0.37373 0.36526 0.0
H1162 H 0.64688 0.36979 0.50106 0.0
H1163 H 0.67225 0.35661 0.52625 0.0
H1164 H 0.62926 0.36446 0.37513 0.0
H1165 H 0.65531 0.42194 0.46907 0.0
H1166 H 0.66823 0.40496 0.45475 0.0
H1167 H 0.65293 0.4022 0.49955 0.0
C1168 C 0.68236 0.36223 0.41443 0.0
C1169 C 0.68435 0.35781 0.46018 0.0
C1170 C 0.66787 0.36963 0.40019 0.0
C1171 C 0.65519 0.37281 0.43145 0.0
C1172 C 0.65661 0.36746 0.47655 0.0
H1173 H 0.5872 0.45198 0.38984 0.0
H1174 H 0.59902 0.42733 0.42342 0.0
C1175 C 0.6711 0.35996 0.49084 0.0
C1176 C 0.64177 0.38367 0.41783 0.0
H1177 H 0.63137 0.42449 0.4244 0.0
C1178 C 0.62949 0.37753 0.38632 0.0
C1179 C 0.64219 0.40067 0.43256 0.0
C1180 C 0.65539 0.40797 0.46565 0.0
C1181 C 0.61773 0.38813 0.36847 0.0
C1182 C 0.61866 0.40537 0.38165 0.0
C1183 C 0.6306 0.41127 0.41437 0.0
C1184 C 0.6084 0.418 0.35995 0.0
C1185 C 0.60452 0.38075 0.33564 0.0
C1186 C 0.60924 0.42069 0.31285 0.0
C1187 C 0.60223 0.43464 0.29348 0.0
C1188 C 0.59465 0.44635 0.32108 0.0
C1189 C 0.59309 0.44321 0.36783 0.0
C1190 C 0.59981 0.42912 0.38703 0.0
H1191 H 0.60149 0.36699 0.34193 0.0
H1192 H 0.59265 0.38726 0.33796 0.0
H1193 H 0.60952 0.38217 0.30058 0.0
H1194 H 0.61618 0.41259 0.29135 0.0
H1195 H 0.60369 0.43684 0.25738 0.0
H1196 H 0.3596 -0.00165 0.14814 0.0
H1197 H 0.33735 0.97929 0.11377 0.0
H1198 H 0.3378 0.94635 0.23018 0.0
H1199 H 0.36025 0.96521 0.26457 0.0
H1200 H 0.33994 0.92954 0.1482 0.0
H1201 H 0.28707 0.9715 0.14646 0.0
H1202 H 0.30629 0.98058 0.12084 0.0
H1203 H 0.30586 0.97592 0.1805 0.0
C1204 C 0.35485 0.98713 0.16664 0.0
C1205 C 0.36167 0.98326 0.20906 0.0
C1206 C 0.34207 0.97632 0.14706 0.0
C1207 C 0.33581 0.96154 0.16971 0.0
C1208 C 0.34244 0.95775 0.21229 0.0
H1209 H 0.24912 0.8922 0.10859 0.0
H1210 H 0.26931 0.91409 0.14008 0.0
C1211 C 0.35524 0.96854 0.23188 0.0
C1212 C 0.32304 0.94951 0.1479 0.0
H1213 H 0.28279 0.94562 0.10556 0.0
C1214 C 0.32742 0.93303 0.13894 0.0
C1215 C 0.30671 0.95412 0.1362 0.0
C1216 C 0.30109 0.97144 0.14682 0.0
C1217 C 0.31594 0.921 0.11829 0.0
C1218 C 0.29976 0.92571 0.10558 0.0
C1219 C 0.2953 0.94215 0.11487 0.0
C1220 C 0.28706 0.91345 0.08444 0.0
C1221 C 0.3211 0.90325 0.11117 0.0
C1222 C 0.29017 0.9062 0.04215 0.0
C1223 C 0.27869 0.89364 0.02409 0.0
C1224 C 0.26387 0.88822 0.048 0.0
C1225 C 0.26047 0.89603 0.08947 0.0
C1226 C 0.27196 0.90856 0.10749 0.0
H1227 H 0.33228 0.90068 0.13206 0.0
H1228 H 0.31052 0.8937 0.11961 0.0
H1229 H 0.32446 0.90159 0.075 0.0
H1230 H 0.30163 0.91005 0.0235 0.0
H1231 H 0.2816 0.88794 0.99192 0.0
H1232 H 0.78191 0.38969 0.49653 0.0
H1233 H 0.80141 0.41217 0.52849 0.0
H1234 H 0.76865 0.41548 0.64445 0.0
H1235 H 0.74897 0.39321 0.61254 0.0
H1236 H 0.78169 0.44729 0.61017 0.0
H1237 H 0.83193 0.40328 0.63769 0.0
H1238 H 0.82426 0.40398 0.58045 0.0
H1239 H 0.81029 0.39594 0.62486 0.0
C1240 C 0.77878 0.3953 0.52864 0.0
C1241 C 0.764 0.38957 0.55226 0.0
C1242 C 0.78996 0.40808 0.54692 0.0
C1243 C 0.78657 0.41523 0.58914 0.0
C1244 C 0.7715 0.41003 0.6119 0.0
H1245 H 0.85981 0.46844 0.76672 0.0
H1246 H 0.8372 0.44935 0.73401 0.0
C1247 C 0.76031 0.39729 0.59366 0.0
C1248 C 0.79902 0.4277 0.61049 0.0
H1249 H 0.83921 0.4323 0.65282 0.0
C1250 C 0.79427 0.44406 0.61954 0.0
C1251 C 0.8153 0.42329 0.6233 0.0
C1252 C 0.82076 0.40563 0.61652 0.0
C1253 C 0.80552 0.45626 0.64056 0.0
C1254 C 0.82196 0.45198 0.65219 0.0
C1255 C 0.82661 0.43555 0.64362 0.0
C1256 C 0.83464 0.46428 0.67331 0.0
C1257 C 0.79962 0.4735 0.65084 0.0
C1258 C 0.84061 0.47903 0.65005 0.0
C1259 C 0.85349 0.48998 0.66868 0.0
C1260 C 0.86071 0.48628 0.71073 0.0
C1261 C 0.8545 0.47164 0.73427 0.0
C1262 C 0.84161 0.46072 0.71564 0.0
H1263 H 0.78558 0.47329 0.65088 0.0
H1264 H 0.80446 0.47821 0.68425 0.0
H1265 H 0.80454 0.4826 0.62444 0.0
H1266 H 0.83563 0.48183 0.61693 0.0
H1267 H 0.85804 0.50114 0.64966 0.0
H1268 H 0.28602 0.13321 0.40433 0.0
H1269 H 0.31123 0.12124 0.3758 0.0
H1270 H 0.34242 0.154 0.46452 0.0
H1271 H 0.31688 0.16557 0.49503 0.0
H1272 H 0.33867 0.13393 0.3326 0.0
H1273 H 0.35732 0.10879 0.50016 0.0
H1274 H 0.33734 0.11771 0.49175 0.0
H1275 H 0.35656 0.13134 0.49631 0.0
C1276 C 0.29822 0.13793 0.4178 0.0
C1277 C 0.29946 0.1502 0.45228 0.0
C1278 C 0.31267 0.13112 0.40128 0.0
C1279 C 0.32873 0.13654 0.41839 0.0
C1280 C 0.33013 0.14932 0.45157 0.0
H1281 H 0.40381 0.07848 0.27474 0.0
H1282 H 0.39228 0.10406 0.30512 0.0
C1283 C 0.31556 0.15598 0.4688 0.0
C1284 C 0.3436 0.12795 0.40229 0.0
H1285 H 0.37178 0.10014 0.43648 0.0
C1286 C 0.34614 0.12673 0.35528 0.0
C1287 C 0.35338 0.11866 0.43205 0.0
C1288 C 0.35101 0.11903 0.48285 0.0
C1289 C 0.35698 0.11531 0.33702 0.0
C1290 C 0.36606 0.10533 0.36677 0.0
C1291 C 0.36473 0.10775 0.4138 0.0
C1292 C 0.37453 0.09041 0.35058 0.0
C1293 C 0.35749 0.11308 0.28619 0.0
C1294 C 0.36891 0.07434 0.36731 0.0
C1295 C 0.37569 0.05986 0.35087 0.0
C1296 C 0.38813 0.06108 0.31684 0.0
C1297 C 0.39408 0.07718 0.30063 0.0
C1298 C 0.38746 0.09178 0.31778 0.0
H1299 H 0.34738 0.11957 0.26879 0.0
H1300 H 0.36988 0.11854 0.2731 0.0
H1301 H 0.35604 0.09944 0.27701 0.0
H1302 H 0.35892 0.07292 0.39249 0.0
H1303 H 0.37083 0.04766 0.36408 0.0
H1304 H 0.62711 0.54435 0.28103 0.0
H1305 H 0.6491 0.56448 0.24929 0.0
H1306 H 0.65486 0.53105 0.13584 0.0
H1307 H 0.63309 0.51076 0.16753 0.0
H1308 H 0.68586 0.54587 0.17093 0.0
H1309 H 0.63949 0.59346 0.13747 0.0
H1310 H 0.64025 0.58635 0.19524 0.0
H1311 H 0.63308 0.57169 0.15149 0.0
C1312 C 0.63318 0.54121 0.24957 0.0
C1313 C 0.62825 0.52606 0.22652 0.0
C1314 C 0.64567 0.55274 0.2314 0.0
C1315 C 0.65335 0.54935 0.18987 0.0
C1316 C 0.649 0.53392 0.16784 0.0
H1317 H 0.70393 0.62143 0.00488 0.0
H1318 H 0.68557 0.59897 0.04093 0.0
C1319 C 0.63654 0.52237 0.18596 0.0
C1320 C 0.66539 0.56215 0.16826 0.0
H1321 H 0.66824 0.60176 0.12194 0.0
C1322 C 0.68206 0.55811 0.16025 0.0
C1323 C 0.66025 0.57797 0.15377 0.0
C1324 C 0.64226 0.58263 0.15949 0.0
C1325 C 0.69382 0.56959 0.13842 0.0
C1326 C 0.68877 0.58556 0.12487 0.0
C1327 C 0.67207 0.58953 0.13261 0.0
C1328 C 0.70053 0.59837 0.10223 0.0
C1329 C 0.71142 0.56442 0.12921 0.0
C1330 C 0.715 0.60543 0.1248 0.0
C1331 C 0.72554 0.61822 0.10428 0.0
C1332 C 0.72167 0.62426 0.06096 0.0
C1333 C 0.70725 0.61704 0.03825 0.0
C1334 C 0.69674 0.60423 0.05879 0.0
H1335 H 0.71194 0.55045 0.13113 0.0
H1336 H 0.71593 0.56882 0.09522 0.0
H1337 H 0.72026 0.57029 0.15498 0.0
H1338 H 0.71796 0.60131 0.15871 0.0
H1339 H 0.73652 0.62359 0.12271 0.0
H1340 H 0.19041 0.86013 0.88941 0.0
H1341 H 0.16505 0.87343 0.86602 0.0
H1342 H 0.14613 0.87023 0.00311 0.0
H1343 H 0.17157 0.85688 0.02703 0.0
H1344 H 0.12752 0.86436 0.87818 0.0
H1345 H 0.15429 0.92219 0.9694 0.0
H1346 H 0.16709 0.90513 0.95494 0.0
H1347 H 0.15206 0.90256 0.00042 0.0
C1348 C 0.18073 0.86198 0.9145 0.0
C1349 C 0.18308 0.85769 0.9602 0.0
C1350 C 0.16621 0.86948 0.90099 0.0
C1351 C 0.15385 0.8729 0.93294 0.0
C1352 C 0.15562 0.86772 0.97807 0.0
H1353 H 0.08609 0.95231 0.88943 0.0
H1354 H 0.09787 0.92787 0.92429 0.0
C1355 C 0.17014 0.86012 0.99163 0.0
C1356 C 0.14035 0.88373 0.91973 0.0
H1357 H 0.13022 0.92467 0.92519 0.0
C1358 C 0.12787 0.87749 0.88891 0.0
C1359 C 0.14092 0.90081 0.93391 0.0
C1360 C 0.15433 0.9082 0.96629 0.0
C1361 C 0.1161 0.88807 0.87104 0.0
C1362 C 0.11722 0.90539 0.88349 0.0
C1363 C 0.12932 0.91139 0.9157 0.0
C1364 C 0.10706 0.91798 0.86127 0.0
C1365 C 0.1027 0.88059 0.8389 0.0
C1366 C 0.10785 0.92031 0.81404 0.0
C1367 C 0.10089 0.93415 0.79395 0.0
C1368 C 0.0934 0.94611 0.82092 0.0
C1369 C 0.09192 0.94335 0.86786 0.0
C1370 C 0.09861 0.92937 0.88781 0.0
H1371 H 0.09956 0.8669 0.84595 0.0
H1372 H 0.09092 0.88725 0.84118 0.0
H1373 H 0.10757 0.88171 0.80366 0.0
H1374 H 0.1147 0.91199 0.79293 0.0
H1375 H 0.1023 0.93604 0.75772 0.0
loop_
_geom_bond_atom_site_label_1
_geom_bond_atom_site_label_2
_geom_bond_distance
_geom_bond_site_symmetry_2
_ccdc_geom_bond_type
C0 O1 1.306 . S
C0 O3 1.160 . S
O1 C0 1.306 . S
O1 Cd2 2.228 . S
Cd2 O1 2.228 . S
Cd2 O6 2.273 . S
Cd2 O10 2.277 1_554 S
O3 C0 1.160 . S
O3 Cd4 2.203 . S
Cd4 O3 2.203 . S
Cd4 O6 2.411 . S
Cd4 O7 2.333 1_554 S
Cd4 O8 2.352 . S
Cd4 O12 2.277 1_554 S
Cd4 O13 2.356 . S
C5 O10 1.209 . S
C5 O12 1.226 . S
O6 Cd2 2.273 . S
O6 Cd4 2.411 . S
O6 C9 1.320 1_554 S
O7 Cd4 2.333 1_556 S
O7 C9 1.214 . S
O8 Cd4 2.352 . S
O8 C11 1.258 . S
C9 O6 1.320 1_556 S
C9 O7 1.214 . S
O10 Cd2 2.277 1_556 S
O10 C5 1.209 . S
C11 O8 1.258 . S
C11 O13 1.282 . S
O12 Cd4 2.277 1_556 S
O12 C5 1.226 . S
O13 Cd4 2.356 . S
O13 C11 1.282 . S
C14 O15 1.306 1_545 S
C14 O17 1.160 . S
O15 C14 1.306 1_565 S
O15 Cd16 2.228 . S
Cd16 O15 2.228 . S
Cd16 O20 2.273 . S
Cd16 O24 2.254 1_565 S
O17 C14 1.160 . S
O17 Cd18 2.203 . S
Cd18 O17 2.203 . S
Cd18 O20 2.411 1_545 S
Cd18 O21 2.333 . S
Cd18 O22 2.352 . S
Cd18 O26 2.277 . S
Cd18 O27 2.356 . S
C19 O24 1.234 . S
C19 O26 1.226 . S
O20 Cd16 2.273 . S
O20 Cd18 2.411 1_565 S
O20 C23 1.320 . S
O21 Cd18 2.333 . S
O21 C23 1.214 1_545 S
O22 Cd18 2.352 . S
O22 C25 1.258 . S
C23 O20 1.320 . S
C23 O21 1.214 1_565 S
O24 Cd16 2.254 1_545 S
O24 C19 1.234 . S
C25 O22 1.258 . S
C25 O27 1.282 . S
O26 Cd18 2.277 . S
O26 C19 1.226 . S
O27 Cd18 2.356 . S
O27 C25 1.282 . S
C28 O29 1.306 . S
C28 O31 1.160 . S
O29 C28 1.306 . S
O29 Cd30 2.228 . S
Cd30 O29 2.228 . S
Cd30 O34 2.273 . S
Cd30 O38 2.277 . S
O31 C28 1.160 . S
O31 Cd32 2.203 . S
Cd32 O31 2.203 . S
Cd32 O34 2.411 . S
Cd32 O35 2.333 . S
Cd32 O36 2.352 . S
Cd32 O40 2.277 . S
Cd32 O41 2.356 . S
C33 O38 1.209 . S
C33 O40 1.226 . S
O34 Cd30 2.273 . S
O34 Cd32 2.411 . S
O34 C37 1.320 . S
O35 Cd32 2.333 . S
O35 C37 1.214 . S
O36 Cd32 2.352 . S
O36 C39 1.258 . S
C37 O34 1.320 . S
C37 O35 1.214 . S
O38 Cd30 2.277 . S
O38 C33 1.209 . S
C39 O36 1.258 . S
C39 O41 1.282 . S
O40 Cd32 2.277 . S
O40 C33 1.226 . S
O41 Cd32 2.356 . S
O41 C39 1.282 . S
C42 O43 1.306 . S
C42 O45 1.164 . S
O43 C42 1.306 . S
O43 Cd44 2.228 . S
Cd44 O43 2.228 . S
Cd44 O48 2.273 . S
Cd44 O52 2.277 . S
O45 C42 1.164 . S
O45 Cd46 2.204 . S
Cd46 O45 2.204 . S
Cd46 O48 2.411 . S
Cd46 O49 2.333 . S
Cd46 O50 2.352 1_545 S
Cd46 O54 2.277 1_545 S
Cd46 O55 2.356 1_545 S
C47 O52 1.209 . S
C47 O54 1.226 1_545 S
O48 Cd44 2.273 . S
O48 Cd46 2.411 . S
O48 C51 1.320 . S
O49 Cd46 2.333 . S
O49 C51 1.214 . S
O50 Cd46 2.352 1_565 S
O50 C53 1.258 . S
C51 O48 1.320 . S
C51 O49 1.214 . S
O52 Cd44 2.277 . S
O52 C47 1.209 . S
C53 O50 1.258 . S
C53 O55 1.282 . S
O54 Cd46 2.277 1_565 S
O54 C47 1.226 1_565 S
O55 Cd46 2.356 1_565 S
O55 C53 1.282 . S
C56 O57 1.306 . S
C56 O59 1.160 . S
O57 C56 1.306 . S
O57 Cd58 2.228 1_556 S
Cd58 O57 2.228 1_554 S
Cd58 O62 2.273 . S
Cd58 O66 2.277 . S
O59 C56 1.160 . S
O59 Cd60 2.203 1_556 S
Cd60 O59 2.203 1_554 S
Cd60 O62 2.411 . S
Cd60 O63 2.333 . S
Cd60 O64 2.352 1_554 S
Cd60 O68 2.277 . S
Cd60 O69 2.356 . S
C61 O66 1.209 . S
C61 O68 1.226 . S
O62 Cd58 2.273 . S
O62 Cd60 2.411 . S
O62 C65 1.320 . S
O63 Cd60 2.333 . S
O63 C65 1.214 . S
O64 Cd60 2.352 1_556 S
O64 C67 1.258 . S
C65 O62 1.320 . S
C65 O63 1.214 . S
O66 Cd58 2.277 . S
O66 C61 1.209 . S
C67 O64 1.258 . S
C67 O69 1.282 1_556 S
O68 Cd60 2.277 . S
O68 C61 1.226 . S
O69 Cd60 2.356 . S
O69 C67 1.282 1_554 S
C70 O71 1.306 . S
C70 O73 1.164 . S
O71 C70 1.306 . S
O71 Cd72 2.228 . S
Cd72 O71 2.228 . S
Cd72 O76 2.273 . S
Cd72 O80 2.277 . S
O73 C70 1.164 . S
O73 Cd74 2.204 . S
Cd74 O73 2.204 . S
Cd74 O76 2.411 . S
Cd74 O77 2.333 . S
Cd74 O78 2.352 1_545 S
Cd74 O82 2.277 1_545 S
Cd74 O83 2.356 1_545 S
C75 O80 1.209 . S
C75 O82 1.226 1_545 S
O76 Cd72 2.273 . S
O76 Cd74 2.411 . S
O76 C79 1.320 . S
O77 Cd74 2.333 . S
O77 C79 1.214 . S
O78 Cd74 2.352 1_565 S
O78 C81 1.258 . S
C79 O76 1.320 . S
C79 O77 1.214 . S
O80 Cd72 2.277 . S
O80 C75 1.209 . S
C81 O78 1.258 . S
C81 O83 1.282 . S
O82 Cd74 2.277 1_565 S
O82 C75 1.226 1_565 S
O83 Cd74 2.356 1_565 S
O83 C81 1.282 . S
C84 O85 1.306 . S
C84 O87 1.160 . S
O85 C84 1.306 . S
O85 Cd86 2.228 . S
Cd86 O85 2.228 . S
Cd86 O90 2.273 . S
Cd86 O94 2.277 . S
O87 C84 1.160 . S
O87 Cd88 2.203 . S
Cd88 O87 2.203 . S
Cd88 O90 2.411 . S
Cd88 O91 2.333 . S
Cd88 O92 2.352 . S
Cd88 O96 2.277 . S
Cd88 O97 2.356 . S
C89 O94 1.209 . S
C89 O96 1.226 . S
O90 Cd86 2.273 . S
O90 Cd88 2.411 . S
O90 C93 1.320 . S
O91 Cd88 2.333 . S
O91 C93 1.214 . S
O92 Cd88 2.352 . S
O92 C95 1.258 . S
C93 O90 1.320 . S
C93 O91 1.214 . S
O94 Cd86 2.277 . S
O94 C89 1.209 . S
C95 O92 1.258 . S
C95 O97 1.282 . S
O96 Cd88 2.277 . S
O96 C89 1.226 . S
O97 Cd88 2.356 . S
O97 C95 1.282 . S
C98 O99 1.306 1_545 S
C98 O101 1.160 . S
O99 C98 1.306 1_565 S
O99 Cd100 2.228 . S
Cd100 O99 2.228 . S
Cd100 O104 2.273 . S
Cd100 O108 2.254 1_565 S
O101 C98 1.160 . S
O101 Cd102 2.203 . S
Cd102 O101 2.203 . S
Cd102 O104 2.411 1_545 S
Cd102 O105 2.333 . S
Cd102 O106 2.352 . S
Cd102 O110 2.277 . S
Cd102 O111 2.356 . S
C103 O108 1.234 . S
C103 O110 1.226 . S
O104 Cd100 2.273 . S
O104 Cd102 2.411 1_565 S
O104 C107 1.320 . S
O105 Cd102 2.333 . S
O105 C107 1.214 1_545 S
O106 Cd102 2.352 . S
O106 C109 1.258 . S
C107 O104 1.320 . S
C107 O105 1.214 1_565 S
O108 Cd100 2.254 1_545 S
O108 C103 1.234 . S
C109 O106 1.258 . S
C109 O111 1.282 . S
O110 Cd102 2.277 . S
O110 C103 1.226 . S
O111 Cd102 2.356 . S
O111 C109 1.282 . S
C112 O113 1.306 . S
C112 O115 1.160 . S
O113 C112 1.306 . S
O113 Cd114 2.228 . S
Cd114 O113 2.228 . S
Cd114 O118 2.273 . S
Cd114 O122 2.277 . S
O115 C112 1.160 . S
O115 Cd116 2.203 . S
Cd116 O115 2.203 . S
Cd116 O118 2.411 . S
Cd116 O119 2.333 . S
Cd116 O120 2.352 . S
Cd116 O124 2.277 . S
Cd116 O125 2.356 . S
C117 O122 1.209 . S
C117 O124 1.226 . S
O118 Cd114 2.273 . S
O118 Cd116 2.411 . S
O118 C121 1.320 . S
O119 Cd116 2.333 . S
O119 C121 1.214 . S
O120 Cd116 2.352 . S
O120 C123 1.258 . S
C121 O118 1.320 . S
C121 O119 1.214 . S
O122 Cd114 2.277 . S
O122 C117 1.209 . S
C123 O120 1.258 . S
C123 O125 1.282 . S
O124 Cd116 2.277 . S
O124 C117 1.226 . S
O125 Cd116 2.356 . S
O125 C123 1.282 . S
C126 O127 1.306 . S
C126 O129 1.160 . S
O127 C126 1.306 . S
O127 Cd128 2.228 . S
Cd128 O127 2.228 . S
Cd128 O132 2.273 . S
Cd128 O136 2.277 . S
O129 C126 1.160 . S
O129 Cd130 2.203 . S
Cd130 O129 2.203 . S
Cd130 O132 2.411 . S
Cd130 O133 2.333 . S
Cd130 O134 2.352 . S
Cd130 O138 2.277 . S
Cd130 O139 2.356 . S
C131 O136 1.209 . S
C131 O138 1.226 . S
O132 Cd128 2.273 . S
O132 Cd130 2.411 . S
O132 C135 1.320 . S
O133 Cd130 2.333 . S
O133 C135 1.214 . S
O134 Cd130 2.352 . S
O134 C137 1.258 . S
C135 O132 1.320 . S
C135 O133 1.214 . S
O136 Cd128 2.277 . S
O136 C131 1.209 . S
C137 O134 1.258 . S
C137 O139 1.282 . S
O138 Cd130 2.277 . S
O138 C131 1.226 . S
O139 Cd130 2.356 . S
O139 C137 1.282 . S
C140 O141 1.306 . S
C140 O143 1.160 . S
O141 C140 1.306 . S
O141 Cd142 2.228 . S
Cd142 O141 2.228 . S
Cd142 O146 2.273 . S
Cd142 O150 2.277 1_554 S
O143 C140 1.160 . S
O143 Cd144 2.203 . S
Cd144 O143 2.203 . S
Cd144 O146 2.411 . S
Cd144 O147 2.333 1_554 S
Cd144 O148 2.352 . S
Cd144 O152 2.277 1_554 S
Cd144 O153 2.356 . S
C145 O150 1.209 . S
C145 O152 1.226 . S
O146 Cd142 2.273 . S
O146 Cd144 2.411 . S
O146 C149 1.320 1_554 S
O147 Cd144 2.333 1_556 S
O147 C149 1.214 . S
O148 Cd144 2.352 . S
O148 C151 1.258 . S
C149 O146 1.320 1_556 S
C149 O147 1.214 . S
O150 Cd142 2.277 1_556 S
O150 C145 1.209 . S
C151 O148 1.258 . S
C151 O153 1.282 . S
O152 Cd144 2.277 1_556 S
O152 C145 1.226 . S
O153 Cd144 2.356 . S
O153 C151 1.282 . S
C154 O155 1.306 . S
C154 O157 1.160 . S
O155 C154 1.306 . S
O155 Cd156 2.228 . S
Cd156 O155 2.228 . S
Cd156 O160 2.273 . S
Cd156 O164 2.277 . S
O157 C154 1.160 . S
O157 Cd158 2.203 . S
Cd158 O157 2.203 . S
Cd158 O160 2.411 . S
Cd158 O161 2.333 . S
Cd158 O162 2.352 . S
Cd158 O166 2.277 . S
Cd158 O167 2.356 . S
C159 O164 1.209 . S
C159 O166 1.226 . S
O160 Cd156 2.273 . S
O160 Cd158 2.411 . S
O160 C163 1.320 . S
O161 Cd158 2.333 . S
O161 C163 1.214 . S
O162 Cd158 2.352 . S
O162 C165 1.258 . S
C163 O160 1.320 . S
C163 O161 1.214 . S
O164 Cd156 2.277 . S
O164 C159 1.209 . S
C165 O162 1.258 . S
C165 O167 1.282 . S
O166 Cd158 2.277 . S
O166 C159 1.226 . S
O167 Cd158 2.356 . S
O167 C165 1.282 . S
C168 O169 1.306 . S
C168 O171 1.160 . S
O169 C168 1.306 . S
O169 Cd170 2.228 . S
Cd170 O169 2.228 . S
Cd170 O174 2.273 . S
Cd170 O178 2.277 . S
O171 C168 1.160 . S
O171 Cd172 2.203 . S
Cd172 O171 2.203 . S
Cd172 O174 2.411 . S
Cd172 O175 2.333 . S
Cd172 O176 2.352 . S
Cd172 O180 2.277 . S
Cd172 O181 2.356 . S
C173 O178 1.209 . S
C173 O180 1.226 . S
O174 Cd170 2.273 . S
O174 Cd172 2.411 . S
O174 C177 1.320 . S
O175 Cd172 2.333 . S
O175 C177 1.214 . S
O176 Cd172 2.352 . S
O176 C179 1.258 . S
C177 O174 1.320 . S
C177 O175 1.214 . S
O178 Cd170 2.277 . S
O178 C173 1.209 . S
C179 O176 1.258 . S
C179 O181 1.282 . S
O180 Cd172 2.277 . S
O180 C173 1.226 . S
O181 Cd172 2.356 . S
O181 C179 1.282 . S
C182 O183 1.306 . S
C182 O185 1.160 . S
O183 C182 1.306 . S
O183 Cd184 2.228 . S
Cd184 O183 2.228 . S
Cd184 O188 2.273 . S
Cd184 O192 2.277 . S
O185 C182 1.160 . S
O185 Cd186 2.203 . S
Cd186 O185 2.203 . S
Cd186 O188 2.411 . S
Cd186 O189 2.333 . S
Cd186 O190 2.352 . S
Cd186 O194 2.277 . S
Cd186 O195 2.356 . S
C187 O192 1.209 . S
C187 O194 1.226 . S
O188 Cd184 2.273 . S
O188 Cd186 2.411 . S
O188 C191 1.320 . S
O189 Cd186 2.333 . S
O189 C191 1.214 . S
O190 Cd186 2.352 . S
O190 C193 1.258 . S
C191 O188 1.320 . S
C191 O189 1.214 . S
O192 Cd184 2.277 . S
O192 C187 1.209 . S
C193 O190 1.258 . S
C193 O195 1.282 . S
O194 Cd186 2.277 . S
O194 C187 1.226 . S
O195 Cd186 2.356 . S
O195 C193 1.282 . S
C196 O197 1.306 . S
C196 O199 1.160 . S
O197 C196 1.306 . S
O197 Cd198 2.228 1_556 S
Cd198 O197 2.228 1_554 S
Cd198 O202 2.273 . S
Cd198 O206 2.277 . S
O199 C196 1.160 . S
O199 Cd200 2.203 1_556 S
Cd200 O199 2.203 1_554 S
Cd200 O202 2.411 . S
Cd200 O203 2.333 . S
Cd200 O204 2.352 1_554 S
Cd200 O208 2.277 . S
Cd200 O209 2.356 . S
C201 O206 1.209 . S
C201 O208 1.226 . S
O202 Cd198 2.273 . S
O202 Cd200 2.411 . S
O202 C205 1.320 . S
O203 Cd200 2.333 . S
O203 C205 1.214 . S
O204 Cd200 2.352 1_556 S
O204 C207 1.258 . S
C205 O202 1.320 . S
C205 O203 1.214 . S
O206 Cd198 2.277 . S
O206 C201 1.209 . S
C207 O204 1.258 . S
C207 O209 1.282 1_556 S
O208 Cd200 2.277 . S
O208 C201 1.226 . S
O209 Cd200 2.356 . S
O209 C207 1.282 1_554 S
C210 O211 1.306 . S
C210 O213 1.160 . S
O211 C210 1.306 . S
O211 Cd212 2.228 . S
Cd212 O211 2.228 . S
Cd212 O216 2.273 . S
Cd212 O220 2.277 . S
O213 C210 1.160 . S
O213 Cd214 2.203 . S
Cd214 O213 2.203 . S
Cd214 O216 2.411 . S
Cd214 O217 2.333 . S
Cd214 O218 2.352 . S
Cd214 O222 2.277 . S
Cd214 O223 2.356 . S
C215 O220 1.209 . S
C215 O222 1.226 . S
O216 Cd212 2.273 . S
O216 Cd214 2.411 . S
O216 C219 1.320 . S
O217 Cd214 2.333 . S
O217 C219 1.214 . S
O218 Cd214 2.352 . S
O218 C221 1.258 . S
C219 O216 1.320 . S
C219 O217 1.214 . S
O220 Cd212 2.277 . S
O220 C215 1.209 . S
C221 O218 1.258 . S
C221 O223 1.282 . S
O222 Cd214 2.277 . S
O222 C215 1.226 . S
O223 Cd214 2.356 . S
O223 C221 1.282 . S
H224 C232 0.929 . S
H225 C234 0.930 . S
H226 C236 0.930 . S
H227 C239 0.929 . S
H228 C242 0.930 . S
H229 C244 0.960 . S
H230 C244 0.960 . S
H231 C244 0.960 . S
C232 H224 0.929 . S
C232 C233 1.377 . S
C232 C234 1.384 . S
C233 C232 1.377 . S
C233 C239 1.390 . S
C234 H225 0.930 . S
C234 C232 1.384 . S
C234 C235 1.372 . S
C235 C234 1.372 . S
C235 C236 1.400 . S
C235 C240 1.490 . S
C236 H226 0.930 . S
C236 C235 1.400 . S
C236 C239 1.386 . S
H237 C253 0.930 . S
H238 C254 0.931 . S
C239 H227 0.929 . S
C239 C233 1.390 . S
C239 C236 1.386 . S
C240 C235 1.490 . S
C240 C242 1.395 . S
C240 C243 1.403 . S
H241 C247 0.930 . S
C242 H228 0.930 . S
C242 C240 1.395 . S
C242 C245 1.403 . S
C243 C240 1.403 . S
C243 C244 1.524 . S
C243 C247 1.400 . S
C244 H229 0.960 . S
C244 H230 0.960 . S
C244 H231 0.960 . S
C244 C243 1.524 . S
C245 C242 1.403 . S
C245 C246 1.392 . S
C245 C249 1.495 . S
C246 C245 1.392 . S
C246 C247 1.385 . S
C246 C248 1.478 . S
C247 H241 0.930 . S
C247 C243 1.400 . S
C247 C246 1.385 . S
C248 C246 1.478 . S
C248 C250 1.381 . S
C248 C254 1.383 . S
C249 C245 1.495 . S
C249 H255 0.959 . S
C249 H256 0.961 . S
C249 H257 0.960 . S
C250 C248 1.381 . S
C250 C251 1.394 . S
C250 H258 0.930 . S
C251 C250 1.394 . S
C251 C252 1.383 . S
C251 H259 0.929 . S
C252 C251 1.383 . S
C252 C253 1.377 . S
C253 H237 0.930 . S
C253 C252 1.377 . S
C253 C254 1.379 . S
C254 H238 0.931 . S
C254 C248 1.383 . S
C254 C253 1.379 . S
H255 C249 0.959 . S
H256 C249 0.961 . S
H257 C249 0.960 . S
H258 C250 0.930 . S
H259 C251 0.929 . S
H260 C268 0.910 1_565 S
H261 C270 0.961 . S
H262 C272 0.930 . S
H263 C275 0.929 . S
H264 C278 0.930 . S
H265 C280 0.960 . S
H266 C280 0.906 1_565 S
H267 C280 0.960 . S
C268 H260 0.910 1_545 S
C268 C269 1.400 . S
C268 C270 1.378 1_545 S
C269 C268 1.400 . S
C269 C275 1.390 . S
C270 H261 0.961 . S
C270 C268 1.378 1_565 S
C270 C271 1.346 1_565 S
C271 C270 1.346 1_545 S
C271 C272 1.400 . S
C271 C276 1.490 . S
C272 H262 0.930 . S
C272 C271 1.400 . S
C272 C275 1.386 . S
H273 C289 0.930 . S
H274 C290 0.931 . S
C275 H263 0.929 . S
C275 C269 1.390 . S
C275 C272 1.386 . S
C276 C271 1.490 . S
C276 C278 1.395 1_655 S
C276 C279 1.403 . S
H277 C283 0.930 . S
C278 H264 0.930 . S
C278 C276 1.395 1_455 S
C278 C281 1.403 . S
C279 C276 1.403 . S
C279 C280 1.524 . S
C279 C283 1.400 . S
C280 H265 0.960 . S
C280 H266 0.906 1_545 S
C280 H267 0.960 . S
C280 C279 1.524 . S
C281 C278 1.403 . S
C281 C282 1.392 . S
C281 C285 1.495 . S
C282 C281 1.392 . S
C282 C283 1.385 1_455 S
C282 C284 1.478 . S
C283 H277 0.930 . S
C283 C279 1.400 . S
C283 C282 1.385 1_655 S
C284 C282 1.478 . S
C284 C286 1.381 1_545 S
C284 C290 1.383 . S
C285 C281 1.495 . S
C285 H291 0.959 . S
C285 H292 0.961 . S
C285 H293 0.992 . S
C286 C284 1.381 1_565 S
C286 C287 1.394 . S
C286 H294 0.930 . S
C287 C286 1.394 . S
C287 C288 1.383 1_565 S
C287 H295 0.929 . S
C288 C287 1.383 1_545 S
C288 C289 1.377 . S
C289 H273 0.930 . S
C289 C288 1.377 . S
C289 C290 1.379 . S
C290 H274 0.931 . S
C290 C284 1.383 . S
C290 C289 1.379 . S
H291 C285 0.959 . S
H292 C285 0.961 . S
H293 C285 0.992 . S
H294 C286 0.930 . S
H295 C287 0.929 . S
H296 C304 0.929 . S
H297 C306 0.930 . S
H298 C308 0.930 . S
H299 C311 0.929 . S
H300 C314 0.930 . S
H301 C316 0.960 . S
H302 C316 0.960 . S
H303 C316 0.960 . S
C304 H296 0.929 . S
C304 C305 1.377 . S
C304 C306 1.384 . S
C305 C304 1.377 . S
C305 C311 1.390 . S
C306 H297 0.930 . S
C306 C304 1.384 . S
C306 C307 1.372 . S
C307 C306 1.372 . S
C307 C308 1.400 . S
C307 C312 1.490 . S
C308 H298 0.930 . S
C308 C307 1.400 . S
C308 C311 1.386 . S
H309 C325 0.930 . S
H310 C326 0.931 . S
C311 H299 0.929 . S
C311 C305 1.390 . S
C311 C308 1.386 . S
C312 C307 1.490 . S
C312 C314 1.395 . S
C312 C315 1.403 . S
H313 C319 0.930 . S
C314 H300 0.930 . S
C314 C312 1.395 . S
C314 C317 1.403 . S
C315 C312 1.403 . S
C315 C316 1.524 . S
C315 C319 1.400 . S
C316 H301 0.960 . S
C316 H302 0.960 . S
C316 H303 0.960 . S
C316 C315 1.524 . S
C317 C314 1.403 . S
C317 C318 1.392 . S
C317 C321 1.495 . S
C318 C317 1.392 . S
C318 C319 1.385 . S
C318 C320 1.478 . S
C319 H313 0.930 . S
C319 C315 1.400 . S
C319 C318 1.385 . S
C320 C318 1.478 . S
C320 C322 1.381 . S
C320 C326 1.383 . S
C321 C317 1.495 . S
C321 H327 0.959 . S
C321 H328 0.961 . S
C321 H329 0.960 . S
C322 C320 1.381 . S
C322 C323 1.394 . S
C322 H330 0.930 . S
C323 C322 1.394 . S
C323 C324 1.383 . S
C323 H331 0.929 . S
C324 C323 1.383 . S
C324 C325 1.377 . S
C325 H309 0.930 . S
C325 C324 1.377 . S
C325 C326 1.379 . S
C326 H310 0.931 . S
C326 C320 1.383 . S
C326 C325 1.379 . S
H327 C321 0.959 . S
H328 C321 0.961 . S
H329 C321 0.960 . S
H330 C322 0.930 . S
H331 C323 0.929 . S
H332 C340 0.929 . S
H333 C342 0.930 . S
H334 C344 0.930 1_565 S
H335 C347 0.929 1_565 S
H336 C350 0.930 . S
H337 C352 0.960 . S
H338 C352 0.960 . S
H339 C352 0.960 . S
C340 H332 0.929 . S
C340 C341 1.377 . S
C340 C342 1.384 . S
C341 C340 1.377 . S
C341 C347 1.390 . S
C342 H333 0.930 . S
C342 C340 1.384 . S
C342 C343 1.372 . S
C343 C342 1.372 . S
C343 C344 1.400 . S
C343 C348 1.490 . S
C344 H334 0.930 1_545 S
C344 C343 1.400 . S
C344 C347 1.386 . S
H345 C361 0.930 1_565 S
H346 C362 0.918 1_565 S
C347 H335 0.929 1_545 S
C347 C341 1.390 . S
C347 C344 1.386 . S
C348 C343 1.490 . S
C348 C350 1.395 . S
C348 C351 1.403 1_545 S
H349 C355 0.930 . S
C350 H336 0.930 . S
C350 C348 1.395 . S
C350 C353 1.403 . S
C351 C348 1.403 1_565 S
C351 C352 1.524 . S
C351 C355 1.400 1_554 S
C352 H337 0.960 . S
C352 H338 0.960 . S
C352 H339 0.960 . S
C352 C351 1.524 . S
C353 C350 1.403 . S
C353 C354 1.392 1_554 S
C353 C357 1.495 1_554 S
C354 C353 1.392 1_556 S
C354 C355 1.385 1_545 S
C354 C356 1.478 . S
C355 H349 0.930 . S
C355 C351 1.400 1_556 S
C355 C354 1.385 1_565 S
C356 C354 1.478 . S
C356 C358 1.381 . S
C356 C362 1.383 . S
C357 C353 1.495 1_556 S
C357 H363 0.959 1_556 S
C357 H364 0.961 . S
C357 H365 0.960 . S
C358 C356 1.381 . S
C358 C359 1.394 . S
C358 H366 0.930 . S
C359 C358 1.394 . S
C359 C360 1.383 . S
C359 H367 0.929 . S
C360 C359 1.383 . S
C360 C361 1.377 . S
C361 H345 0.930 1_545 S
C361 C360 1.377 . S
C361 C362 1.379 . S
C362 H346 0.918 1_545 S
C362 C356 1.383 . S
C362 C361 1.379 . S
H363 C357 0.959 1_554 S
H364 C357 0.961 . S
H365 C357 0.960 . S
H366 C358 0.930 . S
H367 C359 0.929 . S
H368 C376 0.929 . S
H369 C378 0.930 . S
H370 C380 0.930 . S
H371 C383 0.929 . S
H372 C386 0.930 . S
H373 C388 0.960 . S
H374 C388 0.960 . S
H375 C388 0.960 . S
C376 H368 0.929 . S
C376 C377 1.377 . S
C376 C378 1.384 . S
C377 C376 1.377 . S
C377 C383 1.390 . S
C378 H369 0.930 . S
C378 C376 1.384 . S
C378 C379 1.372 . S
C379 C378 1.372 . S
C379 C380 1.400 . S
C379 C384 1.490 . S
C380 H370 0.930 . S
C380 C379 1.400 . S
C380 C383 1.386 . S
H381 C397 0.930 . S
H382 C398 0.931 . S
C383 H371 0.929 . S
C383 C377 1.390 . S
C383 C380 1.386 . S
C384 C379 1.490 . S
C384 C386 1.395 . S
C384 C387 1.403 . S
H385 C391 0.930 . S
C386 H372 0.930 . S
C386 C384 1.395 . S
C386 C389 1.403 . S
C387 C384 1.403 . S
C387 C388 1.524 . S
C387 C391 1.400 . S
C388 H373 0.960 . S
C388 H374 0.960 . S
C388 H375 0.960 . S
C388 C387 1.524 . S
C389 C386 1.403 . S
C389 C390 1.392 . S
C389 C393 1.495 . S
C390 C389 1.392 . S
C390 C391 1.385 . S
C390 C392 1.478 . S
C391 H385 0.930 . S
C391 C387 1.400 . S
C391 C390 1.385 . S
C392 C390 1.478 . S
C392 C394 1.381 . S
C392 C398 1.383 . S
C393 C389 1.495 . S
C393 H399 0.959 . S
C393 H400 0.961 . S
C393 H401 0.960 . S
C394 C392 1.381 . S
C394 C395 1.394 . S
C394 H402 0.930 . S
C395 C394 1.394 . S
C395 C396 1.383 . S
C395 H403 0.929 . S
C396 C395 1.383 . S
C396 C397 1.377 . S
C397 H381 0.930 . S
C397 C396 1.377 . S
C397 C398 1.379 . S
C398 H382 0.931 . S
C398 C392 1.383 . S
C398 C397 1.379 . S
H399 C393 0.959 . S
H400 C393 0.961 . S
H401 C393 0.960 . S
H402 C394 0.930 . S
H403 C395 0.929 . S
H404 C412 0.929 . S
H405 C414 0.930 . S
H406 C416 0.904 1_565 S
H407 C419 0.925 1_565 S
H408 C422 0.930 . S
H409 C424 0.960 . S
H410 C424 0.960 . S
H411 C424 0.960 . S
C412 H404 0.929 . S
C412 C413 1.377 . S
C412 C414 1.384 . S
C413 C412 1.377 . S
C413 C419 1.394 . S
C414 H405 0.930 . S
C414 C412 1.384 . S
C414 C415 1.372 . S
C415 C414 1.372 . S
C415 C416 1.425 . S
C415 C420 1.490 . S
C416 H406 0.904 1_545 S
C416 C415 1.425 . S
C416 C419 1.387 . S
H417 C433 0.930 . S
H418 C434 0.931 . S
C419 H407 0.925 1_545 S
C419 C413 1.394 . S
C419 C416 1.387 . S
C420 C415 1.490 . S
C420 C422 1.395 . S
C420 C423 1.403 . S
H421 C427 0.930 . S
C422 H408 0.930 . S
C422 C420 1.395 . S
C422 C425 1.403 . S
C423 C420 1.403 . S
C423 C424 1.524 . S
C423 C427 1.400 . S
C424 H409 0.960 . S
C424 H410 0.960 . S
C424 H411 0.960 . S
C424 C423 1.524 . S
C425 C422 1.403 . S
C425 C426 1.392 . S
C425 C429 1.495 . S
C426 C425 1.392 . S
C426 C427 1.385 . S
C426 C428 1.478 . S
C427 H421 0.930 . S
C427 C423 1.400 . S
C427 C426 1.385 . S
C428 C426 1.478 . S
C428 C430 1.381 . S
C428 C434 1.383 1_545 S
C429 C425 1.495 . S
C429 H435 0.959 . S
C429 H436 0.961 1_545 S
C429 H437 0.960 . S
C430 C428 1.381 . S
C430 C431 1.394 . S
C430 H438 0.930 . S
C431 C430 1.394 . S
C431 C432 1.383 . S
C431 H439 0.929 . S
C432 C431 1.383 . S
C432 C433 1.377 1_545 S
C433 H417 0.930 . S
C433 C432 1.377 1_565 S
C433 C434 1.379 . S
C434 H418 0.931 . S
C434 C428 1.383 1_565 S
C434 C433 1.379 . S
H435 C429 0.959 . S
H436 C429 0.961 1_565 S
H437 C429 0.960 . S
H438 C430 0.930 . S
H439 C431 0.929 . S
H440 C448 0.929 . S
H441 C450 0.930 . S
H442 C452 0.930 . S
H443 C455 0.929 . S
H444 C458 0.930 . S
H445 C460 0.960 . S
H446 C460 0.960 . S
H447 C460 0.960 . S
C448 H440 0.929 . S
C448 C449 1.377 . S
C448 C450 1.384 . S
C449 C448 1.377 . S
C449 C455 1.390 . S
C450 H441 0.930 . S
C450 C448 1.384 . S
C450 C451 1.372 . S
C451 C450 1.372 . S
C451 C452 1.400 . S
C451 C456 1.490 . S
C452 H442 0.930 . S
C452 C451 1.400 . S
C452 C455 1.386 . S
H453 C469 0.930 . S
H454 C470 0.931 . S
C455 H443 0.929 . S
C455 C449 1.390 . S
C455 C452 1.386 . S
C456 C451 1.490 . S
C456 C458 1.395 . S
C456 C459 1.403 . S
H457 C463 0.930 . S
C458 H444 0.930 . S
C458 C456 1.395 . S
C458 C461 1.403 . S
C459 C456 1.403 . S
C459 C460 1.524 . S
C459 C463 1.400 . S
C460 H445 0.960 . S
C460 H446 0.960 . S
C460 H447 0.960 . S
C460 C459 1.524 . S
C461 C458 1.403 . S
C461 C462 1.392 . S
C461 C465 1.495 . S
C462 C461 1.392 . S
C462 C463 1.385 . S
C462 C464 1.478 . S
C463 H457 0.930 . S
C463 C459 1.400 . S
C463 C462 1.385 . S
C464 C462 1.478 . S
C464 C466 1.381 . S
C464 C470 1.383 . S
C465 C461 1.495 . S
C465 H471 0.959 . S
C465 H472 0.961 . S
C465 H473 0.960 . S
C466 C464 1.381 . S
C466 C467 1.394 . S
C466 H474 0.930 . S
C467 C466 1.394 . S
C467 C468 1.383 . S
C467 H475 0.929 . S
C468 C467 1.383 . S
C468 C469 1.377 . S
C469 H453 0.930 . S
C469 C468 1.377 . S
C469 C470 1.379 . S
C470 H454 0.931 . S
C470 C464 1.383 . S
C470 C469 1.379 . S
H471 C465 0.959 . S
H472 C465 0.961 . S
H473 C465 0.960 . S
H474 C466 0.930 . S
H475 C467 0.929 . S
H476 C484 0.929 . S
H477 C486 0.930 . S
H478 C488 0.978 . S
H479 C491 0.929 . S
H480 C494 0.930 . S
H481 C496 0.960 . S
H482 C496 0.960 . S
H483 C496 0.960 . S
C484 H476 0.929 . S
C484 C485 1.377 . S
C484 C486 1.384 . S
C485 C484 1.377 . S
C485 C491 1.390 1_545 S
C486 H477 0.930 . S
C486 C484 1.384 . S
C486 C487 1.372 . S
C487 C486 1.372 . S
C487 C488 1.349 1_545 S
C487 C492 1.490 . S
C488 H478 0.978 . S
C488 C487 1.349 1_565 S
C488 C491 1.392 . S
H489 C505 0.930 . S
H490 C506 0.931 . S
C491 H479 0.929 . S
C491 C485 1.390 1_565 S
C491 C488 1.392 . S
C492 C487 1.490 . S
C492 C494 1.395 1_455 S
C492 C495 1.403 1_556 S
H493 C499 0.930 . S
C494 H480 0.930 . S
C494 C492 1.395 1_655 S
C494 C497 1.405 1_556 S
C495 C492 1.403 1_554 S
C495 C496 1.524 . S
C495 C499 1.400 . S
C496 H481 0.960 . S
C496 H482 0.960 . S
C496 H483 0.960 . S
C496 C495 1.524 . S
C497 C494 1.405 1_554 S
C497 C498 1.390 . S
C497 C501 1.496 1_554 S
C498 C497 1.390 . S
C498 C499 1.385 1_655 S
C498 C500 1.478 . S
C499 H493 0.930 . S
C499 C495 1.400 . S
C499 C498 1.385 1_455 S
C500 C498 1.478 . S
C500 C502 1.381 . S
C500 C506 1.383 1_545 S
C501 C497 1.496 1_556 S
C501 H507 0.959 . S
C501 H508 0.912 1_545 S
C501 H509 0.960 . S
C502 C500 1.381 . S
C502 C503 1.394 . S
C502 H510 0.930 . S
C503 C502 1.394 . S
C503 C504 1.383 . S
C503 H511 0.929 . S
C504 C503 1.383 . S
C504 C505 1.377 1_545 S
C505 H489 0.930 . S
C505 C504 1.377 1_565 S
C505 C506 1.379 . S
C506 H490 0.931 . S
C506 C500 1.383 1_565 S
C506 C505 1.379 . S
H507 C501 0.959 . S
H508 C501 0.912 1_565 S
H509 C501 0.960 . S
H510 C502 0.930 . S
H511 C503 0.929 . S
H512 C520 0.929 . S
H513 C522 0.930 . S
H514 C524 0.930 . S
H515 C527 0.929 . S
H516 C530 0.930 . S
H517 C532 0.960 . S
H518 C532 0.960 . S
H519 C532 0.960 . S
C520 H512 0.929 . S
C520 C521 1.377 . S
C520 C522 1.384 . S
C521 C520 1.377 . S
C521 C527 1.390 . S
C522 H513 0.930 . S
C522 C520 1.384 . S
C522 C523 1.372 . S
C523 C522 1.372 . S
C523 C524 1.400 . S
C523 C528 1.490 . S
C524 H514 0.930 . S
C524 C523 1.400 . S
C524 C527 1.386 . S
H525 C541 0.930 . S
H526 C542 0.931 . S
C527 H515 0.929 . S
C527 C521 1.390 . S
C527 C524 1.386 . S
C528 C523 1.490 . S
C528 C530 1.395 . S
C528 C531 1.403 . S
H529 C535 0.930 . S
C530 H516 0.930 . S
C530 C528 1.395 . S
C530 C533 1.403 . S
C531 C528 1.403 . S
C531 C532 1.524 . S
C531 C535 1.400 . S
C532 H517 0.960 . S
C532 H518 0.960 . S
C532 H519 0.960 . S
C532 C531 1.524 . S
C533 C530 1.403 . S
C533 C534 1.392 . S
C533 C537 1.495 . S
C534 C533 1.392 . S
C534 C535 1.385 . S
C534 C536 1.478 . S
C535 H529 0.930 . S
C535 C531 1.400 . S
C535 C534 1.385 . S
C536 C534 1.478 . S
C536 C538 1.381 . S
C536 C542 1.383 . S
C537 C533 1.495 . S
C537 H543 0.959 . S
C537 H544 0.961 . S
C537 H545 0.960 . S
C538 C536 1.381 . S
C538 C539 1.394 . S
C538 H546 0.930 . S
C539 C538 1.394 . S
C539 C540 1.383 . S
C539 H547 0.929 . S
C540 C539 1.383 . S
C540 C541 1.377 . S
C541 H525 0.930 . S
C541 C540 1.377 . S
C541 C542 1.379 . S
C542 H526 0.931 . S
C542 C536 1.383 . S
C542 C541 1.379 . S
H543 C537 0.959 . S
H544 C537 0.961 . S
H545 C537 0.960 . S
H546 C538 0.930 . S
H547 C539 0.929 . S
H548 C556 0.929 . S
H549 C558 0.930 . S
H550 C560 0.930 . S
H551 C563 0.929 . S
H552 C566 0.930 . S
H553 C568 0.960 . S
H554 C568 0.960 . S
H555 C568 0.960 . S
C556 H548 0.929 . S
C556 C557 1.377 . S
C556 C558 1.384 . S
C557 C556 1.377 . S
C557 C563 1.390 . S
C558 H549 0.930 . S
C558 C556 1.384 . S
C558 C559 1.372 . S
C559 C558 1.372 . S
C559 C560 1.400 . S
C559 C564 1.490 . S
C560 H550 0.930 . S
C560 C559 1.400 . S
C560 C563 1.386 . S
H561 C577 0.930 . S
H562 C578 0.931 . S
C563 H551 0.929 . S
C563 C557 1.390 . S
C563 C560 1.386 . S
C564 C559 1.490 . S
C564 C566 1.395 . S
C564 C567 1.403 . S
H565 C571 0.930 . S
C566 H552 0.930 . S
C566 C564 1.395 . S
C566 C569 1.403 . S
C567 C564 1.403 . S
C567 C568 1.524 . S
C567 C571 1.400 . S
C568 H553 0.960 . S
C568 H554 0.960 . S
C568 H555 0.960 . S
C568 C567 1.524 . S
C569 C566 1.403 . S
C569 C570 1.392 . S
C569 C573 1.495 . S
C570 C569 1.392 . S
C570 C571 1.385 . S
C570 C572 1.478 . S
C571 H565 0.930 . S
C571 C567 1.400 . S
C571 C570 1.385 . S
C572 C570 1.478 . S
C572 C574 1.381 . S
C572 C578 1.383 . S
C573 C569 1.495 . S
C573 H579 0.959 . S
C573 H580 0.961 . S
C573 H581 0.960 . S
C574 C572 1.381 . S
C574 C575 1.394 . S
C574 H582 0.930 . S
C575 C574 1.394 . S
C575 C576 1.383 . S
C575 H583 0.929 . S
C576 C575 1.383 . S
C576 C577 1.377 . S
C577 H561 0.930 . S
C577 C576 1.377 . S
C577 C578 1.379 . S
C578 H562 0.931 . S
C578 C572 1.383 . S
C578 C577 1.379 . S
H579 C573 0.959 . S
H580 C573 0.961 . S
H581 C573 0.960 . S
H582 C574 0.930 . S
H583 C575 0.929 . S
H584 C592 0.929 . S
H585 C594 0.930 . S
H586 C596 0.930 . S
H587 C599 0.929 . S
H588 C602 0.930 . S
H589 C604 0.960 . S
H590 C604 0.960 . S
H591 C604 0.960 . S
C592 H584 0.929 . S
C592 C593 1.377 . S
C592 C594 1.384 . S
C593 C592 1.377 . S
C593 C599 1.390 . S
C594 H585 0.930 . S
C594 C592 1.384 . S
C594 C595 1.372 . S
C595 C594 1.372 . S
C595 C596 1.400 . S
C595 C600 1.490 . S
C596 H586 0.930 . S
C596 C595 1.400 . S
C596 C599 1.386 . S
H597 C613 0.930 . S
H598 C614 0.931 . S
C599 H587 0.929 . S
C599 C593 1.390 . S
C599 C596 1.386 . S
C600 C595 1.490 . S
C600 C602 1.395 . S
C600 C603 1.403 . S
H601 C607 0.930 . S
C602 H588 0.930 . S
C602 C600 1.395 . S
C602 C605 1.403 . S
C603 C600 1.403 . S
C603 C604 1.524 . S
C603 C607 1.400 . S
C604 H589 0.960 . S
C604 H590 0.960 . S
C604 H591 0.960 . S
C604 C603 1.524 . S
C605 C602 1.403 . S
C605 C606 1.392 . S
C605 C609 1.495 . S
C606 C605 1.392 . S
C606 C607 1.385 . S
C606 C608 1.478 . S
C607 H601 0.930 . S
C607 C603 1.400 . S
C607 C606 1.385 . S
C608 C606 1.478 . S
C608 C610 1.381 . S
C608 C614 1.383 . S
C609 C605 1.495 . S
C609 H615 0.959 . S
C609 H616 0.961 . S
C609 H617 0.960 . S
C610 C608 1.381 . S
C610 C611 1.394 . S
C610 H618 0.930 . S
C611 C610 1.394 . S
C611 C612 1.383 . S
C611 H619 0.929 . S
C612 C611 1.383 . S
C612 C613 1.377 . S
C613 H597 0.930 . S
C613 C612 1.377 . S
C613 C614 1.379 . S
C614 H598 0.931 . S
C614 C608 1.383 . S
C614 C613 1.379 . S
H615 C609 0.959 . S
H616 C609 0.961 . S
H617 C609 0.960 . S
H618 C610 0.930 . S
H619 C611 0.929 . S
H620 C628 0.929 . S
H621 C630 0.930 . S
H622 C632 0.930 . S
H623 C635 0.929 . S
H624 C638 0.930 . S
H625 C640 0.960 . S
H626 C640 0.960 . S
H627 C640 0.960 . S
C628 H620 0.929 . S
C628 C629 1.377 . S
C628 C630 1.384 . S
C629 C628 1.377 . S
C629 C635 1.390 . S
C630 H621 0.930 . S
C630 C628 1.384 . S
C630 C631 1.372 . S
C631 C630 1.372 . S
C631 C632 1.400 . S
C631 C636 1.490 . S
C632 H622 0.930 . S
C632 C631 1.400 . S
C632 C635 1.386 . S
H633 C649 0.930 . S
H634 C650 0.931 . S
C635 H623 0.929 . S
C635 C629 1.390 . S
C635 C632 1.386 . S
C636 C631 1.490 . S
C636 C638 1.395 . S
C636 C639 1.403 . S
H637 C643 0.930 . S
C638 H624 0.930 . S
C638 C636 1.395 . S
C638 C641 1.403 . S
C639 C636 1.403 . S
C639 C640 1.524 . S
C639 C643 1.400 . S
C640 H625 0.960 . S
C640 H626 0.960 . S
C640 H627 0.960 . S
C640 C639 1.524 . S
C641 C638 1.403 . S
C641 C642 1.392 . S
C641 C645 1.495 . S
C642 C641 1.392 . S
C642 C643 1.385 . S
C642 C644 1.478 . S
C643 H637 0.930 . S
C643 C639 1.400 . S
C643 C642 1.385 . S
C644 C642 1.478 . S
C644 C646 1.381 . S
C644 C650 1.383 . S
C645 C641 1.495 . S
C645 H651 0.959 . S
C645 H652 0.961 . S
C645 H653 0.960 . S
C646 C644 1.381 . S
C646 C647 1.394 . S
C646 H654 0.930 . S
C647 C646 1.394 . S
C647 C648 1.383 . S
C647 H655 0.929 . S
C648 C647 1.383 . S
C648 C649 1.377 . S
C649 H633 0.930 . S
C649 C648 1.377 . S
C649 C650 1.379 . S
C650 H634 0.931 . S
C650 C644 1.383 . S
C650 C649 1.379 . S
H651 C645 0.959 . S
H652 C645 0.961 . S
H653 C645 0.960 . S
H654 C646 0.930 . S
H655 C647 0.929 . S
H656 C664 0.929 . S
H657 C666 0.930 . S
H658 C668 0.930 . S
H659 C671 0.929 . S
H660 C674 0.930 . S
H661 C676 0.960 . S
H662 C676 0.960 1_554 S
H663 C676 0.960 1_554 S
C664 H656 0.929 . S
C664 C665 1.377 . S
C664 C666 1.384 . S
C665 C664 1.377 . S
C665 C671 1.390 . S
C666 H657 0.930 . S
C666 C664 1.384 . S
C666 C667 1.372 . S
C667 C666 1.372 . S
C667 C668 1.400 . S
C667 C672 1.490 . S
C668 H658 0.930 . S
C668 C667 1.400 . S
C668 C671 1.386 . S
H669 C685 0.930 . S
H670 C686 0.931 . S
C671 H659 0.929 . S
C671 C665 1.390 . S
C671 C668 1.386 . S
C672 C667 1.490 . S
C672 C674 1.395 . S
C672 C675 1.403 . S
H673 C679 0.930 . S
C674 H660 0.930 . S
C674 C672 1.395 . S
C674 C677 1.403 . S
C675 C672 1.403 . S
C675 C676 1.524 1_554 S
C675 C679 1.400 1_554 S
C676 H661 0.960 . S
C676 H662 0.960 1_556 S
C676 H663 0.960 1_556 S
C676 C675 1.524 1_556 S
C677 C674 1.403 . S
C677 C678 1.392 1_554 S
C677 C681 1.495 . S
C678 C677 1.392 1_556 S
C678 C679 1.385 . S
C678 C680 1.478 . S
C679 H673 0.930 . S
C679 C675 1.400 1_556 S
C679 C678 1.385 . S
C680 C678 1.478 . S
C680 C682 1.381 . S
C680 C686 1.383 . S
C681 C677 1.495 . S
C681 H687 0.959 . S
C681 H688 0.961 . S
C681 H689 0.960 . S
C682 C680 1.381 . S
C682 C683 1.394 . S
C682 H690 0.930 . S
C683 C682 1.394 . S
C683 C684 1.383 . S
C683 H691 0.929 . S
C684 C683 1.383 . S
C684 C685 1.377 . S
C685 H669 0.930 . S
C685 C684 1.377 . S
C685 C686 1.379 . S
C686 H670 0.931 . S
C686 C680 1.383 . S
C686 C685 1.379 . S
H687 C681 0.959 . S
H688 C681 0.961 . S
H689 C681 0.960 . S
H690 C682 0.930 . S
H691 C683 0.929 . S
H692 C700 0.929 . S
H693 C702 0.930 . S
H694 C704 0.930 . S
H695 C707 0.929 . S
H696 C710 0.930 . S
H697 C712 0.960 . S
H698 C712 0.960 . S
H699 C712 0.960 . S
C700 H692 0.929 . S
C700 C701 1.377 . S
C700 C702 1.384 . S
C701 C700 1.377 . S
C701 C707 1.390 . S
C702 H693 0.930 . S
C702 C700 1.384 . S
C702 C703 1.372 . S
C703 C702 1.372 . S
C703 C704 1.400 . S
C703 C708 1.490 . S
C704 H694 0.930 . S
C704 C703 1.400 . S
C704 C707 1.386 . S
H705 C721 0.930 . S
H706 C722 0.931 . S
C707 H695 0.929 . S
C707 C701 1.390 . S
C707 C704 1.386 . S
C708 C703 1.490 . S
C708 C710 1.395 1_455 S
C708 C711 1.403 . S
H709 C715 0.930 . S
C710 H696 0.930 . S
C710 C708 1.395 1_655 S
C710 C713 1.403 . S
C711 C708 1.403 . S
C711 C712 1.524 . S
C711 C715 1.400 . S
C712 H697 0.960 . S
C712 H698 0.960 . S
C712 H699 0.960 . S
C712 C711 1.524 . S
C713 C710 1.403 . S
C713 C714 1.392 . S
C713 C717 1.495 . S
C714 C713 1.392 . S
C714 C715 1.385 1_655 S
C714 C716 1.478 . S
C715 H709 0.930 . S
C715 C711 1.400 . S
C715 C714 1.385 1_455 S
C716 C714 1.478 . S
C716 C718 1.381 . S
C716 C722 1.383 . S
C717 C713 1.495 . S
C717 H723 0.959 . S
C717 H724 0.961 . S
C717 H725 0.960 . S
C718 C716 1.381 . S
C718 C719 1.394 . S
C718 H726 0.930 . S
C719 C718 1.394 . S
C719 C720 1.383 . S
C719 H727 0.929 . S
C720 C719 1.383 . S
C720 C721 1.377 . S
C721 H705 0.930 . S
C721 C720 1.377 . S
C721 C722 1.379 . S
C722 H706 0.931 . S
C722 C716 1.383 . S
C722 C721 1.379 . S
H723 C717 0.959 . S
H724 C717 0.961 . S
H725 C717 0.960 . S
H726 C718 0.930 . S
H727 C719 0.929 . S
H728 C736 0.929 . S
H729 C738 0.930 . S
H730 C740 0.930 . S
H731 C743 0.929 . S
H732 C746 0.930 . S
H733 C748 0.960 . S
H734 C748 0.960 . S
H735 C748 0.960 . S
C736 H728 0.929 . S
C736 C737 1.377 . S
C736 C738 1.384 . S
C737 C736 1.377 . S
C737 C743 1.390 . S
C738 H729 0.930 . S
C738 C736 1.384 . S
C738 C739 1.372 . S
C739 C738 1.372 . S
C739 C740 1.400 . S
C739 C744 1.490 . S
C740 H730 0.930 . S
C740 C739 1.400 . S
C740 C743 1.386 . S
H741 C757 0.930 . S
H742 C758 0.931 . S
C743 H731 0.929 . S
C743 C737 1.390 . S
C743 C740 1.386 . S
C744 C739 1.490 . S
C744 C746 1.395 . S
C744 C747 1.403 1_455 S
H745 C751 0.930 . S
C746 H732 0.930 . S
C746 C744 1.395 . S
C746 C749 1.403 1_554 S
C747 C744 1.403 1_655 S
C747 C748 1.524 . S
C747 C751 1.400 . S
C748 H733 0.960 . S
C748 H734 0.960 . S
C748 H735 0.960 . S
C748 C747 1.524 . S
C749 C746 1.403 1_556 S
C749 C750 1.392 1_455 S
C749 C753 1.495 . S
C750 C749 1.392 1_655 S
C750 C751 1.385 1_556 S
C750 C752 1.478 . S
C751 H745 0.930 . S
C751 C747 1.400 . S
C751 C750 1.385 1_554 S
C752 C750 1.478 . S
C752 C754 1.381 . S
C752 C758 1.383 . S
C753 C749 1.495 . S
C753 H759 0.959 . S
C753 H760 0.961 . S
C753 H761 0.960 . S
C754 C752 1.381 . S
C754 C755 1.394 . S
C754 H762 0.930 . S
C755 C754 1.394 . S
C755 C756 1.383 . S
C755 H763 0.929 . S
C756 C755 1.383 . S
C756 C757 1.377 . S
C757 H741 0.930 . S
C757 C756 1.377 . S
C757 C758 1.379 . S
C758 H742 0.931 . S
C758 C752 1.383 . S
C758 C757 1.379 . S
H759 C753 0.959 . S
H760 C753 0.961 . S
H761 C753 0.960 . S
H762 C754 0.930 . S
H763 C755 0.929 . S
H764 C772 0.929 . S
H765 C774 0.930 . S
H766 C776 0.930 . S
H767 C779 0.929 . S
H768 C782 0.930 . S
H769 C784 0.960 . S
H770 C784 0.960 . S
H771 C784 0.960 . S
C772 H764 0.929 . S
C772 C773 1.377 . S
C772 C774 1.384 . S
C773 C772 1.377 . S
C773 C779 1.390 . S
C774 H765 0.930 . S
C774 C772 1.384 . S
C774 C775 1.372 . S
C775 C774 1.372 . S
C775 C776 1.400 . S
C775 C780 1.490 . S
C776 H766 0.930 . S
C776 C775 1.400 . S
C776 C779 1.386 . S
H777 C793 0.930 . S
H778 C794 0.931 . S
C779 H767 0.929 . S
C779 C773 1.390 . S
C779 C776 1.386 . S
C780 C775 1.490 . S
C780 C782 1.395 . S
C780 C783 1.403 . S
H781 C787 0.930 . S
C782 H768 0.930 . S
C782 C780 1.395 . S
C782 C785 1.403 . S
C783 C780 1.403 . S
C783 C784 1.524 . S
C783 C787 1.400 . S
C784 H769 0.960 . S
C784 H770 0.960 . S
C784 H771 0.960 . S
C784 C783 1.524 . S
C785 C782 1.403 . S
C785 C786 1.392 . S
C785 C789 1.495 . S
C786 C785 1.392 . S
C786 C787 1.385 . S
C786 C788 1.478 . S
C787 H781 0.930 . S
C787 C783 1.400 . S
C787 C786 1.385 . S
C788 C786 1.478 . S
C788 C790 1.381 . S
C788 C794 1.383 . S
C789 C785 1.495 . S
C789 H795 0.959 . S
C789 H796 0.961 . S
C789 H797 0.960 . S
C790 C788 1.381 . S
C790 C791 1.394 . S
C790 H798 0.930 . S
C791 C790 1.394 . S
C791 C792 1.383 . S
C791 H799 0.929 . S
C792 C791 1.383 . S
C792 C793 1.377 . S
C793 H777 0.930 . S
C793 C792 1.377 . S
C793 C794 1.379 . S
C794 H778 0.931 . S
C794 C788 1.383 . S
C794 C793 1.379 . S
H795 C789 0.959 . S
H796 C789 0.961 . S
H797 C789 0.960 . S
H798 C790 0.930 . S
H799 C791 0.929 . S
H800 C808 0.929 . S
H801 C810 0.930 . S
H802 C812 0.930 . S
H803 C815 0.929 . S
H804 C818 0.930 . S
H805 C820 0.960 . S
H806 C820 0.960 . S
H807 C820 0.960 . S
C808 H800 0.929 . S
C808 C809 1.377 . S
C808 C810 1.384 . S
C809 C808 1.377 . S
C809 C815 1.390 . S
C810 H801 0.930 . S
C810 C808 1.384 . S
C810 C811 1.372 . S
C811 C810 1.372 . S
C811 C812 1.400 . S
C811 C816 1.490 . S
C812 H802 0.930 . S
C812 C811 1.400 . S
C812 C815 1.386 . S
H813 C829 0.930 . S
H814 C830 0.931 . S
C815 H803 0.929 . S
C815 C809 1.390 . S
C815 C812 1.386 . S
C816 C811 1.490 . S
C816 C818 1.395 . S
C816 C819 1.403 . S
H817 C823 0.930 . S
C818 H804 0.930 . S
C818 C816 1.395 . S
C818 C821 1.403 . S
C819 C816 1.403 . S
C819 C820 1.524 . S
C819 C823 1.400 . S
C820 H805 0.960 . S
C820 H806 0.960 . S
C820 H807 0.960 . S
C820 C819 1.524 . S
C821 C818 1.403 . S
C821 C822 1.392 . S
C821 C825 1.495 . S
C822 C821 1.392 . S
C822 C823 1.385 . S
C822 C824 1.478 . S
C823 H817 0.930 . S
C823 C819 1.400 . S
C823 C822 1.385 . S
C824 C822 1.478 . S
C824 C826 1.381 . S
C824 C830 1.383 . S
C825 C821 1.495 . S
C825 H831 0.959 . S
C825 H832 0.961 . S
C825 H833 0.960 . S
C826 C824 1.381 . S
C826 C827 1.394 . S
C826 H834 0.930 . S
C827 C826 1.394 . S
C827 C828 1.383 . S
C827 H835 0.929 . S
C828 C827 1.383 . S
C828 C829 1.377 . S
C829 H813 0.930 . S
C829 C828 1.377 . S
C829 C830 1.379 . S
C830 H814 0.931 . S
C830 C824 1.383 . S
C830 C829 1.379 . S
H831 C825 0.959 . S
H832 C825 0.961 . S
H833 C825 0.960 . S
H834 C826 0.930 . S
H835 C827 0.929 . S
H836 C844 0.929 . S
H837 C846 0.930 . S
H838 C848 0.930 . S
H839 C851 0.929 . S
H840 C854 0.930 . S
H841 C856 0.960 . S
H842 C856 0.960 . S
H843 C856 0.960 . S
C844 H836 0.929 . S
C844 C845 1.377 . S
C844 C846 1.384 . S
C845 C844 1.377 . S
C845 C851 1.390 . S
C846 H837 0.930 . S
C846 C844 1.384 . S
C846 C847 1.372 . S
C847 C846 1.372 . S
C847 C848 1.400 . S
C847 C852 1.490 . S
C848 H838 0.930 . S
C848 C847 1.400 . S
C848 C851 1.386 . S
H849 C865 0.930 . S
H850 C866 0.931 . S
C851 H839 0.929 . S
C851 C845 1.390 . S
C851 C848 1.386 . S
C852 C847 1.490 . S
C852 C854 1.395 . S
C852 C855 1.403 . S
H853 C859 0.930 . S
C854 H840 0.930 . S
C854 C852 1.395 . S
C854 C857 1.403 . S
C855 C852 1.403 . S
C855 C856 1.524 . S
C855 C859 1.400 . S
C856 H841 0.960 . S
C856 H842 0.960 . S
C856 H843 0.960 . S
C856 C855 1.524 . S
C857 C854 1.403 . S
C857 C858 1.392 . S
C857 C861 1.495 . S
C858 C857 1.392 . S
C858 C859 1.385 . S
C858 C860 1.478 . S
C859 H853 0.930 . S
C859 C855 1.400 . S
C859 C858 1.385 . S
C860 C858 1.478 . S
C860 C862 1.381 . S
C860 C866 1.383 . S
C861 C857 1.495 . S
C861 H867 0.959 . S
C861 H868 0.961 . S
C861 H869 0.960 . S
C862 C860 1.381 . S
C862 C863 1.394 . S
C862 H870 0.930 . S
C863 C862 1.394 . S
C863 C864 1.383 . S
C863 H871 0.929 . S
C864 C863 1.383 . S
C864 C865 1.377 . S
C865 H849 0.930 . S
C865 C864 1.377 . S
C865 C866 1.379 . S
C866 H850 0.931 . S
C866 C860 1.383 . S
C866 C865 1.379 . S
H867 C861 0.959 . S
H868 C861 0.961 . S
H869 C861 0.960 . S
H870 C862 0.930 . S
H871 C863 0.929 . S
H872 C880 0.929 . S
H873 C882 0.930 . S
H874 C884 0.930 . S
H875 C887 0.929 . S
H876 C890 0.930 . S
H877 C892 0.960 . S
H878 C892 0.960 . S
H879 C892 0.960 . S
C880 H872 0.929 . S
C880 C881 1.377 . S
C880 C882 1.384 . S
C881 C880 1.377 . S
C881 C887 1.390 . S
C882 H873 0.930 . S
C882 C880 1.384 . S
C882 C883 1.372 . S
C883 C882 1.372 . S
C883 C884 1.400 . S
C883 C888 1.490 . S
C884 H874 0.930 . S
C884 C883 1.400 . S
C884 C887 1.386 . S
H885 C901 0.930 . S
H886 C902 0.931 . S
C887 H875 0.929 . S
C887 C881 1.390 . S
C887 C884 1.386 . S
C888 C883 1.490 . S
C888 C890 1.395 . S
C888 C891 1.403 . S
H889 C895 0.930 . S
C890 H876 0.930 . S
C890 C888 1.395 . S
C890 C893 1.403 . S
C891 C888 1.403 . S
C891 C892 1.524 . S
C891 C895 1.400 . S
C892 H877 0.960 . S
C892 H878 0.960 . S
C892 H879 0.960 . S
C892 C891 1.524 . S
C893 C890 1.403 . S
C893 C894 1.392 . S
C893 C897 1.495 . S
C894 C893 1.392 . S
C894 C895 1.385 . S
C894 C896 1.478 . S
C895 H889 0.930 . S
C895 C891 1.400 . S
C895 C894 1.385 . S
C896 C894 1.478 . S
C896 C898 1.381 . S
C896 C902 1.383 . S
C897 C893 1.495 . S
C897 H903 0.959 . S
C897 H904 0.961 . S
C897 H905 0.960 . S
C898 C896 1.381 . S
C898 C899 1.394 . S
C898 H906 0.930 . S
C899 C898 1.394 . S
C899 C900 1.383 . S
C899 H907 0.929 . S
C900 C899 1.383 . S
C900 C901 1.377 . S
C901 H885 0.930 . S
C901 C900 1.377 . S
C901 C902 1.379 . S
C902 H886 0.931 . S
C902 C896 1.383 . S
C902 C901 1.379 . S
H903 C897 0.959 . S
H904 C897 0.961 . S
H905 C897 0.960 . S
H906 C898 0.930 . S
H907 C899 0.929 . S
H908 C916 0.929 1_554 S
H909 C918 0.930 . S
H910 C920 0.930 . S
H911 C923 0.929 . S
H912 C926 0.930 . S
H913 C928 0.960 . S
H914 C928 0.960 . S
H915 C928 0.960 . S
C916 H908 0.929 1_556 S
C916 C917 1.377 . S
C916 C918 1.384 . S
C917 C916 1.377 . S
C917 C923 1.390 . S
C918 H909 0.930 . S
C918 C916 1.384 . S
C918 C919 1.372 . S
C919 C918 1.372 . S
C919 C920 1.400 . S
C919 C924 1.490 . S
C920 H910 0.930 . S
C920 C919 1.400 . S
C920 C923 1.386 . S
H921 C937 0.930 . S
H922 C938 0.931 . S
C923 H911 0.929 . S
C923 C917 1.390 . S
C923 C920 1.386 . S
C924 C919 1.490 . S
C924 C926 1.395 . S
C924 C927 1.403 . S
H925 C931 0.930 . S
C926 H912 0.930 . S
C926 C924 1.395 . S
C926 C929 1.403 . S
C927 C924 1.403 . S
C927 C928 1.524 . S
C927 C931 1.400 . S
C928 H913 0.960 . S
C928 H914 0.960 . S
C928 H915 0.960 . S
C928 C927 1.524 . S
C929 C926 1.403 . S
C929 C930 1.392 . S
C929 C933 1.495 . S
C930 C929 1.392 . S
C930 C931 1.385 . S
C930 C932 1.478 . S
C931 H925 0.930 . S
C931 C927 1.400 . S
C931 C930 1.385 . S
C932 C930 1.478 . S
C932 C934 1.381 . S
C932 C938 1.383 . S
C933 C929 1.495 . S
C933 H939 0.959 . S
C933 H940 0.961 . S
C933 H941 0.960 . S
C934 C932 1.381 . S
C934 C935 1.394 . S
C934 H942 0.930 . S
C935 C934 1.394 . S
C935 C936 1.383 . S
C935 H943 0.929 . S
C936 C935 1.383 . S
C936 C937 1.377 . S
C937 H921 0.930 . S
C937 C936 1.377 . S
C937 C938 1.379 . S
C938 H922 0.931 . S
C938 C932 1.383 . S
C938 C937 1.379 . S
H939 C933 0.959 . S
H940 C933 0.961 . S
H941 C933 0.960 . S
H942 C934 0.930 . S
H943 C935 0.929 . S
H944 C952 0.929 . S
H945 C954 0.930 . S
H946 C956 0.930 . S
H947 C959 0.929 . S
H948 C962 0.930 . S
H949 C964 0.960 . S
H950 C964 0.960 . S
H951 C964 0.960 . S
C952 H944 0.929 . S
C952 C953 1.377 . S
C952 C954 1.384 . S
C953 C952 1.377 . S
C953 C959 1.390 . S
C954 H945 0.930 . S
C954 C952 1.384 . S
C954 C955 1.372 . S
C955 C954 1.372 . S
C955 C956 1.400 . S
C955 C960 1.490 . S
C956 H946 0.930 . S
C956 C955 1.400 . S
C956 C959 1.386 . S
H957 C973 0.930 . S
H958 C974 0.931 . S
C959 H947 0.929 . S
C959 C953 1.390 . S
C959 C956 1.386 . S
C960 C955 1.490 . S
C960 C962 1.395 . S
C960 C963 1.403 . S
H961 C967 0.930 . S
C962 H948 0.930 . S
C962 C960 1.395 . S
C962 C965 1.403 . S
C963 C960 1.403 . S
C963 C964 1.524 . S
C963 C967 1.400 . S
C964 H949 0.960 . S
C964 H950 0.960 . S
C964 H951 0.960 . S
C964 C963 1.524 . S
C965 C962 1.403 . S
C965 C966 1.392 . S
C965 C969 1.495 . S
C966 C965 1.392 . S
C966 C967 1.385 . S
C966 C968 1.478 . S
C967 H961 0.930 . S
C967 C963 1.400 . S
C967 C966 1.385 . S
C968 C966 1.478 . S
C968 C970 1.381 . S
C968 C974 1.383 . S
C969 C965 1.495 . S
C969 H975 0.959 . S
C969 H976 0.961 . S
C969 H977 0.960 . S
C970 C968 1.381 . S
C970 C971 1.394 . S
C970 H978 0.930 . S
C971 C970 1.394 . S
C971 C972 1.383 . S
C971 H979 0.929 . S
C972 C971 1.383 . S
C972 C973 1.377 . S
C973 H957 0.930 . S
C973 C972 1.377 . S
C973 C974 1.379 . S
C974 H958 0.931 . S
C974 C968 1.383 . S
C974 C973 1.379 . S
H975 C969 0.959 . S
H976 C969 0.961 . S
H977 C969 0.960 . S
H978 C970 0.930 . S
H979 C971 0.929 . S
H980 C988 0.929 . S
H981 C990 0.930 . S
H982 C992 0.930 . S
H983 C995 0.929 . S
H984 C998 0.930 . S
H985 C1000 0.960 . S
H986 C1000 0.960 . S
H987 C1000 0.960 . S
C988 H980 0.929 . S
C988 C989 1.377 . S
C988 C990 1.384 . S
C989 C988 1.377 . S
C989 C995 1.390 . S
C990 H981 0.930 . S
C990 C988 1.384 . S
C990 C991 1.372 . S
C991 C990 1.372 . S
C991 C992 1.400 . S
C991 C996 1.490 . S
C992 H982 0.930 . S
C992 C991 1.400 . S
C992 C995 1.386 . S
H993 C1009 0.930 . S
H994 C1010 0.931 . S
C995 H983 0.929 . S
C995 C989 1.390 . S
C995 C992 1.386 . S
C996 C991 1.490 . S
C996 C998 1.395 . S
C996 C999 1.403 . S
H997 C1003 0.930 . S
C998 H984 0.930 . S
C998 C996 1.395 . S
C998 C1001 1.403 . S
C999 C996 1.403 . S
C999 C1000 1.524 . S
C999 C1003 1.400 . S
C1000 H985 0.960 . S
C1000 H986 0.960 . S
C1000 H987 0.960 . S
C1000 C999 1.524 . S
C1001 C998 1.403 . S
C1001 C1002 1.392 . S
C1001 C1005 1.495 . S
C1002 C1001 1.392 . S
C1002 C1003 1.385 . S
C1002 C1004 1.478 . S
C1003 H997 0.930 . S
C1003 C999 1.400 . S
C1003 C1002 1.385 . S
C1004 C1002 1.478 . S
C1004 C1006 1.381 . S
C1004 C1010 1.383 . S
C1005 C1001 1.495 . S
C1005 H1011 0.959 . S
C1005 H1012 0.961 . S
C1005 H1013 0.960 . S
C1006 C1004 1.381 . S
C1006 C1007 1.394 . S
C1006 H1014 0.930 . S
C1007 C1006 1.394 . S
C1007 C1008 1.383 . S
C1007 H1015 0.929 . S
C1008 C1007 1.383 . S
C1008 C1009 1.377 . S
C1009 H993 0.930 . S
C1009 C1008 1.377 . S
C1009 C1010 1.379 . S
C1010 H994 0.931 . S
C1010 C1004 1.383 . S
C1010 C1009 1.379 . S
H1011 C1005 0.959 . S
H1012 C1005 0.961 . S
H1013 C1005 0.960 . S
H1014 C1006 0.930 . S
H1015 C1007 0.929 . S
H1016 C1024 0.929 . S
H1017 C1026 0.930 . S
H1018 C1028 0.930 . S
H1019 C1031 0.929 . S
H1020 C1034 0.930 . S
H1021 C1036 0.960 . S
H1022 C1036 0.960 . S
H1023 C1036 0.960 . S
C1024 H1016 0.929 . S
C1024 C1025 1.377 . S
C1024 C1026 1.384 . S
C1025 C1024 1.377 . S
C1025 C1031 1.390 . S
C1026 H1017 0.930 . S
C1026 C1024 1.384 . S
C1026 C1027 1.372 . S
C1027 C1026 1.372 . S
C1027 C1028 1.400 . S
C1027 C1032 1.490 . S
C1028 H1018 0.930 . S
C1028 C1027 1.400 . S
C1028 C1031 1.386 . S
H1029 C1045 0.930 . S
H1030 C1046 0.931 . S
C1031 H1019 0.929 . S
C1031 C1025 1.390 . S
C1031 C1028 1.386 . S
C1032 C1027 1.490 . S
C1032 C1034 1.395 . S
C1032 C1035 1.403 . S
H1033 C1039 0.930 . S
C1034 H1020 0.930 . S
C1034 C1032 1.395 . S
C1034 C1037 1.403 . S
C1035 C1032 1.403 . S
C1035 C1036 1.524 . S
C1035 C1039 1.400 . S
C1036 H1021 0.960 . S
C1036 H1022 0.960 . S
C1036 H1023 0.960 . S
C1036 C1035 1.524 . S
C1037 C1034 1.403 . S
C1037 C1038 1.392 . S
C1037 C1041 1.495 . S
C1038 C1037 1.392 . S
C1038 C1039 1.385 . S
C1038 C1040 1.478 . S
C1039 H1033 0.930 . S
C1039 C1035 1.400 . S
C1039 C1038 1.385 . S
C1040 C1038 1.478 . S
C1040 C1042 1.381 . S
C1040 C1046 1.383 . S
C1041 C1037 1.495 . S
C1041 H1047 0.959 . S
C1041 H1048 0.961 . S
C1041 H1049 0.960 . S
C1042 C1040 1.381 . S
C1042 C1043 1.394 . S
C1042 H1050 0.930 . S
C1043 C1042 1.394 . S
C1043 C1044 1.383 . S
C1043 H1051 0.929 . S
C1044 C1043 1.383 . S
C1044 C1045 1.377 . S
C1045 H1029 0.930 . S
C1045 C1044 1.377 . S
C1045 C1046 1.379 . S
C1046 H1030 0.931 . S
C1046 C1040 1.383 . S
C1046 C1045 1.379 . S
H1047 C1041 0.959 . S
H1048 C1041 0.961 . S
H1049 C1041 0.960 . S
H1050 C1042 0.930 . S
H1051 C1043 0.929 . S
H1052 C1060 0.929 . S
H1053 C1062 0.930 . S
H1054 C1064 0.930 . S
H1055 C1067 0.929 . S
H1056 C1070 0.930 . S
H1057 C1072 0.960 . S
H1058 C1072 0.960 . S
H1059 C1072 0.960 . S
C1060 H1052 0.929 . S
C1060 C1061 1.377 . S
C1060 C1062 1.384 . S
C1061 C1060 1.377 . S
C1061 C1067 1.390 . S
C1062 H1053 0.930 . S
C1062 C1060 1.384 . S
C1062 C1063 1.372 . S
C1063 C1062 1.372 . S
C1063 C1064 1.400 . S
C1063 C1068 1.490 . S
C1064 H1054 0.930 . S
C1064 C1063 1.400 . S
C1064 C1067 1.386 . S
H1065 C1081 0.930 . S
H1066 C1082 0.931 . S
C1067 H1055 0.929 . S
C1067 C1061 1.390 . S
C1067 C1064 1.386 . S
C1068 C1063 1.490 . S
C1068 C1070 1.395 . S
C1068 C1071 1.403 . S
H1069 C1075 0.930 . S
C1070 H1056 0.930 . S
C1070 C1068 1.395 . S
C1070 C1073 1.403 . S
C1071 C1068 1.403 . S
C1071 C1072 1.524 . S
C1071 C1075 1.400 . S
C1072 H1057 0.960 . S
C1072 H1058 0.960 . S
C1072 H1059 0.960 . S
C1072 C1071 1.524 . S
C1073 C1070 1.403 . S
C1073 C1074 1.392 . S
C1073 C1077 1.495 . S
C1074 C1073 1.392 . S
C1074 C1075 1.385 . S
C1074 C1076 1.478 . S
C1075 H1069 0.930 . S
C1075 C1071 1.400 . S
C1075 C1074 1.385 . S
C1076 C1074 1.478 . S
C1076 C1078 1.381 . S
C1076 C1082 1.383 . S
C1077 C1073 1.495 . S
C1077 H1083 0.959 . S
C1077 H1084 0.961 . S
C1077 H1085 0.960 . S
C1078 C1076 1.381 . S
C1078 C1079 1.394 . S
C1078 H1086 0.930 . S
C1079 C1078 1.394 . S
C1079 C1080 1.383 . S
C1079 H1087 0.929 . S
C1080 C1079 1.383 . S
C1080 C1081 1.377 . S
C1081 H1065 0.930 . S
C1081 C1080 1.377 . S
C1081 C1082 1.379 . S
C1082 H1066 0.931 . S
C1082 C1076 1.383 . S
C1082 C1081 1.379 . S
H1083 C1077 0.959 . S
H1084 C1077 0.961 . S
H1085 C1077 0.960 . S
H1086 C1078 0.930 . S
H1087 C1079 0.929 . S
H1088 C1096 0.929 . S
H1089 C1098 0.930 . S
H1090 C1100 0.930 . S
H1091 C1103 0.929 . S
H1092 C1106 0.930 . S
H1093 C1108 0.960 . S
H1094 C1108 0.960 . S
H1095 C1108 0.960 . S
C1096 H1088 0.929 . S
C1096 C1097 1.377 . S
C1096 C1098 1.384 . S
C1097 C1096 1.377 . S
C1097 C1103 1.390 . S
C1098 H1089 0.930 . S
C1098 C1096 1.384 . S
C1098 C1099 1.372 . S
C1099 C1098 1.372 . S
C1099 C1100 1.400 . S
C1099 C1104 1.490 . S
C1100 H1090 0.930 . S
C1100 C1099 1.400 . S
C1100 C1103 1.386 . S
H1101 C1117 0.930 . S
H1102 C1118 0.931 . S
C1103 H1091 0.929 . S
C1103 C1097 1.390 . S
C1103 C1100 1.386 . S
C1104 C1099 1.490 . S
C1104 C1106 1.395 . S
C1104 C1107 1.403 . S
H1105 C1111 0.930 . S
C1106 H1092 0.930 . S
C1106 C1104 1.395 . S
C1106 C1109 1.403 . S
C1107 C1104 1.403 . S
C1107 C1108 1.524 . S
C1107 C1111 1.400 . S
C1108 H1093 0.960 . S
C1108 H1094 0.960 . S
C1108 H1095 0.960 . S
C1108 C1107 1.524 . S
C1109 C1106 1.403 . S
C1109 C1110 1.392 . S
C1109 C1113 1.495 . S
C1110 C1109 1.392 . S
C1110 C1111 1.385 . S
C1110 C1112 1.478 . S
C1111 H1105 0.930 . S
C1111 C1107 1.400 . S
C1111 C1110 1.385 . S
C1112 C1110 1.478 . S
C1112 C1114 1.381 . S
C1112 C1118 1.383 . S
C1113 C1109 1.495 . S
C1113 H1119 0.959 . S
C1113 H1120 0.961 . S
C1113 H1121 0.960 . S
C1114 C1112 1.381 . S
C1114 C1115 1.394 . S
C1114 H1122 0.930 . S
C1115 C1114 1.394 . S
C1115 C1116 1.383 . S
C1115 H1123 0.929 . S
C1116 C1115 1.383 . S
C1116 C1117 1.377 . S
C1117 H1101 0.930 . S
C1117 C1116 1.377 . S
C1117 C1118 1.379 . S
C1118 H1102 0.931 . S
C1118 C1112 1.383 . S
C1118 C1117 1.379 . S
H1119 C1113 0.959 . S
H1120 C1113 0.961 . S
H1121 C1113 0.960 . S
H1122 C1114 0.930 . S
H1123 C1115 0.929 . S
H1124 C1132 0.929 . S
H1125 C1134 0.930 . S
H1126 C1136 0.930 . S
H1127 C1139 0.929 . S
H1128 C1142 0.930 . S
H1129 C1144 0.960 . S
H1130 C1144 0.960 . S
H1131 C1144 0.960 . S
C1132 H1124 0.929 . S
C1132 C1133 1.377 . S
C1132 C1134 1.384 . S
C1133 C1132 1.377 . S
C1133 C1139 1.390 . S
C1134 H1125 0.930 . S
C1134 C1132 1.384 . S
C1134 C1135 1.372 . S
C1135 C1134 1.372 . S
C1135 C1136 1.400 . S
C1135 C1140 1.490 . S
C1136 H1126 0.930 . S
C1136 C1135 1.400 . S
C1136 C1139 1.386 . S
H1137 C1153 0.930 . S
H1138 C1154 0.931 . S
C1139 H1127 0.929 . S
C1139 C1133 1.390 . S
C1139 C1136 1.386 . S
C1140 C1135 1.490 . S
C1140 C1142 1.395 . S
C1140 C1143 1.403 . S
H1141 C1147 0.930 . S
C1142 H1128 0.930 . S
C1142 C1140 1.395 . S
C1142 C1145 1.403 . S
C1143 C1140 1.403 . S
C1143 C1144 1.524 . S
C1143 C1147 1.400 . S
C1144 H1129 0.960 . S
C1144 H1130 0.960 . S
C1144 H1131 0.960 . S
C1144 C1143 1.524 . S
C1145 C1142 1.403 . S
C1145 C1146 1.392 . S
C1145 C1149 1.495 . S
C1146 C1145 1.392 . S
C1146 C1147 1.385 . S
C1146 C1148 1.478 . S
C1147 H1141 0.930 . S
C1147 C1143 1.400 . S
C1147 C1146 1.385 . S
C1148 C1146 1.478 . S
C1148 C1150 1.381 . S
C1148 C1154 1.383 . S
C1149 C1145 1.495 . S
C1149 H1155 0.959 . S
C1149 H1156 0.961 . S
C1149 H1157 0.960 . S
C1150 C1148 1.381 . S
C1150 C1151 1.394 . S
C1150 H1158 0.930 . S
C1151 C1150 1.394 . S
C1151 C1152 1.383 . S
C1151 H1159 0.929 . S
C1152 C1151 1.383 . S
C1152 C1153 1.377 . S
C1153 H1137 0.930 . S
C1153 C1152 1.377 . S
C1153 C1154 1.379 . S
C1154 H1138 0.931 . S
C1154 C1148 1.383 . S
C1154 C1153 1.379 . S
H1155 C1149 0.959 . S
H1156 C1149 0.961 . S
H1157 C1149 0.960 . S
H1158 C1150 0.930 . S
H1159 C1151 0.929 . S
H1160 C1168 0.929 . S
H1161 C1170 0.930 . S
H1162 C1172 0.930 . S
H1163 C1175 0.929 . S
H1164 C1178 0.930 . S
H1165 C1180 0.960 . S
H1166 C1180 0.960 . S
H1167 C1180 0.960 . S
C1168 H1160 0.929 . S
C1168 C1169 1.377 . S
C1168 C1170 1.384 . S
C1169 C1168 1.377 . S
C1169 C1175 1.390 . S
C1170 H1161 0.930 . S
C1170 C1168 1.384 . S
C1170 C1171 1.372 . S
C1171 C1170 1.372 . S
C1171 C1172 1.400 . S
C1171 C1176 1.490 . S
C1172 H1162 0.930 . S
C1172 C1171 1.400 . S
C1172 C1175 1.386 . S
H1173 C1189 0.930 . S
H1174 C1190 0.931 . S
C1175 H1163 0.929 . S
C1175 C1169 1.390 . S
C1175 C1172 1.386 . S
C1176 C1171 1.490 . S
C1176 C1178 1.395 . S
C1176 C1179 1.403 . S
H1177 C1183 0.930 . S
C1178 H1164 0.930 . S
C1178 C1176 1.395 . S
C1178 C1181 1.403 . S
C1179 C1176 1.403 . S
C1179 C1180 1.524 . S
C1179 C1183 1.400 . S
C1180 H1165 0.960 . S
C1180 H1166 0.960 . S
C1180 H1167 0.960 . S
C1180 C1179 1.524 . S
C1181 C1178 1.403 . S
C1181 C1182 1.392 . S
C1181 C1185 1.495 . S
C1182 C1181 1.392 . S
C1182 C1183 1.385 . S
C1182 C1184 1.478 . S
C1183 H1177 0.930 . S
C1183 C1179 1.400 . S
C1183 C1182 1.385 . S
C1184 C1182 1.478 . S
C1184 C1186 1.381 . S
C1184 C1190 1.383 . S
C1185 C1181 1.495 . S
C1185 H1191 0.959 . S
C1185 H1192 0.961 . S
C1185 H1193 0.960 . S
C1186 C1184 1.381 . S
C1186 C1187 1.394 . S
C1186 H1194 0.930 . S
C1187 C1186 1.394 . S
C1187 C1188 1.383 . S
C1187 H1195 0.929 . S
C1188 C1187 1.383 . S
C1188 C1189 1.377 . S
C1189 H1173 0.930 . S
C1189 C1188 1.377 . S
C1189 C1190 1.379 . S
C1190 H1174 0.931 . S
C1190 C1184 1.383 . S
C1190 C1189 1.379 . S
H1191 C1185 0.959 . S
H1192 C1185 0.961 . S
H1193 C1185 0.960 . S
H1194 C1186 0.930 . S
H1195 C1187 0.929 . S
H1196 C1204 0.929 . S
H1197 C1206 0.930 . S
H1198 C1208 0.930 . S
H1199 C1211 0.929 . S
H1200 C1214 0.930 . S
H1201 C1216 0.960 . S
H1202 C1216 0.960 . S
H1203 C1216 0.960 . S
C1204 H1196 0.929 . S
C1204 C1205 1.377 . S
C1204 C1206 1.384 . S
C1205 C1204 1.377 . S
C1205 C1211 1.390 . S
C1206 H1197 0.930 . S
C1206 C1204 1.384 . S
C1206 C1207 1.372 . S
C1207 C1206 1.372 . S
C1207 C1208 1.400 . S
C1207 C1212 1.490 . S
C1208 H1198 0.930 . S
C1208 C1207 1.400 . S
C1208 C1211 1.386 . S
H1209 C1225 0.930 . S
H1210 C1226 0.931 . S
C1211 H1199 0.929 . S
C1211 C1205 1.390 . S
C1211 C1208 1.386 . S
C1212 C1207 1.490 . S
C1212 C1214 1.395 . S
C1212 C1215 1.403 . S
H1213 C1219 0.930 . S
C1214 H1200 0.930 . S
C1214 C1212 1.395 . S
C1214 C1217 1.403 . S
C1215 C1212 1.403 . S
C1215 C1216 1.524 . S
C1215 C1219 1.400 . S
C1216 H1201 0.960 . S
C1216 H1202 0.960 . S
C1216 H1203 0.960 . S
C1216 C1215 1.524 . S
C1217 C1214 1.403 . S
C1217 C1218 1.392 . S
C1217 C1221 1.495 . S
C1218 C1217 1.392 . S
C1218 C1219 1.385 . S
C1218 C1220 1.478 . S
C1219 H1213 0.930 . S
C1219 C1215 1.400 . S
C1219 C1218 1.385 . S
C1220 C1218 1.478 . S
C1220 C1222 1.381 . S
C1220 C1226 1.383 . S
C1221 C1217 1.495 . S
C1221 H1227 0.959 . S
C1221 H1228 0.961 . S
C1221 H1229 0.960 . S
C1222 C1220 1.381 . S
C1222 C1223 1.394 . S
C1222 H1230 0.930 . S
C1223 C1222 1.394 . S
C1223 C1224 1.383 . S
C1223 H1231 0.929 . S
C1224 C1223 1.383 . S
C1224 C1225 1.377 . S
C1225 H1209 0.930 . S
C1225 C1224 1.377 . S
C1225 C1226 1.379 . S
C1226 H1210 0.931 . S
C1226 C1220 1.383 . S
C1226 C1225 1.379 . S
H1227 C1221 0.959 . S
H1228 C1221 0.961 . S
H1229 C1221 0.960 . S
H1230 C1222 0.930 . S
H1231 C1223 0.929 . S
H1232 C1240 0.929 . S
H1233 C1242 0.930 . S
H1234 C1244 0.930 . S
H1235 C1247 0.929 . S
H1236 C1250 0.930 . S
H1237 C1252 0.960 . S
H1238 C1252 0.960 . S
H1239 C1252 0.960 . S
C1240 H1232 0.929 . S
C1240 C1241 1.377 . S
C1240 C1242 1.384 . S
C1241 C1240 1.377 . S
C1241 C1247 1.390 . S
C1242 H1233 0.930 . S
C1242 C1240 1.384 . S
C1242 C1243 1.372 . S
C1243 C1242 1.372 . S
C1243 C1244 1.400 . S
C1243 C1248 1.490 . S
C1244 H1234 0.930 . S
C1244 C1243 1.400 . S
C1244 C1247 1.386 . S
H1245 C1261 0.930 . S
H1246 C1262 0.931 . S
C1247 H1235 0.929 . S
C1247 C1241 1.390 . S
C1247 C1244 1.386 . S
C1248 C1243 1.490 . S
C1248 C1250 1.395 . S
C1248 C1251 1.403 . S
H1249 C1255 0.930 . S
C1250 H1236 0.930 . S
C1250 C1248 1.395 . S
C1250 C1253 1.403 . S
C1251 C1248 1.403 . S
C1251 C1252 1.524 . S
C1251 C1255 1.400 . S
C1252 H1237 0.960 . S
C1252 H1238 0.960 . S
C1252 H1239 0.960 . S
C1252 C1251 1.524 . S
C1253 C1250 1.403 . S
C1253 C1254 1.392 . S
C1253 C1257 1.495 . S
C1254 C1253 1.392 . S
C1254 C1255 1.385 . S
C1254 C1256 1.478 . S
C1255 H1249 0.930 . S
C1255 C1251 1.400 . S
C1255 C1254 1.385 . S
C1256 C1254 1.478 . S
C1256 C1258 1.381 . S
C1256 C1262 1.383 . S
C1257 C1253 1.495 . S
C1257 H1263 0.959 . S
C1257 H1264 0.961 . S
C1257 H1265 0.960 . S
C1258 C1256 1.381 . S
C1258 C1259 1.394 . S
C1258 H1266 0.930 . S
C1259 C1258 1.394 . S
C1259 C1260 1.383 . S
C1259 H1267 0.929 . S
C1260 C1259 1.383 . S
C1260 C1261 1.377 . S
C1261 H1245 0.930 . S
C1261 C1260 1.377 . S
C1261 C1262 1.379 . S
C1262 H1246 0.931 . S
C1262 C1256 1.383 . S
C1262 C1261 1.379 . S
H1263 C1257 0.959 . S
H1264 C1257 0.961 . S
H1265 C1257 0.960 . S
H1266 C1258 0.930 . S
H1267 C1259 0.929 . S
H1268 C1276 0.929 . S
H1269 C1278 0.930 . S
H1270 C1280 0.930 . S
H1271 C1283 0.929 . S
H1272 C1286 0.930 . S
H1273 C1288 0.960 . S
H1274 C1288 0.960 . S
H1275 C1288 0.960 . S
C1276 H1268 0.929 . S
C1276 C1277 1.377 . S
C1276 C1278 1.384 . S
C1277 C1276 1.377 . S
C1277 C1283 1.390 . S
C1278 H1269 0.930 . S
C1278 C1276 1.384 . S
C1278 C1279 1.372 . S
C1279 C1278 1.372 . S
C1279 C1280 1.400 . S
C1279 C1284 1.490 . S
C1280 H1270 0.930 . S
C1280 C1279 1.400 . S
C1280 C1283 1.386 . S
H1281 C1297 0.930 . S
H1282 C1298 0.931 . S
C1283 H1271 0.929 . S
C1283 C1277 1.390 . S
C1283 C1280 1.386 . S
C1284 C1279 1.490 . S
C1284 C1286 1.395 . S
C1284 C1287 1.403 . S
H1285 C1291 0.930 . S
C1286 H1272 0.930 . S
C1286 C1284 1.395 . S
C1286 C1289 1.403 . S
C1287 C1284 1.403 . S
C1287 C1288 1.524 . S
C1287 C1291 1.400 . S
C1288 H1273 0.960 . S
C1288 H1274 0.960 . S
C1288 H1275 0.960 . S
C1288 C1287 1.524 . S
C1289 C1286 1.403 . S
C1289 C1290 1.392 . S
C1289 C1293 1.495 . S
C1290 C1289 1.392 . S
C1290 C1291 1.385 . S
C1290 C1292 1.478 . S
C1291 H1285 0.930 . S
C1291 C1287 1.400 . S
C1291 C1290 1.385 . S
C1292 C1290 1.478 . S
C1292 C1294 1.381 . S
C1292 C1298 1.383 . S
C1293 C1289 1.495 . S
C1293 H1299 0.959 . S
C1293 H1300 0.961 . S
C1293 H1301 0.960 . S
C1294 C1292 1.381 . S
C1294 C1295 1.394 . S
C1294 H1302 0.930 . S
C1295 C1294 1.394 . S
C1295 C1296 1.383 . S
C1295 H1303 0.929 . S
C1296 C1295 1.383 . S
C1296 C1297 1.377 . S
C1297 H1281 0.930 . S
C1297 C1296 1.377 . S
C1297 C1298 1.379 . S
C1298 H1282 0.931 . S
C1298 C1292 1.383 . S
C1298 C1297 1.379 . S
H1299 C1293 0.959 . S
H1300 C1293 0.961 . S
H1301 C1293 0.960 . S
H1302 C1294 0.930 . S
H1303 C1295 0.929 . S
H1304 C1312 0.929 . S
H1305 C1314 0.930 . S
H1306 C1316 0.930 . S
H1307 C1319 0.929 . S
H1308 C1322 0.930 . S
H1309 C1324 0.960 . S
H1310 C1324 0.960 . S
H1311 C1324 0.960 . S
C1312 H1304 0.929 . S
C1312 C1313 1.377 . S
C1312 C1314 1.384 . S
C1313 C1312 1.377 . S
C1313 C1319 1.390 . S
C1314 H1305 0.930 . S
C1314 C1312 1.384 . S
C1314 C1315 1.372 . S
C1315 C1314 1.372 . S
C1315 C1316 1.400 . S
C1315 C1320 1.490 . S
C1316 H1306 0.930 . S
C1316 C1315 1.400 . S
C1316 C1319 1.386 . S
H1317 C1333 0.930 . S
H1318 C1334 0.931 . S
C1319 H1307 0.929 . S
C1319 C1313 1.390 . S
C1319 C1316 1.386 . S
C1320 C1315 1.490 . S
C1320 C1322 1.395 . S
C1320 C1323 1.403 . S
H1321 C1327 0.930 . S
C1322 H1308 0.930 . S
C1322 C1320 1.395 . S
C1322 C1325 1.403 . S
C1323 C1320 1.403 . S
C1323 C1324 1.524 . S
C1323 C1327 1.400 . S
C1324 H1309 0.960 . S
C1324 H1310 0.960 . S
C1324 H1311 0.960 . S
C1324 C1323 1.524 . S
C1325 C1322 1.403 . S
C1325 C1326 1.392 . S
C1325 C1329 1.495 . S
C1326 C1325 1.392 . S
C1326 C1327 1.385 . S
C1326 C1328 1.478 . S
C1327 H1321 0.930 . S
C1327 C1323 1.400 . S
C1327 C1326 1.385 . S
C1328 C1326 1.478 . S
C1328 C1330 1.381 . S
C1328 C1334 1.383 . S
C1329 C1325 1.495 . S
C1329 H1335 0.959 . S
C1329 H1336 0.961 . S
C1329 H1337 0.960 . S
C1330 C1328 1.381 . S
C1330 C1331 1.394 . S
C1330 H1338 0.930 . S
C1331 C1330 1.394 . S
C1331 C1332 1.383 . S
C1331 H1339 0.929 . S
C1332 C1331 1.383 . S
C1332 C1333 1.377 . S
C1333 H1317 0.930 . S
C1333 C1332 1.377 . S
C1333 C1334 1.379 . S
C1334 H1318 0.931 . S
C1334 C1328 1.383 . S
C1334 C1333 1.379 . S
H1335 C1329 0.959 . S
H1336 C1329 0.961 . S
H1337 C1329 0.960 . S
H1338 C1330 0.930 . S
H1339 C1331 0.929 . S
H1340 C1348 0.929 . S
H1341 C1350 0.930 . S
H1342 C1352 0.930 . S
H1343 C1355 0.929 1_554 S
H1344 C1358 0.930 . S
H1345 C1360 0.960 . S
H1346 C1360 0.960 . S
H1347 C1360 0.960 . S
C1348 H1340 0.929 . S
C1348 C1349 1.377 . S
C1348 C1350 1.384 . S
C1349 C1348 1.377 . S
C1349 C1355 1.390 . S
C1350 H1341 0.930 . S
C1350 C1348 1.384 . S
C1350 C1351 1.372 . S
C1351 C1350 1.372 . S
C1351 C1352 1.400 . S
C1351 C1356 1.490 . S
C1352 H1342 0.930 . S
C1352 C1351 1.400 . S
C1352 C1355 1.386 . S
H1353 C1369 0.930 . S
H1354 C1370 0.931 . S
C1355 H1343 0.929 1_556 S
C1355 C1349 1.390 . S
C1355 C1352 1.386 . S
C1356 C1351 1.490 . S
C1356 C1358 1.395 . S
C1356 C1359 1.403 . S
H1357 C1363 0.930 . S
C1358 H1344 0.930 . S
C1358 C1356 1.395 . S
C1358 C1361 1.403 . S
C1359 C1356 1.403 . S
C1359 C1360 1.524 . S
C1359 C1363 1.400 . S
C1360 H1345 0.960 . S
C1360 H1346 0.960 . S
C1360 H1347 0.960 . S
C1360 C1359 1.524 . S
C1361 C1358 1.403 . S
C1361 C1362 1.392 . S
C1361 C1365 1.495 . S
C1362 C1361 1.392 . S
C1362 C1363 1.385 . S
C1362 C1364 1.478 . S
C1363 H1357 0.930 . S
C1363 C1359 1.400 . S
C1363 C1362 1.385 . S
C1364 C1362 1.478 . S
C1364 C1366 1.381 . S
C1364 C1370 1.383 . S
C1365 C1361 1.495 . S
C1365 H1371 0.959 . S
C1365 H1372 0.961 . S
C1365 H1373 0.960 . S
C1366 C1364 1.381 . S
C1366 C1367 1.394 . S
C1366 H1374 0.930 . S
C1367 C1366 1.394 . S
C1367 C1368 1.383 . S
C1367 H1375 0.929 . S
C1368 C1367 1.383 . S
C1368 C1369 1.377 . S
C1369 H1353 0.930 . S
C1369 C1368 1.377 . S
C1369 C1370 1.379 . S
C1370 H1354 0.931 . S
C1370 C1364 1.383 . S
C1370 C1369 1.379 . S
H1371 C1365 0.959 . S
H1372 C1365 0.961 . S
H1373 C1365 0.960 . S
H1374 C1366 0.930 . S
H1375 C1367 0.929 . S
C233 C0 1.387 . S
C252 C168 1.380 . S
C269 C19 1.375 . S
C288 C75 1.374 . S
C305 C28 1.387 . S
C324 C196 1.380 . S
C341 C103 1.376 . S
C360 C47 1.368 . S
C377 C201 1.377 . S
C396 C33 1.378 . S
C413 C98 1.389 . S
C432 C42 1.380 . S
C449 C173 1.377 . S
C468 C5 1.371 . S
C485 C70 1.388 . S
C504 C14 1.392 . S
C521 C56 1.391 . S
C540 C112 1.388 . S
C557 C84 1.391 . S
C576 C140 1.390 . S
C593 C145 1.375 . S
C612 C89 1.370 . S
C629 C61 1.376 . S
C648 C117 1.379 . S
C665 C187 1.377 . S
C684 C131 1.378 . S
C701 C159 1.375 . S
C720 C215 1.373 . S
C737 C154 1.387 . S
C756 C210 1.381 . S
C773 C126 1.390 . S
C792 C182 1.393 . S
C809 C165 1.476 . S
C828 C11 1.473 . S
C845 C121 1.470 . S
C864 C23 1.473 . S
C881 C39 1.476 . S
C900 C137 1.472 . S
C917 C149 1.471 . S
C936 C51 1.476 . S
C953 C163 1.471 . S
C972 C37 1.476 . S
C989 C53 1.474 . S
C1008 C123 1.472 . S
C1025 C135 1.470 . S
C1044 C9 1.460 . S
C1061 C151 1.474 . S
C1080 C25 1.472 . S
C1097 C67 1.474 . S
C1116 C221 1.469 . S
C1133 C177 1.471 . S
C1152 C79 1.471 . S
C1169 C95 1.476 . S
C1188 C193 1.474 . S
C1205 C107 1.469 . S
C1224 C205 1.478 . S
C1241 C93 1.473 . S
C1260 C219 1.459 . S
C1277 C179 1.474 . S
C1296 C109 1.468 . S
C1313 C191 1.473 . S
C1332 C65 1.461 . S
C1349 C207 1.476 . S
C1368 C81 1.473 . S
