# Generated by pormake.
# Topology vcr, (7)-cn, num edge types: 1
# Building blocks:
#     Node 0, Type 0, BuildingBlock: HICVOG_clean_sbu_0, # of connection points: 7
#     Node 1, Type 0, BuildingBlock: HICVOG_clean_sbu_0, # of connection points: 7
#     Node 2, Type 0, BuildingBlock: HICVOG_clean_sbu_0, # of connection points: 7
#     Node 3, Type 0, BuildingBlock: HICVOG_clean_sbu_0, # of connection points: 7
#     Node 4, Type 0, BuildingBlock: HICVOG_clean_sbu_0, # of connection points: 7
#     Node 5, Type 0, BuildingBlock: HICVOG_clean_sbu_0, # of connection points: 7
#     Node 6, Type 0, BuildingBlock: HICVOG_clean_sbu_0, # of connection points: 7
#     Node 7, Type 0, BuildingBlock: HICVOG_clean_sbu_0, # of connection points: 7
#     Edge 8, Type (0, 0), BuildingBlock: CIFDUS_clean_linker_0, # of connection points: 2
#     Edge 9, Type (0, 0), BuildingBlock: CIFDUS_clean_linker_0, # of connection points: 2
#     Edge 10, Type (0, 0), BuildingBlock: CIFDUS_clean_linker_0, # of connection points: 2
#     Edge 11, Type (0, 0), BuildingBlock: CIFDUS_clean_linker_0, # of connection points: 2
#     Edge 12, Type (0, 0), BuildingBlock: CIFDUS_clean_linker_0, # of connection points: 2
#     Edge 13, Type (0, 0), BuildingBlock: CIFDUS_clean_linker_0, # of connection points: 2
#     Edge 14, Type (0, 0), BuildingBlock: CIFDUS_clean_linker_0, # of connection points: 2
#     Edge 15, Type (0, 0), BuildingBlock: CIFDUS_clean_linker_0, # of connection points: 2
#     Edge 16, Type (0, 0), BuildingBlock: CIFDUS_clean_linker_0, # of connection points: 2
#     Edge 17, Type (0, 0), BuildingBlock: CIFDUS_clean_linker_0, # of connection points: 2
#     Edge 18, Type (0, 0), BuildingBlock: CIFDUS_clean_linker_0, # of connection points: 2
#     Edge 19, Type (0, 0), BuildingBlock: CIFDUS_clean_linker_0, # of connection points: 2
#     Edge 20, Type (0, 0), BuildingBlock: CIFDUS_clean_linker_0, # of connection points: 2
#     Edge 21, Type (0, 0), BuildingBlock: CIFDUS_clean_linker_0, # of connection points: 2
#     Edge 22, Type (0, 0), BuildingBlock: CIFDUS_clean_linker_0, # of connection points: 2
#     Edge 23, Type (0, 0), BuildingBlock: CIFDUS_clean_linker_0, # of connection points: 2
#     Edge 24, Type (0, 0), BuildingBlock: CIFDUS_clean_linker_0, # of connection points: 2
#     Edge 25, Type (0, 0), BuildingBlock: CIFDUS_clean_linker_0, # of connection points: 2
#     Edge 26, Type (0, 0), BuildingBlock: CIFDUS_clean_linker_0, # of connection points: 2
#     Edge 27, Type (0, 0), BuildingBlock: CIFDUS_clean_linker_0, # of connection points: 2
#     Edge 28, Type (0, 0), BuildingBlock: CIFDUS_clean_linker_0, # of connection points: 2
#     Edge 29, Type (0, 0), BuildingBlock: CIFDUS_clean_linker_0, # of connection points: 2
#     Edge 30, Type (0, 0), BuildingBlock: CIFDUS_clean_linker_0, # of connection points: 2
#     Edge 31, Type (0, 0), BuildingBlock: CIFDUS_clean_linker_0, # of connection points: 2
#     Edge 32, Type (0, 0), BuildingBlock: CIFDUS_clean_linker_0, # of connection points: 2
#     Edge 33, Type (0, 0), BuildingBlock: CIFDUS_clean_linker_0, # of connection points: 2
#     Edge 34, Type (0, 0), BuildingBlock: CIFDUS_clean_linker_0, # of connection points: 2
#     Edge 35, Type (0, 0), BuildingBlock: CIFDUS_clean_linker_0, # of connection points: 2
# Relax obj value: 0.313
# Max RMSD: 0.270
# Mean RMSD: 0.270
data_MOF--net-vcr--node1-HICVOG_clean_sbu_0--edge1-CIFDUS_clean_linker_0
_symmetry_space_group_name_H-M    P1
_symmetry_Int_Tables_number       1
_symmetry_cell_setting            triclinic
loop_
_symmetry_equiv_pos_as_xyz
'x, y, z'
_cell_length_a     31.555863
_cell_length_b     43.815999
_cell_length_c     17.594724
_cell_angle_alpha  90.145867
_cell_angle_beta   90.110481
_cell_angle_gamma 90.231414
loop_
_atom_site_label
_atom_site_type_symbol
_atom_site_fract_x
_atom_site_fract_y
_atom_site_fract_z
_atom_type_partial_charge
Zn0 Zn 0.15794 0.12669 0.15292 0.0
C1 C 0.08402 0.07743 0.00913 0.0
N2 N 0.11707 0.05874 1.00546 0.0
C3 C 0.1468 0.07243 0.0477 0.0
N4 N 0.13282 0.09958 0.07578 0.0
N5 N 0.09345 0.10263 0.05021 0.0
C6 C 0.97521 0.15218 1.00669 0.0
O7 O 0.98626 0.17957 0.03022 0.0
O8 O 0.21878 0.13723 0.12255 0.0
Zn9 Zn 0.06363 0.14052 0.0347 0.0
N10 N 0.15368 0.10554 0.25151 0.0
C11 C 0.13762 0.05955 0.3179 0.0
C12 C 0.1441 0.0752 0.25039 0.0
C13 C 0.1552 0.12114 0.31884 0.0
N14 N 0.13889 0.07503 0.38446 0.0
C15 C 0.14703 0.10553 0.38759 0.0
O16 O 0.06364 0.1708 0.12204 0.0
C17 C 0.09389 0.18161 0.1619 0.0
O18 O 0.12896 0.1676 0.16906 0.0
H19 H 0.14029 0.06312 0.19766 0.0
H20 H 0.16063 0.14553 0.31824 0.0
C21 C 0.09195 0.14627 0.88029 0.0
C22 C 0.10958 0.16135 0.81676 0.0
C23 C 0.12317 0.20463 0.89517 0.0
C24 C 0.10498 0.18979 0.95698 0.0
N25 N 0.0898 0.16091 0.9485 0.0
N26 N 0.12488 0.1902 0.82692 0.0
H27 H 0.08017 0.12315 0.87675 0.0
C28 C 0.22598 0.14896 0.05779 0.0
O29 O 0.19374 0.15619 0.01413 0.0
O30 O 0.00308 0.13137 1.00431 0.0
H31 H 0.10297 0.20127 0.0112 0.0
H32 H 0.13036 0.0354 0.31736 0.0
H33 H 0.13556 0.22757 0.90115 0.0
Zn34 Zn 0.42394 0.89383 0.05297 0.0
C35 C 0.33975 0.96075 0.06179 0.0
N36 N 0.36887 0.97641 0.02323 0.0
C37 C 0.40301 0.95838 0.02809 0.0
N38 N 0.3949 0.93261 0.06789 0.0
N39 N 0.35506 0.93467 0.09056 0.0
C40 C 0.25596 0.88463 0.10733 0.0
O41 O 0.28599 0.86624 0.08366 0.0
O42 O 0.48706 0.89937 0.03286 0.0
Zn43 Zn 0.32865 0.91301 0.17261 0.0
N44 N 0.39984 0.87567 0.96143 0.0
C45 C 0.36717 0.83291 0.90145 0.0
C46 C 0.38477 0.84662 0.96562 0.0
C47 C 0.39803 0.89164 0.89514 0.0
N48 N 0.36561 0.84869 0.83531 0.0
C49 C 0.38065 0.87778 0.82941 0.0
O50 O 0.35362 0.87218 0.19027 0.0
C51 C 0.385 0.85462 0.18006 0.0
O52 O 0.41552 0.86175 0.13608 0.0
H53 H 0.38633 0.83413 0.01837 0.0
H54 H 0.40962 0.91487 0.89469 0.0
C55 C 0.33508 0.92125 0.33549 0.0
C56 C 0.34557 0.93721 0.40287 0.0
C57 C 0.35974 0.98146 0.32927 0.0
C58 C 0.35038 0.96536 0.26307 0.0
N59 N 0.3376 0.93575 0.26711 0.0
N60 N 0.35739 0.96704 0.39718 0.0
H61 H 0.3268 0.89728 0.33653 0.0
C62 C 0.51476 0.89426 0.08386 0.0
O63 O 0.5021 0.88659 0.15231 0.0
O64 O 0.26606 0.90731 0.14902 0.0
H65 H 0.35464 0.9762 0.20892 0.0
H66 H 0.35495 0.80984 0.90402 0.0
H67 H 0.36982 1.00506 0.32663 0.0
Zn68 Zn 0.17 0.41336 0.32249 0.0
C69 C 0.08998 0.45813 0.46272 0.0
N70 N 0.11962 0.47988 0.461 0.0
C71 C 0.15084 0.4674 0.42046 0.0
N72 N 0.14044 0.43881 0.39668 0.0
N73 N 0.10225 0.43282 0.42472 0.0
C74 C 0.98693 0.39884 0.45809 0.0
O75 O 0.98674 0.40613 0.38571 0.0
O76 O 0.23203 0.40772 0.35712 0.0
Zn77 Zn 0.08115 0.39193 0.44596 0.0
N78 N 0.16319 0.43313 0.22226 0.0
C79 C 0.13822 0.47603 0.1525 0.0
C80 C 0.14626 0.46167 0.22117 0.0
C81 C 0.17063 0.41781 0.15589 0.0
N82 N 0.14541 0.46081 0.08687 0.0
C83 C 0.16094 0.43187 0.08553 0.0
O84 O 0.08272 0.3611 0.35897 0.0
C85 C 0.11371 0.35345 0.3167 0.0
O86 O 0.14559 0.37098 0.30765 0.0
H87 H 0.13837 0.47334 0.27301 0.0
H88 H 0.18316 0.39494 0.15863 0.0
C89 C 0.1216 0.39026 0.593 0.0
C90 C 0.14625 0.37741 0.65167 0.0
C91 C 0.16031 0.33478 0.5722 0.0
C92 C 0.13566 0.34749 0.51475 0.0
N93 N 0.11686 0.37502 0.52594 0.0
N94 N 0.16484 0.34987 0.63914 0.0
H95 H 0.10537 0.41172 0.60081 0.0
C96 C 0.23796 0.4018 0.42715 0.0
O97 O 0.20471 0.39836 0.4711 0.0
O98 O 0.02198 0.39309 0.49084 0.0
H99 H 0.13135 0.33526 0.46201 0.0
H100 H 0.12528 0.49885 0.15125 0.0
H101 H 0.17543 0.31291 0.56395 0.0
Zn102 Zn 0.43527 0.64214 0.45822 0.0
C103 C 0.34845 0.57587 0.4316 0.0
N104 N 0.3767 0.55835 0.46721 0.0
C105 C 0.40979 0.57736 0.47478 0.0
N106 N 0.40214 0.60528 0.44565 0.0
N107 N 0.36355 0.60395 0.4163 0.0
C108 C 0.25948 0.6432 0.40981 0.0
O109 O 0.28472 0.65532 0.46126 0.0
O110 O 0.49814 0.63243 0.47693 0.0
Zn111 Zn 0.33998 0.62989 0.33811 0.0
N112 N 0.41271 0.665 0.5448 0.0
C113 C 0.39996 0.7134 0.60182 0.0
C114 C 0.41383 0.69596 0.54053 0.0
C115 C 0.39776 0.65076 0.60818 0.0
N116 N 0.38646 0.69922 0.66589 0.0
C117 C 0.38501 0.66824 0.67173 0.0
O118 O 0.36383 0.67259 0.33667 0.0
C119 C 0.40078 0.68446 0.33837 0.0
O120 O 0.43245 0.67094 0.36797 0.0
H121 H 0.42595 0.70705 0.49021 0.0
H122 H 0.39723 0.62621 0.60935 0.0
C123 C 0.34935 0.62781 0.17293 0.0
C124 C 0.35923 0.61377 0.10271 0.0
C125 C 0.37533 0.56797 0.16841 0.0
C126 C 0.36643 0.5821 0.23734 0.0
N127 N 0.35293 0.61154 0.23876 0.0
N128 N 0.37162 0.58405 0.10314 0.0
H129 H 0.33881 0.65125 0.17552 0.0
C130 C 0.51818 0.6387 0.53814 0.0
O131 O 0.49772 0.65134 0.5949 0.0
O132 O 0.27578 0.63148 0.3505 0.0
H133 H 0.37073 0.56953 0.28912 0.0
H134 H 0.40074 0.73806 0.59916 0.0
H135 H 0.38569 0.54447 0.16679 0.0
Zn136 Zn 0.82912 0.91014 0.83539 0.0
C137 C 0.90446 0.95629 0.98156 0.0
N138 N 0.87221 0.97575 0.98529 0.0
C139 C 0.84199 0.96282 0.94278 0.0
N140 N 0.8549 0.93547 0.91445 0.0
N141 N 0.89409 0.93136 0.94 0.0
C142 C 0.01144 0.87929 0.98479 0.0
O143 O 0.99944 0.8513 0.96828 0.0
O144 O 0.76602 0.90313 0.85755 0.0
Zn145 Zn 0.92292 0.89255 0.95355 0.0
N146 N 0.83904 0.93115 0.73825 0.0
C147 C 0.86275 0.97597 0.67437 0.0
C148 C 0.85276 0.96064 0.74099 0.0
C149 C 0.83636 0.91603 0.67047 0.0
N150 N 0.86021 0.96095 0.60723 0.0
C151 C 0.84761 0.93126 0.60267 0.0
O152 O 0.9192 0.86099 0.86793 0.0
C153 C 0.88714 0.85166 0.83017 0.0
O154 O 0.85417 0.86805 0.82274 0.0
H155 H 0.85671 0.9723 0.79442 0.0
H156 H 0.82731 0.89219 0.67013 0.0
C157 C 0.89668 0.88804 0.1096 0.0
C158 C 0.87926 0.87351 0.17402 0.0
C159 C 0.8636 0.83008 0.09753 0.0
C160 C 0.88146 0.84439 0.03467 0.0
N161 N 0.89757 0.87307 0.04173 0.0
N162 N 0.86302 0.84486 0.16535 0.0
H163 H 0.90918 0.911 0.11233 0.0
C164 C 0.7527 0.90026 0.92544 0.0
O165 O 0.78039 0.89984 0.9813 0.0
O166 O 0.98441 0.90066 0.98095 0.0
H167 H 0.88252 0.83258 0.98083 0.0
H168 H 0.87336 0.99947 0.67606 0.0
H169 H 0.85054 0.80729 0.09268 0.0
Zn170 Zn 0.56406 0.14025 0.94481 0.0
C171 C 0.64906 0.07436 0.93518 0.0
N172 N 0.62046 0.0584 0.97435 0.0
C173 C 0.58578 0.07594 0.96917 0.0
N174 N 0.5931 0.10164 0.92868 0.0
N175 N 0.6329 0.10006 0.90601 0.0
C176 C 0.72995 0.14721 0.89199 0.0
O177 O 0.69949 0.1638 0.92147 0.0
O178 O 0.50206 0.13329 0.97148 0.0
Zn179 Zn 0.65766 0.12155 0.82323 0.0
N180 N 0.59013 0.15823 0.03463 0.0
C181 C 0.6273 0.1995 0.09265 0.0
C182 C 0.60808 0.18638 0.02918 0.0
C183 C 0.5906 0.14259 0.10142 0.0
N184 N 0.62749 0.18406 0.15936 0.0
C185 C 0.60954 0.15588 0.1664 0.0
O186 O 0.63321 0.1628 0.80958 0.0
C187 C 0.60195 0.18046 0.82012 0.0
O188 O 0.57063 0.17285 0.86184 0.0
H189 H 0.60763 0.19862 0.97603 0.0
H190 H 0.57678 0.12001 0.10279 0.0
C191 C 0.65094 0.11268 0.66074 0.0
C192 C 0.63908 0.09678 0.59405 0.0
C193 C 0.62007 0.05399 0.66946 0.0
C194 C 0.6308 0.07007 0.73502 0.0
N195 N 0.64663 0.09888 0.72968 0.0
N196 N 0.62416 0.06772 0.60092 0.0
H197 H 0.66169 0.13613 0.65869 0.0
C198 C 0.47182 0.14922 0.94506 0.0
O199 O 0.4803 0.17072 0.89539 0.0
O200 O 0.7203 0.12641 0.84437 0.0
H201 H 0.62528 0.05988 0.78971 0.0
H202 H 0.64184 0.22185 0.08908 0.0
H203 H 0.60757 0.03102 0.67305 0.0
Zn204 Zn 0.85074 0.62071 0.69903 0.0
C205 C 0.90897 0.57251 0.53385 0.0
N206 N 0.87647 0.55334 0.54361 0.0
C207 C 0.85143 0.56783 0.59301 0.0
N208 N 0.86792 0.59537 0.6131 0.0
N209 N 0.90407 0.59832 0.57519 0.0
C210 C 0.02236 0.62875 0.56975 0.0
O211 O 0.01043 0.62934 0.64125 0.0
O212 O 0.78594 0.627 0.69539 0.0
Zn213 Zn 0.93305 0.63667 0.5538 0.0
N214 N 0.87132 0.59911 0.79035 0.0
C215 C 0.91127 0.55698 0.83684 0.0
C216 C 0.89529 0.57387 0.77675 0.0
C217 C 0.864 0.60866 0.86309 0.0
N218 N 0.90379 0.5663 0.90885 0.0
C219 C 0.88091 0.5918 0.92449 0.0
O220 O 0.93594 0.66835 0.63946 0.0
C221 C 0.9092 0.67832 0.68756 0.0
O222 O 0.87627 0.66308 0.70535 0.0
H223 H 0.90227 0.56664 0.71966 0.0
H224 H 0.84523 0.62891 0.87268 0.0
C225 C 0.90329 0.64764 0.39887 0.0
C226 C 0.87948 0.66327 0.34333 0.0
C227 C 0.8521 0.6957 0.43934 0.0
C228 C 0.87534 0.68008 0.49398 0.0
N229 N 0.90093 0.65661 0.47299 0.0
N230 N 0.85478 0.68704 0.36555 0.0
H231 H 0.92384 0.62894 0.38345 0.0
C232 C 0.76644 0.62735 0.63179 0.0
O233 O 0.78846 0.62483 0.56881 0.0
O234 O 0.99394 0.62993 0.5184 0.0
H235 H 0.87285 0.68679 0.55269 0.0
H236 H 0.92993 0.53674 0.8264 0.0
H237 H 0.83194 0.71454 0.45545 0.0
Zn238 Zn 0.66973 0.40387 0.68422 0.0
C239 C 0.5875 0.46911 0.62282 0.0
N240 N 0.61833 0.4869 0.65174 0.0
C241 C 0.64898 0.46703 0.66772 0.0
N242 N 0.63678 0.43829 0.6518 0.0
N243 N 0.59871 0.43931 0.62039 0.0
C244 C 0.48117 0.40301 0.56242 0.0
O245 O 0.48487 0.39104 0.63048 0.0
O246 O 0.71967 0.39754 0.61288 0.0
Zn247 Zn 0.57445 0.40371 0.56877 0.0
N248 N 0.69177 0.4149 0.78462 0.0
C249 C 0.74181 0.44308 0.85847 0.0
C250 C 0.72769 0.43211 0.78849 0.0
C251 C 0.67027 0.40718 0.84899 0.0
N252 N 0.7201 0.43578 0.9224 0.0
C253 C 0.68481 0.41785 0.92005 0.0
O254 O 0.57137 0.3669 0.63928 0.0
C255 C 0.59809 0.35402 0.68311 0.0
O256 O 0.63415 0.36591 0.6979 0.0
H257 H 0.74496 0.4377 0.73742 0.0
H258 H 0.64182 0.39339 0.84472 0.0
C259 C 0.60709 0.40279 0.41198 0.0
C260 C 0.63365 0.39158 0.35396 0.0
C261 C 0.6686 0.36031 0.44395 0.0
C262 C 0.64235 0.37137 0.50102 0.0
N263 N 0.61173 0.39209 0.48439 0.0
N264 N 0.66354 0.37051 0.37195 0.0
H265 H 0.58261 0.41922 0.39931 0.0
C266 C 0.75388 0.38523 0.63551 0.0
O267 O 0.75519 0.37327 0.70387 0.0
O268 O 0.5146 0.41068 0.52672 0.0
H269 H 0.6463 0.36314 0.55803 0.0
H270 H 0.76991 0.45724 0.86203 0.0
H271 H 0.69283 0.34369 0.45675 0.0
H272 H 0.40019 0.17753 0.89604 0.0
H273 H 0.44447 0.1109 0.05777 0.0
H274 H 0.37276 0.10555 0.10839 0.0
H275 H 0.29735 0.12026 0.10779 0.0
H276 H 0.25307 0.18555 0.94279 0.0
H277 H 0.32483 0.19103 0.89285 0.0
C278 C 0.39422 0.16178 0.94228 0.0
C279 C 0.42785 0.14481 0.97326 0.0
C280 C 0.35286 0.15871 0.97096 0.0
C281 C 0.41931 0.12434 0.03286 0.0
C282 C 0.37827 0.12131 0.06203 0.0
C283 C 0.3035 0.13586 0.06129 0.0
C284 C 0.26993 0.15272 0.02959 0.0
C285 C 0.34483 0.13853 0.03189 0.0
C286 C 0.27831 0.1724 0.96843 0.0
C287 C 0.31936 0.17553 0.93975 0.0
H288 H 0.18914 0.92433 0.11204 0.0
H289 H 0.22294 0.83246 0.04782 0.0
H290 H 0.15072 0.82284 1.00458 0.0
H291 H 0.07807 0.84027 0.98407 0.0
H292 H 0.04406 0.93272 0.04231 0.0
H293 H 0.11624 0.94244 0.08759 0.0
C294 C 0.18065 0.90222 0.08864 0.0
C295 C 0.21148 0.87916 0.08332 0.0
C296 C 0.13904 0.89696 0.06232 0.0
C297 C 0.19995 0.85066 0.05252 0.0
C298 C 0.1586 0.8451 0.02769 0.0
C299 C 0.08635 0.86257 1.00667 0.0
C300 C 0.05555 0.88563 0.01007 0.0
C301 C 0.12793 0.86807 0.03211 0.0
C302 C 0.06708 0.91448 0.03902 0.0
C303 C 0.10836 0.92006 0.06516 0.0
H304 H 0.40523 0.38504 0.62022 0.0
H305 H 0.46115 0.42764 0.42343 0.0
H306 H 0.39129 0.43065 0.36315 0.0
H307 H 0.31381 0.42066 0.36599 0.0
H308 H 0.25918 0.37848 0.56474 0.0
H309 H 0.32883 0.37576 0.62393 0.0
C310 C 0.40227 0.39507 0.5642 0.0
C311 C 0.43859 0.40599 0.5265 0.0
C312 C 0.36206 0.39666 0.5298 0.0
C313 C 0.43386 0.41895 0.45386 0.0
C314 C 0.39386 0.42064 0.41923 0.0
C315 C 0.31725 0.4107 0.42201 0.0
C316 C 0.28118 0.39964 0.46053 0.0
C317 C 0.35768 0.4094 0.45646 0.0
C318 C 0.28623 0.38717 0.53358 0.0
C319 C 0.32614 0.38559 0.56767 0.0
H320 H 0.06037 0.62306 0.42972 0.0
H321 H 0.08793 0.638 0.66748 0.0
H322 H 0.16275 0.64438 0.63864 0.0
H323 H 0.22052 0.64707 0.54662 0.0
H324 H 0.19526 0.62997 0.30936 0.0
H325 H 0.11973 0.62319 0.33724 0.0
C326 C 0.0828 0.62758 0.47518 0.0
C327 C 0.06825 0.63022 0.55068 0.0
C328 C 0.12629 0.63109 0.45831 0.0
C329 C 0.09795 0.63583 0.60888 0.0
C330 C 0.14089 0.63962 0.59247 0.0
C331 C 0.1985 0.64209 0.50078 0.0
C332 C 0.21349 0.63956 0.42581 0.0
C333 C 0.15537 0.63762 0.51744 0.0
C334 C 0.18455 0.63234 0.36751 0.0
C335 C 0.14134 0.62839 0.38347 0.0
H336 H 0.71471 0.8932 0.06302 0.0
H337 H 0.68671 0.90653 0.82524 0.0
H338 H 0.61087 0.90686 0.85324 0.0
H339 H 0.55224 0.90294 0.94538 0.0
H340 H 0.58093 0.88913 0.18282 0.0
H341 H 0.65654 0.88966 0.15472 0.0
C342 C 0.69208 0.89611 0.01717 0.0
C343 C 0.70654 0.89965 0.94204 0.0
C344 C 0.64849 0.89632 0.03365 0.0
C345 C 0.67659 0.90351 0.88353 0.0
C346 C 0.63315 0.90381 0.89954 0.0
C347 C 0.57503 0.90016 0.99103 0.0
C348 C 0.56075 0.89594 0.06615 0.0
C349 C 0.61869 0.9002 0.97441 0.0
C350 C 0.59084 0.89234 0.12448 0.0
C351 C 0.6342 0.89261 0.10848 0.0
H352 H 0.79745 0.10869 0.87732 0.0
H353 H 0.76192 0.19753 0.96193 0.0
H354 H 0.83432 0.20673 1.00476 0.0
H355 H 0.9076 0.18986 0.01845 0.0
H356 H 0.94362 0.10037 0.93911 0.0
H357 H 0.87115 0.09102 0.89479 0.0
C358 C 0.80566 0.13009 0.90487 0.0
C359 C 0.77435 0.15245 0.91603 0.0
C360 C 0.84739 0.13508 0.93066 0.0
C361 C 0.78536 0.17992 0.9526 0.0
C362 C 0.82679 0.18524 0.97715 0.0
C363 C 0.8997 0.1683 0.99141 0.0
C364 C 0.93111 0.14597 0.98169 0.0
C365 C 0.85803 0.163 0.96656 0.0
C366 C 0.92011 0.11803 0.94714 0.0
C367 C 0.87867 0.11268 0.92163 0.0
H368 H 0.71566 0.61695 0.50911 0.0
H369 H 0.71134 0.64206 0.74628 0.0
H370 H 0.63422 0.64682 0.73874 0.0
H371 H 0.56822 0.64537 0.6638 0.0
H372 H 0.57262 0.61925 0.42722 0.0
H373 H 0.64941 0.61315 0.43583 0.0
C374 C 0.69791 0.62351 0.55924 0.0
C375 C 0.71945 0.62948 0.62802 0.0
C376 C 0.65352 0.62597 0.55462 0.0
C377 C 0.69572 0.63748 0.69255 0.0
C378 C 0.65157 0.64021 0.68825 0.0
C379 C 0.5859 0.63825 0.61408 0.0
C380 C 0.56453 0.63306 0.5447 0.0
C381 C 0.63015 0.63474 0.61944 0.0
C382 C 0.58808 0.62353 0.48123 0.0
C383 C 0.63209 0.62009 0.48607 0.0
H384 H 0.83441 0.37437 0.68214 0.0
H385 H 0.76207 0.40358 0.48728 0.0
H386 H 0.82763 0.41085 0.41524 0.0
H387 H 0.90587 0.40907 0.40796 0.0
H388 H 0.97726 0.38123 0.60552 0.0
H389 H 0.91178 0.37355 0.67591 0.0
C390 C 0.83285 0.38207 0.62368 0.0
C391 C 0.79328 0.3881 0.59002 0.0
C392 C 0.87063 0.38668 0.58308 0.0
C393 C 0.79206 0.39855 0.51452 0.0
C394 C 0.82957 0.40281 0.47333 0.0
C395 C 0.90712 0.40138 0.46644 0.0
C396 C 0.94662 0.39561 0.50103 0.0
C397 C 0.86911 0.39703 0.5071 0.0
C398 C 0.94748 0.3858 0.57711 0.0
C399 C 0.90996 0.38131 0.61756 0.0
H400 H 0.04877 0.31179 0.29817 0.0
H401 H 0.18289 0.32453 0.26018 0.0
H402 H 0.18862 0.27251 0.21336 0.0
H403 H 0.15641 0.22305 0.18376 0.0
H404 H 0.02184 0.21029 0.21152 0.0
H405 H 0.01552 0.26234 0.26196 0.0
C406 C 0.07918 0.30322 0.27927 0.0
C407 C 0.1153 0.32225 0.28298 0.0
C408 C 0.08232 0.27309 0.25106 0.0
C409 C 0.15441 0.31067 0.25777 0.0
C410 C 0.15787 0.28075 0.23125 0.0
C411 C 0.12572 0.23155 0.20151 0.0
C412 C 0.08977 0.21265 0.19506 0.0
C413 C 0.12217 0.26171 0.22806 0.0
C414 C 0.05007 0.2243 0.21647 0.0
C415 C 0.04645 0.25409 0.24515 0.0
H416 H 0.34111 0.7279 0.32796 0.0
H417 H 0.47302 0.71092 0.28125 0.0
H418 H 0.48056 0.76245 0.22853 0.0
H419 H 0.44858 0.81216 0.19338 0.0
H420 H 0.31697 0.82829 0.24765 0.0
H421 H 0.31066 0.7774 0.29989 0.0
C422 C 0.37152 0.7354 0.30597 0.0
C423 C 0.40629 0.71556 0.30756 0.0
C424 C 0.37574 0.765 0.27729 0.0
C425 C 0.4457 0.72581 0.28036 0.0
C426 C 0.45 0.75523 0.25019 0.0
C427 C 0.41865 0.80455 0.21702 0.0
C428 C 0.38337 0.82414 0.21621 0.0
C429 C 0.41512 0.77503 0.24805 0.0
C430 C 0.34482 0.81392 0.24755 0.0
C431 C 0.341 0.78468 0.27732 0.0
H432 H 0.95361 0.81247 0.80178 0.0
H433 H 0.81713 0.8188 0.79241 0.0
H434 H 0.81225 0.76589 0.75175 0.0
H435 H 0.84588 0.7175 0.71939 0.0
H436 H 0.98207 0.71082 0.71765 0.0
H437 H 0.98791 0.76387 0.76216 0.0
C438 C 0.92287 0.80228 0.79044 0.0
C439 C 0.88583 0.81981 0.80029 0.0
C440 C 0.92015 0.77162 0.76553 0.0
C441 C 0.84625 0.80615 0.78492 0.0
C442 C 0.84332 0.77573 0.76197 0.0
C443 C 0.87688 0.72755 0.72939 0.0
C444 C 0.91347 0.71008 0.71646 0.0
C445 C 0.87995 0.75821 0.75246 0.0
C446 C 0.95341 0.72372 0.72775 0.0
C447 C 0.95673 0.75407 0.75307 0.0
H448 H 0.53918 0.22327 0.79698 0.0
H449 H 0.67424 0.20884 0.77811 0.0
H450 H 0.68432 0.26105 0.73761 0.0
H451 H 0.65614 0.31088 0.70845 0.0
H452 H 0.52152 0.32669 0.71648 0.0
H453 H 0.50993 0.27403 0.76026 0.0
C454 C 0.57068 0.23158 0.78352 0.0
C455 C 0.60578 0.21198 0.79051 0.0
C456 C 0.57648 0.26194 0.75876 0.0
C457 C 0.64646 0.22313 0.77263 0.0
C458 C 0.65245 0.25315 0.7498 0.0
C459 C 0.62421 0.30294 0.72034 0.0
C460 C 0.58981 0.32271 0.71051 0.0
C461 C 0.61784 0.27273 0.74307 0.0
C462 C 0.54855 0.31186 0.72422 0.0
C463 C 0.54197 0.28179 0.74913 0.0
H464 H 0.32122 1.01245 0.136 0.0
H465 H 0.26647 0.93857 1.00631 0.0
H466 H 0.20075 0.96739 0.99202 0.0
H467 H 0.16408 1.01529 1.00283 0.0
H468 H 0.21319 0.08646 0.14773 0.0
H469 H 0.27755 0.05723 0.16848 0.0
C470 C 0.2941 1.00209 0.10798 0.0
C471 C 0.29769 0.97313 0.07433 0.0
C472 C 0.25685 0.01885 0.09969 0.0
C473 C 0.26342 0.96039 0.03487 0.0
C474 C 0.22635 0.97708 0.02556 0.0
C475 C 0.18859 0.02484 0.03915 0.0
C476 C 0.18522 0.0548 0.06828 0.0
C477 C 0.22351 1.00672 0.05551 0.0
C478 C 0.21676 0.06542 0.11787 0.0
C479 C 0.25289 0.04799 0.13201 0.0
H480 H 0.17089 0.52147 0.48187 0.0
H481 H 0.21587 0.45689 0.31576 0.0
H482 H 0.27975 0.48708 0.2979 0.0
H483 H 0.32519 0.53017 0.33826 0.0
H484 H 0.2788 0.59415 0.50413 0.0
H485 H 0.21134 0.5669 0.50997 0.0
C486 C 0.19431 0.51379 0.4411 0.0
C487 C 0.18926 0.48567 0.40306 0.0
C488 C 0.22999 0.53197 0.42931 0.0
C489 C 0.21986 0.47697 0.34968 0.0
C490 C 0.25607 0.49479 0.33807 0.0
C491 C 0.29948 0.53878 0.37295 0.0
C492 C 0.30556 0.56502 0.41752 0.0
C493 C 0.26177 0.52205 0.37875 0.0
C494 C 0.27337 0.57514 0.46582 0.0
C495 C 0.23539 0.55909 0.47061 0.0
H496 H 0.67114 0.02654 0.84806 0.0
H497 H 0.71996 0.09444 1.00314 0.0
H498 H 0.78502 0.06496 0.01874 0.0
H499 H 0.82185 1.01725 1.00188 0.0
H500 H 0.78028 0.95344 0.83052 0.0
H501 H 0.71669 0.98348 0.80925 0.0
C502 C 0.69691 0.0356 0.88219 0.0
C503 C 0.69164 0.06284 0.92313 0.0
C504 C 0.73389 0.0185 0.89097 0.0
C505 C 0.72425 0.07386 0.96975 0.0
C506 C 0.76092 0.05677 0.97961 0.0
C507 C 0.79922 1.00959 0.9594 0.0
C508 C 0.80415 0.98115 0.92265 0.0
C509 C 0.76512 0.02852 0.94278 0.0
C510 C 0.77514 0.97298 0.86572 0.0
C511 C 0.73954 0.99097 0.85149 0.0
H512 H 0.69023 0.50974 0.75216 0.0
H513 H 0.7028 0.44963 0.55921 0.0
H514 H 0.76752 0.47544 0.52131 0.0
H515 H 0.81405 0.51887 0.53256 0.0
H516 H 0.80753 0.57713 0.72956 0.0
H517 H 0.74547 0.54954 0.77432 0.0
C518 C 0.70814 0.50182 0.70345 0.0
C519 C 0.69288 0.47717 0.66008 0.0
C520 C 0.74486 0.51744 0.68053 0.0
C521 C 0.71534 0.46743 0.59576 0.0
C522 C 0.7517 0.48273 0.57287 0.0
C523 C 0.79948 0.52567 0.58575 0.0
C524 C 0.81425 0.55158 0.62518 0.0
C525 C 0.76575 0.50836 0.61333 0.0
C526 C 0.79534 0.55906 0.69483 0.0
C527 C 0.76031 0.54262 0.72156 0.0
H528 H 0.06068 0.0359 0.90554 0.0
H529 H 0.01596 0.08441 0.1031 0.0
H530 H 0.96094 0.04574 0.12195 0.0
H531 H 0.92889 0.99661 0.08697 0.0
H532 H 0.97257 0.94863 0.8879 0.0
H533 H 0.02834 0.98683 0.87016 0.0
C534 C 0.03794 0.03848 0.95131 0.0
C535 C 0.04182 0.06332 1.00194 0.0
C536 C 0.00861 1.01507 0.96495 0.0
C537 C 0.01277 0.06616 0.0618 0.0
C538 C 0.98226 0.04349 0.07406 0.0
C539 C 0.95158 0.99401 0.04113 0.0
C540 C 0.94718 0.96946 0.98978 0.0
C541 C 0.98095 1.01739 0.02753 0.0
C542 C 0.97617 0.9666 0.92983 0.0
C543 C 0.00708 0.98906 0.91814 0.0
H544 H 0.56721 0.03442 0.07492 0.0
H545 H 0.51389 0.08333 0.88525 0.0
H546 H 0.45536 0.0467 0.87853 0.0
H547 H 0.42236 0.99916 0.92146 0.0
H548 H 0.47411 0.95129 0.11395 0.0
H549 H 0.53344 0.98729 0.11939 0.0
C550 C 0.5421 0.03745 0.03339 0.0
C551 C 0.54424 0.0618 0.98162 0.0
C552 C 0.51029 1.01533 0.02691 0.0
C553 C 0.51204 0.06541 0.92742 0.0
C554 C 0.47937 0.04395 0.92209 0.0
C555 C 0.44734 0.99619 0.96329 0.0
C556 C 0.44482 0.97204 0.01561 0.0
C557 C 0.47902 0.01838 0.97002 0.0
C558 C 0.47663 0.96869 0.07063 0.0
C559 C 0.50963 0.98994 0.07543 0.0
H560 H 0.04125 0.49066 0.37144 0.0
H561 H 0.04659 0.45105 0.59486 0.0
H562 H 0.99538 0.48868 0.64097 0.0
H563 H 0.95424 0.53543 0.61965 0.0
H564 H 0.94875 0.57527 0.39647 0.0
H565 H 0.99817 0.53653 0.34899 0.0
C566 C 0.02957 0.48947 0.42937 0.0
C567 C 0.04659 0.46761 0.47934 0.0
C568 C 0.00291 0.5126 0.45644 0.0
C569 C 0.03274 0.46693 0.5549 0.0
C570 C 0.00459 0.48907 0.58167 0.0
C571 C 0.96522 0.53622 0.56123 0.0
C572 C 0.94949 0.55887 0.51213 0.0
C573 C 0.99098 0.5127 0.53365 0.0
C574 C 0.96208 0.55895 0.43586 0.0
C575 C 0.98922 0.53624 0.40842 0.0
H576 H 0.45406 0.53257 0.41316 0.0
H577 H 0.45195 0.59442 0.60376 0.0
H578 H 0.50439 0.56345 0.6698 0.0
H579 H 0.54589 0.51665 0.677 0.0
H580 H 0.55351 0.45687 0.48314 0.0
H581 H 0.501 0.48784 0.41574 0.0
C582 C 0.4662 0.53965 0.46827 0.0
C583 C 0.45001 0.56593 0.50338 0.0
C584 C 0.49507 0.52113 0.50654 0.0
C585 C 0.46482 0.57477 0.57511 0.0
C586 C 0.49412 0.55669 0.61338 0.0
C587 C 0.5354 0.51016 0.62038 0.0
C588 C 0.55109 0.48348 0.58645 0.0
C589 C 0.50826 0.52937 0.58051 0.0
C590 C 0.539 0.47587 0.51223 0.0
C591 C 0.51027 0.4942 0.47299 0.0
H592 H 0.1585 0.17932 0.69712 0.0
H593 H 0.064 0.11198 0.75898 0.0
H594 H 0.0683 0.08967 0.63344 0.0
H595 H 0.09782 0.08895 0.50562 0.0
H596 H 0.1904 0.15664 0.43971 0.0
H597 H 0.18676 0.1795 0.56664 0.0
C598 C 0.13872 0.15977 0.68349 0.0
C599 C 0.11174 0.14718 0.73941 0.0
C600 C 0.14052 0.14722 0.60983 0.0
C601 C 0.08626 0.12189 0.71944 0.0
C602 C 0.08824 0.10917 0.64673 0.0
C603 C 0.11739 0.10869 0.51879 0.0
C604 C 0.14432 0.12101 0.46283 0.0
C605 C 0.11527 0.12158 0.59169 0.0
C606 C 0.16895 0.14684 0.481 0.0
C607 C 0.16712 0.15979 0.5539 0.0
H608 H 0.39427 0.95323 0.5236 0.0
H609 H 0.29811 0.88827 0.45506 0.0
H610 H 0.30059 0.86492 0.58068 0.0
H611 H 0.32975 0.86296 0.7099 0.0
H612 H 0.42717 0.92744 0.7767 0.0
H613 H 0.42341 0.95125 0.65254 0.0
C614 C 0.37363 0.93403 0.53597 0.0
C615 C 0.34638 0.92245 0.4791 0.0
C616 C 0.37504 0.92075 0.60852 0.0
C617 C 0.32012 0.89741 0.49659 0.0
C618 C 0.32124 0.88415 0.56887 0.0
C619 C 0.35028 0.88223 0.69769 0.0
C620 C 0.37822 0.89343 0.75413 0.0
C621 C 0.34865 0.8956 0.62519 0.0
C622 C 0.40443 0.91851 0.73628 0.0
C623 C 0.40269 0.93207 0.6645 0.0
H624 H 0.16174 0.45873 0.947 0.0
H625 H 0.16635 0.36966 0.05217 0.0
H626 H 0.16442 0.34573 0.92733 0.0
H627 H 0.15663 0.34976 0.78835 0.0
H628 H 0.14875 0.43884 0.68479 0.0
H629 H 0.15567 0.46284 0.80932 0.0
C630 C 0.16247 0.43403 0.94323 0.0
C631 C 0.16439 0.4163 0.01007 0.0
C632 C 0.15998 0.42027 0.87126 0.0
C633 C 0.16565 0.38428 1.00279 0.0
C634 C 0.16404 0.37042 0.93099 0.0
C635 C 0.15664 0.37445 0.79291 0.0
C636 C 0.15141 0.39238 0.72711 0.0
C637 C 0.16053 0.38818 0.86495 0.0
C638 C 0.15156 0.42435 0.73429 0.0
C639 C 0.15592 0.43814 0.80557 0.0
H640 H 0.38619 0.69529 0.81117 0.0
H641 H 0.35535 0.60956 0.70145 0.0
H642 H 0.34263 0.58641 0.82459 0.0
H643 H 0.34398 0.58934 0.96377 0.0
H644 H 0.37434 0.67485 0.074 0.0
H645 H 0.38206 0.69926 0.95022 0.0
C646 C 0.37628 0.67159 0.81369 0.0
C647 C 0.37309 0.65419 0.74617 0.0
C648 C 0.36854 0.65831 0.88509 0.0
C649 C 0.35979 0.62353 0.75159 0.0
C650 C 0.35201 0.61021 0.82237 0.0
C651 C 0.35194 0.61341 0.96091 0.0
C652 C 0.35847 0.63013 0.02856 0.0
C653 C 0.35705 0.62722 0.88948 0.0
C654 C 0.36843 0.66138 0.02341 0.0
C655 C 0.37332 0.67533 0.95239 0.0
H656 H 0.82808 0.85872 0.29279 0.0
H657 H 0.92954 0.92047 0.23071 0.0
H658 H 0.92759 0.94316 0.35639 0.0
H659 H 0.89834 0.94537 0.48448 0.0
H660 H 0.79822 0.88328 0.54948 0.0
H661 H 0.79946 0.86039 0.42268 0.0
C662 C 0.84987 0.87714 0.30647 0.0
C663 C 0.87826 0.88808 0.25077 0.0
C664 C 0.84929 0.88985 0.37992 0.0
C665 C 0.90628 0.91194 0.27046 0.0
C666 C 0.90561 0.92482 0.34311 0.0
C667 C 0.8766 0.92687 0.47113 0.0
C668 C 0.84838 0.91605 0.52698 0.0
C669 C 0.87728 0.91397 0.39814 0.0
C670 C 0.82082 0.89183 0.50845 0.0
C671 C 0.82126 0.87888 0.43559 0.0
H672 H 0.58826 0.08318 0.47459 0.0
H673 H 0.69233 0.14206 0.53974 0.0
H674 H 0.69229 0.1648 0.41327 0.0
H675 H 0.66281 0.16799 0.28438 0.0
H676 H 0.55737 0.10975 0.22135 0.0
H677 H 0.55888 0.08636 0.34612 0.0
C678 C 0.61116 0.1009 0.46125 0.0
C679 C 0.63994 0.11102 0.51733 0.0
C680 C 0.61108 0.11383 0.38834 0.0
C681 C 0.66915 0.13416 0.49871 0.0
C682 C 0.6694 0.14704 0.426 0.0
C683 C 0.64005 0.15017 0.29759 0.0
C684 C 0.61052 0.14053 0.24206 0.0
C685 C 0.6404 0.1371 0.37046 0.0
C686 C 0.58138 0.11734 0.26109 0.0
C687 C 0.58184 0.10406 0.33321 0.0
H688 H 0.87505 0.64953 0.98578 0.0
H689 H 0.87781 0.55409 0.04611 0.0
H690 H 0.87929 0.56745 0.18045 0.0
H691 H 0.88144 0.60609 0.28143 0.0
H692 H 0.87691 0.70148 0.22227 0.0
H693 H 0.87425 0.68826 0.08733 0.0
C694 C 0.87505 0.63163 0.02817 0.0
C695 C 0.87615 0.60082 1.00549 0.0
C696 C 0.87615 0.63944 0.10583 0.0
C697 C 0.8771 0.57801 0.06172 0.0
C698 C 0.87805 0.58559 0.13874 0.0
C699 C 0.88044 0.62398 0.23898 0.0
C700 C 0.88009 0.65472 0.26179 0.0
C701 C 0.87821 0.61622 0.1615 0.0
C702 C 0.87749 0.67761 0.20608 0.0
C703 C 0.87587 0.67009 0.1289 0.0
H704 H 0.62992 0.35686 0.22739 0.0
H705 H 0.63483 0.4504 0.30313 0.0
H706 H 0.64774 0.46733 0.17243 0.0
H707 H 0.66649 0.45459 0.03964 0.0
H708 H 0.65882 0.3611 0.96367 0.0
H709 H 0.6376 0.345 0.09112 0.0
C710 C 0.63282 0.38101 0.21477 0.0
C711 C 0.6316 0.40239 0.27449 0.0
C712 C 0.64014 0.39048 0.13967 0.0
C713 C 0.63529 0.4336 0.25785 0.0
C714 C 0.64307 0.44322 0.18329 0.0
C715 C 0.65934 0.43079 0.05084 0.0
C716 C 0.66442 0.40902 0.99259 0.0
C717 C 0.64689 0.42176 0.1242 0.0
C718 C 0.65484 0.37828 0.00742 0.0
C719 C 0.64301 0.36906 0.08043 0.0
loop_
_geom_bond_atom_site_label_1
_geom_bond_atom_site_label_2
_geom_bond_distance
_geom_bond_site_symmetry_2
_ccdc_geom_bond_type
Zn0 N4 2.020 . S
Zn0 O8 2.019 . S
Zn0 N10 2.119 . S
Zn0 O18 1.975 . S
C1 N2 1.334 . S
C1 N5 1.336 . S
N2 C1 1.334 . S
N2 C3 1.334 . S
C3 N2 1.334 . S
C3 N4 1.336 . S
N4 Zn0 2.020 . S
N4 C3 1.336 . S
N4 N5 1.354 . S
N5 C1 1.336 . S
N5 N4 1.354 . S
N5 Zn9 2.020 . S
C6 O7 1.244 1_655 S
C6 O30 1.257 1_655 S
O7 C6 1.244 1_455 S
O8 Zn0 2.019 . S
O8 C28 1.257 . S
Zn9 N5 2.020 . S
Zn9 O16 1.975 . S
Zn9 N25 2.119 1_554 S
Zn9 O30 2.019 . S
N10 Zn0 2.119 . S
N10 C12 1.334 . S
N10 C13 1.328 . S
C11 C12 1.391 . S
C11 N14 1.329 . S
C11 H32 0.930 . S
C12 N10 1.334 . S
C12 C11 1.391 . S
C12 H19 0.930 . S
C13 N10 1.328 . S
C13 C15 1.392 . S
C13 H20 0.930 . S
N14 C11 1.329 . S
N14 C15 1.331 . S
C15 C13 1.392 . S
C15 N14 1.331 . S
O16 Zn9 1.975 . S
O16 C17 1.252 . S
C17 O16 1.252 . S
C17 O18 1.252 . S
O18 Zn0 1.975 . S
O18 C17 1.252 . S
H19 C12 0.930 . S
H20 C13 0.930 . S
C21 C22 1.392 . S
C21 N25 1.328 . S
C21 H27 0.930 . S
C22 C21 1.392 . S
C22 N26 1.331 . S
C23 C24 1.391 . S
C23 N26 1.329 . S
C23 H33 0.930 . S
C24 C23 1.391 . S
C24 N25 1.334 . S
C24 H31 0.930 . S
N25 Zn9 2.119 1_556 S
N25 C21 1.328 . S
N25 C24 1.334 . S
N26 C22 1.331 . S
N26 C23 1.329 . S
H27 C21 0.930 . S
C28 O8 1.257 . S
C28 O29 1.244 . S
O29 C28 1.244 . S
O30 C6 1.257 1_455 S
O30 Zn9 2.019 . S
H31 C24 0.930 . S
H32 C11 0.930 . S
H33 C23 0.930 . S
Zn34 N38 2.020 . S
Zn34 O42 2.019 . S
Zn34 N44 2.119 1_554 S
Zn34 O52 1.975 . S
C35 N36 1.334 . S
C35 N39 1.336 . S
N36 C35 1.334 . S
N36 C37 1.334 . S
C37 N36 1.334 . S
C37 N38 1.336 . S
N38 Zn34 2.020 . S
N38 C37 1.336 . S
N38 N39 1.354 . S
N39 C35 1.336 . S
N39 N38 1.354 . S
N39 Zn43 2.020 . S
C40 O41 1.244 . S
C40 O64 1.257 . S
O41 C40 1.244 . S
O42 Zn34 2.019 . S
O42 C62 1.257 . S
Zn43 N39 2.020 . S
Zn43 O50 1.975 . S
Zn43 N59 2.119 . S
Zn43 O64 2.019 . S
N44 Zn34 2.119 1_556 S
N44 C46 1.334 . S
N44 C47 1.328 . S
C45 C46 1.391 . S
C45 N48 1.329 . S
C45 H66 0.930 . S
C46 N44 1.334 . S
C46 C45 1.391 . S
C46 H53 0.930 . S
C47 N44 1.328 . S
C47 C49 1.392 . S
C47 H54 0.930 . S
N48 C45 1.329 . S
N48 C49 1.331 . S
C49 C47 1.392 . S
C49 N48 1.331 . S
O50 Zn43 1.975 . S
O50 C51 1.252 . S
C51 O50 1.252 . S
C51 O52 1.252 . S
O52 Zn34 1.975 . S
O52 C51 1.252 . S
H53 C46 0.930 . S
H54 C47 0.930 . S
C55 C56 1.392 . S
C55 N59 1.328 . S
C55 H61 0.930 . S
C56 C55 1.392 . S
C56 N60 1.331 . S
C57 C58 1.391 . S
C57 N60 1.329 . S
C57 H67 0.930 . S
C58 C57 1.391 . S
C58 N59 1.334 . S
C58 H65 0.930 . S
N59 Zn43 2.119 . S
N59 C55 1.328 . S
N59 C58 1.334 . S
N60 C56 1.331 . S
N60 C57 1.329 . S
H61 C55 0.930 . S
C62 O42 1.257 . S
C62 O63 1.244 . S
O63 C62 1.244 . S
O64 C40 1.257 . S
O64 Zn43 2.019 . S
H65 C58 0.930 . S
H66 C45 0.930 . S
H67 C57 0.930 . S
Zn68 N72 2.020 . S
Zn68 O76 2.019 . S
Zn68 N78 2.119 . S
Zn68 O86 1.975 . S
C69 N70 1.334 . S
C69 N73 1.336 . S
N70 C69 1.334 . S
N70 C71 1.334 . S
C71 N70 1.334 . S
C71 N72 1.336 . S
N72 Zn68 2.020 . S
N72 C71 1.336 . S
N72 N73 1.354 . S
N73 C69 1.336 . S
N73 N72 1.354 . S
N73 Zn77 2.020 . S
C74 O75 1.244 1_655 S
C74 O98 1.257 1_655 S
O75 C74 1.244 1_455 S
O76 Zn68 2.019 . S
O76 C96 1.257 . S
Zn77 N73 2.020 . S
Zn77 O84 1.975 . S
Zn77 N93 2.119 . S
Zn77 O98 2.019 . S
N78 Zn68 2.119 . S
N78 C80 1.334 . S
N78 C81 1.328 . S
C79 C80 1.391 . S
C79 N82 1.329 . S
C79 H100 0.930 . S
C80 N78 1.334 . S
C80 C79 1.391 . S
C80 H87 0.930 . S
C81 N78 1.328 . S
C81 C83 1.392 . S
C81 H88 0.930 . S
N82 C79 1.329 . S
N82 C83 1.331 . S
C83 C81 1.392 . S
C83 N82 1.331 . S
O84 Zn77 1.975 . S
O84 C85 1.252 . S
C85 O84 1.252 . S
C85 O86 1.252 . S
O86 Zn68 1.975 . S
O86 C85 1.252 . S
H87 C80 0.930 . S
H88 C81 0.930 . S
C89 C90 1.392 . S
C89 N93 1.328 . S
C89 H95 0.930 . S
C90 C89 1.392 . S
C90 N94 1.331 . S
C91 C92 1.391 . S
C91 N94 1.329 . S
C91 H101 0.930 . S
C92 C91 1.391 . S
C92 N93 1.334 . S
C92 H99 0.930 . S
N93 Zn77 2.119 . S
N93 C89 1.328 . S
N93 C92 1.334 . S
N94 C90 1.331 . S
N94 C91 1.329 . S
H95 C89 0.930 . S
C96 O76 1.257 . S
C96 O97 1.244 . S
O97 C96 1.244 . S
O98 C74 1.257 1_455 S
O98 Zn77 2.019 . S
H99 C92 0.930 . S
H100 C79 0.930 . S
H101 C91 0.930 . S
Zn102 N106 2.020 . S
Zn102 O110 2.019 . S
Zn102 N112 2.119 . S
Zn102 O120 1.975 . S
C103 N104 1.334 . S
C103 N107 1.336 . S
N104 C103 1.334 . S
N104 C105 1.334 . S
C105 N104 1.334 . S
C105 N106 1.336 . S
N106 Zn102 2.020 . S
N106 C105 1.336 . S
N106 N107 1.354 . S
N107 C103 1.336 . S
N107 N106 1.354 . S
N107 Zn111 2.020 . S
C108 O109 1.244 . S
C108 O132 1.257 . S
O109 C108 1.244 . S
O110 Zn102 2.019 . S
O110 C130 1.257 . S
Zn111 N107 2.020 . S
Zn111 O118 1.975 . S
Zn111 N127 2.119 . S
Zn111 O132 2.019 . S
N112 Zn102 2.119 . S
N112 C114 1.334 . S
N112 C115 1.328 . S
C113 C114 1.391 . S
C113 N116 1.329 . S
C113 H134 0.930 . S
C114 N112 1.334 . S
C114 C113 1.391 . S
C114 H121 0.930 . S
C115 N112 1.328 . S
C115 C117 1.392 . S
C115 H122 0.930 . S
N116 C113 1.329 . S
N116 C117 1.331 . S
C117 C115 1.392 . S
C117 N116 1.331 . S
O118 Zn111 1.975 . S
O118 C119 1.252 . S
C119 O118 1.252 . S
C119 O120 1.252 . S
O120 Zn102 1.975 . S
O120 C119 1.252 . S
H121 C114 0.930 . S
H122 C115 0.930 . S
C123 C124 1.392 . S
C123 N127 1.328 . S
C123 H129 0.930 . S
C124 C123 1.392 . S
C124 N128 1.331 . S
C125 C126 1.391 . S
C125 N128 1.329 . S
C125 H135 0.930 . S
C126 C125 1.391 . S
C126 N127 1.334 . S
C126 H133 0.930 . S
N127 Zn111 2.119 . S
N127 C123 1.328 . S
N127 C126 1.334 . S
N128 C124 1.331 . S
N128 C125 1.329 . S
H129 C123 0.930 . S
C130 O110 1.257 . S
C130 O131 1.244 . S
O131 C130 1.244 . S
O132 C108 1.257 . S
O132 Zn111 2.019 . S
H133 C126 0.930 . S
H134 C113 0.930 . S
H135 C125 0.930 . S
Zn136 N140 2.020 . S
Zn136 O144 2.019 . S
Zn136 N146 2.119 . S
Zn136 O154 1.975 . S
C137 N138 1.334 . S
C137 N141 1.336 . S
N138 C137 1.334 . S
N138 C139 1.334 . S
C139 N138 1.334 . S
C139 N140 1.336 . S
N140 Zn136 2.020 . S
N140 C139 1.336 . S
N140 N141 1.354 . S
N141 C137 1.336 . S
N141 N140 1.354 . S
N141 Zn145 2.020 . S
C142 O143 1.244 1_455 S
C142 O166 1.257 1_455 S
O143 C142 1.244 1_655 S
O144 Zn136 2.019 . S
O144 C164 1.257 . S
Zn145 N141 2.020 . S
Zn145 O152 1.975 . S
Zn145 N161 2.119 1_556 S
Zn145 O166 2.019 . S
N146 Zn136 2.119 . S
N146 C148 1.334 . S
N146 C149 1.328 . S
C147 C148 1.391 . S
C147 N150 1.329 . S
C147 H168 0.930 . S
C148 N146 1.334 . S
C148 C147 1.391 . S
C148 H155 0.930 . S
C149 N146 1.328 . S
C149 C151 1.392 . S
C149 H156 0.930 . S
N150 C147 1.329 . S
N150 C151 1.331 . S
C151 C149 1.392 . S
C151 N150 1.331 . S
O152 Zn145 1.975 . S
O152 C153 1.252 . S
C153 O152 1.252 . S
C153 O154 1.252 . S
O154 Zn136 1.975 . S
O154 C153 1.252 . S
H155 C148 0.930 . S
H156 C149 0.930 . S
C157 C158 1.392 . S
C157 N161 1.328 . S
C157 H163 0.930 . S
C158 C157 1.392 . S
C158 N162 1.331 . S
C159 C160 1.391 . S
C159 N162 1.329 . S
C159 H169 0.930 . S
C160 C159 1.391 . S
C160 N161 1.334 . S
C160 H167 0.930 . S
N161 Zn145 2.119 1_554 S
N161 C157 1.328 . S
N161 C160 1.334 . S
N162 C158 1.331 . S
N162 C159 1.329 . S
H163 C157 0.930 . S
C164 O144 1.257 . S
C164 O165 1.244 . S
O165 C164 1.244 . S
O166 C142 1.257 1_655 S
O166 Zn145 2.019 . S
H167 C160 0.930 . S
H168 C147 0.930 . S
H169 C159 0.930 . S
Zn170 N174 2.020 . S
Zn170 O178 2.019 . S
Zn170 N180 2.119 1_556 S
Zn170 O188 1.975 . S
C171 N172 1.334 . S
C171 N175 1.336 . S
N172 C171 1.334 . S
N172 C173 1.334 . S
C173 N172 1.334 . S
C173 N174 1.336 . S
N174 Zn170 2.020 . S
N174 C173 1.336 . S
N174 N175 1.354 . S
N175 C171 1.336 . S
N175 N174 1.354 . S
N175 Zn179 2.020 . S
C176 O177 1.244 . S
C176 O200 1.257 . S
O177 C176 1.244 . S
O178 Zn170 2.019 . S
O178 C198 1.257 . S
Zn179 N175 2.020 . S
Zn179 O186 1.975 . S
Zn179 N195 2.119 . S
Zn179 O200 2.019 . S
N180 Zn170 2.119 1_554 S
N180 C182 1.334 . S
N180 C183 1.328 . S
C181 C182 1.391 . S
C181 N184 1.329 . S
C181 H202 0.930 . S
C182 N180 1.334 . S
C182 C181 1.391 . S
C182 H189 0.930 . S
C183 N180 1.328 . S
C183 C185 1.392 . S
C183 H190 0.930 . S
N184 C181 1.329 . S
N184 C185 1.331 . S
C185 C183 1.392 . S
C185 N184 1.331 . S
O186 Zn179 1.975 . S
O186 C187 1.252 . S
C187 O186 1.252 . S
C187 O188 1.252 . S
O188 Zn170 1.975 . S
O188 C187 1.252 . S
H189 C182 0.930 . S
H190 C183 0.930 . S
C191 C192 1.392 . S
C191 N195 1.328 . S
C191 H197 0.930 . S
C192 C191 1.392 . S
C192 N196 1.331 . S
C193 C194 1.391 . S
C193 N196 1.329 . S
C193 H203 0.930 . S
C194 C193 1.391 . S
C194 N195 1.334 . S
C194 H201 0.930 . S
N195 Zn179 2.119 . S
N195 C191 1.328 . S
N195 C194 1.334 . S
N196 C192 1.331 . S
N196 C193 1.329 . S
H197 C191 0.930 . S
C198 O178 1.257 . S
C198 O199 1.244 . S
O199 C198 1.244 . S
O200 C176 1.257 . S
O200 Zn179 2.019 . S
H201 C194 0.930 . S
H202 C181 0.930 . S
H203 C193 0.930 . S
Zn204 N208 2.020 . S
Zn204 O212 2.019 . S
Zn204 N214 2.119 . S
Zn204 O222 1.975 . S
C205 N206 1.334 . S
C205 N209 1.336 . S
N206 C205 1.334 . S
N206 C207 1.334 . S
C207 N206 1.334 . S
C207 N208 1.336 . S
N208 Zn204 2.020 . S
N208 C207 1.336 . S
N208 N209 1.354 . S
N209 C205 1.336 . S
N209 N208 1.354 . S
N209 Zn213 2.020 . S
C210 O211 1.244 1_455 S
C210 O234 1.257 1_455 S
O211 C210 1.244 1_655 S
O212 Zn204 2.019 . S
O212 C232 1.257 . S
Zn213 N209 2.020 . S
Zn213 O220 1.975 . S
Zn213 N229 2.119 . S
Zn213 O234 2.019 . S
N214 Zn204 2.119 . S
N214 C216 1.334 . S
N214 C217 1.328 . S
C215 C216 1.391 . S
C215 N218 1.329 . S
C215 H236 0.930 . S
C216 N214 1.334 . S
C216 C215 1.391 . S
C216 H223 0.930 . S
C217 N214 1.328 . S
C217 C219 1.392 . S
C217 H224 0.930 . S
N218 C215 1.329 . S
N218 C219 1.331 . S
C219 C217 1.392 . S
C219 N218 1.331 . S
O220 Zn213 1.975 . S
O220 C221 1.252 . S
C221 O220 1.252 . S
C221 O222 1.252 . S
O222 Zn204 1.975 . S
O222 C221 1.252 . S
H223 C216 0.930 . S
H224 C217 0.930 . S
C225 C226 1.392 . S
C225 N229 1.328 . S
C225 H231 0.930 . S
C226 C225 1.392 . S
C226 N230 1.331 . S
C227 C228 1.391 . S
C227 N230 1.329 . S
C227 H237 0.930 . S
C228 C227 1.391 . S
C228 N229 1.334 . S
C228 H235 0.930 . S
N229 Zn213 2.119 . S
N229 C225 1.328 . S
N229 C228 1.334 . S
N230 C226 1.331 . S
N230 C227 1.329 . S
H231 C225 0.930 . S
C232 O212 1.257 . S
C232 O233 1.244 . S
O233 C232 1.244 . S
O234 C210 1.257 1_655 S
O234 Zn213 2.019 . S
H235 C228 0.930 . S
H236 C215 0.930 . S
H237 C227 0.930 . S
Zn238 N242 2.020 . S
Zn238 O246 2.019 . S
Zn238 N248 2.119 . S
Zn238 O256 1.975 . S
C239 N240 1.334 . S
C239 N243 1.336 . S
N240 C239 1.334 . S
N240 C241 1.334 . S
C241 N240 1.334 . S
C241 N242 1.336 . S
N242 Zn238 2.020 . S
N242 C241 1.336 . S
N242 N243 1.354 . S
N243 C239 1.336 . S
N243 N242 1.354 . S
N243 Zn247 2.020 . S
C244 O245 1.244 . S
C244 O268 1.257 . S
O245 C244 1.244 . S
O246 Zn238 2.019 . S
O246 C266 1.257 . S
Zn247 N243 2.020 . S
Zn247 O254 1.975 . S
Zn247 N263 2.119 . S
Zn247 O268 2.019 . S
N248 Zn238 2.119 . S
N248 C250 1.334 . S
N248 C251 1.328 . S
C249 C250 1.391 . S
C249 N252 1.329 . S
C249 H270 0.930 . S
C250 N248 1.334 . S
C250 C249 1.391 . S
C250 H257 0.930 . S
C251 N248 1.328 . S
C251 C253 1.392 . S
C251 H258 0.930 . S
N252 C249 1.329 . S
N252 C253 1.331 . S
C253 C251 1.392 . S
C253 N252 1.331 . S
O254 Zn247 1.975 . S
O254 C255 1.252 . S
C255 O254 1.252 . S
C255 O256 1.252 . S
O256 Zn238 1.975 . S
O256 C255 1.252 . S
H257 C250 0.930 . S
H258 C251 0.930 . S
C259 C260 1.392 . S
C259 N263 1.328 . S
C259 H265 0.930 . S
C260 C259 1.392 . S
C260 N264 1.331 . S
C261 C262 1.391 . S
C261 N264 1.329 . S
C261 H271 0.930 . S
C262 C261 1.391 . S
C262 N263 1.334 . S
C262 H269 0.930 . S
N263 Zn247 2.119 . S
N263 C259 1.328 . S
N263 C262 1.334 . S
N264 C260 1.331 . S
N264 C261 1.329 . S
H265 C259 0.930 . S
C266 O246 1.257 . S
C266 O267 1.244 . S
O267 C266 1.244 . S
O268 C244 1.257 . S
O268 Zn247 2.019 . S
H269 C262 0.930 . S
H270 C249 0.930 . S
H271 C261 0.930 . S
H272 C278 0.930 . S
H273 C281 0.930 . S
H274 C282 0.930 . S
H275 C283 0.930 . S
H276 C286 0.930 . S
H277 C287 0.930 . S
C278 H272 0.930 . S
C278 C279 1.355 . S
C278 C280 1.415 1_556 S
C279 C278 1.355 . S
C279 C281 1.419 1_556 S
C280 C278 1.415 1_554 S
C280 C285 1.425 . S
C280 C287 1.409 1_554 S
C281 H273 0.930 . S
C281 C279 1.419 1_554 S
C281 C282 1.362 . S
C282 H274 0.930 . S
C282 C281 1.362 . S
C282 C285 1.409 . S
C283 H275 0.930 . S
C283 C284 1.355 . S
C283 C285 1.415 . S
C284 C283 1.355 . S
C284 C286 1.419 . S
C285 C280 1.425 . S
C285 C282 1.409 . S
C285 C283 1.415 . S
C286 H276 0.930 . S
C286 C284 1.419 . S
C286 C287 1.362 1_554 S
C287 H277 0.930 . S
C287 C280 1.409 1_556 S
C287 C286 1.362 1_556 S
H288 C294 0.930 . S
H289 C297 0.930 . S
H290 C298 0.930 . S
H291 C299 0.930 . S
H292 C302 0.930 . S
H293 C303 0.930 . S
C294 H288 0.930 . S
C294 C295 1.355 . S
C294 C296 1.415 . S
C295 C294 1.355 . S
C295 C297 1.419 . S
C296 C294 1.415 . S
C296 C301 1.425 . S
C296 C303 1.409 . S
C297 H289 0.930 . S
C297 C295 1.419 . S
C297 C298 1.362 1_554 S
C298 H290 0.930 . S
C298 C297 1.362 1_556 S
C298 C301 1.409 1_556 S
C299 H291 0.930 . S
C299 C300 1.355 . S
C299 C301 1.415 1_556 S
C300 C299 1.355 . S
C300 C302 1.419 1_556 S
C301 C296 1.425 . S
C301 C298 1.409 1_554 S
C301 C299 1.415 1_554 S
C302 H292 0.930 . S
C302 C300 1.419 1_554 S
C302 C303 1.362 . S
C303 H293 0.930 . S
C303 C296 1.409 . S
C303 C302 1.362 . S
H304 C310 0.930 . S
H305 C313 0.930 . S
H306 C314 0.930 . S
H307 C315 0.930 . S
H308 C318 0.930 . S
H309 C319 0.930 . S
C310 H304 0.930 . S
C310 C311 1.355 . S
C310 C312 1.415 . S
C311 C310 1.355 . S
C311 C313 1.419 . S
C312 C310 1.415 . S
C312 C317 1.425 . S
C312 C319 1.409 . S
C313 H305 0.930 . S
C313 C311 1.419 . S
C313 C314 1.362 . S
C314 H306 0.930 . S
C314 C313 1.362 . S
C314 C317 1.409 . S
C315 H307 0.930 . S
C315 C316 1.355 . S
C315 C317 1.415 . S
C316 C315 1.355 . S
C316 C318 1.419 . S
C317 C312 1.425 . S
C317 C314 1.409 . S
C317 C315 1.415 . S
C318 H308 0.930 . S
C318 C316 1.419 . S
C318 C319 1.362 . S
C319 H309 0.930 . S
C319 C312 1.409 . S
C319 C318 1.362 . S
H320 C326 0.930 . S
H321 C329 0.930 . S
H322 C330 0.930 . S
H323 C331 0.930 . S
H324 C334 0.930 . S
H325 C335 0.930 . S
C326 H320 0.930 . S
C326 C327 1.355 . S
C326 C328 1.415 . S
C327 C326 1.355 . S
C327 C329 1.419 . S
C328 C326 1.415 . S
C328 C333 1.425 . S
C328 C335 1.409 . S
C329 H321 0.930 . S
C329 C327 1.419 . S
C329 C330 1.362 . S
C330 H322 0.930 . S
C330 C329 1.362 . S
C330 C333 1.409 . S
C331 H323 0.930 . S
C331 C332 1.355 . S
C331 C333 1.415 . S
C332 C331 1.355 . S
C332 C334 1.419 . S
C333 C328 1.425 . S
C333 C330 1.409 . S
C333 C331 1.415 . S
C334 H324 0.930 . S
C334 C332 1.419 . S
C334 C335 1.362 . S
C335 H325 0.930 . S
C335 C328 1.409 . S
C335 C334 1.362 . S
H336 C342 0.930 . S
H337 C345 0.930 . S
H338 C346 0.930 . S
H339 C347 0.930 . S
H340 C350 0.930 . S
H341 C351 0.930 . S
C342 H336 0.930 . S
C342 C343 1.355 . S
C342 C344 1.415 . S
C343 C342 1.355 . S
C343 C345 1.419 . S
C344 C342 1.415 . S
C344 C349 1.425 . S
C344 C351 1.409 1_556 S
C345 H337 0.930 . S
C345 C343 1.419 . S
C345 C346 1.362 . S
C346 H338 0.930 . S
C346 C345 1.362 . S
C346 C349 1.409 . S
C347 H339 0.930 . S
C347 C348 1.355 1_556 S
C347 C349 1.415 . S
C348 C347 1.355 1_554 S
C348 C350 1.419 . S
C349 C344 1.425 . S
C349 C346 1.409 . S
C349 C347 1.415 . S
C350 H340 0.930 . S
C350 C348 1.419 . S
C350 C351 1.362 . S
C351 H341 0.930 . S
C351 C344 1.409 1_554 S
C351 C350 1.362 . S
H352 C358 0.930 . S
H353 C361 0.930 . S
H354 C362 0.930 . S
H355 C363 0.930 . S
H356 C366 0.930 . S
H357 C367 0.930 . S
C358 H352 0.930 . S
C358 C359 1.355 . S
C358 C360 1.415 . S
C359 C358 1.355 . S
C359 C361 1.419 . S
C360 C358 1.415 . S
C360 C365 1.425 . S
C360 C367 1.409 . S
C361 H353 0.930 . S
C361 C359 1.419 . S
C361 C362 1.362 1_556 S
C362 H354 0.930 . S
C362 C361 1.362 1_554 S
C362 C365 1.409 1_554 S
C363 H355 0.930 . S
C363 C364 1.355 . S
C363 C365 1.415 1_554 S
C364 C363 1.355 . S
C364 C366 1.419 1_554 S
C365 C360 1.425 . S
C365 C362 1.409 1_556 S
C365 C363 1.415 1_556 S
C366 H356 0.930 . S
C366 C364 1.419 1_556 S
C366 C367 1.362 . S
C367 H357 0.930 . S
C367 C360 1.409 . S
C367 C366 1.362 . S
H368 C374 0.930 . S
H369 C377 0.930 . S
H370 C378 0.930 . S
H371 C379 0.930 . S
H372 C382 0.930 . S
H373 C383 0.930 . S
C374 H368 0.930 . S
C374 C375 1.355 . S
C374 C376 1.415 . S
C375 C374 1.355 . S
C375 C377 1.419 . S
C376 C374 1.415 . S
C376 C381 1.425 . S
C376 C383 1.409 . S
C377 H369 0.930 . S
C377 C375 1.419 . S
C377 C378 1.362 . S
C378 H370 0.930 . S
C378 C377 1.362 . S
C378 C381 1.409 . S
C379 H371 0.930 . S
C379 C380 1.355 . S
C379 C381 1.415 . S
C380 C379 1.355 . S
C380 C382 1.419 . S
C381 C376 1.425 . S
C381 C378 1.409 . S
C381 C379 1.415 . S
C382 H372 0.930 . S
C382 C380 1.419 . S
C382 C383 1.362 . S
C383 H373 0.930 . S
C383 C376 1.409 . S
C383 C382 1.362 . S
H384 C390 0.930 . S
H385 C393 0.930 . S
H386 C394 0.930 . S
H387 C395 0.930 . S
H388 C398 0.930 . S
H389 C399 0.930 . S
C390 H384 0.930 . S
C390 C391 1.355 . S
C390 C392 1.415 . S
C391 C390 1.355 . S
C391 C393 1.419 . S
C392 C390 1.415 . S
C392 C397 1.425 . S
C392 C399 1.409 . S
C393 H385 0.930 . S
C393 C391 1.419 . S
C393 C394 1.362 . S
C394 H386 0.930 . S
C394 C393 1.362 . S
C394 C397 1.409 . S
C395 H387 0.930 . S
C395 C396 1.355 . S
C395 C397 1.415 . S
C396 C395 1.355 . S
C396 C398 1.419 . S
C397 C392 1.425 . S
C397 C394 1.409 . S
C397 C395 1.415 . S
C398 H388 0.930 . S
C398 C396 1.419 . S
C398 C399 1.362 . S
C399 H389 0.930 . S
C399 C392 1.409 . S
C399 C398 1.362 . S
H400 C406 0.930 . S
H401 C409 0.930 . S
H402 C410 0.930 . S
H403 C411 0.930 . S
H404 C414 0.930 . S
H405 C415 0.930 . S
C406 H400 0.930 . S
C406 C407 1.355 . S
C406 C408 1.415 . S
C407 C406 1.355 . S
C407 C409 1.419 . S
C408 C406 1.415 . S
C408 C413 1.425 . S
C408 C415 1.409 . S
C409 H401 0.930 . S
C409 C407 1.419 . S
C409 C410 1.362 . S
C410 H402 0.930 . S
C410 C409 1.362 . S
C410 C413 1.409 . S
C411 H403 0.930 . S
C411 C412 1.355 . S
C411 C413 1.415 . S
C412 C411 1.355 . S
C412 C414 1.419 . S
C413 C408 1.425 . S
C413 C410 1.409 . S
C413 C411 1.415 . S
C414 H404 0.930 . S
C414 C412 1.419 . S
C414 C415 1.362 . S
C415 H405 0.930 . S
C415 C408 1.409 . S
C415 C414 1.362 . S
H416 C422 0.930 . S
H417 C425 0.930 . S
H418 C426 0.930 . S
H419 C427 0.930 . S
H420 C430 0.930 . S
H421 C431 0.930 . S
C422 H416 0.930 . S
C422 C423 1.355 . S
C422 C424 1.415 . S
C423 C422 1.355 . S
C423 C425 1.419 . S
C424 C422 1.415 . S
C424 C429 1.425 . S
C424 C431 1.409 . S
C425 H417 0.930 . S
C425 C423 1.419 . S
C425 C426 1.362 . S
C426 H418 0.930 . S
C426 C425 1.362 . S
C426 C429 1.409 . S
C427 H419 0.930 . S
C427 C428 1.355 . S
C427 C429 1.415 . S
C428 C427 1.355 . S
C428 C430 1.419 . S
C429 C424 1.425 . S
C429 C426 1.409 . S
C429 C427 1.415 . S
C430 H420 0.930 . S
C430 C428 1.419 . S
C430 C431 1.362 . S
C431 H421 0.930 . S
C431 C424 1.409 . S
C431 C430 1.362 . S
H432 C438 0.930 . S
H433 C441 0.930 . S
H434 C442 0.930 . S
H435 C443 0.930 . S
H436 C446 0.930 . S
H437 C447 0.930 . S
C438 H432 0.930 . S
C438 C439 1.355 . S
C438 C440 1.415 . S
C439 C438 1.355 . S
C439 C441 1.419 . S
C440 C438 1.415 . S
C440 C445 1.425 . S
C440 C447 1.409 . S
C441 H433 0.930 . S
C441 C439 1.419 . S
C441 C442 1.362 . S
C442 H434 0.930 . S
C442 C441 1.362 . S
C442 C445 1.409 . S
C443 H435 0.930 . S
C443 C444 1.355 . S
C443 C445 1.415 . S
C444 C443 1.355 . S
C444 C446 1.419 . S
C445 C440 1.425 . S
C445 C442 1.409 . S
C445 C443 1.415 . S
C446 H436 0.930 . S
C446 C444 1.419 . S
C446 C447 1.362 . S
C447 H437 0.930 . S
C447 C440 1.409 . S
C447 C446 1.362 . S
H448 C454 0.930 . S
H449 C457 0.930 . S
H450 C458 0.930 . S
H451 C459 0.930 . S
H452 C462 0.930 . S
H453 C463 0.930 . S
C454 H448 0.930 . S
C454 C455 1.355 . S
C454 C456 1.415 . S
C455 C454 1.355 . S
C455 C457 1.419 . S
C456 C454 1.415 . S
C456 C461 1.425 . S
C456 C463 1.409 . S
C457 H449 0.930 . S
C457 C455 1.419 . S
C457 C458 1.362 . S
C458 H450 0.930 . S
C458 C457 1.362 . S
C458 C461 1.409 . S
C459 H451 0.930 . S
C459 C460 1.355 . S
C459 C461 1.415 . S
C460 C459 1.355 . S
C460 C462 1.419 . S
C461 C456 1.425 . S
C461 C458 1.409 . S
C461 C459 1.415 . S
C462 H452 0.930 . S
C462 C460 1.419 . S
C462 C463 1.362 . S
C463 H453 0.930 . S
C463 C456 1.409 . S
C463 C462 1.362 . S
H464 C470 0.930 . S
H465 C473 0.930 . S
H466 C474 0.930 1_546 S
H467 C475 0.930 . S
H468 C478 0.930 . S
H469 C479 0.930 1_565 S
C470 H464 0.930 . S
C470 C471 1.355 . S
C470 C472 1.415 . S
C471 C470 1.355 . S
C471 C473 1.419 . S
C472 C470 1.415 . S
C472 C477 1.425 1_565 S
C472 C479 1.409 1_565 S
C473 H465 0.930 . S
C473 C471 1.419 . S
C473 C474 1.362 . S
C474 H466 0.930 1_564 S
C474 C473 1.362 . S
C474 C477 1.409 1_565 S
C475 H467 0.930 . S
C475 C476 1.355 . S
C475 C477 1.415 . S
C476 C475 1.355 . S
C476 C478 1.419 . S
C477 C472 1.425 1_545 S
C477 C474 1.409 1_545 S
C477 C475 1.415 . S
C478 H468 0.930 . S
C478 C476 1.419 . S
C478 C479 1.362 . S
C479 H469 0.930 1_545 S
C479 C472 1.409 1_545 S
C479 C478 1.362 . S
H480 C486 0.930 . S
H481 C489 0.930 . S
H482 C490 0.930 . S
H483 C491 0.930 . S
H484 C494 0.930 . S
H485 C495 0.930 . S
C486 H480 0.930 . S
C486 C487 1.355 . S
C486 C488 1.415 . S
C487 C486 1.355 . S
C487 C489 1.419 . S
C488 C486 1.415 . S
C488 C493 1.425 . S
C488 C495 1.409 . S
C489 H481 0.930 . S
C489 C487 1.419 . S
C489 C490 1.362 . S
C490 H482 0.930 . S
C490 C489 1.362 . S
C490 C493 1.409 . S
C491 H483 0.930 . S
C491 C492 1.355 . S
C491 C493 1.415 . S
C492 C491 1.355 . S
C492 C494 1.419 . S
C493 C488 1.425 . S
C493 C490 1.409 . S
C493 C491 1.415 . S
C494 H484 0.930 . S
C494 C492 1.419 . S
C494 C495 1.362 . S
C495 H485 0.930 . S
C495 C488 1.409 . S
C495 C494 1.362 . S
H496 C502 0.930 . S
H497 C505 0.930 . S
H498 C506 0.930 . S
H499 C507 0.930 . S
H500 C510 0.930 . S
H501 C511 0.930 . S
C502 H496 0.930 . S
C502 C503 1.355 . S
C502 C504 1.415 1_545 S
C503 C502 1.355 . S
C503 C505 1.419 . S
C504 C502 1.415 1_565 S
C504 C509 1.425 1_565 S
C504 C511 1.409 . S
C505 H497 0.930 . S
C505 C503 1.419 . S
C505 C506 1.362 . S
C506 H498 0.930 . S
C506 C505 1.362 . S
C506 C509 1.409 . S
C507 H499 0.930 . S
C507 C508 1.355 . S
C507 C509 1.415 1_565 S
C508 C507 1.355 . S
C508 C510 1.419 . S
C509 C504 1.425 1_545 S
C509 C506 1.409 . S
C509 C507 1.415 1_545 S
C510 H500 0.930 . S
C510 C508 1.419 . S
C510 C511 1.362 . S
C511 H501 0.930 . S
C511 C504 1.409 . S
C511 C510 1.362 . S
H512 C518 0.930 . S
H513 C521 0.930 . S
H514 C522 0.930 . S
H515 C523 0.930 . S
H516 C526 0.930 . S
H517 C527 0.930 . S
C518 H512 0.930 . S
C518 C519 1.355 . S
C518 C520 1.415 . S
C519 C518 1.355 . S
C519 C521 1.419 . S
C520 C518 1.415 . S
C520 C525 1.425 . S
C520 C527 1.409 . S
C521 H513 0.930 . S
C521 C519 1.419 . S
C521 C522 1.362 . S
C522 H514 0.930 . S
C522 C521 1.362 . S
C522 C525 1.409 . S
C523 H515 0.930 . S
C523 C524 1.355 . S
C523 C525 1.415 . S
C524 C523 1.355 . S
C524 C526 1.419 . S
C525 C520 1.425 . S
C525 C522 1.409 . S
C525 C523 1.415 . S
C526 H516 0.930 . S
C526 C524 1.419 . S
C526 C527 1.362 . S
C527 H517 0.930 . S
C527 C520 1.409 . S
C527 C526 1.362 . S
H528 C534 0.930 . S
H529 C537 0.930 . S
H530 C538 0.930 . S
H531 C539 0.930 . S
H532 C542 0.930 . S
H533 C543 0.930 . S
C534 H528 0.930 . S
C534 C535 1.355 1_556 S
C534 C536 1.415 1_455 S
C535 C534 1.355 1_554 S
C535 C537 1.419 . S
C536 C534 1.415 1_655 S
C536 C541 1.425 1_646 S
C536 C543 1.409 . S
C537 H529 0.930 . S
C537 C535 1.419 . S
C537 C538 1.362 1_545 S
C538 H530 0.930 . S
C538 C537 1.362 1_565 S
C538 C541 1.409 . S
C539 H531 0.930 . S
C539 C540 1.355 1_554 S
C539 C541 1.415 1_655 S
C540 C539 1.355 1_556 S
C540 C542 1.419 . S
C541 C536 1.425 1_464 S
C541 C538 1.409 . S
C541 C539 1.415 1_455 S
C542 H532 0.930 . S
C542 C540 1.419 . S
C542 C543 1.362 1_565 S
C543 H533 0.930 . S
C543 C536 1.409 . S
C543 C542 1.362 1_545 S
H544 C550 0.930 . S
H545 C553 0.930 . S
H546 C554 0.930 . S
H547 C555 0.930 . S
H548 C558 0.930 . S
H549 C559 0.930 . S
C550 H544 0.930 . S
C550 C551 1.355 . S
C550 C552 1.415 1_545 S
C551 C550 1.355 . S
C551 C553 1.419 . S
C552 C550 1.415 1_565 S
C552 C557 1.425 1_566 S
C552 C559 1.409 . S
C553 H545 0.930 . S
C553 C551 1.419 . S
C553 C554 1.362 1_556 S
C554 H546 0.930 . S
C554 C553 1.362 1_554 S
C554 C557 1.409 . S
C555 H547 0.930 . S
C555 C556 1.355 . S
C555 C557 1.415 1_565 S
C556 C555 1.355 . S
C556 C558 1.419 . S
C557 C552 1.425 1_544 S
C557 C554 1.409 . S
C557 C555 1.415 1_545 S
C558 H548 0.930 . S
C558 C556 1.419 . S
C558 C559 1.362 1_554 S
C559 H549 0.930 . S
C559 C552 1.409 . S
C559 C558 1.362 1_556 S
H560 C566 0.930 . S
H561 C569 0.930 . S
H562 C570 0.930 . S
H563 C571 0.930 . S
H564 C574 0.930 . S
H565 C575 0.930 . S
C566 H560 0.930 . S
C566 C567 1.355 . S
C566 C568 1.415 1_455 S
C567 C566 1.355 . S
C567 C569 1.419 . S
C568 C566 1.415 1_655 S
C568 C573 1.425 1_655 S
C568 C575 1.409 . S
C569 H561 0.930 . S
C569 C567 1.419 . S
C569 C570 1.362 . S
C570 H562 0.930 . S
C570 C569 1.362 . S
C570 C573 1.409 . S
C571 H563 0.930 . S
C571 C572 1.355 . S
C571 C573 1.415 1_655 S
C572 C571 1.355 . S
C572 C574 1.419 . S
C573 C568 1.425 1_455 S
C573 C570 1.409 . S
C573 C571 1.415 1_455 S
C574 H564 0.930 . S
C574 C572 1.419 . S
C574 C575 1.362 . S
C575 H565 0.930 . S
C575 C568 1.409 . S
C575 C574 1.362 . S
H576 C582 0.930 . S
H577 C585 0.930 . S
H578 C586 0.930 . S
H579 C587 0.930 . S
H580 C590 0.930 . S
H581 C591 0.930 . S
C582 H576 0.930 . S
C582 C583 1.355 . S
C582 C584 1.415 . S
C583 C582 1.355 . S
C583 C585 1.419 . S
C584 C582 1.415 . S
C584 C589 1.425 . S
C584 C591 1.409 . S
C585 H577 0.930 . S
C585 C583 1.419 . S
C585 C586 1.362 . S
C586 H578 0.930 . S
C586 C585 1.362 . S
C586 C589 1.409 . S
C587 H579 0.930 . S
C587 C588 1.355 . S
C587 C589 1.415 . S
C588 C587 1.355 . S
C588 C590 1.419 . S
C589 C584 1.425 . S
C589 C586 1.409 . S
C589 C587 1.415 . S
C590 H580 0.930 . S
C590 C588 1.419 . S
C590 C591 1.362 . S
C591 H581 0.930 . S
C591 C584 1.409 . S
C591 C590 1.362 . S
H592 C598 0.930 . S
H593 C601 0.930 . S
H594 C602 0.930 . S
H595 C603 0.930 . S
H596 C606 0.930 . S
H597 C607 0.930 . S
C598 H592 0.930 . S
C598 C599 1.355 . S
C598 C600 1.415 . S
C599 C598 1.355 . S
C599 C601 1.419 . S
C600 C598 1.415 . S
C600 C605 1.425 . S
C600 C607 1.409 . S
C601 H593 0.930 . S
C601 C599 1.419 . S
C601 C602 1.362 . S
C602 H594 0.930 . S
C602 C601 1.362 . S
C602 C605 1.409 . S
C603 H595 0.930 . S
C603 C604 1.355 . S
C603 C605 1.415 . S
C604 C603 1.355 . S
C604 C606 1.419 . S
C605 C600 1.425 . S
C605 C602 1.409 . S
C605 C603 1.415 . S
C606 H596 0.930 . S
C606 C604 1.419 . S
C606 C607 1.362 . S
C607 H597 0.930 . S
C607 C600 1.409 . S
C607 C606 1.362 . S
H608 C614 0.930 . S
H609 C617 0.930 . S
H610 C618 0.930 . S
H611 C619 0.930 . S
H612 C622 0.930 . S
H613 C623 0.930 . S
C614 H608 0.930 . S
C614 C615 1.355 . S
C614 C616 1.415 . S
C615 C614 1.355 . S
C615 C617 1.419 . S
C616 C614 1.415 . S
C616 C621 1.425 . S
C616 C623 1.409 . S
C617 H609 0.930 . S
C617 C615 1.419 . S
C617 C618 1.362 . S
C618 H610 0.930 . S
C618 C617 1.362 . S
C618 C621 1.409 . S
C619 H611 0.930 . S
C619 C620 1.355 . S
C619 C621 1.415 . S
C620 C619 1.355 . S
C620 C622 1.419 . S
C621 C616 1.425 . S
C621 C618 1.409 . S
C621 C619 1.415 . S
C622 H612 0.930 . S
C622 C620 1.419 . S
C622 C623 1.362 . S
C623 H613 0.930 . S
C623 C616 1.409 . S
C623 C622 1.362 . S
H624 C630 0.930 . S
H625 C633 0.930 . S
H626 C634 0.930 . S
H627 C635 0.930 . S
H628 C638 0.930 . S
H629 C639 0.930 . S
C630 H624 0.930 . S
C630 C631 1.355 1_556 S
C630 C632 1.415 . S
C631 C630 1.355 1_554 S
C631 C633 1.419 . S
C632 C630 1.415 . S
C632 C637 1.425 . S
C632 C639 1.409 . S
C633 H625 0.930 . S
C633 C631 1.419 . S
C633 C634 1.362 1_554 S
C634 H626 0.930 . S
C634 C633 1.362 1_556 S
C634 C637 1.409 . S
C635 H627 0.930 . S
C635 C636 1.355 . S
C635 C637 1.415 . S
C636 C635 1.355 . S
C636 C638 1.419 . S
C637 C632 1.425 . S
C637 C634 1.409 . S
C637 C635 1.415 . S
C638 H628 0.930 . S
C638 C636 1.419 . S
C638 C639 1.362 . S
C639 H629 0.930 . S
C639 C632 1.409 . S
C639 C638 1.362 . S
H640 C646 0.930 . S
H641 C649 0.930 . S
H642 C650 0.930 . S
H643 C651 0.930 . S
H644 C654 0.930 . S
H645 C655 0.930 . S
C646 H640 0.930 . S
C646 C647 1.355 . S
C646 C648 1.415 . S
C647 C646 1.355 . S
C647 C649 1.419 . S
C648 C646 1.415 . S
C648 C653 1.425 . S
C648 C655 1.409 . S
C649 H641 0.930 . S
C649 C647 1.419 . S
C649 C650 1.362 . S
C650 H642 0.930 . S
C650 C649 1.362 . S
C650 C653 1.409 . S
C651 H643 0.930 . S
C651 C652 1.355 1_556 S
C651 C653 1.415 . S
C652 C651 1.355 1_554 S
C652 C654 1.419 . S
C653 C648 1.425 . S
C653 C650 1.409 . S
C653 C651 1.415 . S
C654 H644 0.930 . S
C654 C652 1.419 . S
C654 C655 1.362 1_554 S
C655 H645 0.930 . S
C655 C648 1.409 . S
C655 C654 1.362 1_556 S
H656 C662 0.930 . S
H657 C665 0.930 . S
H658 C666 0.930 . S
H659 C667 0.930 . S
H660 C670 0.930 . S
H661 C671 0.930 . S
C662 H656 0.930 . S
C662 C663 1.355 . S
C662 C664 1.415 . S
C663 C662 1.355 . S
C663 C665 1.419 . S
C664 C662 1.415 . S
C664 C669 1.425 . S
C664 C671 1.409 . S
C665 H657 0.930 . S
C665 C663 1.419 . S
C665 C666 1.362 . S
C666 H658 0.930 . S
C666 C665 1.362 . S
C666 C669 1.409 . S
C667 H659 0.930 . S
C667 C668 1.355 . S
C667 C669 1.415 . S
C668 C667 1.355 . S
C668 C670 1.419 . S
C669 C664 1.425 . S
C669 C666 1.409 . S
C669 C667 1.415 . S
C670 H660 0.930 . S
C670 C668 1.419 . S
C670 C671 1.362 . S
C671 H661 0.930 . S
C671 C664 1.409 . S
C671 C670 1.362 . S
H672 C678 0.930 . S
H673 C681 0.930 . S
H674 C682 0.930 . S
H675 C683 0.930 . S
H676 C686 0.930 . S
H677 C687 0.930 . S
C678 H672 0.930 . S
C678 C679 1.355 . S
C678 C680 1.415 . S
C679 C678 1.355 . S
C679 C681 1.419 . S
C680 C678 1.415 . S
C680 C685 1.425 . S
C680 C687 1.409 . S
C681 H673 0.930 . S
C681 C679 1.419 . S
C681 C682 1.362 . S
C682 H674 0.930 . S
C682 C681 1.362 . S
C682 C685 1.409 . S
C683 H675 0.930 . S
C683 C684 1.355 . S
C683 C685 1.415 . S
C684 C683 1.355 . S
C684 C686 1.419 . S
C685 C680 1.425 . S
C685 C682 1.409 . S
C685 C683 1.415 . S
C686 H676 0.930 . S
C686 C684 1.419 . S
C686 C687 1.362 . S
C687 H677 0.930 . S
C687 C680 1.409 . S
C687 C686 1.362 . S
H688 C694 0.930 . S
H689 C697 0.930 . S
H690 C698 0.930 . S
H691 C699 0.930 . S
H692 C702 0.930 . S
H693 C703 0.930 . S
C694 H688 0.930 . S
C694 C695 1.355 1_554 S
C694 C696 1.415 . S
C695 C694 1.355 1_556 S
C695 C697 1.419 . S
C696 C694 1.415 . S
C696 C701 1.425 . S
C696 C703 1.409 . S
C697 H689 0.930 . S
C697 C695 1.419 . S
C697 C698 1.362 1_556 S
C698 H690 0.930 . S
C698 C697 1.362 1_554 S
C698 C701 1.409 . S
C699 H691 0.930 . S
C699 C700 1.355 . S
C699 C701 1.415 . S
C700 C699 1.355 . S
C700 C702 1.419 . S
C701 C696 1.425 . S
C701 C698 1.409 . S
C701 C699 1.415 . S
C702 H692 0.930 . S
C702 C700 1.419 . S
C702 C703 1.362 . S
C703 H693 0.930 . S
C703 C696 1.409 . S
C703 C702 1.362 . S
H704 C710 0.930 . S
H705 C713 0.930 . S
H706 C714 0.930 . S
H707 C715 0.930 . S
H708 C718 0.930 . S
H709 C719 0.930 . S
C710 H704 0.930 . S
C710 C711 1.355 . S
C710 C712 1.415 . S
C711 C710 1.355 . S
C711 C713 1.419 . S
C712 C710 1.415 . S
C712 C717 1.425 . S
C712 C719 1.409 . S
C713 H705 0.930 . S
C713 C711 1.419 . S
C713 C714 1.362 . S
C714 H706 0.930 . S
C714 C713 1.362 . S
C714 C717 1.409 . S
C715 H707 0.930 . S
C715 C716 1.355 . S
C715 C717 1.415 1_556 S
C716 C715 1.355 . S
C716 C718 1.419 1_556 S
C717 C712 1.425 . S
C717 C714 1.409 . S
C717 C715 1.415 1_554 S
C718 H708 0.930 . S
C718 C716 1.419 1_554 S
C718 C719 1.362 . S
C719 H709 0.930 . S
C719 C712 1.409 . S
C719 C718 1.362 . S
C279 C198 1.603 . S
C284 C28 1.567 . S
C295 C40 1.579 . S
C300 C142 1.603 . S
C311 C244 1.602 . S
C316 C96 1.567 . S
C327 C210 1.641 . S
C332 C108 1.629 . S
C343 C164 1.639 . S
C348 C62 1.658 . S
C359 C176 1.571 . S
C364 C6 1.611 . S
C375 C232 1.603 . S
C380 C130 1.618 . S
C391 C266 1.576 . S
C396 C74 1.617 . S
C407 C85 1.792 . S
C412 C17 1.793 . S
C423 C119 1.835 . S
C428 C51 1.833 . S
C439 C153 1.786 . S
C444 C221 1.786 . S
C455 C187 1.842 . S
C460 C255 1.844 . S
C471 C35 1.677 . S
C476 C3 1.732 . S
C487 C71 1.739 . S
C492 C103 1.690 . S
C503 C171 1.707 . S
C508 C139 1.739 . S
C519 C241 1.704 . S
C524 C207 1.739 . S
C535 C1 1.795 . S
C540 C137 1.795 . S
C551 C173 1.848 . S
C556 C37 1.848 . S
C567 C69 1.810 . S
C572 C205 1.810 . S
C583 C105 1.863 . S
C588 C239 1.863 . S
C599 C22 1.537 . S
C604 C15 1.546 . S
C615 C56 1.549 . S
C620 C49 1.539 . S
C631 C83 1.476 . S
C636 C90 1.461 . S
C647 C117 1.413 . S
C652 C124 1.426 . S
C663 C158 1.538 . S
C668 C151 1.548 . S
C679 C192 1.479 . S
C684 C185 1.472 . S
C695 C219 1.444 . S
C700 C226 1.436 . S
C711 C260 1.528 . S
C716 C253 1.540 . S
